# Generated by pormake.
# Topology whk, (6)-cn, num edge types: 1
# Building blocks:
#     Node 0, Type 0, BuildingBlock: KUMBOL_clean_sbu_1, # of connection points: 6
#     Node 1, Type 0, BuildingBlock: KUMBOL_clean_sbu_1, # of connection points: 6
#     Node 2, Type 0, BuildingBlock: KUMBOL_clean_sbu_1, # of connection points: 6
#     Node 3, Type 0, BuildingBlock: KUMBOL_clean_sbu_1, # of connection points: 6
#     Node 4, Type 0, BuildingBlock: KUMBOL_clean_sbu_1, # of connection points: 6
#     Node 5, Type 0, BuildingBlock: KUMBOL_clean_sbu_1, # of connection points: 6
#     Node 6, Type 0, BuildingBlock: KUMBOL_clean_sbu_1, # of connection points: 6
#     Node 7, Type 0, BuildingBlock: KUMBOL_clean_sbu_1, # of connection points: 6
#     Node 8, Type 0, BuildingBlock: KUMBOL_clean_sbu_1, # of connection points: 6
#     Node 9, Type 0, BuildingBlock: KUMBOL_clean_sbu_1, # of connection points: 6
#     Node 10, Type 0, BuildingBlock: KUMBOL_clean_sbu_1, # of connection points: 6
#     Node 11, Type 0, BuildingBlock: KUMBOL_clean_sbu_1, # of connection points: 6
#     Node 12, Type 0, BuildingBlock: KUMBOL_clean_sbu_1, # of connection points: 6
#     Node 13, Type 0, BuildingBlock: KUMBOL_clean_sbu_1, # of connection points: 6
#     Node 14, Type 0, BuildingBlock: KUMBOL_clean_sbu_1, # of connection points: 6
#     Node 15, Type 0, BuildingBlock: KUMBOL_clean_sbu_1, # of connection points: 6
#     Edge 16, Type (0, 0), BuildingBlock: KIFKEQ_clean_linker_1, # of connection points: 2
#     Edge 17, Type (0, 0), BuildingBlock: KIFKEQ_clean_linker_1, # of connection points: 2
#     Edge 18, Type (0, 0), BuildingBlock: KIFKEQ_clean_linker_1, # of connection points: 2
#     Edge 19, Type (0, 0), BuildingBlock: KIFKEQ_clean_linker_1, # of connection points: 2
#     Edge 20, Type (0, 0), BuildingBlock: KIFKEQ_clean_linker_1, # of connection points: 2
#     Edge 21, Type (0, 0), BuildingBlock: KIFKEQ_clean_linker_1, # of connection points: 2
#     Edge 22, Type (0, 0), BuildingBlock: KIFKEQ_clean_linker_1, # of connection points: 2
#     Edge 23, Type (0, 0), BuildingBlock: KIFKEQ_clean_linker_1, # of connection points: 2
#     Edge 24, Type (0, 0), BuildingBlock: KIFKEQ_clean_linker_1, # of connection points: 2
#     Edge 25, Type (0, 0), BuildingBlock: KIFKEQ_clean_linker_1, # of connection points: 2
#     Edge 26, Type (0, 0), BuildingBlock: KIFKEQ_clean_linker_1, # of connection points: 2
#     Edge 27, Type (0, 0), BuildingBlock: KIFKEQ_clean_linker_1, # of connection points: 2
#     Edge 28, Type (0, 0), BuildingBlock: KIFKEQ_clean_linker_1, # of connection points: 2
#     Edge 29, Type (0, 0), BuildingBlock: KIFKEQ_clean_linker_1, # of connection points: 2
#     Edge 30, Type (0, 0), BuildingBlock: KIFKEQ_clean_linker_1, # of connection points: 2
#     Edge 31, Type (0, 0), BuildingBlock: KIFKEQ_clean_linker_1, # of connection points: 2
#     Edge 32, Type (0, 0), BuildingBlock: KIFKEQ_clean_linker_1, # of connection points: 2
#     Edge 33, Type (0, 0), BuildingBlock: KIFKEQ_clean_linker_1, # of connection points: 2
#     Edge 34, Type (0, 0), BuildingBlock: KIFKEQ_clean_linker_1, # of connection points: 2
#     Edge 35, Type (0, 0), BuildingBlock: KIFKEQ_clean_linker_1, # of connection points: 2
#     Edge 36, Type (0, 0), BuildingBlock: KIFKEQ_clean_linker_1, # of connection points: 2
#     Edge 37, Type (0, 0), BuildingBlock: KIFKEQ_clean_linker_1, # of connection points: 2
#     Edge 38, Type (0, 0), BuildingBlock: KIFKEQ_clean_linker_1, # of connection points: 2
#     Edge 39, Type (0, 0), BuildingBlock: KIFKEQ_clean_linker_1, # of connection points: 2
#     Edge 40, Type (0, 0), BuildingBlock: KIFKEQ_clean_linker_1, # of connection points: 2
#     Edge 41, Type (0, 0), BuildingBlock: KIFKEQ_clean_linker_1, # of connection points: 2
#     Edge 42, Type (0, 0), BuildingBlock: KIFKEQ_clean_linker_1, # of connection points: 2
#     Edge 43, Type (0, 0), BuildingBlock: KIFKEQ_clean_linker_1, # of connection points: 2
#     Edge 44, Type (0, 0), BuildingBlock: KIFKEQ_clean_linker_1, # of connection points: 2
#     Edge 45, Type (0, 0), BuildingBlock: KIFKEQ_clean_linker_1, # of connection points: 2
#     Edge 46, Type (0, 0), BuildingBlock: KIFKEQ_clean_linker_1, # of connection points: 2
#     Edge 47, Type (0, 0), BuildingBlock: KIFKEQ_clean_linker_1, # of connection points: 2
#     Edge 48, Type (0, 0), BuildingBlock: KIFKEQ_clean_linker_1, # of connection points: 2
#     Edge 49, Type (0, 0), BuildingBlock: KIFKEQ_clean_linker_1, # of connection points: 2
#     Edge 50, Type (0, 0), BuildingBlock: KIFKEQ_clean_linker_1, # of connection points: 2
#     Edge 51, Type (0, 0), BuildingBlock: KIFKEQ_clean_linker_1, # of connection points: 2
#     Edge 52, Type (0, 0), BuildingBlock: KIFKEQ_clean_linker_1, # of connection points: 2
#     Edge 53, Type (0, 0), BuildingBlock: KIFKEQ_clean_linker_1, # of connection points: 2
#     Edge 54, Type (0, 0), BuildingBlock: KIFKEQ_clean_linker_1, # of connection points: 2
#     Edge 55, Type (0, 0), BuildingBlock: KIFKEQ_clean_linker_1, # of connection points: 2
#     Edge 56, Type (0, 0), BuildingBlock: KIFKEQ_clean_linker_1, # of connection points: 2
#     Edge 57, Type (0, 0), BuildingBlock: KIFKEQ_clean_linker_1, # of connection points: 2
#     Edge 58, Type (0, 0), BuildingBlock: KIFKEQ_clean_linker_1, # of connection points: 2
#     Edge 59, Type (0, 0), BuildingBlock: KIFKEQ_clean_linker_1, # of connection points: 2
#     Edge 60, Type (0, 0), BuildingBlock: KIFKEQ_clean_linker_1, # of connection points: 2
#     Edge 61, Type (0, 0), BuildingBlock: KIFKEQ_clean_linker_1, # of connection points: 2
#     Edge 62, Type (0, 0), BuildingBlock: KIFKEQ_clean_linker_1, # of connection points: 2
#     Edge 63, Type (0, 0), BuildingBlock: KIFKEQ_clean_linker_1, # of connection points: 2
# Relax obj value: 0.453
# Max RMSD: 0.278
# Mean RMSD: 0.275
data_MOF--net-whk--node1-KUMBOL_clean_sbu_1--edge1-KIFKEQ_clean_linker_1
_symmetry_space_group_name_H-M    P1
_symmetry_Int_Tables_number       1
_symmetry_cell_setting            triclinic
loop_
_symmetry_equiv_pos_as_xyz
'x, y, z'
_cell_length_a     45.916193
_cell_length_b     45.802121
_cell_length_c     41.034076
_cell_angle_alpha  90.001722
_cell_angle_beta   90.019485
_cell_angle_gamma 90.047051
loop_
_atom_site_label
_atom_site_type_symbol
_atom_site_fract_x
_atom_site_fract_y
_atom_site_fract_z
_atom_type_partial_charge
C0 C 0.56186 0.30187 0.33748 0.0
C1 C 0.5574 0.34726 0.36786 0.0
C2 C 0.56849 0.31865 0.36498 0.0
C3 C 0.53998 0.35886 0.34289 0.0
C4 C 0.54432 0.31354 0.31245 0.0
C5 C 0.53357 0.34212 0.31524 0.0
N6 N 0.57143 0.27372 0.33592 0.0
C7 C 0.56565 0.25671 0.30937 0.0
C8 C 0.53765 0.29594 0.28555 0.0
C9 C 0.54843 0.26747 0.28398 0.0
Gd10 Gd 0.55771 0.20121 0.42944 0.0
Gd11 Gd 0.60331 0.25997 0.37762 0.0
N12 N 0.58526 0.30685 0.38909 0.0
C13 C 0.56407 0.36343 0.39583 0.0
C14 C 0.59301 0.32314 0.41559 0.0
C15 C 0.58211 0.35138 0.41967 0.0
H16 H 0.6086 0.31507 0.43292 0.0
H17 H 0.58812 0.36406 0.44089 0.0
H18 H 0.5846 0.13537 0.41179 0.0
H19 H 0.57427 0.23486 0.30766 0.0
H20 H 0.60283 0.09173 0.4408 0.0
H21 H 0.55579 0.38539 0.39901 0.0
H22 H 0.53125 0.38076 0.34479 0.0
H23 H 0.51872 0.23879 0.48413 0.0
H24 H 0.52422 0.30413 0.26585 0.0
H25 H 0.5436 0.25384 0.26311 0.0
H26 H 0.58504 0.11304 0.55375 0.0
H27 H 0.51997 0.35138 0.2963 0.0
H28 H 0.53121 0.20012 0.57808 0.0
H29 H 0.50988 0.23885 0.54346 0.0
N30 N 0.54594 0.20122 0.48531 0.0
C31 C 0.55675 0.17919 0.50369 0.0
C32 C 0.52845 0.22197 0.49902 0.0
C33 C 0.53541 0.20017 0.5521 0.0
C34 C 0.5233 0.22203 0.53263 0.0
C35 C 0.55194 0.17804 0.5376 0.0
H36 H 0.55973 0.15325 0.58178 0.0
N37 N 0.57357 0.15813 0.45523 0.0
C38 C 0.57093 0.15674 0.48806 0.0
C39 C 0.59297 0.10888 0.48844 0.0
C40 C 0.58077 0.13223 0.50568 0.0
C41 C 0.58377 0.13469 0.43809 0.0
C42 C 0.59408 0.10995 0.45443 0.0
O43 O 0.55363 0.25444 0.37743 0.0
O44 O 0.54059 0.24738 0.42934 0.0
O45 O 0.52311 0.19782 0.39296 0.0
O46 O 0.52048 0.17238 0.43726 0.0
O47 O 0.61289 0.26178 0.43106 0.0
O48 O 0.57199 0.24326 0.45762 0.0
O49 O 0.60553 0.18956 0.42643 0.0
O50 O 0.63227 0.23088 0.41139 0.0
O51 O 0.63655 0.25766 0.33969 0.0
O52 O 0.63024 0.29735 0.36707 0.0
O53 O 0.57848 0.18364 0.38126 0.0
O54 O 0.6062 0.21747 0.35191 0.0
C55 C 0.53773 0.26236 0.40258 0.0
C56 C 0.59602 0.25967 0.45684 0.0
C57 C 0.47531 0.18224 0.4106 0.0
C58 C 0.42565 0.16064 0.40965 0.0
C59 C 0.43265 0.21352 0.40965 0.0
C60 C 0.46285 0.21016 0.41035 0.0
C61 C 0.4143 0.18916 0.4091 0.0
C62 C 0.45651 0.15735 0.41074 0.0
C63 C 0.50773 0.17903 0.40991 0.0
C64 C 0.57734 0.13152 0.5397 0.0
C65 C 0.56294 0.15441 0.55565 0.0
H66 H 0.60085 0.08966 0.50105 0.0
C67 C 0.63016 0.20438 0.425 0.0
C68 C 0.59529 0.19134 0.35609 0.0
C69 C 0.67707 0.28857 0.34796 0.0
C70 C 0.72036 0.2945 0.38158 0.0
C71 C 0.72315 0.30033 0.32259 0.0
C72 C 0.69345 0.29443 0.31997 0.0
C73 C 0.73659 0.30031 0.35311 0.0
C74 C 0.69047 0.28871 0.37868 0.0
C75 C 0.64568 0.28413 0.34515 0.0
H76 H 0.42336 0.23523 0.40938 0.0
H77 H 0.47651 0.22947 0.41051 0.0
H78 H 0.39098 0.19269 0.4086 0.0
H79 H 0.46584 0.13564 0.41093 0.0
H80 H 0.73584 0.30471 0.30091 0.0
H81 H 0.68323 0.29465 0.29616 0.0
H82 H 0.75987 0.30399 0.35419 0.0
H83 H 0.67748 0.28451 0.40024 0.0
C84 C 0.24683 0.5737 0.34023 0.0
C85 C 0.20259 0.5657 0.37167 0.0
C86 C 0.23094 0.57741 0.36903 0.0
C87 C 0.19035 0.55063 0.3452 0.0
C88 C 0.23461 0.55827 0.31381 0.0
C89 C 0.20628 0.54692 0.3164 0.0
N90 N 0.27461 0.58418 0.33854 0.0
C91 C 0.29074 0.58121 0.31082 0.0
C92 C 0.25135 0.55442 0.28562 0.0
C93 C 0.27948 0.56597 0.28411 0.0
Gd94 Gd 0.35128 0.56504 0.42697 0.0
Gd95 Gd 0.28877 0.6129 0.38279 0.0
N96 N 0.24331 0.592 0.39453 0.0
C97 C 0.18735 0.56941 0.40091 0.0
C98 C 0.22796 0.59682 0.4225 0.0
C99 C 0.20004 0.58515 0.42635 0.0
H100 H 0.23647 0.61085 0.4412 0.0
H101 H 0.18807 0.58888 0.44869 0.0
H102 H 0.41467 0.59511 0.40455 0.0
H103 H 0.31219 0.59067 0.30914 0.0
H104 H 0.45869 0.61582 0.43067 0.0
H105 H 0.16562 0.56057 0.40392 0.0
H106 H 0.1686 0.54155 0.34685 0.0
H107 H 0.31914 0.52376 0.48362 0.0
H108 H 0.24272 0.54264 0.26484 0.0
H109 H 0.29241 0.56338 0.26225 0.0
H110 H 0.44433 0.5973 0.54483 0.0
H111 H 0.19657 0.53498 0.29635 0.0
H112 H 0.36214 0.53839 0.57488 0.0
H113 H 0.32295 0.51473 0.5429 0.0
N114 N 0.35497 0.55317 0.48252 0.0
C115 C 0.37734 0.56525 0.49931 0.0
C116 C 0.33614 0.53437 0.49748 0.0
C117 C 0.3604 0.54261 0.54897 0.0
C118 C 0.33828 0.52917 0.53099 0.0
C119 C 0.38064 0.56048 0.53304 0.0
H120 H 0.40728 0.56972 0.57546 0.0
N121 N 0.39485 0.58325 0.44945 0.0
C122 C 0.3981 0.58069 0.48216 0.0
C123 C 0.44457 0.60532 0.47937 0.0
C124 C 0.4229 0.59189 0.49812 0.0
C125 C 0.41683 0.59444 0.43077 0.0
C126 C 0.44172 0.60618 0.44548 0.0
O127 O 0.29599 0.56357 0.37801 0.0
O128 O 0.30571 0.54682 0.42813 0.0
O129 O 0.35448 0.52962 0.39126 0.0
O130 O 0.38178 0.52902 0.43397 0.0
O131 O 0.28922 0.61869 0.43694 0.0
O132 O 0.31063 0.57676 0.45866 0.0
O133 O 0.36154 0.61346 0.42558 0.0
O134 O 0.31897 0.64022 0.41626 0.0
O135 O 0.25012 0.63926 0.37838 0.0
O136 O 0.28714 0.64904 0.34802 0.0
O137 O 0.36412 0.58489 0.37647 0.0
O138 O 0.33074 0.61921 0.35668 0.0
C139 C 0.28968 0.54557 0.40199 0.0
C140 C 0.29401 0.60056 0.46115 0.0
C141 C 0.37102 0.48268 0.41052 0.0
C142 C 0.39124 0.43228 0.40844 0.0
C143 C 0.33985 0.44088 0.4208 0.0
C144 C 0.34365 0.47098 0.41806 0.0
C145 C 0.36319 0.42182 0.41602 0.0
C146 C 0.39505 0.46317 0.40608 0.0
C147 C 0.37429 0.51512 0.40762 0.0
C148 C 0.42561 0.58856 0.53203 0.0
C149 C 0.40451 0.57286 0.54947 0.0
H150 H 0.46392 0.61429 0.4907 0.0
C151 C 0.34624 0.63778 0.42719 0.0
C152 C 0.35588 0.6056 0.35544 0.0
C153 C 0.25552 0.68768 0.36287 0.0
C154 C 0.2542 0.7292 0.40019 0.0
C155 C 0.2383 0.73448 0.34368 0.0
C156 C 0.24467 0.70522 0.33777 0.0
C157 C 0.24325 0.74651 0.37445 0.0
C158 C 0.25956 0.69943 0.39411 0.0
C159 C 0.26095 0.65671 0.35674 0.0
H160 H 0.31856 0.4322 0.42672 0.0
H161 H 0.32511 0.4852 0.4219 0.0
H162 H 0.35925 0.39862 0.41871 0.0
H163 H 0.41634 0.47195 0.40031 0.0
H164 H 0.23009 0.74807 0.32415 0.0
H165 H 0.24099 0.69623 0.31368 0.0
H166 H 0.23961 0.76969 0.37739 0.0
H167 H 0.26721 0.68525 0.41341 0.0
C168 C 0.98135 0.39575 0.49692 0.0
C169 C 0.99593 0.37108 0.54635 0.0
C170 C 0.99285 0.37165 0.51218 0.0
C171 C 0.98543 0.39459 0.56496 0.0
C172 C 0.97246 0.42024 0.51516 0.0
C173 C 0.9737 0.41918 0.54936 0.0
N174 N 0.98117 0.39612 0.46397 0.0
C175 C 0.97455 0.42114 0.44747 0.0
C176 C 0.96377 0.4454 0.4984 0.0
C177 C 0.96534 0.44602 0.46438 0.0
Gd178 Gd 0.94127 0.29664 0.3878 0.0
Gd179 Gd 0.99381 0.35271 0.43683 0.0
N180 N 1.00339 0.34987 0.49326 0.0
C181 C 1.01056 0.34751 0.56057 0.0
C182 C 1.01955 0.32794 0.50678 0.0
C183 C 0.02288 0.3261 0.54062 0.0
H184 H 0.02937 0.31147 0.49146 0.0
H185 H 0.03504 0.30825 0.55127 0.0
H186 H 0.87185 0.30095 0.41466 0.0
H187 H 0.97545 0.42154 0.42116 0.0
H188 H 0.82429 0.31825 0.39441 0.0
H189 H 1.0134 0.3462 0.58675 0.0
H190 H 0.98724 0.39443 0.59128 0.0
H191 H 0.97988 0.27985 0.32184 0.0
H192 H 0.95676 0.4647 0.51147 0.0
H193 H 0.95936 0.46557 0.45119 0.0
H194 H 0.8414 0.33927 0.28139 0.0
H195 H 0.96662 0.43761 0.56388 0.0
H196 H 0.93352 0.30949 0.23738 0.0
H197 H 0.97712 0.28656 0.26203 0.0
N198 N 0.93861 0.29922 0.33067 0.0
C199 C 0.91402 0.31038 0.3175 0.0
C200 C 0.96076 0.28974 0.31118 0.0
C201 C 0.93464 0.30651 0.26354 0.0
C202 C 0.95925 0.29352 0.27736 0.0
C203 C 0.91139 0.3147 0.28361 0.0
H204 H 0.88311 0.33023 0.245 0.0
N205 N 0.89383 0.30871 0.36983 0.0
C206 C 0.89081 0.31552 0.33787 0.0
C207 C 0.84 0.32692 0.34599 0.0
C208 C 0.86397 0.32512 0.32506 0.0
C209 C 0.86996 0.30824 0.38973 0.0
C210 C 0.8429 0.31788 0.37833 0.0
O211 O 0.98043 0.3091 0.46161 0.0
O212 O 0.93436 0.30067 0.44194 0.0
O213 O 0.92107 0.25534 0.37457 0.0
O214 O 0.95787 0.25577 0.40709 0.0
O215 O 1.009 0.30558 0.43136 0.0
O216 O 0.99047 0.29385 0.38146 0.0
O217 O 0.97076 0.32885 0.36258 0.0
O218 O 0.96787 0.36978 0.39272 0.0
O219 O 0.02629 0.35735 0.39819 0.0
O220 O 0.03473 0.37573 0.44554 0.0
O221 O 0.91732 0.32936 0.42169 0.0
O222 O 0.94691 0.36928 0.43418 0.0
C223 C 0.95453 0.29648 0.46402 0.0
C224 C 1.00908 0.28886 0.40523 0.0
C225 C 0.92163 0.22178 0.41807 0.0
C226 C 0.88209 0.21616 0.45704 0.0
C227 C 0.91693 0.17697 0.4491 0.0
C228 C 0.93174 0.19381 0.42592 0.0
C229 C 0.8919 0.18786 0.4643 0.0
C230 C 0.89728 0.23298 0.43416 0.0
C231 C 0.93715 0.24018 0.39455 0.0
C232 C 0.86169 0.3314 0.29163 0.0
C233 C 0.8854 0.32619 0.2709 0.0
H234 H 0.81896 0.33415 0.33717 0.0
C235 C 0.96497 0.35672 0.36433 0.0
C236 C 0.9212 0.35625 0.43338 0.0
C237 C 0.05568 0.40068 0.40056 0.0
C238 C 0.09585 0.43563 0.38928 0.0
C239 C 0.04661 0.44447 0.36885 0.0
C240 C 0.0367 0.41859 0.38282 0.0
C241 C 0.07567 0.45292 0.37203 0.0
C242 C 0.0854 0.40941 0.40402 0.0
C243 C 0.044 0.37338 0.4157 0.0
H244 H 0.92479 0.15539 0.45509 0.0
H245 H 0.95102 0.18508 0.41425 0.0
H246 H 0.8803 0.17431 0.48161 0.0
H247 H 0.88964 0.25464 0.42807 0.0
H248 H 0.0316 0.45816 0.35544 0.0
H249 H 1.01403 0.4126 0.37982 0.0
H250 H 0.08227 0.47341 0.36113 0.0
H251 H 0.10028 0.3957 0.41762 0.0
C252 C 0.28462 0.99512 0.34029 0.0
C253 C 0.33675 0.99415 0.35222 0.0
C254 C 0.30848 0.98261 0.35636 0.0
C255 C 0.34112 1.0178 0.33109 0.0
C256 C 0.28912 1.01984 0.32024 0.0
C257 C 0.31741 0.0306 0.31521 0.0
N258 N 0.25707 0.98484 0.34634 0.0
C259 C 0.23353 0.99997 0.33479 0.0
C260 C 0.26497 0.03391 0.30681 0.0
C261 C 0.23711 1.02424 0.31459 0.0
Gd262 Gd 0.1962 0.98498 0.42231 0.0
Gd263 Gd 0.25665 0.94177 0.37896 0.0
N264 N 0.30376 0.96056 0.37792 0.0
C265 C 0.35973 0.98222 0.37032 0.0
C266 C 0.32582 0.94945 0.39643 0.0
C267 C 0.35419 0.95996 0.39273 0.0
H268 H 0.32131 0.93254 0.41409 0.0
H269 H 0.37171 0.95098 0.40725 0.0
H270 H 0.12897 0.95756 0.41842 0.0
H271 H 0.21178 0.9945 0.34159 0.0
H272 H 0.09061 0.94062 0.45646 0.0
H273 H 0.3817 0.99055 0.36777 0.0
H274 H 0.36268 0.02689 0.32757 0.0
H275 H 0.24175 0.02747 0.46699 0.0
H276 H 0.26756 0.05298 0.29143 0.0
H277 H 0.21825 0.0358 0.30543 0.0
H278 H 0.1278 0.96556 0.56228 0.0
H279 H 0.3211 0.04942 0.29974 0.0
H280 H 0.21623 1.02107 0.56687 0.0
H281 H 0.24955 0.0402 0.52459 0.0
N282 N 0.20493 1.00047 0.47634 0.0
C283 C 0.18544 0.99114 0.49901 0.0
C284 C 0.22706 1.01892 0.48505 0.0
C285 C 0.21273 1.01532 0.54156 0.0
C286 C 0.23156 0.02619 0.51776 0.0
C287 C 0.18902 0.99798 0.53229 0.0
H288 H 0.17099 0.99279 0.58077 0.0
N289 N 0.15738 0.97148 0.4562 0.0
C290 C 0.16106 0.97593 0.48862 0.0
C291 C 0.11435 0.95358 0.49942 0.0
C292 C 0.13967 0.967 0.51118 0.0
C293 C 0.13209 0.9599 0.44442 0.0
C294 C 0.11037 0.95039 0.46585 0.0
O295 O 0.27367 0.97622 0.41379 0.0
O296 O 0.23768 1.00964 0.40714 0.0
O297 O 0.19061 1.02259 0.39008 0.0
O298 O 0.16069 1.01616 0.42957 0.0
O299 O 0.2607 0.93174 0.43224 0.0
O300 O 0.23008 0.96476 0.45882 0.0
O301 O 0.18246 0.9379 0.41531 0.0
O302 O 0.22522 0.91206 0.40779 0.0
O303 O 0.26645 0.89566 0.37439 0.0
O304 O 0.28562 0.92514 0.3407 0.0
O305 O 0.17842 0.95961 0.37652 0.0
O306 O 0.21749 0.94157 0.34642 0.0
C307 C 0.26502 1.00344 0.41414 0.0
C308 C 0.25001 0.94347 0.45896 0.0
C309 C 0.17042 0.06536 0.41479 0.0
C310 C 0.15026 0.11575 0.41691 0.0
C311 C 0.19782 0.10433 0.44059 0.0
C312 C 0.19542 0.07536 0.43085 0.0
C313 C 0.17558 0.12416 0.43402 0.0
C314 C 0.14762 0.08571 0.40779 0.0
C315 C 0.16867 0.03362 0.40624 0.0
C316 C 0.14384 0.97251 0.54453 0.0
C317 C 0.16844 0.98801 0.55506 0.0
H318 H 0.09744 0.94633 0.51596 0.0
C319 C 0.19769 0.9136 0.4174 0.0
C320 C 0.18944 0.9463 0.35013 0.0
C321 C 0.31629 0.88893 0.36311 0.0
C322 C 0.34731 0.86873 0.40598 0.0
C323 C 0.36902 0.88969 0.35739 0.0
C324 C 0.34129 0.89616 0.34507 0.0
C325 C 0.3721 0.87602 0.38773 0.0
C326 C 0.31967 0.87471 0.39313 0.0
C327 C 0.28705 0.89937 0.35332 0.0
H328 H 0.21713 0.11152 0.45345 0.0
H329 H 0.21318 0.06062 0.43604 0.0
H330 H 0.17831 0.1463 0.44273 0.0
H331 H 0.12834 0.07831 0.39502 0.0
H332 H 0.38819 0.89542 0.34343 0.0
H333 H 0.33941 0.90749 0.322 0.0
H334 H 0.39365 0.87072 0.39668 0.0
H335 H 0.30055 0.86816 0.4068 0.0
C336 C 0.06781 0.89537 0.02256 0.0
C337 C 0.05557 0.87136 0.97194 0.0
C338 C 0.05726 0.87139 1.00624 0.0
C339 C 0.06643 0.89538 0.95439 0.0
C340 C 0.07705 0.92032 1.00533 0.0
C341 C 0.07717 0.91986 0.97109 0.0
N342 N 0.06677 0.8951 0.05548 0.0
C343 C 0.07239 0.91988 0.07287 0.0
C344 C 0.08471 0.94529 0.02308 0.0
C345 C 0.08183 0.94523 0.057 0.0
Gd346 Gd 0.10332 0.79486 0.13291 0.0
Gd347 Gd 0.05399 0.85098 0.081 0.0
N348 N 0.04639 0.84909 0.02415 0.0
C349 C 0.04197 0.84775 0.95651 0.0
C350 C 0.03136 0.82698 0.00937 0.0
C351 C 0.02938 0.8257 0.97536 0.0
H352 H 1.02142 0.80995 0.02381 0.0
H353 H 1.01807 0.80776 0.96374 0.0
H354 H 0.17477 0.80181 0.11415 0.0
H355 H 0.07044 0.91975 0.09912 0.0
H356 H 0.21953 0.8204 0.14046 0.0
H357 H 0.0402 0.84685 0.9302 0.0
H358 H 0.06568 0.89565 0.928 0.0
H359 H 0.05912 0.77444 0.19294 0.0
H360 H 0.09192 0.96495 0.0108 0.0
H361 H 0.08699 0.96463 0.07092 0.0
H362 H 0.19273 0.83243 0.25257 0.0
H363 H 0.08455 0.93866 0.95734 0.0
H364 H 0.09803 0.79819 0.2841 0.0
H365 H 0.05678 0.77712 0.25308 0.0
N366 N 0.10098 0.79404 0.1901 0.0
C367 C 0.12426 0.80436 0.20671 0.0
C368 C 0.07724 0.78352 0.20631 0.0
C369 C 0.09916 0.79694 0.25776 0.0
C370 C 0.07586 0.78501 0.24034 0.0
C371 C 0.12396 0.80646 0.24099 0.0
H372 H 0.14856 0.8198 0.28359 0.0
N373 N 0.1488 0.80649 0.15675 0.0
C374 C 0.14894 0.81124 0.18936 0.0
C375 C 0.19969 0.82489 0.18755 0.0
C376 C 0.17427 0.82073 0.20569 0.0
C377 C 0.17423 0.80795 0.13954 0.0
C378 C 0.19978 0.81799 0.15443 0.0
O379 O 0.07017 0.80856 0.05568 0.0
O380 O 0.11463 0.79952 0.07958 0.0
O381 O 0.123 0.75328 0.14582 0.0
O382 O 0.0877 0.75452 0.11122 0.0
O383 O 0.0392 0.80357 0.08357 0.0
O384 O 0.05378 0.79278 0.13503 0.0
O385 O 0.07422 0.82778 0.15754 0.0
O386 O 0.07817 0.86809 0.12636 0.0
O387 O 1.02012 0.85357 0.11828 0.0
O388 O 1.0133 0.87423 0.07173 0.0
O389 O 0.12958 0.82832 0.10224 0.0
O390 O 0.10052 0.8677 0.08635 0.0
C391 C 0.09657 0.79679 0.05495 0.0
C392 C 0.03712 0.7871 0.10972 0.0
C393 C 0.12479 0.72133 0.1009 0.0
C394 C 0.16606 0.71774 0.06375 0.0
C395 C 0.13154 0.67765 0.06845 0.0
C396 C 0.11545 0.6935 0.09136 0.0
C397 C 0.15695 0.6895 0.05501 0.0
C398 C 0.1497 0.73342 0.08671 0.0
C399 C 0.10798 0.7387 0.12428 0.0
C400 C 0.17364 0.82472 0.23965 0.0
C401 C 0.14852 0.81747 0.25731 0.0
H402 H 0.21959 0.83234 0.19907 0.0
C403 C 0.08022 0.85562 0.1552 0.0
C404 C 0.1262 0.85501 0.08979 0.0
C405 C 0.99121 0.89719 0.11746 0.0
C406 C 0.95119 0.93202 0.12933 0.0
C407 C 0.99912 0.93799 0.15424 0.0
C408 C 1.00943 0.91325 0.13824 0.0
C409 C 0.97042 0.94721 0.14999 0.0
C410 C 0.96196 0.90693 0.11264 0.0
C411 C 1.00312 0.87057 0.10105 0.0
H412 H 0.12447 0.65602 0.0613 0.0
H413 H 0.09585 0.68407 0.10164 0.0
H414 H 0.16948 0.6766 0.03793 0.0
H415 H 0.1568 0.75484 0.09454 0.0
H416 H 1.0135 0.95013 0.17019 0.0
H417 H 0.03178 0.90659 0.14221 0.0
H418 H 0.96327 0.9666 0.16281 0.0
H419 H 0.94762 0.8948 0.09662 0.0
C420 C 0.64906 0.06866 0.02974 0.0
C421 C 0.67234 0.05271 0.97997 0.0
C422 C 0.67283 0.05698 0.01398 0.0
C423 C 0.6479 0.06173 0.96196 0.0
C424 C 0.62391 0.07652 0.01212 0.0
C425 C 0.6237 0.07362 0.97803 0.0
N426 N 0.65 0.07081 0.06263 0.0
C427 C 0.62584 0.07891 0.07979 0.0
C428 C 0.59952 0.08631 0.02942 0.0
C429 C 0.60038 0.08714 0.06346 0.0
Gd430 Gd 0.74864 0.11173 0.13887 0.0
Gd431 Gd 0.69414 0.0588 0.08836 0.0
N432 N 0.69571 0.04805 0.03229 0.0
C433 C 0.69603 0.03871 0.96529 0.0
C434 C 0.71813 0.03295 0.01839 0.0
C435 C 0.71886 0.02844 0.98467 0.0
H436 H 0.73567 1.02462 0.03328 0.0
H437 H 0.73694 1.01693 0.97368 0.0
H438 H 0.74386 0.18273 0.1177 0.0
H439 H 0.62643 0.07968 0.10609 0.0
H440 H 0.73245 0.22992 0.14364 0.0
H441 H 0.69654 0.03501 0.93921 0.0
H442 H 0.6472 0.0589 0.93576 0.0
H443 H 0.7678 0.06803 0.20065 0.0
H444 H 0.57976 0.09259 0.01682 0.0
H445 H 0.58147 0.09413 0.07711 0.0
H446 H 0.71811 0.20629 0.25626 0.0
H447 H 0.6047 0.07981 0.96399 0.0
H448 H 0.74616 0.11033 0.29038 0.0
H449 H 0.76542 0.06746 0.26068 0.0
N450 N 0.74943 0.11046 0.19622 0.0
C451 C 0.74026 0.13466 0.21213 0.0
C452 C 0.75937 0.08685 0.21326 0.0
C453 C 0.74713 0.11066 0.264 0.0
C454 C 0.75808 0.08646 0.24733 0.0
C455 C 0.73857 0.13539 0.24645 0.0
H456 H 0.72748 0.16191 0.28841 0.0
N457 N 0.73894 0.1582 0.16137 0.0
C458 C 0.73476 0.1594 0.19407 0.0
C459 C 0.72603 0.21132 0.19115 0.0
C460 C 0.7277 0.18585 0.20981 0.0
C461 C 0.73929 0.18333 0.14347 0.0
C462 C 0.73258 0.21015 0.15798 0.0
O463 O 0.73755 0.07282 0.06467 0.0
O464 O 0.7438 0.1192 0.08462 0.0
O465 O 0.78988 0.13204 0.15176 0.0
O466 O 0.78915 0.09744 0.11636 0.0
O467 O 0.74144 0.04419 0.09336 0.0
O468 O 0.75147 0.06227 0.14372 0.0
O469 O 0.71651 0.08204 0.16381 0.0
O470 O 0.67626 0.08428 0.13249 0.0
O471 O 0.68777 0.02721 0.12775 0.0
O472 O 0.6739 1.01654 0.07896 0.0
O473 O 0.71254 0.13742 0.11115 0.0
O474 O 0.67977 0.10628 0.08412 0.0
C475 C 0.74848 0.09945 0.06204 0.0
C476 C 0.7579 0.04444 0.11963 0.0
C477 C 0.82024 0.13672 0.10614 0.0
C478 C 0.81858 0.17778 0.0682 0.0
C479 C 0.86396 0.15171 0.0776 0.0
C480 C 0.84993 0.13301 0.09963 0.0
C481 C 0.84848 0.17417 0.06211 0.0
C482 C 0.80484 0.15864 0.09001 0.0
C483 C 0.80452 0.11813 0.12945 0.0
C484 C 0.72401 0.18629 0.2438 0.0
C485 C 0.7294 0.16105 0.26211 0.0
H486 H 0.72089 0.23213 0.2023 0.0
C487 C 0.68863 0.0874 0.16125 0.0
C488 C 0.68882 0.13266 0.09286 0.0
C489 C 0.64606 0.9957 0.12175 0.0
C490 C 0.61031 0.95522 0.1261 0.0
C491 C 0.59954 1.00328 0.14867 0.0
C492 C 0.62649 1.01388 0.13837 0.0
C493 C 0.59146 0.97442 0.14247 0.0
C494 C 0.63796 0.96604 0.11588 0.0
C495 C 0.67402 1.0083 0.10931 0.0
H496 H 0.88696 0.14895 0.07269 0.0
H497 H 0.86218 0.11592 0.11164 0.0
H498 H 0.85982 0.18862 0.04551 0.0
H499 H 0.78208 0.16129 0.09553 0.0
H500 H 0.58466 1.01763 0.16138 0.0
H501 H 0.63196 0.03648 0.14319 0.0
H502 H 0.57029 0.96696 0.15069 0.0
H503 H 0.6527 0.95176 0.10283 0.0
C504 C 0.46142 0.81903 0.14197 0.0
C505 C 0.43406 0.84709 0.10257 0.0
C506 C 0.44051 0.82025 0.11786 0.0
C507 C 0.45072 0.87196 0.11003 0.0
C508 C 0.4763 0.84452 0.15177 0.0
C509 C 0.47183 0.87068 0.13466 0.0
N510 N 0.46491 0.79357 0.15824 0.0
C511 C 0.48041 0.79269 0.18665 0.0
C512 C 0.49386 0.84332 0.17964 0.0
C513 C 0.49529 0.81748 0.19766 0.0
Gd514 Gd 0.48762 0.69593 0.08314 0.0
Gd515 Gd 0.44026 0.75237 0.13821 0.0
N516 N 0.4244 0.79594 0.11197 0.0
C517 C 0.41001 0.84857 0.08173 0.0
C518 C 0.39956 0.798 0.09354 0.0
C519 C 0.39232 0.82407 0.07778 0.0
H520 H 0.38598 0.77909 0.08947 0.0
H521 H 0.3732 0.82516 0.06239 0.0
H522 H 0.46091 0.62931 0.09621 0.0
H523 H 0.48172 0.77254 0.20034 0.0
H524 H 0.44259 0.58732 0.06412 0.0
H525 H 0.40423 0.8688 0.06969 0.0
H526 H 0.44644 0.89261 0.09808 0.0
H527 H 0.5275 0.73613 0.03172 0.0
H528 H 0.50553 0.86246 0.18807 0.0
H529 H 0.50813 0.81652 0.21975 0.0
H530 H 0.46025 0.6152 0.95287 0.0
H531 H 0.48353 0.89035 0.14133 0.0
H532 H 0.51506 0.70305 0.93505 0.0
H533 H 0.5367 0.73949 0.9725 0.0
N534 N 0.49993 0.69898 0.0276 0.0
C535 C 0.4889 0.67817 1.00763 0.0
C536 C 0.51772 0.7203 0.01554 0.0
C537 C 0.51073 0.70166 0.96096 0.0
C538 C 0.52304 0.72222 0.98203 0.0
C539 C 0.49386 0.67892 0.97375 0.0
H540 H 0.48598 0.65678 0.92786 0.0
N541 N 0.47186 0.65442 0.05442 0.0
C542 C 0.47441 0.65499 0.02157 0.0
C543 C 0.4523 0.60725 0.01778 0.0
C544 C 0.46449 0.63158 1.00223 0.0
C545 C 0.46169 0.63005 0.06989 0.0
C546 C 0.45132 0.6063 0.05181 0.0
O547 O 0.49008 0.75111 0.1395 0.0
O548 O 0.50446 0.74248 0.08751 0.0
O549 O 0.52068 0.69027 0.12096 0.0
O550 O 0.52495 0.66725 0.07531 0.0
O551 O 0.43131 0.75056 0.08404 0.0
O552 O 0.47475 0.73974 0.05866 0.0
O553 O 0.4393 0.68448 0.08329 0.0
O554 O 0.41083 0.72047 0.10878 0.0
O555 O 0.41815 0.7741 0.17802 0.0
O556 O 0.41117 0.72835 0.17045 0.0
O557 O 0.46299 0.67873 0.12817 0.0
O558 O 0.47052 0.71866 0.15861 0.0
C559 C 0.50637 0.75809 0.11426 0.0
C560 C 0.44955 0.7539 0.05975 0.0
C561 C 0.56904 0.67621 0.10442 0.0
C562 C 0.61915 0.6556 0.1042 0.0
C563 C 0.61094 0.70823 0.10894 0.0
C564 C 0.58089 0.7043 0.10713 0.0
C565 C 0.62978 0.68434 0.10771 0.0
C566 C 0.58832 0.65177 0.10293 0.0
C567 C 0.5367 0.67245 0.10359 0.0
C568 C 0.46801 0.63281 0.96824 0.0
C569 C 0.48266 0.65647 0.954 0.0
H570 H 0.44439 0.5888 1.00382 0.0
C571 C 0.41377 0.69586 0.09144 0.0
C572 C 0.46279 0.69123 0.15706 0.0
C573 C 0.37189 0.75664 0.188 0.0
C574 C 0.32756 0.76964 0.15891 0.0
C575 C 0.32716 0.76344 0.21801 0.0
C576 C 0.35688 0.7569 0.21762 0.0
C577 C 0.3125 0.76969 0.1889 0.0
C578 C 0.35729 0.76306 0.15908 0.0
C579 C 0.40316 0.75141 0.18653 0.0
H580 H 0.61975 0.73004 0.11149 0.0
H581 H 0.56686 0.72329 0.10814 0.0
H582 H 0.65289 0.68856 0.10995 0.0
H583 H 0.5793 0.63003 0.10044 0.0
H584 H 0.31539 0.76346 0.24086 0.0
H585 H 0.36809 0.75222 0.24026 0.0
H586 H 0.2893 0.77376 0.18994 0.0
H587 H 0.36953 0.76287 0.13675 0.0
C588 C 0.76315 0.49 0.18304 0.0
C589 C 0.71054 0.4843 0.17621 0.0
C590 C 0.73925 0.47482 0.17003 0.0
C591 C 0.70584 0.50874 0.19606 0.0
C592 C 0.75813 0.51532 0.20193 0.0
C593 C 0.72951 0.52419 0.20883 0.0
N594 N 0.79096 0.48146 0.1753 0.0
C595 C 0.81402 0.49878 0.18403 0.0
C596 C 0.78196 0.53179 0.21245 0.0
C597 C 0.80992 0.52372 0.20304 0.0
Gd598 Gd 0.84754 0.48212 0.09441 0.0
Gd599 Gd 0.79228 0.43747 0.14434 0.0
N600 N 0.74406 0.45179 0.14977 0.0
C601 C 0.68733 0.46935 0.16153 0.0
C602 C 0.72169 0.43747 0.1348 0.0
C603 C 0.69294 0.44592 0.14064 0.0
H604 H 0.72623 0.41942 0.11861 0.0
H605 H 0.67515 0.43444 0.12899 0.0
H606 H 0.91499 0.45516 0.09058 0.0
H607 H 0.83572 0.49438 0.17594 0.0
H608 H 0.94971 0.43829 0.0484 0.0
H609 H 0.66502 0.47603 0.16574 0.0
H610 H 0.68394 0.5163 0.2011 0.0
H611 H 0.79929 0.52567 0.05548 0.0
H612 H 0.77894 0.55136 0.22689 0.0
H613 H 0.8284 0.53701 0.21 0.0
H614 H 0.90323 0.46344 0.94734 0.0
H615 H 0.72544 0.54348 0.22343 0.0
H616 H 0.81515 0.51934 0.95311 0.0
H617 H 0.78619 0.53862 0.99916 0.0
N618 N 0.83446 0.4981 0.04172 0.0
C619 C 0.85168 0.48879 0.01689 0.0
C620 C 0.81191 0.51683 0.03575 0.0
C621 C 0.82089 0.5134 0.97785 0.0
C622 C 0.8045 0.52434 1.00377 0.0
C623 C 0.84516 0.49584 0.98425 0.0
H624 H 0.85871 0.49086 0.93395 0.0
N625 N 0.88321 0.46887 0.05623 0.0
C626 C 0.87673 0.47346 0.0244 0.0
C627 C 0.92221 0.4512 0.00834 0.0
C628 C 0.89598 0.46463 0.99952 0.0
C629 C 0.90948 0.45741 0.06507 0.0
C630 C 0.92918 0.44798 0.0413 0.0
O631 O 0.77058 0.47014 0.11078 0.0
O632 O 0.80597 0.50502 0.1123 0.0
O633 O 0.85438 0.52021 0.12562 0.0
O634 O 0.88266 0.51326 0.08472 0.0
O635 O 0.78507 0.42693 0.09126 0.0
O636 O 0.81174 0.46103 0.06107 0.0
O637 O 0.86297 0.43553 0.10165 0.0
O638 O 0.82127 0.40875 0.11152 0.0
O639 O 0.79104 0.39096 0.15438 0.0
O640 O 0.76466 0.4192 0.18287 0.0
O641 O 0.86883 0.45733 0.13847 0.0
O642 O 0.83261 0.44222 0.17444 0.0
C643 C 0.77843 0.49755 0.10795 0.0
C644 C 0.79277 0.43896 0.06326 0.0
C645 C 0.87525 0.56267 0.10056 0.0
C646 C 0.89875 0.61132 0.09601 0.0
C647 C 0.84855 0.60392 0.07836 0.0
C648 C 0.84978 0.57455 0.08722 0.0
C649 C 0.87273 0.62203 0.08251 0.0
C650 C 0.89986 0.58133 0.10528 0.0
C651 C 0.87597 0.53077 0.10849 0.0
C652 C 0.88887 0.4703 0.96683 0.0
C653 C 0.86352 0.48592 0.95921 0.0
H654 H 0.93756 0.44403 0.98997 0.0
C655 C 0.84823 0.41087 0.10025 0.0
C656 C 0.86009 0.44615 0.16698 0.0
C657 C 0.74324 0.37494 0.16589 0.0
C658 C 0.71889 0.34154 0.12826 0.0
C659 C 0.69204 0.36307 0.1732 0.0
C660 C 0.71708 0.37801 0.18329 0.0
C661 C 0.69287 0.34486 0.14582 0.0
C662 C 0.74392 0.35642 0.13872 0.0
C663 C 0.76921 0.39256 0.1742 0.0
H664 H 0.82871 0.61269 0.06803 0.0
H665 H 0.83075 0.56102 0.0835 0.0
H666 H 0.87106 0.64471 0.07522 0.0
H667 H 0.91977 0.57251 0.11544 0.0
H668 H 0.67192 0.36565 0.18662 0.0
H669 H 0.71587 0.39235 0.20424 0.0
H670 H 0.67334 0.33334 0.13849 0.0
H671 H 0.76422 0.35324 0.12574 0.0
C672 C 0.49258 0.85913 0.51807 0.0
C673 C 0.47041 0.9046 0.50071 0.0
C674 C 0.4774 0.88441 0.52543 0.0
C675 C 0.47746 0.89812 0.46819 0.0
C676 C 0.5011 0.85329 0.48572 0.0
C677 C 0.49277 0.87251 0.46071 0.0
N678 N 0.50066 0.84124 0.5429 0.0
C679 C 0.51944 0.81864 0.53743 0.0
C680 C 0.51863 0.82889 0.47966 0.0
C681 C 0.52823 0.81178 0.50572 0.0
Gd682 Gd 0.43588 0.79789 0.64329 0.0
Gd683 Gd 0.48246 0.85344 0.59475 0.0
N684 N 0.47144 0.89028 0.55712 0.0
C685 C 0.45754 0.93115 0.5096 0.0
C686 C 0.46038 0.91673 0.56619 0.0
C687 C 0.45296 0.93744 0.54254 0.0
H688 H 0.45675 0.9215 0.59168 0.0
H689 H 0.44363 0.95816 0.5497 0.0
H690 H 0.42039 0.73115 0.61722 0.0
H691 H 0.52736 0.80561 0.55736 0.0
H692 H 0.43611 0.68037 0.62876 0.0
H693 H 0.45185 0.94725 0.49133 0.0
H694 H 0.47197 0.91319 0.44879 0.0
H695 H 0.48984 0.84304 0.67779 0.0
H696 H 0.52565 0.82365 0.45514 0.0
H697 H 0.54254 0.79342 0.50141 0.0
H698 H 0.51503 0.69152 0.70424 0.0
H699 H 0.49884 0.86823 0.43564 0.0
H700 H 0.54661 0.78776 0.73103 0.0
H701 H 0.53139 0.83693 0.7136 0.0
N702 N 0.47862 0.79777 0.6761 0.0
C703 C 0.48761 0.77017 0.68434 0.0
C704 C 0.49473 0.8214 0.68579 0.0
C705 C 0.52758 0.79022 0.71566 0.0
C706 C 0.51902 0.81801 0.70592 0.0
C707 C 0.51225 0.76586 0.70444 0.0
H708 H 0.54031 0.7339 0.72747 0.0
N709 N 0.45116 0.74995 0.64961 0.0
C710 C 0.4735 0.74578 0.67089 0.0
C711 C 0.46953 0.69358 0.66263 0.0
C712 C 0.48341 0.71728 0.67771 0.0
C713 C 0.43787 0.72711 0.6343 0.0
C714 C 0.44675 0.69853 0.64074 0.0
O715 O 0.43504 0.86751 0.59448 0.0
O716 O 0.40728 0.8279 0.61156 0.0
O717 O 0.38929 0.79307 0.64927 0.0
O718 O 0.4172 0.77162 0.6829 0.0
O719 O 0.45556 0.87491 0.63678 0.0
O720 O 0.43796 0.83911 0.6721 0.0
O721 O 0.46983 0.77625 0.61132 0.0
O722 O 0.50482 0.81167 0.61333 0.0
O723 O 0.51746 0.86276 0.6295 0.0
O724 O 0.51505 0.88739 0.58518 0.0
O725 O 0.42728 0.79065 0.58993 0.0
O726 O 0.4631 0.81658 0.56136 0.0
C727 C 0.40998 0.85341 0.59655 0.0
C728 C 0.44231 0.86649 0.66422 0.0
C729 C 0.37587 0.74534 0.66456 0.0
C730 C 0.34591 0.71637 0.6274 0.0
C731 C 0.36717 0.69386 0.67538 0.0
C732 C 0.38001 0.72051 0.68411 0.0
C733 C 0.3501 0.69174 0.64717 0.0
C734 C 0.3585 0.74301 0.6366 0.0
C735 C 0.39104 0.77319 0.67153 0.0
C736 C 0.50718 0.71326 0.69867 0.0
C737 C 0.52155 0.73743 0.71193 0.0
H738 H 0.47655 0.67139 0.66732 0.0
C739 C 0.49725 0.78406 0.60908 0.0
C740 C 0.44059 0.798 0.56264 0.0
C741 C 0.56251 0.88169 0.60805 0.0
C742 C 0.61192 0.90459 0.60712 0.0
C743 C 0.60539 0.85218 0.59778 0.0
C744 C 0.57533 0.85474 0.60086 0.0
C745 C 0.62339 0.87655 0.60105 0.0
C746 C 0.58098 0.90686 0.61119 0.0
C747 C 0.52994 0.88288 0.61163 0.0
H748 H 0.37051 0.67479 0.6905 0.0
H749 H 0.39349 0.72159 0.70575 0.0
H750 H 0.34015 0.67104 0.6409 0.0
H751 H 0.35442 0.76222 0.62187 0.0
H752 H 0.6149 0.83103 0.59274 0.0
H753 H 0.56194 0.83551 0.59766 0.0
H754 H 0.64666 0.87322 0.59891 0.0
H755 H 0.57131 0.92795 0.61614 0.0
C756 C 0.70096 0.49089 0.50771 0.0
C757 C 0.65933 0.46306 0.48922 0.0
C758 C 0.67601 0.47533 0.51462 0.0
C759 C 0.66956 0.46476 0.457 0.0
C760 C 0.71016 0.4947 0.47524 0.0
C761 C 0.69496 0.4806 0.45 0.0
N762 N 0.71456 0.5047 0.53261 0.0
C763 C 0.73567 0.52504 0.52654 0.0
C764 C 0.73343 0.51369 0.46905 0.0
C765 C 0.74585 0.52938 0.49478 0.0
Gd766 Gd 0.74376 0.43001 0.63429 0.0
Gd767 Gd 0.69925 0.49275 0.58566 0.0
N768 N 0.66647 0.47502 0.54585 0.0
C769 C 0.63216 0.45096 0.49679 0.0
C770 C 0.63872 0.46607 0.55276 0.0
C771 C 0.6215 0.45314 0.52859 0.0
H772 H 0.63029 0.46792 0.5773 0.0
H773 H 0.60002 0.44494 0.53447 0.0
H774 H 0.76545 0.3807 0.57818 0.0
H775 H 0.7454 0.53695 0.54649 0.0
H776 H 0.81166 0.36002 0.55805 0.0
H777 H 0.61869 0.4412 0.47803 0.0
H778 H 0.6573 0.45507 0.43719 0.0
H779 H 0.75802 0.45953 0.70638 0.0
H780 H 0.74119 0.51724 0.44443 0.0
H781 H 0.76325 0.54479 0.49016 0.0
H782 H 0.88289 0.39267 0.63564 0.0
H783 H 0.70192 0.48286 0.4249 0.0
H784 H 0.84913 0.44972 0.72625 0.0
H785 H 0.80051 0.46811 0.74233 0.0
N786 N 0.78247 0.43681 0.67066 0.0
C787 C 0.80868 0.42576 0.66193 0.0
C788 C 0.77912 0.45132 0.69943 0.0
C789 C 0.83056 0.44585 0.71054 0.0
C790 C 0.80313 0.45623 0.71972 0.0
C791 C 0.83356 0.43017 0.68144 0.0
H792 H 0.87986 0.42182 0.68598 0.0
N793 N 0.78545 0.40438 0.61684 0.0
C794 C 0.81029 0.40924 0.63387 0.0
C795 C 0.83746 0.37925 0.59622 0.0
C796 C 0.83698 0.39677 0.62415 0.0
C797 C 0.78545 0.38573 0.59086 0.0
C798 C 0.81153 0.37359 0.57961 0.0
O799 O 0.67804 0.4482 0.59656 0.0
O800 O 0.71593 0.41646 0.59089 0.0
O801 O 0.74506 0.38831 0.66002 0.0
O802 O 0.70604 0.41409 0.6604 0.0
O803 O 0.67935 0.47244 0.63149 0.0
O804 O 0.72112 0.46804 0.6595 0.0
O805 O 0.76873 0.47323 0.63482 0.0
O806 O 0.74381 0.50857 0.60419 0.0
O807 O 0.69089 0.52996 0.61753 0.0
O808 O 0.66966 0.52796 0.57105 0.0
O809 O 0.74518 0.4301 0.57953 0.0
O810 O 0.74411 0.47801 0.56426 0.0
C811 C 0.68818 0.42271 0.58697 0.0
C812 C 0.69259 0.4702 0.65985 0.0
C813 C 0.69952 0.36462 0.65311 0.0
C814 C 0.68921 0.33187 0.60756 0.0
C815 C 0.65383 0.33801 0.65109 0.0
C816 C 0.67232 0.35791 0.6667 0.0
C817 C 0.6622 0.32495 0.6217 0.0
C818 C 0.70775 0.35148 0.62376 0.0
C819 C 0.71716 0.38874 0.66615 0.0
C820 C 0.86214 0.40188 0.64283 0.0
C821 C 0.86041 0.41848 0.67149 0.0
H822 H 0.85758 0.36958 0.58764 0.0
C823 C 0.76662 0.4996 0.62155 0.0
C824 C 0.75531 0.45143 0.56169 0.0
C825 C 0.67626 0.57544 0.5941 0.0
C826 C 0.65511 0.62542 0.59316 0.0
C827 C 0.7078 0.6177 0.58963 0.0
C828 C 0.70412 0.58755 0.591 0.0
C829 C 0.6838 0.63636 0.591 0.0
C830 C 0.65165 0.59447 0.59506 0.0
C831 C 0.67318 0.54313 0.59751 0.0
H832 H 0.63282 0.33293 0.66162 0.0
H833 H 0.66514 0.36855 0.68887 0.0
H834 H 0.64755 0.30968 0.60995 0.0
H835 H 0.72887 0.35659 0.61354 0.0
H836 H 0.72952 0.62676 0.58782 0.0
H837 H 0.72316 0.57362 0.59016 0.0
H838 H 0.68803 0.6596 0.59084 0.0
H839 H 0.63005 0.58515 0.59708 0.0
C840 C 0.13304 0.74983 0.70406 0.0
C841 C 0.18295 0.73298 0.70476 0.0
C842 C 0.15775 0.74142 0.68746 0.0
C843 C 0.18205 0.73109 0.73892 0.0
C844 C 0.1326 0.74984 0.73845 0.0
C845 C 0.15688 0.7395 0.75575 0.0
N846 N 0.1101 0.75987 0.68658 0.0
C847 C 0.08686 0.77237 0.70199 0.0
C848 C 0.1081 0.76105 0.75438 0.0
C849 C 0.08535 0.77283 0.73604 0.0
Gd850 Gd 0.05811 0.70181 0.58037 0.0
Gd851 Gd 0.11304 0.75563 0.62948 0.0
N852 N 0.15789 0.74382 0.65452 0.0
C853 C 0.20862 0.72797 0.68733 0.0
C854 C 0.1834 0.74087 0.6377 0.0
C855 C 0.209 0.73259 0.65373 0.0
H856 H 0.18395 0.7437 0.61163 0.0
H857 H 0.22893 0.72955 0.6401 0.0
H858 H 0.02365 0.74468 0.52665 0.0
H859 H 0.06922 0.78178 0.68818 0.0
H860 H 1.01551 0.74712 0.46719 0.0
H861 H 0.22847 0.72154 0.69968 0.0
H862 H 0.20103 0.72417 0.75259 0.0
H863 H 0.07751 0.63313 0.59644 0.0
H864 H 0.10689 0.76144 0.78074 0.0
H865 H 0.06662 0.78225 0.74811 0.0
H866 H 0.05656 0.65769 0.42677 0.0
H867 H 0.15677 0.73885 0.78215 0.0
H868 H 0.08947 0.58797 0.50594 0.0
H869 H 0.09093 0.58831 0.56626 0.0
N870 N 0.06926 0.65783 0.55359 0.0
C871 C 0.06698 0.65762 0.52069 0.0
C872 C 0.07665 0.63302 0.57012 0.0
C873 C 0.0836 0.60763 0.51907 0.0
C874 C 0.08436 0.6077 0.55312 0.0
C875 C 0.07431 0.63263 0.50242 0.0
H876 H 0.07705 0.61429 0.4538 0.0
N877 N 0.04678 0.7045 0.52452 0.0
C878 C 0.05544 0.68188 0.5056 0.0
C879 C 0.03698 0.70618 0.45763 0.0
C880 C 0.05092 0.68207 0.47162 0.0
C881 C 0.03169 0.7273 0.51129 0.0
C882 C 0.02697 0.72872 0.47764 0.0
O883 O 0.08133 0.72606 0.65534 0.0
O884 O 0.08204 0.68462 0.62564 0.0
O885 O 0.02558 0.69754 0.61909 0.0
O886 O 1.01656 0.67983 0.57159 0.0
O887 O 0.13687 0.71634 0.60558 0.0
O888 O 0.10484 0.68487 0.57813 0.0
O889 O 0.07453 0.74401 0.55529 0.0
O890 O 0.12067 0.74708 0.57594 0.0
O891 O 0.13754 0.79526 0.6393 0.0
O892 O 0.10267 0.79611 0.60413 0.0
O893 O 0.04436 0.74959 0.58435 0.0
O894 O 0.06428 0.76509 0.63278 0.0
C895 C 0.08517 0.69777 0.65397 0.0
C896 C 0.13129 0.69233 0.5881 0.0
C897 C 0.99663 0.65376 0.61653 0.0
C898 C 0.95769 0.61726 0.62815 0.0
C899 C 1.00757 0.6098 0.6473 0.0
C900 C 1.0164 0.63616 0.63361 0.0
C901 C 0.97876 0.60047 0.64462 0.0
C902 C 0.96705 0.64405 0.61351 0.0
C903 C 1.00768 0.68161 0.60164 0.0
C904 C 0.05957 0.65786 0.45296 0.0
C905 C 0.07124 0.63315 0.46835 0.0
H906 H 0.0331 0.70721 0.43161 0.0
C907 C 0.10183 0.7531 0.55293 0.0
C908 C 0.04536 0.76825 0.60885 0.0
C909 C 0.14502 0.82233 0.59141 0.0
C910 C 0.18691 0.81542 0.5554 0.0
C911 C 0.16287 0.86269 0.55881 0.0
C912 C 0.14301 0.85151 0.58155 0.0
C913 C 0.185 0.84493 0.54617 0.0
C914 C 0.16645 0.80446 0.5777 0.0
C915 C 0.12511 0.80988 0.61587 0.0
H916 H 0.02323 0.59643 0.66016 0.0
H917 H 0.0389 0.64278 0.63633 0.0
H918 H 0.97302 0.57966 0.65542 0.0
H919 H 0.95148 0.65739 0.60044 0.0
H920 H 0.16138 0.8853 0.55131 0.0
H921 H 0.1263 0.8656 0.59151 0.0
H922 H 0.20052 0.85427 0.52927 0.0
H923 H 0.16764 0.78205 0.58545 0.0
C924 C 0.8345 0.0597 0.51452 0.0
C925 C 0.87411 0.08484 0.48747 0.0
C926 C 0.85998 0.07574 0.51625 0.0
C927 C 0.8612 0.07913 0.45709 0.0
C928 C 0.82222 0.05255 0.48404 0.0
C929 C 0.83528 0.06302 0.45537 0.0
N930 N 0.82252 0.0498 0.54268 0.0
C931 C 0.79975 0.03053 0.54192 0.0
C932 C 0.79771 0.03437 0.48326 0.0
C933 C 0.78671 1.02294 0.51231 0.0
Gd934 Gd 0.79727 0.12608 0.63892 0.0
Gd935 Gd 0.84436 0.06602 0.59152 0.0
N936 N 0.87214 0.08041 0.54595 0.0
C937 C 0.90138 0.09829 0.49002 0.0
C938 C 0.89972 0.09142 0.54834 0.0
C939 C 0.91446 0.10116 0.52057 0.0
H940 H 0.91039 0.09276 0.57178 0.0
H941 H 0.93601 0.11056 0.52271 0.0
H942 H 0.76628 0.17359 0.58721 0.0
H943 H 0.79109 1.02181 0.56429 0.0
H944 H 0.71725 0.19157 0.57359 0.0
H945 H 0.91303 0.10532 0.46847 0.0
H946 H 0.87155 0.08627 0.43474 0.0
H947 H 0.78936 0.08346 0.7057 0.0
H948 H 0.78763 0.02838 0.46033 0.0
H949 H 0.76819 1.00831 0.51193 0.0
H950 H 0.65514 0.145 0.65201 0.0
H951 H 0.826 0.05804 0.43174 0.0
H952 H 0.69919 0.08188 0.73092 0.0
H953 H 0.74987 0.06614 0.74107 0.0
N954 N 0.76161 0.1089 0.67532 0.0
C955 C 0.73395 0.11828 0.66974 0.0
C956 C 0.76752 0.09069 0.70083 0.0
C957 C 0.71651 0.08971 0.71526 0.0
C958 C 0.74509 0.08076 0.72105 0.0
C959 C 0.71062 0.10875 0.68944 0.0
H960 H 0.66405 0.11125 0.69755 0.0
N961 N 0.75182 0.1462 0.62561 0.0
C962 C 0.72889 0.13725 0.64398 0.0
C963 C 0.69625 0.16682 0.61157 0.0
C964 C 0.70044 0.14727 0.63738 0.0
C965 C 0.74796 0.16587 0.60103 0.0
C966 C 0.72017 0.17627 0.59342 0.0
O967 O 0.86669 0.1104 0.6001 0.0
O968 O 0.82831 0.1427 0.59948 0.0
O969 O 0.7871 0.16718 0.66299 0.0
O970 O 0.82943 0.14782 0.66927 0.0
O971 O 0.86585 0.08906 0.63537 0.0
O972 O 0.82467 0.09192 0.66438 0.0
O973 O 0.7711 0.08514 0.62678 0.0
O974 O 0.80444 0.04762 0.61864 0.0
O975 O 0.85282 0.02627 0.61986 0.0
O976 O 0.8787 0.0352 0.57779 0.0
O977 O 0.79846 0.13154 0.58451 0.0
O978 O 0.80175 0.08419 0.56665 0.0
C979 C 0.85607 0.13663 0.59402 0.0
C980 C 0.85316 0.09329 0.66379 0.0
C981 C 0.82852 0.19752 0.65688 0.0
C982 C 0.83132 0.23189 0.61134 0.0
C983 C 0.87192 0.22707 0.64897 0.0
C984 C 0.85669 0.20571 0.66651 0.0
C985 C 0.8594 0.24007 0.62143 0.0
C986 C 0.81596 0.21114 0.62971 0.0
C987 C 0.81421 0.17161 0.67113 0.0
C988 C 0.67715 0.13763 0.65678 0.0
C989 C 0.68223 0.11843 0.68274 0.0
H990 H 0.67473 0.17495 0.60567 0.0
C991 C 0.77741 0.05716 0.62324 0.0
C992 C 0.7918 0.11132 0.56319 0.0
C993 C 0.87404 0.98502 0.59254 0.0
C994 C 0.89695 0.93567 0.59152 0.0
C995 C 0.84963 0.94454 0.5659 0.0
C996 C 0.85022 0.97368 0.57545 0.0
C997 C 0.8726 0.92588 0.57359 0.0
C998 C 0.89768 0.96587 0.60054 0.0
C999 C 0.87387 1.01683 0.6013 0.0
H1000 H 0.8937 0.23319 0.65642 0.0
H1001 H 0.86717 0.19502 0.68694 0.0
H1002 H 0.87171 0.25619 0.60789 0.0
H1003 H 0.79406 0.20534 0.62252 0.0
H1004 H 0.83115 0.93629 0.55233 0.0
H1005 H 0.83199 0.98747 0.5693 0.0
H1006 H 0.87126 0.90354 0.56509 0.0
H1007 H 0.91614 0.97429 0.61403 0.0
C1008 C 0.90957 0.24535 0.80711 0.0
C1009 C 0.86127 0.22427 0.80348 0.0
C1010 C 0.88475 0.23494 0.82225 0.0
C1011 C 0.86378 0.22296 0.76939 0.0
C1012 C 0.9116 0.24547 0.77278 0.0
C1013 C 0.88886 0.23365 0.75406 0.0
N1014 N 0.93133 0.25632 0.82588 0.0
C1015 C 0.95494 0.26944 0.8118 0.0
C1016 C 0.93632 0.25774 0.75828 0.0
C1017 C 0.95791 0.27007 0.77788 0.0
Gd1018 Gd 0.98389 0.20154 0.93044 0.0
Gd1019 Gd 0.92496 0.25305 0.88273 0.0
N1020 N 0.88287 0.23685 0.85519 0.0
C1021 C 0.83559 0.21617 0.81946 0.0
C1022 C 0.85718 0.23084 0.87059 0.0
C1023 C 0.83337 0.21998 0.8531 0.0
H1024 H 0.85503 0.23396 0.89653 0.0
H1025 H 0.81331 0.21462 0.8656 0.0
H1026 H 1.01964 0.24904 0.97844 0.0
H1027 H 0.97182 0.27908 0.82655 0.0
H1028 H 0.02825 0.25697 0.03726 0.0
H1029 H 0.81707 0.20787 0.80594 0.0
H1030 H 0.84613 0.21447 0.7546 0.0
H1031 H 0.96645 0.13128 0.92244 0.0
H1032 H 0.93871 0.25821 0.73201 0.0
H1033 H 0.97689 0.28005 0.76689 0.0
H1034 H 0.98684 0.17211 0.08823 0.0
H1035 H 0.89024 0.23317 0.72771 0.0
H1036 H 0.95475 0.09484 0.01783 0.0
H1037 H 0.95363 0.0893 0.95781 0.0
N1038 N 0.9739 0.16007 0.96215 0.0
C1039 C 0.97613 0.16308 0.99489 0.0
C1040 C 0.96713 0.13366 0.94864 0.0
C1041 C 0.96034 0.11322 1.00244 0.0
C1042 C 0.95977 0.10998 0.96857 0.0
C1043 C 0.96917 0.13985 0.01603 0.0
H1044 H 0.9666 0.12622 0.06655 0.0
N1045 N 0.99593 0.20961 0.98551 0.0
C1046 C 0.98744 0.18881 1.00701 0.0
C1047 C 1.00636 0.2174 0.05173 0.0
C1048 C 0.99219 0.19217 0.04074 0.0
C1049 C 1.01158 0.23326 0.99584 0.0
C1050 C 1.01652 0.23781 0.02911 0.0
O1051 O 0.95744 0.2237 0.85772 0.0
O1052 O 0.95865 0.18229 0.8871 0.0
O1053 O 1.01609 0.19345 0.89226 0.0
O1054 O 0.02465 0.17884 0.9412 0.0
O1055 O 0.90339 0.21447 0.91038 0.0
O1056 O 0.93772 0.18325 0.93436 0.0
O1057 O 0.96752 0.24466 0.95361 0.0
O1058 O 0.92029 0.24507 0.93649 0.0
O1059 O 0.89347 0.28739 0.87332 0.0
O1060 O 0.9309 0.29624 0.90372 0.0
O1061 O 1.00144 0.24703 0.91826 0.0
O1062 O 0.97009 0.27374 0.88484 0.0
C1063 C 0.95362 0.19538 0.85912 0.0
C1064 C 0.91055 0.19042 0.92696 0.0
C1065 C 0.04521 0.15018 0.89858 0.0
C1066 C 0.08503 0.11421 0.89025 0.0
C1067 C 0.03625 0.10524 0.86875 0.0
C1068 C 0.02636 0.13172 0.88129 0.0
C1069 C 0.06515 0.09666 0.87299 0.0
C1070 C 0.07471 0.14112 0.90347 0.0
C1071 C 0.03373 0.17866 0.91117 0.0
C1072 C 0.9837 0.1698 0.06219 0.0
C1073 C 0.9722 0.14366 0.04984 0.0
H1074 H 1.01042 0.22084 0.07746 0.0
C1075 C 0.9401 0.25276 0.95766 0.0
C1076 C 0.99507 0.27032 0.90044 0.0
C1077 C 0.88628 0.31561 0.92059 0.0
C1078 C 0.84795 0.30488 0.9601 0.0
C1079 C 0.86889 0.35362 0.95681 0.0
C1080 C 0.88749 0.34448 0.93175 0.0
C1081 C 0.84885 0.3341 0.97055 0.0
C1082 C 0.86709 0.29594 0.9354 0.0
C1083 C 0.90538 0.30522 0.89426 0.0
H1084 H 1.02139 0.09127 0.85545 0.0
H1085 H 1.00385 0.13784 0.87732 0.0
H1086 H 0.07198 0.07592 0.86285 0.0
H1087 H 0.08956 0.15511 0.91678 0.0
H1088 H 0.8697 0.37599 0.96527 0.0
H1089 H 0.90265 0.35988 0.92107 0.0
H1090 H 0.83403 0.34187 0.98913 0.0
H1091 H 0.86643 0.27371 0.92671 0.0
C1092 C 0.30103 0.91007 0.815 0.0
C1093 C 0.31669 0.85984 0.81931 0.0
C1094 C 0.30792 0.88626 0.834 0.0
C1095 C 0.32066 0.85865 0.78538 0.0
C1096 C 0.303 0.90844 0.78074 0.0
C1097 C 0.31389 0.88297 0.7661 0.0
N1098 N 0.29022 0.93408 0.82993 0.0
C1099 C 0.27878 0.95643 0.81199 0.0
C1100 C 0.29294 0.93203 0.76223 0.0
C1101 C 0.28026 0.95591 0.77793 0.0
Gd1102 Gd 0.34385 0.99152 0.93551 0.0
Gd1103 Gd 0.29124 0.93476 0.88727 0.0
N1104 N 0.30353 0.88818 0.86661 0.0
C1105 C 0.31983 0.83509 0.83895 0.0
C1106 C 0.30469 0.86363 0.88549 0.0
C1107 C 0.31312 0.83685 0.87206 0.0
H1108 H 0.30037 0.86479 0.91128 0.0
H1109 H 0.31469 0.81765 0.88731 0.0
H1110 H 0.30145 0.02529 0.99017 0.0
H1111 H 0.26902 0.97499 0.82391 0.0
H1112 H 0.29998 0.03334 0.04974 0.0
H1113 H 0.32638 0.81433 0.82863 0.0
H1114 H 0.32788 0.8387 0.77371 0.0
H1115 H 0.41232 0.97362 0.91777 0.0
H1116 H 0.29409 0.93166 0.73586 0.0
H1117 H 0.27175 0.97396 0.76384 0.0
H1118 H 0.39064 0.99367 0.08804 0.0
H1119 H 0.31608 0.88148 0.73986 0.0
H1120 H 0.4592 0.96187 1.0072 0.0
H1121 H 0.45775 0.96055 0.94688 0.0
N1122 N 0.38835 0.98116 0.96124 0.0
C1123 C 0.38913 0.98341 0.99412 0.0
C1124 C 0.41286 0.97417 0.94409 0.0
C1125 C 0.43926 0.96748 0.99454 0.0
C1126 C 0.43854 0.96677 0.96049 0.0
C1127 C 0.41451 0.97642 0.0118 0.0
H1128 H 0.43374 0.97386 0.05998 0.0
N1129 N 0.34191 1.00275 0.99142 0.0
C1130 C 0.365 0.99449 0.0098 0.0
C1131 C 0.34135 1.01251 0.05833 0.0
C1132 C 0.36537 0.99897 0.04378 0.0
C1133 C 0.31917 1.01748 1.00517 0.0
C1134 C 0.31832 1.02218 0.03885 0.0
O1135 O 0.32033 0.96683 0.86139 0.0
O1136 O 0.36168 0.96676 0.89097 0.0
O1137 O 0.34785 1.02366 0.89646 0.0
O1138 O 0.36464 0.03378 0.94425 0.0
O1139 O 0.32958 0.91171 0.91374 0.0
O1140 O 0.36068 0.94483 0.9401 0.0
O1141 O 0.30121 0.97629 0.95999 0.0
O1142 O 0.29798 0.92926 0.94147 0.0
O1143 O 0.25116 0.91154 0.87596 0.0
O1144 O 0.25032 0.94698 0.9103 0.0
O1145 O 0.29596 1.00445 0.93012 0.0
O1146 O 0.28512 0.98385 0.88088 0.0
C1147 C 0.34855 0.96324 0.86272 0.0
C1148 C 0.35321 0.91795 0.93148 0.0
C1149 C 0.3897 0.05528 0.8993 0.0
C1150 C 0.42428 0.09638 0.89129 0.0
C1151 C 0.43037 0.0506 0.86174 0.0
C1152 C 0.40586 0.03878 0.87687 0.0
C1153 C 0.43936 0.07905 0.86864 0.0
C1154 C 0.39934 0.08417 0.90693 0.0
C1155 C 0.36277 0.0423 0.91407 0.0
C1156 C 0.39003 0.99069 0.06185 0.0
C1157 C 0.41458 0.97942 0.04588 0.0
H1158 H 0.34075 1.01636 0.08437 0.0
C1159 C 0.29164 0.9492 0.96325 0.0
C1160 C 0.27886 1.00247 0.90435 0.0
C1161 C 0.22157 0.90618 0.92224 0.0
C1162 C 0.22518 0.86567 0.96079 0.0
C1163 C 0.17871 0.88984 0.95156 0.0
C1164 C 0.1918 0.90875 0.92904 0.0
C1165 C 0.19516 0.86809 0.967 0.0
C1166 C 0.23805 0.8852 0.93871 0.0
C1167 C 0.23605 0.92506 0.89817 0.0
H1168 H 0.44249 0.03759 0.84439 0.0
H1169 H 0.39942 1.01667 0.87082 0.0
H1170 H 0.4585 0.0875 0.85641 0.0
H1171 H 0.38727 0.09718 0.92433 0.0
H1172 H 0.15567 0.89176 0.95671 0.0
H1173 H 0.17875 0.92516 0.91689 0.0
H1174 H 0.18446 0.85325 0.9837 0.0
H1175 H 0.26094 0.88359 0.93333 0.0
C1176 C 0.55152 0.3548 0.99975 0.0
C1177 C 0.57421 0.3997 0.01815 0.0
C1178 C 0.56704 0.38002 0.99297 0.0
C1179 C 0.56697 0.39276 0.0505 0.0
C1180 C 0.5428 0.34853 0.03194 0.0
C1181 C 0.5513 0.36722 0.05738 0.0
N1182 N 0.54333 0.33743 0.97451 0.0
C1183 C 0.52405 0.31511 0.9794 0.0
C1184 C 0.5249 0.32427 0.0374 0.0
C1185 C 0.51506 0.30781 0.01093 0.0
Gd1186 Gd 0.60866 0.29368 0.87624 0.0
Gd1187 Gd 0.56203 0.35015 0.92297 0.0
N1188 N 0.57312 0.38637 0.96141 0.0
C1189 C 0.58745 0.42624 0.00988 0.0
C1190 C 0.58433 0.41292 0.95299 0.0
C1191 C 0.59209 0.43308 0.9771 0.0
H1192 H 0.58781 0.41822 0.92759 0.0
H1193 H 0.60162 0.45384 0.97039 0.0
H1194 H 0.62438 0.22901 0.90791 0.0
H1195 H 0.51576 0.30268 0.95916 0.0
H1196 H 0.60904 0.17747 0.90056 0.0
H1197 H 0.59332 0.44196 0.0285 0.0
H1198 H 0.57259 0.40745 0.07023 0.0
H1199 H 0.55403 0.33585 0.83887 0.0
H1200 H 0.51771 0.3187 0.06177 0.0
H1201 H 0.50038 0.28964 0.01476 0.0
H1202 H 0.53082 0.18281 0.82338 0.0
H1203 H 0.54508 0.36259 0.08232 0.0
H1204 H 0.49854 0.27676 0.78888 0.0
H1205 H 0.51287 0.32706 0.80308 0.0
N1206 N 0.56606 0.29094 0.84339 0.0
C1207 C 0.5576 0.26278 0.83694 0.0
C1208 C 0.54963 0.31373 0.83208 0.0
C1209 C 0.51749 0.28039 0.80411 0.0
C1210 C 0.52554 0.30882 0.81203 0.0
C1211 C 0.53311 0.25695 0.81708 0.0
H1212 H 0.5054 0.22331 0.79656 0.0
N1213 N 0.59379 0.2453 0.87372 0.0
C1214 C 0.57185 0.23948 0.85238 0.0
C1215 C 0.57595 0.18805 0.86518 0.0
C1216 C 0.56216 0.21052 0.84788 0.0
C1217 C 0.60709 0.22368 0.89103 0.0
C1218 C 0.59843 0.19467 0.88693 0.0
O1219 O 0.6093 0.3654 0.92159 0.0
O1220 O 0.63707 0.32554 0.90553 0.0
O1221 O 0.65489 0.28539 0.87244 0.0
O1222 O 0.62708 0.26909 0.83519 0.0
O1223 O 0.58819 0.37128 0.88011 0.0
O1224 O 0.60557 0.33431 0.8463 0.0
O1225 O 0.57487 0.2733 0.9093 0.0
O1226 O 0.53991 0.30817 0.90418 0.0
O1227 O 0.52693 0.35872 0.88831 0.0
O1228 O 0.52937 0.38399 0.93235 0.0
O1229 O 0.61883 0.28985 0.92971 0.0
O1230 O 0.581 0.31374 0.95679 0.0
C1231 C 0.63449 0.35158 0.91929 0.0
C1232 C 0.60067 0.362 0.85258 0.0
C1233 C 0.66559 0.2383 0.85287 0.0
C1234 C 0.69384 0.20523 0.88725 0.0
C1235 C 0.67013 0.18697 0.83851 0.0
C1236 C 0.65915 0.2149 0.83191 0.0
C1237 C 0.68755 0.18209 0.86602 0.0
C1238 C 0.68324 0.23317 0.88015 0.0
C1239 C 0.65272 0.26765 0.84808 0.0
C1240 C 0.53855 0.20492 0.82712 0.0
C1241 C 0.5241 0.22802 0.81181 0.0
H1242 H 0.56908 0.16555 0.86233 0.0
C1243 C 0.54738 0.28082 0.91013 0.0
C1244 C 0.60465 0.29676 0.95655 0.0
C1245 C 0.48189 0.37704 0.90996 0.0
C1246 C 0.43267 0.39966 0.91028 0.0
C1247 C 0.43872 0.3471 0.91755 0.0
C1248 C 0.46889 0.34971 0.91503 0.0
C1249 C 0.42084 0.37164 0.915 0.0
C1250 C 0.4636 0.40227 0.90806 0.0
C1251 C 0.51432 0.37874 0.90617 0.0
H1252 H 0.66511 0.16904 0.82226 0.0
H1253 H 0.64541 0.21812 0.81075 0.0
H1254 H 0.69612 0.16046 0.87067 0.0
H1255 H 0.68902 0.25115 0.8961 0.0
H1256 H 0.42906 0.32581 0.92136 0.0
H1257 H 0.48213 0.33021 0.91686 0.0
H1258 H 0.39749 0.36871 0.91706 0.0
H1259 H 0.47328 0.42357 0.90421 0.0
C1260 C 0.18822 0.55528 0.99756 0.0
C1261 C 0.14137 0.5761 0.01186 0.0
C1262 C 0.16295 0.56968 0.98852 0.0
C1263 C 0.14637 0.56931 0.04477 0.0
C1264 C 0.19261 0.54696 0.03027 0.0
C1265 C 0.17194 0.55476 0.05396 0.0
N1266 N 0.20761 0.54779 0.97398 0.0
C1267 C 0.2304 0.52965 0.98099 0.0
C1268 C 0.21713 0.53017 0.03798 0.0
C1269 C 0.23582 0.52107 0.01313 0.0
Gd1270 Gd 0.25478 0.61415 0.87835 0.0
Gd1271 Gd 0.19752 0.56551 0.92128 0.0
N1272 N 0.15856 0.57544 0.95647 0.0
C1273 C 0.11499 0.58814 1.00124 0.0
C1274 C 0.13232 0.58567 0.94568 0.0
C1275 C 0.11025 0.59245 0.96793 0.0
H1276 H 0.12876 0.58913 0.91991 0.0
H1277 H 0.0897 0.60113 0.95941 0.0
H1278 H 0.31833 0.63129 0.91162 0.0
H1279 H 0.24476 0.52223 0.96199 0.0
H1280 H 0.37032 0.61793 0.90452 0.0
H1281 H 0.09786 0.59339 0.01842 0.0
H1282 H 0.1302 0.57439 0.06315 0.0
H1283 H 0.21495 0.55802 0.84 0.0
H1284 H 0.22129 0.52333 0.06282 0.0
H1285 H 0.25434 0.50734 0.01869 0.0
H1286 H 0.3684 0.541 0.82533 0.0
H1287 H 0.1751 0.54885 0.07928 0.0
H1288 H 0.27619 0.50563 0.78931 0.0
H1289 H 0.22544 0.51772 0.80346 0.0
N1290 N 0.25918 0.57207 0.84465 0.0
C1291 C 0.28761 0.56461 0.83857 0.0
C1292 C 0.23717 0.55472 0.83309 0.0
C1293 C 0.27177 0.52425 0.80483 0.0
C1294 C 0.24309 0.53105 0.81269 0.0
C1295 C 0.29446 0.54059 0.81834 0.0
H1296 H 0.32914 0.51446 0.79759 0.0
N1297 N 0.30348 0.60083 0.87638 0.0
C1298 C 0.3102 0.57937 0.85472 0.0
C1299 C 0.36124 0.58517 0.86817 0.0
C1300 C 0.33945 0.57084 0.85031 0.0
C1301 C 0.3244 0.61448 0.8944 0.0
C1302 C 0.35366 0.60697 0.89041 0.0
O1303 O 0.18167 0.61234 0.91895 0.0
O1304 O 0.22198 0.64135 0.90811 0.0
O1305 O 0.25787 0.66114 0.87321 0.0
O1306 O 0.28315 0.63448 0.84173 0.0
O1307 O 0.17812 0.59171 0.87715 0.0
O1308 O 0.21618 0.61018 0.84584 0.0
O1309 O 0.27477 0.57972 0.91123 0.0
O1310 O 0.24048 0.54412 0.90483 0.0
O1311 O 0.19248 0.52858 0.88768 0.0
O1312 O 0.16285 0.53322 0.92767 0.0
O1313 O 0.25795 0.62283 0.93198 0.0
O1314 O 0.23181 0.58549 0.95763 0.0
C1315 C 0.19531 0.63771 0.91983 0.0
C1316 C 0.1884 0.60486 0.85039 0.0
C1317 C 0.3061 0.6765 0.86344 0.0
C1318 C 0.33069 0.70709 0.90382 0.0
C1319 C 0.3579 0.68669 0.8585 0.0
C1320 C 0.3326 0.67323 0.84672 0.0
C1321 C 0.35701 0.70362 0.88689 0.0
C1322 C 0.30542 0.69371 0.89169 0.0
C1323 C 0.27961 0.66045 0.85324 0.0
C1324 C 0.34605 0.54782 0.82905 0.0
C1325 C 0.32366 0.53274 0.8132 0.0
H1326 H 0.38393 0.57918 0.86539 0.0
C1327 C 0.26761 0.55197 0.91124 0.0
C1328 C 0.24956 0.60872 0.95833 0.0
C1329 C 0.17122 0.48464 0.90973 0.0
C1330 C 0.14831 0.43521 0.9107 0.0
C1331 C 0.19804 0.44298 0.93048 0.0
C1332 C 0.19658 0.47261 0.92307 0.0
C1333 C 0.17437 0.42461 0.92453 0.0
C1334 C 0.1468 0.46582 0.90374 0.0
C1335 C 0.17048 0.5169 0.90329 0.0
H1336 H 0.37826 0.68397 0.84558 0.0
H1337 H 0.33384 0.65989 0.82497 0.0
H1338 H 0.37672 0.71411 0.89548 0.0
H1339 H 0.28494 0.69711 0.90424 0.0
H1340 H 0.21774 0.43414 0.94108 0.0
H1341 H 0.21533 0.48625 0.92802 0.0
H1342 H 0.1765 0.40185 0.93125 0.0
H1343 H 0.12706 0.47484 0.89341 0.0
H1344 H 0.56506 0.16645 0.30469 0.0
H1345 H 0.64985 0.1695 0.34917 0.0
H1346 H 0.58557 0.1397 0.258 0.0
H1347 H 0.67053 0.14322 0.30288 0.0
H1348 H 0.6404 0.12385 0.16263 0.0
H1349 H 0.61626 0.1455 0.21026 0.0
H1350 H 0.6749 0.09867 0.27365 0.0
H1351 H 0.69848 0.07704 0.22619 0.0
C1352 C 0.5879 0.16058 0.30503 0.0
C1353 C 0.60554 0.16931 0.3314 0.0
C1354 C 0.5999 0.14566 0.27787 0.0
C1355 C 0.62997 0.13897 0.27613 0.0
C1356 C 0.6473 0.14723 0.30306 0.0
C1357 C 0.63537 0.16227 0.32993 0.0
C1358 C 0.64795 0.11796 0.18676 0.0
C1359 C 0.67197 0.09905 0.19029 0.0
C1360 C 0.63402 0.1304 0.21428 0.0
C1361 C 0.64356 0.12434 0.24638 0.0
C1362 C 0.66704 0.10465 0.24969 0.0
C1363 C 0.68077 0.09218 0.22227 0.0
H1364 H 0.43832 0.63576 0.1632 0.0
H1365 H 0.45864 0.71271 0.21935 0.0
H1366 H 0.41579 0.61355 0.21166 0.0
H1367 H 0.43629 0.6908 0.26724 0.0
H1368 H 0.361 0.661 0.33265 0.0
H1369 H 0.38788 0.67935 0.28607 0.0
H1370 H 0.42289 0.59336 0.26888 0.0
H1371 H 0.39546 0.57471 0.31636 0.0
C1372 C 0.43823 0.64792 0.18583 0.0
C1373 C 0.45026 0.67629 0.18691 0.0
C1374 C 0.42536 0.63508 0.2138 0.0
C1375 C 0.42381 0.65028 0.24373 0.0
C1376 C 0.43648 0.67836 0.2448 0.0
C1377 C 0.44952 0.69099 0.21711 0.0
C1378 C 0.37462 0.64585 0.3193 0.0
C1379 C 0.37595 0.61624 0.32871 0.0
C1380 C 0.39028 0.65653 0.29239 0.0
C1381 C 0.40785 0.63807 0.27326 0.0
C1382 C 0.40954 0.60837 0.28272 0.0
C1383 C 0.39405 0.59766 0.31025 0.0
H1384 H 0.98188 0.35333 0.30025 0.0
H1385 H 0.91879 0.39504 0.3621 0.0
H1386 H 0.96023 0.37651 0.25248 0.0
H1387 H 0.89581 0.41712 0.31447 0.0
H1388 H 0.86678 0.4699 0.22745 0.0
H1389 H 0.8935 0.45051 0.27395 0.0
H1390 H 0.92457 0.37948 0.21395 0.0
H1391 H 0.89905 0.40037 0.16705 0.0
C1392 C 0.96324 0.36747 0.30363 0.0
C1393 C 0.95227 0.37233 0.33522 0.0
C1394 C 0.95049 0.38074 0.276 0.0
C1395 C 0.92585 0.39912 0.27869 0.0
C1396 C 0.915 0.4039 0.31061 0.0
C1397 C 0.92816 0.39105 0.33829 0.0
C1398 C 0.88013 0.45065 0.22397 0.0
C1399 C 0.88139 0.43732 0.19308 0.0
C1400 C 0.89513 0.43899 0.25102 0.0
C1401 C 0.91142 0.41286 0.24869 0.0
C1402 C 0.913 0.3998 0.21737 0.0
C1403 C 0.89837 0.41188 0.19011 0.0
H1404 H 0.20642 0.93464 0.28767 0.0
H1405 H 0.1294 0.93408 0.34782 0.0
H1406 H 0.17903 0.91453 0.24262 0.0
H1407 H 0.1013 0.91414 0.30164 0.0
H1408 H 0.06899 0.8482 0.22078 0.0
H1409 H 0.09298 0.87134 0.26754 0.0
H1410 H 0.14434 0.92369 0.20161 0.0
H1411 H 0.12079 0.89998 0.15516 0.0
C1412 C 0.18343 0.93052 0.29139 0.0
C1413 C 0.17041 0.93626 0.32195 0.0
C1414 C 0.16748 0.91905 0.26505 0.0
C1415 C 0.13758 0.91262 0.26776 0.0
C1416 C 0.12427 0.91852 0.29826 0.0
C1417 C 0.14036 0.9303 0.32484 0.0
C1418 C 0.08544 0.86465 0.21628 0.0
C1419 C 0.09314 0.87176 0.18395 0.0
C1420 C 0.09908 0.87824 0.24325 0.0
C1421 C 0.12109 0.89946 0.23895 0.0
C1422 C 0.12805 0.90715 0.20644 0.0
C1423 C 0.11427 0.8937 0.17954 0.0
H1424 H 0.33792 0.97593 0.79849 0.0
H1425 H 0.3962 0.9265 0.85929 0.0
H1426 H 0.36142 0.95637 0.74983 0.0
H1427 H 0.41983 0.90648 0.81064 0.0
H1428 H 0.47118 0.8876 0.71774 0.0
H1429 H 0.4503 0.9128 0.76496 0.0
H1430 H 0.36683 0.91514 0.71648 0.0
H1431 H 0.38823 0.89074 0.66919 0.0
C1432 C 0.35568 0.96065 0.80149 0.0
C1433 C 0.36475 0.95258 0.83301 0.0
C1434 C 0.3693 0.94931 0.7734 0.0
C1435 C 0.39271 0.92942 0.77563 0.0
C1436 C 0.40223 0.9219 0.80737 0.0
C1437 C 0.38859 0.93337 0.83551 0.0
C1438 C 0.44865 0.89454 0.71674 0.0
C1439 C 0.43175 0.88813 0.68901 0.0
C1440 C 0.43638 0.90851 0.74422 0.0
C1441 C 0.40656 0.91624 0.74521 0.0
C1442 C 0.38989 0.9103 0.71696 0.0
C1443 C 0.40223 0.89639 0.68951 0.0
H1444 H 0.62496 0.41794 0.85632 0.0
H1445 H 0.59766 0.35249 0.78728 0.0
H1446 H 0.64523 0.44721 0.81117 0.0
H1447 H 0.61765 0.38117 0.74278 0.0
H1448 H 0.63724 0.44663 0.66318 0.0
H1449 H 0.61281 0.42436 0.70987 0.0
H1450 H 0.68578 0.44681 0.77119 0.0
H1451 H 0.71006 0.46942 0.7244 0.0
C1452 C 0.62271 0.41004 0.83157 0.0
C1453 C 0.60942 0.38279 0.8257 0.0
C1454 C 0.63467 0.42666 0.80558 0.0
C1455 C 0.63325 0.4168 0.77287 0.0
C1456 C 0.61904 0.39 0.76722 0.0
C1457 C 0.60758 0.37335 0.79301 0.0
C1458 C 0.64796 0.44734 0.68668 0.0
C1459 C 0.67589 0.4599 0.68963 0.0
C1460 C 0.63399 0.4342 0.71361 0.0
C1461 C 0.6472 0.43335 0.74473 0.0
C1462 C 0.67462 0.447 0.74794 0.0
C1463 C 0.68874 0.45988 0.72089 0.0
H1464 H 0.0779 0.71011 0.71934 0.0
H1465 H 0.11836 0.64771 0.65534 0.0
H1466 H 0.10003 0.68603 0.76654 0.0
H1467 H 0.13953 0.62279 0.70232 0.0
H1468 H 0.20303 0.60716 0.78628 0.0
H1469 H 0.17676 0.62791 0.74078 0.0
H1470 H 0.10317 0.6448 0.80342 0.0
H1471 H 0.13036 0.62426 0.84996 0.0
C1472 C 0.09153 0.69121 0.71529 0.0
C1473 C 0.09676 0.68142 0.68323 0.0
C1474 C 0.10398 0.67703 0.74256 0.0
C1475 C 0.12207 0.65234 0.73882 0.0
C1476 C 0.12637 0.64199 0.70667 0.0
C1477 C 0.11392 0.65619 0.67948 0.0
C1478 C 0.1811 0.61496 0.7906 0.0
C1479 C 0.16902 0.61379 0.82223 0.0
C1480 C 0.16578 0.62684 0.76409 0.0
C1481 C 0.1375 0.63825 0.76775 0.0
C1482 C 0.12495 0.63657 0.7993 0.0
C1483 C 0.1404 0.62438 0.82608 0.0
H1484 H 0.9099 0.1147 0.6672 0.0
H1485 H 0.83374 0.10178 0.72676 0.0
H1486 H 0.93466 0.13794 0.71334 0.0
H1487 H 0.85786 0.12558 0.77236 0.0
H1488 H 0.9151 0.14905 0.85995 0.0
H1489 H 0.8925 0.12363 0.81399 0.0
H1490 H 0.93928 0.1793 0.74712 0.0
H1491 H 0.96248 0.20387 0.7933 0.0
C1492 C 0.8984 0.11654 0.69015 0.0
C1493 C 0.86964 0.1059 0.69284 0.0
C1494 C 0.91257 0.13032 0.71677 0.0
C1495 C 0.89863 0.13397 0.74731 0.0
C1496 C 0.86994 0.12302 0.7499 0.0
C1497 C 0.85585 0.10931 0.72337 0.0
C1498 C 0.92075 0.15574 0.83543 0.0
C1499 C 0.9405 0.17891 0.83062 0.0
C1500 C 0.90746 0.14128 0.80879 0.0
C1501 C 0.91355 0.14917 0.7761 0.0
C1502 C 0.93391 0.172 0.77147 0.0
C1503 C 0.9471 0.18648 0.79815 0.0
H1504 H 0.42218 0.11261 0.4506 0.0
H1505 H 0.38029 0.15155 0.3674 0.0
H1506 H 0.38357 0.07583 0.45344 0.0
H1507 H 0.34251 0.11431 0.36896 0.0
H1508 H 0.26201 0.0611 0.39395 0.0
H1509 H 0.30082 0.09756 0.39301 0.0
H1510 H 0.36 0.03484 0.43548 0.0
H1511 H 0.32064 0.99946 0.43837 0.0
C1512 C 0.40508 0.11294 0.43242 0.0
C1513 C 0.40454 0.13524 0.40882 0.0
C1514 C 0.38269 0.09172 0.43397 0.0
C1515 C 0.35908 0.09177 0.41168 0.0
C1516 C 0.35939 0.11356 0.38733 0.0
C1517 C 0.38146 0.13491 0.38612 0.0
C1518 C 0.28319 0.05526 0.40357 0.0
C1519 C 0.28801 0.02701 0.41593 0.0
C1520 C 0.30585 0.07615 0.40257 0.0
C1521 C 0.33432 0.06958 0.41375 0.0
C1522 C 0.33873 0.04142 0.42685 0.0
C1523 C 0.31601 1.02074 0.42818 0.0
H1524 H 0.44811 0.43214 0.43231 0.0
H1525 H 0.38925 0.38122 0.37341 0.0
H1526 H 0.48414 0.39255 0.42943 0.0
H1527 H 0.42446 0.34167 0.37124 0.0
H1528 H 0.50116 0.28021 0.35283 0.0
H1529 H 0.46873 0.32265 0.35146 0.0
H1530 H 0.49416 0.34448 0.4498 0.0
H1531 H 0.52689 0.30239 0.4506 0.0
C1532 C 0.44292 0.41274 0.41838 0.0
C1533 C 0.41545 0.41013 0.40329 0.0
C1534 C 0.46351 0.3897 0.41706 0.0
C1535 C 0.45747 0.36331 0.40034 0.0
C1536 C 0.43042 0.36137 0.3842 0.0
C1537 C 0.40993 0.38421 0.38567 0.0
C1538 C 0.49995 0.29421 0.37406 0.0
C1539 C 0.51706 0.28795 0.40164 0.0
C1540 C 0.48107 0.31856 0.37346 0.0
C1541 C 0.47853 0.33759 0.4005 0.0
C1542 C 0.49558 0.33102 0.42819 0.0
C1543 C 0.51424 0.30654 0.42882 0.0
H1544 H 0.12905 0.46013 0.34078 0.0
H1545 H 0.13417 0.43528 0.44195 0.0
H1546 H 0.1762 0.48356 0.3445 0.0
H1547 H 0.18257 0.45774 0.4455 0.0
H1548 H 0.25208 0.53127 0.45111 0.0
H1549 H 0.20773 0.502 0.44857 0.0
H1550 H 0.22621 0.48181 0.3478 0.0
H1551 H 0.26981 0.51243 0.35038 0.0
C1552 C 0.14037 0.45937 0.36392 0.0
C1553 C 0.1272 0.44597 0.39118 0.0
C1554 C 0.16791 0.47268 0.36598 0.0
C1555 C 0.18378 0.47307 0.3954 0.0
C1556 C 0.17115 0.45861 0.42245 0.0
C1557 C 0.14339 0.44524 0.42036 0.0
C1558 C 0.24666 0.52052 0.42845 0.0
C1559 C 0.26414 0.52501 0.40072 0.0
C1560 C 0.22118 0.50338 0.42698 0.0
C1561 C 0.21256 0.48946 0.39782 0.0
C1562 C 0.23121 0.49262 0.37057 0.0
C1563 C 0.25646 0.51016 0.37199 0.0
H1564 H 0.15963 0.17307 0.39981 0.0
H1565 H 0.08927 0.11232 0.41659 0.0
H1566 H 0.12504 0.21304 0.39662 0.0
H1567 H 0.05418 0.15285 0.41153 0.0
H1568 H 1.00494 0.23884 0.3672 0.0
H1569 H 0.03664 0.19553 0.36788 0.0
H1570 H 0.09029 0.23613 0.44121 0.0
H1571 H 0.05828 0.27876 0.44145 0.0
C1572 C 0.13675 0.16802 0.40282 0.0
C1573 C 0.12767 0.13911 0.40945 0.0
C1574 C 0.11681 0.19118 0.40078 0.0
C1575 C 0.08675 0.18646 0.40431 0.0
C1576 C 0.0772 0.15739 0.4088 0.0
C1577 C 0.09737 0.13406 0.41153 0.0
C1578 C 0.02346 0.23855 0.38354 0.0
C1579 C 0.02892 0.2626 0.40423 0.0
C1580 C 0.04155 0.21356 0.38406 0.0
C1581 C 0.06613 0.21218 0.40461 0.0
C1582 C 0.07168 0.23634 0.42498 0.0
C1583 C 0.05325 0.2609 0.42509 0.0
H1584 H 0.91358 0.94548 0.17866 0.0
H1585 H 0.91897 0.94511 0.07386 0.0
H1586 H 0.867 0.97059 0.17594 0.0
H1587 H 0.87229 0.97116 0.07087 0.0
H1588 H 0.77646 1.00248 0.07597 0.0
H1589 H 0.82089 0.97313 0.07733 0.0
H1590 H 0.84676 1.01637 0.16626 0.0
H1591 H 0.80219 0.04501 0.16519 0.0
C1592 C 0.90468 0.95061 0.15488 0.0
C1593 C 0.9203 0.94319 0.12649 0.0
C1594 C 0.87792 0.96544 0.15329 0.0
C1595 C 0.86562 0.97377 0.1232 0.0
C1596 C 0.88065 0.96521 0.09462 0.0
C1597 C 0.90753 0.95011 0.09625 0.0
C1598 C 0.79153 1.00563 0.09597 0.0
C1599 C 0.7852 0.02607 0.12073 0.0
C1600 C 0.81731 0.98882 0.09663 0.0
C1601 C 0.83783 0.99184 0.12205 0.0
C1602 C 0.83151 1.01255 0.1466 0.0
C1603 C 0.80574 0.02925 0.14598 0.0
H1604 H 0.53897 0.78115 0.16494 0.0
H1605 H 0.51915 0.79472 0.06365 0.0
H1606 H 0.56656 0.82718 0.16586 0.0
H1607 H 0.54591 0.84087 0.06447 0.0
H1608 H 0.56206 0.93844 0.09209 0.0
H1609 H 0.5397 0.89009 0.0886 0.0
H1610 H 0.61067 0.85397 0.14443 0.0
H1611 H 0.6332 0.90274 0.14765 0.0
C1612 C 0.54015 0.79414 0.14294 0.0
C1613 C 0.52545 0.78487 0.11464 0.0
C1614 C 0.55632 0.82042 0.14332 0.0
C1615 C 0.55815 0.83835 0.1154 0.0
C1616 C 0.5445 0.82826 0.08674 0.0
C1617 C 0.52893 0.80176 0.08626 0.0
C1618 C 0.57327 0.92008 0.10302 0.0
C1619 C 0.59973 0.92455 0.11972 0.0
C1620 C 0.56039 0.89224 0.10107 0.0
C1621 C 0.57321 0.8678 0.11623 0.0
C1622 C 0.59996 0.87215 0.13258 0.0
C1623 C 0.61314 0.90007 0.13408 0.0
H1624 H 0.67317 0.65502 0.07471 0.0
H1625 H 0.61511 0.59879 0.12869 0.0
H1626 H 0.7106 0.61764 0.07611 0.0
H1627 H 0.65274 0.56069 0.12911 0.0
H1628 H 0.72011 0.49006 0.09441 0.0
H1629 H 0.68121 0.5264 0.09383 0.0
H1630 H 0.74396 0.59389 0.11507 0.0
H1631 H 0.7828 0.55732 0.11665 0.0
C1632 C 0.66825 0.63476 0.08714 0.0
C1633 C 0.64085 0.63057 0.10218 0.0
C1634 C 0.68996 0.61313 0.08786 0.0
C1635 C 0.68517 0.58606 0.10314 0.0
C1636 C 0.65741 0.58119 0.11704 0.0
C1637 C 0.63566 0.6031 0.11668 0.0
C1638 C 0.7257 0.51259 0.09929 0.0
C1639 C 0.75486 0.52047 0.10583 0.0
C1640 C 0.70322 0.53354 0.09898 0.0
C1641 C 0.70913 0.56333 0.10442 0.0
C1642 C 0.73838 0.57129 0.11046 0.0
C1643 C 0.76081 0.55024 0.11132 0.0
H1644 H 0.03451 0.74096 0.15354 0.0
H1645 H 0.9959 0.77185 0.06421 0.0
H1646 H 1.00453 0.69688 0.15079 0.0
H1647 H 0.96527 0.72863 0.06194 0.0
H1648 H 0.92778 0.63921 0.04715 0.0
H1649 H 0.96214 0.67961 0.05094 0.0
H1650 H 0.95894 0.67413 0.156 0.0
H1651 H 0.92532 0.63263 0.15171 0.0
C1652 C 1.01942 0.73859 0.13344 0.0
C1653 C 1.01785 0.76031 0.10912 0.0
C1654 C 1.00201 0.71313 0.13187 0.0
C1655 C 0.98221 0.70846 0.10598 0.0
C1656 C 0.98051 0.73052 0.08194 0.0
C1657 C 0.99804 0.75575 0.08339 0.0
C1658 C 0.93497 0.64619 0.07106 0.0
C1659 C 0.92398 0.63227 0.09907 0.0
C1660 C 0.95443 0.66988 0.07336 0.0
C1661 C 0.96333 0.68111 0.10385 0.0
C1662 C 0.95308 0.66639 0.13196 0.0
C1663 C 0.93377 0.64235 0.12959 0.0
H1664 H 0.77891 0.99684 0.61633 0.0
H1665 H 0.7182 0.06753 0.63052 0.0
H1666 H 0.73827 0.96254 0.61267 0.0
H1667 H 0.6776 0.03305 0.62762 0.0
H1668 H 0.6129 0.95353 0.64844 0.0
H1669 H 0.65162 0.99054 0.65394 0.0
H1670 H 0.69867 0.95032 0.57496 0.0
H1671 H 0.66018 0.91442 0.56884 0.0
C1672 C 0.75699 1.00522 0.61889 0.0
C1673 C 0.75235 0.03538 0.6236 0.0
C1674 C 0.73345 0.9854 0.61666 0.0
C1675 C 0.7042 0.99472 0.61958 0.0
C1676 C 0.69957 1.02472 0.62539 0.0
C1677 C 0.72311 0.04465 0.62708 0.0
C1678 C 0.63124 0.95284 0.63189 0.0
C1679 C 0.63322 0.93022 0.60858 0.0
C1680 C 0.65368 0.97408 0.63516 0.0
C1681 C 0.679 0.97331 0.61543 0.0
C1682 C 0.68023 0.95143 0.59137 0.0
C1683 C 0.65785 0.93064 0.58785 0.0
H1684 H 0.60126 0.62147 0.62488 0.0
H1685 H 0.65062 0.67887 0.56216 0.0
H1686 H 0.56289 0.65871 0.62862 0.0
H1687 H 0.61338 0.71609 0.56756 0.0
H1688 H 0.55693 0.78779 0.61798 0.0
H1689 H 0.59336 0.74898 0.61349 0.0
H1690 H 0.52558 0.68686 0.59153 0.0
H1691 H 0.48939 0.72592 0.59412 0.0
C1692 C 0.60408 0.64177 0.61176 0.0
C1693 C 0.62981 0.6469 0.59376 0.0
C1694 C 0.58204 0.66329 0.61409 0.0
C1695 C 0.58518 0.6908 0.59891 0.0
C1696 C 0.6104 0.69558 0.58027 0.0
C1697 C 0.632 0.67401 0.57738 0.0
C1698 C 0.54974 0.76603 0.61169 0.0
C1699 C 0.51997 0.76035 0.60633 0.0
C1700 C 0.57069 0.74361 0.60932 0.0
C1701 C 0.56255 0.71457 0.60223 0.0
C1702 C 0.53276 0.70878 0.59737 0.0
C1703 C 0.51192 0.73132 0.59892 0.0
H1704 H 0.91826 0.61367 0.57628 0.0
H1705 H 0.92635 0.59363 0.67851 0.0
H1706 H 0.87151 0.58726 0.57481 0.0
H1707 H 0.88038 0.56735 0.67706 0.0
H1708 H 0.81783 0.49161 0.65591 0.0
H1709 H 0.86135 0.52194 0.65688 0.0
H1710 H 0.81997 0.58371 0.59248 0.0
H1711 H 0.77618 0.55321 0.59155 0.0
C1712 C 0.90994 0.60416 0.59857 0.0
C1713 C 0.92663 0.60569 0.6274 0.0
C1714 C 0.88307 0.5888 0.59775 0.0
C1715 C 0.87205 0.57437 0.62569 0.0
C1716 C 0.88816 0.57725 0.65473 0.0
C1717 C 0.9147 0.59261 0.65559 0.0
C1718 C 0.81768 0.51173 0.64213 0.0
C1719 C 0.79291 0.51965 0.62381 0.0
C1720 C 0.84288 0.52936 0.64273 0.0
C1721 C 0.84462 0.55566 0.62482 0.0
C1722 C 0.81988 0.56364 0.60643 0.0
C1723 C 0.79449 0.54609 0.6061 0.0
H1724 H 0.95782 0.94148 0.59216 0.0
H1725 H 0.88982 0.87847 0.61026 0.0
H1726 H 0.99446 0.90246 0.59829 0.0
H1727 H 0.9259 0.83997 0.61497 0.0
H1728 H 0.99343 0.77369 0.57608 0.0
H1729 H 0.95973 0.81491 0.57489 0.0
H1730 H 1.01622 0.86323 0.6392 0.0
H1731 H 0.0499 0.82145 0.64101 0.0
C1732 C 0.95056 0.91956 0.5978 0.0
C1733 C 0.92046 0.91343 0.59995 0.0
C1734 C 0.97165 0.89705 0.60116 0.0
C1735 C 0.96328 0.86768 0.60645 0.0
C1736 C 0.93336 0.86199 0.61011 0.0
C1737 C 0.91252 0.88432 0.6073 0.0
C1738 C 0.99877 0.79298 0.59014 0.0
C1739 C 0.0245 0.79383 0.60886 0.0
C1740 C 0.97929 0.81675 0.58951 0.0
C1741 C 0.98498 0.84267 0.60699 0.0
C1742 C 1.011 0.84383 0.6253 0.0
C1743 C 0.03026 0.81968 0.62653 0.0
H1744 H 0.11892 0.10574 0.94563 0.0
H1745 H 0.12129 0.09685 0.8412 0.0
H1746 H 0.16565 0.0799 0.94961 0.0
H1747 H 0.16801 0.07207 0.84475 0.0
H1748 H 0.2338 0.99922 0.85993 0.0
H1749 H 0.18921 0.02775 0.85756 0.0
H1750 H 0.21657 0.07647 0.94232 0.0
H1751 H 0.26097 0.04714 0.9451 0.0
C1752 C 0.12974 0.09896 0.92344 0.0
C1753 C 0.11611 0.10349 0.8931 0.0
C1754 C 0.15667 0.08395 0.92565 0.0
C1755 C 0.17095 0.07308 0.89754 0.0
C1756 C 0.15776 0.07902 0.86719 0.0
C1757 C 0.13092 0.09371 0.86506 0.0
C1758 C 0.23055 1.01614 0.87797 0.0
C1759 C 0.25152 1.02081 0.90249 0.0
C1760 C 0.20476 0.0328 0.87656 0.0
C1761 C 0.19881 0.05505 0.89953 0.0
C1762 C 0.21979 0.05959 0.92423 0.0
C1763 C 0.24558 0.04277 0.92571 0.0
H1764 H 0.44483 0.12029 0.94869 0.0
H1765 H 0.43147 0.14073 0.84735 0.0
H1766 H 0.47187 0.16626 0.95566 0.0
H1767 H 0.4581 0.18665 0.8542 0.0
H1768 H 0.55298 0.22739 0.93905 0.0
H1769 H 0.52007 0.18557 0.93692 0.0
H1770 H 0.45899 0.23619 0.88053 0.0
H1771 H 0.49203 0.27842 0.88309 0.0
C1772 C 0.44693 0.13495 0.92812 0.0
C1773 C 0.43558 0.12683 0.89756 0.0
C1774 C 0.46278 0.16122 0.93196 0.0
C1775 C 0.4674 0.18043 0.90547 0.0
C1776 C 0.45487 0.17281 0.8753 0.0
C1777 C 0.43951 0.14639 0.87136 0.0
C1778 C 0.53231 0.22987 0.92664 0.0
C1779 C 0.52523 0.25654 0.91144 0.0
C1780 C 0.5133 0.20577 0.92549 0.0
C1781 C 0.48661 0.20721 0.90864 0.0
C1782 C 0.4793 0.23406 0.89371 0.0
C1783 C 0.49816 0.25844 0.89541 0.0
H1784 H 0.42983 0.45034 0.94713 0.0
H1785 H 0.38675 0.40575 0.86835 0.0
H1786 H 0.39051 0.48643 0.94855 0.0
H1787 H 0.34819 0.44218 0.86845 0.0
H1788 H 0.26654 0.49345 0.89406 0.0
H1789 H 0.30674 0.45864 0.8933 0.0
H1790 H 0.36492 0.52574 0.9287 0.0
H1791 H 0.32429 0.55965 0.93141 0.0
C1792 C 0.41237 0.44868 0.92948 0.0
C1793 C 0.41172 0.42505 0.90755 0.0
C1794 C 0.38953 0.46946 0.93026 0.0
C1795 C 0.36531 0.46752 0.9089 0.0
C1796 C 0.36557 0.44444 0.88608 0.0
C1797 C 0.38811 0.42358 0.88563 0.0
C1798 C 0.28782 0.50068 0.90208 0.0
C1799 C 0.29189 0.52968 0.91253 0.0
C1800 C 0.31127 0.48071 0.9012 0.0
C1801 C 0.33984 0.48894 0.91056 0.0
C1802 C 0.34362 0.51792 0.92155 0.0
C1803 C 0.32013 0.53772 0.92277 0.0
H1804 H 0.15271 0.37924 0.88686 0.0
H1805 H 0.08801 0.44071 0.91981 0.0
H1806 H 0.11601 0.34115 0.88392 0.0
H1807 H 0.05065 0.40219 0.91612 0.0
H1808 H 0.98725 0.32753 0.87971 0.0
H1809 H 0.02215 0.36809 0.8803 0.0
H1810 H 0.08741 0.31091 0.92065 0.0
H1811 H 0.05266 0.27056 0.92024 0.0
C1812 C 0.13059 0.38481 0.89354 0.0
C1813 C 0.12385 0.41338 0.90423 0.0
C1814 C 0.10935 0.36268 0.89188 0.0
C1815 C 0.08012 0.368 0.90037 0.0
C1816 C 0.07284 0.39695 0.90939 0.0
C1817 C 0.09434 0.41923 0.91138 0.0
C1818 C 1.00908 0.32346 0.88859 0.0
C1819 C 1.01687 0.29529 0.8997 0.0
C1820 C 0.02915 0.34697 0.88917 0.0
C1821 C 0.05798 0.34317 0.90039 0.0
C1822 C 0.06571 0.31496 0.91138 0.0
C1823 C 0.04558 0.29162 0.91125 0.0
H1824 H 0.7082 0.25628 0.43153 0.0
H1825 H 0.76569 0.32715 0.40543 0.0
H1826 H 0.74218 0.24069 0.47319 0.0
H1827 H 0.80012 0.31109 0.446 0.0
H1828 H 0.87216 0.2697 0.48387 0.0
H1829 H 0.82546 0.29367 0.48945 0.0
H1830 H 0.78301 0.21396 0.45844 0.0
H1831 H 0.82943 0.18927 0.45745 0.0
C1832 C 0.72776 0.26898 0.43508 0.0
C1833 C 0.73532 0.29163 0.41351 0.0
C1834 C 0.74734 0.25996 0.45903 0.0
C1835 C 0.77489 0.27319 0.4613 0.0
C1836 C 0.77971 0.2994 0.44417 0.0
C1837 C 0.76008 0.30849 0.42038 0.0
C1838 C 0.85269 0.25687 0.48042 0.0
C1839 C 0.85441 0.22771 0.46995 0.0
C1840 C 0.82585 0.27074 0.48304 0.0
C1841 C 0.80039 0.25622 0.4731 0.0
C1842 C 0.80191 0.22601 0.46658 0.0
C1843 C 0.82871 0.21177 0.46556 0.0
H1844 H 0.29852 0.71158 0.4415 0.0
H1845 H 0.23257 0.77842 0.43142 0.0
H1846 H 0.32702 0.74381 0.47435 0.0
H1847 H 0.26288 0.81172 0.46205 0.0
H1848 H 0.3214 0.87762 0.4655 0.0
H1849 H 0.29852 0.83686 0.49425 0.0
H1850 H 0.3512 0.77727 0.43842 0.0
H1851 H 0.3748 0.81716 0.4118 0.0
C1852 C 0.28942 0.73278 0.4469 0.0
C1853 C 0.26429 0.74322 0.43108 0.0
C1854 C 0.30614 0.75151 0.46594 0.0
C1855 C 0.29868 0.78115 0.4684 0.0
C1856 C 0.27027 0.78941 0.45934 0.0
C1857 C 0.25305 0.7704 0.44097 0.0
C1858 C 0.32963 0.85576 0.46148 0.0
C1859 C 0.3488 0.85022 0.43541 0.0
C1860 C 0.3163 0.83242 0.47772 0.0
C1861 C 0.32209 0.80367 0.46777 0.0
C1862 C 0.34609 0.79884 0.44706 0.0
C1863 C 0.35973 0.82202 0.43139 0.0
H1864 H 0.34029 0.746 0.09851 0.0
H1865 H 0.28042 0.8049 0.14623 0.0
H1866 H 0.30745 0.7416 0.05292 0.0
H1867 H 0.24753 0.80026 0.10051 0.0
H1868 H 0.17873 0.77446 0.0477 0.0
H1869 H 0.22625 0.79683 0.04855 0.0
H1870 H 0.26503 0.7117 0.06119 0.0
H1871 H 0.21777 0.68912 0.0568 0.0
C1872 C 0.32046 0.7585 0.09926 0.0
C1873 C 0.31201 0.774 0.12742 0.0
C1874 C 0.30171 0.75618 0.07269 0.0
C1875 C 0.27418 0.76927 0.0739 0.0
C1876 C 0.26818 0.78906 0.09925 0.0
C1877 C 0.28684 0.79127 0.12591 0.0
C1878 C 0.19743 0.76027 0.04815 0.0
C1879 C 0.19426 0.72997 0.0526 0.0
C1880 C 0.22481 0.77322 0.04904 0.0
C1881 C 0.24939 0.7562 0.05599 0.0
C1882 C 0.24669 0.72556 0.05545 0.0
C1883 C 0.21932 0.71251 0.05338 0.0
H1884 H 0.69821 0.28581 0.12553 0.0
H1885 H 0.74668 0.34942 0.07024 0.0
H1886 H 0.71834 0.24721 0.09215 0.0
H1887 H 0.76758 0.31049 0.03696 0.0
H1888 H 0.83645 0.23463 0.06169 0.0
H1889 H 0.80468 0.27697 0.05893 0.0
H1890 H 0.7305 0.22044 0.04395 0.0
H1891 H 0.76194 0.17849 0.04744 0.0
C1892 C 0.71208 0.2917 0.10521 0.0
C1893 C 0.72169 0.32048 0.10107 0.0
C1894 C 0.7237 0.26951 0.08597 0.0
C1895 C 0.7452 0.27572 0.06253 0.0
C1896 C 0.75154 0.30497 0.0553 0.0
C1897 C 0.73962 0.32721 0.07431 0.0
C1898 C 0.8136 0.23125 0.05636 0.0
C1899 C 0.80175 0.20299 0.05534 0.0
C1900 C 0.79529 0.2556 0.05471 0.0
C1901 C 0.76491 0.25197 0.05194 0.0
C1902 C 0.75372 0.22393 0.04656 0.0
C1903 C 0.77192 0.19976 0.04832 0.0
H1904 H 0.24434 0.83038 0.54813 0.0
H1905 H 0.18571 0.75691 0.54053 0.0
H1906 H 0.28536 0.79714 0.5487 0.0
H1907 H 0.22667 0.72377 0.53974 0.0
H1908 H 0.29079 0.69461 0.62433 0.0
H1909 H 0.25307 0.71299 0.58854 0.0
H1910 H 0.31801 0.7589 0.53208 0.0
H1911 H 0.35587 0.73919 0.56701 0.0
C1912 C 0.24015 0.80729 0.54496 0.0
C1913 C 0.21155 0.79641 0.54505 0.0
C1914 C 0.2638 0.78808 0.54518 0.0
C1915 C 0.25924 0.75764 0.54517 0.0
C1916 C 0.23088 0.74704 0.54055 0.0
C1917 C 0.20731 0.76618 0.54082 0.0
C1918 C 0.29717 0.70707 0.60305 0.0
C1919 C 0.32606 0.71624 0.59899 0.0
C1920 C 0.27549 0.71778 0.58244 0.0
C1921 C 0.2824 0.73798 0.55769 0.0
C1922 C 0.31184 0.74356 0.55086 0.0
C1923 C 0.33355 0.73235 0.57103 0.0
H1924 H 0.83081 0.28961 0.59451 0.0
H1925 H 0.79749 0.20576 0.56453 0.0
H1926 H 0.79254 0.3131 0.56404 0.0
H1927 H 0.75994 0.22911 0.533 0.0
H1928 H 0.72066 0.35482 0.55665 0.0
H1929 H 0.75646 0.32779 0.52587 0.0
H1930 H 0.72015 0.24725 0.56271 0.0
H1931 H 0.68362 0.27416 0.592 0.0
C1932 C 0.81641 0.27616 0.57994 0.0
C1933 C 0.81657 0.24573 0.58308 0.0
C1934 C 0.7944 0.28968 0.56202 0.0
C1935 C 0.77231 0.27295 0.547 0.0
C1936 C 0.77597 0.24265 0.54513 0.0
C1937 C 0.79772 0.2292 0.56327 0.0
C1938 C 0.71907 0.3313 0.55651 0.0
C1939 C 0.70024 0.31667 0.57815 0.0
C1940 C 0.73975 0.31575 0.53882 0.0
C1941 C 0.74268 0.28565 0.54409 0.0
C1942 C 0.71945 0.27065 0.55916 0.0
C1943 C 0.69836 0.28618 0.57636 0.0
H1944 H 0.7903 0.31614 0.97059 0.0
H1945 H 0.85359 0.24644 0.97379 0.0
H1946 H 0.75139 0.2804 0.96946 0.0
H1947 H 0.81453 0.21063 0.97319 0.0
H1948 H 0.74927 0.18491 0.88618 0.0
H1949 H 0.78728 0.2021 0.92249 0.0
H1950 H 0.72214 0.23841 0.98675 0.0
H1951 H 0.68408 0.22083 0.95033 0.0
C1952 C 0.79595 0.29325 0.97261 0.0
C1953 C 0.82512 0.28419 0.97132 0.0
C1954 C 0.77355 0.27262 0.97199 0.0
C1955 C 0.77998 0.2426 0.97022 0.0
C1956 C 0.809 0.23359 0.97361 0.0
C1957 C 0.83137 0.2542 0.97415 0.0
C1958 C 0.74303 0.19486 0.9091 0.0
C1959 C 0.71393 0.20222 0.91513 0.0
C1960 C 0.76485 0.20483 0.93002 0.0
C1961 C 0.75773 0.22222 0.95719 0.0
C1962 C 0.72832 0.22536 0.96587 0.0
C1963 C 0.70652 0.21521 0.94506 0.0
H1964 H 0.28153 0.86768 0.98276 0.0
H1965 H 0.20988 0.80819 0.96737 0.0
H1966 H 0.31451 0.82703 0.98936 0.0
H1967 H 0.24327 0.76734 0.97191 0.0
H1968 H 0.30245 0.69726 0.9614 0.0
H1969 H 0.28041 0.73532 0.99484 0.0
H1970 H 0.33005 0.80033 0.94247 0.0
H1971 H 0.3515 0.76253 0.90903 0.0
C1972 C 0.27249 0.84598 0.98212 0.0
C1973 C 0.24302 0.84137 0.97416 0.0
C1974 C 0.29156 0.82256 0.98565 0.0
C1975 C 0.28176 0.79397 0.98031 0.0
C1976 C 0.25166 0.78911 0.97621 0.0
C1977 C 0.23242 0.81262 0.97342 0.0
C1978 C 0.30948 0.71964 0.95808 0.0
C1979 C 0.32783 0.72715 0.93192 0.0
C1980 C 0.29685 0.74141 0.9772 0.0
C1981 C 0.30273 0.77091 0.97064 0.0
C1982 C 0.32484 0.77785 0.94812 0.0
C1983 C 0.33727 0.75611 0.92883 0.0
H1984 H 0.62926 0.16568 0.47567 0.0
H1985 H 0.6902 0.21085 0.41406 0.0
H1986 H 0.66868 0.14118 0.50351 0.0
H1987 H 0.73065 0.18687 0.44314 0.0
H1988 H 0.79366 0.16242 0.5294 0.0
H1989 H 0.75629 0.18419 0.49497 0.0
H1990 H 0.70629 0.10465 0.50059 0.0
H1991 H 0.74361 0.08316 0.53635 0.0
C1992 C 0.6511 0.1702 0.46757 0.0
C1993 C 0.65601 0.19032 0.44206 0.0
C1994 C 0.67405 0.15599 0.48384 0.0
C1995 C 0.70333 0.16141 0.47574 0.0
C1996 C 0.70854 0.18193 0.45046 0.0
C1997 C 0.68528 0.19599 0.4338 0.0
C1998 C 0.77496 0.14927 0.52285 0.0
C1999 C 0.7719 0.12087 0.53585 0.0
C2000 C 0.75346 0.16183 0.50275 0.0
C2001 C 0.72786 0.14655 0.4946 0.0
C2002 C 0.72538 0.11752 0.50641 0.0
C2003 C 0.74707 0.10486 0.5266 0.0
H2004 H 0.38941 0.80054 0.5296 0.0
H2005 H 0.46924 0.75164 0.53483 0.0
H2006 H 0.36806 0.7627 0.49527 0.0
H2007 H 0.44768 0.71344 0.50007 0.0
H2008 H 0.37771 0.63707 0.48363 0.0
H2009 H 0.40363 0.67685 0.51084 0.0
H2010 H 0.37528 0.73604 0.43592 0.0
H2011 H 0.34827 0.69626 0.40915 0.0
C2012 C 0.40291 0.78236 0.52205 0.0
C2013 C 0.43156 0.77991 0.53393 0.0
C2014 C 0.39052 0.76046 0.5023 0.0
C2015 C 0.40604 0.73498 0.4941 0.0
C2016 C 0.435 0.73276 0.50549 0.0
C2017 C 0.44759 0.75493 0.52499 0.0
C2018 C 0.37702 0.65853 0.47278 0.0
C2019 C 0.36079 0.66321 0.44404 0.0
C2020 C 0.39195 0.68147 0.4885 0.0
C2021 C 0.39126 0.71011 0.47606 0.0
C2022 C 0.37539 0.71472 0.44701 0.0
C2023 C 0.36007 0.69177 0.43145 0.0
H2024 H 0.91255 0.41547 0.44147 0.0
H2025 H 0.87201 0.33257 0.46167 0.0
H2026 H 0.87267 0.44062 0.46905 0.0
H2027 H 0.83226 0.3574 0.48943 0.0
H2028 H 0.75185 0.40706 0.51807 0.0
H2029 H 0.79053 0.38553 0.48553 0.0
H2030 H 0.84955 0.45284 0.51852 0.0
H2031 H 0.80997 0.47491 0.55036 0.0
C2032 C 0.89519 0.40251 0.45187 0.0
C2033 C 0.89572 0.37183 0.44891 0.0
C2034 C 0.87214 0.41702 0.46789 0.0
C2035 C 0.84864 0.40142 0.48172 0.0
C2036 C 0.84925 0.37064 0.47866 0.0
C2037 C 0.87225 0.35619 0.46254 0.0
C2038 C 0.77286 0.41782 0.51761 0.0
C2039 C 0.77748 0.44314 0.53641 0.0
C2040 C 0.79542 0.40508 0.49931 0.0
C2041 C 0.82382 0.41687 0.49937 0.0
C2042 C 0.82816 0.44299 0.51728 0.0
C2043 C 0.80533 0.45593 0.53548 0.0
H2044 H 0.0817 0.80838 0.53963 0.0
H2045 H 0.14485 0.74515 0.50803 0.0
H2046 H 0.10443 0.84533 0.50479 0.0
H2047 H 0.16762 0.78173 0.47268 0.0
H2048 H 0.2222 0.8636 0.44407 0.0
H2049 H 0.19759 0.82381 0.47288 0.0
H2050 H 0.11443 0.8638 0.45249 0.0
H2051 H 0.13898 0.90292 0.42341 0.0
C2052 C 0.09999 0.80215 0.52449 0.0
C2053 C 0.11148 0.77378 0.52671 0.0
C2054 C 0.11322 0.82342 0.50443 0.0
C2055 C 0.1383 0.81698 0.48569 0.0
C2056 C 0.14884 0.78806 0.48695 0.0
C2057 C 0.13563 0.7669 0.5071 0.0
C2058 C 0.19863 0.86372 0.44534 0.0
C2059 C 0.18279 0.88711 0.43176 0.0
C2060 C 0.18436 0.84075 0.46198 0.0
C2061 C 0.15371 0.84044 0.46586 0.0
C2062 C 0.13796 0.86334 0.45116 0.0
C2063 C 0.15218 0.88604 0.43435 0.0
H2064 H 0.23555 0.96907 0.96977 0.0
H2065 H 0.29769 0.91054 0.01317 0.0
H2066 H 0.19672 0.94749 1.00276 0.0
H2067 H 0.25927 0.88933 0.0471 0.0
H2068 H 0.17835 0.83204 0.06812 0.0
H2069 H 0.21903 0.85734 0.04254 0.0
H2070 H 0.17374 0.93936 0.05348 0.0
H2071 H 0.1334 0.91395 0.07969 0.0
C2072 C 0.24106 0.95211 0.9871 0.0
C2073 C 0.26967 0.9413 0.98862 0.0
C2074 C 0.21873 0.93962 1.00615 0.0
C2075 C 0.22442 0.91614 0.02759 0.0
C2076 C 0.25358 0.90679 0.0305 0.0
C2077 C 0.27579 0.91918 0.01128 0.0
C2078 C 0.1773 0.85554 0.06591 0.0
C2079 C 0.15235 0.8708 0.07632 0.0
C2080 C 0.20077 0.87021 0.05099 0.0
C2081 C 0.20003 0.90068 0.04556 0.0
C2082 C 0.17521 0.91593 0.05649 0.0
C2083 C 0.15189 0.90127 0.07164 0.0
H2084 H 0.64916 0.13273 0.04228 0.0
H2085 H 0.69198 0.19174 0.1086 0.0
H2086 H 0.62634 0.17409 0.01494 0.0
H2087 H 0.66962 0.23315 0.0806 0.0
H2088 H 0.65773 0.29357 0.98575 0.0
H2089 H 0.67568 0.25517 0.02216 0.0
H2090 H 0.58977 0.21712 0.02491 0.0
H2091 H 0.57161 0.2564 0.98937 0.0
C2092 C 0.65368 0.15439 0.05142 0.0
C2093 C 0.67311 0.15843 0.07778 0.0
C2094 C 0.64048 0.17827 0.03556 0.0
C2095 C 0.6464 0.20717 0.04521 0.0
C2096 C 0.66515 0.21129 0.07197 0.0
C2097 C 0.67811 0.18738 0.08806 0.0
C2098 C 0.64239 0.27772 0.99526 0.0
C2099 C 0.61301 0.27862 0.98536 0.0
C2100 C 0.65275 0.25549 0.01592 0.0
C2101 C 0.63428 0.2328 0.02646 0.0
C2102 C 0.60467 0.23412 0.01726 0.0
C2103 C 0.59412 0.25689 0.99728 0.0
H2104 H 0.28994 0.57683 0.99252 0.0
H2105 H 0.25026 0.66185 0.98791 0.0
H2106 H 0.3283 0.59656 0.02817 0.0
H2107 H 0.28837 0.68147 0.0235 0.0
H2108 H 0.35537 0.70014 0.10954 0.0
H2109 H 0.31258 0.67839 0.08244 0.0
H2110 H 0.36936 0.63398 0.01516 0.0
H2111 H 0.41127 0.65745 0.04006 0.0
C2112 C 0.28853 0.59936 1.00043 0.0
C2113 C 0.26629 0.61743 0.98817 0.0
C2114 C 0.31085 0.61087 0.02044 0.0
C2115 C 0.31146 0.64074 0.02914 0.0
C2116 C 0.28831 0.65835 0.01825 0.0
C2117 C 0.26632 0.64699 0.99786 0.0
C2118 C 0.35865 0.68633 0.0885 0.0
C2119 C 0.38712 0.68113 0.077 0.0
C2120 C 0.33411 0.67344 0.07321 0.0
C2121 C 0.33734 0.65404 0.04665 0.0
C2122 C 0.36582 0.6483 0.03579 0.0
C2123 C 0.39009 0.6618 0.05037 0.0
H2124 H 0.9067 0.40149 0.08987 0.0
H2125 H 0.82333 0.36023 0.07569 0.0
H2126 H 0.93019 0.36311 0.05865 0.0
H2127 H 0.84675 0.32134 0.04456 0.0
H2128 H 0.89776 0.24455 1.00312 0.0
H2129 H 0.87618 0.28041 0.04 0.0
H2130 H 0.93853 0.34461 1.00682 0.0
H2131 H 0.96027 0.30816 0.97064 0.0
C2132 C 0.8932 0.38443 0.07971 0.0
C2133 C 0.86281 0.38484 0.0846 0.0
C2134 C 0.90679 0.36214 0.06166 0.0
C2135 C 0.89063 0.33899 0.04794 0.0
C2136 C 0.86032 0.33857 0.05432 0.0
C2137 C 0.84668 0.36108 0.07227 0.0
C2138 C 0.90704 0.26627 1.00412 0.0
C2139 C 0.93086 0.27337 0.98407 0.0
C2140 C 0.8945 0.28707 0.02517 0.0
C2141 C 0.90521 0.31594 0.02677 0.0
C2142 C 0.9297 0.3227 1.00714 0.0
C2143 C 0.94238 0.30173 0.98628 0.0
H2144 H 0.35063 0.84429 0.60791 0.0
H2145 H 0.40924 0.89276 0.54644 0.0
H2146 H 0.30901 0.86781 0.58077 0.0
H2147 H 0.36849 0.91622 0.51983 0.0
H2148 H 0.29462 0.97234 0.48843 0.0
H2149 H 0.33131 0.9514 0.52472 0.0
H2150 H 0.28066 0.87221 0.53166 0.0
H2151 H 0.24439 0.89321 0.49465 0.0
C2152 C 0.35479 0.86014 0.58889 0.0
C2153 C 0.38373 0.86727 0.5804 0.0
C2154 C 0.33081 0.87367 0.57316 0.0
C2155 C 0.33496 0.89479 0.54838 0.0
C2156 C 0.36394 0.90117 0.53952 0.0
C2157 C 0.38765 0.88767 0.55507 0.0
C2158 C 0.29079 0.95088 0.49868 0.0
C2159 C 0.26608 0.93486 0.4892 0.0
C2160 C 0.31221 0.93848 0.51906 0.0
C2161 C 0.30974 0.90952 0.53076 0.0
C2162 C 0.28382 0.89434 0.52317 0.0
C2163 C 0.26267 0.90658 0.50221 0.0
H2164 H 0.69804 0.40068 0.52669 0.0
H2165 H 0.63604 0.3972 0.60522 0.0
H2166 H 0.67286 0.36069 0.49921 0.0
H2167 H 0.61045 0.35671 0.57767 0.0
H2168 H 0.56286 0.29714 0.49539 0.0
H2169 H 0.58179 0.33858 0.52753 0.0
H2170 H 0.66946 0.30828 0.51081 0.0
H2171 H 0.65076 0.26758 0.47919 0.0
C2172 C 0.67877 0.39148 0.53794 0.0
C2173 C 0.66946 0.40171 0.56844 0.0
C2174 C 0.66433 0.36838 0.52226 0.0
C2175 C 0.63996 0.35465 0.53654 0.0
C2176 C 0.62922 0.36644 0.56597 0.0
C2177 C 0.64385 0.38969 0.58177 0.0
C2178 C 0.58606 0.2988 0.49966 0.0
C2179 C 0.60521 0.27885 0.48467 0.0
C2180 C 0.597 0.32278 0.5178 0.0
C2181 C 0.62731 0.32741 0.5212 0.0
C2182 C 0.64609 0.30611 0.5082 0.0
C2183 C 0.63527 0.28237 0.49037 0.0
H2184 H 0.29516 0.65099 0.49557 0.0
H2185 H 0.25173 0.5677 0.49171 0.0
H2186 H 0.2567 0.67006 0.53082 0.0
H2187 H 0.21236 0.58715 0.52597 0.0
H2188 H 0.1322 0.65408 0.53621 0.0
H2189 H 0.17352 0.62787 0.51289 0.0
H2190 H 0.22973 0.664 0.58668 0.0
H2191 H 0.18804 0.68889 0.61111 0.0
C2192 C 0.27796 0.63633 0.50336 0.0
C2193 C 0.27692 0.60757 0.49118 0.0
C2194 C 0.25567 0.64741 0.52333 0.0
C2195 C 0.23112 0.63033 0.53103 0.0
C2196 C 0.23083 0.60101 0.52041 0.0
C2197 C 0.25368 0.58964 0.50119 0.0
C2198 C 0.15315 0.6561 0.54803 0.0
C2199 C 0.15652 0.67441 0.57548 0.0
C2200 C 0.17699 0.641 0.53451 0.0
C2201 C 0.20518 0.64395 0.54765 0.0
C2202 C 0.2085 0.66159 0.57551 0.0
C2203 C 0.18453 0.67624 0.58938 0.0
H2204 H 0.83768 0.18212 0.55796 0.0
H2205 H 0.91686 0.143 0.59228 0.0
H2206 H 0.86475 0.22255 0.53519 0.0
H2207 H 0.94505 0.18198 0.56521 0.0
H2208 H 0.97693 0.24147 0.47382 0.0
H2209 H 0.95646 0.20282 0.50866 0.0
H2210 H 0.89483 0.26457 0.54787 0.0
H2211 H 0.9148 0.30263 0.51252 0.0
C2212 C 0.86092 0.18237 0.56094 0.0
C2213 C 0.8746 0.1597 0.578 0.0
C2214 C 0.87674 0.20535 0.54711 0.0
C2215 C 0.90734 0.20585 0.54791 0.0
C2216 C 0.9215 0.18251 0.56394 0.0
C2217 C 0.90532 0.15999 0.57929 0.0
C2218 C 0.95965 0.24694 0.49071 0.0
C2219 C 0.94765 0.27523 0.49059 0.0
C2220 C 0.94782 0.22473 0.51067 0.0
C2221 C 0.92362 0.23026 0.53097 0.0
C2222 C 0.91311 0.25918 0.53234 0.0
C2223 C 0.92476 0.28119 0.51228 0.0
H2224 H 0.85369 0.1812 0.90622 0.0
H2225 H 0.91285 0.15905 0.98377 0.0
H2226 H 0.81446 0.15578 0.93459 0.0
H2227 H 0.8742 0.13323 0.01182 0.0
H2228 H 0.80301 0.07635 0.0533 0.0
H2229 H 0.84181 0.09473 0.01787 0.0
H2230 H 0.78248 0.15904 0.97879 0.0
H2231 H 0.74373 0.13963 0.01334 0.0
C2232 C 0.85838 0.17122 0.92943 0.0
C2233 C 0.88664 0.17276 0.94264 0.0
C2234 C 0.83576 0.15644 0.94585 0.0
C2235 C 0.84053 0.1427 0.97621 0.0
C2236 C 0.86915 0.14336 0.98871 0.0
C2237 C 0.89165 0.1582 0.97237 0.0
C2238 C 0.79816 0.09392 0.03648 0.0
C2239 C 0.77033 0.10666 0.03626 0.0
C2240 C 0.82057 0.10487 0.0164 0.0
C2241 C 0.81583 0.12887 0.99536 0.0
C2242 C 0.78735 0.14045 0.99411 0.0
C2243 C 0.765 0.12942 0.01413 0.0
H2244 H 0.38992 0.91916 0.98462 0.0
H2245 H 0.35718 0.86008 0.91166 0.0
H2246 H 0.41573 0.87904 0.01069 0.0
H2247 H 0.38197 0.81952 0.93854 0.0
H2248 H 0.40001 0.75181 0.02316 0.0
H2249 H 0.37895 0.79056 0.98948 0.0
H2250 H 0.45538 0.84343 1.0059 0.0
H2251 H 0.47621 0.80453 0.03944 0.0
C2252 C 0.3882 0.89768 0.97386 0.0
C2253 C 0.37067 0.89315 0.94604 0.0
C2254 C 0.40308 0.87445 0.98902 0.0
C2255 C 0.4008 0.84563 0.97719 0.0
C2256 C 0.38381 0.84115 0.94899 0.0
C2257 C 0.36926 0.86451 0.93358 0.0
C2258 C 0.41277 0.7713 0.0186 0.0
C2259 C 0.44029 0.77458 0.03336 0.0
C2260 C 0.40061 0.79368 0.99934 0.0
C2261 C 0.41528 0.82045 0.99479 0.0
C2262 C 0.44323 0.82333 0.00882 0.0
C2263 C 0.45555 0.80072 0.02767 0.0
H2264 H 0.76427 0.46935 0.0139 0.0
H2265 H 0.78248 0.38249 0.04805 0.0
H2266 H 0.72906 0.44938 0.97465 0.0
H2267 H 0.74723 0.36245 0.0101 0.0
H2268 H 0.68834 0.32715 0.93236 0.0
H2269 H 0.72983 0.34886 0.96039 0.0
H2270 H 0.68251 0.42994 0.96966 0.0
H2271 H 0.64208 0.40867 0.93973 0.0
C2272 C 0.76133 0.44593 0.01249 0.0
C2273 C 0.77642 0.42755 0.03416 0.0
C2274 C 0.74063 0.43434 0.99032 0.0
C2275 C 0.73444 0.404 0.98907 0.0
C2276 C 0.75097 0.38576 0.00966 0.0
C2277 C 0.77137 0.39731 0.03172 0.0
C2278 C 0.68689 0.34977 0.93989 0.0
C2279 C 0.66123 0.36582 0.93399 0.0
C2280 C 0.71077 0.3623 0.95652 0.0
C2281 C 0.70996 0.39139 0.9682 0.0
C2282 C 0.68461 0.40767 0.96121 0.0
C2283 C 0.66089 0.39519 0.94432 0.0
H2284 H 0.07208 0.74539 0.0338 0.0
H2285 H 0.14379 0.80348 0.0153 0.0
H2286 H 0.0936 0.70914 0.99746 0.0
H2287 H 0.16644 0.76704 0.9802 0.0
H2288 H 0.20175 0.6978 0.91002 0.0
H2289 H 0.17528 0.73764 0.93671 0.0
H2290 H 0.12749 0.67424 0.9936 0.0
H2291 H 0.15428 0.63563 0.96778 0.0
C2292 C 0.09225 0.75063 0.02139 0.0
C2293 C 0.10617 0.77737 0.02754 0.0
C2294 C 0.10513 0.72949 1.00089 0.0
C2295 C 0.13263 0.7342 0.98598 0.0
C2296 C 0.14542 0.76197 0.99065 0.0
C2297 C 0.13241 0.78309 0.01104 0.0
C2298 C 0.18546 0.69248 0.92815 0.0
C2299 C 0.17955 0.66303 0.93566 0.0
C2300 C 0.17016 0.71547 0.94376 0.0
C2301 C 0.14848 0.70987 0.96763 0.0
C2302 C 0.14301 0.68028 0.97499 0.0
C2303 C 0.15839 0.6576 0.95971 0.0
loop_
_geom_bond_atom_site_label_1
_geom_bond_atom_site_label_2
_geom_bond_distance
_geom_bond_site_symmetry_2
_ccdc_geom_bond_type
C0 C2 1.422 . S
C0 C4 1.415 . S
C0 N6 1.369 . S
C1 C2 1.421 . S
C1 C3 1.417 . S
C1 C13 1.422 . S
C2 C0 1.422 . S
C2 C1 1.421 . S
C2 N12 1.359 . S
C3 C1 1.417 . S
C3 C5 1.329 . S
C3 H22 0.930 . S
C4 C0 1.415 . S
C4 C5 1.437 . S
C4 C8 1.413 . S
C5 C3 1.329 . S
C5 C4 1.437 . S
C5 H27 0.929 . S
N6 C0 1.369 . S
N6 C7 1.338 . S
N6 Gd11 2.622 . S
C7 N6 1.338 . S
C7 C9 1.378 . S
C7 H19 0.929 . S
C8 C4 1.413 . S
C8 C9 1.348 . S
C8 H24 0.931 . S
C9 C7 1.378 . S
C9 C8 1.348 . S
C9 H25 0.930 . S
Gd10 N30 2.622 . S
Gd10 N37 2.570 . S
Gd10 O44 2.353 . S
Gd10 O45 2.468 . S
Gd10 O46 2.427 . S
Gd10 O48 2.388 . S
Gd10 O49 2.386 . S
Gd10 O53 2.307 . S
Gd10 C63 2.805 . S
Gd11 N6 2.622 . S
Gd11 N12 2.570 . S
Gd11 O43 2.386 . S
Gd11 O47 2.307 . S
Gd11 O50 2.353 . S
Gd11 O51 2.468 . S
Gd11 O52 2.427 . S
Gd11 O54 2.388 . S
Gd11 C75 2.805 . S
N12 C2 1.359 . S
N12 Gd11 2.570 . S
N12 C14 1.343 . S
C13 C1 1.422 . S
C13 C15 1.321 . S
C13 H21 0.931 . S
C14 N12 1.343 . S
C14 C15 1.390 . S
C14 H16 0.931 . S
C15 C13 1.321 . S
C15 C14 1.390 . S
C15 H17 0.930 . S
H16 C14 0.931 . S
H17 C15 0.930 . S
H18 C41 0.931 . S
H19 C7 0.929 . S
H20 C42 0.930 . S
H21 C13 0.931 . S
H22 C3 0.930 . S
H23 C32 0.929 . S
H24 C8 0.931 . S
H25 C9 0.930 . S
H26 C64 0.930 . S
H27 C5 0.929 . S
H28 C33 0.931 . S
H29 C34 0.930 . S
N30 Gd10 2.622 . S
N30 C31 1.369 . S
N30 C32 1.338 . S
C31 N30 1.369 . S
C31 C35 1.415 . S
C31 C38 1.422 . S
C32 H23 0.929 . S
C32 N30 1.338 . S
C32 C34 1.378 . S
C33 H28 0.931 . S
C33 C34 1.348 . S
C33 C35 1.413 . S
C34 H29 0.930 . S
C34 C32 1.378 . S
C34 C33 1.348 . S
C35 C31 1.415 . S
C35 C33 1.413 . S
C35 C65 1.437 . S
H36 C65 0.929 . S
N37 Gd10 2.570 . S
N37 C38 1.359 . S
N37 C41 1.343 . S
C38 C31 1.422 . S
C38 N37 1.359 . S
C38 C40 1.421 . S
C39 C40 1.422 . S
C39 C42 1.321 . S
C39 H66 0.931 . S
C40 C38 1.421 . S
C40 C39 1.422 . S
C40 C64 1.417 . S
C41 H18 0.931 . S
C41 N37 1.343 . S
C41 C42 1.390 . S
C42 H20 0.930 . S
C42 C39 1.321 . S
C42 C41 1.390 . S
O43 Gd11 2.386 . S
O43 C55 1.265 . S
O44 Gd10 2.353 . S
O44 C55 1.242 . S
O45 Gd10 2.468 . S
O45 C63 1.263 . S
O46 Gd10 2.427 . S
O46 C63 1.252 . S
O47 Gd11 2.307 . S
O47 C56 1.261 . S
O48 Gd10 2.388 . S
O48 C56 1.252 . S
O49 Gd10 2.386 . S
O49 C67 1.265 . S
O50 Gd11 2.353 . S
O50 C67 1.242 . S
O51 Gd11 2.468 . S
O51 C75 1.263 . S
O52 Gd11 2.427 . S
O52 C75 1.252 . S
O53 Gd10 2.307 . S
O53 C68 1.261 . S
O54 Gd11 2.388 . S
O54 C68 1.252 . S
C55 O43 1.265 . S
C55 O44 1.242 . S
C56 O47 1.261 . S
C56 O48 1.252 . S
C57 C60 1.394 . S
C57 C62 1.370 . S
C57 C63 1.500 . S
C58 C61 1.383 . S
C58 C62 1.395 . S
C59 C60 1.396 . S
C59 C61 1.365 . S
C59 H76 0.929 . S
C60 C57 1.394 . S
C60 C59 1.396 . S
C60 H77 0.930 . S
C61 C58 1.383 . S
C61 C59 1.365 . S
C61 H78 0.931 . S
C62 C57 1.370 . S
C62 C58 1.395 . S
C62 H79 0.930 . S
C63 Gd10 2.805 . S
C63 O45 1.263 . S
C63 O46 1.252 . S
C63 C57 1.500 . S
C64 H26 0.930 . S
C64 C40 1.417 . S
C64 C65 1.329 . S
C65 C35 1.437 . S
C65 H36 0.929 . S
C65 C64 1.329 . S
H66 C39 0.931 . S
C67 O49 1.265 . S
C67 O50 1.242 . S
C68 O53 1.261 . S
C68 O54 1.252 . S
C69 C72 1.394 . S
C69 C74 1.370 . S
C69 C75 1.500 . S
C70 C73 1.383 . S
C70 C74 1.395 . S
C71 C72 1.396 . S
C71 C73 1.365 . S
C71 H80 0.929 . S
C72 C69 1.394 . S
C72 C71 1.396 . S
C72 H81 0.930 . S
C73 C70 1.383 . S
C73 C71 1.365 . S
C73 H82 0.931 . S
C74 C69 1.370 . S
C74 C70 1.395 . S
C74 H83 0.930 . S
C75 Gd11 2.805 . S
C75 O51 1.263 . S
C75 O52 1.252 . S
C75 C69 1.500 . S
H76 C59 0.929 . S
H77 C60 0.930 . S
H78 C61 0.931 . S
H79 C62 0.930 . S
H80 C71 0.929 . S
H81 C72 0.930 . S
H82 C73 0.931 . S
H83 C74 0.930 . S
C84 C86 1.422 . S
C84 C88 1.415 . S
C84 N90 1.369 . S
C85 C86 1.421 . S
C85 C87 1.417 . S
C85 C97 1.422 . S
C86 C84 1.422 . S
C86 C85 1.421 . S
C86 N96 1.359 . S
C87 C85 1.417 . S
C87 C89 1.329 . S
C87 H106 0.930 . S
C88 C84 1.415 . S
C88 C89 1.437 . S
C88 C92 1.413 . S
C89 C87 1.329 . S
C89 C88 1.437 . S
C89 H111 0.929 . S
N90 C84 1.369 . S
N90 C91 1.338 . S
N90 Gd95 2.622 . S
C91 N90 1.338 . S
C91 C93 1.378 . S
C91 H103 0.929 . S
C92 C88 1.413 . S
C92 C93 1.348 . S
C92 H108 0.931 . S
C93 C91 1.378 . S
C93 C92 1.348 . S
C93 H109 0.930 . S
Gd94 N114 2.622 . S
Gd94 N121 2.570 . S
Gd94 O128 2.353 . S
Gd94 O129 2.468 . S
Gd94 O130 2.427 . S
Gd94 O132 2.388 . S
Gd94 O133 2.386 . S
Gd94 O137 2.307 . S
Gd94 C147 2.805 . S
Gd95 N90 2.622 . S
Gd95 N96 2.570 . S
Gd95 O127 2.386 . S
Gd95 O131 2.307 . S
Gd95 O134 2.353 . S
Gd95 O135 2.468 . S
Gd95 O136 2.427 . S
Gd95 O138 2.388 . S
Gd95 C159 2.805 . S
N96 C86 1.359 . S
N96 Gd95 2.570 . S
N96 C98 1.343 . S
C97 C85 1.422 . S
C97 C99 1.321 . S
C97 H105 0.931 . S
C98 N96 1.343 . S
C98 C99 1.390 . S
C98 H100 0.931 . S
C99 C97 1.321 . S
C99 C98 1.390 . S
C99 H101 0.930 . S
H100 C98 0.931 . S
H101 C99 0.930 . S
H102 C125 0.931 . S
H103 C91 0.929 . S
H104 C126 0.930 . S
H105 C97 0.931 . S
H106 C87 0.930 . S
H107 C116 0.929 . S
H108 C92 0.931 . S
H109 C93 0.930 . S
H110 C148 0.930 . S
H111 C89 0.929 . S
H112 C117 0.931 . S
H113 C118 0.930 . S
N114 Gd94 2.622 . S
N114 C115 1.369 . S
N114 C116 1.338 . S
C115 N114 1.369 . S
C115 C119 1.415 . S
C115 C122 1.422 . S
C116 H107 0.929 . S
C116 N114 1.338 . S
C116 C118 1.378 . S
C117 H112 0.931 . S
C117 C118 1.348 . S
C117 C119 1.413 . S
C118 H113 0.930 . S
C118 C116 1.378 . S
C118 C117 1.348 . S
C119 C115 1.415 . S
C119 C117 1.413 . S
C119 C149 1.437 . S
H120 C149 0.929 . S
N121 Gd94 2.570 . S
N121 C122 1.359 . S
N121 C125 1.343 . S
C122 C115 1.422 . S
C122 N121 1.359 . S
C122 C124 1.421 . S
C123 C124 1.422 . S
C123 C126 1.321 . S
C123 H150 0.931 . S
C124 C122 1.421 . S
C124 C123 1.422 . S
C124 C148 1.417 . S
C125 H102 0.931 . S
C125 N121 1.343 . S
C125 C126 1.390 . S
C126 H104 0.930 . S
C126 C123 1.321 . S
C126 C125 1.390 . S
O127 Gd95 2.386 . S
O127 C139 1.265 . S
O128 Gd94 2.353 . S
O128 C139 1.242 . S
O129 Gd94 2.468 . S
O129 C147 1.263 . S
O130 Gd94 2.427 . S
O130 C147 1.252 . S
O131 Gd95 2.307 . S
O131 C140 1.261 . S
O132 Gd94 2.388 . S
O132 C140 1.252 . S
O133 Gd94 2.386 . S
O133 C151 1.265 . S
O134 Gd95 2.353 . S
O134 C151 1.242 . S
O135 Gd95 2.468 . S
O135 C159 1.263 . S
O136 Gd95 2.427 . S
O136 C159 1.252 . S
O137 Gd94 2.307 . S
O137 C152 1.261 . S
O138 Gd95 2.388 . S
O138 C152 1.252 . S
C139 O127 1.265 . S
C139 O128 1.242 . S
C140 O131 1.261 . S
C140 O132 1.252 . S
C141 C144 1.394 . S
C141 C146 1.370 . S
C141 C147 1.500 . S
C142 C145 1.383 . S
C142 C146 1.395 . S
C143 C144 1.396 . S
C143 C145 1.365 . S
C143 H160 0.929 . S
C144 C141 1.394 . S
C144 C143 1.396 . S
C144 H161 0.930 . S
C145 C142 1.383 . S
C145 C143 1.365 . S
C145 H162 0.931 . S
C146 C141 1.370 . S
C146 C142 1.395 . S
C146 H163 0.930 . S
C147 Gd94 2.805 . S
C147 O129 1.263 . S
C147 O130 1.252 . S
C147 C141 1.500 . S
C148 H110 0.930 . S
C148 C124 1.417 . S
C148 C149 1.329 . S
C149 C119 1.437 . S
C149 H120 0.929 . S
C149 C148 1.329 . S
H150 C123 0.931 . S
C151 O133 1.265 . S
C151 O134 1.242 . S
C152 O137 1.261 . S
C152 O138 1.252 . S
C153 C156 1.394 . S
C153 C158 1.370 . S
C153 C159 1.500 . S
C154 C157 1.383 . S
C154 C158 1.395 . S
C155 C156 1.396 . S
C155 C157 1.365 . S
C155 H164 0.929 . S
C156 C153 1.394 . S
C156 C155 1.396 . S
C156 H165 0.930 . S
C157 C154 1.383 . S
C157 C155 1.365 . S
C157 H166 0.931 . S
C158 C153 1.370 . S
C158 C154 1.395 . S
C158 H167 0.930 . S
C159 Gd95 2.805 . S
C159 O135 1.263 . S
C159 O136 1.252 . S
C159 C153 1.500 . S
H160 C143 0.929 . S
H161 C144 0.930 . S
H162 C145 0.931 . S
H163 C146 0.930 . S
H164 C155 0.929 . S
H165 C156 0.930 . S
H166 C157 0.931 . S
H167 C158 0.930 . S
C168 C170 1.422 1_655 S
C168 C172 1.415 . S
C168 N174 1.369 . S
C169 C170 1.421 . S
C169 C171 1.417 . S
C169 C181 1.422 . S
C170 C168 1.422 1_455 S
C170 C169 1.421 . S
C170 N180 1.359 . S
C171 C169 1.417 . S
C171 C173 1.329 . S
C171 H190 0.930 . S
C172 C168 1.415 . S
C172 C173 1.437 1_655 S
C172 C176 1.413 . S
C173 C171 1.329 . S
C173 C172 1.437 1_455 S
C173 H195 0.929 . S
N174 C168 1.369 . S
N174 C175 1.338 . S
N174 Gd179 2.622 . S
C175 N174 1.338 . S
C175 C177 1.378 . S
C175 H187 0.929 . S
C176 C172 1.413 . S
C176 C177 1.348 . S
C176 H192 0.931 . S
C177 C175 1.378 . S
C177 C176 1.348 . S
C177 H193 0.930 . S
Gd178 N198 2.622 . S
Gd178 N205 2.570 . S
Gd178 O212 2.353 . S
Gd178 O213 2.468 . S
Gd178 O214 2.427 . S
Gd178 O216 2.388 . S
Gd178 O217 2.386 . S
Gd178 O221 2.307 . S
Gd178 C231 2.805 . S
Gd179 N174 2.622 . S
Gd179 N180 2.570 1_655 S
Gd179 O211 2.386 . S
Gd179 O215 2.307 . S
Gd179 O218 2.353 . S
Gd179 O219 2.468 1_655 S
Gd179 O220 2.427 1_655 S
Gd179 O222 2.388 . S
Gd179 C243 2.805 1_655 S
N180 C170 1.359 . S
N180 Gd179 2.570 1_455 S
N180 C182 1.343 . S
C181 C169 1.422 . S
C181 C183 1.321 . S
C181 H189 0.931 . S
C182 N180 1.343 . S
C182 C183 1.390 . S
C182 H184 0.931 . S
C183 C181 1.321 . S
C183 C182 1.390 . S
C183 H185 0.930 . S
H184 C182 0.931 . S
H185 C183 0.930 . S
H186 C209 0.931 . S
H187 C175 0.929 . S
H188 C210 0.930 . S
H189 C181 0.931 . S
H190 C171 0.930 . S
H191 C200 0.929 . S
H192 C176 0.931 . S
H193 C177 0.930 . S
H194 C232 0.930 . S
H195 C173 0.929 . S
H196 C201 0.931 . S
H197 C202 0.930 . S
N198 Gd178 2.622 . S
N198 C199 1.369 . S
N198 C200 1.338 . S
C199 N198 1.369 . S
C199 C203 1.415 . S
C199 C206 1.422 . S
C200 H191 0.929 . S
C200 N198 1.338 . S
C200 C202 1.378 . S
C201 H196 0.931 . S
C201 C202 1.348 . S
C201 C203 1.413 . S
C202 H197 0.930 . S
C202 C200 1.378 . S
C202 C201 1.348 . S
C203 C199 1.415 . S
C203 C201 1.413 . S
C203 C233 1.437 . S
H204 C233 0.929 . S
N205 Gd178 2.570 . S
N205 C206 1.359 . S
N205 C209 1.343 . S
C206 C199 1.422 . S
C206 N205 1.359 . S
C206 C208 1.421 . S
C207 C208 1.422 . S
C207 C210 1.321 . S
C207 H234 0.931 . S
C208 C206 1.421 . S
C208 C207 1.422 . S
C208 C232 1.417 . S
C209 H186 0.931 . S
C209 N205 1.343 . S
C209 C210 1.390 . S
C210 H188 0.930 . S
C210 C207 1.321 . S
C210 C209 1.390 . S
O211 Gd179 2.386 . S
O211 C223 1.265 . S
O212 Gd178 2.353 . S
O212 C223 1.242 . S
O213 Gd178 2.468 . S
O213 C231 1.263 . S
O214 Gd178 2.427 . S
O214 C231 1.252 . S
O215 Gd179 2.307 . S
O215 C224 1.261 . S
O216 Gd178 2.388 . S
O216 C224 1.252 . S
O217 Gd178 2.386 . S
O217 C235 1.265 . S
O218 Gd179 2.353 . S
O218 C235 1.242 . S
O219 Gd179 2.468 1_455 S
O219 C243 1.263 . S
O220 Gd179 2.427 1_455 S
O220 C243 1.252 . S
O221 Gd178 2.307 . S
O221 C236 1.261 . S
O222 Gd179 2.388 . S
O222 C236 1.252 . S
C223 O211 1.265 . S
C223 O212 1.242 . S
C224 O215 1.261 . S
C224 O216 1.252 . S
C225 C228 1.394 . S
C225 C230 1.370 . S
C225 C231 1.500 . S
C226 C229 1.383 . S
C226 C230 1.395 . S
C227 C228 1.396 . S
C227 C229 1.365 . S
C227 H244 0.929 . S
C228 C225 1.394 . S
C228 C227 1.396 . S
C228 H245 0.930 . S
C229 C226 1.383 . S
C229 C227 1.365 . S
C229 H246 0.931 . S
C230 C225 1.370 . S
C230 C226 1.395 . S
C230 H247 0.930 . S
C231 Gd178 2.805 . S
C231 O213 1.263 . S
C231 O214 1.252 . S
C231 C225 1.500 . S
C232 H194 0.930 . S
C232 C208 1.417 . S
C232 C233 1.329 . S
C233 C203 1.437 . S
C233 H204 0.929 . S
C233 C232 1.329 . S
H234 C207 0.931 . S
C235 O217 1.265 . S
C235 O218 1.242 . S
C236 O221 1.261 . S
C236 O222 1.252 . S
C237 C240 1.394 . S
C237 C242 1.370 . S
C237 C243 1.500 . S
C238 C241 1.383 . S
C238 C242 1.395 . S
C239 C240 1.396 . S
C239 C241 1.365 . S
C239 H248 0.929 . S
C240 C237 1.394 . S
C240 C239 1.396 . S
C240 H249 0.930 . S
C241 C238 1.383 . S
C241 C239 1.365 . S
C241 H250 0.931 . S
C242 C237 1.370 . S
C242 C238 1.395 . S
C242 H251 0.930 . S
C243 Gd179 2.805 1_455 S
C243 O219 1.263 . S
C243 O220 1.252 . S
C243 C237 1.500 . S
H244 C227 0.929 . S
H245 C228 0.930 . S
H246 C229 0.931 . S
H247 C230 0.930 . S
H248 C239 0.929 . S
H249 C240 0.930 . S
H250 C241 0.931 . S
H251 C242 0.930 . S
C252 C254 1.422 . S
C252 C256 1.415 . S
C252 N258 1.369 . S
C253 C254 1.421 . S
C253 C255 1.417 . S
C253 C265 1.422 . S
C254 C252 1.422 . S
C254 C253 1.421 . S
C254 N264 1.359 . S
C255 C253 1.417 . S
C255 C257 1.329 . S
C255 H274 0.930 . S
C256 C252 1.415 . S
C256 C257 1.437 . S
C256 C260 1.413 . S
C257 C255 1.329 . S
C257 C256 1.437 . S
C257 H279 0.929 . S
N258 C252 1.369 . S
N258 C259 1.338 . S
N258 Gd263 2.622 . S
C259 N258 1.338 . S
C259 C261 1.378 . S
C259 H271 0.929 . S
C260 C256 1.413 . S
C260 C261 1.348 . S
C260 H276 0.931 . S
C261 C259 1.378 . S
C261 C260 1.348 . S
C261 H277 0.930 . S
Gd262 N282 2.622 . S
Gd262 N289 2.570 . S
Gd262 O296 2.353 1_565 S
Gd262 O297 2.468 1_565 S
Gd262 O298 2.427 1_565 S
Gd262 O300 2.388 . S
Gd262 O301 2.386 . S
Gd262 O305 2.307 . S
Gd262 C315 2.805 1_565 S
Gd263 N258 2.622 . S
Gd263 N264 2.570 . S
Gd263 O295 2.386 . S
Gd263 O299 2.307 . S
Gd263 O302 2.353 . S
Gd263 O303 2.468 . S
Gd263 O304 2.427 . S
Gd263 O306 2.388 . S
Gd263 C327 2.805 . S
N264 C254 1.359 . S
N264 Gd263 2.570 . S
N264 C266 1.343 . S
C265 C253 1.422 . S
C265 C267 1.321 . S
C265 H273 0.931 . S
C266 N264 1.343 . S
C266 C267 1.390 . S
C266 H268 0.931 . S
C267 C265 1.321 . S
C267 C266 1.390 . S
C267 H269 0.930 . S
H268 C266 0.931 . S
H269 C267 0.930 . S
H270 C293 0.931 . S
H271 C259 0.929 . S
H272 C294 0.930 . S
H273 C265 0.931 . S
H274 C255 0.930 . S
H275 C284 0.929 . S
H276 C260 0.931 . S
H277 C261 0.930 . S
H278 C316 0.930 . S
H279 C257 0.929 . S
H280 C285 0.931 . S
H281 C286 0.930 . S
N282 Gd262 2.622 . S
N282 C283 1.369 . S
N282 C284 1.338 . S
C283 N282 1.369 . S
C283 C287 1.415 . S
C283 C290 1.422 . S
C284 H275 0.929 . S
C284 N282 1.338 . S
C284 C286 1.378 . S
C285 H280 0.931 . S
C285 C286 1.348 . S
C285 C287 1.413 . S
C286 H281 0.930 . S
C286 C284 1.378 . S
C286 C285 1.348 . S
C287 C283 1.415 . S
C287 C285 1.413 . S
C287 C317 1.437 . S
H288 C317 0.929 . S
N289 Gd262 2.570 . S
N289 C290 1.359 . S
N289 C293 1.343 . S
C290 C283 1.422 . S
C290 N289 1.359 . S
C290 C292 1.421 . S
C291 C292 1.422 . S
C291 C294 1.321 . S
C291 H318 0.931 . S
C292 C290 1.421 . S
C292 C291 1.422 . S
C292 C316 1.417 . S
C293 H270 0.931 . S
C293 N289 1.343 . S
C293 C294 1.390 . S
C294 H272 0.930 . S
C294 C291 1.321 . S
C294 C293 1.390 . S
O295 Gd263 2.386 . S
O295 C307 1.274 . S
O296 Gd262 2.353 1_545 S
O296 C307 1.239 1_545 S
O297 Gd262 2.468 1_545 S
O297 C315 1.263 . S
O298 Gd262 2.427 1_545 S
O298 C315 1.252 . S
O299 Gd263 2.307 . S
O299 C308 1.261 . S
O300 Gd262 2.388 . S
O300 C308 1.252 . S
O301 Gd262 2.386 . S
O301 C319 1.265 . S
O302 Gd263 2.353 . S
O302 C319 1.242 . S
O303 Gd263 2.468 . S
O303 C327 1.263 . S
O304 Gd263 2.427 . S
O304 C327 1.252 . S
O305 Gd262 2.307 . S
O305 C320 1.261 . S
O306 Gd263 2.388 . S
O306 C320 1.252 . S
C307 O295 1.274 . S
C307 O296 1.239 1_565 S
C308 O299 1.261 . S
C308 O300 1.252 . S
C309 C312 1.394 . S
C309 C314 1.370 . S
C309 C315 1.500 . S
C310 C313 1.383 . S
C310 C314 1.395 . S
C311 C312 1.396 . S
C311 C313 1.365 . S
C311 H328 0.929 . S
C312 C309 1.394 . S
C312 C311 1.396 . S
C312 H329 0.930 . S
C313 C310 1.383 . S
C313 C311 1.365 . S
C313 H330 0.931 . S
C314 C309 1.370 . S
C314 C310 1.395 . S
C314 H331 0.930 . S
C315 Gd262 2.805 1_545 S
C315 O297 1.263 . S
C315 O298 1.252 . S
C315 C309 1.500 . S
C316 H278 0.930 . S
C316 C292 1.417 . S
C316 C317 1.329 . S
C317 C287 1.437 . S
C317 H288 0.929 . S
C317 C316 1.329 . S
H318 C291 0.931 . S
C319 O301 1.265 . S
C319 O302 1.242 . S
C320 O305 1.261 . S
C320 O306 1.252 . S
C321 C324 1.394 . S
C321 C326 1.370 . S
C321 C327 1.500 . S
C322 C325 1.383 . S
C322 C326 1.395 . S
C323 C324 1.396 . S
C323 C325 1.365 . S
C323 H332 0.929 . S
C324 C321 1.394 . S
C324 C323 1.396 . S
C324 H333 0.930 . S
C325 C322 1.383 . S
C325 C323 1.365 . S
C325 H334 0.931 . S
C326 C321 1.370 . S
C326 C322 1.395 . S
C326 H335 0.930 . S
C327 Gd263 2.805 . S
C327 O303 1.263 . S
C327 O304 1.252 . S
C327 C321 1.500 . S
H328 C311 0.929 . S
H329 C312 0.930 . S
H330 C313 0.931 . S
H331 C314 0.930 . S
H332 C323 0.929 . S
H333 C324 0.930 . S
H334 C325 0.931 . S
H335 C326 0.930 . S
C336 C338 1.422 1_455 S
C336 C340 1.415 . S
C336 N342 1.369 . S
C337 C338 1.421 . S
C337 C339 1.417 . S
C337 C349 1.422 . S
C338 C336 1.422 1_655 S
C338 C337 1.421 . S
C338 N348 1.359 1_556 S
C339 C337 1.417 . S
C339 C341 1.329 . S
C339 H358 0.930 . S
C340 C336 1.415 . S
C340 C341 1.437 1_455 S
C340 C344 1.413 . S
C341 C339 1.329 . S
C341 C340 1.437 1_655 S
C341 H363 0.929 . S
N342 C336 1.369 . S
N342 C343 1.338 . S
N342 Gd347 2.622 1_556 S
C343 N342 1.338 . S
C343 C345 1.378 . S
C343 H355 0.929 1_556 S
C344 C340 1.413 . S
C344 C345 1.348 . S
C344 H360 0.931 . S
C345 C343 1.378 . S
C345 C344 1.348 . S
C345 H361 0.930 . S
Gd346 N366 2.622 . S
Gd346 N373 2.570 . S
Gd346 O380 2.353 . S
Gd346 O381 2.468 . S
Gd346 O382 2.427 . S
Gd346 O384 2.388 . S
Gd346 O385 2.386 . S
Gd346 O389 2.307 . S
Gd346 C399 2.805 . S
Gd347 N342 2.622 1_554 S
Gd347 N348 2.570 1_455 S
Gd347 O379 2.386 . S
Gd347 O383 2.307 . S
Gd347 O386 2.353 . S
Gd347 O387 2.468 1_455 S
Gd347 O388 2.427 1_455 S
Gd347 O390 2.388 . S
Gd347 C411 2.805 1_455 S
N348 C338 1.359 1_554 S
N348 Gd347 2.570 1_655 S
N348 C350 1.343 . S
C349 C337 1.422 . S
C349 C351 1.321 . S
C349 H357 0.931 . S
C350 N348 1.343 . S
C350 C351 1.390 1_554 S
C350 H352 0.931 . S
C351 C349 1.321 . S
C351 C350 1.390 1_556 S
C351 H353 0.930 1_556 S
H352 C350 0.931 . S
H353 C351 0.930 1_554 S
H354 C377 0.931 . S
H355 C343 0.929 1_554 S
H356 C378 0.930 . S
H357 C349 0.931 . S
H358 C339 0.930 . S
H359 C368 0.929 . S
H360 C344 0.931 . S
H361 C345 0.930 . S
H362 C400 0.930 . S
H363 C341 0.929 . S
H364 C369 0.931 . S
H365 C370 0.930 . S
N366 Gd346 2.622 . S
N366 C367 1.369 . S
N366 C368 1.338 . S
C367 N366 1.369 . S
C367 C371 1.415 . S
C367 C374 1.422 . S
C368 H359 0.929 . S
C368 N366 1.338 . S
C368 C370 1.378 . S
C369 H364 0.931 . S
C369 C370 1.348 . S
C369 C371 1.413 . S
C370 H365 0.930 . S
C370 C368 1.378 . S
C370 C369 1.348 . S
C371 C367 1.415 . S
C371 C369 1.413 . S
C371 C401 1.437 . S
H372 C401 0.929 . S
N373 Gd346 2.570 . S
N373 C374 1.359 . S
N373 C377 1.343 . S
C374 C367 1.422 . S
C374 N373 1.359 . S
C374 C376 1.421 . S
C375 C376 1.422 . S
C375 C378 1.321 . S
C375 H402 0.931 . S
C376 C374 1.421 . S
C376 C375 1.422 . S
C376 C400 1.417 . S
C377 H354 0.931 . S
C377 N373 1.343 . S
C377 C378 1.390 . S
C378 H356 0.930 . S
C378 C375 1.321 . S
C378 C377 1.390 . S
O379 Gd347 2.386 . S
O379 C391 1.265 . S
O380 Gd346 2.353 . S
O380 C391 1.242 . S
O381 Gd346 2.468 . S
O381 C399 1.263 . S
O382 Gd346 2.427 . S
O382 C399 1.252 . S
O383 Gd347 2.307 . S
O383 C392 1.261 . S
O384 Gd346 2.388 . S
O384 C392 1.252 . S
O385 Gd346 2.386 . S
O385 C403 1.265 . S
O386 Gd347 2.353 . S
O386 C403 1.242 . S
O387 Gd347 2.468 1_655 S
O387 C411 1.263 . S
O388 Gd347 2.427 1_655 S
O388 C411 1.252 . S
O389 Gd346 2.307 . S
O389 C404 1.261 . S
O390 Gd347 2.388 . S
O390 C404 1.252 . S
C391 O379 1.265 . S
C391 O380 1.242 . S
C392 O383 1.261 . S
C392 O384 1.252 . S
C393 C396 1.394 . S
C393 C398 1.370 . S
C393 C399 1.500 . S
C394 C397 1.383 . S
C394 C398 1.395 . S
C395 C396 1.396 . S
C395 C397 1.365 . S
C395 H412 0.929 . S
C396 C393 1.394 . S
C396 C395 1.396 . S
C396 H413 0.930 . S
C397 C394 1.383 . S
C397 C395 1.365 . S
C397 H414 0.931 . S
C398 C393 1.370 . S
C398 C394 1.395 . S
C398 H415 0.930 . S
C399 Gd346 2.805 . S
C399 O381 1.263 . S
C399 O382 1.252 . S
C399 C393 1.500 . S
C400 H362 0.930 . S
C400 C376 1.417 . S
C400 C401 1.329 . S
C401 C371 1.437 . S
C401 H372 0.929 . S
C401 C400 1.329 . S
H402 C375 0.931 . S
C403 O385 1.265 . S
C403 O386 1.242 . S
C404 O389 1.261 . S
C404 O390 1.252 . S
C405 C408 1.394 . S
C405 C410 1.370 . S
C405 C411 1.500 . S
C406 C409 1.383 . S
C406 C410 1.395 . S
C407 C408 1.396 . S
C407 C409 1.365 . S
C407 H416 0.929 . S
C408 C405 1.394 . S
C408 C407 1.396 . S
C408 H417 0.930 . S
C409 C406 1.383 . S
C409 C407 1.365 . S
C409 H418 0.931 . S
C410 C405 1.370 . S
C410 C406 1.395 . S
C410 H419 0.930 . S
C411 Gd347 2.805 1_655 S
C411 O387 1.263 . S
C411 O388 1.252 . S
C411 C405 1.500 . S
H412 C395 0.929 . S
H413 C396 0.930 . S
H414 C397 0.931 . S
H415 C398 0.930 . S
H416 C407 0.929 . S
H417 C408 0.930 . S
H418 C409 0.931 . S
H419 C410 0.930 . S
C420 C422 1.422 1_545 S
C420 C424 1.415 . S
C420 N426 1.369 . S
C421 C422 1.421 . S
C421 C423 1.417 . S
C421 C433 1.422 . S
C422 C420 1.422 1_565 S
C422 C421 1.421 . S
C422 N432 1.359 1_556 S
C423 C421 1.417 . S
C423 C425 1.329 . S
C423 H442 0.930 . S
C424 C420 1.415 . S
C424 C425 1.437 1_545 S
C424 C428 1.413 . S
C425 C423 1.329 . S
C425 C424 1.437 1_565 S
C425 H447 0.932 . S
N426 C420 1.369 . S
N426 C427 1.338 . S
N426 Gd431 2.622 1_556 S
C427 N426 1.338 . S
C427 C429 1.378 . S
C427 H439 0.929 1_556 S
C428 C424 1.413 . S
C428 C429 1.348 . S
C428 H444 0.931 . S
C429 C427 1.378 . S
C429 C428 1.348 . S
C429 H445 0.930 . S
Gd430 N450 2.622 . S
Gd430 N457 2.570 . S
Gd430 O464 2.353 . S
Gd430 O465 2.468 . S
Gd430 O466 2.427 . S
Gd430 O468 2.388 . S
Gd430 O469 2.386 . S
Gd430 O473 2.307 . S
Gd430 C483 2.805 . S
Gd431 N426 2.622 1_554 S
Gd431 N432 2.570 1_545 S
Gd431 O463 2.386 . S
Gd431 O467 2.307 . S
Gd431 O470 2.353 . S
Gd431 O471 2.468 1_545 S
Gd431 O472 2.427 1_545 S
Gd431 O474 2.388 . S
Gd431 C495 2.805 1_545 S
N432 C422 1.359 1_554 S
N432 Gd431 2.570 1_565 S
N432 C434 1.343 . S
C433 C421 1.422 . S
C433 C435 1.321 . S
C433 H441 0.931 . S
C434 N432 1.343 . S
C434 C435 1.390 1_554 S
C434 H436 0.931 . S
C435 C433 1.321 . S
C435 C434 1.390 1_556 S
C435 H437 0.930 1_556 S
H436 C434 0.931 . S
H437 C435 0.930 1_554 S
H438 C461 0.931 . S
H439 C427 0.929 1_554 S
H440 C462 0.930 . S
H441 C433 0.931 . S
H442 C423 0.930 . S
H443 C452 0.929 . S
H444 C428 0.931 . S
H445 C429 0.930 . S
H446 C484 0.930 . S
H447 C425 0.932 . S
H448 C453 0.931 . S
H449 C454 0.930 . S
N450 Gd430 2.622 . S
N450 C451 1.369 . S
N450 C452 1.338 . S
C451 N450 1.369 . S
C451 C455 1.415 . S
C451 C458 1.422 . S
C452 H443 0.929 . S
C452 N450 1.338 . S
C452 C454 1.378 . S
C453 H448 0.931 . S
C453 C454 1.348 . S
C453 C455 1.413 . S
C454 H449 0.930 . S
C454 C452 1.378 . S
C454 C453 1.348 . S
C455 C451 1.415 . S
C455 C453 1.413 . S
C455 C485 1.437 . S
H456 C485 0.929 . S
N457 Gd430 2.570 . S
N457 C458 1.359 . S
N457 C461 1.343 . S
C458 C451 1.422 . S
C458 N457 1.359 . S
C458 C460 1.421 . S
C459 C460 1.422 . S
C459 C462 1.321 . S
C459 H486 0.931 . S
C460 C458 1.421 . S
C460 C459 1.422 . S
C460 C484 1.417 . S
C461 H438 0.931 . S
C461 N457 1.343 . S
C461 C462 1.390 . S
C462 H440 0.930 . S
C462 C459 1.321 . S
C462 C461 1.390 . S
O463 Gd431 2.386 . S
O463 C475 1.265 . S
O464 Gd430 2.353 . S
O464 C475 1.242 . S
O465 Gd430 2.468 . S
O465 C483 1.263 . S
O466 Gd430 2.427 . S
O466 C483 1.252 . S
O467 Gd431 2.307 . S
O467 C476 1.261 . S
O468 Gd430 2.388 . S
O468 C476 1.252 . S
O469 Gd430 2.386 . S
O469 C487 1.265 . S
O470 Gd431 2.353 . S
O470 C487 1.242 . S
O471 Gd431 2.468 1_565 S
O471 C495 1.263 . S
O472 Gd431 2.427 1_565 S
O472 C495 1.252 . S
O473 Gd430 2.307 . S
O473 C488 1.261 . S
O474 Gd431 2.388 . S
O474 C488 1.252 . S
C475 O463 1.265 . S
C475 O464 1.242 . S
C476 O467 1.261 . S
C476 O468 1.252 . S
C477 C480 1.394 . S
C477 C482 1.370 . S
C477 C483 1.500 . S
C478 C481 1.383 . S
C478 C482 1.395 . S
C479 C480 1.396 . S
C479 C481 1.365 . S
C479 H496 0.929 . S
C480 C477 1.394 . S
C480 C479 1.396 . S
C480 H497 0.930 . S
C481 C478 1.383 . S
C481 C479 1.365 . S
C481 H498 0.931 . S
C482 C477 1.370 . S
C482 C478 1.395 . S
C482 H499 0.930 . S
C483 Gd430 2.805 . S
C483 O465 1.263 . S
C483 O466 1.252 . S
C483 C477 1.500 . S
C484 H446 0.930 . S
C484 C460 1.417 . S
C484 C485 1.329 . S
C485 C455 1.437 . S
C485 H456 0.929 . S
C485 C484 1.329 . S
H486 C459 0.931 . S
C487 O469 1.265 . S
C487 O470 1.242 . S
C488 O473 1.261 . S
C488 O474 1.252 . S
C489 C492 1.394 . S
C489 C494 1.370 . S
C489 C495 1.500 . S
C490 C493 1.383 . S
C490 C494 1.395 . S
C491 C492 1.396 . S
C491 C493 1.365 . S
C491 H500 0.929 . S
C492 C489 1.394 . S
C492 C491 1.396 . S
C492 H501 0.930 . S
C493 C490 1.383 . S
C493 C491 1.365 . S
C493 H502 0.931 . S
C494 C489 1.370 . S
C494 C490 1.395 . S
C494 H503 0.930 . S
C495 Gd431 2.805 1_565 S
C495 O471 1.263 . S
C495 O472 1.252 . S
C495 C489 1.500 . S
H496 C479 0.929 . S
H497 C480 0.930 . S
H498 C481 0.931 . S
H499 C482 0.930 . S
H500 C491 0.929 . S
H501 C492 0.930 . S
H502 C493 0.931 . S
H503 C494 0.930 . S
C504 C506 1.422 . S
C504 C508 1.415 . S
C504 N510 1.369 . S
C505 C506 1.421 . S
C505 C507 1.417 . S
C505 C517 1.422 . S
C506 C504 1.422 . S
C506 C505 1.421 . S
C506 N516 1.359 . S
C507 C505 1.417 . S
C507 C509 1.329 . S
C507 H526 0.930 . S
C508 C504 1.415 . S
C508 C509 1.437 . S
C508 C512 1.413 . S
C509 C507 1.329 . S
C509 C508 1.437 . S
C509 H531 0.929 . S
N510 C504 1.369 . S
N510 C511 1.338 . S
N510 Gd515 2.622 . S
C511 N510 1.338 . S
C511 C513 1.378 . S
C511 H523 0.929 . S
C512 C508 1.413 . S
C512 C513 1.348 . S
C512 H528 0.931 . S
C513 C511 1.378 . S
C513 C512 1.348 . S
C513 H529 0.930 . S
Gd514 N534 2.622 1_554 S
Gd514 N541 2.570 . S
Gd514 O548 2.353 . S
Gd514 O549 2.468 . S
Gd514 O550 2.427 . S
Gd514 O552 2.388 . S
Gd514 O553 2.386 . S
Gd514 O557 2.307 . S
Gd514 C567 2.805 . S
Gd515 N510 2.622 . S
Gd515 N516 2.570 . S
Gd515 O547 2.386 . S
Gd515 O551 2.307 . S
Gd515 O554 2.353 . S
Gd515 O555 2.468 . S
Gd515 O556 2.427 . S
Gd515 O558 2.388 . S
Gd515 C579 2.805 . S
N516 C506 1.359 . S
N516 Gd515 2.570 . S
N516 C518 1.343 . S
C517 C505 1.422 . S
C517 C519 1.321 . S
C517 H525 0.931 . S
C518 N516 1.343 . S
C518 C519 1.390 . S
C518 H520 0.931 . S
C519 C517 1.321 . S
C519 C518 1.390 . S
C519 H521 0.930 . S
H520 C518 0.931 . S
H521 C519 0.930 . S
H522 C545 0.931 . S
H523 C511 0.929 . S
H524 C546 0.930 . S
H525 C517 0.931 . S
H526 C507 0.930 . S
H527 C536 0.929 . S
H528 C512 0.931 . S
H529 C513 0.930 . S
H530 C568 0.930 . S
H531 C509 0.929 . S
H532 C537 0.931 . S
H533 C538 0.930 . S
N534 Gd514 2.622 1_556 S
N534 C535 1.369 . S
N534 C536 1.338 . S
C535 N534 1.369 . S
C535 C539 1.415 . S
C535 C542 1.422 1_556 S
C536 H527 0.929 . S
C536 N534 1.338 . S
C536 C538 1.378 . S
C537 H532 0.931 . S
C537 C538 1.348 . S
C537 C539 1.413 . S
C538 H533 0.930 . S
C538 C536 1.378 . S
C538 C537 1.348 . S
C539 C535 1.415 . S
C539 C537 1.413 . S
C539 C569 1.437 . S
H540 C569 0.929 . S
N541 Gd514 2.570 . S
N541 C542 1.359 . S
N541 C545 1.343 . S
C542 C535 1.422 1_554 S
C542 N541 1.359 . S
C542 C544 1.421 . S
C543 C544 1.422 . S
C543 C546 1.321 . S
C543 H570 0.931 . S
C544 C542 1.421 . S
C544 C543 1.422 . S
C544 C568 1.417 1_554 S
C545 H522 0.931 . S
C545 N541 1.343 . S
C545 C546 1.390 . S
C546 H524 0.930 . S
C546 C543 1.321 . S
C546 C545 1.390 . S
O547 Gd515 2.386 . S
O547 C559 1.265 . S
O548 Gd514 2.353 . S
O548 C559 1.242 . S
O549 Gd514 2.468 . S
O549 C567 1.263 . S
O550 Gd514 2.427 . S
O550 C567 1.252 . S
O551 Gd515 2.307 . S
O551 C560 1.261 . S
O552 Gd514 2.388 . S
O552 C560 1.252 . S
O553 Gd514 2.386 . S
O553 C571 1.265 . S
O554 Gd515 2.353 . S
O554 C571 1.242 . S
O555 Gd515 2.468 . S
O555 C579 1.263 . S
O556 Gd515 2.427 . S
O556 C579 1.252 . S
O557 Gd514 2.307 . S
O557 C572 1.261 . S
O558 Gd515 2.388 . S
O558 C572 1.252 . S
C559 O547 1.265 . S
C559 O548 1.242 . S
C560 O551 1.261 . S
C560 O552 1.252 . S
C561 C564 1.394 . S
C561 C566 1.370 . S
C561 C567 1.500 . S
C562 C565 1.383 . S
C562 C566 1.395 . S
C563 C564 1.396 . S
C563 C565 1.365 . S
C563 H580 0.929 . S
C564 C561 1.394 . S
C564 C563 1.396 . S
C564 H581 0.930 . S
C565 C562 1.383 . S
C565 C563 1.365 . S
C565 H582 0.931 . S
C566 C561 1.370 . S
C566 C562 1.395 . S
C566 H583 0.930 . S
C567 Gd514 2.805 . S
C567 O549 1.263 . S
C567 O550 1.252 . S
C567 C561 1.500 . S
C568 H530 0.930 . S
C568 C544 1.417 1_556 S
C568 C569 1.329 . S
C569 C539 1.437 . S
C569 H540 0.929 . S
C569 C568 1.329 . S
H570 C543 0.931 . S
C571 O553 1.265 . S
C571 O554 1.242 . S
C572 O557 1.261 . S
C572 O558 1.252 . S
C573 C576 1.394 . S
C573 C578 1.370 . S
C573 C579 1.500 . S
C574 C577 1.383 . S
C574 C578 1.395 . S
C575 C576 1.396 . S
C575 C577 1.365 . S
C575 H584 0.929 . S
C576 C573 1.394 . S
C576 C575 1.396 . S
C576 H585 0.930 . S
C577 C574 1.383 . S
C577 C575 1.365 . S
C577 H586 0.931 . S
C578 C573 1.370 . S
C578 C574 1.395 . S
C578 H587 0.930 . S
C579 Gd515 2.805 . S
C579 O555 1.263 . S
C579 O556 1.252 . S
C579 C573 1.500 . S
H580 C563 0.929 . S
H581 C564 0.930 . S
H582 C565 0.931 . S
H583 C566 0.930 . S
H584 C575 0.929 . S
H585 C576 0.930 . S
H586 C577 0.931 . S
H587 C578 0.930 . S
C588 C590 1.422 . S
C588 C592 1.415 . S
C588 N594 1.369 . S
C589 C590 1.421 . S
C589 C591 1.417 . S
C589 C601 1.422 . S
C590 C588 1.422 . S
C590 C589 1.421 . S
C590 N600 1.359 . S
C591 C589 1.417 . S
C591 C593 1.329 . S
C591 H610 0.930 . S
C592 C588 1.415 . S
C592 C593 1.437 . S
C592 C596 1.413 . S
C593 C591 1.329 . S
C593 C592 1.437 . S
C593 H615 0.929 . S
N594 C588 1.369 . S
N594 C595 1.338 . S
N594 Gd599 2.622 . S
C595 N594 1.338 . S
C595 C597 1.378 . S
C595 H607 0.929 . S
C596 C592 1.413 . S
C596 C597 1.348 . S
C596 H612 0.931 . S
C597 C595 1.378 . S
C597 C596 1.348 . S
C597 H613 0.930 . S
Gd598 N618 2.622 1_554 S
Gd598 N625 2.570 . S
Gd598 O632 2.353 . S
Gd598 O633 2.468 . S
Gd598 O634 2.427 . S
Gd598 O636 2.388 . S
Gd598 O637 2.386 . S
Gd598 O641 2.307 . S
Gd598 C651 2.805 . S
Gd599 N594 2.622 . S
Gd599 N600 2.570 . S
Gd599 O631 2.386 . S
Gd599 O635 2.307 . S
Gd599 O638 2.353 . S
Gd599 O639 2.468 . S
Gd599 O640 2.427 . S
Gd599 O642 2.388 . S
Gd599 C663 2.805 . S
N600 C590 1.359 . S
N600 Gd599 2.570 . S
N600 C602 1.343 . S
C601 C589 1.422 . S
C601 C603 1.321 . S
C601 H609 0.931 . S
C602 N600 1.343 . S
C602 C603 1.390 . S
C602 H604 0.931 . S
C603 C601 1.321 . S
C603 C602 1.390 . S
C603 H605 0.930 . S
H604 C602 0.931 . S
H605 C603 0.930 . S
H606 C629 0.931 . S
H607 C595 0.929 . S
H608 C630 0.930 . S
H609 C601 0.931 . S
H610 C591 0.930 . S
H611 C620 0.929 . S
H612 C596 0.931 . S
H613 C597 0.930 . S
H614 C652 0.930 . S
H615 C593 0.929 . S
H616 C621 0.931 . S
H617 C622 0.930 . S
N618 Gd598 2.622 1_556 S
N618 C619 1.369 . S
N618 C620 1.338 . S
C619 N618 1.369 . S
C619 C623 1.415 . S
C619 C626 1.422 1_556 S
C620 H611 0.929 . S
C620 N618 1.338 . S
C620 C622 1.378 . S
C621 H616 0.931 . S
C621 C622 1.348 . S
C621 C623 1.413 . S
C622 H617 0.930 . S
C622 C620 1.378 . S
C622 C621 1.348 . S
C623 C619 1.415 . S
C623 C621 1.413 . S
C623 C653 1.437 . S
H624 C653 0.929 . S
N625 Gd598 2.570 . S
N625 C626 1.359 . S
N625 C629 1.343 . S
C626 C619 1.422 1_554 S
C626 N625 1.359 . S
C626 C628 1.421 . S
C627 C628 1.422 . S
C627 C630 1.321 . S
C627 H654 0.931 . S
C628 C626 1.421 . S
C628 C627 1.422 . S
C628 C652 1.417 1_554 S
C629 H606 0.931 . S
C629 N625 1.343 . S
C629 C630 1.390 . S
C630 H608 0.930 . S
C630 C627 1.321 . S
C630 C629 1.390 . S
O631 Gd599 2.386 . S
O631 C643 1.265 . S
O632 Gd598 2.353 . S
O632 C643 1.242 . S
O633 Gd598 2.468 . S
O633 C651 1.263 . S
O634 Gd598 2.427 . S
O634 C651 1.252 . S
O635 Gd599 2.307 . S
O635 C644 1.261 . S
O636 Gd598 2.388 . S
O636 C644 1.252 . S
O637 Gd598 2.386 . S
O637 C655 1.265 . S
O638 Gd599 2.353 . S
O638 C655 1.242 . S
O639 Gd599 2.468 . S
O639 C663 1.263 . S
O640 Gd599 2.427 . S
O640 C663 1.252 . S
O641 Gd598 2.307 . S
O641 C656 1.261 . S
O642 Gd599 2.388 . S
O642 C656 1.252 . S
C643 O631 1.265 . S
C643 O632 1.242 . S
C644 O635 1.261 . S
C644 O636 1.252 . S
C645 C648 1.394 . S
C645 C650 1.370 . S
C645 C651 1.500 . S
C646 C649 1.383 . S
C646 C650 1.395 . S
C647 C648 1.396 . S
C647 C649 1.365 . S
C647 H664 0.929 . S
C648 C645 1.394 . S
C648 C647 1.396 . S
C648 H665 0.930 . S
C649 C646 1.383 . S
C649 C647 1.365 . S
C649 H666 0.931 . S
C650 C645 1.370 . S
C650 C646 1.395 . S
C650 H667 0.930 . S
C651 Gd598 2.805 . S
C651 O633 1.263 . S
C651 O634 1.252 . S
C651 C645 1.500 . S
C652 H614 0.930 . S
C652 C628 1.417 1_556 S
C652 C653 1.329 . S
C653 C623 1.437 . S
C653 H624 0.929 . S
C653 C652 1.329 . S
H654 C627 0.931 . S
C655 O637 1.265 . S
C655 O638 1.242 . S
C656 O641 1.261 . S
C656 O642 1.252 . S
C657 C660 1.394 . S
C657 C662 1.370 . S
C657 C663 1.500 . S
C658 C661 1.383 . S
C658 C662 1.395 . S
C659 C660 1.396 . S
C659 C661 1.365 . S
C659 H668 0.929 . S
C660 C657 1.394 . S
C660 C659 1.396 . S
C660 H669 0.930 . S
C661 C658 1.383 . S
C661 C659 1.365 . S
C661 H670 0.931 . S
C662 C657 1.370 . S
C662 C658 1.395 . S
C662 H671 0.930 . S
C663 Gd599 2.805 . S
C663 O639 1.263 . S
C663 O640 1.252 . S
C663 C657 1.500 . S
H664 C647 0.929 . S
H665 C648 0.930 . S
H666 C649 0.931 . S
H667 C650 0.930 . S
H668 C659 0.929 . S
H669 C660 0.930 . S
H670 C661 0.931 . S
H671 C662 0.930 . S
C672 C674 1.422 . S
C672 C676 1.415 . S
C672 N678 1.369 . S
C673 C674 1.421 . S
C673 C675 1.417 . S
C673 C685 1.422 . S
C674 C672 1.422 . S
C674 C673 1.421 . S
C674 N684 1.359 . S
C675 C673 1.417 . S
C675 C677 1.329 . S
C675 H694 0.930 . S
C676 C672 1.415 . S
C676 C677 1.437 . S
C676 C680 1.413 . S
C677 C675 1.329 . S
C677 C676 1.437 . S
C677 H699 0.929 . S
N678 C672 1.369 . S
N678 C679 1.338 . S
N678 Gd683 2.622 . S
C679 N678 1.338 . S
C679 C681 1.378 . S
C679 H691 0.929 . S
C680 C676 1.413 . S
C680 C681 1.348 . S
C680 H696 0.931 . S
C681 C679 1.378 . S
C681 C680 1.348 . S
C681 H697 0.930 . S
Gd682 N702 2.622 . S
Gd682 N709 2.570 . S
Gd682 O716 2.353 . S
Gd682 O717 2.468 . S
Gd682 O718 2.427 . S
Gd682 O720 2.388 . S
Gd682 O721 2.386 . S
Gd682 O725 2.307 . S
Gd682 C735 2.805 . S
Gd683 N678 2.622 . S
Gd683 N684 2.570 . S
Gd683 O715 2.386 . S
Gd683 O719 2.307 . S
Gd683 O722 2.353 . S
Gd683 O723 2.468 . S
Gd683 O724 2.427 . S
Gd683 O726 2.388 . S
Gd683 C747 2.805 . S
N684 C674 1.359 . S
N684 Gd683 2.570 . S
N684 C686 1.343 . S
C685 C673 1.422 . S
C685 C687 1.321 . S
C685 H693 0.931 . S
C686 N684 1.343 . S
C686 C687 1.390 . S
C686 H688 0.931 . S
C687 C685 1.321 . S
C687 C686 1.390 . S
C687 H689 0.930 . S
H688 C686 0.931 . S
H689 C687 0.930 . S
H690 C713 0.931 . S
H691 C679 0.929 . S
H692 C714 0.930 . S
H693 C685 0.931 . S
H694 C675 0.930 . S
H695 C704 0.929 . S
H696 C680 0.931 . S
H697 C681 0.930 . S
H698 C736 0.930 . S
H699 C677 0.929 . S
H700 C705 0.931 . S
H701 C706 0.930 . S
N702 Gd682 2.622 . S
N702 C703 1.369 . S
N702 C704 1.338 . S
C703 N702 1.369 . S
C703 C707 1.415 . S
C703 C710 1.422 . S
C704 H695 0.929 . S
C704 N702 1.338 . S
C704 C706 1.378 . S
C705 H700 0.931 . S
C705 C706 1.348 . S
C705 C707 1.413 . S
C706 H701 0.930 . S
C706 C704 1.378 . S
C706 C705 1.348 . S
C707 C703 1.415 . S
C707 C705 1.413 . S
C707 C737 1.437 . S
H708 C737 0.929 . S
N709 Gd682 2.570 . S
N709 C710 1.359 . S
N709 C713 1.343 . S
C710 C703 1.422 . S
C710 N709 1.359 . S
C710 C712 1.421 . S
C711 C712 1.422 . S
C711 C714 1.321 . S
C711 H738 0.931 . S
C712 C710 1.421 . S
C712 C711 1.422 . S
C712 C736 1.417 . S
C713 H690 0.931 . S
C713 N709 1.343 . S
C713 C714 1.390 . S
C714 H692 0.930 . S
C714 C711 1.321 . S
C714 C713 1.390 . S
O715 Gd683 2.386 . S
O715 C727 1.265 . S
O716 Gd682 2.353 . S
O716 C727 1.242 . S
O717 Gd682 2.468 . S
O717 C735 1.263 . S
O718 Gd682 2.427 . S
O718 C735 1.252 . S
O719 Gd683 2.307 . S
O719 C728 1.261 . S
O720 Gd682 2.388 . S
O720 C728 1.252 . S
O721 Gd682 2.386 . S
O721 C739 1.265 . S
O722 Gd683 2.353 . S
O722 C739 1.242 . S
O723 Gd683 2.468 . S
O723 C747 1.263 . S
O724 Gd683 2.427 . S
O724 C747 1.252 . S
O725 Gd682 2.307 . S
O725 C740 1.261 . S
O726 Gd683 2.388 . S
O726 C740 1.252 . S
C727 O715 1.265 . S
C727 O716 1.242 . S
C728 O719 1.261 . S
C728 O720 1.252 . S
C729 C732 1.394 . S
C729 C734 1.370 . S
C729 C735 1.500 . S
C730 C733 1.383 . S
C730 C734 1.395 . S
C731 C732 1.396 . S
C731 C733 1.365 . S
C731 H748 0.929 . S
C732 C729 1.394 . S
C732 C731 1.396 . S
C732 H749 0.930 . S
C733 C730 1.383 . S
C733 C731 1.365 . S
C733 H750 0.931 . S
C734 C729 1.370 . S
C734 C730 1.395 . S
C734 H751 0.930 . S
C735 Gd682 2.805 . S
C735 O717 1.263 . S
C735 O718 1.252 . S
C735 C729 1.500 . S
C736 H698 0.930 . S
C736 C712 1.417 . S
C736 C737 1.329 . S
C737 C707 1.437 . S
C737 H708 0.929 . S
C737 C736 1.329 . S
H738 C711 0.931 . S
C739 O721 1.265 . S
C739 O722 1.242 . S
C740 O725 1.261 . S
C740 O726 1.252 . S
C741 C744 1.394 . S
C741 C746 1.370 . S
C741 C747 1.500 . S
C742 C745 1.383 . S
C742 C746 1.395 . S
C743 C744 1.396 . S
C743 C745 1.365 . S
C743 H752 0.929 . S
C744 C741 1.394 . S
C744 C743 1.396 . S
C744 H753 0.930 . S
C745 C742 1.383 . S
C745 C743 1.365 . S
C745 H754 0.931 . S
C746 C741 1.370 . S
C746 C742 1.395 . S
C746 H755 0.930 . S
C747 Gd683 2.805 . S
C747 O723 1.263 . S
C747 O724 1.252 . S
C747 C741 1.500 . S
H748 C731 0.929 . S
H749 C732 0.930 . S
H750 C733 0.931 . S
H751 C734 0.930 . S
H752 C743 0.929 . S
H753 C744 0.930 . S
H754 C745 0.931 . S
H755 C746 0.930 . S
C756 C758 1.422 . S
C756 C760 1.415 . S
C756 N762 1.369 . S
C757 C758 1.421 . S
C757 C759 1.417 . S
C757 C769 1.422 . S
C758 C756 1.422 . S
C758 C757 1.421 . S
C758 N768 1.359 . S
C759 C757 1.417 . S
C759 C761 1.329 . S
C759 H778 0.930 . S
C760 C756 1.415 . S
C760 C761 1.437 . S
C760 C764 1.413 . S
C761 C759 1.329 . S
C761 C760 1.437 . S
C761 H783 0.929 . S
N762 C756 1.369 . S
N762 C763 1.338 . S
N762 Gd767 2.622 . S
C763 N762 1.338 . S
C763 C765 1.378 . S
C763 H775 0.929 . S
C764 C760 1.413 . S
C764 C765 1.348 . S
C764 H780 0.931 . S
C765 C763 1.378 . S
C765 C764 1.348 . S
C765 H781 0.930 . S
Gd766 N786 2.622 . S
Gd766 N793 2.570 . S
Gd766 O800 2.353 . S
Gd766 O801 2.468 . S
Gd766 O802 2.427 . S
Gd766 O804 2.388 . S
Gd766 O805 2.386 . S
Gd766 O809 2.307 . S
Gd766 C819 2.805 . S
Gd767 N762 2.622 . S
Gd767 N768 2.570 . S
Gd767 O799 2.386 . S
Gd767 O803 2.307 . S
Gd767 O806 2.353 . S
Gd767 O807 2.468 . S
Gd767 O808 2.427 . S
Gd767 O810 2.388 . S
Gd767 C831 2.805 . S
N768 C758 1.359 . S
N768 Gd767 2.570 . S
N768 C770 1.343 . S
C769 C757 1.422 . S
C769 C771 1.321 . S
C769 H777 0.931 . S
C770 N768 1.343 . S
C770 C771 1.390 . S
C770 H772 0.931 . S
C771 C769 1.321 . S
C771 C770 1.390 . S
C771 H773 0.930 . S
H772 C770 0.931 . S
H773 C771 0.930 . S
H774 C797 0.931 . S
H775 C763 0.929 . S
H776 C798 0.930 . S
H777 C769 0.931 . S
H778 C759 0.930 . S
H779 C788 0.929 . S
H780 C764 0.931 . S
H781 C765 0.930 . S
H782 C820 0.930 . S
H783 C761 0.929 . S
H784 C789 0.931 . S
H785 C790 0.930 . S
N786 Gd766 2.622 . S
N786 C787 1.369 . S
N786 C788 1.338 . S
C787 N786 1.369 . S
C787 C791 1.415 . S
C787 C794 1.422 . S
C788 H779 0.929 . S
C788 N786 1.338 . S
C788 C790 1.378 . S
C789 H784 0.931 . S
C789 C790 1.348 . S
C789 C791 1.413 . S
C790 H785 0.930 . S
C790 C788 1.378 . S
C790 C789 1.348 . S
C791 C787 1.415 . S
C791 C789 1.413 . S
C791 C821 1.437 . S
H792 C821 0.929 . S
N793 Gd766 2.570 . S
N793 C794 1.359 . S
N793 C797 1.343 . S
C794 C787 1.422 . S
C794 N793 1.359 . S
C794 C796 1.421 . S
C795 C796 1.422 . S
C795 C798 1.321 . S
C795 H822 0.931 . S
C796 C794 1.421 . S
C796 C795 1.422 . S
C796 C820 1.417 . S
C797 H774 0.931 . S
C797 N793 1.343 . S
C797 C798 1.390 . S
C798 H776 0.930 . S
C798 C795 1.321 . S
C798 C797 1.390 . S
O799 Gd767 2.386 . S
O799 C811 1.265 . S
O800 Gd766 2.353 . S
O800 C811 1.242 . S
O801 Gd766 2.468 . S
O801 C819 1.263 . S
O802 Gd766 2.427 . S
O802 C819 1.252 . S
O803 Gd767 2.307 . S
O803 C812 1.261 . S
O804 Gd766 2.388 . S
O804 C812 1.252 . S
O805 Gd766 2.386 . S
O805 C823 1.265 . S
O806 Gd767 2.353 . S
O806 C823 1.242 . S
O807 Gd767 2.468 . S
O807 C831 1.263 . S
O808 Gd767 2.427 . S
O808 C831 1.252 . S
O809 Gd766 2.307 . S
O809 C824 1.261 . S
O810 Gd767 2.388 . S
O810 C824 1.252 . S
C811 O799 1.265 . S
C811 O800 1.242 . S
C812 O803 1.261 . S
C812 O804 1.252 . S
C813 C816 1.394 . S
C813 C818 1.370 . S
C813 C819 1.500 . S
C814 C817 1.383 . S
C814 C818 1.395 . S
C815 C816 1.396 . S
C815 C817 1.365 . S
C815 H832 0.929 . S
C816 C813 1.394 . S
C816 C815 1.396 . S
C816 H833 0.930 . S
C817 C814 1.383 . S
C817 C815 1.365 . S
C817 H834 0.931 . S
C818 C813 1.370 . S
C818 C814 1.395 . S
C818 H835 0.930 . S
C819 Gd766 2.805 . S
C819 O801 1.263 . S
C819 O802 1.252 . S
C819 C813 1.500 . S
C820 H782 0.930 . S
C820 C796 1.417 . S
C820 C821 1.329 . S
C821 C791 1.437 . S
C821 H792 0.929 . S
C821 C820 1.329 . S
H822 C795 0.931 . S
C823 O805 1.265 . S
C823 O806 1.242 . S
C824 O809 1.261 . S
C824 O810 1.252 . S
C825 C828 1.394 . S
C825 C830 1.370 . S
C825 C831 1.500 . S
C826 C829 1.383 . S
C826 C830 1.395 . S
C827 C828 1.396 . S
C827 C829 1.365 . S
C827 H836 0.929 . S
C828 C825 1.394 . S
C828 C827 1.396 . S
C828 H837 0.930 . S
C829 C826 1.383 . S
C829 C827 1.365 . S
C829 H838 0.931 . S
C830 C825 1.370 . S
C830 C826 1.395 . S
C830 H839 0.930 . S
C831 Gd767 2.805 . S
C831 O807 1.263 . S
C831 O808 1.252 . S
C831 C825 1.500 . S
H832 C815 0.929 . S
H833 C816 0.930 . S
H834 C817 0.931 . S
H835 C818 0.930 . S
H836 C827 0.929 . S
H837 C828 0.930 . S
H838 C829 0.931 . S
H839 C830 0.930 . S
C840 C842 1.422 . S
C840 C844 1.415 . S
C840 N846 1.369 . S
C841 C842 1.421 . S
C841 C843 1.417 . S
C841 C853 1.422 . S
C842 C840 1.422 . S
C842 C841 1.421 . S
C842 N852 1.359 . S
C843 C841 1.417 . S
C843 C845 1.329 . S
C843 H862 0.930 . S
C844 C840 1.415 . S
C844 C845 1.437 . S
C844 C848 1.413 . S
C845 C843 1.329 . S
C845 C844 1.437 . S
C845 H867 0.929 . S
N846 C840 1.369 . S
N846 C847 1.338 . S
N846 Gd851 2.622 . S
C847 N846 1.338 . S
C847 C849 1.378 . S
C847 H859 0.929 . S
C848 C844 1.413 . S
C848 C849 1.348 . S
C848 H864 0.931 . S
C849 C847 1.378 . S
C849 C848 1.348 . S
C849 H865 0.930 . S
Gd850 N870 2.622 . S
Gd850 N877 2.570 1_455 S
Gd850 O884 2.353 . S
Gd850 O885 2.468 1_455 S
Gd850 O886 2.427 1_455 S
Gd850 O888 2.388 . S
Gd850 O889 2.386 . S
Gd850 O893 2.307 . S
Gd850 C903 2.805 1_455 S
Gd851 N846 2.622 . S
Gd851 N852 2.570 . S
Gd851 O883 2.386 . S
Gd851 O887 2.307 . S
Gd851 O890 2.353 . S
Gd851 O891 2.468 . S
Gd851 O892 2.427 . S
Gd851 O894 2.388 . S
Gd851 C915 2.805 . S
N852 C842 1.359 . S
N852 Gd851 2.570 . S
N852 C854 1.343 . S
C853 C841 1.422 . S
C853 C855 1.321 . S
C853 H861 0.931 . S
C854 N852 1.343 . S
C854 C855 1.390 . S
C854 H856 0.931 . S
C855 C853 1.321 . S
C855 C854 1.390 . S
C855 H857 0.930 . S
H856 C854 0.931 . S
H857 C855 0.930 . S
H858 C881 0.931 . S
H859 C847 0.929 . S
H860 C882 0.930 . S
H861 C853 0.931 . S
H862 C843 0.930 . S
H863 C872 0.929 . S
H864 C848 0.931 . S
H865 C849 0.930 . S
H866 C904 0.930 . S
H867 C845 0.929 . S
H868 C873 0.931 . S
H869 C874 0.930 . S
N870 Gd850 2.622 . S
N870 C871 1.369 . S
N870 C872 1.338 . S
C871 N870 1.369 . S
C871 C875 1.415 . S
C871 C878 1.422 1_455 S
C872 H863 0.929 . S
C872 N870 1.338 . S
C872 C874 1.378 . S
C873 H868 0.931 . S
C873 C874 1.348 . S
C873 C875 1.413 . S
C874 H869 0.930 . S
C874 C872 1.378 . S
C874 C873 1.348 . S
C875 C871 1.415 . S
C875 C873 1.413 . S
C875 C905 1.437 1_455 S
H876 C905 0.929 . S
N877 Gd850 2.570 1_655 S
N877 C878 1.359 . S
N877 C881 1.343 . S
C878 C871 1.422 1_655 S
C878 N877 1.359 . S
C878 C880 1.421 . S
C879 C880 1.422 . S
C879 C882 1.321 . S
C879 H906 0.931 . S
C880 C878 1.421 . S
C880 C879 1.422 . S
C880 C904 1.417 . S
C881 H858 0.931 . S
C881 N877 1.343 . S
C881 C882 1.390 . S
C882 H860 0.930 . S
C882 C879 1.321 . S
C882 C881 1.390 . S
O883 Gd851 2.386 . S
O883 C895 1.265 . S
O884 Gd850 2.353 . S
O884 C895 1.242 . S
O885 Gd850 2.468 1_655 S
O885 C903 1.263 . S
O886 Gd850 2.427 1_655 S
O886 C903 1.252 . S
O887 Gd851 2.307 . S
O887 C896 1.261 . S
O888 Gd850 2.388 . S
O888 C896 1.252 . S
O889 Gd850 2.386 . S
O889 C907 1.265 . S
O890 Gd851 2.353 . S
O890 C907 1.242 . S
O891 Gd851 2.468 . S
O891 C915 1.263 . S
O892 Gd851 2.427 . S
O892 C915 1.252 . S
O893 Gd850 2.307 . S
O893 C908 1.261 . S
O894 Gd851 2.388 . S
O894 C908 1.252 . S
C895 O883 1.265 . S
C895 O884 1.242 . S
C896 O887 1.261 . S
C896 O888 1.252 . S
C897 C900 1.394 . S
C897 C902 1.370 . S
C897 C903 1.500 . S
C898 C901 1.383 . S
C898 C902 1.395 . S
C899 C900 1.396 . S
C899 C901 1.365 . S
C899 H916 0.929 . S
C900 C897 1.394 . S
C900 C899 1.396 . S
C900 H917 0.930 . S
C901 C898 1.383 . S
C901 C899 1.365 . S
C901 H918 0.931 . S
C902 C897 1.370 . S
C902 C898 1.395 . S
C902 H919 0.930 . S
C903 Gd850 2.805 1_655 S
C903 O885 1.263 . S
C903 O886 1.252 . S
C903 C897 1.500 . S
C904 H866 0.930 . S
C904 C880 1.417 . S
C904 C905 1.329 . S
C905 C875 1.437 1_655 S
C905 H876 0.929 . S
C905 C904 1.329 . S
H906 C879 0.931 . S
C907 O889 1.265 . S
C907 O890 1.242 . S
C908 O893 1.261 . S
C908 O894 1.252 . S
C909 C912 1.394 . S
C909 C914 1.370 . S
C909 C915 1.500 . S
C910 C913 1.383 . S
C910 C914 1.395 . S
C911 C912 1.396 . S
C911 C913 1.365 . S
C911 H920 0.929 . S
C912 C909 1.394 . S
C912 C911 1.396 . S
C912 H921 0.930 . S
C913 C910 1.383 . S
C913 C911 1.365 . S
C913 H922 0.931 . S
C914 C909 1.370 . S
C914 C910 1.395 . S
C914 H923 0.930 . S
C915 Gd851 2.805 . S
C915 O891 1.263 . S
C915 O892 1.252 . S
C915 C909 1.500 . S
H916 C899 0.929 . S
H917 C900 0.930 . S
H918 C901 0.931 . S
H919 C902 0.930 . S
H920 C911 0.929 . S
H921 C912 0.930 . S
H922 C913 0.931 . S
H923 C914 0.930 . S
C924 C926 1.422 . S
C924 C928 1.415 . S
C924 N930 1.369 . S
C925 C926 1.421 . S
C925 C927 1.417 . S
C925 C937 1.422 . S
C926 C924 1.422 . S
C926 C925 1.421 . S
C926 N936 1.359 . S
C927 C925 1.417 . S
C927 C929 1.329 . S
C927 H946 0.930 . S
C928 C924 1.415 . S
C928 C929 1.437 . S
C928 C932 1.413 . S
C929 C927 1.329 . S
C929 C928 1.437 . S
C929 H951 0.929 . S
N930 C924 1.369 . S
N930 C931 1.338 . S
N930 Gd935 2.622 . S
C931 N930 1.338 . S
C931 C933 1.378 . S
C931 H943 0.929 . S
C932 C928 1.413 . S
C932 C933 1.348 . S
C932 H948 0.931 . S
C933 C931 1.378 . S
C933 C932 1.348 . S
C933 H949 0.930 . S
Gd934 N954 2.622 . S
Gd934 N961 2.570 . S
Gd934 O968 2.353 . S
Gd934 O969 2.468 . S
Gd934 O970 2.427 . S
Gd934 O972 2.388 . S
Gd934 O973 2.386 . S
Gd934 O977 2.307 . S
Gd934 C987 2.805 . S
Gd935 N930 2.622 . S
Gd935 N936 2.570 . S
Gd935 O967 2.386 . S
Gd935 O971 2.307 . S
Gd935 O974 2.353 1_545 S
Gd935 O975 2.468 1_545 S
Gd935 O976 2.427 1_545 S
Gd935 O978 2.388 . S
Gd935 C999 2.805 1_545 S
N936 C926 1.359 . S
N936 Gd935 2.570 . S
N936 C938 1.343 . S
C937 C925 1.422 . S
C937 C939 1.321 . S
C937 H945 0.931 . S
C938 N936 1.343 . S
C938 C939 1.390 . S
C938 H940 0.931 . S
C939 C937 1.321 . S
C939 C938 1.390 . S
C939 H941 0.930 . S
H940 C938 0.931 . S
H941 C939 0.930 . S
H942 C965 0.931 . S
H943 C931 0.929 . S
H944 C966 0.930 . S
H945 C937 0.931 . S
H946 C927 0.930 . S
H947 C956 0.929 . S
H948 C932 0.931 . S
H949 C933 0.930 . S
H950 C988 0.930 . S
H951 C929 0.929 . S
H952 C957 0.931 . S
H953 C958 0.930 . S
N954 Gd934 2.622 . S
N954 C955 1.369 . S
N954 C956 1.338 . S
C955 N954 1.369 . S
C955 C959 1.415 . S
C955 C962 1.422 . S
C956 H947 0.929 . S
C956 N954 1.338 . S
C956 C958 1.378 . S
C957 H952 0.931 . S
C957 C958 1.348 . S
C957 C959 1.413 . S
C958 H953 0.930 . S
C958 C956 1.378 . S
C958 C957 1.348 . S
C959 C955 1.415 . S
C959 C957 1.413 . S
C959 C989 1.437 . S
H960 C989 0.929 . S
N961 Gd934 2.570 . S
N961 C962 1.359 . S
N961 C965 1.343 . S
C962 C955 1.422 . S
C962 N961 1.359 . S
C962 C964 1.421 . S
C963 C964 1.422 . S
C963 C966 1.321 . S
C963 H990 0.931 . S
C964 C962 1.421 . S
C964 C963 1.422 . S
C964 C988 1.417 . S
C965 H942 0.931 . S
C965 N961 1.343 . S
C965 C966 1.390 . S
C966 H944 0.930 . S
C966 C963 1.321 . S
C966 C965 1.390 . S
O967 Gd935 2.386 . S
O967 C979 1.265 . S
O968 Gd934 2.353 . S
O968 C979 1.242 . S
O969 Gd934 2.468 . S
O969 C987 1.263 . S
O970 Gd934 2.427 . S
O970 C987 1.252 . S
O971 Gd935 2.307 . S
O971 C980 1.261 . S
O972 Gd934 2.388 . S
O972 C980 1.252 . S
O973 Gd934 2.386 . S
O973 C991 1.274 . S
O974 Gd935 2.353 1_565 S
O974 C991 1.239 1_565 S
O975 Gd935 2.468 1_565 S
O975 C999 1.263 . S
O976 Gd935 2.427 1_565 S
O976 C999 1.252 . S
O977 Gd934 2.307 . S
O977 C992 1.261 . S
O978 Gd935 2.388 . S
O978 C992 1.252 . S
C979 O967 1.265 . S
C979 O968 1.242 . S
C980 O971 1.261 . S
C980 O972 1.252 . S
C981 C984 1.394 . S
C981 C986 1.370 . S
C981 C987 1.500 . S
C982 C985 1.383 . S
C982 C986 1.395 . S
C983 C984 1.396 . S
C983 C985 1.365 . S
C983 H1000 0.929 . S
C984 C981 1.394 . S
C984 C983 1.396 . S
C984 H1001 0.930 . S
C985 C982 1.383 . S
C985 C983 1.365 . S
C985 H1002 0.931 . S
C986 C981 1.370 . S
C986 C982 1.395 . S
C986 H1003 0.930 . S
C987 Gd934 2.805 . S
C987 O969 1.263 . S
C987 O970 1.252 . S
C987 C981 1.500 . S
C988 H950 0.930 . S
C988 C964 1.417 . S
C988 C989 1.329 . S
C989 C959 1.437 . S
C989 H960 0.929 . S
C989 C988 1.329 . S
H990 C963 0.931 . S
C991 O973 1.274 . S
C991 O974 1.239 1_545 S
C992 O977 1.261 . S
C992 O978 1.252 . S
C993 C996 1.394 . S
C993 C998 1.370 . S
C993 C999 1.500 . S
C994 C997 1.383 . S
C994 C998 1.395 . S
C995 C996 1.396 . S
C995 C997 1.365 . S
C995 H1004 0.929 . S
C996 C993 1.394 . S
C996 C995 1.396 . S
C996 H1005 0.930 . S
C997 C994 1.383 . S
C997 C995 1.365 . S
C997 H1006 0.931 . S
C998 C993 1.370 . S
C998 C994 1.395 . S
C998 H1007 0.930 . S
C999 Gd935 2.805 1_565 S
C999 O975 1.263 . S
C999 O976 1.252 . S
C999 C993 1.500 . S
H1000 C983 0.929 . S
H1001 C984 0.930 . S
H1002 C985 0.931 . S
H1003 C986 0.930 . S
H1004 C995 0.929 . S
H1005 C996 0.930 . S
H1006 C997 0.931 . S
H1007 C998 0.930 . S
C1008 C1010 1.422 . S
C1008 C1012 1.415 . S
C1008 N1014 1.369 . S
C1009 C1010 1.421 . S
C1009 C1011 1.417 . S
C1009 C1021 1.422 . S
C1010 C1008 1.422 . S
C1010 C1009 1.421 . S
C1010 N1020 1.359 . S
C1011 C1009 1.417 . S
C1011 C1013 1.329 . S
C1011 H1030 0.930 . S
C1012 C1008 1.415 . S
C1012 C1013 1.437 . S
C1012 C1016 1.413 . S
C1013 C1011 1.329 . S
C1013 C1012 1.437 . S
C1013 H1035 0.929 . S
N1014 C1008 1.369 . S
N1014 C1015 1.338 . S
N1014 Gd1019 2.622 . S
C1015 N1014 1.338 . S
C1015 C1017 1.378 . S
C1015 H1027 0.929 . S
C1016 C1012 1.413 . S
C1016 C1017 1.348 . S
C1016 H1032 0.931 . S
C1017 C1015 1.378 . S
C1017 C1016 1.348 . S
C1017 H1033 0.930 . S
Gd1018 N1038 2.622 1_556 S
Gd1018 N1045 2.570 1_655 S
Gd1018 O1052 2.353 . S
Gd1018 O1053 2.468 1_655 S
Gd1018 O1054 2.427 1_655 S
Gd1018 O1056 2.388 . S
Gd1018 O1057 2.386 . S
Gd1018 O1061 2.307 . S
Gd1018 C1071 2.805 1_655 S
Gd1019 N1014 2.622 . S
Gd1019 N1020 2.570 . S
Gd1019 O1051 2.386 . S
Gd1019 O1055 2.307 . S
Gd1019 O1058 2.353 . S
Gd1019 O1059 2.468 . S
Gd1019 O1060 2.427 . S
Gd1019 O1062 2.388 . S
Gd1019 C1083 2.805 . S
N1020 C1010 1.359 . S
N1020 Gd1019 2.570 . S
N1020 C1022 1.343 . S
C1021 C1009 1.422 . S
C1021 C1023 1.321 . S
C1021 H1029 0.931 . S
C1022 N1020 1.343 . S
C1022 C1023 1.390 . S
C1022 H1024 0.931 . S
C1023 C1021 1.321 . S
C1023 C1022 1.390 . S
C1023 H1025 0.930 . S
H1024 C1022 0.931 . S
H1025 C1023 0.930 . S
H1026 C1049 0.931 . S
H1027 C1015 0.929 . S
H1028 C1050 0.930 1_556 S
H1029 C1021 0.931 . S
H1030 C1011 0.930 . S
H1031 C1040 0.929 1_556 S
H1032 C1016 0.931 . S
H1033 C1017 0.930 . S
H1034 C1072 0.930 . S
H1035 C1013 0.929 . S
H1036 C1041 0.931 . S
H1037 C1042 0.930 . S
N1038 Gd1018 2.622 1_554 S
N1038 C1039 1.369 . S
N1038 C1040 1.338 . S
C1039 N1038 1.369 . S
C1039 C1043 1.415 . S
C1039 C1046 1.422 1_655 S
C1040 H1031 0.929 1_554 S
C1040 N1038 1.338 . S
C1040 C1042 1.378 . S
C1041 H1036 0.931 . S
C1041 C1042 1.348 . S
C1041 C1043 1.413 . S
C1042 H1037 0.930 . S
C1042 C1040 1.378 . S
C1042 C1041 1.348 . S
C1043 C1039 1.415 . S
C1043 C1041 1.413 . S
C1043 C1073 1.437 1_655 S
H1044 C1073 0.929 . S
N1045 Gd1018 2.570 1_455 S
N1045 C1046 1.359 1_556 S
N1045 C1049 1.343 . S
C1046 C1039 1.422 1_455 S
C1046 N1045 1.359 1_554 S
C1046 C1048 1.421 . S
C1047 C1048 1.422 . S
C1047 C1050 1.321 . S
C1047 H1074 0.931 . S
C1048 C1046 1.421 . S
C1048 C1047 1.422 . S
C1048 C1072 1.417 . S
C1049 H1026 0.931 . S
C1049 N1045 1.343 . S
C1049 C1050 1.390 1_556 S
C1050 H1028 0.930 1_554 S
C1050 C1047 1.321 . S
C1050 C1049 1.390 1_554 S
O1051 Gd1019 2.386 . S
O1051 C1063 1.265 . S
O1052 Gd1018 2.353 . S
O1052 C1063 1.242 . S
O1053 Gd1018 2.468 1_455 S
O1053 C1071 1.263 . S
O1054 Gd1018 2.427 1_455 S
O1054 C1071 1.252 . S
O1055 Gd1019 2.307 . S
O1055 C1064 1.261 . S
O1056 Gd1018 2.388 . S
O1056 C1064 1.252 . S
O1057 Gd1018 2.386 . S
O1057 C1075 1.265 . S
O1058 Gd1019 2.353 . S
O1058 C1075 1.242 . S
O1059 Gd1019 2.468 . S
O1059 C1083 1.263 . S
O1060 Gd1019 2.427 . S
O1060 C1083 1.252 . S
O1061 Gd1018 2.307 . S
O1061 C1076 1.261 . S
O1062 Gd1019 2.388 . S
O1062 C1076 1.252 . S
C1063 O1051 1.265 . S
C1063 O1052 1.242 . S
C1064 O1055 1.261 . S
C1064 O1056 1.252 . S
C1065 C1068 1.394 . S
C1065 C1070 1.370 . S
C1065 C1071 1.500 . S
C1066 C1069 1.383 . S
C1066 C1070 1.395 . S
C1067 C1068 1.396 . S
C1067 C1069 1.365 . S
C1067 H1084 0.929 . S
C1068 C1065 1.394 . S
C1068 C1067 1.396 . S
C1068 H1085 0.930 . S
C1069 C1066 1.383 . S
C1069 C1067 1.365 . S
C1069 H1086 0.931 . S
C1070 C1065 1.370 . S
C1070 C1066 1.395 . S
C1070 H1087 0.930 . S
C1071 Gd1018 2.805 1_455 S
C1071 O1053 1.263 . S
C1071 O1054 1.252 . S
C1071 C1065 1.500 . S
C1072 H1034 0.930 . S
C1072 C1048 1.417 . S
C1072 C1073 1.329 . S
C1073 C1043 1.437 1_455 S
C1073 H1044 0.929 . S
C1073 C1072 1.329 . S
H1074 C1047 0.931 . S
C1075 O1057 1.265 . S
C1075 O1058 1.242 . S
C1076 O1061 1.261 . S
C1076 O1062 1.252 . S
C1077 C1080 1.394 . S
C1077 C1082 1.370 . S
C1077 C1083 1.500 . S
C1078 C1081 1.383 . S
C1078 C1082 1.395 . S
C1079 C1080 1.396 . S
C1079 C1081 1.365 . S
C1079 H1088 0.929 . S
C1080 C1077 1.394 . S
C1080 C1079 1.396 . S
C1080 H1089 0.930 . S
C1081 C1078 1.383 . S
C1081 C1079 1.365 . S
C1081 H1090 0.931 . S
C1082 C1077 1.370 . S
C1082 C1078 1.395 . S
C1082 H1091 0.930 . S
C1083 Gd1019 2.805 . S
C1083 O1059 1.263 . S
C1083 O1060 1.252 . S
C1083 C1077 1.500 . S
H1084 C1067 0.929 . S
H1085 C1068 0.930 . S
H1086 C1069 0.931 . S
H1087 C1070 0.930 . S
H1088 C1079 0.929 . S
H1089 C1080 0.930 . S
H1090 C1081 0.931 . S
H1091 C1082 0.930 . S
C1092 C1094 1.422 . S
C1092 C1096 1.415 . S
C1092 N1098 1.369 . S
C1093 C1094 1.421 . S
C1093 C1095 1.417 . S
C1093 C1105 1.422 . S
C1094 C1092 1.422 . S
C1094 C1093 1.421 . S
C1094 N1104 1.359 . S
C1095 C1093 1.417 . S
C1095 C1097 1.329 . S
C1095 H1114 0.930 . S
C1096 C1092 1.415 . S
C1096 C1097 1.437 . S
C1096 C1100 1.413 . S
C1097 C1095 1.329 . S
C1097 C1096 1.437 . S
C1097 H1119 0.929 . S
N1098 C1092 1.369 . S
N1098 C1099 1.338 . S
N1098 Gd1103 2.622 . S
C1099 N1098 1.338 . S
C1099 C1101 1.378 . S
C1099 H1111 0.929 . S
C1100 C1096 1.413 . S
C1100 C1101 1.348 . S
C1100 H1116 0.931 . S
C1101 C1099 1.378 . S
C1101 C1100 1.348 . S
C1101 H1117 0.930 . S
Gd1102 N1122 2.622 1_556 S
Gd1102 N1129 2.570 1_565 S
Gd1102 O1136 2.353 . S
Gd1102 O1137 2.468 1_565 S
Gd1102 O1138 2.427 1_565 S
Gd1102 O1140 2.388 . S
Gd1102 O1141 2.386 . S
Gd1102 O1145 2.307 . S
Gd1102 C1155 2.805 1_565 S
Gd1103 N1098 2.622 . S
Gd1103 N1104 2.570 . S
Gd1103 O1135 2.386 . S
Gd1103 O1139 2.307 . S
Gd1103 O1142 2.353 . S
Gd1103 O1143 2.468 . S
Gd1103 O1144 2.427 . S
Gd1103 O1146 2.388 . S
Gd1103 C1167 2.805 . S
N1104 C1094 1.359 . S
N1104 Gd1103 2.570 . S
N1104 C1106 1.343 . S
C1105 C1093 1.422 . S
C1105 C1107 1.321 . S
C1105 H1113 0.931 . S
C1106 N1104 1.343 . S
C1106 C1107 1.390 . S
C1106 H1108 0.931 . S
C1107 C1105 1.321 . S
C1107 C1106 1.390 . S
C1107 H1109 0.930 . S
H1108 C1106 0.931 . S
H1109 C1107 0.930 . S
H1110 C1133 0.931 . S
H1111 C1099 0.929 . S
H1112 C1134 0.930 1_556 S
H1113 C1105 0.931 . S
H1114 C1095 0.930 . S
H1115 C1124 0.929 1_556 S
H1116 C1100 0.931 . S
H1117 C1101 0.930 . S
H1118 C1156 0.930 . S
H1119 C1097 0.929 . S
H1120 C1125 0.931 . S
H1121 C1126 0.930 . S
N1122 Gd1102 2.622 1_554 S
N1122 C1123 1.369 . S
N1122 C1124 1.338 . S
C1123 N1122 1.369 . S
C1123 C1127 1.415 . S
C1123 C1130 1.422 1_565 S
C1124 H1115 0.929 1_554 S
C1124 N1122 1.338 . S
C1124 C1126 1.378 . S
C1125 H1120 0.931 . S
C1125 C1126 1.348 . S
C1125 C1127 1.413 . S
C1126 H1121 0.930 . S
C1126 C1124 1.378 . S
C1126 C1125 1.348 . S
C1127 C1123 1.415 . S
C1127 C1125 1.413 . S
C1127 C1157 1.437 1_565 S
H1128 C1157 0.932 . S
N1129 Gd1102 2.570 1_545 S
N1129 C1130 1.359 1_556 S
N1129 C1133 1.343 . S
C1130 C1123 1.422 1_545 S
C1130 N1129 1.359 1_554 S
C1130 C1132 1.421 . S
C1131 C1132 1.422 . S
C1131 C1134 1.321 . S
C1131 H1158 0.931 . S
C1132 C1130 1.421 . S
C1132 C1131 1.422 . S
C1132 C1156 1.417 . S
C1133 H1110 0.931 . S
C1133 N1129 1.343 . S
C1133 C1134 1.390 1_556 S
C1134 H1112 0.930 1_554 S
C1134 C1131 1.321 . S
C1134 C1133 1.390 1_554 S
O1135 Gd1103 2.386 . S
O1135 C1147 1.265 . S
O1136 Gd1102 2.353 . S
O1136 C1147 1.242 . S
O1137 Gd1102 2.468 1_545 S
O1137 C1155 1.263 . S
O1138 Gd1102 2.427 1_545 S
O1138 C1155 1.252 . S
O1139 Gd1103 2.307 . S
O1139 C1148 1.261 . S
O1140 Gd1102 2.388 . S
O1140 C1148 1.252 . S
O1141 Gd1102 2.386 . S
O1141 C1159 1.265 . S
O1142 Gd1103 2.353 . S
O1142 C1159 1.242 . S
O1143 Gd1103 2.468 . S
O1143 C1167 1.263 . S
O1144 Gd1103 2.427 . S
O1144 C1167 1.252 . S
O1145 Gd1102 2.307 . S
O1145 C1160 1.261 . S
O1146 Gd1103 2.388 . S
O1146 C1160 1.252 . S
C1147 O1135 1.265 . S
C1147 O1136 1.242 . S
C1148 O1139 1.261 . S
C1148 O1140 1.252 . S
C1149 C1152 1.394 . S
C1149 C1154 1.370 . S
C1149 C1155 1.500 . S
C1150 C1153 1.383 . S
C1150 C1154 1.395 . S
C1151 C1152 1.396 . S
C1151 C1153 1.365 . S
C1151 H1168 0.929 . S
C1152 C1149 1.394 . S
C1152 C1151 1.396 . S
C1152 H1169 0.930 . S
C1153 C1150 1.383 . S
C1153 C1151 1.365 . S
C1153 H1170 0.931 . S
C1154 C1149 1.370 . S
C1154 C1150 1.395 . S
C1154 H1171 0.930 . S
C1155 Gd1102 2.805 1_545 S
C1155 O1137 1.263 . S
C1155 O1138 1.252 . S
C1155 C1149 1.500 . S
C1156 H1118 0.930 . S
C1156 C1132 1.417 . S
C1156 C1157 1.329 . S
C1157 C1127 1.437 1_545 S
C1157 H1128 0.932 . S
C1157 C1156 1.329 . S
H1158 C1131 0.931 . S
C1159 O1141 1.265 . S
C1159 O1142 1.242 . S
C1160 O1145 1.261 . S
C1160 O1146 1.252 . S
C1161 C1164 1.394 . S
C1161 C1166 1.370 . S
C1161 C1167 1.500 . S
C1162 C1165 1.383 . S
C1162 C1166 1.395 . S
C1163 C1164 1.396 . S
C1163 C1165 1.365 . S
C1163 H1172 0.929 . S
C1164 C1161 1.394 . S
C1164 C1163 1.396 . S
C1164 H1173 0.930 . S
C1165 C1162 1.383 . S
C1165 C1163 1.365 . S
C1165 H1174 0.931 . S
C1166 C1161 1.370 . S
C1166 C1162 1.395 . S
C1166 H1175 0.930 . S
C1167 Gd1103 2.805 . S
C1167 O1143 1.263 . S
C1167 O1144 1.252 . S
C1167 C1161 1.500 . S
H1168 C1151 0.929 . S
H1169 C1152 0.930 . S
H1170 C1153 0.931 . S
H1171 C1154 0.930 . S
H1172 C1163 0.929 . S
H1173 C1164 0.930 . S
H1174 C1165 0.931 . S
H1175 C1166 0.930 . S
C1176 C1178 1.422 1_554 S
C1176 C1180 1.415 . S
C1176 N1182 1.369 . S
C1177 C1178 1.421 . S
C1177 C1179 1.417 1_556 S
C1177 C1189 1.422 . S
C1178 C1176 1.422 1_556 S
C1178 C1177 1.421 . S
C1178 N1188 1.359 . S
C1179 C1177 1.417 1_554 S
C1179 C1181 1.329 . S
C1179 H1198 0.930 . S
C1180 C1176 1.415 . S
C1180 C1181 1.437 . S
C1180 C1184 1.413 . S
C1181 C1179 1.329 . S
C1181 C1180 1.437 . S
C1181 H1203 0.929 . S
N1182 C1176 1.369 . S
N1182 C1183 1.338 . S
N1182 Gd1187 2.622 1_554 S
C1183 N1182 1.338 . S
C1183 C1185 1.378 . S
C1183 H1195 0.929 . S
C1184 C1180 1.413 . S
C1184 C1185 1.348 . S
C1184 H1200 0.931 . S
C1185 C1183 1.378 . S
C1185 C1184 1.348 . S
C1185 H1201 0.930 . S
Gd1186 N1206 2.622 . S
Gd1186 N1213 2.570 . S
Gd1186 O1220 2.353 . S
Gd1186 O1221 2.468 . S
Gd1186 O1222 2.427 . S
Gd1186 O1224 2.388 . S
Gd1186 O1225 2.386 . S
Gd1186 O1229 2.307 . S
Gd1186 C1239 2.805 . S
Gd1187 N1182 2.622 1_556 S
Gd1187 N1188 2.570 . S
Gd1187 O1219 2.386 . S
Gd1187 O1223 2.307 . S
Gd1187 O1226 2.353 . S
Gd1187 O1227 2.468 . S
Gd1187 O1228 2.427 . S
Gd1187 O1230 2.388 . S
Gd1187 C1251 2.805 . S
N1188 C1178 1.359 . S
N1188 Gd1187 2.570 . S
N1188 C1190 1.343 . S
C1189 C1177 1.422 . S
C1189 C1191 1.321 . S
C1189 H1197 0.931 . S
C1190 N1188 1.343 . S
C1190 C1191 1.390 . S
C1190 H1192 0.931 . S
C1191 C1189 1.321 . S
C1191 C1190 1.390 . S
C1191 H1193 0.930 . S
H1192 C1190 0.931 . S
H1193 C1191 0.930 . S
H1194 C1217 0.931 . S
H1195 C1183 0.929 . S
H1196 C1218 0.930 . S
H1197 C1189 0.931 . S
H1198 C1179 0.930 . S
H1199 C1208 0.929 . S
H1200 C1184 0.931 . S
H1201 C1185 0.930 . S
H1202 C1240 0.930 . S
H1203 C1181 0.929 . S
H1204 C1209 0.931 . S
H1205 C1210 0.930 . S
N1206 Gd1186 2.622 . S
N1206 C1207 1.369 . S
N1206 C1208 1.338 . S
C1207 N1206 1.369 . S
C1207 C1211 1.415 . S
C1207 C1214 1.422 . S
C1208 H1199 0.929 . S
C1208 N1206 1.338 . S
C1208 C1210 1.378 . S
C1209 H1204 0.931 . S
C1209 C1210 1.348 . S
C1209 C1211 1.413 . S
C1210 H1205 0.930 . S
C1210 C1208 1.378 . S
C1210 C1209 1.348 . S
C1211 C1207 1.415 . S
C1211 C1209 1.413 . S
C1211 C1241 1.437 . S
H1212 C1241 0.929 . S
N1213 Gd1186 2.570 . S
N1213 C1214 1.359 . S
N1213 C1217 1.343 . S
C1214 C1207 1.422 . S
C1214 N1213 1.359 . S
C1214 C1216 1.421 . S
C1215 C1216 1.422 . S
C1215 C1218 1.321 . S
C1215 H1242 0.931 . S
C1216 C1214 1.421 . S
C1216 C1215 1.422 . S
C1216 C1240 1.417 . S
C1217 H1194 0.931 . S
C1217 N1213 1.343 . S
C1217 C1218 1.390 . S
C1218 H1196 0.930 . S
C1218 C1215 1.321 . S
C1218 C1217 1.390 . S
O1219 Gd1187 2.386 . S
O1219 C1231 1.265 . S
O1220 Gd1186 2.353 . S
O1220 C1231 1.242 . S
O1221 Gd1186 2.468 . S
O1221 C1239 1.263 . S
O1222 Gd1186 2.427 . S
O1222 C1239 1.252 . S
O1223 Gd1187 2.307 . S
O1223 C1232 1.261 . S
O1224 Gd1186 2.388 . S
O1224 C1232 1.252 . S
O1225 Gd1186 2.386 . S
O1225 C1243 1.265 . S
O1226 Gd1187 2.353 . S
O1226 C1243 1.242 . S
O1227 Gd1187 2.468 . S
O1227 C1251 1.263 . S
O1228 Gd1187 2.427 . S
O1228 C1251 1.252 . S
O1229 Gd1186 2.307 . S
O1229 C1244 1.261 . S
O1230 Gd1187 2.388 . S
O1230 C1244 1.252 . S
C1231 O1219 1.265 . S
C1231 O1220 1.242 . S
C1232 O1223 1.261 . S
C1232 O1224 1.252 . S
C1233 C1236 1.394 . S
C1233 C1238 1.370 . S
C1233 C1239 1.500 . S
C1234 C1237 1.383 . S
C1234 C1238 1.395 . S
C1235 C1236 1.396 . S
C1235 C1237 1.365 . S
C1235 H1252 0.929 . S
C1236 C1233 1.394 . S
C1236 C1235 1.396 . S
C1236 H1253 0.930 . S
C1237 C1234 1.383 . S
C1237 C1235 1.365 . S
C1237 H1254 0.931 . S
C1238 C1233 1.370 . S
C1238 C1234 1.395 . S
C1238 H1255 0.930 . S
C1239 Gd1186 2.805 . S
C1239 O1221 1.263 . S
C1239 O1222 1.252 . S
C1239 C1233 1.500 . S
C1240 H1202 0.930 . S
C1240 C1216 1.417 . S
C1240 C1241 1.329 . S
C1241 C1211 1.437 . S
C1241 H1212 0.929 . S
C1241 C1240 1.329 . S
H1242 C1215 0.931 . S
C1243 O1225 1.265 . S
C1243 O1226 1.242 . S
C1244 O1229 1.261 . S
C1244 O1230 1.252 . S
C1245 C1248 1.394 . S
C1245 C1250 1.370 . S
C1245 C1251 1.500 . S
C1246 C1249 1.383 . S
C1246 C1250 1.395 . S
C1247 C1248 1.396 . S
C1247 C1249 1.365 . S
C1247 H1256 0.929 . S
C1248 C1245 1.394 . S
C1248 C1247 1.396 . S
C1248 H1257 0.930 . S
C1249 C1246 1.383 . S
C1249 C1247 1.365 . S
C1249 H1258 0.931 . S
C1250 C1245 1.370 . S
C1250 C1246 1.395 . S
C1250 H1259 0.930 . S
C1251 Gd1187 2.805 . S
C1251 O1227 1.263 . S
C1251 O1228 1.252 . S
C1251 C1245 1.500 . S
H1252 C1235 0.929 . S
H1253 C1236 0.930 . S
H1254 C1237 0.931 . S
H1255 C1238 0.930 . S
H1256 C1247 0.929 . S
H1257 C1248 0.930 . S
H1258 C1249 0.931 . S
H1259 C1250 0.930 . S
C1260 C1262 1.422 1_554 S
C1260 C1264 1.415 . S
C1260 N1266 1.369 . S
C1261 C1262 1.421 . S
C1261 C1263 1.417 1_556 S
C1261 C1273 1.422 . S
C1262 C1260 1.422 1_556 S
C1262 C1261 1.421 . S
C1262 N1272 1.359 . S
C1263 C1261 1.417 1_554 S
C1263 C1265 1.329 . S
C1263 H1282 0.930 . S
C1264 C1260 1.415 . S
C1264 C1265 1.437 . S
C1264 C1268 1.413 . S
C1265 C1263 1.329 . S
C1265 C1264 1.437 . S
C1265 H1287 0.929 . S
N1266 C1260 1.369 . S
N1266 C1267 1.338 . S
N1266 Gd1271 2.622 1_554 S
C1267 N1266 1.338 . S
C1267 C1269 1.378 . S
C1267 H1279 0.929 . S
C1268 C1264 1.413 . S
C1268 C1269 1.348 . S
C1268 H1284 0.931 . S
C1269 C1267 1.378 . S
C1269 C1268 1.348 . S
C1269 H1285 0.930 . S
Gd1270 N1290 2.622 . S
Gd1270 N1297 2.570 . S
Gd1270 O1304 2.353 . S
Gd1270 O1305 2.468 . S
Gd1270 O1306 2.427 . S
Gd1270 O1308 2.388 . S
Gd1270 O1309 2.386 . S
Gd1270 O1313 2.307 . S
Gd1270 C1323 2.805 . S
Gd1271 N1266 2.622 1_556 S
Gd1271 N1272 2.570 . S
Gd1271 O1303 2.386 . S
Gd1271 O1307 2.307 . S
Gd1271 O1310 2.353 . S
Gd1271 O1311 2.468 . S
Gd1271 O1312 2.427 . S
Gd1271 O1314 2.388 . S
Gd1271 C1335 2.805 . S
N1272 C1262 1.359 . S
N1272 Gd1271 2.570 . S
N1272 C1274 1.343 . S
C1273 C1261 1.422 . S
C1273 C1275 1.321 . S
C1273 H1281 0.931 . S
C1274 N1272 1.343 . S
C1274 C1275 1.390 . S
C1274 H1276 0.931 . S
C1275 C1273 1.321 . S
C1275 C1274 1.390 . S
C1275 H1277 0.930 . S
H1276 C1274 0.931 . S
H1277 C1275 0.930 . S
H1278 C1301 0.931 . S
H1279 C1267 0.929 . S
H1280 C1302 0.930 . S
H1281 C1273 0.931 . S
H1282 C1263 0.930 . S
H1283 C1292 0.929 . S
H1284 C1268 0.931 . S
H1285 C1269 0.930 . S
H1286 C1324 0.930 . S
H1287 C1265 0.929 . S
H1288 C1293 0.931 . S
H1289 C1294 0.930 . S
N1290 Gd1270 2.622 . S
N1290 C1291 1.369 . S
N1290 C1292 1.338 . S
C1291 N1290 1.369 . S
C1291 C1295 1.415 . S
C1291 C1298 1.422 . S
C1292 H1283 0.929 . S
C1292 N1290 1.338 . S
C1292 C1294 1.378 . S
C1293 H1288 0.931 . S
C1293 C1294 1.348 . S
C1293 C1295 1.413 . S
C1294 H1289 0.930 . S
C1294 C1292 1.378 . S
C1294 C1293 1.348 . S
C1295 C1291 1.415 . S
C1295 C1293 1.413 . S
C1295 C1325 1.437 . S
H1296 C1325 0.929 . S
N1297 Gd1270 2.570 . S
N1297 C1298 1.359 . S
N1297 C1301 1.343 . S
C1298 C1291 1.422 . S
C1298 N1297 1.359 . S
C1298 C1300 1.421 . S
C1299 C1300 1.422 . S
C1299 C1302 1.321 . S
C1299 H1326 0.931 . S
C1300 C1298 1.421 . S
C1300 C1299 1.422 . S
C1300 C1324 1.417 . S
C1301 H1278 0.931 . S
C1301 N1297 1.343 . S
C1301 C1302 1.390 . S
C1302 H1280 0.930 . S
C1302 C1299 1.321 . S
C1302 C1301 1.390 . S
O1303 Gd1271 2.386 . S
O1303 C1315 1.265 . S
O1304 Gd1270 2.353 . S
O1304 C1315 1.242 . S
O1305 Gd1270 2.468 . S
O1305 C1323 1.263 . S
O1306 Gd1270 2.427 . S
O1306 C1323 1.252 . S
O1307 Gd1271 2.307 . S
O1307 C1316 1.261 . S
O1308 Gd1270 2.388 . S
O1308 C1316 1.252 . S
O1309 Gd1270 2.386 . S
O1309 C1327 1.265 . S
O1310 Gd1271 2.353 . S
O1310 C1327 1.242 . S
O1311 Gd1271 2.468 . S
O1311 C1335 1.263 . S
O1312 Gd1271 2.427 . S
O1312 C1335 1.252 . S
O1313 Gd1270 2.307 . S
O1313 C1328 1.261 . S
O1314 Gd1271 2.388 . S
O1314 C1328 1.252 . S
C1315 O1303 1.265 . S
C1315 O1304 1.242 . S
C1316 O1307 1.261 . S
C1316 O1308 1.252 . S
C1317 C1320 1.394 . S
C1317 C1322 1.370 . S
C1317 C1323 1.500 . S
C1318 C1321 1.383 . S
C1318 C1322 1.395 . S
C1319 C1320 1.396 . S
C1319 C1321 1.365 . S
C1319 H1336 0.929 . S
C1320 C1317 1.394 . S
C1320 C1319 1.396 . S
C1320 H1337 0.930 . S
C1321 C1318 1.383 . S
C1321 C1319 1.365 . S
C1321 H1338 0.931 . S
C1322 C1317 1.370 . S
C1322 C1318 1.395 . S
C1322 H1339 0.930 . S
C1323 Gd1270 2.805 . S
C1323 O1305 1.263 . S
C1323 O1306 1.252 . S
C1323 C1317 1.500 . S
C1324 H1286 0.930 . S
C1324 C1300 1.417 . S
C1324 C1325 1.329 . S
C1325 C1295 1.437 . S
C1325 H1296 0.929 . S
C1325 C1324 1.329 . S
H1326 C1299 0.931 . S
C1327 O1309 1.265 . S
C1327 O1310 1.242 . S
C1328 O1313 1.261 . S
C1328 O1314 1.252 . S
C1329 C1332 1.394 . S
C1329 C1334 1.370 . S
C1329 C1335 1.500 . S
C1330 C1333 1.383 . S
C1330 C1334 1.395 . S
C1331 C1332 1.396 . S
C1331 C1333 1.365 . S
C1331 H1340 0.929 . S
C1332 C1329 1.394 . S
C1332 C1331 1.396 . S
C1332 H1341 0.930 . S
C1333 C1330 1.383 . S
C1333 C1331 1.365 . S
C1333 H1342 0.931 . S
C1334 C1329 1.370 . S
C1334 C1330 1.395 . S
C1334 H1343 0.930 . S
C1335 Gd1271 2.805 . S
C1335 O1311 1.263 . S
C1335 O1312 1.252 . S
C1335 C1329 1.500 . S
H1336 C1319 0.929 . S
H1337 C1320 0.930 . S
H1338 C1321 0.931 . S
H1339 C1322 0.930 . S
H1340 C1331 0.929 . S
H1341 C1332 0.930 . S
H1342 C1333 0.931 . S
H1343 C1334 0.930 . S
H1344 C1352 0.950 . S
H1345 C1357 0.950 . S
H1346 C1354 0.950 . S
H1347 C1356 0.950 . S
H1348 C1358 0.950 . S
H1349 C1360 0.950 . S
H1350 C1362 0.950 . S
H1351 C1363 0.950 . S
C1352 H1344 0.950 . S
C1352 C1353 1.386 . S
C1352 C1354 1.391 . S
C1353 C1352 1.386 . S
C1353 C1357 1.393 . S
C1354 H1346 0.950 . S
C1354 C1352 1.391 . S
C1354 C1355 1.400 . S
C1355 C1354 1.400 . S
C1355 C1356 1.398 . S
C1355 C1361 1.491 . S
C1356 H1347 0.950 . S
C1356 C1355 1.398 . S
C1356 C1357 1.391 . S
C1357 H1345 0.950 . S
C1357 C1353 1.393 . S
C1357 C1356 1.391 . S
C1358 H1348 0.950 . S
C1358 C1359 1.386 . S
C1358 C1360 1.391 . S
C1359 C1358 1.386 . S
C1359 C1363 1.393 . S
C1360 H1349 0.950 . S
C1360 C1358 1.391 . S
C1360 C1361 1.400 . S
C1361 C1355 1.491 . S
C1361 C1360 1.400 . S
C1361 C1362 1.398 . S
C1362 H1350 0.950 . S
C1362 C1361 1.398 . S
C1362 C1363 1.391 . S
C1363 H1351 0.950 . S
C1363 C1359 1.393 . S
C1363 C1362 1.391 . S
H1364 C1372 0.950 . S
H1365 C1377 0.950 . S
H1366 C1374 0.950 . S
H1367 C1376 0.950 . S
H1368 C1378 0.950 . S
H1369 C1380 0.950 . S
H1370 C1382 0.950 . S
H1371 C1383 0.950 . S
C1372 H1364 0.950 . S
C1372 C1373 1.386 . S
C1372 C1374 1.391 . S
C1373 C1372 1.386 . S
C1373 C1377 1.393 . S
C1374 H1366 0.950 . S
C1374 C1372 1.391 . S
C1374 C1375 1.400 . S
C1375 C1374 1.400 . S
C1375 C1376 1.398 . S
C1375 C1381 1.491 . S
C1376 H1367 0.950 . S
C1376 C1375 1.398 . S
C1376 C1377 1.391 . S
C1377 H1365 0.950 . S
C1377 C1373 1.393 . S
C1377 C1376 1.391 . S
C1378 H1368 0.950 . S
C1378 C1379 1.386 . S
C1378 C1380 1.391 . S
C1379 C1378 1.386 . S
C1379 C1383 1.393 . S
C1380 H1369 0.950 . S
C1380 C1378 1.391 . S
C1380 C1381 1.400 . S
C1381 C1375 1.491 . S
C1381 C1380 1.400 . S
C1381 C1382 1.398 . S
C1382 H1370 0.950 . S
C1382 C1381 1.398 . S
C1382 C1383 1.391 . S
C1383 H1371 0.950 . S
C1383 C1379 1.393 . S
C1383 C1382 1.391 . S
H1384 C1392 0.950 . S
H1385 C1397 0.950 . S
H1386 C1394 0.950 . S
H1387 C1396 0.950 . S
H1388 C1398 0.950 . S
H1389 C1400 0.950 . S
H1390 C1402 0.950 . S
H1391 C1403 0.950 . S
C1392 H1384 0.950 . S
C1392 C1393 1.386 . S
C1392 C1394 1.391 . S
C1393 C1392 1.386 . S
C1393 C1397 1.393 . S
C1394 H1386 0.950 . S
C1394 C1392 1.391 . S
C1394 C1395 1.400 . S
C1395 C1394 1.400 . S
C1395 C1396 1.398 . S
C1395 C1401 1.491 . S
C1396 H1387 0.950 . S
C1396 C1395 1.398 . S
C1396 C1397 1.391 . S
C1397 H1385 0.950 . S
C1397 C1393 1.393 . S
C1397 C1396 1.391 . S
C1398 H1388 0.950 . S
C1398 C1399 1.386 . S
C1398 C1400 1.391 . S
C1399 C1398 1.386 . S
C1399 C1403 1.393 . S
C1400 H1389 0.950 . S
C1400 C1398 1.391 . S
C1400 C1401 1.400 . S
C1401 C1395 1.491 . S
C1401 C1400 1.400 . S
C1401 C1402 1.398 . S
C1402 H1390 0.950 . S
C1402 C1401 1.398 . S
C1402 C1403 1.391 . S
C1403 H1391 0.950 . S
C1403 C1399 1.393 . S
C1403 C1402 1.391 . S
H1404 C1412 0.950 . S
H1405 C1417 0.950 . S
H1406 C1414 0.950 . S
H1407 C1416 0.950 . S
H1408 C1418 0.950 . S
H1409 C1420 0.950 . S
H1410 C1422 0.950 . S
H1411 C1423 0.950 . S
C1412 H1404 0.950 . S
C1412 C1413 1.386 . S
C1412 C1414 1.391 . S
C1413 C1412 1.386 . S
C1413 C1417 1.393 . S
C1414 H1406 0.950 . S
C1414 C1412 1.391 . S
C1414 C1415 1.400 . S
C1415 C1414 1.400 . S
C1415 C1416 1.398 . S
C1415 C1421 1.491 . S
C1416 H1407 0.950 . S
C1416 C1415 1.398 . S
C1416 C1417 1.391 . S
C1417 H1405 0.950 . S
C1417 C1413 1.393 . S
C1417 C1416 1.391 . S
C1418 H1408 0.950 . S
C1418 C1419 1.386 . S
C1418 C1420 1.391 . S
C1419 C1418 1.386 . S
C1419 C1423 1.393 . S
C1420 H1409 0.950 . S
C1420 C1418 1.391 . S
C1420 C1421 1.400 . S
C1421 C1415 1.491 . S
C1421 C1420 1.400 . S
C1421 C1422 1.398 . S
C1422 H1410 0.950 . S
C1422 C1421 1.398 . S
C1422 C1423 1.391 . S
C1423 H1411 0.950 . S
C1423 C1419 1.393 . S
C1423 C1422 1.391 . S
H1424 C1432 0.950 . S
H1425 C1437 0.950 . S
H1426 C1434 0.950 . S
H1427 C1436 0.950 . S
H1428 C1438 0.950 . S
H1429 C1440 0.950 . S
H1430 C1442 0.950 . S
H1431 C1443 0.950 . S
C1432 H1424 0.950 . S
C1432 C1433 1.386 . S
C1432 C1434 1.391 . S
C1433 C1432 1.386 . S
C1433 C1437 1.393 . S
C1434 H1426 0.950 . S
C1434 C1432 1.391 . S
C1434 C1435 1.400 . S
C1435 C1434 1.400 . S
C1435 C1436 1.398 . S
C1435 C1441 1.491 . S
C1436 H1427 0.950 . S
C1436 C1435 1.398 . S
C1436 C1437 1.391 . S
C1437 H1425 0.950 . S
C1437 C1433 1.393 . S
C1437 C1436 1.391 . S
C1438 H1428 0.950 . S
C1438 C1439 1.386 . S
C1438 C1440 1.391 . S
C1439 C1438 1.386 . S
C1439 C1443 1.393 . S
C1440 H1429 0.950 . S
C1440 C1438 1.391 . S
C1440 C1441 1.400 . S
C1441 C1435 1.491 . S
C1441 C1440 1.400 . S
C1441 C1442 1.398 . S
C1442 H1430 0.950 . S
C1442 C1441 1.398 . S
C1442 C1443 1.391 . S
C1443 H1431 0.950 . S
C1443 C1439 1.393 . S
C1443 C1442 1.391 . S
H1444 C1452 0.950 . S
H1445 C1457 0.950 . S
H1446 C1454 0.950 . S
H1447 C1456 0.950 . S
H1448 C1458 0.950 . S
H1449 C1460 0.950 . S
H1450 C1462 0.950 . S
H1451 C1463 0.950 . S
C1452 H1444 0.950 . S
C1452 C1453 1.386 . S
C1452 C1454 1.391 . S
C1453 C1452 1.386 . S
C1453 C1457 1.393 . S
C1454 H1446 0.950 . S
C1454 C1452 1.391 . S
C1454 C1455 1.400 . S
C1455 C1454 1.400 . S
C1455 C1456 1.398 . S
C1455 C1461 1.491 . S
C1456 H1447 0.950 . S
C1456 C1455 1.398 . S
C1456 C1457 1.391 . S
C1457 H1445 0.950 . S
C1457 C1453 1.393 . S
C1457 C1456 1.391 . S
C1458 H1448 0.950 . S
C1458 C1459 1.386 . S
C1458 C1460 1.391 . S
C1459 C1458 1.386 . S
C1459 C1463 1.393 . S
C1460 H1449 0.950 . S
C1460 C1458 1.391 . S
C1460 C1461 1.400 . S
C1461 C1455 1.491 . S
C1461 C1460 1.400 . S
C1461 C1462 1.398 . S
C1462 H1450 0.950 . S
C1462 C1461 1.398 . S
C1462 C1463 1.391 . S
C1463 H1451 0.950 . S
C1463 C1459 1.393 . S
C1463 C1462 1.391 . S
H1464 C1472 0.950 . S
H1465 C1477 0.950 . S
H1466 C1474 0.950 . S
H1467 C1476 0.950 . S
H1468 C1478 0.950 . S
H1469 C1480 0.950 . S
H1470 C1482 0.950 . S
H1471 C1483 0.950 . S
C1472 H1464 0.950 . S
C1472 C1473 1.386 . S
C1472 C1474 1.391 . S
C1473 C1472 1.386 . S
C1473 C1477 1.393 . S
C1474 H1466 0.950 . S
C1474 C1472 1.391 . S
C1474 C1475 1.400 . S
C1475 C1474 1.400 . S
C1475 C1476 1.398 . S
C1475 C1481 1.491 . S
C1476 H1467 0.950 . S
C1476 C1475 1.398 . S
C1476 C1477 1.391 . S
C1477 H1465 0.950 . S
C1477 C1473 1.393 . S
C1477 C1476 1.391 . S
C1478 H1468 0.950 . S
C1478 C1479 1.386 . S
C1478 C1480 1.391 . S
C1479 C1478 1.386 . S
C1479 C1483 1.393 . S
C1480 H1469 0.950 . S
C1480 C1478 1.391 . S
C1480 C1481 1.400 . S
C1481 C1475 1.491 . S
C1481 C1480 1.400 . S
C1481 C1482 1.398 . S
C1482 H1470 0.950 . S
C1482 C1481 1.398 . S
C1482 C1483 1.391 . S
C1483 H1471 0.950 . S
C1483 C1479 1.393 . S
C1483 C1482 1.391 . S
H1484 C1492 0.950 . S
H1485 C1497 0.950 . S
H1486 C1494 0.950 . S
H1487 C1496 0.950 . S
H1488 C1498 0.950 . S
H1489 C1500 0.950 . S
H1490 C1502 0.950 . S
H1491 C1503 0.950 . S
C1492 H1484 0.950 . S
C1492 C1493 1.386 . S
C1492 C1494 1.391 . S
C1493 C1492 1.386 . S
C1493 C1497 1.393 . S
C1494 H1486 0.950 . S
C1494 C1492 1.391 . S
C1494 C1495 1.400 . S
C1495 C1494 1.400 . S
C1495 C1496 1.398 . S
C1495 C1501 1.491 . S
C1496 H1487 0.950 . S
C1496 C1495 1.398 . S
C1496 C1497 1.391 . S
C1497 H1485 0.950 . S
C1497 C1493 1.393 . S
C1497 C1496 1.391 . S
C1498 H1488 0.950 . S
C1498 C1499 1.386 . S
C1498 C1500 1.391 . S
C1499 C1498 1.386 . S
C1499 C1503 1.393 . S
C1500 H1489 0.950 . S
C1500 C1498 1.391 . S
C1500 C1501 1.400 . S
C1501 C1495 1.491 . S
C1501 C1500 1.400 . S
C1501 C1502 1.398 . S
C1502 H1490 0.950 . S
C1502 C1501 1.398 . S
C1502 C1503 1.391 . S
C1503 H1491 0.950 . S
C1503 C1499 1.393 . S
C1503 C1502 1.391 . S
H1504 C1512 0.950 . S
H1505 C1517 0.950 . S
H1506 C1514 0.950 . S
H1507 C1516 0.950 . S
H1508 C1518 0.950 . S
H1509 C1520 0.950 . S
H1510 C1522 0.950 . S
H1511 C1523 0.950 1_565 S
C1512 H1504 0.950 . S
C1512 C1513 1.386 . S
C1512 C1514 1.391 . S
C1513 C1512 1.386 . S
C1513 C1517 1.393 . S
C1514 H1506 0.950 . S
C1514 C1512 1.391 . S
C1514 C1515 1.400 . S
C1515 C1514 1.400 . S
C1515 C1516 1.398 . S
C1515 C1521 1.491 . S
C1516 H1507 0.950 . S
C1516 C1515 1.398 . S
C1516 C1517 1.391 . S
C1517 H1505 0.950 . S
C1517 C1513 1.393 . S
C1517 C1516 1.391 . S
C1518 H1508 0.950 . S
C1518 C1519 1.386 . S
C1518 C1520 1.391 . S
C1519 C1518 1.386 . S
C1519 C1523 1.393 . S
C1520 H1509 0.950 . S
C1520 C1518 1.391 . S
C1520 C1521 1.400 . S
C1521 C1515 1.491 . S
C1521 C1520 1.400 . S
C1521 C1522 1.398 . S
C1522 H1510 0.950 . S
C1522 C1521 1.398 . S
C1522 C1523 1.391 . S
C1523 H1511 0.950 1_545 S
C1523 C1519 1.393 . S
C1523 C1522 1.391 . S
H1524 C1532 0.950 . S
H1525 C1537 0.950 . S
H1526 C1534 0.950 . S
H1527 C1536 0.950 . S
H1528 C1538 0.950 . S
H1529 C1540 0.950 . S
H1530 C1542 0.950 . S
H1531 C1543 0.950 . S
C1532 H1524 0.950 . S
C1532 C1533 1.386 . S
C1532 C1534 1.391 . S
C1533 C1532 1.386 . S
C1533 C1537 1.393 . S
C1534 H1526 0.950 . S
C1534 C1532 1.391 . S
C1534 C1535 1.400 . S
C1535 C1534 1.400 . S
C1535 C1536 1.398 . S
C1535 C1541 1.491 . S
C1536 H1527 0.950 . S
C1536 C1535 1.398 . S
C1536 C1537 1.391 . S
C1537 H1525 0.950 . S
C1537 C1533 1.393 . S
C1537 C1536 1.391 . S
C1538 H1528 0.950 . S
C1538 C1539 1.386 . S
C1538 C1540 1.391 . S
C1539 C1538 1.386 . S
C1539 C1543 1.393 . S
C1540 H1529 0.950 . S
C1540 C1538 1.391 . S
C1540 C1541 1.400 . S
C1541 C1535 1.491 . S
C1541 C1540 1.400 . S
C1541 C1542 1.398 . S
C1542 H1530 0.950 . S
C1542 C1541 1.398 . S
C1542 C1543 1.391 . S
C1543 H1531 0.950 . S
C1543 C1539 1.393 . S
C1543 C1542 1.391 . S
H1544 C1552 0.950 . S
H1545 C1557 0.950 . S
H1546 C1554 0.950 . S
H1547 C1556 0.950 . S
H1548 C1558 0.950 . S
H1549 C1560 0.950 . S
H1550 C1562 0.950 . S
H1551 C1563 0.950 . S
C1552 H1544 0.950 . S
C1552 C1553 1.386 . S
C1552 C1554 1.391 . S
C1553 C1552 1.386 . S
C1553 C1557 1.393 . S
C1554 H1546 0.950 . S
C1554 C1552 1.391 . S
C1554 C1555 1.400 . S
C1555 C1554 1.400 . S
C1555 C1556 1.398 . S
C1555 C1561 1.491 . S
C1556 H1547 0.950 . S
C1556 C1555 1.398 . S
C1556 C1557 1.391 . S
C1557 H1545 0.950 . S
C1557 C1553 1.393 . S
C1557 C1556 1.391 . S
C1558 H1548 0.950 . S
C1558 C1559 1.386 . S
C1558 C1560 1.391 . S
C1559 C1558 1.386 . S
C1559 C1563 1.393 . S
C1560 H1549 0.950 . S
C1560 C1558 1.391 . S
C1560 C1561 1.400 . S
C1561 C1555 1.491 . S
C1561 C1560 1.400 . S
C1561 C1562 1.398 . S
C1562 H1550 0.950 . S
C1562 C1561 1.398 . S
C1562 C1563 1.391 . S
C1563 H1551 0.950 . S
C1563 C1559 1.393 . S
C1563 C1562 1.391 . S
H1564 C1572 0.950 . S
H1565 C1577 0.950 . S
H1566 C1574 0.950 . S
H1567 C1576 0.950 . S
H1568 C1578 0.950 1_655 S
H1569 C1580 0.950 . S
H1570 C1582 0.950 . S
H1571 C1583 0.950 . S
C1572 H1564 0.950 . S
C1572 C1573 1.386 . S
C1572 C1574 1.391 . S
C1573 C1572 1.386 . S
C1573 C1577 1.393 . S
C1574 H1566 0.950 . S
C1574 C1572 1.391 . S
C1574 C1575 1.400 . S
C1575 C1574 1.400 . S
C1575 C1576 1.398 . S
C1575 C1581 1.491 . S
C1576 H1567 0.950 . S
C1576 C1575 1.398 . S
C1576 C1577 1.391 . S
C1577 H1565 0.950 . S
C1577 C1573 1.393 . S
C1577 C1576 1.391 . S
C1578 H1568 0.950 1_455 S
C1578 C1579 1.386 . S
C1578 C1580 1.391 . S
C1579 C1578 1.386 . S
C1579 C1583 1.393 . S
C1580 H1569 0.950 . S
C1580 C1578 1.391 . S
C1580 C1581 1.400 . S
C1581 C1575 1.491 . S
C1581 C1580 1.400 . S
C1581 C1582 1.398 . S
C1582 H1570 0.950 . S
C1582 C1581 1.398 . S
C1582 C1583 1.391 . S
C1583 H1571 0.950 . S
C1583 C1579 1.393 . S
C1583 C1582 1.391 . S
H1584 C1592 0.950 . S
H1585 C1597 0.950 . S
H1586 C1594 0.950 . S
H1587 C1596 0.950 . S
H1588 C1598 0.950 . S
H1589 C1600 0.950 . S
H1590 C1602 0.950 . S
H1591 C1603 0.950 1_545 S
C1592 H1584 0.950 . S
C1592 C1593 1.386 . S
C1592 C1594 1.391 . S
C1593 C1592 1.386 . S
C1593 C1597 1.393 . S
C1594 H1586 0.950 . S
C1594 C1592 1.391 . S
C1594 C1595 1.400 . S
C1595 C1594 1.400 . S
C1595 C1596 1.398 . S
C1595 C1601 1.491 . S
C1596 H1587 0.950 . S
C1596 C1595 1.398 . S
C1596 C1597 1.391 . S
C1597 H1585 0.950 . S
C1597 C1593 1.393 . S
C1597 C1596 1.391 . S
C1598 H1588 0.950 . S
C1598 C1599 1.386 . S
C1598 C1600 1.391 . S
C1599 C1598 1.386 . S
C1599 C1603 1.393 . S
C1600 H1589 0.950 . S
C1600 C1598 1.391 . S
C1600 C1601 1.400 . S
C1601 C1595 1.491 . S
C1601 C1600 1.400 . S
C1601 C1602 1.398 . S
C1602 H1590 0.950 . S
C1602 C1601 1.398 . S
C1602 C1603 1.391 . S
C1603 H1591 0.950 1_565 S
C1603 C1599 1.393 . S
C1603 C1602 1.391 . S
H1604 C1612 0.950 . S
H1605 C1617 0.950 . S
H1606 C1614 0.950 . S
H1607 C1616 0.950 . S
H1608 C1618 0.950 . S
H1609 C1620 0.950 . S
H1610 C1622 0.950 . S
H1611 C1623 0.950 . S
C1612 H1604 0.950 . S
C1612 C1613 1.386 . S
C1612 C1614 1.391 . S
C1613 C1612 1.386 . S
C1613 C1617 1.393 . S
C1614 H1606 0.950 . S
C1614 C1612 1.391 . S
C1614 C1615 1.400 . S
C1615 C1614 1.400 . S
C1615 C1616 1.398 . S
C1615 C1621 1.491 . S
C1616 H1607 0.950 . S
C1616 C1615 1.398 . S
C1616 C1617 1.391 . S
C1617 H1605 0.950 . S
C1617 C1613 1.393 . S
C1617 C1616 1.391 . S
C1618 H1608 0.950 . S
C1618 C1619 1.386 . S
C1618 C1620 1.391 . S
C1619 C1618 1.386 . S
C1619 C1623 1.393 . S
C1620 H1609 0.950 . S
C1620 C1618 1.391 . S
C1620 C1621 1.400 . S
C1621 C1615 1.491 . S
C1621 C1620 1.400 . S
C1621 C1622 1.398 . S
C1622 H1610 0.950 . S
C1622 C1621 1.398 . S
C1622 C1623 1.391 . S
C1623 H1611 0.950 . S
C1623 C1619 1.393 . S
C1623 C1622 1.391 . S
H1624 C1632 0.950 . S
H1625 C1637 0.950 . S
H1626 C1634 0.950 . S
H1627 C1636 0.950 . S
H1628 C1638 0.950 . S
H1629 C1640 0.950 . S
H1630 C1642 0.950 . S
H1631 C1643 0.950 . S
C1632 H1624 0.950 . S
C1632 C1633 1.386 . S
C1632 C1634 1.391 . S
C1633 C1632 1.386 . S
C1633 C1637 1.393 . S
C1634 H1626 0.950 . S
C1634 C1632 1.391 . S
C1634 C1635 1.400 . S
C1635 C1634 1.400 . S
C1635 C1636 1.398 . S
C1635 C1641 1.491 . S
C1636 H1627 0.950 . S
C1636 C1635 1.398 . S
C1636 C1637 1.391 . S
C1637 H1625 0.950 . S
C1637 C1633 1.393 . S
C1637 C1636 1.391 . S
C1638 H1628 0.950 . S
C1638 C1639 1.386 . S
C1638 C1640 1.391 . S
C1639 C1638 1.386 . S
C1639 C1643 1.393 . S
C1640 H1629 0.950 . S
C1640 C1638 1.391 . S
C1640 C1641 1.400 . S
C1641 C1635 1.491 . S
C1641 C1640 1.400 . S
C1641 C1642 1.398 . S
C1642 H1630 0.950 . S
C1642 C1641 1.398 . S
C1642 C1643 1.391 . S
C1643 H1631 0.950 . S
C1643 C1639 1.393 . S
C1643 C1642 1.391 . S
H1644 C1652 0.950 . S
H1645 C1657 0.950 . S
H1646 C1654 0.950 . S
H1647 C1656 0.950 . S
H1648 C1658 0.950 . S
H1649 C1660 0.950 . S
H1650 C1662 0.950 . S
H1651 C1663 0.950 . S
C1652 H1644 0.950 . S
C1652 C1653 1.386 . S
C1652 C1654 1.391 . S
C1653 C1652 1.386 . S
C1653 C1657 1.393 . S
C1654 H1646 0.950 . S
C1654 C1652 1.391 . S
C1654 C1655 1.400 . S
C1655 C1654 1.400 . S
C1655 C1656 1.398 . S
C1655 C1661 1.491 . S
C1656 H1647 0.950 . S
C1656 C1655 1.398 . S
C1656 C1657 1.391 . S
C1657 H1645 0.950 . S
C1657 C1653 1.393 . S
C1657 C1656 1.391 . S
C1658 H1648 0.950 . S
C1658 C1659 1.386 . S
C1658 C1660 1.391 . S
C1659 C1658 1.386 . S
C1659 C1663 1.393 . S
C1660 H1649 0.950 . S
C1660 C1658 1.391 . S
C1660 C1661 1.400 . S
C1661 C1655 1.491 . S
C1661 C1660 1.400 . S
C1661 C1662 1.398 . S
C1662 H1650 0.950 . S
C1662 C1661 1.398 . S
C1662 C1663 1.391 . S
C1663 H1651 0.950 . S
C1663 C1659 1.393 . S
C1663 C1662 1.391 . S
H1664 C1672 0.950 1_545 S
H1665 C1677 0.950 . S
H1666 C1674 0.950 . S
H1667 C1676 0.950 . S
H1668 C1678 0.950 . S
H1669 C1680 0.950 . S
H1670 C1682 0.950 . S
H1671 C1683 0.950 . S
C1672 H1664 0.950 1_565 S
C1672 C1673 1.386 . S
C1672 C1674 1.391 . S
C1673 C1672 1.386 . S
C1673 C1677 1.393 . S
C1674 H1666 0.950 . S
C1674 C1672 1.391 . S
C1674 C1675 1.400 . S
C1675 C1674 1.400 . S
C1675 C1676 1.398 . S
C1675 C1681 1.491 . S
C1676 H1667 0.950 . S
C1676 C1675 1.398 . S
C1676 C1677 1.391 . S
C1677 H1665 0.950 . S
C1677 C1673 1.393 . S
C1677 C1676 1.391 . S
C1678 H1668 0.950 . S
C1678 C1679 1.386 . S
C1678 C1680 1.391 . S
C1679 C1678 1.386 . S
C1679 C1683 1.393 . S
C1680 H1669 0.950 . S
C1680 C1678 1.391 . S
C1680 C1681 1.400 . S
C1681 C1675 1.491 . S
C1681 C1680 1.400 . S
C1681 C1682 1.398 . S
C1682 H1670 0.950 . S
C1682 C1681 1.398 . S
C1682 C1683 1.391 . S
C1683 H1671 0.950 . S
C1683 C1679 1.393 . S
C1683 C1682 1.391 . S
H1684 C1692 0.950 . S
H1685 C1697 0.950 . S
H1686 C1694 0.950 . S
H1687 C1696 0.950 . S
H1688 C1698 0.950 . S
H1689 C1700 0.950 . S
H1690 C1702 0.950 . S
H1691 C1703 0.950 . S
C1692 H1684 0.950 . S
C1692 C1693 1.386 . S
C1692 C1694 1.391 . S
C1693 C1692 1.386 . S
C1693 C1697 1.393 . S
C1694 H1686 0.950 . S
C1694 C1692 1.391 . S
C1694 C1695 1.400 . S
C1695 C1694 1.400 . S
C1695 C1696 1.398 . S
C1695 C1701 1.491 . S
C1696 H1687 0.950 . S
C1696 C1695 1.398 . S
C1696 C1697 1.391 . S
C1697 H1685 0.950 . S
C1697 C1693 1.393 . S
C1697 C1696 1.391 . S
C1698 H1688 0.950 . S
C1698 C1699 1.386 . S
C1698 C1700 1.391 . S
C1699 C1698 1.386 . S
C1699 C1703 1.393 . S
C1700 H1689 0.950 . S
C1700 C1698 1.391 . S
C1700 C1701 1.400 . S
C1701 C1695 1.491 . S
C1701 C1700 1.400 . S
C1701 C1702 1.398 . S
C1702 H1690 0.950 . S
C1702 C1701 1.398 . S
C1702 C1703 1.391 . S
C1703 H1691 0.950 . S
C1703 C1699 1.393 . S
C1703 C1702 1.391 . S
H1704 C1712 0.950 . S
H1705 C1717 0.950 . S
H1706 C1714 0.950 . S
H1707 C1716 0.950 . S
H1708 C1718 0.950 . S
H1709 C1720 0.950 . S
H1710 C1722 0.950 . S
H1711 C1723 0.950 . S
C1712 H1704 0.950 . S
C1712 C1713 1.386 . S
C1712 C1714 1.391 . S
C1713 C1712 1.386 . S
C1713 C1717 1.393 . S
C1714 H1706 0.950 . S
C1714 C1712 1.391 . S
C1714 C1715 1.400 . S
C1715 C1714 1.400 . S
C1715 C1716 1.398 . S
C1715 C1721 1.491 . S
C1716 H1707 0.950 . S
C1716 C1715 1.398 . S
C1716 C1717 1.391 . S
C1717 H1705 0.950 . S
C1717 C1713 1.393 . S
C1717 C1716 1.391 . S
C1718 H1708 0.950 . S
C1718 C1719 1.386 . S
C1718 C1720 1.391 . S
C1719 C1718 1.386 . S
C1719 C1723 1.393 . S
C1720 H1709 0.950 . S
C1720 C1718 1.391 . S
C1720 C1721 1.400 . S
C1721 C1715 1.491 . S
C1721 C1720 1.400 . S
C1721 C1722 1.398 . S
C1722 H1710 0.950 . S
C1722 C1721 1.398 . S
C1722 C1723 1.391 . S
C1723 H1711 0.950 . S
C1723 C1719 1.393 . S
C1723 C1722 1.391 . S
H1724 C1732 0.950 . S
H1725 C1737 0.950 . S
H1726 C1734 0.950 . S
H1727 C1736 0.950 . S
H1728 C1738 0.950 . S
H1729 C1740 0.950 . S
H1730 C1742 0.950 . S
H1731 C1743 0.950 1_455 S
C1732 H1724 0.950 . S
C1732 C1733 1.386 . S
C1732 C1734 1.391 . S
C1733 C1732 1.386 . S
C1733 C1737 1.393 . S
C1734 H1726 0.950 . S
C1734 C1732 1.391 . S
C1734 C1735 1.400 . S
C1735 C1734 1.400 . S
C1735 C1736 1.398 . S
C1735 C1741 1.491 . S
C1736 H1727 0.950 . S
C1736 C1735 1.398 . S
C1736 C1737 1.391 . S
C1737 H1725 0.950 . S
C1737 C1733 1.393 . S
C1737 C1736 1.391 . S
C1738 H1728 0.950 . S
C1738 C1739 1.386 . S
C1738 C1740 1.391 . S
C1739 C1738 1.386 . S
C1739 C1743 1.393 . S
C1740 H1729 0.950 . S
C1740 C1738 1.391 . S
C1740 C1741 1.400 . S
C1741 C1735 1.491 . S
C1741 C1740 1.400 . S
C1741 C1742 1.398 . S
C1742 H1730 0.950 . S
C1742 C1741 1.398 . S
C1742 C1743 1.391 . S
C1743 H1731 0.950 1_655 S
C1743 C1739 1.393 . S
C1743 C1742 1.391 . S
H1744 C1752 0.950 . S
H1745 C1757 0.950 . S
H1746 C1754 0.950 . S
H1747 C1756 0.950 . S
H1748 C1758 0.950 . S
H1749 C1760 0.950 . S
H1750 C1762 0.950 . S
H1751 C1763 0.950 . S
C1752 H1744 0.950 . S
C1752 C1753 1.386 . S
C1752 C1754 1.391 . S
C1753 C1752 1.386 . S
C1753 C1757 1.393 . S
C1754 H1746 0.950 . S
C1754 C1752 1.391 . S
C1754 C1755 1.400 . S
C1755 C1754 1.400 . S
C1755 C1756 1.398 . S
C1755 C1761 1.491 . S
C1756 H1747 0.950 . S
C1756 C1755 1.398 . S
C1756 C1757 1.391 . S
C1757 H1745 0.950 . S
C1757 C1753 1.393 . S
C1757 C1756 1.391 . S
C1758 H1748 0.950 . S
C1758 C1759 1.386 . S
C1758 C1760 1.391 . S
C1759 C1758 1.386 . S
C1759 C1763 1.393 . S
C1760 H1749 0.950 . S
C1760 C1758 1.391 . S
C1760 C1761 1.400 . S
C1761 C1755 1.491 . S
C1761 C1760 1.400 . S
C1761 C1762 1.398 . S
C1762 H1750 0.950 . S
C1762 C1761 1.398 . S
C1762 C1763 1.391 . S
C1763 H1751 0.950 . S
C1763 C1759 1.393 . S
C1763 C1762 1.391 . S
H1764 C1772 0.950 . S
H1765 C1777 0.950 . S
H1766 C1774 0.950 . S
H1767 C1776 0.950 . S
H1768 C1778 0.950 . S
H1769 C1780 0.950 . S
H1770 C1782 0.950 . S
H1771 C1783 0.950 . S
C1772 H1764 0.950 . S
C1772 C1773 1.386 . S
C1772 C1774 1.391 . S
C1773 C1772 1.386 . S
C1773 C1777 1.393 . S
C1774 H1766 0.950 . S
C1774 C1772 1.391 . S
C1774 C1775 1.400 . S
C1775 C1774 1.400 . S
C1775 C1776 1.398 . S
C1775 C1781 1.491 . S
C1776 H1767 0.950 . S
C1776 C1775 1.398 . S
C1776 C1777 1.391 . S
C1777 H1765 0.950 . S
C1777 C1773 1.393 . S
C1777 C1776 1.391 . S
C1778 H1768 0.950 . S
C1778 C1779 1.386 . S
C1778 C1780 1.391 . S
C1779 C1778 1.386 . S
C1779 C1783 1.393 . S
C1780 H1769 0.950 . S
C1780 C1778 1.391 . S
C1780 C1781 1.400 . S
C1781 C1775 1.491 . S
C1781 C1780 1.400 . S
C1781 C1782 1.398 . S
C1782 H1770 0.950 . S
C1782 C1781 1.398 . S
C1782 C1783 1.391 . S
C1783 H1771 0.950 . S
C1783 C1779 1.393 . S
C1783 C1782 1.391 . S
H1784 C1792 0.950 . S
H1785 C1797 0.950 . S
H1786 C1794 0.950 . S
H1787 C1796 0.950 . S
H1788 C1798 0.950 . S
H1789 C1800 0.950 . S
H1790 C1802 0.950 . S
H1791 C1803 0.950 . S
C1792 H1784 0.950 . S
C1792 C1793 1.386 . S
C1792 C1794 1.391 . S
C1793 C1792 1.386 . S
C1793 C1797 1.393 . S
C1794 H1786 0.950 . S
C1794 C1792 1.391 . S
C1794 C1795 1.400 . S
C1795 C1794 1.400 . S
C1795 C1796 1.398 . S
C1795 C1801 1.491 . S
C1796 H1787 0.950 . S
C1796 C1795 1.398 . S
C1796 C1797 1.391 . S
C1797 H1785 0.950 . S
C1797 C1793 1.393 . S
C1797 C1796 1.391 . S
C1798 H1788 0.950 . S
C1798 C1799 1.386 . S
C1798 C1800 1.391 . S
C1799 C1798 1.386 . S
C1799 C1803 1.393 . S
C1800 H1789 0.950 . S
C1800 C1798 1.391 . S
C1800 C1801 1.400 . S
C1801 C1795 1.491 . S
C1801 C1800 1.400 . S
C1801 C1802 1.398 . S
C1802 H1790 0.950 . S
C1802 C1801 1.398 . S
C1802 C1803 1.391 . S
C1803 H1791 0.950 . S
C1803 C1799 1.393 . S
C1803 C1802 1.391 . S
H1804 C1812 0.950 . S
H1805 C1817 0.950 . S
H1806 C1814 0.950 . S
H1807 C1816 0.950 . S
H1808 C1818 0.950 1_655 S
H1809 C1820 0.950 . S
H1810 C1822 0.950 . S
H1811 C1823 0.950 . S
C1812 H1804 0.950 . S
C1812 C1813 1.386 . S
C1812 C1814 1.391 . S
C1813 C1812 1.386 . S
C1813 C1817 1.393 . S
C1814 H1806 0.950 . S
C1814 C1812 1.391 . S
C1814 C1815 1.400 . S
C1815 C1814 1.400 . S
C1815 C1816 1.398 . S
C1815 C1821 1.491 . S
C1816 H1807 0.950 . S
C1816 C1815 1.398 . S
C1816 C1817 1.391 . S
C1817 H1805 0.950 . S
C1817 C1813 1.393 . S
C1817 C1816 1.391 . S
C1818 H1808 0.950 1_455 S
C1818 C1819 1.386 . S
C1818 C1820 1.391 . S
C1819 C1818 1.386 . S
C1819 C1823 1.393 . S
C1820 H1809 0.950 . S
C1820 C1818 1.391 . S
C1820 C1821 1.400 . S
C1821 C1815 1.491 . S
C1821 C1820 1.400 . S
C1821 C1822 1.398 . S
C1822 H1810 0.950 . S
C1822 C1821 1.398 . S
C1822 C1823 1.391 . S
C1823 H1811 0.950 . S
C1823 C1819 1.393 . S
C1823 C1822 1.391 . S
H1824 C1832 0.950 . S
H1825 C1837 0.950 . S
H1826 C1834 0.950 . S
H1827 C1836 0.950 . S
H1828 C1838 0.950 . S
H1829 C1840 0.950 . S
H1830 C1842 0.950 . S
H1831 C1843 0.950 . S
C1832 H1824 0.950 . S
C1832 C1833 1.386 . S
C1832 C1834 1.391 . S
C1833 C1832 1.386 . S
C1833 C1837 1.393 . S
C1834 H1826 0.950 . S
C1834 C1832 1.391 . S
C1834 C1835 1.400 . S
C1835 C1834 1.400 . S
C1835 C1836 1.398 . S
C1835 C1841 1.491 . S
C1836 H1827 0.950 . S
C1836 C1835 1.398 . S
C1836 C1837 1.391 . S
C1837 H1825 0.950 . S
C1837 C1833 1.393 . S
C1837 C1836 1.391 . S
C1838 H1828 0.950 . S
C1838 C1839 1.386 . S
C1838 C1840 1.391 . S
C1839 C1838 1.386 . S
C1839 C1843 1.393 . S
C1840 H1829 0.950 . S
C1840 C1838 1.391 . S
C1840 C1841 1.400 . S
C1841 C1835 1.491 . S
C1841 C1840 1.400 . S
C1841 C1842 1.398 . S
C1842 H1830 0.950 . S
C1842 C1841 1.398 . S
C1842 C1843 1.391 . S
C1843 H1831 0.950 . S
C1843 C1839 1.393 . S
C1843 C1842 1.391 . S
H1844 C1852 0.950 . S
H1845 C1857 0.950 . S
H1846 C1854 0.950 . S
H1847 C1856 0.950 . S
H1848 C1858 0.950 . S
H1849 C1860 0.950 . S
H1850 C1862 0.950 . S
H1851 C1863 0.950 . S
C1852 H1844 0.950 . S
C1852 C1853 1.386 . S
C1852 C1854 1.391 . S
C1853 C1852 1.386 . S
C1853 C1857 1.393 . S
C1854 H1846 0.950 . S
C1854 C1852 1.391 . S
C1854 C1855 1.400 . S
C1855 C1854 1.400 . S
C1855 C1856 1.398 . S
C1855 C1861 1.491 . S
C1856 H1847 0.950 . S
C1856 C1855 1.398 . S
C1856 C1857 1.391 . S
C1857 H1845 0.950 . S
C1857 C1853 1.393 . S
C1857 C1856 1.391 . S
C1858 H1848 0.950 . S
C1858 C1859 1.386 . S
C1858 C1860 1.391 . S
C1859 C1858 1.386 . S
C1859 C1863 1.393 . S
C1860 H1849 0.950 . S
C1860 C1858 1.391 . S
C1860 C1861 1.400 . S
C1861 C1855 1.491 . S
C1861 C1860 1.400 . S
C1861 C1862 1.398 . S
C1862 H1850 0.950 . S
C1862 C1861 1.398 . S
C1862 C1863 1.391 . S
C1863 H1851 0.950 . S
C1863 C1859 1.393 . S
C1863 C1862 1.391 . S
H1864 C1872 0.950 . S
H1865 C1877 0.950 . S
H1866 C1874 0.950 . S
H1867 C1876 0.950 . S
H1868 C1878 0.950 . S
H1869 C1880 0.950 . S
H1870 C1882 0.950 . S
H1871 C1883 0.950 . S
C1872 H1864 0.950 . S
C1872 C1873 1.386 . S
C1872 C1874 1.391 . S
C1873 C1872 1.386 . S
C1873 C1877 1.393 . S
C1874 H1866 0.950 . S
C1874 C1872 1.391 . S
C1874 C1875 1.400 . S
C1875 C1874 1.400 . S
C1875 C1876 1.398 . S
C1875 C1881 1.491 . S
C1876 H1867 0.950 . S
C1876 C1875 1.398 . S
C1876 C1877 1.391 . S
C1877 H1865 0.950 . S
C1877 C1873 1.393 . S
C1877 C1876 1.391 . S
C1878 H1868 0.950 . S
C1878 C1879 1.386 . S
C1878 C1880 1.391 . S
C1879 C1878 1.386 . S
C1879 C1883 1.393 . S
C1880 H1869 0.950 . S
C1880 C1878 1.391 . S
C1880 C1881 1.400 . S
C1881 C1875 1.491 . S
C1881 C1880 1.400 . S
C1881 C1882 1.398 . S
C1882 H1870 0.950 . S
C1882 C1881 1.398 . S
C1882 C1883 1.391 . S
C1883 H1871 0.950 . S
C1883 C1879 1.393 . S
C1883 C1882 1.391 . S
H1884 C1892 0.950 . S
H1885 C1897 0.950 . S
H1886 C1894 0.950 . S
H1887 C1896 0.950 . S
H1888 C1898 0.950 . S
H1889 C1900 0.950 . S
H1890 C1902 0.950 . S
H1891 C1903 0.950 . S
C1892 H1884 0.950 . S
C1892 C1893 1.386 . S
C1892 C1894 1.391 . S
C1893 C1892 1.386 . S
C1893 C1897 1.393 . S
C1894 H1886 0.950 . S
C1894 C1892 1.391 . S
C1894 C1895 1.400 . S
C1895 C1894 1.400 . S
C1895 C1896 1.398 . S
C1895 C1901 1.491 . S
C1896 H1887 0.950 . S
C1896 C1895 1.398 . S
C1896 C1897 1.391 . S
C1897 H1885 0.950 . S
C1897 C1893 1.393 . S
C1897 C1896 1.391 . S
C1898 H1888 0.950 . S
C1898 C1899 1.386 . S
C1898 C1900 1.391 . S
C1899 C1898 1.386 . S
C1899 C1903 1.393 . S
C1900 H1889 0.950 . S
C1900 C1898 1.391 . S
C1900 C1901 1.400 . S
C1901 C1895 1.491 . S
C1901 C1900 1.400 . S
C1901 C1902 1.398 . S
C1902 H1890 0.950 . S
C1902 C1901 1.398 . S
C1902 C1903 1.391 . S
C1903 H1891 0.950 . S
C1903 C1899 1.393 . S
C1903 C1902 1.391 . S
H1904 C1912 0.950 . S
H1905 C1917 0.950 . S
H1906 C1914 0.950 . S
H1907 C1916 0.950 . S
H1908 C1918 0.950 . S
H1909 C1920 0.950 . S
H1910 C1922 0.950 . S
H1911 C1923 0.950 . S
C1912 H1904 0.950 . S
C1912 C1913 1.386 . S
C1912 C1914 1.391 . S
C1913 C1912 1.386 . S
C1913 C1917 1.393 . S
C1914 H1906 0.950 . S
C1914 C1912 1.391 . S
C1914 C1915 1.400 . S
C1915 C1914 1.400 . S
C1915 C1916 1.398 . S
C1915 C1921 1.491 . S
C1916 H1907 0.950 . S
C1916 C1915 1.398 . S
C1916 C1917 1.391 . S
C1917 H1905 0.950 . S
C1917 C1913 1.393 . S
C1917 C1916 1.391 . S
C1918 H1908 0.950 . S
C1918 C1919 1.386 . S
C1918 C1920 1.391 . S
C1919 C1918 1.386 . S
C1919 C1923 1.393 . S
C1920 H1909 0.950 . S
C1920 C1918 1.391 . S
C1920 C1921 1.400 . S
C1921 C1915 1.491 . S
C1921 C1920 1.400 . S
C1921 C1922 1.398 . S
C1922 H1910 0.950 . S
C1922 C1921 1.398 . S
C1922 C1923 1.391 . S
C1923 H1911 0.950 . S
C1923 C1919 1.393 . S
C1923 C1922 1.391 . S
H1924 C1932 0.950 . S
H1925 C1937 0.950 . S
H1926 C1934 0.950 . S
H1927 C1936 0.950 . S
H1928 C1938 0.950 . S
H1929 C1940 0.950 . S
H1930 C1942 0.950 . S
H1931 C1943 0.950 . S
C1932 H1924 0.950 . S
C1932 C1933 1.386 . S
C1932 C1934 1.391 . S
C1933 C1932 1.386 . S
C1933 C1937 1.393 . S
C1934 H1926 0.950 . S
C1934 C1932 1.391 . S
C1934 C1935 1.400 . S
C1935 C1934 1.400 . S
C1935 C1936 1.398 . S
C1935 C1941 1.491 . S
C1936 H1927 0.950 . S
C1936 C1935 1.398 . S
C1936 C1937 1.391 . S
C1937 H1925 0.950 . S
C1937 C1933 1.393 . S
C1937 C1936 1.391 . S
C1938 H1928 0.950 . S
C1938 C1939 1.386 . S
C1938 C1940 1.391 . S
C1939 C1938 1.386 . S
C1939 C1943 1.393 . S
C1940 H1929 0.950 . S
C1940 C1938 1.391 . S
C1940 C1941 1.400 . S
C1941 C1935 1.491 . S
C1941 C1940 1.400 . S
C1941 C1942 1.398 . S
C1942 H1930 0.950 . S
C1942 C1941 1.398 . S
C1942 C1943 1.391 . S
C1943 H1931 0.950 . S
C1943 C1939 1.393 . S
C1943 C1942 1.391 . S
H1944 C1952 0.950 . S
H1945 C1957 0.950 . S
H1946 C1954 0.950 . S
H1947 C1956 0.950 . S
H1948 C1958 0.950 . S
H1949 C1960 0.950 . S
H1950 C1962 0.950 . S
H1951 C1963 0.950 . S
C1952 H1944 0.950 . S
C1952 C1953 1.386 . S
C1952 C1954 1.391 . S
C1953 C1952 1.386 . S
C1953 C1957 1.393 . S
C1954 H1946 0.950 . S
C1954 C1952 1.391 . S
C1954 C1955 1.400 . S
C1955 C1954 1.400 . S
C1955 C1956 1.398 . S
C1955 C1961 1.491 . S
C1956 H1947 0.950 . S
C1956 C1955 1.398 . S
C1956 C1957 1.391 . S
C1957 H1945 0.950 . S
C1957 C1953 1.393 . S
C1957 C1956 1.391 . S
C1958 H1948 0.950 . S
C1958 C1959 1.386 . S
C1958 C1960 1.391 . S
C1959 C1958 1.386 . S
C1959 C1963 1.393 . S
C1960 H1949 0.950 . S
C1960 C1958 1.391 . S
C1960 C1961 1.400 . S
C1961 C1955 1.491 . S
C1961 C1960 1.400 . S
C1961 C1962 1.398 . S
C1962 H1950 0.950 . S
C1962 C1961 1.398 . S
C1962 C1963 1.391 . S
C1963 H1951 0.950 . S
C1963 C1959 1.393 . S
C1963 C1962 1.391 . S
H1964 C1972 0.950 . S
H1965 C1977 0.950 . S
H1966 C1974 0.950 . S
H1967 C1976 0.950 . S
H1968 C1978 0.950 . S
H1969 C1980 0.950 . S
H1970 C1982 0.950 . S
H1971 C1983 0.950 . S
C1972 H1964 0.950 . S
C1972 C1973 1.386 . S
C1972 C1974 1.391 . S
C1973 C1972 1.386 . S
C1973 C1977 1.393 . S
C1974 H1966 0.950 . S
C1974 C1972 1.391 . S
C1974 C1975 1.400 . S
C1975 C1974 1.400 . S
C1975 C1976 1.398 . S
C1975 C1981 1.491 . S
C1976 H1967 0.950 . S
C1976 C1975 1.398 . S
C1976 C1977 1.391 . S
C1977 H1965 0.950 . S
C1977 C1973 1.393 . S
C1977 C1976 1.391 . S
C1978 H1968 0.950 . S
C1978 C1979 1.386 . S
C1978 C1980 1.391 . S
C1979 C1978 1.386 . S
C1979 C1983 1.393 . S
C1980 H1969 0.950 . S
C1980 C1978 1.391 . S
C1980 C1981 1.400 . S
C1981 C1975 1.491 . S
C1981 C1980 1.400 . S
C1981 C1982 1.398 . S
C1982 H1970 0.950 . S
C1982 C1981 1.398 . S
C1982 C1983 1.391 . S
C1983 H1971 0.950 . S
C1983 C1979 1.393 . S
C1983 C1982 1.391 . S
H1984 C1992 0.950 . S
H1985 C1997 0.950 . S
H1986 C1994 0.950 . S
H1987 C1996 0.950 . S
H1988 C1998 0.950 . S
H1989 C2000 0.950 . S
H1990 C2002 0.950 . S
H1991 C2003 0.950 . S
C1992 H1984 0.950 . S
C1992 C1993 1.386 . S
C1992 C1994 1.391 . S
C1993 C1992 1.386 . S
C1993 C1997 1.393 . S
C1994 H1986 0.950 . S
C1994 C1992 1.391 . S
C1994 C1995 1.400 . S
C1995 C1994 1.400 . S
C1995 C1996 1.398 . S
C1995 C2001 1.491 . S
C1996 H1987 0.950 . S
C1996 C1995 1.398 . S
C1996 C1997 1.391 . S
C1997 H1985 0.950 . S
C1997 C1993 1.393 . S
C1997 C1996 1.391 . S
C1998 H1988 0.950 . S
C1998 C1999 1.386 . S
C1998 C2000 1.391 . S
C1999 C1998 1.386 . S
C1999 C2003 1.393 . S
C2000 H1989 0.950 . S
C2000 C1998 1.391 . S
C2000 C2001 1.400 . S
C2001 C1995 1.491 . S
C2001 C2000 1.400 . S
C2001 C2002 1.398 . S
C2002 H1990 0.950 . S
C2002 C2001 1.398 . S
C2002 C2003 1.391 . S
C2003 H1991 0.950 . S
C2003 C1999 1.393 . S
C2003 C2002 1.391 . S
H2004 C2012 0.950 . S
H2005 C2017 0.950 . S
H2006 C2014 0.950 . S
H2007 C2016 0.950 . S
H2008 C2018 0.950 . S
H2009 C2020 0.950 . S
H2010 C2022 0.950 . S
H2011 C2023 0.950 . S
C2012 H2004 0.950 . S
C2012 C2013 1.386 . S
C2012 C2014 1.391 . S
C2013 C2012 1.386 . S
C2013 C2017 1.393 . S
C2014 H2006 0.950 . S
C2014 C2012 1.391 . S
C2014 C2015 1.400 . S
C2015 C2014 1.400 . S
C2015 C2016 1.398 . S
C2015 C2021 1.491 . S
C2016 H2007 0.950 . S
C2016 C2015 1.398 . S
C2016 C2017 1.391 . S
C2017 H2005 0.950 . S
C2017 C2013 1.393 . S
C2017 C2016 1.391 . S
C2018 H2008 0.950 . S
C2018 C2019 1.386 . S
C2018 C2020 1.391 . S
C2019 C2018 1.386 . S
C2019 C2023 1.393 . S
C2020 H2009 0.950 . S
C2020 C2018 1.391 . S
C2020 C2021 1.400 . S
C2021 C2015 1.491 . S
C2021 C2020 1.400 . S
C2021 C2022 1.398 . S
C2022 H2010 0.950 . S
C2022 C2021 1.398 . S
C2022 C2023 1.391 . S
C2023 H2011 0.950 . S
C2023 C2019 1.393 . S
C2023 C2022 1.391 . S
H2024 C2032 0.950 . S
H2025 C2037 0.950 . S
H2026 C2034 0.950 . S
H2027 C2036 0.950 . S
H2028 C2038 0.950 . S
H2029 C2040 0.950 . S
H2030 C2042 0.950 . S
H2031 C2043 0.950 . S
C2032 H2024 0.950 . S
C2032 C2033 1.386 . S
C2032 C2034 1.391 . S
C2033 C2032 1.386 . S
C2033 C2037 1.393 . S
C2034 H2026 0.950 . S
C2034 C2032 1.391 . S
C2034 C2035 1.400 . S
C2035 C2034 1.400 . S
C2035 C2036 1.398 . S
C2035 C2041 1.491 . S
C2036 H2027 0.950 . S
C2036 C2035 1.398 . S
C2036 C2037 1.391 . S
C2037 H2025 0.950 . S
C2037 C2033 1.393 . S
C2037 C2036 1.391 . S
C2038 H2028 0.950 . S
C2038 C2039 1.386 . S
C2038 C2040 1.391 . S
C2039 C2038 1.386 . S
C2039 C2043 1.393 . S
C2040 H2029 0.950 . S
C2040 C2038 1.391 . S
C2040 C2041 1.400 . S
C2041 C2035 1.491 . S
C2041 C2040 1.400 . S
C2041 C2042 1.398 . S
C2042 H2030 0.950 . S
C2042 C2041 1.398 . S
C2042 C2043 1.391 . S
C2043 H2031 0.950 . S
C2043 C2039 1.393 . S
C2043 C2042 1.391 . S
H2044 C2052 0.950 . S
H2045 C2057 0.950 . S
H2046 C2054 0.950 . S
H2047 C2056 0.950 . S
H2048 C2058 0.950 . S
H2049 C2060 0.950 . S
H2050 C2062 0.950 . S
H2051 C2063 0.950 . S
C2052 H2044 0.950 . S
C2052 C2053 1.386 . S
C2052 C2054 1.391 . S
C2053 C2052 1.386 . S
C2053 C2057 1.393 . S
C2054 H2046 0.950 . S
C2054 C2052 1.391 . S
C2054 C2055 1.400 . S
C2055 C2054 1.400 . S
C2055 C2056 1.398 . S
C2055 C2061 1.491 . S
C2056 H2047 0.950 . S
C2056 C2055 1.398 . S
C2056 C2057 1.391 . S
C2057 H2045 0.950 . S
C2057 C2053 1.393 . S
C2057 C2056 1.391 . S
C2058 H2048 0.950 . S
C2058 C2059 1.386 . S
C2058 C2060 1.391 . S
C2059 C2058 1.386 . S
C2059 C2063 1.393 . S
C2060 H2049 0.950 . S
C2060 C2058 1.391 . S
C2060 C2061 1.400 . S
C2061 C2055 1.491 . S
C2061 C2060 1.400 . S
C2061 C2062 1.398 . S
C2062 H2050 0.950 . S
C2062 C2061 1.398 . S
C2062 C2063 1.391 . S
C2063 H2051 0.950 . S
C2063 C2059 1.393 . S
C2063 C2062 1.391 . S
H2064 C2072 0.950 . S
H2065 C2077 0.950 . S
H2066 C2074 0.950 . S
H2067 C2076 0.950 . S
H2068 C2078 0.950 . S
H2069 C2080 0.950 . S
H2070 C2082 0.950 . S
H2071 C2083 0.950 . S
C2072 H2064 0.950 . S
C2072 C2073 1.386 . S
C2072 C2074 1.391 . S
C2073 C2072 1.386 . S
C2073 C2077 1.393 1_556 S
C2074 H2066 0.950 . S
C2074 C2072 1.391 . S
C2074 C2075 1.400 1_556 S
C2075 C2074 1.400 1_554 S
C2075 C2076 1.398 . S
C2075 C2081 1.491 . S
C2076 H2067 0.950 . S
C2076 C2075 1.398 . S
C2076 C2077 1.391 . S
C2077 H2065 0.950 . S
C2077 C2073 1.393 1_554 S
C2077 C2076 1.391 . S
C2078 H2068 0.950 . S
C2078 C2079 1.386 . S
C2078 C2080 1.391 . S
C2079 C2078 1.386 . S
C2079 C2083 1.393 . S
C2080 H2069 0.950 . S
C2080 C2078 1.391 . S
C2080 C2081 1.400 . S
C2081 C2075 1.491 . S
C2081 C2080 1.400 . S
C2081 C2082 1.398 . S
C2082 H2070 0.950 . S
C2082 C2081 1.398 . S
C2082 C2083 1.391 . S
C2083 H2071 0.950 . S
C2083 C2079 1.393 . S
C2083 C2082 1.391 . S
H2084 C2092 0.950 . S
H2085 C2097 0.950 . S
H2086 C2094 0.950 1_556 S
H2087 C2096 0.950 . S
H2088 C2098 0.950 . S
H2089 C2100 0.950 . S
H2090 C2102 0.950 . S
H2091 C2103 0.950 . S
C2092 H2084 0.950 . S
C2092 C2093 1.386 . S
C2092 C2094 1.391 . S
C2093 C2092 1.386 . S
C2093 C2097 1.393 . S
C2094 H2086 0.950 1_554 S
C2094 C2092 1.391 . S
C2094 C2095 1.400 . S
C2095 C2094 1.400 . S
C2095 C2096 1.398 . S
C2095 C2101 1.491 . S
C2096 H2087 0.950 . S
C2096 C2095 1.398 . S
C2096 C2097 1.391 . S
C2097 H2085 0.950 . S
C2097 C2093 1.393 . S
C2097 C2096 1.391 . S
C2098 H2088 0.950 . S
C2098 C2099 1.386 1_554 S
C2098 C2100 1.391 . S
C2099 C2098 1.386 1_556 S
C2099 C2103 1.393 . S
C2100 H2089 0.950 . S
C2100 C2098 1.391 . S
C2100 C2101 1.400 . S
C2101 C2095 1.491 . S
C2101 C2100 1.400 . S
C2101 C2102 1.398 1_554 S
C2102 H2090 0.950 . S
C2102 C2101 1.398 1_556 S
C2102 C2103 1.391 . S
C2103 H2091 0.950 . S
C2103 C2099 1.393 . S
C2103 C2102 1.391 . S
H2104 C2112 0.950 . S
H2105 C2117 0.950 . S
H2106 C2114 0.950 . S
H2107 C2116 0.950 . S
H2108 C2118 0.950 . S
H2109 C2120 0.950 . S
H2110 C2122 0.950 1_556 S
H2111 C2123 0.950 . S
C2112 H2104 0.950 . S
C2112 C2113 1.386 . S
C2112 C2114 1.391 . S
C2113 C2112 1.386 . S
C2113 C2117 1.393 1_556 S
C2114 H2106 0.950 . S
C2114 C2112 1.391 . S
C2114 C2115 1.400 1_556 S
C2115 C2114 1.400 1_554 S
C2115 C2116 1.398 . S
C2115 C2121 1.491 . S
C2116 H2107 0.950 . S
C2116 C2115 1.398 . S
C2116 C2117 1.391 . S
C2117 H2105 0.950 . S
C2117 C2113 1.393 1_554 S
C2117 C2116 1.391 . S
C2118 H2108 0.950 . S
C2118 C2119 1.386 . S
C2118 C2120 1.391 . S
C2119 C2118 1.386 . S
C2119 C2123 1.393 . S
C2120 H2109 0.950 . S
C2120 C2118 1.391 . S
C2120 C2121 1.400 . S
C2121 C2115 1.491 . S
C2121 C2120 1.400 . S
C2121 C2122 1.398 . S
C2122 H2110 0.950 1_554 S
C2122 C2121 1.398 . S
C2122 C2123 1.391 . S
C2123 H2111 0.950 . S
C2123 C2119 1.393 . S
C2123 C2122 1.391 . S
H2124 C2132 0.965 . S
H2125 C2137 0.950 . S
H2126 C2134 0.950 1_556 S
H2127 C2136 0.950 . S
H2128 C2138 0.950 . S
H2129 C2140 0.950 . S
H2130 C2142 0.950 . S
H2131 C2143 0.950 . S
C2132 H2124 0.965 . S
C2132 C2133 1.386 . S
C2132 C2134 1.391 . S
C2133 C2132 1.386 . S
C2133 C2137 1.393 . S
C2134 H2126 0.950 1_554 S
C2134 C2132 1.391 . S
C2134 C2135 1.400 . S
C2135 C2134 1.400 . S
C2135 C2136 1.398 . S
C2135 C2141 1.491 . S
C2136 H2127 0.950 . S
C2136 C2135 1.398 . S
C2136 C2137 1.391 . S
C2137 H2125 0.950 . S
C2137 C2133 1.393 . S
C2137 C2136 1.391 . S
C2138 H2128 0.950 . S
C2138 C2139 1.386 1_554 S
C2138 C2140 1.391 . S
C2139 C2138 1.386 1_556 S
C2139 C2143 1.393 . S
C2140 H2129 0.950 . S
C2140 C2138 1.391 . S
C2140 C2141 1.400 . S
C2141 C2135 1.491 . S
C2141 C2140 1.400 . S
C2141 C2142 1.398 1_554 S
C2142 H2130 0.950 . S
C2142 C2141 1.398 1_556 S
C2142 C2143 1.391 . S
C2143 H2131 0.950 . S
C2143 C2139 1.393 . S
C2143 C2142 1.391 . S
H2144 C2152 0.950 . S
H2145 C2157 0.950 . S
H2146 C2154 0.950 . S
H2147 C2156 0.950 . S
H2148 C2158 0.950 . S
H2149 C2160 0.950 . S
H2150 C2162 0.950 . S
H2151 C2163 0.950 . S
C2152 H2144 0.950 . S
C2152 C2153 1.386 . S
C2152 C2154 1.391 . S
C2153 C2152 1.386 . S
C2153 C2157 1.393 . S
C2154 H2146 0.950 . S
C2154 C2152 1.391 . S
C2154 C2155 1.400 . S
C2155 C2154 1.400 . S
C2155 C2156 1.398 . S
C2155 C2161 1.491 . S
C2156 H2147 0.950 . S
C2156 C2155 1.398 . S
C2156 C2157 1.391 . S
C2157 H2145 0.950 . S
C2157 C2153 1.393 . S
C2157 C2156 1.391 . S
C2158 H2148 0.950 . S
C2158 C2159 1.386 . S
C2158 C2160 1.391 . S
C2159 C2158 1.386 . S
C2159 C2163 1.393 . S
C2160 H2149 0.950 . S
C2160 C2158 1.391 . S
C2160 C2161 1.400 . S
C2161 C2155 1.491 . S
C2161 C2160 1.400 . S
C2161 C2162 1.398 . S
C2162 H2150 0.950 . S
C2162 C2161 1.398 . S
C2162 C2163 1.391 . S
C2163 H2151 0.950 . S
C2163 C2159 1.393 . S
C2163 C2162 1.391 . S
H2164 C2172 0.950 . S
H2165 C2177 0.950 . S
H2166 C2174 0.950 . S
H2167 C2176 0.950 . S
H2168 C2178 0.950 . S
H2169 C2180 0.950 . S
H2170 C2182 0.950 . S
H2171 C2183 0.950 . S
C2172 H2164 0.950 . S
C2172 C2173 1.386 . S
C2172 C2174 1.391 . S
C2173 C2172 1.386 . S
C2173 C2177 1.393 . S
C2174 H2166 0.950 . S
C2174 C2172 1.391 . S
C2174 C2175 1.400 . S
C2175 C2174 1.400 . S
C2175 C2176 1.398 . S
C2175 C2181 1.491 . S
C2176 H2167 0.950 . S
C2176 C2175 1.398 . S
C2176 C2177 1.391 . S
C2177 H2165 0.950 . S
C2177 C2173 1.393 . S
C2177 C2176 1.391 . S
C2178 H2168 0.950 . S
C2178 C2179 1.386 . S
C2178 C2180 1.391 . S
C2179 C2178 1.386 . S
C2179 C2183 1.393 . S
C2180 H2169 0.950 . S
C2180 C2178 1.391 . S
C2180 C2181 1.400 . S
C2181 C2175 1.491 . S
C2181 C2180 1.400 . S
C2181 C2182 1.398 . S
C2182 H2170 0.950 . S
C2182 C2181 1.398 . S
C2182 C2183 1.391 . S
C2183 H2171 0.950 . S
C2183 C2179 1.393 . S
C2183 C2182 1.391 . S
H2184 C2192 0.950 . S
H2185 C2197 0.950 . S
H2186 C2194 0.950 . S
H2187 C2196 0.950 . S
H2188 C2198 0.950 . S
H2189 C2200 0.950 . S
H2190 C2202 0.950 . S
H2191 C2203 0.950 . S
C2192 H2184 0.950 . S
C2192 C2193 1.386 . S
C2192 C2194 1.391 . S
C2193 C2192 1.386 . S
C2193 C2197 1.393 . S
C2194 H2186 0.950 . S
C2194 C2192 1.391 . S
C2194 C2195 1.400 . S
C2195 C2194 1.400 . S
C2195 C2196 1.398 . S
C2195 C2201 1.491 . S
C2196 H2187 0.950 . S
C2196 C2195 1.398 . S
C2196 C2197 1.391 . S
C2197 H2185 0.950 . S
C2197 C2193 1.393 . S
C2197 C2196 1.391 . S
C2198 H2188 0.950 . S
C2198 C2199 1.386 . S
C2198 C2200 1.391 . S
C2199 C2198 1.386 . S
C2199 C2203 1.393 . S
C2200 H2189 0.950 . S
C2200 C2198 1.391 . S
C2200 C2201 1.400 . S
C2201 C2195 1.491 . S
C2201 C2200 1.400 . S
C2201 C2202 1.398 . S
C2202 H2190 0.950 . S
C2202 C2201 1.398 . S
C2202 C2203 1.391 . S
C2203 H2191 0.950 . S
C2203 C2199 1.393 . S
C2203 C2202 1.391 . S
H2204 C2212 0.950 . S
H2205 C2217 0.950 . S
H2206 C2214 0.950 . S
H2207 C2216 0.950 . S
H2208 C2218 0.950 . S
H2209 C2220 0.950 . S
H2210 C2222 0.950 . S
H2211 C2223 0.950 . S
C2212 H2204 0.950 . S
C2212 C2213 1.386 . S
C2212 C2214 1.391 . S
C2213 C2212 1.386 . S
C2213 C2217 1.393 . S
C2214 H2206 0.950 . S
C2214 C2212 1.391 . S
C2214 C2215 1.400 . S
C2215 C2214 1.400 . S
C2215 C2216 1.398 . S
C2215 C2221 1.491 . S
C2216 H2207 0.950 . S
C2216 C2215 1.398 . S
C2216 C2217 1.391 . S
C2217 H2205 0.950 . S
C2217 C2213 1.393 . S
C2217 C2216 1.391 . S
C2218 H2208 0.950 . S
C2218 C2219 1.386 . S
C2218 C2220 1.391 . S
C2219 C2218 1.386 . S
C2219 C2223 1.393 . S
C2220 H2209 0.950 . S
C2220 C2218 1.391 . S
C2220 C2221 1.400 . S
C2221 C2215 1.491 . S
C2221 C2220 1.400 . S
C2221 C2222 1.398 . S
C2222 H2210 0.950 . S
C2222 C2221 1.398 . S
C2222 C2223 1.391 . S
C2223 H2211 0.950 . S
C2223 C2219 1.393 . S
C2223 C2222 1.391 . S
H2224 C2232 0.950 . S
H2225 C2237 0.950 1_554 S
H2226 C2234 0.950 . S
H2227 C2236 0.950 1_554 S
H2228 C2238 0.950 . S
H2229 C2240 0.950 . S
H2230 C2242 0.950 . S
H2231 C2243 0.950 . S
C2232 H2224 0.950 . S
C2232 C2233 1.386 . S
C2232 C2234 1.391 . S
C2233 C2232 1.386 . S
C2233 C2237 1.393 . S
C2234 H2226 0.950 . S
C2234 C2232 1.391 . S
C2234 C2235 1.400 . S
C2235 C2234 1.400 . S
C2235 C2236 1.398 . S
C2235 C2241 1.491 . S
C2236 H2227 0.950 1_556 S
C2236 C2235 1.398 . S
C2236 C2237 1.391 . S
C2237 H2225 0.950 1_556 S
C2237 C2233 1.393 . S
C2237 C2236 1.391 . S
C2238 H2228 0.950 . S
C2238 C2239 1.386 . S
C2238 C2240 1.391 . S
C2239 C2238 1.386 . S
C2239 C2243 1.393 1_554 S
C2240 H2229 0.950 . S
C2240 C2238 1.391 . S
C2240 C2241 1.400 1_554 S
C2241 C2235 1.491 . S
C2241 C2240 1.400 1_556 S
C2241 C2242 1.398 . S
C2242 H2230 0.950 . S
C2242 C2241 1.398 . S
C2242 C2243 1.391 . S
C2243 H2231 0.950 . S
C2243 C2239 1.393 1_556 S
C2243 C2242 1.391 . S
H2244 C2252 0.950 . S
H2245 C2257 0.950 . S
H2246 C2254 0.950 . S
H2247 C2256 0.950 . S
H2248 C2258 0.949 . S
H2249 C2260 0.950 . S
H2250 C2262 0.950 . S
H2251 C2263 0.950 . S
C2252 H2244 0.950 . S
C2252 C2253 1.386 . S
C2252 C2254 1.391 . S
C2253 C2252 1.386 . S
C2253 C2257 1.393 . S
C2254 H2246 0.950 . S
C2254 C2252 1.391 . S
C2254 C2255 1.400 . S
C2255 C2254 1.400 . S
C2255 C2256 1.398 . S
C2255 C2261 1.491 . S
C2256 H2247 0.950 . S
C2256 C2255 1.398 . S
C2256 C2257 1.391 . S
C2257 H2245 0.950 . S
C2257 C2253 1.393 . S
C2257 C2256 1.391 . S
C2258 H2248 0.949 . S
C2258 C2259 1.389 . S
C2258 C2260 1.388 1_554 S
C2259 C2258 1.389 . S
C2259 C2263 1.393 . S
C2260 H2249 0.950 . S
C2260 C2258 1.388 1_556 S
C2260 C2261 1.400 . S
C2261 C2255 1.491 . S
C2261 C2260 1.400 . S
C2261 C2262 1.398 . S
C2262 H2250 0.950 . S
C2262 C2261 1.398 . S
C2262 C2263 1.391 1_556 S
C2263 H2251 0.950 . S
C2263 C2259 1.393 . S
C2263 C2262 1.391 1_554 S
H2264 C2272 0.950 . S
H2265 C2277 0.950 . S
H2266 C2274 0.950 . S
H2267 C2276 0.950 . S
H2268 C2278 0.950 . S
H2269 C2280 0.950 . S
H2270 C2282 0.950 1_554 S
H2271 C2283 0.950 1_554 S
C2272 H2264 0.950 . S
C2272 C2273 1.386 . S
C2272 C2274 1.391 . S
C2273 C2272 1.386 . S
C2273 C2277 1.393 1_554 S
C2274 H2266 0.950 . S
C2274 C2272 1.391 . S
C2274 C2275 1.400 1_554 S
C2275 C2274 1.400 1_556 S
C2275 C2276 1.398 . S
C2275 C2281 1.491 . S
C2276 H2267 0.950 . S
C2276 C2275 1.398 . S
C2276 C2277 1.391 . S
C2277 H2265 0.950 . S
C2277 C2273 1.393 1_556 S
C2277 C2276 1.391 . S
C2278 H2268 0.950 . S
C2278 C2279 1.386 . S
C2278 C2280 1.391 . S
C2279 C2278 1.386 . S
C2279 C2283 1.393 . S
C2280 H2269 0.950 . S
C2280 C2278 1.391 . S
C2280 C2281 1.400 . S
C2281 C2275 1.491 . S
C2281 C2280 1.400 . S
C2281 C2282 1.398 . S
C2282 H2270 0.950 1_556 S
C2282 C2281 1.398 . S
C2282 C2283 1.391 . S
C2283 H2271 0.950 1_556 S
C2283 C2279 1.393 . S
C2283 C2282 1.391 . S
H2284 C2292 0.950 . S
H2285 C2297 0.950 . S
H2286 C2294 0.950 . S
H2287 C2296 0.950 . S
H2288 C2298 0.950 . S
H2289 C2300 0.950 . S
H2290 C2302 0.950 1_554 S
H2291 C2303 0.950 . S
C2292 H2284 0.950 . S
C2292 C2293 1.386 . S
C2292 C2294 1.391 . S
C2293 C2292 1.386 . S
C2293 C2297 1.393 1_554 S
C2294 H2286 0.950 . S
C2294 C2292 1.391 . S
C2294 C2295 1.400 1_554 S
C2295 C2294 1.400 1_556 S
C2295 C2296 1.398 . S
C2295 C2301 1.491 . S
C2296 H2287 0.950 . S
C2296 C2295 1.398 . S
C2296 C2297 1.391 . S
C2297 H2285 0.950 . S
C2297 C2293 1.393 1_556 S
C2297 C2296 1.391 . S
C2298 H2288 0.950 . S
C2298 C2299 1.386 . S
C2298 C2300 1.391 . S
C2299 C2298 1.386 . S
C2299 C2303 1.393 . S
C2300 H2289 0.950 . S
C2300 C2298 1.391 . S
C2300 C2301 1.400 . S
C2301 C2295 1.491 . S
C2301 C2300 1.400 . S
C2301 C2302 1.398 . S
C2302 H2290 0.950 1_556 S
C2302 C2301 1.398 . S
C2302 C2303 1.391 . S
C2303 H2291 0.950 . S
C2303 C2299 1.393 . S
C2303 C2302 1.391 . S
C1353 C68 2.449 . S
C1359 C487 2.589 . S
C1373 C572 2.409 . S
C1379 C152 2.394 . S
C1393 C235 2.574 . S
C1399 C656 2.425 . S
C1413 C320 2.360 . S
C1419 C403 2.526 . S
C1433 C1147 2.597 . S
C1439 C728 2.430 . S
C1453 C1232 2.398 . S
C1459 C812 2.407 . S
C1473 C895 2.584 . S
C1479 C1316 2.414 . S
C1493 C980 2.360 . S
C1499 C1063 2.526 . S
C1513 C58 1.616 . S
C1519 C307 1.703 1_545 S
C1533 C142 1.648 . S
C1539 C55 1.752 . S
C1553 C238 1.537 . S
C1559 C139 1.667 . S
C1573 C310 1.598 . S
C1579 C224 1.548 1_455 S
C1593 C406 1.495 . S
C1599 C476 1.525 1_565 S
C1613 C559 1.734 . S
C1619 C490 1.605 . S
C1633 C562 1.659 . S
C1639 C643 1.737 . S
C1653 C392 1.608 1_655 S
C1659 C646 1.627 . S
C1673 C991 1.702 1_565 S
C1679 C742 1.644 . S
C1693 C826 1.654 . S
C1699 C739 1.747 . S
C1713 C898 1.530 . S
C1719 C823 1.673 . S
C1733 C994 1.595 . S
C1739 C908 1.541 1_655 S
C1753 C1066 1.488 . S
C1759 C1160 1.528 1_545 S
C1773 C1150 1.599 . S
C1779 C1243 1.743 . S
C1793 C1246 1.668 . S
C1799 C1327 1.736 . S
C1813 C1330 1.617 . S
C1819 C1076 1.608 1_455 S
C1833 C70 1.265 . S
C1839 C226 0.982 . S
C1853 C154 1.269 . S
C1859 C322 1.311 . S
C1873 C574 1.272 . S
C1879 C394 0.980 . S
C1893 C658 1.287 . S
C1899 C478 0.928 . S
C1913 C910 0.958 . S
C1919 C730 1.297 . S
C1933 C982 1.322 . S
C1939 C814 1.300 . S
C1953 C1078 0.961 . S
C1959 C1234 1.296 . S
C1973 C1162 0.945 . S
C1979 C1318 1.263 . S
C1993 C67 2.287 . S
C1999 C992 2.258 . S
C2013 C740 2.302 . S
C2019 C151 2.320 . S
C2033 C236 2.361 . S
C2039 C824 2.296 . S
C2053 C907 2.262 . S
C2059 C319 2.304 . S
C2073 C1159 2.285 . S
C2079 C404 2.357 . S
C2093 C488 2.360 . S
C2099 C1244 2.301 . S
C2113 C1328 2.281 . S
C2119 C571 2.314 . S
C2133 C655 2.280 . S
C2139 C1075 2.237 . S
C2153 C727 2.292 . S
C2159 C308 2.259 . S
C2173 C811 2.326 . S
C2179 C56 2.292 . S
C2193 C140 2.296 . S
C2199 C896 2.360 . S
C2213 C979 2.302 . S
C2219 C223 2.264 . S
C2233 C1064 2.358 . S
C2239 C475 2.288 . S
C2253 C1148 2.363 . S
C2259 C560 2.309 . S
C2273 C644 2.281 . S
C2279 C1231 2.303 . S
C2293 C391 2.252 . S
C2299 C1315 2.271 . S
