# Generated by pormake.
# Topology wiv, (6)-cn, num edge types: 1
# Building blocks:
#     Node 0, Type 0, BuildingBlock: JUFBIX_clean_sbu_0, # of connection points: 6
#     Node 1, Type 0, BuildingBlock: JUFBIX_clean_sbu_0, # of connection points: 6
#     Node 2, Type 0, BuildingBlock: JUFBIX_clean_sbu_0, # of connection points: 6
#     Node 3, Type 0, BuildingBlock: JUFBIX_clean_sbu_0, # of connection points: 6
#     Node 4, Type 0, BuildingBlock: JUFBIX_clean_sbu_0, # of connection points: 6
#     Node 5, Type 0, BuildingBlock: JUFBIX_clean_sbu_0, # of connection points: 6
#     Node 6, Type 0, BuildingBlock: JUFBIX_clean_sbu_0, # of connection points: 6
#     Node 7, Type 0, BuildingBlock: JUFBIX_clean_sbu_0, # of connection points: 6
#     Node 8, Type 0, BuildingBlock: JUFBIX_clean_sbu_0, # of connection points: 6
#     Node 9, Type 0, BuildingBlock: JUFBIX_clean_sbu_0, # of connection points: 6
#     Node 10, Type 0, BuildingBlock: JUFBIX_clean_sbu_0, # of connection points: 6
#     Node 11, Type 0, BuildingBlock: JUFBIX_clean_sbu_0, # of connection points: 6
#     Node 12, Type 0, BuildingBlock: JUFBIX_clean_sbu_0, # of connection points: 6
#     Node 13, Type 0, BuildingBlock: JUFBIX_clean_sbu_0, # of connection points: 6
#     Node 14, Type 0, BuildingBlock: JUFBIX_clean_sbu_0, # of connection points: 6
#     Node 15, Type 0, BuildingBlock: JUFBIX_clean_sbu_0, # of connection points: 6
#     Edge 16, Type (0, 0), None
#     Edge 17, Type (0, 0), None
#     Edge 18, Type (0, 0), None
#     Edge 19, Type (0, 0), None
#     Edge 20, Type (0, 0), None
#     Edge 21, Type (0, 0), None
#     Edge 22, Type (0, 0), None
#     Edge 23, Type (0, 0), None
#     Edge 24, Type (0, 0), None
#     Edge 25, Type (0, 0), None
#     Edge 26, Type (0, 0), None
#     Edge 27, Type (0, 0), None
#     Edge 28, Type (0, 0), None
#     Edge 29, Type (0, 0), None
#     Edge 30, Type (0, 0), None
#     Edge 31, Type (0, 0), None
#     Edge 32, Type (0, 0), None
#     Edge 33, Type (0, 0), None
#     Edge 34, Type (0, 0), None
#     Edge 35, Type (0, 0), None
#     Edge 36, Type (0, 0), None
#     Edge 37, Type (0, 0), None
#     Edge 38, Type (0, 0), None
#     Edge 39, Type (0, 0), None
#     Edge 40, Type (0, 0), None
#     Edge 41, Type (0, 0), None
#     Edge 42, Type (0, 0), None
#     Edge 43, Type (0, 0), None
#     Edge 44, Type (0, 0), None
#     Edge 45, Type (0, 0), None
#     Edge 46, Type (0, 0), None
#     Edge 47, Type (0, 0), None
#     Edge 48, Type (0, 0), None
#     Edge 49, Type (0, 0), None
#     Edge 50, Type (0, 0), None
#     Edge 51, Type (0, 0), None
#     Edge 52, Type (0, 0), None
#     Edge 53, Type (0, 0), None
#     Edge 54, Type (0, 0), None
#     Edge 55, Type (0, 0), None
#     Edge 56, Type (0, 0), None
#     Edge 57, Type (0, 0), None
#     Edge 58, Type (0, 0), None
#     Edge 59, Type (0, 0), None
#     Edge 60, Type (0, 0), None
#     Edge 61, Type (0, 0), None
#     Edge 62, Type (0, 0), None
#     Edge 63, Type (0, 0), None
# Relax obj value: 0.642
# Max RMSD: 0.174
# Mean RMSD: 0.141
data_MOF--net-wiv--node1-JUFBIX_clean_sbu_0--edge1-none
_symmetry_space_group_name_H-M    P1
_symmetry_Int_Tables_number       1
_symmetry_cell_setting            triclinic
loop_
_symmetry_equiv_pos_as_xyz
'x, y, z'
_cell_length_a     34.792299
_cell_length_b     28.160006
_cell_length_c     6.9660395
_cell_angle_alpha  82.209895
_cell_angle_beta   89.975851
_cell_angle_gamma 89.998375
loop_
_atom_site_label
_atom_site_type_symbol
_atom_site_fract_x
_atom_site_fract_y
_atom_site_fract_z
_atom_type_partial_charge
Co0 Co 0.3999 0.18726 0.25695 0.0
C1 C 0.41468 0.08498 0.3014 0.0
Co2 Co 0.46272 0.17721 0.26625 0.0
C3 C 0.32989 0.21985 0.09754 0.0
C4 C 0.32215 0.18056 0.38141 0.0
N5 N 0.34907 0.1984 0.25232 0.0
N6 N 0.29207 0.21412 0.12061 0.0
C7 C 0.28665 0.19014 0.29973 0.0
H8 H 0.34329 0.23569 0.96408 0.0
H9 H 0.32798 0.15887 0.51865 0.0
C10 C 0.43976 0.28067 0.21223 0.0
N11 N 0.51917 0.17135 0.26393 0.0
C12 C 0.55009 0.15145 0.37089 0.0
C13 C 0.53608 0.20416 0.13113 0.0
N14 N 0.58444 0.17307 0.3124 0.0
C15 C 0.57468 0.2062 0.16275 0.0
C16 C 0.43147 0.18213 0.87245 0.0
O17 O 0.40761 0.25863 0.22084 0.0
O18 O 0.46951 0.25298 0.23004 0.0
O19 O 0.46231 0.17749 0.97373 0.0
O20 O 0.4004 0.18724 0.96579 0.0
O21 O 0.44989 0.10206 0.30171 0.0
H22 H 0.52099 0.22766 1.02075 0.0
H23 H 0.54711 0.12493 0.49785 0.0
O24 O 0.38821 0.11649 0.28844 0.0
O25 O 0.40064 0.18666 0.54919 0.0
O26 O 0.46288 0.17652 0.55645 0.0
C27 C 0.43168 0.18169 0.64993 0.0
H28 H 0.25942 0.17751 0.36178 0.0
H29 H 0.59444 0.23048 0.07848 0.0
Co30 Co 0.19646 0.62313 0.92149 0.0
C31 C 0.27395 0.6607 0.84721 0.0
Co32 Co 0.19908 0.6994 0.8565 0.0
C33 C 0.15995 0.54236 0.8564 0.0
C34 C 0.22104 0.53488 0.86993 0.0
N35 N 0.19164 0.55773 0.94299 0.0
N36 N 0.16932 0.52039 0.7056 0.0
C37 C 0.20789 0.51466 0.71647 0.0
H38 H 0.13055 0.54993 0.89194 0.0
H39 H 0.25097 0.53767 0.90774 0.0
C40 C 0.12213 0.66796 0.87627 0.0
N41 N 0.20161 0.76438 0.86905 0.0
C42 C 0.22678 0.78005 0.99553 0.0
C43 C 0.17026 0.7916 0.88653 0.0
N44 N 0.21112 0.81275 0.09544 0.0
C45 C 0.17782 0.82487 1.00355 0.0
C46 C 0.19742 0.66279 0.5001 0.0
O47 O 0.13763 0.62801 0.93805 0.0
O48 O 0.14473 0.70289 0.83857 0.0
O49 O 0.2007 0.70299 0.56678 0.0
O50 O 0.19374 0.62561 0.62686 0.0
O51 O 0.25348 0.69773 0.84954 0.0
H52 H 0.14156 0.78456 0.8389 0.0
H53 H 0.25096 0.75873 1.05439 0.0
O54 O 0.25647 0.62076 0.89589 0.0
O55 O 0.19939 0.61885 0.21267 0.0
O56 O 0.19706 0.69566 0.1523 0.0
C57 C 0.19798 0.65877 0.27978 0.0
H58 H 0.22568 0.49746 0.61892 0.0
H59 H 0.15568 0.84654 1.05853 0.0
Co60 Co 0.65862 0.91222 0.08423 0.0
C61 C 0.64618 1.00153 0.07971 0.0
Co62 Co 0.60005 0.92477 0.1068 0.0
C63 C 0.73044 0.91862 0.91729 0.0
C64 C 0.73446 0.87729 0.19852 0.0
N65 N 0.71033 0.90492 0.07928 0.0
N66 N 0.76531 0.89911 0.92595 0.0
C67 C 0.76892 0.87381 0.1034 0.0
H68 H 0.71907 0.94091 0.79162 0.0
H69 H 0.72665 0.85838 0.33878 0.0
C70 C 0.62204 0.83399 0.17084 0.0
N71 N 0.54722 0.92923 0.10865 0.0
C72 C 0.52409 0.93298 0.26274 0.0
C73 C 0.5262 0.90436 0.99317 0.0
N74 N 0.48984 0.9116 0.24549 0.0
C75 C 0.49115 0.89338 0.07703 0.0
C76 C 0.62937 0.91766 0.7076 0.0
O77 O 0.65449 0.85292 0.16796 0.0
O78 O 0.59264 0.85824 0.11731 0.0
O79 O 0.60126 0.93316 0.80332 0.0
O80 O 0.6572 0.89959 0.81003 0.0
O81 O 0.61067 0.99247 0.11792 0.0
H82 H 0.53677 0.89123 0.8642 0.0
H83 H 0.53237 0.94996 0.38694 0.0
O84 O 0.66333 0.97442 0.98299 0.0
O85 O 0.66042 0.92284 0.37775 0.0
O86 O 0.59851 0.91677 0.39278 0.0
C87 C 0.6297 0.91951 0.48376 0.0
H88 H 0.79378 0.85306 0.15679 0.0
H89 H 0.46823 0.87366 1.01818 0.0
Co90 Co 0.90785 0.44261 1.05932 0.0
C91 C 0.95796 0.4139 0.85489 0.0
Co92 Co 0.8741 0.41932 0.87587 0.0
C93 C 0.90276 0.51834 0.25674 0.0
C94 C 0.95172 0.4804 0.35415 0.0
N95 N 0.92396 0.48002 0.22604 0.0
N96 N 0.89943 0.51884 0.44125 0.0
C97 C 0.93693 0.50675 0.48631 0.0
H98 H 0.87974 0.53364 0.16514 0.0
H99 H 0.98061 0.46878 0.33483 0.0
C100 C 0.81716 0.44801 1.04496 0.0
N101 N 0.84834 0.41527 0.63339 0.0
C102 C 0.87488 0.43675 0.51849 0.0
C103 C 0.81851 0.44674 0.59548 0.0
N104 N 0.86993 0.48446 0.48891 0.0
C105 C 0.83227 0.49109 0.51579 0.0
C106 C 0.88554 0.33619 0.14173 0.0
O107 O 0.84681 0.46875 0.10602 0.0
O108 O 0.82544 0.4135 0.96521 0.0
O109 O 0.87682 0.34642 0.95994 0.0
O110 O 0.89476 0.37377 0.22411 0.0
O111 O 0.92569 0.41556 0.77339 0.0
H112 H 0.78947 0.43985 0.64761 0.0
H113 H 0.90034 0.4184 0.48327 0.0
O114 O 0.95905 0.42097 1.02933 0.0
O115 O 0.92939 0.50215 0.91855 0.0
O116 O 0.87406 0.50453 0.81496 0.0
C117 C 0.90492 0.52907 0.83888 0.0
H118 H 0.95524 0.52394 0.5812 0.0
H119 H 0.81724 0.52504 0.49513 0.0
Co120 Co 0.39991 0.43087 0.13829 0.0
C121 C 0.41467 0.53315 0.09376 0.0
Co122 Co 0.46272 0.44092 0.12876 0.0
C123 C 0.32993 0.39817 0.2977 0.0
C124 C 0.32218 0.43751 1.01397 0.0
N125 N 0.3491 0.41971 0.143 0.0
N126 N 0.2921 0.4038 0.27464 0.0
C127 C 0.28667 0.42781 0.09561 0.0
H128 H 0.34332 0.38233 0.43111 0.0
H129 H 0.328 0.45925 0.87679 0.0
C130 C 0.43976 0.33746 0.18285 0.0
N131 N 0.51916 0.44676 0.13106 0.0
C132 C 0.55011 0.46664 1.02418 0.0
C133 C 0.53603 0.41396 0.26394 0.0
N134 N 0.58444 0.44502 0.08282 0.0
C135 C 0.57463 0.41191 0.23246 0.0
C136 C 0.43146 0.436 0.52268 0.0
O137 O 0.40762 0.3595 0.17437 0.0
O138 O 0.46951 0.36515 0.16493 0.0
O139 O 0.46229 0.44064 0.42125 0.0
O140 O 0.40039 0.43089 0.42948 0.0
O141 O 0.44989 0.51608 0.09333 0.0
H142 H 0.52091 0.39046 0.37431 0.0
H143 H 0.54717 0.49316 0.89721 0.0
O144 O 0.38821 0.50164 0.10683 0.0
O145 O 0.40065 0.43147 0.84608 0.0
O146 O 0.46289 0.44161 0.83853 0.0
C147 C 0.43168 0.43644 0.7452 0.0
H148 H 0.25943 0.4404 1.03361 0.0
H149 H 0.59436 0.38762 0.31682 0.0
Co150 Co 0.40787 0.67552 0.83597 0.0
C151 C 0.45796 0.70423 1.0404 0.0
Co152 Co 0.37407 0.69879 1.01955 0.0
C153 C 0.4028 0.59979 0.63849 0.0
C154 C 0.45174 0.63776 0.5408 0.0
N155 N 0.42399 0.63812 0.66909 0.0
N156 N 0.39946 0.59929 0.454 0.0
C157 C 0.43695 0.61141 0.4087 0.0
H158 H 0.37978 0.58448 0.7302 0.0
H159 H 0.48064 0.64936 0.55999 0.0
C160 C 0.31717 0.67009 0.85047 0.0
N161 N 0.34831 0.70281 0.26212 0.0
C162 C 0.37485 0.68137 0.37694 0.0
C163 C 0.31849 0.67131 0.30013 0.0
N164 N 0.36994 0.63365 0.40652 0.0
C165 C 0.33228 0.62698 0.37978 0.0
C166 C 0.38554 0.78193 0.75369 0.0
O167 O 0.34684 0.64939 0.78929 0.0
O168 O 0.32542 0.70457 0.93041 0.0
O169 O 0.37678 0.77169 0.93546 0.0
O170 O 0.3948 0.74436 0.67129 0.0
O171 O 0.42567 0.70258 0.12187 0.0
H172 H 0.28946 0.67817 0.24802 0.0
H173 H 0.4003 0.69973 0.41208 0.0
O174 O 0.45908 0.69715 0.86597 0.0
O175 O 0.42939 0.61597 0.97664 0.0
O176 O 0.37405 0.61358 0.08041 0.0
C177 C 0.40491 0.58905 1.05633 0.0
H178 H 0.45526 0.59422 0.31375 0.0
H179 H 0.31727 0.59301 0.40045 0.0
Co180 Co 0.65869 0.70626 0.31033 0.0
C181 C 0.64625 0.61693 0.3149 0.0
Co182 Co 0.60009 0.69366 0.28802 0.0
C183 C 0.73049 0.69977 0.47725 0.0
C184 C 0.73457 0.7413 0.19643 0.0
N185 N 0.71041 0.71359 0.3153 0.0
N186 N 0.76536 0.71926 0.46892 0.0
C187 C 0.76901 0.74469 0.29172 0.0
H188 H 0.71908 0.6774 0.60268 0.0
H189 H 0.7268 0.76031 1.05633 0.0
C190 C 0.62206 0.78446 0.2239 0.0
N191 N 0.54726 0.68916 0.28626 0.0
C192 C 0.52413 0.6853 0.13233 0.0
C193 C 0.52619 0.71403 0.40167 0.0
N194 N 0.48983 0.70656 0.14972 0.0
C195 C 0.49112 0.72488 0.31797 0.0
C196 C 0.62942 0.70079 0.6871 0.0
O197 O 0.65453 0.76557 0.22675 0.0
O198 O 0.59267 0.76018 0.27744 0.0
O199 O 0.6013 0.6853 0.59151 0.0
O200 O 0.65725 0.71886 0.58455 0.0
O201 O 0.61073 0.62596 0.27698 0.0
H202 H 0.53674 0.72724 0.53048 0.0
H203 H 0.53244 0.66832 1.00815 0.0
O204 O 0.66342 0.64408 0.41132 0.0
O205 O 0.66049 0.69567 1.01677 0.0
O206 O 0.59857 0.70164 1.00209 0.0
C207 C 0.62976 0.69894 0.91093 0.0
H208 H 0.79389 0.76546 0.23863 0.0
H209 H 0.46817 0.74459 0.37678 0.0
Co210 Co 0.69648 0.49499 0.9738 0.0
C211 C 0.77394 0.45741 1.04784 0.0
Co212 Co 0.69908 0.41872 1.03871 0.0
C213 C 0.65994 0.57579 1.03886 0.0
C214 C 0.72103 0.5833 1.02503 0.0
N215 N 0.69164 0.56038 0.95234 0.0
N216 N 0.66929 0.59792 0.18918 0.0
C217 C 0.70787 0.60364 0.17818 0.0
H218 H 0.63054 0.56811 1.00382 0.0
H219 H 0.75097 0.58046 0.98729 0.0
C220 C 0.62215 0.45016 1.01912 0.0
N221 N 0.7016 0.35374 1.02614 0.0
C222 C 0.72677 0.33807 0.89954 0.0
C223 C 0.67025 0.32653 1.00875 0.0
N224 N 0.71111 0.30537 0.79968 0.0
C225 C 0.67781 0.29326 0.89169 0.0
C226 C 0.69741 0.45533 0.39514 0.0
O227 O 0.63765 0.4901 0.95718 0.0
O228 O 0.64474 0.41523 1.05688 0.0
O229 O 0.70071 0.41514 0.32843 0.0
O230 O 0.69371 0.49251 0.26841 0.0
O231 O 0.75347 0.42039 1.04543 0.0
H232 H 0.64155 0.33356 1.05651 0.0
H233 H 0.75095 0.35939 0.8406 0.0
O234 O 0.75647 0.49737 0.99946 0.0
O235 O 0.69944 0.49927 0.68259 0.0
O236 O 0.69705 0.42246 0.74293 0.0
C237 C 0.698 0.45935 0.61546 0.0
H238 H 0.72565 0.62089 0.27553 0.0
H239 H 0.65567 0.27159 0.83679 0.0
Co240 Co 0.8999 0.68725 0.75695 0.0
C241 C 0.91468 0.58496 0.8015 0.0
Co242 Co 0.96272 0.6772 0.76623 0.0
C243 C 0.82993 0.71986 0.59739 0.0
C244 C 0.82213 0.68058 0.88124 0.0
N245 N 0.84908 0.6984 0.75224 0.0
N246 N 0.79211 0.7141 0.62028 0.0
C247 C 0.78664 0.69017 0.79943 0.0
H248 H 0.84334 0.73574 0.46403 0.0
H249 H 0.82794 0.6589 1.01854 0.0
C250 C 0.93977 0.78066 0.71219 0.0
N251 N 1.01917 0.67135 0.76389 0.0
C252 C 0.05009 0.65148 0.87091 0.0
C253 C 1.03608 0.70414 0.63103 0.0
N254 N 0.08444 0.6731 0.81241 0.0
C255 C 0.07467 0.7062 0.66267 0.0
C256 C 0.93148 0.68211 0.37244 0.0
O257 O 0.90762 0.75862 0.72082 0.0
O258 O 0.96951 0.75296 0.73 0.0
O259 O 0.96231 0.67747 0.47372 0.0
O260 O 0.90041 0.68722 0.46579 0.0
O261 O 0.94989 0.60204 0.80174 0.0
H262 H 1.02098 0.72763 0.52061 0.0
H263 H 0.04712 0.62497 0.99793 0.0
O264 O 0.88821 0.61647 0.78847 0.0
O265 O 0.90063 0.68665 1.04919 0.0
O266 O 0.96288 0.67652 1.05643 0.0
C267 C 0.93168 0.68168 0.14991 0.0
H268 H 0.75939 0.67758 0.86143 0.0
H269 H 0.09443 0.73048 0.57836 0.0
Co270 Co 0.69647 0.12308 0.42159 0.0
C271 C 0.77396 0.16066 0.34734 0.0
Co272 Co 0.69909 0.19936 0.35658 0.0
C273 C 0.65994 1.04233 0.35662 0.0
C274 C 0.72104 1.03488 0.36947 0.0
N275 N 0.69166 0.05766 0.44309 0.0
N276 N 0.66926 1.02047 0.20543 0.0
C277 C 0.70784 1.01479 0.21579 0.0
H278 H 0.63055 1.04982 0.39264 0.0
H279 H 0.75098 1.03767 0.40704 0.0
C280 C 0.62214 0.16792 0.37623 0.0
N281 N 0.70162 0.26434 0.36916 0.0
C282 C 0.72679 0.27998 0.49571 0.0
C283 C 0.67026 0.29155 0.38674 0.0
N284 N 0.71109 0.31263 0.59571 0.0
C285 C 0.67779 0.3248 0.50395 0.0
C286 C 0.69743 0.16275 1.0002 0.0
O287 O 0.63762 0.12797 0.4381 0.0
O288 O 0.64474 0.20285 0.33862 0.0
O289 O 0.70071 0.20294 1.06687 0.0
O290 O 0.69375 0.12557 0.12696 0.0
O291 O 0.75349 0.19769 0.34963 0.0
H292 H 0.64156 0.28451 0.33907 0.0
H293 H 0.75097 0.25867 0.55454 0.0
O294 O 0.75648 0.12072 0.39605 0.0
O295 O 0.69939 0.1188 0.71278 0.0
O296 O 0.69707 0.1956 0.65239 0.0
C297 C 0.69799 0.15872 0.77988 0.0
H298 H 0.72559 0.99772 0.11772 0.0
H299 H 0.65565 0.34643 0.55909 0.0
Co300 Co 0.15872 0.41198 0.58483 0.0
C301 C 0.14628 0.50131 0.58014 0.0
Co302 Co 0.10013 0.42458 0.60733 0.0
C303 C 0.23052 0.41838 0.41783 0.0
C304 C 0.23455 0.37692 0.6988 0.0
N305 N 0.21043 0.40463 0.57984 0.0
N306 N 0.26537 0.39881 0.42616 0.0
C307 C 0.26898 0.37343 0.60345 0.0
H308 H 0.21913 0.44072 0.29232 0.0
H309 H 0.22675 0.35795 0.83896 0.0
C310 C 0.12208 0.33378 0.67135 0.0
N311 N 0.0473 0.42908 0.60914 0.0
C312 C 1.02415 0.43287 0.76313 0.0
C313 C 1.02626 0.40427 0.49353 0.0
N314 N 0.98986 0.41162 0.74556 0.0
C315 C 0.99118 0.39337 0.57717 0.0
C316 C 0.12945 0.41746 0.20816 0.0
O317 O 0.15454 0.35268 0.6685 0.0
O318 O 0.09269 0.35806 0.61787 0.0
O319 O 0.10135 0.43296 0.30386 0.0
O320 O 0.15728 0.39937 0.3106 0.0
O321 O 0.11077 0.49227 0.61837 0.0
H322 H 1.03683 0.3911 0.36462 0.0
H323 H 1.03244 0.4498 0.88745 0.0
O324 O 0.16348 0.47416 0.48376 0.0
O325 O 0.16052 0.42259 0.87834 0.0
O326 O 0.09859 0.41659 0.8933 0.0
C327 C 0.12979 0.4193 0.98432 0.0
H328 H 0.29383 0.35261 0.65654 0.0
H329 H 0.96825 0.37367 0.51822 0.0
Co330 Co 0.40784 0.94263 0.55922 0.0
C331 C 0.45795 0.91393 0.35477 0.0
Co332 Co 0.37409 0.91934 0.37575 0.0
C333 C 0.40275 1.01838 0.75665 0.0
C334 C 0.45171 0.98044 0.85406 0.0
N335 N 0.42395 0.98006 0.72594 0.0
N336 N 0.39941 1.01887 0.94115 0.0
C337 C 0.43691 1.00678 0.98622 0.0
H338 H 0.37973 1.03368 0.66503 0.0
H339 H 0.4806 0.96886 0.83468 0.0
C340 C 0.31716 0.94805 0.54482 0.0
N341 N 0.34833 0.91529 0.13328 0.0
C342 C 0.37486 0.93677 1.01836 0.0
C343 C 0.31849 0.94676 0.09538 0.0
N344 N 0.36991 0.98448 0.98878 0.0
C345 C 0.33225 0.9911 1.01569 0.0
C346 C 0.38553 0.83622 0.64162 0.0
O347 O 0.34681 0.96878 0.60589 0.0
O348 O 0.32544 0.91353 0.4651 0.0
O349 O 0.37681 0.84644 0.45984 0.0
O350 O 0.39475 0.87379 0.724 0.0
O351 O 0.42568 0.91557 0.27327 0.0
H352 H 0.28946 0.93986 0.14752 0.0
H353 H 0.40033 0.91843 0.98314 0.0
O354 O 0.45904 0.92099 0.52922 0.0
O355 O 0.42939 1.00217 0.41847 0.0
O356 O 0.37406 1.00455 0.31481 0.0
C357 C 0.40491 1.02909 0.33884 0.0
H358 H 0.45522 1.02399 0.08104 0.0
H359 H 0.31722 1.02506 0.99505 0.0
Co360 Co 0.89993 0.93086 0.63823 0.0
C361 C 0.9147 1.03314 0.59379 0.0
Co362 Co 0.96273 0.94092 0.62873 0.0
C363 C 0.8299 0.89835 0.79779 0.0
C364 C 0.82222 0.93754 0.5137 0.0
N365 N 0.84911 0.91973 0.64292 0.0
N366 N 0.7921 0.90416 0.77468 0.0
C367 C 0.78669 0.92802 0.59539 0.0
H368 H 0.84327 0.88252 0.93129 0.0
H369 H 0.82808 0.95917 0.37633 0.0
C370 C 0.93977 0.83745 0.68281 0.0
N371 N 1.01918 0.94676 0.631 0.0
C372 C 0.05012 0.96667 0.52414 0.0
C373 C 1.03606 0.91395 0.76381 0.0
N374 N 0.08445 0.94505 0.58271 0.0
C375 C 0.07465 0.91192 0.7323 0.0
C376 C 0.93149 0.93599 1.02264 0.0
O377 O 0.90763 0.85949 0.67432 0.0
O378 O 0.96952 0.86514 0.66489 0.0
O379 O 0.96232 0.94063 0.92122 0.0
O380 O 0.90042 0.93088 0.92943 0.0
O381 O 0.94992 1.01607 0.59334 0.0
H382 H 1.02094 0.89044 0.87415 0.0
H383 H 0.04717 0.99321 0.39722 0.0
O384 O 0.88824 1.00162 0.6068 0.0
O385 O 0.90067 0.93145 0.34603 0.0
O386 O 0.96291 0.94161 0.3385 0.0
C387 C 0.93171 0.93643 0.24515 0.0
H388 H 0.75947 0.94062 0.53322 0.0
H389 H 0.0944 0.88763 0.8166 0.0
Co390 Co 0.90788 0.17549 0.33608 0.0
C391 C 0.95796 0.2042 0.54052 0.0
Co392 Co 0.87408 0.19876 0.51965 0.0
C393 C 0.9028 0.09975 0.13862 0.0
C394 C 0.95174 0.1377 1.04093 0.0
N395 N 0.92399 0.13808 0.16921 0.0
N396 N 0.89946 0.09925 0.95414 0.0
C397 C 0.93695 0.11136 0.90885 0.0
H398 H 0.87978 0.08445 0.23035 0.0
H399 H 0.98064 0.14928 1.06019 0.0
C400 C 0.81718 0.17006 0.3506 0.0
N401 N 0.84832 0.20278 0.76224 0.0
C402 C 0.87486 0.18133 0.87705 0.0
C403 C 0.8185 0.17128 0.80024 0.0
N404 N 0.86994 0.13361 0.90663 0.0
C405 C 0.83228 0.12695 0.87988 0.0
C406 C 0.88554 0.2819 0.25379 0.0
O407 O 0.84685 0.14936 0.28941 0.0
O408 O 0.82542 0.20454 0.43053 0.0
O409 O 0.87679 0.27166 0.43556 0.0
O410 O 0.89481 0.24434 0.17139 0.0
O411 O 0.92567 0.20256 0.62197 0.0
H412 H 0.78947 0.17814 0.74814 0.0
H413 H 0.90031 0.19969 0.9122 0.0
O414 O 0.95909 0.19712 0.36608 0.0
O415 O 0.92941 0.11596 0.47674 0.0
O416 O 0.87407 0.11356 0.5805 0.0
C417 C 0.90493 0.08903 0.55642 0.0
H418 H 0.95526 0.09414 0.81397 0.0
H419 H 0.81727 0.09298 0.90056 0.0
Co420 Co 0.15865 0.20601 0.81082 0.0
C421 C 0.14619 0.1167 0.81537 0.0
Co422 Co 0.10006 0.19347 0.78842 0.0
C423 C 0.23047 0.19956 0.97774 0.0
C424 C 0.23454 0.24092 0.69656 0.0
N425 N 0.21038 0.21329 0.81574 0.0
N426 N 0.26534 0.21907 0.96915 0.0
C427 C 0.26898 0.24438 0.79173 0.0
H428 H 0.21906 0.17728 0.1034 0.0
H429 H 0.22676 0.25985 0.55634 0.0
C430 C 0.12207 0.28424 0.72434 0.0
N431 N 0.04723 0.18902 0.78661 0.0
C432 C 1.02411 0.18519 0.63262 0.0
C433 C 1.02617 0.21392 0.90195 0.0
N434 N 0.98983 0.2065 0.6499 0.0
C435 C 0.99112 0.22482 0.81815 0.0
C436 C 0.12939 0.20057 0.18754 0.0
O437 O 0.15453 0.26533 0.72713 0.0
O438 O 0.09267 0.25999 0.77792 0.0
O439 O 0.10127 0.18509 0.09192 0.0
O440 O 0.15722 0.21864 0.08499 0.0
O441 O 0.11068 0.12576 0.77729 0.0
H442 H 1.03673 0.22711 1.03078 0.0
H443 H 1.03241 0.16818 0.50849 0.0
O444 O 0.16334 0.14382 0.912 0.0
O445 O 0.16045 0.1954 0.51725 0.0
O446 O 0.09854 0.20147 0.50249 0.0
C447 C 0.12973 0.19872 0.41137 0.0
H448 H 0.29384 0.26514 0.73841 0.0
H449 H 0.96819 0.24457 0.87689 0.0
Co450 Co 0.19649 0.99505 0.47362 0.0
C451 C 0.27394 0.95746 0.54768 0.0
Co452 Co 0.19909 0.91877 0.53856 0.0
C453 C 0.15995 0.07581 0.53865 0.0
C454 C 0.22104 0.08328 0.52545 0.0
N455 N 0.19166 0.06046 0.45213 0.0
N456 N 0.16926 0.09775 0.6896 0.0
C457 C 0.20784 0.10343 0.67902 0.0
H458 H 0.13056 0.06827 0.50295 0.0
H459 H 0.25098 0.08048 0.4878 0.0
C460 C 0.12216 0.95021 0.51899 0.0
N461 N 0.20162 0.85378 0.52599 0.0
C462 C 0.2268 0.83814 0.39935 0.0
C463 C 0.17026 0.82657 0.50854 0.0
N464 N 0.21109 0.80549 0.29941 0.0
C465 C 0.17779 0.79333 0.3913 0.0
C466 C 0.19743 0.95539 0.89498 0.0
O467 O 0.13765 0.99016 0.4571 0.0
O468 O 0.14476 0.91528 0.55667 0.0
O469 O 0.20071 0.91519 0.82827 0.0
O470 O 0.19374 0.99257 0.76824 0.0
O471 O 0.25348 0.92044 0.54532 0.0
H472 H 0.14156 0.83361 0.55633 0.0
H473 H 0.25098 0.85946 0.34042 0.0
O474 O 0.25649 0.99742 0.49921 0.0
O475 O 0.19944 0.99933 0.18242 0.0
O476 O 0.19707 0.92252 0.24276 0.0
C477 C 0.19801 0.95941 0.1153 0.0
H478 H 0.2256 0.12054 0.77689 0.0
H479 H 0.15565 0.77169 0.33624 0.0
loop_
_geom_bond_atom_site_label_1
_geom_bond_atom_site_label_2
_geom_bond_distance
_geom_bond_site_symmetry_2
_ccdc_geom_bond_type
Co0 N5 2.057 . S
Co0 O17 2.021 . S
Co0 O20 2.062 1_554 S
Co0 O24 2.117 . S
Co0 O25 2.020 . S
C1 O21 1.259 . S
C1 O24 1.258 . S
Co2 N11 2.057 . S
Co2 O18 2.117 . S
Co2 O19 2.020 1_554 S
Co2 O21 2.021 . S
Co2 O26 2.062 . S
C3 N5 1.316 . S
C3 N6 1.347 . S
C3 H8 0.931 . S
C4 N5 1.375 . S
C4 C7 1.350 . S
C4 H9 0.930 . S
N5 Co0 2.057 . S
N5 C3 1.316 . S
N5 C4 1.375 . S
N6 C3 1.347 . S
N6 C7 1.373 . S
C7 C4 1.350 . S
C7 N6 1.373 . S
C7 H28 0.931 . S
H8 C3 0.931 . S
H9 C4 0.930 . S
C10 O17 1.259 . S
C10 O18 1.258 . S
N11 Co2 2.057 . S
N11 C12 1.316 . S
N11 C13 1.375 . S
C12 N11 1.316 . S
C12 N14 1.347 . S
C12 H23 0.931 . S
C13 N11 1.375 . S
C13 C15 1.350 . S
C13 H22 0.930 . S
N14 C12 1.347 . S
N14 C15 1.373 . S
C15 C13 1.350 . S
C15 N14 1.373 . S
C15 H29 0.931 . S
C16 O19 1.256 . S
C16 O20 1.255 . S
O17 Co0 2.021 . S
O17 C10 1.259 . S
O18 Co2 2.117 . S
O18 C10 1.258 . S
O19 Co2 2.020 1_556 S
O19 C16 1.256 . S
O20 Co0 2.062 1_556 S
O20 C16 1.255 . S
O21 C1 1.259 . S
O21 Co2 2.021 . S
H22 C13 0.930 . S
H23 C12 0.931 . S
O24 Co0 2.117 . S
O24 C1 1.258 . S
O25 Co0 2.020 . S
O25 C27 1.256 . S
O26 Co2 2.062 . S
O26 C27 1.255 . S
C27 O25 1.256 . S
C27 O26 1.255 . S
H28 C7 0.931 . S
H29 C15 0.931 . S
Co30 N35 2.057 . S
Co30 O47 2.021 . S
Co30 O50 2.062 . S
Co30 O54 2.117 . S
Co30 O55 2.020 1_556 S
C31 O51 1.259 . S
C31 O54 1.258 . S
Co32 N41 2.057 . S
Co32 O48 2.117 . S
Co32 O49 2.020 . S
Co32 O51 2.021 . S
Co32 O56 2.062 1_556 S
C33 N35 1.316 . S
C33 N36 1.347 . S
C33 H38 0.931 . S
C34 N35 1.375 . S
C34 C37 1.350 . S
C34 H39 0.930 . S
N35 Co30 2.057 . S
N35 C33 1.316 . S
N35 C34 1.375 . S
N36 C33 1.347 . S
N36 C37 1.373 . S
C37 C34 1.350 . S
C37 N36 1.373 . S
C37 H58 0.931 . S
H38 C33 0.931 . S
H39 C34 0.930 . S
C40 O47 1.259 . S
C40 O48 1.258 . S
N41 Co32 2.057 . S
N41 C42 1.316 . S
N41 C43 1.375 . S
C42 N41 1.316 . S
C42 N44 1.347 . S
C42 H53 0.931 . S
C43 N41 1.375 . S
C43 C45 1.350 . S
C43 H52 0.930 . S
N44 C42 1.347 . S
N44 C45 1.373 . S
C45 C43 1.350 . S
C45 N44 1.373 . S
C45 H59 0.931 . S
C46 O49 1.256 . S
C46 O50 1.255 . S
O47 Co30 2.021 . S
O47 C40 1.259 . S
O48 Co32 2.117 . S
O48 C40 1.258 . S
O49 Co32 2.020 . S
O49 C46 1.256 . S
O50 Co30 2.062 . S
O50 C46 1.255 . S
O51 C31 1.259 . S
O51 Co32 2.021 . S
H52 C43 0.930 . S
H53 C42 0.931 . S
O54 Co30 2.117 . S
O54 C31 1.258 . S
O55 Co30 2.020 1_554 S
O55 C57 1.256 . S
O56 Co32 2.062 1_554 S
O56 C57 1.255 . S
C57 O55 1.256 . S
C57 O56 1.255 . S
H58 C37 0.931 . S
H59 C45 0.931 . S
Co60 N65 2.057 . S
Co60 O77 2.021 . S
Co60 O80 2.062 1_554 S
Co60 O84 2.117 . S
Co60 O85 2.020 . S
C61 O81 1.259 . S
C61 O84 1.258 . S
Co62 N71 2.057 . S
Co62 O78 2.117 . S
Co62 O79 2.020 1_554 S
Co62 O81 2.021 . S
Co62 O86 2.062 . S
C63 N65 1.316 . S
C63 N66 1.347 . S
C63 H68 0.931 . S
C64 N65 1.375 . S
C64 C67 1.350 . S
C64 H69 0.930 . S
N65 Co60 2.057 . S
N65 C63 1.316 . S
N65 C64 1.375 . S
N66 C63 1.347 . S
N66 C67 1.373 . S
C67 C64 1.350 . S
C67 N66 1.373 . S
C67 H88 0.931 . S
H68 C63 0.931 . S
H69 C64 0.930 . S
C70 O77 1.259 . S
C70 O78 1.258 . S
N71 Co62 2.057 . S
N71 C72 1.316 . S
N71 C73 1.375 . S
C72 N71 1.316 . S
C72 N74 1.347 . S
C72 H83 0.931 . S
C73 N71 1.375 . S
C73 C75 1.350 . S
C73 H82 0.930 . S
N74 C72 1.347 . S
N74 C75 1.373 . S
C75 C73 1.350 . S
C75 N74 1.373 . S
C75 H89 0.931 . S
C76 O79 1.256 . S
C76 O80 1.255 . S
O77 Co60 2.021 . S
O77 C70 1.259 . S
O78 Co62 2.117 . S
O78 C70 1.258 . S
O79 Co62 2.020 1_556 S
O79 C76 1.256 . S
O80 Co60 2.062 1_556 S
O80 C76 1.255 . S
O81 C61 1.259 . S
O81 Co62 2.021 . S
H82 C73 0.930 . S
H83 C72 0.931 . S
O84 Co60 2.117 . S
O84 C61 1.258 . S
O85 Co60 2.020 . S
O85 C87 1.256 . S
O86 Co62 2.062 . S
O86 C87 1.255 . S
C87 O85 1.256 . S
C87 O86 1.255 . S
H88 C67 0.931 . S
H89 C75 0.931 . S
Co90 N95 2.057 . S
Co90 O107 2.021 . S
Co90 O110 2.062 . S
Co90 O114 2.117 . S
Co90 O115 2.020 1_554 S
C91 O111 1.259 . S
C91 O114 1.258 1_556 S
Co92 N101 2.057 . S
Co92 O108 2.117 . S
Co92 O109 2.020 . S
Co92 O111 2.021 . S
Co92 O116 2.062 . S
C93 N95 1.316 . S
C93 N96 1.347 . S
C93 H98 0.931 . S
C94 N95 1.375 . S
C94 C97 1.350 . S
C94 H99 0.930 . S
N95 Co90 2.057 . S
N95 C93 1.316 . S
N95 C94 1.375 . S
N96 C93 1.347 . S
N96 C97 1.373 . S
C97 C94 1.350 . S
C97 N96 1.373 . S
C97 H118 0.931 . S
H98 C93 0.931 . S
H99 C94 0.930 . S
C100 O107 1.259 1_556 S
C100 O108 1.258 . S
N101 Co92 2.057 . S
N101 C102 1.316 . S
N101 C103 1.375 . S
C102 N101 1.316 . S
C102 N104 1.347 . S
C102 H113 0.931 . S
C103 N101 1.375 . S
C103 C105 1.350 . S
C103 H112 0.930 . S
N104 C102 1.347 . S
N104 C105 1.373 . S
C105 C103 1.350 . S
C105 N104 1.373 . S
C105 H119 0.931 . S
C106 O109 1.256 1_554 S
C106 O110 1.255 . S
O107 Co90 2.021 . S
O107 C100 1.259 1_554 S
O108 Co92 2.117 . S
O108 C100 1.258 . S
O109 Co92 2.020 . S
O109 C106 1.256 1_556 S
O110 Co90 2.062 . S
O110 C106 1.255 . S
O111 C91 1.259 . S
O111 Co92 2.021 . S
H112 C103 0.930 . S
H113 C102 0.931 . S
O114 Co90 2.117 . S
O114 C91 1.258 1_554 S
O115 Co90 2.020 1_556 S
O115 C117 1.256 . S
O116 Co92 2.062 . S
O116 C117 1.255 . S
C117 O115 1.256 . S
C117 O116 1.255 . S
H118 C97 0.931 . S
H119 C105 0.931 . S
Co120 N125 2.057 . S
Co120 O137 2.021 . S
Co120 O140 2.062 . S
Co120 O144 2.117 . S
Co120 O145 2.020 1_554 S
C121 O141 1.259 . S
C121 O144 1.258 . S
Co122 N131 2.057 . S
Co122 O138 2.117 . S
Co122 O139 2.020 . S
Co122 O141 2.021 . S
Co122 O146 2.062 1_554 S
C123 N125 1.316 . S
C123 N126 1.347 . S
C123 H128 0.931 . S
C124 N125 1.375 . S
C124 C127 1.350 . S
C124 H129 0.930 . S
N125 Co120 2.057 . S
N125 C123 1.316 . S
N125 C124 1.375 . S
N126 C123 1.347 . S
N126 C127 1.373 . S
C127 C124 1.350 . S
C127 N126 1.373 . S
C127 H148 0.931 . S
H128 C123 0.931 . S
H129 C124 0.930 . S
C130 O137 1.259 . S
C130 O138 1.258 . S
N131 Co122 2.057 . S
N131 C132 1.316 1_554 S
N131 C133 1.375 . S
C132 N131 1.316 1_556 S
C132 N134 1.347 . S
C132 H143 0.931 . S
C133 N131 1.375 . S
C133 C135 1.350 . S
C133 H142 0.930 . S
N134 C132 1.347 . S
N134 C135 1.373 1_556 S
C135 C133 1.350 . S
C135 N134 1.373 1_554 S
C135 H149 0.931 . S
C136 O139 1.256 . S
C136 O140 1.255 . S
O137 Co120 2.021 . S
O137 C130 1.259 . S
O138 Co122 2.117 . S
O138 C130 1.258 . S
O139 Co122 2.020 . S
O139 C136 1.256 . S
O140 Co120 2.062 . S
O140 C136 1.255 . S
O141 C121 1.259 . S
O141 Co122 2.021 . S
H142 C133 0.930 . S
H143 C132 0.931 . S
O144 Co120 2.117 . S
O144 C121 1.258 . S
O145 Co120 2.020 1_556 S
O145 C147 1.256 . S
O146 Co122 2.062 1_556 S
O146 C147 1.255 . S
C147 O145 1.256 . S
C147 O146 1.255 . S
H148 C127 0.931 . S
H149 C135 0.931 . S
Co150 N155 2.057 . S
Co150 O167 2.021 . S
Co150 O170 2.062 . S
Co150 O174 2.117 . S
Co150 O175 2.020 . S
C151 O171 1.259 1_556 S
C151 O174 1.258 . S
Co152 N161 2.057 . S
Co152 O168 2.117 1_554 S
Co152 O169 2.020 1_554 S
Co152 O171 2.021 . S
Co152 O176 2.062 . S
C153 N155 1.316 . S
C153 N156 1.347 . S
C153 H158 0.931 . S
C154 N155 1.375 . S
C154 C157 1.350 . S
C154 H159 0.930 . S
N155 Co150 2.057 . S
N155 C153 1.316 . S
N155 C154 1.375 . S
N156 C153 1.347 . S
N156 C157 1.373 . S
C157 C154 1.350 . S
C157 N156 1.373 . S
C157 H178 0.931 . S
H158 C153 0.931 . S
H159 C154 0.930 . S
C160 O167 1.259 . S
C160 O168 1.258 . S
N161 Co152 2.057 . S
N161 C162 1.316 . S
N161 C163 1.375 . S
C162 N161 1.316 . S
C162 N164 1.347 . S
C162 H173 0.931 . S
C163 N161 1.375 . S
C163 C165 1.350 . S
C163 H172 0.930 . S
N164 C162 1.347 . S
N164 C165 1.373 . S
C165 C163 1.350 . S
C165 N164 1.373 . S
C165 H179 0.931 . S
C166 O169 1.256 . S
C166 O170 1.255 . S
O167 Co150 2.021 . S
O167 C160 1.259 . S
O168 Co152 2.117 1_556 S
O168 C160 1.258 . S
O169 Co152 2.020 1_556 S
O169 C166 1.256 . S
O170 Co150 2.062 . S
O170 C166 1.255 . S
O171 C151 1.259 1_554 S
O171 Co152 2.021 . S
H172 C163 0.930 . S
H173 C162 0.931 . S
O174 Co150 2.117 . S
O174 C151 1.258 . S
O175 Co150 2.020 . S
O175 C177 1.256 . S
O176 Co152 2.062 . S
O176 C177 1.255 1_554 S
C177 O175 1.256 . S
C177 O176 1.255 1_556 S
H178 C157 0.931 . S
H179 C165 0.931 . S
Co180 N185 2.057 . S
Co180 O197 2.021 . S
Co180 O200 2.062 . S
Co180 O204 2.117 . S
Co180 O205 2.020 1_554 S
C181 O201 1.259 . S
C181 O204 1.258 . S
Co182 N191 2.057 . S
Co182 O198 2.117 . S
Co182 O199 2.020 . S
Co182 O201 2.021 . S
Co182 O206 2.062 1_554 S
C183 N185 1.316 . S
C183 N186 1.347 . S
C183 H188 0.931 . S
C184 N185 1.375 . S
C184 C187 1.350 . S
C184 H189 0.930 . S
N185 Co180 2.057 . S
N185 C183 1.316 . S
N185 C184 1.375 . S
N186 C183 1.347 . S
N186 C187 1.373 . S
C187 C184 1.350 . S
C187 N186 1.373 . S
C187 H208 0.931 . S
H188 C183 0.931 . S
H189 C184 0.930 . S
C190 O197 1.259 . S
C190 O198 1.258 . S
N191 Co182 2.057 . S
N191 C192 1.314 1_554 S
N191 C193 1.375 . S
C192 N191 1.314 1_556 S
C192 N194 1.348 . S
C192 H203 0.932 . S
C193 N191 1.375 . S
C193 C195 1.350 1_554 S
C193 H202 0.930 . S
N194 C192 1.348 . S
N194 C195 1.373 . S
C195 C193 1.350 1_556 S
C195 N194 1.373 . S
C195 H209 0.931 . S
C196 O199 1.256 . S
C196 O200 1.255 . S
O197 Co180 2.021 . S
O197 C190 1.259 . S
O198 Co182 2.117 . S
O198 C190 1.258 . S
O199 Co182 2.020 . S
O199 C196 1.256 . S
O200 Co180 2.062 . S
O200 C196 1.255 . S
O201 C181 1.259 . S
O201 Co182 2.021 . S
H202 C193 0.930 . S
H203 C192 0.932 . S
O204 Co180 2.117 . S
O204 C181 1.258 . S
O205 Co180 2.020 1_556 S
O205 C207 1.256 . S
O206 Co182 2.062 1_556 S
O206 C207 1.255 . S
C207 O205 1.256 . S
C207 O206 1.255 . S
H208 C187 0.931 . S
H209 C195 0.931 . S
Co210 N215 2.057 . S
Co210 O227 2.021 . S
Co210 O230 2.062 1_556 S
Co210 O234 2.117 . S
Co210 O235 2.020 . S
C211 O231 1.259 . S
C211 O234 1.258 . S
Co212 N221 2.057 . S
Co212 O228 2.117 . S
Co212 O229 2.020 1_556 S
Co212 O231 2.021 . S
Co212 O236 2.062 . S
C213 N215 1.316 . S
C213 N216 1.347 . S
C213 H218 0.931 . S
C214 N215 1.375 . S
C214 C217 1.350 . S
C214 H219 0.930 . S
N215 Co210 2.057 . S
N215 C213 1.316 . S
N215 C214 1.375 . S
N216 C213 1.347 . S
N216 C217 1.373 . S
C217 C214 1.350 . S
C217 N216 1.373 . S
C217 H238 0.931 . S
H218 C213 0.931 . S
H219 C214 0.930 . S
C220 O227 1.259 . S
C220 O228 1.258 . S
N221 Co212 2.057 . S
N221 C222 1.316 . S
N221 C223 1.375 . S
C222 N221 1.316 . S
C222 N224 1.347 . S
C222 H233 0.931 . S
C223 N221 1.375 . S
C223 C225 1.350 . S
C223 H232 0.930 . S
N224 C222 1.347 . S
N224 C225 1.373 . S
C225 C223 1.350 . S
C225 N224 1.373 . S
C225 H239 0.931 . S
C226 O229 1.256 . S
C226 O230 1.255 . S
O227 Co210 2.021 . S
O227 C220 1.259 . S
O228 Co212 2.117 . S
O228 C220 1.258 . S
O229 Co212 2.020 1_554 S
O229 C226 1.256 . S
O230 Co210 2.062 1_554 S
O230 C226 1.255 . S
O231 C211 1.259 . S
O231 Co212 2.021 . S
H232 C223 0.930 . S
H233 C222 0.931 . S
O234 Co210 2.117 . S
O234 C211 1.258 . S
O235 Co210 2.020 . S
O235 C237 1.256 . S
O236 Co212 2.062 . S
O236 C237 1.255 . S
C237 O235 1.256 . S
C237 O236 1.255 . S
H238 C217 0.931 . S
H239 C225 0.931 . S
Co240 N245 2.057 . S
Co240 O257 2.021 . S
Co240 O260 2.062 . S
Co240 O264 2.117 . S
Co240 O265 2.020 . S
C241 O261 1.259 . S
C241 O264 1.258 . S
Co242 N251 2.057 . S
Co242 O258 2.117 . S
Co242 O259 2.020 . S
Co242 O261 2.021 . S
Co242 O266 2.062 . S
C243 N245 1.316 . S
C243 N246 1.347 . S
C243 H248 0.931 . S
C244 N245 1.375 . S
C244 C247 1.350 . S
C244 H249 0.930 . S
N245 Co240 2.057 . S
N245 C243 1.316 . S
N245 C244 1.375 . S
N246 C243 1.347 . S
N246 C247 1.373 . S
C247 C244 1.350 . S
C247 N246 1.373 . S
C247 H268 0.931 . S
H248 C243 0.931 . S
H249 C244 0.930 . S
C250 O257 1.259 . S
C250 O258 1.258 . S
N251 Co242 2.057 . S
N251 C252 1.316 1_655 S
N251 C253 1.375 1_655 S
C252 N251 1.316 1_455 S
C252 N254 1.347 . S
C252 H263 0.931 . S
C253 N251 1.375 1_455 S
C253 C255 1.350 . S
C253 H262 0.930 . S
N254 C252 1.347 . S
N254 C255 1.373 . S
C255 C253 1.350 . S
C255 N254 1.373 . S
C255 H269 0.931 . S
C256 O259 1.256 . S
C256 O260 1.255 . S
O257 Co240 2.021 . S
O257 C250 1.259 . S
O258 Co242 2.117 . S
O258 C250 1.258 . S
O259 Co242 2.020 . S
O259 C256 1.256 . S
O260 Co240 2.062 . S
O260 C256 1.255 . S
O261 C241 1.259 . S
O261 Co242 2.021 . S
H262 C253 0.930 . S
H263 C252 0.931 . S
O264 Co240 2.117 . S
O264 C241 1.258 . S
O265 Co240 2.020 . S
O265 C267 1.256 . S
O266 Co242 2.062 . S
O266 C267 1.255 . S
C267 O265 1.256 . S
C267 O266 1.255 . S
H268 C247 0.931 . S
H269 C255 0.931 . S
Co270 N275 2.057 1_545 S
Co270 O287 2.021 . S
Co270 O290 2.062 . S
Co270 O294 2.117 . S
Co270 O295 2.020 . S
C271 O291 1.259 . S
C271 O294 1.258 . S
Co272 N281 2.057 . S
Co272 O288 2.117 . S
Co272 O289 2.020 . S
Co272 O291 2.021 . S
Co272 O296 2.062 . S
C273 N275 1.316 . S
C273 N276 1.347 . S
C273 H278 0.931 . S
C274 N275 1.375 . S
C274 C277 1.350 . S
C274 H279 0.930 . S
N275 Co270 2.057 1_565 S
N275 C273 1.316 . S
N275 C274 1.375 . S
N276 C273 1.347 . S
N276 C277 1.373 . S
C277 C274 1.350 . S
C277 N276 1.373 . S
C277 H298 0.931 . S
H278 C273 0.931 . S
H279 C274 0.930 . S
C280 O287 1.259 . S
C280 O288 1.258 . S
N281 Co272 2.057 . S
N281 C282 1.316 . S
N281 C283 1.375 . S
C282 N281 1.316 . S
C282 N284 1.347 . S
C282 H293 0.931 . S
C283 N281 1.375 . S
C283 C285 1.350 . S
C283 H292 0.930 . S
N284 C282 1.347 . S
N284 C285 1.373 . S
C285 C283 1.350 . S
C285 N284 1.373 . S
C285 H299 0.931 . S
C286 O289 1.256 . S
C286 O290 1.255 . S
O287 Co270 2.021 . S
O287 C280 1.259 . S
O288 Co272 2.117 . S
O288 C280 1.258 . S
O289 Co272 2.020 . S
O289 C286 1.256 . S
O290 Co270 2.062 . S
O290 C286 1.255 . S
O291 C271 1.259 . S
O291 Co272 2.021 . S
H292 C283 0.930 . S
H293 C282 0.931 . S
O294 Co270 2.117 . S
O294 C271 1.258 . S
O295 Co270 2.020 . S
O295 C297 1.256 . S
O296 Co272 2.062 . S
O296 C297 1.255 . S
C297 O295 1.256 . S
C297 O296 1.255 . S
H298 C277 0.931 . S
H299 C285 0.931 . S
Co300 N305 2.057 . S
Co300 O317 2.021 . S
Co300 O320 2.062 . S
Co300 O324 2.117 . S
Co300 O325 2.020 . S
C301 O321 1.259 . S
C301 O324 1.258 . S
Co302 N311 2.057 . S
Co302 O318 2.117 . S
Co302 O319 2.020 . S
Co302 O321 2.021 . S
Co302 O326 2.062 . S
C303 N305 1.316 . S
C303 N306 1.347 . S
C303 H308 0.931 . S
C304 N305 1.375 . S
C304 C307 1.350 . S
C304 H309 0.930 . S
N305 Co300 2.057 . S
N305 C303 1.316 . S
N305 C304 1.375 . S
N306 C303 1.347 . S
N306 C307 1.373 . S
C307 C304 1.350 . S
C307 N306 1.373 . S
C307 H328 0.931 . S
H308 C303 0.931 . S
H309 C304 0.930 . S
C310 O317 1.259 . S
C310 O318 1.258 . S
N311 Co302 2.057 . S
N311 C312 1.316 1_455 S
N311 C313 1.375 1_455 S
C312 N311 1.316 1_655 S
C312 N314 1.347 . S
C312 H323 0.931 . S
C313 N311 1.375 1_655 S
C313 C315 1.350 . S
C313 H322 0.930 . S
N314 C312 1.347 . S
N314 C315 1.373 . S
C315 C313 1.350 . S
C315 N314 1.373 . S
C315 H329 0.931 . S
C316 O319 1.256 . S
C316 O320 1.255 . S
O317 Co300 2.021 . S
O317 C310 1.259 . S
O318 Co302 2.117 . S
O318 C310 1.258 . S
O319 Co302 2.020 . S
O319 C316 1.256 . S
O320 Co300 2.062 . S
O320 C316 1.255 . S
O321 C301 1.259 . S
O321 Co302 2.021 . S
H322 C313 0.930 . S
H323 C312 0.931 . S
O324 Co300 2.117 . S
O324 C301 1.258 . S
O325 Co300 2.020 . S
O325 C327 1.256 . S
O326 Co302 2.062 . S
O326 C327 1.255 . S
C327 O325 1.256 . S
C327 O326 1.255 . S
H328 C307 0.931 . S
H329 C315 0.931 . S
Co330 N335 2.057 . S
Co330 O347 2.021 . S
Co330 O350 2.062 . S
Co330 O354 2.117 . S
Co330 O355 2.020 . S
C331 O351 1.259 . S
C331 O354 1.258 . S
Co332 N341 2.057 1_554 S
Co332 O348 2.117 . S
Co332 O349 2.020 . S
Co332 O351 2.021 . S
Co332 O356 2.062 . S
C333 N335 1.316 . S
C333 N336 1.347 1_556 S
C333 H338 0.931 . S
C334 N335 1.375 . S
C334 C337 1.350 1_556 S
C334 H339 0.930 . S
N335 Co330 2.057 . S
N335 C333 1.316 . S
N335 C334 1.375 . S
N336 C333 1.347 1_554 S
N336 C337 1.373 . S
C337 C334 1.350 1_554 S
C337 N336 1.373 . S
C337 H358 0.931 . S
H338 C333 0.931 . S
H339 C334 0.930 . S
C340 O347 1.259 . S
C340 O348 1.258 . S
N341 Co332 2.057 1_556 S
N341 C342 1.316 . S
N341 C343 1.375 . S
C342 N341 1.316 . S
C342 N344 1.347 . S
C342 H353 0.931 . S
C343 N341 1.375 . S
C343 C345 1.350 . S
C343 H352 0.930 . S
N344 C342 1.347 . S
N344 C345 1.373 . S
C345 C343 1.350 . S
C345 N344 1.373 . S
C345 H359 0.931 . S
C346 O349 1.256 . S
C346 O350 1.255 . S
O347 Co330 2.021 . S
O347 C340 1.259 . S
O348 Co332 2.117 . S
O348 C340 1.258 . S
O349 Co332 2.020 . S
O349 C346 1.256 . S
O350 Co330 2.062 . S
O350 C346 1.255 . S
O351 C331 1.259 . S
O351 Co332 2.021 . S
H352 C343 0.930 . S
H353 C342 0.931 . S
O354 Co330 2.117 . S
O354 C331 1.258 . S
O355 Co330 2.020 . S
O355 C357 1.256 . S
O356 Co332 2.062 . S
O356 C357 1.255 . S
C357 O355 1.256 . S
C357 O356 1.255 . S
H358 C337 0.931 . S
H359 C345 0.931 . S
Co360 N365 2.057 . S
Co360 O377 2.021 . S
Co360 O380 2.062 . S
Co360 O384 2.117 . S
Co360 O385 2.020 . S
C361 O381 1.259 . S
C361 O384 1.258 . S
Co362 N371 2.057 . S
Co362 O378 2.117 . S
Co362 O379 2.020 . S
Co362 O381 2.021 . S
Co362 O386 2.062 . S
C363 N365 1.316 . S
C363 N366 1.347 . S
C363 H368 0.931 . S
C364 N365 1.375 . S
C364 C367 1.350 . S
C364 H369 0.930 . S
N365 Co360 2.057 . S
N365 C363 1.316 . S
N365 C364 1.375 . S
N366 C363 1.347 . S
N366 C367 1.373 . S
C367 C364 1.350 . S
C367 N366 1.373 . S
C367 H388 0.931 . S
H368 C363 0.931 . S
H369 C364 0.930 . S
C370 O377 1.259 . S
C370 O378 1.258 . S
N371 Co362 2.057 . S
N371 C372 1.316 1_655 S
N371 C373 1.375 1_655 S
C372 N371 1.316 1_455 S
C372 N374 1.347 . S
C372 H383 0.931 . S
C373 N371 1.375 1_455 S
C373 C375 1.350 . S
C373 H382 0.930 . S
N374 C372 1.347 . S
N374 C375 1.373 . S
C375 C373 1.350 . S
C375 N374 1.373 . S
C375 H389 0.931 . S
C376 O379 1.256 . S
C376 O380 1.255 . S
O377 Co360 2.021 . S
O377 C370 1.259 . S
O378 Co362 2.117 . S
O378 C370 1.258 . S
O379 Co362 2.020 . S
O379 C376 1.256 . S
O380 Co360 2.062 . S
O380 C376 1.255 . S
O381 C361 1.259 . S
O381 Co362 2.021 . S
H382 C373 0.930 . S
H383 C372 0.931 . S
O384 Co360 2.117 . S
O384 C361 1.258 . S
O385 Co360 2.020 . S
O385 C387 1.256 . S
O386 Co362 2.062 . S
O386 C387 1.255 . S
C387 O385 1.256 . S
C387 O386 1.255 . S
H388 C367 0.931 . S
H389 C375 0.931 . S
Co390 N395 2.057 1_554 S
Co390 O407 2.021 . S
Co390 O410 2.062 . S
Co390 O414 2.117 . S
Co390 O415 2.020 . S
C391 O411 1.259 . S
C391 O414 1.258 . S
Co392 N401 2.057 . S
Co392 O408 2.117 . S
Co392 O409 2.020 . S
Co392 O411 2.021 . S
Co392 O416 2.062 . S
C393 N395 1.316 . S
C393 N396 1.347 . S
C393 H398 0.931 . S
C394 N395 1.375 . S
C394 C397 1.350 . S
C394 H399 0.930 . S
N395 Co390 2.057 1_556 S
N395 C393 1.316 . S
N395 C394 1.375 . S
N396 C393 1.347 . S
N396 C397 1.373 . S
C397 C394 1.350 . S
C397 N396 1.373 . S
C397 H418 0.931 . S
H398 C393 0.931 . S
H399 C394 0.930 . S
C400 O407 1.259 . S
C400 O408 1.258 . S
N401 Co392 2.057 . S
N401 C402 1.316 . S
N401 C403 1.375 . S
C402 N401 1.316 . S
C402 N404 1.347 1_556 S
C402 H413 0.931 . S
C403 N401 1.375 . S
C403 C405 1.350 . S
C403 H412 0.930 . S
N404 C402 1.347 1_554 S
N404 C405 1.373 1_554 S
C405 C403 1.350 . S
C405 N404 1.373 1_556 S
C405 H419 0.931 1_556 S
C406 O409 1.256 . S
C406 O410 1.255 . S
O407 Co390 2.021 . S
O407 C400 1.259 . S
O408 Co392 2.117 . S
O408 C400 1.258 . S
O409 Co392 2.020 . S
O409 C406 1.256 . S
O410 Co390 2.062 . S
O410 C406 1.255 . S
O411 C391 1.259 . S
O411 Co392 2.021 . S
H412 C403 0.930 . S
H413 C402 0.931 . S
O414 Co390 2.117 . S
O414 C391 1.258 . S
O415 Co390 2.020 . S
O415 C417 1.256 . S
O416 Co392 2.062 . S
O416 C417 1.255 . S
C417 O415 1.256 . S
C417 O416 1.255 . S
H418 C397 0.931 . S
H419 C405 0.931 1_554 S
Co420 N425 2.057 . S
Co420 O437 2.021 . S
Co420 O440 2.062 . S
Co420 O444 2.117 . S
Co420 O445 2.020 . S
C421 O441 1.259 . S
C421 O444 1.258 . S
Co422 N431 2.057 . S
Co422 O438 2.117 . S
Co422 O439 2.020 . S
Co422 O441 2.021 . S
Co422 O446 2.062 . S
C423 N425 1.316 . S
C423 N426 1.347 . S
C423 H428 0.931 . S
C424 N425 1.375 . S
C424 C427 1.350 . S
C424 H429 0.930 . S
N425 Co420 2.057 . S
N425 C423 1.316 . S
N425 C424 1.375 . S
N426 C423 1.347 . S
N426 C427 1.373 . S
C427 C424 1.350 . S
C427 N426 1.373 . S
C427 H448 0.931 . S
H428 C423 0.931 . S
H429 C424 0.930 . S
C430 O437 1.259 . S
C430 O438 1.258 . S
N431 Co422 2.057 . S
N431 C432 1.316 1_455 S
N431 C433 1.375 1_455 S
C432 N431 1.316 1_655 S
C432 N434 1.347 . S
C432 H443 0.931 . S
C433 N431 1.375 1_655 S
C433 C435 1.350 . S
C433 H442 0.930 . S
N434 C432 1.347 . S
N434 C435 1.373 . S
C435 C433 1.350 . S
C435 N434 1.373 . S
C435 H449 0.931 . S
C436 O439 1.256 . S
C436 O440 1.255 . S
O437 Co420 2.021 . S
O437 C430 1.259 . S
O438 Co422 2.117 . S
O438 C430 1.258 . S
O439 Co422 2.020 . S
O439 C436 1.256 . S
O440 Co420 2.062 . S
O440 C436 1.255 . S
O441 C421 1.259 . S
O441 Co422 2.021 . S
H442 C433 0.930 . S
H443 C432 0.931 . S
O444 Co420 2.117 . S
O444 C421 1.258 . S
O445 Co420 2.020 . S
O445 C447 1.256 . S
O446 Co422 2.062 . S
O446 C447 1.255 . S
C447 O445 1.256 . S
C447 O446 1.255 . S
H448 C427 0.931 . S
H449 C435 0.931 . S
Co450 N455 2.057 1_565 S
Co450 O467 2.021 . S
Co450 O470 2.062 . S
Co450 O474 2.117 . S
Co450 O475 2.020 . S
C451 O471 1.259 . S
C451 O474 1.258 . S
Co452 N461 2.057 . S
Co452 O468 2.117 . S
Co452 O469 2.020 . S
Co452 O471 2.021 . S
Co452 O476 2.062 . S
C453 N455 1.316 . S
C453 N456 1.347 . S
C453 H458 0.931 . S
C454 N455 1.375 . S
C454 C457 1.350 . S
C454 H459 0.930 . S
N455 Co450 2.057 1_545 S
N455 C453 1.316 . S
N455 C454 1.375 . S
N456 C453 1.347 . S
N456 C457 1.373 . S
C457 C454 1.350 . S
C457 N456 1.373 . S
C457 H478 0.931 . S
H458 C453 0.931 . S
H459 C454 0.930 . S
C460 O467 1.259 . S
C460 O468 1.258 . S
N461 Co452 2.057 . S
N461 C462 1.316 . S
N461 C463 1.375 . S
C462 N461 1.316 . S
C462 N464 1.347 . S
C462 H473 0.931 . S
C463 N461 1.375 . S
C463 C465 1.350 . S
C463 H472 0.930 . S
N464 C462 1.347 . S
N464 C465 1.373 . S
C465 C463 1.350 . S
C465 N464 1.373 . S
C465 H479 0.931 . S
C466 O469 1.256 . S
C466 O470 1.255 . S
O467 Co450 2.021 . S
O467 C460 1.259 . S
O468 Co452 2.117 . S
O468 C460 1.258 . S
O469 Co452 2.020 . S
O469 C466 1.256 . S
O470 Co450 2.062 . S
O470 C466 1.255 . S
O471 C451 1.259 . S
O471 Co452 2.021 . S
H472 C463 0.930 . S
H473 C462 0.931 . S
O474 Co450 2.117 . S
O474 C451 1.258 . S
O475 Co450 2.020 . S
O475 C477 1.256 . S
O476 Co452 2.062 . S
O476 C477 1.255 . S
C477 O475 1.256 . S
C477 O476 1.255 . S
H478 C457 0.931 . S
H479 C465 0.931 . S
C357 C1 3.001 1_565 S
N254 C40 1.600 . S
C61 N276 2.145 . S
C91 N314 1.734 . S
C121 C177 3.001 1_554 S
N194 C151 1.734 . S
C181 N216 2.145 1_554 S
N134 C220 1.600 . S
C117 C241 3.001 . S
C280 N14 1.599 . S
N36 C301 2.144 . S
N74 C331 1.734 . S
C361 C417 3.001 1_565 S
N434 C391 1.733 . S
N456 C421 2.145 . S
C460 N374 1.600 . S
C10 C130 2.626 . S
C160 C31 2.444 . S
C70 C190 0.197 . S
C100 C211 2.444 . S
C250 C370 2.626 . S
C400 C271 2.444 . S
C310 C430 0.198 . S
C340 C451 2.444 . S
N426 N6 2.380 1_556 S
N44 N464 2.511 1_556 S
N66 N366 2.380 1_554 S
C106 C406 3.336 . S
N126 N306 2.380 . S
C166 C346 3.336 . S
N186 N246 2.380 . S
N284 N224 2.510 . S
C27 C16 2.885 . S
C46 C57 2.981 . S
C87 C76 3.002 . S
N96 N104 3.346 . S
C136 C147 2.885 . S
N164 N156 3.346 . S
C207 C196 3.002 . S
C237 C226 2.981 . S
C267 C256 2.885 1_556 S
C297 C286 2.981 1_556 S
C316 C327 3.002 1_554 S
N344 N336 3.346 1_556 S
C387 C376 2.885 1_554 S
N396 N404 3.346 1_556 S
C436 C447 3.002 1_556 S
C466 C477 2.981 1_556 S
