# Generated by pormake.
# Topology umo, (4)-cn, num edge types: 1
# Building blocks:
#     Node 0, Type 0, BuildingBlock: KUFVIS_clean_sbu_0, # of connection points: 4
#     Node 1, Type 0, BuildingBlock: KUFVIS_clean_sbu_0, # of connection points: 4
#     Node 2, Type 0, BuildingBlock: KUFVIS_clean_sbu_0, # of connection points: 4
#     Node 3, Type 0, BuildingBlock: KUFVIS_clean_sbu_0, # of connection points: 4
#     Node 4, Type 0, BuildingBlock: KUFVIS_clean_sbu_0, # of connection points: 4
#     Node 5, Type 0, BuildingBlock: KUFVIS_clean_sbu_0, # of connection points: 4
#     Node 6, Type 0, BuildingBlock: KUFVIS_clean_sbu_0, # of connection points: 4
#     Node 7, Type 0, BuildingBlock: KUFVIS_clean_sbu_0, # of connection points: 4
#     Node 8, Type 0, BuildingBlock: KUFVIS_clean_sbu_0, # of connection points: 4
#     Node 9, Type 0, BuildingBlock: KUFVIS_clean_sbu_0, # of connection points: 4
#     Node 10, Type 0, BuildingBlock: KUFVIS_clean_sbu_0, # of connection points: 4
#     Node 11, Type 0, BuildingBlock: KUFVIS_clean_sbu_0, # of connection points: 4
#     Edge 12, Type (0, 0), BuildingBlock: KIFKEQ_clean_linker_1, # of connection points: 2
#     Edge 13, Type (0, 0), BuildingBlock: KIFKEQ_clean_linker_1, # of connection points: 2
#     Edge 14, Type (0, 0), BuildingBlock: KIFKEQ_clean_linker_1, # of connection points: 2
#     Edge 15, Type (0, 0), BuildingBlock: KIFKEQ_clean_linker_1, # of connection points: 2
#     Edge 16, Type (0, 0), BuildingBlock: KIFKEQ_clean_linker_1, # of connection points: 2
#     Edge 17, Type (0, 0), BuildingBlock: KIFKEQ_clean_linker_1, # of connection points: 2
#     Edge 18, Type (0, 0), BuildingBlock: KIFKEQ_clean_linker_1, # of connection points: 2
#     Edge 19, Type (0, 0), BuildingBlock: KIFKEQ_clean_linker_1, # of connection points: 2
#     Edge 20, Type (0, 0), BuildingBlock: KIFKEQ_clean_linker_1, # of connection points: 2
#     Edge 21, Type (0, 0), BuildingBlock: KIFKEQ_clean_linker_1, # of connection points: 2
#     Edge 22, Type (0, 0), BuildingBlock: KIFKEQ_clean_linker_1, # of connection points: 2
#     Edge 23, Type (0, 0), BuildingBlock: KIFKEQ_clean_linker_1, # of connection points: 2
#     Edge 24, Type (0, 0), BuildingBlock: KIFKEQ_clean_linker_1, # of connection points: 2
#     Edge 25, Type (0, 0), BuildingBlock: KIFKEQ_clean_linker_1, # of connection points: 2
#     Edge 26, Type (0, 0), BuildingBlock: KIFKEQ_clean_linker_1, # of connection points: 2
#     Edge 27, Type (0, 0), BuildingBlock: KIFKEQ_clean_linker_1, # of connection points: 2
#     Edge 28, Type (0, 0), BuildingBlock: KIFKEQ_clean_linker_1, # of connection points: 2
#     Edge 29, Type (0, 0), BuildingBlock: KIFKEQ_clean_linker_1, # of connection points: 2
#     Edge 30, Type (0, 0), BuildingBlock: KIFKEQ_clean_linker_1, # of connection points: 2
#     Edge 31, Type (0, 0), BuildingBlock: KIFKEQ_clean_linker_1, # of connection points: 2
#     Edge 32, Type (0, 0), BuildingBlock: KIFKEQ_clean_linker_1, # of connection points: 2
#     Edge 33, Type (0, 0), BuildingBlock: KIFKEQ_clean_linker_1, # of connection points: 2
#     Edge 34, Type (0, 0), BuildingBlock: KIFKEQ_clean_linker_1, # of connection points: 2
#     Edge 35, Type (0, 0), BuildingBlock: KIFKEQ_clean_linker_1, # of connection points: 2
# Relax obj value: 0.193
# Max RMSD: 0.247
# Mean RMSD: 0.247
data_MOF--net-umo--node1-KUFVIS_clean_sbu_0--edge1-KIFKEQ_clean_linker_1
_symmetry_space_group_name_H-M    P1
_symmetry_Int_Tables_number       1
_symmetry_cell_setting            triclinic
loop_
_symmetry_equiv_pos_as_xyz
'x, y, z'
_cell_length_a     47.636642
_cell_length_b     47.645254
_cell_length_c     39.230004
_cell_angle_alpha  90.042717
_cell_angle_beta   89.943026
_cell_angle_gamma 119.97846
loop_
_atom_site_label
_atom_site_type_symbol
_atom_site_fract_x
_atom_site_fract_y
_atom_site_fract_z
_atom_type_partial_charge
Mn0 Mn 0.16535 0.55797 0.38971 0.0
Mn1 Mn 0.11697 0.59039 0.402 0.0
C2 C 0.18815 0.61292 0.39503 0.0
C3 C 0.18812 0.53862 0.34924 0.0
C4 C 0.13847 0.56323 0.45968 0.0
O5 O 0.12061 0.52004 0.38067 0.0
O6 O 0.09103 0.54445 0.38747 0.0
C7 C 0.09998 0.58908 0.32924 0.0
N8 N 0.11264 0.60603 0.35859 0.0
C9 C 0.12574 0.65625 0.33108 0.0
C10 C 0.11262 0.63931 0.30061 0.0
C11 C 0.09974 0.60558 0.29969 0.0
C12 C 0.1254 0.63851 0.35966 0.0
H13 H 0.09025 0.56319 0.32836 0.0
C14 C 0.09377 0.51965 0.38087 0.0
O15 O 0.1853 0.52984 0.38106 0.0
O16 O 0.17741 0.55788 0.34133 0.0
N17 N 0.13763 0.63469 0.41626 0.0
C18 C 0.14691 0.64696 0.4483 0.0
C19 C 0.15998 0.68034 0.45379 0.0
C20 C 0.1624 0.70054 0.42654 0.0
C21 C 0.15101 0.68705 0.39422 0.0
C22 C 0.1382 0.65362 0.39032 0.0
H23 H 0.14484 0.63148 0.46938 0.0
O24 O 0.20583 0.59938 0.39715 0.0
O25 O 0.15782 0.59419 0.38693 0.0
O26 O 0.15585 0.55468 0.44205 0.0
O27 O 0.12251 0.57575 0.44686 0.0
C28 C 0.15168 0.70541 0.36578 0.0
C29 C 0.13916 0.69004 0.33419 0.0
H30 H 0.11237 0.65194 0.27777 0.0
H31 H 0.08969 0.59235 0.27624 0.0
H32 H 0.16818 0.69045 0.47895 0.0
H33 H 0.17261 0.72629 0.43084 0.0
H34 H 0.16167 0.73135 0.36795 0.0
H35 H 0.1398 0.70441 0.31251 0.0
Mn36 Mn 0.60873 0.16478 0.56972 0.0
Mn37 Mn 0.52867 0.11656 0.58639 0.0
C38 C 0.57684 0.18759 0.57795 0.0
C39 C 0.64883 0.18764 0.52704 0.0
C40 C 0.58038 0.13778 0.6409 0.0
O41 O 0.60121 0.11992 0.55929 0.0
O42 O 0.54753 0.09057 0.56867 0.0
C43 C 0.50841 0.09972 0.51448 0.0
N44 N 0.50601 0.11232 0.5448 0.0
C45 C 0.46692 0.12505 0.52171 0.0
C46 C 0.46879 0.112 0.4903 0.0
C47 C 0.48968 0.09933 0.48667 0.0
C48 C 0.48621 0.12482 0.54848 0.0
H49 H 0.5246 0.09015 0.51151 0.0
C50 C 0.57463 0.0932 0.56002 0.0
O51 O 0.65634 0.18477 0.55825 0.0
O52 O 0.6185 0.17691 0.52098 0.0
N53 N 0.50629 0.13752 0.6038 0.0
C54 C 0.50605 0.14762 0.63626 0.0
C55 C 0.48624 0.16079 0.64428 0.0
C56 C 0.46628 0.16263 0.61911 0.0
C57 C 0.46582 0.15068 0.58631 0.0
C58 C 0.486 0.13772 0.57986 0.0
H59 H 0.52119 0.14608 0.65577 0.0
O60 O 0.60813 0.20525 0.57882 0.0
O61 O 0.56492 0.15725 0.56975 0.0
O62 O 0.60528 0.15538 0.62204 0.0
O63 O 0.55131 0.12169 0.62967 0.0
C64 C 0.44615 0.15113 0.55976 0.0
C65 C 0.44678 0.13842 0.52745 0.0
H66 H 0.45439 0.11167 0.46879 0.0
H67 H 0.49137 0.08935 0.46248 0.0
H68 H 0.48641 0.16954 0.66978 0.0
H69 H 0.4512 0.17299 0.62532 0.0
H70 H 0.43047 0.16121 0.56391 0.0
H71 H 0.43161 0.13898 0.50721 0.0
Mn72 Mn 0.4271 0.60814 0.72913 0.0
Mn73 Mn 0.39475 0.5277 0.74395 0.0
C74 C 0.37213 0.57601 0.73484 0.0
C75 C 0.44606 0.64925 0.6876 0.0
C76 C 0.42243 0.57798 0.8001 0.0
O77 O 0.46499 0.60107 0.72036 0.0
O78 O 0.44056 0.54735 0.72928 0.0
C79 C 0.39579 0.50991 0.67186 0.0
N80 N 0.37898 0.50637 0.70116 0.0
C81 C 0.3288 0.46772 0.67467 0.0
C82 C 0.3456 0.47077 0.64427 0.0
C83 C 0.37924 0.49201 0.64285 0.0
C84 C 0.34658 0.48627 0.7027 0.0
H85 H 0.42162 0.52635 0.6706 0.0
C86 C 0.46529 0.5746 0.72174 0.0
O87 O 0.45507 0.65599 0.71929 0.0
O88 O 0.42678 0.61909 0.68043 0.0
N89 N 0.35053 0.50438 0.75854 0.0
C90 C 0.33836 0.50257 0.79044 0.0
C91 C 0.30508 0.4821 0.79636 0.0
C92 C 0.28487 0.46299 0.76972 0.0
C93 C 0.29825 0.464 0.73758 0.0
C94 C 0.3316 0.48483 0.73323 0.0
H95 H 0.35385 0.517 0.81107 0.0
O96 O 0.38564 0.60725 0.73639 0.0
O97 O 0.39088 0.56428 0.72733 0.0
O98 O 0.43092 0.60339 0.78165 0.0
O99 O 0.4096 0.54914 0.78822 0.0
C100 C 0.27985 0.44511 0.70972 0.0
C101 C 0.2951 0.44705 0.67825 0.0
H102 H 0.33293 0.45698 0.62185 0.0
H103 H 0.39236 0.4946 0.61944 0.0
H104 H 0.29504 0.48107 0.82139 0.0
H105 H 0.25918 0.44735 0.77434 0.0
H106 H 0.25397 0.42896 0.71224 0.0
H107 H 0.2807 0.43243 0.65701 0.0
Mn108 Mn 0.81881 0.44528 0.89886 0.0
Mn109 Mn 0.87241 0.42082 0.91974 0.0
C110 C 0.80127 0.39103 0.9032 0.0
C111 C 0.7963 0.46187 0.85537 0.0
C112 C 0.83978 0.44136 0.97241 0.0
O113 O 0.86216 0.48653 0.89418 0.0
O114 O 0.89528 0.46694 0.90596 0.0
C115 C 0.89792 0.42577 0.84981 0.0
N116 N 0.8835 0.40774 0.87815 0.0
C117 C 0.87882 0.35992 0.8519 0.0
C118 C 0.89379 0.37802 0.82251 0.0
C119 C 0.90333 0.41108 0.82146 0.0
C120 C 0.87391 0.37584 0.87929 0.0
H121 H 0.90512 0.45114 0.84879 0.0
C122 C 0.89021 0.48995 0.89765 0.0
O123 O 0.79525 0.46927 0.88712 0.0
O124 O 0.81096 0.44575 0.84916 0.0
N125 N 0.85482 0.37669 0.93367 0.0
C126 C 0.84378 0.36356 0.9651 0.0
C127 C 0.83379 0.33077 0.97074 0.0
C128 C 0.83633 0.31216 0.94442 0.0
C129 C 0.84963 0.32675 0.91297 0.0
C130 C 0.85916 0.35952 0.90886 0.0
H131 H 0.84209 0.37784 0.98553 0.0
O132 O 0.78076 0.40134 0.90222 0.0
O133 O 0.83168 0.41262 0.89886 0.0
O134 O 0.82227 0.44733 0.95194 0.0
O135 O 0.86007 0.43275 0.96284 0.0
C136 C 0.85415 0.31017 0.88568 0.0
C137 C 0.86862 0.32671 0.85511 0.0
H138 H 0.89806 0.36679 0.80062 0.0
H139 H 0.91481 0.42519 0.79884 0.0
H140 H 0.82417 0.31989 0.99532 0.0
H141 H 0.82851 0.28686 0.94883 0.0
H142 H 0.84678 0.28475 0.888 0.0
H143 H 0.87205 0.31374 0.83433 0.0
Mn144 Mn 0.36942 0.81739 0.05745 0.0
Mn145 Mn 0.44852 0.86523 0.07916 0.0
C146 C 0.40252 0.79534 0.06134 0.0
C147 C 0.3303 0.79778 0.01391 0.0
C148 C 0.39485 0.83553 0.13143 0.0
O149 O 0.37545 0.86253 0.05344 0.0
O150 O 0.4281 0.89134 0.06775 0.0
C151 C 0.46974 0.89225 1.0099 0.0
N152 N 0.47228 0.87616 0.03733 0.0
C153 C 0.51343 0.86919 1.00951 0.0
C154 C 0.51138 0.88585 0.98103 0.0
C155 C 0.48939 0.89737 0.98121 0.0
C156 C 0.49306 0.86462 0.03725 0.0
H157 H 0.45277 0.90104 1.00985 0.0
C158 C 0.40125 0.88915 0.05912 0.0
O159 O 0.32211 0.79736 0.04564 0.0
O160 O 0.36092 0.81032 1.00772 0.0
N161 N 0.47265 0.84449 0.09121 0.0
C162 C 0.47419 0.83218 0.12207 0.0
C163 C 0.49561 0.82028 0.12658 0.0
C164 C 0.51608 0.82228 0.09976 0.0
C165 C 0.51552 0.83691 0.06897 0.0
C166 C 0.49362 0.84831 0.06598 0.0
H167 H 0.4588 0.83099 0.14291 0.0
O168 O 0.37133 0.777 0.06038 0.0
O169 O 0.41388 0.82631 0.05739 0.0
O170 O 0.3709 0.82063 0.11064 0.0
O171 O 0.42447 0.85307 0.12232 0.0
C172 C 0.53612 0.84106 0.0413 0.0
C173 C 0.53497 0.85706 0.01152 0.0
H174 H 0.52657 0.88994 0.95891 0.0
H175 H 0.48759 0.91017 0.9593 0.0
H176 H 0.49636 0.80964 0.15068 0.0
H177 H 0.53252 0.81301 0.1033 0.0
H178 H 0.55311 0.83226 0.04275 0.0
H179 H 0.551 0.8602 0.99046 0.0
Mn180 Mn 0.55848 0.38295 0.22772 0.0
Mn181 Mn 0.59016 0.46346 0.24164 0.0
C182 C 0.61333 0.41549 0.23356 0.0
C183 C 0.53989 0.34134 0.18671 0.0
C184 C 0.5635 0.41395 0.29848 0.0
O185 O 0.52026 0.38937 0.2188 0.0
O186 O 0.54407 0.44301 0.22785 0.0
C187 C 0.58765 0.47969 0.1693 0.0
N188 N 0.60504 0.48392 0.19829 0.0
C189 C 0.65471 0.52181 0.17032 0.0
C190 C 0.63729 0.51803 0.14022 0.0
C191 C 0.60362 0.49683 0.13971 0.0
C192 C 0.63749 0.50398 0.19895 0.0
H193 H 0.5618 0.46327 0.16873 0.0
C194 C 0.51952 0.4156 0.22042 0.0
O195 O 0.53091 0.33495 0.21846 0.0
O196 O 0.55886 0.37146 0.17916 0.0
N197 N 0.63459 0.48759 0.25532 0.0
C198 C 0.64725 0.49076 0.28717 0.0
C199 C 0.6806 0.51148 0.29229 0.0
C200 C 0.70037 0.52957 0.2649 0.0
C201 C 0.68644 0.52736 0.23282 0.0
C202 C 0.65305 0.50627 0.22928 0.0
H203 H 0.63208 0.47714 0.30838 0.0
O204 O 0.60008 0.38428 0.23514 0.0
O205 O 0.59443 0.42694 0.22562 0.0
O206 O 0.55478 0.38834 0.28022 0.0
O207 O 0.57623 0.44269 0.28633 0.0
C208 C 0.7043 0.54546 0.2043 0.0
C209 C 0.68846 0.5426 0.17304 0.0
H210 H 0.64952 0.53125 0.11736 0.0
H211 H 0.59003 0.49369 0.11655 0.0
H212 H 0.69104 0.51351 0.31729 0.0
H213 H 0.7261 0.54547 0.26891 0.0
H214 H 0.7302 0.56178 0.20619 0.0
H215 H 0.70244 0.55667 0.15131 0.0
Mn216 Mn 0.43516 0.81489 0.45402 0.0
Mn217 Mn 0.40778 0.86567 0.43106 0.0
C218 C 0.3806 0.79477 0.44708 0.0
C219 C 0.45177 0.79336 0.49848 0.0
C220 C 0.43359 0.83636 0.38021 0.0
O221 O 0.47471 0.85932 0.46048 0.0
O222 O 0.45309 0.89046 0.4474 0.0
C223 C 0.40756 0.88946 0.50073 0.0
N224 N 0.39147 0.87501 0.47144 0.0
C225 C 0.34136 0.86783 0.49417 0.0
C226 C 0.35744 0.88283 0.5245 0.0
C227 C 0.39068 0.89364 0.5278 0.0
C228 C 0.35943 0.86422 0.46813 0.0
H229 H 0.43307 0.89764 0.50346 0.0
C230 C 0.47667 0.88677 0.45701 0.0
O231 O 0.46077 0.79337 0.46714 0.0
O232 O 0.43394 0.80637 0.50378 0.0
N233 N 0.36424 0.84607 0.41454 0.0
C234 C 0.35294 0.83441 0.3827 0.0
C235 C 0.32022 0.82304 0.37495 0.0
C236 C 0.2997 0.82466 0.39963 0.0
C237 C 0.3123 0.83836 0.43159 0.0
C238 C 0.34513 0.84936 0.43781 0.0
H239 H 0.36866 0.83337 0.36352 0.0
O240 O 0.39235 0.77547 0.44857 0.0
O241 O 0.40083 0.82543 0.45221 0.0
O242 O 0.43958 0.81926 0.40118 0.0
O243 O 0.42308 0.85532 0.38896 0.0
C244 C 0.29362 0.84168 0.45745 0.0
C245 C 0.30811 0.85629 0.48877 0.0
H246 H 0.34452 0.88613 0.54542 0.0
H247 H 0.40324 0.90513 0.55117 0.0
H248 H 0.31083 0.81301 0.35002 0.0
H249 H 0.27444 0.81571 0.39362 0.0
H250 H 0.2681 0.83317 0.45348 0.0
H251 H 0.2935 0.85871 0.50846 0.0
Mn252 Mn 0.60855 0.43364 0.62597 0.0
Mn253 Mn 0.52796 0.39981 0.61108 0.0
C254 C 0.57731 0.37857 0.62041 0.0
C255 C 0.64965 0.45327 0.66755 0.0
C256 C 0.57826 0.42834 0.55497 0.0
O257 O 0.60051 0.47091 0.63471 0.0
O258 O 0.54673 0.4455 0.62576 0.0
C259 C 0.50973 0.40036 0.68311 0.0
N260 N 0.50663 0.38369 0.65382 0.0
C261 C 0.46857 0.3332 0.68022 0.0
C262 C 0.47118 0.34985 0.71061 0.0
C263 C 0.4919 0.38357 0.71207 0.0
C264 C 0.48702 0.35122 0.65224 0.0
H265 H 0.52578 0.42626 0.6844 0.0
C266 C 0.57372 0.47058 0.63331 0.0
O267 O 0.6563 0.46236 0.63586 0.0
O268 O 0.61957 0.43354 0.67467 0.0
N269 N 0.50548 0.35558 0.59649 0.0
C270 C 0.50412 0.34351 0.56463 0.0
C271 C 0.48422 0.31016 0.55869 0.0
C272 C 0.46521 0.28973 0.58526 0.0
C273 C 0.46577 0.30297 0.61736 0.0
C274 C 0.48603 0.3364 0.62173 0.0
H275 H 0.51848 0.35915 0.54404 0.0
O276 O 0.6086 0.39263 0.61875 0.0
O277 O 0.56504 0.39686 0.62783 0.0
O278 O 0.60373 0.43731 0.57343 0.0
O279 O 0.54937 0.415 0.56683 0.0
C280 C 0.44697 0.28434 0.64517 0.0
C281 C 0.44846 0.29942 0.67662 0.0
H282 H 0.45744 0.33699 0.73299 0.0
H283 H 0.49414 0.39658 0.73547 0.0
H284 H 0.48355 0.30022 0.53369 0.0
H285 H 0.45002 0.264 0.58063 0.0
H286 H 0.43125 0.25839 0.64263 0.0
H287 H 0.43392 0.28484 0.69782 0.0
Mn288 Mn 0.1642 0.61245 0.78608 0.0
Mn289 Mn 0.11313 0.53235 0.77254 0.0
C290 C 0.18482 0.57841 0.78036 0.0
C291 C 0.18802 0.65385 0.82713 0.0
C292 C 0.13684 0.58209 0.71573 0.0
O293 O 0.12019 0.60752 0.79526 0.0
O294 O 0.0888 0.55375 0.78816 0.0
C295 C 0.0955 0.51545 0.84502 0.0
N296 N 0.10771 0.51109 0.81535 0.0
C297 C 0.11807 0.47143 0.84136 0.0
C298 C 0.10538 0.47532 0.87213 0.0
C299 C 0.09411 0.49748 0.87397 0.0
C300 C 0.11891 0.49008 0.8134 0.0
H301 H 0.087 0.53261 0.84661 0.0
C302 C 0.09279 0.58171 0.79523 0.0
O303 O 0.18585 0.66053 0.79539 0.0
O304 O 0.17618 0.62361 0.83459 0.0
N305 N 0.13224 0.50752 0.75727 0.0
C306 C 0.14171 0.50508 0.72512 0.0
C307 C 0.15338 0.48371 0.7188 0.0
C308 C 0.15429 0.46439 0.74532 0.0
C309 C 0.14286 0.46613 0.77776 0.0
C310 C 0.13145 0.48784 0.78251 0.0
H311 H 0.14082 0.51968 0.70458 0.0
O312 O 0.20362 0.60951 0.77854 0.0
O313 O 0.15464 0.56799 0.78826 0.0
O314 O 0.15512 0.60743 0.73371 0.0
O315 O 0.11959 0.5536 0.72815 0.0
C316 C 0.14226 0.44712 0.80555 0.0
C317 C 0.12997 0.44985 0.83736 0.0
H318 H 0.10426 0.4615 0.89451 0.0
H319 H 0.08441 0.50072 0.89766 0.0
H320 H 0.16168 0.48215 0.69355 0.0
H321 H 0.16346 0.44806 0.74039 0.0
H322 H 0.15114 0.43028 0.80272 0.0
H323 H 0.12967 0.43513 0.85854 0.0
Mn324 Mn 0.56461 0.17417 0.96465 0.0
Mn325 Mn 0.60076 0.12924 0.95368 0.0
C326 C 0.61967 0.19976 0.95637 0.0
C327 C 0.54487 0.19635 1.00543 0.0
C328 C 0.56552 0.14266 0.89699 0.0
O329 O 0.52924 0.12861 0.97653 0.0
O330 O 0.55857 0.10348 0.97724 0.0
C331 C 0.61319 0.12345 0.02654 0.0
N332 N 0.62441 0.13201 0.99408 0.0
C333 C 0.67918 0.1503 0.012 0.0
C334 C 0.66812 0.14117 0.04552 0.0
C335 C 0.63498 0.1278 0.05283 0.0
C336 C 0.6563 0.14532 0.98686 0.0
H337 H 0.58783 0.11364 0.03236 0.0
C338 C 0.53247 0.1042 0.98283 0.0
O339 O 0.53443 0.19163 0.97412 0.0
O340 O 0.56609 0.18793 0.01264 0.0
N341 N 0.6421 0.15062 0.93146 0.0
C342 C 0.64884 0.15782 0.89775 0.0
C343 C 0.68099 0.17176 0.88628 0.0
C344 C 0.70579 0.17754 0.90941 0.0
C345 C 0.69813 0.16878 0.9437 0.0
C346 C 0.6656 0.15475 0.95361 0.0
H347 H 0.62993 0.1533 0.87976 0.0
O348 O 0.6044 0.21581 0.95414 0.0
O349 O 0.60268 0.16976 0.966 0.0
O350 O 0.55924 0.16236 0.91322 0.0
O351 O 0.578 0.12708 0.9109 0.0
C352 C 0.72152 0.17369 0.96851 0.0
C353 C 0.71207 0.16456 1.00265 0.0
H354 H 0.68487 0.14459 0.06589 0.0
H355 H 0.6263 0.121 0.07869 0.0
H356 H 0.68665 0.17812 0.85969 0.0
H357 H 0.7306 0.18856 0.90052 0.0
H358 H 0.74688 0.18467 0.96164 0.0
H359 H 0.73031 0.16871 0.02155 0.0
Mn360 Mn 0.37728 0.55698 0.12735 0.0
Mn361 Mn 0.45794 0.58966 0.11339 0.0
C362 C 0.40918 0.61188 0.12137 0.0
C363 C 0.33565 0.53785 0.16835 0.0
C364 C 0.40849 0.56257 0.05656 0.0
O365 O 0.38434 0.51917 0.13633 0.0
O366 O 0.43797 0.54359 0.12702 0.0
C367 C 0.47407 0.58712 0.18575 0.0
N368 N 0.47823 0.60455 0.15681 0.0
C369 C 0.51577 0.65424 0.18493 0.0
C370 C 0.51206 0.63679 0.21499 0.0
C371 C 0.49107 0.60309 0.2154 0.0
C372 C 0.49806 0.63702 0.15625 0.0
H373 H 0.45782 0.56123 0.18626 0.0
C374 C 0.41076 0.51883 0.13455 0.0
O375 O 0.32936 0.52883 0.13662 0.0
O376 O 0.36571 0.55721 0.17589 0.0
N377 N 0.48174 0.63414 0.09986 0.0
C378 C 0.48499 0.64684 0.06801 0.0
C379 C 0.50557 0.68023 0.06296 0.0
C380 C 0.52348 0.7 0.09042 0.0
C381 C 0.52124 0.68604 0.12249 0.0
C382 C 0.50029 0.65262 0.12596 0.0
H383 H 0.47153 0.63166 0.04674 0.0
O384 O 0.37792 0.59823 0.11988 0.0
O385 O 0.42105 0.59336 0.12938 0.0
O386 O 0.3828 0.55339 0.07485 0.0
O387 O 0.43728 0.5757 0.06867 0.0
C388 C 0.5392 0.7039 0.15106 0.0
C389 C 0.53636 0.68803 0.1823 0.0
H390 H 0.52517 0.64902 0.23789 0.0
H391 H 0.48798 0.58947 0.23853 0.0
H392 H 0.50763 0.69069 0.03796 0.0
H393 H 0.53927 0.72575 0.08646 0.0
H394 H 0.5554 0.72982 0.14923 0.0
H395 H 0.55034 0.702 0.20407 0.0
Mn396 Mn 0.81187 0.36691 0.29265 0.0
Mn397 Mn 0.86306 0.4453 0.27058 0.0
C398 C 0.7923 0.40201 0.28739 0.0
C399 C 0.79025 0.32812 0.33662 0.0
C400 C 0.83251 0.39119 0.2188 0.0
O401 O 0.85614 0.37105 0.29809 0.0
O402 O 0.88742 0.42372 0.28479 0.0
C403 C 0.88836 0.46742 0.34024 0.0
N404 N 0.87357 0.47006 0.31171 0.0
C405 C 0.86795 0.51314 0.33668 0.0
C406 C 0.8833 0.51102 0.36625 0.0
C407 C 0.89349 0.48802 0.36805 0.0
C408 C 0.86334 0.49185 0.30986 0.0
H409 H 0.8961 0.44968 0.3418 0.0
C410 C 0.88362 0.3963 0.29386 0.0
O411 O 0.78985 0.31954 0.30504 0.0
O412 O 0.80374 0.3589 0.34242 0.0
N413 N 0.84399 0.47034 0.25604 0.0
C414 C 0.83225 0.47122 0.22461 0.0
C415 C 0.82155 0.49336 0.21827 0.0
C416 C 0.82401 0.51507 0.2439 0.0
C417 C 0.83788 0.51496 0.27537 0.0
C418 C 0.84815 0.49235 0.28019 0.0
H419 H 0.83063 0.45483 0.20469 0.0
O420 O 0.77274 0.37099 0.2884 0.0
O421 O 0.82295 0.41199 0.29195 0.0
O422 O 0.81581 0.36771 0.23958 0.0
O423 O 0.85149 0.42053 0.2279 0.0
C424 C 0.84217 0.53656 0.30205 0.0
C425 C 0.85707 0.53556 0.33274 0.0
H426 H 0.88737 0.52691 0.38773 0.0
H427 H 0.90527 0.48616 0.39082 0.0
H428 H 0.81143 0.49368 0.19368 0.0
H429 H 0.81561 0.53203 0.23896 0.0
H430 H 0.83423 0.55413 0.29918 0.0
H431 H 0.86027 0.55231 0.35306 0.0
H432 H 0.20158 0.66379 0.35353 0.0
H433 H 0.21018 0.63789 0.45668 0.0
H434 H 0.24139 0.72057 0.36588 0.0
H435 H 0.24967 0.69397 0.46915 0.0
H436 H 0.3304 0.78938 0.48541 0.0
H437 H 0.27258 0.7541 0.47238 0.0
H438 H 0.29842 0.73266 0.37399 0.0
H439 H 0.35531 0.76727 0.38732 0.0
C440 C 0.2109 0.67063 0.37921 0.0
C441 C 0.20288 0.64697 0.40435 0.0
C442 C 0.23353 0.70295 0.38632 0.0
C443 C 0.24877 0.71161 0.41839 0.0
C444 C 0.23812 0.68824 0.44437 0.0
C445 C 0.2158 0.65607 0.43718 0.0
C446 C 0.32333 0.77802 0.46057 0.0
C447 C 0.34685 0.78123 0.43697 0.0
C448 C 0.29045 0.75801 0.45307 0.0
C449 C 0.281 0.7408 0.42209 0.0
C450 C 0.30476 0.74607 0.39773 0.0
C451 C 0.33737 0.76559 0.40542 0.0
H452 H 0.57691 0.214 0.63801 0.0
H453 H 0.53674 0.19736 0.5367 0.0
H454 H 0.55869 0.25252 0.64885 0.0
H455 H 0.51784 0.23595 0.54747 0.0
H456 H 0.53848 0.32936 0.66311 0.0
H457 H 0.51929 0.27167 0.65324 0.0
H458 H 0.55823 0.29424 0.55094 0.0
H459 H 0.57679 0.35116 0.56091 0.0
C460 C 0.56289 0.21772 0.61862 0.0
C461 C 0.55774 0.2027 0.58678 0.0
C462 C 0.55209 0.23947 0.62489 0.0
C463 C 0.53692 0.24735 0.59893 0.0
C464 C 0.5295 0.23029 0.56788 0.0
C465 C 0.54023 0.20829 0.56169 0.0
C466 C 0.54156 0.32149 0.63817 0.0
C467 C 0.55854 0.34415 0.61251 0.0
C468 C 0.53065 0.28867 0.63249 0.0
C469 C 0.53728 0.27846 0.60134 0.0
C470 C 0.55216 0.30111 0.57496 0.0
C471 C 0.56317 0.33375 0.58073 0.0
H472 H 0.20859 0.57556 0.71971 0.0
H473 H 0.19379 0.53801 0.82211 0.0
H474 H 0.24565 0.55567 0.70844 0.0
H475 H 0.23086 0.51732 0.81089 0.0
H476 H 0.34568 0.57521 0.79503 0.0
H477 H 0.28892 0.55637 0.80619 0.0
H478 H 0.26472 0.51666 0.70427 0.0
H479 H 0.32231 0.53629 0.69317 0.0
C480 C 0.21233 0.5617 0.73927 0.0
C481 C 0.19837 0.5579 0.77155 0.0
C482 C 0.23324 0.54993 0.73277 0.0
C483 C 0.24137 0.5351 0.75889 0.0
C484 C 0.22507 0.52877 0.79036 0.0
C485 C 0.20394 0.54052 0.79681 0.0
C486 C 0.32797 0.56135 0.77555 0.0
C487 C 0.33791 0.55673 0.74349 0.0
C488 C 0.29539 0.55015 0.78201 0.0
C489 C 0.2723 0.53508 0.75604 0.0
C490 C 0.28205 0.52823 0.7247 0.0
C491 C 0.31483 0.53939 0.71832 0.0
H492 H 0.79564 0.34096 0.86447 0.0
H493 H 0.77737 0.36638 0.96414 0.0
H494 H 0.76036 0.28328 0.87797 0.0
H495 H 0.74274 0.30972 0.9779 0.0
H496 H 0.67063 0.2139 0.99786 0.0
H497 H 0.72766 0.25248 0.98519 0.0
H498 H 0.70105 0.26219 0.88234 0.0
H499 H 0.64471 0.22355 0.89505 0.0
C500 C 0.78523 0.33402 0.88974 0.0
C501 C 0.78927 0.35764 0.91359 0.0
C502 C 0.76519 0.30121 0.8975 0.0
C503 C 0.74874 0.292 0.92894 0.0
C504 C 0.75539 0.31582 0.9537 0.0
C505 C 0.77493 0.34835 0.94578 0.0
C506 C 0.67747 0.22336 0.97223 0.0
C507 C 0.65382 0.21581 0.9472 0.0
C508 C 0.70994 0.24526 0.96493 0.0
C509 C 0.71878 0.26043 0.93283 0.0
C510 C 0.69521 0.25061 0.90711 0.0
C511 C 0.6629 0.22888 0.91445 0.0
H512 H 0.44536 0.7865 0.02305 0.0
H513 H 0.39965 0.76873 0.12158 0.0
H514 H 0.4662 0.74999 0.03745 0.0
H515 H 0.42039 0.73312 0.13634 0.0
H516 H 0.44777 0.66441 0.16039 0.0
H517 H 0.46529 0.72077 0.14522 0.0
H518 H 0.42749 0.68991 0.04351 0.0
H519 H 0.41037 0.63421 0.05874 0.0
C520 C 0.44099 0.7758 0.04823 0.0
C521 C 0.42162 0.78066 0.07167 0.0
C522 C 0.4529 0.75512 0.05651 0.0
C523 C 0.4452 0.73901 0.08814 0.0
C524 C 0.42749 0.74574 0.11215 0.0
C525 C 0.41528 0.76583 0.10367 0.0
C526 C 0.4447 0.67017 0.13444 0.0
C527 C 0.42817 0.64549 0.11051 0.0
C528 C 0.45473 0.70224 0.12572 0.0
C529 C 0.4476 0.70962 0.09325 0.0
C530 C 0.43378 0.68511 0.06852 0.0
C531 C 0.4236 0.65319 0.0773 0.0
H532 H 0.78748 0.44681 0.32642 0.0
H533 H 0.76507 0.40075 0.22788 0.0
H534 H 0.75326 0.47064 0.31355 0.0
H535 H 0.7317 0.42443 0.21464 0.0
H536 H 0.66499 0.45408 0.19347 0.0
H537 H 0.72151 0.47091 0.20702 0.0
H538 H 0.69275 0.43409 0.3094 0.0
H539 H 0.6369 0.41759 0.29575 0.0
C540 C 0.7763 0.443 0.30153 0.0
C541 C 0.77914 0.42263 0.27771 0.0
C542 C 0.75694 0.45664 0.29412 0.0
C543 C 0.74009 0.44966 0.26298 0.0
C544 C 0.74493 0.43099 0.23848 0.0
C545 C 0.76372 0.41708 0.24611 0.0
C546 C 0.67128 0.45117 0.21925 0.0
C547 C 0.6471 0.4349 0.24376 0.0
C548 C 0.70347 0.46082 0.22705 0.0
C549 C 0.71141 0.45353 0.25914 0.0
C550 C 0.68753 0.44041 0.28461 0.0
C551 C 0.65549 0.43058 0.27673 0.0
H552 H 0.08709 0.5443 0.67397 0.0
H553 H 0.1867 0.62173 0.67225 0.0
H554 H 0.08861 0.53726 0.61314 0.0
H555 H 0.18792 0.61557 0.61006 0.0
H556 H 0.08897 0.55394 0.50053 0.0
H557 H 0.08987 0.5622 0.56136 0.0
H558 H 0.18718 0.57755 0.56632 0.0
H559 H 0.18668 0.5705 0.50411 0.0
C560 C 0.10918 0.56045 0.66037 0.0
C561 C 0.13671 0.58376 0.67799 0.0
C562 C 0.11006 0.55641 0.62531 0.0
C563 C 0.13842 0.57577 0.6065 0.0
C564 C 0.1658 0.59995 0.62384 0.0
C565 C 0.16493 0.60396 0.65931 0.0
C566 C 0.11048 0.5586 0.51454 0.0
C567 C 0.13769 0.56134 0.49743 0.0
C568 C 0.11099 0.56333 0.54959 0.0
C569 C 0.13862 0.57063 0.56894 0.0
C570 C 0.16564 0.57237 0.55212 0.0
C571 C 0.16515 0.56769 0.51664 0.0
H572 H 0.61998 0.18792 0.68372 0.0
H573 H 0.54543 0.08719 0.6829 0.0
H574 H 0.61474 0.18907 0.74599 0.0
H575 H 0.53946 0.08844 0.74414 0.0
H576 H 0.56938 0.18802 0.85084 0.0
H577 H 0.57581 0.18712 0.78884 0.0
H578 H 0.56496 0.09174 0.7967 0.0
H579 H 0.55752 0.09224 0.85774 0.0
C580 C 0.60316 0.16586 0.69691 0.0
C581 C 0.5834 0.13738 0.67847 0.0
C582 C 0.59964 0.16665 0.73246 0.0
C583 C 0.57643 0.13892 0.75016 0.0
C584 C 0.55779 0.11019 0.73164 0.0
C585 C 0.56126 0.10944 0.69641 0.0
C586 C 0.56741 0.16652 0.83909 0.0
C587 C 0.56261 0.14008 0.85926 0.0
C588 C 0.57177 0.16626 0.80366 0.0
C589 C 0.57126 0.13949 0.78769 0.0
C590 C 0.56525 0.11268 0.80788 0.0
C591 C 0.56092 0.11295 0.84302 0.0
H592 H 0.36641 0.56927 0.01333 0.0
H593 H 0.44807 0.55344 0.0146 0.0
H594 H 0.37142 0.57568 0.95095 0.0
H595 H 0.45385 0.56097 0.95357 0.0
H596 H 0.43486 0.54047 0.84156 0.0
H597 H 0.42807 0.53456 0.90269 0.0
H598 H 0.40806 0.61354 0.90608 0.0
H599 H 0.41379 0.61867 0.84364 0.0
C600 C 0.38491 0.56649 1.00027 0.0
C601 C 0.4066 0.56049 0.01885 0.0
C602 C 0.38823 0.5708 0.96469 0.0
C603 C 0.41317 0.56901 0.94717 0.0
C604 C 0.43412 0.56214 0.96592 0.0
C605 C 0.43079 0.55781 1.00107 0.0
C606 C 0.42953 0.55701 0.8553 0.0
C607 C 0.42515 0.58024 0.83774 0.0
C608 C 0.42561 0.5536 0.89049 0.0
C609 C 0.41742 0.5735 0.90948 0.0
C610 C 0.41398 0.59755 0.89216 0.0
C611 C 0.41791 0.60095 0.85655 0.0
H612 H 0.87706 0.39909 0.17134 0.0
H613 H 0.77814 0.37674 0.18302 0.0
H614 H 0.87576 0.41157 0.11143 0.0
H615 H 0.77728 0.39186 0.12379 0.0
H616 H 0.7828 0.40491 1.00625 0.0
H617 H 0.77775 0.38601 0.065 0.0
H618 H 0.87943 0.45448 0.08119 0.0
H619 H 0.88459 0.47106 0.02187 0.0
C620 C 0.85468 0.39595 0.1607 0.0
C621 C 0.82761 0.3866 0.18168 0.0
C622 C 0.85413 0.40403 0.12655 0.0
C623 C 0.82683 0.40411 0.11276 0.0
C624 C 0.79884 0.39231 0.13322 0.0
C625 C 0.79919 0.38339 0.16724 0.0
C626 C 0.80379 0.41641 0.02275 0.0
C627 C 0.83409 0.43945 1.00955 0.0
C628 C 0.80101 0.40544 0.05648 0.0
C629 C 0.82842 0.4178 0.07789 0.0
C630 C 0.858 0.44318 0.06531 0.0
C631 C 0.86089 0.45344 0.03149 0.0
H632 H 0.37599 0.78011 0.16741 0.0
H633 H 0.4061 0.88118 0.17869 0.0
H634 H 0.38885 0.77766 0.2271 0.0
H635 H 0.41626 0.87848 0.23901 0.0
H636 H 0.46858 0.88143 0.33246 0.0
H637 H 0.45563 0.87827 0.27211 0.0
H638 H 0.38099 0.77808 0.28513 0.0
H639 H 0.39628 0.78096 0.34489 0.0
C640 C 0.38401 0.80144 0.18312 0.0
C641 C 0.38997 0.8308 0.16852 0.0
C642 C 0.39158 0.80016 0.21744 0.0
C643 C 0.4047 0.82816 0.23804 0.0
C644 C 0.40761 0.8567 0.22389 0.0
C645 C 0.4009 0.85813 0.18947 0.0
C646 C 0.45044 0.85839 0.32192 0.0
C647 C 0.43374 0.83135 0.34317 0.0
C648 C 0.44226 0.85671 0.28748 0.0
C649 C 0.41628 0.82823 0.27362 0.0
C650 C 0.40107 0.80049 0.29454 0.0
C651 C 0.40996 0.802 0.32887 0.0
H652 H 0.55313 0.4528 0.34026 0.0
H653 H 0.57119 0.3726 0.34188 0.0
H654 H 0.56043 0.45874 0.40131 0.0
H655 H 0.5774 0.37777 0.40427 0.0
H656 H 0.53999 0.43959 0.51337 0.0
H657 H 0.53426 0.43269 0.45224 0.0
H658 H 0.61477 0.41496 0.4491 0.0
H659 H 0.61973 0.42083 0.51153 0.0
C660 C 0.55794 0.43587 0.35387 0.0
C661 C 0.56131 0.41204 0.33619 0.0
C662 C 0.56214 0.43929 0.38903 0.0
C663 C 0.56959 0.4188 0.40788 0.0
C664 C 0.57207 0.39422 0.39045 0.0
C665 C 0.56787 0.3908 0.35487 0.0
C666 C 0.55689 0.43474 0.49968 0.0
C667 C 0.5805 0.43104 0.51731 0.0
C668 C 0.55359 0.43076 0.46449 0.0
C669 C 0.57397 0.42317 0.44558 0.0
C670 C 0.5984 0.42041 0.46296 0.0
C671 C 0.6017 0.42441 0.49857 0.0
H672 H 0.89437 0.3726 0.35224 0.0
H673 H 0.93943 0.42093 0.25809 0.0
H674 H 0.94795 0.39053 0.37687 0.0
H675 H 0.99271 0.43826 0.28225 0.0
H676 H 0.03404 0.49775 0.40757 0.0
H677 H 0.98319 0.45256 0.38743 0.0
H678 H 0.03524 0.42837 0.31382 0.0
H679 H 0.08662 0.47358 0.33465 0.0
C680 C 0.91564 0.38551 0.33627 0.0
C681 C 0.91309 0.39582 0.30353 0.0
C682 C 0.94622 0.39584 0.35035 0.0
C683 C 0.97436 0.41607 0.33155 0.0
C684 C 0.97144 0.42254 0.29724 0.0
C685 C 0.94099 0.41277 0.28344 0.0
C686 C 0.03468 0.48228 0.38768 0.0
C687 C 0.06405 0.48933 0.37226 0.0
C688 C 0.00563 0.45614 0.37646 0.0
C689 C 0.00536 0.43693 0.34916 0.0
C690 C 0.03492 0.44274 0.33507 0.0
C691 C 0.06418 0.46859 0.34687 0.0
H692 H 0.51382 0.89394 0.51261 0.0
H693 H 0.50502 0.9457 0.42682 0.0
H694 H 0.5517 0.94558 0.53973 0.0
H695 H 0.54314 -0.00298 0.45344 0.0
H696 H 0.53852 0.03287 0.58591 0.0
H697 H 0.52892 0.98231 0.56021 0.0
H698 H 0.59898 0.03597 0.4816 0.0
H699 H 0.60914 0.08694 0.50795 0.0
C700 C 0.52116 0.91629 0.4989 0.0
C701 C 0.50629 0.91607 0.46795 0.0
C702 C 0.54274 0.94575 0.5144 0.0
C703 C 0.55008 0.97518 0.49875 0.0
C704 C 0.53811 0.97471 0.46594 0.0
C705 C 0.51612 0.94537 0.45081 0.0
C706 C 0.55258 0.03385 0.56375 0.0
C707 C 0.5742 0.06361 0.54858 0.0
C708 C 0.54739 0.00496 0.54926 0.0
C709 C 0.56323 0.00531 0.51893 0.0
C710 C 0.58662 0.03516 0.50508 0.0
C711 C 0.59236 0.0642 0.52008 0.0
H712 H 0.49053 0.54204 0.7536 0.0
H713 H 0.50611 0.60583 0.66873 0.0
H714 H 0.53159 0.53077 0.73122 0.0
H715 H 0.54695 0.5939 0.64568 0.0
H716 H 0.54041 0.49493 0.60134 0.0
H717 H 0.52786 0.53507 0.62381 0.0
H718 H 0.59082 0.55125 0.70972 0.0
H719 H 0.60404 0.51135 0.68658 0.0
C720 C 0.50355 0.55439 0.73067 0.0
C721 C 0.49504 0.57439 0.71255 0.0
C722 C 0.52726 0.54824 0.71804 0.0
C723 C 0.54231 0.56142 0.68669 0.0
C724 C 0.53572 0.58359 0.66999 0.0
C725 C 0.51241 0.59034 0.68309 0.0
C726 C 0.55246 0.50796 0.62437 0.0
C727 C 0.57278 0.49993 0.64256 0.0
C728 C 0.54557 0.53115 0.63705 0.0
C729 C 0.55833 0.54612 0.66853 0.0
C730 C 0.58082 0.54006 0.68532 0.0
C731 C 0.58831 0.51729 0.67216 0.0
H732 H 0.08892 0.61973 0.84491 0.0
H733 H 0.03201 0.54676 0.77006 0.0
H734 H 0.03902 0.61284 0.87096 0.0
H735 H 0.98253 0.54039 0.79542 0.0
H736 H 0.89601 0.52697 0.84248 0.0
H737 H 0.94726 0.56496 0.81485 0.0
H738 H -0.00029 0.55872 0.90151 0.0
H739 H 0.94875 0.5205 0.92864 0.0
C740 C 0.06582 0.60315 0.83331 0.0
C741 C 0.06407 0.58334 0.80592 0.0
C742 C 0.03738 0.5993 0.84812 0.0
C743 C 0.00701 0.57614 0.83517 0.0
C744 C 0.0056 0.55874 0.80567 0.0
C745 C 0.03387 0.56207 0.79139 0.0
C746 C 0.91847 0.535 0.85624 0.0
C747 C 0.91869 0.52056 0.88734 0.0
C748 C 0.94773 0.55664 0.84043 0.0
C749 C 0.97734 0.5644 0.8559 0.0
C750 C 0.97725 0.55332 0.88908 0.0
C751 C 0.94811 0.53127 0.90454 0.0
H752 H 0.53634 0.0626 0.02663 0.0
H753 H 0.46727 0.08055 0.97382 0.0
H754 H 0.49241 0.01294 0.04995 0.0
H755 H 0.42268 0.02955 0.99684 0.0
H756 H 0.41874 0.93722 0.10468 0.0
H757 H 0.44175 0.99429 0.09004 0.0
H758 H 0.41147 0.96784 0.98565 0.0
H759 H 0.3878 0.91049 1.00059 0.0
C760 C 0.51169 0.05606 0.02028 0.0
C761 C 0.50519 0.07533 0.99836 0.0
C762 C 0.48649 0.02777 0.03392 0.0
C763 C 0.45419 0.01775 0.02553 0.0
C764 C 0.44742 0.03709 1.00392 0.0
C765 C 0.47283 0.06607 0.99081 0.0
C766 C 0.41542 0.94359 0.07907 0.0
C767 C 0.40193 0.91984 0.05361 0.0
C768 C 0.42857 0.97615 0.0707 0.0
C769 C 0.42886 0.98529 0.03664 0.0
C770 C 0.41138 0.9613 0.01211 0.0
C771 C 0.39787 0.92854 0.02062 0.0
H772 H 0.38041 0.47818 0.18788 0.0
H773 H 0.44262 0.49343 0.1015 0.0
H774 H 0.39322 0.43787 0.21051 0.0
H775 H 0.4548 0.45294 0.12349 0.0
H776 H 0.49404 0.44771 0.25281 0.0
H777 H 0.4523 0.45822 0.23115 0.0
H778 H 0.43655 0.39474 0.14575 0.0
H779 H 0.47813 0.38362 0.16807 0.0
C780 C 0.39568 0.47187 0.17309 0.0
C781 C 0.41102 0.48906 0.14334 0.0
C782 C 0.40294 0.44886 0.18596 0.0
C783 C 0.42504 0.44245 0.16877 0.0
C784 C 0.43742 0.45714 0.13708 0.0
C785 C 0.43075 0.48054 0.12466 0.0
C786 C 0.48081 0.43512 0.23008 0.0
C787 C 0.48944 0.4153 0.21174 0.0
C788 C 0.45668 0.44082 0.21787 0.0
C789 C 0.44134 0.42735 0.18673 0.0
C790 C 0.44802 0.40528 0.16989 0.0
C791 C 0.47176 0.399 0.18257 0.0
H792 H 0.22636 0.51074 0.35786 0.0
H793 H 0.18681 0.54566 0.28068 0.0
H794 H 0.25826 0.50244 0.31402 0.0
H795 H 0.21873 0.53796 0.23736 0.0
H796 H 0.26945 0.50938 0.16033 0.0
H797 H 0.22955 0.50142 0.20435 0.0
H798 H 0.30527 0.53867 0.28032 0.0
H799 H 0.34463 0.54603 0.2368 0.0
C800 C 0.22408 0.51616 0.33155 0.0
C801 C 0.20428 0.52915 0.32287 0.0
C802 C 0.24249 0.5116 0.30642 0.0
C803 C 0.24129 0.51972 0.27206 0.0
C804 C 0.22011 0.53108 0.26334 0.0
C805 C 0.20196 0.53578 0.28836 0.0
C806 C 0.27737 0.51525 0.18654 0.0
C807 C 0.31027 0.52862 0.19495 0.0
C808 C 0.25457 0.51089 0.21177 0.0
C809 C 0.26416 0.51961 0.24597 0.0
C810 C 0.29681 0.53134 0.25447 0.0
C811 C 0.31951 0.53583 0.22933 0.0
H812 H 0.7508 0.26193 0.33253 0.0
H813 H 0.7935 0.34082 0.4047 0.0
H814 H 0.72019 0.22458 0.37883 0.0
H815 H 0.76276 0.30384 0.45065 0.0
H816 H 0.63709 0.18521 0.4591 0.0
H817 H 0.6745 0.21611 0.4137 0.0
H818 H 0.75318 0.25776 0.4862 0.0
H819 H 0.71523 0.22676 0.53214 0.0
C820 C 0.75398 0.27123 0.35828 0.0
C821 C 0.77441 0.30442 0.3648 0.0
C822 C 0.73631 0.24988 0.38484 0.0
C823 C 0.73879 0.26118 0.41857 0.0
C824 C 0.76041 0.29412 0.42518 0.0
C825 C 0.7779 0.31543 0.39868 0.0
C826 C 0.66244 0.20063 0.46542 0.0
C827 C 0.6731 0.20367 0.49938 0.0
C828 C 0.68401 0.21822 0.43921 0.0
C829 C 0.71694 0.23958 0.44614 0.0
C830 C 0.72791 0.24177 0.47997 0.0
C831 C 0.70624 0.22387 0.50629 0.0
H832 H 0.44016 0.63926 0.61925 0.0
H833 H 0.47255 0.7154 0.69443 0.0
H834 H 0.4482 0.67767 0.57445 0.0
H835 H 0.48108 0.75438 0.64909 0.0
H836 H 0.48015 0.75534 0.49519 0.0
H837 H 0.4862 0.72441 0.54156 0.0
H838 H 0.4455 0.76408 0.6122 0.0
H839 H 0.43997 0.79518 0.5662 0.0
C840 C 0.44952 0.6644 0.62619 0.0
C841 C 0.45545 0.67419 0.66052 0.0
C842 C 0.4544 0.68655 0.60034 0.0
C843 C 0.4652 0.7192 0.60802 0.0
C844 C 0.47241 0.72934 0.64227 0.0
C845 C 0.46774 0.70709 0.66825 0.0
C846 C 0.47301 0.75784 0.52072 0.0
C847 C 0.4593 0.77751 0.52687 0.0
C848 C 0.47631 0.73998 0.54731 0.0
C849 C 0.46611 0.74151 0.58068 0.0
C850 C 0.45392 0.76247 0.58701 0.0
C851 C 0.4505 0.78016 0.56048 0.0
H852 H 0.79943 0.45262 0.78725 0.0
H853 H 0.75552 0.48708 0.86006 0.0
H854 H 0.76741 0.45737 0.74179 0.0
H855 H 0.72371 0.49247 0.81419 0.0
H856 H 0.71611 0.48233 0.66086 0.0
H857 H 0.75542 0.4917 0.70608 0.0
H858 H 0.67819 0.45436 0.78047 0.0
H859 H 0.63947 0.44561 0.73582 0.0
C860 C 0.78331 0.46176 0.7935 0.0
C861 C 0.77981 0.46914 0.82743 0.0
C862 C 0.76508 0.46474 0.76726 0.0
C863 C 0.74274 0.47511 0.7742 0.0
C864 C 0.74034 0.48395 0.80795 0.0
C865 C 0.7587 0.48106 0.83425 0.0
C866 C 0.70773 0.47671 0.68697 0.0
C867 C 0.67463 0.46301 0.69465 0.0
C868 C 0.73019 0.48185 0.71288 0.0
C869 C 0.72003 0.47366 0.74703 0.0
C870 C 0.6871 0.46137 0.75468 0.0
C871 C 0.66477 0.45608 0.7289 0.0
H872 H 0.26395 0.76016 0.01868 0.0
H873 H 0.34237 0.80032 0.94577 0.0
H874 H 0.22599 0.7294 0.97294 0.0
H875 H 0.30481 0.76932 0.90043 0.0
H876 H 0.1854 0.64418 0.89548 0.0
H877 H 0.21659 0.68278 0.93978 0.0
H878 H 0.25899 0.75914 0.86466 0.0
H879 H 0.22778 0.71993 0.81979 0.0
C880 C 0.27302 0.7628 0.99287 0.0
C881 C 0.30625 0.78247 0.98599 0.0
C882 C 0.25131 0.74502 0.96664 0.0
C883 C 0.26233 0.7466 0.93293 0.0
C884 C 0.29531 0.76766 0.92589 0.0
C885 C 0.31695 0.7853 0.95205 0.0
C886 C 0.20107 0.66928 0.88832 0.0
C887 C 0.2043 0.6789 0.85397 0.0
C888 C 0.2188 0.69155 0.91391 0.0
C889 C 0.24045 0.72416 0.90594 0.0
C890 C 0.24279 0.73413 0.87169 0.0
C891 C 0.22479 0.71175 0.84598 0.0
H892 H 0.51373 0.27543 0.19493 0.0
H893 H 0.54681 0.35017 0.11815 0.0
H894 H 0.5069 0.23592 0.15091 0.0
H895 H 0.54045 0.31117 0.07458 0.0
H896 H 0.51399 0.23189 0.99743 0.0
H897 H 0.50471 0.26301 0.04145 0.0
H898 H 0.54498 0.22747 0.11726 0.0
H899 H 0.55379 0.19643 0.07375 0.0
C900 C 0.51901 0.28331 0.16865 0.0
C901 C 0.5311 0.31601 0.16015 0.0
C902 C 0.5153 0.26075 0.14342 0.0
C903 C 0.52333 0.27035 0.10911 0.0
C904 C 0.53369 0.30272 0.10053 0.0
C905 C 0.53761 0.3252 0.12568 0.0
C906 C 0.52026 0.23031 0.02361 0.0
C907 C 0.53489 0.21192 0.03198 0.0
C908 C 0.51513 0.24827 0.04883 0.0
C909 C 0.52425 0.24793 0.08299 0.0
C910 C 0.5373 0.22813 0.09144 0.0
C911 C 0.54263 0.21049 0.06632 0.0
loop_
_geom_bond_atom_site_label_1
_geom_bond_atom_site_label_2
_geom_bond_distance
_geom_bond_site_symmetry_2
_ccdc_geom_bond_type
Mn0 O5 2.095 . S
Mn0 O15 2.162 . S
Mn0 O16 2.297 . S
Mn0 O24 2.385 . S
Mn0 O25 2.209 . S
Mn0 O26 2.094 . S
Mn1 O6 2.121 . S
Mn1 N8 2.257 . S
Mn1 N17 2.282 . S
Mn1 O25 2.215 . S
Mn1 O27 2.117 . S
C2 O24 1.234 . S
C2 O25 1.283 . S
C3 O15 1.281 . S
C3 O16 1.236 . S
C4 O26 1.240 . S
C4 O27 1.264 . S
O5 Mn0 2.095 . S
O5 C14 1.250 . S
O6 Mn1 2.121 . S
O6 C14 1.258 . S
C7 N8 1.326 . S
C7 C11 1.460 . S
C7 H13 0.929 . S
N8 Mn1 2.257 . S
N8 C7 1.326 . S
N8 C12 1.362 . S
C9 C10 1.258 . S
C9 C12 1.431 . S
C9 C29 1.449 . S
C10 C9 1.258 . S
C10 C11 1.477 . S
C10 H30 0.931 . S
C11 C7 1.460 . S
C11 C10 1.477 . S
C11 H31 0.930 . S
C12 N8 1.362 . S
C12 C9 1.431 . S
C12 C22 1.476 . S
H13 C7 0.929 . S
C14 O5 1.250 . S
C14 O6 1.258 . S
O15 Mn0 2.162 . S
O15 C3 1.281 . S
O16 Mn0 2.297 . S
O16 C3 1.236 . S
N17 Mn1 2.282 . S
N17 C18 1.328 . S
N17 C22 1.318 . S
C18 N17 1.328 . S
C18 C19 1.457 . S
C18 H23 0.929 . S
C19 C18 1.457 . S
C19 C20 1.291 . S
C19 H32 0.931 . S
C20 C19 1.291 . S
C20 C21 1.373 . S
C20 H33 0.929 . S
C21 C20 1.373 . S
C21 C22 1.396 . S
C21 C28 1.403 . S
C22 C12 1.476 . S
C22 N17 1.318 . S
C22 C21 1.396 . S
H23 C18 0.929 . S
O24 Mn0 2.385 . S
O24 C2 1.234 . S
O25 Mn0 2.209 . S
O25 Mn1 2.215 . S
O25 C2 1.283 . S
O26 Mn0 2.094 . S
O26 C4 1.240 . S
O27 Mn1 2.117 . S
O27 C4 1.264 . S
C28 C21 1.403 . S
C28 C29 1.399 . S
C28 H34 0.929 . S
C29 C9 1.449 . S
C29 C28 1.399 . S
C29 H35 0.930 . S
H30 C10 0.931 . S
H31 C11 0.930 . S
H32 C19 0.931 . S
H33 C20 0.929 . S
H34 C28 0.929 . S
H35 C29 0.930 . S
Mn36 O41 2.095 . S
Mn36 O51 2.162 . S
Mn36 O52 2.297 . S
Mn36 O60 2.385 . S
Mn36 O61 2.209 . S
Mn36 O62 2.094 . S
Mn37 O42 2.121 . S
Mn37 N44 2.257 . S
Mn37 N53 2.282 . S
Mn37 O61 2.215 . S
Mn37 O63 2.117 . S
C38 O60 1.234 . S
C38 O61 1.283 . S
C39 O51 1.281 . S
C39 O52 1.236 . S
C40 O62 1.240 . S
C40 O63 1.264 . S
O41 Mn36 2.095 . S
O41 C50 1.250 . S
O42 Mn37 2.121 . S
O42 C50 1.258 . S
C43 N44 1.326 . S
C43 C47 1.460 . S
C43 H49 0.929 . S
N44 Mn37 2.257 . S
N44 C43 1.326 . S
N44 C48 1.362 . S
C45 C46 1.258 . S
C45 C48 1.431 . S
C45 C65 1.449 . S
C46 C45 1.258 . S
C46 C47 1.477 . S
C46 H66 0.931 . S
C47 C43 1.460 . S
C47 C46 1.477 . S
C47 H67 0.930 . S
C48 N44 1.362 . S
C48 C45 1.431 . S
C48 C58 1.476 . S
H49 C43 0.929 . S
C50 O41 1.250 . S
C50 O42 1.258 . S
O51 Mn36 2.162 . S
O51 C39 1.281 . S
O52 Mn36 2.297 . S
O52 C39 1.236 . S
N53 Mn37 2.282 . S
N53 C54 1.328 . S
N53 C58 1.318 . S
C54 N53 1.328 . S
C54 C55 1.457 . S
C54 H59 0.929 . S
C55 C54 1.457 . S
C55 C56 1.291 . S
C55 H68 0.931 . S
C56 C55 1.291 . S
C56 C57 1.373 . S
C56 H69 0.929 . S
C57 C56 1.373 . S
C57 C58 1.396 . S
C57 C64 1.403 . S
C58 C48 1.476 . S
C58 N53 1.318 . S
C58 C57 1.396 . S
H59 C54 0.929 . S
O60 Mn36 2.385 . S
O60 C38 1.234 . S
O61 Mn36 2.209 . S
O61 Mn37 2.215 . S
O61 C38 1.283 . S
O62 Mn36 2.094 . S
O62 C40 1.240 . S
O63 Mn37 2.117 . S
O63 C40 1.264 . S
C64 C57 1.403 . S
C64 C65 1.399 . S
C64 H70 0.929 . S
C65 C45 1.449 . S
C65 C64 1.399 . S
C65 H71 0.930 . S
H66 C46 0.931 . S
H67 C47 0.930 . S
H68 C55 0.931 . S
H69 C56 0.929 . S
H70 C64 0.929 . S
H71 C65 0.930 . S
Mn72 O77 2.095 . S
Mn72 O87 2.162 . S
Mn72 O88 2.297 . S
Mn72 O96 2.385 . S
Mn72 O97 2.209 . S
Mn72 O98 2.094 . S
Mn73 O78 2.121 . S
Mn73 N80 2.257 . S
Mn73 N89 2.282 . S
Mn73 O97 2.215 . S
Mn73 O99 2.117 . S
C74 O96 1.234 . S
C74 O97 1.283 . S
C75 O87 1.281 . S
C75 O88 1.236 . S
C76 O98 1.240 . S
C76 O99 1.264 . S
O77 Mn72 2.095 . S
O77 C86 1.250 . S
O78 Mn73 2.121 . S
O78 C86 1.258 . S
C79 N80 1.326 . S
C79 C83 1.460 . S
C79 H85 0.929 . S
N80 Mn73 2.257 . S
N80 C79 1.326 . S
N80 C84 1.362 . S
C81 C82 1.258 . S
C81 C84 1.431 . S
C81 C101 1.449 . S
C82 C81 1.258 . S
C82 C83 1.477 . S
C82 H102 0.931 . S
C83 C79 1.460 . S
C83 C82 1.477 . S
C83 H103 0.930 . S
C84 N80 1.362 . S
C84 C81 1.431 . S
C84 C94 1.476 . S
H85 C79 0.929 . S
C86 O77 1.250 . S
C86 O78 1.258 . S
O87 Mn72 2.162 . S
O87 C75 1.281 . S
O88 Mn72 2.297 . S
O88 C75 1.236 . S
N89 Mn73 2.282 . S
N89 C90 1.328 . S
N89 C94 1.318 . S
C90 N89 1.328 . S
C90 C91 1.457 . S
C90 H95 0.929 . S
C91 C90 1.457 . S
C91 C92 1.291 . S
C91 H104 0.931 . S
C92 C91 1.291 . S
C92 C93 1.373 . S
C92 H105 0.929 . S
C93 C92 1.373 . S
C93 C94 1.396 . S
C93 C100 1.403 . S
C94 C84 1.476 . S
C94 N89 1.318 . S
C94 C93 1.396 . S
H95 C90 0.929 . S
O96 Mn72 2.385 . S
O96 C74 1.234 . S
O97 Mn72 2.209 . S
O97 Mn73 2.215 . S
O97 C74 1.283 . S
O98 Mn72 2.094 . S
O98 C76 1.240 . S
O99 Mn73 2.117 . S
O99 C76 1.264 . S
C100 C93 1.403 . S
C100 C101 1.399 . S
C100 H106 0.929 . S
C101 C81 1.449 . S
C101 C100 1.399 . S
C101 H107 0.930 . S
H102 C82 0.931 . S
H103 C83 0.930 . S
H104 C91 0.931 . S
H105 C92 0.929 . S
H106 C100 0.929 . S
H107 C101 0.930 . S
Mn108 O113 2.095 . S
Mn108 O123 2.162 . S
Mn108 O124 2.297 . S
Mn108 O132 2.385 . S
Mn108 O133 2.209 . S
Mn108 O134 2.094 . S
Mn109 O114 2.121 . S
Mn109 N116 2.257 . S
Mn109 N125 2.282 . S
Mn109 O133 2.215 . S
Mn109 O135 2.117 . S
C110 O132 1.234 . S
C110 O133 1.283 . S
C111 O123 1.281 . S
C111 O124 1.236 . S
C112 O134 1.240 . S
C112 O135 1.264 . S
O113 Mn108 2.095 . S
O113 C122 1.250 . S
O114 Mn109 2.121 . S
O114 C122 1.258 . S
C115 N116 1.326 . S
C115 C119 1.460 . S
C115 H121 0.929 . S
N116 Mn109 2.257 . S
N116 C115 1.326 . S
N116 C120 1.362 . S
C117 C118 1.258 . S
C117 C120 1.431 . S
C117 C137 1.449 . S
C118 C117 1.258 . S
C118 C119 1.477 . S
C118 H138 0.931 . S
C119 C115 1.460 . S
C119 C118 1.477 . S
C119 H139 0.930 . S
C120 N116 1.362 . S
C120 C117 1.431 . S
C120 C130 1.476 . S
H121 C115 0.929 . S
C122 O113 1.250 . S
C122 O114 1.258 . S
O123 Mn108 2.162 . S
O123 C111 1.281 . S
O124 Mn108 2.297 . S
O124 C111 1.236 . S
N125 Mn109 2.282 . S
N125 C126 1.328 . S
N125 C130 1.318 . S
C126 N125 1.328 . S
C126 C127 1.457 . S
C126 H131 0.929 . S
C127 C126 1.457 . S
C127 C128 1.291 . S
C127 H140 0.931 1_556 S
C128 C127 1.291 . S
C128 C129 1.373 . S
C128 H141 0.929 . S
C129 C128 1.373 . S
C129 C130 1.396 . S
C129 C136 1.403 . S
C130 C120 1.476 . S
C130 N125 1.318 . S
C130 C129 1.396 . S
H131 C126 0.929 . S
O132 Mn108 2.385 . S
O132 C110 1.234 . S
O133 Mn108 2.209 . S
O133 Mn109 2.215 . S
O133 C110 1.283 . S
O134 Mn108 2.094 . S
O134 C112 1.240 . S
O135 Mn109 2.117 . S
O135 C112 1.264 . S
C136 C129 1.403 . S
C136 C137 1.399 . S
C136 H142 0.929 . S
C137 C117 1.449 . S
C137 C136 1.399 . S
C137 H143 0.930 . S
H138 C118 0.931 . S
H139 C119 0.930 . S
H140 C127 0.931 1_554 S
H141 C128 0.929 . S
H142 C136 0.929 . S
H143 C137 0.930 . S
Mn144 O149 2.095 . S
Mn144 O159 2.162 . S
Mn144 O160 2.297 . S
Mn144 O168 2.385 . S
Mn144 O169 2.209 . S
Mn144 O170 2.094 . S
Mn145 O150 2.121 . S
Mn145 N152 2.257 . S
Mn145 N161 2.282 . S
Mn145 O169 2.215 . S
Mn145 O171 2.117 . S
C146 O168 1.234 . S
C146 O169 1.283 . S
C147 O159 1.281 . S
C147 O160 1.236 . S
C148 O170 1.240 . S
C148 O171 1.264 . S
O149 Mn144 2.095 . S
O149 C158 1.250 . S
O150 Mn145 2.121 . S
O150 C158 1.258 . S
C151 N152 1.326 . S
C151 C155 1.460 . S
C151 H157 0.929 . S
N152 Mn145 2.257 . S
N152 C151 1.326 . S
N152 C156 1.362 . S
C153 C154 1.258 . S
C153 C156 1.431 . S
C153 C173 1.449 . S
C154 C153 1.258 . S
C154 C155 1.477 . S
C154 H174 0.931 . S
C155 C151 1.460 . S
C155 C154 1.477 . S
C155 H175 0.930 . S
C156 N152 1.362 . S
C156 C153 1.431 . S
C156 C166 1.476 . S
H157 C151 0.929 . S
C158 O149 1.250 . S
C158 O150 1.258 . S
O159 Mn144 2.162 . S
O159 C147 1.281 . S
O160 Mn144 2.297 . S
O160 C147 1.236 . S
N161 Mn145 2.282 . S
N161 C162 1.328 . S
N161 C166 1.318 . S
C162 N161 1.328 . S
C162 C163 1.457 . S
C162 H167 0.929 . S
C163 C162 1.457 . S
C163 C164 1.291 . S
C163 H176 0.931 . S
C164 C163 1.291 . S
C164 C165 1.373 . S
C164 H177 0.929 . S
C165 C164 1.373 . S
C165 C166 1.396 . S
C165 C172 1.403 . S
C166 C156 1.476 . S
C166 N161 1.318 . S
C166 C165 1.396 . S
H167 C162 0.929 . S
O168 Mn144 2.385 . S
O168 C146 1.234 . S
O169 Mn144 2.209 . S
O169 Mn145 2.215 . S
O169 C146 1.283 . S
O170 Mn144 2.094 . S
O170 C148 1.240 . S
O171 Mn145 2.117 . S
O171 C148 1.264 . S
C172 C165 1.403 . S
C172 C173 1.399 . S
C172 H178 0.929 . S
C173 C153 1.449 . S
C173 C172 1.399 . S
C173 H179 0.930 . S
H174 C154 0.931 . S
H175 C155 0.930 . S
H176 C163 0.931 . S
H177 C164 0.929 . S
H178 C172 0.929 . S
H179 C173 0.930 . S
Mn180 O185 2.095 . S
Mn180 O195 2.162 . S
Mn180 O196 2.297 . S
Mn180 O204 2.385 . S
Mn180 O205 2.209 . S
Mn180 O206 2.094 . S
Mn181 O186 2.121 . S
Mn181 N188 2.257 . S
Mn181 N197 2.282 . S
Mn181 O205 2.215 . S
Mn181 O207 2.117 . S
C182 O204 1.234 . S
C182 O205 1.283 . S
C183 O195 1.281 . S
C183 O196 1.236 . S
C184 O206 1.240 . S
C184 O207 1.264 . S
O185 Mn180 2.095 . S
O185 C194 1.250 . S
O186 Mn181 2.121 . S
O186 C194 1.258 . S
C187 N188 1.326 . S
C187 C191 1.460 . S
C187 H193 0.929 . S
N188 Mn181 2.257 . S
N188 C187 1.326 . S
N188 C192 1.362 . S
C189 C190 1.258 . S
C189 C192 1.431 . S
C189 C209 1.449 . S
C190 C189 1.258 . S
C190 C191 1.477 . S
C190 H210 0.931 . S
C191 C187 1.460 . S
C191 C190 1.477 . S
C191 H211 0.930 . S
C192 N188 1.362 . S
C192 C189 1.431 . S
C192 C202 1.476 . S
H193 C187 0.929 . S
C194 O185 1.250 . S
C194 O186 1.258 . S
O195 Mn180 2.162 . S
O195 C183 1.281 . S
O196 Mn180 2.297 . S
O196 C183 1.236 . S
N197 Mn181 2.282 . S
N197 C198 1.328 . S
N197 C202 1.318 . S
C198 N197 1.328 . S
C198 C199 1.457 . S
C198 H203 0.929 . S
C199 C198 1.457 . S
C199 C200 1.291 . S
C199 H212 0.931 . S
C200 C199 1.291 . S
C200 C201 1.373 . S
C200 H213 0.929 . S
C201 C200 1.373 . S
C201 C202 1.396 . S
C201 C208 1.403 . S
C202 C192 1.476 . S
C202 N197 1.318 . S
C202 C201 1.396 . S
H203 C198 0.929 . S
O204 Mn180 2.385 . S
O204 C182 1.234 . S
O205 Mn180 2.209 . S
O205 Mn181 2.215 . S
O205 C182 1.283 . S
O206 Mn180 2.094 . S
O206 C184 1.240 . S
O207 Mn181 2.117 . S
O207 C184 1.264 . S
C208 C201 1.403 . S
C208 C209 1.399 . S
C208 H214 0.929 . S
C209 C189 1.449 . S
C209 C208 1.399 . S
C209 H215 0.930 . S
H210 C190 0.931 . S
H211 C191 0.930 . S
H212 C199 0.931 . S
H213 C200 0.929 . S
H214 C208 0.929 . S
H215 C209 0.930 . S
Mn216 O221 2.095 . S
Mn216 O231 2.162 . S
Mn216 O232 2.297 . S
Mn216 O240 2.385 . S
Mn216 O241 2.209 . S
Mn216 O242 2.094 . S
Mn217 O222 2.121 . S
Mn217 N224 2.257 . S
Mn217 N233 2.282 . S
Mn217 O241 2.215 . S
Mn217 O243 2.117 . S
C218 O240 1.234 . S
C218 O241 1.283 . S
C219 O231 1.281 . S
C219 O232 1.236 . S
C220 O242 1.240 . S
C220 O243 1.264 . S
O221 Mn216 2.095 . S
O221 C230 1.250 . S
O222 Mn217 2.121 . S
O222 C230 1.258 . S
C223 N224 1.326 . S
C223 C227 1.460 . S
C223 H229 0.929 . S
N224 Mn217 2.257 . S
N224 C223 1.326 . S
N224 C228 1.362 . S
C225 C226 1.258 . S
C225 C228 1.431 . S
C225 C245 1.449 . S
C226 C225 1.258 . S
C226 C227 1.477 . S
C226 H246 0.931 . S
C227 C223 1.460 . S
C227 C226 1.477 . S
C227 H247 0.930 . S
C228 N224 1.362 . S
C228 C225 1.431 . S
C228 C238 1.476 . S
H229 C223 0.929 . S
C230 O221 1.250 . S
C230 O222 1.258 . S
O231 Mn216 2.162 . S
O231 C219 1.281 . S
O232 Mn216 2.297 . S
O232 C219 1.236 . S
N233 Mn217 2.282 . S
N233 C234 1.328 . S
N233 C238 1.318 . S
C234 N233 1.328 . S
C234 C235 1.457 . S
C234 H239 0.929 . S
C235 C234 1.457 . S
C235 C236 1.291 . S
C235 H248 0.931 . S
C236 C235 1.291 . S
C236 C237 1.373 . S
C236 H249 0.929 . S
C237 C236 1.373 . S
C237 C238 1.396 . S
C237 C244 1.403 . S
C238 C228 1.476 . S
C238 N233 1.318 . S
C238 C237 1.396 . S
H239 C234 0.929 . S
O240 Mn216 2.385 . S
O240 C218 1.234 . S
O241 Mn216 2.209 . S
O241 Mn217 2.215 . S
O241 C218 1.283 . S
O242 Mn216 2.094 . S
O242 C220 1.240 . S
O243 Mn217 2.117 . S
O243 C220 1.264 . S
C244 C237 1.403 . S
C244 C245 1.399 . S
C244 H250 0.929 . S
C245 C225 1.449 . S
C245 C244 1.399 . S
C245 H251 0.930 . S
H246 C226 0.931 . S
H247 C227 0.930 . S
H248 C235 0.931 . S
H249 C236 0.929 . S
H250 C244 0.929 . S
H251 C245 0.930 . S
Mn252 O257 2.095 . S
Mn252 O267 2.162 . S
Mn252 O268 2.297 . S
Mn252 O276 2.385 . S
Mn252 O277 2.209 . S
Mn252 O278 2.094 . S
Mn253 O258 2.121 . S
Mn253 N260 2.257 . S
Mn253 N269 2.282 . S
Mn253 O277 2.215 . S
Mn253 O279 2.117 . S
C254 O276 1.234 . S
C254 O277 1.283 . S
C255 O267 1.281 . S
C255 O268 1.236 . S
C256 O278 1.240 . S
C256 O279 1.264 . S
O257 Mn252 2.095 . S
O257 C266 1.250 . S
O258 Mn253 2.121 . S
O258 C266 1.258 . S
C259 N260 1.326 . S
C259 C263 1.460 . S
C259 H265 0.929 . S
N260 Mn253 2.257 . S
N260 C259 1.326 . S
N260 C264 1.362 . S
C261 C262 1.258 . S
C261 C264 1.431 . S
C261 C281 1.449 . S
C262 C261 1.258 . S
C262 C263 1.477 . S
C262 H282 0.931 . S
C263 C259 1.460 . S
C263 C262 1.477 . S
C263 H283 0.930 . S
C264 N260 1.362 . S
C264 C261 1.431 . S
C264 C274 1.476 . S
H265 C259 0.929 . S
C266 O257 1.250 . S
C266 O258 1.258 . S
O267 Mn252 2.162 . S
O267 C255 1.281 . S
O268 Mn252 2.297 . S
O268 C255 1.236 . S
N269 Mn253 2.282 . S
N269 C270 1.328 . S
N269 C274 1.318 . S
C270 N269 1.328 . S
C270 C271 1.457 . S
C270 H275 0.929 . S
C271 C270 1.457 . S
C271 C272 1.291 . S
C271 H284 0.931 . S
C272 C271 1.291 . S
C272 C273 1.373 . S
C272 H285 0.929 . S
C273 C272 1.373 . S
C273 C274 1.396 . S
C273 C280 1.403 . S
C274 C264 1.476 . S
C274 N269 1.318 . S
C274 C273 1.396 . S
H275 C270 0.929 . S
O276 Mn252 2.385 . S
O276 C254 1.234 . S
O277 Mn252 2.209 . S
O277 Mn253 2.215 . S
O277 C254 1.283 . S
O278 Mn252 2.094 . S
O278 C256 1.240 . S
O279 Mn253 2.117 . S
O279 C256 1.264 . S
C280 C273 1.403 . S
C280 C281 1.399 . S
C280 H286 0.929 . S
C281 C261 1.449 . S
C281 C280 1.399 . S
C281 H287 0.930 . S
H282 C262 0.931 . S
H283 C263 0.930 . S
H284 C271 0.931 . S
H285 C272 0.929 . S
H286 C280 0.929 . S
H287 C281 0.930 . S
Mn288 O293 2.095 . S
Mn288 O303 2.162 . S
Mn288 O304 2.297 . S
Mn288 O312 2.385 . S
Mn288 O313 2.209 . S
Mn288 O314 2.094 . S
Mn289 O294 2.121 . S
Mn289 N296 2.257 . S
Mn289 N305 2.282 . S
Mn289 O313 2.215 . S
Mn289 O315 2.117 . S
C290 O312 1.234 . S
C290 O313 1.283 . S
C291 O303 1.281 . S
C291 O304 1.236 . S
C292 O314 1.240 . S
C292 O315 1.264 . S
O293 Mn288 2.095 . S
O293 C302 1.250 . S
O294 Mn289 2.121 . S
O294 C302 1.258 . S
C295 N296 1.326 . S
C295 C299 1.460 . S
C295 H301 0.929 . S
N296 Mn289 2.257 . S
N296 C295 1.326 . S
N296 C300 1.362 . S
C297 C298 1.258 . S
C297 C300 1.431 . S
C297 C317 1.449 . S
C298 C297 1.258 . S
C298 C299 1.477 . S
C298 H318 0.931 . S
C299 C295 1.460 . S
C299 C298 1.477 . S
C299 H319 0.930 . S
C300 N296 1.362 . S
C300 C297 1.431 . S
C300 C310 1.476 . S
H301 C295 0.929 . S
C302 O293 1.250 . S
C302 O294 1.258 . S
O303 Mn288 2.162 . S
O303 C291 1.281 . S
O304 Mn288 2.297 . S
O304 C291 1.236 . S
N305 Mn289 2.282 . S
N305 C306 1.328 . S
N305 C310 1.318 . S
C306 N305 1.328 . S
C306 C307 1.457 . S
C306 H311 0.929 . S
C307 C306 1.457 . S
C307 C308 1.291 . S
C307 H320 0.931 . S
C308 C307 1.291 . S
C308 C309 1.373 . S
C308 H321 0.929 . S
C309 C308 1.373 . S
C309 C310 1.396 . S
C309 C316 1.403 . S
C310 C300 1.476 . S
C310 N305 1.318 . S
C310 C309 1.396 . S
H311 C306 0.929 . S
O312 Mn288 2.385 . S
O312 C290 1.234 . S
O313 Mn288 2.209 . S
O313 Mn289 2.215 . S
O313 C290 1.283 . S
O314 Mn288 2.094 . S
O314 C292 1.240 . S
O315 Mn289 2.117 . S
O315 C292 1.264 . S
C316 C309 1.403 . S
C316 C317 1.399 . S
C316 H322 0.929 . S
C317 C297 1.449 . S
C317 C316 1.399 . S
C317 H323 0.930 . S
H318 C298 0.931 . S
H319 C299 0.930 . S
H320 C307 0.931 . S
H321 C308 0.929 . S
H322 C316 0.929 . S
H323 C317 0.930 . S
Mn324 O329 2.095 . S
Mn324 O339 2.162 . S
Mn324 O340 2.297 . S
Mn324 O348 2.385 . S
Mn324 O349 2.209 . S
Mn324 O350 2.094 . S
Mn325 O330 2.121 . S
Mn325 N332 2.257 . S
Mn325 N341 2.282 . S
Mn325 O349 2.215 . S
Mn325 O351 2.117 . S
C326 O348 1.234 . S
C326 O349 1.283 . S
C327 O339 1.281 . S
C327 O340 1.236 . S
C328 O350 1.240 . S
C328 O351 1.264 . S
O329 Mn324 2.095 . S
O329 C338 1.250 . S
O330 Mn325 2.121 . S
O330 C338 1.258 . S
C331 N332 1.326 . S
C331 C335 1.460 . S
C331 H337 0.929 . S
N332 Mn325 2.257 . S
N332 C331 1.326 . S
N332 C336 1.362 . S
C333 C334 1.258 . S
C333 C336 1.431 . S
C333 C353 1.449 . S
C334 C333 1.258 . S
C334 C335 1.477 . S
C334 H354 0.931 . S
C335 C331 1.460 . S
C335 C334 1.477 . S
C335 H355 0.930 . S
C336 N332 1.362 . S
C336 C333 1.431 . S
C336 C346 1.476 . S
H337 C331 0.929 . S
C338 O329 1.250 . S
C338 O330 1.258 . S
O339 Mn324 2.162 . S
O339 C327 1.281 . S
O340 Mn324 2.297 . S
O340 C327 1.236 . S
N341 Mn325 2.282 . S
N341 C342 1.328 . S
N341 C346 1.318 . S
C342 N341 1.328 . S
C342 C343 1.457 . S
C342 H347 0.929 . S
C343 C342 1.457 . S
C343 C344 1.291 . S
C343 H356 0.931 . S
C344 C343 1.291 . S
C344 C345 1.373 . S
C344 H357 0.929 . S
C345 C344 1.373 . S
C345 C346 1.396 . S
C345 C352 1.403 . S
C346 C336 1.476 . S
C346 N341 1.318 . S
C346 C345 1.396 . S
H347 C342 0.929 . S
O348 Mn324 2.385 . S
O348 C326 1.234 . S
O349 Mn324 2.209 . S
O349 Mn325 2.215 . S
O349 C326 1.283 . S
O350 Mn324 2.094 . S
O350 C328 1.240 . S
O351 Mn325 2.117 . S
O351 C328 1.264 . S
C352 C345 1.403 . S
C352 C353 1.399 . S
C352 H358 0.929 . S
C353 C333 1.449 . S
C353 C352 1.399 . S
C353 H359 0.930 . S
H354 C334 0.931 . S
H355 C335 0.930 . S
H356 C343 0.931 . S
H357 C344 0.929 . S
H358 C352 0.929 . S
H359 C353 0.930 . S
Mn360 O365 2.095 . S
Mn360 O375 2.162 . S
Mn360 O376 2.297 . S
Mn360 O384 2.385 . S
Mn360 O385 2.209 . S
Mn360 O386 2.094 . S
Mn361 O366 2.121 . S
Mn361 N368 2.257 . S
Mn361 N377 2.282 . S
Mn361 O385 2.215 . S
Mn361 O387 2.117 . S
C362 O384 1.234 . S
C362 O385 1.283 . S
C363 O375 1.281 . S
C363 O376 1.236 . S
C364 O386 1.240 . S
C364 O387 1.264 . S
O365 Mn360 2.095 . S
O365 C374 1.250 . S
O366 Mn361 2.121 . S
O366 C374 1.258 . S
C367 N368 1.326 . S
C367 C371 1.460 . S
C367 H373 0.929 . S
N368 Mn361 2.257 . S
N368 C367 1.326 . S
N368 C372 1.362 . S
C369 C370 1.258 . S
C369 C372 1.431 . S
C369 C389 1.449 . S
C370 C369 1.258 . S
C370 C371 1.477 . S
C370 H390 0.931 . S
C371 C367 1.460 . S
C371 C370 1.477 . S
C371 H391 0.930 . S
C372 N368 1.362 . S
C372 C369 1.431 . S
C372 C382 1.476 . S
H373 C367 0.929 . S
C374 O365 1.250 . S
C374 O366 1.258 . S
O375 Mn360 2.162 . S
O375 C363 1.281 . S
O376 Mn360 2.297 . S
O376 C363 1.236 . S
N377 Mn361 2.282 . S
N377 C378 1.328 . S
N377 C382 1.318 . S
C378 N377 1.328 . S
C378 C379 1.457 . S
C378 H383 0.929 . S
C379 C378 1.457 . S
C379 C380 1.291 . S
C379 H392 0.931 1_554 S
C380 C379 1.291 . S
C380 C381 1.373 . S
C380 H393 0.929 . S
C381 C380 1.373 . S
C381 C382 1.396 . S
C381 C388 1.403 . S
C382 C372 1.476 . S
C382 N377 1.318 . S
C382 C381 1.396 . S
H383 C378 0.929 . S
O384 Mn360 2.385 . S
O384 C362 1.234 . S
O385 Mn360 2.209 . S
O385 Mn361 2.215 . S
O385 C362 1.283 . S
O386 Mn360 2.094 . S
O386 C364 1.240 . S
O387 Mn361 2.117 . S
O387 C364 1.264 . S
C388 C381 1.403 . S
C388 C389 1.399 . S
C388 H394 0.929 . S
C389 C369 1.449 . S
C389 C388 1.399 . S
C389 H395 0.930 . S
H390 C370 0.931 . S
H391 C371 0.930 . S
H392 C379 0.931 1_556 S
H393 C380 0.929 . S
H394 C388 0.929 . S
H395 C389 0.930 . S
Mn396 O401 2.095 . S
Mn396 O411 2.162 . S
Mn396 O412 2.297 . S
Mn396 O420 2.385 . S
Mn396 O421 2.209 . S
Mn396 O422 2.094 . S
Mn397 O402 2.121 . S
Mn397 N404 2.257 . S
Mn397 N413 2.282 . S
Mn397 O421 2.215 . S
Mn397 O423 2.117 . S
C398 O420 1.234 . S
C398 O421 1.283 . S
C399 O411 1.281 . S
C399 O412 1.236 . S
C400 O422 1.240 . S
C400 O423 1.264 . S
O401 Mn396 2.095 . S
O401 C410 1.250 . S
O402 Mn397 2.121 . S
O402 C410 1.258 . S
C403 N404 1.326 . S
C403 C407 1.460 . S
C403 H409 0.929 . S
N404 Mn397 2.257 . S
N404 C403 1.326 . S
N404 C408 1.362 . S
C405 C406 1.258 . S
C405 C408 1.431 . S
C405 C425 1.449 . S
C406 C405 1.258 . S
C406 C407 1.477 . S
C406 H426 0.931 . S
C407 C403 1.460 . S
C407 C406 1.477 . S
C407 H427 0.930 . S
C408 N404 1.362 . S
C408 C405 1.431 . S
C408 C418 1.476 . S
H409 C403 0.929 . S
C410 O401 1.250 . S
C410 O402 1.258 . S
O411 Mn396 2.162 . S
O411 C399 1.281 . S
O412 Mn396 2.297 . S
O412 C399 1.236 . S
N413 Mn397 2.282 . S
N413 C414 1.328 . S
N413 C418 1.318 . S
C414 N413 1.328 . S
C414 C415 1.457 . S
C414 H419 0.929 . S
C415 C414 1.457 . S
C415 C416 1.291 . S
C415 H428 0.931 . S
C416 C415 1.291 . S
C416 C417 1.373 . S
C416 H429 0.929 . S
C417 C416 1.373 . S
C417 C418 1.396 . S
C417 C424 1.403 . S
C418 C408 1.476 . S
C418 N413 1.318 . S
C418 C417 1.396 . S
H419 C414 0.929 . S
O420 Mn396 2.385 . S
O420 C398 1.234 . S
O421 Mn396 2.209 . S
O421 Mn397 2.215 . S
O421 C398 1.283 . S
O422 Mn396 2.094 . S
O422 C400 1.240 . S
O423 Mn397 2.117 . S
O423 C400 1.264 . S
C424 C417 1.403 . S
C424 C425 1.399 . S
C424 H430 0.929 . S
C425 C405 1.449 . S
C425 C424 1.399 . S
C425 H431 0.930 . S
H426 C406 0.931 . S
H427 C407 0.930 . S
H428 C415 0.931 . S
H429 C416 0.929 . S
H430 C424 0.929 . S
H431 C425 0.930 . S
H432 C440 0.950 . S
H433 C445 0.950 . S
H434 C442 0.950 . S
H435 C444 0.950 . S
H436 C446 0.950 . S
H437 C448 0.950 . S
H438 C450 0.950 . S
H439 C451 0.950 . S
C440 H432 0.950 . S
C440 C441 1.386 . S
C440 C442 1.391 . S
C441 C440 1.386 . S
C441 C445 1.393 . S
C442 H434 0.950 . S
C442 C440 1.391 . S
C442 C443 1.400 . S
C443 C442 1.400 . S
C443 C444 1.398 . S
C443 C449 1.491 . S
C444 H435 0.950 . S
C444 C443 1.398 . S
C444 C445 1.391 . S
C445 H433 0.950 . S
C445 C441 1.393 . S
C445 C444 1.391 . S
C446 H436 0.950 . S
C446 C447 1.386 . S
C446 C448 1.391 . S
C447 C446 1.386 . S
C447 C451 1.393 . S
C448 H437 0.950 . S
C448 C446 1.391 . S
C448 C449 1.400 . S
C449 C443 1.491 . S
C449 C448 1.400 . S
C449 C450 1.398 . S
C450 H438 0.950 . S
C450 C449 1.398 . S
C450 C451 1.391 . S
C451 H439 0.950 . S
C451 C447 1.393 . S
C451 C450 1.391 . S
H452 C460 0.950 . S
H453 C465 0.950 . S
H454 C462 0.950 . S
H455 C464 0.950 . S
H456 C466 0.950 . S
H457 C468 0.950 . S
H458 C470 0.950 . S
H459 C471 0.950 . S
C460 H452 0.950 . S
C460 C461 1.386 . S
C460 C462 1.391 . S
C461 C460 1.386 . S
C461 C465 1.393 . S
C462 H454 0.950 . S
C462 C460 1.391 . S
C462 C463 1.400 . S
C463 C462 1.400 . S
C463 C464 1.398 . S
C463 C469 1.491 . S
C464 H455 0.950 . S
C464 C463 1.398 . S
C464 C465 1.391 . S
C465 H453 0.950 . S
C465 C461 1.393 . S
C465 C464 1.391 . S
C466 H456 0.950 . S
C466 C467 1.386 . S
C466 C468 1.391 . S
C467 C466 1.386 . S
C467 C471 1.393 . S
C468 H457 0.950 . S
C468 C466 1.391 . S
C468 C469 1.400 . S
C469 C463 1.491 . S
C469 C468 1.400 . S
C469 C470 1.398 . S
C470 H458 0.950 . S
C470 C469 1.398 . S
C470 C471 1.391 . S
C471 H459 0.950 . S
C471 C467 1.393 . S
C471 C470 1.391 . S
H472 C480 0.950 . S
H473 C485 0.950 . S
H474 C482 0.950 . S
H475 C484 0.950 . S
H476 C486 0.950 . S
H477 C488 0.950 . S
H478 C490 0.950 . S
H479 C491 0.950 . S
C480 H472 0.950 . S
C480 C481 1.386 . S
C480 C482 1.391 . S
C481 C480 1.386 . S
C481 C485 1.393 . S
C482 H474 0.950 . S
C482 C480 1.391 . S
C482 C483 1.400 . S
C483 C482 1.400 . S
C483 C484 1.398 . S
C483 C489 1.491 . S
C484 H475 0.950 . S
C484 C483 1.398 . S
C484 C485 1.391 . S
C485 H473 0.950 . S
C485 C481 1.393 . S
C485 C484 1.391 . S
C486 H476 0.950 . S
C486 C487 1.386 . S
C486 C488 1.391 . S
C487 C486 1.386 . S
C487 C491 1.393 . S
C488 H477 0.950 . S
C488 C486 1.391 . S
C488 C489 1.400 . S
C489 C483 1.491 . S
C489 C488 1.400 . S
C489 C490 1.398 . S
C490 H478 0.950 . S
C490 C489 1.398 . S
C490 C491 1.391 . S
C491 H479 0.950 . S
C491 C487 1.393 . S
C491 C490 1.391 . S
H492 C500 0.950 . S
H493 C505 0.950 . S
H494 C502 0.950 . S
H495 C504 0.950 . S
H496 C506 0.950 . S
H497 C508 0.950 . S
H498 C510 0.950 . S
H499 C511 0.950 . S
C500 H492 0.950 . S
C500 C501 1.386 . S
C500 C502 1.391 . S
C501 C500 1.386 . S
C501 C505 1.393 . S
C502 H494 0.950 . S
C502 C500 1.391 . S
C502 C503 1.400 . S
C503 C502 1.400 . S
C503 C504 1.398 . S
C503 C509 1.491 . S
C504 H495 0.950 . S
C504 C503 1.398 . S
C504 C505 1.391 . S
C505 H493 0.950 . S
C505 C501 1.393 . S
C505 C504 1.391 . S
C506 H496 0.950 . S
C506 C507 1.386 . S
C506 C508 1.391 . S
C507 C506 1.386 . S
C507 C511 1.393 . S
C508 H497 0.950 . S
C508 C506 1.391 . S
C508 C509 1.400 . S
C509 C503 1.491 . S
C509 C508 1.400 . S
C509 C510 1.398 . S
C510 H498 0.950 . S
C510 C509 1.398 . S
C510 C511 1.391 . S
C511 H499 0.950 . S
C511 C507 1.393 . S
C511 C510 1.391 . S
H512 C520 0.950 . S
H513 C525 0.950 . S
H514 C522 0.950 . S
H515 C524 0.950 . S
H516 C526 0.950 . S
H517 C528 0.950 . S
H518 C530 0.950 . S
H519 C531 0.950 . S
C520 H512 0.950 . S
C520 C521 1.386 . S
C520 C522 1.391 . S
C521 C520 1.386 . S
C521 C525 1.393 . S
C522 H514 0.950 . S
C522 C520 1.391 . S
C522 C523 1.400 . S
C523 C522 1.400 . S
C523 C524 1.398 . S
C523 C529 1.491 . S
C524 H515 0.950 . S
C524 C523 1.398 . S
C524 C525 1.391 . S
C525 H513 0.950 . S
C525 C521 1.393 . S
C525 C524 1.391 . S
C526 H516 0.950 . S
C526 C527 1.386 . S
C526 C528 1.391 . S
C527 C526 1.386 . S
C527 C531 1.393 . S
C528 H517 0.950 . S
C528 C526 1.391 . S
C528 C529 1.400 . S
C529 C523 1.491 . S
C529 C528 1.400 . S
C529 C530 1.398 . S
C530 H518 0.950 . S
C530 C529 1.398 . S
C530 C531 1.391 . S
C531 H519 0.950 . S
C531 C527 1.393 . S
C531 C530 1.391 . S
H532 C540 0.950 . S
H533 C545 0.950 . S
H534 C542 0.950 . S
H535 C544 0.950 . S
H536 C546 0.950 . S
H537 C548 0.950 . S
H538 C550 0.950 . S
H539 C551 0.950 . S
C540 H532 0.950 . S
C540 C541 1.386 . S
C540 C542 1.391 . S
C541 C540 1.386 . S
C541 C545 1.393 . S
C542 H534 0.950 . S
C542 C540 1.391 . S
C542 C543 1.400 . S
C543 C542 1.400 . S
C543 C544 1.398 . S
C543 C549 1.491 . S
C544 H535 0.950 . S
C544 C543 1.398 . S
C544 C545 1.391 . S
C545 H533 0.950 . S
C545 C541 1.393 . S
C545 C544 1.391 . S
C546 H536 0.950 . S
C546 C547 1.386 . S
C546 C548 1.391 . S
C547 C546 1.386 . S
C547 C551 1.393 . S
C548 H537 0.950 . S
C548 C546 1.391 . S
C548 C549 1.400 . S
C549 C543 1.491 . S
C549 C548 1.400 . S
C549 C550 1.398 . S
C550 H538 0.950 . S
C550 C549 1.398 . S
C550 C551 1.391 . S
C551 H539 0.950 . S
C551 C547 1.393 . S
C551 C550 1.391 . S
H552 C560 0.950 . S
H553 C565 0.950 . S
H554 C562 0.950 . S
H555 C564 0.950 . S
H556 C566 0.950 . S
H557 C568 0.950 . S
H558 C570 0.950 . S
H559 C571 0.950 . S
C560 H552 0.950 . S
C560 C561 1.386 . S
C560 C562 1.391 . S
C561 C560 1.386 . S
C561 C565 1.393 . S
C562 H554 0.950 . S
C562 C560 1.391 . S
C562 C563 1.400 . S
C563 C562 1.400 . S
C563 C564 1.398 . S
C563 C569 1.491 . S
C564 H555 0.950 . S
C564 C563 1.398 . S
C564 C565 1.391 . S
C565 H553 0.950 . S
C565 C561 1.393 . S
C565 C564 1.391 . S
C566 H556 0.950 . S
C566 C567 1.386 . S
C566 C568 1.391 . S
C567 C566 1.386 . S
C567 C571 1.393 . S
C568 H557 0.950 . S
C568 C566 1.391 . S
C568 C569 1.400 . S
C569 C563 1.491 . S
C569 C568 1.400 . S
C569 C570 1.398 . S
C570 H558 0.950 . S
C570 C569 1.398 . S
C570 C571 1.391 . S
C571 H559 0.950 . S
C571 C567 1.393 . S
C571 C570 1.391 . S
H572 C580 0.950 . S
H573 C585 0.950 . S
H574 C582 0.950 . S
H575 C584 0.950 . S
H576 C586 0.950 . S
H577 C588 0.950 . S
H578 C590 0.950 . S
H579 C591 0.950 . S
C580 H572 0.950 . S
C580 C581 1.386 . S
C580 C582 1.391 . S
C581 C580 1.386 . S
C581 C585 1.393 . S
C582 H574 0.950 . S
C582 C580 1.391 . S
C582 C583 1.400 . S
C583 C582 1.400 . S
C583 C584 1.398 . S
C583 C589 1.491 . S
C584 H575 0.950 . S
C584 C583 1.398 . S
C584 C585 1.391 . S
C585 H573 0.950 . S
C585 C581 1.393 . S
C585 C584 1.391 . S
C586 H576 0.950 . S
C586 C587 1.386 . S
C586 C588 1.391 . S
C587 C586 1.386 . S
C587 C591 1.393 . S
C588 H577 0.950 . S
C588 C586 1.391 . S
C588 C589 1.400 . S
C589 C583 1.491 . S
C589 C588 1.400 . S
C589 C590 1.398 . S
C590 H578 0.950 . S
C590 C589 1.398 . S
C590 C591 1.391 . S
C591 H579 0.950 . S
C591 C587 1.393 . S
C591 C590 1.391 . S
H592 C600 0.950 1_554 S
H593 C605 0.950 . S
H594 C602 0.950 . S
H595 C604 0.950 . S
H596 C606 0.950 . S
H597 C608 0.950 . S
H598 C610 0.950 . S
H599 C611 0.950 . S
C600 H592 0.950 1_556 S
C600 C601 1.387 . S
C600 C602 1.391 . S
C601 C600 1.387 . S
C601 C605 1.397 . S
C602 H594 0.950 . S
C602 C600 1.391 . S
C602 C603 1.400 . S
C603 C602 1.400 . S
C603 C604 1.398 . S
C603 C609 1.491 . S
C604 H595 0.950 . S
C604 C603 1.398 . S
C604 C605 1.391 . S
C605 H593 0.950 . S
C605 C601 1.397 . S
C605 C604 1.391 . S
C606 H596 0.950 . S
C606 C607 1.386 . S
C606 C608 1.391 . S
C607 C606 1.386 . S
C607 C611 1.393 . S
C608 H597 0.950 . S
C608 C606 1.391 . S
C608 C609 1.400 . S
C609 C603 1.491 . S
C609 C608 1.400 . S
C609 C610 1.398 . S
C610 H598 0.950 . S
C610 C609 1.398 . S
C610 C611 1.391 . S
C611 H599 0.950 . S
C611 C607 1.393 . S
C611 C610 1.391 . S
H612 C620 0.950 . S
H613 C625 0.950 . S
H614 C622 0.950 . S
H615 C624 0.950 . S
H616 C626 0.950 1_556 S
H617 C628 0.950 . S
H618 C630 0.950 . S
H619 C631 0.950 . S
C620 H612 0.950 . S
C620 C621 1.386 . S
C620 C622 1.391 . S
C621 C620 1.386 . S
C621 C625 1.393 . S
C622 H614 0.950 . S
C622 C620 1.391 . S
C622 C623 1.400 . S
C623 C622 1.400 . S
C623 C624 1.398 . S
C623 C629 1.491 . S
C624 H615 0.950 . S
C624 C623 1.398 . S
C624 C625 1.391 . S
C625 H613 0.950 . S
C625 C621 1.393 . S
C625 C624 1.391 . S
C626 H616 0.950 1_554 S
C626 C627 1.391 . S
C626 C628 1.391 . S
C627 C626 1.391 . S
C627 C631 1.412 . S
C628 H617 0.950 . S
C628 C626 1.391 . S
C628 C629 1.400 . S
C629 C623 1.491 . S
C629 C628 1.400 . S
C629 C630 1.398 . S
C630 H618 0.950 . S
C630 C629 1.398 . S
C630 C631 1.391 . S
C631 H619 0.950 . S
C631 C627 1.412 . S
C631 C630 1.391 . S
H632 C640 0.950 . S
H633 C645 0.950 . S
H634 C642 0.950 . S
H635 C644 0.950 . S
H636 C646 0.950 . S
H637 C648 0.950 . S
H638 C650 0.950 . S
H639 C651 0.950 . S
C640 H632 0.950 . S
C640 C641 1.386 . S
C640 C642 1.391 . S
C641 C640 1.386 . S
C641 C645 1.393 . S
C642 H634 0.950 . S
C642 C640 1.391 . S
C642 C643 1.400 . S
C643 C642 1.400 . S
C643 C644 1.398 . S
C643 C649 1.491 . S
C644 H635 0.950 . S
C644 C643 1.398 . S
C644 C645 1.391 . S
C645 H633 0.950 . S
C645 C641 1.393 . S
C645 C644 1.391 . S
C646 H636 0.950 . S
C646 C647 1.386 . S
C646 C648 1.391 . S
C647 C646 1.386 . S
C647 C651 1.393 . S
C648 H637 0.950 . S
C648 C646 1.391 . S
C648 C649 1.400 . S
C649 C643 1.491 . S
C649 C648 1.400 . S
C649 C650 1.398 . S
C650 H638 0.950 . S
C650 C649 1.398 . S
C650 C651 1.391 . S
C651 H639 0.950 . S
C651 C647 1.393 . S
C651 C650 1.391 . S
H652 C660 0.950 . S
H653 C665 0.950 . S
H654 C662 0.950 . S
H655 C664 0.950 . S
H656 C666 0.950 . S
H657 C668 0.950 . S
H658 C670 0.950 . S
H659 C671 0.950 . S
C660 H652 0.950 . S
C660 C661 1.386 . S
C660 C662 1.391 . S
C661 C660 1.386 . S
C661 C665 1.393 . S
C662 H654 0.950 . S
C662 C660 1.391 . S
C662 C663 1.400 . S
C663 C662 1.400 . S
C663 C664 1.398 . S
C663 C669 1.491 . S
C664 H655 0.950 . S
C664 C663 1.398 . S
C664 C665 1.391 . S
C665 H653 0.950 . S
C665 C661 1.393 . S
C665 C664 1.391 . S
C666 H656 0.950 . S
C666 C667 1.386 . S
C666 C668 1.391 . S
C667 C666 1.386 . S
C667 C671 1.393 . S
C668 H657 0.950 . S
C668 C666 1.391 . S
C668 C669 1.400 . S
C669 C663 1.491 . S
C669 C668 1.400 . S
C669 C670 1.398 . S
C670 H658 0.950 . S
C670 C669 1.398 . S
C670 C671 1.391 . S
C671 H659 0.950 . S
C671 C667 1.393 . S
C671 C670 1.391 . S
H672 C680 0.950 . S
H673 C685 0.950 . S
H674 C682 0.950 . S
H675 C684 0.950 . S
H676 C686 0.950 . S
H677 C688 0.950 . S
H678 C690 0.950 . S
H679 C691 0.950 . S
C680 H672 0.950 . S
C680 C681 1.386 . S
C680 C682 1.391 . S
C681 C680 1.386 . S
C681 C685 1.393 . S
C682 H674 0.950 . S
C682 C680 1.391 . S
C682 C683 1.400 . S
C683 C682 1.400 . S
C683 C684 1.398 . S
C683 C689 1.491 1_655 S
C684 H675 0.950 . S
C684 C683 1.398 . S
C684 C685 1.391 . S
C685 H673 0.950 . S
C685 C681 1.393 . S
C685 C684 1.391 . S
C686 H676 0.950 . S
C686 C687 1.386 . S
C686 C688 1.391 . S
C687 C686 1.386 . S
C687 C691 1.393 . S
C688 H677 0.950 . S
C688 C686 1.391 . S
C688 C689 1.400 . S
C689 C683 1.491 1_455 S
C689 C688 1.400 . S
C689 C690 1.398 . S
C690 H678 0.950 . S
C690 C689 1.398 . S
C690 C691 1.391 . S
C691 H679 0.950 . S
C691 C687 1.393 . S
C691 C690 1.391 . S
H692 C700 0.950 . S
H693 C705 0.950 . S
H694 C702 0.950 . S
H695 C704 0.950 . S
H696 C706 0.950 . S
H697 C708 0.950 . S
H698 C710 0.950 . S
H699 C711 0.950 . S
C700 H692 0.950 . S
C700 C701 1.386 . S
C700 C702 1.391 . S
C701 C700 1.386 . S
C701 C705 1.393 . S
C702 H694 0.950 . S
C702 C700 1.391 . S
C702 C703 1.400 . S
C703 C702 1.400 . S
C703 C704 1.398 . S
C703 C709 1.491 1_565 S
C704 H695 0.950 . S
C704 C703 1.398 . S
C704 C705 1.391 . S
C705 H693 0.950 . S
C705 C701 1.393 . S
C705 C704 1.391 . S
C706 H696 0.950 . S
C706 C707 1.386 . S
C706 C708 1.391 . S
C707 C706 1.386 . S
C707 C711 1.393 . S
C708 H697 0.950 . S
C708 C706 1.391 . S
C708 C709 1.400 . S
C709 C703 1.491 1_545 S
C709 C708 1.400 . S
C709 C710 1.398 . S
C710 H698 0.950 . S
C710 C709 1.398 . S
C710 C711 1.391 . S
C711 H699 0.950 . S
C711 C707 1.393 . S
C711 C710 1.391 . S
H712 C720 0.950 . S
H713 C725 0.950 . S
H714 C722 0.950 . S
H715 C724 0.950 . S
H716 C726 0.950 . S
H717 C728 0.950 . S
H718 C730 0.950 . S
H719 C731 0.950 . S
C720 H712 0.950 . S
C720 C721 1.386 . S
C720 C722 1.391 . S
C721 C720 1.386 . S
C721 C725 1.393 . S
C722 H714 0.950 . S
C722 C720 1.391 . S
C722 C723 1.400 . S
C723 C722 1.400 . S
C723 C724 1.398 . S
C723 C729 1.491 . S
C724 H715 0.950 . S
C724 C723 1.398 . S
C724 C725 1.391 . S
C725 H713 0.950 . S
C725 C721 1.393 . S
C725 C724 1.391 . S
C726 H716 0.950 . S
C726 C727 1.386 . S
C726 C728 1.391 . S
C727 C726 1.386 . S
C727 C731 1.393 . S
C728 H717 0.950 . S
C728 C726 1.391 . S
C728 C729 1.400 . S
C729 C723 1.491 . S
C729 C728 1.400 . S
C729 C730 1.398 . S
C730 H718 0.950 . S
C730 C729 1.398 . S
C730 C731 1.391 . S
C731 H719 0.950 . S
C731 C727 1.393 . S
C731 C730 1.391 . S
H732 C740 0.950 . S
H733 C745 0.950 . S
H734 C742 0.950 . S
H735 C744 0.950 . S
H736 C746 0.950 . S
H737 C748 0.950 . S
H738 C750 0.950 . S
H739 C751 0.950 . S
C740 H732 0.950 . S
C740 C741 1.386 . S
C740 C742 1.391 . S
C741 C740 1.386 . S
C741 C745 1.393 . S
C742 H734 0.950 . S
C742 C740 1.391 . S
C742 C743 1.400 . S
C743 C742 1.400 . S
C743 C744 1.398 . S
C743 C749 1.491 1_455 S
C744 H735 0.950 . S
C744 C743 1.398 . S
C744 C745 1.391 . S
C745 H733 0.950 . S
C745 C741 1.393 . S
C745 C744 1.391 . S
C746 H736 0.950 . S
C746 C747 1.386 . S
C746 C748 1.391 . S
C747 C746 1.386 . S
C747 C751 1.393 . S
C748 H737 0.950 . S
C748 C746 1.391 . S
C748 C749 1.400 . S
C749 C743 1.491 1_655 S
C749 C748 1.400 . S
C749 C750 1.398 . S
C750 H738 0.950 . S
C750 C749 1.398 . S
C750 C751 1.391 . S
C751 H739 0.950 . S
C751 C747 1.393 . S
C751 C750 1.391 . S
H752 C760 0.950 . S
H753 C765 0.950 . S
H754 C762 0.950 . S
H755 C764 0.948 1_554 S
H756 C766 0.950 . S
H757 C768 0.950 . S
H758 C770 0.948 1_556 S
H759 C771 0.950 . S
C760 H752 0.950 . S
C760 C761 1.386 . S
C760 C762 1.391 . S
C761 C760 1.386 . S
C761 C765 1.393 . S
C762 H754 0.950 . S
C762 C760 1.391 . S
C762 C763 1.400 . S
C763 C762 1.400 . S
C763 C764 1.398 . S
C763 C769 1.491 1_546 S
C764 H755 0.948 1_556 S
C764 C763 1.398 . S
C764 C765 1.391 . S
C765 H753 0.950 . S
C765 C761 1.393 . S
C765 C764 1.391 . S
C766 H756 0.950 . S
C766 C767 1.386 . S
C766 C768 1.391 . S
C767 C766 1.386 . S
C767 C771 1.393 . S
C768 H757 0.950 . S
C768 C766 1.391 . S
C768 C769 1.400 . S
C769 C763 1.491 1_564 S
C769 C768 1.400 . S
C769 C770 1.398 . S
C770 H758 0.948 1_554 S
C770 C769 1.398 . S
C770 C771 1.391 . S
C771 H759 0.950 . S
C771 C767 1.393 . S
C771 C770 1.391 . S
H772 C780 0.950 . S
H773 C785 0.950 . S
H774 C782 0.950 . S
H775 C784 0.950 . S
H776 C786 0.950 . S
H777 C788 0.950 . S
H778 C790 0.950 . S
H779 C791 0.950 . S
C780 H772 0.950 . S
C780 C781 1.386 . S
C780 C782 1.391 . S
C781 C780 1.386 . S
C781 C785 1.393 . S
C782 H774 0.950 . S
C782 C780 1.391 . S
C782 C783 1.400 . S
C783 C782 1.400 . S
C783 C784 1.398 . S
C783 C789 1.491 . S
C784 H775 0.950 . S
C784 C783 1.398 . S
C784 C785 1.391 . S
C785 H773 0.950 . S
C785 C781 1.393 . S
C785 C784 1.391 . S
C786 H776 0.950 . S
C786 C787 1.386 . S
C786 C788 1.391 . S
C787 C786 1.386 . S
C787 C791 1.393 . S
C788 H777 0.950 . S
C788 C786 1.391 . S
C788 C789 1.400 . S
C789 C783 1.491 . S
C789 C788 1.400 . S
C789 C790 1.398 . S
C790 H778 0.950 . S
C790 C789 1.398 . S
C790 C791 1.391 . S
C791 H779 0.950 . S
C791 C787 1.393 . S
C791 C790 1.391 . S
H792 C800 0.950 . S
H793 C805 0.950 . S
H794 C802 0.950 . S
H795 C804 0.950 . S
H796 C806 0.950 . S
H797 C808 0.950 . S
H798 C810 0.950 . S
H799 C811 0.950 . S
C800 H792 0.950 . S
C800 C801 1.386 . S
C800 C802 1.391 . S
C801 C800 1.386 . S
C801 C805 1.393 . S
C802 H794 0.950 . S
C802 C800 1.391 . S
C802 C803 1.400 . S
C803 C802 1.400 . S
C803 C804 1.398 . S
C803 C809 1.491 . S
C804 H795 0.950 . S
C804 C803 1.398 . S
C804 C805 1.391 . S
C805 H793 0.950 . S
C805 C801 1.393 . S
C805 C804 1.391 . S
C806 H796 0.950 . S
C806 C807 1.386 . S
C806 C808 1.391 . S
C807 C806 1.386 . S
C807 C811 1.393 . S
C808 H797 0.950 . S
C808 C806 1.391 . S
C808 C809 1.400 . S
C809 C803 1.491 . S
C809 C808 1.400 . S
C809 C810 1.398 . S
C810 H798 0.950 . S
C810 C809 1.398 . S
C810 C811 1.391 . S
C811 H799 0.950 . S
C811 C807 1.393 . S
C811 C810 1.391 . S
H812 C820 0.950 . S
H813 C825 0.950 . S
H814 C822 0.950 . S
H815 C824 0.950 . S
H816 C826 0.950 . S
H817 C828 0.950 . S
H818 C830 0.950 . S
H819 C831 0.950 . S
C820 H812 0.950 . S
C820 C821 1.386 . S
C820 C822 1.391 . S
C821 C820 1.386 . S
C821 C825 1.393 . S
C822 H814 0.950 . S
C822 C820 1.391 . S
C822 C823 1.400 . S
C823 C822 1.400 . S
C823 C824 1.398 . S
C823 C829 1.491 . S
C824 H815 0.950 . S
C824 C823 1.398 . S
C824 C825 1.391 . S
C825 H813 0.950 . S
C825 C821 1.393 . S
C825 C824 1.391 . S
C826 H816 0.950 . S
C826 C827 1.386 . S
C826 C828 1.391 . S
C827 C826 1.386 . S
C827 C831 1.393 . S
C828 H817 0.950 . S
C828 C826 1.391 . S
C828 C829 1.400 . S
C829 C823 1.491 . S
C829 C828 1.400 . S
C829 C830 1.398 . S
C830 H818 0.950 . S
C830 C829 1.398 . S
C830 C831 1.391 . S
C831 H819 0.950 . S
C831 C827 1.393 . S
C831 C830 1.391 . S
H832 C840 0.950 . S
H833 C845 0.950 . S
H834 C842 0.950 . S
H835 C844 0.950 . S
H836 C846 0.950 . S
H837 C848 0.950 . S
H838 C850 0.950 . S
H839 C851 0.950 . S
C840 H832 0.950 . S
C840 C841 1.386 . S
C840 C842 1.391 . S
C841 C840 1.386 . S
C841 C845 1.393 . S
C842 H834 0.950 . S
C842 C840 1.391 . S
C842 C843 1.400 . S
C843 C842 1.400 . S
C843 C844 1.398 . S
C843 C849 1.491 . S
C844 H835 0.950 . S
C844 C843 1.398 . S
C844 C845 1.391 . S
C845 H833 0.950 . S
C845 C841 1.393 . S
C845 C844 1.391 . S
C846 H836 0.950 . S
C846 C847 1.386 . S
C846 C848 1.391 . S
C847 C846 1.386 . S
C847 C851 1.393 . S
C848 H837 0.950 . S
C848 C846 1.391 . S
C848 C849 1.400 . S
C849 C843 1.491 . S
C849 C848 1.400 . S
C849 C850 1.398 . S
C850 H838 0.950 . S
C850 C849 1.398 . S
C850 C851 1.391 . S
C851 H839 0.950 . S
C851 C847 1.393 . S
C851 C850 1.391 . S
H852 C860 0.950 . S
H853 C865 0.950 . S
H854 C862 0.950 . S
H855 C864 0.950 . S
H856 C866 0.950 . S
H857 C868 0.950 . S
H858 C870 0.950 . S
H859 C871 0.950 . S
C860 H852 0.950 . S
C860 C861 1.386 . S
C860 C862 1.391 . S
C861 C860 1.386 . S
C861 C865 1.393 . S
C862 H854 0.950 . S
C862 C860 1.391 . S
C862 C863 1.400 . S
C863 C862 1.400 . S
C863 C864 1.398 . S
C863 C869 1.491 . S
C864 H855 0.950 . S
C864 C863 1.398 . S
C864 C865 1.391 . S
C865 H853 0.950 . S
C865 C861 1.393 . S
C865 C864 1.391 . S
C866 H856 0.950 . S
C866 C867 1.386 . S
C866 C868 1.391 . S
C867 C866 1.386 . S
C867 C871 1.393 . S
C868 H857 0.950 . S
C868 C866 1.391 . S
C868 C869 1.400 . S
C869 C863 1.491 . S
C869 C868 1.400 . S
C869 C870 1.398 . S
C870 H858 0.950 . S
C870 C869 1.398 . S
C870 C871 1.391 . S
C871 H859 0.950 . S
C871 C867 1.393 . S
C871 C870 1.391 . S
H872 C880 0.950 . S
H873 C885 0.950 . S
H874 C882 0.950 . S
H875 C884 0.950 . S
H876 C886 0.950 . S
H877 C888 0.950 . S
H878 C890 0.950 . S
H879 C891 0.950 . S
C880 H872 0.950 . S
C880 C881 1.386 . S
C880 C882 1.391 . S
C881 C880 1.386 . S
C881 C885 1.393 . S
C882 H874 0.950 . S
C882 C880 1.391 . S
C882 C883 1.400 . S
C883 C882 1.400 . S
C883 C884 1.398 . S
C883 C889 1.491 . S
C884 H875 0.950 . S
C884 C883 1.398 . S
C884 C885 1.391 . S
C885 H873 0.950 . S
C885 C881 1.393 . S
C885 C884 1.391 . S
C886 H876 0.950 . S
C886 C887 1.386 . S
C886 C888 1.391 . S
C887 C886 1.386 . S
C887 C891 1.393 . S
C888 H877 0.950 . S
C888 C886 1.391 . S
C888 C889 1.400 . S
C889 C883 1.491 . S
C889 C888 1.400 . S
C889 C890 1.398 . S
C890 H878 0.950 . S
C890 C889 1.398 . S
C890 C891 1.391 . S
C891 H879 0.950 . S
C891 C887 1.393 . S
C891 C890 1.391 . S
H892 C900 0.950 . S
H893 C905 0.950 . S
H894 C902 0.950 . S
H895 C904 0.950 . S
H896 C906 0.950 1_556 S
H897 C908 0.950 . S
H898 C910 0.950 . S
H899 C911 0.950 . S
C900 H892 0.950 . S
C900 C901 1.386 . S
C900 C902 1.391 . S
C901 C900 1.386 . S
C901 C905 1.393 . S
C902 H894 0.950 . S
C902 C900 1.391 . S
C902 C903 1.400 . S
C903 C902 1.400 . S
C903 C904 1.398 . S
C903 C909 1.491 . S
C904 H895 0.950 . S
C904 C903 1.398 . S
C904 C905 1.391 . S
C905 H893 0.950 . S
C905 C901 1.393 . S
C905 C904 1.391 . S
C906 H896 0.950 1_554 S
C906 C907 1.386 . S
C906 C908 1.391 . S
C907 C906 1.386 . S
C907 C911 1.393 . S
C908 H897 0.950 . S
C908 C906 1.391 . S
C908 C909 1.400 . S
C909 C903 1.491 . S
C909 C908 1.400 . S
C909 C910 1.398 . S
C910 H898 0.950 . S
C910 C909 1.398 . S
C910 C911 1.391 . S
C911 H899 0.950 . S
C911 C907 1.393 . S
C911 C910 1.391 . S
C441 C2 0.626 . S
C447 C218 0.616 . S
C461 C38 0.637 . S
C467 C254 0.592 . S
C481 C290 0.572 . S
C487 C74 0.629 . S
C501 C110 0.635 . S
C507 C326 0.578 . S
C521 C146 0.628 . S
C527 C362 0.613 . S
C541 C398 0.631 . S
C547 C182 0.573 . S
C561 C292 1.381 . S
C567 C4 1.374 . S
C581 C40 1.361 . S
C587 C328 1.369 . S
C601 C364 1.360 1_556 S
C607 C76 1.358 . S
C621 C400 1.384 . S
C627 C112 1.353 1_554 S
C641 C148 1.362 . S
C647 C220 1.355 . S
C661 C184 1.374 . S
C667 C256 1.366 . S
C681 C410 1.200 . S
C687 C14 1.193 . S
C701 C230 1.194 . S
C707 C50 1.205 . S
C721 C86 1.199 . S
C727 C266 1.211 . S
C741 C302 1.210 . S
C747 C122 1.198 . S
C761 C338 1.218 . S
C767 C158 1.217 . S
C781 C374 1.194 . S
C787 C194 1.205 . S
C801 C3 1.590 . S
C807 C363 1.581 . S
C821 C399 1.583 . S
C827 C39 1.588 . S
C841 C75 1.591 . S
C847 C219 1.583 . S
C861 C111 1.589 . S
C867 C255 1.586 . S
C881 C147 1.583 1_556 S
C887 C291 1.587 . S
C901 C183 1.591 . S
C907 C327 1.580 1_554 S
