# Generated by pormake.
# Topology snl, (6)-cn, num edge types: 1
# Building blocks:
#     Node 0, Type 0, BuildingBlock: KUMBOL_clean_sbu_1, # of connection points: 6
#     Node 1, Type 0, BuildingBlock: KUMBOL_clean_sbu_1, # of connection points: 6
#     Node 2, Type 0, BuildingBlock: KUMBOL_clean_sbu_1, # of connection points: 6
#     Node 3, Type 0, BuildingBlock: KUMBOL_clean_sbu_1, # of connection points: 6
#     Node 4, Type 0, BuildingBlock: KUMBOL_clean_sbu_1, # of connection points: 6
#     Node 5, Type 0, BuildingBlock: KUMBOL_clean_sbu_1, # of connection points: 6
#     Node 6, Type 0, BuildingBlock: KUMBOL_clean_sbu_1, # of connection points: 6
#     Node 7, Type 0, BuildingBlock: KUMBOL_clean_sbu_1, # of connection points: 6
#     Node 8, Type 0, BuildingBlock: KUMBOL_clean_sbu_1, # of connection points: 6
#     Node 9, Type 0, BuildingBlock: KUMBOL_clean_sbu_1, # of connection points: 6
#     Node 10, Type 0, BuildingBlock: KUMBOL_clean_sbu_1, # of connection points: 6
#     Node 11, Type 0, BuildingBlock: KUMBOL_clean_sbu_1, # of connection points: 6
#     Node 12, Type 0, BuildingBlock: KUMBOL_clean_sbu_1, # of connection points: 6
#     Node 13, Type 0, BuildingBlock: KUMBOL_clean_sbu_1, # of connection points: 6
#     Node 14, Type 0, BuildingBlock: KUMBOL_clean_sbu_1, # of connection points: 6
#     Node 15, Type 0, BuildingBlock: KUMBOL_clean_sbu_1, # of connection points: 6
#     Edge 16, Type (0, 0), BuildingBlock: AJUNOK_clean_linker_0, # of connection points: 2
#     Edge 17, Type (0, 0), BuildingBlock: AJUNOK_clean_linker_0, # of connection points: 2
#     Edge 18, Type (0, 0), BuildingBlock: AJUNOK_clean_linker_0, # of connection points: 2
#     Edge 19, Type (0, 0), BuildingBlock: AJUNOK_clean_linker_0, # of connection points: 2
#     Edge 20, Type (0, 0), BuildingBlock: AJUNOK_clean_linker_0, # of connection points: 2
#     Edge 21, Type (0, 0), BuildingBlock: AJUNOK_clean_linker_0, # of connection points: 2
#     Edge 22, Type (0, 0), BuildingBlock: AJUNOK_clean_linker_0, # of connection points: 2
#     Edge 23, Type (0, 0), BuildingBlock: AJUNOK_clean_linker_0, # of connection points: 2
#     Edge 24, Type (0, 0), BuildingBlock: AJUNOK_clean_linker_0, # of connection points: 2
#     Edge 25, Type (0, 0), BuildingBlock: AJUNOK_clean_linker_0, # of connection points: 2
#     Edge 26, Type (0, 0), BuildingBlock: AJUNOK_clean_linker_0, # of connection points: 2
#     Edge 27, Type (0, 0), BuildingBlock: AJUNOK_clean_linker_0, # of connection points: 2
#     Edge 28, Type (0, 0), BuildingBlock: AJUNOK_clean_linker_0, # of connection points: 2
#     Edge 29, Type (0, 0), BuildingBlock: AJUNOK_clean_linker_0, # of connection points: 2
#     Edge 30, Type (0, 0), BuildingBlock: AJUNOK_clean_linker_0, # of connection points: 2
#     Edge 31, Type (0, 0), BuildingBlock: AJUNOK_clean_linker_0, # of connection points: 2
#     Edge 32, Type (0, 0), BuildingBlock: AJUNOK_clean_linker_0, # of connection points: 2
#     Edge 33, Type (0, 0), BuildingBlock: AJUNOK_clean_linker_0, # of connection points: 2
#     Edge 34, Type (0, 0), BuildingBlock: AJUNOK_clean_linker_0, # of connection points: 2
#     Edge 35, Type (0, 0), BuildingBlock: AJUNOK_clean_linker_0, # of connection points: 2
#     Edge 36, Type (0, 0), BuildingBlock: AJUNOK_clean_linker_0, # of connection points: 2
#     Edge 37, Type (0, 0), BuildingBlock: AJUNOK_clean_linker_0, # of connection points: 2
#     Edge 38, Type (0, 0), BuildingBlock: AJUNOK_clean_linker_0, # of connection points: 2
#     Edge 39, Type (0, 0), BuildingBlock: AJUNOK_clean_linker_0, # of connection points: 2
#     Edge 40, Type (0, 0), BuildingBlock: AJUNOK_clean_linker_0, # of connection points: 2
#     Edge 41, Type (0, 0), BuildingBlock: AJUNOK_clean_linker_0, # of connection points: 2
#     Edge 42, Type (0, 0), BuildingBlock: AJUNOK_clean_linker_0, # of connection points: 2
#     Edge 43, Type (0, 0), BuildingBlock: AJUNOK_clean_linker_0, # of connection points: 2
#     Edge 44, Type (0, 0), BuildingBlock: AJUNOK_clean_linker_0, # of connection points: 2
#     Edge 45, Type (0, 0), BuildingBlock: AJUNOK_clean_linker_0, # of connection points: 2
#     Edge 46, Type (0, 0), BuildingBlock: AJUNOK_clean_linker_0, # of connection points: 2
#     Edge 47, Type (0, 0), BuildingBlock: AJUNOK_clean_linker_0, # of connection points: 2
#     Edge 48, Type (0, 0), BuildingBlock: AJUNOK_clean_linker_0, # of connection points: 2
#     Edge 49, Type (0, 0), BuildingBlock: AJUNOK_clean_linker_0, # of connection points: 2
#     Edge 50, Type (0, 0), BuildingBlock: AJUNOK_clean_linker_0, # of connection points: 2
#     Edge 51, Type (0, 0), BuildingBlock: AJUNOK_clean_linker_0, # of connection points: 2
#     Edge 52, Type (0, 0), BuildingBlock: AJUNOK_clean_linker_0, # of connection points: 2
#     Edge 53, Type (0, 0), BuildingBlock: AJUNOK_clean_linker_0, # of connection points: 2
#     Edge 54, Type (0, 0), BuildingBlock: AJUNOK_clean_linker_0, # of connection points: 2
#     Edge 55, Type (0, 0), BuildingBlock: AJUNOK_clean_linker_0, # of connection points: 2
#     Edge 56, Type (0, 0), BuildingBlock: AJUNOK_clean_linker_0, # of connection points: 2
#     Edge 57, Type (0, 0), BuildingBlock: AJUNOK_clean_linker_0, # of connection points: 2
#     Edge 58, Type (0, 0), BuildingBlock: AJUNOK_clean_linker_0, # of connection points: 2
#     Edge 59, Type (0, 0), BuildingBlock: AJUNOK_clean_linker_0, # of connection points: 2
#     Edge 60, Type (0, 0), BuildingBlock: AJUNOK_clean_linker_0, # of connection points: 2
#     Edge 61, Type (0, 0), BuildingBlock: AJUNOK_clean_linker_0, # of connection points: 2
#     Edge 62, Type (0, 0), BuildingBlock: AJUNOK_clean_linker_0, # of connection points: 2
#     Edge 63, Type (0, 0), BuildingBlock: AJUNOK_clean_linker_0, # of connection points: 2
# Relax obj value: 0.157
# Max RMSD: 0.239
# Mean RMSD: 0.236
data_MOF--net-snl--node1-KUMBOL_clean_sbu_1--edge1-AJUNOK_clean_linker_0
_symmetry_space_group_name_H-M    P1
_symmetry_Int_Tables_number       1
_symmetry_cell_setting            triclinic
loop_
_symmetry_equiv_pos_as_xyz
'x, y, z'
_cell_length_a     41.966308
_cell_length_b     41.95661
_cell_length_c     20.810875
_cell_angle_alpha  90.387462
_cell_angle_beta   90.46866
_cell_angle_gamma 89.842023
loop_
_atom_site_label
_atom_site_type_symbol
_atom_site_fract_x
_atom_site_fract_y
_atom_site_fract_z
_atom_type_partial_charge
C0 C 0.10189 0.54224 0.20545 0.0
C1 C 0.14816 0.5077 0.21582 0.0
C2 C 0.13475 0.53862 0.21347 0.0
C3 C 0.12834 0.48084 0.21161 0.0
C4 C 0.0821 0.51523 0.19921 0.0
C5 C 0.09543 0.48459 0.20328 0.0
N6 N 0.08958 0.57217 0.19958 0.0
C7 C 0.05781 0.57671 0.18907 0.0
C8 C 0.04956 0.51978 0.18688 0.0
C9 C 0.03752 0.55065 0.18055 0.0
Gd10 Gd 0.15527 0.64966 0.05304 0.0
Gd11 Gd 0.12537 0.6142 0.21621 0.0
N12 N 0.15362 0.56513 0.21566 0.0
C13 C 0.18123 0.50457 0.22129 0.0
C14 C 0.18591 0.56191 0.22132 0.0
C15 C 0.20013 0.53178 0.22391 0.0
H16 H 0.20117 0.58212 0.22425 0.0
H17 H 0.22577 0.52958 0.22819 0.0
H18 H 0.08601 0.68715 0.02188 0.0
H19 H 0.04791 0.6004 0.18901 0.0
H20 H 0.06502 0.73841 0.99663 0.0
H21 H 0.1924 0.48126 0.22314 0.0
H22 H 0.13831 0.45702 0.21368 0.0
H23 H 0.23273 0.64145 0.03213 0.0
H24 H 0.03364 0.49966 0.18122 0.0
H25 H 0.01241 0.55443 0.17087 0.0
H26 H 0.19296 0.8093 0.89503 0.0
H27 H 0.08057 0.46359 0.19885 0.0
H28 H 0.27561 0.72331 0.94843 0.0
H29 H 0.27872 0.66949 0.99132 0.0
N30 N 0.20032 0.67986 0.02343 0.0
C31 C 0.19466 0.71002 1.00248 0.0
C32 C 0.22969 0.66607 0.01822 0.0
C33 C 0.25445 0.71281 0.96874 0.0
C34 C 0.25615 0.68201 0.9933 0.0
C35 C 0.22587 0.7295 0.96766 0.0
H36 H 0.24714 0.77431 0.90936 0.0
N37 N 0.13471 0.70038 0.02562 0.0
C38 C 0.15642 0.72205 1.00662 0.0
C39 C 0.10964 0.76118 0.98174 0.0
C40 C 0.14349 0.75743 0.9749 0.0
C41 C 0.103 0.70576 1.01511 0.0
C42 C 0.09067 0.73546 0.99816 0.0
O43 O 0.12252 0.58612 0.11943 0.0
O44 O 0.16946 0.59895 0.07539 0.0
O45 O 0.13121 0.62325 0.97558 0.0
O46 O 0.17209 0.65235 0.95508 0.0
O47 O 0.17453 0.63411 0.22909 0.0
O48 O 0.19713 0.6421 0.12854 0.0
O49 O 0.14024 0.68913 0.11922 0.0
O50 O 0.12903 0.66985 0.22131 0.0
O51 O 0.13792 0.60405 0.31583 0.0
O52 O 0.08925 0.61484 0.28994 0.0
O53 O 0.10123 0.6374 0.06474 0.0
O54 O 0.08811 0.64523 0.17091 0.0
C55 C 0.14611 0.57845 0.08042 0.0
C56 C 0.19928 0.6403 0.19305 0.0
C57 C 0.16012 0.61233 0.87937 0.0
C58 C 0.15827 0.59898 0.76503 0.0
C59 C 0.19374 0.57015 0.83702 0.0
C60 C 0.18396 0.58937 0.88846 0.0
C61 C 0.18091 0.57483 0.77549 0.0
C62 C 0.14759 0.61726 0.81751 0.0
C63 C 0.15026 0.63389 0.93149 0.0
C64 C 0.19123 0.78683 0.9212 0.0
C65 C 0.22538 0.76519 0.92969 0.0
H66 H 0.09635 0.78251 0.97042 0.0
C67 C 0.13351 0.69366 0.18 0.0
C68 C 0.07997 0.64406 0.11011 0.0
C69 C 0.10655 0.62991 0.3943 0.0
C70 C 0.1142 0.63717 0.51024 0.0
C71 C 0.08934 0.67892 0.44604 0.0
C72 C 0.09277 0.66039 0.39066 0.0
C73 C 0.09979 0.66742 0.50539 0.0
C74 C 0.11754 0.61855 0.45401 0.0
C75 C 0.10928 0.6095 0.33663 0.0
H76 H 0.21198 0.55223 0.84448 0.0
H77 H 0.19548 0.58698 0.93478 0.0
H78 H 0.18961 0.56055 0.73573 0.0
H79 H 0.13017 0.63603 0.80978 0.0
H80 H 0.07846 0.70229 0.44301 0.0
H81 H 0.08451 0.66983 0.34514 0.0
H82 H 0.09648 0.68222 0.54766 0.0
H83 H 0.12906 0.59544 0.45629 0.0
C84 C 0.73191 0.88087 0.48912 0.0
C85 C 0.75118 0.93357 0.5168 0.0
C86 C 0.72574 0.91218 0.50719 0.0
C87 C 0.78227 0.92401 0.50151 0.0
C88 C 0.7633 0.87079 0.47634 0.0
C89 C 0.78832 0.89278 0.48079 0.0
N90 N 0.70691 0.86053 0.48145 0.0
C91 C 0.71203 0.82892 0.46833 0.0
C92 C 0.76852 0.83906 0.45836 0.0
C93 C 0.74287 0.81801 0.45483 0.0
Gd94 Gd 0.62542 0.90816 0.31883 0.0
Gd95 Gd 0.65563 0.8832 0.4919 0.0
N96 N 0.69515 0.92118 0.51895 0.0
C97 C 0.74478 0.96356 0.54357 0.0
C98 C 0.68943 0.94879 0.55226 0.0
C99 C 0.71391 0.97075 0.56347 0.0
H100 H 0.66608 0.95384 0.57125 0.0
H101 H 0.70898 0.99304 0.58796 0.0
H102 H 0.63048 0.84843 0.21392 0.0
H103 H 0.69207 0.81276 0.46423 0.0
H104 H 0.60462 0.82889 0.1178 0.0
H105 H 0.76374 0.98059 0.55213 0.0
H106 H 0.8018 0.94042 0.50691 0.0
H107 H 0.58099 0.95943 0.40969 0.0
H108 H 0.79225 0.83054 0.4472 0.0
H109 H 0.747 0.79368 0.43999 0.0
H110 H 0.49654 0.90851 0.13983 0.0
H111 H 0.81249 0.88567 0.4697 0.0
H112 H 0.48959 0.97512 0.33486 0.0
H113 H 0.5299 0.9841 0.41149 0.0
N114 N 0.57351 0.93057 0.32767 0.0
C115 C 0.55267 0.92133 0.28114 0.0
C116 C 0.56487 0.95273 0.37223 0.0
C117 C 0.51121 0.96159 0.3273 0.0
C118 C 0.53483 0.96716 0.37332 0.0
C119 C 0.51655 0.94029 0.27411 0.0
H120 H 0.46181 0.9322 0.14656 0.0
N121 N 0.59471 0.88186 0.23966 0.0
C122 C 0.5659 0.89502 0.22613 0.0
C123 C 0.56423 0.85977 0.12228 0.0
C124 C 0.54781 0.883 0.1563 0.0
C125 C 0.60734 0.85821 0.20222 0.0
C126 C 0.59276 0.84725 0.14559 0.0
O127 O 0.68655 0.87608 0.40037 0.0
O128 O 0.6753 0.92159 0.35017 0.0
O129 O 0.65428 0.90387 0.23203 0.0
O130 O 0.6199 0.94338 0.24277 0.0
O131 O 0.63158 0.93184 0.48735 0.0
O132 O 0.63845 0.95161 0.38518 0.0
O133 O 0.58919 0.88094 0.37789 0.0
O134 O 0.60192 0.89577 0.48192 0.0
O135 O 0.66486 0.88726 0.59493 0.0
O136 O 0.64205 0.84535 0.55764 0.0
O137 O 0.64004 0.85425 0.32888 0.0
O138 O 0.63483 0.84119 0.4371 0.0
C139 C 0.69577 0.89892 0.36171 0.0
C140 C 0.63683 0.95602 0.44866 0.0
C141 C 0.64888 0.94044 0.14168 0.0
C142 C 0.64947 0.93538 0.02415 0.0
C143 C 0.67108 0.98263 0.07666 0.0
C144 C 0.66326 0.97043 0.13676 0.0
C145 C 0.66421 0.96529 0.02073 0.0
C146 C 0.642 0.92282 0.08506 0.0
C147 C 0.64026 0.92851 0.20591 0.0
C148 C 0.51228 0.89398 0.12495 0.0
C149 C 0.4877 0.92242 0.16566 0.0
H150 H 0.55443 0.85052 0.07763 0.0
C151 C 0.58091 0.88566 0.43824 0.0
C152 C 0.63663 0.83282 0.37581 0.0
C153 C 0.62744 0.86296 0.66348 0.0
C154 C 0.61499 0.87816 0.77532 0.0
C155 C 0.57515 0.85205 0.7074 0.0
C156 C 0.59637 0.85102 0.65621 0.0
C157 C 0.58436 0.86521 0.76643 0.0
C158 C 0.63664 0.87653 0.72347 0.0
C159 C 0.65036 0.86112 0.60922 0.0
H160 H 0.6823 1.00576 0.07337 0.0
H161 H 0.66859 0.98436 0.17954 0.0
H162 H 0.66992 0.97547 0.97452 0.0
H163 H 0.63025 0.89994 0.0882 0.0
H164 H 0.55138 0.84245 0.70138 0.0
H165 H 0.58842 0.84068 0.61104 0.0
H166 H 0.56745 0.865 0.80545 0.0
H167 H 0.66044 0.88614 0.72945 0.0
C168 C 0.42587 0.4764 0.74351 0.0
C169 C 0.38325 0.51565 0.73787 0.0
C170 C 0.39358 0.48361 0.73772 0.0
C171 C 0.40567 0.54023 0.74482 0.0
C172 C 0.44831 0.50105 0.75219 0.0
C173 C 0.43805 0.53295 0.75272 0.0
N174 N 0.43538 0.44539 0.73966 0.0
C175 C 0.4667 0.43733 0.7473 0.0
C176 C 0.48045 0.49292 0.75994 0.0
C177 C 0.48963 0.46092 0.75793 0.0
Gd178 Gd 0.36551 0.38069 0.55554 0.0
Gd179 Gd 0.39481 0.40768 0.72416 0.0
N180 N 0.37244 0.45931 0.72924 0.0
C181 C 0.35067 0.52202 0.73068 0.0
C182 C 0.34054 0.46543 0.72711 0.0
C183 C 0.32918 0.49678 0.7266 0.0
H184 H 0.32378 0.44637 0.72585 0.0
H185 H 0.30385 0.50143 0.72318 0.0
H186 H 0.42559 0.32861 0.55127 0.0
H187 H 0.47401 0.41262 0.74607 0.0
H188 H 0.4355 0.2734 0.51346 0.0
H189 H 0.3418 0.54629 0.72932 0.0
H190 H 0.3982 0.56497 0.74471 0.0
H191 H 0.28775 0.39602 0.52868 0.0
H192 H 0.49827 0.51116 0.76802 0.0
H193 H 0.51434 0.45436 0.76477 0.0
H194 H 0.33391 0.23971 0.42997 0.0
H195 H 0.455 0.55218 0.75882 0.0
H196 H 0.24553 0.3117 0.44922 0.0
H197 H 0.24035 0.36702 0.48968 0.0
N198 N 0.31859 0.35585 0.52006 0.0
C199 C 0.32199 0.32535 0.49859 0.0
C200 C 0.28999 0.37123 0.51489 0.0
C201 C 0.26622 0.32383 0.46891 0.0
C202 C 0.26321 0.35513 0.49129 0.0
C203 C 0.29598 0.30873 0.47125 0.0
H204 H 0.28091 0.26481 0.42487 0.0
N205 N 0.3765 0.32766 0.52825 0.0
C206 C 0.35181 0.31093 0.50232 0.0
C207 C 0.38688 0.2662 0.4826 0.0
C208 C 0.35645 0.27983 0.47801 0.0
C209 C 0.40629 0.31481 0.53161 0.0
C210 C 0.41187 0.28369 0.50992 0.0
O211 O 0.3998 0.44257 0.63717 0.0
O212 O 0.35397 0.43062 0.58717 0.0
O213 O 0.35685 0.41669 0.48379 0.0
O214 O 0.37784 0.37248 0.45426 0.0
O215 O 0.3443 0.38733 0.72341 0.0
O216 O 0.32326 0.39398 0.6215 0.0
O217 O 0.36272 0.34101 0.62968 0.0
O218 O 0.40197 0.35388 0.70352 0.0
O219 O 0.37175 0.4095 0.81715 0.0
O220 O 0.422 0.3992 0.8119 0.0
O221 O 0.42049 0.38974 0.56753 0.0
O222 O 0.43511 0.38248 0.67394 0.0
C223 C 0.37722 0.45077 0.59562 0.0
C224 C 0.31961 0.38965 0.68416 0.0
C225 C 0.34509 0.39966 0.37786 0.0
C226 C 0.3384 0.39184 0.26201 0.0
C227 C 0.29608 0.41617 0.32435 0.0
C228 C 0.31443 0.41327 0.38015 0.0
C229 C 0.30783 0.40535 0.26568 0.0
C230 C 0.35696 0.38892 0.31842 0.0
C231 C 0.36592 0.39944 0.43555 0.0
C232 C 0.33077 0.26355 0.44928 0.0
C233 C 0.30057 0.27786 0.44638 0.0
H234 H 0.39139 0.24234 0.46473 0.0
C235 C 0.38297 0.3327 0.67529 0.0
C236 C 0.44266 0.38518 0.61301 0.0
C237 C 0.39293 0.37529 0.8954 0.0
C238 C 0.3803 0.35833 1.00435 0.0
C239 C 0.38838 0.319 0.91958 0.0
C240 C 0.39404 0.34328 0.8756 0.0
C241 C 0.38145 0.32641 0.98351 0.0
C242 C 0.38604 0.38273 0.95975 0.0
C243 C 0.39723 0.40114 0.84885 0.0
H244 H 0.2729 0.42743 0.32638 0.0
H245 H 0.30479 0.42233 0.42473 0.0
H246 H 0.29334 0.40825 0.22277 0.0
H247 H 0.38075 0.3789 0.31584 0.0
H248 H 0.38913 0.29435 0.90395 0.0
H249 H 0.39901 0.33705 0.82615 0.0
H250 H 0.37692 0.30721 0.01673 0.0
H251 H 0.38423 0.40749 0.97458 0.0
C252 C 0.92223 0.03725 0.83302 0.0
C253 C 0.87616 1.00471 0.80653 0.0
C254 C 0.89009 0.03503 0.81617 0.0
C255 C 0.89448 0.97703 0.81585 0.0
C256 C 0.94058 1.00944 0.84302 0.0
C257 C 0.92651 0.97938 0.8344 0.0
N258 N 0.93524 0.06666 0.84218 0.0
C259 C 0.96681 0.06987 0.85707 0.0
C260 C 0.97252 0.01266 0.86191 0.0
C261 C 0.98566 0.04301 0.86898 0.0
Gd262 Gd 0.87224 0.14237 0.98866 0.0
Gd263 Gd 0.90156 0.11035 0.82221 0.0
N264 N 0.87247 0.06229 0.80974 0.0
C265 C 0.84416 1.003 0.78781 0.0
C266 C 0.84128 0.06048 0.7906 0.0
C267 C 0.82671 0.031 0.77969 0.0
H268 H 0.82738 0.08141 0.78171 0.0
H269 H 0.80199 0.02991 0.76457 0.0
H270 H 0.92098 0.20223 0.02929 0.0
H271 H 0.97765 0.09306 0.85924 0.0
H272 H 0.91717 0.25727 0.07218 0.0
H273 H 0.8327 0.9802 0.77955 0.0
H274 H 0.88402 0.95364 0.80911 0.0
H275 H 0.8022 0.10882 1.01597 0.0
H276 H 0.98732 0.99189 0.87041 0.0
H277 H 1.01051 0.04574 0.88228 0.0
H278 H 0.80568 0.27177 0.11155 0.0
H279 H 0.94024 0.95778 0.84184 0.0
H280 H 0.73827 0.18073 0.08607 0.0
H281 H 0.74879 0.12462 0.05549 0.0
N282 N 0.8206 0.15586 0.02079 0.0
C283 C 0.81581 0.18653 0.03989 0.0
C284 C 0.79743 0.13346 0.02816 0.0
C285 C 0.76146 0.17404 0.0678 0.0
C286 C 0.76735 0.14229 0.05085 0.0
C287 C 0.78603 0.19645 0.06396 0.0
H288 H 0.75953 0.23587 0.10536 0.0
N289 N 0.87081 0.19558 0.02487 0.0
C290 C 0.84178 0.20699 0.0424 0.0
C291 C 0.86601 0.2562 0.07896 0.0
C292 C 0.83864 0.23761 0.07022 0.0
C293 C 0.89781 0.21262 0.03827 0.0
C294 C 0.89577 0.24353 0.06339 0.0
O295 O 0.90596 0.08267 0.91863 0.0
O296 O 0.85791 0.09252 0.95966 0.0
O297 O 0.89718 0.11035 0.0544 0.0
O298 O 0.86691 0.14737 0.09236 0.0
O299 O 0.85173 0.12984 0.81144 0.0
O300 O 0.83017 0.13889 0.9127 0.0
O301 O 0.89461 0.17995 0.92716 0.0
O302 O 0.88761 0.16437 0.82157 0.0
O303 O 0.89474 0.09784 0.72122 0.0
O304 O 0.93896 0.11872 0.75302 0.0
O305 O 0.92768 0.13883 0.9764 0.0
O306 O 0.94005 0.13988 0.86801 0.0
C307 C 0.88125 0.0723 0.95119 0.0
C308 C 0.82732 0.13678 0.84844 0.0
C309 C 0.87558 0.1027 0.15901 0.0
C310 C 0.87495 0.09272 0.27475 0.0
C311 C 0.85234 0.05403 0.19985 0.0
C312 C 0.85964 0.07381 0.14817 0.0
C313 C 0.86013 0.06327 0.26281 0.0
C314 C 0.88284 0.11217 0.22241 0.0
C315 C 0.88533 0.12347 0.10578 0.0
C316 C 0.80862 0.24815 0.09103 0.0
C317 C 0.78231 0.22772 0.08732 0.0
H318 H 0.86455 0.27981 0.1001 0.0
C319 C 0.89037 0.18704 0.86636 0.0
C320 C 0.9487 0.14096 0.92879 0.0
C321 C 0.92132 0.1304 0.64673 0.0
C322 C 0.90993 0.13785 0.53193 0.0
C323 C 0.93121 0.18153 0.5968 0.0
C324 C 0.93138 0.16226 0.65115 0.0
C325 C 0.92078 0.16945 0.53763 0.0
C326 C 0.91064 0.11831 0.58689 0.0
C327 C 0.92191 0.10954 0.7038 0.0
H328 H 0.84047 0.03152 0.1911 0.0
H329 H 0.85288 0.06657 0.10002 0.0
H330 H 0.85405 0.04775 0.30223 0.0
H331 H 0.89489 0.13465 0.23104 0.0
H332 H 0.93934 0.20594 0.60049 0.0
H333 H 0.93951 0.17228 0.69649 0.0
H334 H 0.92157 0.18482 0.49608 0.0
H335 H 0.90258 0.09382 0.58335 0.0
C336 C 0.23524 0.37151 0.96924 0.0
C337 C 0.26229 0.42059 0.99831 0.0
C338 C 0.23384 0.40363 0.98599 0.0
C339 C 0.29187 0.40556 0.98889 0.0
C340 C 0.26487 0.35605 0.96195 0.0
C341 C 0.2931 0.37346 0.97015 0.0
N342 N 0.20748 0.35557 0.95823 0.0
C343 C 0.20761 0.32365 0.94505 0.0
C344 C 0.26522 0.32364 0.94532 0.0
C345 C 0.23645 0.30743 0.93668 0.0
Gd346 Gd 0.12719 0.40866 0.79823 0.0
Gd347 Gd 0.16031 0.38519 0.97032 0.0
N348 N 0.20481 0.41778 0.99355 0.0
C349 C 0.26018 0.45184 0.02172 0.0
C350 C 0.20284 0.44703 0.0225 0.0
C351 C 0.23033 0.46478 0.03551 0.0
H352 H 0.18024 0.45638 0.03811 0.0
H353 H 0.22848 0.48822 0.05727 0.0
H354 H 0.13232 0.34428 0.70426 0.0
H355 H 0.18546 0.3109 0.93978 0.0
H356 H 0.10304 0.31615 0.62235 0.0
H357 H 0.28144 0.4656 0.03213 0.0
H358 H 0.31394 0.41838 0.997 0.0
H359 H 0.08928 0.47299 0.85842 0.0
H360 H 0.28752 0.31099 0.93872 0.0
H361 H 0.23649 0.28249 0.92317 0.0
H362 H 0.99345 0.39382 0.6377 0.0
H363 H 0.31598 0.3622 0.96262 0.0
H364 H 0.99315 0.47806 0.8035 0.0
H365 H 0.03765 0.49725 0.86059 0.0
N366 N 0.07657 0.43297 0.80198 0.0
C367 C 0.05433 0.41945 0.763 0.0
C368 C 0.07067 0.46112 0.83231 0.0
C369 C 0.01466 0.46417 0.79745 0.0
C370 C 0.04071 0.47573 0.8322 0.0
C371 C 0.0179 0.43753 0.75414 0.0
H372 H 0.95889 0.41795 0.64015 0.0
N373 N 0.09555 0.37677 0.72977 0.0
C374 C 0.06597 0.3884 0.71671 0.0
C375 C 0.06113 0.34484 0.62671 0.0
C376 C 0.04544 0.3702 0.65548 0.0
C377 C 0.10802 0.3517 0.69589 0.0
C378 C 0.09144 0.3358 0.64686 0.0
O379 O 0.1912 0.37807 0.87799 0.0
O380 O 0.17771 0.42191 0.82328 0.0
O381 O 0.15243 0.40261 0.70682 0.0
O382 O 0.11889 0.44197 0.72051 0.0
O383 O 0.13979 0.4351 0.9679 0.0
O384 O 0.14192 0.45255 0.86221 0.0
O385 O 0.08921 0.38884 0.86476 0.0
O386 O 0.10736 0.40115 0.96742 0.0
O387 O 0.16941 0.39128 0.07279 0.0
O388 O 0.14821 0.34781 0.038 0.0
O389 O 0.14226 0.35528 0.81424 0.0
O390 O 0.13233 0.34624 0.9213 0.0
C391 C 0.19845 0.39934 0.83384 0.0
C392 C 0.14145 0.45818 0.92559 0.0
C393 C 0.14791 0.44165 0.62133 0.0
C394 C 0.15221 0.44153 0.50392 0.0
C395 C 0.17167 0.48657 0.56686 0.0
C396 C 0.16185 0.47195 0.62355 0.0
C397 C 0.16701 0.47144 0.5074 0.0
C398 C 0.14282 0.42663 0.56124 0.0
C399 C 0.13673 0.42609 0.6804 0.0
C400 C 1.00873 0.37812 0.62617 0.0
C401 C 0.98543 0.4099 0.65898 0.0
H402 H 0.04977 0.33178 0.58781 0.0
C403 C 0.0839 0.39433 0.92629 0.0
C404 C 0.13595 0.33545 0.8624 0.0
C405 C 0.13373 0.36583 0.14345 0.0
C406 C 0.12217 0.38202 0.25499 0.0
C407 C 0.08459 0.34921 0.19393 0.0
C408 C 0.10463 0.34941 0.14082 0.0
C409 C 0.0933 0.36508 0.25056 0.0
C410 C 0.14212 0.38251 0.20043 0.0
C411 C 0.15612 0.36464 0.08848 0.0
H412 H 0.18265 0.50987 0.56899 0.0
H413 H 0.16523 0.48422 0.66906 0.0
H414 H 0.17439 0.48335 0.46397 0.0
H415 H 0.1312 0.40358 0.559 0.0
H416 H 0.06231 0.3363 0.19151 0.0
H417 H 0.09739 0.33647 0.09793 0.0
H418 H 0.07754 0.36359 0.29134 0.0
H419 H 0.16413 0.3959 0.20187 0.0
C420 C 0.78606 0.84695 0.10389 0.0
C421 C 0.74797 0.89048 0.09738 0.0
C422 C 0.77977 0.87934 0.09584 0.0
C423 C 0.7228 0.86875 0.10352 0.0
C424 C 0.76089 0.82556 0.11586 0.0
C425 C 0.72925 0.83642 0.11334 0.0
N426 N 0.81697 0.83716 0.10855 0.0
C427 C 0.82423 0.80648 0.12402 0.0
C428 C 0.76831 0.79436 0.13416 0.0
C429 C 0.80014 0.78503 0.13968 0.0
Gd430 Gd 0.89255 0.91244 0.25055 0.0
Gd431 Gd 0.85598 0.87596 0.09021 0.0
N432 N 0.80477 0.90018 0.09552 0.0
C433 C 0.74239 0.9233 0.09733 0.0
C434 C 0.79913 0.93216 0.10136 0.0
C435 C 0.76806 0.9442 0.10066 0.0
H436 H 0.81815 0.94863 0.1097 0.0
H437 H 0.76393 0.96961 0.10459 0.0
H438 H 0.93253 0.84709 0.29992 0.0
H439 H 0.84855 0.79842 0.12348 0.0
H440 H 0.98582 0.83308 0.34046 0.0
H441 H 0.71839 0.93266 0.09858 0.0
H442 H 0.6983 0.87697 0.10433 0.0
H443 H 0.89196 0.99355 0.24127 0.0
H444 H 0.74971 0.77742 0.14498 0.0
H445 H 0.80613 0.76094 0.15382 0.0
H446 H 0.04036 0.93294 0.35604 0.0
H447 H 0.70965 0.82024 0.12162 0.0
H448 H 0.98431 0.02739 0.29491 0.0
H449 H 0.92941 0.03788 0.25678 0.0
N450 N 0.92633 0.95734 0.26239 0.0
C451 C 0.95619 0.95121 0.28521 0.0
C452 C 0.91638 0.98824 0.25439 0.0
C453 C 0.96826 1.00761 0.28614 0.0
C454 C 0.93733 0.01362 0.26452 0.0
C455 C 0.97785 0.97624 0.29808 0.0
H456 H 0.02499 0.9883 0.33382 0.0
N457 N 0.94313 0.89634 0.28815 0.0
C458 C 0.96481 0.91992 0.29855 0.0
C459 C 1.00311 0.88129 0.33773 0.0
C460 C 0.99536 0.91297 0.32391 0.0
C461 C 0.95009 0.86561 0.30477 0.0
C462 C 0.98029 0.85756 0.32852 0.0
O463 O 0.82899 0.87163 0.18735 0.0
O464 O 0.84063 0.91999 0.22644 0.0
O465 O 0.88319 0.89537 0.35002 0.0
O466 O 0.87957 0.94554 0.32499 0.0
O467 O 0.86835 0.92701 0.07241 0.0
O468 O 0.88727 0.94988 0.16724 0.0
O469 O 0.93266 0.89687 0.18721 0.0
O470 O 0.91174 0.88231 0.08692 0.0
O471 O 0.84629 0.88707 0.9896 0.0
O472 O 0.8579 0.839 1.01647 0.0
O473 O 0.88259 0.85686 0.24517 0.0
O474 O 0.89089 0.84382 0.13897 0.0
C475 C 0.82145 0.89551 0.22596 0.0
C476 C 0.87939 0.95157 0.10488 0.0
C477 C 0.86998 0.93453 0.43688 0.0
C478 C 0.86996 0.92717 0.55409 0.0
C479 C 0.85478 0.97815 0.50852 0.0
C480 C 0.85954 0.96613 0.44676 0.0
C481 C 0.86005 0.95891 0.56178 0.0
C482 C 0.87497 0.91485 0.49127 0.0
C483 C 0.87854 0.9245 0.37021 0.0
C484 C 0.01692 0.93782 0.33618 0.0
C485 C 1.00814 0.96936 0.32364 0.0
H486 H 0.02638 0.87501 0.35684 0.0
C487 C 0.93626 0.88892 0.1266 0.0
C488 C 0.88978 0.83541 0.19938 0.0
C489 C 0.87723 0.85719 0.91595 0.0
C490 C 0.89251 0.86857 0.80444 0.0
C491 C 0.93017 0.84338 0.87806 0.0
C492 C 0.90776 0.84441 0.9271 0.0
C493 C 0.92268 0.8553 0.81737 0.0
C494 C 0.86972 0.86935 0.85431 0.0
C495 C 0.85377 0.85872 0.96905 0.0
H496 H 0.84704 1.00258 0.51512 0.0
H497 H 0.85554 0.98197 0.40659 0.0
H498 H 0.8564 0.96884 0.60939 0.0
H499 H 0.88359 0.89068 0.48506 0.0
H500 H 0.95357 0.83341 0.88724 0.0
H501 H 0.91444 0.83531 0.97392 0.0
H502 H 0.94062 0.8541 0.78027 0.0
H503 H 0.84653 0.88001 0.84579 0.0
C504 C 0.4081 0.53653 0.32212 0.0
C505 C 0.36042 0.50638 0.29373 0.0
C506 C 0.37618 0.53574 0.30244 0.0
C507 C 0.37694 0.47785 0.30496 0.0
C508 C 0.42447 0.50772 0.33434 0.0
C509 C 0.40877 0.47848 0.32547 0.0
N510 N 0.42265 0.56531 0.33179 0.0
C511 C 0.45405 0.56648 0.34919 0.0
C512 C 0.45603 0.50909 0.35618 0.0
C513 C 0.47084 0.53859 0.36362 0.0
Gd514 Gd 0.36735 0.64017 0.48293 0.0
Gd515 Gd 0.39009 0.61025 0.31137 0.0
N516 N 0.35989 0.56379 0.29662 0.0
C517 C 0.32826 0.50654 0.27528 0.0
C518 C 0.32885 0.56411 0.2767 0.0
C519 C 0.3125 0.53553 0.26623 0.0
H520 H 0.31684 0.58635 0.2678 0.0
H521 H 0.28778 0.53589 0.251 0.0
H522 H 0.43463 0.67591 0.53719 0.0
H523 H 0.46684 0.58856 0.35012 0.0
H524 H 0.44996 0.72584 0.59092 0.0
H525 H 0.3154 0.48443 0.26791 0.0
H526 H 0.36511 0.4552 0.29867 0.0
H527 H 0.2869 0.63967 0.48337 0.0
H528 H 0.4693 0.48753 0.36668 0.0
H529 H 0.49549 0.53986 0.3791 0.0
H530 H 0.35127 0.78087 0.62395 0.0
H531 H 0.421 0.45617 0.33467 0.0
H532 H 0.25478 0.72814 0.56209 0.0
H533 H 0.24311 0.67552 0.51341 0.0
N534 N 0.32351 0.67303 0.507 0.0
C535 C 0.33046 0.70125 0.53641 0.0
C536 C 0.29258 0.66329 0.50072 0.0
C537 C 0.27423 0.71286 0.54707 0.0
C538 C 0.26755 0.68327 0.51927 0.0
C539 C 0.30594 0.72191 0.55722 0.0
H540 H 0.29521 0.76687 0.60431 0.0
N541 N 0.38521 0.68757 0.53206 0.0
C542 C 0.36214 0.70881 0.54894 0.0
C543 C 0.40199 0.74397 0.59476 0.0
C544 C 0.36998 0.7376 0.58081 0.0
C545 C 0.41637 0.69317 0.54779 0.0
C546 C 0.4252 0.72146 0.57896 0.0
O547 O 0.36737 0.57915 0.39213 0.0
O548 O 0.39721 0.59624 0.47283 0.0
O549 O 0.37595 0.63579 0.58533 0.0
O550 O 0.33894 0.60731 0.53959 0.0
O551 O 0.3476 0.64186 0.3092 0.0
O552 O 0.32645 0.62874 0.40591 0.0
O553 O 0.37584 0.68326 0.42204 0.0
O554 O 0.39368 0.66571 0.32143 0.0
O555 O 0.37192 0.61079 0.21302 0.0
O556 O 0.42228 0.60485 0.23074 0.0
O557 O 0.42198 0.63249 0.46798 0.0
O558 O 0.43268 0.63393 0.35842 0.0
C559 C 0.38297 0.57238 0.44573 0.0
C560 C 0.32264 0.63879 0.34517 0.0
C561 C 0.33394 0.61922 0.65279 0.0
C562 C 0.33202 0.62481 0.77018 0.0
C563 C 0.28303 0.62073 0.70774 0.0
C564 C 0.30048 0.61829 0.65092 0.0
C565 C 0.29865 0.624 0.76702 0.0
C566 C 0.34957 0.62238 0.71293 0.0
C567 C 0.35314 0.6153 0.59364 0.0
C568 C 0.34566 0.75865 0.59957 0.0
C569 C 0.31373 0.75066 0.58847 0.0
H570 H 0.40895 0.76583 0.61906 0.0
C571 C 0.38646 0.68871 0.36387 0.0
C572 C 0.44202 0.63582 0.41898 0.0
C573 C 0.40644 0.62884 0.13177 0.0
C574 C 0.39648 0.64215 0.01851 0.0
C575 C 0.43609 0.6714 0.08163 0.0
C576 C 0.42947 0.65297 0.13547 0.0
C577 C 0.41989 0.66602 0.02363 0.0
C578 C 0.38976 0.62379 0.07344 0.0
C579 C 0.39993 0.60816 0.18744 0.0
H580 H 0.25725 0.61997 0.70583 0.0
H581 H 0.28777 0.61547 0.60578 0.0
H582 H 0.28471 0.62584 0.81049 0.0
H583 H 0.37539 0.62279 0.71529 0.0
H584 H 0.45405 0.68983 0.08473 0.0
H585 H 0.44244 0.6575 0.1798 0.0
H586 H 0.42597 0.68038 0.98247 0.0
H587 H 0.37141 0.60568 0.07121 0.0
C588 C 0.60272 0.04987 0.74364 0.0
C589 C 0.64821 0.01402 0.73837 0.0
C590 C 0.63545 0.04525 0.73696 0.0
C591 C 0.628 0.98789 0.74781 0.0
C592 C 0.58232 0.02346 0.75124 0.0
C593 C 0.59517 0.9926 0.75395 0.0
N594 N 0.59057 0.07985 0.73826 0.0
C595 C 0.55856 0.08513 0.74151 0.0
C596 C 0.54938 0.02865 0.75216 0.0
C597 C 0.5375 0.05953 0.74591 0.0
Gd598 Gd 0.65739 0.15362 0.56758 0.0
Gd599 Gd 0.6277 0.12086 0.72741 0.0
N600 N 0.65442 0.07093 0.72502 0.0
C601 C 0.68084 1.00979 0.72853 0.0
C602 C 0.68633 0.06663 0.71546 0.0
C603 C 0.69992 0.0362 0.71694 0.0
H604 H 0.70169 0.08612 0.70555 0.0
H605 H 0.72519 0.03312 0.70874 0.0
H606 H 0.59343 0.19941 0.59989 0.0
H607 H 0.54913 0.10907 0.7392 0.0
H608 H 0.57039 0.24972 0.56976 0.0
H609 H 0.69146 0.98622 0.72893 0.0
H610 H 0.63743 0.96381 0.74884 0.0
H611 H 0.73508 0.14645 0.53898 0.0
H612 H 0.53291 1.00892 0.75613 0.0
H613 H 0.51209 0.06363 0.74402 0.0
H614 H 0.68259 0.30831 0.38832 0.0
H615 H 0.57976 0.97212 0.75867 0.0
H616 H 0.76826 0.22234 0.42154 0.0
H617 H 0.77655 0.17215 0.47787 0.0
N618 N 0.70095 0.18333 0.52951 0.0
C619 C 0.69349 0.21238 0.5055 0.0
C620 C 0.73023 0.16995 0.52023 0.0
C621 C 0.74928 0.21304 0.45088 0.0
C622 C 0.75398 0.1844 0.48339 0.0
C623 C 0.72076 0.22965 0.45585 0.0
H624 H 0.73635 0.27199 0.38417 0.0
N625 N 0.63769 0.20601 0.55634 0.0
C626 C 0.6569 0.22584 0.52401 0.0
C627 C 0.60998 0.26645 0.51688 0.0
C628 C 0.64164 0.26055 0.4938 0.0
C629 C 0.60749 0.2148 0.57112 0.0
C630 C 0.5943 0.24419 0.55416 0.0
O631 O 0.6212 0.08803 0.63733 0.0
O632 O 0.66537 0.10076 0.58192 0.0
O633 O 0.63733 0.16254 0.4732 0.0
O634 O 0.67818 0.13134 0.48284 0.0
O635 O 0.67774 0.14057 0.73736 0.0
O636 O 0.70064 0.14383 0.63677 0.0
O637 O 0.66316 0.19012 0.64709 0.0
O638 O 0.62284 0.17588 0.71526 0.0
O639 O 0.64505 0.11198 0.8238 0.0
O640 O 0.5977 0.13096 0.81005 0.0
O641 O 0.60284 0.1402 0.57156 0.0
O642 O 0.58626 0.14401 0.6768 0.0
C643 C 0.64191 0.08092 0.5916 0.0
C644 C 0.70295 0.1444 0.701 0.0
C645 C 0.64302 0.12268 0.39502 0.0
C646 C 0.63096 0.11164 0.28223 0.0
C647 C 0.6121 0.07604 0.36549 0.0
C648 C 0.62533 0.09593 0.41259 0.0
C649 C 0.61508 0.08365 0.30056 0.0
C650 C 0.64552 0.13065 0.33 0.0
C651 C 0.65723 0.1438 0.44374 0.0
C652 C 0.68306 0.28656 0.4171 0.0
C653 C 0.7169 0.26404 0.4138 0.0
H654 H 0.59598 0.28752 0.50691 0.0
C655 C 0.64313 0.19741 0.69314 0.0
C656 C 0.57965 0.14192 0.61516 0.0
C657 C 0.62614 0.14615 0.90357 0.0
C658 C 0.63378 0.15591 0.01801 0.0
C659 C 0.64481 0.19772 0.9412 0.0
C660 C 0.63601 0.17737 0.89069 0.0
C661 C 0.64398 0.187 1.00463 0.0
C662 C 0.62488 0.13559 0.96715 0.0
C663 C 0.61979 0.12339 0.85138 0.0
H664 H 0.59908 0.05497 0.37937 0.0
H665 H 0.62141 0.09078 0.46256 0.0
H666 H 0.6046 0.0679 0.26484 0.0
H667 H 0.65786 0.15231 0.3169 0.0
H668 H 0.65265 0.22171 0.9311 0.0
H669 H 0.63753 0.18575 0.84174 0.0
H670 H 0.65103 0.203 0.04324 0.0
H671 H 0.61776 0.11128 0.97699 0.0
C672 C 0.96007 0.43841 0.74504 0.0
C673 C 1.00909 0.38709 0.74009 0.0
C674 C 0.97406 0.40268 0.76825 0.0
C675 C 0.03435 0.42647 0.65816 0.0
C676 C 0.97686 0.46435 0.69194 0.0
C677 C 0.01127 0.45974 0.65042 0.0
N678 N 0.93111 0.44632 0.7686 0.0
C679 C 0.91779 0.47546 0.7573 0.0
C680 C 0.96009 0.49261 0.68416 0.0
C681 C 0.93183 0.49817 0.71733 0.0
Gd682 Gd 0.86789 0.3733 0.96987 0.0
Gd683 Gd 0.90144 0.40351 0.80996 0.0
N684 N 0.95452 0.38424 0.80311 0.0
C685 C 0.01563 0.3564 0.76748 0.0
C686 C 0.96403 0.35469 0.82172 0.0
C687 C 0.99369 0.34159 0.80691 0.0
H688 H 0.94912 0.34084 0.85139 0.0
H689 H 0.99951 0.31827 0.8258 0.0
H690 H 0.82915 0.4459 0.97523 0.0
H691 H 0.89442 0.48069 0.7762 0.0
H692 H 0.77483 0.4659 0.98064 0.0
H693 H 0.03696 0.34252 0.75935 0.0
H694 H 0.05613 0.42551 0.62957 0.0
H695 H 0.86013 0.29378 0.95456 0.0
H696 H 0.96908 0.51081 0.6525 0.0
H697 H 0.91954 0.5205 0.70973 0.0
H698 H 0.71013 0.37238 0.98033 0.0
H699 H 0.01895 0.47839 0.61848 0.0
H700 H 0.76104 0.27114 0.95517 0.0
H701 H 0.8171 0.25441 0.94224 0.0
N702 N 0.82877 0.33335 0.96356 0.0
C703 C 0.79803 0.34317 0.97081 0.0
C704 C 0.83575 0.3018 0.95558 0.0
C705 C 0.77982 0.28878 0.95824 0.0
C706 C 0.81141 0.27926 0.95056 0.0
C707 C 0.77275 0.32101 0.96865 0.0
H708 H 0.72151 0.31509 0.97166 0.0
N709 N 0.81636 0.39681 0.97283 0.0
C710 C 0.79164 0.37572 0.97551 0.0
C711 C 0.75377 0.41926 0.98049 0.0
C712 C 0.75973 0.3865 0.97861 0.0
C713 C 0.81038 0.42883 0.9755 0.0
C714 C 0.77921 0.44046 0.97901 0.0
O715 O 0.93699 0.41219 0.88979 0.0
O716 O 0.9237 0.37313 0.9623 0.0
O717 O 0.86386 0.38873 0.06943 0.0
O718 O 0.8715 0.33908 0.04729 0.0
O719 O 0.88724 0.34924 0.81707 0.0
O720 O 0.89864 0.33717 0.92127 0.0
O721 O 0.83582 0.36947 0.87759 0.0
O722 O 0.84925 0.41435 0.82534 0.0
O723 O 0.90835 0.37885 0.7188 0.0
O724 O 0.88259 0.42348 0.72129 0.0
O725 O 0.88279 0.42491 0.9798 0.0
O726 O 0.88967 0.44692 0.87847 0.0
C727 C 0.94454 0.3939 0.93863 0.0
C728 C 0.89299 0.32765 0.86236 0.0
C729 C 0.89364 0.35878 0.14377 0.0
C730 C 0.9065 0.36034 0.25808 0.0
C731 C 0.94872 0.35498 0.17955 0.0
C732 C 0.92617 0.35558 0.12977 0.0
C733 C 0.93901 0.35755 0.24348 0.0
C734 C 0.88393 0.36098 0.2079 0.0
C735 C 0.86956 0.36051 0.09234 0.0
C736 C 0.73469 0.3644 0.97825 0.0
C737 C 0.74117 0.33177 0.97342 0.0
H738 H 0.72963 0.42843 0.98273 0.0
C739 C 0.82855 0.39169 0.8349 0.0
C740 C 0.88678 0.44988 0.94259 0.0
C741 C 0.87173 0.38839 0.63434 0.0
C742 C 0.86216 0.37508 0.52124 0.0
C743 C 0.81892 0.37284 0.59833 0.0
C744 C 0.84004 0.38111 0.64763 0.0
C745 C 0.82972 0.37041 0.53529 0.0
C746 C 0.88296 0.38475 0.57131 0.0
C747 C 0.89316 0.40026 0.68539 0.0
H748 H 0.97378 0.35257 0.16853 0.0
H749 H 0.93414 0.35366 0.08058 0.0
H750 H 0.95677 0.35702 0.28153 0.0
H751 H 0.85881 0.36362 0.21875 0.0
H752 H 0.79414 0.3683 0.609 0.0
H753 H 0.83189 0.38194 0.69615 0.0
H754 H 0.81263 0.36479 0.4977 0.0
H755 H 0.9079 0.38912 0.56164 0.0
C756 C 0.44403 0.07616 0.80297 0.0
C757 C 0.4858 0.11329 0.83347 0.0
C758 C 0.45676 0.1066 0.80151 0.0
C759 C 0.50107 0.08928 0.8691 0.0
C760 C 0.45983 0.05171 0.83687 0.0
C761 C 0.48813 0.05854 0.87073 0.0
N762 N 0.41605 0.07053 0.7718 0.0
C763 C 0.40253 0.04103 0.77241 0.0
C764 C 0.44656 0.02116 0.83616 0.0
C765 C 0.4178 0.01579 0.80364 0.0
Gd766 Gd 0.36278 0.14877 0.56367 0.0
Gd767 Gd 0.3898 0.11529 0.73075 0.0
N768 N 0.44076 0.12965 0.76887 0.0
C769 C 0.49862 0.14392 0.82868 0.0
C770 C 0.453 0.15965 0.76474 0.0
C771 C 0.48227 0.16711 0.79361 0.0
H772 H 0.44041 0.17789 0.73919 0.0
H773 H 0.49197 0.19089 0.78956 0.0
H774 H 0.32873 0.07418 0.54608 0.0
H775 H 0.37949 0.03715 0.75008 0.0
H776 H 0.27567 0.05126 0.53942 0.0
H777 H 0.52109 0.14988 0.85178 0.0
H778 H 0.52321 0.09406 0.89446 0.0
H779 H 0.35073 0.22688 0.57887 0.0
H780 H 0.45826 1.00172 0.86094 0.0
H781 H 0.40705 0.99239 0.80349 0.0
H782 H 0.20524 0.14069 0.55415 0.0
H783 H 0.50044 0.0401 0.8975 0.0
H784 H 0.25024 0.24443 0.58283 0.0
H785 H 0.30551 0.2643 0.59151 0.0
N786 N 0.32131 0.18619 0.56886 0.0
C787 C 0.29113 0.17476 0.5621 0.0
C788 C 0.32667 0.21795 0.57721 0.0
C789 C 0.26997 0.22789 0.5781 0.0
C790 C 0.30113 0.23918 0.58338 0.0
C791 C 0.26463 0.19537 0.56721 0.0
H792 H 0.21308 0.19829 0.56749 0.0
N793 N 0.31285 0.12229 0.5559 0.0
C794 C 0.28678 0.14195 0.55546 0.0
C795 C 0.25173 0.09648 0.54654 0.0
C796 C 0.25561 0.12942 0.5522 0.0
C797 C 0.3089 0.09011 0.54891 0.0
C798 C 0.27847 0.0768 0.54448 0.0
O799 O 0.43176 0.11524 0.66362 0.0
O800 O 0.41797 0.14896 0.57904 0.0
O801 O 0.36078 0.13412 0.46283 0.0
O802 O 0.36662 0.18359 0.48729 0.0
O803 O 0.38106 0.17056 0.7217 0.0
O804 O 0.39276 0.18452 0.61747 0.0
O805 O 0.33076 0.15507 0.65426 0.0
O806 O 0.34048 0.10675 0.69235 0.0
O807 O 0.38616 0.13435 0.8289 0.0
O808 O 0.35732 0.09436 0.79889 0.0
O809 O 0.38007 0.09765 0.55468 0.0
O810 O 0.38704 0.07388 0.65478 0.0
C811 C 0.43938 0.13246 0.61334 0.0
C812 C 0.38843 0.19243 0.67789 0.0
C813 C 0.39014 0.16554 0.39006 0.0
C814 C 0.40693 0.15619 0.2786 0.0
C815 C 0.44191 0.1838 0.3545 0.0
C816 C 0.41945 0.18044 0.40301 0.0
C817 C 0.43571 0.17195 0.2928 0.0
C818 C 0.38396 0.15349 0.32759 0.0
C819 C 0.36592 0.16259 0.44113 0.0
C820 C 0.22924 0.15 0.55593 0.0
C821 C 0.23372 0.18284 0.56351 0.0
H822 H 0.22822 0.08602 0.54361 0.0
C823 C 0.32169 0.13146 0.6912 0.0
C824 C 0.38589 0.07236 0.5904 0.0
C825 C 0.37226 0.09627 0.90986 0.0
C826 C 0.38371 0.0984 0.02594 0.0
C827 C 0.37351 0.04762 0.97315 0.0
C828 C 0.3688 0.063 0.91471 0.0
C829 C 0.381 0.0651 0.02828 0.0
C830 C 0.37929 0.11403 0.96642 0.0
C831 C 0.36639 0.1123 0.84699 0.0
H832 H 0.46429 0.19562 0.3648 0.0
H833 H 0.42498 0.18964 0.45057 0.0
H834 H 0.45352 0.17513 0.25603 0.0
H835 H 0.36157 0.14155 0.31751 0.0
H836 H 0.37099 0.02199 0.97583 0.0
H837 H 0.362 0.04864 0.87355 0.0
H838 H 0.38423 0.05261 0.07329 0.0
H839 H 0.38124 0.13975 0.96424 0.0
C840 C 0.56471 0.58299 0.27942 0.0
C841 C 0.53039 0.62323 0.23091 0.0
C842 C 0.55953 0.61433 0.26014 0.0
C843 C 0.50606 0.60068 0.22359 0.0
C844 C 0.54051 0.56006 0.26974 0.0
C845 C 0.51117 0.56917 0.24254 0.0
N846 N 0.59432 0.57427 0.30079 0.0
C847 C 0.60149 0.54259 0.308 0.0
C848 C 0.54709 0.52818 0.28379 0.0
C849 C 0.57782 0.51938 0.30222 0.0
Gd850 Gd 0.65511 0.64143 0.47917 0.0
Gd851 Gd 0.63222 0.6161 0.30522 0.0
N852 N 0.58383 0.63555 0.26537 0.0
C853 C 0.52726 0.65403 0.20615 0.0
C854 C 0.58156 0.665 0.23813 0.0
C855 C 0.55315 0.67482 0.20884 0.0
H856 H 0.60178 0.68084 0.23841 0.0
H857 H 0.55128 0.69834 0.18807 0.0
H858 H 0.67675 0.57033 0.54121 0.0
H859 H 0.6256 0.5345 0.31575 0.0
H860 H 0.72527 0.5437 0.579 0.0
H861 H 0.50534 0.66164 0.18298 0.0
H862 H 0.4837 0.60705 0.20072 0.0
H863 H 0.67323 0.71828 0.46526 0.0
H864 H 0.52907 0.50995 0.27732 0.0
H865 H 0.58364 0.49451 0.30958 0.0
H866 H 0.80432 0.62509 0.57038 0.0
H867 H 0.49261 0.55173 0.23374 0.0
H868 H 0.77267 0.72902 0.50301 0.0
H869 H 0.72 0.75232 0.47556 0.0
N870 N 0.69895 0.67524 0.48046 0.0
C871 C 0.727 0.66185 0.49965 0.0
C872 C 0.69613 0.70739 0.47358 0.0
C873 C 0.7522 0.71361 0.49656 0.0
C874 C 0.72273 0.72693 0.48044 0.0
C875 C 0.75445 0.68082 0.50795 0.0
H876 H 0.80376 0.68128 0.53866 0.0
N877 N 0.70041 0.61196 0.50937 0.0
C878 C 0.72778 0.62938 0.51418 0.0
C879 C 0.75505 0.58433 0.56151 0.0
C880 C 0.75584 0.61586 0.54013 0.0
C881 C 0.69916 0.58204 0.5346 0.0
C882 C 0.72655 0.56742 0.55904 0.0
O883 O 0.59421 0.6415 0.36335 0.0
O884 O 0.60288 0.62461 0.46579 0.0
O885 O 0.66433 0.63672 0.58121 0.0
O886 O 0.63408 0.67479 0.54813 0.0
O887 O 0.64454 0.6706 0.31919 0.0
O888 O 0.63198 0.68167 0.42515 0.0
O889 O 0.69161 0.64707 0.39391 0.0
O890 O 0.68176 0.60234 0.33688 0.0
O891 O 0.66034 0.6319 0.22232 0.0
O892 O 0.62608 0.59388 0.21235 0.0
O893 O 0.63409 0.59195 0.47419 0.0
O894 O 0.64919 0.57499 0.37387 0.0
C895 C 0.58299 0.63349 0.41958 0.0
C896 C 0.63735 0.69135 0.36619 0.0
C897 C 0.62365 0.65178 0.65122 0.0
C898 C 0.61696 0.63269 0.76158 0.0
C899 C 0.57065 0.64402 0.69405 0.0
C900 C 0.59041 0.65285 0.64352 0.0
C901 C 0.58373 0.634 0.75256 0.0
C902 C 0.63673 0.64155 0.71025 0.0
C903 C 0.64532 0.65958 0.59789 0.0
C904 C 0.78314 0.63477 0.54817 0.0
C905 C 0.78265 0.66694 0.53103 0.0
H906 H 0.77573 0.57342 0.58363 0.0
C907 C 0.7017 0.625 0.35252 0.0
C908 C 0.64068 0.56869 0.43411 0.0
C909 C 0.66267 0.59778 0.12833 0.0
C910 C 0.66478 0.59077 1.01163 0.0
C911 C 0.69305 0.55413 0.08209 0.0
C912 C 0.68227 0.57094 0.13611 0.0
C913 C 0.68417 0.5638 0.02013 0.0
C914 C 0.65425 0.60775 0.06597 0.0
C915 C 0.6459 0.61223 0.18308 0.0
H916 H 0.54503 0.64486 0.6878 0.0
H917 H 0.5797 0.66016 0.59841 0.0
H918 H 0.56781 0.6275 0.791 0.0
H919 H 0.66239 0.63972 0.71547 0.0
H920 H 0.70797 0.53327 0.08827 0.0
H921 H 0.68841 0.56251 0.18374 0.0
H922 H 0.69241 0.55028 0.97892 0.0
H923 H 0.6384 0.62798 0.05973 0.0
C924 C 0.16954 0.80301 0.01974 0.0
C925 C 0.13675 0.79637 0.88932 0.0
C926 C 0.14523 0.81499 0.96056 0.0
C927 C 0.15013 0.76103 0.86083 0.0
C928 C 0.18973 0.76744 0.01732 0.0
C929 C 0.17745 0.73747 0.90712 0.0
N930 N 0.17598 0.82445 0.06676 0.0
C931 C 0.19495 0.81609 0.11709 0.0
C932 C 0.2085 0.76294 0.07461 0.0
C933 C 0.21012 0.78647 0.12203 0.0
Gd934 Gd 0.12571 0.90972 0.22052 0.0
Gd935 Gd 0.15198 0.87577 0.05377 0.0
N936 N 0.12965 0.84259 0.97302 0.0
C937 C 0.11363 0.81145 0.8524 0.0
C938 C 0.10544 0.85299 0.93414 0.0
C939 C 0.09778 0.83837 0.87533 0.0
H940 H 0.09282 0.87465 0.94635 0.0
H941 H 0.0791 0.84876 0.84594 0.0
H942 H 0.19813 0.94173 0.26199 0.0
H943 H 0.19746 0.83198 0.15669 0.0
H944 H 0.22483 0.99345 0.25563 0.0
H945 H 0.10652 0.80133 0.8065 0.0
H946 H 0.16442 0.74577 0.87855 0.0
H947 H 0.04751 0.92521 0.20271 0.0
H948 H 0.22242 0.74186 0.08511 0.0
H949 H 0.22425 0.78178 0.16473 0.0
H950 H 0.14246 0.06532 0.18819 0.0
H951 H 0.18867 0.71176 0.89071 0.0
H952 H 0.03628 0.0248 0.16614 0.0
H953 H 0.01318 0.97083 0.17442 0.0
N954 N 0.09002 0.95262 0.20653 0.0
C955 C 0.10292 0.98239 0.2062 0.0
C956 C 0.05802 0.94849 0.19814 0.0
C957 C 0.05149 1.00485 0.17876 0.0
C958 C 0.0384 0.9744 0.18298 0.0
C959 C 0.08413 1.00915 0.19015 0.0
H960 H 0.08481 0.05958 0.16895 0.0
N961 N 0.15354 0.95877 0.22666 0.0
C962 C 0.13565 0.98545 0.21562 0.0
C963 C 0.18262 0.01839 0.22448 0.0
C964 C 0.15 0.01571 0.21148 0.0
C965 C 0.1848 0.96176 0.24441 0.0
C966 C 0.19989 0.99142 0.24266 0.0
O967 O 0.12543 0.83988 0.11352 0.0
O968 O 0.13806 0.85536 0.21725 0.0
O969 O 0.13647 0.92195 0.32036 0.0
O970 O 0.09175 0.89984 0.2963 0.0
O971 O 0.097 0.88707 0.0645 0.0
O972 O 0.08584 0.88217 0.1731 0.0
O973 O 0.11789 0.93757 0.12493 0.0
O974 O 0.16471 0.92633 0.08144 0.0
O975 O 0.14343 0.90499 0.96965 0.0
O976 O 0.18455 0.87275 0.97203 0.0
O977 O 0.17714 0.89248 0.22422 0.0
O978 O 0.19647 0.88711 0.11979 0.0
C979 C 0.12987 0.83292 0.17464 0.0
C980 C 0.07626 0.8834 0.11265 0.0
C981 C 0.11488 0.8877 0.39877 0.0
C982 C 0.13202 0.87948 0.51121 0.0
C983 C 0.10652 0.83662 0.44997 0.0
C984 C 0.10377 0.85618 0.39634 0.0
C985 C 0.12017 0.84814 0.5069 0.0
C986 C 0.12953 0.89904 0.45602 0.0
C987 C 0.11079 0.90905 0.34252 0.0
C988 C 0.13152 0.04222 0.19382 0.0
C989 C 0.0987 0.03895 0.183 0.0
H990 H 0.19448 0.04126 0.22227 0.0
C991 C 0.14109 0.94637 0.08685 0.0
C992 C 0.20103 0.89018 0.18355 0.0
C993 C 0.18014 0.90948 0.88256 0.0
C994 C 0.18041 0.91842 0.76595 0.0
C995 C 0.2093 0.95401 0.83868 0.0
C996 C 0.19929 0.93642 0.89169 0.0
C997 C 0.1999 0.94519 0.77631 0.0
C998 C 0.17097 0.9004 0.81958 0.0
C999 C 0.1669 0.89212 0.93768 0.0
H1000 H 0.09765 0.81243 0.44769 0.0
H1001 H 0.09276 0.84661 0.35309 0.0
H1002 H 0.12095 0.83247 0.548 0.0
H1003 H 0.13909 0.92297 0.45702 0.0
H1004 H 0.22403 0.97488 0.846 0.0
H1005 H 0.20612 0.94404 0.9397 0.0
H1006 H 0.20772 0.95939 0.73615 0.0
H1007 H 0.15558 0.87993 0.8125 0.0
C1008 C 0.95122 0.57007 0.26544 0.0
C1009 C 0.99572 0.60411 0.29598 0.0
C1010 C 0.96479 0.60035 0.27 0.0
C1011 C 0.01282 0.57727 0.31699 0.0
C1012 C 0.96851 0.54308 0.28622 0.0
C1013 C 0.99934 0.54686 0.3118 0.0
N1014 N 0.92013 0.5674 0.24659 0.0
C1015 C 0.90512 0.53854 0.24737 0.0
C1016 C 0.95373 0.51323 0.28367 0.0
C1017 C 0.92189 0.51097 0.26428 0.0
Gd1018 Gd 0.86454 0.64988 0.06587 0.0
Gd1019 Gd 0.89373 0.61573 0.22547 0.0
N1020 N 0.94699 0.62626 0.253 0.0
C1021 C 1.00806 0.63491 0.30283 0.0
C1022 C 0.95838 0.65637 0.26258 0.0
C1023 C 0.98927 0.66112 0.28632 0.0
H1024 H 0.94372 0.67683 0.25224 0.0
H1025 H 0.99833 0.68502 0.29326 0.0
H1026 H 0.81778 0.58539 0.07315 0.0
H1027 H 0.87992 0.53683 0.23693 0.0
H1028 H 0.76 0.57374 0.07511 0.0
H1029 H 0.03164 0.63877 0.32272 0.0
H1030 H 0.03648 0.57976 0.33763 0.0
H1031 H 0.87148 0.72855 0.03546 0.0
H1032 H 0.96634 0.49193 0.29867 0.0
H1033 H 0.90996 0.48813 0.26428 0.0
H1034 H 0.71023 0.67617 0.0495 0.0
H1035 H 0.01284 0.52642 0.32847 0.0
H1036 H 0.77748 0.76464 1.00062 0.0
H1037 H 0.83588 0.77244 1.00225 0.0
N1038 N 0.83364 0.69556 0.04841 0.0
C1039 C 0.80165 0.69045 0.04602 0.0
C1040 C 0.846 0.72485 0.03495 0.0
C1041 C 0.79299 0.74508 1.01426 0.0
C1042 C 0.82595 0.74967 1.01552 0.0
C1043 C 0.78041 0.71553 0.03151 0.0
H1044 H 0.73074 0.72941 0.02413 0.0
N1045 N 0.81095 0.63537 0.06555 0.0
C1046 C 0.78999 0.65977 0.05589 0.0
C1047 C 0.74622 0.62303 0.06492 0.0
C1048 C 0.75695 0.65422 0.05629 0.0
C1049 C 0.80075 0.60461 0.069 0.0
C1050 C 0.76815 0.59802 0.0701 0.0
O1051 O 0.93405 0.62067 0.15408 0.0
O1052 O 0.9185 0.65809 0.0788 0.0
O1053 O 0.85837 0.62275 0.97736 0.0
O1054 O 0.87029 0.67274 0.97339 0.0
O1055 O 0.88691 0.67166 0.22216 0.0
O1056 O 0.89128 0.68862 0.11715 0.0
O1057 O 0.83085 0.65114 0.15701 0.0
O1058 O 0.84257 0.60409 0.20373 0.0
O1059 O 0.86931 0.63886 0.30653 0.0
O1060 O 0.89848 0.59709 0.32111 0.0
O1061 O 0.8881 0.60116 0.06021 0.0
O1062 O 0.87526 0.57673 0.15345 0.0
C1063 C 0.94067 0.6406 0.10767 0.0
C1064 C 0.89038 0.69489 0.17902 0.0
C1065 C 0.88903 0.63973 0.88989 0.0
C1066 C 0.90007 0.626 0.77833 0.0
C1067 C 0.94355 0.63139 0.8553 0.0
C1068 C 0.92182 0.63877 0.90375 0.0
C1069 C 0.93276 0.62491 0.79284 0.0
C1070 C 0.87825 0.63347 0.82701 0.0
C1071 C 0.86583 0.64662 0.94067 0.0
C1072 C 0.73574 0.6798 0.04737 0.0
C1073 C 0.74742 0.7102 0.03349 0.0
H1074 H 0.72107 0.61806 0.06613 0.0
C1075 C 0.82288 0.62813 0.19775 0.0
C1076 C 0.88205 0.57484 0.09115 0.0
C1077 C 0.86139 0.60709 0.40065 0.0
C1078 C 0.85824 0.59822 0.51631 0.0
C1079 C 0.82427 0.56838 0.44195 0.0
C1080 C 0.83745 0.58443 0.38995 0.0
C1081 C 0.83511 0.57464 0.50452 0.0
C1082 C 0.87136 0.61419 0.46366 0.0
C1083 C 0.881 0.61866 0.34796 0.0
H1084 H 0.96879 0.63051 0.86627 0.0
H1085 H 0.93054 0.64338 0.95202 0.0
H1086 H 0.94987 0.61914 0.75581 0.0
H1087 H 0.85295 0.63418 0.81601 0.0
H1088 H 0.8062 0.55042 0.43363 0.0
H1089 H 0.83015 0.57811 0.3415 0.0
H1090 H 0.82521 0.56127 0.54381 0.0
H1091 H 0.8907 0.63092 0.47136 0.0
C1092 C 0.08983 0.05737 0.78168 0.0
C1093 C 0.03809 0.07746 0.74787 0.0
C1094 C 0.06938 0.08289 0.77063 0.0
C1095 C 0.02725 0.04609 0.73915 0.0
C1096 C 0.07911 0.02584 0.77226 0.0
C1097 C 0.04757 0.02034 0.75208 0.0
N1098 N 0.12059 0.06338 0.79883 0.0
C1099 C 0.14243 0.03917 0.80218 0.0
C1100 C 0.10068 1.00079 0.78178 0.0
C1101 C 0.13252 1.00752 0.79639 0.0
Gd1102 Gd 0.16435 0.14538 0.98464 0.0
Gd1103 Gd 0.13382 0.11732 0.81367 0.0
N1104 N 0.08069 0.113 0.77804 0.0
C1105 C 0.01893 0.10371 0.73252 0.0
C1106 C 0.06248 0.13869 0.76065 0.0
C1107 C 0.03121 0.13447 0.73867 0.0
H1108 H 0.0723 0.16248 0.76349 0.0
H1109 H 0.01676 0.15488 0.72567 0.0
H1110 H 0.21532 0.08152 0.96719 0.0
H1111 H 0.16711 0.04441 0.81322 0.0
H1112 H 0.27239 0.07107 0.97258 0.0
H1113 H 0.99498 0.10041 0.71409 0.0
H1114 H 1.00323 0.04149 0.72202 0.0
H1115 H 0.15714 0.22451 1.01158 0.0
H1116 H 0.09323 0.97621 0.77613 0.0
H1117 H 0.14942 0.98835 0.80296 0.0
H1118 H 0.3191 0.17297 1.01518 0.0
H1119 H 0.0389 0.99628 0.74477 0.0
H1120 H 0.2502 0.26263 0.04342 0.0
H1121 H 0.19182 0.27004 0.0364 0.0
N1122 N 0.19538 0.1912 1.00315 0.0
C1123 C 0.22738 0.18644 1.00846 0.0
C1124 C 0.1826 0.22084 1.01298 0.0
C1125 C 0.23507 0.24245 0.03201 0.0
C1126 C 0.20217 0.24677 0.0278 0.0
C1127 C 0.24811 0.21218 0.0216 0.0
H1128 H 0.29737 0.22659 0.03349 0.0
N1129 N 0.21915 0.13126 0.98838 0.0
C1130 C 0.23962 0.15579 1.00064 0.0
C1131 C 0.28466 0.11982 0.99307 0.0
C1132 C 0.27291 0.15065 1.00296 0.0
C1133 C 0.23075 0.10107 0.97886 0.0
C1134 C 0.26349 0.09497 0.98097 0.0
O1135 O 0.09894 0.14712 0.86909 0.0
O1136 O 0.11033 0.13248 0.97244 0.0
O1137 O 0.17166 0.12564 0.08051 0.0
O1138 O 0.14804 0.17085 0.06939 0.0
O1139 O 0.14259 0.1726 0.82438 0.0
O1140 O 0.13873 0.18512 0.9328 0.0
O1141 O 0.19713 0.15305 0.89668 0.0
O1142 O 0.18431 0.10716 0.84662 0.0
O1143 O 0.17145 0.11707 0.74227 0.0
O1144 O 0.12294 0.12282 0.71144 0.0
O1145 O 0.16163 0.09165 0.9777 0.0
O1146 O 0.12688 0.07909 0.89436 0.0
C1147 C 0.08929 0.14064 0.92724 0.0
C1148 C 0.14091 0.19402 0.87233 0.0
C1149 C 0.13177 0.13889 0.15609 0.0
C1150 C 0.11762 0.12062 0.26376 0.0
C1151 C 0.07634 0.12991 0.18322 0.0
C1152 C 0.09936 0.13868 0.13876 0.0
C1153 C 0.08532 0.12098 0.24527 0.0
C1154 C 0.14078 0.13009 0.21893 0.0
C1155 C 0.15619 0.14849 0.1092 0.0
C1156 C 0.29351 0.17642 1.01423 0.0
C1157 C 0.28114 0.20701 0.0242 0.0
H1158 H 0.31002 0.11497 0.99431 0.0
C1159 C 0.2043 0.13094 0.85369 0.0
C1160 C 0.14306 0.07124 0.94746 0.0
C1161 C 0.1575 0.0963 0.63966 0.0
C1162 C 0.1531 0.08365 0.52495 0.0
C1163 C 0.17623 0.04523 0.59896 0.0
C1164 C 0.17166 0.06638 0.65014 0.0
C1165 C 0.16696 0.05371 0.53677 0.0
C1166 C 0.14843 0.10488 0.57682 0.0
C1167 C 0.15215 0.11883 0.6934 0.0
H1168 H 0.0514 0.13005 0.16953 0.0
H1169 H 0.09175 0.14561 0.09106 0.0
H1170 H 0.06694 0.11457 0.279 0.0
H1171 H 0.16578 0.12999 0.23246 0.0
H1172 H 0.18719 0.02224 0.60746 0.0
H1173 H 0.17937 0.05939 0.69772 0.0
H1174 H 0.17114 0.03707 0.49768 0.0
H1175 H 0.13762 0.12799 0.56833 0.0
C1176 C 0.67243 0.30643 0.52068 0.0
C1177 C 0.62677 0.29663 0.40717 0.0
C1178 C 0.64269 0.31742 0.47061 0.0
C1179 C 0.63624 0.26011 0.37897 0.0
C1180 C 0.69138 0.27025 0.51432 0.0
C1181 C 0.66732 0.23735 0.41589 0.0
N1182 N 0.6843 0.32903 0.56106 0.0
C1183 C 0.71136 0.32325 0.59554 0.0
C1184 C 0.71646 0.26731 0.56129 0.0
C1185 C 0.72619 0.29342 0.59796 0.0
Gd1186 Gd 0.63455 0.41253 0.7286 0.0
Gd1187 Gd 0.65819 0.37922 0.55542 0.0
N1188 N 0.62971 0.34638 0.48312 0.0
C1189 C 0.60164 0.31161 0.37606 0.0
C1190 C 0.6045 0.35781 0.44806 0.0
C1191 C 0.59062 0.34114 0.39669 0.0
H1192 H 0.5953 0.38141 0.45744 0.0
H1193 H 0.5709 0.35201 0.37102 0.0
H1194 H 0.70467 0.41969 0.80958 0.0
H1195 H 0.72235 0.34165 0.62328 0.0
H1196 H 0.74432 0.46139 0.83388 0.0
H1197 H 0.58998 0.30005 0.3356 0.0
H1198 H 0.65182 0.24511 0.39255 0.0
H1199 H 0.56555 0.45057 0.71523 0.0
H1200 H 0.73047 0.24602 0.56919 0.0
H1201 H 0.74662 0.29061 0.62961 0.0
H1202 H 0.69502 0.55756 0.75875 0.0
H1203 H 0.67634 0.21093 0.39827 0.0
H1204 H 0.58376 0.55109 0.70775 0.0
H1205 H 0.5457 0.50614 0.70395 0.0
N1206 N 0.61392 0.4644 0.72183 0.0
C1207 C 0.63492 0.48875 0.72902 0.0
C1208 C 0.58203 0.47025 0.71658 0.0
C1209 C 0.59246 0.52687 0.71251 0.0
C1210 C 0.57084 0.50156 0.71081 0.0
C1211 C 0.62488 0.52067 0.72305 0.0
H1212 H 0.64021 0.56988 0.72403 0.0
N1213 N 0.67397 0.45053 0.75665 0.0
C1214 C 0.66606 0.48155 0.74616 0.0
C1215 C 0.71688 0.49871 0.78914 0.0
C1216 C 0.68766 0.5064 0.76032 0.0
C1217 C 0.70067 0.44352 0.79189 0.0
C1218 C 0.72285 0.46728 0.80726 0.0
O1219 O 0.63238 0.34341 0.6185 0.0
O1220 O 0.64817 0.35911 0.72027 0.0
O1221 O 0.63722 0.42341 0.83101 0.0
O1222 O 0.59775 0.39635 0.79416 0.0
O1223 O 0.60436 0.39193 0.56845 0.0
O1224 O 0.59058 0.39441 0.67696 0.0
O1225 O 0.6262 0.44321 0.63618 0.0
O1226 O 0.67059 0.42958 0.58384 0.0
O1227 O 0.64963 0.40755 0.47 0.0
O1228 O 0.68954 0.3739 0.47235 0.0
O1229 O 0.68199 0.38655 0.72268 0.0
O1230 O 0.70163 0.39392 0.62066 0.0
C1231 C 0.63764 0.3369 0.67962 0.0
C1232 C 0.58289 0.39233 0.61551 0.0
C1233 C 0.61696 0.38396 0.90001 0.0
C1234 C 0.63474 0.3735 1.01115 0.0
C1235 C 0.61047 0.33137 0.94615 0.0
C1236 C 0.60711 0.35209 0.89439 0.0
C1237 C 0.62382 0.34197 1.0041 0.0
C1238 C 0.63088 0.39449 0.95863 0.0
C1239 C 0.61268 0.40641 0.84551 0.0
C1240 C 0.67853 0.5382 0.74954 0.0
C1241 C 0.64723 0.54527 0.73037 0.0
H1242 H 0.73399 0.5171 0.80149 0.0
C1243 C 0.64741 0.44997 0.59158 0.0
C1244 C 0.70614 0.3915 0.6841 0.0
C1245 C 0.685 0.40866 0.38011 0.0
C1246 C 0.68369 0.41463 0.26303 0.0
C1247 C 0.71477 0.45105 0.32982 0.0
C1248 C 0.70549 0.43484 0.38512 0.0
C1249 C 0.70373 0.44123 0.26918 0.0
C1250 C 0.67447 0.39835 0.31889 0.0
C1251 C 0.6721 0.39323 0.43769 0.0
H1252 H 0.6024 0.30697 0.94153 0.0
H1253 H 0.59659 0.34312 0.85016 0.0
H1254 H 0.62505 0.32546 0.0438 0.0
H1255 H 0.63888 0.41895 0.96311 0.0
H1256 H 0.7304 0.47145 0.33399 0.0
H1257 H 0.71402 0.44289 0.43165 0.0
H1258 H 0.71108 0.4542 0.22699 0.0
H1259 H 0.65845 0.37817 0.31481 0.0
C1260 C 0.4591 0.94282 0.2567 0.0
C1261 C 0.50825 0.89215 0.23978 0.0
C1262 C 0.47224 0.90538 0.26819 0.0
C1263 C 0.53653 0.93824 0.17852 0.0
C1264 C 0.47797 0.973 0.21721 0.0
C1265 C 0.51385 0.97192 0.18025 0.0
N1266 N 0.42906 0.94873 0.27734 0.0
C1267 C 0.41557 0.97827 0.2716 0.0
C1268 C 0.46123 1.0015 0.21575 0.0
C1269 C 0.43113 1.00406 0.24314 0.0
Gd1270 Gd 0.36413 0.87431 0.46829 0.0
Gd1271 Gd 0.39896 0.90364 0.30762 0.0
N1272 N 0.4515 0.88433 0.29302 0.0
C1273 C 0.51324 0.85907 0.25398 0.0
C1274 C 0.45892 0.85276 0.29471 0.0
C1275 C 0.48882 0.84059 0.27851 0.0
H1276 H 0.44165 0.8359 0.30986 0.0
H1277 H 0.49303 0.8153 0.28472 0.0
H1278 H 0.33125 0.94899 0.47518 0.0
H1279 H 0.39122 0.98193 0.2865 0.0
H1280 H 0.27822 0.97277 0.48382 0.0
H1281 H 0.53485 0.84591 0.24428 0.0
H1282 H 0.55918 0.93961 0.15296 0.0
H1283 H 0.35181 0.79562 0.4506 0.0
H1284 H 0.47147 0.02204 0.19268 0.0
H1285 H 0.41874 0.02669 0.24018 0.0
H1286 H 0.20747 0.88349 0.48809 0.0
H1287 H 0.52262 0.99308 0.15689 0.0
H1288 H 0.25159 0.77899 0.46146 0.0
H1289 H 0.30627 0.75884 0.44366 0.0
N1290 N 0.32296 0.83688 0.46282 0.0
C1291 C 0.29304 0.84871 0.47157 0.0
C1292 C 0.32797 0.805 0.45444 0.0
C1293 C 0.27142 0.79546 0.46247 0.0
C1294 C 0.30224 0.78398 0.45226 0.0
C1295 C 0.26645 0.82818 0.47201 0.0
H1296 H 0.21504 0.82555 0.4794 0.0
N1297 N 0.3147 0.90116 0.47133 0.0
C1298 C 0.28877 0.88168 0.47577 0.0
C1299 C 0.25406 0.92761 0.48401 0.0
C1300 C 0.25776 0.89449 0.48145 0.0
C1301 C 0.31111 0.93345 0.47526 0.0
C1302 C 0.28084 0.94712 0.48104 0.0
O1303 O 0.43682 0.90412 0.3855 0.0
O1304 O 0.41896 0.86764 0.46003 0.0
O1305 O 0.35979 0.89101 0.56664 0.0
O1306 O 0.36624 0.84078 0.54738 0.0
O1307 O 0.38305 0.85005 0.3161 0.0
O1308 O 0.39358 0.83723 0.42067 0.0
O1309 O 0.33195 0.87126 0.37606 0.0
O1310 O 0.34636 0.91491 0.31988 0.0
O1311 O 0.40188 0.87662 0.21884 0.0
O1312 O 0.38556 0.92548 0.21661 0.0
O1313 O 0.38604 0.92319 0.47809 0.0
O1314 O 0.38628 0.94587 0.3773 0.0
C1315 C 0.44199 0.88489 0.43408 0.0
C1316 C 0.38913 0.82839 0.36109 0.0
C1317 C 0.38909 0.86188 0.64227 0.0
C1318 C 0.40229 0.86664 0.75594 0.0
C1319 C 0.44438 0.86061 0.67737 0.0
C1320 C 0.42165 0.85944 0.628 0.0
C1321 C 0.43481 0.86433 0.74115 0.0
C1322 C 0.37953 0.86521 0.70623 0.0
C1323 C 0.36488 0.863 0.59111 0.0
C1324 C 0.23139 0.87399 0.48371 0.0
C1325 C 0.23572 0.84097 0.47898 0.0
H1326 H 0.23064 0.93833 0.48844 0.0
C1327 C 0.32511 0.89295 0.33188 0.0
C1328 C 0.38874 0.94832 0.44125 0.0
C1329 C 0.36889 0.89108 0.13237 0.0
C1330 C 0.358 0.88151 0.0186 0.0
C1331 C 0.31608 0.87498 0.09757 0.0
C1332 C 0.33757 0.88272 0.14669 0.0
C1333 C 0.3261 0.87465 0.03373 0.0
C1334 C 0.37927 0.88966 0.06871 0.0
C1335 C 0.39165 0.89987 0.18319 0.0
H1336 H 0.46947 0.85881 0.66615 0.0
H1337 H 0.42953 0.8569 0.57892 0.0
H1338 H 0.45272 0.86518 0.7789 0.0
H1339 H 0.3544 0.86747 0.71723 0.0
H1340 H 0.29173 0.86893 0.10905 0.0
H1341 H 0.33017 0.88167 0.1958 0.0
H1342 H 0.30899 0.86868 0.99634 0.0
H1343 H 0.40418 0.89401 0.05881 0.0
C1344 C 0.15299 0.63818 0.67614 0.0
C1345 C 0.14775 0.60723 0.699 0.0
C1346 C 0.14268 0.64725 0.61475 0.0
C1347 C 0.12629 0.62587 0.57386 0.0
H1348 H 0.1653 0.65555 0.70601 0.0
H1349 H 0.14762 0.67132 0.59925 0.0
S1350 S 0.10595 0.542 0.61235 0.0
N1351 N 0.1254 0.555 0.67666 0.0
N1352 N 0.10491 0.57219 0.56178 0.0
C1353 C 0.12109 0.59464 0.59616 0.0
C1354 C 0.13205 0.5853 0.65859 0.0
C1355 C 0.6607 0.89834 0.93102 0.0
C1356 C 0.63978 0.91915 0.96323 0.0
C1357 C 0.65287 0.88552 0.86997 0.0
C1358 C 0.62381 0.89307 0.8389 0.0
H1359 H 0.68342 0.89223 0.95285 0.0
H1360 H 0.66954 0.86931 0.84729 0.0
S1361 S 0.56196 0.94837 0.90215 0.0
N1362 N 0.58966 0.94784 0.95894 0.0
N1363 N 0.5748 0.92412 0.84507 0.0
C1364 C 0.60296 0.91424 0.87087 0.0
C1365 C 0.61099 0.92719 0.93267 0.0
C1366 C 0.33346 0.36058 0.15983 0.0
C1367 C 0.35092 0.382 0.19849 0.0
C1368 C 0.3436 0.35248 0.09782 0.0
C1369 C 0.37117 0.3661 0.07153 0.0
H1370 H 0.31169 0.35014 0.17761 0.0
H1371 H 0.32929 0.33598 0.0697 0.0
S1372 S 0.42551 0.42313 0.15372 0.0
N1373 N 0.39741 0.41619 0.20688 0.0
N1374 N 0.41624 0.4014 0.08979 0.0
C1375 C 0.38899 0.38735 0.10997 0.0
C1376 C 0.37895 0.39516 0.17359 0.0
C1377 C 0.90962 0.09579 0.44465 0.0
C1378 C 0.89866 0.1254 0.46822 0.0
C1379 C 0.90131 0.08495 0.3826 0.0
C1380 C 0.88198 0.10346 0.34165 0.0
H1381 H 0.92549 0.08128 0.4736 0.0
H1382 H 0.91078 0.06236 0.36592 0.0
S1383 S 0.84338 0.18039 0.38308 0.0
N1384 N 0.86448 0.17125 0.44773 0.0
N1385 N 0.84972 0.15125 0.33096 0.0
C1386 C 0.86989 0.13244 0.3654 0.0
C1387 C 0.87801 0.14331 0.42864 0.0
C1388 C 0.10741 0.41389 0.35399 0.0
C1389 C 0.13106 0.39845 0.31704 0.0
C1390 C 0.11439 0.42743 0.41447 0.0
C1391 C 0.14541 0.42667 0.44018 0.0
H1392 H 0.08316 0.41553 0.33615 0.0
H1393 H 0.09538 0.43879 0.44119 0.0
S1394 S 0.21621 0.39004 0.36426 0.0
N1395 N 0.18701 0.38316 0.31248 0.0
N1396 N 0.20019 0.41026 0.42429 0.0
C1397 C 0.16947 0.41221 0.40362 0.0
C1398 C 0.16232 0.3978 0.34254 0.0
C1399 C 0.90885 0.90256 0.71126 0.0
C1400 C 0.88606 0.88242 0.73939 0.0
C1401 C 0.90413 0.91552 0.64983 0.0
C1402 C 0.87665 0.9086 0.61337 0.0
H1403 H 0.93029 0.90897 0.73759 0.0
H1404 H 0.92179 0.93177 0.63128 0.0
S1405 S 0.80967 0.85733 0.66363 0.0
N1406 N 0.83494 0.85604 0.72492 0.0
N1407 N 0.82615 0.88069 0.60971 0.0
C1408 C 0.85375 0.88843 0.64036 0.0
C1409 C 0.85841 0.87531 0.70324 0.0
C1410 C 0.35375 0.65907 0.85918 0.0
C1411 C 0.34834 0.62853 0.8334 0.0
C1412 C 0.3689 0.66317 0.91918 0.0
C1413 C 0.37934 0.63686 0.95582 0.0
H1414 H 0.34615 0.67995 0.83274 0.0
H1415 H 0.3723 0.68721 0.93716 0.0
S1416 S 0.37037 0.55174 0.90873 0.0
N1417 N 0.3536 0.57159 0.84908 0.0
N1418 N 0.38323 0.57898 0.96033 0.0
C1419 C 0.37383 0.60612 0.93028 0.0
C1420 C 0.35811 0.60205 0.86946 0.0
C1421 C 0.66026 0.14486 0.12362 0.0
C1422 C 0.63268 0.14438 0.08492 0.0
C1423 C 0.65967 0.13367 0.18694 0.0
C1424 C 0.6314 0.12185 0.21394 0.0
H1425 H 0.68249 0.15363 0.10454 0.0
H1426 H 0.68155 0.13419 0.2149 0.0
S1427 S 0.55232 0.11769 0.13298 0.0
N1428 N 0.57628 0.13214 0.07789 0.0
N1429 N 0.57477 0.11192 0.19739 0.0
C1430 C 0.60359 0.12158 0.17559 0.0
C1431 C 0.60433 0.13267 0.111 0.0
C1432 C 0.90728 0.38775 0.36517 0.0
C1433 C 0.89599 0.36291 0.3256 0.0
C1434 C 0.89638 0.39146 0.42834 0.0
C1435 C 0.87411 0.37017 0.45455 0.0
H1436 H 0.92408 0.40489 0.3466 0.0
H1437 H 0.90502 0.41156 0.4563 0.0
S1438 S 0.8401 0.29899 0.37183 0.0
N1439 N 0.86289 0.31573 0.31734 0.0
N1440 N 0.84339 0.3216 0.43677 0.0
C1441 C 0.86356 0.34452 0.41575 0.0
C1442 C 0.87426 0.34115 0.35117 0.0
C1443 C 0.37316 0.14829 0.17837 0.0
C1444 C 0.40153 0.14219 0.21304 0.0
C1445 C 0.36809 0.1354 0.11634 0.0
C1446 C 0.39112 0.11588 0.0868 0.0
H1447 H 0.35475 0.16309 0.19936 0.0
H1448 H 0.34557 0.13979 0.09233 0.0
S1449 S 0.46879 0.09169 0.15731 0.0
N1450 N 0.45254 0.11453 0.21309 0.0
N1451 N 0.44301 0.09076 0.097 0.0
C1452 C 0.4195 0.10968 0.12079 0.0
C1453 C 0.42471 0.12274 0.18363 0.0
C1454 C 0.62982 0.58407 0.91434 0.0
C1455 C 0.65439 0.6006 0.94635 0.0
C1456 C 0.61811 0.59442 0.8545 0.0
C1457 C 0.6307 0.62155 0.82413 0.0
H1458 H 0.61922 0.56335 0.9363 0.0
H1459 H 0.59905 0.58099 0.83175 0.0
S1460 S 0.69629 0.67221 0.88798 0.0
N1461 N 0.6917 0.64445 0.94299 0.0
N1462 N 0.66966 0.66433 0.83123 0.0
C1463 C 0.6558 0.6378 0.85541 0.0
C1464 C 0.6676 0.62725 0.91635 0.0
C1465 C 0.16423 0.87014 0.61289 0.0
C1466 C 0.1462 0.89112 0.5739 0.0
C1467 C 0.17515 0.87908 0.67452 0.0
C1468 C 0.1694 0.90974 0.6995 0.0
H1469 H 0.16984 0.84633 0.59594 0.0
H1470 H 0.18837 0.86187 0.70279 0.0
S1471 S 0.12434 0.97434 0.61804 0.0
N1472 N 0.12304 0.94428 0.56654 0.0
N1473 N 0.14545 0.96152 0.67998 0.0
C1474 C 0.15252 0.9314 0.6605 0.0
C1475 C 0.14059 0.92206 0.59839 0.0
C1476 C 0.88566 0.58788 0.69024 0.0
C1477 C 0.88885 0.61942 0.71212 0.0
C1478 C 0.87579 0.58115 0.62694 0.0
C1479 C 0.86893 0.60583 0.58324 0.0
H1480 H 0.89073 0.56836 0.72252 0.0
H1481 H 0.87388 0.55645 0.61194 0.0
S1482 S 0.87249 0.69262 0.61919 0.0
N1483 N 0.8837 0.6755 0.68697 0.0
N1484 N 0.86519 0.66323 0.56802 0.0
C1485 C 0.8719 0.63756 0.60523 0.0
C1486 C 0.88176 0.64427 0.66972 0.0
C1487 C 0.15519 0.12105 0.43124 0.0
C1488 C 0.14374 0.09271 0.45842 0.0
C1489 C 0.14718 0.1296 0.36792 0.0
C1490 C 0.12691 0.11044 0.32985 0.0
H1491 H 0.17074 0.13658 0.45884 0.0
H1492 H 0.15647 0.15167 0.34903 0.0
S1493 S 0.09042 0.03386 0.37882 0.0
N1494 N 0.11126 0.04543 0.44241 0.0
N1495 N 0.09565 0.06173 0.32434 0.0
C1496 C 0.11519 0.0821 0.35675 0.0
C1497 C 0.12376 0.07317 0.4207 0.0
C1498 C 0.65189 0.42385 0.16181 0.0
C1499 C 0.67219 0.40417 0.19836 0.0
C1500 C 0.64041 0.41411 0.10099 0.0
C1501 C 0.64903 0.38441 0.07398 0.0
H1502 H 0.64436 0.44671 0.18095 0.0
H1503 H 0.62403 0.42968 0.07571 0.0
S1504 S 0.70508 0.32603 0.14764 0.0
N1505 N 0.70232 0.35485 0.20177 0.0
N1506 N 0.68176 0.33679 0.08723 0.0
C1507 C 0.67037 0.3651 0.10948 0.0
C1508 C 0.68168 0.3749 0.17161 0.0
C1509 C 0.35912 0.85301 0.91237 0.0
C1510 C 0.36934 0.87871 0.95123 0.0
C1511 C 0.36996 0.84928 0.84932 0.0
C1512 C 0.3918 0.87078 0.82308 0.0
H1513 H 0.34296 0.83532 0.93102 0.0
H1514 H 0.36148 0.82918 0.82108 0.0
S1515 S 0.42502 0.94266 0.90283 0.0
N1516 N 0.40142 0.92694 0.95706 0.0
N1517 N 0.42279 0.91895 0.83932 0.0
C1518 C 0.40228 0.89652 0.86098 0.0
C1519 C 0.39082 0.90071 0.92484 0.0
C1520 C 0.10551 0.74542 0.15876 0.0
C1521 C 0.1273 0.72831 0.19715 0.0
C1522 C 0.10539 0.77895 0.15546 0.0
C1523 C 0.12664 0.79788 0.19192 0.0
H1524 H 0.08929 0.73262 0.12793 0.0
H1525 H 0.08913 0.79011 0.12165 0.0
S1526 S 0.1845 0.76566 0.31126 0.0
N1527 N 0.1684 0.73334 0.27901 0.0
N1528 N 0.16713 0.79652 0.27619 0.0
C1529 C 0.1465 0.78137 0.23597 0.0
C1530 C 0.14711 0.74674 0.23784 0.0
C1531 C 0.52839 0.85614 0.42793 0.0
C1532 C 0.54577 0.88216 0.45348 0.0
C1533 C 0.49466 0.85494 0.43022 0.0
C1534 C 0.47645 0.8807 0.45366 0.0
H1535 H 0.54095 0.83685 0.40416 0.0
H1536 H 0.48278 0.83452 0.4095 0.0
S1537 S 0.50929 0.95137 0.53759 0.0
N1538 N 0.54134 0.93126 0.51523 0.0
N1539 N 0.47837 0.93076 0.5114 0.0
C1540 C 0.49338 0.90565 0.48337 0.0
C1541 C 0.52779 0.90597 0.48503 0.0
C1542 C 0.35855 0.27857 0.70005 0.0
C1543 C 0.38593 0.29737 0.68976 0.0
C1544 C 0.36012 0.24478 0.70403 0.0
C1545 C 0.38878 0.22785 0.69364 0.0
H1546 H 0.33547 0.29003 0.70353 0.0
H1547 H 0.33819 0.23171 0.71024 0.0
S1548 S 0.46792 0.26543 0.67275 0.0
N1549 N 0.44334 0.29613 0.67816 0.0
N1550 N 0.4457 0.23318 0.67836 0.0
C1551 C 0.41646 0.24645 0.68608 0.0
C1552 C 0.41516 0.28089 0.68579 0.0
C1553 C 1.00189 0.16507 0.90187 0.0
C1554 C 0.98414 0.1447 0.9415 0.0
C1555 C 0.03552 0.16487 0.90165 0.0
C1556 C 0.05372 0.14362 0.93956 0.0
H1557 H 0.98961 0.1807 0.86862 0.0
H1558 H 0.04739 0.18096 0.86923 0.0
S1559 S 0.01941 0.08519 0.05299 0.0
N1560 N 0.98776 0.10311 0.0219 0.0
N1561 N 0.05082 0.10201 0.01995 0.0
C1562 C 0.03644 0.12381 0.98143 0.0
C1563 C 1.00186 0.12444 0.98255 0.0
C1564 C 0.11678 0.28155 0.89925 0.0
C1565 C 0.13441 0.2993 0.85433 0.0
C1566 C 0.11798 0.24795 0.90183 0.0
C1567 C 0.13688 0.22955 0.85965 0.0
H1568 H 0.10236 0.29384 0.9346 0.0
H1569 H 0.1044 0.23626 0.93889 0.0
S1570 S 0.18748 0.26334 0.73126 0.0
N1571 N 0.17116 0.29516 0.76501 0.0
N1572 N 0.17322 0.23212 0.76958 0.0
C1573 C 0.15378 0.24669 0.81256 0.0
C1574 C 0.15261 0.28132 0.80999 0.0
C1575 C 0.02273 0.86107 0.14393 0.0
C1576 C 0.04037 0.88049 0.10193 0.0
C1577 C 0.98909 0.86211 0.14667 0.0
C1578 C 0.97068 0.88275 0.10795 0.0
H1579 H 0.03518 0.8457 0.17745 0.0
H1580 H 0.97738 0.84749 0.18201 0.0
S1581 S 1.00408 0.93789 0.98721 0.0
N1582 N 0.03599 0.92018 0.01781 0.0
N1583 N 0.97298 0.92246 0.02393 0.0
C1584 C 0.98766 0.90131 0.0634 0.0
C1585 C 0.02226 0.90007 0.06013 0.0
C1586 C 0.36928 0.74138 0.31192 0.0
C1587 C 0.39149 0.72351 0.34867 0.0
C1588 C 0.36982 0.77541 0.31103 0.0
C1589 C 0.39248 0.79298 0.3473 0.0
H1590 H 0.3502 0.72908 0.28677 0.0
H1591 H 0.35112 0.78796 0.28539 0.0
S1592 S 0.45706 0.75778 0.44754 0.0
N1593 N 0.43731 0.72659 0.41972 0.0
N1594 N 0.43892 0.78919 0.41704 0.0
C1595 C 0.41553 0.77514 0.38141 0.0
C1596 C 0.41483 0.74093 0.38255 0.0
C1597 C 0.52857 0.10984 0.60847 0.0
C1598 C 0.54446 0.1388 0.59697 0.0
C1599 C 0.49487 0.1078 0.61117 0.0
C1600 C 0.47484 0.13431 0.59902 0.0
H1601 H 0.54242 0.08862 0.61812 0.0
H1602 H 0.48441 0.08521 0.62437 0.0
S1603 S 0.50348 0.21426 0.55143 0.0
N1604 N 0.53656 0.19378 0.56436 0.0
N1605 N 0.47384 0.18949 0.5653 0.0
C1606 C 0.49022 0.16263 0.58077 0.0
C1607 C 0.52469 0.16498 0.58046 0.0
C1608 C 0.87101 0.24018 0.81636 0.0
C1609 C 0.89428 0.22207 0.84989 0.0
C1610 C 0.87186 0.27432 0.81535 0.0
C1611 C 0.89572 0.29189 0.84872 0.0
H1612 H 0.85099 0.22807 0.79406 0.0
H1613 H 0.85246 0.287 0.79219 0.0
S1614 S 0.96346 0.25554 0.93866 0.0
N1615 N 0.94326 0.22467 0.91143 0.0
N1616 N 0.94403 0.28729 0.91297 0.0
C1617 C 0.91962 0.27368 0.87969 0.0
C1618 C 0.91911 0.23939 0.87936 0.0
C1619 C 0.61438 0.77848 0.40082 0.0
C1620 C 0.63429 0.79717 0.36194 0.0
C1621 C 0.61433 0.74485 0.39785 0.0
C1622 C 0.63442 0.7273 0.35625 0.0
H1623 H 0.59903 0.79 0.43562 0.0
H1624 H 0.5989 0.73237 0.43068 0.0
S1625 S 0.69072 0.76418 0.2417 0.0
N1626 N 0.67405 0.79518 0.27777 0.0
N1627 N 0.67426 0.73204 0.27277 0.0
C1628 C 0.65363 0.74558 0.31482 0.0
C1629 C 0.65351 0.78027 0.31757 0.0
C1630 C 0.91419 0.74944 0.16147 0.0
C1631 C 0.89393 0.72996 0.198 0.0
C1632 C 0.91479 0.78297 0.16812 0.0
C1633 C 0.89451 0.79974 0.2106 0.0
H1634 H 0.92896 0.7388 0.12472 0.0
H1635 H 0.93015 0.79613 0.13623 0.0
S1636 S 0.83633 0.76086 0.3183 0.0
N1637 N 0.85332 0.7305 0.28059 0.0
N1638 N 0.85357 0.79348 0.29129 0.0
C1639 C 0.87483 0.78068 0.24961 0.0
C1640 C 0.87464 0.74605 0.24355 0.0
C1641 C 0.66809 0.25176 0.70772 0.0
C1642 C 0.64031 0.2328 0.70809 0.0
C1643 C 0.66678 0.28542 0.70505 0.0
C1644 C 0.6378 0.30206 0.69852 0.0
H1645 H 0.69129 0.24037 0.70712 0.0
H1646 H 0.68884 0.2984 0.70484 0.0
S1647 S 0.55777 0.26502 0.70914 0.0
N1648 N 0.58248 0.23433 0.71361 0.0
N1649 N 0.58024 0.29707 0.70168 0.0
C1650 C 0.60974 0.28375 0.70329 0.0
C1651 C 0.61098 0.24941 0.70986 0.0
C1652 C 0.99759 0.42219 0.94967 0.0
C1653 C 0.97999 0.39363 0.95546 0.0
C1654 C 0.03132 0.42251 0.94783 0.0
C1655 C 0.04945 0.39427 0.94768 0.0
H1656 H 0.98507 0.44463 0.94398 0.0
H1657 H 0.0432 0.44508 0.94377 0.0
S1658 S 0.01695 0.31386 0.97749 0.0
N1659 N 0.98482 0.33677 0.97508 0.0
N1660 N 0.04768 0.33738 0.9648 0.0
C1661 C 0.03264 0.36587 0.95888 0.0
C1662 C 0.99822 0.36558 0.96435 0.0
C1663 C 0.49528 0.61606 0.4666 0.0
C1664 C 0.47773 0.63857 0.4301 0.0
C1665 C 0.5293 0.61518 0.46617 0.0
C1666 C 0.54731 0.63707 0.42998 0.0
H1667 H 0.48264 0.5978 0.49258 0.0
H1668 H 0.54145 0.59634 0.49197 0.0
S1669 S 0.51308 0.70441 0.33658 0.0
N1670 N 0.4816 0.68467 0.36134 0.0
N1671 N 0.54429 0.685 0.36538 0.0
C1672 C 0.52988 0.661 0.39754 0.0
C1673 C 0.4956 0.6612 0.39627 0.0
C1674 C 0.49425 0.41646 0.60622 0.0
C1675 C 0.47805 0.38721 0.59819 0.0
C1676 C 0.52805 0.41832 0.6077 0.0
C1677 C 0.54757 0.39109 0.6 0.0
H1678 H 0.48065 0.43807 0.61436 0.0
H1679 H 0.53894 0.44127 0.61671 0.0
S1680 S 0.51798 0.30936 0.56756 0.0
N1681 N 0.48508 0.33066 0.57632 0.0
N1682 N 0.54792 0.33445 0.57718 0.0
C1683 C 0.53181 0.36211 0.58742 0.0
C1684 C 0.49738 0.36008 0.58697 0.0
C1685 C 0.02779 0.62043 0.06835 0.0
C1686 C 0.04474 0.64642 0.09513 0.0
C1687 C 0.99396 0.61937 0.0691 0.0
C1688 C 0.97551 0.64495 0.09332 0.0
H1689 H 0.04074 0.59968 0.05147 0.0
H1690 H 0.98217 0.59781 0.05279 0.0
S1691 S 1.00797 0.71996 0.16206 0.0
N1692 N 0.03994 0.69873 0.14431 0.0
N1693 N 0.97716 0.69801 0.13964 0.0
C1694 C 0.99218 0.67191 0.11553 0.0
C1695 C 0.02646 0.67233 0.11784 0.0
C1696 C 0.17093 0.53687 1.00366 0.0
C1697 C 0.14391 0.54918 0.03592 0.0
C1698 C 0.16933 0.50963 0.96235 0.0
C1699 C 0.14099 0.49187 0.95378 0.0
H1700 H 0.1939 0.54792 1.01156 0.0
H1701 H 0.19104 0.50127 0.94004 0.0
S1702 S 0.06287 0.51367 0.02436 0.0
N1703 N 0.08699 0.54199 0.05072 0.0
N1704 N 0.08513 0.48927 0.98124 0.0
C1705 C 0.11389 0.50383 0.98577 0.0
C1706 C 0.11508 0.53249 0.02487 0.0
C1707 C 0.74216 0.86925 0.30671 0.0
C1708 C 0.72799 0.8981 0.32786 0.0
C1709 C 0.77183 0.86853 0.27369 0.0
C1710 C 0.78947 0.89656 0.26115 0.0
H1711 H 0.72996 0.84694 0.31485 0.0
H1712 H 0.78117 0.84565 0.25834 0.0
S1713 S 0.76379 0.97833 0.30856 0.0
N1714 N 0.73464 0.95541 0.33405 0.0
N1715 N 0.78994 0.95414 0.27473 0.0
C1716 C 0.77569 0.92545 0.28309 0.0
C1717 C 0.74526 0.9262 0.31542 0.0
C1718 C 0.40429 0.50288 0.56097 0.0
C1719 C 0.37793 0.48201 0.55752 0.0
C1720 C 0.40561 0.53148 0.52463 0.0
C1721 C 0.38094 0.54083 0.48168 0.0
H1722 H 0.42425 0.49713 0.59213 0.0
H1723 H 0.42649 0.54641 0.52999 0.0
S1724 S 0.30532 0.49667 0.45701 0.0
N1725 N 0.32517 0.47483 0.50963 0.0
N1726 N 0.32865 0.52707 0.44033 0.0
C1727 C 0.35441 0.5204 0.47784 0.0
C1728 C 0.35265 0.49163 0.51587 0.0
C1729 C 0.7932 0.13517 0.74446 0.0
C1730 C 0.79529 0.14124 0.81202 0.0
C1731 C 0.76418 0.13721 0.70853 0.0
C1732 C 0.73509 0.14584 0.73733 0.0
H1733 H 0.8143 0.12809 0.71837 0.0
H1734 H 0.76453 0.13114 0.65788 0.0
S1735 S 0.72702 0.16961 0.90965 0.0
N1736 N 0.76503 0.15992 0.90345 0.0
N1737 N 0.71129 0.16395 0.83756 0.0
C1738 C 0.73701 0.1536 0.80404 0.0
C1739 C 0.7666 0.15135 0.84062 0.0
C1740 C 0.87487 0.51355 0.07944 0.0
C1741 C 0.88396 0.54302 0.05296 0.0
C1742 C 0.87604 0.4844 0.04365 0.0
C1743 C 0.88606 0.48242 0.97831 0.0
H1744 H 0.86648 0.51284 0.12844 0.0
H1745 H 0.86856 0.46301 0.06802 0.0
S1746 S 0.91417 0.5519 0.88538 0.0
N1747 N 0.90492 0.56742 0.95595 0.0
N1748 N 0.90632 0.5135 0.89031 0.0
C1749 C 0.89544 0.51161 0.95136 0.0
C1750 C 0.89459 0.54136 0.98791 0.0
C1751 C 0.24875 0.10382 0.78977 0.0
C1752 C 0.23467 0.13218 0.81355 0.0
C1753 C 0.27655 0.10397 0.75117 0.0
C1754 C 0.29157 0.13251 0.73215 0.0
H1755 H 0.23833 0.08104 0.80163 0.0
H1756 H 0.28616 0.08128 0.73536 0.0
S1757 S 0.26422 0.21371 0.77903 0.0
N1758 N 0.23849 0.18993 0.81436 0.0
N1759 N 0.28932 0.19023 0.7402 0.0
C1760 C 0.27746 0.16111 0.75465 0.0
C1761 C 0.24961 0.16093 0.79559 0.0
C1762 C 0.66829 0.51619 0.46744 0.0
C1763 C 0.64044 0.53513 0.46275 0.0
C1764 C 0.67016 0.48908 0.50852 0.0
C1765 C 0.64414 0.47868 0.5462 0.0
H1766 H 0.68955 0.52356 0.44248 0.0
H1767 H 0.69274 0.47673 0.51236 0.0
S1768 S 0.56393 0.51663 0.54289 0.0
N1769 N 0.58537 0.53956 0.49581 0.0
N1770 N 0.58815 0.48812 0.56796 0.0
C1771 C 0.61561 0.49631 0.53844 0.0
C1772 C 0.61397 0.52436 0.49815 0.0
C1773 C 0.28343 0.91733 0.25317 0.0
C1774 C 0.29366 0.89174 0.29288 0.0
C1775 C 0.25501 0.91591 0.21474 0.0
C1776 C 0.23449 0.88913 0.21457 0.0
H1777 H 0.29764 0.9388 0.25144 0.0
H1778 H 0.24848 0.93655 0.18657 0.0
S1779 S 0.25085 0.81476 0.3055 0.0
N1780 N 0.28163 0.83754 0.32334 0.0
N1781 N 0.2275 0.83625 0.25853 0.0
C1782 C 0.24449 0.86356 0.25411 0.0
C1783 C 0.27397 0.8645 0.29105 0.0
C1784 C 0.66077 0.01196 0.46953 0.0
C1785 C 0.6361 0.98955 0.47873 0.0
C1786 C 0.6628 0.04085 0.50623 0.0
C1787 C 0.63977 0.04956 0.55301 0.0
H1788 H 0.67954 1.00648 0.43579 0.0
H1789 H 0.68274 0.05653 0.49772 0.0
S1790 S 0.56863 1.00115 0.59107 0.0
N1791 N 0.5878 0.97921 0.53778 0.0
N1792 N 0.58988 0.0338 0.60072 0.0
C1793 C 0.61437 0.02798 0.56014 0.0
C1794 C 0.61299 0.99818 0.52479 0.0
C1795 C 0.24993 0.37056 0.79902 0.0
C1796 C 0.22824 0.39616 0.79157 0.0
C1797 C 0.27868 0.36819 0.76344 0.0
C1798 C 0.28674 0.39028 0.71517 0.0
H1799 H 0.24481 0.3521 0.83309 0.0
H1800 H 0.29485 0.34869 0.77394 0.0
S1801 S 0.23814 0.46101 0.67178 0.0
N1802 N 0.21765 0.44425 0.72995 0.0
N1803 N 0.26952 0.438 0.65999 0.0
C1804 C 0.26454 0.41502 0.70439 0.0
C1805 C 0.236 0.41834 0.74286 0.0
C1806 C 0.90433 1.00638 0.07559 0.0
C1807 C 0.88021 0.98307 0.06722 0.0
C1808 C 0.9057 0.03438 0.03662 0.0
C1809 C 0.88205 0.04143 0.98955 0.0
H1810 H 0.92282 1.00262 0.11133 0.0
H1811 H 0.92497 0.05106 0.04476 0.0
S1812 S 0.81446 0.98887 0.94558 0.0
N1813 N 0.83379 0.96894 1.00175 0.0
N1814 N 0.83403 0.0226 0.93757 0.0
C1815 C 0.85786 0.01873 0.98143 0.0
C1816 C 0.85753 0.98951 0.01767 0.0
C1817 C 0.23322 0.62892 0.29458 0.0
C1818 C 0.23113 0.64158 0.23102 0.0
C1819 C 0.26187 0.62878 0.33203 0.0
C1820 C 0.29046 0.64191 0.3092 0.0
H1821 H 0.21245 0.61818 0.31591 0.0
H1822 H 0.26164 0.61761 0.37875 0.0
S1823 S 0.298 0.68236 0.15035 0.0
N1824 N 0.26066 0.67013 0.15061 0.0
N1825 N 0.31358 0.67082 0.21947 0.0
C1826 C 0.2884 0.65598 0.24689 0.0
C1827 C 0.25929 0.65562 0.20854 0.0
C1828 C 0.38124 1.00963 0.45003 0.0
C1829 C 0.39106 0.98048 0.47736 0.0
C1830 C 0.38022 0.03858 0.48648 0.0
C1831 C 0.38881 0.0405 0.55291 0.0
H1832 H 0.37339 1.01005 0.40036 0.0
H1833 H 0.37187 0.05973 0.46197 0.0
S1834 S 0.42012 0.97192 0.64652 0.0
N1835 N 0.41223 0.95641 0.57511 0.0
N1836 N 0.41032 1.00996 0.64164 0.0
C1837 C 0.39981 0.01172 0.57997 0.0
C1838 C 0.40091 0.98223 0.543 0.0
C1839 C 0.77677 0.59997 0.25481 0.0
C1840 C 0.79167 0.62873 0.23649 0.0
C1841 C 0.74837 0.59929 0.29192 0.0
C1842 C 0.73327 0.62728 0.31532 0.0
H1843 H 0.78698 0.57746 0.23958 0.0
H1844 H 0.7382 0.57627 0.30282 0.0
S1845 S 0.76205 0.70934 0.28256 0.0
N1846 N 0.78814 0.68639 0.24503 0.0
N1847 N 0.73622 0.68507 0.31633 0.0
C1848 C 0.74808 0.6563 0.29816 0.0
C1849 C 0.77662 0.65702 0.25859 0.0
C1850 C 0.16936 0.02246 0.99884 0.0
C1851 C 0.14125 0.03785 0.97681 0.0
C1852 C 0.16893 0.9931 0.03255 0.0
C1853 C 0.1403 0.97749 0.04843 0.0
H1854 H 0.19225 0.03323 0.99009 0.0
H1855 H 0.19147 0.98291 0.04779 0.0
S1856 S 0.05958 1.0067 1.00181 0.0
N1857 N 0.08364 0.03401 0.97249 0.0
N1858 N 0.08265 0.97992 0.03713 0.0
C1859 C 0.1119 0.99242 0.02644 0.0
C1860 C 0.11241 0.02206 0.99049 0.0
C1861 C 0.76033 0.416 0.71575 0.0
C1862 C 0.73942 0.38965 0.71463 0.0
C1863 C 0.78807 0.41685 0.75591 0.0
C1864 C 0.79745 0.39081 0.79525 0.0
H1865 H 0.7543 0.43695 0.68804 0.0
H1866 H 0.80249 0.4382 0.75561 0.0
S1867 S 0.75361 0.314 0.80218 0.0
N1868 N 0.73125 0.3363 0.75478 0.0
N1869 N 0.78445 0.33628 0.82291 0.0
C1870 C 0.77757 0.3637 0.79149 0.0
C1871 C 0.74861 0.3635 0.7531 0.0
loop_
_geom_bond_atom_site_label_1
_geom_bond_atom_site_label_2
_geom_bond_distance
_geom_bond_site_symmetry_2
_ccdc_geom_bond_type
C0 C2 1.422 . S
C0 C4 1.415 . S
C0 N6 1.369 . S
C1 C2 1.421 . S
C1 C3 1.417 . S
C1 C13 1.422 . S
C2 C0 1.422 . S
C2 C1 1.421 . S
C2 N12 1.359 . S
C3 C1 1.417 . S
C3 C5 1.329 . S
C3 H22 0.930 . S
C4 C0 1.415 . S
C4 C5 1.437 . S
C4 C8 1.413 . S
C5 C3 1.329 . S
C5 C4 1.437 . S
C5 H27 0.929 . S
N6 C0 1.369 . S
N6 C7 1.338 . S
N6 Gd11 2.622 . S
C7 N6 1.338 . S
C7 C9 1.378 . S
C7 H19 0.929 . S
C8 C4 1.413 . S
C8 C9 1.348 . S
C8 H24 0.931 . S
C9 C7 1.378 . S
C9 C8 1.348 . S
C9 H25 0.930 1_455 S
Gd10 N30 2.622 . S
Gd10 N37 2.570 1_554 S
Gd10 O44 2.353 . S
Gd10 O45 2.468 1_554 S
Gd10 O46 2.427 1_554 S
Gd10 O48 2.388 . S
Gd10 O49 2.386 . S
Gd10 O53 2.307 . S
Gd10 C63 2.805 1_554 S
Gd11 N6 2.622 . S
Gd11 N12 2.570 . S
Gd11 O43 2.386 . S
Gd11 O47 2.307 . S
Gd11 O50 2.353 . S
Gd11 O51 2.468 . S
Gd11 O52 2.427 . S
Gd11 O54 2.388 . S
Gd11 C75 2.805 . S
N12 C2 1.359 . S
N12 Gd11 2.570 . S
N12 C14 1.343 . S
C13 C1 1.422 . S
C13 C15 1.321 . S
C13 H21 0.931 . S
C14 N12 1.343 . S
C14 C15 1.390 . S
C14 H16 0.931 . S
C15 C13 1.321 . S
C15 C14 1.390 . S
C15 H17 0.930 . S
H16 C14 0.931 . S
H17 C15 0.930 . S
H18 C41 0.931 . S
H19 C7 0.929 . S
H20 C42 0.930 . S
H21 C13 0.931 . S
H22 C3 0.930 . S
H23 C32 0.929 . S
H24 C8 0.931 . S
H25 C9 0.930 1_655 S
H26 C64 0.930 . S
H27 C5 0.929 . S
H28 C33 0.931 . S
H29 C34 0.930 . S
N30 Gd10 2.622 . S
N30 C31 1.369 1_554 S
N30 C32 1.338 . S
C31 N30 1.369 1_556 S
C31 C35 1.415 . S
C31 C38 1.422 . S
C32 H23 0.929 . S
C32 N30 1.338 . S
C32 C34 1.378 . S
C33 H28 0.931 . S
C33 C34 1.348 . S
C33 C35 1.413 1_554 S
C34 H29 0.930 . S
C34 C32 1.378 . S
C34 C33 1.348 . S
C35 C31 1.415 . S
C35 C33 1.413 1_556 S
C35 C65 1.437 . S
H36 C65 0.929 . S
N37 Gd10 2.570 1_556 S
N37 C38 1.359 . S
N37 C41 1.343 . S
C38 C31 1.422 . S
C38 N37 1.359 . S
C38 C40 1.421 . S
C39 C40 1.422 . S
C39 C42 1.321 . S
C39 H66 0.931 . S
C40 C38 1.421 . S
C40 C39 1.422 . S
C40 C64 1.417 . S
C41 H18 0.931 . S
C41 N37 1.343 . S
C41 C42 1.390 . S
C42 H20 0.930 . S
C42 C39 1.321 . S
C42 C41 1.390 . S
O43 Gd11 2.386 . S
O43 C55 1.265 . S
O44 Gd10 2.353 . S
O44 C55 1.242 . S
O45 Gd10 2.468 1_556 S
O45 C63 1.263 . S
O46 Gd10 2.427 1_556 S
O46 C63 1.252 . S
O47 Gd11 2.307 . S
O47 C56 1.261 . S
O48 Gd10 2.388 . S
O48 C56 1.252 . S
O49 Gd10 2.386 . S
O49 C67 1.265 . S
O50 Gd11 2.353 . S
O50 C67 1.242 . S
O51 Gd11 2.468 . S
O51 C75 1.263 . S
O52 Gd11 2.427 . S
O52 C75 1.252 . S
O53 Gd10 2.307 . S
O53 C68 1.261 . S
O54 Gd11 2.388 . S
O54 C68 1.252 . S
C55 O43 1.265 . S
C55 O44 1.242 . S
C56 O47 1.261 . S
C56 O48 1.252 . S
C57 C60 1.394 . S
C57 C62 1.370 . S
C57 C63 1.500 . S
C58 C61 1.383 . S
C58 C62 1.395 . S
C59 C60 1.396 . S
C59 C61 1.365 . S
C59 H76 0.929 . S
C60 C57 1.394 . S
C60 C59 1.396 . S
C60 H77 0.930 . S
C61 C58 1.383 . S
C61 C59 1.365 . S
C61 H78 0.931 . S
C62 C57 1.370 . S
C62 C58 1.395 . S
C62 H79 0.930 . S
C63 Gd10 2.805 1_556 S
C63 O45 1.263 . S
C63 O46 1.252 . S
C63 C57 1.500 . S
C64 H26 0.930 . S
C64 C40 1.417 . S
C64 C65 1.329 . S
C65 C35 1.437 . S
C65 H36 0.929 . S
C65 C64 1.329 . S
H66 C39 0.931 . S
C67 O49 1.265 . S
C67 O50 1.242 . S
C68 O53 1.261 . S
C68 O54 1.252 . S
C69 C72 1.394 . S
C69 C74 1.370 . S
C69 C75 1.500 . S
C70 C73 1.383 . S
C70 C74 1.395 . S
C71 C72 1.396 . S
C71 C73 1.365 . S
C71 H80 0.929 . S
C72 C69 1.394 . S
C72 C71 1.396 . S
C72 H81 0.930 . S
C73 C70 1.383 . S
C73 C71 1.365 . S
C73 H82 0.931 . S
C74 C69 1.370 . S
C74 C70 1.395 . S
C74 H83 0.930 . S
C75 Gd11 2.805 . S
C75 O51 1.263 . S
C75 O52 1.252 . S
C75 C69 1.500 . S
H76 C59 0.929 . S
H77 C60 0.930 . S
H78 C61 0.931 . S
H79 C62 0.930 . S
H80 C71 0.929 . S
H81 C72 0.930 . S
H82 C73 0.931 . S
H83 C74 0.930 . S
C84 C86 1.422 . S
C84 C88 1.415 . S
C84 N90 1.369 . S
C85 C86 1.421 . S
C85 C87 1.417 . S
C85 C97 1.422 . S
C86 C84 1.422 . S
C86 C85 1.421 . S
C86 N96 1.359 . S
C87 C85 1.417 . S
C87 C89 1.329 . S
C87 H106 0.930 . S
C88 C84 1.415 . S
C88 C89 1.437 . S
C88 C92 1.413 . S
C89 C87 1.329 . S
C89 C88 1.437 . S
C89 H111 0.929 . S
N90 C84 1.369 . S
N90 C91 1.338 . S
N90 Gd95 2.622 . S
C91 N90 1.338 . S
C91 C93 1.378 . S
C91 H103 0.929 . S
C92 C88 1.413 . S
C92 C93 1.348 . S
C92 H108 0.931 . S
C93 C91 1.378 . S
C93 C92 1.348 . S
C93 H109 0.930 . S
Gd94 N114 2.622 . S
Gd94 N121 2.570 . S
Gd94 O128 2.353 . S
Gd94 O129 2.468 . S
Gd94 O130 2.427 . S
Gd94 O132 2.388 . S
Gd94 O133 2.386 . S
Gd94 O137 2.307 . S
Gd94 C147 2.805 . S
Gd95 N90 2.622 . S
Gd95 N96 2.570 . S
Gd95 O127 2.386 . S
Gd95 O131 2.307 . S
Gd95 O134 2.353 . S
Gd95 O135 2.468 . S
Gd95 O136 2.427 . S
Gd95 O138 2.388 . S
Gd95 C159 2.805 . S
N96 C86 1.359 . S
N96 Gd95 2.570 . S
N96 C98 1.343 . S
C97 C85 1.422 . S
C97 C99 1.321 . S
C97 H105 0.931 . S
C98 N96 1.343 . S
C98 C99 1.390 . S
C98 H100 0.931 . S
C99 C97 1.321 . S
C99 C98 1.390 . S
C99 H101 0.930 . S
H100 C98 0.931 . S
H101 C99 0.930 . S
H102 C125 0.931 . S
H103 C91 0.929 . S
H104 C126 0.930 . S
H105 C97 0.931 . S
H106 C87 0.930 . S
H107 C116 0.929 . S
H108 C92 0.931 . S
H109 C93 0.930 . S
H110 C148 0.930 . S
H111 C89 0.929 . S
H112 C117 0.931 1_545 S
H113 C118 0.930 1_545 S
N114 Gd94 2.622 . S
N114 C115 1.369 . S
N114 C116 1.338 . S
C115 N114 1.369 . S
C115 C119 1.415 . S
C115 C122 1.422 . S
C116 H107 0.929 . S
C116 N114 1.338 . S
C116 C118 1.378 . S
C117 H112 0.931 1_565 S
C117 C118 1.348 . S
C117 C119 1.413 . S
C118 H113 0.930 1_565 S
C118 C116 1.378 . S
C118 C117 1.348 . S
C119 C115 1.415 . S
C119 C117 1.413 . S
C119 C149 1.437 . S
H120 C149 0.929 . S
N121 Gd94 2.570 . S
N121 C122 1.359 . S
N121 C125 1.343 . S
C122 C115 1.422 . S
C122 N121 1.359 . S
C122 C124 1.421 . S
C123 C124 1.422 . S
C123 C126 1.321 . S
C123 H150 0.931 . S
C124 C122 1.421 . S
C124 C123 1.422 . S
C124 C148 1.417 . S
C125 H102 0.931 . S
C125 N121 1.343 . S
C125 C126 1.390 . S
C126 H104 0.930 . S
C126 C123 1.321 . S
C126 C125 1.390 . S
O127 Gd95 2.386 . S
O127 C139 1.265 . S
O128 Gd94 2.353 . S
O128 C139 1.242 . S
O129 Gd94 2.468 . S
O129 C147 1.263 . S
O130 Gd94 2.427 . S
O130 C147 1.252 . S
O131 Gd95 2.307 . S
O131 C140 1.261 . S
O132 Gd94 2.388 . S
O132 C140 1.252 . S
O133 Gd94 2.386 . S
O133 C151 1.265 . S
O134 Gd95 2.353 . S
O134 C151 1.242 . S
O135 Gd95 2.468 . S
O135 C159 1.263 . S
O136 Gd95 2.427 . S
O136 C159 1.252 . S
O137 Gd94 2.307 . S
O137 C152 1.261 . S
O138 Gd95 2.388 . S
O138 C152 1.252 . S
C139 O127 1.265 . S
C139 O128 1.242 . S
C140 O131 1.261 . S
C140 O132 1.252 . S
C141 C144 1.394 . S
C141 C146 1.370 . S
C141 C147 1.500 . S
C142 C145 1.383 1_554 S
C142 C146 1.395 . S
C143 C144 1.396 . S
C143 C145 1.365 1_554 S
C143 H160 0.929 1_554 S
C144 C141 1.394 . S
C144 C143 1.396 . S
C144 H161 0.930 . S
C145 C142 1.383 1_556 S
C145 C143 1.365 1_556 S
C145 H162 0.931 . S
C146 C141 1.370 . S
C146 C142 1.395 . S
C146 H163 0.930 . S
C147 Gd94 2.805 . S
C147 O129 1.263 . S
C147 O130 1.252 . S
C147 C141 1.500 . S
C148 H110 0.930 . S
C148 C124 1.417 . S
C148 C149 1.329 . S
C149 C119 1.437 . S
C149 H120 0.929 . S
C149 C148 1.329 . S
H150 C123 0.931 . S
C151 O133 1.265 . S
C151 O134 1.242 . S
C152 O137 1.261 . S
C152 O138 1.252 . S
C153 C156 1.394 . S
C153 C158 1.370 . S
C153 C159 1.500 . S
C154 C157 1.383 . S
C154 C158 1.395 . S
C155 C156 1.396 . S
C155 C157 1.365 . S
C155 H164 0.929 . S
C156 C153 1.394 . S
C156 C155 1.396 . S
C156 H165 0.930 . S
C157 C154 1.383 . S
C157 C155 1.365 . S
C157 H166 0.931 . S
C158 C153 1.370 . S
C158 C154 1.395 . S
C158 H167 0.930 . S
C159 Gd95 2.805 . S
C159 O135 1.263 . S
C159 O136 1.252 . S
C159 C153 1.500 . S
H160 C143 0.929 1_556 S
H161 C144 0.930 . S
H162 C145 0.931 . S
H163 C146 0.930 . S
H164 C155 0.929 . S
H165 C156 0.930 . S
H166 C157 0.931 . S
H167 C158 0.930 . S
C168 C170 1.422 . S
C168 C172 1.415 . S
C168 N174 1.369 . S
C169 C170 1.421 . S
C169 C171 1.417 . S
C169 C181 1.422 . S
C170 C168 1.422 . S
C170 C169 1.421 . S
C170 N180 1.359 . S
C171 C169 1.417 . S
C171 C173 1.329 . S
C171 H190 0.930 . S
C172 C168 1.415 . S
C172 C173 1.437 . S
C172 C176 1.413 . S
C173 C171 1.329 . S
C173 C172 1.437 . S
C173 H195 0.929 . S
N174 C168 1.369 . S
N174 C175 1.338 . S
N174 Gd179 2.622 . S
C175 N174 1.338 . S
C175 C177 1.378 . S
C175 H187 0.929 . S
C176 C172 1.413 . S
C176 C177 1.348 . S
C176 H192 0.931 . S
C177 C175 1.378 . S
C177 C176 1.348 . S
C177 H193 0.930 . S
Gd178 N198 2.622 . S
Gd178 N205 2.570 . S
Gd178 O212 2.353 . S
Gd178 O213 2.468 . S
Gd178 O214 2.427 . S
Gd178 O216 2.388 . S
Gd178 O217 2.386 . S
Gd178 O221 2.307 . S
Gd178 C231 2.805 . S
Gd179 N174 2.622 . S
Gd179 N180 2.570 . S
Gd179 O211 2.386 . S
Gd179 O215 2.307 . S
Gd179 O218 2.353 . S
Gd179 O219 2.468 . S
Gd179 O220 2.427 . S
Gd179 O222 2.388 . S
Gd179 C243 2.805 . S
N180 C170 1.359 . S
N180 Gd179 2.570 . S
N180 C182 1.343 . S
C181 C169 1.422 . S
C181 C183 1.321 . S
C181 H189 0.931 . S
C182 N180 1.343 . S
C182 C183 1.390 . S
C182 H184 0.931 . S
C183 C181 1.321 . S
C183 C182 1.390 . S
C183 H185 0.930 . S
H184 C182 0.931 . S
H185 C183 0.930 . S
H186 C209 0.931 . S
H187 C175 0.929 . S
H188 C210 0.930 . S
H189 C181 0.931 . S
H190 C171 0.930 . S
H191 C200 0.929 . S
H192 C176 0.931 . S
H193 C177 0.930 . S
H194 C232 0.930 . S
H195 C173 0.929 . S
H196 C201 0.931 . S
H197 C202 0.930 . S
N198 Gd178 2.622 . S
N198 C199 1.369 . S
N198 C200 1.338 . S
C199 N198 1.369 . S
C199 C203 1.415 . S
C199 C206 1.422 . S
C200 H191 0.929 . S
C200 N198 1.338 . S
C200 C202 1.378 . S
C201 H196 0.931 . S
C201 C202 1.348 . S
C201 C203 1.413 . S
C202 H197 0.930 . S
C202 C200 1.378 . S
C202 C201 1.348 . S
C203 C199 1.415 . S
C203 C201 1.413 . S
C203 C233 1.437 . S
H204 C233 0.929 . S
N205 Gd178 2.570 . S
N205 C206 1.359 . S
N205 C209 1.343 . S
C206 C199 1.422 . S
C206 N205 1.359 . S
C206 C208 1.421 . S
C207 C208 1.422 . S
C207 C210 1.321 . S
C207 H234 0.931 . S
C208 C206 1.421 . S
C208 C207 1.422 . S
C208 C232 1.417 . S
C209 H186 0.931 . S
C209 N205 1.343 . S
C209 C210 1.390 . S
C210 H188 0.930 . S
C210 C207 1.321 . S
C210 C209 1.390 . S
O211 Gd179 2.386 . S
O211 C223 1.265 . S
O212 Gd178 2.353 . S
O212 C223 1.242 . S
O213 Gd178 2.468 . S
O213 C231 1.263 . S
O214 Gd178 2.427 . S
O214 C231 1.252 . S
O215 Gd179 2.307 . S
O215 C224 1.261 . S
O216 Gd178 2.388 . S
O216 C224 1.252 . S
O217 Gd178 2.386 . S
O217 C235 1.265 . S
O218 Gd179 2.353 . S
O218 C235 1.242 . S
O219 Gd179 2.468 . S
O219 C243 1.263 . S
O220 Gd179 2.427 . S
O220 C243 1.252 . S
O221 Gd178 2.307 . S
O221 C236 1.261 . S
O222 Gd179 2.388 . S
O222 C236 1.252 . S
C223 O211 1.265 . S
C223 O212 1.242 . S
C224 O215 1.261 . S
C224 O216 1.252 . S
C225 C228 1.394 . S
C225 C230 1.370 . S
C225 C231 1.500 . S
C226 C229 1.383 . S
C226 C230 1.395 . S
C227 C228 1.396 . S
C227 C229 1.365 . S
C227 H244 0.929 . S
C228 C225 1.394 . S
C228 C227 1.396 . S
C228 H245 0.930 . S
C229 C226 1.383 . S
C229 C227 1.365 . S
C229 H246 0.931 . S
C230 C225 1.370 . S
C230 C226 1.395 . S
C230 H247 0.930 . S
C231 Gd178 2.805 . S
C231 O213 1.263 . S
C231 O214 1.252 . S
C231 C225 1.500 . S
C232 H194 0.930 . S
C232 C208 1.417 . S
C232 C233 1.329 . S
C233 C203 1.437 . S
C233 H204 0.929 . S
C233 C232 1.329 . S
H234 C207 0.931 . S
C235 O217 1.265 . S
C235 O218 1.242 . S
C236 O221 1.261 . S
C236 O222 1.252 . S
C237 C240 1.394 . S
C237 C242 1.370 . S
C237 C243 1.500 . S
C238 C241 1.383 . S
C238 C242 1.395 1_554 S
C239 C240 1.396 . S
C239 C241 1.365 1_556 S
C239 H248 0.929 1_556 S
C240 C237 1.394 . S
C240 C239 1.396 . S
C240 H249 0.930 . S
C241 C238 1.383 . S
C241 C239 1.365 1_554 S
C241 H250 0.931 . S
C242 C237 1.370 . S
C242 C238 1.395 1_556 S
C242 H251 0.930 . S
C243 Gd179 2.805 . S
C243 O219 1.263 . S
C243 O220 1.252 . S
C243 C237 1.500 . S
H244 C227 0.929 . S
H245 C228 0.930 . S
H246 C229 0.931 . S
H247 C230 0.930 . S
H248 C239 0.929 1_554 S
H249 C240 0.930 . S
H250 C241 0.931 . S
H251 C242 0.930 . S
C252 C254 1.422 . S
C252 C256 1.415 . S
C252 N258 1.369 . S
C253 C254 1.421 1_565 S
C253 C255 1.417 . S
C253 C265 1.422 . S
C254 C252 1.422 . S
C254 C253 1.421 1_545 S
C254 N264 1.359 . S
C255 C253 1.417 . S
C255 C257 1.329 . S
C255 H274 0.930 . S
C256 C252 1.415 . S
C256 C257 1.437 1_545 S
C256 C260 1.413 . S
C257 C255 1.329 . S
C257 C256 1.437 1_565 S
C257 H279 0.929 . S
N258 C252 1.369 . S
N258 C259 1.338 . S
N258 Gd263 2.622 . S
C259 N258 1.338 . S
C259 C261 1.378 . S
C259 H271 0.929 . S
C260 C256 1.413 . S
C260 C261 1.348 . S
C260 H276 0.931 1_545 S
C261 C259 1.378 . S
C261 C260 1.348 . S
C261 H277 0.930 1_655 S
Gd262 N282 2.622 . S
Gd262 N289 2.570 1_556 S
Gd262 O296 2.353 . S
Gd262 O297 2.468 1_556 S
Gd262 O298 2.427 1_556 S
Gd262 O300 2.388 . S
Gd262 O301 2.386 . S
Gd262 O305 2.307 . S
Gd262 C315 2.805 1_556 S
Gd263 N258 2.622 . S
Gd263 N264 2.570 . S
Gd263 O295 2.386 . S
Gd263 O299 2.307 . S
Gd263 O302 2.353 . S
Gd263 O303 2.468 . S
Gd263 O304 2.427 . S
Gd263 O306 2.388 . S
Gd263 C327 2.805 . S
N264 C254 1.359 . S
N264 Gd263 2.570 . S
N264 C266 1.343 . S
C265 C253 1.422 . S
C265 C267 1.321 1_565 S
C265 H273 0.931 . S
C266 N264 1.343 . S
C266 C267 1.390 . S
C266 H268 0.931 . S
C267 C265 1.321 1_545 S
C267 C266 1.390 . S
C267 H269 0.930 . S
H268 C266 0.931 . S
H269 C267 0.930 . S
H270 C293 0.931 . S
H271 C259 0.929 . S
H272 C294 0.930 . S
H273 C265 0.931 . S
H274 C255 0.930 . S
H275 C284 0.929 . S
H276 C260 0.931 1_565 S
H277 C261 0.930 1_455 S
H278 C316 0.930 . S
H279 C257 0.929 . S
H280 C285 0.931 . S
H281 C286 0.930 . S
N282 Gd262 2.622 . S
N282 C283 1.369 1_556 S
N282 C284 1.338 . S
C283 N282 1.369 1_554 S
C283 C287 1.415 . S
C283 C290 1.422 . S
C284 H275 0.929 . S
C284 N282 1.338 . S
C284 C286 1.378 . S
C285 H280 0.931 . S
C285 C286 1.348 . S
C285 C287 1.413 1_556 S
C286 H281 0.930 . S
C286 C284 1.378 . S
C286 C285 1.348 . S
C287 C283 1.415 . S
C287 C285 1.413 1_554 S
C287 C317 1.437 . S
H288 C317 0.929 . S
N289 Gd262 2.570 1_554 S
N289 C290 1.359 . S
N289 C293 1.343 . S
C290 C283 1.422 . S
C290 N289 1.359 . S
C290 C292 1.421 . S
C291 C292 1.422 . S
C291 C294 1.321 . S
C291 H318 0.931 . S
C292 C290 1.421 . S
C292 C291 1.422 . S
C292 C316 1.417 . S
C293 H270 0.931 . S
C293 N289 1.343 . S
C293 C294 1.390 . S
C294 H272 0.930 . S
C294 C291 1.321 . S
C294 C293 1.390 . S
O295 Gd263 2.386 . S
O295 C307 1.265 . S
O296 Gd262 2.353 . S
O296 C307 1.242 . S
O297 Gd262 2.468 1_554 S
O297 C315 1.263 . S
O298 Gd262 2.427 1_554 S
O298 C315 1.252 . S
O299 Gd263 2.307 . S
O299 C308 1.261 . S
O300 Gd262 2.388 . S
O300 C308 1.252 . S
O301 Gd262 2.386 . S
O301 C319 1.265 . S
O302 Gd263 2.353 . S
O302 C319 1.242 . S
O303 Gd263 2.468 . S
O303 C327 1.263 . S
O304 Gd263 2.427 . S
O304 C327 1.252 . S
O305 Gd262 2.307 . S
O305 C320 1.261 . S
O306 Gd263 2.388 . S
O306 C320 1.252 . S
C307 O295 1.265 . S
C307 O296 1.242 . S
C308 O299 1.261 . S
C308 O300 1.252 . S
C309 C312 1.394 . S
C309 C314 1.370 . S
C309 C315 1.500 . S
C310 C313 1.383 . S
C310 C314 1.395 . S
C311 C312 1.396 . S
C311 C313 1.365 . S
C311 H328 0.929 . S
C312 C309 1.394 . S
C312 C311 1.396 . S
C312 H329 0.930 . S
C313 C310 1.383 . S
C313 C311 1.365 . S
C313 H330 0.931 . S
C314 C309 1.370 . S
C314 C310 1.395 . S
C314 H331 0.930 . S
C315 Gd262 2.805 1_554 S
C315 O297 1.263 . S
C315 O298 1.252 . S
C315 C309 1.500 . S
C316 H278 0.930 . S
C316 C292 1.417 . S
C316 C317 1.329 . S
C317 C287 1.437 . S
C317 H288 0.929 . S
C317 C316 1.329 . S
H318 C291 0.931 . S
C319 O301 1.265 . S
C319 O302 1.242 . S
C320 O305 1.261 . S
C320 O306 1.252 . S
C321 C324 1.394 . S
C321 C326 1.370 . S
C321 C327 1.500 . S
C322 C325 1.383 . S
C322 C326 1.395 . S
C323 C324 1.396 . S
C323 C325 1.365 . S
C323 H332 0.929 . S
C324 C321 1.394 . S
C324 C323 1.396 . S
C324 H333 0.930 . S
C325 C322 1.383 . S
C325 C323 1.365 . S
C325 H334 0.931 . S
C326 C321 1.370 . S
C326 C322 1.395 . S
C326 H335 0.930 . S
C327 Gd263 2.805 . S
C327 O303 1.263 . S
C327 O304 1.252 . S
C327 C321 1.500 . S
H328 C311 0.929 . S
H329 C312 0.930 . S
H330 C313 0.931 . S
H331 C314 0.930 . S
H332 C323 0.929 . S
H333 C324 0.930 . S
H334 C325 0.931 . S
H335 C326 0.930 . S
C336 C338 1.422 . S
C336 C340 1.415 . S
C336 N342 1.369 1_554 S
C337 C338 1.421 . S
C337 C339 1.417 . S
C337 C349 1.422 . S
C338 C336 1.422 . S
C338 C337 1.421 . S
C338 N348 1.359 . S
C339 C337 1.417 . S
C339 C341 1.329 . S
C339 H358 0.930 . S
C340 C336 1.415 . S
C340 C341 1.437 . S
C340 C344 1.413 1_554 S
C341 C339 1.329 . S
C341 C340 1.437 . S
C341 H363 0.929 . S
N342 C336 1.369 1_556 S
N342 C343 1.338 . S
N342 Gd347 2.622 . S
C343 N342 1.338 . S
C343 C345 1.378 . S
C343 H355 0.929 . S
C344 C340 1.413 1_556 S
C344 C345 1.348 . S
C344 H360 0.931 . S
C345 C343 1.378 . S
C345 C344 1.348 . S
C345 H361 0.930 . S
Gd346 N366 2.622 . S
Gd346 N373 2.570 . S
Gd346 O380 2.353 . S
Gd346 O381 2.468 . S
Gd346 O382 2.427 . S
Gd346 O384 2.388 . S
Gd346 O385 2.386 . S
Gd346 O389 2.307 . S
Gd346 C399 2.805 . S
Gd347 N342 2.622 . S
Gd347 N348 2.570 1_556 S
Gd347 O379 2.386 . S
Gd347 O383 2.307 . S
Gd347 O386 2.353 . S
Gd347 O387 2.468 1_556 S
Gd347 O388 2.427 1_556 S
Gd347 O390 2.388 . S
Gd347 C411 2.805 1_556 S
N348 C338 1.359 . S
N348 Gd347 2.570 1_554 S
N348 C350 1.343 . S
C349 C337 1.422 . S
C349 C351 1.321 . S
C349 H357 0.931 . S
C350 N348 1.343 . S
C350 C351 1.390 . S
C350 H352 0.931 . S
C351 C349 1.321 . S
C351 C350 1.390 . S
C351 H353 0.930 . S
H352 C350 0.931 . S
H353 C351 0.930 . S
H354 C377 0.931 . S
H355 C343 0.929 . S
H356 C378 0.930 . S
H357 C349 0.931 . S
H358 C339 0.930 . S
H359 C368 0.929 . S
H360 C344 0.931 . S
H361 C345 0.930 . S
H362 C400 0.930 . S
H363 C341 0.929 . S
H364 C369 0.931 . S
H365 C370 0.930 . S
N366 Gd346 2.622 . S
N366 C367 1.369 . S
N366 C368 1.338 . S
C367 N366 1.369 . S
C367 C371 1.415 . S
C367 C374 1.422 . S
C368 H359 0.929 . S
C368 N366 1.338 . S
C368 C370 1.378 . S
C369 H364 0.931 . S
C369 C370 1.348 . S
C369 C371 1.413 . S
C370 H365 0.930 . S
C370 C368 1.378 . S
C370 C369 1.348 . S
C371 C367 1.415 . S
C371 C369 1.413 . S
C371 C401 1.437 1_455 S
H372 C401 0.929 . S
N373 Gd346 2.570 . S
N373 C374 1.359 . S
N373 C377 1.343 . S
C374 C367 1.422 . S
C374 N373 1.359 . S
C374 C376 1.421 . S
C375 C376 1.422 . S
C375 C378 1.321 . S
C375 H402 0.931 1_455 S
C376 C374 1.421 . S
C376 C375 1.422 . S
C376 C400 1.417 1_455 S
C377 H354 0.931 . S
C377 N373 1.343 . S
C377 C378 1.390 . S
C378 H356 0.930 . S
C378 C375 1.321 . S
C378 C377 1.390 . S
O379 Gd347 2.386 . S
O379 C391 1.265 . S
O380 Gd346 2.353 . S
O380 C391 1.242 . S
O381 Gd346 2.468 . S
O381 C399 1.263 . S
O382 Gd346 2.427 . S
O382 C399 1.252 . S
O383 Gd347 2.307 . S
O383 C392 1.261 . S
O384 Gd346 2.388 . S
O384 C392 1.252 . S
O385 Gd346 2.386 . S
O385 C403 1.265 . S
O386 Gd347 2.353 . S
O386 C403 1.242 . S
O387 Gd347 2.468 1_554 S
O387 C411 1.263 . S
O388 Gd347 2.427 1_554 S
O388 C411 1.252 . S
O389 Gd346 2.307 . S
O389 C404 1.261 . S
O390 Gd347 2.388 . S
O390 C404 1.252 . S
C391 O379 1.265 . S
C391 O380 1.242 . S
C392 O383 1.261 . S
C392 O384 1.252 . S
C393 C396 1.394 . S
C393 C398 1.370 . S
C393 C399 1.500 . S
C394 C397 1.383 . S
C394 C398 1.395 . S
C395 C396 1.396 . S
C395 C397 1.365 . S
C395 H412 0.929 . S
C396 C393 1.394 . S
C396 C395 1.396 . S
C396 H413 0.930 . S
C397 C394 1.383 . S
C397 C395 1.365 . S
C397 H414 0.931 . S
C398 C393 1.370 . S
C398 C394 1.395 . S
C398 H415 0.930 . S
C399 Gd346 2.805 . S
C399 O381 1.263 . S
C399 O382 1.252 . S
C399 C393 1.500 . S
C400 H362 0.930 . S
C400 C376 1.417 1_655 S
C400 C401 1.329 . S
C401 C371 1.437 1_655 S
C401 H372 0.929 . S
C401 C400 1.329 . S
H402 C375 0.931 1_655 S
C403 O385 1.265 . S
C403 O386 1.242 . S
C404 O389 1.261 . S
C404 O390 1.252 . S
C405 C408 1.394 . S
C405 C410 1.370 . S
C405 C411 1.500 . S
C406 C409 1.383 . S
C406 C410 1.395 . S
C407 C408 1.396 . S
C407 C409 1.365 . S
C407 H416 0.929 . S
C408 C405 1.394 . S
C408 C407 1.396 . S
C408 H417 0.930 . S
C409 C406 1.383 . S
C409 C407 1.365 . S
C409 H418 0.931 . S
C410 C405 1.370 . S
C410 C406 1.395 . S
C410 H419 0.930 . S
C411 Gd347 2.805 1_554 S
C411 O387 1.263 . S
C411 O388 1.252 . S
C411 C405 1.500 . S
H412 C395 0.929 . S
H413 C396 0.930 . S
H414 C397 0.931 . S
H415 C398 0.930 . S
H416 C407 0.929 . S
H417 C408 0.930 . S
H418 C409 0.931 . S
H419 C410 0.930 . S
C420 C422 1.422 . S
C420 C424 1.415 . S
C420 N426 1.369 1_556 S
C421 C422 1.421 . S
C421 C423 1.417 . S
C421 C433 1.422 . S
C422 C420 1.422 . S
C422 C421 1.421 . S
C422 N432 1.359 . S
C423 C421 1.417 . S
C423 C425 1.329 . S
C423 H442 0.930 . S
C424 C420 1.415 . S
C424 C425 1.437 . S
C424 C428 1.413 1_556 S
C425 C423 1.329 . S
C425 C424 1.437 . S
C425 H447 0.929 . S
N426 C420 1.369 1_554 S
N426 C427 1.338 . S
N426 Gd431 2.622 . S
C427 N426 1.338 . S
C427 C429 1.378 . S
C427 H439 0.929 . S
C428 C424 1.413 1_554 S
C428 C429 1.348 . S
C428 H444 0.931 . S
C429 C427 1.378 . S
C429 C428 1.348 . S
C429 H445 0.930 . S
Gd430 N450 2.622 . S
Gd430 N457 2.570 . S
Gd430 O464 2.353 . S
Gd430 O465 2.468 . S
Gd430 O466 2.427 . S
Gd430 O468 2.388 . S
Gd430 O469 2.386 . S
Gd430 O473 2.307 . S
Gd430 C483 2.805 . S
Gd431 N426 2.622 . S
Gd431 N432 2.570 1_554 S
Gd431 O463 2.386 . S
Gd431 O467 2.307 . S
Gd431 O470 2.353 . S
Gd431 O471 2.468 1_554 S
Gd431 O472 2.427 1_554 S
Gd431 O474 2.388 . S
Gd431 C495 2.805 1_554 S
N432 C422 1.359 . S
N432 Gd431 2.570 1_556 S
N432 C434 1.343 . S
C433 C421 1.422 . S
C433 C435 1.321 . S
C433 H441 0.931 . S
C434 N432 1.343 . S
C434 C435 1.390 . S
C434 H436 0.931 . S
C435 C433 1.321 . S
C435 C434 1.390 . S
C435 H437 0.930 . S
H436 C434 0.931 . S
H437 C435 0.930 . S
H438 C461 0.931 . S
H439 C427 0.929 . S
H440 C462 0.930 . S
H441 C433 0.931 . S
H442 C423 0.930 . S
H443 C452 0.929 . S
H444 C428 0.931 . S
H445 C429 0.930 . S
H446 C484 0.930 . S
H447 C425 0.929 . S
H448 C453 0.931 1_545 S
H449 C454 0.930 1_545 S
N450 Gd430 2.622 . S
N450 C451 1.369 . S
N450 C452 1.338 . S
C451 N450 1.369 . S
C451 C455 1.415 . S
C451 C458 1.422 . S
C452 H443 0.929 . S
C452 N450 1.338 . S
C452 C454 1.378 . S
C453 H448 0.931 1_565 S
C453 C454 1.348 . S
C453 C455 1.413 . S
C454 H449 0.930 1_565 S
C454 C452 1.378 . S
C454 C453 1.348 . S
C455 C451 1.415 . S
C455 C453 1.413 . S
C455 C485 1.437 1_655 S
H456 C485 0.929 . S
N457 Gd430 2.570 . S
N457 C458 1.359 . S
N457 C461 1.343 . S
C458 C451 1.422 . S
C458 N457 1.359 . S
C458 C460 1.421 . S
C459 C460 1.422 . S
C459 C462 1.321 . S
C459 H486 0.931 1_655 S
C460 C458 1.421 . S
C460 C459 1.422 . S
C460 C484 1.417 1_655 S
C461 H438 0.931 . S
C461 N457 1.343 . S
C461 C462 1.390 . S
C462 H440 0.930 . S
C462 C459 1.321 . S
C462 C461 1.390 . S
O463 Gd431 2.386 . S
O463 C475 1.265 . S
O464 Gd430 2.353 . S
O464 C475 1.242 . S
O465 Gd430 2.468 . S
O465 C483 1.263 . S
O466 Gd430 2.427 . S
O466 C483 1.252 . S
O467 Gd431 2.307 . S
O467 C476 1.261 . S
O468 Gd430 2.388 . S
O468 C476 1.252 . S
O469 Gd430 2.386 . S
O469 C487 1.265 . S
O470 Gd431 2.353 . S
O470 C487 1.242 . S
O471 Gd431 2.468 1_556 S
O471 C495 1.263 . S
O472 Gd431 2.427 1_556 S
O472 C495 1.252 . S
O473 Gd430 2.307 . S
O473 C488 1.261 . S
O474 Gd431 2.388 . S
O474 C488 1.252 . S
C475 O463 1.265 . S
C475 O464 1.242 . S
C476 O467 1.261 . S
C476 O468 1.252 . S
C477 C480 1.394 . S
C477 C482 1.370 . S
C477 C483 1.500 . S
C478 C481 1.383 . S
C478 C482 1.395 . S
C479 C480 1.396 . S
C479 C481 1.365 . S
C479 H496 0.929 . S
C480 C477 1.394 . S
C480 C479 1.396 . S
C480 H497 0.930 . S
C481 C478 1.383 . S
C481 C479 1.365 . S
C481 H498 0.931 . S
C482 C477 1.370 . S
C482 C478 1.395 . S
C482 H499 0.930 . S
C483 Gd430 2.805 . S
C483 O465 1.263 . S
C483 O466 1.252 . S
C483 C477 1.500 . S
C484 H446 0.930 . S
C484 C460 1.417 1_455 S
C484 C485 1.329 . S
C485 C455 1.437 1_455 S
C485 H456 0.929 . S
C485 C484 1.329 . S
H486 C459 0.931 1_455 S
C487 O469 1.265 . S
C487 O470 1.242 . S
C488 O473 1.261 . S
C488 O474 1.252 . S
C489 C492 1.394 . S
C489 C494 1.370 . S
C489 C495 1.500 . S
C490 C493 1.383 . S
C490 C494 1.395 . S
C491 C492 1.396 . S
C491 C493 1.365 . S
C491 H500 0.929 . S
C492 C489 1.394 . S
C492 C491 1.396 . S
C492 H501 0.930 . S
C493 C490 1.383 . S
C493 C491 1.365 . S
C493 H502 0.931 . S
C494 C489 1.370 . S
C494 C490 1.395 . S
C494 H503 0.930 . S
C495 Gd431 2.805 1_556 S
C495 O471 1.263 . S
C495 O472 1.252 . S
C495 C489 1.500 . S
H496 C479 0.929 . S
H497 C480 0.930 . S
H498 C481 0.931 . S
H499 C482 0.930 . S
H500 C491 0.929 . S
H501 C492 0.930 . S
H502 C493 0.931 . S
H503 C494 0.930 . S
C504 C506 1.422 . S
C504 C508 1.415 . S
C504 N510 1.369 . S
C505 C506 1.421 . S
C505 C507 1.417 . S
C505 C517 1.422 . S
C506 C504 1.422 . S
C506 C505 1.421 . S
C506 N516 1.359 . S
C507 C505 1.417 . S
C507 C509 1.329 . S
C507 H526 0.930 . S
C508 C504 1.415 . S
C508 C509 1.437 . S
C508 C512 1.413 . S
C509 C507 1.329 . S
C509 C508 1.437 . S
C509 H531 0.929 . S
N510 C504 1.369 . S
N510 C511 1.338 . S
N510 Gd515 2.622 . S
C511 N510 1.338 . S
C511 C513 1.378 . S
C511 H523 0.929 . S
C512 C508 1.413 . S
C512 C513 1.348 . S
C512 H528 0.931 . S
C513 C511 1.378 . S
C513 C512 1.348 . S
C513 H529 0.930 . S
Gd514 N534 2.622 . S
Gd514 N541 2.570 . S
Gd514 O548 2.353 . S
Gd514 O549 2.468 . S
Gd514 O550 2.427 . S
Gd514 O552 2.388 . S
Gd514 O553 2.386 . S
Gd514 O557 2.307 . S
Gd514 C567 2.805 . S
Gd515 N510 2.622 . S
Gd515 N516 2.570 . S
Gd515 O547 2.386 . S
Gd515 O551 2.307 . S
Gd515 O554 2.353 . S
Gd515 O555 2.468 . S
Gd515 O556 2.427 . S
Gd515 O558 2.388 . S
Gd515 C579 2.805 . S
N516 C506 1.359 . S
N516 Gd515 2.570 . S
N516 C518 1.343 . S
C517 C505 1.422 . S
C517 C519 1.321 . S
C517 H525 0.931 . S
C518 N516 1.343 . S
C518 C519 1.390 . S
C518 H520 0.931 . S
C519 C517 1.321 . S
C519 C518 1.390 . S
C519 H521 0.930 . S
H520 C518 0.931 . S
H521 C519 0.930 . S
H522 C545 0.931 . S
H523 C511 0.929 . S
H524 C546 0.930 . S
H525 C517 0.931 . S
H526 C507 0.930 . S
H527 C536 0.929 . S
H528 C512 0.931 . S
H529 C513 0.930 . S
H530 C568 0.930 . S
H531 C509 0.929 . S
H532 C537 0.931 . S
H533 C538 0.930 . S
N534 Gd514 2.622 . S
N534 C535 1.369 . S
N534 C536 1.338 . S
C535 N534 1.369 . S
C535 C539 1.415 . S
C535 C542 1.422 . S
C536 H527 0.929 . S
C536 N534 1.338 . S
C536 C538 1.378 . S
C537 H532 0.931 . S
C537 C538 1.348 . S
C537 C539 1.413 . S
C538 H533 0.930 . S
C538 C536 1.378 . S
C538 C537 1.348 . S
C539 C535 1.415 . S
C539 C537 1.413 . S
C539 C569 1.437 . S
H540 C569 0.929 . S
N541 Gd514 2.570 . S
N541 C542 1.359 . S
N541 C545 1.343 . S
C542 C535 1.422 . S
C542 N541 1.359 . S
C542 C544 1.421 . S
C543 C544 1.422 . S
C543 C546 1.321 . S
C543 H570 0.931 . S
C544 C542 1.421 . S
C544 C543 1.422 . S
C544 C568 1.417 . S
C545 H522 0.931 . S
C545 N541 1.343 . S
C545 C546 1.390 . S
C546 H524 0.930 . S
C546 C543 1.321 . S
C546 C545 1.390 . S
O547 Gd515 2.386 . S
O547 C559 1.265 . S
O548 Gd514 2.353 . S
O548 C559 1.242 . S
O549 Gd514 2.468 . S
O549 C567 1.263 . S
O550 Gd514 2.427 . S
O550 C567 1.252 . S
O551 Gd515 2.307 . S
O551 C560 1.261 . S
O552 Gd514 2.388 . S
O552 C560 1.252 . S
O553 Gd514 2.386 . S
O553 C571 1.265 . S
O554 Gd515 2.353 . S
O554 C571 1.242 . S
O555 Gd515 2.468 . S
O555 C579 1.263 . S
O556 Gd515 2.427 . S
O556 C579 1.252 . S
O557 Gd514 2.307 . S
O557 C572 1.261 . S
O558 Gd515 2.388 . S
O558 C572 1.252 . S
C559 O547 1.265 . S
C559 O548 1.242 . S
C560 O551 1.261 . S
C560 O552 1.252 . S
C561 C564 1.394 . S
C561 C566 1.370 . S
C561 C567 1.500 . S
C562 C565 1.383 . S
C562 C566 1.395 . S
C563 C564 1.396 . S
C563 C565 1.365 . S
C563 H580 0.929 . S
C564 C561 1.394 . S
C564 C563 1.396 . S
C564 H581 0.930 . S
C565 C562 1.383 . S
C565 C563 1.365 . S
C565 H582 0.931 . S
C566 C561 1.370 . S
C566 C562 1.395 . S
C566 H583 0.930 . S
C567 Gd514 2.805 . S
C567 O549 1.263 . S
C567 O550 1.252 . S
C567 C561 1.500 . S
C568 H530 0.930 . S
C568 C544 1.417 . S
C568 C569 1.329 . S
C569 C539 1.437 . S
C569 H540 0.929 . S
C569 C568 1.329 . S
H570 C543 0.931 . S
C571 O553 1.265 . S
C571 O554 1.242 . S
C572 O557 1.261 . S
C572 O558 1.252 . S
C573 C576 1.394 . S
C573 C578 1.370 . S
C573 C579 1.500 . S
C574 C577 1.383 . S
C574 C578 1.395 1_556 S
C575 C576 1.396 . S
C575 C577 1.365 1_554 S
C575 H584 0.929 1_554 S
C576 C573 1.394 . S
C576 C575 1.396 . S
C576 H585 0.930 . S
C577 C574 1.383 . S
C577 C575 1.365 1_556 S
C577 H586 0.931 . S
C578 C573 1.370 . S
C578 C574 1.395 1_554 S
C578 H587 0.930 . S
C579 Gd515 2.805 . S
C579 O555 1.263 . S
C579 O556 1.252 . S
C579 C573 1.500 . S
H580 C563 0.929 . S
H581 C564 0.930 . S
H582 C565 0.931 . S
H583 C566 0.930 . S
H584 C575 0.929 1_556 S
H585 C576 0.930 . S
H586 C577 0.931 . S
H587 C578 0.930 . S
C588 C590 1.422 . S
C588 C592 1.415 . S
C588 N594 1.369 . S
C589 C590 1.421 1_565 S
C589 C591 1.417 . S
C589 C601 1.422 . S
C590 C588 1.422 . S
C590 C589 1.421 1_545 S
C590 N600 1.359 . S
C591 C589 1.417 . S
C591 C593 1.329 . S
C591 H610 0.930 . S
C592 C588 1.415 . S
C592 C593 1.437 1_545 S
C592 C596 1.413 . S
C593 C591 1.329 . S
C593 C592 1.437 1_565 S
C593 H615 0.929 . S
N594 C588 1.369 . S
N594 C595 1.338 . S
N594 Gd599 2.622 . S
C595 N594 1.338 . S
C595 C597 1.378 . S
C595 H607 0.929 . S
C596 C592 1.413 . S
C596 C597 1.348 . S
C596 H612 0.931 1_545 S
C597 C595 1.378 . S
C597 C596 1.348 . S
C597 H613 0.930 . S
Gd598 N618 2.622 . S
Gd598 N625 2.570 . S
Gd598 O632 2.353 . S
Gd598 O633 2.468 . S
Gd598 O634 2.427 . S
Gd598 O636 2.388 . S
Gd598 O637 2.386 . S
Gd598 O641 2.307 . S
Gd598 C651 2.805 . S
Gd599 N594 2.622 . S
Gd599 N600 2.570 . S
Gd599 O631 2.386 . S
Gd599 O635 2.307 . S
Gd599 O638 2.353 . S
Gd599 O639 2.468 . S
Gd599 O640 2.427 . S
Gd599 O642 2.388 . S
Gd599 C663 2.805 . S
N600 C590 1.359 . S
N600 Gd599 2.570 . S
N600 C602 1.343 . S
C601 C589 1.422 . S
C601 C603 1.321 1_565 S
C601 H609 0.931 . S
C602 N600 1.343 . S
C602 C603 1.390 . S
C602 H604 0.931 . S
C603 C601 1.321 1_545 S
C603 C602 1.390 . S
C603 H605 0.930 . S
H604 C602 0.931 . S
H605 C603 0.930 . S
H606 C629 0.931 . S
H607 C595 0.929 . S
H608 C630 0.930 . S
H609 C601 0.931 . S
H610 C591 0.930 . S
H611 C620 0.929 . S
H612 C596 0.931 1_565 S
H613 C597 0.930 . S
H614 C652 0.930 . S
H615 C593 0.929 . S
H616 C621 0.931 . S
H617 C622 0.930 . S
N618 Gd598 2.622 . S
N618 C619 1.369 . S
N618 C620 1.338 . S
C619 N618 1.369 . S
C619 C623 1.415 . S
C619 C626 1.422 . S
C620 H611 0.929 . S
C620 N618 1.338 . S
C620 C622 1.378 . S
C621 H616 0.931 . S
C621 C622 1.348 . S
C621 C623 1.413 . S
C622 H617 0.930 . S
C622 C620 1.378 . S
C622 C621 1.348 . S
C623 C619 1.415 . S
C623 C621 1.413 . S
C623 C653 1.437 . S
H624 C653 0.929 . S
N625 Gd598 2.570 . S
N625 C626 1.359 . S
N625 C629 1.343 . S
C626 C619 1.422 . S
C626 N625 1.359 . S
C626 C628 1.421 . S
C627 C628 1.422 . S
C627 C630 1.321 . S
C627 H654 0.931 . S
C628 C626 1.421 . S
C628 C627 1.422 . S
C628 C652 1.417 . S
C629 H606 0.931 . S
C629 N625 1.343 . S
C629 C630 1.390 . S
C630 H608 0.930 . S
C630 C627 1.321 . S
C630 C629 1.390 . S
O631 Gd599 2.386 . S
O631 C643 1.265 . S
O632 Gd598 2.353 . S
O632 C643 1.242 . S
O633 Gd598 2.468 . S
O633 C651 1.263 . S
O634 Gd598 2.427 . S
O634 C651 1.252 . S
O635 Gd599 2.307 . S
O635 C644 1.261 . S
O636 Gd598 2.388 . S
O636 C644 1.252 . S
O637 Gd598 2.386 . S
O637 C655 1.265 . S
O638 Gd599 2.353 . S
O638 C655 1.242 . S
O639 Gd599 2.468 . S
O639 C663 1.263 . S
O640 Gd599 2.427 . S
O640 C663 1.252 . S
O641 Gd598 2.307 . S
O641 C656 1.261 . S
O642 Gd599 2.388 . S
O642 C656 1.252 . S
C643 O631 1.265 . S
C643 O632 1.242 . S
C644 O635 1.261 . S
C644 O636 1.252 . S
C645 C648 1.394 . S
C645 C650 1.370 . S
C645 C651 1.500 . S
C646 C649 1.383 . S
C646 C650 1.395 . S
C647 C648 1.396 . S
C647 C649 1.365 . S
C647 H664 0.929 . S
C648 C645 1.394 . S
C648 C647 1.396 . S
C648 H665 0.930 . S
C649 C646 1.383 . S
C649 C647 1.365 . S
C649 H666 0.931 . S
C650 C645 1.370 . S
C650 C646 1.395 . S
C650 H667 0.930 . S
C651 Gd598 2.805 . S
C651 O633 1.263 . S
C651 O634 1.252 . S
C651 C645 1.500 . S
C652 H614 0.930 . S
C652 C628 1.417 . S
C652 C653 1.329 . S
C653 C623 1.437 . S
C653 H624 0.929 . S
C653 C652 1.329 . S
H654 C627 0.931 . S
C655 O637 1.265 . S
C655 O638 1.242 . S
C656 O641 1.261 . S
C656 O642 1.252 . S
C657 C660 1.394 . S
C657 C662 1.370 . S
C657 C663 1.500 . S
C658 C661 1.383 . S
C658 C662 1.395 1_554 S
C659 C660 1.396 . S
C659 C661 1.365 1_556 S
C659 H668 0.929 1_556 S
C660 C657 1.394 . S
C660 C659 1.396 . S
C660 H669 0.930 . S
C661 C658 1.383 . S
C661 C659 1.365 1_554 S
C661 H670 0.931 . S
C662 C657 1.370 . S
C662 C658 1.395 1_556 S
C662 H671 0.930 . S
C663 Gd599 2.805 . S
C663 O639 1.263 . S
C663 O640 1.252 . S
C663 C657 1.500 . S
H664 C647 0.929 . S
H665 C648 0.930 . S
H666 C649 0.931 . S
H667 C650 0.930 . S
H668 C659 0.929 1_554 S
H669 C660 0.930 . S
H670 C661 0.931 . S
H671 C662 0.930 . S
C672 C674 1.422 . S
C672 C676 1.415 . S
C672 N678 1.369 . S
C673 C674 1.421 . S
C673 C675 1.417 1_655 S
C673 C685 1.422 . S
C674 C672 1.422 . S
C674 C673 1.421 . S
C674 N684 1.359 . S
C675 C673 1.417 1_455 S
C675 C677 1.329 . S
C675 H694 0.930 . S
C676 C672 1.415 . S
C676 C677 1.437 1_655 S
C676 C680 1.413 . S
C677 C675 1.329 . S
C677 C676 1.437 1_455 S
C677 H699 0.929 . S
N678 C672 1.369 . S
N678 C679 1.338 . S
N678 Gd683 2.622 . S
C679 N678 1.338 . S
C679 C681 1.378 . S
C679 H691 0.929 . S
C680 C676 1.413 . S
C680 C681 1.348 . S
C680 H696 0.931 . S
C681 C679 1.378 . S
C681 C680 1.348 . S
C681 H697 0.930 . S
Gd682 N702 2.622 . S
Gd682 N709 2.570 1_556 S
Gd682 O716 2.353 . S
Gd682 O717 2.468 1_556 S
Gd682 O718 2.427 1_556 S
Gd682 O720 2.388 . S
Gd682 O721 2.386 . S
Gd682 O725 2.307 . S
Gd682 C735 2.805 1_556 S
Gd683 N678 2.622 . S
Gd683 N684 2.570 . S
Gd683 O715 2.386 . S
Gd683 O719 2.307 . S
Gd683 O722 2.353 . S
Gd683 O723 2.468 . S
Gd683 O724 2.427 . S
Gd683 O726 2.388 . S
Gd683 C747 2.805 . S
N684 C674 1.359 . S
N684 Gd683 2.570 . S
N684 C686 1.343 . S
C685 C673 1.422 . S
C685 C687 1.321 . S
C685 H693 0.931 1_655 S
C686 N684 1.343 . S
C686 C687 1.390 . S
C686 H688 0.931 . S
C687 C685 1.321 . S
C687 C686 1.390 . S
C687 H689 0.930 . S
H688 C686 0.931 . S
H689 C687 0.930 . S
H690 C713 0.931 . S
H691 C679 0.929 . S
H692 C714 0.930 . S
H693 C685 0.931 1_455 S
H694 C675 0.930 . S
H695 C704 0.929 . S
H696 C680 0.931 . S
H697 C681 0.930 . S
H698 C736 0.930 . S
H699 C677 0.929 . S
H700 C705 0.931 . S
H701 C706 0.930 . S
N702 Gd682 2.622 . S
N702 C703 1.369 1_556 S
N702 C704 1.338 . S
C703 N702 1.369 1_554 S
C703 C707 1.415 . S
C703 C710 1.422 . S
C704 H695 0.929 . S
C704 N702 1.338 . S
C704 C706 1.378 . S
C705 H700 0.931 . S
C705 C706 1.348 . S
C705 C707 1.413 1_556 S
C706 H701 0.930 . S
C706 C704 1.378 . S
C706 C705 1.348 . S
C707 C703 1.415 . S
C707 C705 1.413 1_554 S
C707 C737 1.437 . S
H708 C737 0.929 . S
N709 Gd682 2.570 1_554 S
N709 C710 1.359 . S
N709 C713 1.343 . S
C710 C703 1.422 . S
C710 N709 1.359 . S
C710 C712 1.421 . S
C711 C712 1.422 . S
C711 C714 1.321 . S
C711 H738 0.931 . S
C712 C710 1.421 . S
C712 C711 1.422 . S
C712 C736 1.417 . S
C713 H690 0.931 . S
C713 N709 1.343 . S
C713 C714 1.390 . S
C714 H692 0.930 . S
C714 C711 1.321 . S
C714 C713 1.390 . S
O715 Gd683 2.386 . S
O715 C727 1.265 . S
O716 Gd682 2.353 . S
O716 C727 1.242 . S
O717 Gd682 2.468 1_554 S
O717 C735 1.263 . S
O718 Gd682 2.427 1_554 S
O718 C735 1.252 . S
O719 Gd683 2.307 . S
O719 C728 1.261 . S
O720 Gd682 2.388 . S
O720 C728 1.252 . S
O721 Gd682 2.386 . S
O721 C739 1.265 . S
O722 Gd683 2.353 . S
O722 C739 1.242 . S
O723 Gd683 2.468 . S
O723 C747 1.263 . S
O724 Gd683 2.427 . S
O724 C747 1.252 . S
O725 Gd682 2.307 . S
O725 C740 1.261 . S
O726 Gd683 2.388 . S
O726 C740 1.252 . S
C727 O715 1.265 . S
C727 O716 1.242 . S
C728 O719 1.261 . S
C728 O720 1.252 . S
C729 C732 1.394 . S
C729 C734 1.370 . S
C729 C735 1.500 . S
C730 C733 1.383 . S
C730 C734 1.395 . S
C731 C732 1.396 . S
C731 C733 1.365 . S
C731 H748 0.929 . S
C732 C729 1.394 . S
C732 C731 1.396 . S
C732 H749 0.930 . S
C733 C730 1.383 . S
C733 C731 1.365 . S
C733 H750 0.931 . S
C734 C729 1.370 . S
C734 C730 1.395 . S
C734 H751 0.930 . S
C735 Gd682 2.805 1_554 S
C735 O717 1.263 . S
C735 O718 1.252 . S
C735 C729 1.500 . S
C736 H698 0.930 . S
C736 C712 1.417 . S
C736 C737 1.329 . S
C737 C707 1.437 . S
C737 H708 0.929 . S
C737 C736 1.329 . S
H738 C711 0.931 . S
C739 O721 1.265 . S
C739 O722 1.242 . S
C740 O725 1.261 . S
C740 O726 1.252 . S
C741 C744 1.394 . S
C741 C746 1.370 . S
C741 C747 1.500 . S
C742 C745 1.383 . S
C742 C746 1.395 . S
C743 C744 1.396 . S
C743 C745 1.365 . S
C743 H752 0.929 . S
C744 C741 1.394 . S
C744 C743 1.396 . S
C744 H753 0.930 . S
C745 C742 1.383 . S
C745 C743 1.365 . S
C745 H754 0.931 . S
C746 C741 1.370 . S
C746 C742 1.395 . S
C746 H755 0.930 . S
C747 Gd683 2.805 . S
C747 O723 1.263 . S
C747 O724 1.252 . S
C747 C741 1.500 . S
H748 C731 0.929 . S
H749 C732 0.930 . S
H750 C733 0.931 . S
H751 C734 0.930 . S
H752 C743 0.929 . S
H753 C744 0.930 . S
H754 C745 0.931 . S
H755 C746 0.930 . S
C756 C758 1.422 . S
C756 C760 1.415 . S
C756 N762 1.369 . S
C757 C758 1.421 . S
C757 C759 1.417 . S
C757 C769 1.422 . S
C758 C756 1.422 . S
C758 C757 1.421 . S
C758 N768 1.359 . S
C759 C757 1.417 . S
C759 C761 1.329 . S
C759 H778 0.930 . S
C760 C756 1.415 . S
C760 C761 1.437 . S
C760 C764 1.413 . S
C761 C759 1.329 . S
C761 C760 1.437 . S
C761 H783 0.929 . S
N762 C756 1.369 . S
N762 C763 1.338 . S
N762 Gd767 2.622 . S
C763 N762 1.338 . S
C763 C765 1.378 . S
C763 H775 0.929 . S
C764 C760 1.413 . S
C764 C765 1.348 . S
C764 H780 0.931 1_545 S
C765 C763 1.378 . S
C765 C764 1.348 . S
C765 H781 0.930 1_545 S
Gd766 N786 2.622 . S
Gd766 N793 2.570 . S
Gd766 O800 2.353 . S
Gd766 O801 2.468 . S
Gd766 O802 2.427 . S
Gd766 O804 2.388 . S
Gd766 O805 2.386 . S
Gd766 O809 2.307 . S
Gd766 C819 2.805 . S
Gd767 N762 2.622 . S
Gd767 N768 2.570 . S
Gd767 O799 2.386 . S
Gd767 O803 2.307 . S
Gd767 O806 2.353 . S
Gd767 O807 2.468 . S
Gd767 O808 2.427 . S
Gd767 O810 2.388 . S
Gd767 C831 2.805 . S
N768 C758 1.359 . S
N768 Gd767 2.570 . S
N768 C770 1.343 . S
C769 C757 1.422 . S
C769 C771 1.321 . S
C769 H777 0.931 . S
C770 N768 1.343 . S
C770 C771 1.390 . S
C770 H772 0.931 . S
C771 C769 1.321 . S
C771 C770 1.390 . S
C771 H773 0.930 . S
H772 C770 0.931 . S
H773 C771 0.930 . S
H774 C797 0.931 . S
H775 C763 0.929 . S
H776 C798 0.930 . S
H777 C769 0.931 . S
H778 C759 0.930 . S
H779 C788 0.929 . S
H780 C764 0.931 1_565 S
H781 C765 0.930 1_565 S
H782 C820 0.930 . S
H783 C761 0.929 . S
H784 C789 0.931 . S
H785 C790 0.930 . S
N786 Gd766 2.622 . S
N786 C787 1.369 . S
N786 C788 1.338 . S
C787 N786 1.369 . S
C787 C791 1.415 . S
C787 C794 1.422 . S
C788 H779 0.929 . S
C788 N786 1.338 . S
C788 C790 1.378 . S
C789 H784 0.931 . S
C789 C790 1.348 . S
C789 C791 1.413 . S
C790 H785 0.930 . S
C790 C788 1.378 . S
C790 C789 1.348 . S
C791 C787 1.415 . S
C791 C789 1.413 . S
C791 C821 1.437 . S
H792 C821 0.929 . S
N793 Gd766 2.570 . S
N793 C794 1.359 . S
N793 C797 1.343 . S
C794 C787 1.422 . S
C794 N793 1.359 . S
C794 C796 1.421 . S
C795 C796 1.422 . S
C795 C798 1.321 . S
C795 H822 0.931 . S
C796 C794 1.421 . S
C796 C795 1.422 . S
C796 C820 1.417 . S
C797 H774 0.931 . S
C797 N793 1.343 . S
C797 C798 1.390 . S
C798 H776 0.930 . S
C798 C795 1.321 . S
C798 C797 1.390 . S
O799 Gd767 2.386 . S
O799 C811 1.265 . S
O800 Gd766 2.353 . S
O800 C811 1.242 . S
O801 Gd766 2.468 . S
O801 C819 1.263 . S
O802 Gd766 2.427 . S
O802 C819 1.252 . S
O803 Gd767 2.307 . S
O803 C812 1.261 . S
O804 Gd766 2.388 . S
O804 C812 1.252 . S
O805 Gd766 2.386 . S
O805 C823 1.265 . S
O806 Gd767 2.353 . S
O806 C823 1.242 . S
O807 Gd767 2.468 . S
O807 C831 1.263 . S
O808 Gd767 2.427 . S
O808 C831 1.252 . S
O809 Gd766 2.307 . S
O809 C824 1.261 . S
O810 Gd767 2.388 . S
O810 C824 1.252 . S
C811 O799 1.265 . S
C811 O800 1.242 . S
C812 O803 1.261 . S
C812 O804 1.252 . S
C813 C816 1.394 . S
C813 C818 1.370 . S
C813 C819 1.500 . S
C814 C817 1.383 . S
C814 C818 1.395 . S
C815 C816 1.396 . S
C815 C817 1.365 . S
C815 H832 0.929 . S
C816 C813 1.394 . S
C816 C815 1.396 . S
C816 H833 0.930 . S
C817 C814 1.383 . S
C817 C815 1.365 . S
C817 H834 0.931 . S
C818 C813 1.370 . S
C818 C814 1.395 . S
C818 H835 0.930 . S
C819 Gd766 2.805 . S
C819 O801 1.263 . S
C819 O802 1.252 . S
C819 C813 1.500 . S
C820 H782 0.930 . S
C820 C796 1.417 . S
C820 C821 1.329 . S
C821 C791 1.437 . S
C821 H792 0.929 . S
C821 C820 1.329 . S
H822 C795 0.931 . S
C823 O805 1.265 . S
C823 O806 1.242 . S
C824 O809 1.261 . S
C824 O810 1.252 . S
C825 C828 1.394 . S
C825 C830 1.370 . S
C825 C831 1.500 . S
C826 C829 1.386 . S
C826 C830 1.390 1_554 S
C827 C828 1.396 . S
C827 C829 1.365 1_556 S
C827 H836 0.929 1_556 S
C828 C825 1.394 . S
C828 C827 1.396 . S
C828 H837 0.930 . S
C829 C826 1.386 . S
C829 C827 1.365 1_554 S
C829 H838 0.931 . S
C830 C825 1.370 . S
C830 C826 1.390 1_556 S
C830 H839 0.930 . S
C831 Gd767 2.805 . S
C831 O807 1.263 . S
C831 O808 1.252 . S
C831 C825 1.500 . S
H832 C815 0.929 . S
H833 C816 0.930 . S
H834 C817 0.931 . S
H835 C818 0.930 . S
H836 C827 0.929 1_554 S
H837 C828 0.930 . S
H838 C829 0.931 . S
H839 C830 0.930 . S
C840 C842 1.422 . S
C840 C844 1.415 . S
C840 N846 1.369 . S
C841 C842 1.421 . S
C841 C843 1.417 . S
C841 C853 1.422 . S
C842 C840 1.422 . S
C842 C841 1.421 . S
C842 N852 1.359 . S
C843 C841 1.417 . S
C843 C845 1.329 . S
C843 H862 0.930 . S
C844 C840 1.415 . S
C844 C845 1.437 . S
C844 C848 1.413 . S
C845 C843 1.329 . S
C845 C844 1.437 . S
C845 H867 0.929 . S
N846 C840 1.369 . S
N846 C847 1.338 . S
N846 Gd851 2.622 . S
C847 N846 1.338 . S
C847 C849 1.378 . S
C847 H859 0.929 . S
C848 C844 1.413 . S
C848 C849 1.348 . S
C848 H864 0.931 . S
C849 C847 1.378 . S
C849 C848 1.348 . S
C849 H865 0.930 . S
Gd850 N870 2.622 . S
Gd850 N877 2.570 . S
Gd850 O884 2.353 . S
Gd850 O885 2.468 . S
Gd850 O886 2.427 . S
Gd850 O888 2.388 . S
Gd850 O889 2.386 . S
Gd850 O893 2.307 . S
Gd850 C903 2.805 . S
Gd851 N846 2.622 . S
Gd851 N852 2.570 . S
Gd851 O883 2.386 . S
Gd851 O887 2.307 . S
Gd851 O890 2.353 . S
Gd851 O891 2.468 . S
Gd851 O892 2.427 . S
Gd851 O894 2.388 . S
Gd851 C915 2.805 . S
N852 C842 1.359 . S
N852 Gd851 2.570 . S
N852 C854 1.343 . S
C853 C841 1.422 . S
C853 C855 1.321 . S
C853 H861 0.931 . S
C854 N852 1.343 . S
C854 C855 1.390 . S
C854 H856 0.931 . S
C855 C853 1.321 . S
C855 C854 1.390 . S
C855 H857 0.930 . S
H856 C854 0.931 . S
H857 C855 0.930 . S
H858 C881 0.931 . S
H859 C847 0.929 . S
H860 C882 0.930 . S
H861 C853 0.931 . S
H862 C843 0.930 . S
H863 C872 0.929 . S
H864 C848 0.931 . S
H865 C849 0.930 . S
H866 C904 0.930 . S
H867 C845 0.929 . S
H868 C873 0.931 . S
H869 C874 0.930 . S
N870 Gd850 2.622 . S
N870 C871 1.369 . S
N870 C872 1.338 . S
C871 N870 1.369 . S
C871 C875 1.415 . S
C871 C878 1.422 . S
C872 H863 0.929 . S
C872 N870 1.338 . S
C872 C874 1.378 . S
C873 H868 0.931 . S
C873 C874 1.348 . S
C873 C875 1.413 . S
C874 H869 0.930 . S
C874 C872 1.378 . S
C874 C873 1.348 . S
C875 C871 1.415 . S
C875 C873 1.413 . S
C875 C905 1.437 . S
H876 C905 0.929 . S
N877 Gd850 2.570 . S
N877 C878 1.359 . S
N877 C881 1.343 . S
C878 C871 1.422 . S
C878 N877 1.359 . S
C878 C880 1.421 . S
C879 C880 1.422 . S
C879 C882 1.321 . S
C879 H906 0.931 . S
C880 C878 1.421 . S
C880 C879 1.422 . S
C880 C904 1.417 . S
C881 H858 0.931 . S
C881 N877 1.343 . S
C881 C882 1.390 . S
C882 H860 0.930 . S
C882 C879 1.321 . S
C882 C881 1.390 . S
O883 Gd851 2.386 . S
O883 C895 1.265 . S
O884 Gd850 2.353 . S
O884 C895 1.242 . S
O885 Gd850 2.468 . S
O885 C903 1.263 . S
O886 Gd850 2.427 . S
O886 C903 1.252 . S
O887 Gd851 2.307 . S
O887 C896 1.261 . S
O888 Gd850 2.388 . S
O888 C896 1.252 . S
O889 Gd850 2.386 . S
O889 C907 1.265 . S
O890 Gd851 2.353 . S
O890 C907 1.242 . S
O891 Gd851 2.468 . S
O891 C915 1.263 . S
O892 Gd851 2.427 . S
O892 C915 1.252 . S
O893 Gd850 2.307 . S
O893 C908 1.261 . S
O894 Gd851 2.388 . S
O894 C908 1.252 . S
C895 O883 1.265 . S
C895 O884 1.242 . S
C896 O887 1.261 . S
C896 O888 1.252 . S
C897 C900 1.394 . S
C897 C902 1.370 . S
C897 C903 1.500 . S
C898 C901 1.383 . S
C898 C902 1.395 . S
C899 C900 1.396 . S
C899 C901 1.365 . S
C899 H916 0.929 . S
C900 C897 1.394 . S
C900 C899 1.396 . S
C900 H917 0.930 . S
C901 C898 1.383 . S
C901 C899 1.365 . S
C901 H918 0.931 . S
C902 C897 1.370 . S
C902 C898 1.395 . S
C902 H919 0.930 . S
C903 Gd850 2.805 . S
C903 O885 1.263 . S
C903 O886 1.252 . S
C903 C897 1.500 . S
C904 H866 0.930 . S
C904 C880 1.417 . S
C904 C905 1.329 . S
C905 C875 1.437 . S
C905 H876 0.929 . S
C905 C904 1.329 . S
H906 C879 0.931 . S
C907 O889 1.265 . S
C907 O890 1.242 . S
C908 O893 1.261 . S
C908 O894 1.252 . S
C909 C912 1.394 . S
C909 C914 1.370 . S
C909 C915 1.500 . S
C910 C913 1.387 . S
C910 C914 1.387 1_556 S
C911 C912 1.396 . S
C911 C913 1.365 1_554 S
C911 H920 0.929 1_554 S
C912 C909 1.394 . S
C912 C911 1.396 . S
C912 H921 0.930 . S
C913 C910 1.387 . S
C913 C911 1.365 1_556 S
C913 H922 0.931 . S
C914 C909 1.370 . S
C914 C910 1.387 1_554 S
C914 H923 0.930 . S
C915 Gd851 2.805 . S
C915 O891 1.263 . S
C915 O892 1.252 . S
C915 C909 1.500 . S
H916 C899 0.929 . S
H917 C900 0.930 . S
H918 C901 0.931 . S
H919 C902 0.930 . S
H920 C911 0.929 1_556 S
H921 C912 0.930 . S
H922 C913 0.931 . S
H923 C914 0.930 . S
C924 C926 1.422 . S
C924 C928 1.415 . S
C924 N930 1.369 1_556 S
C925 C926 1.421 . S
C925 C927 1.417 . S
C925 C937 1.422 . S
C926 C924 1.422 . S
C926 C925 1.421 . S
C926 N936 1.359 . S
C927 C925 1.417 . S
C927 C929 1.329 . S
C927 H946 0.930 . S
C928 C924 1.415 . S
C928 C929 1.437 . S
C928 C932 1.413 1_556 S
C929 C927 1.329 . S
C929 C928 1.437 . S
C929 H951 0.929 . S
N930 C924 1.369 1_554 S
N930 C931 1.338 . S
N930 Gd935 2.622 . S
C931 N930 1.338 . S
C931 C933 1.378 . S
C931 H943 0.929 . S
C932 C928 1.413 1_554 S
C932 C933 1.348 . S
C932 H948 0.931 . S
C933 C931 1.378 . S
C933 C932 1.348 . S
C933 H949 0.930 . S
Gd934 N954 2.622 . S
Gd934 N961 2.570 . S
Gd934 O968 2.353 . S
Gd934 O969 2.468 . S
Gd934 O970 2.427 . S
Gd934 O972 2.388 . S
Gd934 O973 2.386 . S
Gd934 O977 2.307 . S
Gd934 C987 2.805 . S
Gd935 N930 2.622 . S
Gd935 N936 2.570 1_554 S
Gd935 O967 2.386 . S
Gd935 O971 2.307 . S
Gd935 O974 2.353 . S
Gd935 O975 2.468 1_554 S
Gd935 O976 2.427 1_554 S
Gd935 O978 2.388 . S
Gd935 C999 2.805 1_554 S
N936 C926 1.359 . S
N936 Gd935 2.570 1_556 S
N936 C938 1.343 . S
C937 C925 1.422 . S
C937 C939 1.321 . S
C937 H945 0.931 . S
C938 N936 1.343 . S
C938 C939 1.390 . S
C938 H940 0.931 . S
C939 C937 1.321 . S
C939 C938 1.390 . S
C939 H941 0.930 . S
H940 C938 0.931 . S
H941 C939 0.930 . S
H942 C965 0.931 . S
H943 C931 0.929 . S
H944 C966 0.930 . S
H945 C937 0.931 . S
H946 C927 0.930 . S
H947 C956 0.929 . S
H948 C932 0.931 . S
H949 C933 0.930 . S
H950 C988 0.930 . S
H951 C929 0.929 . S
H952 C957 0.931 1_545 S
H953 C958 0.930 1_655 S
N954 Gd934 2.622 . S
N954 C955 1.369 . S
N954 C956 1.338 . S
C955 N954 1.369 . S
C955 C959 1.415 . S
C955 C962 1.422 . S
C956 H947 0.929 . S
C956 N954 1.338 . S
C956 C958 1.378 . S
C957 H952 0.931 1_565 S
C957 C958 1.348 . S
C957 C959 1.413 . S
C958 H953 0.930 1_455 S
C958 C956 1.378 . S
C958 C957 1.348 . S
C959 C955 1.415 . S
C959 C957 1.413 . S
C959 C989 1.437 1_565 S
H960 C989 0.929 . S
N961 Gd934 2.570 . S
N961 C962 1.359 . S
N961 C965 1.343 . S
C962 C955 1.422 . S
C962 N961 1.359 . S
C962 C964 1.421 1_565 S
C963 C964 1.422 . S
C963 C966 1.321 1_545 S
C963 H990 0.931 . S
C964 C962 1.421 1_545 S
C964 C963 1.422 . S
C964 C988 1.417 . S
C965 H942 0.931 . S
C965 N961 1.343 . S
C965 C966 1.390 . S
C966 H944 0.930 . S
C966 C963 1.321 1_565 S
C966 C965 1.390 . S
O967 Gd935 2.386 . S
O967 C979 1.265 . S
O968 Gd934 2.353 . S
O968 C979 1.242 . S
O969 Gd934 2.468 . S
O969 C987 1.263 . S
O970 Gd934 2.427 . S
O970 C987 1.252 . S
O971 Gd935 2.307 . S
O971 C980 1.261 . S
O972 Gd934 2.388 . S
O972 C980 1.252 . S
O973 Gd934 2.386 . S
O973 C991 1.265 . S
O974 Gd935 2.353 . S
O974 C991 1.242 . S
O975 Gd935 2.468 1_556 S
O975 C999 1.263 . S
O976 Gd935 2.427 1_556 S
O976 C999 1.252 . S
O977 Gd934 2.307 . S
O977 C992 1.261 . S
O978 Gd935 2.388 . S
O978 C992 1.252 . S
C979 O967 1.265 . S
C979 O968 1.242 . S
C980 O971 1.261 . S
C980 O972 1.252 . S
C981 C984 1.394 . S
C981 C986 1.370 . S
C981 C987 1.500 . S
C982 C985 1.383 . S
C982 C986 1.395 . S
C983 C984 1.396 . S
C983 C985 1.365 . S
C983 H1000 0.929 . S
C984 C981 1.394 . S
C984 C983 1.396 . S
C984 H1001 0.930 . S
C985 C982 1.383 . S
C985 C983 1.365 . S
C985 H1002 0.931 . S
C986 C981 1.370 . S
C986 C982 1.395 . S
C986 H1003 0.930 . S
C987 Gd934 2.805 . S
C987 O969 1.263 . S
C987 O970 1.252 . S
C987 C981 1.500 . S
C988 H950 0.930 . S
C988 C964 1.417 . S
C988 C989 1.329 . S
C989 C959 1.437 1_545 S
C989 H960 0.929 . S
C989 C988 1.329 . S
H990 C963 0.931 . S
C991 O973 1.265 . S
C991 O974 1.242 . S
C992 O977 1.261 . S
C992 O978 1.252 . S
C993 C996 1.394 . S
C993 C998 1.370 . S
C993 C999 1.500 . S
C994 C997 1.383 . S
C994 C998 1.395 . S
C995 C996 1.396 . S
C995 C997 1.365 . S
C995 H1004 0.929 . S
C996 C993 1.394 . S
C996 C995 1.396 . S
C996 H1005 0.930 . S
C997 C994 1.383 . S
C997 C995 1.365 . S
C997 H1006 0.931 . S
C998 C993 1.370 . S
C998 C994 1.395 . S
C998 H1007 0.930 . S
C999 Gd935 2.805 1_556 S
C999 O975 1.263 . S
C999 O976 1.252 . S
C999 C993 1.500 . S
H1000 C983 0.929 . S
H1001 C984 0.930 . S
H1002 C985 0.931 . S
H1003 C986 0.930 . S
H1004 C995 0.929 . S
H1005 C996 0.930 . S
H1006 C997 0.931 . S
H1007 C998 0.930 . S
C1008 C1010 1.422 . S
C1008 C1012 1.415 . S
C1008 N1014 1.369 . S
C1009 C1010 1.421 . S
C1009 C1011 1.417 1_655 S
C1009 C1021 1.422 . S
C1010 C1008 1.422 . S
C1010 C1009 1.421 . S
C1010 N1020 1.359 . S
C1011 C1009 1.417 1_455 S
C1011 C1013 1.329 . S
C1011 H1030 0.930 . S
C1012 C1008 1.415 . S
C1012 C1013 1.437 1_655 S
C1012 C1016 1.413 . S
C1013 C1011 1.329 . S
C1013 C1012 1.437 1_455 S
C1013 H1035 0.929 . S
N1014 C1008 1.369 . S
N1014 C1015 1.338 . S
N1014 Gd1019 2.622 . S
C1015 N1014 1.338 . S
C1015 C1017 1.378 . S
C1015 H1027 0.929 . S
C1016 C1012 1.413 . S
C1016 C1017 1.348 . S
C1016 H1032 0.931 . S
C1017 C1015 1.378 . S
C1017 C1016 1.348 . S
C1017 H1033 0.930 . S
Gd1018 N1038 2.622 . S
Gd1018 N1045 2.570 1_554 S
Gd1018 O1052 2.353 . S
Gd1018 O1053 2.468 1_554 S
Gd1018 O1054 2.427 1_554 S
Gd1018 O1056 2.388 . S
Gd1018 O1057 2.386 . S
Gd1018 O1061 2.307 . S
Gd1018 C1071 2.805 1_554 S
Gd1019 N1014 2.622 . S
Gd1019 N1020 2.570 . S
Gd1019 O1051 2.386 . S
Gd1019 O1055 2.307 . S
Gd1019 O1058 2.353 . S
Gd1019 O1059 2.468 . S
Gd1019 O1060 2.427 . S
Gd1019 O1062 2.388 . S
Gd1019 C1083 2.805 . S
N1020 C1010 1.359 . S
N1020 Gd1019 2.570 . S
N1020 C1022 1.343 . S
C1021 C1009 1.422 . S
C1021 C1023 1.321 . S
C1021 H1029 0.931 1_655 S
C1022 N1020 1.343 . S
C1022 C1023 1.390 . S
C1022 H1024 0.931 . S
C1023 C1021 1.321 . S
C1023 C1022 1.390 . S
C1023 H1025 0.930 . S
H1024 C1022 0.931 . S
H1025 C1023 0.930 . S
H1026 C1049 0.931 . S
H1027 C1015 0.929 . S
H1028 C1050 0.930 . S
H1029 C1021 0.931 1_455 S
H1030 C1011 0.930 . S
H1031 C1040 0.929 . S
H1032 C1016 0.931 . S
H1033 C1017 0.930 . S
H1034 C1072 0.930 . S
H1035 C1013 0.929 . S
H1036 C1041 0.931 . S
H1037 C1042 0.930 . S
N1038 Gd1018 2.622 . S
N1038 C1039 1.369 1_554 S
N1038 C1040 1.338 . S
C1039 N1038 1.369 1_556 S
C1039 C1043 1.415 . S
C1039 C1046 1.422 . S
C1040 H1031 0.929 . S
C1040 N1038 1.338 . S
C1040 C1042 1.378 . S
C1041 H1036 0.931 . S
C1041 C1042 1.348 . S
C1041 C1043 1.413 1_554 S
C1042 H1037 0.930 . S
C1042 C1040 1.378 . S
C1042 C1041 1.348 . S
C1043 C1039 1.415 . S
C1043 C1041 1.413 1_556 S
C1043 C1073 1.437 . S
H1044 C1073 0.929 . S
N1045 Gd1018 2.570 1_556 S
N1045 C1046 1.359 . S
N1045 C1049 1.343 . S
C1046 C1039 1.422 . S
C1046 N1045 1.359 . S
C1046 C1048 1.421 . S
C1047 C1048 1.422 . S
C1047 C1050 1.321 . S
C1047 H1074 0.931 . S
C1048 C1046 1.421 . S
C1048 C1047 1.422 . S
C1048 C1072 1.417 . S
C1049 H1026 0.931 . S
C1049 N1045 1.343 . S
C1049 C1050 1.390 . S
C1050 H1028 0.930 . S
C1050 C1047 1.321 . S
C1050 C1049 1.390 . S
O1051 Gd1019 2.386 . S
O1051 C1063 1.265 . S
O1052 Gd1018 2.353 . S
O1052 C1063 1.242 . S
O1053 Gd1018 2.468 1_556 S
O1053 C1071 1.263 . S
O1054 Gd1018 2.427 1_556 S
O1054 C1071 1.252 . S
O1055 Gd1019 2.307 . S
O1055 C1064 1.261 . S
O1056 Gd1018 2.388 . S
O1056 C1064 1.252 . S
O1057 Gd1018 2.386 . S
O1057 C1075 1.265 . S
O1058 Gd1019 2.353 . S
O1058 C1075 1.242 . S
O1059 Gd1019 2.468 . S
O1059 C1083 1.263 . S
O1060 Gd1019 2.427 . S
O1060 C1083 1.252 . S
O1061 Gd1018 2.307 . S
O1061 C1076 1.261 . S
O1062 Gd1019 2.388 . S
O1062 C1076 1.252 . S
C1063 O1051 1.265 . S
C1063 O1052 1.242 . S
C1064 O1055 1.261 . S
C1064 O1056 1.252 . S
C1065 C1068 1.394 . S
C1065 C1070 1.370 . S
C1065 C1071 1.500 . S
C1066 C1069 1.383 . S
C1066 C1070 1.395 . S
C1067 C1068 1.396 . S
C1067 C1069 1.365 . S
C1067 H1084 0.929 . S
C1068 C1065 1.394 . S
C1068 C1067 1.396 . S
C1068 H1085 0.930 . S
C1069 C1066 1.383 . S
C1069 C1067 1.365 . S
C1069 H1086 0.931 . S
C1070 C1065 1.370 . S
C1070 C1066 1.395 . S
C1070 H1087 0.930 . S
C1071 Gd1018 2.805 1_556 S
C1071 O1053 1.263 . S
C1071 O1054 1.252 . S
C1071 C1065 1.500 . S
C1072 H1034 0.930 . S
C1072 C1048 1.417 . S
C1072 C1073 1.329 . S
C1073 C1043 1.437 . S
C1073 H1044 0.929 . S
C1073 C1072 1.329 . S
H1074 C1047 0.931 . S
C1075 O1057 1.265 . S
C1075 O1058 1.242 . S
C1076 O1061 1.261 . S
C1076 O1062 1.252 . S
C1077 C1080 1.394 . S
C1077 C1082 1.370 . S
C1077 C1083 1.500 . S
C1078 C1081 1.383 . S
C1078 C1082 1.395 . S
C1079 C1080 1.396 . S
C1079 C1081 1.365 . S
C1079 H1088 0.929 . S
C1080 C1077 1.394 . S
C1080 C1079 1.396 . S
C1080 H1089 0.930 . S
C1081 C1078 1.383 . S
C1081 C1079 1.365 . S
C1081 H1090 0.931 . S
C1082 C1077 1.370 . S
C1082 C1078 1.395 . S
C1082 H1091 0.930 . S
C1083 Gd1019 2.805 . S
C1083 O1059 1.263 . S
C1083 O1060 1.252 . S
C1083 C1077 1.500 . S
H1084 C1067 0.929 . S
H1085 C1068 0.930 . S
H1086 C1069 0.931 . S
H1087 C1070 0.930 . S
H1088 C1079 0.929 . S
H1089 C1080 0.930 . S
H1090 C1081 0.931 . S
H1091 C1082 0.930 . S
C1092 C1094 1.422 . S
C1092 C1096 1.415 . S
C1092 N1098 1.369 . S
C1093 C1094 1.421 . S
C1093 C1095 1.417 1_455 S
C1093 C1105 1.422 . S
C1094 C1092 1.422 . S
C1094 C1093 1.421 . S
C1094 N1104 1.359 . S
C1095 C1093 1.417 1_655 S
C1095 C1097 1.329 . S
C1095 H1114 0.930 . S
C1096 C1092 1.415 . S
C1096 C1097 1.437 1_455 S
C1096 C1100 1.413 . S
C1097 C1095 1.329 . S
C1097 C1096 1.437 1_655 S
C1097 H1119 0.929 . S
N1098 C1092 1.369 . S
N1098 C1099 1.338 . S
N1098 Gd1103 2.622 . S
C1099 N1098 1.338 . S
C1099 C1101 1.378 . S
C1099 H1111 0.929 . S
C1100 C1096 1.413 . S
C1100 C1101 1.348 . S
C1100 H1116 0.931 1_545 S
C1101 C1099 1.378 . S
C1101 C1100 1.348 . S
C1101 H1117 0.930 1_545 S
Gd1102 N1122 2.622 . S
Gd1102 N1129 2.570 1_556 S
Gd1102 O1136 2.353 . S
Gd1102 O1137 2.468 1_556 S
Gd1102 O1138 2.427 1_556 S
Gd1102 O1140 2.388 . S
Gd1102 O1141 2.386 . S
Gd1102 O1145 2.307 . S
Gd1102 C1155 2.805 1_556 S
Gd1103 N1098 2.622 . S
Gd1103 N1104 2.570 . S
Gd1103 O1135 2.386 . S
Gd1103 O1139 2.307 . S
Gd1103 O1142 2.353 . S
Gd1103 O1143 2.468 . S
Gd1103 O1144 2.427 . S
Gd1103 O1146 2.388 . S
Gd1103 C1167 2.805 . S
N1104 C1094 1.359 . S
N1104 Gd1103 2.570 . S
N1104 C1106 1.343 . S
C1105 C1093 1.422 . S
C1105 C1107 1.321 . S
C1105 H1113 0.931 1_455 S
C1106 N1104 1.343 . S
C1106 C1107 1.390 . S
C1106 H1108 0.931 . S
C1107 C1105 1.321 . S
C1107 C1106 1.390 . S
C1107 H1109 0.930 . S
H1108 C1106 0.931 . S
H1109 C1107 0.930 . S
H1110 C1133 0.931 . S
H1111 C1099 0.929 . S
H1112 C1134 0.930 . S
H1113 C1105 0.931 1_655 S
H1114 C1095 0.930 . S
H1115 C1124 0.929 . S
H1116 C1100 0.931 1_565 S
H1117 C1101 0.930 1_565 S
H1118 C1156 0.930 . S
H1119 C1097 0.929 . S
H1120 C1125 0.931 . S
H1121 C1126 0.930 . S
N1122 Gd1102 2.622 . S
N1122 C1123 1.369 1_556 S
N1122 C1124 1.338 . S
C1123 N1122 1.369 1_554 S
C1123 C1127 1.415 . S
C1123 C1130 1.422 . S
C1124 H1115 0.929 . S
C1124 N1122 1.338 . S
C1124 C1126 1.378 . S
C1125 H1120 0.931 . S
C1125 C1126 1.348 . S
C1125 C1127 1.413 1_556 S
C1126 H1121 0.930 . S
C1126 C1124 1.378 . S
C1126 C1125 1.348 . S
C1127 C1123 1.415 . S
C1127 C1125 1.413 1_554 S
C1127 C1157 1.437 . S
H1128 C1157 0.929 . S
N1129 Gd1102 2.570 1_554 S
N1129 C1130 1.359 . S
N1129 C1133 1.343 . S
C1130 C1123 1.422 . S
C1130 N1129 1.359 . S
C1130 C1132 1.421 . S
C1131 C1132 1.422 . S
C1131 C1134 1.321 . S
C1131 H1158 0.931 . S
C1132 C1130 1.421 . S
C1132 C1131 1.422 . S
C1132 C1156 1.417 . S
C1133 H1110 0.931 . S
C1133 N1129 1.343 . S
C1133 C1134 1.390 . S
C1134 H1112 0.930 . S
C1134 C1131 1.321 . S
C1134 C1133 1.390 . S
O1135 Gd1103 2.386 . S
O1135 C1147 1.265 . S
O1136 Gd1102 2.353 . S
O1136 C1147 1.242 . S
O1137 Gd1102 2.468 1_554 S
O1137 C1155 1.263 . S
O1138 Gd1102 2.427 1_554 S
O1138 C1155 1.252 . S
O1139 Gd1103 2.307 . S
O1139 C1148 1.261 . S
O1140 Gd1102 2.388 . S
O1140 C1148 1.252 . S
O1141 Gd1102 2.386 . S
O1141 C1159 1.265 . S
O1142 Gd1103 2.353 . S
O1142 C1159 1.242 . S
O1143 Gd1103 2.468 . S
O1143 C1167 1.263 . S
O1144 Gd1103 2.427 . S
O1144 C1167 1.252 . S
O1145 Gd1102 2.307 . S
O1145 C1160 1.261 . S
O1146 Gd1103 2.388 . S
O1146 C1160 1.252 . S
C1147 O1135 1.265 . S
C1147 O1136 1.242 . S
C1148 O1139 1.261 . S
C1148 O1140 1.252 . S
C1149 C1152 1.394 . S
C1149 C1154 1.370 . S
C1149 C1155 1.500 . S
C1150 C1153 1.383 . S
C1150 C1154 1.395 . S
C1151 C1152 1.396 . S
C1151 C1153 1.365 . S
C1151 H1168 0.929 . S
C1152 C1149 1.394 . S
C1152 C1151 1.396 . S
C1152 H1169 0.930 . S
C1153 C1150 1.383 . S
C1153 C1151 1.365 . S
C1153 H1170 0.931 . S
C1154 C1149 1.370 . S
C1154 C1150 1.395 . S
C1154 H1171 0.930 . S
C1155 Gd1102 2.805 1_554 S
C1155 O1137 1.263 . S
C1155 O1138 1.252 . S
C1155 C1149 1.500 . S
C1156 H1118 0.930 . S
C1156 C1132 1.417 . S
C1156 C1157 1.329 . S
C1157 C1127 1.437 . S
C1157 H1128 0.929 . S
C1157 C1156 1.329 . S
H1158 C1131 0.931 . S
C1159 O1141 1.265 . S
C1159 O1142 1.242 . S
C1160 O1145 1.261 . S
C1160 O1146 1.252 . S
C1161 C1164 1.394 . S
C1161 C1166 1.370 . S
C1161 C1167 1.500 . S
C1162 C1165 1.383 . S
C1162 C1166 1.395 . S
C1163 C1164 1.396 . S
C1163 C1165 1.365 . S
C1163 H1172 0.929 . S
C1164 C1161 1.394 . S
C1164 C1163 1.396 . S
C1164 H1173 0.930 . S
C1165 C1162 1.383 . S
C1165 C1163 1.365 . S
C1165 H1174 0.931 . S
C1166 C1161 1.370 . S
C1166 C1162 1.395 . S
C1166 H1175 0.930 . S
C1167 Gd1103 2.805 . S
C1167 O1143 1.263 . S
C1167 O1144 1.252 . S
C1167 C1161 1.500 . S
H1168 C1151 0.929 . S
H1169 C1152 0.930 . S
H1170 C1153 0.931 . S
H1171 C1154 0.930 . S
H1172 C1163 0.929 . S
H1173 C1164 0.930 . S
H1174 C1165 0.931 . S
H1175 C1166 0.930 . S
C1176 C1178 1.422 . S
C1176 C1180 1.415 . S
C1176 N1182 1.369 . S
C1177 C1178 1.421 . S
C1177 C1179 1.417 . S
C1177 C1189 1.422 . S
C1178 C1176 1.422 . S
C1178 C1177 1.421 . S
C1178 N1188 1.359 . S
C1179 C1177 1.417 . S
C1179 C1181 1.329 . S
C1179 H1198 0.930 . S
C1180 C1176 1.415 . S
C1180 C1181 1.437 . S
C1180 C1184 1.413 . S
C1181 C1179 1.329 . S
C1181 C1180 1.437 . S
C1181 H1203 0.929 . S
N1182 C1176 1.369 . S
N1182 C1183 1.338 . S
N1182 Gd1187 2.622 . S
C1183 N1182 1.338 . S
C1183 C1185 1.378 . S
C1183 H1195 0.929 . S
C1184 C1180 1.413 . S
C1184 C1185 1.348 . S
C1184 H1200 0.931 . S
C1185 C1183 1.378 . S
C1185 C1184 1.348 . S
C1185 H1201 0.930 . S
Gd1186 N1206 2.622 . S
Gd1186 N1213 2.570 . S
Gd1186 O1220 2.353 . S
Gd1186 O1221 2.468 . S
Gd1186 O1222 2.427 . S
Gd1186 O1224 2.388 . S
Gd1186 O1225 2.386 . S
Gd1186 O1229 2.307 . S
Gd1186 C1239 2.805 . S
Gd1187 N1182 2.622 . S
Gd1187 N1188 2.570 . S
Gd1187 O1219 2.386 . S
Gd1187 O1223 2.307 . S
Gd1187 O1226 2.353 . S
Gd1187 O1227 2.468 . S
Gd1187 O1228 2.427 . S
Gd1187 O1230 2.388 . S
Gd1187 C1251 2.805 . S
N1188 C1178 1.359 . S
N1188 Gd1187 2.570 . S
N1188 C1190 1.343 . S
C1189 C1177 1.422 . S
C1189 C1191 1.321 . S
C1189 H1197 0.931 . S
C1190 N1188 1.343 . S
C1190 C1191 1.390 . S
C1190 H1192 0.931 . S
C1191 C1189 1.321 . S
C1191 C1190 1.390 . S
C1191 H1193 0.930 . S
H1192 C1190 0.931 . S
H1193 C1191 0.930 . S
H1194 C1217 0.931 . S
H1195 C1183 0.929 . S
H1196 C1218 0.930 . S
H1197 C1189 0.931 . S
H1198 C1179 0.930 . S
H1199 C1208 0.929 . S
H1200 C1184 0.931 . S
H1201 C1185 0.930 . S
H1202 C1240 0.930 . S
H1203 C1181 0.929 . S
H1204 C1209 0.931 . S
H1205 C1210 0.930 . S
N1206 Gd1186 2.622 . S
N1206 C1207 1.369 . S
N1206 C1208 1.338 . S
C1207 N1206 1.369 . S
C1207 C1211 1.415 . S
C1207 C1214 1.422 . S
C1208 H1199 0.929 . S
C1208 N1206 1.338 . S
C1208 C1210 1.378 . S
C1209 H1204 0.931 . S
C1209 C1210 1.348 . S
C1209 C1211 1.413 . S
C1210 H1205 0.930 . S
C1210 C1208 1.378 . S
C1210 C1209 1.348 . S
C1211 C1207 1.415 . S
C1211 C1209 1.413 . S
C1211 C1241 1.437 . S
H1212 C1241 0.929 . S
N1213 Gd1186 2.570 . S
N1213 C1214 1.359 . S
N1213 C1217 1.343 . S
C1214 C1207 1.422 . S
C1214 N1213 1.359 . S
C1214 C1216 1.421 . S
C1215 C1216 1.422 . S
C1215 C1218 1.321 . S
C1215 H1242 0.931 . S
C1216 C1214 1.421 . S
C1216 C1215 1.422 . S
C1216 C1240 1.417 . S
C1217 H1194 0.931 . S
C1217 N1213 1.343 . S
C1217 C1218 1.390 . S
C1218 H1196 0.930 . S
C1218 C1215 1.321 . S
C1218 C1217 1.390 . S
O1219 Gd1187 2.386 . S
O1219 C1231 1.265 . S
O1220 Gd1186 2.353 . S
O1220 C1231 1.242 . S
O1221 Gd1186 2.468 . S
O1221 C1239 1.263 . S
O1222 Gd1186 2.427 . S
O1222 C1239 1.252 . S
O1223 Gd1187 2.307 . S
O1223 C1232 1.261 . S
O1224 Gd1186 2.388 . S
O1224 C1232 1.252 . S
O1225 Gd1186 2.386 . S
O1225 C1243 1.265 . S
O1226 Gd1187 2.353 . S
O1226 C1243 1.242 . S
O1227 Gd1187 2.468 . S
O1227 C1251 1.263 . S
O1228 Gd1187 2.427 . S
O1228 C1251 1.252 . S
O1229 Gd1186 2.307 . S
O1229 C1244 1.261 . S
O1230 Gd1187 2.388 . S
O1230 C1244 1.252 . S
C1231 O1219 1.265 . S
C1231 O1220 1.242 . S
C1232 O1223 1.261 . S
C1232 O1224 1.252 . S
C1233 C1236 1.394 . S
C1233 C1238 1.370 . S
C1233 C1239 1.500 . S
C1234 C1237 1.383 . S
C1234 C1238 1.395 1_554 S
C1235 C1236 1.396 . S
C1235 C1237 1.365 1_556 S
C1235 H1252 0.929 1_556 S
C1236 C1233 1.394 . S
C1236 C1235 1.396 . S
C1236 H1253 0.930 . S
C1237 C1234 1.383 . S
C1237 C1235 1.365 1_554 S
C1237 H1254 0.931 . S
C1238 C1233 1.370 . S
C1238 C1234 1.395 1_556 S
C1238 H1255 0.930 . S
C1239 Gd1186 2.805 . S
C1239 O1221 1.263 . S
C1239 O1222 1.252 . S
C1239 C1233 1.500 . S
C1240 H1202 0.930 . S
C1240 C1216 1.417 . S
C1240 C1241 1.329 . S
C1241 C1211 1.437 . S
C1241 H1212 0.929 . S
C1241 C1240 1.329 . S
H1242 C1215 0.931 . S
C1243 O1225 1.265 . S
C1243 O1226 1.242 . S
C1244 O1229 1.261 . S
C1244 O1230 1.252 . S
C1245 C1248 1.394 . S
C1245 C1250 1.370 . S
C1245 C1251 1.500 . S
C1246 C1249 1.383 . S
C1246 C1250 1.395 . S
C1247 C1248 1.396 . S
C1247 C1249 1.365 . S
C1247 H1256 0.929 . S
C1248 C1245 1.394 . S
C1248 C1247 1.396 . S
C1248 H1257 0.930 . S
C1249 C1246 1.383 . S
C1249 C1247 1.365 . S
C1249 H1258 0.931 . S
C1250 C1245 1.370 . S
C1250 C1246 1.395 . S
C1250 H1259 0.930 . S
C1251 Gd1187 2.805 . S
C1251 O1227 1.263 . S
C1251 O1228 1.252 . S
C1251 C1245 1.500 . S
H1252 C1235 0.929 1_554 S
H1253 C1236 0.930 . S
H1254 C1237 0.931 . S
H1255 C1238 0.930 . S
H1256 C1247 0.929 . S
H1257 C1248 0.930 . S
H1258 C1249 0.931 . S
H1259 C1250 0.930 . S
C1260 C1262 1.422 . S
C1260 C1264 1.415 . S
C1260 N1266 1.369 . S
C1261 C1262 1.421 . S
C1261 C1263 1.417 . S
C1261 C1273 1.422 . S
C1262 C1260 1.422 . S
C1262 C1261 1.421 . S
C1262 N1272 1.359 . S
C1263 C1261 1.417 . S
C1263 C1265 1.329 . S
C1263 H1282 0.930 . S
C1264 C1260 1.415 . S
C1264 C1265 1.437 . S
C1264 C1268 1.413 . S
C1265 C1263 1.329 . S
C1265 C1264 1.437 . S
C1265 H1287 0.929 . S
N1266 C1260 1.369 . S
N1266 C1267 1.338 . S
N1266 Gd1271 2.622 . S
C1267 N1266 1.338 . S
C1267 C1269 1.378 . S
C1267 H1279 0.929 . S
C1268 C1264 1.413 . S
C1268 C1269 1.348 . S
C1268 H1284 0.931 1_565 S
C1269 C1267 1.378 . S
C1269 C1268 1.348 . S
C1269 H1285 0.930 1_565 S
Gd1270 N1290 2.622 . S
Gd1270 N1297 2.570 . S
Gd1270 O1304 2.353 . S
Gd1270 O1305 2.468 . S
Gd1270 O1306 2.427 . S
Gd1270 O1308 2.388 . S
Gd1270 O1309 2.386 . S
Gd1270 O1313 2.307 . S
Gd1270 C1323 2.805 . S
Gd1271 N1266 2.622 . S
Gd1271 N1272 2.570 . S
Gd1271 O1303 2.386 . S
Gd1271 O1307 2.307 . S
Gd1271 O1310 2.353 . S
Gd1271 O1311 2.468 . S
Gd1271 O1312 2.427 . S
Gd1271 O1314 2.388 . S
Gd1271 C1335 2.805 . S
N1272 C1262 1.359 . S
N1272 Gd1271 2.570 . S
N1272 C1274 1.343 . S
C1273 C1261 1.422 . S
C1273 C1275 1.321 . S
C1273 H1281 0.931 . S
C1274 N1272 1.343 . S
C1274 C1275 1.390 . S
C1274 H1276 0.931 . S
C1275 C1273 1.321 . S
C1275 C1274 1.390 . S
C1275 H1277 0.930 . S
H1276 C1274 0.931 . S
H1277 C1275 0.930 . S
H1278 C1301 0.931 . S
H1279 C1267 0.929 . S
H1280 C1302 0.930 . S
H1281 C1273 0.931 . S
H1282 C1263 0.930 . S
H1283 C1292 0.929 . S
H1284 C1268 0.931 1_545 S
H1285 C1269 0.930 1_545 S
H1286 C1324 0.930 . S
H1287 C1265 0.929 . S
H1288 C1293 0.931 . S
H1289 C1294 0.930 . S
N1290 Gd1270 2.622 . S
N1290 C1291 1.369 . S
N1290 C1292 1.338 . S
C1291 N1290 1.369 . S
C1291 C1295 1.415 . S
C1291 C1298 1.422 . S
C1292 H1283 0.929 . S
C1292 N1290 1.338 . S
C1292 C1294 1.378 . S
C1293 H1288 0.931 . S
C1293 C1294 1.348 . S
C1293 C1295 1.413 . S
C1294 H1289 0.930 . S
C1294 C1292 1.378 . S
C1294 C1293 1.348 . S
C1295 C1291 1.415 . S
C1295 C1293 1.413 . S
C1295 C1325 1.437 . S
H1296 C1325 0.929 . S
N1297 Gd1270 2.570 . S
N1297 C1298 1.359 . S
N1297 C1301 1.343 . S
C1298 C1291 1.422 . S
C1298 N1297 1.359 . S
C1298 C1300 1.421 . S
C1299 C1300 1.422 . S
C1299 C1302 1.321 . S
C1299 H1326 0.931 . S
C1300 C1298 1.421 . S
C1300 C1299 1.422 . S
C1300 C1324 1.417 . S
C1301 H1278 0.931 . S
C1301 N1297 1.343 . S
C1301 C1302 1.390 . S
C1302 H1280 0.930 . S
C1302 C1299 1.321 . S
C1302 C1301 1.390 . S
O1303 Gd1271 2.386 . S
O1303 C1315 1.265 . S
O1304 Gd1270 2.353 . S
O1304 C1315 1.242 . S
O1305 Gd1270 2.468 . S
O1305 C1323 1.263 . S
O1306 Gd1270 2.427 . S
O1306 C1323 1.252 . S
O1307 Gd1271 2.307 . S
O1307 C1316 1.261 . S
O1308 Gd1270 2.388 . S
O1308 C1316 1.252 . S
O1309 Gd1270 2.386 . S
O1309 C1327 1.265 . S
O1310 Gd1271 2.353 . S
O1310 C1327 1.242 . S
O1311 Gd1271 2.468 . S
O1311 C1335 1.263 . S
O1312 Gd1271 2.427 . S
O1312 C1335 1.252 . S
O1313 Gd1270 2.307 . S
O1313 C1328 1.261 . S
O1314 Gd1271 2.388 . S
O1314 C1328 1.252 . S
C1315 O1303 1.265 . S
C1315 O1304 1.242 . S
C1316 O1307 1.261 . S
C1316 O1308 1.252 . S
C1317 C1320 1.394 . S
C1317 C1322 1.370 . S
C1317 C1323 1.500 . S
C1318 C1321 1.383 . S
C1318 C1322 1.395 . S
C1319 C1320 1.396 . S
C1319 C1321 1.365 . S
C1319 H1336 0.929 . S
C1320 C1317 1.394 . S
C1320 C1319 1.396 . S
C1320 H1337 0.930 . S
C1321 C1318 1.383 . S
C1321 C1319 1.365 . S
C1321 H1338 0.931 . S
C1322 C1317 1.370 . S
C1322 C1318 1.395 . S
C1322 H1339 0.930 . S
C1323 Gd1270 2.805 . S
C1323 O1305 1.263 . S
C1323 O1306 1.252 . S
C1323 C1317 1.500 . S
C1324 H1286 0.930 . S
C1324 C1300 1.417 . S
C1324 C1325 1.329 . S
C1325 C1295 1.437 . S
C1325 H1296 0.929 . S
C1325 C1324 1.329 . S
H1326 C1299 0.931 . S
C1327 O1309 1.265 . S
C1327 O1310 1.242 . S
C1328 O1313 1.261 . S
C1328 O1314 1.252 . S
C1329 C1332 1.394 . S
C1329 C1334 1.370 . S
C1329 C1335 1.500 . S
C1330 C1333 1.383 . S
C1330 C1334 1.395 1_556 S
C1331 C1332 1.396 . S
C1331 C1333 1.365 1_554 S
C1331 H1340 0.929 1_554 S
C1332 C1329 1.394 . S
C1332 C1331 1.396 . S
C1332 H1341 0.930 . S
C1333 C1330 1.383 . S
C1333 C1331 1.365 1_556 S
C1333 H1342 0.931 . S
C1334 C1329 1.370 . S
C1334 C1330 1.395 1_554 S
C1334 H1343 0.930 . S
C1335 Gd1271 2.805 . S
C1335 O1311 1.263 . S
C1335 O1312 1.252 . S
C1335 C1329 1.500 . S
H1336 C1319 0.929 . S
H1337 C1320 0.930 . S
H1338 C1321 0.931 . S
H1339 C1322 0.930 . S
H1340 C1331 0.929 1_556 S
H1341 C1332 0.930 . S
H1342 C1333 0.931 . S
H1343 C1334 0.930 . S
C1344 C1345 1.369 . S
C1344 C1346 1.419 . S
C1344 H1348 0.930 . S
C1345 C1344 1.369 . S
C1345 C1354 1.429 . S
C1346 C1344 1.419 . S
C1346 C1347 1.363 . S
C1346 H1349 0.929 . S
C1347 C1346 1.363 . S
C1347 C1353 1.428 . S
H1348 C1344 0.930 . S
H1349 C1346 0.929 . S
S1350 N1351 1.613 . S
S1350 N1352 1.610 . S
N1351 S1350 1.613 . S
N1351 C1354 1.350 . S
N1352 S1350 1.610 . S
N1352 C1353 1.351 . S
C1353 C1347 1.428 . S
C1353 N1352 1.351 . S
C1353 C1354 1.434 . S
C1354 C1345 1.429 . S
C1354 N1351 1.350 . S
C1354 C1353 1.434 . S
C1355 C1356 1.369 . S
C1355 C1357 1.419 . S
C1355 H1359 0.930 . S
C1356 C1355 1.369 . S
C1356 C1365 1.429 . S
C1357 C1355 1.419 . S
C1357 C1358 1.363 . S
C1357 H1360 0.929 . S
C1358 C1357 1.363 . S
C1358 C1364 1.428 . S
H1359 C1355 0.930 . S
H1360 C1357 0.929 . S
S1361 N1362 1.613 . S
S1361 N1363 1.610 . S
N1362 S1361 1.613 . S
N1362 C1365 1.350 . S
N1363 S1361 1.610 . S
N1363 C1364 1.351 . S
C1364 C1358 1.428 . S
C1364 N1363 1.351 . S
C1364 C1365 1.434 . S
C1365 C1356 1.429 . S
C1365 N1362 1.350 . S
C1365 C1364 1.434 . S
C1366 C1367 1.369 . S
C1366 C1368 1.419 . S
C1366 H1370 0.930 . S
C1367 C1366 1.369 . S
C1367 C1376 1.429 . S
C1368 C1366 1.419 . S
C1368 C1369 1.363 . S
C1368 H1371 0.929 . S
C1369 C1368 1.363 . S
C1369 C1375 1.428 . S
H1370 C1366 0.930 . S
H1371 C1368 0.929 . S
S1372 N1373 1.613 . S
S1372 N1374 1.610 . S
N1373 S1372 1.613 . S
N1373 C1376 1.350 . S
N1374 S1372 1.610 . S
N1374 C1375 1.351 . S
C1375 C1369 1.428 . S
C1375 N1374 1.351 . S
C1375 C1376 1.434 . S
C1376 C1367 1.429 . S
C1376 N1373 1.350 . S
C1376 C1375 1.434 . S
C1377 C1378 1.369 . S
C1377 C1379 1.419 . S
C1377 H1381 0.930 . S
C1378 C1377 1.369 . S
C1378 C1387 1.429 . S
C1379 C1377 1.419 . S
C1379 C1380 1.363 . S
C1379 H1382 0.929 . S
C1380 C1379 1.363 . S
C1380 C1386 1.428 . S
H1381 C1377 0.930 . S
H1382 C1379 0.929 . S
S1383 N1384 1.613 . S
S1383 N1385 1.610 . S
N1384 S1383 1.613 . S
N1384 C1387 1.350 . S
N1385 S1383 1.610 . S
N1385 C1386 1.351 . S
C1386 C1380 1.428 . S
C1386 N1385 1.351 . S
C1386 C1387 1.434 . S
C1387 C1378 1.429 . S
C1387 N1384 1.350 . S
C1387 C1386 1.434 . S
C1388 C1389 1.369 . S
C1388 C1390 1.419 . S
C1388 H1392 0.930 . S
C1389 C1388 1.369 . S
C1389 C1398 1.429 . S
C1390 C1388 1.419 . S
C1390 C1391 1.363 . S
C1390 H1393 0.929 . S
C1391 C1390 1.363 . S
C1391 C1397 1.428 . S
H1392 C1388 0.930 . S
H1393 C1390 0.929 . S
S1394 N1395 1.613 . S
S1394 N1396 1.610 . S
N1395 S1394 1.613 . S
N1395 C1398 1.350 . S
N1396 S1394 1.610 . S
N1396 C1397 1.351 . S
C1397 C1391 1.428 . S
C1397 N1396 1.351 . S
C1397 C1398 1.434 . S
C1398 C1389 1.429 . S
C1398 N1395 1.350 . S
C1398 C1397 1.434 . S
C1399 C1400 1.369 . S
C1399 C1401 1.419 . S
C1399 H1403 0.930 . S
C1400 C1399 1.369 . S
C1400 C1409 1.429 . S
C1401 C1399 1.419 . S
C1401 C1402 1.363 . S
C1401 H1404 0.929 . S
C1402 C1401 1.363 . S
C1402 C1408 1.428 . S
H1403 C1399 0.930 . S
H1404 C1401 0.929 . S
S1405 N1406 1.613 . S
S1405 N1407 1.610 . S
N1406 S1405 1.613 . S
N1406 C1409 1.350 . S
N1407 S1405 1.610 . S
N1407 C1408 1.351 . S
C1408 C1402 1.428 . S
C1408 N1407 1.351 . S
C1408 C1409 1.434 . S
C1409 C1400 1.429 . S
C1409 N1406 1.350 . S
C1409 C1408 1.434 . S
C1410 C1411 1.369 . S
C1410 C1412 1.419 . S
C1410 H1414 0.930 . S
C1411 C1410 1.369 . S
C1411 C1420 1.429 . S
C1412 C1410 1.419 . S
C1412 C1413 1.363 . S
C1412 H1415 0.929 . S
C1413 C1412 1.363 . S
C1413 C1419 1.428 . S
H1414 C1410 0.930 . S
H1415 C1412 0.929 . S
S1416 N1417 1.613 . S
S1416 N1418 1.610 . S
N1417 S1416 1.613 . S
N1417 C1420 1.350 . S
N1418 S1416 1.610 . S
N1418 C1419 1.351 . S
C1419 C1413 1.428 . S
C1419 N1418 1.351 . S
C1419 C1420 1.434 . S
C1420 C1411 1.429 . S
C1420 N1417 1.350 . S
C1420 C1419 1.434 . S
C1421 C1422 1.369 . S
C1421 C1423 1.419 . S
C1421 H1425 0.930 . S
C1422 C1421 1.369 . S
C1422 C1431 1.429 . S
C1423 C1421 1.419 . S
C1423 C1424 1.363 . S
C1423 H1426 0.929 . S
C1424 C1423 1.363 . S
C1424 C1430 1.428 . S
H1425 C1421 0.930 . S
H1426 C1423 0.929 . S
S1427 N1428 1.613 . S
S1427 N1429 1.610 . S
N1428 S1427 1.613 . S
N1428 C1431 1.350 . S
N1429 S1427 1.610 . S
N1429 C1430 1.351 . S
C1430 C1424 1.428 . S
C1430 N1429 1.351 . S
C1430 C1431 1.434 . S
C1431 C1422 1.429 . S
C1431 N1428 1.350 . S
C1431 C1430 1.434 . S
C1432 C1433 1.369 . S
C1432 C1434 1.419 . S
C1432 H1436 0.930 . S
C1433 C1432 1.369 . S
C1433 C1442 1.429 . S
C1434 C1432 1.419 . S
C1434 C1435 1.363 . S
C1434 H1437 0.929 . S
C1435 C1434 1.363 . S
C1435 C1441 1.428 . S
H1436 C1432 0.930 . S
H1437 C1434 0.929 . S
S1438 N1439 1.613 . S
S1438 N1440 1.610 . S
N1439 S1438 1.613 . S
N1439 C1442 1.350 . S
N1440 S1438 1.610 . S
N1440 C1441 1.351 . S
C1441 C1435 1.428 . S
C1441 N1440 1.351 . S
C1441 C1442 1.434 . S
C1442 C1433 1.429 . S
C1442 N1439 1.350 . S
C1442 C1441 1.434 . S
C1443 C1444 1.369 . S
C1443 C1445 1.419 . S
C1443 H1447 0.930 . S
C1444 C1443 1.369 . S
C1444 C1453 1.429 . S
C1445 C1443 1.419 . S
C1445 C1446 1.363 . S
C1445 H1448 0.929 . S
C1446 C1445 1.363 . S
C1446 C1452 1.428 . S
H1447 C1443 0.930 . S
H1448 C1445 0.929 . S
S1449 N1450 1.613 . S
S1449 N1451 1.610 . S
N1450 S1449 1.613 . S
N1450 C1453 1.350 . S
N1451 S1449 1.610 . S
N1451 C1452 1.351 . S
C1452 C1446 1.428 . S
C1452 N1451 1.351 . S
C1452 C1453 1.434 . S
C1453 C1444 1.429 . S
C1453 N1450 1.350 . S
C1453 C1452 1.434 . S
C1454 C1455 1.369 . S
C1454 C1456 1.419 . S
C1454 H1458 0.930 . S
C1455 C1454 1.369 . S
C1455 C1464 1.429 . S
C1456 C1454 1.419 . S
C1456 C1457 1.363 . S
C1456 H1459 0.929 . S
C1457 C1456 1.363 . S
C1457 C1463 1.428 . S
H1458 C1454 0.930 . S
H1459 C1456 0.929 . S
S1460 N1461 1.613 . S
S1460 N1462 1.610 . S
N1461 S1460 1.613 . S
N1461 C1464 1.350 . S
N1462 S1460 1.610 . S
N1462 C1463 1.351 . S
C1463 C1457 1.428 . S
C1463 N1462 1.351 . S
C1463 C1464 1.434 . S
C1464 C1455 1.429 . S
C1464 N1461 1.350 . S
C1464 C1463 1.434 . S
C1465 C1466 1.369 . S
C1465 C1467 1.419 . S
C1465 H1469 0.930 . S
C1466 C1465 1.369 . S
C1466 C1475 1.429 . S
C1467 C1465 1.419 . S
C1467 C1468 1.363 . S
C1467 H1470 0.929 . S
C1468 C1467 1.363 . S
C1468 C1474 1.428 . S
H1469 C1465 0.930 . S
H1470 C1467 0.929 . S
S1471 N1472 1.613 . S
S1471 N1473 1.610 . S
N1472 S1471 1.613 . S
N1472 C1475 1.350 . S
N1473 S1471 1.610 . S
N1473 C1474 1.351 . S
C1474 C1468 1.428 . S
C1474 N1473 1.351 . S
C1474 C1475 1.434 . S
C1475 C1466 1.429 . S
C1475 N1472 1.350 . S
C1475 C1474 1.434 . S
C1476 C1477 1.369 . S
C1476 C1478 1.419 . S
C1476 H1480 0.930 . S
C1477 C1476 1.369 . S
C1477 C1486 1.429 . S
C1478 C1476 1.419 . S
C1478 C1479 1.363 . S
C1478 H1481 0.929 . S
C1479 C1478 1.363 . S
C1479 C1485 1.428 . S
H1480 C1476 0.930 . S
H1481 C1478 0.929 . S
S1482 N1483 1.613 . S
S1482 N1484 1.610 . S
N1483 S1482 1.613 . S
N1483 C1486 1.350 . S
N1484 S1482 1.610 . S
N1484 C1485 1.351 . S
C1485 C1479 1.428 . S
C1485 N1484 1.351 . S
C1485 C1486 1.434 . S
C1486 C1477 1.429 . S
C1486 N1483 1.350 . S
C1486 C1485 1.434 . S
C1487 C1488 1.369 . S
C1487 C1489 1.419 . S
C1487 H1491 0.930 . S
C1488 C1487 1.369 . S
C1488 C1497 1.429 . S
C1489 C1487 1.419 . S
C1489 C1490 1.363 . S
C1489 H1492 0.929 . S
C1490 C1489 1.363 . S
C1490 C1496 1.428 . S
H1491 C1487 0.930 . S
H1492 C1489 0.929 . S
S1493 N1494 1.613 . S
S1493 N1495 1.610 . S
N1494 S1493 1.613 . S
N1494 C1497 1.350 . S
N1495 S1493 1.610 . S
N1495 C1496 1.351 . S
C1496 C1490 1.428 . S
C1496 N1495 1.351 . S
C1496 C1497 1.434 . S
C1497 C1488 1.429 . S
C1497 N1494 1.350 . S
C1497 C1496 1.434 . S
C1498 C1499 1.369 . S
C1498 C1500 1.419 . S
C1498 H1502 0.930 . S
C1499 C1498 1.369 . S
C1499 C1508 1.429 . S
C1500 C1498 1.419 . S
C1500 C1501 1.363 . S
C1500 H1503 0.929 . S
C1501 C1500 1.363 . S
C1501 C1507 1.428 . S
H1502 C1498 0.930 . S
H1503 C1500 0.929 . S
S1504 N1505 1.613 . S
S1504 N1506 1.610 . S
N1505 S1504 1.613 . S
N1505 C1508 1.350 . S
N1506 S1504 1.610 . S
N1506 C1507 1.351 . S
C1507 C1501 1.428 . S
C1507 N1506 1.351 . S
C1507 C1508 1.434 . S
C1508 C1499 1.429 . S
C1508 N1505 1.350 . S
C1508 C1507 1.434 . S
C1509 C1510 1.369 . S
C1509 C1511 1.419 . S
C1509 H1513 0.930 . S
C1510 C1509 1.369 . S
C1510 C1519 1.429 . S
C1511 C1509 1.419 . S
C1511 C1512 1.363 . S
C1511 H1514 0.929 . S
C1512 C1511 1.363 . S
C1512 C1518 1.428 . S
H1513 C1509 0.930 . S
H1514 C1511 0.929 . S
S1515 N1516 1.613 . S
S1515 N1517 1.610 . S
N1516 S1515 1.613 . S
N1516 C1519 1.350 . S
N1517 S1515 1.610 . S
N1517 C1518 1.351 . S
C1518 C1512 1.428 . S
C1518 N1517 1.351 . S
C1518 C1519 1.434 . S
C1519 C1510 1.429 . S
C1519 N1516 1.350 . S
C1519 C1518 1.434 . S
C1520 C1521 1.369 . S
C1520 C1522 1.419 . S
C1520 H1524 0.930 . S
C1521 C1520 1.369 . S
C1521 C1530 1.429 . S
C1522 C1520 1.419 . S
C1522 C1523 1.363 . S
C1522 H1525 0.929 . S
C1523 C1522 1.363 . S
C1523 C1529 1.428 . S
H1524 C1520 0.930 . S
H1525 C1522 0.929 . S
S1526 N1527 1.613 . S
S1526 N1528 1.610 . S
N1527 S1526 1.613 . S
N1527 C1530 1.350 . S
N1528 S1526 1.610 . S
N1528 C1529 1.351 . S
C1529 C1523 1.428 . S
C1529 N1528 1.351 . S
C1529 C1530 1.434 . S
C1530 C1521 1.429 . S
C1530 N1527 1.350 . S
C1530 C1529 1.434 . S
C1531 C1532 1.369 . S
C1531 C1533 1.419 . S
C1531 H1535 0.930 . S
C1532 C1531 1.369 . S
C1532 C1541 1.429 . S
C1533 C1531 1.419 . S
C1533 C1534 1.363 . S
C1533 H1536 0.929 . S
C1534 C1533 1.363 . S
C1534 C1540 1.428 . S
H1535 C1531 0.930 . S
H1536 C1533 0.929 . S
S1537 N1538 1.613 . S
S1537 N1539 1.610 . S
N1538 S1537 1.613 . S
N1538 C1541 1.350 . S
N1539 S1537 1.610 . S
N1539 C1540 1.351 . S
C1540 C1534 1.428 . S
C1540 N1539 1.351 . S
C1540 C1541 1.434 . S
C1541 C1532 1.429 . S
C1541 N1538 1.350 . S
C1541 C1540 1.434 . S
C1542 C1543 1.369 . S
C1542 C1544 1.419 . S
C1542 H1546 0.930 . S
C1543 C1542 1.369 . S
C1543 C1552 1.429 . S
C1544 C1542 1.419 . S
C1544 C1545 1.363 . S
C1544 H1547 0.929 . S
C1545 C1544 1.363 . S
C1545 C1551 1.428 . S
H1546 C1542 0.930 . S
H1547 C1544 0.929 . S
S1548 N1549 1.613 . S
S1548 N1550 1.610 . S
N1549 S1548 1.613 . S
N1549 C1552 1.350 . S
N1550 S1548 1.610 . S
N1550 C1551 1.351 . S
C1551 C1545 1.428 . S
C1551 N1550 1.351 . S
C1551 C1552 1.434 . S
C1552 C1543 1.429 . S
C1552 N1549 1.350 . S
C1552 C1551 1.434 . S
C1553 C1554 1.369 . S
C1553 C1555 1.419 1_655 S
C1553 H1557 0.930 . S
C1554 C1553 1.369 . S
C1554 C1563 1.429 . S
C1555 C1553 1.419 1_455 S
C1555 C1556 1.363 . S
C1555 H1558 0.929 . S
C1556 C1555 1.363 . S
C1556 C1562 1.428 . S
H1557 C1553 0.930 . S
H1558 C1555 0.929 . S
S1559 N1560 1.613 . S
S1559 N1561 1.610 1_655 S
N1560 S1559 1.613 . S
N1560 C1563 1.350 . S
N1561 S1559 1.610 1_455 S
N1561 C1562 1.351 . S
C1562 C1556 1.428 . S
C1562 N1561 1.351 . S
C1562 C1563 1.434 1_455 S
C1563 C1554 1.429 . S
C1563 N1560 1.350 . S
C1563 C1562 1.434 1_655 S
C1564 C1565 1.369 . S
C1564 C1566 1.419 . S
C1564 H1568 0.930 . S
C1565 C1564 1.369 . S
C1565 C1574 1.429 . S
C1566 C1564 1.419 . S
C1566 C1567 1.363 . S
C1566 H1569 0.929 . S
C1567 C1566 1.363 . S
C1567 C1573 1.428 . S
H1568 C1564 0.930 . S
H1569 C1566 0.929 . S
S1570 N1571 1.613 . S
S1570 N1572 1.610 . S
N1571 S1570 1.613 . S
N1571 C1574 1.350 . S
N1572 S1570 1.610 . S
N1572 C1573 1.351 . S
C1573 C1567 1.428 . S
C1573 N1572 1.351 . S
C1573 C1574 1.434 . S
C1574 C1565 1.429 . S
C1574 N1571 1.350 . S
C1574 C1573 1.434 . S
C1575 C1576 1.369 . S
C1575 C1577 1.419 1_455 S
C1575 H1579 0.930 . S
C1576 C1575 1.369 . S
C1576 C1585 1.429 . S
C1577 C1575 1.419 1_655 S
C1577 C1578 1.363 . S
C1577 H1580 0.929 . S
C1578 C1577 1.363 . S
C1578 C1584 1.428 . S
H1579 C1575 0.930 . S
H1580 C1577 0.929 . S
S1581 N1582 1.615 . S
S1581 N1583 1.609 1_455 S
N1582 S1581 1.615 . S
N1582 C1585 1.350 . S
N1583 S1581 1.609 1_655 S
N1583 C1584 1.351 . S
C1584 C1578 1.428 . S
C1584 N1583 1.351 . S
C1584 C1585 1.434 1_655 S
C1585 C1576 1.429 . S
C1585 N1582 1.350 . S
C1585 C1584 1.434 1_455 S
C1586 C1587 1.369 . S
C1586 C1588 1.419 . S
C1586 H1590 0.930 . S
C1587 C1586 1.369 . S
C1587 C1596 1.429 . S
C1588 C1586 1.419 . S
C1588 C1589 1.363 . S
C1588 H1591 0.929 . S
C1589 C1588 1.363 . S
C1589 C1595 1.428 . S
H1590 C1586 0.930 . S
H1591 C1588 0.929 . S
S1592 N1593 1.613 . S
S1592 N1594 1.610 . S
N1593 S1592 1.613 . S
N1593 C1596 1.350 . S
N1594 S1592 1.610 . S
N1594 C1595 1.351 . S
C1595 C1589 1.428 . S
C1595 N1594 1.351 . S
C1595 C1596 1.434 . S
C1596 C1587 1.429 . S
C1596 N1593 1.350 . S
C1596 C1595 1.434 . S
C1597 C1598 1.369 . S
C1597 C1599 1.419 . S
C1597 H1601 0.930 . S
C1598 C1597 1.369 . S
C1598 C1607 1.429 . S
C1599 C1597 1.419 . S
C1599 C1600 1.363 . S
C1599 H1602 0.929 . S
C1600 C1599 1.363 . S
C1600 C1606 1.428 . S
H1601 C1597 0.930 . S
H1602 C1599 0.929 . S
S1603 N1604 1.613 . S
S1603 N1605 1.610 . S
N1604 S1603 1.613 . S
N1604 C1607 1.350 . S
N1605 S1603 1.610 . S
N1605 C1606 1.351 . S
C1606 C1600 1.428 . S
C1606 N1605 1.351 . S
C1606 C1607 1.434 . S
C1607 C1598 1.429 . S
C1607 N1604 1.350 . S
C1607 C1606 1.434 . S
C1608 C1609 1.369 . S
C1608 C1610 1.419 . S
C1608 H1612 0.930 . S
C1609 C1608 1.369 . S
C1609 C1618 1.429 . S
C1610 C1608 1.419 . S
C1610 C1611 1.363 . S
C1610 H1613 0.929 . S
C1611 C1610 1.363 . S
C1611 C1617 1.428 . S
H1612 C1608 0.930 . S
H1613 C1610 0.929 . S
S1614 N1615 1.613 . S
S1614 N1616 1.610 . S
N1615 S1614 1.613 . S
N1615 C1618 1.350 . S
N1616 S1614 1.610 . S
N1616 C1617 1.351 . S
C1617 C1611 1.428 . S
C1617 N1616 1.351 . S
C1617 C1618 1.434 . S
C1618 C1609 1.429 . S
C1618 N1615 1.350 . S
C1618 C1617 1.434 . S
C1619 C1620 1.369 . S
C1619 C1621 1.419 . S
C1619 H1623 0.930 . S
C1620 C1619 1.369 . S
C1620 C1629 1.429 . S
C1621 C1619 1.419 . S
C1621 C1622 1.363 . S
C1621 H1624 0.929 . S
C1622 C1621 1.363 . S
C1622 C1628 1.428 . S
H1623 C1619 0.930 . S
H1624 C1621 0.929 . S
S1625 N1626 1.613 . S
S1625 N1627 1.610 . S
N1626 S1625 1.613 . S
N1626 C1629 1.350 . S
N1627 S1625 1.610 . S
N1627 C1628 1.351 . S
C1628 C1622 1.428 . S
C1628 N1627 1.351 . S
C1628 C1629 1.434 . S
C1629 C1620 1.429 . S
C1629 N1626 1.350 . S
C1629 C1628 1.434 . S
C1630 C1631 1.369 . S
C1630 C1632 1.419 . S
C1630 H1634 0.930 . S
C1631 C1630 1.369 . S
C1631 C1640 1.429 . S
C1632 C1630 1.419 . S
C1632 C1633 1.363 . S
C1632 H1635 0.929 . S
C1633 C1632 1.363 . S
C1633 C1639 1.428 . S
H1634 C1630 0.930 . S
H1635 C1632 0.929 . S
S1636 N1637 1.613 . S
S1636 N1638 1.610 . S
N1637 S1636 1.613 . S
N1637 C1640 1.350 . S
N1638 S1636 1.610 . S
N1638 C1639 1.351 . S
C1639 C1633 1.428 . S
C1639 N1638 1.351 . S
C1639 C1640 1.434 . S
C1640 C1631 1.429 . S
C1640 N1637 1.350 . S
C1640 C1639 1.434 . S
C1641 C1642 1.369 . S
C1641 C1643 1.419 . S
C1641 H1645 0.930 . S
C1642 C1641 1.369 . S
C1642 C1651 1.429 . S
C1643 C1641 1.419 . S
C1643 C1644 1.363 . S
C1643 H1646 0.929 . S
C1644 C1643 1.363 . S
C1644 C1650 1.428 . S
H1645 C1641 0.930 . S
H1646 C1643 0.929 . S
S1647 N1648 1.613 . S
S1647 N1649 1.610 . S
N1648 S1647 1.613 . S
N1648 C1651 1.350 . S
N1649 S1647 1.610 . S
N1649 C1650 1.351 . S
C1650 C1644 1.428 . S
C1650 N1649 1.351 . S
C1650 C1651 1.434 . S
C1651 C1642 1.429 . S
C1651 N1648 1.350 . S
C1651 C1650 1.434 . S
C1652 C1653 1.369 . S
C1652 C1654 1.419 1_655 S
C1652 H1656 0.930 . S
C1653 C1652 1.369 . S
C1653 C1662 1.429 . S
C1654 C1652 1.419 1_455 S
C1654 C1655 1.363 . S
C1654 H1657 0.929 . S
C1655 C1654 1.363 . S
C1655 C1661 1.428 . S
H1656 C1652 0.930 . S
H1657 C1654 0.929 . S
S1658 N1659 1.602 1_454 S
S1658 N1660 1.622 1_554 S
N1659 S1658 1.602 1_656 S
N1659 C1662 1.350 . S
N1660 S1658 1.622 1_556 S
N1660 C1661 1.351 . S
C1661 C1655 1.428 . S
C1661 N1660 1.351 . S
C1661 C1662 1.434 1_455 S
C1662 C1653 1.429 . S
C1662 N1659 1.350 . S
C1662 C1661 1.434 1_655 S
C1663 C1664 1.369 . S
C1663 C1665 1.419 . S
C1663 H1667 0.930 . S
C1664 C1663 1.369 . S
C1664 C1673 1.429 . S
C1665 C1663 1.419 . S
C1665 C1666 1.363 . S
C1665 H1668 0.929 . S
C1666 C1665 1.363 . S
C1666 C1672 1.428 . S
H1667 C1663 0.930 . S
H1668 C1665 0.929 . S
S1669 N1670 1.613 . S
S1669 N1671 1.610 . S
N1670 S1669 1.613 . S
N1670 C1673 1.350 . S
N1671 S1669 1.610 . S
N1671 C1672 1.351 . S
C1672 C1666 1.428 . S
C1672 N1671 1.351 . S
C1672 C1673 1.434 . S
C1673 C1664 1.429 . S
C1673 N1670 1.350 . S
C1673 C1672 1.434 . S
C1674 C1675 1.369 . S
C1674 C1676 1.419 . S
C1674 H1678 0.930 . S
C1675 C1674 1.369 . S
C1675 C1684 1.429 . S
C1676 C1674 1.419 . S
C1676 C1677 1.363 . S
C1676 H1679 0.929 . S
C1677 C1676 1.363 . S
C1677 C1683 1.428 . S
H1678 C1674 0.930 . S
H1679 C1676 0.929 . S
S1680 N1681 1.613 . S
S1680 N1682 1.610 . S
N1681 S1680 1.613 . S
N1681 C1684 1.350 . S
N1682 S1680 1.610 . S
N1682 C1683 1.351 . S
C1683 C1677 1.428 . S
C1683 N1682 1.351 . S
C1683 C1684 1.434 . S
C1684 C1675 1.429 . S
C1684 N1681 1.350 . S
C1684 C1683 1.434 . S
C1685 C1686 1.369 . S
C1685 C1687 1.419 1_455 S
C1685 H1689 0.924 1_554 S
C1686 C1685 1.369 . S
C1686 C1695 1.429 . S
C1687 C1685 1.419 1_655 S
C1687 C1688 1.363 . S
C1687 H1690 0.929 1_554 S
C1688 C1687 1.363 . S
C1688 C1694 1.428 . S
H1689 C1685 0.924 1_556 S
H1690 C1687 0.929 1_556 S
S1691 N1692 1.613 . S
S1691 N1693 1.610 1_455 S
N1692 S1691 1.613 . S
N1692 C1695 1.350 . S
N1693 S1691 1.610 1_655 S
N1693 C1694 1.351 . S
C1694 C1688 1.428 . S
C1694 N1693 1.351 . S
C1694 C1695 1.434 1_655 S
C1695 C1686 1.429 . S
C1695 N1692 1.350 . S
C1695 C1694 1.434 1_455 S
C1696 C1697 1.369 1_556 S
C1696 C1698 1.419 . S
C1696 H1700 0.930 . S
C1697 C1696 1.369 1_554 S
C1697 C1706 1.429 . S
C1698 C1696 1.419 . S
C1698 C1699 1.363 . S
C1698 H1701 0.929 . S
C1699 C1698 1.363 . S
C1699 C1705 1.428 1_556 S
H1700 C1696 0.930 . S
H1701 C1698 0.929 . S
S1702 N1703 1.613 . S
S1702 N1704 1.610 . S
N1703 S1702 1.613 . S
N1703 C1706 1.350 . S
N1704 S1702 1.610 . S
N1704 C1705 1.351 . S
C1705 C1699 1.428 1_554 S
C1705 N1704 1.351 . S
C1705 C1706 1.434 . S
C1706 C1697 1.429 . S
C1706 N1703 1.350 . S
C1706 C1705 1.434 . S
C1707 C1708 1.369 . S
C1707 C1709 1.419 . S
C1707 H1711 0.930 . S
C1708 C1707 1.369 . S
C1708 C1717 1.429 . S
C1709 C1707 1.419 . S
C1709 C1710 1.363 . S
C1709 H1712 0.929 . S
C1710 C1709 1.363 . S
C1710 C1716 1.428 . S
H1711 C1707 0.930 . S
H1712 C1709 0.929 . S
S1713 N1714 1.613 . S
S1713 N1715 1.610 . S
N1714 S1713 1.613 . S
N1714 C1717 1.350 . S
N1715 S1713 1.610 . S
N1715 C1716 1.351 . S
C1716 C1710 1.428 . S
C1716 N1715 1.351 . S
C1716 C1717 1.434 . S
C1717 C1708 1.429 . S
C1717 N1714 1.350 . S
C1717 C1716 1.434 . S
C1718 C1719 1.369 . S
C1718 C1720 1.419 . S
C1718 H1722 0.930 . S
C1719 C1718 1.369 . S
C1719 C1728 1.429 . S
C1720 C1718 1.419 . S
C1720 C1721 1.363 . S
C1720 H1723 0.929 . S
C1721 C1720 1.363 . S
C1721 C1727 1.428 . S
H1722 C1718 0.930 . S
H1723 C1720 0.929 . S
S1724 N1725 1.613 . S
S1724 N1726 1.610 . S
N1725 S1724 1.613 . S
N1725 C1728 1.350 . S
N1726 S1724 1.610 . S
N1726 C1727 1.351 . S
C1727 C1721 1.428 . S
C1727 N1726 1.351 . S
C1727 C1728 1.434 . S
C1728 C1719 1.429 . S
C1728 N1725 1.350 . S
C1728 C1727 1.434 . S
C1729 C1730 1.369 . S
C1729 C1731 1.419 . S
C1729 H1733 0.930 . S
C1730 C1729 1.369 . S
C1730 C1739 1.429 . S
C1731 C1729 1.419 . S
C1731 C1732 1.363 . S
C1731 H1734 0.929 . S
C1732 C1731 1.363 . S
C1732 C1738 1.428 . S
H1733 C1729 0.930 . S
H1734 C1731 0.929 . S
S1735 N1736 1.613 . S
S1735 N1737 1.610 . S
N1736 S1735 1.613 . S
N1736 C1739 1.350 . S
N1737 S1735 1.610 . S
N1737 C1738 1.351 . S
C1738 C1732 1.428 . S
C1738 N1737 1.351 . S
C1738 C1739 1.434 . S
C1739 C1730 1.429 . S
C1739 N1736 1.350 . S
C1739 C1738 1.434 . S
C1740 C1741 1.369 . S
C1740 C1742 1.419 . S
C1740 H1744 0.930 . S
C1741 C1740 1.369 . S
C1741 C1750 1.429 1_554 S
C1742 C1740 1.419 . S
C1742 C1743 1.363 1_554 S
C1742 H1745 0.929 . S
C1743 C1742 1.363 1_556 S
C1743 C1749 1.428 . S
H1744 C1740 0.930 . S
H1745 C1742 0.929 . S
S1746 N1747 1.613 . S
S1746 N1748 1.610 . S
N1747 S1746 1.613 . S
N1747 C1750 1.350 . S
N1748 S1746 1.610 . S
N1748 C1749 1.351 . S
C1749 C1743 1.428 . S
C1749 N1748 1.351 . S
C1749 C1750 1.434 . S
C1750 C1741 1.429 1_556 S
C1750 N1747 1.350 . S
C1750 C1749 1.434 . S
C1751 C1752 1.369 . S
C1751 C1753 1.419 . S
C1751 H1755 0.930 . S
C1752 C1751 1.369 . S
C1752 C1761 1.429 . S
C1753 C1751 1.419 . S
C1753 C1754 1.363 . S
C1753 H1756 0.929 . S
C1754 C1753 1.363 . S
C1754 C1760 1.428 . S
H1755 C1751 0.930 . S
H1756 C1753 0.929 . S
S1757 N1758 1.613 . S
S1757 N1759 1.610 . S
N1758 S1757 1.613 . S
N1758 C1761 1.350 . S
N1759 S1757 1.610 . S
N1759 C1760 1.351 . S
C1760 C1754 1.428 . S
C1760 N1759 1.351 . S
C1760 C1761 1.434 . S
C1761 C1752 1.429 . S
C1761 N1758 1.350 . S
C1761 C1760 1.434 . S
C1762 C1763 1.369 . S
C1762 C1764 1.419 . S
C1762 H1766 0.930 . S
C1763 C1762 1.369 . S
C1763 C1772 1.429 . S
C1764 C1762 1.419 . S
C1764 C1765 1.363 . S
C1764 H1767 0.929 . S
C1765 C1764 1.363 . S
C1765 C1771 1.428 . S
H1766 C1762 0.930 . S
H1767 C1764 0.929 . S
S1768 N1769 1.613 . S
S1768 N1770 1.610 . S
N1769 S1768 1.613 . S
N1769 C1772 1.350 . S
N1770 S1768 1.610 . S
N1770 C1771 1.351 . S
C1771 C1765 1.428 . S
C1771 N1770 1.351 . S
C1771 C1772 1.434 . S
C1772 C1763 1.429 . S
C1772 N1769 1.350 . S
C1772 C1771 1.434 . S
C1773 C1774 1.369 . S
C1773 C1775 1.419 . S
C1773 H1777 0.930 . S
C1774 C1773 1.369 . S
C1774 C1783 1.429 . S
C1775 C1773 1.419 . S
C1775 C1776 1.363 . S
C1775 H1778 0.929 . S
C1776 C1775 1.363 . S
C1776 C1782 1.428 . S
H1777 C1773 0.930 . S
H1778 C1775 0.929 . S
S1779 N1780 1.613 . S
S1779 N1781 1.610 . S
N1780 S1779 1.613 . S
N1780 C1783 1.350 . S
N1781 S1779 1.610 . S
N1781 C1782 1.351 . S
C1782 C1776 1.428 . S
C1782 N1781 1.351 . S
C1782 C1783 1.434 . S
C1783 C1774 1.429 . S
C1783 N1780 1.350 . S
C1783 C1782 1.434 . S
C1784 C1785 1.361 1_545 S
C1784 C1786 1.426 . S
C1784 H1788 0.931 . S
C1785 C1784 1.361 1_565 S
C1785 C1794 1.429 . S
C1786 C1784 1.426 . S
C1786 C1787 1.363 . S
C1786 H1789 0.929 . S
C1787 C1786 1.363 . S
C1787 C1793 1.428 1_545 S
H1788 C1784 0.931 . S
H1789 C1786 0.929 . S
S1790 N1791 1.613 . S
S1790 N1792 1.610 . S
N1791 S1790 1.613 . S
N1791 C1794 1.350 . S
N1792 S1790 1.610 . S
N1792 C1793 1.351 . S
C1793 C1787 1.428 1_565 S
C1793 N1792 1.351 . S
C1793 C1794 1.434 . S
C1794 C1785 1.429 . S
C1794 N1791 1.350 . S
C1794 C1793 1.434 . S
C1795 C1796 1.369 . S
C1795 C1797 1.419 . S
C1795 H1799 0.930 . S
C1796 C1795 1.369 . S
C1796 C1805 1.429 . S
C1797 C1795 1.419 . S
C1797 C1798 1.363 . S
C1797 H1800 0.929 . S
C1798 C1797 1.363 . S
C1798 C1804 1.428 . S
H1799 C1795 0.930 . S
H1800 C1797 0.929 . S
S1801 N1802 1.613 . S
S1801 N1803 1.610 . S
N1802 S1801 1.613 . S
N1802 C1805 1.350 . S
N1803 S1801 1.610 . S
N1803 C1804 1.351 . S
C1804 C1798 1.428 . S
C1804 N1803 1.351 . S
C1804 C1805 1.434 . S
C1805 C1796 1.429 . S
C1805 N1802 1.350 . S
C1805 C1804 1.434 . S
C1806 C1807 1.369 . S
C1806 C1808 1.419 1_565 S
C1806 H1810 0.930 . S
C1807 C1806 1.369 . S
C1807 C1816 1.429 1_554 S
C1808 C1806 1.419 1_545 S
C1808 C1809 1.363 1_554 S
C1808 H1811 0.929 . S
C1809 C1808 1.363 1_556 S
C1809 C1815 1.429 . S
H1810 C1806 0.930 . S
H1811 C1808 0.929 . S
S1812 N1813 1.613 . S
S1812 N1814 1.610 . S
N1813 S1812 1.613 . S
N1813 C1816 1.350 . S
N1814 S1812 1.610 . S
N1814 C1815 1.351 1_565 S
C1815 C1809 1.429 . S
C1815 N1814 1.351 1_545 S
C1815 C1816 1.433 1_545 S
C1816 C1807 1.429 1_556 S
C1816 N1813 1.350 . S
C1816 C1815 1.433 1_565 S
C1817 C1818 1.369 . S
C1817 C1819 1.419 . S
C1817 H1821 0.930 . S
C1818 C1817 1.369 . S
C1818 C1827 1.429 . S
C1819 C1817 1.419 . S
C1819 C1820 1.363 . S
C1819 H1822 0.929 . S
C1820 C1819 1.363 . S
C1820 C1826 1.428 . S
H1821 C1817 0.930 . S
H1822 C1819 0.929 . S
S1823 N1824 1.613 . S
S1823 N1825 1.610 . S
N1824 S1823 1.613 . S
N1824 C1827 1.350 . S
N1825 S1823 1.610 . S
N1825 C1826 1.351 . S
C1826 C1820 1.428 . S
C1826 N1825 1.351 . S
C1826 C1827 1.434 . S
C1827 C1818 1.429 . S
C1827 N1824 1.350 . S
C1827 C1826 1.434 . S
C1828 C1829 1.369 1_545 S
C1828 C1830 1.419 . S
C1828 H1832 0.930 . S
C1829 C1828 1.369 1_565 S
C1829 C1838 1.429 . S
C1830 C1828 1.419 . S
C1830 C1831 1.363 . S
C1830 H1833 0.929 . S
C1831 C1830 1.363 . S
C1831 C1837 1.428 1_545 S
H1832 C1828 0.930 . S
H1833 C1830 0.929 . S
S1834 N1835 1.613 . S
S1834 N1836 1.610 . S
N1835 S1834 1.613 . S
N1835 C1838 1.350 . S
N1836 S1834 1.610 . S
N1836 C1837 1.351 . S
C1837 C1831 1.428 1_565 S
C1837 N1836 1.351 . S
C1837 C1838 1.434 . S
C1838 C1829 1.429 . S
C1838 N1835 1.350 . S
C1838 C1837 1.434 . S
C1839 C1840 1.369 . S
C1839 C1841 1.419 . S
C1839 H1843 0.930 . S
C1840 C1839 1.369 . S
C1840 C1849 1.429 . S
C1841 C1839 1.419 . S
C1841 C1842 1.363 . S
C1841 H1844 0.929 . S
C1842 C1841 1.363 . S
C1842 C1848 1.428 . S
H1843 C1839 0.930 . S
H1844 C1841 0.929 . S
S1845 N1846 1.613 . S
S1845 N1847 1.610 . S
N1846 S1845 1.613 . S
N1846 C1849 1.350 . S
N1847 S1845 1.610 . S
N1847 C1848 1.351 . S
C1848 C1842 1.428 . S
C1848 N1847 1.351 . S
C1848 C1849 1.434 . S
C1849 C1840 1.429 . S
C1849 N1846 1.350 . S
C1849 C1848 1.434 . S
C1850 C1851 1.369 . S
C1850 C1852 1.419 1_546 S
C1850 H1854 0.930 . S
C1851 C1850 1.369 . S
C1851 C1860 1.429 . S
C1852 C1850 1.419 1_564 S
C1852 C1853 1.363 . S
C1852 H1855 0.929 . S
C1853 C1852 1.363 . S
C1853 C1859 1.428 . S
H1854 C1850 0.930 . S
H1855 C1852 0.929 . S
S1856 N1857 1.613 1_554 S
S1856 N1858 1.610 1_545 S
N1857 S1856 1.613 1_556 S
N1857 C1860 1.350 . S
N1858 S1856 1.610 1_565 S
N1858 C1859 1.351 . S
C1859 C1853 1.428 . S
C1859 N1858 1.351 . S
C1859 C1860 1.434 1_564 S
C1860 C1851 1.429 . S
C1860 N1857 1.350 . S
C1860 C1859 1.434 1_546 S
C1861 C1862 1.369 . S
C1861 C1863 1.419 . S
C1861 H1865 0.930 . S
C1862 C1861 1.369 . S
C1862 C1871 1.429 . S
C1863 C1861 1.419 . S
C1863 C1864 1.363 . S
C1863 H1866 0.929 . S
C1864 C1863 1.363 . S
C1864 C1870 1.428 . S
H1865 C1861 0.930 . S
H1866 C1863 0.929 . S
S1867 N1868 1.613 . S
S1867 N1869 1.610 . S
N1868 S1867 1.613 . S
N1868 C1871 1.350 . S
N1869 S1867 1.610 . S
N1869 C1870 1.351 . S
C1870 C1864 1.428 . S
C1870 N1869 1.351 . S
C1870 C1871 1.434 . S
C1871 C1862 1.429 . S
C1871 N1868 1.350 . S
C1871 C1870 1.434 . S
C1345 C58 1.494 . S
C1347 C70 1.502 . S
C1356 C142 1.463 1_556 S
C1358 C154 1.477 . S
C1367 C226 1.481 . S
C1369 C238 1.466 . S
C1378 C322 1.490 . S
C1380 C310 1.475 . S
C1389 C406 1.466 . S
C1391 C394 1.478 . S
C1400 C490 1.457 . S
C1402 C478 1.467 . S
C1411 C562 1.477 . S
C1413 C574 1.481 . S
C1422 C658 1.490 . S
C1424 C646 1.505 . S
C1433 C730 1.511 . S
C1435 C742 1.500 . S
C1444 C814 1.469 . S
C1446 C826 1.484 . S
C1455 C910 1.483 . S
C1457 C898 1.462 . S
C1466 C982 1.489 . S
C1468 C994 1.474 . S
C1477 C1066 1.464 . S
C1479 C1078 1.479 . S
C1488 C1162 1.457 . S
C1490 C1150 1.473 . S
C1499 C1246 1.469 . S
C1501 C1234 1.484 . S
C1510 C1330 1.484 . S
C1512 C1318 1.499 . S
C1521 C67 1.760 . S
C1523 C979 1.763 . S
C1532 C151 1.770 . S
C1534 C1315 1.770 . S
C1543 C235 1.774 . S
C1545 C812 1.716 . S
C1554 C320 1.728 . S
C1556 C1147 1.786 . S
C1565 C404 1.714 . S
C1567 C1148 1.718 . S
C1576 C980 1.707 . S
C1578 C487 1.767 . S
C1587 C571 1.764 . S
C1589 C1316 1.709 . S
C1598 C656 1.719 . S
C1600 C811 1.776 . S
C1609 C319 1.775 . S
C1611 C728 1.715 . S
C1620 C152 1.712 . S
C1622 C896 1.711 . S
C1631 C1064 1.722 . S
C1633 C488 1.723 . S
C1642 C655 1.769 . S
C1644 C1231 1.771 . S
C1653 C727 1.780 . S
C1655 C403 1.782 . S
C1664 C572 1.722 . S
C1666 C895 1.780 . S
C1675 C236 1.721 . S
C1677 C1232 1.715 . S
C1686 C68 1.721 . S
C1688 C1063 1.780 . S
C1697 C55 1.661 . S
C1699 C392 1.696 . S
C1708 C139 1.677 . S
C1710 C475 1.677 . S
C1719 C223 1.668 . S
C1721 C559 1.672 . S
C1730 C308 1.720 . S
C1732 C644 1.720 . S
C1741 C1076 1.719 . S
C1743 C740 1.720 . S
C1752 C1159 1.679 . S
C1754 C823 1.675 . S
C1763 C908 1.728 . S
C1765 C1243 1.691 . S
C1774 C1327 1.651 . S
C1776 C992 1.693 . S
C1785 C140 1.693 . S
C1787 C643 1.656 . S
C1796 C391 1.693 . S
C1798 C224 1.736 . S
C1807 C476 1.727 . S
C1809 C307 1.693 . S
C1818 C56 1.717 . S
C1820 C560 1.716 . S
C1829 C1328 1.717 . S
C1831 C824 1.718 . S
C1840 C1075 1.697 . S
C1842 C907 1.692 . S
C1851 C1160 1.709 . S
C1853 C991 1.671 . S
C1862 C1244 1.694 . S
C1864 C739 1.658 . S
