# Generated by pormake.
# Topology snx, (6)-cn, num edge types: 1
# Building blocks:
#     Node 0, Type 0, BuildingBlock: OJICUG_clean_sbu_0, # of connection points: 6
#     Node 1, Type 0, BuildingBlock: OJICUG_clean_sbu_0, # of connection points: 6
#     Node 2, Type 0, BuildingBlock: OJICUG_clean_sbu_0, # of connection points: 6
#     Node 3, Type 0, BuildingBlock: OJICUG_clean_sbu_0, # of connection points: 6
#     Node 4, Type 0, BuildingBlock: OJICUG_clean_sbu_0, # of connection points: 6
#     Node 5, Type 0, BuildingBlock: OJICUG_clean_sbu_0, # of connection points: 6
#     Edge 6, Type (0, 0), BuildingBlock: MIFKUJ_clean_linker_0, # of connection points: 2
#     Edge 7, Type (0, 0), BuildingBlock: MIFKUJ_clean_linker_0, # of connection points: 2
#     Edge 8, Type (0, 0), BuildingBlock: MIFKUJ_clean_linker_0, # of connection points: 2
#     Edge 9, Type (0, 0), BuildingBlock: MIFKUJ_clean_linker_0, # of connection points: 2
#     Edge 10, Type (0, 0), BuildingBlock: MIFKUJ_clean_linker_0, # of connection points: 2
#     Edge 11, Type (0, 0), BuildingBlock: MIFKUJ_clean_linker_0, # of connection points: 2
#     Edge 12, Type (0, 0), BuildingBlock: MIFKUJ_clean_linker_0, # of connection points: 2
#     Edge 13, Type (0, 0), BuildingBlock: MIFKUJ_clean_linker_0, # of connection points: 2
#     Edge 14, Type (0, 0), BuildingBlock: MIFKUJ_clean_linker_0, # of connection points: 2
#     Edge 15, Type (0, 0), BuildingBlock: MIFKUJ_clean_linker_0, # of connection points: 2
#     Edge 16, Type (0, 0), BuildingBlock: MIFKUJ_clean_linker_0, # of connection points: 2
#     Edge 17, Type (0, 0), BuildingBlock: MIFKUJ_clean_linker_0, # of connection points: 2
#     Edge 18, Type (0, 0), BuildingBlock: MIFKUJ_clean_linker_0, # of connection points: 2
#     Edge 19, Type (0, 0), BuildingBlock: MIFKUJ_clean_linker_0, # of connection points: 2
#     Edge 20, Type (0, 0), BuildingBlock: MIFKUJ_clean_linker_0, # of connection points: 2
#     Edge 21, Type (0, 0), BuildingBlock: MIFKUJ_clean_linker_0, # of connection points: 2
#     Edge 22, Type (0, 0), BuildingBlock: MIFKUJ_clean_linker_0, # of connection points: 2
#     Edge 23, Type (0, 0), BuildingBlock: MIFKUJ_clean_linker_0, # of connection points: 2
# Relax obj value: 0.060
# Max RMSD: 0.112
# Mean RMSD: 0.112
data_MOF--net-snx--node1-OJICUG_clean_sbu_0--edge1-MIFKUJ_clean_linker_0
_symmetry_space_group_name_H-M    P1
_symmetry_Int_Tables_number       1
_symmetry_cell_setting            triclinic
loop_
_symmetry_equiv_pos_as_xyz
'x, y, z'
_cell_length_a     48.935288
_cell_length_b     48.921419
_cell_length_c     27.097003
_cell_angle_alpha  90.038591
_cell_angle_beta   90.013096
_cell_angle_gamma 119.9969
loop_
_atom_site_label
_atom_site_type_symbol
_atom_site_fract_x
_atom_site_fract_y
_atom_site_fract_z
_atom_type_partial_charge
Sc0 Sc 0.19375 0.40249 0.18768 0.0
Sc1 Sc 0.18771 0.40036 0.31696 0.0
Sc2 Sc 0.15244 0.32986 0.24896 0.0
O3 O 0.17795 0.3776 0.2512 0.0
C4 C 0.12433 0.34759 0.15797 0.0
C5 C 0.17323 0.44471 0.24781 0.0
C6 C 0.11792 0.34598 0.33533 0.0
C7 C 0.25235 0.44086 0.26072 0.0
C8 C 0.204 0.34521 0.16456 0.0
C9 C 0.19656 0.34108 0.34057 0.0
O10 O 0.15022 0.37267 0.14873 0.0
O11 O 0.17875 0.43642 0.2894 0.0
O12 O 0.12058 0.32683 0.30667 0.0
O13 O 0.23928 0.43501 0.21847 0.0
O14 O 0.18079 0.32619 0.19109 0.0
O15 O 0.19783 0.36688 0.35239 0.0
O16 O 0.21361 0.37457 0.16254 0.0
O17 O 0.23713 0.42851 0.30018 0.0
O18 O 0.18299 0.32571 0.30167 0.0
O19 O 0.17552 0.43298 0.20718 0.0
O20 O 0.12016 0.33058 0.19583 0.0
O21 O 0.13932 0.37464 0.34009 0.0
Sc22 Sc 0.82252 0.1563 0.74689 0.0
Sc23 Sc 0.78189 0.18994 0.68895 0.0
Sc24 Sc 0.78756 0.19088 0.81874 0.0
O25 O 0.79725 0.17896 0.75153 0.0
C26 C 0.77677 0.12183 0.83823 0.0
C27 C 0.77195 0.12239 0.66119 0.0
C28 C 0.72318 0.16979 0.76043 0.0
C29 C 0.8512 0.20527 0.6582 0.0
C30 C 0.85776 0.20437 0.83522 0.0
C31 C 0.80394 0.25179 0.75486 0.0
O32 O 0.79413 0.12257 0.80269 0.0
O33 O 0.76502 0.14404 0.6566 0.0
O34 O 0.73925 0.1757 0.79987 0.0
O35 O 0.85296 0.18738 0.69049 0.0
O36 O 0.83452 0.20793 0.84628 0.0
O37 O 0.79693 0.23707 0.71397 0.0
O38 O 0.85694 0.1867 0.80025 0.0
O39 O 0.82719 0.20861 0.65319 0.0
O40 O 0.80219 0.23845 0.79595 0.0
O41 O 0.7922 0.12365 0.69179 0.0
O42 O 0.77221 0.14462 0.84852 0.0
O43 O 0.73512 0.17295 0.71772 0.0
Sc44 Sc 0.6588 0.81972 0.24797 0.0
Sc45 Sc 0.58615 0.78341 0.18444 0.0
Sc46 Sc 0.58774 0.78819 0.3144 0.0
O47 O 0.61089 0.79709 0.24888 0.0
C48 C 0.6435 0.77456 0.3406 0.0
C49 C 0.64089 0.76806 0.16301 0.0
C50 C 0.54483 0.72455 0.25536 0.0
C51 C 0.64409 0.8512 0.1565 0.0
C52 C 0.6453 0.85733 0.33223 0.0
C53 C 0.54647 0.80695 0.24584 0.0
O54 O 0.66074 0.78969 0.30411 0.0
O55 O 0.61325 0.76347 0.15603 0.0
O56 O 0.55601 0.73977 0.29529 0.0
O57 O 0.66167 0.85201 0.19167 0.0
O58 O 0.61702 0.83571 0.33986 0.0
O59 O 0.5562 0.80196 0.20524 0.0
O60 O 0.66337 0.85436 0.30166 0.0
O61 O 0.61671 0.8278 0.14853 0.0
O62 O 0.55529 0.80227 0.28753 0.0
O63 O 0.65995 0.78783 0.1942 0.0
O64 O 0.61729 0.77299 0.34976 0.0
O65 O 0.55286 0.73735 0.21299 0.0
Sc66 Sc 0.83036 0.66087 0.74641 0.0
Sc67 Sc 0.79934 0.58951 0.67977 0.0
Sc68 Sc 0.7956 0.58861 0.80996 0.0
O69 O 0.80848 0.61299 0.74535 0.0
C70 C 0.86355 0.64639 0.83608 0.0
C71 C 0.86713 0.64894 0.65943 0.0
C72 C 0.81939 0.54916 0.7468 0.0
C73 C 0.78262 0.64323 0.65607 0.0
C74 C 0.78065 0.64361 0.83339 0.0
C75 C 0.73666 0.54647 0.74132 0.0
O76 O 0.86282 0.66446 0.803 0.0
O77 O 0.84522 0.62105 0.65017 0.0
O78 O 0.81183 0.55702 0.78704 0.0
O79 O 0.79956 0.66162 0.69042 0.0
O80 O 0.77757 0.61667 0.84138 0.0
O81 O 0.75219 0.55491 0.70129 0.0
O82 O 0.79854 0.662 0.79995 0.0
O83 O 0.78045 0.6167 0.64722 0.0
O84 O 0.74866 0.55714 0.78345 0.0
O85 O 0.86521 0.66597 0.69312 0.0
O86 O 0.84119 0.61826 0.84284 0.0
O87 O 0.81714 0.55975 0.7051 0.0
Sc88 Sc 0.16531 0.83505 0.24824 0.0
Sc89 Sc 0.20469 0.8019 0.31125 0.0
Sc90 Sc 0.20106 0.79954 0.18132 0.0
O91 O 0.19036 0.81217 0.24691 0.0
C92 C 0.13128 0.78547 0.16082 0.0
C93 C 0.13566 0.78872 0.33916 0.0
C94 C 0.18284 0.73921 0.24886 0.0
C95 C 0.21638 0.87051 0.33359 0.0
C96 C 0.21165 0.86804 0.15758 0.0
C97 C 0.26423 0.82087 0.24162 0.0
O98 O 0.1323 0.80491 0.19292 0.0
O99 O 0.16039 0.7872 0.34773 0.0
O100 O 0.18768 0.75303 0.20739 0.0
O101 O 0.19497 0.86795 0.30415 0.0
O102 O 0.21518 0.84455 0.14806 0.0
O103 O 0.25081 0.81554 0.28342 0.0
O104 O 0.19516 0.86858 0.19346 0.0
O105 O 0.22378 0.84921 0.33862 0.0
O106 O 0.24955 0.81703 0.20125 0.0
O107 O 0.13311 0.80377 0.30293 0.0
O108 O 0.15404 0.7805 0.15336 0.0
O109 O 0.18722 0.75349 0.28989 0.0
Sc110 Sc 0.32773 0.16856 0.74744 0.0
Sc111 Sc 0.3985 0.20564 0.81376 0.0
Sc112 Sc 0.39975 0.20653 0.68444 0.0
O113 O 0.37535 0.19358 0.74853 0.0
C114 C 0.34602 0.13804 0.65773 0.0
C115 C 0.34211 0.13547 0.8345 0.0
C116 C 0.44202 0.18809 0.75212 0.0
C117 C 0.3416 0.21603 0.83786 0.0
C118 C 0.34105 0.21641 0.66116 0.0
C119 C 0.43937 0.26752 0.7483 0.0
O120 O 0.3261 0.13998 0.68551 0.0
O121 O 0.36663 0.16087 0.84762 0.0
O122 O 0.43582 0.19721 0.71177 0.0
O123 O 0.32301 0.19381 0.80927 0.0
O124 O 0.36667 0.2174 0.64901 0.0
O125 O 0.43325 0.25187 0.78822 0.0
O126 O 0.32533 0.20212 0.69934 0.0
O127 O 0.37099 0.22572 0.84031 0.0
O128 O 0.42657 0.25508 0.70728 0.0
O129 O 0.32669 0.13318 0.79549 0.0
O130 O 0.37503 0.15907 0.65647 0.0
O131 O 0.42806 0.18668 0.79242 0.0
H132 H 0.17301 0.48048 0.32521 0.0
H133 H 0.16495 0.52565 0.32235 0.0
H134 H 0.14703 0.51199 0.16581 0.0
H135 H 0.15579 0.46701 0.16801 0.0
H136 H 0.18885 0.57101 0.18502 0.0
H137 H 0.08765 0.49761 0.24891 0.0
H138 H 0.04947 0.45613 0.30434 0.0
H139 H 0.08868 0.51868 0.42827 0.0
H140 H 0.12742 0.5604 0.37373 0.0
H141 H 0.1601 0.698 0.17138 0.0
H142 H 0.14886 0.64349 0.16939 0.0
H143 H 0.17246 0.64911 0.32386 0.0
H144 H 0.1832 0.70356 0.32655 0.0
H145 H 0.12212 0.59158 0.29974 0.0
H146 H 0.22708 0.66213 0.23597 0.0
H147 H 0.26538 0.70323 0.17999 0.0
H148 H 0.21797 0.64475 0.0548 0.0
H149 H 0.17914 0.60346 0.10992 0.0
C150 C 0.16696 0.48675 0.29019 0.0
C151 C 0.16527 0.47019 0.24674 0.0
C152 C 0.16214 0.51251 0.28872 0.0
C153 C 0.15507 0.52202 0.24396 0.0
C154 C 0.15242 0.50501 0.20076 0.0
C155 C 0.15744 0.47931 0.20211 0.0
C156 C 0.15327 0.55133 0.24173 0.0
C157 C 0.17372 0.57521 0.20936 0.0
C158 C 0.13404 0.55706 0.27426 0.0
C159 C 0.11061 0.53209 0.30721 0.0
C160 C 0.08829 0.50246 0.28804 0.0
C161 C 0.06652 0.47891 0.3193 0.0
C162 C 0.06668 0.48475 0.36981 0.0
C163 C 0.08858 0.51418 0.38914 0.0
C164 C 0.11043 0.53781 0.35805 0.0
C165 C 0.16263 0.6876 0.2051 0.0
C166 C 0.173 0.70529 0.24899 0.0
C167 C 0.15617 0.65643 0.20386 0.0
C168 C 0.16038 0.64251 0.24625 0.0
C169 C 0.16915 0.6595 0.29071 0.0
C170 C 0.17538 0.69064 0.29213 0.0
C171 C 0.15788 0.61114 0.24343 0.0
C172 C 0.1368 0.58704 0.27493 0.0
C173 C 0.17648 0.6051 0.21005 0.0
C174 C 0.20002 0.62985 0.17702 0.0
C175 C 0.2247 0.65813 0.19648 0.0
C176 C 0.24652 0.68144 0.16494 0.0
C177 C 0.24405 0.67664 0.11392 0.0
C178 C 0.21982 0.64846 0.09432 0.0
C179 C 0.19792 0.62509 0.12568 0.0
H180 H 0.26096 0.69472 0.08957 0.0
H181 H 0.04982 0.46648 0.39395 0.0
H182 H 0.67653 0.14121 0.69107 0.0
H183 H 0.62427 0.13649 0.69245 0.0
H184 H 0.64278 0.17717 0.83825 0.0
H185 H 0.69472 0.18146 0.83776 0.0
H186 H 0.56968 0.10954 0.76746 0.0
H187 H 0.62764 0.2395 0.82068 0.0
H188 H 0.67977 0.28802 0.81701 0.0
H189 H 0.70212 0.25446 0.68519 0.0
H190 H 0.64994 0.20606 0.68763 0.0
H191 H 0.45658 0.15856 0.82509 0.0
H192 H 0.50098 0.14876 0.82705 0.0
H193 H 0.52983 0.19025 0.68255 0.0
H194 H 0.48562 0.20006 0.68003 0.0
H195 H 0.57852 0.21479 0.75157 0.0
H196 H 0.49653 0.11322 0.69322 0.0
H197 H 0.44448 0.06479 0.69756 0.0
H198 H 0.46941 0.04116 0.83663 0.0
H199 H 0.5215 0.0897 0.83341 0.0
C200 C 0.66919 0.14848 0.72388 0.0
C201 C 0.68988 0.16198 0.76413 0.0
C202 C 0.63929 0.14558 0.72469 0.0
C203 C 0.6299 0.15664 0.76534 0.0
C204 C 0.64971 0.16847 0.80663 0.0
C205 C 0.67937 0.17091 0.80621 0.0
C206 C 0.6014 0.15964 0.76211 0.0
C207 C 0.57149 0.13248 0.7641 0.0
C208 C 0.60397 0.18962 0.75739 0.0
C209 C 0.63506 0.21902 0.75472 0.0
C210 C 0.64365 0.24257 0.79082 0.0
C211 C 0.67319 0.27004 0.78895 0.0
C212 C 0.6943 0.27426 0.751 0.0
C213 C 0.68581 0.25111 0.71468 0.0
C214 C 0.65627 0.22364 0.71633 0.0
C215 C 0.47223 0.16541 0.79357 0.0
C216 C 0.46757 0.1802 0.75245 0.0
C217 C 0.49751 0.15968 0.79471 0.0
C218 C 0.5186 0.16877 0.75492 0.0
C219 C 0.51379 0.1831 0.71363 0.0
C220 C 0.48842 0.18857 0.71223 0.0
C221 C 0.54656 0.16467 0.75701 0.0
C222 C 0.57653 0.19176 0.75501 0.0
C223 C 0.54393 0.13462 0.76162 0.0
C224 C 0.51281 0.10522 0.76326 0.0
C225 C 0.49083 0.09781 0.72488 0.0
C226 C 0.46134 0.07031 0.72711 0.0
C227 C 0.45362 0.04994 0.76739 0.0
C228 C 0.47542 0.05697 0.80546 0.0
C229 C 0.50495 0.08445 0.80342 0.0
H230 H 0.43076 0.02869 0.76907 0.0
H231 H 0.71718 0.29551 0.74968 0.0
H232 H 0.29305 0.4724 0.18507 0.0
H233 H 0.3478 0.5144 0.19107 0.0
H234 H 0.34423 0.50423 0.34945 0.0
H235 H 0.28908 0.46232 0.34399 0.0
H236 H 0.36627 0.56406 0.32326 0.0
H237 H 0.38951 0.48375 0.28069 0.0
H238 H 0.38525 0.4386 0.23377 0.0
H239 H 0.41752 0.49552 0.10293 0.0
H240 H 0.42153 0.54093 0.14887 0.0
H241 H 0.52405 0.68756 0.33809 0.0
H242 H 0.47979 0.63374 0.34456 0.0
H243 H 0.46536 0.63126 0.18722 0.0
H244 H 0.50988 0.68496 0.18012 0.0
H245 H 0.45572 0.57434 0.22279 0.0
H246 H 0.42369 0.65092 0.26289 0.0
H247 H 0.42691 0.69592 0.30904 0.0
H248 H 0.41033 0.64478 0.44483 0.0
H249 H 0.40743 0.59961 0.39948 0.0
C250 C 0.30391 0.47874 0.22122 0.0
C251 C 0.2865 0.46413 0.2641 0.0
C252 C 0.33536 0.50265 0.22453 0.0
C253 C 0.35016 0.51227 0.27068 0.0
C254 C 0.33323 0.49708 0.31346 0.0
C255 C 0.30171 0.47314 0.31023 0.0
C256 C 0.38221 0.54019 0.27424 0.0
C257 C 0.38604 0.56599 0.30226 0.0
C258 C 0.4078 0.54292 0.24601 0.0
C259 C 0.40563 0.51573 0.21821 0.0
C260 C 0.39549 0.4866 0.24183 0.0
C261 C 0.39315 0.46096 0.21541 0.0
C262 C 0.40106 0.46417 0.16538 0.0
C263 C 0.4114 0.49307 0.14169 0.0
C264 C 0.41376 0.51879 0.16793 0.0
C265 C 0.51174 0.67551 0.3047 0.0
C266 C 0.52024 0.69081 0.25864 0.0
C267 C 0.48647 0.64471 0.30852 0.0
C268 C 0.46906 0.62874 0.26648 0.0
C269 C 0.47851 0.64323 0.22013 0.0
C270 C 0.50387 0.67401 0.2162 0.0
C271 C 0.43943 0.59815 0.27115 0.0
C272 C 0.43607 0.57201 0.24457 0.0
C273 C 0.41418 0.59502 0.30068 0.0
C274 C 0.41571 0.62207 0.32789 0.0
C275 C 0.42097 0.64938 0.30263 0.0
C276 C 0.42269 0.67489 0.32863 0.0
C277 C 0.41892 0.67325 0.37985 0.0
C278 C 0.41331 0.64604 0.40516 0.0
C279 C 0.41161 0.62048 0.37934 0.0
H280 H 0.42027 0.69302 0.39992 0.0
H281 H 0.39922 0.44429 0.14499 0.0
H282 H 0.83029 0.52045 0.66858 0.0
H283 H 0.83643 0.47397 0.671 0.0
H284 H 0.8348 0.47503 0.83006 0.0
H285 H 0.82881 0.52169 0.82828 0.0
H286 H 0.87696 0.45678 0.79111 0.0
H287 H 0.76892 0.43117 0.77521 0.0
H288 H 0.72497 0.43503 0.73801 0.0
H289 H 0.73998 0.40151 0.59986 0.0
H290 H 0.78443 0.39802 0.63602 0.0
H291 H 0.81767 0.29167 0.83406 0.0
H292 H 0.82882 0.34627 0.83282 0.0
H293 H 0.82297 0.34322 0.67389 0.0
H294 H 0.81153 0.28873 0.6746 0.0
H295 H 0.78627 0.36356 0.71373 0.0
H296 H 0.89342 0.38663 0.73252 0.0
H297 H 0.93801 0.38443 0.77077 0.0
H298 H 0.92412 0.42202 0.90558 0.0
H299 H 0.87917 0.42408 0.86836 0.0
C300 C 0.83185 0.51125 0.70417 0.0
C301 C 0.82846 0.52448 0.74824 0.0
C302 C 0.83537 0.48468 0.70543 0.0
C303 C 0.83554 0.47088 0.75069 0.0
C304 C 0.8346 0.48534 0.79479 0.0
C305 C 0.83099 0.5119 0.79362 0.0
C306 C 0.83316 0.43957 0.75178 0.0
C307 C 0.85707 0.43627 0.7746 0.0
C308 C 0.80725 0.41303 0.72985 0.0
C309 C 0.78023 0.41467 0.70817 0.0
C310 C 0.76302 0.42487 0.73678 0.0
C311 C 0.738 0.42696 0.71591 0.0
C312 C 0.72974 0.4186 0.66657 0.0
C313 C 0.74644 0.40803 0.63805 0.0
C314 C 0.77155 0.40599 0.65872 0.0
C315 C 0.81909 0.3027 0.79878 0.0
C316 C 0.81341 0.28566 0.75445 0.0
C317 C 0.82564 0.33398 0.79816 0.0
C318 C 0.82682 0.34878 0.75324 0.0
C319 C 0.82211 0.33218 0.70895 0.0
C320 C 0.81556 0.30099 0.70949 0.0
C321 C 0.83039 0.38065 0.75236 0.0
C322 C 0.8064 0.38402 0.72992 0.0
C323 C 0.85612 0.40709 0.77498 0.0
C324 C 0.88274 0.40526 0.79775 0.0
C325 C 0.89965 0.39412 0.77048 0.0
C326 C 0.92506 0.39299 0.79194 0.0
C327 C 0.93391 0.40313 0.84054 0.0
C328 C 0.91727 0.41424 0.8679 0.0
C329 C 0.89184 0.41541 0.84664 0.0
H330 H 0.95373 0.40247 0.85697 0.0
H331 H 0.71037 0.42024 0.65047 0.0
H332 H 0.51973 0.8178 0.16471 0.0
H333 H 0.47644 0.82909 0.16351 0.0
H334 H 0.47591 0.83041 0.32267 0.0
H335 H 0.51892 0.81886 0.32444 0.0
H336 H 0.41836 0.79119 0.28493 0.0
H337 H 0.50094 0.89772 0.25813 0.0
H338 H 0.54774 0.94052 0.21705 0.0
H339 H 0.49606 0.92113 0.08122 0.0
H340 H 0.44904 0.87788 0.1213 0.0
H341 H 0.30446 0.83474 0.31961 0.0
H342 H 0.35716 0.84121 0.31837 0.0
H343 H 0.35307 0.8331 0.15973 0.0
H344 H 0.30022 0.82675 0.16033 0.0
H345 H 0.41369 0.87757 0.19644 0.0
H346 H 0.33223 0.76981 0.22201 0.0
H347 H 0.28523 0.72697 0.26274 0.0
H348 H 0.33543 0.74814 0.40016 0.0
H349 H 0.38254 0.7916 0.36058 0.0
C350 C 0.51071 0.82088 0.19951 0.0
C351 C 0.52261 0.81709 0.2447 0.0
C352 C 0.48608 0.82752 0.1987 0.0
C353 C 0.47308 0.83065 0.24301 0.0
C354 C 0.48564 0.82803 0.28809 0.0
C355 C 0.51024 0.82142 0.28897 0.0
C356 C 0.44459 0.83382 0.24253 0.0
C357 C 0.41754 0.8104 0.26631 0.0
C358 C 0.44332 0.85833 0.21683 0.0
C359 C 0.47155 0.88434 0.19262 0.0
C360 C 0.49962 0.90239 0.21938 0.0
C361 C 0.52618 0.92677 0.1963 0.0
C362 C 0.52491 0.93348 0.14652 0.0
C363 C 0.49703 0.91587 0.11976 0.0
C364 C 0.47041 0.89144 0.14265 0.0
C365 C 0.31486 0.8348 0.2843 0.0
C366 C 0.29785 0.82962 0.24011 0.0
C367 C 0.34502 0.83858 0.28372 0.0
C368 C 0.35865 0.8371 0.23904 0.0
C369 C 0.3428 0.83421 0.19456 0.0
C370 C 0.31256 0.83045 0.19506 0.0
C371 C 0.38781 0.83521 0.23944 0.0
C372 C 0.41476 0.85858 0.21534 0.0
C373 C 0.38907 0.81057 0.26469 0.0
C374 C 0.36082 0.78421 0.28844 0.0
C375 C 0.33318 0.76553 0.26101 0.0
C376 C 0.30653 0.7411 0.28386 0.0
C377 C 0.30734 0.73487 0.33397 0.0
C378 C 0.33483 0.75303 0.36135 0.0
C379 C 0.3615 0.77757 0.33874 0.0
H380 H 0.28669 0.71594 0.35157 0.0
H381 H 0.54549 0.95237 0.12872 0.0
H382 H 0.68625 0.55105 0.77181 0.0
H383 H 0.63049 0.50978 0.76803 0.0
H384 H 0.65751 0.44556 0.70487 0.0
H385 H 0.71271 0.48757 0.70509 0.0
H386 H 0.60801 0.43524 0.66283 0.0
H387 H 0.63971 0.44965 0.83501 0.0
H388 H 0.65982 0.47992 0.91232 0.0
H389 H 0.58324 0.49909 0.91304 0.0
H390 H 0.56304 0.46946 0.83517 0.0
H391 H 0.48616 0.29662 0.81614 0.0
H392 H 0.53135 0.34971 0.81248 0.0
H393 H 0.4939 0.36811 0.68031 0.0
H394 H 0.44911 0.31408 0.68245 0.0
H395 H 0.54389 0.40684 0.81573 0.0
H396 H 0.55374 0.41533 0.60436 0.0
H397 H 0.53744 0.38056 0.53119 0.0
H398 H 0.53749 0.30698 0.61746 0.0
H399 H 0.55411 0.34144 0.69091 0.0
C400 C 0.67998 0.5281 0.75681 0.0
C401 C 0.70336 0.52213 0.73888 0.0
C402 C 0.64826 0.50453 0.75488 0.0
C403 C 0.63973 0.47429 0.737 0.0
C404 C 0.66335 0.46866 0.71861 0.0
C405 C 0.69486 0.49252 0.71897 0.0
C406 C 0.60653 0.44801 0.73858 0.0
C407 C 0.59397 0.4292 0.69626 0.0
C408 C 0.58803 0.44 0.78208 0.0
C409 C 0.60012 0.45771 0.82896 0.0
C410 C 0.62731 0.46054 0.85147 0.0
C411 C 0.63874 0.4776 0.89536 0.0
C412 C 0.62293 0.49159 0.91741 0.0
C413 C 0.59558 0.48842 0.89575 0.0
C414 C 0.58414 0.47152 0.85173 0.0
C415 C 0.48729 0.31203 0.78656 0.0
C416 C 0.46432 0.30104 0.74916 0.0
C417 C 0.51313 0.3425 0.78463 0.0
C418 C 0.51634 0.36279 0.74569 0.0
C419 C 0.4923 0.35262 0.71009 0.0
C420 C 0.4667 0.3218 0.7114 0.0
C421 C 0.54613 0.39336 0.74077 0.0
C422 C 0.55782 0.4132 0.78217 0.0
C423 C 0.56446 0.4016 0.69714 0.0
C424 C 0.55474 0.3808 0.65316 0.0
C425 C 0.55031 0.39174 0.60762 0.0
C426 C 0.54102 0.3721 0.56613 0.0
C427 C 0.5363 0.34154 0.56973 0.0
C428 C 0.54102 0.3306 0.61477 0.0
C429 C 0.55035 0.35017 0.65633 0.0
H430 H 0.52908 0.32636 0.53758 0.0
H431 H 0.63181 0.5048 0.95138 0.0
H432 H 0.37266 0.27363 0.88342 0.0
H433 H 0.35038 0.29696 0.93861 0.0
H434 H 0.25833 0.21416 0.92274 0.0
H435 H 0.2802 0.1913 0.86605 0.0
H436 H 0.25205 0.26325 0.92062 0.0
H437 H 0.30658 0.22831 0.02719 0.0
H438 H 0.35167 0.22391 0.05786 0.0
H439 H 0.40417 0.32395 0.083 0.0
H440 H 0.35952 0.32901 0.05183 0.0
H441 H 0.18072 0.28425 0.13456 0.0
H442 H 0.20579 0.26375 0.07935 0.0
H443 H 0.28803 0.35645 0.0693 0.0
H444 H 0.26302 0.37737 0.12411 0.0
H445 H 0.29991 0.30396 0.08511 0.0
H446 H 0.24257 0.33682 0.97833 0.0
H447 H 0.19506 0.33839 0.95245 0.0
H448 H 0.14504 0.23782 0.93288 0.0
H449 H 0.1922 0.2356 0.95929 0.0
C450 C 0.34766 0.26043 0.89166 0.0
C451 C 0.32821 0.23057 0.87055 0.0
C452 C 0.33497 0.27372 0.92339 0.0
C453 C 0.30276 0.25708 0.93557 0.0
C454 C 0.28324 0.22746 0.91395 0.0
C455 C 0.2958 0.21439 0.88159 0.0
C456 C 0.2893 0.27043 0.97086 0.0
C457 C 0.26237 0.27179 0.95676 0.0
C458 C 0.30295 0.28204 0.01786 0.0
C459 C 0.32983 0.27907 0.03669 0.0
C460 C 0.32783 0.2494 0.0389 0.0
C461 C 0.35329 0.24678 0.05644 0.0
C462 C 0.3808 0.27364 0.07224 0.0
C463 C 0.38287 0.30317 0.07066 0.0
C464 C 0.35748 0.30592 0.05311 0.0
C465 C 0.20424 0.30026 0.12095 0.0
C466 C 0.21985 0.33247 0.13349 0.0
C467 C 0.21845 0.28851 0.08934 0.0
C468 C 0.24861 0.30869 0.0702 0.0
C469 C 0.26471 0.34061 0.08379 0.0
C470 C 0.25033 0.3525 0.11485 0.0
C471 C 0.26286 0.29655 0.0347 0.0
C472 C 0.28982 0.29544 0.04883 0.0
C473 C 0.24899 0.28471 0.98811 0.0
C474 C 0.22083 0.28602 0.97117 0.0
C475 C 0.22138 0.31501 0.9688 0.0
C476 C 0.19454 0.31603 0.95399 0.0
C477 C 0.16704 0.28822 0.94113 0.0
C478 C 0.16637 0.25934 0.94288 0.0
C479 C 0.19316 0.25819 0.9577 0.0
H480 H 0.14631 0.28909 0.92969 0.0
H481 H 0.40049 0.27157 0.0858 0.0
H482 H 0.8939 0.18828 0.63 0.0
H483 H 0.93891 0.21657 0.57521 0.0
H484 H 0.9156 0.29023 0.55702 0.0
H485 H 0.86939 0.26106 0.6103 0.0
H486 H 0.93299 0.27986 0.47295 0.0
H487 H 0.97795 0.29962 0.6325 0.0
H488 H 0.98756 0.28762 0.71694 0.0
H489 H 0.02522 0.23161 0.65874 0.0
H490 H 0.01535 0.24284 0.57392 0.0
H491 H 0.0927 0.37959 0.37633 0.0
H492 H 0.04668 0.35964 0.43103 0.0
H493 H 0.0335 0.26588 0.42005 0.0
H494 H 0.07886 0.28533 0.36459 0.0
H495 H 0.03708 0.29425 0.52224 0.0
H496 H 0.98569 0.27377 0.36049 0.0
H497 H 0.97806 0.29096 0.27862 0.0
H498 H 0.95609 0.35683 0.34709 0.0
H499 H 0.96404 0.34032 0.42939 0.0
C500 C 0.89838 0.21054 0.61443 0.0
C501 C 0.8783 0.2226 0.62472 0.0
C502 C 0.92423 0.2268 0.58329 0.0
C503 C 0.93116 0.25597 0.56293 0.0
C504 C 0.91084 0.26787 0.57251 0.0
C505 C 0.8845 0.25122 0.60297 0.0
C506 C 0.95943 0.27357 0.53122 0.0
C507 C 0.95584 0.28347 0.4842 0.0
C508 C 0.98941 0.27854 0.5458 0.0
C509 C -0.0043 0.27191 0.59679 0.0
C510 C 0.9881 0.28458 0.63769 0.0
C511 C 0.99361 0.27793 0.68563 0.0
C512 C 0.00694 0.25883 0.6932 0.0
C513 C 0.01487 0.2464 0.65282 0.0
C514 C 0.00936 0.25293 0.60479 0.0
C515 C 0.07985 0.35469 0.38534 0.0
C516 C 0.08934 0.33399 0.3662 0.0
C517 C 0.05363 0.34339 0.41645 0.0
C518 C 0.03693 0.31139 0.42943 0.0
C519 C 0.04623 0.29068 0.4103 0.0
C520 C 0.07201 0.3018 0.37849 0.0
C521 C 0.01013 0.2994 0.46401 0.0
C522 C 0.01419 0.29081 0.51157 0.0
C523 C 0.98093 0.29646 0.45045 0.0
C524 C 0.97582 0.30608 0.40102 0.0
C525 C 0.97952 0.29213 0.35806 0.0
C526 C 0.97507 0.3017 0.31159 0.0
C527 C 0.96669 0.32504 0.30765 0.0
C528 C 0.96263 0.33879 0.35019 0.0
C529 C 0.96708 0.32932 0.39675 0.0
H530 H 0.96327 0.33243 0.27164 0.0
H531 H 0.01118 0.25369 0.73035 0.0
H532 H 0.7619 0.06172 0.81375 0.0
H533 H 0.73755 0.01483 0.8668 0.0
H534 H 0.73427 0.07093 0.98686 0.0
H535 H 0.75778 0.11776 0.93392 0.0
H536 H 0.76582 0.02132 0.98818 0.0
H537 H 0.67348 0.03787 0.97089 0.0
H538 H 0.63713 0.04603 0.91798 0.0
H539 H 0.61446 0.96191 0.83665 0.0
H540 H 0.65111 0.95359 0.8887 0.0
H541 H 0.6866 0.91248 0.17806 0.0
H542 H 0.70761 0.95777 0.12256 0.0
H543 H 0.65126 0.89699 0.00346 0.0
H544 H 0.62893 0.85184 0.05968 0.0
H545 H 0.65016 0.94826 0.99685 0.0
H546 H 0.73328 0.92521 0.01583 0.0
H547 H 0.77091 0.9144 0.06008 0.0
H548 H 0.81357 0.00623 0.12701 0.0
H549 H 0.7759 0.01744 0.08367 0.0
C550 C 0.75588 0.06404 0.85139 0.0
C551 C 0.76166 0.09339 0.86968 0.0
C552 C 0.74196 0.03729 0.88149 0.0
C553 C 0.73406 0.0396 0.9304 0.0
C554 C 0.74004 0.06881 0.94897 0.0
C555 C 0.75338 0.09544 0.91868 0.0
C556 C 0.72024 0.01161 0.96259 0.0
C557 C 0.74054 0.00546 0.99075 0.0
C558 C 0.68744 0.99049 0.96402 0.0
C559 C 0.66529 0.99536 0.93317 0.0
C560 C 0.661 0.02133 0.94137 0.0
C561 C 0.64029 0.02593 0.91164 0.0
C562 C 0.62358 0.00456 0.87385 0.0
C563 C 0.62747 0.97848 0.86585 0.0
C564 C 0.64819 0.97381 0.89545 0.0
C565 C 0.67867 0.9088 0.14004 0.0
C566 C 0.65629 0.87862 0.12307 0.0
C567 C 0.69083 0.93467 0.10825 0.0
C568 C 0.6816 0.93073 0.05844 0.0
C569 C 0.65883 0.90065 0.04165 0.0
C570 C 0.64612 0.87486 0.07376 0.0
C571 C 0.69567 0.95801 0.02404 0.0
C572 C 0.67548 0.96399 0.99486 0.0
C573 C 0.72875 0.97862 0.02088 0.0
C574 C 0.75158 0.97205 0.04682 0.0
C575 C 0.75055 0.94302 0.04024 0.0
C576 C 0.77191 0.93684 0.06512 0.0
C577 C 0.79457 0.95959 0.09642 0.0
C578 C 0.79598 0.98862 0.10279 0.0
C579 C 0.77465 0.99491 0.07803 0.0
H580 H 0.81108 0.95476 0.11566 0.0
H581 H 0.60755 0.00816 0.85088 0.0
H582 H 0.62556 0.75647 0.43603 0.0
H583 H 0.64493 0.73057 0.49192 0.0
H584 H 0.70493 0.7292 0.37662 0.0
H585 H 0.68611 0.7555 0.32062 0.0
H586 H 0.66723 0.66974 0.43318 0.0
H587 H 0.73756 0.78357 0.45585 0.0
H588 H 0.74905 0.83729 0.47711 0.0
H589 H 0.70658 0.80489 0.61954 0.0
H590 H 0.69433 0.75083 0.59874 0.0
H591 H 0.77461 0.63737 0.55663 0.0
H592 H 0.74651 0.65629 0.50507 0.0
H593 H 0.71964 0.68811 0.6355 0.0
H594 H 0.74985 0.67136 0.68649 0.0
H595 H 0.73563 0.73009 0.57411 0.0
H596 H 0.66628 0.61989 0.56189 0.0
H597 H 0.64937 0.56382 0.54805 0.0
H598 H 0.68004 0.58386 0.3973 0.0
H599 H 0.69756 0.64016 0.4104 0.0
C600 C 0.64277 0.75053 0.42249 0.0
C601 C 0.65445 0.75816 0.37401 0.0
C602 C 0.65379 0.73578 0.45445 0.0
C603 C 0.67632 0.7281 0.43823 0.0
C604 C 0.68747 0.73496 0.38961 0.0
C605 C 0.67685 0.75014 0.35785 0.0
C606 C 0.68917 0.71388 0.47242 0.0
C607 C 0.68241 0.68286 0.46387 0.0
C608 C 0.70769 0.73066 0.51356 0.0
C609 C 0.71474 0.76312 0.52553 0.0
C610 C 0.73034 0.78783 0.49146 0.0
C611 C 0.73706 0.81837 0.5035 0.0
C612 C 0.72852 0.8245 0.54967 0.0
C613 C 0.71315 0.8001 0.5838 0.0
C614 C 0.70632 0.76953 0.5719 0.0
C615 C 0.76256 0.64832 0.57409 0.0
C616 C 0.76438 0.65309 0.62529 0.0
C617 C 0.74622 0.65885 0.54472 0.0
C618 C 0.73035 0.67316 0.56631 0.0
C619 C 0.73171 0.67726 0.6178 0.0
C620 C 0.74891 0.66768 0.64694 0.0
C621 C 0.71406 0.68563 0.53509 0.0
C622 C 0.72018 0.71648 0.54398 0.0
C623 C 0.69395 0.66818 0.49541 0.0
C624 C 0.68349 0.63432 0.48728 0.0
C625 C 0.66964 0.61239 0.52588 0.0
C626 C 0.65991 0.58056 0.51815 0.0
C627 C 0.6637 0.5703 0.47186 0.0
C628 C 0.67716 0.59185 0.43316 0.0
C629 C 0.68696 0.62373 0.4407 0.0
H630 H 0.65614 0.54564 0.46595 0.0
H631 H 0.73391 0.84814 0.55922 0.0
H632 H 0.92123 0.69877 0.82154 0.0
H633 H 0.96684 0.72037 0.87647 0.0
H634 H 0.91432 0.64503 0.98014 0.0
H635 H 0.86886 0.62273 0.92475 0.0
H636 H 0.9751 0.74363 0.96481 0.0
H637 H 0.96369 0.62791 0.04286 0.0
H638 H 0.9444 0.573 0.01625 0.0
H639 H 0.96071 0.60268 0.8648 0.0
H640 H 0.98051 0.6578 0.89053 0.0
H641 H 0.07395 0.78175 0.17321 0.0
H642 H 0.02797 0.75587 0.11901 0.0
H643 H 0.07843 0.72583 0.02322 0.0
H644 H 0.12414 0.75086 0.07769 0.0
H645 H 0.0199 0.68016 0.03251 0.0
H646 H 0.07165 0.79059 0.99563 0.0
H647 H 0.0952 0.84731 0.01431 0.0
H648 H 0.00587 0.83144 0.06801 0.0
H649 H 0.98189 0.77452 0.05029 0.0
C650 C 0.9194 0.68669 0.85593 0.0
C651 C 0.89143 0.65899 0.86875 0.0
C652 C 0.94548 0.69912 0.88733 0.0
C653 C 0.94407 0.68421 0.93223 0.0
C654 C 0.91614 0.65662 0.94526 0.0
C655 C 0.89014 0.64395 0.9136 0.0
C656 C 0.97166 0.69794 0.9658 0.0
C657 C 0.98488 0.72973 0.97961 0.0
C658 C 0.98474 0.67996 0.98449 0.0
C659 C 0.97326 0.64693 0.96865 0.0
C660 C 0.96327 0.62273 0.0039 0.0
C661 C 0.95223 0.59157 0.98896 0.0
C662 C 0.95123 0.58434 0.93886 0.0
C663 C 0.96138 0.60829 0.90358 0.0
C664 C 0.97248 0.63949 0.91833 0.0
C665 C 0.07522 0.76951 0.14074 0.0
C666 C 0.10282 0.7686 0.12958 0.0
C667 C 0.04895 0.75479 0.10976 0.0
C668 C 0.04998 0.73934 0.06671 0.0
C669 C 0.07714 0.73764 0.05624 0.0
C670 C 0.1033 0.75207 0.08739 0.0
C671 C 0.02314 0.72574 0.03173 0.0
C672 C 0.01003 0.69399 0.01778 0.0
C673 C 0.01076 0.74401 0.01168 0.0
C674 C 0.02505 0.77826 0.02208 0.0
C675 C 0.05708 0.79917 0.01174 0.0
C676 C 0.0705 0.83135 0.02211 0.0
C677 C 0.05206 0.84296 0.04245 0.0
C678 C 0.02014 0.82241 0.05233 0.0
C679 C 0.00661 0.79019 0.0421 0.0
H680 H 0.0625 0.86788 0.05046 0.0
H681 H 0.94264 0.5602 0.92737 0.0
H682 H 0.38039 0.11397 0.61567 0.0
H683 H 0.36112 0.06809 0.56122 0.0
H684 H 0.26707 0.05463 0.56969 0.0
H685 H 0.2859 0.09953 0.62561 0.0
H686 H 0.2633 0.00068 0.57621 0.0
H687 H 0.31769 0.08924 0.4671 0.0
H688 H 0.36268 0.13886 0.43661 0.0
H689 H 0.41747 0.09303 0.41957 0.0
H690 H 0.37291 0.04321 0.45058 0.0
H691 H 0.19522 0.91057 0.35957 0.0
H692 H 0.22059 0.95599 0.41512 0.0
H693 H 0.29954 0.9408 0.43302 0.0
H694 H 0.27409 0.89485 0.37808 0.0
H695 H 0.3135 0.00739 0.41413 0.0
H696 H 0.255 0.91728 0.52054 0.0
H697 H 0.20739 0.86835 0.54651 0.0
H698 H 0.15736 0.91905 0.56374 0.0
H699 H 0.20456 0.96822 0.53707 0.0
C700 C 0.35561 0.1012 0.60588 0.0
C701 C 0.33466 0.11037 0.62483 0.0
C702 C 0.34465 0.07507 0.57459 0.0
C703 C 0.31271 0.05815 0.56073 0.0
C704 C 0.29179 0.06724 0.57989 0.0
C705 C 0.3026 0.09296 0.61182 0.0
C706 C 0.30083 0.03085 0.52655 0.0
C707 C 0.27418 0.00235 0.54062 0.0
C708 C 0.3153 0.0327 0.4804 0.0
C709 C 0.3421 0.0626 0.46168 0.0
C710 C 0.33942 0.08981 0.45721 0.0
C711 C 0.36482 0.11796 0.43978 0.0
C712 C 0.39295 0.11912 0.42631 0.0
C713 C 0.39569 0.09211 0.43011 0.0
C714 C 0.37036 0.06391 0.44758 0.0
C715 C 0.2181 0.91701 0.37497 0.0
C716 C 0.23262 0.89908 0.36465 0.0
C717 C 0.23248 0.94288 0.40673 0.0
C718 C 0.26178 0.9515 0.42812 0.0
C719 C 0.27689 0.93437 0.41673 0.0
C720 C 0.26226 0.90812 0.3856 0.0
C721 C 0.27596 0.97778 0.46378 0.0
C722 C 0.30293 0.00591 0.44995 0.0
C723 C 0.26152 0.97582 0.50976 0.0
C724 C 0.23322 0.94636 0.52634 0.0
C725 C 0.23377 0.91794 0.52944 0.0
C726 C 0.20687 0.89017 0.54437 0.0
C727 C 0.17934 0.89057 0.55664 0.0
C728 C 0.17869 0.91877 0.55416 0.0
C729 C 0.20551 0.9466 0.53918 0.0
H730 H 0.15854 0.86905 0.56818 0.0
H731 H 0.41259 0.14094 0.41281 0.0
H732 H 0.69014 0.75787 0.18028 0.0
H733 H 0.71062 0.73283 0.12501 0.0
H734 H 0.63766 0.71517 0.01915 0.0
H735 H 0.6164 0.73911 0.07487 0.0
H736 H 0.64726 0.66725 0.02001 0.0
H737 H 0.71297 0.77996 0.00921 0.0
H738 H 0.74671 0.83379 0.04174 0.0
H739 H 0.81197 0.80706 0.09838 0.0
H740 H 0.77839 0.75295 0.06671 0.0
H741 H 0.77719 0.69756 0.82464 0.0
H742 H 0.75012 0.71596 0.87942 0.0
H743 H 0.71858 0.63292 0.96972 0.0
H744 H 0.745 0.614 0.91478 0.0
H745 H 0.76016 0.73157 0.97354 0.0
H746 H 0.64784 0.61257 0.01991 0.0
H747 H 0.61329 0.56126 0.97969 0.0
H748 H 0.63899 0.60542 0.8373 0.0
H749 H 0.67338 0.65697 0.8766 0.0
C750 C 0.67831 0.7484 0.14541 0.0
C751 C 0.65188 0.75077 0.13167 0.0
C752 C 0.69006 0.73416 0.11384 0.0
C753 C 0.67604 0.72272 0.06754 0.0
C754 C 0.64888 0.72389 0.05465 0.0
C755 C 0.63682 0.73767 0.08651 0.0
C756 C 0.69061 0.71114 0.03139 0.0
C757 C 0.67196 0.68126 0.00995 0.0
C758 C 0.72264 0.72975 0.01735 0.0
C759 C 0.74304 0.76235 0.03597 0.0
C760 C 0.73443 0.78553 0.02884 0.0
C761 C 0.75353 0.81609 0.0471 0.0
C762 C 0.78143 0.82382 0.0722 0.0
C763 C 0.79033 0.80103 0.07897 0.0
C764 C 0.7713 0.77042 0.06084 0.0
C765 C 0.76434 0.68308 0.85597 0.0
C766 C 0.76331 0.65431 0.86532 0.0
C767 C 0.74895 0.69368 0.88728 0.0
C768 C 0.73221 0.67572 0.92842 0.0
C769 C 0.73097 0.64692 0.93774 0.0
C770 C 0.74621 0.63621 0.90634 0.0
C771 C 0.71691 0.6876 0.96251 0.0
C772 C 0.73547 0.71753 0.98366 0.0
C773 C 0.68461 0.66941 0.97512 0.0
C774 C 0.66341 0.63858 0.95124 0.0
C775 C 0.64599 0.61134 0.98004 0.0
C776 C 0.62647 0.58221 0.95739 0.0
C777 C 0.62402 0.58009 0.90598 0.0
C778 C 0.641 0.60708 0.8771 0.0
C779 C 0.66054 0.63624 0.89954 0.0
H780 H 0.60891 0.55755 0.88849 0.0
H781 H 0.79617 0.84748 0.08634 0.0
H782 H 0.92693 0.69339 0.68595 0.0
H783 H 0.9743 0.71596 0.63452 0.0
H784 H 0.91893 0.65849 0.51189 0.0
H785 H 0.87196 0.63469 0.56397 0.0
H786 H 0.97085 0.65895 0.51165 0.0
H787 H 0.94378 0.74022 0.52501 0.0
H788 H 0.93117 0.77721 0.5673 0.0
H789 H 0.022 0.82201 0.6376 0.0
H790 H 0.035 0.785 0.59619 0.0
H791 H 0.07315 0.76463 0.31906 0.0
H792 H 0.02894 0.73931 0.37714 0.0
H793 H 0.09373 0.7531 0.49511 0.0
H794 H 0.13803 0.77759 0.43711 0.0
H795 H 0.03958 0.77516 0.49915 0.0
H796 H 0.06385 0.68964 0.48129 0.0
H797 H 0.07417 0.65387 0.43063 0.0
H798 H 0.98452 0.61878 0.35882 0.0
H799 H 0.97393 0.65477 0.40858 0.0
C800 C 0.92496 0.68558 0.64803 0.0
C801 C 0.89582 0.66242 0.62881 0.0
C802 C 0.95198 0.69859 0.61859 0.0
C803 C 0.95011 0.68938 0.56899 0.0
C804 C 0.92102 0.66597 0.55002 0.0
C805 C 0.89417 0.65243 0.57975 0.0
C806 C 0.97835 0.70412 0.53668 0.0
C807 C 0.98567 0.68438 0.50884 0.0
C808 C -0.00204 0.73732 0.533 0.0
C809 C 0.99022 0.75962 0.55792 0.0
C810 C 0.96097 0.75781 0.54978 0.0
C811 C 0.95377 0.7788 0.57354 0.0
C812 C 0.97573 0.80188 0.60523 0.0
C813 C 0.00499 0.80408 0.61311 0.0
C814 C 0.01229 0.78312 0.58948 0.0
C815 C 0.07794 0.76213 0.35733 0.0
C816 C 0.10895 0.77295 0.37364 0.0
C817 C 0.05274 0.74768 0.39029 0.0
C818 C 0.05831 0.7444 0.44006 0.0
C819 C 0.08918 0.7554 0.45665 0.0
C820 C 0.11433 0.76922 0.42351 0.0
C821 C 0.03174 0.72994 0.47488 0.0
C822 C 0.02474 0.74976 0.50272 0.0
C823 C 0.01206 0.69693 0.47777 0.0
C824 C 0.0183 0.67516 0.44818 0.0
C825 C 0.04651 0.67456 0.45431 0.0
C826 C 0.05237 0.65418 0.42586 0.0
C827 C 0.03006 0.63414 0.3914 0.0
C828 C 0.0018 0.63436 0.38545 0.0
C829 C -0.00414 0.65472 0.41378 0.0
H830 H 0.03463 0.61837 0.36942 0.0
H831 H 0.97011 0.81811 0.62358 0.0
H832 H 0.22853 0.929 0.1791 0.0
H833 H 0.25256 0.97441 0.12368 0.0
H834 H 0.25179 0.91461 0.0058 0.0
H835 H 0.22908 0.86943 0.06167 0.0
H836 H 0.30385 0.96715 0.00159 0.0
H837 H 0.19589 0.93929 0.01428 0.0
H838 H 0.14601 0.92643 0.05573 0.0
H839 H 0.19049 0.01849 0.12211 0.0
H840 H 0.24077 0.03175 0.08155 0.0
H841 H 0.3084 0.07328 0.80847 0.0
H842 H 0.28819 0.02741 0.86356 0.0
H843 H 0.32841 0.08939 0.98872 0.0
H844 H 0.34946 0.1353 0.93398 0.0
H845 H 0.2563 0.03569 0.98629 0.0
H846 H 0.36584 0.06057 0.96961 0.0
H847 H 0.41239 0.07093 0.92027 0.0
H848 H 0.35932 0.98014 0.85111 0.0
H849 H 0.31227 0.96947 0.89952 0.0
C850 C 0.23355 0.92558 0.14139 0.0
C851 C 0.22678 0.89567 0.12461 0.0
C852 C 0.24715 0.9515 0.10968 0.0
C853 C 0.2534 0.9478 0.06027 0.0
C854 C 0.24715 0.91803 0.04372 0.0
C855 C 0.23412 0.89223 0.07567 0.0
C856 C 0.26623 0.97491 0.02576 0.0
C857 C 0.29319 0.98188 -0.00204 0.0
C858 C 0.2524 0.99423 0.02088 0.0
C859 C 0.22217 0.9864 0.04525 0.0
C860 C 0.19509 0.95671 0.038 0.0
C861 C 0.16674 0.94936 0.06129 0.0
C862 C 0.16511 0.9716 0.09164 0.0
C863 C 0.1918 0.00127 0.09864 0.0
C864 C 0.22023 0.00873 0.07547 0.0
C865 C 0.31304 0.07707 0.8477 0.0
C866 C 0.33051 0.10777 0.86703 0.0
C867 C 0.30158 0.05095 0.87895 0.0
C868 C 0.30696 0.05527 0.92989 0.0
C869 C 0.3242 0.0858 0.94936 0.0
C870 C 0.33626 0.11189 0.91808 0.0
C871 C 0.29387 0.02786 0.96315 0.0
C872 C 0.26681 0.02084 0.99031 0.0
C873 C 0.30711 0.00809 0.9665 0.0
C874 C 0.33544 0.0144 0.93773 0.0
C875 C 0.364 0.04297 0.9435 0.0
C876 C 0.3905 0.04886 0.91579 0.0
C877 C 0.38878 0.02625 0.88247 0.0
C878 C 0.36059 -0.00234 0.87688 0.0
C879 C 0.33401 0.99167 0.90446 0.0
H880 H 0.40933 0.03084 0.8611 0.0
H881 H 0.14314 0.96587 0.10964 0.0
H882 H 0.30406 0.24116 0.68702 0.0
H883 H 0.28122 0.26421 0.63253 0.0
H884 H 0.32528 0.24745 0.50707 0.0
H885 H 0.34953 0.2259 0.56187 0.0
H886 H 0.32851 0.30066 0.49482 0.0
H887 H 0.24458 0.19809 0.53789 0.0
H888 H 0.20959 0.1544 0.59306 0.0
H889 H 0.17642 0.21243 0.65843 0.0
H890 H 0.21153 0.25664 0.60407 0.0
H891 H 0.22046 0.303 0.31612 0.0
H892 H 0.24661 0.28331 0.37104 0.0
H893 H 0.2324 0.33068 0.49418 0.0
H894 H 0.2069 0.35109 0.43947 0.0
H895 H 0.21362 0.26196 0.50571 0.0
H896 H 0.29973 0.36464 0.45715 0.0
H897 H 0.33277 0.4048 0.39565 0.0
H898 H 0.35936 0.34087 0.33274 0.0
H899 H 0.32602 0.30013 0.39342 0.0
C900 C 0.30898 0.24255 0.64783 0.0
C901 C 0.32838 0.23157 0.62858 0.0
C902 C 0.29578 0.25556 0.61667 0.0
C903 C 0.30088 0.25689 0.56548 0.0
C904 C 0.3209 0.24661 0.54638 0.0
C905 C 0.33471 0.23426 0.5777 0.0
C906 C 0.28503 0.26859 0.53184 0.0
C907 C 0.30332 0.29186 0.49693 0.0
C908 C 0.25216 0.25733 0.53459 0.0
C909 C 0.23092 0.23077 0.56723 0.0
C910 C 0.22999 0.20161 0.56427 0.0
C911 C 0.21011 0.17674 0.59536 0.0
C912 C 0.19085 0.18067 0.62932 0.0
C913 C 0.19138 0.20944 0.63216 0.0
C914 C 0.21124 0.2344 0.60119 0.0
C915 C 0.22286 0.30916 0.35492 0.0
C916 C 0.21171 0.3286 0.37357 0.0
C917 C 0.23785 0.298 0.38609 0.0
C918 C 0.2414 0.30569 0.43641 0.0
C919 C 0.22984 0.3246 0.45534 0.0
C920 C 0.21542 0.33629 0.42405 0.0
C921 C 0.25717 0.29392 0.46943 0.0
C922 C 0.2388 0.27062 0.50395 0.0
C923 C 0.28975 0.30461 0.46556 0.0
C924 C 0.31011 0.32923 0.42949 0.0
C925 C 0.31238 0.35904 0.42992 0.0
C926 C 0.33121 0.38193 0.39527 0.0
C927 C 0.34808 0.37536 0.36021 0.0
C928 C 0.34624 0.34592 0.35986 0.0
C929 C 0.3274 0.32293 0.3944 0.0
H930 H 0.36264 0.39311 0.33339 0.0
H931 H 0.17548 0.16139 0.65336 0.0
H932 H 0.86355 0.22608 0.92938 0.0
H933 H 0.91157 0.25406 0.97836 0.0
H934 H 0.96625 0.25048 0.85608 0.0
H935 H 0.9179 0.22115 0.8075 0.0
H936 H 0.98715 0.23903 0.93488 0.0
H937 H 0.96554 0.31853 0.88858 0.0
H938 H 0.93422 0.34452 0.87479 0.0
H939 H 0.92117 0.34716 0.03105 0.0
H940 H 0.95154 0.32012 0.04579 0.0
H941 H 0.12906 0.3572 0.05858 0.0
H942 H 0.08596 0.33663 -0.00184 0.0
H943 H 0.01814 0.29439 0.1157 0.0
H944 H 0.06111 0.31403 0.17629 0.0
H945 H 0.00904 0.33426 0.03109 0.0
H946 H 0.0296 0.24734 0.06824 0.0
H947 H 0.06557 0.22579 0.07302 0.0
H948 H 0.08762 0.24561 0.91921 0.0
H949 H 0.05238 0.26804 0.91387 0.0
C950 C 0.88581 0.23132 0.91286 0.0
C951 C 0.88699 0.22153 0.86456 0.0
C952 C 0.91329 0.24747 0.94081 0.0
C953 C 0.94266 0.25496 0.92063 0.0
C954 C 0.94389 0.24503 0.87244 0.0
C955 C 0.91627 0.22831 0.84471 0.0
C956 C 0.97185 0.27257 0.95047 0.0
C957 C 0.99209 0.26012 0.95523 0.0
C958 C 0.97869 0.30039 0.97669 0.0
C959 C 0.96065 0.31701 0.96827 0.0
C960 C 0.95579 0.32439 0.92004 0.0
C961 C 0.9382 0.33935 0.91204 0.0
C962 C 0.92576 0.34758 0.95202 0.0
C963 C 0.93083 0.34078 0.00011 0.0
C964 C 0.9482 0.32557 0.00831 0.0
C965 C 0.10494 0.34377 0.07156 0.0
C966 C 0.09835 0.33709 0.12205 0.0
C967 C 0.08045 0.33206 0.03706 0.0
C968 C 0.04907 0.31409 0.05273 0.0
C969 C 0.04232 0.30831 0.10317 0.0
C970 C 0.06681 0.31938 0.13759 0.0
C971 C 0.02323 0.29996 0.01638 0.0
C972 C 0.00391 0.31327 0.01028 0.0
C973 C 0.01788 0.27366 0.9876 0.0
C974 C 0.03871 0.25978 0.99085 0.0
C975 C 0.04242 0.24748 0.03561 0.0
C976 C 0.06265 0.23507 0.03839 0.0
C977 C 0.07903 0.23451 0.99651 0.0
C978 C 0.07507 0.24622 0.95169 0.0
C979 C 0.05498 0.25879 0.94877 0.0
H980 H 0.09468 0.2249 -0.00127 0.0
H981 H 0.91221 0.35922 0.94573 0.0
H982 H 0.70599 0.90704 0.3345 0.0
H983 H 0.72696 0.95433 0.38599 0.0
H984 H 0.63427 0.92213 0.44634 0.0
H985 H 0.61293 0.87488 0.39491 0.0
H986 H 0.66833 0.98773 0.4238 0.0
H987 H 0.68476 0.90825 0.50693 0.0
H988 H 0.70591 0.87189 0.50959 0.0
H989 H 0.79976 0.94969 0.4881 0.0
H990 H 0.77907 0.9864 0.48418 0.0
H991 H 0.71006 0.08633 0.63501 0.0
H992 H 0.68755 0.04206 0.57666 0.0
H993 H 0.78093 0.05698 0.54789 0.0
H994 H 0.80277 0.09922 0.60907 0.0
H995 H 0.74608 -9e-05 0.55189 0.0
H996 H 0.73622 0.07964 0.46568 0.0
H997 H 0.72052 0.11975 0.45231 0.0
H998 H 0.62297 0.04879 0.46739 0.0
H999 H 0.63812 0.0083 0.48148 0.0
C1000 C 0.68997 0.91008 0.35839 0.0
C1001 C 0.65783 0.88694 0.36098 0.0
C1002 C 0.70201 0.93713 0.38775 0.0
C1003 C 0.68217 0.94146 0.42022 0.0
C1004 C 0.64991 0.91912 0.42149 0.0
C1005 C 0.63784 0.89204 0.39229 0.0
C1006 C 0.69529 0.96826 0.45514 0.0
C1007 C 0.68515 0.99041 0.45217 0.0
C1008 C 0.71796 0.97211 0.49091 0.0
C1009 C 0.73033 0.95002 0.49485 0.0
C1010 C 0.70988 0.91756 0.50252 0.0
C1011 C 0.7218 0.8969 0.50424 0.0
C1012 C 0.75418 0.90849 0.49894 0.0
C1013 C 0.7747 0.94076 0.49213 0.0
C1014 C 0.76289 0.96149 0.49014 0.0
C1015 C 0.72556 0.07985 0.61627 0.0
C1016 C 0.75799 0.09582 0.62647 0.0
C1017 C 0.71281 0.05484 0.58256 0.0
C1018 C 0.73256 0.04642 0.55697 0.0
C1019 C 0.76508 0.06276 0.56716 0.0
C1020 C 0.77759 0.08692 0.60206 0.0
C1021 C 0.71954 0.02009 0.52064 0.0
C1022 C 0.72946 -0.0023 0.5235 0.0
C1023 C 0.69755 0.01674 0.48364 0.0
C1024 C 0.68833 0.041 0.47514 0.0
C1025 C 0.71144 0.07263 0.4665 0.0
C1026 C 0.70263 0.09543 0.45874 0.0
C1027 C 0.67077 0.08684 0.45914 0.0
C1028 C 0.64764 0.05542 0.46717 0.0
C1029 C 0.65632 0.03253 0.475 0.0
H1030 H 0.664 0.10453 0.45313 0.0
H1031 H 0.76344 0.89255 0.50013 0.0
loop_
_geom_bond_atom_site_label_1
_geom_bond_atom_site_label_2
_geom_bond_distance
_geom_bond_site_symmetry_2
_ccdc_geom_bond_type
Sc0 O3 2.025 . S
Sc0 O10 2.105 . S
Sc0 O13 2.105 . S
Sc0 O16 2.105 . S
Sc0 O19 2.105 . S
Sc1 O3 2.025 . S
Sc1 O11 2.105 . S
Sc1 O15 2.105 . S
Sc1 O17 2.105 . S
Sc1 O21 2.105 . S
Sc2 O3 2.025 . S
Sc2 O12 2.105 . S
Sc2 O14 2.105 . S
Sc2 O18 2.105 . S
Sc2 O20 2.105 . S
O3 Sc0 2.025 . S
O3 Sc1 2.025 . S
O3 Sc2 2.025 . S
C4 O10 1.268 . S
C4 O20 1.268 . S
C5 O11 1.268 . S
C5 O19 1.268 . S
C6 O12 1.268 . S
C6 O21 1.268 . S
C7 O13 1.268 . S
C7 O17 1.268 . S
C8 O14 1.268 . S
C8 O16 1.268 . S
C9 O15 1.268 . S
C9 O18 1.268 . S
O10 Sc0 2.105 . S
O10 C4 1.268 . S
O11 Sc1 2.105 . S
O11 C5 1.268 . S
O12 Sc2 2.105 . S
O12 C6 1.268 . S
O13 Sc0 2.105 . S
O13 C7 1.268 . S
O14 Sc2 2.105 . S
O14 C8 1.268 . S
O15 Sc1 2.105 . S
O15 C9 1.268 . S
O16 Sc0 2.105 . S
O16 C8 1.268 . S
O17 Sc1 2.105 . S
O17 C7 1.268 . S
O18 Sc2 2.105 . S
O18 C9 1.268 . S
O19 Sc0 2.105 . S
O19 C5 1.268 . S
O20 Sc2 2.105 . S
O20 C4 1.268 . S
O21 Sc1 2.105 . S
O21 C6 1.268 . S
Sc22 O25 2.025 . S
Sc22 O32 2.105 . S
Sc22 O35 2.105 . S
Sc22 O38 2.105 . S
Sc22 O41 2.105 . S
Sc23 O25 2.025 . S
Sc23 O33 2.105 . S
Sc23 O37 2.105 . S
Sc23 O39 2.105 . S
Sc23 O43 2.105 . S
Sc24 O25 2.025 . S
Sc24 O34 2.105 . S
Sc24 O36 2.105 . S
Sc24 O40 2.105 . S
Sc24 O42 2.105 . S
O25 Sc22 2.025 . S
O25 Sc23 2.025 . S
O25 Sc24 2.025 . S
C26 O32 1.268 . S
C26 O42 1.268 . S
C27 O33 1.268 . S
C27 O41 1.268 . S
C28 O34 1.268 . S
C28 O43 1.268 . S
C29 O35 1.268 . S
C29 O39 1.268 . S
C30 O36 1.268 . S
C30 O38 1.268 . S
C31 O37 1.268 . S
C31 O40 1.268 . S
O32 Sc22 2.105 . S
O32 C26 1.268 . S
O33 Sc23 2.105 . S
O33 C27 1.268 . S
O34 Sc24 2.105 . S
O34 C28 1.268 . S
O35 Sc22 2.105 . S
O35 C29 1.268 . S
O36 Sc24 2.105 . S
O36 C30 1.268 . S
O37 Sc23 2.105 . S
O37 C31 1.268 . S
O38 Sc22 2.105 . S
O38 C30 1.268 . S
O39 Sc23 2.105 . S
O39 C29 1.268 . S
O40 Sc24 2.105 . S
O40 C31 1.268 . S
O41 Sc22 2.105 . S
O41 C27 1.268 . S
O42 Sc24 2.105 . S
O42 C26 1.268 . S
O43 Sc23 2.105 . S
O43 C28 1.268 . S
Sc44 O47 2.025 . S
Sc44 O54 2.105 . S
Sc44 O57 2.105 . S
Sc44 O60 2.105 . S
Sc44 O63 2.105 . S
Sc45 O47 2.025 . S
Sc45 O55 2.105 . S
Sc45 O59 2.105 . S
Sc45 O61 2.105 . S
Sc45 O65 2.105 . S
Sc46 O47 2.025 . S
Sc46 O56 2.105 . S
Sc46 O58 2.105 . S
Sc46 O62 2.105 . S
Sc46 O64 2.105 . S
O47 Sc44 2.025 . S
O47 Sc45 2.025 . S
O47 Sc46 2.025 . S
C48 O54 1.268 . S
C48 O64 1.268 . S
C49 O55 1.268 . S
C49 O63 1.268 . S
C50 O56 1.268 . S
C50 O65 1.268 . S
C51 O57 1.268 . S
C51 O61 1.268 . S
C52 O58 1.268 . S
C52 O60 1.268 . S
C53 O59 1.268 . S
C53 O62 1.268 . S
O54 Sc44 2.105 . S
O54 C48 1.268 . S
O55 Sc45 2.105 . S
O55 C49 1.268 . S
O56 Sc46 2.105 . S
O56 C50 1.268 . S
O57 Sc44 2.105 . S
O57 C51 1.268 . S
O58 Sc46 2.105 . S
O58 C52 1.268 . S
O59 Sc45 2.105 . S
O59 C53 1.268 . S
O60 Sc44 2.105 . S
O60 C52 1.268 . S
O61 Sc45 2.105 . S
O61 C51 1.268 . S
O62 Sc46 2.105 . S
O62 C53 1.268 . S
O63 Sc44 2.105 . S
O63 C49 1.268 . S
O64 Sc46 2.105 . S
O64 C48 1.268 . S
O65 Sc45 2.105 . S
O65 C50 1.268 . S
Sc66 O69 2.025 . S
Sc66 O76 2.105 . S
Sc66 O79 2.105 . S
Sc66 O82 2.105 . S
Sc66 O85 2.105 . S
Sc67 O69 2.025 . S
Sc67 O77 2.105 . S
Sc67 O81 2.105 . S
Sc67 O83 2.105 . S
Sc67 O87 2.105 . S
Sc68 O69 2.025 . S
Sc68 O78 2.105 . S
Sc68 O80 2.105 . S
Sc68 O84 2.105 . S
Sc68 O86 2.105 . S
O69 Sc66 2.025 . S
O69 Sc67 2.025 . S
O69 Sc68 2.025 . S
C70 O76 1.268 . S
C70 O86 1.268 . S
C71 O77 1.268 . S
C71 O85 1.268 . S
C72 O78 1.268 . S
C72 O87 1.268 . S
C73 O79 1.268 . S
C73 O83 1.268 . S
C74 O80 1.268 . S
C74 O82 1.268 . S
C75 O81 1.268 . S
C75 O84 1.268 . S
O76 Sc66 2.105 . S
O76 C70 1.268 . S
O77 Sc67 2.105 . S
O77 C71 1.268 . S
O78 Sc68 2.105 . S
O78 C72 1.268 . S
O79 Sc66 2.105 . S
O79 C73 1.268 . S
O80 Sc68 2.105 . S
O80 C74 1.268 . S
O81 Sc67 2.105 . S
O81 C75 1.268 . S
O82 Sc66 2.105 . S
O82 C74 1.268 . S
O83 Sc67 2.105 . S
O83 C73 1.268 . S
O84 Sc68 2.105 . S
O84 C75 1.268 . S
O85 Sc66 2.105 . S
O85 C71 1.268 . S
O86 Sc68 2.105 . S
O86 C70 1.268 . S
O87 Sc67 2.105 . S
O87 C72 1.268 . S
Sc88 O91 2.025 . S
Sc88 O98 2.105 . S
Sc88 O101 2.105 . S
Sc88 O104 2.105 . S
Sc88 O107 2.105 . S
Sc89 O91 2.025 . S
Sc89 O99 2.105 . S
Sc89 O103 2.105 . S
Sc89 O105 2.105 . S
Sc89 O109 2.105 . S
Sc90 O91 2.025 . S
Sc90 O100 2.105 . S
Sc90 O102 2.105 . S
Sc90 O106 2.105 . S
Sc90 O108 2.105 . S
O91 Sc88 2.025 . S
O91 Sc89 2.025 . S
O91 Sc90 2.025 . S
C92 O98 1.268 . S
C92 O108 1.268 . S
C93 O99 1.268 . S
C93 O107 1.268 . S
C94 O100 1.268 . S
C94 O109 1.268 . S
C95 O101 1.268 . S
C95 O105 1.268 . S
C96 O102 1.268 . S
C96 O104 1.268 . S
C97 O103 1.268 . S
C97 O106 1.268 . S
O98 Sc88 2.105 . S
O98 C92 1.268 . S
O99 Sc89 2.105 . S
O99 C93 1.268 . S
O100 Sc90 2.105 . S
O100 C94 1.268 . S
O101 Sc88 2.105 . S
O101 C95 1.268 . S
O102 Sc90 2.105 . S
O102 C96 1.268 . S
O103 Sc89 2.105 . S
O103 C97 1.268 . S
O104 Sc88 2.105 . S
O104 C96 1.268 . S
O105 Sc89 2.105 . S
O105 C95 1.268 . S
O106 Sc90 2.105 . S
O106 C97 1.268 . S
O107 Sc88 2.105 . S
O107 C93 1.268 . S
O108 Sc90 2.105 . S
O108 C92 1.268 . S
O109 Sc89 2.105 . S
O109 C94 1.268 . S
Sc110 O113 2.025 . S
Sc110 O120 2.105 . S
Sc110 O123 2.105 . S
Sc110 O126 2.105 . S
Sc110 O129 2.105 . S
Sc111 O113 2.025 . S
Sc111 O121 2.105 . S
Sc111 O125 2.105 . S
Sc111 O127 2.105 . S
Sc111 O131 2.105 . S
Sc112 O113 2.025 . S
Sc112 O122 2.105 . S
Sc112 O124 2.105 . S
Sc112 O128 2.105 . S
Sc112 O130 2.105 . S
O113 Sc110 2.025 . S
O113 Sc111 2.025 . S
O113 Sc112 2.025 . S
C114 O120 1.268 . S
C114 O130 1.268 . S
C115 O121 1.268 . S
C115 O129 1.268 . S
C116 O122 1.268 . S
C116 O131 1.268 . S
C117 O123 1.268 . S
C117 O127 1.268 . S
C118 O124 1.268 . S
C118 O126 1.268 . S
C119 O125 1.268 . S
C119 O128 1.268 . S
O120 Sc110 2.105 . S
O120 C114 1.268 . S
O121 Sc111 2.105 . S
O121 C115 1.268 . S
O122 Sc112 2.105 . S
O122 C116 1.268 . S
O123 Sc110 2.105 . S
O123 C117 1.268 . S
O124 Sc112 2.105 . S
O124 C118 1.268 . S
O125 Sc111 2.105 . S
O125 C119 1.268 . S
O126 Sc110 2.105 . S
O126 C118 1.268 . S
O127 Sc111 2.105 . S
O127 C117 1.268 . S
O128 Sc112 2.105 . S
O128 C119 1.268 . S
O129 Sc110 2.105 . S
O129 C115 1.268 . S
O130 Sc112 2.105 . S
O130 C114 1.268 . S
O131 Sc111 2.105 . S
O131 C116 1.268 . S
H132 C150 0.951 . S
H133 C152 0.951 . S
H134 C154 0.950 . S
H135 C155 0.950 . S
H136 C157 0.950 . S
H137 C160 0.950 . S
H138 C161 0.950 . S
H139 C163 0.950 . S
H140 C164 0.950 . S
H141 C165 0.951 . S
H142 C167 0.951 . S
H143 C169 0.950 . S
H144 C170 0.950 . S
H145 C172 0.950 . S
H146 C175 0.950 . S
H147 C176 0.950 . S
H148 C178 0.950 . S
H149 C179 0.950 . S
C150 H132 0.951 . S
C150 C151 1.366 . S
C150 C152 1.388 . S
C151 C150 1.366 . S
C151 C155 1.385 . S
C152 H133 0.951 . S
C152 C150 1.388 . S
C152 C153 1.366 . S
C153 C152 1.366 . S
C153 C154 1.414 . S
C153 C156 1.499 . S
C154 H134 0.950 . S
C154 C153 1.414 . S
C154 C155 1.374 . S
C155 H135 0.950 . S
C155 C151 1.385 . S
C155 C154 1.374 . S
C156 C153 1.499 . S
C156 C157 1.373 . S
C156 C158 1.389 . S
C157 H136 0.950 . S
C157 C156 1.373 . S
C157 C173 1.377 . S
C158 C156 1.389 . S
C158 C159 1.524 . S
C158 C172 1.377 . S
C159 C158 1.524 . S
C159 C160 1.397 . S
C159 C164 1.363 . S
C160 H137 0.950 . S
C160 C159 1.397 . S
C160 C161 1.334 . S
C161 H138 0.950 . S
C161 C160 1.334 . S
C161 C162 1.287 . S
C162 C161 1.287 . S
C162 C163 1.524 . S
C162 H181 0.913 . S
C163 H139 0.950 . S
C163 C162 1.524 . S
C163 C164 1.415 . S
C164 H140 0.950 . S
C164 C159 1.363 . S
C164 C163 1.415 . S
C165 H141 0.951 . S
C165 C166 1.366 . S
C165 C167 1.388 . S
C166 C165 1.366 . S
C166 C170 1.385 . S
C167 H142 0.951 . S
C167 C165 1.388 . S
C167 C168 1.366 . S
C168 C167 1.366 . S
C168 C169 1.414 . S
C168 C171 1.499 . S
C169 H143 0.950 . S
C169 C168 1.414 . S
C169 C170 1.374 . S
C170 H144 0.950 . S
C170 C166 1.385 . S
C170 C169 1.374 . S
C171 C168 1.499 . S
C171 C172 1.373 . S
C171 C173 1.389 . S
C172 H145 0.950 . S
C172 C158 1.377 . S
C172 C171 1.373 . S
C173 C157 1.377 . S
C173 C171 1.389 . S
C173 C174 1.524 . S
C174 C173 1.524 . S
C174 C175 1.397 . S
C174 C179 1.363 . S
C175 H146 0.950 . S
C175 C174 1.397 . S
C175 C176 1.334 . S
C176 H147 0.950 . S
C176 C175 1.334 . S
C176 C177 1.287 . S
C177 C176 1.287 . S
C177 C178 1.524 . S
C177 H180 0.999 . S
C178 H148 0.950 . S
C178 C177 1.524 . S
C178 C179 1.415 . S
C179 H149 0.950 . S
C179 C174 1.363 . S
C179 C178 1.415 . S
H180 C177 0.999 . S
H181 C162 0.913 . S
H182 C200 0.951 . S
H183 C202 0.951 . S
H184 C204 0.950 . S
H185 C205 0.950 . S
H186 C207 0.950 . S
H187 C210 0.950 . S
H188 C211 0.950 . S
H189 C213 0.950 . S
H190 C214 0.950 . S
H191 C215 0.951 . S
H192 C217 0.951 . S
H193 C219 0.950 . S
H194 C220 0.950 . S
H195 C222 0.950 . S
H196 C225 0.950 . S
H197 C226 0.950 . S
H198 C228 0.950 . S
H199 C229 0.950 . S
C200 H182 0.951 . S
C200 C201 1.366 . S
C200 C202 1.388 . S
C201 C200 1.366 . S
C201 C205 1.385 . S
C202 H183 0.951 . S
C202 C200 1.388 . S
C202 C203 1.366 . S
C203 C202 1.366 . S
C203 C204 1.414 . S
C203 C206 1.499 . S
C204 H184 0.950 . S
C204 C203 1.414 . S
C204 C205 1.374 . S
C205 H185 0.950 . S
C205 C201 1.385 . S
C205 C204 1.374 . S
C206 C203 1.499 . S
C206 C207 1.373 . S
C206 C208 1.389 . S
C207 H186 0.950 . S
C207 C206 1.373 . S
C207 C223 1.377 . S
C208 C206 1.389 . S
C208 C209 1.524 . S
C208 C222 1.377 . S
C209 C208 1.524 . S
C209 C210 1.397 . S
C209 C214 1.363 . S
C210 H187 0.950 . S
C210 C209 1.397 . S
C210 C211 1.334 . S
C211 H188 0.950 . S
C211 C210 1.334 . S
C211 C212 1.287 . S
C212 C211 1.287 . S
C212 C213 1.524 . S
C212 H231 0.913 . S
C213 H189 0.950 . S
C213 C212 1.524 . S
C213 C214 1.415 . S
C214 H190 0.950 . S
C214 C209 1.363 . S
C214 C213 1.415 . S
C215 H191 0.951 . S
C215 C216 1.366 . S
C215 C217 1.388 . S
C216 C215 1.366 . S
C216 C220 1.385 . S
C217 H192 0.951 . S
C217 C215 1.388 . S
C217 C218 1.366 . S
C218 C217 1.366 . S
C218 C219 1.414 . S
C218 C221 1.499 . S
C219 H193 0.950 . S
C219 C218 1.414 . S
C219 C220 1.374 . S
C220 H194 0.950 . S
C220 C216 1.385 . S
C220 C219 1.374 . S
C221 C218 1.499 . S
C221 C222 1.373 . S
C221 C223 1.389 . S
C222 H195 0.950 . S
C222 C208 1.377 . S
C222 C221 1.373 . S
C223 C207 1.377 . S
C223 C221 1.389 . S
C223 C224 1.524 . S
C224 C223 1.524 . S
C224 C225 1.397 . S
C224 C229 1.363 . S
C225 H196 0.950 . S
C225 C224 1.397 . S
C225 C226 1.334 . S
C226 H197 0.950 . S
C226 C225 1.334 . S
C226 C227 1.287 . S
C227 C226 1.287 . S
C227 C228 1.524 . S
C227 H230 0.999 . S
C228 H198 0.950 . S
C228 C227 1.524 . S
C228 C229 1.415 . S
C229 H199 0.950 . S
C229 C224 1.363 . S
C229 C228 1.415 . S
H230 C227 0.999 . S
H231 C212 0.913 . S
H232 C250 0.951 . S
H233 C252 0.951 . S
H234 C254 0.950 . S
H235 C255 0.950 . S
H236 C257 0.950 . S
H237 C260 0.950 . S
H238 C261 0.950 . S
H239 C263 0.950 . S
H240 C264 0.950 . S
H241 C265 0.951 . S
H242 C267 0.951 . S
H243 C269 0.950 . S
H244 C270 0.950 . S
H245 C272 0.950 . S
H246 C275 0.950 . S
H247 C276 0.950 . S
H248 C278 0.950 . S
H249 C279 0.950 . S
C250 H232 0.951 . S
C250 C251 1.366 . S
C250 C252 1.388 . S
C251 C250 1.366 . S
C251 C255 1.385 . S
C252 H233 0.951 . S
C252 C250 1.388 . S
C252 C253 1.366 . S
C253 C252 1.366 . S
C253 C254 1.414 . S
C253 C256 1.499 . S
C254 H234 0.950 . S
C254 C253 1.414 . S
C254 C255 1.374 . S
C255 H235 0.950 . S
C255 C251 1.385 . S
C255 C254 1.374 . S
C256 C253 1.499 . S
C256 C257 1.373 . S
C256 C258 1.389 . S
C257 H236 0.950 . S
C257 C256 1.373 . S
C257 C273 1.377 . S
C258 C256 1.389 . S
C258 C259 1.524 . S
C258 C272 1.377 . S
C259 C258 1.524 . S
C259 C260 1.397 . S
C259 C264 1.363 . S
C260 H237 0.950 . S
C260 C259 1.397 . S
C260 C261 1.334 . S
C261 H238 0.950 . S
C261 C260 1.334 . S
C261 C262 1.287 . S
C262 C261 1.287 . S
C262 C263 1.524 . S
C262 H281 0.913 . S
C263 H239 0.950 . S
C263 C262 1.524 . S
C263 C264 1.415 . S
C264 H240 0.950 . S
C264 C259 1.363 . S
C264 C263 1.415 . S
C265 H241 0.951 . S
C265 C266 1.366 . S
C265 C267 1.388 . S
C266 C265 1.366 . S
C266 C270 1.385 . S
C267 H242 0.951 . S
C267 C265 1.388 . S
C267 C268 1.366 . S
C268 C267 1.366 . S
C268 C269 1.414 . S
C268 C271 1.499 . S
C269 H243 0.950 . S
C269 C268 1.414 . S
C269 C270 1.374 . S
C270 H244 0.950 . S
C270 C266 1.385 . S
C270 C269 1.374 . S
C271 C268 1.499 . S
C271 C272 1.373 . S
C271 C273 1.389 . S
C272 H245 0.950 . S
C272 C258 1.377 . S
C272 C271 1.373 . S
C273 C257 1.377 . S
C273 C271 1.389 . S
C273 C274 1.524 . S
C274 C273 1.524 . S
C274 C275 1.397 . S
C274 C279 1.363 . S
C275 H246 0.950 . S
C275 C274 1.397 . S
C275 C276 1.334 . S
C276 H247 0.950 . S
C276 C275 1.334 . S
C276 C277 1.287 . S
C277 C276 1.287 . S
C277 C278 1.524 . S
C277 H280 0.999 . S
C278 H248 0.950 . S
C278 C277 1.524 . S
C278 C279 1.415 . S
C279 H249 0.950 . S
C279 C274 1.363 . S
C279 C278 1.415 . S
H280 C277 0.999 . S
H281 C262 0.913 . S
H282 C300 0.951 . S
H283 C302 0.951 . S
H284 C304 0.950 . S
H285 C305 0.950 . S
H286 C307 0.950 . S
H287 C310 0.950 . S
H288 C311 0.950 . S
H289 C313 0.950 . S
H290 C314 0.950 . S
H291 C315 0.951 . S
H292 C317 0.951 . S
H293 C319 0.950 . S
H294 C320 0.950 . S
H295 C322 0.950 . S
H296 C325 0.950 . S
H297 C326 0.950 . S
H298 C328 0.950 . S
H299 C329 0.950 . S
C300 H282 0.951 . S
C300 C301 1.366 . S
C300 C302 1.388 . S
C301 C300 1.366 . S
C301 C305 1.385 . S
C302 H283 0.951 . S
C302 C300 1.388 . S
C302 C303 1.366 . S
C303 C302 1.366 . S
C303 C304 1.414 . S
C303 C306 1.499 . S
C304 H284 0.950 . S
C304 C303 1.414 . S
C304 C305 1.374 . S
C305 H285 0.950 . S
C305 C301 1.385 . S
C305 C304 1.374 . S
C306 C303 1.499 . S
C306 C307 1.373 . S
C306 C308 1.389 . S
C307 H286 0.950 . S
C307 C306 1.373 . S
C307 C323 1.377 . S
C308 C306 1.389 . S
C308 C309 1.524 . S
C308 C322 1.377 . S
C309 C308 1.524 . S
C309 C310 1.397 . S
C309 C314 1.363 . S
C310 H287 0.950 . S
C310 C309 1.397 . S
C310 C311 1.334 . S
C311 H288 0.950 . S
C311 C310 1.334 . S
C311 C312 1.287 . S
C312 C311 1.287 . S
C312 C313 1.524 . S
C312 H331 0.913 . S
C313 H289 0.950 . S
C313 C312 1.524 . S
C313 C314 1.415 . S
C314 H290 0.950 . S
C314 C309 1.363 . S
C314 C313 1.415 . S
C315 H291 0.951 . S
C315 C316 1.366 . S
C315 C317 1.388 . S
C316 C315 1.366 . S
C316 C320 1.385 . S
C317 H292 0.951 . S
C317 C315 1.388 . S
C317 C318 1.366 . S
C318 C317 1.366 . S
C318 C319 1.414 . S
C318 C321 1.499 . S
C319 H293 0.950 . S
C319 C318 1.414 . S
C319 C320 1.374 . S
C320 H294 0.950 . S
C320 C316 1.385 . S
C320 C319 1.374 . S
C321 C318 1.499 . S
C321 C322 1.373 . S
C321 C323 1.389 . S
C322 H295 0.950 . S
C322 C308 1.377 . S
C322 C321 1.373 . S
C323 C307 1.377 . S
C323 C321 1.389 . S
C323 C324 1.524 . S
C324 C323 1.524 . S
C324 C325 1.397 . S
C324 C329 1.363 . S
C325 H296 0.950 . S
C325 C324 1.397 . S
C325 C326 1.334 . S
C326 H297 0.950 . S
C326 C325 1.334 . S
C326 C327 1.287 . S
C327 C326 1.287 . S
C327 C328 1.524 . S
C327 H330 0.999 . S
C328 H298 0.950 . S
C328 C327 1.524 . S
C328 C329 1.415 . S
C329 H299 0.950 . S
C329 C324 1.363 . S
C329 C328 1.415 . S
H330 C327 0.999 . S
H331 C312 0.913 . S
H332 C350 0.951 . S
H333 C352 0.951 . S
H334 C354 0.950 . S
H335 C355 0.950 . S
H336 C357 0.950 . S
H337 C360 0.950 . S
H338 C361 0.950 . S
H339 C363 0.950 . S
H340 C364 0.950 . S
H341 C365 0.951 . S
H342 C367 0.951 . S
H343 C369 0.950 . S
H344 C370 0.950 . S
H345 C372 0.950 . S
H346 C375 0.950 . S
H347 C376 0.950 . S
H348 C378 0.950 . S
H349 C379 0.950 . S
C350 H332 0.951 . S
C350 C351 1.366 . S
C350 C352 1.388 . S
C351 C350 1.366 . S
C351 C355 1.385 . S
C352 H333 0.951 . S
C352 C350 1.388 . S
C352 C353 1.366 . S
C353 C352 1.366 . S
C353 C354 1.414 . S
C353 C356 1.499 . S
C354 H334 0.950 . S
C354 C353 1.414 . S
C354 C355 1.374 . S
C355 H335 0.950 . S
C355 C351 1.385 . S
C355 C354 1.374 . S
C356 C353 1.499 . S
C356 C357 1.373 . S
C356 C358 1.389 . S
C357 H336 0.950 . S
C357 C356 1.373 . S
C357 C373 1.377 . S
C358 C356 1.389 . S
C358 C359 1.524 . S
C358 C372 1.377 . S
C359 C358 1.524 . S
C359 C360 1.397 . S
C359 C364 1.363 . S
C360 H337 0.950 . S
C360 C359 1.397 . S
C360 C361 1.334 . S
C361 H338 0.950 . S
C361 C360 1.334 . S
C361 C362 1.287 . S
C362 C361 1.287 . S
C362 C363 1.524 . S
C362 H381 0.913 . S
C363 H339 0.950 . S
C363 C362 1.524 . S
C363 C364 1.415 . S
C364 H340 0.950 . S
C364 C359 1.363 . S
C364 C363 1.415 . S
C365 H341 0.951 . S
C365 C366 1.366 . S
C365 C367 1.388 . S
C366 C365 1.366 . S
C366 C370 1.385 . S
C367 H342 0.951 . S
C367 C365 1.388 . S
C367 C368 1.366 . S
C368 C367 1.366 . S
C368 C369 1.414 . S
C368 C371 1.499 . S
C369 H343 0.950 . S
C369 C368 1.414 . S
C369 C370 1.374 . S
C370 H344 0.950 . S
C370 C366 1.385 . S
C370 C369 1.374 . S
C371 C368 1.499 . S
C371 C372 1.373 . S
C371 C373 1.389 . S
C372 H345 0.950 . S
C372 C358 1.377 . S
C372 C371 1.373 . S
C373 C357 1.377 . S
C373 C371 1.389 . S
C373 C374 1.524 . S
C374 C373 1.524 . S
C374 C375 1.397 . S
C374 C379 1.363 . S
C375 H346 0.950 . S
C375 C374 1.397 . S
C375 C376 1.334 . S
C376 H347 0.950 . S
C376 C375 1.334 . S
C376 C377 1.287 . S
C377 C376 1.287 . S
C377 C378 1.524 . S
C377 H380 0.999 . S
C378 H348 0.950 . S
C378 C377 1.524 . S
C378 C379 1.415 . S
C379 H349 0.950 . S
C379 C374 1.363 . S
C379 C378 1.415 . S
H380 C377 0.999 . S
H381 C362 0.913 . S
H382 C400 0.951 . S
H383 C402 0.951 . S
H384 C404 0.950 . S
H385 C405 0.950 . S
H386 C407 0.950 . S
H387 C410 0.950 . S
H388 C411 0.950 . S
H389 C413 0.950 . S
H390 C414 0.950 . S
H391 C415 0.951 . S
H392 C417 0.951 . S
H393 C419 0.950 . S
H394 C420 0.950 . S
H395 C422 0.950 . S
H396 C425 0.950 . S
H397 C426 0.950 . S
H398 C428 0.950 . S
H399 C429 0.950 . S
C400 H382 0.951 . S
C400 C401 1.366 . S
C400 C402 1.388 . S
C401 C400 1.366 . S
C401 C405 1.385 . S
C402 H383 0.951 . S
C402 C400 1.388 . S
C402 C403 1.366 . S
C403 C402 1.366 . S
C403 C404 1.414 . S
C403 C406 1.499 . S
C404 H384 0.950 . S
C404 C403 1.414 . S
C404 C405 1.374 . S
C405 H385 0.950 . S
C405 C401 1.385 . S
C405 C404 1.374 . S
C406 C403 1.499 . S
C406 C407 1.373 . S
C406 C408 1.389 . S
C407 H386 0.950 . S
C407 C406 1.373 . S
C407 C423 1.377 . S
C408 C406 1.389 . S
C408 C409 1.524 . S
C408 C422 1.377 . S
C409 C408 1.524 . S
C409 C410 1.397 . S
C409 C414 1.363 . S
C410 H387 0.950 . S
C410 C409 1.397 . S
C410 C411 1.334 . S
C411 H388 0.950 . S
C411 C410 1.334 . S
C411 C412 1.287 . S
C412 C411 1.287 . S
C412 C413 1.524 . S
C412 H431 0.913 . S
C413 H389 0.950 . S
C413 C412 1.524 . S
C413 C414 1.415 . S
C414 H390 0.950 . S
C414 C409 1.363 . S
C414 C413 1.415 . S
C415 H391 0.951 . S
C415 C416 1.366 . S
C415 C417 1.388 . S
C416 C415 1.366 . S
C416 C420 1.385 . S
C417 H392 0.951 . S
C417 C415 1.388 . S
C417 C418 1.366 . S
C418 C417 1.366 . S
C418 C419 1.414 . S
C418 C421 1.499 . S
C419 H393 0.950 . S
C419 C418 1.414 . S
C419 C420 1.374 . S
C420 H394 0.950 . S
C420 C416 1.385 . S
C420 C419 1.374 . S
C421 C418 1.499 . S
C421 C422 1.373 . S
C421 C423 1.389 . S
C422 H395 0.950 . S
C422 C408 1.377 . S
C422 C421 1.373 . S
C423 C407 1.377 . S
C423 C421 1.389 . S
C423 C424 1.524 . S
C424 C423 1.524 . S
C424 C425 1.397 . S
C424 C429 1.363 . S
C425 H396 0.950 . S
C425 C424 1.397 . S
C425 C426 1.334 . S
C426 H397 0.950 . S
C426 C425 1.334 . S
C426 C427 1.287 . S
C427 C426 1.287 . S
C427 C428 1.524 . S
C427 H430 0.999 . S
C428 H398 0.950 . S
C428 C427 1.524 . S
C428 C429 1.415 . S
C429 H399 0.950 . S
C429 C424 1.363 . S
C429 C428 1.415 . S
H430 C427 0.999 . S
H431 C412 0.913 . S
H432 C450 0.951 . S
H433 C452 0.951 . S
H434 C454 0.950 . S
H435 C455 0.950 . S
H436 C457 0.950 . S
H437 C460 0.950 . S
H438 C461 0.950 . S
H439 C463 0.950 . S
H440 C464 0.950 . S
H441 C465 0.951 . S
H442 C467 0.951 . S
H443 C469 0.950 . S
H444 C470 0.950 . S
H445 C472 0.950 . S
H446 C475 0.950 . S
H447 C476 0.950 . S
H448 C478 0.950 . S
H449 C479 0.950 . S
C450 H432 0.951 . S
C450 C451 1.366 . S
C450 C452 1.388 . S
C451 C450 1.366 . S
C451 C455 1.385 . S
C452 H433 0.951 . S
C452 C450 1.388 . S
C452 C453 1.366 . S
C453 C452 1.366 . S
C453 C454 1.414 . S
C453 C456 1.499 . S
C454 H434 0.950 . S
C454 C453 1.414 . S
C454 C455 1.374 . S
C455 H435 0.950 . S
C455 C451 1.385 . S
C455 C454 1.374 . S
C456 C453 1.499 . S
C456 C457 1.373 . S
C456 C458 1.389 1_556 S
C457 H436 0.950 . S
C457 C456 1.373 . S
C457 C473 1.377 . S
C458 C456 1.389 1_554 S
C458 C459 1.524 . S
C458 C472 1.377 . S
C459 C458 1.524 . S
C459 C460 1.397 . S
C459 C464 1.363 . S
C460 H437 0.950 . S
C460 C459 1.397 . S
C460 C461 1.334 . S
C461 H438 0.950 . S
C461 C460 1.334 . S
C461 C462 1.287 . S
C462 C461 1.287 . S
C462 C463 1.524 . S
C462 H481 0.913 . S
C463 H439 0.950 . S
C463 C462 1.524 . S
C463 C464 1.415 . S
C464 H440 0.950 . S
C464 C459 1.363 . S
C464 C463 1.415 . S
C465 H441 0.951 . S
C465 C466 1.366 . S
C465 C467 1.388 . S
C466 C465 1.366 . S
C466 C470 1.385 . S
C467 H442 0.951 . S
C467 C465 1.388 . S
C467 C468 1.366 . S
C468 C467 1.366 . S
C468 C469 1.414 . S
C468 C471 1.499 . S
C469 H443 0.950 . S
C469 C468 1.414 . S
C469 C470 1.374 . S
C470 H444 0.950 . S
C470 C466 1.385 . S
C470 C469 1.374 . S
C471 C468 1.499 . S
C471 C472 1.373 . S
C471 C473 1.389 1_554 S
C472 H445 0.950 . S
C472 C458 1.377 . S
C472 C471 1.373 . S
C473 C457 1.377 . S
C473 C471 1.389 1_556 S
C473 C474 1.524 . S
C474 C473 1.524 . S
C474 C475 1.397 . S
C474 C479 1.363 . S
C475 H446 0.950 . S
C475 C474 1.397 . S
C475 C476 1.334 . S
C476 H447 0.950 . S
C476 C475 1.334 . S
C476 C477 1.287 . S
C477 C476 1.287 . S
C477 C478 1.524 . S
C477 H480 0.999 . S
C478 H448 0.950 . S
C478 C477 1.524 . S
C478 C479 1.415 . S
C479 H449 0.950 . S
C479 C474 1.363 . S
C479 C478 1.415 . S
H480 C477 0.999 . S
H481 C462 0.913 . S
H482 C500 0.951 . S
H483 C502 0.951 . S
H484 C504 0.950 . S
H485 C505 0.950 . S
H486 C507 0.950 . S
H487 C510 0.950 . S
H488 C511 0.950 . S
H489 C513 0.950 . S
H490 C514 0.950 . S
H491 C515 0.951 . S
H492 C517 0.951 . S
H493 C519 0.950 . S
H494 C520 0.950 . S
H495 C522 0.950 . S
H496 C525 0.950 . S
H497 C526 0.950 . S
H498 C528 0.950 . S
H499 C529 0.950 . S
C500 H482 0.951 . S
C500 C501 1.366 . S
C500 C502 1.388 . S
C501 C500 1.366 . S
C501 C505 1.385 . S
C502 H483 0.951 . S
C502 C500 1.388 . S
C502 C503 1.366 . S
C503 C502 1.366 . S
C503 C504 1.414 . S
C503 C506 1.499 . S
C504 H484 0.950 . S
C504 C503 1.414 . S
C504 C505 1.374 . S
C505 H485 0.950 . S
C505 C501 1.385 . S
C505 C504 1.374 . S
C506 C503 1.499 . S
C506 C507 1.373 . S
C506 C508 1.389 . S
C507 H486 0.950 . S
C507 C506 1.373 . S
C507 C523 1.377 1_655 S
C508 C506 1.389 . S
C508 C509 1.524 . S
C508 C522 1.377 1_655 S
C509 C508 1.524 . S
C509 C510 1.397 . S
C509 C514 1.363 . S
C510 H487 0.950 . S
C510 C509 1.397 . S
C510 C511 1.334 . S
C511 H488 0.950 . S
C511 C510 1.334 . S
C511 C512 1.287 . S
C512 C511 1.287 . S
C512 C513 1.524 . S
C512 H531 0.913 . S
C513 H489 0.950 . S
C513 C512 1.524 . S
C513 C514 1.415 . S
C514 H490 0.950 . S
C514 C509 1.363 . S
C514 C513 1.415 . S
C515 H491 0.951 . S
C515 C516 1.366 . S
C515 C517 1.388 . S
C516 C515 1.366 . S
C516 C520 1.385 . S
C517 H492 0.951 . S
C517 C515 1.388 . S
C517 C518 1.366 . S
C518 C517 1.366 . S
C518 C519 1.414 . S
C518 C521 1.499 . S
C519 H493 0.950 . S
C519 C518 1.414 . S
C519 C520 1.374 . S
C520 H494 0.950 . S
C520 C516 1.385 . S
C520 C519 1.374 . S
C521 C518 1.499 . S
C521 C522 1.373 . S
C521 C523 1.389 . S
C522 H495 0.950 . S
C522 C508 1.377 1_455 S
C522 C521 1.373 . S
C523 C507 1.377 1_455 S
C523 C521 1.389 . S
C523 C524 1.524 . S
C524 C523 1.524 . S
C524 C525 1.397 . S
C524 C529 1.363 . S
C525 H496 0.950 . S
C525 C524 1.397 . S
C525 C526 1.334 . S
C526 H497 0.950 . S
C526 C525 1.334 . S
C526 C527 1.287 . S
C527 C526 1.287 . S
C527 C528 1.524 . S
C527 H530 0.999 . S
C528 H498 0.950 . S
C528 C527 1.524 . S
C528 C529 1.415 . S
C529 H499 0.950 . S
C529 C524 1.363 . S
C529 C528 1.415 . S
H530 C527 0.999 . S
H531 C512 0.913 . S
H532 C550 0.951 . S
H533 C552 0.951 . S
H534 C554 0.950 . S
H535 C555 0.950 . S
H536 C557 0.950 . S
H537 C560 0.950 . S
H538 C561 0.950 . S
H539 C563 0.950 . S
H540 C564 0.950 . S
H541 C565 0.951 . S
H542 C567 0.951 . S
H543 C569 0.950 . S
H544 C570 0.950 . S
H545 C572 0.950 . S
H546 C575 0.950 . S
H547 C576 0.950 . S
H548 C578 0.950 . S
H549 C579 0.950 . S
C550 H532 0.951 . S
C550 C551 1.366 . S
C550 C552 1.388 . S
C551 C550 1.366 . S
C551 C555 1.385 . S
C552 H533 0.951 . S
C552 C550 1.388 . S
C552 C553 1.366 . S
C553 C552 1.366 . S
C553 C554 1.414 . S
C553 C556 1.499 . S
C554 H534 0.950 . S
C554 C553 1.414 . S
C554 C555 1.374 . S
C555 H535 0.950 . S
C555 C551 1.385 . S
C555 C554 1.374 . S
C556 C553 1.499 . S
C556 C557 1.373 1_556 S
C556 C558 1.389 . S
C557 H536 0.950 . S
C557 C556 1.373 1_554 S
C557 C573 1.377 1_545 S
C558 C556 1.389 . S
C558 C559 1.524 . S
C558 C572 1.377 1_545 S
C559 C558 1.524 . S
C559 C560 1.397 . S
C559 C564 1.363 1_545 S
C560 H537 0.950 . S
C560 C559 1.397 . S
C560 C561 1.334 . S
C561 H538 0.950 . S
C561 C560 1.334 . S
C561 C562 1.287 . S
C562 C561 1.287 . S
C562 C563 1.524 1_545 S
C562 H581 0.913 . S
C563 H539 0.950 . S
C563 C562 1.524 1_565 S
C563 C564 1.415 . S
C564 H540 0.950 . S
C564 C559 1.363 1_565 S
C564 C563 1.415 . S
C565 H541 0.951 . S
C565 C566 1.366 . S
C565 C567 1.388 . S
C566 C565 1.366 . S
C566 C570 1.385 . S
C567 H542 0.951 . S
C567 C565 1.388 . S
C567 C568 1.366 . S
C568 C567 1.366 . S
C568 C569 1.414 . S
C568 C571 1.499 . S
C569 H543 0.950 . S
C569 C568 1.414 . S
C569 C570 1.374 . S
C570 H544 0.950 . S
C570 C566 1.385 . S
C570 C569 1.374 . S
C571 C568 1.499 . S
C571 C572 1.373 1_554 S
C571 C573 1.389 . S
C572 H545 0.950 . S
C572 C558 1.377 1_565 S
C572 C571 1.373 1_556 S
C573 C557 1.377 1_565 S
C573 C571 1.389 . S
C573 C574 1.524 . S
C574 C573 1.524 . S
C574 C575 1.397 . S
C574 C579 1.363 1_565 S
C575 H546 0.950 . S
C575 C574 1.397 . S
C575 C576 1.334 . S
C576 H547 0.950 . S
C576 C575 1.334 . S
C576 C577 1.287 . S
C577 C576 1.287 . S
C577 C578 1.524 1_565 S
C577 H580 0.999 . S
C578 H548 0.950 . S
C578 C577 1.524 1_545 S
C578 C579 1.415 . S
C579 H549 0.950 . S
C579 C574 1.363 1_545 S
C579 C578 1.415 . S
H580 C577 0.999 . S
H581 C562 0.913 . S
H582 C600 0.951 . S
H583 C602 0.951 . S
H584 C604 0.950 . S
H585 C605 0.950 . S
H586 C607 0.950 . S
H587 C610 0.950 . S
H588 C611 0.950 . S
H589 C613 0.950 . S
H590 C614 0.950 . S
H591 C615 0.951 . S
H592 C617 0.951 . S
H593 C619 0.950 . S
H594 C620 0.950 . S
H595 C622 0.950 . S
H596 C625 0.950 . S
H597 C626 0.950 . S
H598 C628 0.950 . S
H599 C629 0.950 . S
C600 H582 0.951 . S
C600 C601 1.366 . S
C600 C602 1.388 . S
C601 C600 1.366 . S
C601 C605 1.385 . S
C602 H583 0.951 . S
C602 C600 1.388 . S
C602 C603 1.366 . S
C603 C602 1.366 . S
C603 C604 1.414 . S
C603 C606 1.499 . S
C604 H584 0.950 . S
C604 C603 1.414 . S
C604 C605 1.374 . S
C605 H585 0.950 . S
C605 C601 1.385 . S
C605 C604 1.374 . S
C606 C603 1.499 . S
C606 C607 1.373 . S
C606 C608 1.389 . S
C607 H586 0.950 . S
C607 C606 1.373 . S
C607 C623 1.377 . S
C608 C606 1.389 . S
C608 C609 1.524 . S
C608 C622 1.377 . S
C609 C608 1.524 . S
C609 C610 1.397 . S
C609 C614 1.363 . S
C610 H587 0.950 . S
C610 C609 1.397 . S
C610 C611 1.334 . S
C611 H588 0.950 . S
C611 C610 1.334 . S
C611 C612 1.287 . S
C612 C611 1.287 . S
C612 C613 1.524 . S
C612 H631 0.913 . S
C613 H589 0.950 . S
C613 C612 1.524 . S
C613 C614 1.415 . S
C614 H590 0.950 . S
C614 C609 1.363 . S
C614 C613 1.415 . S
C615 H591 0.951 . S
C615 C616 1.366 . S
C615 C617 1.388 . S
C616 C615 1.366 . S
C616 C620 1.385 . S
C617 H592 0.951 . S
C617 C615 1.388 . S
C617 C618 1.366 . S
C618 C617 1.366 . S
C618 C619 1.414 . S
C618 C621 1.499 . S
C619 H593 0.950 . S
C619 C618 1.414 . S
C619 C620 1.374 . S
C620 H594 0.950 . S
C620 C616 1.385 . S
C620 C619 1.374 . S
C621 C618 1.499 . S
C621 C622 1.373 . S
C621 C623 1.389 . S
C622 H595 0.950 . S
C622 C608 1.377 . S
C622 C621 1.373 . S
C623 C607 1.377 . S
C623 C621 1.389 . S
C623 C624 1.524 . S
C624 C623 1.524 . S
C624 C625 1.397 . S
C624 C629 1.363 . S
C625 H596 0.950 . S
C625 C624 1.397 . S
C625 C626 1.334 . S
C626 H597 0.950 . S
C626 C625 1.334 . S
C626 C627 1.287 . S
C627 C626 1.287 . S
C627 C628 1.524 . S
C627 H630 0.999 . S
C628 H598 0.950 . S
C628 C627 1.524 . S
C628 C629 1.415 . S
C629 H599 0.950 . S
C629 C624 1.363 . S
C629 C628 1.415 . S
H630 C627 0.999 . S
H631 C612 0.913 . S
H632 C650 0.951 . S
H633 C652 0.951 . S
H634 C654 0.950 . S
H635 C655 0.950 . S
H636 C657 0.950 . S
H637 C660 0.950 . S
H638 C661 0.950 . S
H639 C663 0.950 1_455 S
H640 C664 0.950 . S
H641 C665 0.951 . S
H642 C667 0.951 . S
H643 C669 0.950 . S
H644 C670 0.950 . S
H645 C672 0.950 . S
H646 C675 0.950 . S
H647 C676 0.950 . S
H648 C678 0.950 1_655 S
H649 C679 0.950 . S
C650 H632 0.951 . S
C650 C651 1.366 . S
C650 C652 1.388 . S
C651 C650 1.366 . S
C651 C655 1.385 . S
C652 H633 0.951 . S
C652 C650 1.388 . S
C652 C653 1.366 . S
C653 C652 1.366 . S
C653 C654 1.414 . S
C653 C656 1.499 . S
C654 H634 0.950 . S
C654 C653 1.414 . S
C654 C655 1.374 . S
C655 H635 0.950 . S
C655 C651 1.385 . S
C655 C654 1.374 . S
C656 C653 1.499 . S
C656 C657 1.373 . S
C656 C658 1.389 . S
C657 H636 0.950 . S
C657 C656 1.373 . S
C657 C673 1.377 1_656 S
C658 C656 1.389 . S
C658 C659 1.524 . S
C658 C672 1.377 1_656 S
C659 C658 1.524 . S
C659 C660 1.397 . S
C659 C664 1.363 1_655 S
C660 H637 0.950 . S
C660 C659 1.397 . S
C660 C661 1.334 . S
C661 H638 0.950 . S
C661 C660 1.334 . S
C661 C662 1.287 . S
C662 C661 1.287 . S
C662 C663 1.524 . S
C662 H681 0.913 . S
C663 H639 0.950 1_655 S
C663 C662 1.524 . S
C663 C664 1.415 1_655 S
C664 H640 0.950 . S
C664 C659 1.363 1_455 S
C664 C663 1.415 1_455 S
C665 H641 0.951 . S
C665 C666 1.366 . S
C665 C667 1.388 . S
C666 C665 1.366 . S
C666 C670 1.385 . S
C667 H642 0.951 . S
C667 C665 1.388 . S
C667 C668 1.366 . S
C668 C667 1.366 . S
C668 C669 1.414 . S
C668 C671 1.499 . S
C669 H643 0.950 . S
C669 C668 1.414 . S
C669 C670 1.374 . S
C670 H644 0.950 . S
C670 C666 1.385 . S
C670 C669 1.374 . S
C671 C668 1.499 . S
C671 C672 1.373 . S
C671 C673 1.389 . S
C672 H645 0.950 . S
C672 C658 1.377 1_454 S
C672 C671 1.373 . S
C673 C657 1.377 1_454 S
C673 C671 1.389 . S
C673 C674 1.524 . S
C674 C673 1.524 . S
C674 C675 1.397 . S
C674 C679 1.363 1_455 S
C675 H646 0.950 . S
C675 C674 1.397 . S
C675 C676 1.334 . S
C676 H647 0.950 . S
C676 C675 1.334 . S
C676 C677 1.287 . S
C677 C676 1.287 . S
C677 C678 1.524 . S
C677 H680 0.999 . S
C678 H648 0.950 1_455 S
C678 C677 1.524 . S
C678 C679 1.415 1_455 S
C679 H649 0.950 . S
C679 C674 1.363 1_655 S
C679 C678 1.415 1_655 S
H680 C677 0.999 . S
H681 C662 0.913 . S
H682 C700 0.951 . S
H683 C702 0.951 . S
H684 C704 0.950 . S
H685 C705 0.950 . S
H686 C707 0.950 . S
H687 C710 0.950 . S
H688 C711 0.950 . S
H689 C713 0.950 . S
H690 C714 0.950 . S
H691 C715 0.951 . S
H692 C717 0.951 . S
H693 C719 0.950 . S
H694 C720 0.950 . S
H695 C722 0.950 . S
H696 C725 0.950 . S
H697 C726 0.950 . S
H698 C728 0.950 . S
H699 C729 0.950 . S
C700 H682 0.951 . S
C700 C701 1.366 . S
C700 C702 1.388 . S
C701 C700 1.366 . S
C701 C705 1.385 . S
C702 H683 0.951 . S
C702 C700 1.388 . S
C702 C703 1.366 . S
C703 C702 1.366 . S
C703 C704 1.414 . S
C703 C706 1.499 . S
C704 H684 0.950 . S
C704 C703 1.414 . S
C704 C705 1.374 . S
C705 H685 0.950 . S
C705 C701 1.385 . S
C705 C704 1.374 . S
C706 C703 1.499 . S
C706 C707 1.373 1_545 S
C706 C708 1.389 . S
C707 H686 0.950 . S
C707 C706 1.373 1_565 S
C707 C723 1.377 . S
C708 C706 1.389 . S
C708 C709 1.524 . S
C708 C722 1.377 . S
C709 C708 1.524 . S
C709 C710 1.397 . S
C709 C714 1.363 . S
C710 H687 0.950 . S
C710 C709 1.397 . S
C710 C711 1.334 . S
C711 H688 0.950 . S
C711 C710 1.334 . S
C711 C712 1.287 . S
C712 C711 1.287 . S
C712 C713 1.524 . S
C712 H731 0.913 . S
C713 H689 0.950 . S
C713 C712 1.524 . S
C713 C714 1.415 . S
C714 H690 0.950 . S
C714 C709 1.363 . S
C714 C713 1.415 . S
C715 H691 0.951 . S
C715 C716 1.366 . S
C715 C717 1.388 . S
C716 C715 1.366 . S
C716 C720 1.385 . S
C717 H692 0.951 . S
C717 C715 1.388 . S
C717 C718 1.366 . S
C718 C717 1.366 . S
C718 C719 1.414 . S
C718 C721 1.499 . S
C719 H693 0.950 . S
C719 C718 1.414 . S
C719 C720 1.374 . S
C720 H694 0.950 . S
C720 C716 1.385 . S
C720 C719 1.374 . S
C721 C718 1.499 . S
C721 C722 1.373 1_565 S
C721 C723 1.389 . S
C722 H695 0.950 . S
C722 C708 1.377 . S
C722 C721 1.373 1_545 S
C723 C707 1.377 . S
C723 C721 1.389 . S
C723 C724 1.524 . S
C724 C723 1.524 . S
C724 C725 1.397 . S
C724 C729 1.363 . S
C725 H696 0.950 . S
C725 C724 1.397 . S
C725 C726 1.334 . S
C726 H697 0.950 . S
C726 C725 1.334 . S
C726 C727 1.287 . S
C727 C726 1.287 . S
C727 C728 1.524 . S
C727 H730 0.999 . S
C728 H698 0.950 . S
C728 C727 1.524 . S
C728 C729 1.415 . S
C729 H699 0.950 . S
C729 C724 1.363 . S
C729 C728 1.415 . S
H730 C727 0.999 . S
H731 C712 0.913 . S
H732 C750 0.951 . S
H733 C752 0.951 . S
H734 C754 0.950 . S
H735 C755 0.950 . S
H736 C757 0.950 . S
H737 C760 0.950 . S
H738 C761 0.950 . S
H739 C763 0.950 . S
H740 C764 0.950 . S
H741 C765 0.951 . S
H742 C767 0.951 . S
H743 C769 0.950 . S
H744 C770 0.950 . S
H745 C772 0.950 . S
H746 C775 0.950 . S
H747 C776 0.950 . S
H748 C778 0.950 . S
H749 C779 0.950 . S
C750 H732 0.951 . S
C750 C751 1.366 . S
C750 C752 1.388 . S
C751 C750 1.366 . S
C751 C755 1.385 . S
C752 H733 0.951 . S
C752 C750 1.388 . S
C752 C753 1.366 . S
C753 C752 1.366 . S
C753 C754 1.414 . S
C753 C756 1.499 . S
C754 H734 0.950 . S
C754 C753 1.414 . S
C754 C755 1.374 . S
C755 H735 0.950 . S
C755 C751 1.385 . S
C755 C754 1.374 . S
C756 C753 1.499 . S
C756 C757 1.373 1_554 S
C756 C758 1.389 . S
C757 H736 0.950 . S
C757 C756 1.373 1_556 S
C757 C773 1.377 . S
C758 C756 1.389 . S
C758 C759 1.524 . S
C758 C772 1.377 . S
C759 C758 1.524 . S
C759 C760 1.397 . S
C759 C764 1.363 . S
C760 H737 0.950 . S
C760 C759 1.397 . S
C760 C761 1.334 . S
C761 H738 0.950 . S
C761 C760 1.334 . S
C761 C762 1.287 . S
C762 C761 1.287 . S
C762 C763 1.524 . S
C762 H781 0.913 . S
C763 H739 0.950 . S
C763 C762 1.524 . S
C763 C764 1.415 . S
C764 H740 0.950 . S
C764 C759 1.363 . S
C764 C763 1.415 . S
C765 H741 0.951 . S
C765 C766 1.366 . S
C765 C767 1.388 . S
C766 C765 1.366 . S
C766 C770 1.385 . S
C767 H742 0.951 . S
C767 C765 1.388 . S
C767 C768 1.366 . S
C768 C767 1.366 . S
C768 C769 1.414 . S
C768 C771 1.499 . S
C769 H743 0.950 . S
C769 C768 1.414 . S
C769 C770 1.374 . S
C770 H744 0.950 . S
C770 C766 1.385 . S
C770 C769 1.374 . S
C771 C768 1.499 . S
C771 C772 1.373 1_556 S
C771 C773 1.389 . S
C772 H745 0.950 . S
C772 C758 1.377 . S
C772 C771 1.373 1_554 S
C773 C757 1.377 . S
C773 C771 1.389 . S
C773 C774 1.524 . S
C774 C773 1.524 . S
C774 C775 1.397 . S
C774 C779 1.363 . S
C775 H746 0.950 . S
C775 C774 1.397 . S
C775 C776 1.334 . S
C776 H747 0.950 . S
C776 C775 1.334 . S
C776 C777 1.287 . S
C777 C776 1.287 . S
C777 C778 1.524 . S
C777 H780 0.999 . S
C778 H748 0.950 . S
C778 C777 1.524 . S
C778 C779 1.415 . S
C779 H749 0.950 . S
C779 C774 1.363 . S
C779 C778 1.415 . S
H780 C777 0.999 . S
H781 C762 0.913 . S
H782 C800 0.951 . S
H783 C802 0.951 . S
H784 C804 0.950 . S
H785 C805 0.950 . S
H786 C807 0.950 . S
H787 C810 0.950 . S
H788 C811 0.950 . S
H789 C813 0.950 . S
H790 C814 0.950 . S
H791 C815 0.951 . S
H792 C817 0.951 . S
H793 C819 0.950 . S
H794 C820 0.950 . S
H795 C822 0.950 . S
H796 C825 0.950 . S
H797 C826 0.950 . S
H798 C828 0.950 . S
H799 C829 0.950 . S
C800 H782 0.951 . S
C800 C801 1.366 . S
C800 C802 1.388 . S
C801 C800 1.366 . S
C801 C805 1.385 . S
C802 H783 0.951 . S
C802 C800 1.388 . S
C802 C803 1.366 . S
C803 C802 1.366 . S
C803 C804 1.414 . S
C803 C806 1.499 . S
C804 H784 0.950 . S
C804 C803 1.414 . S
C804 C805 1.374 . S
C805 H785 0.950 . S
C805 C801 1.385 . S
C805 C804 1.374 . S
C806 C803 1.499 . S
C806 C807 1.373 . S
C806 C808 1.389 . S
C807 H786 0.950 . S
C807 C806 1.373 . S
C807 C823 1.377 1_655 S
C808 C806 1.389 . S
C808 C809 1.524 . S
C808 C822 1.377 1_655 S
C809 C808 1.524 . S
C809 C810 1.397 . S
C809 C814 1.363 1_655 S
C810 H787 0.950 . S
C810 C809 1.397 . S
C810 C811 1.334 . S
C811 H788 0.950 . S
C811 C810 1.334 . S
C811 C812 1.287 . S
C812 C811 1.287 . S
C812 C813 1.524 1_655 S
C812 H831 0.913 . S
C813 H789 0.950 . S
C813 C812 1.524 1_455 S
C813 C814 1.415 . S
C814 H790 0.950 . S
C814 C809 1.363 1_455 S
C814 C813 1.415 . S
C815 H791 0.951 . S
C815 C816 1.366 . S
C815 C817 1.388 . S
C816 C815 1.366 . S
C816 C820 1.385 . S
C817 H792 0.951 . S
C817 C815 1.388 . S
C817 C818 1.366 . S
C818 C817 1.366 . S
C818 C819 1.414 . S
C818 C821 1.499 . S
C819 H793 0.950 . S
C819 C818 1.414 . S
C819 C820 1.374 . S
C820 H794 0.950 . S
C820 C816 1.385 . S
C820 C819 1.374 . S
C821 C818 1.499 . S
C821 C822 1.373 . S
C821 C823 1.389 . S
C822 H795 0.950 . S
C822 C808 1.377 1_455 S
C822 C821 1.373 . S
C823 C807 1.377 1_455 S
C823 C821 1.389 . S
C823 C824 1.524 . S
C824 C823 1.524 . S
C824 C825 1.397 . S
C824 C829 1.363 1_455 S
C825 H796 0.950 . S
C825 C824 1.397 . S
C825 C826 1.334 . S
C826 H797 0.950 . S
C826 C825 1.334 . S
C826 C827 1.287 . S
C827 C826 1.287 . S
C827 C828 1.524 1_455 S
C827 H830 0.999 . S
C828 H798 0.950 . S
C828 C827 1.524 1_655 S
C828 C829 1.415 . S
C829 H799 0.950 . S
C829 C824 1.363 1_655 S
C829 C828 1.415 . S
H830 C827 0.999 . S
H831 C812 0.913 . S
H832 C850 0.951 . S
H833 C852 0.951 . S
H834 C854 0.950 . S
H835 C855 0.950 . S
H836 C857 0.950 . S
H837 C860 0.950 . S
H838 C861 0.950 . S
H839 C863 0.950 . S
H840 C864 0.950 . S
H841 C865 0.951 . S
H842 C867 0.951 . S
H843 C869 0.950 . S
H844 C870 0.950 . S
H845 C872 0.950 . S
H846 C875 0.950 . S
H847 C876 0.950 . S
H848 C878 0.950 . S
H849 C879 0.950 . S
C850 H832 0.951 . S
C850 C851 1.366 . S
C850 C852 1.388 . S
C851 C850 1.366 . S
C851 C855 1.385 . S
C852 H833 0.951 . S
C852 C850 1.388 . S
C852 C853 1.366 . S
C853 C852 1.366 . S
C853 C854 1.414 . S
C853 C856 1.499 . S
C854 H834 0.950 . S
C854 C853 1.414 . S
C854 C855 1.374 . S
C855 H835 0.950 . S
C855 C851 1.385 . S
C855 C854 1.374 . S
C856 C853 1.499 . S
C856 C857 1.373 1_554 S
C856 C858 1.389 1_565 S
C857 H836 0.950 . S
C857 C856 1.373 1_556 S
C857 C873 1.377 . S
C858 C856 1.389 1_545 S
C858 C859 1.524 . S
C858 C872 1.377 . S
C859 C858 1.524 . S
C859 C860 1.397 1_545 S
C859 C864 1.363 . S
C860 H837 0.950 . S
C860 C859 1.397 1_565 S
C860 C861 1.334 . S
C861 H838 0.950 . S
C861 C860 1.334 . S
C861 C862 1.287 1_565 S
C862 C861 1.287 1_545 S
C862 C863 1.524 . S
C862 H881 0.913 . S
C863 H839 0.950 . S
C863 C862 1.524 . S
C863 C864 1.415 . S
C864 H840 0.950 . S
C864 C859 1.363 . S
C864 C863 1.415 . S
C865 H841 0.951 . S
C865 C866 1.366 . S
C865 C867 1.388 . S
C866 C865 1.366 . S
C866 C870 1.385 . S
C867 H842 0.951 . S
C867 C865 1.388 . S
C867 C868 1.366 . S
C868 C867 1.366 . S
C868 C869 1.414 . S
C868 C871 1.499 . S
C869 H843 0.950 . S
C869 C868 1.414 . S
C869 C870 1.374 . S
C870 H844 0.950 . S
C870 C866 1.385 . S
C870 C869 1.374 . S
C871 C868 1.499 . S
C871 C872 1.373 1_556 S
C871 C873 1.389 1_545 S
C872 H845 0.950 . S
C872 C858 1.377 . S
C872 C871 1.373 1_554 S
C873 C857 1.377 . S
C873 C871 1.389 1_565 S
C873 C874 1.524 . S
C874 C873 1.524 . S
C874 C875 1.397 1_565 S
C874 C879 1.363 . S
C875 H846 0.950 . S
C875 C874 1.397 1_545 S
C875 C876 1.334 . S
C876 H847 0.950 . S
C876 C875 1.334 . S
C876 C877 1.287 1_545 S
C877 C876 1.287 1_565 S
C877 C878 1.524 . S
C877 H880 0.999 . S
C878 H848 0.950 . S
C878 C877 1.524 . S
C878 C879 1.415 . S
C879 H849 0.950 . S
C879 C874 1.363 . S
C879 C878 1.415 . S
H880 C877 0.999 . S
H881 C862 0.913 . S
H882 C900 0.951 . S
H883 C902 0.951 . S
H884 C904 0.950 . S
H885 C905 0.950 . S
H886 C907 0.950 . S
H887 C910 0.950 . S
H888 C911 0.950 . S
H889 C913 0.950 . S
H890 C914 0.950 . S
H891 C915 0.951 . S
H892 C917 0.951 . S
H893 C919 0.950 . S
H894 C920 0.950 . S
H895 C922 0.950 . S
H896 C925 0.950 . S
H897 C926 0.950 . S
H898 C928 0.950 . S
H899 C929 0.950 . S
C900 H882 0.951 . S
C900 C901 1.366 . S
C900 C902 1.388 . S
C901 C900 1.366 . S
C901 C905 1.385 . S
C902 H883 0.951 . S
C902 C900 1.388 . S
C902 C903 1.366 . S
C903 C902 1.366 . S
C903 C904 1.414 . S
C903 C906 1.499 . S
C904 H884 0.950 . S
C904 C903 1.414 . S
C904 C905 1.374 . S
C905 H885 0.950 . S
C905 C901 1.385 . S
C905 C904 1.374 . S
C906 C903 1.499 . S
C906 C907 1.373 . S
C906 C908 1.389 . S
C907 H886 0.950 . S
C907 C906 1.373 . S
C907 C923 1.377 . S
C908 C906 1.389 . S
C908 C909 1.524 . S
C908 C922 1.377 . S
C909 C908 1.524 . S
C909 C910 1.397 . S
C909 C914 1.363 . S
C910 H887 0.950 . S
C910 C909 1.397 . S
C910 C911 1.334 . S
C911 H888 0.950 . S
C911 C910 1.334 . S
C911 C912 1.287 . S
C912 C911 1.287 . S
C912 C913 1.524 . S
C912 H931 0.913 . S
C913 H889 0.950 . S
C913 C912 1.524 . S
C913 C914 1.415 . S
C914 H890 0.950 . S
C914 C909 1.363 . S
C914 C913 1.415 . S
C915 H891 0.951 . S
C915 C916 1.366 . S
C915 C917 1.388 . S
C916 C915 1.366 . S
C916 C920 1.385 . S
C917 H892 0.951 . S
C917 C915 1.388 . S
C917 C918 1.366 . S
C918 C917 1.366 . S
C918 C919 1.414 . S
C918 C921 1.499 . S
C919 H893 0.950 . S
C919 C918 1.414 . S
C919 C920 1.374 . S
C920 H894 0.950 . S
C920 C916 1.385 . S
C920 C919 1.374 . S
C921 C918 1.499 . S
C921 C922 1.373 . S
C921 C923 1.389 . S
C922 H895 0.950 . S
C922 C908 1.377 . S
C922 C921 1.373 . S
C923 C907 1.377 . S
C923 C921 1.389 . S
C923 C924 1.524 . S
C924 C923 1.524 . S
C924 C925 1.397 . S
C924 C929 1.363 . S
C925 H896 0.950 . S
C925 C924 1.397 . S
C925 C926 1.334 . S
C926 H897 0.950 . S
C926 C925 1.334 . S
C926 C927 1.287 . S
C927 C926 1.287 . S
C927 C928 1.524 . S
C927 H930 0.999 . S
C928 H898 0.950 . S
C928 C927 1.524 . S
C928 C929 1.415 . S
C929 H899 0.950 . S
C929 C924 1.363 . S
C929 C928 1.415 . S
H930 C927 0.999 . S
H931 C912 0.913 . S
H932 C950 0.951 . S
H933 C952 0.951 . S
H934 C954 0.950 . S
H935 C955 0.950 . S
H936 C957 0.950 . S
H937 C960 0.950 . S
H938 C961 0.950 . S
H939 C963 0.950 . S
H940 C964 0.950 . S
H941 C965 0.951 . S
H942 C967 0.951 . S
H943 C969 0.950 . S
H944 C970 0.950 . S
H945 C972 0.950 . S
H946 C975 0.950 . S
H947 C976 0.950 . S
H948 C978 0.950 . S
H949 C979 0.950 . S
C950 H932 0.951 . S
C950 C951 1.366 . S
C950 C952 1.388 . S
C951 C950 1.366 . S
C951 C955 1.385 . S
C952 H933 0.951 . S
C952 C950 1.388 . S
C952 C953 1.366 . S
C953 C952 1.366 . S
C953 C954 1.414 . S
C953 C956 1.499 . S
C954 H934 0.950 . S
C954 C953 1.414 . S
C954 C955 1.374 . S
C955 H935 0.950 . S
C955 C951 1.385 . S
C955 C954 1.374 . S
C956 C953 1.499 . S
C956 C957 1.373 . S
C956 C958 1.389 . S
C957 H936 0.950 . S
C957 C956 1.373 . S
C957 C973 1.377 1_656 S
C958 C956 1.389 . S
C958 C959 1.524 . S
C958 C972 1.377 1_656 S
C959 C958 1.524 . S
C959 C960 1.397 . S
C959 C964 1.363 1_556 S
C960 H937 0.950 . S
C960 C959 1.397 . S
C960 C961 1.334 . S
C961 H938 0.950 . S
C961 C960 1.334 . S
C961 C962 1.287 . S
C962 C961 1.287 . S
C962 C963 1.524 1_556 S
C962 H981 0.913 . S
C963 H939 0.950 . S
C963 C962 1.524 1_554 S
C963 C964 1.415 . S
C964 H940 0.950 . S
C964 C959 1.363 1_554 S
C964 C963 1.415 . S
C965 H941 0.951 . S
C965 C966 1.366 . S
C965 C967 1.388 . S
C966 C965 1.366 . S
C966 C970 1.385 . S
C967 H942 0.951 . S
C967 C965 1.388 . S
C967 C968 1.366 . S
C968 C967 1.366 . S
C968 C969 1.414 . S
C968 C971 1.499 . S
C969 H943 0.950 . S
C969 C968 1.414 . S
C969 C970 1.374 . S
C970 H944 0.950 . S
C970 C966 1.385 . S
C970 C969 1.374 . S
C971 C968 1.499 . S
C971 C972 1.373 . S
C971 C973 1.389 . S
C972 H945 0.950 . S
C972 C958 1.377 1_454 S
C972 C971 1.373 . S
C973 C957 1.377 1_454 S
C973 C971 1.389 . S
C973 C974 1.524 . S
C974 C973 1.524 . S
C974 C975 1.397 . S
C974 C979 1.363 1_554 S
C975 H946 0.950 . S
C975 C974 1.397 . S
C975 C976 1.334 . S
C976 H947 0.950 . S
C976 C975 1.334 . S
C976 C977 1.287 . S
C977 C976 1.287 . S
C977 C978 1.524 1_554 S
C977 H980 0.999 . S
C978 H948 0.950 . S
C978 C977 1.524 1_556 S
C978 C979 1.415 . S
C979 H949 0.950 . S
C979 C974 1.363 1_556 S
C979 C978 1.415 . S
H980 C977 0.999 . S
H981 C962 0.913 . S
H982 C1000 0.951 . S
H983 C1002 0.951 . S
H984 C1004 0.950 . S
H985 C1005 0.950 . S
H986 C1007 0.950 . S
H987 C1010 0.950 . S
H988 C1011 0.950 . S
H989 C1013 0.950 . S
H990 C1014 0.950 1_545 S
H991 C1015 0.951 . S
H992 C1017 0.951 . S
H993 C1019 0.950 . S
H994 C1020 0.950 . S
H995 C1022 0.950 . S
H996 C1025 0.950 . S
H997 C1026 0.950 . S
H998 C1028 0.950 . S
H999 C1029 0.950 1_565 S
C1000 H982 0.951 . S
C1000 C1001 1.366 . S
C1000 C1002 1.388 . S
C1001 C1000 1.366 . S
C1001 C1005 1.385 . S
C1002 H983 0.951 . S
C1002 C1000 1.388 . S
C1002 C1003 1.366 . S
C1003 C1002 1.366 . S
C1003 C1004 1.414 . S
C1003 C1006 1.499 . S
C1004 H984 0.950 . S
C1004 C1003 1.414 . S
C1004 C1005 1.374 . S
C1005 H985 0.950 . S
C1005 C1001 1.385 . S
C1005 C1004 1.374 . S
C1006 C1003 1.499 . S
C1006 C1007 1.373 . S
C1006 C1008 1.389 . S
C1007 H986 0.950 . S
C1007 C1006 1.373 . S
C1007 C1023 1.377 1_565 S
C1008 C1006 1.389 . S
C1008 C1009 1.524 . S
C1008 C1022 1.377 1_565 S
C1009 C1008 1.524 . S
C1009 C1010 1.397 . S
C1009 C1014 1.363 . S
C1010 H987 0.950 . S
C1010 C1009 1.397 . S
C1010 C1011 1.334 . S
C1011 H988 0.950 . S
C1011 C1010 1.334 . S
C1011 C1012 1.287 . S
C1012 C1011 1.287 . S
C1012 C1013 1.524 . S
C1012 H1031 0.913 . S
C1013 H989 0.950 . S
C1013 C1012 1.524 . S
C1013 C1014 1.415 . S
C1014 H990 0.950 1_565 S
C1014 C1009 1.363 . S
C1014 C1013 1.415 . S
C1015 H991 0.951 . S
C1015 C1016 1.366 . S
C1015 C1017 1.388 . S
C1016 C1015 1.366 . S
C1016 C1020 1.385 . S
C1017 H992 0.951 . S
C1017 C1015 1.388 . S
C1017 C1018 1.366 . S
C1018 C1017 1.366 . S
C1018 C1019 1.414 . S
C1018 C1021 1.499 . S
C1019 H993 0.950 . S
C1019 C1018 1.414 . S
C1019 C1020 1.374 . S
C1020 H994 0.950 . S
C1020 C1016 1.385 . S
C1020 C1019 1.374 . S
C1021 C1018 1.499 . S
C1021 C1022 1.373 . S
C1021 C1023 1.389 . S
C1022 H995 0.950 . S
C1022 C1008 1.377 1_545 S
C1022 C1021 1.373 . S
C1023 C1007 1.377 1_545 S
C1023 C1021 1.389 . S
C1023 C1024 1.524 . S
C1024 C1023 1.524 . S
C1024 C1025 1.397 . S
C1024 C1029 1.363 . S
C1025 H996 0.950 . S
C1025 C1024 1.397 . S
C1025 C1026 1.334 . S
C1026 H997 0.950 . S
C1026 C1025 1.334 . S
C1026 C1027 1.287 . S
C1027 C1026 1.287 . S
C1027 C1028 1.524 . S
C1027 H1030 0.999 . S
C1028 H998 0.950 . S
C1028 C1027 1.524 . S
C1028 C1029 1.415 . S
C1029 H999 0.950 1_545 S
C1029 C1024 1.363 . S
C1029 C1028 1.415 . S
H1030 C1027 0.999 . S
H1031 C1012 0.913 . S
C151 C5 1.294 . S
C166 C94 1.294 . S
C201 C28 1.294 . S
C216 C116 1.294 . S
C251 C7 1.294 . S
C266 C50 1.294 . S
C301 C72 1.295 . S
C316 C31 1.294 . S
C351 C53 1.294 . S
C366 C97 1.295 . S
C401 C75 1.294 . S
C416 C119 1.294 . S
C451 C117 1.578 . S
C466 C8 1.578 . S
C501 C29 1.578 . S
C516 C6 1.578 . S
C551 C26 1.578 . S
C566 C51 1.578 . S
C601 C48 1.578 . S
C616 C73 1.578 . S
C651 C70 1.578 . S
C666 C92 1.578 . S
C701 C114 1.578 . S
C716 C95 1.578 . S
C751 C49 1.578 . S
C766 C74 1.578 . S
C801 C71 1.578 . S
C816 C93 1.578 . S
C851 C96 1.578 . S
C866 C115 1.578 . S
C901 C118 1.578 . S
C916 C9 1.578 . S
C951 C30 1.578 . S
C966 C4 1.578 . S
C1001 C52 1.578 . S
C1016 C27 1.578 . S
