# Generated by pormake.
# Topology wns, (7)-cn, num edge types: 1
# Building blocks:
#     Node 0, Type 0, BuildingBlock: HICVOG_clean_sbu_0, # of connection points: 7
#     Node 1, Type 0, BuildingBlock: HICVOG_clean_sbu_0, # of connection points: 7
#     Node 2, Type 0, BuildingBlock: HICVOG_clean_sbu_0, # of connection points: 7
#     Node 3, Type 0, BuildingBlock: HICVOG_clean_sbu_0, # of connection points: 7
#     Node 4, Type 0, BuildingBlock: HICVOG_clean_sbu_0, # of connection points: 7
#     Node 5, Type 0, BuildingBlock: HICVOG_clean_sbu_0, # of connection points: 7
#     Node 6, Type 0, BuildingBlock: HICVOG_clean_sbu_0, # of connection points: 7
#     Node 7, Type 0, BuildingBlock: HICVOG_clean_sbu_0, # of connection points: 7
#     Node 8, Type 0, BuildingBlock: HICVOG_clean_sbu_0, # of connection points: 7
#     Node 9, Type 0, BuildingBlock: HICVOG_clean_sbu_0, # of connection points: 7
#     Node 10, Type 0, BuildingBlock: HICVOG_clean_sbu_0, # of connection points: 7
#     Node 11, Type 0, BuildingBlock: HICVOG_clean_sbu_0, # of connection points: 7
#     Edge 12, Type (0, 0), BuildingBlock: UVAHIK_clean_linker_0, # of connection points: 2
#     Edge 13, Type (0, 0), BuildingBlock: UVAHIK_clean_linker_0, # of connection points: 2
#     Edge 14, Type (0, 0), BuildingBlock: UVAHIK_clean_linker_0, # of connection points: 2
#     Edge 15, Type (0, 0), BuildingBlock: UVAHIK_clean_linker_0, # of connection points: 2
#     Edge 16, Type (0, 0), BuildingBlock: UVAHIK_clean_linker_0, # of connection points: 2
#     Edge 17, Type (0, 0), BuildingBlock: UVAHIK_clean_linker_0, # of connection points: 2
#     Edge 18, Type (0, 0), BuildingBlock: UVAHIK_clean_linker_0, # of connection points: 2
#     Edge 19, Type (0, 0), BuildingBlock: UVAHIK_clean_linker_0, # of connection points: 2
#     Edge 20, Type (0, 0), BuildingBlock: UVAHIK_clean_linker_0, # of connection points: 2
#     Edge 21, Type (0, 0), BuildingBlock: UVAHIK_clean_linker_0, # of connection points: 2
#     Edge 22, Type (0, 0), BuildingBlock: UVAHIK_clean_linker_0, # of connection points: 2
#     Edge 23, Type (0, 0), BuildingBlock: UVAHIK_clean_linker_0, # of connection points: 2
#     Edge 24, Type (0, 0), BuildingBlock: UVAHIK_clean_linker_0, # of connection points: 2
#     Edge 25, Type (0, 0), BuildingBlock: UVAHIK_clean_linker_0, # of connection points: 2
#     Edge 26, Type (0, 0), BuildingBlock: UVAHIK_clean_linker_0, # of connection points: 2
#     Edge 27, Type (0, 0), BuildingBlock: UVAHIK_clean_linker_0, # of connection points: 2
#     Edge 28, Type (0, 0), BuildingBlock: UVAHIK_clean_linker_0, # of connection points: 2
#     Edge 29, Type (0, 0), BuildingBlock: UVAHIK_clean_linker_0, # of connection points: 2
#     Edge 30, Type (0, 0), BuildingBlock: UVAHIK_clean_linker_0, # of connection points: 2
#     Edge 31, Type (0, 0), BuildingBlock: UVAHIK_clean_linker_0, # of connection points: 2
#     Edge 32, Type (0, 0), BuildingBlock: UVAHIK_clean_linker_0, # of connection points: 2
#     Edge 33, Type (0, 0), BuildingBlock: UVAHIK_clean_linker_0, # of connection points: 2
#     Edge 34, Type (0, 0), BuildingBlock: UVAHIK_clean_linker_0, # of connection points: 2
#     Edge 35, Type (0, 0), BuildingBlock: UVAHIK_clean_linker_0, # of connection points: 2
#     Edge 36, Type (0, 0), BuildingBlock: UVAHIK_clean_linker_0, # of connection points: 2
#     Edge 37, Type (0, 0), BuildingBlock: UVAHIK_clean_linker_0, # of connection points: 2
#     Edge 38, Type (0, 0), BuildingBlock: UVAHIK_clean_linker_0, # of connection points: 2
#     Edge 39, Type (0, 0), BuildingBlock: UVAHIK_clean_linker_0, # of connection points: 2
#     Edge 40, Type (0, 0), BuildingBlock: UVAHIK_clean_linker_0, # of connection points: 2
#     Edge 41, Type (0, 0), BuildingBlock: UVAHIK_clean_linker_0, # of connection points: 2
#     Edge 42, Type (0, 0), BuildingBlock: UVAHIK_clean_linker_0, # of connection points: 2
#     Edge 43, Type (0, 0), BuildingBlock: UVAHIK_clean_linker_0, # of connection points: 2
#     Edge 44, Type (0, 0), BuildingBlock: UVAHIK_clean_linker_0, # of connection points: 2
#     Edge 45, Type (0, 0), BuildingBlock: UVAHIK_clean_linker_0, # of connection points: 2
#     Edge 46, Type (0, 0), BuildingBlock: UVAHIK_clean_linker_0, # of connection points: 2
#     Edge 47, Type (0, 0), BuildingBlock: UVAHIK_clean_linker_0, # of connection points: 2
#     Edge 48, Type (0, 0), BuildingBlock: UVAHIK_clean_linker_0, # of connection points: 2
#     Edge 49, Type (0, 0), BuildingBlock: UVAHIK_clean_linker_0, # of connection points: 2
#     Edge 50, Type (0, 0), BuildingBlock: UVAHIK_clean_linker_0, # of connection points: 2
#     Edge 51, Type (0, 0), BuildingBlock: UVAHIK_clean_linker_0, # of connection points: 2
#     Edge 52, Type (0, 0), BuildingBlock: UVAHIK_clean_linker_0, # of connection points: 2
#     Edge 53, Type (0, 0), BuildingBlock: UVAHIK_clean_linker_0, # of connection points: 2
# Relax obj value: 0.153
# Max RMSD: 0.216
# Mean RMSD: 0.216
data_MOF--net-wns--node1-HICVOG_clean_sbu_0--edge1-UVAHIK_clean_linker_0
_symmetry_space_group_name_H-M    P1
_symmetry_Int_Tables_number       1
_symmetry_cell_setting            triclinic
loop_
_symmetry_equiv_pos_as_xyz
'x, y, z'
_cell_length_a     53.531016
_cell_length_b     53.578068
_cell_length_c     43.811739
_cell_angle_alpha  90.007167
_cell_angle_beta   89.982927
_cell_angle_gamma 119.95586
loop_
_atom_site_label
_atom_site_type_symbol
_atom_site_fract_x
_atom_site_fract_y
_atom_site_fract_z
_atom_type_partial_charge
Zn0 Zn 0.42676 0.2673 0.14682 0.0
C1 C 0.34981 0.23324 0.104 0.0
N2 N 0.34599 0.24993 0.12418 0.0
C3 C 0.36968 0.26008 0.14156 0.0
N4 N 0.38749 0.2506 0.13224 0.0
N5 N 0.37481 0.23333 0.10864 0.0
C6 C 0.40198 0.21943 0.0284 0.0
O7 O 0.42587 0.23891 0.04161 0.0
O8 O 0.42575 0.26678 0.1931 0.0
Zn9 Zn 0.38359 0.20526 0.09113 0.0
N10 N 0.44854 0.30631 0.13069 0.0
C11 C 0.44983 0.34116 0.0961 0.0
C12 C 0.43527 0.31393 0.10918 0.0
C13 C 0.47641 0.32473 0.13896 0.0
N14 N 0.47749 0.35949 0.10429 0.0
C15 C 0.49159 0.3522 0.12518 0.0
O16 O 0.42273 0.21053 0.10212 0.0
C17 C 0.44523 0.22584 0.11801 0.0
O18 O 0.44777 0.24655 0.13441 0.0
H19 H 0.41356 0.29894 0.10194 0.0
H20 H 0.48642 0.31789 0.1559 0.0
C21 C 0.3417 0.14426 0.08959 0.0
C22 C 0.32295 0.11742 0.10309 0.0
C23 C 0.33267 0.14001 0.15166 0.0
C24 C 0.3512 0.16651 0.13819 0.0
N25 N 0.35558 0.1681 0.10755 0.0
N26 N 0.31916 0.11612 0.1339 0.0
H27 H 0.34586 0.14609 0.06529 0.0
C28 C 0.41596 0.24187 0.2048 0.0
O29 O 0.40801 0.21977 0.18647 0.0
O30 O 0.38037 0.20321 0.04499 0.0
H31 H 0.36231 0.18569 0.15205 0.0
H32 H 0.4394 0.34757 0.07919 0.0
H33 H 0.32918 0.13839 0.17607 0.0
Zn34 Zn 0.7436 0.15758 0.14795 0.0
C35 C 0.77917 0.11897 0.10029 0.0
N36 N 0.76384 0.09745 0.12005 0.0
C37 C 0.75373 0.10961 0.13957 0.0
N38 N 0.76175 0.13694 0.13173 0.0
N39 N 0.77809 0.14297 0.10707 0.0
C40 C 0.79176 0.18674 0.02753 0.0
O41 O 0.77357 0.19307 0.04071 0.0
O42 O 0.74469 0.15654 0.19416 0.0
Zn43 Zn 0.8046 0.18048 0.09013 0.0
N44 N 0.70434 0.13949 0.13209 0.0
C45 C 0.66934 0.10472 0.0985 0.0
C46 C 0.69663 0.11784 0.11151 0.0
C47 C 0.686 0.14937 0.13928 0.0
N48 N 0.65112 0.11449 0.1056 0.0
C49 C 0.65852 0.13671 0.1254 0.0
O50 O 0.7975 0.21309 0.10186 0.0
C51 C 0.78204 0.21862 0.1196 0.0
O52 O 0.76283 0.19944 0.13663 0.0
H53 H 0.71162 0.11097 0.10478 0.0
H54 H 0.69297 0.16693 0.15534 0.0
C55 C 0.86607 0.20144 0.08797 0.0
C56 C 0.89307 0.2088 0.1009 0.0
C57 C 0.87035 0.19359 0.14938 0.0
C58 C 0.8439 0.18658 0.13646 0.0
N59 N 0.84226 0.19071 0.10612 0.0
N60 N 0.89415 0.20449 0.13142 0.0
H61 H 0.86362 0.20369 0.06383 0.0
C62 C 0.76958 0.17301 0.20532 0.0
O63 O 0.79106 0.1881 0.18652 0.0
O64 O 0.80656 0.17944 0.04409 0.0
H65 H 0.82471 0.17777 0.15041 0.0
H66 H 0.66286 0.08728 0.08236 0.0
H67 H 0.87199 0.1904 0.17352 0.0
Zn68 Zn 0.85326 0.58574 0.1484 0.0
C69 C 0.89527 0.66068 0.10158 0.0
N70 N 0.91634 0.66543 0.1214 0.0
C71 C 0.90336 0.64254 0.13992 0.0
N72 N 0.87585 0.62428 0.13161 0.0
N73 N 0.87054 0.63593 0.10754 0.0
C74 C 0.80731 0.61806 0.0335 0.0
O75 O 0.78456 0.60766 0.05133 0.0
O76 O 0.85418 0.58862 0.19447 0.0
Zn77 Zn 0.83309 0.62735 0.09196 0.0
N78 N 0.87014 0.56271 0.13498 0.0
C79 C 0.9077 0.56009 0.10869 0.0
C80 C 0.89461 0.57567 0.1179 0.0
C81 C 0.8573 0.53411 0.14183 0.0
N82 N 0.89523 0.53177 0.11591 0.0
C83 C 0.87013 0.51809 0.13193 0.0
O84 O 0.79957 0.58872 0.10492 0.0
C85 C 0.79277 0.56649 0.12109 0.0
O86 O 0.81135 0.56415 0.13695 0.0
H87 H 0.90391 0.5979 0.11121 0.0
H88 H 0.83748 0.52407 0.15487 0.0
C89 C 0.81445 0.67006 0.09194 0.0
C90 C 0.80762 0.6894 0.10636 0.0
C91 C 0.82413 0.681 0.15344 0.0
C92 C 0.83065 0.66175 0.13911 0.0
N93 N 0.82546 0.65641 0.10878 0.0
N94 N 0.81258 0.69415 0.13686 0.0
H95 H 0.81029 0.66529 0.0679 0.0
C96 C 0.83866 0.59778 0.20659 0.0
O97 O 0.82328 0.60464 0.18876 0.0
O98 O 0.83214 0.6286 0.04567 0.0
H99 H 0.83952 0.65084 0.15209 0.0
H100 H 0.92743 0.5703 0.09551 0.0
H101 H 0.82794 0.68526 0.17763 0.0
Zn102 Zn 0.27265 0.42238 0.35768 0.0
C103 C 0.23982 0.34697 0.40275 0.0
N104 N 0.25582 0.34227 0.38239 0.0
C105 C 0.26499 0.36493 0.36358 0.0
N106 N 0.25573 0.38308 0.37234 0.0
N107 N 0.23943 0.37153 0.39684 0.0
C108 C 0.22056 0.40012 0.47468 0.0
O109 O 0.23782 0.42463 0.46098 0.0
O110 O 0.27342 0.4214 0.31147 0.0
Zn111 Zn 0.21014 0.3795 0.41248 0.0
N112 N 0.31119 0.44442 0.37532 0.0
C113 C 0.34596 0.4444 0.40911 0.0
C114 C 0.31927 0.43004 0.39489 0.0
C115 C 0.32853 0.47326 0.37038 0.0
N116 N 0.36323 0.47295 0.40415 0.0
C117 C 0.35546 0.48823 0.38543 0.0
O118 O 0.21429 0.41773 0.39976 0.0
C119 C 0.22965 0.44012 0.38377 0.0
O120 O 0.25106 0.443 0.36836 0.0
H121 H 0.30499 0.40762 0.39997 0.0
H122 H 0.32086 0.48427 0.35578 0.0
C123 C 0.14887 0.33894 0.41232 0.0
C124 C 0.1228 0.31752 0.3993 0.0
C125 C 0.14837 0.31916 0.35426 0.0
C126 C 0.17395 0.34049 0.36715 0.0
N127 N 0.17375 0.3499 0.39589 0.0
N128 N 0.12354 0.30824 0.37054 0.0
H129 H 0.1497 0.34667 0.4353 0.0
C130 C 0.24857 0.40931 0.29914 0.0
O131 O 0.22577 0.39893 0.3169 0.0
O132 O 0.20718 0.37738 0.45866 0.0
H133 H 0.19387 0.34945 0.3544 0.0
H134 H 0.35272 0.4331 0.42448 0.0
H135 H 0.1482 0.31136 0.33144 0.0
Zn136 Zn 0.58983 0.85052 0.35695 0.0
C137 C 0.66337 0.89292 0.40516 0.0
N138 N 0.66886 0.91354 0.38444 0.0
C139 C 0.64693 0.89999 0.36476 0.0
N140 N 0.62848 0.87264 0.37329 0.0
N141 N 0.63901 0.868 0.39867 0.0
C142 C 0.61059 0.82385 0.47744 0.0
O143 O 0.58666 0.81904 0.46398 0.0
O144 O 0.59232 0.85142 0.31073 0.0
Zn145 Zn 0.63029 0.8308 0.41497 0.0
N146 N 0.56767 0.86779 0.37224 0.0
C147 C 0.56639 0.90222 0.40557 0.0
C148 C 0.58099 0.88933 0.39307 0.0
C149 C 0.5396 0.8578 0.36429 0.0
N150 N 0.53857 0.89238 0.39767 0.0
C151 C 0.52436 0.87029 0.37758 0.0
O152 O 0.59153 0.79718 0.40285 0.0
C153 C 0.56985 0.79023 0.38567 0.0
O154 O 0.56823 0.80857 0.36862 0.0
H155 H 0.60275 0.89639 0.40033 0.0
H156 H 0.52945 0.84034 0.34804 0.0
C157 C 0.67072 0.80984 0.41524 0.0
C158 C 0.69195 0.80485 0.40226 0.0
C159 C 0.68911 0.82694 0.35633 0.0
C160 C 0.66801 0.83158 0.36923 0.0
N161 N 0.65928 0.82305 0.39839 0.0
N162 N 0.70055 0.81378 0.37306 0.0
H163 H 0.66358 0.8038 0.43854 0.0
C164 C 0.60251 0.83637 0.29968 0.0
O165 O 0.61044 0.82257 0.31858 0.0
O166 O 0.63274 0.83054 0.46115 0.0
H167 H 0.65874 0.84207 0.35618 0.0
H168 H 0.57688 0.91958 0.42189 0.0
H169 H 0.69637 0.83373 0.33319 0.0
Zn170 Zn 0.16168 0.7393 0.35903 0.0
C171 C 0.11976 0.77255 0.40497 0.0
N172 N 0.09892 0.7566 0.38476 0.0
C173 C 0.11216 0.74694 0.36621 0.0
N174 N 0.13954 0.75602 0.37482 0.0
N175 N 0.14452 0.77249 0.3992 0.0
C176 C 0.18126 0.78648 0.47801 0.0
O177 O 0.17612 0.76167 0.46659 0.0
O178 O 0.15995 0.73977 0.31286 0.0
Zn179 Zn 0.1819 0.80178 0.4141 0.0
N180 N 0.14459 0.7002 0.37513 0.0
C181 C 0.11035 0.66504 0.40902 0.0
C182 C 0.12314 0.6923 0.39603 0.0
C183 C 0.15448 0.68198 0.36741 0.0
N184 N 0.12009 0.64692 0.40136 0.0
C185 C 0.14201 0.65444 0.38109 0.0
O186 O 0.21553 0.79666 0.4019 0.0
C187 C 0.22236 0.78115 0.38587 0.0
O188 O 0.2038 0.7601 0.37011 0.0
H189 H 0.11603 0.70706 0.40292 0.0
H190 H 0.17177 0.68899 0.35097 0.0
C191 C 0.2028 0.86292 0.41228 0.0
C192 C 0.20728 0.88872 0.39873 0.0
C193 C 0.18304 0.8624 0.35421 0.0
C194 C 0.1789 0.83707 0.36765 0.0
N195 N 0.18878 0.83779 0.39638 0.0
N196 N 0.19703 0.8875 0.36998 0.0
H197 H 0.20985 0.86252 0.4353 0.0
C198 C 0.17337 0.76474 0.3009 0.0
O199 O 0.18675 0.7872 0.31895 0.0
O200 O 0.18326 0.80604 0.46008 0.0
H201 H 0.16775 0.81691 0.35537 0.0
H202 H 0.09309 0.65844 0.42545 0.0
H203 H 0.17519 0.86215 0.33139 0.0
Zn204 Zn 0.63272 0.80307 0.91386 0.0
C205 C 0.64519 0.74622 0.86567 0.0
N206 N 0.6677 0.75466 0.8845 0.0
C207 C 0.664 0.77163 0.90442 0.0
N208 N 0.64015 0.77335 0.89819 0.0
N209 N 0.62815 0.75697 0.87384 0.0
C210 C 0.6029 0.76835 0.80082 0.0
O211 O 0.61236 0.79021 0.81979 0.0
O212 O 0.63446 0.80573 0.96005 0.0
Zn213 Zn 0.58947 0.74154 0.85804 0.0
N214 N 0.66302 0.83929 0.8978 0.0
C215 C 0.69527 0.86476 0.85725 0.0
C216 C 0.67318 0.83924 0.86941 0.0
C217 C 0.67394 0.86392 0.91459 0.0
N218 N 0.7064 0.88928 0.87404 0.0
C219 C 0.69657 0.88988 0.90259 0.0
O220 O 0.56907 0.76302 0.86987 0.0
C221 C 0.57212 0.7844 0.88541 0.0
O222 O 0.59466 0.79968 0.90124 0.0
H223 H 0.66419 0.81949 0.85637 0.0
H224 H 0.66469 0.86297 0.93675 0.0
C225 C 0.53902 0.6842 0.86406 0.0
C226 C 0.52324 0.65654 0.87728 0.0
C227 C 0.56379 0.66682 0.90811 0.0
C228 C 0.57894 0.69424 0.89558 0.0
N229 N 0.56661 0.70233 0.87344 0.0
N230 N 0.53644 0.64876 0.89878 0.0
H231 H 0.52968 0.69137 0.84669 0.0
C232 C 0.61194 0.79079 0.976 0.0
O233 O 0.58797 0.77224 0.9622 0.0
O234 O 0.59147 0.743 0.81181 0.0
H235 H 0.60037 0.70897 0.90375 0.0
H236 H 0.70361 0.86509 0.83467 0.0
H237 H 0.5735 0.66004 0.92548 0.0
Zn238 Zn 0.20959 0.82836 0.91468 0.0
C239 C 0.2622 0.89785 0.86418 0.0
N240 N 0.25181 0.91077 0.88218 0.0
C241 C 0.23585 0.89001 0.90244 0.0
N242 N 0.23665 0.86555 0.89726 0.0
N243 N 0.25363 0.87068 0.87323 0.0
C244 C 0.24611 0.82913 0.79979 0.0
O245 O 0.22592 0.81063 0.81811 0.0
O246 O 0.20759 0.82886 0.96101 0.0
Zn247 Zn 0.2714 0.84922 0.85782 0.0
N248 N 0.17211 0.81757 0.89765 0.0
C249 C 0.14397 0.80764 0.85254 0.0
C250 C 0.17049 0.81704 0.8667 0.0
C251 C 0.14824 0.80952 0.91517 0.0
N252 N 0.12004 0.79899 0.86992 0.0
C253 C 0.12132 0.79973 0.90097 0.0
O254 O 0.25292 0.80766 0.87085 0.0
C255 C 0.23272 0.78933 0.88765 0.0
O256 O 0.21699 0.79603 0.90344 0.0
H257 H 0.18968 0.82351 0.85319 0.0
H258 H 0.15006 0.80984 0.93976 0.0
C259 C 0.32968 0.85864 0.86492 0.0
C260 C 0.35746 0.87186 0.87818 0.0
C261 C 0.34627 0.90327 0.90572 0.0
C262 C 0.31872 0.88958 0.89335 0.0
N263 N 0.31103 0.86799 0.87272 0.0
N264 N 0.36481 0.89406 0.898 0.0
H265 H 0.32274 0.84106 0.84889 0.0
C266 C 0.19344 0.80436 0.97389 0.0
O267 O 0.18112 0.78119 0.95669 0.0
O268 O 0.26937 0.84909 0.81138 0.0
H269 H 0.3035 0.89601 0.90058 0.0
H270 H 0.14233 0.80689 0.82791 0.0
H271 H 0.35273 0.92071 0.92186 0.0
Zn272 Zn 0.1838 0.38239 0.91306 0.0
C273 C 0.11374 0.36465 0.86313 0.0
N274 N 0.10105 0.34169 0.88162 0.0
C275 C 0.12209 0.34695 0.90173 0.0
N276 N 0.14641 0.37213 0.89602 0.0
N277 N 0.14097 0.38346 0.87178 0.0
C278 C 0.17565 0.41106 0.79795 0.0
O279 O 0.19055 0.40391 0.81615 0.0
O280 O 0.184 0.38197 0.95948 0.0
Zn281 Zn 0.16206 0.42245 0.85607 0.0
N282 N 0.19314 0.35406 0.89777 0.0
C283 C 0.19972 0.33192 0.85378 0.0
C284 C 0.19165 0.35047 0.86701 0.0
C285 C 0.20184 0.33927 0.91607 0.0
N286 N 0.20901 0.31765 0.87188 0.0
C287 C 0.2102 0.32062 0.90279 0.0
O288 O 0.20414 0.44457 0.86664 0.0
C289 C 0.22303 0.44289 0.88265 0.0
O290 O 0.21668 0.42112 0.89943 0.0
H291 H 0.18452 0.36225 0.85289 0.0
H292 H 0.20305 0.34264 0.94048 0.0
C293 C 0.1549 0.4722 0.86568 0.0
C294 C 0.14273 0.48731 0.87994 0.0
C295 C 0.11034 0.44458 0.90667 0.0
C296 C 0.12298 0.43011 0.89325 0.0
N297 N 0.14461 0.4439 0.87262 0.0
N298 N 0.12054 0.47268 0.89985 0.0
H299 H 0.17239 0.48261 0.8495 0.0
C300 C 0.20872 0.39292 0.97204 0.0
O301 O 0.23167 0.40328 0.9545 0.0
O302 O 0.16027 0.42052 0.80979 0.0
H303 H 0.11574 0.40811 0.89965 0.0
H304 H 0.19887 0.32907 0.82928 0.0
H305 H 0.09291 0.43375 0.92288 0.0
Zn306 Zn 0.74116 0.58528 0.64865 0.0
C307 C 0.77468 0.66042 0.60278 0.0
N308 N 0.75869 0.66531 0.62297 0.0
C309 C 0.74929 0.64266 0.64182 0.0
N310 N 0.75843 0.62437 0.6333 0.0
N311 N 0.77485 0.63578 0.60885 0.0
C312 C 0.81819 0.61617 0.5336 0.0
O313 O 0.83126 0.6063 0.55109 0.0
O314 O 0.74055 0.587 0.69474 0.0
Zn315 Zn 0.8031 0.62673 0.59249 0.0
N316 N 0.7025 0.56345 0.63153 0.0
C317 C 0.66806 0.5625 0.59654 0.0
C318 C 0.695 0.57703 0.61027 0.0
C319 C 0.68425 0.5353 0.63889 0.0
N320 N 0.64992 0.53457 0.6038 0.0
C321 C 0.65709 0.52016 0.62441 0.0
O322 O 0.79833 0.58859 0.60642 0.0
C323 C 0.78327 0.56651 0.6229 0.0
O324 O 0.76209 0.56387 0.63855 0.0
H325 H 0.70987 0.59895 0.60369 0.0
H326 H 0.691 0.52505 0.65563 0.0
C327 C 0.86393 0.66992 0.58931 0.0
C328 C 0.89078 0.69015 0.60201 0.0
C329 C 0.8682 0.68254 0.65058 0.0
C330 C 0.84197 0.66223 0.63794 0.0
N331 N 0.84033 0.65621 0.60767 0.0
N332 N 0.89186 0.69584 0.63245 0.0
H333 H 0.86153 0.66514 0.56523 0.0
C334 C 0.76537 0.59802 0.70703 0.0
O335 O 0.78801 0.60677 0.68928 0.0
O336 O 0.804 0.62666 0.54616 0.0
H337 H 0.82297 0.65125 0.65211 0.0
H338 H 0.66175 0.57317 0.57982 0.0
H339 H 0.86983 0.68758 0.67466 0.0
Zn340 Zn 0.42559 0.1579 0.64859 0.0
C341 C 0.35304 0.11447 0.59839 0.0
N342 N 0.34805 0.09326 0.6181 0.0
C343 C 0.36973 0.10658 0.63811 0.0
N344 N 0.38762 0.13444 0.63069 0.0
N345 N 0.37682 0.13956 0.60579 0.0
C346 C 0.40544 0.18732 0.52848 0.0
O347 O 0.42993 0.19466 0.54232 0.0
O348 O 0.42148 0.15763 0.69462 0.0
Zn349 Zn 0.38439 0.17677 0.59057 0.0
N350 N 0.44971 0.14178 0.63647 0.0
C351 C 0.45389 0.10536 0.60964 0.0
C352 C 0.43776 0.11801 0.6183 0.0
C353 C 0.47803 0.15456 0.6447 0.0
N354 N 0.48187 0.11772 0.61827 0.0
C355 C 0.49467 0.14226 0.63523 0.0
O356 O 0.4224 0.21092 0.6034 0.0
C357 C 0.44445 0.21804 0.62002 0.0
O358 O 0.44678 0.19974 0.6364 0.0
H359 H 0.41594 0.10899 0.61024 0.0
H360 H 0.48741 0.17399 0.65834 0.0
C361 C 0.34322 0.19667 0.59034 0.0
C362 C 0.32126 0.20072 0.60298 0.0
C363 C 0.32268 0.17672 0.64803 0.0
C364 C 0.3445 0.173 0.63548 0.0
N365 N 0.35429 0.18296 0.60692 0.0
N366 N 0.31161 0.19039 0.63157 0.0
H367 H 0.35122 0.20382 0.56749 0.0
C368 C 0.41081 0.17249 0.70499 0.0
O369 O 0.40303 0.18603 0.68556 0.0
O370 O 0.38259 0.17787 0.54437 0.0
H371 H 0.35351 0.16213 0.64832 0.0
H372 H 0.44442 0.08615 0.59567 0.0
H373 H 0.31458 0.16881 0.6707 0.0
Zn374 Zn 0.83314 0.20948 0.59065 0.0
C375 C 0.90439 0.26246 0.63831 0.0
N376 N 0.91712 0.25345 0.61827 0.0
C377 C 0.89571 0.23792 0.59845 0.0
N378 N 0.87108 0.2377 0.60583 0.0
N379 N 0.87676 0.25353 0.63085 0.0
C380 C 0.84241 0.24402 0.7052 0.0
O381 O 0.82842 0.22226 0.68641 0.0
O382 O 0.83208 0.20619 0.54461 0.0
Zn383 Zn 0.85546 0.27055 0.64798 0.0
N384 N 0.82522 0.17281 0.60753 0.0
C385 C 0.82946 0.14728 0.64974 0.0
C386 C 0.8342 0.17291 0.63655 0.0
C387 C 0.81157 0.14798 0.59105 0.0
N388 N 0.81585 0.1225 0.63339 0.0
C389 C 0.80654 0.12187 0.60431 0.0
O390 O 0.81343 0.25044 0.6375 0.0
C391 C 0.79416 0.23066 0.62107 0.0
O392 O 0.79987 0.21533 0.60334 0.0
H393 H 0.84515 0.19283 0.64925 0.0
H394 H 0.80527 0.14887 0.56781 0.0
C395 C 0.86265 0.32788 0.6409 0.0
C396 C 0.87485 0.35553 0.62755 0.0
C397 C 0.90642 0.34546 0.59875 0.0
C398 C 0.89378 0.31803 0.6113 0.0
N399 N 0.87257 0.30985 0.63255 0.0
N400 N 0.89663 0.36339 0.60703 0.0
H401 H 0.84546 0.32059 0.6575 0.0
C402 C 0.8248 0.22126 0.52848 0.0
O403 O 0.81976 0.24017 0.54206 0.0
O404 O 0.85717 0.26922 0.69405 0.0
H405 H 0.90075 0.30333 0.60375 0.0
H406 H 0.83658 0.14705 0.67279 0.0
H407 H 0.92353 0.3523 0.58209 0.0
C408 C 0.23748 0.89687 0.95848 0.0
C409 C 0.22526 0.89712 0.9302 0.0
C410 C 0.23929 0.91563 0.9818 0.0
C411 C 0.25333 0.98827 0.98253 0.0
H412 H 0.24748 0.98214 0.07061 0.0
C413 C 0.29533 0.09017 0.0566 0.0
C414 C 0.30784 0.0906 0.08488 0.0
C415 C 0.28056 0.06454 0.03997 0.0
C416 C 0.24962 0.98432 0.04605 0.0
H417 H 0.20254 0.91447 0.90518 0.0
H418 H 0.20529 0.94682 0.9459 0.0
H419 H 0.22714 0.93837 0.03949 0.0
H420 H 0.31467 0.06461 0.11799 0.0
H421 H 0.29038 0.02029 0.08839 0.0
H422 H 0.27728 0.03377 0.98851 0.0
C423 C 0.21365 0.93242 0.95008 0.0
C424 C 0.23768 0.95917 0.02829 0.0
C425 C 0.21177 0.91367 0.92692 0.0
C426 C 0.30519 0.06487 0.09624 0.0
C427 C 0.29097 0.03936 0.07933 0.0
C428 C 0.2657 0.01328 1.00017 0.0
C429 C 0.22911 0.93494 0.97691 0.0
C430 C 0.2394 0.96096 0.99633 0.0
C431 C 0.27844 0.03878 0.05089 0.0
C432 C 0.26414 0.01178 0.03223 0.0
H433 H 0.24881 0.88499 0.96124 0.0
H434 H 0.25139 0.91718 1.00223 0.0
H435 H 0.25565 0.99033 0.95794 0.0
H436 H 0.29646 0.10954 0.04758 0.0
H437 H 0.27063 0.06499 0.01862 0.0
C438 C 0.94424 0.21984 0.0945 0.0
C439 C 0.92024 0.2208 0.08265 0.0
C440 C 0.97012 0.23137 0.07817 0.0
C441 C 0.99919 0.25066 1.00033 0.0
H442 H 0.07268 0.29987 0.03979 0.0
C443 C 0.11469 0.34342 0.95759 0.0
C444 C 0.11529 0.33024 0.93013 0.0
C445 C 0.09587 0.32694 0.98107 0.0
C446 C 0.05235 0.286 0.02852 0.0
H447 H 0.9057 0.23608 0.04426 0.0
H448 H 0.95038 0.25536 0.01578 0.0
H449 H 0.0282 0.27796 0.07004 0.0
H450 H 0.09974 0.28952 0.90695 0.0
H451 H 0.06792 0.26058 0.9483 0.0
H452 H 0.02281 0.25927 0.95874 0.0
C453 C 0.94889 0.24522 0.03761 0.0
C454 C 0.02691 0.27337 0.04584 0.0
C455 C 0.92307 0.23391 0.05401 0.0
C456 C 0.09979 0.3001 0.92805 0.0
C457 C 0.08122 0.28363 0.95154 0.0
C458 C 0.02452 0.26305 0.98313 0.0
C459 C 0.97269 0.24404 0.04947 0.0
C460 C 1.0 0.25598 0.03178 0.0
C461 C 0.07748 0.29708 0.97731 0.0
C462 C 0.0514 0.28119 0.99687 0.0
H463 H 0.94306 0.20997 0.11642 0.0
H464 H 0.988 0.22996 0.08783 0.0
H465 H 0.97887 0.23711 0.98889 0.0
H466 H 0.12592 0.36669 0.95944 0.0
H467 H 0.09359 0.33803 1.0006 0.0
C468 C 0.77299 0.70781 0.10396 0.0
C469 C 0.79427 0.70386 0.08963 0.0
C470 C 0.76009 0.72134 0.08859 0.0
C471 C 0.77052 0.77181 0.02724 0.0
H472 H 0.68734 0.72927 0.01918 0.0
C473 C 0.71106 0.79163 0.93015 0.0
C474 C 0.68136 0.78134 0.93249 0.0
C475 C 0.72642 0.78965 0.95489 0.0
C476 C 0.71049 0.74203 0.02182 0.0
H477 H 0.81949 0.71198 0.0483 0.0
H478 H 0.79719 0.73607 0.02157 0.0
H479 H 0.71111 0.71023 0.05098 0.0
H480 H 0.64478 0.76259 0.96303 0.0
H481 H 0.67191 0.76144 0.00714 0.0
H482 H 0.77011 0.80377 0.99835 0.0
C483 C 0.79033 0.72836 0.04463 0.0
C484 C 0.72412 0.73086 0.03988 0.0
C485 C 0.80285 0.71431 0.05979 0.0
C486 C 0.66787 0.77181 0.96092 0.0
C487 C 0.68334 0.77027 0.98594 0.0
C488 C 0.75686 0.78332 0.00963 0.0
C489 C 0.76868 0.7318 0.05881 0.0
C490 C 0.75429 0.74523 0.04211 0.0
C491 C 0.7124 0.77743 0.98268 0.0
C492 C 0.72667 0.76818 0.00588 0.0
H493 H 0.76595 0.70001 0.12695 0.0
H494 H 0.74349 0.72376 0.10004 0.0
H495 H 0.79382 0.78353 0.02899 0.0
H496 H 0.72181 0.79855 0.90827 0.0
H497 H 0.74859 0.79526 0.9511 0.0
C498 C 0.08936 0.31999 0.43852 0.0
C499 C 0.09468 0.30471 0.41572 0.0
C500 C 0.06249 0.30785 0.45293 0.0
C501 C 0.99693 0.23819 0.46925 0.0
H502 H 0.96614 0.2876 0.49132 0.0
C503 C 0.91953 0.21643 0.56902 0.0
C504 C 0.90208 0.2291 0.56905 0.0
C505 C 0.93635 0.21894 0.54357 0.0
C506 C 0.97397 0.27323 0.4848 0.0
H507 H 0.07549 0.26463 0.39021 0.0
H508 H 0.02864 0.2437 0.41515 0.0
H509 H 0.00982 0.30688 0.46089 0.0
H510 H 0.88685 0.2525 0.54189 0.0
H511 H 0.91511 0.25574 0.49677 0.0
H512 H 0.96114 0.20459 0.49349 0.0
C513 C 0.04541 0.26492 0.42213 0.0
C514 C 0.99939 0.28449 0.46778 0.0
C515 C 0.07228 0.27705 0.40769 0.0
C516 C 0.89938 0.24169 0.54211 0.0
C517 C 0.91615 0.24416 0.51653 0.0
C518 C 0.97143 0.22688 0.48629 0.0
C519 C 0.04014 0.2802 0.44488 0.0
C520 C 0.01162 0.26735 0.46046 0.0
C521 C 0.93618 0.2344 0.51769 0.0
C522 C 0.96 0.24446 0.49493 0.0
H523 H 0.10567 0.34156 0.44497 0.0
H524 H 0.05931 0.32012 0.47062 0.0
H525 H 1.00575 0.22436 0.46407 0.0
H526 H 0.92236 0.2071 0.58977 0.0
H527 H 0.95154 0.21125 0.54547 0.0
C528 C 0.79494 0.70634 0.57455 0.0
C529 C 0.78341 0.6764 0.57381 0.0
C530 C 0.79236 0.72078 0.54927 0.0
C531 C 0.73905 0.70355 0.48943 0.0
H532 H 0.78648 0.78453 0.46956 0.0
C533 C 0.69029 0.77007 0.44228 0.0
C534 C 0.70531 0.79038 0.4192 0.0
C535 C 0.70289 0.75598 0.45713 0.0
C536 C 0.77307 0.7618 0.47454 0.0
H537 H 0.76196 0.63831 0.54553 0.0
H538 H 0.75858 0.66362 0.50081 0.0
H539 H 0.80686 0.76051 0.49949 0.0
H540 H 0.74542 0.81162 0.39371 0.0
H541 H 0.76724 0.78692 0.41954 0.0
H542 H 0.70516 0.70487 0.46495 0.0
C543 C 0.76936 0.67599 0.52101 0.0
C544 C 0.78472 0.74807 0.49182 0.0
C545 C 0.77192 0.66155 0.54638 0.0
C546 C 0.73322 0.79615 0.41139 0.0
C547 C 0.74584 0.78213 0.42632 0.0
C548 C 0.72742 0.71726 0.47223 0.0
C549 C 0.77796 0.70544 0.52284 0.0
C550 C 0.76765 0.71892 0.50006 0.0
C551 C 0.73078 0.76177 0.44928 0.0
C552 C 0.74405 0.74671 0.46521 0.0
H553 H 0.80343 0.71814 0.59566 0.0
H554 H 0.79913 0.74341 0.55164 0.0
H555 H 0.72507 0.68121 0.49565 0.0
H556 H 0.66857 0.7645 0.44856 0.0
H557 H 0.6908 0.74065 0.47496 0.0
C558 C 0.21662 0.93901 0.4068 0.0
C559 C 0.22252 0.91701 0.41471 0.0
C560 C 0.23111 0.96594 0.42109 0.0
C561 C 0.29686 0.01291 0.46586 0.0
H562 H 0.25373 0.049 0.49391 0.0
C563 C 0.35261 0.11155 0.54196 0.0
C564 C 0.33745 0.10787 0.56924 0.0
C565 C 0.33834 0.0952 0.51617 0.0
C566 C 0.26614 0.03933 0.48602 0.0
H567 H 0.24929 0.90675 0.44342 0.0
H568 H 0.27385 0.95323 0.46876 0.0
H569 H 0.22953 0.00478 0.46385 0.0
H570 H 0.29542 0.0862 0.59052 0.0
H571 H 0.27045 0.05767 0.54586 0.0
H572 H 0.33302 0.04635 0.48936 0.0
C573 C 0.25807 0.94971 0.45134 0.0
C574 C 0.25231 0.01406 0.46864 0.0
C575 C 0.24356 0.92277 0.43711 0.0
C576 C 0.30744 0.08976 0.56951 0.0
C577 C 0.29317 0.07335 0.54385 0.0
C578 C 0.31066 0.0381 0.48322 0.0
C579 C 0.25206 0.97164 0.44349 0.0
C580 C 0.26734 1.00011 0.45909 0.0
C581 C 0.30875 0.0746 0.51747 0.0
C582 C 0.29532 0.05125 0.49422 0.0
H583 H 0.20062 0.93541 0.38961 0.0
H584 H 0.22613 0.98241 0.41431 0.0
H585 H 0.30921 1.00304 0.45838 0.0
H586 H 0.3759 0.1246 0.54148 0.0
H587 H 0.35091 0.09704 0.49605 0.0
C588 C 0.70721 0.91883 0.95158 0.0
C589 C 0.71011 0.91773 0.91973 0.0
C590 C 0.72065 0.94516 0.96708 0.0
C591 C 0.75464 0.02435 0.95555 0.0
H592 H 0.78184 0.02553 0.03773 0.0
C593 C 0.77149 0.10995 0.04504 0.0
C594 C 0.78816 0.11289 0.07089 0.0
C595 C 0.76966 0.0918 0.02112 0.0
C596 C 0.77509 0.02602 0.01456 0.0
H597 H 0.72999 0.94409 0.87955 0.0
H598 H 0.75398 0.98966 0.90673 0.0
H599 H 0.76278 0.98188 0.00791 0.0
H600 H 0.81866 0.10232 0.09071 0.0
H601 H 0.81737 0.07244 0.04805 0.0
H602 H 0.76749 0.06879 0.96215 0.0
C603 C 0.74073 0.97016 0.9196 0.0
C604 C 0.76348 1.0006 0.99762 0.0
C605 C 0.72709 0.94386 0.90403 0.0
C606 C 0.80583 0.10051 0.07081 0.0
C607 C 0.80456 0.0829 0.04662 0.0
C608 C 0.76659 0.04999 0.97243 0.0
C609 C 0.73776 0.97119 0.95137 0.0
C610 C 0.75239 0.99914 0.9682 0.0
C611 C 0.78478 0.07654 0.02259 0.0
C612 C 0.77639 0.05101 1.00247 0.0
H613 H 0.69502 0.8995 0.96496 0.0
H614 H 0.71743 0.94505 0.99149 0.0
H615 H 0.74627 0.0241 0.93299 0.0
H616 H 0.75719 0.11882 0.04493 0.0
H617 H 0.75418 0.0876 0.00314 0.0
C618 C 0.09362 0.8027 0.94593 0.0
C619 C 0.09431 0.78913 0.91878 0.0
C620 C 0.06793 0.79238 0.96242 0.0
C621 C 0.9879 0.74153 0.95762 0.0
H622 H 0.99455 0.74451 0.04575 0.0
C623 C 0.90132 0.66646 0.04551 0.0
C624 C 0.90178 0.67858 0.07407 0.0
C625 C 0.91981 0.68371 0.02216 0.0
C626 C 0.99225 0.74396 0.02115 0.0
H627 H 0.06862 0.7543 0.88748 0.0
H628 H 0.02423 0.73544 0.91683 0.0
H629 H 0.0378 0.76657 0.01485 0.0
H630 H 0.91898 0.71834 0.09956 0.0
H631 H 0.95064 0.74852 0.05873 0.0
H632 H 0.942 0.71713 0.96451 0.0
C633 C 0.04316 0.75459 0.92507 0.0
C634 C 0.01717 0.75671 0.00332 0.0
C635 C 0.06872 0.76525 0.90831 0.0
C636 C 0.91808 0.70857 0.07762 0.0
C637 C 0.93647 0.72577 0.05439 0.0
C638 C 0.96286 0.7283 0.97559 0.0
C639 C 0.04238 0.7679 0.95248 0.0
C640 C 0.01546 0.75557 0.97127 0.0
C641 C 0.93899 0.7132 0.02726 0.0
C642 C 0.96482 0.72933 0.00756 0.0
H643 H 0.11283 0.82155 0.95423 0.0
H644 H 0.06817 0.80374 0.98295 0.0
H645 H 0.98558 0.74056 0.93304 0.0
H646 H 0.8895 0.6433 0.04249 0.0
H647 H 0.92127 0.67342 1.00149 0.0
C648 C 0.3434 0.23439 0.04818 0.0
C649 C 0.33147 0.22253 0.07673 0.0
C650 C 0.32601 0.23579 0.02511 0.0
C651 C 0.26684 0.24926 0.02463 0.0
H652 H 0.26771 0.24332 0.93658 0.0
C653 C 0.20836 0.29223 0.94929 0.0
C654 C 0.22114 0.30495 0.9213 0.0
C655 C 0.21865 0.27706 0.96618 0.0
C656 C 0.26749 0.24546 0.96113 0.0
H657 H 0.29194 0.20039 0.10272 0.0
H658 H 0.26152 0.20248 0.06245 0.0
H659 H 0.29101 0.22307 0.96804 0.0
H660 H 0.25462 0.31179 0.88902 0.0
H661 H 0.27356 0.28676 0.91906 0.0
H662 H 0.24521 0.27316 0.01825 0.0
C663 C 0.2842 0.21077 0.05781 0.0
C664 C 0.28061 0.23357 0.97909 0.0
C665 C 0.30152 0.20925 0.08071 0.0
C666 C 0.2443 0.30211 0.91051 0.0
C667 C 0.25497 0.28747 0.92766 0.0
C668 C 0.25424 0.26157 0.00677 0.0
C669 C 0.29659 0.22566 0.03056 0.0
C670 C 0.28046 0.23543 0.01103 0.0
C671 C 0.24234 0.27472 0.9558 0.0
C672 C 0.25451 0.26007 0.97472 0.0
H673 H 0.36655 0.24575 0.04495 0.0
H674 H 0.33617 0.24754 0.0044 0.0
H675 H 0.26699 0.25167 0.0492 0.0
H676 H 0.19006 0.29352 0.95787 0.0
H677 H 0.20781 0.26702 0.98732 0.0
C678 C 0.94187 0.73031 0.59525 0.0
C679 C 0.91787 0.70526 0.58362 0.0
C680 C 0.96781 0.74433 0.57898 0.0
C681 C 0.99745 0.75289 0.50154 0.0
H682 H 0.07007 0.77457 0.54173 0.0
C683 C 0.11075 0.76873 0.46047 0.0
C684 C 0.11285 0.78298 0.43291 0.0
C685 C 0.09218 0.76777 0.48354 0.0
C686 C 0.05 0.76887 0.53027 0.0
H687 H 0.90341 0.67502 0.54559 0.0
H688 H 0.9481 0.69989 0.51719 0.0
H689 H 0.02546 0.75399 0.5717 0.0
H690 H 0.09971 0.80973 0.40883 0.0
H691 H 0.06807 0.80899 0.44941 0.0
H692 H 0.02143 0.76663 0.46004 0.0
C693 C 0.94657 0.70885 0.53882 0.0
C694 C 0.02449 0.7572 0.54741 0.0
C695 C 0.92072 0.69465 0.55518 0.0
C696 C 0.09873 0.79896 0.4301 0.0
C697 C 0.08029 0.79813 0.45315 0.0
C698 C 0.02286 0.76473 0.48451 0.0
C699 C 0.9704 0.73381 0.55053 0.0
C700 C 0.99787 0.74852 0.53308 0.0
C701 C 0.07533 0.78092 0.4792 0.0
C702 C 0.0494 0.77243 0.49852 0.0
H703 H 0.94068 0.73924 0.61702 0.0
H704 H 0.98575 0.76361 0.58852 0.0
H705 H 0.97733 0.7467 0.4899 0.0
H706 H 0.12055 0.75537 0.46269 0.0
H707 H 0.0888 0.75421 0.50321 0.0
C708 C 0.28003 0.20944 0.59344 0.0
C709 C 0.30821 0.21564 0.58627 0.0
C710 C 0.2676 0.2237 0.57861 0.0
C711 C 0.28652 0.28944 0.53377 0.0
H712 H 0.20759 0.24613 0.50499 0.0
C713 C 0.24251 0.34548 0.45914 0.0
C714 C 0.23115 0.3308 0.4316 0.0
C715 C 0.24503 0.33092 0.48443 0.0
C716 C 0.22959 0.25859 0.51306 0.0
H717 H 0.34564 0.24264 0.5582 0.0
H718 H 0.32373 0.26682 0.5319 0.0
H719 H 0.22771 0.22195 0.53501 0.0
H720 H 0.21143 0.28922 0.40943 0.0
H721 H 0.21568 0.26374 0.45327 0.0
H722 H 0.28903 0.32567 0.5106 0.0
C723 C 0.31128 0.25098 0.54919 0.0
C724 C 0.24109 0.24476 0.53042 0.0
C725 C 0.3237 0.23669 0.56397 0.0
C726 C 0.21979 0.30088 0.43064 0.0
C727 C 0.22234 0.28632 0.45582 0.0
C728 C 0.27505 0.30323 0.51646 0.0
C729 C 0.28309 0.24471 0.55635 0.0
C730 C 0.26994 0.25988 0.54034 0.0
C731 C 0.23655 0.30149 0.48241 0.0
C732 C 0.24665 0.28785 0.50525 0.0
H733 H 0.26744 0.19342 0.61052 0.0
H734 H 0.24597 0.21853 0.58489 0.0
H735 H 0.30864 0.30185 0.54151 0.0
H736 H 0.25235 0.3687 0.46017 0.0
H737 H 0.25565 0.34317 0.50474 0.0
C738 C 0.66308 0.89779 0.46137 0.0
C739 C 0.67859 0.90045 0.43459 0.0
C740 C 0.67705 0.91504 0.48675 0.0
C741 C 0.74891 0.9712 0.51714 0.0
H742 H 0.70609 0.00879 0.54132 0.0
C743 C 0.79709 0.07156 0.59615 0.0
C744 C 0.79175 0.09384 0.58776 0.0
C745 C 0.78288 0.04479 0.58155 0.0
C746 C 0.71838 0.99858 0.53478 0.0
H747 H 0.72091 0.92127 0.41394 0.0
H748 H 0.74537 0.95128 0.45795 0.0
H749 H 0.68255 0.96504 0.51095 0.0
H750 H 0.76635 0.10477 0.55767 0.0
H751 H 0.74228 0.05851 0.53178 0.0
H752 H 0.78521 0.00574 0.53973 0.0
C753 C 0.72259 0.93575 0.45985 0.0
C754 C 0.70472 0.97314 0.51778 0.0
C755 C 0.70862 0.91848 0.43458 0.0
C756 C 0.77163 0.08853 0.56443 0.0
C757 C 0.75739 0.06173 0.54986 0.0
C758 C 0.7626 0.99669 0.53418 0.0
C759 C 0.70669 0.93547 0.48556 0.0
C760 C 0.71997 0.95945 0.50813 0.0
C761 C 0.76279 0.0395 0.55827 0.0
C762 C 0.74767 0.01107 0.54256 0.0
H763 H 0.63979 0.88484 0.46157 0.0
H764 H 0.66424 0.91395 0.50638 0.0
H765 H 0.76125 0.96113 0.51027 0.0
H766 H 0.81238 0.07479 0.61404 0.0
H767 H 0.78736 0.02809 0.5888 0.0
C768 C 0.36846 0.27136 0.1962 0.0
C769 C 0.37547 0.28099 0.16603 0.0
C770 C 0.36533 0.28858 0.21814 0.0
C771 C 0.34622 0.34614 0.22092 0.0
H772 H 0.35294 0.33846 0.30794 0.0
C773 C 0.27564 0.36246 0.30888 0.0
C774 C 0.28557 0.36997 0.3389 0.0
C775 C 0.29279 0.35929 0.28685 0.0
C776 C 0.35139 0.34149 0.28374 0.0
H777 H 0.38572 0.31627 0.1351 0.0
H778 H 0.38206 0.34714 0.17361 0.0
H779 H 0.37447 0.31963 0.2728 0.0
H780 H 0.32121 0.38058 0.36951 0.0
H781 H 0.35195 0.37702 0.33087 0.0
H782 H 0.32349 0.36838 0.23186 0.0
C783 C 0.37832 0.32613 0.18044 0.0
C784 C 0.36341 0.33019 0.2635 0.0
C785 C 0.38101 0.30871 0.15846 0.0
C786 C 0.31341 0.37565 0.34626 0.0
C787 C 0.33077 0.37298 0.32419 0.0
C788 C 0.33453 0.35779 0.24116 0.0
C789 C 0.36912 0.31579 0.21024 0.0
C790 C 0.36028 0.3316 0.2318 0.0
C791 C 0.32024 0.3635 0.29451 0.0
C792 C 0.33623 0.35493 0.27288 0.0
H793 H 0.36323 0.24967 0.20225 0.0
H794 H 0.35788 0.27958 0.24065 0.0
H795 H 0.34298 0.34746 0.19672 0.0
H796 H 0.25382 0.35698 0.30302 0.0
H797 H 0.28363 0.35157 0.26446 0.0
C798 C 0.7063 0.06937 0.15577 0.0
C799 C 0.73316 0.09281 0.16376 0.0
C800 C 0.68914 0.04906 0.17766 0.0
C801 C 0.66949 0.99801 0.21933 0.0
H802 H 0.67472 0.01372 0.30604 0.0
C803 C 0.6508 0.91239 0.30976 0.0
C804 C 0.64272 0.91534 0.33934 0.0
C805 C 0.65464 0.93245 0.28716 0.0
C806 C 0.67236 0.00875 0.2819 0.0
H807 H 0.76339 0.11366 0.20058 0.0
H808 H 0.73408 0.07784 0.23885 0.0
H809 H 0.6939 0.05346 0.27021 0.0
H810 H 0.63135 0.94069 0.36853 0.0
H811 H 0.636 0.97454 0.3288 0.0
H812 H 0.64734 0.95329 0.231 0.0
C813 C 0.72543 0.07554 0.21604 0.0
C814 C 0.68391 0.03174 0.26127 0.0
C815 C 0.74232 0.09618 0.19417 0.0
C816 C 0.63693 0.9376 0.34563 0.0
C817 C 0.6402 0.95734 0.32296 0.0
C818 C 0.65751 0.97502 0.23994 0.0
C819 C 0.69899 0.05115 0.20785 0.0
C820 C 0.68334 0.02675 0.22971 0.0
C821 C 0.65038 0.95584 0.29377 0.0
C822 C 0.65946 0.98004 0.27157 0.0
H823 H 0.69912 0.06599 0.13225 0.0
H824 H 0.66868 0.03107 0.17054 0.0
H825 H 0.66884 0.99309 0.19529 0.0
H826 H 0.65619 0.89583 0.30473 0.0
H827 H 0.66284 0.93063 0.26518 0.0
C828 C 0.91385 0.64503 0.19532 0.0
C829 C 0.91876 0.63874 0.16563 0.0
C830 C 0.93374 0.64994 0.21853 0.0
C831 C 0.99665 0.64441 0.24241 0.0
H832 H 0.02561 0.72179 0.27373 0.0
C833 C 0.07497 0.69986 0.34538 0.0
C834 C 0.09723 0.72818 0.34016 0.0
C835 C 0.05489 0.68458 0.32245 0.0
C836 C 0.01781 0.7002 0.26508 0.0
H837 H 0.9479 0.6323 0.13678 0.0
H838 H 0.98207 0.6397 0.17755 0.0
H839 H 0.98368 0.70059 0.24008 0.0
H840 H 0.11652 0.76271 0.30714 0.0
H841 H 0.08124 0.73611 0.26698 0.0
H842 H 0.03077 0.64408 0.26806 0.0
C843 C 0.9627 0.64041 0.18305 0.0
C844 C 0.99361 0.68794 0.24619 0.0
C845 C 0.94307 0.636 0.15978 0.0
C846 C 0.10001 0.74058 0.3113 0.0
C847 C 0.0797 0.7255 0.28852 0.0
C848 C 0.02059 0.6565 0.26197 0.0
C849 C 0.95883 0.6486 0.2123 0.0
C850 C 0.98289 0.66002 0.23452 0.0
C851 C 0.05637 0.69779 0.29431 0.0
C852 C 0.03155 0.68466 0.27311 0.0
H853 H 0.89589 0.64841 0.20003 0.0
H854 H 0.93038 0.65637 0.2409 0.0
H855 H 0.98884 0.62291 0.23351 0.0
H856 H 0.07191 0.69028 0.36782 0.0
H857 H 0.03692 0.66339 0.32755 0.0
C858 C 0.73871 0.64533 0.69646 0.0
C859 C 0.72875 0.63779 0.66646 0.0
C860 C 0.72147 0.64827 0.71854 0.0
C861 C 0.66288 0.66583 0.72208 0.0
H862 H 0.67096 0.6588 0.80898 0.0
C863 C 0.6469 0.73573 0.81085 0.0
C864 C 0.63956 0.72569 0.84084 0.0
C865 C 0.64978 0.7186 0.7886 0.0
C866 C 0.66782 0.66041 0.78481 0.0
H867 H 0.69302 0.62675 0.63589 0.0
H868 H 0.6622 0.63027 0.67461 0.0
H869 H 0.69034 0.63807 0.77343 0.0
H870 H 0.6284 0.68979 0.87117 0.0
H871 H 0.63178 0.65914 0.83212 0.0
H872 H 0.64011 0.68793 0.73346 0.0
C873 C 0.68342 0.63442 0.68123 0.0
C874 C 0.67942 0.64887 0.76435 0.0
C875 C 0.70084 0.63187 0.65913 0.0
C876 C 0.63348 0.6977 0.84794 0.0
C877 C 0.63594 0.68039 0.82567 0.0
C878 C 0.65097 0.67708 0.74254 0.0
C879 C 0.69395 0.64384 0.71093 0.0
C880 C 0.67787 0.65215 0.7327 0.0
C881 C 0.64542 0.69109 0.79603 0.0
C882 C 0.65401 0.67529 0.7742 0.0
H883 H 0.76057 0.65091 0.7023 0.0
H884 H 0.7306 0.65595 0.74095 0.0
H885 H 0.66143 0.66913 0.69792 0.0
H886 H 0.65257 0.75762 0.80517 0.0
H887 H 0.65747 0.72785 0.76623 0.0
C888 C 0.37776 0.06744 0.65643 0.0
C889 C 0.37373 0.09076 0.66325 0.0
C890 C 0.37433 0.04756 0.67897 0.0
C891 C 0.35898 0.03068 0.76248 0.0
H892 H 0.32028 0.9521 0.73246 0.0
C893 C 0.27327 0.91017 0.80941 0.0
C894 C 0.28284 0.9136 0.83966 0.0
C895 C 0.29005 0.93055 0.78727 0.0
C896 C 0.33089 0.97386 0.74135 0.0
H897 H 0.36271 0.11162 0.69867 0.0
H898 H 0.3556 0.07649 0.738 0.0
H899 H 0.33923 0.99167 0.69653 0.0
H900 H 0.31751 0.94029 0.8706 0.0
H901 H 0.34784 0.97455 0.83179 0.0
H902 H 0.34842 0.01282 0.80726 0.0
C903 C 0.3628 0.07407 0.71569 0.0
C904 C 0.34234 0.99676 0.72063 0.0
C905 C 0.36697 0.09438 0.6932 0.0
C906 C 0.31005 0.93675 0.84718 0.0
C907 C 0.32712 0.95676 0.825 0.0
C908 C 0.34705 0.00776 0.7832 0.0
C909 C 0.36547 0.04979 0.70861 0.0
C910 C 0.35616 0.02556 0.73085 0.0
C911 C 0.31683 0.95471 0.79501 0.0
C912 C 0.33237 0.97898 0.77294 0.0
H913 H 0.38216 0.06373 0.63326 0.0
H914 H 0.37736 0.02971 0.67269 0.0
H915 H 0.36987 0.05244 0.77136 0.0
H916 H 0.25194 0.89291 0.80337 0.0
H917 H 0.28103 0.92825 0.76465 0.0
C918 C 0.91766 0.27199 0.69305 0.0
C919 C 0.9206 0.28236 0.66318 0.0
C920 C 0.93797 0.28853 0.71533 0.0
C921 C 0.01465 0.34613 0.71973 0.0
H922 H 0.99886 0.3367 0.80648 0.0
C923 C 0.10071 0.36222 0.80846 0.0
C924 C 0.09776 0.36913 0.83856 0.0
C925 C 0.08047 0.35898 0.78631 0.0
C926 C 1.00382 0.34022 0.78237 0.0
H927 H 0.94629 0.31813 0.63302 0.0
H928 H 0.98071 0.34783 0.67213 0.0
H929 H 0.95907 0.31824 0.77068 0.0
H930 H 0.072 0.37867 0.86928 0.0
H931 H 0.03776 0.37495 0.83046 0.0
H932 H 0.05941 0.3686 0.73144 0.0
C933 C 0.96326 0.32676 0.67848 0.0
C934 C 0.98084 0.32912 0.76174 0.0
C935 C 0.94324 0.31 0.65616 0.0
C936 C 0.07515 0.37411 0.84596 0.0
C937 C 0.0552 0.37139 0.82379 0.0
C938 C 0.03764 0.35762 0.74037 0.0
C939 C 0.96162 0.31579 0.70807 0.0
C940 C 0.98589 0.33117 0.73011 0.0
C941 C 0.05684 0.36257 0.79395 0.0
C942 C 0.03258 0.35412 0.77199 0.0
H943 H 0.90084 0.25033 0.69864 0.0
H944 H 0.93607 0.27903 0.73762 0.0
H945 H 0.01961 0.34795 0.69561 0.0
H946 H 0.11748 0.35737 0.80254 0.0
H947 H 0.08237 0.35177 0.7638 0.0
C948 C 0.49554 0.23763 0.13175 0.0
C949 C 0.46869 0.2187 0.11841 0.0
C950 C 0.5173 0.23043 0.13312 0.0
C951 C 0.53916 0.18026 0.09964 0.0
H952 H 0.58755 0.19981 0.17165 0.0
C953 C 0.60837 0.12855 0.12335 0.0
C954 C 0.63767 0.14713 0.13017 0.0
C955 C 0.58877 0.1385 0.12346 0.0
C956 C 0.57434 0.19444 0.15131 0.0
H957 H 0.44373 0.17727 0.09613 0.0
H958 H 0.48124 0.1644 0.09918 0.0
H959 H 0.55137 0.21484 0.16804 0.0
H960 H 0.66892 0.19098 0.14344 0.0
H961 H 0.63429 0.20807 0.14438 0.0
H962 H 0.56161 0.15921 0.08333 0.0
C963 C 0.48585 0.18516 0.10796 0.0
C964 C 0.55367 0.20312 0.14914 0.0
C965 C 0.46421 0.19248 0.10634 0.0
C966 C 0.64655 0.17578 0.13851 0.0
C967 C 0.62674 0.1857 0.13888 0.0
C968 C 0.55955 0.17135 0.10198 0.0
C969 C 0.51271 0.20401 0.1214 0.0
C970 C 0.5356 0.1959 0.12336 0.0
C971 C 0.59781 0.1673 0.13059 0.0
C972 C 0.57716 0.17808 0.12794 0.0
H973 H 0.49982 0.2581 0.14114 0.0
H974 H 0.53781 0.2457 0.14318 0.0
H975 H 0.52623 0.1749 0.07911 0.0
H976 H 0.60055 0.10628 0.11717 0.0
H977 H 0.5665 0.12369 0.11753 0.0
C978 C 0.80216 0.26863 0.09842 0.0
C979 C 0.78732 0.24849 0.12166 0.0
C980 C 0.8078 0.29703 0.10106 0.0
C981 C 0.82007 0.35157 0.15766 0.0
H982 H 0.80468 0.39046 0.09184 0.0
C983 C 0.87458 0.47516 0.1446 0.0
C984 C 0.85689 0.48675 0.13728 0.0
C985 C 0.86323 0.44538 0.14575 0.0
C986 C 0.80884 0.37976 0.1105 0.0
H987 H 0.76671 0.24239 0.16587 0.0
H988 H 0.77718 0.29209 0.17067 0.0
H989 H 0.79038 0.33947 0.08655 0.0
H990 H 0.81337 0.47631 0.12563 0.0
H991 H 0.79357 0.42395 0.12702 0.0
H992 H 0.83944 0.3921 0.18117 0.0
C993 C 0.7842 0.2858 0.15035 0.0
C994 C 0.8009 0.35073 0.10736 0.0
C995 C 0.77811 0.25733 0.14749 0.0
C996 C 0.8274 0.46795 0.13178 0.0
C997 C 0.81615 0.43806 0.13229 0.0
C998 C 0.82848 0.38072 0.16056 0.0
C999 C 0.79917 0.30595 0.12722 0.0
C1000 C 0.80658 0.33641 0.13086 0.0
C1001 C 0.83407 0.42655 0.13893 0.0
C1002 C 0.82308 0.39513 0.13695 0.0
H1003 H 0.80946 0.26248 0.07821 0.0
H1004 H 0.81955 0.31222 0.08298 0.0
H1005 H 0.82484 0.34108 0.17605 0.0
H1006 H 0.89739 0.48919 0.14881 0.0
H1007 H 0.87755 0.43707 0.15071 0.0
C1008 C 0.75468 0.51634 0.13568 0.0
C1009 C 0.76217 0.5432 0.12263 0.0
C1010 C 0.72575 0.49482 0.1384 0.0
C1011 C 0.65288 0.48478 0.14359 0.0
H1012 H 0.62693 0.40613 0.11864 0.0
C1013 C 0.533 0.40266 0.12554 0.0
C1014 C 0.52246 0.37328 0.1316 0.0
C1015 C 0.56233 0.42268 0.12795 0.0
C1016 C 0.63384 0.42784 0.12629 0.0
H1017 H 0.74501 0.56831 0.10198 0.0
H1018 H 0.69456 0.53082 0.10698 0.0
H1019 H 0.67803 0.44227 0.11516 0.0
H1020 H 0.53506 0.34219 0.1455 0.0
H1021 H 0.58618 0.37737 0.15069 0.0
H1022 H 0.60896 0.47056 0.15498 0.0
C1023 C 0.71113 0.5265 0.11516 0.0
C1024 C 0.66313 0.44858 0.12413 0.0
C1025 C 0.74005 0.5479 0.1121 0.0
C1026 C 0.54211 0.36462 0.14109 0.0
C1027 C 0.5716 0.38478 0.14362 0.0
C1028 C 0.6237 0.46404 0.14606 0.0
C1029 C 0.70366 0.49979 0.1285 0.0
C1030 C 0.67287 0.47737 0.13226 0.0
C1031 C 0.58214 0.41403 0.13664 0.0
C1032 C 0.61366 0.43539 0.1369 0.0
H1033 H 0.77118 0.51196 0.14397 0.0
H1034 H 0.72065 0.4745 0.14888 0.0
H1035 H 0.65984 0.50668 0.1506 0.0
H1036 H 0.51861 0.41024 0.11823 0.0
H1037 H 0.56954 0.44485 0.1219 0.0
C1038 C 0.13333 0.60414 0.38159 0.0
C1039 C 0.15215 0.63352 0.37541 0.0
C1040 C 0.14301 0.58435 0.38061 0.0
C1041 C 0.19855 0.56978 0.35153 0.0
H1042 H 0.17838 0.52027 0.42263 0.0
C1043 C 0.24114 0.4902 0.36947 0.0
C1044 C 0.22214 0.4633 0.38263 0.0
C1045 C 0.2339 0.51193 0.36814 0.0
C1046 C 0.1839 0.53358 0.40239 0.0
H1047 H 0.19608 0.66472 0.36231 0.0
H1048 H 0.21273 0.62976 0.35993 0.0
H1049 H 0.16321 0.55607 0.41958 0.0
H1050 H 0.18044 0.43812 0.40441 0.0
H1051 H 0.16752 0.47557 0.40142 0.0
H1052 H 0.21865 0.54681 0.33396 0.0
C1053 C 0.19039 0.6223 0.36558 0.0
C1054 C 0.17529 0.55421 0.40072 0.0
C1055 C 0.18074 0.6423 0.36679 0.0
C1056 C 0.19571 0.45864 0.39434 0.0
C1057 C 0.18837 0.48025 0.39277 0.0
C1058 C 0.20694 0.54886 0.35303 0.0
C1059 C 0.17176 0.59327 0.37327 0.0
C1060 C 0.18225 0.57235 0.37517 0.0
C1061 C 0.20739 0.50725 0.37975 0.0
C1062 C 0.19947 0.53029 0.37839 0.0
H1063 H 0.11109 0.59641 0.38793 0.0
H1064 H 0.12801 0.56202 0.38608 0.0
H1065 H 0.20409 0.5834 0.33151 0.0
H1066 H 0.26176 0.4946 0.36035 0.0
H1067 H 0.24928 0.53253 0.35836 0.0
C1068 C 0.54601 0.73941 0.40516 0.0
C1069 C 0.54626 0.75974 0.38471 0.0
C1070 C 0.52444 0.71048 0.4035 0.0
C1071 C 0.45136 0.66118 0.37245 0.0
H1072 H 0.47385 0.6037 0.38673 0.0
C1073 C 0.37418 0.53673 0.35879 0.0
C1074 C 0.37537 0.52 0.383 0.0
C1075 C 0.39417 0.56635 0.35706 0.0
C1076 C 0.4672 0.6195 0.3828 0.0
H1077 H 0.52363 0.7655 0.34667 0.0
H1078 H 0.48631 0.71495 0.3435 0.0
H1079 H 0.51026 0.65453 0.38768 0.0
H1080 H 0.39839 0.52205 0.42471 0.0
H1081 H 0.43285 0.57294 0.42133 0.0
H1082 H 0.40815 0.62575 0.36747 0.0
C1083 C 0.50259 0.72146 0.3611 0.0
C1084 C 0.48805 0.64867 0.38349 0.0
C1085 C 0.52411 0.75046 0.36285 0.0
C1086 C 0.39681 0.53385 0.40543 0.0
C1087 C 0.41674 0.56316 0.40355 0.0
C1088 C 0.43044 0.63186 0.37157 0.0
C1089 C 0.50263 0.70104 0.38123 0.0
C1090 C 0.48038 0.66994 0.37887 0.0
C1091 C 0.4159 0.57973 0.37924 0.0
C1092 C 0.4381 0.61075 0.3773 0.0
H1093 H 0.56254 0.74578 0.42247 0.0
H1094 H 0.52484 0.6955 0.41982 0.0
H1095 H 0.44463 0.67696 0.36897 0.0
H1096 H 0.3584 0.52705 0.34077 0.0
H1097 H 0.39312 0.57863 0.33796 0.0
C1098 C 0.48248 0.87859 0.37753 0.0
C1099 C 0.49324 0.85983 0.37193 0.0
C1100 C 0.45294 0.86859 0.37706 0.0
C1101 C 0.38249 0.81192 0.3506 0.0
H1102 H 0.35457 0.83289 0.42234 0.0
C1103 C 0.26066 0.76918 0.37154 0.0
C1104 C 0.25296 0.78837 0.38464 0.0
C1105 C 0.28961 0.77637 0.3697 0.0
C1106 C 0.36195 0.82713 0.40193 0.0
H1107 H 0.48087 0.81571 0.36019 0.0
H1108 H 0.42909 0.79848 0.35865 0.0
H1109 H 0.40557 0.84852 0.41778 0.0
H1110 H 0.26979 0.83034 0.40583 0.0
H1111 H 0.32009 0.84317 0.40193 0.0
H1112 H 0.33896 0.79116 0.33433 0.0
C1113 C 0.44385 0.821 0.36349 0.0
C1114 C 0.39121 0.83601 0.39941 0.0
C1115 C 0.47359 0.83098 0.36421 0.0
C1116 C 0.27489 0.81491 0.39586 0.0
C1117 C 0.3038 0.82221 0.39376 0.0
C1118 C 0.35315 0.80328 0.35295 0.0
C1119 C 0.43326 0.83957 0.37078 0.0
C1120 C 0.40186 0.82878 0.3736 0.0
C1121 C 0.3116 0.80304 0.3807 0.0
C1122 C 0.34255 0.81104 0.37854 0.0
H1123 H 0.49688 0.90101 0.38316 0.0
H1124 H 0.44541 0.88352 0.38219 0.0
H1125 H 0.39017 0.80614 0.33042 0.0
H1126 H 0.2443 0.74849 0.36279 0.0
H1127 H 0.29469 0.76088 0.35992 0.0
C1128 C 0.37015 0.83334 0.86496 0.0
C1129 C 0.37868 0.86201 0.87281 0.0
C1130 C 0.39039 0.82397 0.86424 0.0
C1131 C 0.45892 0.84048 0.89958 0.0
H1132 H 0.46577 0.79513 0.83466 0.0
C1133 C 0.55398 0.81876 0.89541 0.0
C1134 C 0.54903 0.79206 0.8843 0.0
C1135 C 0.53253 0.82633 0.89343 0.0
C1136 C 0.46388 0.80741 0.85324 0.0
H1137 H 0.41559 0.9035 0.88446 0.0
H1138 H 0.45042 0.88706 0.88345 0.0
H1139 H 0.42924 0.8097 0.83118 0.0
H1140 H 0.51733 0.75216 0.86286 0.0
H1141 H 0.4797 0.765 0.86024 0.0
H1142 H 0.49295 0.83788 0.92205 0.0
C1143 C 0.4281 0.87179 0.87821 0.0
C1144 C 0.443 0.81582 0.85114 0.0
C1145 C 0.40806 0.88119 0.87869 0.0
C1146 C 0.52197 0.77299 0.87149 0.0
C1147 C 0.50041 0.78045 0.86978 0.0
C1148 C 0.47953 0.83184 0.90186 0.0
C1149 C 0.41943 0.84296 0.87166 0.0
C1150 C 0.44058 0.83277 0.87411 0.0
C1151 C 0.50541 0.80728 0.88062 0.0
C1152 C 0.48258 0.81548 0.87856 0.0
H1153 H 0.34775 0.81772 0.86076 0.0
H1154 H 0.38311 0.80157 0.85921 0.0
H1155 H 0.4572 0.85308 0.91794 0.0
H1156 H 0.57463 0.83408 0.90519 0.0
H1157 H 0.53745 0.8474 0.90152 0.0
C1158 C 0.24514 0.75131 0.87349 0.0
C1159 C 0.22626 0.75898 0.88748 0.0
C1160 C 0.23828 0.72245 0.87218 0.0
C1161 C 0.1895 0.65064 0.90684 0.0
H1162 H 0.20656 0.62126 0.83356 0.0
C1163 C 0.13555 0.52986 0.88281 0.0
C1164 C 0.15363 0.51866 0.8754 0.0
C1165 C 0.146 0.55946 0.8828 0.0
C1166 C 0.20192 0.62926 0.85424 0.0
H1167 H 0.18529 0.74218 0.91099 0.0
H1168 H 0.17308 0.69211 0.90812 0.0
H1169 H 0.22201 0.67253 0.83734 0.0
H1170 H 0.19712 0.53051 0.86118 0.0
H1171 H 0.21504 0.58232 0.8604 0.0
H1172 H 0.16868 0.60727 0.92331 0.0
C1173 C 0.19355 0.70834 0.89877 0.0
C1174 C 0.21083 0.65864 0.85651 0.0
C1175 C 0.2005 0.73714 0.90031 0.0
C1176 C 0.18228 0.53804 0.86658 0.0
C1177 C 0.19268 0.56783 0.8663 0.0
C1178 C 0.18034 0.62134 0.90441 0.0
C1179 C 0.2123 0.70055 0.88466 0.0
C1180 C 0.20441 0.66965 0.88272 0.0
C1181 C 0.1748 0.5788 0.87518 0.0
C1182 C 0.18612 0.61027 0.87796 0.0
H1183 H 0.26523 0.76759 0.86346 0.0
H1184 H 0.25346 0.71737 0.86153 0.0
H1185 H 0.1848 0.65836 0.92769 0.0
H1186 H 0.1133 0.51574 0.88937 0.0
H1187 H 0.13158 0.56729 0.88921 0.0
C1188 C 0.26049 0.49296 0.86712 0.0
C1189 C 0.25348 0.46634 0.88046 0.0
C1190 C 0.28929 0.51458 0.86371 0.0
C1191 C 0.36204 0.525 0.8565 0.0
H1192 H 0.38852 0.60348 0.88248 0.0
C1193 C 0.48188 0.60622 0.87488 0.0
C1194 C 0.4926 0.63576 0.86974 0.0
C1195 C 0.45256 0.58639 0.87192 0.0
C1196 C 0.38144 0.58183 0.8745 0.0
H1197 H 0.27132 0.44174 0.9009 0.0
H1198 H 0.32155 0.4794 0.89462 0.0
H1199 H 0.33745 0.56739 0.88658 0.0
H1200 H 0.48048 0.66738 0.85665 0.0
H1201 H 0.42931 0.63254 0.85052 0.0
H1202 H 0.40575 0.53921 0.84418 0.0
C1203 C 0.30471 0.48345 0.88678 0.0
C1204 C 0.35218 0.56113 0.87703 0.0
C1205 C 0.27593 0.46198 0.89058 0.0
C1206 C 0.47322 0.64482 0.86039 0.0
C1207 C 0.44373 0.62484 0.85732 0.0
C1208 C 0.39118 0.54572 0.85363 0.0
C1209 C 0.31169 0.50991 0.87315 0.0
C1210 C 0.34231 0.53238 0.86864 0.0
C1211 C 0.43297 0.59543 0.86357 0.0
C1212 C 0.40142 0.57428 0.86322 0.0
H1213 H 0.24372 0.49706 0.85915 0.0
H1214 H 0.29406 0.53473 0.85305 0.0
H1215 H 0.35493 0.50312 0.84928 0.0
H1216 H 0.49609 0.59837 0.88203 0.0
H1217 H 0.44517 0.56407 0.87741 0.0
C1218 C 0.77224 0.51671 0.63787 0.0
C1219 C 0.79102 0.54353 0.62442 0.0
C1220 C 0.77979 0.49521 0.63956 0.0
C1221 C 0.83042 0.47412 0.60587 0.0
H1222 H 0.81104 0.42509 0.67733 0.0
C1223 C 0.88291 0.40558 0.6278 0.0
C1224 C 0.86436 0.3761 0.63365 0.0
C1225 C 0.8728 0.42502 0.62881 0.0
C1226 C 0.81637 0.4385 0.65716 0.0
H1227 H 0.83268 0.56886 0.60261 0.0
H1228 H 0.84613 0.53186 0.60624 0.0
H1229 H 0.79565 0.46105 0.67428 0.0
H1230 H 0.82051 0.34432 0.64636 0.0
H1231 H 0.80311 0.37867 0.64884 0.0
H1232 H 0.85174 0.4521 0.58915 0.0
C1233 C 0.8252 0.52702 0.61479 0.0
C1234 C 0.80749 0.45904 0.65532 0.0
C1235 C 0.81755 0.54838 0.61284 0.0
C1236 C 0.83564 0.36684 0.64213 0.0
C1237 C 0.82555 0.38649 0.64339 0.0
C1238 C 0.83952 0.45389 0.60789 0.0
C1239 C 0.8064 0.50009 0.62805 0.0
C1240 C 0.81468 0.47734 0.62975 0.0
C1241 C 0.84388 0.41561 0.63589 0.0
C1242 C 0.83288 0.43608 0.63366 0.0
H1243 H 0.75156 0.5122 0.64692 0.0
H1244 H 0.76458 0.47465 0.64955 0.0
H1245 H 0.83571 0.4872 0.58547 0.0
H1246 H 0.90524 0.41365 0.62158 0.0
H1247 H 0.88755 0.44745 0.62348 0.0
C1248 C 0.49431 0.25667 0.63503 0.0
C1249 C 0.46774 0.24865 0.62093 0.0
C1250 C 0.51603 0.28562 0.63636 0.0
C1251 C 0.53848 0.35694 0.60095 0.0
H1252 H 0.58582 0.38717 0.6735 0.0
C1253 C 0.60707 0.4781 0.62218 0.0
C1254 C 0.63629 0.489 0.62958 0.0
C1255 C 0.58755 0.44859 0.62283 0.0
C1256 C 0.57291 0.37893 0.65302 0.0
H1257 H 0.44315 0.26494 0.59739 0.0
H1258 H 0.48053 0.31525 0.60036 0.0
H1259 H 0.54969 0.33594 0.67067 0.0
H1260 H 0.66747 0.4768 0.64447 0.0
H1261 H 0.63297 0.42514 0.64631 0.0
H1262 H 0.56117 0.40003 0.58367 0.0
C1263 C 0.48499 0.29919 0.60976 0.0
C1264 C 0.55226 0.34957 0.65131 0.0
C1265 C 0.46341 0.27027 0.6082 0.0
C1266 C 0.64515 0.46947 0.63904 0.0
C1267 C 0.62541 0.43978 0.63995 0.0
C1268 C 0.55883 0.38622 0.60282 0.0
C1269 C 0.51163 0.3073 0.6238 0.0
C1270 C 0.53455 0.33825 0.62534 0.0
C1271 C 0.59659 0.42905 0.63109 0.0
C1272 C 0.57605 0.39761 0.62898 0.0
H1273 H 0.49844 0.24056 0.64495 0.0
H1274 H 0.53637 0.29094 0.64695 0.0
H1275 H 0.52585 0.34897 0.58027 0.0
H1276 H 0.59926 0.49237 0.61514 0.0
H1277 H 0.56534 0.44098 0.61643 0.0
C1278 C 0.74359 0.20939 0.60094 0.0
C1279 C 0.76409 0.22478 0.62372 0.0
C1280 C 0.71513 0.20356 0.604 0.0
C1281 C 0.66126 0.19228 0.66127 0.0
H1282 H 0.62162 0.20686 0.5956 0.0
C1283 C 0.53744 0.1381 0.64947 0.0
C1284 C 0.52587 0.15567 0.64158 0.0
C1285 C 0.56725 0.14944 0.65072 0.0
C1286 C 0.63253 0.20295 0.61422 0.0
H1287 H 0.77071 0.24604 0.6676 0.0
H1288 H 0.72093 0.23524 0.67313 0.0
H1289 H 0.67247 0.22073 0.58961 0.0
H1290 H 0.53632 0.19898 0.62921 0.0
H1291 H 0.58873 0.21878 0.63078 0.0
H1292 H 0.62106 0.17359 0.68546 0.0
C1293 C 0.72698 0.22795 0.65285 0.0
C1294 C 0.66148 0.21062 0.61068 0.0
C1295 C 0.7555 0.23422 0.64956 0.0
C1296 C 0.54469 0.18507 0.63582 0.0
C1297 C 0.5746 0.19631 0.63642 0.0
C1298 C 0.63218 0.18413 0.66458 0.0
C1299 C 0.70651 0.21254 0.63014 0.0
C1300 C 0.67607 0.20523 0.63412 0.0
C1301 C 0.58611 0.17845 0.64341 0.0
C1302 C 0.61751 0.18926 0.64104 0.0
H1303 H 0.74955 0.20191 0.58073 0.0
H1304 H 0.69968 0.19148 0.58624 0.0
H1305 H 0.67197 0.18776 0.67963 0.0
H1306 H 0.52338 0.11533 0.65382 0.0
H1307 H 0.57554 0.13516 0.65596 0.0
C1308 C 0.41467 0.16019 0.75968 0.0
C1309 C 0.40793 0.1755 0.73829 0.0
C1310 C 0.41276 0.1641 0.79107 0.0
C1311 C 0.41367 0.21694 0.84596 0.0
H1312 H 0.38229 0.15295 0.90282 0.0
C1313 C 0.42493 0.23327 0.97666 0.0
C1314 C 0.40104 0.21509 0.99487 0.0
C1315 C 0.42488 0.22827 0.94533 0.0
C1316 C 0.39092 0.17103 0.8872 0.0
H1317 H 0.39326 0.20643 0.73319 0.0
H1318 H 0.38989 0.21311 0.78762 0.0
H1319 H 0.38358 0.14391 0.84828 0.0
H1320 H 0.3581 0.17761 0.99422 0.0
H1321 H 0.358 0.16897 0.93943 0.0
H1322 H 0.42082 0.24405 0.8847 0.0
C1323 C 0.39701 0.19838 0.78025 0.0
C1324 C 0.39195 0.16588 0.85599 0.0
C1325 C 0.39879 0.19439 0.74898 0.0
C1326 C 0.37689 0.19202 0.98088 0.0
C1327 C 0.37691 0.18693 0.94952 0.0
C1328 C 0.41278 0.2221 0.87711 0.0
C1329 C 0.40421 0.18351 0.80171 0.0
C1330 C 0.40329 0.18878 0.83498 0.0
C1331 C 0.40098 0.2049 0.93139 0.0
C1332 C 0.4014 0.19923 0.89814 0.0
H1333 H 0.42165 0.14538 0.75219 0.0
H1334 H 0.41861 0.15242 0.807 0.0
H1335 H 0.42283 0.23513 0.83047 0.0
H1336 H 0.44392 0.2512 0.98666 0.0
H1337 H 0.4439 0.24237 0.93212 0.0
C1338 C 0.82306 0.21078 0.74994 0.0
C1339 C 0.84021 0.23889 0.73859 0.0
C1340 C 0.81987 0.20558 0.78131 0.0
C1341 C 0.82479 0.2411 0.8548 0.0
H1342 H 0.82068 0.17215 0.88836 0.0
C1343 C 0.78221 0.2011 0.97632 0.0
C1344 C 0.79694 0.19077 0.99417 0.0
C1345 C 0.78855 0.20699 0.9453 0.0
C1346 C 0.82201 0.19163 0.87944 0.0
H1347 H 0.86802 0.28355 0.75142 0.0
H1348 H 0.86255 0.27442 0.80644 0.0
H1349 H 0.83163 0.18339 0.83438 0.0
H1350 H 0.82948 0.17792 0.99319 0.0
H1351 H 0.84061 0.18832 0.93907 0.0
H1352 H 0.81545 0.24948 0.89992 0.0
C1353 C 0.85128 0.25645 0.79093 0.0
C1354 C 0.82801 0.19794 0.84841 0.0
C1355 C 0.85451 0.26167 0.75942 0.0
C1356 C 0.8177 0.18583 0.9801 0.0
C1357 C 0.82402 0.19171 0.94904 0.0
C1358 C 0.81875 0.23477 0.88582 0.0
C1359 C 0.83377 0.22833 0.80224 0.0
C1360 C 0.82921 0.22261 0.83563 0.0
C1361 C 0.80975 0.20268 0.93133 0.0
C1362 C 0.81702 0.20981 0.89848 0.0
H1363 H 0.8117 0.19269 0.73458 0.0
H1364 H 0.80591 0.18373 0.78915 0.0
H1365 H 0.8253 0.26014 0.8457 0.0
H1366 H 0.76602 0.20505 0.98637 0.0
H1367 H 0.77675 0.21489 0.93223 0.0
C1368 C 0.77586 0.60593 0.98738 0.0
C1369 C 0.80362 0.61734 0.99991 0.0
C1370 C 0.77185 0.60463 0.95581 0.0
C1371 C 0.80969 0.63533 0.88292 0.0
H1372 H 0.74477 0.56716 0.84824 0.0
C1373 C 0.7969 0.61306 0.7533 0.0
C1374 C 0.76915 0.6012 0.74059 0.0
C1375 C 0.80088 0.61581 0.78488 0.0
C1376 C 0.76278 0.58651 0.85758 0.0
H1377 H 0.84905 0.63656 0.98898 0.0
H1378 H 0.84202 0.63401 0.93365 0.0
H1379 H 0.75272 0.57025 0.9032 0.0
H1380 H 0.72382 0.58339 0.75116 0.0
H1381 H 0.73078 0.58827 0.8065 0.0
H1382 H 0.81983 0.65146 0.8372 0.0
C1383 C 0.82335 0.62633 0.94836 0.0
C1384 C 0.76738 0.58828 0.88911 0.0
C1385 C 0.82738 0.62765 0.98006 0.0
C1386 C 0.74545 0.59242 0.76024 0.0
C1387 C 0.74944 0.59512 0.79193 0.0
C1388 C 0.80511 0.63352 0.85135 0.0
C1389 C 0.79548 0.61465 0.93586 0.0
C1390 C 0.79088 0.61272 0.9022 0.0
C1391 C 0.77722 0.60677 0.80462 0.0
C1392 C 0.78161 0.60907 0.83829 0.0
H1393 H 0.75706 0.59793 1.00196 0.0
H1394 H 0.75016 0.59598 0.94705 0.0
H1395 H 0.82773 0.65464 0.89225 0.0
H1396 H 0.81567 0.62007 0.73887 0.0
H1397 H 0.8225 0.62452 0.79384 0.0
C1398 C 0.22884 0.42508 0.52515 0.0
C1399 C 0.21522 0.39951 0.50799 0.0
C1400 C 0.22264 0.42501 0.55617 0.0
C1401 C 0.19261 0.37728 0.62334 0.0
H1402 H 0.18646 0.44123 0.65625 0.0
C1403 C 0.19508 0.39819 0.75247 0.0
C1404 C 0.1772 0.40807 0.76444 0.0
C1405 C 0.19736 0.39571 0.72102 0.0
C1406 C 0.18777 0.42304 0.6474 0.0
H1407 H 0.1847 0.35366 0.51018 0.0
H1408 H 0.17377 0.35356 0.56431 0.0
H1409 H 0.19496 0.43955 0.60178 0.0
H1410 H 0.14722 0.4226 0.75261 0.0
H1411 H 0.15115 0.41818 0.69739 0.0
H1412 H 0.1852 0.36065 0.6689 0.0
C1413 C 0.18941 0.37367 0.55381 0.0
C1414 C 0.19303 0.42227 0.61621 0.0
C1415 C 0.19561 0.37374 0.52273 0.0
C1416 C 0.16134 0.41511 0.74412 0.0
C1417 C 0.16367 0.41267 0.7125 0.0
C1418 C 0.18739 0.37808 0.65452 0.0
C1419 C 0.20266 0.39937 0.57086 0.0
C1420 C 0.19584 0.39954 0.60384 0.0
C1421 C 0.1818 0.40299 0.70057 0.0
C1422 C 0.18525 0.40114 0.66702 0.0
H1423 H 0.24414 0.4453 0.51459 0.0
H1424 H 0.23367 0.44509 0.56869 0.0
H1425 H 0.1948 0.35954 0.61468 0.0
H1426 H 0.20766 0.39258 0.7674 0.0
H1427 H 0.21187 0.38864 0.7127 0.0
C1428 C 0.63523 0.8208 0.525 0.0
C1429 C 0.61113 0.81976 0.51088 0.0
C1430 C 0.63491 0.81521 0.55628 0.0
C1431 C 0.59856 0.81391 0.62842 0.0
H1432 H 0.62778 0.76488 0.65727 0.0
C1433 C 0.61426 0.8015 0.75631 0.0
C1434 C 0.60497 0.77359 0.76742 0.0
C1435 C 0.61549 0.80678 0.72499 0.0
C1436 C 0.61939 0.77847 0.64953 0.0
H1437 H 0.56799 0.8125 0.51876 0.0
H1438 H 0.56752 0.80293 0.57318 0.0
H1439 H 0.62906 0.7752 0.60269 0.0
H1440 H 0.59037 0.72942 0.75417 0.0
H1441 H 0.59256 0.7387 0.69917 0.0
H1442 H 0.58865 0.81704 0.67509 0.0
C1443 C 0.5867 0.80814 0.56012 0.0
C1444 C 0.62041 0.78464 0.61832 0.0
C1445 C 0.58694 0.81353 0.52887 0.0
C1446 C 0.59747 0.75113 0.74636 0.0
C1447 C 0.59889 0.75648 0.71487 0.0
C1448 C 0.59772 0.80792 0.65957 0.0
C1449 C 0.61058 0.8087 0.57419 0.0
C1450 C 0.60996 0.80241 0.6074 0.0
C1451 C 0.60762 0.78434 0.70386 0.0
C1452 C 0.60815 0.79016 0.67054 0.0
H1453 H 0.65423 0.82554 0.51183 0.0
H1454 H 0.65379 0.81617 0.56649 0.0
H1455 H 0.59053 0.82785 0.62082 0.0
H1456 H 0.62035 0.81936 0.77183 0.0
H1457 H 0.62277 0.82856 0.7173 0.0
C1458 C 0.21992 0.80003 0.75416 0.0
C1459 C 0.24117 0.8264 0.76639 0.0
C1460 C 0.21389 0.79712 0.72296 0.0
C1461 C 0.24223 0.83204 0.64738 0.0
H1462 H 0.16322 0.7801 0.62267 0.0
C1463 C 0.20149 0.82065 0.52222 0.0
C1464 C 0.18647 0.79221 0.51116 0.0
C1465 C 0.20811 0.8261 0.55329 0.0
C1466 C 0.18538 0.7946 0.62924 0.0
H1467 H 0.27297 0.87046 0.75537 0.0
H1468 H 0.26174 0.8658 0.70081 0.0
H1469 H 0.17518 0.788 0.67671 0.0
H1470 H 0.16594 0.74721 0.52415 0.0
H1471 H 0.17682 0.75675 0.57855 0.0
H1472 H 0.252 0.83905 0.59955 0.0
C1473 C 0.25014 0.84706 0.71527 0.0
C1474 C 0.19236 0.79904 0.66025 0.0
C1475 C 0.25654 0.84983 0.74658 0.0
C1476 C 0.17758 0.76935 0.53195 0.0
C1477 C 0.18372 0.7748 0.56309 0.0
C1478 C 0.23511 0.82793 0.6163 0.0
C1479 C 0.22852 0.82068 0.70305 0.0
C1480 C 0.22099 0.81744 0.66984 0.0
C1481 C 0.19933 0.80322 0.57402 0.0
C1482 C 0.20668 0.80885 0.60694 0.0
H1483 H 0.20793 0.78143 0.76874 0.0
H1484 H 0.19774 0.77622 0.71451 0.0
H1485 H 0.26454 0.8461 0.65371 0.0
H1486 H 0.20874 0.83875 0.50676 0.0
H1487 H 0.21998 0.8482 0.56115 0.0
C1488 C 0.63663 0.8175 0.02399 0.0
C1489 C 0.61219 0.79529 0.00945 0.0
C1490 C 0.63616 0.8226 0.05529 0.0
C1491 C 0.59791 0.78779 0.12671 0.0
H1492 H 0.63038 0.86606 0.15667 0.0
C1493 C 0.61283 0.81389 0.25503 0.0
C1494 C 0.60484 0.83349 0.26627 0.0
C1495 C 0.61427 0.81011 0.22368 0.0
C1496 C 0.62107 0.84408 0.14863 0.0
H1497 H 0.56824 0.7608 0.01657 0.0
H1498 H 0.56748 0.76962 0.07101 0.0
H1499 H 0.63185 0.85742 0.10202 0.0
H1500 H 0.5928 0.8651 0.25323 0.0
H1501 H 0.59531 0.85846 0.19818 0.0
H1502 H 0.58688 0.77437 0.17313 0.0
C1503 C 0.58706 0.78303 0.05829 0.0
C1504 C 0.62219 0.83914 0.11737 0.0
C1505 C 0.58747 0.77805 0.02701 0.0
C1506 C 0.59887 0.84971 0.24531 0.0
C1507 C 0.60047 0.84603 0.2138 0.0
C1508 C 0.59695 0.79273 0.15791 0.0
C1509 C 0.61132 0.80548 0.0728 0.0
C1510 C 0.61058 0.81091 0.10605 0.0
C1511 C 0.60788 0.82592 0.20265 0.0
C1512 C 0.60856 0.82092 0.16928 0.0
H1513 H 0.65605 0.83119 0.01114 0.0
H1514 H 0.65533 0.83983 0.06584 0.0
H1515 H 0.58896 0.7658 0.11882 0.0
H1516 H 0.61775 0.80113 0.27047 0.0
H1517 H 0.62052 0.79482 0.2159 0.0
C1518 C 0.1748 0.77403 0.02087 0.0
C1519 C 0.19068 0.8015 0.00758 0.0
C1520 C 0.17225 0.77079 0.05254 0.0
C1521 C 0.20706 0.80727 0.12455 0.0
H1522 H 0.13432 0.75055 0.16043 0.0
C1523 C 0.18944 0.79676 0.25496 0.0
C1524 C 0.17411 0.76887 0.26736 0.0
C1525 C 0.1908 0.80104 0.22341 0.0
C1526 C 0.15488 0.76625 0.15078 0.0
H1527 H 0.21619 0.8472 0.01728 0.0
H1528 H 0.2116 0.84154 0.0728 0.0
H1529 H 0.13788 0.7581 0.10536 0.0
H1530 H 0.14778 0.72357 0.25624 0.0
H1531 H 0.15042 0.73099 0.201 0.0
H1532 H 0.22412 0.8153 0.16993 0.0
C1533 C 0.20135 0.82247 0.0586 0.0
C1534 C 0.15692 0.77063 0.11918 0.0
C1535 C 0.20387 0.82573 0.02679 0.0
C1536 C 0.15984 0.74532 0.24742 0.0
C1537 C 0.16121 0.74961 0.21577 0.0
C1538 C 0.20503 0.80288 0.15615 0.0
C1539 C 0.18551 0.79492 0.07185 0.0
C1540 C 0.18307 0.7911 0.10563 0.0
C1541 C 0.17687 0.77754 0.20336 0.0
C1542 C 0.17893 0.78225 0.16968 0.0
H1543 H 0.16441 0.75486 0.00682 0.0
H1544 H 0.16028 0.74924 0.06191 0.0
H1545 H 0.22765 0.82289 0.11488 0.0
H1546 H 0.20053 0.81544 0.26962 0.0
H1547 H 0.20261 0.82286 0.21474 0.0
C1548 C 0.23977 0.4066 0.01864 0.0
C1549 C 0.21205 0.39394 0.00571 0.0
C1550 C 0.24344 0.40787 0.05026 0.0
C1551 C 0.20563 0.37469 0.12245 0.0
H1552 H 0.26807 0.44389 0.15857 0.0
C1553 C 0.2171 0.3937 0.25277 0.0
C1554 C 0.24491 0.40679 0.2655 0.0
C1555 C 0.21321 0.39161 0.22115 0.0
C1556 C 0.25077 0.42426 0.14884 0.0
H1557 H 0.16636 0.37256 0.01605 0.0
H1558 H 0.17279 0.37497 0.0715 0.0
H1559 H 0.26042 0.44154 0.10357 0.0
H1560 H 0.29051 0.42753 0.25488 0.0
H1561 H 0.28372 0.42377 0.1995 0.0
H1562 H 0.19596 0.35746 0.16778 0.0
C1563 C 0.1917 0.3837 0.05703 0.0
C1564 C 0.24633 0.42292 0.11728 0.0
C1565 C 0.18801 0.38245 0.02526 0.0
C1566 C 0.2688 0.4175 0.24581 0.0
C1567 C 0.2649 0.41544 0.21408 0.0
C1568 C 0.21006 0.37604 0.15404 0.0
C1569 C 0.21951 0.39652 0.06991 0.0
C1570 C 0.22374 0.39809 0.10365 0.0
C1571 C 0.23703 0.40255 0.20136 0.0
C1572 C 0.2327 0.40085 0.16765 0.0
H1573 H 0.2588 0.41557 0.00432 0.0
H1574 H 0.26513 0.41746 0.0593 0.0
H1575 H 0.18832 0.35508 0.11271 0.0
H1576 H 0.19818 0.38522 0.26722 0.0
H1577 H 0.19148 0.38189 0.21221 0.0
C1578 C 0.83743 0.60476 0.48688 0.0
C1579 C 0.82052 0.61531 0.49994 0.0
C1580 C 0.83971 0.60355 0.45523 0.0
C1581 C 0.82979 0.6332 0.38284 0.0
H1582 H 0.82972 0.56678 0.34749 0.0
C1583 C 0.82065 0.61125 0.25293 0.0
C1584 C 0.83779 0.60084 0.24014 0.0
C1585 C 0.81922 0.61376 0.28454 0.0
C1586 C 0.83014 0.58564 0.35701 0.0
H1587 H 0.79285 0.63307 0.48986 0.0
H1588 H 0.79653 0.63061 0.43443 0.0
H1589 H 0.82515 0.56945 0.40255 0.0
H1590 H 0.8673 0.58537 0.25062 0.0
H1591 H 0.86482 0.58978 0.30593 0.0
H1592 H 0.83455 0.64924 0.33717 0.0
C1593 C 0.80831 0.62356 0.44876 0.0
C1594 C 0.8275 0.58718 0.38861 0.0
C1595 C 0.80606 0.62483 0.48054 0.0
C1596 C 0.85373 0.59327 0.25974 0.0
C1597 C 0.85222 0.59569 0.29143 0.0
C1598 C 0.83235 0.63161 0.3512 0.0
C1599 C 0.82508 0.61278 0.43572 0.0
C1600 C 0.82737 0.61101 0.40197 0.0
C1601 C 0.83484 0.60587 0.30421 0.0
C1602 C 0.83259 0.60783 0.33791 0.0
H1603 H 0.84904 0.59743 0.50111 0.0
H1604 H 0.85323 0.59562 0.44606 0.0
H1605 H 0.83021 0.65206 0.39235 0.0
H1606 H 0.80809 0.61731 0.23853 0.0
H1607 H 0.80538 0.62137 0.29361 0.0
C1608 C 0.43061 0.20379 0.47808 0.0
C1609 C 0.40494 0.19187 0.49513 0.0
C1610 C 0.43063 0.20967 0.44698 0.0
C1611 C 0.38305 0.19142 0.37953 0.0
H1612 H 0.447 0.26135 0.34646 0.0
C1613 C 0.40356 0.20961 0.25025 0.0
C1614 C 0.41338 0.23734 0.23832 0.0
C1615 C 0.40129 0.20487 0.28172 0.0
C1616 C 0.42882 0.24189 0.35535 0.0
H1617 H 0.35902 0.17633 0.49264 0.0
H1618 H 0.35908 0.18675 0.43838 0.0
H1619 H 0.44525 0.25145 0.40099 0.0
H1620 H 0.42809 0.28183 0.25023 0.0
H1621 H 0.42401 0.27352 0.30542 0.0
H1622 H 0.36647 0.18199 0.33397 0.0
C1623 C 0.37919 0.19138 0.44904 0.0
C1624 C 0.428 0.23601 0.38658 0.0
C1625 C 0.37917 0.1855 0.48019 0.0
C1626 C 0.42065 0.26024 0.25868 0.0
C1627 C 0.41839 0.25549 0.2903 0.0
C1628 C 0.38389 0.19728 0.34832 0.0
C1629 C 0.40498 0.20379 0.43209 0.0
C1630 C 0.40525 0.21055 0.39903 0.0
C1631 C 0.40872 0.22771 0.3022 0.0
C1632 C 0.40694 0.22244 0.33575 0.0
H1633 H 0.45084 0.20888 0.48878 0.0
H1634 H 0.45078 0.2187 0.43456 0.0
H1635 H 0.3653 0.17153 0.38825 0.0
H1636 H 0.3978 0.19144 0.23528 0.0
H1637 H 0.39422 0.18331 0.29 0.0
C1638 C 0.81234 0.23321 0.47748 0.0
C1639 C 0.82037 0.21644 0.49512 0.0
C1640 C 0.80677 0.22789 0.44628 0.0
C1641 C 0.78666 0.17151 0.38763 0.0
H1642 H 0.81448 0.23586 0.33148 0.0
C1643 C 0.75268 0.15935 0.25966 0.0
C1644 C 0.77469 0.17605 0.23872 0.0
C1645 C 0.75787 0.16326 0.29117 0.0
C1646 C 0.80666 0.21762 0.34681 0.0
H1647 H 0.82917 0.18107 0.49365 0.0
H1648 H 0.81957 0.17189 0.43906 0.0
H1649 H 0.82521 0.24492 0.38569 0.0
H1650 H 0.81958 0.20944 0.23452 0.0
H1651 H 0.82852 0.21607 0.28904 0.0
H1652 H 0.7684 0.14422 0.34851 0.0
C1653 C 0.81729 0.18897 0.4495 0.0
C1654 C 0.81259 0.22283 0.37795 0.0
C1655 C 0.823 0.19438 0.48073 0.0
C1656 C 0.80203 0.19632 0.24994 0.0
C1657 C 0.80716 0.20028 0.28127 0.0
C1658 C 0.7806 0.16628 0.35642 0.0
C1659 C 0.809 0.20561 0.43193 0.0
C1660 C 0.80273 0.19987 0.39875 0.0
C1661 C 0.78511 0.18403 0.3023 0.0
C1662 C 0.79068 0.1893 0.33563 0.0
H1663 H 0.81004 0.25032 0.4878 0.0
H1664 H 0.80016 0.24092 0.4335 0.0
H1665 H 0.77849 0.15334 0.4031 0.0
H1666 H 0.73142 0.14345 0.25174 0.0
H1667 H 0.74039 0.15047 0.3068 0.0
loop_
_geom_bond_atom_site_label_1
_geom_bond_atom_site_label_2
_geom_bond_distance
_geom_bond_site_symmetry_2
_ccdc_geom_bond_type
Zn0 N4 2.020 . S
Zn0 O8 2.019 . S
Zn0 N10 2.119 . S
Zn0 O18 1.975 . S
C1 N2 1.334 . S
C1 N5 1.336 . S
N2 C1 1.334 . S
N2 C3 1.334 . S
C3 N2 1.334 . S
C3 N4 1.336 . S
N4 Zn0 2.020 . S
N4 C3 1.336 . S
N4 N5 1.354 . S
N5 C1 1.336 . S
N5 N4 1.354 . S
N5 Zn9 2.020 . S
C6 O7 1.244 . S
C6 O30 1.257 . S
O7 C6 1.244 . S
O8 Zn0 2.019 . S
O8 C28 1.257 . S
Zn9 N5 2.020 . S
Zn9 O16 1.975 . S
Zn9 N25 2.119 . S
Zn9 O30 2.019 . S
N10 Zn0 2.119 . S
N10 C12 1.334 . S
N10 C13 1.328 . S
C11 C12 1.391 . S
C11 N14 1.329 . S
C11 H32 0.930 . S
C12 N10 1.334 . S
C12 C11 1.391 . S
C12 H19 0.930 . S
C13 N10 1.328 . S
C13 C15 1.392 . S
C13 H20 0.930 . S
N14 C11 1.329 . S
N14 C15 1.331 . S
C15 C13 1.392 . S
C15 N14 1.331 . S
O16 Zn9 1.975 . S
O16 C17 1.252 . S
C17 O16 1.252 . S
C17 O18 1.252 . S
O18 Zn0 1.975 . S
O18 C17 1.252 . S
H19 C12 0.930 . S
H20 C13 0.930 . S
C21 C22 1.392 . S
C21 N25 1.328 . S
C21 H27 0.930 . S
C22 C21 1.392 . S
C22 N26 1.331 . S
C23 C24 1.391 . S
C23 N26 1.329 . S
C23 H33 0.930 . S
C24 C23 1.391 . S
C24 N25 1.334 . S
C24 H31 0.930 . S
N25 Zn9 2.119 . S
N25 C21 1.328 . S
N25 C24 1.334 . S
N26 C22 1.331 . S
N26 C23 1.329 . S
H27 C21 0.930 . S
C28 O8 1.257 . S
C28 O29 1.244 . S
O29 C28 1.244 . S
O30 C6 1.257 . S
O30 Zn9 2.019 . S
H31 C24 0.930 . S
H32 C11 0.930 . S
H33 C23 0.930 . S
Zn34 N38 2.020 . S
Zn34 O42 2.019 . S
Zn34 N44 2.119 . S
Zn34 O52 1.975 . S
C35 N36 1.334 . S
C35 N39 1.336 . S
N36 C35 1.334 . S
N36 C37 1.334 . S
C37 N36 1.334 . S
C37 N38 1.336 . S
N38 Zn34 2.020 . S
N38 C37 1.336 . S
N38 N39 1.354 . S
N39 C35 1.336 . S
N39 N38 1.354 . S
N39 Zn43 2.020 . S
C40 O41 1.244 . S
C40 O64 1.257 . S
O41 C40 1.244 . S
O42 Zn34 2.019 . S
O42 C62 1.257 . S
Zn43 N39 2.020 . S
Zn43 O50 1.975 . S
Zn43 N59 2.119 . S
Zn43 O64 2.019 . S
N44 Zn34 2.119 . S
N44 C46 1.334 . S
N44 C47 1.328 . S
C45 C46 1.391 . S
C45 N48 1.329 . S
C45 H66 0.930 . S
C46 N44 1.334 . S
C46 C45 1.391 . S
C46 H53 0.930 . S
C47 N44 1.328 . S
C47 C49 1.392 . S
C47 H54 0.930 . S
N48 C45 1.329 . S
N48 C49 1.331 . S
C49 C47 1.392 . S
C49 N48 1.331 . S
O50 Zn43 1.975 . S
O50 C51 1.252 . S
C51 O50 1.252 . S
C51 O52 1.252 . S
O52 Zn34 1.975 . S
O52 C51 1.252 . S
H53 C46 0.930 . S
H54 C47 0.930 . S
C55 C56 1.392 . S
C55 N59 1.328 . S
C55 H61 0.930 . S
C56 C55 1.392 . S
C56 N60 1.331 . S
C57 C58 1.391 . S
C57 N60 1.329 . S
C57 H67 0.930 . S
C58 C57 1.391 . S
C58 N59 1.334 . S
C58 H65 0.930 . S
N59 Zn43 2.119 . S
N59 C55 1.328 . S
N59 C58 1.334 . S
N60 C56 1.331 . S
N60 C57 1.329 . S
H61 C55 0.930 . S
C62 O42 1.257 . S
C62 O63 1.244 . S
O63 C62 1.244 . S
O64 C40 1.257 . S
O64 Zn43 2.019 . S
H65 C58 0.930 . S
H66 C45 0.930 . S
H67 C57 0.930 . S
Zn68 N72 2.020 . S
Zn68 O76 2.019 . S
Zn68 N78 2.119 . S
Zn68 O86 1.975 . S
C69 N70 1.334 . S
C69 N73 1.336 . S
N70 C69 1.334 . S
N70 C71 1.334 . S
C71 N70 1.334 . S
C71 N72 1.336 . S
N72 Zn68 2.020 . S
N72 C71 1.336 . S
N72 N73 1.354 . S
N73 C69 1.336 . S
N73 N72 1.354 . S
N73 Zn77 2.020 . S
C74 O75 1.244 . S
C74 O98 1.257 . S
O75 C74 1.244 . S
O76 Zn68 2.019 . S
O76 C96 1.257 . S
Zn77 N73 2.020 . S
Zn77 O84 1.975 . S
Zn77 N93 2.119 . S
Zn77 O98 2.019 . S
N78 Zn68 2.119 . S
N78 C80 1.334 . S
N78 C81 1.328 . S
C79 C80 1.391 . S
C79 N82 1.329 . S
C79 H100 0.930 . S
C80 N78 1.334 . S
C80 C79 1.391 . S
C80 H87 0.930 . S
C81 N78 1.328 . S
C81 C83 1.392 . S
C81 H88 0.930 . S
N82 C79 1.329 . S
N82 C83 1.331 . S
C83 C81 1.392 . S
C83 N82 1.331 . S
O84 Zn77 1.975 . S
O84 C85 1.252 . S
C85 O84 1.252 . S
C85 O86 1.252 . S
O86 Zn68 1.975 . S
O86 C85 1.252 . S
H87 C80 0.930 . S
H88 C81 0.930 . S
C89 C90 1.392 . S
C89 N93 1.328 . S
C89 H95 0.930 . S
C90 C89 1.392 . S
C90 N94 1.331 . S
C91 C92 1.391 . S
C91 N94 1.329 . S
C91 H101 0.930 . S
C92 C91 1.391 . S
C92 N93 1.334 . S
C92 H99 0.930 . S
N93 Zn77 2.119 . S
N93 C89 1.328 . S
N93 C92 1.334 . S
N94 C90 1.331 . S
N94 C91 1.329 . S
H95 C89 0.930 . S
C96 O76 1.257 . S
C96 O97 1.244 . S
O97 C96 1.244 . S
O98 C74 1.257 . S
O98 Zn77 2.019 . S
H99 C92 0.930 . S
H100 C79 0.930 . S
H101 C91 0.930 . S
Zn102 N106 2.020 . S
Zn102 O110 2.019 . S
Zn102 N112 2.119 . S
Zn102 O120 1.975 . S
C103 N104 1.334 . S
C103 N107 1.336 . S
N104 C103 1.334 . S
N104 C105 1.334 . S
C105 N104 1.334 . S
C105 N106 1.336 . S
N106 Zn102 2.020 . S
N106 C105 1.336 . S
N106 N107 1.354 . S
N107 C103 1.336 . S
N107 N106 1.354 . S
N107 Zn111 2.020 . S
C108 O109 1.244 . S
C108 O132 1.257 . S
O109 C108 1.244 . S
O110 Zn102 2.019 . S
O110 C130 1.257 . S
Zn111 N107 2.020 . S
Zn111 O118 1.975 . S
Zn111 N127 2.119 . S
Zn111 O132 2.019 . S
N112 Zn102 2.119 . S
N112 C114 1.334 . S
N112 C115 1.328 . S
C113 C114 1.391 . S
C113 N116 1.329 . S
C113 H134 0.930 . S
C114 N112 1.334 . S
C114 C113 1.391 . S
C114 H121 0.930 . S
C115 N112 1.328 . S
C115 C117 1.392 . S
C115 H122 0.930 . S
N116 C113 1.329 . S
N116 C117 1.331 . S
C117 C115 1.392 . S
C117 N116 1.331 . S
O118 Zn111 1.975 . S
O118 C119 1.252 . S
C119 O118 1.252 . S
C119 O120 1.252 . S
O120 Zn102 1.975 . S
O120 C119 1.252 . S
H121 C114 0.930 . S
H122 C115 0.930 . S
C123 C124 1.392 . S
C123 N127 1.328 . S
C123 H129 0.930 . S
C124 C123 1.392 . S
C124 N128 1.331 . S
C125 C126 1.391 . S
C125 N128 1.329 . S
C125 H135 0.930 . S
C126 C125 1.391 . S
C126 N127 1.334 . S
C126 H133 0.930 . S
N127 Zn111 2.119 . S
N127 C123 1.328 . S
N127 C126 1.334 . S
N128 C124 1.331 . S
N128 C125 1.329 . S
H129 C123 0.930 . S
C130 O110 1.257 . S
C130 O131 1.244 . S
O131 C130 1.244 . S
O132 C108 1.257 . S
O132 Zn111 2.019 . S
H133 C126 0.930 . S
H134 C113 0.930 . S
H135 C125 0.930 . S
Zn136 N140 2.020 . S
Zn136 O144 2.019 . S
Zn136 N146 2.119 . S
Zn136 O154 1.975 . S
C137 N138 1.334 . S
C137 N141 1.336 . S
N138 C137 1.334 . S
N138 C139 1.334 . S
C139 N138 1.334 . S
C139 N140 1.336 . S
N140 Zn136 2.020 . S
N140 C139 1.336 . S
N140 N141 1.354 . S
N141 C137 1.336 . S
N141 N140 1.354 . S
N141 Zn145 2.020 . S
C142 O143 1.244 . S
C142 O166 1.257 . S
O143 C142 1.244 . S
O144 Zn136 2.019 . S
O144 C164 1.257 . S
Zn145 N141 2.020 . S
Zn145 O152 1.975 . S
Zn145 N161 2.119 . S
Zn145 O166 2.019 . S
N146 Zn136 2.119 . S
N146 C148 1.334 . S
N146 C149 1.328 . S
C147 C148 1.391 . S
C147 N150 1.329 . S
C147 H168 0.930 . S
C148 N146 1.334 . S
C148 C147 1.391 . S
C148 H155 0.930 . S
C149 N146 1.328 . S
C149 C151 1.392 . S
C149 H156 0.930 . S
N150 C147 1.329 . S
N150 C151 1.331 . S
C151 C149 1.392 . S
C151 N150 1.331 . S
O152 Zn145 1.975 . S
O152 C153 1.252 . S
C153 O152 1.252 . S
C153 O154 1.252 . S
O154 Zn136 1.975 . S
O154 C153 1.252 . S
H155 C148 0.930 . S
H156 C149 0.930 . S
C157 C158 1.392 . S
C157 N161 1.328 . S
C157 H163 0.930 . S
C158 C157 1.392 . S
C158 N162 1.331 . S
C159 C160 1.391 . S
C159 N162 1.329 . S
C159 H169 0.930 . S
C160 C159 1.391 . S
C160 N161 1.334 . S
C160 H167 0.930 . S
N161 Zn145 2.119 . S
N161 C157 1.328 . S
N161 C160 1.334 . S
N162 C158 1.331 . S
N162 C159 1.329 . S
H163 C157 0.930 . S
C164 O144 1.257 . S
C164 O165 1.244 . S
O165 C164 1.244 . S
O166 C142 1.257 . S
O166 Zn145 2.019 . S
H167 C160 0.930 . S
H168 C147 0.930 . S
H169 C159 0.930 . S
Zn170 N174 2.020 . S
Zn170 O178 2.019 . S
Zn170 N180 2.119 . S
Zn170 O188 1.975 . S
C171 N172 1.334 . S
C171 N175 1.336 . S
N172 C171 1.334 . S
N172 C173 1.334 . S
C173 N172 1.334 . S
C173 N174 1.336 . S
N174 Zn170 2.020 . S
N174 C173 1.336 . S
N174 N175 1.354 . S
N175 C171 1.336 . S
N175 N174 1.354 . S
N175 Zn179 2.020 . S
C176 O177 1.244 . S
C176 O200 1.257 . S
O177 C176 1.244 . S
O178 Zn170 2.019 . S
O178 C198 1.257 . S
Zn179 N175 2.020 . S
Zn179 O186 1.975 . S
Zn179 N195 2.119 . S
Zn179 O200 2.019 . S
N180 Zn170 2.119 . S
N180 C182 1.334 . S
N180 C183 1.328 . S
C181 C182 1.391 . S
C181 N184 1.329 . S
C181 H202 0.930 . S
C182 N180 1.334 . S
C182 C181 1.391 . S
C182 H189 0.930 . S
C183 N180 1.328 . S
C183 C185 1.392 . S
C183 H190 0.930 . S
N184 C181 1.329 . S
N184 C185 1.331 . S
C185 C183 1.392 . S
C185 N184 1.331 . S
O186 Zn179 1.975 . S
O186 C187 1.252 . S
C187 O186 1.252 . S
C187 O188 1.252 . S
O188 Zn170 1.975 . S
O188 C187 1.252 . S
H189 C182 0.930 . S
H190 C183 0.930 . S
C191 C192 1.392 . S
C191 N195 1.328 . S
C191 H197 0.930 . S
C192 C191 1.392 . S
C192 N196 1.331 . S
C193 C194 1.391 . S
C193 N196 1.329 . S
C193 H203 0.930 . S
C194 C193 1.391 . S
C194 N195 1.334 . S
C194 H201 0.930 . S
N195 Zn179 2.119 . S
N195 C191 1.328 . S
N195 C194 1.334 . S
N196 C192 1.331 . S
N196 C193 1.329 . S
H197 C191 0.930 . S
C198 O178 1.257 . S
C198 O199 1.244 . S
O199 C198 1.244 . S
O200 C176 1.257 . S
O200 Zn179 2.019 . S
H201 C194 0.930 . S
H202 C181 0.930 . S
H203 C193 0.930 . S
Zn204 N208 2.020 . S
Zn204 O212 2.019 . S
Zn204 N214 2.119 . S
Zn204 O222 1.975 . S
C205 N206 1.334 . S
C205 N209 1.336 . S
N206 C205 1.334 . S
N206 C207 1.334 . S
C207 N206 1.334 . S
C207 N208 1.336 . S
N208 Zn204 2.020 . S
N208 C207 1.336 . S
N208 N209 1.354 . S
N209 C205 1.336 . S
N209 N208 1.354 . S
N209 Zn213 2.020 . S
C210 O211 1.244 . S
C210 O234 1.257 . S
O211 C210 1.244 . S
O212 Zn204 2.019 . S
O212 C232 1.257 . S
Zn213 N209 2.020 . S
Zn213 O220 1.975 . S
Zn213 N229 2.119 . S
Zn213 O234 2.019 . S
N214 Zn204 2.119 . S
N214 C216 1.334 . S
N214 C217 1.328 . S
C215 C216 1.391 . S
C215 N218 1.329 . S
C215 H236 0.930 . S
C216 N214 1.334 . S
C216 C215 1.391 . S
C216 H223 0.930 . S
C217 N214 1.328 . S
C217 C219 1.392 . S
C217 H224 0.930 . S
N218 C215 1.329 . S
N218 C219 1.331 . S
C219 C217 1.392 . S
C219 N218 1.331 . S
O220 Zn213 1.975 . S
O220 C221 1.252 . S
C221 O220 1.252 . S
C221 O222 1.252 . S
O222 Zn204 1.975 . S
O222 C221 1.252 . S
H223 C216 0.930 . S
H224 C217 0.930 . S
C225 C226 1.392 . S
C225 N229 1.328 . S
C225 H231 0.930 . S
C226 C225 1.392 . S
C226 N230 1.331 . S
C227 C228 1.391 . S
C227 N230 1.329 . S
C227 H237 0.930 . S
C228 C227 1.391 . S
C228 N229 1.334 . S
C228 H235 0.930 . S
N229 Zn213 2.119 . S
N229 C225 1.328 . S
N229 C228 1.334 . S
N230 C226 1.331 . S
N230 C227 1.329 . S
H231 C225 0.930 . S
C232 O212 1.257 . S
C232 O233 1.244 . S
O233 C232 1.244 . S
O234 C210 1.257 . S
O234 Zn213 2.019 . S
H235 C228 0.930 . S
H236 C215 0.930 . S
H237 C227 0.930 . S
Zn238 N242 2.020 . S
Zn238 O246 2.019 . S
Zn238 N248 2.119 . S
Zn238 O256 1.975 . S
C239 N240 1.334 . S
C239 N243 1.336 . S
N240 C239 1.334 . S
N240 C241 1.334 . S
C241 N240 1.334 . S
C241 N242 1.336 . S
N242 Zn238 2.020 . S
N242 C241 1.336 . S
N242 N243 1.354 . S
N243 C239 1.336 . S
N243 N242 1.354 . S
N243 Zn247 2.020 . S
C244 O245 1.244 . S
C244 O268 1.257 . S
O245 C244 1.244 . S
O246 Zn238 2.019 . S
O246 C266 1.257 . S
Zn247 N243 2.020 . S
Zn247 O254 1.975 . S
Zn247 N263 2.119 . S
Zn247 O268 2.019 . S
N248 Zn238 2.119 . S
N248 C250 1.334 . S
N248 C251 1.328 . S
C249 C250 1.391 . S
C249 N252 1.329 . S
C249 H270 0.930 . S
C250 N248 1.334 . S
C250 C249 1.391 . S
C250 H257 0.930 . S
C251 N248 1.328 . S
C251 C253 1.392 . S
C251 H258 0.930 . S
N252 C249 1.329 . S
N252 C253 1.331 . S
C253 C251 1.392 . S
C253 N252 1.331 . S
O254 Zn247 1.975 . S
O254 C255 1.252 . S
C255 O254 1.252 . S
C255 O256 1.252 . S
O256 Zn238 1.975 . S
O256 C255 1.252 . S
H257 C250 0.930 . S
H258 C251 0.930 . S
C259 C260 1.392 . S
C259 N263 1.328 . S
C259 H265 0.930 . S
C260 C259 1.392 . S
C260 N264 1.331 . S
C261 C262 1.391 . S
C261 N264 1.329 . S
C261 H271 0.930 . S
C262 C261 1.391 . S
C262 N263 1.334 . S
C262 H269 0.930 . S
N263 Zn247 2.119 . S
N263 C259 1.328 . S
N263 C262 1.334 . S
N264 C260 1.331 . S
N264 C261 1.329 . S
H265 C259 0.930 . S
C266 O246 1.257 . S
C266 O267 1.244 . S
O267 C266 1.244 . S
O268 C244 1.257 . S
O268 Zn247 2.019 . S
H269 C262 0.930 . S
H270 C249 0.930 . S
H271 C261 0.930 . S
Zn272 N276 2.020 . S
Zn272 O280 2.019 . S
Zn272 N282 2.119 . S
Zn272 O290 1.975 . S
C273 N274 1.334 . S
C273 N277 1.336 . S
N274 C273 1.334 . S
N274 C275 1.334 . S
C275 N274 1.334 . S
C275 N276 1.336 . S
N276 Zn272 2.020 . S
N276 C275 1.336 . S
N276 N277 1.354 . S
N277 C273 1.336 . S
N277 N276 1.354 . S
N277 Zn281 2.020 . S
C278 O279 1.244 . S
C278 O302 1.257 . S
O279 C278 1.244 . S
O280 Zn272 2.019 . S
O280 C300 1.257 . S
Zn281 N277 2.020 . S
Zn281 O288 1.975 . S
Zn281 N297 2.119 . S
Zn281 O302 2.019 . S
N282 Zn272 2.119 . S
N282 C284 1.334 . S
N282 C285 1.328 . S
C283 C284 1.391 . S
C283 N286 1.329 . S
C283 H304 0.930 . S
C284 N282 1.334 . S
C284 C283 1.391 . S
C284 H291 0.930 . S
C285 N282 1.328 . S
C285 C287 1.392 . S
C285 H292 0.930 . S
N286 C283 1.329 . S
N286 C287 1.331 . S
C287 C285 1.392 . S
C287 N286 1.331 . S
O288 Zn281 1.975 . S
O288 C289 1.252 . S
C289 O288 1.252 . S
C289 O290 1.252 . S
O290 Zn272 1.975 . S
O290 C289 1.252 . S
H291 C284 0.930 . S
H292 C285 0.930 . S
C293 C294 1.392 . S
C293 N297 1.328 . S
C293 H299 0.930 . S
C294 C293 1.392 . S
C294 N298 1.331 . S
C295 C296 1.391 . S
C295 N298 1.329 . S
C295 H305 0.930 . S
C296 C295 1.391 . S
C296 N297 1.334 . S
C296 H303 0.930 . S
N297 Zn281 2.119 . S
N297 C293 1.328 . S
N297 C296 1.334 . S
N298 C294 1.331 . S
N298 C295 1.329 . S
H299 C293 0.930 . S
C300 O280 1.257 . S
C300 O301 1.244 . S
O301 C300 1.244 . S
O302 C278 1.257 . S
O302 Zn281 2.019 . S
H303 C296 0.930 . S
H304 C283 0.930 . S
H305 C295 0.930 . S
Zn306 N310 2.020 . S
Zn306 O314 2.019 . S
Zn306 N316 2.119 . S
Zn306 O324 1.975 . S
C307 N308 1.334 . S
C307 N311 1.336 . S
N308 C307 1.334 . S
N308 C309 1.334 . S
C309 N308 1.334 . S
C309 N310 1.336 . S
N310 Zn306 2.020 . S
N310 C309 1.336 . S
N310 N311 1.354 . S
N311 C307 1.336 . S
N311 N310 1.354 . S
N311 Zn315 2.020 . S
C312 O313 1.244 . S
C312 O336 1.257 . S
O313 C312 1.244 . S
O314 Zn306 2.019 . S
O314 C334 1.257 . S
Zn315 N311 2.020 . S
Zn315 O322 1.975 . S
Zn315 N331 2.119 . S
Zn315 O336 2.019 . S
N316 Zn306 2.119 . S
N316 C318 1.334 . S
N316 C319 1.328 . S
C317 C318 1.391 . S
C317 N320 1.329 . S
C317 H338 0.930 . S
C318 N316 1.334 . S
C318 C317 1.391 . S
C318 H325 0.930 . S
C319 N316 1.328 . S
C319 C321 1.392 . S
C319 H326 0.930 . S
N320 C317 1.329 . S
N320 C321 1.331 . S
C321 C319 1.392 . S
C321 N320 1.331 . S
O322 Zn315 1.975 . S
O322 C323 1.252 . S
C323 O322 1.252 . S
C323 O324 1.252 . S
O324 Zn306 1.975 . S
O324 C323 1.252 . S
H325 C318 0.930 . S
H326 C319 0.930 . S
C327 C328 1.392 . S
C327 N331 1.328 . S
C327 H333 0.930 . S
C328 C327 1.392 . S
C328 N332 1.331 . S
C329 C330 1.391 . S
C329 N332 1.329 . S
C329 H339 0.930 . S
C330 C329 1.391 . S
C330 N331 1.334 . S
C330 H337 0.930 . S
N331 Zn315 2.119 . S
N331 C327 1.328 . S
N331 C330 1.334 . S
N332 C328 1.331 . S
N332 C329 1.329 . S
H333 C327 0.930 . S
C334 O314 1.257 . S
C334 O335 1.244 . S
O335 C334 1.244 . S
O336 C312 1.257 . S
O336 Zn315 2.019 . S
H337 C330 0.930 . S
H338 C317 0.930 . S
H339 C329 0.930 . S
Zn340 N344 2.020 . S
Zn340 O348 2.019 . S
Zn340 N350 2.119 . S
Zn340 O358 1.975 . S
C341 N342 1.334 . S
C341 N345 1.336 . S
N342 C341 1.334 . S
N342 C343 1.334 . S
C343 N342 1.334 . S
C343 N344 1.336 . S
N344 Zn340 2.020 . S
N344 C343 1.336 . S
N344 N345 1.354 . S
N345 C341 1.336 . S
N345 N344 1.354 . S
N345 Zn349 2.020 . S
C346 O347 1.244 . S
C346 O370 1.257 . S
O347 C346 1.244 . S
O348 Zn340 2.019 . S
O348 C368 1.257 . S
Zn349 N345 2.020 . S
Zn349 O356 1.975 . S
Zn349 N365 2.119 . S
Zn349 O370 2.019 . S
N350 Zn340 2.119 . S
N350 C352 1.334 . S
N350 C353 1.328 . S
C351 C352 1.391 . S
C351 N354 1.329 . S
C351 H372 0.930 . S
C352 N350 1.334 . S
C352 C351 1.391 . S
C352 H359 0.930 . S
C353 N350 1.328 . S
C353 C355 1.392 . S
C353 H360 0.930 . S
N354 C351 1.329 . S
N354 C355 1.331 . S
C355 C353 1.392 . S
C355 N354 1.331 . S
O356 Zn349 1.975 . S
O356 C357 1.252 . S
C357 O356 1.252 . S
C357 O358 1.252 . S
O358 Zn340 1.975 . S
O358 C357 1.252 . S
H359 C352 0.930 . S
H360 C353 0.930 . S
C361 C362 1.392 . S
C361 N365 1.328 . S
C361 H367 0.930 . S
C362 C361 1.392 . S
C362 N366 1.331 . S
C363 C364 1.391 . S
C363 N366 1.329 . S
C363 H373 0.930 . S
C364 C363 1.391 . S
C364 N365 1.334 . S
C364 H371 0.930 . S
N365 Zn349 2.119 . S
N365 C361 1.328 . S
N365 C364 1.334 . S
N366 C362 1.331 . S
N366 C363 1.329 . S
H367 C361 0.930 . S
C368 O348 1.257 . S
C368 O369 1.244 . S
O369 C368 1.244 . S
O370 C346 1.257 . S
O370 Zn349 2.019 . S
H371 C364 0.930 . S
H372 C351 0.930 . S
H373 C363 0.930 . S
Zn374 N378 2.020 . S
Zn374 O382 2.019 . S
Zn374 N384 2.119 . S
Zn374 O392 1.975 . S
C375 N376 1.334 . S
C375 N379 1.336 . S
N376 C375 1.334 . S
N376 C377 1.334 . S
C377 N376 1.334 . S
C377 N378 1.336 . S
N378 Zn374 2.020 . S
N378 C377 1.336 . S
N378 N379 1.354 . S
N379 C375 1.336 . S
N379 N378 1.354 . S
N379 Zn383 2.020 . S
C380 O381 1.244 . S
C380 O404 1.257 . S
O381 C380 1.244 . S
O382 Zn374 2.019 . S
O382 C402 1.257 . S
Zn383 N379 2.020 . S
Zn383 O390 1.975 . S
Zn383 N399 2.119 . S
Zn383 O404 2.019 . S
N384 Zn374 2.119 . S
N384 C386 1.334 . S
N384 C387 1.328 . S
C385 C386 1.391 . S
C385 N388 1.329 . S
C385 H406 0.930 . S
C386 N384 1.334 . S
C386 C385 1.391 . S
C386 H393 0.930 . S
C387 N384 1.328 . S
C387 C389 1.392 . S
C387 H394 0.930 . S
N388 C385 1.329 . S
N388 C389 1.331 . S
C389 C387 1.392 . S
C389 N388 1.331 . S
O390 Zn383 1.975 . S
O390 C391 1.252 . S
C391 O390 1.252 . S
C391 O392 1.252 . S
O392 Zn374 1.975 . S
O392 C391 1.252 . S
H393 C386 0.930 . S
H394 C387 0.930 . S
C395 C396 1.392 . S
C395 N399 1.328 . S
C395 H401 0.930 . S
C396 C395 1.392 . S
C396 N400 1.331 . S
C397 C398 1.391 . S
C397 N400 1.329 . S
C397 H407 0.930 . S
C398 C397 1.391 . S
C398 N399 1.334 . S
C398 H405 0.930 . S
N399 Zn383 2.119 . S
N399 C395 1.328 . S
N399 C398 1.334 . S
N400 C396 1.331 . S
N400 C397 1.329 . S
H401 C395 0.930 . S
C402 O382 1.257 . S
C402 O403 1.244 . S
O403 C402 1.244 . S
O404 C380 1.257 . S
O404 Zn383 2.019 . S
H405 C398 0.930 . S
H406 C385 0.930 . S
H407 C397 0.930 . S
C408 C409 1.349 . S
C408 C410 1.327 . S
C408 H433 0.950 . S
C409 C408 1.349 . S
C409 C425 1.349 . S
C410 C408 1.327 . S
C410 C429 1.429 . S
C410 H434 0.950 . S
C411 C428 1.574 1_565 S
C411 C430 1.368 . S
C411 H435 0.949 . S
H412 C416 0.949 . S
C413 C414 1.349 . S
C413 C415 1.327 . S
C413 H436 0.950 . S
C414 C413 1.349 . S
C414 C426 1.349 . S
C415 C413 1.327 . S
C415 C431 1.429 . S
C415 H437 0.950 1_554 S
C416 H412 0.949 . S
C416 C424 1.574 . S
C416 C432 1.368 1_565 S
H417 C425 0.950 . S
H418 C423 0.950 . S
H419 C424 0.949 . S
H420 C426 0.950 . S
H421 C427 0.950 . S
H422 C428 0.949 . S
C423 H418 0.950 . S
C423 C425 1.327 . S
C423 C429 1.429 . S
C424 C416 1.574 . S
C424 H419 0.949 . S
C424 C430 1.368 1_554 S
C425 C409 1.349 . S
C425 H417 0.950 . S
C425 C423 1.327 . S
C426 C414 1.349 . S
C426 H420 0.950 . S
C426 C427 1.327 . S
C427 H421 0.950 . S
C427 C426 1.327 . S
C427 C431 1.429 . S
C428 C411 1.574 1_545 S
C428 H422 0.949 . S
C428 C432 1.368 1_556 S
C429 C410 1.429 . S
C429 C423 1.429 . S
C429 C430 1.523 . S
C430 C411 1.368 . S
C430 C424 1.368 1_556 S
C430 C429 1.523 . S
C431 C415 1.429 . S
C431 C427 1.429 . S
C431 C432 1.523 . S
C432 C416 1.368 1_545 S
C432 C428 1.368 1_554 S
C432 C431 1.523 . S
H433 C408 0.950 . S
H434 C410 0.950 . S
H435 C411 0.949 . S
H436 C413 0.950 . S
H437 C415 0.950 1_556 S
C438 C439 1.349 . S
C438 C440 1.327 . S
C438 H463 0.950 . S
C439 C438 1.349 . S
C439 C455 1.349 . S
C440 C438 1.327 . S
C440 C459 1.429 . S
C440 H464 0.950 . S
C441 C458 1.574 1_655 S
C441 C460 1.368 1_556 S
C441 H465 0.949 . S
H442 C446 0.947 1_554 S
C443 C444 1.349 . S
C443 C445 1.327 . S
C443 H466 0.950 . S
C444 C443 1.349 . S
C444 C456 1.349 . S
C445 C443 1.327 . S
C445 C461 1.429 . S
C445 H467 0.950 . S
C446 H442 0.947 1_556 S
C446 C454 1.574 1_556 S
C446 C462 1.368 . S
H447 C455 0.950 . S
H448 C453 0.950 . S
H449 C454 0.949 . S
H450 C456 0.950 . S
H451 C457 0.950 . S
H452 C458 0.949 . S
C453 H448 0.950 . S
C453 C455 1.327 . S
C453 C459 1.429 . S
C454 C446 1.574 1_554 S
C454 H449 0.949 . S
C454 C460 1.368 1_455 S
C455 C439 1.349 . S
C455 H447 0.950 . S
C455 C453 1.327 . S
C456 C444 1.349 . S
C456 H450 0.950 . S
C456 C457 1.327 . S
C457 H451 0.950 . S
C457 C456 1.327 . S
C457 C461 1.429 . S
C458 C441 1.574 1_455 S
C458 H452 0.949 . S
C458 C462 1.368 . S
C459 C440 1.429 . S
C459 C453 1.429 . S
C459 C460 1.523 . S
C460 C441 1.368 1_554 S
C460 C454 1.368 1_655 S
C460 C459 1.523 . S
C461 C445 1.429 . S
C461 C457 1.429 . S
C461 C462 1.523 . S
C462 C446 1.368 . S
C462 C458 1.368 . S
C462 C461 1.523 . S
H463 C438 0.950 . S
H464 C440 0.950 . S
H465 C441 0.949 . S
H466 C443 0.950 . S
H467 C445 0.950 . S
C468 C469 1.349 . S
C468 C470 1.327 . S
C468 H493 0.950 . S
C469 C468 1.349 . S
C469 C485 1.349 . S
C470 C468 1.327 . S
C470 C489 1.429 . S
C470 H494 0.950 . S
C471 C488 1.574 . S
C471 C490 1.368 1_556 S
C471 H495 0.949 . S
H472 C476 0.949 . S
C473 C474 1.349 . S
C473 C475 1.327 . S
C473 H496 0.950 . S
C474 C473 1.349 . S
C474 C486 1.349 . S
C475 C473 1.327 . S
C475 C491 1.429 . S
C475 H497 0.950 . S
C476 H472 0.949 . S
C476 C484 1.574 1_556 S
C476 C492 1.368 . S
H477 C485 0.950 . S
H478 C483 0.950 . S
H479 C484 0.949 . S
H480 C486 0.950 . S
H481 C487 0.950 . S
H482 C488 0.949 . S
C483 H478 0.950 . S
C483 C485 1.327 . S
C483 C489 1.429 . S
C484 C476 1.574 1_554 S
C484 H479 0.949 . S
C484 C490 1.368 . S
C485 C469 1.349 . S
C485 H477 0.950 . S
C485 C483 1.327 . S
C486 C474 1.349 . S
C486 H480 0.950 . S
C486 C487 1.327 . S
C487 H481 0.950 . S
C487 C486 1.327 . S
C487 C491 1.429 . S
C488 C471 1.574 . S
C488 H482 0.949 . S
C488 C492 1.368 . S
C489 C470 1.429 . S
C489 C483 1.429 . S
C489 C490 1.523 . S
C490 C471 1.368 1_554 S
C490 C484 1.368 . S
C490 C489 1.523 . S
C491 C475 1.429 . S
C491 C487 1.429 . S
C491 C492 1.523 . S
C492 C476 1.368 . S
C492 C488 1.368 . S
C492 C491 1.523 . S
H493 C468 0.950 . S
H494 C470 0.950 . S
H495 C471 0.949 . S
H496 C473 0.950 . S
H497 C475 0.950 . S
C498 C499 1.349 . S
C498 C500 1.327 . S
C498 H523 0.950 . S
C499 C498 1.349 . S
C499 C515 1.349 . S
C500 C498 1.327 . S
C500 C519 1.429 . S
C500 H524 0.950 . S
C501 C518 1.574 . S
C501 C520 1.368 1_655 S
C501 H525 0.949 . S
H502 C506 0.949 . S
C503 C504 1.349 . S
C503 C505 1.327 . S
C503 H526 0.950 . S
C504 C503 1.349 . S
C504 C516 1.349 . S
C505 C503 1.327 . S
C505 C521 1.429 . S
C505 H527 0.950 . S
C506 H502 0.949 . S
C506 C514 1.574 1_655 S
C506 C522 1.368 . S
H507 C515 0.950 . S
H508 C513 0.950 . S
H509 C514 0.949 . S
H510 C516 0.950 . S
H511 C517 0.950 . S
H512 C518 0.949 . S
C513 H508 0.950 . S
C513 C515 1.327 . S
C513 C519 1.429 . S
C514 C506 1.574 1_455 S
C514 H509 0.949 . S
C514 C520 1.368 . S
C515 C499 1.349 . S
C515 H507 0.950 . S
C515 C513 1.327 . S
C516 C504 1.349 . S
C516 H510 0.950 . S
C516 C517 1.327 . S
C517 H511 0.950 . S
C517 C516 1.327 . S
C517 C521 1.429 . S
C518 C501 1.574 . S
C518 H512 0.949 . S
C518 C522 1.368 . S
C519 C500 1.429 . S
C519 C513 1.429 . S
C519 C520 1.523 . S
C520 C501 1.368 1_455 S
C520 C514 1.368 . S
C520 C519 1.523 . S
C521 C505 1.429 . S
C521 C517 1.429 . S
C521 C522 1.523 . S
C522 C506 1.368 . S
C522 C518 1.368 . S
C522 C521 1.523 . S
H523 C498 0.950 . S
H524 C500 0.950 . S
H525 C501 0.949 . S
H526 C503 0.950 . S
H527 C505 0.950 . S
C528 C529 1.349 . S
C528 C530 1.327 . S
C528 H553 0.950 . S
C529 C528 1.349 . S
C529 C545 1.349 . S
C530 C528 1.327 . S
C530 C549 1.429 . S
C530 H554 0.950 . S
C531 C548 1.574 . S
C531 C550 1.368 . S
C531 H555 0.949 . S
H532 C536 0.949 . S
C533 C534 1.349 . S
C533 C535 1.327 . S
C533 H556 0.950 . S
C534 C533 1.349 . S
C534 C546 1.349 . S
C535 C533 1.327 . S
C535 C551 1.429 . S
C535 H557 0.950 . S
C536 H532 0.949 . S
C536 C544 1.574 . S
C536 C552 1.368 . S
H537 C545 0.950 . S
H538 C543 0.950 . S
H539 C544 0.949 . S
H540 C546 0.950 . S
H541 C547 0.950 . S
H542 C548 0.949 . S
C543 H538 0.950 . S
C543 C545 1.327 . S
C543 C549 1.429 . S
C544 C536 1.574 . S
C544 H539 0.949 . S
C544 C550 1.368 . S
C545 C529 1.349 . S
C545 H537 0.950 . S
C545 C543 1.327 . S
C546 C534 1.349 . S
C546 H540 0.950 . S
C546 C547 1.327 . S
C547 H541 0.950 . S
C547 C546 1.327 . S
C547 C551 1.429 . S
C548 C531 1.574 . S
C548 H542 0.949 . S
C548 C552 1.368 . S
C549 C530 1.429 . S
C549 C543 1.429 . S
C549 C550 1.523 . S
C550 C531 1.368 . S
C550 C544 1.368 . S
C550 C549 1.523 . S
C551 C535 1.429 . S
C551 C547 1.429 . S
C551 C552 1.523 . S
C552 C536 1.368 . S
C552 C548 1.368 . S
C552 C551 1.523 . S
H553 C528 0.950 . S
H554 C530 0.950 . S
H555 C531 0.949 . S
H556 C533 0.950 . S
H557 C535 0.950 . S
C558 C559 1.349 . S
C558 C560 1.327 . S
C558 H583 0.950 . S
C559 C558 1.349 . S
C559 C575 1.349 . S
C560 C558 1.327 . S
C560 C579 1.429 . S
C560 H584 0.950 . S
C561 C578 1.574 1_565 S
C561 C580 1.368 . S
C561 H585 0.949 . S
H562 C566 0.949 . S
C563 C564 1.349 . S
C563 C565 1.327 . S
C563 H586 0.950 . S
C564 C563 1.349 . S
C564 C576 1.349 . S
C565 C563 1.327 . S
C565 C581 1.429 . S
C565 H587 0.950 . S
C566 H562 0.949 . S
C566 C574 1.574 . S
C566 C582 1.368 . S
H567 C575 0.950 . S
H568 C573 0.950 . S
H569 C574 0.949 . S
H570 C576 0.950 . S
H571 C577 0.950 . S
H572 C578 0.949 . S
C573 H568 0.950 . S
C573 C575 1.327 . S
C573 C579 1.429 . S
C574 C566 1.574 . S
C574 H569 0.949 . S
C574 C580 1.368 1_545 S
C575 C559 1.349 . S
C575 H567 0.950 . S
C575 C573 1.327 . S
C576 C564 1.349 . S
C576 H570 0.950 . S
C576 C577 1.327 . S
C577 H571 0.950 . S
C577 C576 1.327 . S
C577 C581 1.429 . S
C578 C561 1.574 1_545 S
C578 H572 0.949 . S
C578 C582 1.368 . S
C579 C560 1.429 . S
C579 C573 1.429 . S
C579 C580 1.523 . S
C580 C561 1.368 . S
C580 C574 1.368 1_565 S
C580 C579 1.523 . S
C581 C565 1.429 . S
C581 C577 1.429 . S
C581 C582 1.523 . S
C582 C566 1.368 . S
C582 C578 1.368 . S
C582 C581 1.523 . S
H583 C558 0.950 . S
H584 C560 0.950 . S
H585 C561 0.949 . S
H586 C563 0.950 . S
H587 C565 0.950 . S
C588 C589 1.349 . S
C588 C590 1.327 . S
C588 H613 0.950 . S
C589 C588 1.349 . S
C589 C605 1.349 . S
C590 C588 1.327 . S
C590 C609 1.429 . S
C590 H614 0.950 . S
C591 C608 1.574 1_556 S
C591 C610 1.368 1_545 S
C591 H615 0.949 . S
H592 C596 0.949 . S
C593 C594 1.349 . S
C593 C595 1.327 . S
C593 H616 0.950 . S
C594 C593 1.349 . S
C594 C606 1.349 . S
C595 C593 1.327 . S
C595 C611 1.429 . S
C595 H617 0.950 . S
C596 H592 0.949 . S
C596 C604 1.574 1_545 S
C596 C612 1.368 . S
H597 C605 0.950 . S
H598 C603 0.950 . S
H599 C604 0.949 . S
H600 C606 0.950 . S
H601 C607 0.950 . S
H602 C608 0.949 1_556 S
C603 H598 0.950 . S
C603 C605 1.327 . S
C603 C609 1.429 . S
C604 C596 1.574 1_565 S
C604 H599 0.949 . S
C604 C610 1.368 1_554 S
C605 C589 1.349 . S
C605 H597 0.950 . S
C605 C603 1.327 . S
C606 C594 1.349 . S
C606 H600 0.950 . S
C606 C607 1.327 . S
C607 H601 0.950 . S
C607 C606 1.327 . S
C607 C611 1.429 . S
C608 C591 1.574 1_554 S
C608 H602 0.949 1_554 S
C608 C612 1.368 . S
C609 C590 1.429 . S
C609 C603 1.429 . S
C609 C610 1.523 . S
C610 C591 1.368 1_565 S
C610 C604 1.368 1_556 S
C610 C609 1.523 . S
C611 C595 1.429 . S
C611 C607 1.429 . S
C611 C612 1.523 . S
C612 C596 1.368 . S
C612 C608 1.368 . S
C612 C611 1.523 . S
H613 C588 0.950 . S
H614 C590 0.950 . S
H615 C591 0.949 . S
H616 C593 0.950 . S
H617 C595 0.950 . S
C618 C619 1.349 . S
C618 C620 1.327 . S
C618 H643 0.950 . S
C619 C618 1.349 . S
C619 C635 1.349 . S
C620 C618 1.327 . S
C620 C639 1.429 . S
C620 H644 0.939 1_556 S
C621 C638 1.592 . S
C621 C640 1.368 1_655 S
C621 H645 0.949 . S
H622 C626 0.949 . S
C623 C624 1.349 . S
C623 C625 1.327 . S
C623 H646 0.950 . S
C624 C623 1.349 . S
C624 C636 1.349 . S
C625 C623 1.327 . S
C625 C641 1.429 . S
C625 H647 0.950 . S
C626 H622 0.949 . S
C626 C634 1.574 1_655 S
C626 C642 1.368 . S
H627 C635 0.950 . S
H628 C633 0.950 . S
H629 C634 0.949 . S
H630 C636 0.950 . S
H631 C637 0.950 . S
H632 C638 0.958 . S
C633 H628 0.950 . S
C633 C635 1.327 . S
C633 C639 1.429 . S
C634 C626 1.574 1_455 S
C634 H629 0.949 . S
C634 C640 1.368 1_554 S
C635 C619 1.349 . S
C635 H627 0.950 . S
C635 C633 1.327 . S
C636 C624 1.349 . S
C636 H630 0.950 . S
C636 C637 1.327 . S
C637 H631 0.950 . S
C637 C636 1.327 . S
C637 C641 1.429 . S
C638 C621 1.592 . S
C638 H632 0.958 . S
C638 C642 1.342 1_556 S
C639 C620 1.429 . S
C639 C633 1.429 . S
C639 C640 1.523 . S
C640 C621 1.368 1_455 S
C640 C634 1.368 1_556 S
C640 C639 1.523 . S
C641 C625 1.429 . S
C641 C637 1.429 . S
C641 C642 1.523 . S
C642 C626 1.368 . S
C642 C638 1.342 1_554 S
C642 C641 1.523 . S
H643 C618 0.950 . S
H644 C620 0.939 1_554 S
H645 C621 0.949 . S
H646 C623 0.950 . S
H647 C625 0.950 . S
C648 C649 1.349 . S
C648 C650 1.327 . S
C648 H673 0.950 . S
C649 C648 1.349 . S
C649 C665 1.349 . S
C650 C648 1.327 . S
C650 C669 1.429 . S
C650 H674 0.950 . S
C651 C668 1.574 . S
C651 C670 1.368 . S
C651 H675 0.949 . S
H652 C656 0.949 . S
C653 C654 1.349 . S
C653 C655 1.327 . S
C653 H676 0.950 . S
C654 C653 1.349 . S
C654 C666 1.349 . S
C655 C653 1.327 . S
C655 C671 1.429 . S
C655 H677 0.950 . S
C656 H652 0.949 . S
C656 C664 1.574 1_556 S
C656 C672 1.368 . S
H657 C665 0.950 . S
H658 C663 0.950 . S
H659 C664 0.949 1_556 S
H660 C666 0.950 . S
H661 C667 0.950 . S
H662 C668 0.949 . S
C663 H658 0.950 . S
C663 C665 1.327 . S
C663 C669 1.429 . S
C664 C656 1.574 1_554 S
C664 H659 0.949 1_554 S
C664 C670 1.368 . S
C665 C649 1.349 . S
C665 H657 0.950 . S
C665 C663 1.327 . S
C666 C654 1.349 . S
C666 H660 0.950 . S
C666 C667 1.327 . S
C667 H661 0.950 . S
C667 C666 1.327 . S
C667 C671 1.429 . S
C668 C651 1.574 . S
C668 H662 0.949 . S
C668 C672 1.368 1_554 S
C669 C650 1.429 . S
C669 C663 1.429 . S
C669 C670 1.523 . S
C670 C651 1.368 . S
C670 C664 1.368 . S
C670 C669 1.523 . S
C671 C655 1.429 . S
C671 C667 1.429 . S
C671 C672 1.523 . S
C672 C656 1.368 . S
C672 C668 1.368 1_556 S
C672 C671 1.523 . S
H673 C648 0.950 . S
H674 C650 0.950 . S
H675 C651 0.949 . S
H676 C653 0.950 . S
H677 C655 0.950 . S
C678 C679 1.349 . S
C678 C680 1.327 . S
C678 H703 0.950 . S
C679 C678 1.349 . S
C679 C695 1.349 . S
C680 C678 1.327 . S
C680 C699 1.429 . S
C680 H704 0.950 . S
C681 C698 1.574 1_655 S
C681 C700 1.368 . S
C681 H705 0.949 . S
H682 C686 0.949 . S
C683 C684 1.349 . S
C683 C685 1.327 . S
C683 H706 0.950 . S
C684 C683 1.349 . S
C684 C696 1.349 . S
C685 C683 1.327 . S
C685 C701 1.429 . S
C685 H707 0.950 . S
C686 H682 0.949 . S
C686 C694 1.574 . S
C686 C702 1.368 . S
H687 C695 0.950 . S
H688 C693 0.950 . S
H689 C694 0.949 . S
H690 C696 0.950 . S
H691 C697 0.950 . S
H692 C698 0.949 . S
C693 H688 0.950 . S
C693 C695 1.327 . S
C693 C699 1.429 . S
C694 C686 1.574 . S
C694 H689 0.949 . S
C694 C700 1.368 1_455 S
C695 C679 1.349 . S
C695 H687 0.950 . S
C695 C693 1.327 . S
C696 C684 1.349 . S
C696 H690 0.950 . S
C696 C697 1.327 . S
C697 H691 0.950 . S
C697 C696 1.327 . S
C697 C701 1.429 . S
C698 C681 1.574 1_455 S
C698 H692 0.949 . S
C698 C702 1.368 . S
C699 C680 1.429 . S
C699 C693 1.429 . S
C699 C700 1.523 . S
C700 C681 1.368 . S
C700 C694 1.368 1_655 S
C700 C699 1.523 . S
C701 C685 1.429 . S
C701 C697 1.429 . S
C701 C702 1.523 . S
C702 C686 1.368 . S
C702 C698 1.368 . S
C702 C701 1.523 . S
H703 C678 0.950 . S
H704 C680 0.950 . S
H705 C681 0.949 . S
H706 C683 0.950 . S
H707 C685 0.950 . S
C708 C709 1.349 . S
C708 C710 1.327 . S
C708 H733 0.950 . S
C709 C708 1.349 . S
C709 C725 1.349 . S
C710 C708 1.327 . S
C710 C729 1.429 . S
C710 H734 0.950 . S
C711 C728 1.574 . S
C711 C730 1.368 . S
C711 H735 0.949 . S
H712 C716 0.949 . S
C713 C714 1.349 . S
C713 C715 1.327 . S
C713 H736 0.950 . S
C714 C713 1.349 . S
C714 C726 1.349 . S
C715 C713 1.327 . S
C715 C731 1.429 . S
C715 H737 0.950 . S
C716 H712 0.949 . S
C716 C724 1.574 . S
C716 C732 1.368 . S
H717 C725 0.950 . S
H718 C723 0.950 . S
H719 C724 0.949 . S
H720 C726 0.950 . S
H721 C727 0.950 . S
H722 C728 0.949 . S
C723 H718 0.950 . S
C723 C725 1.327 . S
C723 C729 1.429 . S
C724 C716 1.574 . S
C724 H719 0.949 . S
C724 C730 1.368 . S
C725 C709 1.349 . S
C725 H717 0.950 . S
C725 C723 1.327 . S
C726 C714 1.349 . S
C726 H720 0.950 . S
C726 C727 1.327 . S
C727 H721 0.950 . S
C727 C726 1.327 . S
C727 C731 1.429 . S
C728 C711 1.574 . S
C728 H722 0.949 . S
C728 C732 1.368 . S
C729 C710 1.429 . S
C729 C723 1.429 . S
C729 C730 1.523 . S
C730 C711 1.368 . S
C730 C724 1.368 . S
C730 C729 1.523 . S
C731 C715 1.429 . S
C731 C727 1.429 . S
C731 C732 1.523 . S
C732 C716 1.368 . S
C732 C728 1.368 . S
C732 C731 1.523 . S
H733 C708 0.950 . S
H734 C710 0.950 . S
H735 C711 0.949 . S
H736 C713 0.950 . S
H737 C715 0.950 . S
C738 C739 1.349 . S
C738 C740 1.327 . S
C738 H763 0.950 . S
C739 C738 1.349 . S
C739 C755 1.349 . S
C740 C738 1.327 . S
C740 C759 1.429 . S
C740 H764 0.950 . S
C741 C758 1.574 . S
C741 C760 1.368 . S
C741 H765 0.949 . S
H742 C746 0.949 . S
C743 C744 1.349 . S
C743 C745 1.327 . S
C743 H766 0.950 . S
C744 C743 1.349 . S
C744 C756 1.349 . S
C745 C743 1.327 . S
C745 C761 1.429 . S
C745 H767 0.950 . S
C746 H742 0.949 . S
C746 C754 1.574 1_545 S
C746 C762 1.368 . S
H747 C755 0.950 . S
H748 C753 0.950 . S
H749 C754 0.949 . S
H750 C756 0.950 . S
H751 C757 0.950 . S
H752 C758 0.949 . S
C753 H748 0.950 . S
C753 C755 1.327 . S
C753 C759 1.429 . S
C754 C746 1.574 1_565 S
C754 H749 0.949 . S
C754 C760 1.368 . S
C755 C739 1.349 . S
C755 H747 0.950 . S
C755 C753 1.327 . S
C756 C744 1.349 . S
C756 H750 0.950 . S
C756 C757 1.327 . S
C757 H751 0.950 . S
C757 C756 1.327 . S
C757 C761 1.429 . S
C758 C741 1.574 . S
C758 H752 0.949 . S
C758 C762 1.368 1_565 S
C759 C740 1.429 . S
C759 C753 1.429 . S
C759 C760 1.523 . S
C760 C741 1.368 . S
C760 C754 1.368 . S
C760 C759 1.523 . S
C761 C745 1.429 . S
C761 C757 1.429 . S
C761 C762 1.523 . S
C762 C746 1.368 . S
C762 C758 1.368 1_545 S
C762 C761 1.523 . S
H763 C738 0.950 . S
H764 C740 0.950 . S
H765 C741 0.949 . S
H766 C743 0.950 . S
H767 C745 0.950 . S
C768 C769 1.349 . S
C768 C770 1.327 . S
C768 H793 0.950 . S
C769 C768 1.349 . S
C769 C785 1.349 . S
C770 C768 1.327 . S
C770 C789 1.429 . S
C770 H794 0.950 . S
C771 C788 1.574 . S
C771 C790 1.368 . S
C771 H795 0.949 . S
H772 C776 0.949 . S
C773 C774 1.349 . S
C773 C775 1.327 . S
C773 H796 0.950 . S
C774 C773 1.349 . S
C774 C786 1.349 . S
C775 C773 1.327 . S
C775 C791 1.429 . S
C775 H797 0.950 . S
C776 H772 0.949 . S
C776 C784 1.574 . S
C776 C792 1.368 . S
H777 C785 0.950 . S
H778 C783 0.950 . S
H779 C784 0.949 . S
H780 C786 0.950 . S
H781 C787 0.950 . S
H782 C788 0.949 . S
C783 H778 0.950 . S
C783 C785 1.327 . S
C783 C789 1.429 . S
C784 C776 1.574 . S
C784 H779 0.949 . S
C784 C790 1.368 . S
C785 C769 1.349 . S
C785 H777 0.950 . S
C785 C783 1.327 . S
C786 C774 1.349 . S
C786 H780 0.950 . S
C786 C787 1.327 . S
C787 H781 0.950 . S
C787 C786 1.327 . S
C787 C791 1.429 . S
C788 C771 1.574 . S
C788 H782 0.949 . S
C788 C792 1.368 . S
C789 C770 1.429 . S
C789 C783 1.429 . S
C789 C790 1.523 . S
C790 C771 1.368 . S
C790 C784 1.368 . S
C790 C789 1.523 . S
C791 C775 1.429 . S
C791 C787 1.429 . S
C791 C792 1.523 . S
C792 C776 1.368 . S
C792 C788 1.368 . S
C792 C791 1.523 . S
H793 C768 0.950 . S
H794 C770 0.950 . S
H795 C771 0.949 . S
H796 C773 0.950 . S
H797 C775 0.950 . S
C798 C799 1.349 . S
C798 C800 1.327 . S
C798 H823 0.950 . S
C799 C798 1.349 . S
C799 C815 1.349 . S
C800 C798 1.327 . S
C800 C819 1.429 . S
C800 H824 0.950 . S
C801 C818 1.574 1_545 S
C801 C820 1.368 . S
C801 H825 0.949 . S
H802 C806 0.949 . S
C803 C804 1.349 . S
C803 C805 1.327 . S
C803 H826 0.950 . S
C804 C803 1.349 . S
C804 C816 1.349 . S
C805 C803 1.327 . S
C805 C821 1.429 . S
C805 H827 0.950 . S
C806 H802 0.949 . S
C806 C814 1.574 1_565 S
C806 C822 1.368 . S
H807 C815 0.950 . S
H808 C813 0.950 . S
H809 C814 0.949 . S
H810 C816 0.950 . S
H811 C817 0.950 . S
H812 C818 0.949 . S
C813 H808 0.950 . S
C813 C815 1.327 . S
C813 C819 1.429 . S
C814 C806 1.574 1_545 S
C814 H809 0.949 . S
C814 C820 1.368 . S
C815 C799 1.349 . S
C815 H807 0.950 . S
C815 C813 1.327 . S
C816 C804 1.349 . S
C816 H810 0.950 . S
C816 C817 1.327 . S
C817 H811 0.950 . S
C817 C816 1.327 . S
C817 C821 1.429 . S
C818 C801 1.574 1_565 S
C818 H812 0.949 . S
C818 C822 1.368 . S
C819 C800 1.429 . S
C819 C813 1.429 . S
C819 C820 1.523 . S
C820 C801 1.368 . S
C820 C814 1.368 . S
C820 C819 1.523 . S
C821 C805 1.429 . S
C821 C817 1.429 . S
C821 C822 1.523 . S
C822 C806 1.368 . S
C822 C818 1.368 . S
C822 C821 1.523 . S
H823 C798 0.950 . S
H824 C800 0.950 . S
H825 C801 0.949 . S
H826 C803 0.950 . S
H827 C805 0.950 . S
C828 C829 1.349 . S
C828 C830 1.327 . S
C828 H853 0.950 . S
C829 C828 1.349 . S
C829 C845 1.349 . S
C830 C828 1.327 . S
C830 C849 1.429 . S
C830 H854 0.950 . S
C831 C848 1.574 1_655 S
C831 C850 1.368 . S
C831 H855 0.949 . S
H832 C836 0.949 . S
C833 C834 1.349 . S
C833 C835 1.327 . S
C833 H856 0.950 . S
C834 C833 1.349 . S
C834 C846 1.349 . S
C835 C833 1.327 . S
C835 C851 1.429 . S
C835 H857 0.950 . S
C836 H832 0.949 . S
C836 C844 1.574 1_455 S
C836 C852 1.368 . S
H837 C845 0.950 . S
H838 C843 0.950 . S
H839 C844 0.949 . S
H840 C846 0.950 . S
H841 C847 0.950 . S
H842 C848 0.949 . S
C843 H838 0.950 . S
C843 C845 1.327 . S
C843 C849 1.429 . S
C844 C836 1.574 1_655 S
C844 H839 0.949 . S
C844 C850 1.368 . S
C845 C829 1.349 . S
C845 H837 0.950 . S
C845 C843 1.327 . S
C846 C834 1.349 . S
C846 H840 0.950 . S
C846 C847 1.327 . S
C847 H841 0.950 . S
C847 C846 1.327 . S
C847 C851 1.429 . S
C848 C831 1.574 1_455 S
C848 H842 0.949 . S
C848 C852 1.368 . S
C849 C830 1.429 . S
C849 C843 1.429 . S
C849 C850 1.523 . S
C850 C831 1.368 . S
C850 C844 1.368 . S
C850 C849 1.523 . S
C851 C835 1.429 . S
C851 C847 1.429 . S
C851 C852 1.523 . S
C852 C836 1.368 . S
C852 C848 1.368 . S
C852 C851 1.523 . S
H853 C828 0.950 . S
H854 C830 0.950 . S
H855 C831 0.949 . S
H856 C833 0.950 . S
H857 C835 0.950 . S
C858 C859 1.349 . S
C858 C860 1.327 . S
C858 H883 0.950 . S
C859 C858 1.349 . S
C859 C875 1.349 . S
C860 C858 1.327 . S
C860 C879 1.429 . S
C860 H884 0.950 . S
C861 C878 1.574 . S
C861 C880 1.368 . S
C861 H885 0.949 . S
H862 C866 0.949 . S
C863 C864 1.349 . S
C863 C865 1.327 . S
C863 H886 0.950 . S
C864 C863 1.349 . S
C864 C876 1.349 . S
C865 C863 1.327 . S
C865 C881 1.429 . S
C865 H887 0.950 . S
C866 H862 0.949 . S
C866 C874 1.574 . S
C866 C882 1.368 . S
H867 C875 0.950 . S
H868 C873 0.950 . S
H869 C874 0.949 . S
H870 C876 0.950 . S
H871 C877 0.950 . S
H872 C878 0.949 . S
C873 H868 0.950 . S
C873 C875 1.327 . S
C873 C879 1.429 . S
C874 C866 1.574 . S
C874 H869 0.949 . S
C874 C880 1.368 . S
C875 C859 1.349 . S
C875 H867 0.950 . S
C875 C873 1.327 . S
C876 C864 1.349 . S
C876 H870 0.950 . S
C876 C877 1.327 . S
C877 H871 0.950 . S
C877 C876 1.327 . S
C877 C881 1.429 . S
C878 C861 1.574 . S
C878 H872 0.949 . S
C878 C882 1.368 . S
C879 C860 1.429 . S
C879 C873 1.429 . S
C879 C880 1.523 . S
C880 C861 1.368 . S
C880 C874 1.368 . S
C880 C879 1.523 . S
C881 C865 1.429 . S
C881 C877 1.429 . S
C881 C882 1.523 . S
C882 C866 1.368 . S
C882 C878 1.368 . S
C882 C881 1.523 . S
H883 C858 0.950 . S
H884 C860 0.950 . S
H885 C861 0.949 . S
H886 C863 0.950 . S
H887 C865 0.950 . S
C888 C889 1.349 . S
C888 C890 1.327 . S
C888 H913 0.950 . S
C889 C888 1.349 . S
C889 C905 1.349 . S
C890 C888 1.327 . S
C890 C909 1.429 . S
C890 H914 0.950 . S
C891 C908 1.574 1_545 S
C891 C910 1.368 . S
C891 H915 0.949 . S
H892 C896 0.949 . S
C893 C894 1.349 . S
C893 C895 1.327 . S
C893 H916 0.950 . S
C894 C893 1.349 . S
C894 C906 1.349 . S
C895 C893 1.327 . S
C895 C911 1.429 . S
C895 H917 0.950 . S
C896 H892 0.949 . S
C896 C904 1.574 1_565 S
C896 C912 1.368 . S
H897 C905 0.950 . S
H898 C903 0.950 . S
H899 C904 0.949 . S
H900 C906 0.950 . S
H901 C907 0.950 . S
H902 C908 0.949 . S
C903 H898 0.950 . S
C903 C905 1.327 . S
C903 C909 1.429 . S
C904 C896 1.574 1_545 S
C904 H899 0.949 . S
C904 C910 1.368 . S
C905 C889 1.349 . S
C905 H897 0.950 . S
C905 C903 1.327 . S
C906 C894 1.349 . S
C906 H900 0.950 . S
C906 C907 1.327 . S
C907 H901 0.950 . S
C907 C906 1.327 . S
C907 C911 1.429 . S
C908 C891 1.574 1_565 S
C908 H902 0.949 . S
C908 C912 1.368 . S
C909 C890 1.429 . S
C909 C903 1.429 . S
C909 C910 1.523 . S
C910 C891 1.368 . S
C910 C904 1.368 . S
C910 C909 1.523 . S
C911 C895 1.429 . S
C911 C907 1.429 . S
C911 C912 1.523 . S
C912 C896 1.368 . S
C912 C908 1.368 . S
C912 C911 1.523 . S
H913 C888 0.950 . S
H914 C890 0.950 . S
H915 C891 0.949 . S
H916 C893 0.950 . S
H917 C895 0.950 . S
C918 C919 1.349 . S
C918 C920 1.327 . S
C918 H943 0.950 . S
C919 C918 1.349 . S
C919 C935 1.349 . S
C920 C918 1.327 . S
C920 C939 1.429 . S
C920 H944 0.950 . S
C921 C938 1.548 1_655 S
C921 C940 1.390 . S
C921 H945 0.954 . S
H922 C926 0.954 . S
C923 C924 1.349 . S
C923 C925 1.327 . S
C923 H946 0.950 . S
C924 C923 1.349 . S
C924 C936 1.349 . S
C925 C923 1.327 . S
C925 C941 1.429 . S
C925 H947 0.950 . S
C926 H922 0.954 . S
C926 C934 1.548 1_455 S
C926 C942 1.390 . S
H927 C935 0.950 . S
H928 C933 0.950 . S
H929 C934 0.949 . S
H930 C936 0.950 . S
H931 C937 0.950 . S
H932 C938 0.949 . S
C933 H928 0.950 . S
C933 C935 1.327 . S
C933 C939 1.429 . S
C934 C926 1.548 1_655 S
C934 H929 0.949 . S
C934 C940 1.368 . S
C935 C919 1.349 . S
C935 H927 0.950 . S
C935 C933 1.327 . S
C936 C924 1.349 . S
C936 H930 0.950 . S
C936 C937 1.327 . S
C937 H931 0.950 . S
C937 C936 1.327 . S
C937 C941 1.429 . S
C938 C921 1.548 1_455 S
C938 H932 0.949 . S
C938 C942 1.368 . S
C939 C920 1.429 . S
C939 C933 1.429 . S
C939 C940 1.523 . S
C940 C921 1.390 . S
C940 C934 1.368 . S
C940 C939 1.523 . S
C941 C925 1.429 . S
C941 C937 1.429 . S
C941 C942 1.523 . S
C942 C926 1.390 . S
C942 C938 1.368 . S
C942 C941 1.523 . S
H943 C918 0.950 . S
H944 C920 0.950 . S
H945 C921 0.954 . S
H946 C923 0.950 . S
H947 C925 0.950 . S
C948 C949 1.349 . S
C948 C950 1.327 . S
C948 H973 0.950 . S
C949 C948 1.349 . S
C949 C965 1.349 . S
C950 C948 1.327 . S
C950 C969 1.429 . S
C950 H974 0.950 . S
C951 C968 1.574 . S
C951 C970 1.368 . S
C951 H975 0.949 . S
H952 C956 0.949 . S
C953 C954 1.349 . S
C953 C955 1.327 . S
C953 H976 0.950 . S
C954 C953 1.349 . S
C954 C966 1.349 . S
C955 C953 1.327 . S
C955 C971 1.429 . S
C955 H977 0.950 . S
C956 H952 0.949 . S
C956 C964 1.574 . S
C956 C972 1.368 . S
H957 C965 0.950 . S
H958 C963 0.950 . S
H959 C964 0.949 . S
H960 C966 0.950 . S
H961 C967 0.950 . S
H962 C968 0.949 . S
C963 H958 0.950 . S
C963 C965 1.327 . S
C963 C969 1.429 . S
C964 C956 1.574 . S
C964 H959 0.949 . S
C964 C970 1.368 . S
C965 C949 1.349 . S
C965 H957 0.950 . S
C965 C963 1.327 . S
C966 C954 1.349 . S
C966 H960 0.950 . S
C966 C967 1.327 . S
C967 H961 0.950 . S
C967 C966 1.327 . S
C967 C971 1.429 . S
C968 C951 1.574 . S
C968 H962 0.949 . S
C968 C972 1.368 . S
C969 C950 1.429 . S
C969 C963 1.429 . S
C969 C970 1.523 . S
C970 C951 1.368 . S
C970 C964 1.368 . S
C970 C969 1.523 . S
C971 C955 1.429 . S
C971 C967 1.429 . S
C971 C972 1.523 . S
C972 C956 1.368 . S
C972 C968 1.368 . S
C972 C971 1.523 . S
H973 C948 0.950 . S
H974 C950 0.950 . S
H975 C951 0.949 . S
H976 C953 0.950 . S
H977 C955 0.950 . S
C978 C979 1.349 . S
C978 C980 1.327 . S
C978 H1003 0.950 . S
C979 C978 1.349 . S
C979 C995 1.349 . S
C980 C978 1.327 . S
C980 C999 1.429 . S
C980 H1004 0.950 . S
C981 C998 1.574 . S
C981 C1000 1.368 . S
C981 H1005 0.949 . S
H982 C986 0.949 . S
C983 C984 1.349 . S
C983 C985 1.327 . S
C983 H1006 0.950 . S
C984 C983 1.349 . S
C984 C996 1.349 . S
C985 C983 1.327 . S
C985 C1001 1.429 . S
C985 H1007 0.950 . S
C986 H982 0.949 . S
C986 C994 1.574 . S
C986 C1002 1.368 . S
H987 C995 0.950 . S
H988 C993 0.950 . S
H989 C994 0.949 . S
H990 C996 0.950 . S
H991 C997 0.950 . S
H992 C998 0.949 . S
C993 H988 0.950 . S
C993 C995 1.327 . S
C993 C999 1.429 . S
C994 C986 1.574 . S
C994 H989 0.949 . S
C994 C1000 1.368 . S
C995 C979 1.349 . S
C995 H987 0.950 . S
C995 C993 1.327 . S
C996 C984 1.349 . S
C996 H990 0.950 . S
C996 C997 1.327 . S
C997 H991 0.950 . S
C997 C996 1.327 . S
C997 C1001 1.429 . S
C998 C981 1.574 . S
C998 H992 0.949 . S
C998 C1002 1.368 . S
C999 C980 1.429 . S
C999 C993 1.429 . S
C999 C1000 1.523 . S
C1000 C981 1.368 . S
C1000 C994 1.368 . S
C1000 C999 1.523 . S
C1001 C985 1.429 . S
C1001 C997 1.429 . S
C1001 C1002 1.523 . S
C1002 C986 1.368 . S
C1002 C998 1.368 . S
C1002 C1001 1.523 . S
H1003 C978 0.950 . S
H1004 C980 0.950 . S
H1005 C981 0.949 . S
H1006 C983 0.950 . S
H1007 C985 0.950 . S
C1008 C1009 1.349 . S
C1008 C1010 1.327 . S
C1008 H1033 0.950 . S
C1009 C1008 1.349 . S
C1009 C1025 1.349 . S
C1010 C1008 1.327 . S
C1010 C1029 1.429 . S
C1010 H1034 0.950 . S
C1011 C1028 1.574 . S
C1011 C1030 1.368 . S
C1011 H1035 0.949 . S
H1012 C1016 0.949 . S
C1013 C1014 1.349 . S
C1013 C1015 1.327 . S
C1013 H1036 0.950 . S
C1014 C1013 1.349 . S
C1014 C1026 1.349 . S
C1015 C1013 1.327 . S
C1015 C1031 1.429 . S
C1015 H1037 0.950 . S
C1016 H1012 0.949 . S
C1016 C1024 1.574 . S
C1016 C1032 1.368 . S
H1017 C1025 0.950 . S
H1018 C1023 0.950 . S
H1019 C1024 0.949 . S
H1020 C1026 0.950 . S
H1021 C1027 0.950 . S
H1022 C1028 0.949 . S
C1023 H1018 0.950 . S
C1023 C1025 1.327 . S
C1023 C1029 1.429 . S
C1024 C1016 1.574 . S
C1024 H1019 0.949 . S
C1024 C1030 1.368 . S
C1025 C1009 1.349 . S
C1025 H1017 0.950 . S
C1025 C1023 1.327 . S
C1026 C1014 1.349 . S
C1026 H1020 0.950 . S
C1026 C1027 1.327 . S
C1027 H1021 0.950 . S
C1027 C1026 1.327 . S
C1027 C1031 1.429 . S
C1028 C1011 1.574 . S
C1028 H1022 0.949 . S
C1028 C1032 1.368 . S
C1029 C1010 1.429 . S
C1029 C1023 1.429 . S
C1029 C1030 1.523 . S
C1030 C1011 1.368 . S
C1030 C1024 1.368 . S
C1030 C1029 1.523 . S
C1031 C1015 1.429 . S
C1031 C1027 1.429 . S
C1031 C1032 1.523 . S
C1032 C1016 1.368 . S
C1032 C1028 1.368 . S
C1032 C1031 1.523 . S
H1033 C1008 0.950 . S
H1034 C1010 0.950 . S
H1035 C1011 0.949 . S
H1036 C1013 0.950 . S
H1037 C1015 0.950 . S
C1038 C1039 1.349 . S
C1038 C1040 1.327 . S
C1038 H1063 0.950 . S
C1039 C1038 1.349 . S
C1039 C1055 1.349 . S
C1040 C1038 1.327 . S
C1040 C1059 1.429 . S
C1040 H1064 0.950 . S
C1041 C1058 1.574 . S
C1041 C1060 1.368 . S
C1041 H1065 0.949 . S
H1042 C1046 0.949 . S
C1043 C1044 1.349 . S
C1043 C1045 1.327 . S
C1043 H1066 0.950 . S
C1044 C1043 1.349 . S
C1044 C1056 1.349 . S
C1045 C1043 1.327 . S
C1045 C1061 1.429 . S
C1045 H1067 0.950 . S
C1046 H1042 0.949 . S
C1046 C1054 1.574 . S
C1046 C1062 1.368 . S
H1047 C1055 0.950 . S
H1048 C1053 0.950 . S
H1049 C1054 0.949 . S
H1050 C1056 0.950 . S
H1051 C1057 0.950 . S
H1052 C1058 0.949 . S
C1053 H1048 0.950 . S
C1053 C1055 1.327 . S
C1053 C1059 1.429 . S
C1054 C1046 1.574 . S
C1054 H1049 0.949 . S
C1054 C1060 1.368 . S
C1055 C1039 1.349 . S
C1055 H1047 0.950 . S
C1055 C1053 1.327 . S
C1056 C1044 1.349 . S
C1056 H1050 0.950 . S
C1056 C1057 1.327 . S
C1057 H1051 0.950 . S
C1057 C1056 1.327 . S
C1057 C1061 1.429 . S
C1058 C1041 1.574 . S
C1058 H1052 0.949 . S
C1058 C1062 1.368 . S
C1059 C1040 1.429 . S
C1059 C1053 1.429 . S
C1059 C1060 1.523 . S
C1060 C1041 1.368 . S
C1060 C1054 1.368 . S
C1060 C1059 1.523 . S
C1061 C1045 1.429 . S
C1061 C1057 1.429 . S
C1061 C1062 1.523 . S
C1062 C1046 1.368 . S
C1062 C1058 1.368 . S
C1062 C1061 1.523 . S
H1063 C1038 0.950 . S
H1064 C1040 0.950 . S
H1065 C1041 0.949 . S
H1066 C1043 0.950 . S
H1067 C1045 0.950 . S
C1068 C1069 1.349 . S
C1068 C1070 1.327 . S
C1068 H1093 0.950 . S
C1069 C1068 1.349 . S
C1069 C1085 1.349 . S
C1070 C1068 1.327 . S
C1070 C1089 1.429 . S
C1070 H1094 0.950 . S
C1071 C1088 1.574 . S
C1071 C1090 1.368 . S
C1071 H1095 0.949 . S
H1072 C1076 0.949 . S
C1073 C1074 1.349 . S
C1073 C1075 1.327 . S
C1073 H1096 0.950 . S
C1074 C1073 1.349 . S
C1074 C1086 1.349 . S
C1075 C1073 1.327 . S
C1075 C1091 1.429 . S
C1075 H1097 0.950 . S
C1076 H1072 0.949 . S
C1076 C1084 1.574 . S
C1076 C1092 1.368 . S
H1077 C1085 0.950 . S
H1078 C1083 0.950 . S
H1079 C1084 0.949 . S
H1080 C1086 0.950 . S
H1081 C1087 0.950 . S
H1082 C1088 0.949 . S
C1083 H1078 0.950 . S
C1083 C1085 1.327 . S
C1083 C1089 1.429 . S
C1084 C1076 1.574 . S
C1084 H1079 0.949 . S
C1084 C1090 1.368 . S
C1085 C1069 1.349 . S
C1085 H1077 0.950 . S
C1085 C1083 1.327 . S
C1086 C1074 1.349 . S
C1086 H1080 0.950 . S
C1086 C1087 1.327 . S
C1087 H1081 0.950 . S
C1087 C1086 1.327 . S
C1087 C1091 1.429 . S
C1088 C1071 1.574 . S
C1088 H1082 0.949 . S
C1088 C1092 1.368 . S
C1089 C1070 1.429 . S
C1089 C1083 1.429 . S
C1089 C1090 1.523 . S
C1090 C1071 1.368 . S
C1090 C1084 1.368 . S
C1090 C1089 1.523 . S
C1091 C1075 1.429 . S
C1091 C1087 1.429 . S
C1091 C1092 1.523 . S
C1092 C1076 1.368 . S
C1092 C1088 1.368 . S
C1092 C1091 1.523 . S
H1093 C1068 0.950 . S
H1094 C1070 0.950 . S
H1095 C1071 0.949 . S
H1096 C1073 0.950 . S
H1097 C1075 0.950 . S
C1098 C1099 1.349 . S
C1098 C1100 1.327 . S
C1098 H1123 0.950 . S
C1099 C1098 1.349 . S
C1099 C1115 1.349 . S
C1100 C1098 1.327 . S
C1100 C1119 1.429 . S
C1100 H1124 0.950 . S
C1101 C1118 1.574 . S
C1101 C1120 1.368 . S
C1101 H1125 0.949 . S
H1102 C1106 0.949 . S
C1103 C1104 1.349 . S
C1103 C1105 1.327 . S
C1103 H1126 0.950 . S
C1104 C1103 1.349 . S
C1104 C1116 1.349 . S
C1105 C1103 1.327 . S
C1105 C1121 1.429 . S
C1105 H1127 0.950 . S
C1106 H1102 0.949 . S
C1106 C1114 1.574 . S
C1106 C1122 1.368 . S
H1107 C1115 0.950 . S
H1108 C1113 0.950 . S
H1109 C1114 0.949 . S
H1110 C1116 0.950 . S
H1111 C1117 0.950 . S
H1112 C1118 0.949 . S
C1113 H1108 0.950 . S
C1113 C1115 1.327 . S
C1113 C1119 1.429 . S
C1114 C1106 1.574 . S
C1114 H1109 0.949 . S
C1114 C1120 1.368 . S
C1115 C1099 1.349 . S
C1115 H1107 0.950 . S
C1115 C1113 1.327 . S
C1116 C1104 1.349 . S
C1116 H1110 0.950 . S
C1116 C1117 1.327 . S
C1117 H1111 0.950 . S
C1117 C1116 1.327 . S
C1117 C1121 1.429 . S
C1118 C1101 1.574 . S
C1118 H1112 0.949 . S
C1118 C1122 1.368 . S
C1119 C1100 1.429 . S
C1119 C1113 1.429 . S
C1119 C1120 1.523 . S
C1120 C1101 1.368 . S
C1120 C1114 1.368 . S
C1120 C1119 1.523 . S
C1121 C1105 1.429 . S
C1121 C1117 1.429 . S
C1121 C1122 1.523 . S
C1122 C1106 1.368 . S
C1122 C1118 1.368 . S
C1122 C1121 1.523 . S
H1123 C1098 0.950 . S
H1124 C1100 0.950 . S
H1125 C1101 0.949 . S
H1126 C1103 0.950 . S
H1127 C1105 0.950 . S
C1128 C1129 1.349 . S
C1128 C1130 1.327 . S
C1128 H1153 0.950 . S
C1129 C1128 1.349 . S
C1129 C1145 1.349 . S
C1130 C1128 1.327 . S
C1130 C1149 1.429 . S
C1130 H1154 0.950 . S
C1131 C1148 1.574 . S
C1131 C1150 1.368 . S
C1131 H1155 0.949 . S
H1132 C1136 0.949 . S
C1133 C1134 1.349 . S
C1133 C1135 1.327 . S
C1133 H1156 0.950 . S
C1134 C1133 1.349 . S
C1134 C1146 1.349 . S
C1135 C1133 1.327 . S
C1135 C1151 1.429 . S
C1135 H1157 0.950 . S
C1136 H1132 0.949 . S
C1136 C1144 1.574 . S
C1136 C1152 1.368 . S
H1137 C1145 0.950 . S
H1138 C1143 0.950 . S
H1139 C1144 0.949 . S
H1140 C1146 0.950 . S
H1141 C1147 0.950 . S
H1142 C1148 0.949 . S
C1143 H1138 0.950 . S
C1143 C1145 1.327 . S
C1143 C1149 1.429 . S
C1144 C1136 1.574 . S
C1144 H1139 0.949 . S
C1144 C1150 1.368 . S
C1145 C1129 1.349 . S
C1145 H1137 0.950 . S
C1145 C1143 1.327 . S
C1146 C1134 1.349 . S
C1146 H1140 0.950 . S
C1146 C1147 1.327 . S
C1147 H1141 0.950 . S
C1147 C1146 1.327 . S
C1147 C1151 1.429 . S
C1148 C1131 1.574 . S
C1148 H1142 0.949 . S
C1148 C1152 1.368 . S
C1149 C1130 1.429 . S
C1149 C1143 1.429 . S
C1149 C1150 1.523 . S
C1150 C1131 1.368 . S
C1150 C1144 1.368 . S
C1150 C1149 1.523 . S
C1151 C1135 1.429 . S
C1151 C1147 1.429 . S
C1151 C1152 1.523 . S
C1152 C1136 1.368 . S
C1152 C1148 1.368 . S
C1152 C1151 1.523 . S
H1153 C1128 0.950 . S
H1154 C1130 0.950 . S
H1155 C1131 0.949 . S
H1156 C1133 0.950 . S
H1157 C1135 0.950 . S
C1158 C1159 1.349 . S
C1158 C1160 1.327 . S
C1158 H1183 0.950 . S
C1159 C1158 1.349 . S
C1159 C1175 1.349 . S
C1160 C1158 1.327 . S
C1160 C1179 1.429 . S
C1160 H1184 0.950 . S
C1161 C1178 1.574 . S
C1161 C1180 1.368 . S
C1161 H1185 0.949 . S
H1162 C1166 0.949 . S
C1163 C1164 1.349 . S
C1163 C1165 1.327 . S
C1163 H1186 0.950 . S
C1164 C1163 1.349 . S
C1164 C1176 1.349 . S
C1165 C1163 1.327 . S
C1165 C1181 1.429 . S
C1165 H1187 0.950 . S
C1166 H1162 0.949 . S
C1166 C1174 1.574 . S
C1166 C1182 1.368 . S
H1167 C1175 0.950 . S
H1168 C1173 0.950 . S
H1169 C1174 0.949 . S
H1170 C1176 0.950 . S
H1171 C1177 0.950 . S
H1172 C1178 0.949 . S
C1173 H1168 0.950 . S
C1173 C1175 1.327 . S
C1173 C1179 1.429 . S
C1174 C1166 1.574 . S
C1174 H1169 0.949 . S
C1174 C1180 1.368 . S
C1175 C1159 1.349 . S
C1175 H1167 0.950 . S
C1175 C1173 1.327 . S
C1176 C1164 1.349 . S
C1176 H1170 0.950 . S
C1176 C1177 1.327 . S
C1177 H1171 0.950 . S
C1177 C1176 1.327 . S
C1177 C1181 1.429 . S
C1178 C1161 1.574 . S
C1178 H1172 0.949 . S
C1178 C1182 1.368 . S
C1179 C1160 1.429 . S
C1179 C1173 1.429 . S
C1179 C1180 1.523 . S
C1180 C1161 1.368 . S
C1180 C1174 1.368 . S
C1180 C1179 1.523 . S
C1181 C1165 1.429 . S
C1181 C1177 1.429 . S
C1181 C1182 1.523 . S
C1182 C1166 1.368 . S
C1182 C1178 1.368 . S
C1182 C1181 1.523 . S
H1183 C1158 0.950 . S
H1184 C1160 0.950 . S
H1185 C1161 0.949 . S
H1186 C1163 0.950 . S
H1187 C1165 0.950 . S
C1188 C1189 1.349 . S
C1188 C1190 1.327 . S
C1188 H1213 0.950 . S
C1189 C1188 1.349 . S
C1189 C1205 1.349 . S
C1190 C1188 1.327 . S
C1190 C1209 1.429 . S
C1190 H1214 0.950 . S
C1191 C1208 1.574 . S
C1191 C1210 1.368 . S
C1191 H1215 0.949 . S
H1192 C1196 0.949 . S
C1193 C1194 1.349 . S
C1193 C1195 1.327 . S
C1193 H1216 0.950 . S
C1194 C1193 1.349 . S
C1194 C1206 1.349 . S
C1195 C1193 1.327 . S
C1195 C1211 1.429 . S
C1195 H1217 0.950 . S
C1196 H1192 0.949 . S
C1196 C1204 1.574 . S
C1196 C1212 1.368 . S
H1197 C1205 0.950 . S
H1198 C1203 0.950 . S
H1199 C1204 0.949 . S
H1200 C1206 0.950 . S
H1201 C1207 0.950 . S
H1202 C1208 0.949 . S
C1203 H1198 0.950 . S
C1203 C1205 1.327 . S
C1203 C1209 1.429 . S
C1204 C1196 1.574 . S
C1204 H1199 0.949 . S
C1204 C1210 1.368 . S
C1205 C1189 1.349 . S
C1205 H1197 0.950 . S
C1205 C1203 1.327 . S
C1206 C1194 1.349 . S
C1206 H1200 0.950 . S
C1206 C1207 1.327 . S
C1207 H1201 0.950 . S
C1207 C1206 1.327 . S
C1207 C1211 1.429 . S
C1208 C1191 1.574 . S
C1208 H1202 0.949 . S
C1208 C1212 1.368 . S
C1209 C1190 1.429 . S
C1209 C1203 1.429 . S
C1209 C1210 1.523 . S
C1210 C1191 1.368 . S
C1210 C1204 1.368 . S
C1210 C1209 1.523 . S
C1211 C1195 1.429 . S
C1211 C1207 1.429 . S
C1211 C1212 1.523 . S
C1212 C1196 1.368 . S
C1212 C1208 1.368 . S
C1212 C1211 1.523 . S
H1213 C1188 0.950 . S
H1214 C1190 0.950 . S
H1215 C1191 0.949 . S
H1216 C1193 0.950 . S
H1217 C1195 0.950 . S
C1218 C1219 1.349 . S
C1218 C1220 1.327 . S
C1218 H1243 0.950 . S
C1219 C1218 1.349 . S
C1219 C1235 1.349 . S
C1220 C1218 1.327 . S
C1220 C1239 1.429 . S
C1220 H1244 0.950 . S
C1221 C1238 1.574 . S
C1221 C1240 1.368 . S
C1221 H1245 0.949 . S
H1222 C1226 0.949 . S
C1223 C1224 1.349 . S
C1223 C1225 1.327 . S
C1223 H1246 0.950 . S
C1224 C1223 1.349 . S
C1224 C1236 1.349 . S
C1225 C1223 1.327 . S
C1225 C1241 1.429 . S
C1225 H1247 0.950 . S
C1226 H1222 0.949 . S
C1226 C1234 1.574 . S
C1226 C1242 1.368 . S
H1227 C1235 0.950 . S
H1228 C1233 0.950 . S
H1229 C1234 0.949 . S
H1230 C1236 0.950 . S
H1231 C1237 0.950 . S
H1232 C1238 0.949 . S
C1233 H1228 0.950 . S
C1233 C1235 1.327 . S
C1233 C1239 1.429 . S
C1234 C1226 1.574 . S
C1234 H1229 0.949 . S
C1234 C1240 1.368 . S
C1235 C1219 1.349 . S
C1235 H1227 0.950 . S
C1235 C1233 1.327 . S
C1236 C1224 1.349 . S
C1236 H1230 0.950 . S
C1236 C1237 1.327 . S
C1237 H1231 0.950 . S
C1237 C1236 1.327 . S
C1237 C1241 1.429 . S
C1238 C1221 1.574 . S
C1238 H1232 0.949 . S
C1238 C1242 1.368 . S
C1239 C1220 1.429 . S
C1239 C1233 1.429 . S
C1239 C1240 1.523 . S
C1240 C1221 1.368 . S
C1240 C1234 1.368 . S
C1240 C1239 1.523 . S
C1241 C1225 1.429 . S
C1241 C1237 1.429 . S
C1241 C1242 1.523 . S
C1242 C1226 1.368 . S
C1242 C1238 1.368 . S
C1242 C1241 1.523 . S
H1243 C1218 0.950 . S
H1244 C1220 0.950 . S
H1245 C1221 0.949 . S
H1246 C1223 0.950 . S
H1247 C1225 0.950 . S
C1248 C1249 1.349 . S
C1248 C1250 1.327 . S
C1248 H1273 0.950 . S
C1249 C1248 1.349 . S
C1249 C1265 1.349 . S
C1250 C1248 1.327 . S
C1250 C1269 1.429 . S
C1250 H1274 0.950 . S
C1251 C1268 1.574 . S
C1251 C1270 1.368 . S
C1251 H1275 0.949 . S
H1252 C1256 0.949 . S
C1253 C1254 1.349 . S
C1253 C1255 1.327 . S
C1253 H1276 0.950 . S
C1254 C1253 1.349 . S
C1254 C1266 1.349 . S
C1255 C1253 1.327 . S
C1255 C1271 1.429 . S
C1255 H1277 0.950 . S
C1256 H1252 0.949 . S
C1256 C1264 1.574 . S
C1256 C1272 1.368 . S
H1257 C1265 0.950 . S
H1258 C1263 0.950 . S
H1259 C1264 0.949 . S
H1260 C1266 0.950 . S
H1261 C1267 0.950 . S
H1262 C1268 0.949 . S
C1263 H1258 0.950 . S
C1263 C1265 1.327 . S
C1263 C1269 1.429 . S
C1264 C1256 1.574 . S
C1264 H1259 0.949 . S
C1264 C1270 1.368 . S
C1265 C1249 1.349 . S
C1265 H1257 0.950 . S
C1265 C1263 1.327 . S
C1266 C1254 1.349 . S
C1266 H1260 0.950 . S
C1266 C1267 1.327 . S
C1267 H1261 0.950 . S
C1267 C1266 1.327 . S
C1267 C1271 1.429 . S
C1268 C1251 1.574 . S
C1268 H1262 0.949 . S
C1268 C1272 1.368 . S
C1269 C1250 1.429 . S
C1269 C1263 1.429 . S
C1269 C1270 1.523 . S
C1270 C1251 1.368 . S
C1270 C1264 1.368 . S
C1270 C1269 1.523 . S
C1271 C1255 1.429 . S
C1271 C1267 1.429 . S
C1271 C1272 1.523 . S
C1272 C1256 1.368 . S
C1272 C1268 1.368 . S
C1272 C1271 1.523 . S
H1273 C1248 0.950 . S
H1274 C1250 0.950 . S
H1275 C1251 0.949 . S
H1276 C1253 0.950 . S
H1277 C1255 0.950 . S
C1278 C1279 1.349 . S
C1278 C1280 1.327 . S
C1278 H1303 0.950 . S
C1279 C1278 1.349 . S
C1279 C1295 1.349 . S
C1280 C1278 1.327 . S
C1280 C1299 1.429 . S
C1280 H1304 0.950 . S
C1281 C1298 1.574 . S
C1281 C1300 1.368 . S
C1281 H1305 0.949 . S
H1282 C1286 0.949 . S
C1283 C1284 1.349 . S
C1283 C1285 1.327 . S
C1283 H1306 0.950 . S
C1284 C1283 1.349 . S
C1284 C1296 1.349 . S
C1285 C1283 1.327 . S
C1285 C1301 1.429 . S
C1285 H1307 0.950 . S
C1286 H1282 0.949 . S
C1286 C1294 1.574 . S
C1286 C1302 1.368 . S
H1287 C1295 0.950 . S
H1288 C1293 0.950 . S
H1289 C1294 0.949 . S
H1290 C1296 0.950 . S
H1291 C1297 0.950 . S
H1292 C1298 0.949 . S
C1293 H1288 0.950 . S
C1293 C1295 1.327 . S
C1293 C1299 1.429 . S
C1294 C1286 1.574 . S
C1294 H1289 0.949 . S
C1294 C1300 1.368 . S
C1295 C1279 1.349 . S
C1295 H1287 0.950 . S
C1295 C1293 1.327 . S
C1296 C1284 1.349 . S
C1296 H1290 0.950 . S
C1296 C1297 1.327 . S
C1297 H1291 0.950 . S
C1297 C1296 1.327 . S
C1297 C1301 1.429 . S
C1298 C1281 1.574 . S
C1298 H1292 0.949 . S
C1298 C1302 1.368 . S
C1299 C1280 1.429 . S
C1299 C1293 1.429 . S
C1299 C1300 1.523 . S
C1300 C1281 1.368 . S
C1300 C1294 1.368 . S
C1300 C1299 1.523 . S
C1301 C1285 1.429 . S
C1301 C1297 1.429 . S
C1301 C1302 1.523 . S
C1302 C1286 1.368 . S
C1302 C1298 1.368 . S
C1302 C1301 1.523 . S
H1303 C1278 0.950 . S
H1304 C1280 0.950 . S
H1305 C1281 0.949 . S
H1306 C1283 0.950 . S
H1307 C1285 0.950 . S
C1308 C1309 1.349 . S
C1308 C1310 1.327 . S
C1308 H1333 0.950 . S
C1309 C1308 1.349 . S
C1309 C1325 1.349 . S
C1310 C1308 1.327 . S
C1310 C1329 1.429 . S
C1310 H1334 0.950 . S
C1311 C1328 1.574 . S
C1311 C1330 1.368 . S
C1311 H1335 0.949 . S
H1312 C1316 0.949 . S
C1313 C1314 1.349 1_556 S
C1313 C1315 1.327 . S
C1313 H1336 0.950 1_556 S
C1314 C1313 1.349 1_554 S
C1314 C1326 1.349 . S
C1315 C1313 1.327 . S
C1315 C1331 1.429 . S
C1315 H1337 0.950 . S
C1316 H1312 0.949 . S
C1316 C1324 1.574 . S
C1316 C1332 1.368 . S
H1317 C1325 0.950 . S
H1318 C1323 0.950 . S
H1319 C1324 0.949 . S
H1320 C1326 0.950 . S
H1321 C1327 0.950 . S
H1322 C1328 0.949 . S
C1323 H1318 0.950 . S
C1323 C1325 1.327 . S
C1323 C1329 1.429 . S
C1324 C1316 1.574 . S
C1324 H1319 0.949 . S
C1324 C1330 1.368 . S
C1325 C1309 1.349 . S
C1325 H1317 0.950 . S
C1325 C1323 1.327 . S
C1326 C1314 1.349 . S
C1326 H1320 0.950 . S
C1326 C1327 1.327 1_554 S
C1327 H1321 0.950 . S
C1327 C1326 1.327 1_556 S
C1327 C1331 1.429 . S
C1328 C1311 1.574 . S
C1328 H1322 0.949 . S
C1328 C1332 1.368 . S
C1329 C1310 1.429 . S
C1329 C1323 1.429 . S
C1329 C1330 1.523 . S
C1330 C1311 1.368 . S
C1330 C1324 1.368 . S
C1330 C1329 1.523 . S
C1331 C1315 1.429 . S
C1331 C1327 1.429 . S
C1331 C1332 1.523 . S
C1332 C1316 1.368 . S
C1332 C1328 1.368 . S
C1332 C1331 1.523 . S
H1333 C1308 0.950 . S
H1334 C1310 0.950 . S
H1335 C1311 0.949 . S
H1336 C1313 0.950 1_554 S
H1337 C1315 0.950 . S
C1338 C1339 1.349 . S
C1338 C1340 1.327 . S
C1338 H1363 0.950 . S
C1339 C1338 1.349 . S
C1339 C1355 1.349 . S
C1340 C1338 1.327 . S
C1340 C1359 1.429 . S
C1340 H1364 0.950 . S
C1341 C1358 1.574 . S
C1341 C1360 1.368 . S
C1341 H1365 0.949 . S
H1342 C1346 0.949 . S
C1343 C1344 1.349 . S
C1343 C1345 1.327 1_554 S
C1343 H1366 0.950 . S
C1344 C1343 1.349 . S
C1344 C1356 1.349 1_554 S
C1345 C1343 1.327 1_556 S
C1345 C1361 1.429 . S
C1345 H1367 0.950 . S
C1346 H1342 0.949 . S
C1346 C1354 1.574 . S
C1346 C1362 1.368 . S
H1347 C1355 0.950 . S
H1348 C1353 0.950 . S
H1349 C1354 0.949 . S
H1350 C1356 0.950 1_554 S
H1351 C1357 0.950 . S
H1352 C1358 0.949 . S
C1353 H1348 0.950 . S
C1353 C1355 1.327 . S
C1353 C1359 1.429 . S
C1354 C1346 1.574 . S
C1354 H1349 0.949 . S
C1354 C1360 1.368 . S
C1355 C1339 1.349 . S
C1355 H1347 0.950 . S
C1355 C1353 1.327 . S
C1356 C1344 1.349 1_556 S
C1356 H1350 0.950 1_556 S
C1356 C1357 1.327 . S
C1357 H1351 0.950 . S
C1357 C1356 1.327 . S
C1357 C1361 1.429 . S
C1358 C1341 1.574 . S
C1358 H1352 0.949 . S
C1358 C1362 1.368 . S
C1359 C1340 1.429 . S
C1359 C1353 1.429 . S
C1359 C1360 1.523 . S
C1360 C1341 1.368 . S
C1360 C1354 1.368 . S
C1360 C1359 1.523 . S
C1361 C1345 1.429 . S
C1361 C1357 1.429 . S
C1361 C1362 1.523 . S
C1362 C1346 1.368 . S
C1362 C1358 1.368 . S
C1362 C1361 1.523 . S
H1363 C1338 0.950 . S
H1364 C1340 0.950 . S
H1365 C1341 0.949 . S
H1366 C1343 0.950 . S
H1367 C1345 0.950 . S
C1368 C1369 1.349 . S
C1368 C1370 1.327 1_554 S
C1368 H1393 0.950 . S
C1369 C1368 1.349 . S
C1369 C1385 1.349 1_554 S
C1370 C1368 1.327 1_556 S
C1370 C1389 1.429 . S
C1370 H1394 0.950 . S
C1371 C1388 1.574 . S
C1371 C1390 1.368 . S
C1371 H1395 0.949 . S
H1372 C1376 0.949 . S
C1373 C1374 1.349 . S
C1373 C1375 1.327 . S
C1373 H1396 0.950 . S
C1374 C1373 1.349 . S
C1374 C1386 1.349 . S
C1375 C1373 1.327 . S
C1375 C1391 1.429 . S
C1375 H1397 0.950 . S
C1376 H1372 0.949 . S
C1376 C1384 1.574 . S
C1376 C1392 1.368 . S
H1377 C1385 0.950 1_554 S
H1378 C1383 0.950 . S
H1379 C1384 0.949 . S
H1380 C1386 0.950 . S
H1381 C1387 0.950 . S
H1382 C1388 0.949 . S
C1383 H1378 0.950 . S
C1383 C1385 1.327 . S
C1383 C1389 1.429 . S
C1384 C1376 1.574 . S
C1384 H1379 0.949 . S
C1384 C1390 1.368 . S
C1385 C1369 1.349 1_556 S
C1385 H1377 0.950 1_556 S
C1385 C1383 1.327 . S
C1386 C1374 1.349 . S
C1386 H1380 0.950 . S
C1386 C1387 1.327 . S
C1387 H1381 0.950 . S
C1387 C1386 1.327 . S
C1387 C1391 1.429 . S
C1388 C1371 1.574 . S
C1388 H1382 0.949 . S
C1388 C1392 1.368 . S
C1389 C1370 1.429 . S
C1389 C1383 1.429 . S
C1389 C1390 1.523 . S
C1390 C1371 1.368 . S
C1390 C1384 1.368 . S
C1390 C1389 1.523 . S
C1391 C1375 1.429 . S
C1391 C1387 1.429 . S
C1391 C1392 1.523 . S
C1392 C1376 1.368 . S
C1392 C1388 1.368 . S
C1392 C1391 1.523 . S
H1393 C1368 0.950 . S
H1394 C1370 0.950 . S
H1395 C1371 0.949 . S
H1396 C1373 0.950 . S
H1397 C1375 0.950 . S
C1398 C1399 1.349 . S
C1398 C1400 1.327 . S
C1398 H1423 0.950 . S
C1399 C1398 1.349 . S
C1399 C1415 1.349 . S
C1400 C1398 1.327 . S
C1400 C1419 1.429 . S
C1400 H1424 0.950 . S
C1401 C1418 1.574 . S
C1401 C1420 1.368 . S
C1401 H1425 0.949 . S
H1402 C1406 0.949 . S
C1403 C1404 1.349 . S
C1403 C1405 1.327 . S
C1403 H1426 0.950 . S
C1404 C1403 1.349 . S
C1404 C1416 1.349 . S
C1405 C1403 1.327 . S
C1405 C1421 1.429 . S
C1405 H1427 0.950 . S
C1406 H1402 0.949 . S
C1406 C1414 1.574 . S
C1406 C1422 1.368 . S
H1407 C1415 0.950 . S
H1408 C1413 0.950 . S
H1409 C1414 0.949 . S
H1410 C1416 0.950 . S
H1411 C1417 0.950 . S
H1412 C1418 0.949 . S
C1413 H1408 0.950 . S
C1413 C1415 1.327 . S
C1413 C1419 1.429 . S
C1414 C1406 1.574 . S
C1414 H1409 0.949 . S
C1414 C1420 1.368 . S
C1415 C1399 1.349 . S
C1415 H1407 0.950 . S
C1415 C1413 1.327 . S
C1416 C1404 1.349 . S
C1416 H1410 0.950 . S
C1416 C1417 1.327 . S
C1417 H1411 0.950 . S
C1417 C1416 1.327 . S
C1417 C1421 1.429 . S
C1418 C1401 1.574 . S
C1418 H1412 0.949 . S
C1418 C1422 1.368 . S
C1419 C1400 1.429 . S
C1419 C1413 1.429 . S
C1419 C1420 1.523 . S
C1420 C1401 1.368 . S
C1420 C1414 1.368 . S
C1420 C1419 1.523 . S
C1421 C1405 1.429 . S
C1421 C1417 1.429 . S
C1421 C1422 1.523 . S
C1422 C1406 1.368 . S
C1422 C1418 1.368 . S
C1422 C1421 1.523 . S
H1423 C1398 0.950 . S
H1424 C1400 0.950 . S
H1425 C1401 0.949 . S
H1426 C1403 0.950 . S
H1427 C1405 0.950 . S
C1428 C1429 1.349 . S
C1428 C1430 1.327 . S
C1428 H1453 0.950 . S
C1429 C1428 1.349 . S
C1429 C1445 1.349 . S
C1430 C1428 1.327 . S
C1430 C1449 1.429 . S
C1430 H1454 0.950 . S
C1431 C1448 1.574 . S
C1431 C1450 1.368 . S
C1431 H1455 0.949 . S
H1432 C1436 0.949 . S
C1433 C1434 1.349 . S
C1433 C1435 1.327 . S
C1433 H1456 0.950 . S
C1434 C1433 1.349 . S
C1434 C1446 1.349 . S
C1435 C1433 1.327 . S
C1435 C1451 1.429 . S
C1435 H1457 0.950 . S
C1436 H1432 0.949 . S
C1436 C1444 1.574 . S
C1436 C1452 1.368 . S
H1437 C1445 0.950 . S
H1438 C1443 0.950 . S
H1439 C1444 0.949 . S
H1440 C1446 0.950 . S
H1441 C1447 0.950 . S
H1442 C1448 0.949 . S
C1443 H1438 0.950 . S
C1443 C1445 1.327 . S
C1443 C1449 1.429 . S
C1444 C1436 1.574 . S
C1444 H1439 0.949 . S
C1444 C1450 1.368 . S
C1445 C1429 1.349 . S
C1445 H1437 0.950 . S
C1445 C1443 1.327 . S
C1446 C1434 1.349 . S
C1446 H1440 0.950 . S
C1446 C1447 1.327 . S
C1447 H1441 0.950 . S
C1447 C1446 1.327 . S
C1447 C1451 1.429 . S
C1448 C1431 1.574 . S
C1448 H1442 0.949 . S
C1448 C1452 1.368 . S
C1449 C1430 1.429 . S
C1449 C1443 1.429 . S
C1449 C1450 1.523 . S
C1450 C1431 1.368 . S
C1450 C1444 1.368 . S
C1450 C1449 1.523 . S
C1451 C1435 1.429 . S
C1451 C1447 1.429 . S
C1451 C1452 1.523 . S
C1452 C1436 1.368 . S
C1452 C1448 1.368 . S
C1452 C1451 1.523 . S
H1453 C1428 0.950 . S
H1454 C1430 0.950 . S
H1455 C1431 0.949 . S
H1456 C1433 0.950 . S
H1457 C1435 0.950 . S
C1458 C1459 1.349 . S
C1458 C1460 1.327 . S
C1458 H1483 0.950 . S
C1459 C1458 1.349 . S
C1459 C1475 1.349 . S
C1460 C1458 1.327 . S
C1460 C1479 1.429 . S
C1460 H1484 0.950 . S
C1461 C1478 1.574 . S
C1461 C1480 1.368 . S
C1461 H1485 0.949 . S
H1462 C1466 0.949 . S
C1463 C1464 1.349 . S
C1463 C1465 1.327 . S
C1463 H1486 0.950 . S
C1464 C1463 1.349 . S
C1464 C1476 1.349 . S
C1465 C1463 1.327 . S
C1465 C1481 1.429 . S
C1465 H1487 0.950 . S
C1466 H1462 0.949 . S
C1466 C1474 1.574 . S
C1466 C1482 1.368 . S
H1467 C1475 0.950 . S
H1468 C1473 0.950 . S
H1469 C1474 0.949 . S
H1470 C1476 0.950 . S
H1471 C1477 0.950 . S
H1472 C1478 0.949 . S
C1473 H1468 0.950 . S
C1473 C1475 1.327 . S
C1473 C1479 1.429 . S
C1474 C1466 1.574 . S
C1474 H1469 0.949 . S
C1474 C1480 1.368 . S
C1475 C1459 1.349 . S
C1475 H1467 0.950 . S
C1475 C1473 1.327 . S
C1476 C1464 1.349 . S
C1476 H1470 0.950 . S
C1476 C1477 1.327 . S
C1477 H1471 0.950 . S
C1477 C1476 1.327 . S
C1477 C1481 1.429 . S
C1478 C1461 1.574 . S
C1478 H1472 0.949 . S
C1478 C1482 1.368 . S
C1479 C1460 1.429 . S
C1479 C1473 1.429 . S
C1479 C1480 1.523 . S
C1480 C1461 1.368 . S
C1480 C1474 1.368 . S
C1480 C1479 1.523 . S
C1481 C1465 1.429 . S
C1481 C1477 1.429 . S
C1481 C1482 1.523 . S
C1482 C1466 1.368 . S
C1482 C1478 1.368 . S
C1482 C1481 1.523 . S
H1483 C1458 0.950 . S
H1484 C1460 0.950 . S
H1485 C1461 0.949 . S
H1486 C1463 0.950 . S
H1487 C1465 0.950 . S
C1488 C1489 1.349 . S
C1488 C1490 1.327 1_556 S
C1488 H1513 0.950 . S
C1489 C1488 1.349 . S
C1489 C1505 1.349 1_556 S
C1490 C1488 1.327 1_554 S
C1490 C1509 1.429 . S
C1490 H1514 0.950 . S
C1491 C1508 1.574 . S
C1491 C1510 1.368 . S
C1491 H1515 0.949 . S
H1492 C1496 0.949 . S
C1493 C1494 1.349 . S
C1493 C1495 1.327 . S
C1493 H1516 0.950 . S
C1494 C1493 1.349 . S
C1494 C1506 1.349 . S
C1495 C1493 1.327 . S
C1495 C1511 1.429 . S
C1495 H1517 0.950 . S
C1496 H1492 0.949 . S
C1496 C1504 1.574 . S
C1496 C1512 1.368 . S
H1497 C1505 0.950 1_556 S
H1498 C1503 0.950 . S
H1499 C1504 0.949 . S
H1500 C1506 0.950 . S
H1501 C1507 0.950 . S
H1502 C1508 0.949 . S
C1503 H1498 0.950 . S
C1503 C1505 1.327 . S
C1503 C1509 1.429 . S
C1504 C1496 1.574 . S
C1504 H1499 0.949 . S
C1504 C1510 1.368 . S
C1505 C1489 1.349 1_554 S
C1505 H1497 0.950 1_554 S
C1505 C1503 1.327 . S
C1506 C1494 1.349 . S
C1506 H1500 0.950 . S
C1506 C1507 1.327 . S
C1507 H1501 0.950 . S
C1507 C1506 1.327 . S
C1507 C1511 1.429 . S
C1508 C1491 1.574 . S
C1508 H1502 0.949 . S
C1508 C1512 1.368 . S
C1509 C1490 1.429 . S
C1509 C1503 1.429 . S
C1509 C1510 1.523 . S
C1510 C1491 1.368 . S
C1510 C1504 1.368 . S
C1510 C1509 1.523 . S
C1511 C1495 1.429 . S
C1511 C1507 1.429 . S
C1511 C1512 1.523 . S
C1512 C1496 1.368 . S
C1512 C1508 1.368 . S
C1512 C1511 1.523 . S
H1513 C1488 0.950 . S
H1514 C1490 0.950 . S
H1515 C1491 0.949 . S
H1516 C1493 0.950 . S
H1517 C1495 0.950 . S
C1518 C1519 1.349 . S
C1518 C1520 1.327 1_556 S
C1518 H1543 0.950 . S
C1519 C1518 1.349 . S
C1519 C1535 1.349 1_556 S
C1520 C1518 1.327 1_554 S
C1520 C1539 1.429 . S
C1520 H1544 0.950 . S
C1521 C1538 1.574 . S
C1521 C1540 1.368 . S
C1521 H1545 0.949 . S
H1522 C1526 0.949 . S
C1523 C1524 1.349 . S
C1523 C1525 1.327 . S
C1523 H1546 0.950 . S
C1524 C1523 1.349 . S
C1524 C1536 1.349 . S
C1525 C1523 1.327 . S
C1525 C1541 1.429 . S
C1525 H1547 0.950 . S
C1526 H1522 0.949 . S
C1526 C1534 1.574 . S
C1526 C1542 1.368 . S
H1527 C1535 0.950 1_556 S
H1528 C1533 0.950 . S
H1529 C1534 0.949 . S
H1530 C1536 0.950 . S
H1531 C1537 0.950 . S
H1532 C1538 0.949 . S
C1533 H1528 0.950 . S
C1533 C1535 1.327 . S
C1533 C1539 1.429 . S
C1534 C1526 1.574 . S
C1534 H1529 0.949 . S
C1534 C1540 1.368 . S
C1535 C1519 1.349 1_554 S
C1535 H1527 0.950 1_554 S
C1535 C1533 1.327 . S
C1536 C1524 1.349 . S
C1536 H1530 0.950 . S
C1536 C1537 1.327 . S
C1537 H1531 0.950 . S
C1537 C1536 1.327 . S
C1537 C1541 1.429 . S
C1538 C1521 1.574 . S
C1538 H1532 0.949 . S
C1538 C1542 1.368 . S
C1539 C1520 1.429 . S
C1539 C1533 1.429 . S
C1539 C1540 1.523 . S
C1540 C1521 1.368 . S
C1540 C1534 1.368 . S
C1540 C1539 1.523 . S
C1541 C1525 1.429 . S
C1541 C1537 1.429 . S
C1541 C1542 1.523 . S
C1542 C1526 1.368 . S
C1542 C1538 1.368 . S
C1542 C1541 1.523 . S
H1543 C1518 0.950 . S
H1544 C1520 0.950 . S
H1545 C1521 0.949 . S
H1546 C1523 0.950 . S
H1547 C1525 0.950 . S
C1548 C1549 1.330 1_554 S
C1548 C1550 1.362 . S
C1548 H1573 0.934 1_554 S
C1549 C1548 1.330 1_556 S
C1549 C1565 1.349 . S
C1550 C1548 1.362 . S
C1550 C1569 1.429 . S
C1550 H1574 0.950 . S
C1551 C1568 1.574 . S
C1551 C1570 1.368 . S
C1551 H1575 0.949 . S
H1552 C1556 0.949 . S
C1553 C1554 1.349 . S
C1553 C1555 1.327 . S
C1553 H1576 0.950 . S
C1554 C1553 1.349 . S
C1554 C1566 1.349 . S
C1555 C1553 1.327 . S
C1555 C1571 1.429 . S
C1555 H1577 0.950 . S
C1556 H1552 0.949 . S
C1556 C1564 1.574 . S
C1556 C1572 1.368 . S
H1557 C1565 0.950 . S
H1558 C1563 0.950 . S
H1559 C1564 0.949 . S
H1560 C1566 0.950 . S
H1561 C1567 0.950 . S
H1562 C1568 0.949 . S
C1563 H1558 0.950 . S
C1563 C1565 1.327 1_554 S
C1563 C1569 1.429 . S
C1564 C1556 1.574 . S
C1564 H1559 0.949 . S
C1564 C1570 1.368 . S
C1565 C1549 1.349 . S
C1565 H1557 0.950 . S
C1565 C1563 1.327 1_556 S
C1566 C1554 1.349 . S
C1566 H1560 0.950 . S
C1566 C1567 1.327 . S
C1567 H1561 0.950 . S
C1567 C1566 1.327 . S
C1567 C1571 1.429 . S
C1568 C1551 1.574 . S
C1568 H1562 0.949 . S
C1568 C1572 1.368 . S
C1569 C1550 1.429 . S
C1569 C1563 1.429 . S
C1569 C1570 1.523 . S
C1570 C1551 1.368 . S
C1570 C1564 1.368 . S
C1570 C1569 1.523 . S
C1571 C1555 1.429 . S
C1571 C1567 1.429 . S
C1571 C1572 1.523 . S
C1572 C1556 1.368 . S
C1572 C1568 1.368 . S
C1572 C1571 1.523 . S
H1573 C1548 0.934 1_556 S
H1574 C1550 0.950 . S
H1575 C1551 0.949 . S
H1576 C1553 0.950 . S
H1577 C1555 0.950 . S
C1578 C1579 1.349 . S
C1578 C1580 1.327 . S
C1578 H1603 0.950 . S
C1579 C1578 1.349 . S
C1579 C1595 1.349 . S
C1580 C1578 1.327 . S
C1580 C1599 1.429 . S
C1580 H1604 0.950 . S
C1581 C1598 1.574 . S
C1581 C1600 1.368 . S
C1581 H1605 0.949 . S
H1582 C1586 0.949 . S
C1583 C1584 1.349 . S
C1583 C1585 1.327 . S
C1583 H1606 0.950 . S
C1584 C1583 1.349 . S
C1584 C1596 1.349 . S
C1585 C1583 1.327 . S
C1585 C1601 1.429 . S
C1585 H1607 0.950 . S
C1586 H1582 0.949 . S
C1586 C1594 1.574 . S
C1586 C1602 1.368 . S
H1587 C1595 0.950 . S
H1588 C1593 0.950 . S
H1589 C1594 0.949 . S
H1590 C1596 0.950 . S
H1591 C1597 0.950 . S
H1592 C1598 0.949 . S
C1593 H1588 0.950 . S
C1593 C1595 1.327 . S
C1593 C1599 1.429 . S
C1594 C1586 1.574 . S
C1594 H1589 0.949 . S
C1594 C1600 1.368 . S
C1595 C1579 1.349 . S
C1595 H1587 0.950 . S
C1595 C1593 1.327 . S
C1596 C1584 1.349 . S
C1596 H1590 0.950 . S
C1596 C1597 1.327 . S
C1597 H1591 0.950 . S
C1597 C1596 1.327 . S
C1597 C1601 1.429 . S
C1598 C1581 1.574 . S
C1598 H1592 0.949 . S
C1598 C1602 1.368 . S
C1599 C1580 1.429 . S
C1599 C1593 1.429 . S
C1599 C1600 1.523 . S
C1600 C1581 1.368 . S
C1600 C1594 1.368 . S
C1600 C1599 1.523 . S
C1601 C1585 1.429 . S
C1601 C1597 1.429 . S
C1601 C1602 1.523 . S
C1602 C1586 1.368 . S
C1602 C1598 1.368 . S
C1602 C1601 1.523 . S
H1603 C1578 0.950 . S
H1604 C1580 0.950 . S
H1605 C1581 0.949 . S
H1606 C1583 0.950 . S
H1607 C1585 0.950 . S
C1608 C1609 1.349 . S
C1608 C1610 1.327 . S
C1608 H1633 0.950 . S
C1609 C1608 1.349 . S
C1609 C1625 1.349 . S
C1610 C1608 1.327 . S
C1610 C1629 1.429 . S
C1610 H1634 0.950 . S
C1611 C1628 1.574 . S
C1611 C1630 1.368 . S
C1611 H1635 0.949 . S
H1612 C1616 0.949 . S
C1613 C1614 1.349 . S
C1613 C1615 1.327 . S
C1613 H1636 0.950 . S
C1614 C1613 1.349 . S
C1614 C1626 1.349 . S
C1615 C1613 1.327 . S
C1615 C1631 1.429 . S
C1615 H1637 0.950 . S
C1616 H1612 0.949 . S
C1616 C1624 1.574 . S
C1616 C1632 1.368 . S
H1617 C1625 0.950 . S
H1618 C1623 0.950 . S
H1619 C1624 0.949 . S
H1620 C1626 0.950 . S
H1621 C1627 0.950 . S
H1622 C1628 0.949 . S
C1623 H1618 0.950 . S
C1623 C1625 1.327 . S
C1623 C1629 1.429 . S
C1624 C1616 1.574 . S
C1624 H1619 0.949 . S
C1624 C1630 1.368 . S
C1625 C1609 1.349 . S
C1625 H1617 0.950 . S
C1625 C1623 1.327 . S
C1626 C1614 1.349 . S
C1626 H1620 0.950 . S
C1626 C1627 1.327 . S
C1627 H1621 0.950 . S
C1627 C1626 1.327 . S
C1627 C1631 1.429 . S
C1628 C1611 1.574 . S
C1628 H1622 0.949 . S
C1628 C1632 1.368 . S
C1629 C1610 1.429 . S
C1629 C1623 1.429 . S
C1629 C1630 1.523 . S
C1630 C1611 1.368 . S
C1630 C1624 1.368 . S
C1630 C1629 1.523 . S
C1631 C1615 1.429 . S
C1631 C1627 1.429 . S
C1631 C1632 1.523 . S
C1632 C1616 1.368 . S
C1632 C1628 1.368 . S
C1632 C1631 1.523 . S
H1633 C1608 0.950 . S
H1634 C1610 0.950 . S
H1635 C1611 0.949 . S
H1636 C1613 0.950 . S
H1637 C1615 0.950 . S
C1638 C1639 1.349 . S
C1638 C1640 1.327 . S
C1638 H1663 0.950 . S
C1639 C1638 1.349 . S
C1639 C1655 1.349 . S
C1640 C1638 1.327 . S
C1640 C1659 1.429 . S
C1640 H1664 0.950 . S
C1641 C1658 1.574 . S
C1641 C1660 1.368 . S
C1641 H1665 0.949 . S
H1642 C1646 0.949 . S
C1643 C1644 1.349 . S
C1643 C1645 1.327 . S
C1643 H1666 0.950 . S
C1644 C1643 1.349 . S
C1644 C1656 1.349 . S
C1645 C1643 1.327 . S
C1645 C1661 1.429 . S
C1645 H1667 0.950 . S
C1646 H1642 0.949 . S
C1646 C1654 1.574 . S
C1646 C1662 1.368 . S
H1647 C1655 0.950 . S
H1648 C1653 0.950 . S
H1649 C1654 0.949 . S
H1650 C1656 0.950 . S
H1651 C1657 0.950 . S
H1652 C1658 0.949 . S
C1653 H1648 0.950 . S
C1653 C1655 1.327 . S
C1653 C1659 1.429 . S
C1654 C1646 1.574 . S
C1654 H1649 0.949 . S
C1654 C1660 1.368 . S
C1655 C1639 1.349 . S
C1655 H1647 0.950 . S
C1655 C1653 1.327 . S
C1656 C1644 1.349 . S
C1656 H1650 0.950 . S
C1656 C1657 1.327 . S
C1657 H1651 0.950 . S
C1657 C1656 1.327 . S
C1657 C1661 1.429 . S
C1658 C1641 1.574 . S
C1658 H1652 0.949 . S
C1658 C1662 1.368 . S
C1659 C1640 1.429 . S
C1659 C1653 1.429 . S
C1659 C1660 1.523 . S
C1660 C1641 1.368 . S
C1660 C1654 1.368 . S
C1660 C1659 1.523 . S
C1661 C1645 1.429 . S
C1661 C1657 1.429 . S
C1661 C1662 1.523 . S
C1662 C1646 1.368 . S
C1662 C1658 1.368 . S
C1662 C1661 1.523 . S
H1663 C1638 0.950 . S
H1664 C1640 0.950 . S
H1665 C1641 0.949 . S
H1666 C1643 0.950 . S
H1667 C1645 0.950 . S
C409 C241 1.654 . S
C414 C22 1.751 . S
C439 C56 1.751 . S
C444 C275 1.654 . S
C469 C90 1.751 . S
C474 C207 1.654 . S
C499 C124 1.751 . S
C504 C377 1.654 . S
C529 C307 1.654 . S
C534 C158 1.751 . S
C559 C192 1.751 . S
C564 C341 1.654 . S
C589 C219 1.751 . S
C594 C35 1.654 . S
C619 C253 1.751 . S
C624 C69 1.654 . S
C649 C1 1.654 . S
C654 C287 1.751 . S
C679 C328 1.751 . S
C684 C171 1.654 . S
C709 C362 1.751 . S
C714 C103 1.654 . S
C739 C137 1.654 . S
C744 C389 1.751 . S
C769 C3 1.337 . S
C774 C105 1.337 . S
C799 C37 1.337 . S
C804 C139 1.337 . S
C829 C71 1.337 . S
C834 C173 1.337 . S
C859 C309 1.337 . S
C864 C205 1.337 . S
C889 C343 1.337 . S
C894 C239 1.337 . S
C919 C375 1.337 . S
C924 C273 1.337 . S
C949 C17 1.888 . S
C954 C49 1.668 . S
C979 C51 1.888 . S
C984 C83 1.668 . S
C1009 C85 1.888 . S
C1014 C15 1.668 . S
C1039 C185 1.668 . S
C1044 C119 1.888 . S
C1069 C153 1.888 . S
C1074 C117 1.668 . S
C1099 C151 1.668 . S
C1104 C187 1.888 . S
C1129 C260 1.668 . S
C1134 C221 1.888 . S
C1159 C255 1.888 . S
C1164 C294 1.668 . S
C1189 C289 1.888 . S
C1194 C226 1.668 . S
C1219 C323 1.888 . S
C1224 C396 1.668 . S
C1249 C357 1.888 . S
C1254 C321 1.668 . S
C1279 C391 1.888 . S
C1284 C355 1.668 . S
C1309 C368 1.214 . S
C1314 C6 1.211 . S
C1339 C380 1.214 . S
C1344 C40 1.211 . S
C1369 C74 1.211 . S
C1374 C334 1.214 . S
C1399 C108 1.211 . S
C1404 C278 1.214 . S
C1429 C142 1.211 . S
C1434 C210 1.214 . S
C1459 C244 1.214 . S
C1464 C176 1.211 . S
C1489 C232 1.211 . S
C1494 C164 1.214 . S
C1519 C266 1.211 . S
C1524 C198 1.214 . S
C1549 C300 1.211 . S
C1554 C130 1.214 . S
C1579 C312 1.211 . S
C1584 C96 1.214 . S
C1609 C346 1.211 . S
C1614 C28 1.214 . S
C1639 C402 1.211 . S
C1644 C62 1.214 . S
