# Generated by pormake.
# Topology uml, (4)-cn, num edge types: 1
# Building blocks:
#     Node 0, Type 0, BuildingBlock: ESEHIV_clean_sbu_0, # of connection points: 4
#     Node 1, Type 0, BuildingBlock: ESEHIV_clean_sbu_0, # of connection points: 4
#     Node 2, Type 0, BuildingBlock: ESEHIV_clean_sbu_0, # of connection points: 4
#     Node 3, Type 0, BuildingBlock: ESEHIV_clean_sbu_0, # of connection points: 4
#     Node 4, Type 0, BuildingBlock: ESEHIV_clean_sbu_0, # of connection points: 4
#     Node 5, Type 0, BuildingBlock: ESEHIV_clean_sbu_0, # of connection points: 4
#     Node 6, Type 0, BuildingBlock: ESEHIV_clean_sbu_0, # of connection points: 4
#     Node 7, Type 0, BuildingBlock: ESEHIV_clean_sbu_0, # of connection points: 4
#     Node 8, Type 0, BuildingBlock: ESEHIV_clean_sbu_0, # of connection points: 4
#     Node 9, Type 0, BuildingBlock: ESEHIV_clean_sbu_0, # of connection points: 4
#     Node 10, Type 0, BuildingBlock: ESEHIV_clean_sbu_0, # of connection points: 4
#     Node 11, Type 0, BuildingBlock: ESEHIV_clean_sbu_0, # of connection points: 4
#     Node 12, Type 0, BuildingBlock: ESEHIV_clean_sbu_0, # of connection points: 4
#     Node 13, Type 0, BuildingBlock: ESEHIV_clean_sbu_0, # of connection points: 4
#     Node 14, Type 0, BuildingBlock: ESEHIV_clean_sbu_0, # of connection points: 4
#     Node 15, Type 0, BuildingBlock: ESEHIV_clean_sbu_0, # of connection points: 4
#     Node 16, Type 0, BuildingBlock: ESEHIV_clean_sbu_0, # of connection points: 4
#     Node 17, Type 0, BuildingBlock: ESEHIV_clean_sbu_0, # of connection points: 4
#     Node 18, Type 0, BuildingBlock: ESEHIV_clean_sbu_0, # of connection points: 4
#     Node 19, Type 0, BuildingBlock: ESEHIV_clean_sbu_0, # of connection points: 4
#     Node 20, Type 0, BuildingBlock: ESEHIV_clean_sbu_0, # of connection points: 4
#     Node 21, Type 0, BuildingBlock: ESEHIV_clean_sbu_0, # of connection points: 4
#     Node 22, Type 0, BuildingBlock: ESEHIV_clean_sbu_0, # of connection points: 4
#     Node 23, Type 0, BuildingBlock: ESEHIV_clean_sbu_0, # of connection points: 4
#     Node 24, Type 0, BuildingBlock: ESEHIV_clean_sbu_0, # of connection points: 4
#     Node 25, Type 0, BuildingBlock: ESEHIV_clean_sbu_0, # of connection points: 4
#     Node 26, Type 0, BuildingBlock: ESEHIV_clean_sbu_0, # of connection points: 4
#     Node 27, Type 0, BuildingBlock: ESEHIV_clean_sbu_0, # of connection points: 4
#     Node 28, Type 0, BuildingBlock: ESEHIV_clean_sbu_0, # of connection points: 4
#     Node 29, Type 0, BuildingBlock: ESEHIV_clean_sbu_0, # of connection points: 4
#     Node 30, Type 0, BuildingBlock: ESEHIV_clean_sbu_0, # of connection points: 4
#     Node 31, Type 0, BuildingBlock: ESEHIV_clean_sbu_0, # of connection points: 4
#     Node 32, Type 0, BuildingBlock: ESEHIV_clean_sbu_0, # of connection points: 4
#     Node 33, Type 0, BuildingBlock: ESEHIV_clean_sbu_0, # of connection points: 4
#     Node 34, Type 0, BuildingBlock: ESEHIV_clean_sbu_0, # of connection points: 4
#     Node 35, Type 0, BuildingBlock: ESEHIV_clean_sbu_0, # of connection points: 4
#     Edge 36, Type (0, 0), BuildingBlock: XIVTED_clean_linker_0, # of connection points: 2
#     Edge 37, Type (0, 0), BuildingBlock: XIVTED_clean_linker_0, # of connection points: 2
#     Edge 38, Type (0, 0), BuildingBlock: XIVTED_clean_linker_0, # of connection points: 2
#     Edge 39, Type (0, 0), BuildingBlock: XIVTED_clean_linker_0, # of connection points: 2
#     Edge 40, Type (0, 0), BuildingBlock: XIVTED_clean_linker_0, # of connection points: 2
#     Edge 41, Type (0, 0), BuildingBlock: XIVTED_clean_linker_0, # of connection points: 2
#     Edge 42, Type (0, 0), BuildingBlock: XIVTED_clean_linker_0, # of connection points: 2
#     Edge 43, Type (0, 0), BuildingBlock: XIVTED_clean_linker_0, # of connection points: 2
#     Edge 44, Type (0, 0), BuildingBlock: XIVTED_clean_linker_0, # of connection points: 2
#     Edge 45, Type (0, 0), BuildingBlock: XIVTED_clean_linker_0, # of connection points: 2
#     Edge 46, Type (0, 0), BuildingBlock: XIVTED_clean_linker_0, # of connection points: 2
#     Edge 47, Type (0, 0), BuildingBlock: XIVTED_clean_linker_0, # of connection points: 2
#     Edge 48, Type (0, 0), BuildingBlock: XIVTED_clean_linker_0, # of connection points: 2
#     Edge 49, Type (0, 0), BuildingBlock: XIVTED_clean_linker_0, # of connection points: 2
#     Edge 50, Type (0, 0), BuildingBlock: XIVTED_clean_linker_0, # of connection points: 2
#     Edge 51, Type (0, 0), BuildingBlock: XIVTED_clean_linker_0, # of connection points: 2
#     Edge 52, Type (0, 0), BuildingBlock: XIVTED_clean_linker_0, # of connection points: 2
#     Edge 53, Type (0, 0), BuildingBlock: XIVTED_clean_linker_0, # of connection points: 2
#     Edge 54, Type (0, 0), BuildingBlock: XIVTED_clean_linker_0, # of connection points: 2
#     Edge 55, Type (0, 0), BuildingBlock: XIVTED_clean_linker_0, # of connection points: 2
#     Edge 56, Type (0, 0), BuildingBlock: XIVTED_clean_linker_0, # of connection points: 2
#     Edge 57, Type (0, 0), BuildingBlock: XIVTED_clean_linker_0, # of connection points: 2
#     Edge 58, Type (0, 0), BuildingBlock: XIVTED_clean_linker_0, # of connection points: 2
#     Edge 59, Type (0, 0), BuildingBlock: XIVTED_clean_linker_0, # of connection points: 2
#     Edge 60, Type (0, 0), BuildingBlock: XIVTED_clean_linker_0, # of connection points: 2
#     Edge 61, Type (0, 0), BuildingBlock: XIVTED_clean_linker_0, # of connection points: 2
#     Edge 62, Type (0, 0), BuildingBlock: XIVTED_clean_linker_0, # of connection points: 2
#     Edge 63, Type (0, 0), BuildingBlock: XIVTED_clean_linker_0, # of connection points: 2
#     Edge 64, Type (0, 0), BuildingBlock: XIVTED_clean_linker_0, # of connection points: 2
#     Edge 65, Type (0, 0), BuildingBlock: XIVTED_clean_linker_0, # of connection points: 2
#     Edge 66, Type (0, 0), BuildingBlock: XIVTED_clean_linker_0, # of connection points: 2
#     Edge 67, Type (0, 0), BuildingBlock: XIVTED_clean_linker_0, # of connection points: 2
#     Edge 68, Type (0, 0), BuildingBlock: XIVTED_clean_linker_0, # of connection points: 2
#     Edge 69, Type (0, 0), BuildingBlock: XIVTED_clean_linker_0, # of connection points: 2
#     Edge 70, Type (0, 0), BuildingBlock: XIVTED_clean_linker_0, # of connection points: 2
#     Edge 71, Type (0, 0), BuildingBlock: XIVTED_clean_linker_0, # of connection points: 2
#     Edge 72, Type (0, 0), BuildingBlock: XIVTED_clean_linker_0, # of connection points: 2
#     Edge 73, Type (0, 0), BuildingBlock: XIVTED_clean_linker_0, # of connection points: 2
#     Edge 74, Type (0, 0), BuildingBlock: XIVTED_clean_linker_0, # of connection points: 2
#     Edge 75, Type (0, 0), BuildingBlock: XIVTED_clean_linker_0, # of connection points: 2
#     Edge 76, Type (0, 0), BuildingBlock: XIVTED_clean_linker_0, # of connection points: 2
#     Edge 77, Type (0, 0), BuildingBlock: XIVTED_clean_linker_0, # of connection points: 2
#     Edge 78, Type (0, 0), BuildingBlock: XIVTED_clean_linker_0, # of connection points: 2
#     Edge 79, Type (0, 0), BuildingBlock: XIVTED_clean_linker_0, # of connection points: 2
#     Edge 80, Type (0, 0), BuildingBlock: XIVTED_clean_linker_0, # of connection points: 2
#     Edge 81, Type (0, 0), BuildingBlock: XIVTED_clean_linker_0, # of connection points: 2
#     Edge 82, Type (0, 0), BuildingBlock: XIVTED_clean_linker_0, # of connection points: 2
#     Edge 83, Type (0, 0), BuildingBlock: XIVTED_clean_linker_0, # of connection points: 2
#     Edge 84, Type (0, 0), BuildingBlock: XIVTED_clean_linker_0, # of connection points: 2
#     Edge 85, Type (0, 0), BuildingBlock: XIVTED_clean_linker_0, # of connection points: 2
#     Edge 86, Type (0, 0), BuildingBlock: XIVTED_clean_linker_0, # of connection points: 2
#     Edge 87, Type (0, 0), BuildingBlock: XIVTED_clean_linker_0, # of connection points: 2
#     Edge 88, Type (0, 0), BuildingBlock: XIVTED_clean_linker_0, # of connection points: 2
#     Edge 89, Type (0, 0), BuildingBlock: XIVTED_clean_linker_0, # of connection points: 2
#     Edge 90, Type (0, 0), BuildingBlock: XIVTED_clean_linker_0, # of connection points: 2
#     Edge 91, Type (0, 0), BuildingBlock: XIVTED_clean_linker_0, # of connection points: 2
#     Edge 92, Type (0, 0), BuildingBlock: XIVTED_clean_linker_0, # of connection points: 2
#     Edge 93, Type (0, 0), BuildingBlock: XIVTED_clean_linker_0, # of connection points: 2
#     Edge 94, Type (0, 0), BuildingBlock: XIVTED_clean_linker_0, # of connection points: 2
#     Edge 95, Type (0, 0), BuildingBlock: XIVTED_clean_linker_0, # of connection points: 2
#     Edge 96, Type (0, 0), BuildingBlock: XIVTED_clean_linker_0, # of connection points: 2
#     Edge 97, Type (0, 0), BuildingBlock: XIVTED_clean_linker_0, # of connection points: 2
#     Edge 98, Type (0, 0), BuildingBlock: XIVTED_clean_linker_0, # of connection points: 2
#     Edge 99, Type (0, 0), BuildingBlock: XIVTED_clean_linker_0, # of connection points: 2
#     Edge 100, Type (0, 0), BuildingBlock: XIVTED_clean_linker_0, # of connection points: 2
#     Edge 101, Type (0, 0), BuildingBlock: XIVTED_clean_linker_0, # of connection points: 2
#     Edge 102, Type (0, 0), BuildingBlock: XIVTED_clean_linker_0, # of connection points: 2
#     Edge 103, Type (0, 0), BuildingBlock: XIVTED_clean_linker_0, # of connection points: 2
#     Edge 104, Type (0, 0), BuildingBlock: XIVTED_clean_linker_0, # of connection points: 2
#     Edge 105, Type (0, 0), BuildingBlock: XIVTED_clean_linker_0, # of connection points: 2
#     Edge 106, Type (0, 0), BuildingBlock: XIVTED_clean_linker_0, # of connection points: 2
#     Edge 107, Type (0, 0), BuildingBlock: XIVTED_clean_linker_0, # of connection points: 2
# Relax obj value: 0.049
# Max RMSD: 0.130
# Mean RMSD: 0.098
data_MOF--net-uml--node1-ESEHIV_clean_sbu_0--edge1-XIVTED_clean_linker_0
_symmetry_space_group_name_H-M    P1
_symmetry_Int_Tables_number       1
_symmetry_cell_setting            triclinic
loop_
_symmetry_equiv_pos_as_xyz
'x, y, z'
_cell_length_a     110.40723
_cell_length_b     114.90989
_cell_length_c     29.591826
_cell_angle_alpha  89.880424
_cell_angle_beta   89.824307
_cell_angle_gamma 118.64395
loop_
_atom_site_label
_atom_site_type_symbol
_atom_site_fract_x
_atom_site_fract_y
_atom_site_fract_z
_atom_type_partial_charge
Cu0 Cu 0.37428 0.10522 0.17035 0.0
N1 N 0.3793 0.12333 0.17343 0.0
N2 N 0.37648 0.14144 0.1764 0.0
C3 C 0.37069 0.12821 0.18406 0.0
C4 C 0.38927 0.14497 0.16047 0.0
C5 C 0.39092 0.13382 0.15838 0.0
O6 O 0.36407 0.09716 0.22679 0.0
C7 C 0.35936 0.08893 0.09104 0.0
O8 O 0.3595 0.07858 0.10936 0.0
H9 H 0.36011 0.12201 0.19471 0.0
H10 H 0.39975 0.13332 0.14464 0.0
N11 N 0.38997 0.10258 0.16676 0.0
N12 N 0.40339 0.09304 0.15483 0.0
C13 C 0.39056 0.09175 0.15172 0.0
C14 C 0.40292 0.11096 0.18027 0.0
C15 C 0.41117 0.10515 0.17294 0.0
C16 C 0.37103 0.10082 0.26339 0.0
O17 O 0.38431 0.10913 0.26053 0.0
H18 H 0.38173 0.08292 0.13978 0.0
H19 H 0.40614 0.12059 0.19504 0.0
O20 O 0.36399 0.09973 0.11315 0.0
H21 H 0.39682 0.15484 0.14992 0.0
H22 H 0.4221 0.1096 0.17999 0.0
Cu23 Cu 0.91541 0.25682 0.19783 0.0
N24 N 0.89709 0.24334 0.19471 0.0
N25 N 0.87929 0.22274 0.19265 0.0
C26 C 0.89311 0.23029 0.1963 0.0
C27 C 0.87441 0.23146 0.1884 0.0
C28 C 0.88543 0.24417 0.18968 0.0
O29 O 0.92284 0.25474 0.25649 0.0
C30 C 0.93353 0.26199 0.11781 0.0
O31 O 0.94157 0.27412 0.13195 0.0
H32 H 0.90032 0.22646 0.19941 0.0
H33 H 0.88498 0.25334 0.18716 0.0
N34 N 0.91621 0.27359 0.19798 0.0
N35 N 0.92208 0.29479 0.18276 0.0
C36 C 0.92113 0.28337 0.16654 0.0
C37 C 0.9136 0.27896 0.23463 0.0
C38 C 0.9172 0.29195 0.22546 0.0
C39 C 0.91471 0.25138 0.29075 0.0
O40 O 0.90198 0.24909 0.2846 0.0
H41 H 0.92452 0.28237 0.13319 0.0
H42 H 0.9099 0.27397 0.26667 0.0
O43 O 0.92357 0.25389 0.1427 0.0
H44 H 0.86366 0.22889 0.18509 0.0
H45 H 0.91663 0.29888 0.24894 0.0
Cu46 Cu 0.77531 0.65371 0.18445 0.0
N47 N 0.79058 0.65065 0.18423 0.0
N48 N 0.81251 0.65464 0.18304 0.0
C49 C 0.8039 0.65969 0.19131 0.0
C50 C 0.80432 0.64196 0.17059 0.0
C51 C 0.79081 0.6395 0.17163 0.0
O52 O 0.77613 0.66315 0.2412 0.0
C53 C 0.77663 0.65695 0.09145 0.0
O54 O 0.77636 0.64545 0.09594 0.0
H55 H 0.80727 0.66992 0.20011 0.0
H56 H 0.78184 0.63038 0.16193 0.0
N57 N 0.75869 0.63757 0.18387 0.0
N58 N 0.73672 0.62256 0.17005 0.0
C59 C 0.74693 0.63505 0.16226 0.0
C60 C 0.75582 0.62621 0.20555 0.0
C61 C 0.74229 0.61699 0.19733 0.0
C62 C 0.77597 0.65723 0.2781 0.0
O63 O 0.77543 0.64559 0.27565 0.0
H64 H 0.74581 0.64231 0.14183 0.0
H65 H 0.76306 0.62468 0.22585 0.0
O66 O 0.7761 0.66294 0.1272 0.0
H67 H 0.80788 0.63506 0.16055 0.0
H68 H 0.73702 0.6069 0.2099 0.0
Cu69 Cu 0.1358 0.3597 0.35709 0.0
N70 N 0.15516 0.36803 0.35732 0.0
N71 N 0.17663 0.37081 0.3517 0.0
C72 C 0.16304 0.36248 0.34536 0.0
C73 C 0.1773 0.38202 0.3685 0.0
C74 C 0.16405 0.38028 0.37181 0.0
O75 O 0.12968 0.34902 0.30062 0.0
C76 C 0.11994 0.34762 0.44051 0.0
O77 O 0.11067 0.35075 0.42573 0.0
H78 H 0.15883 0.35239 0.33341 0.0
H79 H 0.16107 0.38737 0.38457 0.0
N80 N 0.12979 0.3726 0.35337 0.0
N81 N 0.12048 0.3859 0.36714 0.0
C82 C 0.12544 0.37819 0.38549 0.0
C83 C 0.12777 0.37726 0.31391 0.0
C84 C 0.12213 0.38539 0.32217 0.0
C85 C 0.13617 0.35441 0.26384 0.0
O86 O 0.14693 0.36629 0.26596 0.0
H87 H 0.12541 0.37627 0.42129 0.0
H88 H 0.1298 0.37461 0.28091 0.0
O89 O 0.13017 0.34969 0.41505 0.0
H90 H 0.18668 0.39082 0.37787 0.0
H91 H 0.11925 0.39038 0.29671 0.0
Cu92 Cu 0.66277 0.75643 0.35931 0.0
N93 N 0.65871 0.77054 0.36067 0.0
N94 N 0.66198 0.79134 0.36292 0.0
C95 C 0.66804 0.78353 0.36129 0.0
C96 C 0.64827 0.78284 0.36336 0.0
C97 C 0.6463 0.77005 0.36197 0.0
O98 O 0.67246 0.75778 0.30131 0.0
C99 C 0.66641 0.75847 0.45156 0.0
O100 O 0.65447 0.75823 0.44662 0.0
H101 H 0.67907 0.78713 0.36128 0.0
H102 H 0.63651 0.76102 0.36201 0.0
N103 N 0.64656 0.74 0.36 0.0
N104 N 0.63169 0.71879 0.37629 0.0
C105 C 0.64371 0.72956 0.38731 0.0
C106 C 0.63593 0.73568 0.33095 0.0
C107 C 0.62678 0.72262 0.34083 0.0
C108 C 0.66743 0.76042 0.26621 0.0
O109 O 0.65667 0.76228 0.27148 0.0
H110 H 0.65056 0.72972 0.41369 0.0
H111 H 0.63498 0.74152 0.30391 0.0
O112 O 0.6726 0.75759 0.41616 0.0
H113 H 0.64021 0.78563 0.36413 0.0
H114 H 0.61725 0.71641 0.32322 0.0
Cu115 Cu 0.26595 0.90761 0.38684 0.0
N116 N 0.25339 0.88941 0.3844 0.0
N117 N 0.23291 0.87088 0.38053 0.0
C118 C 0.23992 0.88416 0.37359 0.0
C119 C 0.24246 0.86772 0.39623 0.0
C120 C 0.25499 0.87914 0.39888 0.0
O121 O 0.26355 0.91528 0.32991 0.0
C122 C 0.26724 0.92453 0.46346 0.0
O123 O 0.27589 0.93497 0.44013 0.0
H124 H 0.23525 0.89013 0.3631 0.0
H125 H 0.26444 0.87993 0.41238 0.0
N126 N 0.28437 0.91079 0.39025 0.0
N127 N 0.30724 0.92115 0.40252 0.0
C128 C 0.2954 0.92189 0.40539 0.0
C129 C 0.28948 0.90278 0.3772 0.0
C130 C 0.30352 0.90911 0.38469 0.0
C131 C 0.26725 0.91164 0.2939 0.0
O132 O 0.2726 0.90365 0.29795 0.0
H133 H 0.29484 0.93049 0.41727 0.0
H134 H 0.28347 0.89306 0.36256 0.0
O135 O 0.26155 0.91317 0.4447 0.0
H136 H 0.24053 0.85792 0.40615 0.0
H137 H 0.3104 0.90508 0.3778 0.0
Cu138 Cu 0.66686 0.91032 0.87419 0.0
N139 N 0.6615 0.89213 0.87342 0.0
N140 N 0.66376 0.87371 0.87191 0.0
C141 C 0.67 0.88699 0.86493 0.0
C142 C 0.65079 0.87044 0.88526 0.0
C143 C 0.64947 0.88178 0.88648 0.0
O144 O 0.67655 0.91766 0.81639 0.0
C145 C 0.68192 0.92676 0.95348 0.0
O146 O 0.68142 0.93705 0.9363 0.0
H147 H 0.68074 0.89304 0.85585 0.0
H148 H 0.64052 0.88246 0.89784 0.0
N149 N 0.65135 0.91321 0.87678 0.0
N150 N 0.63819 0.92312 0.88552 0.0
C151 C 0.6508 0.9241 0.89134 0.0
C152 C 0.63863 0.90515 0.86075 0.0
C153 C 0.63052 0.91117 0.86621 0.0
C154 C 0.66994 0.9114 0.7812 0.0
O155 O 0.65768 0.90107 0.78682 0.0
H156 H 0.65955 0.9328 0.90431 0.0
H157 H 0.6355 0.89564 0.84515 0.0
O158 O 0.67748 0.91609 0.93068 0.0
H159 H 0.64282 0.86059 0.89441 0.0
H160 H 0.61979 0.90704 0.85665 0.0
Cu161 Cu 0.11744 0.75668 0.85851 0.0
N162 N 0.13555 0.7706 0.86153 0.0
N163 N 0.15309 0.79134 0.86493 0.0
C164 C 0.13927 0.78361 0.86141 0.0
C165 C 0.15821 0.78278 0.86746 0.0
C166 C 0.14738 0.77 0.86537 0.0
O167 O 0.1095 0.75841 0.80017 0.0
C168 C 0.09854 0.74964 0.93644 0.0
O169 O 0.09042 0.7384 0.91623 0.0
H170 H 0.13191 0.78727 0.85951 0.0
H171 H 0.14805 0.76092 0.86661 0.0
N172 N 0.11742 0.74029 0.85735 0.0
N173 N 0.11258 0.71939 0.87294 0.0
C174 C 0.113 0.73059 0.88903 0.0
C175 C 0.12016 0.73507 0.82054 0.0
C176 C 0.11718 0.72224 0.82996 0.0
C177 C 0.1175 0.76198 0.7655 0.0
O178 O 0.13043 0.7649 0.77125 0.0
H179 H 0.10953 0.73148 0.92243 0.0
H180 H 0.12355 0.74005 0.78833 0.0
O181 O 0.1091 0.75841 0.9154 0.0
H182 H 0.16902 0.78551 0.87016 0.0
H183 H 0.11801 0.71543 0.80656 0.0
Cu184 Cu 0.26587 0.36129 0.88099 0.0
N185 N 0.25764 0.37027 0.90847 0.0
N186 N 0.24447 0.36897 0.96797 0.0
C187 C 0.25636 0.36953 0.95368 0.0
C188 C 0.2382 0.36987 0.93009 0.0
C189 C 0.24637 0.37072 0.89342 0.0
O190 O 0.28323 0.36633 0.91263 0.0
C191 C 0.24118 0.33875 0.86105 0.0
O192 O 0.24208 0.34603 0.82572 0.0
H193 H 0.2626 0.36678 0.97471 0.0
H194 H 0.24318 0.3695 0.85845 0.0
N195 N 0.26926 0.36521 0.81944 0.0
N196 N 0.26904 0.3609 0.74574 0.0
C197 C 0.26906 0.35663 0.78822 0.0
C198 C 0.2698 0.37551 0.79609 0.0
C199 C 0.26971 0.37289 0.75052 0.0
C200 C 0.29364 0.36612 0.89469 0.0
O201 O 0.29238 0.36085 0.85449 0.0
H202 H 0.26799 0.34703 0.79682 0.0
H203 H 0.26937 0.38388 0.81108 0.0
O204 O 0.25125 0.34294 0.88875 0.0
H205 H 0.22774 0.36835 0.92854 0.0
H206 H 0.26915 0.3789 0.72324 0.0
Cu207 Cu 0.89245 0.62358 0.68633 0.0
N208 N 0.88092 0.61125 0.64397 0.0
N209 N 0.87979 0.60748 0.56952 0.0
C210 C 0.88681 0.60879 0.60807 0.0
C211 C 0.86823 0.60779 0.58259 0.0
C212 C 0.86898 0.61018 0.62844 0.0
O213 O 0.91113 0.62799 0.66595 0.0
C214 C 0.87723 0.63655 0.70473 0.0
O215 O 0.86953 0.62509 0.72468 0.0
H216 H 0.89732 0.61051 0.6086 0.0
H217 H 0.86252 0.61325 0.64678 0.0
N218 N 0.8897 0.61664 0.74465 0.0
N219 N 0.89188 0.61757 0.81957 0.0
C220 C 0.89172 0.62402 0.78181 0.0
C221 C 0.88848 0.60502 0.7593 0.0
C222 C 0.88994 0.60561 0.80579 0.0
C223 C 0.9201 0.62692 0.69009 0.0
O224 O 0.91849 0.62588 0.73415 0.0
H225 H 0.89422 0.63435 0.78075 0.0
H226 H 0.88763 0.59711 0.73752 0.0
O227 O 0.88841 0.63847 0.68554 0.0
H228 H 0.86103 0.60863 0.55978 0.0
H229 H 0.89024 0.59815 0.82743 0.0
Cu230 Cu 0.37939 0.25643 0.70192 0.0
N231 N 0.38296 0.24203 0.70273 0.0
N232 N 0.37892 0.22099 0.70019 0.0
C233 C 0.37329 0.22917 0.70095 0.0
C234 C 0.3927 0.2291 0.70162 0.0
C235 C 0.39515 0.24205 0.70317 0.0
O236 O 0.36963 0.25564 0.75886 0.0
C237 C 0.37525 0.25349 0.60989 0.0
O238 O 0.38674 0.25284 0.61456 0.0
H239 H 0.36235 0.22594 0.69906 0.0
H240 H 0.40512 0.25086 0.70398 0.0
N241 N 0.39576 0.27272 0.69948 0.0
N242 N 0.41041 0.29382 0.68123 0.0
C243 C 0.39809 0.28312 0.6727 0.0
C244 C 0.40707 0.277 0.72553 0.0
C245 C 0.41608 0.29001 0.71448 0.0
C246 C 0.37539 0.25475 0.79522 0.0
O247 O 0.38694 0.25418 0.79184 0.0
H248 H 0.3907 0.28297 0.64841 0.0
H249 H 0.40866 0.27116 0.75114 0.0
O250 O 0.36954 0.25511 0.64524 0.0
H251 H 0.40049 0.22594 0.7017 0.0
H252 H 0.42605 0.29618 0.72965 0.0
Cu253 Cu 0.76269 0.10678 0.68545 0.0
N254 N 0.77621 0.12477 0.68583 0.0
N255 N 0.79721 0.14271 0.68745 0.0
C256 C 0.78988 0.12935 0.69148 0.0
C257 C 0.78769 0.14664 0.67903 0.0
C258 C 0.77481 0.1356 0.67794 0.0
O259 O 0.76519 0.09904 0.74191 0.0
C260 C 0.76458 0.10551 0.59292 0.0
O261 O 0.76264 0.11585 0.5981 0.0
H262 H 0.79435 0.1229 0.69705 0.0
H263 H 0.76518 0.1355 0.67063 0.0
N264 N 0.74458 0.10442 0.68499 0.0
N265 N 0.72164 0.09461 0.67531 0.0
C266 C 0.73332 0.09373 0.66893 0.0
C267 C 0.73987 0.11237 0.70192 0.0
C268 C 0.72578 0.10637 0.69604 0.0
C269 C 0.76264 0.10338 0.77854 0.0
O270 O 0.75847 0.11231 0.7757 0.0
H271 H 0.73368 0.08533 0.6538 0.0
H272 H 0.74616 0.12178 0.71821 0.0
O273 O 0.76501 0.09931 0.62828 0.0
H274 H 0.78981 0.15676 0.67377 0.0
H275 H 0.71912 0.11041 0.7061 0.0
Cu276 Cu 0.04358 0.44302 0.52248 0.0
N277 N 0.04794 0.46091 0.52519 0.0
N278 N 0.0449 0.47887 0.5272 0.0
C279 C 0.03877 0.46547 0.52911 0.0
C280 C 0.0585 0.48285 0.52194 0.0
C281 C 0.06033 0.47178 0.52061 0.0
O282 O 0.03274 0.43501 0.5782 0.0
C283 C 0.03024 0.42638 0.44227 0.0
O284 O 0.03128 0.41654 0.46112 0.0
H285 H 0.02775 0.459 0.53188 0.0
H286 H 0.06999 0.47168 0.51579 0.0
N287 N 0.06002 0.44173 0.52215 0.0
N288 N 0.07563 0.4349 0.50811 0.0
C289 C 0.06328 0.43387 0.4967 0.0
C290 C 0.07078 0.44807 0.55024 0.0
C291 C 0.08037 0.44388 0.54179 0.0
C292 C 0.03631 0.42944 0.609 0.0
O293 O 0.04643 0.42679 0.60075 0.0
H294 H 0.05663 0.42729 0.47103 0.0
H295 H 0.07145 0.45505 0.57588 0.0
O296 O 0.03392 0.4371 0.46425 0.0
H297 H 0.0666 0.49302 0.51914 0.0
H298 H 0.09007 0.44722 0.55922 0.0
Cu299 Cu 0.57972 0.59072 0.53131 0.0
N300 N 0.56168 0.57642 0.53029 0.0
N301 N 0.54445 0.55549 0.52804 0.0
C302 C 0.55827 0.56348 0.52951 0.0
C303 C 0.539 0.56381 0.5279 0.0
C304 C 0.54964 0.57669 0.52929 0.0
O305 O 0.58814 0.5896 0.58911 0.0
C306 C 0.58139 0.58865 0.43919 0.0
O307 O 0.56958 0.58867 0.44433 0.0
H308 H 0.56584 0.56005 0.52923 0.0
H309 H 0.54867 0.58561 0.5294 0.0
N310 N 0.57969 0.60705 0.53034 0.0
N311 N 0.58602 0.62825 0.51395 0.0
C312 C 0.5874 0.61751 0.50326 0.0
C313 C 0.57317 0.61132 0.55894 0.0
C314 C 0.57707 0.62438 0.54899 0.0
C315 C 0.58049 0.58703 0.62434 0.0
O316 O 0.56785 0.58508 0.61923 0.0
H317 H 0.59428 0.6174 0.47731 0.0
H318 H 0.56626 0.60545 0.58576 0.0
O319 O 0.58851 0.58966 0.47445 0.0
H320 H 0.52811 0.56085 0.5273 0.0
H321 H 0.57362 0.63056 0.56629 0.0
Cu322 Cu 0.43898 0.98538 0.53289 0.0
N323 N 0.45644 0.99996 0.54028 0.0
N324 N 0.4792 1.00828 0.55034 0.0
C325 C 0.46781 0.99908 0.52932 0.0
C326 C 0.47482 0.01535 0.5755 0.0
C327 C 0.46073 0.01013 0.56943 0.0
O328 O 0.43671 0.97598 0.59117 0.0
C329 C 0.44374 0.98604 0.44157 0.0
O330 O 0.44734 0.99844 0.45091 0.0
H331 H 0.4674 0.99088 0.5102 0.0
H332 H 0.45396 0.01274 0.58819 0.0
N333 N 0.42431 0.989 0.52472 0.0
N334 N 0.40292 0.98396 0.503 0.0
C335 C 0.41306 0.9806 0.50139 0.0
C336 C 0.42131 0.99818 0.54176 0.0
C337 C 0.40805 0.99505 0.5285 0.0
C338 C 0.42711 0.97395 0.61952 0.0
O339 O 0.41622 0.97466 0.60542 0.0
H340 H 0.4121 0.97172 0.48553 0.0
H341 H 0.42802 1.00622 0.5636 0.0
O342 O 0.43975 0.97757 0.47403 0.0
H343 H 0.48113 0.02319 0.59867 0.0
H344 H 0.40255 1.00037 0.53765 0.0
Cu345 Cu 0.79846 0.69831 0.68634 0.0
N346 N 0.81653 0.70082 0.68237 0.0
N347 N 0.83346 0.69531 0.6835 0.0
C348 C 0.81976 0.69098 0.68758 0.0
C349 C 0.83909 0.70845 0.67522 0.0
C350 C 0.82863 0.71183 0.67476 0.0
O351 O 0.78912 0.68912 0.63 0.0
C352 C 0.78054 0.685 0.7657 0.0
O353 O 0.77064 0.68675 0.74798 0.0
H354 H 0.8121 0.68078 0.69395 0.0
H355 H 0.82982 0.72164 0.66958 0.0
N356 N 0.79825 0.71467 0.69057 0.0
N357 N 0.79168 0.72982 0.70857 0.0
C358 C 0.79036 0.71774 0.71797 0.0
C359 C 0.80496 0.72537 0.6636 0.0
C360 C 0.8009 0.73465 0.67442 0.0
C361 C 0.7951 0.69461 0.59276 0.0
O362 O 0.80681 0.70571 0.59454 0.0
H363 H 0.78345 0.71114 0.7434 0.0
H364 H 0.81216 0.72636 0.63718 0.0
O365 O 0.79163 0.68833 0.74335 0.0
H366 H 0.84999 0.71519 0.67077 0.0
H367 H 0.80442 0.74419 0.6582 0.0
Cu368 Cu 0.32831 0.08625 0.67332 0.0
N369 N 0.32523 0.10095 0.67225 0.0
N370 N 0.3296 0.1221 0.67523 0.0
C371 C 0.33505 0.11376 0.67451 0.0
C372 C 0.3158 0.11415 0.67323 0.0
C373 C 0.31315 0.10114 0.67145 0.0
O374 O 0.3379 0.08663 0.61625 0.0
C375 C 0.33266 0.08939 0.76556 0.0
O376 O 0.32153 0.09067 0.76089 0.0
H377 H 0.34595 0.11684 0.67685 0.0
H378 H 0.3031 0.09245 0.67034 0.0
N379 N 0.31158 0.07028 0.67606 0.0
N380 N 0.29602 0.04965 0.69656 0.0
C381 C 0.30872 0.05997 0.70399 0.0
C382 C 0.30027 0.06634 0.65024 0.0
C383 C 0.29069 0.05364 0.66271 0.0
C384 C 0.33229 0.08765 0.57972 0.0
O385 O 0.32094 0.08862 0.58287 0.0
H386 H 0.31593 0.05996 0.72865 0.0
H387 H 0.299 0.07224 0.62412 0.0
O388 O 0.33805 0.08731 0.73023 0.0
H389 H 0.30813 0.11745 0.67299 0.0
H390 H 0.28053 0.04785 0.64831 0.0
Cu391 Cu 0.93532 0.23389 0.70001 0.0
N392 N 0.92123 0.21617 0.70065 0.0
N393 N 0.90005 0.19851 0.70072 0.0
C394 C 0.90752 0.21191 0.69895 0.0
C395 C 0.9095 0.19425 0.70355 0.0
C396 C 0.9225 0.20512 0.70344 0.0
O397 O 0.93244 0.24164 0.64408 0.0
C398 C 0.93418 0.23543 0.79305 0.0
O399 O 0.93461 0.22429 0.78773 0.0
H400 H 0.90315 0.21855 0.69717 0.0
H401 H 0.93221 0.20498 0.7055 0.0
N402 N 0.9527 0.23471 0.69781 0.0
N403 N 0.9751 0.24161 0.71077 0.0
C404 C 0.96376 0.24245 0.72334 0.0
C405 C 0.95717 0.22869 0.66827 0.0
C406 C 0.97098 0.23296 0.67609 0.0
C407 C 0.94187 0.24806 0.61477 0.0
O408 O 0.95478 0.25175 0.62491 0.0
H409 H 0.96361 0.24892 0.74961 0.0
H410 H 0.95089 0.22194 0.64214 0.0
O411 O 0.93429 0.24192 0.75772 0.0
H412 H 0.90722 0.18399 0.70507 0.0
H413 H 0.97749 0.22994 0.65764 0.0
Cu414 Cu 0.33365 0.23555 0.20443 0.0
N415 N 0.32877 0.21745 0.20221 0.0
N416 N 0.33173 0.1994 0.19974 0.0
C417 C 0.33727 0.21253 0.19044 0.0
C418 C 0.31922 0.19599 0.2179 0.0
C419 C 0.3175 0.2071 0.21979 0.0
O420 O 0.34372 0.24353 0.14791 0.0
C421 C 0.34771 0.25181 0.2845 0.0
O422 O 0.34616 0.26159 0.26792 0.0
H423 H 0.34766 0.21869 0.17793 0.0
H424 H 0.30895 0.20768 0.23538 0.0
N425 N 0.31789 0.23809 0.20758 0.0
N426 N 0.30446 0.24773 0.21627 0.0
C427 C 0.31742 0.24933 0.21798 0.0
C428 C 0.30474 0.22918 0.198 0.0
C429 C 0.29647 0.23504 0.20346 0.0
C430 C 0.33663 0.23998 0.11156 0.0
O431 O 0.32334 0.23174 0.11475 0.0
H432 H 0.3264 0.25866 0.2251 0.0
H433 H 0.30136 0.21914 0.18694 0.0
O434 O 0.34415 0.24135 0.26116 0.0
H435 H 0.31192 0.18624 0.23034 0.0
H436 H 0.2854 0.23027 0.19877 0.0
Cu437 Cu 0.79007 0.08896 0.18844 0.0
N438 N 0.80818 0.10291 0.18863 0.0
N439 N 0.8257 0.12368 0.18919 0.0
C440 C 0.81186 0.11591 0.18726 0.0
C441 C 0.83088 0.11516 0.19189 0.0
C442 C 0.82005 0.10237 0.19155 0.0
O443 O 0.78155 0.09012 0.13107 0.0
C444 C 0.77173 0.08328 0.26748 0.0
O445 O 0.76365 0.07144 0.25106 0.0
H446 H 0.80447 0.11955 0.18582 0.0
H447 H 0.82076 0.09332 0.19347 0.0
N448 N 0.79017 0.07259 0.18938 0.0
N449 N 0.78541 0.0518 0.20665 0.0
C450 C 0.78535 0.06293 0.22124 0.0
C451 C 0.79372 0.06744 0.15417 0.0
C452 C 0.79079 0.05469 0.16459 0.0
C453 C 0.78883 0.09256 0.09503 0.0
O454 O 0.80166 0.09491 0.09858 0.0
H455 H 0.78137 0.0638 0.25371 0.0
H456 H 0.79771 0.07239 0.12227 0.0
O457 O 0.78204 0.0916 0.24434 0.0
H458 H 0.84172 0.11794 0.19367 0.0
H459 H 0.79222 0.04796 0.14243 0.0
Cu460 Cu 0.93664 0.68786 0.20808 0.0
N461 N 0.93236 0.67191 0.2367 0.0
N462 N 0.9234 0.65514 0.28588 0.0
C463 C 0.92683 0.66794 0.27808 0.0
C464 C 0.92692 0.65092 0.24816 0.0
C465 C 0.93249 0.66131 0.21787 0.0
O466 O 0.95297 0.70205 0.23682 0.0
C467 C 0.91496 0.69322 0.17975 0.0
O468 O 0.9222 0.69771 0.14239 0.0
H469 H 0.92487 0.67413 0.30126 0.0
H470 H 0.93606 0.66103 0.18402 0.0
N471 N 0.94033 0.68553 0.14824 0.0
N472 N 0.93677 0.67528 0.08179 0.0
C473 C 0.93087 0.67734 0.11868 0.0
C474 C 0.95267 0.6887 0.12955 0.0
C475 C 0.9505 0.68244 0.08837 0.0
C476 C 0.96133 0.71273 0.21656 0.0
O477 O 0.95837 0.71501 0.17562 0.0
H478 H 0.9199 0.67218 0.12577 0.0
H479 H 0.96251 0.69443 0.14598 0.0
O480 O 0.91996 0.68972 0.21254 0.0
H481 H 0.92554 0.64103 0.24288 0.0
H482 H 0.95839 0.68271 0.06589 0.0
Cu483 Cu 0.57869 0.98816 0.99595 0.0
N484 N 0.56321 0.98038 0.95925 0.0
N485 N 0.55638 0.98722 0.89807 0.0
C486 C 0.56573 0.98408 0.9156 0.0
C487 C 0.54688 0.98427 0.93108 0.0
C488 C 0.55117 0.98015 0.96886 0.0
O489 O 0.59256 0.98453 0.96695 0.0
C490 C 0.57554 0.00991 1.0254 0.0
O491 O 0.57054 1.00255 0.06166 0.0
H492 H 0.57571 0.98708 0.9003 0.0
H493 H 0.54729 0.97972 1.0028 0.0
N494 N 0.57575 0.98161 0.0552 0.0
N495 N 0.57834 0.98276 0.13036 0.0
C496 C 0.58379 0.9884 0.09011 0.0
C497 C 0.56493 0.971 0.07364 0.0
C498 C 0.56649 0.97168 0.12008 0.0
C499 C 0.60271 0.98448 0.98724 0.0
O500 O 0.60568 0.98913 0.02852 0.0
H501 H 0.59278 0.99804 0.08595 0.0
H502 H 0.55618 0.96373 0.05492 0.0
O503 O 0.58159 1.00646 0.99547 0.0
H504 H 0.53883 0.9871 0.93074 0.0
H505 H 0.55914 0.96487 0.14428 0.0
Cu506 Cu 0.04467 0.59122 0.0369 0.0
N507 N 0.05007 0.57761 0.04128 0.0
N508 N 0.04611 0.55646 0.04149 0.0
C509 C 0.04014 0.56425 0.03983 0.0
C510 C 0.05984 0.56489 0.04428 0.0
C511 C 0.06291 0.57819 0.04428 0.0
O512 O 0.03473 0.59029 0.0937 0.0
C513 C 0.02919 0.59338 0.95872 0.0
O514 O 0.02911 0.60368 0.97758 0.0
H515 H 0.02919 0.56079 0.03646 0.0
H516 H 0.05762 0.58383 0.04234 0.0
N517 N 0.06044 0.60816 0.0317 0.0
N518 N 0.07438 0.62949 1.01344 0.0
C519 C 0.06183 0.61878 1.00785 0.0
C520 C 0.07266 0.61235 0.05257 0.0
C521 C 0.08121 0.62546 0.04163 0.0
C522 C 0.04147 0.59178 0.13029 0.0
O523 O 0.05422 0.59385 0.12723 0.0
H524 H 0.0538 0.6188 0.98733 0.0
H525 H 0.07525 0.60632 0.07437 0.0
O526 O 0.03414 0.58698 0.98018 0.0
H527 H 0.06761 0.56173 0.04679 0.0
H528 H 0.09171 0.63151 0.05306 0.0
Cu529 Cu 0.43114 0.43785 1.01724 0.0
N530 N 0.44382 0.45602 1.02008 0.0
N531 N 0.46451 0.47434 1.02257 0.0
C532 C 0.45731 0.46112 0.03046 0.0
C533 C 0.45507 0.47763 1.00674 0.0
C534 C 0.44242 0.46634 1.00483 0.0
O535 O 0.4336 0.43005 0.07356 0.0
C536 C 0.43003 0.42214 0.9363 0.0
O537 O 0.41895 0.41192 0.9524 0.0
H538 H 0.46185 0.45504 0.04091 0.0
H539 H 0.43307 0.46564 0.99082 0.0
N540 N 0.41275 0.43493 1.0143 0.0
N541 N 0.38979 0.42513 1.00397 0.0
C542 C 0.40133 0.42386 1.00104 0.0
C543 C 0.40813 0.44339 1.02681 0.0
C544 C 0.39407 0.43743 1.02036 0.0
C545 C 0.43006 0.43356 0.11014 0.0
O546 O 0.42466 0.44152 0.10727 0.0
H547 H 0.40134 0.41488 0.9908 0.0
H548 H 0.4145 0.45317 0.04049 0.0
O549 O 0.43634 0.43258 0.96013 0.0
H550 H 0.45716 0.48741 0.99586 0.0
H551 H 0.38754 0.44188 1.02687 0.0
Cu552 Cu 0.70757 0.7802 0.85693 0.0
N553 N 0.71181 0.79806 0.8581 0.0
N554 N 0.70887 0.81607 0.85867 0.0
C555 C 0.70266 0.80267 0.86088 0.0
C556 C 0.72248 0.81999 0.85443 0.0
C557 C 0.72425 0.80888 0.85408 0.0
O558 O 0.69678 0.77245 0.91283 0.0
C559 C 0.69532 0.76318 0.7773 0.0
O560 O 0.69788 0.7542 0.79587 0.0
H561 H 0.69162 0.79626 0.8633 0.0
H562 H 0.73392 0.80871 0.85063 0.0
N563 N 0.72412 0.77917 0.85791 0.0
N564 N 0.74048 0.77337 0.84342 0.0
C565 C 0.72878 0.77317 0.82866 0.0
C566 C 0.73342 0.78361 0.89155 0.0
C567 C 0.74343 0.77998 0.88294 0.0
C568 C 0.69926 0.76561 0.94189 0.0
O569 O 0.70809 0.76142 0.93168 0.0
H570 H 0.72357 0.76842 0.79784 0.0
H571 H 0.7327 0.78877 0.92113 0.0
O572 O 0.69782 0.77363 0.7993 0.0
H573 H 0.73062 0.83016 0.85193 0.0
H574 H 0.75212 0.78194 0.90437 0.0
Cu575 Cu 0.24248 0.92481 0.87899 0.0
N576 N 0.22425 0.91108 0.87761 0.0
N577 N 0.20657 0.8904 0.87564 0.0
C578 C 0.22041 0.89805 0.87851 0.0
C579 C 0.20155 0.89904 0.87279 0.0
C580 C 0.21249 0.91179 0.874 0.0
O581 O 0.25053 0.92339 0.93722 0.0
C582 C 0.26155 0.93094 0.80287 0.0
O583 O 0.26999 0.94187 0.82413 0.0
H584 H 0.22771 0.8943 0.88027 0.0
H585 H 0.21192 0.92091 0.87217 0.0
N586 N 0.24307 0.94147 0.87716 0.0
N587 N 0.24908 0.96238 0.85695 0.0
C588 C 0.24788 0.95061 0.84364 0.0
C589 C 0.24085 0.94762 0.91236 0.0
C590 C 0.24453 0.96046 0.90008 0.0
C591 C 0.24304 0.92133 0.97261 0.0
O592 O 0.23046 0.91958 0.9676 0.0
H593 H 0.25115 0.94894 0.81095 0.0
H594 H 0.23741 0.94334 0.9455 0.0
O595 O 0.25061 0.92243 0.82285 0.0
H596 H 0.19076 0.89639 0.8703 0.0
H597 H 0.24429 0.96792 0.92176 0.0
Cu598 Cu 0.11071 0.31045 0.85608 0.0
N599 N 0.12245 0.30285 0.85734 0.0
N600 N 0.14128 0.30039 0.86495 0.0
C601 C 0.136 0.30884 0.86772 0.0
C602 C 0.13063 0.28866 0.8525 0.0
C603 C 0.11905 0.29018 0.84807 0.0
O604 O 0.11407 0.32077 0.91294 0.0
C605 C 0.11505 0.31499 0.76205 0.0
O606 O 0.11436 0.30328 0.7651 0.0
H607 H 0.1419 0.31924 0.87622 0.0
H608 H 0.10887 0.28261 0.83828 0.0
N609 N 0.09228 0.29678 0.85658 0.0
N610 N 0.06974 0.28451 0.84157 0.0
C611 C 0.08165 0.2955 0.8306 0.0
C612 C 0.08686 0.28615 0.88426 0.0
C613 C 0.07302 0.27864 0.87529 0.0
C614 C 0.11405 0.31495 0.94999 0.0
O615 O 0.11223 0.30281 0.94795 0.0
H616 H 0.0826 0.30256 0.80471 0.0
H617 H 0.09258 0.28386 0.90902 0.0
O618 O 0.11385 0.32043 0.79833 0.0
H619 H 0.13115 0.2796 0.84706 0.0
H620 H 0.06594 0.26943 0.89179 0.0
Cu621 Cu 0.45754 0.01056 1.02523 0.0
N622 N 0.47656 0.02223 1.02322 0.0
N623 N 0.49937 0.02981 1.0175 0.0
C624 C 0.48666 0.01932 1.01189 0.0
C625 C 0.49713 0.03969 0.03282 0.0
C626 C 0.48308 0.03499 0.03619 0.0
O627 O 0.45346 0.99944 0.97043 0.0
C628 C 0.44313 0.99632 0.10785 0.0
O629 O 0.43201 0.99616 0.09139 0.0
H630 H 0.48472 0.00954 1.00154 0.0
H631 H 0.47797 0.0404 0.0483 0.0
N632 N 0.44819 0.02062 1.02052 0.0
N633 N 0.43764 0.03285 0.03343 0.0
C634 C 0.44413 0.02655 0.0522 0.0
C635 C 0.44436 0.02351 0.98078 0.0
C636 C 0.43783 0.03093 0.98854 0.0
C637 C 0.44152 0.99298 0.95267 0.0
O638 O 0.43079 0.99215 0.97471 0.0
H639 H 0.44576 0.02616 0.08809 0.0
H640 H 0.44628 0.02048 0.94815 0.0
O641 O 0.45415 1.00124 0.08401 0.0
H642 H 0.50509 0.04956 0.0415 0.0
H643 H 0.43376 0.03482 0.96291 0.0
Cu644 Cu 0.99851 0.42212 1.02382 0.0
N645 N 0.99476 0.43644 1.02563 0.0
N646 N 0.99825 0.45731 0.02906 0.0
C647 C 1.0042 0.4494 1.02683 0.0
C648 C 0.98452 0.44891 0.02925 0.0
C649 C 0.98241 0.43609 0.02718 0.0
O650 O 1.00811 0.42333 0.96577 0.0
C651 C 1.00227 0.424 0.11633 0.0
O652 O 0.99057 0.42427 0.11185 0.0
H653 H 0.01521 0.4529 1.0269 0.0
H654 H 0.97256 0.42713 0.0271 0.0
N655 N 0.98207 0.40587 1.02401 0.0
N656 N 0.9669 0.38466 0.03909 0.0
C657 C 0.97923 0.39512 0.04959 0.0
C658 C 0.97114 0.40209 0.99652 0.0
C659 C 0.96179 0.38904 1.0057 0.0
C660 C 1.00305 0.42593 0.93066 0.0
O661 O 0.99239 0.42793 0.93606 0.0
H662 H 0.98627 0.39486 0.07447 0.0
H663 H 0.97008 0.40831 0.97115 0.0
O664 O 1.00823 0.4229 0.08067 0.0
H665 H 0.97652 0.45178 0.03041 0.0
H666 H 0.95197 0.38325 0.98915 0.0
Cu667 Cu 0.60149 0.56826 0.03274 0.0
N668 N 0.58798 0.5504 0.0316 0.0
N669 N 0.56703 0.53247 0.03132 0.0
C670 C 0.57426 0.54585 0.02835 0.0
C671 C 0.57664 0.52849 0.03658 0.0
C672 C 0.58953 0.53956 0.03675 0.0
O673 O 0.59831 0.57601 0.97731 0.0
C674 C 0.60596 0.5852 0.11259 0.0
O675 O 0.61729 0.59445 0.09373 0.0
H676 H 0.56969 0.55229 1.02521 0.0
H677 H 0.59933 0.5397 0.04101 0.0
N678 N 0.61911 0.56944 0.03091 0.0
N679 N 0.64149 0.57596 0.0431 0.0
C680 C 0.62999 0.57601 0.0587 0.0
C681 C 0.62386 0.56479 0.99738 0.0
C682 C 0.63765 0.56887 1.00457 0.0
C683 C 0.60758 0.58282 0.94799 0.0
O684 O 0.6206 0.587 0.95775 0.0
H685 H 0.62968 0.58113 0.08886 0.0
H686 H 0.61782 0.55926 0.96865 0.0
O687 O 0.59827 0.57467 0.09072 0.0
H688 H 0.57455 0.51832 0.04001 0.0
H689 H 0.64438 0.56696 0.98275 0.0
Cu690 Cu 0.99855 0.57048 0.53949 0.0
N691 N 0.9945 0.5526 0.53844 0.0
N692 N 0.99784 0.5348 0.53742 0.0
C693 C 1.00382 0.5482 0.53519 0.0
C694 C 0.9842 0.53067 0.54215 0.0
C695 C 0.98218 0.54163 0.54281 0.0
O696 O 1.00833 0.5785 0.48221 0.0
C697 C 1.00262 0.57126 0.63182 0.0
O698 O 0.99098 0.56018 0.62724 0.0
H699 H 0.01482 0.55476 0.53244 0.0
H700 H 0.97243 0.54157 0.54711 0.0
N701 N 0.98247 0.57228 0.54173 0.0
N702 N 0.9685 0.58097 0.55609 0.0
C703 C 0.981 0.58186 0.56347 0.0
C704 C 0.97043 0.56503 0.52021 0.0
C705 C 0.96183 0.57037 0.52891 0.0
C706 C 1.00188 0.57284 0.44602 0.0
O707 O 0.98967 0.56236 0.44993 0.0
H708 H 0.9891 0.58955 0.58331 0.0
H709 H 0.96805 0.55654 0.49918 0.0
O710 O 1.00847 0.57805 0.59635 0.0
H711 H 0.97618 0.52046 0.54492 0.0
H712 H 0.95144 0.56666 0.51635 0.0
Cu713 Cu 0.45978 0.42079 0.51879 0.0
N714 N 0.47769 0.43529 0.51763 0.0
N715 N 0.49478 0.45629 0.51878 0.0
C716 C 0.48097 0.4482 0.51837 0.0
C717 C 0.50035 0.44808 0.51819 0.0
C718 C 0.4898 0.43516 0.5175 0.0
O719 O 0.45064 0.42133 0.46211 0.0
C720 C 0.45835 0.42372 0.61111 0.0
O721 O 0.47074 0.42492 0.60658 0.0
H722 H 0.47333 0.45154 0.51962 0.0
H723 H 0.49091 0.42631 0.51738 0.0
N724 N 0.46016 0.40463 0.52087 0.0
N725 N 0.45419 0.38362 0.53897 0.0
C726 C 0.45245 0.39424 0.54823 0.0
C727 C 0.46708 0.40043 0.4937 0.0
C728 C 0.46338 0.38748 0.50466 0.0
C729 C 0.45732 0.42248 0.42547 0.0
O730 O 0.46971 0.42362 0.42831 0.0
H731 H 0.44536 0.39432 0.57342 0.0
H732 H 0.47421 0.40628 0.46734 0.0
O733 O 0.45106 0.42186 0.57565 0.0
H734 H 0.51127 0.45114 0.51801 0.0
H735 H 0.46717 0.38138 0.48865 0.0
Cu736 Cu 0.59977 0.03646 0.55012 0.0
N737 N 0.59576 0.04865 0.57841 0.0
N738 N 0.58533 0.0495 0.64253 0.0
C739 C 0.59594 0.04847 0.62384 0.0
C740 C 0.57856 0.05112 0.60724 0.0
C741 C 0.58504 0.05064 0.56777 0.0
O742 O 0.61572 0.03749 0.58254 0.0
C743 C 0.57262 0.01851 0.52852 0.0
O744 O 0.57605 0.02595 0.49212 0.0
H745 H 0.60182 0.04471 0.64219 0.0
H746 H 0.5807 0.04937 0.53427 0.0
N747 N 0.60401 0.03961 0.48853 0.0
N748 N 0.60418 0.03436 0.41596 0.0
C749 C 0.60173 0.02991 0.45891 0.0
C750 C 0.6084 0.05073 0.46362 0.0
C751 C 0.60855 0.04751 0.41862 0.0
C752 C 0.62581 0.03695 0.56345 0.0
O753 O 0.62464 0.03313 0.52117 0.0
H754 H 0.59775 0.01963 0.46874 0.0
H755 H 0.61076 0.06033 0.47698 0.0
O756 O 0.58194 0.02035 0.55746 0.0
H757 H 0.56862 0.05082 0.60939 0.0
H758 H 0.61095 0.05415 0.39002 0.0
Cu759 Cu 0.2425 0.31141 0.32375 0.0
N760 N 0.22655 0.30327 0.28929 0.0
N761 N 0.21858 0.3091 0.22855 0.0
C762 C 0.22843 0.30655 0.24524 0.0
C763 C 0.20949 0.30629 0.26277 0.0
C764 C 0.21445 0.30275 0.30026 0.0
O765 O 0.25597 0.30722 0.29464 0.0
C766 C 0.23901 0.33302 0.34906 0.0
O767 O 0.23164 0.32458 0.38076 0.0
H768 H 0.23832 0.30982 0.22878 0.0
H769 H 0.21091 0.30244 0.33457 0.0
N770 N 0.24021 0.30604 0.38424 0.0
N771 N 0.24312 0.30958 0.45865 0.0
C772 C 0.24839 0.31394 0.41707 0.0
C773 C 0.2295 0.29603 0.4056 0.0
C774 C 0.2313 0.29816 0.45169 0.0
C775 C 0.2661 0.30705 0.31469 0.0
O776 O 0.26917 0.31168 0.35596 0.0
H777 H 0.2575 0.32328 0.41009 0.0
H778 H 0.22055 0.28833 0.38893 0.0
O779 O 0.24591 0.32987 0.32144 0.0
H780 H 0.20123 0.30884 0.2631 0.0
H781 H 0.22395 0.29234 0.47768 0.0
Cu782 Cu 0.71022 0.9259 0.37216 0.0
N783 N 0.71372 0.91146 0.37338 0.0
N784 N 0.71003 0.89051 0.37192 0.0
C785 C 0.70419 0.89852 0.37221 0.0
C786 C 0.72377 0.89879 0.37306 0.0
C787 C 0.726 0.91167 0.37395 0.0
O788 O 0.69958 0.92433 0.42784 0.0
C789 C 0.70693 0.9235 0.27921 0.0
O790 O 0.71801 0.92217 0.28473 0.0
H791 H 0.69321 0.8951 0.37054 0.0
H792 H 0.73591 0.92055 0.37437 0.0
N793 N 0.72686 0.94189 0.37232 0.0
N794 N 0.74238 0.96287 0.3561 0.0
C795 C 0.73 0.95249 0.34565 0.0
C796 C 0.73765 0.94565 0.40044 0.0
C797 C 0.74722 0.9586 0.3906 0.0
C798 C 0.7033 0.93343 0.45772 0.0
O799 O 0.71349 0.94528 0.44851 0.0
H800 H 0.72313 0.95272 0.32007 0.0
H801 H 0.73833 0.93951 0.42699 0.0
O802 O 0.70115 0.92523 0.31418 0.0
H803 H 0.73169 0.89581 0.37347 0.0
H804 H 0.75696 0.96442 0.40758 0.0
Cu805 Cu 0.09655 0.77658 0.35252 0.0
N806 N 0.1099 0.79451 0.35336 0.0
N807 N 0.13068 0.81266 0.35527 0.0
C808 C 0.1236 0.79928 0.3587 0.0
C809 C 0.12098 0.8164 0.34755 0.0
C810 C 0.1082 0.8052 0.34638 0.0
O811 O 0.09988 0.76907 0.40853 0.0
C812 C 0.09199 0.75902 0.27472 0.0
O813 O 0.08196 0.74943 0.29776 0.0
H814 H 0.12829 0.79299 0.36377 0.0
H815 H 0.09839 0.80487 0.34029 0.0
N816 N 0.07882 0.77515 0.35416 0.0
N817 N 0.05637 0.76811 0.34133 0.0
C818 C 0.06793 0.76793 0.32713 0.0
C819 C 0.07401 0.78028 0.38591 0.0
C820 C 0.06017 0.77589 0.37831 0.0
C821 C 0.09069 0.76266 0.4386 0.0
O822 O 0.07766 0.75855 0.42906 0.0
H823 H 0.0683 0.76227 0.29858 0.0
H824 H 0.08006 0.78641 0.41364 0.0
O825 O 0.09939 0.77017 0.29374 0.0
H826 H 0.12292 0.8265 0.34315 0.0
H827 H 0.05339 0.77812 0.39872 0.0
H828 H 0.35832 0.09159 0.55537 0.0
H829 H 0.34341 0.08903 0.28781 0.0
H830 H 0.31936 0.08432 0.49877 0.0
H831 H 0.3841 0.10344 0.3439 0.0
H832 H 0.33382 0.08447 0.36489 0.0
H833 H 0.36743 0.09331 0.47815 0.0
C834 C 0.35165 0.09025 0.52686 0.0
C835 C 0.33807 0.08791 0.5338 0.0
C836 C 0.34485 0.08856 0.36026 0.0
C837 C 0.34839 0.0898 0.44523 0.0
C838 C 0.35031 0.0911 0.31618 0.0
C839 C 0.3646 0.0967 0.30916 0.0
C840 C 0.35371 0.09154 0.3977 0.0
C841 C 0.37303 0.09922 0.34749 0.0
C842 C 0.35686 0.09127 0.48274 0.0
C843 C 0.32993 0.08627 0.49533 0.0
N844 N 0.36749 0.09666 0.38987 0.0
N845 N 0.33519 0.08726 0.45299 0.0
H846 H 0.95941 0.25987 0.54283 0.0
H847 H 0.89828 0.2411 0.36476 0.0
H848 H 0.91613 0.23979 0.5779 0.0
H849 H 0.94115 0.25994 0.3248 0.0
H850 H 0.90497 0.24089 0.4427 0.0
H851 H 0.95328 0.26066 0.46385 0.0
C852 C 0.94861 0.25572 0.53413 0.0
C853 C 0.93827 0.24975 0.56744 0.0
C854 C 0.91297 0.24506 0.41708 0.0
C855 C 0.9312 0.25054 0.47641 0.0
C856 C 0.90915 0.24518 0.37225 0.0
C857 C 0.91916 0.25058 0.33777 0.0
C858 C 0.92696 0.25042 0.42827 0.0
C859 C 0.93307 0.25564 0.35007 0.0
C860 C 0.94513 0.25614 0.48883 0.0
C861 C 0.92448 0.24453 0.55371 0.0
N862 N 0.93656 0.25548 0.39431 0.0
N863 N 0.92137 0.24502 0.50943 0.0
H864 H 0.77684 0.66858 0.56975 0.0
H865 H 0.7846 0.68341 0.30155 0.0
H866 H 0.80123 0.70752 0.51184 0.0
H867 H 0.76909 0.6443 0.35917 0.0
H868 H 0.78745 0.69247 0.37846 0.0
H869 H 0.77051 0.65952 0.49284 0.0
C870 C 0.7807 0.67524 0.54102 0.0
C871 C 0.78966 0.68882 0.54741 0.0
C872 C 0.78333 0.68189 0.37417 0.0
C873 C 0.78248 0.67856 0.45927 0.0
C874 C 0.78165 0.67672 0.33022 0.0
C875 C 0.7767 0.66308 0.32371 0.0
C876 C 0.77988 0.67336 0.41193 0.0
C877 C 0.77308 0.6549 0.36237 0.0
C878 C 0.77716 0.67007 0.49709 0.0
C879 C 0.79441 0.69697 0.5087 0.0
N880 N 0.77476 0.66014 0.40457 0.0
N881 N 0.7908 0.69174 0.46655 0.0
H882 H 0.12529 0.34163 0.97232 0.0
H883 H 0.11754 0.32833 0.24162 0.0
H884 H 0.1074 0.30259 0.03206 0.0
H885 H 0.1443 0.36645 0.18148 0.0
H886 H 0.11115 0.31891 0.16516 0.0
H887 H 0.12972 0.35118 0.04885 0.0
C888 C 0.12218 0.33507 1.00136 0.0
C889 C 0.11604 0.32128 0.99548 0.0
C890 C 0.1184 0.32935 0.16882 0.0
C891 C 0.12103 0.33212 0.08335 0.0
C892 C 0.12202 0.33473 0.21252 0.0
C893 C 0.13156 0.34819 0.2183 0.0
C894 C 0.1242 0.33752 0.13051 0.0
C895 C 0.13701 0.35599 0.17902 0.0
C896 C 0.12477 0.34051 0.04511 0.0
C897 C 0.11228 0.31328 0.03468 0.0
N898 N 0.13326 0.35057 0.13712 0.0
N899 N 0.11481 0.31878 0.07663 0.0
H900 H 0.68678 0.7533 0.23451 0.0
H901 H 0.68114 0.77338 0.97722 0.0
H902 H 0.66048 0.76927 0.19042 0.0
H903 H 0.70502 0.75421 1.01488 0.0
H904 H 0.6738 0.77208 0.05597 0.0
H905 H 0.69427 0.75397 0.15542 0.0
C906 C 0.68264 0.757 0.20844 0.0
C907 C 0.67295 0.7612 0.21942 0.0
C908 C 0.6806 0.76809 0.04707 0.0
C909 C 0.68141 0.76196 0.12882 0.0
C910 C 0.68476 0.76879 1.0019 0.0
C911 C 0.6937 0.76388 0.98904 0.0
C912 C 0.68544 0.7625 0.08011 0.0
C913 C 0.69808 0.75811 1.02296 0.0
C914 C 0.68686 0.75733 0.16324 0.0
C915 C 0.66792 0.76585 0.18394 0.0
N916 N 0.69397 0.75763 0.06679 0.0
N917 N 0.67218 0.7661 0.14064 0.0
H918 H 0.24987 0.92139 0.26598 0.0
H919 H 0.26631 0.91993 1.00075 0.0
H920 H 0.27945 0.91012 0.21549 0.0
H921 H 0.2312 0.9228 0.0518 0.0
H922 H 0.27328 0.91912 0.07923 0.0
H923 H 0.24497 0.92498 0.18764 0.0
C924 C 0.25546 0.91983 0.23858 0.0
C925 C 0.26503 0.91537 0.24751 0.0
C926 C 0.26407 0.91997 0.07312 0.0
C927 C 0.25947 0.91942 0.1576 0.0
C928 C 0.26012 0.92046 0.02829 0.0
C929 C 0.24809 0.92133 1.01941 0.0
C930 C 0.25604 0.92052 0.10938 0.0
C931 C 0.24048 0.922 0.05671 0.0
C932 C 0.25261 0.92181 0.19379 0.0
C933 C 0.2719 0.91346 0.21039 0.0
N934 N 0.24456 0.92158 0.09975 0.0
N935 N 0.26898 0.91545 0.16731 0.0
H936 H 0.69298 0.93418 0.75049 0.0
H937 H 0.68214 0.91007 0.4914 0.0
H938 H 0.65941 0.8972 0.70423 0.0
H939 H 0.71159 0.94975 0.53175 0.0
H940 H 0.6743 0.90498 0.57002 0.0
H941 H 0.70085 0.93984 0.67154 0.0
C942 C 0.6873 0.92724 0.72393 0.0
C943 C 0.67548 0.91521 0.73426 0.0
C944 C 0.68244 0.91483 0.56166 0.0
C945 C 0.68442 0.9216 0.64383 0.0
C946 C 0.68689 0.91775 0.51663 0.0
C947 C 0.69753 0.93037 0.50462 0.0
C948 C 0.68872 0.92454 0.5953 0.0
C949 C 0.70333 0.93988 0.53916 0.0
C950 C 0.69176 0.93049 0.67882 0.0
C951 C 0.66853 0.90663 0.6982 0.0
N952 N 0.69891 0.93676 0.58278 0.0
N953 N 0.67309 0.90997 0.65494 0.0
H954 H 0.11673 0.7719 0.4745 0.0
H955 H 0.09076 0.7523 0.73239 0.0
H956 H 0.07366 0.75117 0.51198 0.0
H957 H 0.13345 0.77213 0.6903 0.0
H958 H 0.08399 0.75186 0.65275 0.0
H959 H 0.12282 0.77175 0.55387 0.0
C960 C 0.10853 0.7672 0.49925 0.0
C961 C 0.09464 0.76152 0.48614 0.0
C962 C 0.09484 0.75632 0.66111 0.0
C963 C 0.10157 0.76147 0.57793 0.0
C964 C 0.0987 0.75664 0.70665 0.0
C965 C 0.11271 0.76224 0.71839 0.0
C966 C 0.10505 0.76167 0.62704 0.0
C967 C 0.12252 0.76764 0.68326 0.0
C968 C 0.11201 0.76717 0.54479 0.0
C969 C 0.08451 0.75566 0.52021 0.0
N970 N 0.11852 0.7672 0.63959 0.0
N971 N 0.08816 0.75582 0.56434 0.0
H972 H 0.25819 0.33635 0.46804 0.0
H973 H 0.25564 0.33399 0.73771 0.0
H974 H 0.23849 0.29985 0.54462 0.0
H975 H 0.27589 0.3702 0.6598 0.0
H976 H 0.25014 0.32129 0.66799 0.0
H977 H 0.26549 0.34871 0.53803 0.0
C978 C 0.25554 0.33086 0.49951 0.0
C979 C 0.24779 0.31695 0.50021 0.0
C980 C 0.25585 0.33201 0.66611 0.0
C981 C 0.25595 0.33124 0.58115 0.0
C982 C 0.25912 0.33931 0.70605 0.0
C983 C 0.26633 0.35325 0.70479 0.0
C984 C 0.25977 0.33866 0.62443 0.0
C985 C 0.27023 0.35951 0.66244 0.0
C986 C 0.25964 0.338 0.53966 0.0
C987 C 0.24438 0.31054 0.54241 0.0
N988 N 0.26688 0.35217 0.624 0.0
N989 N 0.24847 0.31774 0.5812 0.0
H990 H 0.88392 0.6337 0.86028 0.0
H991 H 0.94569 0.66046 0.03544 0.0
H992 H 0.90998 0.61564 0.87662 0.0
H993 H 0.91177 0.66895 0.04699 0.0
H994 H 0.93334 0.6446 0.97527 0.0
H995 H 0.89413 0.64698 0.92799 0.0
C996 C 0.89165 0.63241 0.87875 0.0
C997 C 0.89614 0.6236 0.86314 0.0
C998 C 0.92857 0.64989 0.99115 0.0
C999 C 0.90809 0.63891 0.93976 0.0
C1000 C 0.93568 0.65904 1.02509 0.0
C1001 C 0.92976 0.66608 0.04595 0.0
C1002 C 0.91554 0.64791 0.97757 0.0
C1003 C 0.91665 0.66368 0.03186 0.0
C1004 C 0.89749 0.63998 0.91724 0.0
C1005 C 0.90618 0.62225 0.88797 0.0
N1006 N 0.91002 0.65488 0.99829 0.0
N1007 N 0.91199 0.62998 0.92478 0.0
H1008 H 0.36422 0.25226 0.08694 0.0
H1009 H 0.3491 0.24999 0.81976 0.0
H1010 H 0.32337 0.23713 0.03125 0.0
H1011 H 0.38842 0.25825 0.87599 0.0
H1012 H 0.33991 0.24782 0.89706 0.0
H1013 H 0.37376 0.25719 1.00988 0.0
C1014 C 0.35727 0.2501 0.05865 0.0
C1015 C 0.34296 0.24419 0.06576 0.0
C1016 C 0.35057 0.25017 0.89236 0.0
C1017 C 0.35379 0.24979 0.97727 0.0
C1018 C 0.35582 0.25145 0.84821 0.0
C1019 C 0.36953 0.25421 0.84118 0.0
C1020 C 0.35912 0.25179 0.92976 0.0
C1021 C 0.37775 0.25598 0.87954 0.0
C1022 C 0.3627 0.25286 1.01459 0.0
C1023 C 0.33447 0.24159 0.02757 0.0
N1024 N 0.37244 0.25473 0.9219 0.0
N1025 N 0.33998 0.24436 0.98518 0.0
H1026 H 0.77875 0.09195 0.80319 0.0
H1027 H 0.76542 0.09412 0.07029 0.0
H1028 H 0.75176 0.10577 0.85853 0.0
H1029 H 0.79966 0.09062 1.01442 0.0
H1030 H 0.75774 0.09501 0.99288 0.0
H1031 H 0.78393 0.08781 0.88053 0.0
C1032 C 0.77378 0.09394 0.83147 0.0
C1033 C 0.76489 0.0993 0.82425 0.0
C1034 C 0.7669 0.09398 0.99771 0.0
C1035 C 0.77075 0.09461 0.91288 0.0
C1036 C 0.77126 0.09345 0.04189 0.0
C1037 C 0.78328 0.09242 0.04903 0.0
C1038 C 0.77451 0.0933 0.9604 0.0
C1039 C 0.79042 0.09157 1.01076 0.0
C1040 C 0.77679 0.09166 0.87564 0.0
C1041 C 0.75879 0.10175 0.86237 0.0
N1042 N 0.78595 0.09203 0.96834 0.0
N1043 N 0.76184 0.09942 0.90484 0.0
H1044 H 0.99548 0.43394 0.85417 0.0
H1045 H 0.04282 0.41908 0.68307 0.0
H1046 H 0.02264 0.41906 0.89921 0.0
H1047 H 0.01697 0.43592 0.64284 0.0
H1048 H 0.03508 0.41808 0.76127 0.0
H1049 H 1.00297 0.43408 0.77687 0.0
C1050 C 1.00308 0.4307 0.84796 0.0
C1051 C 1.00841 0.42646 0.88375 0.0
C1052 C 0.03105 0.42194 0.73535 0.0
C1053 C 0.01708 0.42657 0.79386 0.0
C1054 C 0.03541 0.42246 0.69047 0.0
C1055 C 0.03055 0.42759 0.6559 0.0
C1056 C 0.02171 0.42656 0.74614 0.0
C1057 C 0.021 0.43185 0.66802 0.0
C1058 C 1.00735 0.43079 0.80346 0.0
C1059 C 0.01826 0.42245 0.87295 0.0
N1060 N 0.01695 0.43127 0.71195 0.0
N1061 N 0.02225 0.42257 0.82901 0.0
H1062 H 0.60698 0.59427 0.65532 0.0
H1063 H 0.58166 0.575 0.91354 0.0
H1064 H 0.56481 0.57847 0.70065 0.0
H1065 H 0.62461 0.59407 0.87446 0.0
H1066 H 0.57551 0.57608 0.83493 0.0
H1067 H 0.6139 0.59387 0.73428 0.0
C1068 C 0.59918 0.59067 0.68165 0.0
C1069 C 0.58529 0.58643 0.67105 0.0
C1070 C 0.5863 0.5801 0.8435 0.0
C1071 C 0.59311 0.58598 0.76148 0.0
C1072 C 0.58982 0.57952 0.88858 0.0
C1073 C 0.60369 0.58448 0.90098 0.0
C1074 C 0.59668 0.5856 0.8101 0.0
C1075 C 0.61378 0.59016 0.86673 0.0
C1076 C 0.60313 0.59049 0.72676 0.0
C1077 C 0.57565 0.5819 0.70683 0.0
N1078 N 0.61008 0.59051 0.82299 0.0
N1079 N 0.57973 0.5818 0.75006 0.0
H1080 H 0.46165 0.99604 0.89033 0.0
H1081 H 0.40758 0.9658 0.68636 0.0
H1082 H 0.4175 0.97869 0.90558 0.0
H1083 H 0.45145 0.98197 0.66695 0.0
H1084 H 0.4112 0.9688 0.7677 0.0
H1085 H 0.45838 0.98957 0.81029 0.0
C1086 C 0.45126 0.99074 0.87713 0.0
C1087 C 0.43984 0.98797 0.9051 0.0
C1088 C 0.42007 0.97157 0.74589 0.0
C1089 C 0.43603 0.98058 0.81298 0.0
C1090 C 0.41799 0.9698 0.69922 0.0
C1091 C 0.42921 0.9736 0.66939 0.0
C1092 C 0.43351 0.97736 0.76351 0.0
C1093 C 0.44246 0.97878 0.68847 0.0
C1094 C 0.44941 0.98708 0.83128 0.0
C1095 C 0.42665 0.98112 0.88566 0.0
N1096 N 0.44425 0.98063 0.73414 0.0
N1097 N 0.42514 0.97776 0.84109 0.0
H1098 H 0.58315 0.00941 0.40555 0.0
H1099 H 0.60409 1.00206 0.15306 0.0
H1100 H 0.61747 0.04092 0.33499 0.0
H1101 H 0.56329 0.97764 0.20839 0.0
H1102 H 0.61085 0.01443 0.22362 0.0
H1103 H 0.57746 0.99583 0.33751 0.0
C1104 C 0.58958 0.01342 0.37582 0.0
C1105 C 0.60086 0.0263 0.37594 0.0
C1106 C 0.60043 1.00633 0.22027 0.0
C1107 C 0.59435 0.0108 0.29783 0.0
C1108 C 0.59652 0.99924 0.1799 0.0
C1109 C 0.58297 0.98888 0.17408 0.0
C1110 C 0.59082 1.00295 0.25555 0.0
C1111 C 0.57383 0.9855 0.21095 0.0
C1112 C 0.58626 1.0057 0.33691 0.0
C1113 C 0.60866 0.03108 0.33616 0.0
N1114 N 0.5779 0.99255 0.24998 0.0
N1115 N 0.60529 0.0233 0.2987 0.0
H1116 H 0.98798 0.56591 0.36621 0.0
H1117 H 0.05529 0.60006 0.20989 0.0
H1118 H 0.02887 0.58999 0.41949 0.0
H1119 H 0.01397 0.58115 0.15624 0.0
H1120 H 0.04582 0.59689 0.28618 0.0
H1121 H 0.99723 0.57174 0.28973 0.0
C1122 C 0.99894 0.57249 0.36193 0.0
C1123 C 1.00766 0.57739 0.39969 0.0
C1124 C 0.03879 0.59351 0.25786 0.0
C1125 C 0.0184 0.58409 0.31122 0.0
C1126 C 0.04418 0.59529 0.21405 0.0
C1127 C 0.03542 0.5908 0.17626 0.0
C1128 C 0.02445 0.58704 0.26451 0.0
C1129 C 0.02114 0.58479 0.18417 0.0
C1130 C 1.00421 0.57584 0.318 0.0
C1131 C 0.02174 0.58597 0.39159 0.0
N1132 N 0.01611 0.58297 0.22736 0.0
N1133 N 0.02668 0.58894 0.34831 0.0
H1134 H 0.44678 0.42273 0.13412 0.0
H1135 H 0.43464 0.42546 0.40191 0.0
H1136 H 0.41939 0.43589 0.19086 0.0
H1137 H 0.46725 0.41962 0.34421 0.0
H1138 H 0.42685 0.42664 0.32496 0.0
H1139 H 0.4523 0.41871 0.21105 0.0
C1140 C 0.44181 0.42463 0.16262 0.0
C1141 C 0.43267 0.42973 0.15584 0.0
C1142 C 0.43568 0.42504 0.32926 0.0
C1143 C 0.43895 0.42519 0.24417 0.0
C1144 C 0.4401 0.42434 0.37322 0.0
C1145 C 0.45168 0.42254 0.37974 0.0
C1146 C 0.44281 0.42381 0.29154 0.0
C1147 C 0.45835 0.42114 0.34107 0.0
C1148 C 0.44501 0.4224 0.2066 0.0
C1149 C 0.42659 0.43205 0.19429 0.0
N1150 N 0.45384 0.42182 0.29891 0.0
N1151 N 0.42985 0.42981 0.23659 0.0
H1152 H 0.3535 0.20341 0.14557 0.0
H1153 H 0.35441 0.13724 0.22906 0.0
H1154 H 0.32509 0.17622 0.24426 0.0
H1155 H 0.38355 0.16487 0.133 0.0
H1156 H 0.34339 0.15126 0.2343 0.0
H1157 H 0.36456 0.18943 0.14015 0.0
C1158 C 0.34958 0.19456 0.16623 0.0
C1159 C 0.33827 0.19109 0.19542 0.0
C1160 C 0.35221 0.15427 0.2121 0.0
C1161 C 0.35091 0.17487 0.18904 0.0
C1162 C 0.35849 0.14621 0.20893 0.0
C1163 C 0.36999 0.14979 0.18054 0.0
C1164 C 0.35739 0.16605 0.18664 0.0
C1165 C 0.37487 0.1617 0.1558 0.0
C1166 C 0.35589 0.18652 0.16295 0.0
C1167 C 0.33361 0.17932 0.22081 0.0
N1168 N 0.36855 0.16934 0.15937 0.0
N1169 N 0.33994 0.17169 0.21705 0.0
H1170 H 0.8175 0.14083 0.1552 0.0
H1171 H 0.88689 0.20543 0.22904 0.0
H1172 H 0.85131 0.13947 0.22333 0.0
H1173 H 0.85377 0.20708 0.15724 0.0
H1174 H 0.87387 0.1813 0.22782 0.0
H1175 H 0.83038 0.16503 0.15664 0.0
C1176 C 0.8276 0.14558 0.17068 0.0
C1177 C 0.83329 0.13802 0.18925 0.0
C1178 C 0.86944 0.18693 0.2123 0.0
C1179 C 0.84819 0.16584 0.19064 0.0
C1180 C 0.87692 0.20076 0.21275 0.0
C1181 C 0.8715 0.2084 0.19299 0.0
C1182 C 0.85638 0.18058 0.19196 0.0
C1183 C 0.85835 0.20167 0.17326 0.0
C1184 C 0.83499 0.15944 0.17127 0.0
C1185 C 0.84654 0.14482 0.20815 0.0
N1186 N 0.85127 0.18817 0.17318 0.0
N1187 N 0.85351 0.15831 0.20842 0.0
H1188 H 0.89825 0.68989 0.10761 0.0
H1189 H 0.82939 0.67178 0.24619 0.0
H1190 H 0.89786 0.68853 0.25338 0.0
H1191 H 0.82945 0.65329 0.11982 0.0
H1192 H 0.85487 0.6828 0.2464 0.0
H1193 H 0.87329 0.68157 0.10849 0.0
C1194 C 0.89297 0.68807 0.13986 0.0
C1195 C 0.90018 0.68988 0.18052 0.0
C1196 C 0.84926 0.67636 0.21862 0.0
C1197 C 0.87158 0.6804 0.1816 0.0
C1198 C 0.83479 0.67015 0.21841 0.0
C1199 C 0.82738 0.66158 0.18308 0.0
C1200 C 0.85629 0.67425 0.18259 0.0
C1201 C 0.83481 0.65972 0.14786 0.0
C1202 C 0.87871 0.68323 0.14027 0.0
C1203 C 0.89271 0.68723 0.22126 0.0
N1204 N 0.84884 0.66606 0.14833 0.0
N1205 N 0.87881 0.68264 0.2208 0.0
H1206 H 0.17849 0.35469 0.28825 0.0
H1207 H 0.24117 0.35226 0.40646 0.0
H1208 H 0.2006 0.38045 0.39879 0.0
H1209 H 0.22758 0.33684 0.27306 0.0
H1210 H 0.22785 0.36419 0.40168 0.0
H1211 H 0.19702 0.34886 0.28001 0.0
C1212 C 0.18727 0.35915 0.31069 0.0
C1213 C 0.18792 0.36798 0.34453 0.0
C1214 C 0.2281 0.35854 0.37278 0.0
C1215 C 0.20922 0.36136 0.3353 0.0
C1216 C 0.23585 0.35188 0.37531 0.0
C1217 C 0.23571 0.3438 0.33964 0.0
C1218 C 0.21976 0.35676 0.33486 0.0
C1219 C 0.22827 0.34325 0.30067 0.0
C1220 C 0.19791 0.35591 0.30572 0.0
C1221 C 0.19967 0.37363 0.37218 0.0
N1222 N 0.22035 0.3494 0.29964 0.0
N1223 N 0.20974 0.37009 0.36738 0.0
H1224 H 0.65145 0.80695 0.39432 0.0
H1225 H 0.72046 0.8748 0.341 0.0
H1226 H 0.688 0.80873 0.33441 0.0
H1227 H 0.68372 0.87325 0.3983 0.0
H1228 H 0.70875 0.85063 0.33889 0.0
H1229 H 0.663 0.83115 0.3959 0.0
C1230 C 0.66186 0.81238 0.38125 0.0
C1231 C 0.66871 0.80568 0.36419 0.0
C1232 C 0.70324 0.85557 0.35192 0.0
C1233 C 0.68211 0.83354 0.36636 0.0
C1234 C 0.70996 0.86941 0.3534 0.0
C1235 C 0.70312 0.87617 0.37 0.0
C1236 C 0.68953 0.84832 0.36722 0.0
C1237 C 0.68939 0.86855 0.38479 0.0
C1238 C 0.66849 0.82624 0.3824 0.0
C1239 C 0.68232 0.81337 0.34842 0.0
N1240 N 0.68308 0.85506 0.38314 0.0
N1241 N 0.68854 0.82685 0.34988 0.0
H1242 H 0.21731 0.84665 0.42007 0.0
H1243 H 0.146 0.83721 0.31815 0.0
H1244 H 0.21453 0.87501 0.33064 0.0
H1245 H 0.14938 0.80757 0.39871 0.0
H1246 H 0.17095 0.85137 0.32358 0.0
H1247 H 0.19251 0.83236 0.41303 0.0
C1248 C 0.21157 0.84988 0.39864 0.0
C1249 C 0.21819 0.86216 0.37592 0.0
C1250 C 0.16624 0.84176 0.34005 0.0
C1251 C 0.18949 0.84574 0.36825 0.0
C1252 C 0.15194 0.83368 0.3372 0.0
C1253 C 0.14547 0.82113 0.35806 0.0
C1254 C 0.17423 0.83734 0.36412 0.0
C1255 C 0.15385 0.81707 0.38166 0.0
C1256 C 0.19732 0.8417 0.39486 0.0
C1257 C 0.20997 0.86577 0.34929 0.0
N1258 N 0.16774 0.82514 0.38413 0.0
N1259 N 0.1961 0.85763 0.34627 0.0
H1260 H 0.65451 0.84924 0.91042 0.0
H1261 H 0.71873 0.84091 0.82333 0.0
H1262 H 0.68729 0.87823 0.82694 0.0
H1263 H 0.68405 0.81044 0.89605 0.0
H1264 H 0.70766 0.8549 0.82584 0.0
H1265 H 0.66527 0.83507 0.90619 0.0
C1266 C 0.6639 0.85265 0.8909 0.0
C1267 C 0.66993 0.86507 0.86902 0.0
C1268 C 0.70246 0.84515 0.84121 0.0
C1269 C 0.6825 0.84879 0.86462 0.0
C1270 C 0.70882 0.83715 0.84005 0.0
C1271 C 0.70236 0.82442 0.85961 0.0
C1272 C 0.68952 0.84046 0.86228 0.0
C1273 C 0.68939 0.82009 0.88012 0.0
C1274 C 0.67011 0.84453 0.88872 0.0
C1275 C 0.68229 0.86888 0.84489 0.0
N1276 N 0.68344 0.82809 0.88103 0.0
N1277 N 0.68814 0.86081 0.84343 0.0
H1278 H 0.21446 0.87296 0.90902 0.0
H1279 H 0.1451 0.80877 0.83198 0.0
H1280 H 0.18098 0.87487 0.84061 0.0
H1281 H 0.17857 0.8069 0.90062 0.0
H1282 H 0.158 0.83293 0.83522 0.0
H1283 H 0.20149 0.8488 0.90613 0.0
C1284 C 0.20442 0.86834 0.89317 0.0
C1285 C 0.19887 0.87606 0.8749 0.0
C1286 C 0.16253 0.82723 0.84958 0.0
C1287 C 0.18384 0.84824 0.87188 0.0
C1288 C 0.15512 0.81339 0.84797 0.0
C1289 C 0.1607 0.80568 0.86615 0.0
C1290 C 0.17565 0.8335 0.86955 0.0
C1291 C 0.17387 0.81235 0.88571 0.0
C1292 C 0.19697 0.8545 0.89175 0.0
C1293 C 0.18566 0.8694 0.85555 0.0
N1294 N 0.18087 0.82584 0.88693 0.0
N1295 N 0.17863 0.85591 0.85448 0.0
H1296 H 0.15477 0.28904 0.82259 0.0
H1297 H 0.22728 0.33619 0.93979 0.0
H1298 H 0.16017 0.31853 0.92192 0.0
H1299 H 0.22317 0.31874 0.80834 0.0
H1300 H 0.20197 0.32454 0.94769 0.0
H1301 H 0.1791 0.29502 0.8306 0.0
C1302 C 0.16102 0.29665 0.84654 0.0
C1303 C 0.15544 0.30338 0.87133 0.0
C1304 C 0.20665 0.32297 0.91771 0.0
C1305 C 0.18333 0.31023 0.88081 0.0
C1306 C 0.22106 0.32943 0.91356 0.0
C1307 C 0.22724 0.32832 0.87351 0.0
C1308 C 0.19848 0.31523 0.88174 0.0
C1309 C 0.21876 0.31973 0.83989 0.0
C1310 C 0.17492 0.30008 0.85099 0.0
C1311 C 0.1641 0.31325 0.90162 0.0
N1312 N 0.20481 0.3136 0.84458 0.0
N1313 N 0.17763 0.31641 0.90543 0.0
H1314 H 0.82508 0.6728 0.73276 0.0
H1315 H 0.88772 0.66022 0.65681 0.0
H1316 H 0.85797 0.69993 0.64562 0.0
H1317 H 0.85516 0.63545 0.7494 0.0
H1318 H 0.87776 0.67534 0.65264 0.0
H1319 H 0.83653 0.65932 0.73912 0.0
C1320 C 0.83469 0.6759 0.71469 0.0
C1321 C 0.84047 0.68749 0.68828 0.0
C1322 C 0.87287 0.66662 0.67399 0.0
C1323 C 0.85385 0.67204 0.69578 0.0
C1324 C 0.87857 0.65801 0.67646 0.0
C1325 C 0.87224 0.64649 0.7033 0.0
C1326 C 0.86078 0.66366 0.69854 0.0
C1327 C 0.86038 0.64413 0.72797 0.0
C1328 C 0.84131 0.66822 0.71858 0.0
C1329 C 0.85315 0.69112 0.66652 0.0
N1330 N 0.85506 0.65256 0.72484 0.0
N1331 N 0.85938 0.68339 0.67054 0.0
H1332 H 0.35239 0.20411 0.72507 0.0
H1333 H 0.35629 0.13887 0.65148 0.0
H1334 H 0.3889 0.20493 0.66874 0.0
H1335 H 0.31978 0.13822 0.70702 0.0
H1336 H 0.36848 0.163 0.65821 0.0
H1337 H 0.34033 0.17999 0.71878 0.0
C1338 C 0.35788 0.19926 0.71116 0.0
C1339 C 0.37172 0.20666 0.69733 0.0
C1340 C 0.35779 0.15758 0.66892 0.0
C1341 C 0.35793 0.17889 0.69043 0.0
C1342 C 0.35083 0.14375 0.6653 0.0
C1343 C 0.33693 0.1364 0.67869 0.0
C1344 C 0.35086 0.16417 0.68613 0.0
C1345 C 0.33039 0.1434 0.6957 0.0
C1346 C 0.35098 0.18544 0.7078 0.0
C1347 C 0.37831 0.19971 0.68031 0.0
N1348 N 0.3374 0.15685 0.69896 0.0
N1349 N 0.37136 0.18625 0.67729 0.0
H1350 H 0.81272 0.16765 0.65302 0.0
H1351 H 0.88466 0.17343 0.73362 0.0
H1352 H 0.81595 0.13685 0.72708 0.0
H1353 H 0.88121 0.205 0.66588 0.0
H1354 H 0.8596 0.15982 0.73068 0.0
H1355 H 0.8377 0.18138 0.6572 0.0
C1356 C 0.81861 0.16375 0.67045 0.0
C1357 C 0.81206 0.15098 0.68978 0.0
C1358 C 0.86431 0.16973 0.71648 0.0
C1359 C 0.84093 0.16675 0.69417 0.0
C1360 C 0.87868 0.17751 0.71791 0.0
C1361 C 0.88517 0.19043 0.69986 0.0
C1362 C 0.85627 0.17483 0.69672 0.0
C1363 C 0.87673 0.19519 0.68065 0.0
C1364 C 0.83295 0.17162 0.67259 0.0
C1365 C 0.82044 0.14651 0.71119 0.0
N1366 N 0.86277 0.18739 0.67949 0.0
N1367 N 0.83439 0.15436 0.71278 0.0
H1368 H 0.05485 0.50407 0.49475 0.0
H1369 H 0.98806 0.50971 0.57046 0.0
H1370 H 0.01974 0.47272 0.56312 0.0
H1371 H 0.02311 0.5411 0.50202 0.0
H1372 H 0.99948 0.49606 0.56786 0.0
H1373 H 0.04352 0.5178 0.49765 0.0
C1374 C 0.04481 0.50006 0.51065 0.0
C1375 C 0.0383 0.48714 0.52877 0.0
C1376 C 1.00469 0.50594 0.5534 0.0
C1377 C 0.02513 0.5029 0.53175 0.0
C1378 C 0.99812 0.51375 0.55462 0.0
C1379 C 1.00457 0.52664 0.53633 0.0
C1380 C 0.01785 0.51099 0.5337 0.0
C1381 C 0.01775 0.53132 0.517 0.0
C1382 C 0.03829 0.50792 0.51204 0.0
C1383 C 0.02514 0.48251 0.54823 0.0
N1384 N 0.02393 0.52351 0.51615 0.0
N1385 N 0.01902 0.49037 0.54922 0.0
H1386 H 0.52081 0.47226 0.54955 0.0
H1387 H 0.51845 0.53959 0.49669 0.0
H1388 H 0.48549 0.47332 0.49188 0.0
H1389 H 0.55349 0.53837 0.55602 0.0
H1390 H 0.50621 0.51539 0.4948 0.0
H1391 H 0.53296 0.49644 0.55157 0.0
C1392 C 0.5156 0.47754 0.53705 0.0
C1393 C 0.50206 0.47064 0.52041 0.0
C1394 C 0.51658 0.52042 0.50824 0.0
C1395 C 0.51596 0.4985 0.52309 0.0
C1396 C 0.52358 0.53428 0.50957 0.0
C1397 C 0.53708 0.54114 0.52658 0.0
C1398 C 0.52308 0.51328 0.52405 0.0
C1399 C 0.5432 0.5336 0.54208 0.0
C1400 C 0.52254 0.49139 0.53847 0.0
C1401 C 0.49583 0.47813 0.50544 0.0
N1402 N 0.53616 0.52012 0.54047 0.0
N1403 N 0.50282 0.49162 0.50708 0.0
H1404 H 0.55144 1.00343 0.47324 0.0
H1405 H 0.49837 0.01706 0.61794 0.0
H1406 H 0.56033 0.01904 0.60826 0.0
H1407 H 0.49038 1.00008 0.48437 0.0
H1408 H 0.52023 0.01635 0.61875 0.0
H1409 H 0.52773 0.99925 0.48203 0.0
C1410 C 0.54822 1.00554 0.50544 0.0
C1411 C 0.55781 0.01156 0.54015 0.0
C1412 C 0.51364 0.01271 0.58941 0.0
C1413 C 0.53082 1.00747 0.54982 0.0
C1414 C 0.50122 0.01326 0.58869 0.0
C1415 C 0.49248 1.00864 0.55095 0.0
C1416 C 0.51737 1.00754 0.55207 0.0
C1417 C 0.49666 1.00363 0.51437 0.0
C1418 C 0.53472 1.00334 0.51027 0.0
C1419 C 0.55317 0.0143 0.58091 0.0
N1420 N 0.50876 1.00325 0.51584 0.0
N1421 N 0.54006 0.0125 0.58437 0.0
H1422 H 0.52267 0.04419 0.06607 0.0
H1423 H 0.56491 0.01248 0.94482 0.0
H1424 H 0.50617 0.01601 0.95729 0.0
H1425 H 0.57169 0.02642 0.08208 0.0
H1426 H 0.54745 0.0198 0.93678 0.0
H1427 H 0.54436 0.04335 0.06044 0.0
C1428 C 0.52367 0.03797 0.04053 0.0
C1429 C 0.51252 0.03007 1.01235 0.0
C1430 C 0.55305 0.02158 0.96824 0.0
C1431 C 0.53741 0.02913 1.00556 0.0
C1432 C 0.56314 0.01756 0.9726 0.0
C1433 C 0.56966 0.01873 1.01424 0.0
C1434 C 0.54972 0.02707 1.0056 0.0
C1435 C 0.56688 0.02531 0.0494 0.0
C1436 C 0.53604 0.03747 0.03745 0.0
C1437 C 0.51442 0.0221 0.98013 0.0
N1438 N 0.55703 0.0291 0.04447 0.0
N1439 N 0.52659 0.02181 0.97768 0.0
H1440 H 0.05698 0.54092 1.01248 0.0
H1441 H 0.98774 0.47286 0.06123 0.0
H1442 H 0.01971 0.53905 0.06622 0.0
H1443 H 0.02445 0.47477 1.00213 0.0
H1444 H 0.99934 0.49702 0.06405 0.0
H1445 H 0.04541 0.51673 1.00992 0.0
C1446 C 0.0464 0.53546 1.02404 0.0
C1447 C 0.03935 0.54212 0.03972 0.0
C1448 C 1.00487 0.49216 0.05045 0.0
C1449 C 0.02594 0.51428 0.0364 0.0
C1450 C 0.99821 0.47831 0.04858 0.0
C1451 C 1.00507 0.47165 0.0313 0.0
C1452 C 0.01853 0.4995 0.03497 0.0
C1453 C 0.01875 0.47938 1.01621 0.0
C1454 C 0.03975 0.52161 1.02229 0.0
C1455 C 0.02553 0.53441 0.05344 0.0
N1456 N 0.02501 0.49285 1.01836 0.0
N1457 N 0.01931 0.52094 0.05154 0.0
H1458 H 0.48301 0.46996 0.07082 0.0
H1459 H 0.54819 0.53809 0.99176 0.0
H1460 H 0.48021 0.49833 0.98149 0.0
H1461 H 0.55174 0.50794 0.06871 0.0
H1462 H 0.52315 0.52411 0.99097 0.0
H1463 H 0.50801 0.48409 0.07335 0.0
C1464 C 0.48757 0.4791 0.05161 0.0
C1465 C 0.47931 0.48284 1.02577 0.0
C1466 C 0.5294 0.52054 1.00803 0.0
C1467 C 0.50811 0.49922 0.02899 0.0
C1468 C 0.54373 0.52857 1.00871 0.0
C1469 C 0.55218 0.52423 0.03034 0.0
C1470 C 0.52336 0.50806 0.02933 0.0
C1471 C 0.54573 0.51167 0.05115 0.0
C1472 C 0.5019 0.48721 0.05324 0.0
C1473 C 0.48597 0.495 1.0023 0.0
N1474 N 0.53174 0.50406 0.05021 0.0
N1475 N 0.49991 0.5027 1.00445 0.0
H1476 H 0.41533 0.03485 1.00627 0.0
H1477 H 0.42544 0.09079 0.18608 0.0
H1478 H 0.44641 0.04792 0.10987 0.0
H1479 H 0.39179 0.07368 0.09134 0.0
H1480 H 0.43332 0.07533 0.15978 0.0
H1481 H 0.40656 0.0489 0.03825 0.0
C1482 C 0.42031 0.04068 0.03587 0.0
C1483 C 0.43172 0.04027 0.05512 0.0
C1484 C 0.42418 0.07492 0.14493 0.0
C1485 C 0.42166 0.05653 0.09224 0.0
C1486 C 0.4197 0.08382 0.15974 0.0
C1487 C 0.40791 0.08363 0.14089 0.0
C1488 C 0.41691 0.06578 0.1107 0.0
C1489 C 0.40082 0.07417 0.10728 0.0
C1490 C 0.41525 0.04869 0.05428 0.0
C1491 C 0.43758 0.04789 0.09402 0.0
N1492 N 0.40546 0.06573 0.09319 0.0
N1493 N 0.43257 0.0558 0.11105 0.0
H1494 H 0.936 0.3186 0.22433 0.0
H1495 H 0.94939 0.36141 0.99842 0.0
H1496 H 0.92334 0.30068 0.09302 0.0
H1497 H 0.96993 0.37777 0.12453 0.0
H1498 H 0.93845 0.33927 0.03274 0.0
H1499 H 0.94705 0.34044 0.1888 0.0
C1500 C 0.93543 0.31925 0.18799 0.0
C1501 C 0.9286 0.30774 0.16167 0.0
C1502 C 0.94538 0.3477 0.05285 0.0
C1503 C 0.94142 0.33288 0.12053 0.0
C1504 C 0.95156 0.36036 0.03337 0.0
C1505 C 0.96058 0.3715 0.05866 0.0
C1506 C 0.94808 0.34614 0.09816 0.0
C1507 C 0.96316 0.36949 0.10365 0.0
C1508 C 0.94186 0.33176 0.16766 0.0
C1509 C 0.92851 0.30926 0.11457 0.0
N1510 N 0.95688 0.35709 0.12199 0.0
N1511 N 0.93475 0.3216 0.09551 0.0
H1512 H 0.71351 0.60469 0.21321 0.0
H1513 H 0.66558 0.58796 0.99633 0.0
H1514 H 0.72815 0.62611 0.08773 0.0
H1515 H 0.64885 0.58009 0.13152 0.0
H1516 H 0.6889 0.59988 0.02776 0.0
H1517 H 0.69002 0.59355 0.18269 0.0
C1518 C 0.71176 0.60703 0.1792 0.0
C1519 C 0.72279 0.61632 0.15292 0.0
C1520 C 0.68012 0.59557 0.05055 0.0
C1521 C 0.69597 0.60353 0.11764 0.0
C1522 C 0.66683 0.58867 0.03265 0.0
C1523 C 0.65526 0.58297 0.06139 0.0
C1524 C 0.68192 0.59658 0.09759 0.0
C1525 C 0.65748 0.58438 0.10822 0.0
C1526 C 0.69836 0.60073 0.16191 0.0
C1527 C 0.71993 0.61908 0.1092 0.0
N1528 N 0.67055 0.59094 0.12489 0.0
N1529 N 0.70683 0.61262 0.09275 0.0
H1530 H 0.09484 0.42968 0.54779 0.0
H1531 H 0.10065 0.39068 0.33185 0.0
H1532 H 0.07145 0.42338 0.4252 0.0
H1533 H 0.12428 0.39581 0.45303 0.0
H1534 H 0.08982 0.40246 0.36691 0.0
H1535 H 0.1057 0.41739 0.51505 0.0
C1536 C 0.09201 0.42579 0.51394 0.0
C1537 C 0.08217 0.42764 0.4893 0.0
C1538 C 0.09737 0.40106 0.38602 0.0
C1539 C 0.09454 0.41339 0.45175 0.0
C1540 C 0.10367 0.39437 0.36583 0.0
C1541 C 0.1136 0.39238 0.38919 0.0
C1542 C 0.10094 0.40589 0.43019 0.0
C1543 C 0.1167 0.3971 0.43373 0.0
C1544 C 0.09818 0.41869 0.49539 0.0
C1545 C 0.07882 0.42214 0.44583 0.0
N1546 N 0.11046 0.4037 0.45271 0.0
N1547 N 0.085 0.41532 0.42854 0.0
H1548 H 0.63256 0.71277 0.46456 0.0
H1549 H 0.59347 0.6343 0.42601 0.0
H1550 H 0.61697 0.69509 0.33469 0.0
H1551 H 0.59464 0.65194 0.55543 0.0
H1552 H 0.6051 0.65655 0.39198 0.0
H1553 H 0.62172 0.69052 0.4987 0.0
C1554 C 0.62692 0.7042 0.44323 0.0
C1555 C 0.62561 0.70578 0.39677 0.0
C1556 C 0.6028 0.65553 0.42783 0.0
C1557 C 0.61328 0.68033 0.43543 0.0
C1558 C 0.59624 0.64286 0.44726 0.0
C1559 C 0.59303 0.64127 0.49356 0.0
C1560 C 0.6064 0.66673 0.45503 0.0
C1561 C 0.59677 0.65271 0.51953 0.0
C1562 C 0.62068 0.69153 0.46273 0.0
C1563 C 0.61809 0.69433 0.37071 0.0
N1564 N 0.60332 0.66494 0.49999 0.0
N1565 N 0.61228 0.68211 0.39032 0.0
H1566 H 0.31429 0.9408 0.46486 0.0
H1567 H 0.39548 0.96782 0.42996 0.0
H1568 H 0.33174 0.92447 0.36972 0.0
H1569 H 0.37887 0.98249 0.53383 0.0
H1570 H 0.37213 0.95316 0.40383 0.0
H1571 H 0.33766 0.95728 0.48692 0.0
C1572 C 0.323 0.94071 0.44833 0.0
C1573 C 0.32097 0.93114 0.41541 0.0
C1574 C 0.37355 0.9596 0.43226 0.0
C1575 C 0.34782 0.95 0.4408 0.0
C1576 C 0.38692 0.96797 0.44734 0.0
C1577 C 0.3892 0.97632 0.48462 0.0
C1578 C 0.36224 0.95949 0.45447 0.0
C1579 C 0.37765 0.97628 0.50496 0.0
C1580 C 0.33636 0.9501 0.46115 0.0
C1581 C 0.33273 0.93147 0.39567 0.0
N1582 N 0.36467 0.96793 0.48984 0.0
N1583 N 0.34559 0.94071 0.40866 0.0
H1584 H 0.62499 0.98279 1.02054 0.0
H1585 H 0.61756 0.9263 0.84707 0.0
H1586 H 0.5961 0.96934 0.91 0.0
H1587 H 0.64885 0.94228 0.9501 0.0
H1588 H 0.60993 0.94229 0.86846 0.0
H1589 H 0.63443 0.96868 0.9935 0.0
C1590 C 0.62072 0.97699 0.99026 0.0
C1591 C 0.60968 0.97727 0.96766 0.0
C1592 C 0.6185 0.94235 0.88629 0.0
C1593 C 0.62038 0.96087 0.93671 0.0
C1594 C 0.62282 0.93314 0.87428 0.0
C1595 C 0.63385 0.93284 0.89691 0.0
C1596 C 0.62517 0.95135 0.92149 0.0
C1597 C 0.64039 0.94216 0.93141 0.0
C1598 C 0.62611 0.96889 0.97489 0.0
C1599 C 0.60461 0.96949 0.92858 0.0
N1600 N 0.63591 0.95095 0.94277 0.0
N1601 N 0.60991 0.96155 0.91462 0.0
H1602 H 0.11312 0.71418 0.96243 0.0
H1603 H 0.06768 0.63557 0.93183 0.0
H1604 H 0.09887 0.69528 0.83331 0.0
H1605 H 0.09264 0.65316 0.04969 0.0
H1606 H 0.0767 0.65769 0.89825 0.0
H1607 H 0.10344 0.69216 0.99817 0.0
C1608 C 0.10793 0.70541 0.94167 0.0
C1609 C 0.10691 0.70657 0.89478 0.0
C1610 C 0.0802 0.65671 0.93148 0.0
C1611 C 0.09573 0.68141 0.93531 0.0
C1612 C 0.07499 0.64409 0.95076 0.0
C1613 C 0.07944 0.6425 0.99358 0.0
C1614 C 0.08982 0.66788 0.95537 0.0
C1615 C 0.08906 0.65392 1.01639 0.0
C1616 C 0.10247 0.69286 0.96199 0.0
C1617 C 0.10011 0.69487 0.86941 0.0
N1618 N 0.09388 0.66612 0.99711 0.0
N1619 N 0.09475 0.68282 0.88998 0.0
H1620 H 0.38196 0.40531 0.94221 0.0
H1621 H 0.3011 0.38154 0.97121 0.0
H1622 H 0.36566 0.42294 0.03648 0.0
H1623 H 0.31791 0.36733 0.86639 0.0
H1624 H 0.32442 0.3951 1.00075 0.0
H1625 H 0.35841 0.38977 0.91918 0.0
C1626 C 0.37345 0.40585 0.95842 0.0
C1627 C 0.37587 0.41553 0.9913 0.0
C1628 C 0.32299 0.38895 0.97146 0.0
C1629 C 0.34876 0.39774 0.96472 0.0
C1630 C 0.30965 0.38114 0.95466 0.0
C1631 C 0.30749 0.37329 0.91606 0.0
C1632 C 0.33431 0.3889 0.94966 0.0
C1633 C 0.31904 0.37324 0.89609 0.0
C1634 C 0.35997 0.397 0.94503 0.0
C1635 C 0.36435 0.41581 1.01059 0.0
N1636 N 0.33191 0.38095 0.91297 0.0
N1637 N 0.35134 0.40708 0.99701 0.0
H1638 H 0.9401 0.62285 0.73077 0.0
H1639 H 0.95036 0.58711 0.5149 0.0
H1640 H 0.92306 0.623 0.59985 0.0
H1641 H 0.97468 0.59445 0.63562 0.0
H1642 H 0.94061 0.60059 0.54535 0.0
H1643 H 0.95356 0.61335 0.69648 0.0
C1644 C 0.93933 0.62109 0.69469 0.0
C1645 C 0.93026 0.62362 0.66835 0.0
C1646 C 0.94815 0.59935 0.56513 0.0
C1647 C 0.94552 0.61247 0.62894 0.0
C1648 C 0.95365 0.59156 0.54787 0.0
C1649 C 0.96328 0.58954 0.57289 0.0
C1650 C 0.95214 0.60508 0.60811 0.0
C1651 C 0.96734 0.59577 0.61511 0.0
C1652 C 0.94701 0.61561 0.67515 0.0
C1653 C 0.92978 0.62113 0.6217 0.0
N1654 N 0.96164 0.60314 0.6316 0.0
N1655 N 0.93713 0.61554 0.60368 0.0
H1656 H 0.44698 0.37798 0.62719 0.0
H1657 H 0.40806 0.29944 0.59369 0.0
H1658 H 0.44575 0.35981 0.49882 0.0
H1659 H 0.42584 0.31766 0.72102 0.0
H1660 H 0.41837 0.32153 0.55847 0.0
H1661 H 0.43577 0.35589 0.66257 0.0
C1662 C 0.44427 0.36933 0.60647 0.0
C1663 C 0.44735 0.37071 0.56009 0.0
C1664 C 0.42 0.32067 0.59412 0.0
C1665 C 0.43444 0.34547 0.60008 0.0
C1666 C 0.41406 0.3081 0.61423 0.0
C1667 C 0.41616 0.30674 0.66025 0.0
C1668 C 0.42786 0.33198 0.62044 0.0
C1669 C 0.42411 0.31828 0.68533 0.0
C1670 C 0.43796 0.35676 0.62666 0.0
C1671 C 0.4437 0.35918 0.53477 0.0
N1672 N 0.4296 0.33042 0.66519 0.0
N1673 N 0.43736 0.34705 0.55501 0.0
H1674 H 0.64951 0.03744 0.53271 0.0
H1675 H 0.69775 0.0911 0.71427 0.0
H1676 H 0.63376 0.05072 0.64347 0.0
H1677 H 0.71342 0.07614 0.60838 0.0
H1678 H 0.67425 0.07558 0.69113 0.0
H1679 H 0.6728 0.05034 0.56286 0.0
C1680 C 0.6509 0.04292 0.56373 0.0
C1681 C 0.63961 0.04302 0.58538 0.0
C1682 C 0.68281 0.07563 0.67305 0.0
C1683 C 0.6664 0.05803 0.61987 0.0
C1684 C 0.69628 0.08458 0.68607 0.0
C1685 C 0.70767 0.08505 0.66306 0.0
C1686 C 0.68062 0.06707 0.6365 0.0
C1687 C 0.70502 0.07612 0.62732 0.0
C1688 C 0.66425 0.05034 0.58086 0.0
C1689 C 0.64211 0.05033 0.62553 0.0
N1690 N 0.69181 0.06758 0.61499 0.0
N1691 N 0.65523 0.05762 0.64118 0.0
H1692 H 0.74322 0.76974 0.75398 0.0
H1693 H 0.78249 0.72742 0.7952 0.0
H1694 H 0.75424 0.76241 0.88657 0.0
H1695 H 0.7836 0.74614 0.66772 0.0
H1696 H 0.76976 0.73795 0.82833 0.0
H1697 H 0.75563 0.75891 0.72061 0.0
C1698 C 0.74821 0.76582 0.77605 0.0
C1699 C 0.74775 0.76705 0.82313 0.0
C1700 C 0.77282 0.73976 0.79312 0.0
C1701 C 0.76189 0.75457 0.78526 0.0
C1702 C 0.78002 0.7337 0.77416 0.0
C1703 C 0.78418 0.73594 0.72867 0.0
C1704 C 0.76955 0.74797 0.76624 0.0
C1705 C 0.78077 0.74427 0.70305 0.0
C1706 C 0.75535 0.7597 0.75701 0.0
C1707 C 0.75449 0.76185 0.85013 0.0
N1708 N 0.7736 0.74991 0.72208 0.0
N1709 N 0.7612 0.75579 0.83086 0.0
H1710 H 0.24975 0.96624 0.76603 0.0
H1711 H 0.29985 0.04458 0.78349 0.0
H1712 H 0.26365 0.98703 0.89237 0.0
H1713 H 0.27729 0.02581 0.66257 0.0
H1714 H 0.28843 0.02312 0.82238 0.0
H1715 H 0.26143 0.98757 0.72586 0.0
C1716 C 0.25525 0.97527 0.78529 0.0
C1717 C 0.25562 0.97483 0.83267 0.0
C1718 C 0.28596 0.0237 0.78733 0.0
C1719 C 0.26908 0.99925 0.78701 0.0
C1720 C 0.29256 0.03593 0.76504 0.0
C1721 C 0.28951 0.03701 0.71972 0.0
C1722 C 0.27635 0.01238 0.76406 0.0
C1723 C 0.27983 0.02547 0.69765 0.0
C1724 C 0.26186 0.98744 0.7624 0.0
C1725 C 0.26287 0.98688 0.85594 0.0
N1726 N 0.27364 0.01364 0.71994 0.0
N1727 N 0.26934 0.99855 0.83292 0.0
H1728 H 0.06355 0.28595 0.75354 0.0
H1729 H 0.98188 0.24928 0.79778 0.0
H1730 H 0.04511 0.27208 0.88472 0.0
H1731 H 0.9996 0.25016 0.66697 0.0
H1732 H 1.00516 0.26091 0.82957 0.0
H1733 H 0.04031 0.27619 0.72049 0.0
C1734 C 0.05461 0.28098 0.77538 0.0
C1735 C 0.05624 0.27974 0.82186 0.0
C1736 C 1.00395 0.25857 0.79388 0.0
C1737 C 0.02971 0.26862 0.78453 0.0
C1738 C 0.99067 0.252 0.7757 0.0
C1739 C 0.98878 0.24868 0.7297 0.0
C1740 C 0.01548 0.26205 0.76579 0.0
C1741 C 1.00057 0.25237 0.70271 0.0
C1742 C 0.04138 0.27534 0.75653 0.0
C1743 C 0.04431 0.27311 0.84866 0.0
N1744 N 0.01342 0.25888 0.72109 0.0
N1745 N 0.03158 0.26783 0.82968 0.0
H1746 H 0.31656 0.2686 0.27398 0.0
H1747 H 0.259 0.29154 0.23829 0.0
H1748 H 0.28207 0.249 0.18355 0.0
H1749 H 0.28896 0.30599 0.34569 0.0
H1750 H 0.26906 0.27789 0.2113 0.0
H1751 H 0.30828 0.28422 0.29424 0.0
C1752 C 0.30733 0.26764 0.25801 0.0
C1753 C 0.3 0.2574 0.22706 0.0
C1754 C 0.27349 0.28412 0.24059 0.0
C1755 C 0.29039 0.27529 0.25035 0.0
C1756 C 0.2678 0.29199 0.2559 0.0
C1757 C 0.27308 0.29993 0.29451 0.0
C1758 C 0.28463 0.28421 0.2638 0.0
C1759 C 0.28448 0.30001 0.31592 0.0
C1760 C 0.30255 0.27654 0.26982 0.0
C1761 C 0.28797 0.2566 0.20797 0.0
N1762 N 0.28983 0.29226 0.30041 0.0
N1763 N 0.28356 0.2654 0.21988 0.0
H1764 H 0.75953 0.9864 0.39583 0.0
H1765 H 0.77324 0.02773 0.1663 0.0
H1766 H 0.73997 0.9691 0.26933 0.0
H1767 H 0.7836 0.0465 0.29693 0.0
H1768 H 0.76293 1.00609 0.20321 0.0
H1769 H 0.77027 1.00837 0.36002 0.0
C1770 C 0.75755 0.98721 0.36048 0.0
C1771 C 0.74883 0.97588 0.33552 0.0
C1772 C 0.76746 0.01493 0.2239 0.0
C1773 C 0.76108 1.00099 0.29437 0.0
C1774 C 0.77347 0.02731 0.2028 0.0
C1775 C 0.7794 0.03898 0.22854 0.0
C1776 C 0.76744 0.01411 0.27122 0.0
C1777 C 0.7791 0.03777 0.27583 0.0
C1778 C 0.76361 0.99976 0.34016 0.0
C1779 C 0.7465 0.97755 0.28996 0.0
N1780 N 0.77328 0.02555 0.29568 0.0
N1781 N 0.75263 0.98984 0.27084 0.0
H1782 H 0.04929 0.76213 0.25336 0.0
H1783 H 0.96954 0.71405 0.30492 0.0
H1784 H 0.03208 0.75711 0.38743 0.0
H1785 H 0.98439 0.73176 0.17378 0.0
H1786 H 0.99266 0.72808 0.33578 0.0
H1787 H 0.02588 0.74918 0.22315 0.0
C1788 C 0.04058 0.75829 0.2764 0.0
C1789 C 0.04264 0.76073 0.32295 0.0
C1790 C 0.99081 0.72894 0.30032 0.0
C1791 C 0.01583 0.74583 0.28875 0.0
C1792 C 0.97763 0.72093 0.28266 0.0
C1793 C 0.97499 0.72174 0.23668 0.0
C1794 C 1.00153 0.73764 0.27164 0.0
C1795 C 0.9859 0.73084 0.20946 0.0
C1796 C 0.02723 0.75097 0.25916 0.0
C1797 C 0.03096 0.75559 0.35129 0.0
N1798 N 0.9987 0.73833 0.22723 0.0
N1799 N 0.01808 0.7483 0.33383 0.0
H1800 H 0.35601 0.07062 1.02558 0.0
H1801 H 0.33104 0.1037 0.83561 0.0
H1802 H 0.35366 0.10664 0.04606 0.0
H1803 H 0.34653 0.07678 0.80154 0.0
H1804 H 0.33771 0.1036 0.91398 0.0
H1805 H 0.35071 0.07116 0.94528 0.0
C1806 C 0.35427 0.07858 1.01338 0.0
C1807 C 0.35523 0.08857 0.04289 0.0
C1808 C 0.33978 0.09778 0.88947 0.0
C1809 C 0.3492 0.08925 0.9508 0.0
C1810 C 0.33597 0.09783 0.84459 0.0
C1811 C 0.33826 0.09026 0.81183 0.0
C1812 C 0.34574 0.0899 0.90238 0.0
C1813 C 0.34469 0.08285 0.82559 0.0
C1814 C 0.35136 0.07893 0.96741 0.0
C1815 C 0.35301 0.09871 1.02481 0.0
N1816 N 0.34807 0.08273 0.86996 0.0
N1817 N 0.35004 0.09874 0.98019 0.0
H1818 H 0.92197 0.23705 0.08162 0.0
H1819 H 0.94098 0.26068 0.8236 0.0
H1820 H 0.94716 0.27822 0.0454 0.0
H1821 H 0.92672 0.22055 0.86973 0.0
H1822 H 0.94148 0.26753 0.9029 0.0
H1823 H 0.92202 0.231 1.00258 0.0
C1824 C 0.92762 0.24483 0.05712 0.0
C1825 C 0.93464 0.25817 0.07045 0.0
C1826 C 0.93823 0.25723 0.89547 0.0
C1827 C 0.93452 0.25129 0.97911 0.0
C1828 C 0.93785 0.25331 0.85022 0.0
C1829 C 0.93381 0.24002 0.83987 0.0
C1830 C 0.93435 0.24776 0.93043 0.0
C1831 C 0.92997 0.23092 0.87589 0.0
C1832 C 0.92762 0.24136 1.01185 0.0
C1833 C 0.94172 0.2678 0.03687 0.0
N1834 N 0.93029 0.23493 0.91924 0.0
N1835 N 0.94139 0.26419 0.99276 0.0
H1836 H 0.7677 0.67424 0.05864 0.0
H1837 H 0.79592 0.67526 0.80764 0.0
H1838 H 0.788 0.65187 1.01792 0.0
H1839 H 0.76333 0.68496 0.83357 0.0
H1840 H 0.79535 0.66931 0.88728 0.0
H1841 H 0.76835 0.68117 0.97913 0.0
C1842 C 0.77242 0.67092 0.0332 0.0
C1843 C 0.77777 0.66243 0.04501 0.0
C1844 C 0.78827 0.67269 0.87559 0.0
C1845 C 0.77859 0.67032 0.95436 0.0
C1846 C 0.78859 0.67608 0.83001 0.0
C1847 C 0.77959 0.68053 0.81359 0.0
C1848 C 0.77906 0.67394 0.90557 0.0
C1849 C 0.77036 0.68144 0.84452 0.0
C1850 C 0.77269 0.67478 0.98783 0.0
C1851 C 0.78366 0.65834 1.01049 0.0
N1852 N 0.77039 0.67827 0.88901 0.0
N1853 N 0.78395 0.66234 0.96707 0.0
H1854 H 0.1273 0.31078 0.68866 0.0
H1855 H 0.10347 0.34795 0.50995 0.0
H1856 H 0.10692 0.33299 0.73012 0.0
H1857 H 0.1348 0.33677 0.48083 0.0
H1858 H 0.103 0.34113 0.58882 0.0
H1859 H 0.12877 0.31897 0.61158 0.0
C1860 C 0.12319 0.31747 0.68165 0.0
C1861 C 0.11699 0.3212 0.71624 0.0
C1862 C 0.10998 0.34017 0.5652 0.0
C1863 C 0.11844 0.3305 0.62693 0.0
C1864 C 0.1102 0.34398 0.51993 0.0
C1865 C 0.11915 0.34289 0.48825 0.0
C1866 C 0.11863 0.33504 0.57915 0.0
C1867 C 0.1277 0.33778 0.50373 0.0
C1868 C 0.12405 0.32215 0.63744 0.0
C1869 C 0.11188 0.32992 0.70477 0.0
N1870 N 0.12716 0.33399 0.54779 0.0
N1871 N 0.11258 0.33415 0.66106 0.0
H1872 H 0.69579 0.7463 0.712 0.0
H1873 H 0.66171 0.77073 0.52206 0.0
H1874 H 0.68518 0.7775 0.73206 0.0
H1875 H 0.6837 0.74946 0.48758 0.0
H1876 H 0.66886 0.77178 0.60029 0.0
H1877 H 0.68986 0.74558 0.63165 0.0
C1878 C 0.69211 0.75292 0.6997 0.0
C1879 C 0.69093 0.76194 0.72911 0.0
C1880 C 0.67223 0.76694 0.57577 0.0
C1881 C 0.68417 0.76117 0.63701 0.0
C1882 C 0.66814 0.76632 0.53092 0.0
C1883 C 0.67211 0.76 0.49803 0.0
C1884 C 0.68023 0.761 0.58859 0.0
C1885 C 0.68048 0.75451 0.51172 0.0
C1886 C 0.68884 0.75256 0.65371 0.0
C1887 C 0.68624 0.77036 0.71092 0.0
N1888 N 0.68416 0.75502 0.5561 0.0
N1889 N 0.68299 0.76972 0.66632 0.0
H1890 H 0.28097 0.94917 0.74504 0.0
H1891 H 0.24963 0.90514 0.52217 0.0
H1892 H 0.24593 0.90986 0.74716 0.0
H1893 H 0.28136 0.94609 0.51883 0.0
H1894 H 0.24862 0.90641 0.60452 0.0
H1895 H 0.28212 0.94776 0.66275 0.0
C1896 C 0.27361 0.94017 0.72837 0.0
C1897 C 0.26334 0.92961 0.7534 0.0
C1898 C 0.25576 0.91514 0.5858 0.0
C1899 C 0.26452 0.92799 0.65857 0.0
C1900 C 0.25631 0.91445 0.53863 0.0
C1901 C 0.26557 0.92554 0.51319 0.0
C1902 C 0.2646 0.927 0.60812 0.0
C1903 C 0.274 0.93729 0.53676 0.0
C1904 C 0.27421 0.93941 0.68121 0.0
C1905 C 0.25404 0.91826 0.72952 0.0
N1906 N 0.27336 0.93769 0.58273 0.0
N1907 N 0.25484 0.91777 0.68363 0.0
H1908 H 0.71007 0.91066 0.20714 0.0
H1909 H 0.68447 0.94428 1.02093 0.0
H1910 H 0.6927 0.93586 0.24419 0.0
H1911 H 0.68847 0.90929 0.99606 0.0
H1912 H 0.68956 0.94314 0.10108 0.0
H1913 H 0.70402 0.91158 0.12855 0.0
C1914 C 0.70488 0.91634 0.19876 0.0
C1915 C 0.70186 0.92317 0.23244 0.0
C1916 C 0.68933 0.93573 0.07801 0.0
C1917 C 0.69509 0.92446 0.14171 0.0
C1918 C 0.68655 0.93643 0.03213 0.0
C1919 C 0.68609 0.92689 1.00146 0.0
C1920 C 0.69187 0.92552 0.09335 0.0
C1921 C 0.68872 0.91688 1.01826 0.0
C1922 C 0.70143 0.91685 0.15376 0.0
C1923 C 0.69511 0.93035 0.21941 0.0
N1924 N 0.69155 0.9165 0.06283 0.0
N1925 N 0.69207 0.93092 0.17496 0.0
H1926 H 0.11112 0.77704 0.21554 0.0
H1927 H 0.07878 0.732 0.99496 0.0
H1928 H 0.07623 0.73767 0.2201 0.0
H1929 H 0.11435 0.77096 0.99112 0.0
H1930 H 0.07733 0.7341 0.07686 0.0
H1931 H 0.11238 0.77502 0.13356 0.0
C1932 C 0.10377 0.76792 0.19946 0.0
C1933 C 0.09356 0.7575 0.22515 0.0
C1934 C 0.08542 0.74222 0.05812 0.0
C1935 C 0.09487 0.75517 0.13053 0.0
C1936 C 0.08622 0.74106 1.01115 0.0
C1937 C 0.0967 0.75132 0.98571 0.0
C1938 C 0.09517 0.75373 0.08021 0.0
C1939 C 0.10607 0.76278 1.00903 0.0
C1940 C 0.10447 0.76679 0.15246 0.0
C1941 C 0.08431 0.74596 0.20199 0.0
N1942 N 0.1051 0.76365 0.05475 0.0
N1943 N 0.08517 0.74513 0.15619 0.0
H1944 H 0.24235 0.33155 0.2122 0.0
H1945 H 0.21805 0.34956 0.98323 0.0
H1946 H 0.20038 0.30898 0.1662 0.0
H1947 H 0.25656 0.37462 0.04951 0.0
H1948 H 0.21006 0.3356 0.05125 0.0
H1949 H 0.24678 0.3479 0.15388 0.0
C1950 C 0.23408 0.32993 0.18921 0.0
C1951 C 0.22106 0.31867 0.19327 0.0
C1952 C 0.22013 0.34433 0.05129 0.0
C1953 C 0.22604 0.33767 0.12613 0.0
C1954 C 0.22465 0.35238 1.01262 0.0
C1955 C 0.23809 0.36316 1.01062 0.0
C1956 C 0.22914 0.34715 0.088 0.0
C1957 C 0.24621 0.36631 0.04956 0.0
C1958 C 0.23657 0.33941 0.15619 0.0
C1959 C 0.2106 0.31744 0.16366 0.0
N1960 N 0.2417 0.35824 0.0863 0.0
N1961 N 0.21336 0.32675 0.13078 0.0
H1962 H 0.86849 0.59964 0.48615 0.0
H1963 H 0.92833 0.66388 0.37162 0.0
H1964 H 0.90591 0.62691 0.55434 0.0
H1965 H 0.90411 0.62919 0.29113 0.0
H1966 H 0.91768 0.65094 0.43984 0.0
H1967 H 0.87921 0.61052 0.41373 0.0
C1968 C 0.879 0.60768 0.48573 0.0
C1969 C 0.88637 0.61219 0.52622 0.0
C1970 C 0.91471 0.64613 0.40726 0.0
C1971 C 0.89842 0.62481 0.44469 0.0
C1972 C 0.92071 0.65354 0.36845 0.0
C1973 C 0.9171 0.64756 0.32596 0.0
C1974 C 0.90484 0.63269 0.40355 0.0
C1975 C 0.90724 0.63407 0.3235 0.0
C1976 C 0.88508 0.61387 0.44468 0.0
C1977 C 0.89991 0.62279 0.52411 0.0
N1978 N 0.90133 0.62706 0.36188 0.0
N1979 N 0.90541 0.62879 0.48423 0.0
H1980 H 0.35904 0.2639 0.5762 0.0
H1981 H 0.35606 0.23555 0.3265 0.0
H1982 H 0.37899 0.24103 0.53778 0.0
H1983 H 0.34895 0.26874 0.35209 0.0
H1984 H 0.36176 0.23547 0.40627 0.0
H1985 H 0.35218 0.26363 0.49672 0.0
C1986 C 0.36181 0.2587 0.55125 0.0
C1987 C 0.36962 0.25251 0.56364 0.0
C1988 C 0.359 0.24281 0.39443 0.0
C1989 C 0.36185 0.25215 0.47303 0.0
C1990 C 0.35576 0.24287 0.3488 0.0
C1991 C 0.35211 0.25223 0.33231 0.0
C1992 C 0.35839 0.25203 0.42426 0.0
C1993 C 0.35184 0.26143 0.36311 0.0
C1994 C 0.35801 0.25864 0.50591 0.0
C1995 C 0.37305 0.24601 0.5298 0.0
N1996 N 0.35485 0.26105 0.40758 0.0
N1997 N 0.36913 0.24597 0.4863 0.0
H1998 H 0.75986 0.08101 0.56062 0.0
H1999 H 0.78288 0.10772 0.30736 0.0
H2000 H 0.77284 0.12124 0.51839 0.0
H2001 H 0.75712 0.06614 0.33673 0.0
H2002 H 0.7815 0.11276 0.38681 0.0
H2003 H 0.7612 0.07521 0.48109 0.0
C2004 C 0.76311 0.08863 0.53482 0.0
C2005 C 0.76621 0.10162 0.54625 0.0
C2006 C 0.77608 0.10252 0.37591 0.0
C2007 C 0.76779 0.09511 0.45555 0.0
C2008 C 0.77685 0.09964 0.33044 0.0
C2009 C 0.77002 0.08649 0.31509 0.0
C2010 C 0.76861 0.09219 0.4068 0.0
C2011 C 0.76243 0.07644 0.34687 0.0
C2012 C 0.76377 0.08531 0.48945 0.0
C2013 C 0.77026 0.11108 0.51129 0.0
N2014 N 0.762 0.07948 0.39122 0.0
N2015 N 0.77097 0.10766 0.46784 0.0
H2016 H 0.99914 0.43737 0.18657 0.0
H2017 H 0.02872 0.40861 0.37706 0.0
H2018 H 0.01804 0.41327 0.15231 0.0
H2019 H 0.02262 0.44264 0.39655 0.0
H2020 H 0.02314 0.40849 0.29662 0.0
H2021 H 1.00617 0.43795 0.26482 0.0
C2022 C 1.00488 0.43225 0.19548 0.0
C2023 C 1.00802 0.42528 0.16265 0.0
C2024 C 0.02303 0.41597 0.31856 0.0
C2025 C 0.01595 0.42572 0.25321 0.0
C2026 C 0.02611 0.41599 0.36461 0.0
C2027 C 0.02609 0.42562 0.39391 0.0
C2028 C 0.01971 0.42553 0.30167 0.0
C2029 C 0.02276 0.43501 0.3755 0.0
C2030 C 1.0089 0.4326 0.24032 0.0
C2031 C 0.0155 0.41886 0.17639 0.0
N2032 N 0.01964 0.43467 0.33086 0.0
N2033 N 0.01909 0.41911 0.22077 0.0
H2034 H 0.623 0.60233 0.17773 0.0
H2035 H 0.56461 0.57595 0.36914 0.0
H2036 H 0.58172 0.57022 0.15833 0.0
H2037 H 0.60775 0.59845 0.40262 0.0
H2038 H 0.57082 0.5752 0.29067 0.0
H2039 H 0.61774 0.60274 0.25835 0.0
C2040 C 0.6128 0.59545 0.19024 0.0
C2041 C 0.60277 0.58627 0.16095 0.0
C2042 C 0.57899 0.58024 0.31503 0.0
C2043 C 0.59673 0.58667 0.25331 0.0
C2044 C 0.57544 0.58068 0.36 0.0
C2045 C 0.58567 0.58726 0.39266 0.0
C2046 C 0.59291 0.58662 0.30186 0.0
C2047 C 0.59954 0.59318 0.37864 0.0
C2048 C 0.60986 0.59563 0.23637 0.0
C2049 C 0.58979 0.5775 0.17938 0.0
N2050 N 0.60277 0.59284 0.33414 0.0
N2051 N 0.58716 0.57797 0.2241 0.0
H2052 H 0.4215 0.97044 0.38841 0.0
H2053 H 0.4653 0.99938 0.15889 0.0
H2054 H 0.46557 0.99533 0.38414 0.0
H2055 H 0.42114 0.98345 0.16647 0.0
H2056 H 0.46542 0.99399 0.23895 0.0
H2057 H 0.42108 0.97084 0.30514 0.0
C2058 C 0.43114 0.97552 0.36989 0.0
C2059 C 0.44363 0.98261 0.39318 0.0
C2060 C 0.45568 0.99157 0.22304 0.0
C2061 C 0.44322 0.98351 0.29799 0.0
C2062 C 0.45559 0.99462 0.17714 0.0
C2063 C 0.44319 0.99197 0.1556 0.0
C2064 C 0.44327 0.9857 0.24795 0.0
C2065 C 0.43096 0.98577 0.18146 0.0
C2066 C 0.43089 0.97595 0.32238 0.0
C2067 C 0.45576 0.98951 0.36749 0.0
N2068 N 0.43132 0.98291 0.2261 0.0
N2069 N 0.45525 0.98983 0.32151 0.0
H2070 H 0.53837 0.98937 0.84023 0.0
H2071 H 0.59955 0.0531 0.71961 0.0
H2072 H 0.58129 1.00814 0.87794 0.0
H2073 H 0.55837 0.03301 0.66547 0.0
H2074 H 0.59142 0.03897 0.78659 0.0
H2075 H 0.54409 1.00684 0.78254 0.0
C2076 C 0.54896 0.99707 0.83615 0.0
C2077 C 0.5594 0.99701 0.86296 0.0
C2078 C 0.58408 0.03771 0.76038 0.0
C2079 C 0.56597 0.01714 0.79841 0.0
C2080 C 0.58871 0.04589 0.72236 0.0
C2081 C 0.57973 0.04405 0.68646 0.0
C2082 C 0.57033 0.02749 0.76256 0.0
C2083 C 0.56572 0.03464 0.69198 0.0
C2084 C 0.55221 1.00705 0.80352 0.0
C2085 C 0.57295 1.00739 0.85698 0.0
N2086 N 0.56149 0.02651 0.72889 0.0
N2087 N 0.57579 0.01694 0.8255 0.0
H2088 H 0.01827 0.59654 0.66675 0.0
H2089 H 0.02259 0.57019 0.91433 0.0
H2090 H 0.99944 0.55513 0.70289 0.0
H2091 H 0.02674 0.60908 0.89278 0.0
H2092 H 0.01722 0.56533 0.83418 0.0
H2093 H 0.02491 0.60226 0.74659 0.0
C2094 C 0.01572 0.58868 0.69125 0.0
C2095 C 1.00828 0.57534 0.67813 0.0
C2096 C 0.01926 0.57492 0.84697 0.0
C2097 C 0.01581 0.58177 0.76913 0.0
C2098 C 0.02231 0.5777 0.89282 0.0
C2099 C 0.02501 0.59003 0.91058 0.0
C2100 C 0.01913 0.5846 0.81813 0.0
C2101 C 0.02457 0.59938 0.88076 0.0
C2102 C 0.01939 0.59193 0.73681 0.0
C2103 C 1.00511 0.56554 0.71144 0.0
N2104 N 0.02178 0.59652 0.83601 0.0
N2105 N 1.00891 0.56894 0.75512 0.0
H2106 H 0.43151 0.41218 0.64377 0.0
H2107 H 0.45457 0.43934 0.89572 0.0
H2108 H 0.47387 0.43612 0.68432 0.0
H2109 H 0.41521 0.40533 0.86736 0.0
H2110 H 0.46093 0.44017 0.81607 0.0
H2111 H 0.42432 0.41162 0.72316 0.0
C2112 C 0.43926 0.41745 0.66917 0.0
C2113 C 0.45331 0.42419 0.65738 0.0
C2114 C 0.45091 0.43249 0.82726 0.0
C2115 C 0.4452 0.4236 0.74793 0.0
C2116 C 0.44728 0.43199 0.87283 0.0
C2117 C 0.43436 0.42219 0.88851 0.0
C2118 C 0.44151 0.42324 0.79668 0.0
C2119 C 0.42533 0.41298 0.85698 0.0
C2120 C 0.43517 0.41704 0.71447 0.0
C2121 C 0.46293 0.43074 0.6918 0.0
N2122 N 0.42903 0.41378 0.81258 0.0
N2123 N 0.45871 0.43031 0.73526 0.0
loop_
_geom_bond_atom_site_label_1
_geom_bond_atom_site_label_2
_geom_bond_distance
_geom_bond_site_symmetry_2
_ccdc_geom_bond_type
Cu0 N1 1.999 . S
Cu0 O6 1.974 . S
Cu0 N11 1.985 . S
Cu0 O20 1.959 . S
N1 Cu0 1.999 . S
N1 C3 1.263 . S
N1 C5 1.389 . S
N2 C3 1.358 . S
N2 C4 1.400 . S
C3 N1 1.263 . S
C3 N2 1.358 . S
C3 H9 0.930 . S
C4 N2 1.400 . S
C4 C5 1.351 . S
C4 H21 0.930 . S
C5 N1 1.389 . S
C5 C4 1.351 . S
C5 H10 0.930 . S
O6 Cu0 1.974 . S
O6 C16 1.282 . S
C7 O8 1.261 . S
C7 O20 1.251 . S
O8 C7 1.261 . S
H9 C3 0.930 . S
H10 C5 0.930 . S
N11 Cu0 1.985 . S
N11 C13 1.335 . S
N11 C14 1.390 . S
N12 C13 1.345 . S
N12 C15 1.336 . S
C13 N11 1.335 . S
C13 N12 1.345 . S
C13 H18 0.930 . S
C14 N11 1.390 . S
C14 C15 1.346 . S
C14 H19 0.930 . S
C15 N12 1.336 . S
C15 C14 1.346 . S
C15 H22 0.929 . S
C16 O6 1.282 . S
C16 O17 1.216 . S
O17 C16 1.216 . S
H18 C13 0.930 . S
H19 C14 0.930 . S
O20 Cu0 1.959 . S
O20 C7 1.251 . S
H21 C4 0.930 . S
H22 C15 0.929 . S
Cu23 N24 1.999 . S
Cu23 O29 1.974 . S
Cu23 N34 1.985 . S
Cu23 O43 1.959 . S
N24 Cu23 1.999 . S
N24 C26 1.263 . S
N24 C28 1.389 . S
N25 C26 1.358 . S
N25 C27 1.400 . S
C26 N24 1.263 . S
C26 N25 1.358 . S
C26 H32 0.930 . S
C27 N25 1.400 . S
C27 C28 1.351 . S
C27 H44 0.930 . S
C28 N24 1.389 . S
C28 C27 1.351 . S
C28 H33 0.930 . S
O29 Cu23 1.974 . S
O29 C39 1.282 . S
C30 O31 1.261 . S
C30 O43 1.251 . S
O31 C30 1.261 . S
H32 C26 0.930 . S
H33 C28 0.930 . S
N34 Cu23 1.985 . S
N34 C36 1.335 . S
N34 C37 1.390 . S
N35 C36 1.345 . S
N35 C38 1.336 . S
C36 N34 1.335 . S
C36 N35 1.345 . S
C36 H41 0.930 . S
C37 N34 1.390 . S
C37 C38 1.346 . S
C37 H42 0.930 . S
C38 N35 1.336 . S
C38 C37 1.346 . S
C38 H45 0.929 . S
C39 O29 1.282 . S
C39 O40 1.216 . S
O40 C39 1.216 . S
H41 C36 0.930 . S
H42 C37 0.930 . S
O43 Cu23 1.959 . S
O43 C30 1.251 . S
H44 C27 0.930 . S
H45 C38 0.929 . S
Cu46 N47 1.999 . S
Cu46 O52 1.974 . S
Cu46 N57 1.985 . S
Cu46 O66 1.959 . S
N47 Cu46 1.999 . S
N47 C49 1.263 . S
N47 C51 1.389 . S
N48 C49 1.358 . S
N48 C50 1.400 . S
C49 N47 1.263 . S
C49 N48 1.358 . S
C49 H55 0.930 . S
C50 N48 1.400 . S
C50 C51 1.351 . S
C50 H67 0.930 . S
C51 N47 1.389 . S
C51 C50 1.351 . S
C51 H56 0.930 . S
O52 Cu46 1.974 . S
O52 C62 1.282 . S
C53 O54 1.261 . S
C53 O66 1.251 . S
O54 C53 1.261 . S
H55 C49 0.930 . S
H56 C51 0.930 . S
N57 Cu46 1.985 . S
N57 C59 1.335 . S
N57 C60 1.390 . S
N58 C59 1.345 . S
N58 C61 1.336 . S
C59 N57 1.335 . S
C59 N58 1.345 . S
C59 H64 0.930 . S
C60 N57 1.390 . S
C60 C61 1.346 . S
C60 H65 0.930 . S
C61 N58 1.336 . S
C61 C60 1.346 . S
C61 H68 0.929 . S
C62 O52 1.282 . S
C62 O63 1.216 . S
O63 C62 1.216 . S
H64 C59 0.930 . S
H65 C60 0.930 . S
O66 Cu46 1.959 . S
O66 C53 1.251 . S
H67 C50 0.930 . S
H68 C61 0.929 . S
Cu69 N70 1.999 . S
Cu69 O75 1.974 . S
Cu69 N80 1.985 . S
Cu69 O89 1.959 . S
N70 Cu69 1.999 . S
N70 C72 1.263 . S
N70 C74 1.389 . S
N71 C72 1.358 . S
N71 C73 1.400 . S
C72 N70 1.263 . S
C72 N71 1.358 . S
C72 H78 0.930 . S
C73 N71 1.400 . S
C73 C74 1.351 . S
C73 H90 0.930 . S
C74 N70 1.389 . S
C74 C73 1.351 . S
C74 H79 0.930 . S
O75 Cu69 1.974 . S
O75 C85 1.282 . S
C76 O77 1.261 . S
C76 O89 1.251 . S
O77 C76 1.261 . S
H78 C72 0.930 . S
H79 C74 0.930 . S
N80 Cu69 1.985 . S
N80 C82 1.335 . S
N80 C83 1.390 . S
N81 C82 1.345 . S
N81 C84 1.336 . S
C82 N80 1.335 . S
C82 N81 1.345 . S
C82 H87 0.930 . S
C83 N80 1.390 . S
C83 C84 1.346 . S
C83 H88 0.930 . S
C84 N81 1.336 . S
C84 C83 1.346 . S
C84 H91 0.929 . S
C85 O75 1.282 . S
C85 O86 1.216 . S
O86 C85 1.216 . S
H87 C82 0.930 . S
H88 C83 0.930 . S
O89 Cu69 1.959 . S
O89 C76 1.251 . S
H90 C73 0.930 . S
H91 C84 0.929 . S
Cu92 N93 1.999 . S
Cu92 O98 1.974 . S
Cu92 N103 1.985 . S
Cu92 O112 1.959 . S
N93 Cu92 1.999 . S
N93 C95 1.263 . S
N93 C97 1.389 . S
N94 C95 1.358 . S
N94 C96 1.400 . S
C95 N93 1.263 . S
C95 N94 1.358 . S
C95 H101 0.930 . S
C96 N94 1.400 . S
C96 C97 1.351 . S
C96 H113 0.930 . S
C97 N93 1.389 . S
C97 C96 1.351 . S
C97 H102 0.930 . S
O98 Cu92 1.974 . S
O98 C108 1.282 . S
C99 O100 1.261 . S
C99 O112 1.251 . S
O100 C99 1.261 . S
H101 C95 0.930 . S
H102 C97 0.930 . S
N103 Cu92 1.985 . S
N103 C105 1.335 . S
N103 C106 1.390 . S
N104 C105 1.345 . S
N104 C107 1.336 . S
C105 N103 1.335 . S
C105 N104 1.345 . S
C105 H110 0.930 . S
C106 N103 1.390 . S
C106 C107 1.346 . S
C106 H111 0.930 . S
C107 N104 1.336 . S
C107 C106 1.346 . S
C107 H114 0.929 . S
C108 O98 1.282 . S
C108 O109 1.216 . S
O109 C108 1.216 . S
H110 C105 0.930 . S
H111 C106 0.930 . S
O112 Cu92 1.959 . S
O112 C99 1.251 . S
H113 C96 0.930 . S
H114 C107 0.929 . S
Cu115 N116 1.999 . S
Cu115 O121 1.974 . S
Cu115 N126 1.985 . S
Cu115 O135 1.959 . S
N116 Cu115 1.999 . S
N116 C118 1.263 . S
N116 C120 1.389 . S
N117 C118 1.358 . S
N117 C119 1.400 . S
C118 N116 1.263 . S
C118 N117 1.358 . S
C118 H124 0.930 . S
C119 N117 1.400 . S
C119 C120 1.351 . S
C119 H136 0.930 . S
C120 N116 1.389 . S
C120 C119 1.351 . S
C120 H125 0.930 . S
O121 Cu115 1.974 . S
O121 C131 1.282 . S
C122 O123 1.261 . S
C122 O135 1.251 . S
O123 C122 1.261 . S
H124 C118 0.930 . S
H125 C120 0.930 . S
N126 Cu115 1.985 . S
N126 C128 1.335 . S
N126 C129 1.390 . S
N127 C128 1.345 . S
N127 C130 1.336 . S
C128 N126 1.335 . S
C128 N127 1.345 . S
C128 H133 0.930 . S
C129 N126 1.390 . S
C129 C130 1.346 . S
C129 H134 0.930 . S
C130 N127 1.336 . S
C130 C129 1.346 . S
C130 H137 0.929 . S
C131 O121 1.282 . S
C131 O132 1.216 . S
O132 C131 1.216 . S
H133 C128 0.930 . S
H134 C129 0.930 . S
O135 Cu115 1.959 . S
O135 C122 1.251 . S
H136 C119 0.930 . S
H137 C130 0.929 . S
Cu138 N139 1.999 . S
Cu138 O144 1.974 . S
Cu138 N149 1.985 . S
Cu138 O158 1.959 . S
N139 Cu138 1.999 . S
N139 C141 1.263 . S
N139 C143 1.389 . S
N140 C141 1.358 . S
N140 C142 1.400 . S
C141 N139 1.263 . S
C141 N140 1.358 . S
C141 H147 0.930 . S
C142 N140 1.400 . S
C142 C143 1.351 . S
C142 H159 0.930 . S
C143 N139 1.389 . S
C143 C142 1.351 . S
C143 H148 0.930 . S
O144 Cu138 1.974 . S
O144 C154 1.282 . S
C145 O146 1.261 . S
C145 O158 1.251 . S
O146 C145 1.261 . S
H147 C141 0.930 . S
H148 C143 0.930 . S
N149 Cu138 1.985 . S
N149 C151 1.335 . S
N149 C152 1.390 . S
N150 C151 1.345 . S
N150 C153 1.336 . S
C151 N149 1.335 . S
C151 N150 1.345 . S
C151 H156 0.930 . S
C152 N149 1.390 . S
C152 C153 1.346 . S
C152 H157 0.930 . S
C153 N150 1.336 . S
C153 C152 1.346 . S
C153 H160 0.929 . S
C154 O144 1.282 . S
C154 O155 1.216 . S
O155 C154 1.216 . S
H156 C151 0.930 . S
H157 C152 0.930 . S
O158 Cu138 1.959 . S
O158 C145 1.251 . S
H159 C142 0.930 . S
H160 C153 0.929 . S
Cu161 N162 1.999 . S
Cu161 O167 1.974 . S
Cu161 N172 1.985 . S
Cu161 O181 1.959 . S
N162 Cu161 1.999 . S
N162 C164 1.263 . S
N162 C166 1.389 . S
N163 C164 1.358 . S
N163 C165 1.400 . S
C164 N162 1.263 . S
C164 N163 1.358 . S
C164 H170 0.930 . S
C165 N163 1.400 . S
C165 C166 1.351 . S
C165 H182 0.930 . S
C166 N162 1.389 . S
C166 C165 1.351 . S
C166 H171 0.930 . S
O167 Cu161 1.974 . S
O167 C177 1.282 . S
C168 O169 1.261 . S
C168 O181 1.251 . S
O169 C168 1.261 . S
H170 C164 0.930 . S
H171 C166 0.930 . S
N172 Cu161 1.985 . S
N172 C174 1.335 . S
N172 C175 1.390 . S
N173 C174 1.345 . S
N173 C176 1.336 . S
C174 N172 1.335 . S
C174 N173 1.345 . S
C174 H179 0.930 . S
C175 N172 1.390 . S
C175 C176 1.346 . S
C175 H180 0.930 . S
C176 N173 1.336 . S
C176 C175 1.346 . S
C176 H183 0.929 . S
C177 O167 1.282 . S
C177 O178 1.216 . S
O178 C177 1.216 . S
H179 C174 0.930 . S
H180 C175 0.930 . S
O181 Cu161 1.959 . S
O181 C168 1.251 . S
H182 C165 0.930 . S
H183 C176 0.929 . S
Cu184 N185 1.999 . S
Cu184 O190 1.974 . S
Cu184 N195 1.985 . S
Cu184 O204 1.959 . S
N185 Cu184 1.999 . S
N185 C187 1.263 . S
N185 C189 1.389 . S
N186 C187 1.358 . S
N186 C188 1.400 . S
C187 N185 1.263 . S
C187 N186 1.358 . S
C187 H193 0.930 . S
C188 N186 1.400 . S
C188 C189 1.351 . S
C188 H205 0.930 . S
C189 N185 1.389 . S
C189 C188 1.351 . S
C189 H194 0.930 . S
O190 Cu184 1.974 . S
O190 C200 1.282 . S
C191 O192 1.261 . S
C191 O204 1.251 . S
O192 C191 1.261 . S
H193 C187 0.930 . S
H194 C189 0.930 . S
N195 Cu184 1.985 . S
N195 C197 1.335 . S
N195 C198 1.390 . S
N196 C197 1.345 . S
N196 C199 1.336 . S
C197 N195 1.335 . S
C197 N196 1.345 . S
C197 H202 0.930 . S
C198 N195 1.390 . S
C198 C199 1.346 . S
C198 H203 0.930 . S
C199 N196 1.336 . S
C199 C198 1.346 . S
C199 H206 0.929 . S
C200 O190 1.282 . S
C200 O201 1.216 . S
O201 C200 1.216 . S
H202 C197 0.930 . S
H203 C198 0.930 . S
O204 Cu184 1.959 . S
O204 C191 1.251 . S
H205 C188 0.930 . S
H206 C199 0.929 . S
Cu207 N208 1.999 . S
Cu207 O213 1.974 . S
Cu207 N218 1.985 . S
Cu207 O227 1.959 . S
N208 Cu207 1.999 . S
N208 C210 1.263 . S
N208 C212 1.389 . S
N209 C210 1.358 . S
N209 C211 1.400 . S
C210 N208 1.263 . S
C210 N209 1.358 . S
C210 H216 0.930 . S
C211 N209 1.400 . S
C211 C212 1.351 . S
C211 H228 0.930 . S
C212 N208 1.389 . S
C212 C211 1.351 . S
C212 H217 0.930 . S
O213 Cu207 1.974 . S
O213 C223 1.282 . S
C214 O215 1.261 . S
C214 O227 1.251 . S
O215 C214 1.261 . S
H216 C210 0.930 . S
H217 C212 0.930 . S
N218 Cu207 1.985 . S
N218 C220 1.335 . S
N218 C221 1.390 . S
N219 C220 1.345 . S
N219 C222 1.336 . S
C220 N218 1.335 . S
C220 N219 1.345 . S
C220 H225 0.930 . S
C221 N218 1.390 . S
C221 C222 1.346 . S
C221 H226 0.930 . S
C222 N219 1.336 . S
C222 C221 1.346 . S
C222 H229 0.929 . S
C223 O213 1.282 . S
C223 O224 1.216 . S
O224 C223 1.216 . S
H225 C220 0.930 . S
H226 C221 0.930 . S
O227 Cu207 1.959 . S
O227 C214 1.251 . S
H228 C211 0.930 . S
H229 C222 0.929 . S
Cu230 N231 1.999 . S
Cu230 O236 1.974 . S
Cu230 N241 1.985 . S
Cu230 O250 1.959 . S
N231 Cu230 1.999 . S
N231 C233 1.263 . S
N231 C235 1.389 . S
N232 C233 1.358 . S
N232 C234 1.400 . S
C233 N231 1.263 . S
C233 N232 1.358 . S
C233 H239 0.930 . S
C234 N232 1.400 . S
C234 C235 1.351 . S
C234 H251 0.930 . S
C235 N231 1.389 . S
C235 C234 1.351 . S
C235 H240 0.930 . S
O236 Cu230 1.974 . S
O236 C246 1.282 . S
C237 O238 1.261 . S
C237 O250 1.251 . S
O238 C237 1.261 . S
H239 C233 0.930 . S
H240 C235 0.930 . S
N241 Cu230 1.985 . S
N241 C243 1.335 . S
N241 C244 1.390 . S
N242 C243 1.345 . S
N242 C245 1.336 . S
C243 N241 1.335 . S
C243 N242 1.345 . S
C243 H248 0.930 . S
C244 N241 1.390 . S
C244 C245 1.346 . S
C244 H249 0.930 . S
C245 N242 1.336 . S
C245 C244 1.346 . S
C245 H252 0.929 . S
C246 O236 1.282 . S
C246 O247 1.216 . S
O247 C246 1.216 . S
H248 C243 0.930 . S
H249 C244 0.930 . S
O250 Cu230 1.959 . S
O250 C237 1.251 . S
H251 C234 0.930 . S
H252 C245 0.929 . S
Cu253 N254 1.999 . S
Cu253 O259 1.974 . S
Cu253 N264 1.985 . S
Cu253 O273 1.959 . S
N254 Cu253 1.999 . S
N254 C256 1.263 . S
N254 C258 1.389 . S
N255 C256 1.358 . S
N255 C257 1.400 . S
C256 N254 1.263 . S
C256 N255 1.358 . S
C256 H262 0.930 . S
C257 N255 1.400 . S
C257 C258 1.351 . S
C257 H274 0.930 . S
C258 N254 1.389 . S
C258 C257 1.351 . S
C258 H263 0.930 . S
O259 Cu253 1.974 . S
O259 C269 1.282 . S
C260 O261 1.261 . S
C260 O273 1.251 . S
O261 C260 1.261 . S
H262 C256 0.930 . S
H263 C258 0.930 . S
N264 Cu253 1.985 . S
N264 C266 1.335 . S
N264 C267 1.390 . S
N265 C266 1.345 . S
N265 C268 1.336 . S
C266 N264 1.335 . S
C266 N265 1.345 . S
C266 H271 0.930 . S
C267 N264 1.390 . S
C267 C268 1.346 . S
C267 H272 0.930 . S
C268 N265 1.336 . S
C268 C267 1.346 . S
C268 H275 0.929 . S
C269 O259 1.282 . S
C269 O270 1.216 . S
O270 C269 1.216 . S
H271 C266 0.930 . S
H272 C267 0.930 . S
O273 Cu253 1.959 . S
O273 C260 1.251 . S
H274 C257 0.930 . S
H275 C268 0.929 . S
Cu276 N277 1.999 . S
Cu276 O282 1.974 . S
Cu276 N287 1.985 . S
Cu276 O296 1.959 . S
N277 Cu276 1.999 . S
N277 C279 1.263 . S
N277 C281 1.389 . S
N278 C279 1.358 . S
N278 C280 1.400 . S
C279 N277 1.263 . S
C279 N278 1.358 . S
C279 H285 0.930 . S
C280 N278 1.400 . S
C280 C281 1.351 . S
C280 H297 0.930 . S
C281 N277 1.389 . S
C281 C280 1.351 . S
C281 H286 0.930 . S
O282 Cu276 1.974 . S
O282 C292 1.282 . S
C283 O284 1.261 1_455 S
C283 O296 1.251 . S
O284 C283 1.261 1_655 S
H285 C279 0.930 . S
H286 C281 0.930 . S
N287 Cu276 1.985 . S
N287 C289 1.335 . S
N287 C290 1.390 . S
N288 C289 1.345 . S
N288 C291 1.336 . S
C289 N287 1.335 . S
C289 N288 1.345 . S
C289 H294 0.930 . S
C290 N287 1.390 . S
C290 C291 1.346 . S
C290 H295 0.930 . S
C291 N288 1.336 . S
C291 C290 1.346 . S
C291 H298 0.929 . S
C292 O282 1.282 . S
C292 O293 1.216 1_455 S
O293 C292 1.216 1_655 S
H294 C289 0.930 . S
H295 C290 0.930 . S
O296 Cu276 1.959 . S
O296 C283 1.251 . S
H297 C280 0.930 . S
H298 C291 0.929 . S
Cu299 N300 1.999 . S
Cu299 O305 1.974 . S
Cu299 N310 1.985 . S
Cu299 O319 1.959 . S
N300 Cu299 1.999 . S
N300 C302 1.263 . S
N300 C304 1.389 . S
N301 C302 1.358 . S
N301 C303 1.400 . S
C302 N300 1.263 . S
C302 N301 1.358 . S
C302 H308 0.930 . S
C303 N301 1.400 . S
C303 C304 1.351 . S
C303 H320 0.930 . S
C304 N300 1.389 . S
C304 C303 1.351 . S
C304 H309 0.930 . S
O305 Cu299 1.974 . S
O305 C315 1.282 . S
C306 O307 1.261 . S
C306 O319 1.251 . S
O307 C306 1.261 . S
H308 C302 0.930 . S
H309 C304 0.930 . S
N310 Cu299 1.985 . S
N310 C312 1.335 . S
N310 C313 1.390 . S
N311 C312 1.345 . S
N311 C314 1.336 . S
C312 N310 1.335 . S
C312 N311 1.345 . S
C312 H317 0.930 . S
C313 N310 1.390 . S
C313 C314 1.346 . S
C313 H318 0.930 . S
C314 N311 1.336 . S
C314 C313 1.346 . S
C314 H321 0.929 . S
C315 O305 1.282 . S
C315 O316 1.216 . S
O316 C315 1.216 . S
H317 C312 0.930 . S
H318 C313 0.930 . S
O319 Cu299 1.959 . S
O319 C306 1.251 . S
H320 C303 0.930 . S
H321 C314 0.929 . S
Cu322 N323 1.999 . S
Cu322 O328 1.974 . S
Cu322 N333 1.985 . S
Cu322 O342 1.959 . S
N323 Cu322 1.999 . S
N323 C325 1.263 1_565 S
N323 C327 1.389 . S
N324 C325 1.358 . S
N324 C326 1.400 1_545 S
C325 N323 1.263 1_545 S
C325 N324 1.358 . S
C325 H331 0.930 . S
C326 N324 1.400 1_565 S
C326 C327 1.351 . S
C326 H343 0.930 . S
C327 N323 1.389 . S
C327 C326 1.351 . S
C327 H332 0.930 . S
O328 Cu322 1.974 . S
O328 C338 1.315 . S
C329 O330 1.261 1_565 S
C329 O342 1.251 . S
O330 C329 1.261 1_545 S
H331 C325 0.930 . S
H332 C327 0.930 . S
N333 Cu322 1.985 . S
N333 C335 1.335 . S
N333 C336 1.390 . S
N334 C335 1.345 . S
N334 C337 1.336 . S
C335 N333 1.335 . S
C335 N334 1.345 . S
C335 H340 0.930 . S
C336 N333 1.390 . S
C336 C337 1.346 . S
C336 H341 0.930 . S
C337 N334 1.336 . S
C337 C336 1.346 . S
C337 H344 0.929 . S
C338 O328 1.315 . S
C338 O339 1.178 1_565 S
O339 C338 1.178 1_545 S
H340 C335 0.930 . S
H341 C336 0.930 . S
O342 Cu322 1.959 . S
O342 C329 1.251 . S
H343 C326 0.930 . S
H344 C337 0.929 . S
Cu345 N346 1.999 . S
Cu345 O351 1.974 . S
Cu345 N356 1.985 . S
Cu345 O365 1.959 . S
N346 Cu345 1.999 . S
N346 C348 1.263 . S
N346 C350 1.389 . S
N347 C348 1.358 . S
N347 C349 1.400 . S
C348 N346 1.263 . S
C348 N347 1.358 . S
C348 H354 0.930 . S
C349 N347 1.400 . S
C349 C350 1.351 . S
C349 H366 0.930 . S
C350 N346 1.389 . S
C350 C349 1.351 . S
C350 H355 0.930 . S
O351 Cu345 1.974 . S
O351 C361 1.282 . S
C352 O353 1.261 . S
C352 O365 1.251 . S
O353 C352 1.261 . S
H354 C348 0.930 . S
H355 C350 0.930 . S
N356 Cu345 1.985 . S
N356 C358 1.335 . S
N356 C359 1.390 . S
N357 C358 1.345 . S
N357 C360 1.336 . S
C358 N356 1.335 . S
C358 N357 1.345 . S
C358 H363 0.930 . S
C359 N356 1.390 . S
C359 C360 1.346 . S
C359 H364 0.930 . S
C360 N357 1.336 . S
C360 C359 1.346 . S
C360 H367 0.929 . S
C361 O351 1.282 . S
C361 O362 1.216 . S
O362 C361 1.216 . S
H363 C358 0.930 . S
H364 C359 0.930 . S
O365 Cu345 1.959 . S
O365 C352 1.251 . S
H366 C349 0.930 . S
H367 C360 0.929 . S
Cu368 N369 1.999 . S
Cu368 O374 1.974 . S
Cu368 N379 1.985 . S
Cu368 O388 1.959 . S
N369 Cu368 1.999 . S
N369 C371 1.263 . S
N369 C373 1.389 . S
N370 C371 1.358 . S
N370 C372 1.400 . S
C371 N369 1.263 . S
C371 N370 1.358 . S
C371 H377 0.930 . S
C372 N370 1.400 . S
C372 C373 1.351 . S
C372 H389 0.930 . S
C373 N369 1.389 . S
C373 C372 1.351 . S
C373 H378 0.930 . S
O374 Cu368 1.974 . S
O374 C384 1.282 . S
C375 O376 1.261 . S
C375 O388 1.251 . S
O376 C375 1.261 . S
H377 C371 0.930 . S
H378 C373 0.930 . S
N379 Cu368 1.985 . S
N379 C381 1.335 . S
N379 C382 1.390 . S
N380 C381 1.345 . S
N380 C383 1.336 . S
C381 N379 1.335 . S
C381 N380 1.345 . S
C381 H386 0.930 . S
C382 N379 1.390 . S
C382 C383 1.346 . S
C382 H387 0.930 . S
C383 N380 1.336 . S
C383 C382 1.346 . S
C383 H390 0.929 . S
C384 O374 1.282 . S
C384 O385 1.216 . S
O385 C384 1.216 . S
H386 C381 0.930 . S
H387 C382 0.930 . S
O388 Cu368 1.959 . S
O388 C375 1.251 . S
H389 C372 0.930 . S
H390 C383 0.929 . S
Cu391 N392 1.999 . S
Cu391 O397 1.974 . S
Cu391 N402 1.985 . S
Cu391 O411 1.959 . S
N392 Cu391 1.999 . S
N392 C394 1.263 . S
N392 C396 1.389 . S
N393 C394 1.358 . S
N393 C395 1.400 . S
C394 N392 1.263 . S
C394 N393 1.358 . S
C394 H400 0.930 . S
C395 N393 1.400 . S
C395 C396 1.351 . S
C395 H412 0.930 . S
C396 N392 1.389 . S
C396 C395 1.351 . S
C396 H401 0.930 . S
O397 Cu391 1.974 . S
O397 C407 1.282 . S
C398 O399 1.261 . S
C398 O411 1.251 . S
O399 C398 1.261 . S
H400 C394 0.930 . S
H401 C396 0.930 . S
N402 Cu391 1.985 . S
N402 C404 1.335 . S
N402 C405 1.390 . S
N403 C404 1.345 . S
N403 C406 1.336 . S
C404 N402 1.335 . S
C404 N403 1.345 . S
C404 H409 0.930 . S
C405 N402 1.390 . S
C405 C406 1.346 . S
C405 H410 0.930 . S
C406 N403 1.336 . S
C406 C405 1.346 . S
C406 H413 0.929 . S
C407 O397 1.282 . S
C407 O408 1.216 . S
O408 C407 1.216 . S
H409 C404 0.930 . S
H410 C405 0.930 . S
O411 Cu391 1.959 . S
O411 C398 1.251 . S
H412 C395 0.930 . S
H413 C406 0.929 . S
Cu414 N415 1.999 . S
Cu414 O420 1.974 . S
Cu414 N425 1.985 . S
Cu414 O434 1.959 . S
N415 Cu414 1.999 . S
N415 C417 1.263 . S
N415 C419 1.389 . S
N416 C417 1.358 . S
N416 C418 1.400 . S
C417 N415 1.263 . S
C417 N416 1.358 . S
C417 H423 0.930 . S
C418 N416 1.400 . S
C418 C419 1.351 . S
C418 H435 0.930 . S
C419 N415 1.389 . S
C419 C418 1.351 . S
C419 H424 0.930 . S
O420 Cu414 1.974 . S
O420 C430 1.282 . S
C421 O422 1.261 . S
C421 O434 1.251 . S
O422 C421 1.261 . S
H423 C417 0.930 . S
H424 C419 0.930 . S
N425 Cu414 1.985 . S
N425 C427 1.335 . S
N425 C428 1.390 . S
N426 C427 1.345 . S
N426 C429 1.336 . S
C427 N425 1.335 . S
C427 N426 1.345 . S
C427 H432 0.930 . S
C428 N425 1.390 . S
C428 C429 1.346 . S
C428 H433 0.930 . S
C429 N426 1.336 . S
C429 C428 1.346 . S
C429 H436 0.929 . S
C430 O420 1.282 . S
C430 O431 1.216 . S
O431 C430 1.216 . S
H432 C427 0.930 . S
H433 C428 0.930 . S
O434 Cu414 1.959 . S
O434 C421 1.251 . S
H435 C418 0.930 . S
H436 C429 0.929 . S
Cu437 N438 1.999 . S
Cu437 O443 1.974 . S
Cu437 N448 1.985 . S
Cu437 O457 1.959 . S
N438 Cu437 1.999 . S
N438 C440 1.263 . S
N438 C442 1.389 . S
N439 C440 1.358 . S
N439 C441 1.400 . S
C440 N438 1.263 . S
C440 N439 1.358 . S
C440 H446 0.930 . S
C441 N439 1.400 . S
C441 C442 1.351 . S
C441 H458 0.930 . S
C442 N438 1.389 . S
C442 C441 1.351 . S
C442 H447 0.930 . S
O443 Cu437 1.974 . S
O443 C453 1.282 . S
C444 O445 1.261 . S
C444 O457 1.251 . S
O445 C444 1.261 . S
H446 C440 0.930 . S
H447 C442 0.930 . S
N448 Cu437 1.985 . S
N448 C450 1.335 . S
N448 C451 1.390 . S
N449 C450 1.345 . S
N449 C452 1.336 . S
C450 N448 1.335 . S
C450 N449 1.345 . S
C450 H455 0.930 . S
C451 N448 1.390 . S
C451 C452 1.346 . S
C451 H456 0.930 . S
C452 N449 1.336 . S
C452 C451 1.346 . S
C452 H459 0.929 . S
C453 O443 1.282 . S
C453 O454 1.216 . S
O454 C453 1.216 . S
H455 C450 0.930 . S
H456 C451 0.930 . S
O457 Cu437 1.959 . S
O457 C444 1.251 . S
H458 C441 0.930 . S
H459 C452 0.929 . S
Cu460 N461 1.999 . S
Cu460 O466 1.974 . S
Cu460 N471 1.985 . S
Cu460 O480 1.959 . S
N461 Cu460 1.999 . S
N461 C463 1.263 . S
N461 C465 1.389 . S
N462 C463 1.358 . S
N462 C464 1.400 . S
C463 N461 1.263 . S
C463 N462 1.358 . S
C463 H469 0.930 . S
C464 N462 1.400 . S
C464 C465 1.351 . S
C464 H481 0.930 . S
C465 N461 1.389 . S
C465 C464 1.351 . S
C465 H470 0.930 . S
O466 Cu460 1.974 . S
O466 C476 1.282 . S
C467 O468 1.261 . S
C467 O480 1.251 . S
O468 C467 1.261 . S
H469 C463 0.930 . S
H470 C465 0.930 . S
N471 Cu460 1.985 . S
N471 C473 1.335 . S
N471 C474 1.390 . S
N472 C473 1.345 . S
N472 C475 1.336 . S
C473 N471 1.335 . S
C473 N472 1.345 . S
C473 H478 0.930 . S
C474 N471 1.390 . S
C474 C475 1.346 . S
C474 H479 0.930 . S
C475 N472 1.336 . S
C475 C474 1.346 . S
C475 H482 0.929 . S
C476 O466 1.282 . S
C476 O477 1.216 . S
O477 C476 1.216 . S
H478 C473 0.930 . S
H479 C474 0.930 . S
O480 Cu460 1.959 . S
O480 C467 1.251 . S
H481 C464 0.930 . S
H482 C475 0.929 . S
Cu483 N484 1.999 1_554 S
Cu483 O489 1.974 1_554 S
Cu483 N494 1.985 . S
Cu483 O503 1.959 . S
N484 Cu483 1.999 1_556 S
N484 C486 1.263 . S
N484 C488 1.389 . S
N485 C486 1.358 . S
N485 C487 1.400 . S
C486 N484 1.263 . S
C486 N485 1.358 . S
C486 H492 0.930 . S
C487 N485 1.400 . S
C487 C488 1.351 . S
C487 H504 0.930 1_565 S
C488 N484 1.389 . S
C488 C487 1.351 . S
C488 H493 0.930 1_565 S
O489 Cu483 1.974 1_556 S
O489 C499 1.282 . S
C490 O491 1.261 . S
C490 O503 1.251 . S
O491 C490 1.261 . S
H492 C486 0.930 . S
H493 C488 0.930 1_545 S
N494 Cu483 1.985 . S
N494 C496 1.335 . S
N494 C497 1.390 . S
N495 C496 1.345 . S
N495 C498 1.336 . S
C496 N494 1.335 . S
C496 N495 1.345 . S
C496 H501 0.930 . S
C497 N494 1.390 . S
C497 C498 1.346 . S
C497 H502 0.930 . S
C498 N495 1.336 . S
C498 C497 1.346 . S
C498 H505 0.929 . S
C499 O489 1.282 . S
C499 O500 1.216 . S
O500 C499 1.216 . S
H501 C496 0.930 . S
H502 C497 0.930 . S
O503 Cu483 1.959 . S
O503 C490 1.251 . S
H504 C487 0.930 1_545 S
H505 C498 0.929 . S
Cu506 N507 1.999 . S
Cu506 O512 1.967 1_556 S
Cu506 N517 1.985 1_556 S
Cu506 O526 1.966 . S
N507 Cu506 1.999 . S
N507 C509 1.246 1_556 S
N507 C511 1.407 . S
N508 C509 1.358 . S
N508 C510 1.400 1_554 S
C509 N507 1.246 1_554 S
C509 N508 1.358 . S
C509 H515 0.937 . S
C510 N508 1.400 1_556 S
C510 C511 1.351 . S
C510 H527 0.930 . S
C511 N507 1.407 . S
C511 C510 1.351 . S
C511 H516 0.930 . S
O512 Cu506 1.967 1_554 S
O512 C522 1.282 . S
C513 O514 1.261 1_455 S
C513 O526 1.251 . S
O514 C513 1.261 1_655 S
H515 C509 0.937 . S
H516 C511 0.930 . S
N517 Cu506 1.985 1_554 S
N517 C519 1.335 1_554 S
N517 C520 1.390 . S
N518 C519 1.345 . S
N518 C521 1.336 1_556 S
C519 N517 1.335 1_556 S
C519 N518 1.345 . S
C519 H524 0.930 . S
C520 N517 1.390 . S
C520 C521 1.346 . S
C520 H525 0.930 . S
C521 N518 1.336 1_554 S
C521 C520 1.346 . S
C521 H528 0.929 . S
C522 O512 1.282 . S
C522 O523 1.216 1_455 S
O523 C522 1.216 1_655 S
H524 C519 0.930 . S
H525 C520 0.930 . S
O526 Cu506 1.966 . S
O526 C513 1.251 . S
H527 C510 0.930 . S
H528 C521 0.929 . S
Cu529 N530 1.999 . S
Cu529 O535 1.966 1_556 S
Cu529 N540 1.985 1_556 S
Cu529 O549 1.967 . S
N530 Cu529 1.999 . S
N530 C532 1.248 1_556 S
N530 C534 1.405 . S
N531 C532 1.358 . S
N531 C533 1.400 1_554 S
C532 N530 1.248 1_554 S
C532 N531 1.358 . S
C532 H538 0.930 . S
C533 N531 1.400 1_556 S
C533 C534 1.351 . S
C533 H550 0.930 . S
C534 N530 1.405 . S
C534 C533 1.351 . S
C534 H539 0.930 . S
O535 Cu529 1.966 1_554 S
O535 C545 1.282 . S
C536 O537 1.261 . S
C536 O549 1.251 . S
O537 C536 1.261 . S
H538 C532 0.930 . S
H539 C534 0.930 . S
N540 Cu529 1.985 1_554 S
N540 C542 1.335 1_554 S
N540 C543 1.390 . S
N541 C542 1.345 . S
N541 C544 1.336 1_556 S
C542 N540 1.335 1_556 S
C542 N541 1.345 . S
C542 H547 0.930 . S
C543 N540 1.390 . S
C543 C544 1.346 . S
C543 H548 0.930 . S
C544 N541 1.336 1_554 S
C544 C543 1.346 . S
C544 H551 0.929 . S
C545 O535 1.282 . S
C545 O546 1.216 . S
O546 C545 1.216 . S
H547 C542 0.930 . S
H548 C543 0.930 . S
O549 Cu529 1.967 . S
O549 C536 1.251 . S
H550 C533 0.930 . S
H551 C544 0.929 . S
Cu552 N553 1.999 . S
Cu552 O558 1.974 . S
Cu552 N563 1.985 . S
Cu552 O572 1.959 . S
N553 Cu552 1.999 . S
N553 C555 1.263 . S
N553 C557 1.389 . S
N554 C555 1.358 . S
N554 C556 1.400 . S
C555 N553 1.263 . S
C555 N554 1.358 . S
C555 H561 0.930 . S
C556 N554 1.400 . S
C556 C557 1.351 . S
C556 H573 0.930 . S
C557 N553 1.389 . S
C557 C556 1.351 . S
C557 H562 0.930 . S
O558 Cu552 1.974 . S
O558 C568 1.282 . S
C559 O560 1.261 . S
C559 O572 1.251 . S
O560 C559 1.261 . S
H561 C555 0.930 . S
H562 C557 0.930 . S
N563 Cu552 1.985 . S
N563 C565 1.335 . S
N563 C566 1.390 . S
N564 C565 1.345 . S
N564 C567 1.336 . S
C565 N563 1.335 . S
C565 N564 1.345 . S
C565 H570 0.930 . S
C566 N563 1.390 . S
C566 C567 1.346 . S
C566 H571 0.930 . S
C567 N564 1.336 . S
C567 C566 1.346 . S
C567 H574 0.929 . S
C568 O558 1.282 . S
C568 O569 1.216 . S
O569 C568 1.216 . S
H570 C565 0.930 . S
H571 C566 0.930 . S
O572 Cu552 1.959 . S
O572 C559 1.251 . S
H573 C556 0.930 . S
H574 C567 0.929 . S
Cu575 N576 1.999 . S
Cu575 O581 1.974 . S
Cu575 N586 1.985 . S
Cu575 O595 1.959 . S
N576 Cu575 1.999 . S
N576 C578 1.263 . S
N576 C580 1.389 . S
N577 C578 1.358 . S
N577 C579 1.400 . S
C578 N576 1.263 . S
C578 N577 1.358 . S
C578 H584 0.930 . S
C579 N577 1.400 . S
C579 C580 1.351 . S
C579 H596 0.930 . S
C580 N576 1.389 . S
C580 C579 1.351 . S
C580 H585 0.930 . S
O581 Cu575 1.974 . S
O581 C591 1.282 . S
C582 O583 1.261 . S
C582 O595 1.251 . S
O583 C582 1.261 . S
H584 C578 0.930 . S
H585 C580 0.930 . S
N586 Cu575 1.985 . S
N586 C588 1.335 . S
N586 C589 1.390 . S
N587 C588 1.345 . S
N587 C590 1.336 . S
C588 N586 1.335 . S
C588 N587 1.345 . S
C588 H593 0.930 . S
C589 N586 1.390 . S
C589 C590 1.346 . S
C589 H594 0.930 . S
C590 N587 1.336 . S
C590 C589 1.346 . S
C590 H597 0.929 . S
C591 O581 1.282 . S
C591 O592 1.216 . S
O592 C591 1.216 . S
H593 C588 0.930 . S
H594 C589 0.930 . S
O595 Cu575 1.959 . S
O595 C582 1.251 . S
H596 C579 0.930 . S
H597 C590 0.929 . S
Cu598 N599 1.999 . S
Cu598 O604 1.974 . S
Cu598 N609 1.985 . S
Cu598 O618 1.959 . S
N599 Cu598 1.999 . S
N599 C601 1.263 . S
N599 C603 1.389 . S
N600 C601 1.358 . S
N600 C602 1.400 . S
C601 N599 1.263 . S
C601 N600 1.358 . S
C601 H607 0.930 . S
C602 N600 1.400 . S
C602 C603 1.351 . S
C602 H619 0.930 . S
C603 N599 1.389 . S
C603 C602 1.351 . S
C603 H608 0.930 . S
O604 Cu598 1.974 . S
O604 C614 1.282 . S
C605 O606 1.261 . S
C605 O618 1.251 . S
O606 C605 1.261 . S
H607 C601 0.930 . S
H608 C603 0.930 . S
N609 Cu598 1.985 . S
N609 C611 1.335 . S
N609 C612 1.390 . S
N610 C611 1.345 . S
N610 C613 1.336 . S
C611 N609 1.335 . S
C611 N610 1.345 . S
C611 H616 0.930 . S
C612 N609 1.390 . S
C612 C613 1.346 . S
C612 H617 0.930 . S
C613 N610 1.336 . S
C613 C612 1.346 . S
C613 H620 0.929 . S
C614 O604 1.282 . S
C614 O615 1.216 . S
O615 C614 1.216 . S
H616 C611 0.930 . S
H617 C612 0.930 . S
O618 Cu598 1.959 . S
O618 C605 1.251 . S
H619 C602 0.930 . S
H620 C613 0.929 . S
Cu621 N622 2.070 . S
Cu621 O627 1.970 1_554 S
Cu621 N632 1.985 1_554 S
Cu621 O641 1.963 . S
N622 Cu621 2.070 . S
N622 C624 1.179 1_544 S
N622 C626 1.397 . S
N623 C624 1.358 . S
N623 C625 1.404 1_556 S
C624 N622 1.179 1_566 S
C624 N623 1.358 . S
C624 H630 0.930 . S
C625 N623 1.404 1_554 S
C625 C626 1.343 1_565 S
C625 H642 0.933 1_565 S
C626 N622 1.397 . S
C626 C625 1.343 1_545 S
C626 H631 0.930 . S
O627 Cu621 1.970 1_556 S
O627 C637 1.282 1_545 S
C628 O629 1.261 . S
C628 O641 1.251 1_565 S
O629 C628 1.261 . S
H630 C624 0.930 . S
H631 C626 0.930 . S
N632 Cu621 1.985 1_556 S
N632 C634 1.335 1_556 S
N632 C635 1.390 . S
N633 C634 1.345 . S
N633 C636 1.336 1_554 S
C634 N632 1.335 1_554 S
C634 N633 1.345 . S
C634 H639 0.930 . S
C635 N632 1.390 . S
C635 C636 1.346 . S
C635 H640 0.930 . S
C636 N633 1.336 1_556 S
C636 C635 1.346 . S
C636 H643 0.929 . S
C637 O627 1.282 1_565 S
C637 O638 1.216 . S
O638 C637 1.216 . S
H639 C634 0.930 . S
H640 C635 0.930 . S
O641 Cu621 1.963 . S
O641 C628 1.251 1_545 S
H642 C625 0.933 1_545 S
H643 C636 0.929 . S
Cu644 N645 1.999 . S
Cu644 O650 1.967 1_554 S
Cu644 N655 1.985 1_554 S
Cu644 O664 1.966 . S
N645 Cu644 1.999 . S
N645 C647 1.246 1_654 S
N645 C649 1.408 . S
N646 C647 1.358 . S
N646 C648 1.400 1_456 S
C647 N645 1.246 1_456 S
C647 N646 1.358 . S
C647 H653 0.930 . S
C648 N646 1.400 1_654 S
C648 C649 1.351 . S
C648 H665 0.930 . S
C649 N645 1.408 . S
C649 C648 1.351 . S
C649 H654 0.930 . S
O650 Cu644 1.967 1_556 S
O650 C660 1.282 1_655 S
C651 O652 1.261 . S
C651 O664 1.251 1_455 S
O652 C651 1.261 . S
H653 C647 0.930 . S
H654 C649 0.930 . S
N655 Cu644 1.985 1_556 S
N655 C657 1.335 1_556 S
N655 C658 1.390 . S
N656 C657 1.345 . S
N656 C659 1.336 1_554 S
C657 N655 1.335 1_554 S
C657 N656 1.345 . S
C657 H662 0.930 . S
C658 N655 1.390 . S
C658 C659 1.346 . S
C658 H663 0.930 . S
C659 N656 1.336 1_556 S
C659 C658 1.346 . S
C659 H666 0.929 . S
C660 O650 1.282 1_455 S
C660 O661 1.216 . S
O661 C660 1.216 . S
H662 C657 0.930 . S
H663 C658 0.930 . S
O664 Cu644 1.966 . S
O664 C651 1.251 1_655 S
H665 C648 0.930 . S
H666 C659 0.929 . S
Cu667 N668 1.999 . S
Cu667 O673 1.967 1_554 S
Cu667 N678 1.985 1_554 S
Cu667 O687 1.965 . S
N668 Cu667 1.999 . S
N668 C670 1.263 1_554 S
N668 C672 1.389 . S
N669 C670 1.358 . S
N669 C671 1.400 1_556 S
C670 N668 1.263 1_556 S
C670 N669 1.358 . S
C670 H676 0.930 . S
C671 N669 1.400 1_554 S
C671 C672 1.351 . S
C671 H688 0.930 . S
C672 N668 1.389 . S
C672 C671 1.351 . S
C672 H677 0.930 . S
O673 Cu667 1.967 1_556 S
O673 C683 1.282 . S
C674 O675 1.261 . S
C674 O687 1.251 . S
O675 C674 1.261 . S
H676 C670 0.930 . S
H677 C672 0.930 . S
N678 Cu667 1.985 1_556 S
N678 C680 1.335 1_556 S
N678 C681 1.390 . S
N679 C680 1.345 . S
N679 C682 1.336 1_554 S
C680 N678 1.335 1_554 S
C680 N679 1.345 . S
C680 H685 0.930 . S
C681 N678 1.390 . S
C681 C682 1.346 . S
C681 H686 0.930 . S
C682 N679 1.336 1_556 S
C682 C681 1.346 . S
C682 H689 0.929 . S
C683 O673 1.282 . S
C683 O684 1.216 . S
O684 C683 1.216 . S
H685 C680 0.930 . S
H686 C681 0.930 . S
O687 Cu667 1.965 . S
O687 C674 1.251 . S
H688 C671 0.930 . S
H689 C682 0.929 . S
Cu690 N691 1.999 . S
Cu690 O696 1.974 . S
Cu690 N701 1.985 . S
Cu690 O710 1.959 . S
N691 Cu690 1.999 . S
N691 C693 1.263 1_655 S
N691 C695 1.389 . S
N692 C693 1.358 . S
N692 C694 1.400 1_455 S
C693 N691 1.263 1_455 S
C693 N692 1.358 . S
C693 H699 0.930 . S
C694 N692 1.400 1_655 S
C694 C695 1.351 . S
C694 H711 0.930 . S
C695 N691 1.389 . S
C695 C694 1.351 . S
C695 H700 0.930 . S
O696 Cu690 1.974 . S
O696 C706 1.282 1_655 S
C697 O698 1.310 . S
C697 O710 1.211 1_455 S
O698 C697 1.310 . S
H699 C693 0.930 . S
H700 C695 0.930 . S
N701 Cu690 1.985 . S
N701 C703 1.335 . S
N701 C704 1.390 . S
N702 C703 1.345 . S
N702 C705 1.336 . S
C703 N701 1.335 . S
C703 N702 1.345 . S
C703 H708 0.930 . S
C704 N701 1.390 . S
C704 C705 1.346 . S
C704 H709 0.930 . S
C705 N702 1.336 . S
C705 C704 1.346 . S
C705 H712 0.929 . S
C706 O696 1.282 1_455 S
C706 O707 1.216 . S
O707 C706 1.216 . S
H708 C703 0.930 . S
H709 C704 0.930 . S
O710 Cu690 1.959 . S
O710 C697 1.211 1_655 S
H711 C694 0.930 . S
H712 C705 0.929 . S
Cu713 N714 1.999 . S
Cu713 O719 1.974 . S
Cu713 N724 1.985 . S
Cu713 O733 1.959 . S
N714 Cu713 1.999 . S
N714 C716 1.263 . S
N714 C718 1.389 . S
N715 C716 1.358 . S
N715 C717 1.400 . S
C716 N714 1.263 . S
C716 N715 1.358 . S
C716 H722 0.930 . S
C717 N715 1.400 . S
C717 C718 1.351 . S
C717 H734 0.930 . S
C718 N714 1.389 . S
C718 C717 1.351 . S
C718 H723 0.930 . S
O719 Cu713 1.974 . S
O719 C729 1.282 . S
C720 O721 1.261 . S
C720 O733 1.251 . S
O721 C720 1.261 . S
H722 C716 0.930 . S
H723 C718 0.930 . S
N724 Cu713 1.985 . S
N724 C726 1.335 . S
N724 C727 1.390 . S
N725 C726 1.345 . S
N725 C728 1.336 . S
C726 N724 1.335 . S
C726 N725 1.345 . S
C726 H731 0.930 . S
C727 N724 1.390 . S
C727 C728 1.346 . S
C727 H732 0.930 . S
C728 N725 1.336 . S
C728 C727 1.346 . S
C728 H735 0.929 . S
C729 O719 1.282 . S
C729 O730 1.216 . S
O730 C729 1.216 . S
H731 C726 0.930 . S
H732 C727 0.930 . S
O733 Cu713 1.959 . S
O733 C720 1.251 . S
H734 C717 0.930 . S
H735 C728 0.929 . S
Cu736 N737 1.999 . S
Cu736 O742 1.974 . S
Cu736 N747 1.985 . S
Cu736 O756 1.970 1_545 S
N737 Cu736 1.999 . S
N737 C739 1.263 . S
N737 C741 1.389 1_545 S
N738 C739 1.358 . S
N738 C740 1.400 1_545 S
C739 N737 1.263 . S
C739 N738 1.358 . S
C739 H745 0.930 . S
C740 N738 1.400 1_565 S
C740 C741 1.351 . S
C740 H757 0.930 . S
C741 N737 1.389 1_565 S
C741 C740 1.351 . S
C741 H746 0.930 . S
O742 Cu736 1.974 . S
O742 C752 1.282 . S
C743 O744 1.261 . S
C743 O756 1.193 1_545 S
O744 C743 1.261 . S
H745 C739 0.930 . S
H746 C741 0.930 . S
N747 Cu736 1.985 . S
N747 C749 1.335 . S
N747 C750 1.390 . S
N748 C749 1.345 . S
N748 C751 1.336 . S
C749 N747 1.335 . S
C749 N748 1.345 . S
C749 H754 0.930 1_545 S
C750 N747 1.390 . S
C750 C751 1.346 . S
C750 H755 0.930 . S
C751 N748 1.336 . S
C751 C750 1.346 . S
C751 H758 0.929 . S
C752 O742 1.282 . S
C752 O753 1.216 . S
O753 C752 1.216 . S
H754 C749 0.930 1_565 S
H755 C750 0.930 . S
O756 Cu736 1.970 1_565 S
O756 C743 1.193 1_565 S
H757 C740 0.930 . S
H758 C751 0.929 . S
Cu759 N760 1.999 . S
Cu759 O765 1.974 . S
Cu759 N770 1.985 . S
Cu759 O779 1.959 . S
N760 Cu759 1.999 . S
N760 C762 1.263 . S
N760 C764 1.389 . S
N761 C762 1.358 . S
N761 C763 1.400 . S
C762 N760 1.263 . S
C762 N761 1.358 . S
C762 H768 0.930 . S
C763 N761 1.400 . S
C763 C764 1.351 . S
C763 H780 0.930 . S
C764 N760 1.389 . S
C764 C763 1.351 . S
C764 H769 0.930 . S
O765 Cu759 1.974 . S
O765 C775 1.282 . S
C766 O767 1.261 . S
C766 O779 1.251 . S
O767 C766 1.261 . S
H768 C762 0.930 . S
H769 C764 0.930 . S
N770 Cu759 1.985 . S
N770 C772 1.335 . S
N770 C773 1.390 . S
N771 C772 1.345 . S
N771 C774 1.336 . S
C772 N770 1.335 . S
C772 N771 1.345 . S
C772 H777 0.930 . S
C773 N770 1.390 . S
C773 C774 1.346 . S
C773 H778 0.930 . S
C774 N771 1.336 . S
C774 C773 1.346 . S
C774 H781 0.929 . S
C775 O765 1.282 . S
C775 O776 1.216 . S
O776 C775 1.216 . S
H777 C772 0.930 . S
H778 C773 0.930 . S
O779 Cu759 1.959 . S
O779 C766 1.251 . S
H780 C763 0.930 . S
H781 C774 0.929 . S
Cu782 N783 1.999 . S
Cu782 O788 1.974 . S
Cu782 N793 1.985 . S
Cu782 O802 1.959 . S
N783 Cu782 1.999 . S
N783 C785 1.263 . S
N783 C787 1.389 . S
N784 C785 1.358 . S
N784 C786 1.400 . S
C785 N783 1.263 . S
C785 N784 1.358 . S
C785 H791 0.930 . S
C786 N784 1.400 . S
C786 C787 1.351 . S
C786 H803 0.930 . S
C787 N783 1.389 . S
C787 C786 1.351 . S
C787 H792 0.930 . S
O788 Cu782 1.974 . S
O788 C798 1.282 . S
C789 O790 1.261 . S
C789 O802 1.251 . S
O790 C789 1.261 . S
H791 C785 0.930 . S
H792 C787 0.930 . S
N793 Cu782 1.985 . S
N793 C795 1.335 . S
N793 C796 1.390 . S
N794 C795 1.345 . S
N794 C797 1.336 . S
C795 N793 1.335 . S
C795 N794 1.345 . S
C795 H800 0.930 . S
C796 N793 1.390 . S
C796 C797 1.346 . S
C796 H801 0.930 . S
C797 N794 1.336 . S
C797 C796 1.346 . S
C797 H804 0.929 . S
C798 O788 1.282 . S
C798 O799 1.216 . S
O799 C798 1.216 . S
H800 C795 0.930 . S
H801 C796 0.930 . S
O802 Cu782 1.959 . S
O802 C789 1.251 . S
H803 C786 0.930 . S
H804 C797 0.929 . S
Cu805 N806 1.999 . S
Cu805 O811 1.974 . S
Cu805 N816 1.985 . S
Cu805 O825 1.959 . S
N806 Cu805 1.999 . S
N806 C808 1.263 . S
N806 C810 1.389 . S
N807 C808 1.358 . S
N807 C809 1.400 . S
C808 N806 1.263 . S
C808 N807 1.358 . S
C808 H814 0.930 . S
C809 N807 1.400 . S
C809 C810 1.351 . S
C809 H826 0.930 . S
C810 N806 1.389 . S
C810 C809 1.351 . S
C810 H815 0.930 . S
O811 Cu805 1.974 . S
O811 C821 1.282 . S
C812 O813 1.261 . S
C812 O825 1.251 . S
O813 C812 1.261 . S
H814 C808 0.930 . S
H815 C810 0.930 . S
N816 Cu805 1.985 . S
N816 C818 1.335 . S
N816 C819 1.390 . S
N817 C818 1.345 . S
N817 C820 1.336 . S
C818 N816 1.335 . S
C818 N817 1.345 . S
C818 H823 0.930 . S
C819 N816 1.390 . S
C819 C820 1.346 . S
C819 H824 0.930 . S
C820 N817 1.336 . S
C820 C819 1.346 . S
C820 H827 0.929 . S
C821 O811 1.282 . S
C821 O822 1.216 . S
O822 C821 1.216 . S
H823 C818 0.930 . S
H824 C819 0.930 . S
O825 Cu805 1.959 . S
O825 C812 1.251 . S
H826 C809 0.930 . S
H827 C820 0.929 . S
H828 C834 0.930 . S
H829 C838 0.930 . S
H830 C843 0.929 . S
H831 C841 0.929 . S
H832 C836 0.929 . S
H833 C842 0.929 . S
C834 H828 0.930 . S
C834 C835 1.367 . S
C834 C842 1.378 . S
C835 C834 1.367 . S
C835 C843 1.433 . S
C836 H832 0.929 . S
C836 C838 1.378 . S
C836 C840 1.350 . S
C837 C840 1.463 . S
C837 C842 1.350 . S
C837 N845 1.427 . S
C838 H829 0.930 . S
C838 C836 1.378 . S
C838 C839 1.367 . S
C839 C838 1.367 . S
C839 C841 1.433 . S
C840 C836 1.350 . S
C840 C837 1.463 . S
C840 N844 1.427 . S
C841 H831 0.929 . S
C841 C839 1.433 . S
C841 N844 1.384 . S
C842 H833 0.929 . S
C842 C834 1.378 . S
C842 C837 1.350 . S
C843 H830 0.929 . S
C843 C835 1.433 . S
C843 N845 1.384 . S
N844 C840 1.427 . S
N844 C841 1.384 . S
N845 C837 1.427 . S
N845 C843 1.384 . S
H846 C852 0.930 . S
H847 C856 0.930 . S
H848 C861 0.929 . S
H849 C859 0.929 . S
H850 C854 0.929 . S
H851 C860 0.929 . S
C852 H846 0.930 . S
C852 C853 1.367 . S
C852 C860 1.378 . S
C853 C852 1.367 . S
C853 C861 1.433 . S
C854 H850 0.929 . S
C854 C856 1.378 . S
C854 C858 1.350 . S
C855 C858 1.463 . S
C855 C860 1.350 . S
C855 N863 1.427 . S
C856 H847 0.930 . S
C856 C854 1.378 . S
C856 C857 1.367 . S
C857 C856 1.367 . S
C857 C859 1.433 . S
C858 C854 1.350 . S
C858 C855 1.463 . S
C858 N862 1.427 . S
C859 H849 0.929 . S
C859 C857 1.433 . S
C859 N862 1.384 . S
C860 H851 0.929 . S
C860 C852 1.378 . S
C860 C855 1.350 . S
C861 H848 0.929 . S
C861 C853 1.433 . S
C861 N863 1.384 . S
N862 C858 1.427 . S
N862 C859 1.384 . S
N863 C855 1.427 . S
N863 C861 1.384 . S
H864 C870 0.930 . S
H865 C874 0.930 . S
H866 C879 0.929 . S
H867 C877 0.929 . S
H868 C872 0.929 . S
H869 C878 0.929 . S
C870 H864 0.930 . S
C870 C871 1.367 . S
C870 C878 1.378 . S
C871 C870 1.367 . S
C871 C879 1.433 . S
C872 H868 0.929 . S
C872 C874 1.378 . S
C872 C876 1.350 . S
C873 C876 1.463 . S
C873 C878 1.350 . S
C873 N881 1.427 . S
C874 H865 0.930 . S
C874 C872 1.378 . S
C874 C875 1.367 . S
C875 C874 1.367 . S
C875 C877 1.433 . S
C876 C872 1.350 . S
C876 C873 1.463 . S
C876 N880 1.427 . S
C877 H867 0.929 . S
C877 C875 1.433 . S
C877 N880 1.384 . S
C878 H869 0.929 . S
C878 C870 1.378 . S
C878 C873 1.350 . S
C879 H866 0.929 . S
C879 C871 1.433 . S
C879 N881 1.384 . S
N880 C876 1.427 . S
N880 C877 1.384 . S
N881 C873 1.427 . S
N881 C879 1.384 . S
H882 C888 0.930 . S
H883 C892 0.930 . S
H884 C897 0.929 . S
H885 C895 0.929 . S
H886 C890 0.929 . S
H887 C896 0.929 . S
C888 H882 0.930 . S
C888 C889 1.367 . S
C888 C896 1.378 1_556 S
C889 C888 1.367 . S
C889 C897 1.433 . S
C890 H886 0.929 . S
C890 C892 1.378 . S
C890 C894 1.350 . S
C891 C894 1.463 . S
C891 C896 1.350 . S
C891 N899 1.427 . S
C892 H883 0.930 . S
C892 C890 1.378 . S
C892 C893 1.367 . S
C893 C892 1.367 . S
C893 C895 1.433 . S
C894 C890 1.350 . S
C894 C891 1.463 . S
C894 N898 1.427 . S
C895 H885 0.929 . S
C895 C893 1.433 . S
C895 N898 1.384 . S
C896 H887 0.929 . S
C896 C888 1.378 1_554 S
C896 C891 1.350 . S
C897 H884 0.929 . S
C897 C889 1.433 . S
C897 N899 1.384 1_556 S
N898 C894 1.427 . S
N898 C895 1.384 . S
N899 C891 1.427 . S
N899 C897 1.384 1_554 S
H900 C906 0.930 . S
H901 C910 0.930 . S
H902 C915 0.929 . S
H903 C913 0.929 . S
H904 C908 0.929 . S
H905 C914 0.929 . S
C906 H900 0.930 . S
C906 C907 1.367 . S
C906 C914 1.378 . S
C907 C906 1.367 . S
C907 C915 1.433 . S
C908 H904 0.929 . S
C908 C910 1.378 1_554 S
C908 C912 1.350 . S
C909 C912 1.463 . S
C909 C914 1.350 . S
C909 N917 1.427 . S
C910 H901 0.930 . S
C910 C908 1.378 1_556 S
C910 C911 1.367 . S
C911 C910 1.367 . S
C911 C913 1.433 . S
C912 C908 1.350 . S
C912 C909 1.463 . S
C912 N916 1.427 . S
C913 H903 0.929 . S
C913 C911 1.433 . S
C913 N916 1.384 1_556 S
C914 H905 0.929 . S
C914 C906 1.378 . S
C914 C909 1.350 . S
C915 H902 0.929 . S
C915 C907 1.433 . S
C915 N917 1.384 . S
N916 C912 1.427 . S
N916 C913 1.384 1_554 S
N917 C909 1.427 . S
N917 C915 1.384 . S
H918 C924 0.930 . S
H919 C928 0.930 . S
H920 C933 0.929 . S
H921 C931 0.929 . S
H922 C926 0.929 . S
H923 C932 0.929 . S
C924 H918 0.930 . S
C924 C925 1.367 . S
C924 C932 1.378 . S
C925 C924 1.367 . S
C925 C933 1.433 . S
C926 H922 0.929 . S
C926 C928 1.378 1_554 S
C926 C930 1.350 . S
C927 C930 1.463 . S
C927 C932 1.350 . S
C927 N935 1.427 . S
C928 H919 0.930 . S
C928 C926 1.378 1_556 S
C928 C929 1.367 . S
C929 C928 1.367 . S
C929 C931 1.433 . S
C930 C926 1.350 . S
C930 C927 1.463 . S
C930 N934 1.427 . S
C931 H921 0.929 . S
C931 C929 1.433 . S
C931 N934 1.384 1_556 S
C932 H923 0.929 . S
C932 C924 1.378 . S
C932 C927 1.350 . S
C933 H920 0.929 . S
C933 C925 1.433 . S
C933 N935 1.384 . S
N934 C930 1.427 . S
N934 C931 1.384 1_554 S
N935 C927 1.427 . S
N935 C933 1.384 . S
H936 C942 0.930 . S
H937 C946 0.930 . S
H938 C951 0.929 . S
H939 C949 0.929 . S
H940 C944 0.929 . S
H941 C950 0.929 . S
C942 H936 0.930 . S
C942 C943 1.367 . S
C942 C950 1.378 . S
C943 C942 1.367 . S
C943 C951 1.433 . S
C944 H940 0.929 . S
C944 C946 1.378 . S
C944 C948 1.350 . S
C945 C948 1.463 . S
C945 C950 1.350 . S
C945 N953 1.427 . S
C946 H937 0.930 . S
C946 C944 1.378 . S
C946 C947 1.367 . S
C947 C946 1.367 . S
C947 C949 1.433 . S
C948 C944 1.350 . S
C948 C945 1.463 . S
C948 N952 1.427 . S
C949 H939 0.929 . S
C949 C947 1.433 . S
C949 N952 1.384 . S
C950 H941 0.929 . S
C950 C942 1.378 . S
C950 C945 1.350 . S
C951 H938 0.929 . S
C951 C943 1.433 . S
C951 N953 1.384 . S
N952 C948 1.427 . S
N952 C949 1.384 . S
N953 C945 1.427 . S
N953 C951 1.384 . S
H954 C960 0.930 . S
H955 C964 0.930 . S
H956 C969 0.929 . S
H957 C967 0.929 . S
H958 C962 0.929 . S
H959 C968 0.929 . S
C960 H954 0.930 . S
C960 C961 1.367 . S
C960 C968 1.378 . S
C961 C960 1.367 . S
C961 C969 1.433 . S
C962 H958 0.929 . S
C962 C964 1.378 . S
C962 C966 1.350 . S
C963 C966 1.463 . S
C963 C968 1.350 . S
C963 N971 1.427 . S
C964 H955 0.930 . S
C964 C962 1.378 . S
C964 C965 1.367 . S
C965 C964 1.367 . S
C965 C967 1.433 . S
C966 C962 1.350 . S
C966 C963 1.463 . S
C966 N970 1.427 . S
C967 H957 0.929 . S
C967 C965 1.433 . S
C967 N970 1.384 . S
C968 H959 0.929 . S
C968 C960 1.378 . S
C968 C963 1.350 . S
C969 H956 0.929 . S
C969 C961 1.433 . S
C969 N971 1.384 . S
N970 C966 1.427 . S
N970 C967 1.384 . S
N971 C963 1.427 . S
N971 C969 1.384 . S
H972 C978 0.930 . S
H973 C982 0.930 . S
H974 C987 0.929 . S
H975 C985 0.929 . S
H976 C980 0.929 . S
H977 C986 0.929 . S
C978 H972 0.930 . S
C978 C979 1.367 . S
C978 C986 1.378 . S
C979 C978 1.367 . S
C979 C987 1.433 . S
C980 H976 0.929 . S
C980 C982 1.378 . S
C980 C984 1.350 . S
C981 C984 1.463 . S
C981 C986 1.350 . S
C981 N989 1.427 . S
C982 H973 0.930 . S
C982 C980 1.378 . S
C982 C983 1.367 . S
C983 C982 1.367 . S
C983 C985 1.433 . S
C984 C980 1.350 . S
C984 C981 1.463 . S
C984 N988 1.427 . S
C985 H975 0.929 . S
C985 C983 1.433 . S
C985 N988 1.384 . S
C986 H977 0.929 . S
C986 C978 1.378 . S
C986 C981 1.350 . S
C987 H974 0.929 . S
C987 C979 1.433 . S
C987 N989 1.384 . S
N988 C984 1.427 . S
N988 C985 1.384 . S
N989 C981 1.427 . S
N989 C987 1.384 . S
H990 C996 0.930 . S
H991 C1000 0.937 . S
H992 C1005 0.929 . S
H993 C1003 0.929 . S
H994 C998 0.929 . S
H995 C1004 0.929 . S
C996 H990 0.930 . S
C996 C997 1.367 . S
C996 C1004 1.378 . S
C997 C996 1.367 . S
C997 C1005 1.433 . S
C998 H994 0.929 . S
C998 C1000 1.364 1_556 S
C998 C1002 1.350 . S
C999 C1002 1.463 . S
C999 C1004 1.350 . S
C999 N1007 1.427 . S
C1000 H991 0.937 . S
C1000 C998 1.364 1_554 S
C1000 C1001 1.374 . S
C1001 C1000 1.374 . S
C1001 C1003 1.433 . S
C1002 C998 1.350 . S
C1002 C999 1.463 . S
C1002 N1006 1.427 . S
C1003 H993 0.929 . S
C1003 C1001 1.433 . S
C1003 N1006 1.384 1_554 S
C1004 H995 0.929 . S
C1004 C996 1.378 . S
C1004 C999 1.350 . S
C1005 H992 0.929 . S
C1005 C997 1.433 . S
C1005 N1007 1.384 . S
N1006 C1002 1.427 . S
N1006 C1003 1.384 1_556 S
N1007 C999 1.427 . S
N1007 C1005 1.384 . S
H1008 C1014 0.930 . S
H1009 C1018 0.930 . S
H1010 C1023 0.929 . S
H1011 C1021 0.929 . S
H1012 C1016 0.929 . S
H1013 C1022 0.929 . S
C1014 H1008 0.930 . S
C1014 C1015 1.367 . S
C1014 C1022 1.378 1_554 S
C1015 C1014 1.367 . S
C1015 C1023 1.433 . S
C1016 H1012 0.929 . S
C1016 C1018 1.378 . S
C1016 C1020 1.350 . S
C1017 C1020 1.463 . S
C1017 C1022 1.350 . S
C1017 N1025 1.427 . S
C1018 H1009 0.930 . S
C1018 C1016 1.378 . S
C1018 C1019 1.367 . S
C1019 C1018 1.367 . S
C1019 C1021 1.433 . S
C1020 C1016 1.350 . S
C1020 C1017 1.463 . S
C1020 N1024 1.427 . S
C1021 H1011 0.929 . S
C1021 C1019 1.433 . S
C1021 N1024 1.384 . S
C1022 H1013 0.929 . S
C1022 C1014 1.378 1_556 S
C1022 C1017 1.350 . S
C1023 H1010 0.929 . S
C1023 C1015 1.433 . S
C1023 N1025 1.384 1_554 S
N1024 C1020 1.427 . S
N1024 C1021 1.384 . S
N1025 C1017 1.427 . S
N1025 C1023 1.384 1_556 S
H1026 C1032 0.930 . S
H1027 C1036 0.930 . S
H1028 C1041 0.929 . S
H1029 C1039 0.929 . S
H1030 C1034 0.929 . S
H1031 C1040 0.929 . S
C1032 H1026 0.930 . S
C1032 C1033 1.367 . S
C1032 C1040 1.378 . S
C1033 C1032 1.367 . S
C1033 C1041 1.433 . S
C1034 H1030 0.929 . S
C1034 C1036 1.378 1_556 S
C1034 C1038 1.350 . S
C1035 C1038 1.463 . S
C1035 C1040 1.350 . S
C1035 N1043 1.427 . S
C1036 H1027 0.930 . S
C1036 C1034 1.378 1_554 S
C1036 C1037 1.367 . S
C1037 C1036 1.367 . S
C1037 C1039 1.433 . S
C1038 C1034 1.350 . S
C1038 C1035 1.463 . S
C1038 N1042 1.427 . S
C1039 H1029 0.929 . S
C1039 C1037 1.433 . S
C1039 N1042 1.384 1_554 S
C1040 H1031 0.929 . S
C1040 C1032 1.378 . S
C1040 C1035 1.350 . S
C1041 H1028 0.929 . S
C1041 C1033 1.433 . S
C1041 N1043 1.384 . S
N1042 C1038 1.427 . S
N1042 C1039 1.384 1_556 S
N1043 C1035 1.427 . S
N1043 C1041 1.384 . S
H1044 C1050 0.930 . S
H1045 C1054 0.930 . S
H1046 C1059 0.929 . S
H1047 C1057 0.929 . S
H1048 C1052 0.929 . S
H1049 C1058 0.929 . S
C1050 H1044 0.930 . S
C1050 C1051 1.367 . S
C1050 C1058 1.378 . S
C1051 C1050 1.367 . S
C1051 C1059 1.433 1_455 S
C1052 H1048 0.929 . S
C1052 C1054 1.378 . S
C1052 C1056 1.350 1_655 S
C1053 C1056 1.463 . S
C1053 C1058 1.350 . S
C1053 N1061 1.427 1_455 S
C1054 H1045 0.930 . S
C1054 C1052 1.378 . S
C1054 C1055 1.367 1_655 S
C1055 C1054 1.367 1_455 S
C1055 C1057 1.433 . S
C1056 C1052 1.350 1_455 S
C1056 C1053 1.463 . S
C1056 N1060 1.427 . S
C1057 H1047 0.929 . S
C1057 C1055 1.433 . S
C1057 N1060 1.384 . S
C1058 H1049 0.929 . S
C1058 C1050 1.378 . S
C1058 C1053 1.350 . S
C1059 H1046 0.929 . S
C1059 C1051 1.433 1_655 S
C1059 N1061 1.384 . S
N1060 C1056 1.427 . S
N1060 C1057 1.384 . S
N1061 C1053 1.427 1_655 S
N1061 C1059 1.384 . S
H1062 C1068 0.930 . S
H1063 C1072 0.930 . S
H1064 C1077 0.929 . S
H1065 C1075 0.929 . S
H1066 C1070 0.929 . S
H1067 C1076 0.929 . S
C1068 H1062 0.930 . S
C1068 C1069 1.367 . S
C1068 C1076 1.378 . S
C1069 C1068 1.367 . S
C1069 C1077 1.433 . S
C1070 H1066 0.929 . S
C1070 C1072 1.378 . S
C1070 C1074 1.350 . S
C1071 C1074 1.463 . S
C1071 C1076 1.350 . S
C1071 N1079 1.427 . S
C1072 H1063 0.930 . S
C1072 C1070 1.378 . S
C1072 C1073 1.367 . S
C1073 C1072 1.367 . S
C1073 C1075 1.433 . S
C1074 C1070 1.350 . S
C1074 C1071 1.463 . S
C1074 N1078 1.427 . S
C1075 H1065 0.929 . S
C1075 C1073 1.433 . S
C1075 N1078 1.384 . S
C1076 H1067 0.929 . S
C1076 C1068 1.378 . S
C1076 C1071 1.350 . S
C1077 H1064 0.929 . S
C1077 C1069 1.433 . S
C1077 N1079 1.384 . S
N1078 C1074 1.427 . S
N1078 C1075 1.384 . S
N1079 C1071 1.427 . S
N1079 C1077 1.384 . S
H1080 C1086 0.930 . S
H1081 C1090 0.930 . S
H1082 C1095 0.929 . S
H1083 C1093 0.929 . S
H1084 C1088 0.929 . S
H1085 C1094 0.929 . S
C1086 H1080 0.930 . S
C1086 C1087 1.367 1_545 S
C1086 C1094 1.378 . S
C1087 C1086 1.367 1_565 S
C1087 C1095 1.433 . S
C1088 H1084 0.929 . S
C1088 C1090 1.378 . S
C1088 C1092 1.350 . S
C1089 C1092 1.463 . S
C1089 C1094 1.350 1_565 S
C1089 N1097 1.427 . S
C1090 H1081 0.930 . S
C1090 C1088 1.378 . S
C1090 C1091 1.367 . S
C1091 C1090 1.367 . S
C1091 C1093 1.433 1_565 S
C1092 C1088 1.350 . S
C1092 C1089 1.463 . S
C1092 N1096 1.427 1_565 S
C1093 H1083 0.929 . S
C1093 C1091 1.433 1_545 S
C1093 N1096 1.384 . S
C1094 H1085 0.929 . S
C1094 C1086 1.378 . S
C1094 C1089 1.350 1_545 S
C1095 H1082 0.929 . S
C1095 C1087 1.433 . S
C1095 N1097 1.384 . S
N1096 C1092 1.427 1_545 S
N1096 C1093 1.384 . S
N1097 C1089 1.427 . S
N1097 C1095 1.384 . S
H1098 C1104 0.930 . S
H1099 C1108 0.930 . S
H1100 C1113 0.929 . S
H1101 C1111 0.929 . S
H1102 C1106 0.929 1_545 S
H1103 C1112 0.929 . S
C1104 H1098 0.930 . S
C1104 C1105 1.367 1_565 S
C1104 C1112 1.378 . S
C1105 C1104 1.367 1_545 S
C1105 C1113 1.433 . S
C1106 H1102 0.929 1_565 S
C1106 C1108 1.378 . S
C1106 C1110 1.350 . S
C1107 C1110 1.463 . S
C1107 C1112 1.350 . S
C1107 N1115 1.427 1_565 S
C1108 H1099 0.930 . S
C1108 C1106 1.378 . S
C1108 C1109 1.367 . S
C1109 C1108 1.367 . S
C1109 C1111 1.433 . S
C1110 C1106 1.350 . S
C1110 C1107 1.463 . S
C1110 N1114 1.427 . S
C1111 H1101 0.929 . S
C1111 C1109 1.433 . S
C1111 N1114 1.384 . S
C1112 H1103 0.929 . S
C1112 C1104 1.378 . S
C1112 C1107 1.350 . S
C1113 H1100 0.929 . S
C1113 C1105 1.433 . S
C1113 N1115 1.384 . S
N1114 C1110 1.427 . S
N1114 C1111 1.384 . S
N1115 C1107 1.427 1_545 S
N1115 C1113 1.384 . S
H1116 C1122 0.930 . S
H1117 C1126 0.930 . S
H1118 C1131 0.929 . S
H1119 C1129 0.929 . S
H1120 C1124 0.929 . S
H1121 C1130 0.929 . S
C1122 H1116 0.930 . S
C1122 C1123 1.367 . S
C1122 C1130 1.378 . S
C1123 C1122 1.367 . S
C1123 C1131 1.433 1_455 S
C1124 H1120 0.929 . S
C1124 C1126 1.378 . S
C1124 C1128 1.350 1_655 S
C1125 C1128 1.463 . S
C1125 C1130 1.350 . S
C1125 N1133 1.427 1_455 S
C1126 H1117 0.930 . S
C1126 C1124 1.378 . S
C1126 C1127 1.367 1_655 S
C1127 C1126 1.367 1_455 S
C1127 C1129 1.433 . S
C1128 C1124 1.350 1_455 S
C1128 C1125 1.463 . S
C1128 N1132 1.427 . S
C1129 H1119 0.929 . S
C1129 C1127 1.433 . S
C1129 N1132 1.384 . S
C1130 H1121 0.929 . S
C1130 C1122 1.378 . S
C1130 C1125 1.350 . S
C1131 H1118 0.929 . S
C1131 C1123 1.433 1_655 S
C1131 N1133 1.384 . S
N1132 C1128 1.427 . S
N1132 C1129 1.384 . S
N1133 C1125 1.427 1_655 S
N1133 C1131 1.384 . S
H1134 C1140 0.930 . S
H1135 C1144 0.930 . S
H1136 C1149 0.929 . S
H1137 C1147 0.929 . S
H1138 C1142 0.929 . S
H1139 C1148 0.929 . S
C1140 H1134 0.930 . S
C1140 C1141 1.367 . S
C1140 C1148 1.378 . S
C1141 C1140 1.367 . S
C1141 C1149 1.433 . S
C1142 H1138 0.929 . S
C1142 C1144 1.378 . S
C1142 C1146 1.350 . S
C1143 C1146 1.463 . S
C1143 C1148 1.350 . S
C1143 N1151 1.427 . S
C1144 H1135 0.930 . S
C1144 C1142 1.378 . S
C1144 C1145 1.367 . S
C1145 C1144 1.367 . S
C1145 C1147 1.433 . S
C1146 C1142 1.350 . S
C1146 C1143 1.463 . S
C1146 N1150 1.427 . S
C1147 H1137 0.929 . S
C1147 C1145 1.433 . S
C1147 N1150 1.384 . S
C1148 H1139 0.929 . S
C1148 C1140 1.378 . S
C1148 C1143 1.350 . S
C1149 H1136 0.929 . S
C1149 C1141 1.433 . S
C1149 N1151 1.384 . S
N1150 C1146 1.427 . S
N1150 C1147 1.384 . S
N1151 C1143 1.427 . S
N1151 C1149 1.384 . S
H1152 C1158 0.930 . S
H1153 C1162 0.930 . S
H1154 C1167 0.929 . S
H1155 C1165 0.929 . S
H1156 C1160 0.929 . S
H1157 C1166 0.929 . S
C1158 H1152 0.930 . S
C1158 C1159 1.367 . S
C1158 C1166 1.378 . S
C1159 C1158 1.367 . S
C1159 C1167 1.433 . S
C1160 H1156 0.929 . S
C1160 C1162 1.378 . S
C1160 C1164 1.350 . S
C1161 C1164 1.463 . S
C1161 C1166 1.350 . S
C1161 N1169 1.427 . S
C1162 H1153 0.930 . S
C1162 C1160 1.378 . S
C1162 C1163 1.367 . S
C1163 C1162 1.367 . S
C1163 C1165 1.433 . S
C1164 C1160 1.350 . S
C1164 C1161 1.463 . S
C1164 N1168 1.427 . S
C1165 H1155 0.929 . S
C1165 C1163 1.433 . S
C1165 N1168 1.384 . S
C1166 H1157 0.929 . S
C1166 C1158 1.378 . S
C1166 C1161 1.350 . S
C1167 H1154 0.929 . S
C1167 C1159 1.433 . S
C1167 N1169 1.384 . S
N1168 C1164 1.427 . S
N1168 C1165 1.384 . S
N1169 C1161 1.427 . S
N1169 C1167 1.384 . S
H1170 C1176 0.930 . S
H1171 C1180 0.930 . S
H1172 C1185 0.929 . S
H1173 C1183 0.929 . S
H1174 C1178 0.929 . S
H1175 C1184 0.929 . S
C1176 H1170 0.930 . S
C1176 C1177 1.367 . S
C1176 C1184 1.378 . S
C1177 C1176 1.367 . S
C1177 C1185 1.433 . S
C1178 H1174 0.929 . S
C1178 C1180 1.378 . S
C1178 C1182 1.350 . S
C1179 C1182 1.463 . S
C1179 C1184 1.350 . S
C1179 N1187 1.427 . S
C1180 H1171 0.930 . S
C1180 C1178 1.378 . S
C1180 C1181 1.367 . S
C1181 C1180 1.367 . S
C1181 C1183 1.433 . S
C1182 C1178 1.350 . S
C1182 C1179 1.463 . S
C1182 N1186 1.427 . S
C1183 H1173 0.929 . S
C1183 C1181 1.433 . S
C1183 N1186 1.384 . S
C1184 H1175 0.929 . S
C1184 C1176 1.378 . S
C1184 C1179 1.350 . S
C1185 H1172 0.929 . S
C1185 C1177 1.433 . S
C1185 N1187 1.384 . S
N1186 C1182 1.427 . S
N1186 C1183 1.384 . S
N1187 C1179 1.427 . S
N1187 C1185 1.384 . S
H1188 C1194 0.930 . S
H1189 C1198 0.930 . S
H1190 C1203 0.929 . S
H1191 C1201 0.929 . S
H1192 C1196 0.929 . S
H1193 C1202 0.929 . S
C1194 H1188 0.930 . S
C1194 C1195 1.367 . S
C1194 C1202 1.378 . S
C1195 C1194 1.367 . S
C1195 C1203 1.433 . S
C1196 H1192 0.929 . S
C1196 C1198 1.378 . S
C1196 C1200 1.350 . S
C1197 C1200 1.463 . S
C1197 C1202 1.350 . S
C1197 N1205 1.427 . S
C1198 H1189 0.930 . S
C1198 C1196 1.378 . S
C1198 C1199 1.367 . S
C1199 C1198 1.367 . S
C1199 C1201 1.433 . S
C1200 C1196 1.350 . S
C1200 C1197 1.463 . S
C1200 N1204 1.427 . S
C1201 H1191 0.929 . S
C1201 C1199 1.433 . S
C1201 N1204 1.384 . S
C1202 H1193 0.929 . S
C1202 C1194 1.378 . S
C1202 C1197 1.350 . S
C1203 H1190 0.929 . S
C1203 C1195 1.433 . S
C1203 N1205 1.384 . S
N1204 C1200 1.427 . S
N1204 C1201 1.384 . S
N1205 C1197 1.427 . S
N1205 C1203 1.384 . S
H1206 C1212 0.930 . S
H1207 C1216 0.930 . S
H1208 C1221 0.929 . S
H1209 C1219 0.929 . S
H1210 C1214 0.929 . S
H1211 C1220 0.929 . S
C1212 H1206 0.930 . S
C1212 C1213 1.367 . S
C1212 C1220 1.378 . S
C1213 C1212 1.367 . S
C1213 C1221 1.433 . S
C1214 H1210 0.929 . S
C1214 C1216 1.378 . S
C1214 C1218 1.350 . S
C1215 C1218 1.463 . S
C1215 C1220 1.350 . S
C1215 N1223 1.427 . S
C1216 H1207 0.930 . S
C1216 C1214 1.378 . S
C1216 C1217 1.367 . S
C1217 C1216 1.367 . S
C1217 C1219 1.433 . S
C1218 C1214 1.350 . S
C1218 C1215 1.463 . S
C1218 N1222 1.427 . S
C1219 H1209 0.929 . S
C1219 C1217 1.433 . S
C1219 N1222 1.384 . S
C1220 H1211 0.929 . S
C1220 C1212 1.378 . S
C1220 C1215 1.350 . S
C1221 H1208 0.929 . S
C1221 C1213 1.433 . S
C1221 N1223 1.384 . S
N1222 C1218 1.427 . S
N1222 C1219 1.384 . S
N1223 C1215 1.427 . S
N1223 C1221 1.384 . S
H1224 C1230 0.930 . S
H1225 C1234 0.930 . S
H1226 C1239 0.929 . S
H1227 C1237 0.929 . S
H1228 C1232 0.929 . S
H1229 C1238 0.929 . S
C1230 H1224 0.930 . S
C1230 C1231 1.367 . S
C1230 C1238 1.378 . S
C1231 C1230 1.367 . S
C1231 C1239 1.433 . S
C1232 H1228 0.929 . S
C1232 C1234 1.378 . S
C1232 C1236 1.350 . S
C1233 C1236 1.463 . S
C1233 C1238 1.350 . S
C1233 N1241 1.427 . S
C1234 H1225 0.930 . S
C1234 C1232 1.378 . S
C1234 C1235 1.367 . S
C1235 C1234 1.367 . S
C1235 C1237 1.433 . S
C1236 C1232 1.350 . S
C1236 C1233 1.463 . S
C1236 N1240 1.427 . S
C1237 H1227 0.929 . S
C1237 C1235 1.433 . S
C1237 N1240 1.384 . S
C1238 H1229 0.929 . S
C1238 C1230 1.378 . S
C1238 C1233 1.350 . S
C1239 H1226 0.929 . S
C1239 C1231 1.433 . S
C1239 N1241 1.384 . S
N1240 C1236 1.427 . S
N1240 C1237 1.384 . S
N1241 C1233 1.427 . S
N1241 C1239 1.384 . S
H1242 C1248 0.930 . S
H1243 C1252 0.930 . S
H1244 C1257 0.929 . S
H1245 C1255 0.929 . S
H1246 C1250 0.929 . S
H1247 C1256 0.929 . S
C1248 H1242 0.930 . S
C1248 C1249 1.367 . S
C1248 C1256 1.378 . S
C1249 C1248 1.367 . S
C1249 C1257 1.433 . S
C1250 H1246 0.929 . S
C1250 C1252 1.378 . S
C1250 C1254 1.350 . S
C1251 C1254 1.463 . S
C1251 C1256 1.350 . S
C1251 N1259 1.427 . S
C1252 H1243 0.930 . S
C1252 C1250 1.378 . S
C1252 C1253 1.367 . S
C1253 C1252 1.367 . S
C1253 C1255 1.433 . S
C1254 C1250 1.350 . S
C1254 C1251 1.463 . S
C1254 N1258 1.427 . S
C1255 H1245 0.929 . S
C1255 C1253 1.433 . S
C1255 N1258 1.384 . S
C1256 H1247 0.929 . S
C1256 C1248 1.378 . S
C1256 C1251 1.350 . S
C1257 H1244 0.929 . S
C1257 C1249 1.433 . S
C1257 N1259 1.384 . S
N1258 C1254 1.427 . S
N1258 C1255 1.384 . S
N1259 C1251 1.427 . S
N1259 C1257 1.384 . S
H1260 C1266 0.930 . S
H1261 C1270 0.930 . S
H1262 C1275 0.929 . S
H1263 C1273 0.929 . S
H1264 C1268 0.929 . S
H1265 C1274 0.929 . S
C1266 H1260 0.930 . S
C1266 C1267 1.367 . S
C1266 C1274 1.378 . S
C1267 C1266 1.367 . S
C1267 C1275 1.433 . S
C1268 H1264 0.929 . S
C1268 C1270 1.378 . S
C1268 C1272 1.350 . S
C1269 C1272 1.463 . S
C1269 C1274 1.350 . S
C1269 N1277 1.427 . S
C1270 H1261 0.930 . S
C1270 C1268 1.378 . S
C1270 C1271 1.367 . S
C1271 C1270 1.367 . S
C1271 C1273 1.433 . S
C1272 C1268 1.350 . S
C1272 C1269 1.463 . S
C1272 N1276 1.427 . S
C1273 H1263 0.929 . S
C1273 C1271 1.433 . S
C1273 N1276 1.384 . S
C1274 H1265 0.929 . S
C1274 C1266 1.378 . S
C1274 C1269 1.350 . S
C1275 H1262 0.929 . S
C1275 C1267 1.433 . S
C1275 N1277 1.384 . S
N1276 C1272 1.427 . S
N1276 C1273 1.384 . S
N1277 C1269 1.427 . S
N1277 C1275 1.384 . S
H1278 C1284 0.930 . S
H1279 C1288 0.930 . S
H1280 C1293 0.929 . S
H1281 C1291 0.929 . S
H1282 C1286 0.929 . S
H1283 C1292 0.929 . S
C1284 H1278 0.930 . S
C1284 C1285 1.367 . S
C1284 C1292 1.378 . S
C1285 C1284 1.367 . S
C1285 C1293 1.433 . S
C1286 H1282 0.929 . S
C1286 C1288 1.378 . S
C1286 C1290 1.350 . S
C1287 C1290 1.463 . S
C1287 C1292 1.350 . S
C1287 N1295 1.427 . S
C1288 H1279 0.930 . S
C1288 C1286 1.378 . S
C1288 C1289 1.367 . S
C1289 C1288 1.367 . S
C1289 C1291 1.433 . S
C1290 C1286 1.350 . S
C1290 C1287 1.463 . S
C1290 N1294 1.427 . S
C1291 H1281 0.929 . S
C1291 C1289 1.433 . S
C1291 N1294 1.384 . S
C1292 H1283 0.929 . S
C1292 C1284 1.378 . S
C1292 C1287 1.350 . S
C1293 H1280 0.929 . S
C1293 C1285 1.433 . S
C1293 N1295 1.384 . S
N1294 C1290 1.427 . S
N1294 C1291 1.384 . S
N1295 C1287 1.427 . S
N1295 C1293 1.384 . S
H1296 C1302 0.930 . S
H1297 C1306 0.930 . S
H1298 C1311 0.929 . S
H1299 C1309 0.929 . S
H1300 C1304 0.929 . S
H1301 C1310 0.929 . S
C1302 H1296 0.930 . S
C1302 C1303 1.367 . S
C1302 C1310 1.378 . S
C1303 C1302 1.367 . S
C1303 C1311 1.433 . S
C1304 H1300 0.929 . S
C1304 C1306 1.378 . S
C1304 C1308 1.350 . S
C1305 C1308 1.463 . S
C1305 C1310 1.350 . S
C1305 N1313 1.427 . S
C1306 H1297 0.930 . S
C1306 C1304 1.378 . S
C1306 C1307 1.367 . S
C1307 C1306 1.367 . S
C1307 C1309 1.433 . S
C1308 C1304 1.350 . S
C1308 C1305 1.463 . S
C1308 N1312 1.427 . S
C1309 H1299 0.929 . S
C1309 C1307 1.433 . S
C1309 N1312 1.384 . S
C1310 H1301 0.929 . S
C1310 C1302 1.378 . S
C1310 C1305 1.350 . S
C1311 H1298 0.929 . S
C1311 C1303 1.433 . S
C1311 N1313 1.384 . S
N1312 C1308 1.427 . S
N1312 C1309 1.384 . S
N1313 C1305 1.427 . S
N1313 C1311 1.384 . S
H1314 C1320 0.930 . S
H1315 C1324 0.930 . S
H1316 C1329 0.929 . S
H1317 C1327 0.929 . S
H1318 C1322 0.929 . S
H1319 C1328 0.929 . S
C1320 H1314 0.930 . S
C1320 C1321 1.367 . S
C1320 C1328 1.378 . S
C1321 C1320 1.367 . S
C1321 C1329 1.433 . S
C1322 H1318 0.929 . S
C1322 C1324 1.378 . S
C1322 C1326 1.350 . S
C1323 C1326 1.463 . S
C1323 C1328 1.350 . S
C1323 N1331 1.427 . S
C1324 H1315 0.930 . S
C1324 C1322 1.378 . S
C1324 C1325 1.367 . S
C1325 C1324 1.367 . S
C1325 C1327 1.433 . S
C1326 C1322 1.350 . S
C1326 C1323 1.463 . S
C1326 N1330 1.427 . S
C1327 H1317 0.929 . S
C1327 C1325 1.433 . S
C1327 N1330 1.384 . S
C1328 H1319 0.929 . S
C1328 C1320 1.378 . S
C1328 C1323 1.350 . S
C1329 H1316 0.929 . S
C1329 C1321 1.433 . S
C1329 N1331 1.384 . S
N1330 C1326 1.427 . S
N1330 C1327 1.384 . S
N1331 C1323 1.427 . S
N1331 C1329 1.384 . S
H1332 C1338 0.930 . S
H1333 C1342 0.930 . S
H1334 C1347 0.929 . S
H1335 C1345 0.929 . S
H1336 C1340 0.929 . S
H1337 C1346 0.929 . S
C1338 H1332 0.930 . S
C1338 C1339 1.367 . S
C1338 C1346 1.378 . S
C1339 C1338 1.367 . S
C1339 C1347 1.433 . S
C1340 H1336 0.929 . S
C1340 C1342 1.378 . S
C1340 C1344 1.350 . S
C1341 C1344 1.463 . S
C1341 C1346 1.350 . S
C1341 N1349 1.427 . S
C1342 H1333 0.930 . S
C1342 C1340 1.378 . S
C1342 C1343 1.367 . S
C1343 C1342 1.367 . S
C1343 C1345 1.433 . S
C1344 C1340 1.350 . S
C1344 C1341 1.463 . S
C1344 N1348 1.427 . S
C1345 H1335 0.929 . S
C1345 C1343 1.433 . S
C1345 N1348 1.384 . S
C1346 H1337 0.929 . S
C1346 C1338 1.378 . S
C1346 C1341 1.350 . S
C1347 H1334 0.929 . S
C1347 C1339 1.433 . S
C1347 N1349 1.384 . S
N1348 C1344 1.427 . S
N1348 C1345 1.384 . S
N1349 C1341 1.427 . S
N1349 C1347 1.384 . S
H1350 C1356 0.930 . S
H1351 C1360 0.930 . S
H1352 C1365 0.929 . S
H1353 C1363 0.929 . S
H1354 C1358 0.929 . S
H1355 C1364 0.929 . S
C1356 H1350 0.930 . S
C1356 C1357 1.367 . S
C1356 C1364 1.378 . S
C1357 C1356 1.367 . S
C1357 C1365 1.433 . S
C1358 H1354 0.929 . S
C1358 C1360 1.378 . S
C1358 C1362 1.350 . S
C1359 C1362 1.463 . S
C1359 C1364 1.350 . S
C1359 N1367 1.427 . S
C1360 H1351 0.930 . S
C1360 C1358 1.378 . S
C1360 C1361 1.367 . S
C1361 C1360 1.367 . S
C1361 C1363 1.433 . S
C1362 C1358 1.350 . S
C1362 C1359 1.463 . S
C1362 N1366 1.427 . S
C1363 H1353 0.929 . S
C1363 C1361 1.433 . S
C1363 N1366 1.384 . S
C1364 H1355 0.929 . S
C1364 C1356 1.378 . S
C1364 C1359 1.350 . S
C1365 H1352 0.929 . S
C1365 C1357 1.433 . S
C1365 N1367 1.384 . S
N1366 C1362 1.427 . S
N1366 C1363 1.384 . S
N1367 C1359 1.427 . S
N1367 C1365 1.384 . S
H1368 C1374 0.930 . S
H1369 C1378 0.930 . S
H1370 C1383 0.929 . S
H1371 C1381 0.934 . S
H1372 C1376 0.929 . S
H1373 C1382 0.957 . S
C1374 H1368 0.930 . S
C1374 C1375 1.367 1_655 S
C1374 C1382 1.355 . S
C1375 C1374 1.367 1_455 S
C1375 C1383 1.433 . S
C1376 H1372 0.929 . S
C1376 C1378 1.378 . S
C1376 C1380 1.350 . S
C1377 C1380 1.463 . S
C1377 C1382 1.348 1_455 S
C1377 N1385 1.427 . S
C1378 H1369 0.930 . S
C1378 C1376 1.378 . S
C1378 C1379 1.367 . S
C1379 C1378 1.367 . S
C1379 C1381 1.433 . S
C1380 C1376 1.350 . S
C1380 C1377 1.463 . S
C1380 N1384 1.427 . S
C1381 H1371 0.934 . S
C1381 C1379 1.433 . S
C1381 N1384 1.384 . S
C1382 H1373 0.957 . S
C1382 C1374 1.355 . S
C1382 C1377 1.348 1_655 S
C1383 H1370 0.929 . S
C1383 C1375 1.433 . S
C1383 N1385 1.384 . S
N1384 C1380 1.427 . S
N1384 C1381 1.384 . S
N1385 C1377 1.427 . S
N1385 C1383 1.384 . S
H1386 C1392 0.930 . S
H1387 C1396 0.930 . S
H1388 C1401 0.929 . S
H1389 C1399 0.929 . S
H1390 C1394 0.929 . S
H1391 C1400 0.929 . S
C1392 H1386 0.930 . S
C1392 C1393 1.367 . S
C1392 C1400 1.378 . S
C1393 C1392 1.367 . S
C1393 C1401 1.433 . S
C1394 H1390 0.929 . S
C1394 C1396 1.378 . S
C1394 C1398 1.350 . S
C1395 C1398 1.463 . S
C1395 C1400 1.350 . S
C1395 N1403 1.427 . S
C1396 H1387 0.930 . S
C1396 C1394 1.378 . S
C1396 C1397 1.367 . S
C1397 C1396 1.367 . S
C1397 C1399 1.433 . S
C1398 C1394 1.350 . S
C1398 C1395 1.463 . S
C1398 N1402 1.427 . S
C1399 H1389 0.929 . S
C1399 C1397 1.433 . S
C1399 N1402 1.384 . S
C1400 H1391 0.929 . S
C1400 C1392 1.378 . S
C1400 C1395 1.350 . S
C1401 H1388 0.929 . S
C1401 C1393 1.433 . S
C1401 N1403 1.384 . S
N1402 C1398 1.427 . S
N1402 C1399 1.384 . S
N1403 C1395 1.427 . S
N1403 C1401 1.384 . S
H1404 C1410 0.930 . S
H1405 C1414 0.930 . S
H1406 C1419 0.929 . S
H1407 C1417 0.929 . S
H1408 C1412 0.929 . S
H1409 C1418 0.929 . S
C1410 H1404 0.930 . S
C1410 C1411 1.367 1_565 S
C1410 C1418 1.378 . S
C1411 C1410 1.367 1_545 S
C1411 C1419 1.433 . S
C1412 H1408 0.929 . S
C1412 C1414 1.378 . S
C1412 C1416 1.350 . S
C1413 C1416 1.463 . S
C1413 C1418 1.350 1_545 S
C1413 N1421 1.427 . S
C1414 H1405 0.930 . S
C1414 C1412 1.378 . S
C1414 C1415 1.367 . S
C1415 C1414 1.367 . S
C1415 C1417 1.433 1_545 S
C1416 C1412 1.350 . S
C1416 C1413 1.463 . S
C1416 N1420 1.427 1_545 S
C1417 H1407 0.929 . S
C1417 C1415 1.433 1_565 S
C1417 N1420 1.384 . S
C1418 H1409 0.929 . S
C1418 C1410 1.378 . S
C1418 C1413 1.350 1_565 S
C1419 H1406 0.929 . S
C1419 C1411 1.433 . S
C1419 N1421 1.384 . S
N1420 C1416 1.427 1_565 S
N1420 C1417 1.384 . S
N1421 C1413 1.427 . S
N1421 C1419 1.384 . S
H1422 C1428 0.866 1_545 S
H1423 C1432 0.930 . S
H1424 C1437 0.929 . S
H1425 C1435 0.929 . S
H1426 C1430 0.929 . S
H1427 C1436 0.931 . S
C1428 H1422 0.866 1_565 S
C1428 C1429 1.367 1_554 S
C1428 C1436 1.378 . S
C1429 C1428 1.367 1_556 S
C1429 C1437 1.433 . S
C1430 H1426 0.929 . S
C1430 C1432 1.378 . S
C1430 C1434 1.350 . S
C1431 C1434 1.463 . S
C1431 C1436 1.350 1_556 S
C1431 N1439 1.427 . S
C1432 H1423 0.930 . S
C1432 C1430 1.378 . S
C1432 C1433 1.367 1_556 S
C1433 C1432 1.367 1_554 S
C1433 C1435 1.433 . S
C1434 C1430 1.350 . S
C1434 C1431 1.463 . S
C1434 N1438 1.427 1_556 S
C1435 H1425 0.929 . S
C1435 C1433 1.433 . S
C1435 N1438 1.384 . S
C1436 H1427 0.931 . S
C1436 C1428 1.378 . S
C1436 C1431 1.350 1_554 S
C1437 H1424 0.929 . S
C1437 C1429 1.433 . S
C1437 N1439 1.384 . S
N1438 C1434 1.427 1_554 S
N1438 C1435 1.384 . S
N1439 C1431 1.427 . S
N1439 C1437 1.384 . S
H1440 C1446 0.930 . S
H1441 C1450 0.944 . S
H1442 C1455 0.929 . S
H1443 C1453 0.929 . S
H1444 C1448 0.929 . S
H1445 C1454 0.929 . S
C1446 H1440 0.930 . S
C1446 C1447 1.367 1_556 S
C1446 C1454 1.378 . S
C1447 C1446 1.367 1_554 S
C1447 C1455 1.433 1_455 S
C1448 H1444 0.929 . S
C1448 C1450 1.432 . S
C1448 C1452 1.350 1_654 S
C1449 C1452 1.463 1_554 S
C1449 C1454 1.350 1_554 S
C1449 N1457 1.427 1_455 S
C1450 H1441 0.944 . S
C1450 C1448 1.432 . S
C1450 C1451 1.308 1_654 S
C1451 C1450 1.308 1_456 S
C1451 C1453 1.433 . S
C1452 C1448 1.350 1_456 S
C1452 C1449 1.463 1_556 S
C1452 N1456 1.427 . S
C1453 H1443 0.929 . S
C1453 C1451 1.433 . S
C1453 N1456 1.384 . S
C1454 H1445 0.929 . S
C1454 C1446 1.378 . S
C1454 C1449 1.350 1_556 S
C1455 H1442 0.929 . S
C1455 C1447 1.433 1_655 S
C1455 N1457 1.384 . S
N1456 C1452 1.427 . S
N1456 C1453 1.384 . S
N1457 C1449 1.427 1_655 S
N1457 C1455 1.384 . S
H1458 C1464 0.930 . S
H1459 C1468 0.930 . S
H1460 C1473 0.929 . S
H1461 C1471 0.929 . S
H1462 C1466 0.929 . S
H1463 C1472 0.929 . S
C1464 H1458 0.930 . S
C1464 C1465 1.367 . S
C1464 C1472 1.378 . S
C1465 C1464 1.367 . S
C1465 C1473 1.433 1_554 S
C1466 H1462 0.929 . S
C1466 C1468 1.378 . S
C1466 C1470 1.350 . S
C1467 C1470 1.463 1_554 S
C1467 C1472 1.350 . S
C1467 N1475 1.427 1_554 S
C1468 H1459 0.930 . S
C1468 C1466 1.378 . S
C1468 C1469 1.367 . S
C1469 C1468 1.367 . S
C1469 C1471 1.433 1_556 S
C1470 C1466 1.350 . S
C1470 C1467 1.463 1_556 S
C1470 N1474 1.427 1_556 S
C1471 H1461 0.929 . S
C1471 C1469 1.433 1_554 S
C1471 N1474 1.384 . S
C1472 H1463 0.929 . S
C1472 C1464 1.378 . S
C1472 C1467 1.350 . S
C1473 H1460 0.929 . S
C1473 C1465 1.433 1_556 S
C1473 N1475 1.384 . S
N1474 C1470 1.427 1_554 S
N1474 C1471 1.384 . S
N1475 C1467 1.427 1_556 S
N1475 C1473 1.384 . S
H1476 C1482 0.930 1_556 S
H1477 C1486 0.930 . S
H1478 C1491 0.929 . S
H1479 C1489 0.929 . S
H1480 C1484 0.929 . S
H1481 C1490 0.929 . S
C1482 H1476 0.930 1_554 S
C1482 C1483 1.367 . S
C1482 C1490 1.378 . S
C1483 C1482 1.367 . S
C1483 C1491 1.433 . S
C1484 H1480 0.929 . S
C1484 C1486 1.378 . S
C1484 C1488 1.350 . S
C1485 C1488 1.463 . S
C1485 C1490 1.350 . S
C1485 N1493 1.427 . S
C1486 H1477 0.930 . S
C1486 C1484 1.378 . S
C1486 C1487 1.367 . S
C1487 C1486 1.367 . S
C1487 C1489 1.433 . S
C1488 C1484 1.350 . S
C1488 C1485 1.463 . S
C1488 N1492 1.427 . S
C1489 H1479 0.929 . S
C1489 C1487 1.433 . S
C1489 N1492 1.384 . S
C1490 H1481 0.929 . S
C1490 C1482 1.378 . S
C1490 C1485 1.350 . S
C1491 H1478 0.929 . S
C1491 C1483 1.433 . S
C1491 N1493 1.384 . S
N1492 C1488 1.427 . S
N1492 C1489 1.384 . S
N1493 C1485 1.427 . S
N1493 C1491 1.384 . S
H1494 C1500 0.930 . S
H1495 C1504 0.930 1_556 S
H1496 C1509 0.929 . S
H1497 C1507 0.929 . S
H1498 C1502 0.929 . S
H1499 C1508 0.929 . S
C1500 H1494 0.930 . S
C1500 C1501 1.367 . S
C1500 C1508 1.378 . S
C1501 C1500 1.367 . S
C1501 C1509 1.433 . S
C1502 H1498 0.929 . S
C1502 C1504 1.378 . S
C1502 C1506 1.350 . S
C1503 C1506 1.463 . S
C1503 C1508 1.350 . S
C1503 N1511 1.427 . S
C1504 H1495 0.930 1_554 S
C1504 C1502 1.378 . S
C1504 C1505 1.367 . S
C1505 C1504 1.367 . S
C1505 C1507 1.433 . S
C1506 C1502 1.350 . S
C1506 C1503 1.463 . S
C1506 N1510 1.427 . S
C1507 H1497 0.929 . S
C1507 C1505 1.433 . S
C1507 N1510 1.384 . S
C1508 H1499 0.929 . S
C1508 C1500 1.378 . S
C1508 C1503 1.350 . S
C1509 H1496 0.929 . S
C1509 C1501 1.433 . S
C1509 N1511 1.384 . S
N1510 C1506 1.427 . S
N1510 C1507 1.384 . S
N1511 C1503 1.427 . S
N1511 C1509 1.384 . S
H1512 C1518 0.930 . S
H1513 C1522 0.930 1_556 S
H1514 C1527 0.929 . S
H1515 C1525 0.929 . S
H1516 C1520 0.929 . S
H1517 C1526 0.929 . S
C1518 H1512 0.930 . S
C1518 C1519 1.367 . S
C1518 C1526 1.378 . S
C1519 C1518 1.367 . S
C1519 C1527 1.433 . S
C1520 H1516 0.929 . S
C1520 C1522 1.378 . S
C1520 C1524 1.350 . S
C1521 C1524 1.463 . S
C1521 C1526 1.350 . S
C1521 N1529 1.427 . S
C1522 H1513 0.930 1_554 S
C1522 C1520 1.378 . S
C1522 C1523 1.367 . S
C1523 C1522 1.367 . S
C1523 C1525 1.433 . S
C1524 C1520 1.350 . S
C1524 C1521 1.463 . S
C1524 N1528 1.427 . S
C1525 H1515 0.929 . S
C1525 C1523 1.433 . S
C1525 N1528 1.384 . S
C1526 H1517 0.929 . S
C1526 C1518 1.378 . S
C1526 C1521 1.350 . S
C1527 H1514 0.929 . S
C1527 C1519 1.433 . S
C1527 N1529 1.384 . S
N1528 C1524 1.427 . S
N1528 C1525 1.384 . S
N1529 C1521 1.427 . S
N1529 C1527 1.384 . S
H1530 C1536 0.930 . S
H1531 C1540 0.930 . S
H1532 C1545 0.929 . S
H1533 C1543 0.929 . S
H1534 C1538 0.929 . S
H1535 C1544 0.929 . S
C1536 H1530 0.930 . S
C1536 C1537 1.367 . S
C1536 C1544 1.378 . S
C1537 C1536 1.367 . S
C1537 C1545 1.433 . S
C1538 H1534 0.929 . S
C1538 C1540 1.378 . S
C1538 C1542 1.350 . S
C1539 C1542 1.463 . S
C1539 C1544 1.350 . S
C1539 N1547 1.427 . S
C1540 H1531 0.930 . S
C1540 C1538 1.378 . S
C1540 C1541 1.367 . S
C1541 C1540 1.367 . S
C1541 C1543 1.433 . S
C1542 C1538 1.350 . S
C1542 C1539 1.463 . S
C1542 N1546 1.427 . S
C1543 H1533 0.929 . S
C1543 C1541 1.433 . S
C1543 N1546 1.384 . S
C1544 H1535 0.929 . S
C1544 C1536 1.378 . S
C1544 C1539 1.350 . S
C1545 H1532 0.929 . S
C1545 C1537 1.433 . S
C1545 N1547 1.384 . S
N1546 C1542 1.427 . S
N1546 C1543 1.384 . S
N1547 C1539 1.427 . S
N1547 C1545 1.384 . S
H1548 C1554 0.930 . S
H1549 C1558 0.930 . S
H1550 C1563 0.929 . S
H1551 C1561 0.929 . S
H1552 C1556 0.929 . S
H1553 C1562 0.929 . S
C1554 H1548 0.930 . S
C1554 C1555 1.367 . S
C1554 C1562 1.378 . S
C1555 C1554 1.367 . S
C1555 C1563 1.433 . S
C1556 H1552 0.929 . S
C1556 C1558 1.378 . S
C1556 C1560 1.350 . S
C1557 C1560 1.463 . S
C1557 C1562 1.350 . S
C1557 N1565 1.427 . S
C1558 H1549 0.930 . S
C1558 C1556 1.378 . S
C1558 C1559 1.367 . S
C1559 C1558 1.367 . S
C1559 C1561 1.433 . S
C1560 C1556 1.350 . S
C1560 C1557 1.463 . S
C1560 N1564 1.427 . S
C1561 H1551 0.929 . S
C1561 C1559 1.433 . S
C1561 N1564 1.384 . S
C1562 H1553 0.929 . S
C1562 C1554 1.378 . S
C1562 C1557 1.350 . S
C1563 H1550 0.929 . S
C1563 C1555 1.433 . S
C1563 N1565 1.384 . S
N1564 C1560 1.427 . S
N1564 C1561 1.384 . S
N1565 C1557 1.427 . S
N1565 C1563 1.384 . S
H1566 C1572 0.930 . S
H1567 C1576 0.930 . S
H1568 C1581 0.929 . S
H1569 C1579 0.929 . S
H1570 C1574 0.929 . S
H1571 C1580 0.929 . S
C1572 H1566 0.930 . S
C1572 C1573 1.367 . S
C1572 C1580 1.378 . S
C1573 C1572 1.367 . S
C1573 C1581 1.433 . S
C1574 H1570 0.929 . S
C1574 C1576 1.378 . S
C1574 C1578 1.350 . S
C1575 C1578 1.463 . S
C1575 C1580 1.350 . S
C1575 N1583 1.427 . S
C1576 H1567 0.930 . S
C1576 C1574 1.378 . S
C1576 C1577 1.367 . S
C1577 C1576 1.367 . S
C1577 C1579 1.433 . S
C1578 C1574 1.350 . S
C1578 C1575 1.463 . S
C1578 N1582 1.427 . S
C1579 H1569 0.929 . S
C1579 C1577 1.433 . S
C1579 N1582 1.384 . S
C1580 H1571 0.929 . S
C1580 C1572 1.378 . S
C1580 C1575 1.350 . S
C1581 H1568 0.929 . S
C1581 C1573 1.433 . S
C1581 N1583 1.384 . S
N1582 C1578 1.427 . S
N1582 C1579 1.384 . S
N1583 C1575 1.427 . S
N1583 C1581 1.384 . S
H1584 C1590 0.930 . S
H1585 C1594 0.930 . S
H1586 C1599 0.929 . S
H1587 C1597 0.929 . S
H1588 C1592 0.929 . S
H1589 C1598 0.929 . S
C1590 H1584 0.930 . S
C1590 C1591 1.367 . S
C1590 C1598 1.378 . S
C1591 C1590 1.367 . S
C1591 C1599 1.433 . S
C1592 H1588 0.929 . S
C1592 C1594 1.378 . S
C1592 C1596 1.350 . S
C1593 C1596 1.463 . S
C1593 C1598 1.350 . S
C1593 N1601 1.427 . S
C1594 H1585 0.930 . S
C1594 C1592 1.378 . S
C1594 C1595 1.367 . S
C1595 C1594 1.367 . S
C1595 C1597 1.433 . S
C1596 C1592 1.350 . S
C1596 C1593 1.463 . S
C1596 N1600 1.427 . S
C1597 H1587 0.929 . S
C1597 C1595 1.433 . S
C1597 N1600 1.384 . S
C1598 H1589 0.929 . S
C1598 C1590 1.378 . S
C1598 C1593 1.350 . S
C1599 H1586 0.929 . S
C1599 C1591 1.433 . S
C1599 N1601 1.384 . S
N1600 C1596 1.427 . S
N1600 C1597 1.384 . S
N1601 C1593 1.427 . S
N1601 C1599 1.384 . S
H1602 C1608 0.930 . S
H1603 C1612 0.930 . S
H1604 C1617 0.929 . S
H1605 C1615 0.929 . S
H1606 C1610 0.929 . S
H1607 C1616 0.929 . S
C1608 H1602 0.930 . S
C1608 C1609 1.367 . S
C1608 C1616 1.378 . S
C1609 C1608 1.367 . S
C1609 C1617 1.433 . S
C1610 H1606 0.929 . S
C1610 C1612 1.378 . S
C1610 C1614 1.350 . S
C1611 C1614 1.463 . S
C1611 C1616 1.350 . S
C1611 N1619 1.427 . S
C1612 H1603 0.930 . S
C1612 C1610 1.378 . S
C1612 C1613 1.367 . S
C1613 C1612 1.367 . S
C1613 C1615 1.433 . S
C1614 C1610 1.350 . S
C1614 C1611 1.463 . S
C1614 N1618 1.427 . S
C1615 H1605 0.929 . S
C1615 C1613 1.433 . S
C1615 N1618 1.384 . S
C1616 H1607 0.929 . S
C1616 C1608 1.378 . S
C1616 C1611 1.350 . S
C1617 H1604 0.929 . S
C1617 C1609 1.433 . S
C1617 N1619 1.384 . S
N1618 C1614 1.427 . S
N1618 C1615 1.384 . S
N1619 C1611 1.427 . S
N1619 C1617 1.384 . S
H1620 C1626 0.930 . S
H1621 C1630 0.930 . S
H1622 C1635 0.929 1_554 S
H1623 C1633 0.929 . S
H1624 C1628 0.929 . S
H1625 C1634 0.929 . S
C1626 H1620 0.930 . S
C1626 C1627 1.367 . S
C1626 C1634 1.378 . S
C1627 C1626 1.367 . S
C1627 C1635 1.433 . S
C1628 H1624 0.929 . S
C1628 C1630 1.378 . S
C1628 C1632 1.350 . S
C1629 C1632 1.463 . S
C1629 C1634 1.350 . S
C1629 N1637 1.427 . S
C1630 H1621 0.930 . S
C1630 C1628 1.378 . S
C1630 C1631 1.367 . S
C1631 C1630 1.367 . S
C1631 C1633 1.433 . S
C1632 C1628 1.350 . S
C1632 C1629 1.463 . S
C1632 N1636 1.427 . S
C1633 H1623 0.929 . S
C1633 C1631 1.433 . S
C1633 N1636 1.384 . S
C1634 H1625 0.929 . S
C1634 C1626 1.378 . S
C1634 C1629 1.350 . S
C1635 H1622 0.929 1_556 S
C1635 C1627 1.433 . S
C1635 N1637 1.384 . S
N1636 C1632 1.427 . S
N1636 C1633 1.384 . S
N1637 C1629 1.427 . S
N1637 C1635 1.384 . S
H1638 C1644 0.930 . S
H1639 C1648 0.930 . S
H1640 C1653 0.929 . S
H1641 C1651 0.929 . S
H1642 C1646 0.929 . S
H1643 C1652 0.929 . S
C1644 H1638 0.930 . S
C1644 C1645 1.367 . S
C1644 C1652 1.378 . S
C1645 C1644 1.367 . S
C1645 C1653 1.433 . S
C1646 H1642 0.929 . S
C1646 C1648 1.378 . S
C1646 C1650 1.350 . S
C1647 C1650 1.463 . S
C1647 C1652 1.350 . S
C1647 N1655 1.427 . S
C1648 H1639 0.930 . S
C1648 C1646 1.378 . S
C1648 C1649 1.367 . S
C1649 C1648 1.367 . S
C1649 C1651 1.433 . S
C1650 C1646 1.350 . S
C1650 C1647 1.463 . S
C1650 N1654 1.427 . S
C1651 H1641 0.929 . S
C1651 C1649 1.433 . S
C1651 N1654 1.384 . S
C1652 H1643 0.929 . S
C1652 C1644 1.378 . S
C1652 C1647 1.350 . S
C1653 H1640 0.929 . S
C1653 C1645 1.433 . S
C1653 N1655 1.384 . S
N1654 C1650 1.427 . S
N1654 C1651 1.384 . S
N1655 C1647 1.427 . S
N1655 C1653 1.384 . S
H1656 C1662 0.930 . S
H1657 C1666 0.930 . S
H1658 C1671 0.929 . S
H1659 C1669 0.929 . S
H1660 C1664 0.929 . S
H1661 C1670 0.929 . S
C1662 H1656 0.930 . S
C1662 C1663 1.367 . S
C1662 C1670 1.378 . S
C1663 C1662 1.367 . S
C1663 C1671 1.433 . S
C1664 H1660 0.929 . S
C1664 C1666 1.378 . S
C1664 C1668 1.350 . S
C1665 C1668 1.463 . S
C1665 C1670 1.350 . S
C1665 N1673 1.427 . S
C1666 H1657 0.930 . S
C1666 C1664 1.378 . S
C1666 C1667 1.367 . S
C1667 C1666 1.367 . S
C1667 C1669 1.433 . S
C1668 C1664 1.350 . S
C1668 C1665 1.463 . S
C1668 N1672 1.427 . S
C1669 H1659 0.929 . S
C1669 C1667 1.433 . S
C1669 N1672 1.384 . S
C1670 H1661 0.929 . S
C1670 C1662 1.378 . S
C1670 C1665 1.350 . S
C1671 H1658 0.929 . S
C1671 C1663 1.433 . S
C1671 N1673 1.384 . S
N1672 C1668 1.427 . S
N1672 C1669 1.384 . S
N1673 C1665 1.427 . S
N1673 C1671 1.384 . S
H1674 C1680 0.930 . S
H1675 C1684 0.930 . S
H1676 C1689 0.929 . S
H1677 C1687 0.929 . S
H1678 C1682 0.929 . S
H1679 C1688 0.929 . S
C1680 H1674 0.930 . S
C1680 C1681 1.367 . S
C1680 C1688 1.378 . S
C1681 C1680 1.367 . S
C1681 C1689 1.433 . S
C1682 H1678 0.929 . S
C1682 C1684 1.378 . S
C1682 C1686 1.350 . S
C1683 C1686 1.463 . S
C1683 C1688 1.350 . S
C1683 N1691 1.427 . S
C1684 H1675 0.930 . S
C1684 C1682 1.378 . S
C1684 C1685 1.367 . S
C1685 C1684 1.367 . S
C1685 C1687 1.433 . S
C1686 C1682 1.350 . S
C1686 C1683 1.463 . S
C1686 N1690 1.427 . S
C1687 H1677 0.929 . S
C1687 C1685 1.433 . S
C1687 N1690 1.384 . S
C1688 H1679 0.929 . S
C1688 C1680 1.378 . S
C1688 C1683 1.350 . S
C1689 H1676 0.929 . S
C1689 C1681 1.433 . S
C1689 N1691 1.384 . S
N1690 C1686 1.427 . S
N1690 C1687 1.384 . S
N1691 C1683 1.427 . S
N1691 C1689 1.384 . S
H1692 C1698 0.930 . S
H1693 C1702 0.930 . S
H1694 C1707 0.929 . S
H1695 C1705 0.929 . S
H1696 C1700 0.929 . S
H1697 C1706 0.929 . S
C1698 H1692 0.930 . S
C1698 C1699 1.367 . S
C1698 C1706 1.378 . S
C1699 C1698 1.367 . S
C1699 C1707 1.433 . S
C1700 H1696 0.929 . S
C1700 C1702 1.378 . S
C1700 C1704 1.350 . S
C1701 C1704 1.463 . S
C1701 C1706 1.350 . S
C1701 N1709 1.427 . S
C1702 H1693 0.930 . S
C1702 C1700 1.378 . S
C1702 C1703 1.367 . S
C1703 C1702 1.367 . S
C1703 C1705 1.433 . S
C1704 C1700 1.350 . S
C1704 C1701 1.463 . S
C1704 N1708 1.427 . S
C1705 H1695 0.929 . S
C1705 C1703 1.433 . S
C1705 N1708 1.384 . S
C1706 H1697 0.929 . S
C1706 C1698 1.378 . S
C1706 C1701 1.350 . S
C1707 H1694 0.929 . S
C1707 C1699 1.433 . S
C1707 N1709 1.384 . S
N1708 C1704 1.427 . S
N1708 C1705 1.384 . S
N1709 C1701 1.427 . S
N1709 C1707 1.384 . S
H1710 C1716 0.930 . S
H1711 C1720 0.930 . S
H1712 C1725 0.929 . S
H1713 C1723 0.929 . S
H1714 C1718 0.929 . S
H1715 C1724 0.929 . S
C1716 H1710 0.930 . S
C1716 C1717 1.367 . S
C1716 C1724 1.378 . S
C1717 C1716 1.367 . S
C1717 C1725 1.433 . S
C1718 H1714 0.929 . S
C1718 C1720 1.378 . S
C1718 C1722 1.350 . S
C1719 C1722 1.463 1_565 S
C1719 C1724 1.350 . S
C1719 N1727 1.427 . S
C1720 H1711 0.930 . S
C1720 C1718 1.378 . S
C1720 C1721 1.367 . S
C1721 C1720 1.367 . S
C1721 C1723 1.433 . S
C1722 C1718 1.350 . S
C1722 C1719 1.463 1_545 S
C1722 N1726 1.427 . S
C1723 H1713 0.929 . S
C1723 C1721 1.433 . S
C1723 N1726 1.384 . S
C1724 H1715 0.929 . S
C1724 C1716 1.378 . S
C1724 C1719 1.350 . S
C1725 H1712 0.929 . S
C1725 C1717 1.433 . S
C1725 N1727 1.384 . S
N1726 C1722 1.427 . S
N1726 C1723 1.384 . S
N1727 C1719 1.427 . S
N1727 C1725 1.384 . S
H1728 C1734 0.930 . S
H1729 C1738 0.930 . S
H1730 C1743 0.929 . S
H1731 C1741 0.929 . S
H1732 C1736 0.929 . S
H1733 C1742 0.929 . S
C1734 H1728 0.930 . S
C1734 C1735 1.367 . S
C1734 C1742 1.378 . S
C1735 C1734 1.367 . S
C1735 C1743 1.433 . S
C1736 H1732 0.929 . S
C1736 C1738 1.378 . S
C1736 C1740 1.350 1_655 S
C1737 C1740 1.463 . S
C1737 C1742 1.350 . S
C1737 N1745 1.427 . S
C1738 H1729 0.930 . S
C1738 C1736 1.378 . S
C1738 C1739 1.367 . S
C1739 C1738 1.367 . S
C1739 C1741 1.433 . S
C1740 C1736 1.350 1_455 S
C1740 C1737 1.463 . S
C1740 N1744 1.427 1_455 S
C1741 H1731 0.929 . S
C1741 C1739 1.433 . S
C1741 N1744 1.384 . S
C1742 H1733 0.929 . S
C1742 C1734 1.378 . S
C1742 C1737 1.350 . S
C1743 H1730 0.929 . S
C1743 C1735 1.433 . S
C1743 N1745 1.384 . S
N1744 C1740 1.427 1_655 S
N1744 C1741 1.384 . S
N1745 C1737 1.427 . S
N1745 C1743 1.384 . S
H1746 C1752 0.930 . S
H1747 C1756 0.930 . S
H1748 C1761 0.929 . S
H1749 C1759 0.929 . S
H1750 C1754 0.929 . S
H1751 C1760 0.929 . S
C1752 H1746 0.930 . S
C1752 C1753 1.367 . S
C1752 C1760 1.378 . S
C1753 C1752 1.367 . S
C1753 C1761 1.433 . S
C1754 H1750 0.929 . S
C1754 C1756 1.378 . S
C1754 C1758 1.350 . S
C1755 C1758 1.463 . S
C1755 C1760 1.350 . S
C1755 N1763 1.427 . S
C1756 H1747 0.930 . S
C1756 C1754 1.378 . S
C1756 C1757 1.367 . S
C1757 C1756 1.367 . S
C1757 C1759 1.433 . S
C1758 C1754 1.350 . S
C1758 C1755 1.463 . S
C1758 N1762 1.427 . S
C1759 H1749 0.929 . S
C1759 C1757 1.433 . S
C1759 N1762 1.384 . S
C1760 H1751 0.929 . S
C1760 C1752 1.378 . S
C1760 C1755 1.350 . S
C1761 H1748 0.929 . S
C1761 C1753 1.433 . S
C1761 N1763 1.384 . S
N1762 C1758 1.427 . S
N1762 C1759 1.384 . S
N1763 C1755 1.427 . S
N1763 C1761 1.384 . S
H1764 C1770 0.930 . S
H1765 C1774 0.930 . S
H1766 C1779 0.929 . S
H1767 C1777 0.929 . S
H1768 C1772 0.930 . S
H1769 C1778 0.929 . S
C1770 H1764 0.930 . S
C1770 C1771 1.367 . S
C1770 C1778 1.378 . S
C1771 C1770 1.367 . S
C1771 C1779 1.433 . S
C1772 H1768 0.930 . S
C1772 C1774 1.378 . S
C1772 C1776 1.350 . S
C1773 C1776 1.463 1_565 S
C1773 C1778 1.350 . S
C1773 N1781 1.427 . S
C1774 H1765 0.930 . S
C1774 C1772 1.378 . S
C1774 C1775 1.367 . S
C1775 C1774 1.367 . S
C1775 C1777 1.433 . S
C1776 C1772 1.350 . S
C1776 C1773 1.463 1_545 S
C1776 N1780 1.427 . S
C1777 H1767 0.929 . S
C1777 C1775 1.433 . S
C1777 N1780 1.384 . S
C1778 H1769 0.929 . S
C1778 C1770 1.378 . S
C1778 C1773 1.350 . S
C1779 H1766 0.929 . S
C1779 C1771 1.433 . S
C1779 N1781 1.384 . S
N1780 C1776 1.427 . S
N1780 C1777 1.384 . S
N1781 C1773 1.427 . S
N1781 C1779 1.384 . S
H1782 C1788 0.930 . S
H1783 C1792 0.930 . S
H1784 C1797 0.929 . S
H1785 C1795 0.929 . S
H1786 C1790 0.929 . S
H1787 C1796 0.929 . S
C1788 H1782 0.930 . S
C1788 C1789 1.367 . S
C1788 C1796 1.378 . S
C1789 C1788 1.367 . S
C1789 C1797 1.433 . S
C1790 H1786 0.929 . S
C1790 C1792 1.378 . S
C1790 C1794 1.350 . S
C1791 C1794 1.463 1_455 S
C1791 C1796 1.350 . S
C1791 N1799 1.427 . S
C1792 H1783 0.930 . S
C1792 C1790 1.378 . S
C1792 C1793 1.367 . S
C1793 C1792 1.367 . S
C1793 C1795 1.433 . S
C1794 C1790 1.350 . S
C1794 C1791 1.463 1_655 S
C1794 N1798 1.427 . S
C1795 H1785 0.929 . S
C1795 C1793 1.433 . S
C1795 N1798 1.384 . S
C1796 H1787 0.929 . S
C1796 C1788 1.378 . S
C1796 C1791 1.350 . S
C1797 H1784 0.929 . S
C1797 C1789 1.433 . S
C1797 N1799 1.384 . S
N1798 C1794 1.427 . S
N1798 C1795 1.384 . S
N1799 C1791 1.427 . S
N1799 C1797 1.384 . S
H1800 C1806 0.930 . S
H1801 C1810 0.930 . S
H1802 C1815 0.928 1_554 S
H1803 C1813 0.929 . S
H1804 C1808 0.929 . S
H1805 C1814 0.929 . S
C1806 H1800 0.930 . S
C1806 C1807 1.367 . S
C1806 C1814 1.378 1_554 S
C1807 C1806 1.367 . S
C1807 C1815 1.433 1_554 S
C1808 H1804 0.929 . S
C1808 C1810 1.378 . S
C1808 C1812 1.350 . S
C1809 C1812 1.463 . S
C1809 C1814 1.350 . S
C1809 N1817 1.427 . S
C1810 H1801 0.930 . S
C1810 C1808 1.378 . S
C1810 C1811 1.367 . S
C1811 C1810 1.367 . S
C1811 C1813 1.433 . S
C1812 C1808 1.350 . S
C1812 C1809 1.463 . S
C1812 N1816 1.427 . S
C1813 H1803 0.929 . S
C1813 C1811 1.433 . S
C1813 N1816 1.384 . S
C1814 H1805 0.929 . S
C1814 C1806 1.378 1_556 S
C1814 C1809 1.350 . S
C1815 H1802 0.928 1_556 S
C1815 C1807 1.433 1_556 S
C1815 N1817 1.385 . S
N1816 C1812 1.427 . S
N1816 C1813 1.384 . S
N1817 C1809 1.427 . S
N1817 C1815 1.385 . S
H1818 C1824 0.934 . S
H1819 C1828 0.930 . S
H1820 C1833 0.929 . S
H1821 C1831 0.929 . S
H1822 C1826 0.929 . S
H1823 C1832 0.929 . S
C1824 H1818 0.934 . S
C1824 C1825 1.370 . S
C1824 C1832 1.371 1_554 S
C1825 C1824 1.370 . S
C1825 C1833 1.433 . S
C1826 H1822 0.929 . S
C1826 C1828 1.378 . S
C1826 C1830 1.350 . S
C1827 C1830 1.463 . S
C1827 C1832 1.350 . S
C1827 N1835 1.427 . S
C1828 H1819 0.930 . S
C1828 C1826 1.378 . S
C1828 C1829 1.367 . S
C1829 C1828 1.367 . S
C1829 C1831 1.433 . S
C1830 C1826 1.350 . S
C1830 C1827 1.463 . S
C1830 N1834 1.427 . S
C1831 H1821 0.929 . S
C1831 C1829 1.433 . S
C1831 N1834 1.384 . S
C1832 H1823 0.929 . S
C1832 C1824 1.371 1_556 S
C1832 C1827 1.350 . S
C1833 H1820 0.929 . S
C1833 C1825 1.433 . S
C1833 N1835 1.384 1_554 S
N1834 C1830 1.427 . S
N1834 C1831 1.384 . S
N1835 C1827 1.427 . S
N1835 C1833 1.384 1_556 S
H1836 C1842 0.930 . S
H1837 C1846 0.930 . S
H1838 C1851 0.929 . S
H1839 C1849 0.929 . S
H1840 C1844 0.929 . S
H1841 C1850 0.929 . S
C1842 H1836 0.930 . S
C1842 C1843 1.367 . S
C1842 C1850 1.378 1_554 S
C1843 C1842 1.367 . S
C1843 C1851 1.433 . S
C1844 H1840 0.929 . S
C1844 C1846 1.378 . S
C1844 C1848 1.350 . S
C1845 C1848 1.463 . S
C1845 C1850 1.350 . S
C1845 N1853 1.427 . S
C1846 H1837 0.930 . S
C1846 C1844 1.378 . S
C1846 C1847 1.367 . S
C1847 C1846 1.367 . S
C1847 C1849 1.433 . S
C1848 C1844 1.350 . S
C1848 C1845 1.463 . S
C1848 N1852 1.427 . S
C1849 H1839 0.929 . S
C1849 C1847 1.433 . S
C1849 N1852 1.384 . S
C1850 H1841 0.929 . S
C1850 C1842 1.378 1_556 S
C1850 C1845 1.350 . S
C1851 H1838 0.929 . S
C1851 C1843 1.433 . S
C1851 N1853 1.384 1_554 S
N1852 C1848 1.427 . S
N1852 C1849 1.384 . S
N1853 C1845 1.427 . S
N1853 C1851 1.384 1_556 S
H1854 C1860 0.930 . S
H1855 C1864 0.930 . S
H1856 C1869 0.929 . S
H1857 C1867 0.929 . S
H1858 C1862 0.929 . S
H1859 C1868 0.929 . S
C1860 H1854 0.930 . S
C1860 C1861 1.367 . S
C1860 C1868 1.378 . S
C1861 C1860 1.367 . S
C1861 C1869 1.433 . S
C1862 H1858 0.929 . S
C1862 C1864 1.378 . S
C1862 C1866 1.350 . S
C1863 C1866 1.463 . S
C1863 C1868 1.350 . S
C1863 N1871 1.427 . S
C1864 H1855 0.930 . S
C1864 C1862 1.378 . S
C1864 C1865 1.367 . S
C1865 C1864 1.367 . S
C1865 C1867 1.433 . S
C1866 C1862 1.350 . S
C1866 C1863 1.463 . S
C1866 N1870 1.427 . S
C1867 H1857 0.929 . S
C1867 C1865 1.433 . S
C1867 N1870 1.384 . S
C1868 H1859 0.929 . S
C1868 C1860 1.378 . S
C1868 C1863 1.350 . S
C1869 H1856 0.929 . S
C1869 C1861 1.433 . S
C1869 N1871 1.384 . S
N1870 C1866 1.427 . S
N1870 C1867 1.384 . S
N1871 C1863 1.427 . S
N1871 C1869 1.384 . S
H1872 C1878 0.930 . S
H1873 C1882 0.930 . S
H1874 C1887 0.929 . S
H1875 C1885 0.929 . S
H1876 C1880 0.929 . S
H1877 C1886 0.929 . S
C1878 H1872 0.930 . S
C1878 C1879 1.367 . S
C1878 C1886 1.378 . S
C1879 C1878 1.367 . S
C1879 C1887 1.433 . S
C1880 H1876 0.929 . S
C1880 C1882 1.378 . S
C1880 C1884 1.350 . S
C1881 C1884 1.463 . S
C1881 C1886 1.350 . S
C1881 N1889 1.427 . S
C1882 H1873 0.930 . S
C1882 C1880 1.378 . S
C1882 C1883 1.367 . S
C1883 C1882 1.367 . S
C1883 C1885 1.433 . S
C1884 C1880 1.350 . S
C1884 C1881 1.463 . S
C1884 N1888 1.427 . S
C1885 H1875 0.929 . S
C1885 C1883 1.433 . S
C1885 N1888 1.384 . S
C1886 H1877 0.929 . S
C1886 C1878 1.378 . S
C1886 C1881 1.350 . S
C1887 H1874 0.929 . S
C1887 C1879 1.433 . S
C1887 N1889 1.384 . S
N1888 C1884 1.427 . S
N1888 C1885 1.384 . S
N1889 C1881 1.427 . S
N1889 C1887 1.384 . S
H1890 C1896 0.930 . S
H1891 C1900 0.930 . S
H1892 C1905 0.929 . S
H1893 C1903 0.929 . S
H1894 C1898 0.929 . S
H1895 C1904 0.929 . S
C1896 H1890 0.930 . S
C1896 C1897 1.367 . S
C1896 C1904 1.378 . S
C1897 C1896 1.367 . S
C1897 C1905 1.433 . S
C1898 H1894 0.929 . S
C1898 C1900 1.378 . S
C1898 C1902 1.350 . S
C1899 C1902 1.463 . S
C1899 C1904 1.350 . S
C1899 N1907 1.427 . S
C1900 H1891 0.930 . S
C1900 C1898 1.378 . S
C1900 C1901 1.367 . S
C1901 C1900 1.367 . S
C1901 C1903 1.433 . S
C1902 C1898 1.350 . S
C1902 C1899 1.463 . S
C1902 N1906 1.427 . S
C1903 H1893 0.929 . S
C1903 C1901 1.433 . S
C1903 N1906 1.384 . S
C1904 H1895 0.929 . S
C1904 C1896 1.378 . S
C1904 C1899 1.350 . S
C1905 H1892 0.929 . S
C1905 C1897 1.433 . S
C1905 N1907 1.384 . S
N1906 C1902 1.427 . S
N1906 C1903 1.384 . S
N1907 C1899 1.427 . S
N1907 C1905 1.384 . S
H1908 C1914 0.930 . S
H1909 C1918 0.930 . S
H1910 C1923 0.929 . S
H1911 C1921 0.935 . S
H1912 C1916 0.929 . S
H1913 C1922 0.929 . S
C1914 H1908 0.930 . S
C1914 C1915 1.367 . S
C1914 C1922 1.378 . S
C1915 C1914 1.367 . S
C1915 C1923 1.433 . S
C1916 H1912 0.929 . S
C1916 C1918 1.378 1_554 S
C1916 C1920 1.350 . S
C1917 C1920 1.463 . S
C1917 C1922 1.350 . S
C1917 N1925 1.427 . S
C1918 H1909 0.930 . S
C1918 C1916 1.378 1_556 S
C1918 C1919 1.367 . S
C1919 C1918 1.367 . S
C1919 C1921 1.440 . S
C1920 C1916 1.350 . S
C1920 C1917 1.463 . S
C1920 N1924 1.427 . S
C1921 H1911 0.935 . S
C1921 C1919 1.440 . S
C1921 N1924 1.371 1_556 S
C1922 H1913 0.929 . S
C1922 C1914 1.378 . S
C1922 C1917 1.350 . S
C1923 H1910 0.929 . S
C1923 C1915 1.433 . S
C1923 N1925 1.384 . S
N1924 C1920 1.427 . S
N1924 C1921 1.371 1_554 S
N1925 C1917 1.427 . S
N1925 C1923 1.384 . S
H1926 C1932 0.930 . S
H1927 C1936 0.930 . S
H1928 C1941 0.929 . S
H1929 C1939 0.929 . S
H1930 C1934 0.929 . S
H1931 C1940 0.929 . S
C1932 H1926 0.930 . S
C1932 C1933 1.367 . S
C1932 C1940 1.378 . S
C1933 C1932 1.367 . S
C1933 C1941 1.433 . S
C1934 H1930 0.929 . S
C1934 C1936 1.378 1_554 S
C1934 C1938 1.350 . S
C1935 C1938 1.463 . S
C1935 C1940 1.350 . S
C1935 N1943 1.427 . S
C1936 H1927 0.930 . S
C1936 C1934 1.378 1_556 S
C1936 C1937 1.367 . S
C1937 C1936 1.367 . S
C1937 C1939 1.433 . S
C1938 C1934 1.350 . S
C1938 C1935 1.463 . S
C1938 N1942 1.427 . S
C1939 H1929 0.929 . S
C1939 C1937 1.433 . S
C1939 N1942 1.384 1_556 S
C1940 H1931 0.929 . S
C1940 C1932 1.378 . S
C1940 C1935 1.350 . S
C1941 H1928 0.929 . S
C1941 C1933 1.433 . S
C1941 N1943 1.384 . S
N1942 C1938 1.427 . S
N1942 C1939 1.384 1_554 S
N1943 C1935 1.427 . S
N1943 C1941 1.384 . S
H1944 C1950 0.930 . S
H1945 C1954 0.930 . S
H1946 C1959 0.929 . S
H1947 C1957 0.929 . S
H1948 C1952 0.929 . S
H1949 C1958 0.929 . S
C1950 H1944 0.930 . S
C1950 C1951 1.367 . S
C1950 C1958 1.378 . S
C1951 C1950 1.367 . S
C1951 C1959 1.433 . S
C1952 H1948 0.929 . S
C1952 C1954 1.378 1_554 S
C1952 C1956 1.350 . S
C1953 C1956 1.463 . S
C1953 C1958 1.350 . S
C1953 N1961 1.427 . S
C1954 H1945 0.930 . S
C1954 C1952 1.378 1_556 S
C1954 C1955 1.367 . S
C1955 C1954 1.367 . S
C1955 C1957 1.433 1_556 S
C1956 C1952 1.350 . S
C1956 C1953 1.463 . S
C1956 N1960 1.427 . S
C1957 H1947 0.929 . S
C1957 C1955 1.433 1_554 S
C1957 N1960 1.384 . S
C1958 H1949 0.929 . S
C1958 C1950 1.378 . S
C1958 C1953 1.350 . S
C1959 H1946 0.929 . S
C1959 C1951 1.433 . S
C1959 N1961 1.384 . S
N1960 C1956 1.427 . S
N1960 C1957 1.384 . S
N1961 C1953 1.427 . S
N1961 C1959 1.384 . S
H1962 C1968 0.930 . S
H1963 C1972 0.930 . S
H1964 C1977 0.929 . S
H1965 C1975 0.929 . S
H1966 C1970 0.929 . S
H1967 C1976 0.929 . S
C1968 H1962 0.930 . S
C1968 C1969 1.367 . S
C1968 C1976 1.378 . S
C1969 C1968 1.367 . S
C1969 C1977 1.433 . S
C1970 H1966 0.929 . S
C1970 C1972 1.378 . S
C1970 C1974 1.350 . S
C1971 C1974 1.463 . S
C1971 C1976 1.350 . S
C1971 N1979 1.427 . S
C1972 H1963 0.930 . S
C1972 C1970 1.378 . S
C1972 C1973 1.367 . S
C1973 C1972 1.367 . S
C1973 C1975 1.433 . S
C1974 C1970 1.350 . S
C1974 C1971 1.463 . S
C1974 N1978 1.427 . S
C1975 H1965 0.929 . S
C1975 C1973 1.433 . S
C1975 N1978 1.384 . S
C1976 H1967 0.929 . S
C1976 C1968 1.378 . S
C1976 C1971 1.350 . S
C1977 H1964 0.929 . S
C1977 C1969 1.433 . S
C1977 N1979 1.384 . S
N1978 C1974 1.427 . S
N1978 C1975 1.384 . S
N1979 C1971 1.427 . S
N1979 C1977 1.384 . S
H1980 C1986 0.930 . S
H1981 C1990 0.930 . S
H1982 C1995 0.929 . S
H1983 C1993 0.929 . S
H1984 C1988 0.929 . S
H1985 C1994 0.929 . S
C1986 H1980 0.930 . S
C1986 C1987 1.367 . S
C1986 C1994 1.378 . S
C1987 C1986 1.367 . S
C1987 C1995 1.433 . S
C1988 H1984 0.929 . S
C1988 C1990 1.378 . S
C1988 C1992 1.350 . S
C1989 C1992 1.463 . S
C1989 C1994 1.350 . S
C1989 N1997 1.427 . S
C1990 H1981 0.930 . S
C1990 C1988 1.378 . S
C1990 C1991 1.367 . S
C1991 C1990 1.367 . S
C1991 C1993 1.433 . S
C1992 C1988 1.350 . S
C1992 C1989 1.463 . S
C1992 N1996 1.427 . S
C1993 H1983 0.929 . S
C1993 C1991 1.433 . S
C1993 N1996 1.384 . S
C1994 H1985 0.929 . S
C1994 C1986 1.378 . S
C1994 C1989 1.350 . S
C1995 H1982 0.929 . S
C1995 C1987 1.433 . S
C1995 N1997 1.384 . S
N1996 C1992 1.427 . S
N1996 C1993 1.384 . S
N1997 C1989 1.427 . S
N1997 C1995 1.384 . S
H1998 C2004 0.930 . S
H1999 C2008 0.930 . S
H2000 C2013 0.929 . S
H2001 C2011 0.929 . S
H2002 C2006 0.929 . S
H2003 C2012 0.929 . S
C2004 H1998 0.930 . S
C2004 C2005 1.367 . S
C2004 C2012 1.378 . S
C2005 C2004 1.367 . S
C2005 C2013 1.433 . S
C2006 H2002 0.929 . S
C2006 C2008 1.378 . S
C2006 C2010 1.350 . S
C2007 C2010 1.463 . S
C2007 C2012 1.350 . S
C2007 N2015 1.427 . S
C2008 H1999 0.930 . S
C2008 C2006 1.378 . S
C2008 C2009 1.367 . S
C2009 C2008 1.367 . S
C2009 C2011 1.433 . S
C2010 C2006 1.350 . S
C2010 C2007 1.463 . S
C2010 N2014 1.427 . S
C2011 H2001 0.929 . S
C2011 C2009 1.433 . S
C2011 N2014 1.384 . S
C2012 H2003 0.929 . S
C2012 C2004 1.378 . S
C2012 C2007 1.350 . S
C2013 H2000 0.929 . S
C2013 C2005 1.433 . S
C2013 N2015 1.384 . S
N2014 C2010 1.427 . S
N2014 C2011 1.384 . S
N2015 C2007 1.427 . S
N2015 C2013 1.384 . S
H2016 C2022 0.930 . S
H2017 C2026 0.930 . S
H2018 C2031 0.929 . S
H2019 C2029 0.929 . S
H2020 C2024 0.929 . S
H2021 C2030 0.929 . S
C2022 H2016 0.930 . S
C2022 C2023 1.367 . S
C2022 C2030 1.378 . S
C2023 C2022 1.367 . S
C2023 C2031 1.433 . S
C2024 H2020 0.929 . S
C2024 C2026 1.378 . S
C2024 C2028 1.350 . S
C2025 C2028 1.463 . S
C2025 C2030 1.350 . S
C2025 N2033 1.427 . S
C2026 H2017 0.930 . S
C2026 C2024 1.378 . S
C2026 C2027 1.367 . S
C2027 C2026 1.367 . S
C2027 C2029 1.433 . S
C2028 C2024 1.350 . S
C2028 C2025 1.463 . S
C2028 N2032 1.427 . S
C2029 H2019 0.929 . S
C2029 C2027 1.433 . S
C2029 N2032 1.384 . S
C2030 H2021 0.929 . S
C2030 C2022 1.378 . S
C2030 C2025 1.350 . S
C2031 H2018 0.929 . S
C2031 C2023 1.433 . S
C2031 N2033 1.384 . S
N2032 C2028 1.427 . S
N2032 C2029 1.384 . S
N2033 C2025 1.427 . S
N2033 C2031 1.384 . S
H2034 C2040 0.930 . S
H2035 C2044 0.930 . S
H2036 C2049 0.929 . S
H2037 C2047 0.929 . S
H2038 C2042 0.929 . S
H2039 C2048 0.929 . S
C2040 H2034 0.930 . S
C2040 C2041 1.367 . S
C2040 C2048 1.378 . S
C2041 C2040 1.367 . S
C2041 C2049 1.433 . S
C2042 H2038 0.929 . S
C2042 C2044 1.378 . S
C2042 C2046 1.350 . S
C2043 C2046 1.463 . S
C2043 C2048 1.350 . S
C2043 N2051 1.427 . S
C2044 H2035 0.930 . S
C2044 C2042 1.378 . S
C2044 C2045 1.367 . S
C2045 C2044 1.367 . S
C2045 C2047 1.433 . S
C2046 C2042 1.350 . S
C2046 C2043 1.463 . S
C2046 N2050 1.427 . S
C2047 H2037 0.929 . S
C2047 C2045 1.433 . S
C2047 N2050 1.384 . S
C2048 H2039 0.929 . S
C2048 C2040 1.378 . S
C2048 C2043 1.350 . S
C2049 H2036 0.929 . S
C2049 C2041 1.433 . S
C2049 N2051 1.384 . S
N2050 C2046 1.427 . S
N2050 C2047 1.384 . S
N2051 C2043 1.427 . S
N2051 C2049 1.384 . S
H2052 C2058 0.930 . S
H2053 C2062 0.930 . S
H2054 C2067 0.929 . S
H2055 C2065 0.929 . S
H2056 C2060 0.929 . S
H2057 C2066 0.929 . S
C2058 H2052 0.930 . S
C2058 C2059 1.367 . S
C2058 C2066 1.378 . S
C2059 C2058 1.367 . S
C2059 C2067 1.433 1_565 S
C2060 H2056 0.929 . S
C2060 C2062 1.378 . S
C2060 C2064 1.350 1_545 S
C2061 C2064 1.463 . S
C2061 C2066 1.350 . S
C2061 N2069 1.427 1_565 S
C2062 H2053 0.930 . S
C2062 C2060 1.378 . S
C2062 C2063 1.367 1_545 S
C2063 C2062 1.367 1_565 S
C2063 C2065 1.433 . S
C2064 C2060 1.350 1_565 S
C2064 C2061 1.463 . S
C2064 N2068 1.427 . S
C2065 H2055 0.929 . S
C2065 C2063 1.433 . S
C2065 N2068 1.384 . S
C2066 H2057 0.929 . S
C2066 C2058 1.378 . S
C2066 C2061 1.350 . S
C2067 H2054 0.929 . S
C2067 C2059 1.433 1_545 S
C2067 N2069 1.384 . S
N2068 C2064 1.427 . S
N2068 C2065 1.384 . S
N2069 C2061 1.427 1_545 S
N2069 C2067 1.384 . S
H2070 C2076 0.930 . S
H2071 C2080 0.930 . S
H2072 C2085 0.929 . S
H2073 C2083 0.929 . S
H2074 C2078 0.929 . S
H2075 C2084 0.929 . S
C2076 H2070 0.930 . S
C2076 C2077 1.367 . S
C2076 C2084 1.378 . S
C2077 C2076 1.367 . S
C2077 C2085 1.433 . S
C2078 H2074 0.929 . S
C2078 C2080 1.378 . S
C2078 C2082 1.350 1_545 S
C2079 C2082 1.463 . S
C2079 C2084 1.350 . S
C2079 N2087 1.458 . S
C2080 H2071 0.930 . S
C2080 C2078 1.378 . S
C2080 C2081 1.367 . S
C2081 C2080 1.367 . S
C2081 C2083 1.433 1_545 S
C2082 C2078 1.350 1_565 S
C2082 C2079 1.463 . S
C2082 N2086 1.427 . S
C2083 H2073 0.929 . S
C2083 C2081 1.433 1_565 S
C2083 N2086 1.384 . S
C2084 H2075 0.929 . S
C2084 C2076 1.378 . S
C2084 C2079 1.350 . S
C2085 H2072 0.929 . S
C2085 C2077 1.433 . S
C2085 N2087 1.423 . S
N2086 C2082 1.427 . S
N2086 C2083 1.384 . S
N2087 C2079 1.458 . S
N2087 C2085 1.423 . S
H2088 C2094 0.930 . S
H2089 C2098 0.930 . S
H2090 C2103 0.929 . S
H2091 C2101 0.928 1_655 S
H2092 C2096 0.929 . S
H2093 C2102 0.984 . S
C2094 H2088 0.930 . S
C2094 C2095 1.314 1_655 S
C2094 C2102 1.385 . S
C2095 C2094 1.314 1_455 S
C2095 C2103 1.496 . S
C2096 H2092 0.929 . S
C2096 C2098 1.378 . S
C2096 C2100 1.350 . S
C2097 C2100 1.463 . S
C2097 C2102 1.294 1_455 S
C2097 N2105 1.427 . S
C2098 H2089 0.930 . S
C2098 C2096 1.378 . S
C2098 C2099 1.367 . S
C2099 C2098 1.367 . S
C2099 C2101 1.433 . S
C2100 C2096 1.350 . S
C2100 C2097 1.463 . S
C2100 N2104 1.480 . S
C2101 H2091 0.928 1_455 S
C2101 C2099 1.433 . S
C2101 N2104 1.390 . S
C2102 H2093 0.984 . S
C2102 C2094 1.385 . S
C2102 C2097 1.294 1_655 S
C2103 H2090 0.929 . S
C2103 C2095 1.496 . S
C2103 N2105 1.384 . S
N2104 C2100 1.480 . S
N2104 C2101 1.390 . S
N2105 C2097 1.427 . S
N2105 C2103 1.384 . S
H2106 C2112 0.930 . S
H2107 C2116 0.930 . S
H2108 C2121 0.929 . S
H2109 C2119 0.929 . S
H2110 C2114 0.929 . S
H2111 C2120 0.929 . S
C2112 H2106 0.930 . S
C2112 C2113 1.367 . S
C2112 C2120 1.378 . S
C2113 C2112 1.367 . S
C2113 C2121 1.433 . S
C2114 H2110 0.929 . S
C2114 C2116 1.378 . S
C2114 C2118 1.350 . S
C2115 C2118 1.463 . S
C2115 C2120 1.350 . S
C2115 N2123 1.427 . S
C2116 H2107 0.930 . S
C2116 C2114 1.378 . S
C2116 C2117 1.367 . S
C2117 C2116 1.367 . S
C2117 C2119 1.433 . S
C2118 C2114 1.350 . S
C2118 C2115 1.463 . S
C2118 N2122 1.427 . S
C2119 H2109 0.929 . S
C2119 C2117 1.433 . S
C2119 N2122 1.384 . S
C2120 H2111 0.929 . S
C2120 C2112 1.378 . S
C2120 C2115 1.350 . S
C2121 H2108 0.929 . S
C2121 C2113 1.433 . S
C2121 N2123 1.384 . S
N2122 C2118 1.427 . S
N2122 C2119 1.384 . S
N2123 C2115 1.427 . S
N2123 C2121 1.384 . S
C835 C384 2.136 . S
C839 C16 2.139 . S
C853 C407 2.134 . S
C857 C39 2.138 . S
C871 C361 2.149 . S
C875 C62 2.153 . S
C889 C614 2.120 . S
C893 C85 2.116 . S
C907 C108 2.105 . S
C911 C568 2.106 . S
C925 C131 2.106 . S
C929 C591 2.103 . S
C943 C154 2.135 . S
C947 C798 2.137 . S
C961 C821 2.140 . S
C965 C177 2.137 . S
C979 N771 0.960 . S
C983 N196 0.951 . S
C997 N219 0.939 . S
C1001 N472 0.922 . S
C1015 C430 2.107 . S
C1019 C246 2.103 . S
C1033 C269 2.107 . S
C1037 C453 2.106 . S
C1051 C660 2.017 . S
C1055 C292 2.015 . S
C1069 C315 2.026 . S
C1073 C683 2.021 . S
C1087 C637 2.034 . S
C1091 C338 2.035 . S
C1105 N748 0.878 . S
C1109 N495 0.859 . S
C1123 C706 2.018 . S
C1127 C522 2.015 . S
C1141 C545 2.024 . S
C1145 C729 2.019 . S
C1159 N416 1.660 . S
C1163 N2 1.665 . S
C1177 N439 1.665 . S
C1181 N25 1.664 . S
C1195 C467 1.703 . S
C1199 N48 1.589 . S
C1213 N71 1.591 . S
C1217 C766 1.707 . S
C1231 N94 1.661 . S
C1235 N784 1.660 . S
C1249 N117 1.658 . S
C1253 N807 1.650 . S
C1267 N140 1.640 . S
C1271 N554 1.649 . S
C1285 N577 1.665 . S
C1289 N163 1.663 . S
C1303 N600 1.579 . S
C1307 C191 1.695 . S
C1321 N347 1.592 . S
C1325 C214 1.707 . S
C1339 N232 1.660 . S
C1343 N370 1.659 . S
C1357 N255 1.653 . S
C1361 N393 1.658 . S
C1375 N278 1.641 . S
C1379 N692 1.635 . S
C1393 N715 1.646 . S
C1397 N301 1.646 . S
C1411 C743 1.686 . S
C1415 N324 1.577 . S
C1429 N623 1.603 . S
C1433 C490 1.737 . S
C1447 N508 1.679 . S
C1451 N646 1.678 . S
C1465 N531 1.691 . S
C1469 N669 1.696 . S
C1483 N633 1.664 . S
C1487 N12 1.656 . S
C1501 N35 1.698 . S
C1505 N656 1.702 . S
C1519 N58 1.663 . S
C1523 N679 1.667 . S
C1537 N288 1.637 . S
C1541 N81 1.639 . S
C1555 N104 1.682 . S
C1559 N311 1.681 . S
C1573 N127 1.646 . S
C1577 N334 1.644 . S
C1591 C499 1.675 . S
C1595 N150 1.677 . S
C1609 N173 1.706 . S
C1613 N518 1.708 . S
C1627 N541 1.674 . S
C1631 C200 1.667 . S
C1645 C223 1.647 . S
C1649 N702 1.636 . S
C1663 N725 1.681 . S
C1667 N242 1.682 . S
C1681 C752 1.640 . S
C1685 N265 1.637 . S
C1699 N564 1.654 . S
C1703 N357 1.655 . S
C1717 N587 1.692 . S
C1721 N380 1.693 . S
C1735 N610 1.657 . S
C1739 N403 1.657 . S
C1753 N426 1.657 . S
C1757 C775 1.654 . S
C1771 N794 1.684 . S
C1775 N449 1.685 . S
C1789 N817 1.657 . S
C1793 C476 1.659 . S
C1807 C7 1.331 . S
C1811 C375 1.329 . S
C1825 C30 1.328 . S
C1829 C398 1.332 . S
C1843 C53 1.315 . S
C1847 C352 1.312 . S
C1861 C605 1.346 . S
C1865 C76 1.349 . S
C1879 C559 1.365 . S
C1883 C99 1.362 . S
C1897 C582 1.366 . S
C1901 C122 1.362 . S
C1915 C789 1.328 . S
C1919 C145 1.331 . S
C1933 C812 1.325 . S
C1937 C168 1.330 . S
C1951 N761 0.561 . S
C1955 N186 0.547 . S
C1969 N209 0.596 . S
C1973 N462 0.602 . S
C1987 C237 1.366 . S
C1991 C421 1.364 . S
C2005 C260 1.363 . S
C2009 C444 1.363 . S
C2023 C651 1.449 . S
C2027 C283 1.458 . S
C2041 C674 1.448 . S
C2045 C306 1.450 . S
C2059 C329 1.432 . S
C2063 C628 1.431 . S
C2077 N485 0.605 . S
C2081 N738 0.610 . S
C2095 C697 1.455 . S
C2099 C513 1.452 . S
C2113 C720 1.451 . S
C2117 C536 1.451 . S
