# Generated by pormake.
# Topology uow, (4)-cn, num edge types: 1
# Building blocks:
#     Node 0, Type 0, BuildingBlock: NAHDIM_clean_sbu_0, # of connection points: 4
#     Node 1, Type 0, BuildingBlock: NAHDIM_clean_sbu_0, # of connection points: 4
#     Node 2, Type 0, BuildingBlock: NAHDIM_clean_sbu_0, # of connection points: 4
#     Node 3, Type 0, BuildingBlock: NAHDIM_clean_sbu_0, # of connection points: 4
#     Node 4, Type 0, BuildingBlock: NAHDIM_clean_sbu_0, # of connection points: 4
#     Node 5, Type 0, BuildingBlock: NAHDIM_clean_sbu_0, # of connection points: 4
#     Node 6, Type 0, BuildingBlock: NAHDIM_clean_sbu_0, # of connection points: 4
#     Node 7, Type 0, BuildingBlock: NAHDIM_clean_sbu_0, # of connection points: 4
#     Node 8, Type 0, BuildingBlock: NAHDIM_clean_sbu_0, # of connection points: 4
#     Node 9, Type 0, BuildingBlock: NAHDIM_clean_sbu_0, # of connection points: 4
#     Node 10, Type 0, BuildingBlock: NAHDIM_clean_sbu_0, # of connection points: 4
#     Node 11, Type 0, BuildingBlock: NAHDIM_clean_sbu_0, # of connection points: 4
#     Node 12, Type 0, BuildingBlock: NAHDIM_clean_sbu_0, # of connection points: 4
#     Node 13, Type 0, BuildingBlock: NAHDIM_clean_sbu_0, # of connection points: 4
#     Node 14, Type 0, BuildingBlock: NAHDIM_clean_sbu_0, # of connection points: 4
#     Node 15, Type 0, BuildingBlock: NAHDIM_clean_sbu_0, # of connection points: 4
#     Node 16, Type 0, BuildingBlock: NAHDIM_clean_sbu_0, # of connection points: 4
#     Node 17, Type 0, BuildingBlock: NAHDIM_clean_sbu_0, # of connection points: 4
#     Node 18, Type 0, BuildingBlock: NAHDIM_clean_sbu_0, # of connection points: 4
#     Node 19, Type 0, BuildingBlock: NAHDIM_clean_sbu_0, # of connection points: 4
#     Node 20, Type 0, BuildingBlock: NAHDIM_clean_sbu_0, # of connection points: 4
#     Node 21, Type 0, BuildingBlock: NAHDIM_clean_sbu_0, # of connection points: 4
#     Node 22, Type 0, BuildingBlock: NAHDIM_clean_sbu_0, # of connection points: 4
#     Node 23, Type 0, BuildingBlock: NAHDIM_clean_sbu_0, # of connection points: 4
#     Node 24, Type 0, BuildingBlock: NAHDIM_clean_sbu_0, # of connection points: 4
#     Node 25, Type 0, BuildingBlock: NAHDIM_clean_sbu_0, # of connection points: 4
#     Node 26, Type 0, BuildingBlock: NAHDIM_clean_sbu_0, # of connection points: 4
#     Node 27, Type 0, BuildingBlock: NAHDIM_clean_sbu_0, # of connection points: 4
#     Node 28, Type 0, BuildingBlock: NAHDIM_clean_sbu_0, # of connection points: 4
#     Node 29, Type 0, BuildingBlock: NAHDIM_clean_sbu_0, # of connection points: 4
#     Node 30, Type 0, BuildingBlock: NAHDIM_clean_sbu_0, # of connection points: 4
#     Node 31, Type 0, BuildingBlock: NAHDIM_clean_sbu_0, # of connection points: 4
#     Edge 32, Type (0, 0), BuildingBlock: UVAHIK_clean_linker_0, # of connection points: 2
#     Edge 33, Type (0, 0), BuildingBlock: UVAHIK_clean_linker_0, # of connection points: 2
#     Edge 34, Type (0, 0), BuildingBlock: UVAHIK_clean_linker_0, # of connection points: 2
#     Edge 35, Type (0, 0), BuildingBlock: UVAHIK_clean_linker_0, # of connection points: 2
#     Edge 36, Type (0, 0), BuildingBlock: UVAHIK_clean_linker_0, # of connection points: 2
#     Edge 37, Type (0, 0), BuildingBlock: UVAHIK_clean_linker_0, # of connection points: 2
#     Edge 38, Type (0, 0), BuildingBlock: UVAHIK_clean_linker_0, # of connection points: 2
#     Edge 39, Type (0, 0), BuildingBlock: UVAHIK_clean_linker_0, # of connection points: 2
#     Edge 40, Type (0, 0), BuildingBlock: UVAHIK_clean_linker_0, # of connection points: 2
#     Edge 41, Type (0, 0), BuildingBlock: UVAHIK_clean_linker_0, # of connection points: 2
#     Edge 42, Type (0, 0), BuildingBlock: UVAHIK_clean_linker_0, # of connection points: 2
#     Edge 43, Type (0, 0), BuildingBlock: UVAHIK_clean_linker_0, # of connection points: 2
#     Edge 44, Type (0, 0), BuildingBlock: UVAHIK_clean_linker_0, # of connection points: 2
#     Edge 45, Type (0, 0), BuildingBlock: UVAHIK_clean_linker_0, # of connection points: 2
#     Edge 46, Type (0, 0), BuildingBlock: UVAHIK_clean_linker_0, # of connection points: 2
#     Edge 47, Type (0, 0), BuildingBlock: UVAHIK_clean_linker_0, # of connection points: 2
#     Edge 48, Type (0, 0), BuildingBlock: UVAHIK_clean_linker_0, # of connection points: 2
#     Edge 49, Type (0, 0), BuildingBlock: UVAHIK_clean_linker_0, # of connection points: 2
#     Edge 50, Type (0, 0), BuildingBlock: UVAHIK_clean_linker_0, # of connection points: 2
#     Edge 51, Type (0, 0), BuildingBlock: UVAHIK_clean_linker_0, # of connection points: 2
#     Edge 52, Type (0, 0), BuildingBlock: UVAHIK_clean_linker_0, # of connection points: 2
#     Edge 53, Type (0, 0), BuildingBlock: UVAHIK_clean_linker_0, # of connection points: 2
#     Edge 54, Type (0, 0), BuildingBlock: UVAHIK_clean_linker_0, # of connection points: 2
#     Edge 55, Type (0, 0), BuildingBlock: UVAHIK_clean_linker_0, # of connection points: 2
#     Edge 56, Type (0, 0), BuildingBlock: UVAHIK_clean_linker_0, # of connection points: 2
#     Edge 57, Type (0, 0), BuildingBlock: UVAHIK_clean_linker_0, # of connection points: 2
#     Edge 58, Type (0, 0), BuildingBlock: UVAHIK_clean_linker_0, # of connection points: 2
#     Edge 59, Type (0, 0), BuildingBlock: UVAHIK_clean_linker_0, # of connection points: 2
#     Edge 60, Type (0, 0), BuildingBlock: UVAHIK_clean_linker_0, # of connection points: 2
#     Edge 61, Type (0, 0), BuildingBlock: UVAHIK_clean_linker_0, # of connection points: 2
#     Edge 62, Type (0, 0), BuildingBlock: UVAHIK_clean_linker_0, # of connection points: 2
#     Edge 63, Type (0, 0), BuildingBlock: UVAHIK_clean_linker_0, # of connection points: 2
#     Edge 64, Type (0, 0), BuildingBlock: UVAHIK_clean_linker_0, # of connection points: 2
#     Edge 65, Type (0, 0), BuildingBlock: UVAHIK_clean_linker_0, # of connection points: 2
#     Edge 66, Type (0, 0), BuildingBlock: UVAHIK_clean_linker_0, # of connection points: 2
#     Edge 67, Type (0, 0), BuildingBlock: UVAHIK_clean_linker_0, # of connection points: 2
#     Edge 68, Type (0, 0), BuildingBlock: UVAHIK_clean_linker_0, # of connection points: 2
#     Edge 69, Type (0, 0), BuildingBlock: UVAHIK_clean_linker_0, # of connection points: 2
#     Edge 70, Type (0, 0), BuildingBlock: UVAHIK_clean_linker_0, # of connection points: 2
#     Edge 71, Type (0, 0), BuildingBlock: UVAHIK_clean_linker_0, # of connection points: 2
#     Edge 72, Type (0, 0), BuildingBlock: UVAHIK_clean_linker_0, # of connection points: 2
#     Edge 73, Type (0, 0), BuildingBlock: UVAHIK_clean_linker_0, # of connection points: 2
#     Edge 74, Type (0, 0), BuildingBlock: UVAHIK_clean_linker_0, # of connection points: 2
#     Edge 75, Type (0, 0), BuildingBlock: UVAHIK_clean_linker_0, # of connection points: 2
#     Edge 76, Type (0, 0), BuildingBlock: UVAHIK_clean_linker_0, # of connection points: 2
#     Edge 77, Type (0, 0), BuildingBlock: UVAHIK_clean_linker_0, # of connection points: 2
#     Edge 78, Type (0, 0), BuildingBlock: UVAHIK_clean_linker_0, # of connection points: 2
#     Edge 79, Type (0, 0), BuildingBlock: UVAHIK_clean_linker_0, # of connection points: 2
#     Edge 80, Type (0, 0), BuildingBlock: UVAHIK_clean_linker_0, # of connection points: 2
#     Edge 81, Type (0, 0), BuildingBlock: UVAHIK_clean_linker_0, # of connection points: 2
#     Edge 82, Type (0, 0), BuildingBlock: UVAHIK_clean_linker_0, # of connection points: 2
#     Edge 83, Type (0, 0), BuildingBlock: UVAHIK_clean_linker_0, # of connection points: 2
#     Edge 84, Type (0, 0), BuildingBlock: UVAHIK_clean_linker_0, # of connection points: 2
#     Edge 85, Type (0, 0), BuildingBlock: UVAHIK_clean_linker_0, # of connection points: 2
#     Edge 86, Type (0, 0), BuildingBlock: UVAHIK_clean_linker_0, # of connection points: 2
#     Edge 87, Type (0, 0), BuildingBlock: UVAHIK_clean_linker_0, # of connection points: 2
#     Edge 88, Type (0, 0), BuildingBlock: UVAHIK_clean_linker_0, # of connection points: 2
#     Edge 89, Type (0, 0), BuildingBlock: UVAHIK_clean_linker_0, # of connection points: 2
#     Edge 90, Type (0, 0), BuildingBlock: UVAHIK_clean_linker_0, # of connection points: 2
#     Edge 91, Type (0, 0), BuildingBlock: UVAHIK_clean_linker_0, # of connection points: 2
#     Edge 92, Type (0, 0), BuildingBlock: UVAHIK_clean_linker_0, # of connection points: 2
#     Edge 93, Type (0, 0), BuildingBlock: UVAHIK_clean_linker_0, # of connection points: 2
#     Edge 94, Type (0, 0), BuildingBlock: UVAHIK_clean_linker_0, # of connection points: 2
#     Edge 95, Type (0, 0), BuildingBlock: UVAHIK_clean_linker_0, # of connection points: 2
# Relax obj value: 0.217
# Max RMSD: 0.240
# Mean RMSD: 0.240
data_MOF--net-uow--node1-NAHDIM_clean_sbu_0--edge1-UVAHIK_clean_linker_0
_symmetry_space_group_name_H-M    P1
_symmetry_Int_Tables_number       1
_symmetry_cell_setting            triclinic
loop_
_symmetry_equiv_pos_as_xyz
'x, y, z'
_cell_length_a     79.43148
_cell_length_b     79.453844
_cell_length_c     50.664403
_cell_angle_alpha  89.988082
_cell_angle_beta   90.000815
_cell_angle_gamma 90.00134
loop_
_atom_site_label
_atom_site_type_symbol
_atom_site_fract_x
_atom_site_fract_y
_atom_site_fract_z
_atom_type_partial_charge
C0 C 0.0378 0.4146 0.25273 0.0
O1 O 0.02806 0.40555 0.2373 0.0
O2 O 0.0146 0.3809 0.29598 0.0
Zn3 Zn 0.03787 0.3838 0.28093 0.0
O4 O 0.03985 0.37136 0.2467 0.0
C5 C 0.05534 0.37594 0.33021 0.0
O6 O 0.04457 0.38639 0.34108 0.0
O7 O 0.04337 0.40808 0.27392 0.0
C8 C 0.03786 0.35554 0.24496 0.0
O9 O 0.03384 0.34691 0.26616 0.0
C10 C 0.0019 0.378 0.28141 0.0
O11 O 0.00381 0.37759 0.25567 0.0
O12 O 0.0548 0.37345 0.30546 0.0
C13 C 0.83423 0.82835 0.56339 0.0
O14 O 0.84213 0.81909 0.58094 0.0
O15 O 0.86974 0.80273 0.54106 0.0
Zn16 Zn 0.86621 0.82754 0.53503 0.0
O17 O 0.86991 0.83244 0.49658 0.0
C18 C 0.88584 0.83701 0.58057 0.0
O19 O 0.87671 0.82536 0.5921 0.0
O20 O 0.84227 0.83379 0.54346 0.0
C21 C 0.87914 0.82313 0.48222 0.0
O22 O 0.88685 0.81017 0.49288 0.0
C23 C 0.85828 0.79179 0.53755 0.0
O24 O 0.8432 0.7966 0.53006 0.0
O25 O 0.88318 0.84046 0.55643 0.0
C26 C 0.44062 0.58599 0.81365 0.0
O27 O 0.45542 0.59027 0.82306 0.0
O28 O 0.45928 0.62642 0.82205 0.0
Zn29 Zn 0.43613 0.62204 0.80739 0.0
O30 O 0.43565 0.62916 0.76951 0.0
C31 C 0.41704 0.63664 0.85117 0.0
O32 O 0.4266 0.62726 0.86638 0.0
O33 O 0.43015 0.59743 0.80755 0.0
C34 C 0.44041 0.64357 0.76165 0.0
O35 O 0.44625 0.65446 0.7789 0.0
C36 C 0.47223 0.62337 0.80809 0.0
O37 O 0.47028 0.61701 0.78434 0.0
O38 O 0.4189 0.63596 0.82629 0.0
C39 C 0.66437 0.1604 0.07924 0.0
O40 O 0.65698 0.17036 0.09638 0.0
O41 O 0.62627 0.18284 0.06506 0.0
Zn42 Zn 0.63131 0.15906 0.05447 0.0
O43 O 0.62755 0.15738 0.0155 0.0
C44 C 0.61485 0.14244 0.09829 0.0
O45 O 0.62627 0.15033 0.11239 0.0
O46 O 0.65562 0.15363 0.06112 0.0
C47 C 0.61292 0.15674 0.00547 0.0
O48 O 0.5997 0.15686 0.02106 0.0
C49 C 0.63556 0.19513 0.05828 0.0
O50 O 0.64922 0.19226 0.04435 0.0
O51 O 0.61519 0.14376 0.07331 0.0
C52 C 0.08248 0.58391 0.18866 0.0
O53 O 0.07429 0.5921 0.17015 0.0
O54 O 0.06151 0.62333 0.20292 0.0
Zn55 Zn 0.08495 0.61681 0.21382 0.0
O56 O 0.08715 0.62123 0.25255 0.0
C57 C 0.10323 0.63176 0.16967 0.0
O58 O 0.09515 0.62062 0.15532 0.0
O59 O 0.08872 0.59206 0.20789 0.0
C60 C 0.08628 0.63615 0.26147 0.0
O61 O 0.084 0.64869 0.24495 0.0
C62 C 0.04878 0.61388 0.20625 0.0
O63 O 0.05071 0.59901 0.21718 0.0
O64 O 0.10129 0.63172 0.19456 0.0
C65 C 0.66005 0.80058 0.51235 0.0
O66 O 0.65036 0.79207 0.52857 0.0
O67 O 0.62505 0.77965 0.46517 0.0
Zn68 Zn 0.62944 0.80189 0.48266 0.0
O69 O 0.61597 0.80373 0.51608 0.0
C70 C 0.62183 0.81866 0.4335 0.0
O71 O 0.63044 0.80613 0.4233 0.0
O72 O 0.65396 0.80581 0.49063 0.0
C73 C 0.61125 0.79153 0.53053 0.0
O74 O 0.61531 0.77607 0.52396 0.0
C75 C 0.63246 0.76564 0.46856 0.0
O76 O 0.64494 0.76455 0.48548 0.0
O77 O 0.62051 0.81978 0.45843 0.0
C78 C 0.42844 0.42599 0.68695 0.0
O79 O 0.44258 0.41977 0.67772 0.0
O80 O 0.44307 0.3852 0.67825 0.0
Zn81 Zn 0.41946 0.39097 0.6899 0.0
O82 O 0.41602 0.38197 0.72642 0.0
C83 C 0.40526 0.37874 0.64116 0.0
O84 O 0.41817 0.38664 0.63069 0.0
O85 O 0.41629 0.41609 0.69194 0.0
C86 C 0.4152 0.36631 0.73128 0.0
O87 O 0.41629 0.35552 0.71171 0.0
C88 C 0.45483 0.38307 0.69495 0.0
O89 O 0.45151 0.38453 0.72024 0.0
O90 O 0.4029 0.37966 0.66591 0.0
C91 C 0.83369 0.20077 0.01245 0.0
O92 O 0.84318 0.20926 0.02899 0.0
O93 O 0.86282 0.22947 0.96822 0.0
Zn94 Zn 0.86251 0.20515 0.97942 0.0
O95 O 0.87784 0.20106 0.01025 0.0
C96 C 0.86793 0.19255 0.92574 0.0
O97 O 0.85749 0.2045 0.91844 0.0
O98 O 0.8392 0.19769 0.9894 0.0
C99 C 0.89143 0.20893 0.01503 0.0
O100 O 0.89611 0.22135 -0.00043 0.0
C101 C 0.86309 0.24172 0.98435 0.0
O102 O 0.86274 0.23869 0.00983 0.0
O103 O 0.87135 0.1907 0.95006 0.0
C104 C 0.9032 0.57044 0.64667 0.0
O105 O 0.91291 0.57585 0.62746 0.0
O106 O 0.93074 0.60374 0.65486 0.0
Zn107 Zn 0.9059 0.60469 0.66285 0.0
O108 O 0.90301 0.61394 0.69935 0.0
C109 C 0.90163 0.62487 0.61631 0.0
O110 O 0.9164 0.61842 0.61053 0.0
O111 O 0.89733 0.58101 0.66304 0.0
C112 C 0.90959 0.62786 0.70611 0.0
O113 O 0.91795 0.63667 0.6885 0.0
C114 C 0.94173 0.60129 0.67269 0.0
O115 O 0.93693 0.59943 0.69732 0.0
O116 O 0.89413 0.62004 0.63713 0.0
C117 C 0.1663 0.20592 0.5034 0.0
O118 O 0.15556 0.2138 0.51876 0.0
O119 O 0.13667 0.23117 0.45359 0.0
Zn120 Zn 0.13848 0.20748 0.46754 0.0
O121 O 0.12235 0.20367 0.4975 0.0
C122 C 0.13396 0.19319 0.41473 0.0
O123 O 0.14226 0.20648 0.40643 0.0
O124 O 0.16191 0.20213 0.48001 0.0
C125 C 0.10848 0.21135 0.5008 0.0
O126 O 0.10405 0.22333 0.48435 0.0
C127 C 0.13604 0.24411 0.4683 0.0
O128 O 0.13715 0.24229 0.49401 0.0
O129 O 0.1315 0.1912 0.43931 0.0
C130 C 0.58494 0.41997 0.15831 0.0
O131 O 0.57335 0.41565 0.1411 0.0
O132 O 0.55462 0.38911 0.17035 0.0
Zn133 Zn 0.57956 0.38631 0.17715 0.0
O134 O 0.58318 0.37859 0.2145 0.0
C135 C 0.5795 0.35787 0.14321 0.0
O136 O 0.56341 0.35881 0.14898 0.0
O137 O 0.59045 0.40896 0.17428 0.0
C138 C 0.5841 0.36326 0.22147 0.0
O139 O 0.5827 0.35138 0.20358 0.0
C140 C 0.5434 0.38582 0.1875 0.0
O141 O 0.54798 0.38069 0.21107 0.0
O142 O 0.58942 0.36903 0.15228 0.0
C143 C 0.31693 0.82683 0.963 0.0
O144 O 0.31655 0.81796 0.94112 0.0
O145 O 0.34979 0.79767 0.94479 0.0
Zn146 Zn 0.35268 0.821 0.95948 0.0
O147 O 0.36968 0.82074 0.98885 0.0
C148 C 0.35993 0.83419 0.90703 0.0
O149 O 0.35062 0.82162 0.89861 0.0
O150 O 0.33098 0.82981 0.97396 0.0
C151 C 0.38106 0.80966 0.99196 0.0
O152 O 0.38214 0.79699 0.9754 0.0
C153 C 0.34678 0.78511 0.95958 0.0
O154 O 0.34485 0.78747 0.98507 0.0
O155 O 0.36183 0.83638 0.93169 0.0
C156 C 0.94712 0.4131 0.76183 0.0
O157 O 0.95714 0.40278 0.74906 0.0
O158 O 0.97115 0.38364 0.80995 0.0
Zn159 Zn 0.94743 0.38519 0.79594 0.0
O160 O 0.94527 0.37052 0.76396 0.0
C161 C 0.93225 0.37844 0.84747 0.0
O162 O 0.94459 0.38764 0.85695 0.0
O163 O 0.94146 0.40868 0.78427 0.0
C164 C 0.94316 0.35468 0.76447 0.0
O165 O 0.94244 0.34685 0.78727 0.0
C166 C 0.98326 0.37987 0.79462 0.0
O167 O 0.98023 0.37765 0.76938 0.0
O168 O 0.93102 0.37638 0.82269 0.0
C169 C 0.33539 0.17978 0.58697 0.0
O170 O 0.34134 0.19085 0.60382 0.0
O171 O 0.36988 0.20647 0.57087 0.0
Zn172 Zn 0.36896 0.18147 0.56484 0.0
O173 O 0.37536 0.1765 0.52718 0.0
C174 C 0.40068 0.17664 0.58602 0.0
O175 O 0.40253 0.18989 0.57078 0.0
O176 O 0.34528 0.17334 0.57004 0.0
C177 C 0.38286 0.18694 0.51222 0.0
O178 O 0.38663 0.20197 0.52124 0.0
C179 C 0.35939 0.21668 0.56075 0.0
O180 O 0.34702 0.21082 0.5462 0.0
O181 O 0.38613 0.17009 0.5881 0.0
C182 C 0.54737 0.57853 0.26302 0.0
O183 O 0.53637 0.58714 0.24912 0.0
O184 O 0.5179 0.606 0.30296 0.0
Zn185 Zn 0.54256 0.60711 0.29381 0.0
O186 O 0.5462 0.62122 0.26139 0.0
C187 C 0.55027 0.63379 0.32652 0.0
O188 O 0.53748 0.63937 0.31254 0.0
O189 O 0.55199 0.58427 0.2853 0.0
C190 C 0.56141 0.62481 0.25615 0.0
O191 O 0.5733 0.61954 0.2722 0.0
C192 C 0.50648 0.60991 0.28649 0.0
O193 O 0.51076 0.61418 0.26236 0.0
O194 O 0.5551 0.6187 0.3231 0.0
C195 C 0.15896 0.83404 0.08783 0.0
O196 O 0.15623 0.82137 0.10394 0.0
O197 O 0.12637 0.80458 0.08372 0.0
Zn198 Zn 0.12402 0.82909 0.07434 0.0
O199 O 0.11494 0.83154 0.03756 0.0
C200 C 0.10327 0.83417 0.12073 0.0
O201 O 0.11005 0.81994 0.12858 0.0
O202 O 0.14679 0.83993 0.07447 0.0
C203 C 0.1043 0.82173 0.02687 0.0
O204 O 0.09851 0.80879 0.04023 0.0
C205 C 0.13255 0.79385 0.06783 0.0
O206 O 0.13738 0.79872 0.04423 0.0
O207 O 0.1079 0.84058 0.09893 0.0
C208 C 0.54765 0.91614 0.77006 0.0
O209 O 0.53711 0.90623 0.7575 0.0
O210 O 0.521 0.88808 0.80877 0.0
Zn211 Zn 0.54614 0.8881 0.80269 0.0
O212 O 0.55143 0.87299 0.77214 0.0
C213 C 0.5509 0.87245 0.85351 0.0
O214 O 0.53437 0.87262 0.8536 0.0
O215 O 0.55366 0.91127 0.79202 0.0
C216 C 0.55272 0.85708 0.77343 0.0
O217 O 0.55077 0.84947 0.79625 0.0
C218 C 0.51079 0.88245 0.79155 0.0
O219 O 0.51667 0.87663 0.76912 0.0
O220 O 0.55871 0.87921 0.83434 0.0
C221 C 0.33073 0.32666 0.07019 0.0
O222 O 0.33832 0.318 0.08881 0.0
O223 O 0.36795 0.30414 0.06097 0.0
Zn224 Zn 0.36408 0.32792 0.04868 0.0
O225 O 0.37042 0.32968 0.01053 0.0
C226 C 0.38209 0.34159 0.09344 0.0
O227 O 0.37509 0.32896 0.10608 0.0
O228 O 0.33947 0.33301 0.05172 0.0
C229 C 0.38553 0.32764 0.003 0.0
O230 O 0.39723 0.32444 0.02065 0.0
C231 C 0.36627 0.29183 0.04517 0.0
O232 O 0.3623 0.29476 0.02043 0.0
O233 O 0.3786 0.34389 0.06924 0.0
C234 C 0.97146 0.07624 0.24103 0.0
O235 O 0.98157 0.0855 0.22652 0.0
O236 O 0.99632 0.10813 0.28355 0.0
Zn237 Zn 0.97217 0.10594 0.27183 0.0
O238 O 0.96819 0.11974 0.23934 0.0
C239 C 0.96123 0.11755 0.32346 0.0
O240 O 0.97665 0.11365 0.33058 0.0
O241 O 0.9661 0.08211 0.26279 0.0
C242 C 0.97076 0.13549 0.23789 0.0
O243 O 0.97677 0.14354 0.25849 0.0
C244 C 0.00817 0.11219 0.26793 0.0
O245 O 0.00488 0.11432 0.24274 0.0
O246 O 0.95661 0.11489 0.29982 0.0
C247 C 0.16694 0.66077 0.60656 0.0
O248 O 0.16138 0.67209 0.62333 0.0
O249 O 0.12959 0.68495 0.59821 0.0
Zn250 Zn 0.13255 0.66087 0.58711 0.0
O251 O 0.1273 0.65968 0.54847 0.0
C252 C 0.11091 0.63269 0.59603 0.0
O253 O 0.11734 0.62795 0.57332 0.0
O254 O 0.15662 0.6537 0.59096 0.0
C255 C 0.11273 0.66272 0.53931 0.0
O256 O 0.10052 0.6668 0.5556 0.0
C257 C 0.13833 0.6964 0.5873 0.0
O258 O 0.14959 0.69218 0.56949 0.0
O259 O 0.11626 0.64612 0.60677 0.0
C260 C 0.58878 0.07721 0.66281 0.0
O261 O 0.57855 0.08404 0.64549 0.0
O262 O 0.57053 0.11771 0.66975 0.0
Zn263 Zn 0.59429 0.11167 0.67931 0.0
O264 O 0.59845 0.11863 0.71666 0.0
C265 C 0.60634 0.12497 0.63059 0.0
O266 O 0.59374 0.11599 0.62143 0.0
O267 O 0.59737 0.08668 0.67786 0.0
C268 C 0.59397 0.13283 0.72577 0.0
O269 O 0.58667 0.14376 0.71003 0.0
C270 C 0.55768 0.11165 0.68127 0.0
O271 O 0.55973 0.10071 0.70045 0.0
O272 O 0.60972 0.12432 0.65508 0.0
C273 C 0.16186 0.28551 -0.00133 0.0
O274 O 0.15284 0.27516 0.01312 0.0
O275 O 0.12874 0.26352 0.95313 0.0
Zn276 Zn 0.1312 0.28612 0.97049 0.0
O277 O 0.11886 0.28649 0.00494 0.0
C278 C 0.12215 0.30442 0.92278 0.0
O279 O 0.13202 0.29352 0.91091 0.0
O280 O 0.15539 0.29174 0.9779 0.0
C281 C 0.10291 0.2861 0.00647 0.0
O282 O 0.09398 0.28478 0.98474 0.0
C283 C 0.12602 0.25017 0.96629 0.0
O284 O 0.12544 0.25097 0.99217 0.0
O285 O 0.12048 0.30375 0.94768 0.0
C286 C 0.91006 0.91784 0.14723 0.0
O287 O 0.91983 0.9095 0.13092 0.0
O288 O 0.92584 0.87802 0.16176 0.0
Zn289 Zn 0.90143 0.88447 0.16369 0.0
O290 O 0.89312 0.87677 0.19903 0.0
C291 C 0.89539 0.87049 0.11228 0.0
O292 O 0.90962 0.87821 0.10695 0.0
O293 O 0.90001 0.9097 0.162 0.0
C294 C 0.89703 0.86206 0.2067 0.0
O295 O 0.90559 0.85223 0.19074 0.0
C296 C 0.93618 0.88415 0.1783 0.0
O297 O 0.93069 0.8948 0.19618 0.0
O298 O 0.88889 0.87224 0.13504 0.0
C299 C 0.32795 0.69253 0.49602 0.0
O300 O 0.33704 0.7044 0.50712 0.0
O301 O 0.35897 0.71374 0.44958 0.0
Zn302 Zn 0.35761 0.69074 0.46622 0.0
O303 O 0.37086 0.69018 0.49987 0.0
C304 C 0.36521 0.6739 0.41688 0.0
O305 O 0.35525 0.68539 0.4067 0.0
O306 O 0.33388 0.6848 0.47613 0.0
C307 C 0.38663 0.6878 0.50156 0.0
O308 O 0.39555 0.68586 0.47993 0.0
C309 C 0.36391 0.72656 0.46245 0.0
O310 O 0.3677 0.72493 0.48756 0.0
O311 O 0.36755 0.6736 0.44167 0.0
C312 C 0.41454 0.08003 0.18069 0.0
O313 O 0.42387 0.08678 0.16208 0.0
O314 O 0.44111 0.11432 0.19068 0.0
Zn315 Zn 0.41687 0.1133 0.20194 0.0
O316 O 0.41492 0.12055 0.23967 0.0
C317 C 0.40514 0.131 0.15524 0.0
O318 O 0.41547 0.1209 0.14265 0.0
O319 O 0.40912 0.08933 0.19923 0.0
C320 C 0.4193 0.13529 0.2465 0.0
O321 O 0.42531 0.14563 0.22858 0.0
C322 C 0.45298 0.11067 0.20649 0.0
O323 O 0.44937 0.1065 0.23094 0.0
O324 O 0.40333 0.1294 0.18002 0.0
C325 C 0.6721 0.69841 0.98982 0.0
O326 O 0.66329 0.70743 0.00659 0.0
O327 O 0.63467 0.72052 0.95588 0.0
Zn328 Zn 0.63991 0.69676 0.96687 0.0
O329 O 0.63001 0.69246 0.00255 0.0
C330 C 0.62457 0.68548 0.91842 0.0
O331 O 0.62921 0.70045 0.91014 0.0
O332 O 0.66481 0.6925 0.9695 0.0
C333 C 0.61426 0.69154 0.00649 0.0
O334 O 0.60388 0.6938 0.9866 0.0
C335 C 0.63284 0.73272 0.97184 0.0
O336 O 0.63524 0.73025 0.9972 0.0
O337 O 0.6286 0.68084 0.94159 0.0
C338 C 0.0785 0.91393 0.68746 0.0
O339 O 0.07021 0.90658 0.6682 0.0
O340 O 0.05467 0.87754 0.69441 0.0
Zn341 Zn 0.07813 0.8805 0.70867 0.0
O342 O 0.07889 0.87363 0.74675 0.0
C343 C 0.09099 0.86216 0.66418 0.0
O344 O 0.07849 0.86976 0.65208 0.0
O345 O 0.08407 0.90501 0.70634 0.0
C346 C 0.07493 0.85887 0.75416 0.0
O347 O 0.07012 0.84779 0.73645 0.0
C348 C 0.04143 0.87771 0.70847 0.0
O349 O 0.04269 0.87965 0.73414 0.0
O350 O 0.09385 0.86555 0.68827 0.0
C351 C 0.83528 0.27828 0.50215 0.0
O352 O 0.84367 0.26803 0.51769 0.0
O353 O 0.87021 0.2548 0.46344 0.0
Zn354 Zn 0.86687 0.27854 0.47632 0.0
O355 O 0.87862 0.28182 0.51111 0.0
C356 C 0.8743 0.29467 0.42568 0.0
O357 O 0.86343 0.28392 0.41578 0.0
O358 O 0.84251 0.28414 0.48176 0.0
C359 C 0.88352 0.29651 0.51726 0.0
O360 O 0.88066 0.30901 0.50088 0.0
C361 C 0.88368 0.24723 0.46997 0.0
O362 O 0.89451 0.25496 0.48537 0.0
O363 O 0.8773 0.29449 0.4503 0.0
C364 C 0.44693 0.90878 0.24666 0.0
O365 O 0.45808 0.9004 0.23274 0.0
O366 O 0.47081 0.87806 0.29185 0.0
Zn367 Zn 0.44809 0.87816 0.27422 0.0
O368 O 0.44905 0.86632 0.23932 0.0
C369 C 0.4319 0.86579 0.32176 0.0
O370 O 0.44342 0.87482 0.33384 0.0
O371 O 0.44063 0.9019 0.26705 0.0
C372 C 0.45054 0.85054 0.23608 0.0
O373 O 0.45197 0.84069 0.25679 0.0
C374 C 0.48436 0.87476 0.27953 0.0
O375 O 0.48376 0.87152 0.25413 0.0
O376 O 0.43134 0.86583 0.29671 0.0
C377 C 0.8459 0.67238 0.04948 0.0
O378 O 0.85258 0.68308 0.06627 0.0
O379 O 0.88148 0.69667 0.0308 0.0
Zn380 Zn 0.87964 0.67146 0.02904 0.0
O381 O 0.8873 0.66386 0.99329 0.0
C382 C 0.89874 0.66969 0.07699 0.0
O383 O 0.89313 0.68516 0.07945 0.0
O384 O 0.85535 0.66518 0.03272 0.0
C385 C 0.89819 0.67198 0.98006 0.0
O386 O 0.9052 0.68541 0.99044 0.0
C387 C 0.87166 0.70634 0.01806 0.0
O388 O 0.85995 0.69975 0.00293 0.0
O389 O 0.89415 0.66098 0.05721 0.0
C390 C 0.03271 0.08448 0.73791 0.0
O391 O 0.02333 0.09227 0.72039 0.0
O392 O 0.00612 0.11782 0.77854 0.0
Zn393 Zn 0.02959 0.11616 0.76385 0.0
O394 O 0.03138 0.12789 0.72894 0.0
C395 C 0.04707 0.1237 0.81267 0.0
O396 O 0.03801 0.11125 0.82216 0.0
O397 O 0.03671 0.09212 0.75903 0.0
C398 C 0.02808 0.1434 0.7258 0.0
O399 O 0.02263 0.15226 0.74596 0.0
C400 C 0.99319 0.12058 0.7644 0.0
O401 O 0.99484 0.1218 0.73867 0.0
O402 O 0.04553 0.12773 0.78853 0.0
C403 C 0.66591 0.32108 0.56714 0.0
O404 O 0.65811 0.3105 0.58289 0.0
O405 O 0.62968 0.29872 0.54851 0.0
Zn406 Zn 0.63321 0.32345 0.54284 0.0
O407 O 0.62853 0.32834 0.50486 0.0
C408 C 0.61438 0.33356 0.58928 0.0
O409 O 0.62347 0.32202 0.60117 0.0
O410 O 0.65747 0.32896 0.54979 0.0
C411 C 0.6141 0.32531 0.49516 0.0
O412 O 0.60226 0.31914 0.51048 0.0
C413 C 0.63924 0.28831 0.53676 0.0
O414 O 0.65119 0.29403 0.52121 0.0
O415 O 0.61694 0.33661 0.56499 0.0
C416 C 0.04662 0.35631 0.19766 0.0
C417 C 0.04146 0.34692 0.21974 0.0
C418 C 0.05164 0.34823 0.17456 0.0
C419 C 0.05027 0.30864 0.13725 0.0
H420 H 0.0927 0.32476 0.10897 0.0
C421 C 0.07716 0.2915 0.03385 0.0
C422 C 0.09466 0.28907 0.03219 0.0
C423 C 0.06976 0.29644 0.05769 0.0
C424 C 0.08091 0.32001 0.11674 0.0
H425 H 0.03671 0.3217 0.23441 0.0
H426 H 0.04554 0.30756 0.19381 0.0
H427 H 0.0809 0.33795 0.14812 0.0
H428 H 0.11796 0.28878 0.05461 0.0
H429 H 0.10505 0.29733 0.09603 0.0
H430 H 0.05038 0.29067 0.10559 0.0
C431 C 0.04567 0.32118 0.19453 0.0
C432 C 0.07406 0.32769 0.13897 0.0
C433 C 0.04069 0.32928 0.21778 0.0
C434 C 0.10447 0.29075 0.05512 0.0
C435 C 0.0971 0.2957 0.07885 0.0
C436 C 0.05709 0.30101 0.11475 0.0
C437 C 0.05156 0.33059 0.17295 0.0
C438 C 0.05865 0.32216 0.1494 0.0
C439 C 0.07976 0.29905 0.08019 0.0
C440 C 0.0725 0.30662 0.10435 0.0
H441 H 0.0472 0.36992 0.1984 0.0
H442 H 0.05586 0.3558 0.15805 0.0
H443 H 0.03834 0.30417 0.14489 0.0
H444 H 0.06926 0.29023 0.01654 0.0
H445 H 0.05637 0.29899 0.05816 0.0
C446 C 0.89953 0.84122 0.24353 0.0
C447 C 0.89333 0.85664 0.234 0.0
C448 C 0.89717 0.83667 0.2699 0.0
C449 C 0.87164 0.84568 0.32903 0.0
H450 H 0.91056 0.82877 0.36691 0.0
C451 C 0.87304 0.8408 0.44244 0.0
C452 C 0.88072 0.82655 0.45364 0.0
C453 C 0.87423 0.84386 0.41538 0.0
C454 C 0.8995 0.83325 0.35656 0.0
H455 H 0.87935 0.87913 0.24447 0.0
H456 H 0.87526 0.87117 0.2905 0.0
H457 H 0.91276 0.83481 0.31988 0.0
H458 H 0.89566 0.80434 0.44519 0.0
H459 H 0.89756 0.80959 0.39789 0.0
H460 H 0.85838 0.84416 0.3657 0.0
C461 C 0.88187 0.86258 0.27754 0.0
C462 C 0.90077 0.83671 0.32961 0.0
C463 C 0.88429 0.86717 0.2512 0.0
C464 C 0.88967 0.81547 0.4372 0.0
C465 C 0.89081 0.81852 0.4101 0.0
C466 C 0.87035 0.84217 0.35597 0.0
C467 C 0.8885 0.84739 0.28725 0.0
C468 C 0.88688 0.84306 0.3156 0.0
C469 C 0.88308 0.83274 0.39887 0.0
C470 C 0.8843 0.83602 0.37008 0.0
H471 H 0.90651 0.8328 0.23078 0.0
H472 H 0.90222 0.82478 0.27675 0.0
H473 H 0.86066 0.85036 0.31867 0.0
H474 H 0.8661 0.84962 0.45458 0.0
H475 H 0.86836 0.85508 0.40743 0.0
C476 C 0.44183 0.66469 0.72486 0.0
C477 C 0.43824 0.64829 0.73364 0.0
C478 C 0.43832 0.66941 0.69883 0.0
C479 C 0.40959 0.65834 0.64536 0.0
H480 H 0.43832 0.68613 0.60137 0.0
C481 C 0.38461 0.68808 0.55069 0.0
C482 C 0.39442 0.68585 0.52788 0.0
C483 C 0.39127 0.68465 0.57555 0.0
C484 C 0.43022 0.67832 0.61345 0.0
H485 H 0.42899 0.62374 0.72161 0.0
H486 H 0.42293 0.63197 0.67638 0.0
H487 H 0.44821 0.67709 0.64503 0.0
H488 H 0.41922 0.67908 0.51339 0.0
H489 H 0.43087 0.67301 0.5571 0.0
H490 H 0.39164 0.65943 0.61404 0.0
C491 C 0.42821 0.64125 0.68969 0.0
C492 C 0.43582 0.67325 0.63843 0.0
C493 C 0.43174 0.63653 0.7156 0.0
C494 C 0.41132 0.68086 0.53059 0.0
C495 C 0.41802 0.67745 0.55558 0.0
C496 C 0.40397 0.66347 0.62061 0.0
C497 C 0.43111 0.65782 0.68119 0.0
C498 C 0.42554 0.66317 0.65457 0.0
C499 C 0.4079 0.67893 0.57822 0.0
C500 C 0.41418 0.67356 0.60442 0.0
H501 H 0.4469 0.67402 0.73826 0.0
H502 H 0.44061 0.68229 0.69282 0.0
H503 H 0.4013 0.65075 0.65748 0.0
H504 H 0.3716 0.69209 0.54936 0.0
H505 H 0.38328 0.68621 0.59271 0.0
C506 C 0.59199 0.15238 0.76455 0.0
C507 C 0.59643 0.13661 0.75408 0.0
C508 C 0.59403 0.15567 0.79148 0.0
C509 C 0.61674 0.14045 0.85066 0.0
H510 H 0.582 0.16451 0.88894 0.0
C511 C 0.62493 0.15796 0.95992 0.0
C512 C 0.61091 0.15584 0.9765 0.0
C513 C 0.62321 0.15682 0.93258 0.0
C514 C 0.59176 0.15768 0.87855 0.0
H515 H 0.60643 0.11192 0.76367 0.0
H516 H 0.60972 0.11757 0.81048 0.0
H517 H 0.57896 0.16 0.84154 0.0
H518 H 0.58404 0.15102 0.9774 0.0
H519 H 0.58109 0.14863 0.92961 0.0
H520 H 0.62926 0.13757 0.88768 0.0
C521 C 0.60496 0.12751 0.7979 0.0
C522 C 0.59013 0.15529 0.85134 0.0
C523 C 0.60298 0.12425 0.77105 0.0
C524 C 0.59508 0.15274 0.96514 0.0
C525 C 0.59337 0.15148 0.93774 0.0
C526 C 0.61835 0.14278 0.87782 0.0
C527 C 0.60052 0.14325 0.80845 0.0
C528 C 0.60255 0.14652 0.83713 0.0
C529 C 0.60745 0.15339 0.92116 0.0
C530 C 0.60584 0.15135 0.89213 0.0
H531 H 0.58694 0.16217 0.75197 0.0
H532 H 0.59067 0.16799 0.79896 0.0
H533 H 0.62665 0.13384 0.84025 0.0
H534 H 0.63728 0.16053 0.96803 0.0
H535 H 0.63425 0.15866 0.92038 0.0
C536 C 0.0894 0.62574 0.30781 0.0
C537 C 0.08804 0.63929 0.2901 0.0
C538 C 0.09141 0.62863 0.33479 0.0
C539 C 0.08622 0.66097 0.38665 0.0
H540 H 0.11797 0.63288 0.4246 0.0
C541 C 0.09315 0.6624 0.50047 0.0
C542 C 0.10955 0.66107 0.51069 0.0
C543 C 0.0902 0.66023 0.47348 0.0
C544 C 0.10916 0.64093 0.41427 0.0
H545 H 0.08756 0.66651 0.28686 0.0
H546 H 0.09133 0.67156 0.33399 0.0
H547 H 0.11353 0.62832 0.37767 0.0
H548 H 0.13576 0.65688 0.5005 0.0
H549 H 0.13064 0.65336 0.45352 0.0
H550 H 0.08219 0.67384 0.42324 0.0
C551 C 0.09061 0.6587 0.32702 0.0
C552 C 0.10644 0.63817 0.38742 0.0
C553 C 0.08855 0.6558 0.3 0.0
C554 C 0.12295 0.65784 0.49331 0.0
C555 C 0.12001 0.65573 0.46638 0.0
C556 C 0.08896 0.66375 0.41355 0.0
C557 C 0.09217 0.64514 0.34469 0.0
C558 C 0.09494 0.64814 0.37329 0.0
C559 C 0.10359 0.65673 0.45617 0.0
C560 C 0.1005 0.65379 0.42764 0.0
H561 H 0.08893 0.61286 0.30085 0.0
H562 H 0.09228 0.61791 0.34791 0.0
H563 H 0.07716 0.66876 0.37637 0.0
H564 H 0.08256 0.66485 0.51336 0.0
H565 H 0.07738 0.66092 0.46626 0.0
C566 C 0.59558 0.81121 0.55993 0.0
C567 C 0.60196 0.79501 0.55518 0.0
C568 C 0.58754 0.81492 0.58366 0.0
C569 C 0.58641 0.80261 0.65273 0.0
H570 H 0.5476 0.83221 0.65433 0.0
C571 C 0.55906 0.82994 0.75001 0.0
C572 C 0.55609 0.84737 0.74913 0.0
C573 C 0.56249 0.82101 0.72681 0.0
C574 C 0.55843 0.82393 0.6542 0.0
H575 H 0.60465 0.76988 0.57139 0.0
H576 H 0.59063 0.77648 0.6132 0.0
H577 H 0.55732 0.82086 0.6123 0.0
H578 H 0.5542 0.86906 0.72321 0.0
H579 H 0.56026 0.85359 0.68306 0.0
H580 H 0.58788 0.80621 0.69456 0.0
C581 C 0.5919 0.78626 0.59844 0.0
C582 C 0.56397 0.81743 0.63017 0.0
C583 C 0.59985 0.78248 0.5745 0.0
C584 C 0.55643 0.85564 0.72463 0.0
C585 C 0.55976 0.84674 0.70154 0.0
C586 C 0.58086 0.80915 0.67683 0.0
C587 C 0.58576 0.80255 0.60327 0.0
C588 C 0.57832 0.80713 0.62909 0.0
C589 C 0.56286 0.82935 0.70234 0.0
C590 C 0.56714 0.8203 0.67766 0.0
H591 H 0.59696 0.82114 0.54544 0.0
H592 H 0.58316 0.82766 0.58696 0.0
H593 H 0.59757 0.79478 0.65245 0.0
H594 H 0.55887 0.82321 0.76861 0.0
H595 H 0.56479 0.80759 0.72797 0.0
C596 C 0.37706 0.33126 0.95583 0.0
C597 C 0.38983 0.32901 0.9747 0.0
C598 C 0.38104 0.33307 0.92917 0.0
C599 C 0.41515 0.3468 0.8858 0.0
H600 H 0.38741 0.32696 0.831 0.0
C601 C 0.41393 0.37205 0.77971 0.0
C602 C 0.41347 0.36042 0.75882 0.0
C603 C 0.41237 0.36664 0.80577 0.0
C604 C 0.3954 0.33242 0.84606 0.0
H605 H 0.41679 0.32656 0.98032 0.0
H606 H 0.42376 0.32975 0.93362 0.0
H607 H 0.38233 0.31967 0.87715 0.0
H608 H 0.41108 0.33397 0.74892 0.0
H609 H 0.40828 0.32451 0.79464 0.0
H610 H 0.42812 0.35967 0.85476 0.0
C611 C 0.41067 0.33022 0.93956 0.0
C612 C 0.39239 0.32838 0.87247 0.0
C613 C 0.40667 0.32834 0.96628 0.0
C614 C 0.41145 0.34324 0.76458 0.0
C615 C 0.40979 0.33782 0.79072 0.0
C616 C 0.41812 0.35089 0.85942 0.0
C617 C 0.39789 0.33271 0.92077 0.0
C618 C 0.40206 0.33574 0.89264 0.0
C619 C 0.41026 0.34948 0.81157 0.0
C620 C 0.40809 0.34396 0.83931 0.0
H621 H 0.36395 0.33181 0.96166 0.0
H622 H 0.37093 0.3352 0.91521 0.0
H623 H 0.42274 0.35277 0.9009 0.0
H624 H 0.41548 0.38539 0.77597 0.0
H625 H 0.41251 0.37595 0.82138 0.0
C626 C 0.9004 0.18703 0.04724 0.0
C627 C 0.90228 0.20334 0.03698 0.0
C628 C 0.91084 0.18136 0.06746 0.0
C629 C 0.93446 0.19422 0.12412 0.0
H630 H 0.95672 0.15107 0.11602 0.0
C631 C 0.96954 0.16194 0.21074 0.0
C632 C 0.96636 0.14462 0.21341 0.0
C633 C 0.96464 0.17051 0.18785 0.0
C634 C 0.95053 0.1631 0.11867 0.0
H635 H 0.91636 0.22664 0.04011 0.0
H636 H 0.93441 0.21678 0.07637 0.0
H637 H 0.94225 0.16368 0.07847 0.0
H638 H 0.95571 0.12269 0.19406 0.0
H639 H 0.94686 0.13759 0.15477 0.0
H640 H 0.94183 0.19321 0.16472 0.0
C641 C 0.92496 0.20839 0.06831 0.0
C642 C 0.94236 0.17033 0.09713 0.0
C643 C 0.91469 0.21398 0.04762 0.0
C644 C 0.95843 0.13602 0.19264 0.0
C645 C 0.95347 0.14456 0.16993 0.0
C646 C 0.94246 0.18686 0.14585 0.0
C647 C 0.92319 0.19197 0.07816 0.0
C648 C 0.9339 0.18572 0.09986 0.0
C649 C 0.95644 0.16192 0.16725 0.0
C650 C 0.95016 0.17096 0.14353 0.0
H651 H 0.89099 0.17851 0.03941 0.0
H652 H 0.90913 0.16871 0.07498 0.0
H653 H 0.92793 0.20608 0.12665 0.0
H654 H 0.9757 0.1689 0.22638 0.0
H655 H 0.96725 0.18385 0.18631 0.0
C656 C 0.91763 0.64776 0.7424 0.0
C657 C 0.90902 0.63326 0.73402 0.0
C658 C 0.91781 0.65224 0.76909 0.0
C659 C 0.91184 0.63406 0.83547 0.0
H660 H 0.90534 0.68038 0.85726 0.0
C661 C 0.89463 0.65247 0.94177 0.0
C662 C 0.90193 0.66703 0.95256 0.0
C663 C 0.8972 0.64832 0.91532 0.0
C664 C 0.90743 0.66743 0.85147 0.0
H665 H 0.89353 0.61231 0.74696 0.0
H666 H 0.89368 0.62025 0.79331 0.0
H667 H 0.90619 0.67349 0.81033 0.0
H668 H 0.918 0.68847 0.94419 0.0
H669 H 0.92254 0.68115 0.89791 0.0
H670 H 0.91284 0.62796 0.87656 0.0
C671 C 0.90055 0.62799 0.77938 0.0
C672 C 0.90789 0.66348 0.8246 0.0
C673 C 0.90036 0.62352 0.75277 0.0
C674 C 0.91218 0.67717 0.93646 0.0
C675 C 0.9147 0.67305 0.90993 0.0
C676 C 0.91137 0.638 0.86229 0.0
C677 C 0.90941 0.6423 0.78789 0.0
C678 C 0.90986 0.64671 0.81633 0.0
C679 C 0.90711 0.65866 0.89904 0.0
C680 C 0.90893 0.65469 0.87059 0.0
H681 H 0.92445 0.65551 0.72845 0.0
H682 H 0.92483 0.66329 0.77507 0.0
H683 H 0.91373 0.62107 0.82971 0.0
H684 H 0.88667 0.64438 0.95362 0.0
H685 H 0.89102 0.63726 0.90744 0.0
C686 C 0.09875 0.18994 0.53331 0.0
C687 C 0.09705 0.20605 0.5222 0.0
C688 C 0.08784 0.18459 0.55313 0.0
C689 C 0.06305 0.19871 0.60778 0.0
H690 H 0.04146 0.15508 0.60188 0.0
C691 C 0.02804 0.16866 0.69601 0.0
C692 C 0.03161 0.15154 0.70014 0.0
C693 C 0.03262 0.1765 0.67233 0.0
C694 C 0.04745 0.16725 0.60392 0.0
H695 H 0.08275 0.22928 0.52332 0.0
H696 H 0.06388 0.22001 0.55889 0.0
H697 H 0.05641 0.1668 0.56405 0.0
H698 H 0.04235 0.12911 0.68241 0.0
H699 H 0.05068 0.14276 0.64175 0.0
H700 H 0.05509 0.19877 0.6481 0.0
C701 C 0.07355 0.21152 0.5518 0.0
C702 C 0.0559 0.17398 0.58221 0.0
C703 C 0.0843 0.21678 0.53151 0.0
C704 C 0.03938 0.14232 0.67988 0.0
C705 C 0.04404 0.15014 0.65638 0.0
C706 C 0.0548 0.19187 0.62968 0.0
C707 C 0.07518 0.19532 0.56258 0.0
C708 C 0.06413 0.18954 0.58419 0.0
C709 C 0.0409 0.16738 0.65239 0.0
C710 C 0.04733 0.17583 0.62821 0.0
H711 H 0.10841 0.18135 0.52648 0.0
H712 H 0.08944 0.17211 0.56138 0.0
H713 H 0.06941 0.21071 0.60975 0.0
H714 H 0.02197 0.17608 0.7112 0.0
H715 H 0.02983 0.18974 0.66977 0.0
C716 C 0.62383 0.33412 0.45032 0.0
C717 C 0.61077 0.32867 0.46696 0.0
C718 C 0.62074 0.33742 0.42371 0.0
C719 C 0.59071 0.32892 0.36968 0.0
H720 H 0.61173 0.3681 0.33807 0.0
C721 C 0.58895 0.34213 0.25741 0.0
C722 C 0.58664 0.35893 0.24956 0.0
C723 C 0.59159 0.33816 0.28397 0.0
C724 C 0.60565 0.35719 0.34663 0.0
H725 H 0.58423 0.32231 0.4687 0.0
H726 H 0.57878 0.32833 0.42225 0.0
H727 H 0.61663 0.36185 0.38443 0.0
H728 H 0.58497 0.38472 0.26346 0.0
H729 H 0.58934 0.37778 0.3097 0.0
H730 H 0.57942 0.32451 0.33194 0.0
C731 C 0.59146 0.32983 0.42973 0.0
C732 C 0.60863 0.35348 0.37314 0.0
C733 C 0.59456 0.32648 0.45638 0.0
C734 C 0.58684 0.37165 0.26882 0.0
C735 C 0.58943 0.36769 0.29532 0.0
C736 C 0.58771 0.33265 0.34314 0.0
C737 C 0.60451 0.3354 0.41314 0.0
C738 C 0.60122 0.3393 0.38496 0.0
C739 C 0.59194 0.35091 0.3032 0.0
C740 C 0.59514 0.34684 0.33134 0.0
H741 H 0.63649 0.33583 0.45781 0.0
H742 H 0.63112 0.34143 0.41137 0.0
H743 H 0.58494 0.31782 0.37815 0.0
H744 H 0.58889 0.33204 0.24304 0.0
H745 H 0.59367 0.32513 0.28937 0.0
C746 C 0.44741 0.8543 0.18748 0.0
C747 C 0.44939 0.84346 0.20916 0.0
C748 C 0.4447 0.84786 0.16228 0.0
C749 C 0.42731 0.81062 0.12952 0.0
H750 H 0.44061 0.83546 0.06698 0.0
C751 C 0.401 0.79686 0.0246 0.0
C752 C 0.39293 0.81114 0.01419 0.0
C753 C 0.41151 0.79833 0.04666 0.0
C754 C 0.43697 0.82829 0.08425 0.0
H755 H 0.4509 0.8173 0.22117 0.0
H756 H 0.44634 0.80598 0.17684 0.0
H757 H 0.45356 0.84212 0.10939 0.0
H758 H 0.38998 0.83817 0.0179 0.0
H759 H 0.40859 0.84076 0.05594 0.0
H760 H 0.41044 0.79706 0.10424 0.0
C761 C 0.44664 0.8195 0.17952 0.0
C762 C 0.44428 0.83214 0.10854 0.0
C763 C 0.44932 0.82598 0.20487 0.0
C764 C 0.39597 0.82694 0.02561 0.0
C765 C 0.40671 0.82845 0.04722 0.0
C766 C 0.42016 0.80662 0.10511 0.0
C767 C 0.44399 0.83039 0.15801 0.0
C768 C 0.439 0.82387 0.13166 0.0
C769 C 0.41441 0.81415 0.05813 0.0
C770 C 0.42445 0.81589 0.08251 0.0
H771 H 0.44744 0.86784 0.19003 0.0
H772 H 0.44241 0.85666 0.14635 0.0
H773 H 0.42284 0.80407 0.1469 0.0
H774 H 0.39883 0.78452 0.01618 0.0
H775 H 0.4173 0.78714 0.05484 0.0
C776 C 0.94212 0.35405 0.71528 0.0
C777 C 0.94061 0.34549 0.73943 0.0
C778 C 0.93861 0.3459 0.69158 0.0
C779 C 0.91364 0.3112 0.66491 0.0
H780 H 0.93808 0.32192 0.60079 0.0
C781 C 0.89318 0.28697 0.56194 0.0
C782 C 0.89225 0.2996 0.54254 0.0
C783 C 0.90106 0.29017 0.5861 0.0
C784 C 0.93115 0.3188 0.61855 0.0
H785 H 0.93477 0.32147 0.7576 0.0
H786 H 0.92868 0.30713 0.71595 0.0
H787 H 0.9489 0.33147 0.64328 0.0
H788 H 0.89911 0.32533 0.53303 0.0
H789 H 0.91283 0.33086 0.57508 0.0
H790 H 0.89568 0.29885 0.64002 0.0
C791 C 0.93243 0.32023 0.7155 0.0
C792 C 0.93732 0.32427 0.64285 0.0
C793 C 0.93599 0.32842 0.73931 0.0
C794 C 0.89959 0.31535 0.54758 0.0
C795 C 0.90757 0.31848 0.57159 0.0
C796 C 0.90749 0.30566 0.64057 0.0
C797 C 0.93352 0.32896 0.69141 0.0
C798 C 0.92838 0.32096 0.66622 0.0
C799 C 0.9083 0.30597 0.59116 0.0
C800 C 0.91595 0.30982 0.61711 0.0
H801 H 0.94568 0.36721 0.71465 0.0
H802 H 0.93932 0.35307 0.67344 0.0
H803 H 0.90636 0.30858 0.68252 0.0
H804 H 0.88764 0.2747 0.55861 0.0
H805 H 0.9015 0.28029 0.60082 0.0
C806 C 0.42163 0.15724 0.28184 0.0
C807 C 0.4172 0.14083 0.27416 0.0
C808 C 0.41915 0.16256 0.30784 0.0
C809 C 0.41234 0.14658 0.37558 0.0
H810 H 0.39282 0.19063 0.38784 0.0
C811 C 0.38419 0.16572 0.47579 0.0
C812 C 0.38756 0.18205 0.48505 0.0
C813 C 0.38875 0.16102 0.45024 0.0
C814 C 0.39848 0.17838 0.38475 0.0
H815 H 0.40686 0.11708 0.28781 0.0
H816 H 0.40239 0.12642 0.33299 0.0
H817 H 0.39936 0.1818 0.34288 0.0
H818 H 0.39835 0.20626 0.47471 0.0
H819 H 0.40635 0.198 0.43005 0.0
H820 H 0.41126 0.14308 0.41741 0.0
C821 C 0.40797 0.13512 0.31904 0.0
C822 C 0.40224 0.17333 0.35901 0.0
C823 C 0.41044 0.1298 0.29308 0.0
C824 C 0.39555 0.19359 0.46816 0.0
C825 C 0.40007 0.18889 0.44254 0.0
C826 C 0.40856 0.15162 0.40129 0.0
C827 C 0.41223 0.15158 0.3267 0.0
C828 C 0.40906 0.1573 0.35412 0.0
C829 C 0.39675 0.17254 0.43334 0.0
C830 C 0.40144 0.16751 0.40613 0.0
H831 H 0.42692 0.16602 0.26775 0.0
H832 H 0.42274 0.17526 0.31322 0.0
H833 H 0.41786 0.13427 0.3725 0.0
H834 H 0.37802 0.15653 0.48828 0.0
H835 H 0.38581 0.1484 0.44358 0.0
C836 C 0.5827 0.63822 0.22669 0.0
C837 C 0.56588 0.63382 0.23164 0.0
C838 C 0.58724 0.64573 0.20286 0.0
C839 C 0.57064 0.66837 0.14475 0.0
H840 H 0.61119 0.65123 0.11163 0.0
C841 C 0.59062 0.68406 0.03718 0.0
C842 C 0.60787 0.68695 0.03291 0.0
C843 C 0.58488 0.6786 0.06184 0.0
C844 C 0.59994 0.65629 0.12075 0.0
H845 H 0.5405 0.63427 0.21579 0.0
H846 H 0.5485 0.64726 0.17392 0.0
H847 H 0.60227 0.6399 0.15394 0.0
H848 H 0.63252 0.68702 0.05143 0.0
H849 H 0.6225 0.67766 0.09431 0.0
H850 H 0.56833 0.6847 0.11125 0.0
C851 C 0.55814 0.64503 0.18862 0.0
C852 C 0.59484 0.64981 0.14502 0.0
C853 C 0.55358 0.63752 0.21254 0.0
C854 C 0.61917 0.68476 0.05397 0.0
C855 C 0.61344 0.67931 0.07853 0.0
C856 C 0.57576 0.67486 0.12037 0.0
C857 C 0.57507 0.64897 0.18339 0.0
C858 C 0.58021 0.65585 0.1574 0.0
C859 C 0.59629 0.67591 0.08262 0.0
C860 C 0.59054 0.66897 0.10824 0.0
H861 H 0.59246 0.63568 0.24109 0.0
H862 H 0.60034 0.64892 0.19963 0.0
H863 H 0.55938 0.67335 0.15391 0.0
H864 H 0.5816 0.68565 0.02135 0.0
H865 H 0.5716 0.67598 0.06439 0.0
C866 C 0.08178 0.86601 0.80099 0.0
C867 C 0.07574 0.85434 0.78244 0.0
C868 C 0.08275 0.86179 0.82766 0.0
C869 C 0.08501 0.82542 0.87267 0.0
H870 H 0.07536 0.85931 0.92563 0.0
C871 C 0.08964 0.81269 0.98533 0.0
C872 C 0.09878 0.82487 -0.00055 0.0
C873 C 0.08493 0.81563 0.95911 0.0
C874 C 0.07812 0.84973 0.91105 0.0
H875 H 0.06582 0.8291 0.77742 0.0
H876 H 0.06734 0.82178 0.82418 0.0
H877 H 0.07041 0.86559 0.87919 0.0
H878 H 0.10992 0.84978 0.99729 0.0
H879 H 0.10165 0.8549 0.95177 0.0
H880 H 0.09285 0.80963 0.90469 0.0
C881 C 0.07152 0.83414 0.81798 0.0
C882 C 0.07534 0.85333 0.88445 0.0
C883 C 0.07059 0.83836 0.79121 0.0
C884 C 0.1029 0.84012 0.98697 0.0
C885 C 0.09806 0.84312 0.96094 0.0
C886 C 0.0877 0.82178 0.89934 0.0
C887 C 0.07763 0.84581 0.83651 0.0
C888 C 0.0791 0.84136 0.86489 0.0
C889 C 0.0891 0.83089 0.94669 0.0
C890 C 0.08461 0.83404 0.91873 0.0
H891 H 0.08592 0.87841 0.7949 0.0
H892 H 0.08782 0.87098 0.84131 0.0
H893 H 0.08817 0.81597 0.85809 0.0
H894 H 0.0863 0.8008 0.9944 0.0
H895 H 0.07796 0.80603 0.94858 0.0
C896 C 0.06746 0.36789 0.37424 0.0
C897 C 0.06716 0.36605 0.34666 0.0
C898 C 0.07772 0.35752 0.38975 0.0
C899 C 0.11343 0.32713 0.38607 0.0
H900 H 0.0922 0.30728 0.44756 0.0
C901 C 0.13232 0.26291 0.42912 0.0
C902 C 0.13213 0.26073 0.45665 0.0
C903 C 0.12703 0.27806 0.41788 0.0
C904 C 0.09845 0.31293 0.43074 0.0
H905 H 0.07782 0.35224 0.31368 0.0
H906 H 0.09536 0.33408 0.34059 0.0
H907 H 0.07801 0.32989 0.42393 0.0
H908 H 0.12683 0.27297 0.49402 0.0
H909 H 0.11747 0.29944 0.47428 0.0
H910 H 0.13353 0.30961 0.39233 0.0
C911 C 0.08792 0.34366 0.35033 0.0
C912 C 0.09033 0.32592 0.4172 0.0
C913 C 0.07773 0.35402 0.33487 0.0
C914 C 0.1271 0.27424 0.47274 0.0
C915 C 0.12167 0.28937 0.46146 0.0
C916 C 0.1215 0.31408 0.39953 0.0
C917 C 0.08788 0.34511 0.37799 0.0
C918 C 0.09753 0.33291 0.39433 0.0
C919 C 0.12133 0.29133 0.4339 0.0
C920 C 0.11391 0.30659 0.42166 0.0
H921 H 0.05954 0.3771 0.38392 0.0
H922 H 0.07755 0.35911 0.41098 0.0
H923 H 0.11949 0.33247 0.36885 0.0
H924 H 0.13616 0.25277 0.41618 0.0
H925 H 0.12675 0.27912 0.39657 0.0
C926 C 0.90251 0.84194 0.62181 0.0
C927 C 0.90028 0.84462 0.5946 0.0
C928 C 0.91701 0.8477 0.63455 0.0
C929 C 0.96106 0.85622 0.62081 0.0
H930 H 0.96136 0.87843 0.68895 0.0
C931 C 0.02307 0.87767 0.66845 0.0
C932 C 0.02478 0.87568 0.69586 0.0
C933 C 0.00746 0.87543 0.6563 0.0
C934 C 0.96151 0.87205 0.67007 0.0
H935 H 0.91122 0.856 0.55963 0.0
H936 H 0.93661 0.86588 0.58187 0.0
H937 H 0.93454 0.87199 0.66755 0.0
H938 H 0.01149 0.86988 0.7321 0.0
H939 H 0.98432 0.86537 0.71082 0.0
H940 H 0.98786 0.85564 0.6235 0.0
C941 C 0.92714 0.85928 0.59327 0.0
C942 C 0.94615 0.86846 0.65779 0.0
C943 C 0.91257 0.85369 0.5806 0.0
C944 C 0.01053 0.87156 0.71093 0.0
C945 C 0.99493 0.86909 0.69873 0.0
C946 C 0.97638 0.85962 0.63318 0.0
C947 C 0.92963 0.85609 0.62026 0.0
C948 C 0.9458 0.86052 0.63304 0.0
C949 C 0.99323 0.87089 0.67122 0.0
C950 C 0.97683 0.86758 0.65797 0.0
H951 H 0.89323 0.83505 0.63316 0.0
H952 H 0.91866 0.845 0.65535 0.0
H953 H 0.96115 0.84982 0.60193 0.0
H954 H 0.03379 0.88104 0.65633 0.0
H955 H 0.00658 0.87729 0.63518 0.0
C956 C 0.34725 0.76531 0.92135 0.0
C957 C 0.34825 0.76794 0.94869 0.0
C958 C 0.351 0.74958 0.9106 0.0
C959 C 0.3599 0.70463 0.92732 0.0
H960 H 0.38773 0.7074 0.86459 0.0
C961 C 0.4043 0.65153 0.89008 0.0
C962 C 0.40533 0.64914 0.86263 0.0
C963 C 0.39455 0.66461 0.90052 0.0
C964 C 0.37977 0.70636 0.88187 0.0
H965 H 0.35314 0.75597 0.98639 0.0
H966 H 0.36021 0.72865 0.96761 0.0
H967 H 0.37545 0.73283 0.88271 0.0
H968 H 0.39613 0.65799 0.82472 0.0
H969 H 0.37921 0.68071 0.84293 0.0
H970 H 0.36493 0.67808 0.92681 0.0
C971 C 0.35621 0.73861 0.95443 0.0
C972 C 0.37265 0.72096 0.89225 0.0
C973 C 0.35222 0.75431 0.96522 0.0
C974 C 0.39578 0.65958 0.84595 0.0
C975 C 0.38611 0.67263 0.85635 0.0
C976 C 0.36718 0.68999 0.917 0.0
C977 C 0.35611 0.73619 0.92692 0.0
C978 C 0.36267 0.72033 0.91517 0.0
C979 C 0.38571 0.67555 0.88367 0.0
C980 C 0.37723 0.69075 0.89422 0.0
H981 H 0.34401 0.77554 0.90815 0.0
H982 H 0.35034 0.74806 0.88938 0.0
H983 H 0.35215 0.70365 0.94483 0.0
H984 H 0.41146 0.64367 0.90347 0.0
H985 H 0.39454 0.66662 0.92166 0.0
C986 C 0.5865 0.12884 0.09624 0.0
C987 C 0.60036 0.13419 0.1113 0.0
C988 C 0.57186 0.12312 0.10856 0.0
C989 C 0.54912 0.12734 0.17159 0.0
H990 H 0.5192 0.09472 0.13932 0.0
C991 C 0.484 0.11025 0.2155 0.0
C992 C 0.47064 0.11098 0.19733 0.0
C993 C 0.50069 0.11085 0.20675 0.0
C994 C 0.52745 0.10385 0.14854 0.0
H995 H 0.61011 0.13673 0.15108 0.0
H996 H 0.58467 0.12634 0.17262 0.0
H997 H 0.54739 0.09884 0.12131 0.0
H998 H 0.4643 0.11256 0.15575 0.0
H999 H 0.49341 0.1135 0.14053 0.0
H1000 H 0.52906 0.13239 0.19871 0.0
C1001 C 0.58497 0.12699 0.15127 0.0
C1002 C 0.54358 0.10625 0.13821 0.0
C1003 C 0.59959 0.13284 0.13893 0.0
C1004 C 0.47431 0.11204 0.17025 0.0
C1005 C 0.49097 0.11243 0.16151 0.0
C1006 C 0.53305 0.12481 0.18208 0.0
C1007 C 0.57077 0.12247 0.13625 0.0
C1008 C 0.55447 0.11832 0.14922 0.0
C1009 C 0.50432 0.11196 0.17967 0.0
C1010 C 0.52193 0.11332 0.17028 0.0
H1011 H 0.58665 0.12972 0.07491 0.0
H1012 H 0.56114 0.11997 0.09632 0.0
H1013 H 0.55704 0.13692 0.18037 0.0
H1014 H 0.48158 0.10942 0.2365 0.0
H1015 H 0.51076 0.1104 0.22115 0.0
C1016 C 0.1142 0.64645 0.12934 0.0
C1017 C 0.11233 0.64583 0.15691 0.0
C1018 C 0.12069 0.66085 0.11713 0.0
C1019 C 0.14168 0.70211 0.13095 0.0
H1020 H 0.11608 0.71699 0.07009 0.0
C1021 C 0.13279 0.77155 0.10258 0.0
C1022 C 0.13398 0.77603 0.07582 0.0
C1023 C 0.13355 0.75469 0.11021 0.0
C1024 C 0.12354 0.71289 0.08679 0.0
H1025 H 0.11667 0.6595 0.19337 0.0
H1026 H 0.12748 0.68461 0.17221 0.0
H1027 H 0.1117 0.68876 0.08748 0.0
H1028 H 0.13714 0.76639 0.03608 0.0
H1029 H 0.1381 0.73678 0.04947 0.0
H1030 H 0.15277 0.72671 0.13102 0.0
C1031 C 0.12425 0.67396 0.15989 0.0
C1032 C 0.1211 0.69667 0.09674 0.0
C1033 C 0.11791 0.65954 0.17208 0.0
C1034 C 0.13619 0.76331 0.05685 0.0
C1035 C 0.1367 0.74639 0.06447 0.0
C1036 C 0.14396 0.7184 0.12118 0.0
C1037 C 0.12534 0.67498 0.13223 0.0
C1038 C 0.12983 0.69122 0.11937 0.0
C1039 C 0.13531 0.74194 0.09122 0.0
C1040 C 0.13462 0.72406 0.09939 0.0
H1041 H 0.11016 0.63603 0.1171 0.0
H1042 H 0.12166 0.66107 0.09582 0.0
H1043 H 0.1489 0.69823 0.14803 0.0
H1044 H 0.13115 0.78107 0.11767 0.0
H1045 H 0.13225 0.75159 0.13094 0.0
C1046 C 0.50158 0.87913 0.32029 0.0
C1047 C 0.50043 0.87348 0.29409 0.0
C1048 C 0.51637 0.87679 0.33473 0.0
C1049 C 0.56163 0.8648 0.32888 0.0
H1050 H 0.55498 0.84932 0.4007 0.0
C1051 C 0.61059 0.82681 0.38905 0.0
C1052 C 0.61148 0.82967 0.4164 0.0
C1053 C 0.59879 0.83539 0.3736 0.0
C1054 C 0.55711 0.85391 0.38085 0.0
H1055 H 0.51407 0.86142 0.26218 0.0
H1056 H 0.53969 0.85688 0.28758 0.0
H1057 H 0.53089 0.85816 0.37476 0.0
H1058 H 0.60155 0.84471 0.44861 0.0
H1059 H 0.58106 0.85967 0.42162 0.0
H1060 H 0.5879 0.85982 0.3349 0.0
C1061 C 0.52931 0.86343 0.29687 0.0
C1062 C 0.54327 0.85902 0.36594 0.0
C1063 C 0.51456 0.86593 0.28234 0.0
C1064 C 0.60108 0.84206 0.42765 0.0
C1065 C 0.58929 0.8506 0.41222 0.0
C1066 C 0.57551 0.85956 0.3438 0.0
C1067 C 0.5303 0.86857 0.3234 0.0
C1068 C 0.54531 0.86437 0.33968 0.0
C1069 C 0.58765 0.84696 0.38521 0.0
C1070 C 0.57335 0.85392 0.36987 0.0
H1071 H 0.49097 0.88517 0.32981 0.0
H1072 H 0.5168 0.88122 0.35493 0.0
H1073 H 0.56369 0.86907 0.30884 0.0
H1074 H 0.61846 0.81739 0.37975 0.0
H1075 H 0.59778 0.83226 0.35285 0.0
C1076 C 0.34965 0.24654 0.55507 0.0
C1077 C 0.36171 0.235 0.56431 0.0
C1078 C 0.35216 0.26387 0.55816 0.0
C1079 C 0.38573 0.29512 0.56929 0.0
H1080 H 0.35054 0.32291 0.59948 0.0
C1081 C 0.38294 0.35667 0.63757 0.0
C1082 C 0.39554 0.36641 0.62546 0.0
C1083 C 0.37599 0.34286 0.6245 0.0
C1084 C 0.36044 0.31534 0.59085 0.0
H1085 H 0.38585 0.2326 0.58405 0.0
H1086 H 0.39017 0.26267 0.58946 0.0
H1087 H 0.3445 0.29365 0.58784 0.0
H1088 H 0.40957 0.37024 0.58921 0.0
H1089 H 0.39728 0.34619 0.5663 0.0
H1090 H 0.40194 0.31636 0.57348 0.0
C1091 C 0.37886 0.25838 0.57959 0.0
C1092 C 0.35695 0.29864 0.58402 0.0
C1093 C 0.3763 0.24112 0.57669 0.0
C1094 C 0.40003 0.36288 0.59921 0.0
C1095 C 0.39305 0.34905 0.58612 0.0
C1096 C 0.38921 0.31177 0.57602 0.0
C1097 C 0.36686 0.26994 0.57029 0.0
C1098 C 0.36973 0.28823 0.57396 0.0
C1099 C 0.38144 0.33851 0.59901 0.0
C1100 C 0.37675 0.32194 0.5876 0.0
H1101 H 0.33827 0.2422 0.54546 0.0
H1102 H 0.34272 0.27251 0.55079 0.0
H1103 H 0.39575 0.28745 0.56118 0.0
H1104 H 0.3791 0.35911 0.65772 0.0
H1105 H 0.36716 0.33496 0.6351 0.0
C1106 C 0.96349 0.13124 0.76277 0.0
C1107 C 0.97679 0.12401 0.77715 0.0
C1108 C 0.94866 0.13611 0.77554 0.0
C1109 C 0.92419 0.13102 0.83719 0.0
H1110 H 0.9107 0.17727 0.82491 0.0
C1111 C 0.88825 0.16971 0.9141 0.0
C1112 C 0.87669 0.18204 0.9059 0.0
C1113 C 0.89759 0.16064 0.89565 0.0
C1114 C 0.914 0.16422 0.82822 0.0
H1115 H 0.98465 0.11548 0.81593 0.0
H1116 H 0.9588 0.1239 0.8381 0.0
H1117 H 0.93225 0.16456 0.79714 0.0
H1118 H 0.86538 0.19403 0.87176 0.0
H1119 H 0.88165 0.17802 0.8394 0.0
H1120 H 0.90624 0.13079 0.86867 0.0
C1121 C 0.9598 0.12579 0.81698 0.0
C1122 C 0.92639 0.15694 0.8123 0.0
C1123 C 0.97467 0.12107 0.8043 0.0
C1124 C 0.87426 0.18468 0.87873 0.0
C1125 C 0.88362 0.17556 0.8602 0.0
C1126 C 0.91174 0.13826 0.85302 0.0
C1127 C 0.94678 0.13367 0.80285 0.0
C1128 C 0.93194 0.14043 0.81711 0.0
C1129 C 0.89559 0.16362 0.86848 0.0
C1130 C 0.90686 0.15511 0.84922 0.0
H1131 H 0.96474 0.13366 0.74182 0.0
H1132 H 0.93876 0.14204 0.76413 0.0
H1133 H 0.92803 0.11818 0.84107 0.0
H1134 H 0.89044 0.16732 0.93487 0.0
H1135 H 0.90686 0.15175 0.90278 0.0
C1136 C 0.90612 0.64843 0.58444 0.0
C1137 C 0.89532 0.63965 0.60158 0.0
C1138 C 0.90127 0.66391 0.57387 0.0
C1139 C 0.86617 0.69196 0.55897 0.0
H1140 H 0.89737 0.72763 0.57729 0.0
C1141 C 0.84902 0.76243 0.54789 0.0
C1142 C 0.86198 0.77382 0.54194 0.0
C1143 C 0.85269 0.74553 0.55303 0.0
C1144 C 0.88864 0.71785 0.57145 0.0
H1145 H 0.87052 0.63961 0.61953 0.0
H1146 H 0.86195 0.6666 0.60049 0.0
H1147 H 0.90424 0.69866 0.58817 0.0
H1148 H 0.88882 0.77641 0.53554 0.0
H1149 H 0.89519 0.7469 0.54324 0.0
H1150 H 0.85069 0.71106 0.54171 0.0
C1151 C 0.8742 0.66152 0.59555 0.0
C1152 C 0.89258 0.70125 0.57784 0.0
C1153 C 0.87914 0.64612 0.60649 0.0
C1154 C 0.87861 0.76794 0.54046 0.0
C1155 C 0.88225 0.75101 0.54506 0.0
C1156 C 0.86234 0.70859 0.5521 0.0
C1157 C 0.88545 0.67077 0.57985 0.0
C1158 C 0.88136 0.68818 0.57178 0.0
C1159 C 0.86939 0.73961 0.55184 0.0
C1160 C 0.87351 0.72179 0.55839 0.0
H1161 H 0.91865 0.64379 0.58021 0.0
H1162 H 0.9101 0.67078 0.56162 0.0
H1163 H 0.85735 0.68205 0.55407 0.0
H1164 H 0.83608 0.76666 0.54926 0.0
H1165 H 0.84247 0.73723 0.55856 0.0
C1166 C 0.03704 0.12447 0.26273 0.0
C1167 C 0.02501 0.11632 0.27858 0.0
C1168 C 0.05218 0.13013 0.27365 0.0
C1169 C 0.08007 0.12652 0.33195 0.0
H1170 H 0.08933 0.17371 0.31885 0.0
C1171 C 0.11621 0.16797 0.40505 0.0
C1172 C 0.12595 0.1815 0.39577 0.0
C1173 C 0.10709 0.15796 0.38753 0.0
C1174 C 0.08723 0.16042 0.32232 0.0
H1175 H 0.01981 0.10693 0.31797 0.0
H1176 H 0.0462 0.11677 0.33694 0.0
H1177 H 0.0675 0.15949 0.29363 0.0
H1178 H 0.13447 0.19456 0.36063 0.0
H1179 H 0.11867 0.1769 0.32991 0.0
H1180 H 0.09952 0.12756 0.36112 0.0
C1181 C 0.04396 0.11875 0.31608 0.0
C1182 C 0.07467 0.15228 0.30786 0.0
C1183 C 0.02878 0.11322 0.30524 0.0
C1184 C 0.12699 0.18431 0.36843 0.0
C1185 C 0.11787 0.17424 0.35084 0.0
C1186 C 0.09271 0.13464 0.34631 0.0
C1187 C 0.05565 0.12761 0.30055 0.0
C1188 C 0.07064 0.13538 0.31305 0.0
C1189 C 0.10753 0.16117 0.36025 0.0
C1190 C 0.09609 0.15182 0.34221 0.0
H1191 H 0.03453 0.12702 0.2421 0.0
H1192 H 0.06103 0.13679 0.26117 0.0
H1193 H 0.07739 0.11342 0.33608 0.0
H1194 H 0.11514 0.16541 0.42598 0.0
H1195 H 0.0991 0.14818 0.39556 0.0
C1196 C 0.64235 0.22579 0.06334 0.0
C1197 C 0.63084 0.21245 0.06583 0.0
C1198 C 0.63779 0.24212 0.07081 0.0
C1199 C 0.60612 0.26494 0.11112 0.0
H1200 H 0.62041 0.30384 0.07061 0.0
C1201 C 0.57523 0.32918 0.12447 0.0
C1202 C 0.58613 0.34266 0.12999 0.0
C1203 C 0.58154 0.31394 0.11517 0.0
C1204 C 0.61646 0.29307 0.08215 0.0
H1205 H 0.60541 0.20582 0.07746 0.0
H1206 H 0.59731 0.23422 0.08967 0.0
H1207 H 0.62984 0.2757 0.05756 0.0
H1208 H 0.61212 0.35102 0.12863 0.0
H1209 H 0.62315 0.32425 0.11186 0.0
H1210 H 0.59237 0.28223 0.13521 0.0
C1211 C 0.61003 0.23209 0.08274 0.0
C1212 C 0.62189 0.27697 0.07479 0.0
C1213 C 0.61464 0.21579 0.07558 0.0
C1214 C 0.60341 0.34084 0.12465 0.0
C1215 C 0.60972 0.32557 0.11502 0.0
C1216 C 0.60056 0.28093 0.11822 0.0
C1217 C 0.62158 0.24545 0.0807 0.0
C1218 C 0.61661 0.26269 0.08903 0.0
C1219 C 0.59887 0.31187 0.11089 0.0
C1220 C 0.60551 0.29511 0.10366 0.0
H1221 H 0.65496 0.22358 0.05595 0.0
H1222 H 0.64706 0.25206 0.06923 0.0
H1223 H 0.60217 0.25431 0.12299 0.0
H1224 H 0.56183 0.33016 0.1282 0.0
H1225 H 0.57289 0.30362 0.11177 0.0
C1226 C 0.37126 0.83966 0.86161 0.0
C1227 C 0.37031 0.84409 0.88842 0.0
C1228 C 0.38322 0.84719 0.84516 0.0
C1229 C 0.4153 0.88155 0.84188 0.0
H1230 H 0.4413 0.84814 0.80382 0.0
C1231 C 0.48611 0.88786 0.82111 0.0
C1232 C 0.49256 0.88161 0.79722 0.0
C1233 C 0.46907 0.88598 0.82721 0.0
C1234 C 0.43402 0.85773 0.81386 0.0
H1235 H 0.38024 0.86085 0.91846 0.0
H1236 H 0.40117 0.87369 0.89008 0.0
H1237 H 0.41436 0.84035 0.82292 0.0
H1238 H 0.48605 0.86909 0.76053 0.0
H1239 H 0.45631 0.86577 0.7713 0.0
H1240 H 0.43551 0.89867 0.83387 0.0
C1241 C 0.39266 0.86453 0.88156 0.0
C1242 C 0.41852 0.85328 0.82476 0.0
C1243 C 0.38072 0.85703 0.89795 0.0
C1244 C 0.4815 0.87395 0.77918 0.0
C1245 C 0.46447 0.87201 0.78534 0.0
C1246 C 0.43086 0.88598 0.83107 0.0
C1247 C 0.39445 0.8593 0.85521 0.0
C1248 C 0.40921 0.86499 0.83959 0.0
C1249 C 0.45814 0.87776 0.8096 0.0
C1250 C 0.44059 0.87397 0.8176 0.0
H1251 H 0.36331 0.82983 0.8536 0.0
H1252 H 0.3841 0.84309 0.82482 0.0
H1253 H 0.40829 0.89094 0.85279 0.0
H1254 H 0.49429 0.89386 0.83539 0.0
H1255 H 0.4646 0.89036 0.84621 0.0
C1256 C 0.86351 0.26259 0.94744 0.0
C1257 C 0.86554 0.25904 0.97442 0.0
C1258 C 0.86737 0.27852 0.93751 0.0
C1259 C 0.89553 0.31351 0.94995 0.0
H1260 H 0.86976 0.33541 0.89476 0.0
C1261 C 0.92277 0.36998 0.89288 0.0
C1262 C 0.92099 0.36891 0.86533 0.0
C1263 C 0.91333 0.35952 0.90947 0.0
C1264 C 0.87713 0.32944 0.91012 0.0
H1265 H 0.87263 0.26959 0.01233 0.0
H1266 H 0.8796 0.29742 0.99481 0.0
H1267 H 0.85784 0.31126 0.91797 0.0
H1268 H 0.90733 0.35656 0.83367 0.0
H1269 H 0.89127 0.33819 0.86235 0.0
H1270 H 0.91519 0.331 0.94125 0.0
C1271 C 0.875 0.28783 0.98143 0.0
C1272 C 0.87027 0.31566 0.92344 0.0
C1273 C 0.87094 0.27193 0.99143 0.0
C1274 C 0.90905 0.35771 0.8548 0.0
C1275 C 0.8997 0.34724 0.87132 0.0
C1276 C 0.90246 0.32719 0.93648 0.0
C1277 C 0.87349 0.29119 0.9543 0.0
C1278 C 0.87958 0.30729 0.943 0.0
C1279 C 0.90196 0.34775 0.89884 0.0
C1280 C 0.89353 0.33504 0.91588 0.0
H1281 H 0.85931 0.25295 0.93385 0.0
H1282 H 0.86625 0.28069 0.91647 0.0
H1283 H 0.90307 0.3072 0.96477 0.0
H1284 H 0.93177 0.37856 0.90163 0.0
H1285 H 0.9152 0.36041 0.9306 0.0
C1286 C 0.52616 0.10941 0.68374 0.0
C1287 C 0.54063 0.11683 0.67278 0.0
C1288 C 0.5101 0.1143 0.67525 0.0
C1289 C 0.48874 0.13531 0.61926 0.0
H1290 H 0.45255 0.14313 0.66918 0.0
C1291 C 0.4317 0.17536 0.59281 0.0
C1292 C 0.41563 0.16892 0.59852 0.0
C1293 C 0.44607 0.16763 0.60283 0.0
C1294 C 0.46249 0.14078 0.65503 0.0
H1295 H 0.54959 0.1354 0.64466 0.0
H1296 H 0.52178 0.14406 0.63028 0.0
H1297 H 0.47954 0.13201 0.68482 0.0
H1298 H 0.40202 0.14961 0.61999 0.0
H1299 H 0.42739 0.13613 0.6379 0.0
H1300 H 0.47194 0.14451 0.58963 0.0
C1301 C 0.52275 0.13422 0.64499 0.0
C1302 C 0.47792 0.1344 0.66393 0.0
C1303 C 0.53872 0.12932 0.65338 0.0
C1304 C 0.41424 0.15483 0.61519 0.0
C1305 C 0.42872 0.14715 0.62548 0.0
C1306 C 0.47343 0.14176 0.61044 0.0
C1307 C 0.50824 0.12669 0.65565 0.0
C1308 C 0.49133 0.13195 0.64619 0.0
C1309 C 0.44476 0.15333 0.61896 0.0
C1310 C 0.46028 0.14489 0.62829 0.0
H1311 H 0.52721 0.09974 0.69871 0.0
H1312 H 0.49918 0.10819 0.68373 0.0
H1313 H 0.49865 0.13315 0.60497 0.0
H1314 H 0.43326 0.18624 0.58015 0.0
H1315 H 0.45828 0.17283 0.59787 0.0
C1316 C 0.63327 0.73461 0.45859 0.0
C1317 C 0.62653 0.7507 0.45384 0.0
C1318 C 0.62714 0.72057 0.44487 0.0
C1319 C 0.6033 0.70924 0.38466 0.0
H1320 H 0.5917 0.66835 0.42237 0.0
C1321 C 0.55549 0.66267 0.34382 0.0
C1322 C 0.55984 0.64554 0.34346 0.0
C1323 C 0.56525 0.67423 0.35771 0.0
C1324 C 0.5951 0.67962 0.41156 0.0
H1325 H 0.60814 0.76464 0.43086 0.0
H1326 H 0.59746 0.74036 0.40735 0.0
H1327 H 0.60645 0.6911 0.44549 0.0
H1328 H 0.57753 0.62699 0.35827 0.0
H1329 H 0.59456 0.64736 0.38302 0.0
H1330 H 0.5915 0.69807 0.35103 0.0
C1331 C 0.60761 0.73853 0.42133 0.0
C1332 C 0.60356 0.69261 0.42473 0.0
C1333 C 0.61367 0.75247 0.435 0.0
C1334 C 0.57388 0.64012 0.35814 0.0
C1335 C 0.5836 0.65173 0.37231 0.0
C1336 C 0.59479 0.69636 0.37161 0.0
C1337 C 0.61426 0.72242 0.42604 0.0
C1338 C 0.60733 0.70773 0.41156 0.0
C1339 C 0.57954 0.66894 0.37174 0.0
C1340 C 0.59023 0.68161 0.38509 0.0
H1341 H 0.64318 0.73284 0.47301 0.0
H1342 H 0.63256 0.70832 0.44883 0.0
H1343 H 0.60639 0.72057 0.37379 0.0
H1344 H 0.54473 0.66729 0.33286 0.0
H1345 H 0.56167 0.68738 0.35733 0.0
C1346 C 0.08109 0.83253 0.15581 0.0
C1347 C 0.08865 0.84135 0.13489 0.0
C1348 C 0.06582 0.83804 0.16646 0.0
C1349 C 0.02815 0.84438 0.16672 0.0
H1350 H 0.01559 0.89128 0.17453 0.0
C1351 C 0.95966 0.86685 0.15979 0.0
C1352 C 0.95414 0.87932 0.17743 0.0
C1353 C 0.97661 0.86228 0.15882 0.0
C1354 C 0.01895 0.87812 0.17277 0.0
H1355 H 0.08673 0.86349 0.10998 0.0
H1356 H 0.06012 0.873 0.12841 0.0
H1357 H 0.04506 0.88384 0.16712 0.0
H1358 H 0.96206 0.89675 0.20797 0.0
H1359 H 0.99175 0.88877 0.20617 0.0
H1360 H 0.00204 0.83866 0.17191 0.0
C1361 C 0.06597 0.86188 0.13668 0.0
C1362 C 0.03579 0.87387 0.16833 0.0
C1363 C 0.08119 0.85635 0.12598 0.0
C1364 C 0.96593 0.8871 0.19414 0.0
C1365 C 0.98293 0.88259 0.19306 0.0
C1366 C 0.01133 0.84863 0.17105 0.0
C1367 C 0.05787 0.85252 0.1565 0.0
C1368 C 0.04051 0.85697 0.16473 0.0
C1369 C 0.98844 0.87012 0.1754 0.0
C1370 C 0.0065 0.86556 0.17355 0.0
H1371 H 0.08657 0.82098 0.16324 0.0
H1372 H 0.05999 0.8307 0.18199 0.0
H1373 H 0.03134 0.83126 0.16377 0.0
H1374 H 0.95091 0.86061 0.14663 0.0
H1375 H 0.98052 0.85282 0.14471 0.0
C1376 C 0.62544 0.76311 0.9789 0.0
C1377 C 0.62638 0.74904 0.96212 0.0
C1378 C 0.6181 0.77811 0.9701 0.0
C1379 C 0.58651 0.79292 0.92362 0.0
H1380 H 0.60716 0.83695 0.93047 0.0
C1381 C 0.57777 0.86046 0.87147 0.0
C1382 C 0.56015 0.86199 0.87285 0.0
C1383 C 0.58618 0.84847 0.88677 0.0
C1384 C 0.60124 0.82473 0.92858 0.0
H1385 H 0.62076 0.73982 0.92274 0.0
H1386 H 0.60783 0.76588 0.90762 0.0
H1387 H 0.62175 0.81201 0.94769 0.0
H1388 H 0.53771 0.85301 0.89285 0.0
H1389 H 0.55241 0.83208 0.91941 0.0
H1390 H 0.56615 0.8054 0.90424 0.0
C1391 C 0.61273 0.76529 0.92756 0.0
C1392 C 0.60953 0.81052 0.9385 0.0
C1393 C 0.62022 0.7504 0.9362 0.0
C1394 C 0.55127 0.85206 0.89111 0.0
C1395 C 0.55967 0.84002 0.90627 0.0
C1396 C 0.57815 0.80708 0.91405 0.0
C1397 C 0.61138 0.77919 0.94452 0.0
C1398 C 0.60235 0.79447 0.93566 0.0
C1399 C 0.57712 0.83775 0.90363 0.0
C1400 C 0.58551 0.82311 0.91611 0.0
H1401 H 0.63013 0.76245 -0.00105 0.0
H1402 H 0.61718 0.78867 0.98355 0.0
H1403 H 0.58062 0.7807 0.92143 0.0
H1404 H 0.585 0.86798 0.85769 0.0
H1405 H 0.59964 0.84694 0.88426 0.0
C1406 C 0.51321 0.37902 0.19671 0.0
C1407 C 0.5254 0.3863 0.18018 0.0
C1408 C 0.49642 0.37799 0.18864 0.0
C1409 C 0.47134 0.37705 0.12756 0.0
H1410 H 0.43355 0.37833 0.17602 0.0
C1411 C 0.40439 0.36379 0.09133 0.0
C1412 C 0.39571 0.35149 0.10593 0.0
C1413 C 0.4188 0.37142 0.10161 0.0
C1414 C 0.444 0.37795 0.16228 0.0
H1415 H 0.52938 0.39912 0.14289 0.0
H1416 H 0.50004 0.39769 0.12907 0.0
H1417 H 0.46168 0.38584 0.19169 0.0
H1418 H 0.39472 0.33839 0.14347 0.0
H1419 H 0.41994 0.35167 0.16135 0.0
H1420 H 0.45378 0.36891 0.09829 0.0
C1421 C 0.50351 0.39235 0.14798 0.0
C1422 C 0.46011 0.3822 0.17125 0.0
C1423 C 0.52032 0.39325 0.15595 0.0
C1424 C 0.40115 0.34776 0.13167 0.0
C1425 C 0.41556 0.35543 0.14198 0.0
C1426 C 0.45526 0.37292 0.1186 0.0
C1427 C 0.49143 0.38436 0.16394 0.0
C1428 C 0.47402 0.38152 0.15408 0.0
C1429 C 0.42481 0.36697 0.12673 0.0
C1430 C 0.44146 0.37306 0.13593 0.0
H1431 H 0.51671 0.37355 0.2155 0.0
H1432 H 0.48752 0.37157 0.20132 0.0
H1433 H 0.48177 0.37605 0.11389 0.0
H1434 H 0.40045 0.36709 0.07152 0.0
H1435 H 0.42552 0.38047 0.08958 0.0
C1436 C 0.90266 0.22225 0.46658 0.0
C1437 C 0.88788 0.23058 0.45872 0.0
C1438 C 0.90756 0.20729 0.45435 0.0
C1439 C 0.90344 0.18552 0.39124 0.0
H1440 H 0.92615 0.14926 0.42812 0.0
C1441 C 0.93343 0.13075 0.33416 0.0
C1442 C 0.94993 0.1266 0.34182 0.0
C1443 C 0.92336 0.14088 0.35024 0.0
C1444 C 0.91987 0.1593 0.41754 0.0
H1445 H 0.86625 0.22935 0.43265 0.0
H1446 H 0.87483 0.20316 0.41128 0.0
H1447 H 0.91271 0.17176 0.45331 0.0
H1448 H 0.9685 0.12919 0.37294 0.0
H1449 H 0.95106 0.14707 0.40076 0.0
H1450 H 0.91105 0.17348 0.35549 0.0
C1451 C 0.8827 0.20833 0.42675 0.0
C1452 C 0.91216 0.17217 0.43196 0.0
C1453 C 0.87775 0.22328 0.43907 0.0
C1454 C 0.95586 0.13217 0.36644 0.0
C1455 C 0.94581 0.14234 0.38248 0.0
C1456 C 0.91116 0.17269 0.37683 0.0
C1457 C 0.89781 0.20034 0.43394 0.0
C1458 C 0.90415 0.1856 0.41895 0.0
C1459 C 0.92957 0.14712 0.3743 0.0
C1460 C 0.91976 0.15961 0.38979 0.0
H1461 H 0.91072 0.2275 0.48173 0.0
H1462 H 0.91937 0.20157 0.46015 0.0
H1463 H 0.89759 0.1958 0.3806 0.0
H1464 H 0.92841 0.12654 0.31542 0.0
H1465 H 0.9108 0.14409 0.34358 0.0
C1466 C 0.08956 0.62831 0.63175 0.0
C1467 C 0.09569 0.62432 0.60649 0.0
C1468 C 0.07385 0.62238 0.64003 0.0
C1469 C 0.03333 0.61261 0.6122 0.0
H1470 H 0.0225 0.59387 0.68077 0.0
C1471 C 0.96483 0.59765 0.63977 0.0
C1472 C 0.95977 0.60101 0.66577 0.0
C1473 C 0.98186 0.59794 0.63295 0.0
C1474 C 0.02527 0.59927 0.66165 0.0
H1475 H 0.09057 0.61027 0.57064 0.0
H1476 H 0.06302 0.60019 0.58498 0.0
H1477 H 0.05191 0.59867 0.66875 0.0
H1478 H 0.96849 0.60715 0.70513 0.0
H1479 H -0.00187 0.60845 0.69308 0.0
H1480 H 0.00691 0.61417 0.60537 0.0
C1481 C 0.07041 0.60787 0.59834 0.0
C1482 C 0.04212 0.6019 0.65475 0.0
C1483 C 0.0862 0.61359 0.59021 0.0
C1484 C 0.97206 0.60444 0.68494 0.0
C1485 C 0.98908 0.60505 0.67803 0.0
C1486 C 0.01652 0.61027 0.61922 0.0
C1487 C 0.06393 0.61256 0.62304 0.0
C1488 C 0.04627 0.60864 0.62999 0.0
C1489 C 0.99421 0.60195 0.65187 0.0
C1490 C 0.01222 0.60364 0.64409 0.0
H1491 H 0.09662 0.6365 0.64477 0.0
H1492 H 0.06909 0.62623 0.65913 0.0
H1493 H 0.0362 0.61811 0.59315 0.0
H1494 H 0.95563 0.59475 0.62465 0.0
H1495 H 0.98531 0.59507 0.61278 0.0
C1496 C 0.62339 0.26389 0.55545 0.0
C1497 C 0.6372 0.27003 0.54106 0.0
C1498 C 0.62157 0.24666 0.55999 0.0
C1499 C 0.64569 0.20768 0.56547 0.0
H1500 H 0.60147 0.18711 0.5621 0.0
C1501 C 0.6084 0.14089 0.58809 0.0
C1502 C 0.61425 0.13803 0.61388 0.0
C1503 C 0.61353 0.15515 0.5741 0.0
C1504 C 0.61397 0.19253 0.5627 0.0
H1505 H 0.6599 0.26291 0.52 0.0
H1506 H 0.65673 0.23274 0.52811 0.0
H1507 H 0.60522 0.21596 0.54707 0.0
H1508 H 0.63119 0.1471 0.64433 0.0
H1509 H 0.64002 0.17199 0.62004 0.0
H1510 H 0.65434 0.18431 0.58167 0.0
C1511 C 0.64735 0.24131 0.53588 0.0
C1512 C 0.61607 0.20914 0.55439 0.0
C1513 C 0.64911 0.25856 0.53116 0.0
C1514 C 0.62635 0.149 0.62457 0.0
C1515 C 0.6315 0.16323 0.61056 0.0
C1516 C 0.64358 0.19106 0.57391 0.0
C1517 C 0.63356 0.2352 0.55035 0.0
C1518 C 0.63184 0.21701 0.55627 0.0
C1519 C 0.62467 0.16678 0.58558 0.0
C1520 C 0.62761 0.18343 0.57314 0.0
H1521 H 0.61399 0.27238 0.56336 0.0
H1522 H 0.61094 0.24235 0.57155 0.0
H1523 H 0.65799 0.21345 0.56722 0.0
H1524 H 0.59919 0.1326 0.57917 0.0
H1525 H 0.60828 0.15741 0.55469 0.0
C1526 C 0.01319 0.37081 0.78863 0.0
C1527 C 0.00025 0.37647 0.80535 0.0
C1528 C 0.02876 0.36601 0.79901 0.0
C1529 C 0.05577 0.36829 0.8585 0.0
H1530 H 0.07172 0.32471 0.83482 0.0
C1531 C 0.10006 0.32678 0.92016 0.0
C1532 C 0.11164 0.31621 0.90729 0.0
C1533 C 0.08881 0.3366 0.90567 0.0
C1534 C 0.0677 0.33706 0.84131 0.0
H1535 H 0.99376 0.38225 0.84594 0.0
H1536 H 0.0209 0.37379 0.86406 0.0
H1537 H 0.04767 0.33762 0.81316 0.0
H1538 H 0.12109 0.30837 0.86906 0.0
H1539 H 0.10156 0.32574 0.8437 0.0
H1540 H 0.07562 0.36753 0.88706 0.0
C1541 C 0.01904 0.37316 0.8429 0.0
C1542 C 0.05387 0.34446 0.8289 0.0
C1543 C 0.00345 0.37791 0.83254 0.0
C1544 C 0.11224 0.31628 0.87958 0.0
C1545 C 0.10099 0.32616 0.86504 0.0
C1546 C 0.06967 0.36092 0.87087 0.0
C1547 C 0.03175 0.36684 0.82631 0.0
C1548 C 0.04754 0.35999 0.8377 0.0
C1549 C 0.08891 0.33616 0.87794 0.0
C1550 C 0.07557 0.34504 0.86278 0.0
H1551 H 0.01118 0.36965 0.76757 0.0
H1552 H 0.03838 0.3614 0.7857 0.0
H1553 H 0.05132 0.38039 0.86546 0.0
H1554 H 0.09926 0.32706 0.9415 0.0
H1555 H 0.07956 0.34398 0.91627 0.0
C1556 C 0.86131 0.73568 0.0094 0.0
C1557 C 0.87313 0.72479 0.02103 0.0
C1558 C 0.86245 0.75309 0.01322 0.0
C1559 C 0.89205 0.78652 0.03412 0.0
H1560 H 0.85183 0.81058 0.05549 0.0
C1561 C 0.87597 0.84654 0.1022 0.0
C1562 C 0.88888 0.85747 0.09408 0.0
C1563 C 0.87201 0.83229 0.0873 0.0
C1564 C 0.86316 0.80406 0.04942 0.0
H1565 H 0.89557 0.72365 0.04543 0.0
H1566 H 0.89747 0.75386 0.05219 0.0
H1567 H 0.84968 0.78132 0.04113 0.0
H1568 H 0.90667 0.86288 0.06272 0.0
H1569 H 0.89957 0.83815 0.03652 0.0
H1570 H 0.9057 0.80882 0.04374 0.0
C1571 C 0.88743 0.74902 0.03987 0.0
C1572 C 0.8619 0.78735 0.04097 0.0
C1573 C 0.88626 0.73167 0.03616 0.0
C1574 C 0.89681 0.85458 0.0697 0.0
C1575 C 0.89281 0.84036 0.05475 0.0
C1576 C 0.89331 0.80318 0.04256 0.0
C1577 C 0.8755 0.75993 0.02859 0.0
C1578 C 0.87642 0.77826 0.03396 0.0
C1579 C 0.88082 0.82871 0.06389 0.0
C1580 C 0.87894 0.81202 0.05098 0.0
H1581 H 0.85106 0.73076 0.99761 0.0
H1582 H 0.85314 0.76119 0.00415 0.0
H1583 H 0.90343 0.77993 0.02845 0.0
H1584 H 0.86955 0.84843 0.12083 0.0
H1585 H 0.8628 0.82354 0.09506 0.0
C1586 C 0.37442 0.66423 0.372 0.0
C1587 C 0.37522 0.66269 0.39961 0.0
C1588 C 0.38542 0.65507 0.35592 0.0
C1589 C 0.41658 0.61998 0.35613 0.0
H1590 H 0.43949 0.64742 0.30403 0.0
C1591 C 0.4843 0.60758 0.3214 0.0
C1592 C 0.48877 0.61142 0.29525 0.0
C1593 C 0.46803 0.61078 0.33055 0.0
C1594 C 0.43302 0.63943 0.31806 0.0
H1595 H 0.38753 0.64961 0.4319 0.0
H1596 H 0.40677 0.6339 0.404 0.0
H1597 H 0.41485 0.6585 0.3265 0.0
H1598 H 0.4794 0.62075 0.25777 0.0
H1599 H 0.45096 0.6263 0.27378 0.0
H1600 H 0.43527 0.60118 0.34838 0.0
C1601 C 0.39758 0.64202 0.39466 0.0
C1602 C 0.41885 0.64579 0.33096 0.0
C1603 C 0.38661 0.65115 0.41071 0.0
C1604 C 0.4764 0.61777 0.27809 0.0
C1605 C 0.46012 0.62101 0.28727 0.0
C1606 C 0.43079 0.61363 0.34325 0.0
C1607 C 0.39741 0.64418 0.36713 0.0
C1608 C 0.41074 0.63632 0.35065 0.0
C1609 C 0.45587 0.6179 0.31376 0.0
C1610 C 0.43942 0.62347 0.32458 0.0
H1611 H 0.3657 0.67292 0.36282 0.0
H1612 H 0.38481 0.65683 0.33474 0.0
H1613 H 0.41043 0.61226 0.37088 0.0
H1614 H 0.49351 0.60262 0.33512 0.0
H1615 H 0.46523 0.60841 0.35114 0.0
C1616 C 0.38995 0.15854 0.15613 0.0
C1617 C 0.39744 0.14551 0.1415 0.0
C1618 C 0.38442 0.17318 0.14364 0.0
C1619 C 0.39172 0.19794 0.08298 0.0
H1620 H 0.35434 0.22423 0.10993 0.0
C1621 C 0.3703 0.26107 0.0366 0.0
C1622 C 0.36848 0.27438 0.05464 0.0
C1623 C 0.37246 0.24457 0.04558 0.0
C1624 C 0.36482 0.21701 0.10225 0.0
H1625 H 0.40416 0.13724 0.10211 0.0
H1626 H 0.39401 0.16262 0.08014 0.0
H1627 H 0.35968 0.19621 0.12777 0.0
H1628 H 0.36724 0.28085 0.0962 0.0
H1629 H 0.37082 0.252 0.11184 0.0
H1630 H 0.39674 0.2188 0.05736 0.0
C1631 C 0.39286 0.16172 0.10139 0.0
C1632 C 0.36793 0.20098 0.11249 0.0
C1633 C 0.39856 0.14712 0.11395 0.0
C1634 C 0.36867 0.27086 0.08182 0.0
C1635 C 0.37059 0.25435 0.09078 0.0
C1636 C 0.38847 0.21388 0.07251 0.0
C1637 C 0.38605 0.1751 0.11616 0.0
C1638 C 0.38163 0.19137 0.10336 0.0
C1639 C 0.37258 0.24107 0.07275 0.0
C1640 C 0.37519 0.22368 0.08239 0.0
H1641 H 0.38895 0.15775 0.17741 0.0
H1642 H 0.37949 0.18327 0.15576 0.0
H1643 H 0.40254 0.19106 0.07573 0.0
H1644 H 0.37021 0.26339 0.01554 0.0
H1645 H 0.3739 0.23454 0.0313 0.0
C1646 C 0.50364 0.62266 0.80369 0.0
C1647 C 0.48927 0.62696 0.8184 0.0
C1648 C 0.51973 0.6264 0.81322 0.0
C1649 C 0.54269 0.63783 0.87441 0.0
H1650 H 0.57558 0.65645 0.82596 0.0
C1651 C 0.60486 0.68218 0.88027 0.0
C1652 C 0.61252 0.67534 0.90284 0.0
C1653 C 0.59159 0.67377 0.86789 0.0
C1654 C 0.56654 0.65127 0.83975 0.0
H1655 H 0.4805 0.63848 0.85471 0.0
H1656 H 0.50848 0.64527 0.87107 0.0
H1657 H 0.54842 0.64696 0.80925 0.0
H1658 H 0.6131 0.65372 0.92898 0.0
H1659 H 0.59021 0.63886 0.90702 0.0
H1660 H 0.5604 0.64292 0.9051 0.0
C1661 C 0.50738 0.63873 0.8524 0.0
C1662 C 0.55103 0.64566 0.83013 0.0
C1663 C 0.49132 0.63494 0.84293 0.0
C1664 C 0.60734 0.65941 0.91179 0.0
C1665 C 0.59414 0.65095 0.8993 0.0
C1666 C 0.55815 0.6435 0.88404 0.0
C1667 C 0.52178 0.63455 0.83763 0.0
C1668 C 0.5388 0.63916 0.84744 0.0
C1669 C 0.58576 0.65826 0.8777 0.0
C1670 C 0.57016 0.65056 0.8669 0.0
H1671 H 0.50249 0.61643 0.78477 0.0
H1672 H 0.53056 0.62284 0.8015 0.0
H1673 H 0.53367 0.63264 0.88822 0.0
H1674 H 0.60854 0.69443 0.87285 0.0
H1675 H 0.58535 0.67987 0.85147 0.0
C1676 C 0.11216 0.83879 0.66513 0.0
C1677 C 0.09971 0.84784 0.65143 0.0
C1678 C 0.11848 0.82373 0.65488 0.0
C1679 C 0.13375 0.7944 0.62397 0.0
H1680 H 0.09843 0.7641 0.60077 0.0
C1681 C 0.14603 0.72693 0.58381 0.0
C1682 C 0.13539 0.7143 0.59382 0.0
C1683 C 0.14284 0.74389 0.58925 0.0
C1684 C 0.10842 0.77242 0.60721 0.0
H1685 H 0.08499 0.84879 0.61538 0.0
H1686 H 0.09605 0.82253 0.59753 0.0
H1687 H 0.09151 0.79312 0.61187 0.0
H1688 H 0.11319 0.70956 0.61765 0.0
H1689 H 0.10761 0.73911 0.62701 0.0
H1690 H 0.15058 0.77345 0.61985 0.0
C1691 C 0.10074 0.82697 0.61636 0.0
C1692 C 0.10451 0.78909 0.61325 0.0
C1693 C 0.09447 0.84206 0.62654 0.0
C1694 C 0.12161 0.71897 0.60959 0.0
C1695 C 0.11835 0.7359 0.61482 0.0
C1696 C 0.1377 0.77771 0.6177 0.0
C1697 C 0.11243 0.81741 0.63079 0.0
C1698 C 0.11708 0.80021 0.62204 0.0
C1699 C 0.12885 0.74854 0.60456 0.0
C1700 C 0.12501 0.7665 0.60968 0.0
H1701 H 0.11653 0.84293 0.68431 0.0
H1702 H 0.12742 0.8166 0.66653 0.0
H1703 H 0.1437 0.80271 0.63058 0.0
H1704 H 0.15677 0.72373 0.57163 0.0
H1705 H 0.15109 0.75338 0.58101 0.0
C1706 C 0.88176 0.30589 0.38082 0.0
C1707 C 0.88379 0.30629 0.40838 0.0
C1708 C 0.89165 0.31616 0.36458 0.0
C1709 C 0.92034 0.35321 0.36571 0.0
H1710 H 0.9412 0.33136 0.30561 0.0
C1711 C 0.98334 0.37447 0.32094 0.0
C1712 C 0.98556 0.37344 0.29347 0.0
C1713 C 0.96852 0.36867 0.33265 0.0
C1714 C 0.93526 0.33778 0.32201 0.0
H1715 H 0.89742 0.31817 0.44051 0.0
H1716 H 0.91474 0.33577 0.41232 0.0
H1717 H 0.91934 0.31672 0.33027 0.0
H1718 H 0.97369 0.36613 0.25664 0.0
H1719 H 0.94781 0.35594 0.27717 0.0
H1720 H 0.93678 0.37401 0.35799 0.0
C1721 C 0.90539 0.32774 0.40317 0.0
C1722 C 0.9227 0.32939 0.33614 0.0
C1723 C 0.89553 0.31752 0.41936 0.0
C1724 C 0.9724 0.36705 0.27787 0.0
C1725 C 0.9576 0.36114 0.28961 0.0
C1726 C 0.93295 0.36157 0.35164 0.0
C1727 C 0.90373 0.32704 0.37558 0.0
C1728 C 0.91539 0.33684 0.35854 0.0
C1729 C 0.95563 0.36164 0.31716 0.0
C1730 C 0.9408 0.35378 0.33001 0.0
H1731 H 0.87276 0.29744 0.37175 0.0
H1732 H 0.88995 0.31546 0.3434 0.0
H1733 H 0.91473 0.35944 0.38256 0.0
H1734 H 0.99322 0.37936 0.33352 0.0
H1735 H 0.96746 0.36906 0.35395 0.0
C1736 C 0.40922 0.84396 0.32359 0.0
C1737 C 0.42086 0.85427 0.33685 0.0
C1738 C 0.40008 0.83178 0.33732 0.0
C1739 C 0.38731 0.81748 0.40396 0.0
H1740 H 0.38785 0.77331 0.37144 0.0
C1741 C 0.37481 0.75611 0.4618 0.0
C1742 C 0.36673 0.74276 0.44877 0.0
C1743 C 0.37887 0.77087 0.44821 0.0
C1744 C 0.38727 0.7856 0.38064 0.0
H1745 H 0.43141 0.86042 0.37515 0.0
H1746 H 0.41552 0.83902 0.39909 0.0
H1747 H 0.39933 0.79724 0.34766 0.0
H1748 H 0.35579 0.73474 0.4116 0.0
H1749 H 0.3626 0.76059 0.38803 0.0
H1750 H 0.37546 0.80571 0.43715 0.0
C1751 C 0.41341 0.84045 0.37809 0.0
C1752 C 0.39388 0.79934 0.36699 0.0
C1753 C 0.42258 0.85265 0.36434 0.0
C1754 C 0.36217 0.74473 0.42215 0.0
C1755 C 0.36615 0.75952 0.4086 0.0
C1756 C 0.38062 0.80372 0.41761 0.0
C1757 C 0.40235 0.82963 0.36462 0.0
C1758 C 0.39415 0.8154 0.37859 0.0
C1759 C 0.37486 0.77263 0.42131 0.0
C1760 C 0.38071 0.78757 0.40622 0.0
H1761 H 0.40747 0.84497 0.30245 0.0
H1762 H 0.39145 0.82381 0.32647 0.0
H1763 H 0.38719 0.82975 0.41329 0.0
H1764 H 0.3785 0.755 0.4823 0.0
H1765 H 0.38574 0.78062 0.45855 0.0
C1766 C 0.0196 0.60759 0.19051 0.0
C1767 C 0.03208 0.6194 0.19692 0.0
C1768 C 0.00417 0.61287 0.18011 0.0
C1769 C 0.98466 0.64984 0.147 0.0
H1770 H 0.94314 0.62544 0.15971 0.0
C1771 C 0.9206 0.67447 0.11161 0.0
C1772 C 0.91178 0.66327 0.09518 0.0
C1773 C 0.93425 0.66886 0.12657 0.0
C1774 C 0.95468 0.63233 0.15604 0.0
H1775 H 0.03801 0.646 0.19874 0.0
H1776 H 0.01091 0.65529 0.18185 0.0
H1777 H 0.96906 0.61644 0.18161 0.0
H1778 H 0.90975 0.63723 0.08268 0.0
H1779 H 0.93349 0.62738 0.10937 0.0
H1780 H 0.97013 0.66592 0.12191 0.0
C1781 C 0.01316 0.6419 0.18375 0.0
C1782 C 0.96955 0.62714 0.16841 0.0
C1783 C 0.02868 0.6366 0.19362 0.0
C1784 C 0.91636 0.64617 0.09506 0.0
C1785 C 0.92987 0.64051 0.11039 0.0
C1786 C 0.96977 0.65517 0.13506 0.0
C1787 C 0.0008 0.63011 0.17636 0.0
C1788 C 0.98477 0.63579 0.16394 0.0
C1789 C 0.93916 0.65191 0.12575 0.0
C1790 C 0.95468 0.64643 0.13936 0.0
H1791 H 0.02194 0.59423 0.19274 0.0
H1792 H 0.9951 0.60339 0.17434 0.0
H1793 H 0.99614 0.65658 0.14245 0.0
H1794 H 0.91739 0.68771 0.11217 0.0
H1795 H 0.94117 0.67785 0.13844 0.0
C1796 C 0.11664 0.22006 0.96667 0.0
C1797 C 0.12198 0.23429 0.95246 0.0
C1798 C 0.11127 0.20559 0.9534 0.0
C1799 C 0.11148 0.18435 0.88822 0.0
H1800 H 0.0685 0.16636 0.9111 0.0
C1801 C 0.06791 0.14686 0.8196 0.0
C1802 C 0.05834 0.13356 0.83004 0.0
C1803 C 0.07782 0.15686 0.83605 0.0
C1804 C 0.08067 0.17098 0.90472 0.0
H1805 H 0.12657 0.24423 0.91322 0.0
H1806 H 0.11714 0.2191 0.89014 0.0
H1807 H 0.08236 0.18795 0.93738 0.0
H1808 H 0.05208 0.11999 0.86588 0.0
H1809 H 0.0695 0.13746 0.89467 0.0
H1810 H 0.10955 0.16769 0.85517 0.0
C1811 C 0.1172 0.21904 0.91152 0.0
C1812 C 0.08862 0.18337 0.91979 0.0
C1813 C 0.12249 0.23351 0.92476 0.0
C1814 C 0.05925 0.13019 0.85724 0.0
C1815 C 0.06917 0.14024 0.87374 0.0
C1816 C 0.10354 0.17195 0.87316 0.0
C1817 C 0.11123 0.20504 0.92567 0.0
C1818 C 0.10392 0.19046 0.91139 0.0
C1819 C 0.07842 0.1538 0.86335 0.0
C1820 C 0.08786 0.1654 0.88093 0.0
H1821 H 0.11616 0.22022 0.98803 0.0
H1822 H 0.10693 0.19492 0.96483 0.0
H1823 H 0.1234 0.18938 0.88147 0.0
H1824 H 0.06752 0.1498 0.79873 0.0
H1825 H 0.08459 0.16735 0.82745 0.0
C1826 C 0.59719 0.33874 0.63001 0.0
C1827 C 0.59999 0.34153 0.60298 0.0
C1828 C 0.58271 0.345 0.64226 0.0
C1829 C 0.54684 0.37472 0.6327 0.0
H1830 H 0.52391 0.34454 0.68095 0.0
C1831 C 0.47653 0.38104 0.65926 0.0
C1832 C 0.47214 0.37934 0.686 0.0
C1833 C 0.49292 0.37763 0.65085 0.0
C1834 C 0.53027 0.35318 0.66775 0.0
H1835 H 0.59002 0.3535 0.56777 0.0
H1836 H 0.56469 0.364 0.58886 0.0
H1837 H 0.55143 0.3368 0.66351 0.0
H1838 H 0.48148 0.3727 0.72488 0.0
H1839 H 0.51009 0.36652 0.71005 0.0
H1840 H 0.5253 0.39079 0.6363 0.0
C1841 C 0.57377 0.35729 0.60083 0.0
C1842 C 0.54608 0.3488 0.65783 0.0
C1843 C 0.58829 0.35116 0.58866 0.0
C1844 C 0.48447 0.37413 0.70414 0.0
C1845 C 0.50082 0.37053 0.69567 0.0
C1846 C 0.53095 0.37901 0.64242 0.0
C1847 C 0.57066 0.35408 0.62769 0.0
C1848 C 0.55448 0.35942 0.63992 0.0
C1849 C 0.50521 0.37228 0.66896 0.0
C1850 C 0.52244 0.3682 0.65981 0.0
H1851 H 0.60603 0.33147 0.64162 0.0
H1852 H 0.58087 0.34256 0.66308 0.0
H1853 H 0.55308 0.38336 0.61936 0.0
H1854 H 0.46732 0.38506 0.64481 0.0
H1855 H 0.49592 0.3789 0.63009 0.0
C1856 C 0.03722 0.43855 0.2207 0.0
C1857 C 0.04305 0.43168 0.24457 0.0
C1858 C 0.04267 0.45438 0.21234 0.0
C1859 C 0.07674 0.48544 0.22158 0.0
H1860 H 0.04421 0.5168 0.19264 0.0
C1861 C 0.08896 0.55668 0.21129 0.0
C1862 C 0.08165 0.56533 0.18996 0.0
C1863 C 0.0859 0.53954 0.215 0.0
C1864 C 0.05352 0.50809 0.20021 0.0
H1865 H 0.0591 0.43612 0.27852 0.0
H1866 H 0.06846 0.46389 0.26406 0.0
H1867 H 0.03514 0.48875 0.20569 0.0
H1868 H 0.06634 0.56249 0.15477 0.0
H1869 H 0.06119 0.53249 0.16108 0.0
H1870 H 0.09508 0.50492 0.21644 0.0
C1871 C 0.05984 0.4569 0.25163 0.0
C1872 C 0.04831 0.49203 0.20778 0.0
C1873 C 0.05437 0.44105 0.26001 0.0
C1874 C 0.07206 0.55623 0.17152 0.0
C1875 C 0.06901 0.53907 0.17523 0.0
C1876 C 0.08197 0.50152 0.21398 0.0
C1877 C 0.05408 0.46371 0.22766 0.0
C1878 C 0.05981 0.48058 0.21878 0.0
C1879 C 0.07549 0.53065 0.19743 0.0
C1880 C 0.07038 0.51309 0.20344 0.0
H1881 H 0.02854 0.43163 0.20827 0.0
H1882 H 0.03812 0.45921 0.19366 0.0
H1883 H 0.08596 0.47679 0.22959 0.0
H1884 H 0.09646 0.56329 0.22583 0.0
H1885 H 0.09101 0.53348 0.23239 0.0
C1886 C 0.80708 0.83777 0.54323 0.0
C1887 C 0.81566 0.8297 0.56394 0.0
C1888 C 0.78959 0.83669 0.54127 0.0
C1889 C 0.75539 0.80819 0.56014 0.0
H1890 H 0.72691 0.84331 0.53128 0.0
C1891 C 0.68414 0.79882 0.54399 0.0
C1892 C 0.67756 0.80464 0.51992 0.0
C1893 C 0.70053 0.80294 0.55156 0.0
C1894 C 0.73475 0.83336 0.53921 0.0
H1895 H 0.8125 0.8152 0.59989 0.0
H1896 H 0.78191 0.81353 0.59666 0.0
H1897 H 0.7562 0.84957 0.54219 0.0
H1898 H 0.68301 0.81938 0.48489 0.0
H1899 H 0.71171 0.82644 0.49801 0.0
H1900 H 0.73406 0.79192 0.55679 0.0
C1901 C 0.78877 0.82038 0.58163 0.0
C1902 C 0.7515 0.83695 0.54551 0.0
C1903 C 0.80629 0.82144 0.58357 0.0
C1904 C 0.68772 0.81469 0.50356 0.0
C1905 C 0.70411 0.81885 0.51117 0.0
C1906 C 0.73866 0.80463 0.55391 0.0
C1907 C 0.78028 0.82755 0.56002 0.0
C1908 C 0.76207 0.82434 0.55574 0.0
C1909 C 0.71069 0.81301 0.53525 0.0
C1910 C 0.72821 0.81711 0.54307 0.0
H1911 H 0.81391 0.84429 0.52781 0.0
H1912 H 0.78348 0.84226 0.52428 0.0
H1913 H 0.76326 0.7981 0.56751 0.0
H1914 H 0.67663 0.79111 0.55711 0.0
H1915 H 0.70519 0.79839 0.57035 0.0
C1916 C 0.44262 0.45314 0.69764 0.0
C1917 C 0.42773 0.4437 0.69574 0.0
C1918 C 0.44252 0.469 0.7094 0.0
C1919 C 0.41753 0.49475 0.75609 0.0
H1920 H 0.44945 0.52921 0.73529 0.0
C1921 C 0.42126 0.56339 0.79734 0.0
C1922 C 0.43749 0.56852 0.80501 0.0
C1923 C 0.41883 0.54781 0.7851 0.0
C1924 C 0.44053 0.51964 0.74133 0.0
H1925 H 0.40086 0.44388 0.70328 0.0
H1926 H 0.40055 0.47191 0.72294 0.0
H1927 H 0.44684 0.50375 0.70886 0.0
H1928 H 0.46373 0.56102 0.80706 0.0
H1929 H 0.45946 0.53398 0.78524 0.0
H1930 H 0.411 0.51109 0.78827 0.0
C1931 C 0.41242 0.46682 0.71612 0.0
C1932 C 0.43905 0.50503 0.72628 0.0
C1933 C 0.41256 0.45082 0.70463 0.0
C1934 C 0.45108 0.55744 0.80141 0.0
C1935 C 0.44868 0.54203 0.78877 0.0
C1936 C 0.41881 0.50954 0.7709 0.0
C1937 C 0.42748 0.47595 0.7192 0.0
C1938 C 0.42778 0.49222 0.73374 0.0
C1939 C 0.43262 0.53728 0.77997 0.0
C1940 C 0.43056 0.52193 0.7639 0.0
H1941 H 0.45454 0.44799 0.69113 0.0
H1942 H 0.45442 0.47548 0.71175 0.0
H1943 H 0.40888 0.48509 0.76269 0.0
H1944 H 0.41055 0.57166 0.79995 0.0
H1945 H 0.40633 0.54437 0.77847 0.0
C1946 C 0.81 0.19966 0.04497 0.0
C1947 C 0.817 0.1945 0.02083 0.0
C1948 C 0.79424 0.19373 0.05293 0.0
C1949 C 0.75532 0.17492 0.02608 0.0
H1950 H 0.74558 0.16583 0.09975 0.0
C1951 C 0.69075 0.15032 0.05749 0.0
C1952 C 0.68295 0.15969 0.0776 0.0
C1953 C 0.70797 0.152 0.05271 0.0
C1954 C 0.74814 0.16834 0.07912 0.0
H1955 H 0.81313 0.1788 0.98633 0.0
H1956 H 0.78581 0.1682 0.00043 0.0
H1957 H 0.77406 0.17396 0.08664 0.0
H1958 H 0.68734 0.17719 0.10975 0.0
H1959 H 0.71745 0.18011 0.10134 0.0
H1960 H 0.72943 0.16942 0.01856 0.0
C1961 C 0.79231 0.17711 0.01299 0.0
C1962 C 0.76441 0.17306 0.07161 0.0
C1963 C 0.80801 0.18315 0.00494 0.0
C1964 C 0.69295 0.16984 0.09404 0.0
C1965 C 0.71022 0.17148 0.08928 0.0
C1966 C 0.73913 0.1701 0.03356 0.0
C1967 C 0.78518 0.18241 0.03701 0.0
C1968 C 0.76815 0.17657 0.04501 0.0
C1969 C 0.71776 0.16303 0.06798 0.0
C1970 C 0.73532 0.16689 0.06017 0.0
H1971 H 0.8166 0.20844 0.05764 0.0
H1972 H 0.78902 0.19829 0.07133 0.0
H1973 H 0.75763 0.17783 0.00551 0.0
H1974 H 0.68345 0.14224 0.04463 0.0
H1975 H 0.71352 0.14509 0.03647 0.0
C1976 C 0.92994 0.43964 0.76155 0.0
C1977 C 0.94153 0.42889 0.74911 0.0
C1978 C 0.92415 0.45411 0.74868 0.0
C1979 C 0.93527 0.48341 0.69495 0.0
H1980 H 0.88828 0.49645 0.69891 0.0
C1981 C 0.91168 0.54066 0.6378 0.0
C1982 C 0.90255 0.55228 0.65303 0.0
C1983 C 0.91418 0.52425 0.6469 0.0
C1984 C 0.90144 0.49297 0.69768 0.0
H1985 H 0.95615 0.4249 0.71344 0.0
H1986 H 0.94599 0.44995 0.69107 0.0
H1987 H 0.89778 0.47085 0.72121 0.0
H1988 H 0.8876 0.55535 0.68858 0.0
H1989 H 0.8921 0.52682 0.7045 0.0
H1990 H 0.93905 0.50555 0.67182 0.0
C1991 C 0.94151 0.44736 0.71084 0.0
C1992 C 0.9069 0.47837 0.71054 0.0
C1993 C 0.94729 0.43296 0.72367 0.0
C1994 C 0.8948 0.54674 0.67644 0.0
C1995 C 0.89733 0.53035 0.68555 0.0
C1996 C 0.92983 0.49794 0.68211 0.0
C1997 C 0.92986 0.4581 0.72315 0.0
C1998 C 0.9239 0.47348 0.70939 0.0
C1999 C 0.90761 0.51914 0.67139 0.0
C2000 C 0.91288 0.50294 0.6834 0.0
H2001 H 0.92525 0.43684 0.78114 0.0
H2002 H 0.91533 0.46225 0.75882 0.0
H2003 H 0.9485 0.48016 0.69404 0.0
H2004 H 0.91767 0.54446 0.61954 0.0
H2005 H 0.92185 0.51577 0.63526 0.0
C2006 C 0.30566 0.18713 0.59887 0.0
C2007 C 0.31701 0.1775 0.58387 0.0
C2008 C 0.28853 0.18734 0.59253 0.0
C2009 C 0.26195 0.18277 0.5344 0.0
H2010 H 0.22488 0.18498 0.58403 0.0
C2011 C 0.1935 0.19024 0.49895 0.0
C2012 C 0.18308 0.2011 0.5135 0.0
C2013 C 0.20927 0.18554 0.50867 0.0
C2014 C 0.23512 0.18453 0.56993 0.0
H2015 H 0.31905 0.15945 0.55185 0.0
H2016 H 0.2892 0.15981 0.54092 0.0
H2017 H 0.25332 0.17923 0.60008 0.0
H2018 H 0.18104 0.21556 0.54967 0.0
H2019 H 0.20873 0.20776 0.56627 0.0
H2020 H 0.24404 0.18861 0.50436 0.0
C2021 C 0.2936 0.16742 0.55726 0.0
C2022 C 0.25138 0.18117 0.57914 0.0
C2023 C 0.31069 0.16716 0.56364 0.0
C2024 C 0.18876 0.20713 0.53801 0.0
C2025 C 0.20459 0.20254 0.54763 0.0
C2026 C 0.24576 0.18624 0.52523 0.0
C2027 C 0.28244 0.17795 0.57105 0.0
C2028 C 0.26497 0.18034 0.56146 0.0
C2029 C 0.21506 0.19171 0.53306 0.0
C2030 C 0.23215 0.18729 0.54288 0.0
H2031 H 0.31011 0.19519 0.61464 0.0
H2032 H 0.28023 0.19561 0.60347 0.0
H2033 H 0.27222 0.18254 0.52034 0.0
H2034 H 0.18943 0.18524 0.48011 0.0
H2035 H 0.21688 0.17696 0.49711 0.0
C2036 C 0.54984 0.55734 0.22692 0.0
C2037 C 0.55498 0.56313 0.25185 0.0
C2038 C 0.55728 0.54317 0.21566 0.0
C2039 C 0.57992 0.50457 0.23282 0.0
H2040 H 0.58745 0.50247 0.15722 0.0
C2041 C 0.59919 0.44263 0.18433 0.0
C2042 C 0.58853 0.43795 0.16342 0.0
C2043 C 0.59965 0.45928 0.19314 0.0
C2044 C 0.58547 0.50289 0.17836 0.0
H2045 H 0.57205 0.55861 0.28451 0.0
H2046 H 0.5851 0.53374 0.26476 0.0
H2047 H 0.57913 0.52906 0.17755 0.0
H2048 H 0.57125 0.44737 0.13372 0.0
H2049 H 0.57195 0.47633 0.14918 0.0
H2050 H 0.58568 0.47831 0.23358 0.0
C2051 C 0.57521 0.54017 0.25403 0.0
C2052 C 0.58066 0.51808 0.19 0.0
C2053 C 0.56775 0.5544 0.26533 0.0
C2054 C 0.57951 0.45053 0.14999 0.0
C2055 C 0.57998 0.46718 0.1588 0.0
C2056 C 0.58475 0.48939 0.2212 0.0
C2057 C 0.57007 0.53443 0.22903 0.0
C2058 C 0.57737 0.51897 0.21725 0.0
C2059 C 0.5895 0.47158 0.18116 0.0
C2060 C 0.58714 0.48827 0.19375 0.0
H2061 H 0.54002 0.56375 0.216 0.0
H2062 H 0.55278 0.53889 0.19663 0.0
H2063 H 0.57733 0.50478 0.25381 0.0
H2064 H 0.60647 0.43328 0.19491 0.0
H2065 H 0.60737 0.46237 0.21008 0.0
C2066 C 0.19008 0.8295 0.08983 0.0
C2067 C 0.17634 0.83922 0.08133 0.0
C2068 C 0.20615 0.83241 0.07962 0.0
C2069 C 0.22536 0.84875 0.0191 0.0
H2070 H 0.26692 0.83925 0.0563 0.0
C2071 C 0.30168 0.84219 -0.00111 0.0
C2072 C 0.30116 0.83233 0.97586 0.0
C2073 C 0.28686 0.84638 0.01218 0.0
C2074 C 0.25547 0.84221 0.04566 0.0
H2075 H 0.16893 0.86058 0.05731 0.0
H2076 H 0.19703 0.86587 0.03992 0.0
H2077 H 0.2407 0.84163 0.08098 0.0
H2078 H 0.28464 0.81955 0.94829 0.0
H2079 H 0.25883 0.82661 0.97168 0.0
H2080 H 0.24009 0.84926 0.98378 0.0
C2081 C 0.19531 0.8557 0.0539 0.0
C2082 C 0.24042 0.84339 0.05979 0.0
C2083 C 0.17922 0.85273 0.06399 0.0
C2084 C 0.28548 0.82718 0.96596 0.0
C2085 C 0.27066 0.83133 0.97929 0.0
C2086 C 0.2404 0.84761 0.005 0.0
C2087 C 0.20882 0.84517 0.06084 0.0
C2088 C 0.22513 0.84628 0.04659 0.0
C2089 C 0.2712 0.84078 0.00276 0.0
C2090 C 0.25557 0.84393 0.01802 0.0
H2091 H 0.18829 0.81901 0.1032 0.0
H2092 H 0.21624 0.82398 0.08528 0.0
H2093 H 0.2138 0.85081 0.00823 0.0
H2094 H 0.31357 0.84648 0.00693 0.0
H2095 H 0.28769 0.85389 0.02997 0.0
C2096 C 0.54534 0.93757 0.73428 0.0
C2097 C 0.55278 0.93228 0.75803 0.0
C2098 C 0.55034 0.95253 0.72227 0.0
C2099 C 0.58512 0.98297 0.71879 0.0
H2100 H 0.55069 0.0128 0.69128 0.0
C2101 C 0.59737 0.05207 0.68927 0.0
C2102 C 0.58798 0.05896 0.66835 0.0
C2103 C 0.59453 0.03557 0.6976 0.0
C2104 C 0.56049 0.00448 0.69839 0.0
H2105 H 0.57134 0.93857 0.78786 0.0
H2106 H 0.58003 0.9649 0.76686 0.0
H2107 H 0.54253 0.98645 0.7121 0.0
H2108 H 0.56919 0.05352 0.63849 0.0
H2109 H 0.56445 0.02459 0.65276 0.0
H2110 H 0.60309 0.00113 0.70523 0.0
C2111 C 0.57041 0.95731 0.75747 0.0
C2112 C 0.5558 0.98941 0.71044 0.0
C2113 C 0.56535 0.94232 0.76958 0.0
C2114 C 0.57652 0.04864 0.65481 0.0
C2115 C 0.57371 0.03211 0.66311 0.0
C2116 C 0.58983 -0.00194 0.70665 0.0
C2117 C 0.56293 0.96256 0.73369 0.0
C2118 C 0.56805 0.97853 0.72086 0.0
C2119 C 0.58229 0.02558 0.68513 0.0
C2120 C 0.57755 0.00901 0.69642 0.0
H2121 H 0.53565 0.93011 0.72481 0.0
H2122 H 0.54448 0.95615 0.70381 0.0
H2123 H 0.59485 0.97471 0.72633 0.0
H2124 H 0.60635 0.05966 0.70008 0.0
H2125 H 0.6013 0.03097 0.7147 0.0
C2126 C 0.30246 0.31707 0.08597 0.0
C2127 C 0.31217 0.32641 0.068 0.0
C2128 C 0.28531 0.3145 0.08142 0.0
C2129 C 0.24883 0.32834 0.0411 0.0
H2130 H 0.23521 0.28166 0.04785 0.0
C2131 C 0.18846 0.30209 0.99267 0.0
C2132 C 0.17885 0.29061 0.00747 0.0
C2133 C 0.20425 0.30732 0.00164 0.0
C2134 C 0.23871 0.29479 0.04619 0.0
H2135 H 0.31126 0.34136 0.03216 0.0
H2136 H 0.28141 0.33676 0.02416 0.0
H2137 H 0.26315 0.29017 0.06223 0.0
H2138 H 0.1783 0.27564 0.0433 0.0
H2139 H 0.20574 0.28485 0.05898 0.0
H2140 H 0.2244 0.33287 0.02467 0.0
C2141 C 0.28701 0.33146 0.0418 0.0
C2142 C 0.25472 0.29968 0.05451 0.0
C2143 C 0.30415 0.33403 0.04633 0.0
C2144 C 0.18541 0.28443 0.03134 0.0
C2145 C 0.20117 0.28966 0.0403 0.0
C2146 C 0.23278 0.32344 0.03279 0.0
C2147 C 0.27752 0.32124 0.05885 0.0
C2148 C 0.26001 0.31648 0.05189 0.0
C2149 C 0.21076 0.30119 0.02559 0.0
C2150 C 0.2276 0.30657 0.03506 0.0
H2151 H 0.30822 0.31114 0.10297 0.0
H2152 H 0.27824 0.30682 0.09518 0.0
H2153 H 0.25249 0.3414 0.03906 0.0
H2154 H 0.18376 0.30708 0.97418 0.0
H2155 H 0.21144 0.31603 0.98967 0.0
C2156 C 0.95259 0.05105 0.24451 0.0
C2157 C 0.96519 0.05995 0.23092 0.0
C2158 C 0.94586 0.03627 0.23393 0.0
C2159 C 0.95479 0.0023 0.18663 0.0
H2160 H 0.90646 0.99536 0.18845 0.0
C2161 C 0.92502 0.94473 0.1369 0.0
C2162 C 0.91315 0.93593 0.15211 0.0
C2163 C 0.9301 0.96091 0.14419 0.0
C2164 C 0.91999 0.99707 0.18794 0.0
H2165 H 0.98083 0.06013 0.19579 0.0
H2166 H 0.96911 0.03434 0.1774 0.0
H2167 H 0.91843 0.0211 0.2069 0.0
H2168 H 0.89652 0.93759 0.186 0.0
H2169 H 0.90551 0.96568 0.19888 0.0
H2170 H 0.95644 0.9782 0.16814 0.0
C2171 C 0.96448 0.03876 0.19628 0.0
C2172 C 0.92684 0.01179 0.19855 0.0
C2173 C 0.97116 0.05357 0.2068 0.0
C2174 C 0.90571 0.94402 0.17385 0.0
C2175 C 0.91083 0.96017 0.1812 0.0
C2176 C 0.94796 0.98757 0.17611 0.0
C2177 C 0.95165 0.03004 0.20961 0.0
C2178 C 0.94432 0.01451 0.19811 0.0
C2179 C 0.92345 0.9686 0.1669 0.0
C2180 C 0.93048 0.98474 0.17672 0.0
H2181 H 0.94772 0.05563 0.26315 0.0
H2182 H 0.93615 0.02968 0.24483 0.0
H2183 H 0.96833 0.00394 0.18632 0.0
H2184 H 0.93089 0.93891 0.1199 0.0
H2185 H 0.93957 0.96722 0.13241 0.0
C2186 C 0.30565 0.6958 0.53041 0.0
C2187 C 0.31179 0.68736 0.50802 0.0
C2188 C 0.2909 0.69044 0.54278 0.0
C2189 C 0.25206 0.66645 0.53112 0.0
H2190 H 0.24908 0.66691 0.60756 0.0
C2191 C 0.19102 0.64731 0.58284 0.0
C2192 C 0.1852 0.65898 0.6016 0.0
C2193 C 0.20766 0.64786 0.57402 0.0
C2194 C 0.24972 0.66674 0.58621 0.0
H2195 H 0.30719 0.66673 0.48092 0.0
H2196 H 0.2814 0.65733 0.50261 0.0
H2197 H 0.27568 0.67397 0.58608 0.0
H2198 H 0.19262 0.67948 0.62736 0.0
H2199 H 0.22161 0.68054 0.6118 0.0
H2200 H 0.22606 0.65961 0.53114 0.0
C2201 C 0.28797 0.66818 0.51047 0.0
C2202 C 0.26493 0.67082 0.5739 0.0
C2203 C 0.30275 0.67355 0.49807 0.0
C2204 C 0.19669 0.67034 0.61284 0.0
C2205 C 0.21334 0.67092 0.60396 0.0
C2206 C 0.23688 0.66237 0.54341 0.0
C2207 C 0.28194 0.67651 0.53306 0.0
C2208 C 0.26618 0.67099 0.5462 0.0
C2209 C 0.21882 0.6601 0.58375 0.0
C2210 C 0.23546 0.6627 0.57108 0.0
H2211 H 0.31229 0.70651 0.53855 0.0
H2212 H 0.28643 0.69733 0.55983 0.0
H2213 H 0.25255 0.66666 0.50976 0.0
H2214 H 0.18253 0.63825 0.57401 0.0
H2215 H 0.21161 0.63911 0.55884 0.0
C2216 C 0.40549 0.0541 0.20496 0.0
C2217 C 0.41302 0.06153 0.1827 0.0
C2218 C 0.40665 0.03676 0.20913 0.0
C2219 C 0.43527 0.00223 0.19353 0.0
H2220 H 0.40098 0.97403 0.22535 0.0
C2221 C 0.44718 0.93221 0.21385 0.0
C2222 C 0.44153 0.92572 0.23808 0.0
C2223 C 0.44222 0.94818 0.2055 0.0
C2224 C 0.41072 0.9818 0.21667 0.0
H2225 H 0.42647 0.05642 0.1463 0.0
H2226 H 0.42834 0.02615 0.15347 0.0
H2227 H 0.39407 0.00288 0.21239 0.0
H2228 H 0.42609 0.93084 0.27246 0.0
H2229 H 0.41769 0.95897 0.25811 0.0
H2230 H 0.45204 0.98147 0.19831 0.0
C2231 C 0.42186 0.03379 0.16797 0.0
C2232 C 0.40674 -0.00172 0.20916 0.0
C2233 C 0.4207 0.05112 0.1638 0.0
C2234 C 0.43067 0.9355 0.25369 0.0
C2235 C 0.42575 0.95156 0.24537 0.0
C2236 C 0.43925 0.98584 0.20108 0.0
C2237 C 0.41535 0.02651 0.19111 0.0
C2238 C 0.41901 0.00868 0.19758 0.0
C2239 C 0.43157 0.95811 0.22125 0.0
C2240 C 0.42706 0.97544 0.21281 0.0
H2241 H 0.39941 0.06176 0.21986 0.0
H2242 H 0.40156 0.03153 0.2272 0.0
H2243 H 0.44512 0.01004 0.18523 0.0
H2244 H 0.45542 0.92494 0.20121 0.0
H2245 H 0.44669 0.95272 0.1866 0.0
C2246 C 0.81673 0.68065 0.06298 0.0
C2247 C 0.82741 0.6709 0.04704 0.0
C2248 C 0.79943 0.68111 0.05808 0.0
C2249 C 0.76989 0.67604 0.00326 0.0
H2250 H 0.73595 0.67888 0.05805 0.0
C2251 C 0.69892 0.68298 0.97982 0.0
C2252 C 0.68986 0.69431 0.99569 0.0
C2253 C 0.71544 0.67855 0.98636 0.0
C2254 C 0.74531 0.67823 0.04253 0.0
H2255 H 0.82817 0.65314 0.01448 0.0
H2256 H 0.79798 0.65388 0.0061 0.0
H2257 H 0.76516 0.67316 0.07001 0.0
H2258 H 0.69113 0.7101 0.03058 0.0
H2259 H 0.71995 0.70263 0.04165 0.0
H2260 H 0.75017 0.68149 0.97582 0.0
C2261 C 0.80303 0.66139 0.02209 0.0
C2262 C 0.76201 0.67491 0.04939 0.0
C2263 C 0.82032 0.6609 0.02701 0.0
C2264 C 0.69772 0.70127 0.01799 0.0
C2265 C 0.71421 0.69688 0.02449 0.0
C2266 C 0.7532 0.6794 0.9964 0.0
C2267 C 0.79247 0.67183 0.03713 0.0
C2268 C 0.77451 0.67397 0.02985 0.0
C2269 C 0.72323 0.68538 0.00887 0.0
C2270 C 0.74076 0.68076 0.01599 0.0
H2271 H 0.8218 0.68848 0.07858 0.0
H2272 H 0.79163 0.68936 0.06992 0.0
H2273 H 0.77929 0.67565 0.98777 0.0
H2274 H 0.69318 0.67733 0.96256 0.0
H2275 H 0.72201 0.66955 0.97403 0.0
C2276 C 0.03511 0.05913 0.70883 0.0
C2277 C 0.03926 0.06741 0.73246 0.0
C2278 C 0.04166 0.04321 0.7033 0.0
C2279 C 0.0598 0.00587 0.73551 0.0
H2280 H 0.07388 0.99447 0.66441 0.0
C2281 C 0.08604 0.94038 0.7116 0.0
C2282 C 0.07874 0.9325 0.68954 0.0
C2283 C 0.08393 0.95763 0.71575 0.0
C2284 C 0.06995 0.99746 0.68434 0.0
H2285 H 0.0536 0.06546 0.7688 0.0
H2286 H 0.06509 0.0377 0.75905 0.0
H2287 H 0.06446 0.02305 0.67425 0.0
H2288 H 0.06443 0.93676 0.65367 0.0
H2289 H 0.06064 0.9668 0.66104 0.0
H2290 H 0.06496 0.98027 0.74554 0.0
C2291 C 0.05663 0.04346 0.74492 0.0
C2292 C 0.06452 0.0138 0.68996 0.0
C2293 C 0.05008 0.05939 0.75047 0.0
C2294 C 0.07018 0.94242 0.67091 0.0
C2295 C 0.06806 0.95968 0.67507 0.0
C2296 C 0.06523 0.98956 0.7299 0.0
C2297 C 0.05251 0.0352 0.72126 0.0
C2298 C 0.05918 0.01813 0.71554 0.0
C2299 C 0.07449 0.96737 0.69794 0.0
C2300 C 0.07018 0.98511 0.70419 0.0
H2301 H 0.02679 0.06495 0.69455 0.0
H2302 H 0.03802 0.03707 0.68508 0.0
H2303 H 0.05555 0.00873 0.75533 0.0
H2304 H 0.09284 0.93312 0.72623 0.0
H2305 H 0.0893 0.96326 0.7333 0.0
C2306 C 0.69281 0.33094 0.54664 0.0
C2307 C 0.68451 0.32114 0.56573 0.0
C2308 C 0.70997 0.32873 0.54188 0.0
C2309 C 0.74913 0.30934 0.56742 0.0
H2310 H 0.75941 0.30348 0.49313 0.0
C2311 C 0.81007 0.27717 0.53172 0.0
C2312 C 0.81815 0.28391 0.50943 0.0
C2313 C 0.79422 0.28302 0.53936 0.0
C2314 C 0.75685 0.30532 0.51393 0.0
H2315 H 0.68799 0.30221 0.59613 0.0
H2316 H 0.71794 0.29832 0.58773 0.0
H2317 H 0.73139 0.31253 0.50631 0.0
H2318 H 0.81593 0.30206 0.47762 0.0
H2319 H 0.78836 0.31238 0.4911 0.0
H2320 H 0.77459 0.30194 0.57501 0.0
C2321 C 0.71118 0.30773 0.57647 0.0
C2322 C 0.74079 0.31054 0.52149 0.0
C2323 C 0.69399 0.30993 0.58122 0.0
C2324 C 0.80999 0.29653 0.49481 0.0
C2325 C 0.79417 0.30242 0.5025 0.0
C2326 C 0.76525 0.30417 0.55984 0.0
C2327 C 0.71921 0.3167 0.55614 0.0
C2328 C 0.7367 0.31246 0.54832 0.0
C2329 C 0.78612 0.29577 0.52492 0.0
C2330 C 0.76924 0.30194 0.53301 0.0
H2331 H 0.68591 0.33981 0.53452 0.0
H2332 H 0.71591 0.33606 0.52643 0.0
H2333 H 0.74639 0.31086 0.58822 0.0
H2334 H 0.816 0.2674 0.54338 0.0
H2335 H 0.78825 0.27741 0.55645 0.0
loop_
_geom_bond_atom_site_label_1
_geom_bond_atom_site_label_2
_geom_bond_distance
_geom_bond_site_symmetry_2
_ccdc_geom_bond_type
C0 O1 1.160 . S
C0 O7 1.185 . S
O1 C0 1.160 . S
O2 Zn3 1.899 . S
O2 C10 1.284 . S
Zn3 O2 1.899 . S
Zn3 O4 2.032 . S
Zn3 O7 2.086 . S
Zn3 O12 1.977 . S
O4 Zn3 2.032 . S
O4 C8 1.278 . S
C5 O6 1.203 . S
C5 O12 1.267 . S
O6 C5 1.203 . S
O7 C0 1.185 . S
O7 Zn3 2.086 . S
C8 O4 1.278 . S
C8 O9 1.211 . S
O9 C8 1.211 . S
C10 O2 1.284 . S
C10 O11 1.273 . S
O11 C10 1.273 . S
O12 Zn3 1.977 . S
O12 C5 1.267 . S
C13 O14 1.160 . S
C13 O20 1.185 . S
O14 C13 1.160 . S
O15 Zn16 1.899 . S
O15 C23 1.284 . S
Zn16 O15 1.899 . S
Zn16 O17 2.032 . S
Zn16 O20 2.086 . S
Zn16 O25 1.977 . S
O17 Zn16 2.032 . S
O17 C21 1.278 . S
C18 O19 1.203 . S
C18 O25 1.267 . S
O19 C18 1.203 . S
O20 C13 1.185 . S
O20 Zn16 2.086 . S
C21 O17 1.278 . S
C21 O22 1.211 . S
O22 C21 1.211 . S
C23 O15 1.284 . S
C23 O24 1.273 . S
O24 C23 1.273 . S
O25 Zn16 1.977 . S
O25 C18 1.267 . S
C26 O27 1.160 . S
C26 O33 1.185 . S
O27 C26 1.160 . S
O28 Zn29 1.899 . S
O28 C36 1.284 . S
Zn29 O28 1.899 . S
Zn29 O30 2.032 . S
Zn29 O33 2.086 . S
Zn29 O38 1.977 . S
O30 Zn29 2.032 . S
O30 C34 1.278 . S
C31 O32 1.203 . S
C31 O38 1.267 . S
O32 C31 1.203 . S
O33 C26 1.185 . S
O33 Zn29 2.086 . S
C34 O30 1.278 . S
C34 O35 1.211 . S
O35 C34 1.211 . S
C36 O28 1.284 . S
C36 O37 1.273 . S
O37 C36 1.273 . S
O38 Zn29 1.977 . S
O38 C31 1.267 . S
C39 O40 1.160 . S
C39 O46 1.185 . S
O40 C39 1.160 . S
O41 Zn42 1.899 . S
O41 C49 1.284 . S
Zn42 O41 1.899 . S
Zn42 O43 2.032 . S
Zn42 O46 2.086 . S
Zn42 O51 1.977 . S
O43 Zn42 2.032 . S
O43 C47 1.278 1_554 S
C44 O45 1.203 . S
C44 O51 1.267 . S
O45 C44 1.203 . S
O46 C39 1.185 . S
O46 Zn42 2.086 . S
C47 O43 1.278 1_556 S
C47 O48 1.211 1_556 S
O48 C47 1.211 1_554 S
C49 O41 1.284 . S
C49 O50 1.273 . S
O50 C49 1.273 . S
O51 Zn42 1.977 . S
O51 C44 1.267 . S
C52 O53 1.160 . S
C52 O59 1.185 . S
O53 C52 1.160 . S
O54 Zn55 1.899 . S
O54 C62 1.284 . S
Zn55 O54 1.899 . S
Zn55 O56 2.032 . S
Zn55 O59 2.086 . S
Zn55 O64 1.977 . S
O56 Zn55 2.032 . S
O56 C60 1.278 . S
C57 O58 1.203 . S
C57 O64 1.267 . S
O58 C57 1.203 . S
O59 C52 1.185 . S
O59 Zn55 2.086 . S
C60 O56 1.278 . S
C60 O61 1.211 . S
O61 C60 1.211 . S
C62 O54 1.284 . S
C62 O63 1.273 . S
O63 C62 1.273 . S
O64 Zn55 1.977 . S
O64 C57 1.267 . S
C65 O66 1.160 . S
C65 O72 1.185 . S
O66 C65 1.160 . S
O67 Zn68 1.899 . S
O67 C75 1.284 . S
Zn68 O67 1.899 . S
Zn68 O69 2.032 . S
Zn68 O72 2.086 . S
Zn68 O77 1.977 . S
O69 Zn68 2.032 . S
O69 C73 1.278 . S
C70 O71 1.203 . S
C70 O77 1.267 . S
O71 C70 1.203 . S
O72 C65 1.185 . S
O72 Zn68 2.086 . S
C73 O69 1.278 . S
C73 O74 1.211 . S
O74 C73 1.211 . S
C75 O67 1.284 . S
C75 O76 1.273 . S
O76 C75 1.273 . S
O77 Zn68 1.977 . S
O77 C70 1.267 . S
C78 O79 1.160 . S
C78 O85 1.185 . S
O79 C78 1.160 . S
O80 Zn81 1.899 . S
O80 C88 1.284 . S
Zn81 O80 1.899 . S
Zn81 O82 2.032 . S
Zn81 O85 2.086 . S
Zn81 O90 1.977 . S
O82 Zn81 2.032 . S
O82 C86 1.278 . S
C83 O84 1.203 . S
C83 O90 1.267 . S
O84 C83 1.203 . S
O85 C78 1.185 . S
O85 Zn81 2.086 . S
C86 O82 1.278 . S
C86 O87 1.211 . S
O87 C86 1.211 . S
C88 O80 1.284 . S
C88 O89 1.273 . S
O89 C88 1.273 . S
O90 Zn81 1.977 . S
O90 C83 1.267 . S
C91 O92 1.160 . S
C91 O98 1.185 . S
O92 C91 1.160 . S
O93 Zn94 1.899 . S
O93 C101 1.284 . S
Zn94 O93 1.899 . S
Zn94 O95 2.032 . S
Zn94 O98 2.086 . S
Zn94 O103 1.977 . S
O95 Zn94 2.032 . S
O95 C99 1.278 1_556 S
C96 O97 1.203 . S
C96 O103 1.267 . S
O97 C96 1.203 . S
O98 C91 1.185 . S
O98 Zn94 2.086 . S
C99 O95 1.278 1_554 S
C99 O100 1.211 1_554 S
O100 C99 1.211 1_556 S
C101 O93 1.284 . S
C101 O102 1.273 . S
O102 C101 1.273 . S
O103 Zn94 1.977 . S
O103 C96 1.267 . S
C104 O105 1.160 . S
C104 O111 1.185 . S
O105 C104 1.160 . S
O106 Zn107 1.899 . S
O106 C114 1.284 . S
Zn107 O106 1.899 . S
Zn107 O108 2.032 . S
Zn107 O111 2.086 . S
Zn107 O116 1.977 . S
O108 Zn107 2.032 . S
O108 C112 1.278 . S
C109 O110 1.203 . S
C109 O116 1.267 . S
O110 C109 1.203 . S
O111 C104 1.185 . S
O111 Zn107 2.086 . S
C112 O108 1.278 . S
C112 O113 1.211 . S
O113 C112 1.211 . S
C114 O106 1.284 . S
C114 O115 1.273 . S
O115 C114 1.273 . S
O116 Zn107 1.977 . S
O116 C109 1.267 . S
C117 O118 1.160 . S
C117 O124 1.185 . S
O118 C117 1.160 . S
O119 Zn120 1.899 . S
O119 C127 1.284 . S
Zn120 O119 1.899 . S
Zn120 O121 2.032 . S
Zn120 O124 2.086 . S
Zn120 O129 1.977 . S
O121 Zn120 2.032 . S
O121 C125 1.278 . S
C122 O123 1.203 . S
C122 O129 1.267 . S
O123 C122 1.203 . S
O124 C117 1.185 . S
O124 Zn120 2.086 . S
C125 O121 1.278 . S
C125 O126 1.211 . S
O126 C125 1.211 . S
C127 O119 1.284 . S
C127 O128 1.273 . S
O128 C127 1.273 . S
O129 Zn120 1.977 . S
O129 C122 1.267 . S
C130 O131 1.160 . S
C130 O137 1.185 . S
O131 C130 1.160 . S
O132 Zn133 1.899 . S
O132 C140 1.284 . S
Zn133 O132 1.899 . S
Zn133 O134 2.032 . S
Zn133 O137 2.086 . S
Zn133 O142 1.977 . S
O134 Zn133 2.032 . S
O134 C138 1.278 . S
C135 O136 1.203 . S
C135 O142 1.267 . S
O136 C135 1.203 . S
O137 C130 1.185 . S
O137 Zn133 2.086 . S
C138 O134 1.278 . S
C138 O139 1.211 . S
O139 C138 1.211 . S
C140 O132 1.284 . S
C140 O141 1.273 . S
O141 C140 1.273 . S
O142 Zn133 1.977 . S
O142 C135 1.267 . S
C143 O144 1.160 . S
C143 O150 1.185 . S
O144 C143 1.160 . S
O145 Zn146 1.899 . S
O145 C153 1.284 . S
Zn146 O145 1.899 . S
Zn146 O147 2.032 . S
Zn146 O150 2.086 . S
Zn146 O155 1.977 . S
O147 Zn146 2.032 . S
O147 C151 1.278 1_556 S
C148 O149 1.203 . S
C148 O155 1.267 . S
O149 C148 1.203 . S
O150 C143 1.185 . S
O150 Zn146 2.086 . S
C151 O147 1.278 1_554 S
C151 O152 1.211 1_554 S
O152 C151 1.211 1_556 S
C153 O145 1.284 . S
C153 O154 1.273 . S
O154 C153 1.273 . S
O155 Zn146 1.977 . S
O155 C148 1.267 . S
C156 O157 1.160 . S
C156 O163 1.185 . S
O157 C156 1.160 . S
O158 Zn159 1.899 . S
O158 C166 1.284 . S
Zn159 O158 1.899 . S
Zn159 O160 2.032 . S
Zn159 O163 2.086 . S
Zn159 O168 1.977 . S
O160 Zn159 2.032 . S
O160 C164 1.278 . S
C161 O162 1.203 . S
C161 O168 1.267 . S
O162 C161 1.203 . S
O163 C156 1.185 . S
O163 Zn159 2.086 . S
C164 O160 1.278 . S
C164 O165 1.211 . S
O165 C164 1.211 . S
C166 O158 1.284 . S
C166 O167 1.273 . S
O167 C166 1.273 . S
O168 Zn159 1.977 . S
O168 C161 1.267 . S
C169 O170 1.160 . S
C169 O176 1.185 . S
O170 C169 1.160 . S
O171 Zn172 1.899 . S
O171 C179 1.284 . S
Zn172 O171 1.899 . S
Zn172 O173 2.032 . S
Zn172 O176 2.086 . S
Zn172 O181 1.977 . S
O173 Zn172 2.032 . S
O173 C177 1.278 . S
C174 O175 1.203 . S
C174 O181 1.267 . S
O175 C174 1.203 . S
O176 C169 1.185 . S
O176 Zn172 2.086 . S
C177 O173 1.278 . S
C177 O178 1.211 . S
O178 C177 1.211 . S
C179 O171 1.284 . S
C179 O180 1.273 . S
O180 C179 1.273 . S
O181 Zn172 1.977 . S
O181 C174 1.267 . S
C182 O183 1.160 . S
C182 O189 1.185 . S
O183 C182 1.160 . S
O184 Zn185 1.899 . S
O184 C192 1.284 . S
Zn185 O184 1.899 . S
Zn185 O186 2.032 . S
Zn185 O189 2.086 . S
Zn185 O194 1.977 . S
O186 Zn185 2.032 . S
O186 C190 1.278 . S
C187 O188 1.203 . S
C187 O194 1.267 . S
O188 C187 1.203 . S
O189 C182 1.185 . S
O189 Zn185 2.086 . S
C190 O186 1.278 . S
C190 O191 1.211 . S
O191 C190 1.211 . S
C192 O184 1.284 . S
C192 O193 1.273 . S
O193 C192 1.273 . S
O194 Zn185 1.977 . S
O194 C187 1.267 . S
C195 O196 1.160 . S
C195 O202 1.185 . S
O196 C195 1.160 . S
O197 Zn198 1.899 . S
O197 C205 1.284 . S
Zn198 O197 1.899 . S
Zn198 O199 2.032 . S
Zn198 O202 2.086 . S
Zn198 O207 1.977 . S
O199 Zn198 2.032 . S
O199 C203 1.278 1_554 S
C200 O201 1.203 . S
C200 O207 1.267 . S
O201 C200 1.203 . S
O202 C195 1.185 . S
O202 Zn198 2.086 . S
C203 O199 1.278 1_556 S
C203 O204 1.211 1_556 S
O204 C203 1.211 1_554 S
C205 O197 1.284 . S
C205 O206 1.273 . S
O206 C205 1.273 . S
O207 Zn198 1.977 . S
O207 C200 1.267 . S
C208 O209 1.160 . S
C208 O215 1.185 . S
O209 C208 1.160 . S
O210 Zn211 1.899 . S
O210 C218 1.284 . S
Zn211 O210 1.899 . S
Zn211 O212 2.032 . S
Zn211 O215 2.086 . S
Zn211 O220 1.977 . S
O212 Zn211 2.032 . S
O212 C216 1.278 . S
C213 O214 1.203 . S
C213 O220 1.267 . S
O214 C213 1.203 . S
O215 C208 1.185 . S
O215 Zn211 2.086 . S
C216 O212 1.278 . S
C216 O217 1.211 . S
O217 C216 1.211 . S
C218 O210 1.284 . S
C218 O219 1.273 . S
O219 C218 1.273 . S
O220 Zn211 1.977 . S
O220 C213 1.267 . S
C221 O222 1.160 . S
C221 O228 1.185 . S
O222 C221 1.160 . S
O223 Zn224 1.899 . S
O223 C231 1.284 . S
Zn224 O223 1.899 . S
Zn224 O225 2.032 . S
Zn224 O228 2.086 . S
Zn224 O233 1.977 . S
O225 Zn224 2.032 . S
O225 C229 1.278 1_554 S
C226 O227 1.203 . S
C226 O233 1.267 . S
O227 C226 1.203 . S
O228 C221 1.185 . S
O228 Zn224 2.086 . S
C229 O225 1.278 1_556 S
C229 O230 1.211 1_556 S
O230 C229 1.211 1_554 S
C231 O223 1.284 . S
C231 O232 1.273 . S
O232 C231 1.273 . S
O233 Zn224 1.977 . S
O233 C226 1.267 . S
C234 O235 1.160 . S
C234 O241 1.185 . S
O235 C234 1.160 . S
O236 Zn237 1.899 . S
O236 C244 1.284 . S
Zn237 O236 1.899 . S
Zn237 O238 2.032 . S
Zn237 O241 2.086 . S
Zn237 O246 1.977 . S
O238 Zn237 2.032 . S
O238 C242 1.278 . S
C239 O240 1.203 . S
C239 O246 1.267 . S
O240 C239 1.203 . S
O241 C234 1.185 . S
O241 Zn237 2.086 . S
C242 O238 1.278 . S
C242 O243 1.211 . S
O243 C242 1.211 . S
C244 O236 1.284 . S
C244 O245 1.273 . S
O245 C244 1.273 . S
O246 Zn237 1.977 . S
O246 C239 1.267 . S
C247 O248 1.160 . S
C247 O254 1.185 . S
O248 C247 1.160 . S
O249 Zn250 1.899 . S
O249 C257 1.284 . S
Zn250 O249 1.899 . S
Zn250 O251 2.032 . S
Zn250 O254 2.086 . S
Zn250 O259 1.977 . S
O251 Zn250 2.032 . S
O251 C255 1.278 . S
C252 O253 1.203 . S
C252 O259 1.267 . S
O253 C252 1.203 . S
O254 C247 1.185 . S
O254 Zn250 2.086 . S
C255 O251 1.278 . S
C255 O256 1.211 . S
O256 C255 1.211 . S
C257 O249 1.284 . S
C257 O258 1.273 . S
O258 C257 1.273 . S
O259 Zn250 1.977 . S
O259 C252 1.267 . S
C260 O261 1.160 . S
C260 O267 1.185 . S
O261 C260 1.160 . S
O262 Zn263 1.899 . S
O262 C270 1.284 . S
Zn263 O262 1.899 . S
Zn263 O264 2.032 . S
Zn263 O267 2.086 . S
Zn263 O272 1.977 . S
O264 Zn263 2.032 . S
O264 C268 1.278 . S
C265 O266 1.203 . S
C265 O272 1.267 . S
O266 C265 1.203 . S
O267 C260 1.185 . S
O267 Zn263 2.086 . S
C268 O264 1.278 . S
C268 O269 1.211 . S
O269 C268 1.211 . S
C270 O262 1.284 . S
C270 O271 1.273 . S
O271 C270 1.273 . S
O272 Zn263 1.977 . S
O272 C265 1.267 . S
C273 O274 1.160 . S
C273 O280 1.185 . S
O274 C273 1.160 . S
O275 Zn276 1.899 . S
O275 C283 1.284 . S
Zn276 O275 1.899 . S
Zn276 O277 2.032 . S
Zn276 O280 2.086 . S
Zn276 O285 1.977 . S
O277 Zn276 2.032 . S
O277 C281 1.278 1_556 S
C278 O279 1.203 . S
C278 O285 1.267 . S
O279 C278 1.203 . S
O280 C273 1.185 . S
O280 Zn276 2.086 . S
C281 O277 1.278 1_554 S
C281 O282 1.211 1_554 S
O282 C281 1.211 1_556 S
C283 O275 1.284 . S
C283 O284 1.273 . S
O284 C283 1.273 . S
O285 Zn276 1.977 . S
O285 C278 1.267 . S
C286 O287 1.160 . S
C286 O293 1.185 . S
O287 C286 1.160 . S
O288 Zn289 1.899 . S
O288 C296 1.284 . S
Zn289 O288 1.899 . S
Zn289 O290 2.032 . S
Zn289 O293 2.086 . S
Zn289 O298 1.977 . S
O290 Zn289 2.032 . S
O290 C294 1.278 . S
C291 O292 1.203 . S
C291 O298 1.267 . S
O292 C291 1.203 . S
O293 C286 1.185 . S
O293 Zn289 2.086 . S
C294 O290 1.278 . S
C294 O295 1.211 . S
O295 C294 1.211 . S
C296 O288 1.284 . S
C296 O297 1.273 . S
O297 C296 1.273 . S
O298 Zn289 1.977 . S
O298 C291 1.267 . S
C299 O300 1.160 . S
C299 O306 1.185 . S
O300 C299 1.160 . S
O301 Zn302 1.899 . S
O301 C309 1.284 . S
Zn302 O301 1.899 . S
Zn302 O303 2.032 . S
Zn302 O306 2.086 . S
Zn302 O311 1.977 . S
O303 Zn302 2.032 . S
O303 C307 1.278 . S
C304 O305 1.203 . S
C304 O311 1.267 . S
O305 C304 1.203 . S
O306 C299 1.185 . S
O306 Zn302 2.086 . S
C307 O303 1.278 . S
C307 O308 1.211 . S
O308 C307 1.211 . S
C309 O301 1.284 . S
C309 O310 1.273 . S
O310 C309 1.273 . S
O311 Zn302 1.977 . S
O311 C304 1.267 . S
C312 O313 1.160 . S
C312 O319 1.185 . S
O313 C312 1.160 . S
O314 Zn315 1.899 . S
O314 C322 1.284 . S
Zn315 O314 1.899 . S
Zn315 O316 2.032 . S
Zn315 O319 2.086 . S
Zn315 O324 1.977 . S
O316 Zn315 2.032 . S
O316 C320 1.278 . S
C317 O318 1.203 . S
C317 O324 1.267 . S
O318 C317 1.203 . S
O319 C312 1.185 . S
O319 Zn315 2.086 . S
C320 O316 1.278 . S
C320 O321 1.211 . S
O321 C320 1.211 . S
C322 O314 1.284 . S
C322 O323 1.273 . S
O323 C322 1.273 . S
O324 Zn315 1.977 . S
O324 C317 1.267 . S
C325 O326 1.160 . S
C325 O332 1.185 . S
O326 C325 1.160 . S
O327 Zn328 1.899 . S
O327 C335 1.284 . S
Zn328 O327 1.899 . S
Zn328 O329 2.032 . S
Zn328 O332 2.086 . S
Zn328 O337 1.977 . S
O329 Zn328 2.032 . S
O329 C333 1.278 1_556 S
C330 O331 1.203 . S
C330 O337 1.267 . S
O331 C330 1.203 . S
O332 C325 1.185 . S
O332 Zn328 2.086 . S
C333 O329 1.278 1_554 S
C333 O334 1.211 1_554 S
O334 C333 1.211 1_556 S
C335 O327 1.284 . S
C335 O336 1.273 . S
O336 C335 1.273 . S
O337 Zn328 1.977 . S
O337 C330 1.267 . S
C338 O339 1.160 . S
C338 O345 1.185 . S
O339 C338 1.160 . S
O340 Zn341 1.899 . S
O340 C348 1.284 . S
Zn341 O340 1.899 . S
Zn341 O342 2.032 . S
Zn341 O345 2.086 . S
Zn341 O350 1.977 . S
O342 Zn341 2.032 . S
O342 C346 1.278 . S
C343 O344 1.203 . S
C343 O350 1.267 . S
O344 C343 1.203 . S
O345 C338 1.185 . S
O345 Zn341 2.086 . S
C346 O342 1.278 . S
C346 O347 1.211 . S
O347 C346 1.211 . S
C348 O340 1.284 . S
C348 O349 1.273 . S
O349 C348 1.273 . S
O350 Zn341 1.977 . S
O350 C343 1.267 . S
C351 O352 1.160 . S
C351 O358 1.185 . S
O352 C351 1.160 . S
O353 Zn354 1.899 . S
O353 C361 1.284 . S
Zn354 O353 1.899 . S
Zn354 O355 2.032 . S
Zn354 O358 2.086 . S
Zn354 O363 1.977 . S
O355 Zn354 2.032 . S
O355 C359 1.278 . S
C356 O357 1.203 . S
C356 O363 1.267 . S
O357 C356 1.203 . S
O358 C351 1.185 . S
O358 Zn354 2.086 . S
C359 O355 1.278 . S
C359 O360 1.211 . S
O360 C359 1.211 . S
C361 O353 1.284 . S
C361 O362 1.273 . S
O362 C361 1.273 . S
O363 Zn354 1.977 . S
O363 C356 1.267 . S
C364 O365 1.160 . S
C364 O371 1.185 . S
O365 C364 1.160 . S
O366 Zn367 1.899 . S
O366 C374 1.284 . S
Zn367 O366 1.899 . S
Zn367 O368 2.032 . S
Zn367 O371 2.086 . S
Zn367 O376 1.977 . S
O368 Zn367 2.032 . S
O368 C372 1.278 . S
C369 O370 1.203 . S
C369 O376 1.267 . S
O370 C369 1.203 . S
O371 C364 1.185 . S
O371 Zn367 2.086 . S
C372 O368 1.278 . S
C372 O373 1.211 . S
O373 C372 1.211 . S
C374 O366 1.284 . S
C374 O375 1.273 . S
O375 C374 1.273 . S
O376 Zn367 1.977 . S
O376 C369 1.267 . S
C377 O378 1.160 . S
C377 O384 1.185 . S
O378 C377 1.160 . S
O379 Zn380 1.899 . S
O379 C387 1.284 . S
Zn380 O379 1.899 . S
Zn380 O381 2.032 . S
Zn380 O384 2.086 . S
Zn380 O389 1.977 . S
O381 Zn380 2.032 . S
O381 C385 1.278 1_554 S
C382 O383 1.203 . S
C382 O389 1.267 . S
O383 C382 1.203 . S
O384 C377 1.185 . S
O384 Zn380 2.086 . S
C385 O381 1.278 1_556 S
C385 O386 1.211 1_556 S
O386 C385 1.211 1_554 S
C387 O379 1.284 . S
C387 O388 1.273 . S
O388 C387 1.273 . S
O389 Zn380 1.977 . S
O389 C382 1.267 . S
C390 O391 1.160 . S
C390 O397 1.185 . S
O391 C390 1.160 . S
O392 Zn393 1.899 . S
O392 C400 1.284 . S
Zn393 O392 1.899 . S
Zn393 O394 2.032 . S
Zn393 O397 2.086 . S
Zn393 O402 1.977 . S
O394 Zn393 2.032 . S
O394 C398 1.278 . S
C395 O396 1.203 . S
C395 O402 1.267 . S
O396 C395 1.203 . S
O397 C390 1.185 . S
O397 Zn393 2.086 . S
C398 O394 1.278 . S
C398 O399 1.211 . S
O399 C398 1.211 . S
C400 O392 1.284 . S
C400 O401 1.273 . S
O401 C400 1.273 . S
O402 Zn393 1.977 . S
O402 C395 1.267 . S
C403 O404 1.160 . S
C403 O410 1.185 . S
O404 C403 1.160 . S
O405 Zn406 1.899 . S
O405 C413 1.284 . S
Zn406 O405 1.899 . S
Zn406 O407 2.032 . S
Zn406 O410 2.086 . S
Zn406 O415 1.977 . S
O407 Zn406 2.032 . S
O407 C411 1.278 . S
C408 O409 1.203 . S
C408 O415 1.267 . S
O409 C408 1.203 . S
O410 C403 1.185 . S
O410 Zn406 2.086 . S
C411 O407 1.278 . S
C411 O412 1.211 . S
O412 C411 1.211 . S
C413 O405 1.284 . S
C413 O414 1.273 . S
O414 C413 1.273 . S
O415 Zn406 1.977 . S
O415 C408 1.267 . S
C416 C417 1.349 . S
C416 C418 1.327 . S
C416 H441 0.950 . S
C417 C416 1.349 . S
C417 C433 1.349 . S
C418 C416 1.327 . S
C418 C437 1.429 . S
C418 H442 0.950 . S
C419 C436 1.574 . S
C419 C438 1.368 . S
C419 H443 0.949 . S
H420 C424 0.949 . S
C421 C422 1.349 . S
C421 C423 1.327 . S
C421 H444 0.950 . S
C422 C421 1.349 . S
C422 C434 1.349 . S
C423 C421 1.327 . S
C423 C439 1.429 . S
C423 H445 0.950 . S
C424 H420 0.949 . S
C424 C432 1.574 . S
C424 C440 1.368 . S
H425 C433 0.950 . S
H426 C431 0.950 . S
H427 C432 0.949 . S
H428 C434 0.950 . S
H429 C435 0.950 . S
H430 C436 0.949 . S
C431 H426 0.950 . S
C431 C433 1.327 . S
C431 C437 1.429 . S
C432 C424 1.574 . S
C432 H427 0.949 . S
C432 C438 1.368 . S
C433 C417 1.349 . S
C433 H425 0.950 . S
C433 C431 1.327 . S
C434 C422 1.349 . S
C434 H428 0.950 . S
C434 C435 1.327 . S
C435 H429 0.950 . S
C435 C434 1.327 . S
C435 C439 1.429 . S
C436 C419 1.574 . S
C436 H430 0.949 . S
C436 C440 1.368 . S
C437 C418 1.429 . S
C437 C431 1.429 . S
C437 C438 1.523 . S
C438 C419 1.368 . S
C438 C432 1.368 . S
C438 C437 1.523 . S
C439 C423 1.429 . S
C439 C435 1.429 . S
C439 C440 1.523 . S
C440 C424 1.368 . S
C440 C436 1.368 . S
C440 C439 1.523 . S
H441 C416 0.950 . S
H442 C418 0.950 . S
H443 C419 0.949 . S
H444 C421 0.950 . S
H445 C423 0.950 . S
C446 C447 1.349 . S
C446 C448 1.327 . S
C446 H471 0.950 . S
C447 C446 1.349 . S
C447 C463 1.349 . S
C448 C446 1.327 . S
C448 C467 1.429 . S
C448 H472 0.950 . S
C449 C466 1.574 . S
C449 C468 1.368 . S
C449 H473 0.949 . S
H450 C454 0.949 . S
C451 C452 1.349 . S
C451 C453 1.327 . S
C451 H474 0.950 . S
C452 C451 1.349 . S
C452 C464 1.349 . S
C453 C451 1.327 . S
C453 C469 1.429 . S
C453 H475 0.950 . S
C454 H450 0.949 . S
C454 C462 1.574 . S
C454 C470 1.368 . S
H455 C463 0.950 . S
H456 C461 0.950 . S
H457 C462 0.949 . S
H458 C464 0.950 . S
H459 C465 0.950 . S
H460 C466 0.949 . S
C461 H456 0.950 . S
C461 C463 1.327 . S
C461 C467 1.429 . S
C462 C454 1.574 . S
C462 H457 0.949 . S
C462 C468 1.368 . S
C463 C447 1.349 . S
C463 H455 0.950 . S
C463 C461 1.327 . S
C464 C452 1.349 . S
C464 H458 0.950 . S
C464 C465 1.327 . S
C465 H459 0.950 . S
C465 C464 1.327 . S
C465 C469 1.429 . S
C466 C449 1.574 . S
C466 H460 0.949 . S
C466 C470 1.368 . S
C467 C448 1.429 . S
C467 C461 1.429 . S
C467 C468 1.523 . S
C468 C449 1.368 . S
C468 C462 1.368 . S
C468 C467 1.523 . S
C469 C453 1.429 . S
C469 C465 1.429 . S
C469 C470 1.523 . S
C470 C454 1.368 . S
C470 C466 1.368 . S
C470 C469 1.523 . S
H471 C446 0.950 . S
H472 C448 0.950 . S
H473 C449 0.949 . S
H474 C451 0.950 . S
H475 C453 0.950 . S
C476 C477 1.349 . S
C476 C478 1.327 . S
C476 H501 0.950 . S
C477 C476 1.349 . S
C477 C493 1.349 . S
C478 C476 1.327 . S
C478 C497 1.429 . S
C478 H502 0.950 . S
C479 C496 1.574 . S
C479 C498 1.368 . S
C479 H503 0.949 . S
H480 C484 0.949 . S
C481 C482 1.349 . S
C481 C483 1.327 . S
C481 H504 0.950 . S
C482 C481 1.349 . S
C482 C494 1.349 . S
C483 C481 1.327 . S
C483 C499 1.429 . S
C483 H505 0.950 . S
C484 H480 0.949 . S
C484 C492 1.574 . S
C484 C500 1.368 . S
H485 C493 0.950 . S
H486 C491 0.950 . S
H487 C492 0.949 . S
H488 C494 0.950 . S
H489 C495 0.950 . S
H490 C496 0.949 . S
C491 H486 0.950 . S
C491 C493 1.327 . S
C491 C497 1.429 . S
C492 C484 1.574 . S
C492 H487 0.949 . S
C492 C498 1.368 . S
C493 C477 1.349 . S
C493 H485 0.950 . S
C493 C491 1.327 . S
C494 C482 1.349 . S
C494 H488 0.950 . S
C494 C495 1.327 . S
C495 H489 0.950 . S
C495 C494 1.327 . S
C495 C499 1.429 . S
C496 C479 1.574 . S
C496 H490 0.949 . S
C496 C500 1.368 . S
C497 C478 1.429 . S
C497 C491 1.429 . S
C497 C498 1.523 . S
C498 C479 1.368 . S
C498 C492 1.368 . S
C498 C497 1.523 . S
C499 C483 1.429 . S
C499 C495 1.429 . S
C499 C500 1.523 . S
C500 C484 1.368 . S
C500 C496 1.368 . S
C500 C499 1.523 . S
H501 C476 0.950 . S
H502 C478 0.950 . S
H503 C479 0.949 . S
H504 C481 0.950 . S
H505 C483 0.950 . S
C506 C507 1.349 . S
C506 C508 1.327 . S
C506 H531 0.950 . S
C507 C506 1.349 . S
C507 C523 1.349 . S
C508 C506 1.327 . S
C508 C527 1.429 . S
C508 H532 0.950 . S
C509 C526 1.574 . S
C509 C528 1.368 . S
C509 H533 0.949 . S
H510 C514 0.949 . S
C511 C512 1.349 . S
C511 C513 1.327 . S
C511 H534 0.950 . S
C512 C511 1.349 . S
C512 C524 1.349 . S
C513 C511 1.327 . S
C513 C529 1.429 . S
C513 H535 0.950 . S
C514 H510 0.949 . S
C514 C522 1.574 . S
C514 C530 1.368 . S
H515 C523 0.950 . S
H516 C521 0.950 . S
H517 C522 0.949 . S
H518 C524 0.950 . S
H519 C525 0.950 . S
H520 C526 0.949 . S
C521 H516 0.950 . S
C521 C523 1.327 . S
C521 C527 1.429 . S
C522 C514 1.574 . S
C522 H517 0.949 . S
C522 C528 1.368 . S
C523 C507 1.349 . S
C523 H515 0.950 . S
C523 C521 1.327 . S
C524 C512 1.349 . S
C524 H518 0.950 . S
C524 C525 1.327 . S
C525 H519 0.950 . S
C525 C524 1.327 . S
C525 C529 1.429 . S
C526 C509 1.574 . S
C526 H520 0.949 . S
C526 C530 1.368 . S
C527 C508 1.429 . S
C527 C521 1.429 . S
C527 C528 1.523 . S
C528 C509 1.368 . S
C528 C522 1.368 . S
C528 C527 1.523 . S
C529 C513 1.429 . S
C529 C525 1.429 . S
C529 C530 1.523 . S
C530 C514 1.368 . S
C530 C526 1.368 . S
C530 C529 1.523 . S
H531 C506 0.950 . S
H532 C508 0.950 . S
H533 C509 0.949 . S
H534 C511 0.950 . S
H535 C513 0.950 . S
C536 C537 1.349 . S
C536 C538 1.327 . S
C536 H561 0.950 . S
C537 C536 1.349 . S
C537 C553 1.349 . S
C538 C536 1.327 . S
C538 C557 1.429 . S
C538 H562 0.950 . S
C539 C556 1.574 . S
C539 C558 1.368 . S
C539 H563 0.949 . S
H540 C544 0.949 . S
C541 C542 1.349 . S
C541 C543 1.327 . S
C541 H564 0.950 . S
C542 C541 1.349 . S
C542 C554 1.349 . S
C543 C541 1.327 . S
C543 C559 1.429 . S
C543 H565 0.950 . S
C544 H540 0.949 . S
C544 C552 1.574 . S
C544 C560 1.368 . S
H545 C553 0.950 . S
H546 C551 0.950 . S
H547 C552 0.949 . S
H548 C554 0.950 . S
H549 C555 0.950 . S
H550 C556 0.949 . S
C551 H546 0.950 . S
C551 C553 1.327 . S
C551 C557 1.429 . S
C552 C544 1.574 . S
C552 H547 0.949 . S
C552 C558 1.368 . S
C553 C537 1.349 . S
C553 H545 0.950 . S
C553 C551 1.327 . S
C554 C542 1.349 . S
C554 H548 0.950 . S
C554 C555 1.327 . S
C555 H549 0.950 . S
C555 C554 1.327 . S
C555 C559 1.429 . S
C556 C539 1.574 . S
C556 H550 0.949 . S
C556 C560 1.368 . S
C557 C538 1.429 . S
C557 C551 1.429 . S
C557 C558 1.523 . S
C558 C539 1.368 . S
C558 C552 1.368 . S
C558 C557 1.523 . S
C559 C543 1.429 . S
C559 C555 1.429 . S
C559 C560 1.523 . S
C560 C544 1.368 . S
C560 C556 1.368 . S
C560 C559 1.523 . S
H561 C536 0.950 . S
H562 C538 0.950 . S
H563 C539 0.949 . S
H564 C541 0.950 . S
H565 C543 0.950 . S
C566 C567 1.349 . S
C566 C568 1.327 . S
C566 H591 0.950 . S
C567 C566 1.349 . S
C567 C583 1.349 . S
C568 C566 1.327 . S
C568 C587 1.429 . S
C568 H592 0.950 . S
C569 C586 1.574 . S
C569 C588 1.368 . S
C569 H593 0.949 . S
H570 C574 0.949 . S
C571 C572 1.349 . S
C571 C573 1.327 . S
C571 H594 0.950 . S
C572 C571 1.349 . S
C572 C584 1.349 . S
C573 C571 1.327 . S
C573 C589 1.429 . S
C573 H595 0.950 . S
C574 H570 0.949 . S
C574 C582 1.574 . S
C574 C590 1.368 . S
H575 C583 0.950 . S
H576 C581 0.950 . S
H577 C582 0.949 . S
H578 C584 0.950 . S
H579 C585 0.950 . S
H580 C586 0.949 . S
C581 H576 0.950 . S
C581 C583 1.327 . S
C581 C587 1.429 . S
C582 C574 1.574 . S
C582 H577 0.949 . S
C582 C588 1.368 . S
C583 C567 1.349 . S
C583 H575 0.950 . S
C583 C581 1.327 . S
C584 C572 1.349 . S
C584 H578 0.950 . S
C584 C585 1.327 . S
C585 H579 0.950 . S
C585 C584 1.327 . S
C585 C589 1.429 . S
C586 C569 1.574 . S
C586 H580 0.949 . S
C586 C590 1.368 . S
C587 C568 1.429 . S
C587 C581 1.429 . S
C587 C588 1.523 . S
C588 C569 1.368 . S
C588 C582 1.368 . S
C588 C587 1.523 . S
C589 C573 1.429 . S
C589 C585 1.429 . S
C589 C590 1.523 . S
C590 C574 1.368 . S
C590 C586 1.368 . S
C590 C589 1.523 . S
H591 C566 0.950 . S
H592 C568 0.950 . S
H593 C569 0.949 . S
H594 C571 0.950 . S
H595 C573 0.950 . S
C596 C597 1.349 . S
C596 C598 1.327 . S
C596 H621 0.950 . S
C597 C596 1.349 . S
C597 C613 1.349 . S
C598 C596 1.327 . S
C598 C617 1.429 . S
C598 H622 0.950 . S
C599 C616 1.574 . S
C599 C618 1.368 . S
C599 H623 0.949 . S
H600 C604 0.949 . S
C601 C602 1.349 . S
C601 C603 1.327 . S
C601 H624 0.950 . S
C602 C601 1.349 . S
C602 C614 1.349 . S
C603 C601 1.327 . S
C603 C619 1.429 . S
C603 H625 0.950 . S
C604 H600 0.949 . S
C604 C612 1.574 . S
C604 C620 1.368 . S
H605 C613 0.950 . S
H606 C611 0.950 . S
H607 C612 0.949 . S
H608 C614 0.950 . S
H609 C615 0.950 . S
H610 C616 0.949 . S
C611 H606 0.950 . S
C611 C613 1.327 . S
C611 C617 1.429 . S
C612 C604 1.574 . S
C612 H607 0.949 . S
C612 C618 1.368 . S
C613 C597 1.349 . S
C613 H605 0.950 . S
C613 C611 1.327 . S
C614 C602 1.349 . S
C614 H608 0.950 . S
C614 C615 1.327 . S
C615 H609 0.950 . S
C615 C614 1.327 . S
C615 C619 1.429 . S
C616 C599 1.574 . S
C616 H610 0.949 . S
C616 C620 1.368 . S
C617 C598 1.429 . S
C617 C611 1.429 . S
C617 C618 1.523 . S
C618 C599 1.368 . S
C618 C612 1.368 . S
C618 C617 1.523 . S
C619 C603 1.429 . S
C619 C615 1.429 . S
C619 C620 1.523 . S
C620 C604 1.368 . S
C620 C616 1.368 . S
C620 C619 1.523 . S
H621 C596 0.950 . S
H622 C598 0.950 . S
H623 C599 0.949 . S
H624 C601 0.950 . S
H625 C603 0.950 . S
C626 C627 1.349 . S
C626 C628 1.327 . S
C626 H651 0.950 . S
C627 C626 1.349 . S
C627 C643 1.349 . S
C628 C626 1.327 . S
C628 C647 1.429 . S
C628 H652 0.950 . S
C629 C646 1.574 . S
C629 C648 1.368 . S
C629 H653 0.949 . S
H630 C634 0.949 . S
C631 C632 1.349 . S
C631 C633 1.327 . S
C631 H654 0.950 . S
C632 C631 1.349 . S
C632 C644 1.349 . S
C633 C631 1.327 . S
C633 C649 1.429 . S
C633 H655 0.950 . S
C634 H630 0.949 . S
C634 C642 1.574 . S
C634 C650 1.368 . S
H635 C643 0.950 . S
H636 C641 0.950 . S
H637 C642 0.949 . S
H638 C644 0.950 . S
H639 C645 0.950 . S
H640 C646 0.949 . S
C641 H636 0.950 . S
C641 C643 1.327 . S
C641 C647 1.429 . S
C642 C634 1.574 . S
C642 H637 0.949 . S
C642 C648 1.368 . S
C643 C627 1.349 . S
C643 H635 0.950 . S
C643 C641 1.327 . S
C644 C632 1.349 . S
C644 H638 0.950 . S
C644 C645 1.327 . S
C645 H639 0.950 . S
C645 C644 1.327 . S
C645 C649 1.429 . S
C646 C629 1.574 . S
C646 H640 0.949 . S
C646 C650 1.368 . S
C647 C628 1.429 . S
C647 C641 1.429 . S
C647 C648 1.523 . S
C648 C629 1.368 . S
C648 C642 1.368 . S
C648 C647 1.523 . S
C649 C633 1.429 . S
C649 C645 1.429 . S
C649 C650 1.523 . S
C650 C634 1.368 . S
C650 C646 1.368 . S
C650 C649 1.523 . S
H651 C626 0.950 . S
H652 C628 0.950 . S
H653 C629 0.949 . S
H654 C631 0.950 . S
H655 C633 0.950 . S
C656 C657 1.349 . S
C656 C658 1.327 . S
C656 H681 0.950 . S
C657 C656 1.349 . S
C657 C673 1.349 . S
C658 C656 1.327 . S
C658 C677 1.429 . S
C658 H682 0.950 . S
C659 C676 1.574 . S
C659 C678 1.368 . S
C659 H683 0.949 . S
H660 C664 0.949 . S
C661 C662 1.349 . S
C661 C663 1.327 . S
C661 H684 0.950 . S
C662 C661 1.349 . S
C662 C674 1.349 . S
C663 C661 1.327 . S
C663 C679 1.429 . S
C663 H685 0.950 . S
C664 H660 0.949 . S
C664 C672 1.574 . S
C664 C680 1.368 . S
H665 C673 0.950 . S
H666 C671 0.950 . S
H667 C672 0.949 . S
H668 C674 0.950 . S
H669 C675 0.950 . S
H670 C676 0.949 . S
C671 H666 0.950 . S
C671 C673 1.327 . S
C671 C677 1.429 . S
C672 C664 1.574 . S
C672 H667 0.949 . S
C672 C678 1.368 . S
C673 C657 1.349 . S
C673 H665 0.950 . S
C673 C671 1.327 . S
C674 C662 1.349 . S
C674 H668 0.950 . S
C674 C675 1.327 . S
C675 H669 0.950 . S
C675 C674 1.327 . S
C675 C679 1.429 . S
C676 C659 1.574 . S
C676 H670 0.949 . S
C676 C680 1.368 . S
C677 C658 1.429 . S
C677 C671 1.429 . S
C677 C678 1.523 . S
C678 C659 1.368 . S
C678 C672 1.368 . S
C678 C677 1.523 . S
C679 C663 1.429 . S
C679 C675 1.429 . S
C679 C680 1.523 . S
C680 C664 1.368 . S
C680 C676 1.368 . S
C680 C679 1.523 . S
H681 C656 0.950 . S
H682 C658 0.950 . S
H683 C659 0.949 . S
H684 C661 0.950 . S
H685 C663 0.950 . S
C686 C687 1.349 . S
C686 C688 1.327 . S
C686 H711 0.950 . S
C687 C686 1.349 . S
C687 C703 1.349 . S
C688 C686 1.327 . S
C688 C707 1.429 . S
C688 H712 0.950 . S
C689 C706 1.574 . S
C689 C708 1.368 . S
C689 H713 0.949 . S
H690 C694 0.949 . S
C691 C692 1.349 . S
C691 C693 1.327 . S
C691 H714 0.950 . S
C692 C691 1.349 . S
C692 C704 1.349 . S
C693 C691 1.327 . S
C693 C709 1.429 . S
C693 H715 0.950 . S
C694 H690 0.949 . S
C694 C702 1.574 . S
C694 C710 1.368 . S
H695 C703 0.950 . S
H696 C701 0.950 . S
H697 C702 0.949 . S
H698 C704 0.950 . S
H699 C705 0.950 . S
H700 C706 0.949 . S
C701 H696 0.950 . S
C701 C703 1.327 . S
C701 C707 1.429 . S
C702 C694 1.574 . S
C702 H697 0.949 . S
C702 C708 1.368 . S
C703 C687 1.349 . S
C703 H695 0.950 . S
C703 C701 1.327 . S
C704 C692 1.349 . S
C704 H698 0.950 . S
C704 C705 1.327 . S
C705 H699 0.950 . S
C705 C704 1.327 . S
C705 C709 1.429 . S
C706 C689 1.574 . S
C706 H700 0.949 . S
C706 C710 1.368 . S
C707 C688 1.429 . S
C707 C701 1.429 . S
C707 C708 1.523 . S
C708 C689 1.368 . S
C708 C702 1.368 . S
C708 C707 1.523 . S
C709 C693 1.429 . S
C709 C705 1.429 . S
C709 C710 1.523 . S
C710 C694 1.368 . S
C710 C706 1.368 . S
C710 C709 1.523 . S
H711 C686 0.950 . S
H712 C688 0.950 . S
H713 C689 0.949 . S
H714 C691 0.950 . S
H715 C693 0.950 . S
C716 C717 1.349 . S
C716 C718 1.327 . S
C716 H741 0.950 . S
C717 C716 1.349 . S
C717 C733 1.349 . S
C718 C716 1.327 . S
C718 C737 1.429 . S
C718 H742 0.950 . S
C719 C736 1.574 . S
C719 C738 1.368 . S
C719 H743 0.949 . S
H720 C724 0.949 . S
C721 C722 1.349 . S
C721 C723 1.327 . S
C721 H744 0.950 . S
C722 C721 1.349 . S
C722 C734 1.349 . S
C723 C721 1.327 . S
C723 C739 1.429 . S
C723 H745 0.950 . S
C724 H720 0.949 . S
C724 C732 1.574 . S
C724 C740 1.368 . S
H725 C733 0.950 . S
H726 C731 0.950 . S
H727 C732 0.949 . S
H728 C734 0.950 . S
H729 C735 0.950 . S
H730 C736 0.949 . S
C731 H726 0.950 . S
C731 C733 1.327 . S
C731 C737 1.429 . S
C732 C724 1.574 . S
C732 H727 0.949 . S
C732 C738 1.368 . S
C733 C717 1.349 . S
C733 H725 0.950 . S
C733 C731 1.327 . S
C734 C722 1.349 . S
C734 H728 0.950 . S
C734 C735 1.327 . S
C735 H729 0.950 . S
C735 C734 1.327 . S
C735 C739 1.429 . S
C736 C719 1.574 . S
C736 H730 0.949 . S
C736 C740 1.368 . S
C737 C718 1.429 . S
C737 C731 1.429 . S
C737 C738 1.523 . S
C738 C719 1.368 . S
C738 C732 1.368 . S
C738 C737 1.523 . S
C739 C723 1.429 . S
C739 C735 1.429 . S
C739 C740 1.523 . S
C740 C724 1.368 . S
C740 C736 1.368 . S
C740 C739 1.523 . S
H741 C716 0.950 . S
H742 C718 0.950 . S
H743 C719 0.949 . S
H744 C721 0.950 . S
H745 C723 0.950 . S
C746 C747 1.349 . S
C746 C748 1.327 . S
C746 H771 0.950 . S
C747 C746 1.349 . S
C747 C763 1.349 . S
C748 C746 1.327 . S
C748 C767 1.429 . S
C748 H772 0.950 . S
C749 C766 1.574 . S
C749 C768 1.368 . S
C749 H773 0.949 . S
H750 C754 0.949 . S
C751 C752 1.349 . S
C751 C753 1.327 . S
C751 H774 0.950 . S
C752 C751 1.349 . S
C752 C764 1.349 . S
C753 C751 1.327 . S
C753 C769 1.429 . S
C753 H775 0.950 . S
C754 H750 0.949 . S
C754 C762 1.574 . S
C754 C770 1.368 . S
H755 C763 0.950 . S
H756 C761 0.950 . S
H757 C762 0.949 . S
H758 C764 0.950 . S
H759 C765 0.950 . S
H760 C766 0.949 . S
C761 H756 0.950 . S
C761 C763 1.327 . S
C761 C767 1.429 . S
C762 C754 1.574 . S
C762 H757 0.949 . S
C762 C768 1.368 . S
C763 C747 1.349 . S
C763 H755 0.950 . S
C763 C761 1.327 . S
C764 C752 1.349 . S
C764 H758 0.950 . S
C764 C765 1.327 . S
C765 H759 0.950 . S
C765 C764 1.327 . S
C765 C769 1.429 . S
C766 C749 1.574 . S
C766 H760 0.949 . S
C766 C770 1.368 . S
C767 C748 1.429 . S
C767 C761 1.429 . S
C767 C768 1.523 . S
C768 C749 1.368 . S
C768 C762 1.368 . S
C768 C767 1.523 . S
C769 C753 1.429 . S
C769 C765 1.429 . S
C769 C770 1.523 . S
C770 C754 1.368 . S
C770 C766 1.368 . S
C770 C769 1.523 . S
H771 C746 0.950 . S
H772 C748 0.950 . S
H773 C749 0.949 . S
H774 C751 0.950 . S
H775 C753 0.950 . S
C776 C777 1.349 . S
C776 C778 1.327 . S
C776 H801 0.950 . S
C777 C776 1.349 . S
C777 C793 1.349 . S
C778 C776 1.327 . S
C778 C797 1.429 . S
C778 H802 0.950 . S
C779 C796 1.574 . S
C779 C798 1.368 . S
C779 H803 0.949 . S
H780 C784 0.949 . S
C781 C782 1.349 . S
C781 C783 1.327 . S
C781 H804 0.950 . S
C782 C781 1.349 . S
C782 C794 1.349 . S
C783 C781 1.327 . S
C783 C799 1.429 . S
C783 H805 0.950 . S
C784 H780 0.949 . S
C784 C792 1.574 . S
C784 C800 1.368 . S
H785 C793 0.950 . S
H786 C791 0.950 . S
H787 C792 0.949 . S
H788 C794 0.950 . S
H789 C795 0.950 . S
H790 C796 0.949 . S
C791 H786 0.950 . S
C791 C793 1.327 . S
C791 C797 1.429 . S
C792 C784 1.574 . S
C792 H787 0.949 . S
C792 C798 1.368 . S
C793 C777 1.349 . S
C793 H785 0.950 . S
C793 C791 1.327 . S
C794 C782 1.349 . S
C794 H788 0.950 . S
C794 C795 1.327 . S
C795 H789 0.950 . S
C795 C794 1.327 . S
C795 C799 1.429 . S
C796 C779 1.574 . S
C796 H790 0.949 . S
C796 C800 1.368 . S
C797 C778 1.429 . S
C797 C791 1.429 . S
C797 C798 1.523 . S
C798 C779 1.368 . S
C798 C792 1.368 . S
C798 C797 1.523 . S
C799 C783 1.429 . S
C799 C795 1.429 . S
C799 C800 1.523 . S
C800 C784 1.368 . S
C800 C796 1.368 . S
C800 C799 1.523 . S
H801 C776 0.950 . S
H802 C778 0.950 . S
H803 C779 0.949 . S
H804 C781 0.950 . S
H805 C783 0.950 . S
C806 C807 1.349 . S
C806 C808 1.327 . S
C806 H831 0.950 . S
C807 C806 1.349 . S
C807 C823 1.349 . S
C808 C806 1.327 . S
C808 C827 1.429 . S
C808 H832 0.950 . S
C809 C826 1.574 . S
C809 C828 1.368 . S
C809 H833 0.949 . S
H810 C814 0.949 . S
C811 C812 1.349 . S
C811 C813 1.327 . S
C811 H834 0.950 . S
C812 C811 1.349 . S
C812 C824 1.349 . S
C813 C811 1.327 . S
C813 C829 1.429 . S
C813 H835 0.950 . S
C814 H810 0.949 . S
C814 C822 1.574 . S
C814 C830 1.368 . S
H815 C823 0.950 . S
H816 C821 0.950 . S
H817 C822 0.949 . S
H818 C824 0.950 . S
H819 C825 0.950 . S
H820 C826 0.949 . S
C821 H816 0.950 . S
C821 C823 1.327 . S
C821 C827 1.429 . S
C822 C814 1.574 . S
C822 H817 0.949 . S
C822 C828 1.368 . S
C823 C807 1.349 . S
C823 H815 0.950 . S
C823 C821 1.327 . S
C824 C812 1.349 . S
C824 H818 0.950 . S
C824 C825 1.327 . S
C825 H819 0.950 . S
C825 C824 1.327 . S
C825 C829 1.429 . S
C826 C809 1.574 . S
C826 H820 0.949 . S
C826 C830 1.368 . S
C827 C808 1.429 . S
C827 C821 1.429 . S
C827 C828 1.523 . S
C828 C809 1.368 . S
C828 C822 1.368 . S
C828 C827 1.523 . S
C829 C813 1.429 . S
C829 C825 1.429 . S
C829 C830 1.523 . S
C830 C814 1.368 . S
C830 C826 1.368 . S
C830 C829 1.523 . S
H831 C806 0.950 . S
H832 C808 0.950 . S
H833 C809 0.949 . S
H834 C811 0.950 . S
H835 C813 0.950 . S
C836 C837 1.349 . S
C836 C838 1.327 . S
C836 H861 0.950 . S
C837 C836 1.349 . S
C837 C853 1.349 . S
C838 C836 1.327 . S
C838 C857 1.429 . S
C838 H862 0.950 . S
C839 C856 1.574 . S
C839 C858 1.368 . S
C839 H863 0.949 . S
H840 C844 0.949 . S
C841 C842 1.349 . S
C841 C843 1.327 . S
C841 H864 0.950 . S
C842 C841 1.349 . S
C842 C854 1.349 . S
C843 C841 1.327 . S
C843 C859 1.429 . S
C843 H865 0.950 . S
C844 H840 0.949 . S
C844 C852 1.574 . S
C844 C860 1.368 . S
H845 C853 0.950 . S
H846 C851 0.950 . S
H847 C852 0.949 . S
H848 C854 0.950 . S
H849 C855 0.950 . S
H850 C856 0.949 . S
C851 H846 0.950 . S
C851 C853 1.327 . S
C851 C857 1.429 . S
C852 C844 1.574 . S
C852 H847 0.949 . S
C852 C858 1.368 . S
C853 C837 1.349 . S
C853 H845 0.950 . S
C853 C851 1.327 . S
C854 C842 1.349 . S
C854 H848 0.950 . S
C854 C855 1.327 . S
C855 H849 0.950 . S
C855 C854 1.327 . S
C855 C859 1.429 . S
C856 C839 1.574 . S
C856 H850 0.949 . S
C856 C860 1.368 . S
C857 C838 1.429 . S
C857 C851 1.429 . S
C857 C858 1.523 . S
C858 C839 1.368 . S
C858 C852 1.368 . S
C858 C857 1.523 . S
C859 C843 1.429 . S
C859 C855 1.429 . S
C859 C860 1.523 . S
C860 C844 1.368 . S
C860 C856 1.368 . S
C860 C859 1.523 . S
H861 C836 0.950 . S
H862 C838 0.950 . S
H863 C839 0.949 . S
H864 C841 0.950 . S
H865 C843 0.950 . S
C866 C867 1.349 . S
C866 C868 1.327 . S
C866 H891 0.950 . S
C867 C866 1.349 . S
C867 C883 1.349 . S
C868 C866 1.327 . S
C868 C887 1.429 . S
C868 H892 0.950 . S
C869 C886 1.574 . S
C869 C888 1.368 . S
C869 H893 0.949 . S
H870 C874 0.949 . S
C871 C872 1.349 . S
C871 C873 1.327 . S
C871 H894 0.950 . S
C872 C871 1.349 . S
C872 C884 1.349 . S
C873 C871 1.327 . S
C873 C889 1.429 . S
C873 H895 0.950 . S
C874 H870 0.949 . S
C874 C882 1.574 . S
C874 C890 1.368 . S
H875 C883 0.950 . S
H876 C881 0.950 . S
H877 C882 0.949 . S
H878 C884 0.950 . S
H879 C885 0.950 . S
H880 C886 0.949 . S
C881 H876 0.950 . S
C881 C883 1.327 . S
C881 C887 1.429 . S
C882 C874 1.574 . S
C882 H877 0.949 . S
C882 C888 1.368 . S
C883 C867 1.349 . S
C883 H875 0.950 . S
C883 C881 1.327 . S
C884 C872 1.349 . S
C884 H878 0.950 . S
C884 C885 1.327 . S
C885 H879 0.950 . S
C885 C884 1.327 . S
C885 C889 1.429 . S
C886 C869 1.574 . S
C886 H880 0.949 . S
C886 C890 1.368 . S
C887 C868 1.429 . S
C887 C881 1.429 . S
C887 C888 1.523 . S
C888 C869 1.368 . S
C888 C882 1.368 . S
C888 C887 1.523 . S
C889 C873 1.429 . S
C889 C885 1.429 . S
C889 C890 1.523 . S
C890 C874 1.368 . S
C890 C886 1.368 . S
C890 C889 1.523 . S
H891 C866 0.950 . S
H892 C868 0.950 . S
H893 C869 0.949 . S
H894 C871 0.950 . S
H895 C873 0.950 . S
C896 C897 1.349 . S
C896 C898 1.327 . S
C896 H921 0.950 . S
C897 C896 1.349 . S
C897 C913 1.349 . S
C898 C896 1.327 . S
C898 C917 1.429 . S
C898 H922 0.950 . S
C899 C916 1.574 . S
C899 C918 1.368 . S
C899 H923 0.949 . S
H900 C904 0.949 . S
C901 C902 1.349 . S
C901 C903 1.327 . S
C901 H924 0.950 . S
C902 C901 1.349 . S
C902 C914 1.349 . S
C903 C901 1.327 . S
C903 C919 1.429 . S
C903 H925 0.950 . S
C904 H900 0.949 . S
C904 C912 1.574 . S
C904 C920 1.368 . S
H905 C913 0.950 . S
H906 C911 0.950 . S
H907 C912 0.949 . S
H908 C914 0.950 . S
H909 C915 0.950 . S
H910 C916 0.949 . S
C911 H906 0.950 . S
C911 C913 1.327 . S
C911 C917 1.429 . S
C912 C904 1.574 . S
C912 H907 0.949 . S
C912 C918 1.368 . S
C913 C897 1.349 . S
C913 H905 0.950 . S
C913 C911 1.327 . S
C914 C902 1.349 . S
C914 H908 0.950 . S
C914 C915 1.327 . S
C915 H909 0.950 . S
C915 C914 1.327 . S
C915 C919 1.429 . S
C916 C899 1.574 . S
C916 H910 0.949 . S
C916 C920 1.368 . S
C917 C898 1.429 . S
C917 C911 1.429 . S
C917 C918 1.523 . S
C918 C899 1.368 . S
C918 C912 1.368 . S
C918 C917 1.523 . S
C919 C903 1.429 . S
C919 C915 1.429 . S
C919 C920 1.523 . S
C920 C904 1.368 . S
C920 C916 1.368 . S
C920 C919 1.523 . S
H921 C896 0.950 . S
H922 C898 0.950 . S
H923 C899 0.949 . S
H924 C901 0.950 . S
H925 C903 0.950 . S
C926 C927 1.349 . S
C926 C928 1.327 . S
C926 H951 0.950 . S
C927 C926 1.349 . S
C927 C943 1.349 . S
C928 C926 1.327 . S
C928 C947 1.429 . S
C928 H952 0.950 . S
C929 C946 1.574 . S
C929 C948 1.368 . S
C929 H953 0.949 . S
H930 C934 0.949 . S
C931 C932 1.349 . S
C931 C933 1.327 . S
C931 H954 0.950 . S
C932 C931 1.349 . S
C932 C944 1.349 1_455 S
C933 C931 1.327 . S
C933 C949 1.429 1_455 S
C933 H955 0.950 . S
C934 H930 0.949 . S
C934 C942 1.574 . S
C934 C950 1.368 . S
H935 C943 0.950 . S
H936 C941 0.950 . S
H937 C942 0.949 . S
H938 C944 0.950 . S
H939 C945 0.950 . S
H940 C946 0.949 . S
C941 H936 0.950 . S
C941 C943 1.327 . S
C941 C947 1.429 . S
C942 C934 1.574 . S
C942 H937 0.949 . S
C942 C948 1.368 . S
C943 C927 1.349 . S
C943 H935 0.950 . S
C943 C941 1.327 . S
C944 C932 1.349 1_655 S
C944 H938 0.950 . S
C944 C945 1.327 . S
C945 H939 0.950 . S
C945 C944 1.327 . S
C945 C949 1.429 . S
C946 C929 1.574 . S
C946 H940 0.949 . S
C946 C950 1.368 . S
C947 C928 1.429 . S
C947 C941 1.429 . S
C947 C948 1.523 . S
C948 C929 1.368 . S
C948 C942 1.368 . S
C948 C947 1.523 . S
C949 C933 1.429 1_655 S
C949 C945 1.429 . S
C949 C950 1.523 . S
C950 C934 1.368 . S
C950 C946 1.368 . S
C950 C949 1.523 . S
H951 C926 0.950 . S
H952 C928 0.950 . S
H953 C929 0.949 . S
H954 C931 0.950 . S
H955 C933 0.950 . S
C956 C957 1.349 . S
C956 C958 1.327 . S
C956 H981 0.950 . S
C957 C956 1.349 . S
C957 C973 1.349 . S
C958 C956 1.327 . S
C958 C977 1.429 . S
C958 H982 0.950 . S
C959 C976 1.574 . S
C959 C978 1.368 . S
C959 H983 0.949 . S
H960 C964 0.949 . S
C961 C962 1.349 . S
C961 C963 1.327 . S
C961 H984 0.950 . S
C962 C961 1.349 . S
C962 C974 1.349 . S
C963 C961 1.327 . S
C963 C979 1.429 . S
C963 H985 0.950 . S
C964 H960 0.949 . S
C964 C972 1.574 . S
C964 C980 1.368 . S
H965 C973 0.950 . S
H966 C971 0.950 . S
H967 C972 0.949 . S
H968 C974 0.950 . S
H969 C975 0.950 . S
H970 C976 0.949 . S
C971 H966 0.950 . S
C971 C973 1.327 . S
C971 C977 1.429 . S
C972 C964 1.574 . S
C972 H967 0.949 . S
C972 C978 1.368 . S
C973 C957 1.349 . S
C973 H965 0.950 . S
C973 C971 1.327 . S
C974 C962 1.349 . S
C974 H968 0.950 . S
C974 C975 1.327 . S
C975 H969 0.950 . S
C975 C974 1.327 . S
C975 C979 1.429 . S
C976 C959 1.574 . S
C976 H970 0.949 . S
C976 C980 1.368 . S
C977 C958 1.429 . S
C977 C971 1.429 . S
C977 C978 1.523 . S
C978 C959 1.368 . S
C978 C972 1.368 . S
C978 C977 1.523 . S
C979 C963 1.429 . S
C979 C975 1.429 . S
C979 C980 1.523 . S
C980 C964 1.368 . S
C980 C976 1.368 . S
C980 C979 1.523 . S
H981 C956 0.950 . S
H982 C958 0.950 . S
H983 C959 0.949 . S
H984 C961 0.950 . S
H985 C963 0.950 . S
C986 C987 1.349 . S
C986 C988 1.327 . S
C986 H1011 0.950 . S
C987 C986 1.349 . S
C987 C1003 1.349 . S
C988 C986 1.327 . S
C988 C1007 1.429 . S
C988 H1012 0.950 . S
C989 C1006 1.574 . S
C989 C1008 1.368 . S
C989 H1013 0.949 . S
H990 C994 0.949 . S
C991 C992 1.349 . S
C991 C993 1.327 . S
C991 H1014 0.950 . S
C992 C991 1.349 . S
C992 C1004 1.349 . S
C993 C991 1.327 . S
C993 C1009 1.429 . S
C993 H1015 0.950 . S
C994 H990 0.949 . S
C994 C1002 1.574 . S
C994 C1010 1.368 . S
H995 C1003 0.950 . S
H996 C1001 0.950 . S
H997 C1002 0.949 . S
H998 C1004 0.950 . S
H999 C1005 0.950 . S
H1000 C1006 0.949 . S
C1001 H996 0.950 . S
C1001 C1003 1.327 . S
C1001 C1007 1.429 . S
C1002 C994 1.574 . S
C1002 H997 0.949 . S
C1002 C1008 1.368 . S
C1003 C987 1.349 . S
C1003 H995 0.950 . S
C1003 C1001 1.327 . S
C1004 C992 1.349 . S
C1004 H998 0.950 . S
C1004 C1005 1.327 . S
C1005 H999 0.950 . S
C1005 C1004 1.327 . S
C1005 C1009 1.429 . S
C1006 C989 1.574 . S
C1006 H1000 0.949 . S
C1006 C1010 1.368 . S
C1007 C988 1.429 . S
C1007 C1001 1.429 . S
C1007 C1008 1.523 . S
C1008 C989 1.368 . S
C1008 C1002 1.368 . S
C1008 C1007 1.523 . S
C1009 C993 1.429 . S
C1009 C1005 1.429 . S
C1009 C1010 1.523 . S
C1010 C994 1.368 . S
C1010 C1006 1.368 . S
C1010 C1009 1.523 . S
H1011 C986 0.950 . S
H1012 C988 0.950 . S
H1013 C989 0.949 . S
H1014 C991 0.950 . S
H1015 C993 0.950 . S
C1016 C1017 1.349 . S
C1016 C1018 1.327 . S
C1016 H1041 0.950 . S
C1017 C1016 1.349 . S
C1017 C1033 1.349 . S
C1018 C1016 1.327 . S
C1018 C1037 1.429 . S
C1018 H1042 0.950 . S
C1019 C1036 1.574 . S
C1019 C1038 1.368 . S
C1019 H1043 0.949 . S
H1020 C1024 0.949 . S
C1021 C1022 1.349 . S
C1021 C1023 1.327 . S
C1021 H1044 0.950 . S
C1022 C1021 1.349 . S
C1022 C1034 1.349 . S
C1023 C1021 1.327 . S
C1023 C1039 1.429 . S
C1023 H1045 0.950 . S
C1024 H1020 0.949 . S
C1024 C1032 1.574 . S
C1024 C1040 1.368 . S
H1025 C1033 0.950 . S
H1026 C1031 0.950 . S
H1027 C1032 0.949 . S
H1028 C1034 0.950 . S
H1029 C1035 0.950 . S
H1030 C1036 0.949 . S
C1031 H1026 0.950 . S
C1031 C1033 1.327 . S
C1031 C1037 1.429 . S
C1032 C1024 1.574 . S
C1032 H1027 0.949 . S
C1032 C1038 1.368 . S
C1033 C1017 1.349 . S
C1033 H1025 0.950 . S
C1033 C1031 1.327 . S
C1034 C1022 1.349 . S
C1034 H1028 0.950 . S
C1034 C1035 1.327 . S
C1035 H1029 0.950 . S
C1035 C1034 1.327 . S
C1035 C1039 1.429 . S
C1036 C1019 1.574 . S
C1036 H1030 0.949 . S
C1036 C1040 1.368 . S
C1037 C1018 1.429 . S
C1037 C1031 1.429 . S
C1037 C1038 1.523 . S
C1038 C1019 1.368 . S
C1038 C1032 1.368 . S
C1038 C1037 1.523 . S
C1039 C1023 1.429 . S
C1039 C1035 1.429 . S
C1039 C1040 1.523 . S
C1040 C1024 1.368 . S
C1040 C1036 1.368 . S
C1040 C1039 1.523 . S
H1041 C1016 0.950 . S
H1042 C1018 0.950 . S
H1043 C1019 0.949 . S
H1044 C1021 0.950 . S
H1045 C1023 0.950 . S
C1046 C1047 1.349 . S
C1046 C1048 1.327 . S
C1046 H1071 0.950 . S
C1047 C1046 1.349 . S
C1047 C1063 1.349 . S
C1048 C1046 1.327 . S
C1048 C1067 1.429 . S
C1048 H1072 0.950 . S
C1049 C1066 1.574 . S
C1049 C1068 1.368 . S
C1049 H1073 0.949 . S
H1050 C1054 0.949 . S
C1051 C1052 1.349 . S
C1051 C1053 1.327 . S
C1051 H1074 0.950 . S
C1052 C1051 1.349 . S
C1052 C1064 1.349 . S
C1053 C1051 1.327 . S
C1053 C1069 1.429 . S
C1053 H1075 0.950 . S
C1054 H1050 0.949 . S
C1054 C1062 1.574 . S
C1054 C1070 1.368 . S
H1055 C1063 0.950 . S
H1056 C1061 0.950 . S
H1057 C1062 0.949 . S
H1058 C1064 0.950 . S
H1059 C1065 0.950 . S
H1060 C1066 0.949 . S
C1061 H1056 0.950 . S
C1061 C1063 1.327 . S
C1061 C1067 1.429 . S
C1062 C1054 1.574 . S
C1062 H1057 0.949 . S
C1062 C1068 1.368 . S
C1063 C1047 1.349 . S
C1063 H1055 0.950 . S
C1063 C1061 1.327 . S
C1064 C1052 1.349 . S
C1064 H1058 0.950 . S
C1064 C1065 1.327 . S
C1065 H1059 0.950 . S
C1065 C1064 1.327 . S
C1065 C1069 1.429 . S
C1066 C1049 1.574 . S
C1066 H1060 0.949 . S
C1066 C1070 1.368 . S
C1067 C1048 1.429 . S
C1067 C1061 1.429 . S
C1067 C1068 1.523 . S
C1068 C1049 1.368 . S
C1068 C1062 1.368 . S
C1068 C1067 1.523 . S
C1069 C1053 1.429 . S
C1069 C1065 1.429 . S
C1069 C1070 1.523 . S
C1070 C1054 1.368 . S
C1070 C1066 1.368 . S
C1070 C1069 1.523 . S
H1071 C1046 0.950 . S
H1072 C1048 0.950 . S
H1073 C1049 0.949 . S
H1074 C1051 0.950 . S
H1075 C1053 0.950 . S
C1076 C1077 1.349 . S
C1076 C1078 1.327 . S
C1076 H1101 0.950 . S
C1077 C1076 1.349 . S
C1077 C1093 1.349 . S
C1078 C1076 1.327 . S
C1078 C1097 1.429 . S
C1078 H1102 0.950 . S
C1079 C1096 1.574 . S
C1079 C1098 1.368 . S
C1079 H1103 0.949 . S
H1080 C1084 0.949 . S
C1081 C1082 1.349 . S
C1081 C1083 1.327 . S
C1081 H1104 0.950 . S
C1082 C1081 1.349 . S
C1082 C1094 1.349 . S
C1083 C1081 1.327 . S
C1083 C1099 1.429 . S
C1083 H1105 0.950 . S
C1084 H1080 0.949 . S
C1084 C1092 1.574 . S
C1084 C1100 1.368 . S
H1085 C1093 0.950 . S
H1086 C1091 0.950 . S
H1087 C1092 0.949 . S
H1088 C1094 0.950 . S
H1089 C1095 0.950 . S
H1090 C1096 0.949 . S
C1091 H1086 0.950 . S
C1091 C1093 1.327 . S
C1091 C1097 1.429 . S
C1092 C1084 1.574 . S
C1092 H1087 0.949 . S
C1092 C1098 1.368 . S
C1093 C1077 1.349 . S
C1093 H1085 0.950 . S
C1093 C1091 1.327 . S
C1094 C1082 1.349 . S
C1094 H1088 0.950 . S
C1094 C1095 1.327 . S
C1095 H1089 0.950 . S
C1095 C1094 1.327 . S
C1095 C1099 1.429 . S
C1096 C1079 1.574 . S
C1096 H1090 0.949 . S
C1096 C1100 1.368 . S
C1097 C1078 1.429 . S
C1097 C1091 1.429 . S
C1097 C1098 1.523 . S
C1098 C1079 1.368 . S
C1098 C1092 1.368 . S
C1098 C1097 1.523 . S
C1099 C1083 1.429 . S
C1099 C1095 1.429 . S
C1099 C1100 1.523 . S
C1100 C1084 1.368 . S
C1100 C1096 1.368 . S
C1100 C1099 1.523 . S
H1101 C1076 0.950 . S
H1102 C1078 0.950 . S
H1103 C1079 0.949 . S
H1104 C1081 0.950 . S
H1105 C1083 0.950 . S
C1106 C1107 1.349 . S
C1106 C1108 1.327 1_455 S
C1106 H1131 0.950 . S
C1107 C1106 1.349 . S
C1107 C1123 1.349 . S
C1108 C1106 1.327 1_655 S
C1108 C1127 1.429 . S
C1108 H1132 0.950 . S
C1109 C1126 1.574 . S
C1109 C1128 1.368 . S
C1109 H1133 0.949 . S
H1110 C1114 0.949 . S
C1111 C1112 1.349 . S
C1111 C1113 1.327 . S
C1111 H1134 0.950 . S
C1112 C1111 1.349 . S
C1112 C1124 1.349 . S
C1113 C1111 1.327 . S
C1113 C1129 1.429 . S
C1113 H1135 0.950 . S
C1114 H1110 0.949 . S
C1114 C1122 1.574 . S
C1114 C1130 1.368 . S
H1115 C1123 0.950 . S
H1116 C1121 0.950 . S
H1117 C1122 0.949 . S
H1118 C1124 0.950 . S
H1119 C1125 0.950 . S
H1120 C1126 0.949 . S
C1121 H1116 0.950 . S
C1121 C1123 1.327 1_655 S
C1121 C1127 1.429 . S
C1122 C1114 1.574 . S
C1122 H1117 0.949 . S
C1122 C1128 1.368 . S
C1123 C1107 1.349 . S
C1123 H1115 0.950 . S
C1123 C1121 1.327 1_455 S
C1124 C1112 1.349 . S
C1124 H1118 0.950 . S
C1124 C1125 1.327 . S
C1125 H1119 0.950 . S
C1125 C1124 1.327 . S
C1125 C1129 1.429 . S
C1126 C1109 1.574 . S
C1126 H1120 0.949 . S
C1126 C1130 1.368 . S
C1127 C1108 1.429 . S
C1127 C1121 1.429 . S
C1127 C1128 1.523 . S
C1128 C1109 1.368 . S
C1128 C1122 1.368 . S
C1128 C1127 1.523 . S
C1129 C1113 1.429 . S
C1129 C1125 1.429 . S
C1129 C1130 1.523 . S
C1130 C1114 1.368 . S
C1130 C1126 1.368 . S
C1130 C1129 1.523 . S
H1131 C1106 0.950 . S
H1132 C1108 0.950 . S
H1133 C1109 0.949 . S
H1134 C1111 0.950 . S
H1135 C1113 0.950 . S
C1136 C1137 1.349 . S
C1136 C1138 1.327 . S
C1136 H1161 0.950 . S
C1137 C1136 1.349 . S
C1137 C1153 1.349 . S
C1138 C1136 1.327 . S
C1138 C1157 1.429 . S
C1138 H1162 0.950 . S
C1139 C1156 1.574 . S
C1139 C1158 1.368 . S
C1139 H1163 0.949 . S
H1140 C1144 0.949 . S
C1141 C1142 1.349 . S
C1141 C1143 1.327 . S
C1141 H1164 0.950 . S
C1142 C1141 1.349 . S
C1142 C1154 1.349 . S
C1143 C1141 1.327 . S
C1143 C1159 1.429 . S
C1143 H1165 0.950 . S
C1144 H1140 0.949 . S
C1144 C1152 1.574 . S
C1144 C1160 1.368 . S
H1145 C1153 0.950 . S
H1146 C1151 0.950 . S
H1147 C1152 0.949 . S
H1148 C1154 0.950 . S
H1149 C1155 0.950 . S
H1150 C1156 0.949 . S
C1151 H1146 0.950 . S
C1151 C1153 1.327 . S
C1151 C1157 1.429 . S
C1152 C1144 1.574 . S
C1152 H1147 0.949 . S
C1152 C1158 1.368 . S
C1153 C1137 1.349 . S
C1153 H1145 0.950 . S
C1153 C1151 1.327 . S
C1154 C1142 1.349 . S
C1154 H1148 0.950 . S
C1154 C1155 1.327 . S
C1155 H1149 0.950 . S
C1155 C1154 1.327 . S
C1155 C1159 1.429 . S
C1156 C1139 1.574 . S
C1156 H1150 0.949 . S
C1156 C1160 1.368 . S
C1157 C1138 1.429 . S
C1157 C1151 1.429 . S
C1157 C1158 1.523 . S
C1158 C1139 1.368 . S
C1158 C1152 1.368 . S
C1158 C1157 1.523 . S
C1159 C1143 1.429 . S
C1159 C1155 1.429 . S
C1159 C1160 1.523 . S
C1160 C1144 1.368 . S
C1160 C1156 1.368 . S
C1160 C1159 1.523 . S
H1161 C1136 0.950 . S
H1162 C1138 0.950 . S
H1163 C1139 0.949 . S
H1164 C1141 0.950 . S
H1165 C1143 0.950 . S
C1166 C1167 1.349 . S
C1166 C1168 1.327 1_655 S
C1166 H1191 0.950 . S
C1167 C1166 1.349 . S
C1167 C1183 1.349 . S
C1168 C1166 1.327 1_455 S
C1168 C1187 1.429 . S
C1168 H1192 0.950 . S
C1169 C1186 1.574 . S
C1169 C1188 1.368 . S
C1169 H1193 0.949 . S
H1170 C1174 0.949 . S
C1171 C1172 1.349 . S
C1171 C1173 1.327 . S
C1171 H1194 0.950 . S
C1172 C1171 1.349 . S
C1172 C1184 1.349 . S
C1173 C1171 1.327 . S
C1173 C1189 1.429 . S
C1173 H1195 0.950 . S
C1174 H1170 0.949 . S
C1174 C1182 1.574 . S
C1174 C1190 1.368 . S
H1175 C1183 0.950 . S
H1176 C1181 0.950 . S
H1177 C1182 0.949 . S
H1178 C1184 0.950 . S
H1179 C1185 0.950 . S
H1180 C1186 0.949 . S
C1181 H1176 0.950 . S
C1181 C1183 1.327 1_455 S
C1181 C1187 1.429 . S
C1182 C1174 1.574 . S
C1182 H1177 0.949 . S
C1182 C1188 1.368 . S
C1183 C1167 1.349 . S
C1183 H1175 0.950 . S
C1183 C1181 1.327 1_655 S
C1184 C1172 1.349 . S
C1184 H1178 0.950 . S
C1184 C1185 1.327 . S
C1185 H1179 0.950 . S
C1185 C1184 1.327 . S
C1185 C1189 1.429 . S
C1186 C1169 1.574 . S
C1186 H1180 0.949 . S
C1186 C1190 1.368 . S
C1187 C1168 1.429 . S
C1187 C1181 1.429 . S
C1187 C1188 1.523 . S
C1188 C1169 1.368 . S
C1188 C1182 1.368 . S
C1188 C1187 1.523 . S
C1189 C1173 1.429 . S
C1189 C1185 1.429 . S
C1189 C1190 1.523 . S
C1190 C1174 1.368 . S
C1190 C1186 1.368 . S
C1190 C1189 1.523 . S
H1191 C1166 0.950 . S
H1192 C1168 0.950 . S
H1193 C1169 0.949 . S
H1194 C1171 0.950 . S
H1195 C1173 0.950 . S
C1196 C1197 1.349 . S
C1196 C1198 1.327 . S
C1196 H1221 0.950 . S
C1197 C1196 1.349 . S
C1197 C1213 1.349 . S
C1198 C1196 1.327 . S
C1198 C1217 1.429 . S
C1198 H1222 0.950 . S
C1199 C1216 1.574 . S
C1199 C1218 1.368 . S
C1199 H1223 0.949 . S
H1200 C1204 0.949 . S
C1201 C1202 1.349 . S
C1201 C1203 1.327 . S
C1201 H1224 0.950 . S
C1202 C1201 1.349 . S
C1202 C1214 1.349 . S
C1203 C1201 1.327 . S
C1203 C1219 1.429 . S
C1203 H1225 0.950 . S
C1204 H1200 0.949 . S
C1204 C1212 1.574 . S
C1204 C1220 1.368 . S
H1205 C1213 0.950 . S
H1206 C1211 0.950 . S
H1207 C1212 0.949 . S
H1208 C1214 0.950 . S
H1209 C1215 0.950 . S
H1210 C1216 0.949 . S
C1211 H1206 0.950 . S
C1211 C1213 1.327 . S
C1211 C1217 1.429 . S
C1212 C1204 1.574 . S
C1212 H1207 0.949 . S
C1212 C1218 1.368 . S
C1213 C1197 1.349 . S
C1213 H1205 0.950 . S
C1213 C1211 1.327 . S
C1214 C1202 1.349 . S
C1214 H1208 0.950 . S
C1214 C1215 1.327 . S
C1215 H1209 0.950 . S
C1215 C1214 1.327 . S
C1215 C1219 1.429 . S
C1216 C1199 1.574 . S
C1216 H1210 0.949 . S
C1216 C1220 1.368 . S
C1217 C1198 1.429 . S
C1217 C1211 1.429 . S
C1217 C1218 1.523 . S
C1218 C1199 1.368 . S
C1218 C1212 1.368 . S
C1218 C1217 1.523 . S
C1219 C1203 1.429 . S
C1219 C1215 1.429 . S
C1219 C1220 1.523 . S
C1220 C1204 1.368 . S
C1220 C1216 1.368 . S
C1220 C1219 1.523 . S
H1221 C1196 0.950 . S
H1222 C1198 0.950 . S
H1223 C1199 0.949 . S
H1224 C1201 0.950 . S
H1225 C1203 0.950 . S
C1226 C1227 1.349 . S
C1226 C1228 1.327 . S
C1226 H1251 0.950 . S
C1227 C1226 1.349 . S
C1227 C1243 1.349 . S
C1228 C1226 1.327 . S
C1228 C1247 1.429 . S
C1228 H1252 0.950 . S
C1229 C1246 1.574 . S
C1229 C1248 1.368 . S
C1229 H1253 0.949 . S
H1230 C1234 0.949 . S
C1231 C1232 1.349 . S
C1231 C1233 1.327 . S
C1231 H1254 0.950 . S
C1232 C1231 1.349 . S
C1232 C1244 1.349 . S
C1233 C1231 1.327 . S
C1233 C1249 1.429 . S
C1233 H1255 0.950 . S
C1234 H1230 0.949 . S
C1234 C1242 1.574 . S
C1234 C1250 1.368 . S
H1235 C1243 0.950 . S
H1236 C1241 0.950 . S
H1237 C1242 0.949 . S
H1238 C1244 0.950 . S
H1239 C1245 0.950 . S
H1240 C1246 0.949 . S
C1241 H1236 0.950 . S
C1241 C1243 1.327 . S
C1241 C1247 1.429 . S
C1242 C1234 1.574 . S
C1242 H1237 0.949 . S
C1242 C1248 1.368 . S
C1243 C1227 1.349 . S
C1243 H1235 0.950 . S
C1243 C1241 1.327 . S
C1244 C1232 1.349 . S
C1244 H1238 0.950 . S
C1244 C1245 1.327 . S
C1245 H1239 0.950 . S
C1245 C1244 1.327 . S
C1245 C1249 1.429 . S
C1246 C1229 1.574 . S
C1246 H1240 0.949 . S
C1246 C1250 1.368 . S
C1247 C1228 1.429 . S
C1247 C1241 1.429 . S
C1247 C1248 1.523 . S
C1248 C1229 1.368 . S
C1248 C1242 1.368 . S
C1248 C1247 1.523 . S
C1249 C1233 1.429 . S
C1249 C1245 1.429 . S
C1249 C1250 1.523 . S
C1250 C1234 1.368 . S
C1250 C1246 1.368 . S
C1250 C1249 1.523 . S
H1251 C1226 0.950 . S
H1252 C1228 0.950 . S
H1253 C1229 0.949 . S
H1254 C1231 0.950 . S
H1255 C1233 0.950 . S
C1256 C1257 1.349 . S
C1256 C1258 1.327 . S
C1256 H1281 0.950 . S
C1257 C1256 1.349 . S
C1257 C1273 1.349 . S
C1258 C1256 1.327 . S
C1258 C1277 1.429 . S
C1258 H1282 0.950 . S
C1259 C1276 1.574 . S
C1259 C1278 1.368 . S
C1259 H1283 0.949 . S
H1260 C1264 0.949 . S
C1261 C1262 1.349 . S
C1261 C1263 1.327 . S
C1261 H1284 0.950 . S
C1262 C1261 1.349 . S
C1262 C1274 1.349 . S
C1263 C1261 1.327 . S
C1263 C1279 1.429 . S
C1263 H1285 0.950 . S
C1264 H1260 0.949 . S
C1264 C1272 1.574 . S
C1264 C1280 1.368 . S
H1265 C1273 0.950 . S
H1266 C1271 0.950 . S
H1267 C1272 0.949 . S
H1268 C1274 0.950 . S
H1269 C1275 0.950 . S
H1270 C1276 0.949 . S
C1271 H1266 0.950 . S
C1271 C1273 1.327 . S
C1271 C1277 1.429 . S
C1272 C1264 1.574 . S
C1272 H1267 0.949 . S
C1272 C1278 1.368 . S
C1273 C1257 1.349 . S
C1273 H1265 0.950 . S
C1273 C1271 1.327 . S
C1274 C1262 1.349 . S
C1274 H1268 0.950 . S
C1274 C1275 1.327 . S
C1275 H1269 0.950 . S
C1275 C1274 1.327 . S
C1275 C1279 1.429 . S
C1276 C1259 1.574 . S
C1276 H1270 0.949 . S
C1276 C1280 1.368 . S
C1277 C1258 1.429 . S
C1277 C1271 1.429 . S
C1277 C1278 1.523 . S
C1278 C1259 1.368 . S
C1278 C1272 1.368 . S
C1278 C1277 1.523 . S
C1279 C1263 1.429 . S
C1279 C1275 1.429 . S
C1279 C1280 1.523 . S
C1280 C1264 1.368 . S
C1280 C1276 1.368 . S
C1280 C1279 1.523 . S
H1281 C1256 0.950 . S
H1282 C1258 0.950 . S
H1283 C1259 0.949 . S
H1284 C1261 0.950 . S
H1285 C1263 0.950 . S
C1286 C1287 1.349 . S
C1286 C1288 1.327 . S
C1286 H1311 0.950 . S
C1287 C1286 1.349 . S
C1287 C1303 1.349 . S
C1288 C1286 1.327 . S
C1288 C1307 1.429 . S
C1288 H1312 0.950 . S
C1289 C1306 1.574 . S
C1289 C1308 1.368 . S
C1289 H1313 0.949 . S
H1290 C1294 0.949 . S
C1291 C1292 1.349 . S
C1291 C1293 1.327 . S
C1291 H1314 0.950 . S
C1292 C1291 1.349 . S
C1292 C1304 1.349 . S
C1293 C1291 1.327 . S
C1293 C1309 1.429 . S
C1293 H1315 0.950 . S
C1294 H1290 0.949 . S
C1294 C1302 1.574 . S
C1294 C1310 1.368 . S
H1295 C1303 0.950 . S
H1296 C1301 0.950 . S
H1297 C1302 0.949 . S
H1298 C1304 0.950 . S
H1299 C1305 0.950 . S
H1300 C1306 0.949 . S
C1301 H1296 0.950 . S
C1301 C1303 1.327 . S
C1301 C1307 1.429 . S
C1302 C1294 1.574 . S
C1302 H1297 0.949 . S
C1302 C1308 1.368 . S
C1303 C1287 1.349 . S
C1303 H1295 0.950 . S
C1303 C1301 1.327 . S
C1304 C1292 1.349 . S
C1304 H1298 0.950 . S
C1304 C1305 1.327 . S
C1305 H1299 0.950 . S
C1305 C1304 1.327 . S
C1305 C1309 1.429 . S
C1306 C1289 1.574 . S
C1306 H1300 0.949 . S
C1306 C1310 1.368 . S
C1307 C1288 1.429 . S
C1307 C1301 1.429 . S
C1307 C1308 1.523 . S
C1308 C1289 1.368 . S
C1308 C1302 1.368 . S
C1308 C1307 1.523 . S
C1309 C1293 1.429 . S
C1309 C1305 1.429 . S
C1309 C1310 1.523 . S
C1310 C1294 1.368 . S
C1310 C1306 1.368 . S
C1310 C1309 1.523 . S
H1311 C1286 0.950 . S
H1312 C1288 0.950 . S
H1313 C1289 0.949 . S
H1314 C1291 0.950 . S
H1315 C1293 0.950 . S
C1316 C1317 1.349 . S
C1316 C1318 1.327 . S
C1316 H1341 0.950 . S
C1317 C1316 1.349 . S
C1317 C1333 1.349 . S
C1318 C1316 1.327 . S
C1318 C1337 1.429 . S
C1318 H1342 0.950 . S
C1319 C1336 1.574 . S
C1319 C1338 1.368 . S
C1319 H1343 0.949 . S
H1320 C1324 0.949 . S
C1321 C1322 1.349 . S
C1321 C1323 1.327 . S
C1321 H1344 0.950 . S
C1322 C1321 1.349 . S
C1322 C1334 1.349 . S
C1323 C1321 1.327 . S
C1323 C1339 1.429 . S
C1323 H1345 0.950 . S
C1324 H1320 0.949 . S
C1324 C1332 1.574 . S
C1324 C1340 1.368 . S
H1325 C1333 0.950 . S
H1326 C1331 0.950 . S
H1327 C1332 0.949 . S
H1328 C1334 0.950 . S
H1329 C1335 0.950 . S
H1330 C1336 0.949 . S
C1331 H1326 0.950 . S
C1331 C1333 1.327 . S
C1331 C1337 1.429 . S
C1332 C1324 1.574 . S
C1332 H1327 0.949 . S
C1332 C1338 1.368 . S
C1333 C1317 1.349 . S
C1333 H1325 0.950 . S
C1333 C1331 1.327 . S
C1334 C1322 1.349 . S
C1334 H1328 0.950 . S
C1334 C1335 1.327 . S
C1335 H1329 0.950 . S
C1335 C1334 1.327 . S
C1335 C1339 1.429 . S
C1336 C1319 1.574 . S
C1336 H1330 0.949 . S
C1336 C1340 1.368 . S
C1337 C1318 1.429 . S
C1337 C1331 1.429 . S
C1337 C1338 1.523 . S
C1338 C1319 1.368 . S
C1338 C1332 1.368 . S
C1338 C1337 1.523 . S
C1339 C1323 1.429 . S
C1339 C1335 1.429 . S
C1339 C1340 1.523 . S
C1340 C1324 1.368 . S
C1340 C1336 1.368 . S
C1340 C1339 1.523 . S
H1341 C1316 0.950 . S
H1342 C1318 0.950 . S
H1343 C1319 0.949 . S
H1344 C1321 0.950 . S
H1345 C1323 0.950 . S
C1346 C1347 1.349 . S
C1346 C1348 1.327 . S
C1346 H1371 0.950 . S
C1347 C1346 1.349 . S
C1347 C1363 1.349 . S
C1348 C1346 1.327 . S
C1348 C1367 1.429 . S
C1348 H1372 0.950 . S
C1349 C1366 1.574 . S
C1349 C1368 1.368 . S
C1349 H1373 0.949 . S
H1350 C1354 0.949 . S
C1351 C1352 1.349 . S
C1351 C1353 1.370 . S
C1351 H1374 0.950 . S
C1352 C1351 1.349 . S
C1352 C1364 1.319 1_655 S
C1353 C1351 1.370 . S
C1353 C1369 1.384 1_655 S
C1353 H1375 0.954 . S
C1354 H1350 0.949 . S
C1354 C1362 1.574 . S
C1354 C1370 1.368 . S
H1355 C1363 0.950 . S
H1356 C1361 0.950 . S
H1357 C1362 0.949 . S
H1358 C1364 0.950 . S
H1359 C1365 0.950 . S
H1360 C1366 0.949 . S
C1361 H1356 0.950 . S
C1361 C1363 1.327 . S
C1361 C1367 1.429 . S
C1362 C1354 1.574 . S
C1362 H1357 0.949 . S
C1362 C1368 1.368 . S
C1363 C1347 1.349 . S
C1363 H1355 0.950 . S
C1363 C1361 1.327 . S
C1364 C1352 1.319 1_455 S
C1364 H1358 0.950 . S
C1364 C1365 1.357 . S
C1365 H1359 0.950 . S
C1365 C1364 1.357 . S
C1365 C1369 1.429 . S
C1366 C1349 1.574 . S
C1366 H1360 0.949 . S
C1366 C1370 1.368 . S
C1367 C1348 1.429 . S
C1367 C1361 1.429 . S
C1367 C1368 1.523 . S
C1368 C1349 1.368 . S
C1368 C1362 1.368 . S
C1368 C1367 1.523 . S
C1369 C1353 1.384 1_455 S
C1369 C1365 1.429 . S
C1369 C1370 1.523 . S
C1370 C1354 1.368 . S
C1370 C1366 1.368 . S
C1370 C1369 1.523 . S
H1371 C1346 0.950 . S
H1372 C1348 0.950 . S
H1373 C1349 0.949 . S
H1374 C1351 0.950 . S
H1375 C1353 0.954 . S
C1376 C1377 1.349 . S
C1376 C1378 1.327 . S
C1376 H1401 0.950 . S
C1377 C1376 1.349 . S
C1377 C1393 1.349 . S
C1378 C1376 1.327 . S
C1378 C1397 1.429 . S
C1378 H1402 0.950 . S
C1379 C1396 1.574 . S
C1379 C1398 1.368 . S
C1379 H1403 0.949 . S
H1380 C1384 0.949 . S
C1381 C1382 1.349 . S
C1381 C1383 1.327 . S
C1381 H1404 0.950 . S
C1382 C1381 1.349 . S
C1382 C1394 1.349 . S
C1383 C1381 1.327 . S
C1383 C1399 1.429 . S
C1383 H1405 0.950 . S
C1384 H1380 0.949 . S
C1384 C1392 1.574 . S
C1384 C1400 1.368 . S
H1385 C1393 0.950 . S
H1386 C1391 0.950 . S
H1387 C1392 0.949 . S
H1388 C1394 0.950 . S
H1389 C1395 0.950 . S
H1390 C1396 0.949 . S
C1391 H1386 0.950 . S
C1391 C1393 1.327 . S
C1391 C1397 1.429 . S
C1392 C1384 1.574 . S
C1392 H1387 0.949 . S
C1392 C1398 1.368 . S
C1393 C1377 1.349 . S
C1393 H1385 0.950 . S
C1393 C1391 1.327 . S
C1394 C1382 1.349 . S
C1394 H1388 0.950 . S
C1394 C1395 1.327 . S
C1395 H1389 0.950 . S
C1395 C1394 1.327 . S
C1395 C1399 1.429 . S
C1396 C1379 1.574 . S
C1396 H1390 0.949 . S
C1396 C1400 1.368 . S
C1397 C1378 1.429 . S
C1397 C1391 1.429 . S
C1397 C1398 1.523 . S
C1398 C1379 1.368 . S
C1398 C1392 1.368 . S
C1398 C1397 1.523 . S
C1399 C1383 1.429 . S
C1399 C1395 1.429 . S
C1399 C1400 1.523 . S
C1400 C1384 1.368 . S
C1400 C1396 1.368 . S
C1400 C1399 1.523 . S
H1401 C1376 0.950 . S
H1402 C1378 0.950 . S
H1403 C1379 0.949 . S
H1404 C1381 0.950 . S
H1405 C1383 0.950 . S
C1406 C1407 1.349 . S
C1406 C1408 1.327 . S
C1406 H1431 0.950 . S
C1407 C1406 1.349 . S
C1407 C1423 1.349 . S
C1408 C1406 1.327 . S
C1408 C1427 1.429 . S
C1408 H1432 0.950 . S
C1409 C1426 1.574 . S
C1409 C1428 1.368 . S
C1409 H1433 0.949 . S
H1410 C1414 0.949 . S
C1411 C1412 1.349 . S
C1411 C1413 1.327 . S
C1411 H1434 0.950 . S
C1412 C1411 1.349 . S
C1412 C1424 1.349 . S
C1413 C1411 1.327 . S
C1413 C1429 1.429 . S
C1413 H1435 0.950 . S
C1414 H1410 0.949 . S
C1414 C1422 1.574 . S
C1414 C1430 1.368 . S
H1415 C1423 0.950 . S
H1416 C1421 0.950 . S
H1417 C1422 0.949 . S
H1418 C1424 0.950 . S
H1419 C1425 0.950 . S
H1420 C1426 0.949 . S
C1421 H1416 0.950 . S
C1421 C1423 1.327 . S
C1421 C1427 1.429 . S
C1422 C1414 1.574 . S
C1422 H1417 0.949 . S
C1422 C1428 1.368 . S
C1423 C1407 1.349 . S
C1423 H1415 0.950 . S
C1423 C1421 1.327 . S
C1424 C1412 1.349 . S
C1424 H1418 0.950 . S
C1424 C1425 1.327 . S
C1425 H1419 0.950 . S
C1425 C1424 1.327 . S
C1425 C1429 1.429 . S
C1426 C1409 1.574 . S
C1426 H1420 0.949 . S
C1426 C1430 1.368 . S
C1427 C1408 1.429 . S
C1427 C1421 1.429 . S
C1427 C1428 1.523 . S
C1428 C1409 1.368 . S
C1428 C1422 1.368 . S
C1428 C1427 1.523 . S
C1429 C1413 1.429 . S
C1429 C1425 1.429 . S
C1429 C1430 1.523 . S
C1430 C1414 1.368 . S
C1430 C1426 1.368 . S
C1430 C1429 1.523 . S
H1431 C1406 0.950 . S
H1432 C1408 0.950 . S
H1433 C1409 0.949 . S
H1434 C1411 0.950 . S
H1435 C1413 0.950 . S
C1436 C1437 1.349 . S
C1436 C1438 1.327 . S
C1436 H1461 0.950 . S
C1437 C1436 1.349 . S
C1437 C1453 1.349 . S
C1438 C1436 1.327 . S
C1438 C1457 1.429 . S
C1438 H1462 0.950 . S
C1439 C1456 1.574 . S
C1439 C1458 1.368 . S
C1439 H1463 0.949 . S
H1440 C1444 0.949 . S
C1441 C1442 1.349 . S
C1441 C1443 1.327 . S
C1441 H1464 0.950 . S
C1442 C1441 1.349 . S
C1442 C1454 1.349 . S
C1443 C1441 1.327 . S
C1443 C1459 1.429 . S
C1443 H1465 0.950 . S
C1444 H1440 0.949 . S
C1444 C1452 1.574 . S
C1444 C1460 1.368 . S
H1445 C1453 0.950 . S
H1446 C1451 0.950 . S
H1447 C1452 0.949 . S
H1448 C1454 0.950 . S
H1449 C1455 0.950 . S
H1450 C1456 0.949 . S
C1451 H1446 0.950 . S
C1451 C1453 1.327 . S
C1451 C1457 1.429 . S
C1452 C1444 1.574 . S
C1452 H1447 0.949 . S
C1452 C1458 1.368 . S
C1453 C1437 1.349 . S
C1453 H1445 0.950 . S
C1453 C1451 1.327 . S
C1454 C1442 1.349 . S
C1454 H1448 0.950 . S
C1454 C1455 1.327 . S
C1455 H1449 0.950 . S
C1455 C1454 1.327 . S
C1455 C1459 1.429 . S
C1456 C1439 1.574 . S
C1456 H1450 0.949 . S
C1456 C1460 1.368 . S
C1457 C1438 1.429 . S
C1457 C1451 1.429 . S
C1457 C1458 1.523 . S
C1458 C1439 1.368 . S
C1458 C1452 1.368 . S
C1458 C1457 1.523 . S
C1459 C1443 1.429 . S
C1459 C1455 1.429 . S
C1459 C1460 1.523 . S
C1460 C1444 1.368 . S
C1460 C1456 1.368 . S
C1460 C1459 1.523 . S
H1461 C1436 0.950 . S
H1462 C1438 0.950 . S
H1463 C1439 0.949 . S
H1464 C1441 0.950 . S
H1465 C1443 0.950 . S
C1466 C1467 1.349 . S
C1466 C1468 1.327 . S
C1466 H1491 0.950 . S
C1467 C1466 1.349 . S
C1467 C1483 1.349 . S
C1468 C1466 1.327 . S
C1468 C1487 1.429 . S
C1468 H1492 0.950 . S
C1469 C1486 1.574 . S
C1469 C1488 1.368 . S
C1469 H1493 0.949 . S
H1470 C1474 0.949 . S
C1471 C1472 1.349 . S
C1471 C1473 1.315 1_655 S
C1471 H1494 0.950 . S
C1472 C1471 1.349 . S
C1472 C1484 1.372 . S
C1473 C1471 1.315 1_455 S
C1473 C1489 1.440 . S
C1473 H1495 0.950 . S
C1474 H1470 0.949 . S
C1474 C1482 1.574 . S
C1474 C1490 1.368 . S
H1475 C1483 0.950 . S
H1476 C1481 0.950 . S
H1477 C1482 0.949 . S
H1478 C1484 0.951 . S
H1479 C1485 0.950 . S
H1480 C1486 0.949 . S
C1481 H1476 0.950 . S
C1481 C1483 1.327 . S
C1481 C1487 1.429 . S
C1482 C1474 1.574 . S
C1482 H1477 0.949 . S
C1482 C1488 1.368 . S
C1483 C1467 1.349 . S
C1483 H1475 0.950 . S
C1483 C1481 1.327 . S
C1484 C1472 1.372 . S
C1484 H1478 0.951 . S
C1484 C1485 1.303 1_655 S
C1485 H1479 0.950 . S
C1485 C1484 1.303 1_455 S
C1485 C1489 1.429 . S
C1486 C1469 1.574 . S
C1486 H1480 0.949 . S
C1486 C1490 1.368 . S
C1487 C1468 1.429 . S
C1487 C1481 1.429 . S
C1487 C1488 1.523 . S
C1488 C1469 1.368 . S
C1488 C1482 1.368 . S
C1488 C1487 1.523 . S
C1489 C1473 1.440 . S
C1489 C1485 1.429 . S
C1489 C1490 1.523 . S
C1490 C1474 1.368 . S
C1490 C1486 1.368 . S
C1490 C1489 1.523 . S
H1491 C1466 0.950 . S
H1492 C1468 0.950 . S
H1493 C1469 0.949 . S
H1494 C1471 0.950 . S
H1495 C1473 0.950 . S
C1496 C1497 1.349 . S
C1496 C1498 1.327 . S
C1496 H1521 0.950 . S
C1497 C1496 1.349 . S
C1497 C1513 1.349 . S
C1498 C1496 1.327 . S
C1498 C1517 1.429 . S
C1498 H1522 0.950 . S
C1499 C1516 1.574 . S
C1499 C1518 1.368 . S
C1499 H1523 0.949 . S
H1500 C1504 0.949 . S
C1501 C1502 1.349 . S
C1501 C1503 1.327 . S
C1501 H1524 0.950 . S
C1502 C1501 1.349 . S
C1502 C1514 1.349 . S
C1503 C1501 1.327 . S
C1503 C1519 1.429 . S
C1503 H1525 0.950 . S
C1504 H1500 0.949 . S
C1504 C1512 1.574 . S
C1504 C1520 1.368 . S
H1505 C1513 0.950 . S
H1506 C1511 0.950 . S
H1507 C1512 0.949 . S
H1508 C1514 0.950 . S
H1509 C1515 0.950 . S
H1510 C1516 0.949 . S
C1511 H1506 0.950 . S
C1511 C1513 1.327 . S
C1511 C1517 1.429 . S
C1512 C1504 1.574 . S
C1512 H1507 0.949 . S
C1512 C1518 1.368 . S
C1513 C1497 1.349 . S
C1513 H1505 0.950 . S
C1513 C1511 1.327 . S
C1514 C1502 1.349 . S
C1514 H1508 0.950 . S
C1514 C1515 1.327 . S
C1515 H1509 0.950 . S
C1515 C1514 1.327 . S
C1515 C1519 1.429 . S
C1516 C1499 1.574 . S
C1516 H1510 0.949 . S
C1516 C1520 1.368 . S
C1517 C1498 1.429 . S
C1517 C1511 1.429 . S
C1517 C1518 1.523 . S
C1518 C1499 1.368 . S
C1518 C1512 1.368 . S
C1518 C1517 1.523 . S
C1519 C1503 1.429 . S
C1519 C1515 1.429 . S
C1519 C1520 1.523 . S
C1520 C1504 1.368 . S
C1520 C1516 1.368 . S
C1520 C1519 1.523 . S
H1521 C1496 0.950 . S
H1522 C1498 0.950 . S
H1523 C1499 0.949 . S
H1524 C1501 0.950 . S
H1525 C1503 0.950 . S
C1526 C1527 1.349 . S
C1526 C1528 1.327 1_655 S
C1526 H1551 0.950 . S
C1527 C1526 1.349 . S
C1527 C1543 1.349 . S
C1528 C1526 1.327 1_455 S
C1528 C1547 1.429 . S
C1528 H1552 0.950 . S
C1529 C1546 1.574 . S
C1529 C1548 1.368 . S
C1529 H1553 0.949 . S
H1530 C1534 0.949 . S
C1531 C1532 1.349 . S
C1531 C1533 1.327 . S
C1531 H1554 0.950 . S
C1532 C1531 1.349 . S
C1532 C1544 1.349 . S
C1533 C1531 1.327 . S
C1533 C1549 1.429 . S
C1533 H1555 0.950 . S
C1534 H1530 0.949 . S
C1534 C1542 1.574 . S
C1534 C1550 1.368 . S
H1535 C1543 0.950 . S
H1536 C1541 0.950 . S
H1537 C1542 0.949 . S
H1538 C1544 0.950 . S
H1539 C1545 0.950 . S
H1540 C1546 0.949 . S
C1541 H1536 0.950 . S
C1541 C1543 1.327 1_455 S
C1541 C1547 1.429 . S
C1542 C1534 1.574 . S
C1542 H1537 0.949 . S
C1542 C1548 1.368 . S
C1543 C1527 1.349 . S
C1543 H1535 0.950 . S
C1543 C1541 1.327 1_655 S
C1544 C1532 1.349 . S
C1544 H1538 0.950 . S
C1544 C1545 1.327 . S
C1545 H1539 0.950 . S
C1545 C1544 1.327 . S
C1545 C1549 1.429 . S
C1546 C1529 1.574 . S
C1546 H1540 0.949 . S
C1546 C1550 1.368 . S
C1547 C1528 1.429 . S
C1547 C1541 1.429 . S
C1547 C1548 1.523 . S
C1548 C1529 1.368 . S
C1548 C1542 1.368 . S
C1548 C1547 1.523 . S
C1549 C1533 1.429 . S
C1549 C1545 1.429 . S
C1549 C1550 1.523 . S
C1550 C1534 1.368 . S
C1550 C1546 1.368 . S
C1550 C1549 1.523 . S
H1551 C1526 0.950 . S
H1552 C1528 0.950 . S
H1553 C1529 0.949 . S
H1554 C1531 0.950 . S
H1555 C1533 0.950 . S
C1556 C1557 1.349 . S
C1556 C1558 1.327 . S
C1556 H1581 0.950 . S
C1557 C1556 1.349 . S
C1557 C1573 1.349 . S
C1558 C1556 1.327 . S
C1558 C1577 1.429 . S
C1558 H1582 0.950 . S
C1559 C1576 1.574 . S
C1559 C1578 1.368 . S
C1559 H1583 0.949 . S
H1560 C1564 0.949 . S
C1561 C1562 1.349 . S
C1561 C1563 1.327 . S
C1561 H1584 0.950 . S
C1562 C1561 1.349 . S
C1562 C1574 1.349 . S
C1563 C1561 1.327 . S
C1563 C1579 1.429 . S
C1563 H1585 0.950 . S
C1564 H1560 0.949 . S
C1564 C1572 1.574 . S
C1564 C1580 1.368 . S
H1565 C1573 0.950 . S
H1566 C1571 0.950 . S
H1567 C1572 0.949 . S
H1568 C1574 0.950 . S
H1569 C1575 0.950 . S
H1570 C1576 0.949 . S
C1571 H1566 0.950 . S
C1571 C1573 1.327 . S
C1571 C1577 1.429 . S
C1572 C1564 1.574 . S
C1572 H1567 0.949 . S
C1572 C1578 1.368 . S
C1573 C1557 1.349 . S
C1573 H1565 0.950 . S
C1573 C1571 1.327 . S
C1574 C1562 1.349 . S
C1574 H1568 0.950 . S
C1574 C1575 1.327 . S
C1575 H1569 0.950 . S
C1575 C1574 1.327 . S
C1575 C1579 1.429 . S
C1576 C1559 1.574 . S
C1576 H1570 0.949 . S
C1576 C1580 1.368 . S
C1577 C1558 1.429 . S
C1577 C1571 1.429 . S
C1577 C1578 1.523 . S
C1578 C1559 1.368 . S
C1578 C1572 1.368 . S
C1578 C1577 1.523 . S
C1579 C1563 1.429 . S
C1579 C1575 1.429 . S
C1579 C1580 1.523 . S
C1580 C1564 1.368 . S
C1580 C1576 1.368 . S
C1580 C1579 1.523 . S
H1581 C1556 0.950 . S
H1582 C1558 0.950 . S
H1583 C1559 0.949 . S
H1584 C1561 0.950 . S
H1585 C1563 0.950 . S
C1586 C1587 1.349 . S
C1586 C1588 1.327 . S
C1586 H1611 0.950 . S
C1587 C1586 1.349 . S
C1587 C1603 1.349 . S
C1588 C1586 1.327 . S
C1588 C1607 1.429 . S
C1588 H1612 0.950 . S
C1589 C1606 1.574 . S
C1589 C1608 1.368 . S
C1589 H1613 0.949 . S
H1590 C1594 0.949 . S
C1591 C1592 1.349 . S
C1591 C1593 1.327 . S
C1591 H1614 0.950 . S
C1592 C1591 1.349 . S
C1592 C1604 1.349 . S
C1593 C1591 1.327 . S
C1593 C1609 1.429 . S
C1593 H1615 0.950 . S
C1594 H1590 0.949 . S
C1594 C1602 1.574 . S
C1594 C1610 1.368 . S
H1595 C1603 0.950 . S
H1596 C1601 0.950 . S
H1597 C1602 0.949 . S
H1598 C1604 0.950 . S
H1599 C1605 0.950 . S
H1600 C1606 0.949 . S
C1601 H1596 0.950 . S
C1601 C1603 1.327 . S
C1601 C1607 1.429 . S
C1602 C1594 1.574 . S
C1602 H1597 0.949 . S
C1602 C1608 1.368 . S
C1603 C1587 1.349 . S
C1603 H1595 0.950 . S
C1603 C1601 1.327 . S
C1604 C1592 1.349 . S
C1604 H1598 0.950 . S
C1604 C1605 1.327 . S
C1605 H1599 0.950 . S
C1605 C1604 1.327 . S
C1605 C1609 1.429 . S
C1606 C1589 1.574 . S
C1606 H1600 0.949 . S
C1606 C1610 1.368 . S
C1607 C1588 1.429 . S
C1607 C1601 1.429 . S
C1607 C1608 1.523 . S
C1608 C1589 1.368 . S
C1608 C1602 1.368 . S
C1608 C1607 1.523 . S
C1609 C1593 1.429 . S
C1609 C1605 1.429 . S
C1609 C1610 1.523 . S
C1610 C1594 1.368 . S
C1610 C1606 1.368 . S
C1610 C1609 1.523 . S
H1611 C1586 0.950 . S
H1612 C1588 0.950 . S
H1613 C1589 0.949 . S
H1614 C1591 0.950 . S
H1615 C1593 0.950 . S
C1616 C1617 1.349 . S
C1616 C1618 1.327 . S
C1616 H1641 0.950 . S
C1617 C1616 1.349 . S
C1617 C1633 1.349 . S
C1618 C1616 1.327 . S
C1618 C1637 1.429 . S
C1618 H1642 0.950 . S
C1619 C1636 1.574 . S
C1619 C1638 1.368 . S
C1619 H1643 0.949 . S
H1620 C1624 0.949 . S
C1621 C1622 1.349 . S
C1621 C1623 1.327 . S
C1621 H1644 0.950 . S
C1622 C1621 1.349 . S
C1622 C1634 1.349 . S
C1623 C1621 1.327 . S
C1623 C1639 1.429 . S
C1623 H1645 0.950 . S
C1624 H1620 0.949 . S
C1624 C1632 1.574 . S
C1624 C1640 1.368 . S
H1625 C1633 0.950 . S
H1626 C1631 0.950 . S
H1627 C1632 0.949 . S
H1628 C1634 0.950 . S
H1629 C1635 0.950 . S
H1630 C1636 0.949 . S
C1631 H1626 0.950 . S
C1631 C1633 1.327 . S
C1631 C1637 1.429 . S
C1632 C1624 1.574 . S
C1632 H1627 0.949 . S
C1632 C1638 1.368 . S
C1633 C1617 1.349 . S
C1633 H1625 0.950 . S
C1633 C1631 1.327 . S
C1634 C1622 1.349 . S
C1634 H1628 0.950 . S
C1634 C1635 1.327 . S
C1635 H1629 0.950 . S
C1635 C1634 1.327 . S
C1635 C1639 1.429 . S
C1636 C1619 1.574 . S
C1636 H1630 0.949 . S
C1636 C1640 1.368 . S
C1637 C1618 1.429 . S
C1637 C1631 1.429 . S
C1637 C1638 1.523 . S
C1638 C1619 1.368 . S
C1638 C1632 1.368 . S
C1638 C1637 1.523 . S
C1639 C1623 1.429 . S
C1639 C1635 1.429 . S
C1639 C1640 1.523 . S
C1640 C1624 1.368 . S
C1640 C1636 1.368 . S
C1640 C1639 1.523 . S
H1641 C1616 0.950 . S
H1642 C1618 0.950 . S
H1643 C1619 0.949 . S
H1644 C1621 0.950 . S
H1645 C1623 0.950 . S
C1646 C1647 1.349 . S
C1646 C1648 1.327 . S
C1646 H1671 0.950 . S
C1647 C1646 1.349 . S
C1647 C1663 1.349 . S
C1648 C1646 1.327 . S
C1648 C1667 1.429 . S
C1648 H1672 0.950 . S
C1649 C1666 1.574 . S
C1649 C1668 1.368 . S
C1649 H1673 0.949 . S
H1650 C1654 0.949 . S
C1651 C1652 1.349 . S
C1651 C1653 1.327 . S
C1651 H1674 0.950 . S
C1652 C1651 1.349 . S
C1652 C1664 1.349 . S
C1653 C1651 1.327 . S
C1653 C1669 1.429 . S
C1653 H1675 0.950 . S
C1654 H1650 0.949 . S
C1654 C1662 1.574 . S
C1654 C1670 1.368 . S
H1655 C1663 0.950 . S
H1656 C1661 0.950 . S
H1657 C1662 0.949 . S
H1658 C1664 0.950 . S
H1659 C1665 0.950 . S
H1660 C1666 0.949 . S
C1661 H1656 0.950 . S
C1661 C1663 1.327 . S
C1661 C1667 1.429 . S
C1662 C1654 1.574 . S
C1662 H1657 0.949 . S
C1662 C1668 1.368 . S
C1663 C1647 1.349 . S
C1663 H1655 0.950 . S
C1663 C1661 1.327 . S
C1664 C1652 1.349 . S
C1664 H1658 0.950 . S
C1664 C1665 1.327 . S
C1665 H1659 0.950 . S
C1665 C1664 1.327 . S
C1665 C1669 1.429 . S
C1666 C1649 1.574 . S
C1666 H1660 0.949 . S
C1666 C1670 1.368 . S
C1667 C1648 1.429 . S
C1667 C1661 1.429 . S
C1667 C1668 1.523 . S
C1668 C1649 1.368 . S
C1668 C1662 1.368 . S
C1668 C1667 1.523 . S
C1669 C1653 1.429 . S
C1669 C1665 1.429 . S
C1669 C1670 1.523 . S
C1670 C1654 1.368 . S
C1670 C1666 1.368 . S
C1670 C1669 1.523 . S
H1671 C1646 0.950 . S
H1672 C1648 0.950 . S
H1673 C1649 0.949 . S
H1674 C1651 0.950 . S
H1675 C1653 0.950 . S
C1676 C1677 1.349 . S
C1676 C1678 1.327 . S
C1676 H1701 0.950 . S
C1677 C1676 1.349 . S
C1677 C1693 1.349 . S
C1678 C1676 1.327 . S
C1678 C1697 1.429 . S
C1678 H1702 0.950 . S
C1679 C1696 1.574 . S
C1679 C1698 1.368 . S
C1679 H1703 0.949 . S
H1680 C1684 0.949 . S
C1681 C1682 1.349 . S
C1681 C1683 1.327 . S
C1681 H1704 0.950 . S
C1682 C1681 1.349 . S
C1682 C1694 1.349 . S
C1683 C1681 1.327 . S
C1683 C1699 1.429 . S
C1683 H1705 0.950 . S
C1684 H1680 0.949 . S
C1684 C1692 1.574 . S
C1684 C1700 1.368 . S
H1685 C1693 0.950 . S
H1686 C1691 0.950 . S
H1687 C1692 0.949 . S
H1688 C1694 0.950 . S
H1689 C1695 0.950 . S
H1690 C1696 0.949 . S
C1691 H1686 0.950 . S
C1691 C1693 1.327 . S
C1691 C1697 1.429 . S
C1692 C1684 1.574 . S
C1692 H1687 0.949 . S
C1692 C1698 1.368 . S
C1693 C1677 1.349 . S
C1693 H1685 0.950 . S
C1693 C1691 1.327 . S
C1694 C1682 1.349 . S
C1694 H1688 0.950 . S
C1694 C1695 1.327 . S
C1695 H1689 0.950 . S
C1695 C1694 1.327 . S
C1695 C1699 1.429 . S
C1696 C1679 1.574 . S
C1696 H1690 0.949 . S
C1696 C1700 1.368 . S
C1697 C1678 1.429 . S
C1697 C1691 1.429 . S
C1697 C1698 1.523 . S
C1698 C1679 1.368 . S
C1698 C1692 1.368 . S
C1698 C1697 1.523 . S
C1699 C1683 1.429 . S
C1699 C1695 1.429 . S
C1699 C1700 1.523 . S
C1700 C1684 1.368 . S
C1700 C1696 1.368 . S
C1700 C1699 1.523 . S
H1701 C1676 0.950 . S
H1702 C1678 0.950 . S
H1703 C1679 0.949 . S
H1704 C1681 0.950 . S
H1705 C1683 0.950 . S
C1706 C1707 1.349 . S
C1706 C1708 1.327 . S
C1706 H1731 0.950 . S
C1707 C1706 1.349 . S
C1707 C1723 1.349 . S
C1708 C1706 1.327 . S
C1708 C1727 1.429 . S
C1708 H1732 0.950 . S
C1709 C1726 1.574 . S
C1709 C1728 1.368 . S
C1709 H1733 0.949 . S
H1710 C1714 0.949 . S
C1711 C1712 1.349 . S
C1711 C1713 1.327 1_455 S
C1711 H1734 0.950 . S
C1712 C1711 1.349 . S
C1712 C1724 1.349 . S
C1713 C1711 1.327 1_655 S
C1713 C1729 1.429 . S
C1713 H1735 0.950 . S
C1714 H1710 0.949 . S
C1714 C1722 1.574 . S
C1714 C1730 1.368 . S
H1715 C1723 0.950 . S
H1716 C1721 0.950 . S
H1717 C1722 0.949 . S
H1718 C1724 0.950 . S
H1719 C1725 0.950 . S
H1720 C1726 0.949 . S
C1721 H1716 0.950 . S
C1721 C1723 1.327 . S
C1721 C1727 1.429 . S
C1722 C1714 1.574 . S
C1722 H1717 0.949 . S
C1722 C1728 1.368 . S
C1723 C1707 1.349 . S
C1723 H1715 0.950 . S
C1723 C1721 1.327 . S
C1724 C1712 1.349 . S
C1724 H1718 0.950 . S
C1724 C1725 1.327 1_455 S
C1725 H1719 0.950 . S
C1725 C1724 1.327 1_655 S
C1725 C1729 1.429 . S
C1726 C1709 1.574 . S
C1726 H1720 0.949 . S
C1726 C1730 1.368 . S
C1727 C1708 1.429 . S
C1727 C1721 1.429 . S
C1727 C1728 1.523 . S
C1728 C1709 1.368 . S
C1728 C1722 1.368 . S
C1728 C1727 1.523 . S
C1729 C1713 1.429 . S
C1729 C1725 1.429 . S
C1729 C1730 1.523 . S
C1730 C1714 1.368 . S
C1730 C1726 1.368 . S
C1730 C1729 1.523 . S
H1731 C1706 0.950 . S
H1732 C1708 0.950 . S
H1733 C1709 0.949 . S
H1734 C1711 0.950 . S
H1735 C1713 0.950 . S
C1736 C1737 1.349 . S
C1736 C1738 1.327 . S
C1736 H1761 0.950 . S
C1737 C1736 1.349 . S
C1737 C1753 1.349 . S
C1738 C1736 1.327 . S
C1738 C1757 1.429 . S
C1738 H1762 0.950 . S
C1739 C1756 1.574 . S
C1739 C1758 1.368 . S
C1739 H1763 0.949 . S
H1740 C1744 0.949 . S
C1741 C1742 1.349 . S
C1741 C1743 1.327 . S
C1741 H1764 0.950 . S
C1742 C1741 1.349 . S
C1742 C1754 1.349 . S
C1743 C1741 1.327 . S
C1743 C1759 1.429 . S
C1743 H1765 0.950 . S
C1744 H1740 0.949 . S
C1744 C1752 1.574 . S
C1744 C1760 1.368 . S
H1745 C1753 0.950 . S
H1746 C1751 0.950 . S
H1747 C1752 0.949 . S
H1748 C1754 0.950 . S
H1749 C1755 0.950 . S
H1750 C1756 0.949 . S
C1751 H1746 0.950 . S
C1751 C1753 1.327 . S
C1751 C1757 1.429 . S
C1752 C1744 1.574 . S
C1752 H1747 0.949 . S
C1752 C1758 1.368 . S
C1753 C1737 1.349 . S
C1753 H1745 0.950 . S
C1753 C1751 1.327 . S
C1754 C1742 1.349 . S
C1754 H1748 0.950 . S
C1754 C1755 1.327 . S
C1755 H1749 0.950 . S
C1755 C1754 1.327 . S
C1755 C1759 1.429 . S
C1756 C1739 1.574 . S
C1756 H1750 0.949 . S
C1756 C1760 1.368 . S
C1757 C1738 1.429 . S
C1757 C1751 1.429 . S
C1757 C1758 1.523 . S
C1758 C1739 1.368 . S
C1758 C1752 1.368 . S
C1758 C1757 1.523 . S
C1759 C1743 1.429 . S
C1759 C1755 1.429 . S
C1759 C1760 1.523 . S
C1760 C1744 1.368 . S
C1760 C1756 1.368 . S
C1760 C1759 1.523 . S
H1761 C1736 0.950 . S
H1762 C1738 0.950 . S
H1763 C1739 0.949 . S
H1764 C1741 0.950 . S
H1765 C1743 0.950 . S
C1766 C1767 1.349 . S
C1766 C1768 1.327 1_455 S
C1766 H1791 0.950 . S
C1767 C1766 1.349 . S
C1767 C1783 1.349 . S
C1768 C1766 1.327 1_655 S
C1768 C1787 1.429 . S
C1768 H1792 0.950 . S
C1769 C1786 1.574 . S
C1769 C1788 1.368 . S
C1769 H1793 0.949 . S
H1770 C1774 0.949 . S
C1771 C1772 1.349 . S
C1771 C1773 1.327 . S
C1771 H1794 0.950 . S
C1772 C1771 1.349 . S
C1772 C1784 1.349 . S
C1773 C1771 1.327 . S
C1773 C1789 1.429 . S
C1773 H1795 0.950 . S
C1774 H1770 0.949 . S
C1774 C1782 1.574 . S
C1774 C1790 1.368 . S
H1775 C1783 0.950 . S
H1776 C1781 0.950 . S
H1777 C1782 0.949 . S
H1778 C1784 0.950 . S
H1779 C1785 0.950 . S
H1780 C1786 0.949 . S
C1781 H1776 0.950 . S
C1781 C1783 1.327 1_655 S
C1781 C1787 1.429 . S
C1782 C1774 1.574 . S
C1782 H1777 0.949 . S
C1782 C1788 1.368 . S
C1783 C1767 1.349 . S
C1783 H1775 0.950 . S
C1783 C1781 1.327 1_455 S
C1784 C1772 1.349 . S
C1784 H1778 0.950 . S
C1784 C1785 1.327 . S
C1785 H1779 0.950 . S
C1785 C1784 1.327 . S
C1785 C1789 1.429 . S
C1786 C1769 1.574 . S
C1786 H1780 0.949 . S
C1786 C1790 1.368 . S
C1787 C1768 1.429 . S
C1787 C1781 1.429 . S
C1787 C1788 1.523 . S
C1788 C1769 1.368 . S
C1788 C1782 1.368 . S
C1788 C1787 1.523 . S
C1789 C1773 1.429 . S
C1789 C1785 1.429 . S
C1789 C1790 1.523 . S
C1790 C1774 1.368 . S
C1790 C1786 1.368 . S
C1790 C1789 1.523 . S
H1791 C1766 0.950 . S
H1792 C1768 0.950 . S
H1793 C1769 0.949 . S
H1794 C1771 0.950 . S
H1795 C1773 0.950 . S
C1796 C1797 1.349 . S
C1796 C1798 1.327 . S
C1796 H1821 0.950 . S
C1797 C1796 1.349 . S
C1797 C1813 1.349 . S
C1798 C1796 1.327 . S
C1798 C1817 1.429 . S
C1798 H1822 0.950 . S
C1799 C1816 1.574 . S
C1799 C1818 1.368 . S
C1799 H1823 0.949 . S
H1800 C1804 0.949 . S
C1801 C1802 1.349 . S
C1801 C1803 1.327 . S
C1801 H1824 0.950 . S
C1802 C1801 1.349 . S
C1802 C1814 1.349 . S
C1803 C1801 1.327 . S
C1803 C1819 1.429 . S
C1803 H1825 0.950 . S
C1804 H1800 0.949 . S
C1804 C1812 1.574 . S
C1804 C1820 1.368 . S
H1805 C1813 0.950 . S
H1806 C1811 0.950 . S
H1807 C1812 0.949 . S
H1808 C1814 0.950 . S
H1809 C1815 0.950 . S
H1810 C1816 0.949 . S
C1811 H1806 0.950 . S
C1811 C1813 1.327 . S
C1811 C1817 1.429 . S
C1812 C1804 1.574 . S
C1812 H1807 0.949 . S
C1812 C1818 1.368 . S
C1813 C1797 1.349 . S
C1813 H1805 0.950 . S
C1813 C1811 1.327 . S
C1814 C1802 1.349 . S
C1814 H1808 0.950 . S
C1814 C1815 1.327 . S
C1815 H1809 0.950 . S
C1815 C1814 1.327 . S
C1815 C1819 1.429 . S
C1816 C1799 1.574 . S
C1816 H1810 0.949 . S
C1816 C1820 1.368 . S
C1817 C1798 1.429 . S
C1817 C1811 1.429 . S
C1817 C1818 1.523 . S
C1818 C1799 1.368 . S
C1818 C1812 1.368 . S
C1818 C1817 1.523 . S
C1819 C1803 1.429 . S
C1819 C1815 1.429 . S
C1819 C1820 1.523 . S
C1820 C1804 1.368 . S
C1820 C1816 1.368 . S
C1820 C1819 1.523 . S
H1821 C1796 0.950 . S
H1822 C1798 0.950 . S
H1823 C1799 0.949 . S
H1824 C1801 0.950 . S
H1825 C1803 0.950 . S
C1826 C1827 1.349 . S
C1826 C1828 1.327 . S
C1826 H1851 0.950 . S
C1827 C1826 1.349 . S
C1827 C1843 1.349 . S
C1828 C1826 1.327 . S
C1828 C1847 1.429 . S
C1828 H1852 0.950 . S
C1829 C1846 1.574 . S
C1829 C1848 1.368 . S
C1829 H1853 0.949 . S
H1830 C1834 0.949 . S
C1831 C1832 1.349 . S
C1831 C1833 1.327 . S
C1831 H1854 0.950 . S
C1832 C1831 1.349 . S
C1832 C1844 1.349 . S
C1833 C1831 1.327 . S
C1833 C1849 1.429 . S
C1833 H1855 0.950 . S
C1834 H1830 0.949 . S
C1834 C1842 1.574 . S
C1834 C1850 1.368 . S
H1835 C1843 0.950 . S
H1836 C1841 0.950 . S
H1837 C1842 0.949 . S
H1838 C1844 0.950 . S
H1839 C1845 0.950 . S
H1840 C1846 0.949 . S
C1841 H1836 0.950 . S
C1841 C1843 1.327 . S
C1841 C1847 1.429 . S
C1842 C1834 1.574 . S
C1842 H1837 0.949 . S
C1842 C1848 1.368 . S
C1843 C1827 1.349 . S
C1843 H1835 0.950 . S
C1843 C1841 1.327 . S
C1844 C1832 1.349 . S
C1844 H1838 0.950 . S
C1844 C1845 1.327 . S
C1845 H1839 0.950 . S
C1845 C1844 1.327 . S
C1845 C1849 1.429 . S
C1846 C1829 1.574 . S
C1846 H1840 0.949 . S
C1846 C1850 1.368 . S
C1847 C1828 1.429 . S
C1847 C1841 1.429 . S
C1847 C1848 1.523 . S
C1848 C1829 1.368 . S
C1848 C1842 1.368 . S
C1848 C1847 1.523 . S
C1849 C1833 1.429 . S
C1849 C1845 1.429 . S
C1849 C1850 1.523 . S
C1850 C1834 1.368 . S
C1850 C1846 1.368 . S
C1850 C1849 1.523 . S
H1851 C1826 0.950 . S
H1852 C1828 0.950 . S
H1853 C1829 0.949 . S
H1854 C1831 0.950 . S
H1855 C1833 0.950 . S
C1856 C1857 1.349 . S
C1856 C1858 1.327 . S
C1856 H1881 0.950 . S
C1857 C1856 1.349 . S
C1857 C1873 1.349 . S
C1858 C1856 1.327 . S
C1858 C1877 1.429 . S
C1858 H1882 0.950 . S
C1859 C1876 1.574 . S
C1859 C1878 1.368 . S
C1859 H1883 0.949 . S
H1860 C1864 0.949 . S
C1861 C1862 1.349 . S
C1861 C1863 1.327 . S
C1861 H1884 0.950 . S
C1862 C1861 1.349 . S
C1862 C1874 1.349 . S
C1863 C1861 1.327 . S
C1863 C1879 1.429 . S
C1863 H1885 0.950 . S
C1864 H1860 0.949 . S
C1864 C1872 1.574 . S
C1864 C1880 1.368 . S
H1865 C1873 0.950 . S
H1866 C1871 0.950 . S
H1867 C1872 0.949 . S
H1868 C1874 0.950 . S
H1869 C1875 0.950 . S
H1870 C1876 0.949 . S
C1871 H1866 0.950 . S
C1871 C1873 1.327 . S
C1871 C1877 1.429 . S
C1872 C1864 1.574 . S
C1872 H1867 0.949 . S
C1872 C1878 1.368 . S
C1873 C1857 1.349 . S
C1873 H1865 0.950 . S
C1873 C1871 1.327 . S
C1874 C1862 1.349 . S
C1874 H1868 0.950 . S
C1874 C1875 1.327 . S
C1875 H1869 0.950 . S
C1875 C1874 1.327 . S
C1875 C1879 1.429 . S
C1876 C1859 1.574 . S
C1876 H1870 0.949 . S
C1876 C1880 1.368 . S
C1877 C1858 1.429 . S
C1877 C1871 1.429 . S
C1877 C1878 1.523 . S
C1878 C1859 1.368 . S
C1878 C1872 1.368 . S
C1878 C1877 1.523 . S
C1879 C1863 1.429 . S
C1879 C1875 1.429 . S
C1879 C1880 1.523 . S
C1880 C1864 1.368 . S
C1880 C1876 1.368 . S
C1880 C1879 1.523 . S
H1881 C1856 0.950 . S
H1882 C1858 0.950 . S
H1883 C1859 0.949 . S
H1884 C1861 0.950 . S
H1885 C1863 0.950 . S
C1886 C1887 1.349 . S
C1886 C1888 1.327 . S
C1886 H1911 0.950 . S
C1887 C1886 1.349 . S
C1887 C1903 1.349 . S
C1888 C1886 1.327 . S
C1888 C1907 1.429 . S
C1888 H1912 0.950 . S
C1889 C1906 1.574 . S
C1889 C1908 1.368 . S
C1889 H1913 0.949 . S
H1890 C1894 0.949 . S
C1891 C1892 1.349 . S
C1891 C1893 1.327 . S
C1891 H1914 0.950 . S
C1892 C1891 1.349 . S
C1892 C1904 1.349 . S
C1893 C1891 1.327 . S
C1893 C1909 1.429 . S
C1893 H1915 0.950 . S
C1894 H1890 0.949 . S
C1894 C1902 1.574 . S
C1894 C1910 1.368 . S
H1895 C1903 0.950 . S
H1896 C1901 0.950 . S
H1897 C1902 0.949 . S
H1898 C1904 0.950 . S
H1899 C1905 0.950 . S
H1900 C1906 0.949 . S
C1901 H1896 0.950 . S
C1901 C1903 1.327 . S
C1901 C1907 1.429 . S
C1902 C1894 1.574 . S
C1902 H1897 0.949 . S
C1902 C1908 1.368 . S
C1903 C1887 1.349 . S
C1903 H1895 0.950 . S
C1903 C1901 1.327 . S
C1904 C1892 1.349 . S
C1904 H1898 0.950 . S
C1904 C1905 1.327 . S
C1905 H1899 0.950 . S
C1905 C1904 1.327 . S
C1905 C1909 1.429 . S
C1906 C1889 1.574 . S
C1906 H1900 0.949 . S
C1906 C1910 1.368 . S
C1907 C1888 1.429 . S
C1907 C1901 1.429 . S
C1907 C1908 1.523 . S
C1908 C1889 1.368 . S
C1908 C1902 1.368 . S
C1908 C1907 1.523 . S
C1909 C1893 1.429 . S
C1909 C1905 1.429 . S
C1909 C1910 1.523 . S
C1910 C1894 1.368 . S
C1910 C1906 1.368 . S
C1910 C1909 1.523 . S
H1911 C1886 0.950 . S
H1912 C1888 0.950 . S
H1913 C1889 0.949 . S
H1914 C1891 0.950 . S
H1915 C1893 0.950 . S
C1916 C1917 1.349 . S
C1916 C1918 1.327 . S
C1916 H1941 0.950 . S
C1917 C1916 1.349 . S
C1917 C1933 1.349 . S
C1918 C1916 1.327 . S
C1918 C1937 1.429 . S
C1918 H1942 0.950 . S
C1919 C1936 1.574 . S
C1919 C1938 1.368 . S
C1919 H1943 0.949 . S
H1920 C1924 0.949 . S
C1921 C1922 1.349 . S
C1921 C1923 1.327 . S
C1921 H1944 0.950 . S
C1922 C1921 1.349 . S
C1922 C1934 1.349 . S
C1923 C1921 1.327 . S
C1923 C1939 1.429 . S
C1923 H1945 0.950 . S
C1924 H1920 0.949 . S
C1924 C1932 1.574 . S
C1924 C1940 1.368 . S
H1925 C1933 0.950 . S
H1926 C1931 0.950 . S
H1927 C1932 0.949 . S
H1928 C1934 0.950 . S
H1929 C1935 0.950 . S
H1930 C1936 0.949 . S
C1931 H1926 0.950 . S
C1931 C1933 1.327 . S
C1931 C1937 1.429 . S
C1932 C1924 1.574 . S
C1932 H1927 0.949 . S
C1932 C1938 1.368 . S
C1933 C1917 1.349 . S
C1933 H1925 0.950 . S
C1933 C1931 1.327 . S
C1934 C1922 1.349 . S
C1934 H1928 0.950 . S
C1934 C1935 1.327 . S
C1935 H1929 0.950 . S
C1935 C1934 1.327 . S
C1935 C1939 1.429 . S
C1936 C1919 1.574 . S
C1936 H1930 0.949 . S
C1936 C1940 1.368 . S
C1937 C1918 1.429 . S
C1937 C1931 1.429 . S
C1937 C1938 1.523 . S
C1938 C1919 1.368 . S
C1938 C1932 1.368 . S
C1938 C1937 1.523 . S
C1939 C1923 1.429 . S
C1939 C1935 1.429 . S
C1939 C1940 1.523 . S
C1940 C1924 1.368 . S
C1940 C1936 1.368 . S
C1940 C1939 1.523 . S
H1941 C1916 0.950 . S
H1942 C1918 0.950 . S
H1943 C1919 0.949 . S
H1944 C1921 0.950 . S
H1945 C1923 0.950 . S
C1946 C1947 1.349 . S
C1946 C1948 1.327 . S
C1946 H1971 0.950 . S
C1947 C1946 1.349 . S
C1947 C1963 1.349 . S
C1948 C1946 1.327 . S
C1948 C1967 1.429 . S
C1948 H1972 0.950 . S
C1949 C1966 1.574 . S
C1949 C1968 1.368 1_554 S
C1949 H1973 0.949 . S
H1950 C1954 0.949 . S
C1951 C1952 1.349 . S
C1951 C1953 1.327 . S
C1951 H1974 0.950 . S
C1952 C1951 1.349 . S
C1952 C1964 1.349 . S
C1953 C1951 1.327 . S
C1953 C1969 1.429 . S
C1953 H1975 0.950 . S
C1954 H1950 0.949 . S
C1954 C1962 1.574 . S
C1954 C1970 1.368 1_556 S
H1955 C1963 0.950 . S
H1956 C1961 0.950 1_554 S
H1957 C1962 0.949 . S
H1958 C1964 0.950 . S
H1959 C1965 0.950 1_556 S
H1960 C1966 0.949 . S
C1961 H1956 0.950 1_556 S
C1961 C1963 1.327 . S
C1961 C1967 1.429 . S
C1962 C1954 1.574 . S
C1962 H1957 0.949 . S
C1962 C1968 1.368 . S
C1963 C1947 1.349 . S
C1963 H1955 0.950 . S
C1963 C1961 1.327 . S
C1964 C1952 1.349 . S
C1964 H1958 0.950 . S
C1964 C1965 1.327 . S
C1965 H1959 0.950 1_554 S
C1965 C1964 1.327 . S
C1965 C1969 1.429 . S
C1966 C1949 1.574 . S
C1966 H1960 0.949 . S
C1966 C1970 1.368 . S
C1967 C1948 1.429 . S
C1967 C1961 1.429 . S
C1967 C1968 1.523 . S
C1968 C1949 1.368 1_556 S
C1968 C1962 1.368 . S
C1968 C1967 1.523 . S
C1969 C1953 1.429 . S
C1969 C1965 1.429 . S
C1969 C1970 1.523 . S
C1970 C1954 1.368 1_554 S
C1970 C1966 1.368 . S
C1970 C1969 1.523 . S
H1971 C1946 0.950 . S
H1972 C1948 0.950 . S
H1973 C1949 0.949 . S
H1974 C1951 0.950 . S
H1975 C1953 0.950 . S
C1976 C1977 1.349 . S
C1976 C1978 1.327 . S
C1976 H2001 0.950 . S
C1977 C1976 1.349 . S
C1977 C1993 1.349 . S
C1978 C1976 1.327 . S
C1978 C1997 1.429 . S
C1978 H2002 0.950 . S
C1979 C1996 1.574 . S
C1979 C1998 1.368 . S
C1979 H2003 0.949 . S
H1980 C1984 0.949 . S
C1981 C1982 1.349 . S
C1981 C1983 1.327 . S
C1981 H2004 0.950 . S
C1982 C1981 1.349 . S
C1982 C1994 1.349 . S
C1983 C1981 1.327 . S
C1983 C1999 1.429 . S
C1983 H2005 0.950 . S
C1984 H1980 0.949 . S
C1984 C1992 1.574 . S
C1984 C2000 1.368 . S
H1985 C1993 0.950 . S
H1986 C1991 0.950 . S
H1987 C1992 0.949 . S
H1988 C1994 0.950 . S
H1989 C1995 0.950 . S
H1990 C1996 0.949 . S
C1991 H1986 0.950 . S
C1991 C1993 1.327 . S
C1991 C1997 1.429 . S
C1992 C1984 1.574 . S
C1992 H1987 0.949 . S
C1992 C1998 1.368 . S
C1993 C1977 1.349 . S
C1993 H1985 0.950 . S
C1993 C1991 1.327 . S
C1994 C1982 1.349 . S
C1994 H1988 0.950 . S
C1994 C1995 1.327 . S
C1995 H1989 0.950 . S
C1995 C1994 1.327 . S
C1995 C1999 1.429 . S
C1996 C1979 1.574 . S
C1996 H1990 0.949 . S
C1996 C2000 1.368 . S
C1997 C1978 1.429 . S
C1997 C1991 1.429 . S
C1997 C1998 1.523 . S
C1998 C1979 1.368 . S
C1998 C1992 1.368 . S
C1998 C1997 1.523 . S
C1999 C1983 1.429 . S
C1999 C1995 1.429 . S
C1999 C2000 1.523 . S
C2000 C1984 1.368 . S
C2000 C1996 1.368 . S
C2000 C1999 1.523 . S
H2001 C1976 0.950 . S
H2002 C1978 0.950 . S
H2003 C1979 0.949 . S
H2004 C1981 0.950 . S
H2005 C1983 0.950 . S
C2006 C2007 1.349 . S
C2006 C2008 1.327 . S
C2006 H2031 0.950 . S
C2007 C2006 1.349 . S
C2007 C2023 1.349 . S
C2008 C2006 1.327 . S
C2008 C2027 1.429 . S
C2008 H2032 0.950 . S
C2009 C2026 1.574 . S
C2009 C2028 1.368 . S
C2009 H2033 0.949 . S
H2010 C2014 0.949 . S
C2011 C2012 1.349 . S
C2011 C2013 1.327 . S
C2011 H2034 0.950 . S
C2012 C2011 1.349 . S
C2012 C2024 1.349 . S
C2013 C2011 1.327 . S
C2013 C2029 1.429 . S
C2013 H2035 0.950 . S
C2014 H2010 0.949 . S
C2014 C2022 1.574 . S
C2014 C2030 1.368 . S
H2015 C2023 0.950 . S
H2016 C2021 0.950 . S
H2017 C2022 0.949 . S
H2018 C2024 0.950 . S
H2019 C2025 0.950 . S
H2020 C2026 0.949 . S
C2021 H2016 0.950 . S
C2021 C2023 1.327 . S
C2021 C2027 1.429 . S
C2022 C2014 1.574 . S
C2022 H2017 0.949 . S
C2022 C2028 1.368 . S
C2023 C2007 1.349 . S
C2023 H2015 0.950 . S
C2023 C2021 1.327 . S
C2024 C2012 1.349 . S
C2024 H2018 0.950 . S
C2024 C2025 1.327 . S
C2025 H2019 0.950 . S
C2025 C2024 1.327 . S
C2025 C2029 1.429 . S
C2026 C2009 1.574 . S
C2026 H2020 0.949 . S
C2026 C2030 1.368 . S
C2027 C2008 1.429 . S
C2027 C2021 1.429 . S
C2027 C2028 1.523 . S
C2028 C2009 1.368 . S
C2028 C2022 1.368 . S
C2028 C2027 1.523 . S
C2029 C2013 1.429 . S
C2029 C2025 1.429 . S
C2029 C2030 1.523 . S
C2030 C2014 1.368 . S
C2030 C2026 1.368 . S
C2030 C2029 1.523 . S
H2031 C2006 0.950 . S
H2032 C2008 0.950 . S
H2033 C2009 0.949 . S
H2034 C2011 0.950 . S
H2035 C2013 0.950 . S
C2036 C2037 1.349 . S
C2036 C2038 1.327 . S
C2036 H2061 0.950 . S
C2037 C2036 1.349 . S
C2037 C2053 1.349 . S
C2038 C2036 1.327 . S
C2038 C2057 1.429 . S
C2038 H2062 0.950 . S
C2039 C2056 1.574 . S
C2039 C2058 1.368 . S
C2039 H2063 0.949 . S
H2040 C2044 0.949 . S
C2041 C2042 1.349 . S
C2041 C2043 1.327 . S
C2041 H2064 0.950 . S
C2042 C2041 1.349 . S
C2042 C2054 1.349 . S
C2043 C2041 1.327 . S
C2043 C2059 1.429 . S
C2043 H2065 0.950 . S
C2044 H2040 0.949 . S
C2044 C2052 1.574 . S
C2044 C2060 1.368 . S
H2045 C2053 0.950 . S
H2046 C2051 0.950 . S
H2047 C2052 0.949 . S
H2048 C2054 0.950 . S
H2049 C2055 0.950 . S
H2050 C2056 0.949 . S
C2051 H2046 0.950 . S
C2051 C2053 1.327 . S
C2051 C2057 1.429 . S
C2052 C2044 1.574 . S
C2052 H2047 0.949 . S
C2052 C2058 1.368 . S
C2053 C2037 1.349 . S
C2053 H2045 0.950 . S
C2053 C2051 1.327 . S
C2054 C2042 1.349 . S
C2054 H2048 0.950 . S
C2054 C2055 1.327 . S
C2055 H2049 0.950 . S
C2055 C2054 1.327 . S
C2055 C2059 1.429 . S
C2056 C2039 1.574 . S
C2056 H2050 0.949 . S
C2056 C2060 1.368 . S
C2057 C2038 1.429 . S
C2057 C2051 1.429 . S
C2057 C2058 1.523 . S
C2058 C2039 1.368 . S
C2058 C2052 1.368 . S
C2058 C2057 1.523 . S
C2059 C2043 1.429 . S
C2059 C2055 1.429 . S
C2059 C2060 1.523 . S
C2060 C2044 1.368 . S
C2060 C2056 1.368 . S
C2060 C2059 1.523 . S
H2061 C2036 0.950 . S
H2062 C2038 0.950 . S
H2063 C2039 0.949 . S
H2064 C2041 0.950 . S
H2065 C2043 0.950 . S
C2066 C2067 1.349 . S
C2066 C2068 1.327 . S
C2066 H2091 0.950 . S
C2067 C2066 1.349 . S
C2067 C2083 1.349 . S
C2068 C2066 1.327 . S
C2068 C2087 1.429 . S
C2068 H2092 0.950 1_554 S
C2069 C2086 1.574 . S
C2069 C2088 1.368 . S
C2069 H2093 0.949 . S
H2070 C2074 0.949 . S
C2071 C2072 1.349 . S
C2071 C2073 1.327 . S
C2071 H2094 0.950 . S
C2072 C2071 1.349 . S
C2072 C2084 1.349 . S
C2073 C2071 1.327 . S
C2073 C2089 1.429 . S
C2073 H2095 0.950 1_556 S
C2074 H2070 0.949 . S
C2074 C2082 1.574 . S
C2074 C2090 1.368 . S
H2075 C2083 0.950 . S
H2076 C2081 0.950 . S
H2077 C2082 0.949 . S
H2078 C2084 0.950 . S
H2079 C2085 0.950 . S
H2080 C2086 0.949 . S
C2081 H2076 0.950 . S
C2081 C2083 1.327 . S
C2081 C2087 1.429 . S
C2082 C2074 1.574 . S
C2082 H2077 0.949 . S
C2082 C2088 1.368 1_556 S
C2083 C2067 1.349 . S
C2083 H2075 0.950 . S
C2083 C2081 1.327 . S
C2084 C2072 1.349 . S
C2084 H2078 0.950 . S
C2084 C2085 1.327 . S
C2085 H2079 0.950 . S
C2085 C2084 1.327 . S
C2085 C2089 1.429 . S
C2086 C2069 1.574 . S
C2086 H2080 0.949 . S
C2086 C2090 1.368 1_554 S
C2087 C2068 1.429 . S
C2087 C2081 1.429 . S
C2087 C2088 1.523 . S
C2088 C2069 1.368 . S
C2088 C2082 1.368 1_554 S
C2088 C2087 1.523 . S
C2089 C2073 1.429 . S
C2089 C2085 1.429 . S
C2089 C2090 1.523 . S
C2090 C2074 1.368 . S
C2090 C2086 1.368 1_556 S
C2090 C2089 1.523 . S
H2091 C2066 0.950 . S
H2092 C2068 0.950 1_556 S
H2093 C2069 0.949 . S
H2094 C2071 0.950 . S
H2095 C2073 0.950 1_554 S
C2096 C2097 1.349 . S
C2096 C2098 1.327 . S
C2096 H2121 0.950 . S
C2097 C2096 1.349 . S
C2097 C2113 1.349 . S
C2098 C2096 1.327 . S
C2098 C2117 1.429 . S
C2098 H2122 0.950 . S
C2099 C2116 1.574 1_565 S
C2099 C2118 1.368 . S
C2099 H2123 0.949 . S
H2100 C2104 0.949 . S
C2101 C2102 1.349 . S
C2101 C2103 1.327 . S
C2101 H2124 0.950 . S
C2102 C2101 1.349 . S
C2102 C2114 1.349 . S
C2103 C2101 1.327 . S
C2103 C2119 1.429 . S
C2103 H2125 0.950 . S
C2104 H2100 0.949 . S
C2104 C2112 1.574 1_545 S
C2104 C2120 1.368 . S
H2105 C2113 0.950 . S
H2106 C2111 0.950 . S
H2107 C2112 0.949 . S
H2108 C2114 0.950 . S
H2109 C2115 0.950 . S
H2110 C2116 0.949 . S
C2111 H2106 0.950 . S
C2111 C2113 1.327 . S
C2111 C2117 1.429 . S
C2112 C2104 1.574 1_565 S
C2112 H2107 0.949 . S
C2112 C2118 1.368 . S
C2113 C2097 1.349 . S
C2113 H2105 0.950 . S
C2113 C2111 1.327 . S
C2114 C2102 1.349 . S
C2114 H2108 0.950 . S
C2114 C2115 1.327 . S
C2115 H2109 0.950 . S
C2115 C2114 1.327 . S
C2115 C2119 1.429 . S
C2116 C2099 1.574 1_545 S
C2116 H2110 0.949 . S
C2116 C2120 1.368 . S
C2117 C2098 1.429 . S
C2117 C2111 1.429 . S
C2117 C2118 1.523 . S
C2118 C2099 1.368 . S
C2118 C2112 1.368 . S
C2118 C2117 1.523 . S
C2119 C2103 1.429 . S
C2119 C2115 1.429 . S
C2119 C2120 1.523 . S
C2120 C2104 1.368 . S
C2120 C2116 1.368 . S
C2120 C2119 1.523 . S
H2121 C2096 0.950 . S
H2122 C2098 0.950 . S
H2123 C2099 0.949 . S
H2124 C2101 0.950 . S
H2125 C2103 0.950 . S
C2126 C2127 1.349 . S
C2126 C2128 1.327 . S
C2126 H2151 0.950 . S
C2127 C2126 1.349 . S
C2127 C2143 1.349 . S
C2128 C2126 1.327 . S
C2128 C2147 1.429 . S
C2128 H2152 0.950 . S
C2129 C2146 1.574 . S
C2129 C2148 1.368 1_556 S
C2129 H2153 0.949 . S
H2130 C2134 0.949 . S
C2131 C2132 1.349 . S
C2131 C2133 1.327 . S
C2131 H2154 0.950 . S
C2132 C2131 1.349 . S
C2132 C2144 1.349 . S
C2133 C2131 1.327 . S
C2133 C2149 1.429 . S
C2133 H2155 0.950 . S
C2134 H2130 0.949 . S
C2134 C2142 1.574 . S
C2134 C2150 1.368 1_554 S
H2135 C2143 0.950 . S
H2136 C2141 0.950 1_556 S
H2137 C2142 0.949 . S
H2138 C2144 0.950 . S
H2139 C2145 0.950 1_554 S
H2140 C2146 0.949 . S
C2141 H2136 0.950 1_554 S
C2141 C2143 1.327 . S
C2141 C2147 1.429 . S
C2142 C2134 1.574 . S
C2142 H2137 0.949 . S
C2142 C2148 1.368 . S
C2143 C2127 1.349 . S
C2143 H2135 0.950 . S
C2143 C2141 1.327 . S
C2144 C2132 1.349 . S
C2144 H2138 0.950 . S
C2144 C2145 1.327 . S
C2145 H2139 0.950 1_556 S
C2145 C2144 1.327 . S
C2145 C2149 1.429 . S
C2146 C2129 1.574 . S
C2146 H2140 0.949 . S
C2146 C2150 1.368 . S
C2147 C2128 1.429 . S
C2147 C2141 1.429 . S
C2147 C2148 1.523 . S
C2148 C2129 1.368 1_554 S
C2148 C2142 1.368 . S
C2148 C2147 1.523 . S
C2149 C2133 1.429 . S
C2149 C2145 1.429 . S
C2149 C2150 1.523 . S
C2150 C2134 1.368 1_556 S
C2150 C2146 1.368 . S
C2150 C2149 1.523 . S
H2151 C2126 0.950 . S
H2152 C2128 0.950 . S
H2153 C2129 0.949 . S
H2154 C2131 0.950 . S
H2155 C2133 0.950 . S
C2156 C2157 1.349 . S
C2156 C2158 1.327 . S
C2156 H2181 0.950 . S
C2157 C2156 1.349 . S
C2157 C2173 1.349 . S
C2158 C2156 1.327 . S
C2158 C2177 1.429 . S
C2158 H2182 0.950 . S
C2159 C2176 1.574 1_545 S
C2159 C2178 1.368 . S
C2159 H2183 0.949 . S
H2160 C2164 0.949 . S
C2161 C2162 1.349 . S
C2161 C2163 1.327 . S
C2161 H2184 0.950 . S
C2162 C2161 1.349 . S
C2162 C2174 1.349 . S
C2163 C2161 1.327 . S
C2163 C2179 1.429 . S
C2163 H2185 0.950 . S
C2164 H2160 0.949 . S
C2164 C2172 1.574 1_565 S
C2164 C2180 1.368 . S
H2165 C2173 0.950 . S
H2166 C2171 0.950 . S
H2167 C2172 0.949 . S
H2168 C2174 0.950 . S
H2169 C2175 0.950 . S
H2170 C2176 0.949 . S
C2171 H2166 0.950 . S
C2171 C2173 1.327 . S
C2171 C2177 1.429 . S
C2172 C2164 1.574 1_545 S
C2172 H2167 0.949 . S
C2172 C2178 1.368 . S
C2173 C2157 1.349 . S
C2173 H2165 0.950 . S
C2173 C2171 1.327 . S
C2174 C2162 1.349 . S
C2174 H2168 0.950 . S
C2174 C2175 1.327 . S
C2175 H2169 0.950 . S
C2175 C2174 1.327 . S
C2175 C2179 1.429 . S
C2176 C2159 1.574 1_565 S
C2176 H2170 0.949 . S
C2176 C2180 1.368 . S
C2177 C2158 1.429 . S
C2177 C2171 1.429 . S
C2177 C2178 1.523 . S
C2178 C2159 1.368 . S
C2178 C2172 1.368 . S
C2178 C2177 1.523 . S
C2179 C2163 1.429 . S
C2179 C2175 1.429 . S
C2179 C2180 1.523 . S
C2180 C2164 1.368 . S
C2180 C2176 1.368 . S
C2180 C2179 1.523 . S
H2181 C2156 0.950 . S
H2182 C2158 0.950 . S
H2183 C2159 0.949 . S
H2184 C2161 0.950 . S
H2185 C2163 0.950 . S
C2186 C2187 1.349 . S
C2186 C2188 1.327 . S
C2186 H2211 0.950 . S
C2187 C2186 1.349 . S
C2187 C2203 1.349 . S
C2188 C2186 1.327 . S
C2188 C2207 1.429 . S
C2188 H2212 0.950 . S
C2189 C2206 1.574 . S
C2189 C2208 1.368 . S
C2189 H2213 0.949 . S
H2190 C2194 0.949 . S
C2191 C2192 1.349 . S
C2191 C2193 1.327 . S
C2191 H2214 0.950 . S
C2192 C2191 1.349 . S
C2192 C2204 1.349 . S
C2193 C2191 1.327 . S
C2193 C2209 1.429 . S
C2193 H2215 0.950 . S
C2194 H2190 0.949 . S
C2194 C2202 1.574 . S
C2194 C2210 1.368 . S
H2195 C2203 0.950 . S
H2196 C2201 0.950 . S
H2197 C2202 0.949 . S
H2198 C2204 0.950 . S
H2199 C2205 0.950 . S
H2200 C2206 0.949 . S
C2201 H2196 0.950 . S
C2201 C2203 1.327 . S
C2201 C2207 1.429 . S
C2202 C2194 1.574 . S
C2202 H2197 0.949 . S
C2202 C2208 1.368 . S
C2203 C2187 1.349 . S
C2203 H2195 0.950 . S
C2203 C2201 1.327 . S
C2204 C2192 1.349 . S
C2204 H2198 0.950 . S
C2204 C2205 1.327 . S
C2205 H2199 0.950 . S
C2205 C2204 1.327 . S
C2205 C2209 1.429 . S
C2206 C2189 1.574 . S
C2206 H2200 0.949 . S
C2206 C2210 1.368 . S
C2207 C2188 1.429 . S
C2207 C2201 1.429 . S
C2207 C2208 1.523 . S
C2208 C2189 1.368 . S
C2208 C2202 1.368 . S
C2208 C2207 1.523 . S
C2209 C2193 1.429 . S
C2209 C2205 1.429 . S
C2209 C2210 1.523 . S
C2210 C2194 1.368 . S
C2210 C2206 1.368 . S
C2210 C2209 1.523 . S
H2211 C2186 0.950 . S
H2212 C2188 0.950 . S
H2213 C2189 0.949 . S
H2214 C2191 0.950 . S
H2215 C2193 0.950 . S
C2216 C2217 1.349 . S
C2216 C2218 1.327 . S
C2216 H2241 0.950 . S
C2217 C2216 1.349 . S
C2217 C2233 1.349 . S
C2218 C2216 1.327 . S
C2218 C2237 1.429 . S
C2218 H2242 0.950 . S
C2219 C2236 1.574 1_545 S
C2219 C2238 1.368 . S
C2219 H2243 0.949 . S
H2220 C2224 0.949 . S
C2221 C2222 1.349 . S
C2221 C2223 1.327 . S
C2221 H2244 0.950 . S
C2222 C2221 1.349 . S
C2222 C2234 1.349 . S
C2223 C2221 1.327 . S
C2223 C2239 1.429 . S
C2223 H2245 0.950 . S
C2224 H2220 0.949 . S
C2224 C2232 1.574 1_565 S
C2224 C2240 1.368 . S
H2225 C2233 0.950 . S
H2226 C2231 0.950 . S
H2227 C2232 0.949 . S
H2228 C2234 0.950 . S
H2229 C2235 0.950 . S
H2230 C2236 0.949 . S
C2231 H2226 0.950 . S
C2231 C2233 1.327 . S
C2231 C2237 1.429 . S
C2232 C2224 1.574 1_545 S
C2232 H2227 0.949 . S
C2232 C2238 1.368 . S
C2233 C2217 1.349 . S
C2233 H2225 0.950 . S
C2233 C2231 1.327 . S
C2234 C2222 1.349 . S
C2234 H2228 0.950 . S
C2234 C2235 1.327 . S
C2235 H2229 0.950 . S
C2235 C2234 1.327 . S
C2235 C2239 1.429 . S
C2236 C2219 1.574 1_565 S
C2236 H2230 0.949 . S
C2236 C2240 1.368 . S
C2237 C2218 1.429 . S
C2237 C2231 1.429 . S
C2237 C2238 1.523 . S
C2238 C2219 1.368 . S
C2238 C2232 1.368 . S
C2238 C2237 1.523 . S
C2239 C2223 1.429 . S
C2239 C2235 1.429 . S
C2239 C2240 1.523 . S
C2240 C2224 1.368 . S
C2240 C2236 1.368 . S
C2240 C2239 1.523 . S
H2241 C2216 0.950 . S
H2242 C2218 0.950 . S
H2243 C2219 0.949 . S
H2244 C2221 0.950 . S
H2245 C2223 0.950 . S
C2246 C2247 1.349 . S
C2246 C2248 1.327 . S
C2246 H2271 0.950 . S
C2247 C2246 1.349 . S
C2247 C2263 1.349 . S
C2248 C2246 1.327 . S
C2248 C2267 1.429 . S
C2248 H2272 0.950 1_554 S
C2249 C2266 1.574 . S
C2249 C2268 1.368 . S
C2249 H2273 0.949 . S
H2250 C2254 0.949 . S
C2251 C2252 1.349 . S
C2251 C2253 1.327 . S
C2251 H2274 0.950 . S
C2252 C2251 1.349 . S
C2252 C2264 1.349 . S
C2253 C2251 1.327 . S
C2253 C2269 1.429 . S
C2253 H2275 0.950 1_556 S
C2254 H2250 0.949 . S
C2254 C2262 1.574 . S
C2254 C2270 1.368 . S
H2255 C2263 0.950 . S
H2256 C2261 0.950 . S
H2257 C2262 0.949 . S
H2258 C2264 0.950 . S
H2259 C2265 0.950 . S
H2260 C2266 0.949 . S
C2261 H2256 0.950 . S
C2261 C2263 1.327 . S
C2261 C2267 1.429 . S
C2262 C2254 1.574 . S
C2262 H2257 0.949 . S
C2262 C2268 1.368 1_556 S
C2263 C2247 1.349 . S
C2263 H2255 0.950 . S
C2263 C2261 1.327 . S
C2264 C2252 1.349 . S
C2264 H2258 0.950 . S
C2264 C2265 1.327 . S
C2265 H2259 0.950 . S
C2265 C2264 1.327 . S
C2265 C2269 1.429 . S
C2266 C2249 1.574 . S
C2266 H2260 0.949 . S
C2266 C2270 1.368 1_554 S
C2267 C2248 1.429 . S
C2267 C2261 1.429 . S
C2267 C2268 1.523 . S
C2268 C2249 1.368 . S
C2268 C2262 1.368 1_554 S
C2268 C2267 1.523 . S
C2269 C2253 1.429 . S
C2269 C2265 1.429 . S
C2269 C2270 1.523 . S
C2270 C2254 1.368 . S
C2270 C2266 1.368 1_556 S
C2270 C2269 1.523 . S
H2271 C2246 0.950 . S
H2272 C2248 0.950 1_556 S
H2273 C2249 0.949 . S
H2274 C2251 0.950 . S
H2275 C2253 0.950 1_554 S
C2276 C2277 1.349 . S
C2276 C2278 1.327 . S
C2276 H2301 0.950 . S
C2277 C2276 1.349 . S
C2277 C2293 1.349 . S
C2278 C2276 1.327 . S
C2278 C2297 1.429 . S
C2278 H2302 0.950 . S
C2279 C2296 1.574 1_545 S
C2279 C2298 1.368 . S
C2279 H2303 0.949 . S
H2280 C2284 0.949 . S
C2281 C2282 1.349 . S
C2281 C2283 1.327 . S
C2281 H2304 0.950 . S
C2282 C2281 1.349 . S
C2282 C2294 1.349 . S
C2283 C2281 1.327 . S
C2283 C2299 1.429 . S
C2283 H2305 0.950 . S
C2284 H2280 0.949 . S
C2284 C2292 1.574 1_565 S
C2284 C2300 1.368 . S
H2285 C2293 0.950 . S
H2286 C2291 0.950 . S
H2287 C2292 0.949 . S
H2288 C2294 0.950 . S
H2289 C2295 0.950 . S
H2290 C2296 0.949 . S
C2291 H2286 0.950 . S
C2291 C2293 1.327 . S
C2291 C2297 1.429 . S
C2292 C2284 1.574 1_545 S
C2292 H2287 0.949 . S
C2292 C2298 1.368 . S
C2293 C2277 1.349 . S
C2293 H2285 0.950 . S
C2293 C2291 1.327 . S
C2294 C2282 1.349 . S
C2294 H2288 0.950 . S
C2294 C2295 1.327 . S
C2295 H2289 0.950 . S
C2295 C2294 1.327 . S
C2295 C2299 1.429 . S
C2296 C2279 1.574 1_565 S
C2296 H2290 0.949 . S
C2296 C2300 1.368 . S
C2297 C2278 1.429 . S
C2297 C2291 1.429 . S
C2297 C2298 1.523 . S
C2298 C2279 1.368 . S
C2298 C2292 1.368 . S
C2298 C2297 1.523 . S
C2299 C2283 1.429 . S
C2299 C2295 1.429 . S
C2299 C2300 1.523 . S
C2300 C2284 1.368 . S
C2300 C2296 1.368 . S
C2300 C2299 1.523 . S
H2301 C2276 0.950 . S
H2302 C2278 0.950 . S
H2303 C2279 0.949 . S
H2304 C2281 0.950 . S
H2305 C2283 0.950 . S
C2306 C2307 1.349 . S
C2306 C2308 1.327 . S
C2306 H2331 0.950 . S
C2307 C2306 1.349 . S
C2307 C2323 1.349 . S
C2308 C2306 1.327 . S
C2308 C2327 1.429 . S
C2308 H2332 0.950 . S
C2309 C2326 1.574 . S
C2309 C2328 1.368 . S
C2309 H2333 0.949 . S
H2310 C2314 0.949 . S
C2311 C2312 1.349 . S
C2311 C2313 1.327 . S
C2311 H2334 0.950 . S
C2312 C2311 1.349 . S
C2312 C2324 1.349 . S
C2313 C2311 1.327 . S
C2313 C2329 1.429 . S
C2313 H2335 0.950 . S
C2314 H2310 0.949 . S
C2314 C2322 1.574 . S
C2314 C2330 1.368 . S
H2315 C2323 0.950 . S
H2316 C2321 0.950 . S
H2317 C2322 0.949 . S
H2318 C2324 0.950 . S
H2319 C2325 0.950 . S
H2320 C2326 0.949 . S
C2321 H2316 0.950 . S
C2321 C2323 1.327 . S
C2321 C2327 1.429 . S
C2322 C2314 1.574 . S
C2322 H2317 0.949 . S
C2322 C2328 1.368 . S
C2323 C2307 1.349 . S
C2323 H2315 0.950 . S
C2323 C2321 1.327 . S
C2324 C2312 1.349 . S
C2324 H2318 0.950 . S
C2324 C2325 1.327 . S
C2325 H2319 0.950 . S
C2325 C2324 1.327 . S
C2325 C2329 1.429 . S
C2326 C2309 1.574 . S
C2326 H2320 0.949 . S
C2326 C2330 1.368 . S
C2327 C2308 1.429 . S
C2327 C2321 1.429 . S
C2327 C2328 1.523 . S
C2328 C2309 1.368 . S
C2328 C2322 1.368 . S
C2328 C2327 1.523 . S
C2329 C2313 1.429 . S
C2329 C2325 1.429 . S
C2329 C2330 1.523 . S
C2330 C2314 1.368 . S
C2330 C2326 1.368 . S
C2330 C2329 1.523 . S
H2331 C2306 0.950 . S
H2332 C2308 0.950 . S
H2333 C2309 0.949 . S
H2334 C2311 0.950 . S
H2335 C2313 0.950 . S
C417 C8 1.217 . S
C422 C281 1.217 . S
C447 C294 1.217 . S
C452 C21 1.217 . S
C477 C34 1.217 . S
C482 C307 1.217 . S
C507 C268 1.217 . S
C512 C47 1.217 . S
C537 C60 1.217 . S
C542 C255 1.217 . S
C567 C73 1.217 . S
C572 C216 1.217 . S
C597 C229 1.217 . S
C602 C86 1.217 . S
C627 C99 1.217 . S
C632 C242 1.217 . S
C657 C112 1.217 . S
C662 C385 1.217 . S
C687 C125 1.217 . S
C692 C398 1.217 . S
C717 C411 1.217 . S
C722 C138 1.217 . S
C747 C372 1.217 . S
C752 C151 1.217 . S
C777 C164 1.217 . S
C782 C359 1.217 . S
C807 C320 1.217 . S
C812 C177 1.217 . S
C837 C190 1.217 . S
C842 C333 1.217 . S
C867 C346 1.217 . S
C872 C203 1.217 . S
C897 C5 0.908 . S
C902 C127 0.955 . S
C927 C18 0.908 . S
C932 C348 0.955 . S
C957 C153 0.955 . S
C962 C31 0.908 . S
C987 C44 0.908 . S
C992 C322 0.955 . S
C1017 C57 0.908 . S
C1022 C205 0.955 . S
C1047 C374 0.955 . S
C1052 C70 0.908 . S
C1077 C179 0.955 . S
C1082 C83 0.908 . S
C1107 C400 0.955 . S
C1112 C96 0.908 . S
C1137 C109 0.908 . S
C1142 C23 0.955 . S
C1167 C244 0.955 . S
C1172 C122 0.908 . S
C1197 C49 0.955 . S
C1202 C135 0.908 . S
C1227 C148 0.908 . S
C1232 C218 0.955 . S
C1257 C101 0.955 . S
C1262 C161 0.908 . S
C1287 C270 0.955 . S
C1292 C174 0.908 . S
C1317 C75 0.955 . S
C1322 C187 0.908 . S
C1347 C200 0.908 . S
C1352 C296 0.955 . S
C1377 C335 0.955 . S
C1382 C213 0.908 . S
C1407 C140 0.955 . S
C1412 C226 0.908 . S
C1437 C361 0.955 . S
C1442 C239 0.908 . S
C1467 C252 0.908 . S
C1472 C114 0.955 . S
C1497 C413 0.955 . S
C1502 C265 0.908 . S
C1527 C166 0.955 . S
C1532 C278 0.908 . S
C1557 C387 0.955 . S
C1562 C291 0.908 . S
C1587 C304 0.908 . S
C1592 C192 0.955 . S
C1617 C317 0.908 . S
C1622 C231 0.955 . S
C1647 C36 0.955 . S
C1652 C330 0.908 . S
C1677 C343 0.908 . S
C1682 C257 0.955 . S
C1707 C356 0.908 . S
C1712 C10 0.955 . S
C1737 C369 0.908 . S
C1742 C309 0.955 . S
C1767 C62 0.955 . S
C1772 C382 0.908 . S
C1797 C283 0.955 . S
C1802 C395 0.908 . S
C1827 C408 0.908 . S
C1832 C88 0.955 . S
C1857 C0 1.108 . S
C1862 C52 1.108 . S
C1887 C13 1.108 . S
C1892 C65 1.108 . S
C1917 C78 1.108 . S
C1922 C26 1.108 . S
C1947 C91 1.108 . S
C1952 C39 1.108 . S
C1977 C156 1.108 . S
C1982 C104 1.108 . S
C2007 C169 1.108 . S
C2012 C117 1.108 . S
C2037 C182 1.108 . S
C2042 C130 1.108 . S
C2067 C195 1.108 . S
C2072 C143 1.108 . S
C2097 C208 1.108 . S
C2102 C260 1.108 . S
C2127 C221 1.108 . S
C2132 C273 1.108 . S
C2157 C234 1.108 . S
C2162 C286 1.108 . S
C2187 C299 1.108 . S
C2192 C247 1.108 . S
C2217 C312 1.108 . S
C2222 C364 1.108 . S
C2247 C377 1.108 . S
C2252 C325 1.108 . S
C2277 C390 1.108 . S
C2282 C338 1.108 . S
C2307 C403 1.108 . S
C2312 C351 1.108 . S
