# Generated by pormake.
# Topology wir, (6)-cn, num edge types: 1
# Building blocks:
#     Node 0, Type 0, BuildingBlock: KUMJIN_clean_sbu_0, # of connection points: 6
#     Node 1, Type 0, BuildingBlock: KUMJIN_clean_sbu_0, # of connection points: 6
#     Node 2, Type 0, BuildingBlock: KUMJIN_clean_sbu_0, # of connection points: 6
#     Node 3, Type 0, BuildingBlock: KUMJIN_clean_sbu_0, # of connection points: 6
#     Node 4, Type 0, BuildingBlock: KUMJIN_clean_sbu_0, # of connection points: 6
#     Node 5, Type 0, BuildingBlock: KUMJIN_clean_sbu_0, # of connection points: 6
#     Node 6, Type 0, BuildingBlock: KUMJIN_clean_sbu_0, # of connection points: 6
#     Node 7, Type 0, BuildingBlock: KUMJIN_clean_sbu_0, # of connection points: 6
#     Node 8, Type 0, BuildingBlock: KUMJIN_clean_sbu_0, # of connection points: 6
#     Node 9, Type 0, BuildingBlock: KUMJIN_clean_sbu_0, # of connection points: 6
#     Node 10, Type 0, BuildingBlock: KUMJIN_clean_sbu_0, # of connection points: 6
#     Node 11, Type 0, BuildingBlock: KUMJIN_clean_sbu_0, # of connection points: 6
#     Node 12, Type 0, BuildingBlock: KUMJIN_clean_sbu_0, # of connection points: 6
#     Node 13, Type 0, BuildingBlock: KUMJIN_clean_sbu_0, # of connection points: 6
#     Node 14, Type 0, BuildingBlock: KUMJIN_clean_sbu_0, # of connection points: 6
#     Node 15, Type 0, BuildingBlock: KUMJIN_clean_sbu_0, # of connection points: 6
#     Node 16, Type 0, BuildingBlock: KUMJIN_clean_sbu_0, # of connection points: 6
#     Node 17, Type 0, BuildingBlock: KUMJIN_clean_sbu_0, # of connection points: 6
#     Node 18, Type 0, BuildingBlock: KUMJIN_clean_sbu_0, # of connection points: 6
#     Node 19, Type 0, BuildingBlock: KUMJIN_clean_sbu_0, # of connection points: 6
#     Node 20, Type 0, BuildingBlock: KUMJIN_clean_sbu_0, # of connection points: 6
#     Node 21, Type 0, BuildingBlock: KUMJIN_clean_sbu_0, # of connection points: 6
#     Node 22, Type 0, BuildingBlock: KUMJIN_clean_sbu_0, # of connection points: 6
#     Node 23, Type 0, BuildingBlock: KUMJIN_clean_sbu_0, # of connection points: 6
#     Node 24, Type 0, BuildingBlock: KUMJIN_clean_sbu_0, # of connection points: 6
#     Node 25, Type 0, BuildingBlock: KUMJIN_clean_sbu_0, # of connection points: 6
#     Node 26, Type 0, BuildingBlock: KUMJIN_clean_sbu_0, # of connection points: 6
#     Node 27, Type 0, BuildingBlock: KUMJIN_clean_sbu_0, # of connection points: 6
#     Node 28, Type 0, BuildingBlock: KUMJIN_clean_sbu_0, # of connection points: 6
#     Node 29, Type 0, BuildingBlock: KUMJIN_clean_sbu_0, # of connection points: 6
#     Node 30, Type 0, BuildingBlock: KUMJIN_clean_sbu_0, # of connection points: 6
#     Node 31, Type 0, BuildingBlock: KUMJIN_clean_sbu_0, # of connection points: 6
#     Edge 32, Type (0, 0), BuildingBlock: XIVTED_clean_linker_0, # of connection points: 2
#     Edge 33, Type (0, 0), BuildingBlock: XIVTED_clean_linker_0, # of connection points: 2
#     Edge 34, Type (0, 0), BuildingBlock: XIVTED_clean_linker_0, # of connection points: 2
#     Edge 35, Type (0, 0), BuildingBlock: XIVTED_clean_linker_0, # of connection points: 2
#     Edge 36, Type (0, 0), BuildingBlock: XIVTED_clean_linker_0, # of connection points: 2
#     Edge 37, Type (0, 0), BuildingBlock: XIVTED_clean_linker_0, # of connection points: 2
#     Edge 38, Type (0, 0), BuildingBlock: XIVTED_clean_linker_0, # of connection points: 2
#     Edge 39, Type (0, 0), BuildingBlock: XIVTED_clean_linker_0, # of connection points: 2
#     Edge 40, Type (0, 0), BuildingBlock: XIVTED_clean_linker_0, # of connection points: 2
#     Edge 41, Type (0, 0), BuildingBlock: XIVTED_clean_linker_0, # of connection points: 2
#     Edge 42, Type (0, 0), BuildingBlock: XIVTED_clean_linker_0, # of connection points: 2
#     Edge 43, Type (0, 0), BuildingBlock: XIVTED_clean_linker_0, # of connection points: 2
#     Edge 44, Type (0, 0), BuildingBlock: XIVTED_clean_linker_0, # of connection points: 2
#     Edge 45, Type (0, 0), BuildingBlock: XIVTED_clean_linker_0, # of connection points: 2
#     Edge 46, Type (0, 0), BuildingBlock: XIVTED_clean_linker_0, # of connection points: 2
#     Edge 47, Type (0, 0), BuildingBlock: XIVTED_clean_linker_0, # of connection points: 2
#     Edge 48, Type (0, 0), BuildingBlock: XIVTED_clean_linker_0, # of connection points: 2
#     Edge 49, Type (0, 0), BuildingBlock: XIVTED_clean_linker_0, # of connection points: 2
#     Edge 50, Type (0, 0), BuildingBlock: XIVTED_clean_linker_0, # of connection points: 2
#     Edge 51, Type (0, 0), BuildingBlock: XIVTED_clean_linker_0, # of connection points: 2
#     Edge 52, Type (0, 0), BuildingBlock: XIVTED_clean_linker_0, # of connection points: 2
#     Edge 53, Type (0, 0), BuildingBlock: XIVTED_clean_linker_0, # of connection points: 2
#     Edge 54, Type (0, 0), BuildingBlock: XIVTED_clean_linker_0, # of connection points: 2
#     Edge 55, Type (0, 0), BuildingBlock: XIVTED_clean_linker_0, # of connection points: 2
#     Edge 56, Type (0, 0), BuildingBlock: XIVTED_clean_linker_0, # of connection points: 2
#     Edge 57, Type (0, 0), BuildingBlock: XIVTED_clean_linker_0, # of connection points: 2
#     Edge 58, Type (0, 0), BuildingBlock: XIVTED_clean_linker_0, # of connection points: 2
#     Edge 59, Type (0, 0), BuildingBlock: XIVTED_clean_linker_0, # of connection points: 2
#     Edge 60, Type (0, 0), BuildingBlock: XIVTED_clean_linker_0, # of connection points: 2
#     Edge 61, Type (0, 0), BuildingBlock: XIVTED_clean_linker_0, # of connection points: 2
#     Edge 62, Type (0, 0), BuildingBlock: XIVTED_clean_linker_0, # of connection points: 2
#     Edge 63, Type (0, 0), BuildingBlock: XIVTED_clean_linker_0, # of connection points: 2
#     Edge 64, Type (0, 0), BuildingBlock: XIVTED_clean_linker_0, # of connection points: 2
#     Edge 65, Type (0, 0), BuildingBlock: XIVTED_clean_linker_0, # of connection points: 2
#     Edge 66, Type (0, 0), BuildingBlock: XIVTED_clean_linker_0, # of connection points: 2
#     Edge 67, Type (0, 0), BuildingBlock: XIVTED_clean_linker_0, # of connection points: 2
#     Edge 68, Type (0, 0), BuildingBlock: XIVTED_clean_linker_0, # of connection points: 2
#     Edge 69, Type (0, 0), BuildingBlock: XIVTED_clean_linker_0, # of connection points: 2
#     Edge 70, Type (0, 0), BuildingBlock: XIVTED_clean_linker_0, # of connection points: 2
#     Edge 71, Type (0, 0), BuildingBlock: XIVTED_clean_linker_0, # of connection points: 2
#     Edge 72, Type (0, 0), BuildingBlock: XIVTED_clean_linker_0, # of connection points: 2
#     Edge 73, Type (0, 0), BuildingBlock: XIVTED_clean_linker_0, # of connection points: 2
#     Edge 74, Type (0, 0), BuildingBlock: XIVTED_clean_linker_0, # of connection points: 2
#     Edge 75, Type (0, 0), BuildingBlock: XIVTED_clean_linker_0, # of connection points: 2
#     Edge 76, Type (0, 0), BuildingBlock: XIVTED_clean_linker_0, # of connection points: 2
#     Edge 77, Type (0, 0), BuildingBlock: XIVTED_clean_linker_0, # of connection points: 2
#     Edge 78, Type (0, 0), BuildingBlock: XIVTED_clean_linker_0, # of connection points: 2
#     Edge 79, Type (0, 0), BuildingBlock: XIVTED_clean_linker_0, # of connection points: 2
#     Edge 80, Type (0, 0), BuildingBlock: XIVTED_clean_linker_0, # of connection points: 2
#     Edge 81, Type (0, 0), BuildingBlock: XIVTED_clean_linker_0, # of connection points: 2
#     Edge 82, Type (0, 0), BuildingBlock: XIVTED_clean_linker_0, # of connection points: 2
#     Edge 83, Type (0, 0), BuildingBlock: XIVTED_clean_linker_0, # of connection points: 2
#     Edge 84, Type (0, 0), BuildingBlock: XIVTED_clean_linker_0, # of connection points: 2
#     Edge 85, Type (0, 0), BuildingBlock: XIVTED_clean_linker_0, # of connection points: 2
#     Edge 86, Type (0, 0), BuildingBlock: XIVTED_clean_linker_0, # of connection points: 2
#     Edge 87, Type (0, 0), BuildingBlock: XIVTED_clean_linker_0, # of connection points: 2
#     Edge 88, Type (0, 0), BuildingBlock: XIVTED_clean_linker_0, # of connection points: 2
#     Edge 89, Type (0, 0), BuildingBlock: XIVTED_clean_linker_0, # of connection points: 2
#     Edge 90, Type (0, 0), BuildingBlock: XIVTED_clean_linker_0, # of connection points: 2
#     Edge 91, Type (0, 0), BuildingBlock: XIVTED_clean_linker_0, # of connection points: 2
#     Edge 92, Type (0, 0), BuildingBlock: XIVTED_clean_linker_0, # of connection points: 2
#     Edge 93, Type (0, 0), BuildingBlock: XIVTED_clean_linker_0, # of connection points: 2
#     Edge 94, Type (0, 0), BuildingBlock: XIVTED_clean_linker_0, # of connection points: 2
#     Edge 95, Type (0, 0), BuildingBlock: XIVTED_clean_linker_0, # of connection points: 2
#     Edge 96, Type (0, 0), BuildingBlock: XIVTED_clean_linker_0, # of connection points: 2
#     Edge 97, Type (0, 0), BuildingBlock: XIVTED_clean_linker_0, # of connection points: 2
#     Edge 98, Type (0, 0), BuildingBlock: XIVTED_clean_linker_0, # of connection points: 2
#     Edge 99, Type (0, 0), BuildingBlock: XIVTED_clean_linker_0, # of connection points: 2
#     Edge 100, Type (0, 0), BuildingBlock: XIVTED_clean_linker_0, # of connection points: 2
#     Edge 101, Type (0, 0), BuildingBlock: XIVTED_clean_linker_0, # of connection points: 2
#     Edge 102, Type (0, 0), BuildingBlock: XIVTED_clean_linker_0, # of connection points: 2
#     Edge 103, Type (0, 0), BuildingBlock: XIVTED_clean_linker_0, # of connection points: 2
#     Edge 104, Type (0, 0), BuildingBlock: XIVTED_clean_linker_0, # of connection points: 2
#     Edge 105, Type (0, 0), BuildingBlock: XIVTED_clean_linker_0, # of connection points: 2
#     Edge 106, Type (0, 0), BuildingBlock: XIVTED_clean_linker_0, # of connection points: 2
#     Edge 107, Type (0, 0), BuildingBlock: XIVTED_clean_linker_0, # of connection points: 2
#     Edge 108, Type (0, 0), BuildingBlock: XIVTED_clean_linker_0, # of connection points: 2
#     Edge 109, Type (0, 0), BuildingBlock: XIVTED_clean_linker_0, # of connection points: 2
#     Edge 110, Type (0, 0), BuildingBlock: XIVTED_clean_linker_0, # of connection points: 2
#     Edge 111, Type (0, 0), BuildingBlock: XIVTED_clean_linker_0, # of connection points: 2
#     Edge 112, Type (0, 0), BuildingBlock: XIVTED_clean_linker_0, # of connection points: 2
#     Edge 113, Type (0, 0), BuildingBlock: XIVTED_clean_linker_0, # of connection points: 2
#     Edge 114, Type (0, 0), BuildingBlock: XIVTED_clean_linker_0, # of connection points: 2
#     Edge 115, Type (0, 0), BuildingBlock: XIVTED_clean_linker_0, # of connection points: 2
#     Edge 116, Type (0, 0), BuildingBlock: XIVTED_clean_linker_0, # of connection points: 2
#     Edge 117, Type (0, 0), BuildingBlock: XIVTED_clean_linker_0, # of connection points: 2
#     Edge 118, Type (0, 0), BuildingBlock: XIVTED_clean_linker_0, # of connection points: 2
#     Edge 119, Type (0, 0), BuildingBlock: XIVTED_clean_linker_0, # of connection points: 2
#     Edge 120, Type (0, 0), BuildingBlock: XIVTED_clean_linker_0, # of connection points: 2
#     Edge 121, Type (0, 0), BuildingBlock: XIVTED_clean_linker_0, # of connection points: 2
#     Edge 122, Type (0, 0), BuildingBlock: XIVTED_clean_linker_0, # of connection points: 2
#     Edge 123, Type (0, 0), BuildingBlock: XIVTED_clean_linker_0, # of connection points: 2
#     Edge 124, Type (0, 0), BuildingBlock: XIVTED_clean_linker_0, # of connection points: 2
#     Edge 125, Type (0, 0), BuildingBlock: XIVTED_clean_linker_0, # of connection points: 2
#     Edge 126, Type (0, 0), BuildingBlock: XIVTED_clean_linker_0, # of connection points: 2
#     Edge 127, Type (0, 0), BuildingBlock: XIVTED_clean_linker_0, # of connection points: 2
# Relax obj value: 0.313
# Max RMSD: 0.205
# Mean RMSD: 0.205
data_MOF--net-wir--node1-KUMJIN_clean_sbu_0--edge1-XIVTED_clean_linker_0
_symmetry_space_group_name_H-M    P1
_symmetry_Int_Tables_number       1
_symmetry_cell_setting            triclinic
loop_
_symmetry_equiv_pos_as_xyz
'x, y, z'
_cell_length_a     43.335475
_cell_length_b     43.246552
_cell_length_c     96.665664
_cell_angle_alpha  89.972819
_cell_angle_beta   89.979686
_cell_angle_gamma 89.93375
loop_
_atom_site_label
_atom_site_type_symbol
_atom_site_fract_x
_atom_site_fract_y
_atom_site_fract_z
_atom_type_partial_charge
Eu0 Eu 0.24306 0.24907 0.37885 0.0
C1 C 0.14786 0.15537 0.35838 0.0
C2 C 0.14645 0.10884 0.3723 0.0
C3 C 0.1004 0.12532 0.36016 0.0
C4 C 0.1623 0.13543 0.36753 0.0
C5 C 0.11694 0.14995 0.35434 0.0
C6 C 0.11523 0.10459 0.369 0.0
C7 C 0.12211 0.19025 0.33733 0.0
N8 N 0.16475 0.17837 0.35249 0.0
C9 C 0.15272 0.1944 0.34141 0.0
C10 C 0.10393 0.16836 0.344 0.0
Eu11 Eu 0.21637 0.18554 0.36117 0.0
N12 N 0.19265 0.13996 0.37052 0.0
C13 C 0.20897 0.11661 0.3768 0.0
C14 C 0.16273 0.08643 0.3797 0.0
C15 C 0.19427 0.09003 0.38168 0.0
H16 H 0.16579 0.21187 0.33611 0.0
H17 H 0.20748 0.07204 0.38674 0.0
H18 H 0.10264 0.08475 0.37287 0.0
H19 H 0.11256 0.20397 0.32899 0.0
H20 H 0.23366 0.1169 0.37754 0.0
H21 H 0.20258 0.36444 0.36382 0.0
H22 H 0.15144 0.06568 0.38342 0.0
H23 H 0.30677 0.21053 0.36923 0.0
H24 H 0.20134 0.31561 0.37678 0.0
H25 H 0.3537 0.21987 0.3553 0.0
H26 H 0.07657 0.12118 0.35732 0.0
H27 H 0.24543 0.37522 0.34766 0.0
H28 H 0.29592 0.35885 0.3374 0.0
H29 H 0.08029 0.16496 0.34068 0.0
H30 H 0.33763 0.3205 0.33568 0.0
N31 N 0.24102 0.29675 0.36677 0.0
C32 C 0.21921 0.31898 0.36914 0.0
C33 C 0.24456 0.35323 0.35302 0.0
C34 C 0.2681 0.33137 0.35141 0.0
C35 C 0.22023 0.34716 0.36207 0.0
C36 C 0.26584 0.30303 0.3586 0.0
H37 H 0.35961 0.26903 0.34249 0.0
N38 N 0.28634 0.25377 0.36418 0.0
C39 C 0.33578 0.23728 0.35581 0.0
C40 C 0.28947 0.28133 0.35757 0.0
C41 C 0.30918 0.232 0.36365 0.0
C42 C 0.33909 0.26513 0.34865 0.0
C43 C 0.31578 0.28752 0.34941 0.0
O44 O 0.28475 0.25602 0.39084 0.0
O45 O 0.22225 0.20422 0.38176 0.0
O46 O 0.1696 0.21677 0.36536 0.0
O47 O 0.18832 0.26308 0.3738 0.0
O48 O 0.20284 0.24017 0.39334 0.0
O49 O 0.2453 0.2853 0.3947 0.0
O50 O 0.21587 0.1531 0.34395 0.0
O51 O 0.24682 0.22842 0.35697 0.0
O52 O 0.27131 0.2069 0.39078 0.0
O53 O 0.2533 0.16459 0.37903 0.0
O54 O 0.21687 0.21816 0.34196 0.0
O55 O 0.25918 0.16434 0.35363 0.0
C56 C 0.20217 0.21088 0.39073 0.0
C57 C 0.27773 0.27268 0.41377 0.0
C58 C 0.26942 0.29142 0.43711 0.0
C59 C 0.26611 0.29486 0.4228 0.0
C60 C 0.28468 0.26557 0.44253 0.0
C61 C 0.29403 0.24719 0.4192 0.0
C62 C 0.29734 0.24367 0.43352 0.0
C63 C 0.1633 0.24647 0.36922 0.0
C64 C 0.27277 0.27692 0.39881 0.0
C65 C 0.31777 0.31551 0.34211 0.0
C66 C 0.29396 0.3373 0.34306 0.0
C67 C 0.2381 0.23792 0.34473 0.0
C68 C 0.25281 0.11301 0.34569 0.0
C69 C 0.28347 0.10364 0.3436 0.0
C70 C 0.29118 0.07198 0.34277 0.0
C71 C 0.26787 0.05001 0.34552 0.0
C72 C 0.22989 0.09052 0.34775 0.0
C73 C 0.23764 0.05932 0.34811 0.0
C74 C 0.27251 0.17551 0.38928 0.0
C75 C 0.24494 0.14617 0.34504 0.0
H76 H 0.25362 0.31461 0.41868 0.0
H77 H 0.28681 0.26244 0.4536 0.0
H78 H 0.30409 0.22996 0.41245 0.0
H79 H 0.30952 0.22383 0.43763 0.0
H80 H 0.3009 0.12119 0.34198 0.0
H81 H 0.27221 1.02543 0.3448 0.0
H82 H 0.20591 0.09692 0.34903 0.0
H83 H 0.21986 0.04217 0.34982 0.0
Eu84 Eu 0.08151 0.99677 0.63367 0.0
C85 C 0.1777 0.90729 0.60931 0.0
C86 C 0.22771 0.91078 0.62038 0.0
C87 C 0.21223 0.86267 0.6096 0.0
C88 C 0.19874 0.92396 0.61703 0.0
C89 C 0.18477 0.87671 0.60515 0.0
C90 C 0.23384 0.87981 0.61706 0.0
C91 C 0.14046 0.8779 0.5902 0.0
N92 N 0.15204 0.92202 0.60459 0.0
C93 C 0.13479 0.90834 0.5943 0.0
C94 C 0.16512 0.86173 0.5959 0.0
Eu95 Eu 0.14225 0.97285 0.61403 0.0
N96 N 0.19251 0.95411 0.61984 0.0
C97 C 0.21595 0.97311 0.6241 0.0
C98 C 0.25029 0.92952 0.62636 0.0
C99 C 0.24463 0.96101 0.62789 0.0
H100 H 0.11528 0.91975 0.58971 0.0
H101 H 0.26264 0.97616 0.63164 0.0
H102 H 0.25568 0.86922 0.6198 0.0
H103 H 0.12578 0.86696 0.58259 0.0
H104 H 0.21335 0.99788 0.62422 0.0
H105 H 0.96528 0.95525 0.6212 0.0
H106 H 0.27271 0.92025 0.6291 0.0
H107 H 0.1174 0.06189 0.62391 0.0
H108 H 1.01531 0.95456 0.63315 0.0
H109 H 0.10589 0.10901 0.61035 0.0
H110 H 0.21773 0.83911 0.60668 0.0
H111 H 0.95237 0.99802 0.60525 0.0
H112 H 0.967 0.04879 0.59466 0.0
H113 H 0.1697 0.83827 0.59254 0.0
H114 H 1.00434 0.0912 0.5923 0.0
N115 N 1.03249 0.9946 0.62281 0.0
C116 C 1.01087 0.97247 0.62562 0.0
C117 C 0.97482 0.99742 0.61017 0.0
C118 C 0.99612 1.02127 0.60813 0.0
C119 C 0.98208 0.97316 0.61911 0.0
C120 C 1.02509 1.01938 0.61476 0.0
H121 H 0.05575 0.11413 0.59833 0.0
N122 N 0.07439 1.04058 0.61943 0.0
C123 C 0.08899 0.09068 0.61106 0.0
C124 C 0.04625 0.04335 0.61333 0.0
C125 C 0.09549 0.06397 0.61868 0.0
C126 C 0.06059 0.09353 0.60434 0.0
C127 C 1.03885 0.06971 0.60539 0.0
O128 O 0.07585 1.03777 0.64634 0.0
O129 O 0.12703 0.97686 0.6351 0.0
O130 O 0.11244 0.92486 0.61826 0.0
O131 O 0.06751 0.94218 0.62856 0.0
O132 O 0.09356 0.95538 0.64721 0.0
O133 O 0.04736 0.99785 0.65038 0.0
O134 O 0.15163 1.01864 0.6054 0.0
O135 O 0.09842 1.00217 0.61109 0.0
O136 O 0.12386 1.02545 0.64505 0.0
O137 O 0.16509 1.00731 0.63264 0.0
O138 O 0.10531 0.96924 0.59673 0.0
O139 O 0.17493 0.97863 0.59705 0.0
C140 C 0.12241 0.95577 0.64382 0.0
C141 C 0.06294 1.02857 0.66959 0.0
C142 C 0.04965 1.01569 0.69325 0.0
C143 C 0.04449 1.01295 0.67903 0.0
C144 C 0.07361 1.03423 0.69822 0.0
C145 C 0.08678 0.04775 0.67456 0.0
C146 C 0.09214 0.05035 0.68882 0.0
C147 C 0.08359 0.91774 0.62305 0.0
C148 C 0.05631 1.025 0.65472 0.0
C149 C 1.01026 0.07131 0.59859 0.0
C150 C 0.98904 0.0471 0.5999 0.0
C151 C 0.08717 0.99204 0.5994 0.0
C152 C 0.16535 1.02035 0.58183 0.0
C153 C 0.18111 0.04725 0.57801 0.0
C154 C 0.18194 0.05717 0.56409 0.0
C155 C 0.16307 1.04133 0.55449 0.0
C156 C 0.14742 1.00467 0.57205 0.0
C157 C 0.14558 1.01575 0.55854 0.0
C158 C 0.15504 1.02647 0.64318 0.0
C159 C 0.16995 1.00819 0.59585 0.0
H160 H 1.02574 0.99851 0.67533 0.0
H161 H 0.07771 1.03639 0.70923 0.0
H162 H 0.10121 0.06073 0.66751 0.0
H163 H 0.11059 0.06497 0.69256 0.0
H164 H 0.19379 0.05934 0.58596 0.0
H165 H 0.16271 0.0473 0.54364 0.0
H166 H 0.13523 0.98373 0.57476 0.0
H167 H 0.13167 1.00361 0.551 0.0
Eu168 Eu 0.33548 0.83374 0.87927 0.0
C169 C 0.43013 0.92476 0.85485 0.0
C170 C 0.43798 0.96829 0.87018 0.0
C171 C 0.47943 0.9522 0.85505 0.0
C172 C 0.4195 0.94336 0.86549 0.0
C173 C 0.46012 0.92957 0.84936 0.0
C174 C 0.46823 0.9718 0.86532 0.0
C175 C 0.44857 0.8932 0.83139 0.0
N176 N 0.41053 0.90372 0.84912 0.0
C177 C 0.41904 0.88956 0.83691 0.0
C178 C 0.46948 0.91268 0.83782 0.0
Eu179 Eu 0.36166 0.89623 0.8609 0.0
N180 N 0.39038 0.93898 0.87042 0.0
C181 C 0.37819 0.96044 0.87936 0.0
C182 C 0.42521 0.98993 0.87919 0.0
C183 C 0.39507 0.98615 0.88367 0.0
H184 H 0.40392 0.87508 0.83103 0.0
H185 H 0.38496 1.00269 0.89075 0.0
H186 H 0.48283 0.99026 0.86913 0.0
H187 H 0.45504 0.88115 0.82201 0.0
H188 H 0.35571 0.95834 0.88373 0.0
H189 H 0.3786 0.71823 0.86611 0.0
H190 H 0.43838 1.00972 0.8827 0.0
H191 H 0.27066 0.86967 0.86914 0.0
H192 H 0.37838 0.76796 0.87838 0.0
H193 H 0.22416 0.85825 0.85528 0.0
H194 H 0.50253 0.95578 0.85107 0.0
H195 H 0.33645 0.70537 0.84989 0.0
H196 H 0.28586 0.71989 0.83917 0.0
H197 H 0.49224 0.91572 0.83338 0.0
H198 H 0.24325 0.75709 0.8368 0.0
N199 N 0.33847 0.78514 0.86797 0.0
C200 C 0.36077 0.76361 0.87073 0.0
C201 C 0.33667 0.72772 0.85496 0.0
C202 C 0.31268 0.7489 0.85293 0.0
C203 C 0.36059 0.73496 0.86404 0.0
C204 C 0.31408 0.77773 0.85975 0.0
H205 H 0.21978 0.8083 0.84298 0.0
N206 N 0.29236 0.82673 0.86464 0.0
C207 C 0.24254 0.84137 0.85602 0.0
C208 C 0.29001 0.79876 0.85834 0.0
C209 C 0.2689 0.8478 0.86383 0.0
C210 C 0.2401 0.8131 0.84914 0.0
C211 C 0.26401 0.79141 0.8502 0.0
O212 O 0.29457 0.82903 0.89201 0.0
O213 O 0.35654 0.87881 0.88179 0.0
O214 O 0.40849 0.86401 0.8631 0.0
O215 O 0.39063 0.8205 0.87464 0.0
O216 O 0.37656 0.84281 0.8932 0.0
O217 O 0.33302 0.79822 0.89547 0.0
O218 O 0.35603 0.93897 0.84897 0.0
O219 O 0.33104 0.85313 0.85726 0.0
O220 O 0.30554 0.87577 0.89017 0.0
O221 O 0.32595 0.91783 0.87913 0.0
O222 O 0.36227 0.86149 0.84259 0.0
O223 O 0.31919 0.90587 0.8494 0.0
C224 C 0.37725 0.87201 0.89045 0.0
C225 C 0.30236 0.8124 0.91489 0.0
C226 C 0.30883 0.79196 0.93808 0.0
C227 C 0.31105 0.78854 0.92372 0.0
C228 C 0.29717 0.81945 0.94371 0.0
C229 C 0.29007 0.83977 0.92056 0.0
C230 C 0.2874 0.84316 0.93491 0.0
C231 C 0.41508 0.83551 0.86851 0.0
C232 C 0.30623 0.80782 0.8999 0.0
C233 C 0.26286 0.76297 0.84323 0.0
C234 C 0.28719 0.74184 0.84454 0.0
C235 C 0.34037 0.84253 0.8453 0.0
C236 C 0.30469 0.95809 0.84806 0.0
C237 C 0.28092 0.96302 0.83846 0.0
C238 C 0.25995 0.98802 0.83996 0.0
C239 C 0.26235 1.00621 0.85209 0.0
C240 C 0.30637 0.9768 0.85982 0.0
C241 C 0.28502 1.00028 0.86194 0.0
C242 C 0.30558 0.90716 0.88899 0.0
C243 C 0.32752 0.93335 0.84562 0.0
H244 H 0.32092 0.76761 0.91936 0.0
H245 H 0.29602 0.82264 0.95481 0.0
H246 H 0.28273 0.8586 0.91401 0.0
H247 H 0.27825 0.86439 0.9392 0.0
H248 H 0.27974 0.94746 0.82975 0.0
H249 H 0.24781 1.02599 0.85399 0.0
H250 H 0.32426 0.97355 0.86732 0.0
H251 H 0.28668 1.01467 0.87108 0.0
Eu252 Eu 0.49849 0.0903 0.13457 0.0
C253 C 0.41163 0.18391 0.10734 0.0
C254 C 0.3622 0.1919 0.11849 0.0
C255 C 0.38425 0.23269 0.10438 0.0
C256 C 0.38881 0.17366 0.11627 0.0
C257 C 0.40931 0.21341 0.10115 0.0
C258 C 0.36058 0.22184 0.11294 0.0
C259 C 0.45486 0.20155 0.08779 0.0
N260 N 0.43514 0.16437 0.10408 0.0
C261 C 0.45597 0.17237 0.09398 0.0
C262 C 0.43165 0.2223 0.09149 0.0
Eu263 Eu 0.43589 0.11576 0.11592 0.0
N264 N 0.39109 0.1447 0.12165 0.0
C265 C 0.36606 0.13143 0.12792 0.0
C266 C 0.33728 0.17894 0.12562 0.0
C267 C 0.339 0.14836 0.13009 0.0
H268 H 0.47475 0.15712 0.0913 0.0
H269 H 0.31946 0.13776 0.1352 0.0
H270 H 0.34066 0.23641 0.11483 0.0
H271 H 0.47201 0.20805 0.08019 0.0
H272 H 0.3664 0.10756 0.13104 0.0
H273 H 0.61565 0.12628 0.12117 0.0
H274 H 0.31627 0.19201 0.12731 0.0
H275 H 0.45628 1.03054 0.12302 0.0
H276 H 0.56555 0.13021 0.13306 0.0
H277 H 0.46348 0.98466 0.10815 0.0
H278 H 0.38231 0.25554 0.09985 0.0
H279 H 0.6261 0.08243 0.10544 0.0
H280 H 0.60812 1.03295 0.09465 0.0
H281 H 0.43074 0.24481 0.08659 0.0
H282 H 0.56734 0.99413 0.09147 0.0
N283 N 0.54648 0.0907 0.12308 0.0
C284 C 0.56914 0.11181 0.12569 0.0
C285 C 0.60374 0.0844 0.11039 0.0
C286 C 0.58097 0.06196 0.10831 0.0
C287 C 0.59786 0.1093 0.11919 0.0
C288 C 0.55219 0.06564 0.11495 0.0
H289 H 0.51349 0.97597 0.09642 0.0
N290 N 0.50132 0.04799 0.11936 0.0
C291 C 0.48211 1.00104 0.10947 0.0
C292 C 0.52921 0.04346 0.11323 0.0
C293 C 0.478 1.02713 0.11781 0.0
C294 C 0.51044 0.99614 0.10292 0.0
C295 C 0.53441 1.01745 0.10474 0.0
O296 O 0.50724 0.04754 0.14557 0.0
O297 O 0.45312 0.11022 0.13682 0.0
O298 O 0.46681 0.16308 0.1204 0.0
O299 O 0.51262 0.14504 0.12993 0.0
O300 O 0.48753 0.13004 0.14912 0.0
O301 O 0.533 0.08858 0.15112 0.0
O302 O 0.42075 0.06993 0.10925 0.0
O303 O 0.48345 0.09418 0.11197 0.0
O304 O 0.45553 0.06121 0.14564 0.0
O305 O 0.4133 0.08171 0.13456 0.0
O306 O 0.45914 0.10452 0.09492 0.0
O307 O 0.39594 0.11066 0.10238 0.0
C308 C 0.45856 0.13046 0.14591 0.0
C309 C 0.52085 0.05261 0.16899 0.0
C310 C 0.53683 0.05866 0.19285 0.0
C311 C 0.54055 0.06527 0.17879 0.0
C312 C 0.51305 1.03923 0.1973 0.0
C313 C 0.49727 1.03243 0.17339 0.0
C314 C 0.49332 1.026 0.1875 0.0
C315 C 0.49615 0.16975 0.12483 0.0
C316 C 0.52623 0.05999 0.15432 0.0
C317 C 0.56301 1.01386 0.09809 0.0
C318 C 0.5862 1.03604 0.09987 0.0
C319 C 0.48476 0.09184 0.09841 0.0
C320 C 0.39611 0.06724 0.08749 0.0
C321 C 0.37886 1.04009 0.08582 0.0
C322 C 0.37293 1.02813 0.07254 0.0
C323 C 0.38712 0.0424 0.06105 0.0
C324 C 0.40874 0.08185 0.07582 0.0
C325 C 0.40507 0.06887 0.06275 0.0
C326 C 0.42404 0.06127 0.14443 0.0
C327 C 0.39882 0.08073 0.10139 0.0
H328 H 0.55908 0.08047 0.17549 0.0
H329 H 0.50995 1.03421 0.20819 0.0
H330 H 0.48201 1.02157 0.16599 0.0
H331 H 0.47502 1.01067 0.19081 0.0
H332 H 0.36885 1.02923 0.09488 0.0
H333 H 0.38288 1.0345 1.05061 0.0
H334 H 0.42084 0.1036 0.07667 0.0
H335 H 0.41497 0.08018 0.0538 0.0
Eu336 Eu 0.24148 0.83699 0.22344 0.0
C337 C 0.1511 0.93001 0.24963 0.0
C338 C 0.14574 0.97613 0.23556 0.0
C339 C 0.10343 0.96028 0.25025 0.0
C340 C 0.1629 0.94972 0.23965 0.0
C341 C 0.12133 0.93563 0.2552 0.0
C342 C 0.11571 0.98064 0.24053 0.0
C343 C 0.12984 0.8946 0.27148 0.0
N344 N 0.1692 0.90662 0.25453 0.0
C345 C 0.15911 0.88989 0.26583 0.0
C346 C 0.11065 0.91714 0.26599 0.0
Eu347 Eu 0.21844 0.89944 0.24296 0.0
N348 N 0.19186 0.94461 0.23468 0.0
C349 C 0.20545 0.96667 0.22649 0.0
C350 C 0.15956 0.99802 0.22697 0.0
C351 C 0.1897 0.99346 0.2226 0.0
H352 H 0.17229 0.8716 0.27041 0.0
H353 H 0.20074 1.01036 0.21598 0.0
H354 H 0.10211 1.00035 0.23722 0.0
H355 H 0.12204 0.88056 0.28007 0.0
H356 H 0.2282 0.96412 0.22245 0.0
H357 H 0.19897 0.72171 0.23727 0.0
H358 H 0.14728 1.01869 0.2238 0.0
H359 H 0.30672 0.87299 0.23288 0.0
H360 H 0.19827 0.77152 0.22506 0.0
H361 H 0.35393 0.86159 0.24628 0.0
H362 H 0.08049 0.96454 0.2543 0.0
H363 H 0.2424 0.70855 0.25276 0.0
H364 H 0.29375 0.72286 0.26275 0.0
H365 H 0.08799 0.92075 0.27047 0.0
H366 H 0.33639 0.76005 0.26465 0.0
N367 N 0.23913 0.78839 0.23476 0.0
C368 C 0.21653 0.76703 0.23238 0.0
C369 C 0.24184 0.73092 0.24771 0.0
C370 C 0.26601 0.752 0.24937 0.0
C371 C 0.21719 0.73834 0.23904 0.0
C372 C 0.26415 0.78086 0.24259 0.0
H373 H 0.35921 0.81146 0.25839 0.0
N374 N 0.28551 0.82993 0.23749 0.0
C375 C 0.33562 0.84464 0.24567 0.0
C376 C 0.2883 0.80186 0.2437 0.0
C377 C 0.30887 0.85106 0.23811 0.0
C378 C 0.33857 0.81626 0.25244 0.0
C379 C 0.31475 0.79449 0.25156 0.0
O380 O 0.28138 0.8313 0.21011 0.0
O381 O 0.22193 0.883 0.2219 0.0
O382 O 0.17081 0.86788 0.24046 0.0
O383 O 0.18672 0.82437 0.22834 0.0
O384 O 0.1998 0.84882 0.21025 0.0
O385 O 0.24181 0.80171 0.20715 0.0
O386 O 0.22673 0.94301 0.25411 0.0
O387 O 0.24724 0.85496 0.24575 0.0
O388 O 0.27048 0.8785 0.21179 0.0
O389 O 0.25491 0.91982 0.22477 0.0
O390 O 0.21923 0.86574 0.26156 0.0
O391 O 0.26006 0.90653 0.25537 0.0
C392 C 0.20046 0.87783 0.2134 0.0
C393 C 0.27071 0.8161 0.18726 0.0
C394 C 0.26088 0.79718 0.16407 0.0
C395 C 0.26041 0.79295 0.17841 0.0
C396 C 0.27207 0.82482 0.15843 0.0
C397 C 0.28284 0.84355 0.18156 0.0
C398 C 0.28345 0.8478 0.16721 0.0
C399 C 0.16315 0.8397 0.2349 0.0
C400 C 0.2684 0.8108 0.20227 0.0
C401 C 0.3164 0.76597 0.25845 0.0
C402 C 0.29206 0.74484 0.25741 0.0
C403 C 0.23888 0.84488 0.25802 0.0
C404 C 0.27971 0.95693 0.25651 0.0
C405 C 0.30024 0.96242 0.26746 0.0
C406 C 0.3262 0.98178 0.26565 0.0
C407 C 0.33175 0.99455 0.25249 0.0
C408 C 0.285 0.97138 0.24375 0.0
C409 C 0.31097 0.9898 0.24173 0.0
C410 C 0.2729 0.90948 0.21395 0.0
C411 C 0.25394 0.93499 0.25848 0.0
H412 H 0.25091 0.77184 0.18275 0.0
H413 H 0.27191 0.82855 0.14735 0.0
H414 H 0.29171 0.86176 0.1881 0.0
H415 H 0.29242 0.86909 0.16291 0.0
H416 H 0.29524 0.95236 0.27748 0.0
H417 H 0.35172 1.00894 0.25057 0.0
H418 H 0.26934 0.96855 0.23529 0.0
H419 H 0.31492 1.00061 0.23178 0.0
Eu420 Eu 0.49872 0.99351 0.46797 0.0
C421 C 0.41238 0.90374 0.4976 0.0
C422 C 0.36345 0.89503 0.48616 0.0
C423 C 0.38465 0.85541 0.50118 0.0
C424 C 0.39001 0.91335 0.48832 0.0
C425 C 0.40953 0.87491 0.50436 0.0
C426 C 0.36153 0.86554 0.49216 0.0
C427 C 0.45387 0.88812 0.51822 0.0
N428 N 0.43576 0.92346 0.50075 0.0
C429 C 0.45581 0.91642 0.5113 0.0
C430 C 0.43098 0.86704 0.51458 0.0
Eu431 Eu 0.43739 0.971 0.48809 0.0
N432 N 0.39246 0.94198 0.48263 0.0
C433 C 0.36749 0.95503 0.47621 0.0
C434 C 0.33877 0.9076 0.47874 0.0
C435 C 0.3405 0.93802 0.47407 0.0
H436 H 0.47451 0.93175 0.51392 0.0
H437 H 0.32107 0.94841 0.46878 0.0
H438 H 0.34166 0.85092 0.49033 0.0
H439 H 0.47032 0.88242 0.52625 0.0
H440 H 0.36782 0.97875 0.47289 0.0
H441 H 0.61601 0.95525 0.48002 0.0
H442 H 0.31785 0.89444 0.47703 0.0
H443 H 0.45894 0.05502 0.47939 0.0
H444 H 0.56509 0.95212 0.46885 0.0
H445 H 0.46821 0.10144 0.49368 0.0
H446 H 0.38235 0.83304 0.50613 0.0
H447 H 0.62853 0.99948 0.49521 0.0
H448 H 0.61243 0.04989 0.50578 0.0
H449 H 0.42955 0.84513 0.51998 0.0
H450 H 0.57282 0.08994 0.50913 0.0
N451 N 0.54761 0.99259 0.4787 0.0
C452 C 0.56958 0.97075 0.476 0.0
C453 C 0.60581 0.99789 0.49058 0.0
C454 C 0.58372 1.02101 0.49275 0.0
C455 C 0.59877 0.97278 0.48208 0.0
C456 C 0.55445 1.01781 0.48653 0.0
H457 H 0.51913 0.10933 0.50469 0.0
N458 N 0.50377 1.03657 0.48263 0.0
C459 C 0.48634 0.0845 0.49229 0.0
C460 C 0.53214 1.04066 0.48834 0.0
C461 C 0.48108 0.05814 0.48427 0.0
C462 C 0.51518 0.08894 0.49843 0.0
C463 C 0.5385 0.06691 0.49652 0.0
O464 O 0.50596 1.03514 0.45591 0.0
O465 O 0.45271 0.97464 0.4669 0.0
O466 O 0.4689 0.92314 0.48469 0.0
O467 O 0.51203 0.93865 0.47221 0.0
O468 O 0.48551 0.95264 0.45443 0.0
O469 O 0.53222 0.99395 0.45101 0.0
O470 O 0.39778 0.97738 0.50173 0.0
O471 O 0.48566 0.99182 0.49103 0.0
O472 O 0.45586 1.02273 0.45706 0.0
O473 O 0.41424 1.00486 0.46937 0.0
O474 O 0.46174 0.98385 0.50854 0.0
O475 O 0.4233 1.01735 0.49453 0.0
C476 C 0.45684 0.95342 0.45815 0.0
C477 C 0.5175 1.02696 0.43242 0.0
C478 C 0.53089 1.01691 0.4085 0.0
C479 C 0.53638 1.01298 0.42264 0.0
C480 C 0.50615 1.03503 0.40395 0.0
C481 C 0.49291 0.0458 0.42788 0.0
C482 C 0.48724 0.04962 0.4137 0.0
C483 C 0.49679 0.91516 0.47888 0.0
C484 C 0.52447 1.0219 0.44716 0.0
C485 C 0.56759 0.07003 0.50275 0.0
C486 C 0.59012 0.04715 0.50088 0.0
C487 C 0.48757 0.99526 0.50457 0.0
C488 C 0.39797 1.02169 0.5161 0.0
C489 C 0.37915 0.0479 0.5174 0.0
C490 C 0.3724 0.06037 0.53051 0.0
C491 C 0.38738 0.04772 0.54218 0.0
C492 C 0.41156 1.00871 0.52793 0.0
C493 C 0.40702 1.02232 0.54083 0.0
C494 C 0.4246 1.02399 0.45888 0.0
C495 C 0.40107 1.0073 0.5024 0.0
H496 H 0.5556 0.99872 0.42603 0.0
H497 H 0.50169 1.03798 0.393 0.0
H498 H 0.47811 0.05754 0.43522 0.0
H499 H 0.46818 0.06392 0.4103 0.0
H500 H 0.36859 0.05754 0.5082 0.0
H501 H 0.38259 0.05604 0.55251 0.0
H502 H 0.42502 0.98772 0.52736 0.0
H503 H 0.41759 1.01224 0.54992 0.0
Eu504 Eu 0.33711 0.25085 0.72326 0.0
C505 C 0.43188 0.15859 0.74657 0.0
C506 C 0.4384 0.11453 0.7313 0.0
C507 C 0.48003 0.12906 0.74663 0.0
C508 C 0.42059 0.13995 0.73603 0.0
C509 C 0.46178 0.153 0.75199 0.0
C510 C 0.46826 0.10971 0.7364 0.0
C511 C 0.45336 0.1936 0.76851 0.0
N512 N 0.41353 0.18139 0.75184 0.0
C513 C 0.42392 0.1982 0.76304 0.0
C514 C 0.47246 0.17111 0.76291 0.0
Eu515 Eu 0.36346 0.18747 0.74098 0.0
N516 N 0.3918 0.14541 0.7309 0.0
C517 C 0.37941 0.12507 0.72156 0.0
C518 C 0.42544 0.09392 0.72187 0.0
C519 C 0.39568 0.09903 0.71712 0.0
H520 H 0.41087 0.21667 0.76758 0.0
H521 H 0.38539 0.08324 0.70977 0.0
H522 H 0.48227 0.09068 0.73267 0.0
H523 H 0.46135 0.20763 0.77705 0.0
H524 H 0.35692 0.1281 0.71723 0.0
H525 H 0.37654 0.36655 0.73808 0.0
H526 H 0.4382 0.07396 0.71821 0.0
H527 H 0.27373 0.21194 0.73296 0.0
H528 H 0.37818 0.31759 0.72521 0.0
H529 H 0.22681 0.22096 0.74694 0.0
H530 H 0.503 0.12475 0.75062 0.0
H531 H 0.33361 0.37715 0.75424 0.0
H532 H 0.28332 0.36047 0.76458 0.0
H533 H 0.49524 0.16755 0.76725 0.0
H534 H 0.24199 0.3218 0.76641 0.0
N535 N 0.3386 0.29864 0.73522 0.0
C536 C 0.36026 0.32097 0.73282 0.0
C537 C 0.33465 0.35514 0.74891 0.0
C538 C 0.31131 0.33314 0.75057 0.0
C539 C 0.35901 0.34917 0.73986 0.0
C540 C 0.31378 0.30479 0.74341 0.0
H541 H 0.22049 0.27012 0.7597 0.0
N542 N 0.29377 0.25535 0.73792 0.0
C543 C 0.24455 0.23851 0.74638 0.0
C544 C 0.29039 0.28291 0.74451 0.0
C545 C 0.27114 0.23342 0.73851 0.0
C546 C 0.24101 0.26636 0.75352 0.0
C547 C 0.26408 0.28893 0.75269 0.0
O548 O 0.29555 0.25756 0.71111 0.0
O549 O 0.35795 0.20582 0.72023 0.0
O550 O 0.41028 0.21939 0.73787 0.0
O551 O 0.39158 0.26503 0.72855 0.0
O552 O 0.37816 0.2425 0.70925 0.0
O553 O 0.33492 0.28688 0.70732 0.0
O554 O 0.36038 0.14404 0.75253 0.0
O555 O 0.33359 0.23066 0.74514 0.0
O556 O 0.30912 0.20857 0.71127 0.0
O557 O 0.32549 0.16649 0.72367 0.0
O558 O 0.36194 0.21866 0.76054 0.0
O559 O 0.32167 0.17522 0.75247 0.0
C560 C 0.3787 0.21312 0.71165 0.0
C561 C 0.30343 0.2733 0.68811 0.0
C562 C 0.31375 0.2904 0.66468 0.0
C563 C 0.31613 0.29465 0.67897 0.0
C564 C 0.29832 0.26462 0.65935 0.0
C565 C 0.28702 0.24784 0.68276 0.0
C566 C 0.28462 0.24355 0.66844 0.0
C567 C 0.41648 0.24892 0.73364 0.0
C568 C 0.30767 0.27822 0.70307 0.0
C569 C 0.26186 0.31694 0.75996 0.0
C570 C 0.28545 0.33891 0.75895 0.0
C571 C 0.34195 0.23962 0.75754 0.0
C572 C 0.31015 0.12211 0.75344 0.0
C573 C 0.28443 0.11834 0.7621 0.0
C574 C 0.26515 0.09209 0.76091 0.0
C575 C 0.27088 0.07131 0.74991 0.0
C576 C 0.31536 0.10077 0.74281 0.0
C577 C 0.29546 0.07597 0.74087 0.0
C578 C 0.3071 0.17729 0.7131 0.0
C579 C 0.3316 0.148 0.75593 0.0
H580 H 0.32868 0.31441 0.68301 0.0
H581 H 0.29685 0.26093 0.64829 0.0
H582 H 0.27621 0.2312 0.68956 0.0
H583 H 0.27232 0.22374 0.6644 0.0
H584 H 0.28037 0.13556 0.77 0.0
H585 H 0.25763 0.05041 0.74854 0.0
H586 H 0.33501 0.1028 0.73613 0.0
H587 H 0.29983 0.05955 0.73265 0.0
Eu588 Eu 0.08125 0.08674 0.96936 0.0
C589 C 0.17764 0.17825 0.99285 0.0
C590 C 0.22772 0.17497 0.9818 0.0
C591 C 0.212 0.22292 0.99267 0.0
C592 C 0.19882 0.16168 0.98512 0.0
C593 C 0.18454 0.20883 0.99704 0.0
C594 C 0.23374 0.20589 0.98522 0.0
C595 C 0.13992 0.20763 1.01182 0.0
N596 N 0.15194 0.16347 0.9975 0.0
C597 C 0.13439 0.1772 1.00769 0.0
C598 C 0.16468 0.22378 1.00624 0.0
Eu599 Eu 0.14275 0.11247 0.98811 0.0
N600 N 0.19276 0.13156 0.98224 0.0
C601 C 0.21626 0.11268 0.97788 0.0
C602 C 0.25038 0.15637 0.97574 0.0
C603 C 0.24487 0.1249 0.9741 0.0
H604 H 0.11469 0.1659 1.01215 0.0
H605 H 0.26292 0.10985 0.97027 0.0
H606 H 0.25557 0.21653 0.98255 0.0
H607 H 0.12502 0.2186 1.01936 0.0
H608 H 0.21369 0.0879 0.97766 0.0
H609 H 0.96526 0.13068 0.9808 0.0
H610 H 0.27277 0.16573 0.97303 0.0
H611 H 0.11572 1.02145 0.97993 0.0
H612 H 1.01539 0.12951 0.96891 0.0
H613 H 0.10334 0.97546 0.99407 0.0
H614 H 0.21739 0.24647 0.99565 0.0
H615 H 0.95176 0.08968 0.99756 0.0
H616 H 0.96568 1.03967 1.00906 0.0
H617 H 0.16914 0.24724 1.00962 0.0
H618 H 1.00233 0.99677 1.01207 0.0
N619 N 1.03205 0.09031 0.98005 0.0
C620 C 1.01067 0.1124 0.97677 0.0
C621 C 0.97425 0.0895 0.99266 0.0
C622 C 0.99525 0.06556 0.99517 0.0
C623 C 0.98184 0.11276 0.98326 0.0
C624 C 1.02428 0.06643 0.98854 0.0
H625 H 0.0532 0.97226 1.00624 0.0
N626 N 0.07314 0.04399 0.98416 0.0
C627 C 0.0868 0.99412 0.99315 0.0
C628 C 0.04503 0.04223 0.99033 0.0
C629 C 0.09378 1.02019 0.98519 0.0
C630 C 0.05842 0.99235 0.99996 0.0
C631 C 1.03716 1.01659 0.99865 0.0
O632 O 0.07655 0.04528 0.95692 0.0
O633 O 0.12623 0.10745 0.96728 0.0
O634 O 0.11266 0.16009 0.98379 0.0
O635 O 0.06735 0.14165 0.97429 0.0
O636 O 0.09203 0.12745 0.95515 0.0
O637 O 0.04703 0.0844 0.95267 0.0
O638 O 0.17634 0.10653 1.00471 0.0
O639 O 0.09956 0.08243 0.99167 0.0
O640 O 0.12366 0.05628 0.95895 0.0
O641 O 0.16538 0.08 0.96879 0.0
O642 O 0.10668 0.11564 1.00585 0.0
O643 O 0.15303 0.06654 0.99642 0.0
C644 C 0.12098 0.12791 0.95833 0.0
C645 C 0.06199 0.05266 0.93372 0.0
C646 C 0.04337 0.05888 0.91023 0.0
C647 C 1.03893 0.06135 0.92453 0.0
C648 C 0.0711 0.04703 0.90501 0.0
C649 C 0.08959 1.03997 0.92849 0.0
C650 C 0.09401 1.03711 0.91419 0.0
C651 C 0.08345 0.1666 0.97933 0.0
C652 C 0.05633 0.05715 0.9486 0.0
C653 C 1.00859 1.01606 1.00549 0.0
C654 C 0.98776 1.04055 1.00381 0.0
C655 C 0.08869 0.09262 1.00342 0.0
C656 C 0.16778 0.06455 1.01987 0.0
C657 C 0.18408 1.03784 1.02357 0.0
C658 C 0.18527 1.02778 1.03745 0.0
C659 C 0.16647 0.04329 1.0472 0.0
C660 C 0.14995 0.07996 1.0298 0.0
C661 C 0.1486 0.06874 1.0433 0.0
C662 C 0.15505 0.05803 0.95952 0.0
C663 C 0.17171 0.07692 1.00584 0.0
H664 H 1.0178 0.07146 0.92854 0.0
H665 H 0.07508 0.04582 0.89396 0.0
H666 H 0.10778 1.03249 0.93534 0.0
H667 H 0.11543 1.02773 0.91023 0.0
H668 H 0.19691 1.02598 1.01557 0.0
H669 H 0.16653 1.03715 0.05803 0.0
H670 H 0.13747 0.10083 1.02723 0.0
H671 H 0.13477 0.08069 1.05095 0.0
Eu672 Eu 0.86473 0.89861 0.73748 0.0
C673 C 0.79279 0.80307 0.74042 0.0
C674 C 0.81182 0.75105 0.74454 0.0
C675 C 0.76411 0.76812 0.75539 0.0
C676 C 0.81499 0.78032 0.73824 0.0
C677 C 0.76722 0.7972 0.74907 0.0
C678 C 0.78633 0.74512 0.75313 0.0
C679 C 0.75019 0.84972 0.74505 0.0
N680 N 0.79681 0.83133 0.73454 0.0
C681 C 0.77582 0.85445 0.73652 0.0
C682 C 0.74584 0.82097 0.75134 0.0
Eu683 Eu 0.83859 0.83558 0.71911 0.0
N684 N 0.83958 0.78672 0.72998 0.0
C685 C 0.86079 0.76435 0.72694 0.0
C686 C 0.83433 0.72853 0.742 0.0
C687 C 0.85879 0.73515 0.73309 0.0
H688 H 0.77886 0.87656 0.73155 0.0
H689 H 0.87583 0.71759 0.73076 0.0
H690 H 0.78362 0.72283 0.75809 0.0
H691 H 0.73375 0.8682 0.74671 0.0
H692 H 0.87888 0.76859 0.71949 0.0
H693 H 0.88713 1.01523 0.71819 0.0
H694 H 0.83275 0.70581 0.74668 0.0
H695 H 0.90577 0.85962 0.7622 0.0
H696 H 0.85664 0.96858 0.72255 0.0
H697 H 0.95657 0.86213 0.77331 0.0
H698 H 0.74471 0.76326 0.76212 0.0
H699 H 0.94137 1.01794 0.72593 0.0
H700 H 0.98556 0.99324 0.73843 0.0
H701 H 0.726 0.81742 0.75797 0.0
H702 H 1.00443 0.95147 0.75346 0.0
N703 N 0.89365 0.9435 0.73184 0.0
C704 C 0.88053 0.96867 0.72557 0.0
C705 C 0.92819 0.99703 0.7277 0.0
C706 C 0.94098 0.97202 0.73486 0.0
C707 C 0.89761 0.99559 0.7233 0.0
C708 C 0.92262 0.94553 0.73715 0.0
H709 H 0.99347 0.90315 0.76683 0.0
N710 N 0.91319 0.89915 0.74934 0.0
C711 C 0.95017 0.8793 0.76568 0.0
C712 C 0.93278 0.92259 0.74607 0.0
C713 C 0.92106 0.87832 0.75949 0.0
C714 C 0.971 0.90236 0.76193 0.0
C715 C 0.96224 0.92473 0.75224 0.0
O716 O 0.81884 0.91345 0.74421 0.0
O717 O 0.84278 0.85112 0.74156 0.0
O718 O 0.80814 0.87879 0.70904 0.0
O719 O 0.83238 0.92123 0.71823 0.0
O720 O 0.85335 0.87538 0.75854 0.0
O721 O 0.85919 0.93883 0.75087 0.0
O722 O 0.79625 0.82878 0.70755 0.0
O723 O 0.85901 0.88074 0.7167 0.0
O724 O 0.91181 0.86737 0.73312 0.0
O725 O 0.89333 0.82148 0.72381 0.0
O726 O 0.87822 0.84601 0.70444 0.0
O727 O 0.83652 0.80134 0.70244 0.0
C728 C 0.84042 0.84982 0.75512 0.0
C729 C 0.81696 0.93648 0.76635 0.0
C730 C 0.77664 0.95406 0.78218 0.0
C731 C 0.78827 0.95063 0.76864 0.0
C732 C 0.79313 0.94061 0.79323 0.0
C733 C 0.83375 0.92487 0.77765 0.0
C734 C 0.82136 0.92604 0.79093 0.0
C735 C 0.81006 0.91037 0.70927 0.0
C736 C 0.82948 0.93525 0.75219 0.0
C737 C 0.98161 0.94968 0.74896 0.0
C738 C 0.9709 0.97341 0.74037 0.0
C739 C 0.87906 0.87507 0.70755 0.0
C740 C 0.80278 0.81545 0.68412 0.0
C741 C 0.81148 0.79295 0.67465 0.0
C742 C 0.80811 0.79797 0.66043 0.0
C743 C 0.7954 0.82567 0.65557 0.0
C744 C 0.78922 0.84302 0.67927 0.0
C745 C 0.7855 0.848 0.66505 0.0
C746 C 0.91819 0.83785 0.72879 0.0
C747 C 0.80855 0.80941 0.69889 0.0
H748 H 0.77575 0.96021 0.75993 0.0
H749 H 0.78541 0.94309 0.80382 0.0
H750 H 0.8566 0.91525 0.77633 0.0
H751 H 0.83432 0.9168 0.79957 0.0
H752 H 0.82221 0.7718 0.67835 0.0
H753 H 0.79344 0.83005 0.64457 0.0
H754 H 0.78176 0.86076 0.68637 0.0
H755 H 0.77543 0.86941 0.66138 0.0
Eu756 Eu 0.93282 0.1144 0.49263 0.0
C757 C 1.02877 0.04304 0.49387 0.0
C758 C 0.07865 0.06545 0.4992 0.0
C759 C 0.06472 1.01536 0.50874 0.0
C760 C 0.04978 0.06709 0.49246 0.0
C761 C 1.03622 1.01677 0.50187 0.0
C762 C 0.0858 1.0397 0.50747 0.0
C763 C 0.98618 0.99562 0.49621 0.0
N764 N 1.00069 0.04568 0.48771 0.0
C765 C 0.97963 1.02225 0.48854 0.0
C766 C 1.01456 0.99288 0.50293 0.0
Eu767 Eu 0.99351 0.08917 0.47323 0.0
N768 N 0.04231 0.09175 0.48436 0.0
C769 C 0.06378 0.1141 0.48166 0.0
C770 C 0.09977 0.08947 0.49724 0.0
C771 C 0.09245 0.11368 0.48828 0.0
H772 H 0.95766 1.0242 0.48337 0.0
H773 H 0.10914 0.13173 0.48625 0.0
H774 H 0.10777 1.0382 0.51278 0.0
H775 H 0.9693 0.97728 0.49696 0.0
H776 H 0.05944 0.13194 0.4741 0.0
H777 H 0.81305 0.11058 0.47405 0.0
H778 H 0.12214 0.08907 0.50224 0.0
H779 H 0.95562 0.16688 0.51775 0.0
H780 H 0.86164 0.08903 0.48262 0.0
H781 H 0.94536 0.22046 0.5241 0.0
H782 H 0.07067 0.99555 0.51507 0.0
H783 H 0.80397 0.16697 0.47488 0.0
H784 H 0.82168 0.219 0.48293 0.0
H785 H 1.01944 0.97236 0.50899 0.0
H786 H 0.85871 0.24949 0.49645 0.0
N787 N 0.88291 0.13299 0.48603 0.0
C788 C 0.85936 0.11383 0.48206 0.0
C789 C 0.82602 0.15768 0.47816 0.0
C790 C 0.84861 0.17678 0.4839 0.0
C791 C 0.83111 0.1259 0.47761 0.0
C792 C 0.87703 0.1635 0.48799 0.0
H793 H 0.90434 0.24994 0.51226 0.0
N794 N 0.92206 0.16543 0.50146 0.0
C795 C 0.93194 0.20964 0.516 0.0
C796 C 0.89752 0.18042 0.49584 0.0
C797 C 0.93761 0.17891 0.5123 0.0
C798 C 0.90893 0.22626 0.50923 0.0
C799 C 0.89052 0.21133 0.49945 0.0
O800 O 0.92285 0.0688 0.50132 0.0
O801 O 0.97632 0.0845 0.49578 0.0
O802 O 0.95139 0.05892 0.4627 0.0
O803 O 0.90998 0.08111 0.47356 0.0
O804 O 0.97029 0.1187 0.5097 0.0
O805 O 0.90059 0.1091 0.50984 0.0
O806 O 0.99727 0.04897 0.45991 0.0
O807 O 0.94828 0.10955 0.47171 0.0
O808 O 0.96422 0.16167 0.48919 0.0
O809 O 1.00709 0.14434 0.47723 0.0
O810 O 0.98169 0.13042 0.45945 0.0
O811 O 1.0291 0.08686 0.45716 0.0
C812 C 0.98769 0.09512 0.50735 0.0
C813 C 0.91289 0.06833 0.52519 0.0
C814 C 0.90562 1.02897 0.54309 0.0
C815 C 0.90168 1.0394 0.52936 0.0
C816 C 0.92389 0.04705 0.55209 0.0
C817 C 0.93012 0.08624 0.53448 0.0
C818 C 0.93625 0.07519 0.54773 0.0
C819 C 0.92008 0.05992 0.46384 0.0
C820 C 0.90572 0.07962 0.51122 0.0
C821 C 0.86406 0.22561 0.49403 0.0
C822 C 0.84295 0.20825 0.48635 0.0
C823 C 0.95289 0.13039 0.46291 0.0
C824 C 1.0144 0.05846 0.43723 0.0
C825 C 1.03839 0.06799 0.4287 0.0
C826 C 1.03495 0.06823 0.41432 0.0
C827 C 1.00735 0.058 0.40833 0.0
C828 C 0.98689 0.04752 0.43121 0.0
C829 C 0.98354 0.04717 0.41681 0.0
C830 C 0.99227 0.16867 0.4835 0.0
C831 C 1.01887 0.06069 0.45227 0.0
H832 H 0.88886 1.02575 0.52195 0.0
H833 H 0.92739 1.04064 0.56278 0.0
H834 H 0.93873 0.10877 0.53156 0.0
H835 H 0.9497 0.08904 0.55484 0.0
H836 H 0.05943 0.07681 0.43335 0.0
H837 H 1.00417 0.05878 0.39722 0.0
H838 H 0.96792 1.03962 0.43754 0.0
H839 H 0.96222 1.0391 0.41223 0.0
Eu840 Eu 0.71813 0.18548 0.23858 0.0
C841 C 0.78836 0.28133 0.23948 0.0
C842 C 0.76639 0.33157 0.24484 0.0
C843 C 0.81629 0.31706 0.25433 0.0
C844 C 0.76446 0.30265 0.23812 0.0
C845 C 0.81464 0.28851 0.24747 0.0
C846 C 0.79219 0.33845 0.25307 0.0
C847 C 0.83541 0.23819 0.24172 0.0
N848 N 0.78553 0.25321 0.23332 0.0
C849 C 0.80882 0.23194 0.23404 0.0
C850 C 0.83831 0.26655 0.2485 0.0
Eu851 Eu 0.74185 0.24651 0.21905 0.0
N852 N 0.73969 0.29543 0.23008 0.0
C853 C 0.7176 0.3172 0.22736 0.0
C854 C 0.74261 0.35302 0.24288 0.0
C855 C 0.71834 0.34595 0.23396 0.0
H856 H 0.80671 0.21007 0.22874 0.0
H857 H 0.70047 0.36287 0.23194 0.0
H858 H 0.7939 0.36046 0.25837 0.0
H859 H 0.85364 0.22114 0.24241 0.0
H860 H 0.69969 0.31293 0.21985 0.0
H861 H 0.72007 0.06461 0.22147 0.0
H862 H 0.74324 0.37544 0.24788 0.0
H863 H 0.66536 0.21495 0.26253 0.0
H864 H 0.74211 0.11431 0.22811 0.0
H865 H 0.6132 0.20465 0.27036 0.0
H866 H 0.83612 0.32281 0.26064 0.0
H867 H 0.66458 0.05454 0.22503 0.0
H868 H 0.61423 0.07206 0.23481 0.0
H869 H 0.85884 0.27121 0.25454 0.0
H870 H 0.58485 0.11075 0.24789 0.0
N871 N 0.69877 0.13526 0.23314 0.0
C872 C 0.71744 0.11168 0.22869 0.0
C873 C 0.67394 0.07714 0.22743 0.0
C874 C 0.6556 0.10002 0.23348 0.0
C875 C 0.70519 0.08278 0.22534 0.0
C876 C 0.66891 0.12916 0.23643 0.0
H877 H 0.5845 0.15972 0.26142 0.0
N878 N 0.66757 0.17659 0.24843 0.0
C879 C 0.62395 0.18931 0.26293 0.0
C880 C 0.6527 0.1506 0.24416 0.0
C881 C 0.65411 0.19476 0.25848 0.0
C882 C 0.60775 0.16409 0.25779 0.0
C883 C 0.62238 0.14379 0.24868 0.0
O884 O 0.76443 0.17463 0.24605 0.0
O885 O 0.74728 0.22947 0.24164 0.0
O886 O 0.77041 0.20412 0.20756 0.0
O887 O 0.7519 0.16262 0.2197 0.0
O888 O 0.71604 0.22089 0.25656 0.0
O889 O 0.72485 0.15251 0.25541 0.0
O890 O 0.7828 0.25197 0.2064 0.0
O891 O 0.7219 0.20109 0.21757 0.0
O892 O 0.67005 0.21537 0.23423 0.0
O893 O 0.68737 0.26053 0.22409 0.0
O894 O 0.70062 0.23448 0.20539 0.0
O895 O 0.74325 0.28121 0.20253 0.0
C896 C 0.73778 0.24001 0.25361 0.0
C897 C 0.76951 0.15863 0.26922 0.0
C898 C 0.80792 0.13751 0.28514 0.0
C899 C 0.79571 0.14056 0.2717 0.0
C900 C 0.79532 0.1563 0.29569 0.0
C901 C 0.75701 0.17662 0.27987 0.0
C902 C 0.77052 0.1761 0.29296 0.0
C903 C 0.7712 0.17281 0.20925 0.0
C904 C 0.75466 0.15608 0.25566 0.0
C905 C 0.6082 0.11608 0.24467 0.0
C906 C 0.62492 0.09405 0.23723 0.0
C907 C 0.70092 0.20558 0.20881 0.0
C908 C 0.7744 0.26671 0.18331 0.0
C909 C 0.76213 0.2882 0.17418 0.0
C910 C 0.76536 0.28447 0.1599 0.0
C911 C 0.78088 0.25875 0.15455 0.0
C912 C 0.79085 0.24121 0.17799 0.0
C913 C 0.79385 0.2372 0.16366 0.0
C914 C 0.66293 0.24437 0.22949 0.0
C915 C 0.7704 0.27221 0.19822 0.0
H916 H 0.8054 0.12776 0.26312 0.0
H917 H 0.8033 0.15483 0.30626 0.0
H918 H 0.7367 0.19067 0.27816 0.0
H919 H 0.76083 0.19 0.30121 0.0
H920 H 0.74969 0.30808 0.17821 0.0
H921 H 0.78311 0.25554 0.14348 0.0
H922 H 0.80144 0.22447 0.18483 0.0
H923 H 0.80625 0.21741 0.15964 0.0
Eu924 Eu 0.64857 0.96927 0.99222 0.0
C925 C 0.55716 0.04259 0.99529 0.0
C926 C 0.50569 1.02477 1.00121 0.0
C927 C 0.52476 0.07323 1.01063 0.0
C928 C 0.5339 1.02054 0.99415 0.0
C929 C 0.55285 0.06901 1.00364 0.0
C930 C 0.50126 0.05121 1.00942 0.0
C931 C 0.60507 0.08443 0.99816 0.0
N932 N 0.5846 1.0374 0.98885 0.0
C933 C 0.60827 0.05799 0.98997 0.0
C934 C 0.57722 0.09002 1.005 0.0
Eu935 Eu 0.5857 0.99466 0.9738 0.0
N936 N 0.53892 0.99487 0.98631 0.0
C937 C 0.51611 0.97349 0.98451 0.0
C938 C 0.48276 1.00222 0.99988 0.0
C939 C 0.48795 0.97657 0.99143 0.0
H940 H 0.6296 0.05415 0.98452 0.0
H941 H 0.47003 0.95943 0.99006 0.0
H942 H 0.4798 0.05473 1.01495 0.0
H943 H 0.624 0.10057 0.99913 0.0
H944 H 0.51901 0.95449 0.97739 0.0
H945 H 0.76203 0.94632 0.96957 0.0
H946 H 0.46084 1.00459 1.00517 0.0
H947 H 0.61486 0.92872 1.01851 0.0
H948 H 0.71702 0.97749 0.97588 0.0
H949 H 0.61958 0.8781 1.02973 0.0
H950 H 0.52111 0.09331 1.01714 0.0
H951 H 0.76458 0.89118 0.9762 0.0
H952 H 0.7415 0.84685 0.98922 0.0
H953 H 0.57486 0.11047 1.01138 0.0
H954 H 0.7028 0.8284 1.00587 0.0
N955 N 0.69247 0.94014 0.98521 0.0
C956 C 0.71697 0.95333 0.97851 0.0
C957 C 0.74441 0.90474 0.97888 0.0
C958 C 0.72049 0.89201 0.98673 0.0
C959 C 0.74304 0.93581 0.97512 0.0
C960 C 0.69486 0.91079 0.99011 0.0
H961 H 0.65822 0.84037 1.02145 0.0
N962 N 0.65125 0.9207 1.00401 0.0
C963 C 0.63491 0.88415 1.02131 0.0
C964 C 0.67359 0.90074 0.99978 0.0
C965 C 0.63267 0.91316 1.01501 0.0
C966 C 0.65658 0.86284 1.01654 0.0
C967 C 0.67664 0.87116 1.00584 0.0
O968 O 0.66427 1.01515 0.99839 0.0
O969 O 0.60107 0.9908 0.9964 0.0
O970 O 0.62808 1.02322 0.96213 0.0
O971 O 0.67047 1.0036 0.9734 0.0
O972 O 0.62632 0.98125 1.01335 0.0
O973 O 0.68869 0.97441 1.00565 0.0
O974 O 0.57803 1.03666 0.96206 0.0
O975 O 0.63092 0.97466 0.97147 0.0
O976 O 0.61595 0.92236 0.98892 0.0
O977 O 0.572 0.93968 0.97751 0.0
O978 O 0.59652 0.95471 0.95925 0.0
O979 O 0.54829 0.9971 0.95866 0.0
C980 C 0.60034 0.99341 1.00998 0.0
C981 C 0.68953 1.01904 1.01995 0.0
C982 C 0.7146 0.05941 1.03364 0.0
C983 C 0.70568 0.047 1.02075 0.0
C984 C 0.7031 0.04502 1.04573 0.0
C985 C 0.67919 1.00473 1.0321 0.0
C986 C 0.68512 1.0183 1.04489 0.0
C987 C 0.65955 1.02352 0.96333 0.0
C988 C 0.68611 1.00444 1.00631 0.0
C989 C 0.7004 0.85134 1.00148 0.0
C990 C 0.72239 0.86181 0.99198 0.0
C991 C 0.62549 0.95429 0.96248 0.0
C992 C 0.55738 1.03085 0.93972 0.0
C993 C 0.53272 1.021 0.9317 0.0
C994 C 0.53307 1.02463 0.91735 0.0
C995 C 0.55825 1.03896 0.9109 0.0
C996 C 0.58231 0.04608 0.93333 0.0
C997 C 0.58263 0.05013 0.91896 0.0
C998 C 0.58741 0.9154 0.98355 0.0
C999 C 0.55597 1.02493 0.95465 0.0
H1000 H 0.71256 0.05791 1.01117 0.0
H1001 H 0.70923 0.05299 0.05595 0.0
H1002 H 0.66714 0.98285 1.03179 0.0
H1003 H 0.67713 1.00717 0.05426 0.0
H1004 H 0.51363 1.00905 0.93664 0.0
H1005 H 0.55912 1.04119 0.89974 0.0
H1006 H 0.60152 0.0546 0.93937 0.0
H1007 H 0.60203 0.06145 0.91405 0.0
Eu1008 Eu 0.86285 0.18733 0.86374 0.0
C1009 C 0.79231 0.28163 0.86302 0.0
C1010 C 0.81204 0.33291 0.85792 0.0
C1011 C 0.76288 0.3165 0.8483 0.0
C1012 C 0.81519 0.30397 0.86452 0.0
C1013 C 0.76592 0.28775 0.85492 0.0
C1014 C 0.7859 0.33896 0.84976 0.0
C1015 C 0.74831 0.23581 0.85977 0.0
N1016 N 0.79648 0.25343 0.86897 0.0
C1017 C 0.77492 0.23069 0.86762 0.0
C1018 C 0.74374 0.26447 0.85341 0.0
Eu1019 Eu 0.83948 0.24904 0.88368 0.0
N1020 N 0.84036 0.29751 0.87244 0.0
C1021 C 0.86208 0.31967 0.87492 0.0
C1022 C 0.83515 0.35508 0.85981 0.0
C1023 C 0.86012 0.34852 0.86844 0.0
H1024 H 0.77815 0.20867 0.87264 0.0
H1025 H 0.8776 0.36588 0.87031 0.0
H1026 H 0.78322 0.36101 0.84456 0.0
H1027 H 0.73131 0.21766 0.85864 0.0
H1028 H 0.8806 0.31562 0.88216 0.0
H1029 H 0.88294 0.0701 0.88297 0.0
H1030 H 0.8336 0.37755 0.85489 0.0
H1031 H 0.90357 0.22378 0.83817 0.0
H1032 H 0.85333 0.11724 0.87851 0.0
H1033 H 0.95341 0.21903 0.8264 0.0
H1034 H 0.74291 0.3215 0.84194 0.0
H1035 H 0.93726 0.06633 0.8754 0.0
H1036 H 0.98168 0.08977 0.86266 0.0
H1037 H 0.72321 0.26826 0.84724 0.0
H1038 H 1.00084 0.13045 0.84714 0.0
N1039 N 0.89089 0.14172 0.86935 0.0
C1040 C 0.87723 0.11676 0.87554 0.0
C1041 C 0.92444 0.08747 0.87357 0.0
C1042 C 0.93765 0.11212 0.86634 0.0
C1043 C 0.89382 0.08951 0.87787 0.0
C1044 C 0.91979 0.139 0.86402 0.0
H1045 H 0.98998 0.17788 0.83315 0.0
N1046 N 0.91091 0.1851 0.85157 0.0
C1047 C 0.94719 0.20269 0.83441 0.0
C1048 C 0.93018 0.16143 0.85493 0.0
C1049 C 0.91859 0.20495 0.84102 0.0
C1050 C 0.96786 0.17959 0.83833 0.0
C1051 C 0.95927 0.15821 0.84847 0.0
O1052 O 0.85641 0.14802 0.84991 0.0
O1053 O 0.84177 0.23552 0.86072 0.0
O1054 O 0.81075 0.20604 0.89469 0.0
O1055 O 0.82888 0.16429 0.88247 0.0
O1056 O 0.85124 0.21216 0.84322 0.0
O1057 O 0.81666 0.17429 0.85675 0.0
O1058 O 0.79767 0.25691 0.89546 0.0
O1059 O 0.85859 0.20307 0.88484 0.0
O1060 O 0.91033 0.2192 0.86728 0.0
O1061 O 0.89422 0.26245 0.87961 0.0
O1062 O 0.87998 0.23589 0.89746 0.0
O1063 O 0.83882 0.28289 0.90055 0.0
C1064 C 0.83897 0.23766 0.84716 0.0
C1065 C 0.81412 0.15181 0.83451 0.0
C1066 C 0.77439 0.13316 0.81862 0.0
C1067 C 0.78571 0.13722 0.83218 0.0
C1068 C 0.79075 0.14692 0.80759 0.0
C1069 C 0.83065 0.16395 0.82325 0.0
C1070 C 0.81845 0.1624 0.80996 0.0
C1071 C 0.80972 0.1747 0.89293 0.0
C1072 C 0.82679 0.15247 0.84864 0.0
C1073 C 0.97828 0.13301 0.85184 0.0
C1074 C 0.9674 0.10989 0.8607 0.0
C1075 C 0.87952 0.20719 0.89371 0.0
C1076 C 0.80489 0.26906 0.91893 0.0
C1077 C 0.8162 0.28976 0.92864 0.0
C1078 C 0.81163 0.28475 0.94279 0.0
C1079 C 0.79556 0.25866 0.94738 0.0
C1080 C 0.78792 0.24318 0.92349 0.0
C1081 C 0.78345 0.238 0.93766 0.0
C1082 C 0.91793 0.24726 0.87306 0.0
C1083 C 0.8107 0.27554 0.9042 0.0
H1084 H 0.77331 0.12773 0.84093 0.0
H1085 H 0.78347 0.14412 0.79697 0.0
H1086 H 0.85324 0.17409 0.82462 0.0
H1087 H 0.83125 0.17193 0.80134 0.0
H1088 H 0.82911 0.30986 0.9252 0.0
H1089 H 0.79236 0.25443 0.95833 0.0
H1090 H 0.77813 0.22697 0.91619 0.0
H1091 H 0.7707 0.21791 0.9411 0.0
Eu1092 Eu 0.65007 0.11819 0.61089 0.0
C1093 C 0.5564 0.0422 0.60532 0.0
C1094 C 0.50579 0.06204 0.59921 0.0
C1095 C 0.52377 1.01356 0.58935 0.0
C1096 C 0.53381 0.06493 0.60655 0.0
C1097 C 0.55155 1.0163 0.59671 0.0
C1098 C 0.50099 1.03638 0.59058 0.0
C1099 C 0.60256 0.99819 0.60283 0.0
N1100 N 0.58364 0.04605 0.61206 0.0
C1101 C 0.60642 1.02427 0.61118 0.0
C1102 C 0.57502 0.99418 0.59556 0.0
Eu1103 Eu 0.58609 0.08839 0.62742 0.0
N1104 N 0.53915 0.08974 0.61487 0.0
C1105 C 0.51642 0.11111 0.61712 0.0
C1106 C 0.48327 0.08495 0.60082 0.0
C1107 C 0.48851 0.10941 0.60992 0.0
H1108 H 0.62771 1.02721 0.61682 0.0
H1109 H 0.47078 0.12665 0.61161 0.0
H1110 H 0.47969 1.03393 0.58482 0.0
H1111 H 0.62081 0.98117 0.60202 0.0
H1112 H 0.51917 0.12904 0.62478 0.0
H1113 H 0.76253 0.12895 0.63689 0.0
H1114 H 0.46151 0.0836 0.59534 0.0
H1115 H 0.6221 0.16929 0.5863 0.0
H1116 H 0.71847 0.102 0.62741 0.0
H1117 H 0.62917 0.22282 0.57933 0.0
H1118 H 0.51975 0.99396 0.58261 0.0
H1119 H 0.76818 0.18513 0.63346 0.0
H1120 H 0.74831 0.23387 0.62306 0.0
H1121 H 0.57218 0.97403 0.58902 0.0
H1122 H 0.71155 0.25961 0.60757 0.0
N1123 N 0.69492 0.14275 0.62038 0.0
C1124 C 0.71832 0.12677 0.62676 0.0
C1125 C 0.74763 0.17354 0.62975 0.0
C1126 C 0.72507 0.18956 0.62233 0.0
C1127 C 0.74444 0.14192 0.63179 0.0
C1128 C 0.69889 0.17327 0.61748 0.0
H1129 H 0.66782 0.25548 0.591 0.0
N1130 N 0.65603 0.17033 0.60246 0.0
C1131 C 0.6432 0.21327 0.58755 0.0
C1132 C 0.67874 0.18753 0.60838 0.0
C1133 C 0.63959 0.18244 0.59152 0.0
C1134 C 0.66488 0.23166 0.59421 0.0
C1135 C 0.68356 0.21871 0.60446 0.0
O1136 O 0.68352 0.11865 0.59407 0.0
O1137 O 0.60797 0.0873 0.60593 0.0
O1138 O 0.62821 0.05911 0.63887 0.0
O1139 O 0.67062 0.08306 0.62957 0.0
O1140 O 0.61938 0.11727 0.59106 0.0
O1141 O 0.67176 0.0753 0.60364 0.0
O1142 O 0.58119 0.04641 0.63952 0.0
O1143 O 0.62976 0.11055 0.63106 0.0
O1144 O 0.61784 0.16406 0.61531 0.0
O1145 O 0.57157 0.14351 0.62293 0.0
O1146 O 0.59305 0.12766 0.64276 0.0
O1147 O 0.54782 0.08318 0.642 0.0
C1148 C 0.59927 0.09624 0.59364 0.0
C1149 C 0.72345 0.0817 0.59639 0.0
C1150 C 0.76463 0.04311 0.59618 0.0
C1151 C 0.73317 0.05085 0.59497 0.0
C1152 C 0.78594 0.06653 0.59953 0.0
C1153 C 0.74555 0.10487 0.59883 0.0
C1154 C 0.7764 0.09714 0.6008 0.0
C1155 C 0.65969 0.06102 0.63864 0.0
C1156 C 0.69039 0.0895 0.59522 0.0
C1157 C 0.70785 0.2356 0.61032 0.0
C1158 C 0.72877 0.22096 0.61913 0.0
C1159 C 0.62231 0.12963 0.64033 0.0
C1160 C 0.55864 0.05171 0.66155 0.0
C1161 C 0.53397 0.06249 0.66938 0.0
C1162 C 0.53425 0.06012 0.68381 0.0
C1163 C 0.55922 0.04591 0.69049 0.0
C1164 C 0.58341 1.03682 0.66823 0.0
C1165 C 0.58354 1.03383 0.68265 0.0
C1166 C 0.58785 0.16933 0.61888 0.0
C1167 C 0.55766 0.05645 0.6465 0.0
H1168 H 0.71643 1.03308 0.5925 0.0
H1169 H 0.8104 0.06163 0.60028 0.0
H1170 H 0.73903 0.129 0.5994 0.0
H1171 H 0.79314 0.11509 0.60292 0.0
H1172 H 0.51504 0.07426 0.66424 0.0
H1173 H 0.56002 0.04452 0.70167 0.0
H1174 H 0.60273 1.0278 0.6624 0.0
H1175 H 0.6028 1.0227 0.68777 0.0
Eu1176 Eu 0.71558 0.89605 0.36525 0.0
C1177 C 0.78503 0.79716 0.36335 0.0
C1178 C 0.76171 0.74717 0.35893 0.0
C1179 C 0.81092 0.76013 0.34835 0.0
C1180 C 0.7609 0.7765 0.36533 0.0
C1181 C 0.81047 0.789 0.35498 0.0
C1182 C 0.78657 0.73933 0.35028 0.0
C1183 C 0.83298 0.83883 0.3601 0.0
N1184 N 0.78341 0.82548 0.36938 0.0
C1185 C 0.80718 0.84605 0.36816 0.0
C1186 C 0.83459 0.81024 0.35343 0.0
Eu1187 Eu 0.74084 0.8342 0.38416 0.0
N1188 N 0.73716 0.78462 0.37381 0.0
C1189 C 0.71516 0.76337 0.37731 0.0
C1190 C 0.73788 0.72625 0.36166 0.0
C1191 C 0.71476 0.73424 0.37105 0.0
H1192 H 0.80604 0.86816 0.37332 0.0
H1193 H 0.69691 0.71775 0.37367 0.0
H1194 H 0.78741 0.71701 0.34521 0.0
H1195 H 0.85157 0.85534 0.35901 0.0
H1196 H 0.69814 0.76846 0.38515 0.0
H1197 H 0.71506 1.0168 0.3825 0.0
H1198 H 0.73766 0.70354 0.35694 0.0
H1199 H 0.66332 0.86515 0.34141 0.0
H1200 H 0.73799 0.96724 0.37615 0.0
H1201 H 0.61133 0.87492 0.33328 0.0
H1202 H 0.83008 0.75362 0.34176 0.0
H1203 H 0.65961 1.02629 0.37845 0.0
H1204 H 0.60992 1.0082 0.36831 0.0
H1205 H 0.8545 0.80481 0.34709 0.0
H1206 H 0.58143 0.96906 0.35517 0.0
N1207 N 0.69516 0.94588 0.37071 0.0
C1208 C 0.71332 0.96965 0.37533 0.0
C1209 C 0.66937 1.0038 0.37614 0.0
C1210 C 0.65157 0.98067 0.36999 0.0
C1211 C 0.70058 0.99847 0.37852 0.0
C1212 C 0.66536 0.95165 0.36718 0.0
H1213 H 0.58199 0.91988 0.34184 0.0
N1214 N 0.66498 0.90405 0.35524 0.0
C1215 C 0.62177 0.89057 0.34065 0.0
C1216 C 0.64969 0.92997 0.35936 0.0
C1217 C 0.65188 0.88547 0.34525 0.0
C1218 C 0.60522 0.9158 0.34558 0.0
C1219 C 0.61939 0.9364 0.35468 0.0
O1220 O 0.76201 0.90758 0.35816 0.0
O1221 O 0.74527 0.8524 0.36183 0.0
O1222 O 0.77138 0.87687 0.39429 0.0
O1223 O 0.74734 0.91884 0.38469 0.0
O1224 O 0.71444 0.86153 0.34685 0.0
O1225 O 0.72251 0.92991 0.3488 0.0
O1226 O 0.78221 0.82962 0.39664 0.0
O1227 O 0.72015 0.87929 0.38608 0.0
O1228 O 0.668 0.86599 0.36962 0.0
O1229 O 0.6862 0.82039 0.37906 0.0
O1230 O 0.70008 0.84538 0.3983 0.0
O1231 O 0.74301 0.80053 0.40113 0.0
C1232 C 0.73601 0.84216 0.3498 0.0
C1233 C 0.76749 0.9245 0.33513 0.0
C1234 C 0.80644 0.94587 0.31957 0.0
C1235 C 0.79383 0.94248 0.33292 0.0
C1236 C 0.79401 0.92761 0.3088 0.0
C1237 C 0.75514 0.90707 0.32427 0.0
C1238 C 0.76898 0.90799 0.31125 0.0
C1239 C 0.76949 0.90835 0.39383 0.0
C1240 C 0.75236 0.92649 0.34865 0.0
C1241 C 0.60475 0.96402 0.35853 0.0
C1242 C 0.62095 0.9863 0.36602 0.0
C1243 C 0.69968 0.87435 0.39504 0.0
C1244 C 0.77486 0.81588 0.41995 0.0
C1245 C 0.7671 0.79272 0.42927 0.0
C1246 C 0.7698 0.7975 0.44354 0.0
C1247 C 0.78093 0.8257 0.44859 0.0
C1248 C 0.78682 0.84396 0.42501 0.0
C1249 C 0.7899 0.84874 0.43927 0.0
C1250 C 0.6614 0.83667 0.374 0.0
C1251 C 0.77026 0.80975 0.40511 0.0
H1252 H 0.80336 0.95498 0.34162 0.0
H1253 H 0.80231 0.92943 0.29829 0.0
H1254 H 0.7347 0.89313 0.32577 0.0
H1255 H 0.75941 0.89451 0.30285 0.0
H1256 H 0.75754 0.77119 0.4254 0.0
H1257 H 0.78229 0.82993 0.45961 0.0
H1258 H 0.79356 0.86226 0.41805 0.0
H1259 H 0.79872 0.87053 0.44309 0.0
Eu1260 Eu 0.93509 0.96731 0.1098 0.0
C1261 C 1.02958 1.04004 0.10865 0.0
C1262 C 0.07994 1.01886 0.103 0.0
C1263 C 0.06491 0.06922 0.09407 0.0
C1264 C 0.05118 1.01628 0.10978 0.0
C1265 C 1.03646 0.06689 0.10093 0.0
C1266 C 0.08649 0.04521 0.09503 0.0
C1267 C 0.98588 0.08669 0.10678 0.0
N1268 N 1.00153 1.03656 0.11476 0.0
C1269 C 0.97991 0.05955 0.11416 0.0
C1270 C 1.01426 0.09038 0.10013 0.0
Eu1271 Eu 0.99599 0.99269 0.12908 0.0
N1272 N 0.04436 0.99101 0.11763 0.0
C1273 C 0.06638 0.96903 0.12009 0.0
C1274 C 0.1016 0.99515 0.10466 0.0
C1275 C 0.09493 0.97034 0.11338 0.0
H1276 H 0.95806 0.05687 0.11938 0.0
H1277 H 0.11205 0.95255 0.11519 0.0
H1278 H 0.10839 0.04743 0.08971 0.0
H1279 H 0.96861 0.10474 0.10622 0.0
H1280 H 0.06255 0.9508 0.12752 0.0
H1281 H 0.81628 0.96908 0.12974 0.0
H1282 H 0.1239 0.99626 0.09961 0.0
H1283 H 0.95886 0.91446 0.08512 0.0
H1284 H 0.86375 0.99151 0.12052 0.0
H1285 H 0.94969 0.86042 0.07916 0.0
H1286 H 0.07042 0.08949 0.08796 0.0
H1287 H 0.80847 0.91252 0.12918 0.0
H1288 H 0.82676 0.86081 0.12095 0.0
H1289 H 1.0187 0.11133 0.09431 0.0
H1290 H 0.86389 0.83077 0.10723 0.0
N1291 N 0.88591 0.94798 0.11698 0.0
C1292 C 0.86216 0.9667 0.12118 0.0
C1293 C 0.8301 0.92222 0.12561 0.0
C1294 C 0.85274 0.90351 0.11961 0.0
C1295 C 0.83449 0.9541 0.12601 0.0
C1296 C 0.88062 0.9173 0.11516 0.0
H1297 H 0.90925 0.83066 0.09124 0.0
N1298 N 0.92533 0.91581 0.10142 0.0
C1299 C 0.93609 0.8713 0.0872 0.0
C1300 C 0.90117 0.90058 0.10722 0.0
C1301 C 0.94112 0.90225 0.09066 0.0
C1302 C 0.91337 0.85454 0.09409 0.0
C1303 C 0.89477 0.86944 0.10383 0.0
O1304 O 0.92123 1.0117 0.10094 0.0
O1305 O 0.97834 0.99762 0.10665 0.0
O1306 O 0.95349 1.02066 0.14071 0.0
O1307 O 0.91236 1.00286 0.12813 0.0
O1308 O 0.97296 0.96326 0.09285 0.0
O1309 O 0.90449 0.96955 0.09182 0.0
O1310 O 1.00253 1.0343 0.14113 0.0
O1311 O 0.95084 0.97238 0.13076 0.0
O1312 O 0.9655 0.9198 0.11414 0.0
O1313 O 1.01036 0.93797 0.12416 0.0
O1314 O 0.98472 0.9518 0.14302 0.0
O1315 O 1.03096 0.99439 0.14551 0.0
C1316 C 0.9899 0.98713 0.09511 0.0
C1317 C 0.91349 1.01215 0.0769 0.0
C1318 C 0.90553 0.05301 0.05975 0.0
C1319 C 0.89846 1.03915 0.07259 0.0
C1320 C 0.92935 1.04 0.05169 0.0
C1321 C 0.93529 0.99825 0.06816 0.0
C1322 C 0.94363 1.01252 0.05577 0.0
C1323 C 0.92233 1.02182 0.13876 0.0
C1324 C 0.90634 0.99944 0.09066 0.0
C1325 C 0.86879 0.8548 0.1095 0.0
C1326 C 0.84764 0.8719 0.11729 0.0
C1327 C 0.95588 0.95164 0.1396 0.0
C1328 C 1.01958 1.029 0.16404 0.0
C1329 C 0.04351 1.02076 0.17287 0.0
C1330 C 0.04158 1.02669 0.18706 0.0
C1331 C 1.01536 1.04119 0.19254 0.0
C1332 C 0.99366 0.04451 0.16947 0.0
C1333 C 0.9916 0.05046 0.18368 0.0
C1334 C 0.99447 0.91315 0.11888 0.0
C1335 C 1.02317 1.02237 0.14922 0.0
H1336 H 0.88025 0.04832 0.07907 0.0
H1337 H 0.93635 0.05038 1.042 0.0
H1338 H 0.94622 0.97667 0.07094 0.0
H1339 H 0.96118 1.00218 1.04927 0.0
H1340 H 0.06349 1.00878 0.1687 0.0
H1341 H 1.01331 0.04516 0.20357 0.0
H1342 H 0.9751 0.05209 0.1628 0.0
H1343 H 0.97145 0.06202 0.18782 0.0
Eu1344 Eu 0.74017 0.74691 0.87957 0.0
C1345 C 0.64818 0.65973 0.85178 0.0
C1346 C 0.63881 0.61198 0.86417 0.0
C1347 C 0.59909 0.63297 0.84917 0.0
C1348 C 0.6577 0.63782 0.8613 0.0
C1349 C 0.61902 0.65708 0.84536 0.0
C1350 C 0.60903 0.61037 0.85853 0.0
C1351 C 0.63262 0.70006 0.83067 0.0
N1352 N 0.66823 0.68245 0.84809 0.0
C1353 C 0.66122 0.70186 0.83729 0.0
C1354 C 0.61121 0.67795 0.83487 0.0
Eu1355 Eu 0.71598 0.68439 0.8605 0.0
N1356 N 0.68666 0.63994 0.86658 0.0
C1357 C 0.69943 0.61506 0.87321 0.0
C1358 C 0.65106 0.58763 0.87194 0.0
C1359 C 0.68174 0.58887 0.8762 0.0
H1360 H 0.67681 0.72002 0.83424 0.0
H1361 H 0.69187 0.56959 0.88172 0.0
H1362 H 0.594 0.59106 0.86088 0.0
H1363 H 0.62696 0.71604 0.82243 0.0
H1364 H 0.72337 0.61486 0.87613 0.0
H1365 H 0.70197 0.86431 0.86725 0.0
H1366 H 0.63743 0.56726 0.87421 0.0
H1367 H 0.80102 0.70663 0.86772 0.0
H1368 H 0.69899 0.81344 0.87857 0.0
H1369 H 0.84672 0.71545 0.853 0.0
H1370 H 0.57648 0.63084 0.8445 0.0
H1371 H 0.74579 0.87659 0.85182 0.0
H1372 H 0.79574 0.86016 0.84099 0.0
H1373 H 0.58906 0.67664 0.82971 0.0
H1374 H 0.83534 0.8202 0.83742 0.0
N1375 N 0.73911 0.79569 0.86858 0.0
C1376 C 0.71742 0.81779 0.87131 0.0
C1377 C 0.74425 0.85388 0.85651 0.0
C1378 C 0.7672 0.83165 0.85427 0.0
C1379 C 0.71938 0.84697 0.86515 0.0
C1380 C 0.76407 0.80238 0.86058 0.0
H1381 H 0.85445 0.76628 0.84178 0.0
N1382 N 0.78266 0.75163 0.86453 0.0
C1383 C 0.82999 0.73375 0.85449 0.0
C1384 C 0.78666 0.77992 0.85866 0.0
C1385 C 0.80401 0.72876 0.86277 0.0
C1386 C 0.83433 0.76252 0.84822 0.0
C1387 C 0.81258 0.78605 0.85026 0.0
O1388 O 0.78149 0.75357 0.89186 0.0
O1389 O 0.72057 0.70126 0.88139 0.0
O1390 O 0.66875 0.71652 0.8637 0.0
O1391 O 0.68524 0.76032 0.87545 0.0
O1392 O 0.69972 0.73505 0.89363 0.0
O1393 O 0.74115 0.78162 0.89607 0.0
O1394 O 0.76235 0.66963 0.8546 0.0
O1395 O 0.73741 0.73227 0.85679 0.0
O1396 O 0.7709 0.70415 0.88986 0.0
O1397 O 0.7482 0.66183 0.87985 0.0
O1398 O 0.72887 0.70732 0.83963 0.0
O1399 O 0.72252 0.64437 0.84708 0.0
C1400 C 0.69982 0.70614 0.89025 0.0
C1401 C 0.77345 0.76834 0.91501 0.0
C1402 C 0.76814 0.78808 0.93837 0.0
C1403 C 0.76551 0.79203 0.92404 0.0
C1404 C 0.7794 0.76016 0.94374 0.0
C1405 C 0.78543 0.74053 0.9204 0.0
C1406 C 0.78847 0.7366 0.93471 0.0
C1407 C 0.66135 0.74488 0.86917 0.0
C1408 C 0.76876 0.77351 0.90012 0.0
C1409 C 0.81567 0.81513 0.84396 0.0
C1410 C 0.79306 0.83786 0.84596 0.0
C1411 C 0.74067 0.73332 0.84323 0.0
C1412 C 0.76743 0.64445 0.83304 0.0
C1413 C 0.79524 0.62804 0.83229 0.0
C1414 C 0.80793 0.61947 0.81941 0.0
C1415 C 0.7941 0.63147 0.80731 0.0
C1416 C 0.75353 0.65521 0.82085 0.0
C1417 C 0.76747 0.6496 0.8081 0.0
C1418 C 0.76973 0.67257 0.88922 0.0
C1419 C 0.75243 0.64755 0.84661 0.0
H1420 H 0.75587 0.81329 0.9199 0.0
H1421 H 0.78082 0.75657 0.95481 0.0
H1422 H 0.7922 0.72181 0.91366 0.0
H1423 H 0.79735 0.71505 0.9388 0.0
H1424 H 0.80581 0.62051 0.84186 0.0
H1425 H 0.80244 0.62547 0.79712 0.0
H1426 H 0.73169 0.66732 0.82109 0.0
H1427 H 0.75667 0.65794 0.79871 0.0
Eu1428 Eu 0.58499 0.49585 0.13438 0.0
C1429 C 0.67208 0.40191 0.10718 0.0
C1430 C 0.72158 0.39326 0.11816 0.0
C1431 C 0.69927 0.35317 0.10375 0.0
C1432 C 0.69504 0.4117 0.11612 0.0
C1433 C 0.67419 0.37263 0.10076 0.0
C1434 C 0.72306 0.36357 0.11233 0.0
C1435 C 0.62824 0.38497 0.0878 0.0
N1436 N 0.64852 0.4216 0.10418 0.0
C1437 C 0.62731 0.41391 0.0942 0.0
C1438 C 0.65158 0.36411 0.09119 0.0
Eu1439 Eu 0.64824 0.46984 0.11633 0.0
N1440 N 0.69289 0.4404 0.12177 0.0
C1441 C 0.71787 0.45316 0.12826 0.0
C1442 C 0.7465 0.40573 0.12542 0.0
C1443 C 0.74477 0.43594 0.13036 0.0
H1444 H 0.60838 0.4292 0.09178 0.0
H1445 H 0.76427 0.44612 0.13565 0.0
H1446 H 0.74294 0.34885 0.11408 0.0
H1447 H 0.61082 0.37872 0.08028 0.0
H1448 H 0.71758 0.47686 0.13164 0.0
H1449 H 0.46834 0.45855 0.12077 0.0
H1450 H 0.76749 0.39252 0.12696 0.0
H1451 H 0.62657 0.55601 0.12265 0.0
H1452 H 0.51826 0.45544 0.13284 0.0
H1453 H 0.61915 0.60146 0.10758 0.0
H1454 H 0.70107 0.3305 0.09905 0.0
H1455 H 0.45764 0.50198 0.10483 0.0
H1456 H 0.47528 0.55142 0.09385 0.0
H1457 H 0.65233 0.34178 0.08612 0.0
H1458 H 0.51571 0.5906 0.09061 0.0
N1459 N 0.537 0.49511 0.12282 0.0
C1460 C 0.51457 0.47371 0.1254 0.0
C1461 C 0.47992 0.50039 0.10987 0.0
C1462 C 0.50246 0.52306 0.10777 0.0
C1463 C 0.48594 0.47574 0.11879 0.0
C1464 C 0.53114 0.51988 0.11454 0.0
H1465 H 0.56927 0.60942 0.09565 0.0
N1466 N 0.58168 0.53808 0.11905 0.0
C1467 C 0.60063 0.58496 0.10894 0.0
C1468 C 0.55389 0.54221 0.11279 0.0
C1469 C 0.60483 0.55912 0.11743 0.0
C1470 C 0.57239 0.58944 0.10228 0.0
C1471 C 0.5486 0.56795 0.10413 0.0
O1472 O 0.57813 0.53767 0.14642 0.0
O1473 O 0.63004 0.47544 0.13706 0.0
O1474 O 0.61746 0.4225 0.12076 0.0
O1475 O 0.5713 0.44087 0.1298 0.0
O1476 O 0.5951 0.45617 0.14914 0.0
O1477 O 0.54915 0.49783 0.1503 0.0
O1478 O 0.66344 0.51606 0.11024 0.0
O1479 O 0.60092 0.49174 0.11196 0.0
O1480 O 0.62775 0.52633 0.14477 0.0
O1481 O 0.67037 0.50216 0.13569 0.0
O1482 O 0.62582 0.4813 0.09513 0.0
O1483 O 0.6887 0.47583 0.10316 0.0
C1484 C 0.62419 0.45541 0.1462 0.0
C1485 C 0.56259 0.52924 0.16946 0.0
C1486 C 0.54399 0.51965 0.19272 0.0
C1487 C 0.53968 0.51893 0.17839 0.0
C1488 C 0.57132 0.53159 0.19827 0.0
C1489 C 0.58978 0.54199 0.17503 0.0
C1490 C 0.59398 0.54328 0.18939 0.0
C1491 C 0.58793 0.41599 0.12494 0.0
C1492 C 0.55767 0.52524 0.15451 0.0
C1493 C 0.52011 0.57108 0.09736 0.0
C1494 C 0.49712 0.5487 0.09917 0.0
C1495 C 0.60006 0.49404 0.09839 0.0
C1496 C 0.68919 0.52012 0.08876 0.0
C1497 C 0.7069 0.5471 0.08754 0.0
C1498 C 0.71329 0.55989 0.07444 0.0
C1499 C 0.69913 0.54667 0.06272 0.0
C1500 C 0.67673 0.50645 0.07684 0.0
C1501 C 0.68085 0.52031 0.06396 0.0
C1502 C 0.6593 0.52448 0.14463 0.0
C1503 C 0.6858 0.50579 0.10248 0.0
H1504 H 0.51886 0.50873 0.17411 0.0
H1505 H 0.57517 0.53155 0.20934 0.0
H1506 H 0.6079 0.55054 0.16838 0.0
H1507 H 0.6151 0.55271 0.19361 0.0
H1508 H 0.71694 0.55715 0.09676 0.0
H1509 H 0.70371 0.55529 0.05241 0.0
H1510 H 0.66444 0.48478 0.07731 0.0
H1511 H 0.67104 0.50975 0.05482 0.0
Eu1512 Eu 0.83798 0.33402 0.3793 0.0
C1513 C 0.92815 0.43013 0.35628 0.0
C1514 C 0.92533 0.47907 0.36836 0.0
C1515 C 0.97355 0.46323 0.35781 0.0
C1516 C 0.91165 0.45083 0.36425 0.0
C1517 C 0.95901 0.43677 0.35254 0.0
C1518 C 0.95664 0.48451 0.36561 0.0
C1519 C 0.95716 0.39429 0.3365 0.0
N1520 N 0.913 0.40542 0.35088 0.0
C1521 C 0.92651 0.38898 0.34029 0.0
C1522 C 0.97376 0.41778 0.34291 0.0
Eu1523 Eu 0.86207 0.3955 0.35997 0.0
N1524 N 0.88126 0.44518 0.36655 0.0
C1525 C 0.86256 0.46881 0.37092 0.0
C1526 C 0.90677 0.50167 0.37449 0.0
C1527 C 0.87508 0.49684 0.3754 0.0
H1528 H 0.91466 0.37044 0.33515 0.0
H1529 H 0.86015 0.51498 0.37926 0.0
H1530 H 0.96765 0.5057 0.36899 0.0
H1531 H 0.96796 0.38023 0.3286 0.0
H1532 H 0.83779 0.46682 0.37068 0.0
H1533 H 0.87972 0.21794 0.36619 0.0
H1534 H 0.9164 0.52357 0.3778 0.0
H1535 H 0.77325 0.3706 0.36951 0.0
H1536 H 0.88035 0.26777 0.37839 0.0
H1537 H 0.72639 0.35955 0.35579 0.0
H1538 H 0.99736 0.46832 0.35526 0.0
H1539 H 0.83706 0.20546 0.35019 0.0
H1540 H 0.7864 0.22043 0.33969 0.0
H1541 H 0.99742 0.42205 0.33983 0.0
H1542 H 0.74412 0.25801 0.33745 0.0
N1543 N 0.84042 0.28532 0.36812 0.0
C1544 C 0.8625 0.26355 0.37083 0.0
C1545 C 0.83764 0.22784 0.35522 0.0
C1546 C 0.81382 0.24926 0.35328 0.0
C1547 C 0.86185 0.23486 0.36418 0.0
C1548 C 0.81568 0.27812 0.36005 0.0
H1549 H 0.7213 0.30952 0.34361 0.0
N1550 N 0.79446 0.32748 0.36492 0.0
C1551 C 0.74463 0.34252 0.35648 0.0
C1552 C 0.79173 0.29942 0.35871 0.0
C1553 C 0.77118 0.34876 0.36419 0.0
C1554 C 0.74179 0.31418 0.34967 0.0
C1555 C 0.76549 0.29225 0.35069 0.0
O1556 O 0.7966 0.32691 0.39146 0.0
O1557 O 0.85783 0.37955 0.38095 0.0
O1558 O 0.90984 0.36546 0.36413 0.0
O1559 O 0.89257 0.32021 0.37423 0.0
O1560 O 0.8789 0.34572 0.39307 0.0
O1561 O 0.83712 0.29971 0.39606 0.0
O1562 O 0.81648 0.40681 0.35174 0.0
O1563 O 0.83287 0.3516 0.35681 0.0
O1564 O 0.80947 0.37647 0.3908 0.0
O1565 O 0.82749 0.41804 0.37854 0.0
O1566 O 0.86555 0.35894 0.34243 0.0
O1567 O 0.85691 0.42795 0.34279 0.0
C1568 C 0.87871 0.37466 0.38972 0.0
C1569 C 0.8037 0.31302 0.41473 0.0
C1570 C 0.81009 0.29578 0.43842 0.0
C1571 C 0.81474 0.29153 0.42423 0.0
C1572 C 0.79429 0.32185 0.44327 0.0
C1573 C 0.78685 0.33874 0.41957 0.0
C1574 C 0.78238 0.34316 0.43378 0.0
C1575 C 0.91697 0.33651 0.36886 0.0
C1576 C 0.80927 0.30743 0.39991 0.0
C1577 C 0.76392 0.26375 0.34379 0.0
C1578 C 0.78806 0.2424 0.34502 0.0
C1579 C 0.84291 0.34062 0.34504 0.0
C1580 C 0.81451 0.4182 0.328 0.0
C1581 C 0.7862 0.43169 0.32442 0.0
C1582 C 0.77459 0.42943 0.31082 0.0
C1583 C 0.79071 0.41055 0.30132 0.0
C1584 C 0.83048 0.40031 0.31825 0.0
C1585 C 0.81815 0.39588 0.3051 0.0
C1586 C 0.80842 0.40776 0.38902 0.0
C1587 C 0.82722 0.424 0.34183 0.0
H1588 H 0.82753 0.27153 0.42058 0.0
H1589 H 0.7911 0.32555 0.45425 0.0
H1590 H 0.77711 0.35539 0.41245 0.0
H1591 H 0.76974 0.36316 0.43744 0.0
H1592 H 0.77402 0.44494 0.33219 0.0
H1593 H 0.78334 0.40828 0.29068 0.0
H1594 H 0.85251 0.38993 0.32073 0.0
H1595 H 0.8305 0.38195 0.29761 0.0
Eu1596 Eu 0.99541 0.59206 0.63325 0.0
C1597 C 0.89952 0.6818 0.60858 0.0
C1598 C 0.84939 0.67951 0.61961 0.0
C1599 C 0.86553 0.72683 0.60832 0.0
C1600 C 0.87823 0.66583 0.61646 0.0
C1601 C 0.8929 0.71227 0.60411 0.0
C1602 C 0.84363 0.71035 0.61592 0.0
C1603 C 0.93788 0.71016 0.58957 0.0
N1604 N 0.92518 0.66659 0.60414 0.0
C1605 C 0.94318 0.67987 0.59399 0.0
C1606 C 0.91302 0.72668 0.59486 0.0
Eu1607 Eu 0.93396 0.61589 0.61398 0.0
N1608 N 0.88415 0.63584 0.6197 0.0
C1609 C 0.86057 0.61739 0.62428 0.0
C1610 C 0.82656 0.66139 0.62579 0.0
C1611 C 0.83195 0.62999 0.62783 0.0
H1612 H 0.96312 0.66836 0.58984 0.0
H1613 H 0.81379 0.61529 0.6318 0.0
H1614 H 0.8219 0.72134 0.61851 0.0
H1615 H 0.95309 0.72075 0.58205 0.0
H1616 H 0.863 0.59264 0.62485 0.0
H1617 H 0.11124 0.6332 0.6198 0.0
H1618 H 0.80419 0.67104 0.62836 0.0
H1619 H 0.95878 0.52714 0.62379 0.0
H1620 H 0.06159 0.63427 0.63206 0.0
H1621 H 0.9697 0.47983 0.61028 0.0
H1622 H 0.86036 0.75031 0.60515 0.0
H1623 H 0.12356 0.59008 0.60396 0.0
H1624 H 0.1085 0.53915 0.5937 0.0
H1625 H 0.90879 0.75005 0.59127 0.0
H1626 H 0.07094 0.49686 0.59171 0.0
N1627 N 0.04395 0.59412 0.62198 0.0
C1628 C 0.06571 0.61623 0.62457 0.0
C1629 C 0.10125 0.59085 0.60902 0.0
C1630 C 0.07981 0.56704 0.6072 0.0
C1631 C 0.09431 0.61533 0.61789 0.0
C1632 C 0.05104 0.56916 0.61399 0.0
H1633 H 1.01956 0.47429 0.59805 0.0
N1634 N 1.00178 0.54819 0.61902 0.0
C1635 C 0.98672 0.49808 0.61086 0.0
C1636 C 1.02975 0.54522 0.61278 0.0
C1637 C 0.98054 0.5249 0.61844 0.0
C1638 C 1.01495 0.49499 0.60402 0.0
C1639 C 1.03685 0.51871 0.60488 0.0
O1640 O 1.0017 0.55088 0.64571 0.0
O1641 O 0.95005 0.61207 0.63492 0.0
O1642 O 0.9638 0.66392 0.61826 0.0
O1643 O 1.00922 0.64664 0.62813 0.0
O1644 O 0.98361 0.63327 0.64702 0.0
O1645 O 1.03009 0.59088 0.64976 0.0
O1646 O 0.92215 0.56947 0.60694 0.0
O1647 O 0.9778 0.58669 0.61077 0.0
O1648 O 0.95312 0.56367 0.64488 0.0
O1649 O 0.91141 0.58231 0.63295 0.0
O1650 O 0.9688 0.61746 0.59574 0.0
O1651 O 0.90102 0.60923 0.59716 0.0
C1652 C 0.95472 0.63301 0.64369 0.0
C1653 C 1.01632 0.55882 0.66883 0.0
C1654 C 1.03386 0.56718 0.69232 0.0
C1655 C 1.03764 0.57097 0.67806 0.0
C1656 C 1.00837 0.55115 0.69754 0.0
C1657 C 0.99108 0.54185 0.67402 0.0
C1658 C 0.98709 0.53826 0.68832 0.0
C1659 C 0.99283 0.67109 0.62283 0.0
C1660 C 1.02169 0.56341 0.65394 0.0
C1661 C 0.06525 0.51687 0.59795 0.0
C1662 C 0.0866 0.54102 0.59905 0.0
C1663 C 0.98814 0.59587 0.59871 0.0
C1664 C 0.90579 0.56343 0.58389 0.0
C1665 C 0.88743 0.53724 0.58194 0.0
C1666 C 0.8838 0.52403 0.56872 0.0
C1667 C 0.90229 0.53562 0.55784 0.0
C1668 C 0.92353 0.5749 0.57293 0.0
C1669 C 0.9224 0.56041 0.56006 0.0
C1670 C 0.92182 0.56295 0.64333 0.0
C1671 C 0.90384 0.57925 0.59724 0.0
H1672 H 0.05734 0.58378 0.67414 0.0
H1673 H 1.00513 0.54851 0.70859 0.0
H1674 H 0.97454 0.53131 0.66711 0.0
H1675 H 0.96748 0.52548 0.69225 0.0
H1676 H 0.87486 0.52831 0.59075 0.0
H1677 H 0.90037 0.52684 0.54742 0.0
H1678 H 0.93787 0.59515 0.57426 0.0
H1679 H 0.93609 0.5693 0.55158 0.0
Eu1680 Eu 0.74156 0.33914 0.72348 0.0
C1681 C 0.64955 0.43395 0.74568 0.0
C1682 C 0.65224 0.48287 0.73359 0.0
C1683 C 0.60379 0.46654 0.74375 0.0
C1684 C 0.66608 0.45472 0.73777 0.0
C1685 C 0.61851 0.44032 0.74921 0.0
C1686 C 0.62074 0.48797 0.73606 0.0
C1687 C 0.62066 0.39853 0.76565 0.0
N1688 N 0.66487 0.40961 0.75133 0.0
C1689 C 0.65152 0.39358 0.76207 0.0
C1690 C 0.6038 0.42145 0.75891 0.0
Eu1691 Eu 0.71624 0.4001 0.7428 0.0
N1692 N 0.69664 0.44938 0.73574 0.0
C1693 C 0.71523 0.47322 0.73156 0.0
C1694 C 0.67081 0.50578 0.72772 0.0
C1695 C 0.70259 0.50123 0.72706 0.0
H1696 H 0.66381 0.37568 0.7675 0.0
H1697 H 0.71747 0.51956 0.72338 0.0
H1698 H 0.6096 0.50903 0.73258 0.0
H1699 H 0.60994 0.38472 0.77365 0.0
H1700 H 0.74001 0.47151 0.73204 0.0
H1701 H 0.70248 0.22279 0.73772 0.0
H1702 H 0.66108 0.52763 0.72439 0.0
H1703 H 0.8056 0.37738 0.73288 0.0
H1704 H 0.70016 0.27232 0.72537 0.0
H1705 H 0.85356 0.3672 0.74593 0.0
H1706 H 0.57984 0.47142 0.74613 0.0
H1707 H 0.74658 0.21107 0.75305 0.0
H1708 H 0.79776 0.22685 0.76271 0.0
H1709 H 0.58 0.42553 0.76185 0.0
H1710 H 0.83945 0.26515 0.7643 0.0
N1711 N 0.74057 0.29064 0.73495 0.0
C1712 C 0.71861 0.26855 0.73268 0.0
C1713 C 0.74525 0.23337 0.74797 0.0
C1714 C 0.76885 0.25515 0.74948 0.0
C1715 C 0.72023 0.23997 0.7394 0.0
C1716 C 0.76599 0.28391 0.74268 0.0
H1717 H 0.86069 0.31712 0.75789 0.0
N1718 N 0.78576 0.33369 0.73755 0.0
C1719 C 0.83571 0.34975 0.74542 0.0
C1720 C 0.78955 0.30565 0.7437 0.0
C1721 C 0.80852 0.3555 0.73808 0.0
C1722 C 0.83971 0.32139 0.7521 0.0
C1723 C 0.81646 0.29898 0.75136 0.0
O1724 O 0.78216 0.33397 0.71057 0.0
O1725 O 0.72115 0.38443 0.72183 0.0
O1726 O 0.66888 0.36951 0.73854 0.0
O1727 O 0.68709 0.32464 0.72844 0.0
O1728 O 0.70036 0.35035 0.70975 0.0
O1729 O 0.74339 0.30336 0.70748 0.0
O1730 O 0.76046 0.41407 0.75167 0.0
O1731 O 0.74671 0.35691 0.74583 0.0
O1732 O 0.76939 0.38158 0.71186 0.0
O1733 O 0.75161 0.42289 0.72441 0.0
O1734 O 0.71265 0.36202 0.75974 0.0
O1735 O 0.71833 0.43088 0.76074 0.0
C1736 C 0.70035 0.37929 0.71307 0.0
C1737 C 0.77353 0.31683 0.68785 0.0
C1738 C 0.76386 0.29684 0.66488 0.0
C1739 C 0.76195 0.29396 0.67924 0.0
C1740 C 0.77759 0.32297 0.65895 0.0
C1741 C 0.78835 0.34265 0.68195 0.0
C1742 C 0.7902 0.3457 0.66754 0.0
C1743 C 0.66232 0.34048 0.7338 0.0
C1744 C 0.77015 0.31265 0.70286 0.0
C1745 C 0.81912 0.27052 0.75824 0.0
C1746 C 0.79531 0.24875 0.75737 0.0
C1747 C 0.73651 0.3451 0.75736 0.0
C1748 C 0.76072 0.42176 0.7757 0.0
C1749 C 0.78788 0.43639 0.78 0.0
C1750 C 0.80188 0.42888 0.79277 0.0
C1751 C 0.78863 0.405 0.80075 0.0
C1752 C 0.74659 0.40011 0.78443 0.0
C1753 C 0.76085 0.39137 0.79676 0.0
C1754 C 0.77056 0.41277 0.71379 0.0
C1755 C 0.74814 0.42901 0.76193 0.0
H1756 H 0.75064 0.27394 0.68375 0.0
H1757 H 0.77862 0.32563 0.64782 0.0
H1758 H 0.79842 0.3604 0.6884 0.0
H1759 H 0.80125 0.36578 0.66305 0.0
H1760 H 0.79708 0.45453 0.77349 0.0
H1761 H 0.79907 0.3973 0.81031 0.0
H1762 H 0.7249 0.3895 0.78167 0.0
H1763 H 0.75038 0.37384 0.80323 0.0
Eu1764 Eu 0.99557 0.49329 0.96901 0.0
C1765 C 0.89921 0.40318 0.99361 0.0
C1766 C 0.84866 0.40698 0.98304 0.0
C1767 C 0.86433 0.35892 0.99386 0.0
C1768 C 0.87787 0.41993 0.98606 0.0
C1769 C 0.89214 0.37273 0.99794 0.0
C1770 C 0.84245 0.37615 0.98658 0.0
C1771 C 0.93738 0.37359 1.01233 0.0
N1772 N 0.92527 0.41771 0.99798 0.0
C1773 C 0.94306 0.40391 1.00807 0.0
C1774 C 0.91222 0.35764 1.007 0.0
Eu1775 Eu 0.93468 0.46848 0.98837 0.0
N1776 N 0.88415 0.44996 0.98306 0.0
C1777 C 0.8607 0.4691 0.9789 0.0
C1778 C 0.82595 0.4258 0.97717 0.0
C1779 C 0.83177 0.4572 0.97542 0.0
H1780 H 0.96304 0.41507 1.01234 0.0
H1781 H 0.81372 0.47244 0.97174 0.0
H1782 H 0.82038 0.36574 0.98413 0.0
H1783 H 0.95246 0.36254 1.01977 0.0
H1784 H 0.86357 0.49384 0.97861 0.0
H1785 H 0.11175 0.44919 0.97993 0.0
H1786 H 0.80334 0.4167 0.97469 0.0
H1787 H 0.96176 0.5591 0.97939 0.0
H1788 H 0.06124 0.45021 0.96839 0.0
H1789 H 0.97492 0.60555 0.99303 0.0
H1790 H 0.8588 0.33547 0.99694 0.0
H1791 H 0.12599 0.49066 0.99631 0.0
H1792 H 0.11271 0.54111 1.00754 0.0
H1793 H 0.90765 0.33427 1.01049 0.0
H1794 H 0.07638 0.58431 1.01049 0.0
N1795 N 0.04508 0.48979 0.97941 0.0
C1796 C 0.06627 0.46752 0.97612 0.0
C1797 C 0.10333 0.49076 0.99158 0.0
C1798 C 0.08251 0.51486 0.99408 0.0
C1799 C 0.09532 0.46724 0.98239 0.0
C1800 C 0.05323 0.51389 0.98769 0.0
H1801 H 1.02547 0.6089 1.00482 0.0
N1802 N 1.00435 0.53643 0.98348 0.0
C1803 C 0.99131 0.58675 0.99216 0.0
C1804 C 1.03266 0.53824 0.98946 0.0
C1805 C 0.98389 0.56041 0.98447 0.0
C1806 C 1.01992 0.5886 0.99875 0.0
C1807 C 0.04097 0.56416 0.9975 0.0
O1808 O 1.00005 0.5342 0.95618 0.0
O1809 O 0.95032 0.47294 0.96739 0.0
O1810 O 0.96441 0.42055 0.98403 0.0
O1811 O 1.0094 0.43848 0.97404 0.0
O1812 O 0.98384 0.45227 0.95513 0.0
O1813 O 1.02934 0.49481 0.9521 0.0
O1814 O 0.92517 0.51466 0.99656 0.0
O1815 O 0.97819 0.49827 0.99149 0.0
O1816 O 0.95309 0.52389 0.95882 0.0
O1817 O 0.91147 0.50086 0.96908 0.0
O1818 O 0.97155 0.46511 1.00576 0.0
O1819 O 0.90218 0.475 1.00536 0.0
C1820 C 0.955 0.45221 0.95852 0.0
C1821 C 1.01436 0.52609 0.93299 0.0
C1822 C 1.03387 0.52155 0.90957 0.0
C1823 C 1.03822 0.51929 0.92389 0.0
C1824 C 1.00543 0.53138 0.90428 0.0
C1825 C 0.98597 0.53665 0.92768 0.0
C1826 C 0.98166 0.53941 0.91338 0.0
C1827 C 0.9934 0.41375 0.97934 0.0
C1828 C 1.02012 0.52196 0.94788 0.0
C1829 C 0.06978 0.56479 1.00412 0.0
C1830 C 0.09043 0.54014 1.00248 0.0
C1831 C 0.98945 0.48815 1.00318 0.0
C1832 C 0.91235 0.51716 1.02022 0.0
C1833 C 0.89766 0.54481 1.02388 0.0
C1834 C 0.89768 0.55539 1.03771 0.0
C1835 C 0.91625 0.53927 1.04735 0.0
C1836 C 0.92991 0.5012 1.03007 0.0
C1837 C 0.93258 0.51281 1.04346 0.0
C1838 C 0.92172 0.52252 0.95962 0.0
C1839 C 0.90716 0.50458 1.00631 0.0
H1840 H 0.05996 0.51072 0.92796 0.0
H1841 H 1.00156 0.53236 0.89322 0.0
H1842 H 0.96709 0.54254 0.93447 0.0
H1843 H 0.95967 0.54717 0.90936 0.0
H1844 H 0.88511 0.55704 1.01591 0.0
H1845 H 0.91717 0.54575 0.05813 0.0
H1846 H 0.94122 0.47965 1.02752 0.0
H1847 H 0.94624 0.50045 1.05104 0.0
Eu1848 Eu 0.83734 0.7501 0.22502 0.0
C1849 C 0.93404 0.65791 0.24586 0.0
C1850 C 0.93655 0.61207 0.23157 0.0
C1851 C 0.98223 0.62903 0.24382 0.0
C1852 C 0.9201 0.63812 0.23654 0.0
C1853 C 0.96504 0.65288 0.24992 0.0
C1854 C 0.96791 0.60843 0.23477 0.0
C1855 C 0.95839 0.6912 0.2677 0.0
N1856 N 0.91649 0.68001 0.25205 0.0
C1857 C 0.92778 0.69507 0.26353 0.0
C1858 C 0.97736 0.67062 0.26064 0.0
Eu1859 Eu 0.86503 0.68719 0.2432 0.0
N1860 N 0.88959 0.64201 0.23371 0.0
C1861 C 0.87376 0.61838 0.22742 0.0
C1862 C 0.92071 0.58944 0.22414 0.0
C1863 C 0.88904 0.59229 0.22235 0.0
H1864 H 0.91403 0.71141 0.2692 0.0
H1865 H 0.87618 0.57406 0.21731 0.0
H1866 H 0.98096 0.58904 0.23073 0.0
H1867 H 0.96733 0.70417 0.27639 0.0
H1868 H 0.84903 0.61791 0.22692 0.0
H1869 H 0.87927 0.86609 0.238 0.0
H1870 H 0.93246 0.56904 0.2203 0.0
H1871 H 0.77345 0.71338 0.23557 0.0
H1872 H 0.87928 0.81649 0.22564 0.0
H1873 H 0.72743 0.72402 0.24991 0.0
H1874 H 1.00613 0.62522 0.24665 0.0
H1875 H 0.8376 0.87829 0.25459 0.0
H1876 H 0.78766 0.86306 0.2657 0.0
H1877 H 1.001 0.66746 0.264 0.0
H1878 H 0.74573 0.82529 0.26838 0.0
N1879 N 0.8401 0.79867 0.23638 0.0
C1880 C 0.86193 0.82052 0.23346 0.0
C1881 C 0.83794 0.85599 0.24948 0.0
C1882 C 0.81434 0.8345 0.25166 0.0
C1883 C 0.8616 0.84911 0.24019 0.0
C1884 C 0.8159 0.80573 0.24479 0.0
H1885 H 0.72282 0.7738 0.26234 0.0
N1886 N 0.79465 0.75657 0.23995 0.0
C1887 C 0.7455 0.74116 0.24903 0.0
C1888 C 0.79217 0.78444 0.24633 0.0
C1889 C 0.77157 0.73518 0.24094 0.0
C1890 C 0.74293 0.76934 0.25598 0.0
C1891 C 0.76643 0.79136 0.25473 0.0
O1892 O 0.7959 0.75487 0.21261 0.0
O1893 O 0.85873 0.70533 0.22261 0.0
O1894 O 0.91107 0.72009 0.2399 0.0
O1895 O 0.89237 0.76414 0.22917 0.0
O1896 O 0.87774 0.74064 0.21061 0.0
O1897 O 0.8343 0.7854 0.20875 0.0
O1898 O 0.86502 0.65414 0.26022 0.0
O1899 O 0.83403 0.72991 0.24701 0.0
O1900 O 0.80763 0.70764 0.21426 0.0
O1901 O 0.83016 0.66567 0.2246 0.0
O1902 O 0.86417 0.72042 0.26213 0.0
O1903 O 0.82181 0.66746 0.25108 0.0
C1904 C 0.87877 0.71157 0.21361 0.0
C1905 C 0.80345 0.77039 0.18954 0.0
C1906 C 0.81089 0.78886 0.16609 0.0
C1907 C 0.81283 0.79339 0.18039 0.0
C1908 C 0.79894 0.7612 0.16081 0.0
C1909 C 0.79069 0.7429 0.18421 0.0
C1910 C 0.78841 0.73844 0.16991 0.0
C1911 C 0.91721 0.74894 0.23485 0.0
C1912 C 0.80741 0.77572 0.20448 0.0
C1913 C 0.76514 0.81973 0.26176 0.0
C1914 C 0.78908 0.84118 0.26027 0.0
C1915 C 0.84265 0.73979 0.2592 0.0
C1916 C 0.82675 0.61553 0.25834 0.0
C1917 C 0.79586 0.60674 0.26036 0.0
C1918 C 0.7871 0.57552 0.25913 0.0
C1919 C 0.80945 0.55353 0.25518 0.0
C1920 C 0.84893 0.59271 0.25535 0.0
C1921 C 0.84011 0.56213 0.25336 0.0
C1922 C 0.80885 0.67617 0.21509 0.0
C1923 C 0.83568 0.64836 0.2594 0.0
H1924 H 0.82291 0.81452 0.18443 0.0
H1925 H 0.79802 0.75722 0.14976 0.0
H1926 H 0.7827 0.72479 0.19101 0.0
H1927 H 0.77894 0.7171 0.1659 0.0
H1928 H 0.7789 0.62398 0.2633 0.0
H1929 H 0.80374 0.52922 0.25439 0.0
H1930 H 0.87314 0.59844 0.2544 0.0
H1931 H 0.85729 0.54485 0.25082 0.0
Eu1932 Eu 0.58439 0.5891 0.46846 0.0
C1933 C 0.68084 0.67709 0.49386 0.0
C1934 C 0.73105 0.67335 0.48301 0.0
C1935 C 0.71593 0.7212 0.49412 0.0
C1936 C 0.70178 0.66051 0.48607 0.0
C1937 C 0.68826 0.70733 0.49838 0.0
C1938 C 0.73746 0.7041 0.48657 0.0
C1939 C 0.64397 0.70582 0.51334 0.0
N1940 N 0.655 0.66244 0.4984 0.0
C1941 C 0.63787 0.67577 0.50882 0.0
C1942 C 0.66879 0.72201 0.50782 0.0
Eu1943 Eu 0.64469 0.6121 0.48859 0.0
N1944 N 0.69519 0.63061 0.48298 0.0
C1945 C 0.71853 0.61139 0.47873 0.0
C1946 C 0.75363 0.65444 0.4771 0.0
C1947 C 0.74757 0.62312 0.47529 0.0
H1948 H 0.61817 0.66439 0.51325 0.0
H1949 H 0.76551 0.60779 0.47158 0.0
H1950 H 0.75948 0.71448 0.484 0.0
H1951 H 0.62944 0.71649 0.5211 0.0
H1952 H 0.71564 0.58668 0.47844 0.0
H1953 H 0.46857 0.63127 0.4815 0.0
H1954 H 0.7763 0.66343 0.47461 0.0
H1955 H 0.62035 0.52382 0.47808 0.0
H1956 H 0.51852 0.63208 0.46953 0.0
H1957 H 0.6088 0.47647 0.49144 0.0
H1958 H 0.72167 0.74453 0.49729 0.0
H1959 H 0.45542 0.5879 0.49707 0.0
H1960 H 0.46979 0.53662 0.50723 0.0
H1961 H 0.67367 0.74517 0.51148 0.0
H1962 H 0.50704 0.494 0.50936 0.0
N1963 N 0.53554 0.59144 0.47948 0.0
C1964 C 0.51407 0.6139 0.47691 0.0
C1965 C 0.47787 0.58853 0.49214 0.0
C1966 C 0.49905 0.56445 0.49397 0.0
C1967 C 0.48528 0.61315 0.48343 0.0
C1968 C 0.52802 0.5664 0.48734 0.0
H1969 H 0.55854 0.47116 0.50334 0.0
N1970 N 0.57731 0.54513 0.48259 0.0
C1971 C 0.59188 0.49484 0.49078 0.0
C1972 C 0.54911 0.54227 0.48863 0.0
C1973 C 0.59841 0.52169 0.48327 0.0
C1974 C 0.56342 0.49187 0.49742 0.0
C1975 C 0.54165 0.51574 0.49644 0.0
O1976 O 0.57941 0.54854 0.45551 0.0
O1977 O 0.63002 0.60875 0.46747 0.0
O1978 O 0.6139 0.66009 0.48501 0.0
O1979 O 0.571 0.644 0.47274 0.0
O1980 O 0.59737 0.63057 0.45507 0.0
O1981 O 0.54968 0.58789 0.45198 0.0
O1982 O 0.65425 0.56557 0.49627 0.0
O1983 O 0.60055 0.5833 0.49123 0.0
O1984 O 0.62659 0.56041 0.45709 0.0
O1985 O 0.66756 0.57813 0.46974 0.0
O1986 O 0.60836 0.61482 0.50614 0.0
O1987 O 0.67693 0.60485 0.50562 0.0
C1988 C 0.62603 0.62996 0.45876 0.0
C1989 C 0.56408 0.55734 0.43253 0.0
C1990 C 0.54586 0.56675 0.40922 0.0
C1991 C 0.54226 0.56951 0.42354 0.0
C1992 C 0.57169 0.55173 0.40372 0.0
C1993 C 0.58966 0.54133 0.42705 0.0
C1994 C 0.59348 0.53876 0.41269 0.0
C1995 C 0.58603 0.66781 0.47923 0.0
C1996 C 0.55889 0.56093 0.44749 0.0
C1997 C 0.51302 0.51403 0.50319 0.0
C1998 C 0.49185 0.53837 0.50201 0.0
C1999 C 0.58951 0.5929 0.5031 0.0
C2000 C 0.66994 0.56026 0.51947 0.0
C2001 C 0.68783 0.53395 0.52201 0.0
C2002 C 0.69095 0.52192 0.53548 0.0
C2003 C 0.6722 0.53471 0.54601 0.0
C2004 C 0.65198 0.57296 0.53008 0.0
C2005 C 0.65246 0.55956 0.54321 0.0
C2006 C 0.65767 0.55921 0.45909 0.0
C2007 C 0.67279 0.57506 0.50591 0.0
H2008 H 0.52233 0.58161 0.42769 0.0
H2009 H 0.57483 0.54994 0.39263 0.0
H2010 H 0.60659 0.53077 0.43378 0.0
H2011 H 0.61334 0.52672 0.40854 0.0
H2012 H 0.70048 0.52409 0.51343 0.0
H2013 H 0.67363 0.52689 0.5566 0.0
H2014 H 0.63802 0.59333 0.5283 0.0
H2015 H 0.63858 0.56938 0.55142 0.0
Eu2016 Eu 0.36207 0.3945 0.23788 0.0
C2017 C 0.29182 0.29668 0.24 0.0
C2018 C 0.31469 0.24655 0.24471 0.0
C2019 C 0.26537 0.26017 0.25503 0.0
C2020 C 0.31582 0.27573 0.23817 0.0
C2021 C 0.26617 0.28891 0.24829 0.0
C2022 C 0.28962 0.23911 0.25329 0.0
C2023 C 0.24416 0.3389 0.24292 0.0
N2024 N 0.29379 0.32489 0.23387 0.0
C2025 C 0.27019 0.34574 0.23495 0.0
C2026 C 0.24218 0.31041 0.24967 0.0
Eu2027 Eu 0.33657 0.33284 0.21913 0.0
N2028 N 0.33975 0.28345 0.22973 0.0
C2029 C 0.36172 0.26196 0.22645 0.0
C2030 C 0.33845 0.22537 0.24217 0.0
C2031 C 0.36182 0.23297 0.23285 0.0
H2032 H 0.27162 0.36778 0.22973 0.0
H2033 H 0.37962 0.21627 0.23038 0.0
H2034 H 0.28852 0.2169 0.25846 0.0
H2035 H 0.2257 0.35563 0.24389 0.0
H2036 H 0.37893 0.26672 0.21865 0.0
H2037 H 0.36129 0.51473 0.21976 0.0
H2038 H 0.33842 0.20276 0.247 0.0
H2039 H 0.41475 0.36602 0.26209 0.0
H2040 H 0.33874 0.46565 0.22704 0.0
H2041 H 0.46737 0.37581 0.26943 0.0
H2042 H 0.24604 0.25397 0.26158 0.0
H2043 H 0.41714 0.52396 0.22264 0.0
H2044 H 0.46763 0.50597 0.2321 0.0
H2045 H 0.2221 0.30529 0.25595 0.0
H2046 H 0.49681 0.46751 0.24542 0.0
N2047 N 0.38197 0.44419 0.23181 0.0
C2048 C 0.36348 0.46792 0.22735 0.0
C2049 C 0.4075 0.50166 0.22536 0.0
C2050 C 0.42572 0.47871 0.23143 0.0
C2051 C 0.37604 0.49648 0.22363 0.0
C2052 C 0.41206 0.44994 0.23478 0.0
H2053 H 0.49667 0.41948 0.25963 0.0
N2054 N 0.41296 0.40325 0.24738 0.0
C2055 C 0.45671 0.39079 0.26183 0.0
C2056 C 0.42815 0.42867 0.24265 0.0
C2057 C 0.42632 0.3856 0.25764 0.0
C2058 C 0.47324 0.41529 0.25621 0.0
C2059 C 0.45872 0.43523 0.2469 0.0
O2060 O 0.31602 0.40609 0.24548 0.0
O2061 O 0.33223 0.35104 0.24147 0.0
O2062 O 0.30607 0.37535 0.20871 0.0
O2063 O 0.32976 0.41717 0.21851 0.0
O2064 O 0.36422 0.35929 0.25604 0.0
O2065 O 0.35597 0.42829 0.25442 0.0
O2066 O 0.29544 0.32862 0.20646 0.0
O2067 O 0.35709 0.37787 0.2171 0.0
O2068 O 0.4096 0.36417 0.23362 0.0
O2069 O 0.39129 0.31876 0.22412 0.0
O2070 O 0.37754 0.34376 0.20507 0.0
O2071 O 0.33426 0.2986 0.20246 0.0
C2072 C 0.34198 0.34051 0.25338 0.0
C2073 C 0.31195 0.42242 0.26864 0.0
C2074 C 0.27407 0.44329 0.28488 0.0
C2075 C 0.28575 0.44033 0.27133 0.0
C2076 C 0.28727 0.42463 0.29534 0.0
C2077 C 0.32504 0.40457 0.27921 0.0
C2078 C 0.31211 0.40504 0.29241 0.0
C2079 C 0.30779 0.40682 0.20925 0.0
C2080 C 0.32617 0.42483 0.25493 0.0
C2081 C 0.47326 0.46242 0.24243 0.0
C2082 C 0.45666 0.48432 0.23485 0.0
C2083 C 0.37763 0.37278 0.20821 0.0
C2084 C 0.30422 0.31499 0.18324 0.0
C2085 C 0.31524 0.29315 0.17395 0.0
C2086 C 0.31439 0.29866 0.1597 0.0
C2087 C 0.30192 0.32622 0.15457 0.0
C2088 C 0.29084 0.3424 0.17809 0.0
C2089 C 0.28969 0.34789 0.16381 0.0
C2090 C 0.41615 0.33487 0.2292 0.0
C2091 C 0.30747 0.30849 0.19812 0.0
H2092 H 0.2756 0.45305 0.26284 0.0
H2093 H 0.27975 0.42606 0.30598 0.0
H2094 H 0.34538 0.39068 0.27734 0.0
H2095 H 0.32226 0.39125 0.30058 0.0
H2096 H 0.32575 0.27209 0.17788 0.0
H2097 H 0.30184 0.33096 0.14357 0.0
H2098 H 0.28155 0.35964 0.18501 0.0
H2099 H 0.27976 0.36918 0.15994 0.0
Eu2100 Eu 0.43563 0.61464 0.99213 0.0
C2101 C 0.52886 0.54328 0.99415 0.0
C2102 C 0.5804 0.56206 0.99927 0.0
C2103 C 0.56268 0.5136 1.00925 0.0
C2104 C 0.55168 0.56568 0.99258 0.0
C2105 C 0.53414 0.51713 1.00256 0.0
C2106 C 0.58573 0.53598 1.00761 0.0
C2107 C 0.48199 0.50051 0.99768 0.0
N2108 N 0.50101 0.54777 0.98799 0.0
C2109 C 0.47782 0.52673 0.98942 0.0
C2110 C 0.51027 0.49565 1.00426 0.0
Eu2111 Eu 0.49799 0.59044 0.97295 0.0
N2112 N 0.54585 0.59092 0.98457 0.0
C2113 C 0.56837 0.6123 0.98213 0.0
C2114 C 0.60301 0.58475 0.99737 0.0
C2115 C 0.59703 0.60984 0.98868 0.0
H2116 H 0.45613 0.53011 0.98418 0.0
H2117 H 0.6147 0.62702 0.98683 0.0
H2118 H 0.6076 0.53293 1.01286 0.0
H2119 H 0.46345 0.48399 0.99891 0.0
H2120 H 0.56475 0.63087 0.97485 0.0
H2121 H 0.3215 0.63761 0.97017 0.0
H2122 H 0.62532 0.58283 1.00235 0.0
H2123 H 0.46999 0.655 1.01833 0.0
H2124 H 0.36679 0.60651 0.97609 0.0
H2125 H 0.46564 0.70557 1.02958 0.0
H2126 H 0.56707 0.49375 1.01581 0.0
H2127 H 0.31886 0.69256 0.97705 0.0
H2128 H 0.34214 0.73675 0.99006 0.0
H2129 H 0.51338 0.47537 1.0107 0.0
H2130 H 0.38134 0.75515 1.00646 0.0
N2131 N 0.39142 0.64372 0.98547 0.0
C2132 C 0.36682 0.63059 0.97883 0.0
C2133 C 0.33916 0.67903 0.97957 0.0
C2134 C 0.36325 0.69172 0.98731 0.0
C2135 C 0.34058 0.64806 0.97566 0.0
C2136 C 0.38904 0.67297 0.99048 0.0
H2137 H 0.4266 0.74325 1.02163 0.0
N2138 N 0.43313 0.66304 1.00407 0.0
C2139 C 0.45001 0.69953 1.02128 0.0
C2140 C 0.41058 0.68297 1.00003 0.0
C2141 C 0.45203 0.67053 1.01496 0.0
C2142 C 0.42811 0.72081 1.0167 0.0
C2143 C 0.40765 0.71249 1.00616 0.0
O2144 O 0.42082 0.56863 0.99861 0.0
O2145 O 0.48357 0.59354 0.99581 0.0
O2146 O 0.45525 0.56157 0.96169 0.0
O2147 O 0.41318 0.58032 0.97345 0.0
O2148 O 0.45875 0.60257 1.01299 0.0
O2149 O 0.39587 0.60913 1.00575 0.0
O2150 O 0.50676 0.54821 0.96157 0.0
O2151 O 0.45232 0.60968 0.97124 0.0
O2152 O 0.46801 0.66175 0.98883 0.0
O2153 O 0.51165 0.64527 0.97694 0.0
O2154 O 0.48583 0.63084 0.95888 0.0
O2155 O 0.53262 0.58944 0.9564 0.0
C2156 C 0.4847 0.5907 1.0094 0.0
C2157 C 0.39627 0.565 1.02036 0.0
C2158 C 0.37212 0.52502 1.0346 0.0
C2159 C 0.38016 0.53708 1.02153 0.0
C2160 C 0.38429 0.53965 1.04646 0.0
C2161 C 0.40725 0.57966 1.03232 0.0
C2162 C 0.40212 0.5664 1.04526 0.0
C2163 C 0.42385 0.56078 0.96318 0.0
C2164 C 0.39901 0.57918 1.00659 0.0
C2165 C 0.38367 0.73226 1.00201 0.0
C2166 C 0.36139 0.72183 0.99265 0.0
C2167 C 0.45702 0.63052 0.96238 0.0
C2168 C 0.52083 0.55418 0.93824 0.0
C2169 C 0.54264 0.5644 0.92874 0.0
C2170 C 0.53876 0.55897 0.91459 0.0
C2171 C 0.51278 0.54305 0.9098 0.0
C2172 C 0.49516 0.53726 0.93348 0.0
C2173 C 0.49117 0.53187 0.9193 0.0
C2174 C 0.49627 0.66916 0.98327 0.0
C2175 C 0.52592 0.56098 0.95298 0.0
H2176 H 0.37249 0.52588 1.01213 0.0
H2177 H 0.37869 0.53181 0.05678 0.0
H2178 H 0.41916 0.60159 1.03174 0.0
H2179 H 0.41063 0.57779 0.05447 0.0
H2180 H 0.56253 0.57735 0.93235 0.0
H2181 H 0.50932 0.53931 0.89883 0.0
H2182 H 0.47821 0.52824 0.94063 0.0
H2183 H 0.4712 0.51921 0.9157 0.0
Eu2184 Eu 0.21855 0.68752 0.73776 0.0
C2185 C 0.28928 0.78465 0.74006 0.0
C2186 C 0.2667 0.83477 0.74507 0.0
C2187 C 0.31614 0.82071 0.75516 0.0
C2188 C 0.26535 0.80576 0.7384 0.0
C2189 C 0.31509 0.79211 0.74831 0.0
C2190 C 0.29195 0.84191 0.75359 0.0
C2191 C 0.3367 0.74207 0.74275 0.0
N2192 N 0.28708 0.75657 0.73384 0.0
C2193 C 0.31053 0.73553 0.73482 0.0
C2194 C 0.33896 0.77044 0.74956 0.0
Eu2195 Eu 0.24422 0.7493 0.7191 0.0
N2196 N 0.24123 0.79833 0.73003 0.0
C2197 C 0.21924 0.81996 0.72696 0.0
C2198 C 0.24295 0.85607 0.74274 0.0
C2199 C 0.21935 0.84878 0.7335 0.0
H2200 H 0.30893 0.71359 0.72956 0.0
H2201 H 0.20155 0.86559 0.7312 0.0
H2202 H 0.29323 0.86399 0.75885 0.0
H2203 H 0.35506 0.7252 0.74362 0.0
H2204 H 0.20187 0.8155 0.71921 0.0
H2205 H 0.21942 0.56731 0.71974 0.0
H2206 H 0.24314 0.87856 0.74768 0.0
H2207 H 0.16555 0.71677 0.7617 0.0
H2208 H 0.24195 0.61643 0.72698 0.0
H2209 H 0.11312 0.70678 0.76923 0.0
H2210 H 0.33559 0.82668 0.76166 0.0
H2211 H 0.16368 0.55788 0.72288 0.0
H2212 H 0.11336 0.57557 0.73265 0.0
H2213 H 0.35914 0.77533 0.7558 0.0
H2214 H 0.08417 0.61408 0.74592 0.0
N2215 N 0.19873 0.6377 0.73192 0.0
C2216 C 0.21723 0.61406 0.72739 0.0
C2217 C 0.17329 0.58021 0.72555 0.0
C2218 C 0.1551 0.60305 0.73173 0.0
C2219 C 0.20468 0.5855 0.72369 0.0
C2220 C 0.16872 0.63187 0.735 0.0
H2221 H 0.0841 0.66252 0.75983 0.0
N2222 N 0.16768 0.67885 0.74736 0.0
C2223 C 0.12386 0.69157 0.76175 0.0
C2224 C 0.1526 0.65321 0.74282 0.0
C2225 C 0.15419 0.69684 0.75747 0.0
C2226 C 0.1075 0.66674 0.75635 0.0
C2227 C 0.12209 0.64661 0.74715 0.0
O2228 O 0.26479 0.67578 0.74503 0.0
O2229 O 0.24826 0.731 0.74145 0.0
O2230 O 0.27468 0.70681 0.70867 0.0
O2231 O 0.25083 0.66494 0.7184 0.0
O2232 O 0.21641 0.72228 0.75605 0.0
O2233 O 0.22504 0.65382 0.75432 0.0
O2234 O 0.28515 0.75378 0.70631 0.0
O2235 O 0.22345 0.70436 0.71697 0.0
O2236 O 0.17105 0.71773 0.73338 0.0
O2237 O 0.18947 0.76326 0.724 0.0
O2238 O 0.20357 0.73862 0.70486 0.0
O2239 O 0.24653 0.78437 0.70275 0.0
C2240 C 0.23843 0.74131 0.75339 0.0
C2241 C 0.26996 0.65875 0.76805 0.0
C2242 C 0.30831 0.63651 0.78368 0.0
C2243 C 0.29592 0.64022 0.77031 0.0
C2244 C 0.29612 0.65504 0.79442 0.0
C2245 C 0.25787 0.67651 0.77888 0.0
C2246 C 0.27155 0.67527 0.79192 0.0
C2247 C 0.2729 0.67533 0.7092 0.0
C2248 C 0.2549 0.65697 0.75452 0.0
C2249 C 0.10766 0.61924 0.74285 0.0
C2250 C 0.12427 0.59732 0.7353 0.0
C2251 C 0.20309 0.70958 0.708 0.0
C2252 C 0.27661 0.76944 0.68332 0.0
C2253 C 0.26796 0.79314 0.67442 0.0
C2254 C 0.26882 0.78898 0.66007 0.0
C2255 C 0.27916 0.76095 0.6545 0.0
C2256 C 0.28774 0.74149 0.67772 0.0
C2257 C 0.28912 0.7374 0.66336 0.0
C2258 C 0.16456 0.74707 0.72899 0.0
C2259 C 0.27327 0.77465 0.69829 0.0
H2260 H 0.30531 0.62759 0.76161 0.0
H2261 H 0.30424 0.65304 0.80495 0.0
H2262 H 0.23774 0.69091 0.77733 0.0
H2263 H 0.26217 0.68898 0.8003 0.0
H2264 H 0.259 0.81455 0.67872 0.0
H2265 H 0.27913 0.75722 0.64342 0.0
H2266 H 0.29503 0.72273 0.68433 0.0
H2267 H 0.2973 0.71573 0.65912 0.0
Eu2268 Eu 0.14234 0.46984 0.49208 0.0
C2269 C 0.04437 0.53949 0.49331 0.0
C2270 C 0.99478 0.51607 0.4983 0.0
C2271 C 1.00766 0.56605 0.50822 0.0
C2272 C 1.02385 0.5151 0.49171 0.0
C2273 C 1.03628 0.5654 0.50142 0.0
C2274 C 0.98703 0.5414 0.50671 0.0
C2275 C 0.08581 0.58787 0.49583 0.0
N2276 N 0.07251 0.53764 0.48717 0.0
C2277 C 0.09299 0.56157 0.48807 0.0
C2278 C 0.05737 0.58976 0.50258 0.0
Eu2279 Eu 0.08105 0.49443 0.47269 0.0
N2280 N 1.03189 0.49092 0.48345 0.0
C2281 C 1.01071 0.46855 0.48036 0.0
C2282 C 0.974 0.4919 0.49599 0.0
C2283 C 0.98184 0.46829 0.48682 0.0
H2284 H 0.115 0.56022 0.48287 0.0
H2285 H 0.96542 0.45018 0.4845 0.0
H2286 H 0.9649 0.54238 0.51192 0.0
H2287 H 0.10223 0.6066 0.49665 0.0
H2288 H 1.01551 0.45117 0.47263 0.0
H2289 H 0.26123 0.46913 0.47232 0.0
H2290 H 0.95148 0.4918 0.50087 0.0
H2291 H 0.11857 0.41893 0.51776 0.0
H2292 H 0.21362 0.4925 0.48101 0.0
H2293 H 0.12778 0.36555 0.52465 0.0
H2294 H 1.00122 0.58557 0.51463 0.0
H2295 H 0.2688 0.41258 0.47374 0.0
H2296 H 0.24998 0.36153 0.48252 0.0
H2297 H 0.05199 0.61004 0.50871 0.0
H2298 H 0.21278 0.33287 0.49676 0.0
N2299 N 0.19133 0.44938 0.48519 0.0
C2300 C 0.21519 0.46763 0.48075 0.0
C2301 C 0.24717 0.42267 0.47711 0.0
C2302 C 0.2243 0.40454 0.48327 0.0
C2303 C 0.24292 0.45453 0.47622 0.0
C2304 C 0.19648 0.41885 0.48749 0.0
H2305 H 0.1678 0.3345 0.51293 0.0
N2306 N 0.15209 0.419 0.50143 0.0
C2307 C 0.14133 0.37567 0.5164 0.0
C2308 C 0.17597 0.40301 0.49577 0.0
C2309 C 0.13634 0.40634 0.51242 0.0
C2310 C 0.16376 0.35816 0.5097 0.0
C2311 C 0.18223 0.37209 0.49964 0.0
O2312 O 0.17503 0.47592 0.50905 0.0
O2313 O 0.09867 0.4996 0.49521 0.0
O2314 O 0.12335 0.52503 0.46233 0.0
O2315 O 0.165 0.50246 0.47282 0.0
O2316 O 0.1069 0.46798 0.51006 0.0
O2317 O 0.15487 0.516 0.49918 0.0
O2318 O 0.07655 0.53499 0.45962 0.0
O2319 O 0.12634 0.47422 0.47123 0.0
O2320 O 0.1109 0.4225 0.48885 0.0
O2321 O 0.06771 0.43934 0.47698 0.0
O2322 O 0.09313 0.45303 0.45902 0.0
O2323 O 0.04685 0.49584 0.45595 0.0
C2324 C 0.08815 0.49016 0.50719 0.0
C2325 C 0.17023 0.52175 0.52234 0.0
C2326 C 0.19104 0.5618 0.53748 0.0
C2327 C 0.18807 0.54828 0.52431 0.0
C2328 C 0.17241 0.55016 0.5483 0.0
C2329 C 0.1523 0.51021 0.53323 0.0
C2330 C 0.15279 0.52498 0.54606 0.0
C2331 C 0.15473 0.52389 0.46327 0.0
C2332 C 0.17263 0.50592 0.509 0.0
C2333 C 0.208 0.35676 0.49412 0.0
C2334 C 0.2292 0.37307 0.48603 0.0
C2335 C 0.12189 0.45324 0.46251 0.0
C2336 C 0.06238 0.52576 0.43651 0.0
C2337 C 1.0393 0.51702 0.42732 0.0
C2338 C 0.04425 0.51829 0.41302 0.0
C2339 C 0.07246 0.52893 0.40781 0.0
C2340 C 0.09048 0.53718 0.43124 0.0
C2341 C 0.09537 0.53881 0.41695 0.0
C2342 C 0.08281 0.41522 0.48327 0.0
C2343 C 0.05636 0.52263 0.45144 0.0
H2344 H 0.20079 0.55729 0.51555 0.0
H2345 H 0.17391 0.55926 0.55869 0.0
H2346 H 0.13827 0.48975 0.53187 0.0
H2347 H 0.13895 0.51605 0.55448 0.0
H2348 H 1.01774 0.50791 0.43133 0.0
H2349 H 0.07676 0.52928 0.39677 0.0
H2350 H 0.10873 0.54462 0.43806 0.0
H2351 H 0.11715 0.54726 0.41298 0.0
Eu2352 Eu 0.36095 0.68721 0.36495 0.0
C2353 C 0.29028 0.78455 0.36226 0.0
C2354 C 0.31293 0.83459 0.35723 0.0
C2355 C 0.26362 0.82059 0.34704 0.0
C2356 C 0.31419 0.80562 0.36395 0.0
C2357 C 0.26458 0.79203 0.35393 0.0
C2358 C 0.28778 0.84175 0.34864 0.0
C2359 C 0.24295 0.74202 0.35947 0.0
N2360 N 0.29242 0.75648 0.3685 0.0
C2361 C 0.269 0.73546 0.36748 0.0
C2362 C 0.24075 0.77038 0.35263 0.0
Eu2363 Eu 0.33503 0.74925 0.3834 0.0
N2364 N 0.33822 0.79817 0.37239 0.0
C2365 C 0.36017 0.81978 0.37548 0.0
C2366 C 0.33665 0.85585 0.35958 0.0
C2367 C 0.36014 0.84856 0.36889 0.0
H2368 H 0.27055 0.71355 0.37278 0.0
H2369 H 0.37791 0.86533 0.37121 0.0
H2370 H 0.28658 0.8638 0.34334 0.0
H2371 H 0.22461 0.72517 0.35856 0.0
H2372 H 0.37744 0.81532 0.38329 0.0
H2373 H 0.35989 0.56702 0.38304 0.0
H2374 H 0.33652 0.87831 0.35461 0.0
H2375 H 0.41427 0.71656 0.34117 0.0
H2376 H 0.33746 0.61625 0.37583 0.0
H2377 H 0.46665 0.70631 0.33365 0.0
H2378 H 0.24425 0.82656 0.34047 0.0
H2379 H 0.41557 0.55728 0.37981 0.0
H2380 H 0.46584 0.57469 0.36996 0.0
H2381 H 0.22066 0.77527 0.34633 0.0
H2382 H 0.49515 0.61313 0.35674 0.0
N2383 N 0.38071 0.63734 0.37084 0.0
C2384 C 0.36218 0.61377 0.3754 0.0
C2385 C 0.40601 0.57968 0.37716 0.0
C2386 C 0.42423 0.60244 0.37097 0.0
C2387 C 0.37466 0.58514 0.37908 0.0
C2388 C 0.4107 0.63136 0.36773 0.0
H2389 H 0.49544 0.66173 0.34295 0.0
N2390 N 0.4119 0.67845 0.35542 0.0
C2391 C 0.45582 0.69107 0.34108 0.0
C2392 C 0.42688 0.65267 0.35992 0.0
C2393 C 0.42551 0.69648 0.34536 0.0
C2394 C 0.47206 0.66606 0.34643 0.0
C2395 C 0.45737 0.64592 0.35559 0.0
O2396 O 0.31479 0.67584 0.35746 0.0
O2397 O 0.33135 0.73077 0.36111 0.0
O2398 O 0.30455 0.70686 0.39384 0.0
O2399 O 0.32848 0.66479 0.3843 0.0
O2400 O 0.3633 0.72187 0.34659 0.0
O2401 O 0.3546 0.65321 0.34852 0.0
O2402 O 0.29367 0.7541 0.39586 0.0
O2403 O 0.35576 0.70429 0.38569 0.0
O2404 O 0.40841 0.71731 0.3694 0.0
O2405 O 0.38988 0.76302 0.37859 0.0
O2406 O 0.37538 0.7386 0.39783 0.0
O2407 O 0.33233 0.78435 0.39973 0.0
C2408 C 0.34131 0.74102 0.3492 0.0
C2409 C 0.31029 0.6586 0.33445 0.0
C2410 C 0.27262 0.63661 0.31845 0.0
C2411 C 0.28446 0.64009 0.33193 0.0
C2412 C 0.28522 0.65527 0.30785 0.0
C2413 C 0.32283 0.67642 0.32375 0.0
C2414 C 0.3097 0.67539 0.31059 0.0
C2415 C 0.30632 0.67536 0.39341 0.0
C2416 C 0.32478 0.65674 0.34811 0.0
C2417 C 0.47169 0.61841 0.35983 0.0
C2418 C 0.45501 0.59653 0.36735 0.0
C2419 C 0.37596 0.70955 0.39473 0.0
C2420 C 0.30089 0.77022 0.41887 0.0
C2421 C 0.30929 0.79402 0.42773 0.0
C2422 C 0.30715 0.79043 0.44209 0.0
C2423 C 0.29576 0.76282 0.44768 0.0
C2424 C 0.28873 0.74273 0.42447 0.0
C2425 C 0.28607 0.73919 0.43882 0.0
C2426 C 0.41485 0.74669 0.37371 0.0
C2427 C 0.30527 0.775 0.40392 0.0
H2428 H 0.27474 0.62731 0.34051 0.0
H2429 H 0.27753 0.65341 0.29725 0.0
H2430 H 0.34291 0.69074 0.32548 0.0
H2431 H 0.31942 0.68916 0.30232 0.0
H2432 H 0.31907 0.81503 0.42341 0.0
H2433 H 0.2948 0.75947 0.45877 0.0
H2434 H 0.28159 0.72394 0.41786 0.0
H2435 H 0.27708 0.71786 0.44307 0.0
Eu2436 Eu 0.14444 0.61258 0.10999 0.0
C2437 C 0.04872 0.53909 0.10802 0.0
C2438 C 0.9987 0.56089 0.10232 0.0
C2439 C 1.01318 0.5104 0.09337 0.0
C2440 C 1.02743 0.56304 0.10914 0.0
C2441 C 0.04157 0.51234 0.1003 0.0
C2442 C 0.99191 0.5347 0.09429 0.0
C2443 C 0.09179 0.49188 0.10624 0.0
N2444 N 0.0767 0.54222 0.1142 0.0
C2445 C 0.09807 0.51899 0.11359 0.0
C2446 C 0.06343 0.48853 0.09956 0.0
Eu2447 Eu 0.08288 0.58596 0.12856 0.0
N2448 N 1.03447 0.58805 0.11709 0.0
C2449 C 1.01266 0.61025 0.11956 0.0
C2450 C 0.97731 0.58483 0.10399 0.0
C2451 C 0.98417 0.6094 0.1128 0.0
H2452 H 0.12 0.5214 0.11875 0.0
H2453 H 0.96725 0.62736 0.11463 0.0
H2454 H 0.97005 0.5328 0.08893 0.0
H2455 H 0.10886 0.47364 0.1057 0.0
H2456 H 1.01658 0.6283 0.12706 0.0
H2457 H 0.26319 0.61206 0.12987 0.0
H2458 H 0.95505 0.58406 0.09889 0.0
H2459 H 0.12017 0.6653 0.08525 0.0
H2460 H 0.2157 0.5892 0.12083 0.0
H2461 H 0.12881 0.71941 0.07929 0.0
H2462 H 1.00748 0.49023 0.08724 0.0
H2463 H 0.27055 0.6687 0.12921 0.0
H2464 H 0.25155 0.72031 0.12114 0.0
H2465 H 0.05878 0.46764 0.09374 0.0
H2466 H 0.2141 0.74999 0.10744 0.0
N2467 N 0.1933 0.63255 0.11721 0.0
C2468 C 0.2172 0.61405 0.12142 0.0
C2469 C 0.24898 0.6588 0.12569 0.0
C2470 C 0.22607 0.67732 0.11977 0.0
C2471 C 0.24484 0.62689 0.12615 0.0
C2472 C 0.19831 0.66326 0.11535 0.0
H2473 H 0.16886 0.7496 0.0914 0.0
N2474 N 0.15369 0.66423 0.10156 0.0
C2475 C 0.14251 0.70867 0.08733 0.0
C2476 C 0.17763 0.67974 0.10739 0.0
C2477 C 0.1378 0.67765 0.09079 0.0
C2478 C 0.16499 0.72567 0.09424 0.0
C2479 C 0.1837 0.71097 0.104 0.0
O2480 O 0.1598 0.56806 0.1018 0.0
O2481 O 0.10162 0.58165 0.10638 0.0
O2482 O 0.12526 0.55621 0.13936 0.0
O2483 O 0.16706 0.57891 0.12902 0.0
O2484 O 0.10726 0.61598 0.09262 0.0
O2485 O 0.17552 0.61003 0.09215 0.0
O2486 O 0.07822 0.54527 0.14153 0.0
O2487 O 0.12764 0.60689 0.13074 0.0
O2488 O 0.11388 0.65982 0.11429 0.0
O2489 O 0.06873 0.64095 0.12376 0.0
O2490 O 0.09309 0.62663 0.14282 0.0
O2491 O 0.0469 0.58359 0.14445 0.0
C2492 C 0.09028 0.59206 0.09479 0.0
C2493 C 0.16883 0.56596 0.07787 0.0
C2494 C 0.17943 0.5242 0.06141 0.0
C2495 C 0.18556 0.53962 0.07401 0.0
C2496 C 0.15478 0.53507 0.0532 0.0
C2497 C 0.14646 0.57789 0.06887 0.0
C2498 C 0.13906 0.56212 0.05675 0.0
C2499 C 0.15667 0.55746 0.13856 0.0
C2500 C 0.17479 0.58002 0.09147 0.0
C2501 C 0.20947 0.72589 0.10969 0.0
C2502 C 0.23081 0.709 0.11747 0.0
C2503 C 0.12208 0.6272 0.13971 0.0
C2504 C 0.06083 0.55412 0.16421 0.0
C2505 C 1.03734 0.56473 0.17277 0.0
C2506 C 0.04072 0.56433 0.18714 0.0
C2507 C 0.06768 0.55237 0.1931 0.0
C2508 C 0.08765 0.54143 0.17019 0.0
C2509 C 0.09091 0.54046 0.18459 0.0
C2510 C 0.08466 0.66608 0.11876 0.0
C2511 C 0.05664 0.55704 0.14918 0.0
H2512 H 0.20419 0.53222 0.08069 0.0
H2513 H 0.14807 0.52341 1.04378 0.0
H2514 H 0.13432 0.59904 0.07126 0.0
H2515 H 0.12101 0.57088 1.05006 0.0
H2516 H 1.01681 0.57484 0.16816 0.0
H2517 H 0.07081 0.55259 0.20422 0.0
H2518 H 0.10618 0.53262 0.16382 0.0
H2519 H 0.11173 0.53104 0.18913 0.0
Eu2520 Eu 0.21983 0.39653 0.86371 0.0
C2521 C 0.28951 0.30069 0.86359 0.0
C2522 C 0.26746 0.25054 0.85825 0.0
C2523 C 0.31766 0.2646 0.84897 0.0
C2524 C 0.26549 0.27955 0.86489 0.0
C2525 C 0.31594 0.29326 0.85573 0.0
C2526 C 0.29345 0.24337 0.85018 0.0
C2527 C 0.33675 0.34354 0.86142 0.0
N2528 N 0.28665 0.3289 0.86967 0.0
C2529 C 0.31002 0.35003 0.86899 0.0
C2530 C 0.3397 0.31507 0.85473 0.0
Eu2531 Eu 0.24277 0.33599 0.8838 0.0
N2532 N 0.24053 0.28706 0.87278 0.0
C2533 C 0.21819 0.26553 0.87538 0.0
C2534 C 0.24349 0.22931 0.86012 0.0
C2535 C 0.21897 0.2367 0.86886 0.0
H2536 H 0.30789 0.37197 0.87421 0.0
H2537 H 0.20094 0.21994 0.8708 0.0
H2538 H 0.29521 0.22127 0.84495 0.0
H2539 H 0.35505 0.36048 0.86076 0.0
H2540 H 0.20007 0.26997 0.88278 0.0
H2541 H 0.22339 0.51716 0.88135 0.0
H2542 H 0.24416 0.20682 0.85518 0.0
H2543 H 0.16784 0.37044 0.83884 0.0
H2544 H 0.2449 0.46765 0.874 0.0
H2545 H 0.11579 0.38173 0.83105 0.0
H2546 H 0.33763 0.25863 0.84276 0.0
H2547 H 0.16775 0.52769 0.87849 0.0
H2548 H 0.11704 0.5111 0.86878 0.0
H2549 H 0.36033 0.31022 0.84878 0.0
H2550 H 0.08732 0.4735 0.85526 0.0
N2551 N 0.20119 0.44706 0.8694 0.0
C2552 C 0.2202 0.47041 0.87376 0.0
C2553 C 0.17691 0.50516 0.8758 0.0
C2554 C 0.15825 0.48272 0.86966 0.0
C2555 C 0.20824 0.49924 0.8775 0.0
C2556 C 0.17128 0.45359 0.86638 0.0
H2557 H 0.08693 0.42573 0.84086 0.0
N2558 N 0.1696 0.40698 0.85386 0.0
C2559 C 0.12636 0.39615 0.83887 0.0
C2560 C 0.15484 0.43273 0.8585 0.0
C2561 C 0.15638 0.39002 0.84337 0.0
C2562 C 0.11007 0.42084 0.8445 0.0
C2563 C 0.12462 0.44017 0.85403 0.0
O2564 O 0.26619 0.40575 0.85587 0.0
O2565 O 0.24863 0.35221 0.86104 0.0
O2566 O 0.27132 0.3782 0.89521 0.0
O2567 O 0.25374 0.41937 0.88258 0.0
O2568 O 0.21702 0.36022 0.84616 0.0
O2569 O 0.22701 0.42921 0.84682 0.0
O2570 O 0.28318 0.33096 0.89683 0.0
O2571 O 0.22302 0.38168 0.88483 0.0
O2572 O 0.17204 0.36557 0.86714 0.0
O2573 O 0.188 0.32256 0.87945 0.0
O2574 O 0.20131 0.34887 0.89715 0.0
O2575 O 0.244 0.30108 0.90025 0.0
C2576 C 0.23894 0.3413 0.84916 0.0
C2577 C 0.27089 0.42167 0.83266 0.0
C2578 C 0.30868 0.44228 0.81632 0.0
C2579 C 0.29717 0.43933 0.8299 0.0
C2580 C 0.29534 0.4236 0.80592 0.0
C2581 C 0.25765 0.4038 0.82216 0.0
C2582 C 0.2705 0.40411 0.80893 0.0
C2583 C 0.2726 0.40936 0.89324 0.0
C2584 C 0.25667 0.42463 0.84633 0.0
C2585 C 0.11062 0.46774 0.85841 0.0
C2586 C 0.12754 0.48915 0.86609 0.0
C2587 C 0.20178 0.37762 0.8935 0.0
C2588 C 0.27411 0.31554 0.91978 0.0
C2589 C 0.26182 0.29369 0.92875 0.0
C2590 C 0.2641 0.29744 0.94307 0.0
C2591 C 0.27879 0.32342 0.94861 0.0
C2592 C 0.28982 0.34124 0.92531 0.0
C2593 C 0.29194 0.34519 0.93967 0.0
C2594 C 0.16429 0.33765 0.87291 0.0
C2595 C 0.2708 0.31034 0.90481 0.0
H2596 H 0.30745 0.45195 0.83838 0.0
H2597 H 0.30272 0.42493 0.79526 0.0
H2598 H 0.23727 0.39004 0.82411 0.0
H2599 H 0.26025 0.3903 0.80081 0.0
H2600 H 0.24992 0.27368 0.92456 0.0
H2601 H 0.28019 0.32669 0.9597 0.0
H2602 H 0.30045 0.3582 0.91861 0.0
H2603 H 0.30372 0.36516 0.94385 0.0
Eu2604 Eu 0.43583 0.46905 0.61095 0.0
C2605 C 0.53369 0.53975 0.60761 0.0
C2606 C 0.58345 0.51669 0.6025 0.0
C2607 C 0.56949 0.56603 0.59219 0.0
C2608 C 0.55463 0.51569 0.6093 0.0
C2609 C 0.54113 0.56537 0.5992 0.0
C2610 C 0.59052 0.54169 0.59378 0.0
C2611 C 0.4915 0.58753 0.60494 0.0
N2612 N 0.50582 0.5379 0.614 0.0
C2613 C 0.48496 0.56152 0.61301 0.0
C2614 C 0.51966 0.58944 0.59796 0.0
Eu2615 Eu 0.49854 0.49534 0.62897 0.0
N2616 N 0.54728 0.49184 0.61788 0.0
C2617 C 0.5689 0.46992 0.62107 0.0
C2618 C 0.60467 0.4929 0.60492 0.0
C2619 C 0.59752 0.46967 0.6144 0.0
H2620 H 0.46318 0.56016 0.6184 0.0
H2621 H 0.61429 0.45189 0.61679 0.0
H2622 H 0.61245 0.54268 0.5884 0.0
H2623 H 0.47478 0.60604 0.60406 0.0
H2624 H 0.56454 0.45286 0.629 0.0
H2625 H 0.3177 0.46739 0.63148 0.0
H2626 H 0.62702 0.49283 0.59988 0.0
H2627 H 0.46173 0.41674 0.58614 0.0
H2628 H 0.36493 0.49108 0.62263 0.0
H2629 H 0.45292 0.36323 0.57956 0.0
H2630 H 0.57541 0.5853 0.58554 0.0
H2631 H 0.31049 0.41083 0.62997 0.0
H2632 H 0.32948 0.35995 0.62109 0.0
H2633 H 0.52453 0.60948 0.5916 0.0
H2634 H 0.36691 0.33131 0.60695 0.0
N2635 N 0.38738 0.44813 0.61817 0.0
C2636 C 0.36353 0.4662 0.62281 0.0
C2637 C 0.33196 0.42106 0.6265 0.0
C2638 C 0.35481 0.40309 0.62022 0.0
C2639 C 0.33601 0.45292 0.62744 0.0
C2640 C 0.38243 0.41758 0.61588 0.0
H2641 H 0.41229 0.33263 0.59105 0.0
N2642 N 0.427 0.41767 0.60199 0.0
C2643 C 0.43883 0.37369 0.58754 0.0
C2644 C 0.40306 0.40174 0.60762 0.0
C2645 C 0.44349 0.40452 0.59131 0.0
C2646 C 0.41604 0.35644 0.59411 0.0
C2647 C 0.39713 0.37066 0.60393 0.0
O2648 O 0.42108 0.51491 0.60433 0.0
O2649 O 0.47902 0.49897 0.60687 0.0
O2650 O 0.45608 0.52589 0.63947 0.0
O2651 O 0.41386 0.50181 0.63023 0.0
O2652 O 0.46959 0.4674 0.59225 0.0
O2653 O 0.40267 0.47445 0.59411 0.0
O2654 O 0.50426 0.53702 0.64118 0.0
O2655 O 0.45381 0.47464 0.63148 0.0
O2656 O 0.46665 0.4218 0.61506 0.0
O2657 O 0.5124 0.44052 0.62402 0.0
O2658 O 0.48844 0.45469 0.64338 0.0
O2659 O 0.53301 0.49745 0.64558 0.0
C2660 C 0.4888 0.48932 0.59482 0.0
C2661 C 0.40547 0.52113 0.58123 0.0
C2662 C 0.38416 0.56258 0.56689 0.0
C2663 C 0.38813 0.54824 0.57987 0.0
C2664 C 0.40163 0.551 0.55565 0.0
C2665 C 0.42221 0.50981 0.56993 0.0
C2666 C 0.42091 0.52529 0.55729 0.0
C2667 C 0.4246 0.52409 0.63921 0.0
C2668 C 0.40377 0.50453 0.59442 0.0
C2669 C 0.37144 0.3553 0.60947 0.0
C2670 C 0.35013 0.37159 0.61751 0.0
C2671 C 0.45939 0.45432 0.64043 0.0
C2672 C 0.51818 0.52944 0.66445 0.0
C2673 C 0.54062 0.52005 0.67383 0.0
C2674 C 0.5356 0.52264 0.68809 0.0
C2675 C 0.50794 0.53516 0.69307 0.0
C2676 C 0.4907 0.54282 0.66947 0.0
C2677 C 0.4857 0.54566 0.68372 0.0
C2678 C 0.49611 0.41548 0.61923 0.0
C2679 C 0.52416 0.52487 0.64959 0.0
H2680 H 0.37668 0.55701 0.589 0.0
H2681 H 0.39959 0.56052 0.54536 0.0
H2682 H 0.43594 0.48898 0.57083 0.0
H2683 H 0.43383 0.51652 0.54854 0.0
H2684 H 0.56173 0.50951 0.67002 0.0
H2685 H 0.50358 0.53659 0.70409 0.0
H2686 H 0.47303 0.55087 0.66248 0.0
H2687 H 0.46436 0.55561 0.68749 0.0
H2688 H 0.21967 0.282 0.45346 0.0
H2689 H 0.18013 0.46233 0.45328 0.0
H2690 H 0.28274 0.35225 0.43939 0.0
H2691 H 0.11369 0.39084 0.46177 0.0
H2692 H 0.21911 0.42263 0.44899 0.0
H2693 H 0.18299 0.32245 0.46012 0.0
C2694 C 0.2262 0.30605 0.45232 0.0
C2695 C 0.25397 0.31411 0.44591 0.0
C2696 C 0.19612 0.41562 0.45204 0.0
C2697 C 0.21201 0.36002 0.45271 0.0
C2698 C 0.17398 0.43823 0.45449 0.0
C2699 C 0.14435 0.42966 0.45867 0.0
C2700 C 0.18858 0.38442 0.4542 0.0
C2701 C 0.13681 0.39828 0.45934 0.0
C2702 C 0.20509 0.32905 0.4558 0.0
C2703 C 0.26141 0.3454 0.44437 0.0
N2704 N 0.15903 0.37665 0.45744 0.0
N2705 N 0.24027 0.36734 0.44754 0.0
H2706 H 0.05827 0.95847 0.70377 0.0
H2707 H 0.87602 0.93532 0.69971 0.0
H2708 H 0.99275 1.03312 0.70102 0.0
H2709 H 0.93995 0.86011 0.70499 0.0
H2710 H 0.91968 0.97103 0.698 0.0
H2711 H 1.01556 0.9219 0.70624 0.0
C2712 C 1.03488 0.96723 0.70444 0.0
C2713 C 1.02873 0.99862 0.70223 0.0
C2714 C 0.92411 0.94681 0.70001 0.0
C2715 C 0.98016 0.95724 0.70394 0.0
C2716 C 0.89928 0.92653 0.70088 0.0
C2717 C 0.9046 0.89545 0.70385 0.0
C2718 C 0.95404 0.93577 0.70261 0.0
C2719 C 0.935 0.88449 0.704 0.0
C2720 C 1.01052 0.94636 0.70541 0.0
C2721 C 0.99819 1.009 0.70282 0.0
N2722 N 0.95876 0.90481 0.70391 0.0
N2723 N 0.97491 0.98821 0.7032 0.0
H2724 H 0.35591 0.79956 0.95613 0.0
H2725 H 0.40076 0.62093 0.95106 0.0
H2726 H 0.29607 0.73051 0.93846 0.0
H2727 H 0.46375 0.69307 0.96291 0.0
H2728 H 0.36114 0.6602 0.94672 0.0
H2729 H 0.39271 0.75897 0.96223 0.0
C2730 C 0.35003 0.77566 0.95405 0.0
C2731 C 0.32333 0.76816 0.94667 0.0
C2732 C 0.38352 0.66738 0.95051 0.0
C2733 C 0.36564 0.72218 0.95284 0.0
C2734 C 0.40602 0.64505 0.95294 0.0
C2735 C 0.43465 0.65386 0.95823 0.0
C2736 C 0.38971 0.69834 0.95387 0.0
C2737 C 0.4412 0.68528 0.95979 0.0
C2738 C 0.37131 0.75263 0.9572 0.0
C2739 C 0.31671 0.737 0.94407 0.0
N2740 N 0.41858 0.70648 0.95797 0.0
N2741 N 0.33811 0.71507 0.9469 0.0
H2742 H 0.63939 0.21764 0.2063 0.0
H2743 H 0.59486 1.04031 0.19825 0.0
H2744 H 0.70648 0.14455 0.20302 0.0
H2745 H 0.5286 0.11205 0.20681 0.0
H2746 H 0.63648 0.07737 0.20161 0.0
H2747 H 0.59816 0.1792 0.20629 0.0
C2748 C 0.64536 0.1934 0.20569 0.0
C2749 C 0.67618 0.18377 0.20577 0.0
C2750 C 0.61291 0.08487 0.20322 0.0
C2751 C 0.62957 0.14 0.20502 0.0
C2752 C 0.58925 0.06352 0.20167 0.0
C2753 C 0.55853 0.07339 0.20228 0.0
C2754 C 0.60554 0.11603 0.20558 0.0
C2755 C 0.55216 0.10373 0.20638 0.0
C2756 C 0.6219 0.1715 0.20566 0.0
C2757 C 0.68288 0.15251 0.20384 0.0
N2758 N 0.57557 0.12431 0.20762 0.0
N2759 N 0.65967 0.13156 0.20361 0.0
H2760 H 0.20933 0.80337 0.14855 0.0
H2761 H 0.18154 0.62098 0.14799 0.0
H2762 H 0.27776 0.73714 0.1616 0.0
H2763 H 0.10964 0.68858 0.14225 0.0
H2764 H 0.21815 0.66285 0.15236 0.0
H2765 H 0.17479 0.76076 0.14249 0.0
C2766 C 0.21744 0.77978 0.14961 0.0
C2767 C 0.24613 0.77345 0.15559 0.0
C2768 C 0.19448 0.66854 0.14983 0.0
C2769 C 0.20664 0.72506 0.14946 0.0
C2770 C 0.1737 0.64471 0.14735 0.0
C2771 C 0.14324 0.65168 0.14382 0.0
C2772 C 0.18472 0.69931 0.14825 0.0
C2773 C 0.13349 0.6825 0.14402 0.0
C2774 C 0.19756 0.75553 0.14648 0.0
C2775 C 0.25565 0.74266 0.157 0.0
N2776 N 0.15441 0.70538 0.14581 0.0
N2777 N 0.23569 0.71947 0.15417 0.0
H2778 H 0.70383 0.93531 0.40143 0.0
H2779 H 0.52207 0.96112 0.39666 0.0
H2780 H 0.63841 0.86101 0.39762 0.0
H2781 H 0.58799 1.03483 0.40114 0.0
H2782 H 0.56457 0.92437 0.39395 0.0
H2783 H 0.66113 0.97213 0.40221 0.0
C2784 C 0.68044 0.92689 0.40045 0.0
C2785 C 0.67448 0.89556 0.3983 0.0
C2786 C 0.56976 0.94869 0.39521 0.0
C2787 C 0.62593 0.9372 0.39858 0.0
C2788 C 0.54553 0.96972 0.3963 0.0
C2789 C 0.55181 1.0008 0.39915 0.0
C2790 C 0.60013 0.95911 0.39714 0.0
C2791 C 0.58245 1.01093 0.3989 0.0
C2792 C 0.65611 0.94782 0.40082 0.0
C2793 C 0.64386 0.88534 0.39823 0.0
N2794 N 0.60561 0.98995 0.39838 0.0
N2795 N 0.62056 0.90625 0.3979 0.0
H2796 H 0.40072 0.46192 0.64944 0.0
H2797 H 0.3665 0.28066 0.6504 0.0
H2798 H 0.47017 0.39236 0.64249 0.0
H2799 H 0.29909 0.35034 0.66054 0.0
H2800 H 0.40341 0.32148 0.64455 0.0
H2801 H 0.36293 0.42121 0.65361 0.0
C2802 C 0.40779 0.43801 0.64851 0.0
C2803 C 0.43788 0.43024 0.6447 0.0
C2804 C 0.38035 0.32785 0.64781 0.0
C2805 C 0.39498 0.38379 0.649 0.0
C2806 C 0.35916 0.30461 0.6508 0.0
C2807 C 0.32997 0.31247 0.65587 0.0
C2808 C 0.37207 0.35884 0.65008 0.0
C2809 C 0.32148 0.34364 0.65656 0.0
C2810 C 0.3863 0.41479 0.65088 0.0
C2811 C 0.44662 0.39911 0.64454 0.0
N2812 N 0.34268 0.36582 0.65393 0.0
N2813 N 0.42501 0.37683 0.6463 0.0
H2814 H 0.05094 0.10979 0.89447 0.0
H2815 H 0.87197 0.14856 0.90299 0.0
H2816 H 0.98324 0.04295 0.90747 0.0
H2817 H 0.94171 0.21628 0.8939 0.0
H2818 H 0.91244 0.10924 0.90517 0.0
H2819 H 1.0097 0.14744 0.89079 0.0
C2820 C 1.02719 0.10265 0.89589 0.0
C2821 C 1.02024 0.0736 0.90142 0.0
C2822 C 0.9188 0.13261 0.90235 0.0
C2823 C 0.97355 0.11665 0.89816 0.0
C2824 C 0.8958 0.15494 0.90119 0.0
C2825 C 0.90356 0.18489 0.89712 0.0
C2826 C 0.9493 0.14038 0.89889 0.0
C2827 C 0.93469 0.19279 0.89584 0.0
C2828 C 1.00378 0.12435 0.89421 0.0
C2829 C 0.98927 0.06535 0.90326 0.0
N2830 N 0.95651 0.17041 0.89629 0.0
N2831 N 0.96699 0.08713 0.902 0.0
H2832 H 0.78995 0.73896 0.65628 0.0
H2833 H 0.96641 0.6947 0.64613 0.0
H2834 H 0.86029 0.80505 0.64558 0.0
H2835 H 0.8941 0.6271 0.64998 0.0
H2836 H 0.92775 0.73582 0.64645 0.0
H2837 H 0.82682 0.69715 0.65261 0.0
C2838 C 0.81277 0.74444 0.6524 0.0
C2839 C 0.82239 0.77523 0.65129 0.0
C2840 C 0.92027 0.71198 0.64714 0.0
C2841 C 0.86484 0.72807 0.64766 0.0
C2842 C 0.9423 0.68859 0.64694 0.0
C2843 C 0.9329 0.65767 0.64693 0.0
C2844 C 0.88893 0.70412 0.64804 0.0
C2845 C 0.90184 0.65079 0.6491 0.0
C2846 C 0.83402 0.72071 0.65065 0.0
C2847 C 0.85218 0.78146 0.64648 0.0
N2848 N 0.88077 0.67393 0.64952 0.0
N2849 N 0.87272 0.758 0.64513 0.0
H2850 H 1.0285 0.12 0.39895 0.0
H2851 H 0.20937 0.15382 0.40182 0.0
H2852 H 0.09567 0.05338 0.41292 0.0
H2853 H 0.14071 0.22274 0.39263 0.0
H2854 H 0.16803 0.11702 0.40715 0.0
H2855 H 0.07017 0.15663 0.39437 0.0
C2856 C 0.05218 0.11274 0.40051 0.0
C2857 C 0.05892 0.08391 0.40633 0.0
C2858 C 0.16202 0.14003 0.40365 0.0
C2859 C 0.10618 0.12586 0.40197 0.0
C2860 C 0.18551 0.16088 0.40065 0.0
C2861 C 0.17809 0.19023 0.39567 0.0
C2862 C 0.13126 0.14861 0.40113 0.0
C2863 C 0.14716 0.19939 0.3953 0.0
C2864 C 0.07585 0.13386 0.39828 0.0
C2865 C 0.0898 0.07556 0.40841 0.0
N2866 N 0.12468 0.17829 0.39754 0.0
N2867 N 0.11238 0.09671 0.40646 0.0
H2868 H 0.60932 0.39448 0.14926 0.0
H2869 H 0.78489 0.34267 0.15588 0.0
H2870 H 0.68454 0.4585 0.15356 0.0
H2871 H 0.71104 0.27968 0.14635 0.0
H2872 H 0.74888 0.38572 0.15435 0.0
H2873 H 0.64602 0.35157 0.14927 0.0
C2874 C 0.6337 0.39943 0.15005 0.0
C2875 C 0.64458 0.42988 0.14998 0.0
C2876 C 0.74066 0.36264 0.15209 0.0
C2877 C 0.68626 0.38141 0.15088 0.0
C2878 C 0.76141 0.33821 0.1526 0.0
C2879 C 0.75069 0.30786 0.15125 0.0
C2880 C 0.70932 0.35656 0.14974 0.0
C2881 C 0.72002 0.30294 0.14734 0.0
C2882 C 0.65459 0.37501 0.15012 0.0
C2883 C 0.67577 0.43522 0.15249 0.0
N2884 N 0.70011 0.32713 0.14694 0.0
N2885 N 0.69575 0.41111 0.15269 0.0
H2886 H 0.43971 0.86577 0.88883 0.0
H2887 H 0.47134 1.03365 0.9193 0.0
H2888 H 0.36829 0.92338 0.90591 0.0
H2889 H 0.54045 0.97772 0.89921 0.0
H2890 H 0.43293 0.99373 0.91462 0.0
H2891 H 0.47773 0.90507 0.89422 0.0
C2892 C 0.43199 0.88697 0.89351 0.0
C2893 C 0.4007 0.8929 0.89577 0.0
C2894 C 0.45638 0.99037 0.91104 0.0
C2895 C 0.44405 0.93699 0.90289 0.0
C2896 C 0.47802 1.01343 0.91339 0.0
C2897 C 0.50888 1.00873 0.9096 0.0
C2898 C 0.46578 0.96272 0.90474 0.0
C2899 C 0.51675 0.98217 0.90215 0.0
C2900 C 0.45377 0.90926 0.89679 0.0
C2901 C 0.39222 0.9191 0.90328 0.0
N2902 N 0.49533 0.95984 0.90011 0.0
N2903 N 0.41386 0.94058 0.90647 0.0
H2904 H 0.79218 0.34255 0.94832 0.0
H2905 H 0.96822 0.39088 0.95565 0.0
H2906 H 0.86529 0.27763 0.95656 0.0
H2907 H 0.89372 0.45654 0.95307 0.0
H2908 H 0.93075 0.34875 0.95579 0.0
H2909 H 0.82826 0.38503 0.95174 0.0
C2910 C 0.8155 0.33741 0.95166 0.0
C2911 C 0.82603 0.30683 0.95215 0.0
C2912 C 0.92254 0.37239 0.9553 0.0
C2913 C 0.86756 0.35482 0.95552 0.0
C2914 C 0.94389 0.39636 0.95523 0.0
C2915 C 0.93363 0.42703 0.95549 0.0
C2916 C 0.89093 0.37941 0.95492 0.0
C2917 C 0.90223 0.43309 0.95381 0.0
C2918 C 0.83628 0.36155 0.95324 0.0
C2919 C 0.85647 0.30106 0.9562 0.0
N2920 N 0.88182 0.4094 0.95365 0.0
N2921 N 0.8765 0.32494 0.95746 0.0
H2922 H 0.5427 0.10588 0.7025 0.0
H2923 H 0.36867 0.16416 0.69482 0.0
H2924 H 0.47213 0.05436 0.68117 0.0
H2925 H 0.44125 0.21713 0.71371 0.0
H2926 H 0.40704 0.12542 0.68781 0.0
H2927 H 0.50477 0.14595 0.70782 0.0
C2928 C 0.51892 0.10256 0.69939 0.0
C2929 C 0.51035 0.07708 0.69137 0.0
C2930 C 0.4145 0.14543 0.69364 0.0
C2931 C 0.46753 0.12324 0.69664 0.0
C2932 C 0.39268 0.16739 0.69761 0.0
C2933 C 0.40169 0.19228 0.70585 0.0
C2934 C 0.44504 0.14842 0.69834 0.0
C2935 C 0.43305 0.19681 0.70849 0.0
C2936 C 0.49749 0.12574 0.70208 0.0
C2937 C 0.47944 0.0739 0.68736 0.0
N2938 N 0.45362 0.17453 0.70512 0.0
N2939 N 0.45914 0.09704 0.68985 0.0
H2940 H 0.71853 0.8038 0.45907 0.0
H2941 H 0.6863 0.62308 0.45193 0.0
H2942 H 0.78811 0.73801 0.44689 0.0
H2943 H 0.61559 0.69196 0.45738 0.0
H2944 H 0.72484 0.66429 0.45052 0.0
H2945 H 0.68239 0.7613 0.46274 0.0
C2946 C 0.72659 0.78022 0.45784 0.0
C2947 C 0.75598 0.77414 0.45252 0.0
C2948 C 0.70095 0.67033 0.45236 0.0
C2949 C 0.71468 0.72599 0.45579 0.0
C2950 C 0.67906 0.6469 0.4531 0.0
C2951 C 0.64827 0.6543 0.45578 0.0
C2952 C 0.69185 0.70098 0.4549 0.0
C2953 C 0.63948 0.68537 0.45632 0.0
C2954 C 0.70576 0.75608 0.45952 0.0
C2955 C 0.76543 0.74336 0.45094 0.0
N2956 N 0.66134 0.7077 0.45631 0.0
N2957 N 0.7445 0.72031 0.45221 0.0
H2958 H 0.13802 0.87149 0.21522 0.0
H2959 H 0.10271 1.03983 0.18651 0.0
H2960 H 0.20888 0.93226 0.20009 0.0
H2961 H 1.03496 0.98175 0.20622 0.0
H2962 H 0.1429 1.00272 0.19277 0.0
H2963 H 0.09983 0.91172 0.21168 0.0
C2964 C 0.14562 0.89361 0.21144 0.0
C2965 C 0.17683 0.89987 0.20918 0.0
C2966 C 0.11936 0.99838 0.19599 0.0
C2967 C 0.13317 0.94523 0.20405 0.0
C2968 C 0.09663 1.01984 0.1927 0.0
C2969 C 0.0657 1.01348 0.19582 0.0
C2970 C 0.11083 0.97056 0.20238 0.0
C2971 C 0.05866 0.98733 0.20369 0.0
C2972 C 0.12374 0.91649 0.20923 0.0
C2973 C 0.18506 0.92754 0.20275 0.0
N2974 N 0.08106 0.96638 0.20649 0.0
N2975 N 0.16327 0.94951 0.20046 0.0
H2976 H 0.68263 0.96203 0.95167 0.0
H2977 H 0.71999 0.78154 0.95592 0.0
H2978 H 0.61589 0.89209 0.96189 0.0
H2979 H 0.78368 0.84877 0.93958 0.0
H2980 H 0.6844 0.82336 0.96184 0.0
H2981 H 0.72082 0.9213 0.94738 0.0
C2982 C 0.67627 0.93808 0.95326 0.0
C2983 C 0.64702 0.93025 0.95817 0.0
C2984 C 0.70639 0.82902 0.95716 0.0
C2985 C 0.69033 0.88411 0.95394 0.0
C2986 C 0.72696 0.80527 0.95413 0.0
C2987 C 0.75444 0.81196 0.94716 0.0
C2988 C 0.71354 0.85937 0.95309 0.0
C2989 C 0.76247 0.84292 0.9449 0.0
C2990 C 0.69796 0.91492 0.95088 0.0
C2991 C 0.639 0.89906 0.95923 0.0
N2992 N 0.74174 0.86557 0.94759 0.0
N2993 N 0.66085 0.877 0.95753 0.0
H2994 H 0.37116 0.43272 0.20053 0.0
H2995 H 0.55172 0.46558 0.20622 0.0
H2996 H 0.43941 0.3614 0.20615 0.0
H2997 H 0.4842 0.53547 0.19651 0.0
H2998 H 0.51012 0.42802 0.20926 0.0
H2999 H 0.41239 0.47084 0.19857 0.0
C3000 C 0.39487 0.42525 0.20162 0.0
C3001 C 0.40206 0.39447 0.20455 0.0
C3002 C 0.50435 0.45171 0.2067 0.0
C3003 C 0.44899 0.43767 0.20287 0.0
C3004 C 0.52798 0.47329 0.20539 0.0
C3005 C 0.52111 0.5034 0.20109 0.0
C3006 C 0.47396 0.4606 0.2036 0.0
C3007 C 0.49017 0.51233 0.19987 0.0
C3008 C 0.41837 0.44693 0.20053 0.0
C3009 C 0.43303 0.38537 0.20485 0.0
N3010 N 0.46766 0.49078 0.2008 0.0
N3011 N 0.45552 0.40709 0.20446 0.0
H3012 H 0.89359 0.12282 0.45476 0.0
H3013 H 0.86039 0.30434 0.45444 0.0
H3014 H 0.96301 0.19238 0.46141 0.0
H3015 H 0.79361 0.23611 0.44199 0.0
H3016 H 0.89582 0.26278 0.46103 0.0
H3017 H 0.85548 0.16368 0.45099 0.0
C3018 C 0.90059 0.14675 0.45571 0.0
C3019 C 0.93084 0.15449 0.45926 0.0
C3020 C 0.87317 0.25688 0.45712 0.0
C3021 C 0.88762 0.20098 0.45549 0.0
C3022 C 0.85277 0.28054 0.4537 0.0
C3023 C 0.82433 0.27332 0.44771 0.0
C3024 C 0.86488 0.2261 0.45435 0.0
C3025 C 0.81547 0.24231 0.44665 0.0
C3026 C 0.87894 0.17001 0.45358 0.0
C3027 C 0.93942 0.18562 0.45955 0.0
N3028 N 0.83598 0.21968 0.4497 0.0
N3029 N 0.9177 0.20789 0.45804 0.0
H3030 H 0.09199 0.54783 0.69683 0.0
H3031 H 0.14217 0.72366 0.70482 0.0
H3032 H 1.02813 0.62147 0.70583 0.0
H3033 H 0.20693 0.6484 0.70199 0.0
H3034 H 0.09971 0.68658 0.7045 0.0
H3035 H 0.13479 0.58369 0.69981 0.0
C3036 C 0.0872 0.57123 0.70022 0.0
C3037 C 0.05679 0.58194 0.70113 0.0
C3038 C 0.12322 0.67812 0.70405 0.0
C3039 C 0.10513 0.62322 0.70404 0.0
C3040 C 0.14737 0.69923 0.70425 0.0
C3041 C 0.17785 0.68859 0.70462 0.0
C3042 C 0.1299 0.64639 0.70351 0.0
C3043 C 0.1836 0.65714 0.70269 0.0
C3044 C 0.1115 0.59188 0.70157 0.0
C3045 C 0.05143 0.6125 0.7052 0.0
N3046 N 0.15975 0.63697 0.7023 0.0
N3047 N 0.07547 0.63238 0.70627 0.0
H3048 H 0.60782 0.19056 0.64348 0.0
H3049 H 0.78006 0.23685 0.66321 0.0
H3050 H 0.67996 0.12411 0.65075 0.0
H3051 H 0.71163 0.30268 0.6498 0.0
H3052 H 0.74354 0.19505 0.65913 0.0
H3053 H 0.64444 0.23241 0.64761 0.0
C3054 C 0.63155 0.18489 0.64579 0.0
C3055 C 0.64195 0.15427 0.64557 0.0
C3056 C 0.73669 0.21853 0.65673 0.0
C3057 C 0.68321 0.20138 0.65116 0.0
C3058 C 0.75775 0.24222 0.65874 0.0
C3059 C 0.74866 0.27295 0.65672 0.0
C3060 C 0.70663 0.22574 0.65243 0.0
C3061 C 0.71942 0.2791 0.65127 0.0
C3062 C 0.65234 0.20868 0.64826 0.0
C3063 C 0.6719 0.14773 0.64992 0.0
N3064 N 0.69915 0.2556 0.64945 0.0
N3065 N 0.69175 0.17122 0.65244 0.0
H3066 H 0.14031 0.36581 0.89537 0.0
H3067 H 0.09307 0.54097 0.90689 0.0
H3068 H 0.20725 0.43858 0.89959 0.0
H3069 H 1.02943 0.47029 0.89387 0.0
H3070 H 0.1359 0.50525 0.90301 0.0
H3071 H 0.09907 0.40415 0.89554 0.0
C3072 C 0.14625 0.38998 0.89615 0.0
C3073 C 0.17702 0.39957 0.89631 0.0
C3074 C 0.11264 0.49778 0.90065 0.0
C3075 C 0.13035 0.44328 0.89736 0.0
C3076 C 0.08836 0.51837 0.90254 0.0
C3077 C 0.05792 0.50822 0.90081 0.0
C3078 C 0.10613 0.46708 0.89701 0.0
C3079 C 0.0527 0.4788 0.89532 0.0
C3080 C 0.12278 0.41184 0.89631 0.0
C3081 C 0.18366 0.43072 0.89859 0.0
N3082 N 0.07662 0.45886 0.89391 0.0
N3083 N 0.16039 0.45168 0.899 0.0
H3084 H 0.96702 0.88998 0.14191 0.0
H3085 H 0.79482 0.84905 0.16312 0.0
H3086 H 0.89637 0.95896 0.14745 0.0
H3087 H 0.86155 0.78098 0.15021 0.0
H3088 H 0.83039 0.89004 0.15619 0.0
H3089 H 0.92858 0.84953 0.14527 0.0
C3090 C 0.94326 0.89651 0.14368 0.0
C3091 C 0.93414 0.92752 0.14349 0.0
C3092 C 0.83703 0.86616 0.15459 0.0
C3093 C 0.89056 0.88185 0.1481 0.0
C3094 C 0.81655 0.8429 0.1583 0.0
C3095 C 0.82554 0.81189 0.1572 0.0
C3096 C 0.86667 0.85812 0.14997 0.0
C3097 C 0.85392 0.80476 0.15111 0.0
C3098 C 0.92138 0.87349 0.14566 0.0
C3099 C 0.90373 0.93509 0.14684 0.0
N3100 N 0.87386 0.8278 0.14794 0.0
N3101 N 0.88287 0.9123 0.14903 0.0
H3102 H 0.48753 0.54764 0.40518 0.0
H3103 H 0.4368 0.72368 0.39809 0.0
H3104 H 0.55095 0.62137 0.3959 0.0
H3105 H 0.37225 0.64835 0.40073 0.0
H3106 H 0.47936 0.68659 0.39832 0.0
H3107 H 0.44461 0.58368 0.40281 0.0
C3108 C 0.49216 0.57111 0.40185 0.0
C3109 C 0.52252 0.58178 0.40069 0.0
C3110 C 0.45588 0.67813 0.39876 0.0
C3111 C 0.47406 0.62323 0.39844 0.0
C3112 C 0.43166 0.69924 0.39862 0.0
C3113 C 0.40122 0.68858 0.3982 0.0
C3114 C 0.44927 0.64639 0.39918 0.0
C3115 C 0.39555 0.65711 0.40006 0.0
C3116 C 0.46781 0.59186 0.40086 0.0
C3117 C 0.52769 0.61243 0.39672 0.0
N3118 N 0.41945 0.63693 0.40038 0.0
N3119 N 0.5036 0.63238 0.39596 0.0
H3120 H 0.36911 0.30658 0.14686 0.0
H3121 H 0.3991 0.12539 0.15434 0.0
H3122 H 0.29757 0.23971 0.15457 0.0
H3123 H 0.47134 0.19201 0.14796 0.0
H3124 H 0.36189 0.16784 0.1562 0.0
H3125 H 0.4065 0.26447 0.1447 0.0
C3126 C 0.36107 0.28289 0.14738 0.0
C3127 C 0.3305 0.27633 0.15098 0.0
C3128 C 0.38579 0.17312 0.15398 0.0
C3129 C 0.37299 0.22864 0.14956 0.0
C3130 C 0.40692 0.14899 0.15304 0.0
C3131 C 0.43756 0.15539 0.14973 0.0
C3132 C 0.39549 0.20338 0.15102 0.0
C3133 C 0.44729 0.1862 0.14925 0.0
C3134 C 0.38251 0.25896 0.14661 0.0
C3135 C 0.32109 0.24545 0.15178 0.0
N3136 N 0.42609 0.20922 0.14936 0.0
N3137 N 0.3425 0.22267 0.15151 0.0
H3138 H 0.59849 0.54268 0.91137 0.0
H3139 H 0.63776 0.71611 0.89089 0.0
H3140 H 0.53016 0.60885 0.89824 0.0
H3141 H 0.70702 0.64773 0.89989 0.0
H3142 H 0.59786 0.67683 0.89317 0.0
H3143 H 0.63913 0.57913 0.90509 0.0
C3144 C 0.59223 0.56441 0.90653 0.0
C3145 C 0.56123 0.57304 0.90527 0.0
C3146 C 0.62178 0.67026 0.89452 0.0
C3147 C 0.60704 0.61521 0.89878 0.0
C3148 C 0.64453 0.69264 0.89311 0.0
C3149 C 0.67563 0.6843 0.89404 0.0
C3150 C 0.63038 0.63975 0.89758 0.0
C3151 C 0.68322 0.65442 0.89828 0.0
C3152 C 0.61529 0.58546 0.90325 0.0
C3153 C 0.55395 0.60149 0.89923 0.0
N3154 N 0.66065 0.63302 0.89986 0.0
N3155 N 0.57678 0.62196 0.89644 0.0
H3156 H 0.28646 0.84865 0.65708 0.0
H3157 H 0.11052 0.8942 0.64624 0.0
H3158 H 0.21595 0.78339 0.6456 0.0
H3159 H 0.1831 0.96155 0.64998 0.0
H3160 H 0.14893 0.85292 0.64688 0.0
H3161 H 0.24985 0.89086 0.65357 0.0
C3162 C 0.26363 0.84346 0.65314 0.0
C3163 C 0.25392 0.81277 0.65167 0.0
C3164 C 0.15653 0.87673 0.64748 0.0
C3165 C 0.2118 0.86032 0.64825 0.0
C3166 C 0.13465 0.90022 0.64709 0.0
C3167 C 0.1442 0.93108 0.647 0.0
C3168 C 0.18789 0.88444 0.64849 0.0
C3169 C 0.17527 0.93787 0.64921 0.0
C3170 C 0.24256 0.86739 0.65147 0.0
C3171 C 0.22415 0.80689 0.64677 0.0
N3172 N 0.1962 0.91463 0.64983 0.0
N3173 N 0.20379 0.83052 0.6455 0.0
H3174 H 0.98469 0.53604 0.40975 0.0
H3175 H 0.94005 0.36262 0.39219 0.0
H3176 H 0.05086 0.46681 0.39753 0.0
H3177 H 0.87257 0.43505 0.39671 0.0
H3178 H 0.98115 0.40074 0.39438 0.0
H3179 H 0.94288 0.50082 0.40357 0.0
C3180 C 0.99026 0.51383 0.4052 0.0
C3181 C 1.02097 0.50402 0.40416 0.0
C3182 C 0.95737 0.40842 0.39478 0.0
C3183 C 0.9738 0.46334 0.39777 0.0
C3184 C 0.93398 0.3867 0.39347 0.0
C3185 C 0.90318 0.39635 0.39324 0.0
C3186 C 0.94964 0.43966 0.39658 0.0
C3187 C 0.89625 0.42723 0.39606 0.0
C3188 C 0.96652 0.49355 0.40193 0.0
C3189 C 1.02734 0.47507 0.39839 0.0
N3190 N 0.91941 0.44796 0.39761 0.0
N3191 N 1.00384 0.45536 0.39566 0.0
H3192 H 0.39883 0.96158 0.44836 0.0
H3193 H 0.35743 0.78325 0.45824 0.0
H3194 H 0.46509 0.89097 0.45847 0.0
H3195 H 0.29226 0.85124 0.44375 0.0
H3196 H 0.39538 0.8242 0.4617 0.0
H3197 H 0.35917 0.92153 0.44609 0.0
C3198 C 0.40482 0.93765 0.45034 0.0
C3199 C 0.43442 0.92956 0.45472 0.0
C3200 C 0.37259 0.83027 0.45799 0.0
C3201 C 0.38952 0.88434 0.45284 0.0
C3202 C 0.3507 0.80705 0.45642 0.0
C3203 C 0.32204 0.81409 0.45056 0.0
C3204 C 0.3655 0.86041 0.45359 0.0
C3205 C 0.31435 0.84512 0.44822 0.0
C3206 C 0.3823 0.91489 0.44912 0.0
C3207 C 0.44185 0.8983 0.45627 0.0
N3208 N 0.33632 0.86719 0.4494 0.0
N3209 N 0.41926 0.87675 0.45577 0.0
H3210 H 0.86984 0.65604 0.20142 0.0
H3211 H 0.04946 0.61511 0.20293 0.0
H3212 H 0.9408 0.72069 0.21283 0.0
H3213 H 0.97941 0.55243 0.18834 0.0
H3214 H 1.00937 0.65308 0.20824 0.0
H3215 H 0.90984 0.61846 0.19524 0.0
C3216 C 0.8939 0.66204 0.20283 0.0
C3217 C 0.9023 0.69041 0.20855 0.0
C3218 C 1.00272 0.63088 0.20403 0.0
C3219 C 0.9477 0.64785 0.202 0.0
C3220 C 1.02548 0.60898 0.20137 0.0
C3221 C 1.01747 0.58085 0.19523 0.0
C3222 C 0.97198 0.62435 0.20047 0.0
C3223 C 0.98625 0.574 0.19312 0.0
C3224 C 0.91666 0.64075 0.19931 0.0
C3225 C 0.93353 0.69816 0.2094 0.0
N3226 N 0.96456 0.59587 0.19554 0.0
N3227 N 0.95526 0.67661 0.20653 0.0
H3228 H 0.28275 0.23883 0.94727 0.0
H3229 H 0.10703 0.18899 0.95515 0.0
H3230 H 0.2094 0.30305 0.95621 0.0
H3231 H 0.18204 0.12396 0.95233 0.0
H3232 H 0.14411 0.23147 0.95473 0.0
H3233 H 0.2467 0.19607 0.95004 0.0
C3234 C 0.25934 0.2437 0.95058 0.0
C3235 C 0.2488 0.27421 0.95157 0.0
C3236 C 0.1525 0.2079 0.95429 0.0
C3237 C 0.20734 0.22592 0.95424 0.0
C3238 C 0.13139 0.18373 0.95455 0.0
C3239 C 0.14197 0.15317 0.95493 0.0
C3240 C 0.18415 0.20115 0.95373 0.0
C3241 C 0.17334 0.14735 0.953 0.0
C3242 C 0.2386 0.21943 0.95181 0.0
C3243 C 0.21825 0.27967 0.95553 0.0
N3244 N 0.19351 0.17122 0.95255 0.0
N3245 N 0.19829 0.25565 0.9565 0.0
H3246 H 0.52727 0.47244 0.70428 0.0
H3247 H 0.70825 0.43839 0.70462 0.0
H3248 H 0.59553 0.53874 0.69127 0.0
H3249 H 0.63855 0.36907 0.7113 0.0
H3250 H 0.66761 0.47655 0.70044 0.0
H3251 H 0.56864 0.43675 0.71075 0.0
C3252 C 0.55105 0.4799 0.70337 0.0
C3253 C 0.55831 0.50823 0.69721 0.0
C3254 C 0.6612 0.45311 0.7031 0.0
C3255 C 0.60529 0.46738 0.70376 0.0
C3256 C 0.68432 0.43144 0.70544 0.0
C3257 C 0.67644 0.40125 0.70912 0.0
C3258 C 0.63024 0.44451 0.70495 0.0
C3259 C 0.64536 0.39267 0.70931 0.0
C3260 C 0.57459 0.45933 0.70671 0.0
C3261 C 0.5893 0.51691 0.696 0.0
N3262 N 0.62322 0.41444 0.70761 0.0
N3263 N 0.6118 0.49624 0.699 0.0
H3264 H 0.10253 0.21633 0.36725 0.0
H3265 H 0.97759 0.36666 0.36541 0.0
H3266 H 0.13447 0.3096 0.37115 0.0
H3267 H 0.94618 0.27412 0.37246 0.0
H3268 H 1.03168 0.34753 0.36562 0.0
H3269 H 0.04854 0.23562 0.3673 0.0
C3270 C 0.09916 0.24106 0.36805 0.0
C3271 C 0.12657 0.26012 0.36917 0.0
C3272 C 1.01342 0.33081 0.36711 0.0
C3273 C 0.05851 0.28467 0.36908 0.0
C3274 C 0.9811 0.34212 0.36694 0.0
C3275 C 0.95381 0.32319 0.36887 0.0
C3276 C 1.02194 0.29883 0.36901 0.0
C3277 C 0.96395 0.2913 0.37088 0.0
C3278 C 0.06689 0.25246 0.36812 0.0
C3279 C 0.11659 0.29229 0.37026 0.0
N3280 N 0.9953 0.28099 0.37077 0.0
N3281 N 0.08525 0.30267 0.37007 0.0
H3282 H 0.96291 0.73221 0.61961 0.0
H3283 H 0.11339 0.85666 0.61962 0.0
H3284 H 0.0553 0.69998 0.626 0.0
H3285 H 1.02109 0.88887 0.62632 0.0
H3286 H 0.09395 0.80262 0.61975 0.0
H3287 H 0.98231 0.78628 0.61986 0.0
C3288 C 0.98746 0.73552 0.62103 0.0
C3289 C 1.00624 0.70799 0.62279 0.0
C3290 C 0.07735 0.82104 0.62118 0.0
C3291 C 1.03097 0.77614 0.62287 0.0
C3292 C 0.08885 0.85335 0.62108 0.0
C3293 C 0.07011 0.88087 0.62297 0.0
C3294 C 0.04533 0.81273 0.6229 0.0
C3295 C 1.03816 0.87092 0.6248 0.0
C3296 C 0.99894 0.76784 0.6212 0.0
C3297 C 1.0382 0.71793 0.62458 0.0
N3298 N 1.02766 0.83959 0.6246 0.0
N3299 N 0.04867 0.74928 0.62444 0.0
H3300 H 0.45095 0.79772 0.88845 0.0
H3301 H 0.61357 0.7501 0.84734 0.0
H3302 H 0.46838 0.83911 0.84897 0.0
H3303 H 0.61956 0.77336 0.89029 0.0
H3304 H 0.55989 0.77028 0.84697 0.0
H3305 H 0.50518 0.77873 0.88889 0.0
C3306 C 0.46535 0.80303 0.87961 0.0
C3307 C 0.45159 0.82124 0.86861 0.0
C3308 C 0.57235 0.77115 0.85666 0.0
C3309 C 0.51965 0.7966 0.86891 0.0
C3310 C 0.60438 0.75899 0.85694 0.0
C3311 C 0.62466 0.75875 0.86887 0.0
C3312 C 0.55657 0.78338 0.86861 0.0
C3313 C 0.6076 0.772 0.88049 0.0
C3314 C 0.49772 0.79178 0.87994 0.0
C3315 C 0.47506 0.82583 0.85796 0.0
N3316 N 0.57635 0.78256 0.88004 0.0
N3317 N 0.50578 0.8138 0.85835 0.0
H3318 H 0.46657 0.23094 0.12148 0.0
H3319 H 0.61753 0.3548 0.12185 0.0
H3320 H 0.55877 0.19838 0.12811 0.0
H3321 H 0.52515 0.38743 0.12789 0.0
H3322 H 0.59791 0.30083 0.12203 0.0
H3323 H 0.48617 0.28492 0.1217 0.0
C3324 C 0.49112 0.23416 0.12295 0.0
C3325 C 0.50978 0.20657 0.1248 0.0
C3326 C 0.58133 0.31933 0.12332 0.0
C3327 C 0.53476 0.27462 0.12484 0.0
C3328 C 0.59295 0.35159 0.1232 0.0
C3329 C 0.57425 0.3792 0.1249 0.0
C3330 C 0.54923 0.31116 0.12486 0.0
C3331 C 0.54221 0.3694 0.12654 0.0
C3332 C 0.50272 0.26643 0.1231 0.0
C3333 C 0.54175 0.21639 0.12663 0.0
N3334 N 0.53161 0.3381 0.12636 0.0
N3335 N 0.55234 0.2477 0.12647 0.0
H3336 H 0.95542 0.78101 0.21375 0.0
H3337 H 0.11321 0.83963 0.25593 0.0
H3338 H 0.96786 0.75182 0.25571 0.0
H3339 H 0.12347 0.80685 0.2144 0.0
H3340 H 0.05953 0.81944 0.25614 0.0
H3341 H 1.00962 0.79997 0.21354 0.0
C3342 C 0.9687 0.77837 0.22316 0.0
C3343 C 0.95363 0.76338 0.23476 0.0
C3344 C 0.07297 0.8164 0.2468 0.0
C3345 C 1.02158 0.78815 0.23471 0.0
C3346 C 0.105 0.8285 0.24663 0.0
C3347 C 0.12644 0.82603 0.23516 0.0
C3348 C 0.05841 0.80149 0.23516 0.0
C3349 C 0.11056 0.81029 0.22385 0.0
C3350 C 1.00106 0.7896 0.22297 0.0
C3351 C 0.97571 0.76217 0.24616 0.0
N3352 N 0.0793 0.79981 0.22415 0.0
N3353 N 1.00641 0.77415 0.24584 0.0
H3354 H 0.50023 0.86644 0.50047 0.0
H3355 H 0.55312 0.70581 0.4584 0.0
H3356 H 0.52626 0.87382 0.45789 0.0
H3357 H 0.58558 0.71963 0.49975 0.0
H3358 H 0.53446 0.76023 0.45805 0.0
H3359 H 0.52021 0.8126 0.50076 0.0
C3360 C 0.50972 0.85754 0.49094 0.0
C3361 C 0.51032 0.87826 0.47914 0.0
C3362 C 0.54552 0.75195 0.46738 0.0
C3363 C 0.53476 0.80996 0.47929 0.0
C3364 C 0.55661 0.71946 0.46764 0.0
C3365 C 0.57239 0.70466 0.47911 0.0
C3366 C 0.54795 0.77295 0.47892 0.0
C3367 C 0.57458 0.7272 0.49031 0.0
C3368 C 0.52176 0.8254 0.49117 0.0
C3369 C 0.52426 0.86152 0.46759 0.0
N3370 N 0.56274 0.75806 0.48994 0.0
N3371 N 0.53474 0.83017 0.46798 0.0
H3372 H 0.63555 0.27752 0.73077 0.0
H3373 H 0.4432 0.31192 0.7303 0.0
H3374 H 0.60001 0.369 0.73673 0.0
H3375 H 0.47873 0.22075 0.7372 0.0
H3376 H 0.49694 0.33213 0.73054 0.0
H3377 H 0.58179 0.25738 0.73099 0.0
C3378 C 0.6171 0.29412 0.73212 0.0
C3379 C 0.6258 0.32629 0.73381 0.0
C3380 C 0.49369 0.30754 0.73201 0.0
C3381 C 0.55793 0.30116 0.7338 0.0
C3382 C 0.46164 0.2954 0.73187 0.0
C3383 C 0.45295 0.26329 0.73378 0.0
C3384 C 0.5208 0.2885 0.7338 0.0
C3385 C 0.48127 0.2454 0.73569 0.0
C3386 C 0.58504 0.28202 0.73226 0.0
C3387 C 0.59747 0.34429 0.73545 0.0
N3388 N 0.51187 0.25766 0.73552 0.0
N3389 N 0.56685 0.33205 0.73528 0.0
H3390 H 1.02064 0.19383 0.97636 0.0
H3391 H 0.05596 0.38639 0.97585 0.0
H3392 H 0.11212 0.22887 0.98218 0.0
H3393 H 0.96476 0.35154 0.98272 0.0
H3394 H 0.07579 0.33238 0.97604 0.0
H3395 H 1.00078 0.24785 0.97657 0.0
C3396 C 1.0373 0.21222 0.97767 0.0
C3397 C 0.06938 0.20329 0.97932 0.0
C3398 C 0.05128 0.33583 0.97752 0.0
C3399 C 0.04458 0.27149 0.97931 0.0
C3400 C 1.03935 0.36804 0.9774 0.0
C3401 C 1.00737 0.37703 0.97934 0.0
C3402 C 1.03212 0.30881 0.97931 0.0
C3403 C 0.98934 0.34879 0.98121 0.0
C3404 C 1.02536 0.24443 0.97781 0.0
C3405 C 0.08747 0.23157 0.98091 0.0
N3406 N 1.0014 0.31802 0.98103 0.0
N3407 N 0.07538 0.26233 0.98074 0.0
H3408 H 0.13751 0.81 0.72592 0.0
H3409 H 0.94528 0.77497 0.72562 0.0
H3410 H 0.10237 0.71844 0.7319 0.0
H3411 H 0.98032 0.86643 0.73199 0.0
H3412 H 0.99914 0.75496 0.72586 0.0
H3413 H 0.08365 0.83001 0.72608 0.0
C3414 C 0.11913 0.79335 0.72726 0.0
C3415 C 0.12797 0.7612 0.72896 0.0
C3416 C 0.99576 0.77957 0.72721 0.0
C3417 C 0.05998 0.78618 0.7289 0.0
C3418 C 0.96364 0.79159 0.72706 0.0
C3419 C 0.95477 0.82371 0.72884 0.0
C3420 C 1.02277 0.79874 0.72887 0.0
C3421 C 0.983 0.84175 0.7306 0.0
C3422 C 0.08701 0.80538 0.72737 0.0
C3423 C 0.09972 0.74314 0.73059 0.0
N3424 N 1.01368 0.82959 0.73045 0.0
N3425 N 0.06905 0.7553 0.7304 0.0
H3426 H 1.02539 0.20642 0.4626 0.0
H3427 H 0.07978 0.36632 0.5047 0.0
H3428 H 0.99325 0.22029 0.50402 0.0
H3429 H 0.05234 0.37452 0.46232 0.0
H3430 H 0.05957 0.31256 0.50495 0.0
H3431 H 0.04429 0.26074 0.46228 0.0
C3432 C 1.02205 0.22006 0.47187 0.0
C3433 C 1.0063 0.20532 0.48335 0.0
C3434 C 0.05773 0.32554 0.49541 0.0
C3435 C 1.03098 0.27345 0.48319 0.0
C3436 C 0.06987 0.35761 0.49521 0.0
C3437 C 0.06893 0.37852 0.48348 0.0
C3438 C 0.04429 0.31037 0.48357 0.0
C3439 C 0.05457 0.36206 0.47197 0.0
C3440 C 1.03326 0.25248 0.47162 0.0
C3441 C 1.00426 0.22783 0.49458 0.0
N3442 N 0.04401 0.33076 0.47233 0.0
N3443 N 1.01622 0.2586 0.49421 0.0
H3444 H 0.63553 0.30692 0.22589 0.0
H3445 H 0.44328 0.27185 0.22636 0.0
H3446 H 0.60072 0.21563 0.233 0.0
H3447 H 0.4784 0.36349 0.23209 0.0
H3448 H 0.49715 0.25184 0.22665 0.0
H3449 H 0.58166 0.32683 0.22604 0.0
C3450 C 0.61722 0.2903 0.22749 0.0
C3451 C 0.6262 0.25828 0.22951 0.0
C3452 C 0.49379 0.27649 0.22785 0.0
C3453 C 0.55809 0.28314 0.2294 0.0
C3454 C 0.46165 0.28853 0.22767 0.0
C3455 C 0.45277 0.3207 0.22926 0.0
C3456 C 0.52084 0.29569 0.22935 0.0
C3457 C 0.48104 0.33876 0.23086 0.0
C3458 C 0.58508 0.30228 0.22758 0.0
C3459 C 0.598 0.24026 0.23142 0.0
N3460 N 0.51173 0.32659 0.23074 0.0
N3461 N 0.56728 0.25236 0.2312 0.0
H3462 H 0.5525 0.87847 0.96302 0.0
H3463 H 0.50197 0.71703 1.00506 0.0
H3464 H 0.58808 0.86297 1.00373 0.0
H3465 H 0.52415 0.71082 0.962 0.0
H3466 H 0.52234 0.77071 1.00531 0.0
H3467 H 0.53336 0.82425 0.96266 0.0
C3468 C 0.55659 0.86449 0.97212 0.0
C3469 C 0.57337 0.87876 0.98342 0.0
C3470 C 0.52295 0.75819 0.99562 0.0
C3471 C 0.5484 0.81075 0.98323 0.0
C3472 C 0.51068 0.72618 0.99543 0.0
C3473 C 0.51011 0.70586 0.9835 0.0
C3474 C 0.53499 0.77388 0.98361 0.0
C3475 C 0.52312 0.72283 0.9718 0.0
C3476 C 0.54522 0.83212 0.97185 0.0
C3477 C 0.57627 0.85583 0.99444 0.0
N3478 N 0.53383 0.75406 0.97219 0.0
N3479 N 0.56417 0.82513 0.99408 0.0
H3480 H 0.11472 0.33636 0.85175 0.0
H3481 H 0.95645 0.27878 0.89409 0.0
H3482 H 0.12421 0.30566 0.89364 0.0
H3483 H 0.96898 0.24947 0.85218 0.0
H3484 H 1.01065 0.29766 0.89432 0.0
H3485 H 0.06106 0.31612 0.85156 0.0
C3486 C 0.10632 0.32575 0.86115 0.0
C3487 C 0.12756 0.32395 0.87272 0.0
C3488 C 1.00213 0.28726 0.88489 0.0
C3489 C 0.05953 0.29921 0.87272 0.0
C3490 C 0.96976 0.27603 0.8847 0.0
C3491 C 0.95466 0.26102 0.87311 0.0
C3492 C 1.02269 0.2858 0.87316 0.0
C3493 C 0.97679 0.25978 0.86172 0.0
C3494 C 0.07431 0.31358 0.86098 0.0
C3495 C 0.11147 0.30867 0.88412 0.0
N3496 N 1.00751 0.27176 0.86204 0.0
N3497 N 0.08023 0.2981 0.88381 0.0
H3498 H 0.55894 0.38858 0.62236 0.0
H3499 H 0.52433 0.19575 0.62072 0.0
H3500 H 0.46771 0.35321 0.61617 0.0
H3501 H 0.61608 0.23173 0.61745 0.0
H3502 H 0.50411 0.24966 0.62063 0.0
H3503 H 0.57902 0.33465 0.62216 0.0
C3504 C 0.54239 0.37013 0.62095 0.0
C3505 C 0.51032 0.37891 0.6192 0.0
C3506 C 0.52882 0.24646 0.61992 0.0
C3507 C 0.53537 0.31089 0.61916 0.0
C3508 C 0.54097 0.21432 0.61998 0.0
C3509 C 0.57326 0.20575 0.619 0.0
C3510 C 0.54801 0.2737 0.61911 0.0
C3511 C 0.59129 0.2342 0.61813 0.0
C3512 C 0.55446 0.33799 0.62082 0.0
C3513 C 0.49236 0.3506 0.61749 0.0
N3514 N 0.57899 0.26485 0.61829 0.0
N3515 N 0.50456 0.3199 0.61761 0.0
H3516 H 0.6342 0.77388 0.37718 0.0
H3517 H 0.44196 0.80957 0.3767 0.0
H3518 H 0.59926 0.86547 0.37079 0.0
H3519 H 0.47704 0.71785 0.37093 0.0
H3520 H 0.49584 0.8294 0.37656 0.0
H3521 H 0.58032 0.75406 0.37693 0.0
C3522 C 0.61586 0.79057 0.37573 0.0
C3523 C 0.62478 0.82266 0.37395 0.0
C3524 C 0.49247 0.80477 0.37532 0.0
C3525 C 0.55673 0.79792 0.37389 0.0
C3526 C 0.46033 0.79285 0.37541 0.0
C3527 C 0.45146 0.76072 0.37377 0.0
C3528 C 0.5195 0.78547 0.37385 0.0
C3529 C 0.47971 0.74255 0.37221 0.0
C3530 C 0.58372 0.77865 0.37557 0.0
C3531 C 0.59657 0.84079 0.37218 0.0
N3532 N 0.5104 0.75462 0.37241 0.0
N3533 N 0.56587 0.82873 0.37232 0.0
H3534 H 0.05717 0.88584 0.12211 0.0
H3535 H 1.02169 0.6932 0.12154 0.0
H3536 H 0.9658 0.85094 0.11583 0.0
H3537 H 0.11329 0.72836 0.11625 0.0
H3538 H 1.00182 0.74723 0.12138 0.0
H3539 H 0.07699 0.83181 0.1219 0.0
C3540 C 0.04052 0.86748 0.12068 0.0
C3541 C 1.0085 0.87645 0.1189 0.0
C3542 C 1.02643 0.74383 0.12024 0.0
C3543 C 1.03323 0.80823 0.1189 0.0
C3544 C 1.03837 0.71161 0.12035 0.0
C3545 C 0.07049 0.70272 0.11882 0.0
C3546 C 0.04568 0.77092 0.11888 0.0
C3547 C 0.0886 0.73103 0.11738 0.0
C3548 C 0.05244 0.83526 0.12055 0.0
C3549 C 0.99042 0.84821 0.11717 0.0
N3550 N 0.07651 0.76178 0.11756 0.0
N3551 N 1.00247 0.81743 0.11733 0.0
H3552 H 0.29574 0.2243 0.33078 0.0
H3553 H 0.28374 0.35339 0.26706 0.0
H3554 H 0.22085 0.28882 0.32766 0.0
H3555 H 0.36005 0.29078 0.27093 0.0
H3556 H 0.26069 0.33053 0.28823 0.0
H3557 H 0.31899 0.24749 0.3097 0.0
C3558 C 0.28417 0.24378 0.32603 0.0
C3559 C 0.25611 0.25467 0.33213 0.0
C3560 C 0.28233 0.32124 0.28449 0.0
C3561 C 0.28328 0.28188 0.30618 0.0
C3562 C 0.29567 0.33437 0.27198 0.0
C3563 C 0.32416 0.324 0.2661 0.0
C3564 C 0.29701 0.29697 0.29209 0.0
C3565 C 0.33797 0.29985 0.27423 0.0
C3566 C 0.29761 0.2571 0.31358 0.0
C3567 C 0.24266 0.27937 0.32421 0.0
N3568 N 0.32463 0.2876 0.28627 0.0
N3569 N 0.25599 0.29167 0.31217 0.0
H3570 H 0.97658 1.03563 0.52035 0.0
H3571 H 0.09873 0.05137 0.58635 0.0
H3572 H 1.03425 0.11512 0.526 0.0
H3573 H 1.03973 0.97272 0.58109 0.0
H3574 H 0.07622 0.07451 0.56511 0.0
H3575 H 0.99898 1.01263 0.54163 0.0
C3576 C 0.9945 0.04827 0.52568 0.0
C3577 C 1.00367 0.07764 0.52028 0.0
C3578 C 0.06763 0.05233 0.56857 0.0
C3579 C 1.02997 0.0506 0.54638 0.0
C3580 C 0.0805 1.03896 0.58111 0.0
C3581 C 0.07096 1.00981 0.58662 0.0
C3582 C 0.0446 1.03694 0.56054 0.0
C3583 C 0.04804 0.99533 0.57808 0.0
C3584 C 1.0073 1.03497 0.53825 0.0
C3585 C 1.0262 0.09237 0.52894 0.0
N3586 N 1.03607 1.00866 0.56599 0.0
N3587 N 1.03817 0.07906 0.54103 0.0
H3588 H 0.28225 0.85554 0.83154 0.0
H3589 H 0.29692 0.7291 0.76694 0.0
H3590 H 0.35864 0.79297 0.8278 0.0
H3591 H 0.21951 0.79021 0.77116 0.0
H3592 H 0.31954 0.75174 0.78824 0.0
H3593 H 0.25945 0.83267 0.8103 0.0
C3594 C 0.29424 0.83653 0.82663 0.0
C3595 C 0.3226 0.82607 0.83258 0.0
C3596 C 0.29774 0.76075 0.78455 0.0
C3597 C 0.29597 0.79932 0.80647 0.0
C3598 C 0.28467 0.74778 0.77197 0.0
C3599 C 0.25603 0.75783 0.76614 0.0
C3600 C 0.28258 0.78449 0.79228 0.0
C3601 C 0.24175 0.78146 0.77441 0.0
C3602 C 0.28107 0.82343 0.81409 0.0
C3603 C 0.33659 0.80203 0.82445 0.0
N3604 N 0.25482 0.79355 0.78652 0.0
N3605 N 0.32351 0.78994 0.81234 0.0
H3606 H 0.46839 0.04259 0.08112 0.0
H3607 H 0.61659 0.04281 1.02722 0.0
H3608 H 0.54594 0.10282 0.08672 0.0
H3609 H 0.53951 0.98186 1.02191 0.0
H3610 H 0.59177 0.0646 1.04806 0.0
H3611 H 0.49326 1.02074 0.06031 0.0
C3612 C 0.49112 0.05095 0.07837 0.0
C3613 C 0.5049 0.07419 0.08688 0.0
C3614 C 0.57967 0.04685 1.04234 0.0
C3615 C 0.53452 0.04893 0.06121 0.0
C3616 C 0.59396 1.03429 1.03004 0.0
C3617 C 0.58027 1.01088 1.02159 0.0
C3618 C 0.55073 1.03607 1.04729 0.0
C3619 C 0.55127 1.00063 1.02708 0.0
C3620 C 0.50544 1.03834 0.06609 0.0
C3621 C 0.53407 0.08421 0.08148 0.0
N3622 N 0.53797 1.01306 1.03912 0.0
N3623 N 0.54739 0.07176 0.06945 0.0
H3624 H 0.28321 0.72864 0.33541 0.0
H3625 H 0.29718 0.8571 0.27158 0.0
H3626 H 0.36008 0.79043 0.33167 0.0
H3627 H 0.22144 0.79376 0.27478 0.0
H3628 H 0.32014 0.83361 0.29266 0.0
H3629 H 0.26067 0.75159 0.31414 0.0
C3630 C 0.29537 0.74751 0.33049 0.0
C3631 C 0.32383 0.75764 0.33643 0.0
C3632 C 0.29866 0.82429 0.28877 0.0
C3633 C 0.29735 0.78472 0.31034 0.0
C3634 C 0.28542 0.83774 0.27632 0.0
C3635 C 0.25721 0.82726 0.27025 0.0
C3636 C 0.28396 0.79982 0.29621 0.0
C3637 C 0.24344 0.80279 0.27818 0.0
C3638 C 0.28233 0.76067 0.31793 0.0
C3639 C 0.33798 0.78157 0.32831 0.0
N3640 N 0.25658 0.79038 0.29023 0.0
N3641 N 0.32494 0.79386 0.31622 0.0
H3642 H 0.54368 0.11063 0.57953 0.0
H3643 H 0.54899 0.98252 0.51551 0.0
H3644 H 0.61607 0.04317 0.57687 0.0
H3645 H 0.47382 0.04551 0.52188 0.0
H3646 H 0.57492 1.00451 0.53627 0.0
H3647 H 0.51979 0.08823 0.55858 0.0
C3648 C 0.55466 0.09075 0.57483 0.0
C3649 C 0.58207 0.0788 0.58106 0.0
C3650 C 0.55296 1.01412 0.53311 0.0
C3651 C 0.55408 0.0524 0.55524 0.0
C3652 C 0.53802 1.00162 0.52082 0.0
C3653 C 0.50897 1.01257 0.51575 0.0
C3654 C 0.53927 1.03806 0.54128 0.0
C3655 C 0.49638 1.0364 0.52443 0.0
C3656 C 0.54077 0.07782 0.56249 0.0
C3657 C 0.59466 0.05336 0.57333 0.0
N3658 N 0.51118 0.04794 0.5362 0.0
N3659 N 0.58093 0.04147 0.56129 0.0
H3660 H 0.2845 0.22603 0.77154 0.0
H3661 H 0.298 0.35299 0.83595 0.0
H3662 H 0.35916 0.29066 0.77448 0.0
H3663 H 0.22028 0.29261 0.83131 0.0
H3664 H 0.3208 0.33051 0.81462 0.0
H3665 H 0.26154 0.24895 0.79273 0.0
C3666 C 0.29603 0.24553 0.77626 0.0
C3667 C 0.32389 0.25659 0.77005 0.0
C3668 C 0.2989 0.32161 0.81824 0.0
C3669 C 0.2972 0.28333 0.79619 0.0
C3670 C 0.28572 0.33448 0.83083 0.0
C3671 C 0.25689 0.32462 0.83653 0.0
C3672 C 0.28373 0.29809 0.81039 0.0
C3673 C 0.24264 0.3012 0.82816 0.0
C3674 C 0.28278 0.25867 0.78878 0.0
C3675 C 0.33742 0.28119 0.77798 0.0
N3676 N 0.25585 0.28916 0.81606 0.0
N3677 N 0.32433 0.29326 0.79011 0.0
H3678 H 0.04062 0.11223 1.02117 0.0
H3679 H 1.0358 0.96597 0.07658 0.0
H3680 H 0.10043 1.03369 1.01716 0.0
H3681 H 0.98074 0.04744 0.08213 0.0
H3682 H 0.05826 0.98904 0.05541 0.0
H3683 H 1.01843 0.0892 1.04241 0.0
C3684 C 0.04904 0.08982 1.02444 0.0
C3685 C 0.07238 0.07518 1.01627 0.0
C3686 C 0.04158 1.00239 0.06123 0.0
C3687 C 0.04628 0.04753 1.04228 0.0
C3688 C 1.02851 0.98902 0.07367 0.0
C3689 C 1.00643 1.00441 0.08225 0.0
C3690 C 1.03278 1.03215 0.05631 0.0
C3691 C 0.99833 1.03426 0.07683 0.0
C3692 C 1.03615 0.07649 1.03693 0.0
C3693 C 0.08195 0.04624 1.02217 0.0
N3694 N 1.01111 0.04658 0.06466 0.0
N3695 N 0.06916 1.03387 1.03433 0.0
H3696 H 0.73067 0.79593 0.83292 0.0
H3697 H 0.85008 0.78728 0.76548 0.0
H3698 H 0.78811 0.71718 0.82478 0.0
H3699 H 0.79338 0.8665 0.77376 0.0
H3700 H 0.82787 0.76162 0.78624 0.0
H3701 H 0.75293 0.82177 0.81221 0.0
C3702 C 0.74861 0.78407 0.82722 0.0
C3703 C 0.75799 0.75405 0.83178 0.0
C3704 C 0.81973 0.78449 0.78352 0.0
C3705 C 0.78354 0.78424 0.80624 0.0
C3706 C 0.83234 0.79931 0.77124 0.0
C3707 C 0.82316 0.8294 0.7667 0.0
C3708 C 0.7976 0.79936 0.79228 0.0
C3709 C 0.8011 0.8432 0.77594 0.0
C3710 C 0.76124 0.79897 0.81495 0.0
C3711 C 0.78025 0.74043 0.82258 0.0
N3712 N 0.78947 0.82853 0.78775 0.0
N3713 N 0.79185 0.75516 0.81079 0.0
H3714 H 0.86251 0.29209 0.32747 0.0
H3715 H 0.71877 0.28943 0.27082 0.0
H3716 H 0.78393 0.35183 0.33126 0.0
H3717 H 0.79668 0.22871 0.26738 0.0
H3718 H 0.74166 0.31213 0.29196 0.0
H3719 H 0.83971 0.26954 0.30628 0.0
C3720 C 0.84014 0.30044 0.32416 0.0
C3721 C 0.82546 0.32391 0.33227 0.0
C3722 C 0.75427 0.2941 0.28663 0.0
C3723 C 0.79811 0.29742 0.30624 0.0
C3724 C 0.74104 0.28092 0.27418 0.0
C3725 C 0.7555 0.25712 0.26619 0.0
C3726 C 0.78293 0.28375 0.29217 0.0
C3727 C 0.78422 0.24746 0.27224 0.0
C3728 C 0.82694 0.28732 0.31169 0.0
C3729 C 0.79657 0.33332 0.32631 0.0
N3730 N 0.79645 0.26046 0.28439 0.0
N3731 N 0.78439 0.32041 0.31413 0.0
H3732 H 0.79624 0.35596 0.77013 0.0
H3733 H 0.78456 0.22523 0.83248 0.0
H3734 H 0.71701 0.29804 0.77582 0.0
H3735 H 0.85448 0.29524 0.83323 0.0
H3736 H 0.76179 0.24976 0.8118 0.0
H3737 H 0.81943 0.33325 0.79134 0.0
C3738 C 0.78371 0.3379 0.77544 0.0
C3739 C 0.75425 0.32889 0.77014 0.0
C3740 C 0.78177 0.26048 0.81649 0.0
C3741 C 0.78156 0.30214 0.79607 0.0
C3742 C 0.79486 0.24645 0.82874 0.0
C3743 C 0.82104 0.25846 0.83595 0.0
C3744 C 0.79504 0.28699 0.81013 0.0
C3745 C 0.83358 0.28515 0.82911 0.0
C3746 C 0.7971 0.32498 0.78798 0.0
C3747 C 0.73972 0.30611 0.77873 0.0
N3748 N 0.82082 0.29798 0.81702 0.0
N3749 N 0.75318 0.2939 0.79071 0.0
H3750 H 0.71863 0.79069 0.33346 0.0
H3751 H 0.8588 0.79257 0.27499 0.0
H3752 H 0.79371 0.85505 0.33544 0.0
H3753 H 0.78614 0.72537 0.27412 0.0
H3754 H 0.83558 0.81561 0.29601 0.0
H3755 H 0.74184 0.76761 0.31244 0.0
C3756 C 0.74032 0.79999 0.32978 0.0
C3757 C 0.75392 0.82497 0.33731 0.0
C3758 C 0.82419 0.79605 0.29128 0.0
C3759 C 0.78161 0.7979 0.31148 0.0
C3760 C 0.83759 0.78265 0.2789 0.0
C3761 C 0.82459 0.75693 0.27166 0.0
C3762 C 0.79691 0.78401 0.29749 0.0
C3763 C 0.79732 0.74556 0.2784 0.0
C3764 C 0.75374 0.78657 0.31742 0.0
C3765 C 0.78191 0.83551 0.3309 0.0
N3766 N 0.78487 0.75887 0.29043 0.0
N3767 N 0.79427 0.82231 0.31882 0.0
H3768 H 0.61651 0.54297 0.08087 0.0
H3769 H 0.46873 0.54141 1.02674 0.0
H3770 H 0.53906 0.48265 0.08656 0.0
H3771 H 0.54587 0.60216 1.0211 0.0
H3772 H 0.49351 0.52006 1.04767 0.0
H3773 H 0.59189 0.56427 0.05988 0.0
C3774 C 0.59387 0.53446 0.07809 0.0
C3775 C 0.58006 0.51135 0.08668 0.0
C3776 C 0.50564 0.53765 1.04186 0.0
C3777 C 0.55068 0.536 0.0608 0.0
C3778 C 0.49139 0.54996 1.0295 0.0
C3779 C 0.50505 0.57321 1.02093 0.0
C3780 C 0.53457 0.54853 1.04678 0.0
C3781 C 0.53409 0.5835 1.02636 0.0
C3782 C 0.57967 0.54676 0.0657 0.0
C3783 C 0.55097 0.50117 0.08126 0.0
N3784 N 0.54736 0.57133 1.03847 0.0
N3785 N 0.53778 0.51332 0.06913 0.0
H3786 H 0.97611 0.53653 0.58574 0.0
H3787 H 0.10019 0.54949 0.52018 0.0
H3788 H 1.03665 0.61405 0.58063 0.0
H3789 H 1.03986 0.47182 0.52537 0.0
H3790 H 0.07783 0.57299 0.54137 0.0
H3791 H 0.9985 0.513 0.56456 0.0
C3792 C 0.99464 0.54863 0.58055 0.0
C3793 C 1.00463 0.57759 0.5861 0.0
C3794 C 0.06891 0.55095 0.53791 0.0
C3795 C 1.03092 0.54994 0.56006 0.0
C3796 C 0.08171 0.53736 0.52539 0.0
C3797 C 0.07178 0.50835 0.51986 0.0
C3798 C 0.04551 0.53599 0.54591 0.0
C3799 C 0.04849 0.4943 0.52837 0.0
C3800 C 1.00746 0.53501 0.56803 0.0
C3801 C 1.02799 0.59159 0.57762 0.0
N3802 N 1.03659 0.50786 0.54043 0.0
N3803 N 1.0399 0.57803 0.56556 0.0
H3804 H 0.09903 0.5314 0.0825 0.0
H3805 H 0.9785 0.54797 1.01595 0.0
H3806 H 0.04537 0.61323 0.0755 0.0
H3807 H 1.03614 0.46841 1.02184 0.0
H3808 H 1.00127 0.5714 1.03705 0.0
H3809 H 0.07589 0.50804 0.0615 0.0
C3810 C 0.08172 0.54449 0.07697 0.0
C3811 C 0.07394 0.57466 0.08192 0.0
C3812 C 1.00951 0.54894 1.03376 0.0
C3813 C 0.04698 0.54722 0.05603 0.0
C3814 C 0.99651 0.5354 1.02129 0.0
C3815 C 1.00562 0.50591 1.01598 0.0
C3816 C 1.03219 0.53337 1.04194 0.0
C3817 C 1.02818 0.49126 1.02468 0.0
C3818 C 0.06858 0.53099 0.06452 0.0
C3819 C 0.05237 0.58992 0.07292 0.0
N3820 N 1.04024 0.50474 1.0367 0.0
N3821 N 1.04007 0.57643 0.06094 0.0
H3822 H 0.47607 0.54774 0.58123 0.0
H3823 H 0.60098 0.53342 0.5161 0.0
H3824 H 0.53775 0.47072 0.57701 0.0
H3825 H 0.54115 0.61167 0.52109 0.0
H3826 H 0.57842 0.5103 0.53733 0.0
H3827 H 0.49861 0.57073 0.55998 0.0
C3828 C 0.49484 0.53564 0.57621 0.0
C3829 C 0.50512 0.50703 0.58204 0.0
C3830 C 0.56965 0.53238 0.53381 0.0
C3831 C 0.5316 0.53398 0.55592 0.0
C3832 C 0.58256 0.54575 0.52127 0.0
C3833 C 0.57285 0.57482 0.51569 0.0
C3834 C 0.54631 0.54763 0.54175 0.0
C3835 C 0.5496 0.58913 0.52414 0.0
C3836 C 0.50776 0.54894 0.56366 0.0
C3837 C 0.52883 0.49294 0.57377 0.0
N3838 N 0.53756 0.57576 0.53621 0.0
N3839 N 0.54082 0.50618 0.56166 0.0
H3840 H 0.28863 0.17683 0.41922 0.0
H3841 H 0.42423 1.03805 0.42877 0.0
H3842 H 0.31053 0.1177 0.3851 0.0
H3843 H 0.36805 0.06374 0.46332 0.0
H3844 H 0.39102 0.07021 0.41351 0.0
H3845 H 0.32088 0.14372 0.43447 0.0
C3846 C 0.30004 0.15729 0.41447 0.0
C3847 C 0.29462 0.15245 0.39977 0.0
C3848 C 0.38536 0.06939 0.42441 0.0
C3849 C 0.33624 0.11053 0.41905 0.0
C3850 C 0.40529 0.05024 0.4336 0.0
C3851 C 0.40127 0.04585 0.44842 0.0
C3852 C 0.35931 0.08745 0.42914 0.0
C3853 C 0.37429 0.0642 0.45249 0.0
C3854 C 0.31922 0.13739 0.42367 0.0
C3855 C 0.31192 0.12466 0.39583 0.0
N3856 N 0.35602 0.08316 0.44345 0.0
N3857 N 0.33095 0.10643 0.40485 0.0
H3858 H 0.26883 0.12075 0.71806 0.0
H3859 H 0.21234 0.0637 0.63826 0.0
H3860 H 0.29066 0.17674 0.68289 0.0
H3861 H 0.15569 0.04311 0.67333 0.0
H3862 H 0.24509 0.09697 0.65329 0.0
H3863 H 0.23543 0.08816 0.70304 0.0
C3864 C 0.26738 0.12697 0.70724 0.0
C3865 C 0.28469 0.15406 0.70282 0.0
C3866 C 0.22565 0.08541 0.65804 0.0
C3867 C 0.24302 0.11214 0.68356 0.0
C3868 C 0.20602 0.06538 0.64907 0.0
C3869 C 0.1787 0.04844 0.65345 0.0
C3870 C 0.22078 0.08996 0.67272 0.0
C3871 C 0.17491 0.05435 0.6683 0.0
C3872 C 0.24727 0.10742 0.69827 0.0
C3873 C 0.27908 0.15772 0.68795 0.0
N3874 N 0.19471 0.07303 0.67675 0.0
N3875 N 0.26031 0.138 0.67951 0.0
H3876 H 0.21985 0.0644 0.94895 0.0
H3877 H 0.24774 0.89687 0.90483 0.0
H3878 H 0.14745 0.99788 0.94453 0.0
H3879 H 0.30815 0.97384 0.89851 0.0
H3880 H 0.2152 0.9296 0.92008 0.0
H3881 H 0.25269 1.03244 0.93335 0.0
C3882 C 0.20995 0.04324 0.94497 0.0
C3883 C 0.17841 1.03619 0.94906 0.0
C3884 C 0.23552 0.94004 0.91555 0.0
C3885 C 0.2202 0.99515 0.92947 0.0
C3886 C 0.25518 0.92045 0.90645 0.0
C3887 C 0.28313 0.93021 0.89934 0.0
C3888 C 0.24195 0.97197 0.91887 0.0
C3889 C 0.28809 0.96276 0.90294 0.0
C3890 C 0.22968 1.02418 0.9356 0.0
C3891 C 0.17027 1.00682 0.94244 0.0
N3892 N 0.269 0.98092 0.91197 0.0
N3893 N 0.18995 0.98871 0.9337 0.0
H3894 H 0.32665 0.95076 0.21921 0.0
H3895 H 0.36124 1.03363 0.14108 0.0
H3896 H 0.27465 0.92402 0.18359 0.0
H3897 H 0.42952 1.03477 0.17303 0.0
H3898 H 0.32834 1.00023 0.15599 0.0
H3899 H 0.35943 0.98399 0.2042 0.0
C3900 C 0.32097 0.95166 0.20833 0.0
C3901 C 0.29521 0.93279 0.20375 0.0
C3902 C 0.35046 1.00741 0.16005 0.0
C3903 C 0.33681 0.97471 0.18457 0.0
C3904 C 0.3702 1.02747 0.15116 0.0
C3905 C 0.4007 1.03906 0.1547 0.0
C3906 C 0.35877 0.99726 0.17383 0.0
C3907 C 0.4077 1.0278 0.16865 0.0
C3908 C 0.34085 0.97131 0.19935 0.0
C3909 C 0.29275 0.93679 0.18874 0.0
N3910 N 0.38796 1.00907 0.17709 0.0
N3911 N 0.31188 0.95633 0.18038 0.0
H3912 H 0.74969 0.9015 0.69524 0.0
H3913 H 0.72525 0.06569 0.64819 0.0
H3914 H 0.81528 0.97522 0.69777 0.0
H3915 H 0.65081 1.00238 0.65477 0.0
H3916 H 0.75813 1.03365 0.6637 0.0
H3917 H 0.71712 0.93411 0.67995 0.0
C3918 C 0.75828 0.92431 0.69275 0.0
C3919 C 0.78767 0.93323 0.69883 0.0
C3920 C 0.73465 1.02611 0.66195 0.0
C3921 C 0.74638 0.97485 0.6793 0.0
C3922 C 0.71489 0.04522 0.65264 0.0
C3923 C 0.68282 1.03906 0.64914 0.0
C3924 C 0.72461 0.99796 0.66869 0.0
C3925 C 0.67411 1.01055 0.65635 0.0
C3926 C 0.73859 0.94384 0.68364 0.0
C3927 C 0.79402 0.96487 0.69419 0.0
N3928 N 0.6938 0.99237 0.66507 0.0
N3929 N 0.7748 0.98299 0.68521 0.0
H3930 H 0.85364 0.06373 0.45512 0.0
H3931 H 0.82964 0.8997 0.40804 0.0
H3932 H 0.92907 1.0022 0.44726 0.0
H3933 H 0.76411 0.97354 0.40502 0.0
H3934 H 0.86217 0.93263 0.42316 0.0
H3935 H 0.82064 1.03158 0.43971 0.0
C3936 C 0.86418 0.04363 0.45041 0.0
C3937 C 0.89657 1.03798 0.45352 0.0
C3938 C 0.84073 0.94233 0.4194 0.0
C3939 C 0.85466 0.99671 0.43413 0.0
C3940 C 0.82108 0.92263 0.41037 0.0
C3941 C 0.79174 0.93147 0.4042 0.0
C3942 C 0.8329 0.97344 0.4236 0.0
C3943 C 0.78535 0.96323 0.40868 0.0
C3944 C 0.84436 1.02445 0.44116 0.0
C3945 C 0.90549 1.00991 0.44602 0.0
N3946 N 0.8045 0.9815 0.41762 0.0
N3947 N 0.88575 0.99163 0.4374 0.0
H3948 H 0.86461 0.05875 0.13405 0.0
H3949 H 0.81025 0.11661 0.21415 0.0
H3950 H 0.92209 1.03859 0.1689 0.0
H3951 H 0.78582 0.17118 0.17887 0.0
H3952 H 0.84345 0.08402 0.19898 0.0
H3953 H 0.83192 0.09193 0.14919 0.0
C3954 C 0.87114 0.06051 0.14482 0.0
C3955 C 0.89867 0.04372 0.1491 0.0
C3956 C 0.83104 0.10296 0.19422 0.0
C3957 C 0.85669 0.08516 0.16852 0.0
C3958 C 0.81105 0.12249 0.20327 0.0
C3959 C 0.79307 0.1492 0.19887 0.0
C3960 C 0.83455 0.10731 0.17944 0.0
C3961 C 0.79794 0.15248 0.18393 0.0
C3962 C 0.85154 0.08049 0.15386 0.0
C3963 C 0.9027 0.04973 0.16393 0.0
N3964 N 0.81664 0.13279 0.17541 0.0
N3965 N 0.88296 0.06837 0.17244 0.0
H3966 H 0.6558 0.04218 0.93374 0.0
H3967 H 0.79783 0.17332 0.92322 0.0
H3968 H 0.71921 0.05865 0.96685 0.0
H3969 H 0.76833 0.11938 0.88857 0.0
H3970 H 0.76602 0.1402 0.93863 0.0
H3971 H 0.68867 0.07413 0.91828 0.0
C3972 C 0.67632 0.05224 0.93822 0.0
C3973 C 0.68247 0.04537 0.9527 0.0
C3974 C 0.76593 0.13501 0.92768 0.0
C3975 C 0.72398 0.08677 0.93319 0.0
C3976 C 0.78487 0.15489 0.9184 0.0
C3977 C 0.78811 0.15141 0.9035 0.0
C3978 C 0.7469 0.10967 0.92299 0.0
C3979 C 0.76881 0.12511 0.89946 0.0
C3980 C 0.69602 0.07129 0.9289 0.0
C3981 C 0.71126 0.06118 0.95631 0.0
N3982 N 0.75005 0.10693 0.90859 0.0
N3983 N 0.72929 0.08016 0.9472 0.0
H3984 H 0.76509 0.6069 0.89899 0.0
H3985 H 0.93101 0.58135 0.94436 0.0
H3986 H 0.82862 0.68139 0.90506 0.0
H3987 H 0.85571 0.51835 0.94938 0.0
H3988 H 0.89804 0.6139 0.9292 0.0
H3989 H 0.79728 0.57409 0.9145 0.0
C3990 C 0.78564 0.61728 0.90332 0.0
C3991 C 0.79179 0.64936 0.89968 0.0
C3992 C 0.88801 0.59303 0.93343 0.0
C3993 C 0.83316 0.60761 0.91919 0.0
C3994 C 0.90772 0.57338 0.94249 0.0
C3995 C 0.8985 0.54475 0.94924 0.0
C3996 C 0.85648 0.58588 0.92976 0.0
C3997 C 0.86635 0.53903 0.94527 0.0
C3998 C 0.80485 0.59756 0.91263 0.0
C3999 C 0.82044 0.65807 0.90673 0.0
N4000 N 0.84807 0.55813 0.93628 0.0
N4001 N 0.83873 0.6384 0.91542 0.0
H4002 H 0.64927 0.58383 0.15949 0.0
H4003 H 0.81456 0.61067 0.20522 0.0
H4004 H 0.72469 0.52048 0.15546 0.0
H4005 H 0.74942 0.68408 0.19955 0.0
H4006 H 0.78277 0.57752 0.18975 0.0
H4007 H 0.68166 0.61669 0.17472 0.0
C4008 C 0.67245 0.57582 0.16161 0.0
C4009 C 0.68193 0.54697 0.15512 0.0
C4010 C 0.77478 0.60083 0.19169 0.0
C4011 C 0.72324 0.58854 0.17464 0.0
C4012 C 0.79373 0.62075 0.20099 0.0
C4013 C 0.78702 0.65268 0.20471 0.0
C4014 C 0.74622 0.6105 0.18522 0.0
C4015 C 0.7581 0.66098 0.19777 0.0
C4016 C 0.69183 0.59567 0.17071 0.0
C4017 C 0.71392 0.54128 0.15937 0.0
N4018 N 0.74009 0.64114 0.18907 0.0
N4019 N 0.73189 0.5606 0.16835 0.0
H4020 H 0.77118 0.46507 0.38418 0.0
H4021 H 0.71345 0.51986 0.46421 0.0
H4022 H 0.79221 0.40832 0.41921 0.0
H4023 H 0.65982 0.5449 0.42875 0.0
H4024 H 0.74607 0.48649 0.44912 0.0
H4025 H 0.73806 0.4979 0.39928 0.0
C4026 C 0.76959 0.45873 0.39499 0.0
C4027 C 0.78654 0.43136 0.39935 0.0
C4028 C 0.72732 0.49907 0.44431 0.0
C4029 C 0.74526 0.47345 0.41867 0.0
C4030 C 0.70779 0.51915 0.45331 0.0
C4031 C 0.68135 0.53731 0.44882 0.0
C4032 C 0.72317 0.49568 0.42952 0.0
C4033 C 0.67829 0.53258 0.43386 0.0
C4034 C 0.74967 0.4784 0.40399 0.0
C4035 C 0.78083 0.42753 0.4142 0.0
N4036 N 0.69795 0.51377 0.42541 0.0
N4037 N 0.76221 0.44733 0.42268 0.0
H4038 H 0.78354 0.4134 0.68361 0.0
H4039 H 0.92222 0.54884 0.67347 0.0
H4040 H 0.81081 0.46914 0.71805 0.0
H4041 H 0.8645 0.52427 0.6393 0.0
H4042 H 0.88919 0.51705 0.68892 0.0
H4043 H 0.81564 0.44619 0.66821 0.0
C4044 C 0.79609 0.43214 0.6884 0.0
C4045 C 0.79218 0.43614 0.70325 0.0
C4046 C 0.88314 0.51803 0.67807 0.0
C4047 C 0.83364 0.47767 0.68374 0.0
C4048 C 0.903 0.53693 0.66875 0.0
C4049 C 0.89854 0.54146 0.65396 0.0
C4050 C 0.85666 0.50045 0.67351 0.0
C4051 C 0.87113 0.52362 0.65008 0.0
C4052 C 0.8152 0.45185 0.67911 0.0
C4053 C 0.81089 0.46292 0.70722 0.0
N4054 N 0.85291 0.50492 0.65923 0.0
N4055 N 0.82976 0.48101 0.69808 0.0
H4056 H 0.31398 0.47185 0.19867 0.0
H4057 H 0.14686 0.49924 0.15424 0.0
H4058 H 0.24765 0.39927 0.19426 0.0
H4059 H 0.22298 0.56093 0.14854 0.0
H4060 H 0.1796 0.46669 0.16948 0.0
H4061 H 0.282 0.50478 0.18311 0.0
C4062 C 0.29287 0.4619 0.19469 0.0
C4063 C 0.28591 0.43026 0.19878 0.0
C4064 C 0.18987 0.48727 0.16509 0.0
C4065 C 0.24481 0.4722 0.1792 0.0
C4066 C 0.17028 0.50693 0.15597 0.0
C4067 C 0.17978 0.53522 0.14901 0.0
C4068 C 0.2216 0.49401 0.16858 0.0
C4069 C 0.21211 0.54055 0.15282 0.0
C4070 C 0.27379 0.4817 0.18534 0.0
C4071 C 0.25657 0.42213 0.19216 0.0
N4072 N 0.23029 0.52143 0.16185 0.0
N4073 N 0.23846 0.44186 0.18342 0.0
H4074 H 0.42562 0.54428 0.93328 0.0
H4075 H 0.28438 0.41138 0.92354 0.0
H4076 H 0.36543 0.52368 0.96714 0.0
H4077 H 0.31413 0.46465 0.8887 0.0
H4078 H 0.31649 0.44442 0.93882 0.0
H4079 H 0.3926 0.51226 0.91795 0.0
C4080 C 0.40584 0.53323 0.93796 0.0
C4081 C 0.4007 0.53896 0.95262 0.0
C4082 C 0.3166 0.44947 0.92785 0.0
C4083 C 0.35882 0.4976 0.93322 0.0
C4084 C 0.29748 0.42961 0.91864 0.0
C4085 C 0.29423 0.43286 0.90372 0.0
C4086 C 0.33574 0.47468 0.92308 0.0
C4087 C 0.31364 0.45904 0.8996 0.0
C4088 C 0.386 0.51417 0.92871 0.0
C4089 C 0.37264 0.52208 0.95646 0.0
N4090 N 0.33251 0.47726 0.90868 0.0
N4091 N 0.35443 0.50319 0.94739 0.0
H4092 H 0.43331 0.58444 0.65345 0.0
H4093 H 0.26828 0.60942 0.69973 0.0
H4094 H 0.35955 0.51905 0.65038 0.0
H4095 H 0.33173 0.68384 0.69332 0.0
H4096 H 0.30052 0.57634 0.68436 0.0
H4097 H 0.40043 0.6171 0.66859 0.0
C4098 C 0.41044 0.5759 0.65579 0.0
C4099 C 0.40162 0.54653 0.64961 0.0
C4100 C 0.30805 0.59986 0.68611 0.0
C4101 C 0.35963 0.58796 0.66897 0.0
C4102 C 0.2888 0.61974 0.69534 0.0
C4103 C 0.29491 0.6519 0.69883 0.0
C4104 C 0.33631 0.60984 0.67948 0.0
C4105 C 0.32355 0.66051 0.69173 0.0
C4106 C 0.39074 0.59566 0.66481 0.0
C4107 C 0.36987 0.54028 0.65405 0.0
N4108 N 0.34184 0.64071 0.6831 0.0
N4109 N 0.35159 0.55955 0.66296 0.0
H4110 H 0.22067 0.51912 0.45398 0.0
H4111 H 0.24678 0.68468 0.40809 0.0
H4112 H 0.14639 0.5827 0.44726 0.0
H4113 H 0.31067 0.60964 0.40413 0.0
H4114 H 0.21398 0.65182 0.42315 0.0
H4115 H 0.25384 0.55124 0.43861 0.0
C4116 C 0.21041 0.53967 0.44953 0.0
C4117 C 0.17826 0.54585 0.45293 0.0
C4118 C 0.2351 0.64183 0.41919 0.0
C4119 C 0.22045 0.58712 0.4336 0.0
C4120 C 0.25492 0.6615 0.41019 0.0
C4121 C 0.28391 0.65231 0.40377 0.0
C4122 C 0.24239 0.61039 0.42311 0.0
C4123 C 0.28975 0.62025 0.40799 0.0
C4124 C 0.23034 0.55883 0.4403 0.0
C4125 C 0.16973 0.57449 0.44575 0.0
N4126 N 0.27046 0.60201 0.41689 0.0
N4127 N 0.18958 0.59273 0.43715 0.0
H4128 H 0.32906 0.10391 0.32458 0.0
H4129 H 0.34222 0.94866 0.28912 0.0
H4130 H 0.32334 1.01666 0.3463 0.0
H4131 H 0.35299 1.03843 0.27009 0.0
H4132 H 0.35732 0.97116 0.31125 0.0
H4133 H 0.36236 0.08027 0.3078 0.0
C4134 C 0.33523 0.07996 0.32619 0.0
C4135 C 0.32099 0.06175 0.33643 0.0
C4136 C 0.35733 0.98568 0.30212 0.0
C4137 C 0.35802 1.03402 0.31641 0.0
C4138 C 0.34834 0.97291 0.28948 0.0
C4139 C 0.34467 0.99194 0.2778 0.0
C4140 C 0.36236 1.01771 0.30307 0.0
C4141 C 0.35462 1.02278 0.27878 0.0
C4142 C 0.35433 0.06627 0.31637 0.0
C4143 C 0.33146 1.0311 0.33792 0.0
N4144 N 0.36222 1.03482 0.29125 0.0
N4145 N 0.34816 1.01774 0.32763 0.0
H4146 H 0.18461 0.09156 0.53951 0.0
H4147 H 0.36441 0.10566 0.55049 0.0
H4148 H 0.23534 0.07706 0.57763 0.0
H4149 H 0.31946 0.06559 0.51482 0.0
H4150 H 0.31449 0.12583 0.55805 0.0
H4151 H 0.23155 0.11211 0.52918 0.0
C4152 C 0.20507 0.09282 0.54587 0.0
C4153 C 0.20589 0.07996 0.55929 0.0
C4154 C 0.316 0.11363 0.54829 0.0
C4155 C 0.25909 0.10595 0.54766 0.0
C4156 C 0.34439 0.10171 0.54403 0.0
C4157 C 0.34609 0.08228 0.53239 0.0
C4158 C 0.28933 0.10645 0.54073 0.0
C4159 C 0.31957 0.07965 0.52406 0.0
C4160 C 0.23173 0.10529 0.53996 0.0
C4161 C 0.23284 0.08521 0.56716 0.0
N4162 N 0.29214 0.09089 0.52858 0.0
N4163 N 0.2584 0.09715 0.56113 0.0
H4164 H 0.26305 0.11278 0.7882 0.0
H4165 H 0.25826 0.96727 0.81239 0.0
H4166 H 0.21437 0.05219 0.75998 0.0
H4167 H 0.2107 1.03066 0.83991 0.0
H4168 H 0.2371 0.9946 0.79309 0.0
H4169 H 0.23887 0.0868 0.80725 0.0
C4170 C 0.2468 0.09472 0.78574 0.0
C4171 C 0.24273 0.08365 0.77214 0.0
C4172 C 0.23079 1.00201 0.80343 0.0
C4173 C 0.21576 0.0529 0.79446 0.0
C4174 C 0.24325 0.98644 0.81472 0.0
C4175 C 0.23899 0.99782 0.82828 0.0
C4176 C 0.21488 1.02972 0.80555 0.0
C4177 C 0.21769 1.02238 0.82987 0.0
C4178 C 0.23281 0.07981 0.79683 0.0
C4179 C 0.22057 0.06014 0.77019 0.0
N4180 N 0.20777 1.03852 0.81865 0.0
N4181 N 0.20918 0.04443 0.78125 0.0
H4182 H 0.18744 0.9915 0.06141 0.0
H4183 H 0.36799 0.98356 0.05207 0.0
H4184 H 0.23978 1.01075 1.02419 0.0
H4185 H 0.31999 1.0193 0.08788 0.0
H4186 H 0.31927 0.96204 1.04379 0.0
H4187 H 0.23438 0.97108 0.07191 0.0
C4188 C 0.2083 0.99118 0.05527 0.0
C4189 C 0.20952 1.0052 1.04211 0.0
C4190 C 0.31987 0.97355 0.05374 0.0
C4191 C 0.26275 0.97956 0.05386 0.0
C4192 C 0.34756 0.98622 0.05842 0.0
C4193 C 0.34793 1.00496 0.0703 0.0
C4194 C 0.2926 0.9793 0.06112 0.0
C4195 C 0.32102 1.00591 0.07846 0.0
C4196 C 0.23496 0.97884 0.06126 0.0
C4197 C 0.23701 1.00142 1.03446 0.0
N4198 N 0.29425 0.99402 0.07352 0.0
N4199 N 0.26256 0.9896 1.04055 0.0
H4200 H 0.73202 0.95157 0.8027 0.0
H4201 H 0.75902 0.08089 0.83352 0.0
H4202 H 0.76293 1.0082 0.76859 0.0
H4203 H 0.73247 0.13166 0.79686 0.0
H4204 H 0.73452 1.03568 0.82435 0.0
H4205 H 0.70699 0.99703 0.81276 0.0
C4206 C 0.73297 0.97329 0.79713 0.0
C4207 C 0.75132 0.97639 0.78521 0.0
C4208 C 0.73283 0.0569 0.81846 0.0
C4209 C 0.72287 1.02822 0.79666 0.0
C4210 C 0.74706 0.08319 0.82375 0.0
C4211 C 0.7496 0.11009 0.81564 0.0
C4212 C 0.72194 0.05713 0.80478 0.0
C4213 C 0.73303 0.11094 0.80313 0.0
C4214 C 0.7186 0.9992 0.80288 0.0
C4215 C 0.75006 1.00466 0.77804 0.0
N4216 N 0.72113 0.08445 0.79778 0.0
N4217 N 0.73691 1.02969 0.78409 0.0
H4218 H 0.81089 1.00714 0.60741 0.0
H4219 H 0.84992 1.00591 0.53321 0.0
H4220 H 0.74593 1.00971 0.57366 0.0
H4221 H 0.91663 0.99054 0.56579 0.0
H4222 H 0.81162 0.98013 0.54685 0.0
H4223 H 0.8451 0.97519 0.59338 0.0
C4224 C 0.80327 0.99999 0.59723 0.0
C4225 C 0.77652 1.01279 0.59134 0.0
C4226 C 0.83478 0.98182 0.55099 0.0
C4227 C 0.81571 0.97695 0.57516 0.0
C4228 C 0.85716 0.99662 0.54307 0.0
C4229 C 0.88644 1.003 0.54871 0.0
C4230 C 0.84112 0.97482 0.56488 0.0
C4231 C 0.89372 0.98885 0.56142 0.0
C4232 C 0.82284 0.98168 0.58919 0.0
C4233 C 0.76702 1.00154 0.57842 0.0
N4234 N 0.87086 0.97669 0.56937 0.0
N4235 N 0.78714 0.98516 0.57055 0.0
H4236 H 0.81567 1.00036 0.33424 0.0
H4237 H 0.81802 0.08283 0.27061 0.0
H4238 H 0.84848 0.95196 0.29786 0.0
H4239 H 0.84859 0.13117 0.30739 0.0
H4240 H 0.84031 1.03627 0.27939 0.0
H4241 H 0.83874 0.04687 0.32578 0.0
C4242 C 0.82841 0.99875 0.32467 0.0
C4243 C 0.82842 0.97174 0.31649 0.0
C4244 C 0.84295 0.05725 0.2854 0.0
C4245 C 0.85397 1.02664 0.30641 0.0
C4246 C 0.83008 0.08445 0.28035 0.0
C4247 C 0.82961 0.11149 0.28851 0.0
C4248 C 0.85428 0.05643 0.29894 0.0
C4249 C 0.8462 0.11074 0.30104 0.0
C4250 C 0.84172 1.02589 0.3198 0.0
C4251 C 0.84581 0.97239 0.30418 0.0
N4252 N 0.85672 0.08338 0.30614 0.0
N4253 N 0.85679 0.99969 0.29923 0.0
H4254 H 0.87204 0.09851 0.07355 0.0
H4255 H 0.758 0.07595 1.01358 0.0
H4256 H 0.89114 0.06416 1.03243 0.0
H4257 H 0.73064 0.09898 0.05544 0.0
H4258 H 0.8074 0.09837 1.01783 0.0
H4259 H 0.82483 0.12228 0.06477 0.0
C4260 C 0.86682 0.09639 0.06264 0.0
C4261 C 0.88475 0.07736 0.05396 0.0
C4262 C 0.79043 0.09894 1.02607 0.0
C4263 C 0.83134 0.10554 1.0438 0.0
C4264 C 0.76155 0.08609 1.02365 0.0
C4265 C 0.74004 0.08295 1.03451 0.0
C4266 C 0.79857 0.10753 1.03954 0.0
C4267 C 0.74707 0.09807 1.04704 0.0
C4268 C 0.83998 0.11037 0.05762 0.0
C4269 C 0.87785 0.07754 1.03975 0.0
N4270 N 0.77619 0.10847 1.04943 0.0
N4271 N 0.85132 0.09065 1.03522 0.0
H4272 H 0.84995 0.60563 0.79835 0.0
H4273 H 0.81698 0.43927 0.82027 0.0
H4274 H 0.82021 0.57325 0.83858 0.0
H4275 H 0.84558 0.46499 0.77895 0.0
H4276 H 0.84287 0.48402 0.82917 0.0
H4277 H 0.87043 0.55418 0.79364 0.0
C4278 C 0.84804 0.58817 0.80632 0.0
C4279 C 0.83102 0.59369 0.8185 0.0
C4280 C 0.8439 0.47974 0.81814 0.0
C4281 C 0.85567 0.535 0.81332 0.0
C4282 C 0.82913 0.45368 0.81294 0.0
C4283 C 0.82676 0.4491 0.79857 0.0
C4284 C 0.85513 0.50217 0.80893 0.0
C4285 C 0.84425 0.46877 0.78999 0.0
C4286 C 0.86024 0.55881 0.80366 0.0
C4287 C 0.83181 0.57058 0.82877 0.0
N4288 N 0.85652 0.49523 0.79521 0.0
N4289 N 0.84311 0.54218 0.8258 0.0
H4290 H 0.84404 0.57591 1.02455 0.0
H4291 H 0.76652 0.56577 0.08979 0.0
H4292 H 0.89746 0.5915 0.06179 0.0
H4293 H 0.71918 0.60633 0.05486 0.0
H4294 H 0.81425 0.58807 0.0817 0.0
H4295 H 0.80087 0.60041 1.0352 0.0
C4296 C 0.84754 0.5849 1.03483 0.0
C4297 C 0.87472 0.57926 1.04246 0.0
C4298 C 0.79328 0.59307 0.07602 0.0
C4299 C 0.82339 0.60668 0.05506 0.0
C4300 C 0.76568 0.58031 0.08068 0.0
C4301 C 0.73878 0.58267 0.0726 0.0
C4302 C 0.7942 0.60733 0.06299 0.0
C4303 C 0.73967 0.60225 0.061 0.0
C4304 C 0.82225 0.59914 1.04098 0.0
C4305 C 0.87656 0.59269 0.05573 0.0
N4306 N 0.76718 0.61283 0.05622 0.0
N4307 N 0.85084 0.60452 0.06183 0.0
H4308 H 0.75603 0.48592 0.32177 0.0
H4309 H 0.74835 0.53131 0.2482 0.0
H4310 H 0.73383 0.42237 0.2887 0.0
H4311 H 0.75738 0.59367 0.28273 0.0
H4312 H 0.71769 0.49678 0.26262 0.0
H4313 H 0.73045 0.52646 0.30935 0.0
C4314 C 0.74527 0.47985 0.31207 0.0
C4315 C 0.74948 0.45063 0.3059 0.0
C4316 C 0.7253 0.51858 0.26694 0.0
C4317 C 0.72149 0.49853 0.29111 0.0
C4318 C 0.74283 0.53836 0.25867 0.0
C4319 C 0.7571 0.56434 0.26456 0.0
C4320 C 0.72283 0.52472 0.28118 0.0
C4321 C 0.748 0.57314 0.27791 0.0
C4322 C 0.73059 0.50352 0.30485 0.0
C4323 C 0.7337 0.44502 0.29342 0.0
N4324 N 0.73238 0.55277 0.28597 0.0
N4325 N 0.7216 0.46904 0.28614 0.0
H4326 H 0.74504 0.51078 0.52065 0.0
H4327 H 0.8296 0.51586 0.58373 0.0
H4328 H 0.69806 0.48225 0.55813 0.0
H4329 H 0.87658 0.48138 0.54728 0.0
H4330 H 0.78285 0.49271 0.57577 0.0
H4331 H 0.79172 0.48884 0.52931 0.0
C4332 C 0.74371 0.49928 0.53054 0.0
C4333 C 0.71702 0.50028 0.5389 0.0
C4334 C 0.80357 0.4894 0.56967 0.0
C4335 C 0.77231 0.47599 0.54917 0.0
C4336 C 0.83087 0.50275 0.57424 0.0
C4337 C 0.8576 0.50226 0.5659 0.0
C4338 C 0.80231 0.4766 0.5564 0.0
C4339 C 0.85642 0.48444 0.55372 0.0
C4340 C 0.77102 0.48659 0.53551 0.0
C4341 C 0.7182 0.48431 0.5516 0.0
N4342 N 0.82895 0.47341 0.54905 0.0
N4343 N 0.74568 0.47399 0.5566 0.0
H4344 H 0.23199 0.63006 0.29625 0.0
H4345 H 0.23422 0.44899 0.30745 0.0
H4346 H 0.2633 0.58193 0.33299 0.0
H4347 H 0.2627 0.49781 0.27043 0.0
H4348 H 0.21407 0.49764 0.3165 0.0
H4349 H 0.21244 0.58099 0.28742 0.0
C4350 C 0.23441 0.60967 0.30264 0.0
C4351 C 0.25128 0.61038 0.3151 0.0
C4352 C 0.22377 0.49708 0.30617 0.0
C4353 C 0.22695 0.55463 0.30534 0.0
C4354 C 0.23593 0.46943 0.30105 0.0
C4355 C 0.25225 0.46907 0.28844 0.0
C4356 C 0.22713 0.52431 0.29846 0.0
C4357 C 0.25132 0.49621 0.28033 0.0
C4358 C 0.22261 0.58177 0.29765 0.0
C4359 C 0.25138 0.58324 0.32322 0.0
N4360 N 0.23963 0.52276 0.28561 0.0
N4361 N 0.24005 0.55645 0.31806 0.0
H4362 H 0.35968 0.48382 0.05617 0.0
H4363 H 0.19123 0.50793 1.03416 0.0
H4364 H 0.32555 0.51131 1.01591 0.0
H4365 H 0.2187 0.48435 0.0759 0.0
H4366 H 0.23757 0.48429 1.02564 0.0
H4367 H 0.30904 0.4621 0.0613 0.0
C4368 C 0.34202 0.48499 1.04829 0.0
C4369 C 0.34679 0.50161 1.03593 0.0
C4370 C 0.23334 0.48387 1.03668 0.0
C4371 C 0.28909 0.47552 1.04159 0.0
C4372 C 0.20638 0.49733 1.04167 0.0
C4373 C 0.20157 0.50047 0.056 0.0
C4374 C 0.25637 0.47474 1.04604 0.0
C4375 C 0.22239 0.48505 0.06484 0.0
C4376 C 0.31314 0.47209 1.05119 0.0
C4377 C 0.32347 0.49995 1.02581 0.0
N4378 N 0.24955 0.47406 0.05979 0.0
N4379 N 0.29556 0.48792 1.02901 0.0
H4380 H 0.34962 0.62932 0.8056 0.0
H4381 H 0.34749 0.44864 0.79338 0.0
H4382 H 0.31733 0.58219 0.76881 0.0
H4383 H 0.32099 0.49636 0.83099 0.0
H4384 H 0.36713 0.49752 0.78442 0.0
H4385 H 0.36971 0.58005 0.81402 0.0
C4386 C 0.34708 0.60912 0.79912 0.0
C4387 C 0.3298 0.61017 0.78678 0.0
C4388 C 0.35796 0.49665 0.79485 0.0
C4389 C 0.35475 0.55418 0.79605 0.0
C4390 C 0.34608 0.46885 0.79993 0.0
C4391 C 0.33039 0.46812 0.8127 0.0
C4392 C 0.35499 0.52365 0.80275 0.0
C4393 C 0.33179 0.49501 0.82096 0.0
C4394 C 0.35919 0.58111 0.80386 0.0
C4395 C 0.32956 0.58327 0.77851 0.0
N4396 N 0.34319 0.5217 0.81572 0.0
N4397 N 0.34121 0.55636 0.78344 0.0
H4398 H 0.19633 0.60598 0.55839 0.0
H4399 H 0.33287 0.57482 0.58363 0.0
H4400 H 0.24594 0.56929 0.5231 0.0
H4401 H 0.37502 0.60461 0.54519 0.0
H4402 H 0.28564 0.5979 0.57657 0.0
H4403 H 0.2447 0.62822 0.56671 0.0
C4404 C 0.21695 0.60283 0.55224 0.0
C4405 C 0.21685 0.58391 0.54038 0.0
C4406 C 0.30546 0.60039 0.56983 0.0
C4407 C 0.27194 0.61039 0.54965 0.0
C4408 C 0.33313 0.58682 0.57385 0.0
C4409 C 0.35848 0.58552 0.56467 0.0
C4410 C 0.30241 0.61178 0.55636 0.0
C4411 C 0.35586 0.60249 0.55227 0.0
C4412 C 0.24448 0.61597 0.55695 0.0
C4413 C 0.24417 0.5828 0.53245 0.0
N4414 N 0.32795 0.61362 0.5482 0.0
N4415 N 0.27059 0.59525 0.53738 0.0
loop_
_geom_bond_atom_site_label_1
_geom_bond_atom_site_label_2
_geom_bond_distance
_geom_bond_site_symmetry_2
_ccdc_geom_bond_type
Eu0 N31 2.657 . S
Eu0 N38 2.609 . S
Eu0 O44 2.558 . S
Eu0 O45 2.612 . S
Eu0 O47 2.339 . S
Eu0 O48 2.563 . S
Eu0 O49 2.419 . S
Eu0 O51 2.380 . S
Eu0 O52 2.432 . S
Eu0 C64 2.848 . S
C1 C4 1.429 . S
C1 C5 1.411 . S
C1 N8 1.377 . S
C2 C4 1.420 . S
C2 C6 1.423 . S
C2 C14 1.392 . S
C3 C5 1.420 . S
C3 C6 1.351 . S
C3 H26 0.931 . S
C4 C1 1.429 . S
C4 C2 1.420 . S
C4 N12 1.362 . S
C5 C1 1.411 . S
C5 C3 1.420 . S
C5 C10 1.395 . S
C6 C2 1.423 . S
C6 C3 1.351 . S
C6 H18 0.930 . S
C7 C9 1.400 . S
C7 C10 1.386 . S
C7 H19 0.930 . S
N8 C1 1.377 . S
N8 C9 1.321 . S
N8 Eu11 2.609 . S
C9 C7 1.400 . S
C9 N8 1.321 . S
C9 H16 0.930 . S
C10 C5 1.395 . S
C10 C7 1.386 . S
C10 H29 0.930 . S
Eu11 N8 2.609 . S
Eu11 N12 2.657 . S
Eu11 O45 2.380 . S
Eu11 O46 2.432 . S
Eu11 O50 2.558 . S
Eu11 O51 2.612 . S
Eu11 O53 2.339 . S
Eu11 O54 2.563 . S
Eu11 O55 2.419 . S
Eu11 C75 2.848 . S
N12 C4 1.362 . S
N12 Eu11 2.657 . S
N12 C13 1.334 . S
C13 N12 1.334 . S
C13 C15 1.413 . S
C13 H20 0.929 . S
C14 C2 1.392 . S
C14 C15 1.367 . S
C14 H22 0.930 . S
C15 C13 1.413 . S
C15 C14 1.367 . S
C15 H17 0.930 . S
H16 C9 0.930 . S
H17 C15 0.930 . S
H18 C6 0.930 . S
H19 C7 0.930 . S
H20 C13 0.929 . S
H21 C35 0.930 . S
H22 C14 0.930 . S
H23 C41 0.930 . S
H24 C32 0.929 . S
H25 C39 0.930 . S
H26 C3 0.931 . S
H27 C33 0.930 . S
H28 C66 0.930 . S
H29 C10 0.930 . S
H30 C65 0.931 . S
N31 Eu0 2.657 . S
N31 C32 1.334 . S
N31 C36 1.362 . S
C32 H24 0.929 . S
C32 N31 1.334 . S
C32 C35 1.413 . S
C33 H27 0.930 . S
C33 C34 1.392 . S
C33 C35 1.367 . S
C34 C33 1.392 . S
C34 C36 1.420 . S
C34 C66 1.423 . S
C35 H21 0.930 . S
C35 C32 1.413 . S
C35 C33 1.367 . S
C36 N31 1.362 . S
C36 C34 1.420 . S
C36 C40 1.429 . S
H37 C42 0.930 . S
N38 Eu0 2.609 . S
N38 C40 1.377 . S
N38 C41 1.321 . S
C39 H25 0.930 . S
C39 C41 1.400 . S
C39 C42 1.386 . S
C40 C36 1.429 . S
C40 N38 1.377 . S
C40 C43 1.411 . S
C41 H23 0.930 . S
C41 N38 1.321 . S
C41 C39 1.400 . S
C42 H37 0.930 . S
C42 C39 1.386 . S
C42 C43 1.395 . S
C43 C40 1.411 . S
C43 C42 1.395 . S
C43 C65 1.420 . S
O44 Eu0 2.558 . S
O44 C64 1.257 . S
O45 Eu0 2.612 . S
O45 Eu11 2.380 . S
O45 C56 1.276 . S
O46 Eu11 2.432 . S
O46 C63 1.264 . S
O47 Eu0 2.339 . S
O47 C63 1.254 . S
O48 Eu0 2.563 . S
O48 C56 1.235 . S
O49 Eu0 2.419 . S
O49 C64 1.249 . S
O50 Eu11 2.558 . S
O50 C75 1.257 . S
O51 Eu0 2.380 . S
O51 Eu11 2.612 . S
O51 C67 1.276 . S
O52 Eu0 2.432 . S
O52 C74 1.264 . S
O53 Eu11 2.339 . S
O53 C74 1.254 . S
O54 Eu11 2.563 . S
O54 C67 1.235 . S
O55 Eu11 2.419 . S
O55 C75 1.249 . S
C56 O45 1.276 . S
C56 O48 1.235 . S
C57 C59 1.393 . S
C57 C61 1.395 . S
C57 C64 1.492 . S
C58 C59 1.392 . S
C58 C60 1.386 . S
C59 C57 1.393 . S
C59 C58 1.392 . S
C59 H76 0.930 . S
C60 C58 1.386 . S
C60 C62 1.395 . S
C60 H77 0.930 . S
C61 C57 1.395 . S
C61 C62 1.379 . S
C61 H78 0.930 . S
C62 C60 1.395 . S
C62 C61 1.379 . S
C62 H79 0.930 . S
C63 O46 1.264 . S
C63 O47 1.254 . S
C64 Eu0 2.848 . S
C64 O44 1.257 . S
C64 O49 1.249 . S
C64 C57 1.492 . S
C65 H30 0.931 . S
C65 C43 1.420 . S
C65 C66 1.351 . S
C66 H28 0.930 . S
C66 C34 1.423 . S
C66 C65 1.351 . S
C67 O51 1.276 . S
C67 O54 1.235 . S
C68 C69 1.393 . S
C68 C72 1.395 . S
C68 C75 1.492 . S
C69 C68 1.393 . S
C69 C70 1.392 . S
C69 H80 0.930 . S
C70 C69 1.392 . S
C70 C71 1.386 . S
C71 C70 1.386 . S
C71 C73 1.395 . S
C71 H81 0.930 . S
C72 C68 1.395 . S
C72 C73 1.379 . S
C72 H82 0.930 . S
C73 C71 1.395 . S
C73 C72 1.379 . S
C73 H83 0.930 . S
C74 O52 1.264 . S
C74 O53 1.254 . S
C75 Eu11 2.848 . S
C75 O50 1.257 . S
C75 O55 1.249 . S
C75 C68 1.492 . S
H76 C59 0.930 . S
H77 C60 0.930 . S
H78 C61 0.930 . S
H79 C62 0.930 . S
H80 C69 0.930 . S
H81 C71 0.930 . S
H82 C72 0.930 . S
H83 C73 0.930 . S
Eu84 N115 2.657 1_455 S
Eu84 N122 2.609 1_565 S
Eu84 O128 2.563 . S
Eu84 O129 2.612 . S
Eu84 O131 2.339 . S
Eu84 O132 2.563 . S
Eu84 O133 2.419 1_455 S
Eu84 O135 2.380 . S
Eu84 O136 2.432 . S
Eu84 C148 2.848 1_455 S
C85 C88 1.429 . S
C85 C89 1.411 . S
C85 N92 1.377 . S
C86 C88 1.420 . S
C86 C90 1.423 . S
C86 C98 1.392 . S
C87 C89 1.420 . S
C87 C90 1.351 . S
C87 H110 0.931 . S
C88 C85 1.429 . S
C88 C86 1.420 . S
C88 N96 1.362 . S
C89 C85 1.411 . S
C89 C87 1.420 . S
C89 C94 1.395 . S
C90 C86 1.423 . S
C90 C87 1.351 . S
C90 H102 0.930 . S
C91 C93 1.400 . S
C91 C94 1.386 . S
C91 H103 0.930 . S
N92 C85 1.377 . S
N92 C93 1.321 . S
N92 Eu95 2.609 . S
C93 C91 1.400 . S
C93 N92 1.321 . S
C93 H100 0.930 . S
C94 C89 1.395 . S
C94 C91 1.386 . S
C94 H113 0.930 . S
Eu95 N92 2.609 . S
Eu95 N96 2.657 . S
Eu95 O129 2.380 . S
Eu95 O130 2.432 . S
Eu95 O134 2.558 . S
Eu95 O135 2.612 . S
Eu95 O137 2.339 . S
Eu95 O138 2.563 . S
Eu95 O139 2.419 . S
Eu95 C159 2.848 . S
N96 C88 1.362 . S
N96 Eu95 2.657 . S
N96 C97 1.334 . S
C97 N96 1.334 . S
C97 C99 1.413 . S
C97 H104 0.929 . S
C98 C86 1.392 . S
C98 C99 1.367 . S
C98 H106 0.930 . S
C99 C97 1.413 . S
C99 C98 1.367 . S
C99 H101 0.930 . S
H100 C93 0.930 . S
H101 C99 0.930 . S
H102 C90 0.930 . S
H103 C91 0.930 . S
H104 C97 0.929 . S
H105 C119 0.930 . S
H106 C98 0.930 . S
H107 C125 0.930 . S
H108 C116 0.929 . S
H109 C123 0.930 1_455 S
H110 C87 0.931 . S
H111 C117 0.930 . S
H112 C150 0.930 . S
H113 C94 0.930 . S
H114 C149 0.931 . S
N115 Eu84 2.657 1_655 S
N115 C116 1.334 . S
N115 C120 1.362 . S
C116 H108 0.929 . S
C116 N115 1.334 . S
C116 C119 1.413 . S
C117 H111 0.930 . S
C117 C118 1.392 . S
C117 C119 1.367 . S
C118 C117 1.392 . S
C118 C120 1.420 . S
C118 C150 1.423 1_565 S
C119 H105 0.930 . S
C119 C116 1.413 . S
C119 C117 1.367 . S
C120 N115 1.362 . S
C120 C118 1.420 . S
C120 C124 1.429 1_565 S
H121 C126 0.930 . S
N122 Eu84 2.609 1_545 S
N122 C124 1.377 1_455 S
N122 C125 1.321 . S
C123 H109 0.930 1_655 S
C123 C125 1.400 1_655 S
C123 C126 1.386 . S
C124 C120 1.429 1_545 S
C124 N122 1.377 1_655 S
C124 C127 1.411 . S
C125 H107 0.930 . S
C125 N122 1.321 . S
C125 C123 1.400 1_455 S
C126 H121 0.930 . S
C126 C123 1.386 . S
C126 C127 1.395 . S
C127 C124 1.411 . S
C127 C126 1.395 . S
C127 C149 1.420 . S
O128 Eu84 2.563 . S
O128 C148 1.248 1_455 S
O129 Eu84 2.612 . S
O129 Eu95 2.380 . S
O129 C140 1.276 . S
O130 Eu95 2.432 . S
O130 C147 1.264 . S
O131 Eu84 2.339 . S
O131 C147 1.254 . S
O132 Eu84 2.563 . S
O132 C140 1.235 . S
O133 Eu84 2.419 1_655 S
O133 C148 1.249 . S
O134 Eu95 2.558 . S
O134 C159 1.257 . S
O135 Eu84 2.380 . S
O135 Eu95 2.612 . S
O135 C151 1.276 . S
O136 Eu84 2.432 . S
O136 C158 1.264 . S
O137 Eu95 2.339 . S
O137 C158 1.254 . S
O138 Eu95 2.563 . S
O138 C151 1.235 . S
O139 Eu95 2.419 . S
O139 C159 1.249 . S
C140 O129 1.276 . S
C140 O132 1.235 . S
C141 C143 1.393 . S
C141 C145 1.395 . S
C141 C148 1.492 . S
C142 C143 1.392 . S
C142 C144 1.386 . S
C143 C141 1.393 . S
C143 C142 1.392 . S
C143 H160 0.930 . S
C144 C142 1.386 . S
C144 C146 1.395 . S
C144 H161 0.930 . S
C145 C141 1.395 . S
C145 C146 1.379 . S
C145 H162 0.930 . S
C146 C144 1.395 . S
C146 C145 1.379 . S
C146 H163 0.930 . S
C147 O130 1.264 . S
C147 O131 1.254 . S
C148 Eu84 2.848 1_655 S
C148 O128 1.248 1_655 S
C148 O133 1.249 . S
C148 C141 1.492 . S
C149 H114 0.931 . S
C149 C127 1.420 . S
C149 C150 1.351 . S
C150 H112 0.930 . S
C150 C118 1.423 1_545 S
C150 C149 1.351 . S
C151 O135 1.276 . S
C151 O138 1.235 . S
C152 C153 1.393 . S
C152 C156 1.395 . S
C152 C159 1.492 . S
C153 C152 1.393 . S
C153 C154 1.392 . S
C153 H164 0.930 . S
C154 C153 1.392 . S
C154 C155 1.386 . S
C155 C154 1.386 . S
C155 C157 1.395 . S
C155 H165 0.930 . S
C156 C152 1.395 . S
C156 C157 1.379 . S
C156 H166 0.930 . S
C157 C155 1.395 . S
C157 C156 1.379 . S
C157 H167 0.930 . S
C158 O136 1.264 . S
C158 O137 1.254 . S
C159 Eu95 2.848 . S
C159 O134 1.257 . S
C159 O139 1.249 . S
C159 C152 1.492 . S
H160 C143 0.930 . S
H161 C144 0.930 . S
H162 C145 0.930 . S
H163 C146 0.930 . S
H164 C153 0.930 . S
H165 C155 0.930 . S
H166 C156 0.930 . S
H167 C157 0.930 . S
Eu168 N199 2.657 . S
Eu168 N206 2.609 . S
Eu168 O212 2.558 . S
Eu168 O213 2.612 . S
Eu168 O215 2.339 . S
Eu168 O216 2.563 . S
Eu168 O217 2.419 . S
Eu168 O219 2.380 . S
Eu168 O220 2.432 . S
Eu168 C232 2.848 . S
C169 C172 1.429 . S
C169 C173 1.411 . S
C169 N176 1.377 . S
C170 C172 1.420 . S
C170 C174 1.423 . S
C170 C182 1.392 . S
C171 C173 1.420 . S
C171 C174 1.351 . S
C171 H194 0.931 . S
C172 C169 1.429 . S
C172 C170 1.420 . S
C172 N180 1.362 . S
C173 C169 1.411 . S
C173 C171 1.420 . S
C173 C178 1.395 . S
C174 C170 1.423 . S
C174 C171 1.351 . S
C174 H186 0.930 . S
C175 C177 1.400 . S
C175 C178 1.386 . S
C175 H187 0.930 . S
N176 C169 1.377 . S
N176 C177 1.321 . S
N176 Eu179 2.609 . S
C177 C175 1.400 . S
C177 N176 1.321 . S
C177 H184 0.930 . S
C178 C173 1.395 . S
C178 C175 1.386 . S
C178 H197 0.930 . S
Eu179 N176 2.609 . S
Eu179 N180 2.657 . S
Eu179 O213 2.380 . S
Eu179 O214 2.432 . S
Eu179 O218 2.558 . S
Eu179 O219 2.612 . S
Eu179 O221 2.339 . S
Eu179 O222 2.563 . S
Eu179 O223 2.419 . S
Eu179 C243 2.848 . S
N180 C172 1.362 . S
N180 Eu179 2.657 . S
N180 C181 1.334 . S
C181 N180 1.334 . S
C181 C183 1.413 . S
C181 H188 0.929 . S
C182 C170 1.392 . S
C182 C183 1.367 . S
C182 H190 0.930 . S
C183 C181 1.413 . S
C183 C182 1.367 . S
C183 H185 0.930 . S
H184 C177 0.930 . S
H185 C183 0.930 . S
H186 C174 0.930 . S
H187 C175 0.930 . S
H188 C181 0.929 . S
H189 C203 0.930 . S
H190 C182 0.930 . S
H191 C209 0.930 . S
H192 C200 0.929 . S
H193 C207 0.930 . S
H194 C171 0.931 . S
H195 C201 0.930 . S
H196 C234 0.930 . S
H197 C178 0.930 . S
H198 C233 0.931 . S
N199 Eu168 2.657 . S
N199 C200 1.334 . S
N199 C204 1.362 . S
C200 H192 0.929 . S
C200 N199 1.334 . S
C200 C203 1.413 . S
C201 H195 0.930 . S
C201 C202 1.392 . S
C201 C203 1.367 . S
C202 C201 1.392 . S
C202 C204 1.420 . S
C202 C234 1.423 . S
C203 H189 0.930 . S
C203 C200 1.413 . S
C203 C201 1.367 . S
C204 N199 1.362 . S
C204 C202 1.420 . S
C204 C208 1.429 . S
H205 C210 0.930 . S
N206 Eu168 2.609 . S
N206 C208 1.377 . S
N206 C209 1.321 . S
C207 H193 0.930 . S
C207 C209 1.400 . S
C207 C210 1.386 . S
C208 C204 1.429 . S
C208 N206 1.377 . S
C208 C211 1.411 . S
C209 H191 0.930 . S
C209 N206 1.321 . S
C209 C207 1.400 . S
C210 H205 0.930 . S
C210 C207 1.386 . S
C210 C211 1.395 . S
C211 C208 1.411 . S
C211 C210 1.395 . S
C211 C233 1.420 . S
O212 Eu168 2.558 . S
O212 C232 1.257 . S
O213 Eu168 2.612 . S
O213 Eu179 2.380 . S
O213 C224 1.276 . S
O214 Eu179 2.432 . S
O214 C231 1.264 . S
O215 Eu168 2.339 . S
O215 C231 1.254 . S
O216 Eu168 2.563 . S
O216 C224 1.235 . S
O217 Eu168 2.419 . S
O217 C232 1.249 . S
O218 Eu179 2.558 . S
O218 C243 1.257 . S
O219 Eu168 2.380 . S
O219 Eu179 2.612 . S
O219 C235 1.276 . S
O220 Eu168 2.432 . S
O220 C242 1.264 . S
O221 Eu179 2.339 . S
O221 C242 1.254 . S
O222 Eu179 2.563 . S
O222 C235 1.235 . S
O223 Eu179 2.419 . S
O223 C243 1.249 . S
C224 O213 1.276 . S
C224 O216 1.235 . S
C225 C227 1.393 . S
C225 C229 1.395 . S
C225 C232 1.492 . S
C226 C227 1.392 . S
C226 C228 1.386 . S
C227 C225 1.393 . S
C227 C226 1.392 . S
C227 H244 0.930 . S
C228 C226 1.386 . S
C228 C230 1.395 . S
C228 H245 0.930 . S
C229 C225 1.395 . S
C229 C230 1.379 . S
C229 H246 0.930 . S
C230 C228 1.395 . S
C230 C229 1.379 . S
C230 H247 0.930 . S
C231 O214 1.264 . S
C231 O215 1.254 . S
C232 Eu168 2.848 . S
C232 O212 1.257 . S
C232 O217 1.249 . S
C232 C225 1.492 . S
C233 H198 0.931 . S
C233 C211 1.420 . S
C233 C234 1.351 . S
C234 H196 0.930 . S
C234 C202 1.423 . S
C234 C233 1.351 . S
C235 O219 1.276 . S
C235 O222 1.235 . S
C236 C237 1.393 . S
C236 C240 1.395 . S
C236 C243 1.492 . S
C237 C236 1.393 . S
C237 C238 1.392 . S
C237 H248 0.930 . S
C238 C237 1.392 . S
C238 C239 1.386 . S
C239 C238 1.386 . S
C239 C241 1.395 . S
C239 H249 0.930 . S
C240 C236 1.395 . S
C240 C241 1.379 . S
C240 H250 0.930 . S
C241 C239 1.395 . S
C241 C240 1.379 . S
C241 H251 0.930 . S
C242 O220 1.264 . S
C242 O221 1.254 . S
C243 Eu179 2.848 . S
C243 O218 1.257 . S
C243 O223 1.249 . S
C243 C236 1.492 . S
H244 C227 0.930 . S
H245 C228 0.930 . S
H246 C229 0.930 . S
H247 C230 0.930 . S
H248 C237 0.930 . S
H249 C239 0.930 . S
H250 C240 0.930 . S
H251 C241 0.930 . S
Eu252 N283 2.657 . S
Eu252 N290 2.609 1_545 S
Eu252 O296 2.558 . S
Eu252 O297 2.612 . S
Eu252 O299 2.339 . S
Eu252 O300 2.563 . S
Eu252 O301 2.419 . S
Eu252 O303 2.380 . S
Eu252 O304 2.432 . S
Eu252 C316 2.848 . S
C253 C256 1.429 . S
C253 C257 1.411 . S
C253 N260 1.377 . S
C254 C256 1.420 . S
C254 C258 1.423 . S
C254 C266 1.392 . S
C255 C257 1.420 . S
C255 C258 1.351 . S
C255 H278 0.931 . S
C256 C253 1.429 . S
C256 C254 1.420 . S
C256 N264 1.362 . S
C257 C253 1.411 . S
C257 C255 1.420 . S
C257 C262 1.395 . S
C258 C254 1.423 . S
C258 C255 1.351 . S
C258 H270 0.930 . S
C259 C261 1.400 . S
C259 C262 1.386 . S
C259 H271 0.930 . S
N260 C253 1.377 . S
N260 C261 1.321 . S
N260 Eu263 2.609 . S
C261 C259 1.400 . S
C261 N260 1.321 . S
C261 H268 0.930 . S
C262 C257 1.395 . S
C262 C259 1.386 . S
C262 H281 0.930 . S
Eu263 N260 2.609 . S
Eu263 N264 2.657 . S
Eu263 O297 2.380 . S
Eu263 O298 2.432 . S
Eu263 O302 2.558 . S
Eu263 O303 2.612 . S
Eu263 O305 2.339 . S
Eu263 O306 2.563 . S
Eu263 O307 2.419 . S
Eu263 C327 2.848 . S
N264 C256 1.362 . S
N264 Eu263 2.657 . S
N264 C265 1.334 . S
C265 N264 1.334 . S
C265 C267 1.413 . S
C265 H272 0.929 . S
C266 C254 1.392 . S
C266 C267 1.367 . S
C266 H274 0.930 . S
C267 C265 1.413 . S
C267 C266 1.367 . S
C267 H269 0.930 . S
H268 C261 0.930 . S
H269 C267 0.930 . S
H270 C258 0.930 . S
H271 C259 0.930 . S
H272 C265 0.929 . S
H273 C287 0.930 . S
H274 C266 0.930 . S
H275 C293 0.930 . S
H276 C284 0.929 . S
H277 C291 0.930 . S
H278 C255 0.931 . S
H279 C285 0.930 . S
H280 C318 0.930 . S
H281 C262 0.930 . S
H282 C317 0.931 . S
N283 Eu252 2.657 . S
N283 C284 1.334 . S
N283 C288 1.362 . S
C284 H276 0.929 . S
C284 N283 1.334 . S
C284 C287 1.413 . S
C285 H279 0.930 . S
C285 C286 1.392 . S
C285 C287 1.367 . S
C286 C285 1.392 . S
C286 C288 1.420 . S
C286 C318 1.423 1_545 S
C287 H273 0.930 . S
C287 C284 1.413 . S
C287 C285 1.367 . S
C288 N283 1.362 . S
C288 C286 1.420 . S
C288 C292 1.429 1_545 S
H289 C294 0.930 . S
N290 Eu252 2.609 1_565 S
N290 C292 1.377 . S
N290 C293 1.321 . S
C291 H277 0.930 . S
C291 C293 1.400 . S
C291 C294 1.386 . S
C292 C288 1.429 1_565 S
C292 N290 1.377 . S
C292 C295 1.411 . S
C293 H275 0.930 . S
C293 N290 1.321 . S
C293 C291 1.400 . S
C294 H289 0.930 . S
C294 C291 1.386 . S
C294 C295 1.395 . S
C295 C292 1.411 . S
C295 C294 1.395 . S
C295 C317 1.420 . S
O296 Eu252 2.558 . S
O296 C316 1.257 . S
O297 Eu252 2.612 . S
O297 Eu263 2.380 . S
O297 C308 1.276 . S
O298 Eu263 2.432 . S
O298 C315 1.264 . S
O299 Eu252 2.339 . S
O299 C315 1.254 . S
O300 Eu252 2.563 . S
O300 C308 1.235 . S
O301 Eu252 2.419 . S
O301 C316 1.249 . S
O302 Eu263 2.558 . S
O302 C327 1.257 . S
O303 Eu252 2.380 . S
O303 Eu263 2.612 . S
O303 C319 1.276 . S
O304 Eu252 2.432 . S
O304 C326 1.264 . S
O305 Eu263 2.339 . S
O305 C326 1.254 . S
O306 Eu263 2.563 . S
O306 C319 1.235 . S
O307 Eu263 2.419 . S
O307 C327 1.249 . S
C308 O297 1.276 . S
C308 O300 1.235 . S
C309 C311 1.393 . S
C309 C313 1.395 . S
C309 C316 1.492 . S
C310 C311 1.392 . S
C310 C312 1.386 . S
C311 C309 1.393 . S
C311 C310 1.392 . S
C311 H328 0.930 . S
C312 C310 1.386 . S
C312 C314 1.395 . S
C312 H329 0.930 . S
C313 C309 1.395 . S
C313 C314 1.379 . S
C313 H330 0.930 . S
C314 C312 1.395 . S
C314 C313 1.379 . S
C314 H331 0.930 . S
C315 O298 1.264 . S
C315 O299 1.254 . S
C316 Eu252 2.848 . S
C316 O296 1.257 . S
C316 O301 1.249 . S
C316 C309 1.492 . S
C317 H282 0.931 . S
C317 C295 1.420 . S
C317 C318 1.351 . S
C318 H280 0.930 . S
C318 C286 1.423 1_565 S
C318 C317 1.351 . S
C319 O303 1.276 . S
C319 O306 1.235 . S
C320 C321 1.393 . S
C320 C324 1.395 . S
C320 C327 1.492 . S
C321 C320 1.393 . S
C321 C322 1.392 . S
C321 H332 0.930 . S
C322 C321 1.392 . S
C322 C323 1.386 . S
C323 C322 1.386 . S
C323 C325 1.395 . S
C323 H333 0.930 . S
C324 C320 1.395 . S
C324 C325 1.379 . S
C324 H334 0.930 . S
C325 C323 1.395 . S
C325 C324 1.379 . S
C325 H335 0.930 . S
C326 O304 1.264 . S
C326 O305 1.254 . S
C327 Eu263 2.848 . S
C327 O302 1.257 . S
C327 O307 1.249 . S
C327 C320 1.492 . S
H328 C311 0.930 . S
H329 C312 0.930 . S
H330 C313 0.930 . S
H331 C314 0.930 . S
H332 C321 0.930 . S
H333 C323 0.930 . S
H334 C324 0.930 . S
H335 C325 0.930 . S
Eu336 N367 2.657 . S
Eu336 N374 2.609 . S
Eu336 O380 2.558 . S
Eu336 O381 2.612 . S
Eu336 O383 2.339 . S
Eu336 O384 2.563 . S
Eu336 O385 2.419 . S
Eu336 O387 2.380 . S
Eu336 O388 2.432 . S
Eu336 C400 2.848 . S
C337 C340 1.429 . S
C337 C341 1.411 . S
C337 N344 1.377 . S
C338 C340 1.420 . S
C338 C342 1.423 . S
C338 C350 1.392 . S
C339 C341 1.420 . S
C339 C342 1.351 . S
C339 H362 0.931 . S
C340 C337 1.429 . S
C340 C338 1.420 . S
C340 N348 1.362 . S
C341 C337 1.411 . S
C341 C339 1.420 . S
C341 C346 1.395 . S
C342 C338 1.423 . S
C342 C339 1.351 . S
C342 H354 0.930 . S
C343 C345 1.400 . S
C343 C346 1.386 . S
C343 H355 0.930 . S
N344 C337 1.377 . S
N344 C345 1.321 . S
N344 Eu347 2.609 . S
C345 C343 1.400 . S
C345 N344 1.321 . S
C345 H352 0.930 . S
C346 C341 1.395 . S
C346 C343 1.386 . S
C346 H365 0.930 . S
Eu347 N344 2.609 . S
Eu347 N348 2.657 . S
Eu347 O381 2.380 . S
Eu347 O382 2.432 . S
Eu347 O386 2.558 . S
Eu347 O387 2.612 . S
Eu347 O389 2.339 . S
Eu347 O390 2.563 . S
Eu347 O391 2.419 . S
Eu347 C411 2.848 . S
N348 C340 1.362 . S
N348 Eu347 2.657 . S
N348 C349 1.334 . S
C349 N348 1.334 . S
C349 C351 1.413 . S
C349 H356 0.929 . S
C350 C338 1.392 . S
C350 C351 1.367 . S
C350 H358 0.930 . S
C351 C349 1.413 . S
C351 C350 1.367 . S
C351 H353 0.930 . S
H352 C345 0.930 . S
H353 C351 0.930 . S
H354 C342 0.930 . S
H355 C343 0.930 . S
H356 C349 0.929 . S
H357 C371 0.930 . S
H358 C350 0.930 . S
H359 C377 0.930 . S
H360 C368 0.929 . S
H361 C375 0.930 . S
H362 C339 0.931 . S
H363 C369 0.930 . S
H364 C402 0.930 . S
H365 C346 0.930 . S
H366 C401 0.931 . S
N367 Eu336 2.657 . S
N367 C368 1.334 . S
N367 C372 1.362 . S
C368 H360 0.929 . S
C368 N367 1.334 . S
C368 C371 1.413 . S
C369 H363 0.930 . S
C369 C370 1.392 . S
C369 C371 1.367 . S
C370 C369 1.392 . S
C370 C372 1.420 . S
C370 C402 1.423 . S
C371 H357 0.930 . S
C371 C368 1.413 . S
C371 C369 1.367 . S
C372 N367 1.362 . S
C372 C370 1.420 . S
C372 C376 1.429 . S
H373 C378 0.930 . S
N374 Eu336 2.609 . S
N374 C376 1.377 . S
N374 C377 1.321 . S
C375 H361 0.930 . S
C375 C377 1.400 . S
C375 C378 1.386 . S
C376 C372 1.429 . S
C376 N374 1.377 . S
C376 C379 1.411 . S
C377 H359 0.930 . S
C377 N374 1.321 . S
C377 C375 1.400 . S
C378 H373 0.930 . S
C378 C375 1.386 . S
C378 C379 1.395 . S
C379 C376 1.411 . S
C379 C378 1.395 . S
C379 C401 1.420 . S
O380 Eu336 2.558 . S
O380 C400 1.257 . S
O381 Eu336 2.612 . S
O381 Eu347 2.380 . S
O381 C392 1.276 . S
O382 Eu347 2.432 . S
O382 C399 1.264 . S
O383 Eu336 2.339 . S
O383 C399 1.254 . S
O384 Eu336 2.563 . S
O384 C392 1.235 . S
O385 Eu336 2.419 . S
O385 C400 1.249 . S
O386 Eu347 2.558 . S
O386 C411 1.257 . S
O387 Eu336 2.380 . S
O387 Eu347 2.612 . S
O387 C403 1.276 . S
O388 Eu336 2.432 . S
O388 C410 1.264 . S
O389 Eu347 2.339 . S
O389 C410 1.254 . S
O390 Eu347 2.563 . S
O390 C403 1.235 . S
O391 Eu347 2.419 . S
O391 C411 1.249 . S
C392 O381 1.276 . S
C392 O384 1.235 . S
C393 C395 1.393 . S
C393 C397 1.395 . S
C393 C400 1.492 . S
C394 C395 1.392 . S
C394 C396 1.386 . S
C395 C393 1.393 . S
C395 C394 1.392 . S
C395 H412 0.930 . S
C396 C394 1.386 . S
C396 C398 1.395 . S
C396 H413 0.930 . S
C397 C393 1.395 . S
C397 C398 1.379 . S
C397 H414 0.930 . S
C398 C396 1.395 . S
C398 C397 1.379 . S
C398 H415 0.930 . S
C399 O382 1.264 . S
C399 O383 1.254 . S
C400 Eu336 2.848 . S
C400 O380 1.257 . S
C400 O385 1.249 . S
C400 C393 1.492 . S
C401 H366 0.931 . S
C401 C379 1.420 . S
C401 C402 1.351 . S
C402 H364 0.930 . S
C402 C370 1.423 . S
C402 C401 1.351 . S
C403 O387 1.276 . S
C403 O390 1.235 . S
C404 C405 1.393 . S
C404 C408 1.395 . S
C404 C411 1.492 . S
C405 C404 1.393 . S
C405 C406 1.392 . S
C405 H416 0.930 . S
C406 C405 1.392 . S
C406 C407 1.386 . S
C407 C406 1.386 . S
C407 C409 1.395 . S
C407 H417 0.930 . S
C408 C404 1.395 . S
C408 C409 1.379 . S
C408 H418 0.930 . S
C409 C407 1.395 . S
C409 C408 1.379 . S
C409 H419 0.930 . S
C410 O388 1.264 . S
C410 O389 1.254 . S
C411 Eu347 2.848 . S
C411 O386 1.257 . S
C411 O391 1.249 . S
C411 C404 1.492 . S
H412 C395 0.930 . S
H413 C396 0.930 . S
H414 C397 0.930 . S
H415 C398 0.930 . S
H416 C405 0.930 . S
H417 C407 0.930 . S
H418 C408 0.930 . S
H419 C409 0.930 . S
Eu420 N451 2.657 . S
Eu420 N458 2.609 1_565 S
Eu420 O464 2.558 . S
Eu420 O465 2.612 . S
Eu420 O467 2.339 . S
Eu420 O468 2.563 . S
Eu420 O469 2.419 . S
Eu420 O471 2.380 . S
Eu420 O472 2.432 . S
Eu420 C484 2.848 . S
C421 C424 1.429 . S
C421 C425 1.411 . S
C421 N428 1.377 . S
C422 C424 1.420 . S
C422 C426 1.423 . S
C422 C434 1.392 . S
C423 C425 1.420 . S
C423 C426 1.351 . S
C423 H446 0.931 . S
C424 C421 1.429 . S
C424 C422 1.420 . S
C424 N432 1.362 . S
C425 C421 1.411 . S
C425 C423 1.420 . S
C425 C430 1.395 . S
C426 C422 1.423 . S
C426 C423 1.351 . S
C426 H438 0.930 . S
C427 C429 1.400 . S
C427 C430 1.386 . S
C427 H439 0.930 . S
N428 C421 1.377 . S
N428 C429 1.321 . S
N428 Eu431 2.609 . S
C429 C427 1.400 . S
C429 N428 1.321 . S
C429 H436 0.930 . S
C430 C425 1.395 . S
C430 C427 1.386 . S
C430 H449 0.930 . S
Eu431 N428 2.609 . S
Eu431 N432 2.657 . S
Eu431 O465 2.380 . S
Eu431 O466 2.432 . S
Eu431 O470 2.558 . S
Eu431 O471 2.612 . S
Eu431 O473 2.339 . S
Eu431 O474 2.563 . S
Eu431 O475 2.419 . S
Eu431 C495 2.848 . S
N432 C424 1.362 . S
N432 Eu431 2.657 . S
N432 C433 1.334 . S
C433 N432 1.334 . S
C433 C435 1.413 . S
C433 H440 0.929 . S
C434 C422 1.392 . S
C434 C435 1.367 . S
C434 H442 0.930 . S
C435 C433 1.413 . S
C435 C434 1.367 . S
C435 H437 0.930 . S
H436 C429 0.930 . S
H437 C435 0.930 . S
H438 C426 0.930 . S
H439 C427 0.930 . S
H440 C433 0.929 . S
H441 C455 0.930 . S
H442 C434 0.930 . S
H443 C461 0.930 . S
H444 C452 0.929 . S
H445 C459 0.930 . S
H446 C423 0.931 . S
H447 C453 0.930 . S
H448 C486 0.930 . S
H449 C430 0.930 . S
H450 C485 0.931 . S
N451 Eu420 2.657 . S
N451 C452 1.334 . S
N451 C456 1.362 . S
C452 H444 0.929 . S
C452 N451 1.334 . S
C452 C455 1.413 . S
C453 H447 0.930 . S
C453 C454 1.392 . S
C453 C455 1.367 . S
C454 C453 1.392 . S
C454 C456 1.420 . S
C454 C486 1.423 1_565 S
C455 H441 0.930 . S
C455 C452 1.413 . S
C455 C453 1.367 . S
C456 N451 1.362 . S
C456 C454 1.420 . S
C456 C460 1.429 1_565 S
H457 C462 0.930 . S
N458 Eu420 2.609 1_545 S
N458 C460 1.377 . S
N458 C461 1.321 . S
C459 H445 0.930 . S
C459 C461 1.400 . S
C459 C462 1.386 . S
C460 C456 1.429 1_545 S
C460 N458 1.377 . S
C460 C463 1.411 . S
C461 H443 0.930 . S
C461 N458 1.321 . S
C461 C459 1.400 . S
C462 H457 0.930 . S
C462 C459 1.386 . S
C462 C463 1.395 . S
C463 C460 1.411 . S
C463 C462 1.395 . S
C463 C485 1.420 . S
O464 Eu420 2.558 . S
O464 C484 1.257 . S
O465 Eu420 2.612 . S
O465 Eu431 2.380 . S
O465 C476 1.276 . S
O466 Eu431 2.432 . S
O466 C483 1.264 . S
O467 Eu420 2.339 . S
O467 C483 1.254 . S
O468 Eu420 2.563 . S
O468 C476 1.235 . S
O469 Eu420 2.419 . S
O469 C484 1.249 . S
O470 Eu431 2.558 . S
O470 C495 1.257 . S
O471 Eu420 2.380 . S
O471 Eu431 2.612 . S
O471 C487 1.276 . S
O472 Eu420 2.432 . S
O472 C494 1.264 . S
O473 Eu431 2.339 . S
O473 C494 1.254 . S
O474 Eu431 2.563 . S
O474 C487 1.235 . S
O475 Eu431 2.419 . S
O475 C495 1.249 . S
C476 O465 1.276 . S
C476 O468 1.235 . S
C477 C479 1.393 . S
C477 C481 1.395 . S
C477 C484 1.492 . S
C478 C479 1.392 . S
C478 C480 1.386 . S
C479 C477 1.393 . S
C479 C478 1.392 . S
C479 H496 0.930 . S
C480 C478 1.386 . S
C480 C482 1.395 . S
C480 H497 0.930 . S
C481 C477 1.395 . S
C481 C482 1.379 . S
C481 H498 0.930 . S
C482 C480 1.395 . S
C482 C481 1.379 . S
C482 H499 0.930 . S
C483 O466 1.264 . S
C483 O467 1.254 . S
C484 Eu420 2.848 . S
C484 O464 1.257 . S
C484 O469 1.249 . S
C484 C477 1.492 . S
C485 H450 0.931 . S
C485 C463 1.420 . S
C485 C486 1.351 . S
C486 H448 0.930 . S
C486 C454 1.423 1_545 S
C486 C485 1.351 . S
C487 O471 1.276 . S
C487 O474 1.235 . S
C488 C489 1.393 . S
C488 C492 1.395 . S
C488 C495 1.492 . S
C489 C488 1.393 . S
C489 C490 1.392 . S
C489 H500 0.930 . S
C490 C489 1.392 . S
C490 C491 1.386 . S
C491 C490 1.386 . S
C491 C493 1.395 . S
C491 H501 0.930 . S
C492 C488 1.395 . S
C492 C493 1.379 . S
C492 H502 0.930 . S
C493 C491 1.395 . S
C493 C492 1.379 . S
C493 H503 0.930 . S
C494 O472 1.264 . S
C494 O473 1.254 . S
C495 Eu431 2.848 . S
C495 O470 1.257 . S
C495 O475 1.249 . S
C495 C488 1.492 . S
H496 C479 0.930 . S
H497 C480 0.930 . S
H498 C481 0.930 . S
H499 C482 0.930 . S
H500 C489 0.930 . S
H501 C491 0.930 . S
H502 C492 0.930 . S
H503 C493 0.930 . S
Eu504 N535 2.657 . S
Eu504 N542 2.609 . S
Eu504 O548 2.558 . S
Eu504 O549 2.612 . S
Eu504 O551 2.339 . S
Eu504 O552 2.563 . S
Eu504 O553 2.419 . S
Eu504 O555 2.380 . S
Eu504 O556 2.432 . S
Eu504 C568 2.848 . S
C505 C508 1.429 . S
C505 C509 1.411 . S
C505 N512 1.377 . S
C506 C508 1.420 . S
C506 C510 1.423 . S
C506 C518 1.392 . S
C507 C509 1.420 . S
C507 C510 1.351 . S
C507 H530 0.931 . S
C508 C505 1.429 . S
C508 C506 1.420 . S
C508 N516 1.362 . S
C509 C505 1.411 . S
C509 C507 1.420 . S
C509 C514 1.395 . S
C510 C506 1.423 . S
C510 C507 1.351 . S
C510 H522 0.930 . S
C511 C513 1.400 . S
C511 C514 1.386 . S
C511 H523 0.930 . S
N512 C505 1.377 . S
N512 C513 1.321 . S
N512 Eu515 2.609 . S
C513 C511 1.400 . S
C513 N512 1.321 . S
C513 H520 0.930 . S
C514 C509 1.395 . S
C514 C511 1.386 . S
C514 H533 0.930 . S
Eu515 N512 2.609 . S
Eu515 N516 2.657 . S
Eu515 O549 2.380 . S
Eu515 O550 2.432 . S
Eu515 O554 2.558 . S
Eu515 O555 2.612 . S
Eu515 O557 2.339 . S
Eu515 O558 2.563 . S
Eu515 O559 2.419 . S
Eu515 C579 2.848 . S
N516 C508 1.362 . S
N516 Eu515 2.657 . S
N516 C517 1.334 . S
C517 N516 1.334 . S
C517 C519 1.413 . S
C517 H524 0.929 . S
C518 C506 1.392 . S
C518 C519 1.367 . S
C518 H526 0.930 . S
C519 C517 1.413 . S
C519 C518 1.367 . S
C519 H521 0.930 . S
H520 C513 0.930 . S
H521 C519 0.930 . S
H522 C510 0.930 . S
H523 C511 0.930 . S
H524 C517 0.929 . S
H525 C539 0.930 . S
H526 C518 0.930 . S
H527 C545 0.930 . S
H528 C536 0.929 . S
H529 C543 0.930 . S
H530 C507 0.931 . S
H531 C537 0.930 . S
H532 C570 0.930 . S
H533 C514 0.930 . S
H534 C569 0.931 . S
N535 Eu504 2.657 . S
N535 C536 1.334 . S
N535 C540 1.362 . S
C536 H528 0.929 . S
C536 N535 1.334 . S
C536 C539 1.413 . S
C537 H531 0.930 . S
C537 C538 1.392 . S
C537 C539 1.367 . S
C538 C537 1.392 . S
C538 C540 1.420 . S
C538 C570 1.423 . S
C539 H525 0.930 . S
C539 C536 1.413 . S
C539 C537 1.367 . S
C540 N535 1.362 . S
C540 C538 1.420 . S
C540 C544 1.429 . S
H541 C546 0.930 . S
N542 Eu504 2.609 . S
N542 C544 1.377 . S
N542 C545 1.321 . S
C543 H529 0.930 . S
C543 C545 1.400 . S
C543 C546 1.386 . S
C544 C540 1.429 . S
C544 N542 1.377 . S
C544 C547 1.411 . S
C545 H527 0.930 . S
C545 N542 1.321 . S
C545 C543 1.400 . S
C546 H541 0.930 . S
C546 C543 1.386 . S
C546 C547 1.395 . S
C547 C544 1.411 . S
C547 C546 1.395 . S
C547 C569 1.420 . S
O548 Eu504 2.558 . S
O548 C568 1.257 . S
O549 Eu504 2.612 . S
O549 Eu515 2.380 . S
O549 C560 1.276 . S
O550 Eu515 2.432 . S
O550 C567 1.264 . S
O551 Eu504 2.339 . S
O551 C567 1.254 . S
O552 Eu504 2.563 . S
O552 C560 1.235 . S
O553 Eu504 2.419 . S
O553 C568 1.249 . S
O554 Eu515 2.558 . S
O554 C579 1.257 . S
O555 Eu504 2.380 . S
O555 Eu515 2.612 . S
O555 C571 1.276 . S
O556 Eu504 2.432 . S
O556 C578 1.264 . S
O557 Eu515 2.339 . S
O557 C578 1.254 . S
O558 Eu515 2.563 . S
O558 C571 1.235 . S
O559 Eu515 2.419 . S
O559 C579 1.249 . S
C560 O549 1.276 . S
C560 O552 1.235 . S
C561 C563 1.393 . S
C561 C565 1.395 . S
C561 C568 1.492 . S
C562 C563 1.392 . S
C562 C564 1.386 . S
C563 C561 1.393 . S
C563 C562 1.392 . S
C563 H580 0.930 . S
C564 C562 1.386 . S
C564 C566 1.395 . S
C564 H581 0.930 . S
C565 C561 1.395 . S
C565 C566 1.379 . S
C565 H582 0.930 . S
C566 C564 1.395 . S
C566 C565 1.379 . S
C566 H583 0.930 . S
C567 O550 1.264 . S
C567 O551 1.254 . S
C568 Eu504 2.848 . S
C568 O548 1.257 . S
C568 O553 1.249 . S
C568 C561 1.492 . S
C569 H534 0.931 . S
C569 C547 1.420 . S
C569 C570 1.351 . S
C570 H532 0.930 . S
C570 C538 1.423 . S
C570 C569 1.351 . S
C571 O555 1.276 . S
C571 O558 1.235 . S
C572 C573 1.393 . S
C572 C576 1.395 . S
C572 C579 1.492 . S
C573 C572 1.393 . S
C573 C574 1.392 . S
C573 H584 0.930 . S
C574 C573 1.392 . S
C574 C575 1.386 . S
C575 C574 1.386 . S
C575 C577 1.395 . S
C575 H585 0.930 . S
C576 C572 1.395 . S
C576 C577 1.379 . S
C576 H586 0.930 . S
C577 C575 1.395 . S
C577 C576 1.379 . S
C577 H587 0.930 . S
C578 O556 1.264 . S
C578 O557 1.254 . S
C579 Eu515 2.848 . S
C579 O554 1.257 . S
C579 O559 1.249 . S
C579 C572 1.492 . S
H580 C563 0.930 . S
H581 C564 0.930 . S
H582 C565 0.930 . S
H583 C566 0.930 . S
H584 C573 0.930 . S
H585 C575 0.930 . S
H586 C576 0.930 . S
H587 C577 0.930 . S
Eu588 N619 2.657 1_455 S
Eu588 N626 2.609 1_545 S
Eu588 O632 2.563 . S
Eu588 O633 2.612 . S
Eu588 O635 2.339 . S
Eu588 O636 2.563 . S
Eu588 O637 2.419 1_455 S
Eu588 O639 2.380 . S
Eu588 O640 2.432 . S
Eu588 C652 2.848 1_455 S
C589 C592 1.429 . S
C589 C593 1.411 . S
C589 N596 1.377 . S
C590 C592 1.420 . S
C590 C594 1.423 . S
C590 C602 1.392 . S
C591 C593 1.420 . S
C591 C594 1.351 . S
C591 H614 0.931 . S
C592 C589 1.429 . S
C592 C590 1.420 . S
C592 N600 1.362 . S
C593 C589 1.411 . S
C593 C591 1.420 . S
C593 C598 1.395 . S
C594 C590 1.423 . S
C594 C591 1.351 . S
C594 H606 0.930 . S
C595 C597 1.400 . S
C595 C598 1.386 . S
C595 H607 0.930 . S
N596 C589 1.377 . S
N596 C597 1.321 . S
N596 Eu599 2.609 . S
C597 C595 1.400 . S
C597 N596 1.321 . S
C597 H604 0.930 . S
C598 C593 1.395 . S
C598 C595 1.386 . S
C598 H617 0.930 . S
Eu599 N596 2.609 . S
Eu599 N600 2.657 . S
Eu599 O633 2.380 . S
Eu599 O634 2.432 . S
Eu599 O638 2.558 . S
Eu599 O639 2.612 . S
Eu599 O641 2.339 . S
Eu599 O642 2.563 . S
Eu599 O643 2.419 . S
Eu599 C663 2.848 . S
N600 C592 1.362 . S
N600 Eu599 2.657 . S
N600 C601 1.334 . S
C601 N600 1.334 . S
C601 C603 1.413 . S
C601 H608 0.929 . S
C602 C590 1.392 . S
C602 C603 1.367 . S
C602 H610 0.930 . S
C603 C601 1.413 . S
C603 C602 1.367 . S
C603 H605 0.930 . S
H604 C597 0.930 . S
H605 C603 0.930 . S
H606 C594 0.930 . S
H607 C595 0.930 . S
H608 C601 0.929 . S
H609 C623 0.930 . S
H610 C602 0.930 . S
H611 C629 0.930 . S
H612 C620 0.929 . S
H613 C627 0.930 1_455 S
H614 C591 0.931 . S
H615 C621 0.930 . S
H616 C654 0.930 . S
H617 C598 0.930 . S
H618 C653 0.931 . S
N619 Eu588 2.657 1_655 S
N619 C620 1.334 . S
N619 C624 1.362 . S
C620 H612 0.929 . S
C620 N619 1.334 . S
C620 C623 1.413 . S
C621 H615 0.930 . S
C621 C622 1.392 . S
C621 C623 1.367 . S
C622 C621 1.392 . S
C622 C624 1.420 . S
C622 C654 1.423 1_545 S
C623 H609 0.930 . S
C623 C620 1.413 . S
C623 C621 1.367 . S
C624 N619 1.362 . S
C624 C622 1.420 . S
C624 C628 1.429 1_545 S
H625 C630 0.930 . S
N626 Eu588 2.609 1_565 S
N626 C628 1.377 1_455 S
N626 C629 1.321 . S
C627 H613 0.930 1_655 S
C627 C629 1.400 1_655 S
C627 C630 1.386 . S
C628 C624 1.429 1_565 S
C628 N626 1.377 1_655 S
C628 C631 1.411 . S
C629 H611 0.930 . S
C629 N626 1.321 . S
C629 C627 1.400 1_455 S
C630 H625 0.930 . S
C630 C627 1.386 . S
C630 C631 1.395 . S
C631 C628 1.411 . S
C631 C630 1.395 . S
C631 C653 1.420 . S
O632 Eu588 2.563 . S
O632 C652 1.248 1_455 S
O633 Eu588 2.612 . S
O633 Eu599 2.380 . S
O633 C644 1.276 . S
O634 Eu599 2.432 . S
O634 C651 1.264 . S
O635 Eu588 2.339 . S
O635 C651 1.254 . S
O636 Eu588 2.563 . S
O636 C644 1.235 . S
O637 Eu588 2.419 1_655 S
O637 C652 1.249 . S
O638 Eu599 2.558 . S
O638 C663 1.257 . S
O639 Eu588 2.380 . S
O639 Eu599 2.612 . S
O639 C655 1.276 . S
O640 Eu588 2.432 . S
O640 C662 1.264 . S
O641 Eu599 2.339 . S
O641 C662 1.254 . S
O642 Eu599 2.563 . S
O642 C655 1.235 . S
O643 Eu599 2.419 . S
O643 C663 1.249 . S
C644 O633 1.276 . S
C644 O636 1.235 . S
C645 C647 1.393 . S
C645 C649 1.395 . S
C645 C652 1.492 . S
C646 C647 1.392 . S
C646 C648 1.386 . S
C647 C645 1.393 . S
C647 C646 1.392 . S
C647 H664 0.930 . S
C648 C646 1.386 . S
C648 C650 1.395 . S
C648 H665 0.930 . S
C649 C645 1.395 . S
C649 C650 1.379 . S
C649 H666 0.930 . S
C650 C648 1.395 . S
C650 C649 1.379 . S
C650 H667 0.930 . S
C651 O634 1.264 . S
C651 O635 1.254 . S
C652 Eu588 2.848 1_655 S
C652 O632 1.248 1_655 S
C652 O637 1.249 . S
C652 C645 1.492 . S
C653 H618 0.931 . S
C653 C631 1.420 . S
C653 C654 1.351 . S
C654 H616 0.930 . S
C654 C622 1.423 1_565 S
C654 C653 1.351 . S
C655 O639 1.276 . S
C655 O642 1.235 . S
C656 C657 1.393 . S
C656 C660 1.395 . S
C656 C663 1.492 . S
C657 C656 1.393 . S
C657 C658 1.392 . S
C657 H668 0.930 . S
C658 C657 1.392 . S
C658 C659 1.386 . S
C659 C658 1.386 . S
C659 C661 1.395 . S
C659 H669 0.930 . S
C660 C656 1.395 . S
C660 C661 1.379 . S
C660 H670 0.930 . S
C661 C659 1.395 . S
C661 C660 1.379 . S
C661 H671 0.930 . S
C662 O640 1.264 . S
C662 O641 1.254 . S
C663 Eu599 2.848 . S
C663 O638 1.257 . S
C663 O643 1.249 . S
C663 C656 1.492 . S
H664 C647 0.930 . S
H665 C648 0.930 . S
H666 C649 0.930 . S
H667 C650 0.930 . S
H668 C657 0.930 . S
H669 C659 0.930 . S
H670 C660 0.930 . S
H671 C661 0.930 . S
Eu672 N703 2.657 . S
Eu672 N710 2.609 . S
Eu672 O716 2.558 . S
Eu672 O717 2.612 . S
Eu672 O719 2.339 . S
Eu672 O720 2.563 . S
Eu672 O721 2.419 . S
Eu672 O723 2.380 . S
Eu672 O724 2.432 . S
Eu672 C736 2.848 . S
C673 C676 1.429 . S
C673 C677 1.411 . S
C673 N680 1.377 . S
C674 C676 1.420 . S
C674 C678 1.423 . S
C674 C686 1.392 . S
C675 C677 1.420 . S
C675 C678 1.351 . S
C675 H698 0.931 . S
C676 C673 1.429 . S
C676 C674 1.420 . S
C676 N684 1.362 . S
C677 C673 1.411 . S
C677 C675 1.420 . S
C677 C682 1.395 . S
C678 C674 1.423 . S
C678 C675 1.351 . S
C678 H690 0.930 . S
C679 C681 1.400 . S
C679 C682 1.386 . S
C679 H691 0.930 . S
N680 C673 1.377 . S
N680 C681 1.321 . S
N680 Eu683 2.609 . S
C681 C679 1.400 . S
C681 N680 1.321 . S
C681 H688 0.930 . S
C682 C677 1.395 . S
C682 C679 1.386 . S
C682 H701 0.930 . S
Eu683 N680 2.609 . S
Eu683 N684 2.657 . S
Eu683 O717 2.380 . S
Eu683 O718 2.432 . S
Eu683 O722 2.558 . S
Eu683 O723 2.612 . S
Eu683 O725 2.339 . S
Eu683 O726 2.563 . S
Eu683 O727 2.419 . S
Eu683 C747 2.848 . S
N684 C676 1.362 . S
N684 Eu683 2.657 . S
N684 C685 1.334 . S
C685 N684 1.334 . S
C685 C687 1.413 . S
C685 H692 0.929 . S
C686 C674 1.392 . S
C686 C687 1.367 . S
C686 H694 0.930 . S
C687 C685 1.413 . S
C687 C686 1.367 . S
C687 H689 0.930 . S
H688 C681 0.930 . S
H689 C687 0.930 . S
H690 C678 0.930 . S
H691 C679 0.930 . S
H692 C685 0.929 . S
H693 C707 0.930 . S
H694 C686 0.930 . S
H695 C713 0.930 . S
H696 C704 0.929 . S
H697 C711 0.930 . S
H698 C675 0.931 . S
H699 C705 0.930 . S
H700 C738 0.930 . S
H701 C682 0.930 . S
H702 C737 0.931 . S
N703 Eu672 2.657 . S
N703 C704 1.334 . S
N703 C708 1.362 . S
C704 H696 0.929 . S
C704 N703 1.334 . S
C704 C707 1.413 . S
C705 H699 0.930 . S
C705 C706 1.392 . S
C705 C707 1.367 . S
C706 C705 1.392 . S
C706 C708 1.420 . S
C706 C738 1.423 . S
C707 H693 0.930 . S
C707 C704 1.413 . S
C707 C705 1.367 . S
C708 N703 1.362 . S
C708 C706 1.420 . S
C708 C712 1.429 . S
H709 C714 0.930 . S
N710 Eu672 2.609 . S
N710 C712 1.377 . S
N710 C713 1.321 . S
C711 H697 0.930 . S
C711 C713 1.400 . S
C711 C714 1.386 . S
C712 C708 1.429 . S
C712 N710 1.377 . S
C712 C715 1.411 . S
C713 H695 0.930 . S
C713 N710 1.321 . S
C713 C711 1.400 . S
C714 H709 0.930 . S
C714 C711 1.386 . S
C714 C715 1.395 . S
C715 C712 1.411 . S
C715 C714 1.395 . S
C715 C737 1.420 . S
O716 Eu672 2.558 . S
O716 C736 1.257 . S
O717 Eu672 2.612 . S
O717 Eu683 2.380 . S
O717 C728 1.276 . S
O718 Eu683 2.432 . S
O718 C735 1.264 . S
O719 Eu672 2.339 . S
O719 C735 1.254 . S
O720 Eu672 2.563 . S
O720 C728 1.235 . S
O721 Eu672 2.419 . S
O721 C736 1.249 . S
O722 Eu683 2.558 . S
O722 C747 1.257 . S
O723 Eu672 2.380 . S
O723 Eu683 2.612 . S
O723 C739 1.276 . S
O724 Eu672 2.432 . S
O724 C746 1.264 . S
O725 Eu683 2.339 . S
O725 C746 1.254 . S
O726 Eu683 2.563 . S
O726 C739 1.235 . S
O727 Eu683 2.419 . S
O727 C747 1.249 . S
C728 O717 1.276 . S
C728 O720 1.235 . S
C729 C731 1.393 . S
C729 C733 1.395 . S
C729 C736 1.492 . S
C730 C731 1.392 . S
C730 C732 1.386 . S
C731 C729 1.393 . S
C731 C730 1.392 . S
C731 H748 0.930 . S
C732 C730 1.386 . S
C732 C734 1.395 . S
C732 H749 0.930 . S
C733 C729 1.395 . S
C733 C734 1.379 . S
C733 H750 0.930 . S
C734 C732 1.395 . S
C734 C733 1.379 . S
C734 H751 0.930 . S
C735 O718 1.264 . S
C735 O719 1.254 . S
C736 Eu672 2.848 . S
C736 O716 1.257 . S
C736 O721 1.249 . S
C736 C729 1.492 . S
C737 H702 0.931 . S
C737 C715 1.420 . S
C737 C738 1.351 . S
C738 H700 0.930 . S
C738 C706 1.423 . S
C738 C737 1.351 . S
C739 O723 1.276 . S
C739 O726 1.235 . S
C740 C741 1.393 . S
C740 C744 1.395 . S
C740 C747 1.492 . S
C741 C740 1.393 . S
C741 C742 1.392 . S
C741 H752 0.930 . S
C742 C741 1.392 . S
C742 C743 1.386 . S
C743 C742 1.386 . S
C743 C745 1.395 . S
C743 H753 0.930 . S
C744 C740 1.395 . S
C744 C745 1.379 . S
C744 H754 0.930 . S
C745 C743 1.395 . S
C745 C744 1.379 . S
C745 H755 0.930 . S
C746 O724 1.264 . S
C746 O725 1.254 . S
C747 Eu683 2.848 . S
C747 O722 1.257 . S
C747 O727 1.249 . S
C747 C740 1.492 . S
H748 C731 0.930 . S
H749 C732 0.930 . S
H750 C733 0.930 . S
H751 C734 0.930 . S
H752 C741 0.930 . S
H753 C743 0.930 . S
H754 C744 0.930 . S
H755 C745 0.930 . S
Eu756 N787 2.657 . S
Eu756 N794 2.609 . S
Eu756 O800 2.558 . S
Eu756 O801 2.612 . S
Eu756 O803 2.339 . S
Eu756 O804 2.563 . S
Eu756 O805 2.419 . S
Eu756 O807 2.380 . S
Eu756 O808 2.432 . S
Eu756 C820 2.848 . S
C757 C760 1.429 1_565 S
C757 C761 1.411 . S
C757 N764 1.377 1_455 S
C758 C760 1.420 . S
C758 C762 1.423 1_545 S
C758 C770 1.392 . S
C759 C761 1.420 . S
C759 C762 1.351 . S
C759 H782 0.931 . S
C760 C757 1.429 1_545 S
C760 C758 1.420 . S
C760 N768 1.362 . S
C761 C757 1.411 . S
C761 C759 1.420 . S
C761 C766 1.395 . S
C762 C758 1.423 1_565 S
C762 C759 1.351 . S
C762 H774 0.930 . S
C763 C765 1.400 1_455 S
C763 C766 1.386 . S
C763 H775 0.930 1_455 S
N764 C757 1.377 1_655 S
N764 C765 1.321 . S
N764 Eu767 2.609 1_565 S
C765 C763 1.400 1_655 S
C765 N764 1.321 . S
C765 H772 0.930 . S
C766 C761 1.395 . S
C766 C763 1.386 . S
C766 H785 0.930 . S
Eu767 N764 2.609 1_545 S
Eu767 N768 2.657 1_655 S
Eu767 O801 2.380 . S
Eu767 O802 2.432 . S
Eu767 O806 2.563 . S
Eu767 O807 2.612 . S
Eu767 O809 2.339 . S
Eu767 O810 2.563 . S
Eu767 O811 2.419 1_655 S
Eu767 C831 2.848 1_655 S
N768 C760 1.362 . S
N768 Eu767 2.657 1_455 S
N768 C769 1.334 . S
C769 N768 1.334 . S
C769 C771 1.413 . S
C769 H776 0.929 . S
C770 C758 1.392 . S
C770 C771 1.367 . S
C770 H778 0.930 . S
C771 C769 1.413 . S
C771 C770 1.367 . S
C771 H773 0.930 . S
H772 C765 0.930 . S
H773 C771 0.930 . S
H774 C762 0.930 . S
H775 C763 0.930 1_655 S
H776 C769 0.929 . S
H777 C791 0.930 . S
H778 C770 0.930 . S
H779 C797 0.930 . S
H780 C788 0.929 . S
H781 C795 0.930 . S
H782 C759 0.931 . S
H783 C789 0.930 . S
H784 C822 0.930 . S
H785 C766 0.930 . S
H786 C821 0.931 . S
N787 Eu756 2.657 . S
N787 C788 1.334 . S
N787 C792 1.362 . S
C788 H780 0.929 . S
C788 N787 1.334 . S
C788 C791 1.413 . S
C789 H783 0.930 . S
C789 C790 1.392 . S
C789 C791 1.367 . S
C790 C789 1.392 . S
C790 C792 1.420 . S
C790 C822 1.423 . S
C791 H777 0.930 . S
C791 C788 1.413 . S
C791 C789 1.367 . S
C792 N787 1.362 . S
C792 C790 1.420 . S
C792 C796 1.429 . S
H793 C798 0.930 . S
N794 Eu756 2.609 . S
N794 C796 1.377 . S
N794 C797 1.321 . S
C795 H781 0.930 . S
C795 C797 1.400 . S
C795 C798 1.386 . S
C796 C792 1.429 . S
C796 N794 1.377 . S
C796 C799 1.411 . S
C797 H779 0.930 . S
C797 N794 1.321 . S
C797 C795 1.400 . S
C798 H793 0.930 . S
C798 C795 1.386 . S
C798 C799 1.395 . S
C799 C796 1.411 . S
C799 C798 1.395 . S
C799 C821 1.420 . S
O800 Eu756 2.558 . S
O800 C820 1.257 . S
O801 Eu756 2.612 . S
O801 Eu767 2.380 . S
O801 C812 1.276 . S
O802 Eu767 2.432 . S
O802 C819 1.264 . S
O803 Eu756 2.339 . S
O803 C819 1.254 . S
O804 Eu756 2.563 . S
O804 C812 1.235 . S
O805 Eu756 2.419 . S
O805 C820 1.249 . S
O806 Eu767 2.563 . S
O806 C831 1.248 1_655 S
O807 Eu756 2.380 . S
O807 Eu767 2.612 . S
O807 C823 1.276 . S
O808 Eu756 2.432 . S
O808 C830 1.264 . S
O809 Eu767 2.339 . S
O809 C830 1.254 . S
O810 Eu767 2.563 . S
O810 C823 1.235 . S
O811 Eu767 2.419 1_455 S
O811 C831 1.249 . S
C812 O801 1.276 . S
C812 O804 1.235 . S
C813 C815 1.393 . S
C813 C817 1.395 . S
C813 C820 1.492 . S
C814 C815 1.392 . S
C814 C816 1.386 . S
C815 C813 1.393 . S
C815 C814 1.392 . S
C815 H832 0.930 . S
C816 C814 1.386 . S
C816 C818 1.395 . S
C816 H833 0.930 . S
C817 C813 1.395 . S
C817 C818 1.379 . S
C817 H834 0.930 . S
C818 C816 1.395 . S
C818 C817 1.379 . S
C818 H835 0.930 . S
C819 O802 1.264 . S
C819 O803 1.254 . S
C820 Eu756 2.848 . S
C820 O800 1.257 . S
C820 O805 1.249 . S
C820 C813 1.492 . S
C821 H786 0.931 . S
C821 C799 1.420 . S
C821 C822 1.351 . S
C822 H784 0.930 . S
C822 C790 1.423 . S
C822 C821 1.351 . S
C823 O807 1.276 . S
C823 O810 1.235 . S
C824 C825 1.393 . S
C824 C828 1.395 . S
C824 C831 1.492 . S
C825 C824 1.393 . S
C825 C826 1.392 . S
C825 H836 0.930 . S
C826 C825 1.392 . S
C826 C827 1.386 . S
C827 C826 1.386 . S
C827 C829 1.395 . S
C827 H837 0.930 . S
C828 C824 1.395 . S
C828 C829 1.379 . S
C828 H838 0.930 . S
C829 C827 1.395 . S
C829 C828 1.379 . S
C829 H839 0.930 . S
C830 O808 1.264 . S
C830 O809 1.254 . S
C831 Eu767 2.848 1_455 S
C831 O806 1.248 1_455 S
C831 O811 1.249 . S
C831 C824 1.492 . S
H832 C815 0.930 . S
H833 C816 0.930 . S
H834 C817 0.930 . S
H835 C818 0.930 . S
H836 C825 0.930 . S
H837 C827 0.930 . S
H838 C828 0.930 . S
H839 C829 0.930 . S
Eu840 N871 2.657 . S
Eu840 N878 2.609 . S
Eu840 O884 2.558 . S
Eu840 O885 2.612 . S
Eu840 O887 2.339 . S
Eu840 O888 2.563 . S
Eu840 O889 2.419 . S
Eu840 O891 2.380 . S
Eu840 O892 2.432 . S
Eu840 C904 2.848 . S
C841 C844 1.429 . S
C841 C845 1.411 . S
C841 N848 1.377 . S
C842 C844 1.420 . S
C842 C846 1.423 . S
C842 C854 1.392 . S
C843 C845 1.420 . S
C843 C846 1.351 . S
C843 H866 0.931 . S
C844 C841 1.429 . S
C844 C842 1.420 . S
C844 N852 1.362 . S
C845 C841 1.411 . S
C845 C843 1.420 . S
C845 C850 1.395 . S
C846 C842 1.423 . S
C846 C843 1.351 . S
C846 H858 0.930 . S
C847 C849 1.400 . S
C847 C850 1.386 . S
C847 H859 0.930 . S
N848 C841 1.377 . S
N848 C849 1.321 . S
N848 Eu851 2.609 . S
C849 C847 1.400 . S
C849 N848 1.321 . S
C849 H856 0.930 . S
C850 C845 1.395 . S
C850 C847 1.386 . S
C850 H869 0.930 . S
Eu851 N848 2.609 . S
Eu851 N852 2.657 . S
Eu851 O885 2.380 . S
Eu851 O886 2.432 . S
Eu851 O890 2.558 . S
Eu851 O891 2.612 . S
Eu851 O893 2.339 . S
Eu851 O894 2.563 . S
Eu851 O895 2.419 . S
Eu851 C915 2.848 . S
N852 C844 1.362 . S
N852 Eu851 2.657 . S
N852 C853 1.334 . S
C853 N852 1.334 . S
C853 C855 1.413 . S
C853 H860 0.929 . S
C854 C842 1.392 . S
C854 C855 1.367 . S
C854 H862 0.930 . S
C855 C853 1.413 . S
C855 C854 1.367 . S
C855 H857 0.930 . S
H856 C849 0.930 . S
H857 C855 0.930 . S
H858 C846 0.930 . S
H859 C847 0.930 . S
H860 C853 0.929 . S
H861 C875 0.930 . S
H862 C854 0.930 . S
H863 C881 0.930 . S
H864 C872 0.929 . S
H865 C879 0.930 . S
H866 C843 0.931 . S
H867 C873 0.930 . S
H868 C906 0.930 . S
H869 C850 0.930 . S
H870 C905 0.931 . S
N871 Eu840 2.657 . S
N871 C872 1.334 . S
N871 C876 1.362 . S
C872 H864 0.929 . S
C872 N871 1.334 . S
C872 C875 1.413 . S
C873 H867 0.930 . S
C873 C874 1.392 . S
C873 C875 1.367 . S
C874 C873 1.392 . S
C874 C876 1.420 . S
C874 C906 1.423 . S
C875 H861 0.930 . S
C875 C872 1.413 . S
C875 C873 1.367 . S
C876 N871 1.362 . S
C876 C874 1.420 . S
C876 C880 1.429 . S
H877 C882 0.930 . S
N878 Eu840 2.609 . S
N878 C880 1.377 . S
N878 C881 1.321 . S
C879 H865 0.930 . S
C879 C881 1.400 . S
C879 C882 1.386 . S
C880 C876 1.429 . S
C880 N878 1.377 . S
C880 C883 1.411 . S
C881 H863 0.930 . S
C881 N878 1.321 . S
C881 C879 1.400 . S
C882 H877 0.930 . S
C882 C879 1.386 . S
C882 C883 1.395 . S
C883 C880 1.411 . S
C883 C882 1.395 . S
C883 C905 1.420 . S
O884 Eu840 2.558 . S
O884 C904 1.257 . S
O885 Eu840 2.612 . S
O885 Eu851 2.380 . S
O885 C896 1.276 . S
O886 Eu851 2.432 . S
O886 C903 1.264 . S
O887 Eu840 2.339 . S
O887 C903 1.254 . S
O888 Eu840 2.563 . S
O888 C896 1.235 . S
O889 Eu840 2.419 . S
O889 C904 1.249 . S
O890 Eu851 2.558 . S
O890 C915 1.257 . S
O891 Eu840 2.380 . S
O891 Eu851 2.612 . S
O891 C907 1.276 . S
O892 Eu840 2.432 . S
O892 C914 1.264 . S
O893 Eu851 2.339 . S
O893 C914 1.254 . S
O894 Eu851 2.563 . S
O894 C907 1.235 . S
O895 Eu851 2.419 . S
O895 C915 1.249 . S
C896 O885 1.276 . S
C896 O888 1.235 . S
C897 C899 1.393 . S
C897 C901 1.395 . S
C897 C904 1.492 . S
C898 C899 1.392 . S
C898 C900 1.386 . S
C899 C897 1.393 . S
C899 C898 1.392 . S
C899 H916 0.930 . S
C900 C898 1.386 . S
C900 C902 1.395 . S
C900 H917 0.930 . S
C901 C897 1.395 . S
C901 C902 1.379 . S
C901 H918 0.930 . S
C902 C900 1.395 . S
C902 C901 1.379 . S
C902 H919 0.930 . S
C903 O886 1.264 . S
C903 O887 1.254 . S
C904 Eu840 2.848 . S
C904 O884 1.257 . S
C904 O889 1.249 . S
C904 C897 1.492 . S
C905 H870 0.931 . S
C905 C883 1.420 . S
C905 C906 1.351 . S
C906 H868 0.930 . S
C906 C874 1.423 . S
C906 C905 1.351 . S
C907 O891 1.276 . S
C907 O894 1.235 . S
C908 C909 1.393 . S
C908 C912 1.395 . S
C908 C915 1.492 . S
C909 C908 1.393 . S
C909 C910 1.392 . S
C909 H920 0.930 . S
C910 C909 1.392 . S
C910 C911 1.386 . S
C911 C910 1.386 . S
C911 C913 1.395 . S
C911 H921 0.930 . S
C912 C908 1.395 . S
C912 C913 1.379 . S
C912 H922 0.930 . S
C913 C911 1.395 . S
C913 C912 1.379 . S
C913 H923 0.930 . S
C914 O892 1.264 . S
C914 O893 1.254 . S
C915 Eu851 2.848 . S
C915 O890 1.257 . S
C915 O895 1.249 . S
C915 C908 1.492 . S
H916 C899 0.930 . S
H917 C900 0.930 . S
H918 C901 0.930 . S
H919 C902 0.930 . S
H920 C909 0.930 . S
H921 C911 0.930 . S
H922 C912 0.930 . S
H923 C913 0.930 . S
Eu924 N955 2.657 . S
Eu924 N962 2.609 . S
Eu924 O968 2.558 . S
Eu924 O969 2.612 . S
Eu924 O971 2.339 . S
Eu924 O972 2.563 . S
Eu924 O973 2.419 . S
Eu924 O975 2.380 . S
Eu924 O976 2.432 . S
Eu924 C988 2.848 . S
C925 C928 1.429 1_545 S
C925 C929 1.411 . S
C925 N932 1.377 . S
C926 C928 1.420 . S
C926 C930 1.423 1_565 S
C926 C938 1.392 . S
C927 C929 1.420 . S
C927 C930 1.351 . S
C927 H950 0.931 . S
C928 C925 1.429 1_565 S
C928 C926 1.420 . S
C928 N936 1.362 . S
C929 C925 1.411 . S
C929 C927 1.420 . S
C929 C934 1.395 . S
C930 C926 1.423 1_545 S
C930 C927 1.351 . S
C930 H942 0.930 . S
C931 C933 1.400 . S
C931 C934 1.386 . S
C931 H943 0.930 . S
N932 C925 1.377 . S
N932 C933 1.321 . S
N932 Eu935 2.609 1_545 S
C933 C931 1.400 . S
C933 N932 1.321 . S
C933 H940 0.930 . S
C934 C929 1.395 . S
C934 C931 1.386 . S
C934 H953 0.930 . S
Eu935 N932 2.609 1_565 S
Eu935 N936 2.657 . S
Eu935 O969 2.380 . S
Eu935 O970 2.432 . S
Eu935 O974 2.558 . S
Eu935 O975 2.612 . S
Eu935 O977 2.339 . S
Eu935 O978 2.563 . S
Eu935 O979 2.419 . S
Eu935 C999 2.848 . S
N936 C928 1.362 . S
N936 Eu935 2.657 . S
N936 C937 1.334 . S
C937 N936 1.334 . S
C937 C939 1.413 . S
C937 H944 0.929 . S
C938 C926 1.392 . S
C938 C939 1.367 . S
C938 H946 0.930 . S
C939 C937 1.413 . S
C939 C938 1.367 . S
C939 H941 0.930 . S
H940 C933 0.930 . S
H941 C939 0.930 . S
H942 C930 0.930 . S
H943 C931 0.930 . S
H944 C937 0.929 . S
H945 C959 0.930 . S
H946 C938 0.930 . S
H947 C965 0.930 . S
H948 C956 0.929 . S
H949 C963 0.930 . S
H950 C927 0.931 . S
H951 C957 0.930 . S
H952 C990 0.930 . S
H953 C934 0.930 . S
H954 C989 0.931 . S
N955 Eu924 2.657 . S
N955 C956 1.334 . S
N955 C960 1.362 . S
C956 H948 0.929 . S
C956 N955 1.334 . S
C956 C959 1.413 . S
C957 H951 0.930 . S
C957 C958 1.392 . S
C957 C959 1.367 . S
C958 C957 1.392 . S
C958 C960 1.420 . S
C958 C990 1.423 . S
C959 H945 0.930 . S
C959 C956 1.413 . S
C959 C957 1.367 . S
C960 N955 1.362 . S
C960 C958 1.420 . S
C960 C964 1.429 . S
H961 C966 0.930 . S
N962 Eu924 2.609 . S
N962 C964 1.377 . S
N962 C965 1.321 . S
C963 H949 0.930 . S
C963 C965 1.400 . S
C963 C966 1.386 . S
C964 C960 1.429 . S
C964 N962 1.377 . S
C964 C967 1.411 . S
C965 H947 0.930 . S
C965 N962 1.321 . S
C965 C963 1.400 . S
C966 H961 0.930 . S
C966 C963 1.386 . S
C966 C967 1.395 . S
C967 C964 1.411 . S
C967 C966 1.395 . S
C967 C989 1.420 . S
O968 Eu924 2.558 . S
O968 C988 1.257 . S
O969 Eu924 2.612 . S
O969 Eu935 2.380 . S
O969 C980 1.276 . S
O970 Eu935 2.432 . S
O970 C987 1.264 . S
O971 Eu924 2.339 . S
O971 C987 1.254 . S
O972 Eu924 2.563 . S
O972 C980 1.235 . S
O973 Eu924 2.419 . S
O973 C988 1.249 . S
O974 Eu935 2.558 . S
O974 C999 1.257 . S
O975 Eu924 2.380 . S
O975 Eu935 2.612 . S
O975 C991 1.276 . S
O976 Eu924 2.432 . S
O976 C998 1.264 . S
O977 Eu935 2.339 . S
O977 C998 1.254 . S
O978 Eu935 2.563 . S
O978 C991 1.235 . S
O979 Eu935 2.419 . S
O979 C999 1.249 . S
C980 O969 1.276 . S
C980 O972 1.235 . S
C981 C983 1.393 . S
C981 C985 1.395 . S
C981 C988 1.492 . S
C982 C983 1.392 . S
C982 C984 1.386 . S
C983 C981 1.393 . S
C983 C982 1.392 . S
C983 H1000 0.930 . S
C984 C982 1.386 . S
C984 C986 1.395 . S
C984 H1001 0.930 . S
C985 C981 1.395 . S
C985 C986 1.379 . S
C985 H1002 0.930 . S
C986 C984 1.395 . S
C986 C985 1.379 . S
C986 H1003 0.930 . S
C987 O970 1.264 . S
C987 O971 1.254 . S
C988 Eu924 2.848 . S
C988 O968 1.257 . S
C988 O973 1.249 . S
C988 C981 1.492 . S
C989 H954 0.931 . S
C989 C967 1.420 . S
C989 C990 1.351 . S
C990 H952 0.930 . S
C990 C958 1.423 . S
C990 C989 1.351 . S
C991 O975 1.276 . S
C991 O978 1.235 . S
C992 C993 1.393 . S
C992 C996 1.395 . S
C992 C999 1.492 . S
C993 C992 1.393 . S
C993 C994 1.392 . S
C993 H1004 0.930 . S
C994 C993 1.392 . S
C994 C995 1.386 . S
C995 C994 1.386 . S
C995 C997 1.395 . S
C995 H1005 0.930 . S
C996 C992 1.395 . S
C996 C997 1.379 . S
C996 H1006 0.930 . S
C997 C995 1.395 . S
C997 C996 1.379 . S
C997 H1007 0.930 . S
C998 O976 1.264 . S
C998 O977 1.254 . S
C999 Eu935 2.848 . S
C999 O974 1.257 . S
C999 O979 1.249 . S
C999 C992 1.492 . S
H1000 C983 0.930 . S
H1001 C984 0.930 . S
H1002 C985 0.930 . S
H1003 C986 0.930 . S
H1004 C993 0.930 . S
H1005 C995 0.930 . S
H1006 C996 0.930 . S
H1007 C997 0.930 . S
Eu1008 N1039 2.657 . S
Eu1008 N1046 2.609 . S
Eu1008 O1052 2.558 . S
Eu1008 O1053 2.612 . S
Eu1008 O1055 2.339 . S
Eu1008 O1056 2.563 . S
Eu1008 O1057 2.419 . S
Eu1008 O1059 2.380 . S
Eu1008 O1060 2.432 . S
Eu1008 C1072 2.848 . S
C1009 C1012 1.429 . S
C1009 C1013 1.411 . S
C1009 N1016 1.377 . S
C1010 C1012 1.420 . S
C1010 C1014 1.423 . S
C1010 C1022 1.392 . S
C1011 C1013 1.420 . S
C1011 C1014 1.351 . S
C1011 H1034 0.931 . S
C1012 C1009 1.429 . S
C1012 C1010 1.420 . S
C1012 N1020 1.362 . S
C1013 C1009 1.411 . S
C1013 C1011 1.420 . S
C1013 C1018 1.395 . S
C1014 C1010 1.423 . S
C1014 C1011 1.351 . S
C1014 H1026 0.930 . S
C1015 C1017 1.400 . S
C1015 C1018 1.386 . S
C1015 H1027 0.930 . S
N1016 C1009 1.377 . S
N1016 C1017 1.321 . S
N1016 Eu1019 2.609 . S
C1017 C1015 1.400 . S
C1017 N1016 1.321 . S
C1017 H1024 0.930 . S
C1018 C1013 1.395 . S
C1018 C1015 1.386 . S
C1018 H1037 0.930 . S
Eu1019 N1016 2.609 . S
Eu1019 N1020 2.657 . S
Eu1019 O1053 2.380 . S
Eu1019 O1054 2.432 . S
Eu1019 O1058 2.558 . S
Eu1019 O1059 2.612 . S
Eu1019 O1061 2.339 . S
Eu1019 O1062 2.563 . S
Eu1019 O1063 2.419 . S
Eu1019 C1083 2.848 . S
N1020 C1012 1.362 . S
N1020 Eu1019 2.657 . S
N1020 C1021 1.334 . S
C1021 N1020 1.334 . S
C1021 C1023 1.413 . S
C1021 H1028 0.929 . S
C1022 C1010 1.392 . S
C1022 C1023 1.367 . S
C1022 H1030 0.930 . S
C1023 C1021 1.413 . S
C1023 C1022 1.367 . S
C1023 H1025 0.930 . S
H1024 C1017 0.930 . S
H1025 C1023 0.930 . S
H1026 C1014 0.930 . S
H1027 C1015 0.930 . S
H1028 C1021 0.929 . S
H1029 C1043 0.930 . S
H1030 C1022 0.930 . S
H1031 C1049 0.930 . S
H1032 C1040 0.929 . S
H1033 C1047 0.930 . S
H1034 C1011 0.931 . S
H1035 C1041 0.930 . S
H1036 C1074 0.930 . S
H1037 C1018 0.930 . S
H1038 C1073 0.931 . S
N1039 Eu1008 2.657 . S
N1039 C1040 1.334 . S
N1039 C1044 1.362 . S
C1040 H1032 0.929 . S
C1040 N1039 1.334 . S
C1040 C1043 1.413 . S
C1041 H1035 0.930 . S
C1041 C1042 1.392 . S
C1041 C1043 1.367 . S
C1042 C1041 1.392 . S
C1042 C1044 1.420 . S
C1042 C1074 1.423 . S
C1043 H1029 0.930 . S
C1043 C1040 1.413 . S
C1043 C1041 1.367 . S
C1044 N1039 1.362 . S
C1044 C1042 1.420 . S
C1044 C1048 1.429 . S
H1045 C1050 0.930 . S
N1046 Eu1008 2.609 . S
N1046 C1048 1.377 . S
N1046 C1049 1.321 . S
C1047 H1033 0.930 . S
C1047 C1049 1.400 . S
C1047 C1050 1.386 . S
C1048 C1044 1.429 . S
C1048 N1046 1.377 . S
C1048 C1051 1.411 . S
C1049 H1031 0.930 . S
C1049 N1046 1.321 . S
C1049 C1047 1.400 . S
C1050 H1045 0.930 . S
C1050 C1047 1.386 . S
C1050 C1051 1.395 . S
C1051 C1048 1.411 . S
C1051 C1050 1.395 . S
C1051 C1073 1.420 . S
O1052 Eu1008 2.558 . S
O1052 C1072 1.257 . S
O1053 Eu1008 2.612 . S
O1053 Eu1019 2.380 . S
O1053 C1064 1.276 . S
O1054 Eu1019 2.432 . S
O1054 C1071 1.264 . S
O1055 Eu1008 2.339 . S
O1055 C1071 1.254 . S
O1056 Eu1008 2.563 . S
O1056 C1064 1.235 . S
O1057 Eu1008 2.419 . S
O1057 C1072 1.249 . S
O1058 Eu1019 2.558 . S
O1058 C1083 1.257 . S
O1059 Eu1008 2.380 . S
O1059 Eu1019 2.612 . S
O1059 C1075 1.276 . S
O1060 Eu1008 2.432 . S
O1060 C1082 1.264 . S
O1061 Eu1019 2.339 . S
O1061 C1082 1.254 . S
O1062 Eu1019 2.563 . S
O1062 C1075 1.235 . S
O1063 Eu1019 2.419 . S
O1063 C1083 1.249 . S
C1064 O1053 1.276 . S
C1064 O1056 1.235 . S
C1065 C1067 1.393 . S
C1065 C1069 1.395 . S
C1065 C1072 1.492 . S
C1066 C1067 1.392 . S
C1066 C1068 1.386 . S
C1067 C1065 1.393 . S
C1067 C1066 1.392 . S
C1067 H1084 0.930 . S
C1068 C1066 1.386 . S
C1068 C1070 1.395 . S
C1068 H1085 0.930 . S
C1069 C1065 1.395 . S
C1069 C1070 1.379 . S
C1069 H1086 0.930 . S
C1070 C1068 1.395 . S
C1070 C1069 1.379 . S
C1070 H1087 0.930 . S
C1071 O1054 1.264 . S
C1071 O1055 1.254 . S
C1072 Eu1008 2.848 . S
C1072 O1052 1.257 . S
C1072 O1057 1.249 . S
C1072 C1065 1.492 . S
C1073 H1038 0.931 . S
C1073 C1051 1.420 . S
C1073 C1074 1.351 . S
C1074 H1036 0.930 . S
C1074 C1042 1.423 . S
C1074 C1073 1.351 . S
C1075 O1059 1.276 . S
C1075 O1062 1.235 . S
C1076 C1077 1.393 . S
C1076 C1080 1.395 . S
C1076 C1083 1.492 . S
C1077 C1076 1.393 . S
C1077 C1078 1.392 . S
C1077 H1088 0.930 . S
C1078 C1077 1.392 . S
C1078 C1079 1.386 . S
C1079 C1078 1.386 . S
C1079 C1081 1.395 . S
C1079 H1089 0.930 . S
C1080 C1076 1.395 . S
C1080 C1081 1.379 . S
C1080 H1090 0.930 . S
C1081 C1079 1.395 . S
C1081 C1080 1.379 . S
C1081 H1091 0.930 . S
C1082 O1060 1.264 . S
C1082 O1061 1.254 . S
C1083 Eu1019 2.848 . S
C1083 O1058 1.257 . S
C1083 O1063 1.249 . S
C1083 C1076 1.492 . S
H1084 C1067 0.930 . S
H1085 C1068 0.930 . S
H1086 C1069 0.930 . S
H1087 C1070 0.930 . S
H1088 C1077 0.930 . S
H1089 C1079 0.930 . S
H1090 C1080 0.930 . S
H1091 C1081 0.930 . S
Eu1092 N1123 2.657 . S
Eu1092 N1130 2.609 . S
Eu1092 O1136 2.558 . S
Eu1092 O1137 2.612 . S
Eu1092 O1139 2.339 . S
Eu1092 O1140 2.563 . S
Eu1092 O1141 2.419 . S
Eu1092 O1143 2.380 . S
Eu1092 O1144 2.432 . S
Eu1092 C1156 2.848 . S
C1093 C1096 1.429 1_565 S
C1093 C1097 1.411 . S
C1093 N1100 1.377 . S
C1094 C1096 1.420 . S
C1094 C1098 1.423 1_545 S
C1094 C1106 1.392 . S
C1095 C1097 1.420 . S
C1095 C1098 1.351 . S
C1095 H1118 0.931 . S
C1096 C1093 1.429 1_545 S
C1096 C1094 1.420 . S
C1096 N1104 1.362 . S
C1097 C1093 1.411 . S
C1097 C1095 1.420 . S
C1097 C1102 1.395 . S
C1098 C1094 1.423 1_565 S
C1098 C1095 1.351 . S
C1098 H1110 0.930 . S
C1099 C1101 1.400 . S
C1099 C1102 1.386 . S
C1099 H1111 0.930 . S
N1100 C1093 1.377 . S
N1100 C1101 1.321 . S
N1100 Eu1103 2.609 1_565 S
C1101 C1099 1.400 . S
C1101 N1100 1.321 . S
C1101 H1108 0.930 . S
C1102 C1097 1.395 . S
C1102 C1099 1.386 . S
C1102 H1121 0.930 . S
Eu1103 N1100 2.609 1_545 S
Eu1103 N1104 2.657 . S
Eu1103 O1137 2.380 . S
Eu1103 O1138 2.432 . S
Eu1103 O1142 2.558 . S
Eu1103 O1143 2.612 . S
Eu1103 O1145 2.339 . S
Eu1103 O1146 2.563 . S
Eu1103 O1147 2.419 . S
Eu1103 C1167 2.848 . S
N1104 C1096 1.362 . S
N1104 Eu1103 2.657 . S
N1104 C1105 1.334 . S
C1105 N1104 1.334 . S
C1105 C1107 1.413 . S
C1105 H1112 0.929 . S
C1106 C1094 1.392 . S
C1106 C1107 1.367 . S
C1106 H1114 0.930 . S
C1107 C1105 1.413 . S
C1107 C1106 1.367 . S
C1107 H1109 0.930 . S
H1108 C1101 0.930 . S
H1109 C1107 0.930 . S
H1110 C1098 0.930 . S
H1111 C1099 0.930 . S
H1112 C1105 0.929 . S
H1113 C1127 0.930 . S
H1114 C1106 0.930 . S
H1115 C1133 0.930 . S
H1116 C1124 0.929 . S
H1117 C1131 0.930 . S
H1118 C1095 0.931 . S
H1119 C1125 0.930 . S
H1120 C1158 0.930 . S
H1121 C1102 0.930 . S
H1122 C1157 0.931 . S
N1123 Eu1092 2.657 . S
N1123 C1124 1.334 . S
N1123 C1128 1.362 . S
C1124 H1116 0.929 . S
C1124 N1123 1.334 . S
C1124 C1127 1.413 . S
C1125 H1119 0.930 . S
C1125 C1126 1.392 . S
C1125 C1127 1.367 . S
C1126 C1125 1.392 . S
C1126 C1128 1.420 . S
C1126 C1158 1.423 . S
C1127 H1113 0.930 . S
C1127 C1124 1.413 . S
C1127 C1125 1.367 . S
C1128 N1123 1.362 . S
C1128 C1126 1.420 . S
C1128 C1132 1.429 . S
H1129 C1134 0.930 . S
N1130 Eu1092 2.609 . S
N1130 C1132 1.377 . S
N1130 C1133 1.321 . S
C1131 H1117 0.930 . S
C1131 C1133 1.400 . S
C1131 C1134 1.386 . S
C1132 C1128 1.429 . S
C1132 N1130 1.377 . S
C1132 C1135 1.411 . S
C1133 H1115 0.930 . S
C1133 N1130 1.321 . S
C1133 C1131 1.400 . S
C1134 H1129 0.930 . S
C1134 C1131 1.386 . S
C1134 C1135 1.395 . S
C1135 C1132 1.411 . S
C1135 C1134 1.395 . S
C1135 C1157 1.420 . S
O1136 Eu1092 2.558 . S
O1136 C1156 1.257 . S
O1137 Eu1092 2.612 . S
O1137 Eu1103 2.380 . S
O1137 C1148 1.276 . S
O1138 Eu1103 2.432 . S
O1138 C1155 1.264 . S
O1139 Eu1092 2.339 . S
O1139 C1155 1.254 . S
O1140 Eu1092 2.563 . S
O1140 C1148 1.235 . S
O1141 Eu1092 2.419 . S
O1141 C1156 1.249 . S
O1142 Eu1103 2.558 . S
O1142 C1167 1.257 . S
O1143 Eu1092 2.380 . S
O1143 Eu1103 2.612 . S
O1143 C1159 1.276 . S
O1144 Eu1092 2.432 . S
O1144 C1166 1.264 . S
O1145 Eu1103 2.339 . S
O1145 C1166 1.254 . S
O1146 Eu1103 2.563 . S
O1146 C1159 1.235 . S
O1147 Eu1103 2.419 . S
O1147 C1167 1.249 . S
C1148 O1137 1.276 . S
C1148 O1140 1.235 . S
C1149 C1151 1.393 . S
C1149 C1153 1.395 . S
C1149 C1156 1.492 . S
C1150 C1151 1.392 . S
C1150 C1152 1.386 . S
C1151 C1149 1.393 . S
C1151 C1150 1.392 . S
C1151 H1168 0.930 . S
C1152 C1150 1.386 . S
C1152 C1154 1.395 . S
C1152 H1169 0.930 . S
C1153 C1149 1.395 . S
C1153 C1154 1.379 . S
C1153 H1170 0.930 . S
C1154 C1152 1.395 . S
C1154 C1153 1.379 . S
C1154 H1171 0.930 . S
C1155 O1138 1.264 . S
C1155 O1139 1.254 . S
C1156 Eu1092 2.848 . S
C1156 O1136 1.257 . S
C1156 O1141 1.249 . S
C1156 C1149 1.492 . S
C1157 H1122 0.931 . S
C1157 C1135 1.420 . S
C1157 C1158 1.351 . S
C1158 H1120 0.930 . S
C1158 C1126 1.423 . S
C1158 C1157 1.351 . S
C1159 O1143 1.276 . S
C1159 O1146 1.235 . S
C1160 C1161 1.393 . S
C1160 C1164 1.395 . S
C1160 C1167 1.492 . S
C1161 C1160 1.393 . S
C1161 C1162 1.392 . S
C1161 H1172 0.930 . S
C1162 C1161 1.392 . S
C1162 C1163 1.386 . S
C1163 C1162 1.386 . S
C1163 C1165 1.395 . S
C1163 H1173 0.930 . S
C1164 C1160 1.395 . S
C1164 C1165 1.379 . S
C1164 H1174 0.930 . S
C1165 C1163 1.395 . S
C1165 C1164 1.379 . S
C1165 H1175 0.930 . S
C1166 O1144 1.264 . S
C1166 O1145 1.254 . S
C1167 Eu1103 2.848 . S
C1167 O1142 1.257 . S
C1167 O1147 1.249 . S
C1167 C1160 1.492 . S
H1168 C1151 0.930 . S
H1169 C1152 0.930 . S
H1170 C1153 0.930 . S
H1171 C1154 0.930 . S
H1172 C1161 0.930 . S
H1173 C1163 0.930 . S
H1174 C1164 0.930 . S
H1175 C1165 0.930 . S
Eu1176 N1207 2.657 . S
Eu1176 N1214 2.609 . S
Eu1176 O1220 2.558 . S
Eu1176 O1221 2.612 . S
Eu1176 O1223 2.339 . S
Eu1176 O1224 2.563 . S
Eu1176 O1225 2.419 . S
Eu1176 O1227 2.380 . S
Eu1176 O1228 2.432 . S
Eu1176 C1240 2.848 . S
C1177 C1180 1.429 . S
C1177 C1181 1.411 . S
C1177 N1184 1.377 . S
C1178 C1180 1.420 . S
C1178 C1182 1.423 . S
C1178 C1190 1.392 . S
C1179 C1181 1.420 . S
C1179 C1182 1.351 . S
C1179 H1202 0.931 . S
C1180 C1177 1.429 . S
C1180 C1178 1.420 . S
C1180 N1188 1.362 . S
C1181 C1177 1.411 . S
C1181 C1179 1.420 . S
C1181 C1186 1.395 . S
C1182 C1178 1.423 . S
C1182 C1179 1.351 . S
C1182 H1194 0.930 . S
C1183 C1185 1.400 . S
C1183 C1186 1.386 . S
C1183 H1195 0.930 . S
N1184 C1177 1.377 . S
N1184 C1185 1.321 . S
N1184 Eu1187 2.609 . S
C1185 C1183 1.400 . S
C1185 N1184 1.321 . S
C1185 H1192 0.930 . S
C1186 C1181 1.395 . S
C1186 C1183 1.386 . S
C1186 H1205 0.930 . S
Eu1187 N1184 2.609 . S
Eu1187 N1188 2.657 . S
Eu1187 O1221 2.380 . S
Eu1187 O1222 2.432 . S
Eu1187 O1226 2.558 . S
Eu1187 O1227 2.612 . S
Eu1187 O1229 2.339 . S
Eu1187 O1230 2.563 . S
Eu1187 O1231 2.419 . S
Eu1187 C1251 2.848 . S
N1188 C1180 1.362 . S
N1188 Eu1187 2.657 . S
N1188 C1189 1.334 . S
C1189 N1188 1.334 . S
C1189 C1191 1.413 . S
C1189 H1196 0.929 . S
C1190 C1178 1.392 . S
C1190 C1191 1.367 . S
C1190 H1198 0.930 . S
C1191 C1189 1.413 . S
C1191 C1190 1.367 . S
C1191 H1193 0.930 . S
H1192 C1185 0.930 . S
H1193 C1191 0.930 . S
H1194 C1182 0.930 . S
H1195 C1183 0.930 . S
H1196 C1189 0.929 . S
H1197 C1211 0.930 . S
H1198 C1190 0.930 . S
H1199 C1217 0.930 . S
H1200 C1208 0.929 . S
H1201 C1215 0.930 . S
H1202 C1179 0.931 . S
H1203 C1209 0.930 . S
H1204 C1242 0.930 . S
H1205 C1186 0.930 . S
H1206 C1241 0.931 . S
N1207 Eu1176 2.657 . S
N1207 C1208 1.334 . S
N1207 C1212 1.362 . S
C1208 H1200 0.929 . S
C1208 N1207 1.334 . S
C1208 C1211 1.413 . S
C1209 H1203 0.930 . S
C1209 C1210 1.392 . S
C1209 C1211 1.367 . S
C1210 C1209 1.392 . S
C1210 C1212 1.420 . S
C1210 C1242 1.423 . S
C1211 H1197 0.930 . S
C1211 C1208 1.413 . S
C1211 C1209 1.367 . S
C1212 N1207 1.362 . S
C1212 C1210 1.420 . S
C1212 C1216 1.429 . S
H1213 C1218 0.930 . S
N1214 Eu1176 2.609 . S
N1214 C1216 1.377 . S
N1214 C1217 1.321 . S
C1215 H1201 0.930 . S
C1215 C1217 1.400 . S
C1215 C1218 1.386 . S
C1216 C1212 1.429 . S
C1216 N1214 1.377 . S
C1216 C1219 1.411 . S
C1217 H1199 0.930 . S
C1217 N1214 1.321 . S
C1217 C1215 1.400 . S
C1218 H1213 0.930 . S
C1218 C1215 1.386 . S
C1218 C1219 1.395 . S
C1219 C1216 1.411 . S
C1219 C1218 1.395 . S
C1219 C1241 1.420 . S
O1220 Eu1176 2.558 . S
O1220 C1240 1.257 . S
O1221 Eu1176 2.612 . S
O1221 Eu1187 2.380 . S
O1221 C1232 1.276 . S
O1222 Eu1187 2.432 . S
O1222 C1239 1.264 . S
O1223 Eu1176 2.339 . S
O1223 C1239 1.254 . S
O1224 Eu1176 2.563 . S
O1224 C1232 1.235 . S
O1225 Eu1176 2.419 . S
O1225 C1240 1.249 . S
O1226 Eu1187 2.558 . S
O1226 C1251 1.257 . S
O1227 Eu1176 2.380 . S
O1227 Eu1187 2.612 . S
O1227 C1243 1.276 . S
O1228 Eu1176 2.432 . S
O1228 C1250 1.264 . S
O1229 Eu1187 2.339 . S
O1229 C1250 1.254 . S
O1230 Eu1187 2.563 . S
O1230 C1243 1.235 . S
O1231 Eu1187 2.419 . S
O1231 C1251 1.249 . S
C1232 O1221 1.276 . S
C1232 O1224 1.235 . S
C1233 C1235 1.393 . S
C1233 C1237 1.395 . S
C1233 C1240 1.492 . S
C1234 C1235 1.392 . S
C1234 C1236 1.386 . S
C1235 C1233 1.393 . S
C1235 C1234 1.392 . S
C1235 H1252 0.930 . S
C1236 C1234 1.386 . S
C1236 C1238 1.395 . S
C1236 H1253 0.930 . S
C1237 C1233 1.395 . S
C1237 C1238 1.379 . S
C1237 H1254 0.930 . S
C1238 C1236 1.395 . S
C1238 C1237 1.379 . S
C1238 H1255 0.930 . S
C1239 O1222 1.264 . S
C1239 O1223 1.254 . S
C1240 Eu1176 2.848 . S
C1240 O1220 1.257 . S
C1240 O1225 1.249 . S
C1240 C1233 1.492 . S
C1241 H1206 0.931 . S
C1241 C1219 1.420 . S
C1241 C1242 1.351 . S
C1242 H1204 0.930 . S
C1242 C1210 1.423 . S
C1242 C1241 1.351 . S
C1243 O1227 1.276 . S
C1243 O1230 1.235 . S
C1244 C1245 1.393 . S
C1244 C1248 1.395 . S
C1244 C1251 1.492 . S
C1245 C1244 1.393 . S
C1245 C1246 1.392 . S
C1245 H1256 0.930 . S
C1246 C1245 1.392 . S
C1246 C1247 1.386 . S
C1247 C1246 1.386 . S
C1247 C1249 1.395 . S
C1247 H1257 0.930 . S
C1248 C1244 1.395 . S
C1248 C1249 1.379 . S
C1248 H1258 0.930 . S
C1249 C1247 1.395 . S
C1249 C1248 1.379 . S
C1249 H1259 0.930 . S
C1250 O1228 1.264 . S
C1250 O1229 1.254 . S
C1251 Eu1187 2.848 . S
C1251 O1226 1.257 . S
C1251 O1231 1.249 . S
C1251 C1244 1.492 . S
H1252 C1235 0.930 . S
H1253 C1236 0.930 . S
H1254 C1237 0.930 . S
H1255 C1238 0.930 . S
H1256 C1245 0.930 . S
H1257 C1247 0.930 . S
H1258 C1248 0.930 . S
H1259 C1249 0.930 . S
Eu1260 N1291 2.657 . S
Eu1260 N1298 2.609 . S
Eu1260 O1304 2.558 . S
Eu1260 O1305 2.612 . S
Eu1260 O1307 2.339 . S
Eu1260 O1308 2.563 . S
Eu1260 O1309 2.419 . S
Eu1260 O1311 2.380 . S
Eu1260 O1312 2.432 . S
Eu1260 C1324 2.848 . S
C1261 C1264 1.429 1_545 S
C1261 C1265 1.411 . S
C1261 N1268 1.377 1_455 S
C1262 C1264 1.420 . S
C1262 C1266 1.423 1_565 S
C1262 C1274 1.392 . S
C1263 C1265 1.420 . S
C1263 C1266 1.351 . S
C1263 H1286 0.931 . S
C1264 C1261 1.429 1_565 S
C1264 C1262 1.420 . S
C1264 N1272 1.362 . S
C1265 C1261 1.411 . S
C1265 C1263 1.420 . S
C1265 C1270 1.395 . S
C1266 C1262 1.423 1_545 S
C1266 C1263 1.351 . S
C1266 H1278 0.930 . S
C1267 C1269 1.400 1_455 S
C1267 C1270 1.386 . S
C1267 H1279 0.930 1_455 S
N1268 C1261 1.377 1_655 S
N1268 C1269 1.321 . S
N1268 Eu1271 2.609 1_545 S
C1269 C1267 1.400 1_655 S
C1269 N1268 1.321 . S
C1269 H1276 0.930 . S
C1270 C1265 1.395 . S
C1270 C1267 1.386 . S
C1270 H1289 0.930 . S
Eu1271 N1268 2.609 1_565 S
Eu1271 N1272 2.657 1_655 S
Eu1271 O1305 2.380 . S
Eu1271 O1306 2.432 . S
Eu1271 O1310 2.563 . S
Eu1271 O1311 2.612 . S
Eu1271 O1313 2.339 . S
Eu1271 O1314 2.563 . S
Eu1271 O1315 2.419 1_655 S
Eu1271 C1335 2.848 1_655 S
N1272 C1264 1.362 . S
N1272 Eu1271 2.657 1_455 S
N1272 C1273 1.334 . S
C1273 N1272 1.334 . S
C1273 C1275 1.413 . S
C1273 H1280 0.929 . S
C1274 C1262 1.392 . S
C1274 C1275 1.367 . S
C1274 H1282 0.930 . S
C1275 C1273 1.413 . S
C1275 C1274 1.367 . S
C1275 H1277 0.930 . S
H1276 C1269 0.930 . S
H1277 C1275 0.930 . S
H1278 C1266 0.930 . S
H1279 C1267 0.930 1_655 S
H1280 C1273 0.929 . S
H1281 C1295 0.930 . S
H1282 C1274 0.930 . S
H1283 C1301 0.930 . S
H1284 C1292 0.929 . S
H1285 C1299 0.930 . S
H1286 C1263 0.931 . S
H1287 C1293 0.930 . S
H1288 C1326 0.930 . S
H1289 C1270 0.930 . S
H1290 C1325 0.931 . S
N1291 Eu1260 2.657 . S
N1291 C1292 1.334 . S
N1291 C1296 1.362 . S
C1292 H1284 0.929 . S
C1292 N1291 1.334 . S
C1292 C1295 1.413 . S
C1293 H1287 0.930 . S
C1293 C1294 1.392 . S
C1293 C1295 1.367 . S
C1294 C1293 1.392 . S
C1294 C1296 1.420 . S
C1294 C1326 1.423 . S
C1295 H1281 0.930 . S
C1295 C1292 1.413 . S
C1295 C1293 1.367 . S
C1296 N1291 1.362 . S
C1296 C1294 1.420 . S
C1296 C1300 1.429 . S
H1297 C1302 0.930 . S
N1298 Eu1260 2.609 . S
N1298 C1300 1.377 . S
N1298 C1301 1.321 . S
C1299 H1285 0.930 . S
C1299 C1301 1.400 . S
C1299 C1302 1.386 . S
C1300 C1296 1.429 . S
C1300 N1298 1.377 . S
C1300 C1303 1.411 . S
C1301 H1283 0.930 . S
C1301 N1298 1.321 . S
C1301 C1299 1.400 . S
C1302 H1297 0.930 . S
C1302 C1299 1.386 . S
C1302 C1303 1.395 . S
C1303 C1300 1.411 . S
C1303 C1302 1.395 . S
C1303 C1325 1.420 . S
O1304 Eu1260 2.558 . S
O1304 C1324 1.257 . S
O1305 Eu1260 2.612 . S
O1305 Eu1271 2.380 . S
O1305 C1316 1.276 . S
O1306 Eu1271 2.432 . S
O1306 C1323 1.264 . S
O1307 Eu1260 2.339 . S
O1307 C1323 1.254 . S
O1308 Eu1260 2.563 . S
O1308 C1316 1.235 . S
O1309 Eu1260 2.419 . S
O1309 C1324 1.249 . S
O1310 Eu1271 2.563 . S
O1310 C1335 1.248 1_655 S
O1311 Eu1260 2.380 . S
O1311 Eu1271 2.612 . S
O1311 C1327 1.276 . S
O1312 Eu1260 2.432 . S
O1312 C1334 1.264 . S
O1313 Eu1271 2.339 . S
O1313 C1334 1.254 . S
O1314 Eu1271 2.563 . S
O1314 C1327 1.235 . S
O1315 Eu1271 2.419 1_455 S
O1315 C1335 1.249 . S
C1316 O1305 1.276 . S
C1316 O1308 1.235 . S
C1317 C1319 1.393 . S
C1317 C1321 1.395 . S
C1317 C1324 1.492 . S
C1318 C1319 1.392 . S
C1318 C1320 1.386 . S
C1319 C1317 1.393 . S
C1319 C1318 1.392 . S
C1319 H1336 0.930 . S
C1320 C1318 1.386 . S
C1320 C1322 1.395 . S
C1320 H1337 0.930 . S
C1321 C1317 1.395 . S
C1321 C1322 1.379 . S
C1321 H1338 0.930 . S
C1322 C1320 1.395 . S
C1322 C1321 1.379 . S
C1322 H1339 0.930 . S
C1323 O1306 1.264 . S
C1323 O1307 1.254 . S
C1324 Eu1260 2.848 . S
C1324 O1304 1.257 . S
C1324 O1309 1.249 . S
C1324 C1317 1.492 . S
C1325 H1290 0.931 . S
C1325 C1303 1.420 . S
C1325 C1326 1.351 . S
C1326 H1288 0.930 . S
C1326 C1294 1.423 . S
C1326 C1325 1.351 . S
C1327 O1311 1.276 . S
C1327 O1314 1.235 . S
C1328 C1329 1.393 . S
C1328 C1332 1.395 . S
C1328 C1335 1.492 . S
C1329 C1328 1.393 . S
C1329 C1330 1.392 . S
C1329 H1340 0.930 . S
C1330 C1329 1.392 . S
C1330 C1331 1.386 . S
C1331 C1330 1.386 . S
C1331 C1333 1.395 . S
C1331 H1341 0.930 . S
C1332 C1328 1.395 . S
C1332 C1333 1.379 . S
C1332 H1342 0.930 . S
C1333 C1331 1.395 . S
C1333 C1332 1.379 . S
C1333 H1343 0.930 . S
C1334 O1312 1.264 . S
C1334 O1313 1.254 . S
C1335 Eu1271 2.848 1_455 S
C1335 O1310 1.248 1_455 S
C1335 O1315 1.249 . S
C1335 C1328 1.492 . S
H1336 C1319 0.930 . S
H1337 C1320 0.930 . S
H1338 C1321 0.930 . S
H1339 C1322 0.930 . S
H1340 C1329 0.930 . S
H1341 C1331 0.930 . S
H1342 C1332 0.930 . S
H1343 C1333 0.930 . S
Eu1344 N1375 2.657 . S
Eu1344 N1382 2.609 . S
Eu1344 O1388 2.558 . S
Eu1344 O1389 2.612 . S
Eu1344 O1391 2.339 . S
Eu1344 O1392 2.563 . S
Eu1344 O1393 2.419 . S
Eu1344 O1395 2.380 . S
Eu1344 O1396 2.432 . S
Eu1344 C1408 2.848 . S
C1345 C1348 1.429 . S
C1345 C1349 1.411 . S
C1345 N1352 1.377 . S
C1346 C1348 1.420 . S
C1346 C1350 1.423 . S
C1346 C1358 1.392 . S
C1347 C1349 1.420 . S
C1347 C1350 1.351 . S
C1347 H1370 0.931 . S
C1348 C1345 1.429 . S
C1348 C1346 1.420 . S
C1348 N1356 1.362 . S
C1349 C1345 1.411 . S
C1349 C1347 1.420 . S
C1349 C1354 1.395 . S
C1350 C1346 1.423 . S
C1350 C1347 1.351 . S
C1350 H1362 0.930 . S
C1351 C1353 1.400 . S
C1351 C1354 1.386 . S
C1351 H1363 0.930 . S
N1352 C1345 1.377 . S
N1352 C1353 1.321 . S
N1352 Eu1355 2.609 . S
C1353 C1351 1.400 . S
C1353 N1352 1.321 . S
C1353 H1360 0.930 . S
C1354 C1349 1.395 . S
C1354 C1351 1.386 . S
C1354 H1373 0.930 . S
Eu1355 N1352 2.609 . S
Eu1355 N1356 2.657 . S
Eu1355 O1389 2.380 . S
Eu1355 O1390 2.432 . S
Eu1355 O1394 2.558 . S
Eu1355 O1395 2.612 . S
Eu1355 O1397 2.339 . S
Eu1355 O1398 2.563 . S
Eu1355 O1399 2.419 . S
Eu1355 C1419 2.848 . S
N1356 C1348 1.362 . S
N1356 Eu1355 2.657 . S
N1356 C1357 1.334 . S
C1357 N1356 1.334 . S
C1357 C1359 1.413 . S
C1357 H1364 0.929 . S
C1358 C1346 1.392 . S
C1358 C1359 1.367 . S
C1358 H1366 0.930 . S
C1359 C1357 1.413 . S
C1359 C1358 1.367 . S
C1359 H1361 0.930 . S
H1360 C1353 0.930 . S
H1361 C1359 0.930 . S
H1362 C1350 0.930 . S
H1363 C1351 0.930 . S
H1364 C1357 0.929 . S
H1365 C1379 0.930 . S
H1366 C1358 0.930 . S
H1367 C1385 0.930 . S
H1368 C1376 0.929 . S
H1369 C1383 0.930 . S
H1370 C1347 0.931 . S
H1371 C1377 0.930 . S
H1372 C1410 0.930 . S
H1373 C1354 0.930 . S
H1374 C1409 0.931 . S
N1375 Eu1344 2.657 . S
N1375 C1376 1.334 . S
N1375 C1380 1.362 . S
C1376 H1368 0.929 . S
C1376 N1375 1.334 . S
C1376 C1379 1.413 . S
C1377 H1371 0.930 . S
C1377 C1378 1.392 . S
C1377 C1379 1.367 . S
C1378 C1377 1.392 . S
C1378 C1380 1.420 . S
C1378 C1410 1.423 . S
C1379 H1365 0.930 . S
C1379 C1376 1.413 . S
C1379 C1377 1.367 . S
C1380 N1375 1.362 . S
C1380 C1378 1.420 . S
C1380 C1384 1.429 . S
H1381 C1386 0.930 . S
N1382 Eu1344 2.609 . S
N1382 C1384 1.377 . S
N1382 C1385 1.321 . S
C1383 H1369 0.930 . S
C1383 C1385 1.400 . S
C1383 C1386 1.386 . S
C1384 C1380 1.429 . S
C1384 N1382 1.377 . S
C1384 C1387 1.411 . S
C1385 H1367 0.930 . S
C1385 N1382 1.321 . S
C1385 C1383 1.400 . S
C1386 H1381 0.930 . S
C1386 C1383 1.386 . S
C1386 C1387 1.395 . S
C1387 C1384 1.411 . S
C1387 C1386 1.395 . S
C1387 C1409 1.420 . S
O1388 Eu1344 2.558 . S
O1388 C1408 1.257 . S
O1389 Eu1344 2.612 . S
O1389 Eu1355 2.380 . S
O1389 C1400 1.276 . S
O1390 Eu1355 2.432 . S
O1390 C1407 1.264 . S
O1391 Eu1344 2.339 . S
O1391 C1407 1.254 . S
O1392 Eu1344 2.563 . S
O1392 C1400 1.235 . S
O1393 Eu1344 2.419 . S
O1393 C1408 1.249 . S
O1394 Eu1355 2.558 . S
O1394 C1419 1.257 . S
O1395 Eu1344 2.380 . S
O1395 Eu1355 2.612 . S
O1395 C1411 1.276 . S
O1396 Eu1344 2.432 . S
O1396 C1418 1.264 . S
O1397 Eu1355 2.339 . S
O1397 C1418 1.254 . S
O1398 Eu1355 2.563 . S
O1398 C1411 1.235 . S
O1399 Eu1355 2.419 . S
O1399 C1419 1.249 . S
C1400 O1389 1.276 . S
C1400 O1392 1.235 . S
C1401 C1403 1.393 . S
C1401 C1405 1.395 . S
C1401 C1408 1.492 . S
C1402 C1403 1.392 . S
C1402 C1404 1.386 . S
C1403 C1401 1.393 . S
C1403 C1402 1.392 . S
C1403 H1420 0.930 . S
C1404 C1402 1.386 . S
C1404 C1406 1.395 . S
C1404 H1421 0.930 . S
C1405 C1401 1.395 . S
C1405 C1406 1.379 . S
C1405 H1422 0.930 . S
C1406 C1404 1.395 . S
C1406 C1405 1.379 . S
C1406 H1423 0.930 . S
C1407 O1390 1.264 . S
C1407 O1391 1.254 . S
C1408 Eu1344 2.848 . S
C1408 O1388 1.257 . S
C1408 O1393 1.249 . S
C1408 C1401 1.492 . S
C1409 H1374 0.931 . S
C1409 C1387 1.420 . S
C1409 C1410 1.351 . S
C1410 H1372 0.930 . S
C1410 C1378 1.423 . S
C1410 C1409 1.351 . S
C1411 O1395 1.276 . S
C1411 O1398 1.235 . S
C1412 C1413 1.393 . S
C1412 C1416 1.395 . S
C1412 C1419 1.492 . S
C1413 C1412 1.393 . S
C1413 C1414 1.392 . S
C1413 H1424 0.930 . S
C1414 C1413 1.392 . S
C1414 C1415 1.386 . S
C1415 C1414 1.386 . S
C1415 C1417 1.395 . S
C1415 H1425 0.930 . S
C1416 C1412 1.395 . S
C1416 C1417 1.379 . S
C1416 H1426 0.930 . S
C1417 C1415 1.395 . S
C1417 C1416 1.379 . S
C1417 H1427 0.930 . S
C1418 O1396 1.264 . S
C1418 O1397 1.254 . S
C1419 Eu1355 2.848 . S
C1419 O1394 1.257 . S
C1419 O1399 1.249 . S
C1419 C1412 1.492 . S
H1420 C1403 0.930 . S
H1421 C1404 0.930 . S
H1422 C1405 0.930 . S
H1423 C1406 0.930 . S
H1424 C1413 0.930 . S
H1425 C1415 0.930 . S
H1426 C1416 0.930 . S
H1427 C1417 0.930 . S
Eu1428 N1459 2.657 . S
Eu1428 N1466 2.609 . S
Eu1428 O1472 2.558 . S
Eu1428 O1473 2.612 . S
Eu1428 O1475 2.339 . S
Eu1428 O1476 2.563 . S
Eu1428 O1477 2.419 . S
Eu1428 O1479 2.380 . S
Eu1428 O1480 2.432 . S
Eu1428 C1492 2.848 . S
C1429 C1432 1.429 . S
C1429 C1433 1.411 . S
C1429 N1436 1.377 . S
C1430 C1432 1.420 . S
C1430 C1434 1.423 . S
C1430 C1442 1.392 . S
C1431 C1433 1.420 . S
C1431 C1434 1.351 . S
C1431 H1454 0.931 . S
C1432 C1429 1.429 . S
C1432 C1430 1.420 . S
C1432 N1440 1.362 . S
C1433 C1429 1.411 . S
C1433 C1431 1.420 . S
C1433 C1438 1.395 . S
C1434 C1430 1.423 . S
C1434 C1431 1.351 . S
C1434 H1446 0.930 . S
C1435 C1437 1.400 . S
C1435 C1438 1.386 . S
C1435 H1447 0.930 . S
N1436 C1429 1.377 . S
N1436 C1437 1.321 . S
N1436 Eu1439 2.609 . S
C1437 C1435 1.400 . S
C1437 N1436 1.321 . S
C1437 H1444 0.930 . S
C1438 C1433 1.395 . S
C1438 C1435 1.386 . S
C1438 H1457 0.930 . S
Eu1439 N1436 2.609 . S
Eu1439 N1440 2.657 . S
Eu1439 O1473 2.380 . S
Eu1439 O1474 2.432 . S
Eu1439 O1478 2.558 . S
Eu1439 O1479 2.612 . S
Eu1439 O1481 2.339 . S
Eu1439 O1482 2.563 . S
Eu1439 O1483 2.419 . S
Eu1439 C1503 2.848 . S
N1440 C1432 1.362 . S
N1440 Eu1439 2.657 . S
N1440 C1441 1.334 . S
C1441 N1440 1.334 . S
C1441 C1443 1.413 . S
C1441 H1448 0.929 . S
C1442 C1430 1.392 . S
C1442 C1443 1.367 . S
C1442 H1450 0.930 . S
C1443 C1441 1.413 . S
C1443 C1442 1.367 . S
C1443 H1445 0.930 . S
H1444 C1437 0.930 . S
H1445 C1443 0.930 . S
H1446 C1434 0.930 . S
H1447 C1435 0.930 . S
H1448 C1441 0.929 . S
H1449 C1463 0.930 . S
H1450 C1442 0.930 . S
H1451 C1469 0.930 . S
H1452 C1460 0.929 . S
H1453 C1467 0.930 . S
H1454 C1431 0.931 . S
H1455 C1461 0.930 . S
H1456 C1494 0.930 . S
H1457 C1438 0.930 . S
H1458 C1493 0.931 . S
N1459 Eu1428 2.657 . S
N1459 C1460 1.334 . S
N1459 C1464 1.362 . S
C1460 H1452 0.929 . S
C1460 N1459 1.334 . S
C1460 C1463 1.413 . S
C1461 H1455 0.930 . S
C1461 C1462 1.392 . S
C1461 C1463 1.367 . S
C1462 C1461 1.392 . S
C1462 C1464 1.420 . S
C1462 C1494 1.423 . S
C1463 H1449 0.930 . S
C1463 C1460 1.413 . S
C1463 C1461 1.367 . S
C1464 N1459 1.362 . S
C1464 C1462 1.420 . S
C1464 C1468 1.429 . S
H1465 C1470 0.930 . S
N1466 Eu1428 2.609 . S
N1466 C1468 1.377 . S
N1466 C1469 1.321 . S
C1467 H1453 0.930 . S
C1467 C1469 1.400 . S
C1467 C1470 1.386 . S
C1468 C1464 1.429 . S
C1468 N1466 1.377 . S
C1468 C1471 1.411 . S
C1469 H1451 0.930 . S
C1469 N1466 1.321 . S
C1469 C1467 1.400 . S
C1470 H1465 0.930 . S
C1470 C1467 1.386 . S
C1470 C1471 1.395 . S
C1471 C1468 1.411 . S
C1471 C1470 1.395 . S
C1471 C1493 1.420 . S
O1472 Eu1428 2.558 . S
O1472 C1492 1.257 . S
O1473 Eu1428 2.612 . S
O1473 Eu1439 2.380 . S
O1473 C1484 1.276 . S
O1474 Eu1439 2.432 . S
O1474 C1491 1.264 . S
O1475 Eu1428 2.339 . S
O1475 C1491 1.254 . S
O1476 Eu1428 2.563 . S
O1476 C1484 1.235 . S
O1477 Eu1428 2.419 . S
O1477 C1492 1.249 . S
O1478 Eu1439 2.558 . S
O1478 C1503 1.257 . S
O1479 Eu1428 2.380 . S
O1479 Eu1439 2.612 . S
O1479 C1495 1.276 . S
O1480 Eu1428 2.432 . S
O1480 C1502 1.264 . S
O1481 Eu1439 2.339 . S
O1481 C1502 1.254 . S
O1482 Eu1439 2.563 . S
O1482 C1495 1.235 . S
O1483 Eu1439 2.419 . S
O1483 C1503 1.249 . S
C1484 O1473 1.276 . S
C1484 O1476 1.235 . S
C1485 C1487 1.393 . S
C1485 C1489 1.395 . S
C1485 C1492 1.492 . S
C1486 C1487 1.392 . S
C1486 C1488 1.386 . S
C1487 C1485 1.393 . S
C1487 C1486 1.392 . S
C1487 H1504 0.930 . S
C1488 C1486 1.386 . S
C1488 C1490 1.395 . S
C1488 H1505 0.930 . S
C1489 C1485 1.395 . S
C1489 C1490 1.379 . S
C1489 H1506 0.930 . S
C1490 C1488 1.395 . S
C1490 C1489 1.379 . S
C1490 H1507 0.930 . S
C1491 O1474 1.264 . S
C1491 O1475 1.254 . S
C1492 Eu1428 2.848 . S
C1492 O1472 1.257 . S
C1492 O1477 1.249 . S
C1492 C1485 1.492 . S
C1493 H1458 0.931 . S
C1493 C1471 1.420 . S
C1493 C1494 1.351 . S
C1494 H1456 0.930 . S
C1494 C1462 1.423 . S
C1494 C1493 1.351 . S
C1495 O1479 1.276 . S
C1495 O1482 1.235 . S
C1496 C1497 1.393 . S
C1496 C1500 1.395 . S
C1496 C1503 1.492 . S
C1497 C1496 1.393 . S
C1497 C1498 1.392 . S
C1497 H1508 0.930 . S
C1498 C1497 1.392 . S
C1498 C1499 1.386 . S
C1499 C1498 1.386 . S
C1499 C1501 1.395 . S
C1499 H1509 0.930 . S
C1500 C1496 1.395 . S
C1500 C1501 1.379 . S
C1500 H1510 0.930 . S
C1501 C1499 1.395 . S
C1501 C1500 1.379 . S
C1501 H1511 0.930 . S
C1502 O1480 1.264 . S
C1502 O1481 1.254 . S
C1503 Eu1439 2.848 . S
C1503 O1478 1.257 . S
C1503 O1483 1.249 . S
C1503 C1496 1.492 . S
H1504 C1487 0.930 . S
H1505 C1488 0.930 . S
H1506 C1489 0.930 . S
H1507 C1490 0.930 . S
H1508 C1497 0.930 . S
H1509 C1499 0.930 . S
H1510 C1500 0.930 . S
H1511 C1501 0.930 . S
Eu1512 N1543 2.657 . S
Eu1512 N1550 2.609 . S
Eu1512 O1556 2.558 . S
Eu1512 O1557 2.612 . S
Eu1512 O1559 2.339 . S
Eu1512 O1560 2.563 . S
Eu1512 O1561 2.419 . S
Eu1512 O1563 2.380 . S
Eu1512 O1564 2.432 . S
Eu1512 C1576 2.848 . S
C1513 C1516 1.429 . S
C1513 C1517 1.411 . S
C1513 N1520 1.377 . S
C1514 C1516 1.420 . S
C1514 C1518 1.423 . S
C1514 C1526 1.392 . S
C1515 C1517 1.420 . S
C1515 C1518 1.351 . S
C1515 H1538 0.931 . S
C1516 C1513 1.429 . S
C1516 C1514 1.420 . S
C1516 N1524 1.362 . S
C1517 C1513 1.411 . S
C1517 C1515 1.420 . S
C1517 C1522 1.395 . S
C1518 C1514 1.423 . S
C1518 C1515 1.351 . S
C1518 H1530 0.930 . S
C1519 C1521 1.400 . S
C1519 C1522 1.386 . S
C1519 H1531 0.930 . S
N1520 C1513 1.377 . S
N1520 C1521 1.321 . S
N1520 Eu1523 2.609 . S
C1521 C1519 1.400 . S
C1521 N1520 1.321 . S
C1521 H1528 0.930 . S
C1522 C1517 1.395 . S
C1522 C1519 1.386 . S
C1522 H1541 0.930 . S
Eu1523 N1520 2.609 . S
Eu1523 N1524 2.657 . S
Eu1523 O1557 2.380 . S
Eu1523 O1558 2.432 . S
Eu1523 O1562 2.558 . S
Eu1523 O1563 2.612 . S
Eu1523 O1565 2.339 . S
Eu1523 O1566 2.563 . S
Eu1523 O1567 2.419 . S
Eu1523 C1587 2.848 . S
N1524 C1516 1.362 . S
N1524 Eu1523 2.657 . S
N1524 C1525 1.334 . S
C1525 N1524 1.334 . S
C1525 C1527 1.413 . S
C1525 H1532 0.929 . S
C1526 C1514 1.392 . S
C1526 C1527 1.367 . S
C1526 H1534 0.930 . S
C1527 C1525 1.413 . S
C1527 C1526 1.367 . S
C1527 H1529 0.930 . S
H1528 C1521 0.930 . S
H1529 C1527 0.930 . S
H1530 C1518 0.930 . S
H1531 C1519 0.930 . S
H1532 C1525 0.929 . S
H1533 C1547 0.930 . S
H1534 C1526 0.930 . S
H1535 C1553 0.930 . S
H1536 C1544 0.929 . S
H1537 C1551 0.930 . S
H1538 C1515 0.931 . S
H1539 C1545 0.930 . S
H1540 C1578 0.930 . S
H1541 C1522 0.930 . S
H1542 C1577 0.931 . S
N1543 Eu1512 2.657 . S
N1543 C1544 1.334 . S
N1543 C1548 1.362 . S
C1544 H1536 0.929 . S
C1544 N1543 1.334 . S
C1544 C1547 1.413 . S
C1545 H1539 0.930 . S
C1545 C1546 1.392 . S
C1545 C1547 1.367 . S
C1546 C1545 1.392 . S
C1546 C1548 1.420 . S
C1546 C1578 1.423 . S
C1547 H1533 0.930 . S
C1547 C1544 1.413 . S
C1547 C1545 1.367 . S
C1548 N1543 1.362 . S
C1548 C1546 1.420 . S
C1548 C1552 1.429 . S
H1549 C1554 0.930 . S
N1550 Eu1512 2.609 . S
N1550 C1552 1.377 . S
N1550 C1553 1.321 . S
C1551 H1537 0.930 . S
C1551 C1553 1.400 . S
C1551 C1554 1.386 . S
C1552 C1548 1.429 . S
C1552 N1550 1.377 . S
C1552 C1555 1.411 . S
C1553 H1535 0.930 . S
C1553 N1550 1.321 . S
C1553 C1551 1.400 . S
C1554 H1549 0.930 . S
C1554 C1551 1.386 . S
C1554 C1555 1.395 . S
C1555 C1552 1.411 . S
C1555 C1554 1.395 . S
C1555 C1577 1.420 . S
O1556 Eu1512 2.558 . S
O1556 C1576 1.257 . S
O1557 Eu1512 2.612 . S
O1557 Eu1523 2.380 . S
O1557 C1568 1.276 . S
O1558 Eu1523 2.432 . S
O1558 C1575 1.264 . S
O1559 Eu1512 2.339 . S
O1559 C1575 1.254 . S
O1560 Eu1512 2.563 . S
O1560 C1568 1.235 . S
O1561 Eu1512 2.419 . S
O1561 C1576 1.249 . S
O1562 Eu1523 2.558 . S
O1562 C1587 1.257 . S
O1563 Eu1512 2.380 . S
O1563 Eu1523 2.612 . S
O1563 C1579 1.276 . S
O1564 Eu1512 2.432 . S
O1564 C1586 1.264 . S
O1565 Eu1523 2.339 . S
O1565 C1586 1.254 . S
O1566 Eu1523 2.563 . S
O1566 C1579 1.235 . S
O1567 Eu1523 2.419 . S
O1567 C1587 1.249 . S
C1568 O1557 1.276 . S
C1568 O1560 1.235 . S
C1569 C1571 1.393 . S
C1569 C1573 1.395 . S
C1569 C1576 1.492 . S
C1570 C1571 1.392 . S
C1570 C1572 1.386 . S
C1571 C1569 1.393 . S
C1571 C1570 1.392 . S
C1571 H1588 0.930 . S
C1572 C1570 1.386 . S
C1572 C1574 1.395 . S
C1572 H1589 0.930 . S
C1573 C1569 1.395 . S
C1573 C1574 1.379 . S
C1573 H1590 0.930 . S
C1574 C1572 1.395 . S
C1574 C1573 1.379 . S
C1574 H1591 0.930 . S
C1575 O1558 1.264 . S
C1575 O1559 1.254 . S
C1576 Eu1512 2.848 . S
C1576 O1556 1.257 . S
C1576 O1561 1.249 . S
C1576 C1569 1.492 . S
C1577 H1542 0.931 . S
C1577 C1555 1.420 . S
C1577 C1578 1.351 . S
C1578 H1540 0.930 . S
C1578 C1546 1.423 . S
C1578 C1577 1.351 . S
C1579 O1563 1.276 . S
C1579 O1566 1.235 . S
C1580 C1581 1.393 . S
C1580 C1584 1.395 . S
C1580 C1587 1.492 . S
C1581 C1580 1.393 . S
C1581 C1582 1.392 . S
C1581 H1592 0.930 . S
C1582 C1581 1.392 . S
C1582 C1583 1.386 . S
C1583 C1582 1.386 . S
C1583 C1585 1.395 . S
C1583 H1593 0.930 . S
C1584 C1580 1.395 . S
C1584 C1585 1.379 . S
C1584 H1594 0.930 . S
C1585 C1583 1.395 . S
C1585 C1584 1.379 . S
C1585 H1595 0.930 . S
C1586 O1564 1.264 . S
C1586 O1565 1.254 . S
C1587 Eu1523 2.848 . S
C1587 O1562 1.257 . S
C1587 O1567 1.249 . S
C1587 C1580 1.492 . S
H1588 C1571 0.930 . S
H1589 C1572 0.930 . S
H1590 C1573 0.930 . S
H1591 C1574 0.930 . S
H1592 C1581 0.930 . S
H1593 C1583 0.930 . S
H1594 C1584 0.930 . S
H1595 C1585 0.930 . S
Eu1596 N1627 2.657 1_655 S
Eu1596 N1634 2.609 . S
Eu1596 O1640 2.563 . S
Eu1596 O1641 2.612 . S
Eu1596 O1643 2.339 . S
Eu1596 O1644 2.563 . S
Eu1596 O1645 2.419 1_655 S
Eu1596 O1647 2.380 . S
Eu1596 O1648 2.432 . S
Eu1596 C1660 2.848 1_655 S
C1597 C1600 1.429 . S
C1597 C1601 1.411 . S
C1597 N1604 1.377 . S
C1598 C1600 1.420 . S
C1598 C1602 1.423 . S
C1598 C1610 1.392 . S
C1599 C1601 1.420 . S
C1599 C1602 1.351 . S
C1599 H1622 0.931 . S
C1600 C1597 1.429 . S
C1600 C1598 1.420 . S
C1600 N1608 1.362 . S
C1601 C1597 1.411 . S
C1601 C1599 1.420 . S
C1601 C1606 1.395 . S
C1602 C1598 1.423 . S
C1602 C1599 1.351 . S
C1602 H1614 0.930 . S
C1603 C1605 1.400 . S
C1603 C1606 1.386 . S
C1603 H1615 0.930 . S
N1604 C1597 1.377 . S
N1604 C1605 1.321 . S
N1604 Eu1607 2.609 . S
C1605 C1603 1.400 . S
C1605 N1604 1.321 . S
C1605 H1612 0.930 . S
C1606 C1601 1.395 . S
C1606 C1603 1.386 . S
C1606 H1625 0.930 . S
Eu1607 N1604 2.609 . S
Eu1607 N1608 2.657 . S
Eu1607 O1641 2.380 . S
Eu1607 O1642 2.432 . S
Eu1607 O1646 2.558 . S
Eu1607 O1647 2.612 . S
Eu1607 O1649 2.339 . S
Eu1607 O1650 2.563 . S
Eu1607 O1651 2.419 . S
Eu1607 C1671 2.848 . S
N1608 C1600 1.362 . S
N1608 Eu1607 2.657 . S
N1608 C1609 1.334 . S
C1609 N1608 1.334 . S
C1609 C1611 1.413 . S
C1609 H1616 0.929 . S
C1610 C1598 1.392 . S
C1610 C1611 1.367 . S
C1610 H1618 0.930 . S
C1611 C1609 1.413 . S
C1611 C1610 1.367 . S
C1611 H1613 0.930 . S
H1612 C1605 0.930 . S
H1613 C1611 0.930 . S
H1614 C1602 0.930 . S
H1615 C1603 0.930 . S
H1616 C1609 0.929 . S
H1617 C1631 0.930 . S
H1618 C1610 0.930 . S
H1619 C1637 0.930 . S
H1620 C1628 0.929 . S
H1621 C1635 0.930 1_655 S
H1622 C1599 0.931 . S
H1623 C1629 0.930 . S
H1624 C1662 0.930 . S
H1625 C1606 0.930 . S
H1626 C1661 0.931 . S
N1627 Eu1596 2.657 1_455 S
N1627 C1628 1.334 . S
N1627 C1632 1.362 . S
C1628 H1620 0.929 . S
C1628 N1627 1.334 . S
C1628 C1631 1.413 . S
C1629 H1623 0.930 . S
C1629 C1630 1.392 . S
C1629 C1631 1.367 . S
C1630 C1629 1.392 . S
C1630 C1632 1.420 . S
C1630 C1662 1.423 . S
C1631 H1617 0.930 . S
C1631 C1628 1.413 . S
C1631 C1629 1.367 . S
C1632 N1627 1.362 . S
C1632 C1630 1.420 . S
C1632 C1636 1.429 . S
H1633 C1638 0.930 . S
N1634 Eu1596 2.609 . S
N1634 C1636 1.377 1_655 S
N1634 C1637 1.321 . S
C1635 H1621 0.930 1_455 S
C1635 C1637 1.400 1_455 S
C1635 C1638 1.386 . S
C1636 C1632 1.429 . S
C1636 N1634 1.377 1_455 S
C1636 C1639 1.411 . S
C1637 H1619 0.930 . S
C1637 N1634 1.321 . S
C1637 C1635 1.400 1_655 S
C1638 H1633 0.930 . S
C1638 C1635 1.386 . S
C1638 C1639 1.395 . S
C1639 C1636 1.411 . S
C1639 C1638 1.395 . S
C1639 C1661 1.420 . S
O1640 Eu1596 2.563 . S
O1640 C1660 1.248 1_655 S
O1641 Eu1596 2.612 . S
O1641 Eu1607 2.380 . S
O1641 C1652 1.276 . S
O1642 Eu1607 2.432 . S
O1642 C1659 1.264 . S
O1643 Eu1596 2.339 . S
O1643 C1659 1.254 . S
O1644 Eu1596 2.563 . S
O1644 C1652 1.235 . S
O1645 Eu1596 2.419 1_455 S
O1645 C1660 1.249 . S
O1646 Eu1607 2.558 . S
O1646 C1671 1.257 . S
O1647 Eu1596 2.380 . S
O1647 Eu1607 2.612 . S
O1647 C1663 1.276 . S
O1648 Eu1596 2.432 . S
O1648 C1670 1.264 . S
O1649 Eu1607 2.339 . S
O1649 C1670 1.254 . S
O1650 Eu1607 2.563 . S
O1650 C1663 1.235 . S
O1651 Eu1607 2.419 . S
O1651 C1671 1.249 . S
C1652 O1641 1.276 . S
C1652 O1644 1.235 . S
C1653 C1655 1.393 . S
C1653 C1657 1.395 . S
C1653 C1660 1.492 . S
C1654 C1655 1.392 . S
C1654 C1656 1.386 . S
C1655 C1653 1.393 . S
C1655 C1654 1.392 . S
C1655 H1672 0.930 . S
C1656 C1654 1.386 . S
C1656 C1658 1.395 . S
C1656 H1673 0.930 . S
C1657 C1653 1.395 . S
C1657 C1658 1.379 . S
C1657 H1674 0.930 . S
C1658 C1656 1.395 . S
C1658 C1657 1.379 . S
C1658 H1675 0.930 . S
C1659 O1642 1.264 . S
C1659 O1643 1.254 . S
C1660 Eu1596 2.848 1_455 S
C1660 O1640 1.248 1_455 S
C1660 O1645 1.249 . S
C1660 C1653 1.492 . S
C1661 H1626 0.931 . S
C1661 C1639 1.420 . S
C1661 C1662 1.351 . S
C1662 H1624 0.930 . S
C1662 C1630 1.423 . S
C1662 C1661 1.351 . S
C1663 O1647 1.276 . S
C1663 O1650 1.235 . S
C1664 C1665 1.393 . S
C1664 C1668 1.395 . S
C1664 C1671 1.492 . S
C1665 C1664 1.393 . S
C1665 C1666 1.392 . S
C1665 H1676 0.930 . S
C1666 C1665 1.392 . S
C1666 C1667 1.386 . S
C1667 C1666 1.386 . S
C1667 C1669 1.395 . S
C1667 H1677 0.930 . S
C1668 C1664 1.395 . S
C1668 C1669 1.379 . S
C1668 H1678 0.930 . S
C1669 C1667 1.395 . S
C1669 C1668 1.379 . S
C1669 H1679 0.930 . S
C1670 O1648 1.264 . S
C1670 O1649 1.254 . S
C1671 Eu1607 2.848 . S
C1671 O1646 1.257 . S
C1671 O1651 1.249 . S
C1671 C1664 1.492 . S
H1672 C1655 0.930 . S
H1673 C1656 0.930 . S
H1674 C1657 0.930 . S
H1675 C1658 0.930 . S
H1676 C1665 0.930 . S
H1677 C1667 0.930 . S
H1678 C1668 0.930 . S
H1679 C1669 0.930 . S
Eu1680 N1711 2.657 . S
Eu1680 N1718 2.609 . S
Eu1680 O1724 2.558 . S
Eu1680 O1725 2.612 . S
Eu1680 O1727 2.339 . S
Eu1680 O1728 2.563 . S
Eu1680 O1729 2.419 . S
Eu1680 O1731 2.380 . S
Eu1680 O1732 2.432 . S
Eu1680 C1744 2.848 . S
C1681 C1684 1.429 . S
C1681 C1685 1.411 . S
C1681 N1688 1.377 . S
C1682 C1684 1.420 . S
C1682 C1686 1.423 . S
C1682 C1694 1.392 . S
C1683 C1685 1.420 . S
C1683 C1686 1.351 . S
C1683 H1706 0.931 . S
C1684 C1681 1.429 . S
C1684 C1682 1.420 . S
C1684 N1692 1.362 . S
C1685 C1681 1.411 . S
C1685 C1683 1.420 . S
C1685 C1690 1.395 . S
C1686 C1682 1.423 . S
C1686 C1683 1.351 . S
C1686 H1698 0.930 . S
C1687 C1689 1.400 . S
C1687 C1690 1.386 . S
C1687 H1699 0.930 . S
N1688 C1681 1.377 . S
N1688 C1689 1.321 . S
N1688 Eu1691 2.609 . S
C1689 C1687 1.400 . S
C1689 N1688 1.321 . S
C1689 H1696 0.930 . S
C1690 C1685 1.395 . S
C1690 C1687 1.386 . S
C1690 H1709 0.930 . S
Eu1691 N1688 2.609 . S
Eu1691 N1692 2.657 . S
Eu1691 O1725 2.380 . S
Eu1691 O1726 2.432 . S
Eu1691 O1730 2.558 . S
Eu1691 O1731 2.612 . S
Eu1691 O1733 2.339 . S
Eu1691 O1734 2.563 . S
Eu1691 O1735 2.419 . S
Eu1691 C1755 2.848 . S
N1692 C1684 1.362 . S
N1692 Eu1691 2.657 . S
N1692 C1693 1.334 . S
C1693 N1692 1.334 . S
C1693 C1695 1.413 . S
C1693 H1700 0.929 . S
C1694 C1682 1.392 . S
C1694 C1695 1.367 . S
C1694 H1702 0.930 . S
C1695 C1693 1.413 . S
C1695 C1694 1.367 . S
C1695 H1697 0.930 . S
H1696 C1689 0.930 . S
H1697 C1695 0.930 . S
H1698 C1686 0.930 . S
H1699 C1687 0.930 . S
H1700 C1693 0.929 . S
H1701 C1715 0.930 . S
H1702 C1694 0.930 . S
H1703 C1721 0.930 . S
H1704 C1712 0.929 . S
H1705 C1719 0.930 . S
H1706 C1683 0.931 . S
H1707 C1713 0.930 . S
H1708 C1746 0.930 . S
H1709 C1690 0.930 . S
H1710 C1745 0.931 . S
N1711 Eu1680 2.657 . S
N1711 C1712 1.334 . S
N1711 C1716 1.362 . S
C1712 H1704 0.929 . S
C1712 N1711 1.334 . S
C1712 C1715 1.413 . S
C1713 H1707 0.930 . S
C1713 C1714 1.392 . S
C1713 C1715 1.367 . S
C1714 C1713 1.392 . S
C1714 C1716 1.420 . S
C1714 C1746 1.423 . S
C1715 H1701 0.930 . S
C1715 C1712 1.413 . S
C1715 C1713 1.367 . S
C1716 N1711 1.362 . S
C1716 C1714 1.420 . S
C1716 C1720 1.429 . S
H1717 C1722 0.930 . S
N1718 Eu1680 2.609 . S
N1718 C1720 1.377 . S
N1718 C1721 1.321 . S
C1719 H1705 0.930 . S
C1719 C1721 1.400 . S
C1719 C1722 1.386 . S
C1720 C1716 1.429 . S
C1720 N1718 1.377 . S
C1720 C1723 1.411 . S
C1721 H1703 0.930 . S
C1721 N1718 1.321 . S
C1721 C1719 1.400 . S
C1722 H1717 0.930 . S
C1722 C1719 1.386 . S
C1722 C1723 1.395 . S
C1723 C1720 1.411 . S
C1723 C1722 1.395 . S
C1723 C1745 1.420 . S
O1724 Eu1680 2.558 . S
O1724 C1744 1.257 . S
O1725 Eu1680 2.612 . S
O1725 Eu1691 2.380 . S
O1725 C1736 1.276 . S
O1726 Eu1691 2.432 . S
O1726 C1743 1.264 . S
O1727 Eu1680 2.339 . S
O1727 C1743 1.254 . S
O1728 Eu1680 2.563 . S
O1728 C1736 1.235 . S
O1729 Eu1680 2.419 . S
O1729 C1744 1.249 . S
O1730 Eu1691 2.558 . S
O1730 C1755 1.257 . S
O1731 Eu1680 2.380 . S
O1731 Eu1691 2.612 . S
O1731 C1747 1.276 . S
O1732 Eu1680 2.432 . S
O1732 C1754 1.264 . S
O1733 Eu1691 2.339 . S
O1733 C1754 1.254 . S
O1734 Eu1691 2.563 . S
O1734 C1747 1.235 . S
O1735 Eu1691 2.419 . S
O1735 C1755 1.249 . S
C1736 O1725 1.276 . S
C1736 O1728 1.235 . S
C1737 C1739 1.393 . S
C1737 C1741 1.395 . S
C1737 C1744 1.492 . S
C1738 C1739 1.392 . S
C1738 C1740 1.386 . S
C1739 C1737 1.393 . S
C1739 C1738 1.392 . S
C1739 H1756 0.930 . S
C1740 C1738 1.386 . S
C1740 C1742 1.395 . S
C1740 H1757 0.930 . S
C1741 C1737 1.395 . S
C1741 C1742 1.379 . S
C1741 H1758 0.930 . S
C1742 C1740 1.395 . S
C1742 C1741 1.379 . S
C1742 H1759 0.930 . S
C1743 O1726 1.264 . S
C1743 O1727 1.254 . S
C1744 Eu1680 2.848 . S
C1744 O1724 1.257 . S
C1744 O1729 1.249 . S
C1744 C1737 1.492 . S
C1745 H1710 0.931 . S
C1745 C1723 1.420 . S
C1745 C1746 1.351 . S
C1746 H1708 0.930 . S
C1746 C1714 1.423 . S
C1746 C1745 1.351 . S
C1747 O1731 1.276 . S
C1747 O1734 1.235 . S
C1748 C1749 1.393 . S
C1748 C1752 1.395 . S
C1748 C1755 1.492 . S
C1749 C1748 1.393 . S
C1749 C1750 1.392 . S
C1749 H1760 0.930 . S
C1750 C1749 1.392 . S
C1750 C1751 1.386 . S
C1751 C1750 1.386 . S
C1751 C1753 1.395 . S
C1751 H1761 0.930 . S
C1752 C1748 1.395 . S
C1752 C1753 1.379 . S
C1752 H1762 0.930 . S
C1753 C1751 1.395 . S
C1753 C1752 1.379 . S
C1753 H1763 0.930 . S
C1754 O1732 1.264 . S
C1754 O1733 1.254 . S
C1755 Eu1691 2.848 . S
C1755 O1730 1.257 . S
C1755 O1735 1.249 . S
C1755 C1748 1.492 . S
H1756 C1739 0.930 . S
H1757 C1740 0.930 . S
H1758 C1741 0.930 . S
H1759 C1742 0.930 . S
H1760 C1749 0.930 . S
H1761 C1751 0.930 . S
H1762 C1752 0.930 . S
H1763 C1753 0.930 . S
Eu1764 N1795 2.657 1_655 S
Eu1764 N1802 2.609 . S
Eu1764 O1808 2.563 . S
Eu1764 O1809 2.612 . S
Eu1764 O1811 2.339 . S
Eu1764 O1812 2.563 . S
Eu1764 O1813 2.419 1_655 S
Eu1764 O1815 2.380 . S
Eu1764 O1816 2.432 . S
Eu1764 C1828 2.848 1_655 S
C1765 C1768 1.429 . S
C1765 C1769 1.411 . S
C1765 N1772 1.377 . S
C1766 C1768 1.420 . S
C1766 C1770 1.423 . S
C1766 C1778 1.392 . S
C1767 C1769 1.420 . S
C1767 C1770 1.351 . S
C1767 H1790 0.931 . S
C1768 C1765 1.429 . S
C1768 C1766 1.420 . S
C1768 N1776 1.362 . S
C1769 C1765 1.411 . S
C1769 C1767 1.420 . S
C1769 C1774 1.395 . S
C1770 C1766 1.423 . S
C1770 C1767 1.351 . S
C1770 H1782 0.930 . S
C1771 C1773 1.400 . S
C1771 C1774 1.386 . S
C1771 H1783 0.930 . S
N1772 C1765 1.377 . S
N1772 C1773 1.321 . S
N1772 Eu1775 2.609 . S
C1773 C1771 1.400 . S
C1773 N1772 1.321 . S
C1773 H1780 0.930 . S
C1774 C1769 1.395 . S
C1774 C1771 1.386 . S
C1774 H1793 0.930 . S
Eu1775 N1772 2.609 . S
Eu1775 N1776 2.657 . S
Eu1775 O1809 2.380 . S
Eu1775 O1810 2.432 . S
Eu1775 O1814 2.558 . S
Eu1775 O1815 2.612 . S
Eu1775 O1817 2.339 . S
Eu1775 O1818 2.563 . S
Eu1775 O1819 2.419 . S
Eu1775 C1839 2.848 . S
N1776 C1768 1.362 . S
N1776 Eu1775 2.657 . S
N1776 C1777 1.334 . S
C1777 N1776 1.334 . S
C1777 C1779 1.413 . S
C1777 H1784 0.929 . S
C1778 C1766 1.392 . S
C1778 C1779 1.367 . S
C1778 H1786 0.930 . S
C1779 C1777 1.413 . S
C1779 C1778 1.367 . S
C1779 H1781 0.930 . S
H1780 C1773 0.930 . S
H1781 C1779 0.930 . S
H1782 C1770 0.930 . S
H1783 C1771 0.930 . S
H1784 C1777 0.929 . S
H1785 C1799 0.930 . S
H1786 C1778 0.930 . S
H1787 C1805 0.930 . S
H1788 C1796 0.929 . S
H1789 C1803 0.930 1_655 S
H1790 C1767 0.931 . S
H1791 C1797 0.930 . S
H1792 C1830 0.930 . S
H1793 C1774 0.930 . S
H1794 C1829 0.931 . S
N1795 Eu1764 2.657 1_455 S
N1795 C1796 1.334 . S
N1795 C1800 1.362 . S
C1796 H1788 0.929 . S
C1796 N1795 1.334 . S
C1796 C1799 1.413 . S
C1797 H1791 0.930 . S
C1797 C1798 1.392 . S
C1797 C1799 1.367 . S
C1798 C1797 1.392 . S
C1798 C1800 1.420 . S
C1798 C1830 1.423 . S
C1799 H1785 0.930 . S
C1799 C1796 1.413 . S
C1799 C1797 1.367 . S
C1800 N1795 1.362 . S
C1800 C1798 1.420 . S
C1800 C1804 1.429 . S
H1801 C1806 0.930 . S
N1802 Eu1764 2.609 . S
N1802 C1804 1.377 1_655 S
N1802 C1805 1.321 . S
C1803 H1789 0.930 1_455 S
C1803 C1805 1.400 1_455 S
C1803 C1806 1.386 . S
C1804 C1800 1.429 . S
C1804 N1802 1.377 1_455 S
C1804 C1807 1.411 . S
C1805 H1787 0.930 . S
C1805 N1802 1.321 . S
C1805 C1803 1.400 1_655 S
C1806 H1801 0.930 . S
C1806 C1803 1.386 . S
C1806 C1807 1.395 . S
C1807 C1804 1.411 . S
C1807 C1806 1.395 . S
C1807 C1829 1.420 . S
O1808 Eu1764 2.563 . S
O1808 C1828 1.248 1_655 S
O1809 Eu1764 2.612 . S
O1809 Eu1775 2.380 . S
O1809 C1820 1.276 . S
O1810 Eu1775 2.432 . S
O1810 C1827 1.264 . S
O1811 Eu1764 2.339 . S
O1811 C1827 1.254 . S
O1812 Eu1764 2.563 . S
O1812 C1820 1.235 . S
O1813 Eu1764 2.419 1_455 S
O1813 C1828 1.249 . S
O1814 Eu1775 2.558 . S
O1814 C1839 1.257 . S
O1815 Eu1764 2.380 . S
O1815 Eu1775 2.612 . S
O1815 C1831 1.276 . S
O1816 Eu1764 2.432 . S
O1816 C1838 1.264 . S
O1817 Eu1775 2.339 . S
O1817 C1838 1.254 . S
O1818 Eu1775 2.563 . S
O1818 C1831 1.235 . S
O1819 Eu1775 2.419 . S
O1819 C1839 1.249 . S
C1820 O1809 1.276 . S
C1820 O1812 1.235 . S
C1821 C1823 1.393 . S
C1821 C1825 1.395 . S
C1821 C1828 1.492 . S
C1822 C1823 1.392 . S
C1822 C1824 1.386 . S
C1823 C1821 1.393 . S
C1823 C1822 1.392 . S
C1823 H1840 0.930 . S
C1824 C1822 1.386 . S
C1824 C1826 1.395 . S
C1824 H1841 0.930 . S
C1825 C1821 1.395 . S
C1825 C1826 1.379 . S
C1825 H1842 0.930 . S
C1826 C1824 1.395 . S
C1826 C1825 1.379 . S
C1826 H1843 0.930 . S
C1827 O1810 1.264 . S
C1827 O1811 1.254 . S
C1828 Eu1764 2.848 1_455 S
C1828 O1808 1.248 1_455 S
C1828 O1813 1.249 . S
C1828 C1821 1.492 . S
C1829 H1794 0.931 . S
C1829 C1807 1.420 . S
C1829 C1830 1.351 . S
C1830 H1792 0.930 . S
C1830 C1798 1.423 . S
C1830 C1829 1.351 . S
C1831 O1815 1.276 . S
C1831 O1818 1.235 . S
C1832 C1833 1.393 . S
C1832 C1836 1.395 . S
C1832 C1839 1.492 . S
C1833 C1832 1.393 . S
C1833 C1834 1.392 . S
C1833 H1844 0.930 . S
C1834 C1833 1.392 . S
C1834 C1835 1.386 . S
C1835 C1834 1.386 . S
C1835 C1837 1.395 . S
C1835 H1845 0.930 . S
C1836 C1832 1.395 . S
C1836 C1837 1.379 . S
C1836 H1846 0.930 . S
C1837 C1835 1.395 . S
C1837 C1836 1.379 . S
C1837 H1847 0.930 . S
C1838 O1816 1.264 . S
C1838 O1817 1.254 . S
C1839 Eu1775 2.848 . S
C1839 O1814 1.257 . S
C1839 O1819 1.249 . S
C1839 C1832 1.492 . S
H1840 C1823 0.930 . S
H1841 C1824 0.930 . S
H1842 C1825 0.930 . S
H1843 C1826 0.930 . S
H1844 C1833 0.930 . S
H1845 C1835 0.930 . S
H1846 C1836 0.930 . S
H1847 C1837 0.930 . S
Eu1848 N1879 2.657 . S
Eu1848 N1886 2.609 . S
Eu1848 O1892 2.558 . S
Eu1848 O1893 2.612 . S
Eu1848 O1895 2.339 . S
Eu1848 O1896 2.563 . S
Eu1848 O1897 2.419 . S
Eu1848 O1899 2.380 . S
Eu1848 O1900 2.432 . S
Eu1848 C1912 2.848 . S
C1849 C1852 1.429 . S
C1849 C1853 1.411 . S
C1849 N1856 1.377 . S
C1850 C1852 1.420 . S
C1850 C1854 1.423 . S
C1850 C1862 1.392 . S
C1851 C1853 1.420 . S
C1851 C1854 1.351 . S
C1851 H1874 0.931 . S
C1852 C1849 1.429 . S
C1852 C1850 1.420 . S
C1852 N1860 1.362 . S
C1853 C1849 1.411 . S
C1853 C1851 1.420 . S
C1853 C1858 1.395 . S
C1854 C1850 1.423 . S
C1854 C1851 1.351 . S
C1854 H1866 0.930 . S
C1855 C1857 1.400 . S
C1855 C1858 1.386 . S
C1855 H1867 0.930 . S
N1856 C1849 1.377 . S
N1856 C1857 1.321 . S
N1856 Eu1859 2.609 . S
C1857 C1855 1.400 . S
C1857 N1856 1.321 . S
C1857 H1864 0.930 . S
C1858 C1853 1.395 . S
C1858 C1855 1.386 . S
C1858 H1877 0.930 . S
Eu1859 N1856 2.609 . S
Eu1859 N1860 2.657 . S
Eu1859 O1893 2.380 . S
Eu1859 O1894 2.432 . S
Eu1859 O1898 2.558 . S
Eu1859 O1899 2.612 . S
Eu1859 O1901 2.339 . S
Eu1859 O1902 2.563 . S
Eu1859 O1903 2.419 . S
Eu1859 C1923 2.848 . S
N1860 C1852 1.362 . S
N1860 Eu1859 2.657 . S
N1860 C1861 1.334 . S
C1861 N1860 1.334 . S
C1861 C1863 1.413 . S
C1861 H1868 0.929 . S
C1862 C1850 1.392 . S
C1862 C1863 1.367 . S
C1862 H1870 0.930 . S
C1863 C1861 1.413 . S
C1863 C1862 1.367 . S
C1863 H1865 0.930 . S
H1864 C1857 0.930 . S
H1865 C1863 0.930 . S
H1866 C1854 0.930 . S
H1867 C1855 0.930 . S
H1868 C1861 0.929 . S
H1869 C1883 0.930 . S
H1870 C1862 0.930 . S
H1871 C1889 0.930 . S
H1872 C1880 0.929 . S
H1873 C1887 0.930 . S
H1874 C1851 0.931 . S
H1875 C1881 0.930 . S
H1876 C1914 0.930 . S
H1877 C1858 0.930 . S
H1878 C1913 0.931 . S
N1879 Eu1848 2.657 . S
N1879 C1880 1.334 . S
N1879 C1884 1.362 . S
C1880 H1872 0.929 . S
C1880 N1879 1.334 . S
C1880 C1883 1.413 . S
C1881 H1875 0.930 . S
C1881 C1882 1.392 . S
C1881 C1883 1.367 . S
C1882 C1881 1.392 . S
C1882 C1884 1.420 . S
C1882 C1914 1.423 . S
C1883 H1869 0.930 . S
C1883 C1880 1.413 . S
C1883 C1881 1.367 . S
C1884 N1879 1.362 . S
C1884 C1882 1.420 . S
C1884 C1888 1.429 . S
H1885 C1890 0.930 . S
N1886 Eu1848 2.609 . S
N1886 C1888 1.377 . S
N1886 C1889 1.321 . S
C1887 H1873 0.930 . S
C1887 C1889 1.400 . S
C1887 C1890 1.386 . S
C1888 C1884 1.429 . S
C1888 N1886 1.377 . S
C1888 C1891 1.411 . S
C1889 H1871 0.930 . S
C1889 N1886 1.321 . S
C1889 C1887 1.400 . S
C1890 H1885 0.930 . S
C1890 C1887 1.386 . S
C1890 C1891 1.395 . S
C1891 C1888 1.411 . S
C1891 C1890 1.395 . S
C1891 C1913 1.420 . S
O1892 Eu1848 2.558 . S
O1892 C1912 1.257 . S
O1893 Eu1848 2.612 . S
O1893 Eu1859 2.380 . S
O1893 C1904 1.276 . S
O1894 Eu1859 2.432 . S
O1894 C1911 1.264 . S
O1895 Eu1848 2.339 . S
O1895 C1911 1.254 . S
O1896 Eu1848 2.563 . S
O1896 C1904 1.235 . S
O1897 Eu1848 2.419 . S
O1897 C1912 1.249 . S
O1898 Eu1859 2.558 . S
O1898 C1923 1.257 . S
O1899 Eu1848 2.380 . S
O1899 Eu1859 2.612 . S
O1899 C1915 1.276 . S
O1900 Eu1848 2.432 . S
O1900 C1922 1.264 . S
O1901 Eu1859 2.339 . S
O1901 C1922 1.254 . S
O1902 Eu1859 2.563 . S
O1902 C1915 1.235 . S
O1903 Eu1859 2.419 . S
O1903 C1923 1.249 . S
C1904 O1893 1.276 . S
C1904 O1896 1.235 . S
C1905 C1907 1.393 . S
C1905 C1909 1.395 . S
C1905 C1912 1.492 . S
C1906 C1907 1.392 . S
C1906 C1908 1.386 . S
C1907 C1905 1.393 . S
C1907 C1906 1.392 . S
C1907 H1924 0.930 . S
C1908 C1906 1.386 . S
C1908 C1910 1.395 . S
C1908 H1925 0.930 . S
C1909 C1905 1.395 . S
C1909 C1910 1.379 . S
C1909 H1926 0.930 . S
C1910 C1908 1.395 . S
C1910 C1909 1.379 . S
C1910 H1927 0.930 . S
C1911 O1894 1.264 . S
C1911 O1895 1.254 . S
C1912 Eu1848 2.848 . S
C1912 O1892 1.257 . S
C1912 O1897 1.249 . S
C1912 C1905 1.492 . S
C1913 H1878 0.931 . S
C1913 C1891 1.420 . S
C1913 C1914 1.351 . S
C1914 H1876 0.930 . S
C1914 C1882 1.423 . S
C1914 C1913 1.351 . S
C1915 O1899 1.276 . S
C1915 O1902 1.235 . S
C1916 C1917 1.393 . S
C1916 C1920 1.395 . S
C1916 C1923 1.492 . S
C1917 C1916 1.393 . S
C1917 C1918 1.392 . S
C1917 H1928 0.930 . S
C1918 C1917 1.392 . S
C1918 C1919 1.386 . S
C1919 C1918 1.386 . S
C1919 C1921 1.395 . S
C1919 H1929 0.930 . S
C1920 C1916 1.395 . S
C1920 C1921 1.379 . S
C1920 H1930 0.930 . S
C1921 C1919 1.395 . S
C1921 C1920 1.379 . S
C1921 H1931 0.930 . S
C1922 O1900 1.264 . S
C1922 O1901 1.254 . S
C1923 Eu1859 2.848 . S
C1923 O1898 1.257 . S
C1923 O1903 1.249 . S
C1923 C1916 1.492 . S
H1924 C1907 0.930 . S
H1925 C1908 0.930 . S
H1926 C1909 0.930 . S
H1927 C1910 0.930 . S
H1928 C1917 0.930 . S
H1929 C1919 0.930 . S
H1930 C1920 0.930 . S
H1931 C1921 0.930 . S
Eu1932 N1963 2.657 . S
Eu1932 N1970 2.609 . S
Eu1932 O1976 2.558 . S
Eu1932 O1977 2.612 . S
Eu1932 O1979 2.339 . S
Eu1932 O1980 2.563 . S
Eu1932 O1981 2.419 . S
Eu1932 O1983 2.380 . S
Eu1932 O1984 2.432 . S
Eu1932 C1996 2.848 . S
C1933 C1936 1.429 . S
C1933 C1937 1.411 . S
C1933 N1940 1.377 . S
C1934 C1936 1.420 . S
C1934 C1938 1.423 . S
C1934 C1946 1.392 . S
C1935 C1937 1.420 . S
C1935 C1938 1.351 . S
C1935 H1958 0.931 . S
C1936 C1933 1.429 . S
C1936 C1934 1.420 . S
C1936 N1944 1.362 . S
C1937 C1933 1.411 . S
C1937 C1935 1.420 . S
C1937 C1942 1.395 . S
C1938 C1934 1.423 . S
C1938 C1935 1.351 . S
C1938 H1950 0.930 . S
C1939 C1941 1.400 . S
C1939 C1942 1.386 . S
C1939 H1951 0.930 . S
N1940 C1933 1.377 . S
N1940 C1941 1.321 . S
N1940 Eu1943 2.609 . S
C1941 C1939 1.400 . S
C1941 N1940 1.321 . S
C1941 H1948 0.930 . S
C1942 C1937 1.395 . S
C1942 C1939 1.386 . S
C1942 H1961 0.930 . S
Eu1943 N1940 2.609 . S
Eu1943 N1944 2.657 . S
Eu1943 O1977 2.380 . S
Eu1943 O1978 2.432 . S
Eu1943 O1982 2.558 . S
Eu1943 O1983 2.612 . S
Eu1943 O1985 2.339 . S
Eu1943 O1986 2.563 . S
Eu1943 O1987 2.419 . S
Eu1943 C2007 2.848 . S
N1944 C1936 1.362 . S
N1944 Eu1943 2.657 . S
N1944 C1945 1.334 . S
C1945 N1944 1.334 . S
C1945 C1947 1.413 . S
C1945 H1952 0.929 . S
C1946 C1934 1.392 . S
C1946 C1947 1.367 . S
C1946 H1954 0.930 . S
C1947 C1945 1.413 . S
C1947 C1946 1.367 . S
C1947 H1949 0.930 . S
H1948 C1941 0.930 . S
H1949 C1947 0.930 . S
H1950 C1938 0.930 . S
H1951 C1939 0.930 . S
H1952 C1945 0.929 . S
H1953 C1967 0.930 . S
H1954 C1946 0.930 . S
H1955 C1973 0.930 . S
H1956 C1964 0.929 . S
H1957 C1971 0.930 . S
H1958 C1935 0.931 . S
H1959 C1965 0.930 . S
H1960 C1998 0.930 . S
H1961 C1942 0.930 . S
H1962 C1997 0.931 . S
N1963 Eu1932 2.657 . S
N1963 C1964 1.334 . S
N1963 C1968 1.362 . S
C1964 H1956 0.929 . S
C1964 N1963 1.334 . S
C1964 C1967 1.413 . S
C1965 H1959 0.930 . S
C1965 C1966 1.392 . S
C1965 C1967 1.367 . S
C1966 C1965 1.392 . S
C1966 C1968 1.420 . S
C1966 C1998 1.423 . S
C1967 H1953 0.930 . S
C1967 C1964 1.413 . S
C1967 C1965 1.367 . S
C1968 N1963 1.362 . S
C1968 C1966 1.420 . S
C1968 C1972 1.429 . S
H1969 C1974 0.930 . S
N1970 Eu1932 2.609 . S
N1970 C1972 1.377 . S
N1970 C1973 1.321 . S
C1971 H1957 0.930 . S
C1971 C1973 1.400 . S
C1971 C1974 1.386 . S
C1972 C1968 1.429 . S
C1972 N1970 1.377 . S
C1972 C1975 1.411 . S
C1973 H1955 0.930 . S
C1973 N1970 1.321 . S
C1973 C1971 1.400 . S
C1974 H1969 0.930 . S
C1974 C1971 1.386 . S
C1974 C1975 1.395 . S
C1975 C1972 1.411 . S
C1975 C1974 1.395 . S
C1975 C1997 1.420 . S
O1976 Eu1932 2.558 . S
O1976 C1996 1.257 . S
O1977 Eu1932 2.612 . S
O1977 Eu1943 2.380 . S
O1977 C1988 1.276 . S
O1978 Eu1943 2.432 . S
O1978 C1995 1.264 . S
O1979 Eu1932 2.339 . S
O1979 C1995 1.254 . S
O1980 Eu1932 2.563 . S
O1980 C1988 1.235 . S
O1981 Eu1932 2.419 . S
O1981 C1996 1.249 . S
O1982 Eu1943 2.558 . S
O1982 C2007 1.257 . S
O1983 Eu1932 2.380 . S
O1983 Eu1943 2.612 . S
O1983 C1999 1.276 . S
O1984 Eu1932 2.432 . S
O1984 C2006 1.264 . S
O1985 Eu1943 2.339 . S
O1985 C2006 1.254 . S
O1986 Eu1943 2.563 . S
O1986 C1999 1.235 . S
O1987 Eu1943 2.419 . S
O1987 C2007 1.249 . S
C1988 O1977 1.276 . S
C1988 O1980 1.235 . S
C1989 C1991 1.393 . S
C1989 C1993 1.395 . S
C1989 C1996 1.492 . S
C1990 C1991 1.392 . S
C1990 C1992 1.386 . S
C1991 C1989 1.393 . S
C1991 C1990 1.392 . S
C1991 H2008 0.930 . S
C1992 C1990 1.386 . S
C1992 C1994 1.395 . S
C1992 H2009 0.930 . S
C1993 C1989 1.395 . S
C1993 C1994 1.379 . S
C1993 H2010 0.930 . S
C1994 C1992 1.395 . S
C1994 C1993 1.379 . S
C1994 H2011 0.930 . S
C1995 O1978 1.264 . S
C1995 O1979 1.254 . S
C1996 Eu1932 2.848 . S
C1996 O1976 1.257 . S
C1996 O1981 1.249 . S
C1996 C1989 1.492 . S
C1997 H1962 0.931 . S
C1997 C1975 1.420 . S
C1997 C1998 1.351 . S
C1998 H1960 0.930 . S
C1998 C1966 1.423 . S
C1998 C1997 1.351 . S
C1999 O1983 1.276 . S
C1999 O1986 1.235 . S
C2000 C2001 1.393 . S
C2000 C2004 1.395 . S
C2000 C2007 1.492 . S
C2001 C2000 1.393 . S
C2001 C2002 1.392 . S
C2001 H2012 0.930 . S
C2002 C2001 1.392 . S
C2002 C2003 1.386 . S
C2003 C2002 1.386 . S
C2003 C2005 1.395 . S
C2003 H2013 0.930 . S
C2004 C2000 1.395 . S
C2004 C2005 1.379 . S
C2004 H2014 0.930 . S
C2005 C2003 1.395 . S
C2005 C2004 1.379 . S
C2005 H2015 0.930 . S
C2006 O1984 1.264 . S
C2006 O1985 1.254 . S
C2007 Eu1943 2.848 . S
C2007 O1982 1.257 . S
C2007 O1987 1.249 . S
C2007 C2000 1.492 . S
H2008 C1991 0.930 . S
H2009 C1992 0.930 . S
H2010 C1993 0.930 . S
H2011 C1994 0.930 . S
H2012 C2001 0.930 . S
H2013 C2003 0.930 . S
H2014 C2004 0.930 . S
H2015 C2005 0.930 . S
Eu2016 N2047 2.657 . S
Eu2016 N2054 2.609 . S
Eu2016 O2060 2.558 . S
Eu2016 O2061 2.612 . S
Eu2016 O2063 2.339 . S
Eu2016 O2064 2.563 . S
Eu2016 O2065 2.419 . S
Eu2016 O2067 2.380 . S
Eu2016 O2068 2.432 . S
Eu2016 C2080 2.848 . S
C2017 C2020 1.429 . S
C2017 C2021 1.411 . S
C2017 N2024 1.377 . S
C2018 C2020 1.420 . S
C2018 C2022 1.423 . S
C2018 C2030 1.392 . S
C2019 C2021 1.420 . S
C2019 C2022 1.351 . S
C2019 H2042 0.931 . S
C2020 C2017 1.429 . S
C2020 C2018 1.420 . S
C2020 N2028 1.362 . S
C2021 C2017 1.411 . S
C2021 C2019 1.420 . S
C2021 C2026 1.395 . S
C2022 C2018 1.423 . S
C2022 C2019 1.351 . S
C2022 H2034 0.930 . S
C2023 C2025 1.400 . S
C2023 C2026 1.386 . S
C2023 H2035 0.930 . S
N2024 C2017 1.377 . S
N2024 C2025 1.321 . S
N2024 Eu2027 2.609 . S
C2025 C2023 1.400 . S
C2025 N2024 1.321 . S
C2025 H2032 0.930 . S
C2026 C2021 1.395 . S
C2026 C2023 1.386 . S
C2026 H2045 0.930 . S
Eu2027 N2024 2.609 . S
Eu2027 N2028 2.657 . S
Eu2027 O2061 2.380 . S
Eu2027 O2062 2.432 . S
Eu2027 O2066 2.558 . S
Eu2027 O2067 2.612 . S
Eu2027 O2069 2.339 . S
Eu2027 O2070 2.563 . S
Eu2027 O2071 2.419 . S
Eu2027 C2091 2.848 . S
N2028 C2020 1.362 . S
N2028 Eu2027 2.657 . S
N2028 C2029 1.334 . S
C2029 N2028 1.334 . S
C2029 C2031 1.413 . S
C2029 H2036 0.929 . S
C2030 C2018 1.392 . S
C2030 C2031 1.367 . S
C2030 H2038 0.930 . S
C2031 C2029 1.413 . S
C2031 C2030 1.367 . S
C2031 H2033 0.930 . S
H2032 C2025 0.930 . S
H2033 C2031 0.930 . S
H2034 C2022 0.930 . S
H2035 C2023 0.930 . S
H2036 C2029 0.929 . S
H2037 C2051 0.930 . S
H2038 C2030 0.930 . S
H2039 C2057 0.930 . S
H2040 C2048 0.929 . S
H2041 C2055 0.930 . S
H2042 C2019 0.931 . S
H2043 C2049 0.930 . S
H2044 C2082 0.930 . S
H2045 C2026 0.930 . S
H2046 C2081 0.931 . S
N2047 Eu2016 2.657 . S
N2047 C2048 1.334 . S
N2047 C2052 1.362 . S
C2048 H2040 0.929 . S
C2048 N2047 1.334 . S
C2048 C2051 1.413 . S
C2049 H2043 0.930 . S
C2049 C2050 1.392 . S
C2049 C2051 1.367 . S
C2050 C2049 1.392 . S
C2050 C2052 1.420 . S
C2050 C2082 1.423 . S
C2051 H2037 0.930 . S
C2051 C2048 1.413 . S
C2051 C2049 1.367 . S
C2052 N2047 1.362 . S
C2052 C2050 1.420 . S
C2052 C2056 1.429 . S
H2053 C2058 0.930 . S
N2054 Eu2016 2.609 . S
N2054 C2056 1.377 . S
N2054 C2057 1.321 . S
C2055 H2041 0.930 . S
C2055 C2057 1.400 . S
C2055 C2058 1.386 . S
C2056 C2052 1.429 . S
C2056 N2054 1.377 . S
C2056 C2059 1.411 . S
C2057 H2039 0.930 . S
C2057 N2054 1.321 . S
C2057 C2055 1.400 . S
C2058 H2053 0.930 . S
C2058 C2055 1.386 . S
C2058 C2059 1.395 . S
C2059 C2056 1.411 . S
C2059 C2058 1.395 . S
C2059 C2081 1.420 . S
O2060 Eu2016 2.558 . S
O2060 C2080 1.257 . S
O2061 Eu2016 2.612 . S
O2061 Eu2027 2.380 . S
O2061 C2072 1.276 . S
O2062 Eu2027 2.432 . S
O2062 C2079 1.264 . S
O2063 Eu2016 2.339 . S
O2063 C2079 1.254 . S
O2064 Eu2016 2.563 . S
O2064 C2072 1.235 . S
O2065 Eu2016 2.419 . S
O2065 C2080 1.249 . S
O2066 Eu2027 2.558 . S
O2066 C2091 1.257 . S
O2067 Eu2016 2.380 . S
O2067 Eu2027 2.612 . S
O2067 C2083 1.276 . S
O2068 Eu2016 2.432 . S
O2068 C2090 1.264 . S
O2069 Eu2027 2.339 . S
O2069 C2090 1.254 . S
O2070 Eu2027 2.563 . S
O2070 C2083 1.235 . S
O2071 Eu2027 2.419 . S
O2071 C2091 1.249 . S
C2072 O2061 1.276 . S
C2072 O2064 1.235 . S
C2073 C2075 1.393 . S
C2073 C2077 1.395 . S
C2073 C2080 1.492 . S
C2074 C2075 1.392 . S
C2074 C2076 1.386 . S
C2075 C2073 1.393 . S
C2075 C2074 1.392 . S
C2075 H2092 0.930 . S
C2076 C2074 1.386 . S
C2076 C2078 1.395 . S
C2076 H2093 0.930 . S
C2077 C2073 1.395 . S
C2077 C2078 1.379 . S
C2077 H2094 0.930 . S
C2078 C2076 1.395 . S
C2078 C2077 1.379 . S
C2078 H2095 0.930 . S
C2079 O2062 1.264 . S
C2079 O2063 1.254 . S
C2080 Eu2016 2.848 . S
C2080 O2060 1.257 . S
C2080 O2065 1.249 . S
C2080 C2073 1.492 . S
C2081 H2046 0.931 . S
C2081 C2059 1.420 . S
C2081 C2082 1.351 . S
C2082 H2044 0.930 . S
C2082 C2050 1.423 . S
C2082 C2081 1.351 . S
C2083 O2067 1.276 . S
C2083 O2070 1.235 . S
C2084 C2085 1.393 . S
C2084 C2088 1.395 . S
C2084 C2091 1.492 . S
C2085 C2084 1.393 . S
C2085 C2086 1.392 . S
C2085 H2096 0.930 . S
C2086 C2085 1.392 . S
C2086 C2087 1.386 . S
C2087 C2086 1.386 . S
C2087 C2089 1.395 . S
C2087 H2097 0.930 . S
C2088 C2084 1.395 . S
C2088 C2089 1.379 . S
C2088 H2098 0.930 . S
C2089 C2087 1.395 . S
C2089 C2088 1.379 . S
C2089 H2099 0.930 . S
C2090 O2068 1.264 . S
C2090 O2069 1.254 . S
C2091 Eu2027 2.848 . S
C2091 O2066 1.257 . S
C2091 O2071 1.249 . S
C2091 C2084 1.492 . S
H2092 C2075 0.930 . S
H2093 C2076 0.930 . S
H2094 C2077 0.930 . S
H2095 C2078 0.930 . S
H2096 C2085 0.930 . S
H2097 C2087 0.930 . S
H2098 C2088 0.930 . S
H2099 C2089 0.930 . S
Eu2100 N2131 2.657 . S
Eu2100 N2138 2.609 . S
Eu2100 O2144 2.558 . S
Eu2100 O2145 2.612 . S
Eu2100 O2147 2.339 . S
Eu2100 O2148 2.563 . S
Eu2100 O2149 2.419 . S
Eu2100 O2151 2.380 . S
Eu2100 O2152 2.432 . S
Eu2100 C2164 2.848 . S
C2101 C2104 1.429 . S
C2101 C2105 1.411 . S
C2101 N2108 1.377 . S
C2102 C2104 1.420 . S
C2102 C2106 1.423 . S
C2102 C2114 1.392 . S
C2103 C2105 1.420 . S
C2103 C2106 1.351 . S
C2103 H2126 0.931 . S
C2104 C2101 1.429 . S
C2104 C2102 1.420 . S
C2104 N2112 1.362 . S
C2105 C2101 1.411 . S
C2105 C2103 1.420 . S
C2105 C2110 1.395 . S
C2106 C2102 1.423 . S
C2106 C2103 1.351 . S
C2106 H2118 0.930 . S
C2107 C2109 1.400 . S
C2107 C2110 1.386 . S
C2107 H2119 0.930 . S
N2108 C2101 1.377 . S
N2108 C2109 1.321 . S
N2108 Eu2111 2.609 . S
C2109 C2107 1.400 . S
C2109 N2108 1.321 . S
C2109 H2116 0.930 . S
C2110 C2105 1.395 . S
C2110 C2107 1.386 . S
C2110 H2129 0.930 . S
Eu2111 N2108 2.609 . S
Eu2111 N2112 2.657 . S
Eu2111 O2145 2.380 . S
Eu2111 O2146 2.432 . S
Eu2111 O2150 2.558 . S
Eu2111 O2151 2.612 . S
Eu2111 O2153 2.339 . S
Eu2111 O2154 2.563 . S
Eu2111 O2155 2.419 . S
Eu2111 C2175 2.848 . S
N2112 C2104 1.362 . S
N2112 Eu2111 2.657 . S
N2112 C2113 1.334 . S
C2113 N2112 1.334 . S
C2113 C2115 1.413 . S
C2113 H2120 0.929 . S
C2114 C2102 1.392 . S
C2114 C2115 1.367 . S
C2114 H2122 0.930 . S
C2115 C2113 1.413 . S
C2115 C2114 1.367 . S
C2115 H2117 0.930 . S
H2116 C2109 0.930 . S
H2117 C2115 0.930 . S
H2118 C2106 0.930 . S
H2119 C2107 0.930 . S
H2120 C2113 0.929 . S
H2121 C2135 0.930 . S
H2122 C2114 0.930 . S
H2123 C2141 0.930 . S
H2124 C2132 0.929 . S
H2125 C2139 0.930 . S
H2126 C2103 0.931 . S
H2127 C2133 0.930 . S
H2128 C2166 0.930 . S
H2129 C2110 0.930 . S
H2130 C2165 0.931 . S
N2131 Eu2100 2.657 . S
N2131 C2132 1.334 . S
N2131 C2136 1.362 . S
C2132 H2124 0.929 . S
C2132 N2131 1.334 . S
C2132 C2135 1.413 . S
C2133 H2127 0.930 . S
C2133 C2134 1.392 . S
C2133 C2135 1.367 . S
C2134 C2133 1.392 . S
C2134 C2136 1.420 . S
C2134 C2166 1.423 . S
C2135 H2121 0.930 . S
C2135 C2132 1.413 . S
C2135 C2133 1.367 . S
C2136 N2131 1.362 . S
C2136 C2134 1.420 . S
C2136 C2140 1.429 . S
H2137 C2142 0.930 . S
N2138 Eu2100 2.609 . S
N2138 C2140 1.377 . S
N2138 C2141 1.321 . S
C2139 H2125 0.930 . S
C2139 C2141 1.400 . S
C2139 C2142 1.386 . S
C2140 C2136 1.429 . S
C2140 N2138 1.377 . S
C2140 C2143 1.411 . S
C2141 H2123 0.930 . S
C2141 N2138 1.321 . S
C2141 C2139 1.400 . S
C2142 H2137 0.930 . S
C2142 C2139 1.386 . S
C2142 C2143 1.395 . S
C2143 C2140 1.411 . S
C2143 C2142 1.395 . S
C2143 C2165 1.420 . S
O2144 Eu2100 2.558 . S
O2144 C2164 1.257 . S
O2145 Eu2100 2.612 . S
O2145 Eu2111 2.380 . S
O2145 C2156 1.276 . S
O2146 Eu2111 2.432 . S
O2146 C2163 1.264 . S
O2147 Eu2100 2.339 . S
O2147 C2163 1.254 . S
O2148 Eu2100 2.563 . S
O2148 C2156 1.235 . S
O2149 Eu2100 2.419 . S
O2149 C2164 1.249 . S
O2150 Eu2111 2.558 . S
O2150 C2175 1.257 . S
O2151 Eu2100 2.380 . S
O2151 Eu2111 2.612 . S
O2151 C2167 1.276 . S
O2152 Eu2100 2.432 . S
O2152 C2174 1.264 . S
O2153 Eu2111 2.339 . S
O2153 C2174 1.254 . S
O2154 Eu2111 2.563 . S
O2154 C2167 1.235 . S
O2155 Eu2111 2.419 . S
O2155 C2175 1.249 . S
C2156 O2145 1.276 . S
C2156 O2148 1.235 . S
C2157 C2159 1.393 . S
C2157 C2161 1.395 . S
C2157 C2164 1.492 . S
C2158 C2159 1.392 . S
C2158 C2160 1.386 . S
C2159 C2157 1.393 . S
C2159 C2158 1.392 . S
C2159 H2176 0.930 . S
C2160 C2158 1.386 . S
C2160 C2162 1.395 . S
C2160 H2177 0.930 . S
C2161 C2157 1.395 . S
C2161 C2162 1.379 . S
C2161 H2178 0.930 . S
C2162 C2160 1.395 . S
C2162 C2161 1.379 . S
C2162 H2179 0.930 . S
C2163 O2146 1.264 . S
C2163 O2147 1.254 . S
C2164 Eu2100 2.848 . S
C2164 O2144 1.257 . S
C2164 O2149 1.249 . S
C2164 C2157 1.492 . S
C2165 H2130 0.931 . S
C2165 C2143 1.420 . S
C2165 C2166 1.351 . S
C2166 H2128 0.930 . S
C2166 C2134 1.423 . S
C2166 C2165 1.351 . S
C2167 O2151 1.276 . S
C2167 O2154 1.235 . S
C2168 C2169 1.393 . S
C2168 C2172 1.395 . S
C2168 C2175 1.492 . S
C2169 C2168 1.393 . S
C2169 C2170 1.392 . S
C2169 H2180 0.930 . S
C2170 C2169 1.392 . S
C2170 C2171 1.386 . S
C2171 C2170 1.386 . S
C2171 C2173 1.395 . S
C2171 H2181 0.930 . S
C2172 C2168 1.395 . S
C2172 C2173 1.379 . S
C2172 H2182 0.930 . S
C2173 C2171 1.395 . S
C2173 C2172 1.379 . S
C2173 H2183 0.930 . S
C2174 O2152 1.264 . S
C2174 O2153 1.254 . S
C2175 Eu2111 2.848 . S
C2175 O2150 1.257 . S
C2175 O2155 1.249 . S
C2175 C2168 1.492 . S
H2176 C2159 0.930 . S
H2177 C2160 0.930 . S
H2178 C2161 0.930 . S
H2179 C2162 0.930 . S
H2180 C2169 0.930 . S
H2181 C2171 0.930 . S
H2182 C2172 0.930 . S
H2183 C2173 0.930 . S
Eu2184 N2215 2.657 . S
Eu2184 N2222 2.609 . S
Eu2184 O2228 2.558 . S
Eu2184 O2229 2.612 . S
Eu2184 O2231 2.339 . S
Eu2184 O2232 2.563 . S
Eu2184 O2233 2.419 . S
Eu2184 O2235 2.380 . S
Eu2184 O2236 2.432 . S
Eu2184 C2248 2.848 . S
C2185 C2188 1.429 . S
C2185 C2189 1.411 . S
C2185 N2192 1.377 . S
C2186 C2188 1.420 . S
C2186 C2190 1.423 . S
C2186 C2198 1.392 . S
C2187 C2189 1.420 . S
C2187 C2190 1.351 . S
C2187 H2210 0.931 . S
C2188 C2185 1.429 . S
C2188 C2186 1.420 . S
C2188 N2196 1.362 . S
C2189 C2185 1.411 . S
C2189 C2187 1.420 . S
C2189 C2194 1.395 . S
C2190 C2186 1.423 . S
C2190 C2187 1.351 . S
C2190 H2202 0.930 . S
C2191 C2193 1.400 . S
C2191 C2194 1.386 . S
C2191 H2203 0.930 . S
N2192 C2185 1.377 . S
N2192 C2193 1.321 . S
N2192 Eu2195 2.609 . S
C2193 C2191 1.400 . S
C2193 N2192 1.321 . S
C2193 H2200 0.930 . S
C2194 C2189 1.395 . S
C2194 C2191 1.386 . S
C2194 H2213 0.930 . S
Eu2195 N2192 2.609 . S
Eu2195 N2196 2.657 . S
Eu2195 O2229 2.380 . S
Eu2195 O2230 2.432 . S
Eu2195 O2234 2.558 . S
Eu2195 O2235 2.612 . S
Eu2195 O2237 2.339 . S
Eu2195 O2238 2.563 . S
Eu2195 O2239 2.419 . S
Eu2195 C2259 2.848 . S
N2196 C2188 1.362 . S
N2196 Eu2195 2.657 . S
N2196 C2197 1.334 . S
C2197 N2196 1.334 . S
C2197 C2199 1.413 . S
C2197 H2204 0.929 . S
C2198 C2186 1.392 . S
C2198 C2199 1.367 . S
C2198 H2206 0.930 . S
C2199 C2197 1.413 . S
C2199 C2198 1.367 . S
C2199 H2201 0.930 . S
H2200 C2193 0.930 . S
H2201 C2199 0.930 . S
H2202 C2190 0.930 . S
H2203 C2191 0.930 . S
H2204 C2197 0.929 . S
H2205 C2219 0.930 . S
H2206 C2198 0.930 . S
H2207 C2225 0.930 . S
H2208 C2216 0.929 . S
H2209 C2223 0.930 . S
H2210 C2187 0.931 . S
H2211 C2217 0.930 . S
H2212 C2250 0.930 . S
H2213 C2194 0.930 . S
H2214 C2249 0.931 . S
N2215 Eu2184 2.657 . S
N2215 C2216 1.334 . S
N2215 C2220 1.362 . S
C2216 H2208 0.929 . S
C2216 N2215 1.334 . S
C2216 C2219 1.413 . S
C2217 H2211 0.930 . S
C2217 C2218 1.392 . S
C2217 C2219 1.367 . S
C2218 C2217 1.392 . S
C2218 C2220 1.420 . S
C2218 C2250 1.423 . S
C2219 H2205 0.930 . S
C2219 C2216 1.413 . S
C2219 C2217 1.367 . S
C2220 N2215 1.362 . S
C2220 C2218 1.420 . S
C2220 C2224 1.429 . S
H2221 C2226 0.930 . S
N2222 Eu2184 2.609 . S
N2222 C2224 1.377 . S
N2222 C2225 1.321 . S
C2223 H2209 0.930 . S
C2223 C2225 1.400 . S
C2223 C2226 1.386 . S
C2224 C2220 1.429 . S
C2224 N2222 1.377 . S
C2224 C2227 1.411 . S
C2225 H2207 0.930 . S
C2225 N2222 1.321 . S
C2225 C2223 1.400 . S
C2226 H2221 0.930 . S
C2226 C2223 1.386 . S
C2226 C2227 1.395 . S
C2227 C2224 1.411 . S
C2227 C2226 1.395 . S
C2227 C2249 1.420 . S
O2228 Eu2184 2.558 . S
O2228 C2248 1.257 . S
O2229 Eu2184 2.612 . S
O2229 Eu2195 2.380 . S
O2229 C2240 1.276 . S
O2230 Eu2195 2.432 . S
O2230 C2247 1.264 . S
O2231 Eu2184 2.339 . S
O2231 C2247 1.254 . S
O2232 Eu2184 2.563 . S
O2232 C2240 1.235 . S
O2233 Eu2184 2.419 . S
O2233 C2248 1.249 . S
O2234 Eu2195 2.558 . S
O2234 C2259 1.257 . S
O2235 Eu2184 2.380 . S
O2235 Eu2195 2.612 . S
O2235 C2251 1.276 . S
O2236 Eu2184 2.432 . S
O2236 C2258 1.264 . S
O2237 Eu2195 2.339 . S
O2237 C2258 1.254 . S
O2238 Eu2195 2.563 . S
O2238 C2251 1.235 . S
O2239 Eu2195 2.419 . S
O2239 C2259 1.249 . S
C2240 O2229 1.276 . S
C2240 O2232 1.235 . S
C2241 C2243 1.393 . S
C2241 C2245 1.395 . S
C2241 C2248 1.492 . S
C2242 C2243 1.392 . S
C2242 C2244 1.386 . S
C2243 C2241 1.393 . S
C2243 C2242 1.392 . S
C2243 H2260 0.930 . S
C2244 C2242 1.386 . S
C2244 C2246 1.395 . S
C2244 H2261 0.930 . S
C2245 C2241 1.395 . S
C2245 C2246 1.379 . S
C2245 H2262 0.930 . S
C2246 C2244 1.395 . S
C2246 C2245 1.379 . S
C2246 H2263 0.930 . S
C2247 O2230 1.264 . S
C2247 O2231 1.254 . S
C2248 Eu2184 2.848 . S
C2248 O2228 1.257 . S
C2248 O2233 1.249 . S
C2248 C2241 1.492 . S
C2249 H2214 0.931 . S
C2249 C2227 1.420 . S
C2249 C2250 1.351 . S
C2250 H2212 0.930 . S
C2250 C2218 1.423 . S
C2250 C2249 1.351 . S
C2251 O2235 1.276 . S
C2251 O2238 1.235 . S
C2252 C2253 1.393 . S
C2252 C2256 1.395 . S
C2252 C2259 1.492 . S
C2253 C2252 1.393 . S
C2253 C2254 1.392 . S
C2253 H2264 0.930 . S
C2254 C2253 1.392 . S
C2254 C2255 1.386 . S
C2255 C2254 1.386 . S
C2255 C2257 1.395 . S
C2255 H2265 0.930 . S
C2256 C2252 1.395 . S
C2256 C2257 1.379 . S
C2256 H2266 0.930 . S
C2257 C2255 1.395 . S
C2257 C2256 1.379 . S
C2257 H2267 0.930 . S
C2258 O2236 1.264 . S
C2258 O2237 1.254 . S
C2259 Eu2195 2.848 . S
C2259 O2234 1.257 . S
C2259 O2239 1.249 . S
C2259 C2252 1.492 . S
H2260 C2243 0.930 . S
H2261 C2244 0.930 . S
H2262 C2245 0.930 . S
H2263 C2246 0.930 . S
H2264 C2253 0.930 . S
H2265 C2255 0.930 . S
H2266 C2256 0.930 . S
H2267 C2257 0.930 . S
Eu2268 N2299 2.657 . S
Eu2268 N2306 2.609 . S
Eu2268 O2312 2.558 . S
Eu2268 O2313 2.612 . S
Eu2268 O2315 2.339 . S
Eu2268 O2316 2.563 . S
Eu2268 O2317 2.419 . S
Eu2268 O2319 2.380 . S
Eu2268 O2320 2.432 . S
Eu2268 C2332 2.848 . S
C2269 C2272 1.429 . S
C2269 C2273 1.411 . S
C2269 N2276 1.377 1_655 S
C2270 C2272 1.420 . S
C2270 C2274 1.423 . S
C2270 C2282 1.392 . S
C2271 C2273 1.420 . S
C2271 C2274 1.351 . S
C2271 H2294 0.931 . S
C2272 C2269 1.429 . S
C2272 C2270 1.420 . S
C2272 N2280 1.362 . S
C2273 C2269 1.411 . S
C2273 C2271 1.420 . S
C2273 C2278 1.395 . S
C2274 C2270 1.423 . S
C2274 C2271 1.351 . S
C2274 H2286 0.930 . S
C2275 C2277 1.400 1_655 S
C2275 C2278 1.386 . S
C2275 H2287 0.930 1_655 S
N2276 C2269 1.377 1_455 S
N2276 C2277 1.321 . S
N2276 Eu2279 2.609 . S
C2277 C2275 1.400 1_455 S
C2277 N2276 1.321 . S
C2277 H2284 0.930 . S
C2278 C2273 1.395 . S
C2278 C2275 1.386 . S
C2278 H2297 0.930 . S
Eu2279 N2276 2.609 . S
Eu2279 N2280 2.657 1_455 S
Eu2279 O2313 2.380 . S
Eu2279 O2314 2.432 . S
Eu2279 O2318 2.563 . S
Eu2279 O2319 2.612 . S
Eu2279 O2321 2.339 . S
Eu2279 O2322 2.563 . S
Eu2279 O2323 2.419 1_455 S
Eu2279 C2343 2.848 1_455 S
N2280 C2272 1.362 . S
N2280 Eu2279 2.657 1_655 S
N2280 C2281 1.334 . S
C2281 N2280 1.334 . S
C2281 C2283 1.413 . S
C2281 H2288 0.929 . S
C2282 C2270 1.392 . S
C2282 C2283 1.367 . S
C2282 H2290 0.930 . S
C2283 C2281 1.413 . S
C2283 C2282 1.367 . S
C2283 H2285 0.930 . S
H2284 C2277 0.930 . S
H2285 C2283 0.930 . S
H2286 C2274 0.930 . S
H2287 C2275 0.930 1_455 S
H2288 C2281 0.929 . S
H2289 C2303 0.930 . S
H2290 C2282 0.930 . S
H2291 C2309 0.930 . S
H2292 C2300 0.929 . S
H2293 C2307 0.930 . S
H2294 C2271 0.931 . S
H2295 C2301 0.930 . S
H2296 C2334 0.930 . S
H2297 C2278 0.930 . S
H2298 C2333 0.931 . S
N2299 Eu2268 2.657 . S
N2299 C2300 1.334 . S
N2299 C2304 1.362 . S
C2300 H2292 0.929 . S
C2300 N2299 1.334 . S
C2300 C2303 1.413 . S
C2301 H2295 0.930 . S
C2301 C2302 1.392 . S
C2301 C2303 1.367 . S
C2302 C2301 1.392 . S
C2302 C2304 1.420 . S
C2302 C2334 1.423 . S
C2303 H2289 0.930 . S
C2303 C2300 1.413 . S
C2303 C2301 1.367 . S
C2304 N2299 1.362 . S
C2304 C2302 1.420 . S
C2304 C2308 1.429 . S
H2305 C2310 0.930 . S
N2306 Eu2268 2.609 . S
N2306 C2308 1.377 . S
N2306 C2309 1.321 . S
C2307 H2293 0.930 . S
C2307 C2309 1.400 . S
C2307 C2310 1.386 . S
C2308 C2304 1.429 . S
C2308 N2306 1.377 . S
C2308 C2311 1.411 . S
C2309 H2291 0.930 . S
C2309 N2306 1.321 . S
C2309 C2307 1.400 . S
C2310 H2305 0.930 . S
C2310 C2307 1.386 . S
C2310 C2311 1.395 . S
C2311 C2308 1.411 . S
C2311 C2310 1.395 . S
C2311 C2333 1.420 . S
O2312 Eu2268 2.558 . S
O2312 C2332 1.257 . S
O2313 Eu2268 2.612 . S
O2313 Eu2279 2.380 . S
O2313 C2324 1.276 . S
O2314 Eu2279 2.432 . S
O2314 C2331 1.264 . S
O2315 Eu2268 2.339 . S
O2315 C2331 1.254 . S
O2316 Eu2268 2.563 . S
O2316 C2324 1.235 . S
O2317 Eu2268 2.419 . S
O2317 C2332 1.249 . S
O2318 Eu2279 2.563 . S
O2318 C2343 1.248 1_455 S
O2319 Eu2268 2.380 . S
O2319 Eu2279 2.612 . S
O2319 C2335 1.276 . S
O2320 Eu2268 2.432 . S
O2320 C2342 1.264 . S
O2321 Eu2279 2.339 . S
O2321 C2342 1.254 . S
O2322 Eu2279 2.563 . S
O2322 C2335 1.235 . S
O2323 Eu2279 2.419 1_655 S
O2323 C2343 1.249 . S
C2324 O2313 1.276 . S
C2324 O2316 1.235 . S
C2325 C2327 1.393 . S
C2325 C2329 1.395 . S
C2325 C2332 1.492 . S
C2326 C2327 1.392 . S
C2326 C2328 1.386 . S
C2327 C2325 1.393 . S
C2327 C2326 1.392 . S
C2327 H2344 0.930 . S
C2328 C2326 1.386 . S
C2328 C2330 1.395 . S
C2328 H2345 0.930 . S
C2329 C2325 1.395 . S
C2329 C2330 1.379 . S
C2329 H2346 0.930 . S
C2330 C2328 1.395 . S
C2330 C2329 1.379 . S
C2330 H2347 0.930 . S
C2331 O2314 1.264 . S
C2331 O2315 1.254 . S
C2332 Eu2268 2.848 . S
C2332 O2312 1.257 . S
C2332 O2317 1.249 . S
C2332 C2325 1.492 . S
C2333 H2298 0.931 . S
C2333 C2311 1.420 . S
C2333 C2334 1.351 . S
C2334 H2296 0.930 . S
C2334 C2302 1.423 . S
C2334 C2333 1.351 . S
C2335 O2319 1.276 . S
C2335 O2322 1.235 . S
C2336 C2337 1.393 . S
C2336 C2340 1.395 . S
C2336 C2343 1.492 . S
C2337 C2336 1.393 . S
C2337 C2338 1.392 . S
C2337 H2348 0.930 . S
C2338 C2337 1.392 . S
C2338 C2339 1.386 . S
C2339 C2338 1.386 . S
C2339 C2341 1.395 . S
C2339 H2349 0.930 . S
C2340 C2336 1.395 . S
C2340 C2341 1.379 . S
C2340 H2350 0.930 . S
C2341 C2339 1.395 . S
C2341 C2340 1.379 . S
C2341 H2351 0.930 . S
C2342 O2320 1.264 . S
C2342 O2321 1.254 . S
C2343 Eu2279 2.848 1_655 S
C2343 O2318 1.248 1_655 S
C2343 O2323 1.249 . S
C2343 C2336 1.492 . S
H2344 C2327 0.930 . S
H2345 C2328 0.930 . S
H2346 C2329 0.930 . S
H2347 C2330 0.930 . S
H2348 C2337 0.930 . S
H2349 C2339 0.930 . S
H2350 C2340 0.930 . S
H2351 C2341 0.930 . S
Eu2352 N2383 2.657 . S
Eu2352 N2390 2.609 . S
Eu2352 O2396 2.558 . S
Eu2352 O2397 2.612 . S
Eu2352 O2399 2.339 . S
Eu2352 O2400 2.563 . S
Eu2352 O2401 2.419 . S
Eu2352 O2403 2.380 . S
Eu2352 O2404 2.432 . S
Eu2352 C2416 2.848 . S
C2353 C2356 1.429 . S
C2353 C2357 1.411 . S
C2353 N2360 1.377 . S
C2354 C2356 1.420 . S
C2354 C2358 1.423 . S
C2354 C2366 1.392 . S
C2355 C2357 1.420 . S
C2355 C2358 1.351 . S
C2355 H2378 0.931 . S
C2356 C2353 1.429 . S
C2356 C2354 1.420 . S
C2356 N2364 1.362 . S
C2357 C2353 1.411 . S
C2357 C2355 1.420 . S
C2357 C2362 1.395 . S
C2358 C2354 1.423 . S
C2358 C2355 1.351 . S
C2358 H2370 0.930 . S
C2359 C2361 1.400 . S
C2359 C2362 1.386 . S
C2359 H2371 0.930 . S
N2360 C2353 1.377 . S
N2360 C2361 1.321 . S
N2360 Eu2363 2.609 . S
C2361 C2359 1.400 . S
C2361 N2360 1.321 . S
C2361 H2368 0.930 . S
C2362 C2357 1.395 . S
C2362 C2359 1.386 . S
C2362 H2381 0.930 . S
Eu2363 N2360 2.609 . S
Eu2363 N2364 2.657 . S
Eu2363 O2397 2.380 . S
Eu2363 O2398 2.432 . S
Eu2363 O2402 2.558 . S
Eu2363 O2403 2.612 . S
Eu2363 O2405 2.339 . S
Eu2363 O2406 2.563 . S
Eu2363 O2407 2.419 . S
Eu2363 C2427 2.848 . S
N2364 C2356 1.362 . S
N2364 Eu2363 2.657 . S
N2364 C2365 1.334 . S
C2365 N2364 1.334 . S
C2365 C2367 1.413 . S
C2365 H2372 0.929 . S
C2366 C2354 1.392 . S
C2366 C2367 1.367 . S
C2366 H2374 0.930 . S
C2367 C2365 1.413 . S
C2367 C2366 1.367 . S
C2367 H2369 0.930 . S
H2368 C2361 0.930 . S
H2369 C2367 0.930 . S
H2370 C2358 0.930 . S
H2371 C2359 0.930 . S
H2372 C2365 0.929 . S
H2373 C2387 0.930 . S
H2374 C2366 0.930 . S
H2375 C2393 0.930 . S
H2376 C2384 0.929 . S
H2377 C2391 0.930 . S
H2378 C2355 0.931 . S
H2379 C2385 0.930 . S
H2380 C2418 0.930 . S
H2381 C2362 0.930 . S
H2382 C2417 0.931 . S
N2383 Eu2352 2.657 . S
N2383 C2384 1.334 . S
N2383 C2388 1.362 . S
C2384 H2376 0.929 . S
C2384 N2383 1.334 . S
C2384 C2387 1.413 . S
C2385 H2379 0.930 . S
C2385 C2386 1.392 . S
C2385 C2387 1.367 . S
C2386 C2385 1.392 . S
C2386 C2388 1.420 . S
C2386 C2418 1.423 . S
C2387 H2373 0.930 . S
C2387 C2384 1.413 . S
C2387 C2385 1.367 . S
C2388 N2383 1.362 . S
C2388 C2386 1.420 . S
C2388 C2392 1.429 . S
H2389 C2394 0.930 . S
N2390 Eu2352 2.609 . S
N2390 C2392 1.377 . S
N2390 C2393 1.321 . S
C2391 H2377 0.930 . S
C2391 C2393 1.400 . S
C2391 C2394 1.386 . S
C2392 C2388 1.429 . S
C2392 N2390 1.377 . S
C2392 C2395 1.411 . S
C2393 H2375 0.930 . S
C2393 N2390 1.321 . S
C2393 C2391 1.400 . S
C2394 H2389 0.930 . S
C2394 C2391 1.386 . S
C2394 C2395 1.395 . S
C2395 C2392 1.411 . S
C2395 C2394 1.395 . S
C2395 C2417 1.420 . S
O2396 Eu2352 2.558 . S
O2396 C2416 1.257 . S
O2397 Eu2352 2.612 . S
O2397 Eu2363 2.380 . S
O2397 C2408 1.276 . S
O2398 Eu2363 2.432 . S
O2398 C2415 1.264 . S
O2399 Eu2352 2.339 . S
O2399 C2415 1.254 . S
O2400 Eu2352 2.563 . S
O2400 C2408 1.235 . S
O2401 Eu2352 2.419 . S
O2401 C2416 1.249 . S
O2402 Eu2363 2.558 . S
O2402 C2427 1.257 . S
O2403 Eu2352 2.380 . S
O2403 Eu2363 2.612 . S
O2403 C2419 1.276 . S
O2404 Eu2352 2.432 . S
O2404 C2426 1.264 . S
O2405 Eu2363 2.339 . S
O2405 C2426 1.254 . S
O2406 Eu2363 2.563 . S
O2406 C2419 1.235 . S
O2407 Eu2363 2.419 . S
O2407 C2427 1.249 . S
C2408 O2397 1.276 . S
C2408 O2400 1.235 . S
C2409 C2411 1.393 . S
C2409 C2413 1.395 . S
C2409 C2416 1.492 . S
C2410 C2411 1.392 . S
C2410 C2412 1.386 . S
C2411 C2409 1.393 . S
C2411 C2410 1.392 . S
C2411 H2428 0.930 . S
C2412 C2410 1.386 . S
C2412 C2414 1.395 . S
C2412 H2429 0.930 . S
C2413 C2409 1.395 . S
C2413 C2414 1.379 . S
C2413 H2430 0.930 . S
C2414 C2412 1.395 . S
C2414 C2413 1.379 . S
C2414 H2431 0.930 . S
C2415 O2398 1.264 . S
C2415 O2399 1.254 . S
C2416 Eu2352 2.848 . S
C2416 O2396 1.257 . S
C2416 O2401 1.249 . S
C2416 C2409 1.492 . S
C2417 H2382 0.931 . S
C2417 C2395 1.420 . S
C2417 C2418 1.351 . S
C2418 H2380 0.930 . S
C2418 C2386 1.423 . S
C2418 C2417 1.351 . S
C2419 O2403 1.276 . S
C2419 O2406 1.235 . S
C2420 C2421 1.393 . S
C2420 C2424 1.395 . S
C2420 C2427 1.492 . S
C2421 C2420 1.393 . S
C2421 C2422 1.392 . S
C2421 H2432 0.930 . S
C2422 C2421 1.392 . S
C2422 C2423 1.386 . S
C2423 C2422 1.386 . S
C2423 C2425 1.395 . S
C2423 H2433 0.930 . S
C2424 C2420 1.395 . S
C2424 C2425 1.379 . S
C2424 H2434 0.930 . S
C2425 C2423 1.395 . S
C2425 C2424 1.379 . S
C2425 H2435 0.930 . S
C2426 O2404 1.264 . S
C2426 O2405 1.254 . S
C2427 Eu2363 2.848 . S
C2427 O2402 1.257 . S
C2427 O2407 1.249 . S
C2427 C2420 1.492 . S
H2428 C2411 0.930 . S
H2429 C2412 0.930 . S
H2430 C2413 0.930 . S
H2431 C2414 0.930 . S
H2432 C2421 0.930 . S
H2433 C2423 0.930 . S
H2434 C2424 0.930 . S
H2435 C2425 0.930 . S
Eu2436 N2467 2.657 . S
Eu2436 N2474 2.609 . S
Eu2436 O2480 2.558 . S
Eu2436 O2481 2.612 . S
Eu2436 O2483 2.339 . S
Eu2436 O2484 2.563 . S
Eu2436 O2485 2.419 . S
Eu2436 O2487 2.380 . S
Eu2436 O2488 2.432 . S
Eu2436 C2500 2.848 . S
C2437 C2440 1.429 . S
C2437 C2441 1.411 . S
C2437 N2444 1.377 1_655 S
C2438 C2440 1.420 . S
C2438 C2442 1.423 . S
C2438 C2450 1.392 . S
C2439 C2441 1.420 . S
C2439 C2442 1.351 . S
C2439 H2462 0.931 . S
C2440 C2437 1.429 . S
C2440 C2438 1.420 . S
C2440 N2448 1.362 . S
C2441 C2437 1.411 . S
C2441 C2439 1.420 . S
C2441 C2446 1.395 . S
C2442 C2438 1.423 . S
C2442 C2439 1.351 . S
C2442 H2454 0.930 . S
C2443 C2445 1.400 1_655 S
C2443 C2446 1.386 . S
C2443 H2455 0.930 1_655 S
N2444 C2437 1.377 1_455 S
N2444 C2445 1.321 . S
N2444 Eu2447 2.609 . S
C2445 C2443 1.400 1_455 S
C2445 N2444 1.321 . S
C2445 H2452 0.930 . S
C2446 C2441 1.395 . S
C2446 C2443 1.386 . S
C2446 H2465 0.930 . S
Eu2447 N2444 2.609 . S
Eu2447 N2448 2.657 1_455 S
Eu2447 O2481 2.380 . S
Eu2447 O2482 2.432 . S
Eu2447 O2486 2.563 . S
Eu2447 O2487 2.612 . S
Eu2447 O2489 2.339 . S
Eu2447 O2490 2.563 . S
Eu2447 O2491 2.419 1_455 S
Eu2447 C2511 2.848 1_455 S
N2448 C2440 1.362 . S
N2448 Eu2447 2.657 1_655 S
N2448 C2449 1.334 . S
C2449 N2448 1.334 . S
C2449 C2451 1.413 . S
C2449 H2456 0.929 . S
C2450 C2438 1.392 . S
C2450 C2451 1.367 . S
C2450 H2458 0.930 . S
C2451 C2449 1.413 . S
C2451 C2450 1.367 . S
C2451 H2453 0.930 . S
H2452 C2445 0.930 . S
H2453 C2451 0.930 . S
H2454 C2442 0.930 . S
H2455 C2443 0.930 1_455 S
H2456 C2449 0.929 . S
H2457 C2471 0.930 . S
H2458 C2450 0.930 . S
H2459 C2477 0.930 . S
H2460 C2468 0.929 . S
H2461 C2475 0.930 . S
H2462 C2439 0.931 . S
H2463 C2469 0.930 . S
H2464 C2502 0.930 . S
H2465 C2446 0.930 . S
H2466 C2501 0.931 . S
N2467 Eu2436 2.657 . S
N2467 C2468 1.334 . S
N2467 C2472 1.362 . S
C2468 H2460 0.929 . S
C2468 N2467 1.334 . S
C2468 C2471 1.413 . S
C2469 H2463 0.930 . S
C2469 C2470 1.392 . S
C2469 C2471 1.367 . S
C2470 C2469 1.392 . S
C2470 C2472 1.420 . S
C2470 C2502 1.423 . S
C2471 H2457 0.930 . S
C2471 C2468 1.413 . S
C2471 C2469 1.367 . S
C2472 N2467 1.362 . S
C2472 C2470 1.420 . S
C2472 C2476 1.429 . S
H2473 C2478 0.930 . S
N2474 Eu2436 2.609 . S
N2474 C2476 1.377 . S
N2474 C2477 1.321 . S
C2475 H2461 0.930 . S
C2475 C2477 1.400 . S
C2475 C2478 1.386 . S
C2476 C2472 1.429 . S
C2476 N2474 1.377 . S
C2476 C2479 1.411 . S
C2477 H2459 0.930 . S
C2477 N2474 1.321 . S
C2477 C2475 1.400 . S
C2478 H2473 0.930 . S
C2478 C2475 1.386 . S
C2478 C2479 1.395 . S
C2479 C2476 1.411 . S
C2479 C2478 1.395 . S
C2479 C2501 1.420 . S
O2480 Eu2436 2.558 . S
O2480 C2500 1.257 . S
O2481 Eu2436 2.612 . S
O2481 Eu2447 2.380 . S
O2481 C2492 1.276 . S
O2482 Eu2447 2.432 . S
O2482 C2499 1.264 . S
O2483 Eu2436 2.339 . S
O2483 C2499 1.254 . S
O2484 Eu2436 2.563 . S
O2484 C2492 1.235 . S
O2485 Eu2436 2.419 . S
O2485 C2500 1.249 . S
O2486 Eu2447 2.563 . S
O2486 C2511 1.248 1_455 S
O2487 Eu2436 2.380 . S
O2487 Eu2447 2.612 . S
O2487 C2503 1.276 . S
O2488 Eu2436 2.432 . S
O2488 C2510 1.264 . S
O2489 Eu2447 2.339 . S
O2489 C2510 1.254 . S
O2490 Eu2447 2.563 . S
O2490 C2503 1.235 . S
O2491 Eu2447 2.419 1_655 S
O2491 C2511 1.249 . S
C2492 O2481 1.276 . S
C2492 O2484 1.235 . S
C2493 C2495 1.393 . S
C2493 C2497 1.395 . S
C2493 C2500 1.492 . S
C2494 C2495 1.392 . S
C2494 C2496 1.386 . S
C2495 C2493 1.393 . S
C2495 C2494 1.392 . S
C2495 H2512 0.930 . S
C2496 C2494 1.386 . S
C2496 C2498 1.395 . S
C2496 H2513 0.930 . S
C2497 C2493 1.395 . S
C2497 C2498 1.379 . S
C2497 H2514 0.930 . S
C2498 C2496 1.395 . S
C2498 C2497 1.379 . S
C2498 H2515 0.930 . S
C2499 O2482 1.264 . S
C2499 O2483 1.254 . S
C2500 Eu2436 2.848 . S
C2500 O2480 1.257 . S
C2500 O2485 1.249 . S
C2500 C2493 1.492 . S
C2501 H2466 0.931 . S
C2501 C2479 1.420 . S
C2501 C2502 1.351 . S
C2502 H2464 0.930 . S
C2502 C2470 1.423 . S
C2502 C2501 1.351 . S
C2503 O2487 1.276 . S
C2503 O2490 1.235 . S
C2504 C2505 1.393 . S
C2504 C2508 1.395 . S
C2504 C2511 1.492 . S
C2505 C2504 1.393 . S
C2505 C2506 1.392 . S
C2505 H2516 0.930 . S
C2506 C2505 1.392 . S
C2506 C2507 1.386 . S
C2507 C2506 1.386 . S
C2507 C2509 1.395 . S
C2507 H2517 0.930 . S
C2508 C2504 1.395 . S
C2508 C2509 1.379 . S
C2508 H2518 0.930 . S
C2509 C2507 1.395 . S
C2509 C2508 1.379 . S
C2509 H2519 0.930 . S
C2510 O2488 1.264 . S
C2510 O2489 1.254 . S
C2511 Eu2447 2.848 1_655 S
C2511 O2486 1.248 1_655 S
C2511 O2491 1.249 . S
C2511 C2504 1.492 . S
H2512 C2495 0.930 . S
H2513 C2496 0.930 . S
H2514 C2497 0.930 . S
H2515 C2498 0.930 . S
H2516 C2505 0.930 . S
H2517 C2507 0.930 . S
H2518 C2508 0.930 . S
H2519 C2509 0.930 . S
Eu2520 N2551 2.657 . S
Eu2520 N2558 2.609 . S
Eu2520 O2564 2.558 . S
Eu2520 O2565 2.612 . S
Eu2520 O2567 2.339 . S
Eu2520 O2568 2.563 . S
Eu2520 O2569 2.419 . S
Eu2520 O2571 2.380 . S
Eu2520 O2572 2.432 . S
Eu2520 C2584 2.848 . S
C2521 C2524 1.429 . S
C2521 C2525 1.411 . S
C2521 N2528 1.377 . S
C2522 C2524 1.420 . S
C2522 C2526 1.423 . S
C2522 C2534 1.392 . S
C2523 C2525 1.420 . S
C2523 C2526 1.351 . S
C2523 H2546 0.931 . S
C2524 C2521 1.429 . S
C2524 C2522 1.420 . S
C2524 N2532 1.362 . S
C2525 C2521 1.411 . S
C2525 C2523 1.420 . S
C2525 C2530 1.395 . S
C2526 C2522 1.423 . S
C2526 C2523 1.351 . S
C2526 H2538 0.930 . S
C2527 C2529 1.400 . S
C2527 C2530 1.386 . S
C2527 H2539 0.930 . S
N2528 C2521 1.377 . S
N2528 C2529 1.321 . S
N2528 Eu2531 2.609 . S
C2529 C2527 1.400 . S
C2529 N2528 1.321 . S
C2529 H2536 0.930 . S
C2530 C2525 1.395 . S
C2530 C2527 1.386 . S
C2530 H2549 0.930 . S
Eu2531 N2528 2.609 . S
Eu2531 N2532 2.657 . S
Eu2531 O2565 2.380 . S
Eu2531 O2566 2.432 . S
Eu2531 O2570 2.558 . S
Eu2531 O2571 2.612 . S
Eu2531 O2573 2.339 . S
Eu2531 O2574 2.563 . S
Eu2531 O2575 2.419 . S
Eu2531 C2595 2.848 . S
N2532 C2524 1.362 . S
N2532 Eu2531 2.657 . S
N2532 C2533 1.334 . S
C2533 N2532 1.334 . S
C2533 C2535 1.413 . S
C2533 H2540 0.929 . S
C2534 C2522 1.392 . S
C2534 C2535 1.367 . S
C2534 H2542 0.930 . S
C2535 C2533 1.413 . S
C2535 C2534 1.367 . S
C2535 H2537 0.930 . S
H2536 C2529 0.930 . S
H2537 C2535 0.930 . S
H2538 C2526 0.930 . S
H2539 C2527 0.930 . S
H2540 C2533 0.929 . S
H2541 C2555 0.930 . S
H2542 C2534 0.930 . S
H2543 C2561 0.930 . S
H2544 C2552 0.929 . S
H2545 C2559 0.930 . S
H2546 C2523 0.931 . S
H2547 C2553 0.930 . S
H2548 C2586 0.930 . S
H2549 C2530 0.930 . S
H2550 C2585 0.931 . S
N2551 Eu2520 2.657 . S
N2551 C2552 1.334 . S
N2551 C2556 1.362 . S
C2552 H2544 0.929 . S
C2552 N2551 1.334 . S
C2552 C2555 1.413 . S
C2553 H2547 0.930 . S
C2553 C2554 1.392 . S
C2553 C2555 1.367 . S
C2554 C2553 1.392 . S
C2554 C2556 1.420 . S
C2554 C2586 1.423 . S
C2555 H2541 0.930 . S
C2555 C2552 1.413 . S
C2555 C2553 1.367 . S
C2556 N2551 1.362 . S
C2556 C2554 1.420 . S
C2556 C2560 1.429 . S
H2557 C2562 0.930 . S
N2558 Eu2520 2.609 . S
N2558 C2560 1.377 . S
N2558 C2561 1.321 . S
C2559 H2545 0.930 . S
C2559 C2561 1.400 . S
C2559 C2562 1.386 . S
C2560 C2556 1.429 . S
C2560 N2558 1.377 . S
C2560 C2563 1.411 . S
C2561 H2543 0.930 . S
C2561 N2558 1.321 . S
C2561 C2559 1.400 . S
C2562 H2557 0.930 . S
C2562 C2559 1.386 . S
C2562 C2563 1.395 . S
C2563 C2560 1.411 . S
C2563 C2562 1.395 . S
C2563 C2585 1.420 . S
O2564 Eu2520 2.558 . S
O2564 C2584 1.257 . S
O2565 Eu2520 2.612 . S
O2565 Eu2531 2.380 . S
O2565 C2576 1.276 . S
O2566 Eu2531 2.432 . S
O2566 C2583 1.264 . S
O2567 Eu2520 2.339 . S
O2567 C2583 1.254 . S
O2568 Eu2520 2.563 . S
O2568 C2576 1.235 . S
O2569 Eu2520 2.419 . S
O2569 C2584 1.249 . S
O2570 Eu2531 2.558 . S
O2570 C2595 1.257 . S
O2571 Eu2520 2.380 . S
O2571 Eu2531 2.612 . S
O2571 C2587 1.276 . S
O2572 Eu2520 2.432 . S
O2572 C2594 1.264 . S
O2573 Eu2531 2.339 . S
O2573 C2594 1.254 . S
O2574 Eu2531 2.563 . S
O2574 C2587 1.235 . S
O2575 Eu2531 2.419 . S
O2575 C2595 1.249 . S
C2576 O2565 1.276 . S
C2576 O2568 1.235 . S
C2577 C2579 1.393 . S
C2577 C2581 1.395 . S
C2577 C2584 1.492 . S
C2578 C2579 1.392 . S
C2578 C2580 1.386 . S
C2579 C2577 1.393 . S
C2579 C2578 1.392 . S
C2579 H2596 0.930 . S
C2580 C2578 1.386 . S
C2580 C2582 1.395 . S
C2580 H2597 0.930 . S
C2581 C2577 1.395 . S
C2581 C2582 1.379 . S
C2581 H2598 0.930 . S
C2582 C2580 1.395 . S
C2582 C2581 1.379 . S
C2582 H2599 0.930 . S
C2583 O2566 1.264 . S
C2583 O2567 1.254 . S
C2584 Eu2520 2.848 . S
C2584 O2564 1.257 . S
C2584 O2569 1.249 . S
C2584 C2577 1.492 . S
C2585 H2550 0.931 . S
C2585 C2563 1.420 . S
C2585 C2586 1.351 . S
C2586 H2548 0.930 . S
C2586 C2554 1.423 . S
C2586 C2585 1.351 . S
C2587 O2571 1.276 . S
C2587 O2574 1.235 . S
C2588 C2589 1.393 . S
C2588 C2592 1.395 . S
C2588 C2595 1.492 . S
C2589 C2588 1.393 . S
C2589 C2590 1.392 . S
C2589 H2600 0.930 . S
C2590 C2589 1.392 . S
C2590 C2591 1.386 . S
C2591 C2590 1.386 . S
C2591 C2593 1.395 . S
C2591 H2601 0.930 . S
C2592 C2588 1.395 . S
C2592 C2593 1.379 . S
C2592 H2602 0.930 . S
C2593 C2591 1.395 . S
C2593 C2592 1.379 . S
C2593 H2603 0.930 . S
C2594 O2572 1.264 . S
C2594 O2573 1.254 . S
C2595 Eu2531 2.848 . S
C2595 O2570 1.257 . S
C2595 O2575 1.249 . S
C2595 C2588 1.492 . S
H2596 C2579 0.930 . S
H2597 C2580 0.930 . S
H2598 C2581 0.930 . S
H2599 C2582 0.930 . S
H2600 C2589 0.930 . S
H2601 C2591 0.930 . S
H2602 C2592 0.930 . S
H2603 C2593 0.930 . S
Eu2604 N2635 2.657 . S
Eu2604 N2642 2.609 . S
Eu2604 O2648 2.558 . S
Eu2604 O2649 2.612 . S
Eu2604 O2651 2.339 . S
Eu2604 O2652 2.563 . S
Eu2604 O2653 2.419 . S
Eu2604 O2655 2.380 . S
Eu2604 O2656 2.432 . S
Eu2604 C2668 2.848 . S
C2605 C2608 1.429 . S
C2605 C2609 1.411 . S
C2605 N2612 1.377 . S
C2606 C2608 1.420 . S
C2606 C2610 1.423 . S
C2606 C2618 1.392 . S
C2607 C2609 1.420 . S
C2607 C2610 1.351 . S
C2607 H2630 0.931 . S
C2608 C2605 1.429 . S
C2608 C2606 1.420 . S
C2608 N2616 1.362 . S
C2609 C2605 1.411 . S
C2609 C2607 1.420 . S
C2609 C2614 1.395 . S
C2610 C2606 1.423 . S
C2610 C2607 1.351 . S
C2610 H2622 0.930 . S
C2611 C2613 1.400 . S
C2611 C2614 1.386 . S
C2611 H2623 0.930 . S
N2612 C2605 1.377 . S
N2612 C2613 1.321 . S
N2612 Eu2615 2.609 . S
C2613 C2611 1.400 . S
C2613 N2612 1.321 . S
C2613 H2620 0.930 . S
C2614 C2609 1.395 . S
C2614 C2611 1.386 . S
C2614 H2633 0.930 . S
Eu2615 N2612 2.609 . S
Eu2615 N2616 2.657 . S
Eu2615 O2649 2.380 . S
Eu2615 O2650 2.432 . S
Eu2615 O2654 2.558 . S
Eu2615 O2655 2.612 . S
Eu2615 O2657 2.339 . S
Eu2615 O2658 2.563 . S
Eu2615 O2659 2.419 . S
Eu2615 C2679 2.848 . S
N2616 C2608 1.362 . S
N2616 Eu2615 2.657 . S
N2616 C2617 1.334 . S
C2617 N2616 1.334 . S
C2617 C2619 1.413 . S
C2617 H2624 0.929 . S
C2618 C2606 1.392 . S
C2618 C2619 1.367 . S
C2618 H2626 0.930 . S
C2619 C2617 1.413 . S
C2619 C2618 1.367 . S
C2619 H2621 0.930 . S
H2620 C2613 0.930 . S
H2621 C2619 0.930 . S
H2622 C2610 0.930 . S
H2623 C2611 0.930 . S
H2624 C2617 0.929 . S
H2625 C2639 0.930 . S
H2626 C2618 0.930 . S
H2627 C2645 0.930 . S
H2628 C2636 0.929 . S
H2629 C2643 0.930 . S
H2630 C2607 0.931 . S
H2631 C2637 0.930 . S
H2632 C2670 0.930 . S
H2633 C2614 0.930 . S
H2634 C2669 0.931 . S
N2635 Eu2604 2.657 . S
N2635 C2636 1.334 . S
N2635 C2640 1.362 . S
C2636 H2628 0.929 . S
C2636 N2635 1.334 . S
C2636 C2639 1.413 . S
C2637 H2631 0.930 . S
C2637 C2638 1.392 . S
C2637 C2639 1.367 . S
C2638 C2637 1.392 . S
C2638 C2640 1.420 . S
C2638 C2670 1.423 . S
C2639 H2625 0.930 . S
C2639 C2636 1.413 . S
C2639 C2637 1.367 . S
C2640 N2635 1.362 . S
C2640 C2638 1.420 . S
C2640 C2644 1.429 . S
H2641 C2646 0.930 . S
N2642 Eu2604 2.609 . S
N2642 C2644 1.377 . S
N2642 C2645 1.321 . S
C2643 H2629 0.930 . S
C2643 C2645 1.400 . S
C2643 C2646 1.386 . S
C2644 C2640 1.429 . S
C2644 N2642 1.377 . S
C2644 C2647 1.411 . S
C2645 H2627 0.930 . S
C2645 N2642 1.321 . S
C2645 C2643 1.400 . S
C2646 H2641 0.930 . S
C2646 C2643 1.386 . S
C2646 C2647 1.395 . S
C2647 C2644 1.411 . S
C2647 C2646 1.395 . S
C2647 C2669 1.420 . S
O2648 Eu2604 2.558 . S
O2648 C2668 1.257 . S
O2649 Eu2604 2.612 . S
O2649 Eu2615 2.380 . S
O2649 C2660 1.276 . S
O2650 Eu2615 2.432 . S
O2650 C2667 1.264 . S
O2651 Eu2604 2.339 . S
O2651 C2667 1.254 . S
O2652 Eu2604 2.563 . S
O2652 C2660 1.235 . S
O2653 Eu2604 2.419 . S
O2653 C2668 1.249 . S
O2654 Eu2615 2.558 . S
O2654 C2679 1.257 . S
O2655 Eu2604 2.380 . S
O2655 Eu2615 2.612 . S
O2655 C2671 1.276 . S
O2656 Eu2604 2.432 . S
O2656 C2678 1.264 . S
O2657 Eu2615 2.339 . S
O2657 C2678 1.254 . S
O2658 Eu2615 2.563 . S
O2658 C2671 1.235 . S
O2659 Eu2615 2.419 . S
O2659 C2679 1.249 . S
C2660 O2649 1.276 . S
C2660 O2652 1.235 . S
C2661 C2663 1.393 . S
C2661 C2665 1.395 . S
C2661 C2668 1.492 . S
C2662 C2663 1.392 . S
C2662 C2664 1.386 . S
C2663 C2661 1.393 . S
C2663 C2662 1.392 . S
C2663 H2680 0.930 . S
C2664 C2662 1.386 . S
C2664 C2666 1.395 . S
C2664 H2681 0.930 . S
C2665 C2661 1.395 . S
C2665 C2666 1.379 . S
C2665 H2682 0.930 . S
C2666 C2664 1.395 . S
C2666 C2665 1.379 . S
C2666 H2683 0.930 . S
C2667 O2650 1.264 . S
C2667 O2651 1.254 . S
C2668 Eu2604 2.848 . S
C2668 O2648 1.257 . S
C2668 O2653 1.249 . S
C2668 C2661 1.492 . S
C2669 H2634 0.931 . S
C2669 C2647 1.420 . S
C2669 C2670 1.351 . S
C2670 H2632 0.930 . S
C2670 C2638 1.423 . S
C2670 C2669 1.351 . S
C2671 O2655 1.276 . S
C2671 O2658 1.235 . S
C2672 C2673 1.393 . S
C2672 C2676 1.395 . S
C2672 C2679 1.492 . S
C2673 C2672 1.393 . S
C2673 C2674 1.392 . S
C2673 H2684 0.930 . S
C2674 C2673 1.392 . S
C2674 C2675 1.386 . S
C2675 C2674 1.386 . S
C2675 C2677 1.395 . S
C2675 H2685 0.930 . S
C2676 C2672 1.395 . S
C2676 C2677 1.379 . S
C2676 H2686 0.930 . S
C2677 C2675 1.395 . S
C2677 C2676 1.379 . S
C2677 H2687 0.930 . S
C2678 O2656 1.264 . S
C2678 O2657 1.254 . S
C2679 Eu2615 2.848 . S
C2679 O2654 1.257 . S
C2679 O2659 1.249 . S
C2679 C2672 1.492 . S
H2680 C2663 0.930 . S
H2681 C2664 0.930 . S
H2682 C2665 0.930 . S
H2683 C2666 0.930 . S
H2684 C2673 0.930 . S
H2685 C2675 0.930 . S
H2686 C2676 0.930 . S
H2687 C2677 0.930 . S
H2688 C2694 0.930 . S
H2689 C2698 0.930 . S
H2690 C2703 0.929 . S
H2691 C2701 0.929 . S
H2692 C2696 0.929 . S
H2693 C2702 0.929 . S
C2694 H2688 0.930 . S
C2694 C2695 1.367 . S
C2694 C2702 1.378 . S
C2695 C2694 1.367 . S
C2695 C2703 1.433 . S
C2696 H2692 0.929 . S
C2696 C2698 1.378 . S
C2696 C2700 1.350 . S
C2697 C2700 1.463 . S
C2697 C2702 1.350 . S
C2697 N2705 1.427 . S
C2698 H2689 0.930 . S
C2698 C2696 1.378 . S
C2698 C2699 1.367 . S
C2699 C2698 1.367 . S
C2699 C2701 1.433 . S
C2700 C2696 1.350 . S
C2700 C2697 1.463 . S
C2700 N2704 1.427 . S
C2701 H2691 0.929 . S
C2701 C2699 1.433 . S
C2701 N2704 1.384 . S
C2702 H2693 0.929 . S
C2702 C2694 1.378 . S
C2702 C2697 1.350 . S
C2703 H2690 0.929 . S
C2703 C2695 1.433 . S
C2703 N2705 1.384 . S
N2704 C2700 1.427 . S
N2704 C2701 1.384 . S
N2705 C2697 1.427 . S
N2705 C2703 1.384 . S
H2706 C2712 0.930 . S
H2707 C2716 0.930 . S
H2708 C2721 0.929 . S
H2709 C2719 0.929 . S
H2710 C2714 0.929 . S
H2711 C2720 0.929 . S
C2712 H2706 0.930 . S
C2712 C2713 1.367 . S
C2712 C2720 1.378 . S
C2713 C2712 1.367 . S
C2713 C2721 1.433 . S
C2714 H2710 0.929 . S
C2714 C2716 1.378 . S
C2714 C2718 1.350 . S
C2715 C2718 1.463 . S
C2715 C2720 1.350 . S
C2715 N2723 1.427 . S
C2716 H2707 0.930 . S
C2716 C2714 1.378 . S
C2716 C2717 1.367 . S
C2717 C2716 1.367 . S
C2717 C2719 1.433 . S
C2718 C2714 1.350 . S
C2718 C2715 1.463 . S
C2718 N2722 1.427 . S
C2719 H2709 0.929 . S
C2719 C2717 1.433 . S
C2719 N2722 1.384 . S
C2720 H2711 0.929 . S
C2720 C2712 1.378 . S
C2720 C2715 1.350 . S
C2721 H2708 0.929 . S
C2721 C2713 1.433 . S
C2721 N2723 1.384 . S
N2722 C2718 1.427 . S
N2722 C2719 1.384 . S
N2723 C2715 1.427 . S
N2723 C2721 1.384 . S
H2724 C2730 0.930 . S
H2725 C2734 0.930 . S
H2726 C2739 0.929 . S
H2727 C2737 0.929 . S
H2728 C2732 0.929 . S
H2729 C2738 0.929 . S
C2730 H2724 0.930 . S
C2730 C2731 1.367 . S
C2730 C2738 1.378 . S
C2731 C2730 1.367 . S
C2731 C2739 1.433 . S
C2732 H2728 0.929 . S
C2732 C2734 1.378 . S
C2732 C2736 1.350 . S
C2733 C2736 1.463 . S
C2733 C2738 1.350 . S
C2733 N2741 1.427 . S
C2734 H2725 0.930 . S
C2734 C2732 1.378 . S
C2734 C2735 1.367 . S
C2735 C2734 1.367 . S
C2735 C2737 1.433 . S
C2736 C2732 1.350 . S
C2736 C2733 1.463 . S
C2736 N2740 1.427 . S
C2737 H2727 0.929 . S
C2737 C2735 1.433 . S
C2737 N2740 1.384 . S
C2738 H2729 0.929 . S
C2738 C2730 1.378 . S
C2738 C2733 1.350 . S
C2739 H2726 0.929 . S
C2739 C2731 1.433 . S
C2739 N2741 1.384 . S
N2740 C2736 1.427 . S
N2740 C2737 1.384 . S
N2741 C2733 1.427 . S
N2741 C2739 1.384 . S
H2742 C2748 0.930 . S
H2743 C2752 0.930 . S
H2744 C2757 0.929 . S
H2745 C2755 0.929 . S
H2746 C2750 0.929 . S
H2747 C2756 0.929 . S
C2748 H2742 0.930 . S
C2748 C2749 1.367 . S
C2748 C2756 1.378 . S
C2749 C2748 1.367 . S
C2749 C2757 1.433 . S
C2750 H2746 0.929 . S
C2750 C2752 1.378 . S
C2750 C2754 1.350 . S
C2751 C2754 1.463 . S
C2751 C2756 1.350 . S
C2751 N2759 1.427 . S
C2752 H2743 0.930 . S
C2752 C2750 1.378 . S
C2752 C2753 1.367 . S
C2753 C2752 1.367 . S
C2753 C2755 1.433 . S
C2754 C2750 1.350 . S
C2754 C2751 1.463 . S
C2754 N2758 1.427 . S
C2755 H2745 0.929 . S
C2755 C2753 1.433 . S
C2755 N2758 1.384 . S
C2756 H2747 0.929 . S
C2756 C2748 1.378 . S
C2756 C2751 1.350 . S
C2757 H2744 0.929 . S
C2757 C2749 1.433 . S
C2757 N2759 1.384 . S
N2758 C2754 1.427 . S
N2758 C2755 1.384 . S
N2759 C2751 1.427 . S
N2759 C2757 1.384 . S
H2760 C2766 0.930 . S
H2761 C2770 0.930 . S
H2762 C2775 0.929 . S
H2763 C2773 0.929 . S
H2764 C2768 0.929 . S
H2765 C2774 0.929 . S
C2766 H2760 0.930 . S
C2766 C2767 1.367 . S
C2766 C2774 1.378 . S
C2767 C2766 1.367 . S
C2767 C2775 1.433 . S
C2768 H2764 0.929 . S
C2768 C2770 1.378 . S
C2768 C2772 1.350 . S
C2769 C2772 1.463 . S
C2769 C2774 1.350 . S
C2769 N2777 1.427 . S
C2770 H2761 0.930 . S
C2770 C2768 1.378 . S
C2770 C2771 1.367 . S
C2771 C2770 1.367 . S
C2771 C2773 1.433 . S
C2772 C2768 1.350 . S
C2772 C2769 1.463 . S
C2772 N2776 1.427 . S
C2773 H2763 0.929 . S
C2773 C2771 1.433 . S
C2773 N2776 1.384 . S
C2774 H2765 0.929 . S
C2774 C2766 1.378 . S
C2774 C2769 1.350 . S
C2775 H2762 0.929 . S
C2775 C2767 1.433 . S
C2775 N2777 1.384 . S
N2776 C2772 1.427 . S
N2776 C2773 1.384 . S
N2777 C2769 1.427 . S
N2777 C2775 1.384 . S
H2778 C2784 0.930 . S
H2779 C2788 0.930 . S
H2780 C2793 0.929 . S
H2781 C2791 0.929 . S
H2782 C2786 0.929 . S
H2783 C2792 0.929 . S
C2784 H2778 0.930 . S
C2784 C2785 1.367 . S
C2784 C2792 1.378 . S
C2785 C2784 1.367 . S
C2785 C2793 1.433 . S
C2786 H2782 0.929 . S
C2786 C2788 1.378 . S
C2786 C2790 1.350 . S
C2787 C2790 1.463 . S
C2787 C2792 1.350 . S
C2787 N2795 1.427 . S
C2788 H2779 0.930 . S
C2788 C2786 1.378 . S
C2788 C2789 1.367 . S
C2789 C2788 1.367 . S
C2789 C2791 1.433 . S
C2790 C2786 1.350 . S
C2790 C2787 1.463 . S
C2790 N2794 1.427 . S
C2791 H2781 0.929 . S
C2791 C2789 1.433 . S
C2791 N2794 1.384 . S
C2792 H2783 0.929 . S
C2792 C2784 1.378 . S
C2792 C2787 1.350 . S
C2793 H2780 0.929 . S
C2793 C2785 1.433 . S
C2793 N2795 1.384 . S
N2794 C2790 1.427 . S
N2794 C2791 1.384 . S
N2795 C2787 1.427 . S
N2795 C2793 1.384 . S
H2796 C2802 0.930 . S
H2797 C2806 0.930 . S
H2798 C2811 0.929 . S
H2799 C2809 0.929 . S
H2800 C2804 0.929 . S
H2801 C2810 0.929 . S
C2802 H2796 0.930 . S
C2802 C2803 1.367 . S
C2802 C2810 1.378 . S
C2803 C2802 1.367 . S
C2803 C2811 1.433 . S
C2804 H2800 0.929 . S
C2804 C2806 1.378 . S
C2804 C2808 1.350 . S
C2805 C2808 1.463 . S
C2805 C2810 1.350 . S
C2805 N2813 1.427 . S
C2806 H2797 0.930 . S
C2806 C2804 1.378 . S
C2806 C2807 1.367 . S
C2807 C2806 1.367 . S
C2807 C2809 1.433 . S
C2808 C2804 1.350 . S
C2808 C2805 1.463 . S
C2808 N2812 1.427 . S
C2809 H2799 0.929 . S
C2809 C2807 1.433 . S
C2809 N2812 1.384 . S
C2810 H2801 0.929 . S
C2810 C2802 1.378 . S
C2810 C2805 1.350 . S
C2811 H2798 0.929 . S
C2811 C2803 1.433 . S
C2811 N2813 1.384 . S
N2812 C2808 1.427 . S
N2812 C2809 1.384 . S
N2813 C2805 1.427 . S
N2813 C2811 1.384 . S
H2814 C2820 0.930 . S
H2815 C2824 0.930 . S
H2816 C2829 0.929 . S
H2817 C2827 0.929 . S
H2818 C2822 0.929 . S
H2819 C2828 0.929 . S
C2820 H2814 0.930 . S
C2820 C2821 1.367 . S
C2820 C2828 1.378 . S
C2821 C2820 1.367 . S
C2821 C2829 1.433 . S
C2822 H2818 0.929 . S
C2822 C2824 1.378 . S
C2822 C2826 1.350 . S
C2823 C2826 1.463 . S
C2823 C2828 1.350 . S
C2823 N2831 1.427 . S
C2824 H2815 0.930 . S
C2824 C2822 1.378 . S
C2824 C2825 1.367 . S
C2825 C2824 1.367 . S
C2825 C2827 1.433 . S
C2826 C2822 1.350 . S
C2826 C2823 1.463 . S
C2826 N2830 1.427 . S
C2827 H2817 0.929 . S
C2827 C2825 1.433 . S
C2827 N2830 1.384 . S
C2828 H2819 0.929 . S
C2828 C2820 1.378 . S
C2828 C2823 1.350 . S
C2829 H2816 0.929 . S
C2829 C2821 1.433 . S
C2829 N2831 1.384 . S
N2830 C2826 1.427 . S
N2830 C2827 1.384 . S
N2831 C2823 1.427 . S
N2831 C2829 1.384 . S
H2832 C2838 0.930 . S
H2833 C2842 0.930 . S
H2834 C2847 0.929 . S
H2835 C2845 0.929 . S
H2836 C2840 0.929 . S
H2837 C2846 0.929 . S
C2838 H2832 0.930 . S
C2838 C2839 1.367 . S
C2838 C2846 1.378 . S
C2839 C2838 1.367 . S
C2839 C2847 1.433 . S
C2840 H2836 0.929 . S
C2840 C2842 1.378 . S
C2840 C2844 1.350 . S
C2841 C2844 1.463 . S
C2841 C2846 1.350 . S
C2841 N2849 1.427 . S
C2842 H2833 0.930 . S
C2842 C2840 1.378 . S
C2842 C2843 1.367 . S
C2843 C2842 1.367 . S
C2843 C2845 1.433 . S
C2844 C2840 1.350 . S
C2844 C2841 1.463 . S
C2844 N2848 1.427 . S
C2845 H2835 0.929 . S
C2845 C2843 1.433 . S
C2845 N2848 1.384 . S
C2846 H2837 0.929 . S
C2846 C2838 1.378 . S
C2846 C2841 1.350 . S
C2847 H2834 0.929 . S
C2847 C2839 1.433 . S
C2847 N2849 1.384 . S
N2848 C2844 1.427 . S
N2848 C2845 1.384 . S
N2849 C2841 1.427 . S
N2849 C2847 1.384 . S
H2850 C2856 0.930 . S
H2851 C2860 0.930 . S
H2852 C2865 0.929 . S
H2853 C2863 0.929 . S
H2854 C2858 0.929 . S
H2855 C2864 0.929 . S
C2856 H2850 0.930 . S
C2856 C2857 1.367 . S
C2856 C2864 1.378 . S
C2857 C2856 1.367 . S
C2857 C2865 1.433 . S
C2858 H2854 0.929 . S
C2858 C2860 1.378 . S
C2858 C2862 1.350 . S
C2859 C2862 1.463 . S
C2859 C2864 1.350 . S
C2859 N2867 1.427 . S
C2860 H2851 0.930 . S
C2860 C2858 1.378 . S
C2860 C2861 1.367 . S
C2861 C2860 1.367 . S
C2861 C2863 1.433 . S
C2862 C2858 1.350 . S
C2862 C2859 1.463 . S
C2862 N2866 1.427 . S
C2863 H2853 0.929 . S
C2863 C2861 1.433 . S
C2863 N2866 1.384 . S
C2864 H2855 0.929 . S
C2864 C2856 1.378 . S
C2864 C2859 1.350 . S
C2865 H2852 0.929 . S
C2865 C2857 1.433 . S
C2865 N2867 1.384 . S
N2866 C2862 1.427 . S
N2866 C2863 1.384 . S
N2867 C2859 1.427 . S
N2867 C2865 1.384 . S
H2868 C2874 0.930 . S
H2869 C2878 0.930 . S
H2870 C2883 0.929 . S
H2871 C2881 0.929 . S
H2872 C2876 0.929 . S
H2873 C2882 0.929 . S
C2874 H2868 0.930 . S
C2874 C2875 1.367 . S
C2874 C2882 1.378 . S
C2875 C2874 1.367 . S
C2875 C2883 1.433 . S
C2876 H2872 0.929 . S
C2876 C2878 1.378 . S
C2876 C2880 1.350 . S
C2877 C2880 1.463 . S
C2877 C2882 1.350 . S
C2877 N2885 1.427 . S
C2878 H2869 0.930 . S
C2878 C2876 1.378 . S
C2878 C2879 1.367 . S
C2879 C2878 1.367 . S
C2879 C2881 1.433 . S
C2880 C2876 1.350 . S
C2880 C2877 1.463 . S
C2880 N2884 1.427 . S
C2881 H2871 0.929 . S
C2881 C2879 1.433 . S
C2881 N2884 1.384 . S
C2882 H2873 0.929 . S
C2882 C2874 1.378 . S
C2882 C2877 1.350 . S
C2883 H2870 0.929 . S
C2883 C2875 1.433 . S
C2883 N2885 1.384 . S
N2884 C2880 1.427 . S
N2884 C2881 1.384 . S
N2885 C2877 1.427 . S
N2885 C2883 1.384 . S
H2886 C2892 0.930 . S
H2887 C2896 0.930 . S
H2888 C2901 0.929 . S
H2889 C2899 0.929 . S
H2890 C2894 0.929 . S
H2891 C2900 0.929 . S
C2892 H2886 0.930 . S
C2892 C2893 1.367 . S
C2892 C2900 1.378 . S
C2893 C2892 1.367 . S
C2893 C2901 1.433 . S
C2894 H2890 0.929 . S
C2894 C2896 1.378 . S
C2894 C2898 1.350 . S
C2895 C2898 1.463 . S
C2895 C2900 1.350 . S
C2895 N2903 1.427 . S
C2896 H2887 0.930 . S
C2896 C2894 1.378 . S
C2896 C2897 1.367 . S
C2897 C2896 1.367 . S
C2897 C2899 1.433 . S
C2898 C2894 1.350 . S
C2898 C2895 1.463 . S
C2898 N2902 1.427 . S
C2899 H2889 0.929 . S
C2899 C2897 1.433 . S
C2899 N2902 1.384 . S
C2900 H2891 0.929 . S
C2900 C2892 1.378 . S
C2900 C2895 1.350 . S
C2901 H2888 0.929 . S
C2901 C2893 1.433 . S
C2901 N2903 1.384 . S
N2902 C2898 1.427 . S
N2902 C2899 1.384 . S
N2903 C2895 1.427 . S
N2903 C2901 1.384 . S
H2904 C2910 0.930 . S
H2905 C2914 0.930 . S
H2906 C2919 0.929 . S
H2907 C2917 0.929 . S
H2908 C2912 0.929 . S
H2909 C2918 0.929 . S
C2910 H2904 0.930 . S
C2910 C2911 1.367 . S
C2910 C2918 1.378 . S
C2911 C2910 1.367 . S
C2911 C2919 1.433 . S
C2912 H2908 0.929 . S
C2912 C2914 1.378 . S
C2912 C2916 1.350 . S
C2913 C2916 1.463 . S
C2913 C2918 1.350 . S
C2913 N2921 1.427 . S
C2914 H2905 0.930 . S
C2914 C2912 1.378 . S
C2914 C2915 1.367 . S
C2915 C2914 1.367 . S
C2915 C2917 1.433 . S
C2916 C2912 1.350 . S
C2916 C2913 1.463 . S
C2916 N2920 1.427 . S
C2917 H2907 0.929 . S
C2917 C2915 1.433 . S
C2917 N2920 1.384 . S
C2918 H2909 0.929 . S
C2918 C2910 1.378 . S
C2918 C2913 1.350 . S
C2919 H2906 0.929 . S
C2919 C2911 1.433 . S
C2919 N2921 1.384 . S
N2920 C2916 1.427 . S
N2920 C2917 1.384 . S
N2921 C2913 1.427 . S
N2921 C2919 1.384 . S
H2922 C2928 0.930 . S
H2923 C2932 0.930 . S
H2924 C2937 0.929 . S
H2925 C2935 0.929 . S
H2926 C2930 0.929 . S
H2927 C2936 0.929 . S
C2928 H2922 0.930 . S
C2928 C2929 1.367 . S
C2928 C2936 1.378 . S
C2929 C2928 1.367 . S
C2929 C2937 1.433 . S
C2930 H2926 0.929 . S
C2930 C2932 1.378 . S
C2930 C2934 1.350 . S
C2931 C2934 1.463 . S
C2931 C2936 1.350 . S
C2931 N2939 1.427 . S
C2932 H2923 0.930 . S
C2932 C2930 1.378 . S
C2932 C2933 1.367 . S
C2933 C2932 1.367 . S
C2933 C2935 1.433 . S
C2934 C2930 1.350 . S
C2934 C2931 1.463 . S
C2934 N2938 1.427 . S
C2935 H2925 0.929 . S
C2935 C2933 1.433 . S
C2935 N2938 1.384 . S
C2936 H2927 0.929 . S
C2936 C2928 1.378 . S
C2936 C2931 1.350 . S
C2937 H2924 0.929 . S
C2937 C2929 1.433 . S
C2937 N2939 1.384 . S
N2938 C2934 1.427 . S
N2938 C2935 1.384 . S
N2939 C2931 1.427 . S
N2939 C2937 1.384 . S
H2940 C2946 0.930 . S
H2941 C2950 0.930 . S
H2942 C2955 0.929 . S
H2943 C2953 0.929 . S
H2944 C2948 0.929 . S
H2945 C2954 0.929 . S
C2946 H2940 0.930 . S
C2946 C2947 1.367 . S
C2946 C2954 1.378 . S
C2947 C2946 1.367 . S
C2947 C2955 1.433 . S
C2948 H2944 0.929 . S
C2948 C2950 1.378 . S
C2948 C2952 1.350 . S
C2949 C2952 1.463 . S
C2949 C2954 1.350 . S
C2949 N2957 1.427 . S
C2950 H2941 0.930 . S
C2950 C2948 1.378 . S
C2950 C2951 1.367 . S
C2951 C2950 1.367 . S
C2951 C2953 1.433 . S
C2952 C2948 1.350 . S
C2952 C2949 1.463 . S
C2952 N2956 1.427 . S
C2953 H2943 0.929 . S
C2953 C2951 1.433 . S
C2953 N2956 1.384 . S
C2954 H2945 0.929 . S
C2954 C2946 1.378 . S
C2954 C2949 1.350 . S
C2955 H2942 0.929 . S
C2955 C2947 1.433 . S
C2955 N2957 1.384 . S
N2956 C2952 1.427 . S
N2956 C2953 1.384 . S
N2957 C2949 1.427 . S
N2957 C2955 1.384 . S
H2958 C2964 0.930 . S
H2959 C2968 0.930 . S
H2960 C2973 0.929 . S
H2961 C2971 0.929 . S
H2962 C2966 0.929 . S
H2963 C2972 0.929 . S
C2964 H2958 0.930 . S
C2964 C2965 1.367 . S
C2964 C2972 1.378 . S
C2965 C2964 1.367 . S
C2965 C2973 1.433 . S
C2966 H2962 0.929 . S
C2966 C2968 1.378 . S
C2966 C2970 1.350 . S
C2967 C2970 1.463 . S
C2967 C2972 1.350 . S
C2967 N2975 1.427 . S
C2968 H2959 0.930 . S
C2968 C2966 1.378 . S
C2968 C2969 1.367 . S
C2969 C2968 1.367 . S
C2969 C2971 1.433 . S
C2970 C2966 1.350 . S
C2970 C2967 1.463 . S
C2970 N2974 1.427 . S
C2971 H2961 0.929 . S
C2971 C2969 1.433 . S
C2971 N2974 1.384 . S
C2972 H2963 0.929 . S
C2972 C2964 1.378 . S
C2972 C2967 1.350 . S
C2973 H2960 0.929 . S
C2973 C2965 1.433 . S
C2973 N2975 1.384 . S
N2974 C2970 1.427 . S
N2974 C2971 1.384 . S
N2975 C2967 1.427 . S
N2975 C2973 1.384 . S
H2976 C2982 0.930 . S
H2977 C2986 0.930 . S
H2978 C2991 0.929 . S
H2979 C2989 0.929 . S
H2980 C2984 0.929 . S
H2981 C2990 0.929 . S
C2982 H2976 0.930 . S
C2982 C2983 1.367 . S
C2982 C2990 1.378 . S
C2983 C2982 1.367 . S
C2983 C2991 1.433 . S
C2984 H2980 0.929 . S
C2984 C2986 1.378 . S
C2984 C2988 1.350 . S
C2985 C2988 1.463 . S
C2985 C2990 1.350 . S
C2985 N2993 1.427 . S
C2986 H2977 0.930 . S
C2986 C2984 1.378 . S
C2986 C2987 1.367 . S
C2987 C2986 1.367 . S
C2987 C2989 1.433 . S
C2988 C2984 1.350 . S
C2988 C2985 1.463 . S
C2988 N2992 1.427 . S
C2989 H2979 0.929 . S
C2989 C2987 1.433 . S
C2989 N2992 1.384 . S
C2990 H2981 0.929 . S
C2990 C2982 1.378 . S
C2990 C2985 1.350 . S
C2991 H2978 0.929 . S
C2991 C2983 1.433 . S
C2991 N2993 1.384 . S
N2992 C2988 1.427 . S
N2992 C2989 1.384 . S
N2993 C2985 1.427 . S
N2993 C2991 1.384 . S
H2994 C3000 0.930 . S
H2995 C3004 0.930 . S
H2996 C3009 0.929 . S
H2997 C3007 0.929 . S
H2998 C3002 0.929 . S
H2999 C3008 0.929 . S
C3000 H2994 0.930 . S
C3000 C3001 1.367 . S
C3000 C3008 1.378 . S
C3001 C3000 1.367 . S
C3001 C3009 1.433 . S
C3002 H2998 0.929 . S
C3002 C3004 1.378 . S
C3002 C3006 1.350 . S
C3003 C3006 1.463 . S
C3003 C3008 1.350 . S
C3003 N3011 1.427 . S
C3004 H2995 0.930 . S
C3004 C3002 1.378 . S
C3004 C3005 1.367 . S
C3005 C3004 1.367 . S
C3005 C3007 1.433 . S
C3006 C3002 1.350 . S
C3006 C3003 1.463 . S
C3006 N3010 1.427 . S
C3007 H2997 0.929 . S
C3007 C3005 1.433 . S
C3007 N3010 1.384 . S
C3008 H2999 0.929 . S
C3008 C3000 1.378 . S
C3008 C3003 1.350 . S
C3009 H2996 0.929 . S
C3009 C3001 1.433 . S
C3009 N3011 1.384 . S
N3010 C3006 1.427 . S
N3010 C3007 1.384 . S
N3011 C3003 1.427 . S
N3011 C3009 1.384 . S
H3012 C3018 0.930 . S
H3013 C3022 0.930 . S
H3014 C3027 0.929 . S
H3015 C3025 0.929 . S
H3016 C3020 0.929 . S
H3017 C3026 0.929 . S
C3018 H3012 0.930 . S
C3018 C3019 1.367 . S
C3018 C3026 1.378 . S
C3019 C3018 1.367 . S
C3019 C3027 1.433 . S
C3020 H3016 0.929 . S
C3020 C3022 1.378 . S
C3020 C3024 1.350 . S
C3021 C3024 1.463 . S
C3021 C3026 1.350 . S
C3021 N3029 1.427 . S
C3022 H3013 0.930 . S
C3022 C3020 1.378 . S
C3022 C3023 1.367 . S
C3023 C3022 1.367 . S
C3023 C3025 1.433 . S
C3024 C3020 1.350 . S
C3024 C3021 1.463 . S
C3024 N3028 1.427 . S
C3025 H3015 0.929 . S
C3025 C3023 1.433 . S
C3025 N3028 1.384 . S
C3026 H3017 0.929 . S
C3026 C3018 1.378 . S
C3026 C3021 1.350 . S
C3027 H3014 0.929 . S
C3027 C3019 1.433 . S
C3027 N3029 1.384 . S
N3028 C3024 1.427 . S
N3028 C3025 1.384 . S
N3029 C3021 1.427 . S
N3029 C3027 1.384 . S
H3030 C3036 0.930 . S
H3031 C3040 0.930 . S
H3032 C3045 0.929 . S
H3033 C3043 0.929 . S
H3034 C3038 0.929 . S
H3035 C3044 0.929 . S
C3036 H3030 0.930 . S
C3036 C3037 1.367 . S
C3036 C3044 1.378 . S
C3037 C3036 1.367 . S
C3037 C3045 1.433 . S
C3038 H3034 0.929 . S
C3038 C3040 1.378 . S
C3038 C3042 1.350 . S
C3039 C3042 1.463 . S
C3039 C3044 1.350 . S
C3039 N3047 1.427 . S
C3040 H3031 0.930 . S
C3040 C3038 1.378 . S
C3040 C3041 1.367 . S
C3041 C3040 1.367 . S
C3041 C3043 1.433 . S
C3042 C3038 1.350 . S
C3042 C3039 1.463 . S
C3042 N3046 1.427 . S
C3043 H3033 0.929 . S
C3043 C3041 1.433 . S
C3043 N3046 1.384 . S
C3044 H3035 0.929 . S
C3044 C3036 1.378 . S
C3044 C3039 1.350 . S
C3045 H3032 0.929 . S
C3045 C3037 1.433 . S
C3045 N3047 1.384 . S
N3046 C3042 1.427 . S
N3046 C3043 1.384 . S
N3047 C3039 1.427 . S
N3047 C3045 1.384 . S
H3048 C3054 0.930 . S
H3049 C3058 0.930 . S
H3050 C3063 0.929 . S
H3051 C3061 0.929 . S
H3052 C3056 0.929 . S
H3053 C3062 0.929 . S
C3054 H3048 0.930 . S
C3054 C3055 1.367 . S
C3054 C3062 1.378 . S
C3055 C3054 1.367 . S
C3055 C3063 1.433 . S
C3056 H3052 0.929 . S
C3056 C3058 1.378 . S
C3056 C3060 1.350 . S
C3057 C3060 1.463 . S
C3057 C3062 1.350 . S
C3057 N3065 1.427 . S
C3058 H3049 0.930 . S
C3058 C3056 1.378 . S
C3058 C3059 1.367 . S
C3059 C3058 1.367 . S
C3059 C3061 1.433 . S
C3060 C3056 1.350 . S
C3060 C3057 1.463 . S
C3060 N3064 1.427 . S
C3061 H3051 0.929 . S
C3061 C3059 1.433 . S
C3061 N3064 1.384 . S
C3062 H3053 0.929 . S
C3062 C3054 1.378 . S
C3062 C3057 1.350 . S
C3063 H3050 0.929 . S
C3063 C3055 1.433 . S
C3063 N3065 1.384 . S
N3064 C3060 1.427 . S
N3064 C3061 1.384 . S
N3065 C3057 1.427 . S
N3065 C3063 1.384 . S
H3066 C3072 0.930 . S
H3067 C3076 0.930 . S
H3068 C3081 0.929 . S
H3069 C3079 0.929 . S
H3070 C3074 0.929 . S
H3071 C3080 0.929 . S
C3072 H3066 0.930 . S
C3072 C3073 1.367 . S
C3072 C3080 1.378 . S
C3073 C3072 1.367 . S
C3073 C3081 1.433 . S
C3074 H3070 0.929 . S
C3074 C3076 1.378 . S
C3074 C3078 1.350 . S
C3075 C3078 1.463 . S
C3075 C3080 1.350 . S
C3075 N3083 1.427 . S
C3076 H3067 0.930 . S
C3076 C3074 1.378 . S
C3076 C3077 1.367 . S
C3077 C3076 1.367 . S
C3077 C3079 1.433 . S
C3078 C3074 1.350 . S
C3078 C3075 1.463 . S
C3078 N3082 1.427 . S
C3079 H3069 0.929 . S
C3079 C3077 1.433 . S
C3079 N3082 1.384 . S
C3080 H3071 0.929 . S
C3080 C3072 1.378 . S
C3080 C3075 1.350 . S
C3081 H3068 0.929 . S
C3081 C3073 1.433 . S
C3081 N3083 1.384 . S
N3082 C3078 1.427 . S
N3082 C3079 1.384 . S
N3083 C3075 1.427 . S
N3083 C3081 1.384 . S
H3084 C3090 0.930 . S
H3085 C3094 0.930 . S
H3086 C3099 0.929 . S
H3087 C3097 0.929 . S
H3088 C3092 0.929 . S
H3089 C3098 0.929 . S
C3090 H3084 0.930 . S
C3090 C3091 1.367 . S
C3090 C3098 1.378 . S
C3091 C3090 1.367 . S
C3091 C3099 1.433 . S
C3092 H3088 0.929 . S
C3092 C3094 1.378 . S
C3092 C3096 1.350 . S
C3093 C3096 1.463 . S
C3093 C3098 1.350 . S
C3093 N3101 1.427 . S
C3094 H3085 0.930 . S
C3094 C3092 1.378 . S
C3094 C3095 1.367 . S
C3095 C3094 1.367 . S
C3095 C3097 1.433 . S
C3096 C3092 1.350 . S
C3096 C3093 1.463 . S
C3096 N3100 1.427 . S
C3097 H3087 0.929 . S
C3097 C3095 1.433 . S
C3097 N3100 1.384 . S
C3098 H3089 0.929 . S
C3098 C3090 1.378 . S
C3098 C3093 1.350 . S
C3099 H3086 0.929 . S
C3099 C3091 1.433 . S
C3099 N3101 1.384 . S
N3100 C3096 1.427 . S
N3100 C3097 1.384 . S
N3101 C3093 1.427 . S
N3101 C3099 1.384 . S
H3102 C3108 0.930 . S
H3103 C3112 0.930 . S
H3104 C3117 0.929 . S
H3105 C3115 0.929 . S
H3106 C3110 0.929 . S
H3107 C3116 0.929 . S
C3108 H3102 0.930 . S
C3108 C3109 1.367 . S
C3108 C3116 1.378 . S
C3109 C3108 1.367 . S
C3109 C3117 1.433 . S
C3110 H3106 0.929 . S
C3110 C3112 1.378 . S
C3110 C3114 1.350 . S
C3111 C3114 1.463 . S
C3111 C3116 1.350 . S
C3111 N3119 1.427 . S
C3112 H3103 0.930 . S
C3112 C3110 1.378 . S
C3112 C3113 1.367 . S
C3113 C3112 1.367 . S
C3113 C3115 1.433 . S
C3114 C3110 1.350 . S
C3114 C3111 1.463 . S
C3114 N3118 1.427 . S
C3115 H3105 0.929 . S
C3115 C3113 1.433 . S
C3115 N3118 1.384 . S
C3116 H3107 0.929 . S
C3116 C3108 1.378 . S
C3116 C3111 1.350 . S
C3117 H3104 0.929 . S
C3117 C3109 1.433 . S
C3117 N3119 1.384 . S
N3118 C3114 1.427 . S
N3118 C3115 1.384 . S
N3119 C3111 1.427 . S
N3119 C3117 1.384 . S
H3120 C3126 0.930 . S
H3121 C3130 0.930 . S
H3122 C3135 0.929 . S
H3123 C3133 0.929 . S
H3124 C3128 0.929 . S
H3125 C3134 0.929 . S
C3126 H3120 0.930 . S
C3126 C3127 1.367 . S
C3126 C3134 1.378 . S
C3127 C3126 1.367 . S
C3127 C3135 1.433 . S
C3128 H3124 0.929 . S
C3128 C3130 1.378 . S
C3128 C3132 1.350 . S
C3129 C3132 1.463 . S
C3129 C3134 1.350 . S
C3129 N3137 1.427 . S
C3130 H3121 0.930 . S
C3130 C3128 1.378 . S
C3130 C3131 1.367 . S
C3131 C3130 1.367 . S
C3131 C3133 1.433 . S
C3132 C3128 1.350 . S
C3132 C3129 1.463 . S
C3132 N3136 1.427 . S
C3133 H3123 0.929 . S
C3133 C3131 1.433 . S
C3133 N3136 1.384 . S
C3134 H3125 0.929 . S
C3134 C3126 1.378 . S
C3134 C3129 1.350 . S
C3135 H3122 0.929 . S
C3135 C3127 1.433 . S
C3135 N3137 1.384 . S
N3136 C3132 1.427 . S
N3136 C3133 1.384 . S
N3137 C3129 1.427 . S
N3137 C3135 1.384 . S
H3138 C3144 0.930 . S
H3139 C3148 0.930 . S
H3140 C3153 0.929 . S
H3141 C3151 0.929 . S
H3142 C3146 0.929 . S
H3143 C3152 0.929 . S
C3144 H3138 0.930 . S
C3144 C3145 1.367 . S
C3144 C3152 1.378 . S
C3145 C3144 1.367 . S
C3145 C3153 1.433 . S
C3146 H3142 0.929 . S
C3146 C3148 1.378 . S
C3146 C3150 1.350 . S
C3147 C3150 1.463 . S
C3147 C3152 1.350 . S
C3147 N3155 1.427 . S
C3148 H3139 0.930 . S
C3148 C3146 1.378 . S
C3148 C3149 1.367 . S
C3149 C3148 1.367 . S
C3149 C3151 1.433 . S
C3150 C3146 1.350 . S
C3150 C3147 1.463 . S
C3150 N3154 1.427 . S
C3151 H3141 0.929 . S
C3151 C3149 1.433 . S
C3151 N3154 1.384 . S
C3152 H3143 0.929 . S
C3152 C3144 1.378 . S
C3152 C3147 1.350 . S
C3153 H3140 0.929 . S
C3153 C3145 1.433 . S
C3153 N3155 1.384 . S
N3154 C3150 1.427 . S
N3154 C3151 1.384 . S
N3155 C3147 1.427 . S
N3155 C3153 1.384 . S
H3156 C3162 0.930 . S
H3157 C3166 0.930 . S
H3158 C3171 0.929 . S
H3159 C3169 0.929 . S
H3160 C3164 0.929 . S
H3161 C3170 0.929 . S
C3162 H3156 0.930 . S
C3162 C3163 1.367 . S
C3162 C3170 1.378 . S
C3163 C3162 1.367 . S
C3163 C3171 1.433 . S
C3164 H3160 0.929 . S
C3164 C3166 1.378 . S
C3164 C3168 1.350 . S
C3165 C3168 1.463 . S
C3165 C3170 1.350 . S
C3165 N3173 1.427 . S
C3166 H3157 0.930 . S
C3166 C3164 1.378 . S
C3166 C3167 1.367 . S
C3167 C3166 1.367 . S
C3167 C3169 1.433 . S
C3168 C3164 1.350 . S
C3168 C3165 1.463 . S
C3168 N3172 1.427 . S
C3169 H3159 0.929 . S
C3169 C3167 1.433 . S
C3169 N3172 1.384 . S
C3170 H3161 0.929 . S
C3170 C3162 1.378 . S
C3170 C3165 1.350 . S
C3171 H3158 0.929 . S
C3171 C3163 1.433 . S
C3171 N3173 1.384 . S
N3172 C3168 1.427 . S
N3172 C3169 1.384 . S
N3173 C3165 1.427 . S
N3173 C3171 1.384 . S
H3174 C3180 0.930 . S
H3175 C3184 0.930 . S
H3176 C3189 0.929 . S
H3177 C3187 0.929 . S
H3178 C3182 0.929 . S
H3179 C3188 0.929 . S
C3180 H3174 0.930 . S
C3180 C3181 1.367 . S
C3180 C3188 1.378 . S
C3181 C3180 1.367 . S
C3181 C3189 1.433 . S
C3182 H3178 0.929 . S
C3182 C3184 1.378 . S
C3182 C3186 1.350 . S
C3183 C3186 1.463 . S
C3183 C3188 1.350 . S
C3183 N3191 1.427 . S
C3184 H3175 0.930 . S
C3184 C3182 1.378 . S
C3184 C3185 1.367 . S
C3185 C3184 1.367 . S
C3185 C3187 1.433 . S
C3186 C3182 1.350 . S
C3186 C3183 1.463 . S
C3186 N3190 1.427 . S
C3187 H3177 0.929 . S
C3187 C3185 1.433 . S
C3187 N3190 1.384 . S
C3188 H3179 0.929 . S
C3188 C3180 1.378 . S
C3188 C3183 1.350 . S
C3189 H3176 0.929 . S
C3189 C3181 1.433 . S
C3189 N3191 1.384 . S
N3190 C3186 1.427 . S
N3190 C3187 1.384 . S
N3191 C3183 1.427 . S
N3191 C3189 1.384 . S
H3192 C3198 0.930 . S
H3193 C3202 0.930 . S
H3194 C3207 0.929 . S
H3195 C3205 0.929 . S
H3196 C3200 0.929 . S
H3197 C3206 0.929 . S
C3198 H3192 0.930 . S
C3198 C3199 1.367 . S
C3198 C3206 1.378 . S
C3199 C3198 1.367 . S
C3199 C3207 1.433 . S
C3200 H3196 0.929 . S
C3200 C3202 1.378 . S
C3200 C3204 1.350 . S
C3201 C3204 1.463 . S
C3201 C3206 1.350 . S
C3201 N3209 1.427 . S
C3202 H3193 0.930 . S
C3202 C3200 1.378 . S
C3202 C3203 1.367 . S
C3203 C3202 1.367 . S
C3203 C3205 1.433 . S
C3204 C3200 1.350 . S
C3204 C3201 1.463 . S
C3204 N3208 1.427 . S
C3205 H3195 0.929 . S
C3205 C3203 1.433 . S
C3205 N3208 1.384 . S
C3206 H3197 0.929 . S
C3206 C3198 1.378 . S
C3206 C3201 1.350 . S
C3207 H3194 0.929 . S
C3207 C3199 1.433 . S
C3207 N3209 1.384 . S
N3208 C3204 1.427 . S
N3208 C3205 1.384 . S
N3209 C3201 1.427 . S
N3209 C3207 1.384 . S
H3210 C3216 0.930 . S
H3211 C3220 0.930 . S
H3212 C3225 0.929 . S
H3213 C3223 0.929 . S
H3214 C3218 0.929 . S
H3215 C3224 0.929 . S
C3216 H3210 0.930 . S
C3216 C3217 1.367 . S
C3216 C3224 1.378 . S
C3217 C3216 1.367 . S
C3217 C3225 1.433 . S
C3218 H3214 0.929 . S
C3218 C3220 1.378 . S
C3218 C3222 1.350 . S
C3219 C3222 1.463 . S
C3219 C3224 1.350 . S
C3219 N3227 1.427 . S
C3220 H3211 0.930 . S
C3220 C3218 1.378 . S
C3220 C3221 1.367 . S
C3221 C3220 1.367 . S
C3221 C3223 1.433 . S
C3222 C3218 1.350 . S
C3222 C3219 1.463 . S
C3222 N3226 1.427 . S
C3223 H3213 0.929 . S
C3223 C3221 1.433 . S
C3223 N3226 1.384 . S
C3224 H3215 0.929 . S
C3224 C3216 1.378 . S
C3224 C3219 1.350 . S
C3225 H3212 0.929 . S
C3225 C3217 1.433 . S
C3225 N3227 1.384 . S
N3226 C3222 1.427 . S
N3226 C3223 1.384 . S
N3227 C3219 1.427 . S
N3227 C3225 1.384 . S
H3228 C3234 0.930 . S
H3229 C3238 0.930 . S
H3230 C3243 0.929 . S
H3231 C3241 0.929 . S
H3232 C3236 0.929 . S
H3233 C3242 0.929 . S
C3234 H3228 0.930 . S
C3234 C3235 1.367 . S
C3234 C3242 1.378 . S
C3235 C3234 1.367 . S
C3235 C3243 1.433 . S
C3236 H3232 0.929 . S
C3236 C3238 1.378 . S
C3236 C3240 1.350 . S
C3237 C3240 1.463 . S
C3237 C3242 1.350 . S
C3237 N3245 1.427 . S
C3238 H3229 0.930 . S
C3238 C3236 1.378 . S
C3238 C3239 1.367 . S
C3239 C3238 1.367 . S
C3239 C3241 1.433 . S
C3240 C3236 1.350 . S
C3240 C3237 1.463 . S
C3240 N3244 1.427 . S
C3241 H3231 0.929 . S
C3241 C3239 1.433 . S
C3241 N3244 1.384 . S
C3242 H3233 0.929 . S
C3242 C3234 1.378 . S
C3242 C3237 1.350 . S
C3243 H3230 0.929 . S
C3243 C3235 1.433 . S
C3243 N3245 1.384 . S
N3244 C3240 1.427 . S
N3244 C3241 1.384 . S
N3245 C3237 1.427 . S
N3245 C3243 1.384 . S
H3246 C3252 0.930 . S
H3247 C3256 0.930 . S
H3248 C3261 0.929 . S
H3249 C3259 0.929 . S
H3250 C3254 0.929 . S
H3251 C3260 0.929 . S
C3252 H3246 0.930 . S
C3252 C3253 1.367 . S
C3252 C3260 1.378 . S
C3253 C3252 1.367 . S
C3253 C3261 1.433 . S
C3254 H3250 0.929 . S
C3254 C3256 1.378 . S
C3254 C3258 1.350 . S
C3255 C3258 1.463 . S
C3255 C3260 1.350 . S
C3255 N3263 1.427 . S
C3256 H3247 0.930 . S
C3256 C3254 1.378 . S
C3256 C3257 1.367 . S
C3257 C3256 1.367 . S
C3257 C3259 1.433 . S
C3258 C3254 1.350 . S
C3258 C3255 1.463 . S
C3258 N3262 1.427 . S
C3259 H3249 0.929 . S
C3259 C3257 1.433 . S
C3259 N3262 1.384 . S
C3260 H3251 0.929 . S
C3260 C3252 1.378 . S
C3260 C3255 1.350 . S
C3261 H3248 0.929 . S
C3261 C3253 1.433 . S
C3261 N3263 1.384 . S
N3262 C3258 1.427 . S
N3262 C3259 1.384 . S
N3263 C3255 1.427 . S
N3263 C3261 1.384 . S
H3264 C3270 0.930 . S
H3265 C3274 0.930 . S
H3266 C3279 0.929 . S
H3267 C3277 0.929 . S
H3268 C3272 0.929 . S
H3269 C3278 0.929 . S
C3270 H3264 0.930 . S
C3270 C3271 1.367 . S
C3270 C3278 1.378 . S
C3271 C3270 1.367 . S
C3271 C3279 1.433 . S
C3272 H3268 0.929 . S
C3272 C3274 1.378 . S
C3272 C3276 1.350 . S
C3273 C3276 1.463 1_455 S
C3273 C3278 1.350 . S
C3273 N3281 1.427 . S
C3274 H3265 0.930 . S
C3274 C3272 1.378 . S
C3274 C3275 1.367 . S
C3275 C3274 1.367 . S
C3275 C3277 1.433 . S
C3276 C3272 1.350 . S
C3276 C3273 1.463 1_655 S
C3276 N3280 1.427 . S
C3277 H3267 0.929 . S
C3277 C3275 1.433 . S
C3277 N3280 1.384 . S
C3278 H3269 0.929 . S
C3278 C3270 1.378 . S
C3278 C3273 1.350 . S
C3279 H3266 0.929 . S
C3279 C3271 1.433 . S
C3279 N3281 1.384 . S
N3280 C3276 1.427 . S
N3280 C3277 1.384 . S
N3281 C3273 1.427 . S
N3281 C3279 1.384 . S
H3282 C3288 0.930 . S
H3283 C3292 0.930 . S
H3284 C3297 0.929 . S
H3285 C3295 0.929 . S
H3286 C3290 0.929 . S
H3287 C3296 0.929 . S
C3288 H3282 0.930 . S
C3288 C3289 1.367 . S
C3288 C3296 1.378 . S
C3289 C3288 1.367 . S
C3289 C3297 1.433 1_655 S
C3290 H3286 0.929 . S
C3290 C3292 1.378 . S
C3290 C3294 1.350 . S
C3291 C3294 1.463 1_655 S
C3291 C3296 1.350 . S
C3291 N3299 1.427 1_655 S
C3292 H3283 0.930 . S
C3292 C3290 1.378 . S
C3292 C3293 1.367 . S
C3293 C3292 1.367 . S
C3293 C3295 1.433 1_455 S
C3294 C3290 1.350 . S
C3294 C3291 1.463 1_455 S
C3294 N3298 1.427 1_455 S
C3295 H3285 0.929 . S
C3295 C3293 1.433 1_655 S
C3295 N3298 1.384 . S
C3296 H3287 0.929 . S
C3296 C3288 1.378 . S
C3296 C3291 1.350 . S
C3297 H3284 0.929 . S
C3297 C3289 1.433 1_455 S
C3297 N3299 1.384 . S
N3298 C3294 1.427 1_655 S
N3298 C3295 1.384 . S
N3299 C3291 1.427 1_455 S
N3299 C3297 1.384 . S
H3300 C3306 0.930 . S
H3301 C3310 0.930 . S
H3302 C3315 0.929 . S
H3303 C3313 0.929 . S
H3304 C3308 0.929 . S
H3305 C3314 0.929 . S
C3306 H3300 0.930 . S
C3306 C3307 1.367 . S
C3306 C3314 1.378 . S
C3307 C3306 1.367 . S
C3307 C3315 1.433 . S
C3308 H3304 0.929 . S
C3308 C3310 1.378 . S
C3308 C3312 1.350 . S
C3309 C3312 1.463 . S
C3309 C3314 1.350 . S
C3309 N3317 1.427 . S
C3310 H3301 0.930 . S
C3310 C3308 1.378 . S
C3310 C3311 1.367 . S
C3311 C3310 1.367 . S
C3311 C3313 1.433 . S
C3312 C3308 1.350 . S
C3312 C3309 1.463 . S
C3312 N3316 1.427 . S
C3313 H3303 0.929 . S
C3313 C3311 1.433 . S
C3313 N3316 1.384 . S
C3314 H3305 0.929 . S
C3314 C3306 1.378 . S
C3314 C3309 1.350 . S
C3315 H3302 0.929 . S
C3315 C3307 1.433 . S
C3315 N3317 1.384 . S
N3316 C3312 1.427 . S
N3316 C3313 1.384 . S
N3317 C3309 1.427 . S
N3317 C3315 1.384 . S
H3318 C3324 0.930 . S
H3319 C3328 0.930 . S
H3320 C3333 0.929 . S
H3321 C3331 0.929 . S
H3322 C3326 0.929 . S
H3323 C3332 0.929 . S
C3324 H3318 0.930 . S
C3324 C3325 1.367 . S
C3324 C3332 1.378 . S
C3325 C3324 1.367 . S
C3325 C3333 1.433 . S
C3326 H3322 0.929 . S
C3326 C3328 1.378 . S
C3326 C3330 1.350 . S
C3327 C3330 1.463 . S
C3327 C3332 1.350 . S
C3327 N3335 1.427 . S
C3328 H3319 0.930 . S
C3328 C3326 1.378 . S
C3328 C3329 1.367 . S
C3329 C3328 1.367 . S
C3329 C3331 1.433 . S
C3330 C3326 1.350 . S
C3330 C3327 1.463 . S
C3330 N3334 1.427 . S
C3331 H3321 0.929 . S
C3331 C3329 1.433 . S
C3331 N3334 1.384 . S
C3332 H3323 0.929 . S
C3332 C3324 1.378 . S
C3332 C3327 1.350 . S
C3333 H3320 0.929 . S
C3333 C3325 1.433 . S
C3333 N3335 1.384 . S
N3334 C3330 1.427 . S
N3334 C3331 1.384 . S
N3335 C3327 1.427 . S
N3335 C3333 1.384 . S
H3336 C3342 0.930 . S
H3337 C3346 0.930 . S
H3338 C3351 0.929 . S
H3339 C3349 0.929 . S
H3340 C3344 0.929 . S
H3341 C3350 0.929 . S
C3342 H3336 0.930 . S
C3342 C3343 1.367 . S
C3342 C3350 1.378 . S
C3343 C3342 1.367 . S
C3343 C3351 1.433 . S
C3344 H3340 0.929 . S
C3344 C3346 1.378 . S
C3344 C3348 1.350 . S
C3345 C3348 1.463 1_655 S
C3345 C3350 1.350 . S
C3345 N3353 1.427 . S
C3346 H3337 0.930 . S
C3346 C3344 1.378 . S
C3346 C3347 1.367 . S
C3347 C3346 1.367 . S
C3347 C3349 1.433 . S
C3348 C3344 1.350 . S
C3348 C3345 1.463 1_455 S
C3348 N3352 1.427 . S
C3349 H3339 0.929 . S
C3349 C3347 1.433 . S
C3349 N3352 1.384 . S
C3350 H3341 0.929 . S
C3350 C3342 1.378 . S
C3350 C3345 1.350 . S
C3351 H3338 0.929 . S
C3351 C3343 1.433 . S
C3351 N3353 1.384 . S
N3352 C3348 1.427 . S
N3352 C3349 1.384 . S
N3353 C3345 1.427 . S
N3353 C3351 1.384 . S
H3354 C3360 0.930 . S
H3355 C3364 0.930 . S
H3356 C3369 0.929 . S
H3357 C3367 0.929 . S
H3358 C3362 0.929 . S
H3359 C3368 0.929 . S
C3360 H3354 0.930 . S
C3360 C3361 1.367 . S
C3360 C3368 1.378 . S
C3361 C3360 1.367 . S
C3361 C3369 1.433 . S
C3362 H3358 0.929 . S
C3362 C3364 1.378 . S
C3362 C3366 1.350 . S
C3363 C3366 1.463 . S
C3363 C3368 1.350 . S
C3363 N3371 1.427 . S
C3364 H3355 0.930 . S
C3364 C3362 1.378 . S
C3364 C3365 1.367 . S
C3365 C3364 1.367 . S
C3365 C3367 1.433 . S
C3366 C3362 1.350 . S
C3366 C3363 1.463 . S
C3366 N3370 1.427 . S
C3367 H3357 0.929 . S
C3367 C3365 1.433 . S
C3367 N3370 1.384 . S
C3368 H3359 0.929 . S
C3368 C3360 1.378 . S
C3368 C3363 1.350 . S
C3369 H3356 0.929 . S
C3369 C3361 1.433 . S
C3369 N3371 1.384 . S
N3370 C3366 1.427 . S
N3370 C3367 1.384 . S
N3371 C3363 1.427 . S
N3371 C3369 1.384 . S
H3372 C3378 0.930 . S
H3373 C3382 0.930 . S
H3374 C3387 0.929 . S
H3375 C3385 0.929 . S
H3376 C3380 0.929 . S
H3377 C3386 0.929 . S
C3378 H3372 0.930 . S
C3378 C3379 1.367 . S
C3378 C3386 1.378 . S
C3379 C3378 1.367 . S
C3379 C3387 1.433 . S
C3380 H3376 0.929 . S
C3380 C3382 1.378 . S
C3380 C3384 1.350 . S
C3381 C3384 1.463 . S
C3381 C3386 1.350 . S
C3381 N3389 1.427 . S
C3382 H3373 0.930 . S
C3382 C3380 1.378 . S
C3382 C3383 1.367 . S
C3383 C3382 1.367 . S
C3383 C3385 1.433 . S
C3384 C3380 1.350 . S
C3384 C3381 1.463 . S
C3384 N3388 1.427 . S
C3385 H3375 0.929 . S
C3385 C3383 1.433 . S
C3385 N3388 1.384 . S
C3386 H3377 0.929 . S
C3386 C3378 1.378 . S
C3386 C3381 1.350 . S
C3387 H3374 0.929 . S
C3387 C3379 1.433 . S
C3387 N3389 1.384 . S
N3388 C3384 1.427 . S
N3388 C3385 1.384 . S
N3389 C3381 1.427 . S
N3389 C3387 1.384 . S
H3390 C3396 0.930 . S
H3391 C3400 0.930 . S
H3392 C3405 0.929 . S
H3393 C3403 0.929 . S
H3394 C3398 0.929 . S
H3395 C3404 0.929 . S
C3396 H3390 0.930 . S
C3396 C3397 1.367 1_655 S
C3396 C3404 1.378 . S
C3397 C3396 1.367 1_455 S
C3397 C3405 1.433 . S
C3398 H3394 0.929 . S
C3398 C3400 1.378 . S
C3398 C3402 1.350 1_455 S
C3399 C3402 1.463 1_455 S
C3399 C3404 1.350 1_455 S
C3399 N3407 1.427 . S
C3400 H3391 0.930 . S
C3400 C3398 1.378 . S
C3400 C3401 1.367 1_455 S
C3401 C3400 1.367 1_655 S
C3401 C3403 1.433 . S
C3402 C3398 1.350 1_655 S
C3402 C3399 1.463 1_655 S
C3402 N3406 1.427 . S
C3403 H3393 0.929 . S
C3403 C3401 1.433 . S
C3403 N3406 1.384 . S
C3404 H3395 0.929 . S
C3404 C3396 1.378 . S
C3404 C3399 1.350 1_655 S
C3405 H3392 0.929 . S
C3405 C3397 1.433 . S
C3405 N3407 1.384 . S
N3406 C3402 1.427 . S
N3406 C3403 1.384 . S
N3407 C3399 1.427 . S
N3407 C3405 1.384 . S
H3408 C3414 0.930 . S
H3409 C3418 0.930 . S
H3410 C3423 0.929 . S
H3411 C3421 0.929 . S
H3412 C3416 0.929 . S
H3413 C3422 0.929 . S
C3414 H3408 0.930 . S
C3414 C3415 1.367 . S
C3414 C3422 1.378 . S
C3415 C3414 1.367 . S
C3415 C3423 1.433 . S
C3416 H3412 0.929 . S
C3416 C3418 1.378 . S
C3416 C3420 1.350 . S
C3417 C3420 1.463 1_455 S
C3417 C3422 1.350 . S
C3417 N3425 1.427 . S
C3418 H3409 0.930 . S
C3418 C3416 1.378 . S
C3418 C3419 1.367 . S
C3419 C3418 1.367 . S
C3419 C3421 1.433 . S
C3420 C3416 1.350 . S
C3420 C3417 1.463 1_655 S
C3420 N3424 1.427 . S
C3421 H3411 0.929 . S
C3421 C3419 1.433 . S
C3421 N3424 1.384 . S
C3422 H3413 0.929 . S
C3422 C3414 1.378 . S
C3422 C3417 1.350 . S
C3423 H3410 0.929 . S
C3423 C3415 1.433 . S
C3423 N3425 1.384 . S
N3424 C3420 1.427 . S
N3424 C3421 1.384 . S
N3425 C3417 1.427 . S
N3425 C3423 1.384 . S
H3426 C3432 0.930 . S
H3427 C3436 0.930 . S
H3428 C3441 0.929 . S
H3429 C3439 0.929 . S
H3430 C3434 0.938 . S
H3431 C3440 0.938 . S
C3432 H3426 0.930 . S
C3432 C3433 1.367 . S
C3432 C3440 1.373 1_655 S
C3433 C3432 1.367 . S
C3433 C3441 1.433 . S
C3434 H3430 0.938 . S
C3434 C3436 1.373 1_655 S
C3434 C3438 1.347 1_655 S
C3435 C3438 1.463 1_655 S
C3435 C3440 1.347 1_655 S
C3435 N3443 1.427 . S
C3436 H3427 0.930 . S
C3436 C3434 1.373 1_455 S
C3436 C3437 1.367 . S
C3437 C3436 1.367 . S
C3437 C3439 1.433 . S
C3438 C3434 1.347 1_455 S
C3438 C3435 1.463 1_455 S
C3438 N3442 1.427 . S
C3439 H3429 0.929 . S
C3439 C3437 1.433 . S
C3439 N3442 1.384 . S
C3440 H3431 0.938 . S
C3440 C3432 1.373 1_455 S
C3440 C3435 1.347 1_455 S
C3441 H3428 0.929 . S
C3441 C3433 1.433 . S
C3441 N3443 1.384 . S
N3442 C3438 1.427 . S
N3442 C3439 1.384 . S
N3443 C3435 1.427 . S
N3443 C3441 1.384 . S
H3444 C3450 0.930 . S
H3445 C3454 0.930 . S
H3446 C3459 0.929 . S
H3447 C3457 0.929 . S
H3448 C3452 0.929 . S
H3449 C3458 0.929 . S
C3450 H3444 0.930 . S
C3450 C3451 1.367 . S
C3450 C3458 1.378 . S
C3451 C3450 1.367 . S
C3451 C3459 1.433 . S
C3452 H3448 0.929 . S
C3452 C3454 1.378 . S
C3452 C3456 1.350 . S
C3453 C3456 1.463 . S
C3453 C3458 1.350 . S
C3453 N3461 1.427 . S
C3454 H3445 0.930 . S
C3454 C3452 1.378 . S
C3454 C3455 1.367 . S
C3455 C3454 1.367 . S
C3455 C3457 1.433 . S
C3456 C3452 1.350 . S
C3456 C3453 1.463 . S
C3456 N3460 1.427 . S
C3457 H3447 0.929 . S
C3457 C3455 1.433 . S
C3457 N3460 1.384 . S
C3458 H3449 0.929 . S
C3458 C3450 1.378 . S
C3458 C3453 1.350 . S
C3459 H3446 0.929 . S
C3459 C3451 1.433 . S
C3459 N3461 1.384 . S
N3460 C3456 1.427 . S
N3460 C3457 1.384 . S
N3461 C3453 1.427 . S
N3461 C3459 1.384 . S
H3462 C3468 0.930 . S
H3463 C3472 0.930 . S
H3464 C3477 0.929 . S
H3465 C3475 0.929 . S
H3466 C3470 0.929 . S
H3467 C3476 0.929 . S
C3468 H3462 0.930 . S
C3468 C3469 1.367 . S
C3468 C3476 1.378 . S
C3469 C3468 1.367 . S
C3469 C3477 1.433 . S
C3470 H3466 0.929 . S
C3470 C3472 1.378 . S
C3470 C3474 1.350 . S
C3471 C3474 1.463 . S
C3471 C3476 1.350 . S
C3471 N3479 1.427 . S
C3472 H3463 0.930 . S
C3472 C3470 1.378 . S
C3472 C3473 1.367 . S
C3473 C3472 1.367 . S
C3473 C3475 1.433 . S
C3474 C3470 1.350 . S
C3474 C3471 1.463 . S
C3474 N3478 1.427 . S
C3475 H3465 0.929 . S
C3475 C3473 1.433 . S
C3475 N3478 1.384 . S
C3476 H3467 0.929 . S
C3476 C3468 1.378 . S
C3476 C3471 1.350 . S
C3477 H3464 0.929 . S
C3477 C3469 1.433 . S
C3477 N3479 1.384 . S
N3478 C3474 1.427 . S
N3478 C3475 1.384 . S
N3479 C3471 1.427 . S
N3479 C3477 1.384 . S
H3480 C3486 0.930 . S
H3481 C3490 0.930 . S
H3482 C3495 0.929 . S
H3483 C3493 0.929 . S
H3484 C3488 0.929 . S
H3485 C3494 0.929 . S
C3486 H3480 0.930 . S
C3486 C3487 1.367 . S
C3486 C3494 1.378 . S
C3487 C3486 1.367 . S
C3487 C3495 1.433 . S
C3488 H3484 0.929 . S
C3488 C3490 1.378 . S
C3488 C3492 1.350 . S
C3489 C3492 1.463 1_455 S
C3489 C3494 1.350 . S
C3489 N3497 1.427 . S
C3490 H3481 0.930 . S
C3490 C3488 1.378 . S
C3490 C3491 1.367 . S
C3491 C3490 1.367 . S
C3491 C3493 1.433 . S
C3492 C3488 1.350 . S
C3492 C3489 1.463 1_655 S
C3492 N3496 1.427 . S
C3493 H3483 0.929 . S
C3493 C3491 1.433 . S
C3493 N3496 1.384 . S
C3494 H3485 0.929 . S
C3494 C3486 1.378 . S
C3494 C3489 1.350 . S
C3495 H3482 0.929 . S
C3495 C3487 1.433 . S
C3495 N3497 1.384 . S
N3496 C3492 1.427 . S
N3496 C3493 1.384 . S
N3497 C3489 1.427 . S
N3497 C3495 1.384 . S
H3498 C3504 0.930 . S
H3499 C3508 0.930 . S
H3500 C3513 0.929 . S
H3501 C3511 0.929 . S
H3502 C3506 0.929 . S
H3503 C3512 0.929 . S
C3504 H3498 0.930 . S
C3504 C3505 1.367 . S
C3504 C3512 1.378 . S
C3505 C3504 1.367 . S
C3505 C3513 1.433 . S
C3506 H3502 0.929 . S
C3506 C3508 1.378 . S
C3506 C3510 1.350 . S
C3507 C3510 1.463 . S
C3507 C3512 1.350 . S
C3507 N3515 1.427 . S
C3508 H3499 0.930 . S
C3508 C3506 1.378 . S
C3508 C3509 1.367 . S
C3509 C3508 1.367 . S
C3509 C3511 1.433 . S
C3510 C3506 1.350 . S
C3510 C3507 1.463 . S
C3510 N3514 1.427 . S
C3511 H3501 0.929 . S
C3511 C3509 1.433 . S
C3511 N3514 1.384 . S
C3512 H3503 0.929 . S
C3512 C3504 1.378 . S
C3512 C3507 1.350 . S
C3513 H3500 0.929 . S
C3513 C3505 1.433 . S
C3513 N3515 1.384 . S
N3514 C3510 1.427 . S
N3514 C3511 1.384 . S
N3515 C3507 1.427 . S
N3515 C3513 1.384 . S
H3516 C3522 0.930 . S
H3517 C3526 0.930 . S
H3518 C3531 0.929 . S
H3519 C3529 0.929 . S
H3520 C3524 0.929 . S
H3521 C3530 0.929 . S
C3522 H3516 0.930 . S
C3522 C3523 1.367 . S
C3522 C3530 1.378 . S
C3523 C3522 1.367 . S
C3523 C3531 1.433 . S
C3524 H3520 0.929 . S
C3524 C3526 1.378 . S
C3524 C3528 1.350 . S
C3525 C3528 1.463 . S
C3525 C3530 1.350 . S
C3525 N3533 1.427 . S
C3526 H3517 0.930 . S
C3526 C3524 1.378 . S
C3526 C3527 1.367 . S
C3527 C3526 1.367 . S
C3527 C3529 1.433 . S
C3528 C3524 1.350 . S
C3528 C3525 1.463 . S
C3528 N3532 1.427 . S
C3529 H3519 0.929 . S
C3529 C3527 1.433 . S
C3529 N3532 1.384 . S
C3530 H3521 0.929 . S
C3530 C3522 1.378 . S
C3530 C3525 1.350 . S
C3531 H3518 0.929 . S
C3531 C3523 1.433 . S
C3531 N3533 1.384 . S
N3532 C3528 1.427 . S
N3532 C3529 1.384 . S
N3533 C3525 1.427 . S
N3533 C3531 1.384 . S
H3534 C3540 0.930 . S
H3535 C3544 0.930 . S
H3536 C3549 0.929 . S
H3537 C3547 0.929 . S
H3538 C3542 0.929 . S
H3539 C3548 0.929 . S
C3540 H3534 0.930 . S
C3540 C3541 1.367 1_455 S
C3540 C3548 1.378 . S
C3541 C3540 1.367 1_655 S
C3541 C3549 1.433 . S
C3542 H3538 0.929 . S
C3542 C3544 1.378 . S
C3542 C3546 1.350 1_655 S
C3543 C3546 1.463 1_655 S
C3543 C3548 1.350 1_655 S
C3543 N3551 1.427 . S
C3544 H3535 0.930 . S
C3544 C3542 1.378 . S
C3544 C3545 1.367 1_655 S
C3545 C3544 1.367 1_455 S
C3545 C3547 1.433 . S
C3546 C3542 1.350 1_455 S
C3546 C3543 1.463 1_455 S
C3546 N3550 1.427 . S
C3547 H3537 0.929 . S
C3547 C3545 1.433 . S
C3547 N3550 1.384 . S
C3548 H3539 0.929 . S
C3548 C3540 1.378 . S
C3548 C3543 1.350 1_455 S
C3549 H3536 0.929 . S
C3549 C3541 1.433 . S
C3549 N3551 1.384 . S
N3550 C3546 1.427 . S
N3550 C3547 1.384 . S
N3551 C3543 1.427 . S
N3551 C3549 1.384 . S
H3552 C3558 0.930 . S
H3553 C3562 0.930 . S
H3554 C3567 0.929 . S
H3555 C3565 0.929 . S
H3556 C3560 0.929 . S
H3557 C3566 0.929 . S
C3558 H3552 0.930 . S
C3558 C3559 1.367 . S
C3558 C3566 1.378 . S
C3559 C3558 1.367 . S
C3559 C3567 1.433 . S
C3560 H3556 0.929 . S
C3560 C3562 1.378 . S
C3560 C3564 1.350 . S
C3561 C3564 1.463 . S
C3561 C3566 1.350 . S
C3561 N3569 1.427 . S
C3562 H3553 0.930 . S
C3562 C3560 1.378 . S
C3562 C3563 1.367 . S
C3563 C3562 1.367 . S
C3563 C3565 1.433 . S
C3564 C3560 1.350 . S
C3564 C3561 1.463 . S
C3564 N3568 1.427 . S
C3565 H3555 0.929 . S
C3565 C3563 1.433 . S
C3565 N3568 1.384 . S
C3566 H3557 0.929 . S
C3566 C3558 1.378 . S
C3566 C3561 1.350 . S
C3567 H3554 0.929 . S
C3567 C3559 1.433 . S
C3567 N3569 1.384 . S
N3568 C3564 1.427 . S
N3568 C3565 1.384 . S
N3569 C3561 1.427 . S
N3569 C3567 1.384 . S
H3570 C3576 0.930 . S
H3571 C3580 0.930 . S
H3572 C3585 0.929 . S
H3573 C3583 0.929 . S
H3574 C3578 0.929 1_655 S
H3575 C3584 0.929 1_455 S
C3576 H3570 0.930 . S
C3576 C3577 1.367 1_565 S
C3576 C3584 1.378 . S
C3577 C3576 1.367 1_545 S
C3577 C3585 1.433 . S
C3578 H3574 0.929 1_455 S
C3578 C3580 1.378 . S
C3578 C3582 1.350 1_545 S
C3579 C3582 1.463 1_645 S
C3579 C3584 1.350 1_545 S
C3579 N3587 1.427 . S
C3580 H3571 0.930 . S
C3580 C3578 1.378 . S
C3580 C3581 1.367 1_545 S
C3581 C3580 1.367 1_565 S
C3581 C3583 1.433 . S
C3582 C3578 1.350 1_565 S
C3582 C3579 1.463 1_465 S
C3582 N3586 1.427 . S
C3583 H3573 0.929 . S
C3583 C3581 1.433 . S
C3583 N3586 1.384 . S
C3584 H3575 0.929 1_655 S
C3584 C3576 1.378 . S
C3584 C3579 1.350 1_565 S
C3585 H3572 0.929 . S
C3585 C3577 1.433 . S
C3585 N3587 1.384 . S
N3586 C3582 1.427 . S
N3586 C3583 1.384 . S
N3587 C3579 1.427 . S
N3587 C3585 1.384 . S
H3588 C3594 0.930 . S
H3589 C3598 0.930 . S
H3590 C3603 0.929 . S
H3591 C3601 0.929 . S
H3592 C3596 0.929 . S
H3593 C3602 0.929 . S
C3594 H3588 0.930 . S
C3594 C3595 1.367 . S
C3594 C3602 1.378 . S
C3595 C3594 1.367 . S
C3595 C3603 1.433 . S
C3596 H3592 0.929 . S
C3596 C3598 1.378 . S
C3596 C3600 1.350 . S
C3597 C3600 1.463 . S
C3597 C3602 1.350 . S
C3597 N3605 1.427 . S
C3598 H3589 0.930 . S
C3598 C3596 1.378 . S
C3598 C3599 1.367 . S
C3599 C3598 1.367 . S
C3599 C3601 1.433 . S
C3600 C3596 1.350 . S
C3600 C3597 1.463 . S
C3600 N3604 1.427 . S
C3601 H3591 0.929 . S
C3601 C3599 1.433 . S
C3601 N3604 1.384 . S
C3602 H3593 0.929 . S
C3602 C3594 1.378 . S
C3602 C3597 1.350 . S
C3603 H3590 0.929 . S
C3603 C3595 1.433 . S
C3603 N3605 1.384 . S
N3604 C3600 1.427 . S
N3604 C3601 1.384 . S
N3605 C3597 1.427 . S
N3605 C3603 1.384 . S
H3606 C3612 0.930 1_565 S
H3607 C3616 0.930 1_545 S
H3608 C3621 0.929 . S
H3609 C3619 0.929 . S
H3610 C3614 0.929 . S
H3611 C3620 0.929 . S
C3612 H3606 0.930 1_545 S
C3612 C3613 1.367 . S
C3612 C3620 1.378 1_545 S
C3613 C3612 1.367 . S
C3613 C3621 1.433 . S
C3614 H3610 0.929 . S
C3614 C3616 1.378 1_545 S
C3614 C3618 1.350 1_545 S
C3615 C3618 1.463 1_544 S
C3615 C3620 1.350 1_545 S
C3615 N3623 1.427 . S
C3616 H3607 0.930 1_565 S
C3616 C3614 1.378 1_565 S
C3616 C3617 1.367 . S
C3617 C3616 1.367 . S
C3617 C3619 1.433 . S
C3618 C3614 1.350 1_565 S
C3618 C3615 1.463 1_566 S
C3618 N3622 1.427 . S
C3619 H3609 0.929 . S
C3619 C3617 1.433 . S
C3619 N3622 1.384 . S
C3620 H3611 0.929 . S
C3620 C3612 1.378 1_565 S
C3620 C3615 1.350 1_565 S
C3621 H3608 0.929 . S
C3621 C3613 1.433 . S
C3621 N3623 1.384 . S
N3622 C3618 1.427 . S
N3622 C3619 1.384 . S
N3623 C3615 1.427 . S
N3623 C3621 1.384 . S
H3624 C3630 0.930 . S
H3625 C3634 0.930 . S
H3626 C3639 0.929 . S
H3627 C3637 0.929 . S
H3628 C3632 0.929 . S
H3629 C3638 0.929 . S
C3630 H3624 0.930 . S
C3630 C3631 1.367 . S
C3630 C3638 1.378 . S
C3631 C3630 1.367 . S
C3631 C3639 1.433 . S
C3632 H3628 0.929 . S
C3632 C3634 1.378 . S
C3632 C3636 1.350 . S
C3633 C3636 1.463 . S
C3633 C3638 1.350 . S
C3633 N3641 1.427 . S
C3634 H3625 0.930 . S
C3634 C3632 1.378 . S
C3634 C3635 1.367 . S
C3635 C3634 1.367 . S
C3635 C3637 1.433 . S
C3636 C3632 1.350 . S
C3636 C3633 1.463 . S
C3636 N3640 1.427 . S
C3637 H3627 0.929 . S
C3637 C3635 1.433 . S
C3637 N3640 1.384 . S
C3638 H3629 0.929 . S
C3638 C3630 1.378 . S
C3638 C3633 1.350 . S
C3639 H3626 0.929 . S
C3639 C3631 1.433 . S
C3639 N3641 1.384 . S
N3640 C3636 1.427 . S
N3640 C3637 1.384 . S
N3641 C3633 1.427 . S
N3641 C3639 1.384 . S
H3642 C3648 0.930 . S
H3643 C3652 0.930 . S
H3644 C3657 0.929 . S
H3645 C3655 0.929 . S
H3646 C3650 0.929 . S
H3647 C3656 0.929 . S
C3648 H3642 0.930 . S
C3648 C3649 1.367 . S
C3648 C3656 1.378 . S
C3649 C3648 1.367 . S
C3649 C3657 1.433 1_545 S
C3650 H3646 0.929 . S
C3650 C3652 1.378 . S
C3650 C3654 1.350 . S
C3651 C3654 1.463 1_545 S
C3651 C3656 1.350 . S
C3651 N3659 1.427 1_545 S
C3652 H3643 0.930 . S
C3652 C3650 1.378 . S
C3652 C3653 1.367 . S
C3653 C3652 1.367 . S
C3653 C3655 1.433 1_565 S
C3654 C3650 1.350 . S
C3654 C3651 1.463 1_565 S
C3654 N3658 1.427 1_565 S
C3655 H3645 0.929 . S
C3655 C3653 1.433 1_545 S
C3655 N3658 1.384 . S
C3656 H3647 0.929 . S
C3656 C3648 1.378 . S
C3656 C3651 1.350 . S
C3657 H3644 0.929 . S
C3657 C3649 1.433 1_565 S
C3657 N3659 1.384 . S
N3658 C3654 1.427 1_545 S
N3658 C3655 1.384 . S
N3659 C3651 1.427 1_565 S
N3659 C3657 1.384 . S
H3660 C3666 0.930 . S
H3661 C3670 0.930 . S
H3662 C3675 0.929 . S
H3663 C3673 0.929 . S
H3664 C3668 0.929 . S
H3665 C3674 0.929 . S
C3666 H3660 0.930 . S
C3666 C3667 1.367 . S
C3666 C3674 1.378 . S
C3667 C3666 1.367 . S
C3667 C3675 1.433 . S
C3668 H3664 0.929 . S
C3668 C3670 1.378 . S
C3668 C3672 1.350 . S
C3669 C3672 1.463 . S
C3669 C3674 1.350 . S
C3669 N3677 1.427 . S
C3670 H3661 0.930 . S
C3670 C3668 1.378 . S
C3670 C3671 1.367 . S
C3671 C3670 1.367 . S
C3671 C3673 1.433 . S
C3672 C3668 1.350 . S
C3672 C3669 1.463 . S
C3672 N3676 1.427 . S
C3673 H3663 0.929 . S
C3673 C3671 1.433 . S
C3673 N3676 1.384 . S
C3674 H3665 0.929 . S
C3674 C3666 1.378 . S
C3674 C3669 1.350 . S
C3675 H3662 0.929 . S
C3675 C3667 1.433 . S
C3675 N3677 1.384 . S
N3676 C3672 1.427 . S
N3676 C3673 1.384 . S
N3677 C3669 1.427 . S
N3677 C3675 1.384 . S
H3678 C3684 0.930 . S
H3679 C3688 0.930 . S
H3680 C3693 0.929 . S
H3681 C3691 0.929 . S
H3682 C3686 0.911 1_455 S
H3683 C3692 0.911 1_655 S
C3684 H3678 0.930 . S
C3684 C3685 1.367 . S
C3684 C3692 1.391 . S
C3685 C3684 1.367 . S
C3685 C3693 1.433 1_545 S
C3686 H3682 0.911 1_655 S
C3686 C3688 1.391 . S
C3686 C3690 1.356 . S
C3687 C3690 1.463 1_446 S
C3687 C3692 1.356 . S
C3687 N3695 1.427 1_545 S
C3688 H3679 0.930 . S
C3688 C3686 1.391 . S
C3688 C3689 1.367 . S
C3689 C3688 1.367 . S
C3689 C3691 1.433 1_565 S
C3690 C3686 1.356 . S
C3690 C3687 1.463 1_664 S
C3690 N3694 1.427 1_565 S
C3691 H3681 0.929 . S
C3691 C3689 1.433 1_545 S
C3691 N3694 1.384 . S
C3692 H3683 0.911 1_455 S
C3692 C3684 1.391 . S
C3692 C3687 1.356 . S
C3693 H3680 0.929 . S
C3693 C3685 1.433 1_565 S
C3693 N3695 1.384 . S
N3694 C3690 1.427 1_545 S
N3694 C3691 1.384 . S
N3695 C3687 1.427 1_565 S
N3695 C3693 1.384 . S
H3696 C3702 0.930 . S
H3697 C3706 0.930 . S
H3698 C3711 0.929 . S
H3699 C3709 0.929 . S
H3700 C3704 0.929 . S
H3701 C3710 0.929 . S
C3702 H3696 0.930 . S
C3702 C3703 1.367 . S
C3702 C3710 1.378 . S
C3703 C3702 1.367 . S
C3703 C3711 1.433 . S
C3704 H3700 0.929 . S
C3704 C3706 1.378 . S
C3704 C3708 1.350 . S
C3705 C3708 1.463 . S
C3705 C3710 1.350 . S
C3705 N3713 1.427 . S
C3706 H3697 0.930 . S
C3706 C3704 1.378 . S
C3706 C3707 1.367 . S
C3707 C3706 1.367 . S
C3707 C3709 1.433 . S
C3708 C3704 1.350 . S
C3708 C3705 1.463 . S
C3708 N3712 1.427 . S
C3709 H3699 0.929 . S
C3709 C3707 1.433 . S
C3709 N3712 1.384 . S
C3710 H3701 0.929 . S
C3710 C3702 1.378 . S
C3710 C3705 1.350 . S
C3711 H3698 0.929 . S
C3711 C3703 1.433 . S
C3711 N3713 1.384 . S
N3712 C3708 1.427 . S
N3712 C3709 1.384 . S
N3713 C3705 1.427 . S
N3713 C3711 1.384 . S
H3714 C3720 0.930 . S
H3715 C3724 0.930 . S
H3716 C3729 0.929 . S
H3717 C3727 0.929 . S
H3718 C3722 0.929 . S
H3719 C3728 0.929 . S
C3720 H3714 0.930 . S
C3720 C3721 1.367 . S
C3720 C3728 1.378 . S
C3721 C3720 1.367 . S
C3721 C3729 1.433 . S
C3722 H3718 0.929 . S
C3722 C3724 1.378 . S
C3722 C3726 1.350 . S
C3723 C3726 1.463 . S
C3723 C3728 1.350 . S
C3723 N3731 1.427 . S
C3724 H3715 0.930 . S
C3724 C3722 1.378 . S
C3724 C3725 1.367 . S
C3725 C3724 1.367 . S
C3725 C3727 1.433 . S
C3726 C3722 1.350 . S
C3726 C3723 1.463 . S
C3726 N3730 1.427 . S
C3727 H3717 0.929 . S
C3727 C3725 1.433 . S
C3727 N3730 1.384 . S
C3728 H3719 0.929 . S
C3728 C3720 1.378 . S
C3728 C3723 1.350 . S
C3729 H3716 0.929 . S
C3729 C3721 1.433 . S
C3729 N3731 1.384 . S
N3730 C3726 1.427 . S
N3730 C3727 1.384 . S
N3731 C3723 1.427 . S
N3731 C3729 1.384 . S
H3732 C3738 0.930 . S
H3733 C3742 0.930 . S
H3734 C3747 0.929 . S
H3735 C3745 0.929 . S
H3736 C3740 0.929 . S
H3737 C3746 0.929 . S
C3738 H3732 0.930 . S
C3738 C3739 1.367 . S
C3738 C3746 1.378 . S
C3739 C3738 1.367 . S
C3739 C3747 1.433 . S
C3740 H3736 0.929 . S
C3740 C3742 1.378 . S
C3740 C3744 1.350 . S
C3741 C3744 1.463 . S
C3741 C3746 1.350 . S
C3741 N3749 1.427 . S
C3742 H3733 0.930 . S
C3742 C3740 1.378 . S
C3742 C3743 1.367 . S
C3743 C3742 1.367 . S
C3743 C3745 1.433 . S
C3744 C3740 1.350 . S
C3744 C3741 1.463 . S
C3744 N3748 1.427 . S
C3745 H3735 0.929 . S
C3745 C3743 1.433 . S
C3745 N3748 1.384 . S
C3746 H3737 0.929 . S
C3746 C3738 1.378 . S
C3746 C3741 1.350 . S
C3747 H3734 0.929 . S
C3747 C3739 1.433 . S
C3747 N3749 1.384 . S
N3748 C3744 1.427 . S
N3748 C3745 1.384 . S
N3749 C3741 1.427 . S
N3749 C3747 1.384 . S
H3750 C3756 0.930 . S
H3751 C3760 0.930 . S
H3752 C3765 0.929 . S
H3753 C3763 0.929 . S
H3754 C3758 0.929 . S
H3755 C3764 0.929 . S
C3756 H3750 0.930 . S
C3756 C3757 1.367 . S
C3756 C3764 1.378 . S
C3757 C3756 1.367 . S
C3757 C3765 1.433 . S
C3758 H3754 0.929 . S
C3758 C3760 1.378 . S
C3758 C3762 1.350 . S
C3759 C3762 1.463 . S
C3759 C3764 1.350 . S
C3759 N3767 1.427 . S
C3760 H3751 0.930 . S
C3760 C3758 1.378 . S
C3760 C3761 1.367 . S
C3761 C3760 1.367 . S
C3761 C3763 1.433 . S
C3762 C3758 1.350 . S
C3762 C3759 1.463 . S
C3762 N3766 1.427 . S
C3763 H3753 0.929 . S
C3763 C3761 1.433 . S
C3763 N3766 1.384 . S
C3764 H3755 0.929 . S
C3764 C3756 1.378 . S
C3764 C3759 1.350 . S
C3765 H3752 0.929 . S
C3765 C3757 1.433 . S
C3765 N3767 1.384 . S
N3766 C3762 1.427 . S
N3766 C3763 1.384 . S
N3767 C3759 1.427 . S
N3767 C3765 1.384 . S
H3768 C3774 0.930 . S
H3769 C3778 0.930 . S
H3770 C3783 0.929 . S
H3771 C3781 0.929 . S
H3772 C3776 0.929 . S
H3773 C3782 0.929 . S
C3774 H3768 0.930 . S
C3774 C3775 1.367 . S
C3774 C3782 1.378 . S
C3775 C3774 1.367 . S
C3775 C3783 1.433 . S
C3776 H3772 0.929 . S
C3776 C3778 1.378 . S
C3776 C3780 1.350 . S
C3777 C3780 1.463 1_554 S
C3777 C3782 1.350 . S
C3777 N3785 1.427 . S
C3778 H3769 0.930 . S
C3778 C3776 1.378 . S
C3778 C3779 1.367 . S
C3779 C3778 1.367 . S
C3779 C3781 1.433 . S
C3780 C3776 1.350 . S
C3780 C3777 1.463 1_556 S
C3780 N3784 1.427 . S
C3781 H3771 0.929 . S
C3781 C3779 1.433 . S
C3781 N3784 1.384 . S
C3782 H3773 0.929 . S
C3782 C3774 1.378 . S
C3782 C3777 1.350 . S
C3783 H3770 0.929 . S
C3783 C3775 1.433 . S
C3783 N3785 1.384 . S
N3784 C3780 1.427 . S
N3784 C3781 1.384 . S
N3785 C3777 1.427 . S
N3785 C3783 1.384 . S
H3786 C3792 0.930 . S
H3787 C3796 0.930 . S
H3788 C3801 0.929 . S
H3789 C3799 0.929 . S
H3790 C3794 0.929 . S
H3791 C3800 0.929 . S
C3792 H3786 0.930 . S
C3792 C3793 1.367 . S
C3792 C3800 1.378 . S
C3793 C3792 1.367 . S
C3793 C3801 1.433 . S
C3794 H3790 0.929 . S
C3794 C3796 1.378 . S
C3794 C3798 1.350 . S
C3795 C3798 1.463 1_655 S
C3795 C3800 1.350 . S
C3795 N3803 1.427 . S
C3796 H3787 0.930 . S
C3796 C3794 1.378 . S
C3796 C3797 1.367 . S
C3797 C3796 1.367 . S
C3797 C3799 1.433 . S
C3798 C3794 1.350 . S
C3798 C3795 1.463 1_455 S
C3798 N3802 1.427 . S
C3799 H3789 0.929 . S
C3799 C3797 1.433 . S
C3799 N3802 1.384 . S
C3800 H3791 0.929 . S
C3800 C3792 1.378 . S
C3800 C3795 1.350 . S
C3801 H3788 0.929 . S
C3801 C3793 1.433 . S
C3801 N3803 1.384 . S
N3802 C3798 1.427 . S
N3802 C3799 1.384 . S
N3803 C3795 1.427 . S
N3803 C3801 1.384 . S
H3804 C3810 0.930 . S
H3805 C3814 0.930 . S
H3806 C3819 0.929 . S
H3807 C3817 0.929 . S
H3808 C3812 0.929 . S
H3809 C3818 0.929 . S
C3810 H3804 0.930 . S
C3810 C3811 1.367 . S
C3810 C3818 1.378 . S
C3811 C3810 1.367 . S
C3811 C3819 1.433 . S
C3812 H3808 0.929 . S
C3812 C3814 1.378 . S
C3812 C3816 1.350 . S
C3813 C3816 1.463 1_454 S
C3813 C3818 1.350 . S
C3813 N3821 1.427 . S
C3814 H3805 0.930 . S
C3814 C3812 1.378 . S
C3814 C3815 1.367 . S
C3815 C3814 1.367 . S
C3815 C3817 1.433 . S
C3816 C3812 1.350 . S
C3816 C3813 1.463 1_656 S
C3816 N3820 1.427 . S
C3817 H3807 0.929 . S
C3817 C3815 1.433 . S
C3817 N3820 1.384 . S
C3818 H3809 0.929 . S
C3818 C3810 1.378 . S
C3818 C3813 1.350 . S
C3819 H3806 0.929 . S
C3819 C3811 1.433 . S
C3819 N3821 1.384 . S
N3820 C3816 1.427 . S
N3820 C3817 1.384 . S
N3821 C3813 1.427 . S
N3821 C3819 1.384 . S
H3822 C3828 0.930 . S
H3823 C3832 0.930 . S
H3824 C3837 0.929 . S
H3825 C3835 0.929 . S
H3826 C3830 0.929 . S
H3827 C3836 0.929 . S
C3828 H3822 0.930 . S
C3828 C3829 1.367 . S
C3828 C3836 1.378 . S
C3829 C3828 1.367 . S
C3829 C3837 1.433 . S
C3830 H3826 0.929 . S
C3830 C3832 1.378 . S
C3830 C3834 1.350 . S
C3831 C3834 1.463 . S
C3831 C3836 1.350 . S
C3831 N3839 1.427 . S
C3832 H3823 0.930 . S
C3832 C3830 1.378 . S
C3832 C3833 1.367 . S
C3833 C3832 1.367 . S
C3833 C3835 1.433 . S
C3834 C3830 1.350 . S
C3834 C3831 1.463 . S
C3834 N3838 1.427 . S
C3835 H3825 0.929 . S
C3835 C3833 1.433 . S
C3835 N3838 1.384 . S
C3836 H3827 0.929 . S
C3836 C3828 1.378 . S
C3836 C3831 1.350 . S
C3837 H3824 0.929 . S
C3837 C3829 1.433 . S
C3837 N3839 1.384 . S
N3838 C3834 1.427 . S
N3838 C3835 1.384 . S
N3839 C3831 1.427 . S
N3839 C3837 1.384 . S
H3840 C3846 0.930 . S
H3841 C3850 0.930 . S
H3842 C3855 0.929 . S
H3843 C3853 0.929 . S
H3844 C3848 0.929 . S
H3845 C3854 0.929 . S
C3846 H3840 0.930 . S
C3846 C3847 1.367 . S
C3846 C3854 1.378 . S
C3847 C3846 1.367 . S
C3847 C3855 1.433 . S
C3848 H3844 0.929 . S
C3848 C3850 1.378 . S
C3848 C3852 1.350 . S
C3849 C3852 1.463 . S
C3849 C3854 1.350 . S
C3849 N3857 1.427 . S
C3850 H3841 0.930 . S
C3850 C3848 1.378 . S
C3850 C3851 1.367 . S
C3851 C3850 1.367 . S
C3851 C3853 1.433 . S
C3852 C3848 1.350 . S
C3852 C3849 1.463 . S
C3852 N3856 1.427 . S
C3853 H3843 0.929 . S
C3853 C3851 1.433 . S
C3853 N3856 1.384 . S
C3854 H3845 0.929 . S
C3854 C3846 1.378 . S
C3854 C3849 1.350 . S
C3855 H3842 0.929 . S
C3855 C3847 1.433 . S
C3855 N3857 1.384 . S
N3856 C3852 1.427 . S
N3856 C3853 1.384 . S
N3857 C3849 1.427 . S
N3857 C3855 1.384 . S
H3858 C3864 0.930 . S
H3859 C3868 0.930 . S
H3860 C3873 0.929 . S
H3861 C3871 0.929 . S
H3862 C3866 0.929 . S
H3863 C3872 0.929 . S
C3864 H3858 0.930 . S
C3864 C3865 1.367 . S
C3864 C3872 1.378 . S
C3865 C3864 1.367 . S
C3865 C3873 1.433 . S
C3866 H3862 0.929 . S
C3866 C3868 1.378 . S
C3866 C3870 1.350 . S
C3867 C3870 1.463 . S
C3867 C3872 1.350 . S
C3867 N3875 1.427 . S
C3868 H3859 0.930 . S
C3868 C3866 1.378 . S
C3868 C3869 1.367 . S
C3869 C3868 1.367 . S
C3869 C3871 1.433 . S
C3870 C3866 1.350 . S
C3870 C3867 1.463 . S
C3870 N3874 1.427 . S
C3871 H3861 0.929 . S
C3871 C3869 1.433 . S
C3871 N3874 1.384 . S
C3872 H3863 0.929 . S
C3872 C3864 1.378 . S
C3872 C3867 1.350 . S
C3873 H3860 0.929 . S
C3873 C3865 1.433 . S
C3873 N3875 1.384 . S
N3874 C3870 1.427 . S
N3874 C3871 1.384 . S
N3875 C3867 1.427 . S
N3875 C3873 1.384 . S
H3876 C3882 0.930 . S
H3877 C3886 0.930 . S
H3878 C3891 0.929 . S
H3879 C3889 0.929 . S
H3880 C3884 0.929 . S
H3881 C3890 0.929 . S
C3882 H3876 0.930 . S
C3882 C3883 1.367 . S
C3882 C3890 1.378 . S
C3883 C3882 1.367 . S
C3883 C3891 1.433 . S
C3884 H3880 0.929 . S
C3884 C3886 1.378 . S
C3884 C3888 1.350 . S
C3885 C3888 1.463 . S
C3885 C3890 1.350 . S
C3885 N3893 1.427 . S
C3886 H3877 0.930 . S
C3886 C3884 1.378 . S
C3886 C3887 1.367 . S
C3887 C3886 1.367 . S
C3887 C3889 1.433 . S
C3888 C3884 1.350 . S
C3888 C3885 1.463 . S
C3888 N3892 1.427 . S
C3889 H3879 0.929 . S
C3889 C3887 1.433 . S
C3889 N3892 1.384 . S
C3890 H3881 0.929 . S
C3890 C3882 1.378 . S
C3890 C3885 1.350 . S
C3891 H3878 0.929 . S
C3891 C3883 1.433 . S
C3891 N3893 1.384 . S
N3892 C3888 1.427 . S
N3892 C3889 1.384 . S
N3893 C3885 1.427 . S
N3893 C3891 1.384 . S
H3894 C3900 0.930 . S
H3895 C3904 0.930 . S
H3896 C3909 0.929 . S
H3897 C3907 0.929 . S
H3898 C3902 0.929 . S
H3899 C3908 0.929 . S
C3900 H3894 0.930 . S
C3900 C3901 1.367 . S
C3900 C3908 1.378 . S
C3901 C3900 1.367 . S
C3901 C3909 1.433 . S
C3902 H3898 0.929 . S
C3902 C3904 1.378 . S
C3902 C3906 1.350 . S
C3903 C3906 1.463 . S
C3903 C3908 1.350 . S
C3903 N3911 1.427 . S
C3904 H3895 0.930 . S
C3904 C3902 1.378 . S
C3904 C3905 1.367 . S
C3905 C3904 1.367 . S
C3905 C3907 1.433 . S
C3906 C3902 1.350 . S
C3906 C3903 1.463 . S
C3906 N3910 1.427 . S
C3907 H3897 0.929 . S
C3907 C3905 1.433 . S
C3907 N3910 1.384 . S
C3908 H3899 0.929 . S
C3908 C3900 1.378 . S
C3908 C3903 1.350 . S
C3909 H3896 0.929 . S
C3909 C3901 1.433 . S
C3909 N3911 1.384 . S
N3910 C3906 1.427 . S
N3910 C3907 1.384 . S
N3911 C3903 1.427 . S
N3911 C3909 1.384 . S
H3912 C3918 0.930 . S
H3913 C3922 0.930 . S
H3914 C3927 0.929 . S
H3915 C3925 0.929 . S
H3916 C3920 0.929 . S
H3917 C3926 0.929 . S
C3918 H3912 0.930 . S
C3918 C3919 1.367 . S
C3918 C3926 1.378 . S
C3919 C3918 1.367 . S
C3919 C3927 1.433 . S
C3920 H3916 0.929 . S
C3920 C3922 1.378 . S
C3920 C3924 1.350 . S
C3921 C3924 1.463 . S
C3921 C3926 1.350 . S
C3921 N3929 1.427 . S
C3922 H3913 0.930 . S
C3922 C3920 1.378 . S
C3922 C3923 1.367 . S
C3923 C3922 1.367 . S
C3923 C3925 1.433 . S
C3924 C3920 1.350 . S
C3924 C3921 1.463 . S
C3924 N3928 1.427 . S
C3925 H3915 0.929 . S
C3925 C3923 1.433 . S
C3925 N3928 1.384 . S
C3926 H3917 0.929 . S
C3926 C3918 1.378 . S
C3926 C3921 1.350 . S
C3927 H3914 0.929 . S
C3927 C3919 1.433 . S
C3927 N3929 1.384 . S
N3928 C3924 1.427 . S
N3928 C3925 1.384 . S
N3929 C3921 1.427 . S
N3929 C3927 1.384 . S
H3930 C3936 0.930 . S
H3931 C3940 0.930 . S
H3932 C3945 0.929 . S
H3933 C3943 0.929 . S
H3934 C3938 0.929 . S
H3935 C3944 0.929 . S
C3936 H3930 0.930 . S
C3936 C3937 1.367 . S
C3936 C3944 1.378 . S
C3937 C3936 1.367 . S
C3937 C3945 1.433 . S
C3938 H3934 0.929 . S
C3938 C3940 1.378 . S
C3938 C3942 1.350 . S
C3939 C3942 1.463 . S
C3939 C3944 1.350 . S
C3939 N3947 1.427 . S
C3940 H3931 0.930 . S
C3940 C3938 1.378 . S
C3940 C3941 1.367 . S
C3941 C3940 1.367 . S
C3941 C3943 1.433 . S
C3942 C3938 1.350 . S
C3942 C3939 1.463 . S
C3942 N3946 1.427 . S
C3943 H3933 0.929 . S
C3943 C3941 1.433 . S
C3943 N3946 1.384 . S
C3944 H3935 0.929 . S
C3944 C3936 1.378 . S
C3944 C3939 1.350 . S
C3945 H3932 0.929 . S
C3945 C3937 1.433 . S
C3945 N3947 1.384 . S
N3946 C3942 1.427 . S
N3946 C3943 1.384 . S
N3947 C3939 1.427 . S
N3947 C3945 1.384 . S
H3948 C3954 0.930 . S
H3949 C3958 0.930 . S
H3950 C3963 0.929 . S
H3951 C3961 0.929 . S
H3952 C3956 0.929 . S
H3953 C3962 0.929 . S
C3954 H3948 0.930 . S
C3954 C3955 1.367 . S
C3954 C3962 1.378 . S
C3955 C3954 1.367 . S
C3955 C3963 1.433 . S
C3956 H3952 0.929 . S
C3956 C3958 1.378 . S
C3956 C3960 1.350 . S
C3957 C3960 1.463 . S
C3957 C3962 1.350 . S
C3957 N3965 1.427 . S
C3958 H3949 0.930 . S
C3958 C3956 1.378 . S
C3958 C3959 1.367 . S
C3959 C3958 1.367 . S
C3959 C3961 1.433 . S
C3960 C3956 1.350 . S
C3960 C3957 1.463 . S
C3960 N3964 1.427 . S
C3961 H3951 0.929 . S
C3961 C3959 1.433 . S
C3961 N3964 1.384 . S
C3962 H3953 0.929 . S
C3962 C3954 1.378 . S
C3962 C3957 1.350 . S
C3963 H3950 0.929 . S
C3963 C3955 1.433 . S
C3963 N3965 1.384 . S
N3964 C3960 1.427 . S
N3964 C3961 1.384 . S
N3965 C3957 1.427 . S
N3965 C3963 1.384 . S
H3966 C3972 0.930 . S
H3967 C3976 0.930 . S
H3968 C3981 0.929 . S
H3969 C3979 0.929 . S
H3970 C3974 0.929 . S
H3971 C3980 0.929 . S
C3972 H3966 0.930 . S
C3972 C3973 1.367 . S
C3972 C3980 1.378 . S
C3973 C3972 1.367 . S
C3973 C3981 1.433 . S
C3974 H3970 0.929 . S
C3974 C3976 1.378 . S
C3974 C3978 1.350 . S
C3975 C3978 1.463 . S
C3975 C3980 1.350 . S
C3975 N3983 1.427 . S
C3976 H3967 0.930 . S
C3976 C3974 1.378 . S
C3976 C3977 1.367 . S
C3977 C3976 1.367 . S
C3977 C3979 1.433 . S
C3978 C3974 1.350 . S
C3978 C3975 1.463 . S
C3978 N3982 1.427 . S
C3979 H3969 0.929 . S
C3979 C3977 1.433 . S
C3979 N3982 1.384 . S
C3980 H3971 0.929 . S
C3980 C3972 1.378 . S
C3980 C3975 1.350 . S
C3981 H3968 0.929 . S
C3981 C3973 1.433 . S
C3981 N3983 1.384 . S
N3982 C3978 1.427 . S
N3982 C3979 1.384 . S
N3983 C3975 1.427 . S
N3983 C3981 1.384 . S
H3984 C3990 0.930 . S
H3985 C3994 0.930 . S
H3986 C3999 0.929 . S
H3987 C3997 0.929 . S
H3988 C3992 0.929 . S
H3989 C3998 0.929 . S
C3990 H3984 0.930 . S
C3990 C3991 1.367 . S
C3990 C3998 1.378 . S
C3991 C3990 1.367 . S
C3991 C3999 1.433 . S
C3992 H3988 0.929 . S
C3992 C3994 1.378 . S
C3992 C3996 1.350 . S
C3993 C3996 1.463 . S
C3993 C3998 1.350 . S
C3993 N4001 1.427 . S
C3994 H3985 0.930 . S
C3994 C3992 1.378 . S
C3994 C3995 1.367 . S
C3995 C3994 1.367 . S
C3995 C3997 1.433 . S
C3996 C3992 1.350 . S
C3996 C3993 1.463 . S
C3996 N4000 1.427 . S
C3997 H3987 0.929 . S
C3997 C3995 1.433 . S
C3997 N4000 1.384 . S
C3998 H3989 0.929 . S
C3998 C3990 1.378 . S
C3998 C3993 1.350 . S
C3999 H3986 0.929 . S
C3999 C3991 1.433 . S
C3999 N4001 1.384 . S
N4000 C3996 1.427 . S
N4000 C3997 1.384 . S
N4001 C3993 1.427 . S
N4001 C3999 1.384 . S
H4002 C4008 0.930 . S
H4003 C4012 0.930 . S
H4004 C4017 0.929 . S
H4005 C4015 0.929 . S
H4006 C4010 0.929 . S
H4007 C4016 0.929 . S
C4008 H4002 0.930 . S
C4008 C4009 1.367 . S
C4008 C4016 1.378 . S
C4009 C4008 1.367 . S
C4009 C4017 1.433 . S
C4010 H4006 0.929 . S
C4010 C4012 1.378 . S
C4010 C4014 1.350 . S
C4011 C4014 1.463 . S
C4011 C4016 1.350 . S
C4011 N4019 1.427 . S
C4012 H4003 0.930 . S
C4012 C4010 1.378 . S
C4012 C4013 1.367 . S
C4013 C4012 1.367 . S
C4013 C4015 1.433 . S
C4014 C4010 1.350 . S
C4014 C4011 1.463 . S
C4014 N4018 1.427 . S
C4015 H4005 0.929 . S
C4015 C4013 1.433 . S
C4015 N4018 1.384 . S
C4016 H4007 0.929 . S
C4016 C4008 1.378 . S
C4016 C4011 1.350 . S
C4017 H4004 0.929 . S
C4017 C4009 1.433 . S
C4017 N4019 1.384 . S
N4018 C4014 1.427 . S
N4018 C4015 1.384 . S
N4019 C4011 1.427 . S
N4019 C4017 1.384 . S
H4020 C4026 0.930 . S
H4021 C4030 0.930 . S
H4022 C4035 0.929 . S
H4023 C4033 0.929 . S
H4024 C4028 0.929 . S
H4025 C4034 0.929 . S
C4026 H4020 0.930 . S
C4026 C4027 1.367 . S
C4026 C4034 1.378 . S
C4027 C4026 1.367 . S
C4027 C4035 1.433 . S
C4028 H4024 0.929 . S
C4028 C4030 1.378 . S
C4028 C4032 1.350 . S
C4029 C4032 1.463 . S
C4029 C4034 1.350 . S
C4029 N4037 1.427 . S
C4030 H4021 0.930 . S
C4030 C4028 1.378 . S
C4030 C4031 1.367 . S
C4031 C4030 1.367 . S
C4031 C4033 1.433 . S
C4032 C4028 1.350 . S
C4032 C4029 1.463 . S
C4032 N4036 1.427 . S
C4033 H4023 0.929 . S
C4033 C4031 1.433 . S
C4033 N4036 1.384 . S
C4034 H4025 0.929 . S
C4034 C4026 1.378 . S
C4034 C4029 1.350 . S
C4035 H4022 0.929 . S
C4035 C4027 1.433 . S
C4035 N4037 1.384 . S
N4036 C4032 1.427 . S
N4036 C4033 1.384 . S
N4037 C4029 1.427 . S
N4037 C4035 1.384 . S
H4038 C4044 0.930 . S
H4039 C4048 0.930 . S
H4040 C4053 0.929 . S
H4041 C4051 0.929 . S
H4042 C4046 0.929 . S
H4043 C4052 0.929 . S
C4044 H4038 0.930 . S
C4044 C4045 1.367 . S
C4044 C4052 1.378 . S
C4045 C4044 1.367 . S
C4045 C4053 1.433 . S
C4046 H4042 0.929 . S
C4046 C4048 1.378 . S
C4046 C4050 1.350 . S
C4047 C4050 1.463 . S
C4047 C4052 1.350 . S
C4047 N4055 1.427 . S
C4048 H4039 0.930 . S
C4048 C4046 1.378 . S
C4048 C4049 1.367 . S
C4049 C4048 1.367 . S
C4049 C4051 1.433 . S
C4050 C4046 1.350 . S
C4050 C4047 1.463 . S
C4050 N4054 1.427 . S
C4051 H4041 0.929 . S
C4051 C4049 1.433 . S
C4051 N4054 1.384 . S
C4052 H4043 0.929 . S
C4052 C4044 1.378 . S
C4052 C4047 1.350 . S
C4053 H4040 0.929 . S
C4053 C4045 1.433 . S
C4053 N4055 1.384 . S
N4054 C4050 1.427 . S
N4054 C4051 1.384 . S
N4055 C4047 1.427 . S
N4055 C4053 1.384 . S
H4056 C4062 0.930 . S
H4057 C4066 0.930 . S
H4058 C4071 0.929 . S
H4059 C4069 0.929 . S
H4060 C4064 0.929 . S
H4061 C4070 0.929 . S
C4062 H4056 0.930 . S
C4062 C4063 1.367 . S
C4062 C4070 1.378 . S
C4063 C4062 1.367 . S
C4063 C4071 1.433 . S
C4064 H4060 0.929 . S
C4064 C4066 1.378 . S
C4064 C4068 1.350 . S
C4065 C4068 1.463 . S
C4065 C4070 1.350 . S
C4065 N4073 1.427 . S
C4066 H4057 0.930 . S
C4066 C4064 1.378 . S
C4066 C4067 1.367 . S
C4067 C4066 1.367 . S
C4067 C4069 1.433 . S
C4068 C4064 1.350 . S
C4068 C4065 1.463 . S
C4068 N4072 1.427 . S
C4069 H4059 0.929 . S
C4069 C4067 1.433 . S
C4069 N4072 1.384 . S
C4070 H4061 0.929 . S
C4070 C4062 1.378 . S
C4070 C4065 1.350 . S
C4071 H4058 0.929 . S
C4071 C4063 1.433 . S
C4071 N4073 1.384 . S
N4072 C4068 1.427 . S
N4072 C4069 1.384 . S
N4073 C4065 1.427 . S
N4073 C4071 1.384 . S
H4074 C4080 0.930 . S
H4075 C4084 0.930 . S
H4076 C4089 0.929 . S
H4077 C4087 0.929 . S
H4078 C4082 0.929 . S
H4079 C4088 0.929 . S
C4080 H4074 0.930 . S
C4080 C4081 1.367 . S
C4080 C4088 1.378 . S
C4081 C4080 1.367 . S
C4081 C4089 1.433 . S
C4082 H4078 0.929 . S
C4082 C4084 1.378 . S
C4082 C4086 1.350 . S
C4083 C4086 1.463 . S
C4083 C4088 1.350 . S
C4083 N4091 1.427 . S
C4084 H4075 0.930 . S
C4084 C4082 1.378 . S
C4084 C4085 1.367 . S
C4085 C4084 1.367 . S
C4085 C4087 1.433 . S
C4086 C4082 1.350 . S
C4086 C4083 1.463 . S
C4086 N4090 1.427 . S
C4087 H4077 0.929 . S
C4087 C4085 1.433 . S
C4087 N4090 1.384 . S
C4088 H4079 0.929 . S
C4088 C4080 1.378 . S
C4088 C4083 1.350 . S
C4089 H4076 0.929 . S
C4089 C4081 1.433 . S
C4089 N4091 1.384 . S
N4090 C4086 1.427 . S
N4090 C4087 1.384 . S
N4091 C4083 1.427 . S
N4091 C4089 1.384 . S
H4092 C4098 0.930 . S
H4093 C4102 0.930 . S
H4094 C4107 0.929 . S
H4095 C4105 0.929 . S
H4096 C4100 0.929 . S
H4097 C4106 0.929 . S
C4098 H4092 0.930 . S
C4098 C4099 1.367 . S
C4098 C4106 1.378 . S
C4099 C4098 1.367 . S
C4099 C4107 1.433 . S
C4100 H4096 0.929 . S
C4100 C4102 1.378 . S
C4100 C4104 1.350 . S
C4101 C4104 1.463 . S
C4101 C4106 1.350 . S
C4101 N4109 1.427 . S
C4102 H4093 0.930 . S
C4102 C4100 1.378 . S
C4102 C4103 1.367 . S
C4103 C4102 1.367 . S
C4103 C4105 1.433 . S
C4104 C4100 1.350 . S
C4104 C4101 1.463 . S
C4104 N4108 1.427 . S
C4105 H4095 0.929 . S
C4105 C4103 1.433 . S
C4105 N4108 1.384 . S
C4106 H4097 0.929 . S
C4106 C4098 1.378 . S
C4106 C4101 1.350 . S
C4107 H4094 0.929 . S
C4107 C4099 1.433 . S
C4107 N4109 1.384 . S
N4108 C4104 1.427 . S
N4108 C4105 1.384 . S
N4109 C4101 1.427 . S
N4109 C4107 1.384 . S
H4110 C4116 0.930 . S
H4111 C4120 0.930 . S
H4112 C4125 0.929 . S
H4113 C4123 0.929 . S
H4114 C4118 0.929 . S
H4115 C4124 0.929 . S
C4116 H4110 0.930 . S
C4116 C4117 1.367 . S
C4116 C4124 1.378 . S
C4117 C4116 1.367 . S
C4117 C4125 1.433 . S
C4118 H4114 0.929 . S
C4118 C4120 1.378 . S
C4118 C4122 1.350 . S
C4119 C4122 1.463 . S
C4119 C4124 1.350 . S
C4119 N4127 1.427 . S
C4120 H4111 0.930 . S
C4120 C4118 1.378 . S
C4120 C4121 1.367 . S
C4121 C4120 1.367 . S
C4121 C4123 1.433 . S
C4122 C4118 1.350 . S
C4122 C4119 1.463 . S
C4122 N4126 1.427 . S
C4123 H4113 0.929 . S
C4123 C4121 1.433 . S
C4123 N4126 1.384 . S
C4124 H4115 0.929 . S
C4124 C4116 1.378 . S
C4124 C4119 1.350 . S
C4125 H4112 0.929 . S
C4125 C4117 1.433 . S
C4125 N4127 1.384 . S
N4126 C4122 1.427 . S
N4126 C4123 1.384 . S
N4127 C4119 1.427 . S
N4127 C4125 1.384 . S
H4128 C4134 0.930 . S
H4129 C4138 0.930 . S
H4130 C4143 0.929 . S
H4131 C4141 0.929 . S
H4132 C4136 0.929 . S
H4133 C4142 0.929 . S
C4134 H4128 0.930 . S
C4134 C4135 1.367 . S
C4134 C4142 1.378 . S
C4135 C4134 1.367 . S
C4135 C4143 1.433 . S
C4136 H4132 0.929 . S
C4136 C4138 1.378 . S
C4136 C4140 1.350 . S
C4137 C4140 1.463 1_545 S
C4137 C4142 1.350 . S
C4137 N4145 1.427 . S
C4138 H4129 0.930 . S
C4138 C4136 1.378 . S
C4138 C4139 1.367 . S
C4139 C4138 1.367 . S
C4139 C4141 1.433 . S
C4140 C4136 1.350 . S
C4140 C4137 1.463 1_565 S
C4140 N4144 1.427 . S
C4141 H4131 0.929 . S
C4141 C4139 1.433 . S
C4141 N4144 1.384 . S
C4142 H4133 0.929 . S
C4142 C4134 1.378 . S
C4142 C4137 1.350 . S
C4143 H4130 0.929 . S
C4143 C4135 1.433 . S
C4143 N4145 1.384 . S
N4144 C4140 1.427 . S
N4144 C4141 1.384 . S
N4145 C4137 1.427 . S
N4145 C4143 1.384 . S
H4146 C4152 0.930 . S
H4147 C4156 0.930 1_545 S
H4148 C4161 0.929 1_545 S
H4149 C4159 0.929 . S
H4150 C4154 0.929 1_545 S
H4151 C4160 0.929 . S
C4152 H4146 0.930 . S
C4152 C4153 1.367 . S
C4152 C4160 1.378 . S
C4153 C4152 1.367 . S
C4153 C4161 1.433 . S
C4154 H4150 0.929 1_565 S
C4154 C4156 1.378 . S
C4154 C4158 1.350 . S
C4155 C4158 1.463 . S
C4155 C4160 1.350 . S
C4155 N4163 1.427 . S
C4156 H4147 0.930 1_565 S
C4156 C4154 1.378 . S
C4156 C4157 1.367 . S
C4157 C4156 1.367 . S
C4157 C4159 1.433 . S
C4158 C4154 1.350 . S
C4158 C4155 1.463 . S
C4158 N4162 1.427 . S
C4159 H4149 0.929 . S
C4159 C4157 1.433 . S
C4159 N4162 1.384 . S
C4160 H4151 0.929 . S
C4160 C4152 1.378 . S
C4160 C4155 1.350 . S
C4161 H4148 0.929 1_565 S
C4161 C4153 1.433 . S
C4161 N4163 1.384 . S
N4162 C4158 1.427 . S
N4162 C4159 1.384 . S
N4163 C4155 1.427 . S
N4163 C4161 1.384 . S
H4164 C4170 0.930 . S
H4165 C4174 0.930 . S
H4166 C4179 0.929 . S
H4167 C4177 0.929 . S
H4168 C4172 0.929 . S
H4169 C4178 0.929 . S
C4170 H4164 0.930 . S
C4170 C4171 1.367 . S
C4170 C4178 1.378 . S
C4171 C4170 1.367 . S
C4171 C4179 1.433 . S
C4172 H4168 0.929 . S
C4172 C4174 1.378 . S
C4172 C4176 1.350 . S
C4173 C4176 1.463 1_545 S
C4173 C4178 1.350 . S
C4173 N4181 1.427 . S
C4174 H4165 0.930 . S
C4174 C4172 1.378 . S
C4174 C4175 1.367 . S
C4175 C4174 1.367 . S
C4175 C4177 1.433 . S
C4176 C4172 1.350 . S
C4176 C4173 1.463 1_565 S
C4176 N4180 1.427 . S
C4177 H4167 0.929 . S
C4177 C4175 1.433 . S
C4177 N4180 1.384 . S
C4178 H4169 0.929 . S
C4178 C4170 1.378 . S
C4178 C4173 1.350 . S
C4179 H4166 0.929 . S
C4179 C4171 1.433 . S
C4179 N4181 1.384 . S
N4180 C4176 1.427 . S
N4180 C4177 1.384 . S
N4181 C4173 1.427 . S
N4181 C4179 1.384 . S
H4182 C4188 0.930 . S
H4183 C4192 0.930 . S
H4184 C4197 0.929 . S
H4185 C4195 0.929 . S
H4186 C4190 0.968 . S
H4187 C4196 0.968 . S
C4188 H4182 0.930 . S
C4188 C4189 1.367 1_565 S
C4188 C4196 1.378 . S
C4189 C4188 1.367 1_545 S
C4189 C4197 1.433 . S
C4190 H4186 0.968 . S
C4190 C4192 1.378 . S
C4190 C4194 1.350 . S
C4191 C4194 1.463 1_556 S
C4191 C4196 1.350 1_545 S
C4191 N4199 1.427 . S
C4192 H4183 0.930 . S
C4192 C4190 1.378 . S
C4192 C4193 1.367 . S
C4193 C4192 1.367 . S
C4193 C4195 1.433 1_545 S
C4194 C4190 1.350 . S
C4194 C4191 1.463 1_554 S
C4194 N4198 1.427 1_545 S
C4195 H4185 0.929 . S
C4195 C4193 1.433 1_565 S
C4195 N4198 1.384 . S
C4196 H4187 0.968 . S
C4196 C4188 1.378 . S
C4196 C4191 1.350 1_565 S
C4197 H4184 0.929 . S
C4197 C4189 1.433 . S
C4197 N4199 1.384 . S
N4198 C4194 1.427 1_565 S
N4198 C4195 1.384 . S
N4199 C4191 1.427 . S
N4199 C4197 1.384 . S
H4200 C4206 0.930 . S
H4201 C4210 0.930 . S
H4202 C4215 0.929 . S
H4203 C4213 0.929 . S
H4204 C4208 0.929 . S
H4205 C4214 0.929 . S
C4206 H4200 0.930 . S
C4206 C4207 1.367 . S
C4206 C4214 1.378 . S
C4207 C4206 1.367 . S
C4207 C4215 1.433 . S
C4208 H4204 0.929 . S
C4208 C4210 1.378 . S
C4208 C4212 1.350 . S
C4209 C4212 1.463 1_565 S
C4209 C4214 1.350 . S
C4209 N4217 1.427 . S
C4210 H4201 0.930 . S
C4210 C4208 1.378 . S
C4210 C4211 1.367 . S
C4211 C4210 1.367 . S
C4211 C4213 1.433 . S
C4212 C4208 1.350 . S
C4212 C4209 1.463 1_545 S
C4212 N4216 1.427 . S
C4213 H4203 0.929 . S
C4213 C4211 1.433 . S
C4213 N4216 1.384 . S
C4214 H4205 0.929 . S
C4214 C4206 1.378 . S
C4214 C4209 1.350 . S
C4215 H4202 0.929 . S
C4215 C4207 1.433 . S
C4215 N4217 1.384 . S
N4216 C4212 1.427 . S
N4216 C4213 1.384 . S
N4217 C4209 1.427 . S
N4217 C4215 1.384 . S
H4218 C4224 0.930 . S
H4219 C4228 0.930 . S
H4220 C4233 0.929 . S
H4221 C4231 0.929 . S
H4222 C4226 0.929 . S
H4223 C4232 0.929 . S
C4224 H4218 0.930 . S
C4224 C4225 1.367 . S
C4224 C4232 1.378 . S
C4225 C4224 1.367 . S
C4225 C4233 1.433 . S
C4226 H4222 0.929 . S
C4226 C4228 1.378 . S
C4226 C4230 1.350 . S
C4227 C4230 1.463 . S
C4227 C4232 1.350 . S
C4227 N4235 1.427 . S
C4228 H4219 0.930 . S
C4228 C4226 1.378 . S
C4228 C4229 1.367 . S
C4229 C4228 1.367 . S
C4229 C4231 1.433 . S
C4230 C4226 1.350 . S
C4230 C4227 1.463 . S
C4230 N4234 1.427 . S
C4231 H4221 0.929 . S
C4231 C4229 1.433 . S
C4231 N4234 1.384 . S
C4232 H4223 0.929 . S
C4232 C4224 1.378 . S
C4232 C4227 1.350 . S
C4233 H4220 0.929 . S
C4233 C4225 1.433 . S
C4233 N4235 1.384 . S
N4234 C4230 1.427 . S
N4234 C4231 1.384 . S
N4235 C4227 1.427 . S
N4235 C4233 1.384 . S
H4236 C4242 0.930 . S
H4237 C4246 0.930 . S
H4238 C4251 0.929 . S
H4239 C4249 0.929 . S
H4240 C4244 0.929 1_565 S
H4241 C4250 0.929 1_545 S
C4242 H4236 0.930 . S
C4242 C4243 1.367 . S
C4242 C4250 1.378 . S
C4243 C4242 1.367 . S
C4243 C4251 1.433 . S
C4244 H4240 0.929 1_545 S
C4244 C4246 1.378 . S
C4244 C4248 1.350 . S
C4245 C4248 1.463 1_565 S
C4245 C4250 1.350 . S
C4245 N4253 1.427 . S
C4246 H4237 0.930 . S
C4246 C4244 1.378 . S
C4246 C4247 1.367 . S
C4247 C4246 1.367 . S
C4247 C4249 1.433 . S
C4248 C4244 1.350 . S
C4248 C4245 1.463 1_545 S
C4248 N4252 1.427 . S
C4249 H4239 0.929 . S
C4249 C4247 1.433 . S
C4249 N4252 1.384 . S
C4250 H4241 0.929 1_565 S
C4250 C4242 1.378 . S
C4250 C4245 1.350 . S
C4251 H4238 0.929 . S
C4251 C4243 1.433 . S
C4251 N4253 1.384 . S
N4252 C4248 1.427 . S
N4252 C4249 1.384 . S
N4253 C4245 1.427 . S
N4253 C4251 1.384 . S
H4254 C4260 0.930 . S
H4255 C4264 0.930 1_545 S
H4256 C4269 0.929 1_545 S
H4257 C4267 0.929 . S
H4258 C4262 0.929 1_545 S
H4259 C4268 0.929 . S
C4260 H4254 0.930 . S
C4260 C4261 1.367 . S
C4260 C4268 1.378 . S
C4261 C4260 1.367 . S
C4261 C4269 1.433 . S
C4262 H4258 0.929 1_565 S
C4262 C4264 1.378 . S
C4262 C4266 1.350 . S
C4263 C4266 1.463 1_554 S
C4263 C4268 1.350 . S
C4263 N4271 1.454 . S
C4264 H4255 0.930 1_565 S
C4264 C4262 1.378 . S
C4264 C4265 1.367 . S
C4265 C4264 1.367 . S
C4265 C4267 1.433 . S
C4266 C4262 1.350 . S
C4266 C4263 1.463 1_556 S
C4266 N4270 1.454 . S
C4267 H4257 0.929 . S
C4267 C4265 1.433 . S
C4267 N4270 1.441 . S
C4268 H4259 0.929 . S
C4268 C4260 1.378 . S
C4268 C4263 1.350 . S
C4269 H4256 0.929 1_565 S
C4269 C4261 1.433 . S
C4269 N4271 1.441 . S
N4270 C4266 1.454 . S
N4270 C4267 1.441 . S
N4271 C4263 1.454 . S
N4271 C4269 1.441 . S
H4272 C4278 0.930 . S
H4273 C4282 0.930 . S
H4274 C4287 0.929 . S
H4275 C4285 0.929 . S
H4276 C4280 0.929 . S
H4277 C4286 0.929 . S
C4278 H4272 0.930 . S
C4278 C4279 1.367 . S
C4278 C4286 1.378 . S
C4279 C4278 1.367 . S
C4279 C4287 1.433 . S
C4280 H4276 0.929 . S
C4280 C4282 1.378 . S
C4280 C4284 1.350 . S
C4281 C4284 1.463 . S
C4281 C4286 1.350 . S
C4281 N4289 1.427 . S
C4282 H4273 0.930 . S
C4282 C4280 1.378 . S
C4282 C4283 1.367 . S
C4283 C4282 1.367 . S
C4283 C4285 1.433 . S
C4284 C4280 1.350 . S
C4284 C4281 1.463 . S
C4284 N4288 1.427 . S
C4285 H4275 0.929 . S
C4285 C4283 1.433 . S
C4285 N4288 1.384 . S
C4286 H4277 0.929 . S
C4286 C4278 1.378 . S
C4286 C4281 1.350 . S
C4287 H4274 0.929 . S
C4287 C4279 1.433 . S
C4287 N4289 1.384 . S
N4288 C4284 1.427 . S
N4288 C4285 1.384 . S
N4289 C4281 1.427 . S
N4289 C4287 1.384 . S
H4290 C4296 0.930 . S
H4291 C4300 0.930 . S
H4292 C4305 0.929 . S
H4293 C4303 0.929 . S
H4294 C4298 0.929 . S
H4295 C4304 0.929 . S
C4296 H4290 0.930 . S
C4296 C4297 1.367 . S
C4296 C4304 1.378 . S
C4297 C4296 1.367 . S
C4297 C4305 1.433 . S
C4298 H4294 0.929 . S
C4298 C4300 1.378 . S
C4298 C4302 1.350 . S
C4299 C4302 1.463 1_556 S
C4299 C4304 1.350 . S
C4299 N4307 1.427 . S
C4300 H4291 0.930 . S
C4300 C4298 1.378 . S
C4300 C4301 1.367 . S
C4301 C4300 1.367 . S
C4301 C4303 1.433 . S
C4302 C4298 1.350 . S
C4302 C4299 1.463 1_554 S
C4302 N4306 1.427 . S
C4303 H4293 0.929 . S
C4303 C4301 1.433 . S
C4303 N4306 1.384 . S
C4304 H4295 0.929 . S
C4304 C4296 1.378 . S
C4304 C4299 1.350 . S
C4305 H4292 0.929 . S
C4305 C4297 1.433 . S
C4305 N4307 1.384 . S
N4306 C4302 1.427 . S
N4306 C4303 1.384 . S
N4307 C4299 1.427 . S
N4307 C4305 1.384 . S
H4308 C4314 0.930 . S
H4309 C4318 0.930 . S
H4310 C4323 0.929 . S
H4311 C4321 0.929 . S
H4312 C4316 0.929 . S
H4313 C4322 0.929 . S
C4314 H4308 0.930 . S
C4314 C4315 1.367 . S
C4314 C4322 1.378 . S
C4315 C4314 1.367 . S
C4315 C4323 1.433 . S
C4316 H4312 0.929 . S
C4316 C4318 1.378 . S
C4316 C4320 1.350 . S
C4317 C4320 1.463 . S
C4317 C4322 1.350 . S
C4317 N4325 1.427 . S
C4318 H4309 0.930 . S
C4318 C4316 1.378 . S
C4318 C4319 1.367 . S
C4319 C4318 1.367 . S
C4319 C4321 1.433 . S
C4320 C4316 1.350 . S
C4320 C4317 1.463 . S
C4320 N4324 1.427 . S
C4321 H4311 0.929 . S
C4321 C4319 1.433 . S
C4321 N4324 1.384 . S
C4322 H4313 0.929 . S
C4322 C4314 1.378 . S
C4322 C4317 1.350 . S
C4323 H4310 0.929 . S
C4323 C4315 1.433 . S
C4323 N4325 1.384 . S
N4324 C4320 1.427 . S
N4324 C4321 1.384 . S
N4325 C4317 1.427 . S
N4325 C4323 1.384 . S
H4326 C4332 0.930 . S
H4327 C4336 0.930 . S
H4328 C4341 0.929 . S
H4329 C4339 0.929 . S
H4330 C4334 0.929 . S
H4331 C4340 0.929 . S
C4332 H4326 0.930 . S
C4332 C4333 1.367 . S
C4332 C4340 1.378 . S
C4333 C4332 1.367 . S
C4333 C4341 1.433 . S
C4334 H4330 0.929 . S
C4334 C4336 1.378 . S
C4334 C4338 1.350 . S
C4335 C4338 1.463 . S
C4335 C4340 1.350 . S
C4335 N4343 1.427 . S
C4336 H4327 0.930 . S
C4336 C4334 1.378 . S
C4336 C4337 1.367 . S
C4337 C4336 1.367 . S
C4337 C4339 1.433 . S
C4338 C4334 1.350 . S
C4338 C4335 1.463 . S
C4338 N4342 1.427 . S
C4339 H4329 0.929 . S
C4339 C4337 1.433 . S
C4339 N4342 1.384 . S
C4340 H4331 0.929 . S
C4340 C4332 1.378 . S
C4340 C4335 1.350 . S
C4341 H4328 0.929 . S
C4341 C4333 1.433 . S
C4341 N4343 1.384 . S
N4342 C4338 1.427 . S
N4342 C4339 1.384 . S
N4343 C4335 1.427 . S
N4343 C4341 1.384 . S
H4344 C4350 0.930 . S
H4345 C4354 0.930 . S
H4346 C4359 0.929 . S
H4347 C4357 0.929 . S
H4348 C4352 0.929 . S
H4349 C4358 0.929 . S
C4350 H4344 0.930 . S
C4350 C4351 1.367 . S
C4350 C4358 1.378 . S
C4351 C4350 1.367 . S
C4351 C4359 1.433 . S
C4352 H4348 0.929 . S
C4352 C4354 1.378 . S
C4352 C4356 1.350 . S
C4353 C4356 1.463 . S
C4353 C4358 1.350 . S
C4353 N4361 1.427 . S
C4354 H4345 0.930 . S
C4354 C4352 1.378 . S
C4354 C4355 1.367 . S
C4355 C4354 1.367 . S
C4355 C4357 1.433 . S
C4356 C4352 1.350 . S
C4356 C4353 1.463 . S
C4356 N4360 1.427 . S
C4357 H4347 0.929 . S
C4357 C4355 1.433 . S
C4357 N4360 1.384 . S
C4358 H4349 0.929 . S
C4358 C4350 1.378 . S
C4358 C4353 1.350 . S
C4359 H4346 0.929 . S
C4359 C4351 1.433 . S
C4359 N4361 1.384 . S
N4360 C4356 1.427 . S
N4360 C4357 1.384 . S
N4361 C4353 1.427 . S
N4361 C4359 1.384 . S
H4362 C4368 0.930 . S
H4363 C4372 0.930 . S
H4364 C4377 0.929 . S
H4365 C4375 0.929 . S
H4366 C4370 0.994 . S
H4367 C4376 0.994 . S
C4368 H4362 0.930 . S
C4368 C4369 1.367 . S
C4368 C4376 1.338 1_556 S
C4369 C4368 1.367 . S
C4369 C4377 1.433 . S
C4370 H4366 0.994 . S
C4370 C4372 1.338 1_556 S
C4370 C4374 1.327 1_556 S
C4371 C4374 1.463 1_556 S
C4371 C4376 1.327 1_556 S
C4371 N4379 1.427 . S
C4372 H4363 0.930 . S
C4372 C4370 1.338 1_554 S
C4372 C4373 1.367 . S
C4373 C4372 1.367 . S
C4373 C4375 1.433 . S
C4374 C4370 1.327 1_554 S
C4374 C4371 1.463 1_554 S
C4374 N4378 1.427 . S
C4375 H4365 0.929 . S
C4375 C4373 1.433 . S
C4375 N4378 1.384 . S
C4376 H4367 0.994 . S
C4376 C4368 1.338 1_554 S
C4376 C4371 1.327 1_554 S
C4377 H4364 0.929 . S
C4377 C4369 1.433 . S
C4377 N4379 1.384 . S
N4378 C4374 1.427 . S
N4378 C4375 1.384 . S
N4379 C4371 1.427 . S
N4379 C4377 1.384 . S
H4380 C4386 0.930 . S
H4381 C4390 0.930 . S
H4382 C4395 0.929 . S
H4383 C4393 0.929 . S
H4384 C4388 0.929 . S
H4385 C4394 0.929 . S
C4386 H4380 0.930 . S
C4386 C4387 1.367 . S
C4386 C4394 1.378 . S
C4387 C4386 1.367 . S
C4387 C4395 1.433 . S
C4388 H4384 0.929 . S
C4388 C4390 1.378 . S
C4388 C4392 1.350 . S
C4389 C4392 1.463 . S
C4389 C4394 1.350 . S
C4389 N4397 1.427 . S
C4390 H4381 0.930 . S
C4390 C4388 1.378 . S
C4390 C4391 1.367 . S
C4391 C4390 1.367 . S
C4391 C4393 1.433 . S
C4392 C4388 1.350 . S
C4392 C4389 1.463 . S
C4392 N4396 1.427 . S
C4393 H4383 0.929 . S
C4393 C4391 1.433 . S
C4393 N4396 1.384 . S
C4394 H4385 0.929 . S
C4394 C4386 1.378 . S
C4394 C4389 1.350 . S
C4395 H4382 0.929 . S
C4395 C4387 1.433 . S
C4395 N4397 1.384 . S
N4396 C4392 1.427 . S
N4396 C4393 1.384 . S
N4397 C4389 1.427 . S
N4397 C4395 1.384 . S
H4398 C4404 0.930 . S
H4399 C4408 0.930 . S
H4400 C4413 0.929 . S
H4401 C4411 0.929 . S
H4402 C4406 0.929 . S
H4403 C4412 0.929 . S
C4404 H4398 0.930 . S
C4404 C4405 1.367 . S
C4404 C4412 1.378 . S
C4405 C4404 1.367 . S
C4405 C4413 1.433 . S
C4406 H4402 0.929 . S
C4406 C4408 1.378 . S
C4406 C4410 1.350 . S
C4407 C4410 1.463 . S
C4407 C4412 1.350 . S
C4407 N4415 1.427 . S
C4408 H4399 0.930 . S
C4408 C4406 1.378 . S
C4408 C4409 1.367 . S
C4409 C4408 1.367 . S
C4409 C4411 1.433 . S
C4410 C4406 1.350 . S
C4410 C4407 1.463 . S
C4410 N4414 1.427 . S
C4411 H4401 0.929 . S
C4411 C4409 1.433 . S
C4411 N4414 1.384 . S
C4412 H4403 0.929 . S
C4412 C4404 1.378 . S
C4412 C4407 1.350 . S
C4413 H4400 0.929 . S
C4413 C4405 1.433 . S
C4413 N4415 1.384 . S
N4414 C4410 1.427 . S
N4414 C4411 1.384 . S
N4415 C4407 1.427 . S
N4415 C4413 1.384 . S
C2695 C58 0.382 . S
C2699 C2335 0.135 . S
C2713 C142 0.399 . S
C2717 C739 0.142 . S
C2731 C226 0.401 . S
C2735 C2167 0.148 . S
C2749 C907 0.191 . S
C2753 C310 0.362 . S
C2767 C394 0.396 . S
C2771 C2503 0.139 . S
C2785 C1243 0.141 . S
C2789 C478 0.369 . S
C2803 C2671 0.152 . S
C2807 C562 0.401 . S
C2821 C646 0.375 . S
C2825 C1075 0.137 . S
C2839 C742 0.379 . S
C2843 C1652 0.187 . S
C2857 C826 0.357 . S
C2861 C56 0.152 . S
C2875 C1484 0.177 . S
C2879 C910 0.347 . S
C2893 C224 0.181 . S
C2897 C994 0.347 . S
C2911 C1078 0.364 . S
C2915 C1820 0.191 . S
C2929 C1162 0.354 . S
C2933 C560 0.157 . S
C2947 C1246 0.371 . S
C2951 C1988 0.139 . S
C2965 C392 0.167 . S
C2969 C1330 0.398 . S
C2983 C991 0.150 . S
C2987 C1402 0.401 . S
C3001 C2083 0.154 . S
C3005 C1486 0.401 . S
C3019 C823 0.135 . S
C3023 C1570 0.389 . S
C3037 C1654 0.381 . S
C3041 C2251 0.186 . S
C3055 C1159 0.177 . S
C3059 C1738 0.347 . S
C3073 C2587 0.179 . S
C3077 C1822 0.391 . S
C3091 C1327 0.183 . S
C3095 C1906 0.348 . S
C3109 C1990 0.393 . S
C3113 C2419 0.176 . S
C3127 C2086 0.386 . S
C3131 C308 0.134 . S
C3145 C2170 0.374 . S
C3149 C1400 0.189 . S
C3163 C2254 0.351 . S
C3167 C140 0.187 . S
C3181 C2338 0.386 . S
C3185 C1568 0.182 . S
C3199 C476 0.145 . S
C3203 C2422 0.364 . S
C3217 C1904 0.166 . S
C3221 C2506 0.349 . S
C3235 C2590 0.363 . S
C3239 C644 0.191 . S
C3253 C2674 0.378 . S
C3257 C1736 0.136 . S
C3271 C63 3.096 . S
C3275 C1575 3.094 . S
C3289 C1659 3.094 . S
C3293 C147 3.096 . S
C3307 C231 3.097 . S
C3311 C1407 3.094 . S
C3325 C315 3.095 . S
C3329 C1491 3.094 . S
C3343 C1911 3.097 . S
C3347 C399 3.094 . S
C3361 C483 3.094 . S
C3365 C1995 3.097 . S
C3379 C1743 3.097 . S
C3383 C567 3.096 . S
C3397 C651 3.097 . S
C3401 C1827 3.095 . S
C3415 C2258 3.095 . S
C3419 C746 3.097 . S
C3433 C830 3.097 . S
C3437 C2342 3.094 . S
C3451 C914 3.096 . S
C3455 C2090 3.097 . S
C3469 C998 3.097 . S
C3473 C2174 3.094 . S
C3487 C2594 3.094 . S
C3491 C1082 3.097 . S
C3505 C2678 3.095 . S
C3509 C1166 3.097 . S
C3523 C1250 3.096 . S
C3527 C2426 3.097 . S
C3541 C1334 3.095 . S
C3545 C2510 3.097 . S
C3559 C67 2.998 . S
C3563 C2072 2.998 . S
C3577 C812 2.999 . S
C3581 C151 2.999 . S
C3595 C235 2.999 . S
C3599 C2240 2.999 . S
C3613 C319 2.993 . S
C3617 C980 2.993 . S
C3631 C2408 2.995 . S
C3635 C403 2.995 . S
C3649 C1148 2.989 . S
C3653 C487 2.989 . S
C3667 C571 2.997 . S
C3671 C2576 2.997 . S
C3685 C655 2.990 . S
C3689 C1316 2.990 . S
C3703 C1411 2.992 . S
C3707 C728 2.992 . S
C3721 C1579 2.988 . S
C3725 C896 2.988 . S
C3739 C1747 2.998 . S
C3743 C1064 2.998 . S
C3757 C1232 2.989 . S
C3761 C1915 2.989 . S
C3775 C1495 2.995 . S
C3779 C2156 2.995 . S
C3793 C1663 2.998 . S
C3797 C2324 2.998 . S
C3811 C2492 2.999 . S
C3815 C1831 2.999 . S
C3829 C2660 2.999 . S
C3833 C1999 2.999 . S
C3847 C74 4.208 . S
C3851 C494 4.206 1_545 S
C3865 C578 4.212 . S
C3869 C158 4.214 1_545 S
C3883 C662 4.206 1_565 S
C3887 C242 4.209 . S
C3901 C410 4.214 . S
C3905 C326 4.212 1_565 S
C3919 C735 4.211 . S
C3923 C1155 4.207 1_565 S
C3937 C819 4.209 1_565 S
C3941 C1239 4.213 . S
C3955 C1323 4.214 1_545 S
C3959 C903 4.214 . S
C3973 C987 4.207 1_545 S
C3977 C1071 4.206 . S
C3991 C1418 4.210 . S
C3995 C1838 4.213 . S
C4009 C1502 4.212 . S
C4013 C1922 4.208 . S
C4027 C1586 4.214 . S
C4031 C2006 4.212 . S
C4045 C1754 4.206 . S
C4049 C1670 4.207 . S
C4063 C2079 4.209 . S
C4067 C2499 4.213 . S
C4081 C2163 4.206 . S
C4085 C2583 4.207 . S
C4099 C2667 4.213 . S
C4103 C2247 4.209 . S
C4117 C2331 4.207 . S
C4121 C2415 4.210 . S
C4135 C70 0.954 . S
C4139 C406 0.915 . S
C4153 C154 0.917 . S
C4157 C490 0.951 . S
C4171 C574 0.940 . S
C4175 C238 0.928 . S
C4189 C658 0.954 . S
C4193 C322 0.914 . S
C4207 C730 0.955 . S
C4211 C1066 0.914 . S
C4225 C1150 0.926 . S
C4229 C814 0.945 . S
C4243 C1234 0.945 . S
C4247 C898 0.926 . S
C4261 C1318 0.921 . S
C4265 C982 0.949 . S
C4279 C1414 0.946 . S
C4283 C1750 0.922 . S
C4297 C1834 0.918 . S
C4301 C1498 0.952 . S
C4315 C1582 0.921 . S
C4319 C1918 0.950 . S
C4333 C2002 0.950 . S
C4337 C1666 0.921 . S
C4351 C2410 0.918 . S
C4355 C2074 0.950 . S
C4369 C2158 0.926 . S
C4373 C2494 0.942 . S
C4387 C2242 0.915 . S
C4391 C2578 0.954 . S
C4405 C2326 0.955 . S
C4409 C2662 0.914 . S
