# Generated by pormake.
# Topology uki, (4)-cn, num edge types: 1
# Building blocks:
#     Node 0, Type 0, BuildingBlock: KOZSID_clean_sbu_0, # of connection points: 4
#     Node 1, Type 0, BuildingBlock: KOZSID_clean_sbu_0, # of connection points: 4
#     Node 2, Type 0, BuildingBlock: KOZSID_clean_sbu_0, # of connection points: 4
#     Node 3, Type 0, BuildingBlock: KOZSID_clean_sbu_0, # of connection points: 4
#     Node 4, Type 0, BuildingBlock: KOZSID_clean_sbu_0, # of connection points: 4
#     Node 5, Type 0, BuildingBlock: KOZSID_clean_sbu_0, # of connection points: 4
#     Node 6, Type 0, BuildingBlock: KOZSID_clean_sbu_0, # of connection points: 4
#     Node 7, Type 0, BuildingBlock: KOZSID_clean_sbu_0, # of connection points: 4
#     Node 8, Type 0, BuildingBlock: KOZSID_clean_sbu_0, # of connection points: 4
#     Node 9, Type 0, BuildingBlock: KOZSID_clean_sbu_0, # of connection points: 4
#     Node 10, Type 0, BuildingBlock: KOZSID_clean_sbu_0, # of connection points: 4
#     Node 11, Type 0, BuildingBlock: KOZSID_clean_sbu_0, # of connection points: 4
#     Node 12, Type 0, BuildingBlock: KOZSID_clean_sbu_0, # of connection points: 4
#     Node 13, Type 0, BuildingBlock: KOZSID_clean_sbu_0, # of connection points: 4
#     Node 14, Type 0, BuildingBlock: KOZSID_clean_sbu_0, # of connection points: 4
#     Node 15, Type 0, BuildingBlock: KOZSID_clean_sbu_0, # of connection points: 4
#     Edge 16, Type (0, 0), BuildingBlock: UVAHIK_clean_linker_0, # of connection points: 2
#     Edge 17, Type (0, 0), BuildingBlock: UVAHIK_clean_linker_0, # of connection points: 2
#     Edge 18, Type (0, 0), BuildingBlock: UVAHIK_clean_linker_0, # of connection points: 2
#     Edge 19, Type (0, 0), BuildingBlock: UVAHIK_clean_linker_0, # of connection points: 2
#     Edge 20, Type (0, 0), BuildingBlock: UVAHIK_clean_linker_0, # of connection points: 2
#     Edge 21, Type (0, 0), BuildingBlock: UVAHIK_clean_linker_0, # of connection points: 2
#     Edge 22, Type (0, 0), BuildingBlock: UVAHIK_clean_linker_0, # of connection points: 2
#     Edge 23, Type (0, 0), BuildingBlock: UVAHIK_clean_linker_0, # of connection points: 2
#     Edge 24, Type (0, 0), BuildingBlock: UVAHIK_clean_linker_0, # of connection points: 2
#     Edge 25, Type (0, 0), BuildingBlock: UVAHIK_clean_linker_0, # of connection points: 2
#     Edge 26, Type (0, 0), BuildingBlock: UVAHIK_clean_linker_0, # of connection points: 2
#     Edge 27, Type (0, 0), BuildingBlock: UVAHIK_clean_linker_0, # of connection points: 2
#     Edge 28, Type (0, 0), BuildingBlock: UVAHIK_clean_linker_0, # of connection points: 2
#     Edge 29, Type (0, 0), BuildingBlock: UVAHIK_clean_linker_0, # of connection points: 2
#     Edge 30, Type (0, 0), BuildingBlock: UVAHIK_clean_linker_0, # of connection points: 2
#     Edge 31, Type (0, 0), BuildingBlock: UVAHIK_clean_linker_0, # of connection points: 2
#     Edge 32, Type (0, 0), BuildingBlock: UVAHIK_clean_linker_0, # of connection points: 2
#     Edge 33, Type (0, 0), BuildingBlock: UVAHIK_clean_linker_0, # of connection points: 2
#     Edge 34, Type (0, 0), BuildingBlock: UVAHIK_clean_linker_0, # of connection points: 2
#     Edge 35, Type (0, 0), BuildingBlock: UVAHIK_clean_linker_0, # of connection points: 2
#     Edge 36, Type (0, 0), BuildingBlock: UVAHIK_clean_linker_0, # of connection points: 2
#     Edge 37, Type (0, 0), BuildingBlock: UVAHIK_clean_linker_0, # of connection points: 2
#     Edge 38, Type (0, 0), BuildingBlock: UVAHIK_clean_linker_0, # of connection points: 2
#     Edge 39, Type (0, 0), BuildingBlock: UVAHIK_clean_linker_0, # of connection points: 2
#     Edge 40, Type (0, 0), BuildingBlock: UVAHIK_clean_linker_0, # of connection points: 2
#     Edge 41, Type (0, 0), BuildingBlock: UVAHIK_clean_linker_0, # of connection points: 2
#     Edge 42, Type (0, 0), BuildingBlock: UVAHIK_clean_linker_0, # of connection points: 2
#     Edge 43, Type (0, 0), BuildingBlock: UVAHIK_clean_linker_0, # of connection points: 2
#     Edge 44, Type (0, 0), BuildingBlock: UVAHIK_clean_linker_0, # of connection points: 2
#     Edge 45, Type (0, 0), BuildingBlock: UVAHIK_clean_linker_0, # of connection points: 2
#     Edge 46, Type (0, 0), BuildingBlock: UVAHIK_clean_linker_0, # of connection points: 2
#     Edge 47, Type (0, 0), BuildingBlock: UVAHIK_clean_linker_0, # of connection points: 2
# Relax obj value: 0.118
# Max RMSD: 0.241
# Mean RMSD: 0.241
data_MOF--net-uki--node1-KOZSID_clean_sbu_0--edge1-UVAHIK_clean_linker_0
_symmetry_space_group_name_H-M    P1
_symmetry_Int_Tables_number       1
_symmetry_cell_setting            triclinic
loop_
_symmetry_equiv_pos_as_xyz
'x, y, z'
_cell_length_a     46.96841
_cell_length_b     47.002814
_cell_length_c     112.48499
_cell_angle_alpha  90.014254
_cell_angle_beta   89.984962
_cell_angle_gamma 89.95396
loop_
_atom_site_label
_atom_site_type_symbol
_atom_site_fract_x
_atom_site_fract_y
_atom_site_fract_z
_atom_type_partial_charge
C0 C 0.15915 0.22491 0.32141 0.0
C1 C 0.18223 0.20762 0.31868 0.0
C2 C 0.17552 0.19358 0.30836 0.0
C3 C 0.14892 0.20318 0.30528 0.0
N4 N 0.13864 0.22265 0.31295 0.0
Co5 Co 0.10107 0.24198 0.31164 0.0
N6 N 0.09694 0.23146 0.29463 0.0
C7 C 0.11163 0.21095 0.28896 0.0
C8 C 0.10441 0.2087 0.27716 0.0
C9 C 0.08377 0.22894 0.27534 0.0
C10 C 0.07943 0.24237 0.28618 0.0
N11 N 0.06351 0.26113 0.31043 0.0
C12 C 0.04884 0.26964 0.3007 0.0
C13 C 0.02297 0.28177 0.30391 0.0
C14 C 0.02153 0.28072 0.31607 0.0
C15 C 0.04644 0.268 0.3196 0.0
N16 N 0.10497 0.2525 0.32866 0.0
C17 C 0.0835 0.26039 0.33588 0.0
C18 C 0.0921 0.26525 0.34735 0.0
C19 C 0.12075 0.25985 0.34739 0.0
C20 C 0.1281 0.25204 0.33587 0.0
N21 N 0.12003 0.27734 0.3068 0.0
C22 C 0.14192 0.32755 0.29672 0.0
C23 C 0.12161 0.32864 0.3059 0.0
C24 C 0.11104 0.3033 0.31085 0.0
C25 C 0.15213 0.30076 0.29328 0.0
C26 C 0.14094 0.27613 0.29837 0.0
N27 N 0.08206 0.20623 0.31614 0.0
C28 C 0.08218 0.16167 0.32681 0.0
C29 C 0.05877 0.1519 0.32022 0.0
C30 C 0.04662 0.17049 0.3119 0.0
C31 C 0.05854 0.19737 0.30999 0.0
C32 C 0.09331 0.1889 0.32472 0.0
H33 H 0.04918 0.2106 0.30321 0.0
H34 H 0.11153 0.19558 0.32983 0.0
H35 H 0.09485 0.30466 0.31764 0.0
H36 H 0.14859 0.25602 0.2951 0.0
C37 C 0.13507 0.19799 0.29445 0.0
C38 C 0.15647 0.24151 0.33249 0.0
C39 C 0.0575 0.26417 0.28836 0.0
C40 C 0.05652 0.26647 0.33127 0.0
H41 H 0.20183 0.20522 0.32363 0.0
H42 H 0.1889 0.1789 0.30348 0.0
H43 H 0.11384 0.19486 0.27055 0.0
H44 H 0.07319 0.23328 0.26699 0.0
H45 H 1.00668 0.29019 0.29809 0.0
H46 H 1.00475 0.2891 0.32167 0.0
H47 H 0.07922 0.27239 0.35476 0.0
H48 H 0.13448 0.26093 0.3551 0.0
H49 H 0.11312 0.34881 0.30892 0.0
H50 H 0.16839 0.29868 0.28651 0.0
H51 H 0.09201 0.14829 0.33349 0.0
H52 H 0.02865 0.16394 0.30653 0.0
C53 C 0.2642 0.96971 0.71163 0.0
C54 C 0.26867 0.9976 0.70793 0.0
C55 C 0.2673 0.99756 0.69574 0.0
C56 C 0.26103 0.97002 0.6927 0.0
N57 N 0.25835 0.95285 0.70219 0.0
Co58 Co 0.24194 0.91416 0.70177 0.0
N59 N 0.25265 0.90915 0.68486 0.0
C60 C 0.25829 0.93044 0.67721 0.0
C61 C 0.26366 0.92104 0.66589 0.0
C62 C 0.26085 0.89205 0.66641 0.0
C63 C 0.25386 0.88529 0.6781 0.0
N64 N 0.22493 0.8756 0.70119 0.0
C65 C 0.2284 0.85432 0.69314 0.0
C66 C 0.21184 0.83097 0.69621 0.0
C67 C 0.19687 0.83841 0.70624 0.0
C68 C 0.20527 0.86567 0.70885 0.0
N69 N 0.23128 0.9195 0.71868 0.0
C70 C 0.20933 0.90632 0.72398 0.0
C71 C 0.20264 0.91809 0.73477 0.0
C72 C 0.22178 0.93988 0.73633 0.0
C73 C 0.24021 0.93939 0.72664 0.0
N74 N 0.20499 0.93051 0.69694 0.0
C75 C 0.1499 0.95112 0.69202 0.0
C76 C 0.16747 0.96468 0.70033 0.0
C77 C 0.19469 0.9541 0.70266 0.0
C78 C 0.16091 0.92743 0.68596 0.0
C79 C 0.18851 0.91765 0.68846 0.0
N80 N 0.27831 0.89781 0.70689 0.0
C81 C 0.30336 0.86606 0.72003 0.0
C82 C 0.32966 0.87583 0.71585 0.0
C83 C 0.32969 0.89686 0.70696 0.0
C84 C 0.30374 0.90739 0.70252 0.0
C85 C 0.27813 0.87735 0.71552 0.0
H86 H 0.30417 0.92354 0.69569 0.0
H87 H 0.25837 0.86986 0.71923 0.0
H88 H 0.20706 0.9647 0.70938 0.0
H89 H 0.19624 0.89927 0.68372 0.0
C90 C 0.26055 0.95861 0.6812 0.0
C91 C 0.26324 0.96021 0.72413 0.0
C92 C 0.24474 0.85676 0.68196 0.0
C93 C 0.19773 0.8815 0.71899 0.0
H94 H 0.27226 0.01612 0.71344 0.0
H95 H 0.27071 0.01542 0.68984 0.0
H96 H 0.26904 0.9337 0.65817 0.0
H97 H 0.26266 0.87771 0.65893 0.0
H98 H 0.2102 0.8109 0.69156 0.0
H99 H 0.18201 0.82529 0.71114 0.0
H100 H 0.18558 0.91196 0.74071 0.0
H101 H 0.22041 0.95543 0.74336 0.0
H102 H 0.1599 0.98284 0.70535 0.0
H103 H 0.14828 0.91645 0.67934 0.0
H104 H 0.3022 0.85025 0.72702 0.0
H105 H 0.34954 0.90497 0.70344 0.0
C106 C 0.85361 0.78784 0.32137 0.0
C107 C 0.8303 0.80478 0.3186 0.0
C108 C 0.83676 0.81859 0.3082 0.0
C109 C 0.86344 0.80921 0.30512 0.0
N110 N 0.87403 0.7901 0.31287 0.0
Co111 Co 0.9118 0.77118 0.3116 0.0
N112 N 0.91565 0.78121 0.29452 0.0
C113 C 0.90067 0.80136 0.28877 0.0
C114 C 0.9078 0.80336 0.27696 0.0
C115 C 0.92867 0.78332 0.27521 0.0
C116 C 0.93323 0.77025 0.28611 0.0
N117 N 0.94958 0.75247 0.31043 0.0
C118 C 0.96428 0.74384 0.30071 0.0
C119 C 0.99032 0.73213 0.30395 0.0
C120 C 0.99186 0.73359 0.3161 0.0
C121 C 0.96683 0.74611 0.3196 0.0
N122 N 0.90818 0.76116 0.32867 0.0
C123 C 0.9298 0.75377 0.33591 0.0
C124 C 0.92132 0.7491 0.34741 0.0
C125 C 0.8926 0.75409 0.34746 0.0
C126 C 0.88508 0.76149 0.33591 0.0
N127 N 0.89321 0.73544 0.30701 0.0
C128 C 0.87023 0.68453 0.29806 0.0
C129 C 0.89149 0.68412 0.30684 0.0
C130 C 0.90248 0.7098 0.31128 0.0
C131 C 0.86025 0.71102 0.29417 0.0
C132 C 0.872 0.73604 0.29869 0.0
N133 N 0.93043 0.80729 0.31589 0.0
C134 C 0.93011 0.85189 0.32653 0.0
C135 C 0.95335 0.86182 0.31988 0.0
C136 C 0.9655 0.84332 0.31151 0.0
C137 C 0.95377 0.81632 0.30965 0.0
C138 C 0.91915 0.82458 0.32448 0.0
H139 H 0.96315 0.8031 0.30287 0.0
H140 H 0.90106 0.81779 0.32964 0.0
H141 H 0.91896 0.70893 0.31796 0.0
H142 H 0.86442 0.7559 0.29514 0.0
C143 C 0.87713 0.81423 0.29424 0.0
C144 C 0.85657 0.77155 0.33251 0.0
C145 C 0.95543 0.7488 0.28837 0.0
C146 C 0.95682 0.74789 0.33128 0.0
H147 H 0.81072 0.80709 0.32357 0.0
H148 H 0.82316 0.83296 0.30327 0.0
H149 H 0.89818 0.8169 0.2703 0.0
H150 H 0.93928 0.77888 0.26687 0.0
H151 H 1.00666 0.72371 0.29814 0.0
H152 H 0.00879 0.72559 0.32171 0.0
H153 H 0.93434 0.74231 0.35483 0.0
H154 H 0.87891 0.75301 0.35519 0.0
H155 H 0.89965 0.66414 0.31021 0.0
H156 H 0.84413 0.71251 0.28731 0.0
H157 H 0.92029 0.86519 0.33325 0.0
H158 H 0.98334 0.84999 0.30609 0.0
C159 C 0.74247 0.0477 0.71177 0.0
C160 C 0.7301 0.02194 0.70861 0.0
C161 C 0.73099 0.0204 0.69645 0.0
C162 C 0.74385 0.04515 0.69286 0.0
N163 N 0.75099 0.06221 0.70199 0.0
Co164 Co 0.77041 0.09956 0.70069 0.0
N165 N 0.75982 0.10338 0.68368 0.0
C166 C 0.75144 0.08203 0.6765 0.0
C167 C 0.74608 0.09076 0.66508 0.0
C168 C 0.75169 0.11936 0.66502 0.0
C169 C 0.76021 0.1265 0.67647 0.0
N170 N 0.79005 0.13686 0.6993 0.0
C171 C 0.78817 0.15714 0.69074 0.0
C172 C 0.80631 0.17968 0.69318 0.0
C173 C 0.82026 0.17303 0.70353 0.0
C174 C 0.80988 0.14691 0.70685 0.0
N175 N 0.78097 0.09557 0.7177 0.0
C176 C 0.80165 0.11011 0.72331 0.0
C177 C 0.80393 0.103 0.73512 0.0
C178 C 0.78353 0.08259 0.73701 0.0
C179 C 0.76998 0.07826 0.7262 0.0
N180 N 0.80598 0.08017 0.69619 0.0
C181 C 0.8599 0.05608 0.69187 0.0
C182 C 0.84149 0.04443 0.70038 0.0
C183 C 0.81479 0.05672 0.7024 0.0
C184 C 0.85018 0.07943 0.68524 0.0
C185 C 0.82316 0.09098 0.68746 0.0
N186 N 0.73519 0.11887 0.70548 0.0
C187 C 0.71171 0.15207 0.71853 0.0
C188 C 0.68493 0.14249 0.7148 0.0
C189 C 0.6839 0.1214 0.70596 0.0
C190 C 0.70926 0.11008 0.70134 0.0
C191 C 0.73641 0.14001 0.71381 0.0
H192 H 0.7079 0.0937 0.69465 0.0
H193 H 0.75654 0.14724 0.71723 0.0
H194 H 0.80164 0.04769 0.70928 0.0
H195 H 0.81651 0.10913 0.6823 0.0
C196 C 0.74521 0.05516 0.68117 0.0
C197 C 0.74807 0.05646 0.72408 0.0
C198 C 0.77122 0.15465 0.67978 0.0
C199 C 0.81496 0.13322 0.71773 0.0
H200 H 0.72159 1.0058 0.71448 0.0
H201 H 0.72237 1.00369 0.6909 0.0
H202 H 0.73837 0.07803 0.65774 0.0
H203 H 0.75018 0.13325 0.65738 0.0
H204 H 0.80938 0.19878 0.68796 0.0
H205 H 0.83553 0.18607 0.70824 0.0
H206 H 0.81796 0.11231 0.74169 0.0
H207 H 0.7792 0.0721 0.74538 0.0
H208 H 0.84802 0.02652 0.70579 0.0
H209 H 0.86342 0.08889 0.67842 0.0
H210 H 0.71366 0.16807 0.72541 0.0
H211 H 0.66368 0.11358 0.7027 0.0
C212 C 0.15874 0.28708 0.94177 0.0
C213 C 0.18202 0.30401 0.94456 0.0
C214 C 0.17554 0.31779 0.95497 0.0
C215 C 0.14886 0.30841 0.95804 0.0
N216 N 0.13831 0.28933 0.95027 0.0
Co217 Co 0.10055 0.27045 0.95151 0.0
N218 N 0.09669 0.28036 0.9686 0.0
C219 C 0.1116 0.3005 0.97437 0.0
C220 C 0.10444 0.30242 0.98619 0.0
C221 C 0.08361 0.28235 0.98791 0.0
C222 C 0.07913 0.26932 0.97699 0.0
N223 N 0.06278 0.25178 0.95265 0.0
C224 C 0.04813 0.24303 0.96235 0.0
C225 C 0.02211 0.23134 0.95912 0.0
C226 C 0.02053 0.23293 0.94697 0.0
C227 C 0.04553 0.2455 0.94347 0.0
N228 N 0.10418 0.26053 0.93442 0.0
C229 C 0.08257 0.25323 0.92718 0.0
C230 C 0.09108 0.24859 0.91567 0.0
C231 C 0.11982 0.25351 0.91564 0.0
C232 C 0.1273 0.26084 0.9272 0.0
N233 N 0.11917 0.23466 0.95604 0.0
C234 C 0.14235 0.18368 0.96485 0.0
C235 C 0.12104 0.18334 0.9561 0.0
C236 C 0.10995 0.20906 0.95172 0.0
C237 C 0.15225 0.21014 0.96881 0.0
C238 C 0.1404 0.23519 0.96436 0.0
N239 N 0.08192 0.3066 0.94727 0.0
C240 C 0.08231 0.3513 0.9367 0.0
C241 C 0.0591 0.36124 0.94338 0.0
C242 C 0.04692 0.3427 0.95171 0.0
C243 C 0.05859 0.31564 0.95352 0.0
C244 C 0.09322 0.32394 0.93871 0.0
H245 H 0.04919 0.30239 0.96028 0.0
H246 H 0.1113 0.31714 0.93353 0.0
H247 H 0.09345 0.20825 0.94506 0.0
H248 H 0.14792 0.25502 0.96795 0.0
C249 C 0.13514 0.31339 0.96893 0.0
C250 C 0.15582 0.2708 0.93063 0.0
C251 C 0.05707 0.2478 0.9747 0.0
C252 C 0.05555 0.24734 0.93179 0.0
H253 H 0.2016 0.30634 0.93959 0.0
H254 H 0.18911 0.33214 0.95992 0.0
H255 H 0.11401 0.31595 0.99287 0.0
H256 H 0.07299 0.27785 0.99623 0.0
H257 H 1.00584 0.22283 0.96492 0.0
H258 H 1.00362 0.22496 0.94135 0.0
H259 H 0.07809 0.24186 0.90824 0.0
H260 H 0.13353 0.25243 0.90792 0.0
H261 H 0.11294 0.16339 0.95268 0.0
H262 H 0.1684 0.21156 0.97566 0.0
H263 H 0.09215 0.36462 0.93001 0.0
H264 H 0.0291 0.34938 0.95715 0.0
C265 C 0.24308 0.96487 0.05045 0.0
C266 C 0.23119 0.99097 0.05346 0.0
C267 C 0.23221 0.99292 0.06561 0.0
C268 C 0.24467 0.96806 0.06932 0.0
N269 N 0.25147 0.95054 0.06029 0.0
Co270 Co 0.27019 0.91282 0.06178 0.0
N271 N 0.25993 0.9099 0.07888 0.0
C272 C 0.25156 0.9316 0.08588 0.0
C273 C 0.24563 0.92335 0.09731 0.0
C274 C 0.25091 0.89472 0.09758 0.0
C275 C 0.2601 0.88709 0.08627 0.0
N276 N 0.28907 0.87511 0.06334 0.0
C277 C 0.28712 0.85524 0.07208 0.0
C278 C 0.30497 0.83236 0.06975 0.0
C279 C 0.31867 0.83828 0.05926 0.0
C280 C 0.30853 0.86438 0.05577 0.0
N281 N 0.28047 0.91595 0.0447 0.0
C282 C 0.30074 0.90076 0.03911 0.0
C283 C 0.30295 0.90739 0.02726 0.0
C284 C 0.28294 0.92818 0.0253 0.0
C285 C 0.26968 0.93319 0.03613 0.0
N286 N 0.30627 0.93162 0.06601 0.0
C287 C 0.36078 0.95477 0.0699 0.0
C288 C 0.34228 0.96656 0.06145 0.0
C289 C 0.31531 0.95472 0.05964 0.0
C290 C 0.35088 0.93176 0.07668 0.0
C291 C 0.32355 0.9207 0.07469 0.0
N292 N 0.23447 0.89407 0.05725 0.0
C293 C 0.21004 0.8611 0.0444 0.0
C294 C 0.18352 0.87136 0.04817 0.0
C295 C 0.18312 0.89264 0.05694 0.0
C296 C 0.2088 0.90352 0.06143 0.0
C297 C 0.23509 0.87269 0.049 0.0
H298 H 0.20789 0.9201 0.06805 0.0
H299 H 0.255 0.86493 0.04555 0.0
H300 H 0.30213 0.96381 0.05278 0.0
H301 H 0.31674 0.90284 0.07997 0.0
C302 C 0.24575 0.95838 0.08105 0.0
C303 C 0.24825 0.95553 0.03818 0.0
C304 C 0.27103 0.85868 0.08321 0.0
C305 C 0.31367 0.87757 0.0448 0.0
H306 H 0.22286 0.00705 0.04751 0.0
H307 H 0.22387 0.00995 0.07107 0.0
H308 H 0.23761 0.93641 0.1045 0.0
H309 H 0.24855 0.88114 0.10528 0.0
H310 H 0.30815 0.81361 0.07517 0.0
H311 H 0.33374 0.82484 0.05462 0.0
H312 H 0.31667 0.89754 0.0207 0.0
H313 H 0.27868 0.93847 0.01689 0.0
H314 H 0.34895 0.98421 0.05592 0.0
H315 H 0.36419 0.92222 0.08346 0.0
H316 H 0.21156 0.84493 0.03757 0.0
H317 H 0.16314 0.90098 0.06026 0.0
C318 C 0.85429 0.72554 0.94163 0.0
C319 C 0.83104 0.7086 0.94446 0.0
C320 C 0.83757 0.69492 0.95488 0.0
C321 C 0.86423 0.70437 0.95793 0.0
N322 N 0.87474 0.72341 0.95014 0.0
Co323 Co 0.91246 0.74239 0.95135 0.0
N324 N 0.91638 0.73257 0.96844 0.0
C325 C 0.9015 0.71244 0.97424 0.0
C326 C 0.9087 0.71056 0.98605 0.0
C327 C 0.92952 0.73065 0.98774 0.0
C328 C 0.93396 0.74364 0.97682 0.0
N329 N 0.95019 0.76118 0.95246 0.0
C330 C 0.96486 0.76997 0.96215 0.0
C331 C 0.99085 0.78172 0.95889 0.0
C332 C 0.99238 0.78012 0.94674 0.0
C333 C 0.96739 0.76748 0.94327 0.0
N334 N 0.90878 0.75222 0.93425 0.0
C335 C 0.93036 0.75956 0.927 0.0
C336 C 0.92185 0.76408 0.91549 0.0
C337 C 0.89314 0.75903 0.91546 0.0
C338 C 0.88566 0.75176 0.92702 0.0
N339 N 0.89376 0.77815 0.95588 0.0
C340 C 0.87069 0.8291 0.96479 0.0
C341 C 0.89196 0.82948 0.95601 0.0
C342 C 0.90298 0.80377 0.95158 0.0
C343 C 0.86076 0.80263 0.96871 0.0
C344 C 0.87255 0.7776 0.9642 0.0
N345 N 0.93118 0.70627 0.94713 0.0
C346 C 0.93094 0.66146 0.93663 0.0
C347 C 0.95428 0.65172 0.94327 0.0
C348 C 0.96642 0.6704 0.95156 0.0
C349 C 0.9546 0.6974 0.95336 0.0
C350 C 0.9199 0.68879 0.93861 0.0
H351 H 0.96398 0.71074 0.96008 0.0
H352 H 0.90176 0.69546 0.93345 0.0
H353 H 0.91945 0.80461 0.9449 0.0
H354 H 0.86503 0.75776 0.96778 0.0
C355 C 0.87797 0.69949 0.96881 0.0
C356 C 0.85717 0.74171 0.93046 0.0
C357 C 0.95602 0.76516 0.97451 0.0
C358 C 0.95737 0.76556 0.9316 0.0
H359 H 0.81146 0.7062 0.9395 0.0
H360 H 0.82403 0.68059 0.95985 0.0
H361 H 0.89916 0.69705 0.99274 0.0
H362 H 0.94017 0.73518 0.99606 0.0
H363 H 0.00713 0.79026 0.96468 0.0
H364 H 0.00926 0.78811 0.94111 0.0
H365 H 0.93483 0.7708 0.90805 0.0
H366 H 0.87944 0.75999 0.90774 0.0
H367 H 0.90008 0.84945 0.95262 0.0
H368 H 0.84463 0.80117 0.97556 0.0
H369 H 0.92111 0.64801 0.92998 0.0
H370 H 0.98433 0.66387 0.95697 0.0
C371 C 0.76945 0.04839 0.0507 0.0
C372 C 0.78095 0.02229 0.05397 0.0
C373 C 0.77926 0.02076 0.06612 0.0
C374 C 0.76683 0.04585 0.06958 0.0
N375 N 0.76073 0.06312 0.06039 0.0
Co376 Co 0.74221 0.10099 0.06151 0.0
N377 N 0.75196 0.10454 0.07862 0.0
C378 C 0.75908 0.08288 0.08587 0.0
C379 C 0.76362 0.09133 0.09739 0.0
C380 C 0.75883 0.12007 0.09742 0.0
C381 C 0.75168 0.12763 0.08585 0.0
N382 N 0.72351 0.13885 0.06272 0.0
C383 C 0.72578 0.15925 0.07124 0.0
C384 C 0.70902 0.18265 0.06841 0.0
C385 C 0.69533 0.17629 0.05797 0.0
C386 C 0.70459 0.14956 0.05492 0.0
N387 N 0.73245 0.0972 0.0444 0.0
C388 C 0.71248 0.1123 0.0386 0.0
C389 C 0.71065 0.10521 0.02677 0.0
C390 C 0.73061 0.08423 0.02508 0.0
C391 C 0.74346 0.07957 0.03602 0.0
N392 N 0.7059 0.08259 0.06569 0.0
C393 C 0.6512 0.05986 0.06959 0.0
C394 C 0.66978 0.04765 0.06126 0.0
C395 C 0.69685 0.05929 0.05945 0.0
C396 C 0.66112 0.0831 0.07624 0.0
C397 C 0.68851 0.09396 0.07423 0.0
N398 N 0.77817 0.11935 0.05703 0.0
C399 C 0.80314 0.15187 0.04418 0.0
C400 C 0.82949 0.14173 0.04819 0.0
C401 C 0.82953 0.12068 0.05706 0.0
C402 C 0.80366 0.10997 0.06143 0.0
C403 C 0.77791 0.14043 0.04866 0.0
H404 H 0.80426 0.09361 0.06815 0.0
H405 H 0.75817 0.14811 0.04503 0.0
H406 H 0.71013 0.04984 0.0527 0.0
H407 H 0.6953 0.11204 0.0794 0.0
C408 C 0.76489 0.05585 0.08126 0.0
C409 C 0.76476 0.05726 0.03834 0.0
C410 C 0.7419 0.1562 0.08241 0.0
C411 C 0.69967 0.13591 0.04402 0.0
H412 H 0.78937 1.00591 0.04818 0.0
H413 H 0.78706 1.00379 0.07175 0.0
H414 H 0.7702 0.07829 0.10482 0.0
H415 H 0.75989 0.13375 0.10514 0.0
H416 H 0.70676 0.20222 0.07338 0.0
H417 H 0.68112 0.18997 0.053 0.0
H418 H 0.69728 0.11492 0.02007 0.0
H419 H 0.73514 0.07363 0.01676 0.0
H420 H 0.66311 0.02981 0.05584 0.0
H421 H 0.64776 0.09298 0.08292 0.0
H422 H 0.80192 0.16784 0.03726 0.0
H423 H 0.84937 0.11243 0.06054 0.0
C424 C 0.65828 0.72462 0.8214 0.0
C425 C 0.68126 0.70723 0.81864 0.0
C426 C 0.6744 0.69324 0.80832 0.0
C427 C 0.64782 0.70296 0.80528 0.0
N428 N 0.63769 0.72247 0.81297 0.0
Co429 Co 0.60018 0.74192 0.81172 0.0
N430 N 0.59588 0.73151 0.79471 0.0
C431 C 0.61043 0.71098 0.789 0.0
C432 C 0.60318 0.70892 0.7772 0.0
C433 C 0.58268 0.72933 0.77542 0.0
C434 C 0.57845 0.74267 0.78629 0.0
N435 N 0.56268 0.76116 0.81058 0.0
C436 C 0.54803 0.76988 0.80087 0.0
C437 C 0.5222 0.78205 0.80412 0.0
C438 C 0.52078 0.78083 0.81628 0.0
C439 C 0.54566 0.76798 0.81978 0.0
N440 N 0.60425 0.75236 0.82874 0.0
C441 C 0.58285 0.76026 0.836 0.0
C442 C 0.59157 0.76507 0.84746 0.0
C443 C 0.62022 0.75963 0.84745 0.0
C444 C 0.62745 0.75184 0.83592 0.0
N445 N 0.6192 0.77724 0.80688 0.0
C446 C 0.64086 0.82735 0.79663 0.0
C447 C 0.62067 0.82853 0.80585 0.0
C448 C 0.61021 0.80323 0.81089 0.0
C449 C 0.65114 0.80054 0.79326 0.0
C450 C 0.64007 0.77596 0.79842 0.0
N451 N 0.5811 0.70619 0.81622 0.0
C452 C 0.58118 0.6616 0.82689 0.0
C453 C 0.55776 0.65185 0.82029 0.0
C454 C 0.54563 0.67047 0.81197 0.0
C455 C 0.55757 0.69736 0.81007 0.0
C456 C 0.59234 0.68883 0.8248 0.0
H457 H 0.54821 0.71063 0.80331 0.0
H458 H 0.61057 0.69547 0.8299 0.0
H459 H 0.59408 0.80464 0.81769 0.0
H460 H 0.64772 0.75583 0.79518 0.0
C461 C 0.63386 0.69788 0.79446 0.0
C462 C 0.65576 0.74124 0.83249 0.0
C463 C 0.55675 0.76467 0.78852 0.0
C464 C 0.55583 0.76638 0.83143 0.0
H465 H 0.70088 0.70473 0.82356 0.0
H466 H 0.68768 0.67852 0.80341 0.0
H467 H 0.61253 0.69512 0.77056 0.0
H468 H 0.57215 0.73387 0.76708 0.0
H469 H 0.50596 0.79064 0.79832 0.0
H470 H 0.50406 0.78923 0.82191 0.0
H471 H 0.57877 0.77221 0.85489 0.0
H472 H 0.63402 0.76067 0.85514 0.0
H473 H 0.61215 0.84872 0.80883 0.0
H474 H 0.66733 0.79841 0.78646 0.0
H475 H 0.59099 0.64822 0.83357 0.0
H476 H 0.52766 0.66396 0.80659 0.0
C477 C 0.77003 0.46466 0.21225 0.0
C478 C 0.78176 0.49064 0.20898 0.0
C479 C 0.78032 0.49206 0.19682 0.0
C480 C 0.7678 0.46703 0.19336 0.0
N481 N 0.76141 0.44989 0.20256 0.0
Co482 Co 0.74264 0.41218 0.20144 0.0
N483 N 0.75265 0.40841 0.18437 0.0
C484 C 0.76006 0.42994 0.1771 0.0
C485 C 0.76471 0.42138 0.16561 0.0
C486 C 0.75968 0.39269 0.1656 0.0
C487 C 0.75229 0.38527 0.17715 0.0
N488 N 0.72368 0.37446 0.20023 0.0
C489 C 0.72592 0.35399 0.19174 0.0
C490 C 0.70896 0.33076 0.19455 0.0
C491 C 0.69516 0.33731 0.20495 0.0
C492 C 0.70456 0.36398 0.208 0.0
N493 N 0.73263 0.41617 0.21852 0.0
C494 C 0.71247 0.40128 0.22429 0.0
C495 C 0.71048 0.40848 0.2361 0.0
C496 C 0.73052 0.42933 0.23782 0.0
C497 C 0.74359 0.4338 0.22691 0.0
N498 N 0.70653 0.43083 0.19714 0.0
C499 C 0.65199 0.45385 0.19313 0.0
C500 C 0.67054 0.46604 0.20146 0.0
C501 C 0.69753 0.45426 0.20333 0.0
C502 C 0.66185 0.43049 0.18653 0.0
C503 C 0.68917 0.4195 0.18859 0.0
N504 N 0.77839 0.39353 0.20603 0.0
C505 C 0.80279 0.36055 0.21888 0.0
C506 C 0.82931 0.37036 0.21494 0.0
C507 C 0.82974 0.39157 0.20615 0.0
C508 C 0.80405 0.40266 0.20173 0.0
C509 C 0.77777 0.37239 0.21438 0.0
H510 H 0.80494 0.41908 0.19504 0.0
H511 H 0.7579 0.36494 0.21796 0.0
H512 H 0.71079 0.46368 0.21009 0.0
H513 H 0.69593 0.40134 0.18346 0.0
C514 C 0.76599 0.45695 0.18169 0.0
C515 C 0.76503 0.45597 0.22461 0.0
C516 C 0.7422 0.35682 0.18059 0.0
C517 C 0.69958 0.37774 0.21886 0.0
H518 H 0.79016 0.50701 0.21476 0.0
H519 H 0.78831 0.50892 0.19118 0.0
H520 H 0.77151 0.43431 0.15817 0.0
H521 H 0.76074 0.37896 0.15788 0.0
H522 H 0.70662 0.31117 0.1896 0.0
H523 H 0.68078 0.32379 0.20991 0.0
H524 H 0.69693 0.39894 0.24278 0.0
H525 H 0.73497 0.43998 0.24614 0.0
H526 H 0.6639 0.48397 0.20684 0.0
H527 H 0.6485 0.42063 0.17986 0.0
H528 H 0.80128 0.34448 0.22575 0.0
H529 H 0.84975 0.3996 0.20274 0.0
C530 C 0.35443 0.2856 0.82147 0.0
C531 C 0.33091 0.30204 0.81848 0.0
C532 C 0.33748 0.31574 0.80807 0.0
C533 C 0.36444 0.30679 0.80519 0.0
N534 N 0.37511 0.28804 0.81308 0.0
Co535 Co 0.41331 0.26991 0.81214 0.0
N536 N 0.41773 0.27992 0.79509 0.0
C537 C 0.4027 0.29981 0.7892 0.0
C538 C 0.41026 0.3018 0.77744 0.0
C539 C 0.43146 0.28203 0.77586 0.0
C540 C 0.43576 0.26912 0.78681 0.0
N541 N 0.45142 0.2518 0.81127 0.0
C542 C 0.46652 0.24317 0.80166 0.0
C543 C 0.49257 0.23177 0.80507 0.0
C544 C 0.49368 0.23343 0.81723 0.0
C545 C 0.46839 0.24574 0.82056 0.0
N546 N 0.4092 0.26006 0.82922 0.0
C547 C 0.43069 0.25316 0.83661 0.0
C548 C 0.42189 0.24861 0.84808 0.0
C549 C 0.3931 0.25318 0.84794 0.0
C550 C 0.38586 0.26022 0.83633 0.0
N551 N 0.39567 0.23373 0.80747 0.0
C552 C 0.37718 0.18217 0.79754 0.0
C553 C 0.39543 0.18235 0.80741 0.0
C554 C 0.40455 0.20841 0.81222 0.0
C555 C 0.36705 0.20823 0.79327 0.0
C556 C 0.37623 0.23361 0.79842 0.0
N557 N 0.43111 0.30641 0.81648 0.0
C558 C 0.42967 0.35128 0.82693 0.0
C559 C 0.45321 0.36131 0.82047 0.0
C560 C 0.466 0.34275 0.8123 0.0
C561 C 0.45469 0.31558 0.81044 0.0
C562 C 0.41913 0.32379 0.82487 0.0
H563 H 0.46461 0.30234 0.8038 0.0
H564 H 0.40083 0.31689 0.82989 0.0
H565 H 0.41965 0.20811 0.81944 0.0
H566 H 0.36852 0.25323 0.79469 0.0
C567 C 0.37858 0.31212 0.79444 0.0
C568 C 0.35731 0.26977 0.83272 0.0
C569 C 0.45801 0.24785 0.78926 0.0
C570 C 0.45795 0.24756 0.83217 0.0
H571 H 0.31115 0.30415 0.82334 0.0
H572 H 0.32384 0.32982 0.80302 0.0
H573 H 0.40066 0.31508 0.77068 0.0
H574 H 0.4424 0.27761 0.7676 0.0
H575 H 0.50916 0.22343 0.79937 0.0
H576 H 0.51049 0.22567 0.82296 0.0
H577 H 0.43475 0.24217 0.8556 0.0
H578 H 0.37918 0.25206 0.85559 0.0
H579 H 0.40365 0.16261 0.811 0.0
H580 H 0.35256 0.20901 0.78578 0.0
H581 H 0.41933 0.36462 0.83348 0.0
H582 H 0.48407 0.34948 0.80702 0.0
C583 C 0.24391 0.54814 0.21265 0.0
C584 C 0.23152 0.52225 0.2097 0.0
C585 C 0.23183 0.52044 0.19755 0.0
C586 C 0.2444 0.54516 0.19375 0.0
N587 N 0.25194 0.56246 0.20275 0.0
Co588 Co 0.27102 0.59994 0.20116 0.0
N589 N 0.25977 0.60327 0.18418 0.0
C590 C 0.25068 0.58179 0.17722 0.0
C591 C 0.2442 0.59028 0.16588 0.0
C592 C 0.24988 0.61883 0.16561 0.0
C593 C 0.25984 0.62616 0.17683 0.0
N594 N 0.29029 0.6374 0.19949 0.0
C595 C 0.28813 0.65741 0.19082 0.0
C596 C 0.30644 0.67998 0.19301 0.0
C597 C 0.32065 0.6737 0.20334 0.0
C598 C 0.31034 0.64772 0.20688 0.0
N599 N 0.28226 0.59641 0.21812 0.0
C600 C 0.30304 0.61122 0.22353 0.0
C601 C 0.30582 0.60441 0.23535 0.0
C602 C 0.28562 0.58391 0.23746 0.0
C603 C 0.27169 0.57925 0.22676 0.0
N604 N 0.30662 0.58075 0.19651 0.0
C605 C 0.36109 0.55772 0.19234 0.0
C606 C 0.34284 0.54581 0.20085 0.0
C607 C 0.31586 0.55757 0.20279 0.0
C608 C 0.35086 0.58065 0.18558 0.0
C609 C 0.32356 0.59164 0.18772 0.0
N610 N 0.23583 0.61908 0.20613 0.0
C611 C 0.21285 0.6516 0.21962 0.0
C612 C 0.18594 0.64126 0.21643 0.0
C613 C 0.18454 0.62067 0.20739 0.0
C614 C 0.20972 0.60995 0.20232 0.0
C615 C 0.23733 0.64026 0.21443 0.0
H616 H 0.2081 0.59355 0.19565 0.0
H617 H 0.25758 0.64802 0.21751 0.0
H618 H 0.30291 0.54845 0.20972 0.0
H619 H 0.31655 0.60952 0.18248 0.0
C620 C 0.24485 0.55502 0.18204 0.0
C621 C 0.2498 0.55731 0.22488 0.0
C622 C 0.27142 0.65435 0.17983 0.0
C623 C 0.31595 0.6343 0.21776 0.0
H624 H 0.2233 0.50624 0.2157 0.0
H625 H 0.22294 0.50361 0.19213 0.0
H626 H 0.2356 0.57745 0.15874 0.0
H627 H 0.24729 0.63255 0.15797 0.0
H628 H 0.30959 0.69874 0.18759 0.0
H629 H 0.33619 0.68683 0.20785 0.0
H630 H 0.32002 0.61396 0.24178 0.0
H631 H 0.28167 0.57359 0.2459 0.0
H632 H 0.34974 0.5282 0.20635 0.0
H633 H 0.36395 0.59025 0.17875 0.0
H634 H 0.21515 0.66807 0.22629 0.0
H635 H 0.16427 0.61204 0.20456 0.0
C636 C 0.65898 0.78793 0.44191 0.0
C637 C 0.68224 0.80489 0.44469 0.0
C638 C 0.67576 0.81866 0.45511 0.0
C639 C 0.6491 0.80923 0.45818 0.0
N640 N 0.63856 0.79015 0.45042 0.0
Co641 Co 0.60085 0.77117 0.45168 0.0
N642 N 0.597 0.78108 0.46877 0.0
C643 C 0.61193 0.80122 0.47454 0.0
C644 C 0.60484 0.80314 0.48636 0.0
C645 C 0.58403 0.78307 0.48809 0.0
C646 C 0.57946 0.77007 0.47718 0.0
N647 N 0.56313 0.75238 0.45284 0.0
C648 C 0.54846 0.74369 0.46255 0.0
C649 C 0.52244 0.73196 0.45931 0.0
C650 C 0.5209 0.73347 0.44716 0.0
C651 C 0.5459 0.74604 0.44366 0.0
N652 N 0.60446 0.76126 0.43459 0.0
C653 C 0.58285 0.75389 0.42735 0.0
C654 C 0.59134 0.74928 0.41585 0.0
C655 C 0.62006 0.75429 0.4158 0.0
C656 C 0.62756 0.76164 0.42735 0.0
N657 N 0.61958 0.73544 0.45621 0.0
C658 C 0.643 0.68452 0.46499 0.0
C659 C 0.62167 0.68412 0.45624 0.0
C660 C 0.61046 0.70981 0.45188 0.0
C661 C 0.65277 0.71101 0.46896 0.0
C662 C 0.64081 0.73602 0.46452 0.0
N663 N 0.5821 0.80727 0.44745 0.0
C664 C 0.58226 0.85196 0.43686 0.0
C665 C 0.55893 0.86176 0.44351 0.0
C666 C 0.54685 0.84317 0.45184 0.0
C667 C 0.55871 0.8162 0.45368 0.0
C668 C 0.59334 0.82467 0.43889 0.0
H669 H 0.54937 0.80292 0.46044 0.0
H670 H 0.61147 0.81796 0.43372 0.0
H671 H 0.59396 0.70895 0.44522 0.0
H672 H 0.64827 0.75587 0.46812 0.0
C673 C 0.63542 0.81416 0.46908 0.0
C674 C 0.65606 0.77166 0.43077 0.0
C675 C 0.55727 0.74863 0.4749 0.0
C676 C 0.55587 0.74792 0.43198 0.0
H677 H 0.70181 0.80724 0.43972 0.0
H678 H 0.68932 0.83301 0.46005 0.0
H679 H 0.61445 0.81665 0.49303 0.0
H680 H 0.57346 0.77857 0.49643 0.0
H681 H 0.50613 0.72351 0.46511 0.0
H682 H 0.50398 0.72549 0.44154 0.0
H683 H 0.57834 0.74251 0.40842 0.0
H684 H 0.63374 0.75325 0.40807 0.0
H685 H 0.61366 0.66415 0.4528 0.0
H686 H 0.66893 0.71249 0.4758 0.0
H687 H 0.59204 0.86534 0.43017 0.0
H688 H 0.52895 0.84974 0.45726 0.0
C689 C 0.7442 0.46555 0.55039 0.0
C690 C 0.7318 0.49141 0.55341 0.0
C691 C 0.73217 0.49306 0.56557 0.0
C692 C 0.7448 0.46828 0.56929 0.0
N693 N 0.75231 0.45111 0.56024 0.0
Co694 Co 0.77149 0.41362 0.56172 0.0
N695 N 0.76034 0.41006 0.5787 0.0
C696 C 0.75126 0.43144 0.58573 0.0
C697 C 0.74479 0.42277 0.59705 0.0
C698 C 0.75046 0.39421 0.59723 0.0
C699 C 0.76041 0.38704 0.58598 0.0
N700 N 0.79083 0.37614 0.56328 0.0
C701 C 0.78869 0.35599 0.5719 0.0
C702 C 0.80702 0.33345 0.56963 0.0
C703 C 0.82122 0.33988 0.55931 0.0
C704 C 0.81088 0.36593 0.55585 0.0
N705 N 0.78262 0.41737 0.54476 0.0
C706 C 0.80341 0.40263 0.53929 0.0
C707 C 0.80609 0.40958 0.52748 0.0
C708 C 0.78583 0.43009 0.52544 0.0
C709 C 0.77197 0.43464 0.53617 0.0
N710 N 0.80708 0.43277 0.56637 0.0
C711 C 0.86142 0.456 0.57057 0.0
C712 C 0.84305 0.46797 0.56212 0.0
C713 C 0.81616 0.4561 0.56015 0.0
C714 C 0.85139 0.43284 0.57725 0.0
C715 C 0.82415 0.42176 0.57509 0.0
N716 N 0.7363 0.39451 0.55675 0.0
C717 C 0.71332 0.36209 0.54324 0.0
C718 C 0.68638 0.37228 0.54652 0.0
C719 C 0.685 0.39278 0.5556 0.0
C720 C 0.7102 0.40353 0.56063 0.0
C721 C 0.73781 0.37344 0.5484 0.0
H722 H 0.70859 0.41985 0.56734 0.0
H723 H 0.75805 0.36577 0.54526 0.0
H724 H 0.80313 0.4653 0.55327 0.0
H725 H 0.81727 0.40374 0.58027 0.0
C726 C 0.74535 0.45827 0.58097 0.0
C727 C 0.75006 0.45656 0.53813 0.0
C728 C 0.77195 0.35888 0.58289 0.0
C729 C 0.8164 0.3795 0.54499 0.0
H730 H 0.72353 0.50751 0.54746 0.0
H731 H 0.72329 0.50982 0.57103 0.0
H732 H 0.73617 0.4355 0.60422 0.0
H733 H 0.74785 0.38037 0.60483 0.0
H734 H 0.81019 0.3146 0.57499 0.0
H735 H 0.83674 0.32681 0.55475 0.0
H736 H 0.82026 0.4001 0.52101 0.0
H737 H 0.7818 0.44049 0.51703 0.0
H738 H 0.8498 0.48576 0.55669 0.0
H739 H 0.86459 0.42317 0.58403 0.0
H740 H 0.71561 0.34569 0.53654 0.0
H741 H 0.66473 0.4013 0.5585 0.0
C742 C 0.35387 0.22554 0.44194 0.0
C743 C 0.33079 0.20827 0.44465 0.0
C744 C 0.33751 0.19418 0.45496 0.0
C745 C 0.36411 0.20373 0.45804 0.0
N746 N 0.37439 0.22323 0.4504 0.0
Co747 Co 0.41199 0.24243 0.45171 0.0
N748 N 0.41617 0.23176 0.4687 0.0
C749 C 0.40147 0.21127 0.47435 0.0
C750 C 0.40875 0.2089 0.48614 0.0
C751 C 0.42943 0.22906 0.48798 0.0
C752 C 0.43373 0.24257 0.47715 0.0
N753 N 0.4496 0.26142 0.45292 0.0
C754 C 0.46431 0.26981 0.46266 0.0
C755 C 0.4902 0.28188 0.45945 0.0
C756 C 0.4916 0.28092 0.44728 0.0
C757 C 0.46665 0.26831 0.44375 0.0
N758 N 0.40805 0.2531 0.43471 0.0
C759 C 0.4295 0.261 0.42749 0.0
C760 C 0.42087 0.26597 0.41603 0.0
C761 C 0.39222 0.26063 0.41599 0.0
C762 C 0.3849 0.25273 0.4275 0.0
N763 N 0.39312 0.27782 0.45662 0.0
C764 C 0.37148 0.32802 0.46686 0.0
C765 C 0.39177 0.32912 0.45768 0.0
C766 C 0.40221 0.30378 0.45264 0.0
C767 C 0.36115 0.30124 0.47021 0.0
C768 C 0.37221 0.27662 0.46506 0.0
N769 N 0.43092 0.20664 0.44714 0.0
C770 C 0.4306 0.16216 0.4364 0.0
C771 C 0.4539 0.15215 0.44301 0.0
C772 C 0.46614 0.17061 0.45136 0.0
C773 C 0.45438 0.19758 0.45328 0.0
C774 C 0.41962 0.18946 0.43852 0.0
H775 H 0.4638 0.21071 0.46008 0.0
H776 H 0.40146 0.19629 0.43341 0.0
H777 H 0.41839 0.30515 0.44585 0.0
H778 H 0.36449 0.25651 0.46828 0.0
C779 C 0.37799 0.19842 0.46886 0.0
C780 C 0.35655 0.24216 0.43087 0.0
C781 C 0.45565 0.26433 0.47499 0.0
C782 C 0.45651 0.26694 0.43209 0.0
H783 H 0.3112 0.20591 0.4397 0.0
H784 H 0.32414 0.17948 0.45982 0.0
H785 H 0.39934 0.19503 0.49274 0.0
H786 H 0.44007 0.2333 0.49632 0.0
H787 H 0.50651 0.29022 0.46527 0.0
H788 H 0.50836 0.2893 0.44169 0.0
H789 H 0.43374 0.27314 0.40863 0.0
H790 H 0.37848 0.26178 0.40829 0.0
H791 H 0.40037 0.34927 0.45471 0.0
H792 H 0.34487 0.29915 0.47698 0.0
H793 H 0.42072 0.14891 0.42969 0.0
H794 H 0.48403 0.16388 0.45674 0.0
C795 C 0.2701 0.54946 0.55135 0.0
C796 C 0.2818 0.52336 0.55449 0.0
C797 C 0.28044 0.52163 0.56664 0.0
C798 C 0.26799 0.54661 0.57024 0.0
N799 N 0.26157 0.56401 0.56112 0.0
Co800 Co 0.24291 0.60177 0.56244 0.0
N801 N 0.25306 0.60506 0.57952 0.0
C802 C 0.26048 0.58332 0.58667 0.0
C803 C 0.26526 0.59157 0.59819 0.0
C804 C 0.26032 0.62029 0.59834 0.0
C805 C 0.25284 0.62802 0.58683 0.0
N806 N 0.22405 0.63952 0.56386 0.0
C807 C 0.22641 0.65977 0.57244 0.0
C808 C 0.20945 0.68313 0.56976 0.0
C809 C 0.19555 0.67689 0.55936 0.0
C810 C 0.20488 0.65027 0.55618 0.0
N811 N 0.23275 0.59824 0.54536 0.0
C812 C 0.21257 0.61335 0.53969 0.0
C813 C 0.21044 0.60643 0.52786 0.0
C814 C 0.23042 0.58555 0.52602 0.0
C815 C 0.2436 0.58078 0.53688 0.0
N816 N 0.20677 0.58312 0.56671 0.0
C817 C 0.15212 0.56031 0.57062 0.0
C818 C 0.17062 0.54824 0.56224 0.0
C819 C 0.19767 0.55992 0.56041 0.0
C820 C 0.16212 0.58339 0.57735 0.0
C821 C 0.18949 0.5943 0.57533 0.0
N822 N 0.27866 0.62038 0.55787 0.0
C823 C 0.30302 0.65344 0.54505 0.0
C824 C 0.32955 0.64332 0.54884 0.0
C825 C 0.33002 0.62193 0.55756 0.0
C826 C 0.30435 0.61097 0.56205 0.0
C827 C 0.27802 0.64172 0.54961 0.0
H828 H 0.30526 0.59439 0.56867 0.0
H829 H 0.25812 0.64941 0.54613 0.0
H830 H 0.21087 0.55062 0.5536 0.0
H831 H 0.19633 0.61227 0.58055 0.0
C832 C 0.26631 0.5564 0.58195 0.0
C833 C 0.26503 0.5585 0.53903 0.0
C834 C 0.24282 0.65661 0.58354 0.0
C835 C 0.19977 0.6368 0.54525 0.0
H836 H 0.29013 0.50712 0.54862 0.0
H837 H 0.28845 0.5046 0.57219 0.0
H838 H 0.2721 0.57842 0.60556 0.0
H839 H 0.26149 0.63382 0.60611 0.0
H840 H 0.2072 0.7026 0.5748 0.0
H841 H 0.18115 0.69058 0.55449 0.0
H842 H 0.19684 0.61618 0.52125 0.0
H843 H 0.23475 0.57506 0.51764 0.0
H844 H 0.1639 0.53052 0.55676 0.0
H845 H 0.14882 0.59315 0.58408 0.0
H846 H 0.30148 0.66966 0.53824 0.0
H847 H 0.35004 0.61365 0.56086 0.0
C848 C 0.1567 0.35288 0.27801 0.0
C849 C 0.15185 0.35371 0.29036 0.0
C850 C 0.16729 0.3766 0.27197 0.0
C851 C 0.17598 0.45469 0.27346 0.0
H852 H 0.23452 0.44067 0.24985 0.0
C853 C 0.21113 0.538 0.238 0.0
C854 C 0.24002 0.53873 0.23481 0.0
C855 C 0.201 0.5174 0.24597 0.0
C856 C 0.21841 0.4451 0.25649 0.0
H857 H 0.15364 0.38085 0.30593 0.0
H858 H 0.17198 0.42254 0.29531 0.0
H859 H 0.21555 0.4012 0.26137 0.0
H860 H 0.28101 0.51871 0.23741 0.0
H861 H 0.2636 0.48305 0.25148 0.0
H862 H 0.17892 0.49872 0.2685 0.0
C863 C 0.16755 0.40331 0.29034 0.0
C864 C 0.20726 0.42235 0.26301 0.0
C865 C 0.15702 0.37941 0.29643 0.0
C866 C 0.25874 0.5189 0.23991 0.0
C867 C 0.24865 0.49828 0.24785 0.0
C868 C 0.18704 0.47751 0.26686 0.0
C869 C 0.17323 0.40204 0.27805 0.0
C870 C 0.18574 0.42675 0.27152 0.0
C871 C 0.21954 0.49687 0.2508 0.0
C872 C 0.20835 0.47299 0.25825 0.0
H873 H 0.15221 0.33382 0.27294 0.0
H874 H 0.17071 0.37503 0.26247 0.0
H875 H 0.15933 0.45884 0.2799 0.0
H876 H 0.19623 0.55275 0.23398 0.0
H877 H 0.17843 0.51677 0.24791 0.0
C878 C 0.5182 0.75712 0.77339 0.0
C879 C 0.53802 0.77535 0.77879 0.0
C880 C 0.49782 0.76785 0.76549 0.0
C881 C 0.47846 0.83059 0.74689 0.0
H882 H 0.40195 0.80114 0.7507 0.0
C883 C 0.37867 0.88247 0.7247 0.0
C884 C 0.35653 0.8643 0.72107 0.0
C885 C 0.40233 0.87168 0.73088 0.0
C886 C 0.42324 0.80936 0.74934 0.0
H887 H 0.55212 0.81897 0.78024 0.0
H888 H 0.51652 0.8379 0.76637 0.0
H889 H 0.4403 0.78216 0.76282 0.0
H890 H 0.34281 0.82032 0.72045 0.0
H891 H 0.38402 0.80151 0.73095 0.0
H892 H 0.4612 0.85793 0.73342 0.0
C893 C 0.51699 0.81523 0.76806 0.0
C894 C 0.44532 0.79843 0.75633 0.0
C895 C 0.53737 0.80445 0.77599 0.0
C896 C 0.35923 0.83499 0.7233 0.0
C897 C 0.38286 0.82421 0.72939 0.0
C898 C 0.45631 0.84151 0.73984 0.0
C899 C 0.49659 0.79713 0.76285 0.0
C900 C 0.47327 0.8088 0.7552 0.0
C901 C 0.40446 0.84244 0.73353 0.0
C902 C 0.42837 0.83097 0.74095 0.0
H903 H 0.51792 0.73469 0.7756 0.0
H904 H 0.48272 0.7532 0.76156 0.0
H905 H 0.49975 0.83896 0.74571 0.0
H906 H 0.37714 0.90518 0.72321 0.0
H907 H 0.41839 0.88645 0.73397 0.0
C908 C 0.80404 0.4764 0.23727 0.0
C909 C 0.77504 0.47515 0.23432 0.0
C910 C 0.81411 0.49705 0.24524 0.0
C911 C 0.79547 0.56839 0.25682 0.0
H912 H 0.85429 0.55343 0.28017 0.0
C913 C 0.8298 0.65501 0.29011 0.0
C914 C 0.85902 0.65785 0.29257 0.0
C915 C 0.81947 0.63138 0.28389 0.0
C916 C 0.83805 0.55807 0.27362 0.0
H917 H 0.73382 0.49445 0.23722 0.0
H918 H 0.75111 0.53017 0.25129 0.0
H919 H 0.83647 0.51463 0.26776 0.0
H920 H 0.90018 0.63754 0.29064 0.0
H921 H 0.88223 0.59635 0.27969 0.0
H922 H 0.79723 0.61178 0.26247 0.0
C923 C 0.76622 0.51533 0.24748 0.0
C924 C 0.8278 0.53577 0.26651 0.0
C925 C 0.7562 0.49466 0.23955 0.0
C926 C 0.87752 0.6359 0.289 0.0
C927 C 0.86719 0.61226 0.28271 0.0
C928 C 0.80575 0.59064 0.26388 0.0
C929 C 0.79538 0.51712 0.2503 0.0
C930 C 0.80629 0.54062 0.25803 0.0
C931 C 0.83806 0.60991 0.27988 0.0
C932 C 0.82713 0.58585 0.27243 0.0
H933 H 0.81902 0.46188 0.23315 0.0
H934 H 0.83672 0.49797 0.24707 0.0
H935 H 0.77937 0.57313 0.25022 0.0
H936 H 0.81487 0.67126 0.2929 0.0
H937 H 0.79683 0.63006 0.28217 0.0
C938 C 0.47843 0.20884 0.7766 0.0
C939 C 0.47737 0.23778 0.77964 0.0
C940 C 0.499 0.19877 0.76859 0.0
C941 C 0.57034 0.21703 0.75694 0.0
H942 H 0.55448 0.15924 0.73326 0.0
C943 C 0.65605 0.18297 0.72314 0.0
C944 C 0.65856 0.15382 0.72051 0.0
C945 C 0.63265 0.19334 0.72951 0.0
C946 C 0.55936 0.17519 0.7399 0.0
H947 H 0.49688 0.27888 0.77685 0.0
H948 H 0.5325 0.26157 0.76271 0.0
H949 H 0.51601 0.177 0.74589 0.0
H950 H 0.63795 0.11282 0.72234 0.0
H951 H 0.59718 0.13085 0.73355 0.0
H952 H 0.61365 0.21503 0.75116 0.0
C953 C 0.51758 0.24653 0.76649 0.0
C954 C 0.53726 0.1854 0.74714 0.0
C955 C 0.497 0.25655 0.77446 0.0
C956 C 0.63656 0.13544 0.7241 0.0
C957 C 0.61315 0.14581 0.73054 0.0
C958 C 0.59239 0.20679 0.74975 0.0
C959 C 0.51914 0.21743 0.76357 0.0
C960 C 0.54245 0.20653 0.75573 0.0
C961 C 0.6111 0.17486 0.73351 0.0
C962 C 0.58726 0.18578 0.74109 0.0
H963 H 0.46378 0.19393 0.78066 0.0
H964 H 0.49976 0.1762 0.76667 0.0
H965 H 0.57531 0.23284 0.76362 0.0
H966 H 0.67237 0.1978 0.72035 0.0
H967 H 0.63155 0.21593 0.73136 0.0
C968 C 0.20936 0.97549 0.02533 0.0
C969 C 0.23835 0.97425 0.0283 0.0
C970 C 0.19932 0.99601 0.0173 0.0
C971 C 0.21794 0.06723 1.00568 0.0
H972 H 0.15887 0.05242 0.98243 0.0
C973 C 0.18297 0.15412 0.97264 0.0
C974 C 0.15371 0.15695 0.97025 0.0
C975 C 0.19345 0.13043 0.97877 0.0
C976 C 0.17518 0.05701 0.98895 0.0
H977 H 0.2796 0.99339 0.02534 0.0
H978 H 0.26234 0.02888 0.01115 0.0
H979 H 0.17687 0.01354 0.99477 0.0
H980 H 0.11263 0.13657 0.97223 0.0
H981 H 0.13084 0.09529 0.98305 0.0
H982 H 0.21606 0.11065 1.00009 0.0
C983 C 0.24723 0.01412 0.015 0.0
C984 C 0.18554 0.03467 0.99602 0.0
C985 C 0.25722 0.99359 0.02299 0.0
C986 C 0.13532 0.13494 0.97382 0.0
C987 C 0.1458 0.11125 0.98003 0.0
C988 C 0.20756 0.08951 0.99866 0.0
C989 C 0.21805 0.01597 0.01219 0.0
C990 C 0.20713 0.03948 1.00447 0.0
C991 C 0.17498 0.1089 0.98278 0.0
C992 C 0.18607 0.08478 0.99016 0.0
H993 H 0.19436 0.96113 0.02951 0.0
H994 H 0.1767 0.99698 0.01548 0.0
H995 H 0.2341 0.07193 0.01226 0.0
H996 H 0.19781 0.17044 0.96985 0.0
H997 H 0.21612 0.12912 0.98044 0.0
C998 C 0.13487 0.87942 0.03923 0.0
C999 C 0.15676 0.86058 0.04256 0.0
C1000 C 0.11091 0.86959 0.03303 0.0
C1001 C 0.07035 0.80397 0.0254 0.0
H1002 H 0.04444 0.84822 0.99841 0.0
C1003 C 0.99474 0.75767 0.98958 0.0
C1004 C 0.97475 0.77582 0.98424 0.0
C1005 C 0.01485 0.76838 0.99761 0.0
C1006 C 0.05101 0.83576 1.00603 0.0
H1007 H 0.1699 0.81635 0.04235 0.0
H1008 H 0.12836 0.79928 0.0315 0.0
H1009 H 0.08294 0.86622 0.01081 0.0
H1010 H 0.96003 0.81928 0.983 0.0
H1011 H 0.99468 0.8381 0.99726 0.0
H1012 H 0.03856 0.77342 0.02058 0.0
C1013 C 0.12962 0.82168 0.0337 0.0
C1014 C 0.07319 0.84612 0.01315 0.0
C1015 C 0.15362 0.83153 0.03983 0.0
C1016 C 0.97501 0.80484 0.98715 0.0
C1017 C 0.99508 0.81559 0.99521 0.0
C1018 C 0.0481 0.79366 0.0183 0.0
C1019 C 0.10809 0.84061 0.03006 0.0
C1020 C 0.08337 0.83025 0.02287 0.0
C1021 C 0.01556 0.79758 1.00045 0.0
C1022 C 0.03826 0.80927 0.00843 0.0
H1023 H 0.13666 0.90196 0.04109 0.0
H1024 H 0.09463 0.88475 0.0305 0.0
H1025 H 0.0773 0.79136 0.03291 0.0
H1026 H 0.99539 0.73532 0.98723 0.0
H1027 H 0.0305 0.75389 1.00126 0.0
C1028 C 0.8302 0.85868 0.97268 0.0
C1029 C 0.85944 0.85579 0.97026 0.0
C1030 C 0.81982 0.88229 0.9789 0.0
C1031 C 0.83836 0.95547 0.98932 0.0
H1032 H 0.77937 0.94034 0.01258 0.0
C1033 C 0.80395 0.03683 0.02576 0.0
C1034 C 0.7749 0.03815 0.02863 0.0
C1035 C 0.81411 0.01623 0.01778 0.0
C1036 C 0.79556 0.9451 1.00602 0.0
H1037 H 0.9006 0.87599 0.97228 0.0
H1038 H 0.88256 0.91715 0.98324 0.0
H1039 H 0.79736 0.90176 1.00031 0.0
H1040 H 0.73369 0.01904 0.02557 0.0
H1041 H 0.75116 0.98342 0.01148 0.0
H1042 H 0.83675 0.99885 0.99525 0.0
C1043 C 0.86754 0.9013 0.98019 0.0
C1044 C 0.80591 0.92289 0.99894 0.0
C1045 C 0.87792 0.87768 0.97388 0.0
C1046 C 0.75611 0.01877 0.02331 0.0
C1047 C 0.76622 0.99816 0.01536 0.0
C1048 C 0.82804 0.97772 0.99645 0.0
C1049 C 0.83838 0.90369 0.98297 0.0
C1050 C 0.82739 0.92771 0.99045 0.0
C1051 C 0.79544 0.9963 0.01263 0.0
C1052 C 0.80642 0.97284 1.00488 0.0
H1053 H 0.81529 0.84246 0.96985 0.0
H1054 H 0.79716 0.88365 0.98059 0.0
H1055 H 0.85468 0.96013 0.98281 0.0
H1056 H 0.81889 0.05124 0.02995 0.0
H1057 H 0.83676 0.01525 0.01601 0.0
C1058 C 0.85967 0.18146 0.03998 0.0
C1059 C 0.85644 0.15243 0.04273 0.0
C1060 C 0.88379 0.19124 0.03391 0.0
C1061 C 0.94033 0.16664 0.01348 0.0
H1062 H 0.97491 0.23939 0.02088 0.0
C1063 C 0.03827 0.20808 0.98736 0.0
C1064 C 0.03843 0.2371 0.98445 0.0
C1065 C 0.01829 0.19728 0.99545 0.0
C1066 C 0.96538 0.21913 0.01861 0.0
H1067 H 0.87651 0.11102 0.04138 0.0
H1068 H 0.91877 0.12811 0.03089 0.0
H1069 H 0.93619 0.22145 0.03323 0.0
H1070 H 0.01772 0.27755 0.98747 0.0
H1071 H 0.98275 0.2589 1.00155 0.0
H1072 H 0.96904 0.16453 0.99872 0.0
C1073 C 0.90247 0.1433 0.03336 0.0
C1074 C 0.94315 0.20882 0.02572 0.0
C1075 C 0.87838 0.13354 0.0395 0.0
C1076 C 0.01844 0.25521 0.98982 0.0
C1077 C 0.99842 0.24445 0.99788 0.0
C1078 C 0.96248 0.177 1.00634 0.0
C1079 C 0.90536 0.17225 0.03036 0.0
C1080 C 0.93014 0.18254 0.0232 0.0
C1081 C 0.99781 0.21525 1.00072 0.0
C1082 C 0.9752 0.20352 0.00873 0.0
H1083 H 0.84333 0.19666 0.04242 0.0
H1084 H 0.8851 0.21361 0.03169 0.0
H1085 H 0.93058 0.14653 0.01115 0.0
H1086 H 0.05325 0.19368 0.98318 0.0
H1087 H 0.01876 0.17478 0.99749 0.0
C1088 C 0.65514 0.85233 0.77778 0.0
C1089 C 0.65056 0.85341 0.79014 0.0
C1090 C 0.66556 0.87594 0.77161 0.0
C1091 C 0.67425 0.95405 0.77277 0.0
H1092 H 0.73241 0.93949 0.74905 0.0
C1093 C 0.70921 0.03684 0.73704 0.0
C1094 C 0.7381 0.03754 0.73388 0.0
C1095 C 0.69904 0.01626 0.74501 0.0
C1096 C 0.7164 0.94407 0.75572 0.0
H1097 H 0.65262 0.88088 0.80561 0.0
H1098 H 0.67067 0.92237 0.79476 0.0
H1099 H 0.71361 0.90029 0.76078 0.0
H1100 H 0.77907 0.01746 0.73647 0.0
H1101 H 0.76159 0.98182 0.75054 0.0
H1102 H 0.67713 0.99797 0.76764 0.0
C1103 C 0.66617 0.90303 0.78988 0.0
C1104 C 0.70535 0.92147 0.76236 0.0
C1105 C 0.6558 0.87924 0.7961 0.0
C1106 C 0.75678 0.01765 0.73896 0.0
C1107 C 0.74666 0.99706 0.74689 0.0
C1108 C 0.68521 0.97672 0.76605 0.0
C1109 C 0.67159 0.90151 0.77758 0.0
C1110 C 0.68397 0.92607 0.77091 0.0
C1111 C 0.71756 0.99573 0.74987 0.0
C1112 C 0.70639 0.972 0.7574 0.0
H1113 H 0.65057 0.83316 0.7728 0.0
H1114 H 0.66878 0.87416 0.76211 0.0
H1115 H 0.65771 0.95835 0.77924 0.0
H1116 H 0.69435 0.05167 0.73305 0.0
H1117 H 0.67648 0.0157 0.74697 0.0
C1118 C 0.03747 0.30312 0.27557 0.0
C1119 C 0.03846 0.27418 0.27861 0.0
C1120 C 0.01687 0.31326 0.26759 0.0
C1121 C 0.94528 0.29514 0.25613 0.0
H1122 H 0.96054 0.35355 0.23266 0.0
C1123 C 0.85871 0.3298 0.22287 0.0
C1124 C 0.856 0.35901 0.22039 0.0
C1125 C 0.88234 0.31935 0.22906 0.0
C1126 C 0.95582 0.33743 0.23924 0.0
H1127 H 0.01878 0.23314 0.27584 0.0
H1128 H 0.98318 0.25055 0.26173 0.0
H1129 H 0.99931 0.33552 0.24505 0.0
H1130 H 0.87652 0.40002 0.22228 0.0
H1131 H 0.91771 0.38186 0.23319 0.0
H1132 H 0.90184 0.29722 0.25053 0.0
C1133 C 0.99817 0.26555 0.26549 0.0
C1134 C 0.9781 0.32705 0.24635 0.0
C1135 C 0.01877 0.25546 0.27344 0.0
C1136 C 0.87806 0.37738 0.22393 0.0
C1137 C 0.9017 0.36692 0.2302 0.0
C1138 C 0.92306 0.30553 0.24907 0.0
C1139 C 0.99661 0.29467 0.2626 0.0
C1140 C 0.97314 0.30569 0.25487 0.0
C1141 C 0.90392 0.33781 0.23304 0.0
C1142 C 0.92796 0.32676 0.24049 0.0
H1143 H 0.05212 0.318 0.27964 0.0
H1144 H 0.01613 0.33583 0.2657 0.0
H1145 H 0.94045 0.27917 0.26277 0.0
H1146 H 0.84236 0.31498 0.2201 0.0
H1147 H 0.88356 0.29673 0.2308 0.0
C1148 C 0.3061 0.99051 0.7297 0.0
C1149 C 0.28226 0.97444 0.73339 0.0
C1150 C 0.31965 0.00951 0.7374 0.0
C1151 C 0.33112 0.03114 0.76862 0.0
H1152 H 0.33134 0.10721 0.75534 0.0
C1153 C 0.35717 0.13228 0.79694 0.0
C1154 C 0.36992 0.15544 0.79112 0.0
C1155 C 0.34843 0.1082 0.79048 0.0
C1156 C 0.33209 0.08612 0.75919 0.0
H1157 H 0.26256 0.95855 0.74967 0.0
H1158 H 0.28482 0.99243 0.76288 0.0
H1159 H 0.31497 0.06762 0.74335 0.0
H1160 H 0.38508 0.17091 0.77415 0.0
H1161 H 0.37124 0.12883 0.76301 0.0
H1162 H 0.34874 0.04964 0.78443 0.0
C1163 C 0.29088 0.99231 0.75358 0.0
C1164 C 0.32251 0.06334 0.75228 0.0
C1165 C 0.27712 0.97343 0.74577 0.0
C1166 C 0.37485 0.15356 0.77884 0.0
C1167 C 0.36665 0.12942 0.77244 0.0
C1168 C 0.34117 0.05398 0.77553 0.0
C1169 C 0.31106 0.01181 0.7493 0.0
C1170 C 0.32195 0.03555 0.75686 0.0
C1171 C 0.35267 0.10658 0.77807 0.0
C1172 C 0.34191 0.08187 0.77089 0.0
H1173 H 0.3139 0.98939 0.72066 0.0
H1174 H 0.33646 0.02296 0.73396 0.0
H1175 H 0.33097 0.00996 0.77241 0.0
H1176 H 0.35307 0.13323 0.80641 0.0
H1177 H 0.33759 0.09128 0.79518 0.0
C1178 C 0.9757 0.70976 0.27568 0.0
C1179 C 0.97452 0.73875 0.27864 0.0
C1180 C 0.9965 0.69958 0.2678 0.0
C1181 C 0.0685 0.71751 0.25699 0.0
H1182 H 0.0551 0.65777 0.23387 0.0
C1183 C 0.16116 0.65661 0.23521 0.0
C1184 C 0.15995 0.65134 0.2229 0.0
C1185 C 0.13749 0.66711 0.24134 0.0
C1186 C 0.05915 0.67461 0.24023 0.0
H1187 H 0.99397 0.77986 0.27577 0.0
H1188 H 0.02999 0.76235 0.26185 0.0
H1189 H 0.01517 0.67708 0.24534 0.0
H1190 H 0.13223 0.65239 0.20749 0.0
H1191 H 0.09067 0.67056 0.21826 0.0
H1192 H 0.11236 0.71513 0.25194 0.0
C1193 C 0.01496 0.74736 0.26559 0.0
C1194 C 0.0363 0.6855 0.24688 0.0
C1195 C 0.99415 0.75749 0.27344 0.0
C1196 C 0.13397 0.65608 0.21696 0.0
C1197 C 0.11014 0.66651 0.22314 0.0
C1198 C 0.09128 0.70652 0.25042 0.0
C1199 C 0.01677 0.71818 0.26282 0.0
C1200 C 0.0407 0.70706 0.25538 0.0
C1201 C 0.11174 0.67252 0.23539 0.0
C1202 C 0.087 0.68479 0.24201 0.0
H1203 H 0.96109 0.69486 0.27978 0.0
H1204 H 0.99744 0.67697 0.266 0.0
H1205 H 0.07282 0.73382 0.26354 0.0
H1206 H 0.18045 0.65247 0.24018 0.0
H1207 H 0.13934 0.67081 0.25081 0.0
C1208 C 0.71124 0.47615 0.52514 0.0
C1209 C 0.74018 0.47526 0.52824 0.0
C1210 C 0.70111 0.49666 0.51713 0.0
C1211 C 0.71911 0.5683 0.50576 0.0
H1212 H 0.66052 0.55318 0.48233 0.0
C1213 C 0.68378 0.65519 0.47278 0.0
C1214 C 0.65452 0.65782 0.47036 0.0
C1215 C 0.6944 0.63152 0.47889 0.0
C1216 C 0.6767 0.55786 0.4889 0.0
H1217 H 0.78121 0.49502 0.5255 0.0
H1218 H 0.76382 0.53047 0.51133 0.0
H1219 H 0.67877 0.51433 0.49462 0.0
H1220 H 0.61358 0.6371 0.47225 0.0
H1221 H 0.63203 0.59585 0.48302 0.0
H1222 H 0.71685 0.61177 0.50026 0.0
C1223 C 0.74882 0.51545 0.51508 0.0
C1224 C 0.6872 0.53553 0.49595 0.0
C1225 C 0.7589 0.49493 0.52306 0.0
C1226 C 0.63627 0.63563 0.47386 0.0
C1227 C 0.64689 0.61196 0.48005 0.0
C1228 C 0.70859 0.59057 0.49876 0.0
C1229 C 0.71968 0.51695 0.51216 0.0
C1230 C 0.70862 0.54045 0.50446 0.0
C1231 C 0.67606 0.60981 0.48284 0.0
C1232 C 0.68728 0.58572 0.4902 0.0
H1233 H 0.69634 0.46152 0.52922 0.0
H1234 H 0.67852 0.49735 0.51522 0.0
H1235 H 0.73512 0.5731 0.51239 0.0
H1236 H 0.69852 0.67163 0.47003 0.0
H1237 H 0.71706 0.63037 0.48059 0.0
C1238 C 0.63451 0.35721 0.54613 0.0
C1239 C 0.66035 0.36214 0.54012 0.0
C1240 C 0.61065 0.34669 0.54 0.0
C1241 C 0.59164 0.30683 0.51271 0.0
H1242 H 0.51538 0.3357 0.5181 0.0
C1243 C 0.49458 0.25559 0.48982 0.0
C1244 C 0.4747 0.27428 0.48474 0.0
C1245 C 0.51542 0.26572 0.49765 0.0
C1246 C 0.53655 0.32743 0.51648 0.0
H1247 H 0.68059 0.36125 0.52277 0.0
H1248 H 0.63944 0.34278 0.51224 0.0
H1249 H 0.55536 0.35513 0.52948 0.0
H1250 H 0.46085 0.31808 0.4838 0.0
H1251 H 0.49723 0.33597 0.49754 0.0
H1252 H 0.57317 0.27957 0.49958 0.0
C1253 C 0.63771 0.34639 0.52172 0.0
C1254 C 0.55943 0.3384 0.52308 0.0
C1255 C 0.6614 0.35697 0.5278 0.0
C1256 C 0.47565 0.30321 0.48781 0.0
C1257 C 0.49647 0.31339 0.49567 0.0
C1258 C 0.56883 0.29577 0.50619 0.0
C1259 C 0.61209 0.34079 0.52774 0.0
C1260 C 0.58734 0.32843 0.52118 0.0
C1261 C 0.517 0.29485 0.50051 0.0
C1262 C 0.54097 0.30602 0.50791 0.0
H1263 H 0.6329 0.36081 0.55561 0.0
H1264 H 0.5913 0.3425 0.54493 0.0
H1265 H 0.61275 0.29837 0.5111 0.0
H1266 H 0.49459 0.23327 0.4874 0.0
H1267 H 0.53064 0.25077 0.50129 0.0
C1268 C 0.25611 0.51997 0.52404 0.0
C1269 C 0.27495 0.53953 0.52924 0.0
C1270 C 0.26614 0.49922 0.51614 0.0
C1271 C 0.3278 0.47791 0.49727 0.0
H1272 H 0.29829 0.40188 0.5024 0.0
C1273 C 0.35683 0.38004 0.46733 0.0
C1274 C 0.36171 0.35416 0.47331 0.0
C1275 C 0.34651 0.40394 0.47351 0.0
C1276 C 0.30685 0.42295 0.50086 0.0
H1277 H 0.31889 0.55289 0.5303 0.0
H1278 H 0.33659 0.51667 0.51642 0.0
H1279 H 0.27967 0.44139 0.51404 0.0
H1280 H 0.36104 0.33392 0.49065 0.0
H1281 H 0.34288 0.37512 0.50126 0.0
H1282 H 0.35539 0.45913 0.4842 0.0
C1283 C 0.31399 0.51762 0.51827 0.0
C1284 C 0.29592 0.44572 0.50745 0.0
C1285 C 0.30392 0.53834 0.52621 0.0
C1286 C 0.35677 0.35313 0.48565 0.0
C1287 C 0.34637 0.37685 0.49177 0.0
C1288 C 0.33863 0.45507 0.49059 0.0
C1289 C 0.2953 0.4974 0.51331 0.0
C1290 C 0.30634 0.4735 0.50582 0.0
C1291 C 0.34075 0.40249 0.48578 0.0
C1292 C 0.3285 0.42723 0.4924 0.0
H1293 H 0.23376 0.52015 0.52642 0.0
H1294 H 0.25109 0.48424 0.51241 0.0
H1295 H 0.33619 0.49903 0.49572 0.0
H1296 H 0.36027 0.38165 0.45784 0.0
H1297 H 0.34233 0.42333 0.46861 0.0
C1298 C 0.51874 0.75735 0.48993 0.0
C1299 C 0.5382 0.73856 0.48463 0.0
C1300 C 0.49817 0.74729 0.4979 0.0
C1301 C 0.47796 0.68562 0.5169 0.0
H1302 H 0.40188 0.71631 0.51313 0.0
C1303 C 0.37803 0.63596 0.53961 0.0
C1304 C 0.3562 0.65449 0.5433 0.0
C1305 C 0.4016 0.64627 0.53326 0.0
C1306 C 0.42305 0.70776 0.51447 0.0
H1307 H 0.55144 0.69461 0.48338 0.0
H1308 H 0.5155 0.67684 0.49735 0.0
H1309 H 0.44037 0.73419 0.50078 0.0
H1310 H 0.34294 0.69865 0.54376 0.0
H1311 H 0.38403 0.71665 0.53292 0.0
H1312 H 0.46047 0.65906 0.53058 0.0
C1313 C 0.51641 0.69945 0.49555 0.0
C1314 C 0.4452 0.71805 0.50735 0.0
C1315 C 0.53698 0.70955 0.48755 0.0
C1316 C 0.3591 0.6837 0.54089 0.0
C1317 C 0.38266 0.69401 0.53461 0.0
C1318 C 0.45575 0.67535 0.52406 0.0
C1319 C 0.4964 0.71813 0.50068 0.0
C1320 C 0.47299 0.70719 0.50846 0.0
C1321 C 0.40399 0.6754 0.53048 0.0
C1322 C 0.42796 0.68632 0.52297 0.0
H1323 H 0.51893 0.77973 0.48763 0.0
H1324 H 0.48337 0.76236 0.50177 0.0
H1325 H 0.49912 0.67691 0.51808 0.0
H1326 H 0.37634 0.6133 0.54121 0.0
H1327 H 0.41741 0.63122 0.53017 0.0
C1328 C 0.32551 0.21625 0.4161 0.0
C1329 C 0.33356 0.24183 0.42164 0.0
C1330 C 0.30607 0.21627 0.40664 0.0
C1331 C 0.27812 0.26208 0.38264 0.0
H1332 H 0.21772 0.20616 0.38077 0.0
C1333 C 0.19103 0.26685 0.34592 0.0
C1334 C 0.17948 0.24122 0.34171 0.0
C1335 C 0.21017 0.26699 0.35551 0.0
C1336 C 0.23472 0.22168 0.38099 0.0
H1337 H 0.32812 0.2875 0.42142 0.0
H1338 H 0.29422 0.28768 0.40481 0.0
H1339 H 0.24969 0.20625 0.39782 0.0
H1340 H 0.17855 0.19565 0.34436 0.0
H1341 H 0.21292 0.19554 0.36063 0.0
H1342 H 0.2637 0.27719 0.36572 0.0
C1343 C 0.30272 0.26754 0.40787 0.0
C1344 C 0.25301 0.22179 0.39085 0.0
C1345 C 0.3219 0.26746 0.41744 0.0
C1346 C 0.18763 0.21568 0.34724 0.0
C1347 C 0.20699 0.21573 0.35673 0.0
C1348 C 0.26003 0.26179 0.37271 0.0
C1349 C 0.29464 0.24195 0.4023 0.0
C1350 C 0.27493 0.24203 0.39183 0.0
C1351 C 0.21833 0.24143 0.36114 0.0
C1352 C 0.23797 0.2416 0.37171 0.0
H1353 H 0.33481 0.19627 0.41892 0.0
H1354 H 0.3007 0.19622 0.40247 0.0
H1355 H 0.29503 0.27771 0.383 0.0
H1356 H 0.18463 0.28689 0.34198 0.0
H1357 H 0.21787 0.28729 0.35871 0.0
C1358 C 0.26865 0.69063 0.59707 0.0
C1359 C 0.24283 0.67945 0.59284 0.0
C1360 C 0.26903 0.70972 0.60667 0.0
C1361 C 0.22367 0.75976 0.62388 0.0
H1362 H 0.27992 0.74905 0.6487 0.0
C1363 C 0.21864 0.82489 0.66759 0.0
C1364 C 0.24434 0.83335 0.6729 0.0
C1365 C 0.21849 0.80546 0.65812 0.0
C1366 C 0.26427 0.75271 0.6418 0.0
H1367 H 0.19723 0.67894 0.59556 0.0
H1368 H 0.19769 0.71281 0.61209 0.0
H1369 H 0.27993 0.71775 0.6314 0.0
H1370 H 0.29008 0.8286 0.67229 0.0
H1371 H 0.2901 0.79511 0.65564 0.0
H1372 H 0.20825 0.79496 0.63409 0.0
C1373 C 0.21768 0.70718 0.60791 0.0
C1374 C 0.26427 0.73464 0.63185 0.0
C1375 C 0.21737 0.68787 0.59839 0.0
C1376 C 0.26993 0.82194 0.66853 0.0
C1377 C 0.26985 0.80269 0.65898 0.0
C1378 C 0.22382 0.77798 0.63377 0.0
C1379 C 0.24354 0.71818 0.61227 0.0
C1380 C 0.24392 0.73784 0.62277 0.0
C1381 C 0.24413 0.79431 0.65352 0.0
C1382 C 0.24404 0.77472 0.64293 0.0
H1383 H 0.28861 0.68413 0.59307 0.0
H1384 H 0.28931 0.71787 0.60972 0.0
H1385 H 0.20791 0.76314 0.617 0.0
H1386 H 0.19863 0.83385 0.67058 0.0
H1387 H 0.19819 0.79935 0.65436 0.0
C1388 C 0.69044 0.74611 0.41729 0.0
C1389 C 0.67908 0.77183 0.42154 0.0
C1390 C 0.7097 0.74592 0.40775 0.0
C1391 C 0.75993 0.79145 0.39084 0.0
H1392 H 0.74928 0.73602 0.36572 0.0
C1393 C 0.82531 0.79741 0.34722 0.0
C1394 C 0.8336 0.77183 0.34176 0.0
C1395 C 0.80595 0.79738 0.35671 0.0
C1396 C 0.75293 0.75144 0.3727 0.0
H1397 H 0.67839 0.81743 0.41894 0.0
H1398 H 0.71258 0.81728 0.40251 0.0
H1399 H 0.71778 0.73566 0.38295 0.0
H1400 H 0.82872 0.72613 0.34213 0.0
H1401 H 0.79541 0.7258 0.35885 0.0
H1402 H 0.79533 0.80697 0.38079 0.0
C1403 C 0.70696 0.79724 0.40663 0.0
C1404 C 0.73475 0.75123 0.38261 0.0
C1405 C 0.68747 0.79737 0.41608 0.0
C1406 C 0.8222 0.74619 0.34603 0.0
C1407 C 0.80303 0.74609 0.35561 0.0
C1408 C 0.77829 0.7915 0.381 0.0
C1409 C 0.71813 0.77148 0.40224 0.0
C1410 C 0.73793 0.7713 0.3918 0.0
C1411 C 0.79473 0.77168 0.36118 0.0
C1412 C 0.77504 0.77157 0.37173 0.0
H1413 H 0.68395 0.7261 0.42122 0.0
H1414 H 0.71799 0.72571 0.40466 0.0
H1415 H 0.76327 0.807 0.39781 0.0
H1416 H 0.83428 0.81744 0.34429 0.0
H1417 H 0.7999 0.81759 0.36058 0.0
C1418 C 0.74892 0.19444 0.66806 0.0
C1419 C 0.77264 0.17726 0.67047 0.0
C1420 C 0.74948 0.214 0.65863 0.0
C1421 C 0.79919 0.25113 0.63763 0.0
H1422 H 0.73004 0.26432 0.61967 0.0
C1423 C 0.79143 0.34052 0.60225 0.0
C1424 C 0.77385 0.33646 0.5923 0.0
C1425 C 0.79189 0.32061 0.61152 0.0
C1426 C 0.74969 0.26072 0.62447 0.0
H1427 H 0.81532 0.16647 0.66487 0.0
H1428 H 0.81637 0.20014 0.64831 0.0
H1429 H 0.72962 0.23102 0.63622 0.0
H1430 H 0.744 0.30784 0.58393 0.0
H1431 H 0.74528 0.27244 0.59994 0.0
H1432 H 0.81951 0.28006 0.62565 0.0
C1433 C 0.7975 0.1993 0.65383 0.0
C1434 C 0.74933 0.24186 0.63415 0.0
C1435 C 0.79695 0.17992 0.6633 0.0
C1436 C 0.75752 0.31154 0.59158 0.0
C1437 C 0.75811 0.29144 0.60082 0.0
C1438 C 0.79959 0.26984 0.62792 0.0
C1439 C 0.7737 0.21659 0.65128 0.0
C1440 C 0.77405 0.23682 0.64093 0.0
C1441 C 0.77505 0.29582 0.61103 0.0
C1442 C 0.77482 0.27507 0.6212 0.0
H1443 H 0.72984 0.19252 0.67341 0.0
H1444 H 0.73087 0.22712 0.65712 0.0
H1445 H 0.81864 0.24819 0.64265 0.0
H1446 H 0.80435 0.35953 0.60298 0.0
H1447 H 0.80496 0.32511 0.61922 0.0
C1448 C 0.19026 0.24516 0.91721 0.0
C1449 C 0.17887 0.27091 0.92142 0.0
C1450 C 0.20958 0.2449 0.90768 0.0
C1451 C 0.25979 0.29043 0.89072 0.0
H1452 H 0.24965 0.23443 0.86578 0.0
C1453 C 0.32552 0.29579 0.84717 0.0
C1454 C 0.33412 0.27012 0.84187 0.0
C1455 C 0.30602 0.29588 0.85662 0.0
C1456 C 0.25314 0.25001 0.87272 0.0
H1457 H 0.17819 0.31649 0.91876 0.0
H1458 H 0.21244 0.31623 0.90235 0.0
H1459 H 0.218 0.23426 0.88296 0.0
H1460 H 0.3296 0.2244 0.84246 0.0
H1461 H 0.29601 0.22428 0.85908 0.0
H1462 H 0.29517 0.30595 0.88065 0.0
C1463 C 0.20681 0.29621 0.9065 0.0
C1464 C 0.23488 0.24991 0.8826 0.0
C1465 C 0.18728 0.29642 0.91593 0.0
C1466 C 0.32285 0.24452 0.84624 0.0
C1467 C 0.30352 0.24454 0.85576 0.0
C1468 C 0.27821 0.29038 0.8809 0.0
C1469 C 0.21802 0.27043 0.90215 0.0
C1470 C 0.23788 0.27017 0.89173 0.0
C1471 C 0.29494 0.27022 0.86118 0.0
C1472 C 0.27515 0.27024 0.8717 0.0
H1473 H 0.18377 0.22518 0.92116 0.0
H1474 H 0.2179 0.22468 0.90464 0.0
H1475 H 0.263 0.30613 0.89764 0.0
H1476 H 0.33437 0.31581 0.84416 0.0
H1477 H 0.29976 0.31615 0.86037 0.0
C1478 C 0.29115 0.67229 0.16044 0.0
C1479 C 0.27339 0.67655 0.17033 0.0
C1480 C 0.29166 0.69198 0.15109 0.0
C1481 C 0.27468 0.7667 0.1432 0.0
H1482 H 0.27399 0.73787 0.11088 0.0
C1483 C 0.29128 0.84042 0.10246 0.0
C1484 C 0.27305 0.83646 0.0927 0.0
C1485 C 0.29186 0.82073 0.11181 0.0
C1486 C 0.27405 0.74631 0.11984 0.0
H1487 H 0.24319 0.70523 0.17849 0.0
H1488 H 0.24419 0.74003 0.16219 0.0
H1489 H 0.27382 0.70462 0.12757 0.0
H1490 H 0.24207 0.8083 0.08478 0.0
H1491 H 0.24319 0.77351 0.10107 0.0
H1492 H 0.27477 0.8084 0.13546 0.0
C1493 C 0.25762 0.72134 0.1616 0.0
C1494 C 0.27424 0.72722 0.12943 0.0
C1495 C 0.25696 0.70146 0.17093 0.0
C1496 C 0.2562 0.81184 0.09224 0.0
C1497 C 0.25694 0.79195 0.10156 0.0
C1498 C 0.27477 0.7858 0.13361 0.0
C1499 C 0.27468 0.71666 0.15147 0.0
C1500 C 0.27453 0.73713 0.14125 0.0
C1501 C 0.27448 0.79635 0.11157 0.0
C1502 C 0.27444 0.77589 0.12178 0.0
H1503 H 0.30428 0.65337 0.15986 0.0
H1504 H 0.30544 0.68788 0.14356 0.0
H1505 H 0.27511 0.77514 0.15216 0.0
H1506 H 0.30474 0.8591 0.10294 0.0
H1507 H 0.30601 0.82459 0.11924 0.0
C1508 C 0.82281 0.76713 0.91694 0.0
C1509 C 0.83413 0.74145 0.92124 0.0
C1510 C 0.80351 0.76723 0.90741 0.0
C1511 C 0.75303 0.72159 0.89066 0.0
H1512 H 0.76368 0.77663 0.8654 0.0
C1513 C 0.68702 0.71538 0.8472 0.0
C1514 C 0.67889 0.74092 0.84167 0.0
C1515 C 0.70651 0.71543 0.85665 0.0
C1516 C 0.76003 0.76133 0.87242 0.0
H1517 H 0.83468 0.69581 0.91875 0.0
H1518 H 0.80041 0.6958 0.90235 0.0
H1519 H 0.7953 0.77713 0.88258 0.0
H1520 H 0.6842 0.78657 0.84188 0.0
H1521 H 0.7177 0.78695 0.85852 0.0
H1522 H 0.71749 0.70606 0.8807 0.0
C1523 C 0.80611 0.71589 0.90642 0.0
C1524 C 0.77829 0.76161 0.8823 0.0
C1525 C 0.82564 0.71585 0.91585 0.0
C1526 C 0.69059 0.76653 0.84583 0.0
C1527 C 0.70987 0.76666 0.85536 0.0
C1528 C 0.73459 0.72148 0.88085 0.0
C1529 C 0.79498 0.74161 0.90197 0.0
C1530 C 0.77511 0.74168 0.89155 0.0
C1531 C 0.71801 0.74111 0.86101 0.0
C1532 C 0.73782 0.74127 0.87152 0.0
H1533 H 0.82935 0.78719 0.92081 0.0
H1534 H 0.79526 0.78741 0.90428 0.0
H1535 H 0.7497 0.70615 0.89767 0.0
H1536 H 0.67783 0.69537 0.84436 0.0
H1537 H 0.71241 0.69524 0.86056 0.0
C1538 C 0.76751 0.19037 0.09593 0.0
C1539 C 0.74176 0.17919 0.09164 0.0
C1540 C 0.76771 0.20962 0.10547 0.0
C1541 C 0.72218 0.26011 0.12232 0.0
H1542 H 0.77754 0.24931 0.14747 0.0
C1543 C 0.71627 0.3256 0.16592 0.0
C1544 C 0.74189 0.33382 0.17137 0.0
C1545 C 0.71627 0.30621 0.15644 0.0
C1546 C 0.76215 0.25299 0.14048 0.0
H1547 H 0.69609 0.17884 0.09416 0.0
H1548 H 0.69626 0.21301 0.11059 0.0
H1549 H 0.77788 0.21778 0.13025 0.0
H1550 H 0.7876 0.32879 0.17099 0.0
H1551 H 0.78789 0.29542 0.1543 0.0
H1552 H 0.7067 0.29556 0.13236 0.0
C1553 C 0.71633 0.20724 0.10651 0.0
C1554 C 0.76234 0.2348 0.13058 0.0
C1555 C 0.71618 0.18777 0.09706 0.0
C1556 C 0.76752 0.32232 0.1671 0.0
C1557 C 0.76759 0.30312 0.15754 0.0
C1558 C 0.72215 0.27847 0.13216 0.0
C1559 C 0.74212 0.21823 0.11094 0.0
C1560 C 0.7423 0.23803 0.12138 0.0
C1561 C 0.74197 0.29489 0.15198 0.0
C1562 C 0.74206 0.27517 0.14144 0.0
H1563 H 0.78755 0.18374 0.09203 0.0
H1564 H 0.78794 0.21777 0.10858 0.0
H1565 H 0.70665 0.26349 0.11534 0.0
H1566 H 0.69624 0.33463 0.16884 0.0
H1567 H 0.69604 0.30022 0.15258 0.0
C1568 C 0.94514 0.91455 0.32238 0.0
C1569 C 0.96419 0.89157 0.32126 0.0
C1570 C 0.95516 0.94261 0.32297 0.0
C1571 C 0.0193 0.98602 0.32949 0.0
H1572 H 0.98073 0.04346 0.31073 0.0
C1573 C 0.06652 0.09905 0.32257 0.0
C1574 C 0.0477 0.12225 0.32161 0.0
C1575 C 0.05622 0.07108 0.3231 0.0
C1576 C 0.99156 0.02788 0.31619 0.0
H1577 H 0.00888 0.88028 0.32022 0.0
H1578 H 0.02634 0.92917 0.32125 0.0
H1579 H 0.96302 0.99479 0.31075 0.0
H1580 H 1.00313 0.13406 0.3209 0.0
H1581 H 0.98514 0.08551 0.32206 0.0
H1582 H 0.04773 0.01909 0.33501 0.0
C1583 C 1.0036 0.92547 0.32168 0.0
C1584 C 0.98139 0.99986 0.31618 0.0
C1585 C 0.99357 0.89742 0.32099 0.0
C1586 C 0.01827 0.11672 0.32146 0.0
C1587 C 0.00795 0.08878 0.32208 0.0
C1588 C 0.02938 0.01411 0.32958 0.0
C1589 C 0.98452 0.94849 0.32256 0.0
C1590 C 0.99515 0.9785 0.32279 0.0
C1591 C 0.02676 0.06546 0.32277 0.0
C1592 C 0.01572 0.0355 0.32289 0.0
H1593 H 0.92237 0.91092 0.3225 0.0
H1594 H 0.93984 0.95974 0.32377 0.0
H1595 H 0.03024 0.97023 0.33481 0.0
H1596 H 0.08933 0.10244 0.32254 0.0
H1597 H 0.07146 0.05381 0.32344 0.0
C1598 C 0.91271 0.06304 0.68898 0.0
C1599 C 0.88937 0.04457 0.69031 0.0
C1600 C 0.94054 0.05237 0.68823 0.0
C1601 C 0.9836 0.98782 0.69525 0.0
H1602 H 0.04027 0.02488 0.67557 0.0
C1603 C 0.09738 0.9417 0.68935 0.0
C1604 C 0.12003 0.96118 0.69013 0.0
C1605 C 0.06914 0.95125 0.68856 0.0
C1606 C 0.02476 0.01438 0.68118 0.0
H1607 H 0.87711 1.00021 0.69147 0.0
H1608 H 0.92544 0.98158 0.68997 0.0
H1609 H 0.99141 0.0425 0.67563 0.0
H1610 H 0.13063 1.00607 0.69024 0.0
H1611 H 0.08151 0.02268 0.68889 0.0
H1612 H 0.017 0.95967 0.70077 0.0
C1613 C 0.92239 1.00441 0.68981 0.0
C1614 C 0.99668 0.02454 0.68124 0.0
C1615 C 0.89458 0.0151 0.69063 0.0
C1616 C 0.11373 0.99045 0.68976 0.0
C1617 C 0.08554 0.99999 0.68888 0.0
C1618 C 0.01163 0.97757 0.69514 0.0
C1619 C 0.94585 0.02289 0.68871 0.0
C1620 C 0.97568 0.01153 0.68834 0.0
C1621 C 0.06281 0.98054 0.68842 0.0
C1622 C 0.03266 0.99081 0.68816 0.0
H1623 H 0.90958 0.08587 0.68888 0.0
H1624 H 0.95796 0.06736 0.68759 0.0
H1625 H 0.96829 0.97749 0.70101 0.0
H1626 H 0.1014 0.91902 0.68971 0.0
H1627 H 0.05222 0.93565 0.68809 0.0
C1628 C 0.06745 0.41396 0.94099 0.0
C1629 C 0.04834 0.39105 0.94207 0.0
C1630 C 0.0575 0.44206 0.94045 0.0
C1631 C 0.99348 0.48576 0.93397 0.0
H1632 H 0.03212 0.54293 0.95283 0.0
C1633 C 0.94645 0.59888 0.94099 0.0
C1634 C 0.9653 0.62202 0.94195 0.0
C1635 C 0.95672 0.57088 0.94046 0.0
C1636 C 0.02127 0.52743 0.94734 0.0
H1637 H 1.00362 0.37993 0.94307 0.0
H1638 H 0.98629 0.4289 0.94213 0.0
H1639 H 0.04973 0.4942 0.95275 0.0
H1640 H 0.00989 0.63369 0.94269 0.0
H1641 H 0.02781 0.58508 0.94155 0.0
H1642 H 0.96514 0.51897 0.92848 0.0
C1643 C 0.00901 0.42511 0.9417 0.0
C1644 C 0.03139 0.49937 0.94732 0.0
C1645 C 0.01897 0.39702 0.94235 0.0
C1646 C 0.99473 0.6164 0.94213 0.0
C1647 C 1.00501 0.58842 0.94151 0.0
C1648 C 0.98346 0.51389 0.93392 0.0
C1649 C 0.02815 0.44806 0.94086 0.0
C1650 C 0.0176 0.4781 0.94067 0.0
C1651 C 0.98616 0.56517 0.9408 0.0
C1652 C 0.99714 0.53517 0.94064 0.0
H1653 H 0.09021 0.41024 0.94087 0.0
H1654 H 0.07286 0.45914 0.93968 0.0
H1655 H 0.98253 0.47005 0.92862 0.0
H1656 H 0.92365 0.60234 0.941 0.0
H1657 H 0.94144 0.55366 0.94011 0.0
C1658 C 0.41364 0.94702 0.07236 0.0
C1659 C 0.39047 0.96582 0.07124 0.0
C1660 C 0.44165 0.9573 0.07287 0.0
C1661 C 0.48504 0.02167 0.0657 0.0
H1662 H 0.54251 0.98344 0.0846 0.0
C1663 C 0.59842 0.06815 0.07197 0.0
C1664 C 0.62141 0.04908 0.07093 0.0
C1665 C 0.57032 0.05816 0.07254 0.0
C1666 C 0.52677 0.99425 0.0792 0.0
H1667 H 0.37872 0.01035 0.07022 0.0
H1668 H 0.42731 0.0283 0.07136 0.0
H1669 H 0.49359 0.96602 0.08479 0.0
H1670 H 0.63269 1.0044 0.07003 0.0
H1671 H 0.58374 0.987 0.07103 0.0
H1672 H 0.51824 0.05004 0.06021 0.0
C1673 C 0.42402 1.00551 0.07152 0.0
C1674 C 0.49865 0.98421 0.07928 0.0
C1675 C 0.39605 0.99521 0.07091 0.0
C1676 C 0.61554 0.01972 0.07072 0.0
C1677 C 0.58745 0.00972 0.0714 0.0
C1678 C 0.5131 0.03183 0.0657 0.0
C1679 C 0.44732 0.98671 0.07237 0.0
C1680 C 0.47733 0.9977 0.0725 0.0
C1681 C 0.56442 0.02881 0.0722 0.0
C1682 C 0.53439 0.01822 0.07241 0.0
H1683 H 0.4102 0.92424 0.07248 0.0
H1684 H 0.45889 0.94204 0.07334 0.0
H1685 H 0.46953 0.03237 0.06016 0.0
H1686 H 0.60206 0.0909 0.07204 0.0
H1687 H 0.55318 0.07348 0.07327 0.0
C1688 C 0.44455 0.41407 0.82274 0.0
C1689 C 0.46377 0.39118 0.82186 0.0
C1690 C 0.45439 0.44221 0.82329 0.0
C1691 C 0.51821 0.4861 0.83 0.0
H1692 H 0.47993 0.54301 0.81085 0.0
C1693 C 0.56547 0.59901 0.82276 0.0
C1694 C 0.54666 0.62219 0.82169 0.0
C1695 C 0.55516 0.57103 0.82334 0.0
C1696 C 0.49067 0.52758 0.81642 0.0
H1697 H 0.50858 0.38015 0.82122 0.0
H1698 H 0.5257 0.42913 0.82215 0.0
H1699 H 0.46233 0.49429 0.81101 0.0
H1700 H 0.50209 0.63395 0.8208 0.0
H1701 H 0.4841 0.58541 0.82203 0.0
H1702 H 0.54646 0.51937 0.83547 0.0
C1703 C 0.50297 0.42533 0.82243 0.0
C1704 C 0.48056 0.49953 0.81648 0.0
C1705 C 0.49313 0.39721 0.82179 0.0
C1706 C 0.51723 0.61663 0.82145 0.0
C1707 C 0.50691 0.58869 0.82211 0.0
C1708 C 0.52823 0.51422 0.83 0.0
C1709 C 0.48374 0.44827 0.82306 0.0
C1710 C 0.49423 0.47835 0.82324 0.0
C1711 C 0.52571 0.56539 0.82294 0.0
C1712 C 0.51469 0.53541 0.82317 0.0
H1713 H 0.42181 0.41031 0.8227 0.0
H1714 H 0.43895 0.45927 0.8239 0.0
H1715 H 0.52907 0.47048 0.83543 0.0
H1716 H 0.58827 0.60239 0.82279 0.0
H1717 H 0.57041 0.55378 0.82379 0.0
C1718 C 0.59917 0.44594 0.19073 0.0
C1719 C 0.62228 0.46482 0.19172 0.0
C1720 C 0.57114 0.45615 0.19008 0.0
C1721 C 0.52741 0.52074 0.1966 0.0
H1722 H 0.47045 0.48142 0.17784 0.0
C1723 C 0.41376 0.56626 0.18979 0.0
C1724 C 0.39093 0.54708 0.19097 0.0
C1725 C 0.44193 0.55645 0.18931 0.0
C1726 C 0.48605 0.49255 0.1832 0.0
H1727 H 0.63389 0.5094 0.1924 0.0
H1728 H 0.58525 0.52723 0.19104 0.0
H1729 H 0.51946 0.46421 0.17792 0.0
H1730 H 0.38002 0.50237 0.19221 0.0
H1731 H 0.42911 0.48527 0.19134 0.0
H1732 H 0.49397 0.5492 0.20179 0.0
C1733 C 0.58862 0.50444 0.19108 0.0
C1734 C 0.51422 0.48262 0.18327 0.0
C1735 C 0.61662 0.49422 0.19181 0.0
C1736 C 0.39705 0.51777 0.19139 0.0
C1737 C 0.42521 0.50795 0.1908 0.0
C1738 C 0.4993 0.53077 0.19645 0.0
C1739 C 0.56539 0.48557 0.19032 0.0
C1740 C 0.53535 0.49649 0.19001 0.0
C1741 C 0.44807 0.52716 0.18988 0.0
C1742 C 0.47819 0.51676 0.18979 0.0
H1743 H 0.60266 0.42316 0.19081 0.0
H1744 H 0.55395 0.44085 0.18971 0.0
H1745 H 0.54279 0.53174 0.20209 0.0
H1746 H 0.40991 0.58898 0.18957 0.0
H1747 H 0.45895 0.57185 0.18848 0.0
C1748 C 0.44552 0.09944 0.4406 0.0
C1749 C 0.46464 0.12235 0.44163 0.0
C1750 C 0.45546 0.07132 0.44008 0.0
C1751 C 0.51948 0.02749 0.43369 0.0
H1752 H 0.48089 0.97066 0.45274 0.0
C1753 C 0.56666 0.91457 0.44106 0.0
C1754 C 0.54785 0.89142 0.44212 0.0
C1755 C 0.55635 0.94255 0.44045 0.0
C1756 C 0.49173 0.98606 0.4472 0.0
H1757 H 0.50938 0.13346 0.44258 0.0
H1758 H 0.52669 0.08448 0.44168 0.0
H1759 H 0.46324 0.01938 0.4525 0.0
H1760 H 0.50328 0.8797 0.44293 0.0
H1761 H 0.48528 0.92826 0.44164 0.0
H1762 H 0.54786 0.9942 0.4283 0.0
C1763 C 0.50396 0.08827 0.44126 0.0
C1764 C 0.48158 0.01412 0.44709 0.0
C1765 C 0.49401 0.11637 0.44188 0.0
C1766 C 0.51842 0.89701 0.4423 0.0
C1767 C 0.5081 0.92495 0.4416 0.0
C1768 C 0.52953 0.99937 0.43373 0.0
C1769 C 0.48482 0.06532 0.44049 0.0
C1770 C 0.49536 0.03526 0.44037 0.0
C1771 C 0.5269 0.94822 0.44079 0.0
C1772 C 0.51587 0.97821 0.44052 0.0
H1773 H 0.42277 0.10316 0.4405 0.0
H1774 H 0.4401 0.05424 0.43936 0.0
H1775 H 0.53043 0.04311 0.42829 0.0
H1776 H 0.58947 0.91115 0.44107 0.0
H1777 H 0.5716 0.95978 0.44002 0.0
C1778 C 0.89679 0.49632 0.57178 0.0
C1779 C 0.89112 0.46694 0.57201 0.0
C1780 C 0.92479 0.50652 0.57242 0.0
C1781 C 0.99938 0.48484 0.58009 0.0
H1782 H 0.01913 0.55099 0.56125 0.0
C1783 C 0.11636 0.52022 0.57164 0.0
C1784 C 0.12231 0.54957 0.57195 0.0
C1785 C 0.08825 0.51028 0.57228 0.0
C1786 C 0.01394 0.53268 0.56667 0.0
H1787 H 0.91073 0.42528 0.5731 0.0
H1788 H 0.95947 0.44291 0.57404 0.0
H1789 H 0.97037 0.53347 0.56115 0.0
H1790 H 0.10306 0.5914 0.57322 0.0
H1791 H 0.05413 0.57408 0.57439 0.0
H1792 H 0.04325 0.48383 0.58539 0.0
C1793 C 0.94227 0.45823 0.57362 0.0
C1794 C 0.98586 0.52261 0.56665 0.0
C1795 C 0.91423 0.44805 0.57307 0.0
C1796 C 0.09936 0.56866 0.57306 0.0
C1797 C 0.07124 0.55873 0.5736 0.0
C1798 C 0.02753 0.4948 0.58003 0.0
C1799 C 0.94804 0.48764 0.57321 0.0
C1800 C 0.97808 0.49853 0.57336 0.0
C1801 C 0.06527 0.52941 0.57315 0.0
C1802 C 0.03521 0.51888 0.57333 0.0
H1803 H 0.87951 0.51152 0.57113 0.0
H1804 H 0.92816 0.5293 0.57234 0.0
H1805 H 0.99428 0.46655 0.58553 0.0
H1806 H 0.13348 0.50488 0.57088 0.0
H1807 H 0.08449 0.48757 0.57182 0.0
loop_
_geom_bond_atom_site_label_1
_geom_bond_atom_site_label_2
_geom_bond_distance
_geom_bond_site_symmetry_2
_ccdc_geom_bond_type
C0 C1 1.443 . S
C0 N4 1.376 . S
C0 C38 1.389 . S
C1 C0 1.443 . S
C1 C2 1.340 . S
C1 H41 0.951 . S
C2 C1 1.340 . S
C2 C3 1.439 . S
C2 H42 0.950 . S
C3 C2 1.439 . S
C3 N4 1.374 . S
C3 C37 1.395 . S
N4 C0 1.376 . S
N4 C3 1.374 . S
N4 Co5 2.008 . S
Co5 N4 2.008 . S
Co5 N6 1.995 . S
Co5 N11 2.008 . S
Co5 N16 1.995 . S
Co5 N21 2.282 . S
Co5 N27 2.282 . S
N6 Co5 1.995 . S
N6 C7 1.376 . S
N6 C10 1.383 . S
C7 N6 1.376 . S
C7 C8 1.446 . S
C7 C37 1.391 . S
C8 C7 1.446 . S
C8 C9 1.339 . S
C8 H43 0.949 . S
C9 C8 1.339 . S
C9 C10 1.439 . S
C9 H44 0.950 . S
C10 N6 1.383 . S
C10 C9 1.439 . S
C10 C39 1.392 . S
N11 Co5 2.008 . S
N11 C12 1.376 . S
N11 C15 1.374 . S
C12 N11 1.376 . S
C12 C13 1.444 1_455 S
C12 C39 1.389 . S
C13 C12 1.444 1_655 S
C13 C14 1.340 1_655 S
C13 H45 0.951 . S
C14 C13 1.340 1_455 S
C14 C15 1.439 . S
C14 H46 0.950 1_455 S
C15 N11 1.374 . S
C15 C14 1.439 . S
C15 C40 1.395 . S
N16 Co5 1.995 . S
N16 C17 1.376 . S
N16 C20 1.383 . S
C17 N16 1.376 . S
C17 C18 1.446 . S
C17 C40 1.391 . S
C18 C17 1.446 . S
C18 C19 1.339 . S
C18 H47 0.949 . S
C19 C18 1.339 . S
C19 C20 1.439 . S
C19 H48 0.950 . S
C20 N16 1.383 . S
C20 C19 1.439 . S
C20 C38 1.392 . S
N21 Co5 2.282 . S
N21 C24 1.332 . S
N21 C26 1.332 . S
C22 C23 1.386 . S
C22 C25 1.388 . S
C23 C22 1.386 . S
C23 C24 1.382 . S
C23 H49 0.950 . S
C24 N21 1.332 . S
C24 C23 1.382 . S
C24 H35 0.952 . S
C25 C22 1.388 . S
C25 C26 1.382 . S
C25 H50 0.950 . S
C26 N21 1.332 . S
C26 C25 1.382 . S
C26 H36 0.948 . S
N27 Co5 2.282 . S
N27 C31 1.332 . S
N27 C32 1.332 . S
C28 C29 1.388 . S
C28 C32 1.382 . S
C28 H51 0.950 . S
C29 C28 1.388 . S
C29 C30 1.386 . S
C30 C29 1.386 . S
C30 C31 1.382 . S
C30 H52 0.950 . S
C31 N27 1.332 . S
C31 C30 1.382 . S
C31 H33 0.952 . S
C32 N27 1.332 . S
C32 C28 1.382 . S
C32 H34 0.948 . S
H33 C31 0.952 . S
H34 C32 0.948 . S
H35 C24 0.952 . S
H36 C26 0.948 . S
C37 C3 1.395 . S
C37 C7 1.391 . S
C38 C0 1.389 . S
C38 C20 1.392 . S
C39 C10 1.392 . S
C39 C12 1.389 . S
C40 C15 1.395 . S
C40 C17 1.391 . S
H41 C1 0.951 . S
H42 C2 0.950 . S
H43 C8 0.949 . S
H44 C9 0.950 . S
H45 C13 0.951 . S
H46 C14 0.950 1_655 S
H47 C18 0.949 . S
H48 C19 0.950 . S
H49 C23 0.950 . S
H50 C25 0.950 . S
H51 C28 0.950 . S
H52 C30 0.950 . S
C53 C54 1.444 1_565 S
C53 N57 1.376 . S
C53 C91 1.389 . S
C54 C53 1.444 1_545 S
C54 C55 1.340 1_545 S
C54 H94 0.951 . S
C55 C54 1.340 1_565 S
C55 C56 1.439 . S
C55 H95 0.950 1_565 S
C56 C55 1.439 . S
C56 N57 1.374 . S
C56 C90 1.395 . S
N57 C53 1.376 . S
N57 C56 1.374 . S
N57 Co58 2.008 . S
Co58 N57 2.008 . S
Co58 N59 1.995 . S
Co58 N64 2.008 . S
Co58 N69 1.995 . S
Co58 N74 2.282 . S
Co58 N80 2.282 . S
N59 Co58 1.995 . S
N59 C60 1.376 . S
N59 C63 1.383 . S
C60 N59 1.376 . S
C60 C61 1.446 . S
C60 C90 1.391 . S
C61 C60 1.446 . S
C61 C62 1.339 . S
C61 H96 0.949 . S
C62 C61 1.339 . S
C62 C63 1.439 . S
C62 H97 0.950 . S
C63 N59 1.383 . S
C63 C62 1.439 . S
C63 C92 1.392 . S
N64 Co58 2.008 . S
N64 C65 1.376 . S
N64 C68 1.374 . S
C65 N64 1.376 . S
C65 C66 1.443 . S
C65 C92 1.389 . S
C66 C65 1.443 . S
C66 C67 1.340 . S
C66 H98 0.951 . S
C67 C66 1.340 . S
C67 C68 1.439 . S
C67 H99 0.950 . S
C68 N64 1.374 . S
C68 C67 1.439 . S
C68 C93 1.395 . S
N69 Co58 1.995 . S
N69 C70 1.376 . S
N69 C73 1.383 . S
C70 N69 1.376 . S
C70 C71 1.446 . S
C70 C93 1.391 . S
C71 C70 1.446 . S
C71 C72 1.339 . S
C71 H100 0.949 . S
C72 C71 1.339 . S
C72 C73 1.439 . S
C72 H101 0.950 . S
C73 N69 1.383 . S
C73 C72 1.439 . S
C73 C91 1.392 . S
N74 Co58 2.282 . S
N74 C77 1.332 . S
N74 C79 1.332 . S
C75 C76 1.386 . S
C75 C78 1.388 . S
C76 C75 1.386 . S
C76 C77 1.382 . S
C76 H102 0.950 . S
C77 N74 1.332 . S
C77 C76 1.382 . S
C77 H88 0.952 . S
C78 C75 1.388 . S
C78 C79 1.382 . S
C78 H103 0.950 . S
C79 N74 1.332 . S
C79 C78 1.382 . S
C79 H89 0.948 . S
N80 Co58 2.282 . S
N80 C84 1.332 . S
N80 C85 1.332 . S
C81 C82 1.388 . S
C81 C85 1.382 . S
C81 H104 0.950 . S
C82 C81 1.388 . S
C82 C83 1.386 . S
C83 C82 1.386 . S
C83 C84 1.382 . S
C83 H105 0.950 . S
C84 N80 1.332 . S
C84 C83 1.382 . S
C84 H86 0.952 . S
C85 N80 1.332 . S
C85 C81 1.382 . S
C85 H87 0.948 . S
H86 C84 0.952 . S
H87 C85 0.948 . S
H88 C77 0.952 . S
H89 C79 0.948 . S
C90 C56 1.395 . S
C90 C60 1.391 . S
C91 C53 1.389 . S
C91 C73 1.392 . S
C92 C63 1.392 . S
C92 C65 1.389 . S
C93 C68 1.395 . S
C93 C70 1.391 . S
H94 C54 0.951 . S
H95 C55 0.950 1_545 S
H96 C61 0.949 . S
H97 C62 0.950 . S
H98 C66 0.951 . S
H99 C67 0.950 . S
H100 C71 0.949 . S
H101 C72 0.950 . S
H102 C76 0.950 . S
H103 C78 0.950 . S
H104 C81 0.950 . S
H105 C83 0.950 . S
C106 C107 1.443 . S
C106 N110 1.376 . S
C106 C144 1.389 . S
C107 C106 1.443 . S
C107 C108 1.340 . S
C107 H147 0.951 . S
C108 C107 1.340 . S
C108 C109 1.439 . S
C108 H148 0.950 . S
C109 C108 1.439 . S
C109 N110 1.374 . S
C109 C143 1.395 . S
N110 C106 1.376 . S
N110 C109 1.374 . S
N110 Co111 2.008 . S
Co111 N110 2.008 . S
Co111 N112 1.995 . S
Co111 N117 2.008 . S
Co111 N122 1.995 . S
Co111 N127 2.282 . S
Co111 N133 2.282 . S
N112 Co111 1.995 . S
N112 C113 1.376 . S
N112 C116 1.383 . S
C113 N112 1.376 . S
C113 C114 1.446 . S
C113 C143 1.391 . S
C114 C113 1.446 . S
C114 C115 1.339 . S
C114 H149 0.949 . S
C115 C114 1.339 . S
C115 C116 1.439 . S
C115 H150 0.950 . S
C116 N112 1.383 . S
C116 C115 1.439 . S
C116 C145 1.392 . S
N117 Co111 2.008 . S
N117 C118 1.376 . S
N117 C121 1.374 . S
C118 N117 1.376 . S
C118 C119 1.444 1_655 S
C118 C145 1.389 . S
C119 C118 1.444 1_455 S
C119 C120 1.340 1_455 S
C119 H151 0.951 . S
C120 C119 1.340 1_655 S
C120 C121 1.439 . S
C120 H152 0.950 1_655 S
C121 N117 1.374 . S
C121 C120 1.439 . S
C121 C146 1.395 . S
N122 Co111 1.995 . S
N122 C123 1.376 . S
N122 C126 1.383 . S
C123 N122 1.376 . S
C123 C124 1.446 . S
C123 C146 1.391 . S
C124 C123 1.446 . S
C124 C125 1.339 . S
C124 H153 0.949 . S
C125 C124 1.339 . S
C125 C126 1.439 . S
C125 H154 0.950 . S
C126 N122 1.383 . S
C126 C125 1.439 . S
C126 C144 1.392 . S
N127 Co111 2.282 . S
N127 C130 1.332 . S
N127 C132 1.332 . S
C128 C129 1.386 . S
C128 C131 1.388 . S
C129 C128 1.386 . S
C129 C130 1.382 . S
C129 H155 0.950 . S
C130 N127 1.332 . S
C130 C129 1.382 . S
C130 H141 0.952 . S
C131 C128 1.388 . S
C131 C132 1.382 . S
C131 H156 0.950 . S
C132 N127 1.332 . S
C132 C131 1.382 . S
C132 H142 0.948 . S
N133 Co111 2.282 . S
N133 C137 1.332 . S
N133 C138 1.332 . S
C134 C135 1.388 . S
C134 C138 1.382 . S
C134 H157 0.950 . S
C135 C134 1.388 . S
C135 C136 1.386 . S
C136 C135 1.386 . S
C136 C137 1.382 . S
C136 H158 0.950 . S
C137 N133 1.332 . S
C137 C136 1.382 . S
C137 H139 0.952 . S
C138 N133 1.332 . S
C138 C134 1.382 . S
C138 H140 0.948 . S
H139 C137 0.952 . S
H140 C138 0.948 . S
H141 C130 0.952 . S
H142 C132 0.948 . S
C143 C109 1.395 . S
C143 C113 1.391 . S
C144 C106 1.389 . S
C144 C126 1.392 . S
C145 C116 1.392 . S
C145 C118 1.389 . S
C146 C121 1.395 . S
C146 C123 1.391 . S
H147 C107 0.951 . S
H148 C108 0.950 . S
H149 C114 0.949 . S
H150 C115 0.950 . S
H151 C119 0.951 . S
H152 C120 0.950 1_455 S
H153 C124 0.949 . S
H154 C125 0.950 . S
H155 C129 0.950 . S
H156 C131 0.950 . S
H157 C134 0.950 . S
H158 C136 0.950 . S
C159 C160 1.444 1_545 S
C159 N163 1.376 . S
C159 C197 1.389 . S
C160 C159 1.444 1_565 S
C160 C161 1.340 1_565 S
C160 H200 0.951 . S
C161 C160 1.340 1_545 S
C161 C162 1.439 . S
C161 H201 0.950 1_545 S
C162 C161 1.439 . S
C162 N163 1.374 . S
C162 C196 1.395 . S
N163 C159 1.376 . S
N163 C162 1.374 . S
N163 Co164 2.008 . S
Co164 N163 2.008 . S
Co164 N165 1.995 . S
Co164 N170 2.008 . S
Co164 N175 1.995 . S
Co164 N180 2.282 . S
Co164 N186 2.282 . S
N165 Co164 1.995 . S
N165 C166 1.376 . S
N165 C169 1.383 . S
C166 N165 1.376 . S
C166 C167 1.446 . S
C166 C196 1.391 . S
C167 C166 1.446 . S
C167 C168 1.339 . S
C167 H202 0.949 . S
C168 C167 1.339 . S
C168 C169 1.439 . S
C168 H203 0.950 . S
C169 N165 1.383 . S
C169 C168 1.439 . S
C169 C198 1.392 . S
N170 Co164 2.008 . S
N170 C171 1.376 . S
N170 C174 1.374 . S
C171 N170 1.376 . S
C171 C172 1.443 . S
C171 C198 1.389 . S
C172 C171 1.443 . S
C172 C173 1.340 . S
C172 H204 0.951 . S
C173 C172 1.340 . S
C173 C174 1.439 . S
C173 H205 0.950 . S
C174 N170 1.374 . S
C174 C173 1.439 . S
C174 C199 1.395 . S
N175 Co164 1.995 . S
N175 C176 1.376 . S
N175 C179 1.383 . S
C176 N175 1.376 . S
C176 C177 1.446 . S
C176 C199 1.391 . S
C177 C176 1.446 . S
C177 C178 1.339 . S
C177 H206 0.949 . S
C178 C177 1.339 . S
C178 C179 1.439 . S
C178 H207 0.950 . S
C179 N175 1.383 . S
C179 C178 1.439 . S
C179 C197 1.392 . S
N180 Co164 2.282 . S
N180 C183 1.332 . S
N180 C185 1.332 . S
C181 C182 1.386 . S
C181 C184 1.388 . S
C182 C181 1.386 . S
C182 C183 1.382 . S
C182 H208 0.950 . S
C183 N180 1.332 . S
C183 C182 1.382 . S
C183 H194 0.952 . S
C184 C181 1.388 . S
C184 C185 1.382 . S
C184 H209 0.950 . S
C185 N180 1.332 . S
C185 C184 1.382 . S
C185 H195 0.948 . S
N186 Co164 2.282 . S
N186 C190 1.332 . S
N186 C191 1.332 . S
C187 C188 1.388 . S
C187 C191 1.382 . S
C187 H210 0.950 . S
C188 C187 1.388 . S
C188 C189 1.386 . S
C189 C188 1.386 . S
C189 C190 1.382 . S
C189 H211 0.950 . S
C190 N186 1.332 . S
C190 C189 1.382 . S
C190 H192 0.952 . S
C191 N186 1.332 . S
C191 C187 1.382 . S
C191 H193 0.948 . S
H192 C190 0.952 . S
H193 C191 0.948 . S
H194 C183 0.952 . S
H195 C185 0.948 . S
C196 C162 1.395 . S
C196 C166 1.391 . S
C197 C159 1.389 . S
C197 C179 1.392 . S
C198 C169 1.392 . S
C198 C171 1.389 . S
C199 C174 1.395 . S
C199 C176 1.391 . S
H200 C160 0.951 . S
H201 C161 0.950 1_565 S
H202 C167 0.949 . S
H203 C168 0.950 . S
H204 C172 0.951 . S
H205 C173 0.950 . S
H206 C177 0.949 . S
H207 C178 0.950 . S
H208 C182 0.950 . S
H209 C184 0.950 . S
H210 C187 0.950 . S
H211 C189 0.950 . S
C212 C213 1.443 . S
C212 N216 1.376 . S
C212 C250 1.389 . S
C213 C212 1.443 . S
C213 C214 1.340 . S
C213 H253 0.951 . S
C214 C213 1.340 . S
C214 C215 1.439 . S
C214 H254 0.950 . S
C215 C214 1.439 . S
C215 N216 1.374 . S
C215 C249 1.395 . S
N216 C212 1.376 . S
N216 C215 1.374 . S
N216 Co217 2.008 . S
Co217 N216 2.008 . S
Co217 N218 1.995 . S
Co217 N223 2.008 . S
Co217 N228 1.995 . S
Co217 N233 2.282 . S
Co217 N239 2.282 . S
N218 Co217 1.995 . S
N218 C219 1.376 . S
N218 C222 1.383 . S
C219 N218 1.376 . S
C219 C220 1.446 . S
C219 C249 1.391 . S
C220 C219 1.446 . S
C220 C221 1.339 . S
C220 H255 0.949 . S
C221 C220 1.339 . S
C221 C222 1.439 . S
C221 H256 0.950 . S
C222 N218 1.383 . S
C222 C221 1.439 . S
C222 C251 1.392 . S
N223 Co217 2.008 . S
N223 C224 1.376 . S
N223 C227 1.374 . S
C224 N223 1.376 . S
C224 C225 1.444 1_455 S
C224 C251 1.389 . S
C225 C224 1.444 1_655 S
C225 C226 1.340 1_655 S
C225 H257 0.951 . S
C226 C225 1.340 1_455 S
C226 C227 1.439 . S
C226 H258 0.950 1_455 S
C227 N223 1.374 . S
C227 C226 1.439 . S
C227 C252 1.395 . S
N228 Co217 1.995 . S
N228 C229 1.376 . S
N228 C232 1.383 . S
C229 N228 1.376 . S
C229 C230 1.446 . S
C229 C252 1.391 . S
C230 C229 1.446 . S
C230 C231 1.339 . S
C230 H259 0.949 . S
C231 C230 1.339 . S
C231 C232 1.439 . S
C231 H260 0.950 . S
C232 N228 1.383 . S
C232 C231 1.439 . S
C232 C250 1.392 . S
N233 Co217 2.282 . S
N233 C236 1.332 . S
N233 C238 1.332 . S
C234 C235 1.386 . S
C234 C237 1.388 . S
C235 C234 1.386 . S
C235 C236 1.382 . S
C235 H261 0.950 . S
C236 N233 1.332 . S
C236 C235 1.382 . S
C236 H247 0.952 . S
C237 C234 1.388 . S
C237 C238 1.382 . S
C237 H262 0.950 . S
C238 N233 1.332 . S
C238 C237 1.382 . S
C238 H248 0.948 . S
N239 Co217 2.282 . S
N239 C243 1.332 . S
N239 C244 1.332 . S
C240 C241 1.388 . S
C240 C244 1.382 . S
C240 H263 0.950 . S
C241 C240 1.388 . S
C241 C242 1.386 . S
C242 C241 1.386 . S
C242 C243 1.382 . S
C242 H264 0.950 . S
C243 N239 1.332 . S
C243 C242 1.382 . S
C243 H245 0.952 . S
C244 N239 1.332 . S
C244 C240 1.382 . S
C244 H246 0.948 . S
H245 C243 0.952 . S
H246 C244 0.948 . S
H247 C236 0.952 . S
H248 C238 0.948 . S
C249 C215 1.395 . S
C249 C219 1.391 . S
C250 C212 1.389 . S
C250 C232 1.392 . S
C251 C222 1.392 . S
C251 C224 1.389 . S
C252 C227 1.395 . S
C252 C229 1.391 . S
H253 C213 0.951 . S
H254 C214 0.950 . S
H255 C220 0.949 . S
H256 C221 0.950 . S
H257 C225 0.951 . S
H258 C226 0.950 1_655 S
H259 C230 0.949 . S
H260 C231 0.950 . S
H261 C235 0.950 . S
H262 C237 0.950 . S
H263 C240 0.950 . S
H264 C242 0.950 . S
C265 C266 1.444 1_565 S
C265 N269 1.376 . S
C265 C303 1.389 . S
C266 C265 1.444 1_545 S
C266 C267 1.340 1_545 S
C266 H306 0.951 . S
C267 C266 1.340 1_565 S
C267 C268 1.439 . S
C267 H307 0.950 1_565 S
C268 C267 1.439 . S
C268 N269 1.374 . S
C268 C302 1.395 . S
N269 C265 1.376 . S
N269 C268 1.374 . S
N269 Co270 2.008 . S
Co270 N269 2.008 . S
Co270 N271 1.995 . S
Co270 N276 2.008 . S
Co270 N281 1.995 . S
Co270 N286 2.282 . S
Co270 N292 2.282 . S
N271 Co270 1.995 . S
N271 C272 1.376 . S
N271 C275 1.383 . S
C272 N271 1.376 . S
C272 C273 1.446 . S
C272 C302 1.391 . S
C273 C272 1.446 . S
C273 C274 1.339 . S
C273 H308 0.949 . S
C274 C273 1.339 . S
C274 C275 1.439 . S
C274 H309 0.950 . S
C275 N271 1.383 . S
C275 C274 1.439 . S
C275 C304 1.392 . S
N276 Co270 2.008 . S
N276 C277 1.376 . S
N276 C280 1.374 . S
C277 N276 1.376 . S
C277 C278 1.443 . S
C277 C304 1.389 . S
C278 C277 1.443 . S
C278 C279 1.340 . S
C278 H310 0.951 . S
C279 C278 1.340 . S
C279 C280 1.439 . S
C279 H311 0.950 . S
C280 N276 1.374 . S
C280 C279 1.439 . S
C280 C305 1.395 . S
N281 Co270 1.995 . S
N281 C282 1.376 . S
N281 C285 1.383 . S
C282 N281 1.376 . S
C282 C283 1.446 . S
C282 C305 1.391 . S
C283 C282 1.446 . S
C283 C284 1.339 . S
C283 H312 0.949 . S
C284 C283 1.339 . S
C284 C285 1.439 . S
C284 H313 0.950 . S
C285 N281 1.383 . S
C285 C284 1.439 . S
C285 C303 1.392 . S
N286 Co270 2.282 . S
N286 C289 1.332 . S
N286 C291 1.332 . S
C287 C288 1.386 . S
C287 C290 1.388 . S
C288 C287 1.386 . S
C288 C289 1.382 . S
C288 H314 0.950 . S
C289 N286 1.332 . S
C289 C288 1.382 . S
C289 H300 0.952 . S
C290 C287 1.388 . S
C290 C291 1.382 . S
C290 H315 0.950 . S
C291 N286 1.332 . S
C291 C290 1.382 . S
C291 H301 0.948 . S
N292 Co270 2.282 . S
N292 C296 1.332 . S
N292 C297 1.332 . S
C293 C294 1.388 . S
C293 C297 1.382 . S
C293 H316 0.950 . S
C294 C293 1.388 . S
C294 C295 1.386 . S
C295 C294 1.386 . S
C295 C296 1.382 . S
C295 H317 0.950 . S
C296 N292 1.332 . S
C296 C295 1.382 . S
C296 H298 0.952 . S
C297 N292 1.332 . S
C297 C293 1.382 . S
C297 H299 0.948 . S
H298 C296 0.952 . S
H299 C297 0.948 . S
H300 C289 0.952 . S
H301 C291 0.948 . S
C302 C268 1.395 . S
C302 C272 1.391 . S
C303 C265 1.389 . S
C303 C285 1.392 . S
C304 C275 1.392 . S
C304 C277 1.389 . S
C305 C280 1.395 . S
C305 C282 1.391 . S
H306 C266 0.951 . S
H307 C267 0.950 1_545 S
H308 C273 0.949 . S
H309 C274 0.950 . S
H310 C278 0.951 . S
H311 C279 0.950 . S
H312 C283 0.949 . S
H313 C284 0.950 . S
H314 C288 0.950 . S
H315 C290 0.950 . S
H316 C293 0.950 . S
H317 C295 0.950 . S
C318 C319 1.443 . S
C318 N322 1.376 . S
C318 C356 1.389 . S
C319 C318 1.443 . S
C319 C320 1.340 . S
C319 H359 0.951 . S
C320 C319 1.340 . S
C320 C321 1.439 . S
C320 H360 0.950 . S
C321 C320 1.439 . S
C321 N322 1.374 . S
C321 C355 1.395 . S
N322 C318 1.376 . S
N322 C321 1.374 . S
N322 Co323 2.008 . S
Co323 N322 2.008 . S
Co323 N324 1.995 . S
Co323 N329 2.008 . S
Co323 N334 1.995 . S
Co323 N339 2.282 . S
Co323 N345 2.282 . S
N324 Co323 1.995 . S
N324 C325 1.376 . S
N324 C328 1.383 . S
C325 N324 1.376 . S
C325 C326 1.446 . S
C325 C355 1.391 . S
C326 C325 1.446 . S
C326 C327 1.339 . S
C326 H361 0.949 . S
C327 C326 1.339 . S
C327 C328 1.439 . S
C327 H362 0.950 . S
C328 N324 1.383 . S
C328 C327 1.439 . S
C328 C357 1.392 . S
N329 Co323 2.008 . S
N329 C330 1.376 . S
N329 C333 1.374 . S
C330 N329 1.376 . S
C330 C331 1.444 1_655 S
C330 C357 1.389 . S
C331 C330 1.444 1_455 S
C331 C332 1.340 1_455 S
C331 H363 0.951 . S
C332 C331 1.340 1_655 S
C332 C333 1.439 . S
C332 H364 0.950 1_655 S
C333 N329 1.374 . S
C333 C332 1.439 . S
C333 C358 1.395 . S
N334 Co323 1.995 . S
N334 C335 1.376 . S
N334 C338 1.383 . S
C335 N334 1.376 . S
C335 C336 1.446 . S
C335 C358 1.391 . S
C336 C335 1.446 . S
C336 C337 1.339 . S
C336 H365 0.949 . S
C337 C336 1.339 . S
C337 C338 1.439 . S
C337 H366 0.950 . S
C338 N334 1.383 . S
C338 C337 1.439 . S
C338 C356 1.392 . S
N339 Co323 2.282 . S
N339 C342 1.332 . S
N339 C344 1.332 . S
C340 C341 1.386 . S
C340 C343 1.388 . S
C341 C340 1.386 . S
C341 C342 1.382 . S
C341 H367 0.950 . S
C342 N339 1.332 . S
C342 C341 1.382 . S
C342 H353 0.952 . S
C343 C340 1.388 . S
C343 C344 1.382 . S
C343 H368 0.950 . S
C344 N339 1.332 . S
C344 C343 1.382 . S
C344 H354 0.948 . S
N345 Co323 2.282 . S
N345 C349 1.332 . S
N345 C350 1.332 . S
C346 C347 1.388 . S
C346 C350 1.382 . S
C346 H369 0.950 . S
C347 C346 1.388 . S
C347 C348 1.386 . S
C348 C347 1.386 . S
C348 C349 1.382 . S
C348 H370 0.950 . S
C349 N345 1.332 . S
C349 C348 1.382 . S
C349 H351 0.952 . S
C350 N345 1.332 . S
C350 C346 1.382 . S
C350 H352 0.948 . S
H351 C349 0.952 . S
H352 C350 0.948 . S
H353 C342 0.952 . S
H354 C344 0.948 . S
C355 C321 1.395 . S
C355 C325 1.391 . S
C356 C318 1.389 . S
C356 C338 1.392 . S
C357 C328 1.392 . S
C357 C330 1.389 . S
C358 C333 1.395 . S
C358 C335 1.391 . S
H359 C319 0.951 . S
H360 C320 0.950 . S
H361 C326 0.949 . S
H362 C327 0.950 . S
H363 C331 0.951 . S
H364 C332 0.950 1_455 S
H365 C336 0.949 . S
H366 C337 0.950 . S
H367 C341 0.950 . S
H368 C343 0.950 . S
H369 C346 0.950 . S
H370 C348 0.950 . S
C371 C372 1.444 1_545 S
C371 N375 1.376 . S
C371 C409 1.389 . S
C372 C371 1.444 1_565 S
C372 C373 1.340 1_565 S
C372 H412 0.951 . S
C373 C372 1.340 1_545 S
C373 C374 1.439 . S
C373 H413 0.950 1_545 S
C374 C373 1.439 . S
C374 N375 1.374 . S
C374 C408 1.395 . S
N375 C371 1.376 . S
N375 C374 1.374 . S
N375 Co376 2.008 . S
Co376 N375 2.008 . S
Co376 N377 1.995 . S
Co376 N382 2.008 . S
Co376 N387 1.995 . S
Co376 N392 2.282 . S
Co376 N398 2.282 . S
N377 Co376 1.995 . S
N377 C378 1.376 . S
N377 C381 1.383 . S
C378 N377 1.376 . S
C378 C379 1.446 . S
C378 C408 1.391 . S
C379 C378 1.446 . S
C379 C380 1.339 . S
C379 H414 0.949 . S
C380 C379 1.339 . S
C380 C381 1.439 . S
C380 H415 0.950 . S
C381 N377 1.383 . S
C381 C380 1.439 . S
C381 C410 1.392 . S
N382 Co376 2.008 . S
N382 C383 1.376 . S
N382 C386 1.374 . S
C383 N382 1.376 . S
C383 C384 1.443 . S
C383 C410 1.389 . S
C384 C383 1.443 . S
C384 C385 1.340 . S
C384 H416 0.951 . S
C385 C384 1.340 . S
C385 C386 1.439 . S
C385 H417 0.950 . S
C386 N382 1.374 . S
C386 C385 1.439 . S
C386 C411 1.395 . S
N387 Co376 1.995 . S
N387 C388 1.376 . S
N387 C391 1.383 . S
C388 N387 1.376 . S
C388 C389 1.446 . S
C388 C411 1.391 . S
C389 C388 1.446 . S
C389 C390 1.339 . S
C389 H418 0.949 . S
C390 C389 1.339 . S
C390 C391 1.439 . S
C390 H419 0.950 . S
C391 N387 1.383 . S
C391 C390 1.439 . S
C391 C409 1.392 . S
N392 Co376 2.282 . S
N392 C395 1.332 . S
N392 C397 1.332 . S
C393 C394 1.386 . S
C393 C396 1.388 . S
C394 C393 1.386 . S
C394 C395 1.382 . S
C394 H420 0.950 . S
C395 N392 1.332 . S
C395 C394 1.382 . S
C395 H406 0.952 . S
C396 C393 1.388 . S
C396 C397 1.382 . S
C396 H421 0.950 . S
C397 N392 1.332 . S
C397 C396 1.382 . S
C397 H407 0.948 . S
N398 Co376 2.282 . S
N398 C402 1.332 . S
N398 C403 1.332 . S
C399 C400 1.388 . S
C399 C403 1.382 . S
C399 H422 0.950 . S
C400 C399 1.388 . S
C400 C401 1.386 . S
C401 C400 1.386 . S
C401 C402 1.382 . S
C401 H423 0.950 . S
C402 N398 1.332 . S
C402 C401 1.382 . S
C402 H404 0.952 . S
C403 N398 1.332 . S
C403 C399 1.382 . S
C403 H405 0.948 . S
H404 C402 0.952 . S
H405 C403 0.948 . S
H406 C395 0.952 . S
H407 C397 0.948 . S
C408 C374 1.395 . S
C408 C378 1.391 . S
C409 C371 1.389 . S
C409 C391 1.392 . S
C410 C381 1.392 . S
C410 C383 1.389 . S
C411 C386 1.395 . S
C411 C388 1.391 . S
H412 C372 0.951 . S
H413 C373 0.950 1_565 S
H414 C379 0.949 . S
H415 C380 0.950 . S
H416 C384 0.951 . S
H417 C385 0.950 . S
H418 C389 0.949 . S
H419 C390 0.950 . S
H420 C394 0.950 . S
H421 C396 0.950 . S
H422 C399 0.950 . S
H423 C401 0.950 . S
C424 C425 1.443 . S
C424 N428 1.376 . S
C424 C462 1.389 . S
C425 C424 1.443 . S
C425 C426 1.340 . S
C425 H465 0.951 . S
C426 C425 1.340 . S
C426 C427 1.439 . S
C426 H466 0.950 . S
C427 C426 1.439 . S
C427 N428 1.374 . S
C427 C461 1.395 . S
N428 C424 1.376 . S
N428 C427 1.374 . S
N428 Co429 2.008 . S
Co429 N428 2.008 . S
Co429 N430 1.995 . S
Co429 N435 2.008 . S
Co429 N440 1.995 . S
Co429 N445 2.282 . S
Co429 N451 2.282 . S
N430 Co429 1.995 . S
N430 C431 1.376 . S
N430 C434 1.383 . S
C431 N430 1.376 . S
C431 C432 1.446 . S
C431 C461 1.391 . S
C432 C431 1.446 . S
C432 C433 1.339 . S
C432 H467 0.949 . S
C433 C432 1.339 . S
C433 C434 1.439 . S
C433 H468 0.950 . S
C434 N430 1.383 . S
C434 C433 1.439 . S
C434 C463 1.392 . S
N435 Co429 2.008 . S
N435 C436 1.376 . S
N435 C439 1.374 . S
C436 N435 1.376 . S
C436 C437 1.443 . S
C436 C463 1.389 . S
C437 C436 1.443 . S
C437 C438 1.340 . S
C437 H469 0.951 . S
C438 C437 1.340 . S
C438 C439 1.439 . S
C438 H470 0.950 . S
C439 N435 1.374 . S
C439 C438 1.439 . S
C439 C464 1.395 . S
N440 Co429 1.995 . S
N440 C441 1.376 . S
N440 C444 1.383 . S
C441 N440 1.376 . S
C441 C442 1.446 . S
C441 C464 1.391 . S
C442 C441 1.446 . S
C442 C443 1.339 . S
C442 H471 0.949 . S
C443 C442 1.339 . S
C443 C444 1.439 . S
C443 H472 0.950 . S
C444 N440 1.383 . S
C444 C443 1.439 . S
C444 C462 1.392 . S
N445 Co429 2.282 . S
N445 C448 1.332 . S
N445 C450 1.332 . S
C446 C447 1.386 . S
C446 C449 1.388 . S
C447 C446 1.386 . S
C447 C448 1.382 . S
C447 H473 0.950 . S
C448 N445 1.332 . S
C448 C447 1.382 . S
C448 H459 0.952 . S
C449 C446 1.388 . S
C449 C450 1.382 . S
C449 H474 0.950 . S
C450 N445 1.332 . S
C450 C449 1.382 . S
C450 H460 0.948 . S
N451 Co429 2.282 . S
N451 C455 1.332 . S
N451 C456 1.332 . S
C452 C453 1.388 . S
C452 C456 1.382 . S
C452 H475 0.950 . S
C453 C452 1.388 . S
C453 C454 1.386 . S
C454 C453 1.386 . S
C454 C455 1.382 . S
C454 H476 0.950 . S
C455 N451 1.332 . S
C455 C454 1.382 . S
C455 H457 0.952 . S
C456 N451 1.332 . S
C456 C452 1.382 . S
C456 H458 0.948 . S
H457 C455 0.952 . S
H458 C456 0.948 . S
H459 C448 0.952 . S
H460 C450 0.948 . S
C461 C427 1.395 . S
C461 C431 1.391 . S
C462 C424 1.389 . S
C462 C444 1.392 . S
C463 C434 1.392 . S
C463 C436 1.389 . S
C464 C439 1.395 . S
C464 C441 1.391 . S
H465 C425 0.951 . S
H466 C426 0.950 . S
H467 C432 0.949 . S
H468 C433 0.950 . S
H469 C437 0.951 . S
H470 C438 0.950 . S
H471 C442 0.949 . S
H472 C443 0.950 . S
H473 C447 0.950 . S
H474 C449 0.950 . S
H475 C452 0.950 . S
H476 C454 0.950 . S
C477 C478 1.443 . S
C477 N481 1.376 . S
C477 C515 1.389 . S
C478 C477 1.443 . S
C478 C479 1.340 . S
C478 H518 0.951 . S
C479 C478 1.340 . S
C479 C480 1.439 . S
C479 H519 0.950 . S
C480 C479 1.439 . S
C480 N481 1.374 . S
C480 C514 1.395 . S
N481 C477 1.376 . S
N481 C480 1.374 . S
N481 Co482 2.008 . S
Co482 N481 2.008 . S
Co482 N483 1.995 . S
Co482 N488 2.008 . S
Co482 N493 1.995 . S
Co482 N498 2.282 . S
Co482 N504 2.282 . S
N483 Co482 1.995 . S
N483 C484 1.376 . S
N483 C487 1.383 . S
C484 N483 1.376 . S
C484 C485 1.446 . S
C484 C514 1.391 . S
C485 C484 1.446 . S
C485 C486 1.339 . S
C485 H520 0.949 . S
C486 C485 1.339 . S
C486 C487 1.439 . S
C486 H521 0.950 . S
C487 N483 1.383 . S
C487 C486 1.439 . S
C487 C516 1.392 . S
N488 Co482 2.008 . S
N488 C489 1.376 . S
N488 C492 1.374 . S
C489 N488 1.376 . S
C489 C490 1.443 . S
C489 C516 1.389 . S
C490 C489 1.443 . S
C490 C491 1.340 . S
C490 H522 0.951 . S
C491 C490 1.340 . S
C491 C492 1.439 . S
C491 H523 0.950 . S
C492 N488 1.374 . S
C492 C491 1.439 . S
C492 C517 1.395 . S
N493 Co482 1.995 . S
N493 C494 1.376 . S
N493 C497 1.383 . S
C494 N493 1.376 . S
C494 C495 1.446 . S
C494 C517 1.391 . S
C495 C494 1.446 . S
C495 C496 1.339 . S
C495 H524 0.949 . S
C496 C495 1.339 . S
C496 C497 1.439 . S
C496 H525 0.950 . S
C497 N493 1.383 . S
C497 C496 1.439 . S
C497 C515 1.392 . S
N498 Co482 2.282 . S
N498 C501 1.332 . S
N498 C503 1.332 . S
C499 C500 1.386 . S
C499 C502 1.388 . S
C500 C499 1.386 . S
C500 C501 1.382 . S
C500 H526 0.950 . S
C501 N498 1.332 . S
C501 C500 1.382 . S
C501 H512 0.952 . S
C502 C499 1.388 . S
C502 C503 1.382 . S
C502 H527 0.950 . S
C503 N498 1.332 . S
C503 C502 1.382 . S
C503 H513 0.948 . S
N504 Co482 2.282 . S
N504 C508 1.332 . S
N504 C509 1.332 . S
C505 C506 1.388 . S
C505 C509 1.382 . S
C505 H528 0.950 . S
C506 C505 1.388 . S
C506 C507 1.386 . S
C507 C506 1.386 . S
C507 C508 1.382 . S
C507 H529 0.950 . S
C508 N504 1.332 . S
C508 C507 1.382 . S
C508 H510 0.952 . S
C509 N504 1.332 . S
C509 C505 1.382 . S
C509 H511 0.948 . S
H510 C508 0.952 . S
H511 C509 0.948 . S
H512 C501 0.952 . S
H513 C503 0.948 . S
C514 C480 1.395 . S
C514 C484 1.391 . S
C515 C477 1.389 . S
C515 C497 1.392 . S
C516 C487 1.392 . S
C516 C489 1.389 . S
C517 C492 1.395 . S
C517 C494 1.391 . S
H518 C478 0.951 . S
H519 C479 0.950 . S
H520 C485 0.949 . S
H521 C486 0.950 . S
H522 C490 0.951 . S
H523 C491 0.950 . S
H524 C495 0.949 . S
H525 C496 0.950 . S
H526 C500 0.950 . S
H527 C502 0.950 . S
H528 C505 0.950 . S
H529 C507 0.950 . S
C530 C531 1.443 . S
C530 N534 1.376 . S
C530 C568 1.389 . S
C531 C530 1.443 . S
C531 C532 1.340 . S
C531 H571 0.951 . S
C532 C531 1.340 . S
C532 C533 1.439 . S
C532 H572 0.950 . S
C533 C532 1.439 . S
C533 N534 1.374 . S
C533 C567 1.395 . S
N534 C530 1.376 . S
N534 C533 1.374 . S
N534 Co535 2.008 . S
Co535 N534 2.008 . S
Co535 N536 1.995 . S
Co535 N541 2.008 . S
Co535 N546 1.995 . S
Co535 N551 2.282 . S
Co535 N557 2.282 . S
N536 Co535 1.995 . S
N536 C537 1.376 . S
N536 C540 1.383 . S
C537 N536 1.376 . S
C537 C538 1.446 . S
C537 C567 1.391 . S
C538 C537 1.446 . S
C538 C539 1.339 . S
C538 H573 0.949 . S
C539 C538 1.339 . S
C539 C540 1.439 . S
C539 H574 0.950 . S
C540 N536 1.383 . S
C540 C539 1.439 . S
C540 C569 1.392 . S
N541 Co535 2.008 . S
N541 C542 1.376 . S
N541 C545 1.374 . S
C542 N541 1.376 . S
C542 C543 1.443 . S
C542 C569 1.389 . S
C543 C542 1.443 . S
C543 C544 1.340 . S
C543 H575 0.951 . S
C544 C543 1.340 . S
C544 C545 1.439 . S
C544 H576 0.950 . S
C545 N541 1.374 . S
C545 C544 1.439 . S
C545 C570 1.395 . S
N546 Co535 1.995 . S
N546 C547 1.376 . S
N546 C550 1.383 . S
C547 N546 1.376 . S
C547 C548 1.446 . S
C547 C570 1.391 . S
C548 C547 1.446 . S
C548 C549 1.339 . S
C548 H577 0.949 . S
C549 C548 1.339 . S
C549 C550 1.439 . S
C549 H578 0.950 . S
C550 N546 1.383 . S
C550 C549 1.439 . S
C550 C568 1.392 . S
N551 Co535 2.282 . S
N551 C554 1.332 . S
N551 C556 1.332 . S
C552 C553 1.386 . S
C552 C555 1.388 . S
C553 C552 1.386 . S
C553 C554 1.382 . S
C553 H579 0.950 . S
C554 N551 1.332 . S
C554 C553 1.382 . S
C554 H565 0.952 . S
C555 C552 1.388 . S
C555 C556 1.382 . S
C555 H580 0.950 . S
C556 N551 1.332 . S
C556 C555 1.382 . S
C556 H566 0.948 . S
N557 Co535 2.282 . S
N557 C561 1.332 . S
N557 C562 1.332 . S
C558 C559 1.388 . S
C558 C562 1.382 . S
C558 H581 0.950 . S
C559 C558 1.388 . S
C559 C560 1.386 . S
C560 C559 1.386 . S
C560 C561 1.382 . S
C560 H582 0.950 . S
C561 N557 1.332 . S
C561 C560 1.382 . S
C561 H563 0.952 . S
C562 N557 1.332 . S
C562 C558 1.382 . S
C562 H564 0.948 . S
H563 C561 0.952 . S
H564 C562 0.948 . S
H565 C554 0.952 . S
H566 C556 0.948 . S
C567 C533 1.395 . S
C567 C537 1.391 . S
C568 C530 1.389 . S
C568 C550 1.392 . S
C569 C540 1.392 . S
C569 C542 1.389 . S
C570 C545 1.395 . S
C570 C547 1.391 . S
H571 C531 0.951 . S
H572 C532 0.950 . S
H573 C538 0.949 . S
H574 C539 0.950 . S
H575 C543 0.951 . S
H576 C544 0.950 . S
H577 C548 0.949 . S
H578 C549 0.950 . S
H579 C553 0.950 . S
H580 C555 0.950 . S
H581 C558 0.950 . S
H582 C560 0.950 . S
C583 C584 1.443 . S
C583 N587 1.376 . S
C583 C621 1.389 . S
C584 C583 1.443 . S
C584 C585 1.340 . S
C584 H624 0.951 . S
C585 C584 1.340 . S
C585 C586 1.439 . S
C585 H625 0.950 . S
C586 C585 1.439 . S
C586 N587 1.374 . S
C586 C620 1.395 . S
N587 C583 1.376 . S
N587 C586 1.374 . S
N587 Co588 2.008 . S
Co588 N587 2.008 . S
Co588 N589 1.995 . S
Co588 N594 2.008 . S
Co588 N599 1.995 . S
Co588 N604 2.282 . S
Co588 N610 2.282 . S
N589 Co588 1.995 . S
N589 C590 1.376 . S
N589 C593 1.383 . S
C590 N589 1.376 . S
C590 C591 1.446 . S
C590 C620 1.391 . S
C591 C590 1.446 . S
C591 C592 1.339 . S
C591 H626 0.949 . S
C592 C591 1.339 . S
C592 C593 1.439 . S
C592 H627 0.950 . S
C593 N589 1.383 . S
C593 C592 1.439 . S
C593 C622 1.392 . S
N594 Co588 2.008 . S
N594 C595 1.376 . S
N594 C598 1.374 . S
C595 N594 1.376 . S
C595 C596 1.443 . S
C595 C622 1.389 . S
C596 C595 1.443 . S
C596 C597 1.340 . S
C596 H628 0.951 . S
C597 C596 1.340 . S
C597 C598 1.439 . S
C597 H629 0.950 . S
C598 N594 1.374 . S
C598 C597 1.439 . S
C598 C623 1.395 . S
N599 Co588 1.995 . S
N599 C600 1.376 . S
N599 C603 1.383 . S
C600 N599 1.376 . S
C600 C601 1.446 . S
C600 C623 1.391 . S
C601 C600 1.446 . S
C601 C602 1.339 . S
C601 H630 0.949 . S
C602 C601 1.339 . S
C602 C603 1.439 . S
C602 H631 0.950 . S
C603 N599 1.383 . S
C603 C602 1.439 . S
C603 C621 1.392 . S
N604 Co588 2.282 . S
N604 C607 1.332 . S
N604 C609 1.332 . S
C605 C606 1.386 . S
C605 C608 1.388 . S
C606 C605 1.386 . S
C606 C607 1.382 . S
C606 H632 0.950 . S
C607 N604 1.332 . S
C607 C606 1.382 . S
C607 H618 0.952 . S
C608 C605 1.388 . S
C608 C609 1.382 . S
C608 H633 0.950 . S
C609 N604 1.332 . S
C609 C608 1.382 . S
C609 H619 0.948 . S
N610 Co588 2.282 . S
N610 C614 1.332 . S
N610 C615 1.332 . S
C611 C612 1.388 . S
C611 C615 1.382 . S
C611 H634 0.950 . S
C612 C611 1.388 . S
C612 C613 1.386 . S
C613 C612 1.386 . S
C613 C614 1.382 . S
C613 H635 0.950 . S
C614 N610 1.332 . S
C614 C613 1.382 . S
C614 H616 0.952 . S
C615 N610 1.332 . S
C615 C611 1.382 . S
C615 H617 0.948 . S
H616 C614 0.952 . S
H617 C615 0.948 . S
H618 C607 0.952 . S
H619 C609 0.948 . S
C620 C586 1.395 . S
C620 C590 1.391 . S
C621 C583 1.389 . S
C621 C603 1.392 . S
C622 C593 1.392 . S
C622 C595 1.389 . S
C623 C598 1.395 . S
C623 C600 1.391 . S
H624 C584 0.951 . S
H625 C585 0.950 . S
H626 C591 0.949 . S
H627 C592 0.950 . S
H628 C596 0.951 . S
H629 C597 0.950 . S
H630 C601 0.949 . S
H631 C602 0.950 . S
H632 C606 0.950 . S
H633 C608 0.950 . S
H634 C611 0.950 . S
H635 C613 0.950 . S
C636 C637 1.443 . S
C636 N640 1.376 . S
C636 C674 1.389 . S
C637 C636 1.443 . S
C637 C638 1.340 . S
C637 H677 0.951 . S
C638 C637 1.340 . S
C638 C639 1.439 . S
C638 H678 0.950 . S
C639 C638 1.439 . S
C639 N640 1.374 . S
C639 C673 1.395 . S
N640 C636 1.376 . S
N640 C639 1.374 . S
N640 Co641 2.008 . S
Co641 N640 2.008 . S
Co641 N642 1.995 . S
Co641 N647 2.008 . S
Co641 N652 1.995 . S
Co641 N657 2.282 . S
Co641 N663 2.282 . S
N642 Co641 1.995 . S
N642 C643 1.376 . S
N642 C646 1.383 . S
C643 N642 1.376 . S
C643 C644 1.446 . S
C643 C673 1.391 . S
C644 C643 1.446 . S
C644 C645 1.339 . S
C644 H679 0.949 . S
C645 C644 1.339 . S
C645 C646 1.439 . S
C645 H680 0.950 . S
C646 N642 1.383 . S
C646 C645 1.439 . S
C646 C675 1.392 . S
N647 Co641 2.008 . S
N647 C648 1.376 . S
N647 C651 1.374 . S
C648 N647 1.376 . S
C648 C649 1.443 . S
C648 C675 1.389 . S
C649 C648 1.443 . S
C649 C650 1.340 . S
C649 H681 0.951 . S
C650 C649 1.340 . S
C650 C651 1.439 . S
C650 H682 0.950 . S
C651 N647 1.374 . S
C651 C650 1.439 . S
C651 C676 1.395 . S
N652 Co641 1.995 . S
N652 C653 1.376 . S
N652 C656 1.383 . S
C653 N652 1.376 . S
C653 C654 1.446 . S
C653 C676 1.391 . S
C654 C653 1.446 . S
C654 C655 1.339 . S
C654 H683 0.949 . S
C655 C654 1.339 . S
C655 C656 1.439 . S
C655 H684 0.950 . S
C656 N652 1.383 . S
C656 C655 1.439 . S
C656 C674 1.392 . S
N657 Co641 2.282 . S
N657 C660 1.332 . S
N657 C662 1.332 . S
C658 C659 1.386 . S
C658 C661 1.388 . S
C659 C658 1.386 . S
C659 C660 1.382 . S
C659 H685 0.950 . S
C660 N657 1.332 . S
C660 C659 1.382 . S
C660 H671 0.952 . S
C661 C658 1.388 . S
C661 C662 1.382 . S
C661 H686 0.950 . S
C662 N657 1.332 . S
C662 C661 1.382 . S
C662 H672 0.948 . S
N663 Co641 2.282 . S
N663 C667 1.332 . S
N663 C668 1.332 . S
C664 C665 1.388 . S
C664 C668 1.382 . S
C664 H687 0.950 . S
C665 C664 1.388 . S
C665 C666 1.386 . S
C666 C665 1.386 . S
C666 C667 1.382 . S
C666 H688 0.950 . S
C667 N663 1.332 . S
C667 C666 1.382 . S
C667 H669 0.952 . S
C668 N663 1.332 . S
C668 C664 1.382 . S
C668 H670 0.948 . S
H669 C667 0.952 . S
H670 C668 0.948 . S
H671 C660 0.952 . S
H672 C662 0.948 . S
C673 C639 1.395 . S
C673 C643 1.391 . S
C674 C636 1.389 . S
C674 C656 1.392 . S
C675 C646 1.392 . S
C675 C648 1.389 . S
C676 C651 1.395 . S
C676 C653 1.391 . S
H677 C637 0.951 . S
H678 C638 0.950 . S
H679 C644 0.949 . S
H680 C645 0.950 . S
H681 C649 0.951 . S
H682 C650 0.950 . S
H683 C654 0.949 . S
H684 C655 0.950 . S
H685 C659 0.950 . S
H686 C661 0.950 . S
H687 C664 0.950 . S
H688 C666 0.950 . S
C689 C690 1.443 . S
C689 N693 1.376 . S
C689 C727 1.389 . S
C690 C689 1.443 . S
C690 C691 1.340 . S
C690 H730 0.951 . S
C691 C690 1.340 . S
C691 C692 1.439 . S
C691 H731 0.950 . S
C692 C691 1.439 . S
C692 N693 1.374 . S
C692 C726 1.395 . S
N693 C689 1.376 . S
N693 C692 1.374 . S
N693 Co694 2.008 . S
Co694 N693 2.008 . S
Co694 N695 1.995 . S
Co694 N700 2.008 . S
Co694 N705 1.995 . S
Co694 N710 2.282 . S
Co694 N716 2.282 . S
N695 Co694 1.995 . S
N695 C696 1.376 . S
N695 C699 1.383 . S
C696 N695 1.376 . S
C696 C697 1.446 . S
C696 C726 1.391 . S
C697 C696 1.446 . S
C697 C698 1.339 . S
C697 H732 0.949 . S
C698 C697 1.339 . S
C698 C699 1.439 . S
C698 H733 0.950 . S
C699 N695 1.383 . S
C699 C698 1.439 . S
C699 C728 1.392 . S
N700 Co694 2.008 . S
N700 C701 1.376 . S
N700 C704 1.374 . S
C701 N700 1.376 . S
C701 C702 1.443 . S
C701 C728 1.389 . S
C702 C701 1.443 . S
C702 C703 1.340 . S
C702 H734 0.951 . S
C703 C702 1.340 . S
C703 C704 1.439 . S
C703 H735 0.950 . S
C704 N700 1.374 . S
C704 C703 1.439 . S
C704 C729 1.395 . S
N705 Co694 1.995 . S
N705 C706 1.376 . S
N705 C709 1.383 . S
C706 N705 1.376 . S
C706 C707 1.446 . S
C706 C729 1.391 . S
C707 C706 1.446 . S
C707 C708 1.339 . S
C707 H736 0.949 . S
C708 C707 1.339 . S
C708 C709 1.439 . S
C708 H737 0.950 . S
C709 N705 1.383 . S
C709 C708 1.439 . S
C709 C727 1.392 . S
N710 Co694 2.282 . S
N710 C713 1.332 . S
N710 C715 1.332 . S
C711 C712 1.386 . S
C711 C714 1.388 . S
C712 C711 1.386 . S
C712 C713 1.382 . S
C712 H738 0.950 . S
C713 N710 1.332 . S
C713 C712 1.382 . S
C713 H724 0.952 . S
C714 C711 1.388 . S
C714 C715 1.382 . S
C714 H739 0.950 . S
C715 N710 1.332 . S
C715 C714 1.382 . S
C715 H725 0.948 . S
N716 Co694 2.282 . S
N716 C720 1.332 . S
N716 C721 1.332 . S
C717 C718 1.388 . S
C717 C721 1.382 . S
C717 H740 0.950 . S
C718 C717 1.388 . S
C718 C719 1.386 . S
C719 C718 1.386 . S
C719 C720 1.382 . S
C719 H741 0.950 . S
C720 N716 1.332 . S
C720 C719 1.382 . S
C720 H722 0.952 . S
C721 N716 1.332 . S
C721 C717 1.382 . S
C721 H723 0.948 . S
H722 C720 0.952 . S
H723 C721 0.948 . S
H724 C713 0.952 . S
H725 C715 0.948 . S
C726 C692 1.395 . S
C726 C696 1.391 . S
C727 C689 1.389 . S
C727 C709 1.392 . S
C728 C699 1.392 . S
C728 C701 1.389 . S
C729 C704 1.395 . S
C729 C706 1.391 . S
H730 C690 0.951 . S
H731 C691 0.950 . S
H732 C697 0.949 . S
H733 C698 0.950 . S
H734 C702 0.951 . S
H735 C703 0.950 . S
H736 C707 0.949 . S
H737 C708 0.950 . S
H738 C712 0.950 . S
H739 C714 0.950 . S
H740 C717 0.950 . S
H741 C719 0.950 . S
C742 C743 1.443 . S
C742 N746 1.376 . S
C742 C780 1.389 . S
C743 C742 1.443 . S
C743 C744 1.340 . S
C743 H783 0.951 . S
C744 C743 1.340 . S
C744 C745 1.439 . S
C744 H784 0.950 . S
C745 C744 1.439 . S
C745 N746 1.374 . S
C745 C779 1.395 . S
N746 C742 1.376 . S
N746 C745 1.374 . S
N746 Co747 2.008 . S
Co747 N746 2.008 . S
Co747 N748 1.995 . S
Co747 N753 2.008 . S
Co747 N758 1.995 . S
Co747 N763 2.282 . S
Co747 N769 2.282 . S
N748 Co747 1.995 . S
N748 C749 1.376 . S
N748 C752 1.383 . S
C749 N748 1.376 . S
C749 C750 1.446 . S
C749 C779 1.391 . S
C750 C749 1.446 . S
C750 C751 1.339 . S
C750 H785 0.949 . S
C751 C750 1.339 . S
C751 C752 1.439 . S
C751 H786 0.950 . S
C752 N748 1.383 . S
C752 C751 1.439 . S
C752 C781 1.392 . S
N753 Co747 2.008 . S
N753 C754 1.376 . S
N753 C757 1.374 . S
C754 N753 1.376 . S
C754 C755 1.443 . S
C754 C781 1.389 . S
C755 C754 1.443 . S
C755 C756 1.340 . S
C755 H787 0.951 . S
C756 C755 1.340 . S
C756 C757 1.439 . S
C756 H788 0.950 . S
C757 N753 1.374 . S
C757 C756 1.439 . S
C757 C782 1.395 . S
N758 Co747 1.995 . S
N758 C759 1.376 . S
N758 C762 1.383 . S
C759 N758 1.376 . S
C759 C760 1.446 . S
C759 C782 1.391 . S
C760 C759 1.446 . S
C760 C761 1.339 . S
C760 H789 0.949 . S
C761 C760 1.339 . S
C761 C762 1.439 . S
C761 H790 0.950 . S
C762 N758 1.383 . S
C762 C761 1.439 . S
C762 C780 1.392 . S
N763 Co747 2.282 . S
N763 C766 1.332 . S
N763 C768 1.332 . S
C764 C765 1.386 . S
C764 C767 1.388 . S
C765 C764 1.386 . S
C765 C766 1.382 . S
C765 H791 0.950 . S
C766 N763 1.332 . S
C766 C765 1.382 . S
C766 H777 0.952 . S
C767 C764 1.388 . S
C767 C768 1.382 . S
C767 H792 0.950 . S
C768 N763 1.332 . S
C768 C767 1.382 . S
C768 H778 0.948 . S
N769 Co747 2.282 . S
N769 C773 1.332 . S
N769 C774 1.332 . S
C770 C771 1.388 . S
C770 C774 1.382 . S
C770 H793 0.950 . S
C771 C770 1.388 . S
C771 C772 1.386 . S
C772 C771 1.386 . S
C772 C773 1.382 . S
C772 H794 0.950 . S
C773 N769 1.332 . S
C773 C772 1.382 . S
C773 H775 0.952 . S
C774 N769 1.332 . S
C774 C770 1.382 . S
C774 H776 0.948 . S
H775 C773 0.952 . S
H776 C774 0.948 . S
H777 C766 0.952 . S
H778 C768 0.948 . S
C779 C745 1.395 . S
C779 C749 1.391 . S
C780 C742 1.389 . S
C780 C762 1.392 . S
C781 C752 1.392 . S
C781 C754 1.389 . S
C782 C757 1.395 . S
C782 C759 1.391 . S
H783 C743 0.951 . S
H784 C744 0.950 . S
H785 C750 0.949 . S
H786 C751 0.950 . S
H787 C755 0.951 . S
H788 C756 0.950 . S
H789 C760 0.949 . S
H790 C761 0.950 . S
H791 C765 0.950 . S
H792 C767 0.950 . S
H793 C770 0.950 . S
H794 C772 0.950 . S
C795 C796 1.443 . S
C795 N799 1.376 . S
C795 C833 1.389 . S
C796 C795 1.443 . S
C796 C797 1.340 . S
C796 H836 0.951 . S
C797 C796 1.340 . S
C797 C798 1.439 . S
C797 H837 0.950 . S
C798 C797 1.439 . S
C798 N799 1.374 . S
C798 C832 1.395 . S
N799 C795 1.376 . S
N799 C798 1.374 . S
N799 Co800 2.008 . S
Co800 N799 2.008 . S
Co800 N801 1.995 . S
Co800 N806 2.008 . S
Co800 N811 1.995 . S
Co800 N816 2.282 . S
Co800 N822 2.282 . S
N801 Co800 1.995 . S
N801 C802 1.376 . S
N801 C805 1.383 . S
C802 N801 1.376 . S
C802 C803 1.446 . S
C802 C832 1.391 . S
C803 C802 1.446 . S
C803 C804 1.339 . S
C803 H838 0.949 . S
C804 C803 1.339 . S
C804 C805 1.439 . S
C804 H839 0.950 . S
C805 N801 1.383 . S
C805 C804 1.439 . S
C805 C834 1.392 . S
N806 Co800 2.008 . S
N806 C807 1.376 . S
N806 C810 1.374 . S
C807 N806 1.376 . S
C807 C808 1.443 . S
C807 C834 1.389 . S
C808 C807 1.443 . S
C808 C809 1.340 . S
C808 H840 0.951 . S
C809 C808 1.340 . S
C809 C810 1.439 . S
C809 H841 0.950 . S
C810 N806 1.374 . S
C810 C809 1.439 . S
C810 C835 1.395 . S
N811 Co800 1.995 . S
N811 C812 1.376 . S
N811 C815 1.383 . S
C812 N811 1.376 . S
C812 C813 1.446 . S
C812 C835 1.391 . S
C813 C812 1.446 . S
C813 C814 1.339 . S
C813 H842 0.949 . S
C814 C813 1.339 . S
C814 C815 1.439 . S
C814 H843 0.950 . S
C815 N811 1.383 . S
C815 C814 1.439 . S
C815 C833 1.392 . S
N816 Co800 2.282 . S
N816 C819 1.332 . S
N816 C821 1.332 . S
C817 C818 1.386 . S
C817 C820 1.388 . S
C818 C817 1.386 . S
C818 C819 1.382 . S
C818 H844 0.950 . S
C819 N816 1.332 . S
C819 C818 1.382 . S
C819 H830 0.952 . S
C820 C817 1.388 . S
C820 C821 1.382 . S
C820 H845 0.950 . S
C821 N816 1.332 . S
C821 C820 1.382 . S
C821 H831 0.948 . S
N822 Co800 2.282 . S
N822 C826 1.332 . S
N822 C827 1.332 . S
C823 C824 1.388 . S
C823 C827 1.382 . S
C823 H846 0.950 . S
C824 C823 1.388 . S
C824 C825 1.386 . S
C825 C824 1.386 . S
C825 C826 1.382 . S
C825 H847 0.950 . S
C826 N822 1.332 . S
C826 C825 1.382 . S
C826 H828 0.952 . S
C827 N822 1.332 . S
C827 C823 1.382 . S
C827 H829 0.948 . S
H828 C826 0.952 . S
H829 C827 0.948 . S
H830 C819 0.952 . S
H831 C821 0.948 . S
C832 C798 1.395 . S
C832 C802 1.391 . S
C833 C795 1.389 . S
C833 C815 1.392 . S
C834 C805 1.392 . S
C834 C807 1.389 . S
C835 C810 1.395 . S
C835 C812 1.391 . S
H836 C796 0.951 . S
H837 C797 0.950 . S
H838 C803 0.949 . S
H839 C804 0.950 . S
H840 C808 0.951 . S
H841 C809 0.950 . S
H842 C813 0.949 . S
H843 C814 0.950 . S
H844 C818 0.950 . S
H845 C820 0.950 . S
H846 C823 0.950 . S
H847 C825 0.950 . S
C848 C849 1.349 . S
C848 C850 1.327 . S
C848 H873 0.950 . S
C849 C848 1.349 . S
C849 C865 1.349 . S
C850 C848 1.327 . S
C850 C869 1.429 . S
C850 H874 0.950 . S
C851 C868 1.574 . S
C851 C870 1.368 . S
C851 H875 0.949 . S
H852 C856 0.949 . S
C853 C854 1.349 . S
C853 C855 1.327 . S
C853 H876 0.950 . S
C854 C853 1.349 . S
C854 C866 1.349 . S
C855 C853 1.327 . S
C855 C871 1.429 . S
C855 H877 0.950 . S
C856 H852 0.949 . S
C856 C864 1.574 . S
C856 C872 1.368 . S
H857 C865 0.950 . S
H858 C863 0.950 . S
H859 C864 0.949 . S
H860 C866 0.950 . S
H861 C867 0.950 . S
H862 C868 0.949 . S
C863 H858 0.950 . S
C863 C865 1.327 . S
C863 C869 1.429 . S
C864 C856 1.574 . S
C864 H859 0.949 . S
C864 C870 1.368 . S
C865 C849 1.349 . S
C865 H857 0.950 . S
C865 C863 1.327 . S
C866 C854 1.349 . S
C866 H860 0.950 . S
C866 C867 1.327 . S
C867 H861 0.950 . S
C867 C866 1.327 . S
C867 C871 1.429 . S
C868 C851 1.574 . S
C868 H862 0.949 . S
C868 C872 1.368 . S
C869 C850 1.429 . S
C869 C863 1.429 . S
C869 C870 1.523 . S
C870 C851 1.368 . S
C870 C864 1.368 . S
C870 C869 1.523 . S
C871 C855 1.429 . S
C871 C867 1.429 . S
C871 C872 1.523 . S
C872 C856 1.368 . S
C872 C868 1.368 . S
C872 C871 1.523 . S
H873 C848 0.950 . S
H874 C850 0.950 . S
H875 C851 0.949 . S
H876 C853 0.950 . S
H877 C855 0.950 . S
C878 C879 1.349 . S
C878 C880 1.327 . S
C878 H903 0.950 . S
C879 C878 1.349 . S
C879 C895 1.349 . S
C880 C878 1.327 . S
C880 C899 1.429 . S
C880 H904 0.950 . S
C881 C898 1.574 . S
C881 C900 1.368 . S
C881 H905 0.949 . S
H882 C886 0.949 . S
C883 C884 1.349 . S
C883 C885 1.327 . S
C883 H906 0.950 . S
C884 C883 1.349 . S
C884 C896 1.349 . S
C885 C883 1.327 . S
C885 C901 1.429 . S
C885 H907 0.950 . S
C886 H882 0.949 . S
C886 C894 1.574 . S
C886 C902 1.368 . S
H887 C895 0.950 . S
H888 C893 0.950 . S
H889 C894 0.949 . S
H890 C896 0.950 . S
H891 C897 0.950 . S
H892 C898 0.949 . S
C893 H888 0.950 . S
C893 C895 1.327 . S
C893 C899 1.429 . S
C894 C886 1.574 . S
C894 H889 0.949 . S
C894 C900 1.368 . S
C895 C879 1.349 . S
C895 H887 0.950 . S
C895 C893 1.327 . S
C896 C884 1.349 . S
C896 H890 0.950 . S
C896 C897 1.327 . S
C897 H891 0.950 . S
C897 C896 1.327 . S
C897 C901 1.429 . S
C898 C881 1.574 . S
C898 H892 0.949 . S
C898 C902 1.368 . S
C899 C880 1.429 . S
C899 C893 1.429 . S
C899 C900 1.523 . S
C900 C881 1.368 . S
C900 C894 1.368 . S
C900 C899 1.523 . S
C901 C885 1.429 . S
C901 C897 1.429 . S
C901 C902 1.523 . S
C902 C886 1.368 . S
C902 C898 1.368 . S
C902 C901 1.523 . S
H903 C878 0.950 . S
H904 C880 0.950 . S
H905 C881 0.949 . S
H906 C883 0.950 . S
H907 C885 0.950 . S
C908 C909 1.349 . S
C908 C910 1.327 . S
C908 H933 0.950 . S
C909 C908 1.349 . S
C909 C925 1.349 . S
C910 C908 1.327 . S
C910 C929 1.429 . S
C910 H934 0.950 . S
C911 C928 1.574 . S
C911 C930 1.368 . S
C911 H935 0.949 . S
H912 C916 0.949 . S
C913 C914 1.349 . S
C913 C915 1.327 . S
C913 H936 0.950 . S
C914 C913 1.349 . S
C914 C926 1.349 . S
C915 C913 1.327 . S
C915 C931 1.429 . S
C915 H937 0.950 . S
C916 H912 0.949 . S
C916 C924 1.574 . S
C916 C932 1.368 . S
H917 C925 0.950 . S
H918 C923 0.950 . S
H919 C924 0.949 . S
H920 C926 0.950 . S
H921 C927 0.950 . S
H922 C928 0.949 . S
C923 H918 0.950 . S
C923 C925 1.327 . S
C923 C929 1.429 . S
C924 C916 1.574 . S
C924 H919 0.949 . S
C924 C930 1.368 . S
C925 C909 1.349 . S
C925 H917 0.950 . S
C925 C923 1.327 . S
C926 C914 1.349 . S
C926 H920 0.950 . S
C926 C927 1.327 . S
C927 H921 0.950 . S
C927 C926 1.327 . S
C927 C931 1.429 . S
C928 C911 1.574 . S
C928 H922 0.949 . S
C928 C932 1.368 . S
C929 C910 1.429 . S
C929 C923 1.429 . S
C929 C930 1.523 . S
C930 C911 1.368 . S
C930 C924 1.368 . S
C930 C929 1.523 . S
C931 C915 1.429 . S
C931 C927 1.429 . S
C931 C932 1.523 . S
C932 C916 1.368 . S
C932 C928 1.368 . S
C932 C931 1.523 . S
H933 C908 0.950 . S
H934 C910 0.950 . S
H935 C911 0.949 . S
H936 C913 0.950 . S
H937 C915 0.950 . S
C938 C939 1.349 . S
C938 C940 1.327 . S
C938 H963 0.950 . S
C939 C938 1.349 . S
C939 C955 1.349 . S
C940 C938 1.327 . S
C940 C959 1.429 . S
C940 H964 0.950 . S
C941 C958 1.574 . S
C941 C960 1.368 . S
C941 H965 0.949 . S
H942 C946 0.949 . S
C943 C944 1.349 . S
C943 C945 1.327 . S
C943 H966 0.950 . S
C944 C943 1.349 . S
C944 C956 1.349 . S
C945 C943 1.327 . S
C945 C961 1.429 . S
C945 H967 0.950 . S
C946 H942 0.949 . S
C946 C954 1.574 . S
C946 C962 1.368 . S
H947 C955 0.950 . S
H948 C953 0.950 . S
H949 C954 0.949 . S
H950 C956 0.950 . S
H951 C957 0.950 . S
H952 C958 0.949 . S
C953 H948 0.950 . S
C953 C955 1.327 . S
C953 C959 1.429 . S
C954 C946 1.574 . S
C954 H949 0.949 . S
C954 C960 1.368 . S
C955 C939 1.349 . S
C955 H947 0.950 . S
C955 C953 1.327 . S
C956 C944 1.349 . S
C956 H950 0.950 . S
C956 C957 1.327 . S
C957 H951 0.950 . S
C957 C956 1.327 . S
C957 C961 1.429 . S
C958 C941 1.574 . S
C958 H952 0.949 . S
C958 C962 1.368 . S
C959 C940 1.429 . S
C959 C953 1.429 . S
C959 C960 1.523 . S
C960 C941 1.368 . S
C960 C954 1.368 . S
C960 C959 1.523 . S
C961 C945 1.429 . S
C961 C957 1.429 . S
C961 C962 1.523 . S
C962 C946 1.368 . S
C962 C958 1.368 . S
C962 C961 1.523 . S
H963 C938 0.950 . S
H964 C940 0.950 . S
H965 C941 0.949 . S
H966 C943 0.950 . S
H967 C945 0.950 . S
C968 C969 1.361 . S
C968 C970 1.327 1_565 S
C968 H993 0.950 . S
C969 C968 1.361 . S
C969 C985 1.318 1_565 S
C970 C968 1.327 1_545 S
C970 C989 1.429 . S
C970 H994 0.950 1_545 S
C971 C988 1.574 1_554 S
C971 C990 1.368 . S
C971 H995 0.949 . S
H972 C976 0.949 . S
C973 C974 1.349 . S
C973 C975 1.327 . S
C973 H996 0.950 . S
C974 C973 1.349 . S
C974 C986 1.349 . S
C975 C973 1.327 . S
C975 C991 1.429 . S
C975 H997 0.950 . S
C976 H972 0.949 . S
C976 C984 1.558 1_556 S
C976 C992 1.368 . S
H977 C985 0.950 . S
H978 C983 0.950 . S
H979 C984 0.954 . S
H980 C986 0.950 . S
H981 C987 0.950 . S
H982 C988 0.949 . S
C983 H978 0.950 . S
C983 C985 1.327 . S
C983 C989 1.429 . S
C984 C976 1.558 1_554 S
C984 H979 0.954 . S
C984 C990 1.379 . S
C985 C969 1.318 1_545 S
C985 H977 0.950 . S
C985 C983 1.327 . S
C986 C974 1.349 . S
C986 H980 0.950 . S
C986 C987 1.327 . S
C987 H981 0.950 . S
C987 C986 1.327 . S
C987 C991 1.429 . S
C988 C971 1.574 1_556 S
C988 H982 0.949 . S
C988 C992 1.368 . S
C989 C970 1.429 . S
C989 C983 1.429 . S
C989 C990 1.523 . S
C990 C971 1.368 . S
C990 C984 1.379 . S
C990 C989 1.523 . S
C991 C975 1.429 . S
C991 C987 1.429 . S
C991 C992 1.523 . S
C992 C976 1.368 . S
C992 C988 1.368 . S
C992 C991 1.523 . S
H993 C968 0.950 . S
H994 C970 0.950 1_565 S
H995 C971 0.949 . S
H996 C973 0.950 . S
H997 C975 0.950 . S
C998 C999 1.349 . S
C998 C1000 1.327 . S
C998 H1023 0.950 . S
C999 C998 1.349 . S
C999 C1015 1.349 . S
C1000 C998 1.327 . S
C1000 C1019 1.429 . S
C1000 H1024 0.950 . S
C1001 C1018 1.574 . S
C1001 C1020 1.368 . S
C1001 H1025 0.949 . S
H1002 C1006 0.949 . S
C1003 C1004 1.346 1_455 S
C1003 C1005 1.327 . S
C1003 H1026 0.950 1_455 S
C1004 C1003 1.346 1_655 S
C1004 C1016 1.334 1_655 S
C1005 C1003 1.327 . S
C1005 C1021 1.429 . S
C1005 H1027 0.950 . S
C1006 H1002 0.949 . S
C1006 C1014 1.576 . S
C1006 C1022 1.368 . S
H1007 C1015 0.950 . S
H1008 C1013 0.950 . S
H1009 C1014 0.949 . S
H1010 C1016 0.950 . S
H1011 C1017 0.950 . S
H1012 C1018 0.949 . S
C1013 H1008 0.950 . S
C1013 C1015 1.327 . S
C1013 C1019 1.429 . S
C1014 C1006 1.576 . S
C1014 H1009 0.949 . S
C1014 C1020 1.366 1_556 S
C1015 C999 1.349 . S
C1015 H1007 0.950 . S
C1015 C1013 1.327 . S
C1016 C1004 1.334 1_455 S
C1016 H1010 0.950 . S
C1016 C1017 1.327 . S
C1017 H1011 0.950 . S
C1017 C1016 1.327 . S
C1017 C1021 1.429 . S
C1018 C1001 1.574 . S
C1018 H1012 0.949 . S
C1018 C1022 1.368 1_554 S
C1019 C1000 1.429 . S
C1019 C1013 1.429 . S
C1019 C1020 1.523 . S
C1020 C1001 1.368 . S
C1020 C1014 1.366 1_554 S
C1020 C1019 1.523 . S
C1021 C1005 1.429 . S
C1021 C1017 1.429 . S
C1021 C1022 1.523 . S
C1022 C1006 1.368 . S
C1022 C1018 1.368 1_556 S
C1022 C1021 1.523 . S
H1023 C998 0.950 . S
H1024 C1000 0.950 . S
H1025 C1001 0.949 . S
H1026 C1003 0.950 1_655 S
H1027 C1005 0.950 . S
C1028 C1029 1.349 . S
C1028 C1030 1.327 . S
C1028 H1053 0.950 . S
C1029 C1028 1.349 . S
C1029 C1045 1.349 . S
C1030 C1028 1.327 . S
C1030 C1049 1.429 . S
C1030 H1054 0.950 . S
C1031 C1048 1.574 1_556 S
C1031 C1050 1.368 . S
C1031 H1055 0.949 . S
H1032 C1036 0.949 . S
C1033 C1034 1.357 . S
C1033 C1035 1.327 1_545 S
C1033 H1056 0.950 . S
C1034 C1033 1.357 . S
C1034 C1046 1.322 1_545 S
C1035 C1033 1.327 1_565 S
C1035 C1051 1.429 . S
C1035 H1057 0.950 . S
C1036 H1032 0.949 . S
C1036 C1044 1.574 1_554 S
C1036 C1052 1.368 . S
H1037 C1045 0.950 . S
H1038 C1043 0.950 . S
H1039 C1044 0.949 . S
H1040 C1046 0.950 . S
H1041 C1047 0.950 . S
H1042 C1048 0.949 . S
C1043 H1038 0.950 . S
C1043 C1045 1.327 . S
C1043 C1049 1.429 . S
C1044 C1036 1.574 1_556 S
C1044 H1039 0.949 . S
C1044 C1050 1.368 . S
C1045 C1029 1.349 . S
C1045 H1037 0.950 . S
C1045 C1043 1.327 . S
C1046 C1034 1.322 1_565 S
C1046 H1040 0.950 . S
C1046 C1047 1.327 . S
C1047 H1041 0.950 . S
C1047 C1046 1.327 . S
C1047 C1051 1.429 . S
C1048 C1031 1.574 1_554 S
C1048 H1042 0.949 . S
C1048 C1052 1.368 . S
C1049 C1030 1.429 . S
C1049 C1043 1.429 . S
C1049 C1050 1.523 . S
C1050 C1031 1.368 . S
C1050 C1044 1.368 . S
C1050 C1049 1.523 . S
C1051 C1035 1.429 . S
C1051 C1047 1.429 . S
C1051 C1052 1.523 . S
C1052 C1036 1.368 . S
C1052 C1048 1.368 . S
C1052 C1051 1.523 . S
H1053 C1028 0.950 . S
H1054 C1030 0.950 . S
H1055 C1031 0.949 . S
H1056 C1033 0.950 . S
H1057 C1035 0.950 . S
C1058 C1059 1.349 . S
C1058 C1060 1.327 . S
C1058 H1083 0.950 . S
C1059 C1058 1.349 . S
C1059 C1075 1.349 . S
C1060 C1058 1.327 . S
C1060 C1079 1.429 . S
C1060 H1084 0.950 . S
C1061 C1078 1.616 . S
C1061 C1080 1.315 1_556 S
C1061 H1085 0.962 . S
H1062 C1066 0.949 . S
C1063 C1064 1.330 1_655 S
C1063 C1065 1.327 . S
C1063 H1086 0.950 . S
C1064 C1063 1.330 1_455 S
C1064 C1076 1.350 . S
C1065 C1063 1.327 . S
C1065 C1081 1.429 . S
C1065 H1087 0.950 . S
C1066 H1062 0.949 . S
C1066 C1074 1.574 . S
C1066 C1082 1.368 1_554 S
H1067 C1075 0.950 . S
H1068 C1073 0.950 . S
H1069 C1074 0.949 . S
H1070 C1076 0.950 . S
H1071 C1077 0.950 . S
H1072 C1078 0.949 . S
C1073 H1068 0.950 . S
C1073 C1075 1.327 . S
C1073 C1079 1.429 . S
C1074 C1066 1.574 . S
C1074 H1069 0.949 . S
C1074 C1080 1.368 . S
C1075 C1059 1.349 . S
C1075 H1067 0.950 . S
C1075 C1073 1.327 . S
C1076 C1064 1.350 . S
C1076 H1070 0.950 . S
C1076 C1077 1.327 1_455 S
C1077 H1071 0.950 . S
C1077 C1076 1.327 1_655 S
C1077 C1081 1.429 . S
C1078 C1061 1.616 . S
C1078 H1072 0.949 . S
C1078 C1082 1.368 . S
C1079 C1060 1.429 . S
C1079 C1073 1.429 . S
C1079 C1080 1.523 . S
C1080 C1061 1.315 1_554 S
C1080 C1074 1.368 . S
C1080 C1079 1.523 . S
C1081 C1065 1.429 . S
C1081 C1077 1.429 . S
C1081 C1082 1.523 . S
C1082 C1066 1.368 1_556 S
C1082 C1078 1.368 . S
C1082 C1081 1.523 . S
H1083 C1058 0.950 . S
H1084 C1060 0.950 . S
H1085 C1061 0.962 . S
H1086 C1063 0.950 . S
H1087 C1065 0.950 . S
C1088 C1089 1.349 . S
C1088 C1090 1.327 . S
C1088 H1113 0.950 . S
C1089 C1088 1.349 . S
C1089 C1105 1.349 . S
C1090 C1088 1.327 . S
C1090 C1109 1.429 . S
C1090 H1114 0.950 . S
C1091 C1108 1.574 . S
C1091 C1110 1.368 . S
C1091 H1115 0.949 . S
H1092 C1096 0.949 . S
C1093 C1094 1.353 . S
C1093 C1095 1.327 1_545 S
C1093 H1116 0.950 . S
C1094 C1093 1.353 . S
C1094 C1106 1.327 1_545 S
C1095 C1093 1.327 1_565 S
C1095 C1111 1.429 . S
C1095 H1117 0.950 . S
C1096 H1092 0.949 . S
C1096 C1104 1.574 . S
C1096 C1112 1.368 . S
H1097 C1105 0.950 . S
H1098 C1103 0.950 . S
H1099 C1104 0.949 . S
H1100 C1106 0.950 . S
H1101 C1107 0.950 . S
H1102 C1108 0.949 . S
C1103 H1098 0.950 . S
C1103 C1105 1.327 . S
C1103 C1109 1.429 . S
C1104 C1096 1.574 . S
C1104 H1099 0.949 . S
C1104 C1110 1.368 . S
C1105 C1089 1.349 . S
C1105 H1097 0.950 . S
C1105 C1103 1.327 . S
C1106 C1094 1.327 1_565 S
C1106 H1100 0.950 . S
C1106 C1107 1.327 . S
C1107 H1101 0.950 . S
C1107 C1106 1.327 . S
C1107 C1111 1.429 . S
C1108 C1091 1.574 . S
C1108 H1102 0.949 . S
C1108 C1112 1.368 . S
C1109 C1090 1.429 . S
C1109 C1103 1.429 . S
C1109 C1110 1.523 . S
C1110 C1091 1.368 . S
C1110 C1104 1.368 . S
C1110 C1109 1.523 . S
C1111 C1095 1.429 . S
C1111 C1107 1.429 . S
C1111 C1112 1.523 . S
C1112 C1096 1.368 . S
C1112 C1108 1.368 . S
C1112 C1111 1.523 . S
H1113 C1088 0.950 . S
H1114 C1090 0.950 . S
H1115 C1091 0.949 . S
H1116 C1093 0.950 . S
H1117 C1095 0.950 . S
C1118 C1119 1.354 . S
C1118 C1120 1.327 1_455 S
C1118 H1143 0.950 . S
C1119 C1118 1.354 . S
C1119 C1135 1.325 1_455 S
C1120 C1118 1.327 1_655 S
C1120 C1139 1.429 . S
C1120 H1144 0.950 . S
C1121 C1138 1.574 . S
C1121 C1140 1.368 . S
C1121 H1145 0.949 . S
H1122 C1126 0.949 . S
C1123 C1124 1.349 . S
C1123 C1125 1.327 . S
C1123 H1146 0.950 . S
C1124 C1123 1.349 . S
C1124 C1136 1.349 . S
C1125 C1123 1.327 . S
C1125 C1141 1.429 . S
C1125 H1147 0.950 . S
C1126 H1122 0.949 . S
C1126 C1134 1.574 . S
C1126 C1142 1.368 . S
H1127 C1135 0.950 . S
H1128 C1133 0.950 . S
H1129 C1134 0.949 . S
H1130 C1136 0.950 . S
H1131 C1137 0.950 . S
H1132 C1138 0.949 . S
C1133 H1128 0.950 . S
C1133 C1135 1.327 . S
C1133 C1139 1.429 . S
C1134 C1126 1.574 . S
C1134 H1129 0.949 . S
C1134 C1140 1.368 . S
C1135 C1119 1.325 1_655 S
C1135 H1127 0.950 . S
C1135 C1133 1.327 . S
C1136 C1124 1.349 . S
C1136 H1130 0.950 . S
C1136 C1137 1.327 . S
C1137 H1131 0.950 . S
C1137 C1136 1.327 . S
C1137 C1141 1.429 . S
C1138 C1121 1.574 . S
C1138 H1132 0.949 . S
C1138 C1142 1.368 . S
C1139 C1120 1.429 . S
C1139 C1133 1.429 . S
C1139 C1140 1.523 . S
C1140 C1121 1.368 . S
C1140 C1134 1.368 . S
C1140 C1139 1.523 . S
C1141 C1125 1.429 . S
C1141 C1137 1.429 . S
C1141 C1142 1.523 . S
C1142 C1126 1.368 . S
C1142 C1138 1.368 . S
C1142 C1141 1.523 . S
H1143 C1118 0.950 . S
H1144 C1120 0.950 . S
H1145 C1121 0.949 . S
H1146 C1123 0.950 . S
H1147 C1125 0.950 . S
C1148 C1149 1.328 1_545 S
C1148 C1150 1.327 . S
C1148 H1173 0.950 . S
C1149 C1148 1.328 1_565 S
C1149 C1165 1.351 . S
C1150 C1148 1.327 . S
C1150 C1169 1.429 . S
C1150 H1174 0.950 . S
C1151 C1168 1.574 . S
C1151 C1170 1.368 . S
C1151 H1175 0.949 . S
H1152 C1156 0.949 . S
C1153 C1154 1.349 . S
C1153 C1155 1.327 . S
C1153 H1176 0.950 . S
C1154 C1153 1.349 . S
C1154 C1166 1.349 . S
C1155 C1153 1.327 . S
C1155 C1171 1.429 . S
C1155 H1177 0.950 . S
C1156 H1152 0.949 . S
C1156 C1164 1.574 . S
C1156 C1172 1.368 . S
H1157 C1165 0.950 . S
H1158 C1163 0.950 . S
H1159 C1164 0.949 . S
H1160 C1166 0.950 . S
H1161 C1167 0.950 . S
H1162 C1168 0.949 . S
C1163 H1158 0.950 . S
C1163 C1165 1.327 1_545 S
C1163 C1169 1.429 . S
C1164 C1156 1.574 . S
C1164 H1159 0.949 . S
C1164 C1170 1.368 . S
C1165 C1149 1.351 . S
C1165 H1157 0.950 . S
C1165 C1163 1.327 1_565 S
C1166 C1154 1.349 . S
C1166 H1160 0.950 . S
C1166 C1167 1.327 . S
C1167 H1161 0.950 . S
C1167 C1166 1.327 . S
C1167 C1171 1.429 . S
C1168 C1151 1.574 . S
C1168 H1162 0.949 . S
C1168 C1172 1.368 . S
C1169 C1150 1.429 . S
C1169 C1163 1.429 . S
C1169 C1170 1.523 . S
C1170 C1151 1.368 . S
C1170 C1164 1.368 . S
C1170 C1169 1.523 . S
C1171 C1155 1.429 . S
C1171 C1167 1.429 . S
C1171 C1172 1.523 . S
C1172 C1156 1.368 . S
C1172 C1168 1.368 . S
C1172 C1171 1.523 . S
H1173 C1148 0.950 . S
H1174 C1150 0.950 . S
H1175 C1151 0.949 . S
H1176 C1153 0.950 . S
H1177 C1155 0.950 . S
C1178 C1179 1.357 . S
C1178 C1180 1.327 1_655 S
C1178 H1203 0.950 . S
C1179 C1178 1.357 . S
C1179 C1195 1.322 1_655 S
C1180 C1178 1.327 1_455 S
C1180 C1199 1.429 . S
C1180 H1204 0.950 . S
C1181 C1198 1.574 . S
C1181 C1200 1.368 . S
C1181 H1205 0.949 . S
H1182 C1186 0.949 . S
C1183 C1184 1.349 . S
C1183 C1185 1.327 . S
C1183 H1206 0.950 . S
C1184 C1183 1.349 . S
C1184 C1196 1.349 . S
C1185 C1183 1.327 . S
C1185 C1201 1.429 . S
C1185 H1207 0.950 . S
C1186 H1182 0.949 . S
C1186 C1194 1.574 . S
C1186 C1202 1.368 . S
H1187 C1195 0.950 . S
H1188 C1193 0.950 . S
H1189 C1194 0.949 . S
H1190 C1196 0.950 . S
H1191 C1197 0.950 . S
H1192 C1198 0.949 . S
C1193 H1188 0.950 . S
C1193 C1195 1.327 . S
C1193 C1199 1.429 . S
C1194 C1186 1.574 . S
C1194 H1189 0.949 . S
C1194 C1200 1.368 . S
C1195 C1179 1.322 1_455 S
C1195 H1187 0.950 . S
C1195 C1193 1.327 . S
C1196 C1184 1.349 . S
C1196 H1190 0.950 . S
C1196 C1197 1.327 . S
C1197 H1191 0.950 . S
C1197 C1196 1.327 . S
C1197 C1201 1.429 . S
C1198 C1181 1.574 . S
C1198 H1192 0.949 . S
C1198 C1202 1.368 . S
C1199 C1180 1.429 . S
C1199 C1193 1.429 . S
C1199 C1200 1.523 . S
C1200 C1181 1.368 . S
C1200 C1194 1.368 . S
C1200 C1199 1.523 . S
C1201 C1185 1.429 . S
C1201 C1197 1.429 . S
C1201 C1202 1.523 . S
C1202 C1186 1.368 . S
C1202 C1198 1.368 . S
C1202 C1201 1.523 . S
H1203 C1178 0.950 . S
H1204 C1180 0.950 . S
H1205 C1181 0.949 . S
H1206 C1183 0.950 . S
H1207 C1185 0.950 . S
C1208 C1209 1.349 . S
C1208 C1210 1.327 . S
C1208 H1233 0.950 . S
C1209 C1208 1.349 . S
C1209 C1225 1.349 . S
C1210 C1208 1.327 . S
C1210 C1229 1.429 . S
C1210 H1234 0.950 . S
C1211 C1228 1.574 . S
C1211 C1230 1.368 . S
C1211 H1235 0.949 . S
H1212 C1216 0.949 . S
C1213 C1214 1.349 . S
C1213 C1215 1.327 . S
C1213 H1236 0.950 . S
C1214 C1213 1.349 . S
C1214 C1226 1.349 . S
C1215 C1213 1.327 . S
C1215 C1231 1.429 . S
C1215 H1237 0.950 . S
C1216 H1212 0.949 . S
C1216 C1224 1.574 . S
C1216 C1232 1.368 . S
H1217 C1225 0.950 . S
H1218 C1223 0.950 . S
H1219 C1224 0.949 . S
H1220 C1226 0.950 . S
H1221 C1227 0.950 . S
H1222 C1228 0.949 . S
C1223 H1218 0.950 . S
C1223 C1225 1.327 . S
C1223 C1229 1.429 . S
C1224 C1216 1.574 . S
C1224 H1219 0.949 . S
C1224 C1230 1.368 . S
C1225 C1209 1.349 . S
C1225 H1217 0.950 . S
C1225 C1223 1.327 . S
C1226 C1214 1.349 . S
C1226 H1220 0.950 . S
C1226 C1227 1.327 . S
C1227 H1221 0.950 . S
C1227 C1226 1.327 . S
C1227 C1231 1.429 . S
C1228 C1211 1.574 . S
C1228 H1222 0.949 . S
C1228 C1232 1.368 . S
C1229 C1210 1.429 . S
C1229 C1223 1.429 . S
C1229 C1230 1.523 . S
C1230 C1211 1.368 . S
C1230 C1224 1.368 . S
C1230 C1229 1.523 . S
C1231 C1215 1.429 . S
C1231 C1227 1.429 . S
C1231 C1232 1.523 . S
C1232 C1216 1.368 . S
C1232 C1228 1.368 . S
C1232 C1231 1.523 . S
H1233 C1208 0.950 . S
H1234 C1210 0.950 . S
H1235 C1211 0.949 . S
H1236 C1213 0.950 . S
H1237 C1215 0.950 . S
C1238 C1239 1.349 . S
C1238 C1240 1.327 . S
C1238 H1263 0.950 . S
C1239 C1238 1.349 . S
C1239 C1255 1.349 . S
C1240 C1238 1.327 . S
C1240 C1259 1.429 . S
C1240 H1264 0.950 . S
C1241 C1258 1.574 . S
C1241 C1260 1.368 . S
C1241 H1265 0.949 . S
H1242 C1246 0.949 . S
C1243 C1244 1.349 . S
C1243 C1245 1.327 . S
C1243 H1266 0.950 . S
C1244 C1243 1.349 . S
C1244 C1256 1.349 . S
C1245 C1243 1.327 . S
C1245 C1261 1.429 . S
C1245 H1267 0.950 . S
C1246 H1242 0.949 . S
C1246 C1254 1.574 . S
C1246 C1262 1.368 . S
H1247 C1255 0.950 . S
H1248 C1253 0.950 . S
H1249 C1254 0.949 . S
H1250 C1256 0.950 . S
H1251 C1257 0.950 . S
H1252 C1258 0.949 . S
C1253 H1248 0.950 . S
C1253 C1255 1.327 . S
C1253 C1259 1.429 . S
C1254 C1246 1.574 . S
C1254 H1249 0.949 . S
C1254 C1260 1.368 . S
C1255 C1239 1.349 . S
C1255 H1247 0.950 . S
C1255 C1253 1.327 . S
C1256 C1244 1.349 . S
C1256 H1250 0.950 . S
C1256 C1257 1.327 . S
C1257 H1251 0.950 . S
C1257 C1256 1.327 . S
C1257 C1261 1.429 . S
C1258 C1241 1.574 . S
C1258 H1252 0.949 . S
C1258 C1262 1.368 . S
C1259 C1240 1.429 . S
C1259 C1253 1.429 . S
C1259 C1260 1.523 . S
C1260 C1241 1.368 . S
C1260 C1254 1.368 . S
C1260 C1259 1.523 . S
C1261 C1245 1.429 . S
C1261 C1257 1.429 . S
C1261 C1262 1.523 . S
C1262 C1246 1.368 . S
C1262 C1258 1.368 . S
C1262 C1261 1.523 . S
H1263 C1238 0.950 . S
H1264 C1240 0.950 . S
H1265 C1241 0.949 . S
H1266 C1243 0.950 . S
H1267 C1245 0.950 . S
C1268 C1269 1.349 . S
C1268 C1270 1.327 . S
C1268 H1293 0.950 . S
C1269 C1268 1.349 . S
C1269 C1285 1.349 . S
C1270 C1268 1.327 . S
C1270 C1289 1.429 . S
C1270 H1294 0.950 . S
C1271 C1288 1.574 . S
C1271 C1290 1.368 . S
C1271 H1295 0.949 . S
H1272 C1276 0.949 . S
C1273 C1274 1.349 . S
C1273 C1275 1.327 . S
C1273 H1296 0.950 . S
C1274 C1273 1.349 . S
C1274 C1286 1.349 . S
C1275 C1273 1.327 . S
C1275 C1291 1.429 . S
C1275 H1297 0.950 . S
C1276 H1272 0.949 . S
C1276 C1284 1.574 . S
C1276 C1292 1.368 . S
H1277 C1285 0.950 . S
H1278 C1283 0.950 . S
H1279 C1284 0.949 . S
H1280 C1286 0.950 . S
H1281 C1287 0.950 . S
H1282 C1288 0.949 . S
C1283 H1278 0.950 . S
C1283 C1285 1.327 . S
C1283 C1289 1.429 . S
C1284 C1276 1.574 . S
C1284 H1279 0.949 . S
C1284 C1290 1.368 . S
C1285 C1269 1.349 . S
C1285 H1277 0.950 . S
C1285 C1283 1.327 . S
C1286 C1274 1.349 . S
C1286 H1280 0.950 . S
C1286 C1287 1.327 . S
C1287 H1281 0.950 . S
C1287 C1286 1.327 . S
C1287 C1291 1.429 . S
C1288 C1271 1.574 . S
C1288 H1282 0.949 . S
C1288 C1292 1.368 . S
C1289 C1270 1.429 . S
C1289 C1283 1.429 . S
C1289 C1290 1.523 . S
C1290 C1271 1.368 . S
C1290 C1284 1.368 . S
C1290 C1289 1.523 . S
C1291 C1275 1.429 . S
C1291 C1287 1.429 . S
C1291 C1292 1.523 . S
C1292 C1276 1.368 . S
C1292 C1288 1.368 . S
C1292 C1291 1.523 . S
H1293 C1268 0.950 . S
H1294 C1270 0.950 . S
H1295 C1271 0.949 . S
H1296 C1273 0.950 . S
H1297 C1275 0.950 . S
C1298 C1299 1.349 . S
C1298 C1300 1.327 . S
C1298 H1323 0.950 . S
C1299 C1298 1.349 . S
C1299 C1315 1.349 . S
C1300 C1298 1.327 . S
C1300 C1319 1.429 . S
C1300 H1324 0.950 . S
C1301 C1318 1.574 . S
C1301 C1320 1.368 . S
C1301 H1325 0.949 . S
H1302 C1306 0.949 . S
C1303 C1304 1.349 . S
C1303 C1305 1.327 . S
C1303 H1326 0.950 . S
C1304 C1303 1.349 . S
C1304 C1316 1.349 . S
C1305 C1303 1.327 . S
C1305 C1321 1.429 . S
C1305 H1327 0.950 . S
C1306 H1302 0.949 . S
C1306 C1314 1.574 . S
C1306 C1322 1.368 . S
H1307 C1315 0.950 . S
H1308 C1313 0.950 . S
H1309 C1314 0.949 . S
H1310 C1316 0.950 . S
H1311 C1317 0.950 . S
H1312 C1318 0.949 . S
C1313 H1308 0.950 . S
C1313 C1315 1.327 . S
C1313 C1319 1.429 . S
C1314 C1306 1.574 . S
C1314 H1309 0.949 . S
C1314 C1320 1.368 . S
C1315 C1299 1.349 . S
C1315 H1307 0.950 . S
C1315 C1313 1.327 . S
C1316 C1304 1.349 . S
C1316 H1310 0.950 . S
C1316 C1317 1.327 . S
C1317 H1311 0.950 . S
C1317 C1316 1.327 . S
C1317 C1321 1.429 . S
C1318 C1301 1.574 . S
C1318 H1312 0.949 . S
C1318 C1322 1.368 . S
C1319 C1300 1.429 . S
C1319 C1313 1.429 . S
C1319 C1320 1.523 . S
C1320 C1301 1.368 . S
C1320 C1314 1.368 . S
C1320 C1319 1.523 . S
C1321 C1305 1.429 . S
C1321 C1317 1.429 . S
C1321 C1322 1.523 . S
C1322 C1306 1.368 . S
C1322 C1318 1.368 . S
C1322 C1321 1.523 . S
H1323 C1298 0.950 . S
H1324 C1300 0.950 . S
H1325 C1301 0.949 . S
H1326 C1303 0.950 . S
H1327 C1305 0.950 . S
C1328 C1329 1.349 . S
C1328 C1330 1.327 . S
C1328 H1353 0.950 . S
C1329 C1328 1.349 . S
C1329 C1345 1.349 . S
C1330 C1328 1.327 . S
C1330 C1349 1.429 . S
C1330 H1354 0.950 . S
C1331 C1348 1.574 . S
C1331 C1350 1.368 . S
C1331 H1355 0.949 . S
H1332 C1336 0.949 . S
C1333 C1334 1.349 . S
C1333 C1335 1.327 . S
C1333 H1356 0.950 . S
C1334 C1333 1.349 . S
C1334 C1346 1.349 . S
C1335 C1333 1.327 . S
C1335 C1351 1.429 . S
C1335 H1357 0.950 . S
C1336 H1332 0.949 . S
C1336 C1344 1.574 . S
C1336 C1352 1.368 . S
H1337 C1345 0.950 . S
H1338 C1343 0.950 . S
H1339 C1344 0.949 . S
H1340 C1346 0.950 . S
H1341 C1347 0.950 . S
H1342 C1348 0.949 . S
C1343 H1338 0.950 . S
C1343 C1345 1.327 . S
C1343 C1349 1.429 . S
C1344 C1336 1.574 . S
C1344 H1339 0.949 . S
C1344 C1350 1.368 . S
C1345 C1329 1.349 . S
C1345 H1337 0.950 . S
C1345 C1343 1.327 . S
C1346 C1334 1.349 . S
C1346 H1340 0.950 . S
C1346 C1347 1.327 . S
C1347 H1341 0.950 . S
C1347 C1346 1.327 . S
C1347 C1351 1.429 . S
C1348 C1331 1.574 . S
C1348 H1342 0.949 . S
C1348 C1352 1.368 . S
C1349 C1330 1.429 . S
C1349 C1343 1.429 . S
C1349 C1350 1.523 . S
C1350 C1331 1.368 . S
C1350 C1344 1.368 . S
C1350 C1349 1.523 . S
C1351 C1335 1.429 . S
C1351 C1347 1.429 . S
C1351 C1352 1.523 . S
C1352 C1336 1.368 . S
C1352 C1348 1.368 . S
C1352 C1351 1.523 . S
H1353 C1328 0.950 . S
H1354 C1330 0.950 . S
H1355 C1331 0.949 . S
H1356 C1333 0.950 . S
H1357 C1335 0.950 . S
C1358 C1359 1.349 . S
C1358 C1360 1.327 . S
C1358 H1383 0.950 . S
C1359 C1358 1.349 . S
C1359 C1375 1.349 . S
C1360 C1358 1.327 . S
C1360 C1379 1.429 . S
C1360 H1384 0.950 . S
C1361 C1378 1.574 . S
C1361 C1380 1.368 . S
C1361 H1385 0.949 . S
H1362 C1366 0.949 . S
C1363 C1364 1.349 . S
C1363 C1365 1.327 . S
C1363 H1386 0.950 . S
C1364 C1363 1.349 . S
C1364 C1376 1.349 . S
C1365 C1363 1.327 . S
C1365 C1381 1.429 . S
C1365 H1387 0.950 . S
C1366 H1362 0.949 . S
C1366 C1374 1.574 . S
C1366 C1382 1.368 . S
H1367 C1375 0.950 . S
H1368 C1373 0.950 . S
H1369 C1374 0.949 . S
H1370 C1376 0.950 . S
H1371 C1377 0.950 . S
H1372 C1378 0.949 . S
C1373 H1368 0.950 . S
C1373 C1375 1.327 . S
C1373 C1379 1.429 . S
C1374 C1366 1.574 . S
C1374 H1369 0.949 . S
C1374 C1380 1.368 . S
C1375 C1359 1.349 . S
C1375 H1367 0.950 . S
C1375 C1373 1.327 . S
C1376 C1364 1.349 . S
C1376 H1370 0.950 . S
C1376 C1377 1.327 . S
C1377 H1371 0.950 . S
C1377 C1376 1.327 . S
C1377 C1381 1.429 . S
C1378 C1361 1.574 . S
C1378 H1372 0.949 . S
C1378 C1382 1.368 . S
C1379 C1360 1.429 . S
C1379 C1373 1.429 . S
C1379 C1380 1.523 . S
C1380 C1361 1.368 . S
C1380 C1374 1.368 . S
C1380 C1379 1.523 . S
C1381 C1365 1.429 . S
C1381 C1377 1.429 . S
C1381 C1382 1.523 . S
C1382 C1366 1.368 . S
C1382 C1378 1.368 . S
C1382 C1381 1.523 . S
H1383 C1358 0.950 . S
H1384 C1360 0.950 . S
H1385 C1361 0.949 . S
H1386 C1363 0.950 . S
H1387 C1365 0.950 . S
C1388 C1389 1.349 . S
C1388 C1390 1.327 . S
C1388 H1413 0.950 . S
C1389 C1388 1.349 . S
C1389 C1405 1.349 . S
C1390 C1388 1.327 . S
C1390 C1409 1.429 . S
C1390 H1414 0.950 . S
C1391 C1408 1.574 . S
C1391 C1410 1.368 . S
C1391 H1415 0.949 . S
H1392 C1396 0.949 . S
C1393 C1394 1.349 . S
C1393 C1395 1.327 . S
C1393 H1416 0.950 . S
C1394 C1393 1.349 . S
C1394 C1406 1.349 . S
C1395 C1393 1.327 . S
C1395 C1411 1.429 . S
C1395 H1417 0.950 . S
C1396 H1392 0.949 . S
C1396 C1404 1.574 . S
C1396 C1412 1.368 . S
H1397 C1405 0.950 . S
H1398 C1403 0.950 . S
H1399 C1404 0.949 . S
H1400 C1406 0.950 . S
H1401 C1407 0.950 . S
H1402 C1408 0.949 . S
C1403 H1398 0.950 . S
C1403 C1405 1.327 . S
C1403 C1409 1.429 . S
C1404 C1396 1.574 . S
C1404 H1399 0.949 . S
C1404 C1410 1.368 . S
C1405 C1389 1.349 . S
C1405 H1397 0.950 . S
C1405 C1403 1.327 . S
C1406 C1394 1.349 . S
C1406 H1400 0.950 . S
C1406 C1407 1.327 . S
C1407 H1401 0.950 . S
C1407 C1406 1.327 . S
C1407 C1411 1.429 . S
C1408 C1391 1.574 . S
C1408 H1402 0.949 . S
C1408 C1412 1.368 . S
C1409 C1390 1.429 . S
C1409 C1403 1.429 . S
C1409 C1410 1.523 . S
C1410 C1391 1.368 . S
C1410 C1404 1.368 . S
C1410 C1409 1.523 . S
C1411 C1395 1.429 . S
C1411 C1407 1.429 . S
C1411 C1412 1.523 . S
C1412 C1396 1.368 . S
C1412 C1408 1.368 . S
C1412 C1411 1.523 . S
H1413 C1388 0.950 . S
H1414 C1390 0.950 . S
H1415 C1391 0.949 . S
H1416 C1393 0.950 . S
H1417 C1395 0.950 . S
C1418 C1419 1.349 . S
C1418 C1420 1.327 . S
C1418 H1443 0.950 . S
C1419 C1418 1.349 . S
C1419 C1435 1.349 . S
C1420 C1418 1.327 . S
C1420 C1439 1.429 . S
C1420 H1444 0.950 . S
C1421 C1438 1.574 . S
C1421 C1440 1.368 . S
C1421 H1445 0.949 . S
H1422 C1426 0.949 . S
C1423 C1424 1.349 . S
C1423 C1425 1.327 . S
C1423 H1446 0.950 . S
C1424 C1423 1.349 . S
C1424 C1436 1.349 . S
C1425 C1423 1.327 . S
C1425 C1441 1.429 . S
C1425 H1447 0.950 . S
C1426 H1422 0.949 . S
C1426 C1434 1.574 . S
C1426 C1442 1.368 . S
H1427 C1435 0.950 . S
H1428 C1433 0.950 . S
H1429 C1434 0.949 . S
H1430 C1436 0.950 . S
H1431 C1437 0.950 . S
H1432 C1438 0.949 . S
C1433 H1428 0.950 . S
C1433 C1435 1.327 . S
C1433 C1439 1.429 . S
C1434 C1426 1.574 . S
C1434 H1429 0.949 . S
C1434 C1440 1.368 . S
C1435 C1419 1.349 . S
C1435 H1427 0.950 . S
C1435 C1433 1.327 . S
C1436 C1424 1.349 . S
C1436 H1430 0.950 . S
C1436 C1437 1.327 . S
C1437 H1431 0.950 . S
C1437 C1436 1.327 . S
C1437 C1441 1.429 . S
C1438 C1421 1.574 . S
C1438 H1432 0.949 . S
C1438 C1442 1.368 . S
C1439 C1420 1.429 . S
C1439 C1433 1.429 . S
C1439 C1440 1.523 . S
C1440 C1421 1.368 . S
C1440 C1434 1.368 . S
C1440 C1439 1.523 . S
C1441 C1425 1.429 . S
C1441 C1437 1.429 . S
C1441 C1442 1.523 . S
C1442 C1426 1.368 . S
C1442 C1438 1.368 . S
C1442 C1441 1.523 . S
H1443 C1418 0.950 . S
H1444 C1420 0.950 . S
H1445 C1421 0.949 . S
H1446 C1423 0.950 . S
H1447 C1425 0.950 . S
C1448 C1449 1.349 . S
C1448 C1450 1.327 . S
C1448 H1473 0.950 . S
C1449 C1448 1.349 . S
C1449 C1465 1.349 . S
C1450 C1448 1.327 . S
C1450 C1469 1.429 . S
C1450 H1474 0.950 . S
C1451 C1468 1.574 . S
C1451 C1470 1.368 . S
C1451 H1475 0.949 . S
H1452 C1456 0.949 . S
C1453 C1454 1.349 . S
C1453 C1455 1.327 . S
C1453 H1476 0.950 . S
C1454 C1453 1.349 . S
C1454 C1466 1.349 . S
C1455 C1453 1.327 . S
C1455 C1471 1.429 . S
C1455 H1477 0.950 . S
C1456 H1452 0.949 . S
C1456 C1464 1.574 . S
C1456 C1472 1.368 . S
H1457 C1465 0.950 . S
H1458 C1463 0.950 . S
H1459 C1464 0.949 . S
H1460 C1466 0.950 . S
H1461 C1467 0.950 . S
H1462 C1468 0.949 . S
C1463 H1458 0.950 . S
C1463 C1465 1.327 . S
C1463 C1469 1.429 . S
C1464 C1456 1.574 . S
C1464 H1459 0.949 . S
C1464 C1470 1.368 . S
C1465 C1449 1.349 . S
C1465 H1457 0.950 . S
C1465 C1463 1.327 . S
C1466 C1454 1.349 . S
C1466 H1460 0.950 . S
C1466 C1467 1.327 . S
C1467 H1461 0.950 . S
C1467 C1466 1.327 . S
C1467 C1471 1.429 . S
C1468 C1451 1.574 . S
C1468 H1462 0.949 . S
C1468 C1472 1.368 . S
C1469 C1450 1.429 . S
C1469 C1463 1.429 . S
C1469 C1470 1.523 . S
C1470 C1451 1.368 . S
C1470 C1464 1.368 . S
C1470 C1469 1.523 . S
C1471 C1455 1.429 . S
C1471 C1467 1.429 . S
C1471 C1472 1.523 . S
C1472 C1456 1.368 . S
C1472 C1468 1.368 . S
C1472 C1471 1.523 . S
H1473 C1448 0.950 . S
H1474 C1450 0.950 . S
H1475 C1451 0.949 . S
H1476 C1453 0.950 . S
H1477 C1455 0.950 . S
C1478 C1479 1.349 . S
C1478 C1480 1.327 . S
C1478 H1503 0.950 . S
C1479 C1478 1.349 . S
C1479 C1495 1.349 . S
C1480 C1478 1.327 . S
C1480 C1499 1.429 . S
C1480 H1504 0.950 . S
C1481 C1498 1.574 . S
C1481 C1500 1.368 . S
C1481 H1505 0.949 . S
H1482 C1486 0.949 . S
C1483 C1484 1.349 . S
C1483 C1485 1.327 . S
C1483 H1506 0.950 . S
C1484 C1483 1.349 . S
C1484 C1496 1.349 . S
C1485 C1483 1.327 . S
C1485 C1501 1.429 . S
C1485 H1507 0.950 . S
C1486 H1482 0.949 . S
C1486 C1494 1.574 . S
C1486 C1502 1.368 . S
H1487 C1495 0.950 . S
H1488 C1493 0.950 . S
H1489 C1494 0.949 . S
H1490 C1496 0.950 . S
H1491 C1497 0.950 . S
H1492 C1498 0.949 . S
C1493 H1488 0.950 . S
C1493 C1495 1.327 . S
C1493 C1499 1.429 . S
C1494 C1486 1.574 . S
C1494 H1489 0.949 . S
C1494 C1500 1.368 . S
C1495 C1479 1.349 . S
C1495 H1487 0.950 . S
C1495 C1493 1.327 . S
C1496 C1484 1.349 . S
C1496 H1490 0.950 . S
C1496 C1497 1.327 . S
C1497 H1491 0.950 . S
C1497 C1496 1.327 . S
C1497 C1501 1.429 . S
C1498 C1481 1.574 . S
C1498 H1492 0.949 . S
C1498 C1502 1.368 . S
C1499 C1480 1.429 . S
C1499 C1493 1.429 . S
C1499 C1500 1.523 . S
C1500 C1481 1.368 . S
C1500 C1494 1.368 . S
C1500 C1499 1.523 . S
C1501 C1485 1.429 . S
C1501 C1497 1.429 . S
C1501 C1502 1.523 . S
C1502 C1486 1.368 . S
C1502 C1498 1.368 . S
C1502 C1501 1.523 . S
H1503 C1478 0.950 . S
H1504 C1480 0.950 . S
H1505 C1481 0.949 . S
H1506 C1483 0.950 . S
H1507 C1485 0.950 . S
C1508 C1509 1.349 . S
C1508 C1510 1.327 . S
C1508 H1533 0.950 . S
C1509 C1508 1.349 . S
C1509 C1525 1.349 . S
C1510 C1508 1.327 . S
C1510 C1529 1.429 . S
C1510 H1534 0.950 . S
C1511 C1528 1.574 . S
C1511 C1530 1.368 . S
C1511 H1535 0.949 . S
H1512 C1516 0.949 . S
C1513 C1514 1.349 . S
C1513 C1515 1.327 . S
C1513 H1536 0.950 . S
C1514 C1513 1.349 . S
C1514 C1526 1.349 . S
C1515 C1513 1.327 . S
C1515 C1531 1.429 . S
C1515 H1537 0.950 . S
C1516 H1512 0.949 . S
C1516 C1524 1.574 . S
C1516 C1532 1.368 . S
H1517 C1525 0.950 . S
H1518 C1523 0.950 . S
H1519 C1524 0.949 . S
H1520 C1526 0.950 . S
H1521 C1527 0.950 . S
H1522 C1528 0.949 . S
C1523 H1518 0.950 . S
C1523 C1525 1.327 . S
C1523 C1529 1.429 . S
C1524 C1516 1.574 . S
C1524 H1519 0.949 . S
C1524 C1530 1.368 . S
C1525 C1509 1.349 . S
C1525 H1517 0.950 . S
C1525 C1523 1.327 . S
C1526 C1514 1.349 . S
C1526 H1520 0.950 . S
C1526 C1527 1.327 . S
C1527 H1521 0.950 . S
C1527 C1526 1.327 . S
C1527 C1531 1.429 . S
C1528 C1511 1.574 . S
C1528 H1522 0.949 . S
C1528 C1532 1.368 . S
C1529 C1510 1.429 . S
C1529 C1523 1.429 . S
C1529 C1530 1.523 . S
C1530 C1511 1.368 . S
C1530 C1524 1.368 . S
C1530 C1529 1.523 . S
C1531 C1515 1.429 . S
C1531 C1527 1.429 . S
C1531 C1532 1.523 . S
C1532 C1516 1.368 . S
C1532 C1528 1.368 . S
C1532 C1531 1.523 . S
H1533 C1508 0.950 . S
H1534 C1510 0.950 . S
H1535 C1511 0.949 . S
H1536 C1513 0.950 . S
H1537 C1515 0.950 . S
C1538 C1539 1.349 . S
C1538 C1540 1.327 . S
C1538 H1563 0.950 . S
C1539 C1538 1.349 . S
C1539 C1555 1.349 . S
C1540 C1538 1.327 . S
C1540 C1559 1.429 . S
C1540 H1564 0.950 . S
C1541 C1558 1.574 . S
C1541 C1560 1.368 . S
C1541 H1565 0.949 . S
H1542 C1546 0.949 . S
C1543 C1544 1.349 . S
C1543 C1545 1.327 . S
C1543 H1566 0.950 . S
C1544 C1543 1.349 . S
C1544 C1556 1.349 . S
C1545 C1543 1.327 . S
C1545 C1561 1.429 . S
C1545 H1567 0.950 . S
C1546 H1542 0.949 . S
C1546 C1554 1.574 . S
C1546 C1562 1.368 . S
H1547 C1555 0.950 . S
H1548 C1553 0.950 . S
H1549 C1554 0.949 . S
H1550 C1556 0.950 . S
H1551 C1557 0.950 . S
H1552 C1558 0.949 . S
C1553 H1548 0.950 . S
C1553 C1555 1.327 . S
C1553 C1559 1.429 . S
C1554 C1546 1.574 . S
C1554 H1549 0.949 . S
C1554 C1560 1.368 . S
C1555 C1539 1.349 . S
C1555 H1547 0.950 . S
C1555 C1553 1.327 . S
C1556 C1544 1.349 . S
C1556 H1550 0.950 . S
C1556 C1557 1.327 . S
C1557 H1551 0.950 . S
C1557 C1556 1.327 . S
C1557 C1561 1.429 . S
C1558 C1541 1.574 . S
C1558 H1552 0.949 . S
C1558 C1562 1.368 . S
C1559 C1540 1.429 . S
C1559 C1553 1.429 . S
C1559 C1560 1.523 . S
C1560 C1541 1.368 . S
C1560 C1554 1.368 . S
C1560 C1559 1.523 . S
C1561 C1545 1.429 . S
C1561 C1557 1.429 . S
C1561 C1562 1.523 . S
C1562 C1546 1.368 . S
C1562 C1558 1.368 . S
C1562 C1561 1.523 . S
H1563 C1538 0.950 . S
H1564 C1540 0.950 . S
H1565 C1541 0.949 . S
H1566 C1543 0.950 . S
H1567 C1545 0.950 . S
C1568 C1569 1.349 . S
C1568 C1570 1.327 . S
C1568 H1593 0.950 . S
C1569 C1568 1.349 . S
C1569 C1585 1.349 . S
C1570 C1568 1.327 . S
C1570 C1589 1.429 . S
C1570 H1594 0.950 . S
C1571 C1588 1.574 1_565 S
C1571 C1590 1.368 1_455 S
C1571 H1595 0.949 . S
H1572 C1576 0.949 . S
C1573 C1574 1.349 . S
C1573 C1575 1.327 . S
C1573 H1596 0.950 . S
C1574 C1573 1.349 . S
C1574 C1586 1.349 . S
C1575 C1573 1.327 . S
C1575 C1591 1.429 . S
C1575 H1597 0.950 . S
C1576 H1572 0.949 . S
C1576 C1584 1.574 1_545 S
C1576 C1592 1.368 1_655 S
H1577 C1585 0.950 . S
H1578 C1583 0.950 1_455 S
H1579 C1584 0.949 . S
H1580 C1586 0.950 . S
H1581 C1587 0.950 1_655 S
H1582 C1588 0.949 . S
C1583 H1578 0.950 1_655 S
C1583 C1585 1.327 . S
C1583 C1589 1.429 . S
C1584 C1576 1.574 1_565 S
C1584 H1579 0.949 . S
C1584 C1590 1.368 . S
C1585 C1569 1.349 . S
C1585 H1577 0.950 . S
C1585 C1583 1.327 . S
C1586 C1574 1.349 . S
C1586 H1580 0.950 . S
C1586 C1587 1.327 . S
C1587 H1581 0.950 1_455 S
C1587 C1586 1.327 . S
C1587 C1591 1.429 . S
C1588 C1571 1.574 1_545 S
C1588 H1582 0.949 . S
C1588 C1592 1.368 . S
C1589 C1570 1.429 . S
C1589 C1583 1.429 . S
C1589 C1590 1.523 . S
C1590 C1571 1.368 1_655 S
C1590 C1584 1.368 . S
C1590 C1589 1.523 . S
C1591 C1575 1.429 . S
C1591 C1587 1.429 . S
C1591 C1592 1.523 . S
C1592 C1576 1.368 1_455 S
C1592 C1588 1.368 . S
C1592 C1591 1.523 . S
H1593 C1568 0.950 . S
H1594 C1570 0.950 . S
H1595 C1571 0.949 . S
H1596 C1573 0.950 . S
H1597 C1575 0.950 . S
C1598 C1599 1.349 . S
C1598 C1600 1.327 . S
C1598 H1623 0.950 . S
C1599 C1598 1.349 . S
C1599 C1615 1.349 . S
C1600 C1598 1.327 . S
C1600 C1619 1.429 . S
C1600 H1624 0.950 . S
C1601 C1618 1.574 1_655 S
C1601 C1620 1.368 1_565 S
C1601 H1625 0.949 . S
H1602 C1606 0.949 . S
C1603 C1604 1.349 . S
C1603 C1605 1.327 . S
C1603 H1626 0.950 . S
C1604 C1603 1.349 . S
C1604 C1616 1.349 . S
C1605 C1603 1.327 . S
C1605 C1621 1.429 . S
C1605 H1627 0.950 . S
C1606 H1602 0.949 . S
C1606 C1614 1.574 1_455 S
C1606 C1622 1.368 1_545 S
H1607 C1615 0.950 . S
H1608 C1613 0.950 1_565 S
H1609 C1614 0.949 . S
H1610 C1616 0.950 . S
H1611 C1617 0.950 1_545 S
H1612 C1618 0.949 . S
C1613 H1608 0.950 1_545 S
C1613 C1615 1.327 . S
C1613 C1619 1.429 . S
C1614 C1606 1.574 1_655 S
C1614 H1609 0.949 . S
C1614 C1620 1.368 . S
C1615 C1599 1.349 . S
C1615 H1607 0.950 . S
C1615 C1613 1.327 . S
C1616 C1604 1.349 . S
C1616 H1610 0.950 . S
C1616 C1617 1.327 . S
C1617 H1611 0.950 1_565 S
C1617 C1616 1.327 . S
C1617 C1621 1.429 . S
C1618 C1601 1.574 1_455 S
C1618 H1612 0.949 . S
C1618 C1622 1.368 . S
C1619 C1600 1.429 . S
C1619 C1613 1.429 . S
C1619 C1620 1.523 . S
C1620 C1601 1.368 1_545 S
C1620 C1614 1.368 . S
C1620 C1619 1.523 . S
C1621 C1605 1.429 . S
C1621 C1617 1.429 . S
C1621 C1622 1.523 . S
C1622 C1606 1.368 1_565 S
C1622 C1618 1.368 . S
C1622 C1621 1.523 . S
H1623 C1598 0.950 . S
H1624 C1600 0.950 . S
H1625 C1601 0.949 . S
H1626 C1603 0.950 . S
H1627 C1605 0.950 . S
C1628 C1629 1.349 . S
C1628 C1630 1.327 . S
C1628 H1653 0.950 . S
C1629 C1628 1.349 . S
C1629 C1645 1.349 . S
C1630 C1628 1.327 . S
C1630 C1649 1.429 . S
C1630 H1654 0.950 . S
C1631 C1648 1.574 . S
C1631 C1650 1.368 1_655 S
C1631 H1655 0.949 . S
H1632 C1636 0.949 . S
C1633 C1634 1.349 . S
C1633 C1635 1.327 . S
C1633 H1656 0.950 . S
C1634 C1633 1.349 . S
C1634 C1646 1.349 . S
C1635 C1633 1.327 . S
C1635 C1651 1.429 . S
C1635 H1657 0.950 . S
C1636 H1632 0.949 . S
C1636 C1644 1.574 . S
C1636 C1652 1.368 1_455 S
H1637 C1645 0.950 . S
H1638 C1643 0.950 1_655 S
H1639 C1644 0.949 . S
H1640 C1646 0.950 . S
H1641 C1647 0.950 1_455 S
H1642 C1648 0.949 . S
C1643 H1638 0.950 1_455 S
C1643 C1645 1.327 . S
C1643 C1649 1.429 . S
C1644 C1636 1.574 . S
C1644 H1639 0.949 . S
C1644 C1650 1.368 . S
C1645 C1629 1.349 . S
C1645 H1637 0.950 . S
C1645 C1643 1.327 . S
C1646 C1634 1.349 . S
C1646 H1640 0.950 . S
C1646 C1647 1.327 . S
C1647 H1641 0.950 1_655 S
C1647 C1646 1.327 . S
C1647 C1651 1.429 . S
C1648 C1631 1.574 . S
C1648 H1642 0.949 . S
C1648 C1652 1.368 . S
C1649 C1630 1.429 . S
C1649 C1643 1.429 . S
C1649 C1650 1.523 . S
C1650 C1631 1.368 1_455 S
C1650 C1644 1.368 . S
C1650 C1649 1.523 . S
C1651 C1635 1.429 . S
C1651 C1647 1.429 . S
C1651 C1652 1.523 . S
C1652 C1636 1.368 1_655 S
C1652 C1648 1.368 . S
C1652 C1651 1.523 . S
H1653 C1628 0.950 . S
H1654 C1630 0.950 . S
H1655 C1631 0.949 . S
H1656 C1633 0.950 . S
H1657 C1635 0.950 . S
C1658 C1659 1.349 . S
C1658 C1660 1.327 . S
C1658 H1683 0.950 . S
C1659 C1658 1.349 . S
C1659 C1675 1.349 . S
C1660 C1658 1.327 . S
C1660 C1679 1.429 . S
C1660 H1684 0.950 . S
C1661 C1678 1.574 . S
C1661 C1680 1.368 1_545 S
C1661 H1685 0.949 . S
H1662 C1666 0.949 . S
C1663 C1664 1.349 . S
C1663 C1665 1.327 . S
C1663 H1686 0.950 . S
C1664 C1663 1.349 . S
C1664 C1676 1.349 . S
C1665 C1663 1.327 . S
C1665 C1681 1.429 . S
C1665 H1687 0.950 . S
C1666 H1662 0.949 . S
C1666 C1674 1.574 . S
C1666 C1682 1.368 1_565 S
H1667 C1675 0.950 . S
H1668 C1673 0.950 1_545 S
H1669 C1674 0.949 . S
H1670 C1676 0.950 . S
H1671 C1677 0.950 1_565 S
H1672 C1678 0.949 . S
C1673 H1668 0.950 1_565 S
C1673 C1675 1.327 . S
C1673 C1679 1.429 . S
C1674 C1666 1.574 . S
C1674 H1669 0.949 . S
C1674 C1680 1.368 . S
C1675 C1659 1.349 . S
C1675 H1667 0.950 . S
C1675 C1673 1.327 . S
C1676 C1664 1.349 . S
C1676 H1670 0.950 . S
C1676 C1677 1.327 . S
C1677 H1671 0.950 1_545 S
C1677 C1676 1.327 . S
C1677 C1681 1.429 . S
C1678 C1661 1.574 . S
C1678 H1672 0.949 . S
C1678 C1682 1.368 . S
C1679 C1660 1.429 . S
C1679 C1673 1.429 . S
C1679 C1680 1.523 . S
C1680 C1661 1.368 1_565 S
C1680 C1674 1.368 . S
C1680 C1679 1.523 . S
C1681 C1665 1.429 . S
C1681 C1677 1.429 . S
C1681 C1682 1.523 . S
C1682 C1666 1.368 1_545 S
C1682 C1678 1.368 . S
C1682 C1681 1.523 . S
H1683 C1658 0.950 . S
H1684 C1660 0.950 . S
H1685 C1661 0.949 . S
H1686 C1663 0.950 . S
H1687 C1665 0.950 . S
C1688 C1689 1.349 . S
C1688 C1690 1.327 . S
C1688 H1713 0.950 . S
C1689 C1688 1.349 . S
C1689 C1705 1.349 . S
C1690 C1688 1.327 . S
C1690 C1709 1.429 . S
C1690 H1714 0.950 . S
C1691 C1708 1.574 . S
C1691 C1710 1.368 . S
C1691 H1715 0.949 . S
H1692 C1696 0.949 . S
C1693 C1694 1.349 . S
C1693 C1695 1.327 . S
C1693 H1716 0.950 . S
C1694 C1693 1.349 . S
C1694 C1706 1.349 . S
C1695 C1693 1.327 . S
C1695 C1711 1.429 . S
C1695 H1717 0.950 . S
C1696 H1692 0.949 . S
C1696 C1704 1.574 . S
C1696 C1712 1.368 . S
H1697 C1705 0.950 . S
H1698 C1703 0.950 . S
H1699 C1704 0.949 . S
H1700 C1706 0.950 . S
H1701 C1707 0.950 . S
H1702 C1708 0.949 . S
C1703 H1698 0.950 . S
C1703 C1705 1.327 . S
C1703 C1709 1.429 . S
C1704 C1696 1.574 . S
C1704 H1699 0.949 . S
C1704 C1710 1.368 . S
C1705 C1689 1.349 . S
C1705 H1697 0.950 . S
C1705 C1703 1.327 . S
C1706 C1694 1.349 . S
C1706 H1700 0.950 . S
C1706 C1707 1.327 . S
C1707 H1701 0.950 . S
C1707 C1706 1.327 . S
C1707 C1711 1.429 . S
C1708 C1691 1.574 . S
C1708 H1702 0.949 . S
C1708 C1712 1.368 . S
C1709 C1690 1.429 . S
C1709 C1703 1.429 . S
C1709 C1710 1.523 . S
C1710 C1691 1.368 . S
C1710 C1704 1.368 . S
C1710 C1709 1.523 . S
C1711 C1695 1.429 . S
C1711 C1707 1.429 . S
C1711 C1712 1.523 . S
C1712 C1696 1.368 . S
C1712 C1708 1.368 . S
C1712 C1711 1.523 . S
H1713 C1688 0.950 . S
H1714 C1690 0.950 . S
H1715 C1691 0.949 . S
H1716 C1693 0.950 . S
H1717 C1695 0.950 . S
C1718 C1719 1.349 . S
C1718 C1720 1.327 . S
C1718 H1743 0.950 . S
C1719 C1718 1.349 . S
C1719 C1735 1.349 . S
C1720 C1718 1.327 . S
C1720 C1739 1.429 . S
C1720 H1744 0.950 . S
C1721 C1738 1.574 . S
C1721 C1740 1.368 . S
C1721 H1745 0.949 . S
H1722 C1726 0.949 . S
C1723 C1724 1.349 . S
C1723 C1725 1.327 . S
C1723 H1746 0.950 . S
C1724 C1723 1.349 . S
C1724 C1736 1.349 . S
C1725 C1723 1.327 . S
C1725 C1741 1.429 . S
C1725 H1747 0.950 . S
C1726 H1722 0.949 . S
C1726 C1734 1.574 . S
C1726 C1742 1.368 . S
H1727 C1735 0.950 . S
H1728 C1733 0.950 . S
H1729 C1734 0.949 . S
H1730 C1736 0.950 . S
H1731 C1737 0.950 . S
H1732 C1738 0.949 . S
C1733 H1728 0.950 . S
C1733 C1735 1.327 . S
C1733 C1739 1.429 . S
C1734 C1726 1.574 . S
C1734 H1729 0.949 . S
C1734 C1740 1.368 . S
C1735 C1719 1.349 . S
C1735 H1727 0.950 . S
C1735 C1733 1.327 . S
C1736 C1724 1.349 . S
C1736 H1730 0.950 . S
C1736 C1737 1.327 . S
C1737 H1731 0.950 . S
C1737 C1736 1.327 . S
C1737 C1741 1.429 . S
C1738 C1721 1.574 . S
C1738 H1732 0.949 . S
C1738 C1742 1.368 . S
C1739 C1720 1.429 . S
C1739 C1733 1.429 . S
C1739 C1740 1.523 . S
C1740 C1721 1.368 . S
C1740 C1734 1.368 . S
C1740 C1739 1.523 . S
C1741 C1725 1.429 . S
C1741 C1737 1.429 . S
C1741 C1742 1.523 . S
C1742 C1726 1.368 . S
C1742 C1738 1.368 . S
C1742 C1741 1.523 . S
H1743 C1718 0.950 . S
H1744 C1720 0.950 . S
H1745 C1721 0.949 . S
H1746 C1723 0.950 . S
H1747 C1725 0.950 . S
C1748 C1749 1.349 . S
C1748 C1750 1.327 . S
C1748 H1773 0.950 . S
C1749 C1748 1.349 . S
C1749 C1765 1.349 . S
C1750 C1748 1.327 . S
C1750 C1769 1.429 . S
C1750 H1774 0.950 . S
C1751 C1768 1.574 1_545 S
C1751 C1770 1.368 . S
C1751 H1775 0.949 . S
H1752 C1756 0.949 . S
C1753 C1754 1.349 . S
C1753 C1755 1.327 . S
C1753 H1776 0.950 . S
C1754 C1753 1.349 . S
C1754 C1766 1.349 . S
C1755 C1753 1.327 . S
C1755 C1771 1.429 . S
C1755 H1777 0.950 . S
C1756 H1752 0.949 . S
C1756 C1764 1.574 1_565 S
C1756 C1772 1.368 . S
H1757 C1765 0.950 . S
H1758 C1763 0.950 . S
H1759 C1764 0.949 . S
H1760 C1766 0.950 . S
H1761 C1767 0.950 . S
H1762 C1768 0.949 . S
C1763 H1758 0.950 . S
C1763 C1765 1.327 . S
C1763 C1769 1.429 . S
C1764 C1756 1.574 1_545 S
C1764 H1759 0.949 . S
C1764 C1770 1.368 . S
C1765 C1749 1.349 . S
C1765 H1757 0.950 . S
C1765 C1763 1.327 . S
C1766 C1754 1.349 . S
C1766 H1760 0.950 . S
C1766 C1767 1.327 . S
C1767 H1761 0.950 . S
C1767 C1766 1.327 . S
C1767 C1771 1.429 . S
C1768 C1751 1.574 1_565 S
C1768 H1762 0.949 . S
C1768 C1772 1.368 . S
C1769 C1750 1.429 . S
C1769 C1763 1.429 . S
C1769 C1770 1.523 . S
C1770 C1751 1.368 . S
C1770 C1764 1.368 . S
C1770 C1769 1.523 . S
C1771 C1755 1.429 . S
C1771 C1767 1.429 . S
C1771 C1772 1.523 . S
C1772 C1756 1.368 . S
C1772 C1768 1.368 . S
C1772 C1771 1.523 . S
H1773 C1748 0.950 . S
H1774 C1750 0.950 . S
H1775 C1751 0.949 . S
H1776 C1753 0.950 . S
H1777 C1755 0.950 . S
C1778 C1779 1.349 . S
C1778 C1780 1.327 . S
C1778 H1803 0.950 . S
C1779 C1778 1.349 . S
C1779 C1795 1.349 . S
C1780 C1778 1.327 . S
C1780 C1799 1.429 . S
C1780 H1804 0.950 . S
C1781 C1798 1.574 1_655 S
C1781 C1800 1.368 . S
C1781 H1805 0.949 . S
H1782 C1786 0.949 . S
C1783 C1784 1.349 . S
C1783 C1785 1.327 . S
C1783 H1806 0.950 . S
C1784 C1783 1.349 . S
C1784 C1796 1.349 . S
C1785 C1783 1.327 . S
C1785 C1801 1.429 . S
C1785 H1807 0.950 . S
C1786 H1782 0.949 . S
C1786 C1794 1.574 1_455 S
C1786 C1802 1.368 . S
H1787 C1795 0.950 . S
H1788 C1793 0.950 . S
H1789 C1794 0.949 . S
H1790 C1796 0.950 . S
H1791 C1797 0.950 . S
H1792 C1798 0.949 . S
C1793 H1788 0.950 . S
C1793 C1795 1.327 . S
C1793 C1799 1.429 . S
C1794 C1786 1.574 1_655 S
C1794 H1789 0.949 . S
C1794 C1800 1.368 . S
C1795 C1779 1.349 . S
C1795 H1787 0.950 . S
C1795 C1793 1.327 . S
C1796 C1784 1.349 . S
C1796 H1790 0.950 . S
C1796 C1797 1.327 . S
C1797 H1791 0.950 . S
C1797 C1796 1.327 . S
C1797 C1801 1.429 . S
C1798 C1781 1.574 1_455 S
C1798 H1792 0.949 . S
C1798 C1802 1.368 . S
C1799 C1780 1.429 . S
C1799 C1793 1.429 . S
C1799 C1800 1.523 . S
C1800 C1781 1.368 . S
C1800 C1794 1.368 . S
C1800 C1799 1.523 . S
C1801 C1785 1.429 . S
C1801 C1797 1.429 . S
C1801 C1802 1.523 . S
C1802 C1786 1.368 . S
C1802 C1798 1.368 . S
C1802 C1801 1.523 . S
H1803 C1778 0.950 . S
H1804 C1780 0.950 . S
H1805 C1781 0.949 . S
H1806 C1783 0.950 . S
H1807 C1785 0.950 . S
C849 C22 1.674 . S
C854 C621 1.717 . S
C879 C463 1.717 . S
C884 C82 1.674 . S
C909 C515 1.717 . S
C914 C128 1.674 . S
C939 C569 1.717 . S
C944 C188 1.674 . S
C969 C303 1.738 . S
C974 C234 1.674 . S
C999 C294 1.674 . S
C1004 C357 1.738 . S
C1029 C340 1.674 . S
C1034 C409 1.738 . S
C1059 C400 1.674 . S
C1064 C251 1.738 . S
C1089 C446 1.674 . S
C1094 C197 1.738 . S
C1119 C39 1.738 . S
C1124 C506 1.674 . S
C1149 C91 1.738 . S
C1154 C552 1.674 . S
C1179 C145 1.738 . S
C1184 C612 1.674 . S
C1209 C727 1.717 . S
C1214 C658 1.674 . S
C1239 C718 1.674 . S
C1244 C781 1.717 . S
C1269 C833 1.717 . S
C1274 C764 1.674 . S
C1299 C675 1.717 . S
C1304 C824 1.674 . S
C1329 C780 2.180 . S
C1334 C38 2.180 . S
C1359 C834 2.180 . S
C1364 C92 2.180 . S
C1389 C674 2.180 . S
C1394 C144 2.180 . S
C1419 C198 2.180 . S
C1424 C728 2.180 . S
C1449 C250 2.180 . S
C1454 C568 2.180 . S
C1479 C622 2.180 . S
C1484 C304 2.180 . S
C1509 C356 2.180 . S
C1514 C462 2.180 . S
C1539 C410 2.180 . S
C1544 C516 2.180 . S
C1569 C135 2.049 . S
C1574 C29 2.049 . S
C1599 C181 2.049 . S
C1604 C75 2.049 . S
C1629 C241 2.049 . S
C1634 C347 2.049 . S
C1659 C287 2.049 . S
C1664 C393 2.049 . S
C1689 C559 2.049 . S
C1694 C453 2.049 . S
C1719 C499 2.049 . S
C1724 C605 2.049 . S
C1749 C771 2.049 . S
C1754 C665 2.049 . S
C1779 C711 2.049 . S
C1784 C817 2.049 . S
