# Generated by pormake.
# Topology sml, (6)-cn, num edge types: 1
# Building blocks:
#     Node 0, Type 0, BuildingBlock: CUWYAW_clean_sbu_0, # of connection points: 6
#     Node 1, Type 0, BuildingBlock: CUWYAW_clean_sbu_0, # of connection points: 6
#     Node 2, Type 0, BuildingBlock: CUWYAW_clean_sbu_0, # of connection points: 6
#     Node 3, Type 0, BuildingBlock: CUWYAW_clean_sbu_0, # of connection points: 6
#     Node 4, Type 0, BuildingBlock: CUWYAW_clean_sbu_0, # of connection points: 6
#     Node 5, Type 0, BuildingBlock: CUWYAW_clean_sbu_0, # of connection points: 6
#     Edge 6, Type (0, 0), BuildingBlock: EZIPEK_clean_linker_0, # of connection points: 2
#     Edge 7, Type (0, 0), BuildingBlock: EZIPEK_clean_linker_0, # of connection points: 2
#     Edge 8, Type (0, 0), BuildingBlock: EZIPEK_clean_linker_0, # of connection points: 2
#     Edge 9, Type (0, 0), BuildingBlock: EZIPEK_clean_linker_0, # of connection points: 2
#     Edge 10, Type (0, 0), BuildingBlock: EZIPEK_clean_linker_0, # of connection points: 2
#     Edge 11, Type (0, 0), BuildingBlock: EZIPEK_clean_linker_0, # of connection points: 2
#     Edge 12, Type (0, 0), BuildingBlock: EZIPEK_clean_linker_0, # of connection points: 2
#     Edge 13, Type (0, 0), BuildingBlock: EZIPEK_clean_linker_0, # of connection points: 2
#     Edge 14, Type (0, 0), BuildingBlock: EZIPEK_clean_linker_0, # of connection points: 2
#     Edge 15, Type (0, 0), BuildingBlock: EZIPEK_clean_linker_0, # of connection points: 2
#     Edge 16, Type (0, 0), BuildingBlock: EZIPEK_clean_linker_0, # of connection points: 2
#     Edge 17, Type (0, 0), BuildingBlock: EZIPEK_clean_linker_0, # of connection points: 2
#     Edge 18, Type (0, 0), BuildingBlock: EZIPEK_clean_linker_0, # of connection points: 2
#     Edge 19, Type (0, 0), BuildingBlock: EZIPEK_clean_linker_0, # of connection points: 2
#     Edge 20, Type (0, 0), BuildingBlock: EZIPEK_clean_linker_0, # of connection points: 2
#     Edge 21, Type (0, 0), BuildingBlock: EZIPEK_clean_linker_0, # of connection points: 2
#     Edge 22, Type (0, 0), BuildingBlock: EZIPEK_clean_linker_0, # of connection points: 2
#     Edge 23, Type (0, 0), BuildingBlock: EZIPEK_clean_linker_0, # of connection points: 2
# Relax obj value: 0.307
# Max RMSD: 0.297
# Mean RMSD: 0.297
data_MOF--net-sml--node1-CUWYAW_clean_sbu_0--edge1-EZIPEK_clean_linker_0
_symmetry_space_group_name_H-M    P1
_symmetry_Int_Tables_number       1
_symmetry_cell_setting            triclinic
loop_
_symmetry_equiv_pos_as_xyz
'x, y, z'
_cell_length_a     21.794836
_cell_length_b     21.759618
_cell_length_c     20.49256
_cell_angle_alpha  90.114701
_cell_angle_beta   89.766437
_cell_angle_gamma 119.95362
loop_
_atom_site_label
_atom_site_type_symbol
_atom_site_fract_x
_atom_site_fract_y
_atom_site_fract_z
_atom_type_partial_charge
C0 C 0.30806 0.41265 0.23309 0.0
Eu1 Eu 0.24749 0.40578 0.12113 0.0
C2 C 0.28767 0.41227 0.30197 0.0
C3 C 0.33927 0.43704 0.35109 0.0
C4 C 0.32025 0.43804 0.41639 0.0
C5 C 0.24906 0.4129 0.43362 0.0
C6 C 0.19766 0.38857 0.38427 0.0
C7 C 0.21705 0.38966 0.31896 0.0
C8 C 0.31676 0.50373 1.02527 0.0
C9 C 0.15955 0.48705 0.14304 0.0
C10 C 0.09474 0.39888 0.90265 0.0
Eu11 Eu 0.15236 0.40333 1.0155 0.0
C12 C 0.11816 0.40191 0.83448 0.0
C13 C 0.06931 0.38252 0.78341 0.0
C14 C 0.09084 0.38374 0.71867 0.0
C15 C 0.16176 0.40495 0.70407 0.0
C16 C 0.21056 0.42393 0.75531 0.0
C17 C 0.18876 0.42178 0.82004 0.0
C18 C 0.08078 0.3088 0.11164 0.0
C19 C 0.24917 0.32931 0.99268 0.0
O20 O 0.27137 0.35381 0.20031 0.0
O21 O 0.31969 0.46826 0.19933 0.0
O22 O 0.3411 0.46776 0.05446 0.0
O23 O 0.25707 0.48724 0.04892 0.0
O24 O 0.18208 0.44699 0.16969 0.0
O25 O 0.1499 0.48691 0.07942 0.0
O26 O 0.08259 0.34245 0.93532 0.0
O27 O 0.12955 0.45672 0.93709 0.0
O28 O 0.05832 0.34572 0.08097 0.0
O29 O 0.1401 0.32118 0.08902 0.0
O30 O 0.2207 0.36486 0.96742 0.0
O31 O 0.25829 0.32806 0.05616 0.0
H32 H 0.39427 0.45593 0.33891 0.0
H33 H 0.36081 0.45753 0.45363 0.0
H34 H 0.14267 0.36982 0.39633 0.0
H35 H 0.17687 0.37315 0.28172 0.0
H36 H 0.01451 0.36613 0.79371 0.0
H37 H 0.05236 0.36846 0.67986 0.0
H38 H 0.26543 0.44023 0.74514 0.0
H39 H 0.22715 0.43609 0.85875 0.0
C40 C 0.88126 0.2954 0.52743 0.0
Eu41 Eu 0.82309 0.24149 0.41466 0.0
C42 C 0.85594 0.27529 0.59561 0.0
C43 C 0.89377 0.3203 0.64764 0.0
C44 C 0.86884 0.30223 0.71203 0.0
C45 C 0.8053 0.23913 0.7254 0.0
C46 C 0.76709 0.19452 0.67329 0.0
C47 C 0.79226 0.21232 0.60911 0.0
C48 C 0.82791 0.31818 0.30842 0.0
C49 C 0.65541 0.18905 0.44065 0.0
C50 C 0.64733 0.12035 0.19776 0.0
Eu51 Eu 0.71156 0.15928 0.31057 0.0
C52 C 0.66752 0.135 0.12772 0.0
C53 C 0.6426 0.07889 0.08253 0.0
C54 C 0.66103 0.09225 1.01617 0.0
C55 C 0.70521 0.16204 0.99387 0.0
C56 C 0.72918 0.21793 0.03892 0.0
C57 C 0.71086 0.20473 0.10504 0.0
C58 C 0.71199 0.07716 0.41045 0.0
C59 C 0.87438 0.18852 0.29418 0.0
O60 O 0.89418 0.25154 0.49449 0.0
O61 O 0.84713 0.31883 0.49255 0.0
O62 O 0.88339 0.33022 0.34148 0.0
O63 O 0.77264 0.272 0.33697 0.0
O64 O 0.71613 0.19943 0.4641 0.0
O65 O 0.64312 0.18256 0.37735 0.0
O66 O 0.65162 0.17285 0.23262 0.0
O67 O 0.66979 0.08336 0.22959 0.0
O68 O 0.65558 0.06562 0.37866 0.0
O69 O 0.76589 0.12841 0.38499 0.0
O70 O 0.81625 0.18164 0.26686 0.0
O71 O 0.88853 0.20696 0.35627 0.0
H72 H 0.94242 0.36957 0.63843 0.0
H73 H 0.89873 0.33767 0.75145 0.0
H74 H 0.71802 0.14561 0.6824 0.0
H75 H 0.76182 0.17673 0.57012 0.0
H76 H 0.60886 0.02467 0.0986 0.0
H77 H 0.64144 0.04819 0.98232 0.0
H78 H 0.7618 0.27195 1.0224 0.0
H79 H 0.73041 0.24918 0.13833 0.0
C80 C 0.60509 0.88953 0.88154 0.0
Eu81 Eu 0.57249 0.83336 0.76521 0.0
C82 C 0.59043 0.86015 0.94941 0.0
C83 C 0.52504 0.80028 0.96617 0.0
C84 C 0.51172 0.77294 0.03 0.0
C85 C 0.56315 0.80509 0.07894 0.0
C86 C 0.62826 0.86522 0.06259 0.0
C87 C 0.64178 0.89232 0.99852 0.0
C88 C 0.48396 0.82672 0.67114 0.0
C89 C 0.45672 0.66719 0.79556 0.0
C90 C 0.47901 0.63684 0.55186 0.0
Eu91 Eu 0.53606 0.71323 0.65623 0.0
C92 C 0.49104 0.65253 0.48049 0.0
C93 C 0.55945 0.696 0.45471 0.0
C94 C 0.56905 0.71721 0.38886 0.0
C95 C 0.51059 0.69573 0.34724 0.0
C96 C 0.44234 0.65078 0.37255 0.0
C97 C 0.43272 0.62978 0.43843 0.0
C98 C 0.65469 0.753 0.72895 0.0
C99 C 0.64213 0.87937 0.62025 0.0
O100 O 0.64872 0.8783 0.84557 0.0
O101 O 0.55041 0.882 0.84829 0.0
O102 O 0.52036 0.88315 0.70692 0.0
O103 O 0.48936 0.77564 0.69415 0.0
O104 O 0.48136 0.73506 0.80806 0.0
O105 O 0.47257 0.64338 0.74181 0.0
O106 O 0.45281 0.67116 0.58291 0.0
O107 O 0.52839 0.63353 0.58577 0.0
O108 O 0.64711 0.72938 0.66925 0.0
O109 O 0.59719 0.74835 0.74663 0.0
O110 O 0.60997 0.81213 0.60416 0.0
O111 O 0.64394 0.9015 0.68153 0.0
H112 H 0.48391 0.77444 0.92998 0.0
H113 H 0.46104 0.72677 0.0413 0.0
H114 H 0.66865 0.89121 0.09949 0.0
H115 H 0.69235 0.93872 0.98739 0.0
H116 H 0.60544 0.71542 0.48591 0.0
H117 H 0.62218 0.75178 0.37069 0.0
H118 H 0.39636 0.63326 0.34163 0.0
H119 H 0.37939 0.59699 0.45699 0.0
C120 C 0.72913 0.63745 0.19764 0.0
Eu121 Eu 0.76279 0.6118 0.08213 0.0
C122 C 0.74547 0.63032 0.26704 0.0
C123 C 0.69377 0.5773 0.30744 0.0
C124 C 0.70929 0.56968 0.37242 0.0
C125 C 0.77663 0.61537 0.39865 0.0
C126 C 0.82801 0.66885 0.35873 0.0
C127 C 0.81264 0.67641 0.29386 0.0
C128 C 0.69856 0.52196 0.98123 0.0
C129 C 0.82338 0.50343 0.1052 0.0
C130 C 0.91251 0.5872 0.8664 0.0
Eu131 Eu 0.86616 0.60608 0.97756 0.0
C132 C 0.8957 0.59224 0.79715 0.0
C133 C 0.90357 0.65572 0.77124 0.0
C134 C 0.88328 0.65829 0.707 0.0
C135 C 0.85408 0.59742 0.6675 0.0
C136 C 0.8467 0.53418 0.69312 0.0
C137 C 0.8677 0.53174 0.75714 0.0
C138 C 0.93234 0.68694 0.08144 0.0
C139 C 0.77879 0.69403 0.9499 0.0
O140 O 0.78117 0.68515 0.16199 0.0
O141 O 0.68908 0.57904 0.16499 0.0
O142 O 0.66761 0.54765 1.01812 0.0
O143 O 0.75636 0.53512 1.00713 0.0
O144 O 0.77827 0.52473 0.11997 0.0
O145 O 0.86328 0.5257 0.05144 0.0
O146 O 0.86249 0.53502 0.9003 0.0
O147 O 0.94493 0.64656 0.89965 0.0
O148 O 0.96097 0.6602 0.04345 0.0
O149 O 0.87594 0.67926 0.05575 0.0
O150 O 0.82514 0.67469 0.93158 0.0
O151 O 0.7499 0.68101 1.00876 0.0
H152 H 0.64141 0.54138 0.28864 0.0
H153 H 0.66877 0.52808 0.40229 0.0
H154 H 0.88023 0.70481 0.37783 0.0
H155 H 0.85373 0.71822 0.26468 0.0
H156 H 0.92463 0.7033 0.80071 0.0
H157 H 0.8899 0.70773 0.68817 0.0
H158 H 0.82442 0.48657 0.66354 0.0
H159 H 0.8607 0.48209 0.77585 0.0
C160 C 0.08678 0.72462 0.55748 0.0
Eu161 Eu 0.146 0.75335 0.44293 0.0
C162 C 0.11409 0.73692 0.62491 0.0
C163 C 0.17533 0.73378 0.64047 0.0
C164 C 0.20192 0.74738 0.7041 0.0
C165 C 0.16835 0.76531 0.75303 0.0
C166 C 0.10639 0.76708 0.73783 0.0
C167 C 0.07947 0.75293 0.67422 0.0
C168 C 0.14188 0.66653 0.34368 0.0
C169 C 0.31337 0.79652 0.44908 0.0
C170 C 0.32927 0.88957 0.22006 0.0
Eu171 Eu 0.25302 0.84527 0.32586 0.0
C172 C 0.31298 0.87591 0.14946 0.0
C173 C 0.27852 0.90644 0.11581 0.0
C174 C 0.25836 0.88868 0.05069 0.0
C175 C 0.27235 0.84029 1.01804 0.0
C176 C 0.30867 0.81144 0.05055 0.0
C177 C 0.32921 0.82952 0.11558 0.0
C178 C 0.2359 0.91873 0.4259 0.0
C179 C 0.08493 0.78929 0.31427 0.0
O180 O 0.09857 0.78092 0.52397 0.0
O181 O 0.0968 0.67953 0.52304 0.0
O182 O 0.10655 0.64396 0.39796 0.0
O183 O 0.17696 0.73342 0.34691 0.0
O184 O 0.2497 0.76613 0.47641 0.0
O185 O 0.32767 0.82968 0.39197 0.0
O186 O 0.32314 0.83634 0.25491 0.0
O187 O 0.30434 0.9256 0.25044 0.0
O188 O 0.25367 0.94352 0.36698 0.0
O189 O 0.23541 0.86097 0.42854 0.0
O190 O 0.14462 0.80541 0.28346 0.0
O191 O 0.07631 0.77767 0.37815 0.0
H192 H 0.20309 0.72145 0.60339 0.0
H193 H 0.24937 0.74517 0.715 0.0
H194 H 0.07942 0.78026 0.77506 0.0
H195 H 0.03226 0.75555 0.66326 0.0
H196 H 0.26589 0.94308 0.13997 0.0
H197 H 0.23075 0.91172 1.02605 0.0
H198 H 0.3204 0.77442 1.02581 0.0
H199 H 0.3567 0.80624 0.13977 0.0
C200 C 0.35714 0.07946 0.87605 0.0
Eu201 Eu 0.39059 0.14593 0.76434 0.0
C202 C 0.37398 0.09927 0.94577 0.0
C203 C 0.44372 0.14526 0.96683 0.0
C204 C 0.45733 0.1675 0.03214 0.0
C205 C 0.40156 0.14407 0.07746 0.0
C206 C 0.33228 0.09651 0.05694 0.0
C207 C 0.31865 0.07445 0.9917 0.0
C208 C 0.47249 0.14949 0.66243 0.0
C209 C 0.51816 0.30853 0.79286 0.0
C210 C 0.47273 0.32689 0.54338 0.0
Eu211 Eu 0.43134 0.26624 0.65683 0.0
C212 C 0.4634 0.30052 0.47486 0.0
C213 C 0.39747 0.27204 0.44326 0.0
C214 C 0.38897 0.24647 0.37919 0.0
C215 C 0.44621 0.24903 0.34506 0.0
C216 C 0.51215 0.27743 0.37626 0.0
C217 C 0.52066 0.30296 0.44046 0.0
C218 C 0.35517 0.27337 0.75715 0.0
C219 C 0.29522 0.1035 0.63677 0.0
O220 O 0.3186 0.1023 0.84748 0.0
O221 O 0.40808 0.08422 0.83828 0.0
O222 O 0.42781 0.09057 0.69187 0.0
O223 O 0.47483 0.20134 0.69184 0.0
O224 O 0.4792 0.24208 0.81159 0.0
O225 O 0.5135 0.33095 0.73356 0.0
O226 O 0.5127 0.31282 0.58111 0.0
O227 O 0.41646 0.31993 0.57386 0.0
O228 O 0.39092 0.32589 0.71696 0.0
O229 O 0.35121 0.21739 0.73378 0.0
O230 O 0.3445 0.16437 0.61117 0.0
O231 O 0.29767 0.08651 0.69821 0.0
H232 H 0.48751 0.16552 0.9326 0.0
H233 H 0.5112 0.204 0.04705 0.0
H234 H 0.28857 0.07772 0.09117 0.0
H235 H 0.26452 0.03897 0.97677 0.0
H236 H 0.35223 0.26932 0.46797 0.0
H237 H 0.33768 0.22485 0.35607 0.0
H238 H 0.55705 0.27998 0.35083 0.0
H239 H 0.57212 0.32462 0.46325 0.0
C240 C 0.37301 0.34133 0.86316 0.0
C241 C 0.32923 0.28135 0.82281 0.0
C242 C 0.23416 0.24237 0.90532 0.0
C243 C 0.27978 0.30008 0.94563 0.0
N244 N 0.39846 0.38777 0.97328 0.0
N245 N 0.21893 0.17042 0.80973 0.0
C246 C 0.35105 0.34401 0.92777 0.0
C247 C 0.26048 0.22983 0.84574 0.0
N248 N 0.43556 0.39658 0.84103 0.0
N249 N 0.16461 0.20161 0.92283 0.0
H250 H 0.23088 0.16285 0.76225 0.0
H251 H 0.17316 0.12701 0.82792 0.0
H252 H 0.14537 0.20739 0.96782 0.0
H253 H 0.12567 0.16447 0.89225 0.0
H254 H 0.4625 0.44484 0.86565 0.0
H255 H 0.45982 0.3975 0.79723 0.0
H256 H 0.45276 0.41817 0.96471 0.0
H257 H 0.38464 0.38587 1.02224 0.0
C258 C 0.0516 0.23809 0.21541 0.0
C259 C 0.03168 0.24694 0.15227 0.0
C260 C 0.90847 0.16889 0.18272 0.0
C261 C 0.92775 0.18628 0.24912 0.0
N262 N 0.01881 0.21371 0.32962 0.0
N263 N 0.94081 0.2042 0.07022 0.0
C264 C -0.00013 0.21312 0.26624 0.0
C265 C 0.95982 0.2062 0.13387 0.0
N266 N 0.11778 0.24852 0.22494 0.0
N267 N 0.84211 0.11582 0.16703 0.0
H268 H 0.97824 0.22529 0.03269 0.0
H269 H 0.88842 0.18321 0.05548 0.0
H270 H 0.8062 0.08375 0.20287 0.0
H271 H 0.82626 0.09837 0.11942 0.0
H272 H 0.13478 0.23821 0.26889 0.0
H273 H 0.15155 0.25803 0.18541 0.0
H274 H 0.0712 0.24086 0.34533 0.0
H275 H 0.98195 0.18482 0.36588 0.0
C276 C 0.66201 0.95298 0.44679 0.0
C277 C 0.71217 0.02433 0.45661 0.0
C278 C 0.73277 -0.00307 0.56795 0.0
C279 C 0.66996 0.92937 0.56321 0.0
N280 N 0.56977 0.84714 0.49384 0.0
N281 N 0.82095 0.10188 0.51046 0.0
C282 C 0.63401 0.90765 0.50116 0.0
C283 C 0.75514 0.04367 0.51296 0.0
N284 N 0.64295 0.92797 0.38459 0.0
N285 N 0.77159 0.01612 0.62407 0.0
H286 H 0.84216 0.12774 0.46652 0.0
H287 H 0.8578 0.11806 0.54799 0.0
H288 H 0.76445 0.98026 0.66093 0.0
H289 H 0.81077 0.0679 0.63442 0.0
H290 H 0.61321 0.87415 0.37352 0.0
H291 H 0.66561 0.96025 0.34374 0.0
H292 H 0.54102 0.83417 0.45066 0.0
H293 H 0.53843 0.81406 0.53099 0.0
C294 C 0.66528 0.67059 0.80472 0.0
C295 C 0.69662 0.73933 0.77751 0.0
C296 C 0.7869 0.78203 0.86383 0.0
C297 C 0.74741 0.7161 0.89657 0.0
N298 N 0.63472 0.60891 0.90664 0.0
N299 N 0.78512 0.86302 0.78295 0.0
C300 C 0.68297 0.66309 0.86907 0.0
C301 C 0.75718 0.79603 0.80746 0.0
N302 N 0.6155 0.61302 0.77108 0.0
N303 N 0.85197 0.83099 0.88672 0.0
H304 H 0.76596 0.87377 0.74041 0.0
H305 H 0.82456 0.90779 0.80644 0.0
H306 H 0.87289 0.82314 0.92957 0.0
H307 H 0.88615 0.87729 0.86157 0.0
H308 H 0.59595 0.56116 0.78746 0.0
H309 H 0.59935 0.61629 0.72408 0.0
H310 H 0.58642 0.56838 0.88934 0.0
H311 H 0.63584 0.61485 0.9569 0.0
C312 C 0.98531 0.69211 0.25879 0.0
C313 C 0.02227 0.76498 0.27177 0.0
C314 C 0.97938 0.78437 0.16727 0.0
C315 C 0.95908 0.71367 0.14843 0.0
N316 N 0.96718 0.60866 0.17509 0.0
N317 N 0.05468 0.88309 0.23893 0.0
C318 C 0.96855 0.66954 0.19369 0.0
C319 C 0.01846 0.81206 0.22646 0.0
N320 N 0.96976 0.64442 0.30779 0.0
N321 N 0.96453 0.82573 0.12791 0.0
H322 H 0.08087 0.90321 0.28315 0.0
H323 H 0.06084 0.92132 0.20495 0.0
H324 H 0.93926 0.80834 0.08304 0.0
H325 H 0.97314 0.87547 0.14192 0.0
H326 H 0.93783 0.59009 0.30011 0.0
H327 H 0.98101 0.65964 0.35651 0.0
H328 H 0.97886 0.57886 0.20719 0.0
H329 H 0.96336 0.592 0.12721 0.0
C330 C 0.23173 0.97751 0.60109 0.0
C331 C 0.24594 0.04719 0.59061 0.0
C332 C 0.21882 0.01659 0.47492 0.0
C333 C 0.2321 0.95919 0.48361 0.0
N334 N 0.26916 0.89886 0.56087 0.0
N335 N 0.23658 0.12864 0.51797 0.0
C336 C 0.24161 0.94169 0.54845 0.0
C337 C 0.23387 0.06533 0.52741 0.0
N338 N 0.21218 0.94672 0.66097 0.0
N339 N 0.1899 0.02323 0.41826 0.0
H340 H 0.24029 0.16113 0.5571 0.0
H341 H 0.23638 0.14886 0.47198 0.0
H342 H 0.17222 0.98508 0.38149 0.0
H343 H 0.17539 0.06164 0.41119 0.0
H344 H 0.19874 0.89415 0.6684 0.0
H345 H 0.19933 0.97004 0.69922 0.0
H346 H 0.27883 0.88829 0.6082 0.0
H347 H 0.29546 0.88665 0.52552 0.0
C348 C 0.18812 0.4603 0.59208 0.0
C349 C 0.18497 0.40753 0.63494 0.0
C350 C 0.22834 0.36142 0.54723 0.0
C351 C 0.22792 0.41178 0.50333 0.0
N352 N 0.20102 0.50467 0.48128 0.0
N353 N 0.19155 0.30136 0.65189 0.0
C354 C 0.20559 0.45971 0.525 0.0
C355 C 0.20273 0.3566 0.61224 0.0
N356 N 0.1771 0.51269 0.61632 0.0
N357 N 0.25288 0.31776 0.52663 0.0
H358 H 0.17225 0.29552 0.69946 0.0
H359 H 0.19598 0.25813 0.63649 0.0
H360 H 0.26561 0.31451 0.47815 0.0
H361 H 0.26432 0.28734 0.55805 0.0
H362 H 0.18284 0.55563 0.58927 0.0
H363 H 0.16651 0.51621 0.66543 0.0
H364 H 0.17541 0.53322 0.49108 0.0
H365 H 0.22004 0.51129 0.43355 0.0
C366 C 0.77291 0.15538 0.89557 0.0
C367 C 0.72741 0.17772 0.92362 0.0
C368 C 0.7391 0.24612 0.82418 0.0
C369 C 0.77927 0.21875 0.79407 0.0
N370 N 0.82646 0.13944 0.79762 0.0
N371 N 0.65532 0.23215 0.90919 0.0
C372 C 0.79347 0.17072 0.8287 0.0
C373 C 0.70711 0.21965 0.88628 0.0
N374 N 0.79953 0.12265 0.9336 0.0
N375 N 0.73293 0.29882 0.79427 0.0
H376 H 0.62947 0.21222 0.95364 0.0
H377 H 0.6331 0.25614 0.88147 0.0
H378 H 0.75555 0.31963 0.74893 0.0
H379 H 0.71109 0.32632 0.81706 0.0
H380 H 0.83928 0.11264 0.91814 0.0
H381 H 0.78641 0.11072 0.98269 0.0
H382 H 0.8305 0.09758 0.81749 0.0
H383 H 0.84557 0.15187 0.74991 0.0
C384 C 0.50645 0.7764 0.25976 0.0
C385 C 0.52106 0.72172 0.27762 0.0
C386 C 0.56467 0.72286 0.16578 0.0
C387 C 0.54836 0.77612 0.14749 0.0
N388 N 0.49801 0.84948 0.17415 0.0
N389 N 0.55334 0.63504 0.24567 0.0
C390 C 0.51753 0.80163 0.19379 0.0
C391 C 0.54734 0.69289 0.22998 0.0
N392 N 0.48351 0.80536 0.3065 0.0
N393 N 0.59825 0.70205 0.12195 0.0
H394 H 0.54126 0.61188 0.29191 0.0
H395 H 0.56499 0.60639 0.21208 0.0
H396 H 0.60967 0.72103 0.07416 0.0
H397 H 0.61881 0.66939 0.13355 0.0
H398 H 0.47894 0.85022 0.29961 0.0
H399 H 0.47221 0.78666 0.3543 0.0
H400 H 0.46978 0.8663 0.20289 0.0
H401 H 0.50685 0.87024 0.127 0.0
C402 C 0.77698 0.61492 0.58602 0.0
C403 C 0.83252 0.60026 0.59881 0.0
C404 C 0.84266 0.58423 0.48144 0.0
C405 C 0.79376 0.60774 0.46797 0.0
N406 N 0.72183 0.65564 0.50778 0.0
N407 N 0.92664 0.58289 0.55746 0.0
C408 C 0.76283 0.62581 0.52042 0.0
C409 C 0.8676 0.58808 0.54615 0.0
N410 N 0.73601 0.6159 0.63625 0.0
N411 N 0.86377 0.55604 0.43272 0.0
H412 H 0.94857 0.58819 0.60368 0.0
H413 H 0.9579 0.58015 0.52032 0.0
H414 H 0.84653 0.5522 0.38502 0.0
H415 H 0.89268 0.53045 0.44063 0.0
H416 H 0.69033 0.61901 0.6293 0.0
H417 H 0.7437 0.60679 0.68467 0.0
H418 H 0.70415 0.6769 0.54392 0.0
H419 H 0.71039 0.66475 0.46061 0.0
C420 C 0.26232 0.84651 0.83277 0.0
C421 C 0.19793 0.78239 0.82041 0.0
C422 C 0.18222 0.75658 0.93786 0.0
C423 C 0.24784 0.8191 0.94983 0.0
N424 N 0.35643 0.91733 0.90928 0.0
N425 N 0.1047 0.66922 0.85894 0.0
C426 C 0.28976 0.86218 0.89737 0.0
C427 C 0.16018 0.73531 0.8724 0.0
N428 N 0.29595 0.89373 0.78325 0.0
N429 N 0.14003 0.71857 0.98916 0.0
H430 H 0.0875 0.65152 0.81157 0.0
H431 H 0.07972 0.62963 0.89393 0.0
H432 H 0.15499 0.73153 0.03779 0.0
H433 H 0.08818 0.67725 0.98381 0.0
H434 H 0.33798 0.94492 0.79032 0.0
H435 H 0.27924 0.8836 0.73497 0.0
H436 H 0.39298 0.94568 0.8727 0.0
H437 H 0.37751 0.93149 0.95612 0.0
C438 C 0.42949 0.263 0.22527 0.0
C439 C 0.43702 0.22296 0.27614 0.0
C440 C 0.42891 0.13505 0.19558 0.0
C441 C 0.41499 0.17177 0.14583 0.0
N442 N 0.39186 0.26503 0.11437 0.0
N443 N 0.43364 0.11575 0.31173 0.0
C444 C 0.41246 0.23423 0.16101 0.0
C445 C 0.43423 0.15764 0.26179 0.0
N446 N 0.44076 0.32957 0.23803 0.0
N447 N 0.43794 0.07908 0.17934 0.0
H448 H 0.43694 0.13027 0.36068 0.0
H449 H 0.42416 0.06427 0.30526 0.0
H450 H 0.43226 0.05978 0.13179 0.0
H451 H 0.45608 0.05507 0.21189 0.0
H452 H 0.44355 0.36452 0.20196 0.0
H453 H 0.4534 0.35251 0.28433 0.0
H454 H 0.38107 0.30568 0.12412 0.0
H455 H 0.37991 0.24622 0.06661 0.0
C456 C 0.20714 0.60413 0.19805 0.0
C457 C 0.14943 0.53506 0.18738 0.0
C458 C 0.08478 0.55148 0.27768 0.0
C459 C 0.14462 0.6197 0.29109 0.0
N460 N 0.27142 0.69214 0.28039 0.0
N461 N 0.04263 0.43589 0.2292 0.0
C462 C 0.20827 0.64153 0.2554 0.0
C463 C 0.09089 0.50673 0.23058 0.0
N464 N 0.26266 0.63282 0.15515 0.0
N465 N 0.02138 0.52856 0.30864 0.0
H466 H 0.0432 0.40163 0.19391 0.0
H467 H 0.00608 0.41033 0.26659 0.0
H468 H 0.01265 0.55592 0.34554 0.0
H469 H 0.97481 0.4838 0.29375 0.0
H470 H 0.30432 0.68476 0.1588 0.0
H471 H 0.26427 0.60652 0.11315 0.0
H472 H 0.32021 0.705 0.2598 0.0
H473 H 0.27556 0.71382 0.32655 0.0
C474 C 0.62634 0.23181 0.5424 0.0
C475 C 0.60165 0.18336 0.48956 0.0
C476 C 0.48687 0.11576 0.54618 0.0
C477 C 0.51669 0.15743 0.60338 0.0
N478 N 0.62151 0.24658 0.65849 0.0
N479 N 0.50718 0.07628 0.44166 0.0
C480 C 0.5882 0.2133 0.60207 0.0
C481 C 0.53123 0.12488 0.49108 0.0
N482 N 0.68585 0.29666 0.535 0.0
N483 N 0.41599 0.06863 0.54361 0.0
H484 H 0.53709 0.07976 0.40077 0.0
H485 H 0.4583 0.02983 0.44247 0.0
H486 H 0.38261 0.05752 0.58349 0.0
H487 H 0.38933 0.0445 0.50073 0.0
H488 H 0.70282 0.33665 0.57 0.0
H489 H 0.71306 0.31328 0.49068 0.0
H490 H 0.67542 0.2834 0.66038 0.0
H491 H 0.59774 0.23157 0.70437 0.0
C492 C 0.42925 0.58451 0.96347 0.0
C493 C 0.35524 0.55624 0.9718 0.0
C494 C 0.34759 0.59506 0.86142 0.0
C495 C 0.42053 0.62006 0.85165 0.0
N496 N 0.5344 0.66439 0.90318 0.0
N497 N 0.25981 0.57668 0.94275 0.0
C498 C 0.46254 0.62158 0.90525 0.0
C499 C 0.31822 0.57316 0.92491 0.0
N500 N 0.46898 0.5799 1.01255 0.0
N501 N 0.30691 0.59477 0.8108 0.0
H502 H 0.24326 0.5719 0.99109 0.0
H503 H 0.23475 0.59512 0.9117 0.0
H504 H 0.32708 0.60998 0.76364 0.0
H505 H 0.25233 0.57371 0.81461 0.0
H506 H 0.52001 0.58844 1.0053 0.0
H507 H 0.45163 0.56955 0.06085 0.0
H508 H 0.56614 0.6783 0.9446 0.0
H509 H 0.56177 0.6918 0.86157 0.0
C510 C 0.80154 0.41109 0.26873 0.0
C511 C 0.82893 0.36565 0.2558 0.0
C512 C 0.85122 0.40654 0.14135 0.0
C513 C 0.83027 0.45733 0.15614 0.0
N514 N 0.81084 0.52266 0.24254 0.0
N515 N 0.89305 0.32991 0.18336 0.0
C516 C 0.81223 0.46351 0.22222 0.0
C517 C 0.85858 0.36699 0.19334 0.0
N518 N 0.76796 0.40682 0.32654 0.0
N519 N 0.86084 0.39318 0.0781 0.0
H520 H 0.90087 0.30221 0.2205 0.0
H521 H 0.9209 0.33312 0.14092 0.0
H522 H 0.84843 0.41431 0.03821 0.0
H523 H 0.87347 0.35474 0.06443 0.0
H524 H 0.73789 0.43135 0.33409 0.0
H525 H 0.76582 0.37534 0.36568 0.0
H526 H 0.79742 0.52946 0.28946 0.0
H527 H 0.8325 0.56955 0.21592 0.0
C528 C 0.35117 0.74314 0.53477 0.0
C529 C 0.37036 0.80033 0.49167 0.0
C530 C 0.46607 0.87864 0.5657 0.0
C531 C 0.4421 0.82185 0.61187 0.0
N532 N 0.34724 0.70718 0.64631 0.0
N533 N 0.4656 0.91141 0.45284 0.0
C534 C 0.38092 0.75585 0.59784 0.0
C535 C 0.43293 0.86552 0.50333 0.0
N536 N 0.30533 0.67588 0.51421 0.0
N537 N 0.52025 0.94507 0.58017 0.0
H538 H 0.44749 0.90023 0.40504 0.0
H539 H 0.51656 0.95493 0.45591 0.0
H540 H 0.55178 0.95796 0.62134 0.0
H541 H 0.53179 0.98953 0.55221 0.0
H542 H 0.29646 0.63129 0.54059 0.0
H543 H 0.28422 0.66541 0.46714 0.0
H544 H 0.29894 0.66079 0.63955 0.0
H545 H 0.36237 0.71741 0.69511 0.0
C546 C 0.59939 0.40018 0.95607 0.0
C547 C 0.65881 0.46325 0.93375 0.0
C548 C 0.63478 0.41551 0.82209 0.0
C549 C 0.56795 0.35956 0.8423 0.0
N550 N 0.48248 0.30534 0.93129 0.0
N551 N 0.72979 0.53348 0.84295 0.0
C552 C 0.54922 0.353 0.91016 0.0
C553 C 0.67568 0.47155 0.86608 0.0
N554 N 0.59108 0.38485 1.02131 0.0
N555 N 0.66154 0.41347 0.7622 0.0
H556 H 0.76488 0.57261 0.87378 0.0
H557 H 0.73714 0.54663 0.79355 0.0
H558 H 0.63682 0.37016 0.73081 0.0
H559 H 0.71254 0.45042 0.74726 0.0
H560 H 0.55266 0.33609 0.04 0.0
H561 H 0.62743 0.41783 0.0562 0.0
H562 H 0.46553 0.30428 0.97903 0.0
H563 H 0.44074 0.27224 0.90117 0.0
loop_
_geom_bond_atom_site_label_1
_geom_bond_atom_site_label_2
_geom_bond_distance
_geom_bond_site_symmetry_2
_ccdc_geom_bond_type
C0 Eu1 2.835 . S
C0 C2 1.500 . S
C0 O20 1.257 . S
C0 O21 1.260 . S
Eu1 C0 2.835 . S
Eu1 O20 2.473 . S
Eu1 O21 2.480 . S
Eu1 O22 2.430 . S
Eu1 O23 2.670 1_554 S
Eu1 O24 2.394 . S
Eu1 O29 2.355 . S
Eu1 O31 2.361 1_554 S
C2 C0 1.500 . S
C2 C3 1.377 . S
C2 C7 1.377 . S
C3 C2 1.377 . S
C3 C4 1.395 . S
C3 H32 0.931 . S
C4 C3 1.395 . S
C4 C5 1.383 . S
C4 H33 0.931 . S
C5 C4 1.383 . S
C5 C6 1.394 . S
C6 C5 1.394 . S
C6 C7 1.378 . S
C6 H34 0.931 . S
C7 C2 1.377 . S
C7 C6 1.378 . S
C7 H35 0.931 . S
C8 O22 1.259 1_556 S
C8 O23 1.270 . S
C9 O24 1.251 . S
C9 O25 1.251 . S
C10 Eu11 2.835 . S
C10 C12 1.500 . S
C10 O26 1.257 . S
C10 O27 1.260 . S
Eu11 C10 2.835 . S
Eu11 O23 2.355 . S
Eu11 O25 2.374 1_556 S
Eu11 O26 2.473 . S
Eu11 O27 2.480 . S
Eu11 O28 2.430 1_556 S
Eu11 O29 2.670 1_556 S
Eu11 O30 2.394 . S
C12 C10 1.500 . S
C12 C13 1.377 . S
C12 C17 1.377 . S
C13 C12 1.377 . S
C13 C14 1.395 . S
C13 H36 0.931 1_455 S
C14 C13 1.395 . S
C14 C15 1.383 . S
C14 H37 0.931 1_455 S
C15 C14 1.383 . S
C15 C16 1.394 . S
C16 C15 1.394 . S
C16 C17 1.378 . S
C16 H38 0.931 . S
C17 C12 1.377 . S
C17 C16 1.378 . S
C17 H39 0.931 . S
C18 O28 1.259 . S
C18 O29 1.270 . S
C19 O30 1.251 . S
C19 O31 1.266 . S
O20 C0 1.257 . S
O20 Eu1 2.473 . S
O21 C0 1.260 . S
O21 Eu1 2.480 . S
O22 Eu1 2.430 . S
O22 C8 1.259 1_554 S
O23 Eu1 2.670 1_556 S
O23 C8 1.270 . S
O23 Eu11 2.355 . S
O24 Eu1 2.394 . S
O24 C9 1.251 . S
O25 C9 1.251 . S
O25 Eu11 2.374 1_554 S
O26 C10 1.257 . S
O26 Eu11 2.473 . S
O27 C10 1.260 . S
O27 Eu11 2.480 . S
O28 Eu11 2.430 1_554 S
O28 C18 1.259 . S
O29 Eu1 2.355 . S
O29 Eu11 2.670 1_554 S
O29 C18 1.270 . S
O30 Eu11 2.394 . S
O30 C19 1.251 . S
O31 Eu1 2.361 1_556 S
O31 C19 1.266 . S
H32 C3 0.931 . S
H33 C4 0.931 . S
H34 C6 0.931 . S
H35 C7 0.931 . S
H36 C13 0.931 1_655 S
H37 C14 0.931 1_655 S
H38 C16 0.931 . S
H39 C17 0.931 . S
C40 Eu41 2.835 . S
C40 C42 1.500 . S
C40 O60 1.257 . S
C40 O61 1.260 . S
Eu41 C40 2.835 . S
Eu41 O60 2.473 . S
Eu41 O61 2.480 . S
Eu41 O62 2.430 . S
Eu41 O63 2.670 . S
Eu41 O64 2.394 . S
Eu41 O69 2.355 . S
Eu41 O71 2.374 . S
C42 C40 1.500 . S
C42 C43 1.377 . S
C42 C47 1.377 . S
C43 C42 1.377 . S
C43 C44 1.395 . S
C43 H72 0.931 . S
C44 C43 1.395 . S
C44 C45 1.383 . S
C44 H73 0.931 . S
C45 C44 1.383 . S
C45 C46 1.394 . S
C46 C45 1.394 . S
C46 C47 1.378 . S
C46 H74 0.931 . S
C47 C42 1.377 . S
C47 C46 1.378 . S
C47 H75 0.931 . S
C48 O62 1.259 . S
C48 O63 1.270 . S
C49 O64 1.251 . S
C49 O65 1.251 . S
C50 Eu51 2.835 . S
C50 C52 1.500 . S
C50 O66 1.257 . S
C50 O67 1.260 . S
Eu51 C50 2.835 . S
Eu51 O63 2.355 . S
Eu51 O65 2.374 . S
Eu51 O66 2.473 . S
Eu51 O67 2.480 . S
Eu51 O68 2.430 . S
Eu51 O69 2.670 . S
Eu51 O70 2.394 . S
C52 C50 1.500 . S
C52 C53 1.377 . S
C52 C57 1.377 . S
C53 C52 1.377 . S
C53 C54 1.395 . S
C53 H76 0.931 1_545 S
C54 C53 1.395 . S
C54 C55 1.383 1_554 S
C54 H77 0.931 1_544 S
C55 C54 1.383 1_556 S
C55 C56 1.394 . S
C56 C55 1.394 . S
C56 C57 1.378 1_556 S
C56 H78 0.931 . S
C57 C52 1.377 . S
C57 C56 1.378 1_554 S
C57 H79 0.931 . S
C58 O68 1.259 . S
C58 O69 1.270 . S
C59 O70 1.251 . S
C59 O71 1.251 . S
O60 C40 1.257 . S
O60 Eu41 2.473 . S
O61 C40 1.260 . S
O61 Eu41 2.480 . S
O62 Eu41 2.430 . S
O62 C48 1.259 . S
O63 Eu41 2.670 . S
O63 C48 1.270 . S
O63 Eu51 2.355 . S
O64 Eu41 2.394 . S
O64 C49 1.251 . S
O65 C49 1.251 . S
O65 Eu51 2.374 . S
O66 C50 1.257 . S
O66 Eu51 2.473 . S
O67 C50 1.260 . S
O67 Eu51 2.480 . S
O68 Eu51 2.430 . S
O68 C58 1.259 . S
O69 Eu41 2.355 . S
O69 Eu51 2.670 . S
O69 C58 1.270 . S
O70 Eu51 2.394 . S
O70 C59 1.251 . S
O71 Eu41 2.374 . S
O71 C59 1.251 . S
H72 C43 0.931 . S
H73 C44 0.931 . S
H74 C46 0.931 . S
H75 C47 0.931 . S
H76 C53 0.931 1_565 S
H77 C54 0.931 1_566 S
H78 C56 0.931 . S
H79 C57 0.931 . S
C80 Eu81 2.835 . S
C80 C82 1.500 . S
C80 O100 1.257 . S
C80 O101 1.260 . S
Eu81 C80 2.835 . S
Eu81 O100 2.473 . S
Eu81 O101 2.480 . S
Eu81 O102 2.430 . S
Eu81 O103 2.670 . S
Eu81 O104 2.394 . S
Eu81 O109 2.355 . S
Eu81 O111 2.374 . S
C82 C80 1.500 . S
C82 C83 1.377 . S
C82 C87 1.377 . S
C83 C82 1.377 . S
C83 C84 1.395 1_556 S
C83 H112 0.931 . S
C84 C83 1.395 1_554 S
C84 C85 1.383 . S
C84 H113 0.931 . S
C85 C84 1.383 . S
C85 C86 1.394 . S
C86 C85 1.394 . S
C86 C87 1.378 1_554 S
C86 H114 0.931 . S
C87 C82 1.377 . S
C87 C86 1.378 1_556 S
C87 H115 0.931 . S
C88 O102 1.259 . S
C88 O103 1.270 . S
C89 O104 1.251 . S
C89 O105 1.251 . S
C90 Eu91 2.835 . S
C90 C92 1.500 . S
C90 O106 1.257 . S
C90 O107 1.260 . S
Eu91 C90 2.835 . S
Eu91 O103 2.355 . S
Eu91 O105 2.374 . S
Eu91 O106 2.473 . S
Eu91 O107 2.480 . S
Eu91 O108 2.430 . S
Eu91 O109 2.670 . S
Eu91 O110 2.394 . S
C92 C90 1.500 . S
C92 C93 1.377 . S
C92 C97 1.377 . S
C93 C92 1.377 . S
C93 C94 1.395 . S
C93 H116 0.931 . S
C94 C93 1.395 . S
C94 C95 1.383 . S
C94 H117 0.931 . S
C95 C94 1.383 . S
C95 C96 1.394 . S
C96 C95 1.394 . S
C96 C97 1.378 . S
C96 H118 0.931 . S
C97 C92 1.377 . S
C97 C96 1.378 . S
C97 H119 0.931 . S
C98 O108 1.259 . S
C98 O109 1.270 . S
C99 O110 1.251 . S
C99 O111 1.251 . S
O100 C80 1.257 . S
O100 Eu81 2.473 . S
O101 C80 1.260 . S
O101 Eu81 2.480 . S
O102 Eu81 2.430 . S
O102 C88 1.259 . S
O103 Eu81 2.670 . S
O103 C88 1.270 . S
O103 Eu91 2.355 . S
O104 Eu81 2.394 . S
O104 C89 1.251 . S
O105 C89 1.251 . S
O105 Eu91 2.374 . S
O106 C90 1.257 . S
O106 Eu91 2.473 . S
O107 C90 1.260 . S
O107 Eu91 2.480 . S
O108 Eu91 2.430 . S
O108 C98 1.259 . S
O109 Eu81 2.355 . S
O109 Eu91 2.670 . S
O109 C98 1.270 . S
O110 Eu91 2.394 . S
O110 C99 1.251 . S
O111 Eu81 2.374 . S
O111 C99 1.251 . S
H112 C83 0.931 . S
H113 C84 0.931 . S
H114 C86 0.931 . S
H115 C87 0.931 . S
H116 C93 0.931 . S
H117 C94 0.931 . S
H118 C96 0.931 . S
H119 C97 0.931 . S
C120 Eu121 2.835 . S
C120 C122 1.500 . S
C120 O140 1.257 . S
C120 O141 1.260 . S
Eu121 C120 2.835 . S
Eu121 O140 2.473 . S
Eu121 O141 2.480 . S
Eu121 O142 2.430 . S
Eu121 O143 2.670 1_554 S
Eu121 O144 2.394 . S
Eu121 O149 2.355 . S
Eu121 O151 2.361 1_554 S
C122 C120 1.500 . S
C122 C123 1.377 . S
C122 C127 1.377 . S
C123 C122 1.377 . S
C123 C124 1.395 . S
C123 H152 0.931 . S
C124 C123 1.395 . S
C124 C125 1.383 . S
C124 H153 0.931 . S
C125 C124 1.383 . S
C125 C126 1.394 . S
C126 C125 1.394 . S
C126 C127 1.378 . S
C126 H154 0.931 . S
C127 C122 1.377 . S
C127 C126 1.378 . S
C127 H155 0.931 . S
C128 O142 1.259 1_556 S
C128 O143 1.270 . S
C129 O144 1.251 . S
C129 O145 1.251 . S
C130 Eu131 2.835 . S
C130 C132 1.500 . S
C130 O146 1.257 . S
C130 O147 1.260 . S
Eu131 C130 2.835 . S
Eu131 O143 2.355 . S
Eu131 O145 2.374 1_556 S
Eu131 O146 2.473 . S
Eu131 O147 2.480 . S
Eu131 O148 2.430 1_556 S
Eu131 O149 2.670 1_556 S
Eu131 O150 2.394 . S
C132 C130 1.500 . S
C132 C133 1.377 . S
C132 C137 1.377 . S
C133 C132 1.377 . S
C133 C134 1.395 . S
C133 H156 0.931 1_655 S
C134 C133 1.395 . S
C134 C135 1.383 . S
C134 H157 0.931 1_655 S
C135 C134 1.383 . S
C135 C136 1.394 . S
C136 C135 1.394 . S
C136 C137 1.378 . S
C136 H158 0.931 . S
C137 C132 1.377 . S
C137 C136 1.378 . S
C137 H159 0.931 . S
C138 O148 1.259 . S
C138 O149 1.270 . S
C139 O150 1.251 . S
C139 O151 1.266 . S
O140 C120 1.257 . S
O140 Eu121 2.473 . S
O141 C120 1.260 . S
O141 Eu121 2.480 . S
O142 Eu121 2.430 . S
O142 C128 1.259 1_554 S
O143 Eu121 2.670 1_556 S
O143 C128 1.270 . S
O143 Eu131 2.355 . S
O144 Eu121 2.394 . S
O144 C129 1.251 . S
O145 C129 1.251 . S
O145 Eu131 2.374 1_554 S
O146 C130 1.257 . S
O146 Eu131 2.473 . S
O147 C130 1.260 . S
O147 Eu131 2.480 . S
O148 Eu131 2.430 1_554 S
O148 C138 1.259 . S
O149 Eu121 2.355 . S
O149 Eu131 2.670 1_554 S
O149 C138 1.270 . S
O150 Eu131 2.394 . S
O150 C139 1.251 . S
O151 Eu121 2.361 1_556 S
O151 C139 1.266 . S
H152 C123 0.931 . S
H153 C124 0.931 . S
H154 C126 0.931 . S
H155 C127 0.931 . S
H156 C133 0.931 1_455 S
H157 C134 0.931 1_455 S
H158 C136 0.931 . S
H159 C137 0.931 . S
C160 Eu161 2.835 . S
C160 C162 1.500 . S
C160 O180 1.257 . S
C160 O181 1.260 . S
Eu161 C160 2.835 . S
Eu161 O180 2.473 . S
Eu161 O181 2.480 . S
Eu161 O182 2.430 . S
Eu161 O183 2.670 . S
Eu161 O184 2.394 . S
Eu161 O189 2.355 . S
Eu161 O191 2.374 . S
C162 C160 1.500 . S
C162 C163 1.377 . S
C162 C167 1.377 . S
C163 C162 1.377 . S
C163 C164 1.395 . S
C163 H192 0.931 . S
C164 C163 1.395 . S
C164 C165 1.383 . S
C164 H193 0.931 . S
C165 C164 1.383 . S
C165 C166 1.394 . S
C166 C165 1.394 . S
C166 C167 1.378 . S
C166 H194 0.931 . S
C167 C162 1.377 . S
C167 C166 1.378 . S
C167 H195 0.931 . S
C168 O182 1.259 . S
C168 O183 1.270 . S
C169 O184 1.251 . S
C169 O185 1.251 . S
C170 Eu171 2.835 . S
C170 C172 1.500 . S
C170 O186 1.257 . S
C170 O187 1.260 . S
Eu171 C170 2.835 . S
Eu171 O183 2.355 . S
Eu171 O185 2.374 . S
Eu171 O186 2.473 . S
Eu171 O187 2.480 . S
Eu171 O188 2.430 . S
Eu171 O189 2.670 . S
Eu171 O190 2.394 . S
C172 C170 1.500 . S
C172 C173 1.377 . S
C172 C177 1.377 . S
C173 C172 1.377 . S
C173 C174 1.395 . S
C173 H196 0.931 1_565 S
C174 C173 1.395 . S
C174 C175 1.383 1_554 S
C174 H197 0.931 1_564 S
C175 C174 1.383 1_556 S
C175 C176 1.394 . S
C176 C175 1.394 . S
C176 C177 1.378 1_556 S
C176 H198 0.931 . S
C177 C172 1.377 . S
C177 C176 1.378 1_554 S
C177 H199 0.931 . S
C178 O188 1.259 . S
C178 O189 1.270 . S
C179 O190 1.251 . S
C179 O191 1.251 . S
O180 C160 1.257 . S
O180 Eu161 2.473 . S
O181 C160 1.260 . S
O181 Eu161 2.480 . S
O182 Eu161 2.430 . S
O182 C168 1.259 . S
O183 Eu161 2.670 . S
O183 C168 1.270 . S
O183 Eu171 2.355 . S
O184 Eu161 2.394 . S
O184 C169 1.251 . S
O185 C169 1.251 . S
O185 Eu171 2.374 . S
O186 C170 1.257 . S
O186 Eu171 2.473 . S
O187 C170 1.260 . S
O187 Eu171 2.480 . S
O188 Eu171 2.430 . S
O188 C178 1.259 . S
O189 Eu161 2.355 . S
O189 Eu171 2.670 . S
O189 C178 1.270 . S
O190 Eu171 2.394 . S
O190 C179 1.251 . S
O191 Eu161 2.374 . S
O191 C179 1.251 . S
H192 C163 0.931 . S
H193 C164 0.931 . S
H194 C166 0.931 . S
H195 C167 0.931 . S
H196 C173 0.931 1_545 S
H197 C174 0.931 1_546 S
H198 C176 0.931 . S
H199 C177 0.931 . S
C200 Eu201 2.835 . S
C200 C202 1.500 . S
C200 O220 1.257 . S
C200 O221 1.260 . S
Eu201 C200 2.835 . S
Eu201 O220 2.473 . S
Eu201 O221 2.480 . S
Eu201 O222 2.430 . S
Eu201 O223 2.670 . S
Eu201 O224 2.394 . S
Eu201 O229 2.355 . S
Eu201 O231 2.374 . S
C202 C200 1.500 . S
C202 C203 1.377 . S
C202 C207 1.377 . S
C203 C202 1.377 . S
C203 C204 1.395 1_556 S
C203 H232 0.931 . S
C204 C203 1.395 1_554 S
C204 C205 1.383 . S
C204 H233 0.931 . S
C205 C204 1.383 . S
C205 C206 1.394 . S
C206 C205 1.394 . S
C206 C207 1.378 1_554 S
C206 H234 0.931 . S
C207 C202 1.377 . S
C207 C206 1.378 1_556 S
C207 H235 0.931 . S
C208 O222 1.259 . S
C208 O223 1.270 . S
C209 O224 1.251 . S
C209 O225 1.251 . S
C210 Eu211 2.835 . S
C210 C212 1.500 . S
C210 O226 1.257 . S
C210 O227 1.260 . S
Eu211 C210 2.835 . S
Eu211 O223 2.355 . S
Eu211 O225 2.374 . S
Eu211 O226 2.473 . S
Eu211 O227 2.480 . S
Eu211 O228 2.430 . S
Eu211 O229 2.670 . S
Eu211 O230 2.394 . S
C212 C210 1.500 . S
C212 C213 1.377 . S
C212 C217 1.377 . S
C213 C212 1.377 . S
C213 C214 1.395 . S
C213 H236 0.931 . S
C214 C213 1.395 . S
C214 C215 1.383 . S
C214 H237 0.931 . S
C215 C214 1.383 . S
C215 C216 1.394 . S
C216 C215 1.394 . S
C216 C217 1.378 . S
C216 H238 0.931 . S
C217 C212 1.377 . S
C217 C216 1.378 . S
C217 H239 0.931 . S
C218 O228 1.259 . S
C218 O229 1.270 . S
C219 O230 1.251 . S
C219 O231 1.251 . S
O220 C200 1.257 . S
O220 Eu201 2.473 . S
O221 C200 1.260 . S
O221 Eu201 2.480 . S
O222 Eu201 2.430 . S
O222 C208 1.259 . S
O223 Eu201 2.670 . S
O223 C208 1.270 . S
O223 Eu211 2.355 . S
O224 Eu201 2.394 . S
O224 C209 1.251 . S
O225 C209 1.251 . S
O225 Eu211 2.374 . S
O226 C210 1.257 . S
O226 Eu211 2.473 . S
O227 C210 1.260 . S
O227 Eu211 2.480 . S
O228 Eu211 2.430 . S
O228 C218 1.259 . S
O229 Eu201 2.355 . S
O229 Eu211 2.670 . S
O229 C218 1.270 . S
O230 Eu211 2.394 . S
O230 C219 1.251 . S
O231 Eu201 2.374 . S
O231 C219 1.251 . S
H232 C203 0.931 . S
H233 C204 0.931 . S
H234 C206 0.931 . S
H235 C207 0.931 . S
H236 C213 0.931 . S
H237 C214 0.931 . S
H238 C216 0.931 . S
H239 C217 0.931 . S
C240 C241 1.363 . S
C240 C246 1.379 . S
C240 N248 1.356 . S
C241 C240 1.363 . S
C241 C247 1.363 . S
C242 C243 1.363 . S
C242 C247 1.379 . S
C242 N249 1.356 . S
C243 C242 1.363 . S
C243 C246 1.363 . S
N244 C246 1.356 . S
N244 H256 0.984 . S
N244 H257 0.985 . S
N245 C247 1.356 . S
N245 H250 0.984 . S
N245 H251 0.985 . S
C246 C240 1.379 . S
C246 C243 1.363 . S
C246 N244 1.356 . S
C247 C241 1.363 . S
C247 C242 1.379 . S
C247 N245 1.356 . S
N248 C240 1.356 . S
N248 H254 0.984 . S
N248 H255 0.984 . S
N249 C242 1.356 . S
N249 H252 0.984 . S
N249 H253 0.985 . S
H250 N245 0.984 . S
H251 N245 0.985 . S
H252 N249 0.984 . S
H253 N249 0.985 . S
H254 N248 0.984 . S
H255 N248 0.984 . S
H256 N244 0.984 . S
H257 N244 0.985 . S
C258 C259 1.363 . S
C258 C264 1.379 . S
C258 N266 1.356 . S
C259 C258 1.363 . S
C259 C265 1.363 1_455 S
C260 C261 1.363 . S
C260 C265 1.379 . S
C260 N267 1.356 . S
C261 C260 1.363 . S
C261 C264 1.363 1_655 S
N262 C264 1.356 . S
N262 H274 0.984 . S
N262 H275 0.985 . S
N263 C265 1.356 . S
N263 H268 0.984 . S
N263 H269 0.985 . S
C264 C258 1.379 . S
C264 C261 1.363 1_455 S
C264 N262 1.356 . S
C265 C259 1.363 1_655 S
C265 C260 1.379 . S
C265 N263 1.356 . S
N266 C258 1.356 . S
N266 H272 0.984 . S
N266 H273 0.984 . S
N267 C260 1.356 . S
N267 H270 0.984 . S
N267 H271 0.985 . S
H268 N263 0.984 . S
H269 N263 0.985 . S
H270 N267 0.984 . S
H271 N267 0.985 . S
H272 N266 0.984 . S
H273 N266 0.984 . S
H274 N262 0.984 . S
H275 N262 0.985 . S
C276 C277 1.363 1_565 S
C276 C282 1.379 . S
C276 N284 1.356 . S
C277 C276 1.363 1_545 S
C277 C283 1.363 . S
C278 C279 1.363 1_545 S
C278 C283 1.379 . S
C278 N285 1.356 . S
C279 C278 1.363 1_565 S
C279 C282 1.363 . S
N280 C282 1.356 . S
N280 H292 0.984 . S
N280 H293 0.985 . S
N281 C283 1.356 . S
N281 H286 0.984 . S
N281 H287 0.985 . S
C282 C276 1.379 . S
C282 C279 1.363 . S
C282 N280 1.356 . S
C283 C277 1.363 . S
C283 C278 1.379 . S
C283 N281 1.356 . S
N284 C276 1.356 . S
N284 H290 0.984 . S
N284 H291 0.984 . S
N285 C278 1.356 . S
N285 H288 0.984 . S
N285 H289 0.985 . S
H286 N281 0.984 . S
H287 N281 0.985 . S
H288 N285 0.984 . S
H289 N285 0.985 . S
H290 N284 0.984 . S
H291 N284 0.984 . S
H292 N280 0.984 . S
H293 N280 0.985 . S
C294 C295 1.363 . S
C294 C300 1.379 . S
C294 N302 1.356 . S
C295 C294 1.363 . S
C295 C301 1.363 . S
C296 C297 1.363 . S
C296 C301 1.379 . S
C296 N303 1.356 . S
C297 C296 1.363 . S
C297 C300 1.363 . S
N298 C300 1.356 . S
N298 H310 0.984 . S
N298 H311 0.985 . S
N299 C301 1.356 . S
N299 H304 0.984 . S
N299 H305 0.985 . S
C300 C294 1.379 . S
C300 C297 1.363 . S
C300 N298 1.356 . S
C301 C295 1.363 . S
C301 C296 1.379 . S
C301 N299 1.356 . S
N302 C294 1.356 . S
N302 H308 0.984 . S
N302 H309 0.984 . S
N303 C296 1.356 . S
N303 H306 0.984 . S
N303 H307 0.985 . S
H304 N299 0.984 . S
H305 N299 0.985 . S
H306 N303 0.984 . S
H307 N303 0.985 . S
H308 N302 0.984 . S
H309 N302 0.984 . S
H310 N298 0.984 . S
H311 N298 0.985 . S
C312 C313 1.363 1_655 S
C312 C318 1.379 . S
C312 N320 1.356 1_655 S
C313 C312 1.363 1_455 S
C313 C319 1.363 . S
C314 C315 1.363 1_455 S
C314 C319 1.379 . S
C314 N321 1.356 . S
C315 C314 1.363 1_655 S
C315 C318 1.363 . S
N316 C318 1.356 . S
N316 H328 0.984 . S
N316 H329 0.985 . S
N317 C319 1.356 . S
N317 H322 0.984 . S
N317 H323 0.985 . S
C318 C312 1.379 . S
C318 C315 1.363 . S
C318 N316 1.356 . S
C319 C313 1.363 . S
C319 C314 1.379 . S
C319 N317 1.356 . S
N320 C312 1.356 1_455 S
N320 H326 0.984 1_455 S
N320 H327 0.984 . S
N321 C314 1.356 . S
N321 H324 0.984 1_455 S
N321 H325 0.985 . S
H322 N317 0.984 . S
H323 N317 0.985 . S
H324 N321 0.984 1_655 S
H325 N321 0.985 . S
H326 N320 0.984 1_655 S
H327 N320 0.984 . S
H328 N316 0.984 . S
H329 N316 0.985 . S
C330 C331 1.363 . S
C330 C336 1.379 1_545 S
C330 N338 1.356 . S
C331 C330 1.363 . S
C331 C337 1.363 . S
C332 C333 1.363 . S
C332 C337 1.379 1_565 S
C332 N339 1.356 . S
C333 C332 1.363 . S
C333 C336 1.363 . S
N334 C336 1.356 . S
N334 H346 0.984 . S
N334 H347 0.985 . S
N335 C337 1.356 . S
N335 H340 0.984 . S
N335 H341 0.985 . S
C336 C330 1.379 1_565 S
C336 C333 1.363 . S
C336 N334 1.356 . S
C337 C331 1.363 . S
C337 C332 1.379 1_545 S
C337 N335 1.356 . S
N338 C330 1.356 . S
N338 H344 0.984 . S
N338 H345 0.984 . S
N339 C332 1.356 . S
N339 H342 0.984 . S
N339 H343 0.985 . S
H340 N335 0.984 . S
H341 N335 0.985 . S
H342 N339 0.984 . S
H343 N339 0.985 . S
H344 N338 0.984 . S
H345 N338 0.984 . S
H346 N334 0.984 . S
H347 N334 0.985 . S
C348 C349 1.363 . S
C348 C354 1.379 . S
C348 N356 1.356 . S
C349 C348 1.363 . S
C349 C355 1.363 . S
C350 C351 1.363 . S
C350 C355 1.379 . S
C350 N357 1.356 . S
C351 C350 1.363 . S
C351 C354 1.363 . S
N352 C354 1.356 . S
N352 H364 0.984 . S
N352 H365 0.985 . S
N353 C355 1.356 . S
N353 H358 0.984 . S
N353 H359 0.985 . S
C354 C348 1.379 . S
C354 C351 1.363 . S
C354 N352 1.356 . S
C355 C349 1.363 . S
C355 C350 1.379 . S
C355 N353 1.356 . S
N356 C348 1.356 . S
N356 H362 0.984 . S
N356 H363 0.984 . S
N357 C350 1.356 . S
N357 H360 0.984 . S
N357 H361 0.985 . S
H358 N353 0.984 . S
H359 N353 0.985 . S
H360 N357 0.984 . S
H361 N357 0.985 . S
H362 N356 0.984 . S
H363 N356 0.984 . S
H364 N352 0.984 . S
H365 N352 0.985 . S
C366 C367 1.363 . S
C366 C372 1.379 . S
C366 N374 1.356 . S
C367 C366 1.363 . S
C367 C373 1.363 . S
C368 C369 1.363 . S
C368 C373 1.379 . S
C368 N375 1.356 . S
C369 C368 1.363 . S
C369 C372 1.363 . S
N370 C372 1.356 . S
N370 H382 0.984 . S
N370 H383 0.985 . S
N371 C373 1.356 . S
N371 H376 0.984 . S
N371 H377 0.985 . S
C372 C366 1.379 . S
C372 C369 1.363 . S
C372 N370 1.356 . S
C373 C367 1.363 . S
C373 C368 1.379 . S
C373 N371 1.356 . S
N374 C366 1.356 . S
N374 H380 0.984 . S
N374 H381 0.984 . S
N375 C368 1.356 . S
N375 H378 0.984 . S
N375 H379 0.985 . S
H376 N371 0.984 . S
H377 N371 0.985 . S
H378 N375 0.984 . S
H379 N375 0.985 . S
H380 N374 0.984 . S
H381 N374 0.984 . S
H382 N370 0.984 . S
H383 N370 0.985 . S
C384 C385 1.363 . S
C384 C390 1.379 . S
C384 N392 1.356 . S
C385 C384 1.363 . S
C385 C391 1.363 . S
C386 C387 1.363 . S
C386 C391 1.379 . S
C386 N393 1.356 . S
C387 C386 1.363 . S
C387 C390 1.363 . S
N388 C390 1.356 . S
N388 H400 0.984 . S
N388 H401 0.985 . S
N389 C391 1.356 . S
N389 H394 0.984 . S
N389 H395 0.985 . S
C390 C384 1.379 . S
C390 C387 1.363 . S
C390 N388 1.356 . S
C391 C385 1.363 . S
C391 C386 1.379 . S
C391 N389 1.356 . S
N392 C384 1.356 . S
N392 H398 0.984 . S
N392 H399 0.984 . S
N393 C386 1.356 . S
N393 H396 0.984 . S
N393 H397 0.985 . S
H394 N389 0.984 . S
H395 N389 0.985 . S
H396 N393 0.984 . S
H397 N393 0.985 . S
H398 N392 0.984 . S
H399 N392 0.984 . S
H400 N388 0.984 . S
H401 N388 0.985 . S
C402 C403 1.363 . S
C402 C408 1.379 . S
C402 N410 1.356 . S
C403 C402 1.363 . S
C403 C409 1.363 . S
C404 C405 1.363 . S
C404 C409 1.379 . S
C404 N411 1.356 . S
C405 C404 1.363 . S
C405 C408 1.363 . S
N406 C408 1.356 . S
N406 H418 0.984 . S
N406 H419 0.985 . S
N407 C409 1.356 . S
N407 H412 0.984 . S
N407 H413 0.985 . S
C408 C402 1.379 . S
C408 C405 1.363 . S
C408 N406 1.356 . S
C409 C403 1.363 . S
C409 C404 1.379 . S
C409 N407 1.356 . S
N410 C402 1.356 . S
N410 H416 0.984 . S
N410 H417 0.984 . S
N411 C404 1.356 . S
N411 H414 0.984 . S
N411 H415 0.985 . S
H412 N407 0.984 . S
H413 N407 0.985 . S
H414 N411 0.984 . S
H415 N411 0.985 . S
H416 N410 0.984 . S
H417 N410 0.984 . S
H418 N406 0.984 . S
H419 N406 0.985 . S
C420 C421 1.363 . S
C420 C426 1.379 . S
C420 N428 1.356 . S
C421 C420 1.363 . S
C421 C427 1.363 . S
C422 C423 1.363 . S
C422 C427 1.379 . S
C422 N429 1.356 . S
C423 C422 1.363 . S
C423 C426 1.363 . S
N424 C426 1.356 . S
N424 H436 0.984 . S
N424 H437 0.985 . S
N425 C427 1.356 . S
N425 H430 0.984 . S
N425 H431 0.985 . S
C426 C420 1.379 . S
C426 C423 1.363 . S
C426 N424 1.356 . S
C427 C421 1.363 . S
C427 C422 1.379 . S
C427 N425 1.356 . S
N428 C420 1.356 . S
N428 H434 0.984 . S
N428 H435 0.984 . S
N429 C422 1.356 . S
N429 H432 0.984 . S
N429 H433 0.985 . S
H430 N425 0.984 . S
H431 N425 0.985 . S
H432 N429 0.984 . S
H433 N429 0.985 . S
H434 N428 0.984 . S
H435 N428 0.984 . S
H436 N424 0.984 . S
H437 N424 0.985 . S
C438 C439 1.363 . S
C438 C444 1.379 . S
C438 N446 1.356 . S
C439 C438 1.363 . S
C439 C445 1.363 . S
C440 C441 1.363 . S
C440 C445 1.379 . S
C440 N447 1.356 . S
C441 C440 1.363 . S
C441 C444 1.363 . S
N442 C444 1.356 . S
N442 H454 0.984 . S
N442 H455 0.985 . S
N443 C445 1.356 . S
N443 H448 0.984 . S
N443 H449 0.985 . S
C444 C438 1.379 . S
C444 C441 1.363 . S
C444 N442 1.356 . S
C445 C439 1.363 . S
C445 C440 1.379 . S
C445 N443 1.356 . S
N446 C438 1.356 . S
N446 H452 0.984 . S
N446 H453 0.984 . S
N447 C440 1.356 . S
N447 H450 0.984 . S
N447 H451 0.985 . S
H448 N443 0.984 . S
H449 N443 0.985 . S
H450 N447 0.984 . S
H451 N447 0.985 . S
H452 N446 0.984 . S
H453 N446 0.984 . S
H454 N442 0.984 . S
H455 N442 0.985 . S
C456 C457 1.363 . S
C456 C462 1.379 . S
C456 N464 1.356 . S
C457 C456 1.363 . S
C457 C463 1.363 . S
C458 C459 1.363 . S
C458 C463 1.379 . S
C458 N465 1.356 . S
C459 C458 1.363 . S
C459 C462 1.363 . S
N460 C462 1.356 . S
N460 H472 0.984 . S
N460 H473 0.985 . S
N461 C463 1.356 . S
N461 H466 0.984 . S
N461 H467 0.985 . S
C462 C456 1.379 . S
C462 C459 1.363 . S
C462 N460 1.356 . S
C463 C457 1.363 . S
C463 C458 1.379 . S
C463 N461 1.356 . S
N464 C456 1.356 . S
N464 H470 0.984 . S
N464 H471 0.984 . S
N465 C458 1.356 . S
N465 H468 0.984 . S
N465 H469 0.985 . S
H466 N461 0.984 . S
H467 N461 0.985 . S
H468 N465 0.984 . S
H469 N465 0.985 . S
H470 N464 0.984 . S
H471 N464 0.984 . S
H472 N460 0.984 . S
H473 N460 0.985 . S
C474 C475 1.363 . S
C474 C480 1.379 . S
C474 N482 1.356 . S
C475 C474 1.363 . S
C475 C481 1.363 . S
C476 C477 1.363 . S
C476 C481 1.379 . S
C476 N483 1.356 . S
C477 C476 1.363 . S
C477 C480 1.363 . S
N478 C480 1.356 . S
N478 H490 0.984 . S
N478 H491 0.985 . S
N479 C481 1.356 . S
N479 H484 0.984 . S
N479 H485 0.985 . S
C480 C474 1.379 . S
C480 C477 1.363 . S
C480 N478 1.356 . S
C481 C475 1.363 . S
C481 C476 1.379 . S
C481 N479 1.356 . S
N482 C474 1.356 . S
N482 H488 0.984 . S
N482 H489 0.984 . S
N483 C476 1.356 . S
N483 H486 0.984 . S
N483 H487 0.985 . S
H484 N479 0.984 . S
H485 N479 0.985 . S
H486 N483 0.984 . S
H487 N483 0.985 . S
H488 N482 0.984 . S
H489 N482 0.984 . S
H490 N478 0.984 . S
H491 N478 0.985 . S
C492 C493 1.363 . S
C492 C498 1.379 . S
C492 N500 1.356 . S
C493 C492 1.363 . S
C493 C499 1.363 . S
C494 C495 1.363 . S
C494 C499 1.379 . S
C494 N501 1.356 . S
C495 C494 1.363 . S
C495 C498 1.363 . S
N496 C498 1.356 . S
N496 H508 0.984 . S
N496 H509 0.985 . S
N497 C499 1.356 . S
N497 H502 0.984 . S
N497 H503 0.985 . S
C498 C492 1.379 . S
C498 C495 1.363 . S
C498 N496 1.356 . S
C499 C493 1.363 . S
C499 C494 1.379 . S
C499 N497 1.356 . S
N500 C492 1.356 . S
N500 H506 0.984 1_556 S
N500 H507 0.984 1_556 S
N501 C494 1.356 . S
N501 H504 0.984 . S
N501 H505 0.985 . S
H502 N497 0.984 . S
H503 N497 0.985 . S
H504 N501 0.984 . S
H505 N501 0.985 . S
H506 N500 0.984 1_554 S
H507 N500 0.984 1_554 S
H508 N496 0.984 . S
H509 N496 0.985 . S
C510 C511 1.363 . S
C510 C516 1.379 . S
C510 N518 1.356 . S
C511 C510 1.363 . S
C511 C517 1.363 . S
C512 C513 1.363 . S
C512 C517 1.379 . S
C512 N519 1.356 . S
C513 C512 1.363 . S
C513 C516 1.363 . S
N514 C516 1.356 . S
N514 H526 0.984 . S
N514 H527 0.985 . S
N515 C517 1.356 . S
N515 H520 0.984 . S
N515 H521 0.985 . S
C516 C510 1.379 . S
C516 C513 1.363 . S
C516 N514 1.356 . S
C517 C511 1.363 . S
C517 C512 1.379 . S
C517 N515 1.356 . S
N518 C510 1.356 . S
N518 H524 0.984 . S
N518 H525 0.984 . S
N519 C512 1.356 . S
N519 H522 0.984 . S
N519 H523 0.985 . S
H520 N515 0.984 . S
H521 N515 0.985 . S
H522 N519 0.984 . S
H523 N519 0.985 . S
H524 N518 0.984 . S
H525 N518 0.984 . S
H526 N514 0.984 . S
H527 N514 0.985 . S
C528 C529 1.363 . S
C528 C534 1.379 . S
C528 N536 1.356 . S
C529 C528 1.363 . S
C529 C535 1.363 . S
C530 C531 1.363 . S
C530 C535 1.379 . S
C530 N537 1.356 . S
C531 C530 1.363 . S
C531 C534 1.363 . S
N532 C534 1.356 . S
N532 H544 0.984 . S
N532 H545 0.985 . S
N533 C535 1.356 . S
N533 H538 0.984 . S
N533 H539 0.985 . S
C534 C528 1.379 . S
C534 C531 1.363 . S
C534 N532 1.356 . S
C535 C529 1.363 . S
C535 C530 1.379 . S
C535 N533 1.356 . S
N536 C528 1.356 . S
N536 H542 0.984 . S
N536 H543 0.984 . S
N537 C530 1.356 . S
N537 H540 0.984 . S
N537 H541 0.985 . S
H538 N533 0.984 . S
H539 N533 0.985 . S
H540 N537 0.984 . S
H541 N537 0.985 . S
H542 N536 0.984 . S
H543 N536 0.984 . S
H544 N532 0.984 . S
H545 N532 0.985 . S
C546 C547 1.363 . S
C546 C552 1.379 . S
C546 N554 1.356 . S
C547 C546 1.363 . S
C547 C553 1.363 . S
C548 C549 1.363 . S
C548 C553 1.379 . S
C548 N555 1.356 . S
C549 C548 1.363 . S
C549 C552 1.363 . S
N550 C552 1.356 . S
N550 H562 0.984 . S
N550 H563 0.985 . S
N551 C553 1.356 . S
N551 H556 0.984 . S
N551 H557 0.985 . S
C552 C546 1.379 . S
C552 C549 1.363 . S
C552 N550 1.356 . S
C553 C547 1.363 . S
C553 C548 1.379 . S
C553 N551 1.356 . S
N554 C546 1.356 . S
N554 H560 0.984 . S
N554 H561 0.984 1_556 S
N555 C548 1.356 . S
N555 H558 0.984 . S
N555 H559 0.985 . S
H556 N551 0.984 . S
H557 N551 0.985 . S
H558 N555 0.984 . S
H559 N555 0.985 . S
H560 N554 0.984 . S
H561 N554 0.984 1_554 S
H562 N550 0.984 . S
H563 N550 0.985 . S
C241 C218 1.514 . S
C243 C19 1.582 . S
C259 C18 1.514 . S
C261 C59 1.582 . S
C277 C58 1.514 . S
C279 C99 1.583 . S
C295 C98 1.514 . S
C297 C139 1.582 . S
C313 C179 1.582 . S
C315 C138 1.514 . S
C331 C219 1.583 . S
C333 C178 1.514 . S
C349 C15 2.021 . S
C351 C5 2.021 . S
C367 C55 2.021 . S
C369 C45 2.021 . S
C385 C95 2.021 . S
C387 C85 2.021 . S
C403 C135 2.021 . S
C405 C125 2.021 . S
C421 C165 2.021 . S
C423 C175 2.021 . S
C439 C215 2.021 . S
C441 C205 2.021 . S
C457 C9 1.836 . S
C459 C168 1.823 . S
C475 C49 1.836 . S
C477 C208 1.823 . S
C493 C8 1.823 . S
C495 C89 1.836 . S
C511 C48 1.823 . S
C513 C129 1.836 . S
C529 C169 1.836 . S
C531 C88 1.823 . S
C547 C128 1.823 . S
C549 C209 1.836 . S
