# Generated by pormake.
# Topology ths, (3)-cn, num edge types: 1
# Building blocks:
#     Node 0, Type 0, BuildingBlock: WUSLED_clean_sbu_0, # of connection points: 3
#     Node 1, Type 0, BuildingBlock: WUSLED_clean_sbu_0, # of connection points: 3
#     Node 2, Type 0, BuildingBlock: WUSLED_clean_sbu_0, # of connection points: 3
#     Node 3, Type 0, BuildingBlock: WUSLED_clean_sbu_0, # of connection points: 3
#     Node 4, Type 0, BuildingBlock: WUSLED_clean_sbu_0, # of connection points: 3
#     Node 5, Type 0, BuildingBlock: WUSLED_clean_sbu_0, # of connection points: 3
#     Node 6, Type 0, BuildingBlock: WUSLED_clean_sbu_0, # of connection points: 3
#     Node 7, Type 0, BuildingBlock: WUSLED_clean_sbu_0, # of connection points: 3
#     Edge 8, Type (0, 0), BuildingBlock: CIFDUS_clean_linker_0, # of connection points: 2
#     Edge 9, Type (0, 0), BuildingBlock: CIFDUS_clean_linker_0, # of connection points: 2
#     Edge 10, Type (0, 0), BuildingBlock: CIFDUS_clean_linker_0, # of connection points: 2
#     Edge 11, Type (0, 0), BuildingBlock: CIFDUS_clean_linker_0, # of connection points: 2
#     Edge 12, Type (0, 0), BuildingBlock: CIFDUS_clean_linker_0, # of connection points: 2
#     Edge 13, Type (0, 0), BuildingBlock: CIFDUS_clean_linker_0, # of connection points: 2
#     Edge 14, Type (0, 0), BuildingBlock: CIFDUS_clean_linker_0, # of connection points: 2
#     Edge 15, Type (0, 0), BuildingBlock: CIFDUS_clean_linker_0, # of connection points: 2
#     Edge 16, Type (0, 0), BuildingBlock: CIFDUS_clean_linker_0, # of connection points: 2
#     Edge 17, Type (0, 0), BuildingBlock: CIFDUS_clean_linker_0, # of connection points: 2
#     Edge 18, Type (0, 0), BuildingBlock: CIFDUS_clean_linker_0, # of connection points: 2
#     Edge 19, Type (0, 0), BuildingBlock: CIFDUS_clean_linker_0, # of connection points: 2
# Relax obj value: 0.000
# Max RMSD: 0.002
# Mean RMSD: 0.002
data_MOF--net-ths--node1-WUSLED_clean_sbu_0--edge1-CIFDUS_clean_linker_0
_symmetry_space_group_name_H-M    P1
_symmetry_Int_Tables_number       1
_symmetry_cell_setting            triclinic
loop_
_symmetry_equiv_pos_as_xyz
'x, y, z'
_cell_length_a     36.775138
_cell_length_b     36.785811
_cell_length_c     123.30531
_cell_angle_alpha  89.190639
_cell_angle_beta   90.841519
_cell_angle_gamma 89.696611
loop_
_atom_site_label
_atom_site_type_symbol
_atom_site_fract_x
_atom_site_fract_y
_atom_site_fract_z
_atom_type_partial_charge
C0 C 0.07226 0.84709 0.04545 0.0
C1 C 0.07135 0.85731 0.03446 0.0
C2 C 0.07077 0.92137 0.0393 0.0
C3 C 0.07062 0.89409 0.0314 0.0
C4 C 0.07176 0.91088 0.05033 0.0
C5 C 0.07251 0.87407 0.05338 0.0
U6 U 0.07487 0.77206 0.06706 0.0
O7 O 0.04559 0.72005 0.06793 0.0
O8 O 0.10523 0.72039 0.06774 0.0
C9 C 0.07558 0.7006 0.06742 0.0
C10 C 0.07288 0.80831 0.04855 0.0
C11 C 0.07512 0.67119 0.05944 0.0
C12 C 0.08242 0.64943 0.04107 0.0
C13 C 0.0828 0.67793 0.04849 0.0
C14 C 0.06641 0.60728 0.05547 0.0
C15 C 0.07426 0.61369 0.04447 0.0
C16 C 0.06688 0.63575 0.06287 0.0
C17 C 0.07758 0.79925 0.09699 0.0
C18 C 0.0857 0.75596 0.11192 0.0
C19 C 0.07626 0.81981 0.11561 0.0
C20 C 0.07389 0.82727 0.10447 0.0
C21 C 0.08242 0.7841 0.11948 0.0
C22 C 0.08325 0.76348 0.10076 0.0
C23 C 0.07613 0.80804 0.08532 0.0
O24 O 0.10322 0.79662 0.0532 0.0
O25 O 0.04361 0.7964 0.05342 0.0
O26 O 0.0459 0.79929 0.0802 0.0
O27 O 0.10552 0.79994 0.0799 0.0
H28 H 0.07105 0.83681 0.02823 0.0
H29 H 0.06937 0.90115 1.02285 0.0
H30 H 0.07236 0.93112 0.05662 0.0
H31 H 0.07333 0.86664 0.06191 0.0
H32 H 0.08897 0.65532 0.0327 0.0
H33 H 0.0892 0.70518 0.04569 0.0
H34 H 0.05942 0.5803 0.05836 0.0
H35 H 0.06069 0.63009 0.07129 0.0
H36 H 0.09006 0.72812 0.11462 0.0
H37 H 0.07414 0.8422 0.12118 0.0
H38 H 0.06959 0.85506 0.10169 0.0
H39 H 0.08604 0.74147 0.09508 0.0
C40 C 0.50428 0.77602 0.29542 0.0
C41 C 0.47736 0.77328 0.30333 0.0
C42 C 0.4299 0.77814 0.28933 0.0
C43 C 0.44051 0.77431 0.30031 0.0
C44 C 0.45712 0.78085 0.28145 0.0
C45 C 0.49395 0.7798 0.28448 0.0
U46 U 0.57924 0.77352 0.31703 0.0
O47 O 0.63036 0.74221 0.31795 0.0
O48 O 0.63179 0.80182 0.3178 0.0
C49 C 0.65072 0.77144 0.31753 0.0
C50 C 0.5431 0.77504 0.2985 0.0
C51 C 0.68032 0.77066 0.30963 0.0
C52 C 0.74511 0.76918 0.30606 0.0
C53 C 0.71646 0.77038 0.31338 0.0
C54 C 0.70172 0.76865 0.29109 0.0
C55 C 0.73815 0.76823 0.29481 0.0
C56 C 0.67305 0.76987 0.29844 0.0
C57 C 0.55156 0.77275 0.34693 0.0
C58 C 0.5305 0.76922 0.36548 0.0
C59 C 0.5951 0.77137 0.36196 0.0
C60 C 0.58764 0.77308 0.35079 0.0
C61 C 0.56658 0.76932 0.36945 0.0
C62 C 0.52311 0.77092 0.35434 0.0
C63 C 0.54299 0.77376 0.33524 0.0
O64 O 0.55543 0.8044 0.30323 0.0
O65 O 0.55442 0.74481 0.30328 0.0
O66 O 0.55072 0.74396 0.32997 0.0
O67 O 0.55234 0.80356 0.33001 0.0
H68 H 0.48487 0.77029 0.31182 0.0
H69 H 0.42034 0.77169 0.30658 0.0
H70 H 0.44998 0.78434 0.27295 0.0
H71 H 0.5144 0.78208 0.27827 0.0
H72 H 0.77273 0.76836 0.30923 0.0
H73 H 0.72255 0.77087 0.322 0.0
H74 H 0.69536 0.76837 0.28249 0.0
H75 H 0.64525 0.77015 0.2954 0.0
H76 H 0.50791 0.76706 0.37099 0.0
H77 H 0.62317 0.77187 0.36473 0.0
H78 H 0.60996 0.77452 0.34516 0.0
H79 H 0.4951 0.77048 0.35149 0.0
C80 C 0.57892 0.34728 0.54546 0.0
C81 C 0.58367 0.35748 0.53459 0.0
C82 C 0.58214 0.42157 0.53941 0.0
C83 C 0.58527 0.39427 0.53158 0.0
C84 C 0.57726 0.41108 0.55032 0.0
C85 C 0.57571 0.37429 0.55332 0.0
U86 U 0.57778 0.27235 0.56707 0.0
O87 O 0.54686 0.22136 0.56789 0.0
O88 O 0.60649 0.21971 0.56791 0.0
C89 C 0.57622 0.2009 0.56755 0.0
C90 C 0.57787 0.30849 0.54854 0.0
C91 C 0.57517 0.17128 0.55966 0.0
C92 C 0.57278 0.1498 0.5411 0.0
C93 C 0.57403 0.17849 0.54846 0.0
C94 C 0.57393 0.1065 0.55609 0.0
C95 C 0.57269 0.11341 0.54484 0.0
C96 C 0.57516 0.13517 0.56342 0.0
C97 C 0.58039 0.29987 0.59698 0.0
C98 C 0.58096 0.2562 0.61196 0.0
C99 C 0.58409 0.32071 0.61556 0.0
C100 C 0.58259 0.32821 0.60441 0.0
C101 C 0.58341 0.28461 0.61948 0.0
C102 C 0.57945 0.26378 0.6008 0.0
C103 C 0.57968 0.30853 0.5853 0.0
O104 O 0.60757 0.29567 0.5533 0.0
O105 O 0.54797 0.29766 0.5533 0.0
O106 O 0.54934 0.30076 0.58008 0.0
O107 O 0.60897 0.29929 0.57999 0.0
H108 H 0.58639 0.33698 0.52843 0.0
H109 H 0.58957 0.40129 0.52314 0.0
H110 H 0.5743 0.43132 0.55654 0.0
H111 H 0.57204 0.36688 0.56177 0.0
H112 H 0.57226 0.15613 0.5325 0.0
H113 H 0.57411 0.20627 0.54541 0.0
H114 H 0.57336 0.07891 0.55926 0.0
H115 H 0.57592 0.12912 0.57204 0.0
H116 H 0.58001 0.22813 0.61471 0.0
H117 H 0.58656 0.3432 0.62109 0.0
H118 H 0.5835 0.35623 0.60159 0.0
H119 H 0.5777 0.24154 0.59515 0.0
C120 C 1.00496 0.2764 0.79553 0.0
C121 C 0.97803 0.27362 0.80344 0.0
C122 C 0.93058 0.27844 0.78944 0.0
C123 C 0.94119 0.2746 0.80042 0.0
C124 C 0.95781 0.28123 0.78156 0.0
C125 C 0.99464 0.28022 0.78459 0.0
U126 U 0.08007 0.27353 0.81712 0.0
O127 O 0.13108 0.24203 0.81797 0.0
O128 O 0.13274 0.30163 0.81787 0.0
C129 C 0.15155 0.27119 0.81756 0.0
C130 C 0.04378 0.27534 0.79861 0.0
C131 C 0.18113 0.27038 0.80966 0.0
C132 C 0.24592 0.26899 0.80608 0.0
C133 C 0.21728 0.27016 0.81341 0.0
C134 C 0.20252 0.26837 0.79112 0.0
C135 C 0.23895 0.26802 0.79484 0.0
C136 C 0.17385 0.26957 0.79847 0.0
C137 C 0.05293 0.27253 0.84704 0.0
C138 C 0.09623 0.2642 0.86197 0.0
C139 C 0.03249 0.27437 0.86567 0.0
C140 C 1.02499 0.27665 0.85453 0.0
C141 C 0.06816 0.26789 0.86954 0.0
C142 C 0.08867 0.26654 0.85081 0.0
C143 C 0.04408 0.27377 0.83537 0.0
O144 O 0.0562 0.30462 0.80336 0.0
O145 O 0.05506 0.24503 0.80336 0.0
O146 O 0.0515 0.24402 0.83004 0.0
O147 O 0.0535 0.3036 0.83016 0.0
H148 H 0.98554 0.27059 0.81194 0.0
H149 H 0.92101 0.27193 0.80669 0.0
H150 H 0.95068 0.28472 0.77306 0.0
H151 H 1.01509 0.28253 0.77839 0.0
H152 H 0.27354 0.26821 0.80925 0.0
H153 H 0.22338 0.27067 0.82203 0.0
H154 H 0.19615 0.26807 0.78251 0.0
H155 H 0.14605 0.26982 0.79543 0.0
H156 H 0.12405 0.25958 0.86467 0.0
H157 H 1.01015 0.27681 0.87124 0.0
H158 H 0.99722 0.28118 0.85176 0.0
H159 H 0.11062 0.26341 0.84513 0.0
C160 C 0.08384 0.19822 1.00857 0.0
C161 C 0.08464 0.188 1.01956 0.0
C162 C 0.08499 0.12393 1.01472 0.0
C163 C 0.0852 0.15121 1.02262 0.0
C164 C 0.08406 0.13443 1.00369 0.0
C165 C 0.08348 0.17124 1.00065 0.0
U166 U 0.08213 0.27315 0.98694 0.0
O167 O 0.05226 0.3251 0.98619 0.0
O168 O 0.11191 0.32488 0.98608 0.0
C169 C 0.08209 0.34461 0.98654 0.0
C170 C 0.08354 0.237 1.00547 0.0
C171 C 0.08269 0.37404 0.99451 0.0
C172 C 0.07552 0.39588 1.01288 0.0
C173 C 0.07504 0.36735 1.00547 0.0
C174 C 0.09158 0.43794 0.99846 0.0
C175 C 0.08375 0.43158 1.00946 0.0
C176 C 0.09102 0.40945 0.99107 0.0
C177 C 0.07963 0.2457 0.95703 0.0
C178 C 0.07822 0.28938 0.94205 0.0
C179 C 0.07586 0.22485 0.93845 0.0
C180 C 0.07765 0.21734 0.94959 0.0
C181 C 0.07602 0.26096 0.93452 0.0
C182 C 0.08002 0.2818 0.95321 0.0
C183 C 0.08076 0.23702 0.9687 0.0
O184 O 0.11298 0.24866 1.00064 0.0
O185 O 0.05337 0.24891 1.00077 0.0
O186 O 0.05136 0.24553 0.97406 0.0
O187 O 0.11099 0.2455 0.97387 0.0
H188 H 0.08502 0.2085 1.02579 0.0
H189 H 0.08639 0.14416 0.03117 0.0
H190 H 0.08341 0.11419 0.9974 0.0
H191 H 0.08275 0.17867 0.99211 0.0
H192 H 0.06898 0.39003 1.02125 0.0
H193 H 0.06857 0.34014 1.00828 0.0
H194 H 0.09863 0.4649 0.99556 0.0
H195 H 0.09718 0.41507 0.98264 0.0
H196 H 0.07877 0.31747 0.9393 0.0
H197 H 0.07359 0.20233 0.93292 0.0
H198 H 0.07717 0.18931 0.95241 0.0
H199 H 0.0816 0.30406 0.95886 0.0
C200 C 0.1528 0.76969 0.25847 0.0
C201 C 0.17971 0.77242 0.25055 0.0
C202 C 0.2272 0.76757 0.26454 0.0
C203 C 0.21656 0.7714 0.25356 0.0
C204 C 0.19999 0.76486 0.27243 0.0
C205 C 0.16316 0.76591 0.26941 0.0
U206 U 0.07774 0.77224 0.23688 0.0
O207 O 1.02516 0.74397 0.23614 0.0
O208 O 1.02664 0.80358 0.23599 0.0
C209 C 1.00626 0.77436 0.23642 0.0
C210 C 0.11398 0.77069 0.2554 0.0
C211 C 0.97667 0.77516 0.24432 0.0
C212 C 0.91189 0.77664 0.2479 0.0
C213 C 0.94053 0.77544 0.24057 0.0
C214 C 0.9553 0.77717 0.26286 0.0
C215 C 0.91887 0.77759 0.25915 0.0
C216 C 0.98396 0.77595 0.25551 0.0
C217 C 0.10512 0.77301 0.20697 0.0
C218 C 0.06136 0.77475 0.192 0.0
C219 C 0.12591 0.77633 0.18838 0.0
C220 C 0.13347 0.77457 0.19952 0.0
C221 C 0.08976 0.77655 0.18447 0.0
C222 C 0.06898 0.77299 0.20316 0.0
C223 C 0.11385 0.77198 0.21865 0.0
O224 O 0.10265 0.80093 0.25062 0.0
O225 O 0.10161 0.74133 0.25067 0.0
O226 O 0.10454 0.74218 0.22389 0.0
O227 O 0.10621 0.80177 0.22393 0.0
H228 H 0.17218 0.77542 0.24206 0.0
H229 H 0.23671 0.77402 0.24728 0.0
H230 H 0.20715 0.76137 0.28093 0.0
H231 H 0.14273 0.76363 0.27562 0.0
H232 H 0.88427 0.77747 0.24473 0.0
H233 H 0.93442 0.77495 0.23195 0.0
H234 H 0.96168 0.77745 0.27146 0.0
H235 H 1.01176 0.77566 0.25854 0.0
H236 H 0.03324 0.77451 0.18927 0.0
H237 H 0.14843 0.77828 0.18285 0.0
H238 H 0.16153 0.77476 0.20233 0.0
H239 H 0.04674 0.77176 0.20882 0.0
C240 C 0.57925 0.6987 0.50843 0.0
C241 C 0.57464 0.68839 0.5193 0.0
C242 C 0.57652 0.62435 0.51444 0.0
C243 C 0.57329 0.65157 0.52229 0.0
C244 C 0.5813 0.63495 0.50354 0.0
C245 C 0.58261 0.67178 0.50056 0.0
U246 U 0.57947 0.77386 0.48688 0.0
O247 O 0.55019 0.8262 0.48612 0.0
O248 O 0.60983 0.8252 0.48608 0.0
C249 C 0.58025 0.84533 0.48647 0.0
C250 C 0.57992 0.73752 0.50538 0.0
C251 C 0.58108 0.8749 0.49438 0.0
C252 C 0.58329 0.89625 0.51295 0.0
C253 C 0.58218 0.8676 0.50558 0.0
C254 C 0.58204 0.93966 0.49799 0.0
C255 C 0.58327 0.93267 0.50924 0.0
C256 C 0.58096 0.91103 0.49065 0.0
C257 C 0.57687 0.74674 0.45694 0.0
C258 C 0.57896 0.72622 0.43833 0.0
C259 C 0.56897 0.79 0.442 0.0
C260 C 0.57111 0.78249 0.45316 0.0
C261 C 0.57267 0.76189 0.43444 0.0
C262 C 0.58101 0.71876 0.44947 0.0
C263 C 0.57786 0.73792 0.46861 0.0
O264 O 0.60967 0.74868 0.5006 0.0
O265 O 0.55006 0.7501 0.50066 0.0
O266 O 0.54853 0.74667 0.47397 0.0
O267 O 0.60816 0.74598 0.4738 0.0
H268 H 0.5718 0.70883 0.52548 0.0
H269 H 0.56905 0.64446 0.53073 0.0
H270 H 0.58435 0.61477 0.4973 0.0
H271 H 0.58618 0.67927 0.49211 0.0
H272 H 0.5838 0.88987 0.52155 0.0
H273 H 0.58221 0.83981 0.50861 0.0
H274 H 0.58254 0.96727 0.49483 0.0
H275 H 0.58022 0.91714 0.48202 0.0
H276 H 0.58141 0.70386 0.43276 0.0
H277 H 0.5645 0.81781 0.43928 0.0
H278 H 0.56798 0.80447 0.45883 0.0
H279 H 0.5854 0.69099 0.45225 0.0
C280 C 0.65362 0.26932 0.75849 0.0
C281 C 0.68055 0.2721 0.75059 0.0
C282 C 0.72799 0.26727 0.76459 0.0
C283 C 0.71739 0.2711 0.7536 0.0
C284 C 0.70076 0.26448 0.77246 0.0
C285 C 0.66393 0.2655 0.76943 0.0
U286 U 0.57853 0.27219 0.7369 0.0
O287 O 0.52586 0.2441 0.73615 0.0
O288 O 0.52752 0.3037 0.73604 0.0
C289 C 0.50706 0.27454 0.73645 0.0
C290 C 0.6148 0.27039 0.75541 0.0
C291 C 0.47747 0.27536 0.74435 0.0
C292 C 0.41268 0.27676 0.74793 0.0
C293 C 0.44132 0.27559 0.7406 0.0
C294 C 0.45608 0.27737 0.7629 0.0
C295 C 0.41965 0.27773 0.75918 0.0
C296 C 0.48475 0.27617 0.75554 0.0
C297 C 0.60575 0.27317 0.70697 0.0
C298 C 0.5626 0.28187 0.69203 0.0
C299 C 0.62625 0.27097 0.68836 0.0
C300 C 0.63368 0.26869 0.6995 0.0
C301 C 0.59066 0.27782 0.68447 0.0
C302 C 0.57009 0.27951 0.70319 0.0
C303 C 0.61455 0.27193 0.71865 0.0
O304 O 0.60353 0.30069 0.75066 0.0
O305 O 0.60238 0.24111 0.75066 0.0
O306 O 0.60511 0.24211 0.72386 0.0
O307 O 0.60712 0.30169 0.72398 0.0
H308 H 0.67305 0.27513 0.74209 0.0
H309 H 0.73757 0.27378 0.74734 0.0
H310 H 0.70789 0.26099 0.78097 0.0
H311 H 0.64348 0.26319 0.77564 0.0
H312 H 0.38506 0.27754 0.74476 0.0
H313 H 0.43522 0.27508 0.73198 0.0
H314 H 0.46245 0.27767 0.7715 0.0
H315 H 0.51255 0.27592 0.75858 0.0
H316 H 0.53485 0.28677 0.68931 0.0
H317 H 0.64859 0.26824 0.6828 0.0
H318 H 0.66139 0.26387 0.70229 0.0
H319 H 0.54815 0.28292 0.70886 0.0
H320 H 0.05859 0.50101 1.00634 0.0
H321 H 0.11055 0.43075 0.03031 0.0
H322 H 0.11197 0.48052 0.04319 0.0
H323 H 0.09951 0.54429 0.04758 0.0
H324 H 0.04754 0.61455 1.02361 0.0
H325 H 0.04615 0.56479 1.01073 0.0
C326 C 0.07055 0.49662 1.01435 0.0
C327 C 0.08441 0.46205 1.01732 0.0
C328 C 0.07157 0.52548 1.02171 0.0
C329 C 0.09922 0.45684 0.02782 0.0
C330 C 0.10028 0.48539 0.03518 0.0
C331 C 0.08756 0.54868 0.03958 0.0
C332 C 0.07367 0.58325 0.0366 0.0
C333 C 0.08655 0.51983 0.03222 0.0
C334 C 0.05888 0.58847 1.0261 0.0
C335 C 0.05784 0.55992 1.01874 0.0
H336 H 0.85438 0.74113 0.25836 0.0
H337 H 0.91436 0.81859 0.27745 0.0
H338 H 0.86409 0.82244 0.2901 0.0
H339 H 0.80264 0.80468 0.2956 0.0
H340 H 0.74267 0.72722 0.27651 0.0
H341 H 0.79294 0.72337 0.26386 0.0
C342 C 0.85638 0.7591 0.26523 0.0
C343 C 0.88824 0.7795 0.26692 0.0
C344 C 0.82721 0.76144 0.27245 0.0
C345 C 0.89046 0.80217 0.276 0.0
C346 C 0.86159 0.8046 0.28321 0.0
C347 C 0.80065 0.78671 0.28873 0.0
C348 C 0.76878 0.76632 0.28704 0.0
C349 C 0.82982 0.78438 0.28152 0.0
C350 C 0.76657 0.74364 0.27796 0.0
C351 C 0.79544 0.74121 0.27075 0.0
H352 H 0.55224 0.45537 0.5215 0.0
H353 H 0.61721 0.4761 0.55017 0.0
H354 H 0.62092 0.5403 0.54506 0.0
H355 H 0.60659 0.59052 0.53232 0.0
H356 H 0.54161 0.56979 0.50366 0.0
H357 H 0.53797 0.50557 0.50875 0.0
C358 C 0.56751 0.47383 0.52659 0.0
C359 C 0.58435 0.46077 0.53623 0.0
C360 C 0.56978 0.51076 0.52357 0.0
C361 C 0.60351 0.48535 0.54279 0.0
C362 C 0.60587 0.52209 0.53984 0.0
C363 C 0.59135 0.57205 0.52723 0.0
C364 C 0.57447 0.58512 0.5176 0.0
C365 C 0.5891 0.53512 0.53025 0.0
C366 C 0.55533 0.56052 0.51103 0.0
C367 C 0.55301 0.52378 0.51398 0.0
H368 H 0.89762 0.24626 0.77208 0.0
H369 H 0.87511 0.31368 0.79958 0.0
H370 H 0.81079 0.31582 0.79442 0.0
H371 H 0.76096 0.29944 0.78195 0.0
H372 H 0.78347 0.23202 0.75445 0.0
H373 H 0.84779 0.22987 0.75961 0.0
C374 C 0.87873 0.26172 0.7769 0.0
C375 C 0.89133 0.27973 0.78622 0.0
C376 C 0.84173 0.26306 0.77384 0.0
C377 C 0.86622 0.29912 0.79245 0.0
C378 C 0.82941 0.30057 0.78947 0.0
C379 C 0.77984 0.28398 0.77713 0.0
C380 C 0.76725 0.26597 0.76781 0.0
C381 C 0.81684 0.28263 0.78018 0.0
C382 C 0.79235 0.24658 0.76158 0.0
C383 C 0.82917 0.24513 0.76456 0.0
H384 H 0.35525 0.24113 0.75838 0.0
H385 H 0.41505 0.31874 0.77747 0.0
H386 H 0.36476 0.32249 0.79012 0.0
H387 H 0.30335 0.30461 0.79563 0.0
H388 H 0.24355 0.227 0.77654 0.0
H389 H 0.29384 0.22325 0.76389 0.0
C390 C 0.3572 0.25912 0.76526 0.0
C391 C 0.38902 0.27958 0.76695 0.0
C392 C 0.32802 0.26139 0.77247 0.0
C393 C 0.39119 0.30227 0.77603 0.0
C394 C 0.3623 0.30464 0.78324 0.0
C395 C 0.3014 0.28663 0.78875 0.0
C396 C 0.26958 0.26616 0.78706 0.0
C397 C 0.33058 0.28435 0.78154 0.0
C398 C 0.26741 0.24347 0.77799 0.0
C399 C 0.2963 0.2411 0.77077 0.0
H400 H 0.26033 0.79969 0.28188 0.0
H401 H 0.28252 0.73215 0.25439 0.0
H402 H 0.34685 0.7298 0.25953 0.0
H403 H 0.39678 0.74605 0.27198 0.0
H404 H 0.37458 0.81359 0.29948 0.0
H405 H 0.31025 0.81594 0.29433 0.0
C406 C 0.27915 0.78416 0.27706 0.0
C407 C 0.26646 0.76618 0.26774 0.0
C408 C 0.31615 0.7827 0.2801 0.0
C409 C 0.29148 0.74669 0.26151 0.0
C410 C 0.3283 0.74513 0.26448 0.0
C411 C 0.37796 0.76157 0.2768 0.0
C412 C 0.39064 0.77956 0.28612 0.0
C413 C 0.34096 0.76304 0.27376 0.0
C414 C 0.36562 0.79905 0.29235 0.0
C415 C 0.3288 0.80061 0.28938 0.0
H416 H 0.54611 0.99716 0.50819 0.0
H417 H 0.62451 0.93716 0.52784 0.0
H418 H 0.62802 0.98741 0.54053 0.0
H419 H 0.60974 0.04887 0.54591 0.0
H420 H 0.53137 0.10888 0.52625 0.0
H421 H 0.5278 0.0586 0.51357 0.0
C422 C 0.56421 0.99515 0.5152 0.0
C423 C 0.58497 0.96329 0.51704 0.0
C424 C 0.56636 1.02432 0.52243 0.0
C425 C 0.60781 0.96105 0.52628 0.0
C426 C 0.61005 0.98992 0.53351 0.0
C427 C 0.59163 0.05087 0.5389 0.0
C428 C 0.5709 0.08275 0.53706 0.0
C429 C 0.58947 1.0217 0.53167 0.0
C430 C 0.54804 0.08497 0.52782 0.0
C431 C 0.54578 0.05609 0.52059 0.0
H432 H 0.10727 0.95485 1.02286 0.0
H433 H 0.03151 0.97615 0.04843 0.0
H434 H 0.02948 0.04038 0.04318 0.0
H435 H 0.04845 0.09046 0.03116 0.0
H436 H 0.12421 0.06914 1.00559 0.0
H437 H 0.12622 1.00492 1.01083 0.0
C438 C 0.09005 0.97346 0.02723 0.0
C439 C 0.06962 0.96057 0.03605 0.0
C440 C 0.0888 1.01039 1.02412 0.0
C441 C 0.04792 0.9853 0.04171 0.0
C442 C 0.04655 1.02205 0.03867 0.0
C443 C 0.06566 0.07185 1.02679 0.0
C444 C 0.08609 0.08474 1.01797 0.0
C445 C 0.06689 0.03492 0.0299 0.0
C446 C 0.10778 0.06 1.01231 0.0
C447 C 0.10914 1.02325 1.01535 0.0
H448 H 0.12482 0.74268 0.16803 0.0
H449 H 0.03702 0.81758 0.17418 0.0
H450 H 1.02586 0.82509 0.15471 0.0
H451 H 0.04254 0.81229 0.1359 0.0
H452 H 0.13179 0.73912 0.12977 0.0
H453 H 0.14075 0.72901 0.14924 0.0
C454 C 0.10335 0.7608 0.16512 0.0
C455 C 0.08191 0.77964 0.1726 0.0
C456 C 0.09732 0.76533 0.1539 0.0
C457 C 0.05372 0.80243 0.16865 0.0
C458 C 0.04747 0.80695 0.1575 0.0
C459 C 0.06405 0.79424 0.13882 0.0
C460 C 0.08651 0.77661 0.13135 0.0
C461 C 0.06934 0.78883 0.15004 0.0
C462 C 0.11382 0.75277 0.1353 0.0
C463 C 0.11915 0.74715 0.14645 0.0
H464 H 0.61317 0.73405 0.4181 0.0
H465 H 0.52316 0.80646 0.42406 0.0
H466 H 0.51452 0.81649 0.40458 0.0
H467 H 0.53094 0.80293 0.38582 0.0
H468 H 0.61952 0.72879 0.37983 0.0
H469 H 0.63036 0.72141 0.39933 0.0
C470 C 0.59156 0.75192 0.41514 0.0
C471 C 0.56879 0.76937 0.42257 0.0
C472 C 0.58647 0.75728 0.40391 0.0
C473 C 0.54136 0.79297 0.41857 0.0
C474 C 0.53622 0.79854 0.40741 0.0
C475 C 0.55251 0.78501 0.38877 0.0
C476 C 0.57426 0.76634 0.38133 0.0
C477 C 0.55836 0.78055 0.4 0.0
C478 C 0.60257 0.7438 0.38534 0.0
C479 C 0.60865 0.73935 0.3965 0.0
H480 H 0.55025 0.32054 0.63588 0.0
H481 H 0.6232 0.23104 0.62983 0.0
H482 H 0.6304 0.21992 0.64931 0.0
H483 H 0.61797 0.2371 0.6681 0.0
H484 H 0.54676 0.32801 0.67413 0.0
H485 H 0.53687 0.33695 0.65465 0.0
C486 C 0.56787 0.2987 0.63881 0.0
C487 C 0.58626 0.27678 0.63136 0.0
C488 C 0.57223 0.29269 0.65004 0.0
C489 C 0.6084 0.24813 0.63534 0.0
C490 C 0.61275 0.2419 0.6465 0.0
C491 C 0.60039 0.25897 0.66516 0.0
C492 C 0.58325 0.2819 0.6726 0.0
C493 C 0.59511 0.26424 0.65392 0.0
C494 C 0.56001 0.30968 0.66862 0.0
C495 C 0.55453 0.31499 0.65747 0.0
H496 H 0.10943 0.22546 0.9181 0.0
H497 H 0.03547 0.31406 0.92422 0.0
H498 H 1.02796 0.32514 0.90475 0.0
H499 H 0.04047 0.30819 0.88594 0.0
H500 H 0.1127 0.21816 0.87984 0.0
H501 H 0.12284 0.20926 0.89931 0.0
C502 C 0.09152 0.24709 0.91518 0.0
C503 C 0.07294 0.26877 0.92265 0.0
C504 C 0.08699 0.25308 0.90395 0.0
C505 C 0.05041 0.29716 0.91869 0.0
C506 C 0.04589 0.30337 0.90754 0.0
C507 C 0.05832 0.28652 0.88887 0.0
C508 C 0.07568 0.26383 0.8814 0.0
C509 C 0.06374 0.28127 0.90009 0.0
C510 C 0.09927 0.23631 0.88536 0.0
C511 C 0.1049 0.23102 0.89651 0.0
loop_
_geom_bond_atom_site_label_1
_geom_bond_atom_site_label_2
_geom_bond_distance
_geom_bond_site_symmetry_2
_ccdc_geom_bond_type
C0 C1 1.264 . S
C0 C5 1.479 . S
C0 C10 1.465 . S
C1 C0 1.264 . S
C1 C3 1.339 . S
C1 H28 0.931 . S
C2 C3 1.395 . S
C2 C4 1.320 . S
C3 C1 1.339 . S
C3 C2 1.395 . S
C3 H29 0.929 . S
C4 C2 1.320 . S
C4 C5 1.405 . S
C4 H30 0.930 . S
C5 C0 1.479 . S
C5 C4 1.405 . S
C5 H31 0.931 . S
U6 O7 2.454 . S
U6 O8 2.458 . S
U6 C9 2.984 . S
U6 C10 2.847 . S
U6 C23 2.882 . S
U6 O24 2.441 . S
U6 O25 2.420 . S
U6 O26 2.455 . S
U6 O27 2.449 . S
O7 U6 2.454 . S
O7 C9 1.353 . S
O8 U6 2.458 . S
O8 C9 1.286 . S
C9 U6 2.984 . S
C9 O7 1.353 . S
C9 O8 1.286 . S
C9 C11 1.363 . S
C10 C0 1.465 . S
C10 U6 2.847 . S
C10 O24 1.249 . S
C10 O25 1.202 . S
C11 C9 1.363 . S
C11 C13 1.408 . S
C11 C16 1.342 . S
C12 C13 1.310 . S
C12 C15 1.461 . S
C12 H32 0.932 . S
C13 C11 1.408 . S
C13 C12 1.310 . S
C13 H33 0.930 . S
C14 C15 1.474 . S
C14 C16 1.285 . S
C14 H34 0.929 . S
C15 C12 1.461 . S
C15 C14 1.474 . S
C16 C11 1.342 . S
C16 C14 1.285 . S
C16 H35 0.930 . S
C17 C20 1.424 . S
C17 C22 1.245 . S
C17 C23 1.428 . S
C18 C21 1.260 . S
C18 C22 1.477 . S
C18 H36 0.932 . S
C19 C20 1.384 . S
C19 C21 1.479 . S
C19 H37 0.929 . S
C20 C17 1.424 . S
C20 C19 1.384 . S
C20 H38 0.928 . S
C21 C18 1.260 . S
C21 C19 1.479 . S
C22 C17 1.245 . S
C22 C18 1.477 . S
C22 H39 0.932 . S
C23 U6 2.882 . S
C23 C17 1.428 . S
C23 O26 1.301 . S
C23 O27 1.282 . S
O24 U6 2.441 . S
O24 C10 1.249 . S
O25 U6 2.420 . S
O25 C10 1.202 . S
O26 U6 2.455 . S
O26 C23 1.301 . S
O27 U6 2.449 . S
O27 C23 1.282 . S
H28 C1 0.931 . S
H29 C3 0.929 . S
H30 C4 0.930 . S
H31 C5 0.931 . S
H32 C12 0.932 . S
H33 C13 0.930 . S
H34 C14 0.929 . S
H35 C16 0.930 . S
H36 C18 0.932 . S
H37 C19 0.929 . S
H38 C20 0.928 . S
H39 C22 0.932 . S
C40 C41 1.264 . S
C40 C45 1.479 . S
C40 C50 1.465 . S
C41 C40 1.264 . S
C41 C43 1.339 . S
C41 H68 0.931 . S
C42 C43 1.395 . S
C42 C44 1.320 . S
C43 C41 1.339 . S
C43 C42 1.395 . S
C43 H69 0.929 . S
C44 C42 1.320 . S
C44 C45 1.405 . S
C44 H70 0.930 . S
C45 C40 1.479 . S
C45 C44 1.405 . S
C45 H71 0.931 . S
U46 O47 2.454 . S
U46 O48 2.458 . S
U46 C49 2.984 . S
U46 C50 2.847 . S
U46 C63 2.882 . S
U46 O64 2.441 . S
U46 O65 2.420 . S
U46 O66 2.455 . S
U46 O67 2.449 . S
O47 U46 2.454 . S
O47 C49 1.353 . S
O48 U46 2.458 . S
O48 C49 1.286 . S
C49 U46 2.984 . S
C49 O47 1.353 . S
C49 O48 1.286 . S
C49 C51 1.363 . S
C50 C40 1.465 . S
C50 U46 2.847 . S
C50 O64 1.249 . S
C50 O65 1.202 . S
C51 C49 1.363 . S
C51 C53 1.408 . S
C51 C56 1.342 . S
C52 C53 1.310 . S
C52 C55 1.461 . S
C52 H72 0.932 . S
C53 C51 1.408 . S
C53 C52 1.310 . S
C53 H73 0.930 . S
C54 C55 1.474 . S
C54 C56 1.285 . S
C54 H74 0.929 . S
C55 C52 1.461 . S
C55 C54 1.474 . S
C56 C51 1.342 . S
C56 C54 1.285 . S
C56 H75 0.930 . S
C57 C60 1.424 . S
C57 C62 1.245 . S
C57 C63 1.428 . S
C58 C61 1.260 . S
C58 C62 1.477 . S
C58 H76 0.932 . S
C59 C60 1.384 . S
C59 C61 1.479 . S
C59 H77 0.929 . S
C60 C57 1.424 . S
C60 C59 1.384 . S
C60 H78 0.928 . S
C61 C58 1.260 . S
C61 C59 1.479 . S
C62 C57 1.245 . S
C62 C58 1.477 . S
C62 H79 0.932 . S
C63 U46 2.882 . S
C63 C57 1.428 . S
C63 O66 1.301 . S
C63 O67 1.282 . S
O64 U46 2.441 . S
O64 C50 1.249 . S
O65 U46 2.420 . S
O65 C50 1.202 . S
O66 U46 2.455 . S
O66 C63 1.301 . S
O67 U46 2.449 . S
O67 C63 1.282 . S
H68 C41 0.931 . S
H69 C43 0.929 . S
H70 C44 0.930 . S
H71 C45 0.931 . S
H72 C52 0.932 . S
H73 C53 0.930 . S
H74 C54 0.929 . S
H75 C56 0.930 . S
H76 C58 0.932 . S
H77 C59 0.929 . S
H78 C60 0.928 . S
H79 C62 0.932 . S
C80 C81 1.264 . S
C80 C85 1.479 . S
C80 C90 1.465 . S
C81 C80 1.264 . S
C81 C83 1.339 . S
C81 H108 0.931 . S
C82 C83 1.395 . S
C82 C84 1.320 . S
C83 C81 1.339 . S
C83 C82 1.395 . S
C83 H109 0.929 . S
C84 C82 1.320 . S
C84 C85 1.405 . S
C84 H110 0.930 . S
C85 C80 1.479 . S
C85 C84 1.405 . S
C85 H111 0.931 . S
U86 O87 2.454 . S
U86 O88 2.458 . S
U86 C89 2.984 . S
U86 C90 2.847 . S
U86 C103 2.882 . S
U86 O104 2.441 . S
U86 O105 2.420 . S
U86 O106 2.455 . S
U86 O107 2.449 . S
O87 U86 2.454 . S
O87 C89 1.353 . S
O88 U86 2.458 . S
O88 C89 1.286 . S
C89 U86 2.984 . S
C89 O87 1.353 . S
C89 O88 1.286 . S
C89 C91 1.363 . S
C90 C80 1.465 . S
C90 U86 2.847 . S
C90 O104 1.249 . S
C90 O105 1.202 . S
C91 C89 1.363 . S
C91 C93 1.408 . S
C91 C96 1.342 . S
C92 C93 1.310 . S
C92 C95 1.461 . S
C92 H112 0.932 . S
C93 C91 1.408 . S
C93 C92 1.310 . S
C93 H113 0.930 . S
C94 C95 1.474 . S
C94 C96 1.285 . S
C94 H114 0.929 . S
C95 C92 1.461 . S
C95 C94 1.474 . S
C96 C91 1.342 . S
C96 C94 1.285 . S
C96 H115 0.930 . S
C97 C100 1.424 . S
C97 C102 1.245 . S
C97 C103 1.428 . S
C98 C101 1.260 . S
C98 C102 1.477 . S
C98 H116 0.932 . S
C99 C100 1.384 . S
C99 C101 1.479 . S
C99 H117 0.929 . S
C100 C97 1.424 . S
C100 C99 1.384 . S
C100 H118 0.928 . S
C101 C98 1.260 . S
C101 C99 1.479 . S
C102 C97 1.245 . S
C102 C98 1.477 . S
C102 H119 0.932 . S
C103 U86 2.882 . S
C103 C97 1.428 . S
C103 O106 1.301 . S
C103 O107 1.282 . S
O104 U86 2.441 . S
O104 C90 1.249 . S
O105 U86 2.420 . S
O105 C90 1.202 . S
O106 U86 2.455 . S
O106 C103 1.301 . S
O107 U86 2.449 . S
O107 C103 1.282 . S
H108 C81 0.931 . S
H109 C83 0.929 . S
H110 C84 0.930 . S
H111 C85 0.931 . S
H112 C92 0.932 . S
H113 C93 0.930 . S
H114 C94 0.929 . S
H115 C96 0.930 . S
H116 C98 0.932 . S
H117 C99 0.929 . S
H118 C100 0.928 . S
H119 C102 0.932 . S
C120 C121 1.264 . S
C120 C125 1.479 . S
C120 C130 1.465 . S
C121 C120 1.264 . S
C121 C123 1.339 . S
C121 H148 0.931 . S
C122 C123 1.395 . S
C122 C124 1.320 . S
C123 C121 1.339 . S
C123 C122 1.395 . S
C123 H149 0.929 . S
C124 C122 1.320 . S
C124 C125 1.405 . S
C124 H150 0.930 . S
C125 C120 1.479 . S
C125 C124 1.405 . S
C125 H151 0.931 . S
U126 O127 2.454 . S
U126 O128 2.458 . S
U126 C129 2.984 . S
U126 C130 2.847 1_455 S
U126 C143 2.882 . S
U126 O144 2.441 . S
U126 O145 2.420 1_455 S
U126 O146 2.455 . S
U126 O147 2.449 . S
O127 U126 2.454 . S
O127 C129 1.353 . S
O128 U126 2.458 . S
O128 C129 1.286 . S
C129 U126 2.984 . S
C129 O127 1.353 . S
C129 O128 1.286 . S
C129 C131 1.363 . S
C130 C120 1.465 . S
C130 U126 2.847 1_655 S
C130 O144 1.249 1_655 S
C130 O145 1.202 . S
C131 C129 1.363 . S
C131 C133 1.408 . S
C131 C136 1.342 . S
C132 C133 1.310 . S
C132 C135 1.461 . S
C132 H152 0.932 . S
C133 C131 1.408 . S
C133 C132 1.310 . S
C133 H153 0.930 . S
C134 C135 1.474 . S
C134 C136 1.285 . S
C134 H154 0.929 . S
C135 C132 1.461 . S
C135 C134 1.474 . S
C136 C131 1.342 . S
C136 C134 1.285 . S
C136 H155 0.930 . S
C137 C140 1.424 . S
C137 C142 1.245 . S
C137 C143 1.428 . S
C138 C141 1.260 . S
C138 C142 1.477 . S
C138 H156 0.932 . S
C139 C140 1.384 . S
C139 C141 1.479 . S
C139 H157 0.920 1_455 S
C140 C137 1.424 . S
C140 C139 1.384 . S
C140 H158 0.928 . S
C141 C138 1.260 . S
C141 C139 1.479 . S
C142 C137 1.245 . S
C142 C138 1.477 . S
C142 H159 0.932 . S
C143 U126 2.882 . S
C143 C137 1.428 . S
C143 O146 1.301 . S
C143 O147 1.282 . S
O144 U126 2.441 . S
O144 C130 1.249 1_455 S
O145 U126 2.420 1_655 S
O145 C130 1.202 . S
O146 U126 2.455 . S
O146 C143 1.301 . S
O147 U126 2.449 . S
O147 C143 1.282 . S
H148 C121 0.931 . S
H149 C123 0.929 . S
H150 C124 0.930 . S
H151 C125 0.931 . S
H152 C132 0.932 . S
H153 C133 0.930 . S
H154 C134 0.929 . S
H155 C136 0.930 . S
H156 C138 0.932 . S
H157 C139 0.920 1_655 S
H158 C140 0.928 . S
H159 C142 0.932 . S
C160 C161 1.264 . S
C160 C165 1.479 . S
C160 C170 1.465 . S
C161 C160 1.264 . S
C161 C163 1.339 . S
C161 H188 0.931 . S
C162 C163 1.395 . S
C162 C164 1.320 . S
C163 C161 1.339 . S
C163 C162 1.395 . S
C163 H189 0.929 . S
C164 C162 1.320 . S
C164 C165 1.405 . S
C164 H190 0.930 . S
C165 C160 1.479 . S
C165 C164 1.405 . S
C165 H191 0.931 . S
U166 O167 2.454 . S
U166 O168 2.458 . S
U166 C169 2.984 . S
U166 C170 2.847 . S
U166 C183 2.882 . S
U166 O184 2.441 . S
U166 O185 2.420 . S
U166 O186 2.455 . S
U166 O187 2.449 . S
O167 U166 2.454 . S
O167 C169 1.353 . S
O168 U166 2.458 . S
O168 C169 1.286 . S
C169 U166 2.984 . S
C169 O167 1.353 . S
C169 O168 1.286 . S
C169 C171 1.363 . S
C170 C160 1.465 . S
C170 U166 2.847 . S
C170 O184 1.249 . S
C170 O185 1.202 . S
C171 C169 1.363 . S
C171 C173 1.408 . S
C171 C176 1.342 . S
C172 C173 1.310 . S
C172 C175 1.461 . S
C172 H192 0.932 . S
C173 C171 1.408 . S
C173 C172 1.310 . S
C173 H193 0.930 . S
C174 C175 1.474 . S
C174 C176 1.285 . S
C174 H194 0.929 . S
C175 C172 1.461 . S
C175 C174 1.474 . S
C176 C171 1.342 . S
C176 C174 1.285 . S
C176 H195 0.930 . S
C177 C180 1.424 . S
C177 C182 1.245 . S
C177 C183 1.428 . S
C178 C181 1.260 . S
C178 C182 1.477 . S
C178 H196 0.932 . S
C179 C180 1.384 . S
C179 C181 1.479 . S
C179 H197 0.929 . S
C180 C177 1.424 . S
C180 C179 1.384 . S
C180 H198 0.928 . S
C181 C178 1.260 . S
C181 C179 1.479 . S
C182 C177 1.245 . S
C182 C178 1.477 . S
C182 H199 0.932 . S
C183 U166 2.882 . S
C183 C177 1.428 . S
C183 O186 1.301 . S
C183 O187 1.282 . S
O184 U166 2.441 . S
O184 C170 1.249 . S
O185 U166 2.420 . S
O185 C170 1.202 . S
O186 U166 2.455 . S
O186 C183 1.301 . S
O187 U166 2.449 . S
O187 C183 1.282 . S
H188 C161 0.931 . S
H189 C163 0.929 . S
H190 C164 0.930 . S
H191 C165 0.931 . S
H192 C172 0.932 . S
H193 C173 0.930 . S
H194 C174 0.929 . S
H195 C176 0.930 . S
H196 C178 0.932 . S
H197 C179 0.929 . S
H198 C180 0.928 . S
H199 C182 0.932 . S
C200 C201 1.264 . S
C200 C205 1.479 . S
C200 C210 1.465 . S
C201 C200 1.264 . S
C201 C203 1.339 . S
C201 H228 0.931 . S
C202 C203 1.395 . S
C202 C204 1.320 . S
C203 C201 1.339 . S
C203 C202 1.395 . S
C203 H229 0.929 . S
C204 C202 1.320 . S
C204 C205 1.405 . S
C204 H230 0.930 . S
C205 C200 1.479 . S
C205 C204 1.405 . S
C205 H231 0.931 . S
U206 O207 2.454 . S
U206 O208 2.458 1_455 S
U206 C209 2.984 1_455 S
U206 C210 2.847 . S
U206 C223 2.882 . S
U206 O224 2.441 . S
U206 O225 2.420 . S
U206 O226 2.455 . S
U206 O227 2.449 . S
O207 U206 2.454 . S
O207 C209 1.353 1_455 S
O208 U206 2.458 1_655 S
O208 C209 1.286 . S
C209 U206 2.984 1_655 S
C209 O207 1.353 1_655 S
C209 O208 1.286 . S
C209 C211 1.363 . S
C210 C200 1.465 . S
C210 U206 2.847 . S
C210 O224 1.249 . S
C210 O225 1.202 . S
C211 C209 1.363 . S
C211 C213 1.408 . S
C211 C216 1.342 . S
C212 C213 1.310 . S
C212 C215 1.461 . S
C212 H232 0.932 . S
C213 C211 1.408 . S
C213 C212 1.310 . S
C213 H233 0.930 . S
C214 C215 1.474 . S
C214 C216 1.285 . S
C214 H234 0.929 . S
C215 C212 1.461 . S
C215 C214 1.474 . S
C216 C211 1.342 . S
C216 C214 1.285 . S
C216 H235 0.930 . S
C217 C220 1.424 . S
C217 C222 1.245 . S
C217 C223 1.428 . S
C218 C221 1.260 . S
C218 C222 1.477 . S
C218 H236 0.932 . S
C219 C220 1.384 . S
C219 C221 1.479 . S
C219 H237 0.929 . S
C220 C217 1.424 . S
C220 C219 1.384 . S
C220 H238 0.928 . S
C221 C218 1.260 . S
C221 C219 1.479 . S
C222 C217 1.245 . S
C222 C218 1.477 . S
C222 H239 0.932 . S
C223 U206 2.882 . S
C223 C217 1.428 . S
C223 O226 1.301 . S
C223 O227 1.282 . S
O224 U206 2.441 . S
O224 C210 1.249 . S
O225 U206 2.420 . S
O225 C210 1.202 . S
O226 U206 2.455 . S
O226 C223 1.301 . S
O227 U206 2.449 . S
O227 C223 1.282 . S
H228 C201 0.931 . S
H229 C203 0.929 . S
H230 C204 0.930 . S
H231 C205 0.931 . S
H232 C212 0.932 . S
H233 C213 0.930 . S
H234 C214 0.929 . S
H235 C216 0.930 . S
H236 C218 0.932 . S
H237 C219 0.929 . S
H238 C220 0.928 . S
H239 C222 0.932 . S
C240 C241 1.264 . S
C240 C245 1.479 . S
C240 C250 1.465 . S
C241 C240 1.264 . S
C241 C243 1.339 . S
C241 H268 0.931 . S
C242 C243 1.395 . S
C242 C244 1.320 . S
C243 C241 1.339 . S
C243 C242 1.395 . S
C243 H269 0.929 . S
C244 C242 1.320 . S
C244 C245 1.405 . S
C244 H270 0.930 . S
C245 C240 1.479 . S
C245 C244 1.405 . S
C245 H271 0.931 . S
U246 O247 2.454 . S
U246 O248 2.458 . S
U246 C249 2.984 . S
U246 C250 2.847 . S
U246 C263 2.882 . S
U246 O264 2.441 . S
U246 O265 2.420 . S
U246 O266 2.455 . S
U246 O267 2.449 . S
O247 U246 2.454 . S
O247 C249 1.353 . S
O248 U246 2.458 . S
O248 C249 1.286 . S
C249 U246 2.984 . S
C249 O247 1.353 . S
C249 O248 1.286 . S
C249 C251 1.363 . S
C250 C240 1.465 . S
C250 U246 2.847 . S
C250 O264 1.249 . S
C250 O265 1.202 . S
C251 C249 1.363 . S
C251 C253 1.408 . S
C251 C256 1.342 . S
C252 C253 1.310 . S
C252 C255 1.461 . S
C252 H272 0.932 . S
C253 C251 1.408 . S
C253 C252 1.310 . S
C253 H273 0.930 . S
C254 C255 1.474 . S
C254 C256 1.285 . S
C254 H274 0.929 . S
C255 C252 1.461 . S
C255 C254 1.474 . S
C256 C251 1.342 . S
C256 C254 1.285 . S
C256 H275 0.930 . S
C257 C260 1.424 . S
C257 C262 1.245 . S
C257 C263 1.428 . S
C258 C261 1.260 . S
C258 C262 1.477 . S
C258 H276 0.932 . S
C259 C260 1.384 . S
C259 C261 1.479 . S
C259 H277 0.929 . S
C260 C257 1.424 . S
C260 C259 1.384 . S
C260 H278 0.928 . S
C261 C258 1.260 . S
C261 C259 1.479 . S
C262 C257 1.245 . S
C262 C258 1.477 . S
C262 H279 0.932 . S
C263 U246 2.882 . S
C263 C257 1.428 . S
C263 O266 1.301 . S
C263 O267 1.282 . S
O264 U246 2.441 . S
O264 C250 1.249 . S
O265 U246 2.420 . S
O265 C250 1.202 . S
O266 U246 2.455 . S
O266 C263 1.301 . S
O267 U246 2.449 . S
O267 C263 1.282 . S
H268 C241 0.931 . S
H269 C243 0.929 . S
H270 C244 0.930 . S
H271 C245 0.931 . S
H272 C252 0.932 . S
H273 C253 0.930 . S
H274 C254 0.929 . S
H275 C256 0.930 . S
H276 C258 0.932 . S
H277 C259 0.929 . S
H278 C260 0.928 . S
H279 C262 0.932 . S
C280 C281 1.264 . S
C280 C285 1.479 . S
C280 C290 1.465 . S
C281 C280 1.264 . S
C281 C283 1.339 . S
C281 H308 0.931 . S
C282 C283 1.395 . S
C282 C284 1.320 . S
C283 C281 1.339 . S
C283 C282 1.395 . S
C283 H309 0.929 . S
C284 C282 1.320 . S
C284 C285 1.405 . S
C284 H310 0.930 . S
C285 C280 1.479 . S
C285 C284 1.405 . S
C285 H311 0.931 . S
U286 O287 2.454 . S
U286 O288 2.458 . S
U286 C289 2.984 . S
U286 C290 2.847 . S
U286 C303 2.882 . S
U286 O304 2.441 . S
U286 O305 2.420 . S
U286 O306 2.455 . S
U286 O307 2.449 . S
O287 U286 2.454 . S
O287 C289 1.353 . S
O288 U286 2.458 . S
O288 C289 1.286 . S
C289 U286 2.984 . S
C289 O287 1.353 . S
C289 O288 1.286 . S
C289 C291 1.363 . S
C290 C280 1.465 . S
C290 U286 2.847 . S
C290 O304 1.249 . S
C290 O305 1.202 . S
C291 C289 1.363 . S
C291 C293 1.408 . S
C291 C296 1.342 . S
C292 C293 1.310 . S
C292 C295 1.461 . S
C292 H312 0.932 . S
C293 C291 1.408 . S
C293 C292 1.310 . S
C293 H313 0.930 . S
C294 C295 1.474 . S
C294 C296 1.285 . S
C294 H314 0.929 . S
C295 C292 1.461 . S
C295 C294 1.474 . S
C296 C291 1.342 . S
C296 C294 1.285 . S
C296 H315 0.930 . S
C297 C300 1.424 . S
C297 C302 1.245 . S
C297 C303 1.428 . S
C298 C301 1.260 . S
C298 C302 1.477 . S
C298 H316 0.932 . S
C299 C300 1.384 . S
C299 C301 1.479 . S
C299 H317 0.929 . S
C300 C297 1.424 . S
C300 C299 1.384 . S
C300 H318 0.928 . S
C301 C298 1.260 . S
C301 C299 1.479 . S
C302 C297 1.245 . S
C302 C298 1.477 . S
C302 H319 0.932 . S
C303 U286 2.882 . S
C303 C297 1.428 . S
C303 O306 1.301 . S
C303 O307 1.282 . S
O304 U286 2.441 . S
O304 C290 1.249 . S
O305 U286 2.420 . S
O305 C290 1.202 . S
O306 U286 2.455 . S
O306 C303 1.301 . S
O307 U286 2.449 . S
O307 C303 1.282 . S
H308 C281 0.931 . S
H309 C283 0.929 . S
H310 C284 0.930 . S
H311 C285 0.931 . S
H312 C292 0.932 . S
H313 C293 0.930 . S
H314 C294 0.929 . S
H315 C296 0.930 . S
H316 C298 0.932 . S
H317 C299 0.929 . S
H318 C300 0.928 . S
H319 C302 0.932 . S
H320 C326 0.930 . S
H321 C329 0.930 . S
H322 C330 0.930 . S
H323 C331 0.930 . S
H324 C334 0.930 . S
H325 C335 0.930 . S
C326 H320 0.930 . S
C326 C327 1.355 . S
C326 C328 1.415 . S
C327 C326 1.355 . S
C327 C329 1.419 1_556 S
C328 C326 1.415 . S
C328 C333 1.425 1_556 S
C328 C335 1.409 . S
C329 H321 0.930 . S
C329 C327 1.419 1_554 S
C329 C330 1.362 . S
C330 H322 0.930 . S
C330 C329 1.362 . S
C330 C333 1.409 . S
C331 H323 0.930 . S
C331 C332 1.355 . S
C331 C333 1.415 . S
C332 C331 1.355 . S
C332 C334 1.419 1_554 S
C333 C328 1.425 1_554 S
C333 C330 1.409 . S
C333 C331 1.415 . S
C334 H324 0.930 . S
C334 C332 1.419 1_556 S
C334 C335 1.362 . S
C335 H325 0.930 . S
C335 C328 1.409 . S
C335 C334 1.362 . S
H336 C342 0.930 . S
H337 C345 0.930 . S
H338 C346 0.930 . S
H339 C347 0.930 . S
H340 C350 0.930 . S
H341 C351 0.930 . S
C342 H336 0.930 . S
C342 C343 1.355 . S
C342 C344 1.415 . S
C343 C342 1.355 . S
C343 C345 1.419 . S
C344 C342 1.415 . S
C344 C349 1.425 . S
C344 C351 1.409 . S
C345 H337 0.930 . S
C345 C343 1.419 . S
C345 C346 1.362 . S
C346 H338 0.930 . S
C346 C345 1.362 . S
C346 C349 1.409 . S
C347 H339 0.930 . S
C347 C348 1.355 . S
C347 C349 1.415 . S
C348 C347 1.355 . S
C348 C350 1.419 . S
C349 C344 1.425 . S
C349 C346 1.409 . S
C349 C347 1.415 . S
C350 H340 0.930 . S
C350 C348 1.419 . S
C350 C351 1.362 . S
C351 H341 0.930 . S
C351 C344 1.409 . S
C351 C350 1.362 . S
H352 C358 0.930 . S
H353 C361 0.930 . S
H354 C362 0.930 . S
H355 C363 0.930 . S
H356 C366 0.930 . S
H357 C367 0.930 . S
C358 H352 0.930 . S
C358 C359 1.355 . S
C358 C360 1.415 . S
C359 C358 1.355 . S
C359 C361 1.419 . S
C360 C358 1.415 . S
C360 C365 1.425 . S
C360 C367 1.409 . S
C361 H353 0.930 . S
C361 C359 1.419 . S
C361 C362 1.362 . S
C362 H354 0.930 . S
C362 C361 1.362 . S
C362 C365 1.409 . S
C363 H355 0.930 . S
C363 C364 1.355 . S
C363 C365 1.415 . S
C364 C363 1.355 . S
C364 C366 1.419 . S
C365 C360 1.425 . S
C365 C362 1.409 . S
C365 C363 1.415 . S
C366 H356 0.930 . S
C366 C364 1.419 . S
C366 C367 1.362 . S
C367 H357 0.930 . S
C367 C360 1.409 . S
C367 C366 1.362 . S
H368 C374 0.930 . S
H369 C377 0.930 . S
H370 C378 0.930 . S
H371 C379 0.930 . S
H372 C382 0.930 . S
H373 C383 0.930 . S
C374 H368 0.930 . S
C374 C375 1.355 . S
C374 C376 1.415 . S
C375 C374 1.355 . S
C375 C377 1.419 . S
C376 C374 1.415 . S
C376 C381 1.425 . S
C376 C383 1.409 . S
C377 H369 0.930 . S
C377 C375 1.419 . S
C377 C378 1.362 . S
C378 H370 0.930 . S
C378 C377 1.362 . S
C378 C381 1.409 . S
C379 H371 0.930 . S
C379 C380 1.355 . S
C379 C381 1.415 . S
C380 C379 1.355 . S
C380 C382 1.419 . S
C381 C376 1.425 . S
C381 C378 1.409 . S
C381 C379 1.415 . S
C382 H372 0.930 . S
C382 C380 1.419 . S
C382 C383 1.362 . S
C383 H373 0.930 . S
C383 C376 1.409 . S
C383 C382 1.362 . S
H384 C390 0.930 . S
H385 C393 0.930 . S
H386 C394 0.930 . S
H387 C395 0.930 . S
H388 C398 0.930 . S
H389 C399 0.930 . S
C390 H384 0.930 . S
C390 C391 1.355 . S
C390 C392 1.415 . S
C391 C390 1.355 . S
C391 C393 1.419 . S
C392 C390 1.415 . S
C392 C397 1.425 . S
C392 C399 1.409 . S
C393 H385 0.930 . S
C393 C391 1.419 . S
C393 C394 1.362 . S
C394 H386 0.930 . S
C394 C393 1.362 . S
C394 C397 1.409 . S
C395 H387 0.930 . S
C395 C396 1.355 . S
C395 C397 1.415 . S
C396 C395 1.355 . S
C396 C398 1.419 . S
C397 C392 1.425 . S
C397 C394 1.409 . S
C397 C395 1.415 . S
C398 H388 0.930 . S
C398 C396 1.419 . S
C398 C399 1.362 . S
C399 H389 0.930 . S
C399 C392 1.409 . S
C399 C398 1.362 . S
H400 C406 0.930 . S
H401 C409 0.930 . S
H402 C410 0.930 . S
H403 C411 0.930 . S
H404 C414 0.930 . S
H405 C415 0.930 . S
C406 H400 0.930 . S
C406 C407 1.355 . S
C406 C408 1.415 . S
C407 C406 1.355 . S
C407 C409 1.419 . S
C408 C406 1.415 . S
C408 C413 1.425 . S
C408 C415 1.409 . S
C409 H401 0.930 . S
C409 C407 1.419 . S
C409 C410 1.362 . S
C410 H402 0.930 . S
C410 C409 1.362 . S
C410 C413 1.409 . S
C411 H403 0.930 . S
C411 C412 1.355 . S
C411 C413 1.415 . S
C412 C411 1.355 . S
C412 C414 1.419 . S
C413 C408 1.425 . S
C413 C410 1.409 . S
C413 C411 1.415 . S
C414 H404 0.930 . S
C414 C412 1.419 . S
C414 C415 1.362 . S
C415 H405 0.930 . S
C415 C408 1.409 . S
C415 C414 1.362 . S
H416 C422 0.930 . S
H417 C425 0.930 . S
H418 C426 0.930 . S
H419 C427 0.930 . S
H420 C430 0.930 . S
H421 C431 0.930 . S
C422 H416 0.930 . S
C422 C423 1.355 . S
C422 C424 1.415 . S
C423 C422 1.355 . S
C423 C425 1.419 . S
C424 C422 1.415 . S
C424 C429 1.425 . S
C424 C431 1.409 1_565 S
C425 H417 0.930 . S
C425 C423 1.419 . S
C425 C426 1.362 . S
C426 H418 0.930 . S
C426 C425 1.362 . S
C426 C429 1.410 . S
C427 H419 0.930 . S
C427 C428 1.355 . S
C427 C429 1.414 1_545 S
C428 C427 1.355 . S
C428 C430 1.419 . S
C429 C424 1.425 . S
C429 C426 1.410 . S
C429 C427 1.414 1_565 S
C430 H420 0.930 . S
C430 C428 1.419 . S
C430 C431 1.362 . S
C431 H421 0.930 . S
C431 C424 1.409 1_545 S
C431 C430 1.362 . S
H432 C438 0.930 . S
H433 C441 0.930 . S
H434 C442 0.930 . S
H435 C443 0.930 . S
H436 C446 0.930 . S
H437 C447 0.930 . S
C438 H432 0.930 . S
C438 C439 1.355 . S
C438 C440 1.415 1_565 S
C439 C438 1.355 . S
C439 C441 1.419 1_554 S
C440 C438 1.415 1_545 S
C440 C445 1.425 1_544 S
C440 C447 1.409 . S
C441 H433 0.930 . S
C441 C439 1.419 1_556 S
C441 C442 1.362 . S
C442 H434 0.930 . S
C442 C441 1.362 . S
C442 C445 1.409 . S
C443 H435 0.930 . S
C443 C444 1.355 . S
C443 C445 1.415 1_545 S
C444 C443 1.355 . S
C444 C446 1.419 1_556 S
C445 C440 1.425 1_566 S
C445 C442 1.409 . S
C445 C443 1.415 1_565 S
C446 H436 0.930 . S
C446 C444 1.419 1_554 S
C446 C447 1.362 . S
C447 H437 0.930 . S
C447 C440 1.409 . S
C447 C446 1.362 . S
H448 C454 0.930 . S
H449 C457 0.905 1_655 S
H450 C458 0.930 1_655 S
H451 C459 0.930 . S
H452 C462 0.930 . S
H453 C463 0.930 . S
C454 H448 0.930 . S
C454 C455 1.355 . S
C454 C456 1.415 . S
C455 C454 1.355 . S
C455 C457 1.419 . S
C456 C454 1.415 . S
C456 C461 1.425 . S
C456 C463 1.409 . S
C457 H449 0.905 1_455 S
C457 C455 1.419 . S
C457 C458 1.362 . S
C458 H450 0.930 1_455 S
C458 C457 1.362 . S
C458 C461 1.409 . S
C459 H451 0.930 . S
C459 C460 1.355 . S
C459 C461 1.415 . S
C460 C459 1.355 . S
C460 C462 1.419 . S
C461 C456 1.425 . S
C461 C458 1.409 . S
C461 C459 1.415 . S
C462 H452 0.930 . S
C462 C460 1.419 . S
C462 C463 1.362 . S
C463 H453 0.930 . S
C463 C456 1.409 . S
C463 C462 1.362 . S
H464 C470 0.930 . S
H465 C473 0.930 . S
H466 C474 0.930 . S
H467 C475 0.930 . S
H468 C478 0.930 . S
H469 C479 0.930 . S
C470 H464 0.930 . S
C470 C471 1.355 . S
C470 C472 1.415 . S
C471 C470 1.355 . S
C471 C473 1.419 . S
C472 C470 1.415 . S
C472 C477 1.425 . S
C472 C479 1.409 . S
C473 H465 0.930 . S
C473 C471 1.419 . S
C473 C474 1.362 . S
C474 H466 0.930 . S
C474 C473 1.362 . S
C474 C477 1.409 . S
C475 H467 0.930 . S
C475 C476 1.355 . S
C475 C477 1.415 . S
C476 C475 1.355 . S
C476 C478 1.419 . S
C477 C472 1.425 . S
C477 C474 1.409 . S
C477 C475 1.415 . S
C478 H468 0.930 . S
C478 C476 1.419 . S
C478 C479 1.362 . S
C479 H469 0.930 . S
C479 C472 1.409 . S
C479 C478 1.362 . S
H480 C486 0.930 . S
H481 C489 0.930 . S
H482 C490 0.930 . S
H483 C491 0.930 . S
H484 C494 0.930 . S
H485 C495 0.930 . S
C486 H480 0.930 . S
C486 C487 1.355 . S
C486 C488 1.415 . S
C487 C486 1.355 . S
C487 C489 1.419 . S
C488 C486 1.415 . S
C488 C493 1.425 . S
C488 C495 1.409 . S
C489 H481 0.930 . S
C489 C487 1.419 . S
C489 C490 1.362 . S
C490 H482 0.930 . S
C490 C489 1.362 . S
C490 C493 1.409 . S
C491 H483 0.930 . S
C491 C492 1.355 . S
C491 C493 1.415 . S
C492 C491 1.355 . S
C492 C494 1.419 . S
C493 C488 1.425 . S
C493 C490 1.409 . S
C493 C491 1.415 . S
C494 H484 0.930 . S
C494 C492 1.419 . S
C494 C495 1.362 . S
C495 H485 0.930 . S
C495 C488 1.409 . S
C495 C494 1.362 . S
H496 C502 0.930 . S
H497 C505 0.930 . S
H498 C506 0.930 . S
H499 C507 0.930 . S
H500 C510 0.930 . S
H501 C511 0.930 . S
C502 H496 0.930 . S
C502 C503 1.355 . S
C502 C504 1.415 . S
C503 C502 1.355 . S
C503 C505 1.419 . S
C504 C502 1.415 . S
C504 C509 1.425 . S
C504 C511 1.409 . S
C505 H497 0.930 . S
C505 C503 1.419 . S
C505 C506 1.362 . S
C506 H498 0.930 . S
C506 C505 1.362 . S
C506 C509 1.409 . S
C507 H499 0.930 . S
C507 C508 1.355 . S
C507 C509 1.415 . S
C508 C507 1.355 . S
C508 C510 1.419 . S
C509 C504 1.425 . S
C509 C506 1.409 . S
C509 C507 1.415 . S
C510 H500 0.930 . S
C510 C508 1.419 . S
C510 C511 1.362 . S
C511 H501 0.930 . S
C511 C504 1.409 . S
C511 C510 1.362 . S
C327 C175 1.494 . S
C332 C15 1.492 . S
C343 C215 1.493 . S
C348 C55 1.495 . S
C359 C82 1.460 . S
C364 C242 1.500 . S
C375 C122 1.498 . S
C380 C282 1.479 . S
C391 C295 1.494 . S
C396 C135 1.495 . S
C407 C202 1.486 . S
C412 C42 1.494 . S
C423 C255 1.495 . S
C428 C95 1.492 . S
C439 C2 1.470 . S
C444 C162 1.475 . S
C455 C221 1.494 . S
C460 C21 1.497 . S
C471 C261 1.482 . S
C476 C61 1.500 . S
C487 C101 1.493 . S
C492 C301 1.499 . S
C503 C181 1.482 . S
C508 C141 1.466 . S
