# Generated by pormake.
# Topology uoy, (4)-cn, num edge types: 1
# Building blocks:
#     Node 0, Type 0, BuildingBlock: QUQFOY_clean_sbu_3, # of connection points: 4
#     Node 1, Type 0, BuildingBlock: QUQFOY_clean_sbu_3, # of connection points: 4
#     Node 2, Type 0, BuildingBlock: QUQFOY_clean_sbu_3, # of connection points: 4
#     Node 3, Type 0, BuildingBlock: QUQFOY_clean_sbu_3, # of connection points: 4
#     Node 4, Type 0, BuildingBlock: QUQFOY_clean_sbu_3, # of connection points: 4
#     Node 5, Type 0, BuildingBlock: QUQFOY_clean_sbu_3, # of connection points: 4
#     Node 6, Type 0, BuildingBlock: QUQFOY_clean_sbu_3, # of connection points: 4
#     Node 7, Type 0, BuildingBlock: QUQFOY_clean_sbu_3, # of connection points: 4
#     Node 8, Type 0, BuildingBlock: QUQFOY_clean_sbu_3, # of connection points: 4
#     Node 9, Type 0, BuildingBlock: QUQFOY_clean_sbu_3, # of connection points: 4
#     Node 10, Type 0, BuildingBlock: QUQFOY_clean_sbu_3, # of connection points: 4
#     Node 11, Type 0, BuildingBlock: QUQFOY_clean_sbu_3, # of connection points: 4
#     Node 12, Type 0, BuildingBlock: QUQFOY_clean_sbu_3, # of connection points: 4
#     Node 13, Type 0, BuildingBlock: QUQFOY_clean_sbu_3, # of connection points: 4
#     Node 14, Type 0, BuildingBlock: QUQFOY_clean_sbu_3, # of connection points: 4
#     Node 15, Type 0, BuildingBlock: QUQFOY_clean_sbu_3, # of connection points: 4
#     Edge 16, Type (0, 0), BuildingBlock: EZIPEK_clean_linker_0, # of connection points: 2
#     Edge 17, Type (0, 0), BuildingBlock: EZIPEK_clean_linker_0, # of connection points: 2
#     Edge 18, Type (0, 0), BuildingBlock: EZIPEK_clean_linker_0, # of connection points: 2
#     Edge 19, Type (0, 0), BuildingBlock: EZIPEK_clean_linker_0, # of connection points: 2
#     Edge 20, Type (0, 0), BuildingBlock: EZIPEK_clean_linker_0, # of connection points: 2
#     Edge 21, Type (0, 0), BuildingBlock: EZIPEK_clean_linker_0, # of connection points: 2
#     Edge 22, Type (0, 0), BuildingBlock: EZIPEK_clean_linker_0, # of connection points: 2
#     Edge 23, Type (0, 0), BuildingBlock: EZIPEK_clean_linker_0, # of connection points: 2
#     Edge 24, Type (0, 0), BuildingBlock: EZIPEK_clean_linker_0, # of connection points: 2
#     Edge 25, Type (0, 0), BuildingBlock: EZIPEK_clean_linker_0, # of connection points: 2
#     Edge 26, Type (0, 0), BuildingBlock: EZIPEK_clean_linker_0, # of connection points: 2
#     Edge 27, Type (0, 0), BuildingBlock: EZIPEK_clean_linker_0, # of connection points: 2
#     Edge 28, Type (0, 0), BuildingBlock: EZIPEK_clean_linker_0, # of connection points: 2
#     Edge 29, Type (0, 0), BuildingBlock: EZIPEK_clean_linker_0, # of connection points: 2
#     Edge 30, Type (0, 0), BuildingBlock: EZIPEK_clean_linker_0, # of connection points: 2
#     Edge 31, Type (0, 0), BuildingBlock: EZIPEK_clean_linker_0, # of connection points: 2
#     Edge 32, Type (0, 0), BuildingBlock: EZIPEK_clean_linker_0, # of connection points: 2
#     Edge 33, Type (0, 0), BuildingBlock: EZIPEK_clean_linker_0, # of connection points: 2
#     Edge 34, Type (0, 0), BuildingBlock: EZIPEK_clean_linker_0, # of connection points: 2
#     Edge 35, Type (0, 0), BuildingBlock: EZIPEK_clean_linker_0, # of connection points: 2
#     Edge 36, Type (0, 0), BuildingBlock: EZIPEK_clean_linker_0, # of connection points: 2
#     Edge 37, Type (0, 0), BuildingBlock: EZIPEK_clean_linker_0, # of connection points: 2
#     Edge 38, Type (0, 0), BuildingBlock: EZIPEK_clean_linker_0, # of connection points: 2
#     Edge 39, Type (0, 0), BuildingBlock: EZIPEK_clean_linker_0, # of connection points: 2
#     Edge 40, Type (0, 0), BuildingBlock: EZIPEK_clean_linker_0, # of connection points: 2
#     Edge 41, Type (0, 0), BuildingBlock: EZIPEK_clean_linker_0, # of connection points: 2
#     Edge 42, Type (0, 0), BuildingBlock: EZIPEK_clean_linker_0, # of connection points: 2
#     Edge 43, Type (0, 0), BuildingBlock: EZIPEK_clean_linker_0, # of connection points: 2
#     Edge 44, Type (0, 0), BuildingBlock: EZIPEK_clean_linker_0, # of connection points: 2
#     Edge 45, Type (0, 0), BuildingBlock: EZIPEK_clean_linker_0, # of connection points: 2
#     Edge 46, Type (0, 0), BuildingBlock: EZIPEK_clean_linker_0, # of connection points: 2
#     Edge 47, Type (0, 0), BuildingBlock: EZIPEK_clean_linker_0, # of connection points: 2
# Relax obj value: 0.036
# Max RMSD: 0.062
# Mean RMSD: 0.062
data_MOF--net-uoy--node1-QUQFOY_clean_sbu_3--edge1-EZIPEK_clean_linker_0
_symmetry_space_group_name_H-M    P1
_symmetry_Int_Tables_number       1
_symmetry_cell_setting            triclinic
loop_
_symmetry_equiv_pos_as_xyz
'x, y, z'
_cell_length_a     21.336882
_cell_length_b     21.336153
_cell_length_c     83.402654
_cell_angle_alpha  89.897942
_cell_angle_beta   89.920078
_cell_angle_gamma 90.07748
loop_
_atom_site_label
_atom_site_type_symbol
_atom_site_fract_x
_atom_site_fract_y
_atom_site_fract_z
_atom_type_partial_charge
C0 C 0.26315 0.21115 0.1898 0.0
O1 O 0.27672 0.25836 0.18121 0.0
Cd2 Cd 0.30707 0.2403 0.15386 0.0
O3 O 0.25349 0.15812 0.18335 0.0
Cd4 Cd 0.23835 0.11092 0.15703 0.0
C5 C 0.39468 0.10395 0.1562 0.0
O6 O 0.21647 0.20122 0.1404 0.0
O7 O 0.24499 0.11603 0.12814 0.0
O8 O 0.13147 0.09468 0.16526 0.0
C9 C 0.22453 0.17168 0.12738 0.0
O10 O 0.39308 0.16304 0.15395 0.0
C11 C 0.12994 0.03686 0.16183 0.0
O12 O 0.34477 0.0723 0.15845 0.0
O13 O 0.18018 0.01178 0.15669 0.0
C14 C 0.77991 0.77488 0.44058 0.0
O15 O 0.7407 0.80645 0.4325 0.0
Cd16 Cd 0.75108 0.82227 0.40417 0.0
O17 O 0.82595 0.74753 0.43391 0.0
Cd18 Cd 0.86903 0.7305 0.40698 0.0
C19 C 0.89882 0.88602 0.40409 0.0
O20 O 0.77105 0.72209 0.39238 0.0
O21 O 0.85585 0.73141 0.37816 0.0
O22 O 0.88108 0.62176 0.41495 0.0
C23 C 0.79735 0.72168 0.37874 0.0
O24 O 0.84042 0.89334 0.40161 0.0
C25 C 0.93721 0.61696 0.4101 0.0
O26 O 0.92195 0.83234 0.40722 0.0
O27 O 0.96309 0.66574 0.40432 0.0
C28 C 0.19419 0.27094 0.68853 0.0
O29 O 0.17166 0.22976 0.67923 0.0
Cd30 Cd 0.13672 0.26431 0.65337 0.0
O31 O 0.21011 0.32427 0.68305 0.0
Cd32 Cd 0.22777 0.37847 0.65763 0.0
C33 C 0.07686 0.41326 0.66057 0.0
O34 O 0.22891 0.29228 0.63896 0.0
O35 O 0.21357 0.38483 0.62878 0.0
O36 O 0.33784 0.37326 0.66413 0.0
C37 C 0.22304 0.32679 0.62667 0.0
O38 O 0.06775 0.35577 0.65714 0.0
C39 C 0.3481 0.43124 0.66207 0.0
O40 O 0.1318 0.43568 0.66209 0.0
O41 O 0.30183 0.46588 0.65837 0.0
C42 C 0.71003 0.71694 0.94475 0.0
O43 O 0.76009 0.70425 0.93726 0.0
Cd44 Cd 0.74999 0.67001 0.91007 0.0
O45 O 0.65962 0.72677 0.93704 0.0
Cd46 Cd 0.62911 0.74763 0.90912 0.0
C47 C 0.60562 0.59435 0.90887 0.0
O48 O 0.72749 0.76124 0.89483 0.0
O49 O 0.64718 0.7317 0.88079 0.0
O50 O 0.61675 0.85678 0.91609 0.0
C51 C 0.70346 0.75066 0.88122 0.0
O52 O 0.66527 0.59087 0.90849 0.0
C53 C 0.56171 0.86174 0.91052 0.0
O54 O 0.57779 0.64694 0.90975 0.0
O55 O 0.53644 0.81283 0.90468 0.0
C56 C 0.26467 0.27262 0.00676 0.0
O57 O 0.29264 0.23518 0.01616 0.0
Cd58 Cd 0.29929 0.25393 0.04429 0.0
O59 O 0.23236 0.31824 0.01203 0.0
Cd60 Cd 0.19657 0.36271 0.03759 0.0
C61 C 0.3462 0.40928 0.04193 0.0
O62 O 0.19596 0.26972 0.05416 0.0
O63 O 0.1977 0.35863 0.06662 0.0
O64 O 0.08814 0.35867 0.02872 0.0
C65 C 0.19372 0.29943 0.06729 0.0
O66 O 0.3584 0.35229 0.04524 0.0
C67 C 0.07656 0.41532 0.03223 0.0
O68 O 0.29134 0.42692 0.03794 0.0
O69 O 0.12143 0.44848 0.03756 0.0
C70 C 0.68869 0.76488 0.25946 0.0
O71 O 0.72082 0.79811 0.26902 0.0
Cd72 Cd 0.6984 0.80345 0.29704 0.0
O73 O 0.64601 0.72814 0.26451 0.0
Cd74 Cd 0.60011 0.69181 0.28987 0.0
C75 C 0.541 0.8376 0.29295 0.0
O76 O 0.6912 0.6989 0.30683 0.0
O77 O 0.60198 0.69182 0.31909 0.0
O78 O 0.61395 0.58425 0.28102 0.0
C79 C 0.66128 0.69331 0.31987 0.0
O80 O 0.59603 0.85432 0.29701 0.0
C81 C 0.55789 0.56807 0.28399 0.0
O82 O 0.52851 0.78127 0.289 0.0
O83 O 0.52054 0.60991 0.28909 0.0
C84 C 0.18719 0.18709 0.50804 0.0
O85 O 0.15263 0.22484 0.51578 0.0
Cd86 Cd 0.13496 0.21634 0.54396 0.0
O87 O 0.21778 0.14375 0.51501 0.0
Cd88 Cd 0.24081 0.1043 0.54207 0.0
C89 C 0.08829 0.06094 0.54507 0.0
O90 O 0.23742 0.20533 0.5547 0.0
O91 O 0.24134 0.12597 0.57077 0.0
O92 O 0.34995 0.09898 0.53367 0.0
C93 C 0.24095 0.1849 0.5689 0.0
O94 O 0.07512 0.11892 0.5464 0.0
C95 C 0.35918 0.04449 0.53929 0.0
O96 O 0.14443 0.04235 0.54291 0.0
O97 O 0.31293 0.01667 0.54577 0.0
C98 C 0.76675 0.70532 0.76208 0.0
O99 O 0.73455 0.67609 0.77249 0.0
Cd100 Cd 0.77275 0.65463 0.79879 0.0
O101 O 0.81885 0.73061 0.76575 0.0
Cd102 Cd 0.88259 0.74945 0.78984 0.0
C103 C 0.92135 0.59776 0.79068 0.0
O104 O 0.79878 0.75485 0.80924 0.0
O105 O 0.89201 0.74273 0.81895 0.0
O106 O 0.88301 0.85918 0.78235 0.0
C107 C 0.83437 0.75329 0.82134 0.0
O108 O 0.86612 0.58833 0.79597 0.0
C109 C 0.94129 0.86664 0.78457 0.0
O110 O 0.93993 0.65208 0.78649 0.0
O111 O 0.97329 0.81883 0.78848 0.0
C112 C 0.72852 0.70975 0.6951 0.0
O113 O 0.76638 0.74589 0.68783 0.0
Cd114 Cd 0.79877 0.72441 0.66071 0.0
O115 O 0.70854 0.66119 0.688 0.0
Cd116 Cd 0.70884 0.608 0.66224 0.0
C117 C 0.86289 0.57754 0.66412 0.0
O118 O 0.7082 0.69943 0.64484 0.0
O119 O 0.72547 0.60926 0.63359 0.0
O120 O 0.59696 0.59963 0.66586 0.0
C121 C 0.71578 0.66754 0.63216 0.0
O122 O 0.8709 0.63562 0.66122 0.0
C123 C 0.59461 0.54075 0.664 0.0
O124 O 0.80842 0.55461 0.66629 0.0
O125 O 0.64595 0.5121 0.66158 0.0
C126 C 0.30382 0.2755 0.93861 0.0
O127 O 0.26906 0.31172 0.93047 0.0
Cd128 Cd 0.28758 0.33157 0.9027 0.0
O129 O 0.34859 0.24532 0.93216 0.0
Cd130 Cd 0.39578 0.22828 0.90565 0.0
C131 C 0.44146 0.37974 0.90547 0.0
O132 O 0.29899 0.23069 0.89066 0.0
O133 O 0.38449 0.23521 0.87664 0.0
O134 O 0.39721 0.11863 0.91349 0.0
C135 C 0.32537 0.23 0.87706 0.0
O136 O 0.38447 0.39308 0.90252 0.0
C137 C 0.45279 0.10876 0.90875 0.0
O138 O 0.45887 0.32351 0.908 0.0
O139 O 0.48295 0.15481 0.90288 0.0
C140 C 0.695 0.79977 0.19108 0.0
O141 O 0.65278 0.77213 0.18296 0.0
Cd142 Cd 0.63426 0.78303 0.15458 0.0
O143 O 0.73376 0.83765 0.18464 0.0
Cd144 Cd 0.75932 0.88459 0.15863 0.0
C145 C 0.60942 0.94312 0.15569 0.0
O146 O 0.73733 0.78991 0.14465 0.0
O147 O 0.77814 0.86204 0.13018 0.0
O148 O 0.86619 0.87964 0.16864 0.0
C149 C 0.75413 0.80782 0.13086 0.0
O150 O 0.5894 0.8875 0.15358 0.0
C151 C 0.88122 0.93337 0.16331 0.0
O152 O 0.66722 0.95493 0.15829 0.0
O153 O 0.83895 0.96551 0.15641 0.0
C154 C 0.19172 0.19642 0.43934 0.0
O155 O 0.23089 0.16476 0.43128 0.0
Cd156 Cd 0.21926 0.15034 0.40312 0.0
O157 O 0.14725 0.22619 0.43264 0.0
Cd158 Cd 0.10742 0.25213 0.40584 0.0
C159 C 0.06502 0.09998 0.40344 0.0
O160 O 0.20625 0.25226 0.39178 0.0
O161 O 0.12321 0.24774 0.37699 0.0
O162 O 0.10395 0.36115 0.4143 0.0
C163 C 0.18228 0.25255 0.37792 0.0
O164 O 0.12304 0.08799 0.40155 0.0
C165 C 0.04876 0.37081 0.40925 0.0
O166 O 0.04568 0.15572 0.4058 0.0
O167 O 0.0198 0.32487 0.40299 0.0
C168 C 0.76637 0.77773 0.50948 0.0
O169 O 0.79625 0.73732 0.51761 0.0
Cd170 Cd 0.81069 0.74621 0.54605 0.0
O171 O 0.73905 0.8237 0.51617 0.0
Cd172 Cd 0.71937 0.86569 0.543 0.0
C173 C 0.87502 0.89403 0.54556 0.0
O174 O 0.71169 0.76896 0.55814 0.0
O175 O 0.72527 0.8544 0.57176 0.0
O176 O 0.61033 0.87599 0.53532 0.0
C177 C 0.71466 0.79597 0.57165 0.0
O178 O 0.88176 0.83566 0.54826 0.0
C179 C 0.6052 0.93255 0.53978 0.0
O180 O 0.82158 0.91766 0.54239 0.0
O181 O 0.65384 0.95932 0.54531 0.0
C182 C 0.20633 0.2626 0.75738 0.0
O183 O 0.25249 0.27939 0.7659 0.0
Cd184 Cd 0.23137 0.31214 0.79281 0.0
O185 O 0.154 0.24981 0.76393 0.0
Cd186 Cd 0.11033 0.2298 0.79062 0.0
C187 C 0.08438 0.38266 0.7901 0.0
O188 O 0.20408 0.21849 0.80653 0.0
O189 O 0.11918 0.24136 0.81956 0.0
O190 O 0.10291 0.12201 0.7822 0.0
C191 C 0.17655 0.22608 0.81984 0.0
O192 O 0.14337 0.3876 0.79222 0.0
C193 C 0.04636 0.115 0.78651 0.0
O194 O 0.0581 0.32953 0.78845 0.0
O195 O 0.01828 0.16202 0.7925 0.0
C196 C 0.6835 0.70265 0.0136 0.0
O197 O 0.65677 0.74285 0.02254 0.0
Cd198 Cd 0.62605 0.72123 0.04989 0.0
O199 O 0.70303 0.6509 0.01935 0.0
Cd200 Cd 0.71975 0.59061 0.0439 0.0
C201 C 0.56116 0.57185 0.04544 0.0
O202 O 0.72159 0.68219 0.05951 0.0
O203 O 0.74313 0.59955 0.07291 0.0
O204 O 0.82508 0.57982 0.03361 0.0
C205 C 0.73338 0.65812 0.073 0.0
O206 O 0.55532 0.63044 0.04806 0.0
C207 C 0.82905 0.52152 0.03647 0.0
O208 O 0.61446 0.54609 0.04338 0.0
O209 O 0.78067 0.49409 0.04206 0.0
C210 C 0.26984 0.19346 0.25855 0.0
O211 O 0.22563 0.17614 0.26774 0.0
Cd212 Cd 0.24859 0.14344 0.29465 0.0
O213 O 0.32443 0.2031 0.26413 0.0
Cd214 Cd 0.37965 0.21213 0.28964 0.0
C215 C 0.38438 0.0555 0.29064 0.0
O216 O 0.29255 0.23339 0.3072 0.0
O217 O 0.37934 0.20525 0.31871 0.0
O218 O 0.39634 0.32004 0.28256 0.0
C219 C 0.32357 0.22499 0.31997 0.0
O220 O 0.32602 0.05783 0.29386 0.0
C221 C 0.45518 0.31951 0.28458 0.0
O222 O 0.4161 0.10482 0.28772 0.0
O223 O 0.48052 0.26757 0.28835 0.0
C224 C 0.15 0.23356 0.08937 0.0
C225 C 0.2015 0.26637 0.08262 0.0
C226 C 0.26753 0.23831 0.1055 0.0
C227 C 0.2169 0.20318 0.11187 0.0
N228 N 0.11317 0.15944 0.10941 0.0
N229 N 0.31139 0.29333 0.08269 0.0
C230 C 0.15898 0.19841 0.10366 0.0
C231 C 0.26087 0.26715 0.09028 0.0
N232 N 0.09217 0.23792 0.08239 0.0
N233 N 0.32171 0.24456 0.11412 0.0
H234 H 0.30818 0.31567 0.07162 0.0
H235 H 0.35735 0.28929 0.08671 0.0
H236 H 0.32995 0.2206 0.12481 0.0
H237 H 0.35734 0.27591 0.11119 0.0
H238 H 0.0512 0.22081 0.0876 0.0
H239 H 0.08421 0.2627 0.07179 0.0
H240 H 0.07248 0.14851 0.10315 0.0
H241 H 0.11766 0.13435 0.1201 0.0
C242 C 0.73031 0.76658 0.35719 0.0
C243 C 0.76078 0.71392 0.36399 0.0
C244 C 0.72727 0.64797 0.34161 0.0
C245 C 0.69365 0.69971 0.33531 0.0
N246 N 0.65599 0.80598 0.33768 0.0
N247 N 0.78298 0.6032 0.36425 0.0
C248 C 0.69279 0.75833 0.34332 0.0
C249 C 0.7578 0.65414 0.35664 0.0
N250 N 0.7395 0.82484 0.36361 0.0
N251 N 0.73069 0.59337 0.33307 0.0
H252 H 0.80671 0.60634 0.37515 0.0
H253 H 0.77683 0.55722 0.36042 0.0
H254 H 0.70665 0.58632 0.32234 0.0
H255 H 0.76009 0.55628 0.33605 0.0
H256 H 0.7244 0.86617 0.35822 0.0
H257 H 0.76665 0.83259 0.37381 0.0
H258 H 0.64758 0.8472 0.34397 0.0
H259 H 0.63022 0.80292 0.3271 0.0
C260 C 0.28225 0.26971 0.58651 0.0
C261 C 0.23338 0.22724 0.58263 0.0
C262 C 0.17168 0.26298 0.60561 0.0
C263 C 0.22374 0.29916 0.61058 0.0
N264 N 0.32762 0.34 0.6062 0.0
N265 N 0.13036 0.1843 0.58752 0.0
C266 C 0.27847 0.30421 0.60101 0.0
C267 C 0.17752 0.22429 0.59188 0.0
N268 N 0.3322 0.27669 0.57634 0.0
N269 N 0.11624 0.26746 0.6138 0.0
H270 H 0.13052 0.15949 0.57676 0.0
H271 H 0.09182 0.17387 0.5947 0.0
H272 H 0.11044 0.29674 0.6237 0.0
H273 H 0.07457 0.24657 0.61017 0.0
H274 H 0.36621 0.31133 0.57754 0.0
H275 H 0.33817 0.24987 0.56602 0.0
H276 H 0.37192 0.33997 0.60098 0.0
H277 H 0.32474 0.36868 0.61627 0.0
C278 C 0.79093 0.81051 0.84476 0.0
C279 C 0.80763 0.75285 0.83754 0.0
C280 C 0.76447 0.69458 0.86029 0.0
C281 C 0.74191 0.75185 0.86665 0.0
N282 N 0.72873 0.86385 0.86492 0.0
N283 N 0.80829 0.6398 0.83744 0.0
C284 C 0.75423 0.80987 0.85896 0.0
C285 C 0.79435 0.69473 0.84509 0.0
N286 N 0.81109 0.86565 0.83812 0.0
N287 N 0.75826 0.64039 0.86895 0.0
H288 H 0.83254 0.63803 0.82658 0.0
H289 H 0.79295 0.596 0.84132 0.0
H290 H 0.73547 0.63839 0.88001 0.0
H291 H 0.77947 0.59824 0.86582 0.0
H292 H 0.80604 0.90912 0.84361 0.0
H293 H 0.83746 0.86754 0.82759 0.0
H294 H 0.72991 0.90667 0.85894 0.0
H295 H 0.70262 0.86521 0.8755 0.0
C296 C 0.65968 0.73158 0.59235 0.0
C297 C 0.71568 0.75966 0.58663 0.0
C298 C 0.77179 0.72726 0.61083 0.0
C299 C 0.71629 0.69759 0.61632 0.0
N300 N 0.61075 0.66156 0.61163 0.0
N301 N 0.82745 0.77489 0.58855 0.0
C302 C 0.66121 0.69656 0.60684 0.0
C303 C 0.7725 0.75499 0.59536 0.0
N304 N 0.60463 0.74075 0.5843 0.0
N305 N 0.82353 0.72934 0.62048 0.0
H306 H 0.8298 0.79498 0.57716 0.0
H307 H 0.87142 0.76699 0.59354 0.0
H308 H 0.82608 0.70602 0.63145 0.0
H309 H 0.86281 0.75678 0.61807 0.0
H310 H 0.56096 0.72765 0.58876 0.0
H311 H 0.60188 0.7656 0.57354 0.0
H312 H 0.57178 0.65323 0.60444 0.0
H313 H 0.60954 0.63688 0.62244 0.0
C314 C 0.26821 0.28668 0.85545 0.0
C315 C 0.288 0.22921 0.86231 0.0
C316 C 0.22921 0.16998 0.84224 0.0
C317 C 0.21265 0.22733 0.8348 0.0
N318 N 0.22058 0.33988 0.83282 0.0
N319 N 0.29497 0.11651 0.86163 0.0
C320 C 0.23307 0.2857 0.84102 0.0
C321 C 0.27062 0.17085 0.85554 0.0
N322 N 0.28226 0.34203 0.86289 0.0
N323 N 0.20386 0.11501 0.83683 0.0
H324 H 0.32456 0.11544 0.87158 0.0
H325 H 0.28966 0.07289 0.85624 0.0
H326 H 0.1738 0.11278 0.82699 0.0
H327 H 0.20867 0.07225 0.84271 0.0
H328 H 0.26301 0.385 0.85966 0.0
H329 H 0.31089 0.34475 0.87299 0.0
H330 H 0.24012 0.38316 0.83565 0.0
H331 H 0.19341 0.3412 0.82244 0.0
C332 C 0.74976 0.76159 0.08714 0.0
C333 C 0.73644 0.69631 0.0879 0.0
C334 C 0.74328 0.70227 0.11708 0.0
C335 C 0.74528 0.76887 0.11626 0.0
N336 N 0.7248 0.85995 0.09953 0.0
N337 N 0.69796 0.6112 0.10468 0.0
C338 C 0.7405 0.7982 0.10101 0.0
C339 C 0.72621 0.66837 0.10318 0.0
N340 N 0.7744 0.78886 0.07371 0.0
N341 N 0.76041 0.67054 0.13061 0.0
H342 H 0.67768 0.58759 0.09507 0.0
H343 H 0.68673 0.59194 0.11583 0.0
H344 H 0.78025 0.69202 0.14058 0.0
H345 H 0.76296 0.62172 0.13097 0.0
H346 H 0.78745 0.836 0.07341 0.0
H347 H 0.79055 0.76346 0.0639 0.0
H348 H 0.71773 0.88104 0.08838 0.0
H349 H 0.70992 0.88714 0.10918 0.0
C350 C 0.22551 0.18471 0.35633 0.0
C351 C 0.22175 0.24458 0.36364 0.0
C352 C 0.29451 0.28814 0.34386 0.0
C353 C 0.29288 0.23015 0.33564 0.0
N354 N 0.25688 0.12346 0.33323 0.0
N355 N 0.24799 0.35447 0.36426 0.0
C356 C 0.25861 0.17832 0.34168 0.0
C357 C 0.25543 0.29662 0.35747 0.0
N358 N 0.19903 0.13375 0.36369 0.0
N359 N 0.33402 0.3346 0.33872 0.0
H360 H 0.22034 0.3621 0.3744 0.0
H361 H 0.2657 0.39568 0.35933 0.0
H362 H 0.36263 0.32996 0.32863 0.0
H363 H 0.34221 0.37578 0.34505 0.0
H364 H 0.20568 0.08774 0.35994 0.0
H365 H 0.1737 0.13679 0.37434 0.0
H366 H 0.22652 0.08658 0.33581 0.0
H367 H 0.28413 0.11565 0.32304 0.0
C368 C 0.29959 0.25284 0.21671 0.0
C369 C 0.25726 0.21625 0.20748 0.0
C370 C 0.22015 0.16488 0.23193 0.0
C371 C 0.25884 0.20498 0.24123 0.0
N372 N 0.31502 0.30362 0.24221 0.0
N373 N 0.16056 0.1567 0.20747 0.0
C374 C 0.29185 0.25452 0.23355 0.0
C375 C 0.21188 0.17865 0.21547 0.0
N376 N 0.34968 0.28249 0.20983 0.0
N377 N 0.19465 0.11149 0.23824 0.0
H378 H 0.15058 0.16948 0.19566 0.0
H379 H 0.12431 0.13262 0.2132 0.0
H380 H 0.2032 0.09581 0.24985 0.0
H381 H 0.17079 0.07882 0.23124 0.0
H382 H 0.38415 0.30479 0.21662 0.0
H383 H 0.36129 0.27893 0.19776 0.0
H384 H 0.33564 0.34272 0.23682 0.0
H385 H 0.30637 0.30891 0.25445 0.0
C386 C 0.73263 0.7351 0.46613 0.0
C387 C 0.77597 0.77499 0.45819 0.0
C388 C 0.80999 0.81881 0.48383 0.0
C389 C 0.76964 0.77605 0.49185 0.0
N390 N 0.69729 0.6893 0.49126 0.0
N391 N 0.86197 0.84854 0.45913 0.0
C392 C 0.73234 0.73281 0.48317 0.0
C393 C 0.81647 0.81502 0.46695 0.0
N394 N 0.69135 0.7002 0.45733 0.0
N395 N 0.8413 0.86381 0.49234 0.0
H396 H 0.86693 0.84888 0.44669 0.0
H397 H 0.89777 0.87263 0.46493 0.0
H398 H 0.83997 0.86679 0.50481 0.0
H399 H 0.86528 0.90104 0.48707 0.0
H400 H 0.65415 0.67518 0.46228 0.0
H401 H 0.69191 0.69915 0.44482 0.0
H402 H 0.67418 0.65218 0.48575 0.0
H403 H 0.69423 0.68798 0.50374 0.0
C404 C 0.16171 0.22116 0.71504 0.0
C405 C 0.2041 0.25813 0.70585 0.0
C406 C 0.25066 0.29787 0.73053 0.0
C407 C 0.21204 0.25686 0.73968 0.0
N408 N 0.15116 0.16083 0.73936 0.0
N409 N 0.30589 0.30862 0.70546 0.0
C410 C 0.17423 0.21222 0.73154 0.0
C411 C 0.25437 0.28877 0.71378 0.0
N412 N 0.1076 0.1979 0.70864 0.0
N413 N 0.2803 0.3481 0.73727 0.0
H414 H 0.31266 0.29822 0.69336 0.0
H415 H 0.34505 0.3278 0.71111 0.0
H416 H 0.27428 0.36188 0.74912 0.0
H417 H 0.30471 0.38102 0.73041 0.0
H418 H 0.07387 0.17522 0.71562 0.0
H419 H 0.09242 0.20733 0.69704 0.0
H420 H 0.12658 0.12543 0.73346 0.0
H421 H 0.16379 0.14963 0.75109 0.0
C422 C 0.65092 0.7489 -0.01328 0.0
C423 C 0.69467 0.71546 -0.0037 0.0
C424 C 0.74828 0.68085 0.97205 0.0
C425 C 0.70909 0.71997 0.96257 0.0
N426 N 0.63983 0.81009 0.96257 0.0
N427 N 0.79985 0.67282 -0.00239 0.0
C428 C 0.66574 0.76023 0.97041 0.0
C429 C 0.74837 0.68911 -0.01116 0.0
N430 N 0.59384 0.76663 -0.00743 0.0
N431 N 0.78213 0.63299 0.96549 0.0
H432 H 0.80413 0.68333 0.00977 0.0
H433 H 0.84111 0.65677 -0.0077 0.0
H434 H 0.77844 0.61921 0.95357 0.0
H435 H 0.80744 0.60142 0.97251 0.0
H436 H 0.55954 0.78671 -0.01471 0.0
H437 H 0.57749 0.75465 0.00392 0.0
H438 H 0.61105 0.84253 0.96833 0.0
H439 H 0.65377 0.82371 0.95109 0.0
C440 C 0.33444 0.28895 -0.01679 0.0
C441 C 0.27597 0.26827 -0.01059 0.0
C442 C 0.23864 0.24527 0.96233 0.0
C443 C 0.29481 0.27126 0.95608 0.0
N444 N 0.39286 0.32563 0.96012 0.0
N445 N 0.17014 0.23207 -0.01466 0.0
C446 C 0.34216 0.2947 0.96639 0.0
C447 C 0.22732 0.24795 -0.02091 0.0
N448 N 0.38251 0.30353 -0.00659 0.0
N449 N 0.19734 0.21603 0.95227 0.0
H450 H 0.16126 0.23038 -0.00237 0.0
H451 H 0.13049 0.22406 -0.02163 0.0
H452 H 0.20446 0.21285 0.93992 0.0
H453 H 0.15869 0.1905 0.95623 0.0
H454 H 0.42838 0.31132 -0.01037 0.0
H455 H 0.3779 0.30397 0.00585 0.0
H456 H 0.4249 0.35068 0.967 0.0
H457 H 0.40063 0.33074 0.94785 0.0
C458 C 0.71702 0.72573 0.23218 0.0
C459 C 0.69484 0.77489 0.24207 0.0
C460 C 0.67959 0.84231 0.21865 0.0
C461 C 0.69655 0.79134 0.20862 0.0
N462 N 0.72757 0.68343 0.20532 0.0
N463 N 0.64559 0.87615 0.24493 0.0
C464 C 0.71405 0.73258 0.21524 0.0
C465 C 0.67405 0.83239 0.23539 0.0
N466 N 0.74271 0.67349 0.23905 0.0
N467 N 0.66858 0.90027 0.2122 0.0
H468 H 0.64056 0.87114 0.2573 0.0
H469 H 0.62214 0.91523 0.24048 0.0
H470 H 0.66798 0.90919 0.19993 0.0
H471 H 0.66415 0.94079 0.21905 0.0
H472 H 0.76548 0.63849 0.23263 0.0
H473 H 0.74561 0.66729 0.25144 0.0
H474 H 0.73345 0.63754 0.20929 0.0
H475 H 0.72978 0.68774 0.19288 0.0
C476 C 0.2267 0.23894 0.46572 0.0
C477 C 0.1932 0.1932 0.45689 0.0
C478 C 0.15153 0.14767 0.48159 0.0
C479 C 0.18857 0.19041 0.49047 0.0
N480 N 0.26717 0.27152 0.49159 0.0
N481 N 0.13158 0.09835 0.45597 0.0
C482 C 0.22781 0.23474 0.48271 0.0
C483 C 0.15795 0.14577 0.4647 0.0
N484 N 0.25621 0.28691 0.45785 0.0
N485 N 0.10864 0.11054 0.48929 0.0
H486 H 0.13466 0.09581 0.4435 0.0
H487 H 0.11094 0.05886 0.46109 0.0
H488 H 0.10236 0.11111 0.5017 0.0
H489 H 0.07558 0.08315 0.48338 0.0
H490 H 0.27566 0.32555 0.4636 0.0
H491 H 0.25789 0.2901 0.44536 0.0
H492 H 0.30174 0.30003 0.48661 0.0
H493 H 0.26815 0.2704 0.50409 0.0
C494 C 0.73407 0.77338 0.7208 0.0
C495 C 0.71527 0.71823 0.7126 0.0
C496 C 0.71939 0.65798 0.73731 0.0
C497 C 0.74332 0.71116 0.74546 0.0
N498 N 0.75171 0.82404 0.74648 0.0
N499 N 0.65188 0.62508 0.7158 0.0
C500 C 0.74411 0.77058 0.73767 0.0
C501 C 0.69537 0.66583 0.72171 0.0
N502 N 0.74069 0.8283 0.71255 0.0
N503 N 0.72279 0.59934 0.74385 0.0
H504 H 0.62696 0.63458 0.70533 0.0
H505 H 0.63379 0.58799 0.72254 0.0
H506 H 0.74424 0.58978 0.7548 0.0
H507 H 0.71036 0.5592 0.73748 0.0
H508 H 0.76279 0.86785 0.71718 0.0
H509 H 0.72299 0.83415 0.70099 0.0
H510 H 0.74824 0.86902 0.74173 0.0
H511 H 0.75547 0.82369 0.75895 0.0
C512 C 0.03892 -0.00455 0.1775 0.0
C513 C 0.07001 0.00239 0.16255 0.0
C514 C 0.98105 0.9542 0.14876 0.0
C515 C 0.94703 0.95454 0.16337 0.0
N516 N 0.9405 0.97841 0.19154 0.0
N517 N 0.06822 -0.00364 0.13362 0.0
C518 C 0.97526 0.97549 0.17777 0.0
C519 C 0.04075 0.98335 0.14808 0.0
N520 N 0.07083 0.00686 0.1914 0.0
N521 N 0.95681 0.92473 0.13559 0.0
H522 H 0.11206 0.01752 0.13248 0.0
H523 H 0.04544 -0.00921 0.12268 0.0
H524 H 0.913 0.90294 0.13558 0.0
H525 H 0.98233 0.91687 0.12513 0.0
H526 H 0.05298 -0.00272 0.20277 0.0
H527 H 0.11764 0.02112 0.19155 0.0
H528 H 0.95603 -0.00038 0.20204 0.0
H529 H 0.89409 0.96316 0.19217 0.0
C530 C 0.01172 0.46675 0.39494 0.0
C531 C 0.02121 0.43425 0.40958 0.0
C532 C 0.98397 0.52552 0.42465 0.0
C533 C 0.96887 0.55546 0.40996 0.0
N534 N 0.95851 0.55119 0.38115 0.0
N535 N 0.01014 0.4285 0.43831 0.0
C536 C 0.98024 0.5253 0.39509 0.0
C537 C 0.00586 0.46256 0.42446 0.0
N538 N 0.03482 0.44275 0.38093 0.0
N539 N 0.97896 0.55794 0.43872 0.0
H540 H 0.02618 0.38234 0.43861 0.0
H541 H -0.00668 0.44403 0.44933 0.0
H542 H 0.96306 0.60412 0.43925 0.0
H543 H -0.00471 0.54118 0.44967 0.0
H544 H 0.03564 0.46766 0.37018 0.0
H545 H 0.05835 0.39999 0.38028 0.0
H546 H 0.9588 0.52776 0.37021 0.0
H547 H 0.93524 0.59411 0.38067 0.0
C548 C 0.45448 0.44545 0.65015 0.0
C549 C 0.4123 0.45642 0.66301 0.0
C550 C 0.49432 0.51214 0.6777 0.0
C551 C 0.53374 0.5079 0.66403 0.0
N552 N 0.54814 0.47941 0.63624 0.0
N553 N 0.38912 0.50351 0.68858 0.0
C554 C 0.51327 0.47649 0.65001 0.0
C555 C 0.43132 0.49088 0.67667 0.0
N556 N 0.43852 0.40515 0.6381 0.0
N557 N 0.51799 0.53421 0.69184 0.0
H558 H 0.34338 0.48614 0.68856 0.0
H559 H 0.39807 0.53433 0.69797 0.0
H560 H 0.56452 0.54837 0.6931 0.0
H561 H 0.49359 0.533 0.70265 0.0
H562 H 0.47001 0.38994 0.62938 0.0
H563 H 0.39523 0.38264 0.63754 0.0
H564 H 0.53199 0.4637 0.62517 0.0
H565 H 0.59108 0.50258 0.63546 0.0
C566 C 0.48944 0.0122 0.89471 0.0
C567 C 0.47983 0.04518 0.90926 0.0
C568 C 0.51503 0.95387 0.92465 0.0
C569 C 0.53031 0.9233 0.91007 0.0
N570 N 0.54186 0.92651 0.88127 0.0
N571 N 0.4899 0.05165 0.93799 0.0
C572 C 0.51994 0.95314 0.89509 0.0
C573 C 0.49418 0.01712 0.92424 0.0
N574 N 0.46754 0.03637 0.88059 0.0
N575 N 0.51882 0.92176 0.93882 0.0
H576 H 0.47455 0.09805 0.93813 0.0
H577 H 0.50611 0.03621 0.94908 0.0
H578 H 0.53366 0.87526 0.93953 0.0
H579 H 0.50236 0.93914 0.94969 0.0
H580 H 0.46671 0.01124 0.8699 0.0
H581 H 0.44512 0.07968 0.87978 0.0
H582 H 0.54226 0.94955 0.87025 0.0
H583 H 0.56461 0.88329 0.88097 0.0
C584 C 0.98473 0.46781 0.0191 0.0
C585 C 0.01156 0.43852 0.03271 0.0
C586 C 0.91849 0.46266 0.0487 0.0
C587 C 0.88983 0.48889 0.03487 0.0
N588 N 0.89046 0.50742 0.00634 0.0
N589 N 0.00028 0.39628 0.05942 0.0
C590 C 0.92151 0.48891 0.01987 0.0
C591 C 0.97712 0.43206 0.04716 0.0
N592 N 0.02014 0.47657 0.00561 0.0
N593 N 0.89194 0.47058 0.0635 0.0
H594 H 0.04397 0.37443 0.05899 0.0
H595 H 0.97403 0.38384 0.06948 0.0
H596 H 0.84985 0.49417 0.06538 0.0
H597 H 0.9145 0.45895 0.07416 0.0
H598 H 0.00583 0.50362 -0.00411 0.0
H599 H 0.06593 0.45992 0.00456 0.0
H600 H 0.90877 0.50316 -0.00518 0.0
H601 H 0.84387 0.52225 0.00648 0.0
C602 C 0.54951 0.46284 0.29675 0.0
C603 C 0.53866 0.50179 0.28325 0.0
C604 C 0.48791 0.41473 0.26926 0.0
C605 C 0.49098 0.3787 0.28356 0.0
N606 N 0.5174 0.37097 0.31169 0.0
N607 N 0.49564 0.51756 0.25688 0.0
C608 C 0.52066 0.40293 0.29747 0.0
C609 C 0.50758 0.47843 0.26951 0.0
N610 N 0.58721 0.48324 0.30893 0.0
N611 N 0.46743 0.38739 0.2554 0.0
H612 H 0.51155 0.56381 0.25647 0.0
H613 H 0.467 0.50558 0.24727 0.0
H614 H 0.45384 0.34043 0.25482 0.0
H615 H 0.46912 0.40919 0.24424 0.0
H616 H 0.6026 0.45433 0.3182 0.0
H617 H 0.60749 0.52774 0.30913 0.0
H618 H 0.53127 0.38998 0.32261 0.0
H619 H 0.49609 0.32726 0.31293 0.0
C620 C 0.51284 0.97694 0.55429 0.0
C621 C 0.54363 0.96406 0.53957 0.0
C622 C 0.4514 -0.0004 0.52462 0.0
C623 C 0.42249 0.01656 0.5393 0.0
N624 N 0.42969 0.0329 0.56788 0.0
N625 N 0.54735 0.97125 0.51075 0.0
C626 C 0.45431 0.00845 0.55409 0.0
C627 C 0.51433 0.97767 0.52472 0.0
N628 N 0.5382 0.95668 0.56843 0.0
N629 N 0.41791 0.00237 0.51066 0.0
H630 H 0.59354 0.95529 0.51042 0.0
H631 H 0.53107 -0.01347 0.49966 0.0
H632 H 0.37175 0.01831 0.51016 0.0
H633 H 0.43389 0.98435 0.49981 0.0
H634 H 0.51436 0.95811 0.57933 0.0
H635 H 0.58111 0.93349 0.56915 0.0
H636 H 0.45409 0.03473 0.57867 0.0
H637 H 0.38694 0.05653 0.56826 0.0
C638 C -0.00079 0.02663 0.77098 0.0
C639 C 0.01689 0.05263 0.78595 0.0
C640 C 0.98183 0.95797 0.79991 0.0
C641 C 0.96865 0.93001 0.78487 0.0
N642 N 0.96976 0.9335 0.75601 0.0
N643 N 0.03475 0.04086 0.81436 0.0
C644 C 0.97853 0.96324 0.77035 0.0
C645 C 0.01071 0.01781 0.80035 0.0
N646 N 0.00088 0.06314 0.75748 0.0
N647 N 0.96471 0.92826 0.81381 0.0
H648 H 0.05552 0.08499 0.81529 0.0
H649 H 0.03862 0.01446 0.82483 0.0
H650 H 0.94433 0.88381 0.81407 0.0
H651 H 0.96603 0.94954 0.82503 0.0
H652 H 0.98295 0.04929 0.74645 0.0
H653 H 0.0163 0.10957 0.75757 0.0
H654 H 0.98205 0.95272 0.74497 0.0
H655 H 0.95404 0.88728 0.7552 0.0
C656 C 0.54895 0.03034 0.14298 0.0
C657 C 0.56235 -0.00636 0.15671 0.0
C658 C 0.47475 0.04199 0.17111 0.0
C659 C 0.45569 0.07123 0.15665 0.0
N660 N 0.47172 0.09151 0.12846 0.0
N661 N 0.53775 0.96155 0.18375 0.0
C662 C 0.49252 0.06584 0.14252 0.0
C663 C 0.52548 -0.00095 0.17082 0.0
N664 N 0.58995 0.0307 0.13037 0.0
N665 N 0.44513 0.05653 0.18518 0.0
H666 H 0.57611 0.93138 0.18422 0.0
H667 H 0.5081 0.95753 0.19362 0.0
H668 H 0.40819 0.08844 0.18582 0.0
H669 H 0.46065 0.04165 0.19638 0.0
H670 H 0.58619 0.06095 0.12061 0.0
H671 H 0.63098 0.00414 0.1303 0.0
H672 H 0.4926 0.08331 0.11738 0.0
H673 H 0.4307 0.11783 0.12763 0.0
C674 C 0.93921 0.98428 0.41678 0.0
C675 C 0.94016 0.94162 0.40375 0.0
C676 C 0.01583 0.00823 0.38958 0.0
C677 C 0.0198 0.0473 0.40331 0.0
N678 N -0.00686 0.06715 0.431 0.0
N679 N 0.98318 0.90854 0.37839 0.0
C680 C 0.98332 0.03419 0.41717 0.0
C681 C 0.9798 0.95219 0.39035 0.0
N682 N 0.89592 0.97736 0.42876 0.0
N683 N 0.04427 0.0262 0.3756 0.0
H684 H 0.95524 0.86839 0.37814 0.0
H685 H 0.01649 0.90991 0.36926 0.0
H686 H 0.06968 0.06777 0.37447 0.0
H687 H 0.03798 0.00316 0.36472 0.0
H688 H 0.88817 0.01094 0.43759 0.0
H689 H 0.86417 0.94023 0.42923 0.0
H690 H 0.9735 0.05477 0.44199 0.0
H691 H 0.02522 0.10384 0.43189 0.0
C692 C 0.00524 0.49152 0.64809 0.0
C693 C 0.02253 0.45563 0.6617 0.0
C694 C 0.93753 0.5028 0.67736 0.0
C695 C 0.91749 0.53516 0.6634 0.0
N696 N 0.92455 0.55206 0.63482 0.0
N697 N 0.00241 0.42049 0.6887 0.0
C698 C 0.94938 0.52749 0.64858 0.0
C699 C -0.01224 0.45923 0.67618 0.0
N700 N 0.04256 0.49164 0.63474 0.0
N701 N 0.91012 0.51562 0.69182 0.0
H702 H 0.04035 0.3897 0.68844 0.0
H703 H 0.9748 0.41576 0.69893 0.0
H704 H 0.87323 0.54728 0.69309 0.0
H705 H 0.92678 0.49873 0.70272 0.0
H706 H 0.0366 0.52255 0.62519 0.0
H707 H 0.08253 0.46386 0.63364 0.0
H708 H 0.94173 0.54223 0.62341 0.0
H709 H 0.88312 0.57793 0.63458 0.0
C710 C 0.53118 0.44224 0.89436 0.0
C711 C 0.48728 0.43148 0.90686 0.0
C712 C 0.52901 0.52124 0.92176 0.0
C713 C 0.56769 0.5363 0.90846 0.0
N714 N 0.60133 0.51606 0.88132 0.0
N715 N 0.43987 0.46285 0.93189 0.0
C716 C 0.5682 0.49777 0.89459 0.0
C717 C 0.48491 0.4716 0.92041 0.0
N718 N 0.53721 0.39957 0.88224 0.0
N719 N 0.53615 0.55296 0.93588 0.0
H720 H 0.40846 0.4254 0.93174 0.0
H721 H 0.43085 0.49484 0.94101 0.0
H722 H 0.56869 0.58902 0.93738 0.0
H723 H 0.51417 0.53998 0.94653 0.0
H724 H 0.57305 0.40103 0.87377 0.0
H725 H 0.50895 0.35983 0.88129 0.0
H726 H 0.59803 0.49392 0.87024 0.0
H727 H 0.62869 0.55658 0.88096 0.0
C728 C 0.47824 0.50765 0.05885 0.0
C729 C 0.50422 0.53283 0.04457 0.0
C730 C 0.42525 0.47836 0.02846 0.0
C731 C 0.3976 0.45542 0.04279 0.0
N732 N 0.38978 0.45611 0.07161 0.0
N733 N 0.49809 0.5514 0.0161 0.0
C734 C 0.42182 0.47238 0.05801 0.0
C735 C 0.47633 0.521 0.02945 0.0
N736 N 0.50851 0.51609 0.07314 0.0
N737 N 0.40436 0.4573 0.01393 0.0
H738 H 0.53636 0.5819 0.01633 0.0
H739 H 0.47563 0.55016 0.00503 0.0
H740 H 0.36621 0.42706 0.01271 0.0
H741 H 0.42722 0.46625 0.00313 0.0
H742 H 0.49605 0.49313 0.08369 0.0
H743 H 0.54915 0.543 0.07425 0.0
H744 H 0.40137 0.47218 0.08301 0.0
H745 H 0.34802 0.43063 0.07139 0.0
C746 C 0.43125 0.96282 0.27683 0.0
C747 C 0.41703 -0.00537 0.29127 0.0
C748 C 0.47058 0.91323 0.30682 0.0
C749 C 0.49182 0.88615 0.2923 0.0
N750 N 0.49586 0.88552 0.26339 0.0
N751 N 0.42448 0.0033 0.32004 0.0
C752 C 0.47244 0.91049 0.27724 0.0
C753 C 0.43648 0.97036 0.30632 0.0
N754 N 0.40468 0.98233 0.26277 0.0
N755 N 0.48237 0.88353 0.32104 0.0
H756 H 0.39823 0.04452 0.32019 0.0
H757 H 0.44361 -0.00784 0.33115 0.0
H758 H 0.50705 0.8414 0.32173 0.0
H759 H 0.46331 0.89734 0.33197 0.0
H760 H 0.40796 0.95759 0.25205 0.0
H761 H 0.37488 0.02098 0.26208 0.0
H762 H 0.48999 0.90586 0.25214 0.0
H763 H 0.52455 0.846 0.26318 0.0
C764 C 0.9408 0.97633 0.55876 0.0
C765 C 0.93101 0.9348 0.54575 0.0
C766 C 0.02452 0.97575 0.5322 0.0
C767 C 0.03646 0.01476 0.54564 0.0
N768 N 0.01393 0.04301 0.57303 0.0
N769 N 0.96889 0.88618 0.52148 0.0
C770 C -0.00329 0.0126 0.5593 0.0
C771 C 0.97472 0.9316 0.53293 0.0
N772 N 0.89662 0.98121 0.57059 0.0
N773 N 0.05844 0.98317 0.5184 0.0
H774 H 0.93198 0.85417 0.52124 0.0
H775 H 0.00322 0.87697 0.51292 0.0
H776 H 0.09534 0.01488 0.51727 0.0
H777 H 0.04679 0.9617 0.5076 0.0
H778 H 0.89739 0.01588 0.57936 0.0
H779 H 0.85673 0.95294 0.57109 0.0
H780 H -0.00966 0.03829 0.5839 0.0
H781 H 0.05553 0.06841 0.57401 0.0
C782 C -0.00238 0.52753 0.80445 0.0
C783 C 0.96567 0.54482 0.79022 0.0
C784 C 0.01777 0.46039 0.77547 0.0
C785 C 0.04523 0.43965 0.79003 0.0
N786 N 0.05608 0.44769 0.81874 0.0
N787 N 0.93939 0.52562 0.76257 0.0
C788 C 0.03406 0.47185 0.80462 0.0
C789 C 0.97422 0.51079 0.7758 0.0
N790 N -0.00607 0.56505 0.8177 0.0
N791 N 0.03484 0.43301 0.76131 0.0
H792 H 0.90825 0.56329 0.76229 0.0
H793 H 0.93807 0.4984 0.75224 0.0
H794 H 0.06649 0.39586 0.76066 0.0
H795 H 0.02166 0.45 0.75011 0.0
H796 H 0.02148 0.55891 0.82788 0.0
H797 H 0.96666 0.60558 0.81811 0.0
H798 H 0.04356 0.46481 0.82997 0.0
H799 H 0.08337 0.40723 0.81936 0.0
loop_
_geom_bond_atom_site_label_1
_geom_bond_atom_site_label_2
_geom_bond_distance
_geom_bond_site_symmetry_2
_ccdc_geom_bond_type
C0 O1 1.306 . S
C0 O3 1.160 . S
O1 C0 1.306 . S
O1 Cd2 2.228 . S
Cd2 O1 2.228 . S
Cd2 O6 2.273 . S
Cd2 O10 2.277 . S
O3 C0 1.160 . S
O3 Cd4 2.203 . S
Cd4 O3 2.203 . S
Cd4 O6 2.411 . S
Cd4 O7 2.333 . S
Cd4 O8 2.352 . S
Cd4 O12 2.277 . S
Cd4 O13 2.356 . S
C5 O10 1.209 . S
C5 O12 1.226 . S
O6 Cd2 2.273 . S
O6 Cd4 2.411 . S
O6 C9 1.320 . S
O7 Cd4 2.333 . S
O7 C9 1.214 . S
O8 Cd4 2.352 . S
O8 C11 1.258 . S
C9 O6 1.320 . S
C9 O7 1.214 . S
O10 Cd2 2.277 . S
O10 C5 1.209 . S
C11 O8 1.258 . S
C11 O13 1.282 . S
O12 Cd4 2.277 . S
O12 C5 1.226 . S
O13 Cd4 2.356 . S
O13 C11 1.282 . S
C14 O15 1.306 . S
C14 O17 1.160 . S
O15 C14 1.306 . S
O15 Cd16 2.228 . S
Cd16 O15 2.228 . S
Cd16 O20 2.273 . S
Cd16 O24 2.277 . S
O17 C14 1.160 . S
O17 Cd18 2.203 . S
Cd18 O17 2.203 . S
Cd18 O20 2.411 . S
Cd18 O21 2.333 . S
Cd18 O22 2.352 . S
Cd18 O26 2.277 . S
Cd18 O27 2.356 . S
C19 O24 1.209 . S
C19 O26 1.226 . S
O20 Cd16 2.273 . S
O20 Cd18 2.411 . S
O20 C23 1.320 . S
O21 Cd18 2.333 . S
O21 C23 1.214 . S
O22 Cd18 2.352 . S
O22 C25 1.258 . S
C23 O20 1.320 . S
C23 O21 1.214 . S
O24 Cd16 2.277 . S
O24 C19 1.209 . S
C25 O22 1.258 . S
C25 O27 1.282 . S
O26 Cd18 2.277 . S
O26 C19 1.226 . S
O27 Cd18 2.356 . S
O27 C25 1.282 . S
C28 O29 1.306 . S
C28 O31 1.160 . S
O29 C28 1.306 . S
O29 Cd30 2.228 . S
Cd30 O29 2.228 . S
Cd30 O34 2.273 . S
Cd30 O38 2.277 . S
O31 C28 1.160 . S
O31 Cd32 2.203 . S
Cd32 O31 2.203 . S
Cd32 O34 2.411 . S
Cd32 O35 2.333 . S
Cd32 O36 2.352 . S
Cd32 O40 2.277 . S
Cd32 O41 2.356 . S
C33 O38 1.209 . S
C33 O40 1.226 . S
O34 Cd30 2.273 . S
O34 Cd32 2.411 . S
O34 C37 1.320 . S
O35 Cd32 2.333 . S
O35 C37 1.214 . S
O36 Cd32 2.352 . S
O36 C39 1.258 . S
C37 O34 1.320 . S
C37 O35 1.214 . S
O38 Cd30 2.277 . S
O38 C33 1.209 . S
C39 O36 1.258 . S
C39 O41 1.282 . S
O40 Cd32 2.277 . S
O40 C33 1.226 . S
O41 Cd32 2.356 . S
O41 C39 1.282 . S
C42 O43 1.306 . S
C42 O45 1.160 . S
O43 C42 1.306 . S
O43 Cd44 2.228 . S
Cd44 O43 2.228 . S
Cd44 O48 2.273 . S
Cd44 O52 2.277 . S
O45 C42 1.160 . S
O45 Cd46 2.203 . S
Cd46 O45 2.203 . S
Cd46 O48 2.411 . S
Cd46 O49 2.333 . S
Cd46 O50 2.352 . S
Cd46 O54 2.277 . S
Cd46 O55 2.356 . S
C47 O52 1.209 . S
C47 O54 1.226 . S
O48 Cd44 2.273 . S
O48 Cd46 2.411 . S
O48 C51 1.320 . S
O49 Cd46 2.333 . S
O49 C51 1.214 . S
O50 Cd46 2.352 . S
O50 C53 1.258 . S
C51 O48 1.320 . S
C51 O49 1.214 . S
O52 Cd44 2.277 . S
O52 C47 1.209 . S
C53 O50 1.258 . S
C53 O55 1.282 . S
O54 Cd46 2.277 . S
O54 C47 1.226 . S
O55 Cd46 2.356 . S
O55 C53 1.282 . S
C56 O57 1.306 . S
C56 O59 1.160 . S
O57 C56 1.306 . S
O57 Cd58 2.228 . S
Cd58 O57 2.228 . S
Cd58 O62 2.273 . S
Cd58 O66 2.277 . S
O59 C56 1.160 . S
O59 Cd60 2.203 . S
Cd60 O59 2.203 . S
Cd60 O62 2.411 . S
Cd60 O63 2.333 . S
Cd60 O64 2.352 . S
Cd60 O68 2.277 . S
Cd60 O69 2.356 . S
C61 O66 1.209 . S
C61 O68 1.226 . S
O62 Cd58 2.273 . S
O62 Cd60 2.411 . S
O62 C65 1.320 . S
O63 Cd60 2.333 . S
O63 C65 1.214 . S
O64 Cd60 2.352 . S
O64 C67 1.258 . S
C65 O62 1.320 . S
C65 O63 1.214 . S
O66 Cd58 2.277 . S
O66 C61 1.209 . S
C67 O64 1.258 . S
C67 O69 1.282 . S
O68 Cd60 2.277 . S
O68 C61 1.226 . S
O69 Cd60 2.356 . S
O69 C67 1.282 . S
C70 O71 1.306 . S
C70 O73 1.160 . S
O71 C70 1.306 . S
O71 Cd72 2.228 . S
Cd72 O71 2.228 . S
Cd72 O76 2.273 . S
Cd72 O80 2.277 . S
O73 C70 1.160 . S
O73 Cd74 2.203 . S
Cd74 O73 2.203 . S
Cd74 O76 2.411 . S
Cd74 O77 2.333 . S
Cd74 O78 2.352 . S
Cd74 O82 2.277 . S
Cd74 O83 2.356 . S
C75 O80 1.209 . S
C75 O82 1.226 . S
O76 Cd72 2.273 . S
O76 Cd74 2.411 . S
O76 C79 1.320 . S
O77 Cd74 2.333 . S
O77 C79 1.214 . S
O78 Cd74 2.352 . S
O78 C81 1.258 . S
C79 O76 1.320 . S
C79 O77 1.214 . S
O80 Cd72 2.277 . S
O80 C75 1.209 . S
C81 O78 1.258 . S
C81 O83 1.282 . S
O82 Cd74 2.277 . S
O82 C75 1.226 . S
O83 Cd74 2.356 . S
O83 C81 1.282 . S
C84 O85 1.306 . S
C84 O87 1.160 . S
O85 C84 1.306 . S
O85 Cd86 2.228 . S
Cd86 O85 2.228 . S
Cd86 O90 2.273 . S
Cd86 O94 2.277 . S
O87 C84 1.160 . S
O87 Cd88 2.203 . S
Cd88 O87 2.203 . S
Cd88 O90 2.411 . S
Cd88 O91 2.333 . S
Cd88 O92 2.352 . S
Cd88 O96 2.277 . S
Cd88 O97 2.356 . S
C89 O94 1.209 . S
C89 O96 1.226 . S
O90 Cd86 2.273 . S
O90 Cd88 2.411 . S
O90 C93 1.320 . S
O91 Cd88 2.333 . S
O91 C93 1.214 . S
O92 Cd88 2.352 . S
O92 C95 1.258 . S
C93 O90 1.320 . S
C93 O91 1.214 . S
O94 Cd86 2.277 . S
O94 C89 1.209 . S
C95 O92 1.258 . S
C95 O97 1.282 . S
O96 Cd88 2.277 . S
O96 C89 1.226 . S
O97 Cd88 2.356 . S
O97 C95 1.282 . S
C98 O99 1.306 . S
C98 O101 1.160 . S
O99 C98 1.306 . S
O99 Cd100 2.228 . S
Cd100 O99 2.228 . S
Cd100 O104 2.273 . S
Cd100 O108 2.277 . S
O101 C98 1.160 . S
O101 Cd102 2.203 . S
Cd102 O101 2.203 . S
Cd102 O104 2.411 . S
Cd102 O105 2.333 . S
Cd102 O106 2.352 . S
Cd102 O110 2.277 . S
Cd102 O111 2.356 . S
C103 O108 1.209 . S
C103 O110 1.226 . S
O104 Cd100 2.273 . S
O104 Cd102 2.411 . S
O104 C107 1.320 . S
O105 Cd102 2.333 . S
O105 C107 1.214 . S
O106 Cd102 2.352 . S
O106 C109 1.258 . S
C107 O104 1.320 . S
C107 O105 1.214 . S
O108 Cd100 2.277 . S
O108 C103 1.209 . S
C109 O106 1.258 . S
C109 O111 1.282 . S
O110 Cd102 2.277 . S
O110 C103 1.226 . S
O111 Cd102 2.356 . S
O111 C109 1.282 . S
C112 O113 1.306 . S
C112 O115 1.160 . S
O113 C112 1.306 . S
O113 Cd114 2.228 . S
Cd114 O113 2.228 . S
Cd114 O118 2.273 . S
Cd114 O122 2.277 . S
O115 C112 1.160 . S
O115 Cd116 2.203 . S
Cd116 O115 2.203 . S
Cd116 O118 2.411 . S
Cd116 O119 2.333 . S
Cd116 O120 2.352 . S
Cd116 O124 2.277 . S
Cd116 O125 2.356 . S
C117 O122 1.209 . S
C117 O124 1.226 . S
O118 Cd114 2.273 . S
O118 Cd116 2.411 . S
O118 C121 1.320 . S
O119 Cd116 2.333 . S
O119 C121 1.214 . S
O120 Cd116 2.352 . S
O120 C123 1.258 . S
C121 O118 1.320 . S
C121 O119 1.214 . S
O122 Cd114 2.277 . S
O122 C117 1.209 . S
C123 O120 1.258 . S
C123 O125 1.282 . S
O124 Cd116 2.277 . S
O124 C117 1.226 . S
O125 Cd116 2.356 . S
O125 C123 1.282 . S
C126 O127 1.306 . S
C126 O129 1.160 . S
O127 C126 1.306 . S
O127 Cd128 2.228 . S
Cd128 O127 2.228 . S
Cd128 O132 2.273 . S
Cd128 O136 2.277 . S
O129 C126 1.160 . S
O129 Cd130 2.203 . S
Cd130 O129 2.203 . S
Cd130 O132 2.411 . S
Cd130 O133 2.333 . S
Cd130 O134 2.352 . S
Cd130 O138 2.277 . S
Cd130 O139 2.356 . S
C131 O136 1.209 . S
C131 O138 1.226 . S
O132 Cd128 2.273 . S
O132 Cd130 2.411 . S
O132 C135 1.320 . S
O133 Cd130 2.333 . S
O133 C135 1.214 . S
O134 Cd130 2.352 . S
O134 C137 1.258 . S
C135 O132 1.320 . S
C135 O133 1.214 . S
O136 Cd128 2.277 . S
O136 C131 1.209 . S
C137 O134 1.258 . S
C137 O139 1.282 . S
O138 Cd130 2.277 . S
O138 C131 1.226 . S
O139 Cd130 2.356 . S
O139 C137 1.282 . S
C140 O141 1.306 . S
C140 O143 1.160 . S
O141 C140 1.306 . S
O141 Cd142 2.228 . S
Cd142 O141 2.228 . S
Cd142 O146 2.273 . S
Cd142 O150 2.277 . S
O143 C140 1.160 . S
O143 Cd144 2.203 . S
Cd144 O143 2.203 . S
Cd144 O146 2.411 . S
Cd144 O147 2.333 . S
Cd144 O148 2.352 . S
Cd144 O152 2.277 . S
Cd144 O153 2.356 . S
C145 O150 1.209 . S
C145 O152 1.226 . S
O146 Cd142 2.273 . S
O146 Cd144 2.411 . S
O146 C149 1.320 . S
O147 Cd144 2.333 . S
O147 C149 1.214 . S
O148 Cd144 2.352 . S
O148 C151 1.258 . S
C149 O146 1.320 . S
C149 O147 1.214 . S
O150 Cd142 2.277 . S
O150 C145 1.209 . S
C151 O148 1.258 . S
C151 O153 1.282 . S
O152 Cd144 2.277 . S
O152 C145 1.226 . S
O153 Cd144 2.356 . S
O153 C151 1.282 . S
C154 O155 1.306 . S
C154 O157 1.160 . S
O155 C154 1.306 . S
O155 Cd156 2.228 . S
Cd156 O155 2.228 . S
Cd156 O160 2.273 . S
Cd156 O164 2.277 . S
O157 C154 1.160 . S
O157 Cd158 2.203 . S
Cd158 O157 2.203 . S
Cd158 O160 2.411 . S
Cd158 O161 2.333 . S
Cd158 O162 2.352 . S
Cd158 O166 2.277 . S
Cd158 O167 2.356 . S
C159 O164 1.209 . S
C159 O166 1.226 . S
O160 Cd156 2.273 . S
O160 Cd158 2.411 . S
O160 C163 1.320 . S
O161 Cd158 2.333 . S
O161 C163 1.214 . S
O162 Cd158 2.352 . S
O162 C165 1.258 . S
C163 O160 1.320 . S
C163 O161 1.214 . S
O164 Cd156 2.277 . S
O164 C159 1.209 . S
C165 O162 1.258 . S
C165 O167 1.282 . S
O166 Cd158 2.277 . S
O166 C159 1.226 . S
O167 Cd158 2.356 . S
O167 C165 1.282 . S
C168 O169 1.306 . S
C168 O171 1.160 . S
O169 C168 1.306 . S
O169 Cd170 2.228 . S
Cd170 O169 2.228 . S
Cd170 O174 2.273 . S
Cd170 O178 2.277 . S
O171 C168 1.160 . S
O171 Cd172 2.203 . S
Cd172 O171 2.203 . S
Cd172 O174 2.411 . S
Cd172 O175 2.333 . S
Cd172 O176 2.352 . S
Cd172 O180 2.277 . S
Cd172 O181 2.356 . S
C173 O178 1.209 . S
C173 O180 1.226 . S
O174 Cd170 2.273 . S
O174 Cd172 2.411 . S
O174 C177 1.320 . S
O175 Cd172 2.333 . S
O175 C177 1.214 . S
O176 Cd172 2.352 . S
O176 C179 1.258 . S
C177 O174 1.320 . S
C177 O175 1.214 . S
O178 Cd170 2.277 . S
O178 C173 1.209 . S
C179 O176 1.258 . S
C179 O181 1.282 . S
O180 Cd172 2.277 . S
O180 C173 1.226 . S
O181 Cd172 2.356 . S
O181 C179 1.282 . S
C182 O183 1.306 . S
C182 O185 1.160 . S
O183 C182 1.306 . S
O183 Cd184 2.228 . S
Cd184 O183 2.228 . S
Cd184 O188 2.273 . S
Cd184 O192 2.277 . S
O185 C182 1.160 . S
O185 Cd186 2.203 . S
Cd186 O185 2.203 . S
Cd186 O188 2.411 . S
Cd186 O189 2.333 . S
Cd186 O190 2.352 . S
Cd186 O194 2.277 . S
Cd186 O195 2.356 . S
C187 O192 1.209 . S
C187 O194 1.226 . S
O188 Cd184 2.273 . S
O188 Cd186 2.411 . S
O188 C191 1.320 . S
O189 Cd186 2.333 . S
O189 C191 1.214 . S
O190 Cd186 2.352 . S
O190 C193 1.258 . S
C191 O188 1.320 . S
C191 O189 1.214 . S
O192 Cd184 2.277 . S
O192 C187 1.209 . S
C193 O190 1.258 . S
C193 O195 1.282 . S
O194 Cd186 2.277 . S
O194 C187 1.226 . S
O195 Cd186 2.356 . S
O195 C193 1.282 . S
C196 O197 1.306 . S
C196 O199 1.160 . S
O197 C196 1.306 . S
O197 Cd198 2.228 . S
Cd198 O197 2.228 . S
Cd198 O202 2.273 . S
Cd198 O206 2.277 . S
O199 C196 1.160 . S
O199 Cd200 2.203 . S
Cd200 O199 2.203 . S
Cd200 O202 2.411 . S
Cd200 O203 2.333 . S
Cd200 O204 2.352 . S
Cd200 O208 2.277 . S
Cd200 O209 2.356 . S
C201 O206 1.209 . S
C201 O208 1.226 . S
O202 Cd198 2.273 . S
O202 Cd200 2.411 . S
O202 C205 1.320 . S
O203 Cd200 2.333 . S
O203 C205 1.214 . S
O204 Cd200 2.352 . S
O204 C207 1.258 . S
C205 O202 1.320 . S
C205 O203 1.214 . S
O206 Cd198 2.277 . S
O206 C201 1.209 . S
C207 O204 1.258 . S
C207 O209 1.282 . S
O208 Cd200 2.277 . S
O208 C201 1.226 . S
O209 Cd200 2.356 . S
O209 C207 1.282 . S
C210 O211 1.306 . S
C210 O213 1.160 . S
O211 C210 1.306 . S
O211 Cd212 2.228 . S
Cd212 O211 2.228 . S
Cd212 O216 2.273 . S
Cd212 O220 2.277 . S
O213 C210 1.160 . S
O213 Cd214 2.203 . S
Cd214 O213 2.203 . S
Cd214 O216 2.411 . S
Cd214 O217 2.333 . S
Cd214 O218 2.352 . S
Cd214 O222 2.277 . S
Cd214 O223 2.356 . S
C215 O220 1.209 . S
C215 O222 1.226 . S
O216 Cd212 2.273 . S
O216 Cd214 2.411 . S
O216 C219 1.320 . S
O217 Cd214 2.333 . S
O217 C219 1.214 . S
O218 Cd214 2.352 . S
O218 C221 1.258 . S
C219 O216 1.320 . S
C219 O217 1.214 . S
O220 Cd212 2.277 . S
O220 C215 1.209 . S
C221 O218 1.258 . S
C221 O223 1.282 . S
O222 Cd214 2.277 . S
O222 C215 1.226 . S
O223 Cd214 2.356 . S
O223 C221 1.282 . S
C224 C225 1.363 . S
C224 C230 1.379 . S
C224 N232 1.356 . S
C225 C224 1.363 . S
C225 C231 1.363 . S
C226 C227 1.363 . S
C226 C231 1.379 . S
C226 N233 1.356 . S
C227 C226 1.363 . S
C227 C230 1.363 . S
N228 C230 1.356 . S
N228 H240 0.984 . S
N228 H241 0.985 . S
N229 C231 1.356 . S
N229 H234 0.984 . S
N229 H235 0.985 . S
C230 C224 1.379 . S
C230 C227 1.363 . S
C230 N228 1.356 . S
C231 C225 1.363 . S
C231 C226 1.379 . S
C231 N229 1.356 . S
N232 C224 1.356 . S
N232 H238 0.984 . S
N232 H239 0.984 . S
N233 C226 1.356 . S
N233 H236 0.984 . S
N233 H237 0.985 . S
H234 N229 0.984 . S
H235 N229 0.985 . S
H236 N233 0.984 . S
H237 N233 0.985 . S
H238 N232 0.984 . S
H239 N232 0.984 . S
H240 N228 0.984 . S
H241 N228 0.985 . S
C242 C243 1.363 . S
C242 C248 1.379 . S
C242 N250 1.356 . S
C243 C242 1.363 . S
C243 C249 1.363 . S
C244 C245 1.363 . S
C244 C249 1.379 . S
C244 N251 1.356 . S
C245 C244 1.363 . S
C245 C248 1.363 . S
N246 C248 1.356 . S
N246 H258 0.984 . S
N246 H259 0.985 . S
N247 C249 1.356 . S
N247 H252 0.984 . S
N247 H253 0.985 . S
C248 C242 1.379 . S
C248 C245 1.363 . S
C248 N246 1.356 . S
C249 C243 1.363 . S
C249 C244 1.379 . S
C249 N247 1.356 . S
N250 C242 1.356 . S
N250 H256 0.984 . S
N250 H257 0.984 . S
N251 C244 1.356 . S
N251 H254 0.984 . S
N251 H255 0.985 . S
H252 N247 0.984 . S
H253 N247 0.985 . S
H254 N251 0.984 . S
H255 N251 0.985 . S
H256 N250 0.984 . S
H257 N250 0.984 . S
H258 N246 0.984 . S
H259 N246 0.985 . S
C260 C261 1.363 . S
C260 C266 1.379 . S
C260 N268 1.356 . S
C261 C260 1.363 . S
C261 C267 1.363 . S
C262 C263 1.363 . S
C262 C267 1.379 . S
C262 N269 1.356 . S
C263 C262 1.363 . S
C263 C266 1.363 . S
N264 C266 1.356 . S
N264 H276 0.984 . S
N264 H277 0.985 . S
N265 C267 1.356 . S
N265 H270 0.984 . S
N265 H271 0.985 . S
C266 C260 1.379 . S
C266 C263 1.363 . S
C266 N264 1.356 . S
C267 C261 1.363 . S
C267 C262 1.379 . S
C267 N265 1.356 . S
N268 C260 1.356 . S
N268 H274 0.984 . S
N268 H275 0.984 . S
N269 C262 1.356 . S
N269 H272 0.984 . S
N269 H273 0.985 . S
H270 N265 0.984 . S
H271 N265 0.985 . S
H272 N269 0.984 . S
H273 N269 0.985 . S
H274 N268 0.984 . S
H275 N268 0.984 . S
H276 N264 0.984 . S
H277 N264 0.985 . S
C278 C279 1.363 . S
C278 C284 1.379 . S
C278 N286 1.356 . S
C279 C278 1.363 . S
C279 C285 1.363 . S
C280 C281 1.363 . S
C280 C285 1.379 . S
C280 N287 1.356 . S
C281 C280 1.363 . S
C281 C284 1.363 . S
N282 C284 1.356 . S
N282 H294 0.984 . S
N282 H295 0.985 . S
N283 C285 1.356 . S
N283 H288 0.984 . S
N283 H289 0.985 . S
C284 C278 1.379 . S
C284 C281 1.363 . S
C284 N282 1.356 . S
C285 C279 1.363 . S
C285 C280 1.379 . S
C285 N283 1.356 . S
N286 C278 1.356 . S
N286 H292 0.984 . S
N286 H293 0.984 . S
N287 C280 1.356 . S
N287 H290 0.984 . S
N287 H291 0.985 . S
H288 N283 0.984 . S
H289 N283 0.985 . S
H290 N287 0.984 . S
H291 N287 0.985 . S
H292 N286 0.984 . S
H293 N286 0.984 . S
H294 N282 0.984 . S
H295 N282 0.985 . S
C296 C297 1.363 . S
C296 C302 1.379 . S
C296 N304 1.356 . S
C297 C296 1.363 . S
C297 C303 1.363 . S
C298 C299 1.363 . S
C298 C303 1.379 . S
C298 N305 1.356 . S
C299 C298 1.363 . S
C299 C302 1.363 . S
N300 C302 1.356 . S
N300 H312 0.984 . S
N300 H313 0.985 . S
N301 C303 1.356 . S
N301 H306 0.984 . S
N301 H307 0.985 . S
C302 C296 1.379 . S
C302 C299 1.363 . S
C302 N300 1.356 . S
C303 C297 1.363 . S
C303 C298 1.379 . S
C303 N301 1.356 . S
N304 C296 1.356 . S
N304 H310 0.984 . S
N304 H311 0.984 . S
N305 C298 1.356 . S
N305 H308 0.984 . S
N305 H309 0.985 . S
H306 N301 0.984 . S
H307 N301 0.985 . S
H308 N305 0.984 . S
H309 N305 0.985 . S
H310 N304 0.984 . S
H311 N304 0.984 . S
H312 N300 0.984 . S
H313 N300 0.985 . S
C314 C315 1.363 . S
C314 C320 1.379 . S
C314 N322 1.356 . S
C315 C314 1.363 . S
C315 C321 1.363 . S
C316 C317 1.363 . S
C316 C321 1.379 . S
C316 N323 1.356 . S
C317 C316 1.363 . S
C317 C320 1.363 . S
N318 C320 1.356 . S
N318 H330 0.984 . S
N318 H331 0.985 . S
N319 C321 1.356 . S
N319 H324 0.984 . S
N319 H325 0.985 . S
C320 C314 1.379 . S
C320 C317 1.363 . S
C320 N318 1.356 . S
C321 C315 1.363 . S
C321 C316 1.379 . S
C321 N319 1.356 . S
N322 C314 1.356 . S
N322 H328 0.984 . S
N322 H329 0.984 . S
N323 C316 1.356 . S
N323 H326 0.984 . S
N323 H327 0.985 . S
H324 N319 0.984 . S
H325 N319 0.985 . S
H326 N323 0.984 . S
H327 N323 0.985 . S
H328 N322 0.984 . S
H329 N322 0.984 . S
H330 N318 0.984 . S
H331 N318 0.985 . S
C332 C333 1.363 . S
C332 C338 1.379 . S
C332 N340 1.356 . S
C333 C332 1.363 . S
C333 C339 1.363 . S
C334 C335 1.363 . S
C334 C339 1.379 . S
C334 N341 1.356 . S
C335 C334 1.363 . S
C335 C338 1.363 . S
N336 C338 1.356 . S
N336 H348 0.984 . S
N336 H349 0.985 . S
N337 C339 1.356 . S
N337 H342 0.984 . S
N337 H343 0.985 . S
C338 C332 1.379 . S
C338 C335 1.363 . S
C338 N336 1.356 . S
C339 C333 1.363 . S
C339 C334 1.379 . S
C339 N337 1.356 . S
N340 C332 1.356 . S
N340 H346 0.984 . S
N340 H347 0.984 . S
N341 C334 1.356 . S
N341 H344 0.984 . S
N341 H345 0.985 . S
H342 N337 0.984 . S
H343 N337 0.985 . S
H344 N341 0.984 . S
H345 N341 0.985 . S
H346 N340 0.984 . S
H347 N340 0.984 . S
H348 N336 0.984 . S
H349 N336 0.985 . S
C350 C351 1.363 . S
C350 C356 1.379 . S
C350 N358 1.356 . S
C351 C350 1.363 . S
C351 C357 1.363 . S
C352 C353 1.363 . S
C352 C357 1.379 . S
C352 N359 1.356 . S
C353 C352 1.363 . S
C353 C356 1.363 . S
N354 C356 1.356 . S
N354 H366 0.984 . S
N354 H367 0.985 . S
N355 C357 1.356 . S
N355 H360 0.984 . S
N355 H361 0.985 . S
C356 C350 1.379 . S
C356 C353 1.363 . S
C356 N354 1.356 . S
C357 C351 1.363 . S
C357 C352 1.379 . S
C357 N355 1.356 . S
N358 C350 1.356 . S
N358 H364 0.984 . S
N358 H365 0.984 . S
N359 C352 1.356 . S
N359 H362 0.984 . S
N359 H363 0.985 . S
H360 N355 0.984 . S
H361 N355 0.985 . S
H362 N359 0.984 . S
H363 N359 0.985 . S
H364 N358 0.984 . S
H365 N358 0.984 . S
H366 N354 0.984 . S
H367 N354 0.985 . S
C368 C369 1.363 . S
C368 C374 1.379 . S
C368 N376 1.356 . S
C369 C368 1.363 . S
C369 C375 1.363 . S
C370 C371 1.363 . S
C370 C375 1.379 . S
C370 N377 1.356 . S
C371 C370 1.363 . S
C371 C374 1.363 . S
N372 C374 1.356 . S
N372 H384 0.984 . S
N372 H385 0.985 . S
N373 C375 1.356 . S
N373 H378 0.984 . S
N373 H379 0.985 . S
C374 C368 1.379 . S
C374 C371 1.363 . S
C374 N372 1.356 . S
C375 C369 1.363 . S
C375 C370 1.379 . S
C375 N373 1.356 . S
N376 C368 1.356 . S
N376 H382 0.984 . S
N376 H383 0.984 . S
N377 C370 1.356 . S
N377 H380 0.984 . S
N377 H381 0.985 . S
H378 N373 0.984 . S
H379 N373 0.985 . S
H380 N377 0.984 . S
H381 N377 0.985 . S
H382 N376 0.984 . S
H383 N376 0.984 . S
H384 N372 0.984 . S
H385 N372 0.985 . S
C386 C387 1.363 . S
C386 C392 1.379 . S
C386 N394 1.356 . S
C387 C386 1.363 . S
C387 C393 1.363 . S
C388 C389 1.363 . S
C388 C393 1.379 . S
C388 N395 1.356 . S
C389 C388 1.363 . S
C389 C392 1.363 . S
N390 C392 1.356 . S
N390 H402 0.984 . S
N390 H403 0.985 . S
N391 C393 1.356 . S
N391 H396 0.984 . S
N391 H397 0.985 . S
C392 C386 1.379 . S
C392 C389 1.363 . S
C392 N390 1.356 . S
C393 C387 1.363 . S
C393 C388 1.379 . S
C393 N391 1.356 . S
N394 C386 1.356 . S
N394 H400 0.984 . S
N394 H401 0.984 . S
N395 C388 1.356 . S
N395 H398 0.984 . S
N395 H399 0.985 . S
H396 N391 0.984 . S
H397 N391 0.985 . S
H398 N395 0.984 . S
H399 N395 0.985 . S
H400 N394 0.984 . S
H401 N394 0.984 . S
H402 N390 0.984 . S
H403 N390 0.985 . S
C404 C405 1.363 . S
C404 C410 1.379 . S
C404 N412 1.356 . S
C405 C404 1.363 . S
C405 C411 1.363 . S
C406 C407 1.363 . S
C406 C411 1.379 . S
C406 N413 1.356 . S
C407 C406 1.363 . S
C407 C410 1.363 . S
N408 C410 1.356 . S
N408 H420 0.984 . S
N408 H421 0.985 . S
N409 C411 1.356 . S
N409 H414 0.984 . S
N409 H415 0.985 . S
C410 C404 1.379 . S
C410 C407 1.363 . S
C410 N408 1.356 . S
C411 C405 1.363 . S
C411 C406 1.379 . S
C411 N409 1.356 . S
N412 C404 1.356 . S
N412 H418 0.984 . S
N412 H419 0.984 . S
N413 C406 1.356 . S
N413 H416 0.984 . S
N413 H417 0.985 . S
H414 N409 0.984 . S
H415 N409 0.985 . S
H416 N413 0.984 . S
H417 N413 0.985 . S
H418 N412 0.984 . S
H419 N412 0.984 . S
H420 N408 0.984 . S
H421 N408 0.985 . S
C422 C423 1.363 . S
C422 C428 1.379 1_554 S
C422 N430 1.356 . S
C423 C422 1.363 . S
C423 C429 1.363 . S
C424 C425 1.363 . S
C424 C429 1.379 1_556 S
C424 N431 1.356 . S
C425 C424 1.363 . S
C425 C428 1.363 . S
N426 C428 1.356 . S
N426 H438 0.984 . S
N426 H439 0.985 . S
N427 C429 1.356 . S
N427 H432 0.984 . S
N427 H433 0.985 . S
C428 C422 1.379 1_556 S
C428 C425 1.363 . S
C428 N426 1.356 . S
C429 C423 1.363 . S
C429 C424 1.379 1_554 S
C429 N427 1.356 . S
N430 C422 1.356 . S
N430 H436 0.984 . S
N430 H437 0.984 . S
N431 C424 1.356 . S
N431 H434 0.984 . S
N431 H435 0.985 . S
H432 N427 0.984 . S
H433 N427 0.985 . S
H434 N431 0.984 . S
H435 N431 0.985 . S
H436 N430 0.984 . S
H437 N430 0.984 . S
H438 N426 0.984 . S
H439 N426 0.985 . S
C440 C441 1.363 . S
C440 C446 1.379 1_554 S
C440 N448 1.356 . S
C441 C440 1.363 . S
C441 C447 1.363 . S
C442 C443 1.363 . S
C442 C447 1.379 1_556 S
C442 N449 1.356 . S
C443 C442 1.363 . S
C443 C446 1.363 . S
N444 C446 1.356 . S
N444 H456 0.984 . S
N444 H457 0.985 . S
N445 C447 1.356 . S
N445 H450 0.984 . S
N445 H451 0.985 . S
C446 C440 1.379 1_556 S
C446 C443 1.363 . S
C446 N444 1.356 . S
C447 C441 1.363 . S
C447 C442 1.379 1_554 S
C447 N445 1.356 . S
N448 C440 1.356 . S
N448 H454 0.984 . S
N448 H455 0.984 . S
N449 C442 1.356 . S
N449 H452 0.984 . S
N449 H453 0.985 . S
H450 N445 0.984 . S
H451 N445 0.985 . S
H452 N449 0.984 . S
H453 N449 0.985 . S
H454 N448 0.984 . S
H455 N448 0.984 . S
H456 N444 0.984 . S
H457 N444 0.985 . S
C458 C459 1.363 . S
C458 C464 1.379 . S
C458 N466 1.356 . S
C459 C458 1.363 . S
C459 C465 1.363 . S
C460 C461 1.363 . S
C460 C465 1.379 . S
C460 N467 1.356 . S
C461 C460 1.363 . S
C461 C464 1.363 . S
N462 C464 1.356 . S
N462 H474 0.984 . S
N462 H475 0.985 . S
N463 C465 1.356 . S
N463 H468 0.984 . S
N463 H469 0.985 . S
C464 C458 1.379 . S
C464 C461 1.363 . S
C464 N462 1.356 . S
C465 C459 1.363 . S
C465 C460 1.379 . S
C465 N463 1.356 . S
N466 C458 1.356 . S
N466 H472 0.984 . S
N466 H473 0.984 . S
N467 C460 1.356 . S
N467 H470 0.984 . S
N467 H471 0.985 . S
H468 N463 0.984 . S
H469 N463 0.985 . S
H470 N467 0.984 . S
H471 N467 0.985 . S
H472 N466 0.984 . S
H473 N466 0.984 . S
H474 N462 0.984 . S
H475 N462 0.985 . S
C476 C477 1.363 . S
C476 C482 1.379 . S
C476 N484 1.356 . S
C477 C476 1.363 . S
C477 C483 1.363 . S
C478 C479 1.363 . S
C478 C483 1.379 . S
C478 N485 1.356 . S
C479 C478 1.363 . S
C479 C482 1.363 . S
N480 C482 1.356 . S
N480 H492 0.984 . S
N480 H493 0.985 . S
N481 C483 1.356 . S
N481 H486 0.984 . S
N481 H487 0.985 . S
C482 C476 1.379 . S
C482 C479 1.363 . S
C482 N480 1.356 . S
C483 C477 1.363 . S
C483 C478 1.379 . S
C483 N481 1.356 . S
N484 C476 1.356 . S
N484 H490 0.984 . S
N484 H491 0.984 . S
N485 C478 1.356 . S
N485 H488 0.984 . S
N485 H489 0.985 . S
H486 N481 0.984 . S
H487 N481 0.985 . S
H488 N485 0.984 . S
H489 N485 0.985 . S
H490 N484 0.984 . S
H491 N484 0.984 . S
H492 N480 0.984 . S
H493 N480 0.985 . S
C494 C495 1.363 . S
C494 C500 1.379 . S
C494 N502 1.356 . S
C495 C494 1.363 . S
C495 C501 1.363 . S
C496 C497 1.363 . S
C496 C501 1.379 . S
C496 N503 1.356 . S
C497 C496 1.363 . S
C497 C500 1.363 . S
N498 C500 1.356 . S
N498 H510 0.984 . S
N498 H511 0.985 . S
N499 C501 1.356 . S
N499 H504 0.984 . S
N499 H505 0.985 . S
C500 C494 1.379 . S
C500 C497 1.363 . S
C500 N498 1.356 . S
C501 C495 1.363 . S
C501 C496 1.379 . S
C501 N499 1.356 . S
N502 C494 1.356 . S
N502 H508 0.984 . S
N502 H509 0.984 . S
N503 C496 1.356 . S
N503 H506 0.984 . S
N503 H507 0.985 . S
H504 N499 0.984 . S
H505 N499 0.985 . S
H506 N503 0.984 . S
H507 N503 0.985 . S
H508 N502 0.984 . S
H509 N502 0.984 . S
H510 N498 0.984 . S
H511 N498 0.985 . S
C512 C513 1.363 1_565 S
C512 C518 1.379 1_455 S
C512 N520 1.356 . S
C513 C512 1.363 1_545 S
C513 C519 1.363 . S
C514 C515 1.363 1_545 S
C514 C519 1.379 1_655 S
C514 N521 1.356 . S
C515 C514 1.363 1_565 S
C515 C518 1.363 . S
N516 C518 1.356 . S
N516 H528 0.984 . S
N516 H529 0.985 . S
N517 C519 1.356 . S
N517 H522 0.984 . S
N517 H523 0.985 . S
C518 C512 1.379 1_655 S
C518 C515 1.363 . S
C518 N516 1.356 . S
C519 C513 1.363 . S
C519 C514 1.379 1_455 S
C519 N517 1.356 . S
N520 C512 1.356 . S
N520 H526 0.984 . S
N520 H527 0.984 1_565 S
N521 C514 1.356 . S
N521 H524 0.984 1_545 S
N521 H525 0.985 . S
H522 N517 0.984 . S
H523 N517 0.985 . S
H524 N521 0.984 1_565 S
H525 N521 0.985 . S
H526 N520 0.984 . S
H527 N520 0.984 1_545 S
H528 N516 0.984 . S
H529 N516 0.985 . S
C530 C531 1.363 . S
C530 C536 1.379 . S
C530 N538 1.356 . S
C531 C530 1.363 . S
C531 C537 1.363 1_455 S
C532 C533 1.363 . S
C532 C537 1.379 . S
C532 N539 1.356 . S
C533 C532 1.363 . S
C533 C536 1.363 1_655 S
N534 C536 1.356 . S
N534 H546 0.984 . S
N534 H547 0.985 1_455 S
N535 C537 1.356 . S
N535 H540 0.984 1_655 S
N535 H541 0.985 . S
C536 C530 1.379 . S
C536 C533 1.363 1_455 S
C536 N534 1.356 . S
C537 C531 1.363 1_655 S
C537 C532 1.379 . S
C537 N535 1.356 . S
N538 C530 1.356 . S
N538 H544 0.984 . S
N538 H545 0.984 . S
N539 C532 1.356 . S
N539 H542 0.984 . S
N539 H543 0.985 . S
H540 N535 0.984 1_455 S
H541 N535 0.985 . S
H542 N539 0.984 . S
H543 N539 0.985 . S
H544 N538 0.984 . S
H545 N538 0.984 . S
H546 N534 0.984 . S
H547 N534 0.985 1_655 S
C548 C549 1.363 . S
C548 C554 1.379 . S
C548 N556 1.356 . S
C549 C548 1.363 . S
C549 C555 1.363 . S
C550 C551 1.363 . S
C550 C555 1.379 . S
C550 N557 1.356 . S
C551 C550 1.363 . S
C551 C554 1.363 . S
N552 C554 1.356 . S
N552 H564 0.984 . S
N552 H565 0.985 . S
N553 C555 1.356 . S
N553 H558 0.984 . S
N553 H559 0.985 . S
C554 C548 1.379 . S
C554 C551 1.363 . S
C554 N552 1.356 . S
C555 C549 1.363 . S
C555 C550 1.379 . S
C555 N553 1.356 . S
N556 C548 1.356 . S
N556 H562 0.984 . S
N556 H563 0.984 . S
N557 C550 1.356 . S
N557 H560 0.984 . S
N557 H561 0.985 . S
H558 N553 0.984 . S
H559 N553 0.985 . S
H560 N557 0.984 . S
H561 N557 0.985 . S
H562 N556 0.984 . S
H563 N556 0.984 . S
H564 N552 0.984 . S
H565 N552 0.985 . S
C566 C567 1.363 . S
C566 C572 1.379 1_545 S
C566 N574 1.356 . S
C567 C566 1.363 . S
C567 C573 1.363 . S
C568 C569 1.363 . S
C568 C573 1.379 1_565 S
C568 N575 1.356 . S
C569 C568 1.363 . S
C569 C572 1.363 . S
N570 C572 1.356 . S
N570 H582 0.984 . S
N570 H583 0.985 . S
N571 C573 1.356 . S
N571 H576 0.984 . S
N571 H577 0.985 . S
C572 C566 1.379 1_565 S
C572 C569 1.363 . S
C572 N570 1.356 . S
C573 C567 1.363 . S
C573 C568 1.379 1_545 S
C573 N571 1.356 . S
N574 C566 1.356 . S
N574 H580 0.984 . S
N574 H581 0.984 . S
N575 C568 1.356 . S
N575 H578 0.984 . S
N575 H579 0.985 . S
H576 N571 0.984 . S
H577 N571 0.985 . S
H578 N575 0.984 . S
H579 N575 0.985 . S
H580 N574 0.984 . S
H581 N574 0.984 . S
H582 N570 0.984 . S
H583 N570 0.985 . S
C584 C585 1.363 . S
C584 C590 1.379 1_455 S
C584 N592 1.356 . S
C585 C584 1.363 . S
C585 C591 1.363 . S
C586 C587 1.363 . S
C586 C591 1.379 1_655 S
C586 N593 1.356 . S
C587 C586 1.363 . S
C587 C590 1.363 . S
N588 C590 1.356 . S
N588 H600 0.984 . S
N588 H601 0.985 . S
N589 C591 1.356 . S
N589 H594 0.984 . S
N589 H595 0.985 . S
C590 C584 1.379 1_655 S
C590 C587 1.363 . S
C590 N588 1.356 . S
C591 C585 1.363 . S
C591 C586 1.379 1_455 S
C591 N589 1.356 . S
N592 C584 1.356 . S
N592 H598 0.984 . S
N592 H599 0.984 . S
N593 C586 1.356 . S
N593 H596 0.984 . S
N593 H597 0.985 . S
H594 N589 0.984 . S
H595 N589 0.985 . S
H596 N593 0.984 . S
H597 N593 0.985 . S
H598 N592 0.984 . S
H599 N592 0.984 . S
H600 N588 0.984 . S
H601 N588 0.985 . S
C602 C603 1.363 . S
C602 C608 1.379 . S
C602 N610 1.356 . S
C603 C602 1.363 . S
C603 C609 1.363 . S
C604 C605 1.363 . S
C604 C609 1.379 . S
C604 N611 1.356 . S
C605 C604 1.363 . S
C605 C608 1.363 . S
N606 C608 1.356 . S
N606 H618 0.984 . S
N606 H619 0.985 . S
N607 C609 1.356 . S
N607 H612 0.984 . S
N607 H613 0.985 . S
C608 C602 1.379 . S
C608 C605 1.363 . S
C608 N606 1.356 . S
C609 C603 1.363 . S
C609 C604 1.379 . S
C609 N607 1.356 . S
N610 C602 1.356 . S
N610 H616 0.984 . S
N610 H617 0.984 . S
N611 C604 1.356 . S
N611 H614 0.984 . S
N611 H615 0.985 . S
H612 N607 0.984 . S
H613 N607 0.985 . S
H614 N611 0.984 . S
H615 N611 0.985 . S
H616 N610 0.984 . S
H617 N610 0.984 . S
H618 N606 0.984 . S
H619 N606 0.985 . S
C620 C621 1.363 . S
C620 C626 1.379 . S
C620 N628 1.356 . S
C621 C620 1.363 . S
C621 C627 1.363 1_565 S
C622 C623 1.363 . S
C622 C627 1.379 . S
C622 N629 1.356 . S
C623 C622 1.363 . S
C623 C626 1.363 1_545 S
N624 C626 1.356 . S
N624 H636 0.984 . S
N624 H637 0.985 1_565 S
N625 C627 1.356 . S
N625 H630 0.984 1_545 S
N625 H631 0.985 . S
C626 C620 1.379 . S
C626 C623 1.363 1_565 S
C626 N624 1.356 . S
C627 C621 1.363 1_545 S
C627 C622 1.379 . S
C627 N625 1.356 . S
N628 C620 1.356 . S
N628 H634 0.984 . S
N628 H635 0.984 . S
N629 C622 1.356 . S
N629 H632 0.984 . S
N629 H633 0.985 . S
H630 N625 0.984 1_565 S
H631 N625 0.985 . S
H632 N629 0.984 . S
H633 N629 0.985 . S
H634 N628 0.984 . S
H635 N628 0.984 . S
H636 N624 0.984 . S
H637 N624 0.985 1_545 S
C638 C639 1.363 1_655 S
C638 C644 1.379 1_545 S
C638 N646 1.356 . S
C639 C638 1.363 1_455 S
C639 C645 1.363 . S
C640 C641 1.363 1_455 S
C640 C645 1.379 1_565 S
C640 N647 1.356 . S
C641 C640 1.363 1_655 S
C641 C644 1.363 . S
N642 C644 1.356 . S
N642 H654 0.984 . S
N642 H655 0.985 . S
N643 C645 1.356 . S
N643 H648 0.984 . S
N643 H649 0.985 . S
C644 C638 1.379 1_565 S
C644 C641 1.363 . S
C644 N642 1.356 . S
C645 C639 1.363 . S
C645 C640 1.379 1_545 S
C645 N643 1.356 . S
N646 C638 1.356 . S
N646 H652 0.984 . S
N646 H653 0.984 1_655 S
N647 C640 1.356 . S
N647 H650 0.984 1_455 S
N647 H651 0.985 . S
H648 N643 0.984 . S
H649 N643 0.985 . S
H650 N647 0.984 1_655 S
H651 N647 0.985 . S
H652 N646 0.984 . S
H653 N646 0.984 1_455 S
H654 N642 0.984 . S
H655 N642 0.985 . S
C656 C657 1.363 1_545 S
C656 C662 1.379 . S
C656 N664 1.356 . S
C657 C656 1.363 1_565 S
C657 C663 1.363 . S
C658 C659 1.363 1_565 S
C658 C663 1.379 . S
C658 N665 1.356 . S
C659 C658 1.363 1_545 S
C659 C662 1.363 . S
N660 C662 1.356 . S
N660 H672 0.984 . S
N660 H673 0.985 . S
N661 C663 1.356 . S
N661 H666 0.984 . S
N661 H667 0.985 . S
C662 C656 1.379 . S
C662 C659 1.363 . S
C662 N660 1.356 . S
C663 C657 1.363 . S
C663 C658 1.379 . S
C663 N661 1.356 . S
N664 C656 1.356 . S
N664 H670 0.984 . S
N664 H671 0.984 1_545 S
N665 C658 1.356 . S
N665 H668 0.984 1_565 S
N665 H669 0.985 . S
H666 N661 0.984 . S
H667 N661 0.985 . S
H668 N665 0.984 1_545 S
H669 N665 0.985 . S
H670 N664 0.984 . S
H671 N664 0.984 1_565 S
H672 N660 0.984 . S
H673 N660 0.985 . S
C674 C675 1.363 . S
C674 C680 1.379 1_565 S
C674 N682 1.356 . S
C675 C674 1.363 . S
C675 C681 1.363 1_655 S
C676 C677 1.363 . S
C676 C681 1.379 1_545 S
C676 N683 1.356 . S
C677 C676 1.363 . S
C677 C680 1.363 1_455 S
N678 C680 1.356 . S
N678 H690 0.984 . S
N678 H691 0.985 1_655 S
N679 C681 1.356 . S
N679 H684 0.984 1_455 S
N679 H685 0.985 . S
C680 C674 1.379 1_545 S
C680 C677 1.363 1_655 S
C680 N678 1.356 . S
C681 C675 1.363 1_455 S
C681 C676 1.379 1_565 S
C681 N679 1.356 . S
N682 C674 1.356 . S
N682 H688 0.984 . S
N682 H689 0.984 . S
N683 C676 1.356 . S
N683 H686 0.984 . S
N683 H687 0.985 . S
H684 N679 0.984 1_655 S
H685 N679 0.985 . S
H686 N683 0.984 . S
H687 N683 0.985 . S
H688 N682 0.984 . S
H689 N682 0.984 . S
H690 N678 0.984 . S
H691 N678 0.985 1_455 S
C692 C693 1.363 . S
C692 C698 1.379 1_455 S
C692 N700 1.356 . S
C693 C692 1.363 . S
C693 C699 1.363 . S
C694 C695 1.363 . S
C694 C699 1.379 1_655 S
C694 N701 1.356 . S
C695 C694 1.363 . S
C695 C698 1.363 . S
N696 C698 1.356 . S
N696 H708 0.984 . S
N696 H709 0.985 . S
N697 C699 1.356 . S
N697 H702 0.984 . S
N697 H703 0.985 . S
C698 C692 1.379 1_655 S
C698 C695 1.363 . S
C698 N696 1.356 . S
C699 C693 1.363 . S
C699 C694 1.379 1_455 S
C699 N697 1.356 . S
N700 C692 1.356 . S
N700 H706 0.984 . S
N700 H707 0.984 . S
N701 C694 1.356 . S
N701 H704 0.984 . S
N701 H705 0.985 . S
H702 N697 0.984 . S
H703 N697 0.985 . S
H704 N701 0.984 . S
H705 N701 0.985 . S
H706 N700 0.984 . S
H707 N700 0.984 . S
H708 N696 0.984 . S
H709 N696 0.985 . S
C710 C711 1.363 . S
C710 C716 1.379 . S
C710 N718 1.356 . S
C711 C710 1.363 . S
C711 C717 1.363 . S
C712 C713 1.363 . S
C712 C717 1.379 . S
C712 N719 1.356 . S
C713 C712 1.363 . S
C713 C716 1.363 . S
N714 C716 1.356 . S
N714 H726 0.984 . S
N714 H727 0.985 . S
N715 C717 1.356 . S
N715 H720 0.984 . S
N715 H721 0.985 . S
C716 C710 1.379 . S
C716 C713 1.363 . S
C716 N714 1.356 . S
C717 C711 1.363 . S
C717 C712 1.379 . S
C717 N715 1.356 . S
N718 C710 1.356 . S
N718 H724 0.984 . S
N718 H725 0.984 . S
N719 C712 1.356 . S
N719 H722 0.984 . S
N719 H723 0.985 . S
H720 N715 0.984 . S
H721 N715 0.985 . S
H722 N719 0.984 . S
H723 N719 0.985 . S
H724 N718 0.984 . S
H725 N718 0.984 . S
H726 N714 0.984 . S
H727 N714 0.985 . S
C728 C729 1.363 . S
C728 C734 1.379 . S
C728 N736 1.356 . S
C729 C728 1.363 . S
C729 C735 1.363 . S
C730 C731 1.363 . S
C730 C735 1.379 . S
C730 N737 1.356 . S
C731 C730 1.363 . S
C731 C734 1.363 . S
N732 C734 1.356 . S
N732 H744 0.984 . S
N732 H745 0.985 . S
N733 C735 1.356 . S
N733 H738 0.984 . S
N733 H739 0.985 . S
C734 C728 1.379 . S
C734 C731 1.363 . S
C734 N732 1.356 . S
C735 C729 1.363 . S
C735 C730 1.379 . S
C735 N733 1.356 . S
N736 C728 1.356 . S
N736 H742 0.984 . S
N736 H743 0.984 . S
N737 C730 1.356 . S
N737 H740 0.984 . S
N737 H741 0.985 . S
H738 N733 0.984 . S
H739 N733 0.985 . S
H740 N737 0.984 . S
H741 N737 0.985 . S
H742 N736 0.984 . S
H743 N736 0.984 . S
H744 N732 0.984 . S
H745 N732 0.985 . S
C746 C747 1.363 . S
C746 C752 1.379 1_545 S
C746 N754 1.356 . S
C747 C746 1.363 . S
C747 C753 1.363 . S
C748 C749 1.363 . S
C748 C753 1.379 1_565 S
C748 N755 1.356 . S
C749 C748 1.363 . S
C749 C752 1.363 . S
N750 C752 1.356 . S
N750 H762 0.984 . S
N750 H763 0.985 . S
N751 C753 1.356 . S
N751 H756 0.984 . S
N751 H757 0.985 . S
C752 C746 1.379 1_565 S
C752 C749 1.363 . S
C752 N750 1.356 . S
C753 C747 1.363 . S
C753 C748 1.379 1_545 S
C753 N751 1.356 . S
N754 C746 1.356 . S
N754 H760 0.984 . S
N754 H761 0.984 . S
N755 C748 1.356 . S
N755 H758 0.984 . S
N755 H759 0.985 . S
H756 N751 0.984 . S
H757 N751 0.985 . S
H758 N755 0.984 . S
H759 N755 0.985 . S
H760 N754 0.984 . S
H761 N754 0.984 . S
H762 N750 0.984 . S
H763 N750 0.985 . S
C764 C765 1.363 1_545 S
C764 C770 1.379 1_655 S
C764 N772 1.356 . S
C765 C764 1.363 1_565 S
C765 C771 1.363 . S
C766 C767 1.363 1_565 S
C766 C771 1.379 1_455 S
C766 N773 1.356 . S
C767 C766 1.363 1_545 S
C767 C770 1.363 . S
N768 C770 1.356 . S
N768 H780 0.984 . S
N768 H781 0.985 . S
N769 C771 1.356 . S
N769 H774 0.984 . S
N769 H775 0.985 . S
C770 C764 1.379 1_455 S
C770 C767 1.363 . S
C770 N768 1.356 . S
C771 C765 1.363 . S
C771 C766 1.379 1_655 S
C771 N769 1.356 . S
N772 C764 1.356 . S
N772 H778 0.984 . S
N772 H779 0.984 1_545 S
N773 C766 1.356 . S
N773 H776 0.984 1_565 S
N773 H777 0.985 . S
H774 N769 0.984 . S
H775 N769 0.985 . S
H776 N773 0.984 1_545 S
H777 N773 0.985 . S
H778 N772 0.984 . S
H779 N772 0.984 1_565 S
H780 N768 0.984 . S
H781 N768 0.985 . S
C782 C783 1.363 1_455 S
C782 C788 1.379 . S
C782 N790 1.356 . S
C783 C782 1.363 1_655 S
C783 C789 1.363 . S
C784 C785 1.363 1_655 S
C784 C789 1.379 . S
C784 N791 1.356 . S
C785 C784 1.363 1_455 S
C785 C788 1.363 . S
N786 C788 1.356 . S
N786 H798 0.984 . S
N786 H799 0.985 . S
N787 C789 1.356 . S
N787 H792 0.984 . S
N787 H793 0.985 . S
C788 C782 1.379 . S
C788 C785 1.363 . S
C788 N786 1.356 . S
C789 C783 1.363 . S
C789 C784 1.379 . S
C789 N787 1.356 . S
N790 C782 1.356 . S
N790 H796 0.984 . S
N790 H797 0.984 1_455 S
N791 C784 1.356 . S
N791 H794 0.984 1_655 S
N791 H795 0.985 . S
H792 N787 0.984 . S
H793 N787 0.985 . S
H794 N791 0.984 1_455 S
H795 N791 0.985 . S
H796 N790 0.984 . S
H797 N790 0.984 1_655 S
H798 N786 0.984 . S
H799 N786 0.985 . S
C225 C65 1.388 . S
C227 C9 1.388 . S
C243 C23 1.388 . S
C245 C79 1.388 . S
C261 C93 1.388 . S
C263 C37 1.388 . S
C279 C107 1.388 . S
C281 C51 1.388 . S
C297 C177 1.388 . S
C299 C121 1.388 . S
C315 C135 1.388 . S
C317 C191 1.388 . S
C333 C205 1.388 . S
C335 C149 1.388 . S
C351 C163 1.388 . S
C353 C219 1.388 . S
C369 C0 1.437 . S
C371 C210 1.437 . S
C387 C14 1.437 . S
C389 C168 1.437 . S
C405 C28 1.437 . S
C407 C182 1.437 . S
C423 C196 1.437 . S
C425 C42 1.437 . S
C441 C56 1.437 . S
C443 C126 1.437 . S
C459 C70 1.437 . S
C461 C140 1.437 . S
C477 C154 1.437 . S
C479 C84 1.437 . S
C495 C112 1.437 . S
C497 C98 1.437 . S
C513 C11 1.567 . S
C515 C151 1.567 . S
C531 C165 1.567 . S
C533 C25 1.567 . S
C549 C39 1.567 . S
C551 C123 1.567 . S
C567 C137 1.567 . S
C569 C53 1.567 . S
C585 C67 1.567 . S
C587 C207 1.567 . S
C603 C81 1.567 . S
C605 C221 1.567 . S
C621 C179 1.567 . S
C623 C95 1.567 . S
C639 C193 1.567 . S
C641 C109 1.567 . S
C657 C145 1.437 . S
C659 C5 1.437 . S
C675 C19 1.437 . S
C677 C159 1.437 . S
C693 C33 1.437 . S
C695 C117 1.437 . S
C711 C131 1.437 . S
C713 C47 1.437 . S
C729 C201 1.437 . S
C731 C61 1.437 . S
C747 C215 1.437 . S
C749 C75 1.437 . S
C765 C173 1.437 . S
C767 C89 1.437 . S
C783 C103 1.437 . S
C785 C187 1.437 . S
