# Generated by pormake.
# Topology zfp, (5)-cn, num edge types: 1
# Building blocks:
#     Node 0, Type 0, BuildingBlock: BEQFEK_clean_sbu_0, # of connection points: 5
#     Node 1, Type 0, BuildingBlock: BEQFEK_clean_sbu_0, # of connection points: 5
#     Node 2, Type 0, BuildingBlock: BEQFEK_clean_sbu_0, # of connection points: 5
#     Node 3, Type 0, BuildingBlock: BEQFEK_clean_sbu_0, # of connection points: 5
#     Node 4, Type 0, BuildingBlock: BEQFEK_clean_sbu_0, # of connection points: 5
#     Node 5, Type 0, BuildingBlock: BEQFEK_clean_sbu_0, # of connection points: 5
#     Node 6, Type 0, BuildingBlock: BEQFEK_clean_sbu_0, # of connection points: 5
#     Node 7, Type 0, BuildingBlock: BEQFEK_clean_sbu_0, # of connection points: 5
#     Node 8, Type 0, BuildingBlock: BEQFEK_clean_sbu_0, # of connection points: 5
#     Node 9, Type 0, BuildingBlock: BEQFEK_clean_sbu_0, # of connection points: 5
#     Node 10, Type 0, BuildingBlock: BEQFEK_clean_sbu_0, # of connection points: 5
#     Node 11, Type 0, BuildingBlock: BEQFEK_clean_sbu_0, # of connection points: 5
#     Node 12, Type 0, BuildingBlock: BEQFEK_clean_sbu_0, # of connection points: 5
#     Node 13, Type 0, BuildingBlock: BEQFEK_clean_sbu_0, # of connection points: 5
#     Node 14, Type 0, BuildingBlock: BEQFEK_clean_sbu_0, # of connection points: 5
#     Node 15, Type 0, BuildingBlock: BEQFEK_clean_sbu_0, # of connection points: 5
#     Edge 16, Type (0, 0), BuildingBlock: OJICUG_clean_linker_0, # of connection points: 2
#     Edge 17, Type (0, 0), BuildingBlock: OJICUG_clean_linker_0, # of connection points: 2
#     Edge 18, Type (0, 0), BuildingBlock: OJICUG_clean_linker_0, # of connection points: 2
#     Edge 19, Type (0, 0), BuildingBlock: OJICUG_clean_linker_0, # of connection points: 2
#     Edge 20, Type (0, 0), BuildingBlock: OJICUG_clean_linker_0, # of connection points: 2
#     Edge 21, Type (0, 0), BuildingBlock: OJICUG_clean_linker_0, # of connection points: 2
#     Edge 22, Type (0, 0), BuildingBlock: OJICUG_clean_linker_0, # of connection points: 2
#     Edge 23, Type (0, 0), BuildingBlock: OJICUG_clean_linker_0, # of connection points: 2
#     Edge 24, Type (0, 0), BuildingBlock: OJICUG_clean_linker_0, # of connection points: 2
#     Edge 25, Type (0, 0), BuildingBlock: OJICUG_clean_linker_0, # of connection points: 2
#     Edge 26, Type (0, 0), BuildingBlock: OJICUG_clean_linker_0, # of connection points: 2
#     Edge 27, Type (0, 0), BuildingBlock: OJICUG_clean_linker_0, # of connection points: 2
#     Edge 28, Type (0, 0), BuildingBlock: OJICUG_clean_linker_0, # of connection points: 2
#     Edge 29, Type (0, 0), BuildingBlock: OJICUG_clean_linker_0, # of connection points: 2
#     Edge 30, Type (0, 0), BuildingBlock: OJICUG_clean_linker_0, # of connection points: 2
#     Edge 31, Type (0, 0), BuildingBlock: OJICUG_clean_linker_0, # of connection points: 2
#     Edge 32, Type (0, 0), BuildingBlock: OJICUG_clean_linker_0, # of connection points: 2
#     Edge 33, Type (0, 0), BuildingBlock: OJICUG_clean_linker_0, # of connection points: 2
#     Edge 34, Type (0, 0), BuildingBlock: OJICUG_clean_linker_0, # of connection points: 2
#     Edge 35, Type (0, 0), BuildingBlock: OJICUG_clean_linker_0, # of connection points: 2
#     Edge 36, Type (0, 0), BuildingBlock: OJICUG_clean_linker_0, # of connection points: 2
#     Edge 37, Type (0, 0), BuildingBlock: OJICUG_clean_linker_0, # of connection points: 2
#     Edge 38, Type (0, 0), BuildingBlock: OJICUG_clean_linker_0, # of connection points: 2
#     Edge 39, Type (0, 0), BuildingBlock: OJICUG_clean_linker_0, # of connection points: 2
#     Edge 40, Type (0, 0), BuildingBlock: OJICUG_clean_linker_0, # of connection points: 2
#     Edge 41, Type (0, 0), BuildingBlock: OJICUG_clean_linker_0, # of connection points: 2
#     Edge 42, Type (0, 0), BuildingBlock: OJICUG_clean_linker_0, # of connection points: 2
#     Edge 43, Type (0, 0), BuildingBlock: OJICUG_clean_linker_0, # of connection points: 2
#     Edge 44, Type (0, 0), BuildingBlock: OJICUG_clean_linker_0, # of connection points: 2
#     Edge 45, Type (0, 0), BuildingBlock: OJICUG_clean_linker_0, # of connection points: 2
#     Edge 46, Type (0, 0), BuildingBlock: OJICUG_clean_linker_0, # of connection points: 2
#     Edge 47, Type (0, 0), BuildingBlock: OJICUG_clean_linker_0, # of connection points: 2
#     Edge 48, Type (0, 0), BuildingBlock: OJICUG_clean_linker_0, # of connection points: 2
#     Edge 49, Type (0, 0), BuildingBlock: OJICUG_clean_linker_0, # of connection points: 2
#     Edge 50, Type (0, 0), BuildingBlock: OJICUG_clean_linker_0, # of connection points: 2
#     Edge 51, Type (0, 0), BuildingBlock: OJICUG_clean_linker_0, # of connection points: 2
#     Edge 52, Type (0, 0), BuildingBlock: OJICUG_clean_linker_0, # of connection points: 2
#     Edge 53, Type (0, 0), BuildingBlock: OJICUG_clean_linker_0, # of connection points: 2
#     Edge 54, Type (0, 0), BuildingBlock: OJICUG_clean_linker_0, # of connection points: 2
#     Edge 55, Type (0, 0), BuildingBlock: OJICUG_clean_linker_0, # of connection points: 2
# Relax obj value: 0.101
# Max RMSD: 0.149
# Mean RMSD: 0.149
data_MOF--net-zfp--node1-BEQFEK_clean_sbu_0--edge1-OJICUG_clean_linker_0
_symmetry_space_group_name_H-M    P1
_symmetry_Int_Tables_number       1
_symmetry_cell_setting            triclinic
loop_
_symmetry_equiv_pos_as_xyz
'x, y, z'
_cell_length_a     22.587582
_cell_length_b     22.602374
_cell_length_c     61.981408
_cell_angle_alpha  89.912219
_cell_angle_beta   90.134563
_cell_angle_gamma 89.975789
loop_
_atom_site_label
_atom_site_type_symbol
_atom_site_fract_x
_atom_site_fract_y
_atom_site_fract_z
_atom_type_partial_charge
Co0 Co 0.14764 0.28774 0.15656 0.0
Co1 Co 0.14437 0.31399 0.10683 0.0
C2 C 0.06217 0.22524 0.12762 0.0
O3 O 0.08567 0.23171 0.14623 0.0
O4 O 0.08301 0.25149 0.11098 0.0
C5 C 0.13171 0.29431 0.20172 0.0
O6 O 0.0797 0.31488 0.19583 0.0
C7 C 0.1588 0.30617 0.05899 0.0
C8 C 0.16711 0.40161 0.0517 0.0
C9 C 0.16827 0.34617 0.0423 0.0
N10 N 0.15307 0.33701 0.07745 0.0
N11 N 0.15741 0.39394 0.07285 0.0
C12 C 0.15902 0.24018 0.05777 0.0
H13 H 0.16897 0.22078 0.07384 0.0
H14 H 0.19188 0.22489 0.0457 0.0
H15 H 0.11458 0.2248 0.05256 0.0
C16 C 0.2764 0.27626 0.14665 0.0
N17 N 0.21974 0.28514 0.14044 0.0
N18 N 0.21879 0.29864 0.11982 0.0
C19 C 0.27489 0.3012 0.11242 0.0
C20 C 0.31373 0.28677 0.12915 0.0
C21 C 0.29371 0.25493 0.16865 0.0
H22 H 0.26021 0.22326 0.17476 0.0
H23 H 0.33746 0.23264 0.16847 0.0
H24 H 0.29557 0.29319 0.17983 0.0
O25 O 0.10726 0.36642 0.15511 0.0
O26 O 0.108 0.38258 0.11992 0.0
H27 H 0.33853 0.33412 0.08907 0.0
H28 H 0.27963 0.28847 0.07828 0.0
C29 C 0.29091 0.32289 0.09035 0.0
H30 H 0.26512 0.36323 0.08655 0.0
H31 H 0.15529 0.4277 0.08428 0.0
O32 O 0.16707 0.27587 0.18735 0.0
C33 C 0.0935 0.39793 0.13884 0.0
Co34 Co 0.68383 0.15521 0.65768 0.0
Co35 Co 0.68993 0.14006 0.60756 0.0
C36 C 0.76416 0.06692 0.63916 0.0
O37 O 0.74595 0.09431 0.65581 0.0
O38 O 0.74825 0.08278 0.62024 0.0
C39 C 0.70798 0.17789 0.70292 0.0
O40 O 0.76265 0.16196 0.69865 0.0
C41 C 0.73088 0.15977 0.56201 0.0
C42 C 0.6718 0.09603 0.54565 0.0
C43 C 0.71637 0.13654 0.54197 0.0
N44 N 0.69606 0.13396 0.57693 0.0
N45 N 0.66151 0.09546 0.56695 0.0
C46 C 0.78063 0.20121 0.56692 0.0
H47 H 0.78185 0.21225 0.58435 0.0
H48 H 0.77624 0.24199 0.55707 0.0
H49 H 0.82308 0.17999 0.56232 0.0
C50 C 0.69869 0.28097 0.64564 0.0
N51 N 0.69631 0.22342 0.64007 0.0
N52 N 0.69228 0.21899 0.61897 0.0
C53 C 0.68763 0.27411 0.61056 0.0
C54 C 0.69225 0.3157 0.62718 0.0
C55 C 0.71049 0.30155 0.66819 0.0
H56 H 0.74045 0.26995 0.67643 0.0
H57 H 0.73174 0.34576 0.66838 0.0
H58 H 0.66818 0.30353 0.67722 0.0
O59 O 0.61106 0.11131 0.64972 0.0
O60 O 0.61368 0.10394 0.61414 0.0
H61 H 0.63758 0.32364 0.58715 0.0
H62 H 0.70902 0.29979 0.57825 0.0
C63 C 0.66973 0.28649 0.58772 0.0
H64 H 0.64966 0.24669 0.58026 0.0
H65 H 0.63048 0.0687 0.57469 0.0
O66 O 0.66982 0.17869 0.68787 0.0
C67 C 0.58913 0.09276 0.63206 0.0
Co68 Co 0.83668 0.6618 0.15965 0.0
Co69 Co 0.85271 0.66422 0.10947 0.0
C70 C 0.92372 0.74288 0.13681 0.0
O71 O 0.90048 0.7199 0.15358 0.0
O72 O 0.90329 0.7321 0.11803 0.0
C73 C 0.82794 0.70355 0.20369 0.0
O74 O 0.85696 0.75025 0.19682 0.0
C75 C 0.8423 0.69258 0.06276 0.0
C76 C 0.8785 0.61036 0.04873 0.0
C77 C 0.85641 0.66549 0.04342 0.0
N78 N 0.85609 0.65513 0.07892 0.0
N79 N 0.87786 0.60621 0.07035 0.0
C80 C 0.81749 0.75325 0.06579 0.0
H81 H 0.80646 0.76108 0.083 0.0
H82 H 0.77743 0.75883 0.05558 0.0
H83 H 0.85057 0.78638 0.06039 0.0
C84 C 0.71013 0.67154 0.14665 0.0
N85 N 0.76816 0.66892 0.14165 0.0
N86 N 0.77392 0.66561 0.12059 0.0
C87 C 0.71947 0.66299 0.11155 0.0
C88 C 0.67671 0.66704 0.12775 0.0
C89 C 0.6879 0.68237 0.16904 0.0
H90 H 0.71874 0.71206 0.17776 0.0
H91 H 0.64347 0.70323 0.1689 0.0
H92 H 0.68567 0.63968 0.17787 0.0
O93 O 0.87871 0.58563 0.15572 0.0
O94 O 0.897 0.59667 0.12089 0.0
H95 H 0.66558 0.62866 0.0856 0.0
H96 H 0.70835 0.69359 0.07916 0.0
C97 C 0.70874 0.65109 0.08811 0.0
H98 H 0.7444 0.6228 0.08151 0.0
H99 H 0.89242 0.56981 0.07927 0.0
O100 O 0.81449 0.66288 0.19046 0.0
C101 C 0.90511 0.56954 0.13861 0.0
Co102 Co 0.32204 0.85049 0.65844 0.0
Co103 Co 0.31198 0.85154 0.6078 0.0
C104 C 0.23874 0.93252 0.63218 0.0
O105 O 0.26337 0.91179 0.64917 0.0
O106 O 0.24786 0.90922 0.61372 0.0
C107 C 0.28059 0.81075 0.70079 0.0
O108 O 0.2374 0.78399 0.69046 0.0
C109 C 0.29508 0.84831 0.55955 0.0
C110 C 0.37321 0.79393 0.55137 0.0
C111 C 0.32498 0.82255 0.54231 0.0
N112 N 0.32449 0.83486 0.57789 0.0
N113 N 0.37127 0.80281 0.57274 0.0
C114 C 0.23853 0.88258 0.55881 0.0
H115 H 0.21271 0.87488 0.57376 0.0
H116 H 0.21174 0.87007 0.54449 0.0
H117 H 0.24899 0.93047 0.55779 0.0
C118 C 0.32207 0.72101 0.65052 0.0
N119 N 0.31611 0.77744 0.6438 0.0
N120 N 0.30469 0.77798 0.62302 0.0
C121 C 0.29893 0.72157 0.61612 0.0
C122 C 0.31039 0.68311 0.6333 0.0
C123 C 0.34689 0.70419 0.67212 0.0
H124 H 0.37419 0.74075 0.67872 0.0
H125 H 0.3103 0.69497 0.68351 0.0
H126 H 0.37446 0.66368 0.67082 0.0
O127 O 0.3971 0.88789 0.65205 0.0
O128 O 0.38453 0.89621 0.61666 0.0
H129 H 0.31839 0.69538 0.58377 0.0
H130 H 0.25061 0.66526 0.59429 0.0
C131 C 0.27911 0.70523 0.59386 0.0
H132 H 0.25408 0.7422 0.58638 0.0
H133 H 0.40168 0.78643 0.58396 0.0
O134 O 0.31872 0.84034 0.69027 0.0
C135 C 0.4134 0.90783 0.63384 0.0
Co136 Co 0.65529 0.21021 0.83599 0.0
Co137 Co 0.65226 0.18459 0.8856 0.0
C138 C 0.57396 0.27664 0.86586 0.0
O139 O 0.5953 0.26763 0.84708 0.0
O140 O 0.59612 0.25189 0.88261 0.0
C141 C 0.63531 0.2194 0.79068 0.0
O142 O 0.57977 0.21044 0.79604 0.0
C143 C 0.66536 0.18798 0.9334 0.0
C144 C 0.67282 0.09199 0.9398 0.0
C145 C 0.67359 0.14671 0.94978 0.0
N146 N 0.66063 0.15859 0.91461 0.0
N147 N 0.66451 0.10131 0.91864 0.0
C148 C 0.66527 0.25387 0.93527 0.0
H149 H 0.67838 0.27434 0.91971 0.0
H150 H 0.69561 0.26833 0.94836 0.0
H151 H 0.61986 0.26894 0.93928 0.0
C152 C 0.78514 0.21535 0.84562 0.0
N153 N 0.72824 0.20843 0.85183 0.0
N154 N 0.72715 0.19497 0.87243 0.0
C155 C 0.78325 0.19058 0.87985 0.0
C156 C 0.8224 0.20368 0.86313 0.0
C157 C 0.80289 0.23667 0.82369 0.0
H158 H 0.77047 0.26969 0.8177 0.0
H159 H 0.84737 0.25741 0.82393 0.0
H160 H 0.8033 0.19865 0.81238 0.0
O161 O 0.61071 0.13381 0.83659 0.0
O162 O 0.60743 0.12182 0.87201 0.0
H163 H 0.84624 0.15776 0.90358 0.0
H164 H 0.78732 0.20408 0.91397 0.0
C165 C 0.79874 0.16934 0.90206 0.0
H166 H 0.77266 0.12925 0.90584 0.0
H167 H 0.66262 0.06852 0.90683 0.0
O168 O 0.67401 0.22408 0.80543 0.0
C169 C 0.5918 0.10657 0.85317 0.0
Co170 Co 0.82373 0.67851 0.33953 0.0
Co171 Co 0.84712 0.67551 0.38906 0.0
C172 C 0.75874 0.59438 0.36617 0.0
O173 O 0.76239 0.62001 0.3479 0.0
O174 O 0.78757 0.61352 0.38243 0.0
C175 C 0.79667 0.66094 0.29477 0.0
O176 O 0.77525 0.61015 0.3015 0.0
C177 C 0.81786 0.68882 0.43504 0.0
C178 C 0.90182 0.65885 0.4499 0.0
C179 C 0.84472 0.67641 0.45459 0.0
N180 N 0.85739 0.6784 0.41934 0.0
N181 N 0.90757 0.66098 0.42836 0.0
C182 C 0.75475 0.70574 0.43126 0.0
H183 H 0.74593 0.71185 0.41376 0.0
H184 H 0.7448 0.74732 0.44003 0.0
H185 H 0.72534 0.67077 0.43781 0.0
C186 C 0.81267 0.80762 0.34931 0.0
N187 N 0.82088 0.75098 0.35557 0.0
N188 N 0.8332 0.75004 0.37628 0.0
C189 C 0.83576 0.80599 0.38374 0.0
C190 C 0.82249 0.84494 0.36691 0.0
C191 C 0.79246 0.82484 0.32715 0.0
H192 H 0.76326 0.79004 0.32039 0.0
H193 H 0.76788 0.86733 0.32738 0.0
H194 H 0.8316 0.82945 0.31649 0.0
O195 O 0.89924 0.63306 0.34357 0.0
O196 O 0.91983 0.64192 0.37836 0.0
H197 H 0.87542 0.86664 0.40651 0.0
H198 H 0.81765 0.81983 0.41717 0.0
C199 C 0.856 0.82158 0.40603 0.0
H200 H 0.88955 0.78929 0.41171 0.0
H201 H 0.94534 0.64881 0.41979 0.0
O202 O 0.81847 0.69674 0.3084 0.0
C203 C 0.93216 0.62196 0.35982 0.0
Co204 Co 0.34545 0.82893 0.83533 0.0
Co205 Co 0.35086 0.85633 0.88504 0.0
C206 C 0.43206 0.76732 0.86274 0.0
O207 O 0.40693 0.77034 0.8443 0.0
O208 O 0.41237 0.79652 0.87877 0.0
C209 C 0.32102 0.77814 0.7921 0.0
O210 O 0.32399 0.725 0.80066 0.0
C211 C 0.33653 0.83045 0.93166 0.0
C212 C 0.37057 0.91344 0.94585 0.0
C213 C 0.34949 0.85786 0.95112 0.0
N214 N 0.3496 0.86826 0.91556 0.0
N215 N 0.36969 0.9178 0.92421 0.0
C216 C 0.31722 0.76787 0.92838 0.0
H217 H 0.31347 0.7576 0.91091 0.0
H218 H 0.27385 0.76063 0.93631 0.0
H219 H 0.34964 0.73755 0.9361 0.0
C220 C 0.21625 0.81801 0.84663 0.0
N221 N 0.2735 0.82662 0.8522 0.0
N222 N 0.27586 0.84047 0.87279 0.0
C223 C 0.22042 0.84348 0.88075 0.0
C224 C 0.18032 0.82892 0.86451 0.0
C225 C 0.19716 0.79633 0.82491 0.0
H226 H 0.22674 0.75996 0.8198 0.0
H227 H 0.15116 0.77935 0.82501 0.0
H228 H 0.20099 0.83284 0.813 0.0
O229 O 0.38801 0.90624 0.83786 0.0
O230 O 0.38295 0.9283 0.87264 0.0
H231 H 0.16114 0.88599 0.90323 0.0
H232 H 0.20716 0.82853 0.91444 0.0
C233 C 0.20596 0.86589 0.90284 0.0
H234 H 0.23892 0.89938 0.90797 0.0
H235 H 0.3842 0.95422 0.91532 0.0
O236 O 0.32791 0.82347 0.80395 0.0
C237 C 0.39946 0.94061 0.85358 0.0
Co238 Co 0.18141 0.36485 0.33399 0.0
Co239 Co 0.19552 0.36622 0.38421 0.0
C240 C 0.26717 0.44724 0.35904 0.0
O241 O 0.24099 0.42711 0.34223 0.0
O242 O 0.25991 0.42312 0.37753 0.0
C243 C 0.21269 0.33251 0.28911 0.0
O244 O 0.26581 0.31681 0.29563 0.0
C245 C 0.21447 0.35909 0.4324 0.0
C246 C 0.13469 0.30682 0.44035 0.0
C247 C 0.18447 0.33236 0.44944 0.0
N248 N 0.18362 0.34903 0.4141 0.0
N249 N 0.13586 0.31831 0.41913 0.0
C250 C 0.27261 0.3905 0.43326 0.0
H251 H 0.2965 0.38511 0.41776 0.0
H252 H 0.30011 0.37362 0.4468 0.0
H253 H 0.26452 0.4384 0.43583 0.0
C254 C 0.18731 0.23512 0.34156 0.0
N255 N 0.19011 0.29166 0.34841 0.0
N256 N 0.20169 0.29233 0.36916 0.0
C257 C 0.20997 0.23605 0.37598 0.0
C258 C 0.20058 0.19741 0.35873 0.0
C259 C 0.16619 0.21762 0.31956 0.0
H260 H 0.13412 0.25066 0.31331 0.0
H261 H 0.20445 0.21559 0.30841 0.0
H262 H 0.14459 0.17353 0.31994 0.0
O263 O 0.10667 0.40164 0.34103 0.0
O264 O 0.1239 0.41318 0.37592 0.0
H265 H 0.1917 0.2101 0.40846 0.0
H266 H 0.25956 0.18045 0.3978 0.0
C267 C 0.23062 0.22012 0.39821 0.0
H268 H 0.25545 0.25744 0.40548 0.0
H269 H 0.10445 0.30419 0.40789 0.0
O270 O 0.17595 0.35344 0.30255 0.0
C271 C 0.09331 0.42413 0.35908 0.0
Co272 Co 0.84918 0.70549 0.83758 0.0
Co273 Co 0.84948 0.68494 0.88779 0.0
C274 C 0.93138 0.77299 0.86636 0.0
O275 O 0.90932 0.76407 0.84764 0.0
O276 O 0.91014 0.74774 0.88311 0.0
C277 C 0.86262 0.68804 0.79225 0.0
O278 O 0.91126 0.66074 0.79832 0.0
C279 C 0.84391 0.70337 0.9352 0.0
C280 C 0.81326 0.61497 0.94562 0.0
C281 C 0.8279 0.67058 0.95321 0.0
N282 N 0.83781 0.66879 0.91768 0.0
N283 N 0.82028 0.61586 0.92411 0.0
C284 C 0.86359 0.76644 0.93451 0.0
H285 H 0.8467 0.78809 0.91963 0.0
H286 H 0.84821 0.79081 0.94899 0.0
H287 H 0.91269 0.76774 0.93406 0.0
C288 C 0.71996 0.71787 0.84619 0.0
N289 N 0.77617 0.70916 0.85296 0.0
N290 N 0.77592 0.69859 0.8738 0.0
C291 C 0.71944 0.69847 0.88088 0.0
C292 C 0.68175 0.71087 0.86363 0.0
C293 C 0.70392 0.73597 0.82368 0.0
H294 H 0.73683 0.76818 0.81751 0.0
H295 H 0.65935 0.75646 0.82293 0.0
H296 H 0.70475 0.69643 0.81309 0.0
O297 O 0.89054 0.62796 0.84103 0.0
O298 O 0.88805 0.61468 0.87642 0.0
H299 H 0.65335 0.67999 0.90557 0.0
H300 H 0.72207 0.71229 0.91506 0.0
C301 C 0.70192 0.68121 0.90332 0.0
H302 H 0.71881 0.6362 0.90671 0.0
H303 H 0.81261 0.58035 0.91372 0.0
O304 O 0.8312 0.71379 0.80637 0.0
C305 C 0.90439 0.59833 0.85776 0.0
Co306 Co 0.34279 0.86507 0.33478 0.0
Co307 Co 0.32734 0.86618 0.38502 0.0
C308 C 0.25631 0.94724 0.35932 0.0
O309 O 0.28279 0.92694 0.34266 0.0
O310 O 0.26338 0.92343 0.37788 0.0
C311 C 0.3091 0.83302 0.29046 0.0
O312 O 0.25697 0.8176 0.29795 0.0
C313 C 0.30455 0.85874 0.43292 0.0
C314 C 0.38404 0.80716 0.44196 0.0
C315 C 0.33322 0.83227 0.45036 0.0
N316 N 0.33713 0.84897 0.41505 0.0
N317 N 0.38471 0.81867 0.42073 0.0
C318 C 0.24599 0.88951 0.43296 0.0
H319 H 0.22337 0.88335 0.41721 0.0
H320 H 0.21765 0.87274 0.44624 0.0
H321 H 0.25331 0.93757 0.43541 0.0
C322 C 0.33654 0.73537 0.3422 0.0
N323 N 0.33371 0.79183 0.34913 0.0
N324 N 0.32166 0.79231 0.36983 0.0
C325 C 0.31313 0.73596 0.37652 0.0
C326 C 0.32281 0.69748 0.35924 0.0
C327 C 0.35814 0.71805 0.32028 0.0
H328 H 0.39009 0.75129 0.31416 0.0
H329 H 0.32009 0.7158 0.30898 0.0
H330 H 0.37999 0.67407 0.32074 0.0
O331 O 0.41706 0.90218 0.34245 0.0
O332 O 0.39975 0.91277 0.37738 0.0
H333 H 0.33069 0.70999 0.40907 0.0
H334 H 0.26334 0.67994 0.39804 0.0
C335 C 0.29198 0.71979 0.39862 0.0
H336 H 0.26668 0.75692 0.40577 0.0
H337 H 0.41723 0.80481 0.40993 0.0
O338 O 0.34774 0.85396 0.30324 0.0
C339 C 0.43047 0.92402 0.36064 0.0
Co340 Co 0.15432 0.32599 0.83501 0.0
Co341 Co 0.15294 0.33969 0.8855 0.0
C342 C 0.07338 0.25333 0.86356 0.0
O343 O 0.09369 0.26667 0.84493 0.0
O344 O 0.09639 0.27431 0.88076 0.0
C345 C 0.17934 0.27644 0.79169 0.0
O346 O 0.1844 0.22398 0.80065 0.0
C347 C 0.16544 0.32194 0.93289 0.0
C348 C 0.17609 0.41511 0.94299 0.0
C349 C 0.17476 0.35771 0.95079 0.0
N350 N 0.16221 0.35694 0.91533 0.0
N351 N 0.16792 0.4125 0.92157 0.0
C352 C 0.16279 0.25592 0.93219 0.0
H353 H 0.11661 0.24156 0.93528 0.0
H354 H 0.17608 0.2397 0.91601 0.0
H355 H 0.19177 0.23641 0.94483 0.0
C356 C 0.28587 0.31905 0.84448 0.0
N357 N 0.22859 0.32388 0.85067 0.0
N358 N 0.22713 0.33107 0.87171 0.0
C359 C 0.28291 0.3325 0.87951 0.0
C360 C 0.32251 0.32446 0.8626 0.0
C361 C 0.30438 0.30563 0.82184 0.0
H362 H 0.28798 0.34093 0.8109 0.0
H363 H 0.28392 0.26334 0.8168 0.0
H364 H 0.35294 0.30116 0.82018 0.0
O365 O 0.11112 0.40243 0.83869 0.0
O366 O 0.11007 0.40745 0.87432 0.0
H367 H 0.27451 0.38696 0.90747 0.0
H368 H 0.3459 0.35372 0.90498 0.0
C369 C 0.2979 0.34619 0.90253 0.0
H370 H 0.28294 0.3093 0.913 0.0
H371 H 0.16729 0.4487 0.9111 0.0
O372 O 0.16763 0.32119 0.80332 0.0
C373 C 0.09441 0.42735 0.85604 0.0
Co374 Co 0.69842 0.17617 0.33892 0.0
Co375 Co 0.68196 0.17743 0.38935 0.0
C376 C 0.76796 0.09461 0.36629 0.0
O377 O 0.76013 0.11741 0.34762 0.0
O378 O 0.74204 0.1156 0.38288 0.0
C379 C 0.69245 0.15077 0.29345 0.0
O380 O 0.6875 0.09594 0.30029 0.0
C381 C 0.7186 0.1826 0.43495 0.0
C382 C 0.63521 0.20998 0.45059 0.0
C383 C 0.69383 0.19619 0.45478 0.0
N384 N 0.67672 0.18918 0.41969 0.0
N385 N 0.62688 0.20506 0.42919 0.0
C386 C 0.78077 0.16362 0.43049 0.0
H387 H 0.79595 0.18288 0.41498 0.0
H388 H 0.81092 0.17716 0.44376 0.0
H389 H 0.782 0.11471 0.42898 0.0
C390 C 0.71163 0.30603 0.34721 0.0
N391 N 0.70348 0.24979 0.35402 0.0
N392 N 0.69366 0.25022 0.37489 0.0
C393 C 0.69314 0.30662 0.38194 0.0
C394 C 0.70509 0.34426 0.3647 0.0
C395 C 0.72798 0.32217 0.32458 0.0
H396 H 0.75642 0.28726 0.3175 0.0
H397 H 0.75178 0.36507 0.324 0.0
H398 H 0.68706 0.32564 0.31471 0.0
O399 O 0.62338 0.13253 0.34515 0.0
O400 O 0.60839 0.1402 0.38043 0.0
H401 H 0.66916 0.37252 0.406 0.0
H402 H 0.70876 0.30833 0.41603 0.0
C403 C 0.67515 0.32413 0.40428 0.0
H404 H 0.63223 0.30312 0.40811 0.0
H405 H 0.58697 0.21207 0.42106 0.0
O406 O 0.69932 0.19188 0.3072 0.0
C407 C 0.59333 0.12065 0.36202 0.0
Co408 Co 0.34787 0.78398 0.15657 0.0
Co409 Co 0.33902 0.79418 0.106 0.0
C410 C 0.42568 0.71228 0.12596 0.0
O411 O 0.40769 0.72632 0.14483 0.0
O412 O 0.40005 0.7319 0.10902 0.0
C413 C 0.37346 0.79639 0.20123 0.0
O414 O 0.42183 0.82121 0.19374 0.0
C415 C 0.34094 0.79028 0.05792 0.0
C416 C 0.27198 0.85662 0.0504 0.0
C417 C 0.31154 0.8179 0.04095 0.0
N418 N 0.31882 0.81112 0.07658 0.0
N419 N 0.27811 0.85118 0.07189 0.0
C420 C 0.38916 0.74512 0.05654 0.0
H421 H 0.4312 0.76505 0.06229 0.0
H422 H 0.37866 0.7073 0.0673 0.0
H423 H 0.39494 0.72897 0.03977 0.0
C424 C 0.21764 0.78445 0.1517 0.0
N425 N 0.27247 0.78242 0.14321 0.0
N426 N 0.26853 0.77974 0.12211 0.0
C427 C 0.21077 0.77588 0.11653 0.0
C428 C 0.17614 0.78003 0.13509 0.0
C429 C 0.2059 0.79667 0.17504 0.0
H430 H 0.20875 0.75465 0.18427 0.0
H431 H 0.16153 0.81661 0.17744 0.0
H432 H 0.23974 0.82754 0.18148 0.0
O433 O 0.38535 0.8608 0.15228 0.0
O434 O 0.38205 0.86533 0.11653 0.0
H435 H 0.17468 0.80343 0.08614 0.0
H436 H 0.15094 0.73161 0.09485 0.0
C437 C 0.18937 0.76216 0.09421 0.0
H438 H 0.22513 0.74152 0.08456 0.0
H439 H 0.25499 0.87551 0.08342 0.0
O440 O 0.33703 0.77344 0.18805 0.0
C441 C 0.39883 0.88608 0.13466 0.0
Co442 Co 0.17718 0.35048 0.6576 0.0
Co443 Co 0.18878 0.35251 0.60698 0.0
C444 C 0.2619 0.43238 0.63235 0.0
O445 O 0.23698 0.4113 0.64918 0.0
O446 O 0.25267 0.40987 0.61375 0.0
C447 C 0.21695 0.31134 0.70027 0.0
O448 O 0.26188 0.28698 0.6902 0.0
C449 C 0.21057 0.34939 0.55909 0.0
C450 C 0.13268 0.2962 0.54959 0.0
C451 C 0.18231 0.32408 0.54137 0.0
N452 N 0.17892 0.33638 0.57691 0.0
N453 N 0.13231 0.30507 0.57097 0.0
C454 C 0.26774 0.38264 0.5593 0.0
H455 H 0.29204 0.37384 0.57455 0.0
H456 H 0.2956 0.37026 0.54529 0.0
H457 H 0.25818 0.43075 0.55844 0.0
C458 C 0.17788 0.2213 0.64955 0.0
N459 N 0.18355 0.27776 0.64286 0.0
N460 N 0.19513 0.27849 0.62212 0.0
C461 C 0.20131 0.2221 0.61522 0.0
C462 C 0.18998 0.18352 0.63236 0.0
C463 C 0.15324 0.20428 0.67111 0.0
H464 H 0.12498 0.24031 0.67752 0.0
H465 H 0.18996 0.19621 0.68263 0.0
H466 H 0.12665 0.16314 0.66984 0.0
O467 O 0.10301 0.38857 0.65033 0.0
O468 O 0.11555 0.3975 0.61497 0.0
H469 H 0.18252 0.19641 0.58274 0.0
H470 H 0.24986 0.16569 0.59355 0.0
C471 C 0.22161 0.20585 0.59303 0.0
H472 H 0.24709 0.24271 0.58575 0.0
H473 H 0.10047 0.28907 0.58167 0.0
O474 O 0.17814 0.33961 0.6895 0.0
C475 C 0.08671 0.40887 0.63214 0.0
Co476 Co 0.64508 0.16114 0.15714 0.0
Co477 Co 0.64408 0.14677 0.1065 0.0
C478 C 0.56366 0.23301 0.12903 0.0
O479 O 0.5848 0.22123 0.14773 0.0
O480 O 0.58573 0.21047 0.11194 0.0
C481 C 0.65799 0.20305 0.20257 0.0
O482 O 0.64532 0.25685 0.19597 0.0
C483 C 0.65963 0.16672 0.05926 0.0
C484 C 0.66831 0.07363 0.0488 0.0
C485 C 0.66932 0.13131 0.0413 0.0
N486 N 0.65398 0.13117 0.07659 0.0
N487 N 0.65853 0.0757 0.07011 0.0
C488 C 0.65927 0.23275 0.06029 0.0
H489 H 0.67036 0.24787 0.07685 0.0
H490 H 0.69103 0.25154 0.04848 0.0
H491 H 0.61429 0.249 0.05614 0.0
C492 C 0.77534 0.17364 0.14786 0.0
N493 N 0.7186 0.1655 0.14151 0.0
N494 N 0.71778 0.15681 0.12055 0.0
C495 C 0.77373 0.15696 0.113 0.0
C496 C 0.81253 0.16828 0.12997 0.0
C497 C 0.79271 0.18995 0.17039 0.0
H498 H 0.75995 0.22137 0.17711 0.0
H499 H 0.83718 0.21065 0.17095 0.0
H500 H 0.79272 0.14957 0.18059 0.0
O501 O 0.60202 0.08511 0.1524 0.0
O502 O 0.60346 0.0771 0.11686 0.0
H503 H 0.83766 0.1319 0.08851 0.0
H504 H 0.77747 0.1787 0.07943 0.0
C505 C 0.78981 0.14156 0.09026 0.0
H506 H 0.76506 0.10169 0.0852 0.0
H507 H 0.65625 0.03912 0.08036 0.0
O508 O 0.66019 0.1611 0.18894 0.0
C509 C 0.58713 0.05839 0.13517 0.0
Co510 Co 0.81177 0.64124 0.65866 0.0
Co511 Co 0.8136 0.65624 0.60851 0.0
C512 C 0.73496 0.56679 0.62897 0.0
O513 O 0.75018 0.58344 0.64792 0.0
O514 O 0.75355 0.59361 0.61217 0.0
C515 C 0.7801 0.66337 0.7043 0.0
O516 O 0.72872 0.68439 0.69791 0.0
C517 C 0.79262 0.66601 0.56144 0.0
C518 C 0.8609 0.73216 0.55301 0.0
C519 C 0.81597 0.69806 0.54436 0.0
N520 N 0.82183 0.68152 0.57947 0.0
N521 N 0.86284 0.72066 0.57426 0.0
C522 C 0.74358 0.62164 0.56076 0.0
H523 H 0.7114 0.63125 0.57379 0.0
H524 H 0.72052 0.62212 0.54493 0.0
H525 H 0.76212 0.5769 0.56378 0.0
C526 C 0.81134 0.7738 0.65584 0.0
N527 N 0.80771 0.71918 0.64706 0.0
N528 N 0.80107 0.7244 0.6261 0.0
C529 C 0.79569 0.78229 0.62105 0.0
C530 C 0.80368 0.81597 0.63962 0.0
C531 C 0.82861 0.78536 0.67877 0.0
H532 H 0.85767 0.74946 0.68484 0.0
H533 H 0.7882 0.78726 0.68887 0.0
H534 H 0.85233 0.82815 0.68027 0.0
O535 O 0.8857 0.60379 0.65056 0.0
O536 O 0.88898 0.61393 0.61505 0.0
H537 H 0.81522 0.81893 0.58994 0.0
H538 H 0.74665 0.84366 0.60129 0.0
C539 C 0.77617 0.80473 0.59941 0.0
H540 H 0.75205 0.76981 0.59043 0.0
H541 H 0.89245 0.73931 0.58527 0.0
O542 O 0.81632 0.6434 0.69047 0.0
C543 C 0.91058 0.59392 0.63259 0.0
C544 C 0.21007 0.28511 0.23037 0.0
C545 C 0.15186 0.30021 0.22433 0.0
H546 H 0.27535 0.28383 0.25557 0.0
C547 C 0.11406 0.325 0.23981 0.0
H548 H 0.24038 0.26605 0.21879 0.0
C549 C 0.13417 0.33552 0.26072 0.0
C550 C 0.19261 0.32141 0.26674 0.0
H551 H 0.06904 0.33725 0.23571 0.0
H552 H 0.10371 0.35506 0.27215 0.0
C553 C 0.23026 0.2956 0.2514 0.0
C554 C 0.61197 0.2113 0.75134 0.0
C555 C 0.65416 0.2152 0.76793 0.0
H556 H 0.59593 0.19685 0.71777 0.0
C557 C 0.7146 0.21036 0.76275 0.0
H558 H 0.56513 0.21502 0.75479 0.0
C559 C 0.7323 0.19927 0.74156 0.0
C560 C 0.68996 0.19343 0.72509 0.0
H561 H 0.74829 0.21321 0.77516 0.0
H562 H 0.77906 0.19433 0.73816 0.0
C563 C 0.6297 0.2008 0.73012 0.0
C564 C 0.82687 0.72689 0.26418 0.0
C565 C 0.79985 0.67448 0.27145 0.0
H566 H 0.85678 0.77737 0.23706 0.0
C567 C 0.77849 0.63384 0.25619 0.0
H568 H 0.8435 0.75932 0.27553 0.0
C569 C 0.78598 0.64429 0.23416 0.0
C570 C 0.81509 0.69557 0.2269 0.0
H571 H 0.75714 0.59324 0.26125 0.0
H572 H 0.77013 0.61139 0.22285 0.0
C573 C 0.83445 0.73731 0.24213 0.0
C574 C 0.27958 0.74272 0.75676 0.0
C575 C 0.30944 0.78614 0.76879 0.0
H576 H 0.24566 0.71712 0.72575 0.0
C577 C 0.32809 0.83816 0.7584 0.0
H578 H 0.26443 0.70236 0.7644 0.0
C579 C 0.31825 0.84614 0.73634 0.0
C580 C 0.28828 0.80293 0.72429 0.0
H581 H 0.3513 0.87239 0.76724 0.0
H582 H 0.33401 0.88631 0.72872 0.0
C583 C 0.26845 0.75137 0.73472 0.0
C584 C 0.87563 0.65298 0.75438 0.0
C585 C 0.84165 0.6835 0.76968 0.0
H586 H 0.8826 0.62211 0.72198 0.0
C587 C 0.78639 0.70681 0.76342 0.0
H588 H 0.91821 0.63422 0.75866 0.0
C589 C 0.76562 0.69954 0.74228 0.0
C590 C 0.79976 0.66895 0.72701 0.0
H591 H 0.75897 0.73034 0.77487 0.0
H592 H 0.72311 0.71825 0.73789 0.0
C593 C 0.85498 0.6458 0.73333 0.0
C594 C 0.38145 0.83921 0.26009 0.0
C595 C 0.32527 0.82232 0.26766 0.0
H596 H 0.44086 0.84367 0.23336 0.0
C597 C 0.28588 0.79427 0.2534 0.0
H598 H 0.41311 0.86062 0.27066 0.0
C599 C 0.30209 0.78417 0.23193 0.0
C600 C 0.35795 0.80207 0.22431 0.0
H601 H 0.24247 0.78033 0.25877 0.0
H602 H 0.27044 0.76325 0.22124 0.0
C603 C 0.39756 0.82926 0.23869 0.0
C604 C 0.17405 0.34258 0.73558 0.0
C605 C 0.20875 0.30265 0.72373 0.0
H606 H 0.13818 0.36584 0.76633 0.0
C607 C 0.23369 0.2536 0.73438 0.0
H608 H 0.15428 0.38078 0.72782 0.0
C609 C 0.22341 0.24432 0.75641 0.0
C610 C 0.18909 0.28463 0.76827 0.0
H611 H 0.26026 0.22185 0.7256 0.0
H612 H 0.24293 0.20606 0.76422 0.0
C613 C 0.16488 0.33403 0.75764 0.0
C614 C 0.68163 0.22364 0.26291 0.0
C615 C 0.68643 0.16473 0.27012 0.0
H616 H 0.66855 0.28207 0.236 0.0
C617 C 0.68332 0.11895 0.25485 0.0
H618 H 0.68376 0.26002 0.27425 0.0
C619 C 0.67493 0.1316 0.23297 0.0
C620 C 0.66896 0.19038 0.22577 0.0
H621 H 0.68694 0.0731 0.2598 0.0
H622 H 0.67231 0.09505 0.22173 0.0
C623 C 0.67274 0.23631 0.24099 0.0
C624 C 0.1422 0.29922 0.00677 0.0
C625 C 0.17886 0.33634 0.01911 0.0
H626 H 0.1119 0.27677 0.97492 0.0
C627 C 0.22024 0.37251 0.00863 0.0
H628 H 0.10935 0.27156 0.0145 0.0
C629 C 0.22174 0.37544 0.98623 0.0
C630 C 0.18187 0.34228 0.9738 0.0
H631 H 0.24933 0.4012 0.0178 0.0
H632 H 0.252 0.40627 0.97865 0.0
C633 C 0.14367 0.30221 0.98414 0.0
C634 C 0.74107 0.13195 0.4825 0.0
C635 C 0.71822 0.18738 0.47658 0.0
H636 H 0.75897 0.07225 0.50863 0.0
C637 C 0.7075 0.22992 0.49258 0.0
H638 H 0.74865 0.09812 0.47046 0.0
C639 C 0.7148 0.21559 0.51435 0.0
C640 C 0.73154 0.1581 0.52033 0.0
H641 H 0.68938 0.27278 0.4883 0.0
H642 H 0.70128 0.24736 0.52645 0.0
C643 C 0.747 0.11716 0.50429 0.0
C644 C 0.88402 0.70475 0.98557 0.0
C645 C 0.8305 0.6862 0.97624 0.0
H646 H 0.93424 0.71268 0.0149 0.0
C647 C 0.7826 0.6716 0.98962 0.0
H648 H 0.92181 0.71516 0.97552 0.0
C649 C 0.78934 0.67143 0.01202 0.0
C650 C 0.84434 0.68485 0.02126 0.0
H651 H 0.74109 0.65676 0.98271 0.0
H652 H 0.75314 0.65604 0.022 0.0
C653 C 0.89113 0.70337 0.00801 0.0
C654 C 0.32779 0.77502 0.48435 0.0
C655 C 0.31653 0.82817 0.47338 0.0
H656 H 0.33763 0.73161 0.51475 0.0
C657 C 0.29874 0.87809 0.48523 0.0
H658 H 0.34121 0.73577 0.47561 0.0
C659 C 0.29684 0.87576 0.5079 0.0
C660 C 0.31255 0.82343 0.51884 0.0
H661 H 0.29067 0.91985 0.47716 0.0
H662 H 0.28742 0.91583 0.5168 0.0
C663 C 0.32576 0.77266 0.50678 0.0
C664 C 0.64351 0.18882 0.00778 0.0
C665 C 0.67936 0.14725 0.01851 0.0
H666 H 0.61342 0.22157 0.97708 0.0
C667 C 0.71949 0.11323 0.00655 0.0
H668 H 0.61156 0.21493 0.01662 0.0
C669 C 0.72053 0.11698 0.98417 0.0
C670 C 0.68149 0.15486 0.97322 0.0
H671 H 0.74797 0.08122 0.01446 0.0
H672 H 0.74976 0.08776 0.97533 0.0
C673 C 0.64458 0.19262 0.98517 0.0
C674 C 0.8126 0.63468 0.51176 0.0
C675 C 0.80614 0.69075 0.52111 0.0
H676 H 0.83018 0.58644 0.48273 0.0
C677 C 0.80226 0.74096 0.50781 0.0
H678 H 0.81692 0.59556 0.52176 0.0
C679 C 0.80868 0.73558 0.48549 0.0
C680 C 0.82045 0.68012 0.47642 0.0
H681 H 0.79793 0.78465 0.5148 0.0
H682 H 0.80953 0.77515 0.4756 0.0
C683 C 0.82042 0.62949 0.48953 0.0
C684 C 0.2767 0.8102 0.00289 0.0
C685 C 0.32376 0.8157 0.01761 0.0
H686 H 0.24854 0.81765 0.9699 0.0
C687 C 0.38069 0.82839 0.00989 0.0
H688 H 0.23228 0.80118 0.00858 0.0
C689 C 0.38966 0.83901 0.98791 0.0
C690 C 0.34217 0.83563 0.9733 0.0
H691 H 0.41736 0.83403 0.02099 0.0
H692 H 0.43323 0.85217 0.98242 0.0
C693 C 0.286 0.81932 0.98082 0.0
C694 C 0.18608 0.27353 0.50601 0.0
C695 C 0.19765 0.32454 0.51817 0.0
H696 H 0.17441 0.23611 0.47469 0.0
C697 C 0.21446 0.37674 0.50741 0.0
H698 H 0.17342 0.23259 0.51387 0.0
C699 C 0.21513 0.37874 0.48473 0.0
C700 C 0.19888 0.32859 0.47269 0.0
H701 H 0.2227 0.41696 0.51639 0.0
H702 H 0.22389 0.42043 0.47672 0.0
C703 C 0.18668 0.27553 0.48357 0.0
C704 C 0.04101 0.48358 0.12279 0.0
C705 C 0.05084 0.44715 0.1408 0.0
H706 H 0.98695 0.54852 0.10775 0.0
C707 C 0.01286 0.45205 0.15868 0.0
H708 H 0.06942 0.48121 0.10875 0.0
C709 C 0.96466 0.49126 0.15812 0.0
C710 C 0.95355 0.52555 0.13958 0.0
H711 H 0.01893 0.42403 0.17271 0.0
H712 H 0.93575 0.49407 0.17199 0.0
C713 C 0.99293 0.52175 0.12211 0.0
C714 C 0.4772 0.97924 0.61355 0.0
C715 C 0.46051 0.95313 0.6332 0.0
H716 H 0.52966 0.04496 0.59778 0.0
C717 C 0.48425 0.97556 0.65252 0.0
H718 H 0.45919 0.96356 0.59838 0.0
C719 C 0.52373 0.02295 0.65222 0.0
C720 C 0.54083 0.04875 0.63257 0.0
H721 H 0.47177 0.95708 0.66799 0.0
H722 H 0.54184 0.03842 0.66739 0.0
C723 C 0.51699 0.02647 0.61323 0.0
C724 C 0.48074 0.99245 0.83309 0.0
C725 C 0.44212 0.98964 0.85092 0.0
H726 H 0.55954 0.03173 0.81971 0.0
C727 C 0.45134 0.02817 0.8683 0.0
H728 H 0.47488 0.96306 0.81947 0.0
C729 C 0.50011 0.06535 0.8687 0.0
C730 C 0.54079 0.06603 0.85156 0.0
H731 H 0.42225 0.02783 0.88218 0.0
H732 H 0.506 0.09356 0.88266 0.0
C733 C 0.5296 0.03094 0.83333 0.0
C734 C 0.01719 0.48773 0.34082 0.0
C735 C 0.04958 0.47278 0.35948 0.0
H736 H 0.95589 0.54765 0.32598 0.0
C737 C 0.04603 0.50986 0.37758 0.0
H738 H 0.01963 0.46058 0.32646 0.0
C739 C 0.01082 0.56047 0.37709 0.0
C740 C 0.97766 0.57505 0.35858 0.0
H741 H 0.07125 0.50047 0.39207 0.0
H742 H 0.00865 0.58745 0.39149 0.0
C743 C 0.98154 0.5383 0.34037 0.0
C744 C 0.9727 0.52743 0.87563 0.0
C745 C 0.94953 0.55099 0.85641 0.0
H746 H 0.03735 0.47297 0.89059 0.0
C747 C 0.97563 0.53469 0.83667 0.0
H748 H 0.95438 0.53915 0.89119 0.0
C749 C 0.02406 0.49572 0.8363 0.0
C750 C 0.04762 0.47325 0.85569 0.0
H751 H 0.95926 0.55263 0.82158 0.0
H752 H 0.04282 0.48311 0.82092 0.0
C753 C 0.02123 0.48981 0.87529 0.0
C754 C 0.51823 0.05613 0.38004 0.0
C755 C 0.54782 0.07366 0.36113 0.0
H756 H 0.45962 0.99421 0.39496 0.0
C757 C 0.54016 0.04001 0.34229 0.0
H758 H 0.5236 0.0806 0.39494 0.0
C759 C 0.50422 0.98977 0.34241 0.0
C760 C 0.47488 0.97208 0.36136 0.0
H761 H 0.56297 0.0516 0.32752 0.0
H762 H 0.49893 0.96524 0.32754 0.0
C763 C 0.48229 0.00591 0.38017 0.0
C764 C 0.47186 0.95011 0.11574 0.0
C765 C 0.44401 0.93333 0.13501 0.0
H766 H 0.54009 1.00027 0.10079 0.0
C767 C 0.46542 0.95613 0.15467 0.0
H768 H 0.45731 0.93274 0.10033 0.0
C769 C 0.5136 0.99505 0.15498 0.0
C770 C 0.54152 0.01148 0.13564 0.0
H771 H 0.44539 0.94347 0.16985 0.0
H772 H 0.52839 0.01277 0.17029 0.0
C773 C 0.52016 0.98826 0.11606 0.0
C774 C 0.0221 0.48161 0.61228 0.0
C775 C 0.03961 0.45432 0.63169 0.0
H776 H 0.96823 0.54818 0.59725 0.0
C777 C 0.01665 0.47565 0.65123 0.0
H778 H 0.0396 0.46674 0.59696 0.0
C779 C 0.97732 0.52297 0.65144 0.0
C780 C 0.95905 0.54994 0.63209 0.0
H781 H 0.02969 0.45645 0.66655 0.0
H782 H 0.96036 0.53757 0.66687 0.0
C783 C 0.98197 0.52887 0.61247 0.0
C784 C 0.46708 0.24382 0.10978 0.0
C785 C 0.50324 0.25902 0.12747 0.0
H786 H 0.37937 0.23727 0.09707 0.0
C787 C 0.47713 0.28842 0.14504 0.0
H788 H 0.48505 0.22021 0.09608 0.0
C789 C 0.41602 0.30001 0.14522 0.0
C790 C 0.37949 0.28091 0.12816 0.0
H791 H 0.5035 0.30046 0.15897 0.0
H792 H 0.39713 0.32238 0.15902 0.0
C793 C 0.40606 0.25363 0.11031 0.0
C794 C 0.72172 0.41028 0.60861 0.0
C795 C 0.69249 0.38183 0.62568 0.0
H796 H 0.75564 0.49119 0.59584 0.0
C797 C 0.66791 0.41715 0.64213 0.0
H798 H 0.74201 0.385 0.59581 0.0
C799 C 0.67789 0.47847 0.64266 0.0
C800 C 0.71035 0.50622 0.62621 0.0
H801 H 0.64303 0.39716 0.65513 0.0
H802 H 0.66228 0.50373 0.65635 0.0
C803 C 0.7297 0.47166 0.60869 0.0
C804 C 0.52345 0.70949 0.10739 0.0
C805 C 0.48649 0.68783 0.12387 0.0
H806 H 0.61194 0.72278 0.09631 0.0
C807 C 0.51196 0.6534 0.14035 0.0
H808 H 0.50567 0.73718 0.09465 0.0
C809 C 0.57329 0.64329 0.14085 0.0
C810 C 0.6108 0.6694 0.12539 0.0
H811 H 0.4848 0.63627 0.15331 0.0
H812 H 0.59152 0.61685 0.15383 0.0
C813 C 0.58479 0.70121 0.10834 0.0
C814 C 0.27504 0.5274 0.65223 0.0
C815 C 0.28755 0.49292 0.63389 0.0
H816 H 0.26848 0.61351 0.66581 0.0
C817 C 0.31359 0.52087 0.61596 0.0
H818 H 0.25431 0.50804 0.66631 0.0
C819 C 0.32387 0.5822 0.61605 0.0
C820 C 0.30686 0.61709 0.63381 0.0
H821 H 0.32373 0.49584 0.60155 0.0
H822 H 0.34366 0.60235 0.60197 0.0
C823 C 0.28351 0.58851 0.65202 0.0
C824 C 0.98588 0.19926 0.84745 0.0
C825 C 0.01256 0.22821 0.86505 0.0
H826 H 0.90525 0.1666 0.83338 0.0
C827 C 0.97666 0.24414 0.88267 0.0
H828 H 0.01201 0.1868 0.83355 0.0
C829 C 0.91546 0.23542 0.88205 0.0
C830 C 0.88834 0.2084 0.86421 0.0
H831 H 0.99506 0.26759 0.89636 0.0
H832 H 0.8891 0.25244 0.89522 0.0
C833 C 0.92455 0.18866 0.8472 0.0
C834 C 0.83548 0.94685 0.35057 0.0
C835 C 0.81703 0.91075 0.36783 0.0
H836 H 0.8351 0.03374 0.33645 0.0
C837 C 0.79051 0.93783 0.38574 0.0
H838 H 0.85761 0.92774 0.33677 0.0
C839 C 0.78014 0.99876 0.38601 0.0
C840 C 0.79428 0.03434 0.36806 0.0
H841 H 0.77486 0.91162 0.39919 0.0
H842 H 0.75701 0.01708 0.39976 0.0
C843 C 0.82355 0.00785 0.35055 0.0
C844 C 0.01597 0.83094 0.85035 0.0
C845 C 0.9913 0.80014 0.86791 0.0
H846 H 0.09467 0.86618 0.83583 0.0
C847 C 0.02852 0.78509 0.88534 0.0
H848 H 0.98871 0.84331 0.83666 0.0
C849 C 0.08942 0.79594 0.88441 0.0
C850 C 0.11466 0.82347 0.8663 0.0
H851 H 0.01151 0.76083 0.89907 0.0
H852 H 0.11708 0.77985 0.89744 0.0
C853 C 0.07687 0.84313 0.8497 0.0
C854 C 0.23341 0.10437 0.34017 0.0
C855 C 0.20736 0.13157 0.35816 0.0
H856 H 0.26633 0.02519 0.32597 0.0
C857 C 0.1902 0.09556 0.37563 0.0
H858 H 0.24852 0.13042 0.32661 0.0
C859 C 0.20217 0.03448 0.37559 0.0
C860 C 0.23037 0.00783 0.35785 0.0
H861 H 0.16869 0.11467 0.38955 0.0
H862 H 0.19134 0.00862 0.38977 0.0
C863 C 0.24384 0.04347 0.33986 0.0
C864 C 0.53024 0.76364 0.88114 0.0
C865 C 0.49308 0.74296 0.86449 0.0
H866 H 0.61846 0.773 0.89306 0.0
C867 C 0.51815 0.70816 0.84807 0.0
H868 H 0.51316 0.79152 0.89389 0.0
C869 C 0.57916 0.69583 0.84808 0.0
C870 C 0.61638 0.71928 0.86419 0.0
H871 H 0.49103 0.69201 0.8349 0.0
H872 H 0.59743 0.66911 0.83522 0.0
C873 C 0.591 0.75297 0.88073 0.0
C874 C 0.32086 0.53425 0.37573 0.0
C875 C 0.29298 0.50791 0.35781 0.0
H876 H 0.35404 0.6142 0.39002 0.0
C877 C 0.27973 0.54389 0.33987 0.0
H878 H 0.3315 0.50814 0.38989 0.0
C879 C 0.29015 0.60478 0.34037 0.0
C880 C 0.31591 0.63166 0.35852 0.0
H881 H 0.25748 0.52585 0.32585 0.0
H882 H 0.27527 0.63107 0.32681 0.0
C883 C 0.33278 0.59533 0.37597 0.0
C884 C 0.48842 0.33667 0.85117 0.0
C885 C 0.51238 0.29965 0.86726 0.0
H886 H 0.40984 0.37565 0.83754 0.0
C887 C 0.47356 0.27393 0.88232 0.0
H888 H 0.51696 0.3565 0.83915 0.0
C889 C 0.41243 0.28205 0.88061 0.0
C890 C 0.38818 0.31793 0.86431 0.0
H891 H 0.48991 0.24385 0.89459 0.0
H892 H 0.38391 0.25856 0.89173 0.0
C893 C 0.427 0.34657 0.84996 0.0
C894 C 0.69057 0.44738 0.34953 0.0
C895 C 0.71353 0.40957 0.36555 0.0
H896 H 0.68598 0.53624 0.33716 0.0
C897 C 0.74589 0.4344 0.38262 0.0
H898 H 0.66485 0.42961 0.33628 0.0
C899 C 0.7554 0.49523 0.38372 0.0
C900 C 0.73497 0.5331 0.36726 0.0
H901 H 0.76554 0.40652 0.39493 0.0
H902 H 0.78222 0.51189 0.39689 0.0
C903 C 0.70176 0.50854 0.35024 0.0
C904 C 0.02193 0.74243 0.15512 0.0
C905 C 0.98544 0.76502 0.1386 0.0
H906 H 0.10989 0.72586 0.16618 0.0
C907 C 0.01192 0.79729 0.1218 0.0
H908 H 0.00352 0.71615 0.16811 0.0
C909 C 0.07361 0.80466 0.12114 0.0
C910 C 0.11025 0.77823 0.13686 0.0
H911 H 0.98519 0.8149 0.10875 0.0
H912 H 0.09254 0.82987 0.10803 0.0
C913 C 0.0834 0.74796 0.15404 0.0
C914 C 0.21759 0.08931 0.65123 0.0
C915 C 0.19414 0.11754 0.63292 0.0
H916 H 0.2467 0.00916 0.66582 0.0
C917 C 0.1774 0.08232 0.61519 0.0
H918 H 0.2325 0.11459 0.665 0.0
C919 C 0.18771 0.02096 0.61529 0.0
C920 C 0.21354 0.99334 0.63339 0.0
H921 H 0.15768 0.10222 0.60101 0.0
H922 H 0.17765 0.99563 0.60093 0.0
C923 C 0.22606 0.02822 0.65163 0.0
C924 C 0.90172 0.21042 0.11152 0.0
C925 C 0.87787 0.17723 0.1286 0.0
H926 H 0.97847 0.24873 0.09721 0.0
C927 C 0.91674 0.15392 0.14421 0.0
H928 H 0.87308 0.23015 0.09946 0.0
C929 C 0.97772 0.16597 0.14326 0.0
C930 C 1.00125 0.2004 0.12637 0.0
H931 H 0.89989 0.12735 0.15738 0.0
H932 H 0.00614 0.14994 0.1561 0.0
C933 C 0.96252 0.22095 0.11021 0.0
C934 C 0.76925 0.9714 0.65931 0.0
C935 C 0.78855 0.00637 0.64186 0.0
H936 H 0.75623 0.88411 0.6718 0.0
C937 C 0.81943 0.97881 0.625 0.0
H938 H 0.74436 0.99092 0.67242 0.0
C939 C 0.82768 0.91735 0.62499 0.0
C940 C 0.80349 0.88184 0.64144 0.0
H941 H 0.83478 0.00442 0.61132 0.0
H942 H 0.85123 0.89754 0.61165 0.0
C943 C 0.77591 0.90984 0.65895 0.0
loop_
_geom_bond_atom_site_label_1
_geom_bond_atom_site_label_2
_geom_bond_distance
_geom_bond_site_symmetry_2
_ccdc_geom_bond_type
Co0 O3 1.970 . S
Co0 N17 1.989 . S
Co0 O25 1.967 . S
Co0 O32 1.920 . S
Co1 O4 1.966 . S
Co1 N10 2.022 . S
Co1 N18 1.993 . S
Co1 O26 1.941 . S
C2 O3 1.258 . S
C2 O4 1.263 . S
O3 Co0 1.970 . S
O3 C2 1.258 . S
O4 Co1 1.966 . S
O4 C2 1.263 . S
C5 O6 1.235 . S
C5 O32 1.289 . S
O6 C5 1.235 . S
C7 C9 1.400 . S
C7 N10 1.351 . S
C7 C12 1.501 . S
C8 C9 1.387 . S
C8 N11 1.341 . S
C9 C7 1.400 . S
C9 C8 1.387 . S
N10 Co1 2.022 . S
N10 C7 1.351 . S
N10 N11 1.365 . S
N11 C8 1.341 . S
N11 N10 1.365 . S
N11 H31 0.862 . S
C12 C7 1.501 . S
C12 H13 0.961 . S
C12 H14 0.961 . S
C12 H15 0.960 . S
H13 C12 0.961 . S
H14 C12 0.961 . S
H15 C12 0.960 . S
C16 N17 1.342 . S
C16 C20 1.401 . S
C16 C21 1.499 . S
N17 Co0 1.989 . S
N17 C16 1.342 . S
N17 N18 1.388 . S
N18 Co1 1.993 . S
N18 N17 1.388 . S
N18 C19 1.346 . S
C19 N18 1.346 . S
C19 C20 1.396 . S
C19 C29 1.510 . S
C20 C16 1.401 . S
C20 C19 1.396 . S
C21 C16 1.499 . S
C21 H22 0.959 . S
C21 H23 0.960 . S
C21 H24 0.961 . S
H22 C21 0.959 . S
H23 C21 0.960 . S
H24 C21 0.961 . S
O25 Co0 1.967 . S
O25 C33 1.258 . S
O26 Co1 1.941 . S
O26 C33 1.266 . S
H27 C29 0.959 . S
H28 C29 0.961 . S
C29 C19 1.510 . S
C29 H27 0.959 . S
C29 H28 0.961 . S
C29 H30 0.960 . S
H30 C29 0.960 . S
H31 N11 0.862 . S
O32 Co0 1.920 . S
O32 C5 1.289 . S
C33 O25 1.258 . S
C33 O26 1.266 . S
Co34 O37 1.970 . S
Co34 N51 1.989 . S
Co34 O59 1.967 . S
Co34 O66 1.920 . S
Co35 O38 1.966 . S
Co35 N44 2.022 . S
Co35 N52 1.993 . S
Co35 O60 1.941 . S
C36 O37 1.258 . S
C36 O38 1.263 . S
O37 Co34 1.970 . S
O37 C36 1.258 . S
O38 Co35 1.966 . S
O38 C36 1.263 . S
C39 O40 1.235 . S
C39 O66 1.289 . S
O40 C39 1.235 . S
C41 C43 1.400 . S
C41 N44 1.351 . S
C41 C46 1.501 . S
C42 C43 1.387 . S
C42 N45 1.341 . S
C43 C41 1.400 . S
C43 C42 1.387 . S
N44 Co35 2.022 . S
N44 C41 1.351 . S
N44 N45 1.365 . S
N45 C42 1.341 . S
N45 N44 1.365 . S
N45 H65 0.862 . S
C46 C41 1.501 . S
C46 H47 0.961 . S
C46 H48 0.961 . S
C46 H49 0.960 . S
H47 C46 0.961 . S
H48 C46 0.961 . S
H49 C46 0.960 . S
C50 N51 1.342 . S
C50 C54 1.401 . S
C50 C55 1.499 . S
N51 Co34 1.989 . S
N51 C50 1.342 . S
N51 N52 1.388 . S
N52 Co35 1.993 . S
N52 N51 1.388 . S
N52 C53 1.346 . S
C53 N52 1.346 . S
C53 C54 1.396 . S
C53 C63 1.510 . S
C54 C50 1.401 . S
C54 C53 1.396 . S
C55 C50 1.499 . S
C55 H56 0.959 . S
C55 H57 0.960 . S
C55 H58 0.961 . S
H56 C55 0.959 . S
H57 C55 0.960 . S
H58 C55 0.961 . S
O59 Co34 1.967 . S
O59 C67 1.258 . S
O60 Co35 1.941 . S
O60 C67 1.266 . S
H61 C63 0.959 . S
H62 C63 0.961 . S
C63 C53 1.510 . S
C63 H61 0.959 . S
C63 H62 0.961 . S
C63 H64 0.960 . S
H64 C63 0.960 . S
H65 N45 0.862 . S
O66 Co34 1.920 . S
O66 C39 1.289 . S
C67 O59 1.258 . S
C67 O60 1.266 . S
Co68 O71 1.970 . S
Co68 N85 1.989 . S
Co68 O93 1.967 . S
Co68 O100 1.920 . S
Co69 O72 1.966 . S
Co69 N78 2.022 . S
Co69 N86 1.993 . S
Co69 O94 1.941 . S
C70 O71 1.258 . S
C70 O72 1.263 . S
O71 Co68 1.970 . S
O71 C70 1.258 . S
O72 Co69 1.966 . S
O72 C70 1.263 . S
C73 O74 1.235 . S
C73 O100 1.289 . S
O74 C73 1.235 . S
C75 C77 1.400 . S
C75 N78 1.351 . S
C75 C80 1.501 . S
C76 C77 1.387 . S
C76 N79 1.341 . S
C77 C75 1.400 . S
C77 C76 1.387 . S
N78 Co69 2.022 . S
N78 C75 1.351 . S
N78 N79 1.365 . S
N79 C76 1.341 . S
N79 N78 1.365 . S
N79 H99 0.862 . S
C80 C75 1.501 . S
C80 H81 0.961 . S
C80 H82 0.961 . S
C80 H83 0.960 . S
H81 C80 0.961 . S
H82 C80 0.961 . S
H83 C80 0.960 . S
C84 N85 1.342 . S
C84 C88 1.401 . S
C84 C89 1.499 . S
N85 Co68 1.989 . S
N85 C84 1.342 . S
N85 N86 1.388 . S
N86 Co69 1.993 . S
N86 N85 1.388 . S
N86 C87 1.346 . S
C87 N86 1.346 . S
C87 C88 1.396 . S
C87 C97 1.510 . S
C88 C84 1.401 . S
C88 C87 1.396 . S
C89 C84 1.499 . S
C89 H90 0.959 . S
C89 H91 0.960 . S
C89 H92 0.961 . S
H90 C89 0.959 . S
H91 C89 0.960 . S
H92 C89 0.961 . S
O93 Co68 1.967 . S
O93 C101 1.258 . S
O94 Co69 1.941 . S
O94 C101 1.266 . S
H95 C97 0.959 . S
H96 C97 0.961 . S
C97 C87 1.510 . S
C97 H95 0.959 . S
C97 H96 0.961 . S
C97 H98 0.960 . S
H98 C97 0.960 . S
H99 N79 0.862 . S
O100 Co68 1.920 . S
O100 C73 1.289 . S
C101 O93 1.258 . S
C101 O94 1.266 . S
Co102 O105 1.970 . S
Co102 N119 1.989 . S
Co102 O127 1.967 . S
Co102 O134 1.920 . S
Co103 O106 1.966 . S
Co103 N112 2.022 . S
Co103 N120 1.993 . S
Co103 O128 1.941 . S
C104 O105 1.258 . S
C104 O106 1.263 . S
O105 Co102 1.970 . S
O105 C104 1.258 . S
O106 Co103 1.966 . S
O106 C104 1.263 . S
C107 O108 1.235 . S
C107 O134 1.289 . S
O108 C107 1.235 . S
C109 C111 1.400 . S
C109 N112 1.351 . S
C109 C114 1.501 . S
C110 C111 1.387 . S
C110 N113 1.341 . S
C111 C109 1.400 . S
C111 C110 1.387 . S
N112 Co103 2.022 . S
N112 C109 1.351 . S
N112 N113 1.365 . S
N113 C110 1.341 . S
N113 N112 1.365 . S
N113 H133 0.862 . S
C114 C109 1.501 . S
C114 H115 0.961 . S
C114 H116 0.961 . S
C114 H117 0.960 . S
H115 C114 0.961 . S
H116 C114 0.961 . S
H117 C114 0.960 . S
C118 N119 1.342 . S
C118 C122 1.401 . S
C118 C123 1.499 . S
N119 Co102 1.989 . S
N119 C118 1.342 . S
N119 N120 1.388 . S
N120 Co103 1.993 . S
N120 N119 1.388 . S
N120 C121 1.346 . S
C121 N120 1.346 . S
C121 C122 1.396 . S
C121 C131 1.510 . S
C122 C118 1.401 . S
C122 C121 1.396 . S
C123 C118 1.499 . S
C123 H124 0.959 . S
C123 H125 0.960 . S
C123 H126 0.961 . S
H124 C123 0.959 . S
H125 C123 0.960 . S
H126 C123 0.961 . S
O127 Co102 1.967 . S
O127 C135 1.258 . S
O128 Co103 1.941 . S
O128 C135 1.266 . S
H129 C131 0.959 . S
H130 C131 0.961 . S
C131 C121 1.510 . S
C131 H129 0.959 . S
C131 H130 0.961 . S
C131 H132 0.960 . S
H132 C131 0.960 . S
H133 N113 0.862 . S
O134 Co102 1.920 . S
O134 C107 1.289 . S
C135 O127 1.258 . S
C135 O128 1.266 . S
Co136 O139 1.970 . S
Co136 N153 1.989 . S
Co136 O161 1.967 . S
Co136 O168 1.920 . S
Co137 O140 1.966 . S
Co137 N146 2.022 . S
Co137 N154 1.993 . S
Co137 O162 1.941 . S
C138 O139 1.258 . S
C138 O140 1.263 . S
O139 Co136 1.970 . S
O139 C138 1.258 . S
O140 Co137 1.966 . S
O140 C138 1.263 . S
C141 O142 1.235 . S
C141 O168 1.289 . S
O142 C141 1.235 . S
C143 C145 1.400 . S
C143 N146 1.351 . S
C143 C148 1.501 . S
C144 C145 1.387 . S
C144 N147 1.341 . S
C145 C143 1.400 . S
C145 C144 1.387 . S
N146 Co137 2.022 . S
N146 C143 1.351 . S
N146 N147 1.365 . S
N147 C144 1.341 . S
N147 N146 1.365 . S
N147 H167 0.862 . S
C148 C143 1.501 . S
C148 H149 0.961 . S
C148 H150 0.961 . S
C148 H151 0.960 . S
H149 C148 0.961 . S
H150 C148 0.961 . S
H151 C148 0.960 . S
C152 N153 1.342 . S
C152 C156 1.401 . S
C152 C157 1.499 . S
N153 Co136 1.989 . S
N153 C152 1.342 . S
N153 N154 1.388 . S
N154 Co137 1.993 . S
N154 N153 1.388 . S
N154 C155 1.346 . S
C155 N154 1.346 . S
C155 C156 1.396 . S
C155 C165 1.510 . S
C156 C152 1.401 . S
C156 C155 1.396 . S
C157 C152 1.499 . S
C157 H158 0.959 . S
C157 H159 0.960 . S
C157 H160 0.961 . S
H158 C157 0.959 . S
H159 C157 0.960 . S
H160 C157 0.961 . S
O161 Co136 1.967 . S
O161 C169 1.258 . S
O162 Co137 1.941 . S
O162 C169 1.266 . S
H163 C165 0.959 . S
H164 C165 0.961 . S
C165 C155 1.510 . S
C165 H163 0.959 . S
C165 H164 0.961 . S
C165 H166 0.960 . S
H166 C165 0.960 . S
H167 N147 0.862 . S
O168 Co136 1.920 . S
O168 C141 1.289 . S
C169 O161 1.258 . S
C169 O162 1.266 . S
Co170 O173 1.970 . S
Co170 N187 1.989 . S
Co170 O195 1.967 . S
Co170 O202 1.920 . S
Co171 O174 1.966 . S
Co171 N180 2.022 . S
Co171 N188 1.993 . S
Co171 O196 1.941 . S
C172 O173 1.258 . S
C172 O174 1.263 . S
O173 Co170 1.970 . S
O173 C172 1.258 . S
O174 Co171 1.966 . S
O174 C172 1.263 . S
C175 O176 1.235 . S
C175 O202 1.289 . S
O176 C175 1.235 . S
C177 C179 1.400 . S
C177 N180 1.351 . S
C177 C182 1.501 . S
C178 C179 1.387 . S
C178 N181 1.341 . S
C179 C177 1.400 . S
C179 C178 1.387 . S
N180 Co171 2.022 . S
N180 C177 1.351 . S
N180 N181 1.365 . S
N181 C178 1.341 . S
N181 N180 1.365 . S
N181 H201 0.862 . S
C182 C177 1.501 . S
C182 H183 0.961 . S
C182 H184 0.961 . S
C182 H185 0.960 . S
H183 C182 0.961 . S
H184 C182 0.961 . S
H185 C182 0.960 . S
C186 N187 1.342 . S
C186 C190 1.401 . S
C186 C191 1.499 . S
N187 Co170 1.989 . S
N187 C186 1.342 . S
N187 N188 1.388 . S
N188 Co171 1.993 . S
N188 N187 1.388 . S
N188 C189 1.346 . S
C189 N188 1.346 . S
C189 C190 1.396 . S
C189 C199 1.510 . S
C190 C186 1.401 . S
C190 C189 1.396 . S
C191 C186 1.499 . S
C191 H192 0.959 . S
C191 H193 0.960 . S
C191 H194 0.961 . S
H192 C191 0.959 . S
H193 C191 0.960 . S
H194 C191 0.961 . S
O195 Co170 1.967 . S
O195 C203 1.258 . S
O196 Co171 1.941 . S
O196 C203 1.266 . S
H197 C199 0.959 . S
H198 C199 0.961 . S
C199 C189 1.510 . S
C199 H197 0.959 . S
C199 H198 0.961 . S
C199 H200 0.960 . S
H200 C199 0.960 . S
H201 N181 0.862 . S
O202 Co170 1.920 . S
O202 C175 1.289 . S
C203 O195 1.258 . S
C203 O196 1.266 . S
Co204 O207 1.970 . S
Co204 N221 1.989 . S
Co204 O229 1.967 . S
Co204 O236 1.920 . S
Co205 O208 1.966 . S
Co205 N214 2.022 . S
Co205 N222 1.993 . S
Co205 O230 1.941 . S
C206 O207 1.258 . S
C206 O208 1.263 . S
O207 Co204 1.970 . S
O207 C206 1.258 . S
O208 Co205 1.966 . S
O208 C206 1.263 . S
C209 O210 1.235 . S
C209 O236 1.289 . S
O210 C209 1.235 . S
C211 C213 1.400 . S
C211 N214 1.351 . S
C211 C216 1.501 . S
C212 C213 1.387 . S
C212 N215 1.341 . S
C213 C211 1.400 . S
C213 C212 1.387 . S
N214 Co205 2.022 . S
N214 C211 1.351 . S
N214 N215 1.365 . S
N215 C212 1.341 . S
N215 N214 1.365 . S
N215 H235 0.862 . S
C216 C211 1.501 . S
C216 H217 0.961 . S
C216 H218 0.961 . S
C216 H219 0.960 . S
H217 C216 0.961 . S
H218 C216 0.961 . S
H219 C216 0.960 . S
C220 N221 1.342 . S
C220 C224 1.401 . S
C220 C225 1.499 . S
N221 Co204 1.989 . S
N221 C220 1.342 . S
N221 N222 1.388 . S
N222 Co205 1.993 . S
N222 N221 1.388 . S
N222 C223 1.346 . S
C223 N222 1.346 . S
C223 C224 1.396 . S
C223 C233 1.510 . S
C224 C220 1.401 . S
C224 C223 1.396 . S
C225 C220 1.499 . S
C225 H226 0.959 . S
C225 H227 0.960 . S
C225 H228 0.961 . S
H226 C225 0.959 . S
H227 C225 0.960 . S
H228 C225 0.961 . S
O229 Co204 1.967 . S
O229 C237 1.258 . S
O230 Co205 1.941 . S
O230 C237 1.266 . S
H231 C233 0.959 . S
H232 C233 0.961 . S
C233 C223 1.510 . S
C233 H231 0.959 . S
C233 H232 0.961 . S
C233 H234 0.960 . S
H234 C233 0.960 . S
H235 N215 0.862 . S
O236 Co204 1.920 . S
O236 C209 1.289 . S
C237 O229 1.258 . S
C237 O230 1.266 . S
Co238 O241 1.970 . S
Co238 N255 1.989 . S
Co238 O263 1.967 . S
Co238 O270 1.920 . S
Co239 O242 1.966 . S
Co239 N248 2.022 . S
Co239 N256 1.993 . S
Co239 O264 1.941 . S
C240 O241 1.258 . S
C240 O242 1.263 . S
O241 Co238 1.970 . S
O241 C240 1.258 . S
O242 Co239 1.966 . S
O242 C240 1.263 . S
C243 O244 1.235 . S
C243 O270 1.289 . S
O244 C243 1.235 . S
C245 C247 1.400 . S
C245 N248 1.351 . S
C245 C250 1.501 . S
C246 C247 1.387 . S
C246 N249 1.341 . S
C247 C245 1.400 . S
C247 C246 1.387 . S
N248 Co239 2.022 . S
N248 C245 1.351 . S
N248 N249 1.365 . S
N249 C246 1.341 . S
N249 N248 1.365 . S
N249 H269 0.862 . S
C250 C245 1.501 . S
C250 H251 0.961 . S
C250 H252 0.961 . S
C250 H253 0.960 . S
H251 C250 0.961 . S
H252 C250 0.961 . S
H253 C250 0.960 . S
C254 N255 1.342 . S
C254 C258 1.401 . S
C254 C259 1.499 . S
N255 Co238 1.989 . S
N255 C254 1.342 . S
N255 N256 1.388 . S
N256 Co239 1.993 . S
N256 N255 1.388 . S
N256 C257 1.346 . S
C257 N256 1.346 . S
C257 C258 1.396 . S
C257 C267 1.510 . S
C258 C254 1.401 . S
C258 C257 1.396 . S
C259 C254 1.499 . S
C259 H260 0.959 . S
C259 H261 0.960 . S
C259 H262 0.961 . S
H260 C259 0.959 . S
H261 C259 0.960 . S
H262 C259 0.961 . S
O263 Co238 1.967 . S
O263 C271 1.258 . S
O264 Co239 1.941 . S
O264 C271 1.266 . S
H265 C267 0.959 . S
H266 C267 0.961 . S
C267 C257 1.510 . S
C267 H265 0.959 . S
C267 H266 0.961 . S
C267 H268 0.960 . S
H268 C267 0.960 . S
H269 N249 0.862 . S
O270 Co238 1.920 . S
O270 C243 1.289 . S
C271 O263 1.258 . S
C271 O264 1.266 . S
Co272 O275 1.970 . S
Co272 N289 1.989 . S
Co272 O297 1.967 . S
Co272 O304 1.920 . S
Co273 O276 1.966 . S
Co273 N282 2.022 . S
Co273 N290 1.993 . S
Co273 O298 1.941 . S
C274 O275 1.258 . S
C274 O276 1.263 . S
O275 Co272 1.970 . S
O275 C274 1.258 . S
O276 Co273 1.966 . S
O276 C274 1.263 . S
C277 O278 1.235 . S
C277 O304 1.289 . S
O278 C277 1.235 . S
C279 C281 1.400 . S
C279 N282 1.351 . S
C279 C284 1.501 . S
C280 C281 1.387 . S
C280 N283 1.341 . S
C281 C279 1.400 . S
C281 C280 1.387 . S
N282 Co273 2.022 . S
N282 C279 1.351 . S
N282 N283 1.365 . S
N283 C280 1.341 . S
N283 N282 1.365 . S
N283 H303 0.862 . S
C284 C279 1.501 . S
C284 H285 0.961 . S
C284 H286 0.961 . S
C284 H287 0.960 . S
H285 C284 0.961 . S
H286 C284 0.961 . S
H287 C284 0.960 . S
C288 N289 1.342 . S
C288 C292 1.401 . S
C288 C293 1.499 . S
N289 Co272 1.989 . S
N289 C288 1.342 . S
N289 N290 1.388 . S
N290 Co273 1.993 . S
N290 N289 1.388 . S
N290 C291 1.346 . S
C291 N290 1.346 . S
C291 C292 1.396 . S
C291 C301 1.510 . S
C292 C288 1.401 . S
C292 C291 1.396 . S
C293 C288 1.499 . S
C293 H294 0.959 . S
C293 H295 0.960 . S
C293 H296 0.961 . S
H294 C293 0.959 . S
H295 C293 0.960 . S
H296 C293 0.961 . S
O297 Co272 1.967 . S
O297 C305 1.258 . S
O298 Co273 1.941 . S
O298 C305 1.266 . S
H299 C301 0.959 . S
H300 C301 0.961 . S
C301 C291 1.510 . S
C301 H299 0.959 . S
C301 H300 0.961 . S
C301 H302 0.960 . S
H302 C301 0.960 . S
H303 N283 0.862 . S
O304 Co272 1.920 . S
O304 C277 1.289 . S
C305 O297 1.258 . S
C305 O298 1.266 . S
Co306 O309 1.970 . S
Co306 N323 1.989 . S
Co306 O331 1.967 . S
Co306 O338 1.920 . S
Co307 O310 1.966 . S
Co307 N316 2.022 . S
Co307 N324 1.993 . S
Co307 O332 1.941 . S
C308 O309 1.258 . S
C308 O310 1.263 . S
O309 Co306 1.970 . S
O309 C308 1.258 . S
O310 Co307 1.966 . S
O310 C308 1.263 . S
C311 O312 1.235 . S
C311 O338 1.289 . S
O312 C311 1.235 . S
C313 C315 1.400 . S
C313 N316 1.351 . S
C313 C318 1.501 . S
C314 C315 1.387 . S
C314 N317 1.341 . S
C315 C313 1.400 . S
C315 C314 1.387 . S
N316 Co307 2.022 . S
N316 C313 1.351 . S
N316 N317 1.365 . S
N317 C314 1.341 . S
N317 N316 1.365 . S
N317 H337 0.862 . S
C318 C313 1.501 . S
C318 H319 0.961 . S
C318 H320 0.961 . S
C318 H321 0.960 . S
H319 C318 0.961 . S
H320 C318 0.961 . S
H321 C318 0.960 . S
C322 N323 1.342 . S
C322 C326 1.401 . S
C322 C327 1.499 . S
N323 Co306 1.989 . S
N323 C322 1.342 . S
N323 N324 1.388 . S
N324 Co307 1.993 . S
N324 N323 1.388 . S
N324 C325 1.346 . S
C325 N324 1.346 . S
C325 C326 1.396 . S
C325 C335 1.510 . S
C326 C322 1.401 . S
C326 C325 1.396 . S
C327 C322 1.499 . S
C327 H328 0.959 . S
C327 H329 0.960 . S
C327 H330 0.961 . S
H328 C327 0.959 . S
H329 C327 0.960 . S
H330 C327 0.961 . S
O331 Co306 1.967 . S
O331 C339 1.258 . S
O332 Co307 1.941 . S
O332 C339 1.266 . S
H333 C335 0.959 . S
H334 C335 0.961 . S
C335 C325 1.510 . S
C335 H333 0.959 . S
C335 H334 0.961 . S
C335 H336 0.960 . S
H336 C335 0.960 . S
H337 N317 0.862 . S
O338 Co306 1.920 . S
O338 C311 1.289 . S
C339 O331 1.258 . S
C339 O332 1.266 . S
Co340 O343 1.970 . S
Co340 N357 1.989 . S
Co340 O365 1.967 . S
Co340 O372 1.920 . S
Co341 O344 1.966 . S
Co341 N350 2.022 . S
Co341 N358 1.993 . S
Co341 O366 1.941 . S
C342 O343 1.258 . S
C342 O344 1.263 . S
O343 Co340 1.970 . S
O343 C342 1.258 . S
O344 Co341 1.966 . S
O344 C342 1.263 . S
C345 O346 1.235 . S
C345 O372 1.289 . S
O346 C345 1.235 . S
C347 C349 1.400 . S
C347 N350 1.351 . S
C347 C352 1.501 . S
C348 C349 1.387 . S
C348 N351 1.341 . S
C349 C347 1.400 . S
C349 C348 1.387 . S
N350 Co341 2.022 . S
N350 C347 1.351 . S
N350 N351 1.365 . S
N351 C348 1.341 . S
N351 N350 1.365 . S
N351 H371 0.862 . S
C352 C347 1.501 . S
C352 H353 0.961 . S
C352 H354 0.961 . S
C352 H355 0.960 . S
H353 C352 0.961 . S
H354 C352 0.961 . S
H355 C352 0.960 . S
C356 N357 1.342 . S
C356 C360 1.401 . S
C356 C361 1.499 . S
N357 Co340 1.989 . S
N357 C356 1.342 . S
N357 N358 1.388 . S
N358 Co341 1.993 . S
N358 N357 1.388 . S
N358 C359 1.346 . S
C359 N358 1.346 . S
C359 C360 1.396 . S
C359 C369 1.510 . S
C360 C356 1.401 . S
C360 C359 1.396 . S
C361 C356 1.499 . S
C361 H362 0.959 . S
C361 H363 0.960 . S
C361 H364 0.961 . S
H362 C361 0.959 . S
H363 C361 0.960 . S
H364 C361 0.961 . S
O365 Co340 1.967 . S
O365 C373 1.258 . S
O366 Co341 1.941 . S
O366 C373 1.266 . S
H367 C369 0.959 . S
H368 C369 0.961 . S
C369 C359 1.510 . S
C369 H367 0.959 . S
C369 H368 0.961 . S
C369 H370 0.960 . S
H370 C369 0.960 . S
H371 N351 0.862 . S
O372 Co340 1.920 . S
O372 C345 1.289 . S
C373 O365 1.258 . S
C373 O366 1.266 . S
Co374 O377 1.970 . S
Co374 N391 1.989 . S
Co374 O399 1.967 . S
Co374 O406 1.920 . S
Co375 O378 1.966 . S
Co375 N384 2.022 . S
Co375 N392 1.993 . S
Co375 O400 1.941 . S
C376 O377 1.258 . S
C376 O378 1.263 . S
O377 Co374 1.970 . S
O377 C376 1.258 . S
O378 Co375 1.966 . S
O378 C376 1.263 . S
C379 O380 1.235 . S
C379 O406 1.289 . S
O380 C379 1.235 . S
C381 C383 1.400 . S
C381 N384 1.351 . S
C381 C386 1.501 . S
C382 C383 1.387 . S
C382 N385 1.341 . S
C383 C381 1.400 . S
C383 C382 1.387 . S
N384 Co375 2.022 . S
N384 C381 1.351 . S
N384 N385 1.365 . S
N385 C382 1.341 . S
N385 N384 1.365 . S
N385 H405 0.862 . S
C386 C381 1.501 . S
C386 H387 0.961 . S
C386 H388 0.961 . S
C386 H389 0.960 . S
H387 C386 0.961 . S
H388 C386 0.961 . S
H389 C386 0.960 . S
C390 N391 1.342 . S
C390 C394 1.401 . S
C390 C395 1.499 . S
N391 Co374 1.989 . S
N391 C390 1.342 . S
N391 N392 1.388 . S
N392 Co375 1.993 . S
N392 N391 1.388 . S
N392 C393 1.346 . S
C393 N392 1.346 . S
C393 C394 1.396 . S
C393 C403 1.510 . S
C394 C390 1.401 . S
C394 C393 1.396 . S
C395 C390 1.499 . S
C395 H396 0.959 . S
C395 H397 0.960 . S
C395 H398 0.961 . S
H396 C395 0.959 . S
H397 C395 0.960 . S
H398 C395 0.961 . S
O399 Co374 1.967 . S
O399 C407 1.258 . S
O400 Co375 1.941 . S
O400 C407 1.266 . S
H401 C403 0.959 . S
H402 C403 0.961 . S
C403 C393 1.510 . S
C403 H401 0.959 . S
C403 H402 0.961 . S
C403 H404 0.960 . S
H404 C403 0.960 . S
H405 N385 0.862 . S
O406 Co374 1.920 . S
O406 C379 1.289 . S
C407 O399 1.258 . S
C407 O400 1.266 . S
Co408 O411 1.970 . S
Co408 N425 1.989 . S
Co408 O433 1.967 . S
Co408 O440 1.920 . S
Co409 O412 1.966 . S
Co409 N418 2.022 . S
Co409 N426 1.993 . S
Co409 O434 1.941 . S
C410 O411 1.258 . S
C410 O412 1.263 . S
O411 Co408 1.970 . S
O411 C410 1.258 . S
O412 Co409 1.966 . S
O412 C410 1.263 . S
C413 O414 1.235 . S
C413 O440 1.289 . S
O414 C413 1.235 . S
C415 C417 1.400 . S
C415 N418 1.351 . S
C415 C420 1.501 . S
C416 C417 1.387 . S
C416 N419 1.341 . S
C417 C415 1.400 . S
C417 C416 1.387 . S
N418 Co409 2.022 . S
N418 C415 1.351 . S
N418 N419 1.365 . S
N419 C416 1.341 . S
N419 N418 1.365 . S
N419 H439 0.862 . S
C420 C415 1.501 . S
C420 H421 0.961 . S
C420 H422 0.961 . S
C420 H423 0.960 . S
H421 C420 0.961 . S
H422 C420 0.961 . S
H423 C420 0.960 . S
C424 N425 1.342 . S
C424 C428 1.401 . S
C424 C429 1.499 . S
N425 Co408 1.989 . S
N425 C424 1.342 . S
N425 N426 1.388 . S
N426 Co409 1.993 . S
N426 N425 1.388 . S
N426 C427 1.346 . S
C427 N426 1.346 . S
C427 C428 1.396 . S
C427 C437 1.510 . S
C428 C424 1.401 . S
C428 C427 1.396 . S
C429 C424 1.499 . S
C429 H430 0.959 . S
C429 H431 0.960 . S
C429 H432 0.961 . S
H430 C429 0.959 . S
H431 C429 0.960 . S
H432 C429 0.961 . S
O433 Co408 1.967 . S
O433 C441 1.258 . S
O434 Co409 1.941 . S
O434 C441 1.266 . S
H435 C437 0.959 . S
H436 C437 0.961 . S
C437 C427 1.510 . S
C437 H435 0.959 . S
C437 H436 0.961 . S
C437 H438 0.960 . S
H438 C437 0.960 . S
H439 N419 0.862 . S
O440 Co408 1.920 . S
O440 C413 1.289 . S
C441 O433 1.258 . S
C441 O434 1.266 . S
Co442 O445 1.970 . S
Co442 N459 1.989 . S
Co442 O467 1.967 . S
Co442 O474 1.920 . S
Co443 O446 1.966 . S
Co443 N452 2.022 . S
Co443 N460 1.993 . S
Co443 O468 1.941 . S
C444 O445 1.258 . S
C444 O446 1.263 . S
O445 Co442 1.970 . S
O445 C444 1.258 . S
O446 Co443 1.966 . S
O446 C444 1.263 . S
C447 O448 1.235 . S
C447 O474 1.289 . S
O448 C447 1.235 . S
C449 C451 1.400 . S
C449 N452 1.351 . S
C449 C454 1.501 . S
C450 C451 1.387 . S
C450 N453 1.341 . S
C451 C449 1.400 . S
C451 C450 1.387 . S
N452 Co443 2.022 . S
N452 C449 1.351 . S
N452 N453 1.365 . S
N453 C450 1.341 . S
N453 N452 1.365 . S
N453 H473 0.862 . S
C454 C449 1.501 . S
C454 H455 0.961 . S
C454 H456 0.961 . S
C454 H457 0.960 . S
H455 C454 0.961 . S
H456 C454 0.961 . S
H457 C454 0.960 . S
C458 N459 1.342 . S
C458 C462 1.401 . S
C458 C463 1.499 . S
N459 Co442 1.989 . S
N459 C458 1.342 . S
N459 N460 1.388 . S
N460 Co443 1.993 . S
N460 N459 1.388 . S
N460 C461 1.346 . S
C461 N460 1.346 . S
C461 C462 1.396 . S
C461 C471 1.510 . S
C462 C458 1.401 . S
C462 C461 1.396 . S
C463 C458 1.499 . S
C463 H464 0.959 . S
C463 H465 0.960 . S
C463 H466 0.961 . S
H464 C463 0.959 . S
H465 C463 0.960 . S
H466 C463 0.961 . S
O467 Co442 1.967 . S
O467 C475 1.258 . S
O468 Co443 1.941 . S
O468 C475 1.266 . S
H469 C471 0.959 . S
H470 C471 0.961 . S
C471 C461 1.510 . S
C471 H469 0.959 . S
C471 H470 0.961 . S
C471 H472 0.960 . S
H472 C471 0.960 . S
H473 N453 0.862 . S
O474 Co442 1.920 . S
O474 C447 1.289 . S
C475 O467 1.258 . S
C475 O468 1.266 . S
Co476 O479 1.970 . S
Co476 N493 1.989 . S
Co476 O501 1.967 . S
Co476 O508 1.920 . S
Co477 O480 1.966 . S
Co477 N486 2.022 . S
Co477 N494 1.993 . S
Co477 O502 1.941 . S
C478 O479 1.258 . S
C478 O480 1.263 . S
O479 Co476 1.970 . S
O479 C478 1.258 . S
O480 Co477 1.966 . S
O480 C478 1.263 . S
C481 O482 1.235 . S
C481 O508 1.289 . S
O482 C481 1.235 . S
C483 C485 1.400 . S
C483 N486 1.351 . S
C483 C488 1.501 . S
C484 C485 1.387 . S
C484 N487 1.341 . S
C485 C483 1.400 . S
C485 C484 1.387 . S
N486 Co477 2.022 . S
N486 C483 1.351 . S
N486 N487 1.365 . S
N487 C484 1.341 . S
N487 N486 1.365 . S
N487 H507 0.862 . S
C488 C483 1.501 . S
C488 H489 0.961 . S
C488 H490 0.961 . S
C488 H491 0.960 . S
H489 C488 0.961 . S
H490 C488 0.961 . S
H491 C488 0.960 . S
C492 N493 1.342 . S
C492 C496 1.401 . S
C492 C497 1.499 . S
N493 Co476 1.989 . S
N493 C492 1.342 . S
N493 N494 1.388 . S
N494 Co477 1.993 . S
N494 N493 1.388 . S
N494 C495 1.346 . S
C495 N494 1.346 . S
C495 C496 1.396 . S
C495 C505 1.510 . S
C496 C492 1.401 . S
C496 C495 1.396 . S
C497 C492 1.499 . S
C497 H498 0.959 . S
C497 H499 0.960 . S
C497 H500 0.961 . S
H498 C497 0.959 . S
H499 C497 0.960 . S
H500 C497 0.961 . S
O501 Co476 1.967 . S
O501 C509 1.258 . S
O502 Co477 1.941 . S
O502 C509 1.266 . S
H503 C505 0.959 . S
H504 C505 0.961 . S
C505 C495 1.510 . S
C505 H503 0.959 . S
C505 H504 0.961 . S
C505 H506 0.960 . S
H506 C505 0.960 . S
H507 N487 0.862 . S
O508 Co476 1.920 . S
O508 C481 1.289 . S
C509 O501 1.258 . S
C509 O502 1.266 . S
Co510 O513 1.970 . S
Co510 N527 1.989 . S
Co510 O535 1.967 . S
Co510 O542 1.920 . S
Co511 O514 1.966 . S
Co511 N520 2.022 . S
Co511 N528 1.993 . S
Co511 O536 1.941 . S
C512 O513 1.258 . S
C512 O514 1.263 . S
O513 Co510 1.970 . S
O513 C512 1.258 . S
O514 Co511 1.966 . S
O514 C512 1.263 . S
C515 O516 1.235 . S
C515 O542 1.289 . S
O516 C515 1.235 . S
C517 C519 1.400 . S
C517 N520 1.351 . S
C517 C522 1.501 . S
C518 C519 1.387 . S
C518 N521 1.341 . S
C519 C517 1.400 . S
C519 C518 1.387 . S
N520 Co511 2.022 . S
N520 C517 1.351 . S
N520 N521 1.365 . S
N521 C518 1.341 . S
N521 N520 1.365 . S
N521 H541 0.862 . S
C522 C517 1.501 . S
C522 H523 0.961 . S
C522 H524 0.961 . S
C522 H525 0.960 . S
H523 C522 0.961 . S
H524 C522 0.961 . S
H525 C522 0.960 . S
C526 N527 1.342 . S
C526 C530 1.401 . S
C526 C531 1.499 . S
N527 Co510 1.989 . S
N527 C526 1.342 . S
N527 N528 1.388 . S
N528 Co511 1.993 . S
N528 N527 1.388 . S
N528 C529 1.346 . S
C529 N528 1.346 . S
C529 C530 1.396 . S
C529 C539 1.510 . S
C530 C526 1.401 . S
C530 C529 1.396 . S
C531 C526 1.499 . S
C531 H532 0.959 . S
C531 H533 0.960 . S
C531 H534 0.961 . S
H532 C531 0.959 . S
H533 C531 0.960 . S
H534 C531 0.961 . S
O535 Co510 1.967 . S
O535 C543 1.258 . S
O536 Co511 1.941 . S
O536 C543 1.266 . S
H537 C539 0.959 . S
H538 C539 0.961 . S
C539 C529 1.510 . S
C539 H537 0.959 . S
C539 H538 0.961 . S
C539 H540 0.960 . S
H540 C539 0.960 . S
H541 N521 0.862 . S
O542 Co510 1.920 . S
O542 C515 1.289 . S
C543 O535 1.258 . S
C543 O536 1.266 . S
C544 C545 1.387 . S
C544 H548 0.950 . S
C544 C553 1.390 . S
C545 C544 1.387 . S
C545 C547 1.387 . S
H546 C553 0.950 . S
C547 C545 1.387 . S
C547 C549 1.390 . S
C547 H551 0.950 . S
H548 C544 0.950 . S
C549 C547 1.390 . S
C549 C550 1.387 . S
C549 H552 0.950 . S
C550 C549 1.387 . S
C550 C553 1.387 . S
H551 C547 0.950 . S
H552 C549 0.950 . S
C553 C544 1.390 . S
C553 H546 0.950 . S
C553 C550 1.387 . S
C554 C555 1.387 . S
C554 H558 0.950 . S
C554 C563 1.390 . S
C555 C554 1.387 . S
C555 C557 1.387 . S
H556 C563 0.950 . S
C557 C555 1.387 . S
C557 C559 1.390 . S
C557 H561 0.950 . S
H558 C554 0.950 . S
C559 C557 1.390 . S
C559 C560 1.387 . S
C559 H562 0.950 . S
C560 C559 1.387 . S
C560 C563 1.387 . S
H561 C557 0.950 . S
H562 C559 0.950 . S
C563 C554 1.390 . S
C563 H556 0.950 . S
C563 C560 1.387 . S
C564 C565 1.387 . S
C564 H568 0.950 . S
C564 C573 1.390 . S
C565 C564 1.387 . S
C565 C567 1.387 . S
H566 C573 0.950 . S
C567 C565 1.387 . S
C567 C569 1.390 . S
C567 H571 0.950 . S
H568 C564 0.950 . S
C569 C567 1.390 . S
C569 C570 1.387 . S
C569 H572 0.950 . S
C570 C569 1.387 . S
C570 C573 1.387 . S
H571 C567 0.950 . S
H572 C569 0.950 . S
C573 C564 1.390 . S
C573 H566 0.950 . S
C573 C570 1.387 . S
C574 C575 1.387 . S
C574 H578 0.950 . S
C574 C583 1.390 . S
C575 C574 1.387 . S
C575 C577 1.387 . S
H576 C583 0.950 . S
C577 C575 1.387 . S
C577 C579 1.390 . S
C577 H581 0.950 . S
H578 C574 0.950 . S
C579 C577 1.390 . S
C579 C580 1.387 . S
C579 H582 0.950 . S
C580 C579 1.387 . S
C580 C583 1.387 . S
H581 C577 0.950 . S
H582 C579 0.950 . S
C583 C574 1.390 . S
C583 H576 0.950 . S
C583 C580 1.387 . S
C584 C585 1.387 . S
C584 H588 0.950 . S
C584 C593 1.390 . S
C585 C584 1.387 . S
C585 C587 1.387 . S
H586 C593 0.950 . S
C587 C585 1.387 . S
C587 C589 1.390 . S
C587 H591 0.950 . S
H588 C584 0.950 . S
C589 C587 1.390 . S
C589 C590 1.387 . S
C589 H592 0.950 . S
C590 C589 1.387 . S
C590 C593 1.387 . S
H591 C587 0.950 . S
H592 C589 0.950 . S
C593 C584 1.390 . S
C593 H586 0.950 . S
C593 C590 1.387 . S
C594 C595 1.387 . S
C594 H598 0.950 . S
C594 C603 1.390 . S
C595 C594 1.387 . S
C595 C597 1.387 . S
H596 C603 0.950 . S
C597 C595 1.387 . S
C597 C599 1.390 . S
C597 H601 0.950 . S
H598 C594 0.950 . S
C599 C597 1.390 . S
C599 C600 1.387 . S
C599 H602 0.950 . S
C600 C599 1.387 . S
C600 C603 1.387 . S
H601 C597 0.950 . S
H602 C599 0.950 . S
C603 C594 1.390 . S
C603 H596 0.950 . S
C603 C600 1.387 . S
C604 C605 1.387 . S
C604 H608 0.950 . S
C604 C613 1.390 . S
C605 C604 1.387 . S
C605 C607 1.387 . S
H606 C613 0.950 . S
C607 C605 1.387 . S
C607 C609 1.390 . S
C607 H611 0.950 . S
H608 C604 0.950 . S
C609 C607 1.390 . S
C609 C610 1.387 . S
C609 H612 0.950 . S
C610 C609 1.387 . S
C610 C613 1.387 . S
H611 C607 0.950 . S
H612 C609 0.950 . S
C613 C604 1.390 . S
C613 H606 0.950 . S
C613 C610 1.387 . S
C614 C615 1.387 . S
C614 H618 0.950 . S
C614 C623 1.390 . S
C615 C614 1.387 . S
C615 C617 1.387 . S
H616 C623 0.950 . S
C617 C615 1.387 . S
C617 C619 1.390 . S
C617 H621 0.950 . S
H618 C614 0.950 . S
C619 C617 1.390 . S
C619 C620 1.387 . S
C619 H622 0.950 . S
C620 C619 1.387 . S
C620 C623 1.387 . S
H621 C617 0.950 . S
H622 C619 0.950 . S
C623 C614 1.390 . S
C623 H616 0.950 . S
C623 C620 1.387 . S
C624 C625 1.387 . S
C624 H628 0.950 . S
C624 C633 1.390 1_554 S
C625 C624 1.387 . S
C625 C627 1.387 . S
H626 C633 0.950 . S
C627 C625 1.387 . S
C627 C629 1.390 1_554 S
C627 H631 0.950 . S
H628 C624 0.950 . S
C629 C627 1.390 1_556 S
C629 C630 1.387 . S
C629 H632 0.950 . S
C630 C629 1.387 . S
C630 C633 1.387 . S
H631 C627 0.950 . S
H632 C629 0.950 . S
C633 C624 1.390 1_556 S
C633 H626 0.950 . S
C633 C630 1.387 . S
C634 C635 1.387 . S
C634 H638 0.950 . S
C634 C643 1.390 . S
C635 C634 1.387 . S
C635 C637 1.387 . S
H636 C643 0.950 . S
C637 C635 1.387 . S
C637 C639 1.390 . S
C637 H641 0.950 . S
H638 C634 0.950 . S
C639 C637 1.390 . S
C639 C640 1.387 . S
C639 H642 0.950 . S
C640 C639 1.387 . S
C640 C643 1.387 . S
H641 C637 0.950 . S
H642 C639 0.950 . S
C643 C634 1.390 . S
C643 H636 0.950 . S
C643 C640 1.387 . S
C644 C645 1.387 . S
C644 H648 0.950 . S
C644 C653 1.390 1_556 S
C645 C644 1.387 . S
C645 C647 1.387 . S
H646 C653 0.950 . S
C647 C645 1.387 . S
C647 C649 1.390 1_556 S
C647 H651 0.950 . S
H648 C644 0.950 . S
C649 C647 1.390 1_554 S
C649 C650 1.387 . S
C649 H652 0.950 . S
C650 C649 1.387 . S
C650 C653 1.387 . S
H651 C647 0.950 . S
H652 C649 0.950 . S
C653 C644 1.390 1_554 S
C653 H646 0.950 . S
C653 C650 1.387 . S
C654 C655 1.387 . S
C654 H658 0.950 . S
C654 C663 1.390 . S
C655 C654 1.387 . S
C655 C657 1.387 . S
H656 C663 0.950 . S
C657 C655 1.387 . S
C657 C659 1.390 . S
C657 H661 0.950 . S
H658 C654 0.950 . S
C659 C657 1.390 . S
C659 C660 1.387 . S
C659 H662 0.950 . S
C660 C659 1.387 . S
C660 C663 1.387 . S
H661 C657 0.950 . S
H662 C659 0.950 . S
C663 C654 1.390 . S
C663 H656 0.950 . S
C663 C660 1.387 . S
C664 C665 1.387 . S
C664 H668 0.950 . S
C664 C673 1.390 1_554 S
C665 C664 1.387 . S
C665 C667 1.387 . S
H666 C673 0.950 . S
C667 C665 1.387 . S
C667 C669 1.390 1_554 S
C667 H671 0.950 . S
H668 C664 0.950 . S
C669 C667 1.390 1_556 S
C669 C670 1.387 . S
C669 H672 0.950 . S
C670 C669 1.387 . S
C670 C673 1.387 . S
H671 C667 0.950 . S
H672 C669 0.950 . S
C673 C664 1.390 1_556 S
C673 H666 0.950 . S
C673 C670 1.387 . S
C674 C675 1.387 . S
C674 H678 0.950 . S
C674 C683 1.390 . S
C675 C674 1.387 . S
C675 C677 1.387 . S
H676 C683 0.950 . S
C677 C675 1.387 . S
C677 C679 1.390 . S
C677 H681 0.950 . S
H678 C674 0.950 . S
C679 C677 1.390 . S
C679 C680 1.387 . S
C679 H682 0.950 . S
C680 C679 1.387 . S
C680 C683 1.387 . S
H681 C677 0.950 . S
H682 C679 0.950 . S
C683 C674 1.390 . S
C683 H676 0.950 . S
C683 C680 1.387 . S
C684 C685 1.387 . S
C684 H688 0.950 . S
C684 C693 1.390 1_554 S
C685 C684 1.387 . S
C685 C687 1.387 . S
H686 C693 0.950 . S
C687 C685 1.387 . S
C687 C689 1.390 1_554 S
C687 H691 0.950 . S
H688 C684 0.950 . S
C689 C687 1.390 1_556 S
C689 C690 1.387 . S
C689 H692 0.950 . S
C690 C689 1.387 . S
C690 C693 1.387 . S
H691 C687 0.950 . S
H692 C689 0.950 . S
C693 C684 1.390 1_556 S
C693 H686 0.950 . S
C693 C690 1.387 . S
C694 C695 1.387 . S
C694 H698 0.950 . S
C694 C703 1.390 . S
C695 C694 1.387 . S
C695 C697 1.387 . S
H696 C703 0.950 . S
C697 C695 1.387 . S
C697 C699 1.390 . S
C697 H701 0.950 . S
H698 C694 0.950 . S
C699 C697 1.390 . S
C699 C700 1.387 . S
C699 H702 0.950 . S
C700 C699 1.387 . S
C700 C703 1.387 . S
H701 C697 0.950 . S
H702 C699 0.950 . S
C703 C694 1.390 . S
C703 H696 0.950 . S
C703 C700 1.387 . S
C704 C705 1.387 . S
C704 H708 0.950 . S
C704 C713 1.390 1_455 S
C705 C704 1.387 . S
C705 C707 1.387 . S
H706 C713 0.950 . S
C707 C705 1.387 . S
C707 C709 1.390 1_455 S
C707 H711 0.950 . S
H708 C704 0.950 . S
C709 C707 1.390 1_655 S
C709 C710 1.387 . S
C709 H712 0.950 . S
C710 C709 1.387 . S
C710 C713 1.387 . S
H711 C707 0.950 . S
H712 C709 0.950 . S
C713 C704 1.390 1_655 S
C713 H706 0.950 . S
C713 C710 1.387 . S
C714 C715 1.387 . S
C714 H718 0.950 . S
C714 C723 1.390 1_565 S
C715 C714 1.387 . S
C715 C717 1.387 . S
H716 C723 0.950 . S
C717 C715 1.387 . S
C717 C719 1.390 1_565 S
C717 H721 0.950 . S
H718 C714 0.950 . S
C719 C717 1.390 1_545 S
C719 C720 1.387 . S
C719 H722 0.950 . S
C720 C719 1.387 . S
C720 C723 1.387 . S
H721 C717 0.950 . S
H722 C719 0.950 . S
C723 C714 1.390 1_545 S
C723 H716 0.950 . S
C723 C720 1.387 . S
C724 C725 1.387 . S
C724 H728 0.950 . S
C724 C733 1.390 1_565 S
C725 C724 1.387 . S
C725 C727 1.387 . S
H726 C733 0.950 . S
C727 C725 1.387 . S
C727 C729 1.390 1_565 S
C727 H731 0.950 . S
H728 C724 0.950 . S
C729 C727 1.390 1_545 S
C729 C730 1.387 . S
C729 H732 0.950 . S
C730 C729 1.387 . S
C730 C733 1.387 . S
H731 C727 0.950 . S
H732 C729 0.950 . S
C733 C724 1.390 1_545 S
C733 H726 0.950 . S
C733 C730 1.387 . S
C734 C735 1.387 . S
C734 H738 0.950 . S
C734 C743 1.390 1_455 S
C735 C734 1.387 . S
C735 C737 1.387 . S
H736 C743 0.950 . S
C737 C735 1.387 . S
C737 C739 1.390 1_455 S
C737 H741 0.950 . S
H738 C734 0.950 . S
C739 C737 1.390 1_655 S
C739 C740 1.387 . S
C739 H742 0.950 . S
C740 C739 1.387 . S
C740 C743 1.387 . S
H741 C737 0.950 . S
H742 C739 0.950 . S
C743 C734 1.390 1_655 S
C743 H736 0.950 . S
C743 C740 1.387 . S
C744 C745 1.387 . S
C744 H748 0.950 . S
C744 C753 1.390 1_655 S
C745 C744 1.387 . S
C745 C747 1.387 . S
H746 C753 0.950 . S
C747 C745 1.387 . S
C747 C749 1.390 1_655 S
C747 H751 0.950 . S
H748 C744 0.950 . S
C749 C747 1.390 1_455 S
C749 C750 1.387 . S
C749 H752 0.950 . S
C750 C749 1.387 . S
C750 C753 1.387 . S
H751 C747 0.950 . S
H752 C749 0.950 . S
C753 C744 1.390 1_455 S
C753 H746 0.950 . S
C753 C750 1.387 . S
C754 C755 1.387 . S
C754 H758 0.950 . S
C754 C763 1.390 1_545 S
C755 C754 1.387 . S
C755 C757 1.387 . S
H756 C763 0.950 . S
C757 C755 1.387 . S
C757 C759 1.390 1_545 S
C757 H761 0.950 . S
H758 C754 0.950 . S
C759 C757 1.390 1_565 S
C759 C760 1.387 . S
C759 H762 0.950 . S
C760 C759 1.387 . S
C760 C763 1.387 . S
H761 C757 0.950 . S
H762 C759 0.950 . S
C763 C754 1.390 1_565 S
C763 H756 0.950 . S
C763 C760 1.387 . S
C764 C765 1.387 . S
C764 H768 0.950 . S
C764 C773 1.390 1_565 S
C765 C764 1.387 . S
C765 C767 1.387 . S
H766 C773 0.950 . S
C767 C765 1.387 . S
C767 C769 1.390 1_565 S
C767 H771 0.950 . S
H768 C764 0.950 . S
C769 C767 1.390 1_545 S
C769 C770 1.387 . S
C769 H772 0.950 . S
C770 C769 1.387 . S
C770 C773 1.387 . S
H771 C767 0.950 . S
H772 C769 0.950 . S
C773 C764 1.390 1_545 S
C773 H766 0.950 . S
C773 C770 1.387 . S
C774 C775 1.387 . S
C774 H778 0.950 . S
C774 C783 1.390 1_455 S
C775 C774 1.387 . S
C775 C777 1.387 . S
H776 C783 0.950 . S
C777 C775 1.387 . S
C777 C779 1.390 1_455 S
C777 H781 0.950 . S
H778 C774 0.950 . S
C779 C777 1.390 1_655 S
C779 C780 1.387 . S
C779 H782 0.950 . S
C780 C779 1.387 . S
C780 C783 1.387 . S
H781 C777 0.950 . S
H782 C779 0.950 . S
C783 C774 1.390 1_655 S
C783 H776 0.950 . S
C783 C780 1.387 . S
C784 C785 1.387 . S
C784 H788 0.950 . S
C784 C793 1.390 . S
C785 C784 1.387 . S
C785 C787 1.387 . S
H786 C793 0.950 . S
C787 C785 1.387 . S
C787 C789 1.390 . S
C787 H791 0.950 . S
H788 C784 0.950 . S
C789 C787 1.390 . S
C789 C790 1.387 . S
C789 H792 0.950 . S
C790 C789 1.387 . S
C790 C793 1.387 . S
H791 C787 0.950 . S
H792 C789 0.950 . S
C793 C784 1.390 . S
C793 H786 0.950 . S
C793 C790 1.387 . S
C794 C795 1.387 . S
C794 H798 0.950 . S
C794 C803 1.390 . S
C795 C794 1.387 . S
C795 C797 1.387 . S
H796 C803 0.950 . S
C797 C795 1.387 . S
C797 C799 1.390 . S
C797 H801 0.950 . S
H798 C794 0.950 . S
C799 C797 1.390 . S
C799 C800 1.387 . S
C799 H802 0.950 . S
C800 C799 1.387 . S
C800 C803 1.387 . S
H801 C797 0.950 . S
H802 C799 0.950 . S
C803 C794 1.390 . S
C803 H796 0.950 . S
C803 C800 1.387 . S
C804 C805 1.387 . S
C804 H808 0.950 . S
C804 C813 1.390 . S
C805 C804 1.387 . S
C805 C807 1.387 . S
H806 C813 0.950 . S
C807 C805 1.387 . S
C807 C809 1.390 . S
C807 H811 0.950 . S
H808 C804 0.950 . S
C809 C807 1.390 . S
C809 C810 1.387 . S
C809 H812 0.950 . S
C810 C809 1.387 . S
C810 C813 1.387 . S
H811 C807 0.950 . S
H812 C809 0.950 . S
C813 C804 1.390 . S
C813 H806 0.950 . S
C813 C810 1.387 . S
C814 C815 1.387 . S
C814 H818 0.950 . S
C814 C823 1.390 . S
C815 C814 1.387 . S
C815 C817 1.387 . S
H816 C823 0.950 . S
C817 C815 1.387 . S
C817 C819 1.390 . S
C817 H821 0.950 . S
H818 C814 0.950 . S
C819 C817 1.390 . S
C819 C820 1.387 . S
C819 H822 0.950 . S
C820 C819 1.387 . S
C820 C823 1.387 . S
H821 C817 0.950 . S
H822 C819 0.950 . S
C823 C814 1.390 . S
C823 H816 0.950 . S
C823 C820 1.387 . S
C824 C825 1.387 . S
C824 H828 0.950 . S
C824 C833 1.390 . S
C825 C824 1.387 . S
C825 C827 1.387 . S
H826 C833 0.950 . S
C827 C825 1.387 . S
C827 C829 1.390 . S
C827 H831 0.950 . S
H828 C824 0.950 . S
C829 C827 1.390 . S
C829 C830 1.387 . S
C829 H832 0.950 . S
C830 C829 1.387 . S
C830 C833 1.387 . S
H831 C827 0.950 . S
H832 C829 0.950 . S
C833 C824 1.390 . S
C833 H826 0.950 . S
C833 C830 1.387 . S
C834 C835 1.387 . S
C834 H838 0.950 . S
C834 C843 1.390 . S
C835 C834 1.387 . S
C835 C837 1.387 . S
H836 C843 0.950 . S
C837 C835 1.387 . S
C837 C839 1.390 . S
C837 H841 0.950 . S
H838 C834 0.950 . S
C839 C837 1.390 . S
C839 C840 1.387 . S
C839 H842 0.950 . S
C840 C839 1.387 . S
C840 C843 1.387 . S
H841 C837 0.950 . S
H842 C839 0.950 . S
C843 C834 1.390 . S
C843 H836 0.950 . S
C843 C840 1.387 . S
C844 C845 1.387 . S
C844 H848 0.950 . S
C844 C853 1.390 . S
C845 C844 1.387 . S
C845 C847 1.387 . S
H846 C853 0.950 . S
C847 C845 1.387 . S
C847 C849 1.390 . S
C847 H851 0.950 . S
H848 C844 0.950 . S
C849 C847 1.390 . S
C849 C850 1.387 . S
C849 H852 0.950 . S
C850 C849 1.387 . S
C850 C853 1.387 . S
H851 C847 0.950 . S
H852 C849 0.950 . S
C853 C844 1.390 . S
C853 H846 0.950 . S
C853 C850 1.387 . S
C854 C855 1.387 . S
C854 H858 0.950 . S
C854 C863 1.390 . S
C855 C854 1.387 . S
C855 C857 1.387 . S
H856 C863 0.950 . S
C857 C855 1.387 . S
C857 C859 1.390 . S
C857 H861 0.950 . S
H858 C854 0.950 . S
C859 C857 1.390 . S
C859 C860 1.387 . S
C859 H862 0.950 . S
C860 C859 1.387 . S
C860 C863 1.387 . S
H861 C857 0.950 . S
H862 C859 0.950 . S
C863 C854 1.390 . S
C863 H856 0.950 . S
C863 C860 1.387 . S
C864 C865 1.387 . S
C864 H868 0.950 . S
C864 C873 1.390 . S
C865 C864 1.387 . S
C865 C867 1.387 . S
H866 C873 0.950 . S
C867 C865 1.387 . S
C867 C869 1.390 . S
C867 H871 0.950 . S
H868 C864 0.950 . S
C869 C867 1.390 . S
C869 C870 1.387 . S
C869 H872 0.950 . S
C870 C869 1.387 . S
C870 C873 1.387 . S
H871 C867 0.950 . S
H872 C869 0.950 . S
C873 C864 1.390 . S
C873 H866 0.950 . S
C873 C870 1.387 . S
C874 C875 1.387 . S
C874 H878 0.950 . S
C874 C883 1.390 . S
C875 C874 1.387 . S
C875 C877 1.387 . S
H876 C883 0.950 . S
C877 C875 1.387 . S
C877 C879 1.390 . S
C877 H881 0.950 . S
H878 C874 0.950 . S
C879 C877 1.390 . S
C879 C880 1.387 . S
C879 H882 0.950 . S
C880 C879 1.387 . S
C880 C883 1.387 . S
H881 C877 0.950 . S
H882 C879 0.950 . S
C883 C874 1.390 . S
C883 H876 0.950 . S
C883 C880 1.387 . S
C884 C885 1.387 . S
C884 H888 0.950 . S
C884 C893 1.390 . S
C885 C884 1.387 . S
C885 C887 1.387 . S
H886 C893 0.950 . S
C887 C885 1.387 . S
C887 C889 1.390 . S
C887 H891 0.950 . S
H888 C884 0.950 . S
C889 C887 1.390 . S
C889 C890 1.387 . S
C889 H892 0.950 . S
C890 C889 1.387 . S
C890 C893 1.387 . S
H891 C887 0.950 . S
H892 C889 0.950 . S
C893 C884 1.390 . S
C893 H886 0.950 . S
C893 C890 1.387 . S
C894 C895 1.387 . S
C894 H898 0.950 . S
C894 C903 1.390 . S
C895 C894 1.387 . S
C895 C897 1.387 . S
H896 C903 0.950 . S
C897 C895 1.387 . S
C897 C899 1.390 . S
C897 H901 0.950 . S
H898 C894 0.950 . S
C899 C897 1.390 . S
C899 C900 1.387 . S
C899 H902 0.950 . S
C900 C899 1.387 . S
C900 C903 1.387 . S
H901 C897 0.950 . S
H902 C899 0.950 . S
C903 C894 1.390 . S
C903 H896 0.950 . S
C903 C900 1.387 . S
C904 C905 1.387 . S
C904 H908 0.950 . S
C904 C913 1.390 . S
C905 C904 1.387 . S
C905 C907 1.387 . S
H906 C913 0.950 . S
C907 C905 1.387 . S
C907 C909 1.390 . S
C907 H911 0.950 . S
H908 C904 0.950 . S
C909 C907 1.390 . S
C909 C910 1.387 . S
C909 H912 0.950 . S
C910 C909 1.387 . S
C910 C913 1.387 . S
H911 C907 0.950 . S
H912 C909 0.950 . S
C913 C904 1.390 . S
C913 H906 0.950 . S
C913 C910 1.387 . S
C914 C915 1.387 . S
C914 H918 0.950 . S
C914 C923 1.390 . S
C915 C914 1.387 . S
C915 C917 1.387 . S
H916 C923 0.950 . S
C917 C915 1.387 . S
C917 C919 1.390 . S
C917 H921 0.950 . S
H918 C914 0.950 . S
C919 C917 1.390 . S
C919 C920 1.387 . S
C919 H922 0.950 . S
C920 C919 1.387 . S
C920 C923 1.387 . S
H921 C917 0.950 . S
H922 C919 0.950 . S
C923 C914 1.390 . S
C923 H916 0.950 . S
C923 C920 1.387 . S
C924 C925 1.387 . S
C924 H928 0.950 . S
C924 C933 1.390 . S
C925 C924 1.387 . S
C925 C927 1.387 . S
H926 C933 0.950 . S
C927 C925 1.387 . S
C927 C929 1.390 . S
C927 H931 0.950 . S
H928 C924 0.950 . S
C929 C927 1.390 . S
C929 C930 1.387 . S
C929 H932 0.950 . S
C930 C929 1.387 . S
C930 C933 1.387 . S
H931 C927 0.950 . S
H932 C929 0.950 . S
C933 C924 1.390 . S
C933 H926 0.950 . S
C933 C930 1.387 . S
C934 C935 1.387 . S
C934 H938 0.950 . S
C934 C943 1.390 . S
C935 C934 1.387 . S
C935 C937 1.387 . S
H936 C943 0.950 . S
C937 C935 1.387 . S
C937 C939 1.390 . S
C937 H941 0.950 . S
H938 C934 0.950 . S
C939 C937 1.390 . S
C939 C940 1.387 . S
C939 H942 0.950 . S
C940 C939 1.387 . S
C940 C943 1.387 . S
H941 C937 0.950 . S
H942 C939 0.950 . S
C943 C934 1.390 . S
C943 H936 0.950 . S
C943 C940 1.387 . S
C545 C5 1.786 . S
C550 C243 1.787 . S
C555 C141 1.787 . S
C560 C39 1.786 . S
C565 C175 1.787 . S
C570 C73 1.787 . S
C575 C209 1.787 . S
C580 C107 1.787 . S
C585 C277 1.786 . S
C590 C515 1.786 . S
C595 C311 1.787 . S
C600 C413 1.786 . S
C605 C447 1.787 . S
C610 C345 1.787 . S
C615 C379 1.786 . S
C620 C481 1.786 . S
C625 C9 1.489 . S
C630 C349 1.486 . S
C635 C383 1.485 . S
C640 C43 1.489 . S
C645 C281 1.485 . S
C650 C77 1.489 . S
C655 C315 1.489 . S
C660 C111 1.486 . S
C665 C485 1.486 . S
C670 C145 1.488 . S
C675 C519 1.485 . S
C680 C179 1.489 . S
C685 C417 1.489 . S
C690 C213 1.486 . S
C695 C451 1.489 . S
C700 C247 1.485 . S
C705 C33 0.990 . S
C710 C101 0.990 . S
C715 C135 0.990 . S
C720 C67 0.990 . S
C725 C237 0.985 . S
C730 C169 0.985 . S
C735 C271 0.985 . S
C740 C203 0.985 . S
C745 C305 0.985 . S
C750 C373 0.985 . S
C755 C407 0.985 . S
C760 C339 0.985 . S
C765 C441 0.985 . S
C770 C509 0.985 . S
C775 C475 0.985 . S
C780 C543 0.985 . S
C785 C478 1.423 . S
C790 C20 1.438 . S
C795 C54 1.439 . S
C800 C512 1.423 . S
C805 C410 1.423 . S
C810 C88 1.438 . S
C815 C444 1.422 . S
C820 C122 1.439 . S
C825 C342 1.422 1_655 S
C830 C156 1.439 . S
C835 C190 1.439 . S
C840 C376 1.422 1_565 S
C845 C274 1.422 1_455 S
C850 C224 1.439 . S
C855 C258 1.439 . S
C860 C308 1.421 1_545 S
C865 C206 1.422 . S
C870 C292 1.439 . S
C875 C240 1.421 . S
C880 C326 1.439 . S
C885 C138 1.423 . S
C890 C360 1.438 . S
C895 C394 1.439 . S
C900 C172 1.423 . S
C905 C70 1.423 1_455 S
C910 C428 1.439 . S
C915 C462 1.439 . S
C920 C104 1.423 1_545 S
C925 C496 1.439 . S
C930 C2 1.422 1_655 S
C935 C36 1.423 1_565 S
C940 C530 1.439 . S
