# Generated by pormake.
# Topology unf, (4)-cn, num edge types: 1
# Building blocks:
#     Node 0, Type 0, BuildingBlock: AZAVOO_clean_sbu_0, # of connection points: 4
#     Node 1, Type 0, BuildingBlock: AZAVOO_clean_sbu_0, # of connection points: 4
#     Node 2, Type 0, BuildingBlock: AZAVOO_clean_sbu_0, # of connection points: 4
#     Node 3, Type 0, BuildingBlock: AZAVOO_clean_sbu_0, # of connection points: 4
#     Node 4, Type 0, BuildingBlock: AZAVOO_clean_sbu_0, # of connection points: 4
#     Node 5, Type 0, BuildingBlock: AZAVOO_clean_sbu_0, # of connection points: 4
#     Node 6, Type 0, BuildingBlock: AZAVOO_clean_sbu_0, # of connection points: 4
#     Node 7, Type 0, BuildingBlock: AZAVOO_clean_sbu_0, # of connection points: 4
#     Node 8, Type 0, BuildingBlock: AZAVOO_clean_sbu_0, # of connection points: 4
#     Node 9, Type 0, BuildingBlock: AZAVOO_clean_sbu_0, # of connection points: 4
#     Node 10, Type 0, BuildingBlock: AZAVOO_clean_sbu_0, # of connection points: 4
#     Node 11, Type 0, BuildingBlock: AZAVOO_clean_sbu_0, # of connection points: 4
#     Edge 12, Type (0, 0), BuildingBlock: KIFKEQ_clean_linker_1, # of connection points: 2
#     Edge 13, Type (0, 0), BuildingBlock: KIFKEQ_clean_linker_1, # of connection points: 2
#     Edge 14, Type (0, 0), BuildingBlock: KIFKEQ_clean_linker_1, # of connection points: 2
#     Edge 15, Type (0, 0), BuildingBlock: KIFKEQ_clean_linker_1, # of connection points: 2
#     Edge 16, Type (0, 0), BuildingBlock: KIFKEQ_clean_linker_1, # of connection points: 2
#     Edge 17, Type (0, 0), BuildingBlock: KIFKEQ_clean_linker_1, # of connection points: 2
#     Edge 18, Type (0, 0), BuildingBlock: KIFKEQ_clean_linker_1, # of connection points: 2
#     Edge 19, Type (0, 0), BuildingBlock: KIFKEQ_clean_linker_1, # of connection points: 2
#     Edge 20, Type (0, 0), BuildingBlock: KIFKEQ_clean_linker_1, # of connection points: 2
#     Edge 21, Type (0, 0), BuildingBlock: KIFKEQ_clean_linker_1, # of connection points: 2
#     Edge 22, Type (0, 0), BuildingBlock: KIFKEQ_clean_linker_1, # of connection points: 2
#     Edge 23, Type (0, 0), BuildingBlock: KIFKEQ_clean_linker_1, # of connection points: 2
#     Edge 24, Type (0, 0), BuildingBlock: KIFKEQ_clean_linker_1, # of connection points: 2
#     Edge 25, Type (0, 0), BuildingBlock: KIFKEQ_clean_linker_1, # of connection points: 2
#     Edge 26, Type (0, 0), BuildingBlock: KIFKEQ_clean_linker_1, # of connection points: 2
#     Edge 27, Type (0, 0), BuildingBlock: KIFKEQ_clean_linker_1, # of connection points: 2
#     Edge 28, Type (0, 0), BuildingBlock: KIFKEQ_clean_linker_1, # of connection points: 2
#     Edge 29, Type (0, 0), BuildingBlock: KIFKEQ_clean_linker_1, # of connection points: 2
#     Edge 30, Type (0, 0), BuildingBlock: KIFKEQ_clean_linker_1, # of connection points: 2
#     Edge 31, Type (0, 0), BuildingBlock: KIFKEQ_clean_linker_1, # of connection points: 2
#     Edge 32, Type (0, 0), BuildingBlock: KIFKEQ_clean_linker_1, # of connection points: 2
#     Edge 33, Type (0, 0), BuildingBlock: KIFKEQ_clean_linker_1, # of connection points: 2
#     Edge 34, Type (0, 0), BuildingBlock: KIFKEQ_clean_linker_1, # of connection points: 2
#     Edge 35, Type (0, 0), BuildingBlock: KIFKEQ_clean_linker_1, # of connection points: 2
# Relax obj value: 0.254
# Max RMSD: 0.199
# Mean RMSD: 0.199
data_MOF--net-unf--node1-AZAVOO_clean_sbu_0--edge1-KIFKEQ_clean_linker_1
_symmetry_space_group_name_H-M    P1
_symmetry_Int_Tables_number       1
_symmetry_cell_setting            triclinic
loop_
_symmetry_equiv_pos_as_xyz
'x, y, z'
_cell_length_a     37.662068
_cell_length_b     37.642276
_cell_length_c     38.054448
_cell_angle_alpha  89.847142
_cell_angle_beta   89.823248
_cell_angle_gamma 120.03843
loop_
_atom_site_label
_atom_site_type_symbol
_atom_site_fract_x
_atom_site_fract_y
_atom_site_fract_z
_atom_type_partial_charge
Mg0 Mg 0.12813 0.40553 0.09706 0.0
O1 O 0.06265 0.3544 0.08908 0.0
O2 O 0.05648 0.29251 0.08806 0.0
Mg3 Mg 0.12204 0.30478 0.09647 0.0
C4 C 0.04078 0.31561 0.08641 0.0
C5 C 0.10493 0.47039 0.07662 0.0
O6 O 0.1316 0.47475 0.05226 0.0
O7 O 0.12513 0.38983 0.15619 0.0
O8 O 0.12455 0.3303 0.15129 0.0
O9 O 0.14126 0.40805 0.03911 0.0
O10 O 0.15053 0.36851 0.07628 0.0
C11 C 0.12541 0.35886 0.16998 0.0
C12 C 0.15209 0.38091 0.04451 0.0
O13 O 0.09989 0.44715 0.10281 0.0
Mg14 Mg 0.60827 0.79323 0.04563 0.0
O15 O 0.66061 0.78061 0.05306 0.0
O16 O 0.71698 0.83494 0.07356 0.0
Mg17 Mg 0.69935 0.88517 0.07917 0.0
C18 C 0.69762 0.79764 0.06351 0.0
C19 C 0.55746 0.71053 0.00623 0.0
O20 O 0.56969 0.73719 0.98027 0.0
O21 O 0.59799 0.7885 0.10538 0.0
O22 O 0.65225 0.84792 0.12204 0.0
O23 O 0.63036 0.81916 0.99135 0.0
O24 O 0.65041 0.85623 0.03953 0.0
C25 C 0.61867 0.81496 0.12897 0.0
C26 C 0.65287 0.85446 0.00594 0.0
O27 O 0.56629 0.72379 0.03757 0.0
Mg28 Mg 0.24865 0.88408 0.00292 0.0
O29 O 0.25833 0.94879 -3e-05 0.0
O30 O 0.20233 0.95046 0.01637 0.0
Mg31 Mg 0.15417 0.88375 0.02938 0.0
C32 C 0.23943 0.96841 0.00557 0.0
C33 C 0.3336 0.93314 0.96753 0.0
O34 O 0.30854 0.93375 0.94391 0.0
O35 O 0.25153 0.88576 0.06359 0.0
O36 O 0.19193 0.88292 0.07571 0.0
O37 O 0.22266 0.87027 0.94788 0.0
O38 O 0.18583 0.86047 0.99586 0.0
C39 C 0.22471 0.88374 0.08553 0.0
C40 C 0.1875 0.85952 0.96221 0.0
O41 O 0.31852 0.91325 0.99602 0.0
Mg42 Mg 0.62434 0.82918 0.46828 0.0
O43 O 0.67649 0.89236 0.45293 0.0
O44 O 0.7295 0.89024 0.42881 0.0
Mg45 Mg 0.70944 0.82141 0.42823 0.0
C46 C 0.71202 0.91007 0.43885 0.0
C47 C 0.59932 0.88866 0.49997 0.0
O48 O 0.63603 0.90131 0.5129 0.0
O49 O 0.60695 0.81803 0.4099 0.0
O50 O 0.65797 0.80922 0.38965 0.0
O51 O 0.65208 0.8297 0.52088 0.0
O52 O 0.66602 0.80795 0.47189 0.0
C53 C 0.62434 0.80921 0.3852 0.0
C54 C 0.6723 0.815 0.50496 0.0
O55 O 0.58398 0.85789 0.47943 0.0
Mg56 Mg 0.15734 0.73938 0.40773 0.0
O57 O 0.09222 0.72773 0.40954 0.0
O58 O 0.08959 0.78538 0.41304 0.0
Mg59 Mg 0.15721 0.83703 0.41339 0.0
C60 C 0.07188 0.74635 0.41131 0.0
C61 C 0.13191 0.64859 0.41945 0.0
O62 O 0.15793 0.66705 0.44512 0.0
O63 O 0.16455 0.76041 0.34949 0.0
O64 O 0.16871 0.82109 0.35835 0.0
O65 O 0.16096 0.74119 0.4669 0.0
O66 O 0.17794 0.79556 0.43381 0.0
C67 C 0.17073 0.79516 0.33809 0.0
C68 C 0.17339 0.77994 0.46469 0.0
O69 O 0.12809 0.67056 0.39592 0.0
Mg70 Mg 0.26723 0.36749 0.47281 0.0
O71 O 0.27294 0.30941 0.4792 0.0
O72 O 0.21382 0.2512 0.46948 0.0
Mg73 Mg 0.17846 0.27502 0.438 0.0
C74 C 0.2511 0.2702 0.47977 0.0
C75 C 0.35032 0.40126 0.51292 0.0
O76 O 0.32471 0.37525 0.53631 0.0
O77 O 0.27734 0.3754 0.41264 0.0
O78 O 0.23942 0.30931 0.41026 0.0
O79 O 0.23341 0.35219 0.52456 0.0
O80 O 0.20232 0.32942 0.47364 0.0
C81 C 0.25319 0.34374 0.39514 0.0
C82 C 0.19987 0.32997 0.50732 0.0
O83 O 0.3361 0.40639 0.48424 0.0
Mg84 Mg 0.84103 0.57807 0.97106 0.0
O85 O 0.89268 0.63705 0.94764 0.0
O86 O 0.86893 0.67464 0.92255 0.0
Mg87 Mg 0.79866 0.63718 0.92908 0.0
C88 C 0.89852 0.66894 0.93092 0.0
C89 C 0.88258 0.53251 0.00648 0.0
O90 O 0.84797 0.51589 0.0243 0.0
O91 O 0.82478 0.55054 0.915 0.0
O92 O 0.79628 0.58656 0.89495 0.0
O93 O 0.84179 0.61208 0.02063 0.0
O94 O 0.80377 0.60404 0.97423 0.0
C95 C 0.80564 0.55853 0.89126 0.0
C96 C 0.81562 0.61928 0.00488 0.0
O97 O 0.88801 0.55746 0.98163 0.0
Mg98 Mg 0.42388 0.33507 0.89851 0.0
O99 O 0.36158 0.33422 0.89785 0.0
O100 O 0.31024 0.2719 0.88315 0.0
Mg101 Mg 0.34414 0.24763 0.85084 0.0
C102 C 0.32325 0.30793 0.89536 0.0
C103 C 0.44109 0.41147 0.94372 0.0
O104 O 0.41016 0.3822 0.96133 0.0
O105 O 0.44249 0.35332 0.84032 0.0
O106 O 0.37809 0.31323 0.83229 0.0
O107 O 0.40059 0.29502 0.9466 0.0
O108 O 0.39211 0.27001 0.89284 0.0
C109 C 0.41416 0.32762 0.82063 0.0
C110 C 0.38552 0.26345 0.92604 0.0
O111 O 0.45471 0.402 0.91679 0.0
Mg112 Mg 0.72403 0.195 0.91816 0.0
O113 O 0.7351 0.14101 0.91267 0.0
O114 O 0.80197 0.16236 0.90991 0.0
Mg115 Mg 0.83467 0.23288 0.90852 0.0
C116 C 0.76457 0.13361 0.91081 0.0
C117 C 0.63962 0.11891 0.93403 0.0
O118 O 0.66443 0.11426 0.95529 0.0
O119 O 0.73524 0.20873 0.85851 0.0
O120 O 0.80291 0.23269 0.85752 0.0
O121 O 0.73597 0.19602 0.97648 0.0
O122 O 0.78347 0.232 0.93674 0.0
C123 C 0.76963 0.22446 0.84202 0.0
C124 C 0.77411 0.22087 0.96888 0.0
O125 O 0.65463 0.14982 0.91337 0.0
Mg126 Mg 0.42685 0.094 0.61719 0.0
O127 O 0.36599 0.03114 0.61838 0.0
O128 O 0.31253 0.03965 0.63099 0.0
Mg129 Mg 0.34344 0.09965 0.66106 0.0
C130 C 0.32727 0.01747 0.6203 0.0
C131 C 0.45036 0.03828 0.5738 0.0
O132 O 0.42057 0.03637 0.55453 0.0
O133 O 0.44395 0.097 0.676 0.0
O134 O 0.3791 0.07138 0.68272 0.0
O135 O 0.40423 0.10757 0.56737 0.0
O136 O 0.39261 0.12528 0.61964 0.0
C137 C 0.41468 0.09414 0.69474 0.0
C138 C 0.3873 0.12374 0.58617 0.0
O139 O 0.46082 0.05996 0.60155 0.0
Mg140 Mg 0.85279 0.2743 0.5074 0.0
O141 O 0.90414 0.26554 0.52902 0.0
O142 O 0.87921 0.20256 0.55139 0.0
Mg143 Mg 0.80892 0.17056 0.54598 0.0
C144 C 0.90927 0.23809 0.54394 0.0
C145 C 0.90949 0.35565 0.46714 0.0
O146 O 0.89095 0.32983 0.44135 0.0
O147 O 0.83568 0.28288 0.56428 0.0
O148 O 0.80633 0.21722 0.58196 0.0
O149 O 0.8535 0.2423 0.45664 0.0
O150 O 0.81473 0.21127 0.50273 0.0
C151 C 0.81581 0.25443 0.58707 0.0
C152 C 0.82661 0.20866 0.47183 0.0
O153 O 0.89988 0.34278 0.49868 0.0
Mg154 Mg 0.74219 0.53747 0.55869 0.0
O155 O 0.75229 0.60144 0.56965 0.0
O156 O 0.81882 0.6464 0.57673 0.0
Mg157 Mg 0.85172 0.60881 0.57465 0.0
C158 C 0.78152 0.63788 0.57495 0.0
C159 C 0.65702 0.52878 0.54414 0.0
O160 O 0.68156 0.56111 0.52509 0.0
O161 O 0.74925 0.52824 0.61772 0.0
O162 O 0.81668 0.57153 0.62306 0.0
O163 O 0.75786 0.55531 0.50151 0.0
O164 O 0.80274 0.56242 0.54203 0.0
C165 C 0.78215 0.54473 0.63603 0.0
C166 C 0.7955 0.56787 0.51018 0.0
O167 O 0.67249 0.51152 0.56239 0.0
H168 H 0.15815 0.31161 0.04325 0.0
H169 H 0.18446 0.41861 0.98157 0.0
H170 H 0.19454 0.29354 0.00073 0.0
H171 H 0.2217 0.40059 0.93888 0.0
H172 H 0.2412 0.2567 0.90713 0.0
H173 H 0.19364 0.27284 0.93697 0.0
H174 H 0.28937 0.39941 0.9458 0.0
H175 H 0.33719 0.3835 0.91606 0.0
C176 C 0.17103 0.33092 0.02033 0.0
C177 C 0.16848 0.36662 0.01591 0.0
C178 C 0.19178 0.32042 0.99582 0.0
C179 C 0.21103 0.34573 0.96658 0.0
C180 C 0.20723 0.38065 0.96131 0.0
C181 C 0.18574 0.39078 0.98561 0.0
C182 C 0.25203 0.28813 0.9149 0.0
C183 C 0.29317 0.31872 0.90951 0.0
C184 C 0.22476 0.2973 0.93203 0.0
C185 C 0.23788 0.33731 0.94376 0.0
C186 C 0.27834 0.36837 0.93674 0.0
C187 C 0.30578 0.35915 0.91994 0.0
H188 H 0.7163 0.92769 0.02844 0.0
H189 H 0.64596 0.86688 0.93605 0.0
H190 H 0.74929 0.99262 -0.00295 0.0
H191 H 0.67909 0.93256 0.90445 0.0
H192 H 0.81528 0.10446 0.93053 0.0
H193 H 0.79486 0.03375 0.94646 0.0
H194 H 0.67069 0.99444 0.91465 0.0
H195 H 0.69088 0.06476 0.89878 0.0
C196 C 0.70845 0.92793 0.00121 0.0
C197 C 0.67817 0.89209 0.98492 0.0
C198 C 0.72766 0.96524 0.98307 0.0
C199 C 0.71666 0.96774 0.94832 0.0
C200 C 0.68801 0.93154 0.9313 0.0
C201 C 0.6692 0.89396 0.94935 0.0
C202 C 0.78388 0.08057 0.92607 0.0
C203 C 0.7546 0.09032 0.9138 0.0
C204 C 0.77218 0.04013 0.93533 0.0
C205 C 0.73113 0.00864 0.93203 0.0
C206 C 0.70261 0.01794 0.91724 0.0
C207 C 0.71415 0.05834 0.90839 0.0
H208 H 0.12516 0.87529 0.97165 0.0
H209 H 0.16361 0.80637 0.90732 0.0
H210 H 0.05492 0.83253 0.95198 0.0
H211 H 0.09306 0.76377 0.88669 0.0
H212 H 0.96525 0.65907 0.92889 0.0
H213 H 0.0367 0.71175 0.92296 0.0
H214 H 1.00091 0.80318 0.90705 0.0
H215 H 0.92871 0.75002 0.91335 0.0
C216 C 0.11869 0.85163 0.95254 0.0
C217 C 0.14944 0.84332 0.94173 0.0
C218 C 0.07847 0.82739 0.94087 0.0
C219 C 0.06823 0.79419 0.91831 0.0
C220 C 0.09994 0.78874 0.90455 0.0
C221 C 0.14035 0.81331 0.91608 0.0
C222 C 0.97245 0.69028 0.9236 0.0
C223 C 0.9413 0.70046 0.92223 0.0
C224 C 0.01351 0.72048 0.91972 0.0
C225 C 0.02456 0.76173 0.91459 0.0
C226 C 0.99332 0.77166 0.91119 0.0
C227 C 0.95202 0.74124 0.91477 0.0
H228 H 0.70698 0.63107 0.58718 0.0
H229 H 0.83339 0.72024 0.56388 0.0
H230 H 0.68796 0.68345 0.57872 0.0
H231 H 0.81414 0.77285 0.55539 0.0
H232 H 0.74028 0.81445 0.48074 0.0
H233 H 0.77257 0.77865 0.50665 0.0
H234 H 0.6953 0.75054 0.59853 0.0
H235 H 0.66265 0.78646 0.57225 0.0
C236 C 0.73088 0.66208 0.58096 0.0
C237 C 0.77164 0.67136 0.5758 0.0
C238 C 0.72 0.69222 0.57641 0.0
C239 C 0.74953 0.73225 0.56625 0.0
C240 C 0.79071 0.74217 0.56303 0.0
C241 C 0.80172 0.71207 0.56802 0.0
C242 C 0.73069 0.80137 0.50672 0.0
C243 C 0.69842 0.80259 0.52416 0.0
C244 C 0.74952 0.78118 0.52178 0.0
C245 C 0.73615 0.76136 0.55447 0.0
C246 C 0.70596 0.76523 0.57313 0.0
C247 C 0.68749 0.78601 0.55821 0.0
H248 H 0.20839 0.77303 0.52497 0.0
H249 H 0.16476 0.84684 0.47489 0.0
H250 H 0.24028 0.8249 0.57107 0.0
H251 H 0.19667 0.89848 0.52022 0.0
H252 H 0.24388 0.98019 0.61278 0.0
H253 H 0.19889 0.91569 0.58318 0.0
H254 H 0.30126 0.89592 0.5673 0.0
H255 H 0.34628 0.96011 0.5971 0.0
C256 C 0.20477 0.79982 0.52429 0.0
C257 C 0.18478 0.80633 0.49602 0.0
C258 C 0.22324 0.82959 0.55047 0.0
C259 C 0.22134 0.86595 0.54906 0.0
C260 C 0.19858 0.87078 0.52219 0.0
C261 C 0.18067 0.84137 0.4959 0.0
C262 C 0.25672 0.9618 0.60356 0.0
C263 C 0.29887 0.97571 0.60689 0.0
C264 C 0.23091 0.92485 0.58655 0.0
C265 C 0.24659 0.90089 0.5727 0.0
C266 C 0.28816 0.91349 0.57797 0.0
C267 C 0.31403 0.95052 0.59481 0.0
H268 H 0.93768 0.18426 0.55273 0.0
H269 H 0.97723 0.31361 0.5501 0.0
H270 H 0.00942 0.20102 0.55473 0.0
H271 H 0.04844 0.33016 0.55213 0.0
H272 H 0.13285 0.25853 0.48736 0.0
H273 H 0.06251 0.232 0.50681 0.0
H274 H 0.10409 0.32652 0.58578 0.0
H275 H 0.17506 0.35327 0.56602 0.0
C276 C 0.96158 0.2162 0.55338 0.0
C277 C 0.95183 0.2476 0.55076 0.0
C278 C 0.0026 0.22577 0.55445 0.0
C279 C 0.03453 0.26689 0.55349 0.0
C280 C 0.02458 0.29821 0.55329 0.0
C281 C 0.98373 0.28868 0.55176 0.0
C282 C 0.12718 0.27314 0.50934 0.0
C283 C 0.15934 0.30838 0.52476 0.0
C284 C 0.08683 0.25767 0.52076 0.0
C285 C 0.07772 0.27744 0.54759 0.0
C286 C 0.11023 0.31088 0.56483 0.0
C287 C 0.15082 0.32602 0.55369 0.0
H288 H 0.66041 0.71478 0.06697 0.0
H289 H 0.78027 0.82353 0.06094 0.0
H290 H 0.69127 0.67202 0.05998 0.0
H291 H 0.81134 0.78012 0.05305 0.0
H292 H 0.84885 0.67722 0.05779 0.0
H293 H 0.82266 0.72182 0.07884 0.0
H294 H 0.7226 0.66463 0.00525 0.0
H295 H 0.74791 0.62068 0.98489 0.0
C296 C 0.69347 0.7296 0.06437 0.0
C297 C 0.71784 0.77257 0.06372 0.0
C298 C 0.71114 0.70505 0.06044 0.0
C299 C 0.75362 0.72275 0.05533 0.0
C300 C 0.7785 0.76568 0.05701 0.0
C301 C 0.76072 0.79047 0.0613 0.0
C302 C 0.82111 0.67416 0.04649 0.0
C303 C 0.80049 0.64555 0.01967 0.0
C304 C 0.80632 0.69975 0.05833 0.0
C305 C 0.77039 0.6964 0.04389 0.0
C306 C 0.74994 0.66753 0.01734 0.0
C307 C 0.76472 0.64252 0.00545 0.0
H308 H 0.3604 0.19325 0.88931 0.0
H309 H 0.35626 0.23743 0.99312 0.0
H310 H 0.32457 0.12307 0.91115 0.0
H311 H 0.31977 0.16635 0.01499 0.0
H312 H 0.21512 0.02448 0.02107 0.0
H313 H 0.24952 0.09712 0.00401 0.0
H314 H 0.34638 0.08528 0.95469 0.0
H315 H 0.31268 0.01335 0.97166 0.0
C316 C 0.35156 0.188 0.91678 0.0
C317 C 0.36137 0.22096 0.93955 0.0
C318 C 0.33121 0.14776 0.92928 0.0
C319 C 0.31979 0.1394 0.96478 0.0
C320 C 0.32827 0.17209 0.98747 0.0
C321 C 0.34921 0.21265 0.975 0.0
C322 C 0.2439 0.03748 0.00681 0.0
C323 C 0.26095 0.01296 -0.00248 0.0
C324 C 0.26361 0.07904 -0.00277 0.0
C325 C 0.30035 0.09657 0.97781 0.0
C326 C 0.31782 0.07236 0.96931 0.0
C327 C 0.29851 0.03115 0.97918 0.0
H328 H 0.98464 0.23663 0.06699 0.0
H329 H 0.99638 0.35462 0.08939 0.0
H330 H 0.91454 0.21165 0.04642 0.0
H331 H 0.92672 0.32951 0.06919 0.0
H332 H 0.84408 0.29336 0.96998 0.0
H333 H 0.90401 0.3135 0.00631 0.0
H334 H 0.84062 0.19746 0.06142 0.0
H335 H 0.77961 0.17728 0.02476 0.0
C336 C 0.97207 0.25693 0.06824 0.0
C337 C 0.99645 0.29788 0.07914 0.0
C338 C 0.93185 0.24252 0.0567 0.0
C339 C 0.91545 0.26883 0.05587 0.0
C340 C 0.93882 0.30875 0.06912 0.0
C341 C 0.9788 0.32311 0.08061 0.0
C342 C 0.8426 0.27241 0.99029 0.0
C343 C 0.80731 0.23387 0.9947 0.0
C344 C 0.87685 0.28401 0.01121 0.0
C345 C 0.87692 0.2571 0.03678 0.0
C346 C 0.84127 0.21874 0.04187 0.0
C347 C 0.80641 0.20736 0.02118 0.0
H348 H 0.35986 0.16998 0.61818 0.0
H349 H 0.36033 0.11614 0.51812 0.0
H350 H 0.32512 0.20307 0.59151 0.0
H351 H 0.32489 0.14923 0.49148 0.0
H352 H 0.2239 0.18786 0.47275 0.0
H353 H 0.25454 0.14931 0.49776 0.0
H354 H 0.35023 0.26049 0.54432 0.0
H355 H 0.32033 0.29904 0.51924 0.0
C356 C 0.35216 0.16481 0.59056 0.0
C357 C 0.36309 0.14064 0.57019 0.0
C358 C 0.33241 0.18394 0.5753 0.0
C359 C 0.32265 0.17892 0.53943 0.0
C360 C 0.33204 0.15347 0.51924 0.0
C361 C 0.35241 0.13471 0.53444 0.0
C362 C 0.25152 0.20405 0.48827 0.0
C363 C 0.26957 0.24651 0.49408 0.0
C364 C 0.26909 0.18202 0.5024 0.0
C365 C 0.30454 0.20194 0.5231 0.0
C366 C 0.32264 0.24433 0.52874 0.0
C367 C 0.30556 0.26641 0.51422 0.0
H368 H 0.86542 0.18077 0.42697 0.0
H369 H 0.75265 0.14333 0.4838 0.0
H370 H 0.83985 0.1087 0.41013 0.0
H371 H 0.7278 0.0728 0.46789 0.0
H372 H 0.6747 0.95287 0.42161 0.0
H373 H 0.70438 0.02684 0.41899 0.0
H374 H 0.82392 0.04288 0.44144 0.0
H375 H 0.79409 0.96796 0.4424 0.0
C376 C 0.835 0.15735 0.4352 0.0
C377 C 0.81096 0.16749 0.45665 0.0
C378 C 0.82055 0.1162 0.4259 0.0
C379 C 0.78168 0.08502 0.4375 0.0
C380 C 0.75747 0.0959 0.45786 0.0
C381 C 0.77188 0.13644 0.46725 0.0
C382 C 0.70745 0.97215 0.42545 0.0
C383 C 0.732 0.95479 0.43296 0.0
C384 C 0.72448 0.01455 0.42393 0.0
C385 C 0.76635 0.04078 0.43079 0.0
C386 C 0.79157 0.02349 0.43595 0.0
C387 C 0.77451 0.98069 0.43677 0.0
H388 H 0.01684 0.77001 0.43256 0.0
H389 H 0.02433 0.66506 0.39663 0.0
H390 H 0.94444 0.72467 0.44767 0.0
H391 H 0.95244 0.62033 0.41147 0.0
H392 H 0.86369 0.56239 0.50718 0.0
H393 H 0.9262 0.6053 0.47415 0.0
H394 H 0.87014 0.66952 0.42682 0.0
H395 H 0.80643 0.62541 0.45999 0.0
C396 C 0.00286 0.73754 0.42703 0.0
C397 C 0.02661 0.72106 0.41414 0.0
C398 C 0.96136 0.71164 0.4355 0.0
C399 C 0.94307 0.66897 0.43115 0.0
C400 C 0.96595 0.65306 0.41553 0.0
C401 C 0.0072 0.67876 0.40714 0.0
C402 C 0.86437 0.58509 0.48918 0.0
C403 C 0.83033 0.59056 0.48596 0.0
C404 C 0.90009 0.60956 0.47015 0.0
C405 C 0.90297 0.64063 0.44779 0.0
C406 C 0.8686 0.64569 0.44385 0.0
C407 C 0.83222 0.62038 0.46254 0.0
H408 H 0.2786 0.4086 0.34949 0.0
H409 H 0.17597 0.2886 0.37328 0.0
H410 H 0.24146 0.41397 0.29905 0.0
H411 H 0.1379 0.29502 0.32501 0.0
H412 H 0.10906 0.29188 0.20874 0.0
H413 H 0.13718 0.29036 0.2651 0.0
H414 H 0.18744 0.42135 0.27518 0.0
H415 H 0.16067 0.42301 0.21697 0.0
C416 C 0.24792 0.38364 0.34422 0.0
C417 C 0.23053 0.34798 0.36512 0.0
C418 C 0.22635 0.38688 0.31556 0.0
C419 C 0.18659 0.3548 0.30756 0.0
C420 C 0.16876 0.31995 0.32955 0.0
C421 C 0.19062 0.31632 0.35752 0.0
C422 C 0.12543 0.32035 0.22316 0.0
C423 C 0.133 0.35764 0.20808 0.0
C424 C 0.14147 0.31947 0.25586 0.0
C425 C 0.16515 0.35581 0.27488 0.0
C426 C 0.17014 0.39285 0.261 0.0
C427 C 0.15421 0.39375 0.22788 0.0
H428 H 0.57352 0.74173 0.16413 0.0
H429 H 0.63161 0.87304 0.17704 0.0
H430 H 0.5597 0.73252 0.2276 0.0
H431 H 0.61776 0.86393 0.23978 0.0
H432 H 0.58169 0.84075 0.3517 0.0
H433 H 0.56559 0.83539 0.28881 0.0
H434 H 0.61195 0.75193 0.27586 0.0
H435 H 0.62804 0.75741 0.33812 0.0
C436 C 0.58244 0.76847 0.18036 0.0
C437 C 0.60424 0.8081 0.16583 0.0
C438 C 0.57458 0.76324 0.2166 0.0
C439 C 0.58772 0.79753 0.23864 0.0
C440 C 0.60682 0.83689 0.22353 0.0
C441 C 0.61521 0.84211 0.1876 0.0
C442 C 0.5873 0.82042 0.33551 0.0
C443 C 0.60669 0.80002 0.34956 0.0
C444 C 0.57822 0.81742 0.29958 0.0
C445 C 0.58777 0.79344 0.27741 0.0
C446 C 0.60389 0.77036 0.29224 0.0
C447 C 0.6135 0.77384 0.32786 0.0
H448 H 0.25738 0.84088 0.11735 0.0
H449 H 0.19719 0.9105 0.13904 0.0
H450 H 0.24868 0.81909 0.17931 0.0
H451 H 0.18808 0.88866 0.19996 0.0
H452 H 0.20481 0.87262 0.31228 0.0
H453 H 0.22619 0.89669 0.25293 0.0
H454 H 0.18911 0.77335 0.21984 0.0
H455 H 0.1683 0.7488 0.28054 0.0
C456 C 0.24334 0.85238 0.13552 0.0
C457 C 0.22817 0.87759 0.12347 0.0
C458 C 0.23776 0.8394 0.17077 0.0
C459 C 0.2175 0.85195 0.19452 0.0
C460 C 0.2042 0.8787 0.18257 0.0
C461 C 0.20942 0.89128 0.14758 0.0
C462 C 0.20098 0.85028 0.29257 0.0
C463 C 0.18394 0.80846 0.30121 0.0
C464 C 0.21342 0.86428 0.2584 0.0
C465 C 0.20889 0.83694 0.23151 0.0
C466 C 0.19318 0.79523 0.24008 0.0
C467 C 0.1809 0.7811 0.27471 0.0
H468 H 0.73814 0.53864 0.85304 0.0
H469 H 0.84846 0.53055 0.85249 0.0
H470 H 0.72819 0.52187 0.79121 0.0
H471 H 0.83788 0.51226 0.79006 0.0
H472 H 0.84775 0.56896 0.67914 0.0
H473 H 0.84809 0.55649 0.74128 0.0
H474 H 0.71604 0.48021 0.74069 0.0
H475 H 0.71555 0.49385 0.6778 0.0
C476 C 0.75961 0.53191 0.83982 0.0
C477 C 0.79458 0.53677 0.85732 0.0
C478 C 0.75368 0.52188 0.80431 0.0
C479 C 0.78264 0.51648 0.78534 0.0
C480 C 0.81544 0.51711 0.80377 0.0
C481 C 0.82136 0.52717 0.83957 0.0
C482 C 0.81863 0.54921 0.69199 0.0
C483 C 0.78147 0.53313 0.67346 0.0
C484 C 0.81895 0.54149 0.72777 0.0
C485 C 0.78213 0.51736 0.7462 0.0
C486 C 0.74498 0.49936 0.72737 0.0
C487 C 0.74465 0.50717 0.69134 0.0
H488 H 0.3636 0.27531 0.77168 0.0
H489 H 0.48171 0.31673 0.81955 0.0
H490 H 0.36854 0.22074 0.74214 0.0
H491 H 0.4865 0.26141 0.78988 0.0
H492 H 0.35962 0.09771 0.73809 0.0
H493 H 0.36469 0.15753 0.76703 0.0
H494 H 0.48917 0.23134 0.72949 0.0
H495 H 0.48423 0.17091 0.70036 0.0
C496 C 0.39093 0.27309 0.77549 0.0
C497 C 0.42198 0.30004 0.79827 0.0
C498 C 0.39362 0.24162 0.75878 0.0
C499 C 0.42746 0.23621 0.76435 0.0
C500 C 0.45997 0.26477 0.78524 0.0
C501 C 0.45725 0.29647 0.80213 0.0
C502 C 0.38828 0.12655 0.73624 0.0
C503 C 0.42125 0.12961 0.71645 0.0
C504 C 0.39109 0.1609 0.75265 0.0
C505 C 0.427 0.19934 0.74983 0.0
C506 C 0.46104 0.20212 0.73193 0.0
C507 C 0.45819 0.16751 0.7153 0.0
H508 H 0.83848 0.25904 0.80134 0.0
H509 H 0.70848 0.21622 0.79686 0.0
H510 H 0.84543 0.2767 0.73982 0.0
H511 H 0.71581 0.23496 0.73441 0.0
H512 H 0.85948 0.31926 0.6317 0.0
H513 H 0.84431 0.32057 0.69429 0.0
H514 H 0.72879 0.20794 0.68179 0.0
H515 H 0.74354 0.20743 0.6198 0.0
C516 C 0.81125 0.25368 0.78734 0.0
C517 C 0.7727 0.23562 0.80418 0.0
C518 C 0.81547 0.26451 0.75193 0.0
C519 C 0.78133 0.25771 0.73208 0.0
C520 C 0.74278 0.24051 0.74894 0.0
C521 C 0.73851 0.22962 0.78468 0.0
C522 C 0.83023 0.29583 0.6422 0.0
C523 C 0.80296 0.26296 0.62118 0.0
C524 C 0.82165 0.29622 0.67806 0.0
C525 C 0.78569 0.2638 0.69327 0.0
C526 C 0.75667 0.23342 0.67118 0.0
C527 C 0.76527 0.233 0.6356 0.0
H528 H 0.10108 0.51008 0.01809 0.0
H529 H 0.04219 0.46377 0.11869 0.0
H530 H 0.04822 0.52561 0.00198 0.0
H531 H 0.98991 0.48132 0.10324 0.0
H532 H 0.87699 0.47083 0.04849 0.0
H533 H 0.93206 0.45909 0.06727 0.0
H534 H 0.01947 0.567 0.00942 0.0
H535 H 0.96402 0.57734 0.98933 0.0
C536 C 0.0773 0.50403 0.03718 0.0
C537 C 0.07591 0.48549 0.06969 0.0
C538 C 0.04689 0.51318 0.02795 0.0
C539 C 0.01436 0.50461 0.05113 0.0
C540 C 0.0139 0.48762 0.08432 0.0
C541 C 0.0442 0.47799 0.09342 0.0
C542 C 0.90797 0.49189 0.03965 0.0
C543 C 0.91603 0.52481 0.01717 0.0
C544 C 0.93973 0.48544 0.05075 0.0
C545 C 0.98053 0.51211 0.04006 0.0
C546 C 0.98849 0.54528 0.01777 0.0
C547 C 0.95664 0.55134 0.00626 0.0
H548 H 0.53527 0.67384 0.94212 0.0
H549 H 0.53469 0.64636 0.05252 0.0
H550 H 0.50708 0.60168 0.92817 0.0
H551 H 0.50683 0.57385 0.03838 0.0
H552 H 0.50288 0.47992 0.9117 0.0
H553 H 0.52985 0.55146 0.92802 0.0
H554 H 0.44529 0.51327 0.01566 0.0
H555 H 0.41867 0.44164 -0.00035 0.0
C556 C 0.52901 0.65239 0.96349 0.0
C557 C 0.53737 0.66599 -0.00153 0.0
C558 C 0.51311 0.61099 0.95542 0.0
C559 C 0.50509 0.58199 0.98209 0.0
C560 C 0.51245 0.59535 0.01721 0.0
C561 C 0.52848 0.63692 0.02531 0.0
C562 C 0.49012 0.48673 0.93453 0.0
C563 C 0.45854 0.45498 0.95429 0.0
C564 C 0.50541 0.52778 0.94377 0.0
C565 C 0.48955 0.53816 0.97304 0.0
C566 C 0.45843 0.50638 0.99315 0.0
C567 C 0.44304 0.46529 0.98384 0.0
H568 H 0.39553 0.94996 0.01419 0.0
H569 H 0.37357 0.97203 0.90716 0.0
H570 H 0.46918 0.99391 0.00476 0.0
H571 H 0.44701 0.01481 0.89737 0.0
H572 H 0.57703 0.1262 0.90458 0.0
H573 H 0.50339 0.08017 0.91223 0.0
H574 H 0.5274 0.99894 0.97535 0.0
H575 H 0.60074 0.04547 0.96857 0.0
C576 C 0.40643 0.96376 0.98853 0.0
C577 C 0.37859 0.95751 0.96149 0.0
C578 C 0.44872 0.98887 0.98302 0.0
C579 C 0.46424 0.00815 0.95027 0.0
C580 C 0.4363 0.00118 0.9231 0.0
C581 C 0.39409 0.97632 0.92867 0.0
C582 C 0.56654 0.09839 0.91989 0.0
C583 C 0.59481 0.08969 0.9361 0.0
C584 C 0.52427 0.07184 0.9242 0.0
C585 C 0.50925 0.03581 0.94463 0.0
C586 C 0.53768 0.02673 0.96007 0.0
C587 C 0.57984 0.05335 0.95595 0.0
H588 H 0.51871 0.86523 0.48702 0.0
H589 H 0.62885 0.96075 0.53527 0.0
H590 H 0.48176 0.90009 0.50543 0.0
H591 H 0.59255 0.99609 0.55262 0.0
H592 H 0.50772 0.02895 0.61043 0.0
H593 H 0.54205 0.99151 0.59271 0.0
H594 H 0.47557 0.95939 0.49475 0.0
H595 H 0.44031 0.99571 0.51301 0.0
C596 C 0.5351 0.89379 0.50131 0.0
C597 C 0.57667 0.91005 0.50981 0.0
C598 C 0.51399 0.91391 0.51175 0.0
C599 C 0.53404 0.95089 0.53075 0.0
C600 C 0.57578 0.96729 0.53874 0.0
C601 C 0.59673 0.9471 0.52853 0.0
C602 C 0.50039 0.01386 0.58514 0.0
C603 C 0.47135 0.01548 0.56312 0.0
C604 C 0.52026 0.99253 0.57484 0.0
C605 C 0.51182 0.9725 0.54215 0.0
C606 C 0.48252 0.97393 0.52027 0.0
C607 C 0.46247 0.99505 0.53067 0.0
H608 H 0.93631 0.39126 0.40255 0.0
H609 H 0.95702 0.41691 0.51353 0.0
H610 H 0.99138 0.46044 0.38893 0.0
H611 H 0.01169 0.48652 0.49986 0.0
H612 H 0.13368 0.59358 0.46522 0.0
H613 H 0.08057 0.52271 0.47573 0.0
H614 H 0.0086 0.53164 0.39165 0.0
H615 H 0.06219 0.60252 0.38071 0.0
C616 C 0.95244 0.41172 0.4241 0.0
C617 C 0.94219 0.39843 0.45919 0.0
C618 C 0.98396 0.45153 0.41624 0.0
C619 C 0.00617 0.47912 0.44324 0.0
C620 C 0.99571 0.46591 0.47836 0.0
C621 C 0.96411 0.42607 0.48624 0.0
C622 C 0.1068 0.58032 0.44862 0.0
C623 C 0.10224 0.60386 0.42214 0.0
C624 C 0.07611 0.53973 0.45491 0.0
C625 C 0.03997 0.52153 0.43491 0.0
C626 C 0.03611 0.54454 0.40746 0.0
C627 C 0.06688 0.58522 0.40114 0.0
H628 H 0.41236 0.45057 0.4675 0.0
H629 H 0.39004 0.39903 0.57224 0.0
H630 H 0.48596 0.48179 0.47662 0.0
H631 H 0.46369 0.43124 0.58177 0.0
H632 H 0.59592 0.45553 0.57076 0.0
H633 H 0.52198 0.42596 0.56416 0.0
H634 H 0.54242 0.53453 0.50789 0.0
H635 H 0.61611 0.56344 0.51361 0.0
C636 C 0.42315 0.44627 0.49263 0.0
C637 C 0.39523 0.42225 0.51911 0.0
C638 C 0.46545 0.46438 0.49796 0.0
C639 C 0.48095 0.45911 0.52998 0.0
C640 C 0.45296 0.4355 0.55661 0.0
C641 C 0.41065 0.41725 0.55122 0.0
C642 C 0.58459 0.47315 0.55716 0.0
C643 C 0.61198 0.51173 0.54253 0.0
C644 C 0.54214 0.45628 0.55349 0.0
C645 C 0.52607 0.4777 0.53527 0.0
C646 C 0.55358 0.51675 0.52145 0.0
C647 C 0.59593 0.53347 0.52495 0.0
loop_
_geom_bond_atom_site_label_1
_geom_bond_atom_site_label_2
_geom_bond_distance
_geom_bond_site_symmetry_2
_ccdc_geom_bond_type
Mg0 O1 2.028 . S
Mg0 O7 1.986 . S
Mg0 O9 2.114 . S
Mg0 O10 2.251 . S
Mg0 O13 2.010 . S
O1 Mg0 2.028 . S
O1 C4 1.250 1_455 S
O2 Mg3 2.028 . S
O2 C4 1.248 1_455 S
Mg3 O2 2.028 . S
Mg3 O8 2.032 . S
Mg3 O10 2.079 . S
C4 O1 1.250 1_655 S
C4 O2 1.248 1_655 S
C5 O6 1.264 . S
C5 O13 1.249 . S
O6 C5 1.264 . S
O7 Mg0 1.986 . S
O7 C11 1.246 . S
O8 Mg3 2.032 . S
O8 C11 1.259 . S
O9 Mg0 2.114 . S
O9 C12 1.252 . S
O10 Mg0 2.251 . S
O10 Mg3 2.079 . S
O10 C12 1.273 . S
C11 O7 1.246 . S
C11 O8 1.259 . S
C12 O9 1.252 . S
C12 O10 1.273 . S
O13 Mg0 2.010 . S
O13 C5 1.249 . S
Mg14 O15 2.028 . S
Mg14 O21 1.986 . S
Mg14 O23 2.114 . S
Mg14 O24 2.251 . S
Mg14 O27 2.010 . S
O15 Mg14 2.028 . S
O15 C18 1.250 . S
O16 Mg17 2.028 . S
O16 C18 1.248 . S
Mg17 O16 2.028 . S
Mg17 O22 2.032 . S
Mg17 O24 2.079 . S
C18 O15 1.250 . S
C18 O16 1.248 . S
C19 O20 1.264 . S
C19 O27 1.249 . S
O20 C19 1.264 . S
O21 Mg14 1.986 . S
O21 C25 1.246 . S
O22 Mg17 2.032 . S
O22 C25 1.259 . S
O23 Mg14 2.114 . S
O23 C26 1.252 . S
O24 Mg14 2.251 . S
O24 Mg17 2.079 . S
O24 C26 1.273 . S
C25 O21 1.246 . S
C25 O22 1.259 . S
C26 O23 1.252 . S
C26 O24 1.273 . S
O27 Mg14 2.010 . S
O27 C19 1.249 . S
Mg28 O29 2.028 . S
Mg28 O35 1.986 . S
Mg28 O37 2.114 . S
Mg28 O38 2.251 . S
Mg28 O41 2.010 . S
O29 Mg28 2.028 . S
O29 C32 1.250 1_565 S
O30 Mg31 2.028 . S
O30 C32 1.248 1_565 S
Mg31 O30 2.028 . S
Mg31 O36 2.032 . S
Mg31 O38 2.079 . S
C32 O29 1.250 1_545 S
C32 O30 1.248 1_545 S
C33 O34 1.264 . S
C33 O41 1.249 . S
O34 C33 1.264 . S
O35 Mg28 1.986 . S
O35 C39 1.246 . S
O36 Mg31 2.032 . S
O36 C39 1.259 . S
O37 Mg28 2.114 . S
O37 C40 1.252 . S
O38 Mg28 2.251 . S
O38 Mg31 2.079 . S
O38 C40 1.273 . S
C39 O35 1.246 . S
C39 O36 1.259 . S
C40 O37 1.252 . S
C40 O38 1.273 . S
O41 Mg28 2.010 . S
O41 C33 1.249 . S
Mg42 O43 2.028 . S
Mg42 O49 1.986 . S
Mg42 O51 2.114 . S
Mg42 O52 2.251 . S
Mg42 O55 2.010 . S
O43 Mg42 2.028 . S
O43 C46 1.250 1_565 S
O44 Mg45 2.028 . S
O44 C46 1.248 1_565 S
Mg45 O44 2.028 . S
Mg45 O50 2.032 . S
Mg45 O52 2.079 . S
C46 O43 1.250 1_545 S
C46 O44 1.248 1_545 S
C47 O48 1.264 . S
C47 O55 1.249 . S
O48 C47 1.264 . S
O49 Mg42 1.986 . S
O49 C53 1.246 . S
O50 Mg45 2.032 . S
O50 C53 1.259 . S
O51 Mg42 2.114 . S
O51 C54 1.252 . S
O52 Mg42 2.251 . S
O52 Mg45 2.079 . S
O52 C54 1.273 . S
C53 O49 1.246 . S
C53 O50 1.259 . S
C54 O51 1.252 . S
C54 O52 1.273 . S
O55 Mg42 2.010 . S
O55 C47 1.249 . S
Mg56 O57 2.028 . S
Mg56 O63 1.986 . S
Mg56 O65 2.114 . S
Mg56 O66 2.251 . S
Mg56 O69 2.010 . S
O57 Mg56 2.028 . S
O57 C60 1.250 1_455 S
O58 Mg59 2.028 . S
O58 C60 1.248 1_455 S
Mg59 O58 2.028 . S
Mg59 O64 2.032 . S
Mg59 O66 2.079 . S
C60 O57 1.250 1_655 S
C60 O58 1.248 1_655 S
C61 O62 1.264 . S
C61 O69 1.249 . S
O62 C61 1.264 . S
O63 Mg56 1.986 . S
O63 C67 1.246 . S
O64 Mg59 2.032 . S
O64 C67 1.259 . S
O65 Mg56 2.114 . S
O65 C68 1.252 . S
O66 Mg56 2.251 . S
O66 Mg59 2.079 . S
O66 C68 1.273 . S
C67 O63 1.246 . S
C67 O64 1.259 . S
C68 O65 1.252 . S
C68 O66 1.273 . S
O69 Mg56 2.010 . S
O69 C61 1.249 . S
Mg70 O71 2.028 . S
Mg70 O77 1.986 . S
Mg70 O79 2.114 . S
Mg70 O80 2.251 . S
Mg70 O83 2.010 . S
O71 Mg70 2.028 . S
O71 C74 1.250 . S
O72 Mg73 2.028 . S
O72 C74 1.248 . S
Mg73 O72 2.028 . S
Mg73 O78 2.032 . S
Mg73 O80 2.079 . S
C74 O71 1.250 . S
C74 O72 1.248 . S
C75 O76 1.264 . S
C75 O83 1.249 . S
O76 C75 1.264 . S
O77 Mg70 1.986 . S
O77 C81 1.246 . S
O78 Mg73 2.032 . S
O78 C81 1.259 . S
O79 Mg70 2.114 . S
O79 C82 1.252 . S
O80 Mg70 2.251 . S
O80 Mg73 2.079 . S
O80 C82 1.273 . S
C81 O77 1.246 . S
C81 O78 1.259 . S
C82 O79 1.252 . S
C82 O80 1.273 . S
O83 Mg70 2.010 . S
O83 C75 1.249 . S
Mg84 O85 2.028 . S
Mg84 O91 1.986 . S
Mg84 O93 2.114 . S
Mg84 O94 2.251 . S
Mg84 O97 2.010 . S
O85 Mg84 2.028 . S
O85 C88 1.250 1_655 S
O86 Mg87 2.028 . S
O86 C88 1.248 1_655 S
Mg87 O86 2.028 . S
Mg87 O92 2.032 . S
Mg87 O94 2.079 . S
C88 O85 1.250 1_455 S
C88 O86 1.248 1_455 S
C89 O90 1.264 . S
C89 O97 1.249 . S
O90 C89 1.264 . S
O91 Mg84 1.986 . S
O91 C95 1.246 . S
O92 Mg87 2.032 . S
O92 C95 1.259 . S
O93 Mg84 2.114 . S
O93 C96 1.252 . S
O94 Mg84 2.251 . S
O94 Mg87 2.079 . S
O94 C96 1.273 . S
C95 O91 1.246 . S
C95 O92 1.259 . S
C96 O93 1.252 . S
C96 O94 1.273 . S
O97 Mg84 2.010 . S
O97 C89 1.249 . S
Mg98 O99 2.028 . S
Mg98 O105 1.986 . S
Mg98 O107 2.114 . S
Mg98 O108 2.251 . S
Mg98 O111 2.010 . S
O99 Mg98 2.028 . S
O99 C102 1.250 . S
O100 Mg101 2.028 . S
O100 C102 1.248 . S
Mg101 O100 2.028 . S
Mg101 O106 2.032 . S
Mg101 O108 2.079 . S
C102 O99 1.250 . S
C102 O100 1.248 . S
C103 O104 1.264 . S
C103 O111 1.249 . S
O104 C103 1.264 . S
O105 Mg98 1.986 . S
O105 C109 1.246 . S
O106 Mg101 2.032 . S
O106 C109 1.259 . S
O107 Mg98 2.114 . S
O107 C110 1.252 . S
O108 Mg98 2.251 . S
O108 Mg101 2.079 . S
O108 C110 1.273 . S
C109 O105 1.246 . S
C109 O106 1.259 . S
C110 O107 1.252 . S
C110 O108 1.273 . S
O111 Mg98 2.010 . S
O111 C103 1.249 . S
Mg112 O113 2.028 . S
Mg112 O119 1.986 . S
Mg112 O121 2.114 . S
Mg112 O122 2.251 . S
Mg112 O125 2.010 . S
O113 Mg112 2.028 . S
O113 C116 1.250 1_545 S
O114 Mg115 2.028 . S
O114 C116 1.248 1_545 S
Mg115 O114 2.028 . S
Mg115 O120 2.032 . S
Mg115 O122 2.079 . S
C116 O113 1.250 1_565 S
C116 O114 1.248 1_565 S
C117 O118 1.264 . S
C117 O125 1.249 . S
O118 C117 1.264 . S
O119 Mg112 1.986 . S
O119 C123 1.246 . S
O120 Mg115 2.032 . S
O120 C123 1.259 . S
O121 Mg112 2.114 . S
O121 C124 1.252 . S
O122 Mg112 2.251 . S
O122 Mg115 2.079 . S
O122 C124 1.273 . S
C123 O119 1.246 . S
C123 O120 1.259 . S
C124 O121 1.252 . S
C124 O122 1.273 . S
O125 Mg112 2.010 . S
O125 C117 1.249 . S
Mg126 O127 2.028 . S
Mg126 O133 1.986 . S
Mg126 O135 2.114 . S
Mg126 O136 2.251 . S
Mg126 O139 2.010 . S
O127 Mg126 2.028 . S
O127 C130 1.250 1_545 S
O128 Mg129 2.028 . S
O128 C130 1.248 1_545 S
Mg129 O128 2.028 . S
Mg129 O134 2.032 . S
Mg129 O136 2.079 . S
C130 O127 1.250 1_565 S
C130 O128 1.248 1_565 S
C131 O132 1.264 . S
C131 O139 1.249 . S
O132 C131 1.264 . S
O133 Mg126 1.986 . S
O133 C137 1.246 . S
O134 Mg129 2.032 . S
O134 C137 1.259 . S
O135 Mg126 2.114 . S
O135 C138 1.252 . S
O136 Mg126 2.251 . S
O136 Mg129 2.079 . S
O136 C138 1.273 . S
C137 O133 1.246 . S
C137 O134 1.259 . S
C138 O135 1.252 . S
C138 O136 1.273 . S
O139 Mg126 2.010 . S
O139 C131 1.249 . S
Mg140 O141 2.028 . S
Mg140 O147 1.986 . S
Mg140 O149 2.114 . S
Mg140 O150 2.251 . S
Mg140 O153 2.010 . S
O141 Mg140 2.028 . S
O141 C144 1.250 1_655 S
O142 Mg143 2.028 . S
O142 C144 1.248 1_655 S
Mg143 O142 2.028 . S
Mg143 O148 2.032 . S
Mg143 O150 2.079 . S
C144 O141 1.250 1_455 S
C144 O142 1.248 1_455 S
C145 O146 1.264 . S
C145 O153 1.249 . S
O146 C145 1.264 . S
O147 Mg140 1.986 . S
O147 C151 1.246 . S
O148 Mg143 2.032 . S
O148 C151 1.259 . S
O149 Mg140 2.114 . S
O149 C152 1.252 . S
O150 Mg140 2.251 . S
O150 Mg143 2.079 . S
O150 C152 1.273 . S
C151 O147 1.246 . S
C151 O148 1.259 . S
C152 O149 1.252 . S
C152 O150 1.273 . S
O153 Mg140 2.010 . S
O153 C145 1.249 . S
Mg154 O155 2.028 . S
Mg154 O161 1.986 . S
Mg154 O163 2.114 . S
Mg154 O164 2.251 . S
Mg154 O167 2.010 . S
O155 Mg154 2.028 . S
O155 C158 1.250 . S
O156 Mg157 2.028 . S
O156 C158 1.248 . S
Mg157 O156 2.028 . S
Mg157 O162 2.032 . S
Mg157 O164 2.079 . S
C158 O155 1.250 . S
C158 O156 1.248 . S
C159 O160 1.264 . S
C159 O167 1.249 . S
O160 C159 1.264 . S
O161 Mg154 1.986 . S
O161 C165 1.246 . S
O162 Mg157 2.032 . S
O162 C165 1.259 . S
O163 Mg154 2.114 . S
O163 C166 1.252 . S
O164 Mg154 2.251 . S
O164 Mg157 2.079 . S
O164 C166 1.273 . S
C165 O161 1.246 . S
C165 O162 1.259 . S
C166 O163 1.252 . S
C166 O164 1.273 . S
O167 Mg154 2.010 . S
O167 C159 1.249 . S
H168 C176 0.950 . S
H169 C181 0.950 . S
H170 C178 0.950 . S
H171 C180 0.950 . S
H172 C182 0.950 . S
H173 C184 0.950 . S
H174 C186 0.950 1_554 S
H175 C187 0.950 . S
C176 H168 0.950 . S
C176 C177 1.386 . S
C176 C178 1.391 . S
C177 C176 1.386 . S
C177 C181 1.393 1_554 S
C178 H170 0.950 . S
C178 C176 1.391 . S
C178 C179 1.400 1_554 S
C179 C178 1.400 1_556 S
C179 C180 1.398 . S
C179 C185 1.491 . S
C180 H171 0.950 . S
C180 C179 1.398 . S
C180 C181 1.391 . S
C181 H169 0.950 . S
C181 C177 1.393 1_556 S
C181 C180 1.391 . S
C182 H172 0.950 . S
C182 C183 1.386 . S
C182 C184 1.391 . S
C183 C182 1.386 . S
C183 C187 1.393 . S
C184 H173 0.950 . S
C184 C182 1.391 . S
C184 C185 1.400 . S
C185 C179 1.491 . S
C185 C184 1.400 . S
C185 C186 1.398 . S
C186 H174 0.950 1_556 S
C186 C185 1.398 . S
C186 C187 1.391 . S
C187 H175 0.950 . S
C187 C183 1.393 . S
C187 C186 1.391 . S
H188 C196 0.950 . S
H189 C201 0.950 . S
H190 C198 0.950 . S
H191 C200 0.950 . S
H192 C202 0.950 . S
H193 C204 0.950 . S
H194 C206 0.950 1_554 S
H195 C207 0.950 1_545 S
C196 H188 0.950 . S
C196 C197 1.386 . S
C196 C198 1.391 . S
C197 C196 1.386 . S
C197 C201 1.393 1_554 S
C198 H190 0.950 . S
C198 C196 1.391 . S
C198 C199 1.400 1_554 S
C199 C198 1.400 1_556 S
C199 C200 1.398 . S
C199 C205 1.491 . S
C200 H191 0.950 . S
C200 C199 1.398 . S
C200 C201 1.391 . S
C201 H189 0.950 . S
C201 C197 1.393 1_556 S
C201 C200 1.391 . S
C202 H192 0.950 . S
C202 C203 1.386 . S
C202 C204 1.391 . S
C203 C202 1.386 . S
C203 C207 1.393 . S
C204 H193 0.950 . S
C204 C202 1.391 . S
C204 C205 1.400 . S
C205 C199 1.491 . S
C205 C204 1.400 . S
C205 C206 1.398 . S
C206 H194 0.950 1_556 S
C206 C205 1.398 . S
C206 C207 1.391 . S
C207 H195 0.950 1_565 S
C207 C203 1.393 . S
C207 C206 1.391 . S
H208 C216 0.950 . S
H209 C221 0.950 . S
H210 C218 0.950 . S
H211 C220 0.950 . S
H212 C222 0.950 . S
H213 C224 0.950 . S
H214 C226 0.950 . S
H215 C227 0.950 . S
C216 H208 0.950 . S
C216 C217 1.386 . S
C216 C218 1.391 . S
C217 C216 1.386 . S
C217 C221 1.393 . S
C218 H210 0.950 . S
C218 C216 1.391 . S
C218 C219 1.400 1_554 S
C219 C218 1.400 1_556 S
C219 C220 1.398 . S
C219 C225 1.491 . S
C220 H211 0.950 . S
C220 C219 1.398 . S
C220 C221 1.391 1_556 S
C221 H209 0.950 . S
C221 C217 1.393 . S
C221 C220 1.391 1_554 S
C222 H212 0.950 . S
C222 C223 1.386 . S
C222 C224 1.391 . S
C223 C222 1.386 . S
C223 C227 1.393 . S
C224 H213 0.950 . S
C224 C222 1.391 . S
C224 C225 1.400 . S
C225 C219 1.491 . S
C225 C224 1.400 . S
C225 C226 1.398 . S
C226 H214 0.950 . S
C226 C225 1.398 . S
C226 C227 1.391 . S
C227 H215 0.950 . S
C227 C223 1.393 . S
C227 C226 1.391 . S
H228 C236 0.950 . S
H229 C241 0.950 . S
H230 C238 0.950 . S
H231 C240 0.950 . S
H232 C242 0.950 . S
H233 C244 0.950 . S
H234 C246 0.950 . S
H235 C247 0.950 . S
C236 H228 0.950 . S
C236 C237 1.386 . S
C236 C238 1.391 . S
C237 C236 1.386 . S
C237 C241 1.393 . S
C238 H230 0.950 . S
C238 C236 1.391 . S
C238 C239 1.400 . S
C239 C238 1.400 . S
C239 C240 1.398 . S
C239 C245 1.491 . S
C240 H231 0.950 . S
C240 C239 1.398 . S
C240 C241 1.391 . S
C241 H229 0.950 . S
C241 C237 1.393 . S
C241 C240 1.391 . S
C242 H232 0.950 . S
C242 C243 1.386 . S
C242 C244 1.391 . S
C243 C242 1.386 . S
C243 C247 1.393 . S
C244 H233 0.950 . S
C244 C242 1.391 . S
C244 C245 1.400 . S
C245 C239 1.491 . S
C245 C244 1.400 . S
C245 C246 1.398 . S
C246 H234 0.950 . S
C246 C245 1.398 . S
C246 C247 1.391 . S
C247 H235 0.950 . S
C247 C243 1.393 . S
C247 C246 1.391 . S
H248 C256 0.950 . S
H249 C261 0.950 . S
H250 C258 0.950 . S
H251 C260 0.950 . S
H252 C262 0.950 . S
H253 C264 0.950 . S
H254 C266 0.950 . S
H255 C267 0.950 . S
C256 H248 0.950 . S
C256 C257 1.386 . S
C256 C258 1.391 . S
C257 C256 1.386 . S
C257 C261 1.393 . S
C258 H250 0.950 . S
C258 C256 1.391 . S
C258 C259 1.400 . S
C259 C258 1.400 . S
C259 C260 1.398 . S
C259 C265 1.491 . S
C260 H251 0.950 . S
C260 C259 1.398 . S
C260 C261 1.391 . S
C261 H249 0.950 . S
C261 C257 1.393 . S
C261 C260 1.391 . S
C262 H252 0.950 . S
C262 C263 1.386 . S
C262 C264 1.391 . S
C263 C262 1.386 . S
C263 C267 1.393 . S
C264 H253 0.950 . S
C264 C262 1.391 . S
C264 C265 1.400 . S
C265 C259 1.491 . S
C265 C264 1.400 . S
C265 C266 1.398 . S
C266 H254 0.950 . S
C266 C265 1.398 . S
C266 C267 1.391 . S
C267 H255 0.950 . S
C267 C263 1.393 . S
C267 C266 1.391 . S
H268 C276 0.950 . S
H269 C281 0.950 . S
H270 C278 0.950 . S
H271 C280 0.950 . S
H272 C282 0.950 . S
H273 C284 0.950 . S
H274 C286 0.950 . S
H275 C287 0.950 . S
C276 H268 0.950 . S
C276 C277 1.386 . S
C276 C278 1.391 . S
C277 C276 1.386 . S
C277 C281 1.393 . S
C278 H270 0.950 . S
C278 C276 1.391 . S
C278 C279 1.400 . S
C279 C278 1.400 . S
C279 C280 1.398 . S
C279 C285 1.491 . S
C280 H271 0.950 . S
C280 C279 1.398 . S
C280 C281 1.391 . S
C281 H269 0.950 . S
C281 C277 1.393 . S
C281 C280 1.391 . S
C282 H272 0.950 . S
C282 C283 1.386 . S
C282 C284 1.391 . S
C283 C282 1.386 . S
C283 C287 1.393 . S
C284 H273 0.950 . S
C284 C282 1.391 . S
C284 C285 1.400 . S
C285 C279 1.491 . S
C285 C284 1.400 . S
C285 C286 1.398 . S
C286 H274 0.950 . S
C286 C285 1.398 . S
C286 C287 1.391 . S
C287 H275 0.950 . S
C287 C283 1.393 . S
C287 C286 1.391 . S
H288 C296 0.950 . S
H289 C301 0.950 . S
H290 C298 0.950 1_556 S
H291 C300 0.950 . S
H292 C302 0.950 . S
H293 C304 0.950 . S
H294 C306 0.950 . S
H295 C307 0.950 . S
C296 H288 0.950 . S
C296 C297 1.386 . S
C296 C298 1.391 . S
C297 C296 1.386 . S
C297 C301 1.393 . S
C298 H290 0.950 1_554 S
C298 C296 1.391 . S
C298 C299 1.400 . S
C299 C298 1.400 . S
C299 C300 1.398 . S
C299 C305 1.491 . S
C300 H291 0.950 . S
C300 C299 1.398 . S
C300 C301 1.391 . S
C301 H289 0.950 . S
C301 C297 1.393 . S
C301 C300 1.391 . S
C302 H292 0.950 . S
C302 C303 1.386 1_554 S
C302 C304 1.391 . S
C303 C302 1.386 1_556 S
C303 C307 1.393 . S
C304 H293 0.950 . S
C304 C302 1.391 . S
C304 C305 1.400 . S
C305 C299 1.491 . S
C305 C304 1.400 . S
C305 C306 1.398 1_554 S
C306 H294 0.950 . S
C306 C305 1.398 1_556 S
C306 C307 1.391 . S
C307 H295 0.950 . S
C307 C303 1.393 . S
C307 C306 1.391 . S
H308 C316 0.950 . S
H309 C321 0.950 . S
H310 C318 0.950 . S
H311 C320 0.950 . S
H312 C322 0.950 . S
H313 C324 0.950 . S
H314 C326 0.950 1_556 S
H315 C327 0.950 1_565 S
C316 H308 0.950 . S
C316 C317 1.386 . S
C316 C318 1.391 . S
C317 C316 1.386 . S
C317 C321 1.393 1_556 S
C318 H310 0.950 . S
C318 C316 1.391 . S
C318 C319 1.400 1_556 S
C319 C318 1.400 1_554 S
C319 C320 1.398 . S
C319 C325 1.491 . S
C320 H311 0.950 . S
C320 C319 1.398 . S
C320 C321 1.391 . S
C321 H309 0.950 . S
C321 C317 1.393 1_554 S
C321 C320 1.391 . S
C322 H312 0.950 . S
C322 C323 1.386 . S
C322 C324 1.391 . S
C323 C322 1.386 . S
C323 C327 1.393 . S
C324 H313 0.950 . S
C324 C322 1.391 . S
C324 C325 1.400 . S
C325 C319 1.491 . S
C325 C324 1.400 . S
C325 C326 1.398 . S
C326 H314 0.950 1_554 S
C326 C325 1.398 . S
C326 C327 1.391 . S
C327 H315 0.950 1_545 S
C327 C323 1.393 . S
C327 C326 1.391 . S
H328 C336 0.950 . S
H329 C341 0.950 1_455 S
H330 C338 0.950 . S
H331 C340 0.950 1_556 S
H332 C342 0.950 . S
H333 C344 0.950 . S
H334 C346 0.950 . S
H335 C347 0.950 . S
C336 H328 0.950 . S
C336 C337 1.386 . S
C336 C338 1.391 . S
C337 C336 1.386 . S
C337 C341 1.393 . S
C338 H330 0.950 . S
C338 C336 1.391 . S
C338 C339 1.400 . S
C339 C338 1.400 . S
C339 C340 1.398 . S
C339 C345 1.491 . S
C340 H331 0.950 1_554 S
C340 C339 1.398 . S
C340 C341 1.391 . S
C341 H329 0.950 1_655 S
C341 C337 1.393 . S
C341 C340 1.391 . S
C342 H332 0.950 . S
C342 C343 1.386 . S
C342 C344 1.391 . S
C343 C342 1.386 . S
C343 C347 1.393 1_556 S
C344 H333 0.950 . S
C344 C342 1.391 . S
C344 C345 1.400 1_556 S
C345 C339 1.491 . S
C345 C344 1.400 1_554 S
C345 C346 1.398 . S
C346 H334 0.950 . S
C346 C345 1.398 . S
C346 C347 1.391 . S
C347 H335 0.950 . S
C347 C343 1.393 1_554 S
C347 C346 1.391 . S
H348 C356 0.950 . S
H349 C361 0.950 . S
H350 C358 0.950 . S
H351 C360 0.950 . S
H352 C362 0.950 . S
H353 C364 0.950 . S
H354 C366 0.950 . S
H355 C367 0.950 . S
C356 H348 0.950 . S
C356 C357 1.386 . S
C356 C358 1.391 . S
C357 C356 1.386 . S
C357 C361 1.393 . S
C358 H350 0.950 . S
C358 C356 1.391 . S
C358 C359 1.400 . S
C359 C358 1.400 . S
C359 C360 1.398 . S
C359 C365 1.491 . S
C360 H351 0.950 . S
C360 C359 1.398 . S
C360 C361 1.391 . S
C361 H349 0.950 . S
C361 C357 1.393 . S
C361 C360 1.391 . S
C362 H352 0.950 . S
C362 C363 1.386 . S
C362 C364 1.391 . S
C363 C362 1.386 . S
C363 C367 1.393 . S
C364 H353 0.950 . S
C364 C362 1.391 . S
C364 C365 1.400 . S
C365 C359 1.491 . S
C365 C364 1.400 . S
C365 C366 1.398 . S
C366 H354 0.950 . S
C366 C365 1.398 . S
C366 C367 1.391 . S
C367 H355 0.950 . S
C367 C363 1.393 . S
C367 C366 1.391 . S
H368 C376 0.950 . S
H369 C381 0.950 . S
H370 C378 0.950 . S
H371 C380 0.950 . S
H372 C382 0.950 . S
H373 C384 0.950 . S
H374 C386 0.950 . S
H375 C387 0.937 1_565 S
C376 H368 0.950 . S
C376 C377 1.386 . S
C376 C378 1.391 . S
C377 C376 1.386 . S
C377 C381 1.393 . S
C378 H370 0.950 . S
C378 C376 1.391 . S
C378 C379 1.400 . S
C379 C378 1.400 . S
C379 C380 1.398 . S
C379 C385 1.491 . S
C380 H371 0.950 . S
C380 C379 1.398 . S
C380 C381 1.391 . S
C381 H369 0.950 . S
C381 C377 1.393 . S
C381 C380 1.391 . S
C382 H372 0.950 . S
C382 C383 1.386 . S
C382 C384 1.391 . S
C383 C382 1.386 . S
C383 C387 1.393 . S
C384 H373 0.950 . S
C384 C382 1.391 . S
C384 C385 1.400 . S
C385 C379 1.491 . S
C385 C384 1.400 . S
C385 C386 1.398 . S
C386 H374 0.950 . S
C386 C385 1.398 . S
C386 C387 1.391 . S
C387 H375 0.937 1_545 S
C387 C383 1.393 . S
C387 C386 1.391 . S
H388 C396 0.950 . S
H389 C401 0.950 1_455 S
H390 C398 0.950 . S
H391 C400 0.950 . S
H392 C402 0.950 . S
H393 C404 0.950 . S
H394 C406 0.950 . S
H395 C407 0.950 . S
C396 H388 0.950 . S
C396 C397 1.386 . S
C396 C398 1.391 . S
C397 C396 1.386 . S
C397 C401 1.393 . S
C398 H390 0.950 . S
C398 C396 1.391 . S
C398 C399 1.400 . S
C399 C398 1.400 . S
C399 C400 1.398 . S
C399 C405 1.491 . S
C400 H391 0.950 . S
C400 C399 1.398 . S
C400 C401 1.391 . S
C401 H389 0.950 1_655 S
C401 C397 1.393 . S
C401 C400 1.391 . S
C402 H392 0.950 . S
C402 C403 1.386 . S
C402 C404 1.391 . S
C403 C402 1.386 . S
C403 C407 1.393 . S
C404 H393 0.950 . S
C404 C402 1.391 . S
C404 C405 1.400 . S
C405 C399 1.491 . S
C405 C404 1.400 . S
C405 C406 1.398 . S
C406 H394 0.950 . S
C406 C405 1.398 . S
C406 C407 1.391 . S
C407 H395 0.950 . S
C407 C403 1.393 . S
C407 C406 1.391 . S
H408 C416 0.950 . S
H409 C421 0.950 . S
H410 C418 0.950 . S
H411 C420 0.950 . S
H412 C422 0.950 . S
H413 C424 0.950 . S
H414 C426 0.950 . S
H415 C427 0.950 . S
C416 H408 0.950 . S
C416 C417 1.386 . S
C416 C418 1.391 . S
C417 C416 1.386 . S
C417 C421 1.393 . S
C418 H410 0.950 . S
C418 C416 1.391 . S
C418 C419 1.400 . S
C419 C418 1.400 . S
C419 C420 1.398 . S
C419 C425 1.491 . S
C420 H411 0.950 . S
C420 C419 1.398 . S
C420 C421 1.391 . S
C421 H409 0.950 . S
C421 C417 1.393 . S
C421 C420 1.391 . S
C422 H412 0.950 . S
C422 C423 1.386 . S
C422 C424 1.391 . S
C423 C422 1.386 . S
C423 C427 1.393 . S
C424 H413 0.950 . S
C424 C422 1.391 . S
C424 C425 1.400 . S
C425 C419 1.491 . S
C425 C424 1.400 . S
C425 C426 1.398 . S
C426 H414 0.950 . S
C426 C425 1.398 . S
C426 C427 1.391 . S
C427 H415 0.950 . S
C427 C423 1.393 . S
C427 C426 1.391 . S
H428 C436 0.950 . S
H429 C441 0.950 . S
H430 C438 0.950 . S
H431 C440 0.950 . S
H432 C442 0.950 . S
H433 C444 0.950 . S
H434 C446 0.950 . S
H435 C447 0.950 . S
C436 H428 0.950 . S
C436 C437 1.386 . S
C436 C438 1.391 . S
C437 C436 1.386 . S
C437 C441 1.393 . S
C438 H430 0.950 . S
C438 C436 1.391 . S
C438 C439 1.400 . S
C439 C438 1.400 . S
C439 C440 1.398 . S
C439 C445 1.491 . S
C440 H431 0.950 . S
C440 C439 1.398 . S
C440 C441 1.391 . S
C441 H429 0.950 . S
C441 C437 1.393 . S
C441 C440 1.391 . S
C442 H432 0.950 . S
C442 C443 1.386 . S
C442 C444 1.391 . S
C443 C442 1.386 . S
C443 C447 1.393 . S
C444 H433 0.950 . S
C444 C442 1.391 . S
C444 C445 1.400 . S
C445 C439 1.491 . S
C445 C444 1.400 . S
C445 C446 1.398 . S
C446 H434 0.950 . S
C446 C445 1.398 . S
C446 C447 1.391 . S
C447 H435 0.950 . S
C447 C443 1.393 . S
C447 C446 1.391 . S
H448 C456 0.950 . S
H449 C461 0.950 . S
H450 C458 0.950 . S
H451 C460 0.950 . S
H452 C462 0.950 . S
H453 C464 0.950 . S
H454 C466 0.950 . S
H455 C467 0.950 . S
C456 H448 0.950 . S
C456 C457 1.386 . S
C456 C458 1.391 . S
C457 C456 1.386 . S
C457 C461 1.393 . S
C458 H450 0.950 . S
C458 C456 1.391 . S
C458 C459 1.400 . S
C459 C458 1.400 . S
C459 C460 1.398 . S
C459 C465 1.491 . S
C460 H451 0.950 . S
C460 C459 1.398 . S
C460 C461 1.391 . S
C461 H449 0.950 . S
C461 C457 1.393 . S
C461 C460 1.391 . S
C462 H452 0.950 . S
C462 C463 1.386 . S
C462 C464 1.391 . S
C463 C462 1.386 . S
C463 C467 1.393 . S
C464 H453 0.950 . S
C464 C462 1.391 . S
C464 C465 1.400 . S
C465 C459 1.491 . S
C465 C464 1.400 . S
C465 C466 1.398 . S
C466 H454 0.950 . S
C466 C465 1.398 . S
C466 C467 1.391 . S
C467 H455 0.950 . S
C467 C463 1.393 . S
C467 C466 1.391 . S
H468 C476 0.950 . S
H469 C481 0.950 . S
H470 C478 0.950 . S
H471 C480 0.950 . S
H472 C482 0.950 . S
H473 C484 0.950 . S
H474 C486 0.950 . S
H475 C487 0.950 . S
C476 H468 0.950 . S
C476 C477 1.386 . S
C476 C478 1.391 . S
C477 C476 1.386 . S
C477 C481 1.393 . S
C478 H470 0.950 . S
C478 C476 1.391 . S
C478 C479 1.400 . S
C479 C478 1.400 . S
C479 C480 1.398 . S
C479 C485 1.491 . S
C480 H471 0.950 . S
C480 C479 1.398 . S
C480 C481 1.391 . S
C481 H469 0.950 . S
C481 C477 1.393 . S
C481 C480 1.391 . S
C482 H472 0.950 . S
C482 C483 1.386 . S
C482 C484 1.391 . S
C483 C482 1.386 . S
C483 C487 1.393 . S
C484 H473 0.950 . S
C484 C482 1.391 . S
C484 C485 1.400 . S
C485 C479 1.491 . S
C485 C484 1.400 . S
C485 C486 1.398 . S
C486 H474 0.950 . S
C486 C485 1.398 . S
C486 C487 1.391 . S
C487 H475 0.950 . S
C487 C483 1.393 . S
C487 C486 1.391 . S
H488 C496 0.950 . S
H489 C501 0.950 . S
H490 C498 0.950 . S
H491 C500 0.950 . S
H492 C502 0.950 . S
H493 C504 0.950 . S
H494 C506 0.950 . S
H495 C507 0.950 . S
C496 H488 0.950 . S
C496 C497 1.386 . S
C496 C498 1.391 . S
C497 C496 1.386 . S
C497 C501 1.393 . S
C498 H490 0.950 . S
C498 C496 1.391 . S
C498 C499 1.400 . S
C499 C498 1.400 . S
C499 C500 1.398 . S
C499 C505 1.491 . S
C500 H491 0.950 . S
C500 C499 1.398 . S
C500 C501 1.391 . S
C501 H489 0.950 . S
C501 C497 1.393 . S
C501 C500 1.391 . S
C502 H492 0.950 . S
C502 C503 1.386 . S
C502 C504 1.391 . S
C503 C502 1.386 . S
C503 C507 1.393 . S
C504 H493 0.950 . S
C504 C502 1.391 . S
C504 C505 1.400 . S
C505 C499 1.491 . S
C505 C504 1.400 . S
C505 C506 1.398 . S
C506 H494 0.950 . S
C506 C505 1.398 . S
C506 C507 1.391 . S
C507 H495 0.950 . S
C507 C503 1.393 . S
C507 C506 1.391 . S
H508 C516 0.950 . S
H509 C521 0.950 . S
H510 C518 0.950 . S
H511 C520 0.950 . S
H512 C522 0.950 . S
H513 C524 0.950 . S
H514 C526 0.950 . S
H515 C527 0.950 . S
C516 H508 0.950 . S
C516 C517 1.386 . S
C516 C518 1.391 . S
C517 C516 1.386 . S
C517 C521 1.393 . S
C518 H510 0.950 . S
C518 C516 1.391 . S
C518 C519 1.400 . S
C519 C518 1.400 . S
C519 C520 1.398 . S
C519 C525 1.491 . S
C520 H511 0.950 . S
C520 C519 1.398 . S
C520 C521 1.391 . S
C521 H509 0.950 . S
C521 C517 1.393 . S
C521 C520 1.391 . S
C522 H512 0.950 . S
C522 C523 1.386 . S
C522 C524 1.391 . S
C523 C522 1.386 . S
C523 C527 1.393 . S
C524 H513 0.950 . S
C524 C522 1.391 . S
C524 C525 1.400 . S
C525 C519 1.491 . S
C525 C524 1.400 . S
C525 C526 1.398 . S
C526 H514 0.950 . S
C526 C525 1.398 . S
C526 C527 1.391 . S
C527 H515 0.950 . S
C527 C523 1.393 . S
C527 C526 1.391 . S
H528 C536 0.950 . S
H529 C541 0.950 . S
H530 C538 0.950 1_556 S
H531 C540 0.950 . S
H532 C542 0.950 . S
H533 C544 0.950 1_554 S
H534 C546 0.950 . S
H535 C547 0.950 . S
C536 H528 0.950 . S
C536 C537 1.386 . S
C536 C538 1.391 . S
C537 C536 1.386 . S
C537 C541 1.393 1_455 S
C538 H530 0.950 1_554 S
C538 C536 1.391 . S
C538 C539 1.400 . S
C539 C538 1.400 . S
C539 C540 1.398 1_455 S
C539 C545 1.491 1_454 S
C540 H531 0.950 . S
C540 C539 1.398 1_655 S
C540 C541 1.391 . S
C541 H529 0.950 . S
C541 C537 1.393 1_655 S
C541 C540 1.391 . S
C542 H532 0.950 . S
C542 C543 1.386 . S
C542 C544 1.391 . S
C543 C542 1.386 . S
C543 C547 1.393 1_655 S
C544 H533 0.950 1_556 S
C544 C542 1.391 . S
C544 C545 1.400 . S
C545 C539 1.491 1_656 S
C545 C544 1.400 . S
C545 C546 1.398 1_655 S
C546 H534 0.950 . S
C546 C545 1.398 1_455 S
C546 C547 1.391 . S
C547 H535 0.950 . S
C547 C543 1.393 1_455 S
C547 C546 1.391 . S
H548 C556 0.950 . S
H549 C561 0.950 1_556 S
H550 C558 0.950 . S
H551 C560 0.950 . S
H552 C562 0.950 . S
H553 C564 0.950 . S
H554 C566 0.950 . S
H555 C567 0.950 1_554 S
C556 H548 0.950 . S
C556 C557 1.386 . S
C556 C558 1.391 . S
C557 C556 1.386 . S
C557 C561 1.393 . S
C558 H550 0.950 . S
C558 C556 1.391 . S
C558 C559 1.400 . S
C559 C558 1.400 . S
C559 C560 1.398 1_554 S
C559 C565 1.491 1_554 S
C560 H551 0.950 . S
C560 C559 1.398 1_556 S
C560 C561 1.391 1_556 S
C561 H549 0.950 1_554 S
C561 C557 1.393 . S
C561 C560 1.391 1_554 S
C562 H552 0.950 . S
C562 C563 1.386 . S
C562 C564 1.391 . S
C563 C562 1.386 . S
C563 C567 1.393 . S
C564 H553 0.950 . S
C564 C562 1.391 . S
C564 C565 1.400 . S
C565 C559 1.491 1_556 S
C565 C564 1.400 . S
C565 C566 1.398 1_556 S
C566 H554 0.950 . S
C566 C565 1.398 1_554 S
C566 C567 1.391 1_554 S
C567 H555 0.950 1_556 S
C567 C563 1.393 . S
C567 C566 1.391 1_556 S
H568 C576 0.950 . S
H569 C581 0.950 . S
H570 C578 0.950 . S
H571 C580 0.950 . S
H572 C582 0.950 . S
H573 C584 0.950 . S
H574 C586 0.950 . S
H575 C587 0.950 . S
C576 H568 0.950 . S
C576 C577 1.386 1_545 S
C576 C578 1.391 . S
C577 C576 1.386 1_565 S
C577 C581 1.393 . S
C578 H570 0.950 . S
C578 C576 1.391 . S
C578 C579 1.400 1_545 S
C579 C578 1.400 1_565 S
C579 C580 1.398 . S
C579 C585 1.491 1_564 S
C580 H571 0.950 . S
C580 C579 1.398 . S
C580 C581 1.391 . S
C581 H569 0.950 . S
C581 C577 1.393 . S
C581 C580 1.391 . S
C582 H572 0.950 . S
C582 C583 1.386 1_565 S
C582 C584 1.391 . S
C583 C582 1.386 1_545 S
C583 C587 1.393 . S
C584 H573 0.950 . S
C584 C582 1.391 . S
C584 C585 1.400 1_565 S
C585 C579 1.491 1_546 S
C585 C584 1.400 1_545 S
C585 C586 1.398 . S
C586 H574 0.950 . S
C586 C585 1.398 . S
C586 C587 1.391 . S
C587 H575 0.950 . S
C587 C583 1.393 . S
C587 C586 1.391 . S
H588 C596 0.950 1_545 S
H589 C601 0.950 . S
H590 C598 0.950 . S
H591 C600 0.950 . S
H592 C602 0.950 1_565 S
H593 C604 0.950 . S
H594 C606 0.950 . S
H595 C607 0.950 . S
C596 H588 0.950 1_565 S
C596 C597 1.386 . S
C596 C598 1.391 1_565 S
C597 C596 1.386 . S
C597 C601 1.393 . S
C598 H590 0.950 . S
C598 C596 1.391 1_545 S
C598 C599 1.400 1_545 S
C599 C598 1.400 1_565 S
C599 C600 1.398 . S
C599 C605 1.491 1_565 S
C600 H591 0.950 . S
C600 C599 1.398 . S
C600 C601 1.391 . S
C601 H589 0.950 . S
C601 C597 1.393 . S
C601 C600 1.391 . S
C602 H592 0.950 1_545 S
C602 C603 1.386 . S
C602 C604 1.391 1_545 S
C603 C602 1.386 . S
C603 C607 1.393 . S
C604 H593 0.950 . S
C604 C602 1.391 1_565 S
C604 C605 1.400 1_565 S
C605 C599 1.491 1_545 S
C605 C604 1.400 1_545 S
C605 C606 1.398 . S
C606 H594 0.950 . S
C606 C605 1.398 . S
C606 C607 1.391 . S
C607 H595 0.950 . S
C607 C603 1.393 . S
C607 C606 1.391 . S
H608 C616 0.950 . S
H609 C621 0.950 . S
H610 C618 0.950 . S
H611 C620 0.950 . S
H612 C622 0.950 . S
H613 C624 0.950 . S
H614 C626 0.950 . S
H615 C627 0.950 . S
C616 H608 0.950 . S
C616 C617 1.386 . S
C616 C618 1.391 . S
C617 C616 1.386 . S
C617 C621 1.393 1_655 S
C618 H610 0.950 . S
C618 C616 1.391 . S
C618 C619 1.400 . S
C619 C618 1.400 . S
C619 C620 1.398 1_655 S
C619 C625 1.491 1_655 S
C620 H611 0.950 . S
C620 C619 1.398 1_455 S
C620 C621 1.391 . S
C621 H609 0.950 . S
C621 C617 1.393 1_455 S
C621 C620 1.391 . S
C622 H612 0.950 . S
C622 C623 1.386 . S
C622 C624 1.391 . S
C623 C622 1.386 . S
C623 C627 1.393 1_455 S
C624 H613 0.950 . S
C624 C622 1.391 . S
C624 C625 1.400 . S
C625 C619 1.491 1_455 S
C625 C624 1.400 . S
C625 C626 1.398 1_455 S
C626 H614 0.950 . S
C626 C625 1.398 1_655 S
C626 C627 1.391 . S
C627 H615 0.950 . S
C627 C623 1.393 1_655 S
C627 C626 1.391 . S
H628 C636 0.950 . S
H629 C641 0.950 . S
H630 C638 0.950 . S
H631 C640 0.950 . S
H632 C642 0.950 . S
H633 C644 0.950 . S
H634 C646 0.950 . S
H635 C647 0.950 . S
C636 H628 0.950 . S
C636 C637 1.386 . S
C636 C638 1.391 . S
C637 C636 1.386 . S
C637 C641 1.393 . S
C638 H630 0.950 . S
C638 C636 1.391 . S
C638 C639 1.400 . S
C639 C638 1.400 . S
C639 C640 1.398 . S
C639 C645 1.491 . S
C640 H631 0.950 . S
C640 C639 1.398 . S
C640 C641 1.391 . S
C641 H629 0.950 . S
C641 C637 1.393 . S
C641 C640 1.391 . S
C642 H632 0.950 . S
C642 C643 1.386 . S
C642 C644 1.391 . S
C643 C642 1.386 . S
C643 C647 1.393 . S
C644 H633 0.950 . S
C644 C642 1.391 . S
C644 C645 1.400 . S
C645 C639 1.491 . S
C645 C644 1.400 . S
C645 C646 1.398 . S
C646 H634 0.950 . S
C646 C645 1.398 . S
C646 C647 1.391 . S
C647 H635 0.950 . S
C647 C643 1.393 . S
C647 C646 1.391 . S
C177 C12 0.534 . S
C183 C102 0.564 . S
C197 C26 0.534 . S
C203 C116 0.566 . S
C217 C40 0.542 . S
C223 C88 0.542 . S
C237 C158 0.570 . S
C243 C54 0.528 . S
C257 C68 0.529 . S
C263 C130 0.572 . S
C277 C144 0.528 . S
C283 C82 0.543 . S
C297 C18 0.537 . S
C303 C96 0.537 . S
C317 C110 0.538 . S
C323 C32 0.536 . S
C337 C4 0.557 . S
C343 C124 0.538 . S
C357 C138 0.538 . S
C363 C74 0.536 . S
C377 C152 0.532 . S
C383 C46 0.551 . S
C397 C60 0.562 . S
C403 C166 0.535 . S
C417 C81 1.624 . S
C423 C11 1.614 . S
C437 C25 1.627 . S
C443 C53 1.623 . S
C457 C39 1.616 . S
C463 C67 1.625 . S
C477 C95 1.621 . S
C483 C165 1.627 . S
C497 C109 1.619 . S
C503 C137 1.606 . S
C517 C123 1.613 . S
C523 C151 1.601 . S
C537 C5 1.456 . S
C543 C89 1.456 . S
C557 C19 1.429 . S
C563 C103 1.429 . S
C577 C33 1.437 . S
C583 C117 1.437 . S
C597 C47 1.455 . S
C603 C131 1.455 . S
C617 C145 1.439 . S
C623 C61 1.439 . S
C637 C75 1.426 . S
C643 C159 1.426 . S
