# Generated by pormake.
# Topology msp, (4)-cn, num edge types: 1
# Building blocks:
#     Node 0, Type 0, BuildingBlock: QUQFOY_clean_sbu_3, # of connection points: 4
#     Node 1, Type 0, BuildingBlock: QUQFOY_clean_sbu_3, # of connection points: 4
#     Node 2, Type 0, BuildingBlock: QUQFOY_clean_sbu_3, # of connection points: 4
#     Node 3, Type 0, BuildingBlock: QUQFOY_clean_sbu_3, # of connection points: 4
#     Node 4, Type 0, BuildingBlock: QUQFOY_clean_sbu_3, # of connection points: 4
#     Node 5, Type 0, BuildingBlock: QUQFOY_clean_sbu_3, # of connection points: 4
#     Node 6, Type 0, BuildingBlock: QUQFOY_clean_sbu_3, # of connection points: 4
#     Node 7, Type 0, BuildingBlock: QUQFOY_clean_sbu_3, # of connection points: 4
#     Edge 8, Type (0, 0), BuildingBlock: MIFKUJ_clean_linker_0, # of connection points: 2
#     Edge 9, Type (0, 0), BuildingBlock: MIFKUJ_clean_linker_0, # of connection points: 2
#     Edge 10, Type (0, 0), BuildingBlock: MIFKUJ_clean_linker_0, # of connection points: 2
#     Edge 11, Type (0, 0), BuildingBlock: MIFKUJ_clean_linker_0, # of connection points: 2
#     Edge 12, Type (0, 0), BuildingBlock: MIFKUJ_clean_linker_0, # of connection points: 2
#     Edge 13, Type (0, 0), BuildingBlock: MIFKUJ_clean_linker_0, # of connection points: 2
#     Edge 14, Type (0, 0), BuildingBlock: MIFKUJ_clean_linker_0, # of connection points: 2
#     Edge 15, Type (0, 0), BuildingBlock: MIFKUJ_clean_linker_0, # of connection points: 2
#     Edge 16, Type (0, 0), BuildingBlock: MIFKUJ_clean_linker_0, # of connection points: 2
#     Edge 17, Type (0, 0), BuildingBlock: MIFKUJ_clean_linker_0, # of connection points: 2
#     Edge 18, Type (0, 0), BuildingBlock: MIFKUJ_clean_linker_0, # of connection points: 2
#     Edge 19, Type (0, 0), BuildingBlock: MIFKUJ_clean_linker_0, # of connection points: 2
#     Edge 20, Type (0, 0), BuildingBlock: MIFKUJ_clean_linker_0, # of connection points: 2
#     Edge 21, Type (0, 0), BuildingBlock: MIFKUJ_clean_linker_0, # of connection points: 2
#     Edge 22, Type (0, 0), BuildingBlock: MIFKUJ_clean_linker_0, # of connection points: 2
#     Edge 23, Type (0, 0), BuildingBlock: MIFKUJ_clean_linker_0, # of connection points: 2
# Relax obj value: 0.151
# Max RMSD: 0.202
# Mean RMSD: 0.202
data_MOF--net-msp--node1-QUQFOY_clean_sbu_3--edge1-MIFKUJ_clean_linker_0
_symmetry_space_group_name_H-M    P1
_symmetry_Int_Tables_number       1
_symmetry_cell_setting            triclinic
loop_
_symmetry_equiv_pos_as_xyz
'x, y, z'
_cell_length_a     31.60407
_cell_length_b     32.51424
_cell_length_c     51.258699
_cell_angle_alpha  89.757041
_cell_angle_beta   97.684479
_cell_angle_gamma 89.60069
loop_
_atom_site_label
_atom_site_type_symbol
_atom_site_fract_x
_atom_site_fract_y
_atom_site_fract_z
_atom_type_partial_charge
C0 C 0.04332 0.36365 0.38769 0.0
O1 O 0.07878 0.36828 0.37893 0.0
Cd2 Cd 0.10675 0.32488 0.34732 0.0
O3 O 0.01818 0.33469 0.3793 0.0
Cd4 Cd 0.01343 0.27762 0.34734 0.0
C5 C 0.10098 0.23192 0.38038 0.0
O6 O 0.04943 0.31089 0.31458 0.0
O7 O 0.03906 0.24607 0.30922 0.0
O8 O 0.94209 0.30167 0.33236 0.0
C9 C 0.05432 0.27899 0.30118 0.0
O10 O 0.12184 0.25969 0.37011 0.0
C11 C 0.92478 0.26651 0.3312 0.0
O12 O 0.0602 0.23249 0.37795 0.0
O13 O 0.94835 0.23607 0.3396 0.0
C14 C 0.46752 0.34009 0.57901 0.0
O15 O 0.46568 0.35283 0.60208 0.0
Cd16 Cd 0.45481 0.28377 0.61831 0.0
O17 O 0.46619 0.30154 0.57558 0.0
Cd18 Cd 0.46433 0.26192 0.6196 0.0
C19 C 0.41136 0.2164 0.57924 0.0
O20 O 0.41169 0.29396 0.64898 0.0
O21 O 0.4095 0.22854 0.64277 0.0
O22 O 0.52831 0.29435 0.6431 0.0
C23 C 0.39524 0.25978 0.65364 0.0
O24 O 0.39985 0.25161 0.58617 0.0
C25 C 0.54648 0.26086 0.65115 0.0
O26 O 0.44793 0.20338 0.58917 0.0
O27 O 0.52746 0.22777 0.64364 0.0
C28 C 0.92559 0.64203 0.58311 0.0
O29 O 0.8891 0.6396 0.59078 0.0
Cd30 Cd 0.8608 0.68947 0.61821 0.0
O31 O 0.95092 0.67111 0.59098 0.0
Cd32 Cd 0.95505 0.73129 0.62069 0.0
C33 C 0.87517 0.77606 0.58029 0.0
O34 O 0.91492 0.70321 0.65332 0.0
O35 O 0.9243 0.76864 0.65516 0.0
O36 O 0.02387 0.7045 0.63897 0.0
C37 C 0.90933 0.7368 0.66483 0.0
O38 O 0.85149 0.75076 0.59059 0.0
C39 C 0.04337 0.73852 0.63968 0.0
O40 O 0.91578 0.77452 0.58578 0.0
O41 O 0.02224 0.76964 0.62986 0.0
C42 C 0.53707 0.62583 0.37517 0.0
O43 O 0.56994 0.621 0.36365 0.0
Cd44 Cd 0.59459 0.66917 0.33334 0.0
O45 O 0.51224 0.65671 0.36995 0.0
Cd46 Cd 0.5026 0.71681 0.33987 0.0
C47 C 0.59262 0.75854 0.37083 0.0
O48 O 0.53396 0.68742 0.30391 0.0
O49 O 0.5229 0.7526 0.30143 0.0
O50 O 0.43059 0.69338 0.32837 0.0
C51 C 0.53736 0.7207 0.29148 0.0
O52 O 0.61194 0.73151 0.35876 0.0
C53 C 0.41305 0.72857 0.32866 0.0
O54 O 0.55202 0.75873 0.36989 0.0
O55 O 0.43713 0.75862 0.33626 0.0
C56 C 0.53397 0.85989 0.89156 0.0
O57 O 0.5709 0.86213 0.88448 0.0
Cd58 Cd 0.5993 0.81489 0.85535 0.0
O59 O 0.50792 0.83218 0.88228 0.0
Cd60 Cd 0.5042 0.77545 0.84994 0.0
C61 C 0.58182 0.72328 0.8872 0.0
O62 O 0.54647 0.80586 0.81894 0.0
O63 O 0.53613 0.74075 0.81505 0.0
O64 O 0.43642 0.80353 0.8305 0.0
C65 C 0.5521 0.77304 0.80661 0.0
O66 O 0.60657 0.74909 0.87834 0.0
C67 C 0.41655 0.76968 0.82887 0.0
O68 O 0.54129 0.72717 0.88265 0.0
O69 O 0.43685 0.73814 0.83873 0.0
C70 C 0.92269 0.86514 0.08534 0.0
O71 O 0.88724 0.86977 0.09416 0.0
Cd72 Cd 0.85917 0.8233 0.12413 0.0
O73 O 0.94765 0.83535 0.09322 0.0
Cd74 Cd 0.9533 0.77687 0.12453 0.0
C75 C 0.86817 0.73256 0.08915 0.0
O76 O 0.91563 0.80749 0.15753 0.0
O77 O 0.92774 0.74251 0.16172 0.0
O78 O 0.02365 0.80193 0.13977 0.0
C79 C 0.91137 0.77461 0.17025 0.0
O80 O 0.84645 0.76013 0.09914 0.0
C81 C 0.04215 0.7671 0.14081 0.0
O82 O 0.90897 0.73254 0.09302 0.0
O83 O 0.01965 0.7364 0.13237 0.0
C84 C 0.42529 0.14558 0.08535 0.0
O85 O 0.39053 0.14244 0.0951 0.0
Cd86 Cd 0.367 0.18754 0.12725 0.0
O87 O 0.45262 0.17288 0.09357 0.0
Cd88 Cd 0.46337 0.22794 0.12724 0.0
C89 C 0.37983 0.27978 0.09434 0.0
O90 O 0.42592 0.1963 0.15982 0.0
O91 O 0.44005 0.26032 0.16596 0.0
O92 O 0.53334 0.19933 0.14143 0.0
C93 C 0.42326 0.22801 0.17376 0.0
O94 O 0.35695 0.25299 0.10398 0.0
C95 C 0.55281 0.23342 0.14275 0.0
O96 O 0.42055 0.27703 0.09775 0.0
O97 O 0.53103 0.26522 0.13484 0.0
C98 C 0.04086 0.14616 0.89047 0.0
O99 O 0.07525 0.14066 0.88061 0.0
Cd100 Cd 0.10073 0.18713 0.8497 0.0
O101 O 0.01651 0.17669 0.88333 0.0
Cd102 Cd 0.01132 0.23535 0.85219 0.0
C103 C 0.09907 0.27746 0.88535 0.0
O104 O 0.04321 0.20322 0.81678 0.0
O105 O 0.03711 0.26916 0.81485 0.0
O106 O 0.93923 0.21249 0.83951 0.0
C107 C 0.04836 0.23626 0.80443 0.0
O108 O 0.11898 0.25008 0.87396 0.0
C109 C 0.92186 0.24782 0.83881 0.0
O110 O 0.05836 0.27781 0.88343 0.0
O111 O 0.94599 0.27803 0.84597 0.0
H112 H 0.96824 0.36603 0.40877 0.0
H113 H 0.94857 0.41265 0.44247 0.0
H114 H 0.07081 0.47209 0.44623 0.0
H115 H 0.091 0.42541 0.41267 0.0
H116 H 0.04952 0.45578 0.49505 0.0
H117 H 0.98356 0.51804 0.41454 0.0
H118 H 0.93829 0.52036 0.37147 0.0
H119 H 0.82861 0.48901 0.40845 0.0
H120 H 0.87338 0.48593 0.45173 0.0
H121 H 0.00192 0.6361 0.56366 0.0
H122 H 0.02184 0.58713 0.53133 0.0
H123 H 0.89853 0.52977 0.52765 0.0
H124 H 0.87809 0.57884 0.55979 0.0
H125 H 0.92001 0.54427 0.47907 0.0
H126 H -0.01438 0.48273 0.55965 0.0
H127 H 0.03077 0.48049 0.60277 0.0
H128 H 0.14084 0.51045 0.5658 0.0
H129 H 0.09622 0.51342 0.52247 0.0
C130 C -0.00902 0.38902 0.41672 0.0
C131 C 0.03118 0.39205 0.40796 0.0
C132 C 0.9796 0.41572 0.43592 0.0
C133 C 0.00811 0.44601 0.44665 0.0
C134 C 0.04837 0.44891 0.43815 0.0
C135 C 0.05976 0.4223 0.4189 0.0
C136 C -0.00397 0.47453 0.46688 0.0
C137 C 0.02152 0.47554 0.49147 0.0
C138 C 0.95892 0.4995 0.46234 0.0
C139 C 0.93192 0.50132 0.43634 0.0
C140 C 0.94986 0.51128 0.41346 0.0
C141 C 0.92428 0.5128 0.38902 0.0
C142 C 0.88062 0.50472 0.38722 0.0
C143 C 0.86244 0.4952 0.40987 0.0
C144 C 0.8879 0.49359 0.43437 0.0
C145 C 0.97907 0.61296 0.55609 0.0
C146 C 0.9384 0.61139 0.56433 0.0
C147 C -0.00942 0.58491 0.53769 0.0
C148 C 0.96176 0.55466 0.52727 0.0
C149 C 0.92123 0.5529 0.53549 0.0
C150 C 0.90968 0.58089 0.55392 0.0
C151 C 0.9735 0.52556 0.50726 0.0
C152 C 0.94796 0.52445 0.48268 0.0
C153 C 0.01055 0.50049 0.51182 0.0
C154 C 0.03749 0.49869 0.53785 0.0
C155 C 0.01939 0.48918 0.56074 0.0
C156 C 0.0449 0.48771 0.58521 0.0
C157 C 0.08863 0.49543 0.58703 0.0
C158 C 0.10695 0.50454 0.56436 0.0
C159 C 0.08158 0.50608 0.53984 0.0
H160 H 0.10832 0.49427 0.606 0.0
H161 H 0.86086 0.50594 0.36827 0.0
H162 H 0.4879 0.63686 0.4145 0.0
H163 H 0.47392 0.58699 0.44819 0.0
H164 H 0.54972 0.49612 0.4141 0.0
H165 H 0.56473 0.54607 0.38064 0.0
H166 H 0.46299 0.47066 0.42785 0.0
H167 H 0.59692 0.53433 0.46326 0.0
H168 H 0.6429 0.5939 0.47589 0.0
H169 H 0.55709 0.63393 0.52908 0.0
H170 H 0.51023 0.57489 0.51644 0.0
H171 H 0.48784 0.32165 0.53026 0.0
H172 H 0.49665 0.36951 0.49457 0.0
H173 H 0.46284 0.47085 0.54209 0.0
H174 H 0.45585 0.42328 0.57824 0.0
H175 H 0.52723 0.49179 0.52051 0.0
H176 H 0.39396 0.43087 0.4881 0.0
H177 H 0.34214 0.37602 0.47479 0.0
H178 H 0.41796 0.3353 0.4162 0.0
H179 H 0.47064 0.38952 0.42943 0.0
C180 C 0.50146 0.60622 0.4141 0.0
C181 C 0.52755 0.59538 0.395 0.0
C182 C 0.49346 0.57785 0.43334 0.0
C183 C 0.51084 0.53805 0.43352 0.0
C184 C 0.53602 0.52675 0.41416 0.0
C185 C 0.54472 0.55535 0.39519 0.0
C186 C 0.50381 0.50866 0.45451 0.0
C187 C 0.47737 0.47477 0.4481 0.0
C188 C 0.52152 0.51515 0.48092 0.0
C189 C 0.54985 0.55046 0.48868 0.0
C190 C 0.58765 0.55605 0.47746 0.0
C191 C 0.61391 0.58967 0.48466 0.0
C192 C 0.60286 0.61775 0.50322 0.0
C193 C 0.56558 0.61219 0.51468 0.0
C194 C 0.53918 0.57864 0.50751 0.0
C195 C 0.48219 0.35413 0.53305 0.0
C196 C 0.47131 0.36877 0.55706 0.0
C197 C 0.48692 0.38146 0.51256 0.0
C198 C 0.47989 0.42382 0.51546 0.0
C199 C 0.46853 0.43835 0.53936 0.0
C200 C 0.46447 0.41113 0.56001 0.0
C201 C 0.48616 0.45322 0.49408 0.0
C202 C 0.51259 0.48732 0.50035 0.0
C203 C 0.46766 0.44726 0.46761 0.0
C204 C 0.43646 0.41409 0.45992 0.0
C205 C 0.39982 0.40999 0.47255 0.0
C206 C 0.37022 0.37909 0.46496 0.0
C207 C 0.3767 0.3523 0.44461 0.0
C208 C 0.41293 0.35618 0.4319 0.0
C209 C 0.44267 0.38698 0.43944 0.0
H210 H 0.35367 0.32848 0.43871 0.0
H211 H 0.62324 0.64376 0.50877 0.0
H212 H 0.49047 0.14915 0.05522 0.0
H213 H 0.50528 0.10145 0.02079 0.0
H214 H 0.39492 0.03025 0.03304 0.0
H215 H 0.37987 0.07766 0.06756 0.0
H216 H 0.46476 0.98192 0.03125 0.0
H217 H 0.39037 0.08752 0.97828 0.0
H218 H 0.37301 0.15764 0.96151 0.0
H219 H 0.49877 0.16895 0.93939 0.0
H220 H 0.51689 0.09881 0.95605 0.0
H221 H 0.46277 0.85821 0.91663 0.0
H222 H 0.44228 0.90733 0.9488 0.0
H223 H 0.55521 0.97818 0.94211 0.0
H224 H 0.57607 0.92929 0.90997 0.0
H225 H 0.48139 0.02625 0.94045 0.0
H226 H 0.55421 0.91829 -0.00618 0.0
H227 H 0.56782 0.84661 0.00867 0.0
H228 H 0.44087 0.83911 0.02943 0.0
H229 H 0.42631 0.91061 0.01433 0.0
C230 C 0.46928 0.1234 0.05058 0.0
C231 C 0.43405 0.11715 0.06421 0.0
C232 C 0.47764 0.09632 0.03078 0.0
C233 C 0.451 0.06251 0.02427 0.0
C234 C 0.41582 0.0562 0.03778 0.0
C235 C 0.40726 0.08338 0.05746 0.0
C236 C 0.46081 0.0329 0.00401 0.0
C237 C 0.46776 0.99149 0.01128 0.0
C238 C 0.46544 0.04556 0.97812 0.0
C239 C 0.45511 0.08808 0.96865 0.0
C240 C 0.41446 0.1051 0.97007 0.0
C241 C 0.40442 0.14477 0.96047 0.0
C242 C 0.43481 0.16778 0.94946 0.0
C243 C 0.47528 0.15111 0.94796 0.0
C244 C 0.48541 0.11135 0.95739 0.0
C245 C 0.48325 0.88426 0.92196 0.0
C246 C 0.52114 0.88976 0.91079 0.0
C247 C 0.47154 0.9122 0.94039 0.0
C248 C 0.49741 0.94615 0.94791 0.0
C249 C 0.53486 0.95211 0.93654 0.0
C250 C 0.54678 0.92405 0.91826 0.0
C251 C 0.48555 0.97543 0.96777 0.0
C252 C 0.47828 0.01674 0.96041 0.0
C253 C 0.48028 0.9626 -0.00648 0.0
C254 C 0.48903 0.91965 0.00268 0.0
C255 C 0.52907 0.90124 0.00134 0.0
C256 C 0.53698 0.86067 0.00984 0.0
C257 C 0.50519 0.83828 0.01992 0.0
C258 C 0.46545 0.85646 0.02158 0.0
C259 C 0.45736 0.89702 0.01307 0.0
H260 H 0.51138 0.80687 0.0265 0.0
H261 H 0.42697 0.19848 0.94203 0.0
H262 H -0.00581 0.86275 0.06061 0.0
H263 H 0.01417 0.91062 0.02764 0.0
H264 H 0.89988 0.98193 0.03244 0.0
H265 H 0.87918 0.93379 0.06514 0.0
H266 H 0.91219 0.97044 0.98224 0.0
H267 H -0.00293 0.01488 0.06168 0.0
H268 H 0.04814 0.00656 0.10218 0.0
H269 H 0.14504 0.96671 0.05646 0.0
H270 H 0.09435 0.97426 0.0157 0.0
H271 H 0.97009 0.14882 0.91586 0.0
H272 H 0.95045 0.10076 0.94884 0.0
H273 H 0.0642 0.02911 0.94312 0.0
H274 H 0.08451 0.07737 0.91034 0.0
H275 H 0.05234 0.04061 -0.0063 0.0
H276 H 0.96746 0.99635 0.91426 0.0
H277 H 0.91636 0.00462 0.87378 0.0
H278 H 0.8194 0.04418 0.91953 0.0
H279 H 0.87012 0.03668 0.96029 0.0
C280 C 0.97329 0.88865 0.05473 0.0
C281 C 0.93511 0.89449 0.0656 0.0
C282 C -0.01513 0.91608 0.03594 0.0
C283 C 0.95876 0.9501 0.02783 0.0
C284 C 0.92051 0.95589 0.03847 0.0
C285 C 0.90881 0.9284 0.05722 0.0
C286 C 0.97108 0.97935 0.00796 0.0
C287 C 0.94258 0.98624 -0.0151 0.0
C288 C 0.01118 0.99915 0.01118 0.0
C289 C 0.04178 0.99477 0.03566 0.0
C290 C 0.02917 0.00405 0.06028 0.0
C291 C 0.05807 0.99952 0.08328 0.0
C292 C 0.09977 0.98601 0.0819 0.0
C293 C 0.11271 0.97712 0.0575 0.0
C294 C 0.08392 0.98155 0.03444 0.0
C295 C -0.00903 0.12283 0.92156 0.0
C296 C 0.02884 0.11689 0.91038 0.0
C297 C 0.97958 0.0953 0.94035 0.0
C298 C 0.00562 0.06112 0.94819 0.0
C299 C 0.04362 0.05527 0.93729 0.0
C300 C 0.0551 0.08283 0.9185 0.0
C301 C -0.00658 0.03173 0.96801 0.0
C302 C 0.02195 0.02481 -0.00895 0.0
C303 C 0.95334 0.01192 0.96478 0.0
C304 C 0.92273 0.01633 0.9403 0.0
C305 C 0.93535 0.00713 0.91568 0.0
C306 C 0.90643 0.01162 0.89268 0.0
C307 C 0.86469 0.02502 0.89408 0.0
C308 C 0.85175 0.03385 0.91848 0.0
C309 C 0.88056 0.02945 0.94153 0.0
H310 H 0.84235 0.02848 0.87625 0.0
H311 H 0.1221 0.98253 0.09973 0.0
H312 H 0.60638 0.17025 0.16035 0.0
H313 H 0.67141 0.17459 0.19176 0.0
H314 H 0.66292 0.30703 0.18916 0.0
H315 H 0.5979 0.30301 0.15746 0.0
H316 H 0.746 0.27911 0.19323 0.0
H317 H 0.62193 0.25645 0.23626 0.0
H318 H 0.55643 0.22056 0.24438 0.0
H319 H 0.62901 0.11019 0.26467 0.0
H320 H 0.6949 0.14528 0.25628 0.0
H321 H 0.86794 0.3266 0.31291 0.0
H322 H 0.80417 0.31886 0.28087 0.0
H323 H 0.82013 0.18703 0.28409 0.0
H324 H 0.88419 0.19445 0.31636 0.0
H325 H 0.73427 0.21277 0.27942 0.0
H326 H 0.85889 0.23657 0.23732 0.0
H327 H 0.92411 0.27323 0.22952 0.0
H328 H 0.85011 0.38226 0.20773 0.0
H329 H 0.78449 0.34642 0.21581 0.0
C330 C 0.61886 0.20035 0.16596 0.0
C331 C 0.59672 0.23631 0.15668 0.0
C332 C 0.6559 0.20274 0.18402 0.0
C333 C 0.6713 0.24109 0.19323 0.0
C334 C 0.65129 0.27712 0.18242 0.0
C335 C 0.61421 0.27477 0.16427 0.0
C336 C 0.70612 0.24351 0.21556 0.0
C337 C 0.74329 0.26497 0.21214 0.0
C338 C 0.70276 0.22443 0.2401 0.0
C339 C 0.66326 0.20336 0.24538 0.0
C340 C 0.62387 0.22443 0.24226 0.0
C341 C 0.58668 0.20426 0.24694 0.0
C342 C 0.58854 0.16309 0.25497 0.0
C343 C 0.62761 0.14205 0.25841 0.0
C344 C 0.66489 0.16208 0.25371 0.0
C345 C 0.85741 0.29587 0.3073 0.0
C346 C 0.8814 0.26112 0.31691 0.0
C347 C 0.82106 0.29155 0.28889 0.0
C348 C 0.80813 0.25245 0.2797 0.0
C349 C 0.82989 0.21749 0.29083 0.0
C350 C 0.86639 0.22178 0.3093 0.0
C351 C 0.77404 0.24848 0.2571 0.0
C352 C 0.73702 0.22676 0.26047 0.0
C353 C 0.77749 0.2674 0.23253 0.0
C354 C 0.81684 0.28893 0.22742 0.0
C355 C 0.85657 0.26846 0.23106 0.0
C356 C 0.8936 0.28907 0.22657 0.0
C357 C 0.89127 0.33008 0.2182 0.0
C358 C 0.85187 0.35052 0.21425 0.0
C359 C 0.81474 0.33006 0.21877 0.0
H360 H 0.91998 0.34599 0.21472 0.0
H361 H 0.55971 0.14752 0.25858 0.0
H362 H 0.5871 0.19502 0.67715 0.0
H363 H 0.64847 0.19655 0.71177 0.0
H364 H 0.65608 0.32817 0.7029 0.0
H365 H 0.59505 0.32691 0.6682 0.0
H366 H 0.73451 0.29166 0.70804 0.0
H367 H 0.61048 0.28894 0.75271 0.0
H368 H 0.54174 0.26227 0.76301 0.0
H369 H 0.60191 0.14729 0.78796 0.0
H370 H 0.67093 0.17308 0.77744 0.0
H371 H 0.88058 0.31974 0.82271 0.0
H372 H 0.81229 0.32642 0.79408 0.0
H373 H 0.79472 0.19519 0.79804 0.0
H374 H 0.86241 0.18834 0.82679 0.0
H375 H 0.71928 0.23615 0.79665 0.0
H376 H 0.8409 0.23592 0.74883 0.0
H377 H 0.90997 0.26078 0.73786 0.0
H378 H 0.85434 0.37963 0.71818 0.0
H379 H 0.78505 0.3556 0.72941 0.0
C380 C 0.60215 0.22421 0.68237 0.0
C381 C 0.58614 0.26086 0.67004 0.0
C382 C 0.63699 0.22508 0.70226 0.0
C383 C 0.65632 0.26258 0.71017 0.0
C384 C 0.64146 0.29896 0.69717 0.0
C385 C 0.60658 0.29815 0.67736 0.0
C386 C 0.69167 0.26399 0.73224 0.0
C387 C 0.73098 0.28015 0.72753 0.0
C388 C 0.6872 0.24833 0.75754 0.0
C389 C 0.6458 0.23283 0.76406 0.0
C390 C 0.609 0.25786 0.7602 0.0
C391 C 0.56999 0.24292 0.76611 0.0
C392 C 0.56744 0.20308 0.77607 0.0
C393 C 0.60393 0.17813 0.78021 0.0
C394 C 0.64301 0.19291 0.7743 0.0
C395 C 0.86159 0.29249 0.81807 0.0
C396 C 0.87708 0.25346 0.82671 0.0
C397 C 0.82273 0.29631 0.80159 0.0
C398 C 0.79894 0.26117 0.79352 0.0
C399 C 0.81269 0.22266 0.8039 0.0
C400 C 0.85146 0.21881 0.82029 0.0
C401 C 0.76212 0.26365 0.77239 0.0
C402 C 0.7226 0.24811 0.77724 0.0
C403 C 0.76642 0.27969 0.74715 0.0
C404 C 0.80796 0.29412 0.74026 0.0
C405 C 0.8435 0.26745 0.74236 0.0
C406 C 0.88266 0.28137 0.73607 0.0
C407 C 0.88657 0.3218 0.7274 0.0
C408 C 0.85128 0.34835 0.72495 0.0
C409 C 0.81206 0.3346 0.73127 0.0
H410 H 0.91692 0.33252 0.72253 0.0
H411 H 0.53721 0.19156 0.78064 0.0
H412 H 0.09477 0.67642 0.66136 0.0
H413 H 0.15933 0.68265 0.69291 0.0
H414 H 0.15422 0.81457 0.68379 0.0
H415 H 0.0893 0.80866 0.65201 0.0
H416 H 0.23774 0.78165 0.68861 0.0
H417 H 0.11359 0.77516 0.73318 0.0
H418 H 0.04595 0.74593 0.74351 0.0
H419 H 0.11091 0.63372 0.76964 0.0
H420 H 0.17887 0.66208 0.75907 0.0
H421 H 0.36749 0.8325 0.80586 0.0
H422 H 0.30372 0.82714 0.77355 0.0
H423 H 0.30574 0.69529 0.78326 0.0
H424 H 0.36976 0.70034 0.81581 0.0
H425 H 0.22372 0.72861 0.77805 0.0
H426 H 0.34779 0.73483 0.73355 0.0
H427 H 0.41549 0.76367 0.72304 0.0
H428 H 0.35092 0.87597 0.69667 0.0
H429 H 0.2829 0.84799 0.70741 0.0
C430 C 0.10776 0.70676 0.66563 0.0
C431 C 0.08666 0.74212 0.65443 0.0
C432 C 0.14458 0.71023 0.68375 0.0
C433 C 0.16093 0.74909 0.69104 0.0
C434 C 0.14183 0.78432 0.67849 0.0
C435 C 0.10483 0.78089 0.66034 0.0
C436 C 0.19604 0.75287 0.71306 0.0
C437 C 0.23455 0.77057 0.70825 0.0
C438 C 0.19197 0.73764 0.73852 0.0
C439 C 0.15123 0.7206 0.74509 0.0
C440 C 0.11339 0.74413 0.74093 0.0
C441 C 0.075 0.72774 0.74685 0.0
C442 C 0.07411 0.68795 0.75716 0.0
C443 C 0.11164 0.66451 0.76162 0.0
C444 C 0.15011 0.68074 0.75568 0.0
C445 C 0.354 0.80237 0.80151 0.0
C446 C 0.3739 0.76676 0.8132 0.0
C447 C 0.31767 0.79939 0.78294 0.0
C448 C 0.30063 0.76078 0.77566 0.0
C449 C 0.31867 0.72536 0.78853 0.0
C450 C 0.35516 0.7283 0.80714 0.0
C451 C 0.26548 0.75736 0.75362 0.0
C452 C 0.22693 0.73972 0.75843 0.0
C453 C 0.26954 0.77263 0.72815 0.0
C454 C 0.31034 0.78947 0.72154 0.0
C455 C 0.34809 0.7658 0.72572 0.0
C456 C 0.38651 0.78197 0.71969 0.0
C457 C 0.38753 0.82167 0.70926 0.0
C458 C 0.35009 0.84524 0.70479 0.0
C459 C 0.31159 0.82924 0.71083 0.0
H460 H 0.4173 0.83413 0.7046 0.0
H461 H 0.04437 0.67531 0.76174 0.0
H462 H 0.35353 0.6696 0.31523 0.0
H463 H 0.28818 0.67734 0.28432 0.0
H464 H 0.30729 0.80843 0.28185 0.0
H465 H 0.3727 0.80103 0.31306 0.0
H466 H 0.22132 0.78713 0.27795 0.0
H467 H 0.34532 0.75148 0.23751 0.0
H468 H 0.40909 0.71005 0.23189 0.0
H469 H 0.33084 0.60351 0.21499 0.0
H470 H 0.26663 0.64419 0.22094 0.0
H471 H 0.09874 0.82769 0.15659 0.0
H472 H 0.1628 0.82138 0.18874 0.0
H473 H 0.14726 0.68974 0.19048 0.0
H474 H 0.08328 0.69572 0.15797 0.0
H475 H 0.23155 0.71187 0.19485 0.0
H476 H 0.10742 0.74769 0.23522 0.0
H477 H 0.04375 0.78921 0.24096 0.0
H478 H 0.12224 0.89558 0.25794 0.0
H479 H 0.18634 0.8548 0.2519 0.0
C480 C 0.34322 0.70024 0.30872 0.0
C481 C 0.36857 0.73466 0.31624 0.0
C482 C 0.30598 0.70456 0.29097 0.0
C483 C 0.29366 0.74329 0.28032 0.0
C484 C 0.31657 0.77823 0.28972 0.0
C485 C 0.35385 0.77396 0.3076 0.0
C486 C 0.25974 0.74665 0.25754 0.0
C487 C 0.22371 0.77108 0.25968 0.0
C488 C 0.26276 0.72519 0.23385 0.0
C489 C 0.30123 0.70078 0.22992 0.0
C490 C 0.34175 0.71915 0.23278 0.0
C491 C 0.37797 0.69581 0.22951 0.0
C492 C 0.37403 0.65415 0.22315 0.0
C493 C 0.33384 0.63577 0.21996 0.0
C494 C 0.29752 0.65896 0.22326 0.0
C495 C 0.1095 0.79727 0.16332 0.0
C496 C 0.08569 0.76222 0.15503 0.0
C497 C 0.14597 0.79377 0.1818 0.0
C498 C 0.15901 0.75523 0.19247 0.0
C499 C 0.13742 0.71981 0.18262 0.0
C500 C 0.10096 0.72327 0.164 0.0
C501 C 0.193 0.75225 0.21526 0.0
C502 C 0.2291 0.72792 0.21311 0.0
C503 C 0.19004 0.77383 0.23893 0.0
C504 C 0.15161 0.79829 0.24286 0.0
C505 C 0.11106 0.78001 0.24 0.0
C506 C 0.0749 0.80339 0.24333 0.0
C507 C 0.07894 0.84503 0.24975 0.0
C508 C 0.11916 0.86333 0.25293 0.0
C509 C 0.15542 0.8401 0.24958 0.0
H510 H 0.0509 0.86309 0.25231 0.0
H511 H 0.40211 0.63613 0.22063 0.0
H512 H 0.40318 0.295 0.20167 0.0
H513 H 0.34097 0.30326 0.22476 0.0
H514 H 0.30837 0.17602 0.21013 0.0
H515 H 0.37028 0.16758 0.1867 0.0
H516 H 0.24272 0.22726 0.19324 0.0
H517 H 0.34139 0.20849 0.27185 0.0
H518 H 0.40633 0.22125 0.30302 0.0
H519 H 0.36633 0.34627 0.31205 0.0
H520 H 0.3014 0.33443 0.28062 0.0
H521 H 0.0764 0.21297 0.27324 0.0
H522 H 0.1392 0.20625 0.2506 0.0
H523 H 0.16934 0.3338 0.26615 0.0
H524 H 0.10676 0.34068 0.28921 0.0
H525 H 0.23623 0.28359 0.2824 0.0
H526 H 0.13714 0.30204 0.20403 0.0
H527 H 0.07198 0.28894 0.17312 0.0
H528 H 0.11275 0.16425 0.16376 0.0
H529 H 0.1779 0.17642 0.19493 0.0
C530 C 0.3833 0.26853 0.20386 0.0
C531 C 0.39127 0.23077 0.19212 0.0
C532 C 0.34783 0.27329 0.21711 0.0
C533 C 0.32006 0.24028 0.21902 0.0
C534 C 0.32938 0.20189 0.20871 0.0
C535 C 0.36485 0.19709 0.19545 0.0
C536 C 0.27929 0.24685 0.22953 0.0
C537 C 0.24125 0.23896 0.2129 0.0
C538 C 0.27759 0.26341 0.25482 0.0
C539 C 0.31671 0.27067 0.27366 0.0
C540 C 0.34662 0.23882 0.28028 0.0
C541 C 0.3834 0.24586 0.29804 0.0
C542 C 0.39051 0.28458 0.30945 0.0
C543 C 0.36081 0.31631 0.30317 0.0
C544 C 0.32399 0.30944 0.2854 0.0
C545 C 0.09588 0.23983 0.27138 0.0
C546 C 0.08694 0.27724 0.28321 0.0
C547 C 0.1317 0.23596 0.25838 0.0
C548 C 0.15888 0.26952 0.25678 0.0
C549 C 0.14875 0.30753 0.26731 0.0
C550 C 0.1129 0.31144 0.28032 0.0
C551 C 0.19967 0.26387 0.24614 0.0
C552 C 0.23771 0.27196 0.26272 0.0
C553 C 0.20139 0.24748 0.22081 0.0
C554 C 0.16225 0.24006 0.20201 0.0
C555 C 0.13205 0.27173 0.19556 0.0
C556 C 0.09515 0.26448 0.17795 0.0
C557 C 0.08818 0.22576 0.16653 0.0
C558 C 0.11817 0.19422 0.17265 0.0
C559 C 0.15512 0.20129 0.19026 0.0
H560 H 0.05959 0.22021 0.1529 0.0
H561 H 0.41899 0.28996 0.32321 0.0
H562 H 0.35464 0.32213 0.67609 0.0
H563 H 0.29236 0.31673 0.69961 0.0
H564 H 0.29193 0.18517 0.68895 0.0
H565 H 0.35428 0.19021 0.66569 0.0
H566 H 0.21255 0.28737 0.68192 0.0
H567 H 0.259 0.14041 0.74311 0.0
H568 H 0.32383 0.10395 0.76363 0.0
H569 H 0.39224 0.21787 0.77042 0.0
H570 H 0.32769 0.25507 0.75028 0.0
H571 H 0.08061 0.1712 0.77977 0.0
H572 H 0.13465 0.17336 0.74981 0.0
H573 H 0.13401 0.306 0.75294 0.0
H574 H 0.07927 0.30411 0.78217 0.0
H575 H 0.21255 0.20098 0.76192 0.0
H576 H 0.16672 0.34726 0.6987 0.0
H577 H 0.10191 0.38386 0.67836 0.0
H578 H 0.03133 0.27125 0.67566 0.0
H579 H 0.09584 0.23385 0.69561 0.0
C580 C 0.34148 0.29204 0.67897 0.0
C581 C 0.35937 0.25657 0.66915 0.0
C582 C 0.30582 0.28904 0.69225 0.0
C583 C 0.28777 0.25056 0.69607 0.0
C584 C 0.30573 0.2151 0.68643 0.0
C585 C 0.34131 0.21806 0.67315 0.0
C586 C 0.24979 0.24747 0.7099 0.0
C587 C 0.21256 0.26888 0.69959 0.0
C588 C 0.2497 0.22237 0.73247 0.0
C589 C 0.28862 0.20042 0.74491 0.0
C590 C 0.28784 0.15768 0.74906 0.0
C591 C 0.32454 0.13689 0.76062 0.0
C592 C 0.36217 0.15856 0.76823 0.0
C593 C 0.36313 0.2011 0.7644 0.0
C594 C 0.32651 0.22204 0.75288 0.0
C595 C 0.09134 0.20082 0.77359 0.0
C596 C 0.07593 0.23747 0.78342 0.0
C597 C 0.12228 0.202 0.75656 0.0
C598 C 0.13828 0.23982 0.7491 0.0
C599 C 0.12164 0.27648 0.75806 0.0
C600 C 0.09047 0.27534 0.77489 0.0
C601 C 0.17504 0.24094 0.734 0.0
C602 C 0.21222 0.21922 0.74411 0.0
C603 C 0.175 0.26573 0.71124 0.0
C604 C 0.13608 0.28783 0.69888 0.0
C605 C 0.13743 0.33026 0.69365 0.0
C606 C 0.10073 0.35116 0.68221 0.0
C607 C 0.0625 0.32992 0.6758 0.0
C608 C 0.06092 0.2877 0.68073 0.0
C609 C 0.09754 0.26664 0.69214 0.0
H610 H 0.03411 0.34616 0.66697 0.0
H611 H 0.39055 0.1424 0.77716 0.0
H612 H 0.59649 0.83615 0.78828 0.0
H613 H 0.65711 0.83083 0.7634 0.0
H614 H 0.64353 0.69887 0.7609 0.0
H615 H 0.58243 0.70399 0.7852 0.0
H616 H 0.73155 0.79318 0.77886 0.0
H617 H 0.67913 0.66106 0.70646 0.0
H618 H 0.6132 0.63385 0.68148 0.0
H619 H 0.5544 0.75331 0.68139 0.0
H620 H 0.62016 0.78137 0.70603 0.0
H621 H 0.86649 0.67445 0.68514 0.0
H622 H 0.80724 0.68069 0.71102 0.0
H623 H 0.82092 0.81266 0.71181 0.0
H624 H 0.8806 0.80666 0.6863 0.0
H625 H 0.73292 0.71892 0.69466 0.0
H626 H 0.78533 0.85111 0.76699 0.0
H627 H 0.85122 0.87836 0.79199 0.0
H628 H 0.91011 0.75894 0.7921 0.0
H629 H 0.8444 0.73085 0.76743 0.0
C630 C 0.60596 0.80608 0.78201 0.0
C631 C 0.58482 0.77047 0.78873 0.0
C632 C 0.64069 0.80309 0.76793 0.0
C633 C 0.65472 0.7645 0.76029 0.0
C634 C 0.63285 0.72901 0.76629 0.0
C635 C 0.59799 0.73199 0.78023 0.0
C636 C 0.69367 0.76106 0.74736 0.0
C637 C 0.73176 0.77753 0.76023 0.0
C638 C 0.69404 0.7396 0.72346 0.0
C639 C 0.65447 0.7232 0.70832 0.0
C640 C 0.6522 0.68156 0.70101 0.0
C641 C 0.61484 0.66598 0.68693 0.0
C642 C 0.57959 0.6918 0.67993 0.0
C643 C 0.58167 0.7333 0.68692 0.0
C644 C 0.61896 0.74905 0.70098 0.0
C645 C 0.85739 0.70474 0.69124 0.0
C646 C 0.87794 0.7401 0.68355 0.0
C647 C 0.82347 0.70824 0.70593 0.0
C648 C 0.80973 0.7471 0.71328 0.0
C649 C 0.83135 0.78234 0.70657 0.0
C650 C 0.86536 0.77887 0.69194 0.0
C651 C 0.77082 0.75096 0.72619 0.0
C652 C 0.73271 0.7346 0.71329 0.0
C653 C 0.77046 0.77255 0.75003 0.0
C654 C 0.81005 0.789 0.76511 0.0
C655 C 0.81228 0.83064 0.77243 0.0
C656 C 0.84961 0.84624 0.78653 0.0
C657 C 0.88487 0.82043 0.79355 0.0
C658 C 0.88283 0.77894 0.78655 0.0
C659 C 0.84557 0.76318 0.77247 0.0
H660 H 0.91374 0.83258 0.80446 0.0
H661 H 0.55069 0.67967 0.66905 0.0
H662 H 0.88764 0.7055 0.19467 0.0
H663 H 0.82361 0.69695 0.21592 0.0
H664 H 0.79686 0.82697 0.20734 0.0
H665 H 0.86047 0.83572 0.18555 0.0
H666 H 0.79025 0.72697 0.25795 0.0
H667 H 0.69062 0.83913 0.18591 0.0
H668 H 0.69195 0.86834 0.14151 0.0
H669 H 0.75991 0.76185 0.11964 0.0
H670 H 0.7583 0.73168 0.1637 0.0
H671 H 0.56104 0.79068 0.26787 0.0
H672 H 0.62432 0.79936 0.24584 0.0
H673 H 0.64836 0.66863 0.25109 0.0
H674 H 0.5855 0.65967 0.27353 0.0
H675 H 0.65605 0.76853 0.20198 0.0
H676 H 0.75126 0.65368 0.2716 0.0
H677 H 0.74834 0.62194 0.31517 0.0
H678 H 0.68963 0.73128 0.34087 0.0
H679 H 0.69192 0.76358 0.29742 0.0
C680 C 0.8686 0.73243 0.19775 0.0
C681 C 0.87855 0.77116 0.188 0.0
C682 C 0.83209 0.72748 0.20995 0.0
C683 C 0.8051 0.76116 0.21259 0.0
C684 C 0.81694 0.80048 0.20495 0.0
C685 C 0.85336 0.80544 0.19264 0.0
C686 C 0.76289 0.75445 0.22115 0.0
C687 C 0.76093 0.73575 0.24563 0.0
C688 C 0.72468 0.7661 0.20506 0.0
C689 C 0.72473 0.7834 0.17821 0.0
C690 C 0.70563 0.82186 0.17157 0.0
C691 C 0.70645 0.83858 0.14646 0.0
C692 C 0.72614 0.81702 0.12779 0.0
C693 C 0.7448 0.77857 0.13413 0.0
C694 C 0.74394 0.76165 0.15917 0.0
C695 C 0.57925 0.76364 0.26383 0.0
C696 C 0.56885 0.72459 0.27288 0.0
C697 C 0.61533 0.76868 0.25121 0.0
C698 C 0.64141 0.73476 0.24748 0.0
C699 C 0.62896 0.69526 0.25432 0.0
C700 C 0.59296 0.69019 0.267 0.0
C701 C 0.68351 0.74126 0.23878 0.0
C702 C 0.68544 0.75987 0.21427 0.0
C703 C 0.72168 0.72929 0.25474 0.0
C704 C 0.72146 0.71083 0.28123 0.0
C705 C 0.73786 0.67097 0.2866 0.0
C706 C 0.73613 0.65284 0.31122 0.0
C707 C 0.71839 0.67446 0.33067 0.0
C708 C 0.70284 0.71444 0.32567 0.0
C709 C 0.70428 0.73263 0.30105 0.0
H710 H 0.71675 0.66025 0.34963 0.0
H711 H 0.72685 0.83007 0.1084 0.0
H712 H 0.43109 0.16452 0.54038 0.0
H713 H 0.38023 0.13658 0.5043 0.0
H714 H 0.27545 0.18689 0.54025 0.0
H715 H 0.3257 0.21507 0.57574 0.0
H716 H 0.25537 0.11115 0.51426 0.0
H717 H 0.3194 0.24583 0.5001 0.0
H718 H 0.38209 0.2897 0.49735 0.0
H719 H 0.41972 0.21289 0.43637 0.0
H720 H 0.35761 0.16813 0.43914 0.0
H721 H 0.09146 0.2096 0.43049 0.0
H722 H 0.14641 0.17705 0.46212 0.0
H723 H 0.22238 0.15316 0.39971 0.0
H724 H 0.16839 0.18771 0.36844 0.0
H725 H 0.26637 0.19484 0.43438 0.0
H726 H 0.18662 0.07347 0.43966 0.0
H727 H 0.12382 0.03032 0.44325 0.0
H728 H 0.11452 0.07971 0.51984 0.0
H729 H 0.17687 0.12364 0.51659 0.0
C730 C 0.39714 0.16847 0.54085 0.0
C731 C 0.38216 0.19243 0.56047 0.0
C732 C 0.36819 0.15249 0.52035 0.0
C733 C 0.32413 0.15991 0.5196 0.0
C734 C 0.30924 0.18064 0.54051 0.0
C735 C 0.338 0.19709 0.56062 0.0
C736 C 0.29392 0.15329 0.49537 0.0
C737 C 0.25771 0.12896 0.49658 0.0
C738 C 0.29765 0.1759 0.4722 0.0
C739 C 0.33431 0.20335 0.47009 0.0
C740 C 0.34123 0.23817 0.48624 0.0
C741 C 0.37666 0.26314 0.48471 0.0
C742 C 0.40503 0.25391 0.46682 0.0
C743 C 0.39785 0.21986 0.45031 0.0
C744 C 0.36257 0.19466 0.45187 0.0
C745 C 0.1191 0.19586 0.42343 0.0
C746 C 0.12598 0.20123 0.39718 0.0
C747 C 0.15056 0.17709 0.4415 0.0
C748 C 0.18881 0.16261 0.43338 0.0
C749 C 0.1934 0.16427 0.40652 0.0
C750 C 0.16248 0.18383 0.38865 0.0
C751 C 0.22655 0.15335 0.45321 0.0
C752 C 0.26425 0.17527 0.45135 0.0
C753 C 0.22399 0.12841 0.47567 0.0
C754 C 0.18644 0.10199 0.47782 0.0
C755 C 0.17104 0.07535 0.45721 0.0
C756 C 0.13553 0.05071 0.45919 0.0
C757 C 0.11518 0.0523 0.48175 0.0
C758 C 0.13034 0.07849 0.50239 0.0
C759 C 0.16584 0.10321 0.5005 0.0
H760 H 0.08768 0.0332 0.48324 0.0
H761 H 0.43243 0.27328 0.46566 0.0
H762 H 0.90927 0.8102 0.53873 0.0
H763 H 0.86866 0.84016 0.49896 0.0
H764 H 0.75317 0.83262 0.53512 0.0
H765 H 0.79339 0.8038 0.57465 0.0
H766 H 0.81363 0.79442 0.47114 0.0
H767 H 0.67418 0.89005 0.50718 0.0
H768 H 0.66589 0.94545 0.5388 0.0
H769 H 0.79555 0.98227 0.53659 0.0
H770 H 0.80451 0.92753 0.50464 0.0
H771 H 0.58196 0.78448 0.42009 0.0
H772 H 0.63641 0.81725 0.45163 0.0
H773 H 0.71709 0.83158 0.39065 0.0
H774 H 0.6635 0.79742 0.35945 0.0
H775 H 0.68597 0.88563 0.45999 0.0
H776 H 0.81761 0.80148 0.41537 0.0
H777 H 0.82803 0.74394 0.38555 0.0
H778 H 0.71747 0.68388 0.40764 0.0
H779 H 0.70682 0.74078 0.43789 0.0
C780 C 0.87554 0.81655 0.53852 0.0
C781 C 0.85432 0.80397 0.55956 0.0
C782 C 0.85234 0.8336 0.51578 0.0
C783 C 0.80777 0.83863 0.51394 0.0
C784 C 0.7875 0.82978 0.53603 0.0
C785 C 0.81054 0.81275 0.55861 0.0
C786 C 0.78117 0.84424 0.48798 0.0
C787 C 0.78662 0.8155 0.46836 0.0
C788 C 0.74542 0.87119 0.48441 0.0
C789 C 0.74004 0.9045 0.5035 0.0
C790 C 0.70086 0.91013 0.51325 0.0
C791 C 0.69606 0.94139 0.53129 0.0
C792 C 0.73018 0.96732 0.53972 0.0
C793 C 0.76917 0.96209 0.5301 0.0
C794 C 0.77415 0.93089 0.51205 0.0
C795 C 0.61076 0.7958 0.4133 0.0
C796 C 0.61908 0.78776 0.3876 0.0
C797 C 0.64183 0.8146 0.43128 0.0
C798 C 0.68125 0.82593 0.42363 0.0
C799 C 0.6873 0.82228 0.39711 0.0
C800 C 0.65672 0.80275 0.37933 0.0
C801 C 0.71787 0.83476 0.44406 0.0
C802 C 0.71403 0.8659 0.4625 0.0
C803 C 0.75528 0.81 0.44669 0.0
C804 C 0.76116 0.7756 0.42859 0.0
C805 C 0.79557 0.77596 0.41385 0.0
C806 C 0.80154 0.74347 0.39692 0.0
C807 C 0.77341 0.71033 0.39469 0.0
C808 C 0.7392 0.70961 0.40937 0.0
C809 C 0.73318 0.74197 0.42641 0.0
H810 H 0.7783 0.68511 0.3817 0.0
H811 H 0.7264 0.99149 0.5537 0.0
H812 H 0.7855 0.71 0.08791 0.0
H813 H 0.74166 0.67443 0.05278 0.0
H814 H 0.85283 0.65124 0.01429 0.0
H815 H 0.89715 0.68806 0.04952 0.0
H816 H 0.7956 0.6922 0.98341 0.0
H817 H 0.78958 0.57012 0.03227 0.0
H818 H 0.78316 0.52596 0.07071 0.0
H819 H 0.65484 0.56923 0.0721 0.0
H820 H 0.66061 0.61415 0.03392 0.0
H821 H 0.64323 0.66951 0.87747 0.0
H822 H 0.69404 0.63534 0.91092 0.0
H823 H 0.61947 0.67462 0.97103 0.0
H824 H 0.56757 0.70728 0.93735 0.0
H825 H 0.66862 0.60419 -0.01372 0.0
H826 H 0.68735 0.74123 0.94959 0.0
H827 H 0.69243 0.78894 0.91258 0.0
H828 H 0.79772 0.71887 0.89064 0.0
H829 H 0.79279 0.67041 0.92734 0.0
C830 C 0.80092 0.69649 0.07233 0.0
C831 C 0.84462 0.7026 0.07117 0.0
C832 C 0.77581 0.67553 0.05236 0.0
C833 C 0.79386 0.65993 0.03084 0.0
C834 C 0.83824 0.66292 0.03075 0.0
C835 C 0.86353 0.68396 0.05087 0.0
C836 C 0.76515 0.64872 0.00661 0.0
C837 C 0.76878 0.67165 -0.0162 0.0
C838 C 0.72947 0.62271 0.0072 0.0
C839 C 0.7256 0.59562 0.03017 0.0
C840 C 0.76005 0.57044 0.04085 0.0
C841 C 0.75652 0.54522 0.0626 0.0
C842 C 0.71862 0.54479 0.07384 0.0
C843 C 0.68416 0.56955 0.06334 0.0
C844 C 0.68751 0.59483 0.04159 0.0
C845 C 0.63658 0.66888 0.89767 0.0
C846 C 0.60192 0.69119 0.90502 0.0
C847 C 0.66562 0.64943 0.91676 0.0
C848 C 0.66113 0.65346 0.9435 0.0
C849 C 0.6236 0.67125 0.9505 0.0
C850 C 0.59395 0.68996 0.93128 0.0
C851 C 0.6989 0.64856 0.96381 0.0
C852 C 0.69662 0.62311 -0.01427 0.0
C853 C 0.73588 0.67252 0.96268 0.0
C854 C 0.73938 0.702 0.94094 0.0
C855 C 0.71144 0.73594 0.93678 0.0
C856 C 0.71428 0.76308 0.91587 0.0
C857 C 0.7453 0.75687 0.89922 0.0
C858 C 0.77364 0.72358 0.90351 0.0
C859 C 0.77084 0.69626 0.92435 0.0
H860 H 0.74744 0.7779 0.88303 0.0
H861 H 0.71596 0.52526 0.09069 0.0
H862 H 0.2971 0.30476 0.09149 0.0
H863 H 0.25493 0.3375 0.05386 0.0
H864 H 0.36932 0.35876 0.01853 0.0
H865 H 0.41193 0.32481 0.05605 0.0
H866 H 0.24494 0.40418 0.01989 0.0
H867 H 0.35422 0.31861 0.95991 0.0
H868 H 0.41203 0.26655 0.96664 0.0
H869 H 0.35067 0.20798 0.02664 0.0
H870 H 0.29241 0.25952 0.02008 0.0
H871 H 0.17364 0.31215 0.87692 0.0
H872 H 0.22551 0.34518 0.90962 0.0
H873 H 0.13625 0.33827 0.96628 0.0
H874 H 0.08363 0.30662 0.93315 0.0
H875 H 0.25819 0.30243 0.94954 0.0
H876 H 0.16402 0.3999 0.01824 0.0
H877 H 0.10507 0.45055 0.01422 0.0
H878 H 0.13067 0.48324 0.93665 0.0
H879 H 0.19018 0.43324 0.94031 0.0
C880 C 0.31356 0.3175 0.07611 0.0
C881 C 0.35763 0.31091 0.07625 0.0
C882 C 0.28937 0.33671 0.05471 0.0
C883 C 0.30884 0.34957 0.03311 0.0
C884 C 0.35364 0.34845 0.0349 0.0
C885 C 0.37796 0.32898 0.05634 0.0
C886 C 0.2819 0.354 0.00727 0.0
C887 C 0.24789 0.38239 0.00427 0.0
C888 C 0.28607 0.3257 -0.01313 0.0
C889 C 0.31932 0.29304 -0.01034 0.0
C890 C 0.35296 0.29439 0.97435 0.0
C891 C 0.38582 0.26506 0.97819 0.0
C892 C 0.38513 0.23412 -0.00284 0.0
C893 C 0.35124 0.23204 0.01203 0.0
C894 C 0.31829 0.26125 0.00824 0.0
C895 C 0.16458 0.31908 0.89609 0.0
C896 C 0.12491 0.30651 0.90268 0.0
C897 C 0.19423 0.33796 0.91475 0.0
C898 C 0.18503 0.34402 0.9405 0.0
C899 C 0.14399 0.33456 0.94647 0.0
C900 C 0.11392 0.31629 0.92756 0.0
C901 C 0.22033 0.35245 0.96195 0.0
C902 C 0.2558 0.32575 0.96437 0.0
C903 C 0.21699 0.38209 0.98177 0.0
C904 C 0.18149 0.41259 0.97951 0.0
C905 C 0.15728 0.41806 0.00038 0.0
C906 C 0.12371 0.44663 -0.00185 0.0
C907 C 0.11408 0.47004 0.97518 0.0
C908 C 0.13807 0.465 0.9544 0.0
C909 C 0.17169 0.43649 0.95653 0.0
H910 H 0.08806 0.49212 0.97349 0.0
H911 H 0.41085 0.21176 0.00034 0.0
loop_
_geom_bond_atom_site_label_1
_geom_bond_atom_site_label_2
_geom_bond_distance
_geom_bond_site_symmetry_2
_ccdc_geom_bond_type
C0 O1 1.306 . S
C0 O3 1.160 . S
O1 C0 1.306 . S
O1 Cd2 2.228 . S
Cd2 O1 2.228 . S
Cd2 O6 2.273 . S
Cd2 O10 2.277 . S
O3 C0 1.160 . S
O3 Cd4 2.203 . S
Cd4 O3 2.203 . S
Cd4 O6 2.411 . S
Cd4 O7 2.333 . S
Cd4 O8 2.352 1_455 S
Cd4 O12 2.277 . S
Cd4 O13 2.356 1_455 S
C5 O10 1.209 . S
C5 O12 1.226 . S
O6 Cd2 2.273 . S
O6 Cd4 2.411 . S
O6 C9 1.320 . S
O7 Cd4 2.333 . S
O7 C9 1.214 . S
O8 Cd4 2.352 1_655 S
O8 C11 1.258 . S
C9 O6 1.320 . S
C9 O7 1.214 . S
O10 Cd2 2.277 . S
O10 C5 1.209 . S
C11 O8 1.258 . S
C11 O13 1.282 . S
O12 Cd4 2.277 . S
O12 C5 1.226 . S
O13 Cd4 2.356 1_655 S
O13 C11 1.282 . S
C14 O15 1.306 . S
C14 O17 1.160 . S
O15 C14 1.306 . S
O15 Cd16 2.228 . S
Cd16 O15 2.228 . S
Cd16 O20 2.273 . S
Cd16 O24 2.277 . S
O17 C14 1.160 . S
O17 Cd18 2.203 . S
Cd18 O17 2.203 . S
Cd18 O20 2.411 . S
Cd18 O21 2.333 . S
Cd18 O22 2.352 . S
Cd18 O26 2.277 . S
Cd18 O27 2.356 . S
C19 O24 1.209 . S
C19 O26 1.226 . S
O20 Cd16 2.273 . S
O20 Cd18 2.411 . S
O20 C23 1.320 . S
O21 Cd18 2.333 . S
O21 C23 1.214 . S
O22 Cd18 2.352 . S
O22 C25 1.258 . S
C23 O20 1.320 . S
C23 O21 1.214 . S
O24 Cd16 2.277 . S
O24 C19 1.209 . S
C25 O22 1.258 . S
C25 O27 1.282 . S
O26 Cd18 2.277 . S
O26 C19 1.226 . S
O27 Cd18 2.356 . S
O27 C25 1.282 . S
C28 O29 1.306 . S
C28 O31 1.160 . S
O29 C28 1.306 . S
O29 Cd30 2.228 . S
Cd30 O29 2.228 . S
Cd30 O34 2.273 . S
Cd30 O38 2.277 . S
O31 C28 1.160 . S
O31 Cd32 2.203 . S
Cd32 O31 2.203 . S
Cd32 O34 2.411 . S
Cd32 O35 2.333 . S
Cd32 O36 2.352 1_655 S
Cd32 O40 2.277 . S
Cd32 O41 2.356 1_655 S
C33 O38 1.209 . S
C33 O40 1.226 . S
O34 Cd30 2.273 . S
O34 Cd32 2.411 . S
O34 C37 1.320 . S
O35 Cd32 2.333 . S
O35 C37 1.214 . S
O36 Cd32 2.352 1_455 S
O36 C39 1.258 . S
C37 O34 1.320 . S
C37 O35 1.214 . S
O38 Cd30 2.277 . S
O38 C33 1.209 . S
C39 O36 1.258 . S
C39 O41 1.282 . S
O40 Cd32 2.277 . S
O40 C33 1.226 . S
O41 Cd32 2.356 1_455 S
O41 C39 1.282 . S
C42 O43 1.306 . S
C42 O45 1.160 . S
O43 C42 1.306 . S
O43 Cd44 2.228 . S
Cd44 O43 2.228 . S
Cd44 O48 2.273 . S
Cd44 O52 2.277 . S
O45 C42 1.160 . S
O45 Cd46 2.203 . S
Cd46 O45 2.203 . S
Cd46 O48 2.411 . S
Cd46 O49 2.333 . S
Cd46 O50 2.352 . S
Cd46 O54 2.277 . S
Cd46 O55 2.356 . S
C47 O52 1.209 . S
C47 O54 1.226 . S
O48 Cd44 2.273 . S
O48 Cd46 2.411 . S
O48 C51 1.320 . S
O49 Cd46 2.333 . S
O49 C51 1.214 . S
O50 Cd46 2.352 . S
O50 C53 1.258 . S
C51 O48 1.320 . S
C51 O49 1.214 . S
O52 Cd44 2.277 . S
O52 C47 1.209 . S
C53 O50 1.258 . S
C53 O55 1.282 . S
O54 Cd46 2.277 . S
O54 C47 1.226 . S
O55 Cd46 2.356 . S
O55 C53 1.282 . S
C56 O57 1.306 . S
C56 O59 1.160 . S
O57 C56 1.306 . S
O57 Cd58 2.228 . S
Cd58 O57 2.228 . S
Cd58 O62 2.273 . S
Cd58 O66 2.277 . S
O59 C56 1.160 . S
O59 Cd60 2.203 . S
Cd60 O59 2.203 . S
Cd60 O62 2.411 . S
Cd60 O63 2.333 . S
Cd60 O64 2.352 . S
Cd60 O68 2.277 . S
Cd60 O69 2.356 . S
C61 O66 1.209 . S
C61 O68 1.226 . S
O62 Cd58 2.273 . S
O62 Cd60 2.411 . S
O62 C65 1.320 . S
O63 Cd60 2.333 . S
O63 C65 1.214 . S
O64 Cd60 2.352 . S
O64 C67 1.258 . S
C65 O62 1.320 . S
C65 O63 1.214 . S
O66 Cd58 2.277 . S
O66 C61 1.209 . S
C67 O64 1.258 . S
C67 O69 1.282 . S
O68 Cd60 2.277 . S
O68 C61 1.226 . S
O69 Cd60 2.356 . S
O69 C67 1.282 . S
C70 O71 1.306 . S
C70 O73 1.160 . S
O71 C70 1.306 . S
O71 Cd72 2.228 . S
Cd72 O71 2.228 . S
Cd72 O76 2.273 . S
Cd72 O80 2.277 . S
O73 C70 1.160 . S
O73 Cd74 2.203 . S
Cd74 O73 2.203 . S
Cd74 O76 2.411 . S
Cd74 O77 2.333 . S
Cd74 O78 2.352 1_655 S
Cd74 O82 2.277 . S
Cd74 O83 2.356 1_655 S
C75 O80 1.209 . S
C75 O82 1.226 . S
O76 Cd72 2.273 . S
O76 Cd74 2.411 . S
O76 C79 1.320 . S
O77 Cd74 2.333 . S
O77 C79 1.214 . S
O78 Cd74 2.352 1_455 S
O78 C81 1.258 . S
C79 O76 1.320 . S
C79 O77 1.214 . S
O80 Cd72 2.277 . S
O80 C75 1.209 . S
C81 O78 1.258 . S
C81 O83 1.282 . S
O82 Cd74 2.277 . S
O82 C75 1.226 . S
O83 Cd74 2.356 1_455 S
O83 C81 1.282 . S
C84 O85 1.306 . S
C84 O87 1.160 . S
O85 C84 1.306 . S
O85 Cd86 2.228 . S
Cd86 O85 2.228 . S
Cd86 O90 2.273 . S
Cd86 O94 2.277 . S
O87 C84 1.160 . S
O87 Cd88 2.203 . S
Cd88 O87 2.203 . S
Cd88 O90 2.411 . S
Cd88 O91 2.333 . S
Cd88 O92 2.352 . S
Cd88 O96 2.277 . S
Cd88 O97 2.356 . S
C89 O94 1.209 . S
C89 O96 1.226 . S
O90 Cd86 2.273 . S
O90 Cd88 2.411 . S
O90 C93 1.320 . S
O91 Cd88 2.333 . S
O91 C93 1.214 . S
O92 Cd88 2.352 . S
O92 C95 1.258 . S
C93 O90 1.320 . S
C93 O91 1.214 . S
O94 Cd86 2.277 . S
O94 C89 1.209 . S
C95 O92 1.258 . S
C95 O97 1.282 . S
O96 Cd88 2.277 . S
O96 C89 1.226 . S
O97 Cd88 2.356 . S
O97 C95 1.282 . S
C98 O99 1.306 . S
C98 O101 1.160 . S
O99 C98 1.306 . S
O99 Cd100 2.228 . S
Cd100 O99 2.228 . S
Cd100 O104 2.273 . S
Cd100 O108 2.277 . S
O101 C98 1.160 . S
O101 Cd102 2.203 . S
Cd102 O101 2.203 . S
Cd102 O104 2.411 . S
Cd102 O105 2.333 . S
Cd102 O106 2.352 1_455 S
Cd102 O110 2.277 . S
Cd102 O111 2.356 1_455 S
C103 O108 1.209 . S
C103 O110 1.226 . S
O104 Cd100 2.273 . S
O104 Cd102 2.411 . S
O104 C107 1.320 . S
O105 Cd102 2.333 . S
O105 C107 1.214 . S
O106 Cd102 2.352 1_655 S
O106 C109 1.258 . S
C107 O104 1.320 . S
C107 O105 1.214 . S
O108 Cd100 2.277 . S
O108 C103 1.209 . S
C109 O106 1.258 . S
C109 O111 1.282 . S
O110 Cd102 2.277 . S
O110 C103 1.226 . S
O111 Cd102 2.356 1_655 S
O111 C109 1.282 . S
H112 C130 0.951 . S
H113 C132 0.951 . S
H114 C134 0.950 . S
H115 C135 0.950 . S
H116 C137 0.950 . S
H117 C140 0.950 . S
H118 C141 0.950 1_455 S
H119 C143 0.950 . S
H120 C144 0.950 . S
H121 C145 0.951 . S
H122 C147 0.951 . S
H123 C149 0.950 . S
H124 C150 0.950 . S
H125 C152 0.950 . S
H126 C155 0.950 . S
H127 C156 0.950 1_655 S
H128 C158 0.950 . S
H129 C159 0.950 . S
C130 H112 0.951 . S
C130 C131 1.366 1_655 S
C130 C132 1.388 . S
C131 C130 1.366 1_455 S
C131 C135 1.385 . S
C132 H113 0.951 . S
C132 C130 1.388 . S
C132 C133 1.366 1_655 S
C133 C132 1.366 1_455 S
C133 C134 1.414 . S
C133 C136 1.499 . S
C134 H114 0.950 . S
C134 C133 1.414 . S
C134 C135 1.374 . S
C135 H115 0.950 . S
C135 C131 1.385 . S
C135 C134 1.374 . S
C136 C133 1.499 . S
C136 C137 1.373 . S
C136 C138 1.389 1_455 S
C137 H116 0.950 . S
C137 C136 1.373 . S
C137 C153 1.377 . S
C138 C136 1.389 1_655 S
C138 C139 1.524 . S
C138 C152 1.377 . S
C139 C138 1.524 . S
C139 C140 1.397 1_655 S
C139 C144 1.363 . S
C140 H117 0.950 . S
C140 C139 1.397 1_455 S
C140 C141 1.334 1_455 S
C141 H118 0.950 1_655 S
C141 C140 1.334 1_655 S
C141 C142 1.287 . S
C142 C141 1.287 . S
C142 C143 1.524 . S
C142 H161 0.913 . S
C143 H119 0.950 . S
C143 C142 1.524 . S
C143 C144 1.415 . S
C144 H120 0.950 . S
C144 C139 1.363 . S
C144 C143 1.415 . S
C145 H121 0.951 . S
C145 C146 1.366 1_455 S
C145 C147 1.388 . S
C146 C145 1.366 1_655 S
C146 C150 1.385 . S
C147 H122 0.951 . S
C147 C145 1.388 . S
C147 C148 1.366 1_455 S
C148 C147 1.366 1_655 S
C148 C149 1.414 . S
C148 C151 1.499 . S
C149 H123 0.950 . S
C149 C148 1.414 . S
C149 C150 1.374 . S
C150 H124 0.950 . S
C150 C146 1.385 . S
C150 C149 1.374 . S
C151 C148 1.499 . S
C151 C152 1.373 . S
C151 C153 1.389 1_655 S
C152 H125 0.950 . S
C152 C138 1.377 . S
C152 C151 1.373 . S
C153 C137 1.377 . S
C153 C151 1.389 1_455 S
C153 C154 1.524 . S
C154 C153 1.524 . S
C154 C155 1.397 1_455 S
C154 C159 1.363 . S
C155 H126 0.950 . S
C155 C154 1.397 1_655 S
C155 C156 1.334 1_655 S
C156 H127 0.950 1_455 S
C156 C155 1.334 1_455 S
C156 C157 1.287 . S
C157 C156 1.287 . S
C157 C158 1.524 . S
C157 H160 0.999 . S
C158 H128 0.950 . S
C158 C157 1.524 . S
C158 C159 1.415 . S
C159 H129 0.950 . S
C159 C154 1.363 . S
C159 C158 1.415 . S
H160 C157 0.999 . S
H161 C142 0.913 . S
H162 C180 0.951 . S
H163 C182 0.951 . S
H164 C184 0.950 . S
H165 C185 0.950 . S
H166 C187 0.950 . S
H167 C190 0.950 . S
H168 C191 0.950 . S
H169 C193 0.950 . S
H170 C194 0.950 . S
H171 C195 0.951 . S
H172 C197 0.951 . S
H173 C199 0.950 . S
H174 C200 0.950 . S
H175 C202 0.950 . S
H176 C205 0.950 . S
H177 C206 0.950 . S
H178 C208 0.950 . S
H179 C209 0.950 . S
C180 H162 0.951 . S
C180 C181 1.366 . S
C180 C182 1.388 . S
C181 C180 1.366 . S
C181 C185 1.385 . S
C182 H163 0.951 . S
C182 C180 1.388 . S
C182 C183 1.366 . S
C183 C182 1.366 . S
C183 C184 1.414 . S
C183 C186 1.499 . S
C184 H164 0.950 . S
C184 C183 1.414 . S
C184 C185 1.374 . S
C185 H165 0.950 . S
C185 C181 1.385 . S
C185 C184 1.374 . S
C186 C183 1.499 . S
C186 C187 1.373 . S
C186 C188 1.389 . S
C187 H166 0.950 . S
C187 C186 1.373 . S
C187 C203 1.377 . S
C188 C186 1.389 . S
C188 C189 1.524 . S
C188 C202 1.377 . S
C189 C188 1.524 . S
C189 C190 1.397 . S
C189 C194 1.363 . S
C190 H167 0.950 . S
C190 C189 1.397 . S
C190 C191 1.334 . S
C191 H168 0.950 . S
C191 C190 1.334 . S
C191 C192 1.287 . S
C192 C191 1.287 . S
C192 C193 1.524 . S
C192 H211 0.913 . S
C193 H169 0.950 . S
C193 C192 1.524 . S
C193 C194 1.415 . S
C194 H170 0.950 . S
C194 C189 1.363 . S
C194 C193 1.415 . S
C195 H171 0.951 . S
C195 C196 1.366 . S
C195 C197 1.388 . S
C196 C195 1.366 . S
C196 C200 1.385 . S
C197 H172 0.951 . S
C197 C195 1.388 . S
C197 C198 1.366 . S
C198 C197 1.366 . S
C198 C199 1.414 . S
C198 C201 1.499 . S
C199 H173 0.950 . S
C199 C198 1.414 . S
C199 C200 1.374 . S
C200 H174 0.950 . S
C200 C196 1.385 . S
C200 C199 1.374 . S
C201 C198 1.499 . S
C201 C202 1.373 . S
C201 C203 1.389 . S
C202 H175 0.950 . S
C202 C188 1.377 . S
C202 C201 1.373 . S
C203 C187 1.377 . S
C203 C201 1.389 . S
C203 C204 1.524 . S
C204 C203 1.524 . S
C204 C205 1.397 . S
C204 C209 1.363 . S
C205 H176 0.950 . S
C205 C204 1.397 . S
C205 C206 1.334 . S
C206 H177 0.950 . S
C206 C205 1.334 . S
C206 C207 1.287 . S
C207 C206 1.287 . S
C207 C208 1.524 . S
C207 H210 0.999 . S
C208 H178 0.950 . S
C208 C207 1.524 . S
C208 C209 1.415 . S
C209 H179 0.950 . S
C209 C204 1.363 . S
C209 C208 1.415 . S
H210 C207 0.999 . S
H211 C192 0.913 . S
H212 C230 0.951 . S
H213 C232 0.951 . S
H214 C234 0.950 . S
H215 C235 0.950 . S
H216 C237 0.950 . S
H217 C240 0.950 1_554 S
H218 C241 0.950 . S
H219 C243 0.950 . S
H220 C244 0.950 . S
H221 C245 0.951 . S
H222 C247 0.951 . S
H223 C249 0.950 . S
H224 C250 0.950 . S
H225 C252 0.950 . S
H226 C255 0.950 1_556 S
H227 C256 0.950 . S
H228 C258 0.950 . S
H229 C259 0.950 . S
C230 H212 0.951 . S
C230 C231 1.366 . S
C230 C232 1.388 . S
C231 C230 1.366 . S
C231 C235 1.385 . S
C232 H213 0.951 . S
C232 C230 1.388 . S
C232 C233 1.366 . S
C233 C232 1.366 . S
C233 C234 1.414 . S
C233 C236 1.499 . S
C234 H214 0.950 . S
C234 C233 1.414 . S
C234 C235 1.374 . S
C235 H215 0.950 . S
C235 C231 1.385 . S
C235 C234 1.374 . S
C236 C233 1.499 . S
C236 C237 1.373 1_545 S
C236 C238 1.389 1_554 S
C237 H216 0.950 . S
C237 C236 1.373 1_565 S
C237 C253 1.377 . S
C238 C236 1.389 1_556 S
C238 C239 1.524 . S
C238 C252 1.377 . S
C239 C238 1.524 . S
C239 C240 1.397 . S
C239 C244 1.363 . S
C240 H217 0.950 1_556 S
C240 C239 1.397 . S
C240 C241 1.334 . S
C241 H218 0.950 . S
C241 C240 1.334 . S
C241 C242 1.287 . S
C242 C241 1.287 . S
C242 C243 1.524 . S
C242 H261 0.913 . S
C243 H219 0.950 . S
C243 C242 1.524 . S
C243 C244 1.415 . S
C244 H220 0.950 . S
C244 C239 1.363 . S
C244 C243 1.415 . S
C245 H221 0.951 . S
C245 C246 1.366 . S
C245 C247 1.388 . S
C246 C245 1.366 . S
C246 C250 1.385 . S
C247 H222 0.951 . S
C247 C245 1.388 . S
C247 C248 1.366 . S
C248 C247 1.366 . S
C248 C249 1.414 . S
C248 C251 1.499 . S
C249 H223 0.950 . S
C249 C248 1.414 . S
C249 C250 1.374 . S
C250 H224 0.950 . S
C250 C246 1.385 . S
C250 C249 1.374 . S
C251 C248 1.499 . S
C251 C252 1.373 1_565 S
C251 C253 1.389 1_556 S
C252 H225 0.950 . S
C252 C238 1.377 . S
C252 C251 1.373 1_545 S
C253 C237 1.377 . S
C253 C251 1.389 1_554 S
C253 C254 1.524 . S
C254 C253 1.524 . S
C254 C255 1.397 . S
C254 C259 1.363 . S
C255 H226 0.950 1_554 S
C255 C254 1.397 . S
C255 C256 1.334 . S
C256 H227 0.950 . S
C256 C255 1.334 . S
C256 C257 1.287 . S
C257 C256 1.287 . S
C257 C258 1.524 . S
C257 H260 0.999 . S
C258 H228 0.950 . S
C258 C257 1.524 . S
C258 C259 1.415 . S
C259 H229 0.950 . S
C259 C254 1.363 . S
C259 C258 1.415 . S
H260 C257 0.999 . S
H261 C242 0.913 . S
H262 C280 0.951 . S
H263 C282 0.951 . S
H264 C284 0.950 . S
H265 C285 0.950 . S
H266 C287 0.950 . S
H267 C290 0.950 . S
H268 C291 0.950 . S
H269 C293 0.923 1_556 S
H270 C294 0.950 1_556 S
H271 C295 0.951 . S
H272 C297 0.951 . S
H273 C299 0.950 . S
H274 C300 0.950 . S
H275 C302 0.950 . S
H276 C305 0.950 . S
H277 C306 0.950 . S
H278 C308 0.923 1_554 S
H279 C309 0.950 1_554 S
C280 H262 0.951 . S
C280 C281 1.366 1_455 S
C280 C282 1.388 . S
C281 C280 1.366 1_655 S
C281 C285 1.385 . S
C282 H263 0.951 . S
C282 C280 1.388 . S
C282 C283 1.366 1_455 S
C283 C282 1.366 1_655 S
C283 C284 1.414 . S
C283 C286 1.499 . S
C284 H264 0.950 . S
C284 C283 1.414 . S
C284 C285 1.374 . S
C285 H265 0.950 . S
C285 C281 1.385 . S
C285 C284 1.374 . S
C286 C283 1.499 . S
C286 C287 1.373 . S
C286 C288 1.389 1_655 S
C287 H266 0.950 . S
C287 C286 1.373 . S
C287 C303 1.377 1_564 S
C288 C286 1.389 1_455 S
C288 C289 1.524 . S
C288 C302 1.377 1_564 S
C289 C288 1.524 . S
C289 C290 1.397 . S
C289 C294 1.363 . S
C290 H267 0.950 . S
C290 C289 1.397 . S
C290 C291 1.334 . S
C291 H268 0.950 . S
C291 C290 1.334 . S
C291 C292 1.287 . S
C292 C291 1.287 . S
C292 C293 1.524 . S
C292 H311 0.913 . S
C293 H269 0.923 1_554 S
C293 C292 1.524 . S
C293 C294 1.415 . S
C294 H270 0.950 1_554 S
C294 C289 1.363 . S
C294 C293 1.415 . S
C295 H271 0.951 . S
C295 C296 1.366 1_655 S
C295 C297 1.388 . S
C296 C295 1.366 1_455 S
C296 C300 1.385 . S
C297 H272 0.951 . S
C297 C295 1.388 . S
C297 C298 1.366 1_655 S
C298 C297 1.366 1_455 S
C298 C299 1.414 . S
C298 C301 1.499 . S
C299 H273 0.950 . S
C299 C298 1.414 . S
C299 C300 1.374 . S
C300 H274 0.950 . S
C300 C296 1.385 . S
C300 C299 1.374 . S
C301 C298 1.499 . S
C301 C302 1.373 . S
C301 C303 1.389 1_455 S
C302 H275 0.950 . S
C302 C288 1.377 1_546 S
C302 C301 1.373 . S
C303 C287 1.377 1_546 S
C303 C301 1.389 1_655 S
C303 C304 1.524 . S
C304 C303 1.524 . S
C304 C305 1.397 . S
C304 C309 1.363 . S
C305 H276 0.950 . S
C305 C304 1.397 . S
C305 C306 1.334 . S
C306 H277 0.950 . S
C306 C305 1.334 . S
C306 C307 1.287 . S
C307 C306 1.287 . S
C307 C308 1.524 . S
C307 H310 0.999 . S
C308 H278 0.923 1_556 S
C308 C307 1.524 . S
C308 C309 1.415 . S
C309 H279 0.950 1_556 S
C309 C304 1.363 . S
C309 C308 1.415 . S
H310 C307 0.999 . S
H311 C292 0.913 . S
H312 C330 0.951 . S
H313 C332 0.951 . S
H314 C334 0.950 . S
H315 C335 0.950 . S
H316 C337 0.950 . S
H317 C340 0.950 . S
H318 C341 0.950 . S
H319 C343 0.950 . S
H320 C344 0.950 . S
H321 C345 0.951 . S
H322 C347 0.951 . S
H323 C349 0.950 . S
H324 C350 0.950 . S
H325 C352 0.950 . S
H326 C355 0.950 . S
H327 C356 0.950 . S
H328 C358 0.950 . S
H329 C359 0.950 . S
C330 H312 0.951 . S
C330 C331 1.366 . S
C330 C332 1.388 . S
C331 C330 1.366 . S
C331 C335 1.385 . S
C332 H313 0.951 . S
C332 C330 1.388 . S
C332 C333 1.366 . S
C333 C332 1.366 . S
C333 C334 1.414 . S
C333 C336 1.499 . S
C334 H314 0.950 . S
C334 C333 1.414 . S
C334 C335 1.374 . S
C335 H315 0.950 . S
C335 C331 1.385 . S
C335 C334 1.374 . S
C336 C333 1.499 . S
C336 C337 1.373 . S
C336 C338 1.389 . S
C337 H316 0.950 . S
C337 C336 1.373 . S
C337 C353 1.377 . S
C338 C336 1.389 . S
C338 C339 1.524 . S
C338 C352 1.377 . S
C339 C338 1.524 . S
C339 C340 1.397 . S
C339 C344 1.363 . S
C340 H317 0.950 . S
C340 C339 1.397 . S
C340 C341 1.334 . S
C341 H318 0.950 . S
C341 C340 1.334 . S
C341 C342 1.287 . S
C342 C341 1.287 . S
C342 C343 1.524 . S
C342 H361 0.913 . S
C343 H319 0.950 . S
C343 C342 1.524 . S
C343 C344 1.415 . S
C344 H320 0.950 . S
C344 C339 1.363 . S
C344 C343 1.415 . S
C345 H321 0.951 . S
C345 C346 1.366 . S
C345 C347 1.388 . S
C346 C345 1.366 . S
C346 C350 1.385 . S
C347 H322 0.951 . S
C347 C345 1.388 . S
C347 C348 1.366 . S
C348 C347 1.366 . S
C348 C349 1.414 . S
C348 C351 1.499 . S
C349 H323 0.950 . S
C349 C348 1.414 . S
C349 C350 1.374 . S
C350 H324 0.950 . S
C350 C346 1.385 . S
C350 C349 1.374 . S
C351 C348 1.499 . S
C351 C352 1.373 . S
C351 C353 1.389 . S
C352 H325 0.950 . S
C352 C338 1.377 . S
C352 C351 1.373 . S
C353 C337 1.377 . S
C353 C351 1.389 . S
C353 C354 1.524 . S
C354 C353 1.524 . S
C354 C355 1.397 . S
C354 C359 1.363 . S
C355 H326 0.950 . S
C355 C354 1.397 . S
C355 C356 1.334 . S
C356 H327 0.950 . S
C356 C355 1.334 . S
C356 C357 1.287 . S
C357 C356 1.287 . S
C357 C358 1.524 . S
C357 H360 0.999 . S
C358 H328 0.950 . S
C358 C357 1.524 . S
C358 C359 1.415 . S
C359 H329 0.950 . S
C359 C354 1.363 . S
C359 C358 1.415 . S
H360 C357 0.999 . S
H361 C342 0.913 . S
H362 C380 0.951 . S
H363 C382 0.951 . S
H364 C384 0.950 . S
H365 C385 0.950 . S
H366 C387 0.950 . S
H367 C390 0.950 . S
H368 C391 0.950 . S
H369 C393 0.950 . S
H370 C394 0.950 . S
H371 C395 0.951 . S
H372 C397 0.951 . S
H373 C399 0.950 . S
H374 C400 0.950 . S
H375 C402 0.950 . S
H376 C405 0.950 . S
H377 C406 0.950 . S
H378 C408 0.950 . S
H379 C409 0.950 . S
C380 H362 0.951 . S
C380 C381 1.366 . S
C380 C382 1.388 . S
C381 C380 1.366 . S
C381 C385 1.385 . S
C382 H363 0.951 . S
C382 C380 1.388 . S
C382 C383 1.366 . S
C383 C382 1.366 . S
C383 C384 1.414 . S
C383 C386 1.499 . S
C384 H364 0.950 . S
C384 C383 1.414 . S
C384 C385 1.374 . S
C385 H365 0.950 . S
C385 C381 1.385 . S
C385 C384 1.374 . S
C386 C383 1.499 . S
C386 C387 1.373 . S
C386 C388 1.389 . S
C387 H366 0.950 . S
C387 C386 1.373 . S
C387 C403 1.377 . S
C388 C386 1.389 . S
C388 C389 1.524 . S
C388 C402 1.377 . S
C389 C388 1.524 . S
C389 C390 1.397 . S
C389 C394 1.363 . S
C390 H367 0.950 . S
C390 C389 1.397 . S
C390 C391 1.334 . S
C391 H368 0.950 . S
C391 C390 1.334 . S
C391 C392 1.287 . S
C392 C391 1.287 . S
C392 C393 1.524 . S
C392 H411 0.913 . S
C393 H369 0.950 . S
C393 C392 1.524 . S
C393 C394 1.415 . S
C394 H370 0.950 . S
C394 C389 1.363 . S
C394 C393 1.415 . S
C395 H371 0.951 . S
C395 C396 1.366 . S
C395 C397 1.388 . S
C396 C395 1.366 . S
C396 C400 1.385 . S
C397 H372 0.951 . S
C397 C395 1.388 . S
C397 C398 1.366 . S
C398 C397 1.366 . S
C398 C399 1.414 . S
C398 C401 1.499 . S
C399 H373 0.950 . S
C399 C398 1.414 . S
C399 C400 1.374 . S
C400 H374 0.950 . S
C400 C396 1.385 . S
C400 C399 1.374 . S
C401 C398 1.499 . S
C401 C402 1.373 . S
C401 C403 1.389 . S
C402 H375 0.950 . S
C402 C388 1.377 . S
C402 C401 1.373 . S
C403 C387 1.377 . S
C403 C401 1.389 . S
C403 C404 1.524 . S
C404 C403 1.524 . S
C404 C405 1.397 . S
C404 C409 1.363 . S
C405 H376 0.950 . S
C405 C404 1.397 . S
C405 C406 1.334 . S
C406 H377 0.950 . S
C406 C405 1.334 . S
C406 C407 1.287 . S
C407 C406 1.287 . S
C407 C408 1.524 . S
C407 H410 0.999 . S
C408 H378 0.950 . S
C408 C407 1.524 . S
C408 C409 1.415 . S
C409 H379 0.950 . S
C409 C404 1.363 . S
C409 C408 1.415 . S
H410 C407 0.999 . S
H411 C392 0.913 . S
H412 C430 0.951 . S
H413 C432 0.951 . S
H414 C434 0.950 . S
H415 C435 0.950 . S
H416 C437 0.950 . S
H417 C440 0.950 . S
H418 C441 0.950 . S
H419 C443 0.950 . S
H420 C444 0.950 . S
H421 C445 0.951 . S
H422 C447 0.951 . S
H423 C449 0.950 . S
H424 C450 0.950 . S
H425 C452 0.950 . S
H426 C455 0.950 . S
H427 C456 0.950 . S
H428 C458 0.950 . S
H429 C459 0.950 . S
C430 H412 0.951 . S
C430 C431 1.366 . S
C430 C432 1.388 . S
C431 C430 1.366 . S
C431 C435 1.385 . S
C432 H413 0.951 . S
C432 C430 1.388 . S
C432 C433 1.366 . S
C433 C432 1.366 . S
C433 C434 1.414 . S
C433 C436 1.499 . S
C434 H414 0.950 . S
C434 C433 1.414 . S
C434 C435 1.374 . S
C435 H415 0.950 . S
C435 C431 1.385 . S
C435 C434 1.374 . S
C436 C433 1.499 . S
C436 C437 1.373 . S
C436 C438 1.389 . S
C437 H416 0.950 . S
C437 C436 1.373 . S
C437 C453 1.377 . S
C438 C436 1.389 . S
C438 C439 1.524 . S
C438 C452 1.377 . S
C439 C438 1.524 . S
C439 C440 1.397 . S
C439 C444 1.363 . S
C440 H417 0.950 . S
C440 C439 1.397 . S
C440 C441 1.334 . S
C441 H418 0.950 . S
C441 C440 1.334 . S
C441 C442 1.287 . S
C442 C441 1.287 . S
C442 C443 1.524 . S
C442 H461 0.913 . S
C443 H419 0.950 . S
C443 C442 1.524 . S
C443 C444 1.415 . S
C444 H420 0.950 . S
C444 C439 1.363 . S
C444 C443 1.415 . S
C445 H421 0.951 . S
C445 C446 1.366 . S
C445 C447 1.388 . S
C446 C445 1.366 . S
C446 C450 1.385 . S
C447 H422 0.951 . S
C447 C445 1.388 . S
C447 C448 1.366 . S
C448 C447 1.366 . S
C448 C449 1.414 . S
C448 C451 1.499 . S
C449 H423 0.950 . S
C449 C448 1.414 . S
C449 C450 1.374 . S
C450 H424 0.950 . S
C450 C446 1.385 . S
C450 C449 1.374 . S
C451 C448 1.499 . S
C451 C452 1.373 . S
C451 C453 1.389 . S
C452 H425 0.950 . S
C452 C438 1.377 . S
C452 C451 1.373 . S
C453 C437 1.377 . S
C453 C451 1.389 . S
C453 C454 1.524 . S
C454 C453 1.524 . S
C454 C455 1.397 . S
C454 C459 1.363 . S
C455 H426 0.950 . S
C455 C454 1.397 . S
C455 C456 1.334 . S
C456 H427 0.950 . S
C456 C455 1.334 . S
C456 C457 1.287 . S
C457 C456 1.287 . S
C457 C458 1.524 . S
C457 H460 0.999 . S
C458 H428 0.950 . S
C458 C457 1.524 . S
C458 C459 1.415 . S
C459 H429 0.950 . S
C459 C454 1.363 . S
C459 C458 1.415 . S
H460 C457 0.999 . S
H461 C442 0.913 . S
H462 C480 0.951 . S
H463 C482 0.951 . S
H464 C484 0.950 . S
H465 C485 0.950 . S
H466 C487 0.950 . S
H467 C490 0.950 . S
H468 C491 0.950 . S
H469 C493 0.950 . S
H470 C494 0.950 . S
H471 C495 0.951 . S
H472 C497 0.951 . S
H473 C499 0.950 . S
H474 C500 0.950 . S
H475 C502 0.950 . S
H476 C505 0.950 . S
H477 C506 0.950 . S
H478 C508 0.950 . S
H479 C509 0.950 . S
C480 H462 0.951 . S
C480 C481 1.366 . S
C480 C482 1.388 . S
C481 C480 1.366 . S
C481 C485 1.385 . S
C482 H463 0.951 . S
C482 C480 1.388 . S
C482 C483 1.366 . S
C483 C482 1.366 . S
C483 C484 1.414 . S
C483 C486 1.499 . S
C484 H464 0.950 . S
C484 C483 1.414 . S
C484 C485 1.374 . S
C485 H465 0.950 . S
C485 C481 1.385 . S
C485 C484 1.374 . S
C486 C483 1.499 . S
C486 C487 1.373 . S
C486 C488 1.389 . S
C487 H466 0.950 . S
C487 C486 1.373 . S
C487 C503 1.377 . S
C488 C486 1.389 . S
C488 C489 1.524 . S
C488 C502 1.377 . S
C489 C488 1.524 . S
C489 C490 1.397 . S
C489 C494 1.363 . S
C490 H467 0.950 . S
C490 C489 1.397 . S
C490 C491 1.334 . S
C491 H468 0.950 . S
C491 C490 1.334 . S
C491 C492 1.287 . S
C492 C491 1.287 . S
C492 C493 1.524 . S
C492 H511 0.913 . S
C493 H469 0.950 . S
C493 C492 1.524 . S
C493 C494 1.415 . S
C494 H470 0.950 . S
C494 C489 1.363 . S
C494 C493 1.415 . S
C495 H471 0.951 . S
C495 C496 1.366 . S
C495 C497 1.388 . S
C496 C495 1.366 . S
C496 C500 1.385 . S
C497 H472 0.951 . S
C497 C495 1.388 . S
C497 C498 1.366 . S
C498 C497 1.366 . S
C498 C499 1.414 . S
C498 C501 1.499 . S
C499 H473 0.950 . S
C499 C498 1.414 . S
C499 C500 1.374 . S
C500 H474 0.950 . S
C500 C496 1.385 . S
C500 C499 1.374 . S
C501 C498 1.499 . S
C501 C502 1.373 . S
C501 C503 1.389 . S
C502 H475 0.950 . S
C502 C488 1.377 . S
C502 C501 1.373 . S
C503 C487 1.377 . S
C503 C501 1.389 . S
C503 C504 1.524 . S
C504 C503 1.524 . S
C504 C505 1.397 . S
C504 C509 1.363 . S
C505 H476 0.950 . S
C505 C504 1.397 . S
C505 C506 1.334 . S
C506 H477 0.950 . S
C506 C505 1.334 . S
C506 C507 1.287 . S
C507 C506 1.287 . S
C507 C508 1.524 . S
C507 H510 0.999 . S
C508 H478 0.950 . S
C508 C507 1.524 . S
C508 C509 1.415 . S
C509 H479 0.950 . S
C509 C504 1.363 . S
C509 C508 1.415 . S
H510 C507 0.999 . S
H511 C492 0.913 . S
H512 C530 0.951 . S
H513 C532 0.951 . S
H514 C534 0.950 . S
H515 C535 0.950 . S
H516 C537 0.950 . S
H517 C540 0.950 . S
H518 C541 0.950 . S
H519 C543 0.950 . S
H520 C544 0.950 . S
H521 C545 0.951 . S
H522 C547 0.951 . S
H523 C549 0.950 . S
H524 C550 0.950 . S
H525 C552 0.950 . S
H526 C555 0.950 . S
H527 C556 0.950 . S
H528 C558 0.950 . S
H529 C559 0.950 . S
C530 H512 0.951 . S
C530 C531 1.366 . S
C530 C532 1.388 . S
C531 C530 1.366 . S
C531 C535 1.385 . S
C532 H513 0.951 . S
C532 C530 1.388 . S
C532 C533 1.366 . S
C533 C532 1.366 . S
C533 C534 1.414 . S
C533 C536 1.499 . S
C534 H514 0.950 . S
C534 C533 1.414 . S
C534 C535 1.374 . S
C535 H515 0.950 . S
C535 C531 1.385 . S
C535 C534 1.374 . S
C536 C533 1.499 . S
C536 C537 1.373 . S
C536 C538 1.389 . S
C537 H516 0.950 . S
C537 C536 1.373 . S
C537 C553 1.377 . S
C538 C536 1.389 . S
C538 C539 1.524 . S
C538 C552 1.377 . S
C539 C538 1.524 . S
C539 C540 1.397 . S
C539 C544 1.363 . S
C540 H517 0.950 . S
C540 C539 1.397 . S
C540 C541 1.334 . S
C541 H518 0.950 . S
C541 C540 1.334 . S
C541 C542 1.287 . S
C542 C541 1.287 . S
C542 C543 1.524 . S
C542 H561 0.913 . S
C543 H519 0.950 . S
C543 C542 1.524 . S
C543 C544 1.415 . S
C544 H520 0.950 . S
C544 C539 1.363 . S
C544 C543 1.415 . S
C545 H521 0.951 . S
C545 C546 1.366 . S
C545 C547 1.388 . S
C546 C545 1.366 . S
C546 C550 1.385 . S
C547 H522 0.951 . S
C547 C545 1.388 . S
C547 C548 1.366 . S
C548 C547 1.366 . S
C548 C549 1.414 . S
C548 C551 1.499 . S
C549 H523 0.950 . S
C549 C548 1.414 . S
C549 C550 1.374 . S
C550 H524 0.950 . S
C550 C546 1.385 . S
C550 C549 1.374 . S
C551 C548 1.499 . S
C551 C552 1.373 . S
C551 C553 1.389 . S
C552 H525 0.950 . S
C552 C538 1.377 . S
C552 C551 1.373 . S
C553 C537 1.377 . S
C553 C551 1.389 . S
C553 C554 1.524 . S
C554 C553 1.524 . S
C554 C555 1.397 . S
C554 C559 1.363 . S
C555 H526 0.950 . S
C555 C554 1.397 . S
C555 C556 1.334 . S
C556 H527 0.950 . S
C556 C555 1.334 . S
C556 C557 1.287 . S
C557 C556 1.287 . S
C557 C558 1.524 . S
C557 H560 0.999 . S
C558 H528 0.950 . S
C558 C557 1.524 . S
C558 C559 1.415 . S
C559 H529 0.950 . S
C559 C554 1.363 . S
C559 C558 1.415 . S
H560 C557 0.999 . S
H561 C542 0.913 . S
H562 C580 0.951 . S
H563 C582 0.951 . S
H564 C584 0.950 . S
H565 C585 0.950 . S
H566 C587 0.950 . S
H567 C590 0.950 . S
H568 C591 0.950 . S
H569 C593 0.950 . S
H570 C594 0.950 . S
H571 C595 0.951 . S
H572 C597 0.951 . S
H573 C599 0.950 . S
H574 C600 0.950 . S
H575 C602 0.950 . S
H576 C605 0.950 . S
H577 C606 0.950 . S
H578 C608 0.950 . S
H579 C609 0.950 . S
C580 H562 0.951 . S
C580 C581 1.366 . S
C580 C582 1.388 . S
C581 C580 1.366 . S
C581 C585 1.385 . S
C582 H563 0.951 . S
C582 C580 1.388 . S
C582 C583 1.366 . S
C583 C582 1.366 . S
C583 C584 1.414 . S
C583 C586 1.499 . S
C584 H564 0.950 . S
C584 C583 1.414 . S
C584 C585 1.374 . S
C585 H565 0.950 . S
C585 C581 1.385 . S
C585 C584 1.374 . S
C586 C583 1.499 . S
C586 C587 1.373 . S
C586 C588 1.389 . S
C587 H566 0.950 . S
C587 C586 1.373 . S
C587 C603 1.377 . S
C588 C586 1.389 . S
C588 C589 1.524 . S
C588 C602 1.377 . S
C589 C588 1.524 . S
C589 C590 1.397 . S
C589 C594 1.363 . S
C590 H567 0.950 . S
C590 C589 1.397 . S
C590 C591 1.334 . S
C591 H568 0.950 . S
C591 C590 1.334 . S
C591 C592 1.287 . S
C592 C591 1.287 . S
C592 C593 1.524 . S
C592 H611 0.913 . S
C593 H569 0.950 . S
C593 C592 1.524 . S
C593 C594 1.415 . S
C594 H570 0.950 . S
C594 C589 1.363 . S
C594 C593 1.415 . S
C595 H571 0.951 . S
C595 C596 1.366 . S
C595 C597 1.388 . S
C596 C595 1.366 . S
C596 C600 1.385 . S
C597 H572 0.951 . S
C597 C595 1.388 . S
C597 C598 1.366 . S
C598 C597 1.366 . S
C598 C599 1.414 . S
C598 C601 1.499 . S
C599 H573 0.950 . S
C599 C598 1.414 . S
C599 C600 1.374 . S
C600 H574 0.950 . S
C600 C596 1.385 . S
C600 C599 1.374 . S
C601 C598 1.499 . S
C601 C602 1.373 . S
C601 C603 1.389 . S
C602 H575 0.950 . S
C602 C588 1.377 . S
C602 C601 1.373 . S
C603 C587 1.377 . S
C603 C601 1.389 . S
C603 C604 1.524 . S
C604 C603 1.524 . S
C604 C605 1.397 . S
C604 C609 1.363 . S
C605 H576 0.950 . S
C605 C604 1.397 . S
C605 C606 1.334 . S
C606 H577 0.950 . S
C606 C605 1.334 . S
C606 C607 1.287 . S
C607 C606 1.287 . S
C607 C608 1.524 . S
C607 H610 0.999 . S
C608 H578 0.950 . S
C608 C607 1.524 . S
C608 C609 1.415 . S
C609 H579 0.950 . S
C609 C604 1.363 . S
C609 C608 1.415 . S
H610 C607 0.999 . S
H611 C592 0.913 . S
H612 C630 0.951 . S
H613 C632 0.951 . S
H614 C634 0.950 . S
H615 C635 0.950 . S
H616 C637 0.950 . S
H617 C640 0.950 . S
H618 C641 0.950 . S
H619 C643 0.950 . S
H620 C644 0.950 . S
H621 C645 0.951 . S
H622 C647 0.951 . S
H623 C649 0.950 . S
H624 C650 0.950 . S
H625 C652 0.950 . S
H626 C655 0.950 . S
H627 C656 0.950 . S
H628 C658 0.950 . S
H629 C659 0.950 . S
C630 H612 0.951 . S
C630 C631 1.366 . S
C630 C632 1.388 . S
C631 C630 1.366 . S
C631 C635 1.385 . S
C632 H613 0.951 . S
C632 C630 1.388 . S
C632 C633 1.366 . S
C633 C632 1.366 . S
C633 C634 1.414 . S
C633 C636 1.499 . S
C634 H614 0.950 . S
C634 C633 1.414 . S
C634 C635 1.374 . S
C635 H615 0.950 . S
C635 C631 1.385 . S
C635 C634 1.374 . S
C636 C633 1.499 . S
C636 C637 1.373 . S
C636 C638 1.389 . S
C637 H616 0.950 . S
C637 C636 1.373 . S
C637 C653 1.377 . S
C638 C636 1.389 . S
C638 C639 1.524 . S
C638 C652 1.377 . S
C639 C638 1.524 . S
C639 C640 1.397 . S
C639 C644 1.363 . S
C640 H617 0.950 . S
C640 C639 1.397 . S
C640 C641 1.334 . S
C641 H618 0.950 . S
C641 C640 1.334 . S
C641 C642 1.287 . S
C642 C641 1.287 . S
C642 C643 1.524 . S
C642 H661 0.913 . S
C643 H619 0.950 . S
C643 C642 1.524 . S
C643 C644 1.415 . S
C644 H620 0.950 . S
C644 C639 1.363 . S
C644 C643 1.415 . S
C645 H621 0.951 . S
C645 C646 1.366 . S
C645 C647 1.388 . S
C646 C645 1.366 . S
C646 C650 1.385 . S
C647 H622 0.951 . S
C647 C645 1.388 . S
C647 C648 1.366 . S
C648 C647 1.366 . S
C648 C649 1.414 . S
C648 C651 1.499 . S
C649 H623 0.950 . S
C649 C648 1.414 . S
C649 C650 1.374 . S
C650 H624 0.950 . S
C650 C646 1.385 . S
C650 C649 1.374 . S
C651 C648 1.499 . S
C651 C652 1.373 . S
C651 C653 1.389 . S
C652 H625 0.950 . S
C652 C638 1.377 . S
C652 C651 1.373 . S
C653 C637 1.377 . S
C653 C651 1.389 . S
C653 C654 1.524 . S
C654 C653 1.524 . S
C654 C655 1.397 . S
C654 C659 1.363 . S
C655 H626 0.950 . S
C655 C654 1.397 . S
C655 C656 1.334 . S
C656 H627 0.950 . S
C656 C655 1.334 . S
C656 C657 1.287 . S
C657 C656 1.287 . S
C657 C658 1.524 . S
C657 H660 0.999 . S
C658 H628 0.950 . S
C658 C657 1.524 . S
C658 C659 1.415 . S
C659 H629 0.950 . S
C659 C654 1.363 . S
C659 C658 1.415 . S
H660 C657 0.999 . S
H661 C642 0.913 . S
H662 C680 0.951 . S
H663 C682 0.951 . S
H664 C684 0.950 . S
H665 C685 0.950 . S
H666 C687 0.950 . S
H667 C690 0.950 . S
H668 C691 0.950 . S
H669 C693 0.950 . S
H670 C694 0.950 . S
H671 C695 0.951 . S
H672 C697 0.951 . S
H673 C699 0.950 . S
H674 C700 0.950 . S
H675 C702 0.950 . S
H676 C705 0.950 . S
H677 C706 0.950 . S
H678 C708 0.950 . S
H679 C709 0.950 . S
C680 H662 0.951 . S
C680 C681 1.366 . S
C680 C682 1.388 . S
C681 C680 1.366 . S
C681 C685 1.385 . S
C682 H663 0.951 . S
C682 C680 1.388 . S
C682 C683 1.366 . S
C683 C682 1.366 . S
C683 C684 1.414 . S
C683 C686 1.499 . S
C684 H664 0.950 . S
C684 C683 1.414 . S
C684 C685 1.374 . S
C685 H665 0.950 . S
C685 C681 1.385 . S
C685 C684 1.374 . S
C686 C683 1.499 . S
C686 C687 1.373 . S
C686 C688 1.389 . S
C687 H666 0.950 . S
C687 C686 1.373 . S
C687 C703 1.377 . S
C688 C686 1.389 . S
C688 C689 1.524 . S
C688 C702 1.377 . S
C689 C688 1.524 . S
C689 C690 1.397 . S
C689 C694 1.363 . S
C690 H667 0.950 . S
C690 C689 1.397 . S
C690 C691 1.334 . S
C691 H668 0.950 . S
C691 C690 1.334 . S
C691 C692 1.287 . S
C692 C691 1.287 . S
C692 C693 1.524 . S
C692 H711 0.913 . S
C693 H669 0.950 . S
C693 C692 1.524 . S
C693 C694 1.415 . S
C694 H670 0.950 . S
C694 C689 1.363 . S
C694 C693 1.415 . S
C695 H671 0.951 . S
C695 C696 1.366 . S
C695 C697 1.388 . S
C696 C695 1.366 . S
C696 C700 1.385 . S
C697 H672 0.951 . S
C697 C695 1.388 . S
C697 C698 1.366 . S
C698 C697 1.366 . S
C698 C699 1.414 . S
C698 C701 1.499 . S
C699 H673 0.950 . S
C699 C698 1.414 . S
C699 C700 1.374 . S
C700 H674 0.950 . S
C700 C696 1.385 . S
C700 C699 1.374 . S
C701 C698 1.499 . S
C701 C702 1.373 . S
C701 C703 1.389 . S
C702 H675 0.950 . S
C702 C688 1.377 . S
C702 C701 1.373 . S
C703 C687 1.377 . S
C703 C701 1.389 . S
C703 C704 1.524 . S
C704 C703 1.524 . S
C704 C705 1.397 . S
C704 C709 1.363 . S
C705 H676 0.950 . S
C705 C704 1.397 . S
C705 C706 1.334 . S
C706 H677 0.950 . S
C706 C705 1.334 . S
C706 C707 1.287 . S
C707 C706 1.287 . S
C707 C708 1.524 . S
C707 H710 0.999 . S
C708 H678 0.950 . S
C708 C707 1.524 . S
C708 C709 1.415 . S
C709 H679 0.950 . S
C709 C704 1.363 . S
C709 C708 1.415 . S
H710 C707 0.999 . S
H711 C692 0.913 . S
H712 C730 0.951 . S
H713 C732 0.951 . S
H714 C734 0.950 . S
H715 C735 0.950 . S
H716 C737 0.950 . S
H717 C740 0.950 . S
H718 C741 0.950 . S
H719 C743 0.950 . S
H720 C744 0.950 . S
H721 C745 0.951 . S
H722 C747 0.951 . S
H723 C749 0.950 . S
H724 C750 0.950 . S
H725 C752 0.950 . S
H726 C755 0.950 . S
H727 C756 0.950 . S
H728 C758 0.950 . S
H729 C759 0.950 . S
C730 H712 0.951 . S
C730 C731 1.366 . S
C730 C732 1.388 . S
C731 C730 1.366 . S
C731 C735 1.385 . S
C732 H713 0.951 . S
C732 C730 1.388 . S
C732 C733 1.366 . S
C733 C732 1.366 . S
C733 C734 1.414 . S
C733 C736 1.499 . S
C734 H714 0.950 . S
C734 C733 1.414 . S
C734 C735 1.374 . S
C735 H715 0.950 . S
C735 C731 1.385 . S
C735 C734 1.374 . S
C736 C733 1.499 . S
C736 C737 1.373 . S
C736 C738 1.389 . S
C737 H716 0.950 . S
C737 C736 1.373 . S
C737 C753 1.377 . S
C738 C736 1.389 . S
C738 C739 1.524 . S
C738 C752 1.377 . S
C739 C738 1.524 . S
C739 C740 1.397 . S
C739 C744 1.363 . S
C740 H717 0.950 . S
C740 C739 1.397 . S
C740 C741 1.334 . S
C741 H718 0.950 . S
C741 C740 1.334 . S
C741 C742 1.287 . S
C742 C741 1.287 . S
C742 C743 1.524 . S
C742 H761 0.913 . S
C743 H719 0.950 . S
C743 C742 1.524 . S
C743 C744 1.415 . S
C744 H720 0.950 . S
C744 C739 1.363 . S
C744 C743 1.415 . S
C745 H721 0.951 . S
C745 C746 1.366 . S
C745 C747 1.388 . S
C746 C745 1.366 . S
C746 C750 1.385 . S
C747 H722 0.951 . S
C747 C745 1.388 . S
C747 C748 1.366 . S
C748 C747 1.366 . S
C748 C749 1.414 . S
C748 C751 1.499 . S
C749 H723 0.950 . S
C749 C748 1.414 . S
C749 C750 1.374 . S
C750 H724 0.950 . S
C750 C746 1.385 . S
C750 C749 1.374 . S
C751 C748 1.499 . S
C751 C752 1.373 . S
C751 C753 1.389 . S
C752 H725 0.950 . S
C752 C738 1.377 . S
C752 C751 1.373 . S
C753 C737 1.377 . S
C753 C751 1.389 . S
C753 C754 1.524 . S
C754 C753 1.524 . S
C754 C755 1.397 . S
C754 C759 1.363 . S
C755 H726 0.950 . S
C755 C754 1.397 . S
C755 C756 1.334 . S
C756 H727 0.950 . S
C756 C755 1.334 . S
C756 C757 1.287 . S
C757 C756 1.287 . S
C757 C758 1.524 . S
C757 H760 0.999 . S
C758 H728 0.950 . S
C758 C757 1.524 . S
C758 C759 1.415 . S
C759 H729 0.950 . S
C759 C754 1.363 . S
C759 C758 1.415 . S
H760 C757 0.999 . S
H761 C742 0.913 . S
H762 C780 0.951 . S
H763 C782 0.951 . S
H764 C784 0.950 . S
H765 C785 0.950 . S
H766 C787 0.950 . S
H767 C790 0.950 . S
H768 C791 0.950 . S
H769 C793 0.950 . S
H770 C794 0.950 . S
H771 C795 0.951 . S
H772 C797 0.951 . S
H773 C799 0.950 . S
H774 C800 0.950 . S
H775 C802 0.950 . S
H776 C805 0.950 . S
H777 C806 0.950 . S
H778 C808 0.950 . S
H779 C809 0.950 . S
C780 H762 0.951 . S
C780 C781 1.366 . S
C780 C782 1.388 . S
C781 C780 1.366 . S
C781 C785 1.385 . S
C782 H763 0.951 . S
C782 C780 1.388 . S
C782 C783 1.366 . S
C783 C782 1.366 . S
C783 C784 1.414 . S
C783 C786 1.499 . S
C784 H764 0.950 . S
C784 C783 1.414 . S
C784 C785 1.374 . S
C785 H765 0.950 . S
C785 C781 1.385 . S
C785 C784 1.374 . S
C786 C783 1.499 . S
C786 C787 1.373 . S
C786 C788 1.389 . S
C787 H766 0.950 . S
C787 C786 1.373 . S
C787 C803 1.377 . S
C788 C786 1.389 . S
C788 C789 1.524 . S
C788 C802 1.377 . S
C789 C788 1.524 . S
C789 C790 1.397 . S
C789 C794 1.363 . S
C790 H767 0.950 . S
C790 C789 1.397 . S
C790 C791 1.334 . S
C791 H768 0.950 . S
C791 C790 1.334 . S
C791 C792 1.287 . S
C792 C791 1.287 . S
C792 C793 1.524 . S
C792 H811 0.913 . S
C793 H769 0.950 . S
C793 C792 1.524 . S
C793 C794 1.415 . S
C794 H770 0.950 . S
C794 C789 1.363 . S
C794 C793 1.415 . S
C795 H771 0.951 . S
C795 C796 1.366 . S
C795 C797 1.388 . S
C796 C795 1.366 . S
C796 C800 1.385 . S
C797 H772 0.951 . S
C797 C795 1.388 . S
C797 C798 1.366 . S
C798 C797 1.366 . S
C798 C799 1.414 . S
C798 C801 1.499 . S
C799 H773 0.950 . S
C799 C798 1.414 . S
C799 C800 1.374 . S
C800 H774 0.950 . S
C800 C796 1.385 . S
C800 C799 1.374 . S
C801 C798 1.499 . S
C801 C802 1.373 . S
C801 C803 1.389 . S
C802 H775 0.950 . S
C802 C788 1.377 . S
C802 C801 1.373 . S
C803 C787 1.377 . S
C803 C801 1.389 . S
C803 C804 1.524 . S
C804 C803 1.524 . S
C804 C805 1.397 . S
C804 C809 1.363 . S
C805 H776 0.950 . S
C805 C804 1.397 . S
C805 C806 1.334 . S
C806 H777 0.950 . S
C806 C805 1.334 . S
C806 C807 1.287 . S
C807 C806 1.287 . S
C807 C808 1.524 . S
C807 H810 0.999 . S
C808 H778 0.950 . S
C808 C807 1.524 . S
C808 C809 1.415 . S
C809 H779 0.950 . S
C809 C804 1.363 . S
C809 C808 1.415 . S
H810 C807 0.999 . S
H811 C792 0.913 . S
H812 C830 0.951 . S
H813 C832 0.951 . S
H814 C834 0.950 . S
H815 C835 0.950 . S
H816 C837 0.950 . S
H817 C840 0.950 . S
H818 C841 0.950 . S
H819 C843 0.950 . S
H820 C844 0.950 . S
H821 C845 0.951 . S
H822 C847 0.951 . S
H823 C849 0.950 . S
H824 C850 0.950 . S
H825 C852 0.950 . S
H826 C855 0.950 . S
H827 C856 0.950 . S
H828 C858 0.950 . S
H829 C859 0.950 . S
C830 H812 0.951 . S
C830 C831 1.366 . S
C830 C832 1.388 . S
C831 C830 1.366 . S
C831 C835 1.385 . S
C832 H813 0.951 . S
C832 C830 1.388 . S
C832 C833 1.366 . S
C833 C832 1.366 . S
C833 C834 1.414 . S
C833 C836 1.499 . S
C834 H814 0.950 . S
C834 C833 1.414 . S
C834 C835 1.374 . S
C835 H815 0.950 . S
C835 C831 1.385 . S
C835 C834 1.374 . S
C836 C833 1.499 . S
C836 C837 1.373 . S
C836 C838 1.389 . S
C837 H816 0.950 . S
C837 C836 1.373 . S
C837 C853 1.377 1_554 S
C838 C836 1.389 . S
C838 C839 1.524 . S
C838 C852 1.377 1_554 S
C839 C838 1.524 . S
C839 C840 1.397 . S
C839 C844 1.363 . S
C840 H817 0.950 . S
C840 C839 1.397 . S
C840 C841 1.334 . S
C841 H818 0.950 . S
C841 C840 1.334 . S
C841 C842 1.287 . S
C842 C841 1.287 . S
C842 C843 1.524 . S
C842 H861 0.913 . S
C843 H819 0.950 . S
C843 C842 1.524 . S
C843 C844 1.415 . S
C844 H820 0.950 . S
C844 C839 1.363 . S
C844 C843 1.415 . S
C845 H821 0.951 . S
C845 C846 1.366 . S
C845 C847 1.388 . S
C846 C845 1.366 . S
C846 C850 1.385 . S
C847 H822 0.951 . S
C847 C845 1.388 . S
C847 C848 1.366 . S
C848 C847 1.366 . S
C848 C849 1.414 . S
C848 C851 1.499 . S
C849 H823 0.950 . S
C849 C848 1.414 . S
C849 C850 1.374 . S
C850 H824 0.950 . S
C850 C846 1.385 . S
C850 C849 1.374 . S
C851 C848 1.499 . S
C851 C852 1.373 . S
C851 C853 1.389 . S
C852 H825 0.950 . S
C852 C838 1.377 1_556 S
C852 C851 1.373 . S
C853 C837 1.377 1_556 S
C853 C851 1.389 . S
C853 C854 1.524 . S
C854 C853 1.524 . S
C854 C855 1.397 . S
C854 C859 1.363 . S
C855 H826 0.950 . S
C855 C854 1.397 . S
C855 C856 1.334 . S
C856 H827 0.950 . S
C856 C855 1.334 . S
C856 C857 1.287 . S
C857 C856 1.287 . S
C857 C858 1.524 . S
C857 H860 0.999 . S
C858 H828 0.950 . S
C858 C857 1.524 . S
C858 C859 1.415 . S
C859 H829 0.950 . S
C859 C854 1.363 . S
C859 C858 1.415 . S
H860 C857 0.999 . S
H861 C842 0.913 . S
H862 C880 0.951 . S
H863 C882 0.951 . S
H864 C884 0.950 . S
H865 C885 0.950 . S
H866 C887 0.950 . S
H867 C890 0.950 . S
H868 C891 0.950 . S
H869 C893 0.950 . S
H870 C894 0.950 . S
H871 C895 0.951 . S
H872 C897 0.951 . S
H873 C899 0.950 . S
H874 C900 0.950 . S
H875 C902 0.950 . S
H876 C905 0.950 . S
H877 C906 0.950 . S
H878 C908 0.950 . S
H879 C909 0.950 . S
C880 H862 0.951 . S
C880 C881 1.366 . S
C880 C882 1.388 . S
C881 C880 1.366 . S
C881 C885 1.385 . S
C882 H863 0.951 . S
C882 C880 1.388 . S
C882 C883 1.366 . S
C883 C882 1.366 . S
C883 C884 1.414 . S
C883 C886 1.499 . S
C884 H864 0.950 . S
C884 C883 1.414 . S
C884 C885 1.374 . S
C885 H865 0.950 . S
C885 C881 1.385 . S
C885 C884 1.374 . S
C886 C883 1.499 . S
C886 C887 1.373 . S
C886 C888 1.389 1_554 S
C887 H866 0.950 . S
C887 C886 1.373 . S
C887 C903 1.377 . S
C888 C886 1.389 1_556 S
C888 C889 1.524 . S
C888 C902 1.377 . S
C889 C888 1.524 . S
C889 C890 1.397 . S
C889 C894 1.363 . S
C890 H867 0.950 . S
C890 C889 1.397 . S
C890 C891 1.334 . S
C891 H868 0.950 . S
C891 C890 1.334 . S
C891 C892 1.287 . S
C892 C891 1.287 . S
C892 C893 1.524 . S
C892 H911 0.913 . S
C893 H869 0.950 . S
C893 C892 1.524 . S
C893 C894 1.415 . S
C894 H870 0.950 . S
C894 C889 1.363 . S
C894 C893 1.415 . S
C895 H871 0.951 . S
C895 C896 1.366 . S
C895 C897 1.388 . S
C896 C895 1.366 . S
C896 C900 1.385 . S
C897 H872 0.951 . S
C897 C895 1.388 . S
C897 C898 1.366 . S
C898 C897 1.366 . S
C898 C899 1.414 . S
C898 C901 1.499 . S
C899 H873 0.950 . S
C899 C898 1.414 . S
C899 C900 1.374 . S
C900 H874 0.950 . S
C900 C896 1.385 . S
C900 C899 1.374 . S
C901 C898 1.499 . S
C901 C902 1.373 . S
C901 C903 1.389 1_556 S
C902 H875 0.950 . S
C902 C888 1.377 . S
C902 C901 1.373 . S
C903 C887 1.377 . S
C903 C901 1.389 1_554 S
C903 C904 1.524 . S
C904 C903 1.524 . S
C904 C905 1.397 . S
C904 C909 1.363 . S
C905 H876 0.950 . S
C905 C904 1.397 . S
C905 C906 1.334 . S
C906 H877 0.950 . S
C906 C905 1.334 . S
C906 C907 1.287 . S
C907 C906 1.287 . S
C907 C908 1.524 . S
C907 H910 0.999 . S
C908 H878 0.950 . S
C908 C907 1.524 . S
C908 C909 1.415 . S
C909 H879 0.950 . S
C909 C904 1.363 . S
C909 C908 1.415 . S
H910 C907 0.999 . S
H911 C892 0.913 . S
C131 C0 1.530 . S
C146 C28 1.530 . S
C181 C42 1.531 . S
C196 C14 1.531 . S
C231 C84 1.531 . S
C246 C56 1.531 . S
C281 C70 1.531 . S
C296 C98 1.530 . S
C331 C95 1.776 . S
C346 C11 1.776 . S
C381 C25 1.776 . S
C396 C109 1.776 . S
C431 C39 1.775 . S
C446 C67 1.775 . S
C481 C53 1.776 . S
C496 C81 1.776 . S
C531 C93 1.541 . S
C546 C9 1.541 . S
C581 C23 1.542 . S
C596 C107 1.541 . S
C631 C65 1.542 . S
C646 C37 1.542 . S
C681 C79 1.541 . S
C696 C51 1.541 . S
C731 C19 0.397 . S
C746 C5 0.394 . S
C781 C33 0.394 . S
C796 C47 0.398 . S
C831 C75 0.394 . S
C846 C61 0.398 . S
C881 C89 0.396 . S
C896 C103 0.394 . S
