# Generated by pormake.
# Topology noz, (5)-cn, num edge types: 1
# Building blocks:
#     Node 0, Type 0, BuildingBlock: XOMCOT_clean_sbu_0, # of connection points: 5
#     Node 1, Type 0, BuildingBlock: XOMCOT_clean_sbu_0, # of connection points: 5
#     Node 2, Type 0, BuildingBlock: XOMCOT_clean_sbu_0, # of connection points: 5
#     Node 3, Type 0, BuildingBlock: XOMCOT_clean_sbu_0, # of connection points: 5
#     Node 4, Type 0, BuildingBlock: XOMCOT_clean_sbu_0, # of connection points: 5
#     Node 5, Type 0, BuildingBlock: XOMCOT_clean_sbu_0, # of connection points: 5
#     Node 6, Type 0, BuildingBlock: XOMCOT_clean_sbu_0, # of connection points: 5
#     Node 7, Type 0, BuildingBlock: XOMCOT_clean_sbu_0, # of connection points: 5
#     Edge 8, Type (0, 0), BuildingBlock: AJUNOK_clean_linker_0, # of connection points: 2
#     Edge 9, Type (0, 0), BuildingBlock: AJUNOK_clean_linker_0, # of connection points: 2
#     Edge 10, Type (0, 0), BuildingBlock: AJUNOK_clean_linker_0, # of connection points: 2
#     Edge 11, Type (0, 0), BuildingBlock: AJUNOK_clean_linker_0, # of connection points: 2
#     Edge 12, Type (0, 0), BuildingBlock: AJUNOK_clean_linker_0, # of connection points: 2
#     Edge 13, Type (0, 0), BuildingBlock: AJUNOK_clean_linker_0, # of connection points: 2
#     Edge 14, Type (0, 0), BuildingBlock: AJUNOK_clean_linker_0, # of connection points: 2
#     Edge 15, Type (0, 0), BuildingBlock: AJUNOK_clean_linker_0, # of connection points: 2
#     Edge 16, Type (0, 0), BuildingBlock: AJUNOK_clean_linker_0, # of connection points: 2
#     Edge 17, Type (0, 0), BuildingBlock: AJUNOK_clean_linker_0, # of connection points: 2
#     Edge 18, Type (0, 0), BuildingBlock: AJUNOK_clean_linker_0, # of connection points: 2
#     Edge 19, Type (0, 0), BuildingBlock: AJUNOK_clean_linker_0, # of connection points: 2
#     Edge 20, Type (0, 0), BuildingBlock: AJUNOK_clean_linker_0, # of connection points: 2
#     Edge 21, Type (0, 0), BuildingBlock: AJUNOK_clean_linker_0, # of connection points: 2
#     Edge 22, Type (0, 0), BuildingBlock: AJUNOK_clean_linker_0, # of connection points: 2
#     Edge 23, Type (0, 0), BuildingBlock: AJUNOK_clean_linker_0, # of connection points: 2
#     Edge 24, Type (0, 0), BuildingBlock: AJUNOK_clean_linker_0, # of connection points: 2
#     Edge 25, Type (0, 0), BuildingBlock: AJUNOK_clean_linker_0, # of connection points: 2
#     Edge 26, Type (0, 0), BuildingBlock: AJUNOK_clean_linker_0, # of connection points: 2
#     Edge 27, Type (0, 0), BuildingBlock: AJUNOK_clean_linker_0, # of connection points: 2
# Relax obj value: 0.103
# Max RMSD: 0.189
# Mean RMSD: 0.189
data_MOF--net-noz--node1-XOMCOT_clean_sbu_0--edge1-AJUNOK_clean_linker_0
_symmetry_space_group_name_H-M    P1
_symmetry_Int_Tables_number       1
_symmetry_cell_setting            triclinic
loop_
_symmetry_equiv_pos_as_xyz
'x, y, z'
_cell_length_a     18.400661
_cell_length_b     39.315051
_cell_length_c     27.241917
_cell_angle_alpha  88.546364
_cell_angle_beta   90.357925
_cell_angle_gamma 89.422624
loop_
_atom_site_label
_atom_site_type_symbol
_atom_site_fract_x
_atom_site_fract_y
_atom_site_fract_z
_atom_type_partial_charge
Co0 Co 0.20107 0.33445 0.41034 0.0
C1 C 0.32045 0.29723 0.46519 0.0
C2 C 0.27066 0.33447 0.51028 0.0
C3 C 0.32459 0.31815 0.5371 0.0
N4 N 0.26742 0.32151 0.46481 0.0
N5 N 0.3567 0.29497 0.50864 0.0
H6 H 0.33305 0.28158 0.43427 0.0
H7 H 0.23594 0.35422 0.52422 0.0
C8 C 0.09592 0.30384 0.48324 0.0
O9 O 0.11729 0.32573 0.51569 0.0
N10 N 0.13555 0.34698 0.35612 0.0
C11 C 0.14834 0.3703 0.32003 0.0
C12 C 0.08754 0.37368 0.29061 0.0
C13 C 0.06645 0.33675 0.3482 0.0
N14 N 0.03603 0.35285 0.3086 0.0
C15 C 0.21942 0.39908 0.45195 0.0
C16 C 0.07434 0.41515 0.46551 0.0
C17 C 0.1271 0.43974 0.47438 0.0
C18 C 0.2003 0.43124 0.46783 0.0
C19 C 0.09592 0.38305 0.44916 0.0
N20 N 0.16799 0.37511 0.44348 0.0
H21 H 0.27622 0.39342 0.44607 0.0
H22 H 0.05451 0.365 0.43996 0.0
H23 H 0.19759 0.38482 0.31595 0.0
H24 H 0.03811 0.31858 0.37137 0.0
O25 O 0.28039 0.3553 0.37595 0.0
O26 O 0.24916 0.30168 0.36768 0.0
O27 O 0.12332 0.30421 0.44014 0.0
C28 C 0.29156 0.32671 0.3545 0.0
H29 H 0.33747 0.32251 0.57521 0.0
H30 H 0.0805 0.39122 0.25962 0.0
H31 H 1.01709 0.42106 0.46947 0.0
H32 H 0.24266 0.44955 0.47443 0.0
Co33 Co 0.60382 0.69963 0.92192 0.0
C34 C 0.74299 0.68477 0.86488 0.0
C35 C 0.67767 0.72626 0.83645 0.0
C36 C 0.73874 0.72394 0.80821 0.0
N37 N 0.67948 0.70172 0.87203 0.0
N38 N 0.77969 0.69786 0.82592 0.0
H39 H 0.76374 0.66411 0.88769 0.0
H40 H 0.63457 0.74498 0.83171 0.0
C41 C 0.53032 0.68274 0.82888 0.0
O42 O 0.58487 0.66146 0.82277 0.0
N43 N 0.5269 0.70058 0.96967 0.0
C44 C 0.52017 0.68298 1.01241 0.0
C45 C 0.4595 0.69512 0.03635 0.0
C46 C 0.4714 0.72317 0.96833 0.0
N47 N 0.4288 0.72035 1.0084 0.0
C48 C 0.66649 0.63477 0.94678 0.0
C49 C 0.54369 0.59633 0.9333 0.0
C50 C 0.60656 0.58054 0.95298 0.0
C51 C 0.66856 0.6002 0.95914 0.0
C52 C 0.54424 0.63115 0.92065 0.0
N53 N 0.60571 0.64993 0.92671 0.0
H54 H 0.71291 0.64969 0.95652 0.0
H55 H 0.49405 0.6433 0.90871 0.0
H56 H 0.55765 0.66346 0.02583 0.0
H57 H 0.46515 0.74255 0.93969 0.0
O58 O 0.67373 0.70708 0.97276 0.0
O59 O 0.6175 0.74832 0.93022 0.0
O60 O 0.52788 0.70047 0.8676 0.0
C61 C 0.66471 0.73936 0.96424 0.0
H62 H 0.75204 0.74013 0.77686 0.0
H63 H 0.44032 0.68647 0.07196 0.0
H64 H 0.49392 0.58216 0.92931 0.0
H65 H 0.71708 0.58945 0.9764 0.0
Co66 Co 0.20394 0.67284 0.62836 0.0
C67 C 0.31467 0.71194 0.5712 0.0
C68 C 0.28282 0.66753 0.53291 0.0
C69 C 0.33552 0.68373 0.50611 0.0
N70 N 0.26957 0.68491 0.57428 0.0
N71 N 0.356 0.7114 0.53035 0.0
H72 H 0.31811 0.73144 0.5984 0.0
H73 H 0.25449 0.64541 0.52081 0.0
C74 C 0.10903 0.7107 0.55416 0.0
O75 O 0.14139 0.69385 0.51943 0.0
N76 N 0.14029 0.66038 0.68212 0.0
C77 C 0.14647 0.63194 0.71057 0.0
C78 C 0.08978 0.63103 0.74325 0.0
C79 C 0.07975 0.67634 0.69774 0.0
N80 N 0.04738 0.65878 0.73483 0.0
C81 C 0.21603 0.60637 0.59064 0.0
C82 C 0.07384 0.59954 0.55919 0.0
C83 C 0.12369 0.57297 0.55231 0.0
C84 C 0.19506 0.57644 0.56886 0.0
C85 C 0.09745 0.62951 0.581 0.0
N86 N 0.16872 0.63316 0.5944 0.0
H87 H 0.27174 0.60848 0.60265 0.0
H88 H 0.05816 0.64939 0.58776 0.0
H89 H 0.18898 0.61293 0.70754 0.0
H90 H 0.05883 0.69988 0.68178 0.0
O91 O 0.28422 0.65121 0.66299 0.0
O92 O 0.25251 0.70508 0.67072 0.0
O93 O 0.12574 0.70437 0.59922 0.0
C94 C 0.29595 0.67998 0.68367 0.0
H95 H 0.35581 0.67627 0.47071 0.0
H96 H 0.0812 0.61158 0.77136 0.0
H97 H 1.01767 0.59718 0.54777 0.0
H98 H 0.23459 0.5561 0.56475 0.0
Co99 Co 0.58258 0.34015 0.13347 0.0
C100 C 0.44717 0.31286 0.08657 0.0
C101 C 0.53136 0.32255 0.03431 0.0
C102 C 0.47052 0.31292 1.00932 0.0
N103 N 0.51734 0.32288 0.08295 0.0
N104 N 0.41747 0.30722 0.04204 0.0
H105 H 0.41735 0.3106 0.12052 0.0
H106 H 0.58074 0.33051 1.01707 0.0
C107 C 0.70715 0.31568 0.06794 0.0
O108 O 0.70139 0.34268 0.03891 0.0
N109 N 0.64813 0.35661 0.18374 0.0
C110 C 0.63731 0.38329 0.21312 0.0
C111 C 0.69666 0.3861 0.24393 0.0
C112 C 0.7139 0.34372 0.19703 0.0
N113 N 0.74458 0.36116 0.23365 0.0
C114 C 0.53868 0.39628 0.07274 0.0
C115 C 0.66946 0.42979 0.0669 0.0
C116 C 0.60766 0.4447 0.04425 0.0
C117 C 0.54191 0.42735 0.04741 0.0
C118 C 0.66393 0.39817 0.09181 0.0
N119 N 0.59937 0.38117 0.09307 0.0
H120 H 0.48604 0.38476 0.07715 0.0
H121 H 0.71154 0.38745 0.11002 0.0
H122 H 0.59013 0.39991 0.2118 0.0
H123 H 0.73944 0.32222 0.18028 0.0
O124 O 0.50179 0.35852 0.16864 0.0
O125 O 0.54629 0.3065 0.18132 0.0
O126 O 0.66538 0.31191 0.10514 0.0
C127 C 0.5 0.3301 0.19388 0.0
H128 H 0.46564 0.31024 0.96998 0.0
H129 H 0.70505 0.40565 0.27061 0.0
H130 H 0.72097 0.44286 0.06676 0.0
H131 H 0.49256 0.43803 0.03121 0.0
Co132 Co 0.69904 0.82796 0.40017 0.0
C133 C 0.83357 0.8082 0.45926 0.0
C134 C 0.73552 0.79541 0.49676 0.0
C135 C 0.79285 0.7829 0.5241 0.0
N136 N 0.76008 0.8121 0.45615 0.0
N137 N 0.85459 0.79073 0.5006 0.0
H138 H 0.87109 0.81639 0.4311 0.0
H139 H 0.67937 0.79108 0.50585 0.0
C140 C 0.55768 0.80965 0.4504 0.0
O141 O 0.53806 0.84187 0.44976 0.0
N142 N 0.63707 0.84128 0.34319 0.0
C143 C 0.6579 0.8562 0.30018 0.0
C144 C 0.59817 0.86103 0.2699 0.0
C145 C 0.56484 0.83627 0.33693 0.0
N146 N 0.53966 0.8488 0.29347 0.0
C147 C 0.67054 0.89905 0.40608 0.0
C148 C 0.65256 0.90338 0.5061 0.0
C149 C 0.65 0.93339 0.4771 0.0
C150 C 0.65765 0.93062 0.42632 0.0
C151 C 0.66327 0.87188 0.48398 0.0
N152 N 0.67176 0.86976 0.43417 0.0
H153 H 0.68266 0.89871 0.36761 0.0
H154 H 0.66376 0.84956 0.50741 0.0
H155 H 0.71249 0.86406 0.29137 0.0
H156 H 0.53057 0.8227 0.36215 0.0
O157 O 0.78226 0.84693 0.36834 0.0
O158 O 0.7462 0.79399 0.35892 0.0
O159 O 0.61627 0.80033 0.42905 0.0
C160 C 0.79257 0.81795 0.34769 0.0
H161 H 0.78912 0.76694 0.55696 0.0
H162 H 0.5975 0.8733 0.23387 0.0
H163 H 0.64891 0.90414 0.54569 0.0
H164 H 0.65644 0.95296 0.4022 0.0
Co165 Co 0.10735 0.1996 0.92673 0.0
C166 C 0.24409 0.18343 0.86775 0.0
C167 C 0.18383 0.22757 0.84294 0.0
C168 C 0.24377 0.22437 0.81381 0.0
N169 N 0.1831 0.20191 0.87677 0.0
N170 N 0.28187 0.1967 0.82932 0.0
H171 H 0.26067 0.16068 0.88769 0.0
H172 H 0.14316 0.24758 0.83988 0.0
C173 C 0.03278 0.18682 0.83254 0.0
O174 O 0.08702 0.16569 0.82466 0.0
N175 N 0.03089 0.20019 0.97507 0.0
C176 C 1.01865 0.17874 1.01334 0.0
C177 C 0.95846 0.19026 0.03825 0.0
C178 C 0.9792 0.22458 0.97766 0.0
N179 N 0.93406 0.21943 1.01609 0.0
C180 C 0.16605 0.13354 0.94876 0.0
C181 C 0.04159 0.09694 0.93174 0.0
C182 C 0.10291 0.08004 0.9517 0.0
C183 C 0.16585 0.09874 0.95956 0.0
C184 C 0.04444 0.13194 0.92063 0.0
N185 N 0.1066 0.14986 0.92871 0.0
H186 H 0.21329 0.14764 0.95935 0.0
H187 H 0.99519 0.14489 0.90863 0.0
H188 H 0.05096 0.15633 0.02259 0.0
H189 H 0.97619 0.24621 0.95235 0.0
O190 O 0.17834 0.20521 0.97767 0.0
O191 O 0.12349 0.2478 0.9372 0.0
O192 O 0.03073 0.20279 0.87286 0.0
C193 C 0.17096 0.23773 0.97039 0.0
H194 H 0.25892 0.24149 0.78394 0.0
H195 H 0.93443 0.17757 0.06972 0.0
H196 H 0.99119 0.08348 0.92642 0.0
H197 H 0.21332 0.08701 0.97688 0.0
Co198 Co 0.70716 0.17389 0.63415 0.0
C199 C 0.82634 0.21064 0.58038 0.0
C200 C 0.76604 0.17919 0.53228 0.0
C201 C 0.819 0.19531 0.5055 0.0
N202 N 0.77001 0.18862 0.57959 0.0
N203 N 0.85772 0.2148 0.53578 0.0
H204 H 0.84488 0.22326 0.61287 0.0
H205 H 0.72851 0.16119 0.51751 0.0
C206 C 0.58923 0.20018 0.56327 0.0
O207 O 0.60461 0.17621 0.53236 0.0
N208 N 0.64486 0.15996 0.68794 0.0
C209 C 0.6514 0.13154 0.71641 0.0
C210 C 0.59442 0.13057 0.7491 0.0
C211 C 0.58436 0.17591 0.70363 0.0
N212 N 0.55244 0.15849 0.74093 0.0
C213 C 0.74018 0.112 0.58887 0.0
C214 C 0.60047 0.08815 0.57751 0.0
C215 C 0.6594 0.06776 0.56308 0.0
C216 C 0.72982 0.08002 0.56976 0.0
C217 C 0.61347 0.12014 0.59746 0.0
N218 N 0.68271 0.13225 0.60092 0.0
H219 H 0.79517 0.12065 0.59408 0.0
H220 H 0.56804 0.1352 0.60998 0.0
H221 H 0.69359 0.11243 0.71282 0.0
H222 H 0.56362 0.19967 0.68798 0.0
O223 O 0.78992 0.15534 0.66906 0.0
O224 O 0.74932 0.20813 0.67656 0.0
O225 O 0.6238 0.20196 0.6041 0.0
C226 C 0.79645 0.18447 0.6897 0.0
H227 H 0.82714 0.19317 0.46641 0.0
H228 H 0.5833 0.1103 0.77552 0.0
H229 H 0.54507 0.07969 0.57315 0.0
H230 H 0.77708 0.06485 0.56063 0.0
Co231 Co 0.07866 0.83778 0.1275 0.0
C232 C 0.9405 0.81341 0.08082 0.0
C233 C 0.0262 0.81994 0.02878 0.0
C234 C 0.96439 0.81176 1.00376 0.0
N235 N 1.01199 0.82123 0.07731 0.0
N236 N 0.91036 0.80808 0.03629 0.0
H237 H 0.91017 0.81258 0.11465 0.0
H238 H 0.0767 0.82592 1.01151 0.0
C239 C 0.20285 0.81646 0.05896 0.0
O240 O 0.19521 0.84357 0.03031 0.0
N241 N 0.14547 0.85384 0.17697 0.0
C242 C 0.13874 0.88261 0.2025 0.0
C243 C 0.2 0.88622 0.23118 0.0
C244 C 0.21064 0.84035 0.19041 0.0
N245 N 0.24508 0.85966 0.22342 0.0
C246 C 0.03025 0.89503 0.06989 0.0
C247 C 0.16082 0.92859 0.06184 0.0
C248 C 0.09829 0.94355 0.04029 0.0
C249 C 0.0325 0.92628 0.04478 0.0
C250 C 0.15628 0.89691 0.08644 0.0
N251 N 0.09183 0.87988 0.08881 0.0
H252 H 0.97798 0.8833 0.07501 0.0
H253 H 0.20477 0.88604 0.10336 0.0
H254 H 0.09363 0.90038 0.19912 0.0
H255 H 0.23312 0.81722 0.17595 0.0
O256 O 0.99844 0.85366 0.16642 0.0
O257 O 0.04753 0.80201 0.17348 0.0
O258 O 0.16203 0.81163 0.09635 0.0
C259 C 1.00029 0.82414 0.18901 0.0
H260 H 0.95968 0.80847 0.96453 0.0
H261 H 0.21193 0.90754 0.25418 0.0
H262 H 0.21239 0.94161 0.06086 0.0
H263 H 0.9826 0.93703 0.02951 0.0
C264 C 0.37442 0.35583 0.29589 0.0
C265 C 0.34645 0.32499 0.31468 0.0
C266 C 0.424 0.35665 0.25736 0.0
C267 C 0.4491 0.32668 0.23581 0.0
H268 H 0.35709 0.37995 0.31047 0.0
H269 H 0.44294 0.38129 0.24445 0.0
S270 S 0.395 0.23893 0.27171 0.0
N271 N 0.34842 0.26334 0.30905 0.0
N272 N 0.4434 0.26492 0.23654 0.0
C273 C 0.42304 0.29543 0.25454 0.0
C274 C 0.3712 0.29458 0.29384 0.0
C275 C 0.46253 0.65654 0.76022 0.0
C276 C 0.47011 0.68383 0.79219 0.0
C277 C 0.40656 0.65599 0.72531 0.0
C278 C 0.35575 0.68286 0.72023 0.0
H279 H 0.49965 0.63498 0.76247 0.0
H280 H 0.40326 0.63407 0.70211 0.0
S281 S 0.35297 0.76122 0.79332 0.0
N282 N 0.42285 0.73903 0.81578 0.0
N283 N 0.31769 0.73815 0.74944 0.0
C284 C 0.36309 0.71069 0.75133 0.0
C285 C 0.42006 0.7111 0.78751 0.0
C286 C 0.96328 0.70225 0.76658 0.0
C287 C 0.9811 0.66783 0.75975 0.0
C288 C 0.89837 0.71175 0.7894 0.0
C289 C 0.84872 0.68723 0.80649 0.0
H290 H 0.99988 0.72204 0.75425 0.0
H291 H 0.8867 0.73856 0.79359 0.0
S292 S 0.86692 0.59385 0.79522 0.0
N293 N 0.94179 0.60914 0.77031 0.0
N294 N 0.82039 0.62721 0.81381 0.0
C295 C 0.86583 0.65275 0.8003 0.0
C296 C 0.9318 0.643 0.77676 0.0
C297 C 0.87604 0.35131 0.22228 0.0
C298 C 0.81677 0.35638 0.25373 0.0
C299 C 0.94746 0.34933 0.24066 0.0
C300 C 0.96202 0.35144 0.29124 0.0
H301 H 0.86725 0.35011 0.18302 0.0
H302 H 0.99189 0.34655 0.21514 0.0
S303 S 0.8256 0.36252 0.3892 0.0
N304 N 0.77703 0.3621 0.33798 0.0
N305 N 0.91122 0.35772 0.37259 0.0
C306 C 0.90307 0.35524 0.32324 0.0
C307 C 0.83046 0.35793 0.30444 0.0
C308 C 0.8484 0.79195 0.27232 0.0
C309 C 0.85257 0.81451 0.31165 0.0
C310 C 0.89891 0.79359 0.23341 0.0
C311 C 0.95463 0.81791 0.23278 0.0
H312 H 0.80386 0.77424 0.27025 0.0
H313 H 0.8921 0.77702 0.20259 0.0
S314 S 0.99577 0.87913 0.32997 0.0
N315 N 0.92282 0.85905 0.34973 0.0
N316 N 1.01531 0.86238 0.27668 0.0
C317 C 0.96167 0.83904 0.27309 0.0
C318 C 0.91134 0.83723 0.31257 0.0
C319 C 0.92137 0.1704 0.71822 0.0
C320 C 0.85733 0.18952 0.7245 0.0
C321 C 0.97787 0.17067 0.75266 0.0
C322 C 0.97291 0.18981 0.79552 0.0
H323 H 0.92763 0.15452 0.68654 0.0
H324 H 0.0253 0.15499 0.74585 0.0
S325 S 0.81723 0.24546 0.82861 0.0
N326 N 0.79265 0.22926 0.7757 0.0
N327 N 0.89893 0.22963 0.84134 0.0
C328 C 0.90985 0.20998 0.80171 0.0
C329 C 0.85215 0.20991 0.76598 0.0
C330 C 0.35997 0.18884 0.75707 0.0
C331 C 0.34888 0.18476 0.808 0.0
C332 C 0.42631 0.1801 0.73555 0.0
C333 C 0.48431 0.16669 0.76397 0.0
H334 H 0.31689 0.19899 0.73357 0.0
H335 H 0.43218 0.18367 0.69623 0.0
S336 S 0.485 0.15219 0.89903 0.0
N337 N 0.40265 0.16724 0.88647 0.0
N338 N 0.52721 0.15035 0.84581 0.0
C339 C 0.474 0.16209 0.81484 0.0
C340 C 0.40635 0.17119 0.83689 0.0
C341 C 0.37501 0.84601 0.21066 0.0
C342 C 0.31809 0.85515 0.24217 0.0
C343 C 0.44731 0.84395 0.22758 0.0
C344 C 0.46501 0.85026 0.27683 0.0
H345 H 0.36374 0.84135 0.17237 0.0
H346 H 0.48969 0.83727 0.20207 0.0
S347 S 0.33533 0.87389 0.37437 0.0
N348 N 0.28394 0.86966 0.32502 0.0
N349 N 0.41935 0.86573 0.3569 0.0
C350 C 0.40828 0.85876 0.30886 0.0
C351 C 0.33499 0.86125 0.29149 0.0
C352 C 0.13501 0.53529 0.48135 0.0
C353 C 0.10436 0.54141 0.52739 0.0
C354 C 0.13666 0.5025 0.46254 0.0
C355 C 0.10806 0.47468 0.48928 0.0
H356 H 0.16227 0.55556 0.46131 0.0
H357 H 0.16448 0.49851 0.42819 0.0
S358 S 1.01603 0.4781 0.60965 0.0
N359 N 0.03985 0.51785 0.59761 0.0
N360 N 0.04293 0.4559 0.56223 0.0
C361 C 0.07242 0.48093 0.53367 0.0
C362 C 0.07073 0.51443 0.55283 0.0
C363 C 0.55207 0.53519 1.00666 0.0
C364 C 0.60575 0.54499 0.97285 0.0
C365 C 0.55385 0.50295 0.02978 0.0
C366 C 0.60913 0.47904 0.01986 0.0
H367 H 0.50947 0.55295 1.01644 0.0
H368 H 0.51198 0.49688 0.05629 0.0
S369 S 0.75969 0.49144 0.93151 0.0
N370 N 0.71421 0.52789 0.92897 0.0
N371 N 0.71695 0.46699 0.97196 0.0
C372 C 0.66257 0.48834 0.98551 0.0
C373 C 0.66093 0.52131 0.96208 0.0
C374 C 0.69308 0.02591 0.49968 0.0
C375 C 0.64993 0.03408 0.54024 0.0
C376 C 0.69226 0.99352 0.47993 0.0
C377 C 0.64706 0.96777 0.49903 0.0
H378 H 0.72907 0.04464 0.48341 0.0
H379 H 0.7289 0.9885 0.44995 0.0
S380 S 0.51988 0.97649 0.60336 0.0
N381 N 0.5594 0.01396 0.5985 0.0
N382 N 0.55479 0.95328 0.55946 0.0
C383 C 0.6017 0.9758 0.53869 0.0
C384 C 0.60343 1.00891 0.55946 0.0
C385 C 0.0453 1.00202 0.02578 0.0
C386 C 0.09975 0.97778 1.01554 0.0
C387 C 0.04509 0.03452 1.0034 0.0
C388 C 0.09955 0.0442 0.97008 0.0
H389 H 1.00323 0.99612 0.0522 0.0
H390 H 1.00336 0.05261 1.01357 0.0
S391 S 0.25089 0.98962 0.92742 0.0
N392 N 0.20689 0.96516 0.9672 0.0
N393 N 0.20715 0.02653 0.9258 0.0
C394 C 0.15346 0.02009 0.95866 0.0
C395 C 0.15348 0.98687 0.98126 0.0
C396 C 0.41995 0.2393 0.5026 0.0
C397 C 0.41583 0.27197 0.52239 0.0
C398 C 0.47594 0.21635 0.51619 0.0
C399 C 0.53002 0.22496 0.55045 0.0
H400 H 0.37895 0.23116 0.4769 0.0
H401 H 0.47629 0.19146 0.50002 0.0
S402 S 0.54796 0.30825 0.61011 0.0
N403 N 0.4742 0.31252 0.57561 0.0
N404 N 0.57776 0.26905 0.60217 0.0
C405 C 0.52704 0.25761 0.57025 0.0
C406 C 0.47048 0.28117 0.55598 0.0
C407 C 0.35532 0.75055 0.07011 0.0
C408 C 0.36844 0.74233 0.02084 0.0
C409 C 0.30039 0.77388 0.08246 0.0
C410 C 0.25727 0.79022 0.04598 0.0
H411 H 0.38908 0.73966 0.09926 0.0
H412 H 0.29332 0.77993 0.12068 0.0
S413 S 0.26179 0.77405 0.91259 0.0
N414 N 0.32723 0.74953 0.93613 0.0
N415 N 0.22644 0.79428 0.95927 0.0
C416 C 0.26796 0.78139 0.9969 0.0
C417 C 0.32289 0.75725 0.98436 0.0
C418 C 0.39424 0.77067 0.515 0.0
C419 C 0.40931 0.73564 0.51407 0.0
C420 C 0.44272 0.79437 0.49456 0.0
C421 C 0.50842 0.7839 0.47279 0.0
H422 H 0.34355 0.77969 0.53019 0.0
H423 H 0.42792 0.82108 0.49537 0.0
S424 S 0.57589 0.69475 0.46611 0.0
N425 N 0.49612 0.69155 0.49313 0.0
N426 N 0.58758 0.73578 0.4549 0.0
C427 C 0.52508 0.74884 0.47336 0.0
C428 C 0.47546 0.72481 0.49393 0.0
C429 C 0.25774 0.24959 0.03806 0.0
C430 C 0.2217 0.26089 0.99473 0.0
C431 C 0.31864 0.26659 0.05592 0.0
C432 C 0.34604 0.29514 0.03063 0.0
H433 H 0.24126 0.22633 0.05685 0.0
H434 H 0.34761 0.2559 0.08751 0.0
S435 S 0.26536 0.33801 0.92009 0.0
N436 N 0.21282 0.30481 0.93051 0.0
N437 N 0.32768 0.33666 0.96403 0.0
C438 C 0.30713 0.30831 0.98967 0.0
C439 C 0.24466 0.29123 0.97176 0.0
C440 C 0.02569 0.73856 0.49113 0.0
C441 C 0.04871 0.73495 0.54059 0.0
C442 C 0.96503 0.75879 0.47756 0.0
C443 C 0.92477 0.7761 0.51293 0.0
H444 H 0.05316 0.72477 0.46263 0.0
H445 H 0.94716 0.75939 0.4396 0.0
S446 S 0.96697 0.77937 0.64596 0.0
N447 N 0.03011 0.75389 0.62404 0.0
N448 N 0.91572 0.7912 0.59844 0.0
C449 C 0.94932 0.77434 0.56189 0.0
C450 C 1.0113 0.75399 0.57575 0.0
C451 C 0.78637 0.28663 1.00726 0.0
C452 C 0.76178 0.28899 0.05587 0.0
C453 C 0.84062 0.26323 0.99457 0.0
C454 C 0.87423 0.24147 0.03004 0.0
H455 H 0.76344 0.30303 0.97846 0.0
H456 H 0.85642 0.2624 0.95644 0.0
S457 S 0.82924 0.23743 0.16302 0.0
N458 N 0.77297 0.26652 0.13949 0.0
N459 N 0.87825 0.22419 0.11658 0.0
C460 C 0.84944 0.24325 0.07888 0.0
C461 C 0.79256 0.26658 0.09152 0.0
C462 C 0.98792 0.28824 0.53435 0.0
C463 C 0.03598 0.28027 0.49615 0.0
C464 C 0.93038 0.2667 0.54729 0.0
C465 C 0.91871 0.23613 0.52282 0.0
H466 H 0.99397 0.31165 0.55406 0.0
H467 H 0.89398 0.27439 0.57611 0.0
S468 S 0.03356 0.20188 0.42331 0.0
N469 N 0.07025 0.23886 0.43559 0.0
N470 N 0.96392 0.19782 0.46084 0.0
C471 C 0.96756 0.22744 0.48531 0.0
C472 C 0.02563 0.24962 0.47175 0.0
C473 C 0.74639 0.75326 0.03361 0.0
C474 C 0.71349 0.76334 0.9886 0.0
C475 C 0.80739 0.77008 0.05161 0.0
C476 C 0.83797 0.79723 0.02486 0.0
H477 H 0.72774 0.73083 0.05354 0.0
H478 H 0.83423 0.76005 0.08446 0.0
S479 S 0.76507 0.83722 0.90978 0.0
N480 N 0.71015 0.80505 0.92128 0.0
N481 N 0.82506 0.8367 0.95518 0.0
C482 C 0.80161 0.80955 0.98231 0.0
C483 C 0.73908 0.79262 0.96418 0.0
loop_
_geom_bond_atom_site_label_1
_geom_bond_atom_site_label_2
_geom_bond_distance
_geom_bond_site_symmetry_2
_ccdc_geom_bond_type
Co0 N4 2.148 . S
Co0 N10 2.128 . S
Co0 N20 2.194 . S
Co0 O25 2.351 . S
Co0 O26 2.155 . S
Co0 O27 2.096 . S
C1 N4 1.301 . S
C1 N5 1.328 . S
C1 H6 0.930 . S
C2 C3 1.333 . S
C2 N4 1.317 . S
C2 H7 0.930 . S
C3 C2 1.333 . S
C3 N5 1.350 . S
C3 H29 0.931 . S
N4 Co0 2.148 . S
N4 C1 1.301 . S
N4 C2 1.317 . S
N5 C1 1.328 . S
N5 C3 1.350 . S
H6 C1 0.930 . S
H7 C2 0.930 . S
C8 O9 1.224 . S
C8 O27 1.247 . S
O9 C8 1.224 . S
N10 Co0 2.128 . S
N10 C11 1.355 . S
N10 C13 1.311 . S
C11 N10 1.355 . S
C11 C12 1.363 . S
C11 H23 0.929 . S
C12 C11 1.363 . S
C12 N14 1.375 . S
C12 H30 0.931 . S
C13 N10 1.311 . S
C13 N14 1.347 . S
C13 H24 0.929 . S
N14 C12 1.375 . S
N14 C13 1.347 . S
C15 C18 1.365 . S
C15 N20 1.328 . S
C15 H21 0.929 . S
C16 C17 1.362 . S
C16 C19 1.378 . S
C16 H31 0.929 . S
C17 C16 1.362 . S
C17 C18 1.366 . S
C18 C15 1.365 . S
C18 C17 1.366 . S
C18 H32 0.930 . S
C19 C16 1.378 . S
C19 N20 1.315 . S
C19 H22 0.930 . S
N20 Co0 2.194 . S
N20 C15 1.328 . S
N20 C19 1.315 . S
H21 C15 0.929 . S
H22 C19 0.930 . S
H23 C11 0.929 . S
H24 C13 0.929 . S
O25 Co0 2.351 . S
O25 C28 1.244 . S
O26 Co0 2.155 . S
O26 C28 1.240 . S
O27 Co0 2.096 . S
O27 C8 1.247 . S
C28 O25 1.244 . S
C28 O26 1.240 . S
H29 C3 0.931 . S
H30 C12 0.931 . S
H31 C16 0.929 . S
H32 C18 0.930 . S
Co33 N37 2.148 . S
Co33 N43 2.128 . S
Co33 N53 2.194 . S
Co33 O58 2.351 . S
Co33 O59 2.155 . S
Co33 O60 2.096 . S
C34 N37 1.301 . S
C34 N38 1.328 . S
C34 H39 0.930 . S
C35 C36 1.333 . S
C35 N37 1.317 . S
C35 H40 0.930 . S
C36 C35 1.333 . S
C36 N38 1.350 . S
C36 H62 0.931 . S
N37 Co33 2.148 . S
N37 C34 1.301 . S
N37 C35 1.317 . S
N38 C34 1.328 . S
N38 C36 1.350 . S
H39 C34 0.930 . S
H40 C35 0.930 . S
C41 O42 1.224 . S
C41 O60 1.247 . S
O42 C41 1.224 . S
N43 Co33 2.128 . S
N43 C44 1.355 . S
N43 C46 1.311 . S
C44 N43 1.355 . S
C44 C45 1.363 1_556 S
C44 H56 0.929 1_556 S
C45 C44 1.363 1_554 S
C45 N47 1.375 1_554 S
C45 H63 0.931 . S
C46 N43 1.311 . S
C46 N47 1.347 . S
C46 H57 0.929 . S
N47 C45 1.375 1_556 S
N47 C46 1.347 . S
C48 C51 1.365 . S
C48 N53 1.328 . S
C48 H54 0.929 . S
C49 C50 1.362 . S
C49 C52 1.378 . S
C49 H64 0.929 . S
C50 C49 1.362 . S
C50 C51 1.366 . S
C51 C48 1.365 . S
C51 C50 1.366 . S
C51 H65 0.930 . S
C52 C49 1.378 . S
C52 N53 1.315 . S
C52 H55 0.930 . S
N53 Co33 2.194 . S
N53 C48 1.328 . S
N53 C52 1.315 . S
H54 C48 0.929 . S
H55 C52 0.930 . S
H56 C44 0.929 1_554 S
H57 C46 0.929 . S
O58 Co33 2.351 . S
O58 C61 1.244 . S
O59 Co33 2.155 . S
O59 C61 1.240 . S
O60 Co33 2.096 . S
O60 C41 1.247 . S
C61 O58 1.244 . S
C61 O59 1.240 . S
H62 C36 0.931 . S
H63 C45 0.931 . S
H64 C49 0.929 . S
H65 C51 0.930 . S
Co66 N70 2.148 . S
Co66 N76 2.128 . S
Co66 N86 2.194 . S
Co66 O91 2.351 . S
Co66 O92 2.155 . S
Co66 O93 2.096 . S
C67 N70 1.301 . S
C67 N71 1.328 . S
C67 H72 0.930 . S
C68 C69 1.333 . S
C68 N70 1.317 . S
C68 H73 0.930 . S
C69 C68 1.333 . S
C69 N71 1.350 . S
C69 H95 0.931 . S
N70 Co66 2.148 . S
N70 C67 1.301 . S
N70 C68 1.317 . S
N71 C67 1.328 . S
N71 C69 1.350 . S
H72 C67 0.930 . S
H73 C68 0.930 . S
C74 O75 1.224 . S
C74 O93 1.247 . S
O75 C74 1.224 . S
N76 Co66 2.128 . S
N76 C77 1.355 . S
N76 C79 1.311 . S
C77 N76 1.355 . S
C77 C78 1.363 . S
C77 H89 0.929 . S
C78 C77 1.363 . S
C78 N80 1.375 . S
C78 H96 0.931 . S
C79 N76 1.311 . S
C79 N80 1.347 . S
C79 H90 0.929 . S
N80 C78 1.375 . S
N80 C79 1.347 . S
C81 C84 1.365 . S
C81 N86 1.328 . S
C81 H87 0.929 . S
C82 C83 1.362 . S
C82 C85 1.378 . S
C82 H97 0.929 . S
C83 C82 1.362 . S
C83 C84 1.366 . S
C84 C81 1.365 . S
C84 C83 1.366 . S
C84 H98 0.930 . S
C85 C82 1.378 . S
C85 N86 1.315 . S
C85 H88 0.930 . S
N86 Co66 2.194 . S
N86 C81 1.328 . S
N86 C85 1.315 . S
H87 C81 0.929 . S
H88 C85 0.930 . S
H89 C77 0.929 . S
H90 C79 0.929 . S
O91 Co66 2.351 . S
O91 C94 1.244 . S
O92 Co66 2.155 . S
O92 C94 1.240 . S
O93 Co66 2.096 . S
O93 C74 1.247 . S
C94 O91 1.244 . S
C94 O92 1.240 . S
H95 C69 0.931 . S
H96 C78 0.931 . S
H97 C82 0.929 . S
H98 C84 0.930 . S
Co99 N103 2.148 . S
Co99 N109 2.128 . S
Co99 N119 2.194 . S
Co99 O124 2.351 . S
Co99 O125 2.155 . S
Co99 O126 2.096 . S
C100 N103 1.301 . S
C100 N104 1.328 . S
C100 H105 0.930 . S
C101 C102 1.333 . S
C101 N103 1.317 . S
C101 H106 0.930 . S
C102 C101 1.333 . S
C102 N104 1.350 . S
C102 H128 0.931 1_554 S
N103 Co99 2.148 . S
N103 C100 1.301 . S
N103 C101 1.317 . S
N104 C100 1.328 . S
N104 C102 1.350 . S
H105 C100 0.930 . S
H106 C101 0.930 . S
C107 O108 1.224 . S
C107 O126 1.247 . S
O108 C107 1.224 . S
N109 Co99 2.128 . S
N109 C110 1.355 . S
N109 C112 1.311 . S
C110 N109 1.355 . S
C110 C111 1.363 . S
C110 H122 0.929 . S
C111 C110 1.363 . S
C111 N113 1.375 . S
C111 H129 0.931 . S
C112 N109 1.311 . S
C112 N113 1.347 . S
C112 H123 0.929 . S
N113 C111 1.375 . S
N113 C112 1.347 . S
C114 C117 1.365 . S
C114 N119 1.328 . S
C114 H120 0.929 . S
C115 C116 1.362 . S
C115 C118 1.378 . S
C115 H130 0.929 1_554 S
C116 C115 1.362 . S
C116 C117 1.366 . S
C117 C114 1.365 . S
C117 C116 1.366 . S
C117 H131 0.930 . S
C118 C115 1.378 . S
C118 N119 1.315 . S
C118 H121 0.930 . S
N119 Co99 2.194 . S
N119 C114 1.328 . S
N119 C118 1.315 . S
H120 C114 0.929 . S
H121 C118 0.930 . S
H122 C110 0.929 . S
H123 C112 0.929 . S
O124 Co99 2.351 . S
O124 C127 1.244 . S
O125 Co99 2.155 . S
O125 C127 1.240 . S
O126 Co99 2.096 . S
O126 C107 1.247 . S
C127 O124 1.244 . S
C127 O125 1.240 . S
H128 C102 0.931 1_556 S
H129 C111 0.931 . S
H130 C115 0.929 1_556 S
H131 C117 0.930 . S
Co132 N136 2.148 . S
Co132 N142 2.128 . S
Co132 N152 2.194 . S
Co132 O157 2.351 . S
Co132 O158 2.155 . S
Co132 O159 2.096 . S
C133 N136 1.301 . S
C133 N137 1.328 . S
C133 H138 0.930 . S
C134 C135 1.333 . S
C134 N136 1.317 . S
C134 H139 0.930 . S
C135 C134 1.333 . S
C135 N137 1.350 . S
C135 H161 0.931 . S
N136 Co132 2.148 . S
N136 C133 1.301 . S
N136 C134 1.317 . S
N137 C133 1.328 . S
N137 C135 1.350 . S
H138 C133 0.930 . S
H139 C134 0.930 . S
C140 O141 1.224 . S
C140 O159 1.247 . S
O141 C140 1.224 . S
N142 Co132 2.128 . S
N142 C143 1.355 . S
N142 C145 1.311 . S
C143 N142 1.355 . S
C143 C144 1.363 . S
C143 H155 0.929 . S
C144 C143 1.363 . S
C144 N146 1.375 . S
C144 H162 0.931 . S
C145 N142 1.311 . S
C145 N146 1.347 . S
C145 H156 0.929 . S
N146 C144 1.375 . S
N146 C145 1.347 . S
C147 C150 1.365 . S
C147 N152 1.328 . S
C147 H153 0.929 . S
C148 C149 1.362 . S
C148 C151 1.378 . S
C148 H163 0.929 . S
C149 C148 1.362 . S
C149 C150 1.366 . S
C150 C147 1.365 . S
C150 C149 1.366 . S
C150 H164 0.930 . S
C151 C148 1.378 . S
C151 N152 1.315 . S
C151 H154 0.930 . S
N152 Co132 2.194 . S
N152 C147 1.328 . S
N152 C151 1.315 . S
H153 C147 0.929 . S
H154 C151 0.930 . S
H155 C143 0.929 . S
H156 C145 0.929 . S
O157 Co132 2.351 . S
O157 C160 1.244 . S
O158 Co132 2.155 . S
O158 C160 1.240 . S
O159 Co132 2.096 . S
O159 C140 1.247 . S
C160 O157 1.244 . S
C160 O158 1.240 . S
H161 C135 0.931 . S
H162 C144 0.931 . S
H163 C148 0.929 . S
H164 C150 0.930 . S
Co165 N169 2.148 . S
Co165 N175 2.128 1_455 S
Co165 N185 2.194 . S
Co165 O190 2.351 . S
Co165 O191 2.155 . S
Co165 O192 2.096 . S
C166 N169 1.301 . S
C166 N170 1.328 . S
C166 H171 0.930 . S
C167 C168 1.333 . S
C167 N169 1.317 . S
C167 H172 0.930 . S
C168 C167 1.333 . S
C168 N170 1.350 . S
C168 H194 0.931 . S
N169 Co165 2.148 . S
N169 C166 1.301 . S
N169 C167 1.317 . S
N170 C166 1.328 . S
N170 C168 1.350 . S
H171 C166 0.930 . S
H172 C167 0.930 . S
C173 O174 1.224 . S
C173 O192 1.247 1_655 S
O174 C173 1.224 . S
N175 Co165 2.128 1_655 S
N175 C176 1.355 . S
N175 C178 1.311 . S
C176 N175 1.355 . S
C176 C177 1.363 1_556 S
C176 H188 0.929 1_656 S
C177 C176 1.363 1_554 S
C177 N179 1.375 1_554 S
C177 H195 0.931 . S
C178 N175 1.311 . S
C178 N179 1.347 . S
C178 H189 0.929 . S
N179 C177 1.375 1_556 S
N179 C178 1.347 . S
C180 C183 1.365 . S
C180 N185 1.328 . S
C180 H186 0.929 . S
C181 C182 1.362 . S
C181 C184 1.378 . S
C181 H196 0.929 1_455 S
C182 C181 1.362 . S
C182 C183 1.366 . S
C183 C180 1.365 . S
C183 C182 1.366 . S
C183 H197 0.930 . S
C184 C181 1.378 . S
C184 N185 1.315 . S
C184 H187 0.930 1_455 S
N185 Co165 2.194 . S
N185 C180 1.328 . S
N185 C184 1.315 . S
H186 C180 0.929 . S
H187 C184 0.930 1_655 S
H188 C176 0.929 1_454 S
H189 C178 0.929 . S
O190 Co165 2.351 . S
O190 C193 1.244 . S
O191 Co165 2.155 . S
O191 C193 1.240 . S
O192 Co165 2.096 . S
O192 C173 1.247 1_455 S
C193 O190 1.244 . S
C193 O191 1.240 . S
H194 C168 0.931 . S
H195 C177 0.931 . S
H196 C181 0.929 1_655 S
H197 C183 0.930 . S
Co198 N202 2.148 . S
Co198 N208 2.128 . S
Co198 N218 2.194 . S
Co198 O223 2.351 . S
Co198 O224 2.155 . S
Co198 O225 2.096 . S
C199 N202 1.301 . S
C199 N203 1.328 . S
C199 H204 0.930 . S
C200 C201 1.333 . S
C200 N202 1.317 . S
C200 H205 0.930 . S
C201 C200 1.333 . S
C201 N203 1.350 . S
C201 H227 0.931 . S
N202 Co198 2.148 . S
N202 C199 1.301 . S
N202 C200 1.317 . S
N203 C199 1.328 . S
N203 C201 1.350 . S
H204 C199 0.930 . S
H205 C200 0.930 . S
C206 O207 1.224 . S
C206 O225 1.247 . S
O207 C206 1.224 . S
N208 Co198 2.128 . S
N208 C209 1.355 . S
N208 C211 1.311 . S
C209 N208 1.355 . S
C209 C210 1.363 . S
C209 H221 0.929 . S
C210 C209 1.363 . S
C210 N212 1.375 . S
C210 H228 0.931 . S
C211 N208 1.311 . S
C211 N212 1.347 . S
C211 H222 0.929 . S
N212 C210 1.375 . S
N212 C211 1.347 . S
C213 C216 1.365 . S
C213 N218 1.328 . S
C213 H219 0.929 . S
C214 C215 1.362 . S
C214 C217 1.378 . S
C214 H229 0.929 . S
C215 C214 1.362 . S
C215 C216 1.366 . S
C216 C213 1.365 . S
C216 C215 1.366 . S
C216 H230 0.930 . S
C217 C214 1.378 . S
C217 N218 1.315 . S
C217 H220 0.930 . S
N218 Co198 2.194 . S
N218 C213 1.328 . S
N218 C217 1.315 . S
H219 C213 0.929 . S
H220 C217 0.930 . S
H221 C209 0.929 . S
H222 C211 0.929 . S
O223 Co198 2.351 . S
O223 C226 1.244 . S
O224 Co198 2.155 . S
O224 C226 1.240 . S
O225 Co198 2.096 . S
O225 C206 1.247 . S
C226 O223 1.244 . S
C226 O224 1.240 . S
H227 C201 0.931 . S
H228 C210 0.931 . S
H229 C214 0.929 . S
H230 C216 0.930 . S
Co231 N235 2.148 1_455 S
Co231 N241 2.128 . S
Co231 N251 2.194 . S
Co231 O256 2.351 1_455 S
Co231 O257 2.155 . S
Co231 O258 2.096 . S
C232 N235 1.301 . S
C232 N236 1.328 . S
C232 H237 0.930 . S
C233 C234 1.333 . S
C233 N235 1.317 . S
C233 H238 0.930 1_655 S
C234 C233 1.333 . S
C234 N236 1.350 . S
C234 H260 0.931 1_554 S
N235 Co231 2.148 1_655 S
N235 C232 1.301 . S
N235 C233 1.317 . S
N236 C232 1.328 . S
N236 C234 1.350 . S
H237 C232 0.930 . S
H238 C233 0.930 1_455 S
C239 O240 1.224 . S
C239 O258 1.247 . S
O240 C239 1.224 . S
N241 Co231 2.128 . S
N241 C242 1.355 . S
N241 C244 1.311 . S
C242 N241 1.355 . S
C242 C243 1.363 . S
C242 H254 0.929 . S
C243 C242 1.363 . S
C243 N245 1.375 . S
C243 H261 0.931 . S
C244 N241 1.311 . S
C244 N245 1.347 . S
C244 H255 0.929 . S
N245 C243 1.375 . S
N245 C244 1.347 . S
C246 C249 1.365 . S
C246 N251 1.328 . S
C246 H252 0.929 1_455 S
C247 C248 1.362 . S
C247 C250 1.378 . S
C247 H262 0.929 1_554 S
C248 C247 1.362 . S
C248 C249 1.366 . S
C249 C246 1.365 . S
C249 C248 1.366 . S
C249 H263 0.930 1_455 S
C250 C247 1.378 . S
C250 N251 1.315 . S
C250 H253 0.930 . S
N251 Co231 2.194 . S
N251 C246 1.328 . S
N251 C250 1.315 . S
H252 C246 0.929 1_655 S
H253 C250 0.930 . S
H254 C242 0.929 . S
H255 C244 0.929 . S
O256 Co231 2.351 1_655 S
O256 C259 1.244 . S
O257 Co231 2.155 . S
O257 C259 1.240 1_455 S
O258 Co231 2.096 . S
O258 C239 1.247 . S
C259 O256 1.244 . S
C259 O257 1.240 1_655 S
H260 C234 0.931 1_556 S
H261 C243 0.931 . S
H262 C247 0.929 1_556 S
H263 C249 0.930 1_655 S
C264 C265 1.369 . S
C264 C266 1.419 . S
C264 H268 0.930 . S
C265 C264 1.369 . S
C265 C274 1.429 . S
C266 C264 1.419 . S
C266 C267 1.363 . S
C266 H269 0.929 . S
C267 C266 1.363 . S
C267 C273 1.428 . S
H268 C264 0.930 . S
H269 C266 0.929 . S
S270 N271 1.613 . S
S270 N272 1.610 . S
N271 S270 1.613 . S
N271 C274 1.350 . S
N272 S270 1.610 . S
N272 C273 1.351 . S
C273 C267 1.428 . S
C273 N272 1.351 . S
C273 C274 1.434 . S
C274 C265 1.429 . S
C274 N271 1.350 . S
C274 C273 1.434 . S
C275 C276 1.369 . S
C275 C277 1.419 . S
C275 H279 0.930 . S
C276 C275 1.369 . S
C276 C285 1.429 . S
C277 C275 1.419 . S
C277 C278 1.363 . S
C277 H280 0.929 . S
C278 C277 1.363 . S
C278 C284 1.428 . S
H279 C275 0.930 . S
H280 C277 0.929 . S
S281 N282 1.613 . S
S281 N283 1.610 . S
N282 S281 1.613 . S
N282 C285 1.350 . S
N283 S281 1.610 . S
N283 C284 1.351 . S
C284 C278 1.428 . S
C284 N283 1.351 . S
C284 C285 1.434 . S
C285 C276 1.429 . S
C285 N282 1.350 . S
C285 C284 1.434 . S
C286 C287 1.369 . S
C286 C288 1.419 . S
C286 H290 0.930 . S
C287 C286 1.369 . S
C287 C296 1.429 . S
C288 C286 1.419 . S
C288 C289 1.363 . S
C288 H291 0.929 . S
C289 C288 1.363 . S
C289 C295 1.428 . S
H290 C286 0.930 . S
H291 C288 0.929 . S
S292 N293 1.613 . S
S292 N294 1.610 . S
N293 S292 1.613 . S
N293 C296 1.350 . S
N294 S292 1.610 . S
N294 C295 1.351 . S
C295 C289 1.428 . S
C295 N294 1.351 . S
C295 C296 1.434 . S
C296 C287 1.429 . S
C296 N293 1.350 . S
C296 C295 1.434 . S
C297 C298 1.369 . S
C297 C299 1.419 . S
C297 H301 0.930 . S
C298 C297 1.369 . S
C298 C307 1.429 . S
C299 C297 1.419 . S
C299 C300 1.363 . S
C299 H302 0.929 . S
C300 C299 1.363 . S
C300 C306 1.428 . S
H301 C297 0.930 . S
H302 C299 0.929 . S
S303 N304 1.613 . S
S303 N305 1.610 . S
N304 S303 1.613 . S
N304 C307 1.350 . S
N305 S303 1.610 . S
N305 C306 1.351 . S
C306 C300 1.428 . S
C306 N305 1.351 . S
C306 C307 1.434 . S
C307 C298 1.429 . S
C307 N304 1.350 . S
C307 C306 1.434 . S
C308 C309 1.369 . S
C308 C310 1.419 . S
C308 H312 0.930 . S
C309 C308 1.369 . S
C309 C318 1.429 . S
C310 C308 1.419 . S
C310 C311 1.363 . S
C310 H313 0.929 . S
C311 C310 1.363 . S
C311 C317 1.428 . S
H312 C308 0.930 . S
H313 C310 0.929 . S
S314 N315 1.608 1_455 S
S314 N316 1.611 . S
N315 S314 1.608 1_655 S
N315 C318 1.350 . S
N316 S314 1.611 . S
N316 C317 1.351 1_455 S
C317 C311 1.428 . S
C317 N316 1.351 1_655 S
C317 C318 1.434 . S
C318 C309 1.429 . S
C318 N315 1.350 . S
C318 C317 1.434 . S
C319 C320 1.369 . S
C319 C321 1.419 . S
C319 H323 0.930 . S
C320 C319 1.369 . S
C320 C329 1.429 . S
C321 C319 1.419 . S
C321 C322 1.363 . S
C321 H324 0.929 . S
C322 C321 1.363 . S
C322 C328 1.428 . S
H323 C319 0.930 . S
H324 C321 0.929 . S
S325 N326 1.613 . S
S325 N327 1.610 . S
N326 S325 1.613 . S
N326 C329 1.350 . S
N327 S325 1.610 . S
N327 C328 1.351 . S
C328 C322 1.428 . S
C328 N327 1.351 . S
C328 C329 1.434 . S
C329 C320 1.429 . S
C329 N326 1.350 . S
C329 C328 1.434 . S
C330 C331 1.369 . S
C330 C332 1.419 . S
C330 H334 0.930 . S
C331 C330 1.369 . S
C331 C340 1.429 . S
C332 C330 1.419 . S
C332 C333 1.363 . S
C332 H335 0.929 . S
C333 C332 1.363 . S
C333 C339 1.428 . S
H334 C330 0.930 . S
H335 C332 0.929 . S
S336 N337 1.613 . S
S336 N338 1.610 . S
N337 S336 1.613 . S
N337 C340 1.350 . S
N338 S336 1.610 . S
N338 C339 1.351 . S
C339 C333 1.428 . S
C339 N338 1.351 . S
C339 C340 1.434 . S
C340 C331 1.429 . S
C340 N337 1.350 . S
C340 C339 1.434 . S
C341 C342 1.369 . S
C341 C343 1.419 . S
C341 H345 0.930 . S
C342 C341 1.369 . S
C342 C351 1.429 . S
C343 C341 1.419 . S
C343 C344 1.363 . S
C343 H346 0.929 . S
C344 C343 1.363 . S
C344 C350 1.428 . S
H345 C341 0.930 . S
H346 C343 0.929 . S
S347 N348 1.613 . S
S347 N349 1.610 . S
N348 S347 1.613 . S
N348 C351 1.350 . S
N349 S347 1.610 . S
N349 C350 1.351 . S
C350 C344 1.428 . S
C350 N349 1.351 . S
C350 C351 1.434 . S
C351 C342 1.429 . S
C351 N348 1.350 . S
C351 C350 1.434 . S
C352 C353 1.369 . S
C352 C354 1.419 . S
C352 H356 0.930 . S
C353 C352 1.369 . S
C353 C362 1.429 . S
C354 C352 1.419 . S
C354 C355 1.363 . S
C354 H357 0.929 . S
C355 C354 1.363 . S
C355 C361 1.428 . S
H356 C352 0.930 . S
H357 C354 0.929 . S
S358 N359 1.613 . S
S358 N360 1.610 . S
N359 S358 1.613 . S
N359 C362 1.350 . S
N360 S358 1.610 . S
N360 C361 1.351 . S
C361 C355 1.428 . S
C361 N360 1.351 . S
C361 C362 1.434 . S
C362 C353 1.429 . S
C362 N359 1.350 . S
C362 C361 1.434 . S
C363 C364 1.369 1_554 S
C363 C365 1.419 . S
C363 H367 0.930 . S
C364 C363 1.369 1_556 S
C364 C373 1.429 . S
C365 C363 1.419 . S
C365 C366 1.363 . S
C365 H368 0.929 . S
C366 C365 1.363 . S
C366 C372 1.428 1_554 S
H367 C363 0.930 . S
H368 C365 0.929 . S
S369 N370 1.613 . S
S369 N371 1.610 . S
N370 S369 1.613 . S
N370 C373 1.350 . S
N371 S369 1.610 . S
N371 C372 1.351 . S
C372 C366 1.428 1_556 S
C372 N371 1.351 . S
C372 C373 1.434 . S
C373 C364 1.429 . S
C373 N370 1.350 . S
C373 C372 1.434 . S
C374 C375 1.369 . S
C374 C376 1.419 1_545 S
C374 H378 0.930 . S
C375 C374 1.369 . S
C375 C384 1.429 . S
C376 C374 1.419 1_565 S
C376 C377 1.363 . S
C376 H379 0.929 . S
C377 C376 1.363 . S
C377 C383 1.428 . S
H378 C374 0.930 . S
H379 C376 0.929 . S
S380 N381 1.613 1_565 S
S380 N382 1.610 . S
N381 S380 1.613 1_545 S
N381 C384 1.350 . S
N382 S380 1.610 . S
N382 C383 1.351 . S
C383 C377 1.428 . S
C383 N382 1.351 . S
C383 C384 1.434 1_565 S
C384 C375 1.429 . S
C384 N381 1.350 . S
C384 C383 1.434 1_545 S
C385 C386 1.369 . S
C385 C387 1.419 1_565 S
C385 H389 0.930 1_455 S
C386 C385 1.369 . S
C386 C395 1.429 1_554 S
C387 C385 1.419 1_545 S
C387 C388 1.363 1_554 S
C387 H390 0.930 1_455 S
C388 C387 1.363 1_556 S
C388 C394 1.428 . S
H389 C385 0.930 1_655 S
H390 C387 0.930 1_655 S
S391 N392 1.613 . S
S391 N393 1.610 1_565 S
N392 S391 1.613 . S
N392 C395 1.350 . S
N393 S391 1.610 1_545 S
N393 C394 1.351 . S
C394 C388 1.428 . S
C394 N393 1.351 . S
C394 C395 1.434 1_545 S
C395 C386 1.429 1_556 S
C395 N392 1.350 . S
C395 C394 1.434 1_565 S
C396 C397 1.369 . S
C396 C398 1.419 . S
C396 H400 0.930 . S
C397 C396 1.369 . S
C397 C406 1.429 . S
C398 C396 1.419 . S
C398 C399 1.363 . S
C398 H401 0.929 . S
C399 C398 1.363 . S
C399 C405 1.428 . S
H400 C396 0.930 . S
H401 C398 0.929 . S
S402 N403 1.613 . S
S402 N404 1.610 . S
N403 S402 1.613 . S
N403 C406 1.350 . S
N404 S402 1.610 . S
N404 C405 1.351 . S
C405 C399 1.428 . S
C405 N404 1.351 . S
C405 C406 1.434 . S
C406 C397 1.429 . S
C406 N403 1.350 . S
C406 C405 1.434 . S
C407 C408 1.369 1_554 S
C407 C409 1.419 . S
C407 H411 0.930 . S
C408 C407 1.369 1_556 S
C408 C417 1.429 . S
C409 C407 1.419 . S
C409 C410 1.363 . S
C409 H412 0.929 . S
C410 C409 1.363 . S
C410 C416 1.428 1_554 S
H411 C407 0.930 . S
H412 C409 0.929 . S
S413 N414 1.613 . S
S413 N415 1.610 . S
N414 S413 1.613 . S
N414 C417 1.350 . S
N415 S413 1.610 . S
N415 C416 1.351 . S
C416 C410 1.428 1_556 S
C416 N415 1.351 . S
C416 C417 1.434 . S
C417 C408 1.429 . S
C417 N414 1.350 . S
C417 C416 1.434 . S
C418 C419 1.369 . S
C418 C420 1.419 . S
C418 H422 0.930 . S
C419 C418 1.369 . S
C419 C428 1.429 . S
C420 C418 1.419 . S
C420 C421 1.363 . S
C420 H423 0.929 . S
C421 C420 1.363 . S
C421 C427 1.428 . S
H422 C418 0.930 . S
H423 C420 0.929 . S
S424 N425 1.613 . S
S424 N426 1.610 . S
N425 S424 1.613 . S
N425 C428 1.350 . S
N426 S424 1.610 . S
N426 C427 1.351 . S
C427 C421 1.428 . S
C427 N426 1.351 . S
C427 C428 1.434 . S
C428 C419 1.429 . S
C428 N425 1.350 . S
C428 C427 1.434 . S
C429 C430 1.369 . S
C429 C431 1.419 1_556 S
C429 H433 0.930 1_556 S
C430 C429 1.369 . S
C430 C439 1.429 . S
C431 C429 1.419 1_554 S
C431 C432 1.363 . S
C431 H434 0.929 . S
C432 C431 1.363 . S
C432 C438 1.429 1_554 S
H433 C429 0.930 1_554 S
H434 C431 0.929 . S
S435 N436 1.613 . S
S435 N437 1.610 . S
N436 S435 1.613 . S
N436 C439 1.350 . S
N437 S435 1.610 . S
N437 C438 1.351 . S
C438 C432 1.429 1_556 S
C438 N437 1.351 . S
C438 C439 1.434 . S
C439 C430 1.429 . S
C439 N436 1.350 . S
C439 C438 1.434 . S
C440 C441 1.369 . S
C440 C442 1.419 1_455 S
C440 H444 0.930 . S
C441 C440 1.369 . S
C441 C450 1.429 1_455 S
C442 C440 1.419 1_655 S
C442 C443 1.363 . S
C442 H445 0.929 . S
C443 C442 1.363 . S
C443 C449 1.428 . S
H444 C440 0.930 . S
H445 C442 0.929 . S
S446 N447 1.613 . S
S446 N448 1.610 . S
N447 S446 1.613 . S
N447 C450 1.350 . S
N448 S446 1.610 . S
N448 C449 1.351 . S
C449 C443 1.428 . S
C449 N448 1.351 . S
C449 C450 1.434 . S
C450 C441 1.429 1_655 S
C450 N447 1.350 . S
C450 C449 1.434 . S
C451 C452 1.369 1_556 S
C451 C453 1.419 . S
C451 H455 0.930 . S
C452 C451 1.369 1_554 S
C452 C461 1.429 . S
C453 C451 1.419 . S
C453 C454 1.363 . S
C453 H456 0.929 . S
C454 C453 1.363 . S
C454 C460 1.428 1_556 S
H455 C451 0.930 . S
H456 C453 0.929 . S
S457 N458 1.613 . S
S457 N459 1.610 . S
N458 S457 1.613 . S
N458 C461 1.350 . S
N459 S457 1.610 . S
N459 C460 1.351 . S
C460 C454 1.428 1_554 S
C460 N459 1.351 . S
C460 C461 1.434 . S
C461 C452 1.429 . S
C461 N458 1.350 . S
C461 C460 1.434 . S
C462 C463 1.369 . S
C462 C464 1.419 1_455 S
C462 H466 0.930 . S
C463 C462 1.369 . S
C463 C472 1.429 1_455 S
C464 C462 1.419 1_655 S
C464 C465 1.363 . S
C464 H467 0.929 . S
C465 C464 1.363 . S
C465 C471 1.428 . S
H466 C462 0.930 . S
H467 C464 0.929 . S
S468 N469 1.613 . S
S468 N470 1.610 . S
N469 S468 1.613 . S
N469 C472 1.350 . S
N470 S468 1.610 . S
N470 C471 1.351 . S
C471 C465 1.428 . S
C471 N470 1.351 . S
C471 C472 1.434 . S
C472 C463 1.429 1_655 S
C472 N469 1.350 . S
C472 C471 1.434 . S
C473 C474 1.369 . S
C473 C475 1.419 1_556 S
C473 H477 0.930 1_556 S
C474 C473 1.369 . S
C474 C483 1.429 . S
C475 C473 1.419 1_554 S
C475 C476 1.363 1_554 S
C475 H478 0.929 . S
C476 C475 1.363 1_556 S
C476 C482 1.428 . S
H477 C473 0.930 1_554 S
H478 C475 0.929 . S
S479 N480 1.613 . S
S479 N481 1.610 . S
N480 S479 1.613 . S
N480 C483 1.350 . S
N481 S479 1.610 . S
N481 C482 1.351 . S
C482 C476 1.428 . S
C482 N481 1.351 . S
C482 C483 1.434 . S
C483 C474 1.429 . S
C483 N480 1.350 . S
C483 C482 1.434 . S
C265 C28 1.338 . S
C267 C127 1.337 . S
C276 C41 1.325 . S
C278 C94 1.333 . S
C287 N80 1.627 1_655 S
C289 N38 1.583 . S
C298 N113 1.671 . S
C300 N14 1.675 1_655 S
C309 C160 1.335 . S
C311 C259 1.335 . S
C320 C226 1.332 . S
C322 C173 1.322 . S
C331 N170 1.588 . S
C333 N212 1.622 . S
C342 N245 1.671 . S
C344 N146 1.676 . S
C353 C83 1.540 . S
C355 C17 1.541 . S
C364 C50 1.476 . S
C366 C116 1.484 . S
C375 C215 1.540 . S
C377 C149 1.541 . S
C386 C248 1.484 . S
C388 C182 1.477 . S
C397 N5 1.445 . S
C399 C206 1.514 . S
C408 N47 1.490 . S
C410 C239 1.518 . S
C419 N71 1.434 . S
C421 C140 1.506 . S
C430 C193 1.500 . S
C432 N104 1.425 . S
C441 C74 1.513 . S
C443 N137 1.437 . S
C452 C107 1.520 . S
C454 N179 1.485 . S
C463 C8 1.505 . S
C465 N203 1.430 . S
C474 C61 1.501 . S
C476 N236 1.429 1_556 S
