# Generated by pormake.
# Topology wlm, (5)-cn, num edge types: 1
# Building blocks:
#     Node 0, Type 0, BuildingBlock: BEQFEK_clean_sbu_0, # of connection points: 5
#     Node 1, Type 0, BuildingBlock: BEQFEK_clean_sbu_0, # of connection points: 5
#     Node 2, Type 0, BuildingBlock: BEQFEK_clean_sbu_0, # of connection points: 5
#     Node 3, Type 0, BuildingBlock: BEQFEK_clean_sbu_0, # of connection points: 5
#     Node 4, Type 0, BuildingBlock: BEQFEK_clean_sbu_0, # of connection points: 5
#     Node 5, Type 0, BuildingBlock: BEQFEK_clean_sbu_0, # of connection points: 5
#     Node 6, Type 0, BuildingBlock: BEQFEK_clean_sbu_0, # of connection points: 5
#     Node 7, Type 0, BuildingBlock: BEQFEK_clean_sbu_0, # of connection points: 5
#     Node 8, Type 0, BuildingBlock: BEQFEK_clean_sbu_0, # of connection points: 5
#     Node 9, Type 0, BuildingBlock: BEQFEK_clean_sbu_0, # of connection points: 5
#     Node 10, Type 0, BuildingBlock: BEQFEK_clean_sbu_0, # of connection points: 5
#     Node 11, Type 0, BuildingBlock: BEQFEK_clean_sbu_0, # of connection points: 5
#     Node 12, Type 0, BuildingBlock: BEQFEK_clean_sbu_0, # of connection points: 5
#     Node 13, Type 0, BuildingBlock: BEQFEK_clean_sbu_0, # of connection points: 5
#     Node 14, Type 0, BuildingBlock: BEQFEK_clean_sbu_0, # of connection points: 5
#     Node 15, Type 0, BuildingBlock: BEQFEK_clean_sbu_0, # of connection points: 5
#     Node 16, Type 0, BuildingBlock: BEQFEK_clean_sbu_0, # of connection points: 5
#     Node 17, Type 0, BuildingBlock: BEQFEK_clean_sbu_0, # of connection points: 5
#     Node 18, Type 0, BuildingBlock: BEQFEK_clean_sbu_0, # of connection points: 5
#     Node 19, Type 0, BuildingBlock: BEQFEK_clean_sbu_0, # of connection points: 5
#     Node 20, Type 0, BuildingBlock: BEQFEK_clean_sbu_0, # of connection points: 5
#     Node 21, Type 0, BuildingBlock: BEQFEK_clean_sbu_0, # of connection points: 5
#     Node 22, Type 0, BuildingBlock: BEQFEK_clean_sbu_0, # of connection points: 5
#     Node 23, Type 0, BuildingBlock: BEQFEK_clean_sbu_0, # of connection points: 5
#     Node 24, Type 0, BuildingBlock: BEQFEK_clean_sbu_0, # of connection points: 5
#     Node 25, Type 0, BuildingBlock: BEQFEK_clean_sbu_0, # of connection points: 5
#     Node 26, Type 0, BuildingBlock: BEQFEK_clean_sbu_0, # of connection points: 5
#     Node 27, Type 0, BuildingBlock: BEQFEK_clean_sbu_0, # of connection points: 5
#     Node 28, Type 0, BuildingBlock: BEQFEK_clean_sbu_0, # of connection points: 5
#     Node 29, Type 0, BuildingBlock: BEQFEK_clean_sbu_0, # of connection points: 5
#     Node 30, Type 0, BuildingBlock: BEQFEK_clean_sbu_0, # of connection points: 5
#     Node 31, Type 0, BuildingBlock: BEQFEK_clean_sbu_0, # of connection points: 5
#     Node 32, Type 0, BuildingBlock: BEQFEK_clean_sbu_0, # of connection points: 5
#     Node 33, Type 0, BuildingBlock: BEQFEK_clean_sbu_0, # of connection points: 5
#     Node 34, Type 0, BuildingBlock: BEQFEK_clean_sbu_0, # of connection points: 5
#     Node 35, Type 0, BuildingBlock: BEQFEK_clean_sbu_0, # of connection points: 5
#     Edge 36, Type (0, 0), BuildingBlock: ZUJKAS_clean_linker_0, # of connection points: 2
#     Edge 37, Type (0, 0), BuildingBlock: ZUJKAS_clean_linker_0, # of connection points: 2
#     Edge 38, Type (0, 0), BuildingBlock: ZUJKAS_clean_linker_0, # of connection points: 2
#     Edge 39, Type (0, 0), BuildingBlock: ZUJKAS_clean_linker_0, # of connection points: 2
#     Edge 40, Type (0, 0), BuildingBlock: ZUJKAS_clean_linker_0, # of connection points: 2
#     Edge 41, Type (0, 0), BuildingBlock: ZUJKAS_clean_linker_0, # of connection points: 2
#     Edge 42, Type (0, 0), BuildingBlock: ZUJKAS_clean_linker_0, # of connection points: 2
#     Edge 43, Type (0, 0), BuildingBlock: ZUJKAS_clean_linker_0, # of connection points: 2
#     Edge 44, Type (0, 0), BuildingBlock: ZUJKAS_clean_linker_0, # of connection points: 2
#     Edge 45, Type (0, 0), BuildingBlock: ZUJKAS_clean_linker_0, # of connection points: 2
#     Edge 46, Type (0, 0), BuildingBlock: ZUJKAS_clean_linker_0, # of connection points: 2
#     Edge 47, Type (0, 0), BuildingBlock: ZUJKAS_clean_linker_0, # of connection points: 2
#     Edge 48, Type (0, 0), BuildingBlock: ZUJKAS_clean_linker_0, # of connection points: 2
#     Edge 49, Type (0, 0), BuildingBlock: ZUJKAS_clean_linker_0, # of connection points: 2
#     Edge 50, Type (0, 0), BuildingBlock: ZUJKAS_clean_linker_0, # of connection points: 2
#     Edge 51, Type (0, 0), BuildingBlock: ZUJKAS_clean_linker_0, # of connection points: 2
#     Edge 52, Type (0, 0), BuildingBlock: ZUJKAS_clean_linker_0, # of connection points: 2
#     Edge 53, Type (0, 0), BuildingBlock: ZUJKAS_clean_linker_0, # of connection points: 2
#     Edge 54, Type (0, 0), BuildingBlock: ZUJKAS_clean_linker_0, # of connection points: 2
#     Edge 55, Type (0, 0), BuildingBlock: ZUJKAS_clean_linker_0, # of connection points: 2
#     Edge 56, Type (0, 0), BuildingBlock: ZUJKAS_clean_linker_0, # of connection points: 2
#     Edge 57, Type (0, 0), BuildingBlock: ZUJKAS_clean_linker_0, # of connection points: 2
#     Edge 58, Type (0, 0), BuildingBlock: ZUJKAS_clean_linker_0, # of connection points: 2
#     Edge 59, Type (0, 0), BuildingBlock: ZUJKAS_clean_linker_0, # of connection points: 2
#     Edge 60, Type (0, 0), BuildingBlock: ZUJKAS_clean_linker_0, # of connection points: 2
#     Edge 61, Type (0, 0), BuildingBlock: ZUJKAS_clean_linker_0, # of connection points: 2
#     Edge 62, Type (0, 0), BuildingBlock: ZUJKAS_clean_linker_0, # of connection points: 2
#     Edge 63, Type (0, 0), BuildingBlock: ZUJKAS_clean_linker_0, # of connection points: 2
#     Edge 64, Type (0, 0), BuildingBlock: ZUJKAS_clean_linker_0, # of connection points: 2
#     Edge 65, Type (0, 0), BuildingBlock: ZUJKAS_clean_linker_0, # of connection points: 2
#     Edge 66, Type (0, 0), BuildingBlock: ZUJKAS_clean_linker_0, # of connection points: 2
#     Edge 67, Type (0, 0), BuildingBlock: ZUJKAS_clean_linker_0, # of connection points: 2
#     Edge 68, Type (0, 0), BuildingBlock: ZUJKAS_clean_linker_0, # of connection points: 2
#     Edge 69, Type (0, 0), BuildingBlock: ZUJKAS_clean_linker_0, # of connection points: 2
#     Edge 70, Type (0, 0), BuildingBlock: ZUJKAS_clean_linker_0, # of connection points: 2
#     Edge 71, Type (0, 0), BuildingBlock: ZUJKAS_clean_linker_0, # of connection points: 2
#     Edge 72, Type (0, 0), BuildingBlock: ZUJKAS_clean_linker_0, # of connection points: 2
#     Edge 73, Type (0, 0), BuildingBlock: ZUJKAS_clean_linker_0, # of connection points: 2
#     Edge 74, Type (0, 0), BuildingBlock: ZUJKAS_clean_linker_0, # of connection points: 2
#     Edge 75, Type (0, 0), BuildingBlock: ZUJKAS_clean_linker_0, # of connection points: 2
#     Edge 76, Type (0, 0), BuildingBlock: ZUJKAS_clean_linker_0, # of connection points: 2
#     Edge 77, Type (0, 0), BuildingBlock: ZUJKAS_clean_linker_0, # of connection points: 2
#     Edge 78, Type (0, 0), BuildingBlock: ZUJKAS_clean_linker_0, # of connection points: 2
#     Edge 79, Type (0, 0), BuildingBlock: ZUJKAS_clean_linker_0, # of connection points: 2
#     Edge 80, Type (0, 0), BuildingBlock: ZUJKAS_clean_linker_0, # of connection points: 2
#     Edge 81, Type (0, 0), BuildingBlock: ZUJKAS_clean_linker_0, # of connection points: 2
#     Edge 82, Type (0, 0), BuildingBlock: ZUJKAS_clean_linker_0, # of connection points: 2
#     Edge 83, Type (0, 0), BuildingBlock: ZUJKAS_clean_linker_0, # of connection points: 2
#     Edge 84, Type (0, 0), BuildingBlock: ZUJKAS_clean_linker_0, # of connection points: 2
#     Edge 85, Type (0, 0), BuildingBlock: ZUJKAS_clean_linker_0, # of connection points: 2
#     Edge 86, Type (0, 0), BuildingBlock: ZUJKAS_clean_linker_0, # of connection points: 2
#     Edge 87, Type (0, 0), BuildingBlock: ZUJKAS_clean_linker_0, # of connection points: 2
#     Edge 88, Type (0, 0), BuildingBlock: ZUJKAS_clean_linker_0, # of connection points: 2
#     Edge 89, Type (0, 0), BuildingBlock: ZUJKAS_clean_linker_0, # of connection points: 2
#     Edge 90, Type (0, 0), BuildingBlock: ZUJKAS_clean_linker_0, # of connection points: 2
#     Edge 91, Type (0, 0), BuildingBlock: ZUJKAS_clean_linker_0, # of connection points: 2
#     Edge 92, Type (0, 0), BuildingBlock: ZUJKAS_clean_linker_0, # of connection points: 2
#     Edge 93, Type (0, 0), BuildingBlock: ZUJKAS_clean_linker_0, # of connection points: 2
#     Edge 94, Type (0, 0), BuildingBlock: ZUJKAS_clean_linker_0, # of connection points: 2
#     Edge 95, Type (0, 0), BuildingBlock: ZUJKAS_clean_linker_0, # of connection points: 2
#     Edge 96, Type (0, 0), BuildingBlock: ZUJKAS_clean_linker_0, # of connection points: 2
#     Edge 97, Type (0, 0), BuildingBlock: ZUJKAS_clean_linker_0, # of connection points: 2
#     Edge 98, Type (0, 0), BuildingBlock: ZUJKAS_clean_linker_0, # of connection points: 2
#     Edge 99, Type (0, 0), BuildingBlock: ZUJKAS_clean_linker_0, # of connection points: 2
#     Edge 100, Type (0, 0), BuildingBlock: ZUJKAS_clean_linker_0, # of connection points: 2
#     Edge 101, Type (0, 0), BuildingBlock: ZUJKAS_clean_linker_0, # of connection points: 2
#     Edge 102, Type (0, 0), BuildingBlock: ZUJKAS_clean_linker_0, # of connection points: 2
#     Edge 103, Type (0, 0), BuildingBlock: ZUJKAS_clean_linker_0, # of connection points: 2
#     Edge 104, Type (0, 0), BuildingBlock: ZUJKAS_clean_linker_0, # of connection points: 2
#     Edge 105, Type (0, 0), BuildingBlock: ZUJKAS_clean_linker_0, # of connection points: 2
#     Edge 106, Type (0, 0), BuildingBlock: ZUJKAS_clean_linker_0, # of connection points: 2
#     Edge 107, Type (0, 0), BuildingBlock: ZUJKAS_clean_linker_0, # of connection points: 2
#     Edge 108, Type (0, 0), BuildingBlock: ZUJKAS_clean_linker_0, # of connection points: 2
#     Edge 109, Type (0, 0), BuildingBlock: ZUJKAS_clean_linker_0, # of connection points: 2
#     Edge 110, Type (0, 0), BuildingBlock: ZUJKAS_clean_linker_0, # of connection points: 2
#     Edge 111, Type (0, 0), BuildingBlock: ZUJKAS_clean_linker_0, # of connection points: 2
#     Edge 112, Type (0, 0), BuildingBlock: ZUJKAS_clean_linker_0, # of connection points: 2
#     Edge 113, Type (0, 0), BuildingBlock: ZUJKAS_clean_linker_0, # of connection points: 2
#     Edge 114, Type (0, 0), BuildingBlock: ZUJKAS_clean_linker_0, # of connection points: 2
#     Edge 115, Type (0, 0), BuildingBlock: ZUJKAS_clean_linker_0, # of connection points: 2
#     Edge 116, Type (0, 0), BuildingBlock: ZUJKAS_clean_linker_0, # of connection points: 2
#     Edge 117, Type (0, 0), BuildingBlock: ZUJKAS_clean_linker_0, # of connection points: 2
#     Edge 118, Type (0, 0), BuildingBlock: ZUJKAS_clean_linker_0, # of connection points: 2
#     Edge 119, Type (0, 0), BuildingBlock: ZUJKAS_clean_linker_0, # of connection points: 2
#     Edge 120, Type (0, 0), BuildingBlock: ZUJKAS_clean_linker_0, # of connection points: 2
#     Edge 121, Type (0, 0), BuildingBlock: ZUJKAS_clean_linker_0, # of connection points: 2
#     Edge 122, Type (0, 0), BuildingBlock: ZUJKAS_clean_linker_0, # of connection points: 2
#     Edge 123, Type (0, 0), BuildingBlock: ZUJKAS_clean_linker_0, # of connection points: 2
#     Edge 124, Type (0, 0), BuildingBlock: ZUJKAS_clean_linker_0, # of connection points: 2
#     Edge 125, Type (0, 0), BuildingBlock: ZUJKAS_clean_linker_0, # of connection points: 2
# Relax obj value: 0.050
# Max RMSD: 0.097
# Mean RMSD: 0.097
data_MOF--net-wlm--node1-BEQFEK_clean_sbu_0--edge1-ZUJKAS_clean_linker_0
_symmetry_space_group_name_H-M    P1
_symmetry_Int_Tables_number       1
_symmetry_cell_setting            triclinic
loop_
_symmetry_equiv_pos_as_xyz
'x, y, z'
_cell_length_a     164.98222
_cell_length_b     164.98804
_cell_length_c     23.724556
_cell_angle_alpha  90.007805
_cell_angle_beta   89.995783
_cell_angle_gamma 119.98683
loop_
_atom_site_label
_atom_site_type_symbol
_atom_site_fract_x
_atom_site_fract_y
_atom_site_fract_z
_atom_type_partial_charge
Co0 Co 0.14364 0.40164 0.28945 0.0
Co1 Co 0.13944 0.39593 0.16216 0.0
C2 C 0.15872 0.40356 0.211 0.0
O3 O 0.15604 0.40456 0.25954 0.0
O4 O 0.15301 0.40029 0.16985 0.0
C5 C 0.15188 0.40722 0.39914 0.0
O6 O 0.15863 0.4063 0.37639 0.0
C7 C 0.14155 0.39867 0.04018 0.0
C8 C 0.12792 0.38746 0.00862 0.0
C9 C 0.13646 0.39483 0.99115 0.0
N10 N 0.13627 0.39378 0.08433 0.0
N11 N 0.12815 0.38705 0.06523 0.0
C12 C 0.15092 0.40732 0.04596 0.0
H13 H 0.15151 0.41065 0.08755 0.0
H14 H 0.15205 0.41238 0.01186 0.0
H15 H 0.15646 0.40539 0.04321 0.0
C16 C 0.13544 0.41338 0.25787 0.0
N17 N 0.13833 0.40729 0.2449 0.0
N18 N 0.13645 0.40485 0.1916 0.0
C19 C 0.13222 0.40927 0.16902 0.0
C20 C 0.13144 0.41483 0.21022 0.0
C21 C 0.13591 0.41716 0.31587 0.0
H22 H 0.13222 0.41124 0.34574 0.0
H23 H 0.14334 0.42122 0.32936 0.0
H24 H 0.13271 0.42167 0.3178 0.0
O25 O 0.13525 0.38788 0.29145 0.0
O26 O 0.13214 0.38377 0.20158 0.0
H27 H 0.12386 0.40082 0.10038 0.0
H28 H 0.1259 0.41267 0.09927 0.0
C29 C 0.12905 0.40826 0.10901 0.0
H30 H 0.13513 0.41037 0.08077 0.0
H31 H 0.12273 0.38226 0.09089 0.0
O32 O 0.14495 0.40587 0.36888 0.0
C33 C 0.13118 0.38164 0.2537 0.0
Co34 Co 0.59769 0.7411 0.2982 0.0
Co35 Co 0.60404 0.74328 0.17195 0.0
C36 C 0.59606 0.75458 0.22129 0.0
O37 O 0.59482 0.75062 0.26909 0.0
O38 O 0.59959 0.75243 0.18015 0.0
C39 C 0.5928 0.74381 0.40888 0.0
O40 O 0.59488 0.75202 0.38822 0.0
C41 C 0.60188 0.74291 0.04933 0.0
C42 C 0.61324 0.74051 0.02032 0.0
C43 C 0.60589 0.74159 0.00128 0.0
N44 N 0.60663 0.7426 0.09447 0.0
N45 N 0.61347 0.74126 0.07686 0.0
C46 C 0.59316 0.74355 0.05326 0.0
H47 H 0.58974 0.74092 0.09478 0.0
H48 H 0.5882 0.73947 0.01904 0.0
H49 H 0.59502 0.75098 0.04922 0.0
C50 C 0.5862 0.72131 0.26301 0.0
N51 N 0.59232 0.73036 0.2518 0.0
N52 N 0.59501 0.7312 0.19886 0.0
C53 C 0.59073 0.72265 0.17478 0.0
C54 C 0.585 0.71611 0.21459 0.0
C55 C 0.58216 0.71773 0.32016 0.0
H56 H 0.58794 0.71983 0.35096 0.0
H57 H 0.57801 0.72099 0.33357 0.0
H58 H 0.57767 0.71 0.32068 0.0
O59 O 0.61144 0.74651 0.30264 0.0
O60 O 0.616 0.74799 0.21348 0.0
H61 H 0.59953 0.72318 0.10695 0.0
H62 H 0.58777 0.71326 0.10376 0.0
C63 C 0.59203 0.72078 0.11467 0.0
H64 H 0.58993 0.72477 0.08665 0.0
H65 H 0.61816 0.74064 0.10354 0.0
O66 O 0.59314 0.73783 0.37673 0.0
C67 C 0.61787 0.7489 0.26597 0.0
Co68 Co 0.25969 0.85761 0.29392 0.0
Co69 Co 0.25698 0.85994 0.16498 0.0
C70 C 0.24585 0.84147 0.22482 0.0
O71 O 0.24996 0.84479 0.27161 0.0
O72 O 0.24791 0.84658 0.181 0.0
C73 C 0.2619 0.85016 0.39978 0.0
O74 O 0.25852 0.84218 0.37252 0.0
C75 C 0.25719 0.85689 0.04177 0.0
C76 C 0.25811 0.86984 0.00869 0.0
C77 C 0.25782 0.86165 0.99215 0.0
N78 N 0.25728 0.86213 0.08557 0.0
N79 N 0.25778 0.86983 0.06534 0.0
C80 C 0.25623 0.8474 0.04736 0.0
H81 H 0.25282 0.84406 0.08758 0.0
H82 H 0.26326 0.84808 0.0468 0.0
H83 H 0.25211 0.84284 0.01169 0.0
C84 C 0.27941 0.86567 0.25674 0.0
N85 N 0.27027 0.86238 0.24594 0.0
N86 N 0.26919 0.86344 0.19197 0.0
C87 C 0.27764 0.8675 0.1667 0.0
C88 C 0.2844 0.86905 0.20687 0.0
C89 C 0.28327 0.86623 0.31458 0.0
H90 H 0.2806 0.86964 0.34348 0.0
H91 H 0.28077 0.85903 0.33048 0.0
H92 H 0.29103 0.87021 0.315 0.0
O93 O 0.25424 0.8659 0.29239 0.0
O94 O 0.25239 0.86773 0.20156 0.0
H95 H 0.27665 0.8746 0.09383 0.0
H96 H 0.2866 0.87278 0.09274 0.0
C97 C 0.27916 0.8697 0.10508 0.0
H98 H 0.27506 0.86318 0.08071 0.0
H99 H 0.25796 0.87512 0.09031 0.0
O100 O 0.26318 0.85742 0.37355 0.0
C101 C 0.25167 0.86939 0.25319 0.0
Co102 Co 0.40084 0.14273 0.71297 0.0
Co103 Co 0.39632 0.14099 0.8426 0.0
C104 C 0.40368 0.15924 0.78297 0.0
O105 O 0.40414 0.15561 0.7365 0.0
O106 O 0.40075 0.15437 0.82779 0.0
C107 C 0.41028 0.15049 0.60694 0.0
O108 O 0.41456 0.15846 0.63444 0.0
C109 C 0.39877 0.14418 0.9656 0.0
C110 C 0.38847 0.13021 0.99822 0.0
C111 C 0.39525 0.13909 0.01501 0.0
N112 N 0.39438 0.1385 0.92167 0.0
N113 N 0.38818 0.13019 0.94153 0.0
C114 C 0.40583 0.15436 0.95965 0.0
H115 H 0.41185 0.15519 0.93432 0.0
H116 H 0.40829 0.15788 0.00098 0.0
H117 H 0.4026 0.15785 0.9364 0.0
C118 C 0.41179 0.13384 0.74942 0.0
N119 N 0.40645 0.13772 0.76045 0.0
N120 N 0.40506 0.13755 0.81513 0.0
C121 C 0.40982 0.13393 0.84096 0.0
C122 C 0.41416 0.13131 0.8002 0.0
C123 C 0.41373 0.1318 0.69104 0.0
H124 H 0.40768 0.13006 0.66322 0.0
H125 H 0.41993 0.13812 0.67394 0.0
H126 H 0.4151 0.12587 0.69068 0.0
O127 O 0.38717 0.13463 0.71478 0.0
O128 O 0.38383 0.13322 0.80604 0.0
H129 H 0.40409 0.12761 0.92071 0.0
H130 H 0.41665 0.13269 0.9159 0.0
C131 C 0.41063 0.13353 0.90363 0.0
H132 H 0.41166 0.1401 0.92265 0.0
H133 H 0.38383 0.12446 0.91629 0.0
O134 O 0.40454 0.14308 0.63301 0.0
C135 C 0.38125 0.13135 0.75474 0.0
Co136 Co 0.85637 0.25876 0.70095 0.0
Co137 Co 0.86001 0.25664 0.82856 0.0
C138 C 0.84098 0.24509 0.77418 0.0
O139 O 0.84379 0.24903 0.72638 0.0
O140 O 0.84655 0.24738 0.81601 0.0
C141 C 0.84847 0.2599 0.59354 0.0
O142 O 0.84034 0.2556 0.61931 0.0
C143 C 0.8577 0.25808 0.95078 0.0
C144 C 0.86949 0.25684 0.98495 0.0
C145 C 0.86203 0.25797 0.00091 0.0
N146 N 0.86246 0.25713 0.90757 0.0
N147 N 0.86949 0.2564 0.92834 0.0
C148 C 0.84894 0.25857 0.94376 0.0
H149 H 0.84583 0.25603 0.9016 0.0
H150 H 0.85062 0.26595 0.94763 0.0
H151 H 0.84379 0.2544 0.97696 0.0
C152 C 0.86401 0.27848 0.73684 0.0
N153 N 0.86125 0.26946 0.74797 0.0
N154 N 0.86314 0.26868 0.80095 0.0
C155 C 0.86737 0.27724 0.82487 0.0
C156 C 0.86799 0.28373 0.78523 0.0
C157 C 0.86268 0.28189 0.68106 0.0
H158 H 0.86794 0.28213 0.65083 0.0
H159 H 0.85563 0.27693 0.66434 0.0
H160 H 0.86347 0.28895 0.68449 0.0
O161 O 0.86485 0.25347 0.70048 0.0
O162 O 0.86767 0.25212 0.79036 0.0
H163 H 0.87474 0.2748 0.89128 0.0
H164 H 0.87732 0.28675 0.88612 0.0
C165 C 0.8717 0.27933 0.88236 0.0
H166 H 0.86625 0.27792 0.91428 0.0
H167 H 0.87428 0.25556 0.90385 0.0
O168 O 0.85588 0.26207 0.62117 0.0
C169 C 0.86884 0.25119 0.73819 0.0
Co170 Co 0.74171 0.5976 0.70702 0.0
Co171 Co 0.74371 0.60405 0.83295 0.0
C172 C 0.75508 0.596 0.78453 0.0
O173 O 0.75125 0.59475 0.73626 0.0
O174 O 0.7528 0.59952 0.82515 0.0
C175 C 0.7444 0.59281 0.5958 0.0
O176 O 0.75262 0.59486 0.61615 0.0
C177 C 0.74269 0.60136 0.95505 0.0
C178 C 0.7417 0.6135 0.98555 0.0
C179 C 0.74181 0.60556 0.00361 0.0
N180 N 0.74307 0.60658 0.91056 0.0
N181 N 0.74255 0.61386 0.92905 0.0
C182 C 0.7424 0.59218 0.95 0.0
H183 H 0.73978 0.58908 0.90776 0.0
H184 H 0.73788 0.58726 0.98322 0.0
H185 H 0.74959 0.59335 0.95499 0.0
C186 C 0.72194 0.58572 0.74268 0.0
N187 N 0.73093 0.59214 0.75337 0.0
N188 N 0.73167 0.59501 0.80586 0.0
C189 C 0.72313 0.59062 0.82998 0.0
C190 C 0.71668 0.58452 0.79092 0.0
C191 C 0.7186 0.58067 0.68772 0.0
H192 H 0.7237 0.57869 0.67182 0.0
H193 H 0.71164 0.57428 0.69202 0.0
H194 H 0.71815 0.58542 0.65637 0.0
O195 O 0.74713 0.61138 0.70261 0.0
O196 O 0.74846 0.61599 0.79158 0.0
H197 H 0.7135 0.59043 0.89296 0.0
H198 H 0.72318 0.58938 0.91963 0.0
C199 C 0.72105 0.59284 0.88756 0.0
H200 H 0.72506 0.6005 0.89471 0.0
H201 H 0.74261 0.61899 0.90301 0.0
O202 O 0.73845 0.59314 0.62825 0.0
C203 C 0.74945 0.61783 0.73908 0.0
Co204 Co 0.85627 0.59751 0.70787 0.0
Co205 Co 0.86052 0.60373 0.83442 0.0
C206 C 0.8412 0.59578 0.78552 0.0
O207 O 0.84384 0.59457 0.73734 0.0
O208 O 0.84695 0.59928 0.82633 0.0
C209 C 0.8484 0.59241 0.59778 0.0
O210 O 0.84203 0.59401 0.61993 0.0
C211 C 0.85849 0.60103 0.95637 0.0
C212 C 0.87172 0.61285 0.98808 0.0
C213 C 0.86345 0.60511 0.00545 0.0
N214 N 0.86359 0.60613 0.91227 0.0
N215 N 0.87147 0.61322 0.93146 0.0
C216 C 0.84941 0.59204 0.95053 0.0
H217 H 0.84901 0.58883 0.90877 0.0
H218 H 0.84861 0.58707 0.98448 0.0
H219 H 0.84356 0.59352 0.95356 0.0
C220 C 0.86423 0.58566 0.74299 0.0
N221 N 0.8616 0.59203 0.75395 0.0
N222 N 0.86346 0.59466 0.80699 0.0
C223 C 0.86739 0.59008 0.83141 0.0
C224 C 0.86796 0.58418 0.7918 0.0
C225 C 0.86295 0.58096 0.68715 0.0
H226 H 0.86795 0.5861 0.65643 0.0
H227 H 0.85577 0.57854 0.67133 0.0
H228 H 0.86411 0.57491 0.69001 0.0
O229 O 0.86458 0.61127 0.70427 0.0
O230 O 0.86778 0.61574 0.79354 0.0
H231 H 0.8752 0.59945 0.89847 0.0
H232 H 0.87582 0.58886 0.89741 0.0
C233 C 0.87117 0.59182 0.89026 0.0
H234 H 0.86526 0.58858 0.9205 0.0
H235 H 0.87673 0.61824 0.90585 0.0
O236 O 0.85502 0.59313 0.6287 0.0
C237 C 0.86867 0.61766 0.74113 0.0
Co238 Co 0.40089 0.2586 0.6971 0.0
Co239 Co 0.39714 0.25744 0.82692 0.0
C240 C 0.40431 0.24594 0.77244 0.0
O241 O 0.4045 0.24948 0.72436 0.0
O242 O 0.40156 0.24834 0.81627 0.0
C243 C 0.41128 0.26279 0.59041 0.0
O244 O 0.41874 0.26451 0.61955 0.0
C245 C 0.4003 0.2582 0.94968 0.0
C246 C 0.3914 0.26386 0.97912 0.0
C247 C 0.39774 0.26124 0.9973 0.0
N248 N 0.39575 0.25906 0.90516 0.0
N249 N 0.39032 0.2623 0.92324 0.0
C250 C 0.40769 0.2555 0.94532 0.0
H251 H 0.41156 0.25807 0.90501 0.0
H252 H 0.41267 0.25833 0.98116 0.0
H253 H 0.40429 0.24775 0.94567 0.0
C254 C 0.41243 0.27891 0.72448 0.0
N255 N 0.4069 0.26986 0.73908 0.0
N256 N 0.40564 0.2693 0.79406 0.0
C257 C 0.41056 0.27796 0.81631 0.0
C258 C 0.41493 0.28435 0.773 0.0
C259 C 0.41463 0.28234 0.66499 0.0
H260 H 0.40859 0.27795 0.63725 0.0
H261 H 0.42075 0.28184 0.65029 0.0
H262 H 0.41634 0.28974 0.66171 0.0
O263 O 0.38723 0.25303 0.70196 0.0
O264 O 0.38439 0.25222 0.79364 0.0
H265 H 0.40494 0.27957 0.89396 0.0
H266 H 0.41743 0.28711 0.88744 0.0
C267 C 0.41148 0.28003 0.87816 0.0
H268 H 0.41267 0.27486 0.9008 0.0
H269 H 0.38615 0.26378 0.89701 0.0
O270 O 0.40367 0.26058 0.61574 0.0
C271 C 0.38153 0.25087 0.74282 0.0
Co272 Co 0.74107 0.14387 0.69803 0.0
Co273 Co 0.74324 0.13972 0.82442 0.0
C274 C 0.7544 0.15904 0.77545 0.0
O275 O 0.75052 0.15632 0.72741 0.0
O276 O 0.75224 0.15334 0.81652 0.0
C277 C 0.74355 0.15163 0.58747 0.0
O278 O 0.75158 0.15809 0.60838 0.0
C279 C 0.743 0.1414 0.94742 0.0
C280 C 0.74033 0.1275 0.97527 0.0
C281 C 0.74161 0.13596 0.99503 0.0
N282 N 0.74254 0.13636 0.90179 0.0
N283 N 0.74104 0.12809 0.91874 0.0
C284 C 0.74384 0.15085 0.94444 0.0
H285 H 0.74116 0.15177 0.9034 0.0
H286 H 0.73991 0.1518 0.97934 0.0
H287 H 0.75132 0.1563 0.94806 0.0
C288 C 0.72123 0.13538 0.73302 0.0
N289 N 0.7303 0.13839 0.74428 0.0
N290 N 0.73115 0.13657 0.79728 0.0
C291 C 0.7226 0.13229 0.82141 0.0
C292 C 0.71604 0.13138 0.78152 0.0
C293 C 0.71762 0.13577 0.67583 0.0
H294 H 0.71985 0.13221 0.64501 0.0
H295 H 0.72076 0.14319 0.66257 0.0
H296 H 0.70988 0.1324 0.67519 0.0
O297 O 0.74662 0.13566 0.6936 0.0
O298 O 0.7481 0.13261 0.78282 0.0
H299 H 0.72296 0.124 0.88961 0.0
H300 H 0.7133 0.12623 0.89318 0.0
C301 C 0.72078 0.12926 0.88176 0.0
H302 H 0.72497 0.13537 0.9093 0.0
H303 H 0.74028 0.12278 0.8916 0.0
O304 O 0.73778 0.14509 0.61937 0.0
C305 C 0.74905 0.13167 0.73038 0.0
Co306 Co 0.59961 0.85756 0.28433 0.0
Co307 Co 0.605 0.86054 0.15582 0.0
C308 C 0.59744 0.84175 0.21298 0.0
O309 O 0.59655 0.84488 0.26024 0.0
O310 O 0.60064 0.84706 0.16999 0.0
C311 C 0.59048 0.84985 0.39145 0.0
O312 O 0.58645 0.84178 0.36497 0.0
C313 C 0.60105 0.85794 0.03373 0.0
C314 C 0.61417 0.86943 0.99837 0.0
C315 C 0.60548 0.86205 0.98319 0.0
N316 N 0.60684 0.86273 0.07649 0.0
N317 N 0.61466 0.86959 0.05499 0.0
C318 C 0.59171 0.84931 0.04152 0.0
H319 H 0.59111 0.84631 0.08409 0.0
H320 H 0.58611 0.85111 0.03707 0.0
H321 H 0.59061 0.84402 0.00895 0.0
C322 C 0.58761 0.86523 0.24778 0.0
N323 N 0.59378 0.86236 0.23679 0.0
N324 N 0.59628 0.86397 0.18343 0.0
C325 C 0.59195 0.86818 0.15912 0.0
C326 C 0.58624 0.86904 0.19892 0.0
C327 C 0.58301 0.86413 0.30382 0.0
H328 H 0.58087 0.85711 0.32125 0.0
H329 H 0.57676 0.86497 0.30053 0.0
H330 H 0.58811 0.86944 0.33342 0.0
O331 O 0.6134 0.86591 0.2833 0.0
O332 O 0.6173 0.86821 0.19284 0.0
H333 H 0.60154 0.87511 0.09105 0.0
H334 H 0.59232 0.87791 0.09657 0.0
C335 C 0.59403 0.87223 0.10092 0.0
H336 H 0.5898 0.86666 0.07003 0.0
H337 H 0.62036 0.87436 0.079 0.0
O338 O 0.59593 0.85727 0.36438 0.0
C339 C 0.61956 0.86962 0.24473 0.0
Co340 Co 0.14236 0.74148 0.28444 0.0
Co341 Co 0.1408 0.74444 0.1549 0.0
C342 C 0.159 0.75519 0.21606 0.0
O343 O 0.15532 0.75107 0.26238 0.0
O344 O 0.15416 0.75328 0.17108 0.0
C345 C 0.1496 0.73883 0.39009 0.0
O346 O 0.15747 0.74173 0.36237 0.0
C347 C 0.144 0.74508 0.03147 0.0
C348 C 0.13015 0.74192 0.99935 0.0
C349 C 0.13889 0.74363 0.98227 0.0
N350 N 0.13845 0.74407 0.07565 0.0
N351 N 0.13021 0.74227 0.05601 0.0
C352 C 0.15407 0.74773 0.03673 0.0
H353 H 0.15767 0.75377 0.06562 0.0
H354 H 0.15458 0.74182 0.05529 0.0
H355 H 0.15771 0.74966 0.99546 0.0
C356 C 0.13345 0.72166 0.24683 0.0
N357 N 0.13737 0.7309 0.23632 0.0
N358 N 0.13719 0.7322 0.18173 0.0
C359 C 0.13349 0.72385 0.15548 0.0
C360 C 0.13085 0.71684 0.19582 0.0
C361 C 0.13147 0.71759 0.30496 0.0
H362 H 0.12956 0.72174 0.33303 0.0
H363 H 0.13787 0.71789 0.32205 0.0
H364 H 0.12568 0.71022 0.30496 0.0
O365 O 0.13432 0.74714 0.28244 0.0
O366 O 0.13303 0.74918 0.1912 0.0
H367 H 0.12717 0.72361 0.07628 0.0
H368 H 0.13182 0.71574 0.07988 0.0
C369 C 0.13295 0.72269 0.09275 0.0
H370 H 0.13958 0.72807 0.07365 0.0
H371 H 0.12458 0.74113 0.08143 0.0
O372 O 0.14247 0.73799 0.36424 0.0
C373 C 0.13112 0.74985 0.24243 0.0
Co374 Co 0.25868 0.40258 0.29012 0.0
Co375 Co 0.25686 0.39639 0.16361 0.0
C376 C 0.24527 0.40414 0.21277 0.0
O377 O 0.24905 0.40533 0.26116 0.0
O378 O 0.24765 0.40076 0.1719 0.0
C379 C 0.25709 0.40911 0.40039 0.0
O380 O 0.24987 0.40931 0.37865 0.0
C381 C 0.25788 0.39919 0.04142 0.0
C382 C 0.25905 0.38718 0.01068 0.0
C383 C 0.2588 0.39505 0.99274 0.0
N384 N 0.2576 0.39401 0.08583 0.0
N385 N 0.25824 0.3868 0.06719 0.0
C386 C 0.25798 0.40828 0.04666 0.0
H387 H 0.26061 0.41141 0.08886 0.0
H388 H 0.26241 0.41325 0.01334 0.0
H389 H 0.25074 0.40698 0.04198 0.0
C390 C 0.27844 0.41466 0.25534 0.0
N391 N 0.26949 0.40823 0.24407 0.0
N392 N 0.26883 0.40548 0.19137 0.0
C393 C 0.2774 0.40997 0.16764 0.0
C394 C 0.28378 0.41599 0.20727 0.0
C395 C 0.28169 0.41958 0.31075 0.0
H396 H 0.28209 0.41476 0.34176 0.0
H397 H 0.27656 0.42152 0.32666 0.0
H398 H 0.28866 0.42598 0.30709 0.0
O399 O 0.25343 0.38882 0.29331 0.0
O400 O 0.25223 0.38438 0.20405 0.0
H401 H 0.27566 0.40026 0.1023 0.0
H402 H 0.28714 0.41045 0.10448 0.0
C403 C 0.27956 0.4079 0.10989 0.0
H404 H 0.27735 0.41133 0.0781 0.0
H405 H 0.25827 0.38171 0.09313 0.0
O406 O 0.26191 0.40683 0.36936 0.0
C407 C 0.25122 0.38245 0.25641 0.0
Co408 Co 0.80965 0.73409 0.61593 0.0
Co409 Co 0.80645 0.72974 0.48667 0.0
C410 C 0.82532 0.73682 0.54005 0.0
O411 O 0.82226 0.73732 0.5885 0.0
O412 O 0.81995 0.73398 0.49713 0.0
C413 C 0.81637 0.74423 0.72354 0.0
O414 O 0.823 0.7513 0.69547 0.0
C415 C 0.80897 0.73342 0.36476 0.0
C416 C 0.79488 0.72336 0.33246 0.0
C417 C 0.80362 0.73047 0.31613 0.0
N418 N 0.8036 0.72832 0.40817 0.0
N419 N 0.79524 0.72222 0.38842 0.0
C420 C 0.81872 0.74146 0.37081 0.0
H421 H 0.8196 0.74486 0.41249 0.0
H422 H 0.8204 0.74666 0.33664 0.0
H423 H 0.82369 0.7388 0.36824 0.0
C424 C 0.80157 0.74619 0.58714 0.0
N425 N 0.8046 0.74023 0.57312 0.0
N426 N 0.80339 0.73851 0.51862 0.0
C427 C 0.79968 0.74344 0.49617 0.0
C428 C 0.79843 0.74848 0.53873 0.0
C429 C 0.80178 0.74967 0.64567 0.0
H430 H 0.79865 0.74367 0.67535 0.0
H431 H 0.80916 0.75434 0.65829 0.0
H432 H 0.79801 0.75364 0.64868 0.0
O433 O 0.8013 0.72041 0.61219 0.0
O434 O 0.79881 0.71714 0.52112 0.0
H435 H 0.79181 0.73542 0.42508 0.0
H436 H 0.79321 0.74693 0.42766 0.0
C437 C 0.79673 0.74282 0.4359 0.0
H438 H 0.80296 0.74544 0.4083 0.0
H439 H 0.78967 0.7175 0.41349 0.0
O440 O 0.81037 0.73698 0.69732 0.0
C441 C 0.79748 0.71453 0.57243 0.0
Co442 Co 0.26412 0.07386 0.63794 0.0
Co443 Co 0.2695 0.07625 0.50934 0.0
C444 C 0.26193 0.08747 0.56639 0.0
O445 O 0.26099 0.08343 0.61363 0.0
O446 O 0.26516 0.08537 0.52352 0.0
C447 C 0.25489 0.07239 0.74474 0.0
O448 O 0.25088 0.07645 0.71831 0.0
C449 C 0.26594 0.07538 0.38651 0.0
C450 C 0.27853 0.07561 0.35276 0.0
C451 C 0.27025 0.07517 0.33659 0.0
N452 N 0.27138 0.07579 0.43001 0.0
N453 N 0.2789 0.07594 0.40942 0.0
C454 C 0.25702 0.07561 0.39278 0.0
H455 H 0.25664 0.0784 0.43445 0.0
H456 H 0.25098 0.0684 0.38932 0.0
H457 H 0.25641 0.07991 0.35892 0.0
C458 C 0.25241 0.05414 0.60201 0.0
N459 N 0.2584 0.06322 0.59065 0.0
N460 N 0.26082 0.06411 0.53714 0.0
C461 C 0.25658 0.05556 0.51301 0.0
C462 C 0.25108 0.04898 0.55322 0.0
C463 C 0.24865 0.05047 0.65954 0.0
H464 H 0.25458 0.05244 0.68899 0.0
H465 H 0.24465 0.05379 0.67493 0.0
H466 H 0.24408 0.04275 0.65969 0.0
O467 O 0.27789 0.07939 0.63716 0.0
O468 O 0.28182 0.08095 0.54673 0.0
H469 H 0.26544 0.05706 0.4431 0.0
H470 H 0.25441 0.04616 0.44324 0.0
C471 C 0.25787 0.05374 0.45279 0.0
H472 H 0.25479 0.05689 0.42511 0.0
H473 H 0.2843 0.07628 0.4341 0.0
O474 O 0.26037 0.07045 0.71774 0.0
C475 C 0.28406 0.08184 0.59867 0.0
Co476 Co 0.92459 0.19024 0.62899 0.0
Co477 Co 0.92365 0.19326 0.49941 0.0
C478 C 0.91194 0.17445 0.55214 0.0
O479 O 0.91543 0.17761 0.60058 0.0
O480 O 0.91444 0.17975 0.50897 0.0
C481 C 0.92863 0.1839 0.736 0.0
O482 O 0.93037 0.17814 0.70708 0.0
C483 C 0.92449 0.19097 0.37666 0.0
C484 C 0.93018 0.20554 0.34744 0.0
C485 C 0.92754 0.19659 0.3291 0.0
N486 N 0.92536 0.19638 0.42127 0.0
N487 N 0.92862 0.20505 0.40333 0.0
C488 C 0.92176 0.18087 0.38084 0.0
H489 H 0.92434 0.17956 0.42109 0.0
H490 H 0.92459 0.17873 0.34493 0.0
H491 H 0.91402 0.17655 0.38048 0.0
C492 C 0.94493 0.19901 0.60255 0.0
N493 N 0.93591 0.19554 0.58751 0.0
N494 N 0.93544 0.19643 0.53263 0.0
C495 C 0.94414 0.20026 0.51087 0.0
C496 C 0.95045 0.20211 0.55442 0.0
C497 C 0.94826 0.20008 0.66221 0.0
H498 H 0.94385 0.20171 0.68994 0.0
H499 H 0.94769 0.19341 0.67643 0.0
H500 H 0.95567 0.20572 0.6661 0.0
O501 O 0.91913 0.19843 0.62469 0.0
O502 O 0.91848 0.2008 0.53332 0.0
H503 H 0.94585 0.20783 0.43454 0.0
H504 H 0.95346 0.20294 0.44007 0.0
C505 C 0.94634 0.20172 0.44923 0.0
H506 H 0.94124 0.19545 0.42552 0.0
H507 H 0.93011 0.21069 0.42965 0.0
O508 O 0.92646 0.18931 0.71043 0.0
C509 C 0.91707 0.20216 0.58437 0.0
Co510 Co 0.06855 0.47602 0.03859 0.0
Co511 Co 0.06297 0.47266 0.16677 0.0
C512 C 0.07039 0.49157 0.111 0.0
O513 O 0.07139 0.48863 0.06332 0.0
O514 O 0.0672 0.48611 0.15337 0.0
C515 C 0.0775 0.48389 0.93116 0.0
O516 O 0.08122 0.492 0.9572 0.0
C517 C 0.06683 0.47519 0.28893 0.0
C518 C 0.05376 0.46358 0.32396 0.0
C519 C 0.0624 0.47102 0.33936 0.0
N520 N 0.06109 0.47037 0.24603 0.0
N521 N 0.0533 0.46344 0.26733 0.0
C522 C 0.07612 0.48389 0.28138 0.0
H523 H 0.08178 0.48218 0.28607 0.0
H524 H 0.07713 0.48915 0.31391 0.0
H525 H 0.07673 0.48688 0.2388 0.0
C526 C 0.08082 0.46864 0.07526 0.0
N527 N 0.07445 0.47127 0.08602 0.0
N528 N 0.07184 0.46947 0.13912 0.0
C529 C 0.07627 0.46538 0.16344 0.0
C530 C 0.0822 0.4648 0.124 0.0
C531 C 0.08562 0.47002 0.01964 0.0
H532 H 0.08751 0.47699 0.00241 0.0
H533 H 0.09204 0.46949 0.02352 0.0
H534 H 0.08073 0.46463 0.98959 0.0
O535 O 0.05477 0.46753 0.03893 0.0
O536 O 0.05074 0.46496 0.12913 0.0
H537 H 0.06659 0.45818 0.23068 0.0
H538 H 0.07592 0.45555 0.22519 0.0
C539 C 0.07412 0.46117 0.22126 0.0
H540 H 0.07825 0.46668 0.25271 0.0
H541 H 0.04763 0.45865 0.24318 0.0
O542 O 0.07231 0.47644 0.9586 0.0
C543 C 0.04857 0.46366 0.0771 0.0
Co544 Co 0.5237 0.59206 0.04046 0.0
Co545 Co 0.52707 0.58972 0.16799 0.0
C546 C 0.50813 0.57841 0.11409 0.0
O547 O 0.51116 0.58237 0.06654 0.0
O548 O 0.51352 0.5806 0.15678 0.0
C549 C 0.51563 0.5921 0.93189 0.0
O550 O 0.50757 0.58632 0.95561 0.0
C551 C 0.52493 0.59066 0.29011 0.0
C552 C 0.53782 0.5913 0.32204 0.0
C553 C 0.52984 0.5914 0.33925 0.0
N554 N 0.52982 0.59019 0.24619 0.0
N555 N 0.53747 0.59049 0.26556 0.0
C556 C 0.51617 0.59116 0.28392 0.0
H557 H 0.51578 0.59368 0.24114 0.0
H558 H 0.51586 0.59586 0.31627 0.0
H559 H 0.51003 0.58406 0.28953 0.0
C560 C 0.53131 0.61172 0.07698 0.0
N561 N 0.52859 0.6027 0.08774 0.0
N562 N 0.53027 0.60184 0.14098 0.0
C563 C 0.53429 0.61034 0.16557 0.0
C564 C 0.53502 0.61688 0.12596 0.0
C565 C 0.53011 0.61519 0.02108 0.0
H566 H 0.53543 0.61546 0.99127 0.0
H567 H 0.52309 0.61026 0.00378 0.0
H568 H 0.5309 0.62225 0.02453 0.0
O569 O 0.53216 0.58675 0.03903 0.0
O570 O 0.53457 0.58509 0.12913 0.0
H571 H 0.54169 0.60822 0.233 0.0
H572 H 0.54331 0.61983 0.23042 0.0
C573 C 0.53817 0.61231 0.22423 0.0
H574 H 0.53236 0.6102 0.25471 0.0
H575 H 0.54255 0.59032 0.24012 0.0
O576 O 0.52308 0.59549 0.96108 0.0
C577 C 0.53594 0.58429 0.07714 0.0
Co578 Co 0.40875 0.93106 0.02292 0.0
Co579 Co 0.40961 0.9356 0.15181 0.0
C580 C 0.42149 0.9284 0.10096 0.0
O581 O 0.41802 0.92779 0.05206 0.0
O582 O 0.41889 0.93137 0.14298 0.0
C583 C 0.40523 0.92079 0.91515 0.0
O584 O 0.4042 0.91347 0.94315 0.0
C585 C 0.40831 0.93209 0.27395 0.0
C586 C 0.40426 0.94219 0.30507 0.0
C587 C 0.40589 0.93512 0.32223 0.0
N588 N 0.40805 0.93711 0.23006 0.0
N589 N 0.40576 0.94323 0.2491 0.0
C590 C 0.41 0.92402 0.26866 0.0
H591 H 0.40763 0.92064 0.2268 0.0
H592 H 0.40633 0.9188 0.30253 0.0
H593 H 0.41762 0.92665 0.27241 0.0
C594 C 0.38847 0.91909 0.05046 0.0
N595 N 0.39745 0.92503 0.06489 0.0
N596 N 0.39787 0.92679 0.11932 0.0
C597 C 0.38919 0.92187 0.14133 0.0
C598 C 0.38298 0.91682 0.09855 0.0
C599 C 0.38526 0.9156 0.99189 0.0
H600 H 0.38852 0.92153 0.96175 0.0
H601 H 0.38755 0.91053 0.98064 0.0
H602 H 0.37754 0.91205 0.9881 0.0
O603 O 0.41412 0.94475 0.0258 0.0
O604 O 0.4146 0.94815 0.1165 0.0
H605 H 0.38916 0.92984 0.21223 0.0
H606 H 0.37914 0.91826 0.20937 0.0
C607 C 0.38678 0.92246 0.20146 0.0
H608 H 0.39042 0.91991 0.22931 0.0
H609 H 0.40494 0.94792 0.22355 0.0
O610 O 0.40681 0.92815 0.94148 0.0
C611 C 0.41605 0.95068 0.06507 0.0
Co612 Co 0.52408 0.93169 0.04262 0.0
Co613 Co 0.52686 0.93635 0.17211 0.0
C614 C 0.50818 0.92918 0.11477 0.0
O615 O 0.51137 0.92857 0.06705 0.0
O616 O 0.51343 0.93208 0.15815 0.0
C617 C 0.51634 0.92232 0.93625 0.0
O618 O 0.50839 0.91784 0.96378 0.0
C619 C 0.5241 0.93238 0.29453 0.0
C620 C 0.53638 0.94493 0.32933 0.0
C621 C 0.52854 0.9366 0.34478 0.0
N622 N 0.52917 0.93793 0.2515 0.0
N623 N 0.53649 0.94541 0.27272 0.0
C624 C 0.51499 0.92346 0.28755 0.0
H625 H 0.51198 0.92304 0.24528 0.0
H626 H 0.51614 0.91742 0.29209 0.0
H627 H 0.50996 0.92288 0.32055 0.0
C628 C 0.53209 0.91982 0.07544 0.0
N629 N 0.5289 0.92568 0.08838 0.0
N630 N 0.53032 0.92779 0.14234 0.0
C631 C 0.53463 0.92346 0.16526 0.0
C632 C 0.53584 0.91823 0.12371 0.0
C633 C 0.53222 0.91648 0.01699 0.0
H634 H 0.53604 0.92261 0.98874 0.0
H635 H 0.52494 0.91235 0.00119 0.0
H636 H 0.53561 0.91213 0.01543 0.0
O637 O 0.53247 0.94545 0.04548 0.0
O638 O 0.53455 0.94882 0.13674 0.0
H639 H 0.54197 0.93195 0.23642 0.0
H640 H 0.54165 0.92083 0.23435 0.0
C641 C 0.53764 0.92443 0.22557 0.0
H642 H 0.53137 0.92133 0.25292 0.0
H643 H 0.54155 0.95089 0.2485 0.0
O644 O 0.52369 0.92817 0.96234 0.0
C645 C 0.53609 0.95137 0.08534 0.0
Co646 Co 0.06794 0.59094 0.03667 0.0
Co647 Co 0.06407 0.58999 0.16601 0.0
C648 C 0.07111 0.57828 0.11417 0.0
O649 O 0.07143 0.58178 0.06575 0.0
O650 O 0.06832 0.58078 0.15735 0.0
C651 C 0.07867 0.59575 0.93033 0.0
O652 O 0.08643 0.59889 0.95954 0.0
C653 C 0.06686 0.59083 0.28915 0.0
C654 C 0.05799 0.59665 0.31649 0.0
C655 C 0.06416 0.59391 0.3361 0.0
N656 N 0.06253 0.59179 0.24375 0.0
N657 N 0.05715 0.59514 0.26053 0.0
C658 C 0.07417 0.588 0.28631 0.0
H659 H 0.07795 0.5902 0.24552 0.0
H660 H 0.07925 0.59113 0.32146 0.0
H661 H 0.07072 0.58027 0.28933 0.0
C662 C 0.07888 0.61139 0.06286 0.0
N663 N 0.07379 0.60231 0.07786 0.0
N664 N 0.07277 0.60174 0.13296 0.0
C665 C 0.07762 0.61041 0.15507 0.0
C666 C 0.08152 0.61687 0.11143 0.0
C667 C 0.08023 0.61475 0.00317 0.0
H668 H 0.07439 0.60964 0.97643 0.0
H669 H 0.08688 0.61555 0.98684 0.0
H670 H 0.08058 0.62164 0.00042 0.0
O671 O 0.05432 0.58546 0.04001 0.0
O672 O 0.05136 0.58485 0.13143 0.0
H673 H 0.07275 0.61229 0.23488 0.0
H674 H 0.08527 0.6193 0.22558 0.0
C675 C 0.07901 0.61239 0.21698 0.0
H676 H 0.07998 0.60697 0.2382 0.0
H677 H 0.05313 0.5967 0.23343 0.0
O678 O 0.07088 0.59264 0.95553 0.0
C679 C 0.04858 0.58343 0.08042 0.0
Co680 Co 0.40802 0.47601 0.04113 0.0
Co681 Co 0.41015 0.47303 0.17006 0.0
C682 C 0.42169 0.49175 0.11295 0.0
O683 O 0.41772 0.48866 0.06554 0.0
O684 O 0.41945 0.48644 0.15599 0.0
C685 C 0.40662 0.48385 0.9345 0.0
O686 O 0.41055 0.49189 0.9614 0.0
C687 C 0.4092 0.47579 0.29272 0.0
C688 C 0.40923 0.46335 0.32692 0.0
C689 C 0.40891 0.47127 0.34278 0.0
N690 N 0.40955 0.4707 0.24942 0.0
N691 N 0.40957 0.46328 0.27027 0.0
C692 C 0.40958 0.48501 0.28616 0.0
H693 H 0.41232 0.48809 0.24424 0.0
H694 H 0.40243 0.48397 0.29009 0.0
H695 H 0.414 0.48994 0.31967 0.0
C696 C 0.38829 0.46834 0.0759 0.0
N697 N 0.39732 0.47129 0.08782 0.0
N698 N 0.3981 0.46976 0.1415 0.0
C699 C 0.38952 0.46561 0.16519 0.0
C700 C 0.38305 0.46464 0.12451 0.0
C701 C 0.38475 0.46847 0.01805 0.0
H702 H 0.38674 0.46449 0.98891 0.0
H703 H 0.38813 0.47579 0.00268 0.0
H704 H 0.37703 0.46536 0.01734 0.0
O705 O 0.41331 0.46755 0.04271 0.0
O706 O 0.41471 0.46523 0.13344 0.0
H707 H 0.39076 0.4582 0.23572 0.0
H708 H 0.37997 0.45856 0.23465 0.0
C709 C 0.38757 0.46256 0.22547 0.0
H710 H 0.39079 0.46881 0.25298 0.0
H711 H 0.40985 0.45817 0.24578 0.0
O712 O 0.40477 0.47644 0.96112 0.0
C713 C 0.41561 0.46378 0.08168 0.0
Co714 Co 0.26394 0.18983 0.63416 0.0
Co715 Co 0.26955 0.19278 0.5062 0.0
C716 C 0.26194 0.17401 0.56376 0.0
O717 O 0.26092 0.17714 0.6107 0.0
O718 O 0.26521 0.17931 0.52077 0.0
C719 C 0.25462 0.18223 0.74101 0.0
O720 O 0.25045 0.17414 0.71472 0.0
C721 C 0.2658 0.19021 0.38399 0.0
C722 C 0.27891 0.2018 0.34932 0.0
C723 C 0.27026 0.19442 0.33369 0.0
N724 N 0.27154 0.19497 0.42701 0.0
N725 N 0.27936 0.20188 0.40593 0.0
C726 C 0.25647 0.18156 0.39139 0.0
H727 H 0.25591 0.17843 0.43349 0.0
H728 H 0.25086 0.18338 0.38799 0.0
H729 H 0.25533 0.17637 0.35809 0.0
C730 C 0.25203 0.19753 0.59616 0.0
N731 N 0.25819 0.19461 0.5859 0.0
N732 N 0.26079 0.19622 0.53273 0.0
C733 C 0.25656 0.20048 0.50783 0.0
C734 C 0.25078 0.20136 0.54701 0.0
C735 C 0.24734 0.19647 0.65184 0.0
H736 H 0.25239 0.2018 0.68153 0.0
H737 H 0.24516 0.18946 0.66957 0.0
H738 H 0.2411 0.19731 0.64787 0.0
O739 O 0.27773 0.19816 0.63404 0.0
O740 O 0.28178 0.20045 0.54383 0.0
H741 H 0.26637 0.20745 0.44076 0.0
H742 H 0.25719 0.21031 0.44516 0.0
C743 C 0.25884 0.2046 0.4498 0.0
H744 H 0.25467 0.19908 0.41851 0.0
H745 H 0.28502 0.20665 0.43024 0.0
O746 O 0.26018 0.18959 0.71383 0.0
C747 C 0.28395 0.20186 0.59582 0.0
Co748 Co 0.80937 0.07543 0.62354 0.0
Co749 Co 0.80667 0.07643 0.4937 0.0
C750 C 0.82532 0.08822 0.54783 0.0
O751 O 0.82203 0.08469 0.59601 0.0
O752 O 0.82014 0.08571 0.50408 0.0
C753 C 0.81577 0.07149 0.73028 0.0
O754 O 0.82164 0.06995 0.70113 0.0
C755 C 0.8091 0.07564 0.37106 0.0
C756 C 0.79453 0.06983 0.34148 0.0
C757 C 0.8035 0.07253 0.3234 0.0
N758 N 0.80365 0.07472 0.41549 0.0
N759 N 0.79498 0.07139 0.39734 0.0
C760 C 0.81922 0.07846 0.37554 0.0
H761 H 0.82054 0.0759 0.41582 0.0
H762 H 0.82144 0.0757 0.33967 0.0
H763 H 0.82348 0.08622 0.37538 0.0
C764 C 0.80096 0.05513 0.59662 0.0
N765 N 0.8043 0.06415 0.58181 0.0
N766 N 0.80352 0.06465 0.52685 0.0
C767 C 0.79987 0.05598 0.50485 0.0
C768 C 0.79804 0.04965 0.54829 0.0
C769 C 0.79989 0.05176 0.65616 0.0
H770 H 0.79808 0.05603 0.68393 0.0
H771 H 0.80662 0.0525 0.67065 0.0
H772 H 0.79438 0.04429 0.65966 0.0
O773 O 0.80106 0.08078 0.61857 0.0
O774 O 0.799 0.08148 0.52685 0.0
H775 H 0.79245 0.05426 0.42785 0.0
H776 H 0.79743 0.04673 0.43397 0.0
C777 C 0.79857 0.05382 0.44312 0.0
H778 H 0.80488 0.05897 0.41992 0.0
H779 H 0.7893 0.06986 0.42351 0.0
O780 O 0.81024 0.07353 0.70496 0.0
C781 C 0.79745 0.08283 0.57762 0.0
Co782 Co 0.92422 0.73404 0.62515 0.0
Co783 Co 0.9237 0.73013 0.49567 0.0
C784 C 0.91178 0.73718 0.54651 0.0
O785 O 0.9151 0.73752 0.59551 0.0
O786 O 0.91445 0.7344 0.50401 0.0
C787 C 0.9281 0.74439 0.7323 0.0
O788 O 0.93005 0.75194 0.70338 0.0
C789 C 0.92481 0.73335 0.37296 0.0
C790 C 0.93044 0.72439 0.34414 0.0
C791 C 0.92786 0.73073 0.32554 0.0
N792 N 0.92561 0.72879 0.41771 0.0
N793 N 0.92885 0.72335 0.40002 0.0
C794 C 0.92213 0.74076 0.37683 0.0
H795 H 0.9144 0.7374 0.37457 0.0
H796 H 0.92447 0.7445 0.41769 0.0
H797 H 0.92522 0.74585 0.3417 0.0
C798 C 0.94466 0.74565 0.60071 0.0
N799 N 0.93568 0.74009 0.58484 0.0
N800 N 0.93537 0.73873 0.53 0.0
C801 C 0.94412 0.74361 0.50907 0.0
C802 C 0.95032 0.74807 0.55316 0.0
C803 C 0.94784 0.74792 0.66061 0.0
H804 H 0.94336 0.7419 0.68824 0.0
H805 H 0.94726 0.75404 0.67429 0.0
H806 H 0.95523 0.74967 0.66529 0.0
O807 O 0.91878 0.72038 0.62068 0.0
O808 O 0.91847 0.71741 0.52941 0.0
H809 H 0.94602 0.73775 0.43324 0.0
H810 H 0.95363 0.75024 0.43904 0.0
C811 C 0.94649 0.74436 0.44767 0.0
H812 H 0.94146 0.74555 0.42331 0.0
H813 H 0.93027 0.71916 0.42647 0.0
O814 O 0.92586 0.73679 0.70672 0.0
C815 C 0.91689 0.71463 0.58039 0.0
Co816 Co 0.47603 0.06783 0.96166 0.0
Co817 Co 0.47396 0.06354 0.83167 0.0
C818 C 0.49236 0.07076 0.8909 0.0
O819 O 0.48894 0.07125 0.93807 0.0
O820 O 0.4873 0.06786 0.84681 0.0
C821 C 0.4835 0.07752 0.06751 0.0
O822 O 0.49138 0.08238 0.03973 0.0
C823 C 0.47691 0.06675 0.70796 0.0
C824 C 0.46348 0.05527 0.67582 0.0
C825 C 0.4719 0.06282 0.65879 0.0
N826 N 0.47159 0.06183 0.75219 0.0
N827 N 0.4636 0.05496 0.73247 0.0
C828 C 0.48667 0.07487 0.71246 0.0
H829 H 0.49003 0.07457 0.752 0.0
H830 H 0.48647 0.08149 0.71238 0.0
H831 H 0.49094 0.075 0.67599 0.0
C832 C 0.46699 0.07875 0.92847 0.0
N833 N 0.4709 0.07351 0.91565 0.0
N834 N 0.47044 0.07212 0.86086 0.0
C835 C 0.46651 0.07673 0.83675 0.0
C836 C 0.46409 0.08103 0.8788 0.0
C837 C 0.4652 0.08062 0.98764 0.0
H838 H 0.46317 0.07436 0.01417 0.0
H839 H 0.47173 0.08651 0.00521 0.0
H840 H 0.45954 0.08238 0.98958 0.0
O841 O 0.468 0.05415 0.95866 0.0
O842 O 0.46626 0.05094 0.86718 0.0
H843 H 0.45978 0.07048 0.75871 0.0
H844 H 0.46399 0.08294 0.7629 0.0
C845 C 0.46548 0.0773 0.77443 0.0
H846 H 0.47206 0.07881 0.75343 0.0
H847 H 0.45819 0.05007 0.75781 0.0
O848 O 0.47631 0.07131 0.04177 0.0
C849 C 0.4646 0.04829 0.91846 0.0
Co850 Co 0.93166 0.40783 0.95678 0.0
Co851 Co 0.93692 0.41044 0.82819 0.0
C852 C 0.92936 0.42154 0.88673 0.0
O853 O 0.9285 0.41742 0.93359 0.0
O854 O 0.93257 0.41953 0.84332 0.0
C855 C 0.92208 0.40576 0.063 0.0
O856 O 0.91755 0.40923 0.03605 0.0
C857 C 0.93336 0.4097 0.70539 0.0
C858 C 0.94586 0.40972 0.67163 0.0
C859 C 0.93762 0.40939 0.65549 0.0
N860 N 0.93879 0.41006 0.74886 0.0
N861 N 0.94625 0.4101 0.72826 0.0
C862 C 0.9245 0.41003 0.71167 0.0
H863 H 0.92427 0.41306 0.7528 0.0
H864 H 0.91842 0.40282 0.70964 0.0
H865 H 0.92383 0.41418 0.67706 0.0
C866 C 0.91995 0.38816 0.92013 0.0
N867 N 0.9259 0.39725 0.90911 0.0
N868 N 0.92827 0.39824 0.85549 0.0
C869 C 0.92402 0.38972 0.83092 0.0
C870 C 0.91857 0.38308 0.87097 0.0
C871 C 0.91627 0.3844 0.97765 0.0
H872 H 0.92223 0.3865 0.00699 0.0
H873 H 0.91211 0.38754 0.99328 0.0
H874 H 0.91186 0.37666 0.97765 0.0
O875 O 0.94543 0.41332 0.95558 0.0
O876 O 0.94928 0.41509 0.86502 0.0
H877 H 0.9328 0.39127 0.7605 0.0
H878 H 0.92172 0.38042 0.76034 0.0
C879 C 0.92524 0.38798 0.77041 0.0
H880 H 0.92218 0.39123 0.74329 0.0
H881 H 0.95161 0.41037 0.75294 0.0
O882 O 0.92797 0.40437 0.03647 0.0
C883 C 0.95156 0.41586 0.91684 0.0
Co884 Co 0.59217 0.52345 0.95837 0.0
Co885 Co 0.59041 0.52704 0.83051 0.0
C886 C 0.57893 0.508 0.88197 0.0
O887 O 0.58265 0.51094 0.93021 0.0
O888 O 0.58131 0.51348 0.83969 0.0
C889 C 0.59122 0.51511 0.06729 0.0
O890 O 0.58474 0.50732 0.04406 0.0
C891 C 0.59096 0.52503 0.70799 0.0
C892 C 0.59356 0.53882 0.67819 0.0
C893 C 0.59238 0.53033 0.65965 0.0
N894 N 0.59132 0.53018 0.75279 0.0
N895 N 0.59279 0.53838 0.73469 0.0
C896 C 0.59016 0.51561 0.71256 0.0
H897 H 0.59268 0.51479 0.75437 0.0
H898 H 0.59423 0.51461 0.67876 0.0
H899 H 0.5827 0.51012 0.70826 0.0
C900 C 0.61209 0.53162 0.92574 0.0
N901 N 0.60306 0.52862 0.91312 0.0
N902 N 0.60239 0.53021 0.85946 0.0
C903 C 0.611 0.53434 0.83624 0.0
C904 C 0.61742 0.53537 0.87744 0.0
C905 C 0.61552 0.53147 0.98389 0.0
H906 H 0.61324 0.53521 0.01308 0.0
H907 H 0.6123 0.52411 0.99855 0.0
H908 H 0.62325 0.5348 0.98549 0.0
O909 O 0.58676 0.53182 0.9596 0.0
O910 O 0.58552 0.53437 0.8691 0.0
H911 H 0.61087 0.54238 0.76586 0.0
H912 H 0.62052 0.54011 0.76521 0.0
C913 C 0.61301 0.53714 0.77559 0.0
H914 H 0.60889 0.53093 0.74866 0.0
H915 H 0.59344 0.54374 0.76103 0.0
O916 O 0.59533 0.52251 0.03773 0.0
C917 C 0.58446 0.53562 0.92089 0.0
Co918 Co 0.73416 0.80974 0.38384 0.0
Co919 Co 0.73015 0.80625 0.51292 0.0
C920 C 0.73725 0.82525 0.46295 0.0
O921 O 0.73763 0.82229 0.41396 0.0
O922 O 0.73443 0.81977 0.50529 0.0
C923 C 0.74465 0.81625 0.27706 0.0
O924 O 0.75233 0.82142 0.30605 0.0
C925 C 0.7332 0.80823 0.6356 0.0
C926 C 0.72403 0.79365 0.66402 0.0
C927 C 0.73041 0.80254 0.68294 0.0
N928 N 0.7287 0.80291 0.59061 0.0
N929 N 0.72315 0.79424 0.60801 0.0
C930 C 0.7407 0.81829 0.63203 0.0
H931 H 0.74446 0.81967 0.59129 0.0
H932 H 0.74575 0.82021 0.66731 0.0
H933 H 0.73741 0.82273 0.63427 0.0
C934 C 0.7457 0.80079 0.40826 0.0
N935 N 0.74018 0.80427 0.42399 0.0
N936 N 0.73878 0.8032 0.4788 0.0
C937 C 0.74359 0.79926 0.49983 0.0
C938 C 0.74805 0.79751 0.45587 0.0
C939 C 0.74798 0.79985 0.34843 0.0
H940 H 0.74208 0.79858 0.32046 0.0
H941 H 0.75428 0.80643 0.33526 0.0
H942 H 0.74946 0.79402 0.34376 0.0
O943 O 0.72047 0.80152 0.38757 0.0
O944 O 0.71748 0.79881 0.47877 0.0
H945 H 0.73756 0.79144 0.57523 0.0
H946 H 0.75005 0.79619 0.57001 0.0
C947 C 0.74423 0.79755 0.56122 0.0
H948 H 0.74547 0.80377 0.58579 0.0
H949 H 0.71895 0.78867 0.58134 0.0
O950 O 0.73699 0.81107 0.30246 0.0
C951 C 0.71471 0.79764 0.4278 0.0
Co952 Co 0.19047 0.92541 0.36849 0.0
Co953 Co 0.19336 0.92277 0.4966 0.0
C954 C 0.1747 0.91139 0.4384 0.0
O955 O 0.17783 0.91556 0.39155 0.0
O956 O 0.17996 0.91349 0.4816 0.0
C957 C 0.1828 0.92705 0.26181 0.0
O958 O 0.17473 0.92311 0.28832 0.0
C959 C 0.19064 0.92383 0.61878 0.0
C960 C 0.2024 0.92261 0.65367 0.0
C961 C 0.19488 0.92368 0.66916 0.0
N962 N 0.19551 0.923 0.57585 0.0
N963 N 0.20252 0.92226 0.59707 0.0
C964 C 0.18186 0.92428 0.61125 0.0
H965 H 0.17877 0.92166 0.56912 0.0
H966 H 0.18351 0.93165 0.61462 0.0
H967 H 0.1767 0.92015 0.64451 0.0
C968 C 0.19774 0.94496 0.40688 0.0
N969 N 0.19502 0.93592 0.41692 0.0
N970 N 0.19661 0.93493 0.47016 0.0
C971 C 0.20065 0.94339 0.49534 0.0
C972 C 0.20141 0.95002 0.45627 0.0
C973 C 0.19662 0.94855 0.35122 0.0
H974 H 0.18965 0.94362 0.33331 0.0
H975 H 0.19731 0.95556 0.35526 0.0
H976 H 0.20202 0.94896 0.32164 0.0
O977 O 0.19903 0.9202 0.36894 0.0
O978 O 0.20125 0.91845 0.45928 0.0
H979 H 0.21026 0.95269 0.55858 0.0
H980 H 0.19907 0.94377 0.58457 0.0
C981 C 0.20468 0.94528 0.55361 0.0
H982 H 0.20769 0.94074 0.56283 0.0
H983 H 0.20739 0.92152 0.57286 0.0
O984 O 0.19019 0.9289 0.28881 0.0
C985 C 0.20277 0.91777 0.40737 0.0
Co986 Co 0.0744 0.26482 0.38041 0.0
Co987 Co 0.07697 0.27048 0.50812 0.0
C988 C 0.08815 0.26283 0.45321 0.0
O989 O 0.08414 0.26196 0.4059 0.0
O990 O 0.08603 0.26601 0.49628 0.0
C991 C 0.0741 0.25649 0.27221 0.0
O992 O 0.07972 0.25403 0.29618 0.0
C993 C 0.07627 0.26755 0.63041 0.0
C994 C 0.07545 0.27972 0.66205 0.0
C995 C 0.0755 0.27172 0.67948 0.0
N996 N 0.07661 0.27283 0.58634 0.0
N997 N 0.07621 0.28013 0.60555 0.0
C998 C 0.0759 0.25834 0.62446 0.0
H999 H 0.07342 0.25541 0.58171 0.0
H1000 H 0.07122 0.25332 0.65682 0.0
H1001 H 0.08304 0.2594 0.63023 0.0
C1002 C 0.05477 0.25292 0.41781 0.0
N1003 N 0.06383 0.25913 0.42825 0.0
N1004 N 0.06481 0.26156 0.48176 0.0
C1005 C 0.05636 0.25701 0.50699 0.0
C1006 C 0.04973 0.25135 0.46741 0.0
C1007 C 0.05112 0.24853 0.36148 0.0
H1008 H 0.05136 0.25389 0.3322 0.0
H1009 H 0.05567 0.24598 0.3439 0.0
H1010 H 0.04383 0.2426 0.3643 0.0
O1011 O 0.07974 0.27858 0.37889 0.0
O1012 O 0.08158 0.28262 0.46906 0.0
H1013 H 0.05839 0.26627 0.57573 0.0
H1014 H 0.04696 0.25598 0.57405 0.0
C1015 C 0.05451 0.25867 0.56645 0.0
H1016 H 0.05697 0.2551 0.59564 0.0
H1017 H 0.07625 0.2853 0.57997 0.0
O1018 O 0.07088 0.26073 0.30116 0.0
C1019 C 0.08228 0.28479 0.41711 0.0
Co1020 Co 0.19101 0.26595 0.37859 0.0
Co1021 Co 0.19377 0.27084 0.50759 0.0
C1022 C 0.17513 0.2637 0.44984 0.0
O1023 O 0.17832 0.26291 0.40254 0.0
O1024 O 0.18037 0.26672 0.49322 0.0
C1025 C 0.1833 0.25648 0.27248 0.0
O1026 O 0.17532 0.25201 0.2998 0.0
C1027 C 0.191 0.26723 0.63039 0.0
C1028 C 0.20376 0.27944 0.66384 0.0
C1029 C 0.19571 0.27138 0.68014 0.0
N1030 N 0.19613 0.27256 0.58681 0.0
N1031 N 0.20373 0.27985 0.60723 0.0
C1032 C 0.18163 0.25857 0.62437 0.0
H1033 H 0.17838 0.25846 0.58346 0.0
H1034 H 0.1825 0.25233 0.62615 0.0
H1035 H 0.17692 0.25808 0.65924 0.0
C1036 C 0.19881 0.25397 0.41286 0.0
N1037 N 0.19574 0.25995 0.425 0.0
N1038 N 0.19711 0.26212 0.4789 0.0
C1039 C 0.20125 0.25768 0.50261 0.0
C1040 C 0.20242 0.25234 0.46162 0.0
C1041 C 0.19892 0.25051 0.35473 0.0
H1042 H 0.20273 0.25657 0.32603 0.0
H1043 H 0.19163 0.24634 0.33909 0.0
H1044 H 0.20232 0.24616 0.35369 0.0
O1045 O 0.19943 0.2797 0.38062 0.0
O1046 O 0.20155 0.28323 0.47161 0.0
H1047 H 0.20866 0.26608 0.57387 0.0
H1048 H 0.20776 0.25469 0.57309 0.0
C1049 C 0.20408 0.25859 0.56326 0.0
H1050 H 0.19775 0.25578 0.59001 0.0
H1051 H 0.20891 0.28511 0.58244 0.0
O1052 O 0.19063 0.26233 0.29868 0.0
C1053 C 0.20309 0.28569 0.42007 0.0
Co1054 Co 0.73602 0.9252 0.38586 0.0
Co1055 Co 0.72976 0.92315 0.51225 0.0
C1056 C 0.73757 0.91169 0.46349 0.0
O1057 O 0.73878 0.91558 0.41545 0.0
O1058 O 0.73412 0.91394 0.50461 0.0
C1059 C 0.74061 0.92221 0.27514 0.0
O1060 O 0.73823 0.91393 0.2959 0.0
C1061 C 0.73137 0.92314 0.63546 0.0
C1062 C 0.72065 0.92664 0.66232 0.0
C1063 C 0.72747 0.92484 0.68267 0.0
N1064 N 0.72707 0.92394 0.58944 0.0
N1065 N 0.72061 0.92594 0.6058 0.0
C1066 C 0.73967 0.92175 0.6333 0.0
H1067 H 0.74342 0.92435 0.59267 0.0
H1068 H 0.74453 0.92545 0.6687 0.0
H1069 H 0.73723 0.91417 0.63669 0.0
C1070 C 0.74755 0.94505 0.4206 0.0
N1071 N 0.74144 0.93599 0.43196 0.0
N1072 N 0.73891 0.93516 0.48521 0.0
C1073 C 0.74338 0.94368 0.50956 0.0
C1074 C 0.74897 0.95024 0.46944 0.0
C1075 C 0.75135 0.94864 0.36302 0.0
H1076 H 0.74549 0.94597 0.33237 0.0
H1077 H 0.75602 0.94593 0.3502 0.0
H1078 H 0.75527 0.9564 0.3615 0.0
O1079 O 0.72231 0.91989 0.38121 0.0
O1080 O 0.71781 0.91851 0.47045 0.0
H1081 H 0.73525 0.9439 0.57916 0.0
H1082 H 0.74748 0.9528 0.58282 0.0
C1083 C 0.7425 0.94547 0.57052 0.0
H1084 H 0.74394 0.94079 0.59679 0.0
H1085 H 0.71632 0.92703 0.57826 0.0
O1086 O 0.74058 0.92836 0.30729 0.0
C1087 C 0.71591 0.91758 0.41801 0.0
Co1088 Co 0.07369 0.80932 0.37002 0.0
Co1089 Co 0.07667 0.80631 0.49752 0.0
C1090 C 0.08783 0.82505 0.43963 0.0
O1091 O 0.08353 0.82198 0.39305 0.0
O1092 O 0.08587 0.81973 0.48243 0.0
C1093 C 0.07206 0.81695 0.26306 0.0
O1094 O 0.07629 0.82508 0.28884 0.0
C1095 C 0.07588 0.80901 0.62005 0.0
C1096 C 0.07694 0.79711 0.65409 0.0
C1097 C 0.07599 0.80468 0.67014 0.0
N1098 N 0.07661 0.80414 0.57672 0.0
N1099 N 0.07726 0.79705 0.59745 0.0
C1100 C 0.07555 0.81786 0.61318 0.0
H1101 H 0.07826 0.82104 0.57136 0.0
H1102 H 0.06821 0.8163 0.61628 0.0
H1103 H 0.07968 0.82293 0.64688 0.0
C1104 C 0.05423 0.80185 0.41015 0.0
N1105 N 0.06331 0.80463 0.41935 0.0
N1106 N 0.06444 0.80307 0.47242 0.0
C1107 C 0.05604 0.79906 0.49841 0.0
C1108 C 0.04932 0.79824 0.46 0.0
C1109 C 0.05045 0.80279 0.35475 0.0
H1110 H 0.05518 0.8098 0.33667 0.0
H1111 H 0.04332 0.80182 0.35918 0.0
H1112 H 0.05021 0.79747 0.32508 0.0
O1113 O 0.07902 0.8009 0.36911 0.0
O1114 O 0.08098 0.79847 0.45876 0.0
H1115 H 0.05873 0.79202 0.56567 0.0
H1116 H 0.04685 0.78971 0.56298 0.0
C1117 C 0.05429 0.79515 0.55696 0.0
H1118 H 0.05604 0.80086 0.58761 0.0
H1119 H 0.0779 0.79215 0.57288 0.0
O1120 O 0.07002 0.80956 0.29066 0.0
C1121 C 0.08157 0.79709 0.40647 0.0
Co1122 Co 0.9314 0.52326 0.97254 0.0
Co1123 Co 0.93608 0.52649 0.84367 0.0
C1124 C 0.9285 0.50754 0.89595 0.0
O1125 O 0.92791 0.51062 0.94417 0.0
O1126 O 0.9316 0.51294 0.85328 0.0
C1127 C 0.92086 0.51713 0.08006 0.0
O1128 O 0.91325 0.51144 0.05198 0.0
C1129 C 0.93333 0.52433 0.72056 0.0
C1130 C 0.94266 0.53885 0.69188 0.0
C1131 C 0.93619 0.52999 0.67308 0.0
N1132 N 0.93785 0.52965 0.76552 0.0
N1133 N 0.94354 0.53828 0.74791 0.0
C1134 C 0.92569 0.51434 0.72427 0.0
H1135 H 0.92187 0.51307 0.76473 0.0
H1136 H 0.92071 0.51245 0.68859 0.0
H1137 H 0.92884 0.50977 0.72291 0.0
C1138 C 0.92007 0.53219 0.94312 0.0
N1139 N 0.9257 0.52874 0.92956 0.0
N1140 N 0.92739 0.52975 0.875 0.0
C1141 C 0.92268 0.53366 0.85196 0.0
C1142 C 0.91796 0.53542 0.89434 0.0
C1143 C 0.91737 0.53304 0.00209 0.0
H1144 H 0.92321 0.53461 0.03138 0.0
H1145 H 0.9112 0.5263 0.01476 0.0
H1146 H 0.91552 0.53864 0.00542 0.0
O1147 O 0.94508 0.53128 0.97032 0.0
O1148 O 0.94864 0.53388 0.87966 0.0
H1149 H 0.92905 0.54121 0.77629 0.0
H1150 H 0.91657 0.53664 0.77951 0.0
C1151 C 0.92228 0.53521 0.79009 0.0
H1152 H 0.92103 0.52889 0.76666 0.0
H1153 H 0.94774 0.54386 0.77452 0.0
O1154 O 0.92842 0.52236 0.05377 0.0
C1155 C 0.9511 0.53506 0.93126 0.0
Co1156 Co 0.4766 0.40806 0.95459 0.0
Co1157 Co 0.47329 0.41041 0.82644 0.0
C1158 C 0.49212 0.42199 0.88274 0.0
O1159 O 0.4892 0.41795 0.93018 0.0
O1160 O 0.48667 0.41974 0.84032 0.0
C1161 C 0.48449 0.40694 0.06189 0.0
O1162 O 0.49259 0.41136 0.03588 0.0
C1163 C 0.47596 0.40931 0.70413 0.0
C1164 C 0.46411 0.41038 0.66927 0.0
C1165 C 0.4717 0.40943 0.65377 0.0
N1166 N 0.47104 0.41005 0.74712 0.0
N1167 N 0.46397 0.41069 0.72591 0.0
C1168 C 0.48482 0.40901 0.71148 0.0
H1169 H 0.48782 0.41148 0.75396 0.0
H1170 H 0.48332 0.4017 0.70689 0.0
H1171 H 0.49 0.41334 0.67879 0.0
C1172 C 0.46923 0.38845 0.91732 0.0
N1173 N 0.47193 0.39747 0.90673 0.0
N1174 N 0.47028 0.39835 0.85344 0.0
C1175 C 0.46631 0.38987 0.82867 0.0
C1176 C 0.46561 0.38333 0.86815 0.0
C1177 C 0.47022 0.38491 0.97345 0.0
H1178 H 0.46501 0.3849 0.00305 0.0
H1179 H 0.47729 0.38966 0.99075 0.0
H1180 H 0.46915 0.37772 0.97037 0.0
O1181 O 0.468 0.41319 0.95449 0.0
O1182 O 0.4654 0.41472 0.86443 0.0
H1183 H 0.45912 0.39218 0.7607 0.0
H1184 H 0.45698 0.38037 0.7651 0.0
C1185 C 0.46235 0.38785 0.77023 0.0
H1186 H 0.46806 0.38957 0.73959 0.0
H1187 H 0.45907 0.41137 0.75014 0.0
O1188 O 0.47703 0.40466 0.03445 0.0
C1189 C 0.46407 0.41549 0.91657 0.0
Co1190 Co 0.59245 0.06881 0.9711 0.0
Co1191 Co 0.58997 0.063 0.84334 0.0
C1192 C 0.57886 0.07085 0.89782 0.0
O1193 O 0.58279 0.07176 0.94545 0.0
O1194 O 0.58102 0.0676 0.85529 0.0
C1195 C 0.59273 0.07716 0.07913 0.0
O1196 O 0.5873 0.07978 0.05423 0.0
C1197 C 0.59092 0.06643 0.72163 0.0
C1198 C 0.59083 0.05394 0.68721 0.0
C1199 C 0.59129 0.06226 0.67146 0.0
N1200 N 0.59028 0.06083 0.76461 0.0
N1201 N 0.59016 0.05335 0.74375 0.0
C1202 C 0.59188 0.07586 0.7297 0.0
H1203 H 0.59448 0.07853 0.77276 0.0
H1204 H 0.59671 0.08089 0.69789 0.0
H1205 H 0.58491 0.07526 0.72478 0.0
C1206 C 0.6121 0.08079 0.93337 0.0
N1207 N 0.60306 0.07446 0.92324 0.0
N1208 N 0.60212 0.07181 0.87017 0.0
C1209 C 0.61059 0.07622 0.84513 0.0
C1210 C 0.61719 0.08213 0.88414 0.0
C1211 C 0.61566 0.0856 0.98881 0.0
H1212 H 0.61066 0.08756 0.00656 0.0
H1213 H 0.62263 0.09197 0.98449 0.0
H1214 H 0.61616 0.08069 0.01868 0.0
O1215 O 0.58702 0.05501 0.97216 0.0
O1216 O 0.58525 0.05083 0.88217 0.0
H1217 H 0.61994 0.07625 0.78086 0.0
H1218 H 0.61064 0.07806 0.75592 0.0
C1219 C 0.61247 0.07416 0.78663 0.0
H1220 H 0.60814 0.06658 0.77779 0.0
H1221 H 0.58977 0.0479 0.76819 0.0
O1222 O 0.59591 0.07281 0.0508 0.0
C1223 C 0.58448 0.04874 0.93428 0.0
H1224 H 0.13909 0.43354 0.22787 0.0
H1225 H 0.1314 0.44295 0.21646 0.0
H1226 H 0.10574 0.41811 0.16976 0.0
H1227 H 0.1134 0.40872 0.18115 0.0
H1228 H 0.12194 0.44395 0.11234 0.0
H1229 H 0.09867 0.43084 0.29987 0.0
H1230 H 0.10909 0.42992 0.29312 0.0
H1231 H 0.09866 0.42201 0.25531 0.0
C1232 C 0.13179 0.43013 0.21557 0.0
C1233 C 0.12679 0.42046 0.20529 0.0
C1234 C 0.12743 0.43548 0.20892 0.0
C1235 C 0.118 0.43119 0.19268 0.0
C1236 C 0.11299 0.42151 0.18287 0.0
H1237 H 0.08363 0.45221 0.05611 0.0
H1238 H 0.09309 0.44475 0.07227 0.0
C1239 C 0.11736 0.41618 0.18912 0.0
C1240 C 0.11341 0.43684 0.18446 0.0
H1241 H 0.09586 0.44009 0.23482 0.0
C1242 C 0.11628 0.44316 0.13925 0.0
C1243 C 0.10608 0.43583 0.21998 0.0
C1244 C 0.10296 0.42934 0.27013 0.0
C1245 C 0.11182 0.44833 0.12771 0.0
C1246 C 0.1043 0.4471 0.16217 0.0
C1247 C 0.1016 0.44097 0.20829 0.0
C1248 C 0.09903 0.452 0.15069 0.0
C1249 C 0.11518 0.45509 0.07886 0.0
C1250 C 0.09924 0.45851 0.18955 0.0
C1251 C 0.09392 0.46283 0.18013 0.0
C1252 C 0.08824 0.46063 0.13203 0.0
C1253 C 0.08808 0.45415 0.093 0.0
C1254 C 0.09345 0.44988 0.10225 0.0
H1255 H 0.12224 0.45672 0.06423 0.0
H1256 H 0.11023 0.45194 0.04312 0.0
H1257 H 0.11541 0.46172 0.09062 0.0
H1258 H 0.10349 0.46021 0.22726 0.0
H1259 H 0.09421 0.46785 0.21063 0.0
H1260 H 0.5482 0.63072 0.05992 0.0
H1261 H 0.55597 0.64766 0.07605 0.0
H1262 H 0.5395 0.64298 0.22637 0.0
H1263 H 0.5316 0.62603 0.20985 0.0
H1264 H 0.54763 0.65969 0.09118 0.0
H1265 H 0.56759 0.65858 0.27731 0.0
H1266 H 0.56228 0.64914 0.22684 0.0
H1267 H 0.55516 0.65064 0.27832 0.0
C1268 C 0.54615 0.63333 0.09589 0.0
C1269 C 0.53933 0.62711 0.13377 0.0
C1270 C 0.55061 0.64298 0.10517 0.0
C1271 C 0.54836 0.64653 0.1527 0.0
C1272 C 0.5414 0.64034 0.18986 0.0
H1273 H 0.56623 0.70492 0.22882 0.0
H1274 H 0.55693 0.68789 0.21449 0.0
C1275 C 0.53691 0.6307 0.18044 0.0
C1276 C 0.55347 0.65671 0.164 0.0
H1277 H 0.56923 0.67324 0.25389 0.0
C1278 C 0.55233 0.66267 0.12682 0.0
C1279 C 0.55965 0.66054 0.21028 0.0
C1280 C 0.56133 0.65443 0.25039 0.0
C1281 C 0.55719 0.6724 0.13495 0.0
C1282 C 0.5633 0.67622 0.1815 0.0
C1283 C 0.56447 0.67026 0.21852 0.0
C1284 C 0.56882 0.68642 0.19119 0.0
C1285 C 0.55592 0.67858 0.09319 0.0
C1286 C 0.57856 0.69115 0.18373 0.0
C1287 C 0.58382 0.70081 0.19175 0.0
C1288 C 0.57944 0.70587 0.2078 0.0
C1289 C 0.56972 0.70112 0.21638 0.0
C1290 C 0.56443 0.69145 0.20798 0.0
H1291 H 0.55212 0.67468 0.05479 0.0
H1292 H 0.55187 0.68151 0.11323 0.0
H1293 H 0.56282 0.68453 0.08051 0.0
H1294 H 0.58205 0.68736 0.17104 0.0
H1295 H 0.59133 0.70436 0.18535 0.0
H1296 H 0.37349 0.90093 0.15998 0.0
H1297 H 0.35653 0.89176 0.17578 0.0
H1298 H 0.35267 0.91055 0.06716 0.0
H1299 H 0.3696 0.91956 0.05041 0.0
H1300 H 0.34573 0.8977 0.22448 0.0
H1301 H 0.33282 0.88555 0.00793 0.0
H1302 H 0.34498 0.89051 0.02698 0.0
H1303 H 0.34022 0.89801 0.012 0.0
C1304 C 0.36895 0.90295 0.13875 0.0
C1305 C 0.37274 0.91084 0.10355 0.0
C1306 C 0.3593 0.89776 0.14788 0.0
C1307 C 0.35331 0.90039 0.12201 0.0
C1308 C 0.35712 0.90824 0.08635 0.0
H1309 H 0.29575 0.88612 0.16034 0.0
H1310 H 0.31258 0.89346 0.14126 0.0
C1311 C 0.36677 0.91339 0.07691 0.0
C1312 C 0.34316 0.89529 0.1353 0.0
H1313 H 0.32141 0.88413 0.07556 0.0
C1314 C 0.34041 0.89464 0.19196 0.0
C1315 C 0.33623 0.8913 0.09283 0.0
C1316 C 0.3387 0.89129 0.0316 0.0
C1317 C 0.33093 0.89033 0.20711 0.0
C1318 C 0.32404 0.88656 0.16453 0.0
C1319 C 0.32675 0.88709 0.108 0.0
C1320 C 0.31396 0.88219 0.17771 0.0
C1321 C 0.32832 0.89003 0.26832 0.0
C1322 C 0.30922 0.87346 0.20464 0.0
C1323 C 0.29961 0.86923 0.21504 0.0
C1324 C 0.29463 0.87369 0.1986 0.0
C1325 C 0.29944 0.88251 0.17269 0.0
C1326 C 0.30902 0.8867 0.16194 0.0
H1327 H 0.3345 0.89444 0.29519 0.0
H1328 H 0.32314 0.89242 0.27324 0.0
H1329 H 0.32501 0.88271 0.28376 0.0
H1330 H 0.31293 0.86986 0.21673 0.0
H1331 H 0.29603 0.86241 0.23487 0.0
H1332 H 0.46748 0.09708 0.93276 0.0
H1333 H 0.45869 0.10534 0.92467 0.0
H1334 H 0.44125 0.08577 0.79661 0.0
H1335 H 0.44914 0.0768 0.81052 0.0
H1336 H 0.45672 0.11467 0.85049 0.0
H1337 H 0.42118 0.08501 0.8853 0.0
H1338 H 0.43139 0.08389 0.89537 0.0
H1339 H 0.42627 0.08249 0.82615 0.0
C1340 C 0.46159 0.09441 0.90406 0.0
C1341 C 0.45899 0.08627 0.87247 0.0
C1342 C 0.45664 0.0992 0.89888 0.0
C1343 C 0.44912 0.0961 0.86086 0.0
C1344 C 0.44675 0.08814 0.82786 0.0
H1345 H 0.42996 0.13403 0.74528 0.0
H1346 H 0.43827 0.1254 0.75807 0.0
C1347 C 0.45144 0.08314 0.83477 0.0
C1348 C 0.44397 0.10133 0.85449 0.0
H1349 H 0.42212 0.09846 0.8402 0.0
C1350 C 0.44914 0.11112 0.84915 0.0
C1351 C 0.43407 0.09679 0.85385 0.0
C1352 C 0.42793 0.08649 0.86618 0.0
C1353 C 0.44473 0.11646 0.84264 0.0
C1354 C 0.43485 0.11185 0.83744 0.0
C1355 C 0.42969 0.10206 0.84327 0.0
C1356 C 0.42965 0.11696 0.8276 0.0
C1357 C 0.45075 0.12699 0.84346 0.0
C1358 C 0.42163 0.11472 0.85959 0.0
C1359 C 0.41651 0.11922 0.84966 0.0
C1360 C 0.41947 0.12633 0.809 0.0
C1361 C 0.42747 0.12857 0.77683 0.0
C1362 C 0.43237 0.12378 0.7851 0.0
H1363 H 0.45728 0.12924 0.86787 0.0
H1364 H 0.45283 0.12958 0.79971 0.0
H1365 H 0.447 0.13035 0.86225 0.0
H1366 H 0.41927 0.10945 0.89233 0.0
H1367 H 0.4102 0.11709 0.87386 0.0
H1368 H 0.88085 0.29737 0.7166 0.0
H1369 H 0.8889 0.31435 0.73178 0.0
H1370 H 0.87347 0.31012 0.88609 0.0
H1371 H 0.86529 0.29315 0.87059 0.0
H1372 H 0.88097 0.32656 0.74918 0.0
H1373 H 0.90174 0.32563 0.93123 0.0
H1374 H 0.89602 0.31605 0.88198 0.0
H1375 H 0.88931 0.31782 0.93512 0.0
C1376 C 0.87909 0.30009 0.75325 0.0
C1377 C 0.87247 0.29399 0.79249 0.0
C1378 C 0.88371 0.30976 0.76201 0.0
C1379 C 0.88184 0.31345 0.81035 0.0
C1380 C 0.87509 0.30738 0.84894 0.0
H1381 H 0.89985 0.37179 0.88591 0.0
H1382 H 0.89062 0.35476 0.87148 0.0
C1383 C 0.87044 0.29772 0.84007 0.0
C1384 C 0.88709 0.32365 0.82088 0.0
H1385 H 0.90324 0.34028 0.90873 0.0
C1386 C 0.88583 0.32958 0.78409 0.0
C1387 C 0.89348 0.32752 0.86619 0.0
C1388 C 0.89531 0.32146 0.90577 0.0
C1389 C 0.89074 0.33932 0.79177 0.0
C1390 C 0.89702 0.34318 0.83749 0.0
C1391 C 0.89835 0.33726 0.874 0.0
C1392 C 0.90252 0.35339 0.84705 0.0
C1393 C 0.88931 0.34545 0.75046 0.0
C1394 C 0.91225 0.35817 0.83904 0.0
C1395 C 0.91748 0.36784 0.84712 0.0
C1396 C 0.91306 0.37284 0.86373 0.0
C1397 C 0.90336 0.36804 0.87289 0.0
C1398 C 0.89811 0.35836 0.86445 0.0
H1399 H 0.88546 0.34153 0.71224 0.0
H1400 H 0.88523 0.34831 0.77105 0.0
H1401 H 0.89615 0.35145 0.73741 0.0
H1402 H 0.91577 0.35443 0.82593 0.0
H1403 H 0.92497 0.37143 0.84038 0.0
H1404 H 0.62919 0.5532 0.84382 0.0
H1405 H 0.6462 0.56083 0.83048 0.0
H1406 H 0.64571 0.53566 0.88521 0.0
H1407 H 0.62865 0.52799 0.89838 0.0
H1408 H 0.66029 0.56315 0.91448 0.0
H1409 H 0.65899 0.54233 0.72648 0.0
H1410 H 0.64903 0.54323 0.74952 0.0
H1411 H 0.65233 0.53588 0.78708 0.0
C1412 C 0.63275 0.54932 0.85292 0.0
C1413 C 0.62769 0.54003 0.87173 0.0
C1414 C 0.64242 0.55367 0.84545 0.0
C1415 C 0.64716 0.54876 0.85628 0.0
C1416 C 0.64214 0.53951 0.876 0.0
H1417 H 0.70761 0.57253 0.87746 0.0
H1418 H 0.69068 0.56346 0.89407 0.0
C1419 C 0.63245 0.53517 0.8838 0.0
C1420 C 0.65737 0.55338 0.84686 0.0
H1421 H 0.67396 0.55333 0.76097 0.0
C1422 C 0.6633 0.56099 0.88115 0.0
C1423 C 0.66122 0.55057 0.80292 0.0
C1424 C 0.6551 0.5426 0.76398 0.0
C1425 C 0.67302 0.56587 0.87272 0.0
C1426 C 0.67688 0.56302 0.82906 0.0
C1427 C 0.67095 0.55543 0.79463 0.0
C1428 C 0.68705 0.56805 0.81762 0.0
C1429 C 0.67909 0.57416 0.90975 0.0
C1430 C 0.69055 0.57345 0.76856 0.0
C1431 C 0.7002 0.57868 0.75924 0.0
C1432 C 0.70646 0.57851 0.79865 0.0
C1433 C 0.70292 0.57286 0.84683 0.0
C1434 C 0.69328 0.56768 0.85631 0.0
H1435 H 0.6749 0.57645 0.93485 0.0
H1436 H 0.68307 0.57225 0.93939 0.0
H1437 H 0.68423 0.58015 0.8839 0.0
H1438 H 0.68583 0.57381 0.73826 0.0
H1439 H 0.70277 0.58305 0.72204 0.0
H1440 H 0.92289 0.55172 0.83962 0.0
H1441 H 0.9133 0.55903 0.82414 0.0
H1442 H 0.89099 0.53726 0.92167 0.0
H1443 H 0.9005 0.52976 0.93613 0.0
H1444 H 0.8926 0.54759 0.77583 0.0
H1445 H 0.89763 0.56489 0.98499 0.0
H1446 H 0.90632 0.56251 0.95552 0.0
H1447 H 0.89553 0.55307 0.98167 0.0
C1448 C 0.91593 0.54848 0.85757 0.0
C1449 C 0.91238 0.54014 0.88858 0.0
C1450 C 0.91049 0.55267 0.84888 0.0
C1451 C 0.90146 0.54866 0.87172 0.0
C1452 C 0.89796 0.54045 0.9039 0.0
H1453 H 0.86325 0.57075 0.87153 0.0
H1454 H 0.87064 0.56127 0.88924 0.0
C1455 C 0.9034 0.53621 0.9123 0.0
C1456 C 0.89566 0.55299 0.86044 0.0
H1457 H 0.88847 0.56725 0.91825 0.0
C1458 C 0.89163 0.55186 0.80693 0.0
C1459 C 0.89441 0.55847 0.90136 0.0
C1460 C 0.8987 0.55988 0.95921 0.0
C1461 C 0.88637 0.55613 0.79305 0.0
C1462 C 0.88536 0.56189 0.83338 0.0
C1463 C 0.88927 0.56286 0.88732 0.0
C1464 C 0.88049 0.56717 0.82022 0.0
C1465 C 0.88186 0.55433 0.73562 0.0
C1466 C 0.88356 0.57363 0.77552 0.0
C1467 C 0.87928 0.57897 0.76516 0.0
C1468 C 0.87199 0.57804 0.79986 0.0
C1469 C 0.86888 0.57156 0.8443 0.0
C1470 C 0.87309 0.56617 0.8544 0.0
H1471 H 0.88076 0.54765 0.71745 0.0
H1472 H 0.87502 0.55408 0.73746 0.0
H1473 H 0.88653 0.56005 0.70662 0.0
H1474 H 0.88941 0.57471 0.74953 0.0
H1475 H 0.88187 0.58403 0.73117 0.0
H1476 H 0.41048 0.29578 0.83116 0.0
H1477 H 0.42012 0.31272 0.84463 0.0
H1478 H 0.4415 0.31316 0.73809 0.0
H1479 H 0.43195 0.29611 0.7256 0.0
H1480 H 0.44082 0.32219 0.88653 0.0
H1481 H 0.43463 0.33391 0.67864 0.0
H1482 H 0.42625 0.32279 0.7092 0.0
H1483 H 0.437 0.32437 0.68081 0.0
C1484 C 0.41725 0.29949 0.81082 0.0
C1485 C 0.42053 0.29466 0.7778 0.0
C1486 C 0.42272 0.30914 0.81835 0.0
C1487 C 0.43149 0.31414 0.79234 0.0
C1488 C 0.43472 0.30939 0.75824 0.0
H1489 H 0.46982 0.37444 0.78684 0.0
H1490 H 0.46224 0.35754 0.76956 0.0
C1491 C 0.42926 0.29969 0.751 0.0
C1492 C 0.43734 0.3243 0.80245 0.0
H1493 H 0.44425 0.3456 0.74327 0.0
C1494 C 0.44163 0.32734 0.85523 0.0
C1495 C 0.4384 0.33092 0.76127 0.0
C1496 C 0.43382 0.32791 0.70421 0.0
C1497 C 0.44694 0.3369 0.86813 0.0
C1498 C 0.44775 0.34357 0.8276 0.0
C1499 C 0.4436 0.34049 0.77435 0.0
C1500 C 0.45266 0.35374 0.83995 0.0
C1501 C 0.45172 0.33976 0.92476 0.0
C1502 C 0.44978 0.35722 0.88512 0.0
C1503 C 0.45416 0.36684 0.89522 0.0
C1504 C 0.46138 0.37314 0.85983 0.0
C1505 C 0.46426 0.36968 0.81467 0.0
C1506 C 0.45994 0.36006 0.80481 0.0
H1507 H 0.45291 0.33422 0.94281 0.0
H1508 H 0.45856 0.34634 0.92168 0.0
H1509 H 0.4472 0.3409 0.95451 0.0
H1510 H 0.44401 0.3525 0.91183 0.0
H1511 H 0.45171 0.36937 0.92967 0.0
H1512 H 0.62596 0.09433 0.79809 0.0
H1513 H 0.64282 0.10336 0.77906 0.0
H1514 H 0.64822 0.09255 0.93117 0.0
H1515 H 0.63135 0.08336 0.94979 0.0
H1516 H 0.66011 0.11306 0.90996 0.0
H1517 H 0.65825 0.09035 0.73101 0.0
H1518 H 0.65013 0.09463 0.72953 0.0
H1519 H 0.64914 0.08658 0.78354 0.0
C1520 C 0.63076 0.0939 0.8274 0.0
C1521 C 0.62738 0.08813 0.87523 0.0
C1522 C 0.64036 0.09905 0.81654 0.0
C1523 C 0.64672 0.09853 0.85346 0.0
C1524 C 0.64339 0.09302 0.90222 0.0
H1525 H 0.70442 0.11341 0.81324 0.0
H1526 H 0.68749 0.10571 0.82962 0.0
C1527 C 0.63378 0.08782 0.91293 0.0
C1528 C 0.65684 0.10354 0.8404 0.0
H1529 H 0.67297 0.10361 0.74994 0.0
C1530 C 0.66294 0.11103 0.87491 0.0
C1531 C 0.66047 0.1008 0.79491 0.0
C1532 C 0.6542 0.09261 0.75769 0.0
C1533 C 0.67263 0.1159 0.86486 0.0
C1534 C 0.67624 0.11321 0.81904 0.0
C1535 C 0.67014 0.10569 0.78472 0.0
C1536 C 0.6864 0.11786 0.80755 0.0
C1537 C 0.67896 0.12376 0.90392 0.0
C1538 C 0.69133 0.12717 0.78884 0.0
C1539 C 0.70098 0.13155 0.77929 0.0
C1540 C 0.7058 0.12667 0.78858 0.0
C1541 C 0.70083 0.11731 0.80625 0.0
C1542 C 0.69119 0.11292 0.81547 0.0
H1543 H 0.67526 0.1239 0.94274 0.0
H1544 H 0.6851 0.1231 0.91615 0.0
H1545 H 0.68159 0.13054 0.88178 0.0
H1546 H 0.68772 0.13105 0.78186 0.0
H1547 H 0.70471 0.13878 0.76564 0.0
H1548 H 0.52873 0.89964 0.10512 0.0
H1549 H 0.53684 0.89062 0.11634 0.0
H1550 H 0.56206 0.91584 0.16421 0.0
H1551 H 0.55397 0.92483 0.15304 0.0
H1552 H 0.56382 0.90364 0.07804 0.0
H1553 H 0.54527 0.88528 0.27455 0.0
H1554 H 0.53817 0.88515 0.21658 0.0
H1555 H 0.54589 0.89599 0.25118 0.0
C1556 C 0.53601 0.90321 0.11791 0.0
C1557 C 0.54075 0.91286 0.12874 0.0
C1558 C 0.54061 0.89808 0.12449 0.0
C1559 C 0.55001 0.90257 0.14163 0.0
C1560 C 0.5548 0.91226 0.15122 0.0
H1561 H 0.58563 0.88213 0.26629 0.0
H1562 H 0.57646 0.88993 0.25165 0.0
C1563 C 0.55019 0.91736 0.14502 0.0
C1564 C 0.55488 0.8972 0.14973 0.0
H1565 H 0.55603 0.88128 0.23639 0.0
C1566 C 0.56211 0.89872 0.11246 0.0
C1567 C 0.55266 0.89087 0.19505 0.0
C1568 C 0.54512 0.88923 0.23703 0.0
C1569 C 0.56717 0.89402 0.11922 0.0
C1570 C 0.56489 0.88764 0.16428 0.0
C1571 C 0.5577 0.88615 0.20171 0.0
C1572 C 0.5701 0.88262 0.17403 0.0
C1573 C 0.57503 0.89605 0.0789 0.0
C1574 C 0.56942 0.87584 0.13568 0.0
C1575 C 0.57457 0.87132 0.14429 0.0
C1576 C 0.58047 0.87352 0.19134 0.0
C1577 C 0.58104 0.88022 0.2301 0.0
C1578 C 0.57585 0.8847 0.22164 0.0
H1579 H 0.57702 0.90239 0.05305 0.0
H1580 H 0.5813 0.89704 0.10219 0.0
H1581 H 0.5728 0.89002 0.04997 0.0
H1582 H 0.56492 0.87406 0.09906 0.0
H1583 H 0.57395 0.86611 0.11414 0.0
H1584 H 0.07761 0.62752 0.18208 0.0
H1585 H 0.08635 0.64438 0.19451 0.0
H1586 H 0.10478 0.64676 0.05835 0.0
H1587 H 0.09674 0.62969 0.05088 0.0
H1588 H 0.11468 0.65813 0.13244 0.0
H1589 H 0.08447 0.66346 0.10923 0.0
H1590 H 0.0824 0.65578 0.16744 0.0
H1591 H 0.08348 0.65223 0.09707 0.0
C1592 C 0.08364 0.6316 0.15555 0.0
C1593 C 0.08654 0.62723 0.11591 0.0
C1594 C 0.08851 0.6413 0.16173 0.0
C1595 C 0.09608 0.64694 0.12629 0.0
C1596 C 0.09892 0.6426 0.08603 0.0
H1597 H 0.11633 0.70678 0.12378 0.0
H1598 H 0.10874 0.69014 0.10276 0.0
C1599 C 0.09425 0.63284 0.08126 0.0
C1600 C 0.10122 0.65731 0.13286 0.0
H1601 H 0.09804 0.67598 0.15404 0.0
C1602 C 0.11104 0.66205 0.13624 0.0
C1603 C 0.09655 0.66253 0.13667 0.0
C1604 C 0.08616 0.65823 0.1267 0.0
C1605 C 0.11627 0.67178 0.14436 0.0
C1606 C 0.11154 0.67687 0.15287 0.0
C1607 C 0.10173 0.67214 0.14855 0.0
C1608 C 0.11655 0.68712 0.16464 0.0
C1609 C 0.12681 0.67646 0.14191 0.0
C1610 C 0.12347 0.69109 0.20665 0.0
C1611 C 0.1282 0.70074 0.21651 0.0
C1612 C 0.12581 0.70657 0.18631 0.0
C1613 C 0.11857 0.70253 0.14642 0.0
C1614 C 0.11411 0.69297 0.13498 0.0
H1615 H 0.12908 0.67238 0.11556 0.0
H1616 H 0.12999 0.68364 0.1244 0.0
H1617 H 0.12958 0.67683 0.18503 0.0
H1618 H 0.12524 0.68674 0.23196 0.0
H1619 H 0.13375 0.70364 0.24754 0.0
H1620 H 0.37102 0.44659 0.15327 0.0
H1621 H 0.35399 0.43905 0.16528 0.0
H1622 H 0.35507 0.46495 0.1215 0.0
H1623 H 0.37214 0.4725 0.10942 0.0
H1624 H 0.34449 0.45517 0.22539 0.0
H1625 H 0.33437 0.43267 0.03427 0.0
H1626 H 0.34312 0.43246 0.07844 0.0
H1627 H 0.34573 0.44303 0.04214 0.0
C1628 C 0.36759 0.45064 0.14621 0.0
C1629 C 0.3728 0.46009 0.13064 0.0
C1630 C 0.3579 0.44634 0.15281 0.0
C1631 C 0.3533 0.45145 0.14392 0.0
C1632 C 0.35851 0.46091 0.12839 0.0
H1633 H 0.29299 0.42822 0.12198 0.0
H1634 H 0.30996 0.43748 0.10702 0.0
C1635 C 0.36821 0.46519 0.1214 0.0
C1636 C 0.34306 0.44692 0.15184 0.0
H1637 H 0.32225 0.42983 0.09882 0.0
C1638 C 0.33961 0.44967 0.19763 0.0
C1639 C 0.33675 0.43981 0.11519 0.0
C1640 C 0.34013 0.43683 0.06442 0.0
C1641 C 0.32997 0.4453 0.20856 0.0
C1642 C 0.32367 0.43798 0.17288 0.0
C1643 C 0.32712 0.43541 0.12626 0.0
C1644 C 0.31347 0.4328 0.18358 0.0
C1645 C 0.32657 0.44854 0.25802 0.0
C1646 C 0.30987 0.42711 0.23152 0.0
C1647 C 0.3002 0.42177 0.23982 0.0
C1648 C 0.29401 0.42205 0.2003 0.0
C1649 C 0.29763 0.42785 0.15281 0.0
C1650 C 0.3073 0.43314 0.14434 0.0
H1651 H 0.33201 0.45553 0.27331 0.0
H1652 H 0.3202 0.44885 0.24664 0.0
H1653 H 0.32473 0.44348 0.29318 0.0
H1654 H 0.31452 0.42663 0.26177 0.0
H1655 H 0.29757 0.41724 0.27634 0.0
H1656 H 0.74301 0.781 0.50801 0.0
H1657 H 0.75235 0.77337 0.51979 0.0
H1658 H 0.7745 0.79507 0.42071 0.0
H1659 H 0.76525 0.80292 0.41054 0.0
H1660 H 0.75948 0.76641 0.44122 0.0
H1661 H 0.78818 0.79509 0.56395 0.0
H1662 H 0.77717 0.79461 0.55102 0.0
H1663 H 0.78591 0.79854 0.49665 0.0
C1664 C 0.7499 0.78417 0.48913 0.0
C1665 C 0.75349 0.79261 0.45916 0.0
C1666 C 0.75521 0.77979 0.49561 0.0
C1667 C 0.76419 0.78375 0.47209 0.0
C1668 C 0.76767 0.79201 0.44032 0.0
H1669 H 0.80444 0.76411 0.47493 0.0
H1670 H 0.79635 0.77301 0.45847 0.0
C1671 C 0.76235 0.79643 0.43401 0.0
C1672 C 0.76984 0.77914 0.48099 0.0
H1673 H 0.79004 0.78217 0.5405 0.0
C1674 C 0.76616 0.76985 0.4629 0.0
C1675 C 0.77856 0.78366 0.50936 0.0
C1676 C 0.78268 0.79349 0.53186 0.0
C1677 C 0.77095 0.76496 0.47237 0.0
C1678 C 0.77961 0.76944 0.50122 0.0
C1679 C 0.78338 0.77877 0.51852 0.0
C1680 C 0.78478 0.76448 0.51408 0.0
C1681 C 0.76677 0.75505 0.45112 0.0
C1682 C 0.78104 0.75692 0.55183 0.0
C1683 C 0.78566 0.75189 0.56141 0.0
C1684 C 0.79407 0.75437 0.53339 0.0
C1685 C 0.79795 0.76211 0.49695 0.0
C1686 C 0.79335 0.76717 0.48757 0.0
H1687 H 0.76118 0.75333 0.41947 0.0
H1688 H 0.77224 0.75388 0.43189 0.0
H1689 H 0.76366 0.75013 0.48705 0.0
H1690 H 0.77448 0.75482 0.57313 0.0
H1691 H 0.78254 0.7459 0.58936 0.0
H1692 H 0.19812 0.95886 0.54257 0.0
H1693 H 0.2058 0.97574 0.56045 0.0
H1694 H 0.22193 0.98101 0.40803 0.0
H1695 H 0.2144 0.96412 0.39062 0.0
H1696 H 0.22585 0.98812 0.57144 0.0
H1697 H 0.2102 0.99835 0.39747 0.0
H1698 H 0.20504 0.98646 0.42297 0.0
H1699 H 0.21506 0.99114 0.37738 0.0
C1700 C 0.20329 0.96364 0.5129 0.0
C1701 C 0.20565 0.96022 0.46513 0.0
C1702 C 0.20764 0.97325 0.52303 0.0
C1703 C 0.21435 0.9796 0.48523 0.0
C1704 C 0.21665 0.97621 0.43716 0.0
H1705 H 0.25747 0.03724 0.52476 0.0
H1706 H 0.24824 0.02023 0.51083 0.0
C1707 C 0.21234 0.96659 0.4272 0.0
C1708 C 0.21925 0.98975 0.49741 0.0
H1709 H 0.22273 0.01068 0.44794 0.0
C1710 C 0.22514 0.99306 0.54466 0.0
C1711 C 0.21823 0.99613 0.46258 0.0
C1712 C 0.21174 0.99287 0.41246 0.0
C1713 C 0.23023 0.00265 0.55724 0.0
C1714 C 0.22942 0.00905 0.52148 0.0
C1715 C 0.22336 0.00573 0.47503 0.0
C1716 C 0.23499 0.01926 0.531 0.0
C1717 C 0.23644 0.00587 0.60867 0.0
C1718 C 0.23056 0.02431 0.54651 0.0
C1719 C 0.23582 0.03399 0.55458 0.0
C1720 C 0.24555 0.03874 0.54644 0.0
C1721 C 0.24997 0.03369 0.531 0.0
C1722 C 0.24472 0.02401 0.52332 0.0
H1723 H 0.23481 1e-05 0.63803 0.0
H1724 H 0.24385 0.00898 0.59532 0.0
H1725 H 0.23571 0.01134 0.63162 0.0
H1726 H 0.22305 0.02075 0.55245 0.0
H1727 H 0.23231 0.0378 0.56641 0.0
H1728 H 0.96184 0.21835 0.49939 0.0
H1729 H 0.97881 0.22598 0.48755 0.0
H1730 H 0.97939 0.20476 0.59105 0.0
H1731 H 0.96229 0.19688 0.60101 0.0
H1732 H 0.99278 0.23343 0.56505 0.0
H1733 H 0.99333 0.20427 0.45127 0.0
H1734 H 0.98269 0.2046 0.46277 0.0
H1735 H 0.98764 0.20111 0.51872 0.0
C1736 C 0.96559 0.21526 0.5191 0.0
C1737 C 0.96078 0.20696 0.55036 0.0
C1738 C 0.97528 0.21965 0.51263 0.0
C1739 C 0.98034 0.21584 0.5375 0.0
C1740 C 0.97559 0.2077 0.57036 0.0
H1741 H 0.04068 0.23771 0.54579 0.0
H1742 H 0.02375 0.22874 0.56397 0.0
C1743 C 0.96586 0.20327 0.57656 0.0
C1744 C 0.99061 0.2205 0.52911 0.0
H1745 H 0.00802 0.21739 0.47421 0.0
C1746 C 0.9961 0.22991 0.54524 0.0
C1747 C 0.99494 0.21591 0.50307 0.0
C1748 C 0.98935 0.20594 0.48245 0.0
C1749 C 0.0058 0.23486 0.53593 0.0
C1750 C 0.01008 0.23027 0.50973 0.0
C1751 C 0.00466 0.22084 0.49437 0.0
C1752 C 0.02019 0.23529 0.49694 0.0
C1753 C 0.01142 0.24495 0.55407 0.0
C1754 C 0.02371 0.2418 0.4527 0.0
C1755 C 0.03332 0.24687 0.44213 0.0
C1756 C 0.03954 0.24551 0.47585 0.0
C1757 C 0.03599 0.23887 0.51943 0.0
C1758 C 0.02636 0.23375 0.52974 0.0
H1759 H 0.00731 0.24707 0.58122 0.0
H1760 H 0.01778 0.24618 0.57736 0.0
H1761 H 0.01375 0.24951 0.51617 0.0
H1762 H 0.01902 0.24304 0.4269 0.0
H1763 H 0.03593 0.25201 0.4086 0.0
H1764 H 0.23878 0.19864 0.46086 0.0
H1765 H 0.23005 0.20686 0.44413 0.0
H1766 H 0.24122 0.22251 0.59778 0.0
H1767 H 0.25013 0.21447 0.61402 0.0
H1768 H 0.22065 0.21398 0.57817 0.0
H1769 H 0.24313 0.23555 0.40047 0.0
H1770 H 0.23884 0.22316 0.39717 0.0
H1771 H 0.24699 0.23004 0.45125 0.0
C1772 C 0.23938 0.20385 0.49092 0.0
C1773 C 0.24512 0.20594 0.53868 0.0
C1774 C 0.23439 0.20852 0.48138 0.0
C1775 C 0.23506 0.21532 0.51955 0.0
C1776 C 0.24062 0.21727 0.56792 0.0
H1777 H 0.22033 0.25848 0.49418 0.0
H1778 H 0.22801 0.24913 0.50722 0.0
C1779 C 0.24566 0.21265 0.57729 0.0
C1780 C 0.23008 0.22052 0.50863 0.0
H1781 H 0.23002 0.23709 0.42276 0.0
C1782 C 0.22265 0.21901 0.54412 0.0
C1783 C 0.2328 0.22712 0.46442 0.0
C1784 C 0.24092 0.22915 0.42621 0.0
C1785 C 0.21783 0.22392 0.53633 0.0
C1786 C 0.22051 0.23047 0.49186 0.0
C1787 C 0.22796 0.23201 0.45654 0.0
C1788 C 0.21587 0.23606 0.48271 0.0
C1789 C 0.21003 0.22224 0.57632 0.0
C1790 C 0.20657 0.23179 0.46386 0.0
C1791 C 0.20221 0.23712 0.45627 0.0
C1792 C 0.20709 0.24675 0.46773 0.0
C1793 C 0.21643 0.25103 0.48567 0.0
C1794 C 0.22081 0.24572 0.49293 0.0
H1795 H 0.20987 0.21815 0.61394 0.0
H1796 H 0.21076 0.22899 0.59051 0.0
H1797 H 0.20322 0.21828 0.55416 0.0
H1798 H 0.2027 0.22435 0.45514 0.0
H1799 H 0.195 0.23372 0.44221 0.0
H1800 H 0.76745 0.96161 0.44463 0.0
H1801 H 0.77692 0.97859 0.46036 0.0
H1802 H 0.75264 0.97878 0.52607 0.0
H1803 H 0.74319 0.96188 0.5101 0.0
H1804 H 0.77425 0.99309 0.41735 0.0
H1805 H 0.77246 0.99165 0.65085 0.0
H1806 H 0.76954 0.98151 0.60789 0.0
H1807 H 0.76123 0.98544 0.61707 0.0
C1808 C 0.76417 0.96532 0.46217 0.0
C1809 C 0.75464 0.96049 0.47668 0.0
C1810 C 0.76957 0.97497 0.47132 0.0
C1811 C 0.76551 0.97989 0.49543 0.0
C1812 C 0.75595 0.97508 0.5087 0.0
H1813 H 0.78189 0.038 0.49346 0.0
H1814 H 0.77466 0.02105 0.48102 0.0
C1815 C 0.75056 0.96546 0.49943 0.0
C1816 C 0.7712 0.99009 0.50561 0.0
H1817 H 0.77798 0.00667 0.60878 0.0
C1818 C 0.77515 0.99607 0.45922 0.0
C1819 C 0.77246 0.99393 0.56039 0.0
C1820 C 0.76878 0.9878 0.61202 0.0
C1821 C 0.78002 0.00582 0.46594 0.0
C1822 C 0.78085 0.00967 0.52038 0.0
C1823 C 0.77724 0.00369 0.56704 0.0
C1824 C 0.78516 0.01988 0.52931 0.0
C1825 C 0.7842 0.01194 0.4147 0.0
C1826 C 0.79328 0.02477 0.56215 0.0
C1827 C 0.79742 0.03446 0.56923 0.0
C1828 C 0.79346 0.03935 0.54379 0.0
C1829 C 0.78517 0.03439 0.51254 0.0
C1830 C 0.78105 0.02474 0.50536 0.0
H1831 H 0.78516 0.00806 0.37949 0.0
H1832 H 0.77943 0.01442 0.40001 0.0
H1833 H 0.79107 0.01817 0.42481 0.0
H1834 H 0.79649 0.02111 0.58136 0.0
H1835 H 0.80381 0.03815 0.59351 0.0
H1836 H 0.96196 0.74336 0.49987 0.0
H1837 H 0.97896 0.75295 0.48844 0.0
H1838 H 0.97901 0.77475 0.58893 0.0
H1839 H 0.96191 0.76524 0.59942 0.0
H1840 H 0.98836 0.77438 0.44542 0.0
H1841 H 0.99976 0.76719 0.65162 0.0
H1842 H 0.98893 0.75865 0.61878 0.0
H1843 H 0.98988 0.76907 0.64854 0.0
C1844 C 0.9656 0.75021 0.51938 0.0
C1845 C 0.96065 0.75362 0.55 0.0
C1846 C 0.97528 0.75564 0.51303 0.0
C1847 C 0.98018 0.76453 0.5378 0.0
C1848 C 0.97531 0.76788 0.56969 0.0
H1849 H 0.04067 0.80228 0.54388 0.0
H1850 H 0.02381 0.79479 0.56252 0.0
C1851 C 0.96559 0.76245 0.5758 0.0
C1852 C 0.99035 0.77037 0.52831 0.0
H1853 H 0.01155 0.77661 0.58684 0.0
C1854 C 0.99346 0.77494 0.47635 0.0
C1855 C 0.9969 0.7711 0.56903 0.0
C1856 C 0.99378 0.76625 0.62527 0.0
C1857 C 0.00304 0.78017 0.46371 0.0
C1858 C 0.00963 0.78062 0.50363 0.0
C1859 C 0.00649 0.77622 0.5562 0.0
C1860 C 0.0198 0.78539 0.49112 0.0
C1861 C 0.006 0.78523 0.40796 0.0
C1862 C 0.02314 0.78255 0.44508 0.0
C1863 C 0.03273 0.78685 0.4343 0.0
C1864 C 0.03915 0.79398 0.46978 0.0
C1865 C 0.03583 0.79679 0.51597 0.0
C1866 C 0.02623 0.79253 0.52659 0.0
H1867 H 0.00054 0.78661 0.3907 0.0
H1868 H 0.01264 0.79199 0.41202 0.0
H1869 H 0.00708 0.7808 0.37708 0.0
H1870 H 0.01833 0.77688 0.41807 0.0
H1871 H 0.03515 0.78445 0.39905 0.0
H1872 H 0.08913 0.30011 0.48644 0.0
H1873 H 0.09655 0.31657 0.45891 0.0
H1874 H 0.09236 0.30857 0.28369 0.0
H1875 H 0.08487 0.29209 0.3106 0.0
H1876 H 0.11268 0.32619 0.39169 0.0
H1877 H 0.08234 0.32685 0.29539 0.0
H1878 H 0.08103 0.3175 0.34097 0.0
H1879 H 0.08442 0.31787 0.26862 0.0
C1880 C 0.0897 0.30183 0.44202 0.0
C1881 C 0.08639 0.29476 0.40074 0.0
C1882 C 0.09395 0.31124 0.42641 0.0
C1883 C 0.0949 0.31377 0.36932 0.0
C1884 C 0.09154 0.30675 0.32801 0.0
H1885 H 0.1222 0.3662 0.18562 0.0
H1886 H 0.11333 0.34978 0.21455 0.0
C1887 C 0.0873 0.29733 0.34353 0.0
C1888 C 0.09986 0.32377 0.35292 0.0
H1889 H 0.09728 0.34037 0.28223 0.0
C1890 C 0.1093 0.32932 0.3681 0.0
C1891 C 0.09544 0.32779 0.32186 0.0
C1892 C 0.08523 0.32223 0.3061 0.0
C1893 C 0.11451 0.33875 0.35215 0.0
C1894 C 0.11009 0.34279 0.32115 0.0
C1895 C 0.10064 0.33725 0.30601 0.0
C1896 C 0.11518 0.35275 0.30392 0.0
C1897 C 0.12475 0.34425 0.3674 0.0
C1898 C 0.119 0.35986 0.34463 0.0
C1899 C 0.1241 0.36925 0.32832 0.0
C1900 C 0.12542 0.37171 0.27088 0.0
C1901 C 0.12136 0.36456 0.23019 0.0
C1902 C 0.11627 0.35517 0.24661 0.0
H1903 H 0.1276 0.33959 0.37786 0.0
H1904 H 0.12894 0.34895 0.33236 0.0
H1905 H 0.12565 0.34864 0.40492 0.0
H1906 H 0.11807 0.35815 0.38911 0.0
H1907 H 0.12706 0.37456 0.36082 0.0
H1908 H 0.63363 0.75564 0.20058 0.0
H1909 H 0.64988 0.76293 0.23222 0.0
H1910 H 0.64071 0.75871 0.40537 0.0
H1911 H 0.62444 0.75153 0.37429 0.0
H1912 H 0.65498 0.77665 0.38407 0.0
H1913 H 0.6639 0.75074 0.29948 0.0
H1914 H 0.65914 0.75511 0.24751 0.0
H1915 H 0.65198 0.74832 0.30573 0.0
C1916 C 0.63505 0.75619 0.24541 0.0
C1917 C 0.62771 0.75298 0.28487 0.0
C1918 C 0.64434 0.76031 0.26342 0.0
C1919 C 0.64649 0.76123 0.32115 0.0
C1920 C 0.6392 0.75801 0.36062 0.0
H1921 H 0.70002 0.78878 0.50174 0.0
H1922 H 0.68333 0.77956 0.47891 0.0
C1923 C 0.6299 0.75391 0.34271 0.0
C1924 C 0.65636 0.76596 0.34034 0.0
H1925 H 0.67666 0.76529 0.33077 0.0
C1926 C 0.65971 0.77412 0.37294 0.0
C1927 C 0.66249 0.76263 0.32576 0.0
C1928 C 0.65919 0.75367 0.29315 0.0
C1929 C 0.66911 0.77921 0.38983 0.0
C1930 C 0.67528 0.77598 0.37435 0.0
C1931 C 0.6719 0.76774 0.34251 0.0
C1932 C 0.68536 0.78127 0.38866 0.0
C1933 C 0.67244 0.78818 0.42243 0.0
C1934 C 0.69202 0.78508 0.34544 0.0
C1935 C 0.70154 0.79032 0.35824 0.0
C1936 C 0.7046 0.79181 0.41464 0.0
C1937 C 0.69791 0.78781 0.4579 0.0
C1938 C 0.68837 0.78258 0.44498 0.0
H1939 H 0.66733 0.7907 0.42072 0.0
H1940 H 0.67344 0.78698 0.46727 0.0
H1941 H 0.67926 0.79377 0.40588 0.0
H1942 H 0.68984 0.78411 0.30171 0.0
H1943 H 0.70649 0.79325 0.3238 0.0
H1944 H 0.2116 0.91136 0.47707 0.0
H1945 H 0.22083 0.90411 0.44995 0.0
H1946 H 0.21655 0.90768 0.27448 0.0
H1947 H 0.20741 0.91503 0.30098 0.0
H1948 H 0.21446 0.88786 0.38535 0.0
H1949 H 0.24486 0.91802 0.28326 0.0
H1950 H 0.23684 0.91939 0.32868 0.0
H1951 H 0.23367 0.91562 0.25696 0.0
C1952 C 0.21269 0.9107 0.43268 0.0
C1953 C 0.20876 0.91379 0.39122 0.0
C1954 C 0.21797 0.90655 0.41729 0.0
C1955 C 0.21947 0.90547 0.36025 0.0
C1956 C 0.21563 0.90862 0.31876 0.0
H1957 H 0.24464 0.87752 0.18216 0.0
H1958 H 0.23696 0.8864 0.20827 0.0
C1959 C 0.21036 0.91277 0.33405 0.0
C1960 C 0.22458 0.90056 0.34418 0.0
H1961 H 0.24368 0.90314 0.27241 0.0
C1962 C 0.22088 0.89122 0.36098 0.0
C1963 C 0.23292 0.90495 0.31204 0.0
C1964 C 0.23737 0.91507 0.29453 0.0
C1965 C 0.22522 0.88608 0.34582 0.0
C1966 C 0.23358 0.89047 0.31387 0.0
C1967 C 0.23727 0.89981 0.29691 0.0
C1968 C 0.2386 0.88546 0.29807 0.0
C1969 C 0.22072 0.87593 0.36311 0.0
C1970 C 0.24224 0.88217 0.3399 0.0
C1971 C 0.24662 0.87709 0.32523 0.0
C1972 C 0.24748 0.87523 0.26831 0.0
C1973 C 0.24406 0.87878 0.22638 0.0
C1974 C 0.23968 0.88387 0.24118 0.0
H1975 H 0.21323 0.87302 0.37449 0.0
H1976 H 0.2212 0.87162 0.32877 0.0
H1977 H 0.22441 0.87533 0.40054 0.0
H1978 H 0.24165 0.88349 0.38401 0.0
H1979 H 0.24923 0.87454 0.35864 0.0
H1980 H 0.29143 0.08526 0.70513 0.0
H1981 H 0.30793 0.0931 0.73192 0.0
H1982 H 0.31582 0.09581 0.55672 0.0
H1983 H 0.29933 0.08808 0.52925 0.0
H1984 H 0.32188 0.08852 0.70933 0.0
H1985 H 0.3305 0.12277 0.61578 0.0
H1986 H 0.31861 0.1135 0.62699 0.0
H1987 H 0.32517 0.11308 0.56769 0.0
C1988 C 0.29666 0.0875 0.67216 0.0
C1989 C 0.29404 0.08611 0.61494 0.0
C1990 C 0.30609 0.09197 0.68764 0.0
C1991 C 0.31309 0.09517 0.6463 0.0
C1992 C 0.31052 0.09356 0.58924 0.0
H1993 H 0.37345 0.12587 0.65021 0.0
H1994 H 0.3569 0.11667 0.62613 0.0
C1995 C 0.30109 0.0891 0.57365 0.0
C1996 C 0.32307 0.10029 0.66302 0.0
H1997 H 0.34318 0.12136 0.65059 0.0
C1998 C 0.32655 0.09571 0.69669 0.0
C1999 C 0.32911 0.10968 0.64663 0.0
C2000 C 0.32566 0.11509 0.61271 0.0
C2001 C 0.33598 0.10021 0.71339 0.0
C2002 C 0.34202 0.10958 0.69664 0.0
C2003 C 0.33853 0.11416 0.66323 0.0
C2004 C 0.35205 0.11475 0.71239 0.0
C2005 C 0.33944 0.09486 0.74769 0.0
C2006 C 0.35481 0.11673 0.76903 0.0
C2007 C 0.36431 0.12201 0.78311 0.0
C2008 C 0.37119 0.12544 0.74069 0.0
C2009 C 0.36836 0.12336 0.68404 0.0
C2010 C 0.3589 0.11809 0.67009 0.0
H2011 H 0.33455 0.08718 0.74569 0.0
H2012 H 0.34644 0.09635 0.73287 0.0
H2013 H 0.3401 0.09705 0.79244 0.0
H2014 H 0.34962 0.11435 0.80226 0.0
H2015 H 0.36624 0.12351 0.8271 0.0
H2016 H 0.91407 0.20722 0.68845 0.0
H2017 H 0.90641 0.21617 0.71131 0.0
H2018 H 0.90258 0.21921 0.53439 0.0
H2019 H 0.91038 0.21031 0.51074 0.0
H2020 H 0.90899 0.2359 0.59845 0.0
H2021 H 0.87813 0.20583 0.69736 0.0
H2022 H 0.88913 0.20799 0.72564 0.0
H2023 H 0.88627 0.20441 0.65335 0.0
C2024 C 0.91162 0.20978 0.6542 0.0
C2025 C 0.91277 0.20796 0.59768 0.0
C2026 C 0.90721 0.21487 0.66745 0.0
C2027 C 0.90378 0.21819 0.62459 0.0
C2028 C 0.90513 0.21664 0.56807 0.0
H2029 H 0.87307 0.24839 0.63092 0.0
H2030 H 0.88194 0.24086 0.6024 0.0
C2031 C 0.90958 0.21154 0.55468 0.0
C2032 C 0.89873 0.22322 0.63919 0.0
H2033 H 0.87968 0.22081 0.71061 0.0
C2034 C 0.90255 0.2326 0.62262 0.0
C2035 C 0.89033 0.21888 0.67071 0.0
C2036 C 0.88566 0.2087 0.6874 0.0
C2037 C 0.89831 0.23783 0.6381 0.0
C2038 C 0.88997 0.23351 0.67028 0.0
C2039 C 0.88611 0.22412 0.68629 0.0
C2040 C 0.88506 0.23856 0.68751 0.0
C2041 C 0.90289 0.24799 0.62114 0.0
C2042 C 0.88378 0.23968 0.74487 0.0
C2043 C 0.87867 0.24395 0.76143 0.0
C2044 C 0.87468 0.24712 0.72084 0.0
C2045 C 0.87606 0.24606 0.66335 0.0
C2046 C 0.88119 0.24181 0.64688 0.0
H2047 H 0.91032 0.25082 0.60881 0.0
H2048 H 0.89911 0.24868 0.58446 0.0
H2049 H 0.90258 0.25231 0.65604 0.0
H2050 H 0.88668 0.23717 0.77686 0.0
H2051 H 0.87774 0.24463 0.80603 0.0
H2052 H 0.78927 0.69953 0.50005 0.0
H2053 H 0.7804 0.68291 0.52489 0.0
H2054 H 0.78358 0.69013 0.70133 0.0
H2055 H 0.79254 0.7067 0.67721 0.0
H2056 H 0.78835 0.6767 0.67485 0.0
H2057 H 0.75364 0.66735 0.58508 0.0
H2058 H 0.76328 0.67293 0.53673 0.0
H2059 H 0.76272 0.67932 0.59654 0.0
C2060 C 0.78801 0.69759 0.54413 0.0
C2061 C 0.79164 0.70446 0.58661 0.0
C2062 C 0.78289 0.68809 0.55822 0.0
C2063 C 0.78124 0.6853 0.61494 0.0
C2064 C 0.78476 0.69214 0.6573 0.0
H2065 H 0.75569 0.63354 0.80436 0.0
H2066 H 0.76322 0.64981 0.77293 0.0
C2067 C 0.78988 0.70162 0.64335 0.0
C2068 C 0.7763 0.67526 0.63067 0.0
H2069 H 0.75539 0.65488 0.62082 0.0
C2070 C 0.78114 0.67193 0.66316 0.0
C2071 C 0.76691 0.66906 0.61511 0.0
C2072 C 0.76128 0.67233 0.58184 0.0
C2073 C 0.77685 0.66256 0.68036 0.0
C2074 C 0.76742 0.65638 0.6654 0.0
C2075 C 0.76261 0.65966 0.63231 0.0
C2076 C 0.76245 0.64649 0.68416 0.0
C2077 C 0.78249 0.65931 0.71373 0.0
C2078 C 0.75927 0.63923 0.64452 0.0
C2079 C 0.75493 0.62991 0.66228 0.0
C2080 C 0.75364 0.62768 0.72008 0.0
C2081 C 0.75662 0.63499 0.75957 0.0
C2082 C 0.76097 0.6443 0.74173 0.0
H2083 H 0.79013 0.66421 0.70962 0.0
H2084 H 0.78062 0.65889 0.75899 0.0
H2085 H 0.78094 0.65224 0.69984 0.0
H2086 H 0.76031 0.64079 0.59987 0.0
H2087 H 0.7527 0.62447 0.63068 0.0
H2088 H 0.8779 0.63331 0.80719 0.0
H2089 H 0.88652 0.64963 0.77642 0.0
H2090 H 0.88082 0.64078 0.60292 0.0
H2091 H 0.87223 0.62442 0.63306 0.0
H2092 H 0.89974 0.65505 0.62531 0.0
H2093 H 0.87375 0.66375 0.71212 0.0
H2094 H 0.87794 0.65847 0.76173 0.0
H2095 H 0.87118 0.65185 0.70198 0.0
C2096 C 0.87849 0.63481 0.76245 0.0
C2097 C 0.8743 0.62754 0.72263 0.0
C2098 C 0.88339 0.64415 0.74499 0.0
C2099 C 0.88417 0.6464 0.68747 0.0
C2100 C 0.88024 0.63918 0.64753 0.0
H2101 H 0.91037 0.69982 0.5066 0.0
H2102 H 0.90262 0.68314 0.52995 0.0
C2103 C 0.87533 0.62983 0.66491 0.0
C2104 C 0.88899 0.6563 0.66907 0.0
H2105 H 0.88798 0.67641 0.67842 0.0
C2106 C 0.89716 0.65972 0.63659 0.0
C2107 C 0.88556 0.66234 0.6837 0.0
C2108 C 0.87658 0.65892 0.71637 0.0
C2109 C 0.90218 0.66915 0.61979 0.0
C2110 C 0.89881 0.67522 0.63513 0.0
C2111 C 0.89056 0.67174 0.6669 0.0
C2112 C 0.90385 0.6853 0.62024 0.0
C2113 C 0.91117 0.67259 0.58728 0.0
C2114 C 0.90699 0.69202 0.66321 0.0
C2115 C 0.91133 0.70153 0.6501 0.0
C2116 C 0.91261 0.70452 0.59361 0.0
C2117 C 0.90953 0.69776 0.55052 0.0
C2118 C 0.90515 0.68823 0.56376 0.0
H2119 H 0.9139 0.66767 0.59049 0.0
H2120 H 0.90987 0.67326 0.5421 0.0
H2121 H 0.91662 0.67957 0.60265 0.0
H2122 H 0.90602 0.68991 0.70707 0.0
H2123 H 0.91361 0.70652 0.68443 0.0
H2124 H 0.29925 0.21068 0.52664 0.0
H2125 H 0.31572 0.21952 0.55427 0.0
H2126 H 0.30776 0.2149 0.7295 0.0
H2127 H 0.29126 0.20614 0.7025 0.0
H2128 H 0.32182 0.23351 0.70384 0.0
H2129 H 0.33027 0.2073 0.61787 0.0
H2130 H 0.32484 0.21133 0.56826 0.0
H2131 H 0.31841 0.20475 0.62903 0.0
C2132 C 0.30098 0.21156 0.57109 0.0
C2133 C 0.29392 0.20763 0.61233 0.0
C2134 C 0.3104 0.21658 0.58677 0.0
C2135 C 0.31295 0.21772 0.64389 0.0
C2136 C 0.30593 0.21405 0.68518 0.0
H2137 H 0.3669 0.2443 0.81791 0.0
H2138 H 0.35016 0.2365 0.79611 0.0
C2139 C 0.29651 0.20903 0.6696 0.0
C2140 C 0.32293 0.22264 0.66052 0.0
H2141 H 0.34305 0.22169 0.64886 0.0
C2142 C 0.32647 0.23092 0.69213 0.0
C2143 C 0.32895 0.2192 0.64534 0.0
C2144 C 0.32543 0.21011 0.6137 0.0
C2145 C 0.33595 0.236 0.70761 0.0
C2146 C 0.34198 0.23261 0.69178 0.0
C2147 C 0.33841 0.22428 0.66076 0.0
C2148 C 0.35209 0.23769 0.70565 0.0
C2149 C 0.33949 0.24507 0.73939 0.0
C2150 C 0.35871 0.24082 0.66205 0.0
C2151 C 0.36825 0.24521 0.67427 0.0
C2152 C 0.37139 0.24653 0.73048 0.0
C2153 C 0.36474 0.24344 0.77419 0.0
C2154 C 0.35517 0.23903 0.76184 0.0
H2155 H 0.33454 0.24778 0.73675 0.0
H2156 H 0.34036 0.2439 0.7845 0.0
H2157 H 0.3464 0.2505 0.72292 0.0
H2158 H 0.35648 0.23983 0.6184 0.0
H2159 H 0.37316 0.2475 0.63949 0.0
H2160 H 0.75573 0.12263 0.79613 0.0
H2161 H 0.76316 0.11377 0.76488 0.0
H2162 H 0.75917 0.11882 0.59153 0.0
H2163 H 0.75186 0.12781 0.62218 0.0
H2164 H 0.75612 0.09779 0.69615 0.0
H2165 H 0.78725 0.12801 0.59956 0.0
H2166 H 0.77943 0.12944 0.64642 0.0
H2167 H 0.77619 0.12613 0.57418 0.0
C2168 C 0.75642 0.12187 0.75133 0.0
C2169 C 0.75325 0.126 0.71169 0.0
C2170 C 0.76066 0.11679 0.73357 0.0
C2171 C 0.76184 0.11577 0.67594 0.0
C2172 C 0.7585 0.11969 0.63623 0.0
H2173 H 0.78941 0.08934 0.50215 0.0
H2174 H 0.78007 0.09676 0.52342 0.0
C2175 C 0.75428 0.12479 0.6539 0.0
C2176 C 0.76657 0.1106 0.65751 0.0
H2177 H 0.78585 0.11313 0.58814 0.0
C2178 C 0.76261 0.10114 0.6725 0.0
C2179 C 0.77503 0.11498 0.62649 0.0
C2180 C 0.77979 0.12522 0.61105 0.0
C2181 C 0.76688 0.09593 0.65725 0.0
C2182 C 0.77541 0.10035 0.62699 0.0
C2183 C 0.77929 0.10976 0.61117 0.0
C2184 C 0.78068 0.09548 0.61387 0.0
C2185 C 0.76221 0.08573 0.67334 0.0
C2186 C 0.78415 0.09238 0.6577 0.0
C2187 C 0.78949 0.08817 0.64579 0.0
C2188 C 0.7915 0.08701 0.5897 0.0
C2189 C 0.78797 0.0901 0.54578 0.0
C2190 C 0.78264 0.09434 0.55782 0.0
H2191 H 0.75462 0.08279 0.68184 0.0
H2192 H 0.76304 0.08153 0.63961 0.0
H2193 H 0.7655 0.08499 0.71231 0.0
H2194 H 0.78288 0.09337 0.70127 0.0
H2195 H 0.79211 0.08592 0.68071 0.0
H2196 H 0.70928 0.91473 0.30983 0.0
H2197 H 0.69301 0.90761 0.27899 0.0
H2198 H 0.68395 0.90397 0.45223 0.0
H2199 H 0.70021 0.9112 0.48366 0.0
H2200 H 0.67867 0.8897 0.30286 0.0
H2201 H 0.67006 0.91616 0.38184 0.0
H2202 H 0.68194 0.91849 0.37565 0.0
H2203 H 0.67482 0.91191 0.43451 0.0
C2204 C 0.70384 0.9125 0.34149 0.0
C2205 C 0.70606 0.91356 0.39929 0.0
C2206 C 0.69455 0.90842 0.32371 0.0
C2207 C 0.68729 0.90538 0.36327 0.0
C2208 C 0.68946 0.90645 0.42097 0.0
H2209 H 0.62695 0.87417 0.351 0.0
H2210 H 0.64345 0.88311 0.37749 0.0
C2211 C 0.69876 0.91054 0.43884 0.0
C2212 C 0.67741 0.90064 0.34414 0.0
H2213 H 0.65729 0.90173 0.34973 0.0
C2214 C 0.67401 0.89237 0.31269 0.0
C2215 C 0.67136 0.90414 0.35715 0.0
C2216 C 0.67473 0.91321 0.38869 0.0
C2217 C 0.66465 0.88736 0.29504 0.0
C2218 C 0.65857 0.8908 0.30844 0.0
C2219 C 0.66198 0.89912 0.33954 0.0
C2220 C 0.64859 0.88574 0.29175 0.0
C2221 C 0.66127 0.87827 0.26357 0.0
C2222 C 0.64601 0.88442 0.23468 0.0
C2223 C 0.63657 0.8793 0.21928 0.0
C2224 C 0.62954 0.87544 0.26076 0.0
C2225 C 0.63217 0.877 0.31792 0.0
C2226 C 0.6416 0.88212 0.33321 0.0
H2227 H 0.66618 0.87554 0.26799 0.0
H2228 H 0.65426 0.87286 0.27885 0.0
H2229 H 0.66067 0.87944 0.21808 0.0
H2230 H 0.6513 0.8873 0.20204 0.0
H2231 H 0.63481 0.87829 0.17489 0.0
H2232 H 0.12274 0.75638 0.1695 0.0
H2233 H 0.11337 0.76364 0.19364 0.0
H2234 H 0.11686 0.76013 0.37042 0.0
H2235 H 0.12608 0.75277 0.34697 0.0
H2236 H 0.0985 0.75499 0.34133 0.0
H2237 H 0.12394 0.79013 0.25714 0.0
H2238 H 0.12026 0.78068 0.20779 0.0
H2239 H 0.12696 0.78115 0.2687 0.0
C2240 C 0.12151 0.75714 0.21352 0.0
C2241 C 0.12522 0.75404 0.25627 0.0
C2242 C 0.11619 0.76133 0.22722 0.0
C2243 C 0.11455 0.76255 0.28384 0.0
C2244 C 0.11808 0.75929 0.32648 0.0
H2245 H 0.0884 0.78823 0.47288 0.0
H2246 H 0.09583 0.77935 0.44195 0.0
C2247 C 0.12337 0.75509 0.3129 0.0
C2248 C 0.10919 0.76724 0.29907 0.0
H2249 H 0.10963 0.78812 0.29164 0.0
C2250 C 0.10092 0.76223 0.33044 0.0
C2251 C 0.11238 0.77669 0.28484 0.0
C2252 C 0.12141 0.78253 0.25319 0.0
C2253 C 0.09571 0.7664 0.34772 0.0
C2254 C 0.09895 0.77588 0.33398 0.0
C2255 C 0.10716 0.78085 0.30206 0.0
C2256 C 0.09403 0.78084 0.35291 0.0
C2257 C 0.08673 0.76061 0.37991 0.0
C2258 C 0.09066 0.78472 0.31311 0.0
C2259 C 0.08646 0.78983 0.33058 0.0
C2260 C 0.08559 0.79124 0.38831 0.0
C2261 C 0.08891 0.78726 0.42813 0.0
C2262 C 0.09311 0.78213 0.41055 0.0
H2263 H 0.08398 0.753 0.37406 0.0
H2264 H 0.08807 0.76219 0.42555 0.0
H2265 H 0.08128 0.76229 0.36654 0.0
H2266 H 0.09134 0.78383 0.26843 0.0
H2267 H 0.084 0.79279 0.29869 0.0
H2268 H 0.24832 0.3757 0.36439 0.0
H2269 H 0.24126 0.35939 0.39451 0.0
H2270 H 0.2378 0.35055 0.22085 0.0
H2271 H 0.24498 0.36684 0.19018 0.0
H2272 H 0.22344 0.34502 0.37017 0.0
H2273 H 0.25002 0.33667 0.29021 0.0
H2274 H 0.25228 0.34853 0.29686 0.0
H2275 H 0.24577 0.34145 0.23766 0.0
C2276 C 0.24614 0.3703 0.33251 0.0
C2277 C 0.24724 0.37259 0.27481 0.0
C2278 C 0.2421 0.36099 0.34986 0.0
C2279 C 0.23913 0.35378 0.30996 0.0
C2280 C 0.24023 0.35602 0.25238 0.0
H2281 H 0.20786 0.29351 0.31492 0.0
H2282 H 0.2169 0.31011 0.29089 0.0
C2283 C 0.24429 0.36534 0.23494 0.0
C2284 C 0.23442 0.34388 0.32854 0.0
H2285 H 0.23551 0.32378 0.32053 0.0
C2286 C 0.22612 0.34039 0.3598 0.0
C2287 C 0.23793 0.33786 0.31482 0.0
C2288 C 0.24704 0.34132 0.2835 0.0
C2289 C 0.22109 0.33098 0.37643 0.0
C2290 C 0.22454 0.32494 0.36214 0.0
C2291 C 0.23289 0.32844 0.33137 0.0
C2292 C 0.21942 0.31489 0.37738 0.0
C2293 C 0.21197 0.32751 0.40765 0.0
C2294 C 0.218 0.31208 0.43404 0.0
C2295 C 0.21282 0.30259 0.44804 0.0
C2296 C 0.20899 0.29573 0.40552 0.0
C2297 C 0.21066 0.29859 0.34877 0.0
C2298 C 0.21584 0.30807 0.33489 0.0
H2299 H 0.20927 0.33245 0.40414 0.0
H2300 H 0.20656 0.32057 0.3914 0.0
H2301 H 0.21307 0.32671 0.45299 0.0
H2302 H 0.22085 0.31723 0.46745 0.0
H2303 H 0.21173 0.30064 0.49215 0.0
H2304 H 0.95892 0.41821 0.02287 0.0
H2305 H 0.97539 0.42564 0.04948 0.0
H2306 H 0.98337 0.43044 0.87431 0.0
H2307 H 0.96686 0.4229 0.84697 0.0
H2308 H 0.99309 0.42351 0.93841 0.0
H2309 H 0.99363 0.45394 0.04228 0.0
H2310 H 0.98465 0.44277 0.06765 0.0
H2311 H 0.98429 0.44612 0.99601 0.0
C2312 C 0.96416 0.42082 0.98985 0.0
C2313 C 0.96155 0.42002 0.93273 0.0
C2314 C 0.97358 0.42511 0.00523 0.0
C2315 C 0.98059 0.42873 0.96392 0.0
C2316 C 0.97804 0.42773 0.90683 0.0
H2317 H 0.04131 0.45936 0.97037 0.0
H2318 H 0.02485 0.45043 0.94308 0.0
C2319 C 0.96861 0.42343 0.89133 0.0
C2320 C 0.99059 0.43362 0.98045 0.0
H2321 H 0.00711 0.45247 0.0538 0.0
C2322 C 0.99618 0.42986 0.96344 0.0
C2323 C 0.99458 0.4419 0.01311 0.0
C2324 C 0.98901 0.44648 0.03046 0.0
C2325 C 0.00564 0.43409 0.97917 0.0
C2326 C 0.00962 0.44235 0.01201 0.0
C2327 C 0.00402 0.4461 0.02889 0.0
C2328 C 0.01961 0.44734 0.02858 0.0
C2329 C 0.01125 0.42958 0.96148 0.0
C2330 C 0.02212 0.44867 0.08575 0.0
C2331 C 0.03153 0.45381 0.10161 0.0
C2332 C 0.03861 0.45779 0.06049 0.0
C2333 C 0.03606 0.45637 0.00319 0.0
C2334 C 0.02665 0.45122 0.98743 0.0
H2335 H 0.00667 0.42212 0.94953 0.0
H2336 H 0.01559 0.43334 0.9243 0.0
H2337 H 0.01601 0.42997 0.9958 0.0
H2338 H 0.01678 0.44577 0.11815 0.0
H2339 H 0.03324 0.45478 0.14608 0.0
H2340 H 0.58093 0.53978 0.02672 0.0
H2341 H 0.57329 0.54874 0.05165 0.0
H2342 H 0.57086 0.55362 0.87556 0.0
H2343 H 0.5784 0.54461 0.85001 0.0
H2344 H 0.57847 0.56757 0.02459 0.0
H2345 H 0.54383 0.54187 0.93548 0.0
H2346 H 0.5529 0.53902 0.94878 0.0
H2347 H 0.55351 0.54573 0.88761 0.0
C2348 C 0.57879 0.54276 0.99321 0.0
C2349 C 0.58022 0.5414 0.9363 0.0
C2350 C 0.57444 0.54789 0.00759 0.0
C2351 C 0.57139 0.55171 0.96542 0.0
C2352 C 0.57301 0.55057 0.90869 0.0
H2353 H 0.54045 0.58152 0.97051 0.0
H2354 H 0.54961 0.5742 0.94352 0.0
C2355 C 0.57736 0.54545 0.89422 0.0
C2356 C 0.56647 0.55682 0.98083 0.0
H2357 H 0.54552 0.55614 0.96868 0.0
C2358 C 0.57126 0.56508 0.01251 0.0
C2359 C 0.55707 0.55354 0.96491 0.0
C2360 C 0.55147 0.54451 0.93273 0.0
C2361 C 0.56694 0.57023 0.02806 0.0
C2362 C 0.55752 0.56692 0.01234 0.0
C2363 C 0.55275 0.55868 0.98051 0.0
C2364 C 0.55241 0.5718 0.02912 0.0
C2365 C 0.57253 0.57925 0.06027 0.0
C2366 C 0.55093 0.57285 0.08625 0.0
C2367 C 0.54571 0.57705 0.1019 0.0
C2368 C 0.54181 0.58021 0.06064 0.0
C2369 C 0.54336 0.57918 0.00341 0.0
C2370 C 0.54859 0.57499 0.98785 0.0
H2371 H 0.58018 0.58207 0.05554 0.0
H2372 H 0.57083 0.58463 0.04593 0.0
H2373 H 0.5708 0.57793 0.10575 0.0
H2374 H 0.55365 0.57025 0.11877 0.0
H2375 H 0.54463 0.57768 0.14634 0.0
H2376 H 0.42202 0.96571 0.13647 0.0
H2377 H 0.42944 0.98228 0.11085 0.0
H2378 H 0.42716 0.97495 0.93482 0.0
H2379 H 0.41969 0.95842 0.9597 0.0
H2380 H 0.44615 0.99251 0.04923 0.0
H2381 H 0.41637 0.99258 0.94073 0.0
H2382 H 0.41487 0.98316 0.98638 0.0
H2383 H 0.41899 0.98388 0.91541 0.0
C2384 C 0.42302 0.96761 0.09228 0.0
C2385 C 0.42024 0.96072 0.05018 0.0
C2386 C 0.42726 0.97708 0.07774 0.0
C2387 C 0.42872 0.97982 0.02093 0.0
C2388 C 0.42592 0.97297 0.97886 0.0
H2389 H 0.45703 0.03331 0.84573 0.0
H2390 H 0.44825 0.01665 0.87034 0.0
C2391 C 0.4217 0.96352 0.99328 0.0
C2392 C 0.43362 0.98987 0.00559 0.0
H2393 H 0.43125 0.00633 0.93159 0.0
C2394 C 0.44288 0.99556 0.02386 0.0
C2395 C 0.42935 0.99379 0.97207 0.0
C2396 C 0.41932 0.98807 0.95284 0.0
C2397 C 0.44804 0.00504 0.00879 0.0
C2398 C 0.44376 0.00897 0.97546 0.0
C2399 C 0.43451 0.00328 0.95706 0.0
C2400 C 0.44875 0.01902 0.96029 0.0
C2401 C 0.4581 0.01071 0.02771 0.0
C2402 C 0.45174 0.02584 0.00263 0.0
C2403 C 0.45676 0.03533 0.98882 0.0
C2404 C 0.45884 0.0382 0.93224 0.0
C2405 C 0.45558 0.03134 0.8897 0.0
C2406 C 0.45056 0.02183 0.90366 0.0
H2407 H 0.46102 0.00618 0.03967 0.0
H2408 H 0.46254 0.01559 0.99406 0.0
H2409 H 0.45849 0.01492 0.06519 0.0
H2410 H 0.45023 0.02382 0.0465 0.0
H2411 H 0.45906 0.0404 0.02271 0.0
H2412 H 0.54101 0.95938 0.98072 0.0
H2413 H 0.55015 0.976 0.95777 0.0
H2414 H 0.55372 0.98284 0.13477 0.0
H2415 H 0.54449 0.9662 0.15838 0.0
H2416 H 0.54765 0.99314 0.07115 0.0
H2417 H 0.57844 0.99383 0.97183 0.0
H2418 H 0.56739 0.98513 0.94325 0.0
H2419 H 0.57022 0.98424 0.01531 0.0
C2420 C 0.54379 0.96439 0.0149 0.0
C2421 C 0.54201 0.96144 0.07145 0.0
C2422 C 0.54907 0.97389 0.00163 0.0
C2423 C 0.55272 0.98063 0.04457 0.0
C2424 C 0.55101 0.97773 0.10103 0.0
H2425 H 0.58193 0.04163 0.04127 0.0
H2426 H 0.57454 0.0252 0.06926 0.0
C2427 C 0.54573 0.96822 0.1144 0.0
C2428 C 0.55791 0.99073 0.0304 0.0
H2429 H 0.57708 0.00744 0.96024 0.0
C2430 C 0.55413 0.9963 0.04735 0.0
C2431 C 0.56633 0.9948 0.99912 0.0
C2432 C 0.5709 0.98922 0.9817 0.0
C2433 C 0.55842 0.0058 0.03262 0.0
C2434 C 0.56682 0.00985 0.00099 0.0
C2435 C 0.57064 0.0043 0.98443 0.0
C2436 C 0.57165 0.01983 0.98402 0.0
C2437 C 0.55379 0.01133 0.0496 0.0
C2438 C 0.57275 0.02226 0.92674 0.0
C2439 C 0.57703 0.03165 0.91049 0.0
C2440 C 0.58032 0.0388 0.95131 0.0
C2441 C 0.57941 0.03632 0.00869 0.0
C2442 C 0.57514 0.02693 0.02484 0.0
H2443 H 0.54633 0.0067 0.06117 0.0
H2444 H 0.55746 0.01571 0.08682 0.0
H2445 H 0.55418 0.01605 0.01501 0.0
H2446 H 0.57014 0.01688 0.89458 0.0
H2447 H 0.57764 0.0333 0.86594 0.0
H2448 H 0.96636 0.54351 0.86091 0.0
H2449 H 0.98291 0.55226 0.88811 0.0
H2450 H 0.97503 0.54829 0.06352 0.0
H2451 H 0.95856 0.53949 0.03711 0.0
H2452 H 0.99264 0.56862 0.95544 0.0
H2453 H 0.99325 0.53824 0.05163 0.0
H2454 H 0.9839 0.53694 0.00611 0.0
H2455 H 0.98425 0.54029 0.07856 0.0
C2456 C 0.96815 0.54451 0.90527 0.0
C2457 C 0.96113 0.54072 0.94678 0.0
C2458 C 0.9776 0.54951 0.92071 0.0
C2459 C 0.98018 0.55077 0.97781 0.0
C2460 C 0.97319 0.54722 0.01924 0.0
H2461 H 0.03375 0.57684 0.15413 0.0
H2462 H 0.01708 0.56945 0.13057 0.0
C2463 C 0.96377 0.54222 0.00395 0.0
C2464 C 0.99018 0.5558 0.99434 0.0
H2465 H 0.00674 0.55312 0.06472 0.0
C2466 C 0.99574 0.56523 0.97916 0.0
C2467 C 0.99418 0.55136 0.0255 0.0
C2468 C 0.98862 0.54113 0.04105 0.0
C2469 C 0.0052 0.57039 0.99489 0.0
C2470 C 0.00921 0.56594 0.02585 0.0
C2471 C 0.00363 0.55652 0.0413 0.0
C2472 C 0.01928 0.57079 0.04036 0.0
C2473 C 0.0108 0.5806 0.97895 0.0
C2474 C 0.02601 0.57391 0.99744 0.0
C2475 C 0.03551 0.57811 0.01065 0.0
C2476 C 0.03848 0.57923 0.06718 0.0
C2477 C 0.03171 0.57612 0.11021 0.0
C2478 C 0.02219 0.57189 0.09685 0.0
H2479 H 0.00619 0.58355 0.96947 0.0
H2480 H 0.01571 0.58478 0.01319 0.0
H2481 H 0.01497 0.58134 0.94061 0.0
H2482 H 0.02391 0.57296 0.95358 0.0
H2483 H 0.0405 0.58039 0.97636 0.0
H2484 H 0.45944 0.41784 0.02366 0.0
H2485 H 0.45019 0.42495 0.0524 0.0
H2486 H 0.44605 0.42935 0.87809 0.0
H2487 H 0.45519 0.42212 0.8487 0.0
H2488 H 0.45426 0.44306 0.0294 0.0
H2489 H 0.41953 0.41729 0.94255 0.0
H2490 H 0.4289 0.41473 0.95093 0.0
H2491 H 0.42889 0.4216 0.89213 0.0
C2492 C 0.4565 0.42023 0.99128 0.0
C2493 C 0.45807 0.4194 0.93379 0.0
C2494 C 0.45121 0.4243 0.00786 0.0
C2495 C 0.44734 0.42757 0.96741 0.0
C2496 C 0.44881 0.42669 0.90999 0.0
H2497 H 0.41875 0.45935 0.97582 0.0
H2498 H 0.42623 0.4503 0.95024 0.0
C2499 C 0.45409 0.42261 0.89329 0.0
C2500 C 0.44222 0.43238 0.98551 0.0
H2501 H 0.42121 0.43164 0.97615 0.0
C2502 C 0.44701 0.44053 0.01814 0.0
C2503 C 0.43278 0.42907 0.97061 0.0
C2504 C 0.42718 0.42014 0.93756 0.0
C2505 C 0.44267 0.44559 0.03526 0.0
C2506 C 0.43324 0.4423 0.02012 0.0
C2507 C 0.42843 0.43413 0.98773 0.0
C2508 C 0.42834 0.44742 0.03626 0.0
C2509 C 0.4483 0.45454 0.06804 0.0
C2510 C 0.42689 0.44865 0.09317 0.0
C2511 C 0.42263 0.45384 0.10806 0.0
C2512 C 0.4197 0.45787 0.06621 0.0
C2513 C 0.42095 0.45639 0.00919 0.0
C2514 C 0.42521 0.4512 0.99441 0.0
H2515 H 0.45595 0.45721 0.06472 0.0
H2516 H 0.44684 0.46006 0.05295 0.0
H2517 H 0.44634 0.45323 0.11322 0.0
H2518 H 0.42911 0.44563 0.12609 0.0
H2519 H 0.42172 0.45478 0.15234 0.0
H2520 H 0.16703 0.40219 0.11415 0.0
H2521 H 0.1827 0.40423 0.10409 0.0
H2522 H 0.18816 0.41155 0.27996 0.0
H2523 H 0.17259 0.40969 0.29038 0.0
H2524 H 0.20345 0.42279 0.20844 0.0
H2525 H 0.18885 0.38479 0.16779 0.0
H2526 H 0.18483 0.39061 0.12111 0.0
H2527 H 0.1818 0.38948 0.19457 0.0
C2528 C 0.17159 0.40432 0.15062 0.0
C2529 C 0.1685 0.40567 0.20326 0.0
C2530 C 0.18053 0.40545 0.1448 0.0
C2531 C 0.18651 0.40787 0.19153 0.0
C2532 C 0.18362 0.40963 0.24344 0.0
H2533 H 0.23775 0.4107 0.29106 0.0
H2534 H 0.2241 0.41262 0.2803 0.0
C2535 C 0.1747 0.40854 0.24931 0.0
C2536 C 0.1956 0.40815 0.18732 0.0
H2537 H 0.20523 0.39427 0.1664 0.0
C2538 C 0.20386 0.41658 0.19893 0.0
C2539 C 0.1961 0.40002 0.17495 0.0
C2540 C 0.18743 0.39068 0.16433 0.0
C2541 C 0.21261 0.41708 0.19878 0.0
C2542 C 0.21308 0.4089 0.18761 0.0
C2543 C 0.20485 0.40054 0.17474 0.0
C2544 C 0.22192 0.40867 0.19224 0.0
C2545 C 0.22128 0.42636 0.21046 0.0
C2546 C 0.2252 0.40575 0.14639 0.0
C2547 C 0.23298 0.40458 0.15247 0.0
C2548 C 0.23758 0.40623 0.20474 0.0
C2549 C 0.23441 0.40939 0.25018 0.0
C2550 C 0.22663 0.41056 0.24402 0.0
H2551 H 0.22012 0.43231 0.20128 0.0
H2552 H 0.22313 0.42672 0.25572 0.0
H2553 H 0.2273 0.42719 0.18506 0.0
H2554 H 0.22163 0.40421 0.10616 0.0
H2555 H 0.23524 0.40215 0.11655 0.0
H2556 H 0.59934 0.76592 0.12944 0.0
H2557 H 0.59776 0.77989 0.12412 0.0
H2558 H 0.58655 0.77471 0.29279 0.0
H2559 H 0.58818 0.76083 0.29895 0.0
H2560 H 0.58213 0.78301 0.1408 0.0
H2561 H 0.61025 0.80093 0.30042 0.0
H2562 H 0.60817 0.7904 0.26479 0.0
H2563 H 0.60074 0.78977 0.32205 0.0
C2564 C 0.59644 0.76769 0.16522 0.0
C2565 C 0.59402 0.76232 0.21496 0.0
C2566 C 0.59553 0.77566 0.16202 0.0
C2567 C 0.5922 0.7784 0.20843 0.0
C2568 C 0.58929 0.77279 0.2569 0.0
H2569 H 0.59037 0.82835 0.29532 0.0
H2570 H 0.58809 0.81257 0.29129 0.0
C2571 C 0.59021 0.76484 0.26023 0.0
C2572 C 0.59229 0.78742 0.20762 0.0
H2573 H 0.60236 0.80883 0.27106 0.0
C2574 C 0.58655 0.78868 0.16915 0.0
C2575 C 0.59811 0.79479 0.24455 0.0
C2576 C 0.60473 0.79398 0.28499 0.0
C2577 C 0.58634 0.79709 0.16748 0.0
C2578 C 0.59213 0.80443 0.20466 0.0
C2579 C 0.59788 0.80316 0.24289 0.0
C2580 C 0.5925 0.8136 0.20445 0.0
C2581 C 0.5798 0.79797 0.12679 0.0
C2582 C 0.59566 0.81939 0.15672 0.0
C2583 C 0.59696 0.82844 0.15879 0.0
C2584 C 0.59521 0.83188 0.20887 0.0
C2585 C 0.59181 0.82595 0.25611 0.0
C2586 C 0.59049 0.81691 0.25391 0.0
H2587 H 0.57414 0.79102 0.11234 0.0
H2588 H 0.57658 0.80181 0.14627 0.0
H2589 H 0.58381 0.80196 0.08919 0.0
H2590 H 0.59743 0.81704 0.11846 0.0
H2591 H 0.5996 0.83281 0.12166 0.0
H2592 H 0.23589 0.83178 0.13187 0.0
H2593 H 0.22209 0.81616 0.12904 0.0
H2594 H 0.22428 0.81328 0.30814 0.0
H2595 H 0.2382 0.82886 0.31149 0.0
H2596 H 0.21959 0.79675 0.24416 0.0
H2597 H 0.19694 0.81177 0.19247 0.0
H2598 H 0.20665 0.8152 0.14545 0.0
H2599 H 0.20877 0.81882 0.21797 0.0
C2600 C 0.23351 0.82781 0.17066 0.0
C2601 C 0.2381 0.83164 0.22206 0.0
C2602 C 0.2256 0.81889 0.16893 0.0
C2603 C 0.22208 0.81366 0.21854 0.0
C2604 C 0.22688 0.81724 0.26944 0.0
H2605 H 0.17141 0.76189 0.30426 0.0
H2606 H 0.18716 0.77556 0.30439 0.0
C2607 C 0.23482 0.82616 0.27124 0.0
C2608 C 0.21312 0.80467 0.21773 0.0
H2609 H 0.18982 0.79529 0.19063 0.0
C2610 C 0.21307 0.7964 0.23256 0.0
C2611 C 0.20463 0.80428 0.20291 0.0
C2612 C 0.20419 0.81299 0.18928 0.0
C2613 C 0.20474 0.7877 0.2317 0.0
C2614 C 0.19627 0.78732 0.21641 0.0
C2615 C 0.19634 0.7956 0.20194 0.0
C2616 C 0.18718 0.77846 0.21542 0.0
C2617 C 0.2051 0.77898 0.24604 0.0
C2618 C 0.18195 0.77557 0.16543 0.0
C2619 C 0.17293 0.76782 0.16526 0.0
C2620 C 0.16891 0.7628 0.21522 0.0
C2621 C 0.17429 0.76556 0.26497 0.0
C2622 C 0.18332 0.77334 0.26509 0.0
H2623 H 0.21232 0.78013 0.2427 0.0
H2624 H 0.20268 0.7769 0.29007 0.0
H2625 H 0.20043 0.7731 0.21792 0.0
H2626 H 0.18479 0.77945 0.1267 0.0
H2627 H 0.16902 0.76594 0.12621 0.0
H2628 H 0.40157 0.16887 0.87055 0.0
H2629 H 0.40389 0.18469 0.8689 0.0
H2630 H 0.41337 0.18797 0.69668 0.0
H2631 H 0.41099 0.17211 0.69755 0.0
H2632 H 0.41968 0.20255 0.84448 0.0
H2633 H 0.39082 0.1922 0.68987 0.0
H2634 H 0.39264 0.18374 0.7275 0.0
H2635 H 0.3999 0.18988 0.66818 0.0
C2636 C 0.40426 0.17297 0.83247 0.0
C2637 C 0.406 0.16916 0.78399 0.0
C2638 C 0.40558 0.18202 0.83166 0.0
C2639 C 0.40865 0.18743 0.78241 0.0
C2640 C 0.41083 0.18384 0.7348 0.0
H2641 H 0.41094 0.23939 0.68882 0.0
H2642 H 0.41328 0.22591 0.69261 0.0
C2643 C 0.40949 0.17478 0.73548 0.0
C2644 C 0.40909 0.19661 0.78007 0.0
H2645 H 0.39918 0.20808 0.71629 0.0
C2646 C 0.41523 0.20379 0.8164 0.0
C2647 C 0.40324 0.19817 0.74352 0.0
C2648 C 0.39621 0.19058 0.70535 0.0
C2649 C 0.41572 0.21254 0.81674 0.0
C2650 C 0.40981 0.21406 0.78044 0.0
C2651 C 0.40374 0.2069 0.74385 0.0
C2652 C 0.40952 0.2229 0.78058 0.0
C2653 C 0.42262 0.2201 0.85543 0.0
C2654 C 0.40674 0.22576 0.82903 0.0
C2655 C 0.4054 0.23348 0.8271 0.0
C2656 C 0.40674 0.23844 0.77646 0.0
C2657 C 0.40982 0.23572 0.72849 0.0
C2658 C 0.41117 0.22802 0.73053 0.0
H2659 H 0.42834 0.21879 0.86822 0.0
H2660 H 0.42574 0.22708 0.83503 0.0
H2661 H 0.41893 0.22026 0.89417 0.0
H2662 H 0.40524 0.22179 0.8678 0.0
H2663 H 0.40301 0.23535 0.86478 0.0
H2664 H 0.7646 0.16739 0.87066 0.0
H2665 H 0.7782 0.1831 0.8791 0.0
H2666 H 0.77525 0.18851 0.70467 0.0
H2667 H 0.76159 0.17291 0.69593 0.0
H2668 H 0.79437 0.18929 0.81815 0.0
H2669 H 0.77962 0.21248 0.78039 0.0
H2670 H 0.77241 0.20024 0.79775 0.0
H2671 H 0.77651 0.20375 0.72677 0.0
C2672 C 0.76674 0.17197 0.83431 0.0
C2673 C 0.76201 0.16886 0.78253 0.0
C2674 C 0.77452 0.18095 0.83925 0.0
C2675 C 0.77768 0.18701 0.79272 0.0
C2676 C 0.77282 0.18403 0.74148 0.0
H2677 H 0.82746 0.23718 0.69267 0.0
H2678 H 0.81185 0.22345 0.70182 0.0
C2679 C 0.76504 0.17507 0.73647 0.0
C2680 C 0.78656 0.19607 0.79604 0.0
H2681 H 0.79628 0.21954 0.77255 0.0
C2682 C 0.79478 0.19592 0.80899 0.0
C2683 C 0.78706 0.2047 0.78372 0.0
C2684 C 0.77842 0.20534 0.7719 0.0
C2685 C 0.80354 0.20412 0.80803 0.0
C2686 C 0.80408 0.21273 0.7947 0.0
C2687 C 0.79584 0.21292 0.78273 0.0
C2688 C 0.81318 0.22153 0.79083 0.0
C2689 C 0.8122 0.20344 0.81916 0.0
C2690 C 0.81899 0.22514 0.83824 0.0
C2691 C 0.82793 0.23296 0.83319 0.0
C2692 C 0.83121 0.23735 0.78061 0.0
C2693 C 0.82519 0.23395 0.73372 0.0
C2694 C 0.81626 0.22611 0.73885 0.0
H2695 H 0.81076 0.19612 0.81631 0.0
H2696 H 0.81784 0.20781 0.78881 0.0
H2697 H 0.8148 0.20605 0.86227 0.0
H2698 H 0.81667 0.22179 0.87897 0.0
H2699 H 0.83233 0.23545 0.87031 0.0
H2700 H 0.83307 0.59779 0.88126 0.0
H2701 H 0.81736 0.59563 0.89112 0.0
H2702 H 0.81152 0.58697 0.71731 0.0
H2703 H 0.82713 0.58899 0.70711 0.0
H2704 H 0.81088 0.60543 0.83 0.0
H2705 H 0.78785 0.56734 0.79645 0.0
H2706 H 0.80014 0.57251 0.81284 0.0
H2707 H 0.79645 0.57289 0.74201 0.0
C2708 C 0.8284 0.59528 0.84532 0.0
C2709 C 0.83139 0.59359 0.7933 0.0
C2710 C 0.81942 0.59405 0.85109 0.0
C2711 C 0.81323 0.59103 0.80517 0.0
C2712 C 0.8161 0.58911 0.75366 0.0
H2713 H 0.76284 0.58983 0.70551 0.0
H2714 H 0.77655 0.58798 0.71631 0.0
C2715 C 0.82507 0.59033 0.74781 0.0
C2716 C 0.80414 0.59078 0.80939 0.0
H2717 H 0.78064 0.57681 0.78851 0.0
C2718 C 0.80425 0.59914 0.82178 0.0
C2719 C 0.79552 0.58257 0.79835 0.0
C2720 C 0.79494 0.5733 0.78719 0.0
C2721 C 0.796 0.59963 0.82126 0.0
C2722 C 0.78739 0.59147 0.80906 0.0
C2723 C 0.78725 0.58304 0.79789 0.0
C2724 C 0.77856 0.59171 0.80466 0.0
C2725 C 0.79663 0.60896 0.83141 0.0
C2726 C 0.77499 0.59416 0.85123 0.0
C2727 C 0.76717 0.59527 0.84521 0.0
C2728 C 0.76275 0.59389 0.7925 0.0
C2729 C 0.76609 0.591 0.74663 0.0
C2730 C 0.77392 0.58991 0.7527 0.0
H2731 H 0.80393 0.61487 0.82786 0.0
H2732 H 0.79219 0.61011 0.80097 0.0
H2733 H 0.79409 0.60907 0.87455 0.0
H2734 H 0.77837 0.5954 0.89197 0.0
H2735 H 0.76473 0.59741 0.88157 0.0
H2736 H 0.90244 0.73658 0.44966 0.0
H2737 H 0.88895 0.73885 0.44032 0.0
H2738 H 0.89029 0.74492 0.61796 0.0
H2739 H 0.90384 0.7428 0.62771 0.0
H2740 H 0.87221 0.72812 0.49571 0.0
H2741 H 0.88673 0.76557 0.54875 0.0
H2742 H 0.89405 0.76071 0.53008 0.0
H2743 H 0.88939 0.75927 0.60024 0.0
C2744 C 0.89998 0.73856 0.48662 0.0
C2745 C 0.90422 0.73948 0.5395 0.0
C2746 C 0.89226 0.73985 0.48115 0.0
C2747 C 0.88869 0.74216 0.52828 0.0
C2748 C 0.89305 0.74334 0.58078 0.0
H2749 H 0.83848 0.74189 0.62325 0.0
H2750 H 0.85414 0.74388 0.61531 0.0
C2751 C 0.90077 0.74206 0.58633 0.0
C2752 C 0.87986 0.74243 0.52379 0.0
H2753 H 0.87003 0.756 0.55038 0.0
C2754 C 0.87175 0.73425 0.50687 0.0
C2755 C 0.87929 0.75043 0.53869 0.0
C2756 C 0.88784 0.75952 0.55496 0.0
C2757 C 0.863 0.73373 0.50642 0.0
C2758 C 0.86239 0.74168 0.5223 0.0
C2759 C 0.87053 0.74992 0.53817 0.0
C2760 C 0.85326 0.74136 0.52545 0.0
C2761 C 0.85443 0.72456 0.4912 0.0
C2762 C 0.84769 0.73955 0.47722 0.0
C2763 C 0.83871 0.73836 0.48159 0.0
C2764 C 0.83516 0.73901 0.53429 0.0
C2765 C 0.84096 0.74128 0.58206 0.0
C2766 C 0.84992 0.74244 0.57762 0.0
H2767 H 0.85582 0.71863 0.4924 0.0
H2768 H 0.84855 0.72299 0.52032 0.0
H2769 H 0.85219 0.72503 0.44783 0.0
H2770 H 0.85022 0.73887 0.43637 0.0
H2771 H 0.83448 0.73671 0.44385 0.0
H2772 H 0.25462 0.16059 0.64594 0.0
H2773 H 0.25269 0.14492 0.64328 0.0
H2774 H 0.26268 0.14947 0.47184 0.0
H2775 H 0.26453 0.16514 0.47363 0.0
H2776 H 0.24709 0.1312 0.4932 0.0
H2777 H 0.27579 0.14153 0.64881 0.0
H2778 H 0.26654 0.14353 0.67135 0.0
H2779 H 0.27377 0.14997 0.61256 0.0
C2780 C 0.25633 0.15825 0.60741 0.0
C2781 C 0.25985 0.16418 0.56022 0.0
C2782 C 0.25525 0.1493 0.60608 0.0
C2783 C 0.25772 0.14613 0.55775 0.0
C2784 C 0.26079 0.15183 0.50966 0.0
H2785 H 0.26386 0.09835 0.47442 0.0
H2786 H 0.26185 0.11205 0.47088 0.0
C2787 C 0.26186 0.16078 0.51085 0.0
C2788 C 0.25754 0.13707 0.5584 0.0
H2789 H 0.2675 0.12563 0.62206 0.0
C2790 C 0.25154 0.12996 0.5213 0.0
C2791 C 0.2634 0.13551 0.59498 0.0
C2792 C 0.27031 0.14306 0.63387 0.0
C2793 C 0.25113 0.12124 0.52053 0.0
C2794 C 0.25698 0.11969 0.55723 0.0
C2795 C 0.26297 0.12682 0.59426 0.0
C2796 C 0.25723 0.11084 0.55741 0.0
C2797 C 0.24435 0.11372 0.48117 0.0
C2798 C 0.25533 0.10563 0.60729 0.0
C2799 C 0.25654 0.09784 0.60965 0.0
C2800 C 0.25975 0.09514 0.56219 0.0
C2801 C 0.26138 0.10022 0.51174 0.0
C2802 C 0.26017 0.10802 0.50948 0.0
H2803 H 0.23871 0.11508 0.46731 0.0
H2804 H 0.24817 0.11355 0.44309 0.0
H2805 H 0.24112 0.10673 0.50151 0.0
H2806 H 0.2531 0.10772 0.64482 0.0
H2807 H 0.2552 0.0941 0.64916 0.0
H2808 H 0.90498 0.16104 0.63441 0.0
H2809 H 0.89137 0.14534 0.62862 0.0
H2810 H 0.8879 0.1498 0.4533 0.0
H2811 H 0.90159 0.1655 0.45835 0.0
H2812 H 0.87363 0.14215 0.60182 0.0
H2813 H 0.88452 0.12341 0.45279 0.0
H2814 H 0.89282 0.13412 0.48775 0.0
H2815 H 0.88636 0.13449 0.42781 0.0
C2816 C 0.90143 0.15865 0.59429 0.0
C2817 C 0.90436 0.16457 0.5469 0.0
C2818 C 0.89365 0.14966 0.5911 0.0
C2819 C 0.88867 0.14638 0.54045 0.0
C2820 C 0.89175 0.15213 0.49253 0.0
H2821 H 0.83435 0.09912 0.45594 0.0
H2822 H 0.85006 0.11289 0.45317 0.0
C2823 C 0.89955 0.16113 0.49563 0.0
C2824 C 0.87975 0.13735 0.53952 0.0
H2825 H 0.86838 0.11578 0.47743 0.0
C2826 C 0.87251 0.13636 0.57495 0.0
C2827 C 0.87829 0.12985 0.50396 0.0
C2828 C 0.88593 0.13045 0.46621 0.0
C2829 C 0.86379 0.12812 0.5754 0.0
C2830 C 0.86233 0.12059 0.54024 0.0
C2831 C 0.86955 0.12157 0.5045 0.0
C2832 C 0.85329 0.11168 0.54007 0.0
C2833 C 0.85613 0.12765 0.61261 0.0
C2834 C 0.85004 0.10629 0.58929 0.0
C2835 C 0.84107 0.09847 0.59118 0.0
C2836 C 0.83519 0.09584 0.54365 0.0
C2837 C 0.83867 0.10097 0.4934 0.0
C2838 C 0.84765 0.10883 0.49166 0.0
H2839 H 0.8576 0.13471 0.62587 0.0
H2840 H 0.84927 0.12407 0.59068 0.0
H2841 H 0.85557 0.1236 0.65119 0.0
H2842 H 0.85437 0.10828 0.62677 0.0
H2843 H 0.83867 0.09462 0.63038 0.0
H2844 H 0.07057 0.56862 0.20938 0.0
H2845 H 0.07271 0.55503 0.21591 0.0
H2846 H 0.0787 0.55697 0.03793 0.0
H2847 H 0.07669 0.57062 0.03095 0.0
H2848 H 0.06176 0.53852 0.15773 0.0
H2849 H 0.09921 0.55289 0.1048 0.0
H2850 H 0.09447 0.56022 0.12562 0.0
H2851 H 0.09298 0.55587 0.05464 0.0
C2852 C 0.0725 0.56627 0.17175 0.0
C2853 C 0.07341 0.57071 0.11956 0.0
C2854 C 0.07372 0.5585 0.17561 0.0
C2855 C 0.07596 0.55505 0.12755 0.0
C2856 C 0.07717 0.55963 0.07578 0.0
H2857 H 0.07545 0.50475 0.02785 0.0
H2858 H 0.07743 0.52041 0.03605 0.0
C2859 C 0.07594 0.5674 0.07183 0.0
C2860 C 0.07611 0.54616 0.13032 0.0
H2861 H 0.08952 0.53622 0.10182 0.0
C2862 C 0.06787 0.53803 0.14625 0.0
C2863 C 0.08407 0.54555 0.11491 0.0
C2864 C 0.09322 0.55411 0.09951 0.0
C2865 C 0.06725 0.52924 0.14544 0.0
C2866 C 0.07517 0.5286 0.12932 0.0
C2867 C 0.08347 0.53675 0.11421 0.0
C2868 C 0.0748 0.51946 0.12581 0.0
C2869 C 0.05802 0.52068 0.15978 0.0
C2870 C 0.07293 0.51385 0.17388 0.0
C2871 C 0.07174 0.50487 0.16936 0.0
C2872 C 0.07248 0.50137 0.11667 0.0
C2873 C 0.07479 0.5072 0.06903 0.0
C2874 C 0.07594 0.51616 0.07361 0.0
H2875 H 0.05213 0.52213 0.15835 0.0
H2876 H 0.05647 0.51485 0.13032 0.0
H2877 H 0.05839 0.51834 0.20308 0.0
H2878 H 0.07221 0.51635 0.21476 0.0
H2879 H 0.07007 0.50062 0.20703 0.0
H2880 H 0.43249 0.50066 0.20533 0.0
H2881 H 0.44621 0.51633 0.20932 0.0
H2882 H 0.44217 0.52078 0.0349 0.0
H2883 H 0.42853 0.50508 0.03011 0.0
H2884 H 0.46004 0.52428 0.05887 0.0
H2885 H 0.44924 0.54251 0.21229 0.0
H2886 H 0.44769 0.53151 0.23668 0.0
H2887 H 0.44095 0.53175 0.17784 0.0
C2888 C 0.43443 0.50501 0.16798 0.0
C2889 C 0.42942 0.50158 0.11728 0.0
C2890 C 0.44225 0.514 0.1705 0.0
C2891 C 0.44515 0.51976 0.12259 0.0
C2892 C 0.44002 0.51646 0.07243 0.0
H2893 H 0.49453 0.57214 0.03302 0.0
H2894 H 0.47894 0.55833 0.03678 0.0
C2895 C 0.43222 0.50747 0.0698 0.0
C2896 C 0.454 0.52885 0.12313 0.0
H2897 H 0.46537 0.55029 0.18676 0.0
C2898 C 0.46118 0.53 0.0865 0.0
C2899 C 0.45548 0.53626 0.1596 0.0
C2900 C 0.44791 0.53551 0.19853 0.0
C2901 C 0.46985 0.53829 0.08584 0.0
C2902 C 0.47133 0.54572 0.1221 0.0
C2903 C 0.46418 0.54459 0.15892 0.0
C2904 C 0.48033 0.55466 0.12232 0.0
C2905 C 0.47744 0.53896 0.04723 0.0
C2906 C 0.48611 0.55739 0.17009 0.0
C2907 C 0.49504 0.56533 0.16826 0.0
C2908 C 0.49831 0.57066 0.11856 0.0
C2909 C 0.49229 0.56815 0.07177 0.0
C2910 C 0.48338 0.56024 0.07373 0.0
H2911 H 0.47597 0.53196 0.03261 0.0
H2912 H 0.47789 0.54315 0.00955 0.0
H2913 H 0.48435 0.54248 0.06864 0.0
H2914 H 0.48385 0.55319 0.2081 0.0
H2915 H 0.49947 0.56709 0.20518 0.0
H2916 H 0.49528 0.92419 0.02998 0.0
H2917 H 0.47959 0.92216 0.03606 0.0
H2918 H 0.48296 0.92703 0.21528 0.0
H2919 H 0.49873 0.92921 0.20971 0.0
H2920 H 0.4635 0.90992 0.1003 0.0
H2921 H 0.47749 0.94729 0.15716 0.0
H2922 H 0.48483 0.94296 0.13007 0.0
H2923 H 0.48109 0.94094 0.20238 0.0
C2924 C 0.49268 0.92476 0.07083 0.0
C2925 C 0.49833 0.927 0.11925 0.0
C2926 C 0.48369 0.92358 0.0742 0.0
C2927 C 0.48019 0.9246 0.12593 0.0
C2928 C 0.48562 0.92639 0.17477 0.0
H2929 H 0.43084 0.92921 0.19812 0.0
H2930 H 0.44439 0.92705 0.20819 0.0
C2931 C 0.49462 0.9276 0.17148 0.0
C2932 C 0.47105 0.92425 0.12806 0.0
H2933 H 0.46111 0.93775 0.15312 0.0
C2934 C 0.46295 0.91598 0.11207 0.0
C2935 C 0.47038 0.93219 0.1434 0.0
C2936 C 0.4789 0.94138 0.1588 0.0
C2937 C 0.45417 0.91543 0.11099 0.0
C2938 C 0.45354 0.92341 0.12539 0.0
C2939 C 0.46162 0.93162 0.14235 0.0
C2940 C 0.44469 0.92363 0.12048 0.0
C2941 C 0.44566 0.9063 0.09476 0.0
C2942 C 0.44033 0.92235 0.06788 0.0
C2943 C 0.43258 0.92357 0.06191 0.0
C2944 C 0.42909 0.92618 0.10841 0.0
C2945 C 0.43334 0.92721 0.1614 0.0
C2946 C 0.44108 0.92597 0.16729 0.0
H2947 H 0.4468 0.90028 0.10145 0.0
H2948 H 0.43942 0.9051 0.11931 0.0
H2949 H 0.44415 0.9065 0.04936 0.0
H2950 H 0.44312 0.92073 0.03093 0.0
H2951 H 0.42951 0.92275 0.02046 0.0
H2952 H 0.56892 0.06996 0.80324 0.0
H2953 H 0.55536 0.07218 0.79712 0.0
H2954 H 0.55778 0.07873 0.97444 0.0
H2955 H 0.57139 0.07666 0.98097 0.0
H2956 H 0.53898 0.06159 0.8561 0.0
H2957 H 0.55381 0.0992 0.90665 0.0
H2958 H 0.56101 0.09429 0.88643 0.0
H2959 H 0.55668 0.09295 0.95736 0.0
C2960 C 0.56667 0.07201 0.84081 0.0
C2961 C 0.57124 0.07309 0.89267 0.0
C2962 C 0.55892 0.07328 0.83719 0.0
C2963 C 0.55563 0.07572 0.88516 0.0
C2964 C 0.56032 0.07705 0.93662 0.0
H2965 H 0.505 0.07568 0.97739 0.0
H2966 H 0.52068 0.07757 0.97326 0.0
C2967 C 0.56807 0.07579 0.94032 0.0
C2968 C 0.54679 0.07598 0.88261 0.0
H2969 H 0.53714 0.08973 0.90895 0.0
C2970 C 0.53859 0.06778 0.86701 0.0
C2971 C 0.5463 0.08404 0.89733 0.0
C2972 C 0.55493 0.09315 0.9124 0.0
C2973 C 0.52988 0.06732 0.86706 0.0
C2974 C 0.52937 0.07535 0.88213 0.0
C2975 C 0.53756 0.08359 0.89735 0.0
C2976 C 0.52032 0.07519 0.88341 0.0
C2977 C 0.52124 0.05815 0.85265 0.0
C2978 C 0.51506 0.07351 0.83396 0.0
C2979 C 0.5061 0.07239 0.83612 0.0
C2980 C 0.50224 0.07298 0.88783 0.0
C2981 C 0.50773 0.07513 0.93691 0.0
C2982 C 0.5167 0.07623 0.93466 0.0
H2983 H 0.52255 0.05217 0.85501 0.0
H2984 H 0.51538 0.05675 0.88146 0.0
H2985 H 0.51903 0.0585 0.80898 0.0
H2986 H 0.51781 0.07285 0.79382 0.0
H2987 H 0.50211 0.07082 0.7974 0.0
H2988 H 0.93177 0.43304 0.79713 0.0
H2989 H 0.92967 0.44671 0.79614 0.0
H2990 H 0.91974 0.44099 0.96764 0.0
H2991 H 0.92192 0.42741 0.96952 0.0
H2992 H 0.91397 0.44915 0.81795 0.0
H2993 H 0.94255 0.46759 0.97411 0.0
H2994 H 0.94067 0.45721 0.93746 0.0
H2995 H 0.9334 0.45628 0.99635 0.0
C2996 C 0.92906 0.43463 0.83454 0.0
C2997 C 0.92714 0.42919 0.88371 0.0
C2998 C 0.92785 0.44244 0.8338 0.0
C2999 C 0.92472 0.44494 0.88214 0.0
C3000 C 0.92234 0.43927 0.93026 0.0
H3001 H 0.92157 0.49396 0.97723 0.0
H3002 H 0.91948 0.47825 0.9714 0.0
C3003 C 0.92357 0.43149 0.93115 0.0
C3004 C 0.9244 0.45375 0.8833 0.0
H3005 H 0.93406 0.47504 0.94814 0.0
C3006 C 0.91835 0.45482 0.84635 0.0
C3007 C 0.93017 0.46115 0.92024 0.0
C3008 C 0.93713 0.46057 0.95897 0.0
C3009 C 0.91781 0.46306 0.8461 0.0
C3010 C 0.92356 0.47043 0.8832 0.0
C3011 C 0.9296 0.46934 0.92005 0.0
C3012 C 0.92367 0.47946 0.88399 0.0
C3013 C 0.91099 0.46375 0.80685 0.0
C3014 C 0.9266 0.48531 0.83649 0.0
C3015 C 0.9278 0.49432 0.8396 0.0
C3016 C 0.92617 0.49766 0.8905 0.0
C3017 C 0.92293 0.49164 0.93741 0.0
C3018 C 0.92172 0.48265 0.9342 0.0
H3019 H 0.90542 0.45674 0.79257 0.0
H3020 H 0.90765 0.46739 0.82749 0.0
H3021 H 0.91479 0.46784 0.76902 0.0
H3022 H 0.92832 0.48307 0.79764 0.0
H3023 H 0.93033 0.49876 0.80269 0.0
H3024 H 0.50533 0.43 0.96591 0.0
H3025 H 0.52096 0.44375 0.9581 0.0
H3026 H 0.51676 0.44529 0.77993 0.0
H3027 H 0.50108 0.43163 0.78725 0.0
H3028 H 0.53674 0.4476 0.89048 0.0
H3029 H 0.52253 0.47102 0.8398 0.0
H3030 H 0.51532 0.45935 0.86728 0.0
H3031 H 0.51865 0.46106 0.79424 0.0
C3032 C 0.50774 0.43321 0.92494 0.0
C3033 C 0.50189 0.42978 0.87734 0.0
C3034 C 0.51668 0.44106 0.92057 0.0
C3035 C 0.51993 0.44562 0.86865 0.0
C3036 C 0.51429 0.44197 0.8206 0.0
H3037 H 0.56895 0.49926 0.78679 0.0
H3038 H 0.55527 0.48358 0.77957 0.0
C3039 C 0.50534 0.43415 0.8249 0.0
C3040 C 0.52906 0.4544 0.86534 0.0
H3041 H 0.53893 0.47779 0.83916 0.0
C3042 C 0.53724 0.4542 0.87911 0.0
C3043 C 0.52967 0.46299 0.8505 0.0
C3044 C 0.52108 0.46369 0.83755 0.0
C3045 C 0.54604 0.4624 0.87828 0.0
C3046 C 0.54663 0.47101 0.86419 0.0
C3047 C 0.53846 0.47116 0.84962 0.0
C3048 C 0.55553 0.48004 0.86711 0.0
C3049 C 0.55463 0.46176 0.89209 0.0
C3050 C 0.56025 0.48323 0.91864 0.0
C3051 C 0.56806 0.49218 0.92296 0.0
C3052 C 0.57127 0.49817 0.8759 0.0
C3053 C 0.56667 0.49485 0.82391 0.0
C3054 C 0.55886 0.48589 0.81966 0.0
H3055 H 0.5534 0.45457 0.88536 0.0
H3056 H 0.5607 0.46671 0.86609 0.0
H3057 H 0.55645 0.46358 0.93711 0.0
H3058 H 0.55769 0.47892 0.95608 0.0
H3059 H 0.5714 0.4945 0.96368 0.0
H3060 H 0.7434 0.90384 0.38298 0.0
H3061 H 0.74518 0.89007 0.39252 0.0
H3062 H 0.73835 0.88833 0.56917 0.0
H3063 H 0.73639 0.90201 0.55999 0.0
H3064 H 0.75648 0.88589 0.46152 0.0
H3065 H 0.71863 0.86279 0.50768 0.0
H3066 H 0.72331 0.87453 0.48103 0.0
H3067 H 0.72466 0.87262 0.55418 0.0
C3068 C 0.74234 0.90059 0.42403 0.0
C3069 C 0.73963 0.90397 0.47058 0.0
C3070 C 0.74338 0.89272 0.42939 0.0
C3071 C 0.74173 0.88809 0.48129 0.0
C3072 C 0.73947 0.8917 0.52847 0.0
H3073 H 0.73612 0.83383 0.55918 0.0
H3074 H 0.73841 0.8496 0.56825 0.0
C3075 C 0.73839 0.89955 0.52315 0.0
C3076 C 0.74195 0.87924 0.48511 0.0
H3077 H 0.72806 0.85581 0.50864 0.0
C3078 C 0.75029 0.87931 0.47208 0.0
C3079 C 0.73384 0.87067 0.4988 0.0
C3080 C 0.72458 0.87008 0.51076 0.0
C3081 C 0.75073 0.87103 0.47225 0.0
C3082 C 0.74258 0.86245 0.48503 0.0
C3083 C 0.7343 0.86241 0.49914 0.0
C3084 C 0.74228 0.85334 0.481 0.0
C3085 C 0.75991 0.87153 0.45893 0.0
C3086 C 0.74377 0.85024 0.429 0.0
C3087 C 0.74246 0.84123 0.4236 0.0
C3088 C 0.73957 0.83511 0.47006 0.0
C3089 C 0.73835 0.83835 0.52252 0.0
C3090 C 0.73965 0.84736 0.52783 0.0
H3091 H 0.76594 0.87866 0.4663 0.0
H3092 H 0.76087 0.86645 0.48476 0.0
H3093 H 0.75997 0.86977 0.41384 0.0
H3094 H 0.74561 0.85467 0.39204 0.0
H3095 H 0.74344 0.83898 0.38255 0.0
H3096 H 0.09904 0.834 0.53047 0.0
H3097 H 0.11284 0.84964 0.53282 0.0
H3098 H 0.10811 0.85397 0.35947 0.0
H3099 H 0.09437 0.8383 0.35631 0.0
H3100 H 0.12608 0.85739 0.38076 0.0
H3101 H 0.11596 0.87587 0.53638 0.0
H3102 H 0.11439 0.86486 0.56054 0.0
H3103 H 0.10751 0.86512 0.50256 0.0
C3104 C 0.10085 0.83832 0.49302 0.0
C3105 C 0.09561 0.83486 0.44309 0.0
C3106 C 0.10871 0.84729 0.49461 0.0
C3107 C 0.11143 0.853 0.44651 0.0
C3108 C 0.10609 0.84968 0.39713 0.0
H3109 H 0.16132 0.90517 0.35585 0.0
H3110 H 0.14566 0.89143 0.35858 0.0
C3111 C 0.09823 0.84072 0.39545 0.0
C3112 C 0.12031 0.86207 0.44604 0.0
H3113 H 0.13203 0.8835 0.5095 0.0
C3114 C 0.12735 0.86313 0.40853 0.0
C3115 C 0.12197 0.86951 0.48267 0.0
C3116 C 0.11454 0.86885 0.52251 0.0
C3117 C 0.13608 0.87137 0.40734 0.0
C3118 C 0.13775 0.87881 0.44391 0.0
C3119 C 0.13071 0.87778 0.48142 0.0
C3120 C 0.14685 0.88766 0.44426 0.0
C3121 C 0.14354 0.87191 0.36801 0.0
C3122 C 0.15255 0.89031 0.49237 0.0
C3123 C 0.1615 0.8982 0.49115 0.0
C3124 C 0.1649 0.90359 0.44173 0.0
C3125 C 0.15898 0.90113 0.39443 0.0
C3126 C 0.15003 0.89326 0.39579 0.0
H3127 H 0.14195 0.86488 0.35323 0.0
H3128 H 0.14397 0.87612 0.33045 0.0
H3129 H 0.1505 0.87536 0.38886 0.0
H3130 H 0.15018 0.8861 0.5303 0.0
H3131 H 0.16584 0.89992 0.52845 0.0
H3132 H 0.16178 0.25677 0.36709 0.0
H3133 H 0.14607 0.25473 0.37069 0.0
H3134 H 0.15048 0.26392 0.54377 0.0
H3135 H 0.16618 0.26586 0.54105 0.0
H3136 H 0.13235 0.24843 0.52155 0.0
H3137 H 0.14231 0.27755 0.36969 0.0
H3138 H 0.14437 0.26844 0.34508 0.0
H3139 H 0.15085 0.27549 0.40438 0.0
C3140 C 0.1594 0.25829 0.40614 0.0
C3141 C 0.1653 0.2616 0.45358 0.0
C3142 C 0.15043 0.25714 0.40802 0.0
C3143 C 0.1472 0.25935 0.45714 0.0
C3144 C 0.15288 0.26224 0.50535 0.0
H3145 H 0.0991 0.26474 0.5449 0.0
H3146 H 0.1129 0.2629 0.54752 0.0
C3147 C 0.16185 0.26336 0.50363 0.0
C3148 C 0.13809 0.25907 0.45736 0.0
H3149 H 0.12641 0.26899 0.3964 0.0
C3150 C 0.13103 0.25292 0.49427 0.0
C3151 C 0.13643 0.26498 0.42188 0.0
C3152 C 0.1439 0.27205 0.38335 0.0
C3153 C 0.12227 0.25241 0.49588 0.0
C3154 C 0.12061 0.2583 0.46021 0.0
C3155 C 0.12768 0.26444 0.42341 0.0
C3156 C 0.11168 0.25839 0.46072 0.0
C3157 C 0.11482 0.24548 0.53497 0.0
C3158 C 0.10643 0.25648 0.41107 0.0
C3159 C 0.09858 0.25759 0.40925 0.0
C3160 C 0.09586 0.2607 0.45705 0.0
C3161 C 0.10098 0.26232 0.50733 0.0
C3162 C 0.10884 0.26121 0.50905 0.0
H3163 H 0.1163 0.23989 0.54835 0.0
H3164 H 0.11455 0.24919 0.57332 0.0
H3165 H 0.10782 0.24217 0.51458 0.0
H3166 H 0.10853 0.25433 0.37325 0.0
H3167 H 0.0948 0.25625 0.36985 0.0
H3168 H 0.12527 0.39463 0.90663 0.0
H3169 H 0.12941 0.39877 0.80747 0.0
H3170 H 0.1578 0.4057 0.84289 0.0
H3171 H 0.15365 0.40134 0.94166 0.0
H3172 H 0.14401 0.41629 0.75833 0.0
H3173 H 0.14874 0.38574 0.71546 0.0
H3174 H 0.14264 0.38639 0.77693 0.0
H3175 H 0.15519 0.393 0.77415 0.0
C3176 C 0.1324 0.39707 0.89328 0.0
C3177 C 0.13917 0.39779 0.93206 0.0
C3178 C 0.13476 0.39947 0.83679 0.0
C3179 C 0.14389 0.40251 0.81801 0.0
C3180 C 0.1507 0.40334 0.85667 0.0
H3181 H 0.16552 0.41037 0.47573 0.0
H3182 H 0.16451 0.41074 0.57839 0.0
C3183 C 0.14835 0.40096 0.91323 0.0
C3184 C 0.14618 0.40446 0.7575 0.0
H3185 H 0.1517 0.39619 0.64058 0.0
C3186 C 0.14574 0.41194 0.73249 0.0
C3187 C 0.14844 0.39877 0.72418 0.0
C3188 C 0.14873 0.39047 0.74871 0.0
C3189 C 0.1475 0.41387 0.67472 0.0
C3190 C 0.14956 0.40805 0.64111 0.0
C3191 C 0.15015 0.40067 0.66646 0.0
C3192 C 0.15065 0.4091 0.5791 0.0
C3193 C 0.14721 0.42217 0.65036 0.0
C3194 C 0.14325 0.4082 0.54542 0.0
C3195 C 0.14382 0.40803 0.48671 0.0
C3196 C 0.15176 0.40863 0.46065 0.0
C3197 C 0.15929 0.40986 0.49446 0.0
C3198 C 0.15873 0.41007 0.55314 0.0
H3199 H 0.14851 0.42748 0.68325 0.0
H3200 H 0.15247 0.42555 0.61628 0.0
H3201 H 0.14017 0.41979 0.63235 0.0
H3202 H 0.13686 0.40723 0.56451 0.0
H3203 H 0.13788 0.40704 0.46192 0.0
H3204 H 0.59166 0.75507 0.48929 0.0
H3205 H 0.59187 0.75336 0.59168 0.0
H3206 H 0.59132 0.72715 0.56998 0.0
H3207 H 0.59108 0.72875 0.46755 0.0
H3208 H 0.57934 0.7369 0.67036 0.0
H3209 H 0.61673 0.74633 0.65435 0.0
H3210 H 0.6109 0.74906 0.59942 0.0
H3211 H 0.60856 0.73728 0.60807 0.0
C3212 C 0.59142 0.74886 0.50624 0.0
C3213 C 0.59147 0.74211 0.47028 0.0
C3214 C 0.59152 0.74789 0.56471 0.0
C3215 C 0.59171 0.74019 0.58805 0.0
C3216 C 0.59123 0.73318 0.55249 0.0
H3217 H 0.60601 0.72992 0.92122 0.0
H3218 H 0.60169 0.729 0.82184 0.0
C3219 C 0.59109 0.73411 0.49404 0.0
C3220 C 0.59325 0.7399 0.64914 0.0
H3221 H 0.60993 0.74276 0.74452 0.0
C3222 C 0.586 0.73816 0.6868 0.0
C3223 C 0.60197 0.74157 0.67005 0.0
C3224 C 0.61004 0.74373 0.63112 0.0
C3225 C 0.58723 0.7379 0.74527 0.0
C3226 C 0.59599 0.73966 0.76627 0.0
C3227 C 0.60322 0.7414 0.72834 0.0
C3228 C 0.59793 0.73981 0.82737 0.0
C3229 C 0.57908 0.73558 0.78387 0.0
C3230 C 0.5973 0.74622 0.86339 0.0
C3231 C 0.59973 0.74673 0.92027 0.0
C3232 C 0.60289 0.74087 0.9419 0.0
C3233 C 0.60356 0.7345 0.90569 0.0
C3234 C 0.60108 0.73395 0.84901 0.0
H3235 H 0.5723 0.73187 0.76108 0.0
H3236 H 0.5789 0.73116 0.81971 0.0
H3237 H 0.57982 0.74216 0.80118 0.0
H3238 H 0.59517 0.75102 0.84722 0.0
H3239 H 0.59943 0.75192 0.94672 0.0
H3240 H 0.26708 0.85293 0.95056 0.0
H3241 H 0.26831 0.84928 0.8521 0.0
H3242 H 0.25166 0.86151 0.80146 0.0
H3243 H 0.25014 0.86489 0.90006 0.0
H3244 H 0.24646 0.84417 0.74917 0.0
H3245 H 0.28473 0.86917 0.73457 0.0
H3246 H 0.28107 0.86067 0.79027 0.0
H3247 H 0.27765 0.86943 0.7918 0.0
C3248 C 0.26347 0.85462 0.91873 0.0
C3249 C 0.25834 0.85902 0.93318 0.0
C3250 C 0.26432 0.85267 0.86235 0.0
C3251 C 0.26014 0.85519 0.81954 0.0
C3252 C 0.25493 0.8595 0.83393 0.0
H3253 H 0.26846 0.86547 0.4681 0.0
H3254 H 0.26857 0.86579 0.57089 0.0
C3255 C 0.25409 0.86145 0.89019 0.0
C3256 C 0.26125 0.85351 0.75949 0.0
H3257 H 0.27727 0.86051 0.65293 0.0
C3258 C 0.2532 0.84766 0.72812 0.0
C3259 C 0.27005 0.85815 0.7323 0.0
C3260 C 0.27888 0.86477 0.76367 0.0
C3261 C 0.25368 0.84648 0.66989 0.0
C3262 C 0.26248 0.85116 0.64258 0.0
C3263 C 0.27056 0.85686 0.67418 0.0
C3264 C 0.26329 0.85094 0.5805 0.0
C3265 C 0.24472 0.84056 0.6377 0.0
C3266 C 0.26057 0.84253 0.55183 0.0
C3267 C 0.26046 0.8423 0.49286 0.0
C3268 C 0.26311 0.85051 0.46172 0.0
C3269 C 0.26631 0.85901 0.49073 0.0
C3270 C 0.2664 0.85922 0.54953 0.0
H3271 H 0.23843 0.83896 0.66308 0.0
H3272 H 0.2446 0.84413 0.59833 0.0
H3273 H 0.24426 0.83383 0.62593 0.0
H3274 H 0.25832 0.8361 0.57505 0.0
H3275 H 0.25803 0.83566 0.4718 0.0
H3276 H 0.40273 0.13515 0.5382 0.0
H3277 H 0.4027 0.13489 0.43536 0.0
H3278 H 0.41981 0.16497 0.4321 0.0
H3279 H 0.41981 0.16532 0.53528 0.0
H3280 H 0.40386 0.15821 0.36624 0.0
H3281 H 0.42273 0.13911 0.31929 0.0
H3282 H 0.41346 0.13314 0.36947 0.0
H3283 H 0.42334 0.14434 0.3872 0.0
C3284 C 0.40661 0.14171 0.51572 0.0
C3285 C 0.41124 0.15026 0.54498 0.0
C3286 C 0.40664 0.14154 0.45687 0.0
C3287 C 0.41134 0.1499 0.4261 0.0
C3288 C 0.41619 0.15844 0.45511 0.0
H3289 H 0.41309 0.14873 0.05653 0.0
H3290 H 0.41784 0.15261 0.15537 0.0
C3291 C 0.41619 0.15862 0.51407 0.0
C3292 C 0.41044 0.14975 0.36391 0.0
H3293 H 0.41324 0.1398 0.24475 0.0
C3294 C 0.40603 0.15429 0.33955 0.0
C3295 C 0.41336 0.14473 0.32909 0.0
C3296 C 0.41857 0.14012 0.35248 0.0
C3297 C 0.40408 0.15359 0.28162 0.0
C3298 C 0.4065 0.1481 0.24741 0.0
C3299 C 0.4113 0.14392 0.27124 0.0
C3300 C 0.40369 0.14623 0.18741 0.0
C3301 C 0.39937 0.15865 0.25763 0.0
C3302 C 0.39417 0.14131 0.17287 0.0
C3303 C 0.39146 0.13915 0.11659 0.0
C3304 C 0.39822 0.14194 0.07386 0.0
C3305 C 0.40775 0.14681 0.08846 0.0
C3306 C 0.41046 0.14893 0.14486 0.0
H3307 H 0.40038 0.16454 0.28514 0.0
H3308 H 0.40208 0.16143 0.21489 0.0
H3309 H 0.39174 0.15369 0.25419 0.0
H3310 H 0.38883 0.13897 0.2052 0.0
H3311 H 0.38407 0.13526 0.10645 0.0
H3312 H 0.83407 0.25555 0.51961 0.0
H3313 H 0.83491 0.2563 0.41649 0.0
H3314 H 0.86481 0.26781 0.42461 0.0
H3315 H 0.86408 0.26731 0.52726 0.0
H3316 H 0.85973 0.27628 0.34339 0.0
H3317 H 0.83871 0.23752 0.32559 0.0
H3318 H 0.83306 0.2429 0.36179 0.0
H3319 H 0.84328 0.24338 0.39195 0.0
C3320 C 0.84084 0.25834 0.49944 0.0
C3321 C 0.84899 0.26126 0.53167 0.0
C3322 C 0.8413 0.25871 0.44052 0.0
C3323 C 0.8499 0.26192 0.41291 0.0
C3324 C 0.85809 0.26526 0.44504 0.0
H3325 H 0.86434 0.2495 0.09245 0.0
H3326 H 0.86077 0.2508 0.19077 0.0
C3327 C 0.85765 0.26494 0.5038 0.0
C3328 C 0.85042 0.26143 0.35071 0.0
H3329 H 0.84399 0.24602 0.24105 0.0
C3330 C 0.85623 0.26968 0.32083 0.0
C3331 C 0.84593 0.25278 0.3216 0.0
C3332 C 0.83995 0.24362 0.35177 0.0
C3333 C 0.85784 0.26951 0.26282 0.0
C3334 C 0.85335 0.26086 0.23378 0.0
C3335 C 0.84737 0.25264 0.26341 0.0
C3336 C 0.85531 0.26006 0.17367 0.0
C3337 C 0.86464 0.27852 0.23374 0.0
C3338 C 0.85337 0.26478 0.1313 0.0
C3339 C 0.85549 0.26412 0.07497 0.0
C3340 C 0.85943 0.25857 0.05995 0.0
C3341 C 0.86128 0.2538 0.10255 0.0
C3342 C 0.85921 0.25451 0.15874 0.0
H3343 H 0.86906 0.28409 0.26437 0.0
H3344 H 0.86929 0.27742 0.20474 0.0
H3345 H 0.86068 0.28105 0.20849 0.0
H3346 H 0.85028 0.26903 0.14181 0.0
H3347 H 0.85426 0.26814 0.04376 0.0
H3348 H 0.75557 0.59166 0.51475 0.0
H3349 H 0.75367 0.59172 0.41243 0.0
H3350 H 0.72749 0.59116 0.43549 0.0
H3351 H 0.72926 0.59104 0.53786 0.0
H3352 H 0.73619 0.57876 0.33532 0.0
H3353 H 0.7474 0.61666 0.3491 0.0
H3354 H 0.75035 0.6108 0.40276 0.0
H3355 H 0.73864 0.60878 0.39792 0.0
C3356 C 0.74933 0.59138 0.49813 0.0
C3357 C 0.74262 0.59145 0.53445 0.0
C3358 C 0.74825 0.59139 0.4397 0.0
C3359 C 0.74048 0.59151 0.41676 0.0
C3360 C 0.73354 0.59109 0.45268 0.0
H3361 H 0.73076 0.60662 0.08444 0.0
H3362 H 0.7297 0.60223 0.18378 0.0
C3363 C 0.73458 0.59103 0.5111 0.0
C3364 C 0.74008 0.59295 0.35566 0.0
H3365 H 0.74355 0.60973 0.25945 0.0
C3366 C 0.73777 0.58551 0.31848 0.0
C3367 C 0.74215 0.60177 0.33429 0.0
C3368 C 0.74483 0.61001 0.3728 0.0
C3369 C 0.73738 0.58664 0.26001 0.0
C3370 C 0.73958 0.59551 0.23848 0.0
C3371 C 0.74185 0.60293 0.27598 0.0
C3372 C 0.73966 0.59737 0.17726 0.0
C3373 C 0.73445 0.57829 0.22204 0.0
C3374 C 0.74562 0.59611 0.14058 0.0
C3375 C 0.74619 0.59856 0.08369 0.0
C3376 C 0.74086 0.60239 0.06272 0.0
C3377 C 0.73491 0.60365 0.09949 0.0
C3378 C 0.73429 0.60113 0.15616 0.0
H3379 H 0.73041 0.57161 0.24545 0.0
H3380 H 0.73012 0.57835 0.18635 0.0
H3381 H 0.74079 0.5785 0.20452 0.0
H3382 H 0.75006 0.59351 0.15626 0.0
H3383 H 0.75105 0.59778 0.05677 0.0
H3384 H 0.83497 0.5898 0.52099 0.0
H3385 H 0.83602 0.5895 0.41836 0.0
H3386 H 0.86327 0.59203 0.43251 0.0
H3387 H 0.86218 0.59211 0.53515 0.0
H3388 H 0.84895 0.60378 0.35663 0.0
H3389 H 0.85136 0.57209 0.31275 0.0
H3390 H 0.84757 0.57412 0.38002 0.0
H3391 H 0.85984 0.57966 0.36348 0.0
C3392 C 0.84111 0.5901 0.50232 0.0
C3393 C 0.84851 0.59101 0.53623 0.0
C3394 C 0.8417 0.58993 0.44363 0.0
C3395 C 0.84968 0.59066 0.41772 0.0
C3396 C 0.85695 0.59125 0.45151 0.0
H3397 H 0.87495 0.6059 0.08972 0.0
H3398 H 0.87096 0.60167 0.18899 0.0
C3399 C 0.85634 0.59136 0.51025 0.0
C3400 C 0.85082 0.59176 0.3557 0.0
H3401 H 0.85604 0.58335 0.23788 0.0
C3402 C 0.85036 0.59923 0.33057 0.0
C3403 C 0.8527 0.58584 0.32178 0.0
C3404 C 0.85281 0.57742 0.34579 0.0
C3405 C 0.85202 0.60111 0.27279 0.0
C3406 C 0.85411 0.59532 0.23922 0.0
C3407 C 0.85444 0.58777 0.26397 0.0
C3408 C 0.85631 0.59726 0.17864 0.0
C3409 C 0.85181 0.60945 0.24827 0.0
C3410 C 0.84935 0.59608 0.14012 0.0
C3411 C 0.85161 0.59847 0.08347 0.0
C3412 C 0.86085 0.60205 0.06452 0.0
C3413 C 0.86777 0.60313 0.10319 0.0
C3414 C 0.8655 0.60069 0.15973 0.0
H3415 H 0.85161 0.61409 0.28148 0.0
H3416 H 0.85804 0.6136 0.22122 0.0
H3417 H 0.84549 0.60697 0.22149 0.0
H3418 H 0.84222 0.59345 0.1541 0.0
H3419 H 0.84617 0.5978 0.05506 0.0
H3420 H 0.4266 0.27202 0.52123 0.0
H3421 H 0.42656 0.27336 0.41801 0.0
H3422 H 0.39653 0.25565 0.41688 0.0
H3423 H 0.39648 0.25457 0.51916 0.0
H3424 H 0.42086 0.26074 0.33287 0.0
H3425 H 0.39957 0.27802 0.33196 0.0
H3426 H 0.40467 0.27654 0.39562 0.0
H3427 H 0.3937 0.26716 0.36959 0.0
C3428 C 0.42 0.26844 0.49879 0.0
C3429 C 0.41153 0.26332 0.52825 0.0
C3430 C 0.41999 0.2692 0.43995 0.0
C3431 C 0.41152 0.2648 0.40993 0.0
C3432 C 0.40312 0.25936 0.43927 0.0
H3433 H 0.39914 0.24841 0.06262 0.0
H3434 H 0.40392 0.25014 0.16172 0.0
C3435 C 0.40311 0.25872 0.49779 0.0
C3436 C 0.4113 0.26582 0.34796 0.0
H3437 H 0.39996 0.2707 0.24517 0.0
C3438 C 0.41641 0.26305 0.31352 0.0
C3439 C 0.40567 0.26906 0.32272 0.0
C3440 C 0.40069 0.27296 0.35697 0.0
C3441 C 0.41566 0.26299 0.25447 0.0
C3442 C 0.40941 0.26548 0.22949 0.0
C3443 C 0.40466 0.26866 0.26405 0.0
C3444 C 0.40741 0.26464 0.16802 0.0
C3445 C 0.42162 0.26032 0.21973 0.0
C3446 C 0.40757 0.27212 0.13871 0.0
C3447 C 0.40454 0.27102 0.08288 0.0
C3448 C 0.4015 0.26249 0.0549 0.0
C3449 C 0.40161 0.25509 0.0833 0.0
C3450 C 0.40442 0.25612 0.13971 0.0
H3451 H 0.42818 0.26198 0.2423 0.0
H3452 H 0.4177 0.25265 0.21212 0.0
H3453 H 0.42348 0.26397 0.17843 0.0
H3454 H 0.40981 0.27876 0.15952 0.0
H3455 H 0.40453 0.27682 0.0616 0.0
H3456 H 0.75239 0.15257 0.05049 0.0
H3457 H 0.75171 0.15582 0.1506 0.0
H3458 H 0.72895 0.12761 0.17427 0.0
H3459 H 0.72966 0.1243 0.07447 0.0
H3460 H 0.73749 0.15498 0.21757 0.0
H3461 H 0.7479 0.12951 0.29012 0.0
H3462 H 0.74885 0.13311 0.21748 0.0
H3463 H 0.73775 0.12439 0.24562 0.0
C3464 C 0.74715 0.14711 0.07686 0.0
C3465 C 0.74103 0.1382 0.0547 0.0
C3466 C 0.7468 0.14896 0.13407 0.0
C3467 C 0.74037 0.14192 0.16997 0.0
C3468 C 0.7341 0.13309 0.14755 0.0
H3469 H 0.72909 0.13767 0.52823 0.0
H3470 H 0.72763 0.13587 0.4258 0.0
C3471 C 0.7345 0.13121 0.09056 0.0
C3472 C 0.74033 0.14372 0.23112 0.0
H3473 H 0.74278 0.13615 0.36049 0.0
C3474 C 0.73868 0.15089 0.24887 0.0
C3475 C 0.74193 0.1384 0.2718 0.0
C3476 C 0.7443 0.13098 0.2554 0.0
C3477 C 0.73842 0.15277 0.30642 0.0
C3478 C 0.73989 0.14735 0.34689 0.0
C3479 C 0.74156 0.14021 0.32917 0.0
C3480 C 0.74004 0.14912 0.40806 0.0
C3481 C 0.73647 0.16042 0.32369 0.0
C3482 C 0.74743 0.15724 0.43178 0.0
C3483 C 0.74833 0.15828 0.4903 0.0
C3484 C 0.74185 0.15118 0.52601 0.0
C3485 C 0.7342 0.14326 0.50196 0.0
C3486 C 0.73335 0.14221 0.44346 0.0
H3487 H 0.73365 0.16267 0.2882 0.0
H3488 H 0.7314 0.15807 0.35917 0.0
H3489 H 0.74306 0.16658 0.33829 0.0
H3490 H 0.75273 0.16259 0.40509 0.0
H3491 H 0.75429 0.16447 0.50748 0.0
H3492 H 0.58762 0.855 0.94088 0.0
H3493 H 0.58256 0.85094 0.84299 0.0
H3494 H 0.61094 0.85974 0.79385 0.0
H3495 H 0.61598 0.86347 0.89182 0.0
H3496 H 0.58823 0.86252 0.75082 0.0
H3497 H 0.59645 0.83418 0.71948 0.0
H3498 H 0.59583 0.83844 0.78852 0.0
H3499 H 0.60626 0.84464 0.74656 0.0
C3500 C 0.59273 0.85579 0.90967 0.0
C3501 C 0.60216 0.85931 0.92447 0.0
C3502 C 0.58985 0.85357 0.85354 0.0
C3503 C 0.59634 0.85483 0.81131 0.0
C3504 C 0.60577 0.85847 0.82592 0.0
H3505 H 0.59869 0.86529 0.45933 0.0
H3506 H 0.59847 0.86576 0.56198 0.0
C3507 C 0.60865 0.86067 0.88189 0.0
C3508 C 0.59342 0.85285 0.75144 0.0
H3509 H 0.59469 0.84129 0.63552 0.0
C3510 C 0.58951 0.85777 0.72574 0.0
C3511 C 0.59493 0.84653 0.71897 0.0
C3512 C 0.5985 0.84057 0.74493 0.0
C3513 C 0.58754 0.85692 0.66775 0.0
C3514 C 0.58969 0.85112 0.63453 0.0
C3515 C 0.59313 0.84582 0.66084 0.0
C3516 C 0.58903 0.85089 0.57212 0.0
C3517 C 0.58323 0.86229 0.64262 0.0
C3518 C 0.58387 0.84235 0.54349 0.0
C3519 C 0.58405 0.84204 0.48459 0.0
C3520 C 0.58947 0.85026 0.45327 0.0
C3521 C 0.59442 0.85883 0.48206 0.0
C3522 C 0.59425 0.85913 0.54086 0.0
H3523 H 0.57919 0.86372 0.67466 0.0
H3524 H 0.58888 0.86913 0.6268 0.0
H3525 H 0.57852 0.85843 0.6069 0.0
H3526 H 0.57984 0.8359 0.5668 0.0
H3527 H 0.58016 0.83532 0.46376 0.0
H3528 H 0.13447 0.73306 0.45921 0.0
H3529 H 0.13429 0.73304 0.56204 0.0
H3530 H 0.16369 0.74185 0.56476 0.0
H3531 H 0.16398 0.74203 0.46147 0.0
H3532 H 0.13922 0.72381 0.6441 0.0
H3533 H 0.16199 0.76255 0.65257 0.0
H3534 H 0.15646 0.75643 0.58829 0.0
H3535 H 0.16658 0.75628 0.61473 0.0
C3536 C 0.14089 0.73491 0.48153 0.0
C3537 C 0.14927 0.73767 0.45209 0.0
C3538 C 0.14076 0.73487 0.54035 0.0
C3539 C 0.149 0.7376 0.57092 0.0
C3540 C 0.15729 0.73989 0.54184 0.0
H3541 H 0.14831 0.7351 0.94176 0.0
H3542 H 0.15176 0.73363 0.84291 0.0
C3543 C 0.15743 0.73994 0.48285 0.0
C3544 C 0.14893 0.7385 0.633 0.0
H3545 H 0.15652 0.75468 0.73893 0.0
C3546 C 0.14309 0.73053 0.66504 0.0
C3547 C 0.15391 0.74732 0.65993 0.0
C3548 C 0.16004 0.75616 0.62727 0.0
C3549 C 0.14195 0.73116 0.72324 0.0
C3550 C 0.14685 0.73999 0.74994 0.0
C3551 C 0.15283 0.74793 0.71818 0.0
C3552 C 0.14527 0.74124 0.8099 0.0
C3553 C 0.13525 0.72247 0.7554 0.0
C3554 C 0.14064 0.74615 0.82391 0.0
C3555 C 0.13873 0.74705 0.88016 0.0
C3556 C 0.14156 0.7432 0.92339 0.0
C3557 C 0.1463 0.73838 0.90936 0.0
C3558 C 0.14817 0.73743 0.85297 0.0
H3559 H 0.13096 0.71648 0.72696 0.0
H3560 H 0.13925 0.72045 0.78405 0.0
H3561 H 0.13048 0.72384 0.78169 0.0
H3562 H 0.13834 0.74912 0.79117 0.0
H3563 H 0.135 0.75073 0.88989 0.0
H3564 H 0.24942 0.40277 0.94012 0.0
H3565 H 0.25015 0.40683 0.84024 0.0
H3566 H 0.27052 0.39817 0.81168 0.0
H3567 H 0.26978 0.39404 0.91129 0.0
H3568 H 0.26483 0.41905 0.76971 0.0
H3569 H 0.24982 0.38217 0.70069 0.0
H3570 H 0.2497 0.38534 0.77331 0.0
H3571 H 0.26012 0.38623 0.74325 0.0
C3572 C 0.25419 0.4019 0.91281 0.0
C3573 C 0.2596 0.39815 0.93353 0.0
C3574 C 0.25455 0.40417 0.85569 0.0
C3575 C 0.26028 0.40267 0.81846 0.0
C3576 C 0.26591 0.3992 0.83948 0.0
H3577 H 0.27034 0.4074 0.45993 0.0
H3578 H 0.27173 0.40702 0.5623 0.0
C3579 C 0.2655 0.39687 0.89637 0.0
C3580 C 0.26018 0.40443 0.75731 0.0
H3581 H 0.25584 0.39372 0.62891 0.0
C3582 C 0.26283 0.41351 0.73886 0.0
C3583 C 0.25749 0.39717 0.71725 0.0
C3584 C 0.25403 0.38716 0.73454 0.0
C3585 C 0.26308 0.41557 0.68117 0.0
C3586 C 0.26058 0.40834 0.64127 0.0
C3587 C 0.25786 0.39926 0.65974 0.0
C3588 C 0.26057 0.40992 0.57993 0.0
C3589 C 0.26618 0.42546 0.6631 0.0
C3590 C 0.25392 0.41183 0.55608 0.0
C3591 C 0.25306 0.41201 0.4975 0.0
C3592 C 0.25883 0.41024 0.46189 0.0
C3593 C 0.26576 0.40876 0.48608 0.0
C3594 C 0.26658 0.40854 0.54457 0.0
H3595 H 0.26961 0.43054 0.69802 0.0
H3596 H 0.27112 0.42753 0.62707 0.0
H3597 H 0.25999 0.42588 0.649 0.0
H3598 H 0.24913 0.41279 0.58273 0.0
H3599 H 0.24766 0.41318 0.48024 0.0
H3600 H 0.8084 0.72933 0.79412 0.0
H3601 H 0.8072 0.72938 0.89634 0.0
H3602 H 0.82174 0.75957 0.89618 0.0
H3603 H 0.82336 0.75956 0.79316 0.0
H3604 H 0.82759 0.75344 0.98117 0.0
H3605 H 0.78903 0.73374 0.98208 0.0
H3606 H 0.79338 0.72722 0.94536 0.0
H3607 H 0.79566 0.73837 0.91809 0.0
C3608 C 0.81133 0.73599 0.81574 0.0
C3609 C 0.81588 0.74445 0.78563 0.0
C3610 C 0.81058 0.73601 0.87422 0.0
C3611 C 0.81411 0.74447 0.90387 0.0
C3612 C 0.81887 0.75295 0.8741 0.0
H3613 H 0.7949 0.7374 0.25241 0.0
H3614 H 0.79836 0.74287 0.15478 0.0
C3615 C 0.81979 0.75295 0.81536 0.0
C3616 C 0.81286 0.74432 0.96592 0.0
H3617 H 0.7965 0.73347 0.06873 0.0
C3618 C 0.82077 0.7492 0.00045 0.0
C3619 C 0.80395 0.73901 0.99123 0.0
C3620 C 0.79503 0.73439 0.95715 0.0
C3621 C 0.82006 0.74851 0.05952 0.0
C3622 C 0.81125 0.74248 0.08455 0.0
C3623 C 0.8033 0.73798 0.04992 0.0
C3624 C 0.81005 0.74043 0.14606 0.0
C3625 C 0.82876 0.75431 0.09414 0.0
C3626 C 0.81555 0.73739 0.17435 0.0
C3627 C 0.81374 0.73454 0.23069 0.0
C3628 C 0.8062 0.73438 0.25896 0.0
C3629 C 0.80074 0.73747 0.23114 0.0
C3630 C 0.80272 0.74058 0.17544 0.0
H3631 H 0.83369 0.76086 0.07173 0.0
H3632 H 0.82707 0.75618 0.13573 0.0
H3633 H 0.83241 0.75029 0.10102 0.0
H3634 H 0.82103 0.73687 0.15239 0.0
H3635 H 0.81794 0.73206 0.25138 0.0
H3636 H 0.26265 0.06462 0.8119 0.0
H3637 H 0.26267 0.06407 0.91458 0.0
H3638 H 0.2451 0.07653 0.9209 0.0
H3639 H 0.24517 0.07726 0.8178 0.0
H3640 H 0.26047 0.08563 0.98778 0.0
H3641 H 0.24315 0.04759 0.02924 0.0
H3642 H 0.25261 0.05135 0.98005 0.0
H3643 H 0.24253 0.05229 0.96165 0.0
C3644 C 0.25866 0.06712 0.83498 0.0
C3645 C 0.25394 0.07102 0.80659 0.0
C3646 C 0.25862 0.06673 0.89378 0.0
C3647 C 0.25378 0.07015 0.92543 0.0
C3648 C 0.24884 0.07381 0.89724 0.0
H3649 H 0.25235 0.06527 0.29398 0.0
H3650 H 0.24748 0.06444 0.19584 0.0
C3651 C 0.24888 0.07421 0.83832 0.0
C3652 C 0.25464 0.07067 0.98772 0.0
H3653 H 0.25259 0.0577 0.10457 0.0
C3654 C 0.25862 0.0795 0.01345 0.0
C3655 C 0.25211 0.06267 0.02131 0.0
C3656 C 0.24727 0.05293 0.99672 0.0
C3657 C 0.26055 0.0806 0.07142 0.0
C3658 C 0.2586 0.07268 0.1043 0.0
C3659 C 0.2542 0.06379 0.07914 0.0
C3660 C 0.26147 0.07353 0.1642 0.0
C3661 C 0.26472 0.09025 0.09682 0.0
C3662 C 0.27096 0.07883 0.17891 0.0
C3663 C 0.27375 0.07942 0.23504 0.0
C3664 C 0.2671 0.07472 0.27763 0.0
C3665 C 0.25761 0.06929 0.2627 0.0
C3666 C 0.25482 0.0687 0.20645 0.0
H3667 H 0.26311 0.09489 0.07095 0.0
H3668 H 0.26209 0.08996 0.1403 0.0
H3669 H 0.27244 0.09346 0.09865 0.0
H3670 H 0.27624 0.08241 0.14681 0.0
H3671 H 0.28112 0.08356 0.24513 0.0
H3672 H 0.92055 0.19069 0.80684 0.0
H3673 H 0.92168 0.19185 0.90907 0.0
H3674 H 0.93913 0.17923 0.90883 0.0
H3675 H 0.93774 0.17773 0.80567 0.0
H3676 H 0.92657 0.17256 0.99422 0.0
H3677 H 0.94418 0.21113 0.99323 0.0
H3678 H 0.93331 0.2062 0.95575 0.0
H3679 H 0.94261 0.20445 0.92991 0.0
C3680 C 0.92464 0.18816 0.82839 0.0
C3681 C 0.92916 0.18422 0.79818 0.0
C3682 C 0.92532 0.18887 0.88688 0.0
C3683 C 0.93071 0.18588 0.91646 0.0
C3684 C 0.93502 0.18168 0.88671 0.0
H3685 H 0.94306 0.2053 0.26417 0.0
H3686 H 0.94488 0.20184 0.16624 0.0
C3687 C 0.93422 0.18083 0.8279 0.0
C3688 C 0.93177 0.1872 0.97838 0.0
H3689 H 0.93687 0.2036 0.08037 0.0
C3690 C 0.92895 0.17936 0.01323 0.0
C3691 C 0.93511 0.19611 0.00319 0.0
C3692 C 0.93907 0.20496 0.9685 0.0
C3693 C 0.92894 0.18014 0.07224 0.0
C3694 C 0.93152 0.18893 0.0968 0.0
C3695 C 0.93475 0.19682 0.06184 0.0
C3696 C 0.93073 0.19019 0.15822 0.0
C3697 C 0.9262 0.17153 0.10739 0.0
C3698 C 0.92222 0.18472 0.1868 0.0
C3699 C 0.92126 0.18657 0.24322 0.0
C3700 C 0.92871 0.19406 0.27137 0.0
C3701 C 0.93722 0.19949 0.24309 0.0
C3702 C 0.93826 0.19751 0.18724 0.0
H3703 H 0.92781 0.16657 0.08509 0.0
H3704 H 0.92987 0.17334 0.14864 0.0
H3705 H 0.91855 0.16785 0.1151 0.0
H3706 H 0.91621 0.17925 0.16502 0.0
H3707 H 0.91459 0.18239 0.26411 0.0
H3708 H 0.06965 0.46836 0.86398 0.0
H3709 H 0.06979 0.46778 0.76136 0.0
H3710 H 0.08767 0.49776 0.75511 0.0
H3711 H 0.08741 0.49844 0.85814 0.0
H3712 H 0.07277 0.4919 0.68674 0.0
H3713 H 0.08916 0.47026 0.64832 0.0
H3714 H 0.07951 0.46466 0.69635 0.0
H3715 H 0.0897 0.47554 0.71594 0.0
C3716 C 0.07374 0.47483 0.84094 0.0
C3717 C 0.0785 0.48346 0.86934 0.0
C3718 C 0.07387 0.47447 0.78216 0.0
C3719 C 0.07885 0.48271 0.7505 0.0
C3720 C 0.08382 0.49131 0.77873 0.0
H3721 H 0.08028 0.47832 0.38204 0.0
H3722 H 0.08527 0.48249 0.47991 0.0
C3723 C 0.08367 0.49168 0.83762 0.0
C3724 C 0.07813 0.48237 0.68809 0.0
H3725 H 0.07987 0.47106 0.57222 0.0
C3726 C 0.07446 0.48745 0.6616 0.0
C3727 C 0.08046 0.47669 0.65507 0.0
C3728 C 0.08502 0.47156 0.68034 0.0
C3729 C 0.07263 0.48664 0.6035 0.0
C3730 C 0.07433 0.48043 0.57125 0.0
C3731 C 0.07845 0.47572 0.59713 0.0
C3732 C 0.07142 0.47835 0.51138 0.0
C3733 C 0.06882 0.49239 0.57733 0.0
C3734 C 0.06198 0.47455 0.49664 0.0
C3735 C 0.05913 0.47229 0.44065 0.0
C3736 C 0.06567 0.47377 0.39816 0.0
C3737 C 0.07511 0.47744 0.41313 0.0
C3738 C 0.07796 0.47971 0.46927 0.0
H3739 H 0.07074 0.49878 0.60253 0.0
H3740 H 0.07145 0.49452 0.53365 0.0
H3741 H 0.06107 0.48817 0.57591 0.0
H3742 H 0.05676 0.47319 0.52862 0.0
H3743 H 0.05178 0.46937 0.43061 0.0
H3744 H 0.53121 0.60345 0.87 0.0
H3745 H 0.53263 0.60441 0.76746 0.0
H3746 H 0.503 0.58523 0.75139 0.0
H3747 H 0.50148 0.58424 0.85413 0.0
H3748 H 0.52767 0.58819 0.70196 0.0
H3749 H 0.5082 0.60599 0.63458 0.0
H3750 H 0.51251 0.60681 0.70559 0.0
H3751 H 0.50219 0.59638 0.68283 0.0
C3752 C 0.52495 0.59956 0.84477 0.0
C3753 C 0.51624 0.59371 0.87027 0.0
C3754 C 0.52578 0.60013 0.78616 0.0
C3755 C 0.51792 0.59493 0.75193 0.0
C3756 C 0.50913 0.5894 0.7771 0.0
H3757 H 0.51263 0.58304 0.39134 0.0
H3758 H 0.50941 0.58412 0.49103 0.0
C3759 C 0.50829 0.58882 0.83584 0.0
C3760 C 0.51913 0.59454 0.69038 0.0
H3761 H 0.51343 0.59976 0.56232 0.0
C3762 C 0.52459 0.59076 0.67142 0.0
C3763 C 0.51499 0.59777 0.65079 0.0
C3764 C 0.50919 0.60204 0.66923 0.0
C3765 C 0.52605 0.59011 0.61382 0.0
C3766 C 0.52209 0.59354 0.57413 0.0
C3767 C 0.51649 0.59719 0.59295 0.0
C3768 C 0.52388 0.59351 0.51304 0.0
C3769 C 0.5317 0.58564 0.59595 0.0
C3770 C 0.53305 0.59861 0.49229 0.0
C3771 C 0.53491 0.59802 0.43554 0.0
C3772 C 0.5276 0.59245 0.39822 0.0
C3773 C 0.51838 0.58757 0.41869 0.0
C3774 C 0.51653 0.58812 0.4757 0.0
H3775 H 0.53204 0.58117 0.62979 0.0
H3776 H 0.5287 0.58131 0.55751 0.0
H3777 H 0.53896 0.59121 0.58631 0.0
H3778 H 0.53881 0.60293 0.52028 0.0
H3779 H 0.54208 0.6019 0.42088 0.0
H3780 H 0.41826 0.93253 0.38477 0.0
H3781 H 0.41668 0.92783 0.48389 0.0
H3782 H 0.38889 0.92424 0.48733 0.0
H3783 H 0.39076 0.92954 0.38943 0.0
H3784 H 0.39748 0.9335 0.57241 0.0
H3785 H 0.40395 0.9038 0.56488 0.0
H3786 H 0.41362 0.91395 0.53432 0.0
H3787 H 0.40222 0.90886 0.50181 0.0
C3788 C 0.41178 0.9306 0.40671 0.0
C3789 C 0.40462 0.93136 0.37988 0.0
C3790 C 0.41083 0.92782 0.46317 0.0
C3791 C 0.40258 0.92548 0.49311 0.0
C3792 C 0.39532 0.92598 0.46534 0.0
H3793 H 0.3958 0.90569 0.8448 0.0
H3794 H 0.39428 0.90601 0.74183 0.0
C3795 C 0.39637 0.929 0.40948 0.0
C3796 C 0.40188 0.92345 0.55461 0.0
H3797 H 0.40614 0.91131 0.65582 0.0
C3798 C 0.39924 0.92852 0.59034 0.0
C3799 C 0.40397 0.91683 0.57849 0.0
C3800 C 0.40599 0.91048 0.5427 0.0
C3801 C 0.39897 0.92744 0.64898 0.0
C3802 C 0.40187 0.92145 0.67305 0.0
C3803 C 0.40411 0.91605 0.63746 0.0
C3804 C 0.40301 0.92106 0.73491 0.0
C3805 C 0.39553 0.93272 0.68434 0.0
C3806 C 0.40862 0.92935 0.76492 0.0
C3807 C 0.40933 0.9292 0.82336 0.0
C3808 C 0.40468 0.92071 0.85304 0.0
C3809 C 0.39943 0.91233 0.82291 0.0
C3810 C 0.39856 0.91251 0.7642 0.0
H3811 H 0.39053 0.93407 0.66036 0.0
H3812 H 0.39202 0.92884 0.72336 0.0
H3813 H 0.40156 0.93961 0.69627 0.0
H3814 H 0.4124 0.93599 0.74314 0.0
H3815 H 0.41358 0.93575 0.84534 0.0
H3816 H 0.50172 0.91181 0.86483 0.0
H3817 H 0.50216 0.91134 0.76173 0.0
H3818 H 0.532 0.93015 0.76497 0.0
H3819 H 0.53166 0.93055 0.86761 0.0
H3820 H 0.50766 0.92638 0.69209 0.0
H3821 H 0.5297 0.91039 0.65394 0.0
H3822 H 0.52436 0.90978 0.72144 0.0
H3823 H 0.53512 0.92008 0.70185 0.0
C3824 C 0.5084 0.91572 0.84363 0.0
C3825 C 0.51665 0.92124 0.87446 0.0
C3826 C 0.50864 0.91544 0.78473 0.0
C3827 C 0.51713 0.92061 0.7557 0.0
C3828 C 0.5254 0.92593 0.78648 0.0
H3829 H 0.53051 0.94733 0.436 0.0
H3830 H 0.5266 0.94236 0.53406 0.0
C3831 C 0.52518 0.92622 0.84524 0.0
C3832 C 0.5173 0.92115 0.69331 0.0
H3833 H 0.52853 0.91935 0.57725 0.0
C3834 C 0.51211 0.92469 0.66685 0.0
C3835 C 0.523 0.91884 0.6603 0.0
C3836 C 0.52829 0.91447 0.68578 0.0
C3837 C 0.51285 0.92646 0.60869 0.0
C3838 C 0.51906 0.92477 0.57639 0.0
C3839 C 0.52386 0.92075 0.60225 0.0
C3840 C 0.52109 0.92765 0.51655 0.0
C3841 C 0.50706 0.93022 0.58247 0.0
C3842 C 0.51951 0.92106 0.47435 0.0
C3843 C 0.52179 0.9239 0.41822 0.0
C3844 C 0.52571 0.93338 0.40347 0.0
C3845 C 0.5274 0.93996 0.446 0.0
C3846 C 0.5251 0.93713 0.50196 0.0
H3847 H 0.50075 0.92843 0.60817 0.0
H3848 H 0.51132 0.93796 0.57993 0.0
H3849 H 0.5048 0.92744 0.53918 0.0
H3850 H 0.51657 0.91373 0.48493 0.0
H3851 H 0.52074 0.9187 0.38692 0.0
H3852 H 0.06627 0.58119 0.39878 0.0
H3853 H 0.07057 0.58245 0.49869 0.0
H3854 H 0.07405 0.61016 0.50436 0.0
H3855 H 0.06944 0.60878 0.40522 0.0
H3856 H 0.08581 0.59439 0.56105 0.0
H3857 H 0.05486 0.59698 0.62569 0.0
H3858 H 0.05636 0.59402 0.55482 0.0
H3859 H 0.06239 0.60603 0.57772 0.0
C3860 C 0.06806 0.58757 0.42133 0.0
C3861 C 0.06749 0.59487 0.39467 0.0
C3862 C 0.07051 0.58829 0.47828 0.0
C3863 C 0.07246 0.59633 0.50919 0.0
C3864 C 0.07233 0.6038 0.48171 0.0
H3865 H 0.09318 0.60679 0.85904 0.0
H3866 H 0.09256 0.60732 0.75568 0.0
C3867 C 0.06973 0.60302 0.42514 0.0
C3868 C 0.07414 0.5967 0.57073 0.0
H3869 H 0.06572 0.59914 0.69704 0.0
C3870 C 0.08143 0.59543 0.59092 0.0
C3871 C 0.06833 0.59794 0.60954 0.0
C3872 C 0.05999 0.59873 0.59097 0.0
C3873 C 0.08304 0.5953 0.64902 0.0
C3874 C 0.07733 0.59672 0.68768 0.0
C3875 C 0.07013 0.59811 0.66731 0.0
C3876 C 0.07816 0.59613 0.74956 0.0
C3877 C 0.0906 0.59335 0.66842 0.0
C3878 C 0.07027 0.58975 0.78035 0.0
C3879 C 0.07055 0.58958 0.83893 0.0
C3880 C 0.07876 0.59573 0.86815 0.0
C3881 C 0.08678 0.60194 0.83746 0.0
C3882 C 0.08645 0.60221 0.77848 0.0
H3883 H 0.09273 0.59016 0.63448 0.0
H3884 H 0.09686 0.60003 0.68097 0.0
H3885 H 0.08826 0.58861 0.70547 0.0
H3886 H 0.0638 0.58497 0.75897 0.0
H3887 H 0.06428 0.58465 0.86138 0.0
H3888 H 0.39917 0.47945 0.38518 0.0
H3889 H 0.39843 0.4836 0.48326 0.0
H3890 H 0.41629 0.47269 0.53239 0.0
H3891 H 0.41733 0.46883 0.43418 0.0
H3892 H 0.39168 0.47172 0.57494 0.0
H3893 H 0.42889 0.4984 0.60756 0.0
H3894 H 0.4239 0.49449 0.53834 0.0
H3895 H 0.42744 0.48764 0.57965 0.0
C3896 C 0.40318 0.47821 0.41647 0.0
C3897 C 0.40854 0.47406 0.40164 0.0
C3898 C 0.40265 0.48047 0.47267 0.0
C3899 C 0.40747 0.47864 0.51492 0.0
C3900 C 0.41272 0.47439 0.50027 0.0
H3901 H 0.39892 0.46841 0.86673 0.0
H3902 H 0.3983 0.46795 0.76405 0.0
C3903 C 0.41324 0.47212 0.44421 0.0
C3904 C 0.40666 0.4807 0.57479 0.0
H3905 H 0.41971 0.49177 0.69102 0.0
C3906 C 0.39779 0.47621 0.60021 0.0
C3907 C 0.41461 0.48668 0.60746 0.0
C3908 C 0.42424 0.49216 0.58175 0.0
C3909 C 0.39672 0.47716 0.65813 0.0
C3910 C 0.40475 0.48262 0.69151 0.0
C3911 C 0.41356 0.4875 0.66551 0.0
C3912 C 0.40429 0.4829 0.75385 0.0
C3913 C 0.38701 0.47224 0.68306 0.0
C3914 C 0.40794 0.49147 0.78239 0.0
C3915 C 0.40838 0.49178 0.84131 0.0
C3916 C 0.40525 0.48351 0.87267 0.0
C3917 C 0.40138 0.47491 0.84393 0.0
C3918 C 0.40095 0.47462 0.78515 0.0
H3919 H 0.38164 0.47103 0.65079 0.0
H3920 H 0.38546 0.46531 0.69949 0.0
H3921 H 0.38639 0.47632 0.71836 0.0
H3922 H 0.41061 0.49795 0.759 0.0
H3923 H 0.41141 0.49851 0.86211 0.0
H3924 H 0.28086 0.19636 0.24189 0.0
H3925 H 0.2759 0.19301 0.14359 0.0
H3926 H 0.24736 0.18335 0.19335 0.0
H3927 H 0.25233 0.1871 0.29147 0.0
H3928 H 0.26336 0.1764 0.09247 0.0
H3929 H 0.25187 0.20273 0.07253 0.0
H3930 H 0.25868 0.20255 0.13154 0.0
H3931 H 0.24635 0.19431 0.12805 0.0
C3932 C 0.27352 0.19352 0.23197 0.0
C3933 C 0.26698 0.19185 0.27478 0.0
C3934 C 0.27069 0.19157 0.1758 0.0
C3935 C 0.26127 0.18799 0.16111 0.0
C3936 C 0.25468 0.1862 0.2037 0.0
H3937 H 0.24398 0.16788 0.81388 0.0
H3938 H 0.24406 0.16852 0.91705 0.0
C3939 C 0.25752 0.18819 0.26003 0.0
C3940 C 0.25848 0.18623 0.10099 0.0
H3941 H 0.25006 0.1935 0.99247 0.0
C3942 C 0.26037 0.18007 0.07062 0.0
C3943 C 0.25466 0.19111 0.07263 0.0
C3944 C 0.25283 0.19811 0.10259 0.0
C3945 C 0.25878 0.17881 0.01235 0.0
C3946 C 0.25498 0.1837 0.98392 0.0
C3947 C 0.25288 0.1897 0.01453 0.0
C3948 C 0.25399 0.18336 0.92172 0.0
C3949 C 0.26159 0.1726 0.98139 0.0
C3950 C 0.25919 0.19157 0.89021 0.0
C3951 C 0.25908 0.19125 0.83141 0.0
C3952 C 0.25378 0.1827 0.80291 0.0
C3953 C 0.24821 0.17456 0.83454 0.0
C3954 C 0.24829 0.1749 0.89349 0.0
H3955 H 0.26622 0.17099 0.00725 0.0
H3956 H 0.25522 0.16588 0.97075 0.0
H3957 H 0.26526 0.17593 0.94148 0.0
H3958 H 0.26361 0.19819 0.91115 0.0
H3959 H 0.26341 0.19767 0.80842 0.0
H3960 H 0.82212 0.06248 0.79931 0.0
H3961 H 0.82073 0.06107 0.9025 0.0
H3962 H 0.80788 0.0783 0.90394 0.0
H3963 H 0.80892 0.07944 0.80166 0.0
H3964 H 0.8274 0.0736 0.98786 0.0
H3965 H 0.78882 0.05575 0.98849 0.0
H3966 H 0.79544 0.05739 0.92483 0.0
H3967 H 0.79364 0.06662 0.95114 0.0
C3968 C 0.81899 0.06594 0.82181 0.0
C3969 C 0.81549 0.07094 0.79244 0.0
C3970 C 0.81821 0.06514 0.88063 0.0
C3971 C 0.81397 0.06938 0.91073 0.0
C3972 C 0.81088 0.07471 0.88148 0.0
H3973 H 0.81766 0.08552 0.25829 0.0
H3974 H 0.82079 0.08389 0.15918 0.0
C3975 C 0.81152 0.07539 0.82298 0.0
C3976 C 0.81273 0.06831 0.97269 0.0
H3977 H 0.79642 0.0631 0.07542 0.0
C3978 C 0.82062 0.07118 0.00718 0.0
C3979 C 0.80384 0.06491 0.99788 0.0
C3980 C 0.79495 0.06089 0.96358 0.0
C3981 C 0.81991 0.07118 0.06622 0.0
C3982 C 0.81113 0.06854 0.09118 0.0
C3983 C 0.80319 0.06526 0.05657 0.0
C3984 C 0.80993 0.06933 0.15267 0.0
C3985 C 0.82856 0.07397 0.10099 0.0
C3986 C 0.80267 0.06178 0.18187 0.0
C3987 C 0.8007 0.06282 0.23772 0.0
C3988 C 0.80607 0.07135 0.26581 0.0
C3989 C 0.81352 0.07883 0.23752 0.0
C3990 C 0.81536 0.07786 0.18109 0.0
H3991 H 0.83353 0.07241 0.07839 0.0
H3992 H 0.8322 0.08163 0.10872 0.0
H3993 H 0.82682 0.07031 0.14224 0.0
H3994 H 0.79836 0.05513 0.16097 0.0
H3995 H 0.79492 0.05696 0.25891 0.0
H3996 H 0.93774 0.75957 0.80194 0.0
H3997 H 0.93921 0.75937 0.90501 0.0
H3998 H 0.92064 0.72947 0.9053 0.0
H3999 H 0.91943 0.72957 0.80309 0.0
H4000 H 0.92685 0.75397 0.99145 0.0
H4001 H 0.9429 0.73156 0.987 0.0
H4002 H 0.94149 0.73689 0.92423 0.0
H4003 H 0.93193 0.72607 0.95051 0.0
C4004 C 0.93398 0.75297 0.82417 0.0
C4005 C 0.92859 0.74457 0.79447 0.0
C4006 C 0.93482 0.75286 0.88293 0.0
C4007 C 0.93024 0.74437 0.91263 0.0
C4008 C 0.9245 0.73606 0.88312 0.0
H4009 H 0.91499 0.73239 0.26196 0.0
H4010 H 0.91644 0.73704 0.1628 0.0
C4011 C 0.92378 0.73614 0.82467 0.0
C4012 C 0.9314 0.74403 0.97441 0.0
H4013 H 0.93612 0.73225 0.07514 0.0
C4014 C 0.92901 0.74933 0.0099 0.0
C4015 C 0.93444 0.73816 0.99847 0.0
C4016 C 0.93794 0.73294 0.96299 0.0
C4017 C 0.92914 0.74855 0.06886 0.0
C4018 C 0.93143 0.74208 0.09273 0.0
C4019 C 0.93423 0.73712 0.05711 0.0
C4020 C 0.93078 0.74007 0.15417 0.0
C4021 C 0.92688 0.75471 0.10469 0.0
C4022 C 0.93824 0.73998 0.18218 0.0
C4023 C 0.93729 0.73704 0.23815 0.0
C4024 C 0.92894 0.73432 0.26755 0.0
C4025 C 0.92156 0.73462 0.24029 0.0
C4026 C 0.92242 0.73736 0.1838 0.0
H4027 H 0.92866 0.76133 0.08243 0.0
H4028 H 0.91925 0.75101 0.11349 0.0
H4029 H 0.9307 0.75648 0.14541 0.0
H4030 H 0.94474 0.74201 0.16031 0.0
H4031 H 0.94309 0.73687 0.25847 0.0
H4032 H 0.46855 0.05182 0.56684 0.0
H4033 H 0.47225 0.05674 0.46832 0.0
H4034 H 0.48455 0.08562 0.51887 0.0
H4035 H 0.48073 0.08074 0.61739 0.0
H4036 H 0.47138 0.07998 0.4274 0.0
H4037 H 0.49852 0.07003 0.39229 0.0
H4038 H 0.48794 0.06098 0.42384 0.0
H4039 H 0.49509 0.07167 0.4618 0.0
C4040 C 0.47212 0.05922 0.55695 0.0
C4041 C 0.47456 0.06591 0.59986 0.0
C4042 C 0.47427 0.06202 0.5008 0.0
C4043 C 0.47882 0.07154 0.48658 0.0
C4044 C 0.48116 0.07824 0.52921 0.0
H4045 H 0.49803 0.08818 0.13915 0.0
H4046 H 0.49755 0.08846 0.24232 0.0
C4047 C 0.47907 0.07545 0.58549 0.0
C4048 C 0.48073 0.07442 0.42679 0.0
H4049 H 0.49196 0.07288 0.31008 0.0
C4050 C 0.47598 0.07855 0.4018 0.0
C4051 C 0.48683 0.07267 0.39385 0.0
C4052 C 0.49246 0.06867 0.41931 0.0
C4053 C 0.4768 0.08056 0.34389 0.0
C4054 C 0.48245 0.07826 0.31026 0.0
C4055 C 0.48758 0.07457 0.33587 0.0
C4056 C 0.48262 0.07896 0.248 0.0
C4057 C 0.47153 0.08499 0.31911 0.0
C4058 C 0.47438 0.07359 0.21711 0.0
C4059 C 0.47463 0.0734 0.15835 0.0
C4060 C 0.48315 0.07854 0.12928 0.0
C4061 C 0.49136 0.08415 0.16025 0.0
C4062 C 0.4911 0.08431 0.21917 0.0
H4063 H 0.47001 0.08891 0.35155 0.0
H4064 H 0.47552 0.08984 0.28417 0.0
H4065 H 0.46474 0.07943 0.30211 0.0
H4066 H 0.46779 0.06926 0.23852 0.0
H4067 H 0.46817 0.06901 0.13583 0.0
H4068 H 0.91965 0.39958 0.61366 0.0
H4069 H 0.91474 0.39838 0.51536 0.0
H4070 H 0.9435 0.41597 0.46505 0.0
H4071 H 0.94843 0.41749 0.56351 0.0
H4072 H 0.93117 0.42073 0.41353 0.0
H4073 H 0.91866 0.38264 0.39607 0.0
H4074 H 0.91354 0.38597 0.45186 0.0
H4075 H 0.92579 0.38967 0.45407 0.0
C4076 C 0.92491 0.4034 0.58199 0.0
C4077 C 0.93442 0.4088 0.59655 0.0
C4078 C 0.9221 0.40257 0.52564 0.0
C4079 C 0.92877 0.40702 0.48292 0.0
C4080 C 0.93825 0.41248 0.49742 0.0
H4081 H 0.9309 0.39921 0.1309 0.0
H4082 H 0.93108 0.39898 0.23367 0.0
C4083 C 0.94105 0.41331 0.55363 0.0
C4084 C 0.92597 0.40596 0.42284 0.0
H4085 H 0.91722 0.39012 0.31521 0.0
C4086 C 0.92804 0.41403 0.39204 0.0
C4087 C 0.92196 0.39722 0.39503 0.0
C4088 C 0.91991 0.38838 0.42567 0.0
C4089 C 0.9264 0.41363 0.3338 0.0
C4090 C 0.92244 0.40489 0.30587 0.0
C4091 C 0.92018 0.39679 0.33691 0.0
C4092 C 0.92144 0.40417 0.24373 0.0
C4093 C 0.92933 0.42263 0.30226 0.0
C4094 C 0.91572 0.40689 0.21527 0.0
C4095 C 0.91563 0.40708 0.1563 0.0
C4096 C 0.92123 0.4045 0.12493 0.0
C4097 C 0.92656 0.40131 0.15371 0.0
C4098 C 0.92666 0.40115 0.2125 0.0
H4099 H 0.93397 0.42889 0.32797 0.0
H4100 H 0.93305 0.42287 0.2627 0.0
H4101 H 0.92302 0.42302 0.29089 0.0
H4102 H 0.9115 0.40907 0.23865 0.0
H4103 H 0.9114 0.4095 0.13542 0.0
H4104 H 0.60397 0.53016 0.12815 0.0
H4105 H 0.60515 0.53171 0.23061 0.0
H4106 H 0.58328 0.50295 0.2484 0.0
H4107 H 0.58207 0.5013 0.1458 0.0
H4108 H 0.58964 0.52893 0.29602 0.0
H4109 H 0.60313 0.50567 0.36522 0.0
H4110 H 0.60442 0.50996 0.29384 0.0
H4111 H 0.59337 0.50053 0.31741 0.0
C4112 C 0.59952 0.52411 0.15376 0.0
C4113 C 0.59286 0.51562 0.12881 0.0
C4114 C 0.60022 0.52501 0.2123 0.0
C4115 C 0.59434 0.51744 0.24697 0.0
C4116 C 0.58798 0.50884 0.22234 0.0
H4117 H 0.58206 0.51341 0.60599 0.0
H4118 H 0.58274 0.51 0.50618 0.0
C4119 C 0.58727 0.50792 0.16368 0.0
C4120 C 0.59418 0.51888 0.30837 0.0
H4121 H 0.59796 0.51207 0.43695 0.0
C4122 C 0.59151 0.52528 0.32685 0.0
C4123 C 0.5965 0.51401 0.34832 0.0
C4124 C 0.59959 0.5072 0.33043 0.0
C4125 C 0.59106 0.52694 0.38434 0.0
C4126 C 0.59354 0.5222 0.42437 0.0
C4127 C 0.5961 0.5157 0.40602 0.0
C4128 C 0.59361 0.52405 0.4854 0.0
C4129 C 0.58778 0.53363 0.40173 0.0
C4130 C 0.59963 0.53303 0.50678 0.0
C4131 C 0.59928 0.53498 0.56363 0.0
C4132 C 0.593 0.52796 0.60032 0.0
C4133 C 0.58713 0.51891 0.57911 0.0
C4134 C 0.58746 0.51696 0.52205 0.0
H4135 H 0.58384 0.53473 0.36742 0.0
H4136 H 0.58325 0.53105 0.43968 0.0
H4137 H 0.59395 0.54052 0.41206 0.0
H4138 H 0.60452 0.53856 0.47927 0.0
H4139 H 0.60391 0.54201 0.57889 0.0
H4140 H 0.75929 0.82022 0.20579 0.0
H4141 H 0.75867 0.81889 0.10253 0.0
H4142 H 0.72957 0.81137 0.10583 0.0
H4143 H 0.73006 0.81229 0.20825 0.0
H4144 H 0.73186 0.79949 0.04442 0.0
H4145 H 0.75826 0.83556 0.98013 0.0
H4146 H 0.76272 0.83012 0.02652 0.0
H4147 H 0.75394 0.83266 0.05139 0.0
C4148 C 0.75281 0.81839 0.18421 0.0
C4149 C 0.74472 0.8163 0.2149 0.0
C4150 C 0.75247 0.81769 0.12527 0.0
C4151 C 0.74409 0.81511 0.09635 0.0
C4152 C 0.73611 0.81333 0.12716 0.0
H4153 H 0.73256 0.81751 0.744 0.0
H4154 H 0.73675 0.82072 0.84395 0.0
C4155 C 0.7364 0.81386 0.18574 0.0
C4156 C 0.74329 0.8136 0.03449 0.0
H4157 H 0.75172 0.82421 0.90736 0.0
C4158 C 0.73621 0.80491 0.01448 0.0
C4159 C 0.74892 0.82069 0.99548 0.0
C4160 C 0.75633 0.83031 0.01433 0.0
C4161 C 0.73446 0.80315 0.95675 0.0
C4162 C 0.74021 0.81016 0.9176 0.0
C4163 C 0.74738 0.81882 0.93745 0.0
C4164 C 0.73858 0.80872 0.85604 0.0
C4165 C 0.7262 0.79393 0.9386 0.0
C4166 C 0.73847 0.80107 0.82936 0.0
C4167 C 0.73592 0.79915 0.77277 0.0
C4168 C 0.73373 0.80501 0.74146 0.0
C4169 C 0.7343 0.81294 0.76726 0.0
C4170 C 0.73669 0.81476 0.82424 0.0
H4171 H 0.72104 0.7906 0.97324 0.0
H4172 H 0.72257 0.79485 0.90189 0.0
H4173 H 0.7287 0.78905 0.92644 0.0
H4174 H 0.74016 0.79646 0.85263 0.0
H4175 H 0.73561 0.79305 0.75348 0.0
H4176 H 0.18724 0.93401 0.71115 0.0
H4177 H 0.18345 0.93519 0.80926 0.0
H4178 H 0.19358 0.91671 0.8593 0.0
H4179 H 0.19699 0.91515 0.76104 0.0
H4180 H 0.17687 0.9124 0.91051 0.0
H4181 H 0.20282 0.95034 0.92973 0.0
H4182 H 0.19437 0.94728 0.87426 0.0
H4183 H 0.20275 0.94337 0.8709 0.0
C4184 C 0.18843 0.92999 0.74266 0.0
C4185 C 0.19224 0.92432 0.72802 0.0
C4186 C 0.18641 0.93081 0.79897 0.0
C4187 C 0.18832 0.92611 0.84163 0.0
C4188 C 0.19205 0.9204 0.82704 0.0
H4189 H 0.1982 0.93381 0.19398 0.0
H4190 H 0.19864 0.93411 0.09122 0.0
C4191 C 0.19403 0.91955 0.77089 0.0
C4192 C 0.18656 0.92715 0.90175 0.0
H4193 H 0.19373 0.94287 0.01007 0.0
C4194 C 0.18049 0.91907 0.93226 0.0
C4195 C 0.19136 0.93586 0.92997 0.0
C4196 C 0.19825 0.94471 0.89981 0.0
C4197 C 0.17925 0.91941 0.99056 0.0
C4198 C 0.18408 0.92811 0.01887 0.0
C4199 C 0.18998 0.93623 0.98811 0.0
C4200 C 0.18378 0.92878 0.08108 0.0
C4201 C 0.17314 0.91038 0.02169 0.0
C4202 C 0.17532 0.92595 0.10955 0.0
C4203 C 0.17503 0.9257 0.16851 0.0
C4204 C 0.18321 0.92835 0.19991 0.0
C4205 C 0.19175 0.93166 0.17116 0.0
C4206 C 0.19202 0.93186 0.11236 0.0
H4207 H 0.17157 0.90415 0.99584 0.0
H4208 H 0.17654 0.91009 0.06145 0.0
H4209 H 0.1664 0.90996 0.03261 0.0
H4210 H 0.16891 0.92373 0.08618 0.0
H4211 H 0.16836 0.9232 0.18936 0.0
H4212 H 0.06301 0.26101 0.20985 0.0
H4213 H 0.06218 0.26154 0.10725 0.0
H4214 H 0.08098 0.25062 0.09204 0.0
H4215 H 0.08182 0.24999 0.19481 0.0
H4216 H 0.07843 0.27262 0.04248 0.0
H4217 H 0.06039 0.2354 0.97421 0.0
H4218 H 0.05958 0.23887 0.0453 0.0
H4219 H 0.06995 0.23885 0.02258 0.0
C4220 C 0.06684 0.25855 0.18478 0.0
C4221 C 0.07254 0.25552 0.21054 0.0
C4222 C 0.06635 0.25886 0.12615 0.0
C4223 C 0.07148 0.25608 0.09213 0.0
C4224 C 0.07685 0.25266 0.11756 0.0
H4225 H 0.0839 0.26294 0.732 0.0
H4226 H 0.08274 0.2586 0.83167 0.0
C4227 C 0.07735 0.25235 0.17632 0.0
C4228 C 0.07198 0.25773 0.03059 0.0
H4229 H 0.06687 0.2469 0.90224 0.0
C4230 C 0.07587 0.26699 0.01181 0.0
C4231 C 0.06875 0.25038 0.99082 0.0
C4232 C 0.06436 0.24029 0.009 0.0
C4233 C 0.07661 0.26913 0.95425 0.0
C4234 C 0.07319 0.26178 0.91439 0.0
C4235 C 0.06944 0.25251 0.93302 0.0
C4236 C 0.0733 0.26364 0.85332 0.0
C4237 C 0.08116 0.27926 0.93657 0.0
C4238 C 0.06821 0.26771 0.83241 0.0
C4239 C 0.06884 0.27017 0.77566 0.0
C4240 C 0.07445 0.26846 0.73852 0.0
C4241 C 0.07934 0.26414 0.75918 0.0
C4242 C 0.07874 0.26171 0.81619 0.0
H4243 H 0.08559 0.28404 0.97068 0.0
H4244 H 0.08556 0.28059 0.89844 0.0
H4245 H 0.07564 0.28101 0.92647 0.0
H4246 H 0.06386 0.26913 0.86025 0.0
H4247 H 0.06495 0.27344 0.76087 0.0
H4248 H 0.1989 0.28233 0.772 0.0
H4249 H 0.1953 0.27747 0.87046 0.0
H4250 H 0.18302 0.24857 0.82042 0.0
H4251 H 0.18693 0.25339 0.72213 0.0
H4252 H 0.17802 0.26574 0.92152 0.0
H4253 H 0.20224 0.25159 0.94032 0.0
H4254 H 0.20274 0.25886 0.88207 0.0
H4255 H 0.19379 0.24675 0.88442 0.0
C4256 C 0.19542 0.27494 0.78195 0.0
C4257 C 0.19304 0.26824 0.73911 0.0
C4258 C 0.19334 0.27217 0.83815 0.0
C4259 C 0.18894 0.26267 0.8527 0.0
C4260 C 0.18648 0.25594 0.81008 0.0
H4261 H 0.16871 0.24611 0.2004 0.0
H4262 H 0.16921 0.24607 0.09717 0.0
C4263 C 0.18858 0.25871 0.75374 0.0
C4264 C 0.18707 0.25991 0.91275 0.0
H4265 H 0.19348 0.25065 0.02094 0.0
C4266 C 0.18132 0.26235 0.94325 0.0
C4267 C 0.19145 0.25556 0.94085 0.0
C4268 C 0.19796 0.25309 0.91052 0.0
C4269 C 0.18001 0.26078 0.0015 0.0
C4270 C 0.18445 0.2565 0.02972 0.0
C4271 C 0.19002 0.25385 0.99898 0.0
C4272 C 0.18414 0.25558 0.09187 0.0
C4273 C 0.17424 0.26412 0.03275 0.0
C4274 C 0.19243 0.26061 0.12295 0.0
C4275 C 0.19218 0.2606 0.18172 0.0
C4276 C 0.18363 0.25555 0.21061 0.0
C4277 C 0.1754 0.25013 0.17941 0.0
C4278 C 0.17566 0.25014 0.12046 0.0
H4279 H 0.17285 0.26889 0.0067 0.0
H4280 H 0.16741 0.25799 0.04454 0.0
H4281 H 0.17783 0.26783 0.07207 0.0
H4282 H 0.19905 0.26482 0.10166 0.0
H4283 H 0.19867 0.26479 0.20442 0.0
H4284 H 0.73214 0.91325 0.73912 0.0
H4285 H 0.73596 0.91379 0.83934 0.0
H4286 H 0.73259 0.93791 0.86111 0.0
H4287 H 0.72865 0.93731 0.76123 0.0
H4288 H 0.7499 0.92746 0.90521 0.0
H4289 H 0.7149 0.92001 0.97843 0.0
H4290 H 0.71726 0.91867 0.90583 0.0
H4291 H 0.72056 0.93007 0.93345 0.0
C4292 C 0.73234 0.91874 0.76514 0.0
C4293 C 0.73016 0.92528 0.74245 0.0
C4294 C 0.73448 0.91901 0.82239 0.0
C4295 C 0.73443 0.92581 0.85779 0.0
C4296 C 0.73247 0.93248 0.83482 0.0
H4297 H 0.74247 0.93728 0.21603 0.0
H4298 H 0.74223 0.93883 0.11359 0.0
C4299 C 0.73025 0.93215 0.77779 0.0
C4300 C 0.73625 0.92582 0.91893 0.0
H4301 H 0.72661 0.92437 0.04848 0.0
C4302 C 0.74481 0.92676 0.93658 0.0
C4303 C 0.72956 0.92485 0.95973 0.0
C4304 C 0.72002 0.92325 0.94351 0.0
C4305 C 0.7469 0.92691 0.99408 0.0
C4306 C 0.74026 0.92606 0.03465 0.0
C4307 C 0.73172 0.92512 0.01706 0.0
C4308 C 0.7418 0.92576 0.09578 0.0
C4309 C 0.75623 0.92807 0.01121 0.0
C4310 C 0.74179 0.91797 0.11943 0.0
C4311 C 0.74186 0.91702 0.17793 0.0
C4312 C 0.74193 0.92386 0.21369 0.0
C4313 C 0.7424 0.93188 0.1897 0.0
C4314 C 0.74227 0.93278 0.13121 0.0
H4315 H 0.76128 0.93051 0.97562 0.0
H4316 H 0.75929 0.93312 0.04659 0.0
H4317 H 0.75521 0.92123 0.02592 0.0
H4318 H 0.7413 0.91242 0.0927 0.0
H4319 H 0.7415 0.91077 0.19507 0.0
H4320 H 0.08433 0.80227 0.76206 0.0
H4321 H 0.0827 0.80554 0.86054 0.0
H4322 H 0.06452 0.81605 0.81079 0.0
H4323 H 0.06575 0.81239 0.71254 0.0
H4324 H 0.08716 0.82214 0.91282 0.0
H4325 H 0.04908 0.79669 0.93016 0.0
H4326 H 0.05604 0.79674 0.87133 0.0
H4327 H 0.05226 0.80523 0.87514 0.0
C4328 C 0.07998 0.80528 0.77203 0.0
C4329 C 0.07531 0.80722 0.72919 0.0
C4330 C 0.07909 0.80718 0.82831 0.0
C4331 C 0.07344 0.81098 0.84305 0.0
C4332 C 0.06884 0.81303 0.80042 0.0
H4333 H 0.07631 0.83134 0.18938 0.0
H4334 H 0.07592 0.83061 0.08623 0.0
C4335 C 0.0697 0.81109 0.74401 0.0
C4336 C 0.07237 0.81269 0.90324 0.0
H4337 H 0.05649 0.80582 0.0106 0.0
C4338 C 0.08045 0.81863 0.93418 0.0
C4339 C 0.06361 0.80803 0.931 0.0
C4340 C 0.05475 0.80125 0.90046 0.0
C4341 C 0.08004 0.8199 0.99239 0.0
C4342 C 0.07128 0.81525 0.02019 0.0
C4343 C 0.06318 0.80945 0.98904 0.0
C4344 C 0.07052 0.81567 0.08229 0.0
C4345 C 0.08906 0.82588 0.02397 0.0
C4346 C 0.06718 0.80745 0.11419 0.0
C4347 C 0.06729 0.80783 0.17299 0.0
C4348 C 0.07077 0.81644 0.20111 0.0
C4349 C 0.07367 0.82461 0.16904 0.0
C4350 C 0.07351 0.82421 0.1101 0.0
H4351 H 0.09529 0.82723 0.99874 0.0
H4352 H 0.08966 0.83272 0.0341 0.0
H4353 H 0.08917 0.82249 0.06418 0.0
H4354 H 0.06479 0.80078 0.09358 0.0
H4355 H 0.06495 0.80139 0.19631 0.0
H4356 H 0.90593 0.51182 0.1516 0.0
H4357 H 0.90648 0.51349 0.25479 0.0
H4358 H 0.93633 0.52452 0.25128 0.0
H4359 H 0.93589 0.52322 0.14905 0.0
H4360 H 0.91198 0.50636 0.33943 0.0
H4361 H 0.93487 0.54474 0.33602 0.0
H4362 H 0.9293 0.53811 0.27327 0.0
H4363 H 0.94012 0.53917 0.29798 0.0
C4364 C 0.91259 0.51461 0.17303 0.0
C4365 C 0.92088 0.51753 0.14227 0.0
C4366 C 0.9129 0.51555 0.23185 0.0
C4367 C 0.92149 0.51937 0.26057 0.0
C4368 C 0.92968 0.52187 0.22993 0.0
H4369 H 0.93415 0.51542 0.60833 0.0
H4370 H 0.92931 0.51239 0.5093 0.0
C4371 C 0.9294 0.52107 0.17144 0.0
C4372 C 0.92204 0.5208 0.32249 0.0
H4373 H 0.93436 0.5371 0.42323 0.0
C4374 C 0.91676 0.51311 0.35792 0.0
C4375 C 0.92811 0.52965 0.34666 0.0
C4376 C 0.93333 0.5384 0.31144 0.0
C4377 C 0.91774 0.51394 0.41685 0.0
C4378 C 0.9244 0.52263 0.44071 0.0
C4379 C 0.92935 0.5304 0.4052 0.0
C4380 C 0.92656 0.5239 0.50202 0.0
C4381 C 0.91158 0.50552 0.45267 0.0
C4382 C 0.92687 0.5315 0.53072 0.0
C4383 C 0.92992 0.53339 0.58654 0.0
C4384 C 0.93254 0.52762 0.61513 0.0
C4385 C 0.93202 0.51987 0.58722 0.0
C4386 C 0.92917 0.5181 0.53084 0.0
H4387 H 0.90488 0.50079 0.43091 0.0
H4388 H 0.9152 0.50148 0.46043 0.0
H4389 H 0.90998 0.50759 0.49389 0.0
H4390 H 0.92493 0.53609 0.50953 0.0
H4391 H 0.93025 0.5394 0.60738 0.0
H4392 H 0.47927 0.3991 0.61126 0.0
H4393 H 0.4834 0.39825 0.51332 0.0
H4394 H 0.47357 0.41702 0.46427 0.0
H4395 H 0.46978 0.4182 0.56234 0.0
H4396 H 0.47183 0.39195 0.42134 0.0
H4397 H 0.49916 0.42892 0.38962 0.0
H4398 H 0.49503 0.42398 0.4587 0.0
H4399 H 0.4885 0.42782 0.41659 0.0
C4400 C 0.47827 0.40329 0.58006 0.0
C4401 C 0.47446 0.40894 0.59494 0.0
C4402 C 0.48052 0.4027 0.52389 0.0
C4403 C 0.47899 0.40774 0.48166 0.0
C4404 C 0.47505 0.41327 0.49633 0.0
H4405 H 0.46895 0.39914 0.12903 0.0
H4406 H 0.46837 0.39849 0.23168 0.0
C4407 C 0.47282 0.41387 0.55236 0.0
C4408 C 0.48105 0.40689 0.42178 0.0
H4409 H 0.49236 0.41987 0.30582 0.0
C4410 C 0.47642 0.39804 0.3962 0.0
C4411 C 0.48717 0.4148 0.38924 0.0
C4412 C 0.49283 0.4244 0.41507 0.0
C4413 C 0.47738 0.39695 0.3383 0.0
C4414 C 0.48298 0.40496 0.305 0.0
C4415 C 0.48798 0.41374 0.33118 0.0
C4416 C 0.48332 0.40451 0.24261 0.0
C4417 C 0.47235 0.38724 0.31336 0.0
C4418 C 0.49193 0.40819 0.21441 0.0
C4419 C 0.4923 0.40867 0.1555 0.0
C4420 C 0.48406 0.40552 0.12373 0.0
C4421 C 0.47543 0.40159 0.15211 0.0
C4422 C 0.47507 0.40115 0.21091 0.0
H4423 H 0.47111 0.38185 0.34559 0.0
H4424 H 0.46543 0.38576 0.29724 0.0
H4425 H 0.47636 0.38656 0.27789 0.0
H4426 H 0.49838 0.41088 0.23805 0.0
H4427 H 0.49906 0.41174 0.13501 0.0
H4428 H 0.58557 0.08456 0.15414 0.0
H4429 H 0.58656 0.08462 0.25705 0.0
H4430 H 0.60392 0.07197 0.2469 0.0
H4431 H 0.60308 0.07199 0.14418 0.0
H4432 H 0.58006 0.0687 0.32169 0.0
H4433 H 0.61776 0.09253 0.36316 0.0
H4434 H 0.61238 0.09223 0.29632 0.0
H4435 H 0.61564 0.08359 0.31259 0.0
C4436 C 0.58975 0.08195 0.17373 0.0
C4437 C 0.59422 0.07824 0.14089 0.0
C4438 C 0.59029 0.08199 0.23257 0.0
C4439 C 0.59539 0.07839 0.25964 0.0
C4440 C 0.60011 0.07496 0.22693 0.0
H4441 H 0.6006 0.05956 0.5859 0.0
H4442 H 0.60164 0.06435 0.48741 0.0
C4443 C 0.59956 0.07491 0.16814 0.0
C4444 C 0.59506 0.0774 0.32185 0.0
H4445 H 0.6088 0.08235 0.43888 0.0
C4446 C 0.58633 0.0718 0.34751 0.0
C4447 C 0.60325 0.08143 0.35534 0.0
C4448 C 0.61278 0.08786 0.33056 0.0
C4449 C 0.58559 0.06978 0.40537 0.0
C4450 C 0.5938 0.07361 0.43861 0.0
C4451 C 0.60252 0.07942 0.41325 0.0
C4452 C 0.59352 0.07122 0.49906 0.0
C4453 C 0.57606 0.06324 0.42994 0.0
C4454 C 0.58869 0.0736 0.53842 0.0
C4455 C 0.58804 0.07083 0.59476 0.0
C4456 C 0.5923 0.06572 0.61278 0.0
C4457 C 0.59725 0.06349 0.57334 0.0
C4458 C 0.59789 0.06626 0.51713 0.0
H4459 H 0.57078 0.05935 0.3967 0.0
H4460 H 0.57637 0.05811 0.45881 0.0
H4461 H 0.57365 0.06736 0.45457 0.0
H4462 H 0.58533 0.07749 0.52539 0.0
H4463 H 0.58396 0.07244 0.62353 0.0
loop_
_geom_bond_atom_site_label_1
_geom_bond_atom_site_label_2
_geom_bond_distance
_geom_bond_site_symmetry_2
_ccdc_geom_bond_type
Co0 O3 1.970 . S
Co0 N17 1.989 . S
Co0 O25 1.967 . S
Co0 O32 1.920 . S
Co1 O4 1.966 . S
Co1 N10 2.022 . S
Co1 N18 1.993 . S
Co1 O26 1.941 . S
C2 O3 1.258 . S
C2 O4 1.263 . S
O3 Co0 1.970 . S
O3 C2 1.258 . S
O4 Co1 1.966 . S
O4 C2 1.263 . S
C5 O6 1.235 . S
C5 O32 1.289 . S
O6 C5 1.235 . S
C7 C9 1.400 1_554 S
C7 N10 1.351 . S
C7 C12 1.501 . S
C8 C9 1.387 . S
C8 N11 1.341 1_556 S
C9 C7 1.400 1_556 S
C9 C8 1.387 . S
N10 Co1 2.022 . S
N10 C7 1.351 . S
N10 N11 1.365 . S
N11 C8 1.341 1_554 S
N11 N10 1.365 . S
N11 H31 0.862 . S
C12 C7 1.501 . S
C12 H13 0.961 . S
C12 H14 0.961 . S
C12 H15 0.960 . S
H13 C12 0.961 . S
H14 C12 0.961 . S
H15 C12 0.960 . S
C16 N17 1.342 . S
C16 C20 1.401 . S
C16 C21 1.499 . S
N17 Co0 1.989 . S
N17 C16 1.342 . S
N17 N18 1.388 . S
N18 Co1 1.993 . S
N18 N17 1.388 . S
N18 C19 1.346 . S
C19 N18 1.346 . S
C19 C20 1.396 . S
C19 C29 1.510 . S
C20 C16 1.401 . S
C20 C19 1.396 . S
C21 C16 1.499 . S
C21 H22 0.959 . S
C21 H23 0.960 . S
C21 H24 0.961 . S
H22 C21 0.959 . S
H23 C21 0.960 . S
H24 C21 0.961 . S
O25 Co0 1.967 . S
O25 C33 1.258 . S
O26 Co1 1.941 . S
O26 C33 1.266 . S
H27 C29 0.959 . S
H28 C29 0.961 . S
C29 C19 1.510 . S
C29 H27 0.959 . S
C29 H28 0.961 . S
C29 H30 0.960 . S
H30 C29 0.960 . S
H31 N11 0.862 . S
O32 Co0 1.920 . S
O32 C5 1.289 . S
C33 O25 1.258 . S
C33 O26 1.266 . S
Co34 O37 1.970 . S
Co34 N51 1.989 . S
Co34 O59 1.967 . S
Co34 O66 1.920 . S
Co35 O38 1.966 . S
Co35 N44 2.022 . S
Co35 N52 1.993 . S
Co35 O60 1.941 . S
C36 O37 1.258 . S
C36 O38 1.263 . S
O37 Co34 1.970 . S
O37 C36 1.258 . S
O38 Co35 1.966 . S
O38 C36 1.263 . S
C39 O40 1.235 . S
C39 O66 1.289 . S
O40 C39 1.235 . S
C41 C43 1.400 1_554 S
C41 N44 1.351 . S
C41 C46 1.501 . S
C42 C43 1.387 . S
C42 N45 1.341 1_556 S
C43 C41 1.400 1_556 S
C43 C42 1.387 . S
N44 Co35 2.022 . S
N44 C41 1.351 . S
N44 N45 1.365 . S
N45 C42 1.341 1_554 S
N45 N44 1.365 . S
N45 H65 0.862 . S
C46 C41 1.501 . S
C46 H47 0.961 . S
C46 H48 0.961 . S
C46 H49 0.960 . S
H47 C46 0.961 . S
H48 C46 0.961 . S
H49 C46 0.960 . S
C50 N51 1.342 . S
C50 C54 1.401 . S
C50 C55 1.499 . S
N51 Co34 1.989 . S
N51 C50 1.342 . S
N51 N52 1.388 . S
N52 Co35 1.993 . S
N52 N51 1.388 . S
N52 C53 1.346 . S
C53 N52 1.346 . S
C53 C54 1.396 . S
C53 C63 1.510 . S
C54 C50 1.401 . S
C54 C53 1.396 . S
C55 C50 1.499 . S
C55 H56 0.959 . S
C55 H57 0.960 . S
C55 H58 0.961 . S
H56 C55 0.959 . S
H57 C55 0.960 . S
H58 C55 0.961 . S
O59 Co34 1.967 . S
O59 C67 1.258 . S
O60 Co35 1.941 . S
O60 C67 1.266 . S
H61 C63 0.959 . S
H62 C63 0.961 . S
C63 C53 1.510 . S
C63 H61 0.959 . S
C63 H62 0.961 . S
C63 H64 0.960 . S
H64 C63 0.960 . S
H65 N45 0.862 . S
O66 Co34 1.920 . S
O66 C39 1.289 . S
C67 O59 1.258 . S
C67 O60 1.266 . S
Co68 O71 1.970 . S
Co68 N85 1.989 . S
Co68 O93 1.967 . S
Co68 O100 1.920 . S
Co69 O72 1.966 . S
Co69 N78 2.022 . S
Co69 N86 1.993 . S
Co69 O94 1.941 . S
C70 O71 1.258 . S
C70 O72 1.263 . S
O71 Co68 1.970 . S
O71 C70 1.258 . S
O72 Co69 1.966 . S
O72 C70 1.263 . S
C73 O74 1.235 . S
C73 O100 1.289 . S
O74 C73 1.235 . S
C75 C77 1.400 1_554 S
C75 N78 1.351 . S
C75 C80 1.501 . S
C76 C77 1.387 . S
C76 N79 1.341 1_556 S
C77 C75 1.400 1_556 S
C77 C76 1.387 . S
N78 Co69 2.022 . S
N78 C75 1.351 . S
N78 N79 1.365 . S
N79 C76 1.341 1_554 S
N79 N78 1.365 . S
N79 H99 0.862 . S
C80 C75 1.501 . S
C80 H81 0.961 . S
C80 H82 0.961 . S
C80 H83 0.960 . S
H81 C80 0.961 . S
H82 C80 0.961 . S
H83 C80 0.960 . S
C84 N85 1.342 . S
C84 C88 1.401 . S
C84 C89 1.499 . S
N85 Co68 1.989 . S
N85 C84 1.342 . S
N85 N86 1.388 . S
N86 Co69 1.993 . S
N86 N85 1.388 . S
N86 C87 1.346 . S
C87 N86 1.346 . S
C87 C88 1.396 . S
C87 C97 1.510 . S
C88 C84 1.401 . S
C88 C87 1.396 . S
C89 C84 1.499 . S
C89 H90 0.959 . S
C89 H91 0.960 . S
C89 H92 0.961 . S
H90 C89 0.959 . S
H91 C89 0.960 . S
H92 C89 0.961 . S
O93 Co68 1.967 . S
O93 C101 1.258 . S
O94 Co69 1.941 . S
O94 C101 1.266 . S
H95 C97 0.959 . S
H96 C97 0.961 . S
C97 C87 1.510 . S
C97 H95 0.959 . S
C97 H96 0.961 . S
C97 H98 0.960 . S
H98 C97 0.960 . S
H99 N79 0.862 . S
O100 Co68 1.920 . S
O100 C73 1.289 . S
C101 O93 1.258 . S
C101 O94 1.266 . S
Co102 O105 1.970 . S
Co102 N119 1.989 . S
Co102 O127 1.967 . S
Co102 O134 1.920 . S
Co103 O106 1.966 . S
Co103 N112 2.022 . S
Co103 N120 1.993 . S
Co103 O128 1.941 . S
C104 O105 1.258 . S
C104 O106 1.263 . S
O105 Co102 1.970 . S
O105 C104 1.258 . S
O106 Co103 1.966 . S
O106 C104 1.263 . S
C107 O108 1.235 . S
C107 O134 1.289 . S
O108 C107 1.235 . S
C109 C111 1.400 1_556 S
C109 N112 1.351 . S
C109 C114 1.501 . S
C110 C111 1.387 . S
C110 N113 1.341 1_554 S
C111 C109 1.400 1_554 S
C111 C110 1.387 . S
N112 Co103 2.022 . S
N112 C109 1.351 . S
N112 N113 1.365 . S
N113 C110 1.341 1_556 S
N113 N112 1.365 . S
N113 H133 0.862 . S
C114 C109 1.501 . S
C114 H115 0.961 . S
C114 H116 0.961 . S
C114 H117 0.960 . S
H115 C114 0.961 . S
H116 C114 0.961 . S
H117 C114 0.960 . S
C118 N119 1.342 . S
C118 C122 1.401 . S
C118 C123 1.499 . S
N119 Co102 1.989 . S
N119 C118 1.342 . S
N119 N120 1.388 . S
N120 Co103 1.993 . S
N120 N119 1.388 . S
N120 C121 1.346 . S
C121 N120 1.346 . S
C121 C122 1.396 . S
C121 C131 1.510 . S
C122 C118 1.401 . S
C122 C121 1.396 . S
C123 C118 1.499 . S
C123 H124 0.959 . S
C123 H125 0.960 . S
C123 H126 0.961 . S
H124 C123 0.959 . S
H125 C123 0.960 . S
H126 C123 0.961 . S
O127 Co102 1.967 . S
O127 C135 1.258 . S
O128 Co103 1.941 . S
O128 C135 1.266 . S
H129 C131 0.959 . S
H130 C131 0.961 . S
C131 C121 1.510 . S
C131 H129 0.959 . S
C131 H130 0.961 . S
C131 H132 0.960 . S
H132 C131 0.960 . S
H133 N113 0.862 . S
O134 Co102 1.920 . S
O134 C107 1.289 . S
C135 O127 1.258 . S
C135 O128 1.266 . S
Co136 O139 1.970 . S
Co136 N153 1.989 . S
Co136 O161 1.967 . S
Co136 O168 1.920 . S
Co137 O140 1.966 . S
Co137 N146 2.022 . S
Co137 N154 1.993 . S
Co137 O162 1.941 . S
C138 O139 1.258 . S
C138 O140 1.263 . S
O139 Co136 1.970 . S
O139 C138 1.258 . S
O140 Co137 1.966 . S
O140 C138 1.263 . S
C141 O142 1.235 . S
C141 O168 1.289 . S
O142 C141 1.235 . S
C143 C145 1.400 1_556 S
C143 N146 1.351 . S
C143 C148 1.501 . S
C144 C145 1.387 . S
C144 N147 1.341 1_554 S
C145 C143 1.400 1_554 S
C145 C144 1.387 . S
N146 Co137 2.022 . S
N146 C143 1.351 . S
N146 N147 1.365 . S
N147 C144 1.341 1_556 S
N147 N146 1.365 . S
N147 H167 0.862 . S
C148 C143 1.501 . S
C148 H149 0.961 . S
C148 H150 0.961 . S
C148 H151 0.960 . S
H149 C148 0.961 . S
H150 C148 0.961 . S
H151 C148 0.960 . S
C152 N153 1.342 . S
C152 C156 1.401 . S
C152 C157 1.499 . S
N153 Co136 1.989 . S
N153 C152 1.342 . S
N153 N154 1.388 . S
N154 Co137 1.993 . S
N154 N153 1.388 . S
N154 C155 1.346 . S
C155 N154 1.346 . S
C155 C156 1.396 . S
C155 C165 1.510 . S
C156 C152 1.401 . S
C156 C155 1.396 . S
C157 C152 1.499 . S
C157 H158 0.959 . S
C157 H159 0.960 . S
C157 H160 0.961 . S
H158 C157 0.959 . S
H159 C157 0.960 . S
H160 C157 0.961 . S
O161 Co136 1.967 . S
O161 C169 1.258 . S
O162 Co137 1.941 . S
O162 C169 1.266 . S
H163 C165 0.959 . S
H164 C165 0.961 . S
C165 C155 1.510 . S
C165 H163 0.959 . S
C165 H164 0.961 . S
C165 H166 0.960 . S
H166 C165 0.960 . S
H167 N147 0.862 . S
O168 Co136 1.920 . S
O168 C141 1.289 . S
C169 O161 1.258 . S
C169 O162 1.266 . S
Co170 O173 1.970 . S
Co170 N187 1.989 . S
Co170 O195 1.967 . S
Co170 O202 1.920 . S
Co171 O174 1.966 . S
Co171 N180 2.022 . S
Co171 N188 1.993 . S
Co171 O196 1.941 . S
C172 O173 1.258 . S
C172 O174 1.263 . S
O173 Co170 1.970 . S
O173 C172 1.258 . S
O174 Co171 1.966 . S
O174 C172 1.263 . S
C175 O176 1.235 . S
C175 O202 1.289 . S
O176 C175 1.235 . S
C177 C179 1.400 1_556 S
C177 N180 1.351 . S
C177 C182 1.501 . S
C178 C179 1.387 . S
C178 N181 1.341 1_554 S
C179 C177 1.400 1_554 S
C179 C178 1.387 . S
N180 Co171 2.022 . S
N180 C177 1.351 . S
N180 N181 1.365 . S
N181 C178 1.341 1_556 S
N181 N180 1.365 . S
N181 H201 0.862 . S
C182 C177 1.501 . S
C182 H183 0.961 . S
C182 H184 0.961 . S
C182 H185 0.960 . S
H183 C182 0.961 . S
H184 C182 0.961 . S
H185 C182 0.960 . S
C186 N187 1.342 . S
C186 C190 1.401 . S
C186 C191 1.499 . S
N187 Co170 1.989 . S
N187 C186 1.342 . S
N187 N188 1.388 . S
N188 Co171 1.993 . S
N188 N187 1.388 . S
N188 C189 1.346 . S
C189 N188 1.346 . S
C189 C190 1.396 . S
C189 C199 1.510 . S
C190 C186 1.401 . S
C190 C189 1.396 . S
C191 C186 1.499 . S
C191 H192 0.959 . S
C191 H193 0.960 . S
C191 H194 0.961 . S
H192 C191 0.959 . S
H193 C191 0.960 . S
H194 C191 0.961 . S
O195 Co170 1.967 . S
O195 C203 1.258 . S
O196 Co171 1.941 . S
O196 C203 1.266 . S
H197 C199 0.959 . S
H198 C199 0.961 . S
C199 C189 1.510 . S
C199 H197 0.959 . S
C199 H198 0.961 . S
C199 H200 0.960 . S
H200 C199 0.960 . S
H201 N181 0.862 . S
O202 Co170 1.920 . S
O202 C175 1.289 . S
C203 O195 1.258 . S
C203 O196 1.266 . S
Co204 O207 1.970 . S
Co204 N221 1.989 . S
Co204 O229 1.967 . S
Co204 O236 1.920 . S
Co205 O208 1.966 . S
Co205 N214 2.022 . S
Co205 N222 1.993 . S
Co205 O230 1.941 . S
C206 O207 1.258 . S
C206 O208 1.263 . S
O207 Co204 1.970 . S
O207 C206 1.258 . S
O208 Co205 1.966 . S
O208 C206 1.263 . S
C209 O210 1.235 . S
C209 O236 1.289 . S
O210 C209 1.235 . S
C211 C213 1.400 1_556 S
C211 N214 1.351 . S
C211 C216 1.501 . S
C212 C213 1.387 . S
C212 N215 1.341 1_554 S
C213 C211 1.400 1_554 S
C213 C212 1.387 . S
N214 Co205 2.022 . S
N214 C211 1.351 . S
N214 N215 1.365 . S
N215 C212 1.341 1_556 S
N215 N214 1.365 . S
N215 H235 0.862 . S
C216 C211 1.501 . S
C216 H217 0.961 . S
C216 H218 0.961 . S
C216 H219 0.960 . S
H217 C216 0.961 . S
H218 C216 0.961 . S
H219 C216 0.960 . S
C220 N221 1.342 . S
C220 C224 1.401 . S
C220 C225 1.499 . S
N221 Co204 1.989 . S
N221 C220 1.342 . S
N221 N222 1.388 . S
N222 Co205 1.993 . S
N222 N221 1.388 . S
N222 C223 1.346 . S
C223 N222 1.346 . S
C223 C224 1.396 . S
C223 C233 1.510 . S
C224 C220 1.401 . S
C224 C223 1.396 . S
C225 C220 1.499 . S
C225 H226 0.959 . S
C225 H227 0.960 . S
C225 H228 0.961 . S
H226 C225 0.959 . S
H227 C225 0.960 . S
H228 C225 0.961 . S
O229 Co204 1.967 . S
O229 C237 1.258 . S
O230 Co205 1.941 . S
O230 C237 1.266 . S
H231 C233 0.959 . S
H232 C233 0.961 . S
C233 C223 1.510 . S
C233 H231 0.959 . S
C233 H232 0.961 . S
C233 H234 0.960 . S
H234 C233 0.960 . S
H235 N215 0.862 . S
O236 Co204 1.920 . S
O236 C209 1.289 . S
C237 O229 1.258 . S
C237 O230 1.266 . S
Co238 O241 1.970 . S
Co238 N255 1.989 . S
Co238 O263 1.967 . S
Co238 O270 1.920 . S
Co239 O242 1.966 . S
Co239 N248 2.022 . S
Co239 N256 1.993 . S
Co239 O264 1.941 . S
C240 O241 1.258 . S
C240 O242 1.263 . S
O241 Co238 1.970 . S
O241 C240 1.258 . S
O242 Co239 1.966 . S
O242 C240 1.263 . S
C243 O244 1.235 . S
C243 O270 1.289 . S
O244 C243 1.235 . S
C245 C247 1.400 1_556 S
C245 N248 1.351 . S
C245 C250 1.501 . S
C246 C247 1.387 . S
C246 N249 1.341 1_554 S
C247 C245 1.400 1_554 S
C247 C246 1.387 . S
N248 Co239 2.022 . S
N248 C245 1.351 . S
N248 N249 1.365 . S
N249 C246 1.341 1_556 S
N249 N248 1.365 . S
N249 H269 0.862 . S
C250 C245 1.501 . S
C250 H251 0.961 . S
C250 H252 0.961 . S
C250 H253 0.960 . S
H251 C250 0.961 . S
H252 C250 0.961 . S
H253 C250 0.960 . S
C254 N255 1.342 . S
C254 C258 1.401 . S
C254 C259 1.499 . S
N255 Co238 1.989 . S
N255 C254 1.342 . S
N255 N256 1.388 . S
N256 Co239 1.993 . S
N256 N255 1.388 . S
N256 C257 1.346 . S
C257 N256 1.346 . S
C257 C258 1.396 . S
C257 C267 1.510 . S
C258 C254 1.401 . S
C258 C257 1.396 . S
C259 C254 1.499 . S
C259 H260 0.959 . S
C259 H261 0.960 . S
C259 H262 0.961 . S
H260 C259 0.959 . S
H261 C259 0.960 . S
H262 C259 0.961 . S
O263 Co238 1.967 . S
O263 C271 1.258 . S
O264 Co239 1.941 . S
O264 C271 1.266 . S
H265 C267 0.959 . S
H266 C267 0.961 . S
C267 C257 1.510 . S
C267 H265 0.959 . S
C267 H266 0.961 . S
C267 H268 0.960 . S
H268 C267 0.960 . S
H269 N249 0.862 . S
O270 Co238 1.920 . S
O270 C243 1.289 . S
C271 O263 1.258 . S
C271 O264 1.266 . S
Co272 O275 1.970 . S
Co272 N289 1.989 . S
Co272 O297 1.967 . S
Co272 O304 1.920 . S
Co273 O276 1.966 . S
Co273 N282 2.022 . S
Co273 N290 1.993 . S
Co273 O298 1.941 . S
C274 O275 1.258 . S
C274 O276 1.263 . S
O275 Co272 1.970 . S
O275 C274 1.258 . S
O276 Co273 1.966 . S
O276 C274 1.263 . S
C277 O278 1.235 . S
C277 O304 1.289 . S
O278 C277 1.235 . S
C279 C281 1.400 1_556 S
C279 N282 1.351 . S
C279 C284 1.501 . S
C280 C281 1.387 . S
C280 N283 1.341 1_554 S
C281 C279 1.400 1_554 S
C281 C280 1.387 . S
N282 Co273 2.022 . S
N282 C279 1.351 . S
N282 N283 1.365 . S
N283 C280 1.341 1_556 S
N283 N282 1.365 . S
N283 H303 0.862 . S
C284 C279 1.501 . S
C284 H285 0.961 . S
C284 H286 0.961 . S
C284 H287 0.960 . S
H285 C284 0.961 . S
H286 C284 0.961 . S
H287 C284 0.960 . S
C288 N289 1.342 . S
C288 C292 1.401 . S
C288 C293 1.499 . S
N289 Co272 1.989 . S
N289 C288 1.342 . S
N289 N290 1.388 . S
N290 Co273 1.993 . S
N290 N289 1.388 . S
N290 C291 1.346 . S
C291 N290 1.346 . S
C291 C292 1.396 . S
C291 C301 1.510 . S
C292 C288 1.401 . S
C292 C291 1.396 . S
C293 C288 1.499 . S
C293 H294 0.959 . S
C293 H295 0.960 . S
C293 H296 0.961 . S
H294 C293 0.959 . S
H295 C293 0.960 . S
H296 C293 0.961 . S
O297 Co272 1.967 . S
O297 C305 1.258 . S
O298 Co273 1.941 . S
O298 C305 1.266 . S
H299 C301 0.959 . S
H300 C301 0.961 . S
C301 C291 1.510 . S
C301 H299 0.959 . S
C301 H300 0.961 . S
C301 H302 0.960 . S
H302 C301 0.960 . S
H303 N283 0.862 . S
O304 Co272 1.920 . S
O304 C277 1.289 . S
C305 O297 1.258 . S
C305 O298 1.266 . S
Co306 O309 1.970 . S
Co306 N323 1.989 . S
Co306 O331 1.967 . S
Co306 O338 1.920 . S
Co307 O310 1.966 . S
Co307 N316 2.022 . S
Co307 N324 1.993 . S
Co307 O332 1.941 . S
C308 O309 1.258 . S
C308 O310 1.263 . S
O309 Co306 1.970 . S
O309 C308 1.258 . S
O310 Co307 1.966 . S
O310 C308 1.263 . S
C311 O312 1.235 . S
C311 O338 1.289 . S
O312 C311 1.235 . S
C313 C315 1.400 1_554 S
C313 N316 1.351 . S
C313 C318 1.501 . S
C314 C315 1.387 . S
C314 N317 1.341 1_556 S
C315 C313 1.400 1_556 S
C315 C314 1.387 . S
N316 Co307 2.022 . S
N316 C313 1.351 . S
N316 N317 1.365 . S
N317 C314 1.341 1_554 S
N317 N316 1.365 . S
N317 H337 0.862 . S
C318 C313 1.501 . S
C318 H319 0.961 . S
C318 H320 0.961 . S
C318 H321 0.960 . S
H319 C318 0.961 . S
H320 C318 0.961 . S
H321 C318 0.960 . S
C322 N323 1.342 . S
C322 C326 1.401 . S
C322 C327 1.499 . S
N323 Co306 1.989 . S
N323 C322 1.342 . S
N323 N324 1.388 . S
N324 Co307 1.993 . S
N324 N323 1.388 . S
N324 C325 1.346 . S
C325 N324 1.346 . S
C325 C326 1.396 . S
C325 C335 1.510 . S
C326 C322 1.401 . S
C326 C325 1.396 . S
C327 C322 1.499 . S
C327 H328 0.959 . S
C327 H329 0.960 . S
C327 H330 0.961 . S
H328 C327 0.959 . S
H329 C327 0.960 . S
H330 C327 0.961 . S
O331 Co306 1.967 . S
O331 C339 1.258 . S
O332 Co307 1.941 . S
O332 C339 1.266 . S
H333 C335 0.959 . S
H334 C335 0.961 . S
C335 C325 1.510 . S
C335 H333 0.959 . S
C335 H334 0.961 . S
C335 H336 0.960 . S
H336 C335 0.960 . S
H337 N317 0.862 . S
O338 Co306 1.920 . S
O338 C311 1.289 . S
C339 O331 1.258 . S
C339 O332 1.266 . S
Co340 O343 1.970 . S
Co340 N357 1.989 . S
Co340 O365 1.967 . S
Co340 O372 1.920 . S
Co341 O344 1.966 . S
Co341 N350 2.022 . S
Co341 N358 1.993 . S
Co341 O366 1.941 . S
C342 O343 1.258 . S
C342 O344 1.263 . S
O343 Co340 1.970 . S
O343 C342 1.258 . S
O344 Co341 1.966 . S
O344 C342 1.263 . S
C345 O346 1.235 . S
C345 O372 1.289 . S
O346 C345 1.235 . S
C347 C349 1.400 1_554 S
C347 N350 1.351 . S
C347 C352 1.501 . S
C348 C349 1.387 . S
C348 N351 1.341 1_556 S
C349 C347 1.400 1_556 S
C349 C348 1.387 . S
N350 Co341 2.022 . S
N350 C347 1.351 . S
N350 N351 1.365 . S
N351 C348 1.341 1_554 S
N351 N350 1.365 . S
N351 H371 0.862 . S
C352 C347 1.501 . S
C352 H353 0.961 . S
C352 H354 0.961 . S
C352 H355 0.960 . S
H353 C352 0.961 . S
H354 C352 0.961 . S
H355 C352 0.960 . S
C356 N357 1.342 . S
C356 C360 1.401 . S
C356 C361 1.499 . S
N357 Co340 1.989 . S
N357 C356 1.342 . S
N357 N358 1.388 . S
N358 Co341 1.993 . S
N358 N357 1.388 . S
N358 C359 1.346 . S
C359 N358 1.346 . S
C359 C360 1.396 . S
C359 C369 1.510 . S
C360 C356 1.401 . S
C360 C359 1.396 . S
C361 C356 1.499 . S
C361 H362 0.959 . S
C361 H363 0.960 . S
C361 H364 0.961 . S
H362 C361 0.959 . S
H363 C361 0.960 . S
H364 C361 0.961 . S
O365 Co340 1.967 . S
O365 C373 1.258 . S
O366 Co341 1.941 . S
O366 C373 1.266 . S
H367 C369 0.959 . S
H368 C369 0.961 . S
C369 C359 1.510 . S
C369 H367 0.959 . S
C369 H368 0.961 . S
C369 H370 0.960 . S
H370 C369 0.960 . S
H371 N351 0.862 . S
O372 Co340 1.920 . S
O372 C345 1.289 . S
C373 O365 1.258 . S
C373 O366 1.266 . S
Co374 O377 1.970 . S
Co374 N391 1.989 . S
Co374 O399 1.967 . S
Co374 O406 1.920 . S
Co375 O378 1.966 . S
Co375 N384 2.022 . S
Co375 N392 1.993 . S
Co375 O400 1.941 . S
C376 O377 1.258 . S
C376 O378 1.263 . S
O377 Co374 1.970 . S
O377 C376 1.258 . S
O378 Co375 1.966 . S
O378 C376 1.263 . S
C379 O380 1.235 . S
C379 O406 1.289 . S
O380 C379 1.235 . S
C381 C383 1.400 1_554 S
C381 N384 1.351 . S
C381 C386 1.501 . S
C382 C383 1.387 . S
C382 N385 1.341 1_556 S
C383 C381 1.400 1_556 S
C383 C382 1.387 . S
N384 Co375 2.022 . S
N384 C381 1.351 . S
N384 N385 1.365 . S
N385 C382 1.341 1_554 S
N385 N384 1.365 . S
N385 H405 0.862 . S
C386 C381 1.501 . S
C386 H387 0.961 . S
C386 H388 0.961 . S
C386 H389 0.960 . S
H387 C386 0.961 . S
H388 C386 0.961 . S
H389 C386 0.960 . S
C390 N391 1.342 . S
C390 C394 1.401 . S
C390 C395 1.499 . S
N391 Co374 1.989 . S
N391 C390 1.342 . S
N391 N392 1.388 . S
N392 Co375 1.993 . S
N392 N391 1.388 . S
N392 C393 1.346 . S
C393 N392 1.346 . S
C393 C394 1.396 . S
C393 C403 1.510 . S
C394 C390 1.401 . S
C394 C393 1.396 . S
C395 C390 1.499 . S
C395 H396 0.959 . S
C395 H397 0.960 . S
C395 H398 0.961 . S
H396 C395 0.959 . S
H397 C395 0.960 . S
H398 C395 0.961 . S
O399 Co374 1.967 . S
O399 C407 1.258 . S
O400 Co375 1.941 . S
O400 C407 1.266 . S
H401 C403 0.959 . S
H402 C403 0.961 . S
C403 C393 1.510 . S
C403 H401 0.959 . S
C403 H402 0.961 . S
C403 H404 0.960 . S
H404 C403 0.960 . S
H405 N385 0.862 . S
O406 Co374 1.920 . S
O406 C379 1.289 . S
C407 O399 1.258 . S
C407 O400 1.266 . S
Co408 O411 1.970 . S
Co408 N425 1.989 . S
Co408 O433 1.967 . S
Co408 O440 1.920 . S
Co409 O412 1.966 . S
Co409 N418 2.022 . S
Co409 N426 1.993 . S
Co409 O434 1.941 . S
C410 O411 1.258 . S
C410 O412 1.263 . S
O411 Co408 1.970 . S
O411 C410 1.258 . S
O412 Co409 1.966 . S
O412 C410 1.263 . S
C413 O414 1.235 . S
C413 O440 1.289 . S
O414 C413 1.235 . S
C415 C417 1.400 . S
C415 N418 1.351 . S
C415 C420 1.501 . S
C416 C417 1.387 . S
C416 N419 1.341 . S
C417 C415 1.400 . S
C417 C416 1.387 . S
N418 Co409 2.022 . S
N418 C415 1.351 . S
N418 N419 1.365 . S
N419 C416 1.341 . S
N419 N418 1.365 . S
N419 H439 0.862 . S
C420 C415 1.501 . S
C420 H421 0.961 . S
C420 H422 0.961 . S
C420 H423 0.960 . S
H421 C420 0.961 . S
H422 C420 0.961 . S
H423 C420 0.960 . S
C424 N425 1.342 . S
C424 C428 1.401 . S
C424 C429 1.499 . S
N425 Co408 1.989 . S
N425 C424 1.342 . S
N425 N426 1.388 . S
N426 Co409 1.993 . S
N426 N425 1.388 . S
N426 C427 1.346 . S
C427 N426 1.346 . S
C427 C428 1.396 . S
C427 C437 1.510 . S
C428 C424 1.401 . S
C428 C427 1.396 . S
C429 C424 1.499 . S
C429 H430 0.959 . S
C429 H431 0.960 . S
C429 H432 0.961 . S
H430 C429 0.959 . S
H431 C429 0.960 . S
H432 C429 0.961 . S
O433 Co408 1.967 . S
O433 C441 1.258 . S
O434 Co409 1.941 . S
O434 C441 1.266 . S
H435 C437 0.959 . S
H436 C437 0.961 . S
C437 C427 1.510 . S
C437 H435 0.959 . S
C437 H436 0.961 . S
C437 H438 0.960 . S
H438 C437 0.960 . S
H439 N419 0.862 . S
O440 Co408 1.920 . S
O440 C413 1.289 . S
C441 O433 1.258 . S
C441 O434 1.266 . S
Co442 O445 1.970 . S
Co442 N459 1.989 . S
Co442 O467 1.967 . S
Co442 O474 1.920 . S
Co443 O446 1.966 . S
Co443 N452 2.022 . S
Co443 N460 1.993 . S
Co443 O468 1.941 . S
C444 O445 1.258 . S
C444 O446 1.263 . S
O445 Co442 1.970 . S
O445 C444 1.258 . S
O446 Co443 1.966 . S
O446 C444 1.263 . S
C447 O448 1.235 . S
C447 O474 1.289 . S
O448 C447 1.235 . S
C449 C451 1.400 . S
C449 N452 1.351 . S
C449 C454 1.501 . S
C450 C451 1.387 . S
C450 N453 1.341 . S
C451 C449 1.400 . S
C451 C450 1.387 . S
N452 Co443 2.022 . S
N452 C449 1.351 . S
N452 N453 1.365 . S
N453 C450 1.341 . S
N453 N452 1.365 . S
N453 H473 0.862 . S
C454 C449 1.501 . S
C454 H455 0.961 . S
C454 H456 0.961 . S
C454 H457 0.960 . S
H455 C454 0.961 . S
H456 C454 0.961 . S
H457 C454 0.960 . S
C458 N459 1.342 . S
C458 C462 1.401 . S
C458 C463 1.499 . S
N459 Co442 1.989 . S
N459 C458 1.342 . S
N459 N460 1.388 . S
N460 Co443 1.993 . S
N460 N459 1.388 . S
N460 C461 1.346 . S
C461 N460 1.346 . S
C461 C462 1.396 . S
C461 C471 1.510 . S
C462 C458 1.401 . S
C462 C461 1.396 . S
C463 C458 1.499 . S
C463 H464 0.959 . S
C463 H465 0.960 . S
C463 H466 0.961 . S
H464 C463 0.959 . S
H465 C463 0.960 . S
H466 C463 0.961 . S
O467 Co442 1.967 . S
O467 C475 1.258 . S
O468 Co443 1.941 . S
O468 C475 1.266 . S
H469 C471 0.959 . S
H470 C471 0.961 . S
C471 C461 1.510 . S
C471 H469 0.959 . S
C471 H470 0.961 . S
C471 H472 0.960 . S
H472 C471 0.960 . S
H473 N453 0.862 . S
O474 Co442 1.920 . S
O474 C447 1.289 . S
C475 O467 1.258 . S
C475 O468 1.266 . S
Co476 O479 1.970 . S
Co476 N493 1.989 . S
Co476 O501 1.967 . S
Co476 O508 1.920 . S
Co477 O480 1.966 . S
Co477 N486 2.022 . S
Co477 N494 1.993 . S
Co477 O502 1.941 . S
C478 O479 1.258 . S
C478 O480 1.263 . S
O479 Co476 1.970 . S
O479 C478 1.258 . S
O480 Co477 1.966 . S
O480 C478 1.263 . S
C481 O482 1.235 . S
C481 O508 1.289 . S
O482 C481 1.235 . S
C483 C485 1.400 . S
C483 N486 1.351 . S
C483 C488 1.501 . S
C484 C485 1.387 . S
C484 N487 1.341 . S
C485 C483 1.400 . S
C485 C484 1.387 . S
N486 Co477 2.022 . S
N486 C483 1.351 . S
N486 N487 1.365 . S
N487 C484 1.341 . S
N487 N486 1.365 . S
N487 H507 0.862 . S
C488 C483 1.501 . S
C488 H489 0.961 . S
C488 H490 0.961 . S
C488 H491 0.960 . S
H489 C488 0.961 . S
H490 C488 0.961 . S
H491 C488 0.960 . S
C492 N493 1.342 . S
C492 C496 1.401 . S
C492 C497 1.499 . S
N493 Co476 1.989 . S
N493 C492 1.342 . S
N493 N494 1.388 . S
N494 Co477 1.993 . S
N494 N493 1.388 . S
N494 C495 1.346 . S
C495 N494 1.346 . S
C495 C496 1.396 . S
C495 C505 1.510 . S
C496 C492 1.401 . S
C496 C495 1.396 . S
C497 C492 1.499 . S
C497 H498 0.959 . S
C497 H499 0.960 . S
C497 H500 0.961 . S
H498 C497 0.959 . S
H499 C497 0.960 . S
H500 C497 0.961 . S
O501 Co476 1.967 . S
O501 C509 1.258 . S
O502 Co477 1.941 . S
O502 C509 1.266 . S
H503 C505 0.959 . S
H504 C505 0.961 . S
C505 C495 1.510 . S
C505 H503 0.959 . S
C505 H504 0.961 . S
C505 H506 0.960 . S
H506 C505 0.960 . S
H507 N487 0.862 . S
O508 Co476 1.920 . S
O508 C481 1.289 . S
C509 O501 1.258 . S
C509 O502 1.266 . S
Co510 O513 1.970 . S
Co510 N527 1.989 . S
Co510 O535 1.967 . S
Co510 O542 1.920 1_554 S
Co511 O514 1.966 . S
Co511 N520 2.022 . S
Co511 N528 1.993 . S
Co511 O536 1.941 . S
C512 O513 1.258 . S
C512 O514 1.263 . S
O513 Co510 1.970 . S
O513 C512 1.258 . S
O514 Co511 1.966 . S
O514 C512 1.263 . S
C515 O516 1.235 . S
C515 O542 1.289 . S
O516 C515 1.235 . S
C517 C519 1.400 . S
C517 N520 1.351 . S
C517 C522 1.501 . S
C518 C519 1.387 . S
C518 N521 1.341 . S
C519 C517 1.400 . S
C519 C518 1.387 . S
N520 Co511 2.022 . S
N520 C517 1.351 . S
N520 N521 1.365 . S
N521 C518 1.341 . S
N521 N520 1.365 . S
N521 H541 0.862 . S
C522 C517 1.501 . S
C522 H523 0.961 . S
C522 H524 0.961 . S
C522 H525 0.960 . S
H523 C522 0.961 . S
H524 C522 0.961 . S
H525 C522 0.960 . S
C526 N527 1.342 . S
C526 C530 1.401 . S
C526 C531 1.499 . S
N527 Co510 1.989 . S
N527 C526 1.342 . S
N527 N528 1.388 . S
N528 Co511 1.993 . S
N528 N527 1.388 . S
N528 C529 1.346 . S
C529 N528 1.346 . S
C529 C530 1.396 . S
C529 C539 1.510 . S
C530 C526 1.401 . S
C530 C529 1.396 . S
C531 C526 1.499 . S
C531 H532 0.959 1_554 S
C531 H533 0.960 . S
C531 H534 0.965 . S
H532 C531 0.959 1_556 S
H533 C531 0.960 . S
H534 C531 0.965 . S
O535 Co510 1.967 . S
O535 C543 1.258 . S
O536 Co511 1.941 . S
O536 C543 1.266 . S
H537 C539 0.959 . S
H538 C539 0.961 . S
C539 C529 1.510 . S
C539 H537 0.959 . S
C539 H538 0.961 . S
C539 H540 0.960 . S
H540 C539 0.960 . S
H541 N521 0.862 . S
O542 Co510 1.920 1_556 S
O542 C515 1.289 . S
C543 O535 1.258 . S
C543 O536 1.266 . S
Co544 O547 1.970 . S
Co544 N561 1.989 . S
Co544 O569 1.967 . S
Co544 O576 1.920 1_554 S
Co545 O548 1.966 . S
Co545 N554 2.022 . S
Co545 N562 1.993 . S
Co545 O570 1.941 . S
C546 O547 1.258 . S
C546 O548 1.263 . S
O547 Co544 1.970 . S
O547 C546 1.258 . S
O548 Co545 1.966 . S
O548 C546 1.263 . S
C549 O550 1.235 . S
C549 O576 1.289 . S
O550 C549 1.235 . S
C551 C553 1.400 . S
C551 N554 1.351 . S
C551 C556 1.501 . S
C552 C553 1.387 . S
C552 N555 1.341 . S
C553 C551 1.400 . S
C553 C552 1.387 . S
N554 Co545 2.022 . S
N554 C551 1.351 . S
N554 N555 1.365 . S
N555 C552 1.341 . S
N555 N554 1.365 . S
N555 H575 0.862 . S
C556 C551 1.501 . S
C556 H557 0.961 . S
C556 H558 0.961 . S
C556 H559 0.960 . S
H557 C556 0.961 . S
H558 C556 0.961 . S
H559 C556 0.960 . S
C560 N561 1.342 . S
C560 C564 1.401 . S
C560 C565 1.499 . S
N561 Co544 1.989 . S
N561 C560 1.342 . S
N561 N562 1.388 . S
N562 Co545 1.993 . S
N562 N561 1.388 . S
N562 C563 1.346 . S
C563 N562 1.346 . S
C563 C564 1.396 . S
C563 C573 1.510 . S
C564 C560 1.401 . S
C564 C563 1.396 . S
C565 C560 1.499 . S
C565 H566 0.959 1_554 S
C565 H567 0.960 . S
C565 H568 0.965 . S
H566 C565 0.959 1_556 S
H567 C565 0.960 . S
H568 C565 0.965 . S
O569 Co544 1.967 . S
O569 C577 1.258 . S
O570 Co545 1.941 . S
O570 C577 1.266 . S
H571 C573 0.959 . S
H572 C573 0.961 . S
C573 C563 1.510 . S
C573 H571 0.959 . S
C573 H572 0.961 . S
C573 H574 0.960 . S
H574 C573 0.960 . S
H575 N555 0.862 . S
O576 Co544 1.920 1_556 S
O576 C549 1.289 . S
C577 O569 1.258 . S
C577 O570 1.266 . S
Co578 O581 1.970 . S
Co578 N595 1.989 . S
Co578 O603 1.967 . S
Co578 O610 1.920 1_554 S
Co579 O582 1.966 . S
Co579 N588 2.022 . S
Co579 N596 1.993 . S
Co579 O604 1.941 . S
C580 O581 1.258 . S
C580 O582 1.263 . S
O581 Co578 1.970 . S
O581 C580 1.258 . S
O582 Co579 1.966 . S
O582 C580 1.263 . S
C583 O584 1.235 . S
C583 O610 1.289 . S
O584 C583 1.235 . S
C585 C587 1.400 . S
C585 N588 1.351 . S
C585 C590 1.501 . S
C586 C587 1.387 . S
C586 N589 1.341 . S
C587 C585 1.400 . S
C587 C586 1.387 . S
N588 Co579 2.022 . S
N588 C585 1.351 . S
N588 N589 1.365 . S
N589 C586 1.341 . S
N589 N588 1.365 . S
N589 H609 0.862 . S
C590 C585 1.501 . S
C590 H591 0.961 . S
C590 H592 0.961 . S
C590 H593 0.960 . S
H591 C590 0.961 . S
H592 C590 0.961 . S
H593 C590 0.960 . S
C594 N595 1.342 . S
C594 C598 1.401 . S
C594 C599 1.499 . S
N595 Co578 1.989 . S
N595 C594 1.342 . S
N595 N596 1.388 . S
N596 Co579 1.993 . S
N596 N595 1.388 . S
N596 C597 1.346 . S
C597 N596 1.346 . S
C597 C598 1.396 . S
C597 C607 1.510 . S
C598 C594 1.401 . S
C598 C597 1.396 . S
C599 C594 1.499 . S
C599 H600 0.959 1_554 S
C599 H601 0.960 . S
C599 H602 0.961 . S
H600 C599 0.959 1_556 S
H601 C599 0.960 . S
H602 C599 0.961 . S
O603 Co578 1.967 . S
O603 C611 1.258 . S
O604 Co579 1.941 . S
O604 C611 1.266 . S
H605 C607 0.959 . S
H606 C607 0.961 . S
C607 C597 1.510 . S
C607 H605 0.959 . S
C607 H606 0.961 . S
C607 H608 0.960 . S
H608 C607 0.960 . S
H609 N589 0.862 . S
O610 Co578 1.920 1_556 S
O610 C583 1.289 . S
C611 O603 1.258 . S
C611 O604 1.266 . S
Co612 O615 1.970 . S
Co612 N629 1.989 . S
Co612 O637 1.967 . S
Co612 O644 1.920 1_554 S
Co613 O616 1.966 . S
Co613 N622 2.022 . S
Co613 N630 1.993 . S
Co613 O638 1.941 . S
C614 O615 1.258 . S
C614 O616 1.263 . S
O615 Co612 1.970 . S
O615 C614 1.258 . S
O616 Co613 1.966 . S
O616 C614 1.263 . S
C617 O618 1.235 . S
C617 O644 1.289 . S
O618 C617 1.235 . S
C619 C621 1.400 . S
C619 N622 1.351 . S
C619 C624 1.501 . S
C620 C621 1.387 . S
C620 N623 1.341 . S
C621 C619 1.400 . S
C621 C620 1.387 . S
N622 Co613 2.022 . S
N622 C619 1.351 . S
N622 N623 1.365 . S
N623 C620 1.341 . S
N623 N622 1.365 . S
N623 H643 0.862 . S
C624 C619 1.501 . S
C624 H625 0.961 . S
C624 H626 0.961 . S
C624 H627 0.960 . S
H625 C624 0.961 . S
H626 C624 0.961 . S
H627 C624 0.960 . S
C628 N629 1.342 . S
C628 C632 1.401 . S
C628 C633 1.499 . S
N629 Co612 1.989 . S
N629 C628 1.342 . S
N629 N630 1.388 . S
N630 Co613 1.993 . S
N630 N629 1.388 . S
N630 C631 1.346 . S
C631 N630 1.346 . S
C631 C632 1.396 . S
C631 C641 1.510 . S
C632 C628 1.401 . S
C632 C631 1.396 . S
C633 C628 1.499 . S
C633 H634 0.959 1_554 S
C633 H635 0.960 . S
C633 H636 0.965 . S
H634 C633 0.959 1_556 S
H635 C633 0.960 . S
H636 C633 0.965 . S
O637 Co612 1.967 . S
O637 C645 1.258 . S
O638 Co613 1.941 . S
O638 C645 1.266 . S
H639 C641 0.959 . S
H640 C641 0.961 . S
C641 C631 1.510 . S
C641 H639 0.959 . S
C641 H640 0.961 . S
C641 H642 0.960 . S
H642 C641 0.960 . S
H643 N623 0.862 . S
O644 Co612 1.920 1_556 S
O644 C617 1.289 . S
C645 O637 1.258 . S
C645 O638 1.266 . S
Co646 O649 1.970 . S
Co646 N663 1.989 . S
Co646 O671 1.967 . S
Co646 O678 1.920 1_554 S
Co647 O650 1.966 . S
Co647 N656 2.022 . S
Co647 N664 1.993 . S
Co647 O672 1.941 . S
C648 O649 1.258 . S
C648 O650 1.263 . S
O649 Co646 1.970 . S
O649 C648 1.258 . S
O650 Co647 1.966 . S
O650 C648 1.263 . S
C651 O652 1.235 . S
C651 O678 1.289 . S
O652 C651 1.235 . S
C653 C655 1.400 . S
C653 N656 1.351 . S
C653 C658 1.501 . S
C654 C655 1.387 . S
C654 N657 1.341 . S
C655 C653 1.400 . S
C655 C654 1.387 . S
N656 Co647 2.022 . S
N656 C653 1.351 . S
N656 N657 1.365 . S
N657 C654 1.341 . S
N657 N656 1.365 . S
N657 H677 0.862 . S
C658 C653 1.501 . S
C658 H659 0.961 . S
C658 H660 0.961 . S
C658 H661 0.960 . S
H659 C658 0.961 . S
H660 C658 0.961 . S
H661 C658 0.960 . S
C662 N663 1.342 . S
C662 C666 1.401 . S
C662 C667 1.499 . S
N663 Co646 1.989 . S
N663 C662 1.342 . S
N663 N664 1.388 . S
N664 Co647 1.993 . S
N664 N663 1.388 . S
N664 C665 1.346 . S
C665 N664 1.346 . S
C665 C666 1.396 . S
C665 C675 1.510 . S
C666 C662 1.401 . S
C666 C665 1.396 . S
C667 C662 1.499 . S
C667 H668 0.959 1_554 S
C667 H669 0.960 . S
C667 H670 0.961 . S
H668 C667 0.959 1_556 S
H669 C667 0.960 . S
H670 C667 0.961 . S
O671 Co646 1.967 . S
O671 C679 1.258 . S
O672 Co647 1.941 . S
O672 C679 1.266 . S
H673 C675 0.959 . S
H674 C675 0.961 . S
C675 C665 1.510 . S
C675 H673 0.959 . S
C675 H674 0.961 . S
C675 H676 0.960 . S
H676 C675 0.960 . S
H677 N657 0.862 . S
O678 Co646 1.920 1_556 S
O678 C651 1.289 . S
C679 O671 1.258 . S
C679 O672 1.266 . S
Co680 O683 1.970 . S
Co680 N697 1.989 . S
Co680 O705 1.967 . S
Co680 O712 1.920 1_554 S
Co681 O684 1.966 . S
Co681 N690 2.022 . S
Co681 N698 1.993 . S
Co681 O706 1.941 . S
C682 O683 1.258 . S
C682 O684 1.263 . S
O683 Co680 1.970 . S
O683 C682 1.258 . S
O684 Co681 1.966 . S
O684 C682 1.263 . S
C685 O686 1.235 . S
C685 O712 1.289 . S
O686 C685 1.235 . S
C687 C689 1.400 . S
C687 N690 1.351 . S
C687 C692 1.501 . S
C688 C689 1.387 . S
C688 N691 1.341 . S
C689 C687 1.400 . S
C689 C688 1.387 . S
N690 Co681 2.022 . S
N690 C687 1.351 . S
N690 N691 1.365 . S
N691 C688 1.341 . S
N691 N690 1.365 . S
N691 H711 0.862 . S
C692 C687 1.501 . S
C692 H693 0.961 . S
C692 H694 0.961 . S
C692 H695 0.960 . S
H693 C692 0.961 . S
H694 C692 0.961 . S
H695 C692 0.960 . S
C696 N697 1.342 . S
C696 C700 1.401 . S
C696 C701 1.499 . S
N697 Co680 1.989 . S
N697 C696 1.342 . S
N697 N698 1.388 . S
N698 Co681 1.993 . S
N698 N697 1.388 . S
N698 C699 1.346 . S
C699 N698 1.346 . S
C699 C700 1.396 . S
C699 C709 1.510 . S
C700 C696 1.401 . S
C700 C699 1.396 . S
C701 C696 1.499 . S
C701 H702 0.959 1_554 S
C701 H703 0.960 . S
C701 H704 0.965 . S
H702 C701 0.959 1_556 S
H703 C701 0.960 . S
H704 C701 0.965 . S
O705 Co680 1.967 . S
O705 C713 1.258 . S
O706 Co681 1.941 . S
O706 C713 1.266 . S
H707 C709 0.959 . S
H708 C709 0.961 . S
C709 C699 1.510 . S
C709 H707 0.959 . S
C709 H708 0.961 . S
C709 H710 0.960 . S
H710 C709 0.960 . S
H711 N691 0.862 . S
O712 Co680 1.920 1_556 S
O712 C685 1.289 . S
C713 O705 1.258 . S
C713 O706 1.266 . S
Co714 O717 1.970 . S
Co714 N731 1.989 . S
Co714 O739 1.967 . S
Co714 O746 1.920 . S
Co715 O718 1.966 . S
Co715 N724 2.022 . S
Co715 N732 1.993 . S
Co715 O740 1.941 . S
C716 O717 1.258 . S
C716 O718 1.263 . S
O717 Co714 1.970 . S
O717 C716 1.258 . S
O718 Co715 1.966 . S
O718 C716 1.263 . S
C719 O720 1.235 . S
C719 O746 1.289 . S
O720 C719 1.235 . S
C721 C723 1.400 . S
C721 N724 1.351 . S
C721 C726 1.501 . S
C722 C723 1.387 . S
C722 N725 1.341 . S
C723 C721 1.400 . S
C723 C722 1.387 . S
N724 Co715 2.022 . S
N724 C721 1.351 . S
N724 N725 1.365 . S
N725 C722 1.341 . S
N725 N724 1.365 . S
N725 H745 0.862 . S
C726 C721 1.501 . S
C726 H727 0.961 . S
C726 H728 0.961 . S
C726 H729 0.960 . S
H727 C726 0.961 . S
H728 C726 0.961 . S
H729 C726 0.960 . S
C730 N731 1.342 . S
C730 C734 1.401 . S
C730 C735 1.499 . S
N731 Co714 1.989 . S
N731 C730 1.342 . S
N731 N732 1.388 . S
N732 Co715 1.993 . S
N732 N731 1.388 . S
N732 C733 1.346 . S
C733 N732 1.346 . S
C733 C734 1.396 . S
C733 C743 1.510 . S
C734 C730 1.401 . S
C734 C733 1.396 . S
C735 C730 1.499 . S
C735 H736 0.959 . S
C735 H737 0.960 . S
C735 H738 0.961 . S
H736 C735 0.959 . S
H737 C735 0.960 . S
H738 C735 0.961 . S
O739 Co714 1.967 . S
O739 C747 1.258 . S
O740 Co715 1.941 . S
O740 C747 1.266 . S
H741 C743 0.959 . S
H742 C743 0.961 . S
C743 C733 1.510 . S
C743 H741 0.959 . S
C743 H742 0.961 . S
C743 H744 0.960 . S
H744 C743 0.960 . S
H745 N725 0.862 . S
O746 Co714 1.920 . S
O746 C719 1.289 . S
C747 O739 1.258 . S
C747 O740 1.266 . S
Co748 O751 1.970 . S
Co748 N765 1.989 . S
Co748 O773 1.967 . S
Co748 O780 1.920 . S
Co749 O752 1.966 . S
Co749 N758 2.022 . S
Co749 N766 1.993 . S
Co749 O774 1.941 . S
C750 O751 1.258 . S
C750 O752 1.263 . S
O751 Co748 1.970 . S
O751 C750 1.258 . S
O752 Co749 1.966 . S
O752 C750 1.263 . S
C753 O754 1.235 . S
C753 O780 1.289 . S
O754 C753 1.235 . S
C755 C757 1.400 . S
C755 N758 1.351 . S
C755 C760 1.501 . S
C756 C757 1.387 . S
C756 N759 1.341 . S
C757 C755 1.400 . S
C757 C756 1.387 . S
N758 Co749 2.022 . S
N758 C755 1.351 . S
N758 N759 1.365 . S
N759 C756 1.341 . S
N759 N758 1.365 . S
N759 H779 0.862 . S
C760 C755 1.501 . S
C760 H761 0.961 . S
C760 H762 0.961 . S
C760 H763 0.960 . S
H761 C760 0.961 . S
H762 C760 0.961 . S
H763 C760 0.960 . S
C764 N765 1.342 . S
C764 C768 1.401 . S
C764 C769 1.499 . S
N765 Co748 1.989 . S
N765 C764 1.342 . S
N765 N766 1.388 . S
N766 Co749 1.993 . S
N766 N765 1.388 . S
N766 C767 1.346 . S
C767 N766 1.346 . S
C767 C768 1.396 . S
C767 C777 1.510 . S
C768 C764 1.401 . S
C768 C767 1.396 . S
C769 C764 1.499 . S
C769 H770 0.959 . S
C769 H771 0.960 . S
C769 H772 0.961 . S
H770 C769 0.959 . S
H771 C769 0.960 . S
H772 C769 0.961 . S
O773 Co748 1.967 . S
O773 C781 1.258 . S
O774 Co749 1.941 . S
O774 C781 1.266 . S
H775 C777 0.959 . S
H776 C777 0.961 . S
C777 C767 1.510 . S
C777 H775 0.959 . S
C777 H776 0.961 . S
C777 H778 0.960 . S
H778 C777 0.960 . S
H779 N759 0.862 . S
O780 Co748 1.920 . S
O780 C753 1.289 . S
C781 O773 1.258 . S
C781 O774 1.266 . S
Co782 O785 1.970 . S
Co782 N799 1.989 . S
Co782 O807 1.967 . S
Co782 O814 1.920 . S
Co783 O786 1.966 . S
Co783 N792 2.022 . S
Co783 N800 1.993 . S
Co783 O808 1.941 . S
C784 O785 1.258 . S
C784 O786 1.263 . S
O785 Co782 1.970 . S
O785 C784 1.258 . S
O786 Co783 1.966 . S
O786 C784 1.263 . S
C787 O788 1.235 . S
C787 O814 1.289 . S
O788 C787 1.235 . S
C789 C791 1.400 . S
C789 N792 1.351 . S
C789 C794 1.501 . S
C790 C791 1.387 . S
C790 N793 1.341 . S
C791 C789 1.400 . S
C791 C790 1.387 . S
N792 Co783 2.022 . S
N792 C789 1.351 . S
N792 N793 1.365 . S
N793 C790 1.341 . S
N793 N792 1.365 . S
N793 H813 0.862 . S
C794 C789 1.501 . S
C794 H795 0.961 . S
C794 H796 0.961 . S
C794 H797 0.960 . S
H795 C794 0.961 . S
H796 C794 0.961 . S
H797 C794 0.960 . S
C798 N799 1.342 . S
C798 C802 1.401 . S
C798 C803 1.499 . S
N799 Co782 1.989 . S
N799 C798 1.342 . S
N799 N800 1.388 . S
N800 Co783 1.993 . S
N800 N799 1.388 . S
N800 C801 1.346 . S
C801 N800 1.346 . S
C801 C802 1.396 . S
C801 C811 1.510 . S
C802 C798 1.401 . S
C802 C801 1.396 . S
C803 C798 1.499 . S
C803 H804 0.959 . S
C803 H805 0.960 . S
C803 H806 0.961 . S
H804 C803 0.959 . S
H805 C803 0.960 . S
H806 C803 0.961 . S
O807 Co782 1.967 . S
O807 C815 1.258 . S
O808 Co783 1.941 . S
O808 C815 1.266 . S
H809 C811 0.959 . S
H810 C811 0.961 . S
C811 C801 1.510 . S
C811 H809 0.959 . S
C811 H810 0.961 . S
C811 H812 0.960 . S
H812 C811 0.960 . S
H813 N793 0.862 . S
O814 Co782 1.920 . S
O814 C787 1.289 . S
C815 O807 1.258 . S
C815 O808 1.266 . S
Co816 O819 1.970 . S
Co816 N833 1.989 . S
Co816 O841 1.967 . S
Co816 O848 1.920 1_556 S
Co817 O820 1.966 . S
Co817 N826 2.022 . S
Co817 N834 1.993 . S
Co817 O842 1.941 . S
C818 O819 1.258 . S
C818 O820 1.263 . S
O819 Co816 1.970 . S
O819 C818 1.258 . S
O820 Co817 1.966 . S
O820 C818 1.263 . S
C821 O822 1.235 . S
C821 O848 1.289 . S
O822 C821 1.235 . S
C823 C825 1.400 . S
C823 N826 1.351 . S
C823 C828 1.501 . S
C824 C825 1.387 . S
C824 N827 1.341 . S
C825 C823 1.400 . S
C825 C824 1.387 . S
N826 Co817 2.022 . S
N826 C823 1.351 . S
N826 N827 1.365 . S
N827 C824 1.341 . S
N827 N826 1.365 . S
N827 H847 0.862 . S
C828 C823 1.501 . S
C828 H829 0.961 . S
C828 H830 0.961 . S
C828 H831 0.960 . S
H829 C828 0.961 . S
H830 C828 0.961 . S
H831 C828 0.960 . S
C832 N833 1.342 . S
C832 C836 1.401 . S
C832 C837 1.499 . S
N833 Co816 1.989 . S
N833 C832 1.342 . S
N833 N834 1.388 . S
N834 Co817 1.993 . S
N834 N833 1.388 . S
N834 C835 1.346 . S
C835 N834 1.346 . S
C835 C836 1.396 . S
C835 C845 1.510 . S
C836 C832 1.401 . S
C836 C835 1.396 . S
C837 C832 1.499 . S
C837 H838 0.959 1_556 S
C837 H839 0.960 . S
C837 H840 0.965 . S
H838 C837 0.959 1_554 S
H839 C837 0.960 . S
H840 C837 0.965 . S
O841 Co816 1.967 . S
O841 C849 1.258 . S
O842 Co817 1.941 . S
O842 C849 1.266 . S
H843 C845 0.959 . S
H844 C845 0.961 . S
C845 C835 1.510 . S
C845 H843 0.959 . S
C845 H844 0.961 . S
C845 H846 0.960 . S
H846 C845 0.960 . S
H847 N827 0.862 . S
O848 Co816 1.920 1_554 S
O848 C821 1.289 . S
C849 O841 1.258 . S
C849 O842 1.266 . S
Co850 O853 1.970 . S
Co850 N867 1.989 . S
Co850 O875 1.967 . S
Co850 O882 1.920 1_556 S
Co851 O854 1.966 . S
Co851 N860 2.022 . S
Co851 N868 1.993 . S
Co851 O876 1.941 . S
C852 O853 1.258 . S
C852 O854 1.263 . S
O853 Co850 1.970 . S
O853 C852 1.258 . S
O854 Co851 1.966 . S
O854 C852 1.263 . S
C855 O856 1.235 . S
C855 O882 1.289 . S
O856 C855 1.235 . S
C857 C859 1.400 . S
C857 N860 1.351 . S
C857 C862 1.501 . S
C858 C859 1.387 . S
C858 N861 1.341 . S
C859 C857 1.400 . S
C859 C858 1.387 . S
N860 Co851 2.022 . S
N860 C857 1.351 . S
N860 N861 1.365 . S
N861 C858 1.341 . S
N861 N860 1.365 . S
N861 H881 0.862 . S
C862 C857 1.501 . S
C862 H863 0.961 . S
C862 H864 0.961 . S
C862 H865 0.960 . S
H863 C862 0.961 . S
H864 C862 0.961 . S
H865 C862 0.960 . S
C866 N867 1.342 . S
C866 C870 1.401 . S
C866 C871 1.499 . S
N867 Co850 1.989 . S
N867 C866 1.342 . S
N867 N868 1.388 . S
N868 Co851 1.993 . S
N868 N867 1.388 . S
N868 C869 1.346 . S
C869 N868 1.346 . S
C869 C870 1.396 . S
C869 C879 1.510 . S
C870 C866 1.401 . S
C870 C869 1.396 . S
C871 C866 1.499 . S
C871 H872 0.959 1_556 S
C871 H873 0.960 . S
C871 H874 0.961 . S
H872 C871 0.959 1_554 S
H873 C871 0.960 . S
H874 C871 0.961 . S
O875 Co850 1.967 . S
O875 C883 1.258 . S
O876 Co851 1.941 . S
O876 C883 1.266 . S
H877 C879 0.959 . S
H878 C879 0.961 . S
C879 C869 1.510 . S
C879 H877 0.959 . S
C879 H878 0.961 . S
C879 H880 0.960 . S
H880 C879 0.960 . S
H881 N861 0.862 . S
O882 Co850 1.920 1_554 S
O882 C855 1.289 . S
C883 O875 1.258 . S
C883 O876 1.266 . S
Co884 O887 1.970 . S
Co884 N901 1.989 . S
Co884 O909 1.967 . S
Co884 O916 1.920 1_556 S
Co885 O888 1.966 . S
Co885 N894 2.022 . S
Co885 N902 1.993 . S
Co885 O910 1.941 . S
C886 O887 1.258 . S
C886 O888 1.263 . S
O887 Co884 1.970 . S
O887 C886 1.258 . S
O888 Co885 1.966 . S
O888 C886 1.263 . S
C889 O890 1.235 . S
C889 O916 1.289 . S
O890 C889 1.235 . S
C891 C893 1.400 . S
C891 N894 1.351 . S
C891 C896 1.501 . S
C892 C893 1.387 . S
C892 N895 1.341 . S
C893 C891 1.400 . S
C893 C892 1.387 . S
N894 Co885 2.022 . S
N894 C891 1.351 . S
N894 N895 1.365 . S
N895 C892 1.341 . S
N895 N894 1.365 . S
N895 H915 0.862 . S
C896 C891 1.501 . S
C896 H897 0.961 . S
C896 H898 0.961 . S
C896 H899 0.960 . S
H897 C896 0.961 . S
H898 C896 0.961 . S
H899 C896 0.960 . S
C900 N901 1.342 . S
C900 C904 1.401 . S
C900 C905 1.499 . S
N901 Co884 1.989 . S
N901 C900 1.342 . S
N901 N902 1.388 . S
N902 Co885 1.993 . S
N902 N901 1.388 . S
N902 C903 1.346 . S
C903 N902 1.346 . S
C903 C904 1.396 . S
C903 C913 1.510 . S
C904 C900 1.401 . S
C904 C903 1.396 . S
C905 C900 1.499 . S
C905 H906 0.959 1_556 S
C905 H907 0.960 . S
C905 H908 0.965 . S
H906 C905 0.959 1_554 S
H907 C905 0.960 . S
H908 C905 0.965 . S
O909 Co884 1.967 . S
O909 C917 1.258 . S
O910 Co885 1.941 . S
O910 C917 1.266 . S
H911 C913 0.959 . S
H912 C913 0.961 . S
C913 C903 1.510 . S
C913 H911 0.959 . S
C913 H912 0.961 . S
C913 H914 0.960 . S
H914 C913 0.960 . S
H915 N895 0.862 . S
O916 Co884 1.920 1_554 S
O916 C889 1.289 . S
C917 O909 1.258 . S
C917 O910 1.266 . S
Co918 O921 1.970 . S
Co918 N935 1.989 . S
Co918 O943 1.967 . S
Co918 O950 1.920 . S
Co919 O922 1.966 . S
Co919 N928 2.022 . S
Co919 N936 1.993 . S
Co919 O944 1.941 . S
C920 O921 1.258 . S
C920 O922 1.263 . S
O921 Co918 1.970 . S
O921 C920 1.258 . S
O922 Co919 1.966 . S
O922 C920 1.263 . S
C923 O924 1.235 . S
C923 O950 1.289 . S
O924 C923 1.235 . S
C925 C927 1.400 . S
C925 N928 1.351 . S
C925 C930 1.501 . S
C926 C927 1.387 . S
C926 N929 1.341 . S
C927 C925 1.400 . S
C927 C926 1.387 . S
N928 Co919 2.022 . S
N928 C925 1.351 . S
N928 N929 1.365 . S
N929 C926 1.341 . S
N929 N928 1.365 . S
N929 H949 0.862 . S
C930 C925 1.501 . S
C930 H931 0.961 . S
C930 H932 0.961 . S
C930 H933 0.960 . S
H931 C930 0.961 . S
H932 C930 0.961 . S
H933 C930 0.960 . S
C934 N935 1.342 . S
C934 C938 1.401 . S
C934 C939 1.499 . S
N935 Co918 1.989 . S
N935 C934 1.342 . S
N935 N936 1.388 . S
N936 Co919 1.993 . S
N936 N935 1.388 . S
N936 C937 1.346 . S
C937 N936 1.346 . S
C937 C938 1.396 . S
C937 C947 1.510 . S
C938 C934 1.401 . S
C938 C937 1.396 . S
C939 C934 1.499 . S
C939 H940 0.959 . S
C939 H941 0.960 . S
C939 H942 0.961 . S
H940 C939 0.959 . S
H941 C939 0.960 . S
H942 C939 0.961 . S
O943 Co918 1.967 . S
O943 C951 1.258 . S
O944 Co919 1.941 . S
O944 C951 1.266 . S
H945 C947 0.959 . S
H946 C947 0.961 . S
C947 C937 1.510 . S
C947 H945 0.959 . S
C947 H946 0.961 . S
C947 H948 0.960 . S
H948 C947 0.960 . S
H949 N929 0.862 . S
O950 Co918 1.920 . S
O950 C923 1.289 . S
C951 O943 1.258 . S
C951 O944 1.266 . S
Co952 O955 1.970 . S
Co952 N969 1.989 . S
Co952 O977 1.967 . S
Co952 O984 1.920 . S
Co953 O956 1.966 . S
Co953 N962 2.022 . S
Co953 N970 1.993 . S
Co953 O978 1.941 . S
C954 O955 1.258 . S
C954 O956 1.263 . S
O955 Co952 1.970 . S
O955 C954 1.258 . S
O956 Co953 1.966 . S
O956 C954 1.263 . S
C957 O958 1.235 . S
C957 O984 1.289 . S
O958 C957 1.235 . S
C959 C961 1.400 . S
C959 N962 1.351 . S
C959 C964 1.501 . S
C960 C961 1.387 . S
C960 N963 1.341 . S
C961 C959 1.400 . S
C961 C960 1.387 . S
N962 Co953 2.022 . S
N962 C959 1.351 . S
N962 N963 1.365 . S
N963 C960 1.341 . S
N963 N962 1.365 . S
N963 H983 0.862 . S
C964 C959 1.501 . S
C964 H965 0.961 . S
C964 H966 0.961 . S
C964 H967 0.960 . S
H965 C964 0.961 . S
H966 C964 0.961 . S
H967 C964 0.960 . S
C968 N969 1.342 . S
C968 C972 1.401 . S
C968 C973 1.499 . S
N969 Co952 1.989 . S
N969 C968 1.342 . S
N969 N970 1.388 . S
N970 Co953 1.993 . S
N970 N969 1.388 . S
N970 C971 1.346 . S
C971 N970 1.346 . S
C971 C972 1.396 . S
C971 C981 1.510 . S
C972 C968 1.401 . S
C972 C971 1.396 . S
C973 C968 1.499 . S
C973 H974 0.959 . S
C973 H975 0.960 . S
C973 H976 0.961 . S
H974 C973 0.959 . S
H975 C973 0.960 . S
H976 C973 0.961 . S
O977 Co952 1.967 . S
O977 C985 1.258 . S
O978 Co953 1.941 . S
O978 C985 1.266 . S
H979 C981 0.959 . S
H980 C981 0.961 . S
C981 C971 1.510 . S
C981 H979 0.959 . S
C981 H980 0.961 . S
C981 H982 0.960 . S
H982 C981 0.960 . S
H983 N963 0.862 . S
O984 Co952 1.920 . S
O984 C957 1.289 . S
C985 O977 1.258 . S
C985 O978 1.266 . S
Co986 O989 1.970 . S
Co986 N1003 1.989 . S
Co986 O1011 1.967 . S
Co986 O1018 1.920 . S
Co987 O990 1.966 . S
Co987 N996 2.022 . S
Co987 N1004 1.993 . S
Co987 O1012 1.941 . S
C988 O989 1.258 . S
C988 O990 1.263 . S
O989 Co986 1.970 . S
O989 C988 1.258 . S
O990 Co987 1.966 . S
O990 C988 1.263 . S
C991 O992 1.235 . S
C991 O1018 1.289 . S
O992 C991 1.235 . S
C993 C995 1.400 . S
C993 N996 1.351 . S
C993 C998 1.501 . S
C994 C995 1.387 . S
C994 N997 1.341 . S
C995 C993 1.400 . S
C995 C994 1.387 . S
N996 Co987 2.022 . S
N996 C993 1.351 . S
N996 N997 1.365 . S
N997 C994 1.341 . S
N997 N996 1.365 . S
N997 H1017 0.862 . S
C998 C993 1.501 . S
C998 H999 0.961 . S
C998 H1000 0.961 . S
C998 H1001 0.960 . S
H999 C998 0.961 . S
H1000 C998 0.961 . S
H1001 C998 0.960 . S
C1002 N1003 1.342 . S
C1002 C1006 1.401 . S
C1002 C1007 1.499 . S
N1003 Co986 1.989 . S
N1003 C1002 1.342 . S
N1003 N1004 1.388 . S
N1004 Co987 1.993 . S
N1004 N1003 1.388 . S
N1004 C1005 1.346 . S
C1005 N1004 1.346 . S
C1005 C1006 1.396 . S
C1005 C1015 1.510 . S
C1006 C1002 1.401 . S
C1006 C1005 1.396 . S
C1007 C1002 1.499 . S
C1007 H1008 0.959 . S
C1007 H1009 0.960 . S
C1007 H1010 0.961 . S
H1008 C1007 0.959 . S
H1009 C1007 0.960 . S
H1010 C1007 0.961 . S
O1011 Co986 1.967 . S
O1011 C1019 1.258 . S
O1012 Co987 1.941 . S
O1012 C1019 1.266 . S
H1013 C1015 0.959 . S
H1014 C1015 0.961 . S
C1015 C1005 1.510 . S
C1015 H1013 0.959 . S
C1015 H1014 0.961 . S
C1015 H1016 0.960 . S
H1016 C1015 0.960 . S
H1017 N997 0.862 . S
O1018 Co986 1.920 . S
O1018 C991 1.289 . S
C1019 O1011 1.258 . S
C1019 O1012 1.266 . S
Co1020 O1023 1.970 . S
Co1020 N1037 1.989 . S
Co1020 O1045 1.967 . S
Co1020 O1052 1.920 . S
Co1021 O1024 1.966 . S
Co1021 N1030 2.022 . S
Co1021 N1038 1.993 . S
Co1021 O1046 1.941 . S
C1022 O1023 1.258 . S
C1022 O1024 1.263 . S
O1023 Co1020 1.970 . S
O1023 C1022 1.258 . S
O1024 Co1021 1.966 . S
O1024 C1022 1.263 . S
C1025 O1026 1.235 . S
C1025 O1052 1.289 . S
O1026 C1025 1.235 . S
C1027 C1029 1.400 . S
C1027 N1030 1.351 . S
C1027 C1032 1.501 . S
C1028 C1029 1.387 . S
C1028 N1031 1.341 . S
C1029 C1027 1.400 . S
C1029 C1028 1.387 . S
N1030 Co1021 2.022 . S
N1030 C1027 1.351 . S
N1030 N1031 1.365 . S
N1031 C1028 1.341 . S
N1031 N1030 1.365 . S
N1031 H1051 0.862 . S
C1032 C1027 1.501 . S
C1032 H1033 0.961 . S
C1032 H1034 0.961 . S
C1032 H1035 0.960 . S
H1033 C1032 0.961 . S
H1034 C1032 0.961 . S
H1035 C1032 0.960 . S
C1036 N1037 1.342 . S
C1036 C1040 1.401 . S
C1036 C1041 1.499 . S
N1037 Co1020 1.989 . S
N1037 C1036 1.342 . S
N1037 N1038 1.388 . S
N1038 Co1021 1.993 . S
N1038 N1037 1.388 . S
N1038 C1039 1.346 . S
C1039 N1038 1.346 . S
C1039 C1040 1.396 . S
C1039 C1049 1.510 . S
C1040 C1036 1.401 . S
C1040 C1039 1.396 . S
C1041 C1036 1.499 . S
C1041 H1042 0.959 . S
C1041 H1043 0.960 . S
C1041 H1044 0.961 . S
H1042 C1041 0.959 . S
H1043 C1041 0.960 . S
H1044 C1041 0.961 . S
O1045 Co1020 1.967 . S
O1045 C1053 1.258 . S
O1046 Co1021 1.941 . S
O1046 C1053 1.266 . S
H1047 C1049 0.959 . S
H1048 C1049 0.961 . S
C1049 C1039 1.510 . S
C1049 H1047 0.959 . S
C1049 H1048 0.961 . S
C1049 H1050 0.960 . S
H1050 C1049 0.960 . S
H1051 N1031 0.862 . S
O1052 Co1020 1.920 . S
O1052 C1025 1.289 . S
C1053 O1045 1.258 . S
C1053 O1046 1.266 . S
Co1054 O1057 1.970 . S
Co1054 N1071 1.989 . S
Co1054 O1079 1.967 . S
Co1054 O1086 1.920 . S
Co1055 O1058 1.966 . S
Co1055 N1064 2.022 . S
Co1055 N1072 1.993 . S
Co1055 O1080 1.941 . S
C1056 O1057 1.258 . S
C1056 O1058 1.263 . S
O1057 Co1054 1.970 . S
O1057 C1056 1.258 . S
O1058 Co1055 1.966 . S
O1058 C1056 1.263 . S
C1059 O1060 1.235 . S
C1059 O1086 1.289 . S
O1060 C1059 1.235 . S
C1061 C1063 1.400 . S
C1061 N1064 1.351 . S
C1061 C1066 1.501 . S
C1062 C1063 1.387 . S
C1062 N1065 1.341 . S
C1063 C1061 1.400 . S
C1063 C1062 1.387 . S
N1064 Co1055 2.022 . S
N1064 C1061 1.351 . S
N1064 N1065 1.365 . S
N1065 C1062 1.341 . S
N1065 N1064 1.365 . S
N1065 H1085 0.862 . S
C1066 C1061 1.501 . S
C1066 H1067 0.961 . S
C1066 H1068 0.961 . S
C1066 H1069 0.960 . S
H1067 C1066 0.961 . S
H1068 C1066 0.961 . S
H1069 C1066 0.960 . S
C1070 N1071 1.342 . S
C1070 C1074 1.401 . S
C1070 C1075 1.499 . S
N1071 Co1054 1.989 . S
N1071 C1070 1.342 . S
N1071 N1072 1.388 . S
N1072 Co1055 1.993 . S
N1072 N1071 1.388 . S
N1072 C1073 1.346 . S
C1073 N1072 1.346 . S
C1073 C1074 1.396 . S
C1073 C1083 1.510 . S
C1074 C1070 1.401 . S
C1074 C1073 1.396 . S
C1075 C1070 1.499 . S
C1075 H1076 0.959 . S
C1075 H1077 0.960 . S
C1075 H1078 0.961 . S
H1076 C1075 0.959 . S
H1077 C1075 0.960 . S
H1078 C1075 0.961 . S
O1079 Co1054 1.967 . S
O1079 C1087 1.258 . S
O1080 Co1055 1.941 . S
O1080 C1087 1.266 . S
H1081 C1083 0.959 . S
H1082 C1083 0.961 . S
C1083 C1073 1.510 . S
C1083 H1081 0.959 . S
C1083 H1082 0.961 . S
C1083 H1084 0.960 . S
H1084 C1083 0.960 . S
H1085 N1065 0.862 . S
O1086 Co1054 1.920 . S
O1086 C1059 1.289 . S
C1087 O1079 1.258 . S
C1087 O1080 1.266 . S
Co1088 O1091 1.970 . S
Co1088 N1105 1.989 . S
Co1088 O1113 1.967 . S
Co1088 O1120 1.920 . S
Co1089 O1092 1.966 . S
Co1089 N1098 2.022 . S
Co1089 N1106 1.993 . S
Co1089 O1114 1.941 . S
C1090 O1091 1.258 . S
C1090 O1092 1.263 . S
O1091 Co1088 1.970 . S
O1091 C1090 1.258 . S
O1092 Co1089 1.966 . S
O1092 C1090 1.263 . S
C1093 O1094 1.235 . S
C1093 O1120 1.289 . S
O1094 C1093 1.235 . S
C1095 C1097 1.400 . S
C1095 N1098 1.351 . S
C1095 C1100 1.501 . S
C1096 C1097 1.387 . S
C1096 N1099 1.341 . S
C1097 C1095 1.400 . S
C1097 C1096 1.387 . S
N1098 Co1089 2.022 . S
N1098 C1095 1.351 . S
N1098 N1099 1.365 . S
N1099 C1096 1.341 . S
N1099 N1098 1.365 . S
N1099 H1119 0.862 . S
C1100 C1095 1.501 . S
C1100 H1101 0.961 . S
C1100 H1102 0.961 . S
C1100 H1103 0.960 . S
H1101 C1100 0.961 . S
H1102 C1100 0.961 . S
H1103 C1100 0.960 . S
C1104 N1105 1.342 . S
C1104 C1108 1.401 . S
C1104 C1109 1.499 . S
N1105 Co1088 1.989 . S
N1105 C1104 1.342 . S
N1105 N1106 1.388 . S
N1106 Co1089 1.993 . S
N1106 N1105 1.388 . S
N1106 C1107 1.346 . S
C1107 N1106 1.346 . S
C1107 C1108 1.396 . S
C1107 C1117 1.510 . S
C1108 C1104 1.401 . S
C1108 C1107 1.396 . S
C1109 C1104 1.499 . S
C1109 H1110 0.959 . S
C1109 H1111 0.960 . S
C1109 H1112 0.961 . S
H1110 C1109 0.959 . S
H1111 C1109 0.960 . S
H1112 C1109 0.961 . S
O1113 Co1088 1.967 . S
O1113 C1121 1.258 . S
O1114 Co1089 1.941 . S
O1114 C1121 1.266 . S
H1115 C1117 0.959 . S
H1116 C1117 0.961 . S
C1117 C1107 1.510 . S
C1117 H1115 0.959 . S
C1117 H1116 0.961 . S
C1117 H1118 0.960 . S
H1118 C1117 0.960 . S
H1119 N1099 0.862 . S
O1120 Co1088 1.920 . S
O1120 C1093 1.289 . S
C1121 O1113 1.258 . S
C1121 O1114 1.266 . S
Co1122 O1125 1.970 . S
Co1122 N1139 1.989 . S
Co1122 O1147 1.967 . S
Co1122 O1154 1.920 1_556 S
Co1123 O1126 1.966 . S
Co1123 N1132 2.022 . S
Co1123 N1140 1.993 . S
Co1123 O1148 1.941 . S
C1124 O1125 1.258 . S
C1124 O1126 1.263 . S
O1125 Co1122 1.970 . S
O1125 C1124 1.258 . S
O1126 Co1123 1.966 . S
O1126 C1124 1.263 . S
C1127 O1128 1.235 . S
C1127 O1154 1.289 . S
O1128 C1127 1.235 . S
C1129 C1131 1.400 . S
C1129 N1132 1.351 . S
C1129 C1134 1.501 . S
C1130 C1131 1.387 . S
C1130 N1133 1.341 . S
C1131 C1129 1.400 . S
C1131 C1130 1.387 . S
N1132 Co1123 2.022 . S
N1132 C1129 1.351 . S
N1132 N1133 1.365 . S
N1133 C1130 1.341 . S
N1133 N1132 1.365 . S
N1133 H1153 0.862 . S
C1134 C1129 1.501 . S
C1134 H1135 0.961 . S
C1134 H1136 0.961 . S
C1134 H1137 0.960 . S
H1135 C1134 0.961 . S
H1136 C1134 0.961 . S
H1137 C1134 0.960 . S
C1138 N1139 1.342 . S
C1138 C1142 1.401 . S
C1138 C1143 1.499 . S
N1139 Co1122 1.989 . S
N1139 C1138 1.342 . S
N1139 N1140 1.388 . S
N1140 Co1123 1.993 . S
N1140 N1139 1.388 . S
N1140 C1141 1.346 . S
C1141 N1140 1.346 . S
C1141 C1142 1.396 . S
C1141 C1151 1.510 . S
C1142 C1138 1.401 . S
C1142 C1141 1.396 . S
C1143 C1138 1.499 . S
C1143 H1144 0.959 1_556 S
C1143 H1145 0.960 . S
C1143 H1146 0.965 . S
H1144 C1143 0.959 1_554 S
H1145 C1143 0.960 . S
H1146 C1143 0.965 . S
O1147 Co1122 1.967 . S
O1147 C1155 1.258 . S
O1148 Co1123 1.941 . S
O1148 C1155 1.266 . S
H1149 C1151 0.959 . S
H1150 C1151 0.961 . S
C1151 C1141 1.510 . S
C1151 H1149 0.959 . S
C1151 H1150 0.961 . S
C1151 H1152 0.960 . S
H1152 C1151 0.960 . S
H1153 N1133 0.862 . S
O1154 Co1122 1.920 1_554 S
O1154 C1127 1.289 . S
C1155 O1147 1.258 . S
C1155 O1148 1.266 . S
Co1156 O1159 1.970 . S
Co1156 N1173 1.989 . S
Co1156 O1181 1.967 . S
Co1156 O1188 1.920 1_556 S
Co1157 O1160 1.966 . S
Co1157 N1166 2.022 . S
Co1157 N1174 1.993 . S
Co1157 O1182 1.941 . S
C1158 O1159 1.258 . S
C1158 O1160 1.263 . S
O1159 Co1156 1.970 . S
O1159 C1158 1.258 . S
O1160 Co1157 1.966 . S
O1160 C1158 1.263 . S
C1161 O1162 1.235 . S
C1161 O1188 1.289 . S
O1162 C1161 1.235 . S
C1163 C1165 1.400 . S
C1163 N1166 1.351 . S
C1163 C1168 1.501 . S
C1164 C1165 1.387 . S
C1164 N1167 1.341 . S
C1165 C1163 1.400 . S
C1165 C1164 1.387 . S
N1166 Co1157 2.022 . S
N1166 C1163 1.351 . S
N1166 N1167 1.365 . S
N1167 C1164 1.341 . S
N1167 N1166 1.365 . S
N1167 H1187 0.862 . S
C1168 C1163 1.501 . S
C1168 H1169 0.961 . S
C1168 H1170 0.961 . S
C1168 H1171 0.960 . S
H1169 C1168 0.961 . S
H1170 C1168 0.961 . S
H1171 C1168 0.960 . S
C1172 N1173 1.342 . S
C1172 C1176 1.401 . S
C1172 C1177 1.499 . S
N1173 Co1156 1.989 . S
N1173 C1172 1.342 . S
N1173 N1174 1.388 . S
N1174 Co1157 1.993 . S
N1174 N1173 1.388 . S
N1174 C1175 1.346 . S
C1175 N1174 1.346 . S
C1175 C1176 1.396 . S
C1175 C1185 1.510 . S
C1176 C1172 1.401 . S
C1176 C1175 1.396 . S
C1177 C1172 1.499 . S
C1177 H1178 0.959 1_556 S
C1177 H1179 0.960 . S
C1177 H1180 0.965 . S
H1178 C1177 0.959 1_554 S
H1179 C1177 0.960 . S
H1180 C1177 0.965 . S
O1181 Co1156 1.967 . S
O1181 C1189 1.258 . S
O1182 Co1157 1.941 . S
O1182 C1189 1.266 . S
H1183 C1185 0.959 . S
H1184 C1185 0.961 . S
C1185 C1175 1.510 . S
C1185 H1183 0.959 . S
C1185 H1184 0.961 . S
C1185 H1186 0.960 . S
H1186 C1185 0.960 . S
H1187 N1167 0.862 . S
O1188 Co1156 1.920 1_554 S
O1188 C1161 1.289 . S
C1189 O1181 1.258 . S
C1189 O1182 1.266 . S
Co1190 O1193 1.970 . S
Co1190 N1207 1.989 . S
Co1190 O1215 1.967 . S
Co1190 O1222 1.920 1_556 S
Co1191 O1194 1.966 . S
Co1191 N1200 2.022 . S
Co1191 N1208 1.993 . S
Co1191 O1216 1.941 . S
C1192 O1193 1.258 . S
C1192 O1194 1.263 . S
O1193 Co1190 1.970 . S
O1193 C1192 1.258 . S
O1194 Co1191 1.966 . S
O1194 C1192 1.263 . S
C1195 O1196 1.235 . S
C1195 O1222 1.289 . S
O1196 C1195 1.235 . S
C1197 C1199 1.400 . S
C1197 N1200 1.351 . S
C1197 C1202 1.501 . S
C1198 C1199 1.387 . S
C1198 N1201 1.341 . S
C1199 C1197 1.400 . S
C1199 C1198 1.387 . S
N1200 Co1191 2.022 . S
N1200 C1197 1.351 . S
N1200 N1201 1.365 . S
N1201 C1198 1.341 . S
N1201 N1200 1.365 . S
N1201 H1221 0.862 . S
C1202 C1197 1.501 . S
C1202 H1203 0.961 . S
C1202 H1204 0.961 . S
C1202 H1205 0.960 . S
H1203 C1202 0.961 . S
H1204 C1202 0.961 . S
H1205 C1202 0.960 . S
C1206 N1207 1.342 . S
C1206 C1210 1.401 . S
C1206 C1211 1.499 . S
N1207 Co1190 1.989 . S
N1207 C1206 1.342 . S
N1207 N1208 1.388 . S
N1208 Co1191 1.993 . S
N1208 N1207 1.388 . S
N1208 C1209 1.346 . S
C1209 N1208 1.346 . S
C1209 C1210 1.396 . S
C1209 C1219 1.510 . S
C1210 C1206 1.401 . S
C1210 C1209 1.396 . S
C1211 C1206 1.499 . S
C1211 H1212 0.959 1_556 S
C1211 H1213 0.960 . S
C1211 H1214 0.961 . S
H1212 C1211 0.959 1_554 S
H1213 C1211 0.960 . S
H1214 C1211 0.961 . S
O1215 Co1190 1.967 . S
O1215 C1223 1.258 . S
O1216 Co1191 1.941 . S
O1216 C1223 1.266 . S
H1217 C1219 0.959 . S
H1218 C1219 0.961 . S
C1219 C1209 1.510 . S
C1219 H1217 0.959 . S
C1219 H1218 0.961 . S
C1219 H1220 0.960 . S
H1220 C1219 0.960 . S
H1221 N1201 0.862 . S
O1222 Co1190 1.920 1_554 S
O1222 C1195 1.289 . S
C1223 O1215 1.258 . S
C1223 O1216 1.266 . S
H1224 C1232 0.929 . S
H1225 C1234 0.930 . S
H1226 C1236 0.930 . S
H1227 C1239 0.929 . S
H1228 C1242 0.930 . S
H1229 C1244 0.960 . S
H1230 C1244 0.960 . S
H1231 C1244 0.960 . S
C1232 H1224 0.929 . S
C1232 C1233 1.377 . S
C1232 C1234 1.384 . S
C1233 C1232 1.377 . S
C1233 C1239 1.390 . S
C1234 H1225 0.930 . S
C1234 C1232 1.384 . S
C1234 C1235 1.372 . S
C1235 C1234 1.372 . S
C1235 C1236 1.400 . S
C1235 C1240 1.490 . S
C1236 H1226 0.930 . S
C1236 C1235 1.400 . S
C1236 C1239 1.386 . S
H1237 C1253 0.930 . S
H1238 C1254 0.931 . S
C1239 H1227 0.929 . S
C1239 C1233 1.390 . S
C1239 C1236 1.386 . S
C1240 C1235 1.490 . S
C1240 C1242 1.395 . S
C1240 C1243 1.403 . S
H1241 C1247 0.930 . S
C1242 H1228 0.930 . S
C1242 C1240 1.395 . S
C1242 C1245 1.403 . S
C1243 C1240 1.403 . S
C1243 C1244 1.524 . S
C1243 C1247 1.400 . S
C1244 H1229 0.960 . S
C1244 H1230 0.960 . S
C1244 H1231 0.960 . S
C1244 C1243 1.524 . S
C1245 C1242 1.403 . S
C1245 C1246 1.392 . S
C1245 C1249 1.495 . S
C1246 C1245 1.392 . S
C1246 C1247 1.385 . S
C1246 C1248 1.478 . S
C1247 H1241 0.930 . S
C1247 C1243 1.400 . S
C1247 C1246 1.385 . S
C1248 C1246 1.478 . S
C1248 C1250 1.381 . S
C1248 C1254 1.383 . S
C1249 C1245 1.495 . S
C1249 H1255 0.959 . S
C1249 H1256 0.961 . S
C1249 H1257 0.960 . S
C1250 C1248 1.381 . S
C1250 C1251 1.394 . S
C1250 H1258 0.930 . S
C1251 C1250 1.394 . S
C1251 C1252 1.383 . S
C1251 H1259 0.929 . S
C1252 C1251 1.383 . S
C1252 C1253 1.377 . S
C1253 H1237 0.930 . S
C1253 C1252 1.377 . S
C1253 C1254 1.379 . S
C1254 H1238 0.931 . S
C1254 C1248 1.383 . S
C1254 C1253 1.379 . S
H1255 C1249 0.959 . S
H1256 C1249 0.961 . S
H1257 C1249 0.960 . S
H1258 C1250 0.930 . S
H1259 C1251 0.929 . S
H1260 C1268 0.929 . S
H1261 C1270 0.930 . S
H1262 C1272 0.930 . S
H1263 C1275 0.929 . S
H1264 C1278 0.930 . S
H1265 C1280 0.960 . S
H1266 C1280 0.960 . S
H1267 C1280 0.960 . S
C1268 H1260 0.929 . S
C1268 C1269 1.377 . S
C1268 C1270 1.384 . S
C1269 C1268 1.377 . S
C1269 C1275 1.390 . S
C1270 H1261 0.930 . S
C1270 C1268 1.384 . S
C1270 C1271 1.372 . S
C1271 C1270 1.372 . S
C1271 C1272 1.400 . S
C1271 C1276 1.490 . S
C1272 H1262 0.930 . S
C1272 C1271 1.400 . S
C1272 C1275 1.386 . S
H1273 C1289 0.930 . S
H1274 C1290 0.931 . S
C1275 H1263 0.929 . S
C1275 C1269 1.390 . S
C1275 C1272 1.386 . S
C1276 C1271 1.490 . S
C1276 C1278 1.395 . S
C1276 C1279 1.403 . S
H1277 C1283 0.930 . S
C1278 H1264 0.930 . S
C1278 C1276 1.395 . S
C1278 C1281 1.403 . S
C1279 C1276 1.403 . S
C1279 C1280 1.524 . S
C1279 C1283 1.400 . S
C1280 H1265 0.960 . S
C1280 H1266 0.960 . S
C1280 H1267 0.960 . S
C1280 C1279 1.524 . S
C1281 C1278 1.403 . S
C1281 C1282 1.392 . S
C1281 C1285 1.495 . S
C1282 C1281 1.392 . S
C1282 C1283 1.385 . S
C1282 C1284 1.478 . S
C1283 H1277 0.930 . S
C1283 C1279 1.400 . S
C1283 C1282 1.385 . S
C1284 C1282 1.478 . S
C1284 C1286 1.381 . S
C1284 C1290 1.383 . S
C1285 C1281 1.495 . S
C1285 H1291 0.959 . S
C1285 H1292 0.961 . S
C1285 H1293 0.960 . S
C1286 C1284 1.381 . S
C1286 C1287 1.394 . S
C1286 H1294 0.930 . S
C1287 C1286 1.394 . S
C1287 C1288 1.383 . S
C1287 H1295 0.929 . S
C1288 C1287 1.383 . S
C1288 C1289 1.377 . S
C1289 H1273 0.930 . S
C1289 C1288 1.377 . S
C1289 C1290 1.379 . S
C1290 H1274 0.931 . S
C1290 C1284 1.383 . S
C1290 C1289 1.379 . S
H1291 C1285 0.959 . S
H1292 C1285 0.961 . S
H1293 C1285 0.960 . S
H1294 C1286 0.930 . S
H1295 C1287 0.929 . S
H1296 C1304 0.929 . S
H1297 C1306 0.930 . S
H1298 C1308 0.930 . S
H1299 C1311 0.929 . S
H1300 C1314 0.930 . S
H1301 C1316 0.960 . S
H1302 C1316 0.960 . S
H1303 C1316 0.960 . S
C1304 H1296 0.929 . S
C1304 C1305 1.377 . S
C1304 C1306 1.384 . S
C1305 C1304 1.377 . S
C1305 C1311 1.390 . S
C1306 H1297 0.930 . S
C1306 C1304 1.384 . S
C1306 C1307 1.372 . S
C1307 C1306 1.372 . S
C1307 C1308 1.400 . S
C1307 C1312 1.490 . S
C1308 H1298 0.930 . S
C1308 C1307 1.400 . S
C1308 C1311 1.386 . S
H1309 C1325 0.930 . S
H1310 C1326 0.931 . S
C1311 H1299 0.929 . S
C1311 C1305 1.390 . S
C1311 C1308 1.386 . S
C1312 C1307 1.490 . S
C1312 C1314 1.395 . S
C1312 C1315 1.403 . S
H1313 C1319 0.930 . S
C1314 H1300 0.930 . S
C1314 C1312 1.395 . S
C1314 C1317 1.403 . S
C1315 C1312 1.403 . S
C1315 C1316 1.524 . S
C1315 C1319 1.400 . S
C1316 H1301 0.960 . S
C1316 H1302 0.960 . S
C1316 H1303 0.960 . S
C1316 C1315 1.524 . S
C1317 C1314 1.403 . S
C1317 C1318 1.392 . S
C1317 C1321 1.495 . S
C1318 C1317 1.392 . S
C1318 C1319 1.385 . S
C1318 C1320 1.478 . S
C1319 H1313 0.930 . S
C1319 C1315 1.400 . S
C1319 C1318 1.385 . S
C1320 C1318 1.478 . S
C1320 C1322 1.381 . S
C1320 C1326 1.383 . S
C1321 C1317 1.495 . S
C1321 H1327 0.959 . S
C1321 H1328 0.961 . S
C1321 H1329 0.960 . S
C1322 C1320 1.381 . S
C1322 C1323 1.394 . S
C1322 H1330 0.930 . S
C1323 C1322 1.394 . S
C1323 C1324 1.383 . S
C1323 H1331 0.929 . S
C1324 C1323 1.383 . S
C1324 C1325 1.377 . S
C1325 H1309 0.930 . S
C1325 C1324 1.377 . S
C1325 C1326 1.379 . S
C1326 H1310 0.931 . S
C1326 C1320 1.383 . S
C1326 C1325 1.379 . S
H1327 C1321 0.959 . S
H1328 C1321 0.961 . S
H1329 C1321 0.960 . S
H1330 C1322 0.930 . S
H1331 C1323 0.929 . S
H1332 C1340 0.929 . S
H1333 C1342 0.930 . S
H1334 C1344 0.930 . S
H1335 C1347 0.929 . S
H1336 C1350 0.930 . S
H1337 C1352 0.960 . S
H1338 C1352 0.960 . S
H1339 C1352 0.960 . S
C1340 H1332 0.929 . S
C1340 C1341 1.377 . S
C1340 C1342 1.384 . S
C1341 C1340 1.377 . S
C1341 C1347 1.390 . S
C1342 H1333 0.930 . S
C1342 C1340 1.384 . S
C1342 C1343 1.372 . S
C1343 C1342 1.372 . S
C1343 C1344 1.400 . S
C1343 C1348 1.490 . S
C1344 H1334 0.930 . S
C1344 C1343 1.400 . S
C1344 C1347 1.386 . S
H1345 C1361 0.930 . S
H1346 C1362 0.931 . S
C1347 H1335 0.929 . S
C1347 C1341 1.390 . S
C1347 C1344 1.386 . S
C1348 C1343 1.490 . S
C1348 C1350 1.395 . S
C1348 C1351 1.403 . S
H1349 C1355 0.930 . S
C1350 H1336 0.930 . S
C1350 C1348 1.395 . S
C1350 C1353 1.403 . S
C1351 C1348 1.403 . S
C1351 C1352 1.524 . S
C1351 C1355 1.400 . S
C1352 H1337 0.960 . S
C1352 H1338 0.960 . S
C1352 H1339 0.960 . S
C1352 C1351 1.524 . S
C1353 C1350 1.403 . S
C1353 C1354 1.392 . S
C1353 C1357 1.495 . S
C1354 C1353 1.392 . S
C1354 C1355 1.385 . S
C1354 C1356 1.478 . S
C1355 H1349 0.930 . S
C1355 C1351 1.400 . S
C1355 C1354 1.385 . S
C1356 C1354 1.478 . S
C1356 C1358 1.381 . S
C1356 C1362 1.383 . S
C1357 C1353 1.495 . S
C1357 H1363 0.959 . S
C1357 H1364 0.961 . S
C1357 H1365 0.960 . S
C1358 C1356 1.381 . S
C1358 C1359 1.394 . S
C1358 H1366 0.930 . S
C1359 C1358 1.394 . S
C1359 C1360 1.383 . S
C1359 H1367 0.929 . S
C1360 C1359 1.383 . S
C1360 C1361 1.377 . S
C1361 H1345 0.930 . S
C1361 C1360 1.377 . S
C1361 C1362 1.379 . S
C1362 H1346 0.931 . S
C1362 C1356 1.383 . S
C1362 C1361 1.379 . S
H1363 C1357 0.959 . S
H1364 C1357 0.961 . S
H1365 C1357 0.960 . S
H1366 C1358 0.930 . S
H1367 C1359 0.929 . S
H1368 C1376 0.929 . S
H1369 C1378 0.930 . S
H1370 C1380 0.930 . S
H1371 C1383 0.929 . S
H1372 C1386 0.930 . S
H1373 C1388 0.960 . S
H1374 C1388 0.960 . S
H1375 C1388 0.960 . S
C1376 H1368 0.929 . S
C1376 C1377 1.377 . S
C1376 C1378 1.384 . S
C1377 C1376 1.377 . S
C1377 C1383 1.390 . S
C1378 H1369 0.930 . S
C1378 C1376 1.384 . S
C1378 C1379 1.372 . S
C1379 C1378 1.372 . S
C1379 C1380 1.400 . S
C1379 C1384 1.490 . S
C1380 H1370 0.930 . S
C1380 C1379 1.400 . S
C1380 C1383 1.386 . S
H1381 C1397 0.930 . S
H1382 C1398 0.931 . S
C1383 H1371 0.929 . S
C1383 C1377 1.390 . S
C1383 C1380 1.386 . S
C1384 C1379 1.490 . S
C1384 C1386 1.395 . S
C1384 C1387 1.403 . S
H1385 C1391 0.930 . S
C1386 H1372 0.930 . S
C1386 C1384 1.395 . S
C1386 C1389 1.403 . S
C1387 C1384 1.403 . S
C1387 C1388 1.524 . S
C1387 C1391 1.400 . S
C1388 H1373 0.960 . S
C1388 H1374 0.960 . S
C1388 H1375 0.960 . S
C1388 C1387 1.524 . S
C1389 C1386 1.403 . S
C1389 C1390 1.392 . S
C1389 C1393 1.495 . S
C1390 C1389 1.392 . S
C1390 C1391 1.385 . S
C1390 C1392 1.478 . S
C1391 H1385 0.930 . S
C1391 C1387 1.400 . S
C1391 C1390 1.385 . S
C1392 C1390 1.478 . S
C1392 C1394 1.381 . S
C1392 C1398 1.383 . S
C1393 C1389 1.495 . S
C1393 H1399 0.959 . S
C1393 H1400 0.961 . S
C1393 H1401 0.960 . S
C1394 C1392 1.381 . S
C1394 C1395 1.394 . S
C1394 H1402 0.930 . S
C1395 C1394 1.394 . S
C1395 C1396 1.383 . S
C1395 H1403 0.929 . S
C1396 C1395 1.383 . S
C1396 C1397 1.377 . S
C1397 H1381 0.930 . S
C1397 C1396 1.377 . S
C1397 C1398 1.379 . S
C1398 H1382 0.931 . S
C1398 C1392 1.383 . S
C1398 C1397 1.379 . S
H1399 C1393 0.959 . S
H1400 C1393 0.961 . S
H1401 C1393 0.960 . S
H1402 C1394 0.930 . S
H1403 C1395 0.929 . S
H1404 C1412 0.929 . S
H1405 C1414 0.930 . S
H1406 C1416 0.930 . S
H1407 C1419 0.929 . S
H1408 C1422 0.930 . S
H1409 C1424 0.960 . S
H1410 C1424 0.960 . S
H1411 C1424 0.960 . S
C1412 H1404 0.929 . S
C1412 C1413 1.377 . S
C1412 C1414 1.384 . S
C1413 C1412 1.377 . S
C1413 C1419 1.390 . S
C1414 H1405 0.930 . S
C1414 C1412 1.384 . S
C1414 C1415 1.372 . S
C1415 C1414 1.372 . S
C1415 C1416 1.400 . S
C1415 C1420 1.490 . S
C1416 H1406 0.930 . S
C1416 C1415 1.400 . S
C1416 C1419 1.386 . S
H1417 C1433 0.930 . S
H1418 C1434 0.931 . S
C1419 H1407 0.929 . S
C1419 C1413 1.390 . S
C1419 C1416 1.386 . S
C1420 C1415 1.490 . S
C1420 C1422 1.395 . S
C1420 C1423 1.403 . S
H1421 C1427 0.930 . S
C1422 H1408 0.930 . S
C1422 C1420 1.395 . S
C1422 C1425 1.403 . S
C1423 C1420 1.403 . S
C1423 C1424 1.524 . S
C1423 C1427 1.400 . S
C1424 H1409 0.960 . S
C1424 H1410 0.960 . S
C1424 H1411 0.960 . S
C1424 C1423 1.524 . S
C1425 C1422 1.403 . S
C1425 C1426 1.392 . S
C1425 C1429 1.495 . S
C1426 C1425 1.392 . S
C1426 C1427 1.385 . S
C1426 C1428 1.478 . S
C1427 H1421 0.930 . S
C1427 C1423 1.400 . S
C1427 C1426 1.385 . S
C1428 C1426 1.478 . S
C1428 C1430 1.381 . S
C1428 C1434 1.383 . S
C1429 C1425 1.495 . S
C1429 H1435 0.959 . S
C1429 H1436 0.961 . S
C1429 H1437 0.960 . S
C1430 C1428 1.381 . S
C1430 C1431 1.394 . S
C1430 H1438 0.930 . S
C1431 C1430 1.394 . S
C1431 C1432 1.383 . S
C1431 H1439 0.929 . S
C1432 C1431 1.383 . S
C1432 C1433 1.377 . S
C1433 H1417 0.930 . S
C1433 C1432 1.377 . S
C1433 C1434 1.379 . S
C1434 H1418 0.931 . S
C1434 C1428 1.383 . S
C1434 C1433 1.379 . S
H1435 C1429 0.959 . S
H1436 C1429 0.961 . S
H1437 C1429 0.960 . S
H1438 C1430 0.930 . S
H1439 C1431 0.929 . S
H1440 C1448 0.929 . S
H1441 C1450 0.930 . S
H1442 C1452 0.930 . S
H1443 C1455 0.929 . S
H1444 C1458 0.930 . S
H1445 C1460 0.960 . S
H1446 C1460 0.960 . S
H1447 C1460 0.960 . S
C1448 H1440 0.929 . S
C1448 C1449 1.377 . S
C1448 C1450 1.384 . S
C1449 C1448 1.377 . S
C1449 C1455 1.390 . S
C1450 H1441 0.930 . S
C1450 C1448 1.384 . S
C1450 C1451 1.372 . S
C1451 C1450 1.372 . S
C1451 C1452 1.400 . S
C1451 C1456 1.490 . S
C1452 H1442 0.930 . S
C1452 C1451 1.400 . S
C1452 C1455 1.386 . S
H1453 C1469 0.930 . S
H1454 C1470 0.931 . S
C1455 H1443 0.929 . S
C1455 C1449 1.390 . S
C1455 C1452 1.386 . S
C1456 C1451 1.490 . S
C1456 C1458 1.395 . S
C1456 C1459 1.403 . S
H1457 C1463 0.930 . S
C1458 H1444 0.930 . S
C1458 C1456 1.395 . S
C1458 C1461 1.403 . S
C1459 C1456 1.403 . S
C1459 C1460 1.524 . S
C1459 C1463 1.400 . S
C1460 H1445 0.960 . S
C1460 H1446 0.960 . S
C1460 H1447 0.960 . S
C1460 C1459 1.524 . S
C1461 C1458 1.403 . S
C1461 C1462 1.392 . S
C1461 C1465 1.495 . S
C1462 C1461 1.392 . S
C1462 C1463 1.385 . S
C1462 C1464 1.478 . S
C1463 H1457 0.930 . S
C1463 C1459 1.400 . S
C1463 C1462 1.385 . S
C1464 C1462 1.478 . S
C1464 C1466 1.381 . S
C1464 C1470 1.383 . S
C1465 C1461 1.495 . S
C1465 H1471 0.959 . S
C1465 H1472 0.961 . S
C1465 H1473 0.960 . S
C1466 C1464 1.381 . S
C1466 C1467 1.394 . S
C1466 H1474 0.930 . S
C1467 C1466 1.394 . S
C1467 C1468 1.383 . S
C1467 H1475 0.929 . S
C1468 C1467 1.383 . S
C1468 C1469 1.377 . S
C1469 H1453 0.930 . S
C1469 C1468 1.377 . S
C1469 C1470 1.379 . S
C1470 H1454 0.931 . S
C1470 C1464 1.383 . S
C1470 C1469 1.379 . S
H1471 C1465 0.959 . S
H1472 C1465 0.961 . S
H1473 C1465 0.960 . S
H1474 C1466 0.930 . S
H1475 C1467 0.929 . S
H1476 C1484 0.929 . S
H1477 C1486 0.930 . S
H1478 C1488 0.930 . S
H1479 C1491 0.929 . S
H1480 C1494 0.930 . S
H1481 C1496 0.960 . S
H1482 C1496 0.960 . S
H1483 C1496 0.960 . S
C1484 H1476 0.929 . S
C1484 C1485 1.377 . S
C1484 C1486 1.384 . S
C1485 C1484 1.377 . S
C1485 C1491 1.390 . S
C1486 H1477 0.930 . S
C1486 C1484 1.384 . S
C1486 C1487 1.372 . S
C1487 C1486 1.372 . S
C1487 C1488 1.400 . S
C1487 C1492 1.490 . S
C1488 H1478 0.930 . S
C1488 C1487 1.400 . S
C1488 C1491 1.386 . S
H1489 C1505 0.930 . S
H1490 C1506 0.931 . S
C1491 H1479 0.929 . S
C1491 C1485 1.390 . S
C1491 C1488 1.386 . S
C1492 C1487 1.490 . S
C1492 C1494 1.395 . S
C1492 C1495 1.403 . S
H1493 C1499 0.930 . S
C1494 H1480 0.930 . S
C1494 C1492 1.395 . S
C1494 C1497 1.403 . S
C1495 C1492 1.403 . S
C1495 C1496 1.524 . S
C1495 C1499 1.400 . S
C1496 H1481 0.960 . S
C1496 H1482 0.960 . S
C1496 H1483 0.960 . S
C1496 C1495 1.524 . S
C1497 C1494 1.403 . S
C1497 C1498 1.392 . S
C1497 C1501 1.495 . S
C1498 C1497 1.392 . S
C1498 C1499 1.385 . S
C1498 C1500 1.478 . S
C1499 H1493 0.930 . S
C1499 C1495 1.400 . S
C1499 C1498 1.385 . S
C1500 C1498 1.478 . S
C1500 C1502 1.381 . S
C1500 C1506 1.383 . S
C1501 C1497 1.495 . S
C1501 H1507 0.959 . S
C1501 H1508 0.961 . S
C1501 H1509 0.960 . S
C1502 C1500 1.381 . S
C1502 C1503 1.394 . S
C1502 H1510 0.930 . S
C1503 C1502 1.394 . S
C1503 C1504 1.383 . S
C1503 H1511 0.929 . S
C1504 C1503 1.383 . S
C1504 C1505 1.377 . S
C1505 H1489 0.930 . S
C1505 C1504 1.377 . S
C1505 C1506 1.379 . S
C1506 H1490 0.931 . S
C1506 C1500 1.383 . S
C1506 C1505 1.379 . S
H1507 C1501 0.959 . S
H1508 C1501 0.961 . S
H1509 C1501 0.960 . S
H1510 C1502 0.930 . S
H1511 C1503 0.929 . S
H1512 C1520 0.929 . S
H1513 C1522 0.930 . S
H1514 C1524 0.930 . S
H1515 C1527 0.929 . S
H1516 C1530 0.930 . S
H1517 C1532 0.960 . S
H1518 C1532 0.960 . S
H1519 C1532 0.960 . S
C1520 H1512 0.929 . S
C1520 C1521 1.377 . S
C1520 C1522 1.384 . S
C1521 C1520 1.377 . S
C1521 C1527 1.390 . S
C1522 H1513 0.930 . S
C1522 C1520 1.384 . S
C1522 C1523 1.372 . S
C1523 C1522 1.372 . S
C1523 C1524 1.400 . S
C1523 C1528 1.490 . S
C1524 H1514 0.930 . S
C1524 C1523 1.400 . S
C1524 C1527 1.386 . S
H1525 C1541 0.930 . S
H1526 C1542 0.931 . S
C1527 H1515 0.929 . S
C1527 C1521 1.390 . S
C1527 C1524 1.386 . S
C1528 C1523 1.490 . S
C1528 C1530 1.395 . S
C1528 C1531 1.403 . S
H1529 C1535 0.930 . S
C1530 H1516 0.930 . S
C1530 C1528 1.395 . S
C1530 C1533 1.403 . S
C1531 C1528 1.403 . S
C1531 C1532 1.524 . S
C1531 C1535 1.400 . S
C1532 H1517 0.960 . S
C1532 H1518 0.960 . S
C1532 H1519 0.960 . S
C1532 C1531 1.524 . S
C1533 C1530 1.403 . S
C1533 C1534 1.392 . S
C1533 C1537 1.495 . S
C1534 C1533 1.392 . S
C1534 C1535 1.385 . S
C1534 C1536 1.478 . S
C1535 H1529 0.930 . S
C1535 C1531 1.400 . S
C1535 C1534 1.385 . S
C1536 C1534 1.478 . S
C1536 C1538 1.381 . S
C1536 C1542 1.383 . S
C1537 C1533 1.495 . S
C1537 H1543 0.959 . S
C1537 H1544 0.961 . S
C1537 H1545 0.960 . S
C1538 C1536 1.381 . S
C1538 C1539 1.394 . S
C1538 H1546 0.930 . S
C1539 C1538 1.394 . S
C1539 C1540 1.383 . S
C1539 H1547 0.929 . S
C1540 C1539 1.383 . S
C1540 C1541 1.377 . S
C1541 H1525 0.930 . S
C1541 C1540 1.377 . S
C1541 C1542 1.379 . S
C1542 H1526 0.931 . S
C1542 C1536 1.383 . S
C1542 C1541 1.379 . S
H1543 C1537 0.959 . S
H1544 C1537 0.961 . S
H1545 C1537 0.960 . S
H1546 C1538 0.930 . S
H1547 C1539 0.929 . S
H1548 C1556 0.929 . S
H1549 C1558 0.930 . S
H1550 C1560 0.930 . S
H1551 C1563 0.929 . S
H1552 C1566 0.930 . S
H1553 C1568 0.960 . S
H1554 C1568 0.960 . S
H1555 C1568 0.960 . S
C1556 H1548 0.929 . S
C1556 C1557 1.377 . S
C1556 C1558 1.384 . S
C1557 C1556 1.377 . S
C1557 C1563 1.390 . S
C1558 H1549 0.930 . S
C1558 C1556 1.384 . S
C1558 C1559 1.372 . S
C1559 C1558 1.372 . S
C1559 C1560 1.400 . S
C1559 C1564 1.490 . S
C1560 H1550 0.930 . S
C1560 C1559 1.400 . S
C1560 C1563 1.386 . S
H1561 C1577 0.930 . S
H1562 C1578 0.931 . S
C1563 H1551 0.929 . S
C1563 C1557 1.390 . S
C1563 C1560 1.386 . S
C1564 C1559 1.490 . S
C1564 C1566 1.395 . S
C1564 C1567 1.403 . S
H1565 C1571 0.930 . S
C1566 H1552 0.930 . S
C1566 C1564 1.395 . S
C1566 C1569 1.403 . S
C1567 C1564 1.403 . S
C1567 C1568 1.524 . S
C1567 C1571 1.400 . S
C1568 H1553 0.960 . S
C1568 H1554 0.960 . S
C1568 H1555 0.960 . S
C1568 C1567 1.524 . S
C1569 C1566 1.403 . S
C1569 C1570 1.392 . S
C1569 C1573 1.495 . S
C1570 C1569 1.392 . S
C1570 C1571 1.385 . S
C1570 C1572 1.478 . S
C1571 H1565 0.930 . S
C1571 C1567 1.400 . S
C1571 C1570 1.385 . S
C1572 C1570 1.478 . S
C1572 C1574 1.381 . S
C1572 C1578 1.383 . S
C1573 C1569 1.495 . S
C1573 H1579 0.959 . S
C1573 H1580 0.961 . S
C1573 H1581 0.960 . S
C1574 C1572 1.381 . S
C1574 C1575 1.394 . S
C1574 H1582 0.930 . S
C1575 C1574 1.394 . S
C1575 C1576 1.383 . S
C1575 H1583 0.929 . S
C1576 C1575 1.383 . S
C1576 C1577 1.377 . S
C1577 H1561 0.930 . S
C1577 C1576 1.377 . S
C1577 C1578 1.379 . S
C1578 H1562 0.931 . S
C1578 C1572 1.383 . S
C1578 C1577 1.379 . S
H1579 C1573 0.959 . S
H1580 C1573 0.961 . S
H1581 C1573 0.960 . S
H1582 C1574 0.930 . S
H1583 C1575 0.929 . S
H1584 C1592 0.929 . S
H1585 C1594 0.930 . S
H1586 C1596 0.930 . S
H1587 C1599 0.929 . S
H1588 C1602 0.930 . S
H1589 C1604 0.960 . S
H1590 C1604 0.960 . S
H1591 C1604 0.960 . S
C1592 H1584 0.929 . S
C1592 C1593 1.377 . S
C1592 C1594 1.384 . S
C1593 C1592 1.377 . S
C1593 C1599 1.390 . S
C1594 H1585 0.930 . S
C1594 C1592 1.384 . S
C1594 C1595 1.372 . S
C1595 C1594 1.372 . S
C1595 C1596 1.400 . S
C1595 C1600 1.490 . S
C1596 H1586 0.930 . S
C1596 C1595 1.400 . S
C1596 C1599 1.386 . S
H1597 C1613 0.930 . S
H1598 C1614 0.931 . S
C1599 H1587 0.929 . S
C1599 C1593 1.390 . S
C1599 C1596 1.386 . S
C1600 C1595 1.490 . S
C1600 C1602 1.395 . S
C1600 C1603 1.403 . S
H1601 C1607 0.930 . S
C1602 H1588 0.930 . S
C1602 C1600 1.395 . S
C1602 C1605 1.403 . S
C1603 C1600 1.403 . S
C1603 C1604 1.524 . S
C1603 C1607 1.400 . S
C1604 H1589 0.960 . S
C1604 H1590 0.960 . S
C1604 H1591 0.960 . S
C1604 C1603 1.524 . S
C1605 C1602 1.403 . S
C1605 C1606 1.392 . S
C1605 C1609 1.495 . S
C1606 C1605 1.392 . S
C1606 C1607 1.385 . S
C1606 C1608 1.478 . S
C1607 H1601 0.930 . S
C1607 C1603 1.400 . S
C1607 C1606 1.385 . S
C1608 C1606 1.478 . S
C1608 C1610 1.381 . S
C1608 C1614 1.383 . S
C1609 C1605 1.495 . S
C1609 H1615 0.959 . S
C1609 H1616 0.961 . S
C1609 H1617 0.960 . S
C1610 C1608 1.381 . S
C1610 C1611 1.394 . S
C1610 H1618 0.930 . S
C1611 C1610 1.394 . S
C1611 C1612 1.383 . S
C1611 H1619 0.929 . S
C1612 C1611 1.383 . S
C1612 C1613 1.377 . S
C1613 H1597 0.930 . S
C1613 C1612 1.377 . S
C1613 C1614 1.379 . S
C1614 H1598 0.931 . S
C1614 C1608 1.383 . S
C1614 C1613 1.379 . S
H1615 C1609 0.959 . S
H1616 C1609 0.961 . S
H1617 C1609 0.960 . S
H1618 C1610 0.930 . S
H1619 C1611 0.929 . S
H1620 C1628 0.929 . S
H1621 C1630 0.930 . S
H1622 C1632 0.930 . S
H1623 C1635 0.929 . S
H1624 C1638 0.930 . S
H1625 C1640 0.960 . S
H1626 C1640 0.960 . S
H1627 C1640 0.960 . S
C1628 H1620 0.929 . S
C1628 C1629 1.377 . S
C1628 C1630 1.384 . S
C1629 C1628 1.377 . S
C1629 C1635 1.390 . S
C1630 H1621 0.930 . S
C1630 C1628 1.384 . S
C1630 C1631 1.372 . S
C1631 C1630 1.372 . S
C1631 C1632 1.400 . S
C1631 C1636 1.490 . S
C1632 H1622 0.930 . S
C1632 C1631 1.400 . S
C1632 C1635 1.386 . S
H1633 C1649 0.930 . S
H1634 C1650 0.931 . S
C1635 H1623 0.929 . S
C1635 C1629 1.390 . S
C1635 C1632 1.386 . S
C1636 C1631 1.490 . S
C1636 C1638 1.395 . S
C1636 C1639 1.403 . S
H1637 C1643 0.930 . S
C1638 H1624 0.930 . S
C1638 C1636 1.395 . S
C1638 C1641 1.403 . S
C1639 C1636 1.403 . S
C1639 C1640 1.524 . S
C1639 C1643 1.400 . S
C1640 H1625 0.960 . S
C1640 H1626 0.960 . S
C1640 H1627 0.960 . S
C1640 C1639 1.524 . S
C1641 C1638 1.403 . S
C1641 C1642 1.392 . S
C1641 C1645 1.495 . S
C1642 C1641 1.392 . S
C1642 C1643 1.385 . S
C1642 C1644 1.478 . S
C1643 H1637 0.930 . S
C1643 C1639 1.400 . S
C1643 C1642 1.385 . S
C1644 C1642 1.478 . S
C1644 C1646 1.381 . S
C1644 C1650 1.383 . S
C1645 C1641 1.495 . S
C1645 H1651 0.959 . S
C1645 H1652 0.961 . S
C1645 H1653 0.960 . S
C1646 C1644 1.381 . S
C1646 C1647 1.394 . S
C1646 H1654 0.930 . S
C1647 C1646 1.394 . S
C1647 C1648 1.383 . S
C1647 H1655 0.929 . S
C1648 C1647 1.383 . S
C1648 C1649 1.377 . S
C1649 H1633 0.930 . S
C1649 C1648 1.377 . S
C1649 C1650 1.379 . S
C1650 H1634 0.931 . S
C1650 C1644 1.383 . S
C1650 C1649 1.379 . S
H1651 C1645 0.959 . S
H1652 C1645 0.961 . S
H1653 C1645 0.960 . S
H1654 C1646 0.930 . S
H1655 C1647 0.929 . S
H1656 C1664 0.929 . S
H1657 C1666 0.930 . S
H1658 C1668 0.930 . S
H1659 C1671 0.929 . S
H1660 C1674 0.930 . S
H1661 C1676 0.960 . S
H1662 C1676 0.960 . S
H1663 C1676 0.960 . S
C1664 H1656 0.929 . S
C1664 C1665 1.377 . S
C1664 C1666 1.384 . S
C1665 C1664 1.377 . S
C1665 C1671 1.390 . S
C1666 H1657 0.930 . S
C1666 C1664 1.384 . S
C1666 C1667 1.372 . S
C1667 C1666 1.372 . S
C1667 C1668 1.400 . S
C1667 C1672 1.490 . S
C1668 H1658 0.930 . S
C1668 C1667 1.400 . S
C1668 C1671 1.386 . S
H1669 C1685 0.930 . S
H1670 C1686 0.931 . S
C1671 H1659 0.929 . S
C1671 C1665 1.390 . S
C1671 C1668 1.386 . S
C1672 C1667 1.490 . S
C1672 C1674 1.395 . S
C1672 C1675 1.403 . S
H1673 C1679 0.930 . S
C1674 H1660 0.930 . S
C1674 C1672 1.395 . S
C1674 C1677 1.403 . S
C1675 C1672 1.403 . S
C1675 C1676 1.524 . S
C1675 C1679 1.400 . S
C1676 H1661 0.960 . S
C1676 H1662 0.960 . S
C1676 H1663 0.960 . S
C1676 C1675 1.524 . S
C1677 C1674 1.403 . S
C1677 C1678 1.392 . S
C1677 C1681 1.495 . S
C1678 C1677 1.392 . S
C1678 C1679 1.385 . S
C1678 C1680 1.478 . S
C1679 H1673 0.930 . S
C1679 C1675 1.400 . S
C1679 C1678 1.385 . S
C1680 C1678 1.478 . S
C1680 C1682 1.381 . S
C1680 C1686 1.383 . S
C1681 C1677 1.495 . S
C1681 H1687 0.959 . S
C1681 H1688 0.961 . S
C1681 H1689 0.960 . S
C1682 C1680 1.381 . S
C1682 C1683 1.394 . S
C1682 H1690 0.930 . S
C1683 C1682 1.394 . S
C1683 C1684 1.383 . S
C1683 H1691 0.929 . S
C1684 C1683 1.383 . S
C1684 C1685 1.377 . S
C1685 H1669 0.930 . S
C1685 C1684 1.377 . S
C1685 C1686 1.379 . S
C1686 H1670 0.931 . S
C1686 C1680 1.383 . S
C1686 C1685 1.379 . S
H1687 C1681 0.959 . S
H1688 C1681 0.961 . S
H1689 C1681 0.960 . S
H1690 C1682 0.930 . S
H1691 C1683 0.929 . S
H1692 C1700 0.929 . S
H1693 C1702 0.930 . S
H1694 C1704 0.930 . S
H1695 C1707 0.929 . S
H1696 C1710 0.930 . S
H1697 C1712 1.021 . S
H1698 C1712 0.960 . S
H1699 C1712 0.960 . S
C1700 H1692 0.929 . S
C1700 C1701 1.377 . S
C1700 C1702 1.384 . S
C1701 C1700 1.377 . S
C1701 C1707 1.390 . S
C1702 H1693 0.930 . S
C1702 C1700 1.384 . S
C1702 C1703 1.372 . S
C1703 C1702 1.372 . S
C1703 C1704 1.400 . S
C1703 C1708 1.490 . S
C1704 H1694 0.930 . S
C1704 C1703 1.400 . S
C1704 C1707 1.386 . S
H1705 C1721 0.930 . S
H1706 C1722 0.931 . S
C1707 H1695 0.929 . S
C1707 C1701 1.390 . S
C1707 C1704 1.386 . S
C1708 C1703 1.490 . S
C1708 C1710 1.395 . S
C1708 C1711 1.403 . S
H1709 C1715 0.930 . S
C1710 H1696 0.930 . S
C1710 C1708 1.395 . S
C1710 C1713 1.403 1_565 S
C1711 C1708 1.403 . S
C1711 C1712 1.524 . S
C1711 C1715 1.400 1_565 S
C1712 H1697 1.021 . S
C1712 H1698 0.960 . S
C1712 H1699 0.960 . S
C1712 C1711 1.524 . S
C1713 C1710 1.403 1_545 S
C1713 C1714 1.392 . S
C1713 C1717 1.495 . S
C1714 C1713 1.392 . S
C1714 C1715 1.385 . S
C1714 C1716 1.478 . S
C1715 H1709 0.930 . S
C1715 C1711 1.400 1_545 S
C1715 C1714 1.385 . S
C1716 C1714 1.478 . S
C1716 C1718 1.381 . S
C1716 C1722 1.383 . S
C1717 C1713 1.495 . S
C1717 H1723 1.019 . S
C1717 H1724 0.961 . S
C1717 H1725 0.960 . S
C1718 C1716 1.381 . S
C1718 C1719 1.394 . S
C1718 H1726 0.930 . S
C1719 C1718 1.394 . S
C1719 C1720 1.383 . S
C1719 H1727 0.929 . S
C1720 C1719 1.383 . S
C1720 C1721 1.377 . S
C1721 H1705 0.930 . S
C1721 C1720 1.377 . S
C1721 C1722 1.379 . S
C1722 H1706 0.931 . S
C1722 C1716 1.383 . S
C1722 C1721 1.379 . S
H1723 C1717 1.019 . S
H1724 C1717 0.961 . S
H1725 C1717 0.960 . S
H1726 C1718 0.930 . S
H1727 C1719 0.929 . S
H1728 C1736 0.929 . S
H1729 C1738 0.930 . S
H1730 C1740 0.930 . S
H1731 C1743 0.929 . S
H1732 C1746 0.930 . S
H1733 C1748 0.960 . S
H1734 C1748 0.960 . S
H1735 C1748 0.960 . S
C1736 H1728 0.929 . S
C1736 C1737 1.377 . S
C1736 C1738 1.384 . S
C1737 C1736 1.377 . S
C1737 C1743 1.390 . S
C1738 H1729 0.930 . S
C1738 C1736 1.384 . S
C1738 C1739 1.372 . S
C1739 C1738 1.372 . S
C1739 C1740 1.400 . S
C1739 C1744 1.490 . S
C1740 H1730 0.930 . S
C1740 C1739 1.400 . S
C1740 C1743 1.386 . S
H1741 C1757 0.930 . S
H1742 C1758 0.931 . S
C1743 H1731 0.929 . S
C1743 C1737 1.390 . S
C1743 C1740 1.386 . S
C1744 C1739 1.490 . S
C1744 C1746 1.395 . S
C1744 C1747 1.403 . S
H1745 C1751 0.930 . S
C1746 H1732 0.930 . S
C1746 C1744 1.395 . S
C1746 C1749 1.403 1_655 S
C1747 C1744 1.403 . S
C1747 C1748 1.524 . S
C1747 C1751 1.400 1_655 S
C1748 H1733 0.960 . S
C1748 H1734 0.960 . S
C1748 H1735 0.960 . S
C1748 C1747 1.524 . S
C1749 C1746 1.403 1_455 S
C1749 C1750 1.392 . S
C1749 C1753 1.495 . S
C1750 C1749 1.392 . S
C1750 C1751 1.385 . S
C1750 C1752 1.478 . S
C1751 H1745 0.930 . S
C1751 C1747 1.400 1_455 S
C1751 C1750 1.385 . S
C1752 C1750 1.478 . S
C1752 C1754 1.381 . S
C1752 C1758 1.383 . S
C1753 C1749 1.495 . S
C1753 H1759 0.959 . S
C1753 H1760 0.961 . S
C1753 H1761 0.960 . S
C1754 C1752 1.381 . S
C1754 C1755 1.394 . S
C1754 H1762 0.930 . S
C1755 C1754 1.394 . S
C1755 C1756 1.383 . S
C1755 H1763 0.929 . S
C1756 C1755 1.383 . S
C1756 C1757 1.377 . S
C1757 H1741 0.930 . S
C1757 C1756 1.377 . S
C1757 C1758 1.379 . S
C1758 H1742 0.931 . S
C1758 C1752 1.383 . S
C1758 C1757 1.379 . S
H1759 C1753 0.959 . S
H1760 C1753 0.961 . S
H1761 C1753 0.960 . S
H1762 C1754 0.930 . S
H1763 C1755 0.929 . S
H1764 C1772 0.929 . S
H1765 C1774 0.930 . S
H1766 C1776 0.930 . S
H1767 C1779 0.929 . S
H1768 C1782 0.930 . S
H1769 C1784 0.960 . S
H1770 C1784 0.960 . S
H1771 C1784 0.960 . S
C1772 H1764 0.929 . S
C1772 C1773 1.377 . S
C1772 C1774 1.384 . S
C1773 C1772 1.377 . S
C1773 C1779 1.390 . S
C1774 H1765 0.930 . S
C1774 C1772 1.384 . S
C1774 C1775 1.372 . S
C1775 C1774 1.372 . S
C1775 C1776 1.400 . S
C1775 C1780 1.490 . S
C1776 H1766 0.930 . S
C1776 C1775 1.400 . S
C1776 C1779 1.386 . S
H1777 C1793 0.930 . S
H1778 C1794 0.931 . S
C1779 H1767 0.929 . S
C1779 C1773 1.390 . S
C1779 C1776 1.386 . S
C1780 C1775 1.490 . S
C1780 C1782 1.395 . S
C1780 C1783 1.403 . S
H1781 C1787 0.930 . S
C1782 H1768 0.930 . S
C1782 C1780 1.395 . S
C1782 C1785 1.403 . S
C1783 C1780 1.403 . S
C1783 C1784 1.524 . S
C1783 C1787 1.400 . S
C1784 H1769 0.960 . S
C1784 H1770 0.960 . S
C1784 H1771 0.960 . S
C1784 C1783 1.524 . S
C1785 C1782 1.403 . S
C1785 C1786 1.392 . S
C1785 C1789 1.495 . S
C1786 C1785 1.392 . S
C1786 C1787 1.385 . S
C1786 C1788 1.478 . S
C1787 H1781 0.930 . S
C1787 C1783 1.400 . S
C1787 C1786 1.385 . S
C1788 C1786 1.478 . S
C1788 C1790 1.381 . S
C1788 C1794 1.383 . S
C1789 C1785 1.495 . S
C1789 H1795 0.959 . S
C1789 H1796 0.961 . S
C1789 H1797 0.960 . S
C1790 C1788 1.381 . S
C1790 C1791 1.394 . S
C1790 H1798 0.930 . S
C1791 C1790 1.394 . S
C1791 C1792 1.383 . S
C1791 H1799 0.929 . S
C1792 C1791 1.383 . S
C1792 C1793 1.377 . S
C1793 H1777 0.930 . S
C1793 C1792 1.377 . S
C1793 C1794 1.379 . S
C1794 H1778 0.931 . S
C1794 C1788 1.383 . S
C1794 C1793 1.379 . S
H1795 C1789 0.959 . S
H1796 C1789 0.961 . S
H1797 C1789 0.960 . S
H1798 C1790 0.930 . S
H1799 C1791 0.929 . S
H1800 C1808 0.929 . S
H1801 C1810 0.930 . S
H1802 C1812 0.930 . S
H1803 C1815 0.929 . S
H1804 C1818 0.930 . S
H1805 C1820 0.960 . S
H1806 C1820 0.960 . S
H1807 C1820 0.960 . S
C1808 H1800 0.929 . S
C1808 C1809 1.377 . S
C1808 C1810 1.384 . S
C1809 C1808 1.377 . S
C1809 C1815 1.390 . S
C1810 H1801 0.930 . S
C1810 C1808 1.384 . S
C1810 C1811 1.372 . S
C1811 C1810 1.372 . S
C1811 C1812 1.400 . S
C1811 C1816 1.490 . S
C1812 H1802 0.930 . S
C1812 C1811 1.400 . S
C1812 C1815 1.386 . S
H1813 C1829 0.930 . S
H1814 C1830 0.931 . S
C1815 H1803 0.929 . S
C1815 C1809 1.390 . S
C1815 C1812 1.386 . S
C1816 C1811 1.490 . S
C1816 C1818 1.395 . S
C1816 C1819 1.403 . S
H1817 C1823 0.930 . S
C1818 H1804 0.930 . S
C1818 C1816 1.395 . S
C1818 C1821 1.403 1_565 S
C1819 C1816 1.403 . S
C1819 C1820 1.524 . S
C1819 C1823 1.400 1_565 S
C1820 H1805 0.960 . S
C1820 H1806 0.960 . S
C1820 H1807 0.960 . S
C1820 C1819 1.524 . S
C1821 C1818 1.403 1_545 S
C1821 C1822 1.392 . S
C1821 C1825 1.495 . S
C1822 C1821 1.392 . S
C1822 C1823 1.385 . S
C1822 C1824 1.478 . S
C1823 H1817 0.930 . S
C1823 C1819 1.400 1_545 S
C1823 C1822 1.385 . S
C1824 C1822 1.478 . S
C1824 C1826 1.381 . S
C1824 C1830 1.383 . S
C1825 C1821 1.495 . S
C1825 H1831 0.959 . S
C1825 H1832 0.961 . S
C1825 H1833 0.960 . S
C1826 C1824 1.381 . S
C1826 C1827 1.394 . S
C1826 H1834 0.930 . S
C1827 C1826 1.394 . S
C1827 C1828 1.383 . S
C1827 H1835 0.929 . S
C1828 C1827 1.383 . S
C1828 C1829 1.377 . S
C1829 H1813 0.930 . S
C1829 C1828 1.377 . S
C1829 C1830 1.379 . S
C1830 H1814 0.931 . S
C1830 C1824 1.383 . S
C1830 C1829 1.379 . S
H1831 C1825 0.959 . S
H1832 C1825 0.961 . S
H1833 C1825 0.960 . S
H1834 C1826 0.930 . S
H1835 C1827 0.929 . S
H1836 C1844 0.929 . S
H1837 C1846 0.930 . S
H1838 C1848 0.930 . S
H1839 C1851 0.929 . S
H1840 C1854 0.930 . S
H1841 C1856 0.960 . S
H1842 C1856 0.960 . S
H1843 C1856 0.960 . S
C1844 H1836 0.929 . S
C1844 C1845 1.377 . S
C1844 C1846 1.384 . S
C1845 C1844 1.377 . S
C1845 C1851 1.390 . S
C1846 H1837 0.930 . S
C1846 C1844 1.384 . S
C1846 C1847 1.372 . S
C1847 C1846 1.372 . S
C1847 C1848 1.400 . S
C1847 C1852 1.490 . S
C1848 H1838 0.930 . S
C1848 C1847 1.400 . S
C1848 C1851 1.386 . S
H1849 C1865 0.930 . S
H1850 C1866 0.931 . S
C1851 H1839 0.929 . S
C1851 C1845 1.390 . S
C1851 C1848 1.386 . S
C1852 C1847 1.490 . S
C1852 C1854 1.395 . S
C1852 C1855 1.403 . S
H1853 C1859 0.930 . S
C1854 H1840 0.930 . S
C1854 C1852 1.395 . S
C1854 C1857 1.403 1_655 S
C1855 C1852 1.403 . S
C1855 C1856 1.524 . S
C1855 C1859 1.400 1_655 S
C1856 H1841 0.960 . S
C1856 H1842 0.960 . S
C1856 H1843 0.960 . S
C1856 C1855 1.524 . S
C1857 C1854 1.403 1_455 S
C1857 C1858 1.392 . S
C1857 C1861 1.495 . S
C1858 C1857 1.392 . S
C1858 C1859 1.385 . S
C1858 C1860 1.478 . S
C1859 H1853 0.930 . S
C1859 C1855 1.400 1_455 S
C1859 C1858 1.385 . S
C1860 C1858 1.478 . S
C1860 C1862 1.381 . S
C1860 C1866 1.383 . S
C1861 C1857 1.495 . S
C1861 H1867 0.960 . S
C1861 H1868 0.961 . S
C1861 H1869 0.960 . S
C1862 C1860 1.381 . S
C1862 C1863 1.394 . S
C1862 H1870 0.930 . S
C1863 C1862 1.394 . S
C1863 C1864 1.383 . S
C1863 H1871 0.929 . S
C1864 C1863 1.383 . S
C1864 C1865 1.377 . S
C1865 H1849 0.930 . S
C1865 C1864 1.377 . S
C1865 C1866 1.379 . S
C1866 H1850 0.931 . S
C1866 C1860 1.383 . S
C1866 C1865 1.379 . S
H1867 C1861 0.960 . S
H1868 C1861 0.961 . S
H1869 C1861 0.960 . S
H1870 C1862 0.930 . S
H1871 C1863 0.929 . S
H1872 C1880 0.929 . S
H1873 C1882 0.930 . S
H1874 C1884 0.930 . S
H1875 C1887 0.929 . S
H1876 C1890 0.930 . S
H1877 C1892 0.960 . S
H1878 C1892 0.960 . S
H1879 C1892 0.960 . S
C1880 H1872 0.929 . S
C1880 C1881 1.377 . S
C1880 C1882 1.384 . S
C1881 C1880 1.377 . S
C1881 C1887 1.390 . S
C1882 H1873 0.930 . S
C1882 C1880 1.384 . S
C1882 C1883 1.372 . S
C1883 C1882 1.372 . S
C1883 C1884 1.400 . S
C1883 C1888 1.490 . S
C1884 H1874 0.930 . S
C1884 C1883 1.400 . S
C1884 C1887 1.386 . S
H1885 C1901 0.930 . S
H1886 C1902 0.931 . S
C1887 H1875 0.929 . S
C1887 C1881 1.390 . S
C1887 C1884 1.386 . S
C1888 C1883 1.490 . S
C1888 C1890 1.395 . S
C1888 C1891 1.403 . S
H1889 C1895 0.930 . S
C1890 H1876 0.930 . S
C1890 C1888 1.395 . S
C1890 C1893 1.403 . S
C1891 C1888 1.403 . S
C1891 C1892 1.524 . S
C1891 C1895 1.400 . S
C1892 H1877 0.960 . S
C1892 H1878 0.960 . S
C1892 H1879 0.960 . S
C1892 C1891 1.524 . S
C1893 C1890 1.403 . S
C1893 C1894 1.392 . S
C1893 C1897 1.495 . S
C1894 C1893 1.392 . S
C1894 C1895 1.385 . S
C1894 C1896 1.478 . S
C1895 H1889 0.930 . S
C1895 C1891 1.400 . S
C1895 C1894 1.385 . S
C1896 C1894 1.478 . S
C1896 C1898 1.381 . S
C1896 C1902 1.383 . S
C1897 C1893 1.495 . S
C1897 H1903 0.959 . S
C1897 H1904 0.961 . S
C1897 H1905 0.960 . S
C1898 C1896 1.381 . S
C1898 C1899 1.394 . S
C1898 H1906 0.930 . S
C1899 C1898 1.394 . S
C1899 C1900 1.383 . S
C1899 H1907 0.929 . S
C1900 C1899 1.383 . S
C1900 C1901 1.377 . S
C1901 H1885 0.930 . S
C1901 C1900 1.377 . S
C1901 C1902 1.379 . S
C1902 H1886 0.931 . S
C1902 C1896 1.383 . S
C1902 C1901 1.379 . S
H1903 C1897 0.959 . S
H1904 C1897 0.961 . S
H1905 C1897 0.960 . S
H1906 C1898 0.930 . S
H1907 C1899 0.929 . S
H1908 C1916 0.929 . S
H1909 C1918 0.930 . S
H1910 C1920 0.930 . S
H1911 C1923 0.929 . S
H1912 C1926 0.930 . S
H1913 C1928 0.960 . S
H1914 C1928 0.960 . S
H1915 C1928 0.960 . S
C1916 H1908 0.929 . S
C1916 C1917 1.377 . S
C1916 C1918 1.384 . S
C1917 C1916 1.377 . S
C1917 C1923 1.390 . S
C1918 H1909 0.930 . S
C1918 C1916 1.384 . S
C1918 C1919 1.372 . S
C1919 C1918 1.372 . S
C1919 C1920 1.400 . S
C1919 C1924 1.490 . S
C1920 H1910 0.930 . S
C1920 C1919 1.400 . S
C1920 C1923 1.386 . S
H1921 C1937 0.930 . S
H1922 C1938 0.931 . S
C1923 H1911 0.929 . S
C1923 C1917 1.390 . S
C1923 C1920 1.386 . S
C1924 C1919 1.490 . S
C1924 C1926 1.395 . S
C1924 C1927 1.403 . S
H1925 C1931 0.930 . S
C1926 H1912 0.930 . S
C1926 C1924 1.395 . S
C1926 C1929 1.403 . S
C1927 C1924 1.403 . S
C1927 C1928 1.524 . S
C1927 C1931 1.400 . S
C1928 H1913 0.960 . S
C1928 H1914 0.960 . S
C1928 H1915 0.960 . S
C1928 C1927 1.524 . S
C1929 C1926 1.403 . S
C1929 C1930 1.392 . S
C1929 C1933 1.495 . S
C1930 C1929 1.392 . S
C1930 C1931 1.385 . S
C1930 C1932 1.478 . S
C1931 H1925 0.930 . S
C1931 C1927 1.400 . S
C1931 C1930 1.385 . S
C1932 C1930 1.478 . S
C1932 C1934 1.381 . S
C1932 C1938 1.383 . S
C1933 C1929 1.495 . S
C1933 H1939 0.959 . S
C1933 H1940 0.961 . S
C1933 H1941 0.960 . S
C1934 C1932 1.381 . S
C1934 C1935 1.394 . S
C1934 H1942 0.930 . S
C1935 C1934 1.394 . S
C1935 C1936 1.383 . S
C1935 H1943 0.929 . S
C1936 C1935 1.383 . S
C1936 C1937 1.377 . S
C1937 H1921 0.930 . S
C1937 C1936 1.377 . S
C1937 C1938 1.379 . S
C1938 H1922 0.931 . S
C1938 C1932 1.383 . S
C1938 C1937 1.379 . S
H1939 C1933 0.959 . S
H1940 C1933 0.961 . S
H1941 C1933 0.960 . S
H1942 C1934 0.930 . S
H1943 C1935 0.929 . S
H1944 C1952 0.929 . S
H1945 C1954 0.930 . S
H1946 C1956 0.930 . S
H1947 C1959 0.929 . S
H1948 C1962 0.930 . S
H1949 C1964 0.960 . S
H1950 C1964 0.960 . S
H1951 C1964 0.960 . S
C1952 H1944 0.929 . S
C1952 C1953 1.377 . S
C1952 C1954 1.384 . S
C1953 C1952 1.377 . S
C1953 C1959 1.390 . S
C1954 H1945 0.930 . S
C1954 C1952 1.384 . S
C1954 C1955 1.372 . S
C1955 C1954 1.372 . S
C1955 C1956 1.400 . S
C1955 C1960 1.490 . S
C1956 H1946 0.930 . S
C1956 C1955 1.400 . S
C1956 C1959 1.386 . S
H1957 C1973 0.930 . S
H1958 C1974 0.931 . S
C1959 H1947 0.929 . S
C1959 C1953 1.390 . S
C1959 C1956 1.386 . S
C1960 C1955 1.490 . S
C1960 C1962 1.395 . S
C1960 C1963 1.403 . S
H1961 C1967 0.930 . S
C1962 H1948 0.930 . S
C1962 C1960 1.395 . S
C1962 C1965 1.403 . S
C1963 C1960 1.403 . S
C1963 C1964 1.524 . S
C1963 C1967 1.400 . S
C1964 H1949 0.960 . S
C1964 H1950 0.960 . S
C1964 H1951 0.960 . S
C1964 C1963 1.524 . S
C1965 C1962 1.403 . S
C1965 C1966 1.392 . S
C1965 C1969 1.495 . S
C1966 C1965 1.392 . S
C1966 C1967 1.385 . S
C1966 C1968 1.478 . S
C1967 H1961 0.930 . S
C1967 C1963 1.400 . S
C1967 C1966 1.385 . S
C1968 C1966 1.478 . S
C1968 C1970 1.381 . S
C1968 C1974 1.383 . S
C1969 C1965 1.495 . S
C1969 H1975 0.959 . S
C1969 H1976 0.961 . S
C1969 H1977 0.960 . S
C1970 C1968 1.381 . S
C1970 C1971 1.394 . S
C1970 H1978 0.930 . S
C1971 C1970 1.394 . S
C1971 C1972 1.383 . S
C1971 H1979 0.929 . S
C1972 C1971 1.383 . S
C1972 C1973 1.377 . S
C1973 H1957 0.930 . S
C1973 C1972 1.377 . S
C1973 C1974 1.379 . S
C1974 H1958 0.931 . S
C1974 C1968 1.383 . S
C1974 C1973 1.379 . S
H1975 C1969 0.959 . S
H1976 C1969 0.961 . S
H1977 C1969 0.960 . S
H1978 C1970 0.930 . S
H1979 C1971 0.929 . S
H1980 C1988 0.929 . S
H1981 C1990 0.930 . S
H1982 C1992 0.930 . S
H1983 C1995 0.929 . S
H1984 C1998 0.930 . S
H1985 C2000 0.960 . S
H1986 C2000 0.960 . S
H1987 C2000 0.960 . S
C1988 H1980 0.929 . S
C1988 C1989 1.377 . S
C1988 C1990 1.384 . S
C1989 C1988 1.377 . S
C1989 C1995 1.390 . S
C1990 H1981 0.930 . S
C1990 C1988 1.384 . S
C1990 C1991 1.372 . S
C1991 C1990 1.372 . S
C1991 C1992 1.400 . S
C1991 C1996 1.490 . S
C1992 H1982 0.930 . S
C1992 C1991 1.400 . S
C1992 C1995 1.386 . S
H1993 C2009 0.930 . S
H1994 C2010 0.931 . S
C1995 H1983 0.929 . S
C1995 C1989 1.390 . S
C1995 C1992 1.386 . S
C1996 C1991 1.490 . S
C1996 C1998 1.395 . S
C1996 C1999 1.403 . S
H1997 C2003 0.930 . S
C1998 H1984 0.930 . S
C1998 C1996 1.395 . S
C1998 C2001 1.403 . S
C1999 C1996 1.403 . S
C1999 C2000 1.524 . S
C1999 C2003 1.400 . S
C2000 H1985 0.960 . S
C2000 H1986 0.960 . S
C2000 H1987 0.960 . S
C2000 C1999 1.524 . S
C2001 C1998 1.403 . S
C2001 C2002 1.392 . S
C2001 C2005 1.495 . S
C2002 C2001 1.392 . S
C2002 C2003 1.385 . S
C2002 C2004 1.478 . S
C2003 H1997 0.930 . S
C2003 C1999 1.400 . S
C2003 C2002 1.385 . S
C2004 C2002 1.478 . S
C2004 C2006 1.381 . S
C2004 C2010 1.383 . S
C2005 C2001 1.495 . S
C2005 H2011 0.959 . S
C2005 H2012 0.961 . S
C2005 H2013 0.960 . S
C2006 C2004 1.381 . S
C2006 C2007 1.394 . S
C2006 H2014 0.930 . S
C2007 C2006 1.394 . S
C2007 C2008 1.383 . S
C2007 H2015 0.929 . S
C2008 C2007 1.383 . S
C2008 C2009 1.377 . S
C2009 H1993 0.930 . S
C2009 C2008 1.377 . S
C2009 C2010 1.379 . S
C2010 H1994 0.931 . S
C2010 C2004 1.383 . S
C2010 C2009 1.379 . S
H2011 C2005 0.959 . S
H2012 C2005 0.961 . S
H2013 C2005 0.960 . S
H2014 C2006 0.930 . S
H2015 C2007 0.929 . S
H2016 C2024 0.929 . S
H2017 C2026 0.930 . S
H2018 C2028 0.930 . S
H2019 C2031 0.929 . S
H2020 C2034 0.930 . S
H2021 C2036 0.960 . S
H2022 C2036 0.960 . S
H2023 C2036 0.960 . S
C2024 H2016 0.929 . S
C2024 C2025 1.377 . S
C2024 C2026 1.384 . S
C2025 C2024 1.377 . S
C2025 C2031 1.390 . S
C2026 H2017 0.930 . S
C2026 C2024 1.384 . S
C2026 C2027 1.372 . S
C2027 C2026 1.372 . S
C2027 C2028 1.400 . S
C2027 C2032 1.490 . S
C2028 H2018 0.930 . S
C2028 C2027 1.400 . S
C2028 C2031 1.386 . S
H2029 C2045 0.930 . S
H2030 C2046 0.931 . S
C2031 H2019 0.929 . S
C2031 C2025 1.390 . S
C2031 C2028 1.386 . S
C2032 C2027 1.490 . S
C2032 C2034 1.395 . S
C2032 C2035 1.403 . S
H2033 C2039 0.930 . S
C2034 H2020 0.930 . S
C2034 C2032 1.395 . S
C2034 C2037 1.403 . S
C2035 C2032 1.403 . S
C2035 C2036 1.524 . S
C2035 C2039 1.400 . S
C2036 H2021 0.960 . S
C2036 H2022 0.960 . S
C2036 H2023 0.960 . S
C2036 C2035 1.524 . S
C2037 C2034 1.403 . S
C2037 C2038 1.392 . S
C2037 C2041 1.495 . S
C2038 C2037 1.392 . S
C2038 C2039 1.385 . S
C2038 C2040 1.478 . S
C2039 H2033 0.930 . S
C2039 C2035 1.400 . S
C2039 C2038 1.385 . S
C2040 C2038 1.478 . S
C2040 C2042 1.381 . S
C2040 C2046 1.383 . S
C2041 C2037 1.495 . S
C2041 H2047 0.959 . S
C2041 H2048 0.961 . S
C2041 H2049 0.960 . S
C2042 C2040 1.381 . S
C2042 C2043 1.394 . S
C2042 H2050 0.930 . S
C2043 C2042 1.394 . S
C2043 C2044 1.383 . S
C2043 H2051 0.929 . S
C2044 C2043 1.383 . S
C2044 C2045 1.377 . S
C2045 H2029 0.930 . S
C2045 C2044 1.377 . S
C2045 C2046 1.379 . S
C2046 H2030 0.931 . S
C2046 C2040 1.383 . S
C2046 C2045 1.379 . S
H2047 C2041 0.959 . S
H2048 C2041 0.961 . S
H2049 C2041 0.960 . S
H2050 C2042 0.930 . S
H2051 C2043 0.929 . S
H2052 C2060 0.929 . S
H2053 C2062 0.930 . S
H2054 C2064 0.930 . S
H2055 C2067 0.929 . S
H2056 C2070 0.930 . S
H2057 C2072 0.960 . S
H2058 C2072 0.960 . S
H2059 C2072 0.960 . S
C2060 H2052 0.929 . S
C2060 C2061 1.377 . S
C2060 C2062 1.384 . S
C2061 C2060 1.377 . S
C2061 C2067 1.390 . S
C2062 H2053 0.930 . S
C2062 C2060 1.384 . S
C2062 C2063 1.372 . S
C2063 C2062 1.372 . S
C2063 C2064 1.400 . S
C2063 C2068 1.490 . S
C2064 H2054 0.930 . S
C2064 C2063 1.400 . S
C2064 C2067 1.386 . S
H2065 C2081 0.930 . S
H2066 C2082 0.931 . S
C2067 H2055 0.929 . S
C2067 C2061 1.390 . S
C2067 C2064 1.386 . S
C2068 C2063 1.490 . S
C2068 C2070 1.395 . S
C2068 C2071 1.403 . S
H2069 C2075 0.930 . S
C2070 H2056 0.930 . S
C2070 C2068 1.395 . S
C2070 C2073 1.403 . S
C2071 C2068 1.403 . S
C2071 C2072 1.524 . S
C2071 C2075 1.400 . S
C2072 H2057 0.960 . S
C2072 H2058 0.960 . S
C2072 H2059 0.960 . S
C2072 C2071 1.524 . S
C2073 C2070 1.403 . S
C2073 C2074 1.392 . S
C2073 C2077 1.495 . S
C2074 C2073 1.392 . S
C2074 C2075 1.385 . S
C2074 C2076 1.478 . S
C2075 H2069 0.930 . S
C2075 C2071 1.400 . S
C2075 C2074 1.385 . S
C2076 C2074 1.478 . S
C2076 C2078 1.381 . S
C2076 C2082 1.383 . S
C2077 C2073 1.495 . S
C2077 H2083 0.959 . S
C2077 H2084 0.961 . S
C2077 H2085 0.960 . S
C2078 C2076 1.381 . S
C2078 C2079 1.394 . S
C2078 H2086 0.930 . S
C2079 C2078 1.394 . S
C2079 C2080 1.383 . S
C2079 H2087 0.929 . S
C2080 C2079 1.383 . S
C2080 C2081 1.377 . S
C2081 H2065 0.930 . S
C2081 C2080 1.377 . S
C2081 C2082 1.379 . S
C2082 H2066 0.931 . S
C2082 C2076 1.383 . S
C2082 C2081 1.379 . S
H2083 C2077 0.959 . S
H2084 C2077 0.961 . S
H2085 C2077 0.960 . S
H2086 C2078 0.930 . S
H2087 C2079 0.929 . S
H2088 C2096 0.929 . S
H2089 C2098 0.930 . S
H2090 C2100 0.930 . S
H2091 C2103 0.929 . S
H2092 C2106 0.930 . S
H2093 C2108 0.960 . S
H2094 C2108 0.960 . S
H2095 C2108 0.960 . S
C2096 H2088 0.929 . S
C2096 C2097 1.377 . S
C2096 C2098 1.384 . S
C2097 C2096 1.377 . S
C2097 C2103 1.390 . S
C2098 H2089 0.930 . S
C2098 C2096 1.384 . S
C2098 C2099 1.372 . S
C2099 C2098 1.372 . S
C2099 C2100 1.400 . S
C2099 C2104 1.490 . S
C2100 H2090 0.930 . S
C2100 C2099 1.400 . S
C2100 C2103 1.386 . S
H2101 C2117 0.930 . S
H2102 C2118 0.931 . S
C2103 H2091 0.929 . S
C2103 C2097 1.390 . S
C2103 C2100 1.386 . S
C2104 C2099 1.490 . S
C2104 C2106 1.395 . S
C2104 C2107 1.403 . S
H2105 C2111 0.930 . S
C2106 H2092 0.930 . S
C2106 C2104 1.395 . S
C2106 C2109 1.403 . S
C2107 C2104 1.403 . S
C2107 C2108 1.524 . S
C2107 C2111 1.400 . S
C2108 H2093 0.960 . S
C2108 H2094 0.960 . S
C2108 H2095 0.960 . S
C2108 C2107 1.524 . S
C2109 C2106 1.403 . S
C2109 C2110 1.392 . S
C2109 C2113 1.495 . S
C2110 C2109 1.392 . S
C2110 C2111 1.385 . S
C2110 C2112 1.478 . S
C2111 H2105 0.930 . S
C2111 C2107 1.400 . S
C2111 C2110 1.385 . S
C2112 C2110 1.478 . S
C2112 C2114 1.381 . S
C2112 C2118 1.383 . S
C2113 C2109 1.495 . S
C2113 H2119 0.959 . S
C2113 H2120 0.961 . S
C2113 H2121 0.960 . S
C2114 C2112 1.381 . S
C2114 C2115 1.394 . S
C2114 H2122 0.930 . S
C2115 C2114 1.394 . S
C2115 C2116 1.383 . S
C2115 H2123 0.929 . S
C2116 C2115 1.383 . S
C2116 C2117 1.377 . S
C2117 H2101 0.930 . S
C2117 C2116 1.377 . S
C2117 C2118 1.379 . S
C2118 H2102 0.931 . S
C2118 C2112 1.383 . S
C2118 C2117 1.379 . S
H2119 C2113 0.959 . S
H2120 C2113 0.961 . S
H2121 C2113 0.960 . S
H2122 C2114 0.930 . S
H2123 C2115 0.929 . S
H2124 C2132 0.929 . S
H2125 C2134 0.930 . S
H2126 C2136 0.930 . S
H2127 C2139 0.929 . S
H2128 C2142 0.930 . S
H2129 C2144 0.960 . S
H2130 C2144 0.960 . S
H2131 C2144 0.960 . S
C2132 H2124 0.929 . S
C2132 C2133 1.377 . S
C2132 C2134 1.384 . S
C2133 C2132 1.377 . S
C2133 C2139 1.390 . S
C2134 H2125 0.930 . S
C2134 C2132 1.384 . S
C2134 C2135 1.372 . S
C2135 C2134 1.372 . S
C2135 C2136 1.400 . S
C2135 C2140 1.490 . S
C2136 H2126 0.930 . S
C2136 C2135 1.400 . S
C2136 C2139 1.386 . S
H2137 C2153 0.930 . S
H2138 C2154 0.931 . S
C2139 H2127 0.929 . S
C2139 C2133 1.390 . S
C2139 C2136 1.386 . S
C2140 C2135 1.490 . S
C2140 C2142 1.395 . S
C2140 C2143 1.403 . S
H2141 C2147 0.930 . S
C2142 H2128 0.930 . S
C2142 C2140 1.395 . S
C2142 C2145 1.403 . S
C2143 C2140 1.403 . S
C2143 C2144 1.524 . S
C2143 C2147 1.400 . S
C2144 H2129 0.960 . S
C2144 H2130 0.960 . S
C2144 H2131 0.960 . S
C2144 C2143 1.524 . S
C2145 C2142 1.403 . S
C2145 C2146 1.392 . S
C2145 C2149 1.495 . S
C2146 C2145 1.392 . S
C2146 C2147 1.385 . S
C2146 C2148 1.478 . S
C2147 H2141 0.930 . S
C2147 C2143 1.400 . S
C2147 C2146 1.385 . S
C2148 C2146 1.478 . S
C2148 C2150 1.381 . S
C2148 C2154 1.383 . S
C2149 C2145 1.495 . S
C2149 H2155 0.959 . S
C2149 H2156 0.961 . S
C2149 H2157 0.960 . S
C2150 C2148 1.381 . S
C2150 C2151 1.394 . S
C2150 H2158 0.930 . S
C2151 C2150 1.394 . S
C2151 C2152 1.383 . S
C2151 H2159 0.929 . S
C2152 C2151 1.383 . S
C2152 C2153 1.377 . S
C2153 H2137 0.930 . S
C2153 C2152 1.377 . S
C2153 C2154 1.379 . S
C2154 H2138 0.931 . S
C2154 C2148 1.383 . S
C2154 C2153 1.379 . S
H2155 C2149 0.959 . S
H2156 C2149 0.961 . S
H2157 C2149 0.960 . S
H2158 C2150 0.930 . S
H2159 C2151 0.929 . S
H2160 C2168 0.929 . S
H2161 C2170 0.930 . S
H2162 C2172 0.930 . S
H2163 C2175 0.929 . S
H2164 C2178 0.930 . S
H2165 C2180 0.960 . S
H2166 C2180 0.960 . S
H2167 C2180 0.960 . S
C2168 H2160 0.929 . S
C2168 C2169 1.377 . S
C2168 C2170 1.384 . S
C2169 C2168 1.377 . S
C2169 C2175 1.390 . S
C2170 H2161 0.930 . S
C2170 C2168 1.384 . S
C2170 C2171 1.372 . S
C2171 C2170 1.372 . S
C2171 C2172 1.400 . S
C2171 C2176 1.490 . S
C2172 H2162 0.930 . S
C2172 C2171 1.400 . S
C2172 C2175 1.386 . S
H2173 C2189 0.930 . S
H2174 C2190 0.931 . S
C2175 H2163 0.929 . S
C2175 C2169 1.390 . S
C2175 C2172 1.386 . S
C2176 C2171 1.490 . S
C2176 C2178 1.395 . S
C2176 C2179 1.403 . S
H2177 C2183 0.930 . S
C2178 H2164 0.930 . S
C2178 C2176 1.395 . S
C2178 C2181 1.403 . S
C2179 C2176 1.403 . S
C2179 C2180 1.524 . S
C2179 C2183 1.400 . S
C2180 H2165 0.960 . S
C2180 H2166 0.960 . S
C2180 H2167 0.960 . S
C2180 C2179 1.524 . S
C2181 C2178 1.403 . S
C2181 C2182 1.392 . S
C2181 C2185 1.495 . S
C2182 C2181 1.392 . S
C2182 C2183 1.385 . S
C2182 C2184 1.478 . S
C2183 H2177 0.930 . S
C2183 C2179 1.400 . S
C2183 C2182 1.385 . S
C2184 C2182 1.478 . S
C2184 C2186 1.381 . S
C2184 C2190 1.383 . S
C2185 C2181 1.495 . S
C2185 H2191 0.959 . S
C2185 H2192 0.961 . S
C2185 H2193 0.960 . S
C2186 C2184 1.381 . S
C2186 C2187 1.394 . S
C2186 H2194 0.930 . S
C2187 C2186 1.394 . S
C2187 C2188 1.383 . S
C2187 H2195 0.929 . S
C2188 C2187 1.383 . S
C2188 C2189 1.377 . S
C2189 H2173 0.930 . S
C2189 C2188 1.377 . S
C2189 C2190 1.379 . S
C2190 H2174 0.931 . S
C2190 C2184 1.383 . S
C2190 C2189 1.379 . S
H2191 C2185 0.959 . S
H2192 C2185 0.961 . S
H2193 C2185 0.960 . S
H2194 C2186 0.930 . S
H2195 C2187 0.929 . S
H2196 C2204 0.929 . S
H2197 C2206 0.930 . S
H2198 C2208 0.930 . S
H2199 C2211 0.929 . S
H2200 C2214 0.930 . S
H2201 C2216 0.960 . S
H2202 C2216 0.960 . S
H2203 C2216 0.960 . S
C2204 H2196 0.929 . S
C2204 C2205 1.377 . S
C2204 C2206 1.384 . S
C2205 C2204 1.377 . S
C2205 C2211 1.390 . S
C2206 H2197 0.930 . S
C2206 C2204 1.384 . S
C2206 C2207 1.372 . S
C2207 C2206 1.372 . S
C2207 C2208 1.400 . S
C2207 C2212 1.490 . S
C2208 H2198 0.930 . S
C2208 C2207 1.400 . S
C2208 C2211 1.386 . S
H2209 C2225 0.930 . S
H2210 C2226 0.931 . S
C2211 H2199 0.929 . S
C2211 C2205 1.390 . S
C2211 C2208 1.386 . S
C2212 C2207 1.490 . S
C2212 C2214 1.395 . S
C2212 C2215 1.403 . S
H2213 C2219 0.930 . S
C2214 H2200 0.930 . S
C2214 C2212 1.395 . S
C2214 C2217 1.403 . S
C2215 C2212 1.403 . S
C2215 C2216 1.524 . S
C2215 C2219 1.400 . S
C2216 H2201 0.960 . S
C2216 H2202 0.960 . S
C2216 H2203 0.960 . S
C2216 C2215 1.524 . S
C2217 C2214 1.403 . S
C2217 C2218 1.392 . S
C2217 C2221 1.495 . S
C2218 C2217 1.392 . S
C2218 C2219 1.385 . S
C2218 C2220 1.478 . S
C2219 H2213 0.930 . S
C2219 C2215 1.400 . S
C2219 C2218 1.385 . S
C2220 C2218 1.478 . S
C2220 C2222 1.381 . S
C2220 C2226 1.383 . S
C2221 C2217 1.495 . S
C2221 H2227 0.959 . S
C2221 H2228 0.961 . S
C2221 H2229 0.960 . S
C2222 C2220 1.381 . S
C2222 C2223 1.394 . S
C2222 H2230 0.930 . S
C2223 C2222 1.394 . S
C2223 C2224 1.383 . S
C2223 H2231 0.929 . S
C2224 C2223 1.383 . S
C2224 C2225 1.377 . S
C2225 H2209 0.930 . S
C2225 C2224 1.377 . S
C2225 C2226 1.379 . S
C2226 H2210 0.931 . S
C2226 C2220 1.383 . S
C2226 C2225 1.379 . S
H2227 C2221 0.959 . S
H2228 C2221 0.961 . S
H2229 C2221 0.960 . S
H2230 C2222 0.930 . S
H2231 C2223 0.929 . S
H2232 C2240 0.929 . S
H2233 C2242 0.930 . S
H2234 C2244 0.930 . S
H2235 C2247 0.929 . S
H2236 C2250 0.930 . S
H2237 C2252 0.960 . S
H2238 C2252 0.960 . S
H2239 C2252 0.960 . S
C2240 H2232 0.929 . S
C2240 C2241 1.377 . S
C2240 C2242 1.384 . S
C2241 C2240 1.377 . S
C2241 C2247 1.390 . S
C2242 H2233 0.930 . S
C2242 C2240 1.384 . S
C2242 C2243 1.372 . S
C2243 C2242 1.372 . S
C2243 C2244 1.400 . S
C2243 C2248 1.490 . S
C2244 H2234 0.930 . S
C2244 C2243 1.400 . S
C2244 C2247 1.386 . S
H2245 C2261 0.930 . S
H2246 C2262 0.931 . S
C2247 H2235 0.929 . S
C2247 C2241 1.390 . S
C2247 C2244 1.386 . S
C2248 C2243 1.490 . S
C2248 C2250 1.395 . S
C2248 C2251 1.403 . S
H2249 C2255 0.930 . S
C2250 H2236 0.930 . S
C2250 C2248 1.395 . S
C2250 C2253 1.403 . S
C2251 C2248 1.403 . S
C2251 C2252 1.524 . S
C2251 C2255 1.400 . S
C2252 H2237 0.960 . S
C2252 H2238 0.960 . S
C2252 H2239 0.960 . S
C2252 C2251 1.524 . S
C2253 C2250 1.403 . S
C2253 C2254 1.392 . S
C2253 C2257 1.495 . S
C2254 C2253 1.392 . S
C2254 C2255 1.385 . S
C2254 C2256 1.478 . S
C2255 H2249 0.930 . S
C2255 C2251 1.400 . S
C2255 C2254 1.385 . S
C2256 C2254 1.478 . S
C2256 C2258 1.381 . S
C2256 C2262 1.383 . S
C2257 C2253 1.495 . S
C2257 H2263 0.959 . S
C2257 H2264 0.961 . S
C2257 H2265 0.960 . S
C2258 C2256 1.381 . S
C2258 C2259 1.394 . S
C2258 H2266 0.930 . S
C2259 C2258 1.394 . S
C2259 C2260 1.383 . S
C2259 H2267 0.929 . S
C2260 C2259 1.383 . S
C2260 C2261 1.377 . S
C2261 H2245 0.930 . S
C2261 C2260 1.377 . S
C2261 C2262 1.379 . S
C2262 H2246 0.931 . S
C2262 C2256 1.383 . S
C2262 C2261 1.379 . S
H2263 C2257 0.959 . S
H2264 C2257 0.961 . S
H2265 C2257 0.960 . S
H2266 C2258 0.930 . S
H2267 C2259 0.929 . S
H2268 C2276 0.929 . S
H2269 C2278 0.930 . S
H2270 C2280 0.930 . S
H2271 C2283 0.929 . S
H2272 C2286 0.930 . S
H2273 C2288 0.960 . S
H2274 C2288 0.960 . S
H2275 C2288 0.960 . S
C2276 H2268 0.929 . S
C2276 C2277 1.377 . S
C2276 C2278 1.384 . S
C2277 C2276 1.377 . S
C2277 C2283 1.390 . S
C2278 H2269 0.930 . S
C2278 C2276 1.384 . S
C2278 C2279 1.372 . S
C2279 C2278 1.372 . S
C2279 C2280 1.400 . S
C2279 C2284 1.490 . S
C2280 H2270 0.930 . S
C2280 C2279 1.400 . S
C2280 C2283 1.386 . S
H2281 C2297 0.930 . S
H2282 C2298 0.931 . S
C2283 H2271 0.929 . S
C2283 C2277 1.390 . S
C2283 C2280 1.386 . S
C2284 C2279 1.490 . S
C2284 C2286 1.395 . S
C2284 C2287 1.403 . S
H2285 C2291 0.930 . S
C2286 H2272 0.930 . S
C2286 C2284 1.395 . S
C2286 C2289 1.403 . S
C2287 C2284 1.403 . S
C2287 C2288 1.524 . S
C2287 C2291 1.400 . S
C2288 H2273 0.960 . S
C2288 H2274 0.960 . S
C2288 H2275 0.960 . S
C2288 C2287 1.524 . S
C2289 C2286 1.403 . S
C2289 C2290 1.392 . S
C2289 C2293 1.495 . S
C2290 C2289 1.392 . S
C2290 C2291 1.385 . S
C2290 C2292 1.478 . S
C2291 H2285 0.930 . S
C2291 C2287 1.400 . S
C2291 C2290 1.385 . S
C2292 C2290 1.478 . S
C2292 C2294 1.381 . S
C2292 C2298 1.383 . S
C2293 C2289 1.495 . S
C2293 H2299 0.959 . S
C2293 H2300 0.961 . S
C2293 H2301 0.960 . S
C2294 C2292 1.381 . S
C2294 C2295 1.394 . S
C2294 H2302 0.930 . S
C2295 C2294 1.394 . S
C2295 C2296 1.383 . S
C2295 H2303 0.929 . S
C2296 C2295 1.383 . S
C2296 C2297 1.377 . S
C2297 H2281 0.930 . S
C2297 C2296 1.377 . S
C2297 C2298 1.379 . S
C2298 H2282 0.931 . S
C2298 C2292 1.383 . S
C2298 C2297 1.379 . S
H2299 C2293 0.959 . S
H2300 C2293 0.961 . S
H2301 C2293 0.960 . S
H2302 C2294 0.930 . S
H2303 C2295 0.929 . S
H2304 C2312 0.929 . S
H2305 C2314 0.930 1_554 S
H2306 C2316 0.930 . S
H2307 C2319 0.929 . S
H2308 C2322 0.930 . S
H2309 C2324 0.960 . S
H2310 C2324 0.960 . S
H2311 C2324 0.967 . S
C2312 H2304 0.929 . S
C2312 C2313 1.377 . S
C2312 C2314 1.384 . S
C2313 C2312 1.377 . S
C2313 C2319 1.390 . S
C2314 H2305 0.930 1_556 S
C2314 C2312 1.384 . S
C2314 C2315 1.372 . S
C2315 C2314 1.372 . S
C2315 C2316 1.400 . S
C2315 C2320 1.490 . S
C2316 H2306 0.930 . S
C2316 C2315 1.400 . S
C2316 C2319 1.386 . S
H2317 C2333 0.930 . S
H2318 C2334 0.931 1_556 S
C2319 H2307 0.929 . S
C2319 C2313 1.390 . S
C2319 C2316 1.386 . S
C2320 C2315 1.490 . S
C2320 C2322 1.395 . S
C2320 C2323 1.403 1_556 S
H2321 C2327 0.930 . S
C2322 H2308 0.930 . S
C2322 C2320 1.395 . S
C2322 C2325 1.403 1_655 S
C2323 C2320 1.403 1_554 S
C2323 C2324 1.524 . S
C2323 C2327 1.400 1_655 S
C2324 H2309 0.960 . S
C2324 H2310 0.960 . S
C2324 H2311 0.967 . S
C2324 C2323 1.524 . S
C2325 C2322 1.403 1_455 S
C2325 C2326 1.392 1_556 S
C2325 C2329 1.495 . S
C2326 C2325 1.392 1_554 S
C2326 C2327 1.385 . S
C2326 C2328 1.478 . S
C2327 H2321 0.930 . S
C2327 C2323 1.400 1_455 S
C2327 C2326 1.385 . S
C2328 C2326 1.478 . S
C2328 C2330 1.381 . S
C2328 C2334 1.383 . S
C2329 C2325 1.495 . S
C2329 H2335 0.959 . S
C2329 H2336 0.961 . S
C2329 H2337 0.960 1_556 S
C2330 C2328 1.381 . S
C2330 C2331 1.394 . S
C2330 H2338 0.930 . S
C2331 C2330 1.394 . S
C2331 C2332 1.383 . S
C2331 H2339 0.929 . S
C2332 C2331 1.383 . S
C2332 C2333 1.377 . S
C2333 H2317 0.930 . S
C2333 C2332 1.377 . S
C2333 C2334 1.379 . S
C2334 H2318 0.931 1_554 S
C2334 C2328 1.383 . S
C2334 C2333 1.379 . S
H2335 C2329 0.959 . S
H2336 C2329 0.961 . S
H2337 C2329 0.960 1_554 S
H2338 C2330 0.930 . S
H2339 C2331 0.929 . S
H2340 C2348 0.929 . S
H2341 C2350 0.930 1_554 S
H2342 C2352 0.930 . S
H2343 C2355 0.929 . S
H2344 C2358 0.930 . S
H2345 C2360 0.960 1_554 S
H2346 C2360 0.960 1_554 S
H2347 C2360 0.960 . S
C2348 H2340 0.929 . S
C2348 C2349 1.377 . S
C2348 C2350 1.384 . S
C2349 C2348 1.377 . S
C2349 C2355 1.390 . S
C2350 H2341 0.930 1_556 S
C2350 C2348 1.384 . S
C2350 C2351 1.372 . S
C2351 C2350 1.372 . S
C2351 C2352 1.400 . S
C2351 C2356 1.490 . S
C2352 H2342 0.930 . S
C2352 C2351 1.400 . S
C2352 C2355 1.386 . S
H2353 C2369 0.923 1_556 S
H2354 C2370 0.931 1_556 S
C2355 H2343 0.929 . S
C2355 C2349 1.390 . S
C2355 C2352 1.386 . S
C2356 C2351 1.490 . S
C2356 C2358 1.395 . S
C2356 C2359 1.403 . S
H2357 C2363 0.930 . S
C2358 H2344 0.930 . S
C2358 C2356 1.395 . S
C2358 C2361 1.403 1_556 S
C2359 C2356 1.403 . S
C2359 C2360 1.524 . S
C2359 C2363 1.400 1_556 S
C2360 H2345 0.960 1_556 S
C2360 H2346 0.960 1_556 S
C2360 H2347 0.960 . S
C2360 C2359 1.524 . S
C2361 C2358 1.403 1_554 S
C2361 C2362 1.392 . S
C2361 C2365 1.495 . S
C2362 C2361 1.392 . S
C2362 C2363 1.385 . S
C2362 C2364 1.478 . S
C2363 H2357 0.930 . S
C2363 C2359 1.400 1_554 S
C2363 C2362 1.385 . S
C2364 C2362 1.478 . S
C2364 C2366 1.381 . S
C2364 C2370 1.383 . S
C2365 C2361 1.495 . S
C2365 H2371 0.960 . S
C2365 H2372 0.961 1_554 S
C2365 H2373 0.960 . S
C2366 C2364 1.381 . S
C2366 C2367 1.394 . S
C2366 H2374 0.930 . S
C2367 C2366 1.394 . S
C2367 C2368 1.383 . S
C2367 H2375 0.929 . S
C2368 C2367 1.383 . S
C2368 C2369 1.377 . S
C2369 H2353 0.923 1_554 S
C2369 C2368 1.377 . S
C2369 C2370 1.379 . S
C2370 H2354 0.931 1_554 S
C2370 C2364 1.383 . S
C2370 C2369 1.379 . S
H2371 C2365 0.960 . S
H2372 C2365 0.961 1_556 S
H2373 C2365 0.960 . S
H2374 C2366 0.930 . S
H2375 C2367 0.929 . S
H2376 C2384 0.929 . S
H2377 C2386 0.930 . S
H2378 C2388 0.930 . S
H2379 C2391 0.929 . S
H2380 C2394 0.930 . S
H2381 C2396 0.960 . S
H2382 C2396 0.960 . S
H2383 C2396 0.960 . S
C2384 H2376 0.929 . S
C2384 C2385 1.377 . S
C2384 C2386 1.384 . S
C2385 C2384 1.377 . S
C2385 C2391 1.390 . S
C2386 H2377 0.930 . S
C2386 C2384 1.384 . S
C2386 C2387 1.372 . S
C2387 C2386 1.372 . S
C2387 C2388 1.400 . S
C2387 C2392 1.490 . S
C2388 H2378 0.930 . S
C2388 C2387 1.400 . S
C2388 C2391 1.386 . S
H2389 C2405 0.930 . S
H2390 C2406 0.931 . S
C2391 H2379 0.929 . S
C2391 C2385 1.390 . S
C2391 C2388 1.386 . S
C2392 C2387 1.490 . S
C2392 C2394 1.395 . S
C2392 C2395 1.403 1_554 S
H2393 C2399 0.930 . S
C2394 H2380 0.930 . S
C2394 C2392 1.395 . S
C2394 C2397 1.403 1_565 S
C2395 C2392 1.403 1_556 S
C2395 C2396 1.524 . S
C2395 C2399 1.400 1_565 S
C2396 H2381 0.960 . S
C2396 H2382 0.960 . S
C2396 H2383 0.960 . S
C2396 C2395 1.524 . S
C2397 C2394 1.403 1_545 S
C2397 C2398 1.392 1_554 S
C2397 C2401 1.495 . S
C2398 C2397 1.392 1_556 S
C2398 C2399 1.385 . S
C2398 C2400 1.478 . S
C2399 H2393 0.930 . S
C2399 C2395 1.400 1_545 S
C2399 C2398 1.385 . S
C2400 C2398 1.478 . S
C2400 C2402 1.381 . S
C2400 C2406 1.383 . S
C2401 C2397 1.495 . S
C2401 H2407 0.959 . S
C2401 H2408 0.961 . S
C2401 H2409 0.960 . S
C2402 C2400 1.381 . S
C2402 C2403 1.394 . S
C2402 H2410 0.930 . S
C2403 C2402 1.394 . S
C2403 C2404 1.383 . S
C2403 H2411 0.929 . S
C2404 C2403 1.383 . S
C2404 C2405 1.377 . S
C2405 H2389 0.930 . S
C2405 C2404 1.377 . S
C2405 C2406 1.379 . S
C2406 H2390 0.931 . S
C2406 C2400 1.383 . S
C2406 C2405 1.379 . S
H2407 C2401 0.959 . S
H2408 C2401 0.961 . S
H2409 C2401 0.960 . S
H2410 C2402 0.930 . S
H2411 C2403 0.929 . S
H2412 C2420 0.929 . S
H2413 C2422 0.930 1_556 S
H2414 C2424 0.930 . S
H2415 C2427 0.929 . S
H2416 C2430 0.930 . S
H2417 C2432 0.960 . S
H2418 C2432 0.960 . S
H2419 C2432 0.960 1_554 S
C2420 H2412 0.929 . S
C2420 C2421 1.377 . S
C2420 C2422 1.384 . S
C2421 C2420 1.377 . S
C2421 C2427 1.390 . S
C2422 H2413 0.930 1_554 S
C2422 C2420 1.384 . S
C2422 C2423 1.372 . S
C2423 C2422 1.372 . S
C2423 C2424 1.400 . S
C2423 C2428 1.490 . S
C2424 H2414 0.930 . S
C2424 C2423 1.400 . S
C2424 C2427 1.386 . S
H2425 C2441 0.930 . S
H2426 C2442 0.931 1_554 S
C2427 H2415 0.929 . S
C2427 C2421 1.390 . S
C2427 C2424 1.386 . S
C2428 C2423 1.490 . S
C2428 C2430 1.395 . S
C2428 C2431 1.403 1_554 S
H2429 C2435 0.930 . S
C2430 H2416 0.930 . S
C2430 C2428 1.395 . S
C2430 C2433 1.403 1_565 S
C2431 C2428 1.403 1_556 S
C2431 C2432 1.524 . S
C2431 C2435 1.400 1_565 S
C2432 H2417 0.960 . S
C2432 H2418 0.960 . S
C2432 H2419 0.960 1_556 S
C2432 C2431 1.524 . S
C2433 C2430 1.403 1_545 S
C2433 C2434 1.392 1_554 S
C2433 C2437 1.495 . S
C2434 C2433 1.392 1_556 S
C2434 C2435 1.385 . S
C2434 C2436 1.478 . S
C2435 H2429 0.930 . S
C2435 C2431 1.400 1_545 S
C2435 C2434 1.385 . S
C2436 C2434 1.478 . S
C2436 C2438 1.381 . S
C2436 C2442 1.383 . S
C2437 C2433 1.495 . S
C2437 H2443 0.959 . S
C2437 H2444 0.961 . S
C2437 H2445 0.960 1_554 S
C2438 C2436 1.381 . S
C2438 C2439 1.394 . S
C2438 H2446 0.930 . S
C2439 C2438 1.394 . S
C2439 C2440 1.383 . S
C2439 H2447 0.929 . S
C2440 C2439 1.383 . S
C2440 C2441 1.377 . S
C2441 H2425 0.930 . S
C2441 C2440 1.377 . S
C2441 C2442 1.379 . S
C2442 H2426 0.931 1_556 S
C2442 C2436 1.383 . S
C2442 C2441 1.379 . S
H2443 C2437 0.959 . S
H2444 C2437 0.961 . S
H2445 C2437 0.960 1_556 S
H2446 C2438 0.930 . S
H2447 C2439 0.929 . S
H2448 C2456 0.929 . S
H2449 C2458 0.930 . S
H2450 C2460 0.930 1_554 S
H2451 C2463 0.929 1_554 S
H2452 C2466 0.930 . S
H2453 C2468 0.960 1_554 S
H2454 C2468 0.960 . S
H2455 C2468 0.960 1_554 S
C2456 H2448 0.929 . S
C2456 C2457 1.377 . S
C2456 C2458 1.384 . S
C2457 C2456 1.377 . S
C2457 C2463 1.390 . S
C2458 H2449 0.930 . S
C2458 C2456 1.384 . S
C2458 C2459 1.372 . S
C2459 C2458 1.372 . S
C2459 C2460 1.400 . S
C2459 C2464 1.490 . S
C2460 H2450 0.930 1_556 S
C2460 C2459 1.400 . S
C2460 C2463 1.386 . S
H2461 C2477 0.930 . S
H2462 C2478 0.931 . S
C2463 H2451 0.929 1_556 S
C2463 C2457 1.390 . S
C2463 C2460 1.386 . S
C2464 C2459 1.490 . S
C2464 C2466 1.395 . S
C2464 C2467 1.403 . S
H2465 C2471 0.930 . S
C2466 H2452 0.930 . S
C2466 C2464 1.395 . S
C2466 C2469 1.403 1_655 S
C2467 C2464 1.403 . S
C2467 C2468 1.524 . S
C2467 C2471 1.400 1_656 S
C2468 H2453 0.960 1_556 S
C2468 H2454 0.960 . S
C2468 H2455 0.960 1_556 S
C2468 C2467 1.524 . S
C2469 C2466 1.403 1_455 S
C2469 C2470 1.392 1_556 S
C2469 C2473 1.495 1_556 S
C2470 C2469 1.392 1_554 S
C2470 C2471 1.385 . S
C2470 C2472 1.478 . S
C2471 H2465 0.930 . S
C2471 C2467 1.400 1_454 S
C2471 C2470 1.385 . S
C2472 C2470 1.478 . S
C2472 C2474 1.392 . S
C2472 C2478 1.383 . S
C2473 C2469 1.495 1_554 S
C2473 H2479 0.957 1_554 S
C2473 H2480 0.968 . S
C2473 H2481 0.955 1_554 S
C2474 C2472 1.392 . S
C2474 C2475 1.400 . S
C2474 H2482 0.913 1_554 S
C2475 C2474 1.400 . S
C2475 C2476 1.383 . S
C2475 H2483 0.929 1_554 S
C2476 C2475 1.383 . S
C2476 C2477 1.377 . S
C2477 H2461 0.930 . S
C2477 C2476 1.377 . S
C2477 C2478 1.379 . S
C2478 H2462 0.931 . S
C2478 C2472 1.383 . S
C2478 C2477 1.379 . S
H2479 C2473 0.957 1_556 S
H2480 C2473 0.968 . S
H2481 C2473 0.955 1_556 S
H2482 C2474 0.913 1_556 S
H2483 C2475 0.929 1_556 S
H2484 C2492 0.929 . S
H2485 C2494 0.930 . S
H2486 C2496 0.930 . S
H2487 C2499 0.929 . S
H2488 C2502 0.930 . S
H2489 C2504 0.960 . S
H2490 C2504 0.960 . S
H2491 C2504 0.960 . S
C2492 H2484 0.929 . S
C2492 C2493 1.377 . S
C2492 C2494 1.384 . S
C2493 C2492 1.377 . S
C2493 C2499 1.390 . S
C2494 H2485 0.930 . S
C2494 C2492 1.384 . S
C2494 C2495 1.372 . S
C2495 C2494 1.372 . S
C2495 C2496 1.400 . S
C2495 C2500 1.490 . S
C2496 H2486 0.930 . S
C2496 C2495 1.400 . S
C2496 C2499 1.386 . S
H2497 C2513 0.930 . S
H2498 C2514 0.931 . S
C2499 H2487 0.929 . S
C2499 C2493 1.390 . S
C2499 C2496 1.386 . S
C2500 C2495 1.490 . S
C2500 C2502 1.395 1_556 S
C2500 C2503 1.403 . S
H2501 C2507 0.930 . S
C2502 H2488 0.930 . S
C2502 C2500 1.395 1_554 S
C2502 C2505 1.403 . S
C2503 C2500 1.403 . S
C2503 C2504 1.524 . S
C2503 C2507 1.400 . S
C2504 H2489 0.960 . S
C2504 H2490 0.960 . S
C2504 H2491 0.960 . S
C2504 C2503 1.524 . S
C2505 C2502 1.403 . S
C2505 C2506 1.392 . S
C2505 C2509 1.495 . S
C2506 C2505 1.392 . S
C2506 C2507 1.385 1_554 S
C2506 C2508 1.478 . S
C2507 H2501 0.930 . S
C2507 C2503 1.400 . S
C2507 C2506 1.385 1_556 S
C2508 C2506 1.478 . S
C2508 C2510 1.381 . S
C2508 C2514 1.383 . S
C2509 C2505 1.495 . S
C2509 H2515 0.959 . S
C2509 H2516 0.961 . S
C2509 H2517 0.960 . S
C2510 C2508 1.381 . S
C2510 C2511 1.394 . S
C2510 H2518 0.930 . S
C2511 C2510 1.394 . S
C2511 C2512 1.383 . S
C2511 H2519 0.929 . S
C2512 C2511 1.383 . S
C2512 C2513 1.377 . S
C2513 H2497 0.930 . S
C2513 C2512 1.377 . S
C2513 C2514 1.379 . S
C2514 H2498 0.931 . S
C2514 C2508 1.383 . S
C2514 C2513 1.379 . S
H2515 C2509 0.959 . S
H2516 C2509 0.961 . S
H2517 C2509 0.960 . S
H2518 C2510 0.930 . S
H2519 C2511 0.929 . S
H2520 C2528 0.929 . S
H2521 C2530 0.930 . S
H2522 C2532 0.930 . S
H2523 C2535 0.929 . S
H2524 C2538 0.930 . S
H2525 C2540 0.960 . S
H2526 C2540 0.960 . S
H2527 C2540 0.960 . S
C2528 H2520 0.929 . S
C2528 C2529 1.377 . S
C2528 C2530 1.384 . S
C2529 C2528 1.377 . S
C2529 C2535 1.390 . S
C2530 H2521 0.930 . S
C2530 C2528 1.384 . S
C2530 C2531 1.372 . S
C2531 C2530 1.372 . S
C2531 C2532 1.400 . S
C2531 C2536 1.490 . S
C2532 H2522 0.930 . S
C2532 C2531 1.400 . S
C2532 C2535 1.386 . S
H2533 C2549 0.930 . S
H2534 C2550 0.931 . S
C2535 H2523 0.929 . S
C2535 C2529 1.390 . S
C2535 C2532 1.386 . S
C2536 C2531 1.490 . S
C2536 C2538 1.395 . S
C2536 C2539 1.403 . S
H2537 C2543 0.930 . S
C2538 H2524 0.930 . S
C2538 C2536 1.395 . S
C2538 C2541 1.403 . S
C2539 C2536 1.403 . S
C2539 C2540 1.524 . S
C2539 C2543 1.400 . S
C2540 H2525 0.960 . S
C2540 H2526 0.960 . S
C2540 H2527 0.960 . S
C2540 C2539 1.524 . S
C2541 C2538 1.403 . S
C2541 C2542 1.392 . S
C2541 C2545 1.495 . S
C2542 C2541 1.392 . S
C2542 C2543 1.385 . S
C2542 C2544 1.478 . S
C2543 H2537 0.930 . S
C2543 C2539 1.400 . S
C2543 C2542 1.385 . S
C2544 C2542 1.478 . S
C2544 C2546 1.381 . S
C2544 C2550 1.383 . S
C2545 C2541 1.495 . S
C2545 H2551 0.959 . S
C2545 H2552 0.961 . S
C2545 H2553 0.960 . S
C2546 C2544 1.381 . S
C2546 C2547 1.394 . S
C2546 H2554 0.930 . S
C2547 C2546 1.394 . S
C2547 C2548 1.383 . S
C2547 H2555 0.929 . S
C2548 C2547 1.383 . S
C2548 C2549 1.377 . S
C2549 H2533 0.930 . S
C2549 C2548 1.377 . S
C2549 C2550 1.379 . S
C2550 H2534 0.931 . S
C2550 C2544 1.383 . S
C2550 C2549 1.379 . S
H2551 C2545 0.959 . S
H2552 C2545 0.961 . S
H2553 C2545 0.960 . S
H2554 C2546 0.930 . S
H2555 C2547 0.929 . S
H2556 C2564 0.929 . S
H2557 C2566 0.930 . S
H2558 C2568 0.930 . S
H2559 C2571 0.929 . S
H2560 C2574 0.930 . S
H2561 C2576 0.960 . S
H2562 C2576 0.960 . S
H2563 C2576 0.960 . S
C2564 H2556 0.929 . S
C2564 C2565 1.377 . S
C2564 C2566 1.384 . S
C2565 C2564 1.377 . S
C2565 C2571 1.390 . S
C2566 H2557 0.930 . S
C2566 C2564 1.384 . S
C2566 C2567 1.372 . S
C2567 C2566 1.372 . S
C2567 C2568 1.400 . S
C2567 C2572 1.490 . S
C2568 H2558 0.930 . S
C2568 C2567 1.400 . S
C2568 C2571 1.386 . S
H2569 C2585 0.930 . S
H2570 C2586 0.931 . S
C2571 H2559 0.929 . S
C2571 C2565 1.390 . S
C2571 C2568 1.386 . S
C2572 C2567 1.490 . S
C2572 C2574 1.395 . S
C2572 C2575 1.403 . S
H2573 C2579 0.930 . S
C2574 H2560 0.930 . S
C2574 C2572 1.395 . S
C2574 C2577 1.403 . S
C2575 C2572 1.403 . S
C2575 C2576 1.524 . S
C2575 C2579 1.400 . S
C2576 H2561 0.960 . S
C2576 H2562 0.960 . S
C2576 H2563 0.960 . S
C2576 C2575 1.524 . S
C2577 C2574 1.403 . S
C2577 C2578 1.392 . S
C2577 C2581 1.495 . S
C2578 C2577 1.392 . S
C2578 C2579 1.385 . S
C2578 C2580 1.478 . S
C2579 H2573 0.930 . S
C2579 C2575 1.400 . S
C2579 C2578 1.385 . S
C2580 C2578 1.478 . S
C2580 C2582 1.381 . S
C2580 C2586 1.383 . S
C2581 C2577 1.495 . S
C2581 H2587 0.959 . S
C2581 H2588 0.961 . S
C2581 H2589 0.960 . S
C2582 C2580 1.381 . S
C2582 C2583 1.394 . S
C2582 H2590 0.930 . S
C2583 C2582 1.394 . S
C2583 C2584 1.383 . S
C2583 H2591 0.929 . S
C2584 C2583 1.383 . S
C2584 C2585 1.377 . S
C2585 H2569 0.930 . S
C2585 C2584 1.377 . S
C2585 C2586 1.379 . S
C2586 H2570 0.931 . S
C2586 C2580 1.383 . S
C2586 C2585 1.379 . S
H2587 C2581 0.959 . S
H2588 C2581 0.961 . S
H2589 C2581 0.960 . S
H2590 C2582 0.930 . S
H2591 C2583 0.929 . S
H2592 C2600 0.929 . S
H2593 C2602 0.930 . S
H2594 C2604 0.930 . S
H2595 C2607 0.929 . S
H2596 C2610 0.930 . S
H2597 C2612 0.960 . S
H2598 C2612 0.960 . S
H2599 C2612 0.960 . S
C2600 H2592 0.929 . S
C2600 C2601 1.377 . S
C2600 C2602 1.384 . S
C2601 C2600 1.377 . S
C2601 C2607 1.390 . S
C2602 H2593 0.930 . S
C2602 C2600 1.384 . S
C2602 C2603 1.372 . S
C2603 C2602 1.372 . S
C2603 C2604 1.400 . S
C2603 C2608 1.490 . S
C2604 H2594 0.930 . S
C2604 C2603 1.400 . S
C2604 C2607 1.386 . S
H2605 C2621 0.930 . S
H2606 C2622 0.931 . S
C2607 H2595 0.929 . S
C2607 C2601 1.390 . S
C2607 C2604 1.386 . S
C2608 C2603 1.490 . S
C2608 C2610 1.395 . S
C2608 C2611 1.403 . S
H2609 C2615 0.930 . S
C2610 H2596 0.930 . S
C2610 C2608 1.395 . S
C2610 C2613 1.403 . S
C2611 C2608 1.403 . S
C2611 C2612 1.524 . S
C2611 C2615 1.400 . S
C2612 H2597 0.960 . S
C2612 H2598 0.960 . S
C2612 H2599 0.960 . S
C2612 C2611 1.524 . S
C2613 C2610 1.403 . S
C2613 C2614 1.392 . S
C2613 C2617 1.495 . S
C2614 C2613 1.392 . S
C2614 C2615 1.385 . S
C2614 C2616 1.478 . S
C2615 H2609 0.930 . S
C2615 C2611 1.400 . S
C2615 C2614 1.385 . S
C2616 C2614 1.478 . S
C2616 C2618 1.381 . S
C2616 C2622 1.383 . S
C2617 C2613 1.495 . S
C2617 H2623 0.959 . S
C2617 H2624 0.961 . S
C2617 H2625 0.960 . S
C2618 C2616 1.381 . S
C2618 C2619 1.394 . S
C2618 H2626 0.930 . S
C2619 C2618 1.394 . S
C2619 C2620 1.383 . S
C2619 H2627 0.929 . S
C2620 C2619 1.383 . S
C2620 C2621 1.377 . S
C2621 H2605 0.930 . S
C2621 C2620 1.377 . S
C2621 C2622 1.379 . S
C2622 H2606 0.931 . S
C2622 C2616 1.383 . S
C2622 C2621 1.379 . S
H2623 C2617 0.959 . S
H2624 C2617 0.961 . S
H2625 C2617 0.960 . S
H2626 C2618 0.930 . S
H2627 C2619 0.929 . S
H2628 C2636 0.929 . S
H2629 C2638 0.930 . S
H2630 C2640 0.930 . S
H2631 C2643 0.929 . S
H2632 C2646 0.930 . S
H2633 C2648 0.960 . S
H2634 C2648 0.960 . S
H2635 C2648 0.960 . S
C2636 H2628 0.929 . S
C2636 C2637 1.377 . S
C2636 C2638 1.384 . S
C2637 C2636 1.377 . S
C2637 C2643 1.390 . S
C2638 H2629 0.930 . S
C2638 C2636 1.384 . S
C2638 C2639 1.372 . S
C2639 C2638 1.372 . S
C2639 C2640 1.400 . S
C2639 C2644 1.490 . S
C2640 H2630 0.930 . S
C2640 C2639 1.400 . S
C2640 C2643 1.386 . S
H2641 C2657 0.930 . S
H2642 C2658 0.931 . S
C2643 H2631 0.929 . S
C2643 C2637 1.390 . S
C2643 C2640 1.386 . S
C2644 C2639 1.490 . S
C2644 C2646 1.395 . S
C2644 C2647 1.403 . S
H2645 C2651 0.930 . S
C2646 H2632 0.930 . S
C2646 C2644 1.395 . S
C2646 C2649 1.403 . S
C2647 C2644 1.403 . S
C2647 C2648 1.524 . S
C2647 C2651 1.400 . S
C2648 H2633 0.960 . S
C2648 H2634 0.960 . S
C2648 H2635 0.960 . S
C2648 C2647 1.524 . S
C2649 C2646 1.403 . S
C2649 C2650 1.392 . S
C2649 C2653 1.495 . S
C2650 C2649 1.392 . S
C2650 C2651 1.385 . S
C2650 C2652 1.478 . S
C2651 H2645 0.930 . S
C2651 C2647 1.400 . S
C2651 C2650 1.385 . S
C2652 C2650 1.478 . S
C2652 C2654 1.381 . S
C2652 C2658 1.383 . S
C2653 C2649 1.495 . S
C2653 H2659 0.959 . S
C2653 H2660 0.961 . S
C2653 H2661 0.960 . S
C2654 C2652 1.381 . S
C2654 C2655 1.394 . S
C2654 H2662 0.930 . S
C2655 C2654 1.394 . S
C2655 C2656 1.383 . S
C2655 H2663 0.929 . S
C2656 C2655 1.383 . S
C2656 C2657 1.377 . S
C2657 H2641 0.930 . S
C2657 C2656 1.377 . S
C2657 C2658 1.379 . S
C2658 H2642 0.931 . S
C2658 C2652 1.383 . S
C2658 C2657 1.379 . S
H2659 C2653 0.959 . S
H2660 C2653 0.961 . S
H2661 C2653 0.960 . S
H2662 C2654 0.930 . S
H2663 C2655 0.929 . S
H2664 C2672 0.929 . S
H2665 C2674 0.930 . S
H2666 C2676 0.930 . S
H2667 C2679 0.929 . S
H2668 C2682 0.930 . S
H2669 C2684 0.960 . S
H2670 C2684 0.960 . S
H2671 C2684 0.960 . S
C2672 H2664 0.929 . S
C2672 C2673 1.377 . S
C2672 C2674 1.384 . S
C2673 C2672 1.377 . S
C2673 C2679 1.390 . S
C2674 H2665 0.930 . S
C2674 C2672 1.384 . S
C2674 C2675 1.372 . S
C2675 C2674 1.372 . S
C2675 C2676 1.400 . S
C2675 C2680 1.490 . S
C2676 H2666 0.930 . S
C2676 C2675 1.400 . S
C2676 C2679 1.386 . S
H2677 C2693 0.930 . S
H2678 C2694 0.931 . S
C2679 H2667 0.929 . S
C2679 C2673 1.390 . S
C2679 C2676 1.386 . S
C2680 C2675 1.490 . S
C2680 C2682 1.395 . S
C2680 C2683 1.403 . S
H2681 C2687 0.930 . S
C2682 H2668 0.930 . S
C2682 C2680 1.395 . S
C2682 C2685 1.403 . S
C2683 C2680 1.403 . S
C2683 C2684 1.524 . S
C2683 C2687 1.400 . S
C2684 H2669 0.960 . S
C2684 H2670 0.960 . S
C2684 H2671 0.960 . S
C2684 C2683 1.524 . S
C2685 C2682 1.403 . S
C2685 C2686 1.392 . S
C2685 C2689 1.495 . S
C2686 C2685 1.392 . S
C2686 C2687 1.385 . S
C2686 C2688 1.478 . S
C2687 H2681 0.930 . S
C2687 C2683 1.400 . S
C2687 C2686 1.385 . S
C2688 C2686 1.478 . S
C2688 C2690 1.381 . S
C2688 C2694 1.383 . S
C2689 C2685 1.495 . S
C2689 H2695 0.959 . S
C2689 H2696 0.961 . S
C2689 H2697 0.960 . S
C2690 C2688 1.381 . S
C2690 C2691 1.394 . S
C2690 H2698 0.930 . S
C2691 C2690 1.394 . S
C2691 C2692 1.383 . S
C2691 H2699 0.929 . S
C2692 C2691 1.383 . S
C2692 C2693 1.377 . S
C2693 H2677 0.930 . S
C2693 C2692 1.377 . S
C2693 C2694 1.379 . S
C2694 H2678 0.931 . S
C2694 C2688 1.383 . S
C2694 C2693 1.379 . S
H2695 C2689 0.959 . S
H2696 C2689 0.961 . S
H2697 C2689 0.960 . S
H2698 C2690 0.930 . S
H2699 C2691 0.929 . S
H2700 C2708 0.929 . S
H2701 C2710 0.930 . S
H2702 C2712 0.930 . S
H2703 C2715 0.929 . S
H2704 C2718 0.930 . S
H2705 C2720 0.960 . S
H2706 C2720 0.960 . S
H2707 C2720 0.960 . S
C2708 H2700 0.929 . S
C2708 C2709 1.377 . S
C2708 C2710 1.384 . S
C2709 C2708 1.377 . S
C2709 C2715 1.390 . S
C2710 H2701 0.930 . S
C2710 C2708 1.384 . S
C2710 C2711 1.372 . S
C2711 C2710 1.372 . S
C2711 C2712 1.400 . S
C2711 C2716 1.490 . S
C2712 H2702 0.930 . S
C2712 C2711 1.400 . S
C2712 C2715 1.386 . S
H2713 C2729 0.930 . S
H2714 C2730 0.931 . S
C2715 H2703 0.929 . S
C2715 C2709 1.390 . S
C2715 C2712 1.386 . S
C2716 C2711 1.490 . S
C2716 C2718 1.395 . S
C2716 C2719 1.403 . S
H2717 C2723 0.930 . S
C2718 H2704 0.930 . S
C2718 C2716 1.395 . S
C2718 C2721 1.403 . S
C2719 C2716 1.403 . S
C2719 C2720 1.524 . S
C2719 C2723 1.400 . S
C2720 H2705 0.960 . S
C2720 H2706 0.960 . S
C2720 H2707 0.960 . S
C2720 C2719 1.524 . S
C2721 C2718 1.403 . S
C2721 C2722 1.392 . S
C2721 C2725 1.495 . S
C2722 C2721 1.392 . S
C2722 C2723 1.385 . S
C2722 C2724 1.478 . S
C2723 H2717 0.930 . S
C2723 C2719 1.400 . S
C2723 C2722 1.385 . S
C2724 C2722 1.478 . S
C2724 C2726 1.381 . S
C2724 C2730 1.383 . S
C2725 C2721 1.495 . S
C2725 H2731 0.959 . S
C2725 H2732 0.961 . S
C2725 H2733 0.960 . S
C2726 C2724 1.381 . S
C2726 C2727 1.394 . S
C2726 H2734 0.930 . S
C2727 C2726 1.394 . S
C2727 C2728 1.383 . S
C2727 H2735 0.929 . S
C2728 C2727 1.383 . S
C2728 C2729 1.377 . S
C2729 H2713 0.930 . S
C2729 C2728 1.377 . S
C2729 C2730 1.379 . S
C2730 H2714 0.931 . S
C2730 C2724 1.383 . S
C2730 C2729 1.379 . S
H2731 C2725 0.959 . S
H2732 C2725 0.961 . S
H2733 C2725 0.960 . S
H2734 C2726 0.930 . S
H2735 C2727 0.929 . S
H2736 C2744 0.929 . S
H2737 C2746 0.930 . S
H2738 C2748 0.930 . S
H2739 C2751 0.929 . S
H2740 C2754 0.930 . S
H2741 C2756 0.960 . S
H2742 C2756 0.960 . S
H2743 C2756 0.960 . S
C2744 H2736 0.929 . S
C2744 C2745 1.377 . S
C2744 C2746 1.384 . S
C2745 C2744 1.377 . S
C2745 C2751 1.390 . S
C2746 H2737 0.930 . S
C2746 C2744 1.384 . S
C2746 C2747 1.372 . S
C2747 C2746 1.372 . S
C2747 C2748 1.400 . S
C2747 C2752 1.490 . S
C2748 H2738 0.930 . S
C2748 C2747 1.400 . S
C2748 C2751 1.386 . S
H2749 C2765 0.930 . S
H2750 C2766 0.931 . S
C2751 H2739 0.929 . S
C2751 C2745 1.390 . S
C2751 C2748 1.386 . S
C2752 C2747 1.490 . S
C2752 C2754 1.395 . S
C2752 C2755 1.403 . S
H2753 C2759 0.930 . S
C2754 H2740 0.930 . S
C2754 C2752 1.395 . S
C2754 C2757 1.403 . S
C2755 C2752 1.403 . S
C2755 C2756 1.524 . S
C2755 C2759 1.400 . S
C2756 H2741 0.960 . S
C2756 H2742 0.960 . S
C2756 H2743 0.960 . S
C2756 C2755 1.524 . S
C2757 C2754 1.403 . S
C2757 C2758 1.392 . S
C2757 C2761 1.495 . S
C2758 C2757 1.392 . S
C2758 C2759 1.385 . S
C2758 C2760 1.478 . S
C2759 H2753 0.930 . S
C2759 C2755 1.400 . S
C2759 C2758 1.385 . S
C2760 C2758 1.478 . S
C2760 C2762 1.381 . S
C2760 C2766 1.383 . S
C2761 C2757 1.495 . S
C2761 H2767 0.959 . S
C2761 H2768 0.961 . S
C2761 H2769 0.960 . S
C2762 C2760 1.381 . S
C2762 C2763 1.394 . S
C2762 H2770 0.930 . S
C2763 C2762 1.394 . S
C2763 C2764 1.383 . S
C2763 H2771 0.929 . S
C2764 C2763 1.383 . S
C2764 C2765 1.377 . S
C2765 H2749 0.930 . S
C2765 C2764 1.377 . S
C2765 C2766 1.379 . S
C2766 H2750 0.931 . S
C2766 C2760 1.383 . S
C2766 C2765 1.379 . S
H2767 C2761 0.959 . S
H2768 C2761 0.961 . S
H2769 C2761 0.960 . S
H2770 C2762 0.930 . S
H2771 C2763 0.929 . S
H2772 C2780 0.929 . S
H2773 C2782 0.930 . S
H2774 C2784 0.930 . S
H2775 C2787 0.929 . S
H2776 C2790 0.930 . S
H2777 C2792 0.960 . S
H2778 C2792 0.960 . S
H2779 C2792 0.960 . S
C2780 H2772 0.929 . S
C2780 C2781 1.377 . S
C2780 C2782 1.384 . S
C2781 C2780 1.377 . S
C2781 C2787 1.390 . S
C2782 H2773 0.930 . S
C2782 C2780 1.384 . S
C2782 C2783 1.372 . S
C2783 C2782 1.372 . S
C2783 C2784 1.400 . S
C2783 C2788 1.490 . S
C2784 H2774 0.930 . S
C2784 C2783 1.400 . S
C2784 C2787 1.386 . S
H2785 C2801 0.930 . S
H2786 C2802 0.931 . S
C2787 H2775 0.929 . S
C2787 C2781 1.390 . S
C2787 C2784 1.386 . S
C2788 C2783 1.490 . S
C2788 C2790 1.395 . S
C2788 C2791 1.403 . S
H2789 C2795 0.930 . S
C2790 H2776 0.930 . S
C2790 C2788 1.395 . S
C2790 C2793 1.403 . S
C2791 C2788 1.403 . S
C2791 C2792 1.524 . S
C2791 C2795 1.400 . S
C2792 H2777 0.960 . S
C2792 H2778 0.960 . S
C2792 H2779 0.960 . S
C2792 C2791 1.524 . S
C2793 C2790 1.403 . S
C2793 C2794 1.392 . S
C2793 C2797 1.495 . S
C2794 C2793 1.392 . S
C2794 C2795 1.385 . S
C2794 C2796 1.478 . S
C2795 H2789 0.930 . S
C2795 C2791 1.400 . S
C2795 C2794 1.385 . S
C2796 C2794 1.478 . S
C2796 C2798 1.381 . S
C2796 C2802 1.383 . S
C2797 C2793 1.495 . S
C2797 H2803 0.959 . S
C2797 H2804 0.961 . S
C2797 H2805 0.960 . S
C2798 C2796 1.381 . S
C2798 C2799 1.394 . S
C2798 H2806 0.930 . S
C2799 C2798 1.394 . S
C2799 C2800 1.383 . S
C2799 H2807 0.929 . S
C2800 C2799 1.383 . S
C2800 C2801 1.377 . S
C2801 H2785 0.930 . S
C2801 C2800 1.377 . S
C2801 C2802 1.379 . S
C2802 H2786 0.931 . S
C2802 C2796 1.383 . S
C2802 C2801 1.379 . S
H2803 C2797 0.959 . S
H2804 C2797 0.961 . S
H2805 C2797 0.960 . S
H2806 C2798 0.930 . S
H2807 C2799 0.929 . S
H2808 C2816 0.929 . S
H2809 C2818 0.930 . S
H2810 C2820 0.930 . S
H2811 C2823 0.929 . S
H2812 C2826 0.930 . S
H2813 C2828 0.960 . S
H2814 C2828 0.960 . S
H2815 C2828 0.960 . S
C2816 H2808 0.929 . S
C2816 C2817 1.377 . S
C2816 C2818 1.384 . S
C2817 C2816 1.377 . S
C2817 C2823 1.390 . S
C2818 H2809 0.930 . S
C2818 C2816 1.384 . S
C2818 C2819 1.372 . S
C2819 C2818 1.372 . S
C2819 C2820 1.400 . S
C2819 C2824 1.490 . S
C2820 H2810 0.930 . S
C2820 C2819 1.400 . S
C2820 C2823 1.386 . S
H2821 C2837 0.930 . S
H2822 C2838 0.931 . S
C2823 H2811 0.929 . S
C2823 C2817 1.390 . S
C2823 C2820 1.386 . S
C2824 C2819 1.490 . S
C2824 C2826 1.395 . S
C2824 C2827 1.403 . S
H2825 C2831 0.930 . S
C2826 H2812 0.930 . S
C2826 C2824 1.395 . S
C2826 C2829 1.403 . S
C2827 C2824 1.403 . S
C2827 C2828 1.524 . S
C2827 C2831 1.400 . S
C2828 H2813 0.960 . S
C2828 H2814 0.960 . S
C2828 H2815 0.960 . S
C2828 C2827 1.524 . S
C2829 C2826 1.403 . S
C2829 C2830 1.392 . S
C2829 C2833 1.495 . S
C2830 C2829 1.392 . S
C2830 C2831 1.385 . S
C2830 C2832 1.478 . S
C2831 H2825 0.930 . S
C2831 C2827 1.400 . S
C2831 C2830 1.385 . S
C2832 C2830 1.478 . S
C2832 C2834 1.381 . S
C2832 C2838 1.383 . S
C2833 C2829 1.495 . S
C2833 H2839 0.959 . S
C2833 H2840 0.961 . S
C2833 H2841 0.960 . S
C2834 C2832 1.381 . S
C2834 C2835 1.394 . S
C2834 H2842 0.930 . S
C2835 C2834 1.394 . S
C2835 C2836 1.383 . S
C2835 H2843 0.929 . S
C2836 C2835 1.383 . S
C2836 C2837 1.377 . S
C2837 H2821 0.930 . S
C2837 C2836 1.377 . S
C2837 C2838 1.379 . S
C2838 H2822 0.931 . S
C2838 C2832 1.383 . S
C2838 C2837 1.379 . S
H2839 C2833 0.959 . S
H2840 C2833 0.961 . S
H2841 C2833 0.960 . S
H2842 C2834 0.930 . S
H2843 C2835 0.929 . S
H2844 C2852 0.929 . S
H2845 C2854 0.930 . S
H2846 C2856 0.930 . S
H2847 C2859 0.929 . S
H2848 C2862 0.930 . S
H2849 C2864 0.960 . S
H2850 C2864 0.960 . S
H2851 C2864 0.960 . S
C2852 H2844 0.929 . S
C2852 C2853 1.377 . S
C2852 C2854 1.384 . S
C2853 C2852 1.377 . S
C2853 C2859 1.390 . S
C2854 H2845 0.930 . S
C2854 C2852 1.384 . S
C2854 C2855 1.372 . S
C2855 C2854 1.372 . S
C2855 C2856 1.400 . S
C2855 C2860 1.490 . S
C2856 H2846 0.930 . S
C2856 C2855 1.400 . S
C2856 C2859 1.386 . S
H2857 C2873 0.930 . S
H2858 C2874 0.931 . S
C2859 H2847 0.929 . S
C2859 C2853 1.390 . S
C2859 C2856 1.386 . S
C2860 C2855 1.490 . S
C2860 C2862 1.395 . S
C2860 C2863 1.403 . S
H2861 C2867 0.930 . S
C2862 H2848 0.930 . S
C2862 C2860 1.395 . S
C2862 C2865 1.403 . S
C2863 C2860 1.403 . S
C2863 C2864 1.524 . S
C2863 C2867 1.400 . S
C2864 H2849 0.960 . S
C2864 H2850 0.960 . S
C2864 H2851 0.960 . S
C2864 C2863 1.524 . S
C2865 C2862 1.403 . S
C2865 C2866 1.392 . S
C2865 C2869 1.495 . S
C2866 C2865 1.392 . S
C2866 C2867 1.385 . S
C2866 C2868 1.478 . S
C2867 H2861 0.930 . S
C2867 C2863 1.400 . S
C2867 C2866 1.385 . S
C2868 C2866 1.478 . S
C2868 C2870 1.381 . S
C2868 C2874 1.383 . S
C2869 C2865 1.495 . S
C2869 H2875 0.959 . S
C2869 H2876 0.961 . S
C2869 H2877 0.960 . S
C2870 C2868 1.381 . S
C2870 C2871 1.394 . S
C2870 H2878 0.930 . S
C2871 C2870 1.394 . S
C2871 C2872 1.383 . S
C2871 H2879 0.929 . S
C2872 C2871 1.383 . S
C2872 C2873 1.377 . S
C2873 H2857 0.930 . S
C2873 C2872 1.377 . S
C2873 C2874 1.379 . S
C2874 H2858 0.931 . S
C2874 C2868 1.383 . S
C2874 C2873 1.379 . S
H2875 C2869 0.959 . S
H2876 C2869 0.961 . S
H2877 C2869 0.960 . S
H2878 C2870 0.930 . S
H2879 C2871 0.929 . S
H2880 C2888 0.929 . S
H2881 C2890 0.930 . S
H2882 C2892 0.930 . S
H2883 C2895 0.929 . S
H2884 C2898 0.930 . S
H2885 C2900 0.960 . S
H2886 C2900 0.960 . S
H2887 C2900 0.960 . S
C2888 H2880 0.929 . S
C2888 C2889 1.377 . S
C2888 C2890 1.384 . S
C2889 C2888 1.377 . S
C2889 C2895 1.390 . S
C2890 H2881 0.930 . S
C2890 C2888 1.384 . S
C2890 C2891 1.372 . S
C2891 C2890 1.372 . S
C2891 C2892 1.400 . S
C2891 C2896 1.490 . S
C2892 H2882 0.930 . S
C2892 C2891 1.400 . S
C2892 C2895 1.386 . S
H2893 C2909 0.930 . S
H2894 C2910 0.931 . S
C2895 H2883 0.929 . S
C2895 C2889 1.390 . S
C2895 C2892 1.386 . S
C2896 C2891 1.490 . S
C2896 C2898 1.395 . S
C2896 C2899 1.403 . S
H2897 C2903 0.930 . S
C2898 H2884 0.930 . S
C2898 C2896 1.395 . S
C2898 C2901 1.403 . S
C2899 C2896 1.403 . S
C2899 C2900 1.524 . S
C2899 C2903 1.400 . S
C2900 H2885 0.960 . S
C2900 H2886 0.960 . S
C2900 H2887 0.960 . S
C2900 C2899 1.524 . S
C2901 C2898 1.403 . S
C2901 C2902 1.392 . S
C2901 C2905 1.495 . S
C2902 C2901 1.392 . S
C2902 C2903 1.385 . S
C2902 C2904 1.478 . S
C2903 H2897 0.930 . S
C2903 C2899 1.400 . S
C2903 C2902 1.385 . S
C2904 C2902 1.478 . S
C2904 C2906 1.381 . S
C2904 C2910 1.383 . S
C2905 C2901 1.495 . S
C2905 H2911 0.959 . S
C2905 H2912 0.961 . S
C2905 H2913 0.960 . S
C2906 C2904 1.381 . S
C2906 C2907 1.394 . S
C2906 H2914 0.930 . S
C2907 C2906 1.394 . S
C2907 C2908 1.383 . S
C2907 H2915 0.929 . S
C2908 C2907 1.383 . S
C2908 C2909 1.377 . S
C2909 H2893 0.930 . S
C2909 C2908 1.377 . S
C2909 C2910 1.379 . S
C2910 H2894 0.931 . S
C2910 C2904 1.383 . S
C2910 C2909 1.379 . S
H2911 C2905 0.959 . S
H2912 C2905 0.961 . S
H2913 C2905 0.960 . S
H2914 C2906 0.930 . S
H2915 C2907 0.929 . S
H2916 C2924 0.929 . S
H2917 C2926 0.930 . S
H2918 C2928 0.930 . S
H2919 C2931 0.929 . S
H2920 C2934 0.930 . S
H2921 C2936 0.960 . S
H2922 C2936 0.960 . S
H2923 C2936 0.960 . S
C2924 H2916 0.929 . S
C2924 C2925 1.377 . S
C2924 C2926 1.384 . S
C2925 C2924 1.377 . S
C2925 C2931 1.390 . S
C2926 H2917 0.930 . S
C2926 C2924 1.384 . S
C2926 C2927 1.372 . S
C2927 C2926 1.372 . S
C2927 C2928 1.400 . S
C2927 C2932 1.490 . S
C2928 H2918 0.930 . S
C2928 C2927 1.400 . S
C2928 C2931 1.386 . S
H2929 C2945 0.930 . S
H2930 C2946 0.931 . S
C2931 H2919 0.929 . S
C2931 C2925 1.390 . S
C2931 C2928 1.386 . S
C2932 C2927 1.490 . S
C2932 C2934 1.395 . S
C2932 C2935 1.403 . S
H2933 C2939 0.930 . S
C2934 H2920 0.930 . S
C2934 C2932 1.395 . S
C2934 C2937 1.403 . S
C2935 C2932 1.403 . S
C2935 C2936 1.524 . S
C2935 C2939 1.400 . S
C2936 H2921 0.960 . S
C2936 H2922 0.960 . S
C2936 H2923 0.960 . S
C2936 C2935 1.524 . S
C2937 C2934 1.403 . S
C2937 C2938 1.392 . S
C2937 C2941 1.495 . S
C2938 C2937 1.392 . S
C2938 C2939 1.385 . S
C2938 C2940 1.478 . S
C2939 H2933 0.930 . S
C2939 C2935 1.400 . S
C2939 C2938 1.385 . S
C2940 C2938 1.478 . S
C2940 C2942 1.381 . S
C2940 C2946 1.383 . S
C2941 C2937 1.495 . S
C2941 H2947 0.959 1_554 S
C2941 H2948 0.961 . S
C2941 H2949 0.960 1_554 S
C2942 C2940 1.381 . S
C2942 C2943 1.394 . S
C2942 H2950 0.930 . S
C2943 C2942 1.394 . S
C2943 C2944 1.383 . S
C2943 H2951 0.929 . S
C2944 C2943 1.383 . S
C2944 C2945 1.377 . S
C2945 H2929 0.930 . S
C2945 C2944 1.377 . S
C2945 C2946 1.379 . S
C2946 H2930 0.931 . S
C2946 C2940 1.383 . S
C2946 C2945 1.379 . S
H2947 C2941 0.959 1_556 S
H2948 C2941 0.961 . S
H2949 C2941 0.960 1_556 S
H2950 C2942 0.930 . S
H2951 C2943 0.929 . S
H2952 C2960 0.929 . S
H2953 C2962 0.930 . S
H2954 C2964 0.930 . S
H2955 C2967 0.929 . S
H2956 C2970 0.930 . S
H2957 C2972 0.960 1_554 S
H2958 C2972 0.960 . S
H2959 C2972 0.960 1_554 S
C2960 H2952 0.929 . S
C2960 C2961 1.377 . S
C2960 C2962 1.384 . S
C2961 C2960 1.377 . S
C2961 C2967 1.390 . S
C2962 H2953 0.930 . S
C2962 C2960 1.384 . S
C2962 C2963 1.372 . S
C2963 C2962 1.372 . S
C2963 C2964 1.400 . S
C2963 C2968 1.490 . S
C2964 H2954 0.930 . S
C2964 C2963 1.400 . S
C2964 C2967 1.386 . S
H2965 C2981 0.930 . S
H2966 C2982 0.931 . S
C2967 H2955 0.929 . S
C2967 C2961 1.390 . S
C2967 C2964 1.386 . S
C2968 C2963 1.490 . S
C2968 C2970 1.395 . S
C2968 C2971 1.403 . S
H2969 C2975 0.930 . S
C2970 H2956 0.930 . S
C2970 C2968 1.395 . S
C2970 C2973 1.403 . S
C2971 C2968 1.403 . S
C2971 C2972 1.524 . S
C2971 C2975 1.400 . S
C2972 H2957 0.960 1_556 S
C2972 H2958 0.960 . S
C2972 H2959 0.960 1_556 S
C2972 C2971 1.524 . S
C2973 C2970 1.403 . S
C2973 C2974 1.392 . S
C2973 C2977 1.495 . S
C2974 C2973 1.392 . S
C2974 C2975 1.385 . S
C2974 C2976 1.478 . S
C2975 H2969 0.930 . S
C2975 C2971 1.400 . S
C2975 C2974 1.385 . S
C2976 C2974 1.478 . S
C2976 C2978 1.381 . S
C2976 C2982 1.383 . S
C2977 C2973 1.495 . S
C2977 H2983 0.959 . S
C2977 H2984 0.961 . S
C2977 H2985 0.960 . S
C2978 C2976 1.381 . S
C2978 C2979 1.394 . S
C2978 H2986 0.930 . S
C2979 C2978 1.394 . S
C2979 C2980 1.383 . S
C2979 H2987 0.929 . S
C2980 C2979 1.383 . S
C2980 C2981 1.377 . S
C2981 H2965 0.930 . S
C2981 C2980 1.377 . S
C2981 C2982 1.379 . S
C2982 H2966 0.931 . S
C2982 C2976 1.383 . S
C2982 C2981 1.379 . S
H2983 C2977 0.959 . S
H2984 C2977 0.961 . S
H2985 C2977 0.960 . S
H2986 C2978 0.930 . S
H2987 C2979 0.929 . S
H2988 C2996 0.929 . S
H2989 C2998 0.930 . S
H2990 C3000 0.930 . S
H2991 C3003 0.929 . S
H2992 C3006 0.930 . S
H2993 C3008 0.960 . S
H2994 C3008 0.960 . S
H2995 C3008 0.960 . S
C2996 H2988 0.929 . S
C2996 C2997 1.377 . S
C2996 C2998 1.384 . S
C2997 C2996 1.377 . S
C2997 C3003 1.390 . S
C2998 H2989 0.930 . S
C2998 C2996 1.384 . S
C2998 C2999 1.372 . S
C2999 C2998 1.372 . S
C2999 C3000 1.400 . S
C2999 C3004 1.490 . S
C3000 H2990 0.930 . S
C3000 C2999 1.400 . S
C3000 C3003 1.386 . S
H3001 C3017 0.930 . S
H3002 C3018 0.931 . S
C3003 H2991 0.929 . S
C3003 C2997 1.390 . S
C3003 C3000 1.386 . S
C3004 C2999 1.490 . S
C3004 C3006 1.395 . S
C3004 C3007 1.403 . S
H3005 C3011 0.930 . S
C3006 H2992 0.930 . S
C3006 C3004 1.395 . S
C3006 C3009 1.403 . S
C3007 C3004 1.403 . S
C3007 C3008 1.524 . S
C3007 C3011 1.400 . S
C3008 H2993 0.960 . S
C3008 H2994 0.960 . S
C3008 H2995 0.960 . S
C3008 C3007 1.524 . S
C3009 C3006 1.403 . S
C3009 C3010 1.392 . S
C3009 C3013 1.495 . S
C3010 C3009 1.392 . S
C3010 C3011 1.385 . S
C3010 C3012 1.478 . S
C3011 H3005 0.930 . S
C3011 C3007 1.400 . S
C3011 C3010 1.385 . S
C3012 C3010 1.478 . S
C3012 C3014 1.381 . S
C3012 C3018 1.383 . S
C3013 C3009 1.495 . S
C3013 H3019 0.959 . S
C3013 H3020 0.961 . S
C3013 H3021 0.960 . S
C3014 C3012 1.381 . S
C3014 C3015 1.394 . S
C3014 H3022 0.930 . S
C3015 C3014 1.394 . S
C3015 C3016 1.383 . S
C3015 H3023 0.929 . S
C3016 C3015 1.383 . S
C3016 C3017 1.377 . S
C3017 H3001 0.930 . S
C3017 C3016 1.377 . S
C3017 C3018 1.379 . S
C3018 H3002 0.931 . S
C3018 C3012 1.383 . S
C3018 C3017 1.379 . S
H3019 C3013 0.959 . S
H3020 C3013 0.961 . S
H3021 C3013 0.960 . S
H3022 C3014 0.930 . S
H3023 C3015 0.929 . S
H3024 C3032 0.929 . S
H3025 C3034 0.930 . S
H3026 C3036 0.930 . S
H3027 C3039 0.929 . S
H3028 C3042 0.930 . S
H3029 C3044 0.960 . S
H3030 C3044 0.960 . S
H3031 C3044 0.960 . S
C3032 H3024 0.929 . S
C3032 C3033 1.377 . S
C3032 C3034 1.384 . S
C3033 C3032 1.377 . S
C3033 C3039 1.390 . S
C3034 H3025 0.930 . S
C3034 C3032 1.384 . S
C3034 C3035 1.372 . S
C3035 C3034 1.372 . S
C3035 C3036 1.400 . S
C3035 C3040 1.490 . S
C3036 H3026 0.930 . S
C3036 C3035 1.400 . S
C3036 C3039 1.386 . S
H3037 C3053 0.930 . S
H3038 C3054 0.931 . S
C3039 H3027 0.929 . S
C3039 C3033 1.390 . S
C3039 C3036 1.386 . S
C3040 C3035 1.490 . S
C3040 C3042 1.395 . S
C3040 C3043 1.403 . S
H3041 C3047 0.930 . S
C3042 H3028 0.930 . S
C3042 C3040 1.395 . S
C3042 C3045 1.403 . S
C3043 C3040 1.403 . S
C3043 C3044 1.524 . S
C3043 C3047 1.400 . S
C3044 H3029 0.960 . S
C3044 H3030 0.960 . S
C3044 H3031 0.960 . S
C3044 C3043 1.524 . S
C3045 C3042 1.403 . S
C3045 C3046 1.392 . S
C3045 C3049 1.495 . S
C3046 C3045 1.392 . S
C3046 C3047 1.385 . S
C3046 C3048 1.478 . S
C3047 H3041 0.930 . S
C3047 C3043 1.400 . S
C3047 C3046 1.385 . S
C3048 C3046 1.478 . S
C3048 C3050 1.381 . S
C3048 C3054 1.383 . S
C3049 C3045 1.495 . S
C3049 H3055 0.959 . S
C3049 H3056 0.961 . S
C3049 H3057 0.960 . S
C3050 C3048 1.381 . S
C3050 C3051 1.394 . S
C3050 H3058 0.930 . S
C3051 C3050 1.394 . S
C3051 C3052 1.383 . S
C3051 H3059 0.929 . S
C3052 C3051 1.383 . S
C3052 C3053 1.377 . S
C3053 H3037 0.930 . S
C3053 C3052 1.377 . S
C3053 C3054 1.379 . S
C3054 H3038 0.931 . S
C3054 C3048 1.383 . S
C3054 C3053 1.379 . S
H3055 C3049 0.959 . S
H3056 C3049 0.961 . S
H3057 C3049 0.960 . S
H3058 C3050 0.930 . S
H3059 C3051 0.929 . S
H3060 C3068 0.929 . S
H3061 C3070 0.930 . S
H3062 C3072 0.930 . S
H3063 C3075 0.929 . S
H3064 C3078 0.930 . S
H3065 C3080 0.960 . S
H3066 C3080 0.960 . S
H3067 C3080 0.960 . S
C3068 H3060 0.929 . S
C3068 C3069 1.377 . S
C3068 C3070 1.384 . S
C3069 C3068 1.377 . S
C3069 C3075 1.390 . S
C3070 H3061 0.930 . S
C3070 C3068 1.384 . S
C3070 C3071 1.372 . S
C3071 C3070 1.372 . S
C3071 C3072 1.400 . S
C3071 C3076 1.490 . S
C3072 H3062 0.930 . S
C3072 C3071 1.400 . S
C3072 C3075 1.386 . S
H3073 C3089 0.930 . S
H3074 C3090 0.931 . S
C3075 H3063 0.929 . S
C3075 C3069 1.390 . S
C3075 C3072 1.386 . S
C3076 C3071 1.490 . S
C3076 C3078 1.395 . S
C3076 C3079 1.403 . S
H3077 C3083 0.930 . S
C3078 H3064 0.930 . S
C3078 C3076 1.395 . S
C3078 C3081 1.403 . S
C3079 C3076 1.403 . S
C3079 C3080 1.524 . S
C3079 C3083 1.400 . S
C3080 H3065 0.960 . S
C3080 H3066 0.960 . S
C3080 H3067 0.960 . S
C3080 C3079 1.524 . S
C3081 C3078 1.403 . S
C3081 C3082 1.392 . S
C3081 C3085 1.495 . S
C3082 C3081 1.392 . S
C3082 C3083 1.385 . S
C3082 C3084 1.478 . S
C3083 H3077 0.930 . S
C3083 C3079 1.400 . S
C3083 C3082 1.385 . S
C3084 C3082 1.478 . S
C3084 C3086 1.381 . S
C3084 C3090 1.383 . S
C3085 C3081 1.495 . S
C3085 H3091 0.959 . S
C3085 H3092 0.961 . S
C3085 H3093 0.960 . S
C3086 C3084 1.381 . S
C3086 C3087 1.394 . S
C3086 H3094 0.930 . S
C3087 C3086 1.394 . S
C3087 C3088 1.383 . S
C3087 H3095 0.929 . S
C3088 C3087 1.383 . S
C3088 C3089 1.377 . S
C3089 H3073 0.930 . S
C3089 C3088 1.377 . S
C3089 C3090 1.379 . S
C3090 H3074 0.931 . S
C3090 C3084 1.383 . S
C3090 C3089 1.379 . S
H3091 C3085 0.959 . S
H3092 C3085 0.961 . S
H3093 C3085 0.960 . S
H3094 C3086 0.930 . S
H3095 C3087 0.929 . S
H3096 C3104 0.929 . S
H3097 C3106 0.930 . S
H3098 C3108 0.930 . S
H3099 C3111 0.929 . S
H3100 C3114 0.930 . S
H3101 C3116 0.960 . S
H3102 C3116 0.960 . S
H3103 C3116 0.960 . S
C3104 H3096 0.929 . S
C3104 C3105 1.377 . S
C3104 C3106 1.384 . S
C3105 C3104 1.377 . S
C3105 C3111 1.390 . S
C3106 H3097 0.930 . S
C3106 C3104 1.384 . S
C3106 C3107 1.372 . S
C3107 C3106 1.372 . S
C3107 C3108 1.400 . S
C3107 C3112 1.490 . S
C3108 H3098 0.930 . S
C3108 C3107 1.400 . S
C3108 C3111 1.386 . S
H3109 C3125 0.930 . S
H3110 C3126 0.931 . S
C3111 H3099 0.929 . S
C3111 C3105 1.390 . S
C3111 C3108 1.386 . S
C3112 C3107 1.490 . S
C3112 C3114 1.395 . S
C3112 C3115 1.403 . S
H3113 C3119 0.930 . S
C3114 H3100 0.930 . S
C3114 C3112 1.395 . S
C3114 C3117 1.403 . S
C3115 C3112 1.403 . S
C3115 C3116 1.524 . S
C3115 C3119 1.400 . S
C3116 H3101 0.960 . S
C3116 H3102 0.960 . S
C3116 H3103 0.960 . S
C3116 C3115 1.524 . S
C3117 C3114 1.403 . S
C3117 C3118 1.392 . S
C3117 C3121 1.495 . S
C3118 C3117 1.392 . S
C3118 C3119 1.385 . S
C3118 C3120 1.478 . S
C3119 H3113 0.930 . S
C3119 C3115 1.400 . S
C3119 C3118 1.385 . S
C3120 C3118 1.478 . S
C3120 C3122 1.381 . S
C3120 C3126 1.383 . S
C3121 C3117 1.495 . S
C3121 H3127 0.959 . S
C3121 H3128 0.961 . S
C3121 H3129 0.960 . S
C3122 C3120 1.381 . S
C3122 C3123 1.394 . S
C3122 H3130 0.930 . S
C3123 C3122 1.394 . S
C3123 C3124 1.383 . S
C3123 H3131 0.929 . S
C3124 C3123 1.383 . S
C3124 C3125 1.377 . S
C3125 H3109 0.930 . S
C3125 C3124 1.377 . S
C3125 C3126 1.379 . S
C3126 H3110 0.931 . S
C3126 C3120 1.383 . S
C3126 C3125 1.379 . S
H3127 C3121 0.959 . S
H3128 C3121 0.961 . S
H3129 C3121 0.960 . S
H3130 C3122 0.930 . S
H3131 C3123 0.929 . S
H3132 C3140 0.929 . S
H3133 C3142 0.930 . S
H3134 C3144 0.930 . S
H3135 C3147 0.929 . S
H3136 C3150 0.930 . S
H3137 C3152 0.960 . S
H3138 C3152 0.960 . S
H3139 C3152 0.960 . S
C3140 H3132 0.929 . S
C3140 C3141 1.377 . S
C3140 C3142 1.384 . S
C3141 C3140 1.377 . S
C3141 C3147 1.390 . S
C3142 H3133 0.930 . S
C3142 C3140 1.384 . S
C3142 C3143 1.372 . S
C3143 C3142 1.372 . S
C3143 C3144 1.400 . S
C3143 C3148 1.490 . S
C3144 H3134 0.930 . S
C3144 C3143 1.400 . S
C3144 C3147 1.386 . S
H3145 C3161 0.930 . S
H3146 C3162 0.931 . S
C3147 H3135 0.929 . S
C3147 C3141 1.390 . S
C3147 C3144 1.386 . S
C3148 C3143 1.490 . S
C3148 C3150 1.395 . S
C3148 C3151 1.403 . S
H3149 C3155 0.930 . S
C3150 H3136 0.930 . S
C3150 C3148 1.395 . S
C3150 C3153 1.403 . S
C3151 C3148 1.403 . S
C3151 C3152 1.524 . S
C3151 C3155 1.400 . S
C3152 H3137 0.960 . S
C3152 H3138 0.960 . S
C3152 H3139 0.960 . S
C3152 C3151 1.524 . S
C3153 C3150 1.403 . S
C3153 C3154 1.392 . S
C3153 C3157 1.495 . S
C3154 C3153 1.392 . S
C3154 C3155 1.385 . S
C3154 C3156 1.478 . S
C3155 H3149 0.930 . S
C3155 C3151 1.400 . S
C3155 C3154 1.385 . S
C3156 C3154 1.478 . S
C3156 C3158 1.381 . S
C3156 C3162 1.383 . S
C3157 C3153 1.495 . S
C3157 H3163 0.959 . S
C3157 H3164 0.961 . S
C3157 H3165 0.960 . S
C3158 C3156 1.381 . S
C3158 C3159 1.394 . S
C3158 H3166 0.930 . S
C3159 C3158 1.394 . S
C3159 C3160 1.383 . S
C3159 H3167 0.929 . S
C3160 C3159 1.383 . S
C3160 C3161 1.377 . S
C3161 H3145 0.930 . S
C3161 C3160 1.377 . S
C3161 C3162 1.379 . S
C3162 H3146 0.931 . S
C3162 C3156 1.383 . S
C3162 C3161 1.379 . S
H3163 C3157 0.959 . S
H3164 C3157 0.961 . S
H3165 C3157 0.960 . S
H3166 C3158 0.930 . S
H3167 C3159 0.929 . S
H3168 C3176 0.929 . S
H3169 C3178 0.930 . S
H3170 C3180 0.930 . S
H3171 C3183 0.929 . S
H3172 C3186 0.930 . S
H3173 C3188 0.960 . S
H3174 C3188 0.960 . S
H3175 C3188 0.960 . S
C3176 H3168 0.929 . S
C3176 C3177 1.377 . S
C3176 C3178 1.384 . S
C3177 C3176 1.377 . S
C3177 C3183 1.390 . S
C3178 H3169 0.930 . S
C3178 C3176 1.384 . S
C3178 C3179 1.372 . S
C3179 C3178 1.372 . S
C3179 C3180 1.400 . S
C3179 C3184 1.490 . S
C3180 H3170 0.930 . S
C3180 C3179 1.400 . S
C3180 C3183 1.386 . S
H3181 C3197 0.930 . S
H3182 C3198 0.931 . S
C3183 H3171 0.929 . S
C3183 C3177 1.390 . S
C3183 C3180 1.386 . S
C3184 C3179 1.490 . S
C3184 C3186 1.395 . S
C3184 C3187 1.403 . S
H3185 C3191 0.930 . S
C3186 H3172 0.930 . S
C3186 C3184 1.395 . S
C3186 C3189 1.403 . S
C3187 C3184 1.403 . S
C3187 C3188 1.524 . S
C3187 C3191 1.400 . S
C3188 H3173 0.960 . S
C3188 H3174 0.960 . S
C3188 H3175 0.960 . S
C3188 C3187 1.524 . S
C3189 C3186 1.403 . S
C3189 C3190 1.392 . S
C3189 C3193 1.495 . S
C3190 C3189 1.392 . S
C3190 C3191 1.385 . S
C3190 C3192 1.478 . S
C3191 H3185 0.930 . S
C3191 C3187 1.400 . S
C3191 C3190 1.385 . S
C3192 C3190 1.478 . S
C3192 C3194 1.381 . S
C3192 C3198 1.383 . S
C3193 C3189 1.495 . S
C3193 H3199 0.959 . S
C3193 H3200 0.961 . S
C3193 H3201 0.960 . S
C3194 C3192 1.381 . S
C3194 C3195 1.394 . S
C3194 H3202 0.930 . S
C3195 C3194 1.394 . S
C3195 C3196 1.383 . S
C3195 H3203 0.929 . S
C3196 C3195 1.383 . S
C3196 C3197 1.377 . S
C3197 H3181 0.930 . S
C3197 C3196 1.377 . S
C3197 C3198 1.379 . S
C3198 H3182 0.931 . S
C3198 C3192 1.383 . S
C3198 C3197 1.379 . S
H3199 C3193 0.959 . S
H3200 C3193 0.961 . S
H3201 C3193 0.960 . S
H3202 C3194 0.930 . S
H3203 C3195 0.929 . S
H3204 C3212 0.929 . S
H3205 C3214 0.930 . S
H3206 C3216 0.930 . S
H3207 C3219 0.929 . S
H3208 C3222 0.930 . S
H3209 C3224 0.960 . S
H3210 C3224 0.960 . S
H3211 C3224 0.960 . S
C3212 H3204 0.929 . S
C3212 C3213 1.377 . S
C3212 C3214 1.384 . S
C3213 C3212 1.377 . S
C3213 C3219 1.390 . S
C3214 H3205 0.930 . S
C3214 C3212 1.384 . S
C3214 C3215 1.372 . S
C3215 C3214 1.372 . S
C3215 C3216 1.400 . S
C3215 C3220 1.490 . S
C3216 H3206 0.930 . S
C3216 C3215 1.400 . S
C3216 C3219 1.386 . S
H3217 C3233 0.930 . S
H3218 C3234 0.931 . S
C3219 H3207 0.929 . S
C3219 C3213 1.390 . S
C3219 C3216 1.386 . S
C3220 C3215 1.490 . S
C3220 C3222 1.395 . S
C3220 C3223 1.403 . S
H3221 C3227 0.930 . S
C3222 H3208 0.930 . S
C3222 C3220 1.395 . S
C3222 C3225 1.403 . S
C3223 C3220 1.403 . S
C3223 C3224 1.524 . S
C3223 C3227 1.400 . S
C3224 H3209 0.960 . S
C3224 H3210 0.960 . S
C3224 H3211 0.960 . S
C3224 C3223 1.524 . S
C3225 C3222 1.403 . S
C3225 C3226 1.392 . S
C3225 C3229 1.495 . S
C3226 C3225 1.392 . S
C3226 C3227 1.385 . S
C3226 C3228 1.478 . S
C3227 H3221 0.930 . S
C3227 C3223 1.400 . S
C3227 C3226 1.385 . S
C3228 C3226 1.478 . S
C3228 C3230 1.381 . S
C3228 C3234 1.383 . S
C3229 C3225 1.495 . S
C3229 H3235 0.959 . S
C3229 H3236 0.961 . S
C3229 H3237 0.960 . S
C3230 C3228 1.381 . S
C3230 C3231 1.394 . S
C3230 H3238 0.930 . S
C3231 C3230 1.394 . S
C3231 C3232 1.383 . S
C3231 H3239 0.929 . S
C3232 C3231 1.383 . S
C3232 C3233 1.377 . S
C3233 H3217 0.930 . S
C3233 C3232 1.377 . S
C3233 C3234 1.379 . S
C3234 H3218 0.931 . S
C3234 C3228 1.383 . S
C3234 C3233 1.379 . S
H3235 C3229 0.959 . S
H3236 C3229 0.961 . S
H3237 C3229 0.960 . S
H3238 C3230 0.930 . S
H3239 C3231 0.929 . S
H3240 C3248 0.929 . S
H3241 C3250 0.930 . S
H3242 C3252 0.930 . S
H3243 C3255 0.929 . S
H3244 C3258 0.930 . S
H3245 C3260 0.960 . S
H3246 C3260 0.960 . S
H3247 C3260 0.960 . S
C3248 H3240 0.929 . S
C3248 C3249 1.377 . S
C3248 C3250 1.384 . S
C3249 C3248 1.377 . S
C3249 C3255 1.390 . S
C3250 H3241 0.930 . S
C3250 C3248 1.384 . S
C3250 C3251 1.372 . S
C3251 C3250 1.372 . S
C3251 C3252 1.400 . S
C3251 C3256 1.490 . S
C3252 H3242 0.930 . S
C3252 C3251 1.400 . S
C3252 C3255 1.386 . S
H3253 C3269 0.930 . S
H3254 C3270 0.931 . S
C3255 H3243 0.929 . S
C3255 C3249 1.390 . S
C3255 C3252 1.386 . S
C3256 C3251 1.490 . S
C3256 C3258 1.395 . S
C3256 C3259 1.403 . S
H3257 C3263 0.930 . S
C3258 H3244 0.930 . S
C3258 C3256 1.395 . S
C3258 C3261 1.403 . S
C3259 C3256 1.403 . S
C3259 C3260 1.524 . S
C3259 C3263 1.400 . S
C3260 H3245 0.960 . S
C3260 H3246 0.960 . S
C3260 H3247 0.960 . S
C3260 C3259 1.524 . S
C3261 C3258 1.403 . S
C3261 C3262 1.392 . S
C3261 C3265 1.495 . S
C3262 C3261 1.392 . S
C3262 C3263 1.385 . S
C3262 C3264 1.478 . S
C3263 H3257 0.930 . S
C3263 C3259 1.400 . S
C3263 C3262 1.385 . S
C3264 C3262 1.478 . S
C3264 C3266 1.381 . S
C3264 C3270 1.383 . S
C3265 C3261 1.495 . S
C3265 H3271 0.959 . S
C3265 H3272 0.961 . S
C3265 H3273 0.960 . S
C3266 C3264 1.381 . S
C3266 C3267 1.394 . S
C3266 H3274 0.930 . S
C3267 C3266 1.394 . S
C3267 C3268 1.383 . S
C3267 H3275 0.929 . S
C3268 C3267 1.383 . S
C3268 C3269 1.377 . S
C3269 H3253 0.930 . S
C3269 C3268 1.377 . S
C3269 C3270 1.379 . S
C3270 H3254 0.931 . S
C3270 C3264 1.383 . S
C3270 C3269 1.379 . S
H3271 C3265 0.959 . S
H3272 C3265 0.961 . S
H3273 C3265 0.960 . S
H3274 C3266 0.930 . S
H3275 C3267 0.929 . S
H3276 C3284 0.929 . S
H3277 C3286 0.930 . S
H3278 C3288 0.930 . S
H3279 C3291 0.929 . S
H3280 C3294 0.930 . S
H3281 C3296 0.960 . S
H3282 C3296 0.960 . S
H3283 C3296 0.960 . S
C3284 H3276 0.929 . S
C3284 C3285 1.377 . S
C3284 C3286 1.384 . S
C3285 C3284 1.377 . S
C3285 C3291 1.390 . S
C3286 H3277 0.930 . S
C3286 C3284 1.384 . S
C3286 C3287 1.372 . S
C3287 C3286 1.372 . S
C3287 C3288 1.400 . S
C3287 C3292 1.490 . S
C3288 H3278 0.930 . S
C3288 C3287 1.400 . S
C3288 C3291 1.386 . S
H3289 C3305 0.930 . S
H3290 C3306 0.931 . S
C3291 H3279 0.929 . S
C3291 C3285 1.390 . S
C3291 C3288 1.386 . S
C3292 C3287 1.490 . S
C3292 C3294 1.395 . S
C3292 C3295 1.403 . S
H3293 C3299 0.930 . S
C3294 H3280 0.930 . S
C3294 C3292 1.395 . S
C3294 C3297 1.403 . S
C3295 C3292 1.403 . S
C3295 C3296 1.524 . S
C3295 C3299 1.400 . S
C3296 H3281 0.960 . S
C3296 H3282 0.960 . S
C3296 H3283 0.960 . S
C3296 C3295 1.524 . S
C3297 C3294 1.403 . S
C3297 C3298 1.392 . S
C3297 C3301 1.495 . S
C3298 C3297 1.392 . S
C3298 C3299 1.385 . S
C3298 C3300 1.478 . S
C3299 H3293 0.930 . S
C3299 C3295 1.400 . S
C3299 C3298 1.385 . S
C3300 C3298 1.478 . S
C3300 C3302 1.381 . S
C3300 C3306 1.383 . S
C3301 C3297 1.495 . S
C3301 H3307 0.959 . S
C3301 H3308 0.961 . S
C3301 H3309 0.960 . S
C3302 C3300 1.381 . S
C3302 C3303 1.394 . S
C3302 H3310 0.930 . S
C3303 C3302 1.394 . S
C3303 C3304 1.383 . S
C3303 H3311 0.929 . S
C3304 C3303 1.383 . S
C3304 C3305 1.377 . S
C3305 H3289 0.930 . S
C3305 C3304 1.377 . S
C3305 C3306 1.379 . S
C3306 H3290 0.931 . S
C3306 C3300 1.383 . S
C3306 C3305 1.379 . S
H3307 C3301 0.959 . S
H3308 C3301 0.961 . S
H3309 C3301 0.960 . S
H3310 C3302 0.930 . S
H3311 C3303 0.929 . S
H3312 C3320 0.929 . S
H3313 C3322 0.930 . S
H3314 C3324 0.930 . S
H3315 C3327 0.929 . S
H3316 C3330 0.930 . S
H3317 C3332 0.960 . S
H3318 C3332 0.960 . S
H3319 C3332 0.960 . S
C3320 H3312 0.929 . S
C3320 C3321 1.377 . S
C3320 C3322 1.384 . S
C3321 C3320 1.377 . S
C3321 C3327 1.390 . S
C3322 H3313 0.930 . S
C3322 C3320 1.384 . S
C3322 C3323 1.372 . S
C3323 C3322 1.372 . S
C3323 C3324 1.400 . S
C3323 C3328 1.490 . S
C3324 H3314 0.930 . S
C3324 C3323 1.400 . S
C3324 C3327 1.386 . S
H3325 C3341 0.930 . S
H3326 C3342 0.931 . S
C3327 H3315 0.929 . S
C3327 C3321 1.390 . S
C3327 C3324 1.386 . S
C3328 C3323 1.490 . S
C3328 C3330 1.395 . S
C3328 C3331 1.403 . S
H3329 C3335 0.930 . S
C3330 H3316 0.930 . S
C3330 C3328 1.395 . S
C3330 C3333 1.403 . S
C3331 C3328 1.403 . S
C3331 C3332 1.524 . S
C3331 C3335 1.400 . S
C3332 H3317 0.960 . S
C3332 H3318 0.960 . S
C3332 H3319 0.960 . S
C3332 C3331 1.524 . S
C3333 C3330 1.403 . S
C3333 C3334 1.392 . S
C3333 C3337 1.495 . S
C3334 C3333 1.392 . S
C3334 C3335 1.385 . S
C3334 C3336 1.478 . S
C3335 H3329 0.930 . S
C3335 C3331 1.400 . S
C3335 C3334 1.385 . S
C3336 C3334 1.478 . S
C3336 C3338 1.381 . S
C3336 C3342 1.383 . S
C3337 C3333 1.495 . S
C3337 H3343 0.959 . S
C3337 H3344 0.961 . S
C3337 H3345 0.960 . S
C3338 C3336 1.381 . S
C3338 C3339 1.394 . S
C3338 H3346 0.930 . S
C3339 C3338 1.394 . S
C3339 C3340 1.383 . S
C3339 H3347 0.929 . S
C3340 C3339 1.383 . S
C3340 C3341 1.377 . S
C3341 H3325 0.930 . S
C3341 C3340 1.377 . S
C3341 C3342 1.379 . S
C3342 H3326 0.931 . S
C3342 C3336 1.383 . S
C3342 C3341 1.379 . S
H3343 C3337 0.959 . S
H3344 C3337 0.961 . S
H3345 C3337 0.960 . S
H3346 C3338 0.930 . S
H3347 C3339 0.929 . S
H3348 C3356 0.929 . S
H3349 C3358 0.930 . S
H3350 C3360 0.930 . S
H3351 C3363 0.929 . S
H3352 C3366 0.930 . S
H3353 C3368 0.960 . S
H3354 C3368 0.960 . S
H3355 C3368 0.960 . S
C3356 H3348 0.929 . S
C3356 C3357 1.377 . S
C3356 C3358 1.384 . S
C3357 C3356 1.377 . S
C3357 C3363 1.390 . S
C3358 H3349 0.930 . S
C3358 C3356 1.384 . S
C3358 C3359 1.372 . S
C3359 C3358 1.372 . S
C3359 C3360 1.400 . S
C3359 C3364 1.490 . S
C3360 H3350 0.930 . S
C3360 C3359 1.400 . S
C3360 C3363 1.386 . S
H3361 C3377 0.930 . S
H3362 C3378 0.931 . S
C3363 H3351 0.929 . S
C3363 C3357 1.390 . S
C3363 C3360 1.386 . S
C3364 C3359 1.490 . S
C3364 C3366 1.395 . S
C3364 C3367 1.403 . S
H3365 C3371 0.930 . S
C3366 H3352 0.930 . S
C3366 C3364 1.395 . S
C3366 C3369 1.403 . S
C3367 C3364 1.403 . S
C3367 C3368 1.524 . S
C3367 C3371 1.400 . S
C3368 H3353 0.960 . S
C3368 H3354 0.960 . S
C3368 H3355 0.960 . S
C3368 C3367 1.524 . S
C3369 C3366 1.403 . S
C3369 C3370 1.392 . S
C3369 C3373 1.495 . S
C3370 C3369 1.392 . S
C3370 C3371 1.385 . S
C3370 C3372 1.478 . S
C3371 H3365 0.930 . S
C3371 C3367 1.400 . S
C3371 C3370 1.385 . S
C3372 C3370 1.478 . S
C3372 C3374 1.381 . S
C3372 C3378 1.383 . S
C3373 C3369 1.495 . S
C3373 H3379 0.959 . S
C3373 H3380 0.961 . S
C3373 H3381 0.960 . S
C3374 C3372 1.381 . S
C3374 C3375 1.394 . S
C3374 H3382 0.930 . S
C3375 C3374 1.394 . S
C3375 C3376 1.383 . S
C3375 H3383 0.929 . S
C3376 C3375 1.383 . S
C3376 C3377 1.377 . S
C3377 H3361 0.930 . S
C3377 C3376 1.377 . S
C3377 C3378 1.379 . S
C3378 H3362 0.931 . S
C3378 C3372 1.383 . S
C3378 C3377 1.379 . S
H3379 C3373 0.959 . S
H3380 C3373 0.961 . S
H3381 C3373 0.960 . S
H3382 C3374 0.930 . S
H3383 C3375 0.929 . S
H3384 C3392 0.929 . S
H3385 C3394 0.930 . S
H3386 C3396 0.930 . S
H3387 C3399 0.929 . S
H3388 C3402 0.930 . S
H3389 C3404 0.960 . S
H3390 C3404 0.960 . S
H3391 C3404 0.960 . S
C3392 H3384 0.929 . S
C3392 C3393 1.377 . S
C3392 C3394 1.384 . S
C3393 C3392 1.377 . S
C3393 C3399 1.390 . S
C3394 H3385 0.930 . S
C3394 C3392 1.384 . S
C3394 C3395 1.372 . S
C3395 C3394 1.372 . S
C3395 C3396 1.400 . S
C3395 C3400 1.490 . S
C3396 H3386 0.930 . S
C3396 C3395 1.400 . S
C3396 C3399 1.386 . S
H3397 C3413 0.930 . S
H3398 C3414 0.931 . S
C3399 H3387 0.929 . S
C3399 C3393 1.390 . S
C3399 C3396 1.386 . S
C3400 C3395 1.490 . S
C3400 C3402 1.395 . S
C3400 C3403 1.403 . S
H3401 C3407 0.930 . S
C3402 H3388 0.930 . S
C3402 C3400 1.395 . S
C3402 C3405 1.403 . S
C3403 C3400 1.403 . S
C3403 C3404 1.524 . S
C3403 C3407 1.400 . S
C3404 H3389 0.960 . S
C3404 H3390 0.960 . S
C3404 H3391 0.960 . S
C3404 C3403 1.524 . S
C3405 C3402 1.403 . S
C3405 C3406 1.392 . S
C3405 C3409 1.495 . S
C3406 C3405 1.392 . S
C3406 C3407 1.385 . S
C3406 C3408 1.478 . S
C3407 H3401 0.930 . S
C3407 C3403 1.400 . S
C3407 C3406 1.385 . S
C3408 C3406 1.478 . S
C3408 C3410 1.381 . S
C3408 C3414 1.383 . S
C3409 C3405 1.495 . S
C3409 H3415 0.959 . S
C3409 H3416 0.961 . S
C3409 H3417 0.960 . S
C3410 C3408 1.381 . S
C3410 C3411 1.394 . S
C3410 H3418 0.930 . S
C3411 C3410 1.394 . S
C3411 C3412 1.383 . S
C3411 H3419 0.929 . S
C3412 C3411 1.383 . S
C3412 C3413 1.377 . S
C3413 H3397 0.930 . S
C3413 C3412 1.377 . S
C3413 C3414 1.379 . S
C3414 H3398 0.931 . S
C3414 C3408 1.383 . S
C3414 C3413 1.379 . S
H3415 C3409 0.959 . S
H3416 C3409 0.961 . S
H3417 C3409 0.960 . S
H3418 C3410 0.930 . S
H3419 C3411 0.929 . S
H3420 C3428 0.929 . S
H3421 C3430 0.930 . S
H3422 C3432 0.930 . S
H3423 C3435 0.929 . S
H3424 C3438 0.930 . S
H3425 C3440 0.960 . S
H3426 C3440 0.960 . S
H3427 C3440 0.960 . S
C3428 H3420 0.929 . S
C3428 C3429 1.377 . S
C3428 C3430 1.384 . S
C3429 C3428 1.377 . S
C3429 C3435 1.390 . S
C3430 H3421 0.930 . S
C3430 C3428 1.384 . S
C3430 C3431 1.372 . S
C3431 C3430 1.372 . S
C3431 C3432 1.400 . S
C3431 C3436 1.490 . S
C3432 H3422 0.930 . S
C3432 C3431 1.400 . S
C3432 C3435 1.386 . S
H3433 C3449 0.930 . S
H3434 C3450 0.931 . S
C3435 H3423 0.929 . S
C3435 C3429 1.390 . S
C3435 C3432 1.386 . S
C3436 C3431 1.490 . S
C3436 C3438 1.395 . S
C3436 C3439 1.403 . S
H3437 C3443 0.930 . S
C3438 H3424 0.930 . S
C3438 C3436 1.395 . S
C3438 C3441 1.403 . S
C3439 C3436 1.403 . S
C3439 C3440 1.524 . S
C3439 C3443 1.400 . S
C3440 H3425 0.960 . S
C3440 H3426 0.960 . S
C3440 H3427 0.960 . S
C3440 C3439 1.524 . S
C3441 C3438 1.403 . S
C3441 C3442 1.392 . S
C3441 C3445 1.495 . S
C3442 C3441 1.392 . S
C3442 C3443 1.385 . S
C3442 C3444 1.478 . S
C3443 H3437 0.930 . S
C3443 C3439 1.400 . S
C3443 C3442 1.385 . S
C3444 C3442 1.478 . S
C3444 C3446 1.381 . S
C3444 C3450 1.383 . S
C3445 C3441 1.495 . S
C3445 H3451 0.959 . S
C3445 H3452 0.961 . S
C3445 H3453 0.960 . S
C3446 C3444 1.381 . S
C3446 C3447 1.394 . S
C3446 H3454 0.930 . S
C3447 C3446 1.394 . S
C3447 C3448 1.383 . S
C3447 H3455 0.929 . S
C3448 C3447 1.383 . S
C3448 C3449 1.377 . S
C3449 H3433 0.930 . S
C3449 C3448 1.377 . S
C3449 C3450 1.379 . S
C3450 H3434 0.931 . S
C3450 C3444 1.383 . S
C3450 C3449 1.379 . S
H3451 C3445 0.959 . S
H3452 C3445 0.961 . S
H3453 C3445 0.960 . S
H3454 C3446 0.930 . S
H3455 C3447 0.929 . S
H3456 C3464 0.929 . S
H3457 C3466 0.930 . S
H3458 C3468 0.930 . S
H3459 C3471 0.929 . S
H3460 C3474 0.930 . S
H3461 C3476 0.960 . S
H3462 C3476 0.960 . S
H3463 C3476 0.960 . S
C3464 H3456 0.929 . S
C3464 C3465 1.377 . S
C3464 C3466 1.384 . S
C3465 C3464 1.377 . S
C3465 C3471 1.390 . S
C3466 H3457 0.930 . S
C3466 C3464 1.384 . S
C3466 C3467 1.372 . S
C3467 C3466 1.372 . S
C3467 C3468 1.400 . S
C3467 C3472 1.490 . S
C3468 H3458 0.930 . S
C3468 C3467 1.400 . S
C3468 C3471 1.386 . S
H3469 C3485 0.930 . S
H3470 C3486 0.931 . S
C3471 H3459 0.929 . S
C3471 C3465 1.390 . S
C3471 C3468 1.386 . S
C3472 C3467 1.490 . S
C3472 C3474 1.395 . S
C3472 C3475 1.403 . S
H3473 C3479 0.930 . S
C3474 H3460 0.930 . S
C3474 C3472 1.395 . S
C3474 C3477 1.403 . S
C3475 C3472 1.403 . S
C3475 C3476 1.524 . S
C3475 C3479 1.400 . S
C3476 H3461 0.960 . S
C3476 H3462 0.960 . S
C3476 H3463 0.960 . S
C3476 C3475 1.524 . S
C3477 C3474 1.403 . S
C3477 C3478 1.392 . S
C3477 C3481 1.495 . S
C3478 C3477 1.392 . S
C3478 C3479 1.385 . S
C3478 C3480 1.478 . S
C3479 H3473 0.930 . S
C3479 C3475 1.400 . S
C3479 C3478 1.385 . S
C3480 C3478 1.478 . S
C3480 C3482 1.381 . S
C3480 C3486 1.383 . S
C3481 C3477 1.495 . S
C3481 H3487 0.959 . S
C3481 H3488 0.961 . S
C3481 H3489 0.960 . S
C3482 C3480 1.381 . S
C3482 C3483 1.394 . S
C3482 H3490 0.930 . S
C3483 C3482 1.394 . S
C3483 C3484 1.383 . S
C3483 H3491 0.929 . S
C3484 C3483 1.383 . S
C3484 C3485 1.377 . S
C3485 H3469 0.930 . S
C3485 C3484 1.377 . S
C3485 C3486 1.379 . S
C3486 H3470 0.931 . S
C3486 C3480 1.383 . S
C3486 C3485 1.379 . S
H3487 C3481 0.959 . S
H3488 C3481 0.961 . S
H3489 C3481 0.960 . S
H3490 C3482 0.930 . S
H3491 C3483 0.929 . S
H3492 C3500 0.929 . S
H3493 C3502 0.930 . S
H3494 C3504 0.930 . S
H3495 C3507 0.929 . S
H3496 C3510 0.930 . S
H3497 C3512 0.960 . S
H3498 C3512 0.960 . S
H3499 C3512 0.960 . S
C3500 H3492 0.929 . S
C3500 C3501 1.377 . S
C3500 C3502 1.384 . S
C3501 C3500 1.377 . S
C3501 C3507 1.390 . S
C3502 H3493 0.930 . S
C3502 C3500 1.384 . S
C3502 C3503 1.372 . S
C3503 C3502 1.372 . S
C3503 C3504 1.400 . S
C3503 C3508 1.490 . S
C3504 H3494 0.930 . S
C3504 C3503 1.400 . S
C3504 C3507 1.386 . S
H3505 C3521 0.930 . S
H3506 C3522 0.931 . S
C3507 H3495 0.929 . S
C3507 C3501 1.390 . S
C3507 C3504 1.386 . S
C3508 C3503 1.490 . S
C3508 C3510 1.395 . S
C3508 C3511 1.403 . S
H3509 C3515 0.930 . S
C3510 H3496 0.930 . S
C3510 C3508 1.395 . S
C3510 C3513 1.403 . S
C3511 C3508 1.403 . S
C3511 C3512 1.524 . S
C3511 C3515 1.400 . S
C3512 H3497 0.960 . S
C3512 H3498 0.960 . S
C3512 H3499 0.960 . S
C3512 C3511 1.524 . S
C3513 C3510 1.403 . S
C3513 C3514 1.392 . S
C3513 C3517 1.495 . S
C3514 C3513 1.392 . S
C3514 C3515 1.385 . S
C3514 C3516 1.478 . S
C3515 H3509 0.930 . S
C3515 C3511 1.400 . S
C3515 C3514 1.385 . S
C3516 C3514 1.478 . S
C3516 C3518 1.381 . S
C3516 C3522 1.383 . S
C3517 C3513 1.495 . S
C3517 H3523 0.959 . S
C3517 H3524 0.961 . S
C3517 H3525 0.960 . S
C3518 C3516 1.381 . S
C3518 C3519 1.394 . S
C3518 H3526 0.930 . S
C3519 C3518 1.394 . S
C3519 C3520 1.383 . S
C3519 H3527 0.929 . S
C3520 C3519 1.383 . S
C3520 C3521 1.377 . S
C3521 H3505 0.930 . S
C3521 C3520 1.377 . S
C3521 C3522 1.379 . S
C3522 H3506 0.931 . S
C3522 C3516 1.383 . S
C3522 C3521 1.379 . S
H3523 C3517 0.959 . S
H3524 C3517 0.961 . S
H3525 C3517 0.960 . S
H3526 C3518 0.930 . S
H3527 C3519 0.929 . S
H3528 C3536 0.929 . S
H3529 C3538 0.930 . S
H3530 C3540 0.930 . S
H3531 C3543 0.929 . S
H3532 C3546 0.930 . S
H3533 C3548 0.960 . S
H3534 C3548 0.960 . S
H3535 C3548 0.960 . S
C3536 H3528 0.929 . S
C3536 C3537 1.377 . S
C3536 C3538 1.384 . S
C3537 C3536 1.377 . S
C3537 C3543 1.390 . S
C3538 H3529 0.930 . S
C3538 C3536 1.384 . S
C3538 C3539 1.372 . S
C3539 C3538 1.372 . S
C3539 C3540 1.400 . S
C3539 C3544 1.490 . S
C3540 H3530 0.930 . S
C3540 C3539 1.400 . S
C3540 C3543 1.386 . S
H3541 C3557 0.930 . S
H3542 C3558 0.931 . S
C3543 H3531 0.929 . S
C3543 C3537 1.390 . S
C3543 C3540 1.386 . S
C3544 C3539 1.490 . S
C3544 C3546 1.395 . S
C3544 C3547 1.403 . S
H3545 C3551 0.930 . S
C3546 H3532 0.930 . S
C3546 C3544 1.395 . S
C3546 C3549 1.403 . S
C3547 C3544 1.403 . S
C3547 C3548 1.524 . S
C3547 C3551 1.400 . S
C3548 H3533 0.960 . S
C3548 H3534 0.960 . S
C3548 H3535 0.960 . S
C3548 C3547 1.524 . S
C3549 C3546 1.403 . S
C3549 C3550 1.392 . S
C3549 C3553 1.495 . S
C3550 C3549 1.392 . S
C3550 C3551 1.385 . S
C3550 C3552 1.478 . S
C3551 H3545 0.930 . S
C3551 C3547 1.400 . S
C3551 C3550 1.385 . S
C3552 C3550 1.478 . S
C3552 C3554 1.381 . S
C3552 C3558 1.383 . S
C3553 C3549 1.495 . S
C3553 H3559 0.959 . S
C3553 H3560 0.961 . S
C3553 H3561 0.960 . S
C3554 C3552 1.381 . S
C3554 C3555 1.394 . S
C3554 H3562 0.930 . S
C3555 C3554 1.394 . S
C3555 C3556 1.383 . S
C3555 H3563 0.929 . S
C3556 C3555 1.383 . S
C3556 C3557 1.377 . S
C3557 H3541 0.930 . S
C3557 C3556 1.377 . S
C3557 C3558 1.379 . S
C3558 H3542 0.931 . S
C3558 C3552 1.383 . S
C3558 C3557 1.379 . S
H3559 C3553 0.959 . S
H3560 C3553 0.961 . S
H3561 C3553 0.960 . S
H3562 C3554 0.930 . S
H3563 C3555 0.929 . S
H3564 C3572 0.929 . S
H3565 C3574 0.930 . S
H3566 C3576 0.930 . S
H3567 C3579 0.929 . S
H3568 C3582 0.930 . S
H3569 C3584 0.960 . S
H3570 C3584 0.960 . S
H3571 C3584 0.960 . S
C3572 H3564 0.929 . S
C3572 C3573 1.377 . S
C3572 C3574 1.384 . S
C3573 C3572 1.377 . S
C3573 C3579 1.390 . S
C3574 H3565 0.930 . S
C3574 C3572 1.384 . S
C3574 C3575 1.372 . S
C3575 C3574 1.372 . S
C3575 C3576 1.400 . S
C3575 C3580 1.490 . S
C3576 H3566 0.930 . S
C3576 C3575 1.400 . S
C3576 C3579 1.386 . S
H3577 C3593 0.930 . S
H3578 C3594 0.931 . S
C3579 H3567 0.929 . S
C3579 C3573 1.390 . S
C3579 C3576 1.386 . S
C3580 C3575 1.490 . S
C3580 C3582 1.395 . S
C3580 C3583 1.403 . S
H3581 C3587 0.930 . S
C3582 H3568 0.930 . S
C3582 C3580 1.395 . S
C3582 C3585 1.403 . S
C3583 C3580 1.403 . S
C3583 C3584 1.524 . S
C3583 C3587 1.400 . S
C3584 H3569 0.960 . S
C3584 H3570 0.960 . S
C3584 H3571 0.960 . S
C3584 C3583 1.524 . S
C3585 C3582 1.403 . S
C3585 C3586 1.392 . S
C3585 C3589 1.495 . S
C3586 C3585 1.392 . S
C3586 C3587 1.385 . S
C3586 C3588 1.478 . S
C3587 H3581 0.930 . S
C3587 C3583 1.400 . S
C3587 C3586 1.385 . S
C3588 C3586 1.478 . S
C3588 C3590 1.381 . S
C3588 C3594 1.383 . S
C3589 C3585 1.495 . S
C3589 H3595 0.959 . S
C3589 H3596 0.961 . S
C3589 H3597 0.960 . S
C3590 C3588 1.381 . S
C3590 C3591 1.394 . S
C3590 H3598 0.930 . S
C3591 C3590 1.394 . S
C3591 C3592 1.383 . S
C3591 H3599 0.929 . S
C3592 C3591 1.383 . S
C3592 C3593 1.377 . S
C3593 H3577 0.930 . S
C3593 C3592 1.377 . S
C3593 C3594 1.379 . S
C3594 H3578 0.931 . S
C3594 C3588 1.383 . S
C3594 C3593 1.379 . S
H3595 C3589 0.959 . S
H3596 C3589 0.961 . S
H3597 C3589 0.960 . S
H3598 C3590 0.930 . S
H3599 C3591 0.929 . S
H3600 C3608 0.929 . S
H3601 C3610 0.930 . S
H3602 C3612 0.930 . S
H3603 C3615 0.929 . S
H3604 C3618 0.930 1_556 S
H3605 C3620 0.960 1_554 S
H3606 C3620 0.960 . S
H3607 C3620 0.960 . S
C3608 H3600 0.929 . S
C3608 C3609 1.377 . S
C3608 C3610 1.384 . S
C3609 C3608 1.377 . S
C3609 C3615 1.390 . S
C3610 H3601 0.930 . S
C3610 C3608 1.384 . S
C3610 C3611 1.372 . S
C3611 C3610 1.372 . S
C3611 C3612 1.400 . S
C3611 C3616 1.490 . S
C3612 H3602 0.930 . S
C3612 C3611 1.400 . S
C3612 C3615 1.386 . S
H3613 C3629 0.930 . S
H3614 C3630 0.931 . S
C3615 H3603 0.929 . S
C3615 C3609 1.390 . S
C3615 C3612 1.386 . S
C3616 C3611 1.490 . S
C3616 C3618 1.395 1_556 S
C3616 C3619 1.403 1_556 S
H3617 C3623 0.930 . S
C3618 H3604 0.930 1_554 S
C3618 C3616 1.395 1_554 S
C3618 C3621 1.403 . S
C3619 C3616 1.403 1_554 S
C3619 C3620 1.524 1_554 S
C3619 C3623 1.400 . S
C3620 H3605 0.960 1_556 S
C3620 H3606 0.960 . S
C3620 H3607 0.960 . S
C3620 C3619 1.524 1_556 S
C3621 C3618 1.403 . S
C3621 C3622 1.392 . S
C3621 C3625 1.495 . S
C3622 C3621 1.392 . S
C3622 C3623 1.385 . S
C3622 C3624 1.478 . S
C3623 H3617 0.930 . S
C3623 C3619 1.400 . S
C3623 C3622 1.385 . S
C3624 C3622 1.478 . S
C3624 C3626 1.381 . S
C3624 C3630 1.383 . S
C3625 C3621 1.495 . S
C3625 H3631 0.959 . S
C3625 H3632 0.961 . S
C3625 H3633 0.960 . S
C3626 C3624 1.381 . S
C3626 C3627 1.394 . S
C3626 H3634 0.930 . S
C3627 C3626 1.394 . S
C3627 C3628 1.383 . S
C3627 H3635 0.929 . S
C3628 C3627 1.383 . S
C3628 C3629 1.377 . S
C3629 H3613 0.930 . S
C3629 C3628 1.377 . S
C3629 C3630 1.379 . S
C3630 H3614 0.931 . S
C3630 C3624 1.383 . S
C3630 C3629 1.379 . S
H3631 C3625 0.959 . S
H3632 C3625 0.961 . S
H3633 C3625 0.960 . S
H3634 C3626 0.930 . S
H3635 C3627 0.929 . S
H3636 C3644 0.929 . S
H3637 C3646 0.930 . S
H3638 C3648 0.930 . S
H3639 C3651 0.929 . S
H3640 C3654 0.930 . S
H3641 C3656 0.960 1_554 S
H3642 C3656 0.960 . S
H3643 C3656 0.960 . S
C3644 H3636 0.929 . S
C3644 C3645 1.377 . S
C3644 C3646 1.384 . S
C3645 C3644 1.377 . S
C3645 C3651 1.390 . S
C3646 H3637 0.930 . S
C3646 C3644 1.384 . S
C3646 C3647 1.372 . S
C3647 C3646 1.372 . S
C3647 C3648 1.400 . S
C3647 C3652 1.490 . S
C3648 H3638 0.930 . S
C3648 C3647 1.400 . S
C3648 C3651 1.386 . S
H3649 C3665 0.930 . S
H3650 C3666 0.931 . S
C3651 H3639 0.929 . S
C3651 C3645 1.390 . S
C3651 C3648 1.386 . S
C3652 C3647 1.490 . S
C3652 C3654 1.395 . S
C3652 C3655 1.403 1_556 S
H3653 C3659 0.930 . S
C3654 H3640 0.930 . S
C3654 C3652 1.395 . S
C3654 C3657 1.403 1_556 S
C3655 C3652 1.403 1_554 S
C3655 C3656 1.524 1_554 S
C3655 C3659 1.400 . S
C3656 H3641 0.960 1_556 S
C3656 H3642 0.960 . S
C3656 H3643 0.960 . S
C3656 C3655 1.524 1_556 S
C3657 C3654 1.403 1_554 S
C3657 C3658 1.392 . S
C3657 C3661 1.495 . S
C3658 C3657 1.392 . S
C3658 C3659 1.385 . S
C3658 C3660 1.478 . S
C3659 H3653 0.930 . S
C3659 C3655 1.400 . S
C3659 C3658 1.385 . S
C3660 C3658 1.478 . S
C3660 C3662 1.381 . S
C3660 C3666 1.383 . S
C3661 C3657 1.495 . S
C3661 H3667 0.959 . S
C3661 H3668 0.961 . S
C3661 H3669 0.960 . S
C3662 C3660 1.381 . S
C3662 C3663 1.394 . S
C3662 H3670 0.930 . S
C3663 C3662 1.394 . S
C3663 C3664 1.383 . S
C3663 H3671 0.929 . S
C3664 C3663 1.383 . S
C3664 C3665 1.377 . S
C3665 H3649 0.930 . S
C3665 C3664 1.377 . S
C3665 C3666 1.379 . S
C3666 H3650 0.931 . S
C3666 C3660 1.383 . S
C3666 C3665 1.379 . S
H3667 C3661 0.959 . S
H3668 C3661 0.961 . S
H3669 C3661 0.960 . S
H3670 C3662 0.930 . S
H3671 C3663 0.929 . S
H3672 C3680 0.929 . S
H3673 C3682 0.930 . S
H3674 C3684 0.930 . S
H3675 C3687 0.929 . S
H3676 C3690 0.930 1_556 S
H3677 C3692 0.960 1_554 S
H3678 C3692 0.960 . S
H3679 C3692 0.960 . S
C3680 H3672 0.929 . S
C3680 C3681 1.377 . S
C3680 C3682 1.384 . S
C3681 C3680 1.377 . S
C3681 C3687 1.390 . S
C3682 H3673 0.930 . S
C3682 C3680 1.384 . S
C3682 C3683 1.372 . S
C3683 C3682 1.372 . S
C3683 C3684 1.400 . S
C3683 C3688 1.490 . S
C3684 H3674 0.930 . S
C3684 C3683 1.400 . S
C3684 C3687 1.386 . S
H3685 C3701 0.930 . S
H3686 C3702 0.931 . S
C3687 H3675 0.929 . S
C3687 C3681 1.390 . S
C3687 C3684 1.386 . S
C3688 C3683 1.490 . S
C3688 C3690 1.395 1_556 S
C3688 C3691 1.403 1_556 S
H3689 C3695 0.930 . S
C3690 H3676 0.930 1_554 S
C3690 C3688 1.395 1_554 S
C3690 C3693 1.403 . S
C3691 C3688 1.403 1_554 S
C3691 C3692 1.524 1_554 S
C3691 C3695 1.400 . S
C3692 H3677 0.960 1_556 S
C3692 H3678 0.960 . S
C3692 H3679 0.960 . S
C3692 C3691 1.524 1_556 S
C3693 C3690 1.403 . S
C3693 C3694 1.392 . S
C3693 C3697 1.495 . S
C3694 C3693 1.392 . S
C3694 C3695 1.385 . S
C3694 C3696 1.478 . S
C3695 H3689 0.930 . S
C3695 C3691 1.400 . S
C3695 C3694 1.385 . S
C3696 C3694 1.478 . S
C3696 C3698 1.381 . S
C3696 C3702 1.383 . S
C3697 C3693 1.495 . S
C3697 H3703 0.959 . S
C3697 H3704 0.961 . S
C3697 H3705 0.960 . S
C3698 C3696 1.381 . S
C3698 C3699 1.394 . S
C3698 H3706 0.930 . S
C3699 C3698 1.394 . S
C3699 C3700 1.383 . S
C3699 H3707 0.929 . S
C3700 C3699 1.383 . S
C3700 C3701 1.377 . S
C3701 H3685 0.930 . S
C3701 C3700 1.377 . S
C3701 C3702 1.379 . S
C3702 H3686 0.931 . S
C3702 C3696 1.383 . S
C3702 C3701 1.379 . S
H3703 C3697 0.959 . S
H3704 C3697 0.961 . S
H3705 C3697 0.960 . S
H3706 C3698 0.930 . S
H3707 C3699 0.929 . S
H3708 C3716 0.929 . S
H3709 C3718 0.930 . S
H3710 C3720 0.930 . S
H3711 C3723 0.929 . S
H3712 C3726 0.930 . S
H3713 C3728 0.960 . S
H3714 C3728 0.960 . S
H3715 C3728 0.960 . S
C3716 H3708 0.929 . S
C3716 C3717 1.377 . S
C3716 C3718 1.384 . S
C3717 C3716 1.377 . S
C3717 C3723 1.390 . S
C3718 H3709 0.930 . S
C3718 C3716 1.384 . S
C3718 C3719 1.372 . S
C3719 C3718 1.372 . S
C3719 C3720 1.400 . S
C3719 C3724 1.490 . S
C3720 H3710 0.930 . S
C3720 C3719 1.400 . S
C3720 C3723 1.386 . S
H3721 C3737 0.930 . S
H3722 C3738 0.931 . S
C3723 H3711 0.929 . S
C3723 C3717 1.390 . S
C3723 C3720 1.386 . S
C3724 C3719 1.490 . S
C3724 C3726 1.395 . S
C3724 C3727 1.403 . S
H3725 C3731 0.930 . S
C3726 H3712 0.930 . S
C3726 C3724 1.395 . S
C3726 C3729 1.403 . S
C3727 C3724 1.403 . S
C3727 C3728 1.524 . S
C3727 C3731 1.400 . S
C3728 H3713 0.960 . S
C3728 H3714 0.960 . S
C3728 H3715 0.960 . S
C3728 C3727 1.524 . S
C3729 C3726 1.403 . S
C3729 C3730 1.392 . S
C3729 C3733 1.495 . S
C3730 C3729 1.392 . S
C3730 C3731 1.385 . S
C3730 C3732 1.478 . S
C3731 H3725 0.930 . S
C3731 C3727 1.400 . S
C3731 C3730 1.385 . S
C3732 C3730 1.478 . S
C3732 C3734 1.381 . S
C3732 C3738 1.383 . S
C3733 C3729 1.495 . S
C3733 H3739 0.959 . S
C3733 H3740 0.961 . S
C3733 H3741 0.960 . S
C3734 C3732 1.381 . S
C3734 C3735 1.394 . S
C3734 H3742 0.930 . S
C3735 C3734 1.394 . S
C3735 C3736 1.383 . S
C3735 H3743 0.929 . S
C3736 C3735 1.383 . S
C3736 C3737 1.377 . S
C3737 H3721 0.930 . S
C3737 C3736 1.377 . S
C3737 C3738 1.379 . S
C3738 H3722 0.931 . S
C3738 C3732 1.383 . S
C3738 C3737 1.379 . S
H3739 C3733 0.959 . S
H3740 C3733 0.961 . S
H3741 C3733 0.960 . S
H3742 C3734 0.930 . S
H3743 C3735 0.929 . S
H3744 C3752 0.929 . S
H3745 C3754 0.930 . S
H3746 C3756 0.930 . S
H3747 C3759 0.929 . S
H3748 C3762 0.930 . S
H3749 C3764 0.960 . S
H3750 C3764 0.960 . S
H3751 C3764 0.960 . S
C3752 H3744 0.929 . S
C3752 C3753 1.377 . S
C3752 C3754 1.384 . S
C3753 C3752 1.377 . S
C3753 C3759 1.390 . S
C3754 H3745 0.930 . S
C3754 C3752 1.384 . S
C3754 C3755 1.372 . S
C3755 C3754 1.372 . S
C3755 C3756 1.400 . S
C3755 C3760 1.490 . S
C3756 H3746 0.930 . S
C3756 C3755 1.400 . S
C3756 C3759 1.386 . S
H3757 C3773 0.930 . S
H3758 C3774 0.931 . S
C3759 H3747 0.929 . S
C3759 C3753 1.390 . S
C3759 C3756 1.386 . S
C3760 C3755 1.490 . S
C3760 C3762 1.395 . S
C3760 C3763 1.403 . S
H3761 C3767 0.930 . S
C3762 H3748 0.930 . S
C3762 C3760 1.395 . S
C3762 C3765 1.403 . S
C3763 C3760 1.403 . S
C3763 C3764 1.524 . S
C3763 C3767 1.400 . S
C3764 H3749 0.960 . S
C3764 H3750 0.960 . S
C3764 H3751 0.960 . S
C3764 C3763 1.524 . S
C3765 C3762 1.403 . S
C3765 C3766 1.392 . S
C3765 C3769 1.495 . S
C3766 C3765 1.392 . S
C3766 C3767 1.385 . S
C3766 C3768 1.478 . S
C3767 H3761 0.930 . S
C3767 C3763 1.400 . S
C3767 C3766 1.385 . S
C3768 C3766 1.478 . S
C3768 C3770 1.381 . S
C3768 C3774 1.383 . S
C3769 C3765 1.495 . S
C3769 H3775 0.959 . S
C3769 H3776 0.961 . S
C3769 H3777 0.960 . S
C3770 C3768 1.381 . S
C3770 C3771 1.394 . S
C3770 H3778 0.930 . S
C3771 C3770 1.394 . S
C3771 C3772 1.383 . S
C3771 H3779 0.929 . S
C3772 C3771 1.383 . S
C3772 C3773 1.377 . S
C3773 H3757 0.930 . S
C3773 C3772 1.377 . S
C3773 C3774 1.379 . S
C3774 H3758 0.931 . S
C3774 C3768 1.383 . S
C3774 C3773 1.379 . S
H3775 C3769 0.959 . S
H3776 C3769 0.961 . S
H3777 C3769 0.960 . S
H3778 C3770 0.930 . S
H3779 C3771 0.929 . S
H3780 C3788 0.929 . S
H3781 C3790 0.930 . S
H3782 C3792 0.930 . S
H3783 C3795 0.929 . S
H3784 C3798 0.930 . S
H3785 C3800 0.960 . S
H3786 C3800 0.960 . S
H3787 C3800 0.960 . S
C3788 H3780 0.929 . S
C3788 C3789 1.377 . S
C3788 C3790 1.384 . S
C3789 C3788 1.377 . S
C3789 C3795 1.390 . S
C3790 H3781 0.930 . S
C3790 C3788 1.384 . S
C3790 C3791 1.372 . S
C3791 C3790 1.372 . S
C3791 C3792 1.400 . S
C3791 C3796 1.490 . S
C3792 H3782 0.930 . S
C3792 C3791 1.400 . S
C3792 C3795 1.386 . S
H3793 C3809 0.930 . S
H3794 C3810 0.931 . S
C3795 H3783 0.929 . S
C3795 C3789 1.390 . S
C3795 C3792 1.386 . S
C3796 C3791 1.490 . S
C3796 C3798 1.395 . S
C3796 C3799 1.403 . S
H3797 C3803 0.930 . S
C3798 H3784 0.930 . S
C3798 C3796 1.395 . S
C3798 C3801 1.403 . S
C3799 C3796 1.403 . S
C3799 C3800 1.524 . S
C3799 C3803 1.400 . S
C3800 H3785 0.960 . S
C3800 H3786 0.960 . S
C3800 H3787 0.960 . S
C3800 C3799 1.524 . S
C3801 C3798 1.403 . S
C3801 C3802 1.392 . S
C3801 C3805 1.495 . S
C3802 C3801 1.392 . S
C3802 C3803 1.385 . S
C3802 C3804 1.478 . S
C3803 H3797 0.930 . S
C3803 C3799 1.400 . S
C3803 C3802 1.385 . S
C3804 C3802 1.478 . S
C3804 C3806 1.381 . S
C3804 C3810 1.383 . S
C3805 C3801 1.495 . S
C3805 H3811 0.959 . S
C3805 H3812 0.961 . S
C3805 H3813 0.960 . S
C3806 C3804 1.381 . S
C3806 C3807 1.394 . S
C3806 H3814 0.930 . S
C3807 C3806 1.394 . S
C3807 C3808 1.383 . S
C3807 H3815 0.929 . S
C3808 C3807 1.383 . S
C3808 C3809 1.377 . S
C3809 H3793 0.930 . S
C3809 C3808 1.377 . S
C3809 C3810 1.379 . S
C3810 H3794 0.931 . S
C3810 C3804 1.383 . S
C3810 C3809 1.379 . S
H3811 C3805 0.959 . S
H3812 C3805 0.961 . S
H3813 C3805 0.960 . S
H3814 C3806 0.930 . S
H3815 C3807 0.929 . S
H3816 C3824 0.929 . S
H3817 C3826 0.930 . S
H3818 C3828 0.930 . S
H3819 C3831 0.929 . S
H3820 C3834 0.930 . S
H3821 C3836 0.960 . S
H3822 C3836 0.960 . S
H3823 C3836 0.960 . S
C3824 H3816 0.929 . S
C3824 C3825 1.377 . S
C3824 C3826 1.384 . S
C3825 C3824 1.377 . S
C3825 C3831 1.390 . S
C3826 H3817 0.930 . S
C3826 C3824 1.384 . S
C3826 C3827 1.372 . S
C3827 C3826 1.372 . S
C3827 C3828 1.400 . S
C3827 C3832 1.490 . S
C3828 H3818 0.930 . S
C3828 C3827 1.400 . S
C3828 C3831 1.386 . S
H3829 C3845 0.930 . S
H3830 C3846 0.931 . S
C3831 H3819 0.929 . S
C3831 C3825 1.390 . S
C3831 C3828 1.386 . S
C3832 C3827 1.490 . S
C3832 C3834 1.395 . S
C3832 C3835 1.403 . S
H3833 C3839 0.930 . S
C3834 H3820 0.930 . S
C3834 C3832 1.395 . S
C3834 C3837 1.403 . S
C3835 C3832 1.403 . S
C3835 C3836 1.524 . S
C3835 C3839 1.400 . S
C3836 H3821 0.960 . S
C3836 H3822 0.960 . S
C3836 H3823 0.960 . S
C3836 C3835 1.524 . S
C3837 C3834 1.403 . S
C3837 C3838 1.392 . S
C3837 C3841 1.495 . S
C3838 C3837 1.392 . S
C3838 C3839 1.385 . S
C3838 C3840 1.478 . S
C3839 H3833 0.930 . S
C3839 C3835 1.400 . S
C3839 C3838 1.385 . S
C3840 C3838 1.478 . S
C3840 C3842 1.381 . S
C3840 C3846 1.383 . S
C3841 C3837 1.495 . S
C3841 H3847 0.959 . S
C3841 H3848 0.961 . S
C3841 H3849 0.960 . S
C3842 C3840 1.381 . S
C3842 C3843 1.394 . S
C3842 H3850 0.930 . S
C3843 C3842 1.394 . S
C3843 C3844 1.383 . S
C3843 H3851 0.929 . S
C3844 C3843 1.383 . S
C3844 C3845 1.377 . S
C3845 H3829 0.930 . S
C3845 C3844 1.377 . S
C3845 C3846 1.379 . S
C3846 H3830 0.931 . S
C3846 C3840 1.383 . S
C3846 C3845 1.379 . S
H3847 C3841 0.959 . S
H3848 C3841 0.961 . S
H3849 C3841 0.960 . S
H3850 C3842 0.930 . S
H3851 C3843 0.929 . S
H3852 C3860 0.929 . S
H3853 C3862 0.930 . S
H3854 C3864 0.930 . S
H3855 C3867 0.929 . S
H3856 C3870 0.930 . S
H3857 C3872 0.960 . S
H3858 C3872 0.960 . S
H3859 C3872 0.960 . S
C3860 H3852 0.929 . S
C3860 C3861 1.377 . S
C3860 C3862 1.384 . S
C3861 C3860 1.377 . S
C3861 C3867 1.390 . S
C3862 H3853 0.930 . S
C3862 C3860 1.384 . S
C3862 C3863 1.372 . S
C3863 C3862 1.372 . S
C3863 C3864 1.400 . S
C3863 C3868 1.490 . S
C3864 H3854 0.930 . S
C3864 C3863 1.400 . S
C3864 C3867 1.386 . S
H3865 C3881 0.930 . S
H3866 C3882 0.931 . S
C3867 H3855 0.929 . S
C3867 C3861 1.390 . S
C3867 C3864 1.386 . S
C3868 C3863 1.490 . S
C3868 C3870 1.395 . S
C3868 C3871 1.403 . S
H3869 C3875 0.930 . S
C3870 H3856 0.930 . S
C3870 C3868 1.395 . S
C3870 C3873 1.403 . S
C3871 C3868 1.403 . S
C3871 C3872 1.524 . S
C3871 C3875 1.400 . S
C3872 H3857 0.960 . S
C3872 H3858 0.960 . S
C3872 H3859 0.960 . S
C3872 C3871 1.524 . S
C3873 C3870 1.403 . S
C3873 C3874 1.392 . S
C3873 C3877 1.495 . S
C3874 C3873 1.392 . S
C3874 C3875 1.385 . S
C3874 C3876 1.478 . S
C3875 H3869 0.930 . S
C3875 C3871 1.400 . S
C3875 C3874 1.385 . S
C3876 C3874 1.478 . S
C3876 C3878 1.381 . S
C3876 C3882 1.383 . S
C3877 C3873 1.495 . S
C3877 H3883 0.959 . S
C3877 H3884 0.961 . S
C3877 H3885 0.960 . S
C3878 C3876 1.381 . S
C3878 C3879 1.394 . S
C3878 H3886 0.930 . S
C3879 C3878 1.394 . S
C3879 C3880 1.383 . S
C3879 H3887 0.929 . S
C3880 C3879 1.383 . S
C3880 C3881 1.377 . S
C3881 H3865 0.930 . S
C3881 C3880 1.377 . S
C3881 C3882 1.379 . S
C3882 H3866 0.931 . S
C3882 C3876 1.383 . S
C3882 C3881 1.379 . S
H3883 C3877 0.959 . S
H3884 C3877 0.961 . S
H3885 C3877 0.960 . S
H3886 C3878 0.930 . S
H3887 C3879 0.929 . S
H3888 C3896 0.929 . S
H3889 C3898 0.930 . S
H3890 C3900 0.930 . S
H3891 C3903 0.929 . S
H3892 C3906 0.930 . S
H3893 C3908 0.960 . S
H3894 C3908 0.960 . S
H3895 C3908 0.960 . S
C3896 H3888 0.929 . S
C3896 C3897 1.377 . S
C3896 C3898 1.384 . S
C3897 C3896 1.377 . S
C3897 C3903 1.390 . S
C3898 H3889 0.930 . S
C3898 C3896 1.384 . S
C3898 C3899 1.372 . S
C3899 C3898 1.372 . S
C3899 C3900 1.400 . S
C3899 C3904 1.490 . S
C3900 H3890 0.930 . S
C3900 C3899 1.400 . S
C3900 C3903 1.386 . S
H3901 C3917 0.930 . S
H3902 C3918 0.931 . S
C3903 H3891 0.929 . S
C3903 C3897 1.390 . S
C3903 C3900 1.386 . S
C3904 C3899 1.490 . S
C3904 C3906 1.395 . S
C3904 C3907 1.403 . S
H3905 C3911 0.930 . S
C3906 H3892 0.930 . S
C3906 C3904 1.395 . S
C3906 C3909 1.403 . S
C3907 C3904 1.403 . S
C3907 C3908 1.524 . S
C3907 C3911 1.400 . S
C3908 H3893 0.960 . S
C3908 H3894 0.960 . S
C3908 H3895 0.960 . S
C3908 C3907 1.524 . S
C3909 C3906 1.403 . S
C3909 C3910 1.392 . S
C3909 C3913 1.495 . S
C3910 C3909 1.392 . S
C3910 C3911 1.385 . S
C3910 C3912 1.478 . S
C3911 H3905 0.930 . S
C3911 C3907 1.400 . S
C3911 C3910 1.385 . S
C3912 C3910 1.478 . S
C3912 C3914 1.381 . S
C3912 C3918 1.383 . S
C3913 C3909 1.495 . S
C3913 H3919 0.959 . S
C3913 H3920 0.961 . S
C3913 H3921 0.960 . S
C3914 C3912 1.381 . S
C3914 C3915 1.394 . S
C3914 H3922 0.930 . S
C3915 C3914 1.394 . S
C3915 C3916 1.383 . S
C3915 H3923 0.929 . S
C3916 C3915 1.383 . S
C3916 C3917 1.377 . S
C3917 H3901 0.930 . S
C3917 C3916 1.377 . S
C3917 C3918 1.379 . S
C3918 H3902 0.931 . S
C3918 C3912 1.383 . S
C3918 C3917 1.379 . S
H3919 C3913 0.959 . S
H3920 C3913 0.961 . S
H3921 C3913 0.960 . S
H3922 C3914 0.930 . S
H3923 C3915 0.929 . S
H3924 C3932 0.929 . S
H3925 C3934 0.930 . S
H3926 C3936 0.930 . S
H3927 C3939 0.929 . S
H3928 C3942 0.930 . S
H3929 C3944 0.960 . S
H3930 C3944 0.960 . S
H3931 C3944 0.960 . S
C3932 H3924 0.929 . S
C3932 C3933 1.377 . S
C3932 C3934 1.384 . S
C3933 C3932 1.377 . S
C3933 C3939 1.390 . S
C3934 H3925 0.930 . S
C3934 C3932 1.384 . S
C3934 C3935 1.372 . S
C3935 C3934 1.372 . S
C3935 C3936 1.400 . S
C3935 C3940 1.490 . S
C3936 H3926 0.930 . S
C3936 C3935 1.400 . S
C3936 C3939 1.386 . S
H3937 C3953 0.930 . S
H3938 C3954 0.931 . S
C3939 H3927 0.929 . S
C3939 C3933 1.390 . S
C3939 C3936 1.386 . S
C3940 C3935 1.490 . S
C3940 C3942 1.395 . S
C3940 C3943 1.403 . S
H3941 C3947 0.941 . S
C3942 H3928 0.930 . S
C3942 C3940 1.395 . S
C3942 C3945 1.403 . S
C3943 C3940 1.403 . S
C3943 C3944 1.524 . S
C3943 C3947 1.381 1_554 S
C3944 H3929 0.960 . S
C3944 H3930 0.960 . S
C3944 H3931 0.960 . S
C3944 C3943 1.524 . S
C3945 C3942 1.403 . S
C3945 C3946 1.392 1_554 S
C3945 C3949 1.495 1_554 S
C3946 C3945 1.392 1_556 S
C3946 C3947 1.394 . S
C3946 C3948 1.478 . S
C3947 H3941 0.941 . S
C3947 C3943 1.381 1_556 S
C3947 C3946 1.394 . S
C3948 C3946 1.478 . S
C3948 C3950 1.381 . S
C3948 C3954 1.383 . S
C3949 C3945 1.495 1_556 S
C3949 H3955 0.959 1_556 S
C3949 H3956 0.961 . S
C3949 H3957 0.960 . S
C3950 C3948 1.381 . S
C3950 C3951 1.394 . S
C3950 H3958 0.930 . S
C3951 C3950 1.394 . S
C3951 C3952 1.383 . S
C3951 H3959 0.929 . S
C3952 C3951 1.383 . S
C3952 C3953 1.377 . S
C3953 H3937 0.930 . S
C3953 C3952 1.377 . S
C3953 C3954 1.379 . S
C3954 H3938 0.931 . S
C3954 C3948 1.383 . S
C3954 C3953 1.379 . S
H3955 C3949 0.959 1_554 S
H3956 C3949 0.961 . S
H3957 C3949 0.960 . S
H3958 C3950 0.930 . S
H3959 C3951 0.929 . S
H3960 C3968 0.929 . S
H3961 C3970 0.930 . S
H3962 C3972 0.930 . S
H3963 C3975 0.929 . S
H3964 C3978 0.930 1_556 S
H3965 C3980 0.960 1_554 S
H3966 C3980 0.960 . S
H3967 C3980 0.960 . S
C3968 H3960 0.929 . S
C3968 C3969 1.377 . S
C3968 C3970 1.384 . S
C3969 C3968 1.377 . S
C3969 C3975 1.390 . S
C3970 H3961 0.930 . S
C3970 C3968 1.384 . S
C3970 C3971 1.372 . S
C3971 C3970 1.372 . S
C3971 C3972 1.400 . S
C3971 C3976 1.490 . S
C3972 H3962 0.930 . S
C3972 C3971 1.400 . S
C3972 C3975 1.386 . S
H3973 C3989 0.930 . S
H3974 C3990 0.931 . S
C3975 H3963 0.929 . S
C3975 C3969 1.390 . S
C3975 C3972 1.386 . S
C3976 C3971 1.490 . S
C3976 C3978 1.395 1_556 S
C3976 C3979 1.403 1_556 S
H3977 C3983 0.930 . S
C3978 H3964 0.930 1_554 S
C3978 C3976 1.395 1_554 S
C3978 C3981 1.403 . S
C3979 C3976 1.403 1_554 S
C3979 C3980 1.524 1_554 S
C3979 C3983 1.400 . S
C3980 H3965 0.960 1_556 S
C3980 H3966 0.960 . S
C3980 H3967 0.960 . S
C3980 C3979 1.524 1_556 S
C3981 C3978 1.403 . S
C3981 C3982 1.392 . S
C3981 C3985 1.495 . S
C3982 C3981 1.392 . S
C3982 C3983 1.385 . S
C3982 C3984 1.478 . S
C3983 H3977 0.930 . S
C3983 C3979 1.400 . S
C3983 C3982 1.385 . S
C3984 C3982 1.478 . S
C3984 C3986 1.381 . S
C3984 C3990 1.383 . S
C3985 C3981 1.495 . S
C3985 H3991 0.959 . S
C3985 H3992 0.961 . S
C3985 H3993 0.960 . S
C3986 C3984 1.381 . S
C3986 C3987 1.394 . S
C3986 H3994 0.930 . S
C3987 C3986 1.394 . S
C3987 C3988 1.383 . S
C3987 H3995 0.929 . S
C3988 C3987 1.383 . S
C3988 C3989 1.377 . S
C3989 H3973 0.930 . S
C3989 C3988 1.377 . S
C3989 C3990 1.379 . S
C3990 H3974 0.931 . S
C3990 C3984 1.383 . S
C3990 C3989 1.379 . S
H3991 C3985 0.959 . S
H3992 C3985 0.961 . S
H3993 C3985 0.960 . S
H3994 C3986 0.930 . S
H3995 C3987 0.929 . S
H3996 C4004 0.929 . S
H3997 C4006 0.930 . S
H3998 C4008 0.930 . S
H3999 C4011 0.929 . S
H4000 C4014 0.930 1_556 S
H4001 C4016 0.960 1_554 S
H4002 C4016 0.960 . S
H4003 C4016 0.960 . S
C4004 H3996 0.929 . S
C4004 C4005 1.377 . S
C4004 C4006 1.384 . S
C4005 C4004 1.377 . S
C4005 C4011 1.390 . S
C4006 H3997 0.930 . S
C4006 C4004 1.384 . S
C4006 C4007 1.372 . S
C4007 C4006 1.372 . S
C4007 C4008 1.400 . S
C4007 C4012 1.490 . S
C4008 H3998 0.930 . S
C4008 C4007 1.400 . S
C4008 C4011 1.386 . S
H4009 C4025 0.930 . S
H4010 C4026 0.931 . S
C4011 H3999 0.929 . S
C4011 C4005 1.390 . S
C4011 C4008 1.386 . S
C4012 C4007 1.490 . S
C4012 C4014 1.395 1_556 S
C4012 C4015 1.403 1_556 S
H4013 C4019 0.930 . S
C4014 H4000 0.930 1_554 S
C4014 C4012 1.395 1_554 S
C4014 C4017 1.403 . S
C4015 C4012 1.403 1_554 S
C4015 C4016 1.524 1_554 S
C4015 C4019 1.400 . S
C4016 H4001 0.960 1_556 S
C4016 H4002 0.960 . S
C4016 H4003 0.960 . S
C4016 C4015 1.524 1_556 S
C4017 C4014 1.403 . S
C4017 C4018 1.392 . S
C4017 C4021 1.495 . S
C4018 C4017 1.392 . S
C4018 C4019 1.385 . S
C4018 C4020 1.478 . S
C4019 H4013 0.930 . S
C4019 C4015 1.400 . S
C4019 C4018 1.385 . S
C4020 C4018 1.478 . S
C4020 C4022 1.381 . S
C4020 C4026 1.383 . S
C4021 C4017 1.495 . S
C4021 H4027 0.959 . S
C4021 H4028 0.961 . S
C4021 H4029 0.960 . S
C4022 C4020 1.381 . S
C4022 C4023 1.394 . S
C4022 H4030 0.930 . S
C4023 C4022 1.394 . S
C4023 C4024 1.383 . S
C4023 H4031 0.929 . S
C4024 C4023 1.383 . S
C4024 C4025 1.377 . S
C4025 H4009 0.930 . S
C4025 C4024 1.377 . S
C4025 C4026 1.379 . S
C4026 H4010 0.931 . S
C4026 C4020 1.383 . S
C4026 C4025 1.379 . S
H4027 C4021 0.959 . S
H4028 C4021 0.961 . S
H4029 C4021 0.960 . S
H4030 C4022 0.930 . S
H4031 C4023 0.929 . S
H4032 C4040 0.929 . S
H4033 C4042 0.930 . S
H4034 C4044 0.930 . S
H4035 C4047 0.929 . S
H4036 C4050 0.930 . S
H4037 C4052 0.960 . S
H4038 C4052 0.960 . S
H4039 C4052 0.960 . S
C4040 H4032 0.929 . S
C4040 C4041 1.377 . S
C4040 C4042 1.384 . S
C4041 C4040 1.377 . S
C4041 C4047 1.390 . S
C4042 H4033 0.930 . S
C4042 C4040 1.384 . S
C4042 C4043 1.372 . S
C4043 C4042 1.372 . S
C4043 C4044 1.400 . S
C4043 C4048 1.490 . S
C4044 H4034 0.930 . S
C4044 C4043 1.400 . S
C4044 C4047 1.386 . S
H4045 C4061 0.930 . S
H4046 C4062 0.931 . S
C4047 H4035 0.929 . S
C4047 C4041 1.390 . S
C4047 C4044 1.386 . S
C4048 C4043 1.490 . S
C4048 C4050 1.395 . S
C4048 C4051 1.403 . S
H4049 C4055 0.930 . S
C4050 H4036 0.930 . S
C4050 C4048 1.395 . S
C4050 C4053 1.403 . S
C4051 C4048 1.403 . S
C4051 C4052 1.524 . S
C4051 C4055 1.400 . S
C4052 H4037 0.960 . S
C4052 H4038 0.960 . S
C4052 H4039 0.960 . S
C4052 C4051 1.524 . S
C4053 C4050 1.403 . S
C4053 C4054 1.392 . S
C4053 C4057 1.495 . S
C4054 C4053 1.392 . S
C4054 C4055 1.385 . S
C4054 C4056 1.478 . S
C4055 H4049 0.930 . S
C4055 C4051 1.400 . S
C4055 C4054 1.385 . S
C4056 C4054 1.478 . S
C4056 C4058 1.381 . S
C4056 C4062 1.383 . S
C4057 C4053 1.495 . S
C4057 H4063 0.959 . S
C4057 H4064 0.961 . S
C4057 H4065 0.960 . S
C4058 C4056 1.381 . S
C4058 C4059 1.394 . S
C4058 H4066 0.930 . S
C4059 C4058 1.394 . S
C4059 C4060 1.383 . S
C4059 H4067 0.929 . S
C4060 C4059 1.383 . S
C4060 C4061 1.377 . S
C4061 H4045 0.930 . S
C4061 C4060 1.377 . S
C4061 C4062 1.379 . S
C4062 H4046 0.931 . S
C4062 C4056 1.383 . S
C4062 C4061 1.379 . S
H4063 C4057 0.959 . S
H4064 C4057 0.961 . S
H4065 C4057 0.960 . S
H4066 C4058 0.930 . S
H4067 C4059 0.929 . S
H4068 C4076 0.929 . S
H4069 C4078 0.930 . S
H4070 C4080 0.930 . S
H4071 C4083 0.929 . S
H4072 C4086 0.930 . S
H4073 C4088 0.960 . S
H4074 C4088 0.960 . S
H4075 C4088 0.960 . S
C4076 H4068 0.929 . S
C4076 C4077 1.377 . S
C4076 C4078 1.384 . S
C4077 C4076 1.377 . S
C4077 C4083 1.390 . S
C4078 H4069 0.930 . S
C4078 C4076 1.384 . S
C4078 C4079 1.372 . S
C4079 C4078 1.372 . S
C4079 C4080 1.400 . S
C4079 C4084 1.490 . S
C4080 H4070 0.930 . S
C4080 C4079 1.400 . S
C4080 C4083 1.386 . S
H4081 C4097 0.930 . S
H4082 C4098 0.931 . S
C4083 H4071 0.929 . S
C4083 C4077 1.390 . S
C4083 C4080 1.386 . S
C4084 C4079 1.490 . S
C4084 C4086 1.395 . S
C4084 C4087 1.403 . S
H4085 C4091 0.930 . S
C4086 H4072 0.930 . S
C4086 C4084 1.395 . S
C4086 C4089 1.403 . S
C4087 C4084 1.403 . S
C4087 C4088 1.524 . S
C4087 C4091 1.400 . S
C4088 H4073 0.960 . S
C4088 H4074 0.960 . S
C4088 H4075 0.960 . S
C4088 C4087 1.524 . S
C4089 C4086 1.403 . S
C4089 C4090 1.392 . S
C4089 C4093 1.495 . S
C4090 C4089 1.392 . S
C4090 C4091 1.385 . S
C4090 C4092 1.478 . S
C4091 H4085 0.930 . S
C4091 C4087 1.400 . S
C4091 C4090 1.385 . S
C4092 C4090 1.478 . S
C4092 C4094 1.381 . S
C4092 C4098 1.383 . S
C4093 C4089 1.495 . S
C4093 H4099 0.959 . S
C4093 H4100 0.961 . S
C4093 H4101 0.960 . S
C4094 C4092 1.381 . S
C4094 C4095 1.394 . S
C4094 H4102 0.930 . S
C4095 C4094 1.394 . S
C4095 C4096 1.383 . S
C4095 H4103 0.929 . S
C4096 C4095 1.383 . S
C4096 C4097 1.377 . S
C4097 H4081 0.930 . S
C4097 C4096 1.377 . S
C4097 C4098 1.379 . S
C4098 H4082 0.931 . S
C4098 C4092 1.383 . S
C4098 C4097 1.379 . S
H4099 C4093 0.959 . S
H4100 C4093 0.961 . S
H4101 C4093 0.960 . S
H4102 C4094 0.930 . S
H4103 C4095 0.929 . S
H4104 C4112 0.929 . S
H4105 C4114 0.930 . S
H4106 C4116 0.930 . S
H4107 C4119 0.929 . S
H4108 C4122 0.930 . S
H4109 C4124 0.960 . S
H4110 C4124 0.960 . S
H4111 C4124 0.960 . S
C4112 H4104 0.929 . S
C4112 C4113 1.377 . S
C4112 C4114 1.384 . S
C4113 C4112 1.377 . S
C4113 C4119 1.390 . S
C4114 H4105 0.930 . S
C4114 C4112 1.384 . S
C4114 C4115 1.372 . S
C4115 C4114 1.372 . S
C4115 C4116 1.400 . S
C4115 C4120 1.490 . S
C4116 H4106 0.930 . S
C4116 C4115 1.400 . S
C4116 C4119 1.386 . S
H4117 C4133 0.930 . S
H4118 C4134 0.931 . S
C4119 H4107 0.929 . S
C4119 C4113 1.390 . S
C4119 C4116 1.386 . S
C4120 C4115 1.490 . S
C4120 C4122 1.395 . S
C4120 C4123 1.403 . S
H4121 C4127 0.930 . S
C4122 H4108 0.930 . S
C4122 C4120 1.395 . S
C4122 C4125 1.403 . S
C4123 C4120 1.403 . S
C4123 C4124 1.524 . S
C4123 C4127 1.400 . S
C4124 H4109 0.960 . S
C4124 H4110 0.960 . S
C4124 H4111 0.960 . S
C4124 C4123 1.524 . S
C4125 C4122 1.403 . S
C4125 C4126 1.392 . S
C4125 C4129 1.495 . S
C4126 C4125 1.392 . S
C4126 C4127 1.385 . S
C4126 C4128 1.478 . S
C4127 H4121 0.930 . S
C4127 C4123 1.400 . S
C4127 C4126 1.385 . S
C4128 C4126 1.478 . S
C4128 C4130 1.381 . S
C4128 C4134 1.383 . S
C4129 C4125 1.495 . S
C4129 H4135 0.959 . S
C4129 H4136 0.961 . S
C4129 H4137 0.960 . S
C4130 C4128 1.381 . S
C4130 C4131 1.394 . S
C4130 H4138 0.930 . S
C4131 C4130 1.394 . S
C4131 C4132 1.383 . S
C4131 H4139 0.929 . S
C4132 C4131 1.383 . S
C4132 C4133 1.377 . S
C4133 H4117 0.930 . S
C4133 C4132 1.377 . S
C4133 C4134 1.379 . S
C4134 H4118 0.931 . S
C4134 C4128 1.383 . S
C4134 C4133 1.379 . S
H4135 C4129 0.959 . S
H4136 C4129 0.961 . S
H4137 C4129 0.960 . S
H4138 C4130 0.930 . S
H4139 C4131 0.929 . S
H4140 C4148 0.929 . S
H4141 C4150 0.930 . S
H4142 C4152 0.930 . S
H4143 C4155 0.929 . S
H4144 C4158 0.932 . S
H4145 C4160 0.960 1_556 S
H4146 C4160 0.960 . S
H4147 C4160 0.960 . S
C4148 H4140 0.929 . S
C4148 C4149 1.377 . S
C4148 C4150 1.384 . S
C4149 C4148 1.377 . S
C4149 C4155 1.390 . S
C4150 H4141 0.930 . S
C4150 C4148 1.384 . S
C4150 C4151 1.372 . S
C4151 C4150 1.372 . S
C4151 C4152 1.400 . S
C4151 C4156 1.490 . S
C4152 H4142 0.930 . S
C4152 C4151 1.400 . S
C4152 C4155 1.386 . S
H4153 C4169 0.930 . S
H4154 C4170 0.931 . S
C4155 H4143 0.929 . S
C4155 C4149 1.390 . S
C4155 C4152 1.386 . S
C4156 C4151 1.490 . S
C4156 C4158 1.396 . S
C4156 C4159 1.403 1_554 S
H4157 C4163 0.930 . S
C4158 H4144 0.932 . S
C4158 C4156 1.396 . S
C4158 C4161 1.399 1_554 S
C4159 C4156 1.403 1_556 S
C4159 C4160 1.524 1_556 S
C4159 C4163 1.400 . S
C4160 H4145 0.960 1_554 S
C4160 H4146 0.960 . S
C4160 H4147 0.960 . S
C4160 C4159 1.524 1_554 S
C4161 C4158 1.399 1_556 S
C4161 C4162 1.392 . S
C4161 C4165 1.495 . S
C4162 C4161 1.392 . S
C4162 C4163 1.385 . S
C4162 C4164 1.478 . S
C4163 H4157 0.930 . S
C4163 C4159 1.400 . S
C4163 C4162 1.385 . S
C4164 C4162 1.478 . S
C4164 C4166 1.381 . S
C4164 C4170 1.383 . S
C4165 C4161 1.495 . S
C4165 H4171 0.959 . S
C4165 H4172 0.961 . S
C4165 H4173 0.960 . S
C4166 C4164 1.381 . S
C4166 C4167 1.394 . S
C4166 H4174 0.930 . S
C4167 C4166 1.394 . S
C4167 C4168 1.383 . S
C4167 H4175 0.929 . S
C4168 C4167 1.383 . S
C4168 C4169 1.377 . S
C4169 H4153 0.930 . S
C4169 C4168 1.377 . S
C4169 C4170 1.379 . S
C4170 H4154 0.931 . S
C4170 C4164 1.383 . S
C4170 C4169 1.379 . S
H4171 C4165 0.959 . S
H4172 C4165 0.961 . S
H4173 C4165 0.960 . S
H4174 C4166 0.930 . S
H4175 C4167 0.929 . S
H4176 C4184 0.929 . S
H4177 C4186 0.930 . S
H4178 C4188 0.930 . S
H4179 C4191 0.929 . S
H4180 C4194 0.930 . S
H4181 C4196 0.960 . S
H4182 C4196 0.960 . S
H4183 C4196 0.960 . S
C4184 H4176 0.929 . S
C4184 C4185 1.377 . S
C4184 C4186 1.384 . S
C4185 C4184 1.377 . S
C4185 C4191 1.390 . S
C4186 H4177 0.930 . S
C4186 C4184 1.384 . S
C4186 C4187 1.372 . S
C4187 C4186 1.372 . S
C4187 C4188 1.400 . S
C4187 C4192 1.490 . S
C4188 H4178 0.930 . S
C4188 C4187 1.400 . S
C4188 C4191 1.386 . S
H4189 C4205 0.930 . S
H4190 C4206 0.931 . S
C4191 H4179 0.929 . S
C4191 C4185 1.390 . S
C4191 C4188 1.386 . S
C4192 C4187 1.490 . S
C4192 C4194 1.395 . S
C4192 C4195 1.403 . S
H4193 C4199 0.933 . S
C4194 H4180 0.930 . S
C4194 C4192 1.395 . S
C4194 C4197 1.403 . S
C4195 C4192 1.403 . S
C4195 C4196 1.524 . S
C4195 C4199 1.396 1_556 S
C4196 H4181 0.960 . S
C4196 H4182 0.960 . S
C4196 H4183 0.960 . S
C4196 C4195 1.524 . S
C4197 C4194 1.403 . S
C4197 C4198 1.392 1_556 S
C4197 C4201 1.495 1_556 S
C4198 C4197 1.392 1_554 S
C4198 C4199 1.387 . S
C4198 C4200 1.478 . S
C4199 H4193 0.933 . S
C4199 C4195 1.396 1_554 S
C4199 C4198 1.387 . S
C4200 C4198 1.478 . S
C4200 C4202 1.381 . S
C4200 C4206 1.383 . S
C4201 C4197 1.495 1_554 S
C4201 H4207 0.959 1_554 S
C4201 H4208 0.961 . S
C4201 H4209 0.960 . S
C4202 C4200 1.381 . S
C4202 C4203 1.394 . S
C4202 H4210 0.930 . S
C4203 C4202 1.394 . S
C4203 C4204 1.383 . S
C4203 H4211 0.929 . S
C4204 C4203 1.383 . S
C4204 C4205 1.377 . S
C4205 H4189 0.930 . S
C4205 C4204 1.377 . S
C4205 C4206 1.379 . S
C4206 H4190 0.931 . S
C4206 C4200 1.383 . S
C4206 C4205 1.379 . S
H4207 C4201 0.959 1_556 S
H4208 C4201 0.961 . S
H4209 C4201 0.960 . S
H4210 C4202 0.930 . S
H4211 C4203 0.929 . S
H4212 C4220 0.929 . S
H4213 C4222 0.930 . S
H4214 C4224 0.930 . S
H4215 C4227 0.929 . S
H4216 C4230 0.930 . S
H4217 C4232 0.960 1_556 S
H4218 C4232 0.960 . S
H4219 C4232 0.960 . S
C4220 H4212 0.929 . S
C4220 C4221 1.377 . S
C4220 C4222 1.384 . S
C4221 C4220 1.377 . S
C4221 C4227 1.390 . S
C4222 H4213 0.930 . S
C4222 C4220 1.384 . S
C4222 C4223 1.372 . S
C4223 C4222 1.372 . S
C4223 C4224 1.400 . S
C4223 C4228 1.490 . S
C4224 H4214 0.930 . S
C4224 C4223 1.400 . S
C4224 C4227 1.386 . S
H4225 C4241 0.930 . S
H4226 C4242 0.931 . S
C4227 H4215 0.929 . S
C4227 C4221 1.390 . S
C4227 C4224 1.386 . S
C4228 C4223 1.490 . S
C4228 C4230 1.395 . S
C4228 C4231 1.403 1_554 S
H4229 C4235 0.930 . S
C4230 H4216 0.930 . S
C4230 C4228 1.395 . S
C4230 C4233 1.403 1_554 S
C4231 C4228 1.403 1_556 S
C4231 C4232 1.524 1_556 S
C4231 C4235 1.400 . S
C4232 H4217 0.960 1_554 S
C4232 H4218 0.960 . S
C4232 H4219 0.960 . S
C4232 C4231 1.524 1_554 S
C4233 C4230 1.403 1_556 S
C4233 C4234 1.392 . S
C4233 C4237 1.495 . S
C4234 C4233 1.392 . S
C4234 C4235 1.385 . S
C4234 C4236 1.478 . S
C4235 H4229 0.930 . S
C4235 C4231 1.400 . S
C4235 C4234 1.385 . S
C4236 C4234 1.478 . S
C4236 C4238 1.381 . S
C4236 C4242 1.383 . S
C4237 C4233 1.495 . S
C4237 H4243 0.959 . S
C4237 H4244 0.961 . S
C4237 H4245 0.960 . S
C4238 C4236 1.381 . S
C4238 C4239 1.394 . S
C4238 H4246 0.930 . S
C4239 C4238 1.394 . S
C4239 C4240 1.383 . S
C4239 H4247 0.929 . S
C4240 C4239 1.383 . S
C4240 C4241 1.377 . S
C4241 H4225 0.930 . S
C4241 C4240 1.377 . S
C4241 C4242 1.379 . S
C4242 H4226 0.931 . S
C4242 C4236 1.383 . S
C4242 C4241 1.379 . S
H4243 C4237 0.959 . S
H4244 C4237 0.961 . S
H4245 C4237 0.960 . S
H4246 C4238 0.930 . S
H4247 C4239 0.929 . S
H4248 C4256 0.929 . S
H4249 C4258 0.930 . S
H4250 C4260 0.930 . S
H4251 C4263 0.929 . S
H4252 C4266 0.930 . S
H4253 C4268 0.960 . S
H4254 C4268 0.960 . S
H4255 C4268 0.960 . S
C4256 H4248 0.929 . S
C4256 C4257 1.377 . S
C4256 C4258 1.384 . S
C4257 C4256 1.377 . S
C4257 C4263 1.390 . S
C4258 H4249 0.930 . S
C4258 C4256 1.384 . S
C4258 C4259 1.372 . S
C4259 C4258 1.372 . S
C4259 C4260 1.400 . S
C4259 C4264 1.490 . S
C4260 H4250 0.930 . S
C4260 C4259 1.400 . S
C4260 C4263 1.386 . S
H4261 C4277 0.930 . S
H4262 C4278 0.931 . S
C4263 H4251 0.929 . S
C4263 C4257 1.390 . S
C4263 C4260 1.386 . S
C4264 C4259 1.490 . S
C4264 C4266 1.395 . S
C4264 C4267 1.403 . S
H4265 C4271 0.919 1_554 S
C4266 H4252 0.930 . S
C4266 C4264 1.395 . S
C4266 C4269 1.403 . S
C4267 C4264 1.403 . S
C4267 C4268 1.524 . S
C4267 C4271 1.421 . S
C4268 H4253 0.960 . S
C4268 H4254 0.960 . S
C4268 H4255 0.960 . S
C4268 C4267 1.524 . S
C4269 C4266 1.403 . S
C4269 C4270 1.392 1_556 S
C4269 C4273 1.495 1_556 S
C4270 C4269 1.392 1_554 S
C4270 C4271 1.375 1_554 S
C4270 C4272 1.478 . S
C4271 H4265 0.919 1_556 S
C4271 C4267 1.421 . S
C4271 C4270 1.375 1_556 S
C4272 C4270 1.478 . S
C4272 C4274 1.381 . S
C4272 C4278 1.383 . S
C4273 C4269 1.495 1_554 S
C4273 H4279 0.947 1_554 S
C4273 H4280 0.961 . S
C4273 H4281 0.960 . S
C4274 C4272 1.381 . S
C4274 C4275 1.394 . S
C4274 H4282 0.930 . S
C4275 C4274 1.394 . S
C4275 C4276 1.383 . S
C4275 H4283 0.929 . S
C4276 C4275 1.383 . S
C4276 C4277 1.377 . S
C4277 H4261 0.930 . S
C4277 C4276 1.377 . S
C4277 C4278 1.379 . S
C4278 H4262 0.931 . S
C4278 C4272 1.383 . S
C4278 C4277 1.379 . S
H4279 C4273 0.947 1_556 S
H4280 C4273 0.961 . S
H4281 C4273 0.960 . S
H4282 C4274 0.930 . S
H4283 C4275 0.929 . S
H4284 C4292 0.929 . S
H4285 C4294 0.930 . S
H4286 C4296 0.930 . S
H4287 C4299 0.929 . S
H4288 C4302 0.930 . S
H4289 C4304 0.960 . S
H4290 C4304 0.960 . S
H4291 C4304 0.960 . S
C4292 H4284 0.929 . S
C4292 C4293 1.377 . S
C4292 C4294 1.384 . S
C4293 C4292 1.377 . S
C4293 C4299 1.390 . S
C4294 H4285 0.930 . S
C4294 C4292 1.384 . S
C4294 C4295 1.372 . S
C4295 C4294 1.372 . S
C4295 C4296 1.400 . S
C4295 C4300 1.490 . S
C4296 H4286 0.930 . S
C4296 C4295 1.400 . S
C4296 C4299 1.386 . S
H4297 C4313 0.930 . S
H4298 C4314 0.931 . S
C4299 H4287 0.929 . S
C4299 C4293 1.390 . S
C4299 C4296 1.386 . S
C4300 C4295 1.490 . S
C4300 C4302 1.395 . S
C4300 C4303 1.403 . S
H4301 C4307 0.930 . S
C4302 H4288 0.930 . S
C4302 C4300 1.395 . S
C4302 C4305 1.403 . S
C4303 C4300 1.403 . S
C4303 C4304 1.524 . S
C4303 C4307 1.400 1_556 S
C4304 H4289 0.960 . S
C4304 H4290 0.960 . S
C4304 H4291 0.960 . S
C4304 C4303 1.524 . S
C4305 C4302 1.403 . S
C4305 C4306 1.392 1_556 S
C4305 C4309 1.495 1_556 S
C4306 C4305 1.392 1_554 S
C4306 C4307 1.385 . S
C4306 C4308 1.478 . S
C4307 H4301 0.930 . S
C4307 C4303 1.400 1_554 S
C4307 C4306 1.385 . S
C4308 C4306 1.478 . S
C4308 C4310 1.381 . S
C4308 C4314 1.383 . S
C4309 C4305 1.495 1_554 S
C4309 H4315 0.959 1_554 S
C4309 H4316 0.961 . S
C4309 H4317 0.960 . S
C4310 C4308 1.381 . S
C4310 C4311 1.394 . S
C4310 H4318 0.930 . S
C4311 C4310 1.394 . S
C4311 C4312 1.383 . S
C4311 H4319 0.929 . S
C4312 C4311 1.383 . S
C4312 C4313 1.377 . S
C4313 H4297 0.930 . S
C4313 C4312 1.377 . S
C4313 C4314 1.379 . S
C4314 H4298 0.931 . S
C4314 C4308 1.383 . S
C4314 C4313 1.379 . S
H4315 C4309 0.959 1_556 S
H4316 C4309 0.961 . S
H4317 C4309 0.960 . S
H4318 C4310 0.930 . S
H4319 C4311 0.929 . S
H4320 C4328 0.929 . S
H4321 C4330 0.930 . S
H4322 C4332 0.930 . S
H4323 C4335 0.929 . S
H4324 C4338 0.930 . S
H4325 C4340 0.960 . S
H4326 C4340 0.960 . S
H4327 C4340 0.960 . S
C4328 H4320 0.929 . S
C4328 C4329 1.377 . S
C4328 C4330 1.384 . S
C4329 C4328 1.377 . S
C4329 C4335 1.390 . S
C4330 H4321 0.930 . S
C4330 C4328 1.384 . S
C4330 C4331 1.372 . S
C4331 C4330 1.372 . S
C4331 C4332 1.400 . S
C4331 C4336 1.490 . S
C4332 H4322 0.930 . S
C4332 C4331 1.400 . S
C4332 C4335 1.386 . S
H4333 C4349 0.930 . S
H4334 C4350 0.931 . S
C4335 H4323 0.929 . S
C4335 C4329 1.390 . S
C4335 C4332 1.386 . S
C4336 C4331 1.490 . S
C4336 C4338 1.395 . S
C4336 C4339 1.403 . S
H4337 C4343 0.930 . S
C4338 H4324 0.930 . S
C4338 C4336 1.395 . S
C4338 C4341 1.403 . S
C4339 C4336 1.403 . S
C4339 C4340 1.524 . S
C4339 C4343 1.401 1_556 S
C4340 H4325 0.960 . S
C4340 H4326 0.960 . S
C4340 H4327 0.960 . S
C4340 C4339 1.524 . S
C4341 C4338 1.403 . S
C4341 C4342 1.392 1_556 S
C4341 C4345 1.495 1_556 S
C4342 C4341 1.392 1_554 S
C4342 C4343 1.385 . S
C4342 C4344 1.478 . S
C4343 H4337 0.930 . S
C4343 C4339 1.401 1_554 S
C4343 C4342 1.385 . S
C4344 C4342 1.478 . S
C4344 C4346 1.381 . S
C4344 C4350 1.383 . S
C4345 C4341 1.495 1_554 S
C4345 H4351 0.959 1_554 S
C4345 H4352 0.961 . S
C4345 H4353 0.960 . S
C4346 C4344 1.381 . S
C4346 C4347 1.394 . S
C4346 H4354 0.930 . S
C4347 C4346 1.394 . S
C4347 C4348 1.383 . S
C4347 H4355 0.929 . S
C4348 C4347 1.383 . S
C4348 C4349 1.377 . S
C4349 H4333 0.930 . S
C4349 C4348 1.377 . S
C4349 C4350 1.379 . S
C4350 H4334 0.931 . S
C4350 C4344 1.383 . S
C4350 C4349 1.379 . S
H4351 C4345 0.959 1_556 S
H4352 C4345 0.961 . S
H4353 C4345 0.960 . S
H4354 C4346 0.930 . S
H4355 C4347 0.929 . S
H4356 C4364 0.929 . S
H4357 C4366 0.930 . S
H4358 C4368 0.930 . S
H4359 C4371 0.929 . S
H4360 C4374 0.930 . S
H4361 C4376 0.960 . S
H4362 C4376 0.960 . S
H4363 C4376 0.960 . S
C4364 H4356 0.929 . S
C4364 C4365 1.377 . S
C4364 C4366 1.384 . S
C4365 C4364 1.377 . S
C4365 C4371 1.390 . S
C4366 H4357 0.930 . S
C4366 C4364 1.384 . S
C4366 C4367 1.372 . S
C4367 C4366 1.372 . S
C4367 C4368 1.400 . S
C4367 C4372 1.490 . S
C4368 H4358 0.930 . S
C4368 C4367 1.400 . S
C4368 C4371 1.386 . S
H4369 C4385 0.930 . S
H4370 C4386 0.931 . S
C4371 H4359 0.929 . S
C4371 C4365 1.390 . S
C4371 C4368 1.386 . S
C4372 C4367 1.490 . S
C4372 C4374 1.395 . S
C4372 C4375 1.403 . S
H4373 C4379 0.930 . S
C4374 H4360 0.930 . S
C4374 C4372 1.395 . S
C4374 C4377 1.403 . S
C4375 C4372 1.403 . S
C4375 C4376 1.524 . S
C4375 C4379 1.400 . S
C4376 H4361 0.960 . S
C4376 H4362 0.960 . S
C4376 H4363 0.960 . S
C4376 C4375 1.524 . S
C4377 C4374 1.403 . S
C4377 C4378 1.392 . S
C4377 C4381 1.495 . S
C4378 C4377 1.392 . S
C4378 C4379 1.385 . S
C4378 C4380 1.478 . S
C4379 H4373 0.930 . S
C4379 C4375 1.400 . S
C4379 C4378 1.385 . S
C4380 C4378 1.478 . S
C4380 C4382 1.381 . S
C4380 C4386 1.383 . S
C4381 C4377 1.495 . S
C4381 H4387 0.959 . S
C4381 H4388 0.961 . S
C4381 H4389 0.960 . S
C4382 C4380 1.381 . S
C4382 C4383 1.394 . S
C4382 H4390 0.930 . S
C4383 C4382 1.394 . S
C4383 C4384 1.383 . S
C4383 H4391 0.929 . S
C4384 C4383 1.383 . S
C4384 C4385 1.377 . S
C4385 H4369 0.930 . S
C4385 C4384 1.377 . S
C4385 C4386 1.379 . S
C4386 H4370 0.931 . S
C4386 C4380 1.383 . S
C4386 C4385 1.379 . S
H4387 C4381 0.959 . S
H4388 C4381 0.961 . S
H4389 C4381 0.960 . S
H4390 C4382 0.930 . S
H4391 C4383 0.929 . S
H4392 C4400 0.929 . S
H4393 C4402 0.930 . S
H4394 C4404 0.930 . S
H4395 C4407 0.929 . S
H4396 C4410 0.930 . S
H4397 C4412 0.960 . S
H4398 C4412 0.960 . S
H4399 C4412 0.960 . S
C4400 H4392 0.929 . S
C4400 C4401 1.377 . S
C4400 C4402 1.384 . S
C4401 C4400 1.377 . S
C4401 C4407 1.390 . S
C4402 H4393 0.930 . S
C4402 C4400 1.384 . S
C4402 C4403 1.372 . S
C4403 C4402 1.372 . S
C4403 C4404 1.400 . S
C4403 C4408 1.490 . S
C4404 H4394 0.930 . S
C4404 C4403 1.400 . S
C4404 C4407 1.386 . S
H4405 C4421 0.930 . S
H4406 C4422 0.931 . S
C4407 H4395 0.929 . S
C4407 C4401 1.390 . S
C4407 C4404 1.386 . S
C4408 C4403 1.490 . S
C4408 C4410 1.395 . S
C4408 C4411 1.403 . S
H4409 C4415 0.930 . S
C4410 H4396 0.930 . S
C4410 C4408 1.395 . S
C4410 C4413 1.403 . S
C4411 C4408 1.403 . S
C4411 C4412 1.524 . S
C4411 C4415 1.400 . S
C4412 H4397 0.960 . S
C4412 H4398 0.960 . S
C4412 H4399 0.960 . S
C4412 C4411 1.524 . S
C4413 C4410 1.403 . S
C4413 C4414 1.392 . S
C4413 C4417 1.495 . S
C4414 C4413 1.392 . S
C4414 C4415 1.385 . S
C4414 C4416 1.478 . S
C4415 H4409 0.930 . S
C4415 C4411 1.400 . S
C4415 C4414 1.385 . S
C4416 C4414 1.478 . S
C4416 C4418 1.381 . S
C4416 C4422 1.383 . S
C4417 C4413 1.495 . S
C4417 H4423 0.959 . S
C4417 H4424 0.961 . S
C4417 H4425 0.960 . S
C4418 C4416 1.381 . S
C4418 C4419 1.394 . S
C4418 H4426 0.930 . S
C4419 C4418 1.394 . S
C4419 C4420 1.383 . S
C4419 H4427 0.929 . S
C4420 C4419 1.383 . S
C4420 C4421 1.377 . S
C4421 H4405 0.930 . S
C4421 C4420 1.377 . S
C4421 C4422 1.379 . S
C4422 H4406 0.931 . S
C4422 C4416 1.383 . S
C4422 C4421 1.379 . S
H4423 C4417 0.959 . S
H4424 C4417 0.961 . S
H4425 C4417 0.960 . S
H4426 C4418 0.930 . S
H4427 C4419 0.929 . S
H4428 C4436 0.929 . S
H4429 C4438 0.930 . S
H4430 C4440 0.930 . S
H4431 C4443 0.929 . S
H4432 C4446 0.930 . S
H4433 C4448 0.960 . S
H4434 C4448 0.960 . S
H4435 C4448 0.960 . S
C4436 H4428 0.929 . S
C4436 C4437 1.377 . S
C4436 C4438 1.384 . S
C4437 C4436 1.377 . S
C4437 C4443 1.390 . S
C4438 H4429 0.930 . S
C4438 C4436 1.384 . S
C4438 C4439 1.372 . S
C4439 C4438 1.372 . S
C4439 C4440 1.400 . S
C4439 C4444 1.490 . S
C4440 H4430 0.930 . S
C4440 C4439 1.400 . S
C4440 C4443 1.386 . S
H4441 C4457 0.930 . S
H4442 C4458 0.931 . S
C4443 H4431 0.929 . S
C4443 C4437 1.390 . S
C4443 C4440 1.386 . S
C4444 C4439 1.490 . S
C4444 C4446 1.395 . S
C4444 C4447 1.403 . S
H4445 C4451 0.930 . S
C4446 H4432 0.930 . S
C4446 C4444 1.395 . S
C4446 C4449 1.403 . S
C4447 C4444 1.403 . S
C4447 C4448 1.524 . S
C4447 C4451 1.400 . S
C4448 H4433 0.960 . S
C4448 H4434 0.960 . S
C4448 H4435 0.960 . S
C4448 C4447 1.524 . S
C4449 C4446 1.403 . S
C4449 C4450 1.392 . S
C4449 C4453 1.495 . S
C4450 C4449 1.392 . S
C4450 C4451 1.385 . S
C4450 C4452 1.478 . S
C4451 H4445 0.930 . S
C4451 C4447 1.400 . S
C4451 C4450 1.385 . S
C4452 C4450 1.478 . S
C4452 C4454 1.381 . S
C4452 C4458 1.383 . S
C4453 C4449 1.495 . S
C4453 H4459 0.959 . S
C4453 H4460 0.961 . S
C4453 H4461 0.960 . S
C4454 C4452 1.381 . S
C4454 C4455 1.394 . S
C4454 H4462 0.930 . S
C4455 C4454 1.394 . S
C4455 C4456 1.383 . S
C4455 H4463 0.929 . S
C4456 C4455 1.383 . S
C4456 C4457 1.377 . S
C4457 H4441 0.930 . S
C4457 C4456 1.377 . S
C4457 C4458 1.379 . S
C4458 H4442 0.931 . S
C4458 C4452 1.383 . S
C4458 C4457 1.379 . S
H4459 C4453 0.959 . S
H4460 C4453 0.961 . S
H4461 C4453 0.960 . S
H4462 C4454 0.930 . S
H4463 C4455 0.929 . S
C1233 C20 1.479 . S
C1252 C530 1.474 . S
C1269 C564 1.479 . S
C1288 C54 1.473 . S
C1305 C598 1.480 . S
C1324 C88 1.479 . S
C1341 C836 1.479 . S
C1360 C122 1.470 . S
C1377 C156 1.479 . S
C1396 C870 1.473 . S
C1413 C904 1.478 . S
C1432 C190 1.478 . S
C1449 C1142 1.478 . S
C1468 C224 1.478 . S
C1485 C258 1.480 . S
C1504 C1176 1.479 . S
C1521 C1210 1.479 . S
C1540 C292 1.474 . S
C1557 C632 1.477 . S
C1576 C326 1.473 . S
C1593 C666 1.479 . S
C1612 C360 1.475 . S
C1629 C700 1.480 . S
C1648 C394 1.479 . S
C1665 C938 1.477 . S
C1684 C428 1.475 . S
C1701 C972 1.479 . S
C1720 C462 1.481 . S
C1737 C496 1.479 . S
C1756 C1006 1.474 . S
C1773 C734 1.477 . S
C1792 C1040 1.470 . S
C1809 C1074 1.478 . S
C1828 C768 1.471 . S
C1845 C802 1.480 . S
C1864 C1108 1.478 . S
C1881 C1019 1.482 . S
C1900 C33 1.472 . S
C1917 C67 1.482 . S
C1936 C951 1.478 . S
C1953 C985 1.483 . S
C1972 C101 1.476 . S
C1989 C475 1.480 . S
C2008 C135 1.484 . S
C2025 C509 1.482 . S
C2044 C169 1.477 . S
C2061 C441 1.482 . S
C2080 C203 1.477 . S
C2097 C237 1.482 . S
C2116 C815 1.484 . S
C2133 C747 1.482 . S
C2152 C271 1.484 . S
C2169 C305 1.482 . S
C2188 C781 1.482 . S
C2205 C1087 1.481 . S
C2224 C339 1.473 . S
C2241 C373 1.483 . S
C2260 C1121 1.484 . S
C2277 C407 1.482 . S
C2296 C1053 1.483 . S
C2313 C883 1.480 . S
C2332 C543 1.479 . S
C2349 C917 1.481 . S
C2368 C577 1.482 . S
C2385 C611 1.482 . S
C2404 C849 1.474 . S
C2421 C645 1.480 . S
C2440 C1223 1.472 . S
C2457 C1155 1.482 . S
C2476 C679 1.482 . S
C2493 C1189 1.483 . S
C2512 C713 1.483 . S
C2529 C2 1.477 . S
C2548 C376 1.477 . S
C2565 C36 1.477 . S
C2584 C308 1.476 . S
C2601 C70 1.478 . S
C2620 C342 1.478 . S
C2637 C104 1.477 . S
C2656 C240 1.479 . S
C2673 C274 1.479 . S
C2692 C138 1.474 . S
C2709 C206 1.478 . S
C2728 C172 1.476 . S
C2745 C784 1.478 . S
C2764 C410 1.475 . S
C2781 C716 1.477 . S
C2800 C444 1.480 . S
C2817 C478 1.478 . S
C2836 C750 1.470 . S
C2853 C648 1.478 . S
C2872 C512 1.470 . S
C2889 C682 1.479 . S
C2908 C546 1.470 . S
C2925 C614 1.476 . S
C2944 C580 1.473 . S
C2961 C1192 1.478 . S
C2980 C818 1.476 . S
C2997 C852 1.477 . S
C3016 C1124 1.480 . S
C3033 C1158 1.477 . S
C3052 C886 1.479 . S
C3069 C1056 1.476 . S
C3088 C920 1.479 . S
C3105 C1090 1.479 . S
C3124 C954 1.470 . S
C3141 C1022 1.477 . S
C3160 C988 1.480 . S
C3177 C9 1.291 . S
C3196 C5 1.349 . S
C3213 C39 1.350 . S
C3232 C43 1.314 . S
C3249 C77 1.296 . S
C3268 C73 1.344 . S
C3285 C107 1.352 . S
C3304 C111 1.314 . S
C3321 C141 1.350 . S
C3340 C145 1.298 . S
C3357 C175 1.350 . S
C3376 C179 1.323 . S
C3393 C209 1.350 . S
C3412 C213 1.267 . S
C3429 C243 1.352 . S
C3448 C247 1.324 . S
C3465 C281 1.297 . S
C3484 C277 1.348 . S
C3501 C315 1.300 . S
C3520 C311 1.350 . S
C3537 C345 1.350 . S
C3556 C349 1.267 . S
C3573 C383 1.296 . S
C3592 C379 1.347 . S
C3609 C413 1.351 . S
C3628 C417 1.324 . S
C3645 C447 1.352 . S
C3664 C451 1.294 . S
C3681 C481 1.351 . S
C3700 C485 1.323 . S
C3717 C515 1.352 . S
C3736 C519 1.312 . S
C3753 C549 1.352 . S
C3772 C553 1.270 . S
C3789 C587 1.302 . S
C3808 C583 1.350 . S
C3825 C617 1.352 . S
C3844 C621 1.324 . S
C3861 C655 1.292 . S
C3880 C651 1.344 . S
C3897 C689 1.304 . S
C3916 C685 1.353 . S
C3933 C723 1.291 . S
C3952 C719 1.343 . S
C3969 C753 1.352 . S
C3988 C757 1.325 . S
C4005 C787 1.352 . S
C4024 C791 1.325 . S
C4041 C825 1.299 . S
C4060 C821 1.352 . S
C4077 C859 1.296 . S
C4096 C855 1.344 . S
C4113 C889 1.352 . S
C4132 C893 1.266 . S
C4149 C923 1.351 . S
C4168 C927 1.266 . S
C4185 C961 1.301 . S
C4204 C957 1.344 . S
C4221 C991 1.352 . S
C4240 C995 1.273 . S
C4257 C1029 1.293 . S
C4276 C1025 1.346 . S
C4293 C1063 1.294 . S
C4312 C1059 1.345 . S
C4329 C1097 1.290 . S
C4348 C1093 1.344 . S
C4365 C1127 1.352 . S
C4384 C1131 1.323 . S
C4401 C1165 1.304 . S
C4420 C1161 1.353 . S
C4437 C1195 1.351 . S
C4456 C1199 1.295 . S
