# Generated by pormake.
# Topology sof, (5)-cn, num edge types: 1
# Building blocks:
#     Node 0, Type 0, BuildingBlock: XOMCOT_clean_sbu_1, # of connection points: 5
#     Node 1, Type 0, BuildingBlock: XOMCOT_clean_sbu_1, # of connection points: 5
#     Node 2, Type 0, BuildingBlock: XOMCOT_clean_sbu_1, # of connection points: 5
#     Node 3, Type 0, BuildingBlock: XOMCOT_clean_sbu_1, # of connection points: 5
#     Node 4, Type 0, BuildingBlock: XOMCOT_clean_sbu_1, # of connection points: 5
#     Node 5, Type 0, BuildingBlock: XOMCOT_clean_sbu_1, # of connection points: 5
#     Node 6, Type 0, BuildingBlock: XOMCOT_clean_sbu_1, # of connection points: 5
#     Node 7, Type 0, BuildingBlock: XOMCOT_clean_sbu_1, # of connection points: 5
#     Edge 8, Type (0, 0), BuildingBlock: OJICUG_clean_linker_0, # of connection points: 2
#     Edge 9, Type (0, 0), BuildingBlock: OJICUG_clean_linker_0, # of connection points: 2
#     Edge 10, Type (0, 0), BuildingBlock: OJICUG_clean_linker_0, # of connection points: 2
#     Edge 11, Type (0, 0), BuildingBlock: OJICUG_clean_linker_0, # of connection points: 2
#     Edge 12, Type (0, 0), BuildingBlock: OJICUG_clean_linker_0, # of connection points: 2
#     Edge 13, Type (0, 0), BuildingBlock: OJICUG_clean_linker_0, # of connection points: 2
#     Edge 14, Type (0, 0), BuildingBlock: OJICUG_clean_linker_0, # of connection points: 2
#     Edge 15, Type (0, 0), BuildingBlock: OJICUG_clean_linker_0, # of connection points: 2
#     Edge 16, Type (0, 0), BuildingBlock: OJICUG_clean_linker_0, # of connection points: 2
#     Edge 17, Type (0, 0), BuildingBlock: OJICUG_clean_linker_0, # of connection points: 2
#     Edge 18, Type (0, 0), BuildingBlock: OJICUG_clean_linker_0, # of connection points: 2
#     Edge 19, Type (0, 0), BuildingBlock: OJICUG_clean_linker_0, # of connection points: 2
#     Edge 20, Type (0, 0), BuildingBlock: OJICUG_clean_linker_0, # of connection points: 2
#     Edge 21, Type (0, 0), BuildingBlock: OJICUG_clean_linker_0, # of connection points: 2
#     Edge 22, Type (0, 0), BuildingBlock: OJICUG_clean_linker_0, # of connection points: 2
#     Edge 23, Type (0, 0), BuildingBlock: OJICUG_clean_linker_0, # of connection points: 2
#     Edge 24, Type (0, 0), BuildingBlock: OJICUG_clean_linker_0, # of connection points: 2
#     Edge 25, Type (0, 0), BuildingBlock: OJICUG_clean_linker_0, # of connection points: 2
#     Edge 26, Type (0, 0), BuildingBlock: OJICUG_clean_linker_0, # of connection points: 2
#     Edge 27, Type (0, 0), BuildingBlock: OJICUG_clean_linker_0, # of connection points: 2
# Relax obj value: 0.155
# Max RMSD: 0.159
# Mean RMSD: 0.159
data_MOF--net-sof--node1-XOMCOT_clean_sbu_1--edge1-OJICUG_clean_linker_0
_symmetry_space_group_name_H-M    P1
_symmetry_Int_Tables_number       1
_symmetry_cell_setting            triclinic
loop_
_symmetry_equiv_pos_as_xyz
'x, y, z'
_cell_length_a     43.988463
_cell_length_b     13.410985
_cell_length_c     35.452637
_cell_angle_alpha  89.991326
_cell_angle_beta   89.991814
_cell_angle_gamma 89.975572
loop_
_atom_site_label
_atom_site_type_symbol
_atom_site_fract_x
_atom_site_fract_y
_atom_site_fract_z
_atom_type_partial_charge
C0 C 0.10946 0.23154 0.09168 0.0
C1 C 0.10927 0.33412 0.08914 0.0
N2 N 0.08514 0.36874 0.10861 0.0
N3 N 0.08567 0.2019 0.11287 0.0
C4 C 0.07102 0.2869 0.12208 0.0
H5 H 0.12629 0.18208 0.07968 0.0
Co6 Co 0.07558 0.07368 0.12859 0.0
C7 C 0.06172 0.10652 0.21075 0.0
O8 O 0.07464 0.0214 0.21979 0.0
N9 N 0.06445 0.94342 0.14356 0.0
C10 C 0.03617 0.8149 0.16267 0.0
C11 C 0.03908 0.91717 0.16267 0.0
C12 C 0.07576 0.85558 0.13105 0.0
N13 N 0.05926 0.77651 0.14248 0.0
O14 O 0.03728 0.08464 0.10394 0.0
H15 H 0.02281 0.96921 0.1743 0.0
H16 H 0.09497 0.84851 0.11251 0.0
O17 O 0.05992 0.13167 0.176 0.0
C18 C 0.04164 0.05278 0.07039 0.0
O19 O 0.06947 0.02892 0.06036 0.0
N20 N 0.11488 0.05876 0.14817 0.0
C21 C 0.17724 0.03118 0.15875 0.0
C22 C 0.16054 0.09292 0.18326 0.0
C23 C 0.12922 0.1067 0.17722 0.0
C24 C 0.13123 1.00289 0.12352 0.0
C25 C 0.16171 0.98356 0.12935 0.0
H26 H 0.11725 0.16023 0.19439 0.0
H27 H 0.12083 0.9773 0.09774 0.0
H28 H 0.05029 0.2887 0.13837 0.0
H29 H 0.1262 0.37961 0.07521 0.0
H30 H 0.01767 0.77264 0.17489 0.0
H31 H 0.17176 0.13421 0.2055 0.0
H32 H 0.17324 0.93511 0.10954 0.0
C33 C 0.37526 0.79365 0.09175 0.0
C34 C 0.37571 0.69113 0.08911 0.0
N35 N 0.40076 0.65702 0.1069 0.0
N36 N 0.39977 0.82408 0.11143 0.0
C37 C 0.41513 0.7395 0.11948 0.0
H38 H 0.35771 0.84232 0.08095 0.0
Co39 Co 0.41013 0.9522 0.12742 0.0
C40 C 0.42696 0.91408 0.2094 0.0
O41 O 0.41861 1.003 0.22099 0.0
N42 N 0.42156 0.08176 0.14268 0.0
C43 C 0.45108 0.20987 0.15903 0.0
C44 C 0.44802 0.10761 0.15937 0.0
C45 C 0.40949 0.16982 0.13153 0.0
N46 N 0.42682 0.24876 0.14115 0.0
O47 O 0.44839 0.94044 0.10265 0.0
H48 H 0.46494 0.05519 0.16922 0.0
H49 H 0.38912 0.1769 0.11504 0.0
O50 O 0.42528 0.89196 0.17437 0.0
C51 C 0.44399 0.97243 0.06912 0.0
O52 O 0.41616 0.99655 0.05919 0.0
N53 N 0.37102 0.96824 0.1472 0.0
C54 C 0.3088 0.99718 0.15819 0.0
C55 C 0.32583 0.93987 0.18387 0.0
C56 C 0.35713 0.92572 0.17773 0.0
C57 C 0.35447 0.02109 0.1218 0.0
C58 C 0.324 0.04071 0.12763 0.0
H59 H 0.36941 0.87628 0.19623 0.0
H60 H 0.36486 0.04518 0.09577 0.0
H61 H 0.43639 0.73861 0.13477 0.0
H62 H 0.35824 0.64541 0.07639 0.0
H63 H 0.47047 0.25162 0.16915 0.0
H64 H 0.31491 0.90238 0.20728 0.0
H65 H 0.31226 0.08647 0.10712 0.0
C66 C 0.11003 0.29659 0.44203 0.0
C67 C 0.10958 0.19407 0.44465 0.0
N68 N 0.08455 0.16004 0.42682 0.0
N69 N 0.08554 0.32712 0.4223 0.0
C70 C 0.07019 0.24257 0.41423 0.0
H71 H 0.12758 0.3452 0.45283 0.0
Co72 Co 0.07523 0.45525 0.40619 0.0
C73 C 0.05838 0.41634 0.3242 0.0
O74 O 0.06655 0.5052 0.31236 0.0
N75 N 0.06387 0.58483 0.3908 0.0
C76 C 0.03443 0.7131 0.37431 0.0
C77 C 0.03746 0.61083 0.37399 0.0
C78 C 0.07592 0.67282 0.40199 0.0
N79 N 0.05864 0.75188 0.39229 0.0
O80 O 0.03692 0.44378 0.43085 0.0
H81 H 0.02055 0.55851 0.36408 0.0
H82 H 0.09624 0.67976 0.4186 0.0
O83 O 0.06017 0.3948 0.35927 0.0
C84 C 0.04126 0.47597 0.46435 0.0
O85 O 0.06906 0.50016 0.47434 0.0
N86 N 0.11438 0.47104 0.3865 0.0
C87 C 0.17662 0.49954 0.37562 0.0
C88 C 0.15959 0.44242 0.3499 0.0
C89 C 0.12828 0.42851 0.35597 0.0
C90 C 0.13091 0.52378 0.41192 0.0
C91 C 0.1614 0.54318 0.40615 0.0
H92 H 0.11599 0.37926 0.33743 0.0
H93 H 0.1205 0.54796 0.43793 0.0
H94 H 0.04895 0.24175 0.39888 0.0
H95 H 0.12704 0.14829 0.45739 0.0
H96 H 0.01506 0.75495 0.3641 0.0
H97 H 0.17053 0.4049 0.32651 0.0
H98 H 0.17314 0.58883 0.42668 0.0
C99 C 0.37588 0.73189 0.4425 0.0
C100 C 0.37607 0.83446 0.44505 0.0
N101 N 0.40026 0.86902 0.42567 0.0
N102 N 0.39971 0.70219 0.42139 0.0
C103 C 0.41439 0.78713 0.41224 0.0
H104 H 0.35902 0.68249 0.45445 0.0
Co105 Co 0.40983 0.57394 0.40575 0.0
C106 C 0.42382 0.60616 0.32361 0.0
O107 O 0.41097 0.52089 0.3147 0.0
N108 N 0.421 0.44366 0.39087 0.0
C109 C 0.44945 0.31517 0.37206 0.0
C110 C 0.44651 0.41743 0.37203 0.0
C111 C 0.40961 0.35581 0.40323 0.0
N112 N 0.42622 0.27676 0.39199 0.0
O113 O 0.4481 0.58484 0.4305 0.0
H114 H 0.46284 0.4695 0.36058 0.0
H115 H 0.39026 0.3487 0.42154 0.0
O116 O 0.42556 0.63173 0.35833 0.0
C117 C 0.44368 0.55308 0.46406 0.0
O118 O 0.41583 0.52944 0.47405 0.0
N119 N 0.37056 0.5591 0.38607 0.0
C120 C 0.3082 0.5321 0.37536 0.0
C121 C 0.32498 0.59367 0.35087 0.0
C122 C 0.3563 0.60716 0.35698 0.0
C123 C 0.35415 0.50336 0.41069 0.0
C124 C 0.32366 0.48432 0.4048 0.0
H125 H 0.36832 0.6606 0.33984 0.0
H126 H 0.3645 0.47767 0.43649 0.0
H127 H 0.43517 0.78885 0.39602 0.0
H128 H 0.35911 0.87998 0.45893 0.0
H129 H 0.46805 0.27292 0.36005 0.0
H130 H 0.31382 0.63508 0.32861 0.0
H131 H 0.31207 0.43599 0.42458 0.0
C132 C 0.87516 0.7938 0.94383 0.0
C133 C 0.87468 0.69125 0.94599 0.0
N134 N 0.89924 0.65536 0.92767 0.0
N135 N 0.89969 0.82249 0.9238 0.0
C136 C 0.91428 0.73673 0.91529 0.0
H137 H 0.85817 0.84382 0.95512 0.0
Co138 Co 0.90996 0.95047 0.90744 0.0
C139 C 0.92494 0.91343 0.82547 0.0
O140 O 0.91388 1.00037 0.81522 0.0
N141 N 0.92116 0.08054 0.89181 0.0
C142 C 0.94924 0.2097 0.87275 0.0
C143 C 0.94685 0.10716 0.87349 0.0
C144 C 0.90904 0.16854 0.90299 0.0
N145 N 0.92528 0.24811 0.89137 0.0
O146 O 0.94826 0.93971 0.9321 0.0
H147 H 0.96356 0.05529 0.86271 0.0
H148 H 0.88997 0.17542 0.92177 0.0
O149 O 0.92538 0.88986 0.86043 0.0
C150 C 0.94391 0.97226 0.96556 0.0
O151 O 0.91611 0.9967 0.9755 0.0
N152 N 0.87072 0.96549 0.88772 0.0
C153 C 0.80851 0.99472 0.87664 0.0
C154 C 0.82531 0.93421 0.8518 0.0
C155 C 0.85657 0.91969 0.85805 0.0
C156 C 0.8543 0.02062 0.91255 0.0
C157 C 0.82387 0.04054 0.90657 0.0
H158 H 0.86861 0.86737 0.84045 0.0
H159 H 0.86467 0.04568 0.93843 0.0
H160 H 0.93508 0.73399 0.89911 0.0
H161 H 0.85728 0.64672 0.95947 0.0
H162 H 0.96757 0.25223 0.86028 0.0
H163 H 0.8142 0.8945 0.82906 0.0
H164 H 0.81225 0.08819 0.92657 0.0
C165 C 0.60951 0.23258 0.94257 0.0
C166 C 0.60931 0.33514 0.94511 0.0
N167 N 0.58509 0.36975 0.9258 0.0
N168 N 0.58565 0.20291 0.92152 0.0
C169 C 0.57095 0.28788 0.91241 0.0
H170 H 0.62638 0.18317 0.95452 0.0
Co171 Co 0.57545 0.07465 0.90598 0.0
C172 C 0.56145 0.10644 0.8238 0.0
O173 O 0.57409 0.02076 0.81493 0.0
N174 N 0.56423 0.94445 0.89118 0.0
C175 C 0.53566 0.8161 0.8726 0.0
C176 C 0.53861 0.91835 0.87257 0.0
C177 C 0.57569 0.85655 0.9034 0.0
N178 N 0.55901 0.77758 0.89231 0.0
O179 O 0.53717 0.0861 0.93065 0.0
H180 H 0.52223 0.97051 0.86126 0.0
H181 H 0.59518 0.84935 0.92149 0.0
O182 O 0.55985 0.13234 0.85849 0.0
C183 C 0.54158 0.05458 0.96424 0.0
O184 O 0.56944 0.03103 0.97426 0.0
N185 N 0.61474 0.0592 0.88641 0.0
C186 C 0.67706 0.03097 0.87594 0.0
C187 C 0.66039 0.09187 0.85111 0.0
C188 C 0.62908 0.10604 0.8571 0.0
C189 C 0.63105 1.00402 0.91132 0.0
C190 C 0.66154 0.9845 0.90561 0.0
H191 H 0.61713 0.15899 0.83965 0.0
H192 H 0.62059 0.97898 0.93715 0.0
H193 H 0.55014 0.2896 0.89625 0.0
H194 H 0.62628 0.38062 0.95896 0.0
H195 H 0.51699 0.77393 0.86076 0.0
H196 H 0.67163 0.13223 0.82863 0.0
H197 H 0.67308 0.9368 0.92567 0.0
C198 C 0.87462 0.73592 0.5925 0.0
C199 C 0.87527 0.83832 0.58953 0.0
N200 N 0.90059 0.87211 0.60678 0.0
N201 N 0.89926 0.70527 0.61188 0.0
C202 C 0.91489 0.78953 0.61945 0.0
H203 H 0.8569 0.68743 0.58205 0.0
Co204 Co 0.90964 0.57699 0.62742 0.0
C205 C 0.92472 0.6096 0.70956 0.0
O206 O 0.91376 0.52206 0.71916 0.0
N207 N 0.92115 0.44704 0.64219 0.0
C208 C 0.95088 0.31941 0.65854 0.0
C209 C 0.9475 0.42151 0.65924 0.0
C210 C 0.90948 0.35897 0.6305 0.0
N211 N 0.92694 0.28031 0.64011 0.0
O212 O 0.94788 0.58913 0.60265 0.0
H213 H 0.96414 0.47411 0.66964 0.0
H214 H 0.8893 0.35165 0.61368 0.0
O215 O 0.92505 0.63521 0.67477 0.0
C216 C 0.9435 0.55765 0.56906 0.0
O217 O 0.91567 0.53377 0.55904 0.0
N218 N 0.87046 0.56074 0.64717 0.0
C219 C 0.80819 0.53156 0.65789 0.0
C220 C 0.82495 0.59137 0.68301 0.0
C221 C 0.85625 0.60576 0.67697 0.0
C222 C 0.8541 0.50631 0.62208 0.0
C223 C 0.82367 0.4862 0.62792 0.0
H224 H 0.86828 0.65752 0.69481 0.0
H225 H 0.86453 0.48189 0.59614 0.0
H226 H 0.93641 0.78996 0.63415 0.0
H227 H 0.85779 0.88421 0.57689 0.0
H228 H 0.97027 0.27799 0.66892 0.0
H229 H 0.8138 0.63068 0.70582 0.0
H230 H 0.81217 0.43879 0.60776 0.0
C231 C 0.61005 0.29256 0.5915 0.0
C232 C 0.60958 0.19005 0.58886 0.0
N233 N 0.58455 0.15604 0.6067 0.0
N234 N 0.58557 0.32308 0.61124 0.0
C235 C 0.57021 0.23856 0.61933 0.0
H236 H 0.62759 0.34118 0.58067 0.0
Co237 Co 0.57522 0.45123 0.62721 0.0
C238 C 0.55864 0.41353 0.70924 0.0
O239 O 0.56719 0.50234 0.72069 0.0
N240 N 0.5638 0.58087 0.64247 0.0
C241 C 0.53429 0.70899 0.65892 0.0
C242 C 0.53737 0.60674 0.65927 0.0
C243 C 0.57581 0.66891 0.63125 0.0
N244 N 0.55849 0.74787 0.64094 0.0
O245 O 0.53693 0.43953 0.60252 0.0
H246 H 0.5205 0.55434 0.66921 0.0
H247 H 0.59614 0.676 0.61467 0.0
O248 O 0.56013 0.39117 0.67422 0.0
C249 C 0.5413 0.47147 0.56898 0.0
O250 O 0.56912 0.4956 0.55901 0.0
N251 N 0.61437 0.46719 0.6469 0.0
C252 C 0.67661 0.49621 0.65771 0.0
C253 C 0.65966 0.4385 0.68335 0.0
C254 C 0.62835 0.42435 0.67731 0.0
C255 C 0.63085 0.52026 0.62151 0.0
C256 C 0.6613 0.54005 0.62729 0.0
H257 H 0.61613 0.37465 0.69577 0.0
H258 H 0.62041 0.54443 0.59552 0.0
H259 H 0.54896 0.23776 0.63466 0.0
H260 H 0.62703 0.14426 0.57608 0.0
H261 H 0.51491 0.75076 0.66914 0.0
H262 H 0.67065 0.40075 0.70665 0.0
H263 H 0.67294 0.58622 0.60683 0.0
C264 C 0.22725 0.02143 0.19446 0.0
C265 C 0.21099 0.02392 0.16024 0.0
H266 H 0.27118 1.01167 0.22096 0.0
C267 C 0.22727 0.01772 0.12624 0.0
H268 H 0.2154 0.02583 0.22118 0.0
C269 C 0.25849 1.0053 0.12616 0.0
C270 C 0.27506 1.00432 0.16002 0.0
H271 H 0.21598 0.0226 0.09917 0.0
H272 H 0.26956 0.99641 0.09909 0.0
C273 C 0.2591 1.01195 0.19435 0.0
C274 C 0.25812 0.51919 0.40776 0.0
C275 C 0.27445 0.52521 0.37379 0.0
H276 H 0.21577 0.49837 0.43481 0.0
C277 C 0.25824 0.52292 0.33954 0.0
H278 H 0.26937 0.52392 0.43485 0.0
C279 C 0.22638 0.51382 0.33958 0.0
C280 C 0.21036 0.50636 0.37388 0.0
H281 H 0.27013 0.5272 0.31284 0.0
H282 H 0.21435 0.51367 0.31294 0.0
C283 C 0.22689 0.50715 0.40777 0.0
C284 C 0.75827 1.00656 0.90867 0.0
C285 C 0.7748 1.00263 0.87481 0.0
H286 H 0.71577 0.02641 0.93551 0.0
C287 C 0.75883 1.00808 0.84043 0.0
H288 H 0.76936 0.9995 0.9358 0.0
C289 C 0.727 0.01823 0.84026 0.0
C290 C 0.71079 0.02346 0.87447 0.0
H291 H 0.77089 1.00551 0.81382 0.0
H292 H 0.71513 0.02089 0.81353 0.0
C293 C 0.72707 0.0195 0.9085 0.0
C294 C 0.72686 0.50606 0.62554 0.0
C295 C 0.71036 0.5036 0.65945 0.0
H296 H 0.76924 0.52514 0.59846 0.0
C297 C 0.72641 0.51002 0.69375 0.0
H298 H 0.71576 0.49802 0.59846 0.0
C299 C 0.75826 0.51974 0.69378 0.0
C300 C 0.77444 0.52383 0.65951 0.0
H301 H 0.71442 0.50857 0.72041 0.0
H302 H 0.77016 0.5231 0.72048 0.0
C303 C 0.75806 0.5189 0.62556 0.0
C304 C 0.9861 0.04808 0.05426 0.0
C305 C 0.01648 0.03446 0.04358 0.0
H306 H 0.93945 0.03797 0.03811 0.0
C307 C 0.02289 0.99864 1.00702 0.0
H308 H 0.98041 0.07487 0.08221 0.0
C309 C -0.00055 0.97688 0.9817 0.0
C310 C 0.96908 0.99054 0.99238 0.0
H311 H 0.04611 0.987 0.99785 0.0
H312 H 0.00514 0.9501 0.95375 0.0
C313 C 0.96266 0.02634 0.02894 0.0
C314 C 0.46264 0.02605 1.00564 0.0
C315 C 0.46913 0.99095 0.04228 0.0
H316 H 0.4803 0.0745 0.9523 0.0
C317 C 0.49953 0.97855 0.05304 0.0
H318 H 0.4394 0.03673 0.99641 0.0
C319 C 0.52293 1.00083 0.02772 0.0
C320 C 0.51644 0.03594 0.99108 0.0
H321 H 0.50527 0.95239 0.08106 0.0
H322 H 0.54617 0.99016 0.03695 0.0
C323 C 0.48604 0.04832 0.98031 0.0
C324 C 0.9857 0.48178 0.48034 0.0
C325 C 0.01608 0.4945 0.49114 0.0
H326 H 0.93903 0.49301 0.49637 0.0
C327 C 0.02249 0.52982 0.52776 0.0
H328 H 0.98001 0.45544 0.45234 0.0
C329 C -0.00095 0.55196 0.55303 0.0
C330 C 0.96867 0.53924 0.54225 0.0
H331 H 0.04571 0.54074 0.53701 0.0
H332 H 0.00474 0.57828 0.58104 0.0
C333 C 0.96225 0.50395 0.50562 0.0
C334 C 0.46235 0.49918 0.52752 0.0
C335 C 0.46882 0.53447 0.4909 0.0
H336 H 0.48003 0.45079 0.58086 0.0
C337 C 0.49921 0.54718 0.48017 0.0
H338 H 0.43911 0.48826 0.53673 0.0
C339 C 0.52262 0.52508 0.5055 0.0
C340 C 0.51615 0.48984 0.54213 0.0
H341 H 0.50494 0.57351 0.45217 0.0
H342 H 0.54585 0.53603 0.49629 0.0
C343 C 0.48576 0.47708 0.55286 0.0
C344 C 0.06271 0.23637 0.30584 0.0
C345 C 0.05444 0.33449 0.29631 0.0
H346 H 0.07118 0.08767 0.28674 0.0
C347 C 0.04547 0.3545 0.25903 0.0
H348 H 0.07052 0.21882 0.33395 0.0
C349 C 0.04581 0.27877 0.2317 0.0
C350 C 0.05581 0.18194 0.24077 0.0
H351 H 0.03891 0.42924 0.25075 0.0
H352 H 0.03922 0.29698 0.20318 0.0
C353 C 0.06336 0.16112 0.27851 0.0
C354 C 0.42257 0.65945 0.25568 0.0
C355 C 0.42973 0.68121 0.29345 0.0
H356 H 0.41567 0.71588 0.19999 0.0
C357 C 0.43932 0.77854 0.30239 0.0
H358 H 0.41508 0.58557 0.24756 0.0
C359 C 0.43963 0.85377 0.27486 0.0
C360 C 0.43102 0.8328 0.23752 0.0
H361 H 0.44559 0.7975 0.33094 0.0
H362 H 0.44585 0.92888 0.28302 0.0
C363 C 0.42319 0.73422 0.22815 0.0
C364 C 0.93164 0.86151 0.75786 0.0
C365 C 0.93018 0.83542 0.79622 0.0
H366 H 0.93146 0.81077 0.70073 0.0
C367 C 0.93034 0.73347 0.80578 0.0
H368 H 0.93159 0.93909 0.74933 0.0
C369 C 0.93014 0.65982 0.7777 0.0
C370 C 0.93003 0.68617 0.73931 0.0
H371 H 0.92902 0.71006 0.83487 0.0
H372 H 0.9289 0.5823 0.78613 0.0
C373 C 0.9317 0.78783 0.72985 0.0
C374 C 0.5626 0.15913 0.75578 0.0
C375 C 0.55563 0.18141 0.79357 0.0
H376 H 0.56941 0.21493 0.69998 0.0
C377 C 0.54633 0.27908 0.80246 0.0
H378 H 0.56988 0.08497 0.7477 0.0
C379 C 0.54609 0.3541 0.77484 0.0
C380 C 0.5545 0.33257 0.73747 0.0
H381 H 0.54022 0.29847 0.83102 0.0
H382 H 0.54009 0.42945 0.78296 0.0
C383 C 0.56206 0.2337 0.72817 0.0
C384 C 0.05534 0.59717 0.15772 0.0
C385 C 0.0646 0.67331 0.13311 0.0
H386 H 0.05509 0.44126 0.1696 0.0
C387 C 0.07986 0.64718 0.09963 0.0
H388 H 0.04388 0.6148 0.1839 0.0
C389 C 0.08625 0.54745 0.09136 0.0
C390 C 0.07745 0.47138 0.11628 0.0
H391 H 0.08674 0.70364 0.07958 0.0
H392 H 0.09795 0.52992 0.06534 0.0
C393 C 0.06173 0.49747 0.14943 0.0
C394 C 0.40333 0.37744 0.10022 0.0
C395 C 0.42143 0.35196 0.13153 0.0
H396 H 0.38305 0.49358 0.06749 0.0
C397 C 0.43385 0.42902 0.15347 0.0
H398 H 0.39406 0.32052 0.08195 0.0
C399 C 0.4277 0.52882 0.1449 0.0
C400 C 0.40882 0.55427 0.11426 0.0
H401 H 0.44774 0.41225 0.17785 0.0
H402 H 0.43724 0.58549 0.16299 0.0
C403 C 0.39707 0.47713 0.09177 0.0
C404 C 0.08827 0.98007 0.44185 0.0
C405 C 0.07653 0.05731 0.41938 0.0
H406 H 0.09131 0.82342 0.4516 0.0
C407 C 0.05771 0.03198 0.38868 0.0
H408 H 0.10225 0.99641 0.46618 0.0
C409 C 0.05161 0.93221 0.38004 0.0
C410 C 0.06401 0.85505 0.40197 0.0
H411 H 0.04818 0.08874 0.3706 0.0
H412 H 0.03776 0.91556 0.35562 0.0
C413 C 0.08205 0.8804 0.43333 0.0
C414 C 0.39901 0.04773 0.4429 0.0
C415 C 0.40798 0.97165 0.41807 0.0
H416 H 0.39839 0.20393 0.45463 0.0
C417 C 0.4239 0.99774 0.38507 0.0
H418 H 0.38715 0.03022 0.46881 0.0
C419 C 0.43031 0.09743 0.37683 0.0
C420 C 0.42086 0.17357 0.40132 0.0
H421 H 0.43071 0.94154 0.36498 0.0
H422 H 0.44193 0.11507 0.35076 0.0
C423 C 0.40541 0.14745 0.43467 0.0
C424 C 0.93601 0.52197 0.91096 0.0
C425 C 0.90608 0.55242 0.91909 0.0
H426 H 0.96569 0.40148 0.89611 0.0
C427 C 0.8827 0.48124 0.91726 0.0
H428 H 0.95461 0.57457 0.91234 0.0
C429 C 0.88902 0.38233 0.90774 0.0
C430 C 0.91893 0.35144 0.89994 0.0
H431 H 0.85931 0.50219 0.92241 0.0
H432 H 0.87028 0.33026 0.90603 0.0
C433 C 0.94236 0.42266 0.90151 0.0
C434 C 0.58001 0.64821 0.93482 0.0
C435 C 0.5644 0.67438 0.9016 0.0
H436 H 0.59842 0.53094 0.96883 0.0
C437 C 0.55481 0.59827 0.8772 0.0
H438 H 0.58715 0.70467 0.95472 0.0
C439 C 0.56124 0.49856 0.88539 0.0
C440 C 0.57733 0.47241 0.91826 0.0
H441 H 0.54305 0.61596 0.85123 0.0
H442 H 0.55431 0.4424 0.86536 0.0
C443 C 0.58644 0.54847 0.94301 0.0
C444 C 0.92832 1.00046 0.64369 0.0
C445 C 0.90898 0.9748 0.61357 0.0
H446 H 0.94867 0.117 0.67622 0.0
C447 C 0.89699 0.05173 0.59115 0.0
H448 H 0.93815 0.94404 0.66158 0.0
C449 C 0.90336 0.15146 0.59935 0.0
C450 C 0.92175 0.17712 0.63038 0.0
H451 H 0.88266 0.03513 0.56717 0.0
H452 H 0.89385 0.20818 0.58117 0.0
C453 C 0.93451 0.10022 0.65209 0.0
C454 C 0.58189 0.8765 0.59993 0.0
C455 C 0.56385 0.85106 0.6313 0.0
H456 H 0.60214 0.99261 0.56717 0.0
C457 C 0.55149 0.92813 0.65329 0.0
H458 H 0.59112 0.81959 0.58161 0.0
C459 C 0.55764 0.02791 0.64473 0.0
C460 C 0.57647 0.05333 0.61405 0.0
H461 H 0.53764 0.91138 0.67772 0.0
H462 H 0.54815 0.0846 0.66287 0.0
C463 C 0.58816 0.97618 0.59149 0.0
loop_
_geom_bond_atom_site_label_1
_geom_bond_atom_site_label_2
_geom_bond_distance
_geom_bond_site_symmetry_2
_ccdc_geom_bond_type
C0 C1 1.351 . S
C0 N3 1.368 . S
C0 H5 0.931 . S
C1 C0 1.351 . S
C1 N2 1.373 . S
C1 H29 0.930 . S
N2 C1 1.373 . S
N2 C4 1.340 . S
N3 C0 1.368 . S
N3 C4 1.321 . S
N3 Co6 2.135 . S
C4 N2 1.340 . S
C4 N3 1.321 . S
C4 H28 0.930 . S
H5 C0 0.931 . S
Co6 N3 2.135 . S
Co6 N9 2.121 1_545 S
Co6 O14 2.055 . S
Co6 O17 2.039 . S
Co6 N20 2.140 . S
C7 O8 1.227 . S
C7 O17 1.265 . S
O8 C7 1.227 . S
N9 Co6 2.121 1_565 S
N9 C11 1.375 . S
N9 C12 1.313 . S
C10 C11 1.338 . S
C10 N13 1.377 . S
C10 H30 0.930 . S
C11 N9 1.375 . S
C11 C10 1.338 . S
C11 H15 0.931 . S
C12 N9 1.313 . S
C12 N13 1.344 . S
C12 H16 0.930 . S
N13 C10 1.377 . S
N13 C12 1.344 . S
O14 Co6 2.055 . S
O14 C18 1.253 . S
H15 C11 0.931 . S
H16 C12 0.930 . S
O17 Co6 2.039 . S
O17 C7 1.265 . S
C18 O14 1.253 . S
C18 O19 1.227 . S
O19 C18 1.227 . S
N20 Co6 2.140 . S
N20 C23 1.346 . S
N20 C24 1.345 . S
C21 C22 1.387 . S
C21 C25 1.391 1_545 S
C22 C21 1.387 . S
C22 C23 1.369 . S
C22 H31 0.929 . S
C23 N20 1.346 . S
C23 C22 1.369 . S
C23 H26 0.928 . S
C24 N20 1.345 . S
C24 C25 1.371 1_545 S
C24 H27 0.931 1_545 S
C25 C21 1.391 1_565 S
C25 C24 1.371 1_565 S
C25 H32 0.930 . S
H26 C23 0.928 . S
H27 C24 0.931 1_565 S
H28 C4 0.930 . S
H29 C1 0.930 . S
H30 C10 0.930 . S
H31 C22 0.929 . S
H32 C25 0.930 . S
C33 C34 1.351 . S
C33 N36 1.368 . S
C33 H38 0.931 . S
C34 C33 1.351 . S
C34 N35 1.373 . S
C34 H62 0.930 . S
N35 C34 1.373 . S
N35 C37 1.340 . S
N36 C33 1.368 . S
N36 C37 1.321 . S
N36 Co39 2.135 . S
C37 N35 1.340 . S
C37 N36 1.321 . S
C37 H61 0.930 . S
H38 C33 0.931 . S
Co39 N36 2.135 . S
Co39 N42 2.121 1_565 S
Co39 O47 2.055 . S
Co39 O50 2.039 . S
Co39 N53 2.140 . S
C40 O41 1.227 . S
C40 O50 1.265 . S
O41 C40 1.227 . S
N42 Co39 2.121 1_545 S
N42 C44 1.375 . S
N42 C45 1.313 . S
C43 C44 1.338 . S
C43 N46 1.377 . S
C43 H63 0.930 . S
C44 N42 1.375 . S
C44 C43 1.338 . S
C44 H48 0.931 . S
C45 N42 1.313 . S
C45 N46 1.344 . S
C45 H49 0.930 . S
N46 C43 1.377 . S
N46 C45 1.344 . S
O47 Co39 2.055 . S
O47 C51 1.253 . S
H48 C44 0.931 . S
H49 C45 0.930 . S
O50 Co39 2.039 . S
O50 C40 1.265 . S
C51 O47 1.253 . S
C51 O52 1.227 . S
O52 C51 1.227 . S
N53 Co39 2.140 . S
N53 C56 1.346 . S
N53 C57 1.345 . S
C54 C55 1.387 . S
C54 C58 1.391 1_565 S
C55 C54 1.387 . S
C55 C56 1.369 . S
C55 H64 0.929 . S
C56 N53 1.346 . S
C56 C55 1.369 . S
C56 H59 0.928 . S
C57 N53 1.345 . S
C57 C58 1.371 1_565 S
C57 H60 0.931 1_565 S
C58 C54 1.391 1_545 S
C58 C57 1.371 1_545 S
C58 H65 0.930 . S
H59 C56 0.928 . S
H60 C57 0.931 1_545 S
H61 C37 0.930 . S
H62 C34 0.930 . S
H63 C43 0.930 . S
H64 C55 0.929 . S
H65 C58 0.930 . S
C66 C67 1.351 . S
C66 N69 1.368 . S
C66 H71 0.931 . S
C67 C66 1.351 . S
C67 N68 1.373 . S
C67 H95 0.930 . S
N68 C67 1.373 . S
N68 C70 1.340 . S
N69 C66 1.368 . S
N69 C70 1.321 . S
N69 Co72 2.135 . S
C70 N68 1.340 . S
C70 N69 1.321 . S
C70 H94 0.930 . S
H71 C66 0.931 . S
Co72 N69 2.135 . S
Co72 N75 2.121 . S
Co72 O80 2.055 . S
Co72 O83 2.039 . S
Co72 N86 2.140 . S
C73 O74 1.227 . S
C73 O83 1.265 . S
O74 C73 1.227 . S
N75 Co72 2.121 . S
N75 C77 1.375 . S
N75 C78 1.313 . S
C76 C77 1.338 . S
C76 N79 1.377 . S
C76 H96 0.930 . S
C77 N75 1.375 . S
C77 C76 1.338 . S
C77 H81 0.931 . S
C78 N75 1.313 . S
C78 N79 1.344 . S
C78 H82 0.930 . S
N79 C76 1.377 . S
N79 C78 1.344 . S
O80 Co72 2.055 . S
O80 C84 1.253 . S
H81 C77 0.931 . S
H82 C78 0.930 . S
O83 Co72 2.039 . S
O83 C73 1.265 . S
C84 O80 1.253 . S
C84 O85 1.227 . S
O85 C84 1.227 . S
N86 Co72 2.140 . S
N86 C89 1.346 . S
N86 C90 1.345 . S
C87 C88 1.387 . S
C87 C91 1.391 . S
C88 C87 1.387 . S
C88 C89 1.369 . S
C88 H97 0.929 . S
C89 N86 1.346 . S
C89 C88 1.369 . S
C89 H92 0.928 . S
C90 N86 1.345 . S
C90 C91 1.371 . S
C90 H93 0.931 . S
C91 C87 1.391 . S
C91 C90 1.371 . S
C91 H98 0.930 . S
H92 C89 0.928 . S
H93 C90 0.931 . S
H94 C70 0.930 . S
H95 C67 0.930 . S
H96 C76 0.930 . S
H97 C88 0.929 . S
H98 C91 0.930 . S
C99 C100 1.351 . S
C99 N102 1.368 . S
C99 H104 0.931 . S
C100 C99 1.351 . S
C100 N101 1.373 . S
C100 H128 0.930 . S
N101 C100 1.373 . S
N101 C103 1.340 . S
N102 C99 1.368 . S
N102 C103 1.321 . S
N102 Co105 2.135 . S
C103 N101 1.340 . S
C103 N102 1.321 . S
C103 H127 0.930 . S
H104 C99 0.931 . S
Co105 N102 2.135 . S
Co105 N108 2.121 . S
Co105 O113 2.055 . S
Co105 O116 2.039 . S
Co105 N119 2.140 . S
C106 O107 1.227 . S
C106 O116 1.265 . S
O107 C106 1.227 . S
N108 Co105 2.121 . S
N108 C110 1.375 . S
N108 C111 1.313 . S
C109 C110 1.338 . S
C109 N112 1.377 . S
C109 H129 0.930 . S
C110 N108 1.375 . S
C110 C109 1.338 . S
C110 H114 0.931 . S
C111 N108 1.313 . S
C111 N112 1.344 . S
C111 H115 0.930 . S
N112 C109 1.377 . S
N112 C111 1.344 . S
O113 Co105 2.055 . S
O113 C117 1.253 . S
H114 C110 0.931 . S
H115 C111 0.930 . S
O116 Co105 2.039 . S
O116 C106 1.265 . S
C117 O113 1.253 . S
C117 O118 1.227 . S
O118 C117 1.227 . S
N119 Co105 2.140 . S
N119 C122 1.346 . S
N119 C123 1.345 . S
C120 C121 1.387 . S
C120 C124 1.391 . S
C121 C120 1.387 . S
C121 C122 1.369 . S
C121 H130 0.929 . S
C122 N119 1.346 . S
C122 C121 1.369 . S
C122 H125 0.928 . S
C123 N119 1.345 . S
C123 C124 1.371 . S
C123 H126 0.931 . S
C124 C120 1.391 . S
C124 C123 1.371 . S
C124 H131 0.930 . S
H125 C122 0.928 . S
H126 C123 0.931 . S
H127 C103 0.930 . S
H128 C100 0.930 . S
H129 C109 0.930 . S
H130 C121 0.929 . S
H131 C124 0.930 . S
C132 C133 1.351 . S
C132 N135 1.368 . S
C132 H137 0.931 . S
C133 C132 1.351 . S
C133 N134 1.373 . S
C133 H161 0.930 . S
N134 C133 1.373 . S
N134 C136 1.340 . S
N135 C132 1.368 . S
N135 C136 1.321 . S
N135 Co138 2.135 . S
C136 N134 1.340 . S
C136 N135 1.321 . S
C136 H160 0.930 . S
H137 C132 0.931 . S
Co138 N135 2.135 . S
Co138 N141 2.121 1_565 S
Co138 O146 2.055 . S
Co138 O149 2.039 . S
Co138 N152 2.140 . S
C139 O140 1.227 . S
C139 O149 1.265 . S
O140 C139 1.227 . S
N141 Co138 2.121 1_545 S
N141 C143 1.375 . S
N141 C144 1.313 . S
C142 C143 1.338 . S
C142 N145 1.377 . S
C142 H162 0.930 . S
C143 N141 1.375 . S
C143 C142 1.338 . S
C143 H147 0.931 . S
C144 N141 1.313 . S
C144 N145 1.344 . S
C144 H148 0.930 . S
N145 C142 1.377 . S
N145 C144 1.344 . S
O146 Co138 2.055 . S
O146 C150 1.253 . S
H147 C143 0.931 . S
H148 C144 0.930 . S
O149 Co138 2.039 . S
O149 C139 1.265 . S
C150 O146 1.253 . S
C150 O151 1.227 . S
O151 C150 1.227 . S
N152 Co138 2.140 . S
N152 C155 1.346 . S
N152 C156 1.345 . S
C153 C154 1.387 . S
C153 C157 1.391 1_565 S
C154 C153 1.387 . S
C154 C155 1.369 . S
C154 H163 0.929 . S
C155 N152 1.346 . S
C155 C154 1.369 . S
C155 H158 0.928 . S
C156 N152 1.345 . S
C156 C157 1.371 1_565 S
C156 H159 0.931 1_565 S
C157 C153 1.391 1_545 S
C157 C156 1.371 1_545 S
C157 H164 0.930 . S
H158 C155 0.928 . S
H159 C156 0.931 1_545 S
H160 C136 0.930 . S
H161 C133 0.930 . S
H162 C142 0.930 . S
H163 C154 0.929 . S
H164 C157 0.930 . S
C165 C166 1.351 . S
C165 N168 1.368 . S
C165 H170 0.931 . S
C166 C165 1.351 . S
C166 N167 1.373 . S
C166 H194 0.930 . S
N167 C166 1.373 . S
N167 C169 1.340 . S
N168 C165 1.368 . S
N168 C169 1.321 . S
N168 Co171 2.135 . S
C169 N167 1.340 . S
C169 N168 1.321 . S
C169 H193 0.930 . S
H170 C165 0.931 . S
Co171 N168 2.135 . S
Co171 N174 2.121 1_545 S
Co171 O179 2.055 . S
Co171 O182 2.039 . S
Co171 N185 2.140 . S
C172 O173 1.227 . S
C172 O182 1.265 . S
O173 C172 1.227 . S
N174 Co171 2.121 1_565 S
N174 C176 1.375 . S
N174 C177 1.313 . S
C175 C176 1.338 . S
C175 N178 1.377 . S
C175 H195 0.930 . S
C176 N174 1.375 . S
C176 C175 1.338 . S
C176 H180 0.931 . S
C177 N174 1.313 . S
C177 N178 1.344 . S
C177 H181 0.930 . S
N178 C175 1.377 . S
N178 C177 1.344 . S
O179 Co171 2.055 . S
O179 C183 1.253 . S
H180 C176 0.931 . S
H181 C177 0.930 . S
O182 Co171 2.039 . S
O182 C172 1.265 . S
C183 O179 1.253 . S
C183 O184 1.227 . S
O184 C183 1.227 . S
N185 Co171 2.140 . S
N185 C188 1.346 . S
N185 C189 1.345 . S
C186 C187 1.387 . S
C186 C190 1.391 1_545 S
C187 C186 1.387 . S
C187 C188 1.369 . S
C187 H196 0.929 . S
C188 N185 1.346 . S
C188 C187 1.369 . S
C188 H191 0.928 . S
C189 N185 1.345 . S
C189 C190 1.371 1_545 S
C189 H192 0.931 1_545 S
C190 C186 1.391 1_565 S
C190 C189 1.371 1_565 S
C190 H197 0.930 . S
H191 C188 0.928 . S
H192 C189 0.931 1_565 S
H193 C169 0.930 . S
H194 C166 0.930 . S
H195 C175 0.930 . S
H196 C187 0.929 . S
H197 C190 0.930 . S
C198 C199 1.351 . S
C198 N201 1.368 . S
C198 H203 0.931 . S
C199 C198 1.351 . S
C199 N200 1.373 . S
C199 H227 0.930 . S
N200 C199 1.373 . S
N200 C202 1.340 . S
N201 C198 1.368 . S
N201 C202 1.321 . S
N201 Co204 2.135 . S
C202 N200 1.340 . S
C202 N201 1.321 . S
C202 H226 0.930 . S
H203 C198 0.931 . S
Co204 N201 2.135 . S
Co204 N207 2.121 . S
Co204 O212 2.055 . S
Co204 O215 2.039 . S
Co204 N218 2.140 . S
C205 O206 1.227 . S
C205 O215 1.265 . S
O206 C205 1.227 . S
N207 Co204 2.121 . S
N207 C209 1.375 . S
N207 C210 1.313 . S
C208 C209 1.338 . S
C208 N211 1.377 . S
C208 H228 0.930 . S
C209 N207 1.375 . S
C209 C208 1.338 . S
C209 H213 0.931 . S
C210 N207 1.313 . S
C210 N211 1.344 . S
C210 H214 0.930 . S
N211 C208 1.377 . S
N211 C210 1.344 . S
O212 Co204 2.055 . S
O212 C216 1.253 . S
H213 C209 0.931 . S
H214 C210 0.930 . S
O215 Co204 2.039 . S
O215 C205 1.265 . S
C216 O212 1.253 . S
C216 O217 1.227 . S
O217 C216 1.227 . S
N218 Co204 2.140 . S
N218 C221 1.346 . S
N218 C222 1.345 . S
C219 C220 1.387 . S
C219 C223 1.391 . S
C220 C219 1.387 . S
C220 C221 1.369 . S
C220 H229 0.929 . S
C221 N218 1.346 . S
C221 C220 1.369 . S
C221 H224 0.928 . S
C222 N218 1.345 . S
C222 C223 1.371 . S
C222 H225 0.931 . S
C223 C219 1.391 . S
C223 C222 1.371 . S
C223 H230 0.930 . S
H224 C221 0.928 . S
H225 C222 0.931 . S
H226 C202 0.930 . S
H227 C199 0.930 . S
H228 C208 0.930 . S
H229 C220 0.929 . S
H230 C223 0.930 . S
C231 C232 1.351 . S
C231 N234 1.368 . S
C231 H236 0.931 . S
C232 C231 1.351 . S
C232 N233 1.373 . S
C232 H260 0.930 . S
N233 C232 1.373 . S
N233 C235 1.340 . S
N234 C231 1.368 . S
N234 C235 1.321 . S
N234 Co237 2.135 . S
C235 N233 1.340 . S
C235 N234 1.321 . S
C235 H259 0.930 . S
H236 C231 0.931 . S
Co237 N234 2.135 . S
Co237 N240 2.121 . S
Co237 O245 2.055 . S
Co237 O248 2.039 . S
Co237 N251 2.140 . S
C238 O239 1.227 . S
C238 O248 1.265 . S
O239 C238 1.227 . S
N240 Co237 2.121 . S
N240 C242 1.375 . S
N240 C243 1.313 . S
C241 C242 1.338 . S
C241 N244 1.377 . S
C241 H261 0.930 . S
C242 N240 1.375 . S
C242 C241 1.338 . S
C242 H246 0.931 . S
C243 N240 1.313 . S
C243 N244 1.344 . S
C243 H247 0.930 . S
N244 C241 1.377 . S
N244 C243 1.344 . S
O245 Co237 2.055 . S
O245 C249 1.253 . S
H246 C242 0.931 . S
H247 C243 0.930 . S
O248 Co237 2.039 . S
O248 C238 1.265 . S
C249 O245 1.253 . S
C249 O250 1.227 . S
O250 C249 1.227 . S
N251 Co237 2.140 . S
N251 C254 1.346 . S
N251 C255 1.345 . S
C252 C253 1.387 . S
C252 C256 1.391 . S
C253 C252 1.387 . S
C253 C254 1.369 . S
C253 H262 0.929 . S
C254 N251 1.346 . S
C254 C253 1.369 . S
C254 H257 0.928 . S
C255 N251 1.345 . S
C255 C256 1.371 . S
C255 H258 0.931 . S
C256 C252 1.391 . S
C256 C255 1.371 . S
C256 H263 0.930 . S
H257 C254 0.928 . S
H258 C255 0.931 . S
H259 C235 0.930 . S
H260 C232 0.930 . S
H261 C241 0.930 . S
H262 C253 0.929 . S
H263 C256 0.930 . S
C264 C265 1.387 . S
C264 H268 0.950 . S
C264 C273 1.390 1_545 S
C265 C264 1.387 . S
C265 C267 1.387 . S
H266 C273 0.950 . S
C267 C265 1.387 . S
C267 C269 1.390 1_545 S
C267 H271 0.950 . S
H268 C264 0.950 . S
C269 C267 1.390 1_565 S
C269 C270 1.387 . S
C269 H272 0.950 . S
C270 C269 1.387 . S
C270 C273 1.387 . S
H271 C267 0.950 . S
H272 C269 0.950 . S
C273 C264 1.390 1_565 S
C273 H266 0.950 . S
C273 C270 1.387 . S
C274 C275 1.387 . S
C274 H278 0.950 . S
C274 C283 1.390 . S
C275 C274 1.387 . S
C275 C277 1.387 . S
H276 C283 0.950 . S
C277 C275 1.387 . S
C277 C279 1.390 . S
C277 H281 0.950 . S
H278 C274 0.950 . S
C279 C277 1.390 . S
C279 C280 1.387 . S
C279 H282 0.950 . S
C280 C279 1.387 . S
C280 C283 1.387 . S
H281 C277 0.950 . S
H282 C279 0.950 . S
C283 C274 1.390 . S
C283 H276 0.950 . S
C283 C280 1.387 . S
C284 C285 1.387 . S
C284 H288 0.950 . S
C284 C293 1.390 1_565 S
C285 C284 1.387 . S
C285 C287 1.387 . S
H286 C293 0.950 . S
C287 C285 1.387 . S
C287 C289 1.390 1_565 S
C287 H291 0.950 . S
H288 C284 0.950 . S
C289 C287 1.390 1_545 S
C289 C290 1.387 . S
C289 H292 0.950 . S
C290 C289 1.387 . S
C290 C293 1.387 . S
H291 C287 0.950 . S
H292 C289 0.950 . S
C293 C284 1.390 1_545 S
C293 H286 0.950 . S
C293 C290 1.387 . S
C294 C295 1.387 . S
C294 H298 0.950 . S
C294 C303 1.390 . S
C295 C294 1.387 . S
C295 C297 1.387 . S
H296 C303 0.950 . S
C297 C295 1.387 . S
C297 C299 1.390 . S
C297 H301 0.950 . S
H298 C294 0.950 . S
C299 C297 1.390 . S
C299 C300 1.387 . S
C299 H302 0.950 . S
C300 C299 1.387 . S
C300 C303 1.387 . S
H301 C297 0.950 . S
H302 C299 0.950 . S
C303 C294 1.390 . S
C303 H296 0.950 . S
C303 C300 1.387 . S
C304 C305 1.387 . S
C304 H308 0.950 . S
C304 C313 1.390 1_454 S
C305 C304 1.387 . S
C305 C307 1.387 1_545 S
H306 C313 0.950 . S
C307 C305 1.387 1_565 S
C307 C309 1.390 1_454 S
C307 H311 0.950 . S
H308 C304 0.950 . S
C309 C307 1.390 1_656 S
C309 C310 1.387 . S
C309 H312 0.950 . S
C310 C309 1.387 . S
C310 C313 1.387 1_565 S
H311 C307 0.950 . S
H312 C309 0.950 . S
C313 C304 1.390 1_656 S
C313 H306 0.950 . S
C313 C310 1.387 1_545 S
C314 C315 1.388 1_546 S
C314 H318 0.950 . S
C314 C323 1.389 . S
C315 C314 1.388 1_564 S
C315 C317 1.387 . S
H316 C323 0.950 . S
C317 C315 1.387 . S
C317 C319 1.389 . S
C317 H321 0.950 . S
H318 C314 0.950 . S
C319 C317 1.389 . S
C319 C320 1.388 1_564 S
C319 H322 0.950 . S
C320 C319 1.388 1_546 S
C320 C323 1.387 . S
H321 C317 0.950 . S
H322 C319 0.950 . S
C323 C314 1.389 . S
C323 H316 0.950 . S
C323 C320 1.387 . S
C324 C325 1.387 . S
C324 H328 0.950 . S
C324 C333 1.390 1_455 S
C325 C324 1.387 . S
C325 C327 1.387 . S
H326 C333 0.950 . S
C327 C325 1.387 . S
C327 C329 1.390 1_455 S
C327 H331 0.950 . S
H328 C324 0.950 . S
C329 C327 1.390 1_655 S
C329 C330 1.387 . S
C329 H332 0.950 . S
C330 C329 1.387 . S
C330 C333 1.387 . S
H331 C327 0.950 . S
H332 C329 0.950 . S
C333 C324 1.390 1_655 S
C333 H326 0.950 . S
C333 C330 1.387 . S
C334 C335 1.387 . S
C334 H338 0.950 . S
C334 C343 1.390 . S
C335 C334 1.387 . S
C335 C337 1.387 . S
H336 C343 0.950 . S
C337 C335 1.387 . S
C337 C339 1.390 . S
C337 H341 0.950 . S
H338 C334 0.950 . S
C339 C337 1.390 . S
C339 C340 1.387 . S
C339 H342 0.950 . S
C340 C339 1.387 . S
C340 C343 1.387 . S
H341 C337 0.950 . S
H342 C339 0.950 . S
C343 C334 1.390 . S
C343 H336 0.950 . S
C343 C340 1.387 . S
C344 C345 1.387 . S
C344 H348 0.950 . S
C344 C353 1.390 . S
C345 C344 1.387 . S
C345 C347 1.387 . S
H346 C353 0.950 . S
C347 C345 1.387 . S
C347 C349 1.390 . S
C347 H351 0.950 . S
H348 C344 0.950 . S
C349 C347 1.390 . S
C349 C350 1.387 . S
C349 H352 0.950 . S
C350 C349 1.387 . S
C350 C353 1.387 . S
H351 C347 0.950 . S
H352 C349 0.950 . S
C353 C344 1.390 . S
C353 H346 0.950 . S
C353 C350 1.387 . S
C354 C355 1.387 . S
C354 H358 0.950 . S
C354 C363 1.390 . S
C355 C354 1.387 . S
C355 C357 1.387 . S
H356 C363 0.950 . S
C357 C355 1.387 . S
C357 C359 1.390 . S
C357 H361 0.950 . S
H358 C354 0.950 . S
C359 C357 1.390 . S
C359 C360 1.387 . S
C359 H362 0.950 . S
C360 C359 1.387 . S
C360 C363 1.387 . S
H361 C357 0.950 . S
H362 C359 0.950 . S
C363 C354 1.390 . S
C363 H356 0.950 . S
C363 C360 1.387 . S
C364 C365 1.387 . S
C364 H368 0.950 . S
C364 C373 1.390 . S
C365 C364 1.387 . S
C365 C367 1.387 . S
H366 C373 0.950 . S
C367 C365 1.387 . S
C367 C369 1.390 . S
C367 H371 0.950 . S
H368 C364 0.950 . S
C369 C367 1.390 . S
C369 C370 1.387 . S
C369 H372 0.950 . S
C370 C369 1.387 . S
C370 C373 1.387 . S
H371 C367 0.950 . S
H372 C369 0.950 . S
C373 C364 1.390 . S
C373 H366 0.950 . S
C373 C370 1.387 . S
C374 C375 1.387 . S
C374 H378 0.950 . S
C374 C383 1.390 . S
C375 C374 1.387 . S
C375 C377 1.387 . S
H376 C383 0.950 . S
C377 C375 1.387 . S
C377 C379 1.390 . S
C377 H381 0.950 . S
H378 C374 0.950 . S
C379 C377 1.390 . S
C379 C380 1.387 . S
C379 H382 0.950 . S
C380 C379 1.387 . S
C380 C383 1.387 . S
H381 C377 0.950 . S
H382 C379 0.950 . S
C383 C374 1.390 . S
C383 H376 0.950 . S
C383 C380 1.387 . S
C384 C385 1.387 . S
C384 H388 0.950 . S
C384 C393 1.390 . S
C385 C384 1.387 . S
C385 C387 1.387 . S
H386 C393 0.950 . S
C387 C385 1.387 . S
C387 C389 1.390 . S
C387 H391 0.950 . S
H388 C384 0.950 . S
C389 C387 1.390 . S
C389 C390 1.387 . S
C389 H392 0.950 . S
C390 C389 1.387 . S
C390 C393 1.387 . S
H391 C387 0.950 . S
H392 C389 0.950 . S
C393 C384 1.390 . S
C393 H386 0.950 . S
C393 C390 1.387 . S
C394 C395 1.387 . S
C394 H398 0.950 . S
C394 C403 1.390 . S
C395 C394 1.387 . S
C395 C397 1.387 . S
H396 C403 0.950 . S
C397 C395 1.387 . S
C397 C399 1.390 . S
C397 H401 0.950 . S
H398 C394 0.950 . S
C399 C397 1.390 . S
C399 C400 1.387 . S
C399 H402 0.950 . S
C400 C399 1.387 . S
C400 C403 1.387 . S
H401 C397 0.950 . S
H402 C399 0.950 . S
C403 C394 1.390 . S
C403 H396 0.950 . S
C403 C400 1.387 . S
C404 C405 1.387 1_565 S
C404 H408 0.950 . S
C404 C413 1.390 . S
C405 C404 1.387 1_545 S
C405 C407 1.387 1_545 S
H406 C413 0.950 . S
C407 C405 1.387 1_565 S
C407 C409 1.390 . S
C407 H411 0.950 1_565 S
H408 C404 0.950 . S
C409 C407 1.390 . S
C409 C410 1.387 . S
C409 H412 0.950 . S
C410 C409 1.387 . S
C410 C413 1.387 . S
H411 C407 0.950 1_545 S
H412 C409 0.950 . S
C413 C404 1.390 . S
C413 H406 0.950 . S
C413 C410 1.387 . S
C414 C415 1.387 1_545 S
C414 H418 0.950 . S
C414 C423 1.390 . S
C415 C414 1.387 1_565 S
C415 C417 1.387 1_565 S
H416 C423 0.950 . S
C417 C415 1.387 1_545 S
C417 C419 1.390 . S
C417 H421 0.950 1_545 S
H418 C414 0.950 . S
C419 C417 1.390 . S
C419 C420 1.387 . S
C419 H422 0.950 . S
C420 C419 1.387 . S
C420 C423 1.387 . S
H421 C417 0.950 1_565 S
H422 C419 0.950 . S
C423 C414 1.390 . S
C423 H416 0.950 . S
C423 C420 1.387 . S
C424 C425 1.387 . S
C424 H428 0.950 . S
C424 C433 1.390 . S
C425 C424 1.387 . S
C425 C427 1.387 . S
H426 C433 0.950 . S
C427 C425 1.387 . S
C427 C429 1.390 . S
C427 H431 0.950 . S
H428 C424 0.950 . S
C429 C427 1.390 . S
C429 C430 1.387 . S
C429 H432 0.950 . S
C430 C429 1.387 . S
C430 C433 1.387 . S
H431 C427 0.950 . S
H432 C429 0.950 . S
C433 C424 1.390 . S
C433 H426 0.950 . S
C433 C430 1.387 . S
C434 C435 1.387 . S
C434 H438 0.950 . S
C434 C443 1.390 . S
C435 C434 1.387 . S
C435 C437 1.387 . S
H436 C443 0.950 . S
C437 C435 1.387 . S
C437 C439 1.390 . S
C437 H441 0.950 . S
H438 C434 0.950 . S
C439 C437 1.390 . S
C439 C440 1.387 . S
C439 H442 0.950 . S
C440 C439 1.387 . S
C440 C443 1.387 . S
H441 C437 0.950 . S
H442 C439 0.950 . S
C443 C434 1.390 . S
C443 H436 0.950 . S
C443 C440 1.387 . S
C444 C445 1.387 1_545 S
C444 H448 0.950 1_545 S
C444 C453 1.390 . S
C445 C444 1.387 1_565 S
C445 C447 1.387 1_565 S
H446 C453 0.950 . S
C447 C445 1.387 1_545 S
C447 C449 1.390 . S
C447 H451 0.950 . S
H448 C444 0.950 1_565 S
C449 C447 1.390 . S
C449 C450 1.387 . S
C449 H452 0.950 . S
C450 C449 1.387 . S
C450 C453 1.387 . S
H451 C447 0.950 . S
H452 C449 0.950 . S
C453 C444 1.390 . S
C453 H446 0.950 . S
C453 C450 1.387 . S
C454 C455 1.387 . S
C454 H458 0.950 . S
C454 C463 1.390 . S
C455 C454 1.387 . S
C455 C457 1.387 . S
H456 C463 0.950 . S
C457 C455 1.387 . S
C457 C459 1.390 . S
C457 H461 0.950 . S
H458 C454 0.950 . S
C459 C457 1.390 . S
C459 C460 1.387 1_565 S
C459 H462 0.950 1_565 S
C460 C459 1.387 1_545 S
C460 C463 1.387 1_545 S
H461 C457 0.950 . S
H462 C459 0.950 1_545 S
C463 C454 1.390 . S
C463 H456 0.950 . S
C463 C460 1.387 1_565 S
C265 C21 1.572 . S
C270 C54 1.572 . S
C275 C120 1.570 . S
C280 C87 1.570 . S
C285 C153 1.572 . S
C290 C186 1.572 . S
C295 C252 1.572 . S
C300 C219 1.572 . S
C305 C18 1.240 . S
C310 C150 1.240 . S
C315 C51 1.241 . S
C320 C183 1.241 . S
C325 C84 1.240 . S
C330 C216 1.240 . S
C335 C117 1.241 . S
C340 C249 1.241 . S
C345 C73 1.480 . S
C350 C7 1.480 . S
C355 C106 1.480 . S
C360 C40 1.480 . S
C365 C139 1.480 . S
C370 C205 1.480 . S
C375 C172 1.477 . S
C380 C238 1.477 . S
C385 N13 1.401 . S
C390 N2 1.400 . S
C395 N46 1.404 . S
C400 N35 1.402 . S
C405 N68 1.402 . S
C410 N79 1.404 . S
C415 N101 1.402 . S
C420 N112 1.404 . S
C425 N134 1.402 . S
C430 N145 1.404 . S
C435 N178 1.401 . S
C440 N167 1.400 . S
C445 N200 1.402 . S
C450 N211 1.404 . S
C455 N244 1.402 . S
C460 N233 1.400 . S
