# Generated by pormake.
# Topology unh, (4)-cn, num edge types: 1
# Building blocks:
#     Node 0, Type 0, BuildingBlock: KOZSID_clean_sbu_0, # of connection points: 4
#     Node 1, Type 0, BuildingBlock: KOZSID_clean_sbu_0, # of connection points: 4
#     Node 2, Type 0, BuildingBlock: KOZSID_clean_sbu_0, # of connection points: 4
#     Node 3, Type 0, BuildingBlock: KOZSID_clean_sbu_0, # of connection points: 4
#     Node 4, Type 0, BuildingBlock: KOZSID_clean_sbu_0, # of connection points: 4
#     Node 5, Type 0, BuildingBlock: KOZSID_clean_sbu_0, # of connection points: 4
#     Edge 6, Type (0, 0), BuildingBlock: OJICUG_clean_linker_0, # of connection points: 2
#     Edge 7, Type (0, 0), BuildingBlock: OJICUG_clean_linker_0, # of connection points: 2
#     Edge 8, Type (0, 0), BuildingBlock: OJICUG_clean_linker_0, # of connection points: 2
#     Edge 9, Type (0, 0), BuildingBlock: OJICUG_clean_linker_0, # of connection points: 2
#     Edge 10, Type (0, 0), BuildingBlock: OJICUG_clean_linker_0, # of connection points: 2
#     Edge 11, Type (0, 0), BuildingBlock: OJICUG_clean_linker_0, # of connection points: 2
#     Edge 12, Type (0, 0), BuildingBlock: OJICUG_clean_linker_0, # of connection points: 2
#     Edge 13, Type (0, 0), BuildingBlock: OJICUG_clean_linker_0, # of connection points: 2
#     Edge 14, Type (0, 0), BuildingBlock: OJICUG_clean_linker_0, # of connection points: 2
#     Edge 15, Type (0, 0), BuildingBlock: OJICUG_clean_linker_0, # of connection points: 2
#     Edge 16, Type (0, 0), BuildingBlock: OJICUG_clean_linker_0, # of connection points: 2
#     Edge 17, Type (0, 0), BuildingBlock: OJICUG_clean_linker_0, # of connection points: 2
# Relax obj value: 0.013
# Max RMSD: 0.283
# Mean RMSD: 0.251
data_MOF--net-unh--node1-KOZSID_clean_sbu_0--edge1-OJICUG_clean_linker_0
_symmetry_space_group_name_H-M    P1
_symmetry_Int_Tables_number       1
_symmetry_cell_setting            triclinic
loop_
_symmetry_equiv_pos_as_xyz
'x, y, z'
_cell_length_a     40.1164
_cell_length_b     45.281236
_cell_length_c     17.672483
_cell_angle_alpha  89.907202
_cell_angle_beta   90.356753
_cell_angle_gamma 120.23526
loop_
_atom_site_label
_atom_site_type_symbol
_atom_site_fract_x
_atom_site_fract_y
_atom_site_fract_z
_atom_type_partial_charge
C0 C 0.25978 0.62891 0.21526 0.0
C1 C 0.27867 0.65788 0.26056 0.0
C2 C 0.26561 0.6793 0.23905 0.0
C3 C 0.23972 0.66249 0.18175 0.0
N4 N 0.23481 0.63135 0.16651 0.0
Co5 Co 0.2037 0.60133 0.08001 0.0
N6 N 0.17804 0.62874 0.0604 0.0
C7 C 0.18933 0.66004 0.08838 0.0
C8 C 0.16654 0.67294 0.06468 0.0
C9 C 0.13923 0.64833 0.01828 0.0
C10 C 0.14699 0.62176 0.01626 0.0
N11 N 0.17351 0.57194 0.99252 0.0
C12 C 0.14326 0.57017 0.95365 0.0
C13 C 0.13122 0.54616 0.89579 0.0
C14 C 0.15467 0.53241 0.89844 0.0
C15 C 0.17964 0.54871 0.95741 0.0
N16 N 0.2284 0.57325 0.09989 0.0
C17 C 0.22554 0.54773 0.0561 0.0
C18 C 0.24222 0.53058 0.08757 0.0
C19 C 0.25742 0.54675 0.15481 0.0
C20 C 0.24988 0.57347 0.15973 0.0
N21 N 0.1618 0.5721 0.14989 0.0
C22 C 0.10409 0.53188 0.25549 0.0
C23 C 0.11422 0.51663 0.19778 0.0
C24 C 0.14319 0.53715 0.14587 0.0
C25 C 0.1231 0.56766 0.25792 0.0
C26 C 0.15149 0.5871 0.20495 0.0
N27 N 0.24604 0.63152 1.01172 0.0
C28 C 0.31401 0.6723 1.0023 0.0
C29 C 0.30687 0.6903 0.94643 0.0
C30 C 0.26928 0.67598 0.9173 0.0
C31 C 0.23925 0.64637 0.95049 0.0
C32 C 0.28341 0.64272 0.03299 0.0
H33 H 0.21027 0.63702 0.92997 0.0
H34 H 0.29012 0.63063 0.07784 0.0
H35 H 0.15052 0.52464 0.10282 0.0
H36 H 0.16505 0.61443 0.20891 0.0
C37 C 0.2186 0.67462 0.1428 0.0
C38 C 0.27017 0.60202 0.21323 0.0
C39 C 0.12623 0.59169 0.96719 0.0
C40 C 0.20412 0.53861 0.98925 0.0
H41 H 0.30079 0.66376 0.30272 0.0
H42 H 0.27445 0.70441 0.26166 0.0
H43 H 0.16899 0.69705 0.08043 0.0
H44 H 0.11653 0.64991 0.98847 0.0
H45 H 0.10778 0.53915 0.85598 0.0
H46 H 0.15263 0.5119 0.86365 0.0
H47 H 0.24306 0.50883 0.0646 0.0
H48 H 0.27404 0.54074 0.19391 0.0
H49 H 0.10026 0.48908 0.19329 0.0
H50 H 0.11568 0.58077 0.29989 0.0
H51 H 0.34286 0.68194 0.02479 0.0
H52 H 0.26265 0.68881 0.87298 0.0
C53 C 0.64737 0.2175 0.39859 0.0
C54 C 0.63077 0.22414 0.46002 0.0
C55 C 0.59392 0.19673 0.46613 0.0
C56 C 0.5899 0.17503 0.40795 0.0
N57 N 0.622 0.18713 0.36611 0.0
Co58 Co 0.62793 0.16636 0.27201 0.0
N59 N 0.57117 0.1379 0.25676 0.0
C60 C 0.54445 0.13106 0.31031 0.0
C61 C 0.50752 0.10901 0.28578 0.0
C62 C 0.51125 0.10088 0.21282 0.0
C63 C 0.55042 0.11842 0.19682 0.0
N64 N 0.63472 0.14625 0.17758 0.0
C65 C 0.60883 0.12715 0.12304 0.0
C66 C 0.6262 0.11762 0.06784 0.0
C67 C 0.66376 0.13035 0.08974 0.0
C68 C 0.66743 0.14704 0.15662 0.0
N69 N 0.68435 0.19431 0.28819 0.0
C70 C 0.71134 0.18863 0.2583 0.0
C71 C 0.74815 0.21284 0.27957 0.0
C72 C 0.74391 0.23521 0.32519 0.0
C73 C 0.70461 0.22338 0.32872 0.0
N74 N 0.62646 0.1289 0.33147 0.0
C75 C 0.61227 0.0741 0.42752 0.0
C76 C 0.59716 0.06832 0.35378 0.0
C77 C 0.60476 0.09585 0.3069 0.0
C78 C 0.6369 0.10817 0.45006 0.0
C79 C 0.64373 0.13511 0.40122 0.0
N80 N 0.62885 0.20386 0.2145 0.0
C81 C 0.66236 0.25355 0.13476 0.0
C82 C 0.63694 0.26479 0.1562 0.0
C83 C 0.60621 0.24388 0.20364 0.0
C84 C 0.60245 0.2135 0.23129 0.0
C85 C 0.65788 0.22301 0.16479 0.0
H86 H 0.579 0.19864 0.26923 0.0
H87 H 0.67871 0.21558 0.15021 0.0
H88 H 0.59135 0.09009 0.25199 0.0
H89 H 0.66173 0.16101 0.42112 0.0
C90 C 0.55486 0.14824 0.38014 0.0
C91 C 0.68723 0.23964 0.3723 0.0
C92 C 0.5668 0.11247 0.12812 0.0
C93 C 0.70173 0.16586 0.19788 0.0
H94 H 0.64341 0.24664 0.4956 0.0
H95 H 0.57189 0.19418 0.50502 0.0
H96 H 0.48101 0.10002 0.317 0.0
H97 H 0.48793 0.0832 0.17633 0.0
H98 H 0.61273 0.10174 0.0186 0.0
H99 H 0.68571 0.12768 0.06044 0.0
H100 H 0.77497 0.21525 0.26037 0.0
H101 H 0.76704 0.25789 0.3517 0.0
H102 H 0.57777 0.04269 0.33326 0.0
H103 H 0.6501 0.11412 0.50574 0.0
H104 H 0.68631 0.26885 0.09751 0.0
H105 H 0.58536 0.25114 0.22013 0.0
C106 C 0.44511 0.62016 0.3118 0.0
C107 C 0.45968 0.64217 0.25043 0.0
C108 C 0.49709 0.64964 0.24106 0.0
C109 C 0.5037 0.63242 0.29777 0.0
N110 N 0.47277 0.61471 0.34226 0.0
Co111 Co 0.47135 0.59037 0.437 0.0
N112 N 0.52864 0.61466 0.44545 0.0
C113 C 0.55332 0.63162 0.38882 0.0
C114 C 0.59124 0.64449 0.40916 0.0
C115 C 0.59039 0.63449 0.48275 0.0
C116 C 0.55184 0.61592 0.50329 0.0
N117 N 0.46922 0.56598 0.53219 0.0
C118 C 0.49714 0.57214 0.58395 0.0
C119 C 0.48285 0.54756 0.64075 0.0
C120 C 0.44517 0.52496 0.62292 0.0
C121 C 0.43838 0.5369 0.55673 0.0
N122 N 0.41438 0.56553 0.4279 0.0
C123 C 0.39002 0.53542 0.46048 0.0
C124 C 0.35223 0.52314 0.44024 0.0
C125 C 0.35287 0.54712 0.392 0.0
C126 C 0.39119 0.57302 0.38633 0.0
N127 N 0.47296 0.55448 0.37703 0.0
C128 C 0.48628 0.51299 0.2777 0.0
C129 C 0.50385 0.5218 0.34941 0.0
C130 C 0.49675 0.54235 0.39802 0.0
C131 C 0.4598 0.52354 0.25919 0.0
C132 C 0.45339 0.54401 0.30965 0.0
N133 N 0.47023 0.62694 0.49451 0.0
C134 C 0.4381 0.64666 0.57823 0.0
C135 C 0.4622 0.68047 0.55409 0.0
C136 C 0.49155 0.68698 0.50305 0.0
C137 C 0.49534 0.66013 0.47486 0.0
C138 C 0.44245 0.62016 0.54732 0.0
H139 H 0.51779 0.66631 0.43441 0.0
H140 H 0.42265 0.59415 0.56408 0.0
H141 H 0.51211 0.54972 0.45109 0.0
H142 H 0.43382 0.5526 0.29253 0.0
C143 C 0.54005 0.6384 0.32106 0.0
C144 C 0.40473 0.60344 0.33835 0.0
C145 C 0.53844 0.5972 0.57522 0.0
C146 C 0.40281 0.523 0.51941 0.0
H147 H 0.4454 0.65252 0.21674 0.0
H148 H 0.51774 0.66739 0.20088 0.0
H149 H 0.61654 0.6598 0.37507 0.0
H150 H 0.61524 0.63965 0.51689 0.0
H151 H 0.49841 0.54524 0.68846 0.0
H152 H 0.42514 0.5025 0.65448 0.0
H153 H 0.32706 0.50023 0.46043 0.0
H154 H 0.32792 0.54557 0.36427 0.0
H155 H 0.52472 0.51457 0.36652 0.0
H156 H 0.4449 0.51688 0.20516 0.0
H157 H 0.41528 0.64063 0.61842 0.0
H158 H 0.51137 0.71279 0.48427 0.0
C159 C 0.85201 0.45164 0.71362 0.0
C160 C 0.84722 0.43708 0.78484 0.0
C161 C 0.87752 0.4316 0.79613 0.0
C162 C 0.89924 0.44319 0.73165 0.0
N163 N 0.88441 0.4554 0.68011 0.0
Co164 Co 0.90858 0.47654 0.58133 0.0
N165 N 0.94413 0.45771 0.58509 0.0
C166 C 0.95217 0.44517 0.64738 0.0
C167 C 0.97934 0.4358 0.63513 0.0
C168 C 0.98964 0.44346 0.56079 0.0
C169 C 0.96818 0.45721 0.53175 0.0
N170 N 0.93219 0.49757 0.48212 0.0
C171 C 0.95594 0.49255 0.43634 0.0
C172 C 0.96568 0.51325 0.37243 0.0
C173 C 0.94803 0.53212 0.37896 0.0
C174 C 0.92854 0.52203 0.44593 0.0
N175 N 0.87349 0.49572 0.5773 0.0
C176 C 0.87571 0.51958 0.52855 0.0
C177 C 0.8443 0.52387 0.53053 0.0
C178 C 0.82088 0.50164 0.58437 0.0
C179 C 0.83999 0.48573 0.61429 0.0
N180 N 0.94817 0.51736 0.63594 0.0
C181 C 1.00604 0.55634 0.74305 0.0
C182 C 1.01551 0.5502 0.67075 0.0
C183 C 0.98629 0.53096 0.61805 0.0
C184 C 0.96728 0.54615 0.75677 0.0
C185 C 0.93895 0.52736 0.70187 0.0
N186 N 0.86915 0.43485 0.52992 0.0
C187 C 0.81513 0.40534 0.44389 0.0
C188 C 0.80639 0.37354 0.47446 0.0
C189 C 0.83111 0.37333 0.53047 0.0
C190 C 0.86186 0.40391 0.55732 0.0
C191 C 0.84674 0.43566 0.47214 0.0
H192 H 0.87907 0.40232 0.60217 0.0
H193 H 0.85234 0.4597 0.44866 0.0
H194 H 0.99462 0.52471 0.56546 0.0
H195 H 0.90925 0.51859 0.71554 0.0
C196 C 0.93118 0.43987 0.71404 0.0
C197 C 0.82753 0.46466 0.68318 0.0
C198 C 0.97456 0.47271 0.45605 0.0
C199 C 0.90273 0.5317 0.47099 0.0
H200 H 0.82464 0.43159 0.82514 0.0
H201 H 0.88274 0.42008 0.84511 0.0
H202 H 0.9902 0.42454 0.67527 0.0
H203 H 1.01122 0.44017 0.53172 0.0
H204 H 0.98456 0.51546 0.32668 0.0
H205 H 0.9488 0.55058 0.33896 0.0
H206 H 0.83805 0.53971 0.49399 0.0
H207 H 0.79298 0.49787 0.60014 0.0
H208 H 1.045 0.55783 0.6567 0.0
H209 H 0.95864 0.55129 0.81082 0.0
H210 H 0.79716 0.40697 0.40005 0.0
H211 H 0.82673 0.34958 0.55425 0.0
C212 C 0.45822 0.85157 0.89424 0.0
C213 C 0.47478 0.84414 0.95508 0.0
C214 C 0.51178 0.87129 0.96246 0.0
C215 C 0.51596 0.89359 0.90549 0.0
N216 N 0.4838 0.88212 0.86329 0.0
Co217 Co 0.47814 0.9034 0.7695 0.0
N218 N 0.53491 0.9311 0.75503 0.0
C219 C 0.56167 0.93741 0.80886 0.0
C220 C 0.59865 0.95909 0.78493 0.0
C221 C 0.59493 0.96755 0.71209 0.0
C222 C 0.55572 0.95056 0.69556 0.0
N223 N 0.47159 0.92403 0.67536 0.0
C224 C 0.4975 0.94302 0.62134 0.0
C225 C 0.48039 0.95311 0.5662 0.0
C226 C 0.44299 0.94087 0.58767 0.0
C227 C 0.43914 0.9239 0.65423 0.0
N228 N 0.42176 0.87624 0.78494 0.0
C229 C 0.39507 0.88256 0.75523 0.0
C230 C 0.35816 0.85865 0.77592 0.0
C231 C 0.36206 0.83579 0.82089 0.0
C232 C 0.40122 0.84708 0.82458 0.0
N233 N 0.48063 0.94109 0.82955 0.0
C234 C 0.4952 0.99583 0.92615 0.0
C235 C 0.51053 1.00167 0.85295 0.0
C236 C 0.50275 0.97416 0.80579 0.0
C237 C 0.47032 0.96176 0.94791 0.0
C238 C 0.46333 0.93486 0.89884 0.0
N239 N 0.47609 0.86552 0.71155 0.0
C240 C 0.44097 0.8156 0.63243 0.0
C241 C 0.46563 0.80353 0.6547 0.0
C242 C 0.49686 0.82417 0.70204 0.0
C243 C 0.50186 0.85511 0.72881 0.0
C244 C 0.4466 0.84664 0.6618 0.0
H245 H 0.52569 0.86976 0.76668 0.0
H246 H 0.42625 0.85466 0.64682 0.0
H247 H 0.51623 0.97993 0.75127 0.0
H248 H 0.44506 0.90896 0.91815 0.0
C249 C 0.55118 0.92009 0.87836 0.0
C250 C 0.41831 0.83003 0.86659 0.0
C251 C 0.53945 0.95709 0.62696 0.0
C252 C 0.40489 0.90549 0.69512 0.0
H253 H 0.46219 0.82129 0.98929 0.0
H254 H 0.53383 0.87318 1.00105 0.0
H255 H 0.62518 0.96764 0.81647 0.0
H256 H 0.6183 0.9851 0.67605 0.0
H257 H 0.49397 0.96904 0.51733 0.0
H258 H 0.42126 0.94409 0.55833 0.0
H259 H 0.33147 0.8567 0.75658 0.0
H260 H 0.3388 0.8131 0.84662 0.0
H261 H 0.53013 1.02731 0.8331 0.0
H262 H 0.45698 0.95577 1.00313 0.0
H263 H 0.41671 0.80056 0.59506 0.0
H264 H 0.51718 0.81626 0.71907 0.0
C265 C 0.66966 0.46063 0.81535 0.0
C266 C 0.6593 0.4455 0.74428 0.0
C267 C 0.622 0.43781 0.73116 0.0
C268 C 0.61167 0.44884 0.79438 0.0
N269 N 0.64014 0.46297 0.84629 0.0
Co270 Co 0.63746 0.48282 0.94466 0.0
N271 N 0.58001 0.45804 0.9427 0.0
C272 C 0.55788 0.44374 0.88079 0.0
C273 C 0.51922 0.43011 0.89443 0.0
C274 C 0.51688 0.4368 0.96926 0.0
C275 C 0.55438 0.45432 0.99718 0.0
N276 N 0.63536 0.50284 0.04349 0.0
C277 C 0.60532 0.4945 0.09055 0.0
C278 C 0.61713 0.5162 0.15309 0.0
C279 C 0.65545 0.53912 0.14404 0.0
C280 C 0.66502 0.53029 0.077 0.0
N281 N 0.6948 0.50765 0.94635 0.0
C282 C 0.7179 0.53415 0.99171 0.0
C283 C 0.75578 0.54252 0.98915 0.0
C284 C 0.7567 0.52003 0.93903 0.0
C285 C 0.71931 0.49972 0.91145 0.0
N286 N 0.63757 0.521 0.89049 0.0
C287 C 0.62072 0.56044 0.79077 0.0
C288 C 0.60302 0.55053 0.86173 0.0
C289 C 0.61198 0.53118 0.91061 0.0
C290 C 0.64991 0.55293 0.77431 0.0
C291 C 0.6582 0.53359 0.82525 0.0
N292 N 0.63646 0.44398 0.99633 0.0
C293 C 0.66298 0.42092 0.08596 0.0
C294 C 0.64106 0.38827 0.0537 0.0
C295 C 0.61563 0.38394 0.99465 0.0
C296 C 0.61347 0.41186 0.96754 0.0
C297 C 0.6604 0.4485 0.05617 0.0
H298 H 0.59389 0.40748 0.92141 0.0
H299 H 0.67847 0.47357 0.08015 0.0
H300 H 0.59599 0.52249 0.96234 0.0
H301 H 0.67961 0.52699 0.80953 0.0
C302 C 0.57423 0.4412 0.8129 0.0
C303 C 0.70842 0.47464 0.8494 0.0
C304 C 0.56458 0.47033 0.07264 0.0
C305 C 0.70232 0.54429 0.04926 0.0
H306 H 0.67682 0.44059 0.70576 0.0
H307 H 0.60412 0.42456 0.6826 0.0
H308 H 0.49554 0.41679 0.85487 0.0
H309 H 0.49068 0.43046 0.99929 0.0
H310 H 0.59972 0.5164 0.19934 0.0
H311 H 0.6742 0.55949 0.18234 0.0
H312 H 0.77937 0.56085 0.02422 0.0
H313 H 0.78209 0.5185 0.92615 0.0
H314 H 0.58034 0.55557 0.87776 0.0
H315 H 0.66531 0.56082 0.72125 0.0
H316 H 0.6828 0.42532 0.13222 0.0
H317 H 0.59745 0.35903 0.96928 0.0
C318 C 0.10297 0.6045 0.84597 0.0
C319 C 0.09436 0.58761 0.91602 0.0
H320 H 0.08185 0.60837 0.73669 0.0
C321 C 0.05599 0.56287 0.93159 0.0
H322 H 0.1325 0.62333 0.83235 0.0
C323 C 1.02692 0.55424 0.87702 0.0
C324 C 1.03571 0.56984 0.80515 0.0
H325 H 1.04882 0.54908 0.98469 0.0
H326 H 0.99796 0.53389 0.8896 0.0
C327 C 0.07401 0.59569 0.79109 0.0
C328 C 0.51471 1.02103 0.05731 0.0
C329 C 0.50779 1.02494 0.9807 0.0
H330 H 0.53836 0.04571 0.1638 0.0
C331 C 0.5165 0.05767 0.95567 0.0
H332 H 0.50906 0.99654 0.07877 0.0
C333 C 0.53366 0.08593 1.00464 0.0
C334 C 0.54206 0.08202 0.07985 0.0
H335 H 0.51106 0.0617 0.89757 0.0
H336 H 0.54177 0.11105 0.98303 0.0
C337 C 0.53162 0.04923 0.1062 0.0
C338 C 0.50822 0.47129 0.24248 0.0
C339 C 0.4986 0.49604 0.22058 0.0
H340 H 0.53596 0.44297 0.21164 0.0
C341 C 0.50502 0.50736 0.14494 0.0
H342 H 0.50325 0.46162 0.29985 0.0
C343 C 0.52326 0.49629 0.09446 0.0
C344 C 0.53533 0.47353 0.11822 0.0
H345 H 0.49849 0.52665 0.126 0.0
H346 H 0.53049 0.50745 0.03844 0.0
C347 C 0.52643 0.46018 0.19181 0.0
C348 C 1.04583 0.50692 0.43703 0.0
C349 C 1.00978 0.48048 0.41209 0.0
H350 H 0.10405 0.54341 0.40766 0.0
C351 C 1.00643 0.46764 0.33835 0.0
H352 H 1.04904 0.51753 0.4933 0.0
C353 C 1.03783 0.48285 0.28852 0.0
C354 C 0.07309 0.51128 0.31153 0.0
H355 H 0.97872 0.44765 0.3175 0.0
H356 H 1.03361 0.4739 0.23055 0.0
C357 C 0.07713 0.52207 0.38745 0.0
C358 C 0.59082 1.0122 0.45657 0.0
C359 C 0.59952 0.04491 0.48176 0.0
H360 H 0.56515 0.95873 0.48308 0.0
C361 C 0.59227 0.04868 0.558 0.0
H362 H 0.59653 1.00828 0.39877 0.0
C363 C 0.57499 1.02037 0.60627 0.0
C364 C 0.5645 0.98761 0.57962 0.0
H365 H 0.5979 0.07315 0.57956 0.0
H366 H 0.56802 1.02378 0.66353 0.0
C367 C 0.57326 0.98383 0.50488 0.0
C368 C 0.60168 0.56459 0.65634 0.0
C369 C 0.60588 0.57521 0.73245 0.0
H370 H 0.57727 0.56352 0.5471 0.0
C371 C 0.59177 0.59694 0.75342 0.0
H372 H 0.6115 0.54746 0.63799 0.0
C373 C 0.57202 0.60601 0.70104 0.0
C374 C 0.56621 0.59385 0.62637 0.0
H375 H 0.59482 0.60604 0.81107 0.0
H376 H 0.55973 0.62126 0.71971 0.0
C377 C 0.58201 0.57373 0.60406 0.0
C378 C 0.3359 0.60854 0.19712 0.0
C379 C 0.30809 0.6086 0.2453 0.0
H380 H 0.38641 0.6043 0.1882 0.0
C381 C 0.31534 0.61181 0.32356 0.0
H382 H 0.33135 0.60637 0.13642 0.0
C383 C 0.34887 0.61354 0.35296 0.0
C384 C 0.37501 0.61057 0.30507 0.0
H385 H 0.29438 0.61162 0.36217 0.0
H386 H 0.35308 0.6148 0.41374 0.0
C387 C 0.36817 0.6083 0.22669 0.0
C388 C 0.73134 0.30221 0.34856 0.0
C389 C 0.71268 0.27522 0.40043 0.0
H390 H 0.77557 0.35431 0.33062 0.0
C391 C 0.72307 0.28144 0.4771 0.0
H392 H 0.72426 0.29783 0.28883 0.0
C393 C 0.75202 0.31377 0.50127 0.0
C394 C 0.77215 0.34055 0.44913 0.0
H395 H 0.71003 0.26092 0.51799 0.0
H396 H 0.75934 0.31745 0.56091 0.0
C397 C 0.76069 0.33456 0.37259 0.0
C398 C 0.45988 0.74665 0.68221 0.0
C399 C 0.45951 0.7698 0.62933 0.0
H400 H 0.46013 0.69977 0.69993 0.0
C401 C 0.45625 0.76158 0.55208 0.0
H402 H 0.46209 0.75225 0.74222 0.0
C403 C 0.45563 0.73183 0.528 0.0
C404 C 0.45749 0.70933 0.5807 0.0
H405 H 0.45602 0.77895 0.51014 0.0
H406 H 0.45466 0.72679 0.46787 0.0
C407 C 0.45851 0.71654 0.65817 0.0
C408 C 0.73514 0.43905 0.79406 0.0
C409 C 0.73907 0.47123 0.80871 0.0
H410 H 0.75982 0.41152 0.74143 0.0
C411 C 0.77256 0.5006 0.7839 0.0
H412 H 0.70947 0.41593 0.8119 0.0
C413 C 0.80236 0.49818 0.7501 0.0
C414 C 0.79794 0.46619 0.73196 0.0
H415 H 0.77599 0.52572 0.79118 0.0
H416 H 0.8283 0.52156 0.73436 0.0
C417 C 0.76408 0.43652 0.75482 0.0
C418 C 0.37448 0.76869 0.83078 0.0
C419 C 0.39325 0.79343 0.88779 0.0
H420 H 0.33214 0.71658 0.80435 0.0
C421 C 0.38392 0.78376 0.96364 0.0
H422 H 0.38063 0.77572 0.77173 0.0
C423 C 0.35684 0.74998 0.98223 0.0
C424 C 0.33757 0.72534 0.92528 0.0
H425 H 0.39639 0.80256 1.00852 0.0
H426 H 0.34977 0.7434 0.04123 0.0
C427 C 0.34667 0.735 0.84929 0.0
C428 C 0.64134 0.35063 0.15827 0.0
C429 C 0.64405 0.35853 0.08087 0.0
H430 H 0.63689 0.3147 0.24258 0.0
C431 C 0.64726 0.33657 0.02883 0.0
H432 H 0.63873 0.36697 0.19962 0.0
C433 C 0.64658 0.30683 0.05341 0.0
C434 C 0.64203 0.29813 0.13044 0.0
H435 H 0.64974 0.34218 0.96884 0.0
H436 H 0.64813 0.28999 1.0119 0.0
C437 C 0.64004 0.32062 0.18271 0.0
loop_
_geom_bond_atom_site_label_1
_geom_bond_atom_site_label_2
_geom_bond_distance
_geom_bond_site_symmetry_2
_ccdc_geom_bond_type
C0 C1 1.443 . S
C0 N4 1.376 . S
C0 C38 1.389 . S
C1 C0 1.443 . S
C1 C2 1.340 . S
C1 H41 0.951 . S
C2 C1 1.340 . S
C2 C3 1.439 . S
C2 H42 0.950 . S
C3 C2 1.439 . S
C3 N4 1.374 . S
C3 C37 1.395 . S
N4 C0 1.376 . S
N4 C3 1.374 . S
N4 Co5 2.008 . S
Co5 N4 2.008 . S
Co5 N6 1.995 . S
Co5 N11 2.008 . S
Co5 N16 1.995 . S
Co5 N21 2.282 . S
Co5 N27 2.282 . S
N6 Co5 1.995 . S
N6 C7 1.376 . S
N6 C10 1.383 . S
C7 N6 1.376 . S
C7 C8 1.446 . S
C7 C37 1.391 . S
C8 C7 1.446 . S
C8 C9 1.339 . S
C8 H43 0.949 . S
C9 C8 1.339 . S
C9 C10 1.439 . S
C9 H44 0.950 . S
C10 N6 1.383 . S
C10 C9 1.439 . S
C10 C39 1.392 . S
N11 Co5 2.008 . S
N11 C12 1.383 . S
N11 C15 1.374 . S
C12 N11 1.383 . S
C12 C13 1.436 1_554 S
C12 C39 1.390 . S
C13 C12 1.436 1_556 S
C13 C14 1.340 . S
C13 H45 0.951 . S
C14 C13 1.340 . S
C14 C15 1.439 1_556 S
C14 H46 0.950 . S
C15 N11 1.374 . S
C15 C14 1.439 1_554 S
C15 C40 1.395 . S
N16 Co5 1.995 . S
N16 C17 1.376 . S
N16 C20 1.383 . S
C17 N16 1.376 . S
C17 C18 1.446 . S
C17 C40 1.391 . S
C18 C17 1.446 . S
C18 C19 1.339 . S
C18 H47 0.949 . S
C19 C18 1.339 . S
C19 C20 1.439 . S
C19 H48 0.950 . S
C20 N16 1.383 . S
C20 C19 1.439 . S
C20 C38 1.392 . S
N21 Co5 2.282 . S
N21 C24 1.332 . S
N21 C26 1.332 . S
C22 C23 1.386 . S
C22 C25 1.388 . S
C23 C22 1.386 . S
C23 C24 1.382 . S
C23 H49 0.950 . S
C24 N21 1.332 . S
C24 C23 1.382 . S
C24 H35 0.952 . S
C25 C22 1.388 . S
C25 C26 1.382 . S
C25 H50 0.950 . S
C26 N21 1.332 . S
C26 C25 1.382 . S
C26 H36 0.948 . S
N27 Co5 2.282 . S
N27 C31 1.332 . S
N27 C32 1.332 1_554 S
C28 C29 1.388 . S
C28 C32 1.382 . S
C28 H51 0.950 . S
C29 C28 1.388 . S
C29 C30 1.386 . S
C30 C29 1.386 . S
C30 C31 1.382 1_556 S
C30 H52 0.950 . S
C31 N27 1.332 . S
C31 C30 1.382 1_554 S
C31 H33 0.952 . S
C32 N27 1.332 1_556 S
C32 C28 1.382 . S
C32 H34 0.948 . S
H33 C31 0.952 . S
H34 C32 0.948 . S
H35 C24 0.952 . S
H36 C26 0.948 . S
C37 C3 1.395 . S
C37 C7 1.391 . S
C38 C0 1.389 . S
C38 C20 1.392 . S
C39 C10 1.392 . S
C39 C12 1.390 . S
C40 C15 1.395 . S
C40 C17 1.391 . S
H41 C1 0.951 . S
H42 C2 0.950 . S
H43 C8 0.949 . S
H44 C9 0.950 . S
H45 C13 0.951 . S
H46 C14 0.950 . S
H47 C18 0.949 . S
H48 C19 0.950 . S
H49 C23 0.950 . S
H50 C25 0.950 . S
H51 C28 0.950 . S
H52 C30 0.950 . S
C53 C54 1.443 . S
C53 N57 1.376 . S
C53 C91 1.389 . S
C54 C53 1.443 . S
C54 C55 1.340 . S
C54 H94 0.951 . S
C55 C54 1.340 . S
C55 C56 1.439 . S
C55 H95 0.950 . S
C56 C55 1.439 . S
C56 N57 1.374 . S
C56 C90 1.395 . S
N57 C53 1.376 . S
N57 C56 1.374 . S
N57 Co58 2.008 . S
Co58 N57 2.008 . S
Co58 N59 1.995 . S
Co58 N64 2.008 . S
Co58 N69 1.995 . S
Co58 N74 2.282 . S
Co58 N80 2.282 . S
N59 Co58 1.995 . S
N59 C60 1.376 . S
N59 C63 1.383 . S
C60 N59 1.376 . S
C60 C61 1.446 . S
C60 C90 1.391 . S
C61 C60 1.446 . S
C61 C62 1.339 . S
C61 H96 0.949 . S
C62 C61 1.339 . S
C62 C63 1.439 . S
C62 H97 0.950 . S
C63 N59 1.383 . S
C63 C62 1.439 . S
C63 C92 1.392 . S
N64 Co58 2.008 . S
N64 C65 1.376 . S
N64 C68 1.374 . S
C65 N64 1.376 . S
C65 C66 1.443 . S
C65 C92 1.389 . S
C66 C65 1.443 . S
C66 C67 1.340 . S
C66 H98 0.951 . S
C67 C66 1.340 . S
C67 C68 1.439 . S
C67 H99 0.950 . S
C68 N64 1.374 . S
C68 C67 1.439 . S
C68 C93 1.395 . S
N69 Co58 1.995 . S
N69 C70 1.376 . S
N69 C73 1.383 . S
C70 N69 1.376 . S
C70 C71 1.446 . S
C70 C93 1.391 . S
C71 C70 1.446 . S
C71 C72 1.339 . S
C71 H100 0.949 . S
C72 C71 1.339 . S
C72 C73 1.439 . S
C72 H101 0.950 . S
C73 N69 1.383 . S
C73 C72 1.439 . S
C73 C91 1.392 . S
N74 Co58 2.282 . S
N74 C77 1.332 . S
N74 C79 1.332 . S
C75 C76 1.386 . S
C75 C78 1.388 . S
C76 C75 1.386 . S
C76 C77 1.382 . S
C76 H102 0.950 . S
C77 N74 1.332 . S
C77 C76 1.382 . S
C77 H88 0.952 . S
C78 C75 1.388 . S
C78 C79 1.382 . S
C78 H103 0.950 . S
C79 N74 1.332 . S
C79 C78 1.382 . S
C79 H89 0.948 . S
N80 Co58 2.282 . S
N80 C84 1.332 . S
N80 C85 1.332 . S
C81 C82 1.388 . S
C81 C85 1.382 . S
C81 H104 0.950 . S
C82 C81 1.388 . S
C82 C83 1.386 . S
C83 C82 1.386 . S
C83 C84 1.382 . S
C83 H105 0.950 . S
C84 N80 1.332 . S
C84 C83 1.382 . S
C84 H86 0.952 . S
C85 N80 1.332 . S
C85 C81 1.382 . S
C85 H87 0.948 . S
H86 C84 0.952 . S
H87 C85 0.948 . S
H88 C77 0.952 . S
H89 C79 0.948 . S
C90 C56 1.395 . S
C90 C60 1.391 . S
C91 C53 1.389 . S
C91 C73 1.392 . S
C92 C63 1.392 . S
C92 C65 1.389 . S
C93 C68 1.395 . S
C93 C70 1.391 . S
H94 C54 0.951 . S
H95 C55 0.950 . S
H96 C61 0.949 . S
H97 C62 0.950 . S
H98 C66 0.951 . S
H99 C67 0.950 . S
H100 C71 0.949 . S
H101 C72 0.950 . S
H102 C76 0.950 . S
H103 C78 0.950 . S
H104 C81 0.950 . S
H105 C83 0.950 . S
C106 C107 1.443 . S
C106 N110 1.376 . S
C106 C144 1.389 . S
C107 C106 1.443 . S
C107 C108 1.340 . S
C107 H147 0.951 . S
C108 C107 1.340 . S
C108 C109 1.439 . S
C108 H148 0.950 . S
C109 C108 1.439 . S
C109 N110 1.374 . S
C109 C143 1.395 . S
N110 C106 1.376 . S
N110 C109 1.374 . S
N110 Co111 2.008 . S
Co111 N110 2.008 . S
Co111 N112 1.995 . S
Co111 N117 2.008 . S
Co111 N122 1.995 . S
Co111 N127 2.282 . S
Co111 N133 2.282 . S
N112 Co111 1.995 . S
N112 C113 1.376 . S
N112 C116 1.383 . S
C113 N112 1.376 . S
C113 C114 1.446 . S
C113 C143 1.391 . S
C114 C113 1.446 . S
C114 C115 1.339 . S
C114 H149 0.949 . S
C115 C114 1.339 . S
C115 C116 1.439 . S
C115 H150 0.950 . S
C116 N112 1.383 . S
C116 C115 1.439 . S
C116 C145 1.392 . S
N117 Co111 2.008 . S
N117 C118 1.376 . S
N117 C121 1.374 . S
C118 N117 1.376 . S
C118 C119 1.443 . S
C118 C145 1.389 . S
C119 C118 1.443 . S
C119 C120 1.340 . S
C119 H151 0.951 . S
C120 C119 1.340 . S
C120 C121 1.439 . S
C120 H152 0.950 . S
C121 N117 1.374 . S
C121 C120 1.439 . S
C121 C146 1.395 . S
N122 Co111 1.995 . S
N122 C123 1.376 . S
N122 C126 1.383 . S
C123 N122 1.376 . S
C123 C124 1.446 . S
C123 C146 1.391 . S
C124 C123 1.446 . S
C124 C125 1.339 . S
C124 H153 0.949 . S
C125 C124 1.339 . S
C125 C126 1.439 . S
C125 H154 0.950 . S
C126 N122 1.383 . S
C126 C125 1.439 . S
C126 C144 1.392 . S
N127 Co111 2.282 . S
N127 C130 1.332 . S
N127 C132 1.332 . S
C128 C129 1.386 . S
C128 C131 1.388 . S
C129 C128 1.386 . S
C129 C130 1.382 . S
C129 H155 0.950 . S
C130 N127 1.332 . S
C130 C129 1.382 . S
C130 H141 0.952 . S
C131 C128 1.388 . S
C131 C132 1.382 . S
C131 H156 0.950 . S
C132 N127 1.332 . S
C132 C131 1.382 . S
C132 H142 0.948 . S
N133 Co111 2.282 . S
N133 C137 1.332 . S
N133 C138 1.332 . S
C134 C135 1.388 . S
C134 C138 1.382 . S
C134 H157 0.950 . S
C135 C134 1.388 . S
C135 C136 1.386 . S
C136 C135 1.386 . S
C136 C137 1.382 . S
C136 H158 0.950 . S
C137 N133 1.332 . S
C137 C136 1.382 . S
C137 H139 0.952 . S
C138 N133 1.332 . S
C138 C134 1.382 . S
C138 H140 0.948 . S
H139 C137 0.952 . S
H140 C138 0.948 . S
H141 C130 0.952 . S
H142 C132 0.948 . S
C143 C109 1.395 . S
C143 C113 1.391 . S
C144 C106 1.389 . S
C144 C126 1.392 . S
C145 C116 1.392 . S
C145 C118 1.389 . S
C146 C121 1.395 . S
C146 C123 1.391 . S
H147 C107 0.951 . S
H148 C108 0.950 . S
H149 C114 0.949 . S
H150 C115 0.950 . S
H151 C119 0.951 . S
H152 C120 0.950 . S
H153 C124 0.949 . S
H154 C125 0.950 . S
H155 C129 0.950 . S
H156 C131 0.950 . S
H157 C134 0.950 . S
H158 C136 0.950 . S
C159 C160 1.443 . S
C159 N163 1.376 . S
C159 C197 1.389 . S
C160 C159 1.443 . S
C160 C161 1.340 . S
C160 H200 0.951 . S
C161 C160 1.340 . S
C161 C162 1.439 . S
C161 H201 0.950 . S
C162 C161 1.439 . S
C162 N163 1.374 . S
C162 C196 1.395 . S
N163 C159 1.376 . S
N163 C162 1.374 . S
N163 Co164 2.008 . S
Co164 N163 2.008 . S
Co164 N165 1.995 . S
Co164 N170 2.008 . S
Co164 N175 1.995 . S
Co164 N180 2.282 . S
Co164 N186 2.282 . S
N165 Co164 1.995 . S
N165 C166 1.376 . S
N165 C169 1.383 . S
C166 N165 1.376 . S
C166 C167 1.446 . S
C166 C196 1.391 . S
C167 C166 1.446 . S
C167 C168 1.339 . S
C167 H202 0.949 . S
C168 C167 1.339 . S
C168 C169 1.439 . S
C168 H203 0.950 . S
C169 N165 1.383 . S
C169 C168 1.439 . S
C169 C198 1.392 . S
N170 Co164 2.008 . S
N170 C171 1.376 . S
N170 C174 1.374 . S
C171 N170 1.376 . S
C171 C172 1.443 . S
C171 C198 1.389 . S
C172 C171 1.443 . S
C172 C173 1.340 . S
C172 H204 0.951 . S
C173 C172 1.340 . S
C173 C174 1.439 . S
C173 H205 0.950 . S
C174 N170 1.374 . S
C174 C173 1.439 . S
C174 C199 1.395 . S
N175 Co164 1.995 . S
N175 C176 1.376 . S
N175 C179 1.383 . S
C176 N175 1.376 . S
C176 C177 1.446 . S
C176 C199 1.391 . S
C177 C176 1.446 . S
C177 C178 1.339 . S
C177 H206 0.949 . S
C178 C177 1.339 . S
C178 C179 1.439 . S
C178 H207 0.950 . S
C179 N175 1.383 . S
C179 C178 1.439 . S
C179 C197 1.392 . S
N180 Co164 2.282 . S
N180 C183 1.332 . S
N180 C185 1.332 . S
C181 C182 1.386 . S
C181 C184 1.388 . S
C182 C181 1.386 . S
C182 C183 1.382 . S
C182 H208 0.950 . S
C183 N180 1.332 . S
C183 C182 1.382 . S
C183 H194 0.952 . S
C184 C181 1.388 . S
C184 C185 1.382 . S
C184 H209 0.950 . S
C185 N180 1.332 . S
C185 C184 1.382 . S
C185 H195 0.948 . S
N186 Co164 2.282 . S
N186 C190 1.332 . S
N186 C191 1.332 . S
C187 C188 1.388 . S
C187 C191 1.382 . S
C187 H210 0.950 . S
C188 C187 1.388 . S
C188 C189 1.386 . S
C189 C188 1.386 . S
C189 C190 1.382 . S
C189 H211 0.950 . S
C190 N186 1.332 . S
C190 C189 1.382 . S
C190 H192 0.952 . S
C191 N186 1.332 . S
C191 C187 1.382 . S
C191 H193 0.948 . S
H192 C190 0.952 . S
H193 C191 0.948 . S
H194 C183 0.952 . S
H195 C185 0.948 . S
C196 C162 1.395 . S
C196 C166 1.391 . S
C197 C159 1.389 . S
C197 C179 1.392 . S
C198 C169 1.392 . S
C198 C171 1.389 . S
C199 C174 1.395 . S
C199 C176 1.391 . S
H200 C160 0.951 . S
H201 C161 0.950 . S
H202 C167 0.949 . S
H203 C168 0.950 . S
H204 C172 0.951 . S
H205 C173 0.950 . S
H206 C177 0.949 . S
H207 C178 0.950 . S
H208 C182 0.950 . S
H209 C184 0.950 . S
H210 C187 0.950 . S
H211 C189 0.950 . S
C212 C213 1.443 . S
C212 N216 1.376 . S
C212 C250 1.389 . S
C213 C212 1.443 . S
C213 C214 1.340 . S
C213 H253 0.951 . S
C214 C213 1.340 . S
C214 C215 1.439 . S
C214 H254 0.950 . S
C215 C214 1.439 . S
C215 N216 1.374 . S
C215 C249 1.395 . S
N216 C212 1.376 . S
N216 C215 1.374 . S
N216 Co217 2.008 . S
Co217 N216 2.008 . S
Co217 N218 1.995 . S
Co217 N223 2.008 . S
Co217 N228 1.995 . S
Co217 N233 2.282 . S
Co217 N239 2.282 . S
N218 Co217 1.995 . S
N218 C219 1.376 . S
N218 C222 1.383 . S
C219 N218 1.376 . S
C219 C220 1.446 . S
C219 C249 1.391 . S
C220 C219 1.446 . S
C220 C221 1.339 . S
C220 H255 0.949 . S
C221 C220 1.339 . S
C221 C222 1.439 . S
C221 H256 0.950 . S
C222 N218 1.383 . S
C222 C221 1.439 . S
C222 C251 1.392 . S
N223 Co217 2.008 . S
N223 C224 1.376 . S
N223 C227 1.374 . S
C224 N223 1.376 . S
C224 C225 1.443 . S
C224 C251 1.389 . S
C225 C224 1.443 . S
C225 C226 1.340 . S
C225 H257 0.951 . S
C226 C225 1.340 . S
C226 C227 1.439 . S
C226 H258 0.950 . S
C227 N223 1.374 . S
C227 C226 1.439 . S
C227 C252 1.395 . S
N228 Co217 1.995 . S
N228 C229 1.376 . S
N228 C232 1.383 . S
C229 N228 1.376 . S
C229 C230 1.446 . S
C229 C252 1.391 . S
C230 C229 1.446 . S
C230 C231 1.339 . S
C230 H259 0.949 . S
C231 C230 1.339 . S
C231 C232 1.439 . S
C231 H260 0.950 . S
C232 N228 1.383 . S
C232 C231 1.439 . S
C232 C250 1.392 . S
N233 Co217 2.282 . S
N233 C236 1.332 . S
N233 C238 1.332 . S
C234 C235 1.386 . S
C234 C237 1.388 . S
C235 C234 1.386 . S
C235 C236 1.382 . S
C235 H261 0.950 . S
C236 N233 1.332 . S
C236 C235 1.382 . S
C236 H247 0.952 . S
C237 C234 1.388 . S
C237 C238 1.382 . S
C237 H262 0.950 . S
C238 N233 1.332 . S
C238 C237 1.382 . S
C238 H248 0.948 . S
N239 Co217 2.282 . S
N239 C243 1.332 . S
N239 C244 1.332 . S
C240 C241 1.388 . S
C240 C244 1.382 . S
C240 H263 0.950 . S
C241 C240 1.388 . S
C241 C242 1.386 . S
C242 C241 1.386 . S
C242 C243 1.382 . S
C242 H264 0.950 . S
C243 N239 1.332 . S
C243 C242 1.382 . S
C243 H245 0.952 . S
C244 N239 1.332 . S
C244 C240 1.382 . S
C244 H246 0.948 . S
H245 C243 0.952 . S
H246 C244 0.948 . S
H247 C236 0.952 . S
H248 C238 0.948 . S
C249 C215 1.395 . S
C249 C219 1.391 . S
C250 C212 1.389 . S
C250 C232 1.392 . S
C251 C222 1.392 . S
C251 C224 1.389 . S
C252 C227 1.395 . S
C252 C229 1.391 . S
H253 C213 0.951 . S
H254 C214 0.950 . S
H255 C220 0.949 . S
H256 C221 0.950 . S
H257 C225 0.951 . S
H258 C226 0.950 . S
H259 C230 0.949 . S
H260 C231 0.950 . S
H261 C235 0.950 . S
H262 C237 0.950 . S
H263 C240 0.950 . S
H264 C242 0.950 . S
C265 C266 1.443 . S
C265 N269 1.376 . S
C265 C303 1.389 . S
C266 C265 1.443 . S
C266 C267 1.340 . S
C266 H306 0.951 . S
C267 C266 1.340 . S
C267 C268 1.439 . S
C267 H307 0.950 . S
C268 C267 1.439 . S
C268 N269 1.374 . S
C268 C302 1.395 . S
N269 C265 1.376 . S
N269 C268 1.374 . S
N269 Co270 2.008 . S
Co270 N269 2.008 . S
Co270 N271 1.995 . S
Co270 N276 2.008 . S
Co270 N281 1.995 . S
Co270 N286 2.282 . S
Co270 N292 2.282 . S
N271 Co270 1.995 . S
N271 C272 1.376 . S
N271 C275 1.383 . S
C272 N271 1.376 . S
C272 C273 1.446 . S
C272 C302 1.391 . S
C273 C272 1.446 . S
C273 C274 1.339 . S
C273 H308 0.949 . S
C274 C273 1.339 . S
C274 C275 1.439 . S
C274 H309 0.950 . S
C275 N271 1.383 . S
C275 C274 1.439 . S
C275 C304 1.392 . S
N276 Co270 2.008 . S
N276 C277 1.376 . S
N276 C280 1.374 . S
C277 N276 1.376 . S
C277 C278 1.443 1_556 S
C277 C304 1.389 . S
C278 C277 1.443 1_554 S
C278 C279 1.340 1_554 S
C278 H310 0.951 . S
C279 C278 1.340 1_556 S
C279 C280 1.439 . S
C279 H311 0.950 1_556 S
C280 N276 1.374 . S
C280 C279 1.439 . S
C280 C305 1.395 . S
N281 Co270 1.995 . S
N281 C282 1.376 . S
N281 C285 1.383 . S
C282 N281 1.376 . S
C282 C283 1.446 . S
C282 C305 1.391 . S
C283 C282 1.446 . S
C283 C284 1.339 . S
C283 H312 0.949 . S
C284 C283 1.339 . S
C284 C285 1.439 . S
C284 H313 0.950 . S
C285 N281 1.383 . S
C285 C284 1.439 . S
C285 C303 1.392 . S
N286 Co270 2.282 . S
N286 C289 1.332 . S
N286 C291 1.332 . S
C287 C288 1.386 . S
C287 C290 1.388 . S
C288 C287 1.386 . S
C288 C289 1.382 . S
C288 H314 0.950 . S
C289 N286 1.332 . S
C289 C288 1.382 . S
C289 H300 0.952 . S
C290 C287 1.388 . S
C290 C291 1.382 . S
C290 H315 0.950 . S
C291 N286 1.332 . S
C291 C290 1.382 . S
C291 H301 0.948 . S
N292 Co270 2.282 . S
N292 C296 1.332 . S
N292 C297 1.332 . S
C293 C294 1.388 . S
C293 C297 1.382 1_554 S
C293 H316 0.950 . S
C294 C293 1.388 . S
C294 C295 1.386 1_554 S
C295 C294 1.386 1_556 S
C295 C296 1.382 . S
C295 H317 0.950 . S
C296 N292 1.332 . S
C296 C295 1.382 . S
C296 H298 0.952 . S
C297 N292 1.332 . S
C297 C293 1.382 1_556 S
C297 H299 0.948 . S
H298 C296 0.952 . S
H299 C297 0.948 . S
H300 C289 0.952 . S
H301 C291 0.948 . S
C302 C268 1.395 . S
C302 C272 1.391 . S
C303 C265 1.389 . S
C303 C285 1.392 . S
C304 C275 1.392 . S
C304 C277 1.389 . S
C305 C280 1.395 . S
C305 C282 1.391 . S
H306 C266 0.951 . S
H307 C267 0.950 . S
H308 C273 0.949 . S
H309 C274 0.950 . S
H310 C278 0.951 . S
H311 C279 0.950 1_554 S
H312 C283 0.949 . S
H313 C284 0.950 . S
H314 C288 0.950 . S
H315 C290 0.950 . S
H316 C293 0.950 . S
H317 C295 0.950 . S
C318 C319 1.387 . S
C318 H322 0.950 . S
C318 C327 1.390 . S
C319 C318 1.387 . S
C319 C321 1.387 . S
H320 C327 0.950 . S
C321 C319 1.387 . S
C321 C323 1.390 1_455 S
C321 H325 0.950 . S
H322 C318 0.950 . S
C323 C321 1.390 1_655 S
C323 C324 1.387 . S
C323 H326 0.950 . S
C324 C323 1.387 . S
C324 C327 1.387 1_655 S
H325 C321 0.950 . S
H326 C323 0.950 . S
C327 C318 1.390 . S
C327 H320 0.950 . S
C327 C324 1.387 1_455 S
C328 C329 1.388 1_554 S
C328 H332 0.950 . S
C328 C337 1.390 1_565 S
C329 C328 1.388 1_556 S
C329 C331 1.388 1_566 S
H330 C337 0.950 . S
C331 C329 1.388 1_544 S
C331 C333 1.390 . S
C331 H335 0.950 1_554 S
H332 C328 0.950 . S
C333 C331 1.390 . S
C333 C334 1.387 . S
C333 H336 0.950 . S
C334 C333 1.387 . S
C334 C337 1.387 . S
H335 C331 0.950 1_556 S
H336 C333 0.950 . S
C337 C328 1.390 1_545 S
C337 H330 0.950 . S
C337 C334 1.387 . S
C338 C339 1.387 . S
C338 H342 0.950 . S
C338 C347 1.390 . S
C339 C338 1.387 . S
C339 C341 1.387 . S
H340 C347 0.950 . S
C341 C339 1.387 . S
C341 C343 1.390 . S
C341 H345 0.950 . S
H342 C338 0.950 . S
C343 C341 1.390 . S
C343 C344 1.387 . S
C343 H346 0.950 1_554 S
C344 C343 1.387 . S
C344 C347 1.387 . S
H345 C341 0.950 . S
H346 C343 0.950 1_556 S
C347 C338 1.390 . S
C347 H340 0.950 . S
C347 C344 1.387 . S
C348 C349 1.387 . S
C348 H352 0.950 . S
C348 C357 1.390 1_655 S
C349 C348 1.387 . S
C349 C351 1.387 . S
H350 C357 0.950 . S
C351 C349 1.387 . S
C351 C353 1.390 . S
C351 H355 0.950 . S
H352 C348 0.950 . S
C353 C351 1.390 . S
C353 C354 1.387 1_655 S
C353 H356 0.950 . S
C354 C353 1.387 1_455 S
C354 C357 1.387 . S
H355 C351 0.950 . S
H356 C353 0.950 . S
C357 C348 1.390 1_455 S
C357 H350 0.950 . S
C357 C354 1.387 . S
C358 C359 1.387 1_565 S
C358 H362 0.950 . S
C358 C367 1.390 . S
C359 C358 1.387 1_545 S
C359 C361 1.387 . S
H360 C367 0.950 . S
C361 C359 1.387 . S
C361 C363 1.390 1_545 S
C361 H365 0.950 . S
H362 C358 0.950 . S
C363 C361 1.390 1_565 S
C363 C364 1.387 . S
C363 H366 0.950 1_565 S
C364 C363 1.387 . S
C364 C367 1.387 . S
H365 C361 0.950 . S
H366 C363 0.950 1_545 S
C367 C358 1.390 . S
C367 H360 0.950 . S
C367 C364 1.387 . S
C368 C369 1.387 . S
C368 H372 0.950 . S
C368 C377 1.390 . S
C369 C368 1.387 . S
C369 C371 1.387 . S
H370 C377 0.950 . S
C371 C369 1.387 . S
C371 C373 1.390 . S
C371 H375 0.950 . S
H372 C368 0.950 . S
C373 C371 1.390 . S
C373 C374 1.387 . S
C373 H376 0.950 . S
C374 C373 1.387 . S
C374 C377 1.387 . S
H375 C371 0.950 . S
H376 C373 0.950 . S
C377 C368 1.390 . S
C377 H370 0.950 . S
C377 C374 1.387 . S
C378 C379 1.387 . S
C378 H382 0.950 . S
C378 C387 1.390 . S
C379 C378 1.387 . S
C379 C381 1.387 . S
H380 C387 0.950 . S
C381 C379 1.387 . S
C381 C383 1.390 . S
C381 H385 0.950 . S
H382 C378 0.950 . S
C383 C381 1.390 . S
C383 C384 1.387 . S
C383 H386 0.950 . S
C384 C383 1.387 . S
C384 C387 1.387 . S
H385 C381 0.950 . S
H386 C383 0.950 . S
C387 C378 1.390 . S
C387 H380 0.950 . S
C387 C384 1.387 . S
C388 C389 1.387 . S
C388 H392 0.950 . S
C388 C397 1.390 . S
C389 C388 1.387 . S
C389 C391 1.387 . S
H390 C397 0.950 . S
C391 C389 1.387 . S
C391 C393 1.390 . S
C391 H395 0.950 . S
H392 C388 0.950 . S
C393 C391 1.390 . S
C393 C394 1.387 . S
C393 H396 0.950 . S
C394 C393 1.387 . S
C394 C397 1.387 . S
H395 C391 0.950 . S
H396 C393 0.950 . S
C397 C388 1.390 . S
C397 H390 0.950 . S
C397 C394 1.387 . S
C398 C399 1.387 . S
C398 H402 0.950 . S
C398 C407 1.390 . S
C399 C398 1.387 . S
C399 C401 1.387 . S
H400 C407 0.950 . S
C401 C399 1.387 . S
C401 C403 1.390 . S
C401 H405 0.950 . S
H402 C398 0.950 . S
C403 C401 1.390 . S
C403 C404 1.387 . S
C403 H406 0.950 . S
C404 C403 1.387 . S
C404 C407 1.387 . S
H405 C401 0.950 . S
H406 C403 0.950 . S
C407 C398 1.390 . S
C407 H400 0.950 . S
C407 C404 1.387 . S
C408 C409 1.387 . S
C408 H412 0.950 . S
C408 C417 1.390 . S
C409 C408 1.387 . S
C409 C411 1.387 . S
H410 C417 0.950 . S
C411 C409 1.387 . S
C411 C413 1.390 . S
C411 H415 0.950 . S
H412 C408 0.950 . S
C413 C411 1.390 . S
C413 C414 1.387 . S
C413 H416 0.950 . S
C414 C413 1.387 . S
C414 C417 1.387 . S
H415 C411 0.950 . S
H416 C413 0.950 . S
C417 C408 1.390 . S
C417 H410 0.950 . S
C417 C414 1.387 . S
C418 C419 1.387 . S
C418 H422 0.950 . S
C418 C427 1.390 . S
C419 C418 1.387 . S
C419 C421 1.387 . S
H420 C427 0.950 . S
C421 C419 1.387 . S
C421 C423 1.390 . S
C421 H425 0.950 1_556 S
H422 C418 0.950 . S
C423 C421 1.390 . S
C423 C424 1.387 . S
C423 H426 0.950 1_556 S
C424 C423 1.387 . S
C424 C427 1.387 . S
H425 C421 0.950 1_554 S
H426 C423 0.950 1_554 S
C427 C418 1.390 . S
C427 H420 0.950 . S
C427 C424 1.387 . S
C428 C429 1.387 . S
C428 H432 0.950 . S
C428 C437 1.390 . S
C429 C428 1.387 . S
C429 C431 1.387 . S
H430 C437 0.950 . S
C431 C429 1.387 . S
C431 C433 1.390 . S
C431 H435 0.950 . S
H432 C428 0.950 . S
C433 C431 1.390 . S
C433 C434 1.387 . S
C433 H436 0.950 . S
C434 C433 1.387 . S
C434 C437 1.387 . S
H435 C431 0.950 . S
H436 C433 0.950 . S
C437 C428 1.390 . S
C437 H430 0.950 . S
C437 C434 1.387 . S
C319 C39 1.872 1_556 S
C324 C181 1.866 . S
C329 C234 1.781 . S
C334 C92 1.779 . S
C339 C128 1.824 . S
C344 C304 1.812 1_554 S
C349 C198 1.871 . S
C354 C22 1.867 . S
C359 C75 1.781 . S
C364 C251 1.779 . S
C369 C287 1.825 . S
C374 C145 1.810 . S
C379 C38 1.958 . S
C384 C144 1.963 . S
C389 C91 1.847 . S
C394 C188 1.825 . S
C399 C241 1.662 . S
C404 C135 1.659 . S
C409 C303 1.962 . S
C414 C197 1.958 . S
C419 C250 1.847 . S
C424 C29 1.825 . S
C429 C294 1.660 . S
C434 C82 1.663 . S
