# Generated by pormake.
# Topology vbr, (6)-cn, num edge types: 1
# Building blocks:
#     Node 0, Type 0, BuildingBlock: IZENUY_clean_sbu_0, # of connection points: 6
#     Node 1, Type 0, BuildingBlock: IZENUY_clean_sbu_0, # of connection points: 6
#     Node 2, Type 0, BuildingBlock: IZENUY_clean_sbu_0, # of connection points: 6
#     Node 3, Type 0, BuildingBlock: IZENUY_clean_sbu_0, # of connection points: 6
#     Node 4, Type 0, BuildingBlock: IZENUY_clean_sbu_0, # of connection points: 6
#     Node 5, Type 0, BuildingBlock: IZENUY_clean_sbu_0, # of connection points: 6
#     Node 6, Type 0, BuildingBlock: IZENUY_clean_sbu_0, # of connection points: 6
#     Node 7, Type 0, BuildingBlock: IZENUY_clean_sbu_0, # of connection points: 6
#     Node 8, Type 0, BuildingBlock: IZENUY_clean_sbu_0, # of connection points: 6
#     Node 9, Type 0, BuildingBlock: IZENUY_clean_sbu_0, # of connection points: 6
#     Node 10, Type 0, BuildingBlock: IZENUY_clean_sbu_0, # of connection points: 6
#     Node 11, Type 0, BuildingBlock: IZENUY_clean_sbu_0, # of connection points: 6
#     Node 12, Type 0, BuildingBlock: IZENUY_clean_sbu_0, # of connection points: 6
#     Node 13, Type 0, BuildingBlock: IZENUY_clean_sbu_0, # of connection points: 6
#     Node 14, Type 0, BuildingBlock: IZENUY_clean_sbu_0, # of connection points: 6
#     Node 15, Type 0, BuildingBlock: IZENUY_clean_sbu_0, # of connection points: 6
#     Edge 16, Type (0, 0), BuildingBlock: KIFKEQ_clean_linker_1, # of connection points: 2
#     Edge 17, Type (0, 0), BuildingBlock: KIFKEQ_clean_linker_1, # of connection points: 2
#     Edge 18, Type (0, 0), BuildingBlock: KIFKEQ_clean_linker_1, # of connection points: 2
#     Edge 19, Type (0, 0), BuildingBlock: KIFKEQ_clean_linker_1, # of connection points: 2
#     Edge 20, Type (0, 0), BuildingBlock: KIFKEQ_clean_linker_1, # of connection points: 2
#     Edge 21, Type (0, 0), BuildingBlock: KIFKEQ_clean_linker_1, # of connection points: 2
#     Edge 22, Type (0, 0), BuildingBlock: KIFKEQ_clean_linker_1, # of connection points: 2
#     Edge 23, Type (0, 0), BuildingBlock: KIFKEQ_clean_linker_1, # of connection points: 2
#     Edge 24, Type (0, 0), BuildingBlock: KIFKEQ_clean_linker_1, # of connection points: 2
#     Edge 25, Type (0, 0), BuildingBlock: KIFKEQ_clean_linker_1, # of connection points: 2
#     Edge 26, Type (0, 0), BuildingBlock: KIFKEQ_clean_linker_1, # of connection points: 2
#     Edge 27, Type (0, 0), BuildingBlock: KIFKEQ_clean_linker_1, # of connection points: 2
#     Edge 28, Type (0, 0), BuildingBlock: KIFKEQ_clean_linker_1, # of connection points: 2
#     Edge 29, Type (0, 0), BuildingBlock: KIFKEQ_clean_linker_1, # of connection points: 2
#     Edge 30, Type (0, 0), BuildingBlock: KIFKEQ_clean_linker_1, # of connection points: 2
#     Edge 31, Type (0, 0), BuildingBlock: KIFKEQ_clean_linker_1, # of connection points: 2
#     Edge 32, Type (0, 0), BuildingBlock: KIFKEQ_clean_linker_1, # of connection points: 2
#     Edge 33, Type (0, 0), BuildingBlock: KIFKEQ_clean_linker_1, # of connection points: 2
#     Edge 34, Type (0, 0), BuildingBlock: KIFKEQ_clean_linker_1, # of connection points: 2
#     Edge 35, Type (0, 0), BuildingBlock: KIFKEQ_clean_linker_1, # of connection points: 2
#     Edge 36, Type (0, 0), BuildingBlock: KIFKEQ_clean_linker_1, # of connection points: 2
#     Edge 37, Type (0, 0), BuildingBlock: KIFKEQ_clean_linker_1, # of connection points: 2
#     Edge 38, Type (0, 0), BuildingBlock: KIFKEQ_clean_linker_1, # of connection points: 2
#     Edge 39, Type (0, 0), BuildingBlock: KIFKEQ_clean_linker_1, # of connection points: 2
#     Edge 40, Type (0, 0), BuildingBlock: KIFKEQ_clean_linker_1, # of connection points: 2
#     Edge 41, Type (0, 0), BuildingBlock: KIFKEQ_clean_linker_1, # of connection points: 2
#     Edge 42, Type (0, 0), BuildingBlock: KIFKEQ_clean_linker_1, # of connection points: 2
#     Edge 43, Type (0, 0), BuildingBlock: KIFKEQ_clean_linker_1, # of connection points: 2
#     Edge 44, Type (0, 0), BuildingBlock: KIFKEQ_clean_linker_1, # of connection points: 2
#     Edge 45, Type (0, 0), BuildingBlock: KIFKEQ_clean_linker_1, # of connection points: 2
#     Edge 46, Type (0, 0), BuildingBlock: KIFKEQ_clean_linker_1, # of connection points: 2
#     Edge 47, Type (0, 0), BuildingBlock: KIFKEQ_clean_linker_1, # of connection points: 2
#     Edge 48, Type (0, 0), BuildingBlock: KIFKEQ_clean_linker_1, # of connection points: 2
#     Edge 49, Type (0, 0), BuildingBlock: KIFKEQ_clean_linker_1, # of connection points: 2
#     Edge 50, Type (0, 0), BuildingBlock: KIFKEQ_clean_linker_1, # of connection points: 2
#     Edge 51, Type (0, 0), BuildingBlock: KIFKEQ_clean_linker_1, # of connection points: 2
#     Edge 52, Type (0, 0), BuildingBlock: KIFKEQ_clean_linker_1, # of connection points: 2
#     Edge 53, Type (0, 0), BuildingBlock: KIFKEQ_clean_linker_1, # of connection points: 2
#     Edge 54, Type (0, 0), BuildingBlock: KIFKEQ_clean_linker_1, # of connection points: 2
#     Edge 55, Type (0, 0), BuildingBlock: KIFKEQ_clean_linker_1, # of connection points: 2
#     Edge 56, Type (0, 0), BuildingBlock: KIFKEQ_clean_linker_1, # of connection points: 2
#     Edge 57, Type (0, 0), BuildingBlock: KIFKEQ_clean_linker_1, # of connection points: 2
#     Edge 58, Type (0, 0), BuildingBlock: KIFKEQ_clean_linker_1, # of connection points: 2
#     Edge 59, Type (0, 0), BuildingBlock: KIFKEQ_clean_linker_1, # of connection points: 2
#     Edge 60, Type (0, 0), BuildingBlock: KIFKEQ_clean_linker_1, # of connection points: 2
#     Edge 61, Type (0, 0), BuildingBlock: KIFKEQ_clean_linker_1, # of connection points: 2
#     Edge 62, Type (0, 0), BuildingBlock: KIFKEQ_clean_linker_1, # of connection points: 2
#     Edge 63, Type (0, 0), BuildingBlock: KIFKEQ_clean_linker_1, # of connection points: 2
# Relax obj value: 0.289
# Max RMSD: 0.272
# Mean RMSD: 0.272
data_MOF--net-vbr--node1-IZENUY_clean_sbu_0--edge1-KIFKEQ_clean_linker_1
_symmetry_space_group_name_H-M    P1
_symmetry_Int_Tables_number       1
_symmetry_cell_setting            triclinic
loop_
_symmetry_equiv_pos_as_xyz
'x, y, z'
_cell_length_a     43.753831
_cell_length_b     28.997116
_cell_length_c     54.901571
_cell_angle_alpha  90.236611
_cell_angle_beta   89.896426
_cell_angle_gamma 90.242412
loop_
_atom_site_label
_atom_site_type_symbol
_atom_site_fract_x
_atom_site_fract_y
_atom_site_fract_z
_atom_type_partial_charge
Fe0 Fe 0.36411 0.18197 0.10993 0.0
Fe1 Fe 0.35878 0.09035 0.13814 0.0
O2 O 0.34202 0.14178 0.1269 0.0
Fe3 Fe 0.30263 0.15356 0.13172 0.0
O4 O 0.29498 0.15331 0.099 0.0
O5 O 0.33246 0.20142 0.09144 0.0
O6 O 0.37106 0.13964 0.0866 0.0
C7 C 0.37994 0.09861 0.08895 0.0
C8 C 0.33082 0.24177 0.13693 0.0
O9 O 0.38181 0.08005 0.10998 0.0
C10 C 0.31909 0.12272 0.17688 0.0
O11 O 0.40047 0.16969 0.12444 0.0
O12 O 0.38999 0.12084 0.15356 0.0
O13 O 0.30784 0.21633 0.13242 0.0
O14 O 0.35755 0.22776 0.13218 0.0
C15 C 0.30187 0.05579 0.12691 0.0
O16 O 0.33703 0.09262 0.16755 0.0
O17 O 0.30791 0.15456 0.16413 0.0
C18 C 0.40806 0.14915 0.14364 0.0
O19 O 0.33029 0.0537 0.12395 0.0
O20 O 0.28946 0.09334 0.13291 0.0
C21 C 0.30901 0.17977 0.08451 0.0
Fe22 Fe 0.22745 0.86579 0.63296 0.0
Fe23 Fe 0.16618 0.83549 0.61094 0.0
O24 O 0.18813 0.87698 0.62734 0.0
Fe25 Fe 0.1712 0.92949 0.63728 0.0
O26 O 0.19949 0.96411 0.62187 0.0
O27 O 0.24034 0.92652 0.63273 0.0
O28 O 0.23602 0.8622 0.6005 0.0
C29 C 0.22256 0.83434 0.58633 0.0
C30 C 0.21071 0.90209 0.67697 0.0
O31 O 0.19796 0.81482 0.59252 0.0
C32 C 0.12273 0.87059 0.6447 0.0
O33 O 0.22225 0.80302 0.635 0.0
O34 O 0.17257 0.79142 0.63376 0.0
O35 O 0.19287 0.93089 0.66668 0.0
O36 O 0.22168 0.86835 0.66537 0.0
C37 C 0.15001 0.91686 0.5885 0.0
O38 O 0.12981 0.84857 0.62568 0.0
O39 O 0.14049 0.9005 0.65357 0.0
C40 C 0.19912 0.77749 0.63886 0.0
O41 O 0.15925 0.87592 0.58694 0.0
O42 O 0.14785 0.93694 0.60916 0.0
C43 C 0.22775 0.96315 0.62552 0.0
Fe44 Fe 0.346 0.92975 0.88316 0.0
Fe45 Fe 0.29058 0.86428 0.88951 0.0
O46 O 0.33011 0.87681 0.89377 0.0
Fe47 Fe 0.35325 0.83631 0.90951 0.0
O48 O 0.36153 0.87772 0.93319 0.0
O49 O 0.3708 0.93854 0.91031 0.0
O50 O 0.31807 0.96394 0.8994 0.0
C51 C 0.28955 0.96126 0.89731 0.0
C52 C 0.39483 0.87251 0.87436 0.0
O53 O 0.27712 0.92422 0.89027 0.0
C54 C 0.31896 0.7767 0.88275 0.0
O55 O 0.32286 0.92971 0.85453 0.0
O56 O 0.29457 0.86643 0.8569 0.0
O57 O 0.38862 0.84997 0.89335 0.0
O58 O 0.37636 0.90165 0.86599 0.0
C59 C 0.29831 0.83437 0.93605 0.0
O60 O 0.29605 0.80184 0.88736 0.0
O61 O 0.34575 0.79106 0.88714 0.0
C62 C 0.3047 0.90021 0.84487 0.0
O63 O 0.28379 0.86113 0.9222 0.0
O64 O 0.32271 0.81539 0.92914 0.0
C65 C 0.3706 0.9188 0.93103 0.0
Fe66 Fe 0.17331 0.16914 0.41067 0.0
Fe67 Fe 0.18227 0.08153 0.37991 0.0
O68 O 0.19767 0.13213 0.39362 0.0
Fe69 Fe 0.23737 0.14467 0.39065 0.0
O70 O 0.24153 0.17132 0.4208 0.0
O71 O 0.1963 0.16371 0.43769 0.0
O72 O 0.14985 0.12215 0.42318 0.0
C73 C 0.15662 0.08007 0.42595 0.0
C74 C 0.21367 0.23197 0.38635 0.0
O75 O 0.17166 0.05872 0.40977 0.0
C76 C 0.22074 0.11054 0.34363 0.0
O77 O 0.14765 0.1778 0.38508 0.0
O78 O 0.14379 0.10487 0.37526 0.0
O79 O 0.22988 0.20053 0.37696 0.0
O80 O 0.1931 0.22245 0.40183 0.0
C81 C 0.23993 0.05106 0.39615 0.0
O82 O 0.19318 0.10124 0.34928 0.0
O83 O 0.24025 0.12059 0.35987 0.0
C84 C 0.13312 0.14533 0.37502 0.0
O85 O 0.21713 0.04776 0.38223 0.0
O86 O 0.24857 0.08982 0.4042 0.0
C87 C 0.22438 0.17241 0.43934 0.0
Fe88 Fe 0.66945 0.92653 0.88957 0.0
Fe89 Fe 0.6622 0.83474 0.91734 0.0
O90 O 0.68542 0.875 0.90134 0.0
Fe91 Fe 0.72508 0.86333 0.89813 0.0
O92 O 0.73833 0.92386 0.8976 0.0
O93 O 0.69682 0.9628 0.90506 0.0
O94 O 0.64486 0.93671 0.9168 0.0
C95 C 0.6453 0.91782 0.93778 0.0
C96 C 0.71151 0.89445 0.85237 0.0
O97 O 0.65381 0.87673 0.94044 0.0
C98 C 0.69702 0.77504 0.89171 0.0
O99 O 0.63927 0.89642 0.87283 0.0
O100 O 0.62685 0.84738 0.90136 0.0
O101 O 0.72201 0.86266 0.86551 0.0
O102 O 0.69299 0.92446 0.86104 0.0
C103 C 0.71581 0.83613 0.94495 0.0
O104 O 0.67008 0.78928 0.8953 0.0
O105 O 0.71982 0.80039 0.89701 0.0
C106 C 0.62049 0.8683 0.88198 0.0
O107 O 0.69261 0.81493 0.9371 0.0
O108 O 0.73052 0.86315 0.93115 0.0
C109 C 0.72531 0.96128 0.90309 0.0
Fe110 Fe 0.86625 0.16606 0.41998 0.0
Fe111 Fe 0.80246 0.14197 0.39942 0.0
O112 O 0.84211 0.13024 0.40187 0.0
Fe113 Fe 0.85767 0.08128 0.38679 0.0
O114 O 0.86798 0.05633 0.41622 0.0
O115 O 0.89009 0.11853 0.43063 0.0
O116 O 0.84321 0.15773 0.44707 0.0
C117 C 0.81503 0.16591 0.44863 0.0
C118 C 0.90596 0.14731 0.38297 0.0
O119 O 0.79828 0.16599 0.42996 0.0
C120 C 0.81871 0.11221 0.35156 0.0
O121 O 0.84623 0.21939 0.41269 0.0
O122 O 0.80986 0.19914 0.387 0.0
O123 O 0.89597 0.10629 0.38235 0.0
O124 O 0.89167 0.17798 0.39459 0.0
C125 C 0.80079 0.04781 0.40297 0.0
O126 O 0.79955 0.12048 0.3683 0.0
O127 O 0.84643 0.10306 0.35663 0.0
C128 C 0.82619 0.22988 0.3971 0.0
O129 O 0.7917 0.08566 0.41181 0.0
O130 O 0.82311 0.04652 0.38847 0.0
C131 C 0.88225 0.07682 0.43316 0.0
Fe132 Fe 0.68722 0.0822 0.14701 0.0
Fe133 Fe 0.67647 0.16752 0.11524 0.0
O134 O 0.70136 0.13349 0.13329 0.0
Fe135 Fe 0.7403 0.1497 0.13715 0.0
O136 O 0.75427 0.09501 0.12454 0.0
O137 O 0.72322 0.05118 0.14578 0.0
O138 O 0.67865 0.05756 0.11695 0.0
C139 C 0.66292 0.07694 0.1006 0.0
C140 C 0.72271 0.11773 0.18397 0.0
O141 O 0.65462 0.11838 0.10326 0.0
C142 C 0.71354 0.23525 0.1393 0.0
O143 O 0.64781 0.1029 0.15075 0.0
O144 O 0.64981 0.1757 0.14041 0.0
O145 O 0.74259 0.12808 0.16814 0.0
O146 O 0.69623 0.10358 0.17778 0.0
C147 C 0.72866 0.17341 0.08786 0.0
O148 O 0.69422 0.22266 0.12346 0.0
O149 O 0.73014 0.20592 0.14993 0.0
C150 C 0.63606 0.14272 0.1507 0.0
O151 O 0.70079 0.16227 0.08855 0.0
O152 O 0.74461 0.17467 0.10699 0.0
C153 C 0.74645 0.05578 0.13239 0.0
Fe154 Fe 0.85385 0.84733 0.61573 0.0
Fe155 Fe 0.79154 0.86916 0.63927 0.0
O156 O 0.83068 0.88277 0.63464 0.0
Fe157 Fe 0.84665 0.93292 0.64841 0.0
O158 O 0.85482 0.95733 0.61824 0.0
O159 O 0.87661 0.89511 0.60365 0.0
O160 O 0.82877 0.85425 0.58966 0.0
C161 C 0.80074 0.844 0.5896 0.0
C162 C 0.8958 0.86889 0.65058 0.0
O163 O 0.78552 0.84363 0.60917 0.0
C164 C 0.81088 0.90192 0.68594 0.0
O165 O 0.83498 0.79342 0.62427 0.0
O166 O 0.80078 0.81285 0.65188 0.0
O167 O 0.88549 0.9096 0.65117 0.0
O168 O 0.88099 0.83721 0.64006 0.0
C169 C 0.78723 0.96275 0.63603 0.0
O170 O 0.79057 0.8917 0.67039 0.0
O171 O 0.83801 0.91183 0.6793 0.0
C172 C 0.81653 0.78247 0.64106 0.0
O173 O 0.77899 0.92457 0.62694 0.0
O174 O 0.8114 0.96594 0.64837 0.0
C175 C 0.86922 0.93694 0.60132 0.0
Fe176 Fe 0.86229 0.67827 0.11129 0.0
Fe177 Fe 0.85708 0.58645 0.13919 0.0
O178 O 0.84101 0.63969 0.12975 0.0
Fe179 Fe 0.80312 0.65427 0.13819 0.0
O180 O 0.79074 0.65581 0.10652 0.0
O181 O 0.82922 0.69971 0.09489 0.0
O182 O 0.86512 0.6357 0.08762 0.0
C183 C 0.87359 0.59449 0.08932 0.0
C184 C 0.83426 0.74111 0.14013 0.0
O185 O 0.87803 0.57612 0.11005 0.0
C186 C 0.82383 0.61998 0.18103 0.0
O187 O 0.89959 0.66301 0.12384 0.0
O188 O 0.88984 0.61453 0.15347 0.0
O189 O 0.81018 0.71679 0.13846 0.0
O190 O 0.85977 0.72479 0.1336 0.0
C191 C 0.79872 0.55696 0.13133 0.0
O192 O 0.83775 0.5877 0.16968 0.0
O193 O 0.8134 0.65428 0.16983 0.0
C194 C 0.9078 0.64215 0.14291 0.0
O195 O 0.82636 0.55344 0.12555 0.0
O196 O 0.78862 0.59428 0.14019 0.0
C197 C 0.80348 0.6814 0.09086 0.0
Fe198 Fe 0.66608 0.34528 0.60928 0.0
Fe199 Fe 0.66918 0.43004 0.64299 0.0
O200 O 0.68713 0.38123 0.62961 0.0
Fe201 Fe 0.7261 0.3695 0.63605 0.0
O202 O 0.73489 0.34613 0.60607 0.0
O203 O 0.69306 0.35461 0.58455 0.0
O204 O 0.64333 0.39222 0.59673 0.0
C205 C 0.65033 0.43438 0.59503 0.0
C206 C 0.70242 0.28143 0.6356 0.0
O207 O 0.66292 0.45496 0.61276 0.0
C208 C 0.70185 0.39683 0.6817 0.0
O209 O 0.63725 0.33257 0.6322 0.0
O210 O 0.63085 0.40431 0.64392 0.0
O211 O 0.71695 0.31202 0.64739 0.0
O212 O 0.68521 0.29214 0.61807 0.0
C213 C 0.72815 0.46391 0.63283 0.0
O214 O 0.67566 0.40835 0.6739 0.0
O215 O 0.72403 0.39006 0.66738 0.0
C216 C 0.62168 0.36291 0.64301 0.0
O217 O 0.70354 0.46508 0.64474 0.0
O218 O 0.73872 0.42608 0.62509 0.0
C219 C 0.7213 0.34635 0.58581 0.0
Fe220 Fe 0.85596 0.34598 0.91078 0.0
Fe221 Fe 0.84436 0.43121 0.87909 0.0
O222 O 0.83035 0.3808 0.89381 0.0
Fe223 Fe 0.79089 0.36652 0.89191 0.0
O224 O 0.78802 0.34256 0.92251 0.0
O225 O 0.83373 0.3518 0.93837 0.0
O226 O 0.8788 0.39502 0.92193 0.0
C227 C 0.87064 0.4366 0.9247 0.0
C228 C 0.8159 0.27976 0.88861 0.0
O229 O 0.85471 0.45623 0.90856 0.0
C230 C 0.80645 0.39517 0.84406 0.0
O231 O 0.88085 0.33699 0.88459 0.0
O232 O 0.88332 0.40961 0.87428 0.0
O233 O 0.7989 0.3099 0.87915 0.0
O234 O 0.837 0.29115 0.90324 0.0
C235 C 0.78679 0.46045 0.89586 0.0
O236 O 0.83345 0.40879 0.84898 0.0
O237 O 0.78713 0.38727 0.86076 0.0
C238 C 0.89461 0.36954 0.87401 0.0
O239 O 0.80885 0.46343 0.88117 0.0
O240 O 0.77907 0.42202 0.90468 0.0
C241 C 0.80571 0.34284 0.94066 0.0
Fe242 Fe 0.67206 0.66427 0.41332 0.0
Fe243 Fe 0.68416 0.57873 0.38164 0.0
O244 O 0.69797 0.62914 0.39666 0.0
Fe245 Fe 0.73749 0.64287 0.3954 0.0
O246 O 0.73962 0.66733 0.42609 0.0
O247 O 0.69349 0.65882 0.44139 0.0
O248 O 0.64872 0.61556 0.42379 0.0
C249 C 0.65714 0.57434 0.42704 0.0
C250 C 0.71268 0.72973 0.39179 0.0
O251 O 0.6732 0.55412 0.41105 0.0
C252 C 0.72328 0.6133 0.34713 0.0
O253 O 0.64811 0.67329 0.3867 0.0
O254 O 0.64546 0.60056 0.37639 0.0
O255 O 0.7301 0.69958 0.38259 0.0
O256 O 0.69136 0.71853 0.40621 0.0
C257 C 0.74049 0.54886 0.39951 0.0
O258 O 0.69592 0.60073 0.35167 0.0
O259 O 0.74201 0.6215 0.36424 0.0
C260 C 0.63459 0.64084 0.37575 0.0
O261 O 0.7194 0.54641 0.38403 0.0
O262 O 0.74846 0.58727 0.40841 0.0
C263 C 0.72149 0.66788 0.44403 0.0
Fe264 Fe 0.17066 0.42725 0.88701 0.0
Fe265 Fe 0.16594 0.33853 0.91781 0.0
O266 O 0.18759 0.37674 0.89921 0.0
Fe267 Fe 0.22663 0.36418 0.8933 0.0
O268 O 0.23971 0.42439 0.8906 0.0
O269 O 0.19934 0.46451 0.90041 0.0
O270 O 0.14776 0.43975 0.91481 0.0
C271 C 0.14956 0.42344 0.93629 0.0
C272 C 0.20897 0.39238 0.8482 0.0
O273 O 0.15921 0.38324 0.94 0.0
C274 C 0.19827 0.27573 0.89161 0.0
O275 O 0.13956 0.39513 0.8725 0.0
O276 O 0.12936 0.34923 0.90311 0.0
O277 O 0.21965 0.36049 0.86111 0.0
O278 O 0.19202 0.42358 0.85755 0.0
C279 C 0.22306 0.34159 0.94115 0.0
O280 O 0.17185 0.29015 0.89701 0.0
O281 O 0.22142 0.30159 0.89428 0.0
C282 C 0.12172 0.36752 0.88323 0.0
O283 O 0.19817 0.32137 0.93648 0.0
O284 O 0.23616 0.36656 0.92547 0.0
C285 C 0.22766 0.46211 0.89689 0.0
Fe286 Fe 0.30278 0.64978 0.39036 0.0
Fe287 Fe 0.35972 0.58731 0.38747 0.0
O288 O 0.34186 0.63925 0.39693 0.0
Fe289 Fe 0.36261 0.68112 0.41385 0.0
O290 O 0.32969 0.70179 0.43068 0.0
O291 O 0.29306 0.65223 0.42291 0.0
O292 O 0.2904 0.58874 0.38989 0.0
C293 C 0.30293 0.55225 0.39742 0.0
C294 C 0.33083 0.73845 0.38499 0.0
O295 O 0.33103 0.55177 0.40188 0.0
C296 C 0.40824 0.64694 0.38191 0.0
O297 O 0.31029 0.64817 0.35805 0.0
O298 O 0.33947 0.5858 0.35754 0.0
O299 O 0.35729 0.72456 0.3905 0.0
O300 O 0.30765 0.7128 0.38867 0.0
C301 C 0.37757 0.60015 0.43695 0.0
O302 O 0.39093 0.61743 0.37209 0.0
O303 O 0.39989 0.66798 0.40088 0.0
C304 C 0.32298 0.61555 0.34664 0.0
O305 O 0.38165 0.58045 0.41636 0.0
O306 O 0.36811 0.64103 0.43821 0.0
C307 C 0.30618 0.68005 0.43739 0.0
Fe308 Fe 0.1832 0.58735 0.14258 0.0
Fe309 Fe 0.17526 0.68079 0.11628 0.0
O310 O 0.19861 0.64039 0.13182 0.0
Fe311 Fe 0.23813 0.65322 0.13575 0.0
O312 O 0.25182 0.59336 0.13604 0.0
O313 O 0.2113 0.55348 0.12636 0.0
O314 O 0.15856 0.57781 0.1156 0.0
C315 C 0.15779 0.59788 0.09502 0.0
C316 C 0.22322 0.61966 0.18083 0.0
O317 O 0.16621 0.63927 0.09273 0.0
C318 C 0.21019 0.74094 0.1421 0.0
O319 O 0.15253 0.61493 0.15971 0.0
O320 O 0.14025 0.66751 0.1328 0.0
O321 O 0.23385 0.65281 0.16849 0.0
O322 O 0.20642 0.5885 0.17108 0.0
C323 C 0.22914 0.68019 0.08875 0.0
O324 O 0.1833 0.72631 0.13845 0.0
O325 O 0.2329 0.71577 0.13697 0.0
C326 C 0.13406 0.64432 0.15155 0.0
O327 O 0.20569 0.70086 0.09644 0.0
O328 O 0.24437 0.65439 0.10275 0.0
C329 C 0.23971 0.55612 0.129 0.0
Fe330 Fe 0.34638 0.43275 0.64552 0.0
Fe331 Fe 0.35359 0.34608 0.61366 0.0
O332 O 0.33031 0.3826 0.6319 0.0
Fe333 Fe 0.29089 0.36977 0.63615 0.0
O334 O 0.27904 0.42448 0.62284 0.0
O335 O 0.31148 0.46669 0.64393 0.0
O336 O 0.35607 0.45616 0.61563 0.0
C337 C 0.37051 0.43534 0.59893 0.0
C338 C 0.30922 0.4038 0.68261 0.0
O339 O 0.37687 0.39301 0.60099 0.0
C340 C 0.31505 0.28293 0.63936 0.0
O341 O 0.3848 0.40862 0.64924 0.0
O342 O 0.38031 0.33618 0.63834 0.0
O343 O 0.28912 0.39411 0.66684 0.0
O344 O 0.33657 0.41277 0.67633 0.0
C345 C 0.30111 0.34296 0.58699 0.0
O346 O 0.33403 0.29278 0.6227 0.0
O347 O 0.29947 0.3141 0.64968 0.0
C348 C 0.39512 0.36791 0.64878 0.0
O349 O 0.32911 0.35286 0.58737 0.0
O350 O 0.28548 0.34274 0.60634 0.0
C351 C 0.28816 0.4633 0.63051 0.0
H352 H 0.34093 0.21064 0.04615 0.0
H353 H 0.2488 0.18056 0.06981 0.0
H354 H 0.32162 0.25174 1.01137 0.0
H355 H 0.22903 0.21971 0.03368 0.0
H356 H 0.20365 0.34265 0.98763 0.0
H357 H 0.22429 0.29727 0.02106 0.0
H358 H 0.29758 0.25103 0.97395 0.0
H359 H 0.27773 0.29886 0.94123 0.0
C360 C 0.3164 0.21183 0.04348 0.0
C361 C 0.29628 0.19327 0.06088 0.0
C362 C 0.30531 0.23521 0.02338 0.0
C363 C 0.27375 0.23989 0.01991 0.0
C364 C 0.25352 0.21787 0.03625 0.0
C365 C 0.26474 0.19475 0.05669 0.0
C366 C 0.22482 0.324 0.9849 0.0
C367 C 0.23969 0.32492 0.96229 0.0
C368 C 0.23622 0.29713 1.00376 0.0
C369 C 0.26228 0.26975 1.00009 0.0
C370 C 0.27767 0.27204 0.97756 0.0
C371 C 0.26659 0.29976 0.95887 0.0
H372 H 0.33784 0.71379 0.47527 0.0
H373 H 0.24609 0.67712 0.4534 0.0
H374 H 0.31852 0.75131 0.51124 0.0
H375 H 0.22635 0.71286 0.49084 0.0
H376 H 0.19923 0.83114 0.54109 0.0
H377 H 0.21875 0.78784 0.50632 0.0
H378 H 0.29684 0.74684 0.54931 0.0
H379 H 0.27793 0.79298 0.58338 0.0
C380 C 0.31339 0.7129 0.47848 0.0
C381 C 0.29338 0.69326 0.46127 0.0
C382 C 0.3023 0.73416 0.49936 0.0
C383 C 0.27081 0.7358 0.50395 0.0
C384 C 0.25076 0.71326 0.48757 0.0
C385 C 0.26198 0.69216 0.46632 0.0
C386 C 0.22105 0.81399 0.54267 0.0
C387 C 0.23762 0.81635 0.56448 0.0
C388 C 0.23191 0.78825 0.523 0.0
C389 C 0.25923 0.76323 0.52498 0.0
C390 C 0.27598 0.7662 0.54688 0.0
C391 C 0.26538 0.7929 0.56638 0.0
H392 H 0.28812 0.68379 0.07079 0.0
H393 H 0.19372 0.70633 0.05151 0.0
H394 H 0.30407 0.71997 0.03248 0.0
H395 H 0.20927 0.74432 0.01448 0.0
H396 H 0.24552 0.78614 0.94058 0.0
H397 H 0.23005 0.74024 0.97573 0.0
H398 H 0.30631 0.79575 0.01672 0.0
H399 H 0.32243 0.83919 0.98097 0.0
C400 C 0.27087 0.69575 0.05821 0.0
C401 C 0.23978 0.69291 0.06422 0.0
C402 C 0.2799 0.71713 0.03648 0.0
C403 C 0.25795 0.73599 0.02057 0.0
C404 C 0.22687 0.73016 0.02606 0.0
C405 C 0.21794 0.70862 0.04747 0.0
C406 C 0.25832 0.78931 0.9574 0.0
C407 C 0.28464 0.81682 0.95848 0.0
C408 C 0.24973 0.76277 0.97748 0.0
C409 C 0.26711 0.76387 0.99908 0.0
C410 C 0.29282 0.79304 1.00026 0.0
C411 C 0.30168 0.81878 0.98004 0.0
H412 H 0.25209 0.28553 0.58451 0.0
H413 H 0.32168 0.3499 0.54002 0.0
H414 H 0.23467 0.24118 0.54974 0.0
H415 H 0.30312 0.30699 0.5046 0.0
H416 H 0.28385 0.18944 0.4521 0.0
H417 H 0.30203 0.23135 0.48788 0.0
H418 H 0.20877 0.24615 0.51292 0.0
H419 H 0.19092 0.20249 0.47807 0.0
C420 C 0.26319 0.29109 0.5671 0.0
C421 C 0.28819 0.32136 0.56495 0.0
C422 C 0.25317 0.26558 0.54711 0.0
C423 C 0.26751 0.27034 0.52433 0.0
C424 C 0.29195 0.30175 0.52199 0.0
C425 C 0.30235 0.32677 0.54217 0.0
C426 C 0.26734 0.20104 0.46549 0.0
C427 C 0.23598 0.19259 0.46225 0.0
C428 C 0.2777 0.22557 0.48584 0.0
C429 C 0.25685 0.2426 0.50318 0.0
C430 C 0.22556 0.23308 0.50016 0.0
C431 C 0.21529 0.20803 0.48008 0.0
H432 H 0.77423 0.84478 0.96327 0.0
H433 H 0.68371 0.79434 0.9806 0.0
H434 H 0.79386 0.80791 1.00006 0.0
H435 H 0.70331 0.75577 0.01615 0.0
H436 H 0.74545 0.71503 0.08881 0.0
H437 H 0.72394 0.76 0.05542 0.0
H438 H 0.80407 0.73091 1.01174 0.0
H439 H 0.8259 0.6885 0.04555 0.0
C440 C 0.75854 0.82637 0.97505 0.0
C441 C 0.72763 0.8217 0.96884 0.0
C442 C 0.76976 0.80471 0.99593 0.0
C443 C 0.75025 0.77793 1.01078 0.0
C444 C 0.71901 0.77606 1.00528 0.0
C445 C 0.70783 0.79793 0.98469 0.0
C446 C 0.75792 0.71741 0.07179 0.0
C447 C 0.78702 0.69795 0.06947 0.0
C448 C 0.74584 0.74346 0.05274 0.0
C449 C 0.76255 0.7498 0.03101 0.0
C450 C 0.79098 0.72803 0.02843 0.0
C451 C 0.8032 0.70283 0.04756 0.0
H452 H 0.70094 0.33757 0.53864 0.0
H453 H 0.77789 0.30793 0.5853 0.0
H454 H 0.72478 0.29292 0.50601 0.0
H455 H 0.80064 0.26172 0.55349 0.0
H456 H 0.84645 0.2124 0.48385 0.0
H457 H 0.82497 0.26062 0.51581 0.0
H458 H 0.73409 0.21464 0.49612 0.0
H459 H 0.75565 0.16821 0.46332 0.0
C460 C 0.723 0.32192 0.54187 0.0
C461 C 0.73737 0.32617 0.56462 0.0
C462 C 0.73649 0.29579 0.52331 0.0
C463 C 0.76442 0.27299 0.52724 0.0
C464 C 0.77931 0.27901 0.54966 0.0
C465 C 0.76611 0.30557 0.568 0.0
C466 C 0.82193 0.21188 0.48669 0.0
C467 C 0.8027 0.18657 0.47112 0.0
C468 C 0.80955 0.23971 0.50497 0.0
C469 C 0.7777 0.24214 0.50835 0.0
C470 C 0.75863 0.21471 0.49359 0.0
C471 C 0.77099 0.1875 0.47505 0.0
H472 H 0.77976 0.22631 0.08461 0.0
H473 H 0.70584 0.1703 0.0413 0.0
H474 H 0.79756 0.27026 0.05011 0.0
H475 H 0.7248 0.21294 1.00602 0.0
H476 H 0.74651 0.33183 0.9554 0.0
H477 H 0.72826 0.28969 0.99092 0.0
H478 H 0.82176 0.26441 1.01239 0.0
H479 H 0.83983 0.30827 0.97771 0.0
C480 C 0.76768 0.22249 0.06751 0.0
C481 C 0.74137 0.19469 0.06568 0.0
C482 C 0.77799 0.24776 0.04765 0.0
C483 C 0.76261 0.2453 0.02527 0.0
C484 C 0.73682 0.21633 0.02315 0.0
C485 C 0.72616 0.19148 0.04324 0.0
C486 C 0.7631 0.31792 0.96799 0.0
C487 C 0.79458 0.32344 0.96381 0.0
C488 C 0.75266 0.29324 0.98815 0.0
C489 C 0.77352 0.27313 1.00436 0.0
C490 C 0.805 0.27986 1.00048 0.0
C491 C 0.81541 0.30509 0.98057 0.0
H492 H 0.78039 0.6779 0.4595 0.0
H493 H 0.68705 0.7059 0.48044 0.0
H494 H 0.79857 0.7219 0.49449 0.0
H495 H 0.70512 0.75159 0.51475 0.0
H496 H 0.74757 0.79511 0.58686 0.0
H497 H 0.72859 0.74997 0.55291 0.0
H498 H 0.80335 0.79905 0.50824 0.0
H499 H 0.82329 0.84281 0.54285 0.0
C500 C 0.76375 0.69319 0.47169 0.0
C501 C 0.73229 0.68834 0.4672 0.0
C502 C 0.77416 0.71899 0.49158 0.0
C503 C 0.75337 0.74105 0.5073 0.0
C504 C 0.72186 0.73484 0.50322 0.0
C505 C 0.71144 0.70851 0.48352 0.0
C506 C 0.75984 0.79686 0.56973 0.0
C507 C 0.78705 0.82257 0.56762 0.0
C508 C 0.74885 0.77089 0.55016 0.0
C509 C 0.7645 0.77041 0.5278 0.0
C510 C 0.79107 0.79767 0.52536 0.0
C511 C 0.80233 0.82325 0.5451 0.0
H512 H 0.3684 0.88722 0.9778 0.0
H513 H 0.39299 0.00782 0.93618 0.0
H514 H 0.3756 0.92969 0.01528 0.0
H515 H 0.40231 0.05007 0.97403 0.0
H516 H 0.37324 0.1287 0.04233 0.0
H517 H 0.37605 0.08547 1.00493 0.0
H518 H 0.40475 0.96505 0.04491 0.0
H519 H 0.40014 0.00843 0.08308 0.0
C520 C 0.37593 0.92273 0.97658 0.0
C521 C 0.37964 0.94412 0.95373 0.0
C522 C 0.38044 0.94717 0.99832 0.0
C523 C 0.38933 0.99384 0.99811 0.0
C524 C 0.39469 0.0146 0.9752 0.0
C525 C 0.38966 0.99022 0.95334 0.0
C526 C 0.38052 0.0931 0.04335 0.0
C527 C 0.38633 0.07218 0.06603 0.0
C528 C 0.3824 0.06815 0.02158 0.0
C529 C 0.39059 0.02133 0.02146 0.0
C530 C 0.39775 1.00076 0.04407 0.0
C531 C 0.39544 0.02576 0.06607 0.0
H532 H 0.12964 1.00657 0.58061 0.0
H533 H 0.1567 0.88255 0.54271 0.0
H534 H 0.12493 0.04601 0.54147 0.0
H535 H 0.15498 0.92193 0.5046 0.0
H536 H 0.14074 0.98959 0.43377 0.0
H537 H 0.13176 0.95169 0.47259 0.0
H538 H 0.14944 0.08069 0.51015 0.0
H539 H 0.15532 0.11878 0.47115 0.0
C540 C 0.13451 0.98765 0.56402 0.0
C541 C 0.14367 0.94128 0.56507 0.0
C542 C 0.13224 0.01043 0.54143 0.0
C543 C 0.13971 0.98773 0.5193 0.0
C544 C 0.1482 0.94106 0.52065 0.0
C545 C 0.14966 0.91826 0.54293 0.0
C546 C 0.14215 0.00982 0.45037 0.0
C547 C 0.14871 0.05712 0.44934 0.0
C548 C 0.13742 0.98802 0.47286 0.0
C549 C 0.14048 0.01245 0.49512 0.0
C550 C 0.14636 0.06023 0.49382 0.0
C551 C 0.14998 0.08226 0.47129 0.0
H552 H 0.62669 0.88321 0.98132 0.0
H553 H 0.65046 0.01141 0.94619 0.0
H554 H 0.62741 0.92141 0.0208 0.0
H555 H 0.65136 0.04991 0.98604 0.0
H556 H 0.67669 0.98794 0.08671 0.0
H557 H 0.66764 0.95157 0.04713 0.0
H558 H 0.62236 0.07462 0.02221 0.0
H559 H 0.63152 0.11107 0.06157 0.0
C560 C 0.63148 0.91989 0.98196 0.0
C561 C 0.63855 0.94421 0.96049 0.0
C562 C 0.63222 0.94168 1.00471 0.0
C563 C 0.64003 0.98856 1.00676 0.0
C564 C 0.64518 0.01374 0.98517 0.0
C565 C 0.64447 0.99179 0.96227 0.0
C566 C 0.66442 1.00702 0.07294 0.0
C567 C 0.65476 0.05241 0.07752 0.0
C568 C 0.65916 0.98615 0.05019 0.0
C569 C 0.64426 0.01017 0.03136 0.0
C570 C 0.63417 0.05524 0.03611 0.0
C571 C 0.63924 0.07598 0.05886 0.0
H572 H 0.89733 0.89958 0.56148 0.0
H573 H 0.85634 0.02618 0.58713 0.0
H574 H 0.90357 0.93269 0.52121 0.0
H575 H 0.86284 0.05949 0.54646 0.0
H576 H 0.90333 0.11649 0.47524 0.0
H577 H 0.9028 0.08435 0.51619 0.0
H578 H 0.86873 0.95526 0.48751 0.0
H579 H 0.86906 0.98742 0.44641 0.0
C580 C 0.88997 0.93478 0.55869 0.0
C581 C 0.87632 0.96018 0.57775 0.0
C582 C 0.89337 0.9536 0.53543 0.0
C583 C 0.88351 0.99858 0.53048 0.0
C584 C 0.87086 0.02478 0.54969 0.0
C585 C 0.86715 1.00571 0.57302 0.0
C586 C 0.8962 0.08095 0.47751 0.0
C587 C 0.8864 0.05449 0.45735 0.0
C588 C 0.89559 0.06273 0.5011 0.0
C589 C 0.88554 0.01736 0.50521 0.0
C590 C 0.87682 0.99028 0.48499 0.0
C591 C 0.87707 0.00868 0.46138 0.0
H592 H 0.83807 0.60493 0.04996 0.0
H593 H 0.91358 0.52394 0.07616 0.0
H594 H 0.84129 0.56773 1.01067 0.0
H595 H 0.91768 0.48684 0.03582 0.0
H596 H 0.89098 0.39866 0.96728 0.0
H597 H 0.89433 0.43516 1.00723 0.0
H598 H 0.87028 0.56587 0.97511 0.0
H599 H 0.86552 0.52882 0.93541 0.0
C600 C 0.85576 0.57942 0.04717 0.0
C601 C 0.87591 0.56801 0.06613 0.0
C602 C 0.85777 0.55819 0.02443 0.0
C603 C 0.88028 0.52497 0.01958 0.0
C604 C 0.90006 0.51235 0.03878 0.0
C605 C 0.89778 0.53352 0.06191 0.0
C606 C 0.88686 0.43539 0.96865 0.0
C607 C 0.87776 0.46072 0.94805 0.0
C608 C 0.88887 0.4564 0.99167 0.0
C609 C 0.88207 0.50344 0.9947 0.0
C610 C 0.87482 0.52928 0.97376 0.0
C611 C 0.87239 0.50815 0.95084 0.0
H612 H 0.6312 0.61368 0.46736 0.0
H613 H 0.66914 0.48526 0.44124 0.0
H614 H 0.62658 0.58145 0.5081 0.0
H615 H 0.66433 0.453 0.48217 0.0
H616 H 0.62634 0.39696 0.55353 0.0
H617 H 0.62493 0.43011 0.51297 0.0
H618 H 0.66296 0.55712 0.54109 0.0
H619 H 0.6646 0.5238 0.58202 0.0
C620 C 0.63811 0.57827 0.47015 0.0
C621 C 0.65044 0.55201 0.45086 0.0
C622 C 0.63572 0.56001 0.49364 0.0
C623 C 0.64524 0.5148 0.49845 0.0
C624 C 0.65657 0.4879 0.47903 0.0
C625 C 0.65931 0.50636 0.45554 0.0
C626 C 0.63406 0.43223 0.55128 0.0
C627 C 0.64558 0.45769 0.5712 0.0
C628 C 0.63346 0.45105 0.52789 0.0
C629 C 0.64407 0.49606 0.52371 0.0
C630 C 0.65445 0.52236 0.54373 0.0
C631 C 0.65536 0.50331 0.5672 0.0
H632 H 0.15903 0.50448 0.08682 0.0
H633 H 0.13733 0.63331 0.05195 0.0
H634 H 0.15244 0.46424 0.04816 0.0
H635 H 0.12923 0.59306 1.01352 0.0
H636 H 0.15788 0.51645 0.9431 0.0
H637 H 0.1556 0.55865 0.98163 0.0
H638 H 0.1215 0.43616 0.01742 0.0
H639 H 0.12543 0.39386 0.97921 0.0
C640 C 0.15196 0.52404 0.07105 0.0
C641 C 0.14871 0.57214 0.07258 0.0
C642 C 0.1481 0.50094 0.04872 0.0
C643 C 0.14042 0.52516 0.02732 0.0
C644 C 0.13581 0.57308 0.02925 0.0
C645 C 0.14013 0.59621 0.05146 0.0
C646 C 0.14923 0.49897 0.95911 0.0
C647 C 0.14184 0.45183 0.95806 0.0
C648 C 0.14793 0.52313 0.98134 0.0
C649 C 0.13875 0.50092 1.00305 0.0
C650 C 0.12955 0.4544 1.00148 0.0
C651 C 0.13139 0.43017 0.97941 0.0
H652 H 0.38037 0.39691 0.55415 0.0
H653 H 0.3778 0.52826 0.59129 0.0
H654 H 0.38591 0.43591 0.51526 0.0
H655 H 0.38547 0.56753 0.55263 0.0
H656 H 0.35526 0.62581 0.48093 0.0
H657 H 0.35765 0.58651 0.51921 0.0
H658 H 0.41221 0.47904 0.48614 0.0
H659 H 0.40822 0.51813 0.44667 0.0
C660 C 0.38182 0.43422 0.55408 0.0
C661 C 0.37843 0.45949 0.57588 0.0
C662 C 0.38516 0.45671 0.53166 0.0
C663 C 0.38573 0.50519 0.53041 0.0
C664 C 0.38416 0.53025 0.55251 0.0
C665 C 0.38008 0.50777 0.57485 0.0
C666 C 0.36816 0.59405 0.48164 0.0
C667 C 0.38181 0.5755 0.46053 0.0
C668 C 0.36975 0.57145 0.50394 0.0
C669 C 0.38555 0.52961 0.50628 0.0
C670 C 0.39959 0.51099 0.4852 0.0
C671 C 0.39754 0.53351 0.46253 0.0
H672 H 0.32601 0.05093 0.20971 0.0
H673 H 0.28289 0.18376 0.20126 0.0
H674 H 0.30002 0.04179 0.24913 0.0
H675 H 0.25709 0.17427 0.23998 0.0
H676 H 0.19217 0.12768 0.29969 0.0
H677 H 0.21592 0.12641 0.25904 0.0
H678 H 0.30018 0.07801 0.29054 0.0
H679 H 0.27669 0.07932 0.33071 0.0
C680 C 0.31134 0.0783 0.21627 0.0
C681 C 0.30668 0.11802 0.20214 0.0
C682 C 0.29627 0.07296 0.23878 0.0
C683 C 0.27596 0.10696 0.24751 0.0
C684 C 0.27188 0.14688 0.23359 0.0
C685 C 0.28707 0.15245 0.2114 0.0
C686 C 0.21555 0.11604 0.29779 0.0
C687 C 0.23259 0.1041 0.31844 0.0
C688 C 0.22927 0.1156 0.27458 0.0
C689 C 0.26011 0.10243 0.27155 0.0
C690 C 0.27645 0.08809 0.2921 0.0
C691 C 0.26296 0.0892 0.31519 0.0
H692 H 0.24918 0.87087 0.82891 0.0
H693 H 0.32866 0.94739 0.80527 0.0
H694 H 0.22603 0.88016 0.78904 0.0
H695 H 0.30536 0.95602 0.76474 0.0
H696 H 0.26946 0.89047 0.69056 0.0
H697 H 0.29201 0.89805 0.73089 0.0
H698 H 0.20486 0.94113 0.75978 0.0
H699 H 0.18217 0.93429 0.71883 0.0
C700 C 0.26181 0.88974 0.81517 0.0
C701 C 0.29108 0.90789 0.8203 0.0
C702 C 0.24826 0.89551 0.79233 0.0
C703 C 0.2637 0.91895 0.77367 0.0
C704 C 0.29285 0.93772 0.77875 0.0
C705 C 0.30623 0.93278 0.80193 0.0
C706 C 0.25508 0.90204 0.70545 0.0
C707 C 0.22388 0.91129 0.70153 0.0
C708 C 0.26815 0.90679 0.72855 0.0
C709 C 0.25032 0.92013 0.74861 0.0
C710 C 0.21921 0.93061 0.74468 0.0
C711 C 0.2062 0.92684 0.72127 0.0
H712 H 0.75646 0.93735 0.69941 0.0
H713 H 0.83976 0.88306 0.72971 0.0
H714 H 0.73344 0.93994 0.73963 0.0
H715 H 0.81649 0.88578 0.77057 0.0
H716 H 0.74848 0.83299 0.82898 0.0
H717 H 0.7752 0.84154 0.79058 0.0
H718 H 0.73345 0.97466 0.78043 0.0
H719 H 0.70639 0.96624 0.81938 0.0
C720 C 0.7701 0.92658 0.71482 0.0
C721 C 0.79993 0.9096 0.71131 0.0
C722 C 0.75687 0.92838 0.73797 0.0
C723 C 0.77291 0.91277 0.75841 0.0
C724 C 0.80333 0.8976 0.75514 0.0
C725 C 0.81682 0.89637 0.73182 0.0
C726 C 0.74478 0.86425 0.81867 0.0
C727 C 0.72505 0.89896 0.82746 0.0
C728 C 0.76053 0.86929 0.79667 0.0
C729 C 0.75697 0.90904 0.78249 0.0
C730 C 0.73678 0.94352 0.7909 0.0
C731 C 0.72109 0.93862 0.81316 0.0
H732 H 0.76684 0.17188 0.20335 0.0
H733 H 0.70411 0.06238 0.22228 0.0
H734 H 0.79123 0.16583 0.24285 0.0
H735 H 0.72898 0.05581 0.26216 0.0
H736 H 0.75955 0.09656 0.33958 0.0
H737 H 0.73592 0.09638 0.2999 0.0
H738 H 0.82435 0.116 0.26632 0.0
H739 H 0.84839 0.11731 0.30679 0.0
C740 C 0.7581 0.14655 0.21608 0.0
C741 C 0.73345 0.11758 0.20963 0.0
C742 C 0.77243 0.14272 0.23866 0.0
C743 C 0.76258 0.10977 0.25561 0.0
C744 C 0.7372 0.08168 0.24955 0.0
C745 C 0.72274 0.08559 0.22679 0.0
C746 C 0.77423 0.10078 0.32382 0.0
C747 C 0.806 0.10766 0.3265 0.0
C748 C 0.76052 0.10014 0.30093 0.0
C749 C 0.77804 0.10639 0.27981 0.0
C750 C 0.81004 0.11173 0.28228 0.0
C751 C 0.82393 0.11215 0.30541 0.0
H752 H 0.7044 0.56594 0.30549 0.0
H753 H 0.77213 0.66248 0.33204 0.0
H754 H 0.73073 0.56413 0.26573 0.0
H755 H 0.79836 0.65972 0.29333 0.0
H756 H 0.81671 0.68878 0.21372 0.0
H757 H 0.79059 0.6861 0.25269 0.0
H758 H 0.78025 0.53845 0.24558 0.0
H759 H 0.80624 0.54147 0.20577 0.0
C760 C 0.7246 0.58704 0.30281 0.0
C761 C 0.73604 0.61446 0.32196 0.0
C762 C 0.73995 0.58551 0.28019 0.0
C763 C 0.76677 0.61173 0.2763 0.0
C764 C 0.77768 0.63945 0.29544 0.0
C765 C 0.76258 0.64089 0.31778 0.0
C766 C 0.80946 0.65553 0.22065 0.0
C767 C 0.81397 0.61527 0.20679 0.0
C768 C 0.79435 0.65397 0.24303 0.0
C769 C 0.78317 0.61206 0.25235 0.0
C770 C 0.7883 0.57137 0.23882 0.0
C771 C 0.80371 0.57293 0.21628 0.0
H772 H 0.81577 0.45493 0.80564 0.0
H773 H 0.76874 0.33001 0.82635 0.0
H774 H 0.78698 0.45574 0.76712 0.0
H775 H 0.73998 0.33102 0.78858 0.0
H776 H 0.71877 0.32207 0.70675 0.0
H777 H 0.74632 0.32097 0.74526 0.0
H778 H 0.73306 0.46787 0.75295 0.0
H779 H 0.70551 0.46862 0.71394 0.0
C780 C 0.79988 0.42716 0.80169 0.0
C781 C 0.79469 0.39218 0.81885 0.0
C782 C 0.78298 0.42802 0.77991 0.0
C783 C 0.7609 0.39366 0.77486 0.0
C784 C 0.75682 0.35786 0.79171 0.0
C785 C 0.7734 0.35723 0.81337 0.0
C786 C 0.7207 0.35376 0.71718 0.0
C787 C 0.70918 0.39513 0.70783 0.0
C788 C 0.73679 0.35331 0.73913 0.0
C789 C 0.74217 0.39441 0.75216 0.0
C790 C 0.72964 0.43571 0.74322 0.0
C791 C 0.71325 0.43604 0.72123 0.0
H792 H 0.20594 0.46642 0.81667 0.0
H793 H 0.24187 0.32838 0.82293 0.0
H794 H 0.2331 0.47538 0.77784 0.0
H795 H 0.26879 0.33748 0.78458 0.0
H796 H 0.3365 0.37959 0.72608 0.0
H797 H 0.31241 0.38057 0.76662 0.0
H798 H 0.23216 0.44416 0.73604 0.0
H799 H 0.25608 0.44332 0.69604 0.0
C800 C 0.2192 0.43781 0.80968 0.0
C801 C 0.22158 0.3967 0.82303 0.0
C802 C 0.23498 0.44304 0.78751 0.0
C803 C 0.25364 0.40741 0.77829 0.0
C804 C 0.25534 0.36606 0.79138 0.0
C805 C 0.23949 0.36071 0.81331 0.0
C806 C 0.31404 0.39466 0.72823 0.0
C807 C 0.29813 0.41105 0.70789 0.0
C808 C 0.30007 0.39485 0.75135 0.0
C809 C 0.27015 0.41205 0.75455 0.0
C810 C 0.25517 0.43089 0.73436 0.0
C811 C 0.26889 0.43015 0.71138 0.0
H812 H 0.23239 0.6879 0.21394 0.0
H813 H 0.24112 0.54092 0.2045 0.0
H814 H 0.25753 0.68321 0.25322 0.0
H815 H 0.26827 0.53606 0.24336 0.0
H816 H 0.29529 0.54094 0.3253 0.0
H817 H 0.26941 0.5392 0.28579 0.0
H818 H 0.30455 0.67575 0.27048 0.0
H819 H 0.32832 0.6781 0.31047 0.0
C820 C 0.23965 0.65443 0.2204 0.0
C821 C 0.23461 0.6148 0.20618 0.0
C822 C 0.25463 0.6517 0.24284 0.0
C823 C 0.26594 0.60937 0.25153 0.0
C824 C 0.25993 0.56933 0.23757 0.0
C825 C 0.24425 0.57199 0.21525 0.0
C826 C 0.29797 0.57 0.31312 0.0
C827 C 0.31404 0.60949 0.3208 0.0
C828 C 0.283 0.56921 0.29045 0.0
C829 C 0.28409 0.60776 0.27482 0.0
C830 C 0.302 0.64596 0.28212 0.0
C831 C 0.31627 0.64709 0.30491 0.0
H832 H 0.43979 0.09782 0.17765 0.0
H833 H 0.44996 0.2121 0.12805 0.0
H834 H 0.49477 0.10048 0.18582 0.0
H835 H 0.50434 0.21346 0.1352 0.0
H836 H 0.60196 0.22209 0.15442 0.0
H837 H 0.54671 0.22809 0.15938 0.0
H838 H 0.54031 0.07987 0.166 0.0
H839 H 0.59538 0.07426 0.16227 0.0
C840 C 0.4536 0.12387 0.16875 0.0
C841 C 0.44034 0.15438 0.152 0.0
C842 C 0.48525 0.12515 0.17322 0.0
C843 C 0.50441 0.15689 0.161 0.0
C844 C 0.49067 0.18886 0.14529 0.0
C845 C 0.45923 0.18776 0.14097 0.0
C846 C 0.58881 0.1909 0.15744 0.0
C847 C 0.60324 0.14769 0.15764 0.0
C848 C 0.55698 0.19423 0.16009 0.0
C849 C 0.53863 0.15438 0.16264 0.0
C850 C 0.55338 0.11148 0.16429 0.0
C851 C 0.58518 0.10822 0.16198 0.0
H852 H 0.08852 0.79236 0.64775 0.0
H853 H 0.08527 0.93876 0.66141 0.0
H854 H 0.03393 0.78626 0.65586 0.0
H855 H 0.03032 0.93382 0.66775 0.0
H856 H 0.9311 0.9181 0.68263 0.0
H857 H 0.98633 0.91378 0.68789 0.0
H858 H 0.98941 0.80102 0.63606 0.0
H859 H 0.93436 0.80363 0.63224 0.0
C860 C 0.07605 0.82321 0.65275 0.0
C861 C 0.09107 0.86602 0.65392 0.0
C862 C 0.04461 0.81992 0.6571 0.0
C863 C 0.02713 0.85965 0.66195 0.0
C864 C 0.04268 0.90219 0.66437 0.0
C865 C 0.07432 0.90521 0.66066 0.0
C866 C 0.94363 0.89169 0.67286 0.0
C867 C 0.92833 0.86131 0.65698 0.0
C868 C 0.97542 0.88949 0.67564 0.0
C869 C 0.99285 0.85753 0.66215 0.0
C870 C 0.97716 0.82573 0.64715 0.0
C871 C 0.94535 0.82729 0.64482 0.0
H872 H 0.57808 0.80407 0.89461 0.0
H873 H 0.59031 0.92318 0.8486 0.0
H874 H 0.52411 0.80379 0.88618 0.0
H875 H 0.5356 0.92172 0.83903 0.0
H876 H 0.43294 0.94362 0.86212 0.0
H877 H 0.48843 0.93985 0.85771 0.0
H878 H 0.48355 0.79097 0.86057 0.0
H879 H 0.4285 0.79542 0.86668 0.0
C880 C 0.56935 0.8297 0.88215 0.0
C881 C 0.58868 0.86397 0.87252 0.0
C882 C 0.53813 0.82927 0.87705 0.0
C883 C 0.52503 0.86279 0.86187 0.0
C884 C 0.54464 0.8957 0.85109 0.0
C885 C 0.57612 0.89628 0.85636 0.0
C886 C 0.44375 0.91013 0.86113 0.0
C887 C 0.42649 0.86982 0.86491 0.0
C888 C 0.47566 0.90785 0.85858 0.0
C889 C 0.4909 0.86511 0.85937 0.0
C890 C 0.47298 0.82466 0.86075 0.0
C891 C 0.4413 0.82704 0.86392 0.0
H892 H 0.93841 0.10156 0.34791 0.0
H893 H 0.94577 0.21291 0.39997 0.0
H894 H 0.99294 0.10761 0.33941 0.0
H895 H 1.00051 0.2173 0.39272 0.0
H896 H 0.09959 0.22573 0.37426 0.0
H897 H 0.04427 0.23292 0.3701 0.0
H898 H 0.03726 0.08568 0.35838 0.0
H899 H 0.0921 0.07912 0.3612 0.0
C900 C 0.95167 0.12767 0.35737 0.0
C901 C 0.93776 0.15648 0.37473 0.0
C902 C 0.98309 0.13089 0.35271 0.0
C903 C 1.00164 0.16227 0.36574 0.0
C904 C 0.98726 0.19294 0.38208 0.0
C905 C 0.95571 0.19033 0.38636 0.0
C906 C 0.08624 0.19512 0.3702 0.0
C907 C 0.10043 0.1518 0.36829 0.0
C908 C 0.05438 0.19912 0.36807 0.0
C909 C 0.03585 0.15984 0.36422 0.0
C910 C 0.0504 0.11701 0.36099 0.0
C911 C 0.08213 0.11313 0.3628 0.0
H912 H 0.93859 0.59287 0.17818 0.0
H913 H 0.95092 0.70103 0.12513 0.0
H914 H 0.99332 0.59609 0.18752 0.0
H915 H 1.00498 0.70321 0.13375 0.0
H916 H 0.09903 0.72067 0.1567 0.0
H917 H 0.04369 0.72336 0.16121 0.0
H918 H 0.04131 0.57514 0.16915 0.0
H919 H 0.09703 0.57308 0.16586 0.0
C920 C 0.95283 0.61762 0.1687 0.0
C921 C 0.94025 0.64653 0.1508 0.0
C922 C 0.98427 0.61926 0.17393 0.0
C923 C 1.0038 0.64996 0.16147 0.0
C924 C 0.99084 0.67972 0.14417 0.0
C925 C 0.95965 0.67815 0.139 0.0
C926 C 0.08673 0.68888 0.16024 0.0
C927 C 0.10231 0.64668 0.16085 0.0
C928 C 0.05493 0.69026 0.16252 0.0
C929 C 0.03775 0.64932 0.16483 0.0
C930 C 0.05363 0.60742 0.16744 0.0
C931 C 0.08564 0.60617 0.16561 0.0
H932 H 0.582 0.30003 0.62315 0.0
H933 H 0.58923 0.40392 0.67934 0.0
H934 H 0.52702 0.29544 0.62983 0.0
H935 H 0.53458 0.3976 0.68717 0.0
H936 H 0.43659 0.43197 0.6644 0.0
H937 H 0.49131 0.42363 0.6676 0.0
H938 H 0.48283 0.27774 0.65227 0.0
H939 H 0.42765 0.28673 0.64789 0.0
C940 C 0.57194 0.32078 0.63751 0.0
C941 C 0.58983 0.35278 0.65051 0.0
C942 C 0.54033 0.31808 0.64144 0.0
C943 C 0.52598 0.34679 0.65878 0.0
C944 C 0.54449 0.37598 0.67313 0.0
C945 C 0.57592 0.37935 0.66883 0.0
C946 C 0.4462 0.39786 0.6621 0.0
C947 C 0.4276 0.36016 0.65556 0.0
C948 C 0.47782 0.39294 0.66412 0.0
C949 C 0.49187 0.35 0.66 0.0
C950 C 0.47302 0.31157 0.65505 0.0
C951 C 0.44128 0.31662 0.65276 0.0
H952 H 0.07974 0.30671 0.90098 0.0
H953 H 0.09061 0.413 0.84672 0.0
H954 H 0.02557 0.30318 0.89283 0.0
H955 H 0.03592 0.40814 0.8377 0.0
H956 H 0.93482 0.43673 0.85973 0.0
H957 H 0.98993 0.43124 0.85647 0.0
H958 H 0.98414 0.28409 0.86796 0.0
H959 H 0.92881 0.29004 0.87237 0.0
C960 C 0.07068 0.32877 0.88687 0.0
C961 C 0.08965 0.36067 0.87477 0.0
C962 C 0.03941 0.32638 0.88199 0.0
C963 C 0.02598 0.35555 0.86467 0.0
C964 C 0.04524 0.38566 0.85149 0.0
C965 C 0.07671 0.38822 0.8565 0.0
C966 C 0.94515 0.40297 0.86115 0.0
C967 C 0.92725 0.36393 0.86677 0.0
C968 C 0.97697 0.39977 0.85911 0.0
C969 C 0.99186 0.35733 0.86235 0.0
C970 C 0.97368 0.31764 0.86601 0.0
C971 C 0.94183 0.32093 0.86833 0.0
H972 H 0.45016 0.70819 0.39939 0.0
H973 H 0.43957 0.59936 0.34604 0.0
H974 H 0.50439 0.71087 0.3915 0.0
H975 H 0.49434 0.60345 0.33721 0.0
H976 H 0.59445 0.57399 0.36095 0.0
H977 H 0.5396 0.58051 0.35657 0.0
H978 H 0.5464 0.72806 0.36697 0.0
H979 H 0.60146 0.72109 0.37262 0.0
C980 C 0.4593 0.68537 0.38553 0.0
C981 C 0.44042 0.65297 0.37366 0.0
C982 C 0.49061 0.6873 0.38078 0.0
C983 C 0.50412 0.65719 0.36379 0.0
C984 C 0.48493 0.62662 0.35077 0.0
C985 C 0.45344 0.62447 0.35568 0.0
C986 C 0.58441 0.60804 0.3619 0.0
C987 C 0.60242 0.64692 0.36766 0.0
C988 C 0.55276 0.61183 0.35919 0.0
C989 C 0.5382 0.65471 0.36185 0.0
C990 C 0.55659 0.69421 0.3655 0.0
C991 C 0.58828 0.69032 0.36853 0.0
H992 H 0.32196 0.96911 0.11606 0.0
H993 H 0.24126 0.04295 0.13918 0.0
H994 H 0.29553 0.89635 0.12253 0.0
H995 H 0.21468 0.96929 0.14562 0.0
H996 H 0.25911 0.77837 0.16476 0.0
H997 H 0.27797 0.85709 0.16103 0.0
H998 H 0.1958 0.89511 0.12279 0.0
H999 H 0.17669 0.81561 0.12662 0.0
C1000 C 0.29846 0.96995 0.12228 0.0
C1001 C 0.28391 0.01208 0.12732 0.0
C1002 C 0.28336 0.92812 0.12616 0.0
C1003 C 0.25324 0.92708 0.13509 0.0
C1004 C 0.23795 0.96905 0.13886 0.0
C1005 C 0.25319 0.01118 0.13512 0.0
C1006 C 0.24465 0.80376 0.15613 0.0
C1007 C 0.21653 0.79069 0.14584 0.0
C1008 C 0.2556 0.84876 0.15378 0.0
C1009 C 0.23874 0.88195 0.14104 0.0
C1010 C 0.20936 0.87014 0.13259 0.0
C1011 C 0.19832 0.82475 0.13495 0.0
H1012 H 0.28669 0.98082 0.64085 0.0
H1013 H 0.20643 0.04732 0.61179 0.0
H1014 H 0.31046 0.0567 0.64728 0.0
H1015 H 0.22997 0.12226 0.61848 0.0
H1016 H 0.26253 0.24762 0.65932 0.0
H1017 H 0.24406 0.16826 0.65637 0.0
H1018 H 0.32903 0.12737 0.62279 0.0
H1019 H 0.34764 0.20678 0.62567 0.0
C1020 C 0.27431 0.0114 0.63549 0.0
C1021 C 0.24455 0.00783 0.62592 0.0
C1022 C 0.28786 0.05481 0.63931 0.0
C1023 C 0.27176 0.09539 0.63389 0.0
C1024 C 0.24262 0.09166 0.6234 0.0
C1025 C 0.22927 0.04855 0.61936 0.0
C1026 C 0.27761 0.2216 0.65185 0.0
C1027 C 0.30647 0.23372 0.64254 0.0
C1028 C 0.26689 0.1762 0.64994 0.0
C1029 C 0.28492 0.14181 0.63895 0.0
C1030 C 0.31462 0.15314 0.63129 0.0
C1031 C 0.32523 0.19867 0.63294 0.0
H1032 H 0.1655 0.20082 0.90851 0.0
H1033 H 0.24544 0.2386 0.86674 0.0
H1034 H 0.18408 0.12095 0.91061 0.0
H1035 H 0.26379 0.1597 0.86893 0.0
H1036 H 0.30948 0.04655 0.91131 0.0
H1037 H 0.2826 0.11938 0.90792 0.0
H1038 H 0.20148 0.04768 0.88375 0.0
H1039 H 0.22851 0.97394 0.88696 0.0
C1040 C 0.18646 0.1918 0.89914 0.0
C1041 C 0.2042 0.22603 0.88768 0.0
C1042 C 0.19716 0.14623 0.90048 0.0
C1043 C 0.22573 0.13456 0.89045 0.0
C1044 C 0.24205 0.16801 0.87731 0.0
C1045 C 0.23141 0.21311 0.87591 0.0
C1046 C 0.28581 0.04596 0.90554 0.0
C1047 C 0.27134 1.00429 0.8991 0.0
C1048 C 0.27047 0.0878 0.90348 0.0
C1049 C 0.24017 0.0892 0.8951 0.0
C1050 C 0.22489 0.04752 0.89013 0.0
C1051 C 0.24039 1.00539 0.89202 0.0
H1052 H 0.28418 0.77755 0.36038 0.0
H1053 H 0.36353 0.81165 0.40358 0.0
H1054 H 0.26615 0.8565 0.36437 0.0
H1055 H 0.34505 0.891 0.40802 0.0
H1056 H 0.30234 0.04067 0.39266 0.0
H1057 H 0.32947 0.96692 0.38767 0.0
H1058 H 0.24505 0.89355 0.4012 0.0
H1059 H 0.2183 0.96637 0.40569 0.0
C1060 C 0.29814 0.80228 0.37024 0.0
C1061 C 0.32511 0.78831 0.3818 0.0
C1062 C 0.28767 0.84739 0.37277 0.0
C1063 C 0.30371 0.87959 0.38715 0.0
C1064 C 0.33211 0.86688 0.39696 0.0
C1065 C 0.34276 0.82152 0.39428 0.0
C1066 C 0.28996 0.00864 0.39526 0.0
C1067 C 0.25826 0.00901 0.39948 0.0
C1068 C 0.30537 0.96652 0.3922 0.0
C1069 C 0.28918 0.92449 0.39331 0.0
C1070 C 0.258 0.9253 0.39944 0.0
C1071 C 0.24273 0.96698 0.40234 0.0
H1072 H 0.84671 0.2044 0.90601 0.0
H1073 H 0.76479 0.24266 0.86725 0.0
H1074 H 0.82744 0.12542 0.90958 0.0
H1075 H 0.74572 0.16392 0.87093 0.0
H1076 H 0.70334 0.04655 0.91445 0.0
H1077 H 0.72799 0.12079 0.90846 0.0
H1078 H 0.81068 0.05269 0.88537 0.0
H1079 H 0.78579 0.97744 0.89114 0.0
C1080 C 0.82489 0.19586 0.89782 0.0
C1081 C 0.80719 0.2302 0.88654 0.0
C1082 C 0.8139 0.15054 0.89988 0.0
C1083 C 0.78484 0.13868 0.89093 0.0
C1084 C 0.76797 0.17226 0.87841 0.0
C1085 C 0.77905 0.21736 0.87613 0.0
C1086 C 0.72688 0.04705 0.90829 0.0
C1087 C 0.74245 1.00576 0.9031 0.0
C1088 C 0.74092 0.08978 0.90466 0.0
C1089 C 0.77105 0.09263 0.89596 0.0
C1090 C 0.78735 0.05153 0.89197 0.0
C1091 C 0.77313 0.00847 0.89538 0.0
H1092 H 0.73883 0.03208 0.40017 0.0
H1093 H 0.82539 0.9652 0.41196 0.0
H1094 H 0.71416 0.95618 0.39535 0.0
H1095 H 0.80108 0.89009 0.40764 0.0
H1096 H 0.76214 0.76865 0.36879 0.0
H1097 H 0.78038 0.8478 0.37281 0.0
H1098 H 0.70072 0.88229 0.41559 0.0
H1099 H 0.68204 0.80346 0.41117 0.0
C1100 C 0.75229 1.00116 0.40254 0.0
C1101 C 0.78393 1.00427 0.40645 0.0
C1102 C 0.73832 0.95779 0.39955 0.0
C1103 C 0.75587 0.91716 0.40042 0.0
C1104 C 0.78708 0.92066 0.40606 0.0
C1105 C 0.80093 0.96364 0.40892 0.0
C1106 C 0.74816 0.79324 0.37862 0.0
C1107 C 0.72083 0.77937 0.38991 0.0
C1108 C 0.75878 0.83855 0.38117 0.0
C1109 C 0.74235 0.87105 0.39506 0.0
C1110 C 0.71397 0.85811 0.40487 0.0
C1111 C 0.70332 0.81278 0.40233 0.0
H1112 H 0.72532 0.97135 0.12153 0.0
H1113 H 0.8092 0.04548 0.13553 0.0
H1114 H 0.75217 0.89849 0.12486 0.0
H1115 H 0.83651 0.97142 0.13906 0.0
H1116 H 0.86709 0.81201 0.11914 0.0
H1117 H 0.85021 0.89248 0.1154 0.0
H1118 H 0.7744 0.86366 0.16343 0.0
H1119 H 0.79093 0.78396 0.16699 0.0
C1120 C 0.74974 0.97198 0.12481 0.0
C1121 C 0.76514 0.01402 0.12839 0.0
C1122 C 0.76508 0.93023 0.12695 0.0
C1123 C 0.79627 0.9292 0.1329 0.0
C1124 C 0.8124 0.97124 0.13464 0.0
C1125 C 0.79688 0.01352 0.13244 0.0
C1126 C 0.84746 0.82339 0.12955 0.0
C1127 C 0.83015 0.79155 0.14321 0.0
C1128 C 0.83772 0.86937 0.12728 0.0
C1129 C 0.81057 0.884 0.13863 0.0
C1130 C 0.79502 0.85312 0.154 0.0
C1131 C 0.80462 0.80753 0.15621 0.0
H1132 H 0.67369 0.20763 0.61454 0.0
H1133 H 0.74684 0.24272 0.66418 0.0
H1134 H 0.68891 0.12704 0.61559 0.0
H1135 H 0.76232 0.16213 0.66491 0.0
H1136 H 0.77277 0.01182 0.67591 0.0
H1137 H 0.74746 0.08615 0.67795 0.0
H1138 H 0.7313 0.08011 0.60035 0.0
H1139 H 0.75614 1.0043 0.59856 0.0
C1140 C 0.69286 0.19814 0.6259 0.0
C1141 C 0.70916 0.23183 0.63921 0.0
C1142 C 0.70168 0.1519 0.62632 0.0
C1143 C 0.72694 0.13809 0.64015 0.0
C1144 C 0.74251 0.17145 0.65424 0.0
C1145 C 0.73368 0.21776 0.65382 0.0
C1146 C 0.76319 0.02594 0.65936 0.0
C1147 C 0.76646 1.00257 0.63703 0.0
C1148 C 0.74895 0.06873 0.6605 0.0
C1149 C 0.73792 0.08959 0.63927 0.0
C1150 C 0.73948 0.0649 0.61708 0.0
C1151 C 0.7536 0.02152 0.61599 0.0
H1152 H 0.69488 0.30371 0.10897 0.0
H1153 H 0.74917 0.28068 0.17348 0.0
H1154 H 0.71207 0.38355 0.10787 0.0
H1155 H 0.76568 0.36189 0.17257 0.0
H1156 H 0.76028 0.52836 0.16763 0.0
H1157 H 0.73673 0.45158 0.17204 0.0
H1158 H 0.77298 0.41179 0.10198 0.0
H1159 H 0.79735 0.48761 0.09794 0.0
C1160 C 0.70994 0.3158 0.12329 0.0
C1161 C 0.72069 0.28544 0.14133 0.0
C1162 C 0.71983 0.36164 0.12254 0.0
C1163 C 0.74018 0.37877 0.14008 0.0
C1164 C 0.74981 0.34945 0.15889 0.0
C1165 C 0.7404 0.30302 0.15939 0.0
C1166 C 0.76267 0.50344 0.15299 0.0
C1167 C 0.78031 0.51404 0.13229 0.0
C1168 C 0.74953 0.45947 0.15566 0.0
C1169 C 0.75316 0.42588 0.13738 0.0
C1170 C 0.7698 0.43715 0.1163 0.0
C1171 C 0.7836 0.48052 0.11394 0.0
H1172 H 0.79049 0.47946 0.63506 0.0
H1173 H 0.70366 0.54776 0.6269 0.0
H1174 H 0.81569 0.55508 0.6399 0.0
H1175 H 0.72843 0.62227 0.63146 0.0
H1176 H 0.76988 0.74377 0.66764 0.0
H1177 H 0.75192 0.66415 0.66559 0.0
H1178 H 0.82747 0.62918 0.61841 0.0
H1179 H 0.84588 0.70848 0.62082 0.0
C1180 C 0.77698 0.51056 0.63374 0.0
C1181 C 0.74514 0.50784 0.6308 0.0
C1182 C 0.79128 0.55374 0.63671 0.0
C1183 C 0.77387 0.59457 0.63679 0.0
C1184 C 0.74236 0.59152 0.63234 0.0
C1185 C 0.72822 0.54881 0.62944 0.0
C1186 C 0.78308 0.71897 0.65728 0.0
C1187 C 0.80905 0.73282 0.6441 0.0
C1188 C 0.77264 0.67339 0.65591 0.0
C1189 C 0.7879 0.64062 0.64135 0.0
C1190 C 0.81516 0.65357 0.62971 0.0
C1191 C 0.82561 0.69916 0.63106 0.0
H1192 H 0.66422 0.70085 0.90885 0.0
H1193 H 0.74429 0.73751 0.86708 0.0
H1194 H 0.68261 0.62115 0.91168 0.0
H1195 H 0.76218 0.65833 0.86931 0.0
H1196 H 0.8093 0.54411 0.90661 0.0
H1197 H 0.78311 0.61767 0.90423 0.0
H1198 H 0.69783 0.54681 0.89025 0.0
H1199 H 0.72441 0.47228 0.89328 0.0
C1200 C 0.68516 0.69149 0.89954 0.0
C1201 C 0.70299 0.72538 0.88788 0.0
C1202 C 0.69577 0.64595 0.90129 0.0
C1203 C 0.72428 0.63375 0.89134 0.0
C1204 C 0.74059 0.6669 0.87786 0.0
C1205 C 0.73019 0.71217 0.87631 0.0
C1206 C 0.78482 0.5442 0.9036 0.0
C1207 C 0.76886 0.50268 0.90009 0.0
C1208 C 0.76985 0.58633 0.9019 0.0
C1209 C 0.73855 0.58817 0.89627 0.0
C1210 C 0.72201 0.5465 0.89444 0.0
C1211 C 0.73711 0.50392 0.89635 0.0
H1212 H 0.80242 0.53259 0.39864 0.0
H1213 H 0.71476 0.46762 0.41022 0.0
H1214 H 0.82647 0.45609 0.39632 0.0
H1215 H 0.73842 0.39201 0.40838 0.0
H1216 H 0.77773 0.26744 0.3726 0.0
H1217 H 0.76002 0.34694 0.37476 0.0
H1218 H 0.83813 0.38371 0.41882 0.0
H1219 H 0.85626 0.30452 0.41629 0.0
C1220 C 0.78856 0.50204 0.40153 0.0
C1221 C 0.75683 0.50575 0.40465 0.0
C1222 C 0.80218 0.45832 0.39996 0.0
C1223 C 0.78416 0.418 0.40147 0.0
C1224 C 0.75279 0.42227 0.40636 0.0
C1225 C 0.73931 0.46557 0.40781 0.0
C1226 C 0.79146 0.29258 0.38235 0.0
C1227 C 0.8182 0.27932 0.39451 0.0
C1228 C 0.78116 0.33808 0.38382 0.0
C1229 C 0.79734 0.37139 0.39746 0.0
C1230 C 0.82511 0.3589 0.40825 0.0
C1231 C 0.83542 0.31338 0.40681 0.0
H1232 H 0.35271 0.70187 0.89757 0.0
H1233 H 0.2702 0.73959 0.85965 0.0
H1234 H 0.33385 0.62216 0.90074 0.0
H1235 H 0.25159 0.66064 0.86279 0.0
H1236 H 0.20823 0.54867 0.90855 0.0
H1237 H 0.23473 0.62132 0.90201 0.0
H1238 H 0.31452 0.54824 0.87679 0.0
H1239 H 0.28783 0.47462 0.88323 0.0
C1240 C 0.33112 0.69282 0.88915 0.0
C1241 C 0.31278 0.72705 0.87855 0.0
C1242 C 0.32025 0.6473 0.89112 0.0
C1243 C 0.29092 0.63558 0.88257 0.0
C1244 C 0.27396 0.66895 0.87007 0.0
C1245 C 0.28474 0.71407 0.86808 0.0
C1246 C 0.2315 0.54776 0.9018 0.0
C1247 C 0.24572 0.50564 0.89616 0.0
C1248 C 0.24663 0.58952 0.8979 0.0
C1249 C 0.27646 0.59046 0.88839 0.0
C1250 C 0.29146 0.54848 0.884 0.0
C1251 C 0.27617 0.50641 0.88773 0.0
H1252 H 0.32476 0.46791 0.41048 0.0
H1253 H 0.24365 0.53415 0.38282 0.0
H1254 H 0.30088 0.39295 0.40478 0.0
H1255 H 0.21953 0.45822 0.37735 0.0
H1256 H 0.18212 0.30922 0.40042 0.0
H1257 H 0.20134 0.38842 0.40251 0.0
H1258 H 0.28533 0.34537 0.36814 0.0
H1259 H 0.26627 0.2663 0.36597 0.0
C1260 C 0.30168 0.46665 0.40339 0.0
C1261 C 0.28624 0.50735 0.397 0.0
C1262 C 0.2881 0.42348 0.39992 0.0
C1263 C 0.25855 0.41957 0.39019 0.0
C1264 C 0.24241 0.46016 0.38479 0.0
C1265 C 0.25619 0.50363 0.38802 0.0
C1266 C 0.20446 0.31676 0.39285 0.0
C1267 C 0.22273 0.28114 0.3832 0.0
C1268 C 0.21542 0.36221 0.39404 0.0
C1269 C 0.24503 0.373 0.38587 0.0
C1270 C 0.2626 0.33796 0.37497 0.0
C1271 C 0.25154 0.29267 0.37353 0.0
H1272 H 0.22023 0.47052 0.11516 0.0
H1273 H 0.30016 0.54345 0.14133 0.0
H1274 H 0.2468 0.39771 0.11979 0.0
H1275 H 0.3269 0.46972 0.14581 0.0
H1276 H 0.28234 0.2777 0.16069 0.0
H1277 H 0.26389 0.35661 0.15857 0.0
H1278 H 0.34575 0.39715 0.12014 0.0
H1279 H 0.36444 0.3174 0.12223 0.0
C1280 C 0.24361 0.47117 0.12163 0.0
C1281 C 0.25788 0.51295 0.12814 0.0
C1282 C 0.25877 0.42933 0.12443 0.0
C1283 C 0.28868 0.42801 0.13365 0.0
C1284 C 0.30378 0.46978 0.13879 0.0
C1285 C 0.28846 0.51192 0.13617 0.0
C1286 C 0.29681 0.30361 0.15232 0.0
C1287 C 0.32468 0.29125 0.14141 0.0
C1288 C 0.28612 0.34872 0.15094 0.0
C1289 C 0.30303 0.38268 0.13864 0.0
C1290 C 0.3322 0.3715 0.1296 0.0
C1291 C 0.34297 0.32598 0.13095 0.0
H1292 H 0.2462 0.73911 0.66323 0.0
H1293 H 0.16579 0.70383 0.62156 0.0
H1294 H 0.26376 0.65981 0.66013 0.0
H1295 H 0.18381 0.62407 0.61797 0.0
H1296 H 0.22593 0.47479 0.63484 0.0
H1297 H 0.19934 0.54912 0.63919 0.0
H1298 H 0.28392 0.62063 0.62365 0.0
H1299 H 0.31015 0.54725 0.61983 0.0
C1300 C 0.23193 0.71408 0.65388 0.0
C1301 C 0.20479 0.72776 0.64249 0.0
C1302 C 0.24213 0.66875 0.65186 0.0
C1303 C 0.22561 0.63604 0.63815 0.0
C1304 C 0.1971 0.64859 0.62851 0.0
C1305 C 0.18672 0.69418 0.63069 0.0
C1306 C 0.23845 0.50652 0.6317 0.0
C1307 C 0.27006 0.50552 0.62711 0.0
C1308 C 0.22336 0.54897 0.63437 0.0
C1309 C 0.23977 0.59069 0.63248 0.0
C1310 C 0.27084 0.58916 0.62601 0.0
C1311 C 0.2858 0.54716 0.62351 0.0
loop_
_geom_bond_atom_site_label_1
_geom_bond_atom_site_label_2
_geom_bond_distance
_geom_bond_site_symmetry_2
_ccdc_geom_bond_type
Fe0 O2 1.918 . S
Fe0 O5 1.997 . S
Fe0 O6 2.002 . S
Fe0 O11 1.976 . S
Fe0 O14 1.996 . S
Fe1 O2 1.918 . S
Fe1 O9 1.997 . S
Fe1 O12 1.996 . S
Fe1 O16 1.976 . S
Fe1 O19 2.002 . S
O2 Fe0 1.918 . S
O2 Fe1 1.918 . S
O2 Fe3 1.918 . S
Fe3 O2 1.918 . S
Fe3 O4 2.002 . S
Fe3 O13 1.976 . S
Fe3 O17 1.996 . S
Fe3 O20 1.997 . S
O4 Fe3 2.002 . S
O4 C21 1.295 . S
O5 Fe0 1.997 . S
O5 C21 1.235 . S
O6 Fe0 2.002 . S
O6 C7 1.295 . S
C7 O6 1.295 . S
C7 O9 1.235 . S
C8 O13 1.287 . S
C8 O14 1.255 . S
O9 Fe1 1.997 . S
O9 C7 1.235 . S
C10 O16 1.287 . S
C10 O17 1.255 . S
O11 Fe0 1.976 . S
O11 C18 1.287 . S
O12 Fe1 1.996 . S
O12 C18 1.255 . S
O13 Fe3 1.976 . S
O13 C8 1.287 . S
O14 Fe0 1.996 . S
O14 C8 1.255 . S
C15 O19 1.295 . S
C15 O20 1.235 . S
O16 Fe1 1.976 . S
O16 C10 1.287 . S
O17 Fe3 1.996 . S
O17 C10 1.255 . S
C18 O11 1.287 . S
C18 O12 1.255 . S
O19 Fe1 2.002 . S
O19 C15 1.295 . S
O20 Fe3 1.997 . S
O20 C15 1.235 . S
C21 O4 1.295 . S
C21 O5 1.235 . S
Fe22 O24 1.918 . S
Fe22 O27 1.997 . S
Fe22 O28 2.002 . S
Fe22 O33 1.976 . S
Fe22 O36 1.996 . S
Fe23 O24 1.918 . S
Fe23 O31 1.997 . S
Fe23 O34 1.996 . S
Fe23 O38 1.976 . S
Fe23 O41 2.002 . S
O24 Fe22 1.918 . S
O24 Fe23 1.918 . S
O24 Fe25 1.918 . S
Fe25 O24 1.918 . S
Fe25 O26 2.002 . S
Fe25 O35 1.976 . S
Fe25 O39 1.996 . S
Fe25 O42 1.997 . S
O26 Fe25 2.002 . S
O26 C43 1.295 . S
O27 Fe22 1.997 . S
O27 C43 1.235 . S
O28 Fe22 2.002 . S
O28 C29 1.295 . S
C29 O28 1.295 . S
C29 O31 1.235 . S
C30 O35 1.287 . S
C30 O36 1.255 . S
O31 Fe23 1.997 . S
O31 C29 1.235 . S
C32 O38 1.287 . S
C32 O39 1.255 . S
O33 Fe22 1.976 . S
O33 C40 1.287 . S
O34 Fe23 1.996 . S
O34 C40 1.255 . S
O35 Fe25 1.976 . S
O35 C30 1.287 . S
O36 Fe22 1.996 . S
O36 C30 1.255 . S
C37 O41 1.295 . S
C37 O42 1.235 . S
O38 Fe23 1.976 . S
O38 C32 1.287 . S
O39 Fe25 1.996 . S
O39 C32 1.255 . S
C40 O33 1.287 . S
C40 O34 1.255 . S
O41 Fe23 2.002 . S
O41 C37 1.295 . S
O42 Fe25 1.997 . S
O42 C37 1.235 . S
C43 O26 1.295 . S
C43 O27 1.235 . S
Fe44 O46 1.918 . S
Fe44 O49 1.997 . S
Fe44 O50 2.002 . S
Fe44 O55 1.976 . S
Fe44 O58 1.996 . S
Fe45 O46 1.918 . S
Fe45 O53 1.997 . S
Fe45 O56 1.996 . S
Fe45 O60 1.976 . S
Fe45 O63 2.002 . S
O46 Fe44 1.918 . S
O46 Fe45 1.918 . S
O46 Fe47 1.918 . S
Fe47 O46 1.918 . S
Fe47 O48 2.002 . S
Fe47 O57 1.976 . S
Fe47 O61 1.996 . S
Fe47 O64 1.997 . S
O48 Fe47 2.002 . S
O48 C65 1.295 . S
O49 Fe44 1.997 . S
O49 C65 1.235 . S
O50 Fe44 2.002 . S
O50 C51 1.295 . S
C51 O50 1.295 . S
C51 O53 1.235 . S
C52 O57 1.287 . S
C52 O58 1.255 . S
O53 Fe45 1.997 . S
O53 C51 1.235 . S
C54 O60 1.287 . S
C54 O61 1.255 . S
O55 Fe44 1.976 . S
O55 C62 1.287 . S
O56 Fe45 1.996 . S
O56 C62 1.255 . S
O57 Fe47 1.976 . S
O57 C52 1.287 . S
O58 Fe44 1.996 . S
O58 C52 1.255 . S
C59 O63 1.295 . S
C59 O64 1.235 . S
O60 Fe45 1.976 . S
O60 C54 1.287 . S
O61 Fe47 1.996 . S
O61 C54 1.255 . S
C62 O55 1.287 . S
C62 O56 1.255 . S
O63 Fe45 2.002 . S
O63 C59 1.295 . S
O64 Fe47 1.997 . S
O64 C59 1.235 . S
C65 O48 1.295 . S
C65 O49 1.235 . S
Fe66 O68 1.918 . S
Fe66 O71 1.997 . S
Fe66 O72 2.002 . S
Fe66 O77 1.976 . S
Fe66 O80 1.996 . S
Fe67 O68 1.918 . S
Fe67 O75 1.997 . S
Fe67 O78 1.996 . S
Fe67 O82 1.976 . S
Fe67 O85 2.002 . S
O68 Fe66 1.918 . S
O68 Fe67 1.918 . S
O68 Fe69 1.918 . S
Fe69 O68 1.918 . S
Fe69 O70 2.002 . S
Fe69 O79 1.976 . S
Fe69 O83 1.996 . S
Fe69 O86 1.997 . S
O70 Fe69 2.002 . S
O70 C87 1.295 . S
O71 Fe66 1.997 . S
O71 C87 1.235 . S
O72 Fe66 2.002 . S
O72 C73 1.295 . S
C73 O72 1.295 . S
C73 O75 1.235 . S
C74 O79 1.287 . S
C74 O80 1.255 . S
O75 Fe67 1.997 . S
O75 C73 1.235 . S
C76 O82 1.287 . S
C76 O83 1.255 . S
O77 Fe66 1.976 . S
O77 C84 1.287 . S
O78 Fe67 1.996 . S
O78 C84 1.255 . S
O79 Fe69 1.976 . S
O79 C74 1.287 . S
O80 Fe66 1.996 . S
O80 C74 1.255 . S
C81 O85 1.295 . S
C81 O86 1.235 . S
O82 Fe67 1.976 . S
O82 C76 1.287 . S
O83 Fe69 1.996 . S
O83 C76 1.255 . S
C84 O77 1.287 . S
C84 O78 1.255 . S
O85 Fe67 2.002 . S
O85 C81 1.295 . S
O86 Fe69 1.997 . S
O86 C81 1.235 . S
C87 O70 1.295 . S
C87 O71 1.235 . S
Fe88 O90 1.918 . S
Fe88 O93 1.997 . S
Fe88 O94 2.002 . S
Fe88 O99 1.976 . S
Fe88 O102 1.996 . S
Fe89 O90 1.918 . S
Fe89 O97 1.997 . S
Fe89 O100 1.996 . S
Fe89 O104 1.976 . S
Fe89 O107 2.002 . S
O90 Fe88 1.918 . S
O90 Fe89 1.918 . S
O90 Fe91 1.918 . S
Fe91 O90 1.918 . S
Fe91 O92 2.002 . S
Fe91 O101 1.976 . S
Fe91 O105 1.996 . S
Fe91 O108 1.997 . S
O92 Fe91 2.002 . S
O92 C109 1.295 . S
O93 Fe88 1.997 . S
O93 C109 1.235 . S
O94 Fe88 2.002 . S
O94 C95 1.295 . S
C95 O94 1.295 . S
C95 O97 1.235 . S
C96 O101 1.287 . S
C96 O102 1.255 . S
O97 Fe89 1.997 . S
O97 C95 1.235 . S
C98 O104 1.287 . S
C98 O105 1.255 . S
O99 Fe88 1.976 . S
O99 C106 1.287 . S
O100 Fe89 1.996 . S
O100 C106 1.255 . S
O101 Fe91 1.976 . S
O101 C96 1.287 . S
O102 Fe88 1.996 . S
O102 C96 1.255 . S
C103 O107 1.295 . S
C103 O108 1.235 . S
O104 Fe89 1.976 . S
O104 C98 1.287 . S
O105 Fe91 1.996 . S
O105 C98 1.255 . S
C106 O99 1.287 . S
C106 O100 1.255 . S
O107 Fe89 2.002 . S
O107 C103 1.295 . S
O108 Fe91 1.997 . S
O108 C103 1.235 . S
C109 O92 1.295 . S
C109 O93 1.235 . S
Fe110 O112 1.918 . S
Fe110 O115 1.997 . S
Fe110 O116 2.002 . S
Fe110 O121 1.976 . S
Fe110 O124 1.996 . S
Fe111 O112 1.918 . S
Fe111 O119 1.997 . S
Fe111 O122 1.996 . S
Fe111 O126 1.976 . S
Fe111 O129 2.002 . S
O112 Fe110 1.918 . S
O112 Fe111 1.918 . S
O112 Fe113 1.918 . S
Fe113 O112 1.918 . S
Fe113 O114 2.002 . S
Fe113 O123 1.976 . S
Fe113 O127 1.996 . S
Fe113 O130 1.997 . S
O114 Fe113 2.002 . S
O114 C131 1.295 . S
O115 Fe110 1.997 . S
O115 C131 1.235 . S
O116 Fe110 2.002 . S
O116 C117 1.295 . S
C117 O116 1.295 . S
C117 O119 1.235 . S
C118 O123 1.287 . S
C118 O124 1.255 . S
O119 Fe111 1.997 . S
O119 C117 1.235 . S
C120 O126 1.287 . S
C120 O127 1.255 . S
O121 Fe110 1.976 . S
O121 C128 1.287 . S
O122 Fe111 1.996 . S
O122 C128 1.255 . S
O123 Fe113 1.976 . S
O123 C118 1.287 . S
O124 Fe110 1.996 . S
O124 C118 1.255 . S
C125 O129 1.295 . S
C125 O130 1.235 . S
O126 Fe111 1.976 . S
O126 C120 1.287 . S
O127 Fe113 1.996 . S
O127 C120 1.255 . S
C128 O121 1.287 . S
C128 O122 1.255 . S
O129 Fe111 2.002 . S
O129 C125 1.295 . S
O130 Fe113 1.997 . S
O130 C125 1.235 . S
C131 O114 1.295 . S
C131 O115 1.235 . S
Fe132 O134 1.918 . S
Fe132 O137 1.997 . S
Fe132 O138 2.002 . S
Fe132 O143 1.976 . S
Fe132 O146 1.996 . S
Fe133 O134 1.918 . S
Fe133 O141 1.997 . S
Fe133 O144 1.996 . S
Fe133 O148 1.976 . S
Fe133 O151 2.002 . S
O134 Fe132 1.918 . S
O134 Fe133 1.918 . S
O134 Fe135 1.918 . S
Fe135 O134 1.918 . S
Fe135 O136 2.002 . S
Fe135 O145 1.976 . S
Fe135 O149 1.996 . S
Fe135 O152 1.997 . S
O136 Fe135 2.002 . S
O136 C153 1.295 . S
O137 Fe132 1.997 . S
O137 C153 1.235 . S
O138 Fe132 2.002 . S
O138 C139 1.295 . S
C139 O138 1.295 . S
C139 O141 1.235 . S
C140 O145 1.287 . S
C140 O146 1.255 . S
O141 Fe133 1.997 . S
O141 C139 1.235 . S
C142 O148 1.287 . S
C142 O149 1.255 . S
O143 Fe132 1.976 . S
O143 C150 1.287 . S
O144 Fe133 1.996 . S
O144 C150 1.255 . S
O145 Fe135 1.976 . S
O145 C140 1.287 . S
O146 Fe132 1.996 . S
O146 C140 1.255 . S
C147 O151 1.295 . S
C147 O152 1.235 . S
O148 Fe133 1.976 . S
O148 C142 1.287 . S
O149 Fe135 1.996 . S
O149 C142 1.255 . S
C150 O143 1.287 . S
C150 O144 1.255 . S
O151 Fe133 2.002 . S
O151 C147 1.295 . S
O152 Fe135 1.997 . S
O152 C147 1.235 . S
C153 O136 1.295 . S
C153 O137 1.235 . S
Fe154 O156 1.918 . S
Fe154 O159 1.997 . S
Fe154 O160 2.002 . S
Fe154 O165 1.976 . S
Fe154 O168 1.996 . S
Fe155 O156 1.918 . S
Fe155 O163 1.997 . S
Fe155 O166 1.996 . S
Fe155 O170 1.976 . S
Fe155 O173 2.002 . S
O156 Fe154 1.918 . S
O156 Fe155 1.918 . S
O156 Fe157 1.918 . S
Fe157 O156 1.918 . S
Fe157 O158 2.002 . S
Fe157 O167 1.976 . S
Fe157 O171 1.996 . S
Fe157 O174 1.997 . S
O158 Fe157 2.002 . S
O158 C175 1.295 . S
O159 Fe154 1.997 . S
O159 C175 1.235 . S
O160 Fe154 2.002 . S
O160 C161 1.295 . S
C161 O160 1.295 . S
C161 O163 1.235 . S
C162 O167 1.287 . S
C162 O168 1.255 . S
O163 Fe155 1.997 . S
O163 C161 1.235 . S
C164 O170 1.287 . S
C164 O171 1.255 . S
O165 Fe154 1.976 . S
O165 C172 1.287 . S
O166 Fe155 1.996 . S
O166 C172 1.255 . S
O167 Fe157 1.976 . S
O167 C162 1.287 . S
O168 Fe154 1.996 . S
O168 C162 1.255 . S
C169 O173 1.295 . S
C169 O174 1.235 . S
O170 Fe155 1.976 . S
O170 C164 1.287 . S
O171 Fe157 1.996 . S
O171 C164 1.255 . S
C172 O165 1.287 . S
C172 O166 1.255 . S
O173 Fe155 2.002 . S
O173 C169 1.295 . S
O174 Fe157 1.997 . S
O174 C169 1.235 . S
C175 O158 1.295 . S
C175 O159 1.235 . S
Fe176 O178 1.918 . S
Fe176 O181 1.997 . S
Fe176 O182 2.002 . S
Fe176 O187 1.976 . S
Fe176 O190 1.996 . S
Fe177 O178 1.918 . S
Fe177 O185 1.997 . S
Fe177 O188 1.996 . S
Fe177 O192 1.976 . S
Fe177 O195 2.002 . S
O178 Fe176 1.918 . S
O178 Fe177 1.918 . S
O178 Fe179 1.918 . S
Fe179 O178 1.918 . S
Fe179 O180 2.002 . S
Fe179 O189 1.976 . S
Fe179 O193 1.996 . S
Fe179 O196 1.997 . S
O180 Fe179 2.002 . S
O180 C197 1.295 . S
O181 Fe176 1.997 . S
O181 C197 1.235 . S
O182 Fe176 2.002 . S
O182 C183 1.295 . S
C183 O182 1.295 . S
C183 O185 1.235 . S
C184 O189 1.287 . S
C184 O190 1.255 . S
O185 Fe177 1.997 . S
O185 C183 1.235 . S
C186 O192 1.287 . S
C186 O193 1.255 . S
O187 Fe176 1.976 . S
O187 C194 1.287 . S
O188 Fe177 1.996 . S
O188 C194 1.255 . S
O189 Fe179 1.976 . S
O189 C184 1.287 . S
O190 Fe176 1.996 . S
O190 C184 1.255 . S
C191 O195 1.295 . S
C191 O196 1.235 . S
O192 Fe177 1.976 . S
O192 C186 1.287 . S
O193 Fe179 1.996 . S
O193 C186 1.255 . S
C194 O187 1.287 . S
C194 O188 1.255 . S
O195 Fe177 2.002 . S
O195 C191 1.295 . S
O196 Fe179 1.997 . S
O196 C191 1.235 . S
C197 O180 1.295 . S
C197 O181 1.235 . S
Fe198 O200 1.918 . S
Fe198 O203 1.997 . S
Fe198 O204 2.002 . S
Fe198 O209 1.976 . S
Fe198 O212 1.996 . S
Fe199 O200 1.918 . S
Fe199 O207 1.997 . S
Fe199 O210 1.996 . S
Fe199 O214 1.976 . S
Fe199 O217 2.002 . S
O200 Fe198 1.918 . S
O200 Fe199 1.918 . S
O200 Fe201 1.918 . S
Fe201 O200 1.918 . S
Fe201 O202 2.002 . S
Fe201 O211 1.976 . S
Fe201 O215 1.996 . S
Fe201 O218 1.997 . S
O202 Fe201 2.002 . S
O202 C219 1.295 . S
O203 Fe198 1.997 . S
O203 C219 1.235 . S
O204 Fe198 2.002 . S
O204 C205 1.295 . S
C205 O204 1.295 . S
C205 O207 1.235 . S
C206 O211 1.287 . S
C206 O212 1.255 . S
O207 Fe199 1.997 . S
O207 C205 1.235 . S
C208 O214 1.287 . S
C208 O215 1.255 . S
O209 Fe198 1.976 . S
O209 C216 1.287 . S
O210 Fe199 1.996 . S
O210 C216 1.255 . S
O211 Fe201 1.976 . S
O211 C206 1.287 . S
O212 Fe198 1.996 . S
O212 C206 1.255 . S
C213 O217 1.295 . S
C213 O218 1.235 . S
O214 Fe199 1.976 . S
O214 C208 1.287 . S
O215 Fe201 1.996 . S
O215 C208 1.255 . S
C216 O209 1.287 . S
C216 O210 1.255 . S
O217 Fe199 2.002 . S
O217 C213 1.295 . S
O218 Fe201 1.997 . S
O218 C213 1.235 . S
C219 O202 1.295 . S
C219 O203 1.235 . S
Fe220 O222 1.918 . S
Fe220 O225 1.997 . S
Fe220 O226 2.002 . S
Fe220 O231 1.976 . S
Fe220 O234 1.996 . S
Fe221 O222 1.918 . S
Fe221 O229 1.997 . S
Fe221 O232 1.996 . S
Fe221 O236 1.976 . S
Fe221 O239 2.002 . S
O222 Fe220 1.918 . S
O222 Fe221 1.918 . S
O222 Fe223 1.918 . S
Fe223 O222 1.918 . S
Fe223 O224 2.002 . S
Fe223 O233 1.976 . S
Fe223 O237 1.996 . S
Fe223 O240 1.997 . S
O224 Fe223 2.002 . S
O224 C241 1.295 . S
O225 Fe220 1.997 . S
O225 C241 1.235 . S
O226 Fe220 2.002 . S
O226 C227 1.295 . S
C227 O226 1.295 . S
C227 O229 1.235 . S
C228 O233 1.287 . S
C228 O234 1.255 . S
O229 Fe221 1.997 . S
O229 C227 1.235 . S
C230 O236 1.287 . S
C230 O237 1.255 . S
O231 Fe220 1.976 . S
O231 C238 1.287 . S
O232 Fe221 1.996 . S
O232 C238 1.255 . S
O233 Fe223 1.976 . S
O233 C228 1.287 . S
O234 Fe220 1.996 . S
O234 C228 1.255 . S
C235 O239 1.295 . S
C235 O240 1.235 . S
O236 Fe221 1.976 . S
O236 C230 1.287 . S
O237 Fe223 1.996 . S
O237 C230 1.255 . S
C238 O231 1.287 . S
C238 O232 1.255 . S
O239 Fe221 2.002 . S
O239 C235 1.295 . S
O240 Fe223 1.997 . S
O240 C235 1.235 . S
C241 O224 1.295 . S
C241 O225 1.235 . S
Fe242 O244 1.918 . S
Fe242 O247 1.997 . S
Fe242 O248 2.002 . S
Fe242 O253 1.976 . S
Fe242 O256 1.996 . S
Fe243 O244 1.918 . S
Fe243 O251 1.997 . S
Fe243 O254 1.996 . S
Fe243 O258 1.976 . S
Fe243 O261 2.002 . S
O244 Fe242 1.918 . S
O244 Fe243 1.918 . S
O244 Fe245 1.918 . S
Fe245 O244 1.918 . S
Fe245 O246 2.002 . S
Fe245 O255 1.976 . S
Fe245 O259 1.996 . S
Fe245 O262 1.997 . S
O246 Fe245 2.002 . S
O246 C263 1.295 . S
O247 Fe242 1.997 . S
O247 C263 1.235 . S
O248 Fe242 2.002 . S
O248 C249 1.295 . S
C249 O248 1.295 . S
C249 O251 1.235 . S
C250 O255 1.287 . S
C250 O256 1.255 . S
O251 Fe243 1.997 . S
O251 C249 1.235 . S
C252 O258 1.287 . S
C252 O259 1.255 . S
O253 Fe242 1.976 . S
O253 C260 1.287 . S
O254 Fe243 1.996 . S
O254 C260 1.255 . S
O255 Fe245 1.976 . S
O255 C250 1.287 . S
O256 Fe242 1.996 . S
O256 C250 1.255 . S
C257 O261 1.295 . S
C257 O262 1.235 . S
O258 Fe243 1.976 . S
O258 C252 1.287 . S
O259 Fe245 1.996 . S
O259 C252 1.255 . S
C260 O253 1.287 . S
C260 O254 1.255 . S
O261 Fe243 2.002 . S
O261 C257 1.295 . S
O262 Fe245 1.997 . S
O262 C257 1.235 . S
C263 O246 1.295 . S
C263 O247 1.235 . S
Fe264 O266 1.918 . S
Fe264 O269 1.997 . S
Fe264 O270 2.002 . S
Fe264 O275 1.976 . S
Fe264 O278 1.996 . S
Fe265 O266 1.918 . S
Fe265 O273 1.997 . S
Fe265 O276 1.996 . S
Fe265 O280 1.976 . S
Fe265 O283 2.002 . S
O266 Fe264 1.918 . S
O266 Fe265 1.918 . S
O266 Fe267 1.918 . S
Fe267 O266 1.918 . S
Fe267 O268 2.002 . S
Fe267 O277 1.976 . S
Fe267 O281 1.996 . S
Fe267 O284 1.997 . S
O268 Fe267 2.002 . S
O268 C285 1.295 . S
O269 Fe264 1.997 . S
O269 C285 1.235 . S
O270 Fe264 2.002 . S
O270 C271 1.295 . S
C271 O270 1.295 . S
C271 O273 1.235 . S
C272 O277 1.287 . S
C272 O278 1.255 . S
O273 Fe265 1.997 . S
O273 C271 1.235 . S
C274 O280 1.287 . S
C274 O281 1.255 . S
O275 Fe264 1.976 . S
O275 C282 1.287 . S
O276 Fe265 1.996 . S
O276 C282 1.255 . S
O277 Fe267 1.976 . S
O277 C272 1.287 . S
O278 Fe264 1.996 . S
O278 C272 1.255 . S
C279 O283 1.295 . S
C279 O284 1.235 . S
O280 Fe265 1.976 . S
O280 C274 1.287 . S
O281 Fe267 1.996 . S
O281 C274 1.255 . S
C282 O275 1.287 . S
C282 O276 1.255 . S
O283 Fe265 2.002 . S
O283 C279 1.295 . S
O284 Fe267 1.997 . S
O284 C279 1.235 . S
C285 O268 1.295 . S
C285 O269 1.235 . S
Fe286 O288 1.918 . S
Fe286 O291 1.997 . S
Fe286 O292 2.002 . S
Fe286 O297 1.976 . S
Fe286 O300 1.996 . S
Fe287 O288 1.918 . S
Fe287 O295 1.997 . S
Fe287 O298 1.996 . S
Fe287 O302 1.976 . S
Fe287 O305 2.002 . S
O288 Fe286 1.918 . S
O288 Fe287 1.918 . S
O288 Fe289 1.918 . S
Fe289 O288 1.918 . S
Fe289 O290 2.002 . S
Fe289 O299 1.976 . S
Fe289 O303 1.996 . S
Fe289 O306 1.997 . S
O290 Fe289 2.002 . S
O290 C307 1.295 . S
O291 Fe286 1.997 . S
O291 C307 1.235 . S
O292 Fe286 2.002 . S
O292 C293 1.295 . S
C293 O292 1.295 . S
C293 O295 1.235 . S
C294 O299 1.287 . S
C294 O300 1.255 . S
O295 Fe287 1.997 . S
O295 C293 1.235 . S
C296 O302 1.287 . S
C296 O303 1.255 . S
O297 Fe286 1.976 . S
O297 C304 1.287 . S
O298 Fe287 1.996 . S
O298 C304 1.255 . S
O299 Fe289 1.976 . S
O299 C294 1.287 . S
O300 Fe286 1.996 . S
O300 C294 1.255 . S
C301 O305 1.295 . S
C301 O306 1.235 . S
O302 Fe287 1.976 . S
O302 C296 1.287 . S
O303 Fe289 1.996 . S
O303 C296 1.255 . S
C304 O297 1.287 . S
C304 O298 1.255 . S
O305 Fe287 2.002 . S
O305 C301 1.295 . S
O306 Fe289 1.997 . S
O306 C301 1.235 . S
C307 O290 1.295 . S
C307 O291 1.235 . S
Fe308 O310 1.918 . S
Fe308 O313 1.997 . S
Fe308 O314 2.002 . S
Fe308 O319 1.976 . S
Fe308 O322 1.996 . S
Fe309 O310 1.918 . S
Fe309 O317 1.997 . S
Fe309 O320 1.996 . S
Fe309 O324 1.976 . S
Fe309 O327 2.002 . S
O310 Fe308 1.918 . S
O310 Fe309 1.918 . S
O310 Fe311 1.918 . S
Fe311 O310 1.918 . S
Fe311 O312 2.002 . S
Fe311 O321 1.976 . S
Fe311 O325 1.996 . S
Fe311 O328 1.997 . S
O312 Fe311 2.002 . S
O312 C329 1.295 . S
O313 Fe308 1.997 . S
O313 C329 1.235 . S
O314 Fe308 2.002 . S
O314 C315 1.295 . S
C315 O314 1.295 . S
C315 O317 1.235 . S
C316 O321 1.287 . S
C316 O322 1.255 . S
O317 Fe309 1.997 . S
O317 C315 1.235 . S
C318 O324 1.287 . S
C318 O325 1.255 . S
O319 Fe308 1.976 . S
O319 C326 1.287 . S
O320 Fe309 1.996 . S
O320 C326 1.255 . S
O321 Fe311 1.976 . S
O321 C316 1.287 . S
O322 Fe308 1.996 . S
O322 C316 1.255 . S
C323 O327 1.295 . S
C323 O328 1.235 . S
O324 Fe309 1.976 . S
O324 C318 1.287 . S
O325 Fe311 1.996 . S
O325 C318 1.255 . S
C326 O319 1.287 . S
C326 O320 1.255 . S
O327 Fe309 2.002 . S
O327 C323 1.295 . S
O328 Fe311 1.997 . S
O328 C323 1.235 . S
C329 O312 1.295 . S
C329 O313 1.235 . S
Fe330 O332 1.918 . S
Fe330 O335 1.997 . S
Fe330 O336 2.002 . S
Fe330 O341 1.976 . S
Fe330 O344 1.996 . S
Fe331 O332 1.918 . S
Fe331 O339 1.997 . S
Fe331 O342 1.996 . S
Fe331 O346 1.976 . S
Fe331 O349 2.002 . S
O332 Fe330 1.918 . S
O332 Fe331 1.918 . S
O332 Fe333 1.918 . S
Fe333 O332 1.918 . S
Fe333 O334 2.002 . S
Fe333 O343 1.976 . S
Fe333 O347 1.996 . S
Fe333 O350 1.997 . S
O334 Fe333 2.002 . S
O334 C351 1.295 . S
O335 Fe330 1.997 . S
O335 C351 1.235 . S
O336 Fe330 2.002 . S
O336 C337 1.295 . S
C337 O336 1.295 . S
C337 O339 1.235 . S
C338 O343 1.287 . S
C338 O344 1.255 . S
O339 Fe331 1.997 . S
O339 C337 1.235 . S
C340 O346 1.287 . S
C340 O347 1.255 . S
O341 Fe330 1.976 . S
O341 C348 1.287 . S
O342 Fe331 1.996 . S
O342 C348 1.255 . S
O343 Fe333 1.976 . S
O343 C338 1.287 . S
O344 Fe330 1.996 . S
O344 C338 1.255 . S
C345 O349 1.295 . S
C345 O350 1.235 . S
O346 Fe331 1.976 . S
O346 C340 1.287 . S
O347 Fe333 1.996 . S
O347 C340 1.255 . S
C348 O341 1.287 . S
C348 O342 1.255 . S
O349 Fe331 2.002 . S
O349 C345 1.295 . S
O350 Fe333 1.997 . S
O350 C345 1.235 . S
C351 O334 1.295 . S
C351 O335 1.235 . S
H352 C360 0.950 . S
H353 C365 0.950 . S
H354 C362 0.950 . S
H355 C364 0.950 . S
H356 C366 0.950 . S
H357 C368 0.980 . S
H358 C370 0.950 . S
H359 C371 0.950 . S
C360 H352 0.950 . S
C360 C361 1.386 . S
C360 C362 1.391 . S
C361 C360 1.386 . S
C361 C365 1.393 . S
C362 H354 0.950 . S
C362 C360 1.391 . S
C362 C363 1.400 . S
C363 C362 1.400 . S
C363 C364 1.398 . S
C363 C369 1.491 1_554 S
C364 H355 0.950 . S
C364 C363 1.398 . S
C364 C365 1.391 . S
C365 H353 0.950 . S
C365 C361 1.393 . S
C365 C364 1.391 . S
C366 H356 0.950 . S
C366 C367 1.386 . S
C366 C368 1.391 . S
C367 C366 1.386 . S
C367 C371 1.393 . S
C368 H357 0.980 . S
C368 C366 1.391 . S
C368 C369 1.400 . S
C369 C363 1.491 1_556 S
C369 C368 1.400 . S
C369 C370 1.398 . S
C370 H358 0.950 . S
C370 C369 1.398 . S
C370 C371 1.391 . S
C371 H359 0.950 . S
C371 C367 1.393 . S
C371 C370 1.391 . S
H372 C380 0.950 . S
H373 C385 0.950 . S
H374 C382 0.950 . S
H375 C384 0.950 . S
H376 C386 0.950 . S
H377 C388 0.950 . S
H378 C390 0.950 . S
H379 C391 0.950 . S
C380 H372 0.950 . S
C380 C381 1.386 . S
C380 C382 1.391 . S
C381 C380 1.386 . S
C381 C385 1.393 . S
C382 H374 0.950 . S
C382 C380 1.391 . S
C382 C383 1.400 . S
C383 C382 1.400 . S
C383 C384 1.398 . S
C383 C389 1.491 . S
C384 H375 0.950 . S
C384 C383 1.398 . S
C384 C385 1.391 . S
C385 H373 0.950 . S
C385 C381 1.393 . S
C385 C384 1.391 . S
C386 H376 0.950 . S
C386 C387 1.386 . S
C386 C388 1.391 . S
C387 C386 1.386 . S
C387 C391 1.393 . S
C388 H377 0.950 . S
C388 C386 1.391 . S
C388 C389 1.400 . S
C389 C383 1.491 . S
C389 C388 1.400 . S
C389 C390 1.398 . S
C390 H378 0.950 . S
C390 C389 1.398 . S
C390 C391 1.391 . S
C391 H379 0.950 . S
C391 C387 1.393 . S
C391 C390 1.391 . S
H392 C400 0.950 . S
H393 C405 0.950 . S
H394 C402 0.950 . S
H395 C404 0.952 1_556 S
H396 C406 0.950 . S
H397 C408 0.950 . S
H398 C410 0.962 . S
H399 C411 0.950 . S
C400 H392 0.950 . S
C400 C401 1.386 . S
C400 C402 1.391 . S
C401 C400 1.386 . S
C401 C405 1.393 . S
C402 H394 0.950 . S
C402 C400 1.391 . S
C402 C403 1.400 . S
C403 C402 1.400 . S
C403 C404 1.398 . S
C403 C409 1.491 1_554 S
C404 H395 0.952 1_554 S
C404 C403 1.398 . S
C404 C405 1.391 . S
C405 H393 0.950 . S
C405 C401 1.393 . S
C405 C404 1.391 . S
C406 H396 0.950 . S
C406 C407 1.386 . S
C406 C408 1.391 . S
C407 C406 1.386 . S
C407 C411 1.393 . S
C408 H397 0.950 . S
C408 C406 1.391 . S
C408 C409 1.400 . S
C409 C403 1.491 1_556 S
C409 C408 1.400 . S
C409 C410 1.398 . S
C410 H398 0.962 . S
C410 C409 1.398 . S
C410 C411 1.391 . S
C411 H399 0.950 . S
C411 C407 1.393 . S
C411 C410 1.391 . S
H412 C420 0.950 . S
H413 C425 0.950 . S
H414 C422 0.950 . S
H415 C424 0.950 . S
H416 C426 0.950 . S
H417 C428 0.950 . S
H418 C430 0.950 . S
H419 C431 0.950 . S
C420 H412 0.950 . S
C420 C421 1.386 . S
C420 C422 1.391 . S
C421 C420 1.386 . S
C421 C425 1.393 . S
C422 H414 0.950 . S
C422 C420 1.391 . S
C422 C423 1.400 . S
C423 C422 1.400 . S
C423 C424 1.398 . S
C423 C429 1.491 . S
C424 H415 0.950 . S
C424 C423 1.398 . S
C424 C425 1.391 . S
C425 H413 0.950 . S
C425 C421 1.393 . S
C425 C424 1.391 . S
C426 H416 0.950 . S
C426 C427 1.386 . S
C426 C428 1.391 . S
C427 C426 1.386 . S
C427 C431 1.393 . S
C428 H417 0.950 . S
C428 C426 1.391 . S
C428 C429 1.400 . S
C429 C423 1.491 . S
C429 C428 1.400 . S
C429 C430 1.398 . S
C430 H418 0.950 . S
C430 C429 1.398 . S
C430 C431 1.391 . S
C431 H419 0.950 . S
C431 C427 1.393 . S
C431 C430 1.391 . S
H432 C440 0.950 . S
H433 C445 0.950 . S
H434 C442 0.950 . S
H435 C444 0.950 . S
H436 C446 0.950 . S
H437 C448 0.950 . S
H438 C450 0.950 . S
H439 C451 0.950 . S
C440 H432 0.950 . S
C440 C441 1.386 . S
C440 C442 1.391 . S
C441 C440 1.386 . S
C441 C445 1.393 . S
C442 H434 0.950 . S
C442 C440 1.391 . S
C442 C443 1.400 . S
C443 C442 1.400 . S
C443 C444 1.398 . S
C443 C449 1.491 1_556 S
C444 H435 0.950 . S
C444 C443 1.398 . S
C444 C445 1.391 . S
C445 H433 0.950 . S
C445 C441 1.393 . S
C445 C444 1.391 . S
C446 H436 0.950 . S
C446 C447 1.386 . S
C446 C448 1.391 . S
C447 C446 1.386 . S
C447 C451 1.393 . S
C448 H437 0.950 . S
C448 C446 1.391 . S
C448 C449 1.400 . S
C449 C443 1.491 1_554 S
C449 C448 1.400 . S
C449 C450 1.398 . S
C450 H438 0.950 . S
C450 C449 1.398 . S
C450 C451 1.391 . S
C451 H439 0.950 . S
C451 C447 1.393 . S
C451 C450 1.391 . S
H452 C460 0.950 . S
H453 C465 0.950 . S
H454 C462 0.950 . S
H455 C464 0.950 . S
H456 C466 0.950 . S
H457 C468 0.950 . S
H458 C470 0.950 . S
H459 C471 0.950 . S
C460 H452 0.950 . S
C460 C461 1.386 . S
C460 C462 1.391 . S
C461 C460 1.386 . S
C461 C465 1.393 . S
C462 H454 0.950 . S
C462 C460 1.391 . S
C462 C463 1.400 . S
C463 C462 1.400 . S
C463 C464 1.398 . S
C463 C469 1.491 . S
C464 H455 0.950 . S
C464 C463 1.398 . S
C464 C465 1.391 . S
C465 H453 0.950 . S
C465 C461 1.393 . S
C465 C464 1.391 . S
C466 H456 0.950 . S
C466 C467 1.386 . S
C466 C468 1.391 . S
C467 C466 1.386 . S
C467 C471 1.393 . S
C468 H457 0.950 . S
C468 C466 1.391 . S
C468 C469 1.400 . S
C469 C463 1.491 . S
C469 C468 1.400 . S
C469 C470 1.398 . S
C470 H458 0.950 . S
C470 C469 1.398 . S
C470 C471 1.391 . S
C471 H459 0.950 . S
C471 C467 1.393 . S
C471 C470 1.391 . S
H472 C480 0.950 . S
H473 C485 0.950 . S
H474 C482 0.950 . S
H475 C484 0.950 . S
H476 C486 0.950 . S
H477 C488 0.950 . S
H478 C490 0.950 . S
H479 C491 0.950 . S
C480 H472 0.950 . S
C480 C481 1.386 . S
C480 C482 1.391 . S
C481 C480 1.386 . S
C481 C485 1.393 . S
C482 H474 0.950 . S
C482 C480 1.391 . S
C482 C483 1.400 . S
C483 C482 1.400 . S
C483 C484 1.398 . S
C483 C489 1.491 1_554 S
C484 H475 0.950 . S
C484 C483 1.398 . S
C484 C485 1.391 . S
C485 H473 0.950 . S
C485 C481 1.393 . S
C485 C484 1.391 . S
C486 H476 0.950 . S
C486 C487 1.386 . S
C486 C488 1.391 . S
C487 C486 1.386 . S
C487 C491 1.393 . S
C488 H477 0.950 . S
C488 C486 1.391 . S
C488 C489 1.400 . S
C489 C483 1.491 1_556 S
C489 C488 1.400 . S
C489 C490 1.398 . S
C490 H478 0.950 . S
C490 C489 1.398 . S
C490 C491 1.391 . S
C491 H479 0.950 . S
C491 C487 1.393 . S
C491 C490 1.391 . S
H492 C500 0.950 . S
H493 C505 0.950 . S
H494 C502 0.950 . S
H495 C504 0.950 . S
H496 C506 0.950 . S
H497 C508 0.950 . S
H498 C510 0.950 . S
H499 C511 0.950 . S
C500 H492 0.950 . S
C500 C501 1.386 . S
C500 C502 1.391 . S
C501 C500 1.386 . S
C501 C505 1.393 . S
C502 H494 0.950 . S
C502 C500 1.391 . S
C502 C503 1.400 . S
C503 C502 1.400 . S
C503 C504 1.398 . S
C503 C509 1.491 . S
C504 H495 0.950 . S
C504 C503 1.398 . S
C504 C505 1.391 . S
C505 H493 0.950 . S
C505 C501 1.393 . S
C505 C504 1.391 . S
C506 H496 0.950 . S
C506 C507 1.386 . S
C506 C508 1.391 . S
C507 C506 1.386 . S
C507 C511 1.393 . S
C508 H497 0.950 . S
C508 C506 1.391 . S
C508 C509 1.400 . S
C509 C503 1.491 . S
C509 C508 1.400 . S
C509 C510 1.398 . S
C510 H498 0.950 . S
C510 C509 1.398 . S
C510 C511 1.391 . S
C511 H499 0.950 . S
C511 C507 1.393 . S
C511 C510 1.391 . S
H512 C520 0.950 . S
H513 C525 0.950 . S
H514 C522 0.950 1_554 S
H515 C524 0.950 1_545 S
H516 C526 0.950 . S
H517 C528 0.950 1_556 S
H518 C530 0.950 1_565 S
H519 C531 0.950 . S
C520 H512 0.950 . S
C520 C521 1.386 . S
C520 C522 1.391 . S
C521 C520 1.386 . S
C521 C525 1.393 . S
C522 H514 0.950 1_556 S
C522 C520 1.391 . S
C522 C523 1.400 . S
C523 C522 1.400 . S
C523 C524 1.398 . S
C523 C529 1.491 1_566 S
C524 H515 0.950 1_565 S
C524 C523 1.398 . S
C524 C525 1.391 . S
C525 H513 0.950 . S
C525 C521 1.393 . S
C525 C524 1.391 . S
C526 H516 0.950 . S
C526 C527 1.386 . S
C526 C528 1.391 . S
C527 C526 1.386 . S
C527 C531 1.393 . S
C528 H517 0.950 1_554 S
C528 C526 1.391 . S
C528 C529 1.400 . S
C529 C523 1.491 1_544 S
C529 C528 1.400 . S
C529 C530 1.398 . S
C530 H518 0.950 1_545 S
C530 C529 1.398 . S
C530 C531 1.391 . S
C531 H519 0.950 . S
C531 C527 1.393 . S
C531 C530 1.391 . S
H532 C540 0.950 . S
H533 C545 0.950 . S
H534 C542 0.950 1_545 S
H535 C544 0.950 . S
H536 C546 0.950 . S
H537 C548 0.950 1_565 S
H538 C550 0.950 . S
H539 C551 0.950 . S
C540 H532 0.950 . S
C540 C541 1.386 . S
C540 C542 1.391 . S
C541 C540 1.386 . S
C541 C545 1.393 . S
C542 H534 0.950 1_565 S
C542 C540 1.391 . S
C542 C543 1.400 . S
C543 C542 1.400 . S
C543 C544 1.398 . S
C543 C549 1.491 1_565 S
C544 H535 0.950 . S
C544 C543 1.398 . S
C544 C545 1.391 . S
C545 H533 0.950 . S
C545 C541 1.393 . S
C545 C544 1.391 . S
C546 H536 0.950 . S
C546 C547 1.386 . S
C546 C548 1.391 . S
C547 C546 1.386 . S
C547 C551 1.393 . S
C548 H537 0.950 1_545 S
C548 C546 1.391 . S
C548 C549 1.400 . S
C549 C543 1.491 1_545 S
C549 C548 1.400 . S
C549 C550 1.398 . S
C550 H538 0.950 . S
C550 C549 1.398 . S
C550 C551 1.391 . S
C551 H539 0.950 . S
C551 C547 1.393 . S
C551 C550 1.391 . S
H552 C560 0.950 . S
H553 C565 0.950 . S
H554 C562 0.950 . S
H555 C564 0.950 . S
H556 C566 0.950 . S
H557 C568 0.950 . S
H558 C570 0.950 . S
H559 C571 0.950 . S
C560 H552 0.950 . S
C560 C561 1.386 . S
C560 C562 1.391 . S
C561 C560 1.386 . S
C561 C565 1.393 . S
C562 H554 0.950 . S
C562 C560 1.391 . S
C562 C563 1.400 . S
C563 C562 1.400 . S
C563 C564 1.398 . S
C563 C569 1.491 1_566 S
C564 H555 0.950 . S
C564 C563 1.398 . S
C564 C565 1.391 . S
C565 H553 0.950 . S
C565 C561 1.393 . S
C565 C564 1.391 . S
C566 H556 0.950 . S
C566 C567 1.386 . S
C566 C568 1.391 . S
C567 C566 1.386 . S
C567 C571 1.393 . S
C568 H557 0.950 . S
C568 C566 1.391 . S
C568 C569 1.400 . S
C569 C563 1.491 1_544 S
C569 C568 1.400 . S
C569 C570 1.398 . S
C570 H558 0.950 . S
C570 C569 1.398 . S
C570 C571 1.391 . S
C571 H559 0.950 . S
C571 C567 1.393 . S
C571 C570 1.391 . S
H572 C580 0.950 . S
H573 C585 0.950 . S
H574 C582 0.950 . S
H575 C584 0.950 . S
H576 C586 0.950 . S
H577 C588 0.950 . S
H578 C590 0.950 . S
H579 C591 0.950 . S
C580 H572 0.950 . S
C580 C581 1.386 . S
C580 C582 1.391 . S
C581 C580 1.386 . S
C581 C585 1.393 . S
C582 H574 0.950 . S
C582 C580 1.391 . S
C582 C583 1.400 . S
C583 C582 1.400 . S
C583 C584 1.398 1_565 S
C583 C589 1.491 1_565 S
C584 H575 0.950 . S
C584 C583 1.398 1_545 S
C584 C585 1.391 1_545 S
C585 H573 0.950 . S
C585 C581 1.393 . S
C585 C584 1.391 1_565 S
C586 H576 0.950 . S
C586 C587 1.386 . S
C586 C588 1.391 . S
C587 C586 1.386 . S
C587 C591 1.393 . S
C588 H577 0.950 . S
C588 C586 1.391 . S
C588 C589 1.400 . S
C589 C583 1.491 1_545 S
C589 C588 1.400 . S
C589 C590 1.398 1_545 S
C590 H578 0.950 . S
C590 C589 1.398 1_565 S
C590 C591 1.391 1_565 S
C591 H579 0.950 . S
C591 C587 1.393 . S
C591 C590 1.391 1_545 S
H592 C600 0.950 . S
H593 C605 0.950 . S
H594 C602 0.950 . S
H595 C604 0.950 . S
H596 C606 0.950 . S
H597 C608 0.950 . S
H598 C610 0.950 . S
H599 C611 0.950 . S
C600 H592 0.950 . S
C600 C601 1.386 . S
C600 C602 1.391 . S
C601 C600 1.386 . S
C601 C605 1.393 . S
C602 H594 0.950 . S
C602 C600 1.391 . S
C602 C603 1.400 . S
C603 C602 1.400 . S
C603 C604 1.398 . S
C603 C609 1.491 1_554 S
C604 H595 0.950 . S
C604 C603 1.398 . S
C604 C605 1.391 . S
C605 H593 0.950 . S
C605 C601 1.393 . S
C605 C604 1.391 . S
C606 H596 0.950 . S
C606 C607 1.386 . S
C606 C608 1.391 . S
C607 C606 1.386 . S
C607 C611 1.393 . S
C608 H597 0.950 . S
C608 C606 1.391 . S
C608 C609 1.400 . S
C609 C603 1.491 1_556 S
C609 C608 1.400 . S
C609 C610 1.398 . S
C610 H598 0.950 . S
C610 C609 1.398 . S
C610 C611 1.391 . S
C611 H599 0.950 . S
C611 C607 1.393 . S
C611 C610 1.391 . S
H612 C620 0.950 . S
H613 C625 0.950 . S
H614 C622 0.950 . S
H615 C624 0.950 . S
H616 C626 0.950 . S
H617 C628 0.950 . S
H618 C630 0.950 . S
H619 C631 0.950 . S
C620 H612 0.950 . S
C620 C621 1.386 . S
C620 C622 1.391 . S
C621 C620 1.386 . S
C621 C625 1.393 . S
C622 H614 0.950 . S
C622 C620 1.391 . S
C622 C623 1.400 . S
C623 C622 1.400 . S
C623 C624 1.398 . S
C623 C629 1.491 . S
C624 H615 0.950 . S
C624 C623 1.398 . S
C624 C625 1.391 . S
C625 H613 0.950 . S
C625 C621 1.393 . S
C625 C624 1.391 . S
C626 H616 0.950 . S
C626 C627 1.386 . S
C626 C628 1.391 . S
C627 C626 1.386 . S
C627 C631 1.393 . S
C628 H617 0.950 . S
C628 C626 1.391 . S
C628 C629 1.400 . S
C629 C623 1.491 . S
C629 C628 1.400 . S
C629 C630 1.398 . S
C630 H618 0.950 . S
C630 C629 1.398 . S
C630 C631 1.391 . S
C631 H619 0.950 . S
C631 C627 1.393 . S
C631 C630 1.391 . S
H632 C640 0.950 . S
H633 C645 0.950 . S
H634 C642 0.950 . S
H635 C644 0.950 . S
H636 C646 0.950 . S
H637 C648 0.950 . S
H638 C650 0.950 . S
H639 C651 0.950 . S
C640 H632 0.950 . S
C640 C641 1.386 . S
C640 C642 1.391 . S
C641 C640 1.386 . S
C641 C645 1.393 . S
C642 H634 0.950 . S
C642 C640 1.391 . S
C642 C643 1.400 . S
C643 C642 1.400 . S
C643 C644 1.398 . S
C643 C649 1.491 1_554 S
C644 H635 0.950 . S
C644 C643 1.398 . S
C644 C645 1.391 . S
C645 H633 0.950 . S
C645 C641 1.393 . S
C645 C644 1.391 . S
C646 H636 0.950 . S
C646 C647 1.386 . S
C646 C648 1.391 . S
C647 C646 1.386 . S
C647 C651 1.393 . S
C648 H637 0.950 . S
C648 C646 1.391 . S
C648 C649 1.400 . S
C649 C643 1.491 1_556 S
C649 C648 1.400 . S
C649 C650 1.398 . S
C650 H638 0.950 . S
C650 C649 1.398 . S
C650 C651 1.391 . S
C651 H639 0.950 . S
C651 C647 1.393 . S
C651 C650 1.391 . S
H652 C660 0.950 . S
H653 C665 0.950 . S
H654 C662 0.950 . S
H655 C664 0.950 . S
H656 C666 0.950 . S
H657 C668 0.950 . S
H658 C670 0.950 . S
H659 C671 0.950 . S
C660 H652 0.950 . S
C660 C661 1.386 . S
C660 C662 1.391 . S
C661 C660 1.386 . S
C661 C665 1.393 . S
C662 H654 0.950 . S
C662 C660 1.391 . S
C662 C663 1.400 . S
C663 C662 1.400 . S
C663 C664 1.398 . S
C663 C669 1.491 . S
C664 H655 0.950 . S
C664 C663 1.398 . S
C664 C665 1.391 . S
C665 H653 0.950 . S
C665 C661 1.393 . S
C665 C664 1.391 . S
C666 H656 0.950 . S
C666 C667 1.386 . S
C666 C668 1.391 . S
C667 C666 1.386 . S
C667 C671 1.393 . S
C668 H657 0.950 . S
C668 C666 1.391 . S
C668 C669 1.400 . S
C669 C663 1.491 . S
C669 C668 1.400 . S
C669 C670 1.398 . S
C670 H658 0.950 . S
C670 C669 1.398 . S
C670 C671 1.391 . S
C671 H659 0.950 . S
C671 C667 1.393 . S
C671 C670 1.391 . S
H672 C680 0.950 . S
H673 C685 0.950 . S
H674 C682 0.950 . S
H675 C684 0.950 . S
H676 C686 0.950 . S
H677 C688 0.950 . S
H678 C690 0.950 . S
H679 C691 0.950 . S
C680 H672 0.950 . S
C680 C681 1.386 . S
C680 C682 1.391 . S
C681 C680 1.386 . S
C681 C685 1.393 . S
C682 H674 0.950 . S
C682 C680 1.391 . S
C682 C683 1.400 . S
C683 C682 1.400 . S
C683 C684 1.398 . S
C683 C689 1.491 . S
C684 H675 0.950 . S
C684 C683 1.398 . S
C684 C685 1.391 . S
C685 H673 0.950 . S
C685 C681 1.393 . S
C685 C684 1.391 . S
C686 H676 0.950 . S
C686 C687 1.386 . S
C686 C688 1.391 . S
C687 C686 1.386 . S
C687 C691 1.393 . S
C688 H677 0.950 . S
C688 C686 1.391 . S
C688 C689 1.400 . S
C689 C683 1.491 . S
C689 C688 1.400 . S
C689 C690 1.398 . S
C690 H678 0.950 . S
C690 C689 1.398 . S
C690 C691 1.391 . S
C691 H679 0.950 . S
C691 C687 1.393 . S
C691 C690 1.391 . S
H692 C700 0.950 . S
H693 C705 0.950 . S
H694 C702 0.950 . S
H695 C704 0.950 . S
H696 C706 0.950 . S
H697 C708 0.950 . S
H698 C710 0.950 . S
H699 C711 0.950 . S
C700 H692 0.950 . S
C700 C701 1.386 . S
C700 C702 1.391 . S
C701 C700 1.386 . S
C701 C705 1.393 . S
C702 H694 0.950 . S
C702 C700 1.391 . S
C702 C703 1.400 . S
C703 C702 1.400 . S
C703 C704 1.398 . S
C703 C709 1.491 . S
C704 H695 0.950 . S
C704 C703 1.398 . S
C704 C705 1.391 . S
C705 H693 0.950 . S
C705 C701 1.393 . S
C705 C704 1.391 . S
C706 H696 0.950 . S
C706 C707 1.386 . S
C706 C708 1.391 . S
C707 C706 1.386 . S
C707 C711 1.393 . S
C708 H697 0.950 . S
C708 C706 1.391 . S
C708 C709 1.400 . S
C709 C703 1.491 . S
C709 C708 1.400 . S
C709 C710 1.398 . S
C710 H698 0.950 . S
C710 C709 1.398 . S
C710 C711 1.391 . S
C711 H699 0.950 . S
C711 C707 1.393 . S
C711 C710 1.391 . S
H712 C720 0.950 . S
H713 C725 0.950 . S
H714 C722 0.950 . S
H715 C724 0.950 . S
H716 C726 0.950 . S
H717 C728 0.950 . S
H718 C730 0.950 . S
H719 C731 0.950 . S
C720 H712 0.950 . S
C720 C721 1.386 . S
C720 C722 1.391 . S
C721 C720 1.386 . S
C721 C725 1.393 . S
C722 H714 0.950 . S
C722 C720 1.391 . S
C722 C723 1.400 . S
C723 C722 1.400 . S
C723 C724 1.398 . S
C723 C729 1.491 . S
C724 H715 0.950 . S
C724 C723 1.398 . S
C724 C725 1.391 . S
C725 H713 0.950 . S
C725 C721 1.393 . S
C725 C724 1.391 . S
C726 H716 0.950 . S
C726 C727 1.386 . S
C726 C728 1.391 . S
C727 C726 1.386 . S
C727 C731 1.393 . S
C728 H717 0.950 . S
C728 C726 1.391 . S
C728 C729 1.400 . S
C729 C723 1.491 . S
C729 C728 1.400 . S
C729 C730 1.398 . S
C730 H718 0.950 . S
C730 C729 1.398 . S
C730 C731 1.391 . S
C731 H719 0.950 . S
C731 C727 1.393 . S
C731 C730 1.391 . S
H732 C740 0.950 . S
H733 C745 0.950 . S
H734 C742 0.950 . S
H735 C744 0.950 . S
H736 C746 0.950 . S
H737 C748 0.950 . S
H738 C750 0.950 . S
H739 C751 0.950 . S
C740 H732 0.950 . S
C740 C741 1.386 . S
C740 C742 1.391 . S
C741 C740 1.386 . S
C741 C745 1.393 . S
C742 H734 0.950 . S
C742 C740 1.391 . S
C742 C743 1.400 . S
C743 C742 1.400 . S
C743 C744 1.398 . S
C743 C749 1.491 . S
C744 H735 0.950 . S
C744 C743 1.398 . S
C744 C745 1.391 . S
C745 H733 0.950 . S
C745 C741 1.393 . S
C745 C744 1.391 . S
C746 H736 0.950 . S
C746 C747 1.386 . S
C746 C748 1.391 . S
C747 C746 1.386 . S
C747 C751 1.393 . S
C748 H737 0.950 . S
C748 C746 1.391 . S
C748 C749 1.400 . S
C749 C743 1.491 . S
C749 C748 1.400 . S
C749 C750 1.398 . S
C750 H738 0.950 . S
C750 C749 1.398 . S
C750 C751 1.391 . S
C751 H739 0.950 . S
C751 C747 1.393 . S
C751 C750 1.391 . S
H752 C760 0.950 . S
H753 C765 0.950 . S
H754 C762 0.950 . S
H755 C764 0.950 . S
H756 C766 0.950 . S
H757 C768 0.950 . S
H758 C770 0.950 . S
H759 C771 0.950 . S
C760 H752 0.950 . S
C760 C761 1.386 . S
C760 C762 1.391 . S
C761 C760 1.386 . S
C761 C765 1.393 . S
C762 H754 0.950 . S
C762 C760 1.391 . S
C762 C763 1.400 . S
C763 C762 1.400 . S
C763 C764 1.398 . S
C763 C769 1.491 . S
C764 H755 0.950 . S
C764 C763 1.398 . S
C764 C765 1.391 . S
C765 H753 0.950 . S
C765 C761 1.393 . S
C765 C764 1.391 . S
C766 H756 0.950 . S
C766 C767 1.386 . S
C766 C768 1.391 . S
C767 C766 1.386 . S
C767 C771 1.393 . S
C768 H757 0.950 . S
C768 C766 1.391 . S
C768 C769 1.400 . S
C769 C763 1.491 . S
C769 C768 1.400 . S
C769 C770 1.398 . S
C770 H758 0.950 . S
C770 C769 1.398 . S
C770 C771 1.391 . S
C771 H759 0.950 . S
C771 C767 1.393 . S
C771 C770 1.391 . S
H772 C780 0.950 . S
H773 C785 0.950 . S
H774 C782 0.950 . S
H775 C784 0.950 . S
H776 C786 0.950 . S
H777 C788 0.950 . S
H778 C790 0.950 . S
H779 C791 0.950 . S
C780 H772 0.950 . S
C780 C781 1.386 . S
C780 C782 1.391 . S
C781 C780 1.386 . S
C781 C785 1.393 . S
C782 H774 0.950 . S
C782 C780 1.391 . S
C782 C783 1.400 . S
C783 C782 1.400 . S
C783 C784 1.398 . S
C783 C789 1.491 . S
C784 H775 0.950 . S
C784 C783 1.398 . S
C784 C785 1.391 . S
C785 H773 0.950 . S
C785 C781 1.393 . S
C785 C784 1.391 . S
C786 H776 0.950 . S
C786 C787 1.386 . S
C786 C788 1.391 . S
C787 C786 1.386 . S
C787 C791 1.393 . S
C788 H777 0.950 . S
C788 C786 1.391 . S
C788 C789 1.400 . S
C789 C783 1.491 . S
C789 C788 1.400 . S
C789 C790 1.398 . S
C790 H778 0.950 . S
C790 C789 1.398 . S
C790 C791 1.391 . S
C791 H779 0.950 . S
C791 C787 1.393 . S
C791 C790 1.391 . S
H792 C800 0.950 . S
H793 C805 0.950 . S
H794 C802 0.950 . S
H795 C804 0.950 . S
H796 C806 0.950 . S
H797 C808 0.950 . S
H798 C810 0.950 . S
H799 C811 0.950 . S
C800 H792 0.950 . S
C800 C801 1.386 . S
C800 C802 1.391 . S
C801 C800 1.386 . S
C801 C805 1.393 . S
C802 H794 0.950 . S
C802 C800 1.391 . S
C802 C803 1.400 . S
C803 C802 1.400 . S
C803 C804 1.398 . S
C803 C809 1.491 . S
C804 H795 0.950 . S
C804 C803 1.398 . S
C804 C805 1.391 . S
C805 H793 0.950 . S
C805 C801 1.393 . S
C805 C804 1.391 . S
C806 H796 0.950 . S
C806 C807 1.386 . S
C806 C808 1.391 . S
C807 C806 1.386 . S
C807 C811 1.393 . S
C808 H797 0.950 . S
C808 C806 1.391 . S
C808 C809 1.400 . S
C809 C803 1.491 . S
C809 C808 1.400 . S
C809 C810 1.398 . S
C810 H798 0.950 . S
C810 C809 1.398 . S
C810 C811 1.391 . S
C811 H799 0.950 . S
C811 C807 1.393 . S
C811 C810 1.391 . S
H812 C820 0.950 . S
H813 C825 0.950 . S
H814 C822 0.950 . S
H815 C824 0.950 . S
H816 C826 0.950 . S
H817 C828 0.950 . S
H818 C830 0.950 . S
H819 C831 0.950 . S
C820 H812 0.950 . S
C820 C821 1.386 . S
C820 C822 1.391 . S
C821 C820 1.386 . S
C821 C825 1.393 . S
C822 H814 0.950 . S
C822 C820 1.391 . S
C822 C823 1.400 . S
C823 C822 1.400 . S
C823 C824 1.398 . S
C823 C829 1.491 . S
C824 H815 0.950 . S
C824 C823 1.398 . S
C824 C825 1.391 . S
C825 H813 0.950 . S
C825 C821 1.393 . S
C825 C824 1.391 . S
C826 H816 0.950 . S
C826 C827 1.386 . S
C826 C828 1.391 . S
C827 C826 1.386 . S
C827 C831 1.393 . S
C828 H817 0.950 . S
C828 C826 1.391 . S
C828 C829 1.400 . S
C829 C823 1.491 . S
C829 C828 1.400 . S
C829 C830 1.398 . S
C830 H818 0.950 . S
C830 C829 1.398 . S
C830 C831 1.391 . S
C831 H819 0.950 . S
C831 C827 1.393 . S
C831 C830 1.391 . S
H832 C840 0.950 . S
H833 C845 0.950 . S
H834 C842 0.950 . S
H835 C844 0.950 . S
H836 C846 0.950 . S
H837 C848 0.950 . S
H838 C850 0.950 . S
H839 C851 0.950 . S
C840 H832 0.950 . S
C840 C841 1.386 . S
C840 C842 1.391 . S
C841 C840 1.386 . S
C841 C845 1.393 . S
C842 H834 0.950 . S
C842 C840 1.391 . S
C842 C843 1.400 . S
C843 C842 1.400 . S
C843 C844 1.398 . S
C843 C849 1.491 . S
C844 H835 0.950 . S
C844 C843 1.398 . S
C844 C845 1.391 . S
C845 H833 0.950 . S
C845 C841 1.393 . S
C845 C844 1.391 . S
C846 H836 0.950 . S
C846 C847 1.386 . S
C846 C848 1.391 . S
C847 C846 1.386 . S
C847 C851 1.393 . S
C848 H837 0.950 . S
C848 C846 1.391 . S
C848 C849 1.400 . S
C849 C843 1.491 . S
C849 C848 1.400 . S
C849 C850 1.398 . S
C850 H838 0.950 . S
C850 C849 1.398 . S
C850 C851 1.391 . S
C851 H839 0.950 . S
C851 C847 1.393 . S
C851 C850 1.391 . S
H852 C860 0.950 . S
H853 C865 0.950 . S
H854 C862 0.950 . S
H855 C864 0.950 . S
H856 C866 0.950 . S
H857 C868 0.950 . S
H858 C870 0.950 . S
H859 C871 0.950 . S
C860 H852 0.950 . S
C860 C861 1.386 . S
C860 C862 1.391 . S
C861 C860 1.386 . S
C861 C865 1.393 . S
C862 H854 0.950 . S
C862 C860 1.391 . S
C862 C863 1.400 . S
C863 C862 1.400 . S
C863 C864 1.398 . S
C863 C869 1.491 1_455 S
C864 H855 0.950 . S
C864 C863 1.398 . S
C864 C865 1.391 . S
C865 H853 0.950 . S
C865 C861 1.393 . S
C865 C864 1.391 . S
C866 H856 0.950 . S
C866 C867 1.386 . S
C866 C868 1.391 . S
C867 C866 1.386 . S
C867 C871 1.393 . S
C868 H857 0.950 . S
C868 C866 1.391 . S
C868 C869 1.400 . S
C869 C863 1.491 1_655 S
C869 C868 1.400 . S
C869 C870 1.398 . S
C870 H858 0.950 . S
C870 C869 1.398 . S
C870 C871 1.391 . S
C871 H859 0.950 . S
C871 C867 1.393 . S
C871 C870 1.391 . S
H872 C880 0.950 . S
H873 C885 0.950 . S
H874 C882 0.950 . S
H875 C884 0.950 . S
H876 C886 0.950 . S
H877 C888 0.950 . S
H878 C890 0.950 . S
H879 C891 0.950 . S
C880 H872 0.950 . S
C880 C881 1.386 . S
C880 C882 1.391 . S
C881 C880 1.386 . S
C881 C885 1.393 . S
C882 H874 0.950 . S
C882 C880 1.391 . S
C882 C883 1.400 . S
C883 C882 1.400 . S
C883 C884 1.398 . S
C883 C889 1.491 . S
C884 H875 0.950 . S
C884 C883 1.398 . S
C884 C885 1.391 . S
C885 H873 0.950 . S
C885 C881 1.393 . S
C885 C884 1.391 . S
C886 H876 0.950 . S
C886 C887 1.386 . S
C886 C888 1.391 . S
C887 C886 1.386 . S
C887 C891 1.393 . S
C888 H877 0.950 . S
C888 C886 1.391 . S
C888 C889 1.400 . S
C889 C883 1.491 . S
C889 C888 1.400 . S
C889 C890 1.398 . S
C890 H878 0.950 . S
C890 C889 1.398 . S
C890 C891 1.391 . S
C891 H879 0.950 . S
C891 C887 1.393 . S
C891 C890 1.391 . S
H892 C900 0.950 . S
H893 C905 0.950 . S
H894 C902 0.950 . S
H895 C904 0.950 . S
H896 C906 0.950 . S
H897 C908 0.950 . S
H898 C910 0.950 . S
H899 C911 0.950 . S
C900 H892 0.950 . S
C900 C901 1.386 . S
C900 C902 1.391 . S
C901 C900 1.386 . S
C901 C905 1.393 . S
C902 H894 0.950 . S
C902 C900 1.391 . S
C902 C903 1.400 . S
C903 C902 1.400 . S
C903 C904 1.398 . S
C903 C909 1.491 1_655 S
C904 H895 0.950 . S
C904 C903 1.398 . S
C904 C905 1.391 . S
C905 H893 0.950 . S
C905 C901 1.393 . S
C905 C904 1.391 . S
C906 H896 0.950 . S
C906 C907 1.386 . S
C906 C908 1.391 . S
C907 C906 1.386 . S
C907 C911 1.393 . S
C908 H897 0.950 . S
C908 C906 1.391 . S
C908 C909 1.400 . S
C909 C903 1.491 1_455 S
C909 C908 1.400 . S
C909 C910 1.398 . S
C910 H898 0.950 . S
C910 C909 1.398 . S
C910 C911 1.391 . S
C911 H899 0.950 . S
C911 C907 1.393 . S
C911 C910 1.391 . S
H912 C920 0.950 . S
H913 C925 0.950 . S
H914 C922 0.950 . S
H915 C924 0.950 . S
H916 C926 0.950 . S
H917 C928 0.950 . S
H918 C930 0.950 . S
H919 C931 0.950 . S
C920 H912 0.950 . S
C920 C921 1.386 . S
C920 C922 1.391 . S
C921 C920 1.386 . S
C921 C925 1.393 . S
C922 H914 0.950 . S
C922 C920 1.391 . S
C922 C923 1.400 . S
C923 C922 1.400 . S
C923 C924 1.398 . S
C923 C929 1.491 1_655 S
C924 H915 0.950 . S
C924 C923 1.398 . S
C924 C925 1.391 . S
C925 H913 0.950 . S
C925 C921 1.393 . S
C925 C924 1.391 . S
C926 H916 0.950 . S
C926 C927 1.386 . S
C926 C928 1.391 . S
C927 C926 1.386 . S
C927 C931 1.393 . S
C928 H917 0.950 . S
C928 C926 1.391 . S
C928 C929 1.400 . S
C929 C923 1.491 1_455 S
C929 C928 1.400 . S
C929 C930 1.398 . S
C930 H918 0.950 . S
C930 C929 1.398 . S
C930 C931 1.391 . S
C931 H919 0.950 . S
C931 C927 1.393 . S
C931 C930 1.391 . S
H932 C940 0.950 . S
H933 C945 0.950 . S
H934 C942 0.950 . S
H935 C944 0.950 . S
H936 C946 0.950 . S
H937 C948 0.950 . S
H938 C950 0.950 . S
H939 C951 0.950 . S
C940 H932 0.950 . S
C940 C941 1.386 . S
C940 C942 1.391 . S
C941 C940 1.386 . S
C941 C945 1.393 . S
C942 H934 0.950 . S
C942 C940 1.391 . S
C942 C943 1.400 . S
C943 C942 1.400 . S
C943 C944 1.398 . S
C943 C949 1.491 . S
C944 H935 0.950 . S
C944 C943 1.398 . S
C944 C945 1.391 . S
C945 H933 0.950 . S
C945 C941 1.393 . S
C945 C944 1.391 . S
C946 H936 0.950 . S
C946 C947 1.386 . S
C946 C948 1.391 . S
C947 C946 1.386 . S
C947 C951 1.393 . S
C948 H937 0.950 . S
C948 C946 1.391 . S
C948 C949 1.400 . S
C949 C943 1.491 . S
C949 C948 1.400 . S
C949 C950 1.398 . S
C950 H938 0.950 . S
C950 C949 1.398 . S
C950 C951 1.391 . S
C951 H939 0.950 . S
C951 C947 1.393 . S
C951 C950 1.391 . S
H952 C960 0.950 . S
H953 C965 0.950 . S
H954 C962 0.950 . S
H955 C964 0.950 . S
H956 C966 0.950 . S
H957 C968 0.950 . S
H958 C970 0.950 . S
H959 C971 0.950 . S
C960 H952 0.950 . S
C960 C961 1.386 . S
C960 C962 1.391 . S
C961 C960 1.386 . S
C961 C965 1.393 . S
C962 H954 0.950 . S
C962 C960 1.391 . S
C962 C963 1.400 . S
C963 C962 1.400 . S
C963 C964 1.398 . S
C963 C969 1.491 1_455 S
C964 H955 0.950 . S
C964 C963 1.398 . S
C964 C965 1.391 . S
C965 H953 0.950 . S
C965 C961 1.393 . S
C965 C964 1.391 . S
C966 H956 0.950 . S
C966 C967 1.386 . S
C966 C968 1.391 . S
C967 C966 1.386 . S
C967 C971 1.393 . S
C968 H957 0.950 . S
C968 C966 1.391 . S
C968 C969 1.400 . S
C969 C963 1.491 1_655 S
C969 C968 1.400 . S
C969 C970 1.398 . S
C970 H958 0.950 . S
C970 C969 1.398 . S
C970 C971 1.391 . S
C971 H959 0.950 . S
C971 C967 1.393 . S
C971 C970 1.391 . S
H972 C980 0.950 . S
H973 C985 0.950 . S
H974 C982 0.950 . S
H975 C984 0.950 . S
H976 C986 0.950 . S
H977 C988 0.950 . S
H978 C990 0.950 . S
H979 C991 0.950 . S
C980 H972 0.950 . S
C980 C981 1.386 . S
C980 C982 1.391 . S
C981 C980 1.386 . S
C981 C985 1.393 . S
C982 H974 0.950 . S
C982 C980 1.391 . S
C982 C983 1.400 . S
C983 C982 1.400 . S
C983 C984 1.398 . S
C983 C989 1.491 . S
C984 H975 0.950 . S
C984 C983 1.398 . S
C984 C985 1.391 . S
C985 H973 0.950 . S
C985 C981 1.393 . S
C985 C984 1.391 . S
C986 H976 0.950 . S
C986 C987 1.386 . S
C986 C988 1.391 . S
C987 C986 1.386 . S
C987 C991 1.393 . S
C988 H977 0.950 . S
C988 C986 1.391 . S
C988 C989 1.400 . S
C989 C983 1.491 . S
C989 C988 1.400 . S
C989 C990 1.398 . S
C990 H978 0.950 . S
C990 C989 1.398 . S
C990 C991 1.391 . S
C991 H979 0.950 . S
C991 C987 1.393 . S
C991 C990 1.391 . S
H992 C1000 0.950 . S
H993 C1005 0.950 . S
H994 C1002 0.950 . S
H995 C1004 0.950 . S
H996 C1006 0.950 . S
H997 C1008 0.950 . S
H998 C1010 0.950 . S
H999 C1011 0.950 . S
C1000 H992 0.950 . S
C1000 C1001 1.386 . S
C1000 C1002 1.391 1_545 S
C1001 C1000 1.386 . S
C1001 C1005 1.393 . S
C1002 H994 0.950 . S
C1002 C1000 1.391 1_565 S
C1002 C1003 1.400 . S
C1003 C1002 1.400 . S
C1003 C1004 1.398 . S
C1003 C1009 1.491 . S
C1004 H995 0.950 . S
C1004 C1003 1.398 . S
C1004 C1005 1.391 1_565 S
C1005 H993 0.950 . S
C1005 C1001 1.393 . S
C1005 C1004 1.391 1_545 S
C1006 H996 0.950 . S
C1006 C1007 1.386 . S
C1006 C1008 1.391 . S
C1007 C1006 1.386 . S
C1007 C1011 1.393 . S
C1008 H997 0.950 . S
C1008 C1006 1.391 . S
C1008 C1009 1.400 . S
C1009 C1003 1.491 . S
C1009 C1008 1.400 . S
C1009 C1010 1.398 . S
C1010 H998 0.950 . S
C1010 C1009 1.398 . S
C1010 C1011 1.391 . S
C1011 H999 0.950 . S
C1011 C1007 1.393 . S
C1011 C1010 1.391 . S
H1012 C1020 0.950 . S
H1013 C1025 0.950 . S
H1014 C1022 0.950 . S
H1015 C1024 0.950 . S
H1016 C1026 0.950 . S
H1017 C1028 0.950 . S
H1018 C1030 0.950 . S
H1019 C1031 0.950 . S
C1020 H1012 0.950 . S
C1020 C1021 1.386 . S
C1020 C1022 1.391 1_565 S
C1021 C1020 1.386 . S
C1021 C1025 1.393 . S
C1022 H1014 0.950 . S
C1022 C1020 1.391 1_545 S
C1022 C1023 1.400 . S
C1023 C1022 1.400 . S
C1023 C1024 1.398 . S
C1023 C1029 1.491 . S
C1024 H1015 0.950 . S
C1024 C1023 1.398 . S
C1024 C1025 1.391 1_545 S
C1025 H1013 0.950 . S
C1025 C1021 1.393 . S
C1025 C1024 1.391 1_565 S
C1026 H1016 0.950 . S
C1026 C1027 1.386 . S
C1026 C1028 1.391 . S
C1027 C1026 1.386 . S
C1027 C1031 1.393 . S
C1028 H1017 0.950 . S
C1028 C1026 1.391 . S
C1028 C1029 1.400 . S
C1029 C1023 1.491 . S
C1029 C1028 1.400 . S
C1029 C1030 1.398 . S
C1030 H1018 0.950 . S
C1030 C1029 1.398 . S
C1030 C1031 1.391 . S
C1031 H1019 0.950 . S
C1031 C1027 1.393 . S
C1031 C1030 1.391 . S
H1032 C1040 0.950 . S
H1033 C1045 0.950 . S
H1034 C1042 0.950 . S
H1035 C1044 0.950 . S
H1036 C1046 0.950 . S
H1037 C1048 0.950 . S
H1038 C1050 0.950 . S
H1039 C1051 0.950 . S
C1040 H1032 0.950 . S
C1040 C1041 1.386 . S
C1040 C1042 1.391 . S
C1041 C1040 1.386 . S
C1041 C1045 1.393 . S
C1042 H1034 0.950 . S
C1042 C1040 1.391 . S
C1042 C1043 1.400 . S
C1043 C1042 1.400 . S
C1043 C1044 1.398 . S
C1043 C1049 1.491 . S
C1044 H1035 0.950 . S
C1044 C1043 1.398 . S
C1044 C1045 1.391 . S
C1045 H1033 0.950 . S
C1045 C1041 1.393 . S
C1045 C1044 1.391 . S
C1046 H1036 0.950 . S
C1046 C1047 1.386 . S
C1046 C1048 1.391 1_565 S
C1047 C1046 1.386 . S
C1047 C1051 1.393 . S
C1048 H1037 0.950 . S
C1048 C1046 1.391 1_545 S
C1048 C1049 1.400 . S
C1049 C1043 1.491 . S
C1049 C1048 1.400 . S
C1049 C1050 1.398 . S
C1050 H1038 0.950 . S
C1050 C1049 1.398 . S
C1050 C1051 1.391 1_545 S
C1051 H1039 0.950 . S
C1051 C1047 1.393 . S
C1051 C1050 1.391 1_565 S
H1052 C1060 0.950 . S
H1053 C1065 0.950 . S
H1054 C1062 0.950 . S
H1055 C1064 0.950 . S
H1056 C1066 0.950 . S
H1057 C1068 0.950 . S
H1058 C1070 0.950 . S
H1059 C1071 0.950 . S
C1060 H1052 0.950 . S
C1060 C1061 1.386 . S
C1060 C1062 1.391 . S
C1061 C1060 1.386 . S
C1061 C1065 1.393 . S
C1062 H1054 0.950 . S
C1062 C1060 1.391 . S
C1062 C1063 1.400 . S
C1063 C1062 1.400 . S
C1063 C1064 1.398 . S
C1063 C1069 1.491 . S
C1064 H1055 0.950 . S
C1064 C1063 1.398 . S
C1064 C1065 1.391 . S
C1065 H1053 0.950 . S
C1065 C1061 1.393 . S
C1065 C1064 1.391 . S
C1066 H1056 0.950 . S
C1066 C1067 1.386 . S
C1066 C1068 1.391 1_545 S
C1067 C1066 1.386 . S
C1067 C1071 1.393 . S
C1068 H1057 0.950 . S
C1068 C1066 1.391 1_565 S
C1068 C1069 1.400 . S
C1069 C1063 1.491 . S
C1069 C1068 1.400 . S
C1069 C1070 1.398 . S
C1070 H1058 0.950 . S
C1070 C1069 1.398 . S
C1070 C1071 1.391 1_565 S
C1071 H1059 0.950 . S
C1071 C1067 1.393 . S
C1071 C1070 1.391 1_545 S
H1072 C1080 0.950 . S
H1073 C1085 0.950 . S
H1074 C1082 0.950 . S
H1075 C1084 0.950 . S
H1076 C1086 0.950 . S
H1077 C1088 0.950 . S
H1078 C1090 0.950 . S
H1079 C1091 0.950 . S
C1080 H1072 0.950 . S
C1080 C1081 1.386 . S
C1080 C1082 1.391 . S
C1081 C1080 1.386 . S
C1081 C1085 1.393 . S
C1082 H1074 0.950 . S
C1082 C1080 1.391 . S
C1082 C1083 1.400 . S
C1083 C1082 1.400 . S
C1083 C1084 1.398 . S
C1083 C1089 1.491 . S
C1084 H1075 0.950 . S
C1084 C1083 1.398 . S
C1084 C1085 1.391 . S
C1085 H1073 0.950 . S
C1085 C1081 1.393 . S
C1085 C1084 1.391 . S
C1086 H1076 0.950 . S
C1086 C1087 1.386 . S
C1086 C1088 1.391 1_565 S
C1087 C1086 1.386 . S
C1087 C1091 1.393 . S
C1088 H1077 0.950 . S
C1088 C1086 1.391 1_545 S
C1088 C1089 1.400 . S
C1089 C1083 1.491 . S
C1089 C1088 1.400 . S
C1089 C1090 1.398 . S
C1090 H1078 0.950 . S
C1090 C1089 1.398 . S
C1090 C1091 1.391 1_545 S
C1091 H1079 0.950 . S
C1091 C1087 1.393 . S
C1091 C1090 1.391 1_565 S
H1092 C1100 0.950 . S
H1093 C1105 0.950 . S
H1094 C1102 0.950 . S
H1095 C1104 0.950 . S
H1096 C1106 0.950 . S
H1097 C1108 0.950 . S
H1098 C1110 0.950 . S
H1099 C1111 0.950 . S
C1100 H1092 0.950 . S
C1100 C1101 1.386 . S
C1100 C1102 1.391 1_545 S
C1101 C1100 1.386 . S
C1101 C1105 1.393 . S
C1102 H1094 0.950 . S
C1102 C1100 1.391 1_565 S
C1102 C1103 1.400 . S
C1103 C1102 1.400 . S
C1103 C1104 1.398 . S
C1103 C1109 1.491 . S
C1104 H1095 0.950 . S
C1104 C1103 1.398 . S
C1104 C1105 1.391 1_565 S
C1105 H1093 0.950 . S
C1105 C1101 1.393 . S
C1105 C1104 1.391 1_545 S
C1106 H1096 0.950 . S
C1106 C1107 1.386 . S
C1106 C1108 1.391 . S
C1107 C1106 1.386 . S
C1107 C1111 1.393 . S
C1108 H1097 0.950 . S
C1108 C1106 1.391 . S
C1108 C1109 1.400 . S
C1109 C1103 1.491 . S
C1109 C1108 1.400 . S
C1109 C1110 1.398 . S
C1110 H1098 0.950 . S
C1110 C1109 1.398 . S
C1110 C1111 1.391 . S
C1111 H1099 0.950 . S
C1111 C1107 1.393 . S
C1111 C1110 1.391 . S
H1112 C1120 0.950 . S
H1113 C1125 0.950 . S
H1114 C1122 0.950 . S
H1115 C1124 0.950 . S
H1116 C1126 0.950 . S
H1117 C1128 0.950 . S
H1118 C1130 0.950 . S
H1119 C1131 0.950 . S
C1120 H1112 0.950 . S
C1120 C1121 1.386 . S
C1120 C1122 1.391 1_545 S
C1121 C1120 1.386 . S
C1121 C1125 1.393 . S
C1122 H1114 0.950 . S
C1122 C1120 1.391 1_565 S
C1122 C1123 1.400 . S
C1123 C1122 1.400 . S
C1123 C1124 1.398 . S
C1123 C1129 1.491 . S
C1124 H1115 0.950 . S
C1124 C1123 1.398 . S
C1124 C1125 1.391 1_565 S
C1125 H1113 0.950 . S
C1125 C1121 1.393 . S
C1125 C1124 1.391 1_545 S
C1126 H1116 0.950 . S
C1126 C1127 1.386 . S
C1126 C1128 1.391 . S
C1127 C1126 1.386 . S
C1127 C1131 1.393 . S
C1128 H1117 0.950 . S
C1128 C1126 1.391 . S
C1128 C1129 1.400 . S
C1129 C1123 1.491 . S
C1129 C1128 1.400 . S
C1129 C1130 1.398 . S
C1130 H1118 0.950 . S
C1130 C1129 1.398 . S
C1130 C1131 1.391 . S
C1131 H1119 0.950 . S
C1131 C1127 1.393 . S
C1131 C1130 1.391 . S
H1132 C1140 0.950 . S
H1133 C1145 0.950 . S
H1134 C1142 0.950 . S
H1135 C1144 0.950 . S
H1136 C1146 0.950 . S
H1137 C1148 0.950 . S
H1138 C1150 0.950 . S
H1139 C1151 0.950 . S
C1140 H1132 0.950 . S
C1140 C1141 1.386 . S
C1140 C1142 1.391 . S
C1141 C1140 1.386 . S
C1141 C1145 1.393 . S
C1142 H1134 0.950 . S
C1142 C1140 1.391 . S
C1142 C1143 1.400 . S
C1143 C1142 1.400 . S
C1143 C1144 1.398 . S
C1143 C1149 1.491 . S
C1144 H1135 0.950 . S
C1144 C1143 1.398 . S
C1144 C1145 1.391 . S
C1145 H1133 0.950 . S
C1145 C1141 1.393 . S
C1145 C1144 1.391 . S
C1146 H1136 0.950 . S
C1146 C1147 1.386 . S
C1146 C1148 1.391 1_565 S
C1147 C1146 1.386 . S
C1147 C1151 1.393 . S
C1148 H1137 0.950 . S
C1148 C1146 1.391 1_545 S
C1148 C1149 1.400 . S
C1149 C1143 1.491 . S
C1149 C1148 1.400 . S
C1149 C1150 1.398 . S
C1150 H1138 0.950 . S
C1150 C1149 1.398 . S
C1150 C1151 1.391 1_545 S
C1151 H1139 0.950 . S
C1151 C1147 1.393 . S
C1151 C1150 1.391 1_565 S
H1152 C1160 0.950 . S
H1153 C1165 0.950 . S
H1154 C1162 0.950 . S
H1155 C1164 0.950 . S
H1156 C1166 0.950 . S
H1157 C1168 0.950 . S
H1158 C1170 0.950 . S
H1159 C1171 0.950 . S
C1160 H1152 0.950 . S
C1160 C1161 1.386 . S
C1160 C1162 1.391 . S
C1161 C1160 1.386 . S
C1161 C1165 1.393 . S
C1162 H1154 0.950 . S
C1162 C1160 1.391 . S
C1162 C1163 1.400 . S
C1163 C1162 1.400 . S
C1163 C1164 1.398 . S
C1163 C1169 1.491 . S
C1164 H1155 0.950 . S
C1164 C1163 1.398 . S
C1164 C1165 1.391 . S
C1165 H1153 0.950 . S
C1165 C1161 1.393 . S
C1165 C1164 1.391 . S
C1166 H1156 0.950 . S
C1166 C1167 1.386 . S
C1166 C1168 1.391 . S
C1167 C1166 1.386 . S
C1167 C1171 1.393 . S
C1168 H1157 0.950 . S
C1168 C1166 1.391 . S
C1168 C1169 1.400 . S
C1169 C1163 1.491 . S
C1169 C1168 1.400 . S
C1169 C1170 1.398 . S
C1170 H1158 0.950 . S
C1170 C1169 1.398 . S
C1170 C1171 1.391 . S
C1171 H1159 0.950 . S
C1171 C1167 1.393 . S
C1171 C1170 1.391 . S
H1172 C1180 0.950 . S
H1173 C1185 0.950 . S
H1174 C1182 0.950 . S
H1175 C1184 0.950 . S
H1176 C1186 0.950 . S
H1177 C1188 0.950 . S
H1178 C1190 0.950 . S
H1179 C1191 0.950 . S
C1180 H1172 0.950 . S
C1180 C1181 1.386 . S
C1180 C1182 1.391 . S
C1181 C1180 1.386 . S
C1181 C1185 1.393 . S
C1182 H1174 0.950 . S
C1182 C1180 1.391 . S
C1182 C1183 1.400 . S
C1183 C1182 1.400 . S
C1183 C1184 1.398 . S
C1183 C1189 1.491 . S
C1184 H1175 0.950 . S
C1184 C1183 1.398 . S
C1184 C1185 1.391 . S
C1185 H1173 0.950 . S
C1185 C1181 1.393 . S
C1185 C1184 1.391 . S
C1186 H1176 0.950 . S
C1186 C1187 1.386 . S
C1186 C1188 1.391 . S
C1187 C1186 1.386 . S
C1187 C1191 1.393 . S
C1188 H1177 0.950 . S
C1188 C1186 1.391 . S
C1188 C1189 1.400 . S
C1189 C1183 1.491 . S
C1189 C1188 1.400 . S
C1189 C1190 1.398 . S
C1190 H1178 0.950 . S
C1190 C1189 1.398 . S
C1190 C1191 1.391 . S
C1191 H1179 0.950 . S
C1191 C1187 1.393 . S
C1191 C1190 1.391 . S
H1192 C1200 0.950 . S
H1193 C1205 0.950 . S
H1194 C1202 0.950 . S
H1195 C1204 0.950 . S
H1196 C1206 0.950 . S
H1197 C1208 0.950 . S
H1198 C1210 0.950 . S
H1199 C1211 0.950 . S
C1200 H1192 0.950 . S
C1200 C1201 1.386 . S
C1200 C1202 1.391 . S
C1201 C1200 1.386 . S
C1201 C1205 1.393 . S
C1202 H1194 0.950 . S
C1202 C1200 1.391 . S
C1202 C1203 1.400 . S
C1203 C1202 1.400 . S
C1203 C1204 1.398 . S
C1203 C1209 1.491 . S
C1204 H1195 0.950 . S
C1204 C1203 1.398 . S
C1204 C1205 1.391 . S
C1205 H1193 0.950 . S
C1205 C1201 1.393 . S
C1205 C1204 1.391 . S
C1206 H1196 0.950 . S
C1206 C1207 1.386 . S
C1206 C1208 1.391 . S
C1207 C1206 1.386 . S
C1207 C1211 1.393 . S
C1208 H1197 0.950 . S
C1208 C1206 1.391 . S
C1208 C1209 1.400 . S
C1209 C1203 1.491 . S
C1209 C1208 1.400 . S
C1209 C1210 1.398 . S
C1210 H1198 0.950 . S
C1210 C1209 1.398 . S
C1210 C1211 1.391 . S
C1211 H1199 0.950 . S
C1211 C1207 1.393 . S
C1211 C1210 1.391 . S
H1212 C1220 0.950 . S
H1213 C1225 0.950 . S
H1214 C1222 0.950 . S
H1215 C1224 0.950 . S
H1216 C1226 0.950 . S
H1217 C1228 0.950 . S
H1218 C1230 0.950 . S
H1219 C1231 0.950 . S
C1220 H1212 0.950 . S
C1220 C1221 1.386 . S
C1220 C1222 1.391 . S
C1221 C1220 1.386 . S
C1221 C1225 1.393 . S
C1222 H1214 0.950 . S
C1222 C1220 1.391 . S
C1222 C1223 1.400 . S
C1223 C1222 1.400 . S
C1223 C1224 1.398 . S
C1223 C1229 1.491 . S
C1224 H1215 0.950 . S
C1224 C1223 1.398 . S
C1224 C1225 1.391 . S
C1225 H1213 0.950 . S
C1225 C1221 1.393 . S
C1225 C1224 1.391 . S
C1226 H1216 0.950 . S
C1226 C1227 1.386 . S
C1226 C1228 1.391 . S
C1227 C1226 1.386 . S
C1227 C1231 1.393 . S
C1228 H1217 0.950 . S
C1228 C1226 1.391 . S
C1228 C1229 1.400 . S
C1229 C1223 1.491 . S
C1229 C1228 1.400 . S
C1229 C1230 1.398 . S
C1230 H1218 0.950 . S
C1230 C1229 1.398 . S
C1230 C1231 1.391 . S
C1231 H1219 0.950 . S
C1231 C1227 1.393 . S
C1231 C1230 1.391 . S
H1232 C1240 0.950 . S
H1233 C1245 0.950 . S
H1234 C1242 0.950 . S
H1235 C1244 0.950 . S
H1236 C1246 0.950 . S
H1237 C1248 0.950 . S
H1238 C1250 0.950 . S
H1239 C1251 0.950 . S
C1240 H1232 0.950 . S
C1240 C1241 1.386 . S
C1240 C1242 1.391 . S
C1241 C1240 1.386 . S
C1241 C1245 1.393 . S
C1242 H1234 0.950 . S
C1242 C1240 1.391 . S
C1242 C1243 1.400 . S
C1243 C1242 1.400 . S
C1243 C1244 1.398 . S
C1243 C1249 1.491 . S
C1244 H1235 0.950 . S
C1244 C1243 1.398 . S
C1244 C1245 1.391 . S
C1245 H1233 0.950 . S
C1245 C1241 1.393 . S
C1245 C1244 1.391 . S
C1246 H1236 0.950 . S
C1246 C1247 1.386 . S
C1246 C1248 1.391 . S
C1247 C1246 1.386 . S
C1247 C1251 1.393 . S
C1248 H1237 0.950 . S
C1248 C1246 1.391 . S
C1248 C1249 1.400 . S
C1249 C1243 1.491 . S
C1249 C1248 1.400 . S
C1249 C1250 1.398 . S
C1250 H1238 0.950 . S
C1250 C1249 1.398 . S
C1250 C1251 1.391 . S
C1251 H1239 0.950 . S
C1251 C1247 1.393 . S
C1251 C1250 1.391 . S
H1252 C1260 0.950 . S
H1253 C1265 0.950 . S
H1254 C1262 0.950 . S
H1255 C1264 0.950 . S
H1256 C1266 0.950 . S
H1257 C1268 0.950 . S
H1258 C1270 0.950 . S
H1259 C1271 0.950 . S
C1260 H1252 0.950 . S
C1260 C1261 1.386 . S
C1260 C1262 1.391 . S
C1261 C1260 1.386 . S
C1261 C1265 1.393 . S
C1262 H1254 0.950 . S
C1262 C1260 1.391 . S
C1262 C1263 1.400 . S
C1263 C1262 1.400 . S
C1263 C1264 1.398 . S
C1263 C1269 1.491 . S
C1264 H1255 0.950 . S
C1264 C1263 1.398 . S
C1264 C1265 1.391 . S
C1265 H1253 0.950 . S
C1265 C1261 1.393 . S
C1265 C1264 1.391 . S
C1266 H1256 0.950 . S
C1266 C1267 1.386 . S
C1266 C1268 1.391 . S
C1267 C1266 1.386 . S
C1267 C1271 1.393 . S
C1268 H1257 0.950 . S
C1268 C1266 1.391 . S
C1268 C1269 1.400 . S
C1269 C1263 1.491 . S
C1269 C1268 1.400 . S
C1269 C1270 1.398 . S
C1270 H1258 0.950 . S
C1270 C1269 1.398 . S
C1270 C1271 1.391 . S
C1271 H1259 0.950 . S
C1271 C1267 1.393 . S
C1271 C1270 1.391 . S
H1272 C1280 0.950 . S
H1273 C1285 0.950 . S
H1274 C1282 0.950 . S
H1275 C1284 0.950 . S
H1276 C1286 0.950 . S
H1277 C1288 0.950 . S
H1278 C1290 0.950 . S
H1279 C1291 0.950 . S
C1280 H1272 0.950 . S
C1280 C1281 1.386 . S
C1280 C1282 1.391 . S
C1281 C1280 1.386 . S
C1281 C1285 1.393 . S
C1282 H1274 0.950 . S
C1282 C1280 1.391 . S
C1282 C1283 1.400 . S
C1283 C1282 1.400 . S
C1283 C1284 1.398 . S
C1283 C1289 1.491 . S
C1284 H1275 0.950 . S
C1284 C1283 1.398 . S
C1284 C1285 1.391 . S
C1285 H1273 0.950 . S
C1285 C1281 1.393 . S
C1285 C1284 1.391 . S
C1286 H1276 0.950 . S
C1286 C1287 1.386 . S
C1286 C1288 1.391 . S
C1287 C1286 1.386 . S
C1287 C1291 1.393 . S
C1288 H1277 0.950 . S
C1288 C1286 1.391 . S
C1288 C1289 1.400 . S
C1289 C1283 1.491 . S
C1289 C1288 1.400 . S
C1289 C1290 1.398 . S
C1290 H1278 0.950 . S
C1290 C1289 1.398 . S
C1290 C1291 1.391 . S
C1291 H1279 0.950 . S
C1291 C1287 1.393 . S
C1291 C1290 1.391 . S
H1292 C1300 0.950 . S
H1293 C1305 0.950 . S
H1294 C1302 0.950 . S
H1295 C1304 0.950 . S
H1296 C1306 0.950 . S
H1297 C1308 0.950 . S
H1298 C1310 0.950 . S
H1299 C1311 0.950 . S
C1300 H1292 0.950 . S
C1300 C1301 1.386 . S
C1300 C1302 1.391 . S
C1301 C1300 1.386 . S
C1301 C1305 1.393 . S
C1302 H1294 0.950 . S
C1302 C1300 1.391 . S
C1302 C1303 1.400 . S
C1303 C1302 1.400 . S
C1303 C1304 1.398 . S
C1303 C1309 1.491 . S
C1304 H1295 0.950 . S
C1304 C1303 1.398 . S
C1304 C1305 1.391 . S
C1305 H1293 0.950 . S
C1305 C1301 1.393 . S
C1305 C1304 1.391 . S
C1306 H1296 0.950 . S
C1306 C1307 1.386 . S
C1306 C1308 1.391 . S
C1307 C1306 1.386 . S
C1307 C1311 1.393 . S
C1308 H1297 0.950 . S
C1308 C1306 1.391 . S
C1308 C1309 1.400 . S
C1309 C1303 1.491 . S
C1309 C1308 1.400 . S
C1309 C1310 1.398 . S
C1310 H1298 0.950 . S
C1310 C1309 1.398 . S
C1310 C1311 1.391 . S
C1311 H1299 0.950 . S
C1311 C1307 1.393 . S
C1311 C1310 1.391 . S
C361 C21 0.910 . S
C367 C279 0.909 . S
C381 C307 0.868 . S
C387 C29 0.874 . S
C401 C323 0.912 . S
C407 C59 0.914 . S
C421 C345 0.904 . S
C427 C87 0.905 . S
C441 C103 0.897 . S
C447 C197 0.901 . S
C461 C219 0.899 . S
C467 C117 0.895 . S
C481 C147 0.886 . S
C487 C241 0.891 . S
C501 C263 0.886 . S
C507 C161 0.881 . S
C521 C65 1.570 . S
C527 C7 1.562 . S
C541 C37 1.561 . S
C547 C73 1.570 . S
C561 C95 1.557 . S
C567 C139 1.562 . S
C581 C175 1.555 . S
C587 C131 1.565 . S
C601 C183 1.562 . S
C607 C227 1.564 . S
C621 C249 1.570 . S
C627 C205 1.562 . S
C641 C315 1.563 . S
C647 C271 1.558 . S
C661 C337 1.559 . S
C667 C301 1.559 . S
C681 C10 1.799 . S
C687 C76 1.800 . S
C701 C62 1.795 . S
C707 C30 1.794 . S
C721 C164 1.814 . S
C727 C96 1.813 . S
C741 C140 1.819 . S
C747 C120 1.818 . S
C761 C252 1.802 . S
C767 C186 1.803 . S
C781 C230 1.803 . S
C787 C208 1.802 . S
C801 C272 1.803 . S
C807 C338 1.803 . S
C821 C316 1.819 . S
C827 C304 1.819 . S
C841 C18 1.431 . S
C847 C150 1.446 . S
C861 C32 1.443 . S
C867 C162 1.435 . S
C881 C106 1.440 . S
C887 C52 1.439 . S
C901 C118 1.443 . S
C907 C84 1.435 . S
C921 C194 1.431 . S
C927 C326 1.445 . S
C941 C216 1.446 . S
C947 C348 1.430 . S
C961 C282 1.436 . S
C967 C238 1.442 . S
C981 C296 1.431 . S
C987 C260 1.446 . S
C1001 C15 1.350 . S
C1007 C318 1.349 . S
C1021 C43 1.356 . S
C1027 C340 1.355 . S
C1041 C274 1.344 . S
C1047 C51 1.365 . S
C1061 C294 1.336 . S
C1067 C81 1.358 . S
C1081 C228 1.342 . S
C1087 C109 1.363 . S
C1101 C125 1.363 . S
C1107 C250 1.343 . S
C1121 C153 1.372 . S
C1127 C184 1.350 . S
C1141 C206 1.340 . S
C1147 C169 1.368 . S
C1161 C142 1.351 . S
C1167 C191 1.350 . S
C1181 C213 1.353 . S
C1187 C172 1.356 . S
C1201 C98 1.346 . S
C1207 C235 1.364 . S
C1221 C257 1.354 . S
C1227 C128 1.356 . S
C1241 C54 1.340 . S
C1247 C285 1.367 . S
C1261 C293 1.371 . S
C1267 C74 1.351 . S
C1281 C329 1.371 . S
C1287 C8 1.341 . S
C1301 C40 1.360 . S
C1307 C351 1.365 . S
