# Generated by pormake.
# Topology gme, (4)-cn, num edge types: 1
# Building blocks:
#     Node 0, Type 0, BuildingBlock: CEKHIL_clean_sbu_0, # of connection points: 4
#     Node 1, Type 0, BuildingBlock: CEKHIL_clean_sbu_0, # of connection points: 4
#     Node 2, Type 0, BuildingBlock: CEKHIL_clean_sbu_0, # of connection points: 4
#     Node 3, Type 0, BuildingBlock: CEKHIL_clean_sbu_0, # of connection points: 4
#     Node 4, Type 0, BuildingBlock: CEKHIL_clean_sbu_0, # of connection points: 4
#     Node 5, Type 0, BuildingBlock: CEKHIL_clean_sbu_0, # of connection points: 4
#     Node 6, Type 0, BuildingBlock: CEKHIL_clean_sbu_0, # of connection points: 4
#     Node 7, Type 0, BuildingBlock: CEKHIL_clean_sbu_0, # of connection points: 4
#     Node 8, Type 0, BuildingBlock: CEKHIL_clean_sbu_0, # of connection points: 4
#     Node 9, Type 0, BuildingBlock: CEKHIL_clean_sbu_0, # of connection points: 4
#     Node 10, Type 0, BuildingBlock: CEKHIL_clean_sbu_0, # of connection points: 4
#     Node 11, Type 0, BuildingBlock: CEKHIL_clean_sbu_0, # of connection points: 4
#     Node 12, Type 0, BuildingBlock: CEKHIL_clean_sbu_0, # of connection points: 4
#     Node 13, Type 0, BuildingBlock: CEKHIL_clean_sbu_0, # of connection points: 4
#     Node 14, Type 0, BuildingBlock: CEKHIL_clean_sbu_0, # of connection points: 4
#     Node 15, Type 0, BuildingBlock: CEKHIL_clean_sbu_0, # of connection points: 4
#     Node 16, Type 0, BuildingBlock: CEKHIL_clean_sbu_0, # of connection points: 4
#     Node 17, Type 0, BuildingBlock: CEKHIL_clean_sbu_0, # of connection points: 4
#     Node 18, Type 0, BuildingBlock: CEKHIL_clean_sbu_0, # of connection points: 4
#     Node 19, Type 0, BuildingBlock: CEKHIL_clean_sbu_0, # of connection points: 4
#     Node 20, Type 0, BuildingBlock: CEKHIL_clean_sbu_0, # of connection points: 4
#     Node 21, Type 0, BuildingBlock: CEKHIL_clean_sbu_0, # of connection points: 4
#     Node 22, Type 0, BuildingBlock: CEKHIL_clean_sbu_0, # of connection points: 4
#     Node 23, Type 0, BuildingBlock: CEKHIL_clean_sbu_0, # of connection points: 4
#     Edge 24, Type (0, 0), BuildingBlock: KIFKEQ_clean_linker_1, # of connection points: 2
#     Edge 25, Type (0, 0), BuildingBlock: KIFKEQ_clean_linker_1, # of connection points: 2
#     Edge 26, Type (0, 0), BuildingBlock: KIFKEQ_clean_linker_1, # of connection points: 2
#     Edge 27, Type (0, 0), BuildingBlock: KIFKEQ_clean_linker_1, # of connection points: 2
#     Edge 28, Type (0, 0), BuildingBlock: KIFKEQ_clean_linker_1, # of connection points: 2
#     Edge 29, Type (0, 0), BuildingBlock: KIFKEQ_clean_linker_1, # of connection points: 2
#     Edge 30, Type (0, 0), BuildingBlock: KIFKEQ_clean_linker_1, # of connection points: 2
#     Edge 31, Type (0, 0), BuildingBlock: KIFKEQ_clean_linker_1, # of connection points: 2
#     Edge 32, Type (0, 0), BuildingBlock: KIFKEQ_clean_linker_1, # of connection points: 2
#     Edge 33, Type (0, 0), BuildingBlock: KIFKEQ_clean_linker_1, # of connection points: 2
#     Edge 34, Type (0, 0), BuildingBlock: KIFKEQ_clean_linker_1, # of connection points: 2
#     Edge 35, Type (0, 0), BuildingBlock: KIFKEQ_clean_linker_1, # of connection points: 2
#     Edge 36, Type (0, 0), BuildingBlock: KIFKEQ_clean_linker_1, # of connection points: 2
#     Edge 37, Type (0, 0), BuildingBlock: KIFKEQ_clean_linker_1, # of connection points: 2
#     Edge 38, Type (0, 0), BuildingBlock: KIFKEQ_clean_linker_1, # of connection points: 2
#     Edge 39, Type (0, 0), BuildingBlock: KIFKEQ_clean_linker_1, # of connection points: 2
#     Edge 40, Type (0, 0), BuildingBlock: KIFKEQ_clean_linker_1, # of connection points: 2
#     Edge 41, Type (0, 0), BuildingBlock: KIFKEQ_clean_linker_1, # of connection points: 2
#     Edge 42, Type (0, 0), BuildingBlock: KIFKEQ_clean_linker_1, # of connection points: 2
#     Edge 43, Type (0, 0), BuildingBlock: KIFKEQ_clean_linker_1, # of connection points: 2
#     Edge 44, Type (0, 0), BuildingBlock: KIFKEQ_clean_linker_1, # of connection points: 2
#     Edge 45, Type (0, 0), BuildingBlock: KIFKEQ_clean_linker_1, # of connection points: 2
#     Edge 46, Type (0, 0), BuildingBlock: KIFKEQ_clean_linker_1, # of connection points: 2
#     Edge 47, Type (0, 0), BuildingBlock: KIFKEQ_clean_linker_1, # of connection points: 2
#     Edge 48, Type (0, 0), BuildingBlock: KIFKEQ_clean_linker_1, # of connection points: 2
#     Edge 49, Type (0, 0), BuildingBlock: KIFKEQ_clean_linker_1, # of connection points: 2
#     Edge 50, Type (0, 0), BuildingBlock: KIFKEQ_clean_linker_1, # of connection points: 2
#     Edge 51, Type (0, 0), BuildingBlock: KIFKEQ_clean_linker_1, # of connection points: 2
#     Edge 52, Type (0, 0), BuildingBlock: KIFKEQ_clean_linker_1, # of connection points: 2
#     Edge 53, Type (0, 0), BuildingBlock: KIFKEQ_clean_linker_1, # of connection points: 2
#     Edge 54, Type (0, 0), BuildingBlock: KIFKEQ_clean_linker_1, # of connection points: 2
#     Edge 55, Type (0, 0), BuildingBlock: KIFKEQ_clean_linker_1, # of connection points: 2
#     Edge 56, Type (0, 0), BuildingBlock: KIFKEQ_clean_linker_1, # of connection points: 2
#     Edge 57, Type (0, 0), BuildingBlock: KIFKEQ_clean_linker_1, # of connection points: 2
#     Edge 58, Type (0, 0), BuildingBlock: KIFKEQ_clean_linker_1, # of connection points: 2
#     Edge 59, Type (0, 0), BuildingBlock: KIFKEQ_clean_linker_1, # of connection points: 2
#     Edge 60, Type (0, 0), BuildingBlock: KIFKEQ_clean_linker_1, # of connection points: 2
#     Edge 61, Type (0, 0), BuildingBlock: KIFKEQ_clean_linker_1, # of connection points: 2
#     Edge 62, Type (0, 0), BuildingBlock: KIFKEQ_clean_linker_1, # of connection points: 2
#     Edge 63, Type (0, 0), BuildingBlock: KIFKEQ_clean_linker_1, # of connection points: 2
#     Edge 64, Type (0, 0), BuildingBlock: KIFKEQ_clean_linker_1, # of connection points: 2
#     Edge 65, Type (0, 0), BuildingBlock: KIFKEQ_clean_linker_1, # of connection points: 2
#     Edge 66, Type (0, 0), BuildingBlock: KIFKEQ_clean_linker_1, # of connection points: 2
#     Edge 67, Type (0, 0), BuildingBlock: KIFKEQ_clean_linker_1, # of connection points: 2
#     Edge 68, Type (0, 0), BuildingBlock: KIFKEQ_clean_linker_1, # of connection points: 2
#     Edge 69, Type (0, 0), BuildingBlock: KIFKEQ_clean_linker_1, # of connection points: 2
#     Edge 70, Type (0, 0), BuildingBlock: KIFKEQ_clean_linker_1, # of connection points: 2
#     Edge 71, Type (0, 0), BuildingBlock: KIFKEQ_clean_linker_1, # of connection points: 2
# Relax obj value: 0.071
# Max RMSD: 0.095
# Mean RMSD: 0.095
data_MOF--net-gme--node1-CEKHIL_clean_sbu_0--edge1-KIFKEQ_clean_linker_1
_symmetry_space_group_name_H-M    P1
_symmetry_Int_Tables_number       1
_symmetry_cell_setting            triclinic
loop_
_symmetry_equiv_pos_as_xyz
'x, y, z'
_cell_length_a     54.796398
_cell_length_b     54.787672
_cell_length_c     57.537581
_cell_angle_alpha  89.996454
_cell_angle_beta   89.991513
_cell_angle_gamma 119.96708
loop_
_atom_site_label
_atom_site_type_symbol
_atom_site_fract_x
_atom_site_fract_y
_atom_site_fract_z
_atom_type_partial_charge
Co0 Co 0.39165 0.06839 0.1204 0.0
O1 O 0.3944 0.07384 0.08742 0.0
O2 O 0.36889 0.03257 0.10469 0.0
C3 C 0.38494 0.10492 0.12837 0.0
O4 O 0.38358 0.05581 0.15438 0.0
Co5 Co 0.43787 0.11625 0.15067 0.0
O6 O 0.41476 0.09195 0.17669 0.0
C7 C 0.45181 0.08021 0.12274 0.0
C8 C 0.37754 0.04697 0.08543 0.0
C9 C 0.39369 0.0672 0.17429 0.0
O10 O 0.42541 0.06275 0.11982 0.0
O11 O 0.46124 0.10447 0.13209 0.0
O12 O 0.36377 0.08074 0.12228 0.0
O13 O 0.40929 0.10672 0.12726 0.0
Co14 Co 0.32343 0.38884 0.61992 0.0
O15 O 0.32557 0.39603 0.58716 0.0
O16 O 0.3381 0.36759 0.60386 0.0
C17 C 0.27968 0.3823 0.62419 0.0
O18 O 0.32296 0.37597 0.65357 0.0
Co19 Co 0.31685 0.42914 0.65405 0.0
O20 O 0.30374 0.39637 0.67508 0.0
C21 C 0.37269 0.44597 0.63395 0.0
C22 C 0.33533 0.37898 0.58488 0.0
C23 C 0.3117 0.37831 0.67254 0.0
O24 O 0.36273 0.42192 0.62382 0.0
O25 O 0.35769 0.45328 0.64593 0.0
O26 O 0.28314 0.36163 0.61735 0.0
O27 O 0.30243 0.40634 0.62643 0.0
Co28 Co 0.93348 0.32338 0.12084 0.0
O29 O 0.9275 0.32195 0.08786 0.0
O30 O 0.96931 0.33987 0.10463 0.0
C31 C 0.89959 0.27859 0.12806 0.0
O32 O 0.94715 0.32731 0.15453 0.0
Co33 Co 0.88455 0.31532 0.15368 0.0
O34 O 0.91015 0.31605 0.1783 0.0
C35 C 0.91551 0.36694 0.12588 0.0
C36 C 0.9546 0.33399 0.08556 0.0
C37 C 0.93574 0.32281 0.17485 0.0
O38 O 0.93525 0.36119 0.12208 0.0
O39 O 0.89217 0.34974 0.1357 0.0
O40 O 0.92419 0.28378 0.12082 0.0
O41 O 0.89573 0.29992 0.12844 0.0
Co42 Co 0.60819 0.93352 0.62049 0.0
O43 O 0.60011 0.92805 0.58782 0.0
O44 O 0.62839 0.96927 0.60418 0.0
C45 C 0.61598 0.89709 0.62465 0.0
O46 O 0.622 0.9465 0.65386 0.0
Co47 Co 0.56962 0.88662 0.65551 0.0
O48 O 0.60288 0.90725 0.67585 0.0
C49 C 0.55087 0.92433 0.63573 0.0
C50 C 0.6169 0.95489 0.58533 0.0
C51 C 0.62049 0.93332 0.6729 0.0
O52 O 0.57465 0.93893 0.62527 0.0
O53 O 0.54443 0.90217 0.64764 0.0
O54 O 0.63593 0.92118 0.61704 0.0
O55 O 0.59175 0.89522 0.62749 0.0
Co56 Co 0.67428 0.61113 0.11899 0.0
O57 O 0.67218 0.60388 0.0862 0.0
O58 O 0.65725 0.63026 0.10317 0.0
C59 C 0.7193 0.6209 0.12268 0.0
O60 O 0.67406 0.62371 0.15256 0.0
Co61 Co 0.6858 0.57364 0.15302 0.0
O62 O 0.69286 0.60388 0.17543 0.0
C63 C 0.62888 0.55203 0.13276 0.0
C64 C 0.66096 0.6197 0.0841 0.0
C65 C 0.68383 0.62099 0.1722 0.0
O66 O 0.63621 0.57617 0.12354 0.0
O67 O 0.64609 0.5466 0.14351 0.0
O68 O 0.71405 0.64043 0.1159 0.0
O69 O 0.69758 0.59624 0.12527 0.0
Co70 Co 0.05823 0.67302 0.62241 0.0
O71 O 0.06557 0.6747 0.58967 0.0
O72 O 0.02348 0.65997 0.6051 0.0
C73 C 0.09457 0.71622 0.63056 0.0
O74 O 0.0434 0.66952 0.65567 0.0
Co75 Co 0.10348 0.6753 0.65666 0.0
O76 O 0.07889 0.67814 0.68036 0.0
C77 C 0.06822 0.62384 0.62971 0.0
C78 C 0.03888 0.66499 0.58652 0.0
C79 C 0.05403 0.67336 0.67626 0.0
O80 O 0.05221 0.63352 0.62329 0.0
O81 O 0.091 0.63808 0.64126 0.0
O82 O 0.071 0.71334 0.62283 0.0
O83 O 0.09611 0.69349 0.63104 0.0
Co84 Co 0.93824 0.61159 0.38837 0.0
O85 O 0.93212 0.60713 0.42124 0.0
O86 O 0.97383 0.63299 0.40475 0.0
C87 C 0.90246 0.61958 0.38082 0.0
O88 O 0.95156 0.62114 0.35463 0.0
Co89 Co 0.89024 0.56733 0.35667 0.0
O90 O 0.91562 0.59121 0.33148 0.0
C91 C 0.92495 0.55118 0.38412 0.0
C92 C 0.959 0.62352 0.42372 0.0
C93 C 0.9405 0.61185 0.33446 0.0
O94 O 0.94299 0.57732 0.38757 0.0
O95 O 0.90086 0.54271 0.37475 0.0
O96 O 0.92656 0.64009 0.38785 0.0
O97 O 0.90019 0.59502 0.38089 0.0
Co98 Co 0.32205 0.93398 0.8921 0.0
O99 O 0.324 0.93124 0.92508 0.0
O100 O 0.33641 0.97098 0.90627 0.0
C101 C 0.27835 0.89645 0.88876 0.0
O102 O 0.32161 0.94335 0.85767 0.0
Co103 Co 0.31634 0.88362 0.86263 0.0
O104 O 0.30588 0.9024 0.83825 0.0
C105 C 0.37032 0.92278 0.88496 0.0
C106 C 0.3335 0.95808 0.92601 0.0
C107 C 0.31231 0.92821 0.8391 0.0
O108 O 0.36145 0.94009 0.88917 0.0
O109 O 0.35468 0.89801 0.87672 0.0
O110 O 0.28164 0.92096 0.89404 0.0
O111 O 0.3012 0.89521 0.88775 0.0
Co112 Co 0.38713 0.32432 0.38868 0.0
O113 O 0.39568 0.32743 0.42129 0.0
O114 O 0.36903 0.34227 0.40468 0.0
C115 C 0.37636 0.279 0.38549 0.0
O116 O 0.3732 0.32347 0.35537 0.0
Co117 Co 0.42279 0.31115 0.35392 0.0
O118 O 0.39017 0.30124 0.3334 0.0
C119 C 0.44598 0.36872 0.37314 0.0
C120 C 0.38006 0.33885 0.4236 0.0
C121 C 0.37383 0.31127 0.33635 0.0
O122 O 0.42225 0.36201 0.38288 0.0
O123 O 0.45064 0.35094 0.36245 0.0
O124 O 0.35756 0.28489 0.39306 0.0
O125 O 0.40114 0.3003 0.38216 0.0
Co126 Co 0.06395 0.38553 0.89028 0.0
O127 O 0.06882 0.39145 0.92323 0.0
O128 O 0.02759 0.36647 0.90579 0.0
C129 C 0.09844 0.37486 0.88548 0.0
O130 O 0.05157 0.37455 0.8564 0.0
Co131 Co 0.11378 0.42457 0.85742 0.0
O132 O 0.09106 0.39466 0.83458 0.0
C133 C 0.08052 0.44631 0.88094 0.0
C134 C 0.04169 0.37617 0.92505 0.0
C135 C 0.06476 0.3776 0.83706 0.0
O136 O 0.06177 0.42119 0.88703 0.0
O137 O 0.10372 0.45204 0.87102 0.0
O138 O 0.07365 0.35552 0.89239 0.0
O139 O 0.10199 0.39987 0.88389 0.0
Co140 Co 0.67036 0.06067 0.38866 0.0
O141 O 0.66813 0.06604 0.4214 0.0
O142 O 0.65545 0.02492 0.40492 0.0
C143 C 0.71426 0.09747 0.38426 0.0
O144 O 0.6709 0.04782 0.35515 0.0
Co145 Co 0.67743 0.1072 0.35384 0.0
O146 O 0.69062 0.08719 0.33333 0.0
C147 C 0.62151 0.06909 0.37421 0.0
C148 C 0.65838 0.03924 0.42383 0.0
C149 C 0.68245 0.06117 0.33615 0.0
O150 O 0.63118 0.05482 0.3845 0.0
O151 O 0.63671 0.09116 0.36205 0.0
O152 O 0.71053 0.07343 0.39165 0.0
O153 O 0.69168 0.09903 0.38168 0.0
Co154 Co 0.60595 0.67502 0.88925 0.0
O155 O 0.60027 0.6736 0.92218 0.0
O156 O 0.62669 0.65923 0.90447 0.0
C157 C 0.61436 0.71941 0.88463 0.0
O158 O 0.61675 0.67453 0.85517 0.0
Co159 Co 0.56363 0.68239 0.85783 0.0
O160 O 0.59335 0.69119 0.83425 0.0
C161 C 0.54581 0.62838 0.88134 0.0
C162 C 0.61658 0.6629 0.92384 0.0
C163 C 0.61203 0.68389 0.83609 0.0
O164 O 0.57165 0.63629 0.88614 0.0
O165 O 0.53794 0.64468 0.87228 0.0
O166 O 0.63454 0.71508 0.89126 0.0
O167 O 0.58977 0.69724 0.88337 0.0
Co168 Co 0.61036 0.9402 0.88732 0.0
O169 O 0.60377 0.93409 0.92013 0.0
O170 O 0.63235 0.97541 0.90401 0.0
C171 C 0.6161 0.90265 0.88151 0.0
O172 O 0.623 0.95403 0.85395 0.0
Co173 Co 0.56937 0.89496 0.85237 0.0
O174 O 0.59964 0.91706 0.82979 0.0
C175 C 0.55323 0.93335 0.87485 0.0
C176 C 0.62132 0.96074 0.92282 0.0
C177 C 0.6187 0.94237 0.83375 0.0
O178 O 0.57748 0.94705 0.88475 0.0
O179 O 0.54561 0.91145 0.86227 0.0
O180 O 0.63712 0.92643 0.88852 0.0
O181 O 0.59225 0.90188 0.87979 0.0
Co182 Co 0.67396 0.60775 0.38734 0.0
O183 O 0.67131 0.60059 0.42011 0.0
O184 O 0.65969 0.62955 0.40309 0.0
C185 C 0.71764 0.61387 0.38379 0.0
O186 O 0.67522 0.62068 0.35356 0.0
Co187 Co 0.68106 0.56729 0.35368 0.0
O188 O 0.69484 0.60015 0.3327 0.0
C189 C 0.62462 0.55126 0.37231 0.0
C190 C 0.66228 0.61825 0.4222 0.0
C191 C 0.6869 0.61828 0.33486 0.0
O192 O 0.63444 0.57497 0.38299 0.0
O193 O 0.63982 0.54398 0.36059 0.0
O194 O 0.71425 0.63467 0.39033 0.0
O195 O 0.69483 0.58992 0.38138 0.0
Co196 Co 0.06064 0.66916 0.88896 0.0
O197 O 0.06562 0.66529 0.92152 0.0
O198 O 0.02452 0.65213 0.90479 0.0
C199 C 0.0964 0.71396 0.88625 0.0
O200 O 0.04802 0.67098 0.85567 0.0
Co201 Co 0.10875 0.68104 0.85394 0.0
O202 O 0.08745 0.69333 0.83407 0.0
C203 C 0.07274 0.62342 0.87265 0.0
C204 C 0.03865 0.65461 0.92371 0.0
C205 C 0.06116 0.68373 0.83691 0.0
O206 O 0.05666 0.63093 0.88298 0.0
O207 O 0.09506 0.64059 0.86153 0.0
O208 O 0.07191 0.70889 0.89366 0.0
O209 O 0.09892 0.69211 0.8826 0.0
Co210 Co 0.38601 0.06204 0.39119 0.0
O211 O 0.39067 0.06562 0.42415 0.0
O212 O 0.3648 0.02515 0.40587 0.0
C213 C 0.37771 0.09819 0.38719 0.0
O214 O 0.37656 0.05172 0.35684 0.0
Co215 Co 0.42884 0.11285 0.36103 0.0
O216 O 0.39976 0.09252 0.33684 0.0
C217 C 0.44632 0.07589 0.3839 0.0
C218 C 0.37433 0.03863 0.42545 0.0
C219 C 0.38156 0.06634 0.33803 0.0
O220 O 0.42049 0.05786 0.38859 0.0
O221 O 0.45422 0.10021 0.37515 0.0
O222 O 0.35722 0.07334 0.39271 0.0
O223 O 0.40228 0.10055 0.38627 0.0
Co224 Co 0.32505 0.38463 0.88782 0.0
O225 O 0.32482 0.39082 0.92059 0.0
O226 O 0.33968 0.36386 0.90459 0.0
C227 C 0.28101 0.37672 0.88171 0.0
O228 O 0.32728 0.37281 0.85437 0.0
Co229 Co 0.31908 0.42504 0.85329 0.0
O230 O 0.31238 0.39538 0.8305 0.0
C231 C 0.37361 0.44322 0.87637 0.0
C232 C 0.33519 0.37434 0.92337 0.0
C233 C 0.31965 0.377 0.83423 0.0
O234 O 0.36404 0.41874 0.88564 0.0
O235 O 0.35877 0.4503 0.86396 0.0
O236 O 0.28493 0.35639 0.88872 0.0
O237 O 0.3034 0.40118 0.88027 0.0
Co238 Co 0.93348 0.32401 0.38976 0.0
O239 O 0.92854 0.32534 0.42262 0.0
O240 O 0.96933 0.33777 0.40563 0.0
C241 C 0.89588 0.28062 0.38512 0.0
O242 O 0.94582 0.32436 0.35597 0.0
Co243 Co 0.88703 0.31873 0.35584 0.0
O244 O 0.90628 0.30554 0.33443 0.0
C245 C 0.92637 0.37398 0.37679 0.0
C246 C 0.95528 0.33464 0.42475 0.0
C247 C 0.93229 0.31347 0.33691 0.0
O248 O 0.94014 0.36357 0.38676 0.0
O249 O 0.90422 0.35949 0.36452 0.0
O250 O 0.91994 0.28358 0.39156 0.0
O251 O 0.89495 0.30361 0.38328 0.0
Co252 Co 0.06128 0.38835 0.62118 0.0
O253 O 0.0673 0.3931 0.58825 0.0
O254 O 0.02555 0.36808 0.6049 0.0
C255 C 0.09616 0.37886 0.62826 0.0
O256 O 0.04779 0.37837 0.65487 0.0
Co257 Co 0.10967 0.43052 0.6537 0.0
O258 O 0.08439 0.40571 0.67848 0.0
C259 C 0.07654 0.44927 0.6267 0.0
C260 C 0.0403 0.37733 0.58587 0.0
C261 C 0.0591 0.38609 0.67517 0.0
O262 O 0.05797 0.42347 0.62246 0.0
O263 O 0.10015 0.45652 0.63655 0.0
O264 O 0.07177 0.35895 0.62113 0.0
O265 O 0.09923 0.40375 0.62865 0.0
Co266 Co 0.67384 0.06158 0.12111 0.0
O267 O 0.67505 0.06856 0.08831 0.0
O268 O 0.66005 0.02657 0.104 0.0
C269 C 0.71746 0.09786 0.12841 0.0
O270 O 0.67062 0.04678 0.15441 0.0
Co271 Co 0.67797 0.10681 0.15604 0.0
O272 O 0.68324 0.08314 0.17909 0.0
C273 C 0.62428 0.07039 0.13182 0.0
C274 C 0.66493 0.04177 0.08533 0.0
C275 C 0.67673 0.05779 0.1749 0.0
O276 O 0.63457 0.05616 0.12246 0.0
O277 O 0.63845 0.09196 0.14476 0.0
O278 O 0.71408 0.07391 0.12115 0.0
O279 O 0.69487 0.09964 0.12934 0.0
Co280 Co 0.61071 0.67198 0.61891 0.0
O281 O 0.60579 0.67241 0.58601 0.0
O282 O 0.63314 0.65862 0.60286 0.0
C283 C 0.61675 0.71532 0.62514 0.0
O284 O 0.62092 0.66989 0.65283 0.0
Co285 Co 0.56591 0.67509 0.65038 0.0
O286 O 0.5921 0.6782 0.67547 0.0
C287 C 0.5514 0.62308 0.62503 0.0
C288 C 0.62301 0.66288 0.58374 0.0
C289 C 0.61271 0.67384 0.67279 0.0
O290 O 0.57756 0.63235 0.62051 0.0
O291 O 0.5421 0.63799 0.63446 0.0
O292 O 0.63795 0.7125 0.61872 0.0
O293 O 0.59273 0.69238 0.62551 0.0
Co294 Co 0.93327 0.60894 0.12018 0.0
O295 O 0.92715 0.60186 0.08743 0.0
O296 O 0.96912 0.62541 0.10395 0.0
C297 C 0.90099 0.62259 0.12486 0.0
O298 O 0.9471 0.6209 0.15368 0.0
Co299 Co 0.88396 0.5738 0.15463 0.0
O300 O 0.90835 0.60464 0.17613 0.0
C301 C 0.91403 0.54788 0.13202 0.0
C302 C 0.95428 0.61569 0.08503 0.0
C303 C 0.93481 0.62007 0.17305 0.0
O304 O 0.93295 0.57207 0.12421 0.0
O305 O 0.89199 0.54412 0.14287 0.0
O306 O 0.92602 0.64053 0.11734 0.0
O307 O 0.89582 0.59707 0.12722 0.0
Co308 Co 0.32204 0.93263 0.62171 0.0
O309 O 0.32136 0.92664 0.58885 0.0
O310 O 0.33485 0.96798 0.60525 0.0
C311 C 0.27893 0.89538 0.62856 0.0
O312 O 0.32429 0.9458 0.65537 0.0
Co313 Co 0.31961 0.88609 0.65442 0.0
O314 O 0.31467 0.90889 0.67871 0.0
C315 C 0.37214 0.92417 0.62975 0.0
C316 C 0.33054 0.95331 0.58631 0.0
C317 C 0.31944 0.93391 0.6755 0.0
O318 O 0.36187 0.93964 0.62323 0.0
O319 O 0.35802 0.90078 0.64056 0.0
O320 O 0.28157 0.91917 0.62171 0.0
O321 O 0.30191 0.8943 0.62897 0.0
Co322 Co 0.38656 0.32746 0.1225 0.0
O323 O 0.3938 0.32738 0.08985 0.0
O324 O 0.36554 0.34115 0.10503 0.0
C325 C 0.37949 0.28388 0.12945 0.0
O326 O 0.37345 0.32939 0.15553 0.0
Co327 Co 0.42672 0.32262 0.15837 0.0
O328 O 0.39696 0.31695 0.18068 0.0
C329 C 0.44385 0.37714 0.13541 0.0
C330 C 0.37665 0.33689 0.08656 0.0
C331 C 0.37799 0.32317 0.17611 0.0
O332 O 0.41981 0.367 0.12524 0.0
O333 O 0.45101 0.3626 0.14815 0.0
O334 O 0.35916 0.28709 0.12133 0.0
O335 O 0.40363 0.30659 0.13114 0.0
H336 H 0.3785 0.01929 0.31887 0.0
H337 H 0.35699 0.08391 0.30668 0.0
H338 H 0.37153 0.007 0.27745 0.0
H339 H 0.34978 0.07167 0.26563 0.0
H340 H 0.41848 0.05061 0.20605 0.0
H341 H 0.40421 0.0382 0.2464 0.0
H342 H 0.32699 0.03866 0.2324 0.0
H343 H 0.34147 0.05093 0.19169 0.0
C344 C 0.37099 0.02992 0.30754 0.0
C345 C 0.36836 0.05259 0.31585 0.0
C346 C 0.36722 0.02308 0.28382 0.0
C347 C 0.36038 0.03855 0.26819 0.0
C348 C 0.3548 0.05915 0.27713 0.0
C349 C 0.35901 0.06625 0.30067 0.0
C350 C 0.39792 0.04684 0.21141 0.0
C351 C 0.38099 0.05157 0.19588 0.0
C352 C 0.38965 0.03963 0.23451 0.0
C353 C 0.36452 0.03761 0.24269 0.0
C354 C 0.3465 0.04015 0.22662 0.0
C355 C 0.35465 0.04697 0.20333 0.0
H356 H 0.35232 0.36802 0.68995 0.0
H357 H 0.26892 0.35422 0.70323 0.0
H358 H 0.35534 0.35533 0.73031 0.0
H359 H 0.27183 0.34211 0.74318 0.0
H360 H 0.27826 0.32871 0.81511 0.0
H361 H 0.27576 0.31584 0.77411 0.0
H362 H 0.36186 0.38266 0.7648 0.0
H363 H 0.36436 0.39445 0.80583 0.0
C364 C 0.33422 0.36115 0.70123 0.0
C365 C 0.31047 0.36229 0.69359 0.0
C366 C 0.33602 0.35418 0.72442 0.0
C367 C 0.31402 0.34808 0.74024 0.0
C368 C 0.28916 0.34639 0.73168 0.0
C369 C 0.28748 0.35351 0.7087 0.0
C370 C 0.29705 0.33949 0.80449 0.0
C371 C 0.32157 0.36234 0.81354 0.0
C372 C 0.29556 0.33244 0.78093 0.0
C373 C 0.31838 0.34862 0.76592 0.0
C374 C 0.3439 0.36953 0.7757 0.0
C375 C 0.34542 0.37634 0.79929 0.0
H376 H 0.94938 0.28527 0.19274 0.0
H377 H 0.95683 0.36629 0.20489 0.0
H378 H 0.96145 0.28333 0.23347 0.0
H379 H 0.96851 0.36449 0.24544 0.0
H380 H 0.98109 0.35646 0.31894 0.0
H381 H 0.99541 0.36109 0.27805 0.0
H382 H 0.92971 0.27522 0.26572 0.0
H383 H 0.91574 0.27084 0.30623 0.0
C384 C 0.95495 0.30324 0.2039 0.0
C385 C 0.95245 0.32603 0.19579 0.0
C386 C 0.96157 0.30205 0.22725 0.0
C387 C 0.96559 0.32358 0.24286 0.0
C388 C 0.96587 0.34766 0.23398 0.0
C389 C 0.95915 0.34874 0.21072 0.0
C390 C 0.97069 0.33825 0.30766 0.0
C391 C 0.94724 0.31334 0.31562 0.0
C392 C 0.97867 0.34095 0.2842 0.0
C393 C 0.96346 0.31867 0.26847 0.0
C394 C 0.94209 0.29278 0.27724 0.0
C395 C 0.93396 0.29023 0.3005 0.0
H396 H 0.63034 0.98429 0.68978 0.0
H397 H 0.64566 0.91573 0.70353 0.0
H398 H 0.64275 0.0003 0.73007 0.0
H399 H 0.65736 0.93095 0.74345 0.0
H400 H 0.66763 0.94942 0.81567 0.0
H401 H 0.68188 0.9604 0.77497 0.0
H402 H 0.61509 0.97948 0.76402 0.0
H403 H 0.602 0.96965 0.80474 0.0
C404 C 0.63751 0.97338 0.70114 0.0
C405 C 0.63678 0.94863 0.69368 0.0
C406 C 0.6443 0.98231 0.72431 0.0
C407 C 0.65056 0.96666 0.74028 0.0
C408 C 0.65288 0.94379 0.73185 0.0
C409 C 0.64601 0.93487 0.70888 0.0
C410 C 0.65714 0.9575 0.80476 0.0
C411 C 0.63392 0.95895 0.81323 0.0
C412 C 0.66498 0.96342 0.78136 0.0
C413 C 0.64923 0.97018 0.76594 0.0
C414 C 0.62793 0.97456 0.77522 0.0
C415 C 0.62034 0.96892 0.79863 0.0
H416 H 0.7307 0.64243 0.30521 0.0
H417 H 0.64688 0.62861 0.31604 0.0
H418 H 0.7292 0.65444 0.26502 0.0
H419 H 0.64532 0.64139 0.27541 0.0
H420 H 0.63835 0.60411 0.19968 0.0
H421 H 0.63969 0.61519 0.24079 0.0
H422 H 0.72688 0.68038 0.23366 0.0
H423 H 0.72558 0.66795 0.1927 0.0
C424 C 0.71234 0.64314 0.29913 0.0
C425 C 0.68885 0.63438 0.31366 0.0
C426 C 0.71146 0.6502 0.27599 0.0
C427 C 0.68694 0.64856 0.26666 0.0
C428 C 0.66439 0.64246 0.28187 0.0
C429 C 0.66537 0.63548 0.30523 0.0
C430 C 0.65737 0.62167 0.20673 0.0
C431 C 0.68181 0.63529 0.19312 0.0
C432 C 0.65822 0.62808 0.23037 0.0
C433 C 0.68361 0.64831 0.24083 0.0
C434 C 0.70714 0.6642 0.22639 0.0
C435 C 0.70637 0.65743 0.20283 0.0
H436 H 0.0432 0.71305 0.69385 0.0
H437 H 0.02963 0.62957 0.70577 0.0
H438 H 0.03154 0.71577 0.73452 0.0
H439 H 0.01866 0.6322 0.74629 0.0
H440 H 0.01094 0.6416 0.81994 0.0
H441 H 0.99506 0.63747 0.77957 0.0
H442 H 0.06214 0.72253 0.76639 0.0
H443 H 0.07738 0.72655 0.80641 0.0
C444 C 0.03636 0.69478 0.70494 0.0
C445 C 0.03708 0.67103 0.6968 0.0
C446 C 0.03001 0.69641 0.72829 0.0
C447 C 0.02466 0.67443 0.74389 0.0
C448 C 0.02241 0.64948 0.73491 0.0
C449 C 0.02872 0.6479 0.71163 0.0
C450 C 0.02135 0.65978 0.80862 0.0
C451 C 0.04557 0.68427 0.81615 0.0
C452 C 0.01248 0.65735 0.78543 0.0
C453 C 0.02763 0.67945 0.76951 0.0
C454 C 0.04977 0.70507 0.77799 0.0
C455 C 0.05867 0.70739 0.801 0.0
H456 H 0.92352 0.65012 0.20398 0.0
H457 H 0.98184 0.62077 0.1899 0.0
H458 H 0.9387 0.65875 0.24423 0.0
H459 H 0.99745 0.6296 0.2305 0.0
H460 H 0.95674 0.58655 0.30305 0.0
H461 H 0.96894 0.60036 0.2627 0.0
H462 H 0.97117 0.67897 0.27667 0.0
H463 H 0.95868 0.66469 0.31736 0.0
C464 C 0.94057 0.64674 0.20933 0.0
C465 C 0.95133 0.63455 0.19394 0.0
C466 C 0.94941 0.65179 0.23245 0.0
C467 C 0.96899 0.64441 0.24078 0.0
C468 C 0.98206 0.63516 0.2247 0.0
C469 C 0.97335 0.63036 0.20139 0.0
C470 C 0.96109 0.60731 0.29769 0.0
C471 C 0.95684 0.62459 0.31318 0.0
C472 C 0.9682 0.61535 0.27454 0.0
C473 C 0.97075 0.64069 0.26629 0.0
C474 C 0.96911 0.65921 0.28242 0.0
C475 C 0.96221 0.6512 0.30574 0.0
H476 H 0.35076 0.97915 0.82021 0.0
H477 H 0.27035 0.90484 0.80763 0.0
H478 H 0.35292 0.99283 0.77928 0.0
H479 H 0.27234 0.9181 0.76719 0.0
H480 H 0.27679 0.93838 0.69504 0.0
H481 H 0.27385 0.94827 0.73612 0.0
H482 H 0.36098 0.97102 0.74525 0.0
H483 H 0.3638 0.96175 0.7042 0.0
C484 C 0.3331 0.96635 0.80891 0.0
C485 C 0.31049 0.94085 0.81696 0.0
C486 C 0.3344 0.97402 0.78545 0.0
C487 C 0.31293 0.95646 0.76982 0.0
C488 C 0.28915 0.93237 0.77862 0.0
C489 C 0.28804 0.9246 0.80184 0.0
C490 C 0.29563 0.94694 0.70565 0.0
C491 C 0.32057 0.94958 0.69657 0.0
C492 C 0.29392 0.95229 0.72922 0.0
C493 C 0.31703 0.95994 0.74414 0.0
C494 C 0.34282 0.9654 0.73435 0.0
C495 C 0.3445 0.96011 0.71079 0.0
H496 H 0.34673 0.26899 0.30557 0.0
H497 H 0.36702 0.35438 0.31968 0.0
H498 H 0.33577 0.27366 0.26566 0.0
H499 H 0.35544 0.35919 0.27941 0.0
H500 H 0.39681 0.36717 0.20526 0.0
H501 H 0.38325 0.36448 0.24578 0.0
H502 H 0.31267 0.28089 0.23398 0.0
H503 H 0.32725 0.28353 0.19341 0.0
C504 C 0.34765 0.28843 0.3003 0.0
C505 C 0.35805 0.31142 0.3156 0.0
C506 C 0.3412 0.29113 0.27734 0.0
C507 C 0.34518 0.31703 0.26903 0.0
C508 C 0.35259 0.33909 0.2851 0.0
C509 C 0.35893 0.33628 0.30825 0.0
C510 C 0.37759 0.34882 0.21111 0.0
C511 C 0.36297 0.32562 0.19632 0.0
C512 C 0.36972 0.3472 0.23442 0.0
C513 C 0.34713 0.3222 0.24341 0.0
C514 C 0.33052 0.30025 0.22778 0.0
C515 C 0.33857 0.30184 0.20446 0.0
H516 H 0.04389 0.3341 0.69233 0.0
H517 H 0.03995 0.40933 0.70613 0.0
H518 H 0.03214 0.31975 0.73305 0.0
H519 H 0.02854 0.39548 0.74662 0.0
H520 H 0.01656 0.37414 0.81992 0.0
H521 H 0.00143 0.36526 0.77916 0.0
H522 H 0.06476 0.34219 0.76509 0.0
H523 H 0.07952 0.35095 0.80545 0.0
C524 C 0.03916 0.34684 0.70385 0.0
C525 C 0.04261 0.37268 0.69623 0.0
C526 C 0.03271 0.33882 0.72719 0.0
C527 C 0.02975 0.35663 0.74323 0.0
C528 C 0.03035 0.38105 0.73483 0.0
C529 C 0.03695 0.38908 0.71161 0.0
C530 C 0.02626 0.36591 0.80827 0.0
C531 C 0.0493 0.36338 0.81569 0.0
C532 C 0.01781 0.36108 0.7849 0.0
C533 C 0.03212 0.35339 0.76873 0.0
C534 C 0.05305 0.34786 0.77695 0.0
C535 C 0.06164 0.35299 0.80013 0.0
H536 H 0.6408 0.01148 0.31796 0.0
H537 H 0.72607 0.07832 0.30652 0.0
H538 H 0.63786 0.99685 0.2773 0.0
H539 H 0.72327 0.06439 0.26624 0.0
H540 H 0.71648 0.04772 0.19345 0.0
H541 H 0.71795 0.03521 0.23407 0.0
H542 H 0.63338 0.02041 0.24386 0.0
H543 H 0.6319 0.03194 0.20327 0.0
C544 C 0.6593 0.02222 0.30703 0.0
C545 C 0.68359 0.04613 0.31525 0.0
C546 C 0.65755 0.0141 0.28366 0.0
C547 C 0.68013 0.02972 0.26824 0.0
C548 C 0.70546 0.05162 0.2774 0.0
C549 C 0.7071 0.05976 0.30058 0.0
C550 C 0.69775 0.04028 0.20407 0.0
C551 C 0.67399 0.0405 0.19533 0.0
C552 C 0.69866 0.03347 0.22741 0.0
C553 C 0.67601 0.02736 0.24249 0.0
C554 C 0.65116 0.02474 0.23291 0.0
C555 C 0.65024 0.03136 0.20957 0.0
H556 H 0.59345 0.63004 0.7024 0.0
H557 H 0.66083 0.71526 0.6923 0.0
H558 H 0.60492 0.63304 0.74357 0.0
H559 H 0.67296 0.71839 0.73359 0.0
H560 H 0.63378 0.72578 0.80448 0.0
H561 H 0.6453 0.7225 0.76433 0.0
H562 H 0.63403 0.63987 0.7778 0.0
H563 H 0.62225 0.64334 0.8184 0.0
C564 C 0.61171 0.64892 0.70886 0.0
C565 C 0.62641 0.67234 0.69428 0.0
C566 C 0.61835 0.6507 0.73248 0.0
C567 C 0.63963 0.67613 0.74204 0.0
C568 C 0.6562 0.69862 0.72686 0.0
C569 C 0.64952 0.69678 0.70317 0.0
C570 C 0.63476 0.70734 0.79906 0.0
C571 C 0.62693 0.68474 0.81444 0.0
C572 C 0.64155 0.70548 0.77601 0.0
C573 C 0.64033 0.68077 0.76766 0.0
C574 C 0.6349 0.65909 0.78362 0.0
C575 C 0.6284 0.66113 0.8069 0.0
H576 H 0.33629 0.10679 0.13415 0.0
H577 H 0.42692 0.15886 0.13439 0.0
H578 H 0.3319 0.14872 0.13946 0.0
H579 H 0.42272 0.20058 0.13858 0.0
H580 H 0.41256 0.27254 0.15736 0.0
H581 H 0.41095 0.22767 0.16231 0.0
H582 H 0.33807 0.18784 0.11731 0.0
H583 H 0.33892 0.23259 0.11349 0.0
C584 C 0.35525 0.12718 0.13548 0.0
C585 C 0.38194 0.12961 0.13376 0.0
C586 C 0.35276 0.15122 0.13836 0.0
C587 C 0.37694 0.17814 0.13938 0.0
C588 C 0.40359 0.18027 0.13835 0.0
C589 C 0.40605 0.1563 0.13574 0.0
C590 C 0.39593 0.25406 0.14887 0.0
C591 C 0.37608 0.25605 0.13481 0.0
C592 C 0.39509 0.22835 0.15156 0.0
C593 C 0.37475 0.20416 0.13982 0.0
C594 C 0.35393 0.20591 0.12676 0.0
C595 C 0.35448 0.23159 0.12444 0.0
H596 H 0.10542 0.33804 0.61051 0.0
H597 H 0.14064 0.40975 0.65658 0.0
H598 H 0.14903 0.33636 0.61273 0.0
H599 H 0.18355 0.40719 0.66005 0.0
H600 H 0.26758 0.424 0.63105 0.0
H601 H 0.22176 0.41983 0.63556 0.0
H602 H 0.18244 0.329 0.63288 0.0
H603 H 0.22875 0.33344 0.62718 0.0
C604 C 0.12223 0.35291 0.62166 0.0
C605 C 0.11996 0.37431 0.63307 0.0
C606 C 0.14722 0.35191 0.62303 0.0
C607 C 0.17014 0.37202 0.6362 0.0
C608 C 0.16675 0.39195 0.64912 0.0
C609 C 0.14209 0.39331 0.64731 0.0
C610 C 0.2492 0.40311 0.63159 0.0
C611 C 0.25172 0.37906 0.62865 0.0
C612 C 0.22282 0.40066 0.63442 0.0
C613 C 0.19823 0.37403 0.63477 0.0
C614 C 0.20085 0.34985 0.63242 0.0
C615 C 0.22735 0.35236 0.62927 0.0
H616 H 0.85712 0.26472 0.15869 0.0
H617 H 0.89002 0.22847 0.11004 0.0
H618 H 0.81497 0.21904 0.16378 0.0
H619 H 0.847 0.18285 0.11392 0.0
H620 H 0.76859 0.10009 0.13011 0.0
H621 H 0.815 0.14206 0.13493 0.0
H622 H 0.77532 0.19304 0.14093 0.0
H623 H 0.72948 0.15132 0.13724 0.0
C624 C 0.85534 0.24684 0.14919 0.0
C625 C 0.87656 0.25011 0.13376 0.0
C626 C 0.83109 0.22066 0.15194 0.0
C627 C 0.82712 0.1973 0.1388 0.0
C628 C 0.84927 0.20026 0.12442 0.0
C629 C 0.87391 0.22642 0.12209 0.0
C630 C 0.76992 0.12028 0.13284 0.0
C631 C 0.74544 0.12245 0.13325 0.0
C632 C 0.7965 0.14436 0.13545 0.0
C633 C 0.79907 0.17107 0.13833 0.0
C634 C 0.77436 0.1729 0.13929 0.0
C635 C 0.74794 0.14891 0.13695 0.0
H636 H 0.57401 0.72596 0.63172 0.0
H637 H 0.66475 0.76696 0.62818 0.0
H638 H 0.57676 0.77129 0.63479 0.0
H639 H 0.66774 0.81282 0.6324 0.0
H640 H 0.6565 0.88737 0.60683 0.0
H641 H 0.65908 0.84432 0.61042 0.0
H642 H 0.58839 0.81041 0.65787 0.0
H643 H 0.58491 0.8526 0.65306 0.0
C644 C 0.59464 0.74472 0.63208 0.0
C645 C 0.61916 0.74294 0.62958 0.0
C646 C 0.59626 0.77082 0.63405 0.0
C647 C 0.62251 0.79587 0.63393 0.0
C648 C 0.64716 0.79402 0.63223 0.0
C649 C 0.64549 0.76777 0.62997 0.0
C650 C 0.64176 0.87076 0.61819 0.0
C651 C 0.62022 0.87305 0.62936 0.0
C652 C 0.64332 0.84614 0.6204 0.0
C653 C 0.62363 0.82359 0.63414 0.0
C654 C 0.60336 0.82692 0.64657 0.0
C655 C 0.60146 0.8512 0.64395 0.0
H656 H 0.76992 0.67058 0.11955 0.0
H657 H 0.73338 0.58187 0.13464 0.0
H658 H 0.8172 0.67673 0.12433 0.0
H659 H 0.77976 0.58761 0.13853 0.0
H660 H 0.86099 0.60067 0.15825 0.0
H661 H 0.81983 0.60601 0.16213 0.0
H662 H 0.84898 0.66479 0.1047 0.0
H663 H 0.89144 0.66075 0.10198 0.0
C664 C 0.77199 0.65249 0.124 0.0
C665 C 0.74798 0.62576 0.12674 0.0
C666 C 0.799 0.65596 0.12664 0.0
C667 C 0.80236 0.63273 0.13204 0.0
C668 C 0.77816 0.60618 0.13501 0.0
C669 C 0.75141 0.60279 0.13255 0.0
C670 C 0.85898 0.61529 0.14686 0.0
C671 C 0.87913 0.63002 0.12963 0.0
C672 C 0.83525 0.6182 0.14893 0.0
C673 C 0.8306 0.63515 0.13325 0.0
C674 C 0.85185 0.65155 0.11707 0.0
C675 C 0.87611 0.64918 0.11543 0.0
H676 H 0.2674 0.84146 0.63397 0.0
H677 H 0.22831 0.89309 0.63465 0.0
H678 H 0.22167 0.79953 0.6383 0.0
H679 H 0.18227 0.85104 0.64025 0.0
H680 H 0.10496 0.76765 0.61544 0.0
H681 H 0.14897 0.81221 0.61875 0.0
H682 H 0.18321 0.77184 0.6619 0.0
H683 H 0.13974 0.72705 0.65733 0.0
C684 C 0.24901 0.84387 0.63555 0.0
C685 C 0.25137 0.87049 0.63378 0.0
C686 C 0.2227 0.81978 0.63825 0.0
C687 C 0.19809 0.82174 0.63965 0.0
C688 C 0.20066 0.84862 0.63883 0.0
C689 C 0.22703 0.87275 0.63577 0.0
C690 C 0.12181 0.76848 0.62589 0.0
C691 C 0.11918 0.7439 0.63584 0.0
C692 C 0.14703 0.79408 0.62792 0.0
C693 C 0.16995 0.79566 0.64031 0.0
C694 C 0.16639 0.77131 0.65164 0.0
C695 C 0.1414 0.74566 0.6492 0.0
H696 H 0.89252 0.66048 0.39719 0.0
H697 H 0.8574 0.58651 0.35365 0.0
H698 H 0.84846 0.66121 0.39478 0.0
H699 H 0.81397 0.58806 0.34994 0.0
H700 H 0.72992 0.57206 0.37846 0.0
H701 H 0.77586 0.57633 0.37424 0.0
H702 H 0.81467 0.66719 0.37421 0.0
H703 H 0.76834 0.66267 0.37967 0.0
C704 C 0.8756 0.64486 0.38656 0.0
C705 C 0.8781 0.62318 0.3759 0.0
C706 C 0.85035 0.64532 0.38506 0.0
C707 C 0.82734 0.62436 0.37251 0.0
C708 C 0.83085 0.604 0.36039 0.0
C709 C 0.85581 0.60321 0.36232 0.0
C710 C 0.74824 0.59296 0.3774 0.0
C711 C 0.7456 0.61702 0.37953 0.0
C712 C 0.77467 0.59546 0.37474 0.0
C713 C 0.79915 0.62215 0.37373 0.0
C714 C 0.79637 0.6463 0.37523 0.0
C715 C 0.76984 0.64375 0.37825 0.0
H716 H 0.10539 0.7632 0.90598 0.0
H717 H 0.14116 0.7292 0.85783 0.0
H718 H 0.14853 0.8091 0.90388 0.0
H719 H 0.18335 0.77501 0.85468 0.0
H720 H 0.26718 0.84282 0.88289 0.0
H721 H 0.22168 0.80051 0.87962 0.0
H722 H 0.18071 0.8505 0.8824 0.0
H723 H 0.22678 0.89316 0.88665 0.0
C724 C 0.12221 0.76575 0.89453 0.0
C725 C 0.12019 0.7426 0.88238 0.0
C726 C 0.14686 0.79205 0.89322 0.0
C727 C 0.16968 0.79563 0.87945 0.0
C728 C 0.1666 0.77282 0.86602 0.0
C729 C 0.1423 0.74656 0.86769 0.0
C730 C 0.24851 0.84487 0.88263 0.0
C731 C 0.25052 0.87127 0.88508 0.0
C732 C 0.22234 0.82057 0.88056 0.0
C733 C 0.19743 0.82204 0.88055 0.0
C734 C 0.19945 0.84859 0.88256 0.0
C735 C 0.22579 0.87301 0.88486 0.0
H736 H 0.41847 0.15172 0.37836 0.0
H737 H 0.32845 0.09992 0.38725 0.0
H738 H 0.41378 0.19311 0.37481 0.0
H739 H 0.32347 0.14175 0.38279 0.0
H740 H 0.33731 0.23034 0.40671 0.0
H741 H 0.33402 0.18418 0.40392 0.0
H742 H 0.39792 0.21659 0.35034 0.0
H743 H 0.40226 0.26264 0.35422 0.0
C744 C 0.39755 0.14912 0.37916 0.0
C745 C 0.37384 0.1226 0.38314 0.0
C746 C 0.39479 0.17289 0.3769 0.0
C747 C 0.36819 0.1708 0.37828 0.0
C748 C 0.34428 0.14412 0.3818 0.0
C749 C 0.34709 0.12018 0.38422 0.0
C750 C 0.35027 0.22732 0.39413 0.0
C751 C 0.37041 0.2501 0.38101 0.0
C752 C 0.34832 0.20089 0.39242 0.0
C753 C 0.36619 0.19685 0.37727 0.0
C754 C 0.38451 0.21918 0.36274 0.0
C755 C 0.38688 0.24558 0.36484 0.0
H756 H 0.22997 0.32765 0.88192 0.0
H757 H 0.26829 0.41771 0.87324 0.0
H758 H 0.18322 0.3229 0.8786 0.0
H759 H 0.22223 0.4133 0.871 0.0
H760 H 0.14021 0.40236 0.85409 0.0
H761 H 0.18201 0.39853 0.84858 0.0
H762 H 0.15178 0.33247 0.90031 0.0
H763 H 0.10876 0.33521 0.9046 0.0
C764 C 0.22839 0.34637 0.87917 0.0
C765 C 0.25275 0.37305 0.87784 0.0
C766 C 0.20164 0.34369 0.87742 0.0
C767 C 0.19883 0.36767 0.87446 0.0
C768 C 0.22339 0.39422 0.8727 0.0
C769 C 0.24994 0.39683 0.87419 0.0
C770 C 0.1422 0.38663 0.86394 0.0
C771 C 0.12146 0.36932 0.87998 0.0
C772 C 0.16632 0.38456 0.86094 0.0
C773 C 0.17074 0.36574 0.87447 0.0
C774 C 0.14911 0.34717 0.88954 0.0
C775 C 0.12452 0.34878 0.8921 0.0
H776 H 0.72723 0.14278 0.35699 0.0
H777 H 0.76457 0.10731 0.40195 0.0
H778 H 0.77261 0.18554 0.35302 0.0
H779 H 0.80984 0.15083 0.3992 0.0
H780 H 0.89253 0.2291 0.38201 0.0
H781 H 0.84987 0.18314 0.37771 0.0
H782 H 0.79983 0.22414 0.37665 0.0
H783 H 0.84223 0.2696 0.37975 0.0
C784 C 0.74523 0.14416 0.36599 0.0
C785 C 0.74238 0.12192 0.37998 0.0
C786 C 0.77124 0.16876 0.36387 0.0
C787 C 0.79487 0.17199 0.37618 0.0
C788 C 0.79223 0.14911 0.38933 0.0
C789 C 0.76625 0.1242 0.39104 0.0
C790 C 0.87237 0.22815 0.38056 0.0
C791 C 0.87066 0.25287 0.38123 0.0
C792 C 0.84791 0.20184 0.37824 0.0
C793 C 0.8213 0.19981 0.37679 0.0
C794 C 0.81988 0.22475 0.37715 0.0
C795 C 0.84424 0.25092 0.37914 0.0
H796 H 0.65538 0.76981 0.90169 0.0
H797 H 0.583 0.73256 0.85636 0.0
H798 H 0.65811 0.81548 0.89779 0.0
H799 H 0.58668 0.77826 0.85111 0.0
H800 H 0.57319 0.84926 0.87556 0.0
H801 H 0.57561 0.80647 0.87339 0.0
H802 H 0.66663 0.8554 0.87598 0.0
H803 H 0.66392 0.89851 0.87943 0.0
C804 C 0.6405 0.7716 0.89043 0.0
C805 C 0.61871 0.74766 0.87963 0.0
C806 C 0.64213 0.7978 0.88805 0.0
C807 C 0.62229 0.80059 0.87444 0.0
C808 C 0.60176 0.77683 0.86235 0.0
C809 C 0.59974 0.75062 0.86519 0.0
C810 C 0.59376 0.85096 0.87545 0.0
C811 C 0.61836 0.87721 0.87776 0.0
C812 C 0.59521 0.82634 0.87399 0.0
C813 C 0.62135 0.82731 0.87438 0.0
C814 C 0.6461 0.85377 0.87595 0.0
C815 C 0.6446 0.87848 0.87776 0.0
H816 H 0.33904 0.93703 0.96693 0.0
H817 H 0.34285 0.01108 0.93681 0.0
H818 H 0.34827 0.9585 0.00506 0.0
H819 H 0.35127 0.03251 0.97551 0.0
H820 H 0.39737 0.07279 0.04382 0.0
H821 H 0.38614 0.05206 0.00529 0.0
H822 H 0.32744 0.97131 0.03534 0.0
H823 H 0.33952 0.99204 0.0742 0.0
C824 C 0.34169 0.95793 0.96848 0.0
C825 C 0.3402 0.97238 0.94883 0.0
C826 C 0.34673 0.97015 0.99047 0.0
C827 C 0.3502 0.99712 0.99351 0.0
C828 C 0.34892 0.01176 0.97379 0.0
C829 C 0.34408 -0.00046 0.95162 0.0
C830 C 0.38199 0.05059 0.04226 0.0
C831 C 0.36945 0.03398 0.06211 0.0
C832 C 0.37538 0.03876 0.02007 0.0
C833 C 0.35591 0.01 0.01711 0.0
C834 C 0.3429 0.99347 0.03698 0.0
C835 C 0.34968 0.00531 0.05926 0.0
H836 H 0.34151 0.35462 0.43588 0.0
H837 H 0.40544 0.33908 0.46429 0.0
H838 H 0.33041 0.36349 0.475 0.0
H839 H 0.39505 0.34875 0.50317 0.0
H840 H 0.3497 0.33933 0.57228 0.0
H841 H 0.36019 0.3296 0.53314 0.0
H842 H 0.34876 0.39674 0.50588 0.0
H843 H 0.33751 0.40575 0.54457 0.0
C844 C 0.35342 0.35344 0.45043 0.0
C845 C 0.37434 0.34617 0.44697 0.0
C846 C 0.34713 0.35858 0.47288 0.0
C847 C 0.36178 0.35675 0.49234 0.0
C848 C 0.38296 0.34984 0.48873 0.0
C849 C 0.38911 0.34455 0.46636 0.0
C850 C 0.34948 0.35196 0.55789 0.0
C851 C 0.3427 0.37322 0.56153 0.0
C852 C 0.35559 0.34651 0.53546 0.0
C853 C 0.35522 0.36232 0.51626 0.0
C854 C 0.34872 0.38375 0.52008 0.0
C855 C 0.34246 0.38905 0.54238 0.0
H856 H 0.06546 0.40233 0.96575 0.0
H857 H 0.98755 0.33643 0.93679 0.0
H858 H 0.04451 0.39236 1.00423 0.0
H859 H 0.9667 0.32552 0.97564 0.0
H860 H 0.92924 0.33211 0.04446 0.0
H861 H 0.94979 0.34237 0.00578 0.0
H862 H 0.02958 0.35942 0.03479 0.0
H863 H 0.00912 0.35022 0.07372 0.0
C864 C 0.04382 0.38554 0.96764 0.0
C865 C 0.02813 0.37016 0.94821 0.0
C866 C 0.03186 0.37965 0.9898 0.0
C867 C 0.00393 0.35797 0.99322 0.0
C868 C 0.98815 0.34263 0.9737 0.0
C869 C 9e-05 0.34877 0.95141 0.0
C870 C 0.95121 0.33811 0.0426 0.0
C871 C 0.9676 0.34044 0.06217 0.0
C872 C 0.96296 0.34378 0.02034 0.0
C873 C 0.99138 0.35167 0.01701 0.0
C874 C 0.00775 0.35386 0.03666 0.0
C875 C 0.99602 0.34846 0.059 0.0
H876 H 0.65728 0.06407 0.46441 0.0
H877 H 0.64439 0.98539 0.43633 0.0
H878 H 0.64727 0.04399 0.50323 0.0
H879 H 0.63514 0.96537 0.47549 0.0
H880 H 0.59118 0.92974 0.54477 0.0
H881 H 0.60095 0.94979 0.50592 0.0
H882 H 0.66641 0.02896 0.53363 0.0
H883 H 0.65596 0.00897 0.5728 0.0
C884 C 0.65241 0.04245 0.46654 0.0
C885 C 0.65159 0.02629 0.44725 0.0
C886 C 0.64689 0.031 0.48889 0.0
C887 C 0.64054 0.00309 0.49261 0.0
C888 C 0.63962 0.98685 0.47327 0.0
C889 C 0.64501 0.99831 0.45081 0.0
C890 C 0.60763 0.95148 0.54262 0.0
C891 C 0.62278 0.9678 0.5619 0.0
C892 C 0.61339 0.96291 0.52026 0.0
C893 C 0.63457 0.99097 0.51653 0.0
C894 C 0.6497 0.00737 0.53586 0.0
C895 C 0.64381 0.99592 0.55832 0.0
H896 H 0.66074 0.59467 0.04323 0.0
H897 H 0.64508 0.6583 0.07221 0.0
H898 H 0.65016 0.60472 1.00458 0.0
H899 H 0.63536 0.66911 0.03327 0.0
H900 H 0.59095 0.66087 0.9647 0.0
H901 H 0.60134 0.65026 1.00312 0.0
H902 H 0.66783 0.6389 0.97422 0.0
H903 H 0.65664 0.64868 0.93536 0.0
C904 C 0.65512 0.61093 0.04133 0.0
C905 C 0.65366 0.62565 0.06081 0.0
C906 C 0.64929 0.61686 0.01908 0.0
C907 C 0.64201 0.63781 0.01568 0.0
C908 C 0.64051 0.65254 0.03523 0.0
C909 C 0.64616 0.64644 0.05757 0.0
C910 C 0.60778 0.65606 0.96648 0.0
C911 C 0.62301 0.65563 0.94696 0.0
C912 C 0.6139 0.65019 0.98862 0.0
C913 C 0.63558 0.64393 0.99192 0.0
C914 C 0.65076 0.64333 0.97233 0.0
C915 C 0.64445 0.64902 0.95005 0.0
H916 H 0.06549 0.66613 0.54633 0.0
H917 H 0.98581 0.65222 0.57289 0.0
H918 H 0.04668 0.65704 0.50709 0.0
H919 H 0.96715 0.64413 0.53334 0.0
H920 H 0.9331 0.59941 0.46437 0.0
H921 H 0.95238 0.61017 0.50335 0.0
H922 H 0.03205 0.67504 0.47583 0.0
H923 H 0.01281 0.66339 0.43642 0.0
C924 C 0.04397 0.66136 0.54375 0.0
C925 C 0.02707 0.65978 0.56274 0.0
C926 C 0.03325 0.65638 0.52116 0.0
C927 C 0.00539 0.64989 0.51693 0.0
C928 C 0.98857 0.64863 0.53595 0.0
C929 C -0.00074 0.65338 0.55863 0.0
C930 C 0.95476 0.61599 0.46657 0.0
C931 C 0.97146 0.63055 0.44728 0.0
C932 C 0.96576 0.62234 0.48903 0.0
C933 C 0.99374 0.64362 0.49287 0.0
C934 C 0.0105 0.65827 0.47353 0.0
C935 C -0.0005 0.65171 0.45094 0.0
H936 H 0.663 0.01357 0.9357 0.0
H937 H 0.59527 0.9358 0.96331 0.0
H938 H 0.67479 0.03285 0.97505 0.0
H939 H 0.6063 0.95522 1.00233 0.0
H940 H 0.64906 0.98768 0.07216 0.0
H941 H 0.63993 0.96847 0.03275 0.0
H942 H 0.65778 0.04938 0.00574 0.0
H943 H 0.66777 0.06864 0.04483 0.0
C944 C 0.65051 0.0007 0.95014 0.0
C945 C 0.62825 0.97319 0.9464 0.0
C946 C 0.65717 0.01174 0.9727 0.0
C947 C 0.64155 0.99557 0.99196 0.0
C948 C 0.61917 0.96811 0.98806 0.0
C949 C 0.61268 0.95705 0.9656 0.0
C950 C 0.65108 0.00131 0.05777 0.0
C951 C 0.65913 0.02964 0.06163 0.0
C952 C 0.64572 0.99031 0.03517 0.0
C953 C 0.6481 0.00736 0.01598 0.0
C954 C 0.6562 0.03572 0.01997 0.0
C955 C 0.66172 0.04672 0.04247 0.0
H956 H 0.6519 0.66073 0.43451 0.0
H957 H 0.65944 0.59178 0.46283 0.0
H958 H 0.64443 0.67306 0.47371 0.0
H959 H 0.65118 0.60342 0.50165 0.0
H960 H 0.66129 0.64649 0.57141 0.0
H961 H 0.67197 0.63726 0.53215 0.0
H962 H 0.61026 0.65636 0.50402 0.0
H963 H 0.60035 0.66632 0.54281 0.0
C964 C 0.65169 0.64807 0.44905 0.0
C965 C 0.65624 0.62531 0.44556 0.0
C966 C 0.64738 0.65506 0.47153 0.0
C967 C 0.64733 0.6393 0.49094 0.0
C968 C 0.65165 0.6164 0.48727 0.0
C969 C 0.65612 0.60956 0.46491 0.0
C970 C 0.65013 0.64877 0.55679 0.0
C971 C 0.62999 0.6571 0.56025 0.0
C972 C 0.65612 0.64339 0.5343 0.0
C973 C 0.64198 0.64608 0.51483 0.0
C974 C 0.62194 0.65453 0.51844 0.0
C975 C 0.6161 0.66003 0.5408 0.0
H976 H 0.9278 0.59135 0.0445 0.0
H977 H 0.00946 0.65055 0.07254 0.0
H978 H 0.9477 0.59945 0.00565 0.0
H979 H 0.02937 0.65949 0.03338 0.0
H980 H 0.06199 0.64925 0.96368 0.0
H981 H 0.04178 0.63901 1.0025 0.0
H982 H 0.96556 0.63351 0.97548 0.0
H983 H 0.98559 0.64281 0.93637 0.0
C984 C 0.95005 0.60621 0.04235 0.0
C985 C 0.96708 0.62032 0.06162 0.0
C986 C 0.96143 0.61102 0.01999 0.0
C987 C 0.99013 0.63024 0.01624 0.0
C988 C 0.00724 0.64424 0.03559 0.0
C989 C 0.99585 0.63924 0.05806 0.0
C990 C 0.04083 0.64568 0.96599 0.0
C991 C 0.02535 0.64682 0.94695 0.0
C992 C 0.02932 0.64004 0.98833 0.0
C993 C 0.00209 0.63562 0.99227 0.0
C994 C 0.98646 0.63644 0.97311 0.0
C995 C 0.99793 0.64185 0.95067 0.0
H996 H 0.34507 0.0073 0.5738 0.0
H997 H 0.32779 0.92722 0.54544 0.0
H998 H 0.35372 0.02703 0.53457 0.0
H999 H 0.33728 0.94702 0.50654 0.0
H1000 H 0.33285 0.98477 0.43679 0.0
H1001 H 0.32045 0.96408 0.47578 0.0
H1002 H 0.3882 0.04095 0.50479 0.0
H1003 H 0.39984 0.06163 0.46634 0.0
C1004 C 0.34324 0.99398 0.55923 0.0
C1005 C 0.33585 0.96578 0.56275 0.0
C1006 C 0.3483 0.00526 0.53674 0.0
C1007 C 0.34628 0.98862 0.51733 0.0
C1008 C 0.33862 0.96035 0.52095 0.0
C1009 C 0.33341 0.94906 0.54335 0.0
C1010 C 0.34505 0.9971 0.45154 0.0
C1011 C 0.36722 0.02481 0.44849 0.0
C1012 C 0.33802 0.9853 0.47388 0.0
C1013 C 0.35318 0.00095 0.49352 0.0
C1014 C 0.37561 0.02849 0.49024 0.0
C1015 C 0.38244 0.04026 0.46808 0.0
H1016 H 0.40164 0.33493 0.04628 0.0
H1017 H 0.33679 0.35025 0.07291 0.0
H1018 H 0.39136 0.34324 0.00693 0.0
H1019 H 0.32576 0.35766 0.03332 0.0
H1020 H 0.33522 0.40037 0.96349 0.0
H1021 H 0.34478 0.39088 1.0026 0.0
H1022 H 0.35764 0.32425 0.97629 0.0
H1023 H 0.34895 0.33454 0.93675 0.0
C1024 C 0.38503 0.33993 0.04371 0.0
C1025 C 0.37011 0.34209 0.06274 0.0
C1026 C 0.37897 0.34445 0.02108 0.0
C1027 C 0.35769 0.35108 0.01685 0.0
C1028 C 0.34259 0.35302 0.03592 0.0
C1029 C 0.34882 0.34868 0.05863 0.0
C1030 C 0.3401 0.38368 0.96599 0.0
C1031 C 0.34136 0.3682 0.947 0.0
C1032 C 0.34536 0.37808 0.98852 0.0
C1033 C 0.35181 0.35667 0.99273 0.0
C1034 C 0.35307 0.34113 0.97368 0.0
C1035 C 0.348 0.34692 0.95103 0.0
H1036 H 0.98582 0.33906 0.57379 0.0
H1037 H 0.06615 0.40032 0.54483 0.0
H1038 H 0.96575 0.32775 0.53469 0.0
H1039 H 0.04603 0.38986 0.50604 0.0
H1040 H 0.00861 0.34647 0.43696 0.0
H1041 H 0.02889 0.35542 0.47604 0.0
H1042 H 0.95181 0.34701 0.50399 0.0
H1043 H 0.93144 0.33718 0.46534 0.0
C1044 C -0.00089 0.35023 0.55911 0.0
C1045 C 0.02752 0.37056 0.56241 0.0
C1046 C 0.98763 0.34387 0.53668 0.0
C1047 C 0.00427 0.35789 0.51711 0.0
C1048 C 0.03269 0.37825 0.52056 0.0
C1049 C 0.04417 0.38442 0.54289 0.0
C1050 C 0.99609 0.34656 0.4515 0.0
C1051 C 0.96844 0.34107 0.44806 0.0
C1052 C 0.0077 0.35178 0.47389 0.0
C1053 C 0.99195 0.35184 0.49327 0.0
C1054 C 0.96439 0.34657 0.48965 0.0
C1055 C 0.95277 0.34115 0.46739 0.0
H1056 H 0.50228 0.11108 0.10137 0.0
H1057 H 0.4482 0.0299 0.13263 0.0
H1058 H 0.54047 0.10023 0.09923 0.0
H1059 H 0.48694 0.01953 0.13133 0.0
H1060 H 0.58463 0.06205 0.16367 0.0
H1061 H 0.53807 0.05638 0.15638 0.0
H1062 H 0.55174 0.05683 0.0825 0.0
H1063 H 0.59807 0.06128 0.08985 0.0
C1064 C 0.49841 0.09065 0.10723 0.0
C1065 C 0.47244 0.07132 0.1172 0.0
C1066 C 0.52014 0.0844 0.10589 0.0
C1067 C 0.51647 0.05905 0.11506 0.0
C1068 C 0.49006 0.03908 0.12396 0.0
C1069 C 0.468 0.045 0.12468 0.0
C1070 C 0.57727 0.06005 0.14591 0.0
C1071 C 0.59473 0.0621 0.1273 0.0
C1072 C 0.55068 0.05667 0.14175 0.0
C1073 C 0.54146 0.05606 0.11891 0.0
C1074 C 0.55842 0.05697 0.10024 0.0
C1075 C 0.58477 0.05951 0.10444 0.0
H1076 H 0.50761 0.60147 0.59497 0.0
H1077 H 0.54855 0.57828 0.6474 0.0
H1078 H 0.46767 0.55316 0.59471 0.0
H1079 H 0.50808 0.53011 0.64779 0.0
H1080 H 0.40766 0.48189 0.66674 0.0
H1081 H 0.45578 0.52067 0.66134 0.0
H1082 H 0.45341 0.49692 0.58952 0.0
H1083 H 0.40531 0.45726 0.59512 0.0
C1084 C 0.50834 0.58573 0.60588 0.0
C1085 C 0.53098 0.59326 0.62108 0.0
C1086 C 0.48563 0.55818 0.6057 0.0
C1087 C 0.48495 0.53806 0.62121 0.0
C1088 C 0.50832 0.54527 0.63557 0.0
C1089 C 0.53138 0.57268 0.63531 0.0
C1090 C 0.41765 0.48457 0.64995 0.0
C1091 C 0.40284 0.46678 0.63131 0.0
C1092 C 0.44519 0.50658 0.64692 0.0
C1093 C 0.45818 0.5116 0.62505 0.0
C1094 C 0.44379 0.49326 0.60656 0.0
C1095 C 0.4164 0.47068 0.60977 0.0
H1096 H 0.96323 0.41865 0.13087 0.0
H1097 H 0.87685 0.37813 0.10765 0.0
H1098 H 0.96565 0.46465 0.12901 0.0
H1099 H 0.87947 0.42368 0.10504 0.0
H1100 H 0.87702 0.49376 0.14428 0.0
H1101 H 0.88081 0.45222 0.13831 0.0
H1102 H 0.96175 0.50235 0.10533 0.0
H1103 H 0.95818 0.54485 0.11155 0.0
C1104 C 0.94513 0.41972 0.12467 0.0
C1105 C 0.91968 0.39492 0.11982 0.0
C1106 C 0.9465 0.44598 0.12358 0.0
C1107 C 0.92251 0.44765 0.11743 0.0
C1108 C 0.89805 0.42299 0.11045 0.0
C1109 C 0.89657 0.39693 0.11186 0.0
C1110 C 0.89571 0.49622 0.13571 0.0
C1111 C 0.91724 0.52279 0.12833 0.0
C1112 C 0.89776 0.47222 0.13211 0.0
C1113 C 0.92135 0.4739 0.12098 0.0
C1114 C 0.94327 0.50044 0.11388 0.0
C1115 C 0.94117 0.5247 0.11741 0.0
H1116 H 0.39665 0.91042 0.59511 0.0
H1117 H 0.41454 0.95955 0.65779 0.0
H1118 H 0.44503 0.91883 0.5948 0.0
H1119 H 0.46282 0.96781 0.65772 0.0
H1120 H 0.51361 0.91949 0.66882 0.0
H1121 H 0.47431 0.92809 0.66485 0.0
H1122 H 0.49946 0.95637 0.5943 0.0
H1123 H 0.53952 0.94823 0.59846 0.0
C1124 C 0.41132 0.9238 0.60834 0.0
C1125 C 0.40223 0.93449 0.62641 0.0
C1126 C 0.43893 0.92868 0.60815 0.0
C1127 C 0.45755 0.94385 0.62631 0.0
C1128 C 0.44884 0.95601 0.64357 0.0
C1129 C 0.42136 0.9514 0.64358 0.0
C1130 C 0.51107 0.92801 0.65259 0.0
C1131 C 0.52944 0.93302 0.6339 0.0
C1132 C 0.48871 0.93315 0.65038 0.0
C1133 C 0.48391 0.94294 0.62929 0.0
C1134 C 0.50279 0.94885 0.61075 0.0
C1135 C 0.52566 0.94428 0.61315 0.0
H1136 H 0.58627 0.54674 0.10369 0.0
H1137 H 0.6038 0.50574 0.16022 0.0
H1138 H 0.53709 0.50785 0.10305 0.0
H1139 H 0.55564 0.46764 0.15943 0.0
H1140 H 0.46674 0.41411 0.17043 0.0
H1141 H 0.50856 0.46074 0.16877 0.0
H1142 H 0.51075 0.45402 0.09408 0.0
H1143 H 0.46789 0.4074 0.09581 0.0
C1144 C 0.57966 0.52962 0.116 0.0
C1145 C 0.59899 0.52934 0.13197 0.0
C1146 C 0.55161 0.5074 0.11558 0.0
C1147 C 0.54246 0.48494 0.13141 0.0
C1148 C 0.56184 0.4849 0.14733 0.0
C1149 C 0.58963 0.5067 0.1476 0.0
C1150 C 0.47568 0.42302 0.15362 0.0
C1151 C 0.46447 0.40729 0.13328 0.0
C1152 C 0.49963 0.44961 0.15264 0.0
C1153 C 0.51326 0.4607 0.13135 0.0
C1154 C 0.50064 0.44598 0.11072 0.0
C1155 C 0.47623 0.41937 0.11169 0.0
H1156 H 0.0253 0.44686 0.62656 0.0
H1157 H 0.11405 0.50288 0.61436 0.0
H1158 H 0.01689 0.48668 0.62229 0.0
H1159 H 0.1057 0.54222 0.60992 0.0
H1160 H 0.0851 0.60756 0.59166 0.0
H1161 H 0.08164 0.56171 0.58536 0.0
H1162 H 0.03232 0.53022 0.64813 0.0
H1163 H 0.03572 0.57612 0.6542 0.0
C1164 C 0.04285 0.46751 0.62247 0.0
C1165 C 0.07037 0.4719 0.62099 0.0
C1166 C 0.03806 0.49025 0.62013 0.0
C1167 C 0.06063 0.51751 0.61573 0.0
C1168 C 0.08783 0.52143 0.61301 0.0
C1169 C 0.09266 0.49894 0.61576 0.0
C1170 C 0.07279 0.59047 0.60363 0.0
C1171 C 0.0606 0.59503 0.62333 0.0
C1172 C 0.0709 0.56436 0.60012 0.0
C1173 C 0.0569 0.5425 0.61636 0.0
C1174 C 0.04297 0.54657 0.63521 0.0
C1175 C 0.04496 0.57276 0.63874 0.0
H1176 H 0.89307 0.50123 0.40582 0.0
H1177 H 0.97386 0.55245 0.37299 0.0
H1178 H 0.90197 0.46171 0.40765 0.0
H1179 H 0.98222 0.51232 0.37396 0.0
H1180 H 0.93068 0.41123 0.34388 0.0
H1181 H 0.93862 0.45885 0.35007 0.0
H1182 H 0.94885 0.45125 0.42356 0.0
H1183 H 0.94208 0.40381 0.41726 0.0
C1184 C 0.91301 0.50417 0.39954 0.0
C1185 C 0.9328 0.52972 0.38928 0.0
C1186 C 0.91813 0.48169 0.40069 0.0
C1187 C 0.9428 0.48422 0.39105 0.0
C1188 C 0.96323 0.51016 0.38174 0.0
C1189 C 0.95845 0.53298 0.3812 0.0
C1190 C 0.93544 0.42007 0.36124 0.0
C1191 C 0.93571 0.404 0.38012 0.0
C1192 C 0.94013 0.44727 0.36474 0.0
C1193 C 0.94446 0.45853 0.38723 0.0
C1194 C 0.94586 0.44297 0.40605 0.0
C1195 C 0.94198 0.41598 0.40244 0.0
H1196 H 0.52177 0.94018 0.84211 0.0
H1197 H 0.537 0.94544 0.91601 0.0
H1198 H 0.4808 0.94595 0.84853 0.0
H1199 H 0.49511 0.95007 0.92251 0.0
H1200 H 0.39172 0.89376 0.90662 0.0
H1201 H 0.44101 0.90534 0.90767 0.0
H1202 H 0.46539 0.98304 0.87126 0.0
H1203 H 0.416 0.97198 0.87107 0.0
C1204 C 0.51667 0.94327 0.85967 0.0
C1205 C 0.53235 0.94235 0.87859 0.0
C1206 C 0.4934 0.9467 0.86332 0.0
C1207 C 0.485 0.9485 0.88598 0.0
C1208 C 0.50144 0.94895 0.90489 0.0
C1209 C 0.5253 0.94634 0.90118 0.0
C1210 C 0.40774 0.91367 0.89944 0.0
C1211 C 0.40024 0.93198 0.88873 0.0
C1212 C 0.43586 0.92036 0.90018 0.0
C1213 C 0.45682 0.9451 0.88965 0.0
C1214 C 0.44952 0.96399 0.87969 0.0
C1215 C 0.4214 0.95767 0.87958 0.0
H1216 H 0.4514 0.4132 0.3999 0.0
H1217 H 0.49358 0.39158 0.3471 0.0
H1218 H 0.49128 0.46184 0.40008 0.0
H1219 H 0.53271 0.43908 0.34758 0.0
H1220 H 0.59067 0.52678 0.33562 0.0
H1221 H 0.54334 0.48599 0.33604 0.0
H1222 H 0.54335 0.48776 0.41112 0.0
H1223 H 0.59061 0.52974 0.41052 0.0
C1224 C 0.46899 0.41878 0.3883 0.0
C1225 C 0.46925 0.39843 0.37351 0.0
C1226 C 0.4918 0.44654 0.38847 0.0
C1227 C 0.51495 0.4544 0.3736 0.0
C1228 C 0.51497 0.43399 0.35886 0.0
C1229 C 0.49252 0.40652 0.35879 0.0
C1230 C 0.58019 0.51891 0.35217 0.0
C1231 C 0.59422 0.531 0.37303 0.0
C1232 C 0.55319 0.49551 0.35245 0.0
C1233 C 0.53994 0.48321 0.37363 0.0
C1234 C 0.55303 0.49676 0.39454 0.0
C1235 C 0.58004 0.52068 0.39423 0.0
H1236 H 0.02963 0.44477 0.88626 0.0
H1237 H 0.1196 0.50169 0.88354 0.0
H1238 H 0.02205 0.48549 0.8857 0.0
H1239 H 0.11193 0.54162 0.88299 0.0
H1240 H 0.08881 0.59649 0.84221 0.0
H1241 H 0.08597 0.55114 0.84707 0.0
H1242 H 0.0393 0.53733 0.91077 0.0
H1243 H 0.04209 0.58337 0.90597 0.0
C1244 C 0.04772 0.46586 0.88601 0.0
C1245 C 0.0752 0.47003 0.88442 0.0
C1246 C 0.04335 0.48905 0.88572 0.0
C1247 C 0.06643 0.51651 0.88389 0.0
C1248 C 0.0938 0.52058 0.884 0.0
C1249 C 0.09814 0.49768 0.88426 0.0
C1250 C 0.07759 0.58375 0.85714 0.0
C1251 C 0.06619 0.59378 0.87397 0.0
C1252 C 0.07591 0.55775 0.85985 0.0
C1253 C 0.06285 0.5411 0.87947 0.0
C1254 C 0.04952 0.54993 0.89552 0.0
C1255 C 0.05115 0.5762 0.89277 0.0
H1256 H 0.59031 0.05176 0.41401 0.0
H1257 H 0.58589 0.06838 0.34124 0.0
H1258 H 0.54359 0.04682 0.42013 0.0
H1259 H 0.53898 0.06239 0.34725 0.0
H1260 H 0.44354 0.02594 0.37347 0.0
H1261 H 0.48304 0.01655 0.37327 0.0
H1262 H 0.53733 0.09878 0.40251 0.0
H1263 H 0.49841 0.10864 0.4019 0.0
C1264 C 0.57893 0.05338 0.39924 0.0
C1265 C 0.59162 0.06062 0.37719 0.0
C1266 C 0.55234 0.05054 0.40274 0.0
C1267 C 0.53788 0.05402 0.38408 0.0
C1268 C 0.54973 0.05931 0.36178 0.0
C1269 C 0.57653 0.06288 0.3584 0.0
C1270 C 0.46376 0.04167 0.38036 0.0
C1271 C 0.46812 0.06806 0.38759 0.0
C1272 C 0.48621 0.03629 0.38026 0.0
C1273 C 0.51291 0.05691 0.38808 0.0
C1274 C 0.51675 0.08252 0.39668 0.0
C1275 C 0.49461 0.08818 0.3962 0.0
H1276 H 0.49291 0.60949 0.89748 0.0
H1277 H 0.54945 0.58093 0.87448 0.0
H1278 H 0.45471 0.56064 0.90041 0.0
H1279 H 0.5107 0.53184 0.87661 0.0
H1280 H 0.4148 0.46869 0.84428 0.0
H1281 H 0.46083 0.51114 0.8498 0.0
H1282 H 0.44333 0.51052 0.92299 0.0
H1283 H 0.39764 0.46729 0.91757 0.0
C1284 C 0.4972 0.5927 0.89335 0.0
C1285 C 0.524 0.59887 0.88565 0.0
C1286 C 0.47545 0.56482 0.89518 0.0
C1287 C 0.47992 0.54264 0.88881 0.0
C1288 C 0.50691 0.54868 0.88175 0.0
C1289 C 0.52897 0.57664 0.88055 0.0
C1290 C 0.42131 0.47714 0.86165 0.0
C1291 C 0.403 0.4649 0.88054 0.0
C1292 C 0.44756 0.50127 0.86481 0.0
C1293 C 0.45547 0.51391 0.8868 0.0
C1294 C 0.43766 0.50093 0.90592 0.0
C1295 C 0.41169 0.47631 0.90285 0.0
loop_
_geom_bond_atom_site_label_1
_geom_bond_atom_site_label_2
_geom_bond_distance
_geom_bond_site_symmetry_2
_ccdc_geom_bond_type
Co0 O1 2.216 . S
Co0 O2 2.091 . S
Co0 O4 2.004 . S
Co0 O10 2.021 . S
Co0 O12 2.137 . S
Co0 O13 2.244 . S
O1 Co0 2.216 . S
O1 C8 1.247 . S
O2 Co0 2.091 . S
O2 C8 1.261 . S
C3 O12 1.247 . S
C3 O13 1.272 . S
O4 Co0 2.004 . S
O4 C9 1.259 . S
Co5 O6 2.061 . S
Co5 O11 2.052 . S
Co5 O13 2.135 . S
O6 Co5 2.061 . S
O6 C9 1.235 . S
C7 O10 1.238 . S
C7 O11 1.241 . S
C8 O1 1.247 . S
C8 O2 1.261 . S
C9 O4 1.259 . S
C9 O6 1.235 . S
O10 Co0 2.021 . S
O10 C7 1.238 . S
O11 Co5 2.052 . S
O11 C7 1.241 . S
O12 Co0 2.137 . S
O12 C3 1.247 . S
O13 Co0 2.244 . S
O13 C3 1.272 . S
O13 Co5 2.135 . S
Co14 O15 2.216 . S
Co14 O16 2.091 . S
Co14 O18 2.004 . S
Co14 O24 2.021 . S
Co14 O26 2.137 . S
Co14 O27 2.244 . S
O15 Co14 2.216 . S
O15 C22 1.247 . S
O16 Co14 2.091 . S
O16 C22 1.261 . S
C17 O26 1.247 . S
C17 O27 1.272 . S
O18 Co14 2.004 . S
O18 C23 1.259 . S
Co19 O20 2.061 . S
Co19 O25 2.052 . S
Co19 O27 2.135 . S
O20 Co19 2.061 . S
O20 C23 1.235 . S
C21 O24 1.238 . S
C21 O25 1.241 . S
C22 O15 1.247 . S
C22 O16 1.261 . S
C23 O18 1.259 . S
C23 O20 1.235 . S
O24 Co14 2.021 . S
O24 C21 1.238 . S
O25 Co19 2.052 . S
O25 C21 1.241 . S
O26 Co14 2.137 . S
O26 C17 1.247 . S
O27 Co14 2.244 . S
O27 C17 1.272 . S
O27 Co19 2.135 . S
Co28 O29 2.216 . S
Co28 O30 2.091 . S
Co28 O32 2.004 . S
Co28 O38 2.021 . S
Co28 O40 2.137 . S
Co28 O41 2.244 . S
O29 Co28 2.216 . S
O29 C36 1.247 . S
O30 Co28 2.091 . S
O30 C36 1.261 . S
C31 O40 1.247 . S
C31 O41 1.272 . S
O32 Co28 2.004 . S
O32 C37 1.259 . S
Co33 O34 2.061 . S
Co33 O39 2.052 . S
Co33 O41 2.135 . S
O34 Co33 2.061 . S
O34 C37 1.235 . S
C35 O38 1.238 . S
C35 O39 1.241 . S
C36 O29 1.247 . S
C36 O30 1.261 . S
C37 O32 1.259 . S
C37 O34 1.235 . S
O38 Co28 2.021 . S
O38 C35 1.238 . S
O39 Co33 2.052 . S
O39 C35 1.241 . S
O40 Co28 2.137 . S
O40 C31 1.247 . S
O41 Co28 2.244 . S
O41 C31 1.272 . S
O41 Co33 2.135 . S
Co42 O43 2.216 . S
Co42 O44 2.091 . S
Co42 O46 2.004 . S
Co42 O52 2.021 . S
Co42 O54 2.137 . S
Co42 O55 2.244 . S
O43 Co42 2.216 . S
O43 C50 1.247 . S
O44 Co42 2.091 . S
O44 C50 1.261 . S
C45 O54 1.247 . S
C45 O55 1.272 . S
O46 Co42 2.004 . S
O46 C51 1.259 . S
Co47 O48 2.061 . S
Co47 O53 2.052 . S
Co47 O55 2.135 . S
O48 Co47 2.061 . S
O48 C51 1.235 . S
C49 O52 1.238 . S
C49 O53 1.241 . S
C50 O43 1.247 . S
C50 O44 1.261 . S
C51 O46 1.259 . S
C51 O48 1.235 . S
O52 Co42 2.021 . S
O52 C49 1.238 . S
O53 Co47 2.052 . S
O53 C49 1.241 . S
O54 Co42 2.137 . S
O54 C45 1.247 . S
O55 Co42 2.244 . S
O55 C45 1.272 . S
O55 Co47 2.135 . S
Co56 O57 2.216 . S
Co56 O58 2.091 . S
Co56 O60 2.004 . S
Co56 O66 2.021 . S
Co56 O68 2.137 . S
Co56 O69 2.244 . S
O57 Co56 2.216 . S
O57 C64 1.247 . S
O58 Co56 2.091 . S
O58 C64 1.261 . S
C59 O68 1.247 . S
C59 O69 1.272 . S
O60 Co56 2.004 . S
O60 C65 1.259 . S
Co61 O62 2.061 . S
Co61 O67 2.052 . S
Co61 O69 2.135 . S
O62 Co61 2.061 . S
O62 C65 1.235 . S
C63 O66 1.238 . S
C63 O67 1.241 . S
C64 O57 1.247 . S
C64 O58 1.261 . S
C65 O60 1.259 . S
C65 O62 1.235 . S
O66 Co56 2.021 . S
O66 C63 1.238 . S
O67 Co61 2.052 . S
O67 C63 1.241 . S
O68 Co56 2.137 . S
O68 C59 1.247 . S
O69 Co56 2.244 . S
O69 C59 1.272 . S
O69 Co61 2.135 . S
Co70 O71 2.216 . S
Co70 O72 2.091 . S
Co70 O74 2.004 . S
Co70 O80 2.021 . S
Co70 O82 2.137 . S
Co70 O83 2.244 . S
O71 Co70 2.216 . S
O71 C78 1.247 . S
O72 Co70 2.091 . S
O72 C78 1.261 . S
C73 O82 1.247 . S
C73 O83 1.272 . S
O74 Co70 2.004 . S
O74 C79 1.259 . S
Co75 O76 2.061 . S
Co75 O81 2.052 . S
Co75 O83 2.135 . S
O76 Co75 2.061 . S
O76 C79 1.235 . S
C77 O80 1.238 . S
C77 O81 1.241 . S
C78 O71 1.247 . S
C78 O72 1.261 . S
C79 O74 1.259 . S
C79 O76 1.235 . S
O80 Co70 2.021 . S
O80 C77 1.238 . S
O81 Co75 2.052 . S
O81 C77 1.241 . S
O82 Co70 2.137 . S
O82 C73 1.247 . S
O83 Co70 2.244 . S
O83 C73 1.272 . S
O83 Co75 2.135 . S
Co84 O85 2.216 . S
Co84 O86 2.091 . S
Co84 O88 2.004 . S
Co84 O94 2.021 . S
Co84 O96 2.137 . S
Co84 O97 2.244 . S
O85 Co84 2.216 . S
O85 C92 1.247 . S
O86 Co84 2.091 . S
O86 C92 1.261 . S
C87 O96 1.247 . S
C87 O97 1.272 . S
O88 Co84 2.004 . S
O88 C93 1.259 . S
Co89 O90 2.061 . S
Co89 O95 2.052 . S
Co89 O97 2.135 . S
O90 Co89 2.061 . S
O90 C93 1.235 . S
C91 O94 1.238 . S
C91 O95 1.241 . S
C92 O85 1.247 . S
C92 O86 1.261 . S
C93 O88 1.259 . S
C93 O90 1.235 . S
O94 Co84 2.021 . S
O94 C91 1.238 . S
O95 Co89 2.052 . S
O95 C91 1.241 . S
O96 Co84 2.137 . S
O96 C87 1.247 . S
O97 Co84 2.244 . S
O97 C87 1.272 . S
O97 Co89 2.135 . S
Co98 O99 2.216 . S
Co98 O100 2.091 . S
Co98 O102 2.004 . S
Co98 O108 2.021 . S
Co98 O110 2.137 . S
Co98 O111 2.244 . S
O99 Co98 2.216 . S
O99 C106 1.247 . S
O100 Co98 2.091 . S
O100 C106 1.261 . S
C101 O110 1.247 . S
C101 O111 1.272 . S
O102 Co98 2.004 . S
O102 C107 1.259 . S
Co103 O104 2.061 . S
Co103 O109 2.052 . S
Co103 O111 2.135 . S
O104 Co103 2.061 . S
O104 C107 1.235 . S
C105 O108 1.238 . S
C105 O109 1.241 . S
C106 O99 1.247 . S
C106 O100 1.261 . S
C107 O102 1.259 . S
C107 O104 1.235 . S
O108 Co98 2.021 . S
O108 C105 1.238 . S
O109 Co103 2.052 . S
O109 C105 1.241 . S
O110 Co98 2.137 . S
O110 C101 1.247 . S
O111 Co98 2.244 . S
O111 C101 1.272 . S
O111 Co103 2.135 . S
Co112 O113 2.216 . S
Co112 O114 2.091 . S
Co112 O116 2.004 . S
Co112 O122 2.021 . S
Co112 O124 2.137 . S
Co112 O125 2.244 . S
O113 Co112 2.216 . S
O113 C120 1.247 . S
O114 Co112 2.091 . S
O114 C120 1.261 . S
C115 O124 1.247 . S
C115 O125 1.272 . S
O116 Co112 2.004 . S
O116 C121 1.259 . S
Co117 O118 2.061 . S
Co117 O123 2.052 . S
Co117 O125 2.135 . S
O118 Co117 2.061 . S
O118 C121 1.235 . S
C119 O122 1.238 . S
C119 O123 1.241 . S
C120 O113 1.247 . S
C120 O114 1.261 . S
C121 O116 1.259 . S
C121 O118 1.235 . S
O122 Co112 2.021 . S
O122 C119 1.238 . S
O123 Co117 2.052 . S
O123 C119 1.241 . S
O124 Co112 2.137 . S
O124 C115 1.247 . S
O125 Co112 2.244 . S
O125 C115 1.272 . S
O125 Co117 2.135 . S
Co126 O127 2.216 . S
Co126 O128 2.091 . S
Co126 O130 2.004 . S
Co126 O136 2.021 . S
Co126 O138 2.137 . S
Co126 O139 2.244 . S
O127 Co126 2.216 . S
O127 C134 1.247 . S
O128 Co126 2.091 . S
O128 C134 1.261 . S
C129 O138 1.247 . S
C129 O139 1.272 . S
O130 Co126 2.004 . S
O130 C135 1.259 . S
Co131 O132 2.061 . S
Co131 O137 2.052 . S
Co131 O139 2.135 . S
O132 Co131 2.061 . S
O132 C135 1.235 . S
C133 O136 1.238 . S
C133 O137 1.241 . S
C134 O127 1.247 . S
C134 O128 1.261 . S
C135 O130 1.259 . S
C135 O132 1.235 . S
O136 Co126 2.021 . S
O136 C133 1.238 . S
O137 Co131 2.052 . S
O137 C133 1.241 . S
O138 Co126 2.137 . S
O138 C129 1.247 . S
O139 Co126 2.244 . S
O139 C129 1.272 . S
O139 Co131 2.135 . S
Co140 O141 2.216 . S
Co140 O142 2.091 . S
Co140 O144 2.004 . S
Co140 O150 2.021 . S
Co140 O152 2.137 . S
Co140 O153 2.244 . S
O141 Co140 2.216 . S
O141 C148 1.247 . S
O142 Co140 2.091 . S
O142 C148 1.261 . S
C143 O152 1.247 . S
C143 O153 1.272 . S
O144 Co140 2.004 . S
O144 C149 1.259 . S
Co145 O146 2.061 . S
Co145 O151 2.052 . S
Co145 O153 2.135 . S
O146 Co145 2.061 . S
O146 C149 1.235 . S
C147 O150 1.238 . S
C147 O151 1.241 . S
C148 O141 1.247 . S
C148 O142 1.261 . S
C149 O144 1.259 . S
C149 O146 1.235 . S
O150 Co140 2.021 . S
O150 C147 1.238 . S
O151 Co145 2.052 . S
O151 C147 1.241 . S
O152 Co140 2.137 . S
O152 C143 1.247 . S
O153 Co140 2.244 . S
O153 C143 1.272 . S
O153 Co145 2.135 . S
Co154 O155 2.216 . S
Co154 O156 2.091 . S
Co154 O158 2.004 . S
Co154 O164 2.021 . S
Co154 O166 2.137 . S
Co154 O167 2.244 . S
O155 Co154 2.216 . S
O155 C162 1.247 . S
O156 Co154 2.091 . S
O156 C162 1.261 . S
C157 O166 1.247 . S
C157 O167 1.272 . S
O158 Co154 2.004 . S
O158 C163 1.259 . S
Co159 O160 2.061 . S
Co159 O165 2.052 . S
Co159 O167 2.135 . S
O160 Co159 2.061 . S
O160 C163 1.235 . S
C161 O164 1.238 . S
C161 O165 1.241 . S
C162 O155 1.247 . S
C162 O156 1.261 . S
C163 O158 1.259 . S
C163 O160 1.235 . S
O164 Co154 2.021 . S
O164 C161 1.238 . S
O165 Co159 2.052 . S
O165 C161 1.241 . S
O166 Co154 2.137 . S
O166 C157 1.247 . S
O167 Co154 2.244 . S
O167 C157 1.272 . S
O167 Co159 2.135 . S
Co168 O169 2.216 . S
Co168 O170 2.091 . S
Co168 O172 2.004 . S
Co168 O178 2.021 . S
Co168 O180 2.137 . S
Co168 O181 2.244 . S
O169 Co168 2.216 . S
O169 C176 1.247 . S
O170 Co168 2.091 . S
O170 C176 1.261 . S
C171 O180 1.247 . S
C171 O181 1.272 . S
O172 Co168 2.004 . S
O172 C177 1.259 . S
Co173 O174 2.061 . S
Co173 O179 2.052 . S
Co173 O181 2.135 . S
O174 Co173 2.061 . S
O174 C177 1.235 . S
C175 O178 1.238 . S
C175 O179 1.241 . S
C176 O169 1.247 . S
C176 O170 1.261 . S
C177 O172 1.259 . S
C177 O174 1.235 . S
O178 Co168 2.021 . S
O178 C175 1.238 . S
O179 Co173 2.052 . S
O179 C175 1.241 . S
O180 Co168 2.137 . S
O180 C171 1.247 . S
O181 Co168 2.244 . S
O181 C171 1.272 . S
O181 Co173 2.135 . S
Co182 O183 2.216 . S
Co182 O184 2.091 . S
Co182 O186 2.004 . S
Co182 O192 2.021 . S
Co182 O194 2.137 . S
Co182 O195 2.244 . S
O183 Co182 2.216 . S
O183 C190 1.247 . S
O184 Co182 2.091 . S
O184 C190 1.261 . S
C185 O194 1.247 . S
C185 O195 1.272 . S
O186 Co182 2.004 . S
O186 C191 1.259 . S
Co187 O188 2.061 . S
Co187 O193 2.052 . S
Co187 O195 2.135 . S
O188 Co187 2.061 . S
O188 C191 1.235 . S
C189 O192 1.238 . S
C189 O193 1.241 . S
C190 O183 1.247 . S
C190 O184 1.261 . S
C191 O186 1.259 . S
C191 O188 1.235 . S
O192 Co182 2.021 . S
O192 C189 1.238 . S
O193 Co187 2.052 . S
O193 C189 1.241 . S
O194 Co182 2.137 . S
O194 C185 1.247 . S
O195 Co182 2.244 . S
O195 C185 1.272 . S
O195 Co187 2.135 . S
Co196 O197 2.216 . S
Co196 O198 2.091 . S
Co196 O200 2.004 . S
Co196 O206 2.021 . S
Co196 O208 2.137 . S
Co196 O209 2.244 . S
O197 Co196 2.216 . S
O197 C204 1.247 . S
O198 Co196 2.091 . S
O198 C204 1.261 . S
C199 O208 1.247 . S
C199 O209 1.272 . S
O200 Co196 2.004 . S
O200 C205 1.259 . S
Co201 O202 2.061 . S
Co201 O207 2.052 . S
Co201 O209 2.135 . S
O202 Co201 2.061 . S
O202 C205 1.235 . S
C203 O206 1.238 . S
C203 O207 1.241 . S
C204 O197 1.247 . S
C204 O198 1.261 . S
C205 O200 1.259 . S
C205 O202 1.235 . S
O206 Co196 2.021 . S
O206 C203 1.238 . S
O207 Co201 2.052 . S
O207 C203 1.241 . S
O208 Co196 2.137 . S
O208 C199 1.247 . S
O209 Co196 2.244 . S
O209 C199 1.272 . S
O209 Co201 2.135 . S
Co210 O211 2.216 . S
Co210 O212 2.091 . S
Co210 O214 2.004 . S
Co210 O220 2.021 . S
Co210 O222 2.137 . S
Co210 O223 2.244 . S
O211 Co210 2.216 . S
O211 C218 1.247 . S
O212 Co210 2.091 . S
O212 C218 1.261 . S
C213 O222 1.247 . S
C213 O223 1.272 . S
O214 Co210 2.004 . S
O214 C219 1.259 . S
Co215 O216 2.061 . S
Co215 O221 2.052 . S
Co215 O223 2.135 . S
O216 Co215 2.061 . S
O216 C219 1.235 . S
C217 O220 1.238 . S
C217 O221 1.241 . S
C218 O211 1.247 . S
C218 O212 1.261 . S
C219 O214 1.259 . S
C219 O216 1.235 . S
O220 Co210 2.021 . S
O220 C217 1.238 . S
O221 Co215 2.052 . S
O221 C217 1.241 . S
O222 Co210 2.137 . S
O222 C213 1.247 . S
O223 Co210 2.244 . S
O223 C213 1.272 . S
O223 Co215 2.135 . S
Co224 O225 2.216 . S
Co224 O226 2.091 . S
Co224 O228 2.004 . S
Co224 O234 2.021 . S
Co224 O236 2.137 . S
Co224 O237 2.244 . S
O225 Co224 2.216 . S
O225 C232 1.247 . S
O226 Co224 2.091 . S
O226 C232 1.261 . S
C227 O236 1.247 . S
C227 O237 1.272 . S
O228 Co224 2.004 . S
O228 C233 1.259 . S
Co229 O230 2.061 . S
Co229 O235 2.052 . S
Co229 O237 2.135 . S
O230 Co229 2.061 . S
O230 C233 1.235 . S
C231 O234 1.238 . S
C231 O235 1.241 . S
C232 O225 1.247 . S
C232 O226 1.261 . S
C233 O228 1.259 . S
C233 O230 1.235 . S
O234 Co224 2.021 . S
O234 C231 1.238 . S
O235 Co229 2.052 . S
O235 C231 1.241 . S
O236 Co224 2.137 . S
O236 C227 1.247 . S
O237 Co224 2.244 . S
O237 C227 1.272 . S
O237 Co229 2.135 . S
Co238 O239 2.216 . S
Co238 O240 2.091 . S
Co238 O242 2.004 . S
Co238 O248 2.021 . S
Co238 O250 2.137 . S
Co238 O251 2.244 . S
O239 Co238 2.216 . S
O239 C246 1.247 . S
O240 Co238 2.091 . S
O240 C246 1.261 . S
C241 O250 1.247 . S
C241 O251 1.272 . S
O242 Co238 2.004 . S
O242 C247 1.259 . S
Co243 O244 2.061 . S
Co243 O249 2.052 . S
Co243 O251 2.135 . S
O244 Co243 2.061 . S
O244 C247 1.235 . S
C245 O248 1.238 . S
C245 O249 1.241 . S
C246 O239 1.247 . S
C246 O240 1.261 . S
C247 O242 1.259 . S
C247 O244 1.235 . S
O248 Co238 2.021 . S
O248 C245 1.238 . S
O249 Co243 2.052 . S
O249 C245 1.241 . S
O250 Co238 2.137 . S
O250 C241 1.247 . S
O251 Co238 2.244 . S
O251 C241 1.272 . S
O251 Co243 2.135 . S
Co252 O253 2.216 . S
Co252 O254 2.091 . S
Co252 O256 2.004 . S
Co252 O262 2.021 . S
Co252 O264 2.137 . S
Co252 O265 2.244 . S
O253 Co252 2.216 . S
O253 C260 1.247 . S
O254 Co252 2.091 . S
O254 C260 1.261 . S
C255 O264 1.247 . S
C255 O265 1.272 . S
O256 Co252 2.004 . S
O256 C261 1.259 . S
Co257 O258 2.061 . S
Co257 O263 2.052 . S
Co257 O265 2.135 . S
O258 Co257 2.061 . S
O258 C261 1.235 . S
C259 O262 1.238 . S
C259 O263 1.241 . S
C260 O253 1.247 . S
C260 O254 1.261 . S
C261 O256 1.259 . S
C261 O258 1.235 . S
O262 Co252 2.021 . S
O262 C259 1.238 . S
O263 Co257 2.052 . S
O263 C259 1.241 . S
O264 Co252 2.137 . S
O264 C255 1.247 . S
O265 Co252 2.244 . S
O265 C255 1.272 . S
O265 Co257 2.135 . S
Co266 O267 2.216 . S
Co266 O268 2.091 . S
Co266 O270 2.004 . S
Co266 O276 2.021 . S
Co266 O278 2.137 . S
Co266 O279 2.244 . S
O267 Co266 2.216 . S
O267 C274 1.247 . S
O268 Co266 2.091 . S
O268 C274 1.261 . S
C269 O278 1.247 . S
C269 O279 1.272 . S
O270 Co266 2.004 . S
O270 C275 1.259 . S
Co271 O272 2.061 . S
Co271 O277 2.052 . S
Co271 O279 2.135 . S
O272 Co271 2.061 . S
O272 C275 1.235 . S
C273 O276 1.238 . S
C273 O277 1.241 . S
C274 O267 1.247 . S
C274 O268 1.261 . S
C275 O270 1.259 . S
C275 O272 1.235 . S
O276 Co266 2.021 . S
O276 C273 1.238 . S
O277 Co271 2.052 . S
O277 C273 1.241 . S
O278 Co266 2.137 . S
O278 C269 1.247 . S
O279 Co266 2.244 . S
O279 C269 1.272 . S
O279 Co271 2.135 . S
Co280 O281 2.216 . S
Co280 O282 2.091 . S
Co280 O284 2.004 . S
Co280 O290 2.021 . S
Co280 O292 2.137 . S
Co280 O293 2.244 . S
O281 Co280 2.216 . S
O281 C288 1.247 . S
O282 Co280 2.091 . S
O282 C288 1.261 . S
C283 O292 1.247 . S
C283 O293 1.272 . S
O284 Co280 2.004 . S
O284 C289 1.259 . S
Co285 O286 2.061 . S
Co285 O291 2.052 . S
Co285 O293 2.135 . S
O286 Co285 2.061 . S
O286 C289 1.235 . S
C287 O290 1.238 . S
C287 O291 1.241 . S
C288 O281 1.247 . S
C288 O282 1.261 . S
C289 O284 1.259 . S
C289 O286 1.235 . S
O290 Co280 2.021 . S
O290 C287 1.238 . S
O291 Co285 2.052 . S
O291 C287 1.241 . S
O292 Co280 2.137 . S
O292 C283 1.247 . S
O293 Co280 2.244 . S
O293 C283 1.272 . S
O293 Co285 2.135 . S
Co294 O295 2.216 . S
Co294 O296 2.091 . S
Co294 O298 2.004 . S
Co294 O304 2.021 . S
Co294 O306 2.137 . S
Co294 O307 2.244 . S
O295 Co294 2.216 . S
O295 C302 1.247 . S
O296 Co294 2.091 . S
O296 C302 1.261 . S
C297 O306 1.247 . S
C297 O307 1.272 . S
O298 Co294 2.004 . S
O298 C303 1.259 . S
Co299 O300 2.061 . S
Co299 O305 2.052 . S
Co299 O307 2.135 . S
O300 Co299 2.061 . S
O300 C303 1.235 . S
C301 O304 1.238 . S
C301 O305 1.241 . S
C302 O295 1.247 . S
C302 O296 1.261 . S
C303 O298 1.259 . S
C303 O300 1.235 . S
O304 Co294 2.021 . S
O304 C301 1.238 . S
O305 Co299 2.052 . S
O305 C301 1.241 . S
O306 Co294 2.137 . S
O306 C297 1.247 . S
O307 Co294 2.244 . S
O307 C297 1.272 . S
O307 Co299 2.135 . S
Co308 O309 2.216 . S
Co308 O310 2.091 . S
Co308 O312 2.004 . S
Co308 O318 2.021 . S
Co308 O320 2.137 . S
Co308 O321 2.244 . S
O309 Co308 2.216 . S
O309 C316 1.247 . S
O310 Co308 2.091 . S
O310 C316 1.261 . S
C311 O320 1.247 . S
C311 O321 1.272 . S
O312 Co308 2.004 . S
O312 C317 1.259 . S
Co313 O314 2.061 . S
Co313 O319 2.052 . S
Co313 O321 2.135 . S
O314 Co313 2.061 . S
O314 C317 1.235 . S
C315 O318 1.238 . S
C315 O319 1.241 . S
C316 O309 1.247 . S
C316 O310 1.261 . S
C317 O312 1.259 . S
C317 O314 1.235 . S
O318 Co308 2.021 . S
O318 C315 1.238 . S
O319 Co313 2.052 . S
O319 C315 1.241 . S
O320 Co308 2.137 . S
O320 C311 1.247 . S
O321 Co308 2.244 . S
O321 C311 1.272 . S
O321 Co313 2.135 . S
Co322 O323 2.216 . S
Co322 O324 2.091 . S
Co322 O326 2.004 . S
Co322 O332 2.021 . S
Co322 O334 2.137 . S
Co322 O335 2.244 . S
O323 Co322 2.216 . S
O323 C330 1.247 . S
O324 Co322 2.091 . S
O324 C330 1.261 . S
C325 O334 1.247 . S
C325 O335 1.272 . S
O326 Co322 2.004 . S
O326 C331 1.259 . S
Co327 O328 2.061 . S
Co327 O333 2.052 . S
Co327 O335 2.135 . S
O328 Co327 2.061 . S
O328 C331 1.235 . S
C329 O332 1.238 . S
C329 O333 1.241 . S
C330 O323 1.247 . S
C330 O324 1.261 . S
C331 O326 1.259 . S
C331 O328 1.235 . S
O332 Co322 2.021 . S
O332 C329 1.238 . S
O333 Co327 2.052 . S
O333 C329 1.241 . S
O334 Co322 2.137 . S
O334 C325 1.247 . S
O335 Co322 2.244 . S
O335 C325 1.272 . S
O335 Co327 2.135 . S
H336 C344 0.944 1_565 S
H337 C349 0.950 . S
H338 C346 0.931 1_565 S
H339 C348 0.950 . S
H340 C350 0.950 . S
H341 C352 0.950 . S
H342 C354 0.950 1_565 S
H343 C355 0.950 1_565 S
C344 H336 0.944 1_545 S
C344 C345 1.386 . S
C344 C346 1.391 . S
C345 C344 1.386 . S
C345 C349 1.393 . S
C346 H338 0.931 1_545 S
C346 C344 1.391 . S
C346 C347 1.400 . S
C347 C346 1.400 . S
C347 C348 1.398 . S
C347 C353 1.491 . S
C348 H339 0.950 . S
C348 C347 1.398 . S
C348 C349 1.391 . S
C349 H337 0.950 . S
C349 C345 1.393 . S
C349 C348 1.391 . S
C350 H340 0.950 . S
C350 C351 1.386 . S
C350 C352 1.391 . S
C351 C350 1.386 . S
C351 C355 1.393 . S
C352 H341 0.950 . S
C352 C350 1.391 . S
C352 C353 1.400 . S
C353 C347 1.491 . S
C353 C352 1.400 . S
C353 C354 1.398 . S
C354 H342 0.950 1_545 S
C354 C353 1.398 . S
C354 C355 1.391 . S
C355 H343 0.950 1_545 S
C355 C351 1.393 . S
C355 C354 1.391 . S
H356 C364 0.950 . S
H357 C369 0.950 . S
H358 C366 0.950 . S
H359 C368 0.950 . S
H360 C370 0.950 . S
H361 C372 0.950 . S
H362 C374 0.950 . S
H363 C375 0.950 . S
C364 H356 0.950 . S
C364 C365 1.386 . S
C364 C366 1.391 . S
C365 C364 1.386 . S
C365 C369 1.393 . S
C366 H358 0.950 . S
C366 C364 1.391 . S
C366 C367 1.400 . S
C367 C366 1.400 . S
C367 C368 1.398 . S
C367 C373 1.491 . S
C368 H359 0.950 . S
C368 C367 1.398 . S
C368 C369 1.391 . S
C369 H357 0.950 . S
C369 C365 1.393 . S
C369 C368 1.391 . S
C370 H360 0.950 . S
C370 C371 1.386 . S
C370 C372 1.391 . S
C371 C370 1.386 . S
C371 C375 1.393 . S
C372 H361 0.950 . S
C372 C370 1.391 . S
C372 C373 1.400 . S
C373 C367 1.491 . S
C373 C372 1.400 . S
C373 C374 1.398 . S
C374 H362 0.950 . S
C374 C373 1.398 . S
C374 C375 1.391 . S
C375 H363 0.950 . S
C375 C371 1.393 . S
C375 C374 1.391 . S
H376 C384 0.950 . S
H377 C389 0.950 . S
H378 C386 0.950 . S
H379 C388 0.950 . S
H380 C390 0.950 . S
H381 C392 0.950 . S
H382 C394 0.950 . S
H383 C395 0.950 . S
C384 H376 0.950 . S
C384 C385 1.386 . S
C384 C386 1.391 . S
C385 C384 1.386 . S
C385 C389 1.393 . S
C386 H378 0.950 . S
C386 C384 1.391 . S
C386 C387 1.400 . S
C387 C386 1.400 . S
C387 C388 1.398 . S
C387 C393 1.491 . S
C388 H379 0.950 . S
C388 C387 1.398 . S
C388 C389 1.391 . S
C389 H377 0.950 . S
C389 C385 1.393 . S
C389 C388 1.391 . S
C390 H380 0.950 . S
C390 C391 1.386 . S
C390 C392 1.391 . S
C391 C390 1.386 . S
C391 C395 1.393 . S
C392 H381 0.950 . S
C392 C390 1.391 . S
C392 C393 1.400 . S
C393 C387 1.491 . S
C393 C392 1.400 . S
C393 C394 1.398 . S
C394 H382 0.950 . S
C394 C393 1.398 . S
C394 C395 1.391 . S
C395 H383 0.950 . S
C395 C391 1.393 . S
C395 C394 1.391 . S
H396 C404 0.950 . S
H397 C409 0.950 . S
H398 C406 0.950 . S
H399 C408 0.950 . S
H400 C410 0.950 . S
H401 C412 0.950 . S
H402 C414 0.950 . S
H403 C415 0.950 . S
C404 H396 0.950 . S
C404 C405 1.386 . S
C404 C406 1.391 . S
C405 C404 1.386 . S
C405 C409 1.393 . S
C406 H398 0.950 . S
C406 C404 1.391 . S
C406 C407 1.400 . S
C407 C406 1.400 . S
C407 C408 1.398 . S
C407 C413 1.491 . S
C408 H399 0.950 . S
C408 C407 1.398 . S
C408 C409 1.391 . S
C409 H397 0.950 . S
C409 C405 1.393 . S
C409 C408 1.391 . S
C410 H400 0.950 . S
C410 C411 1.386 . S
C410 C412 1.391 . S
C411 C410 1.386 . S
C411 C415 1.393 . S
C412 H401 0.950 . S
C412 C410 1.391 . S
C412 C413 1.400 . S
C413 C407 1.491 . S
C413 C412 1.400 . S
C413 C414 1.398 . S
C414 H402 0.950 . S
C414 C413 1.398 . S
C414 C415 1.391 . S
C415 H403 0.950 . S
C415 C411 1.393 . S
C415 C414 1.391 . S
H416 C424 0.950 . S
H417 C429 0.950 . S
H418 C426 0.950 . S
H419 C428 0.950 . S
H420 C430 0.950 . S
H421 C432 0.950 . S
H422 C434 0.950 . S
H423 C435 0.950 . S
C424 H416 0.950 . S
C424 C425 1.386 . S
C424 C426 1.391 . S
C425 C424 1.386 . S
C425 C429 1.393 . S
C426 H418 0.950 . S
C426 C424 1.391 . S
C426 C427 1.400 . S
C427 C426 1.400 . S
C427 C428 1.398 . S
C427 C433 1.491 . S
C428 H419 0.950 . S
C428 C427 1.398 . S
C428 C429 1.391 . S
C429 H417 0.950 . S
C429 C425 1.393 . S
C429 C428 1.391 . S
C430 H420 0.950 . S
C430 C431 1.386 . S
C430 C432 1.391 . S
C431 C430 1.386 . S
C431 C435 1.393 . S
C432 H421 0.950 . S
C432 C430 1.391 . S
C432 C433 1.400 . S
C433 C427 1.491 . S
C433 C432 1.400 . S
C433 C434 1.398 . S
C434 H422 0.950 . S
C434 C433 1.398 . S
C434 C435 1.391 . S
C435 H423 0.950 . S
C435 C431 1.393 . S
C435 C434 1.391 . S
H436 C444 0.950 . S
H437 C449 0.950 1_655 S
H438 C446 0.950 . S
H439 C448 0.950 1_655 S
H440 C450 0.950 1_655 S
H441 C452 0.950 1_655 S
H442 C454 0.950 . S
H443 C455 0.950 . S
C444 H436 0.950 . S
C444 C445 1.386 . S
C444 C446 1.391 . S
C445 C444 1.386 . S
C445 C449 1.393 . S
C446 H438 0.950 . S
C446 C444 1.391 . S
C446 C447 1.400 . S
C447 C446 1.400 . S
C447 C448 1.398 . S
C447 C453 1.491 . S
C448 H439 0.950 1_455 S
C448 C447 1.398 . S
C448 C449 1.391 . S
C449 H437 0.950 1_455 S
C449 C445 1.393 . S
C449 C448 1.391 . S
C450 H440 0.950 1_455 S
C450 C451 1.386 . S
C450 C452 1.391 . S
C451 C450 1.386 . S
C451 C455 1.393 . S
C452 H441 0.950 1_455 S
C452 C450 1.391 . S
C452 C453 1.400 . S
C453 C447 1.491 . S
C453 C452 1.400 . S
C453 C454 1.398 . S
C454 H442 0.950 . S
C454 C453 1.398 . S
C454 C455 1.391 . S
C455 H443 0.950 . S
C455 C451 1.393 . S
C455 C454 1.391 . S
H456 C464 0.950 . S
H457 C469 0.972 . S
H458 C466 0.950 . S
H459 C468 0.950 . S
H460 C470 0.937 1_455 S
H461 C472 0.947 1_455 S
H462 C474 0.950 . S
H463 C475 0.950 . S
C464 H456 0.950 . S
C464 C465 1.386 . S
C464 C466 1.391 . S
C465 C464 1.386 . S
C465 C469 1.393 . S
C466 H458 0.950 . S
C466 C464 1.391 . S
C466 C467 1.400 . S
C467 C466 1.400 . S
C467 C468 1.398 . S
C467 C473 1.491 . S
C468 H459 0.950 . S
C468 C467 1.398 . S
C468 C469 1.391 . S
C469 H457 0.972 . S
C469 C465 1.393 . S
C469 C468 1.391 . S
C470 H460 0.937 1_655 S
C470 C471 1.386 . S
C470 C472 1.391 . S
C471 C470 1.386 . S
C471 C475 1.393 . S
C472 H461 0.947 1_655 S
C472 C470 1.391 . S
C472 C473 1.400 . S
C473 C467 1.491 . S
C473 C472 1.400 . S
C473 C474 1.398 . S
C474 H462 0.950 . S
C474 C473 1.398 . S
C474 C475 1.391 . S
C475 H463 0.950 . S
C475 C471 1.393 . S
C475 C474 1.391 . S
H476 C484 0.950 1_545 S
H477 C489 0.950 . S
H478 C486 0.950 1_545 S
H479 C488 0.950 . S
H480 C490 0.950 . S
H481 C492 0.950 . S
H482 C494 0.950 1_545 S
H483 C495 0.950 1_545 S
C484 H476 0.950 1_565 S
C484 C485 1.386 . S
C484 C486 1.391 . S
C485 C484 1.386 . S
C485 C489 1.393 . S
C486 H478 0.950 1_565 S
C486 C484 1.391 . S
C486 C487 1.400 . S
C487 C486 1.400 . S
C487 C488 1.398 . S
C487 C493 1.491 . S
C488 H479 0.950 . S
C488 C487 1.398 . S
C488 C489 1.391 . S
C489 H477 0.950 . S
C489 C485 1.393 . S
C489 C488 1.391 . S
C490 H480 0.950 . S
C490 C491 1.386 . S
C490 C492 1.391 . S
C491 C490 1.386 . S
C491 C495 1.393 . S
C492 H481 0.950 . S
C492 C490 1.391 . S
C492 C493 1.400 . S
C493 C487 1.491 . S
C493 C492 1.400 . S
C493 C494 1.398 . S
C494 H482 0.950 1_565 S
C494 C493 1.398 . S
C494 C495 1.391 . S
C495 H483 0.950 1_565 S
C495 C491 1.393 . S
C495 C494 1.391 . S
H496 C504 0.950 . S
H497 C509 0.950 . S
H498 C506 0.950 . S
H499 C508 0.950 . S
H500 C510 0.950 . S
H501 C512 0.950 . S
H502 C514 0.950 . S
H503 C515 0.950 . S
C504 H496 0.950 . S
C504 C505 1.386 . S
C504 C506 1.391 . S
C505 C504 1.386 . S
C505 C509 1.393 . S
C506 H498 0.950 . S
C506 C504 1.391 . S
C506 C507 1.400 . S
C507 C506 1.400 . S
C507 C508 1.398 . S
C507 C513 1.491 . S
C508 H499 0.950 . S
C508 C507 1.398 . S
C508 C509 1.391 . S
C509 H497 0.950 . S
C509 C505 1.393 . S
C509 C508 1.391 . S
C510 H500 0.950 . S
C510 C511 1.386 . S
C510 C512 1.391 . S
C511 C510 1.386 . S
C511 C515 1.393 . S
C512 H501 0.950 . S
C512 C510 1.391 . S
C512 C513 1.400 . S
C513 C507 1.491 . S
C513 C512 1.400 . S
C513 C514 1.398 . S
C514 H502 0.950 . S
C514 C513 1.398 . S
C514 C515 1.391 . S
C515 H503 0.950 . S
C515 C511 1.393 . S
C515 C514 1.391 . S
H516 C524 0.950 . S
H517 C529 0.950 . S
H518 C526 0.950 . S
H519 C528 0.950 . S
H520 C530 0.950 . S
H521 C532 0.950 . S
H522 C534 0.950 . S
H523 C535 0.950 . S
C524 H516 0.950 . S
C524 C525 1.386 . S
C524 C526 1.391 . S
C525 C524 1.386 . S
C525 C529 1.393 . S
C526 H518 0.950 . S
C526 C524 1.391 . S
C526 C527 1.400 . S
C527 C526 1.400 . S
C527 C528 1.398 . S
C527 C533 1.491 . S
C528 H519 0.950 . S
C528 C527 1.398 . S
C528 C529 1.391 . S
C529 H517 0.950 . S
C529 C525 1.393 . S
C529 C528 1.391 . S
C530 H520 0.950 . S
C530 C531 1.386 . S
C530 C532 1.391 . S
C531 C530 1.386 . S
C531 C535 1.393 . S
C532 H521 0.950 . S
C532 C530 1.391 . S
C532 C533 1.400 . S
C533 C527 1.491 . S
C533 C532 1.400 . S
C533 C534 1.398 . S
C534 H522 0.950 . S
C534 C533 1.398 . S
C534 C535 1.391 . S
C535 H523 0.950 . S
C535 C531 1.393 . S
C535 C534 1.391 . S
H536 C544 0.950 . S
H537 C549 0.950 . S
H538 C546 0.950 . S
H539 C548 0.950 . S
H540 C550 0.950 . S
H541 C552 0.950 . S
H542 C554 0.950 . S
H543 C555 0.950 . S
C544 H536 0.950 . S
C544 C545 1.386 . S
C544 C546 1.391 . S
C545 C544 1.386 . S
C545 C549 1.393 . S
C546 H538 0.950 . S
C546 C544 1.391 . S
C546 C547 1.400 . S
C547 C546 1.400 . S
C547 C548 1.398 . S
C547 C553 1.491 . S
C548 H539 0.950 . S
C548 C547 1.398 . S
C548 C549 1.391 . S
C549 H537 0.950 . S
C549 C545 1.393 . S
C549 C548 1.391 . S
C550 H540 0.950 . S
C550 C551 1.386 . S
C550 C552 1.391 . S
C551 C550 1.386 . S
C551 C555 1.393 . S
C552 H541 0.950 . S
C552 C550 1.391 . S
C552 C553 1.400 . S
C553 C547 1.491 . S
C553 C552 1.400 . S
C553 C554 1.398 . S
C554 H542 0.950 . S
C554 C553 1.398 . S
C554 C555 1.391 . S
C555 H543 0.950 . S
C555 C551 1.393 . S
C555 C554 1.391 . S
H556 C564 0.950 . S
H557 C569 0.950 . S
H558 C566 0.950 . S
H559 C568 0.950 . S
H560 C570 0.950 . S
H561 C572 0.950 . S
H562 C574 0.950 . S
H563 C575 0.950 . S
C564 H556 0.950 . S
C564 C565 1.386 . S
C564 C566 1.391 . S
C565 C564 1.386 . S
C565 C569 1.393 . S
C566 H558 0.950 . S
C566 C564 1.391 . S
C566 C567 1.400 . S
C567 C566 1.400 . S
C567 C568 1.398 . S
C567 C573 1.491 . S
C568 H559 0.950 . S
C568 C567 1.398 . S
C568 C569 1.391 . S
C569 H557 0.950 . S
C569 C565 1.393 . S
C569 C568 1.391 . S
C570 H560 0.950 . S
C570 C571 1.386 . S
C570 C572 1.391 . S
C571 C570 1.386 . S
C571 C575 1.393 . S
C572 H561 0.950 . S
C572 C570 1.391 . S
C572 C573 1.400 . S
C573 C567 1.491 . S
C573 C572 1.400 . S
C573 C574 1.398 . S
C574 H562 0.950 . S
C574 C573 1.398 . S
C574 C575 1.391 . S
C575 H563 0.950 . S
C575 C571 1.393 . S
C575 C574 1.391 . S
H576 C584 0.950 . S
H577 C589 0.950 . S
H578 C586 0.950 . S
H579 C588 0.950 . S
H580 C590 0.950 . S
H581 C592 0.950 . S
H582 C594 0.950 . S
H583 C595 0.950 . S
C584 H576 0.950 . S
C584 C585 1.386 . S
C584 C586 1.391 . S
C585 C584 1.386 . S
C585 C589 1.393 . S
C586 H578 0.950 . S
C586 C584 1.391 . S
C586 C587 1.400 . S
C587 C586 1.400 . S
C587 C588 1.398 . S
C587 C593 1.491 . S
C588 H579 0.950 . S
C588 C587 1.398 . S
C588 C589 1.391 . S
C589 H577 0.950 . S
C589 C585 1.393 . S
C589 C588 1.391 . S
C590 H580 0.950 . S
C590 C591 1.386 . S
C590 C592 1.391 . S
C591 C590 1.386 . S
C591 C595 1.393 . S
C592 H581 0.950 . S
C592 C590 1.391 . S
C592 C593 1.400 . S
C593 C587 1.491 . S
C593 C592 1.400 . S
C593 C594 1.398 . S
C594 H582 0.950 . S
C594 C593 1.398 . S
C594 C595 1.391 . S
C595 H583 0.950 . S
C595 C591 1.393 . S
C595 C594 1.391 . S
H596 C604 0.950 . S
H597 C609 0.950 . S
H598 C606 0.950 . S
H599 C608 0.950 . S
H600 C610 0.950 . S
H601 C612 0.950 . S
H602 C614 0.950 . S
H603 C615 0.950 . S
C604 H596 0.950 . S
C604 C605 1.386 . S
C604 C606 1.391 . S
C605 C604 1.386 . S
C605 C609 1.393 . S
C606 H598 0.950 . S
C606 C604 1.391 . S
C606 C607 1.400 . S
C607 C606 1.400 . S
C607 C608 1.398 . S
C607 C613 1.491 . S
C608 H599 0.950 . S
C608 C607 1.398 . S
C608 C609 1.391 . S
C609 H597 0.950 . S
C609 C605 1.393 . S
C609 C608 1.391 . S
C610 H600 0.950 . S
C610 C611 1.386 . S
C610 C612 1.391 . S
C611 C610 1.386 . S
C611 C615 1.393 . S
C612 H601 0.950 . S
C612 C610 1.391 . S
C612 C613 1.400 . S
C613 C607 1.491 . S
C613 C612 1.400 . S
C613 C614 1.398 . S
C614 H602 0.950 . S
C614 C613 1.398 . S
C614 C615 1.391 . S
C615 H603 0.950 . S
C615 C611 1.393 . S
C615 C614 1.391 . S
H616 C624 0.950 . S
H617 C629 0.950 . S
H618 C626 0.950 . S
H619 C628 0.950 . S
H620 C630 0.950 . S
H621 C632 0.950 . S
H622 C634 0.950 . S
H623 C635 0.950 . S
C624 H616 0.950 . S
C624 C625 1.386 . S
C624 C626 1.391 . S
C625 C624 1.386 . S
C625 C629 1.393 . S
C626 H618 0.950 . S
C626 C624 1.391 . S
C626 C627 1.400 . S
C627 C626 1.400 . S
C627 C628 1.398 . S
C627 C633 1.491 . S
C628 H619 0.950 . S
C628 C627 1.398 . S
C628 C629 1.391 . S
C629 H617 0.950 . S
C629 C625 1.393 . S
C629 C628 1.391 . S
C630 H620 0.950 . S
C630 C631 1.386 . S
C630 C632 1.391 . S
C631 C630 1.386 . S
C631 C635 1.393 . S
C632 H621 0.950 . S
C632 C630 1.391 . S
C632 C633 1.400 . S
C633 C627 1.491 . S
C633 C632 1.400 . S
C633 C634 1.398 . S
C634 H622 0.950 . S
C634 C633 1.398 . S
C634 C635 1.391 . S
C635 H623 0.950 . S
C635 C631 1.393 . S
C635 C634 1.391 . S
H636 C644 0.950 . S
H637 C649 0.950 . S
H638 C646 0.950 . S
H639 C648 0.950 . S
H640 C650 0.950 . S
H641 C652 0.950 . S
H642 C654 0.950 . S
H643 C655 0.950 . S
C644 H636 0.950 . S
C644 C645 1.386 . S
C644 C646 1.391 . S
C645 C644 1.386 . S
C645 C649 1.393 . S
C646 H638 0.950 . S
C646 C644 1.391 . S
C646 C647 1.400 . S
C647 C646 1.400 . S
C647 C648 1.398 . S
C647 C653 1.491 . S
C648 H639 0.950 . S
C648 C647 1.398 . S
C648 C649 1.391 . S
C649 H637 0.950 . S
C649 C645 1.393 . S
C649 C648 1.391 . S
C650 H640 0.950 . S
C650 C651 1.386 . S
C650 C652 1.391 . S
C651 C650 1.386 . S
C651 C655 1.393 . S
C652 H641 0.950 . S
C652 C650 1.391 . S
C652 C653 1.400 . S
C653 C647 1.491 . S
C653 C652 1.400 . S
C653 C654 1.398 . S
C654 H642 0.950 . S
C654 C653 1.398 . S
C654 C655 1.391 . S
C655 H643 0.950 . S
C655 C651 1.393 . S
C655 C654 1.391 . S
H656 C664 0.950 . S
H657 C669 0.950 . S
H658 C666 0.950 . S
H659 C668 0.950 . S
H660 C670 0.950 . S
H661 C672 0.950 . S
H662 C674 0.950 . S
H663 C675 0.950 . S
C664 H656 0.950 . S
C664 C665 1.386 . S
C664 C666 1.391 . S
C665 C664 1.386 . S
C665 C669 1.393 . S
C666 H658 0.950 . S
C666 C664 1.391 . S
C666 C667 1.400 . S
C667 C666 1.400 . S
C667 C668 1.398 . S
C667 C673 1.491 . S
C668 H659 0.950 . S
C668 C667 1.398 . S
C668 C669 1.391 . S
C669 H657 0.950 . S
C669 C665 1.393 . S
C669 C668 1.391 . S
C670 H660 0.950 . S
C670 C671 1.386 . S
C670 C672 1.391 . S
C671 C670 1.386 . S
C671 C675 1.393 . S
C672 H661 0.950 . S
C672 C670 1.391 . S
C672 C673 1.400 . S
C673 C667 1.491 . S
C673 C672 1.400 . S
C673 C674 1.398 . S
C674 H662 0.950 . S
C674 C673 1.398 . S
C674 C675 1.391 . S
C675 H663 0.950 . S
C675 C671 1.393 . S
C675 C674 1.391 . S
H676 C684 0.950 . S
H677 C689 0.950 . S
H678 C686 0.950 . S
H679 C688 0.950 . S
H680 C690 0.950 . S
H681 C692 0.950 . S
H682 C694 0.950 . S
H683 C695 0.950 . S
C684 H676 0.950 . S
C684 C685 1.386 . S
C684 C686 1.391 . S
C685 C684 1.386 . S
C685 C689 1.393 . S
C686 H678 0.950 . S
C686 C684 1.391 . S
C686 C687 1.400 . S
C687 C686 1.400 . S
C687 C688 1.398 . S
C687 C693 1.491 . S
C688 H679 0.950 . S
C688 C687 1.398 . S
C688 C689 1.391 . S
C689 H677 0.950 . S
C689 C685 1.393 . S
C689 C688 1.391 . S
C690 H680 0.950 . S
C690 C691 1.386 . S
C690 C692 1.391 . S
C691 C690 1.386 . S
C691 C695 1.393 . S
C692 H681 0.950 . S
C692 C690 1.391 . S
C692 C693 1.400 . S
C693 C687 1.491 . S
C693 C692 1.400 . S
C693 C694 1.398 . S
C694 H682 0.950 . S
C694 C693 1.398 . S
C694 C695 1.391 . S
C695 H683 0.950 . S
C695 C691 1.393 . S
C695 C694 1.391 . S
H696 C704 0.950 . S
H697 C709 0.950 . S
H698 C706 0.950 . S
H699 C708 0.950 . S
H700 C710 0.950 . S
H701 C712 0.950 . S
H702 C714 0.950 . S
H703 C715 0.950 . S
C704 H696 0.950 . S
C704 C705 1.386 . S
C704 C706 1.391 . S
C705 C704 1.386 . S
C705 C709 1.393 . S
C706 H698 0.950 . S
C706 C704 1.391 . S
C706 C707 1.400 . S
C707 C706 1.400 . S
C707 C708 1.398 . S
C707 C713 1.491 . S
C708 H699 0.950 . S
C708 C707 1.398 . S
C708 C709 1.391 . S
C709 H697 0.950 . S
C709 C705 1.393 . S
C709 C708 1.391 . S
C710 H700 0.950 . S
C710 C711 1.386 . S
C710 C712 1.391 . S
C711 C710 1.386 . S
C711 C715 1.393 . S
C712 H701 0.950 . S
C712 C710 1.391 . S
C712 C713 1.400 . S
C713 C707 1.491 . S
C713 C712 1.400 . S
C713 C714 1.398 . S
C714 H702 0.950 . S
C714 C713 1.398 . S
C714 C715 1.391 . S
C715 H703 0.950 . S
C715 C711 1.393 . S
C715 C714 1.391 . S
H716 C724 0.950 . S
H717 C729 0.950 . S
H718 C726 0.950 . S
H719 C728 0.950 . S
H720 C730 0.950 . S
H721 C732 0.950 . S
H722 C734 0.950 . S
H723 C735 0.950 . S
C724 H716 0.950 . S
C724 C725 1.386 . S
C724 C726 1.391 . S
C725 C724 1.386 . S
C725 C729 1.393 . S
C726 H718 0.950 . S
C726 C724 1.391 . S
C726 C727 1.400 . S
C727 C726 1.400 . S
C727 C728 1.398 . S
C727 C733 1.491 . S
C728 H719 0.950 . S
C728 C727 1.398 . S
C728 C729 1.391 . S
C729 H717 0.950 . S
C729 C725 1.393 . S
C729 C728 1.391 . S
C730 H720 0.950 . S
C730 C731 1.386 . S
C730 C732 1.391 . S
C731 C730 1.386 . S
C731 C735 1.393 . S
C732 H721 0.950 . S
C732 C730 1.391 . S
C732 C733 1.400 . S
C733 C727 1.491 . S
C733 C732 1.400 . S
C733 C734 1.398 . S
C734 H722 0.950 . S
C734 C733 1.398 . S
C734 C735 1.391 . S
C735 H723 0.950 . S
C735 C731 1.393 . S
C735 C734 1.391 . S
H736 C744 0.950 . S
H737 C749 0.950 . S
H738 C746 0.950 . S
H739 C748 0.950 . S
H740 C750 0.950 . S
H741 C752 0.950 . S
H742 C754 0.950 . S
H743 C755 0.950 . S
C744 H736 0.950 . S
C744 C745 1.386 . S
C744 C746 1.391 . S
C745 C744 1.386 . S
C745 C749 1.393 . S
C746 H738 0.950 . S
C746 C744 1.391 . S
C746 C747 1.400 . S
C747 C746 1.400 . S
C747 C748 1.398 . S
C747 C753 1.491 . S
C748 H739 0.950 . S
C748 C747 1.398 . S
C748 C749 1.391 . S
C749 H737 0.950 . S
C749 C745 1.393 . S
C749 C748 1.391 . S
C750 H740 0.950 . S
C750 C751 1.386 . S
C750 C752 1.391 . S
C751 C750 1.386 . S
C751 C755 1.393 . S
C752 H741 0.950 . S
C752 C750 1.391 . S
C752 C753 1.400 . S
C753 C747 1.491 . S
C753 C752 1.400 . S
C753 C754 1.398 . S
C754 H742 0.950 . S
C754 C753 1.398 . S
C754 C755 1.391 . S
C755 H743 0.950 . S
C755 C751 1.393 . S
C755 C754 1.391 . S
H756 C764 0.950 . S
H757 C769 0.950 . S
H758 C766 0.950 . S
H759 C768 0.950 . S
H760 C770 0.950 . S
H761 C772 0.950 . S
H762 C774 0.950 . S
H763 C775 0.950 . S
C764 H756 0.950 . S
C764 C765 1.386 . S
C764 C766 1.391 . S
C765 C764 1.386 . S
C765 C769 1.393 . S
C766 H758 0.950 . S
C766 C764 1.391 . S
C766 C767 1.400 . S
C767 C766 1.400 . S
C767 C768 1.398 . S
C767 C773 1.491 . S
C768 H759 0.950 . S
C768 C767 1.398 . S
C768 C769 1.391 . S
C769 H757 0.950 . S
C769 C765 1.393 . S
C769 C768 1.391 . S
C770 H760 0.950 . S
C770 C771 1.386 . S
C770 C772 1.391 . S
C771 C770 1.386 . S
C771 C775 1.393 . S
C772 H761 0.950 . S
C772 C770 1.391 . S
C772 C773 1.400 . S
C773 C767 1.491 . S
C773 C772 1.400 . S
C773 C774 1.398 . S
C774 H762 0.950 . S
C774 C773 1.398 . S
C774 C775 1.391 . S
C775 H763 0.950 . S
C775 C771 1.393 . S
C775 C774 1.391 . S
H776 C784 0.950 . S
H777 C789 0.950 . S
H778 C786 0.950 . S
H779 C788 0.950 . S
H780 C790 0.950 . S
H781 C792 0.950 . S
H782 C794 0.950 . S
H783 C795 0.950 . S
C784 H776 0.950 . S
C784 C785 1.386 . S
C784 C786 1.391 . S
C785 C784 1.386 . S
C785 C789 1.393 . S
C786 H778 0.950 . S
C786 C784 1.391 . S
C786 C787 1.400 . S
C787 C786 1.400 . S
C787 C788 1.398 . S
C787 C793 1.491 . S
C788 H779 0.950 . S
C788 C787 1.398 . S
C788 C789 1.391 . S
C789 H777 0.950 . S
C789 C785 1.393 . S
C789 C788 1.391 . S
C790 H780 0.950 . S
C790 C791 1.386 . S
C790 C792 1.391 . S
C791 C790 1.386 . S
C791 C795 1.393 . S
C792 H781 0.950 . S
C792 C790 1.391 . S
C792 C793 1.400 . S
C793 C787 1.491 . S
C793 C792 1.400 . S
C793 C794 1.398 . S
C794 H782 0.950 . S
C794 C793 1.398 . S
C794 C795 1.391 . S
C795 H783 0.950 . S
C795 C791 1.393 . S
C795 C794 1.391 . S
H796 C804 0.950 . S
H797 C809 0.950 . S
H798 C806 0.950 . S
H799 C808 0.950 . S
H800 C810 0.950 . S
H801 C812 0.950 . S
H802 C814 0.950 . S
H803 C815 0.950 . S
C804 H796 0.950 . S
C804 C805 1.386 . S
C804 C806 1.391 . S
C805 C804 1.386 . S
C805 C809 1.393 . S
C806 H798 0.950 . S
C806 C804 1.391 . S
C806 C807 1.400 . S
C807 C806 1.400 . S
C807 C808 1.398 . S
C807 C813 1.491 . S
C808 H799 0.950 . S
C808 C807 1.398 . S
C808 C809 1.391 . S
C809 H797 0.950 . S
C809 C805 1.393 . S
C809 C808 1.391 . S
C810 H800 0.950 . S
C810 C811 1.386 . S
C810 C812 1.391 . S
C811 C810 1.386 . S
C811 C815 1.393 . S
C812 H801 0.950 . S
C812 C810 1.391 . S
C812 C813 1.400 . S
C813 C807 1.491 . S
C813 C812 1.400 . S
C813 C814 1.398 . S
C814 H802 0.950 . S
C814 C813 1.398 . S
C814 C815 1.391 . S
C815 H803 0.950 . S
C815 C811 1.393 . S
C815 C814 1.391 . S
H816 C824 0.950 . S
H817 C829 0.950 . S
H818 C826 0.950 . S
H819 C828 0.950 . S
H820 C830 0.950 . S
H821 C832 0.950 . S
H822 C834 0.950 . S
H823 C835 0.950 . S
C824 H816 0.950 . S
C824 C825 1.386 . S
C824 C826 1.391 . S
C825 C824 1.386 . S
C825 C829 1.393 1_565 S
C826 H818 0.950 . S
C826 C824 1.391 . S
C826 C827 1.400 . S
C827 C826 1.400 . S
C827 C828 1.398 1_565 S
C827 C833 1.491 1_566 S
C828 H819 0.950 . S
C828 C827 1.398 1_545 S
C828 C829 1.391 . S
C829 H817 0.950 . S
C829 C825 1.393 1_545 S
C829 C828 1.391 . S
C830 H820 0.950 . S
C830 C831 1.386 . S
C830 C832 1.391 . S
C831 C830 1.386 . S
C831 C835 1.393 1_545 S
C832 H821 0.950 . S
C832 C830 1.391 . S
C832 C833 1.400 . S
C833 C827 1.491 1_544 S
C833 C832 1.400 . S
C833 C834 1.398 1_545 S
C834 H822 0.950 . S
C834 C833 1.398 1_565 S
C834 C835 1.391 . S
C835 H823 0.950 . S
C835 C831 1.393 1_565 S
C835 C834 1.391 . S
H836 C844 0.950 . S
H837 C849 0.950 . S
H838 C846 0.950 . S
H839 C848 0.950 . S
H840 C850 0.950 . S
H841 C852 0.950 . S
H842 C854 0.950 . S
H843 C855 0.950 . S
C844 H836 0.950 . S
C844 C845 1.386 . S
C844 C846 1.391 . S
C845 C844 1.386 . S
C845 C849 1.393 . S
C846 H838 0.950 . S
C846 C844 1.391 . S
C846 C847 1.400 . S
C847 C846 1.400 . S
C847 C848 1.398 . S
C847 C853 1.491 . S
C848 H839 0.950 . S
C848 C847 1.398 . S
C848 C849 1.391 . S
C849 H837 0.950 . S
C849 C845 1.393 . S
C849 C848 1.391 . S
C850 H840 0.950 . S
C850 C851 1.386 . S
C850 C852 1.391 . S
C851 C850 1.386 . S
C851 C855 1.393 . S
C852 H841 0.950 . S
C852 C850 1.391 . S
C852 C853 1.400 . S
C853 C847 1.491 . S
C853 C852 1.400 . S
C853 C854 1.398 . S
C854 H842 0.950 . S
C854 C853 1.398 . S
C854 C855 1.391 . S
C855 H843 0.950 . S
C855 C851 1.393 . S
C855 C854 1.391 . S
H856 C864 0.950 . S
H857 C869 0.950 . S
H858 C866 0.950 . S
H859 C868 0.950 . S
H860 C870 0.950 . S
H861 C872 0.950 . S
H862 C874 0.950 . S
H863 C875 0.950 . S
C864 H856 0.950 . S
C864 C865 1.386 . S
C864 C866 1.391 . S
C865 C864 1.386 . S
C865 C869 1.393 1_455 S
C866 H858 0.950 . S
C866 C864 1.391 . S
C866 C867 1.400 . S
C867 C866 1.400 . S
C867 C868 1.398 1_455 S
C867 C873 1.491 1_456 S
C868 H859 0.950 . S
C868 C867 1.398 1_655 S
C868 C869 1.391 . S
C869 H857 0.950 . S
C869 C865 1.393 1_655 S
C869 C868 1.391 . S
C870 H860 0.950 . S
C870 C871 1.386 . S
C870 C872 1.391 . S
C871 C870 1.386 . S
C871 C875 1.393 1_655 S
C872 H861 0.950 . S
C872 C870 1.391 . S
C872 C873 1.400 . S
C873 C867 1.491 1_654 S
C873 C872 1.400 . S
C873 C874 1.398 1_655 S
C874 H862 0.950 . S
C874 C873 1.398 1_455 S
C874 C875 1.391 . S
C875 H863 0.950 . S
C875 C871 1.393 1_455 S
C875 C874 1.391 . S
H876 C884 0.950 . S
H877 C889 0.950 . S
H878 C886 0.950 . S
H879 C888 0.950 . S
H880 C890 0.950 . S
H881 C892 0.950 . S
H882 C894 0.950 . S
H883 C895 0.950 . S
C884 H876 0.950 . S
C884 C885 1.386 . S
C884 C886 1.391 . S
C885 C884 1.386 . S
C885 C889 1.393 1_545 S
C886 H878 0.950 . S
C886 C884 1.391 . S
C886 C887 1.400 . S
C887 C886 1.400 . S
C887 C888 1.398 1_545 S
C887 C893 1.491 1_545 S
C888 H879 0.950 . S
C888 C887 1.398 1_565 S
C888 C889 1.391 . S
C889 H877 0.950 . S
C889 C885 1.393 1_565 S
C889 C888 1.391 . S
C890 H880 0.950 . S
C890 C891 1.386 . S
C890 C892 1.391 . S
C891 C890 1.386 . S
C891 C895 1.393 1_565 S
C892 H881 0.950 . S
C892 C890 1.391 . S
C892 C893 1.400 . S
C893 C887 1.491 1_565 S
C893 C892 1.400 . S
C893 C894 1.398 1_565 S
C894 H882 0.950 . S
C894 C893 1.398 1_545 S
C894 C895 1.391 . S
C895 H883 0.950 . S
C895 C891 1.393 1_545 S
C895 C894 1.391 . S
H896 C904 0.950 . S
H897 C909 0.950 . S
H898 C906 0.950 . S
H899 C908 0.950 . S
H900 C910 0.950 . S
H901 C912 0.950 . S
H902 C914 0.950 . S
H903 C915 0.950 . S
C904 H896 0.950 . S
C904 C905 1.386 . S
C904 C906 1.391 . S
C905 C904 1.386 . S
C905 C909 1.393 . S
C906 H898 0.950 . S
C906 C904 1.391 . S
C906 C907 1.400 . S
C907 C906 1.400 . S
C907 C908 1.398 . S
C907 C913 1.491 1_554 S
C908 H899 0.950 . S
C908 C907 1.398 . S
C908 C909 1.391 . S
C909 H897 0.950 . S
C909 C905 1.393 . S
C909 C908 1.391 . S
C910 H900 0.950 . S
C910 C911 1.386 . S
C910 C912 1.391 . S
C911 C910 1.386 . S
C911 C915 1.393 . S
C912 H901 0.950 . S
C912 C910 1.391 . S
C912 C913 1.400 . S
C913 C907 1.491 1_556 S
C913 C912 1.400 . S
C913 C914 1.398 . S
C914 H902 0.950 . S
C914 C913 1.398 . S
C914 C915 1.391 . S
C915 H903 0.950 . S
C915 C911 1.393 . S
C915 C914 1.391 . S
H916 C924 0.950 . S
H917 C929 0.950 . S
H918 C926 0.950 . S
H919 C928 0.950 . S
H920 C930 0.950 . S
H921 C932 0.950 . S
H922 C934 0.950 . S
H923 C935 0.950 . S
C924 H916 0.950 . S
C924 C925 1.386 . S
C924 C926 1.391 . S
C925 C924 1.386 . S
C925 C929 1.393 1_455 S
C926 H918 0.950 . S
C926 C924 1.391 . S
C926 C927 1.400 . S
C927 C926 1.400 . S
C927 C928 1.398 1_455 S
C927 C933 1.491 1_455 S
C928 H919 0.950 . S
C928 C927 1.398 1_655 S
C928 C929 1.391 . S
C929 H917 0.950 . S
C929 C925 1.393 1_655 S
C929 C928 1.391 . S
C930 H920 0.950 . S
C930 C931 1.386 . S
C930 C932 1.391 . S
C931 C930 1.386 . S
C931 C935 1.393 1_655 S
C932 H921 0.950 . S
C932 C930 1.391 . S
C932 C933 1.400 . S
C933 C927 1.491 1_655 S
C933 C932 1.400 . S
C933 C934 1.398 1_655 S
C934 H922 0.950 . S
C934 C933 1.398 1_455 S
C934 C935 1.391 . S
C935 H923 0.950 . S
C935 C931 1.393 1_455 S
C935 C934 1.391 . S
H936 C944 0.950 . S
H937 C949 0.950 . S
H938 C946 0.945 . S
H939 C948 0.950 . S
H940 C950 0.950 . S
H941 C952 0.945 . S
H942 C954 0.950 . S
H943 C955 0.950 . S
C944 H936 0.950 . S
C944 C945 1.386 . S
C944 C946 1.385 1_565 S
C945 C944 1.386 . S
C945 C949 1.393 . S
C946 H938 0.945 . S
C946 C944 1.385 1_545 S
C946 C947 1.413 1_545 S
C947 C946 1.413 1_565 S
C947 C948 1.398 . S
C947 C953 1.491 1_566 S
C948 H939 0.950 . S
C948 C947 1.398 . S
C948 C949 1.391 . S
C949 H937 0.950 . S
C949 C945 1.393 . S
C949 C948 1.391 . S
C950 H940 0.950 . S
C950 C951 1.386 . S
C950 C952 1.385 1_545 S
C951 C950 1.386 . S
C951 C955 1.393 . S
C952 H941 0.945 . S
C952 C950 1.385 1_565 S
C952 C953 1.413 1_565 S
C953 C947 1.491 1_544 S
C953 C952 1.413 1_545 S
C953 C954 1.398 . S
C954 H942 0.950 . S
C954 C953 1.398 . S
C954 C955 1.391 . S
C955 H943 0.950 . S
C955 C951 1.393 . S
C955 C954 1.391 . S
H956 C964 0.950 . S
H957 C969 0.950 . S
H958 C966 0.950 . S
H959 C968 0.950 . S
H960 C970 0.950 . S
H961 C972 0.950 . S
H962 C974 0.950 . S
H963 C975 0.950 . S
C964 H956 0.950 . S
C964 C965 1.386 . S
C964 C966 1.391 . S
C965 C964 1.386 . S
C965 C969 1.393 . S
C966 H958 0.950 . S
C966 C964 1.391 . S
C966 C967 1.400 . S
C967 C966 1.400 . S
C967 C968 1.398 . S
C967 C973 1.491 . S
C968 H959 0.950 . S
C968 C967 1.398 . S
C968 C969 1.391 . S
C969 H957 0.950 . S
C969 C965 1.393 . S
C969 C968 1.391 . S
C970 H960 0.950 . S
C970 C971 1.386 . S
C970 C972 1.391 . S
C971 C970 1.386 . S
C971 C975 1.393 . S
C972 H961 0.950 . S
C972 C970 1.391 . S
C972 C973 1.400 . S
C973 C967 1.491 . S
C973 C972 1.400 . S
C973 C974 1.398 . S
C974 H962 0.950 . S
C974 C973 1.398 . S
C974 C975 1.391 . S
C975 H963 0.950 . S
C975 C971 1.393 . S
C975 C974 1.391 . S
H976 C984 0.950 . S
H977 C989 0.950 . S
H978 C986 0.950 . S
H979 C988 0.950 1_455 S
H980 C990 0.950 . S
H981 C992 0.950 . S
H982 C994 0.950 1_655 S
H983 C995 0.950 . S
C984 H976 0.950 . S
C984 C985 1.386 . S
C984 C986 1.391 . S
C985 C984 1.386 . S
C985 C989 1.393 . S
C986 H978 0.950 . S
C986 C984 1.391 . S
C986 C987 1.400 . S
C987 C986 1.400 . S
C987 C988 1.398 . S
C987 C993 1.491 1_654 S
C988 H979 0.950 1_655 S
C988 C987 1.398 . S
C988 C989 1.391 . S
C989 H977 0.950 . S
C989 C985 1.393 . S
C989 C988 1.391 . S
C990 H980 0.950 . S
C990 C991 1.386 . S
C990 C992 1.391 . S
C991 C990 1.386 . S
C991 C995 1.393 . S
C992 H981 0.950 . S
C992 C990 1.391 . S
C992 C993 1.400 . S
C993 C987 1.491 1_456 S
C993 C992 1.400 . S
C993 C994 1.398 . S
C994 H982 0.950 1_455 S
C994 C993 1.398 . S
C994 C995 1.391 . S
C995 H983 0.950 . S
C995 C991 1.393 . S
C995 C994 1.391 . S
H996 C1004 0.954 1_545 S
H997 C1009 0.950 . S
H998 C1006 0.950 . S
H999 C1008 0.950 . S
H1000 C1010 0.954 1_565 S
H1001 C1012 0.950 . S
H1002 C1014 0.950 . S
H1003 C1015 0.950 . S
C1004 H996 0.954 1_565 S
C1004 C1005 1.386 . S
C1004 C1006 1.391 1_565 S
C1005 C1004 1.386 . S
C1005 C1009 1.393 . S
C1006 H998 0.950 . S
C1006 C1004 1.391 1_545 S
C1006 C1007 1.400 1_545 S
C1007 C1006 1.400 1_565 S
C1007 C1008 1.398 . S
C1007 C1013 1.491 1_565 S
C1008 H999 0.950 . S
C1008 C1007 1.398 . S
C1008 C1009 1.391 . S
C1009 H997 0.950 . S
C1009 C1005 1.393 . S
C1009 C1008 1.391 . S
C1010 H1000 0.954 1_545 S
C1010 C1011 1.386 . S
C1010 C1012 1.391 1_545 S
C1011 C1010 1.386 . S
C1011 C1015 1.393 . S
C1012 H1001 0.950 . S
C1012 C1010 1.391 1_565 S
C1012 C1013 1.400 1_565 S
C1013 C1007 1.491 1_545 S
C1013 C1012 1.400 1_545 S
C1013 C1014 1.398 . S
C1014 H1002 0.950 . S
C1014 C1013 1.398 . S
C1014 C1015 1.391 . S
C1015 H1003 0.950 . S
C1015 C1011 1.393 . S
C1015 C1014 1.391 . S
H1016 C1024 0.950 . S
H1017 C1029 0.950 . S
H1018 C1026 0.950 . S
H1019 C1028 0.950 . S
H1020 C1030 0.950 . S
H1021 C1032 0.950 . S
H1022 C1034 0.950 . S
H1023 C1035 0.950 . S
C1024 H1016 0.950 . S
C1024 C1025 1.386 . S
C1024 C1026 1.391 . S
C1025 C1024 1.386 . S
C1025 C1029 1.393 . S
C1026 H1018 0.950 . S
C1026 C1024 1.391 . S
C1026 C1027 1.400 . S
C1027 C1026 1.400 . S
C1027 C1028 1.398 . S
C1027 C1033 1.491 1_554 S
C1028 H1019 0.950 . S
C1028 C1027 1.398 . S
C1028 C1029 1.391 . S
C1029 H1017 0.950 . S
C1029 C1025 1.393 . S
C1029 C1028 1.391 . S
C1030 H1020 0.950 . S
C1030 C1031 1.386 . S
C1030 C1032 1.391 . S
C1031 C1030 1.386 . S
C1031 C1035 1.393 . S
C1032 H1021 0.950 . S
C1032 C1030 1.391 . S
C1032 C1033 1.400 . S
C1033 C1027 1.491 1_556 S
C1033 C1032 1.400 . S
C1033 C1034 1.398 . S
C1034 H1022 0.950 . S
C1034 C1033 1.398 . S
C1034 C1035 1.391 . S
C1035 H1023 0.950 . S
C1035 C1031 1.393 . S
C1035 C1034 1.391 . S
H1036 C1044 0.950 . S
H1037 C1049 0.950 . S
H1038 C1046 0.950 . S
H1039 C1048 0.950 . S
H1040 C1050 0.950 . S
H1041 C1052 0.950 . S
H1042 C1054 0.950 . S
H1043 C1055 0.950 . S
C1044 H1036 0.950 . S
C1044 C1045 1.386 1_655 S
C1044 C1046 1.391 . S
C1045 C1044 1.386 1_455 S
C1045 C1049 1.393 . S
C1046 H1038 0.950 . S
C1046 C1044 1.391 . S
C1046 C1047 1.400 1_655 S
C1047 C1046 1.400 1_455 S
C1047 C1048 1.398 . S
C1047 C1053 1.491 1_455 S
C1048 H1039 0.950 . S
C1048 C1047 1.398 . S
C1048 C1049 1.391 . S
C1049 H1037 0.950 . S
C1049 C1045 1.393 . S
C1049 C1048 1.391 . S
C1050 H1040 0.950 . S
C1050 C1051 1.386 1_455 S
C1050 C1052 1.391 . S
C1051 C1050 1.386 1_655 S
C1051 C1055 1.393 . S
C1052 H1041 0.950 . S
C1052 C1050 1.391 . S
C1052 C1053 1.400 1_455 S
C1053 C1047 1.491 1_655 S
C1053 C1052 1.400 1_655 S
C1053 C1054 1.398 . S
C1054 H1042 0.950 . S
C1054 C1053 1.398 . S
C1054 C1055 1.391 . S
C1055 H1043 0.950 . S
C1055 C1051 1.393 . S
C1055 C1054 1.391 . S
H1056 C1064 0.950 . S
H1057 C1069 0.950 . S
H1058 C1066 0.950 . S
H1059 C1068 0.950 . S
H1060 C1070 0.950 . S
H1061 C1072 0.950 . S
H1062 C1074 0.950 . S
H1063 C1075 0.950 . S
C1064 H1056 0.950 . S
C1064 C1065 1.386 . S
C1064 C1066 1.391 . S
C1065 C1064 1.386 . S
C1065 C1069 1.393 . S
C1066 H1058 0.950 . S
C1066 C1064 1.391 . S
C1066 C1067 1.400 . S
C1067 C1066 1.400 . S
C1067 C1068 1.398 . S
C1067 C1073 1.491 . S
C1068 H1059 0.950 . S
C1068 C1067 1.398 . S
C1068 C1069 1.391 . S
C1069 H1057 0.950 . S
C1069 C1065 1.393 . S
C1069 C1068 1.391 . S
C1070 H1060 0.950 . S
C1070 C1071 1.386 . S
C1070 C1072 1.391 . S
C1071 C1070 1.386 . S
C1071 C1075 1.393 . S
C1072 H1061 0.950 . S
C1072 C1070 1.391 . S
C1072 C1073 1.400 . S
C1073 C1067 1.491 . S
C1073 C1072 1.400 . S
C1073 C1074 1.398 . S
C1074 H1062 0.950 . S
C1074 C1073 1.398 . S
C1074 C1075 1.391 . S
C1075 H1063 0.950 . S
C1075 C1071 1.393 . S
C1075 C1074 1.391 . S
H1076 C1084 0.950 . S
H1077 C1089 0.950 . S
H1078 C1086 0.950 . S
H1079 C1088 0.950 . S
H1080 C1090 0.950 . S
H1081 C1092 0.950 . S
H1082 C1094 0.950 . S
H1083 C1095 0.950 . S
C1084 H1076 0.950 . S
C1084 C1085 1.386 . S
C1084 C1086 1.391 . S
C1085 C1084 1.386 . S
C1085 C1089 1.393 . S
C1086 H1078 0.950 . S
C1086 C1084 1.391 . S
C1086 C1087 1.400 . S
C1087 C1086 1.400 . S
C1087 C1088 1.398 . S
C1087 C1093 1.491 . S
C1088 H1079 0.950 . S
C1088 C1087 1.398 . S
C1088 C1089 1.391 . S
C1089 H1077 0.950 . S
C1089 C1085 1.393 . S
C1089 C1088 1.391 . S
C1090 H1080 0.950 . S
C1090 C1091 1.386 . S
C1090 C1092 1.391 . S
C1091 C1090 1.386 . S
C1091 C1095 1.393 . S
C1092 H1081 0.950 . S
C1092 C1090 1.391 . S
C1092 C1093 1.400 . S
C1093 C1087 1.491 . S
C1093 C1092 1.400 . S
C1093 C1094 1.398 . S
C1094 H1082 0.950 . S
C1094 C1093 1.398 . S
C1094 C1095 1.391 . S
C1095 H1083 0.950 . S
C1095 C1091 1.393 . S
C1095 C1094 1.391 . S
H1096 C1104 0.950 . S
H1097 C1109 0.950 . S
H1098 C1106 0.950 . S
H1099 C1108 0.950 . S
H1100 C1110 0.950 . S
H1101 C1112 0.950 . S
H1102 C1114 0.950 . S
H1103 C1115 0.950 . S
C1104 H1096 0.950 . S
C1104 C1105 1.386 . S
C1104 C1106 1.391 . S
C1105 C1104 1.386 . S
C1105 C1109 1.393 . S
C1106 H1098 0.950 . S
C1106 C1104 1.391 . S
C1106 C1107 1.400 . S
C1107 C1106 1.400 . S
C1107 C1108 1.398 . S
C1107 C1113 1.491 . S
C1108 H1099 0.950 . S
C1108 C1107 1.398 . S
C1108 C1109 1.391 . S
C1109 H1097 0.950 . S
C1109 C1105 1.393 . S
C1109 C1108 1.391 . S
C1110 H1100 0.950 . S
C1110 C1111 1.386 . S
C1110 C1112 1.391 . S
C1111 C1110 1.386 . S
C1111 C1115 1.393 . S
C1112 H1101 0.950 . S
C1112 C1110 1.391 . S
C1112 C1113 1.400 . S
C1113 C1107 1.491 . S
C1113 C1112 1.400 . S
C1113 C1114 1.398 . S
C1114 H1102 0.950 . S
C1114 C1113 1.398 . S
C1114 C1115 1.391 . S
C1115 H1103 0.950 . S
C1115 C1111 1.393 . S
C1115 C1114 1.391 . S
H1116 C1124 0.950 . S
H1117 C1129 0.950 . S
H1118 C1126 0.950 . S
H1119 C1128 0.950 . S
H1120 C1130 0.950 . S
H1121 C1132 0.950 . S
H1122 C1134 0.950 . S
H1123 C1135 0.950 . S
C1124 H1116 0.950 . S
C1124 C1125 1.386 . S
C1124 C1126 1.391 . S
C1125 C1124 1.386 . S
C1125 C1129 1.393 . S
C1126 H1118 0.950 . S
C1126 C1124 1.391 . S
C1126 C1127 1.400 . S
C1127 C1126 1.400 . S
C1127 C1128 1.398 . S
C1127 C1133 1.491 . S
C1128 H1119 0.950 . S
C1128 C1127 1.398 . S
C1128 C1129 1.391 . S
C1129 H1117 0.950 . S
C1129 C1125 1.393 . S
C1129 C1128 1.391 . S
C1130 H1120 0.950 . S
C1130 C1131 1.386 . S
C1130 C1132 1.391 . S
C1131 C1130 1.386 . S
C1131 C1135 1.393 . S
C1132 H1121 0.950 . S
C1132 C1130 1.391 . S
C1132 C1133 1.400 . S
C1133 C1127 1.491 . S
C1133 C1132 1.400 . S
C1133 C1134 1.398 . S
C1134 H1122 0.950 . S
C1134 C1133 1.398 . S
C1134 C1135 1.391 . S
C1135 H1123 0.950 . S
C1135 C1131 1.393 . S
C1135 C1134 1.391 . S
H1136 C1144 0.950 . S
H1137 C1149 0.950 . S
H1138 C1146 0.950 . S
H1139 C1148 0.950 . S
H1140 C1150 0.950 . S
H1141 C1152 0.950 . S
H1142 C1154 0.950 . S
H1143 C1155 0.950 . S
C1144 H1136 0.950 . S
C1144 C1145 1.386 . S
C1144 C1146 1.391 . S
C1145 C1144 1.386 . S
C1145 C1149 1.393 . S
C1146 H1138 0.950 . S
C1146 C1144 1.391 . S
C1146 C1147 1.400 . S
C1147 C1146 1.400 . S
C1147 C1148 1.398 . S
C1147 C1153 1.491 . S
C1148 H1139 0.950 . S
C1148 C1147 1.398 . S
C1148 C1149 1.391 . S
C1149 H1137 0.950 . S
C1149 C1145 1.393 . S
C1149 C1148 1.391 . S
C1150 H1140 0.950 . S
C1150 C1151 1.386 . S
C1150 C1152 1.391 . S
C1151 C1150 1.386 . S
C1151 C1155 1.393 . S
C1152 H1141 0.950 . S
C1152 C1150 1.391 . S
C1152 C1153 1.400 . S
C1153 C1147 1.491 . S
C1153 C1152 1.400 . S
C1153 C1154 1.398 . S
C1154 H1142 0.950 . S
C1154 C1153 1.398 . S
C1154 C1155 1.391 . S
C1155 H1143 0.950 . S
C1155 C1151 1.393 . S
C1155 C1154 1.391 . S
H1156 C1164 0.950 . S
H1157 C1169 0.950 . S
H1158 C1166 0.950 . S
H1159 C1168 0.950 . S
H1160 C1170 0.950 . S
H1161 C1172 0.950 . S
H1162 C1174 0.950 . S
H1163 C1175 0.950 . S
C1164 H1156 0.950 . S
C1164 C1165 1.386 . S
C1164 C1166 1.391 . S
C1165 C1164 1.386 . S
C1165 C1169 1.393 . S
C1166 H1158 0.950 . S
C1166 C1164 1.391 . S
C1166 C1167 1.400 . S
C1167 C1166 1.400 . S
C1167 C1168 1.398 . S
C1167 C1173 1.491 . S
C1168 H1159 0.950 . S
C1168 C1167 1.398 . S
C1168 C1169 1.391 . S
C1169 H1157 0.950 . S
C1169 C1165 1.393 . S
C1169 C1168 1.391 . S
C1170 H1160 0.950 . S
C1170 C1171 1.386 . S
C1170 C1172 1.391 . S
C1171 C1170 1.386 . S
C1171 C1175 1.393 . S
C1172 H1161 0.950 . S
C1172 C1170 1.391 . S
C1172 C1173 1.400 . S
C1173 C1167 1.491 . S
C1173 C1172 1.400 . S
C1173 C1174 1.398 . S
C1174 H1162 0.950 . S
C1174 C1173 1.398 . S
C1174 C1175 1.391 . S
C1175 H1163 0.950 . S
C1175 C1171 1.393 . S
C1175 C1174 1.391 . S
H1176 C1184 0.950 . S
H1177 C1189 0.950 . S
H1178 C1186 0.950 . S
H1179 C1188 0.950 . S
H1180 C1190 0.950 . S
H1181 C1192 0.950 . S
H1182 C1194 0.950 . S
H1183 C1195 0.950 . S
C1184 H1176 0.950 . S
C1184 C1185 1.386 . S
C1184 C1186 1.391 . S
C1185 C1184 1.386 . S
C1185 C1189 1.393 . S
C1186 H1178 0.950 . S
C1186 C1184 1.391 . S
C1186 C1187 1.400 . S
C1187 C1186 1.400 . S
C1187 C1188 1.398 . S
C1187 C1193 1.491 . S
C1188 H1179 0.950 . S
C1188 C1187 1.398 . S
C1188 C1189 1.391 . S
C1189 H1177 0.950 . S
C1189 C1185 1.393 . S
C1189 C1188 1.391 . S
C1190 H1180 0.950 . S
C1190 C1191 1.386 . S
C1190 C1192 1.391 . S
C1191 C1190 1.386 . S
C1191 C1195 1.393 . S
C1192 H1181 0.950 . S
C1192 C1190 1.391 . S
C1192 C1193 1.400 . S
C1193 C1187 1.491 . S
C1193 C1192 1.400 . S
C1193 C1194 1.398 . S
C1194 H1182 0.950 . S
C1194 C1193 1.398 . S
C1194 C1195 1.391 . S
C1195 H1183 0.950 . S
C1195 C1191 1.393 . S
C1195 C1194 1.391 . S
H1196 C1204 0.950 . S
H1197 C1209 0.950 . S
H1198 C1206 0.950 . S
H1199 C1208 0.950 . S
H1200 C1210 0.950 . S
H1201 C1212 0.950 . S
H1202 C1214 0.950 . S
H1203 C1215 0.950 . S
C1204 H1196 0.950 . S
C1204 C1205 1.386 . S
C1204 C1206 1.391 . S
C1205 C1204 1.386 . S
C1205 C1209 1.393 . S
C1206 H1198 0.950 . S
C1206 C1204 1.391 . S
C1206 C1207 1.400 . S
C1207 C1206 1.400 . S
C1207 C1208 1.398 . S
C1207 C1213 1.491 . S
C1208 H1199 0.950 . S
C1208 C1207 1.398 . S
C1208 C1209 1.391 . S
C1209 H1197 0.950 . S
C1209 C1205 1.393 . S
C1209 C1208 1.391 . S
C1210 H1200 0.950 . S
C1210 C1211 1.386 . S
C1210 C1212 1.391 . S
C1211 C1210 1.386 . S
C1211 C1215 1.393 . S
C1212 H1201 0.950 . S
C1212 C1210 1.391 . S
C1212 C1213 1.400 . S
C1213 C1207 1.491 . S
C1213 C1212 1.400 . S
C1213 C1214 1.398 . S
C1214 H1202 0.950 . S
C1214 C1213 1.398 . S
C1214 C1215 1.391 . S
C1215 H1203 0.950 . S
C1215 C1211 1.393 . S
C1215 C1214 1.391 . S
H1216 C1224 0.950 . S
H1217 C1229 0.950 . S
H1218 C1226 0.950 . S
H1219 C1228 0.950 . S
H1220 C1230 0.950 . S
H1221 C1232 0.950 . S
H1222 C1234 0.950 . S
H1223 C1235 0.950 . S
C1224 H1216 0.950 . S
C1224 C1225 1.386 . S
C1224 C1226 1.391 . S
C1225 C1224 1.386 . S
C1225 C1229 1.393 . S
C1226 H1218 0.950 . S
C1226 C1224 1.391 . S
C1226 C1227 1.400 . S
C1227 C1226 1.400 . S
C1227 C1228 1.398 . S
C1227 C1233 1.491 . S
C1228 H1219 0.950 . S
C1228 C1227 1.398 . S
C1228 C1229 1.391 . S
C1229 H1217 0.950 . S
C1229 C1225 1.393 . S
C1229 C1228 1.391 . S
C1230 H1220 0.950 . S
C1230 C1231 1.386 . S
C1230 C1232 1.391 . S
C1231 C1230 1.386 . S
C1231 C1235 1.393 . S
C1232 H1221 0.950 . S
C1232 C1230 1.391 . S
C1232 C1233 1.400 . S
C1233 C1227 1.491 . S
C1233 C1232 1.400 . S
C1233 C1234 1.398 . S
C1234 H1222 0.950 . S
C1234 C1233 1.398 . S
C1234 C1235 1.391 . S
C1235 H1223 0.950 . S
C1235 C1231 1.393 . S
C1235 C1234 1.391 . S
H1236 C1244 0.950 . S
H1237 C1249 0.950 . S
H1238 C1246 0.950 . S
H1239 C1248 0.950 . S
H1240 C1250 0.950 . S
H1241 C1252 0.950 . S
H1242 C1254 0.950 . S
H1243 C1255 0.950 . S
C1244 H1236 0.950 . S
C1244 C1245 1.386 . S
C1244 C1246 1.391 . S
C1245 C1244 1.386 . S
C1245 C1249 1.393 . S
C1246 H1238 0.950 . S
C1246 C1244 1.391 . S
C1246 C1247 1.400 . S
C1247 C1246 1.400 . S
C1247 C1248 1.398 . S
C1247 C1253 1.491 . S
C1248 H1239 0.950 . S
C1248 C1247 1.398 . S
C1248 C1249 1.391 . S
C1249 H1237 0.950 . S
C1249 C1245 1.393 . S
C1249 C1248 1.391 . S
C1250 H1240 0.950 . S
C1250 C1251 1.386 . S
C1250 C1252 1.391 . S
C1251 C1250 1.386 . S
C1251 C1255 1.393 . S
C1252 H1241 0.950 . S
C1252 C1250 1.391 . S
C1252 C1253 1.400 . S
C1253 C1247 1.491 . S
C1253 C1252 1.400 . S
C1253 C1254 1.398 . S
C1254 H1242 0.950 . S
C1254 C1253 1.398 . S
C1254 C1255 1.391 . S
C1255 H1243 0.950 . S
C1255 C1251 1.393 . S
C1255 C1254 1.391 . S
H1256 C1264 0.950 . S
H1257 C1269 0.950 . S
H1258 C1266 0.950 . S
H1259 C1268 0.950 . S
H1260 C1270 0.950 . S
H1261 C1272 0.950 . S
H1262 C1274 0.950 . S
H1263 C1275 0.950 . S
C1264 H1256 0.950 . S
C1264 C1265 1.386 . S
C1264 C1266 1.391 . S
C1265 C1264 1.386 . S
C1265 C1269 1.393 . S
C1266 H1258 0.950 . S
C1266 C1264 1.391 . S
C1266 C1267 1.400 . S
C1267 C1266 1.400 . S
C1267 C1268 1.398 . S
C1267 C1273 1.491 . S
C1268 H1259 0.950 . S
C1268 C1267 1.398 . S
C1268 C1269 1.391 . S
C1269 H1257 0.950 . S
C1269 C1265 1.393 . S
C1269 C1268 1.391 . S
C1270 H1260 0.950 . S
C1270 C1271 1.386 . S
C1270 C1272 1.391 . S
C1271 C1270 1.386 . S
C1271 C1275 1.393 . S
C1272 H1261 0.950 . S
C1272 C1270 1.391 . S
C1272 C1273 1.400 . S
C1273 C1267 1.491 . S
C1273 C1272 1.400 . S
C1273 C1274 1.398 . S
C1274 H1262 0.950 . S
C1274 C1273 1.398 . S
C1274 C1275 1.391 . S
C1275 H1263 0.950 . S
C1275 C1271 1.393 . S
C1275 C1274 1.391 . S
H1276 C1284 0.950 . S
H1277 C1289 0.950 . S
H1278 C1286 0.950 . S
H1279 C1288 0.950 . S
H1280 C1290 0.950 . S
H1281 C1292 0.950 . S
H1282 C1294 0.950 . S
H1283 C1295 0.950 . S
C1284 H1276 0.950 . S
C1284 C1285 1.386 . S
C1284 C1286 1.391 . S
C1285 C1284 1.386 . S
C1285 C1289 1.393 . S
C1286 H1278 0.950 . S
C1286 C1284 1.391 . S
C1286 C1287 1.400 . S
C1287 C1286 1.400 . S
C1287 C1288 1.398 . S
C1287 C1293 1.491 . S
C1288 H1279 0.950 . S
C1288 C1287 1.398 . S
C1288 C1289 1.391 . S
C1289 H1277 0.950 . S
C1289 C1285 1.393 . S
C1289 C1288 1.391 . S
C1290 H1280 0.950 . S
C1290 C1291 1.386 . S
C1290 C1292 1.391 . S
C1291 C1290 1.386 . S
C1291 C1295 1.393 . S
C1292 H1281 0.950 . S
C1292 C1290 1.391 . S
C1292 C1293 1.400 . S
C1293 C1287 1.491 . S
C1293 C1292 1.400 . S
C1293 C1294 1.398 . S
C1294 H1282 0.950 . S
C1294 C1293 1.398 . S
C1294 C1295 1.391 . S
C1295 H1283 0.950 . S
C1295 C1291 1.393 . S
C1295 C1294 1.391 . S
C345 C219 1.252 . S
C351 C9 1.254 . S
C365 C23 1.239 . S
C371 C233 1.267 . S
C385 C37 1.267 . S
C391 C247 1.238 . S
C405 C51 1.238 . S
C411 C177 1.268 . S
C425 C191 1.248 . S
C431 C65 1.258 . S
C445 C79 1.261 . S
C451 C205 1.245 . S
C465 C303 1.242 . S
C471 C93 1.264 . S
C485 C107 1.240 . S
C491 C317 1.265 . S
C505 C121 1.261 . S
C511 C331 1.245 . S
C525 C261 1.238 . S
C531 C135 1.268 . S
C545 C149 1.237 . S
C551 C275 1.268 . S
C565 C289 1.259 . S
C571 C163 1.247 . S
C585 C3 1.591 . S
C591 C325 1.593 . S
C605 C255 1.592 . S
C611 C17 1.591 . S
C625 C31 1.592 . S
C631 C269 1.591 . S
C645 C283 1.591 . S
C651 C45 1.593 . S
C665 C59 1.591 . S
C671 C297 1.593 . S
C685 C311 1.591 . S
C691 C73 1.593 . S
C705 C87 1.591 . S
C711 C185 1.592 . S
C725 C199 1.593 . S
C731 C101 1.591 . S
C745 C213 1.591 . S
C751 C115 1.592 . S
C765 C227 1.592 . S
C771 C129 1.591 . S
C785 C143 1.592 . S
C791 C241 1.592 . S
C805 C157 1.591 . S
C811 C171 1.593 . S
C825 C106 1.283 . S
C831 C8 1.286 . S
C845 C120 1.276 . S
C851 C22 1.270 . S
C865 C134 1.278 . S
C871 C36 1.284 . S
C885 C148 1.283 . S
C891 C50 1.286 . S
C905 C64 1.270 . S
C911 C162 1.275 . S
C925 C78 1.281 . S
C931 C92 1.286 . S
C945 C176 1.284 . S
C951 C274 1.286 . S
C965 C190 1.281 . S
C971 C288 1.286 . S
C985 C302 1.285 . S
C991 C204 1.286 . S
C1005 C316 1.269 . S
C1011 C218 1.271 . S
C1025 C330 1.286 . S
C1031 C232 1.285 . S
C1045 C260 1.278 . S
C1051 C246 1.284 . S
C1065 C7 1.565 . S
C1071 C273 1.584 . S
C1085 C287 1.582 . S
C1091 C21 1.568 . S
C1105 C35 1.579 . S
C1111 C301 1.570 . S
C1125 C315 1.580 . S
C1131 C49 1.569 . S
C1145 C63 1.572 . S
C1151 C329 1.577 . S
C1165 C259 1.565 . S
C1171 C77 1.584 . S
C1185 C91 1.565 . S
C1191 C245 1.584 . S
C1205 C175 1.567 . S
C1211 C105 1.583 . S
C1225 C119 1.570 . S
C1231 C189 1.580 . S
C1245 C133 1.578 . S
C1251 C203 1.571 . S
C1265 C147 1.565 . S
C1271 C217 1.584 . S
C1285 C161 1.566 . S
C1291 C231 1.583 . S
