# Generated by pormake.
# Topology ume, (4)-cn, num edge types: 1
# Building blocks:
#     Node 0, Type 0, BuildingBlock: QUQFOY_clean_sbu_3, # of connection points: 4
#     Node 1, Type 0, BuildingBlock: QUQFOY_clean_sbu_3, # of connection points: 4
#     Node 2, Type 0, BuildingBlock: QUQFOY_clean_sbu_3, # of connection points: 4
#     Node 3, Type 0, BuildingBlock: QUQFOY_clean_sbu_3, # of connection points: 4
#     Node 4, Type 0, BuildingBlock: QUQFOY_clean_sbu_3, # of connection points: 4
#     Node 5, Type 0, BuildingBlock: QUQFOY_clean_sbu_3, # of connection points: 4
#     Node 6, Type 0, BuildingBlock: QUQFOY_clean_sbu_3, # of connection points: 4
#     Node 7, Type 0, BuildingBlock: QUQFOY_clean_sbu_3, # of connection points: 4
#     Node 8, Type 0, BuildingBlock: QUQFOY_clean_sbu_3, # of connection points: 4
#     Node 9, Type 0, BuildingBlock: QUQFOY_clean_sbu_3, # of connection points: 4
#     Node 10, Type 0, BuildingBlock: QUQFOY_clean_sbu_3, # of connection points: 4
#     Node 11, Type 0, BuildingBlock: QUQFOY_clean_sbu_3, # of connection points: 4
#     Node 12, Type 0, BuildingBlock: QUQFOY_clean_sbu_3, # of connection points: 4
#     Node 13, Type 0, BuildingBlock: QUQFOY_clean_sbu_3, # of connection points: 4
#     Node 14, Type 0, BuildingBlock: QUQFOY_clean_sbu_3, # of connection points: 4
#     Node 15, Type 0, BuildingBlock: QUQFOY_clean_sbu_3, # of connection points: 4
#     Edge 16, Type (0, 0), BuildingBlock: UVAHIK_clean_linker_0, # of connection points: 2
#     Edge 17, Type (0, 0), BuildingBlock: UVAHIK_clean_linker_0, # of connection points: 2
#     Edge 18, Type (0, 0), BuildingBlock: UVAHIK_clean_linker_0, # of connection points: 2
#     Edge 19, Type (0, 0), BuildingBlock: UVAHIK_clean_linker_0, # of connection points: 2
#     Edge 20, Type (0, 0), BuildingBlock: UVAHIK_clean_linker_0, # of connection points: 2
#     Edge 21, Type (0, 0), BuildingBlock: UVAHIK_clean_linker_0, # of connection points: 2
#     Edge 22, Type (0, 0), BuildingBlock: UVAHIK_clean_linker_0, # of connection points: 2
#     Edge 23, Type (0, 0), BuildingBlock: UVAHIK_clean_linker_0, # of connection points: 2
#     Edge 24, Type (0, 0), BuildingBlock: UVAHIK_clean_linker_0, # of connection points: 2
#     Edge 25, Type (0, 0), BuildingBlock: UVAHIK_clean_linker_0, # of connection points: 2
#     Edge 26, Type (0, 0), BuildingBlock: UVAHIK_clean_linker_0, # of connection points: 2
#     Edge 27, Type (0, 0), BuildingBlock: UVAHIK_clean_linker_0, # of connection points: 2
#     Edge 28, Type (0, 0), BuildingBlock: UVAHIK_clean_linker_0, # of connection points: 2
#     Edge 29, Type (0, 0), BuildingBlock: UVAHIK_clean_linker_0, # of connection points: 2
#     Edge 30, Type (0, 0), BuildingBlock: UVAHIK_clean_linker_0, # of connection points: 2
#     Edge 31, Type (0, 0), BuildingBlock: UVAHIK_clean_linker_0, # of connection points: 2
#     Edge 32, Type (0, 0), BuildingBlock: UVAHIK_clean_linker_0, # of connection points: 2
#     Edge 33, Type (0, 0), BuildingBlock: UVAHIK_clean_linker_0, # of connection points: 2
#     Edge 34, Type (0, 0), BuildingBlock: UVAHIK_clean_linker_0, # of connection points: 2
#     Edge 35, Type (0, 0), BuildingBlock: UVAHIK_clean_linker_0, # of connection points: 2
#     Edge 36, Type (0, 0), BuildingBlock: UVAHIK_clean_linker_0, # of connection points: 2
#     Edge 37, Type (0, 0), BuildingBlock: UVAHIK_clean_linker_0, # of connection points: 2
#     Edge 38, Type (0, 0), BuildingBlock: UVAHIK_clean_linker_0, # of connection points: 2
#     Edge 39, Type (0, 0), BuildingBlock: UVAHIK_clean_linker_0, # of connection points: 2
#     Edge 40, Type (0, 0), BuildingBlock: UVAHIK_clean_linker_0, # of connection points: 2
#     Edge 41, Type (0, 0), BuildingBlock: UVAHIK_clean_linker_0, # of connection points: 2
#     Edge 42, Type (0, 0), BuildingBlock: UVAHIK_clean_linker_0, # of connection points: 2
#     Edge 43, Type (0, 0), BuildingBlock: UVAHIK_clean_linker_0, # of connection points: 2
#     Edge 44, Type (0, 0), BuildingBlock: UVAHIK_clean_linker_0, # of connection points: 2
#     Edge 45, Type (0, 0), BuildingBlock: UVAHIK_clean_linker_0, # of connection points: 2
#     Edge 46, Type (0, 0), BuildingBlock: UVAHIK_clean_linker_0, # of connection points: 2
#     Edge 47, Type (0, 0), BuildingBlock: UVAHIK_clean_linker_0, # of connection points: 2
# Relax obj value: 0.095
# Max RMSD: 0.142
# Mean RMSD: 0.142
data_MOF--net-ume--node1-QUQFOY_clean_sbu_3--edge1-UVAHIK_clean_linker_0
_symmetry_space_group_name_H-M    P1
_symmetry_Int_Tables_number       1
_symmetry_cell_setting            triclinic
loop_
_symmetry_equiv_pos_as_xyz
'x, y, z'
_cell_length_a     35.681526
_cell_length_b     35.683233
_cell_length_c     145.37064
_cell_angle_alpha  89.977739
_cell_angle_beta   89.981248
_cell_angle_gamma 89.987222
loop_
_atom_site_label
_atom_site_type_symbol
_atom_site_fract_x
_atom_site_fract_y
_atom_site_fract_z
_atom_type_partial_charge
C0 C 0.257 0.22042 0.28591 0.0
O1 O 0.28199 0.23292 0.29131 0.0
Cd2 Cd 0.30251 0.19681 0.30432 0.0
O3 O 0.24313 0.18793 0.28707 0.0
Cd4 Cd 0.24728 0.13366 0.29743 0.0
C5 C 0.34037 0.11947 0.29384 0.0
O6 O 0.24778 0.17042 0.31163 0.0
O7 O 0.25549 0.11055 0.31294 0.0
O8 O 0.18029 0.12876 0.29474 0.0
C9 C 0.2511 0.14203 0.31682 0.0
O10 O 0.34546 0.1496 0.29835 0.0
C11 C 0.18033 0.09427 0.29265 0.0
O12 O 0.30738 0.10781 0.29209 0.0
O13 O 0.21189 0.07775 0.29267 0.0
C14 C 0.78363 0.75735 0.53643 0.0
O15 O 0.77335 0.78327 0.54185 0.0
Cd16 Cd 0.81167 0.8025 0.55457 0.0
O17 O 0.81532 0.74146 0.53738 0.0
Cd18 Cd 0.87117 0.74241 0.5473 0.0
C19 C 0.88993 0.83452 0.54323 0.0
O20 O 0.8357 0.74636 0.56161 0.0
O21 O 0.89597 0.74978 0.56274 0.0
O22 O 0.87144 0.67529 0.54447 0.0
C23 C 0.86442 0.74835 0.56672 0.0
O24 O 0.8609 0.84165 0.54802 0.0
C25 C 0.90592 0.67299 0.54243 0.0
O26 O 0.89929 0.80078 0.54149 0.0
O27 O 0.9246 0.70331 0.54255 0.0
C28 C 0.25115 0.28222 0.78586 0.0
O29 O 0.22805 0.26812 0.79153 0.0
Cd30 Cd 0.20688 0.30375 0.80459 0.0
O31 O 0.26405 0.31504 0.78713 0.0
Cd32 Cd 0.26247 0.36703 0.79815 0.0
C33 C 0.16993 0.38304 0.79463 0.0
O34 O 0.26187 0.32841 0.81206 0.0
O35 O 0.25437 0.38809 0.81386 0.0
O36 O 0.32944 0.3711 0.79533 0.0
C37 C 0.25873 0.35608 0.81748 0.0
O38 O 0.16423 0.35243 0.79891 0.0
C39 C 0.32987 0.40592 0.79357 0.0
O40 O 0.20316 0.39424 0.793 0.0
O41 O 0.2986 0.42294 0.79385 0.0
C42 C 0.72737 0.76102 0.03618 0.0
O43 O 0.74032 0.73518 0.04127 0.0
Cd44 Cd 0.70358 0.71123 0.0539 0.0
O45 O 0.69485 0.77432 0.03763 0.0
Cd46 Cd 0.64129 0.76916 0.04806 0.0
C47 C 0.62522 0.67784 0.0429 0.0
O48 O 0.67735 0.76333 0.06233 0.0
O49 O 0.61733 0.75563 0.06323 0.0
O50 O 0.63772 0.83686 0.04666 0.0
C51 C 0.64859 0.75816 0.06731 0.0
O52 O 0.65518 0.67077 0.04734 0.0
C53 C 0.60348 0.83801 0.04434 0.0
O54 O 0.61455 0.71153 0.04166 0.0
O55 O 0.58645 0.80684 0.04373 0.0
C56 C 0.24666 0.27712 0.94743 0.0
O57 O 0.27274 0.26338 0.94254 0.0
Cd58 Cd 0.29754 0.29857 0.92974 0.0
O59 O 0.23355 0.30944 0.94565 0.0
Cd60 Cd 0.23877 0.36153 0.93479 0.0
C61 C 0.32956 0.37894 0.94019 0.0
O62 O 0.24607 0.32352 0.92088 0.0
O63 O 0.25333 0.38345 0.91951 0.0
O64 O 0.17104 0.36312 0.93598 0.0
C65 C 0.25158 0.3516 0.91568 0.0
O66 O 0.33696 0.34831 0.93607 0.0
C67 C 0.16851 0.39767 0.93792 0.0
O68 O 0.29576 0.38974 0.94121 0.0
O69 O 0.19901 0.41598 0.93839 0.0
C70 C 0.71684 0.74322 0.19715 0.0
O71 O 0.73094 0.76898 0.19222 0.0
Cd72 Cd 0.6956 0.79468 0.17957 0.0
O73 O 0.68393 0.73125 0.19556 0.0
Cd74 Cd 0.63099 0.739 0.18505 0.0
C75 C 0.61788 0.83083 0.19028 0.0
O76 O 0.66896 0.74299 0.17106 0.0
O77 O 0.60929 0.75192 0.16961 0.0
O78 O 0.62557 0.67163 0.18684 0.0
C79 C 0.64105 0.74826 0.16581 0.0
O80 O 0.64833 0.83696 0.18596 0.0
C81 C 0.59092 0.6714 0.18878 0.0
O82 O 0.60601 0.79748 0.19142 0.0
O83 O 0.57443 0.70296 0.18899 0.0
C84 C 0.24015 0.22209 0.44589 0.0
O85 O 0.21477 0.23423 0.44055 0.0
Cd86 Cd 0.19294 0.19746 0.42781 0.0
O87 O 0.25411 0.18959 0.44479 0.0
Cd88 Cd 0.25016 0.13451 0.43467 0.0
C89 C 0.15765 0.12015 0.43902 0.0
O90 O 0.247 0.17058 0.42041 0.0
O91 O 0.24005 0.1106 0.41928 0.0
O92 O 0.31735 0.13203 0.43716 0.0
C93 C 0.24292 0.14205 0.4153 0.0
O94 O 0.15192 0.14998 0.43443 0.0
C95 C 0.31888 0.09739 0.43906 0.0
O96 O 0.19088 0.10861 0.44058 0.0
O97 O 0.28805 0.07954 0.43902 0.0
C98 C 0.77941 0.75368 0.69662 0.0
O99 O 0.76444 0.72871 0.69162 0.0
Cd100 Cd 0.80015 0.70195 0.67917 0.0
O101 O 0.81281 0.76436 0.6951 0.0
Cd102 Cd 0.86561 0.75526 0.68459 0.0
C103 C 0.87623 0.66389 0.69022 0.0
O104 O 0.82898 0.7517 0.67034 0.0
O105 O 0.88832 0.73966 0.66945 0.0
O106 O 0.87107 0.82264 0.68597 0.0
C107 C 0.85742 0.74487 0.66536 0.0
O108 O 0.8456 0.65873 0.68592 0.0
C109 C 0.90569 0.82315 0.68793 0.0
O110 O 0.88947 0.69678 0.69124 0.0
O111 O 0.92223 0.79165 0.68838 0.0
C112 C 0.76121 0.71557 0.7862 0.0
O113 O 0.78412 0.72998 0.79186 0.0
Cd114 Cd 0.80796 0.69313 0.80443 0.0
O115 O 0.74984 0.68209 0.78731 0.0
Cd116 Cd 0.75354 0.62864 0.79789 0.0
C117 C 0.84577 0.61566 0.79365 0.0
O118 O 0.75517 0.66513 0.81214 0.0
O119 O 0.7645 0.60543 0.81328 0.0
O120 O 0.68655 0.626 0.79536 0.0
C121 C 0.7602 0.63674 0.81725 0.0
O122 O 0.85069 0.64622 0.79802 0.0
C123 C 0.68506 0.59133 0.7935 0.0
O124 O 0.81287 0.60313 0.79218 0.0
O125 O 0.71587 0.57343 0.79362 0.0
C126 C 0.29527 0.26884 0.0367 0.0
O127 O 0.28079 0.2919 0.04231 0.0
Cd128 Cd 0.31821 0.31657 0.05465 0.0
O129 O 0.32898 0.25805 0.03774 0.0
Cd130 Cd 0.38297 0.26317 0.04811 0.0
C131 C 0.39425 0.35525 0.04349 0.0
O132 O 0.3463 0.26366 0.06233 0.0
O133 O 0.40585 0.27357 0.0636 0.0
O134 O 0.38603 0.1965 0.04519 0.0
C135 C 0.37453 0.26827 0.06751 0.0
O136 O 0.36385 0.35996 0.04794 0.0
C137 C 0.42097 0.19514 0.04364 0.0
O138 O 0.40727 0.32248 0.04214 0.0
O139 O 0.43883 0.22591 0.04408 0.0
C140 C 0.74612 0.78508 0.28634 0.0
O141 O 0.72292 0.77172 0.29209 0.0
Cd142 Cd 0.70159 0.80926 0.3048 0.0
O143 O 0.75891 0.81809 0.28735 0.0
Cd144 Cd 0.75752 0.87184 0.29785 0.0
C145 C 0.66505 0.88756 0.2942 0.0
O146 O 0.75675 0.83476 0.312 0.0
O147 O 0.75007 0.89468 0.31344 0.0
O148 O 0.82418 0.87355 0.29464 0.0
C149 C 0.75392 0.86299 0.31725 0.0
O150 O 0.65942 0.85744 0.2987 0.0
C151 C 0.82588 0.90836 0.29293 0.0
O152 O 0.69827 0.89866 0.29248 0.0
O153 O 0.79537 0.92665 0.29342 0.0
C154 C 0.21921 0.24381 0.5358 0.0
O155 O 0.23171 0.21895 0.54124 0.0
Cd156 Cd 0.19483 0.1975 0.55402 0.0
O157 O 0.18637 0.25707 0.5368 0.0
Cd158 Cd 0.1312 0.25171 0.54686 0.0
C159 C 0.11943 0.15846 0.54297 0.0
O160 O 0.16703 0.25181 0.5612 0.0
O161 O 0.10725 0.2431 0.56231 0.0
O162 O 0.12555 0.31853 0.54398 0.0
C163 C 0.13842 0.24811 0.5663 0.0
O164 O 0.14919 0.15382 0.54766 0.0
C165 C 0.09101 0.3181 0.54194 0.0
O166 O 0.1072 0.19127 0.54124 0.0
O167 O 0.0748 0.28639 0.54207 0.0
C168 C 0.75276 0.78558 0.44662 0.0
O169 O 0.77873 0.77377 0.4414 0.0
Cd170 Cd 0.80064 0.80948 0.42846 0.0
O171 O 0.73805 0.81764 0.44534 0.0
Cd172 Cd 0.74229 0.87181 0.43494 0.0
C173 C 0.83472 0.88797 0.43924 0.0
O174 O 0.74653 0.83498 0.42081 0.0
O175 O 0.75338 0.8949 0.4195 0.0
O176 O 0.67472 0.8762 0.43691 0.0
C177 C 0.75085 0.86323 0.41562 0.0
O178 O 0.84128 0.85822 0.43468 0.0
C179 C 0.67422 0.9107 0.43901 0.0
O180 O 0.80117 0.89842 0.44083 0.0
O181 O 0.70566 0.92738 0.4393 0.0
C182 C 0.20868 0.25698 0.69609 0.0
O183 O 0.22239 0.28344 0.69133 0.0
Cd184 Cd 0.18626 0.30973 0.67889 0.0
O185 O 0.17605 0.24454 0.69438 0.0
Cd186 Cd 0.12323 0.2517 0.68381 0.0
C187 C 0.10718 0.34202 0.68982 0.0
O188 O 0.16105 0.25878 0.66987 0.0
O189 O 0.10119 0.26666 0.66852 0.0
O190 O 0.12152 0.18408 0.68511 0.0
C191 C 0.13297 0.26429 0.66468 0.0
O192 O 0.13758 0.34945 0.68561 0.0
C193 C 0.08682 0.18156 0.68688 0.0
O194 O 0.09609 0.30826 0.69068 0.0
O195 O 0.06842 0.21204 0.68721 0.0
C196 C 0.73998 0.70861 0.94684 0.0
O197 O 0.71712 0.72356 0.94125 0.0
Cd198 Cd 0.69233 0.68781 0.92863 0.0
O199 O 0.75068 0.67492 0.94568 0.0
Cd200 Cd 0.74491 0.62209 0.93495 0.0
C201 C 0.65231 0.61126 0.93921 0.0
O202 O 0.74517 0.65996 0.9209 0.0
O203 O 0.7345 0.60067 0.91934 0.0
O204 O 0.81175 0.61641 0.93759 0.0
C205 C 0.74033 0.6322 0.91559 0.0
O206 O 0.64801 0.64204 0.9349 0.0
C207 C 0.81172 0.58148 0.93918 0.0
O208 O 0.68496 0.59799 0.94061 0.0
O209 O 0.78016 0.56499 0.93893 0.0
C210 C 0.28357 0.23566 0.19602 0.0
O211 O 0.27209 0.20997 0.19069 0.0
Cd212 Cd 0.3109 0.18822 0.17829 0.0
O213 O 0.31611 0.24968 0.19507 0.0
Cd214 Cd 0.3721 0.24558 0.18527 0.0
C215 C 0.3871 0.15373 0.19003 0.0
O216 O 0.33769 0.2422 0.17075 0.0
O217 O 0.39782 0.2353 0.17008 0.0
O218 O 0.37331 0.31277 0.18773 0.0
C219 C 0.36692 0.2385 0.16586 0.0
O220 O 0.35777 0.14754 0.18529 0.0
C221 C 0.40778 0.31487 0.18977 0.0
O222 O 0.39822 0.18711 0.19154 0.0
O223 O 0.42615 0.28435 0.18983 0.0
C224 C 0.86496 0.96584 0.29037 0.0
C225 C 0.86208 0.92663 0.29085 0.0
C226 C 0.89987 0.98293 0.2891 0.0
C227 C 1.00039 0.96436 0.29269 0.0
H228 H 0.01371 0.05502 0.27835 0.0
C229 C 0.14477 0.0353 0.28921 0.0
C230 C 0.14501 0.07424 0.29063 0.0
C231 C 0.11091 0.01623 0.28796 0.0
C232 C 0.01036 0.02977 0.28241 0.0
H233 H 0.89322 0.87452 0.28997 0.0
H234 H 0.95385 0.90424 0.28762 0.0
H235 H 0.95286 0.02365 0.27845 0.0
H236 H 0.11009 0.12389 0.29156 0.0
H237 H 0.05117 0.09064 0.28945 0.0
H238 H 0.05761 0.97072 0.29676 0.0
C239 C 0.92936 0.92187 0.28842 0.0
C240 C 0.97552 0.01185 0.28248 0.0
C241 C 0.89455 0.90484 0.28972 0.0
C242 C 0.11085 0.09386 0.2905 0.0
C243 C 0.07707 0.07484 0.28922 0.0
C244 C 0.03519 0.9822 0.2926 0.0
C245 C 0.93255 0.96111 0.28826 0.0
C246 C 0.97003 0.97915 0.2877 0.0
C247 C 0.07666 0.03575 0.28808 0.0
C248 C 0.04047 0.01534 0.28755 0.0
H249 H 0.84042 0.98338 0.29122 0.0
H250 H 0.90138 0.01324 0.28911 0.0
H251 H 0.99699 0.93959 0.29692 0.0
H252 H 0.17065 0.01943 0.28924 0.0
H253 H 0.11152 0.98615 0.28699 0.0
C254 C 0.90132 0.60403 0.53965 0.0
C255 C 0.92351 0.63643 0.54035 0.0
C256 C 0.91788 0.56899 0.53832 0.0
C257 C 0.00657 0.52196 0.53155 0.0
H258 H 0.96777 0.44084 0.54654 0.0
C259 C 0.09002 0.38739 0.53945 0.0
C260 C 0.07058 0.35319 0.53989 0.0
C261 C 0.0707 0.42102 0.53818 0.0
C262 C 0.97857 0.46298 0.54219 0.0
H263 H 0.98041 0.65767 0.53996 0.0
H264 H 0.00945 0.59638 0.5378 0.0
H265 H 0.93676 0.50153 0.54678 0.0
H266 H 0.01573 0.32728 0.53904 0.0
H267 H 0.9819 0.38617 0.53681 0.0
H268 H 0.04902 0.48345 0.52715 0.0
C269 C 0.97918 0.59809 0.53814 0.0
C270 C 0.96078 0.49783 0.54232 0.0
C271 C 0.96257 0.63321 0.53944 0.0
C272 C 0.03147 0.3532 0.53877 0.0
C273 C 0.0121 0.38692 0.53753 0.0
C274 C 0.02445 0.48708 0.53144 0.0
C275 C 0.95705 0.5655 0.53771 0.0
C276 C 0.97478 0.52787 0.53708 0.0
C277 C 0.03148 0.42124 0.53735 0.0
C278 C 0.01088 0.45734 0.53684 0.0
H279 H 0.8711 0.60561 0.54025 0.0
H280 H 0.89997 0.54457 0.53784 0.0
H281 H 0.01772 0.54432 0.52732 0.0
H282 H 0.12018 0.38833 0.54028 0.0
H283 H 0.08642 0.44698 0.53818 0.0
C284 C 0.64618 0.53364 0.79101 0.0
C285 C 0.64882 0.57284 0.79161 0.0
C286 C 0.61127 0.51639 0.78988 0.0
C287 C 0.51095 0.53416 0.79406 0.0
H288 H 0.49659 0.44496 0.77925 0.0
C289 C 0.36602 0.46479 0.79047 0.0
C290 C 0.36539 0.42572 0.79164 0.0
C291 C 0.40004 0.48362 0.78929 0.0
C292 C 0.50024 0.46978 0.78344 0.0
H293 H 0.61723 0.62477 0.79111 0.0
H294 H 0.55664 0.59479 0.789 0.0
H295 H 0.55753 0.47617 0.77932 0.0
H296 H 0.39977 0.3756 0.79219 0.0
H297 H 0.45902 0.40844 0.7902 0.0
H298 H 0.45394 0.52758 0.79828 0.0
C299 C 0.58131 0.57728 0.7896 0.0
C300 C 0.53514 0.48761 0.7835 0.0
C301 C 0.6161 0.59447 0.79076 0.0
C302 C 0.39932 0.40574 0.79132 0.0
C303 C 0.43328 0.42453 0.79012 0.0
C304 C 0.47611 0.51642 0.79399 0.0
C305 C 0.57837 0.53803 0.78931 0.0
C306 C 0.54096 0.51985 0.78886 0.0
C307 C 0.43408 0.46373 0.78922 0.0
C308 C 0.47044 0.48385 0.78875 0.0
H309 H 0.67093 0.51625 0.79164 0.0
H310 H 0.60995 0.48608 0.78977 0.0
H311 H 0.51463 0.55853 0.7984 0.0
H312 H 0.34032 0.48094 0.79064 0.0
H313 H 0.39974 0.5138 0.7885 0.0
C314 C 0.479 0.15615 0.04179 0.0
C315 C 0.43974 0.15901 0.04179 0.0
C316 C 0.49632 0.1212 0.04079 0.0
C317 C 0.4767 0.02072 0.04424 0.0
H318 H 0.56999 0.00666 0.031 0.0
C319 C 0.54573 0.87537 0.04083 0.0
C320 C 0.58437 0.87411 0.04264 0.0
C321 C 0.52756 0.90976 0.03966 0.0
C322 C 0.54401 0.01024 0.03476 0.0
H323 H 0.38788 0.12786 0.04029 0.0
H324 H 0.41802 0.06723 0.03838 0.0
H325 H 0.53928 0.06786 0.03079 0.0
H326 H 0.63446 0.90782 0.04443 0.0
H327 H 0.60273 0.96771 0.04246 0.0
H328 H 0.48157 0.96332 0.04829 0.0
C329 C 0.43548 0.09172 0.03937 0.0
C330 C 0.52647 0.04528 0.03465 0.0
C331 C 0.41821 0.12653 0.04042 0.0
C332 C 0.60463 0.90784 0.04305 0.0
C333 C 0.58651 0.94218 0.04186 0.0
C334 C 0.49416 0.98573 0.04433 0.0
C335 C 0.4747 0.08851 0.03973 0.0
C336 C 0.49274 0.05099 0.03945 0.0
C337 C 0.54771 0.94354 0.04026 0.0
C338 C 0.52816 0.98017 0.03965 0.0
H339 H 0.49631 0.18071 0.04284 0.0
H340 H 0.52659 0.11967 0.04118 0.0
H341 H 0.45113 0.02428 0.04816 0.0
H342 H 0.5294 0.84983 0.04043 0.0
H343 H 0.49769 0.90992 0.03834 0.0
C344 C 0.12848 0.45443 0.94061 0.0
C345 C 0.13162 0.41548 0.93944 0.0
C346 C 0.09327 0.4711 0.94169 0.0
C347 C 0.99321 0.45398 0.9368 0.0
H348 H 0.9776 0.53827 0.95319 0.0
C349 C 0.84768 0.52176 0.9414 0.0
C350 C 0.8471 0.56106 0.94087 0.0
C351 C 0.8817 0.50261 0.9423 0.0
C352 C 0.9816 0.51483 0.94856 0.0
H353 H 0.10046 0.36334 0.93877 0.0
H354 H 0.03928 0.39228 0.94079 0.0
H355 H 0.03873 0.50754 0.95269 0.0
H356 H 0.88154 0.61117 0.94117 0.0
H357 H 0.9407 0.57781 0.9427 0.0
H358 H 0.93627 0.46147 0.9326 0.0
C359 C 0.06386 0.41009 0.94069 0.0
C360 C 0.01662 0.4973 0.94826 0.0
C361 C 0.09897 0.39348 0.93957 0.0
C362 C 0.88104 0.58085 0.94155 0.0
C363 C 0.91496 0.56175 0.94248 0.0
C364 C 0.95821 0.47141 0.93713 0.0
C365 C 0.06052 0.44913 0.94165 0.0
C366 C 0.02293 0.46688 0.94231 0.0
C367 C 0.91573 0.52241 0.94273 0.0
C368 C 0.95212 0.50226 0.94293 0.0
H369 H 0.15315 0.47212 0.94053 0.0
H370 H 0.09166 0.5013 0.94231 0.0
H371 H 0.99725 0.43102 0.93203 0.0
H372 H 0.82197 0.50574 0.94093 0.0
H373 H 0.8814 0.47227 0.94258 0.0
C374 C 0.46477 0.35471 0.19227 0.0
C375 C 0.42564 0.35148 0.19161 0.0
C376 C 0.48151 0.38991 0.19328 0.0
C377 C 0.46246 0.48981 0.18873 0.0
H378 H 0.55205 0.50571 0.2033 0.0
C379 C 0.53184 0.63533 0.19179 0.0
C380 C 0.57088 0.63585 0.19054 0.0
C381 C 0.51297 0.60134 0.19302 0.0
C382 C 0.5271 0.50163 0.19917 0.0
H383 H 0.37326 0.38234 0.19192 0.0
H384 H 0.40235 0.4435 0.19386 0.0
H385 H 0.52117 0.44464 0.20356 0.0
H386 H 0.62086 0.60131 0.18982 0.0
H387 H 0.58795 0.54217 0.19191 0.0
H388 H 0.46858 0.54659 0.18426 0.0
C389 C 0.42021 0.41904 0.19338 0.0
C390 C 0.50947 0.46665 0.19931 0.0
C391 C 0.40353 0.38394 0.19232 0.0
C392 C 0.59075 0.60185 0.19075 0.0
C393 C 0.57193 0.56795 0.19202 0.0
C394 C 0.47999 0.52477 0.18862 0.0
C395 C 0.45942 0.42255 0.1937 0.0
C396 C 0.47715 0.46022 0.19401 0.0
C397 C 0.5328 0.56727 0.19307 0.0
C398 C 0.51274 0.53095 0.19376 0.0
H399 H 0.48254 0.33018 0.19174 0.0
H400 H 0.51181 0.39163 0.19342 0.0
H401 H 0.438 0.48568 0.18444 0.0
H402 H 0.51579 0.66109 0.19169 0.0
H403 H 0.48283 0.6017 0.1939 0.0
C404 C 0.388 0.10026 0.44168 0.0
C405 C 0.35516 0.07878 0.44088 0.0
C406 C 0.42278 0.08291 0.44276 0.0
C407 C 0.46863 0.99262 0.44865 0.0
H408 H 0.55021 0.03312 0.43408 0.0
C409 C 0.60449 0.91071 0.44075 0.0
C410 C 0.63852 0.93055 0.44074 0.0
C411 C 0.57048 0.92954 0.44187 0.0
C412 C 0.52791 0.02179 0.4383 0.0
H413 H 0.3329 0.02227 0.44083 0.0
H414 H 0.39379 0.99183 0.44255 0.0
H415 H 0.48962 0.06436 0.43401 0.0
H416 H 0.66364 0.98559 0.44211 0.0
H417 H 0.60413 0.01854 0.44406 0.0
H418 H 0.50695 0.94948 0.45275 0.0
C419 C 0.3926 0.02216 0.44247 0.0
C420 C 0.49313 0.0397 0.43827 0.0
C421 C 0.35771 0.03957 0.44144 0.0
C422 C 0.63788 0.96954 0.44206 0.0
C423 C 0.60381 0.98842 0.44313 0.0
C424 C 0.50344 0.97459 0.44865 0.0
C425 C 0.42561 0.04363 0.44301 0.0
C426 C 0.46298 0.02523 0.4434 0.0
C427 C 0.56971 0.96866 0.44295 0.0
C428 C 0.53338 0.98885 0.44342 0.0
H429 H 0.38694 0.13058 0.44136 0.0
H430 H 0.44752 0.10033 0.44333 0.0
H431 H 0.44618 0.98104 0.45278 0.0
H432 H 0.60403 0.88063 0.43976 0.0
H433 H 0.54469 0.91357 0.44159 0.0
C434 C 0.09115 0.11218 0.68882 0.0
C435 C 0.06897 0.14467 0.68835 0.0
C436 C 0.0746 0.07702 0.68986 0.0
C437 C 0.98631 0.02956 0.69656 0.0
H438 H 0.026 0.94855 0.68167 0.0
C439 C 0.90544 0.89282 0.68949 0.0
C440 C 0.9256 0.85898 0.68937 0.0
C441 C 0.92405 0.927 0.69039 0.0
C442 C 0.01495 0.97071 0.68598 0.0
H443 H 0.01206 0.16587 0.68875 0.0
H444 H 0.98299 0.10427 0.69039 0.0
H445 H 0.05599 0.00978 0.68124 0.0
H446 H 0.98102 0.83435 0.69032 0.0
H447 H 0.01366 0.89429 0.69187 0.0
H448 H 0.9447 0.9905 0.70113 0.0
C449 C 0.01326 0.10606 0.6901 0.0
C450 C 0.03212 0.00584 0.68574 0.0
C451 C 0.02988 0.14133 0.6891 0.0
C452 C 0.96475 0.85998 0.69036 0.0
C453 C 0.98343 0.89427 0.69121 0.0
C454 C 0.96903 0.99442 0.69678 0.0
C455 C 0.03544 0.07345 0.6904 0.0
C456 C 0.01786 0.03577 0.69097 0.0
C457 C 0.96327 0.92815 0.69115 0.0
C458 C 0.983 0.96472 0.69143 0.0
H459 H 0.1214 0.11384 0.68835 0.0
H460 H 0.09255 0.05259 0.69024 0.0
H461 H 0.97499 0.05184 0.70079 0.0
H462 H 0.87523 0.893 0.68876 0.0
H463 H 0.90778 0.95262 0.69021 0.0
C464 C 0.63762 0.94879 0.28902 0.0
C465 C 0.63259 0.91102 0.29149 0.0
C466 C 0.60666 0.97197 0.28747 0.0
C467 C 0.50532 0.97298 0.28249 0.0
H468 H 0.5054 0.06466 0.29678 0.0
C469 C 0.37036 0.05805 0.28979 0.0
C470 C 0.37339 0.09691 0.29113 0.0
C471 C 0.40246 0.03624 0.28836 0.0
C472 C 0.50504 0.03966 0.29256 0.0
H473 H 0.59111 0.86754 0.29379 0.0
H474 H 0.53715 0.90798 0.29097 0.0
H475 H 0.5608 0.02515 0.29663 0.0
H476 H 0.41204 0.14375 0.2914 0.0
H477 H 0.46767 0.10614 0.28853 0.0
H478 H 0.44955 0.98748 0.27839 0.0
C479 C 0.56504 0.91963 0.29028 0.0
C480 C 0.53687 0.01693 0.29251 0.0
C481 C 0.59597 0.89655 0.29194 0.0
C482 C 0.40887 0.11377 0.29052 0.0
C483 C 0.44082 0.09211 0.28894 0.0
C484 C 0.47354 0.99601 0.28243 0.0
C485 C 0.57005 0.95776 0.28823 0.0
C486 C 0.53721 0.98313 0.28758 0.0
C487 C 0.43823 0.0529 0.28811 0.0
C488 C 0.4728 0.02946 0.28757 0.0
H489 H 0.66544 0.96083 0.28861 0.0
H490 H 0.61131 0.00122 0.28582 0.0
H491 H 0.50495 0.94717 0.27857 0.0
H492 H 0.3434 0.04424 0.29026 0.0
H493 H 0.39926 0.00614 0.28785 0.0
C494 C 0.95161 0.85996 0.53773 0.0
C495 C 0.91396 0.86599 0.54017 0.0
C496 C 0.97529 0.89034 0.53591 0.0
C497 C 0.97755 0.99137 0.53033 0.0
H498 H 0.06812 0.99216 0.54503 0.0
C499 C 0.05928 0.12733 0.53836 0.0
C500 C 0.098 0.12508 0.54 0.0
C501 C 0.03841 0.09484 0.53666 0.0
C502 C 0.04347 0.99226 0.54069 0.0
H503 H 0.87113 0.90847 0.54208 0.0
H504 H 0.91233 0.96128 0.5388 0.0
H505 H 0.02899 0.93651 0.54478 0.0
H506 H 0.14567 0.08746 0.54052 0.0
H507 H 0.10972 0.03117 0.53719 0.0
H508 H 0.99189 0.0472 0.52624 0.0
C509 C 0.92358 0.93314 0.53834 0.0
C510 C 0.02096 0.96027 0.54058 0.0
C511 C 0.90005 0.90287 0.54028 0.0
C512 C 0.11575 0.09003 0.53941 0.0
C513 C 0.09504 0.05769 0.53756 0.0
C514 C 1.00034 0.0233 0.53034 0.0
C515 C 0.96164 0.92726 0.53635 0.0
C516 C 0.98743 0.95971 0.53554 0.0
C517 C 0.05592 0.05946 0.53643 0.0
C518 C 0.03328 0.02443 0.53566 0.0
H519 H 0.96317 0.8319 0.53758 0.0
H520 H 0.00449 0.88502 0.53433 0.0
H521 H 0.95197 0.99157 0.52631 0.0
H522 H 0.04479 0.15394 0.53881 0.0
H523 H 0.00833 0.09742 0.53594 0.0
C524 C 0.10086 0.39252 0.79242 0.0
C525 C 0.13756 0.40679 0.792 0.0
C526 C 0.07009 0.41577 0.79071 0.0
C527 C 0.04225 0.51335 0.79272 0.0
H528 H 0.95549 0.48376 0.7784 0.0
C529 C 0.91433 0.61026 0.7903 0.0
C530 C 0.8789 0.5933 0.79092 0.0
C531 C 0.94637 0.58864 0.78878 0.0
C532 C 0.97933 0.49234 0.7825 0.0
H533 H 0.17072 0.45644 0.78916 0.0
H534 H 0.1169 0.4971 0.7863 0.0
H535 H 0.0107 0.44324 0.77883 0.0
H536 H 0.8491 0.54048 0.7901 0.0
H537 H 0.90504 0.50253 0.78778 0.0
H538 H 0.01078 0.56139 0.79678 0.0
C539 C 0.11204 0.4679 0.78795 0.0
C540 C 0.01099 0.46918 0.7827 0.0
C541 C 0.14284 0.44455 0.78955 0.0
C542 C 0.87601 0.5544 0.78962 0.0
C543 C 0.90816 0.53265 0.78824 0.0
C544 C 0.01052 0.53624 0.79262 0.0
C545 C 0.07536 0.45387 0.78865 0.0
C546 C 0.04266 0.47936 0.78787 0.0
C547 C 0.94389 0.5494 0.788 0.0
C548 C 0.97848 0.52596 0.78756 0.0
H549 H 0.09581 0.36353 0.79425 0.0
H550 H 0.04212 0.40427 0.79136 0.0
H551 H 0.06602 0.52163 0.79688 0.0
H552 H 0.91741 0.64026 0.79116 0.0
H553 H 0.9732 0.60271 0.78838 0.0
C554 C 0.61517 0.60945 0.03987 0.0
C555 C 0.60128 0.64634 0.03981 0.0
C556 C 0.5915 0.57921 0.038 0.0
C557 C 0.49397 0.55266 0.04056 0.0
H558 H 0.52182 0.46521 0.02629 0.0
C559 C 0.3981 0.42362 0.03976 0.0
C560 C 0.41569 0.3885 0.04042 0.0
C561 C 0.41896 0.45578 0.03781 0.0
C562 C 0.51372 0.48928 0.03036 0.0
H563 H 0.55194 0.68046 0.03734 0.0
H564 H 0.51051 0.62747 0.0342 0.0
H565 H 0.56224 0.52049 0.02619 0.0
H566 H 0.46879 0.35936 0.03924 0.0
H567 H 0.50544 0.41553 0.03618 0.0
H568 H 0.44665 0.5213 0.04514 0.0
C569 C 0.53975 0.62209 0.0357 0.0
C570 C 0.5368 0.52099 0.03026 0.0
C571 C 0.56354 0.6524 0.03746 0.0
C572 C 0.45439 0.38602 0.03875 0.0
C573 C 0.47539 0.41829 0.03694 0.0
C574 C 0.47117 0.52089 0.04076 0.0
C575 C 0.55334 0.58516 0.03613 0.0
C576 C 0.52735 0.55283 0.03545 0.0
C577 C 0.45806 0.45374 0.03663 0.0
C578 C 0.48092 0.48856 0.03575 0.0
H579 H 0.64415 0.60382 0.0416 0.0
H580 H 0.6027 0.55105 0.03845 0.0
H581 H 0.48627 0.57657 0.04475 0.0
H582 H 0.36822 0.42638 0.0409 0.0
H583 H 0.40444 0.48237 0.0374 0.0
C584 C 0.39776 0.38953 0.94335 0.0
C585 C 0.36088 0.40342 0.94314 0.0
C586 C 0.42793 0.41349 0.94505 0.0
C587 C 0.45475 0.51069 0.94166 0.0
H588 H 0.54146 0.48476 0.95642 0.0
C589 C 0.58352 0.60721 0.94247 0.0
C590 C 0.61879 0.58976 0.94209 0.0
C591 C 0.55126 0.58632 0.94432 0.0
C592 C 0.51761 0.49231 0.95221 0.0
H593 H 0.32669 0.45316 0.94496 0.0
H594 H 0.37955 0.4951 0.94783 0.0
H595 H 0.48618 0.44437 0.95666 0.0
H596 H 0.648 0.53685 0.94363 0.0
H597 H 0.59171 0.50016 0.94654 0.0
H598 H 0.48635 0.55747 0.93683 0.0
C599 C 0.38499 0.46562 0.94666 0.0
C600 C 0.48589 0.46924 0.95239 0.0
C601 C 0.35474 0.44155 0.94506 0.0
C602 C 0.62125 0.55116 0.94391 0.0
C603 C 0.5889 0.53014 0.94563 0.0
C604 C 0.48652 0.53349 0.94139 0.0
C605 C 0.42194 0.45195 0.94649 0.0
C606 C 0.45429 0.478 0.94704 0.0
C607 C 0.55337 0.54733 0.94569 0.0
C608 C 0.51859 0.52442 0.94658 0.0
H609 H 0.40347 0.36026 0.94195 0.0
H610 H 0.4561 0.40219 0.94482 0.0
H611 H 0.43106 0.51784 0.93734 0.0
H612 H 0.58072 0.637 0.94122 0.0
H613 H 0.52457 0.60073 0.94453 0.0
C614 C 0.60926 0.89967 0.19305 0.0
C615 C 0.59479 0.86301 0.19336 0.0
C616 C 0.58629 0.93045 0.19495 0.0
C617 C 0.48864 0.958 0.19302 0.0
H618 H 0.519 0.0464 0.20662 0.0
C619 C 0.39239 0.0862 0.19434 0.0
C620 C 0.40943 0.12141 0.19328 0.0
C621 C 0.41392 0.05449 0.19627 0.0
C622 C 0.5102 0.02206 0.20274 0.0
H623 H 0.54521 0.82995 0.19634 0.0
H624 H 0.50506 0.88379 0.19955 0.0
H625 H 0.55929 0.99095 0.20655 0.0
H626 H 0.46221 0.15133 0.19379 0.0
H627 H 0.50011 0.09579 0.19681 0.0
H628 H 0.44067 0.98913 0.1888 0.0
C629 C 0.53418 0.8886 0.19781 0.0
C630 C 0.53322 0.99026 0.20274 0.0
C631 C 0.55725 0.85778 0.19601 0.0
C632 C 0.44829 0.12456 0.1946 0.0
C633 C 0.46999 0.09266 0.19637 0.0
C634 C 0.4659 0.98981 0.19293 0.0
C635 C 0.54827 0.92528 0.19711 0.0
C636 C 0.52278 0.95802 0.19782 0.0
C637 C 0.45316 0.05703 0.19701 0.0
C638 C 0.47645 0.02243 0.19772 0.0
H639 H 0.63811 0.9047 0.19109 0.0
H640 H 0.59787 0.95839 0.19429 0.0
H641 H 0.48017 0.93383 0.18903 0.0
H642 H 0.3624 0.083 0.19349 0.0
H643 H 0.39978 0.0278 0.19698 0.0
C644 C 0.90342 0.89756 0.44189 0.0
C645 C 0.86665 0.91172 0.44216 0.0
C646 C 0.93402 0.92089 0.44366 0.0
C647 C 0.96132 0.01847 0.44142 0.0
H648 H 0.04922 0.98895 0.45533 0.0
C649 C 0.08964 0.11486 0.44289 0.0
C650 C 0.12496 0.09781 0.44205 0.0
C651 C 0.05776 0.09339 0.44468 0.0
C652 C 0.02504 0.99751 0.45136 0.0
H653 H 0.83313 0.96122 0.44489 0.0
H654 H 0.88673 0.0021 0.44789 0.0
H655 H 0.9938 0.94869 0.4553 0.0
H656 H 0.1548 0.04501 0.44278 0.0
H657 H 0.09901 0.00721 0.44558 0.0
H658 H 0.99264 0.06619 0.43708 0.0
C659 C 0.89175 0.97289 0.44628 0.0
C660 C 0.99325 0.97452 0.45138 0.0
C661 C 0.86109 0.94943 0.44461 0.0
C662 C 0.12796 0.05896 0.44342 0.0
C663 C 0.09592 0.03732 0.44507 0.0
C664 C 0.99315 0.04119 0.4413 0.0
C665 C 0.92855 0.959 0.44566 0.0
C666 C 0.96118 0.98463 0.44635 0.0
C667 C 0.06025 0.05418 0.44552 0.0
C668 C 0.02561 0.03092 0.4462 0.0
H669 H 0.90869 0.86859 0.44007 0.0
H670 H 0.96204 0.90946 0.44307 0.0
H671 H 0.93728 0.02668 0.43734 0.0
H672 H 0.08649 0.14484 0.442 0.0
H673 H 0.03101 0.10755 0.44524 0.0
C674 C 0.04559 0.36708 0.69547 0.0
C675 C 0.0833 0.37327 0.6931 0.0
C676 C 0.02188 0.39727 0.69742 0.0
C677 C 0.01934 0.4983 0.70319 0.0
H678 H 0.92811 0.49836 0.68873 0.0
C679 C 0.93658 0.63339 0.69493 0.0
C680 C 0.89776 0.63092 0.69344 0.0
C681 C 0.95764 0.60114 0.69674 0.0
C682 C 0.95296 0.49865 0.693 0.0
H683 H 0.12617 0.4159 0.69148 0.0
H684 H 0.08486 0.46843 0.69493 0.0
H685 H 0.96773 0.44307 0.68886 0.0
H686 H 0.85018 0.59315 0.69333 0.0
H687 H 0.88656 0.53723 0.69682 0.0
H688 H 0.00473 0.55407 0.70727 0.0
C689 C 0.07362 0.44026 0.69526 0.0
C690 C 0.97576 0.46686 0.69305 0.0
C691 C 0.09723 0.41014 0.69322 0.0
C692 C 0.88014 0.5959 0.69432 0.0
C693 C 0.90108 0.56378 0.69626 0.0
C694 C 0.9963 0.53005 0.70322 0.0
C695 C 0.03548 0.43423 0.69715 0.0
C696 C 0.00951 0.46655 0.69801 0.0
C697 C 0.94027 0.56576 0.69722 0.0
C698 C 0.96312 0.53089 0.69799 0.0
H699 H 0.03397 0.33904 0.69547 0.0
H700 H 0.99267 0.39178 0.69895 0.0
H701 H 0.04506 0.4987 0.70715 0.0
H702 H 0.95101 0.65996 0.69426 0.0
H703 H 0.98777 0.60383 0.69734 0.0
C704 C 0.24815 0.11262 0.33236 0.0
C705 C 0.24885 0.14514 0.32692 0.0
C706 C 0.24515 0.1152 0.34189 0.0
C707 C 0.26258 0.17739 0.36135 0.0
H708 H 0.19452 0.11027 0.37407 0.0
C709 C 0.24249 0.18033 0.40086 0.0
C710 C 0.24123 0.14515 0.4052 0.0
C711 C 0.24109 0.18293 0.39127 0.0
C712 C 0.21385 0.12901 0.37062 0.0
H713 H 0.24739 0.20591 0.32719 0.0
H714 H 0.24238 0.21039 0.34394 0.0
H715 H 0.19673 0.11007 0.35732 0.0
H716 H 0.23765 0.08517 0.40293 0.0
H717 H 0.23579 0.08965 0.38625 0.0
H718 H 0.28036 0.19569 0.37467 0.0
C719 C 0.24416 0.18296 0.34078 0.0
C720 C 0.21506 0.12892 0.36104 0.0
C721 C 0.24688 0.18037 0.33121 0.0
C722 C 0.23849 0.11269 0.39979 0.0
C723 C 0.23717 0.11528 0.39023 0.0
C724 C 0.2615 0.17736 0.37096 0.0
C725 C 0.24301 0.15036 0.3462 0.0
C726 C 0.23985 0.15267 0.35632 0.0
C727 C 0.2384 0.1504 0.38586 0.0
C728 C 0.23755 0.15271 0.37569 0.0
H729 H 0.24968 0.08507 0.32925 0.0
H730 H 0.2449 0.08964 0.34591 0.0
H731 H 0.28214 0.19578 0.35787 0.0
H732 H 0.2445 0.20584 0.40486 0.0
H733 H 0.24176 0.21039 0.3881 0.0
C734 C 0.82614 0.75064 0.58114 0.0
C735 C 0.86137 0.74939 0.57683 0.0
C736 C 0.82348 0.7516 0.59073 0.0
C737 C 0.87896 0.77357 0.61149 0.0
H738 H 0.8052 0.71219 0.62405 0.0
C739 C 0.88836 0.74163 0.65001 0.0
C740 C 0.85539 0.74497 0.65523 0.0
C741 C 0.88704 0.74322 0.64044 0.0
C742 C 0.82562 0.72979 0.62062 0.0
H743 H 0.92141 0.74789 0.57916 0.0
H744 H 0.91678 0.74893 0.59585 0.0
H745 H 0.80675 0.71333 0.60724 0.0
H746 H 0.79506 0.75188 0.65452 0.0
H747 H 0.79277 0.75446 0.6377 0.0
H748 H 0.8983 0.78943 0.62485 0.0
C749 C 0.8912 0.74989 0.59184 0.0
C750 C 0.8265 0.73051 0.61101 0.0
C751 C 0.89385 0.74905 0.58228 0.0
C752 C 0.82092 0.74927 0.65067 0.0
C753 C 0.81958 0.75062 0.64106 0.0
C754 C 0.8782 0.7727 0.62107 0.0
C755 C 0.85601 0.75127 0.59618 0.0
C756 C 0.85351 0.75205 0.60635 0.0
C757 C 0.85271 0.748 0.63588 0.0
C758 C 0.85185 0.75045 0.62573 0.0
H759 H 0.80061 0.75104 0.57711 0.0
H760 H 0.79598 0.75304 0.59386 0.0
H761 H 0.89958 0.79108 0.60811 0.0
H762 H 0.91535 0.73817 0.65332 0.0
H763 H 0.91294 0.74054 0.6366 0.0
C764 C 0.26236 0.38326 0.83324 0.0
C765 C 0.26077 0.35153 0.82755 0.0
C766 C 0.26486 0.37928 0.84276 0.0
C767 C 0.24334 0.31567 0.86163 0.0
H768 H 0.31204 0.37923 0.87519 0.0
C769 C 0.25477 0.31236 0.9014 0.0
C770 C 0.25599 0.34771 0.90564 0.0
C771 C 0.25864 0.3092 0.89186 0.0
C772 C 0.29259 0.36142 0.8715 0.0
H773 H 0.26026 0.29074 0.82733 0.0
H774 H 0.2643 0.28383 0.84406 0.0
H775 H 0.31246 0.38041 0.85843 0.0
H776 H 0.26221 0.40743 0.90324 0.0
H777 H 0.26839 0.40198 0.88667 0.0
H778 H 0.22266 0.29753 0.87472 0.0
C779 C 0.26366 0.31172 0.84111 0.0
C780 C 0.29288 0.36207 0.86192 0.0
C781 C 0.26148 0.31569 0.83156 0.0
C782 C 0.26129 0.37976 0.90019 0.0
C783 C 0.26513 0.37662 0.89069 0.0
C784 C 0.24291 0.31514 0.87124 0.0
C785 C 0.26559 0.34351 0.84678 0.0
C786 C 0.26774 0.33981 0.8569 0.0
C787 C 0.26387 0.34134 0.88641 0.0
C788 C 0.26698 0.33865 0.87627 0.0
H789 H 0.26183 0.41125 0.83036 0.0
H790 H 0.26573 0.40427 0.84698 0.0
H791 H 0.22351 0.29839 0.85792 0.0
H792 H 0.2508 0.28716 0.90544 0.0
H793 H 0.2578 0.28163 0.88875 0.0
C794 C 0.6182 0.75169 0.08266 0.0
C795 C 0.65106 0.75516 0.07741 0.0
C796 C 0.62007 0.74901 0.0922 0.0
C797 C 0.68066 0.77002 0.11199 0.0
H798 H 0.61203 0.70325 0.12463 0.0
C799 C 0.68047 0.74737 0.15155 0.0
C800 C 0.64493 0.74862 0.15571 0.0
C801 C 0.68379 0.74687 0.14197 0.0
C802 C 0.63124 0.72212 0.12119 0.0
H803 H 0.7117 0.75841 0.07803 0.0
H804 H 0.71501 0.75324 0.09478 0.0
H805 H 0.61366 0.70386 0.10788 0.0
H806 H 0.58506 0.75066 0.15313 0.0
H807 H 0.5909 0.74969 0.13645 0.0
H808 H 0.69808 0.78828 0.12537 0.0
C809 C 0.68778 0.75305 0.09149 0.0
C810 C 0.63215 0.72254 0.11161 0.0
C811 C 0.6859 0.75584 0.08191 0.0
C812 C 0.61283 0.7496 0.15013 0.0
C813 C 0.61614 0.74881 0.14058 0.0
C814 C 0.67989 0.76945 0.1216 0.0
C815 C 0.65485 0.74955 0.09673 0.0
C816 C 0.65634 0.74699 0.1069 0.0
C817 C 0.65161 0.74724 0.13641 0.0
C818 C 0.65467 0.74597 0.12627 0.0
H819 H 0.5909 0.75129 0.0794 0.0
H820 H 0.59414 0.74707 0.09605 0.0
H821 H 0.69937 0.7894 0.10856 0.0
H822 H 0.7057 0.74665 0.15569 0.0
H823 H 0.71145 0.74552 0.13892 0.0
C824 C 0.76378 0.60718 0.83275 0.0
C825 C 0.76085 0.63969 0.82736 0.0
C826 C 0.76395 0.60954 0.84231 0.0
C827 C 0.78416 0.62282 0.86211 0.0
H828 H 0.7133 0.68818 0.87445 0.0
C829 C 0.74592 0.67143 0.90138 0.0
C830 C 0.74316 0.63594 0.90551 0.0
C831 C 0.74964 0.67465 0.89184 0.0
C832 C 0.73353 0.67017 0.87108 0.0
H833 H 0.75613 0.70028 0.82774 0.0
H834 H 0.75694 0.70447 0.84453 0.0
H835 H 0.71747 0.68896 0.85767 0.0
H836 H 0.74188 0.57605 0.90294 0.0
H837 H 0.74856 0.58172 0.88633 0.0
H838 H 0.79944 0.60329 0.87551 0.0
C839 C 0.7586 0.67711 0.84133 0.0
C840 C 0.73601 0.67065 0.86149 0.0
C841 C 0.7583 0.67472 0.83173 0.0
C842 C 0.74397 0.60378 0.89995 0.0
C843 C 0.74805 0.607 0.89045 0.0
C844 C 0.7815 0.62217 0.87167 0.0
C845 C 0.76141 0.6445 0.84672 0.0
C846 C 0.76091 0.64649 0.8569 0.0
C847 C 0.7511 0.64242 0.88631 0.0
C848 C 0.75575 0.64537 0.87624 0.0
H849 H 0.76559 0.57975 0.82959 0.0
H850 H 0.76541 0.58383 0.84626 0.0
H851 H 0.80423 0.60449 0.85879 0.0
H852 H 0.74532 0.6967 0.9055 0.0
H853 H 0.75206 0.70227 0.8888 0.0
C854 C 0.33088 0.24077 0.1511 0.0
C855 C 0.36539 0.23901 0.15573 0.0
C856 C 0.32977 0.24215 0.1415 0.0
C857 C 0.38753 0.22309 0.12087 0.0
H858 H 0.31928 0.29221 0.10889 0.0
C859 C 0.40403 0.26568 0.08305 0.0
C860 C 0.37153 0.26555 0.0776 0.0
C861 C 0.4015 0.26146 0.09256 0.0
C862 C 0.33818 0.27251 0.11215 0.0
H863 H 0.42575 0.23724 0.15396 0.0
H864 H 0.42385 0.24031 0.13727 0.0
H865 H 0.31795 0.28581 0.12561 0.0
H866 H 0.31086 0.26167 0.07783 0.0
H867 H 0.30649 0.25452 0.09453 0.0
H868 H 0.40828 0.2104 0.10743 0.0
C869 C 0.39761 0.23993 0.14102 0.0
C870 C 0.33738 0.26875 0.12171 0.0
C871 C 0.39871 0.2384 0.15059 0.0
C872 C 0.33639 0.26182 0.08186 0.0
C873 C 0.33385 0.25787 0.09141 0.0
C874 C 0.38848 0.22701 0.11134 0.0
C875 C 0.36315 0.24187 0.13636 0.0
C876 C 0.36234 0.2443 0.12618 0.0
C877 C 0.36643 0.25728 0.09682 0.0
C878 C 0.3641 0.25204 0.10689 0.0
H879 H 0.30474 0.24115 0.15489 0.0
H880 H 0.30278 0.2432 0.1381 0.0
H881 H 0.4066 0.20345 0.12409 0.0
H882 H 0.43151 0.26858 0.07996 0.0
H883 H 0.42703 0.26164 0.09659 0.0
C884 C 0.75745 0.89163 0.33286 0.0
C885 C 0.75578 0.85939 0.32734 0.0
C886 C 0.75979 0.88853 0.3424 0.0
C887 C 0.73817 0.82648 0.36161 0.0
H888 H 0.80707 0.89098 0.37484 0.0
C889 C 0.75233 0.82416 0.40131 0.0
C890 C 0.75386 0.85952 0.40554 0.0
C891 C 0.7552 0.821 0.39175 0.0
C892 C 0.78754 0.87295 0.37124 0.0
H893 H 0.75495 0.7986 0.32747 0.0
H894 H 0.75879 0.79323 0.34422 0.0
H895 H 0.8071 0.89115 0.35807 0.0
H896 H 0.75948 0.91926 0.40312 0.0
H897 H 0.76399 0.9138 0.38649 0.0
H898 H 0.71794 0.80899 0.3748 0.0
C899 C 0.7583 0.82084 0.34113 0.0
C900 C 0.7876 0.87302 0.36166 0.0
C901 C 0.75624 0.82393 0.33156 0.0
C902 C 0.75836 0.8916 0.40006 0.0
C903 C 0.76121 0.88845 0.39054 0.0
C904 C 0.738 0.82651 0.37122 0.0
C905 C 0.76031 0.85314 0.34662 0.0
C906 C 0.76244 0.85034 0.35675 0.0
C907 C 0.75974 0.85314 0.38627 0.0
C908 C 0.76219 0.85032 0.37613 0.0
H909 H 0.7571 0.91935 0.32982 0.0
H910 H 0.76074 0.91391 0.34648 0.0
H911 H 0.71833 0.8089 0.35799 0.0
H912 H 0.74896 0.79893 0.40537 0.0
H913 H 0.75423 0.7934 0.38866 0.0
C914 C 0.10462 0.26967 0.64907 0.0
C915 C 0.13673 0.2665 0.65459 0.0
C916 C 0.10773 0.27054 0.63951 0.0
C917 C 0.17062 0.24344 0.62062 0.0
H918 H 0.10415 0.30659 0.60628 0.0
C919 C 0.17583 0.25358 0.5808 0.0
C920 C 0.14087 0.25107 0.57639 0.0
C921 C 0.17784 0.25728 0.59036 0.0
C922 C 0.12278 0.28872 0.6102 0.0
H923 H 0.19738 0.26242 0.65447 0.0
H924 H 0.20288 0.26447 0.63772 0.0
H925 H 0.10366 0.31105 0.623 0.0
H926 H 0.08067 0.2502 0.57851 0.0
H927 H 0.08424 0.25672 0.59516 0.0
H928 H 0.18957 0.22106 0.60775 0.0
C929 C 0.17526 0.26572 0.64079 0.0
C930 C 0.12247 0.29121 0.61977 0.0
C931 C 0.17212 0.26473 0.65037 0.0
C932 C 0.10802 0.25212 0.58171 0.0
C933 C 0.11003 0.25611 0.59123 0.0
C934 C 0.17108 0.24111 0.61102 0.0
C935 C 0.14305 0.26846 0.63526 0.0
C936 C 0.14588 0.26811 0.62509 0.0
C937 C 0.14492 0.25888 0.59564 0.0
C938 C 0.14666 0.26326 0.60575 0.0
H939 H 0.07693 0.27094 0.65211 0.0
H940 H 0.08233 0.27201 0.63545 0.0
H941 H 0.1887 0.22498 0.62452 0.0
H942 H 0.20161 0.25281 0.57687 0.0
H943 H 0.20508 0.2595 0.5936 0.0
C944 C 0.27291 0.26084 0.27255 0.0
C945 C 0.24582 0.24201 0.27776 0.0
C946 C 0.26395 0.27466 0.26385 0.0
C947 C 0.19507 0.25474 0.24539 0.0
H948 H 0.2634 0.31979 0.23228 0.0
C949 C 0.24148 0.22092 0.20915 0.0
C950 C 0.26068 0.24759 0.20389 0.0
C951 C 0.2264 0.23079 0.21767 0.0
C952 C 0.24312 0.3022 0.23573 0.0
H953 H 0.1873 0.22637 0.27855 0.0
H954 H 0.17077 0.25291 0.26365 0.0
H955 H 0.26061 0.3228 0.24881 0.0
H956 H 0.27573 0.30617 0.20278 0.0
H957 H 0.247 0.32423 0.21732 0.0
H958 H 0.17634 0.23537 0.2323 0.0
C959 C 0.19949 0.25525 0.26597 0.0
C960 C 0.24215 0.30339 0.24532 0.0
C961 C 0.2088 0.24032 0.27455 0.0
C962 C 0.26149 0.28501 0.20683 0.0
C963 C 0.24531 0.2952 0.21521 0.0
C964 C 0.19507 0.25451 0.2358 0.0
C965 C 0.22737 0.27083 0.26027 0.0
C966 C 0.22014 0.27776 0.2503 0.0
C967 C 0.22933 0.26785 0.22099 0.0
C968 C 0.22105 0.27623 0.23084 0.0
H969 H 0.3017 0.26233 0.2749 0.0
H970 H 0.28657 0.28588 0.25973 0.0
H971 H 0.1773 0.23468 0.24887 0.0
H972 H 0.24066 0.19183 0.20702 0.0
H973 H 0.21492 0.20856 0.22187 0.0
C974 C 0.70466 0.76596 0.45808 0.0
C975 C 0.74147 0.76371 0.45473 0.0
C976 C 0.69542 0.75031 0.46659 0.0
C977 C 0.7377 0.6981 0.48666 0.0
H978 H 0.67485 0.76623 0.50052 0.0
C979 C 0.75978 0.71033 0.52522 0.0
C980 C 0.76034 0.74732 0.52847 0.0
C981 C 0.74288 0.70186 0.51681 0.0
C982 C 0.69275 0.74703 0.49679 0.0
H983 H 0.79698 0.74167 0.45729 0.0
H984 H 0.78199 0.71676 0.47233 0.0
H985 H 0.67485 0.76928 0.48396 0.0
H986 H 0.74201 0.80411 0.52587 0.0
H987 H 0.71504 0.79034 0.51098 0.0
H988 H 0.75918 0.67915 0.49947 0.0
C989 C 0.75947 0.72904 0.46836 0.0
C990 C 0.69217 0.74818 0.48719 0.0
C991 C 0.76835 0.74366 0.45973 0.0
C992 C 0.74181 0.77533 0.5235 0.0
C993 C 0.726 0.76717 0.51496 0.0
C994 C 0.73926 0.69786 0.49625 0.0
C995 C 0.72317 0.7333 0.47207 0.0
C996 C 0.71623 0.72513 0.482 0.0
C997 C 0.72749 0.73053 0.51132 0.0
C998 C 0.71833 0.7238 0.50144 0.0
H999 H 0.68329 0.78082 0.45424 0.0
H1000 H 0.66689 0.7531 0.46902 0.0
H1001 H 0.75534 0.67866 0.48293 0.0
H1002 H 0.77344 0.68813 0.52905 0.0
H1003 H 0.74349 0.67311 0.51446 0.0
C1004 C 0.25725 0.26268 0.70844 0.0
C1005 C 0.22916 0.2417 0.70407 0.0
C1006 C 0.27139 0.25118 0.71695 0.0
C1007 C 0.23503 0.20242 0.7369 0.0
H1008 H 0.33113 0.2295 0.74738 0.0
C1009 C 0.24615 0.22648 0.7754 0.0
C1010 C 0.2617 0.2617 0.77741 0.0
C1011 C 0.25229 0.20986 0.76682 0.0
C1012 C 0.30422 0.22149 0.74455 0.0
H1013 H 0.19702 0.19011 0.7046 0.0
H1014 H 0.22211 0.16982 0.71935 0.0
H1015 H 0.32412 0.22592 0.73068 0.0
H1016 H 0.29851 0.30553 0.77233 0.0
H1017 H 0.30811 0.27739 0.75739 0.0
H1018 H 0.21421 0.20061 0.75062 0.0
C1019 C 0.23247 0.19562 0.71636 0.0
C1020 C 0.30025 0.21943 0.735 0.0
C1021 C 0.21808 0.20729 0.70792 0.0
C1022 C 0.2857 0.27858 0.77097 0.0
C1023 C 0.29165 0.26213 0.7624 0.0
C1024 C 0.23894 0.20465 0.74642 0.0
C1025 C 0.25788 0.21834 0.72118 0.0
C1026 C 0.26514 0.21153 0.73108 0.0
C1027 C 0.2739 0.22826 0.76009 0.0
C1028 C 0.27307 0.21599 0.75034 0.0
H1029 H 0.26645 0.2892 0.70561 0.0
H1030 H 0.29076 0.26948 0.72051 0.0
H1031 H 0.20746 0.19663 0.73414 0.0
H1032 H 0.228 0.21246 0.78028 0.0
H1033 H 0.23873 0.18342 0.7653 0.0
C1034 C 0.74183 0.76662 0.9566 0.0
C1035 C 0.75362 0.72966 0.95493 0.0
C1036 C 0.75188 0.78478 0.96475 0.0
C1037 C 0.81044 0.77518 0.98601 0.0
H1038 H 0.72076 0.81268 -0.00212 0.0
C1039 C 0.77364 0.74967 0.02357 0.0
C1040 C 0.74806 0.7736 0.02796 0.0
C1041 C 0.78629 0.75792 0.0147 0.0
C1042 C 0.74654 0.80341 -0.00533 0.0
H1043 H 0.78739 0.68379 0.9602 0.0
H1044 H 0.80381 0.7148 0.97444 0.0
H1045 H 0.72067 0.80248 0.98147 0.0
H1046 H 0.71956 0.82718 0.0271 0.0
H1047 H 0.74234 0.84197 0.01172 0.0
H1048 H 0.8353 0.77376 -0.00057 0.0
C1049 C 0.78736 0.73017 0.96944 0.0
C1050 C 0.74647 0.79753 0.9852 0.0
C1051 C 0.77748 0.71214 0.9613 0.0
C1052 C 0.73865 0.80783 0.02377 0.0
C1053 C 0.75167 0.8163 0.01497 0.0
C1054 C 0.81048 0.78099 -0.00448 0.0
C1055 C 0.77377 0.76626 0.9714 0.0
C1056 C 0.77776 0.78162 0.98083 0.0
C1057 C 0.77384 0.79042 0.01013 0.0
C1058 C 0.7779 0.79351 0.0 0.0
H1059 H 0.72386 0.7811 0.95176 0.0
H1060 H 0.74138 0.8128 0.966 0.0
H1061 H 0.83529 0.76366 0.9828 0.0
H1062 H 0.78149 0.72318 0.02666 0.0
H1063 H 0.80321 0.73725 0.01117 0.0
C1064 C 0.29046 0.23007 0.02247 0.0
C1065 C 0.27367 0.25501 0.02871 0.0
C1066 C 0.27214 0.22003 0.01438 0.0
C1067 C 0.20644 0.26192 -0.00161 0.0
H1068 H 0.2286 0.1718 0.9845 0.0
C1069 C 0.19896 0.26795 0.95974 0.0
C1070 C 0.23326 0.25752 0.95573 0.0
C1071 C 0.18959 0.2557 0.96855 0.0
C1072 C 0.2218 0.19698 0.98831 0.0
H1073 H 0.22314 0.28651 0.03173 0.0
H1074 H 0.19092 0.26872 0.01757 0.0
H1075 H 0.23758 0.17228 0.00117 0.0
H1076 H 0.28285 0.22312 0.95738 0.0
H1077 H 0.26718 0.20268 0.9729 0.0
H1078 H 0.19283 0.28744 0.98559 0.0
C1079 C 0.2186 0.25748 0.01888 0.0
C1080 C 0.22696 0.19729 -0.00215 0.0
C1081 C 0.23705 0.26769 0.02699 0.0
C1082 C 0.25634 0.23177 0.96033 0.0
C1083 C 0.24717 0.21985 0.96921 0.0
C1084 C 0.20116 0.26156 0.9889 0.0
C1085 C 0.23649 0.23454 0.01235 0.0
C1086 C 0.22121 0.23042 0.00291 0.0
C1087 C 0.21459 0.23323 0.97358 0.0
C1088 C 0.21057 0.2297 0.9837 0.0
H1089 H 0.3185 0.21942 0.02363 0.0
H1090 H 0.28705 0.20274 0.00947 0.0
H1091 H 0.20202 0.28803 0.00203 0.0
H1092 H 0.18022 0.28719 0.95626 0.0
H1093 H 0.16389 0.26579 0.97165 0.0
C1094 C 0.74267 0.72732 0.27651 0.0
C1095 C 0.75753 0.76313 0.27818 0.0
C1096 C 0.75031 0.70885 0.26823 0.0
C1097 C 0.80616 0.71574 0.24644 0.0
H1098 H 0.7117 0.68735 0.23532 0.0
C1099 C 0.76471 0.75015 0.2096 0.0
C1100 C 0.73705 0.7286 0.20524 0.0
C1101 C 0.778 0.73975 0.21828 0.0
C1102 C 0.73869 0.69405 0.2383 0.0
H1103 H 0.79445 0.80632 0.27281 0.0
H1104 H 0.80667 0.77492 0.25839 0.0
H1105 H 0.71535 0.69505 0.25178 0.0
H1106 H 0.70508 0.67696 0.20593 0.0
H1107 H 0.72878 0.65851 0.22097 0.0
H1108 H 0.82858 0.71735 0.23276 0.0
C1109 C 0.78962 0.76062 0.26345 0.0
C1110 C 0.74079 0.69846 0.24781 0.0
C1111 C 0.78215 0.77893 0.27171 0.0
C1112 C 0.72581 0.69456 0.20924 0.0
C1113 C 0.73939 0.68396 0.21785 0.0
C1114 C 0.80401 0.71147 0.23689 0.0
C1115 C 0.7728 0.72594 0.26148 0.0
C1116 C 0.774 0.71122 0.25193 0.0
C1117 C 0.76408 0.70746 0.22267 0.0
C1118 C 0.76973 0.70234 0.2327 0.0
H1119 H 0.72404 0.71413 0.28142 0.0
H1120 H 0.73737 0.68188 0.26697 0.0
H1121 H 0.83241 0.72477 0.24945 0.0
H1122 H 0.77403 0.77641 0.20665 0.0
H1123 H 0.79686 0.75864 0.22182 0.0
C1124 C 0.22482 0.26331 0.45913 0.0
C1125 C 0.2517 0.2442 0.45393 0.0
C1126 C 0.23421 0.27788 0.46773 0.0
C1127 C 0.30447 0.26018 0.48604 0.0
H1128 H 0.23613 0.32557 0.49904 0.0
C1129 C 0.26076 0.22878 0.5226 0.0
C1130 C 0.24132 0.25551 0.52778 0.0
C1131 C 0.2752 0.23819 0.51399 0.0
C1132 C 0.25642 0.30791 0.49561 0.0
H1133 H 0.31024 0.22874 0.45301 0.0
H1134 H 0.32752 0.2566 0.4677 0.0
H1135 H 0.23797 0.32723 0.48249 0.0
H1136 H 0.22518 0.31387 0.52864 0.0
H1137 H 0.25284 0.33125 0.51392 0.0
H1138 H 0.32424 0.2422 0.49916 0.0
C1139 C 0.29865 0.25859 0.46548 0.0
C1140 C 0.25684 0.3083 0.48602 0.0
C1141 C 0.28891 0.24291 0.45702 0.0
C1142 C 0.23961 0.29265 0.52465 0.0
C1143 C 0.25517 0.30243 0.51617 0.0
C1144 C 0.30504 0.2608 0.49563 0.0
C1145 C 0.27103 0.27455 0.47119 0.0
C1146 C 0.27883 0.28246 0.4811 0.0
C1147 C 0.2714 0.2749 0.51048 0.0
C1148 C 0.27907 0.28261 0.50056 0.0
H1149 H 0.19589 0.26451 0.45689 0.0
H1150 H 0.21177 0.28933 0.47187 0.0
H1151 H 0.32228 0.24002 0.48261 0.0
H1152 H 0.26228 0.1999 0.52488 0.0
H1153 H 0.28689 0.21582 0.50987 0.0
C1154 C 0.77145 0.80269 0.70865 0.0
C1155 C 0.75974 0.76863 0.70475 0.0
C1156 C 0.75881 0.81339 0.71734 0.0
C1157 C 0.69664 0.78566 0.7369 0.0
H1158 H 0.78685 0.80359 0.75108 0.0
C1159 C 0.72355 0.72019 0.77179 0.0
C1160 C 0.74852 0.73683 0.77805 0.0
C1161 C 0.71492 0.73784 0.76351 0.0
C1162 C 0.76099 0.79973 0.7473 0.0
H1163 H 0.72287 0.72089 0.70643 0.0
H1164 H 0.70175 0.73878 0.72175 0.0
H1165 H 0.78844 0.81072 0.73459 0.0
H1166 H 0.78144 0.7866 0.78088 0.0
H1167 H 0.76612 0.81767 0.76638 0.0
H1168 H 0.66994 0.77243 0.74969 0.0
C1169 C 0.7202 0.75765 0.71807 0.0
C1170 C 0.7619 0.80382 0.73778 0.0
C1171 C 0.73249 0.74719 0.70931 0.0
C1172 C 0.76255 0.77279 0.77614 0.0
C1173 C 0.75378 0.79058 0.76784 0.0
C1174 C 0.6957 0.78166 0.74646 0.0
C1175 C 0.73469 0.78992 0.72235 0.0
C1176 C 0.73027 0.79507 0.73243 0.0
C1177 C 0.73091 0.77267 0.76129 0.0
C1178 C 0.72844 0.7868 0.75171 0.0
H1179 H 0.7919 0.82018 0.70519 0.0
H1180 H 0.76978 0.83886 0.72036 0.0
H1181 H 0.67162 0.77943 0.73297 0.0
H1182 H 0.71186 0.69267 0.77308 0.0
H1183 H 0.6976 0.72294 0.75861 0.0
loop_
_geom_bond_atom_site_label_1
_geom_bond_atom_site_label_2
_geom_bond_distance
_geom_bond_site_symmetry_2
_ccdc_geom_bond_type
C0 O1 1.306 . S
C0 O3 1.160 . S
O1 C0 1.306 . S
O1 Cd2 2.228 . S
Cd2 O1 2.228 . S
Cd2 O6 2.273 . S
Cd2 O10 2.277 . S
O3 C0 1.160 . S
O3 Cd4 2.203 . S
Cd4 O3 2.203 . S
Cd4 O6 2.411 . S
Cd4 O7 2.333 . S
Cd4 O8 2.352 . S
Cd4 O12 2.277 . S
Cd4 O13 2.356 . S
C5 O10 1.209 . S
C5 O12 1.226 . S
O6 Cd2 2.273 . S
O6 Cd4 2.411 . S
O6 C9 1.320 . S
O7 Cd4 2.333 . S
O7 C9 1.214 . S
O8 Cd4 2.352 . S
O8 C11 1.258 . S
C9 O6 1.320 . S
C9 O7 1.214 . S
O10 Cd2 2.277 . S
O10 C5 1.209 . S
C11 O8 1.258 . S
C11 O13 1.282 . S
O12 Cd4 2.277 . S
O12 C5 1.226 . S
O13 Cd4 2.356 . S
O13 C11 1.282 . S
C14 O15 1.306 . S
C14 O17 1.160 . S
O15 C14 1.306 . S
O15 Cd16 2.228 . S
Cd16 O15 2.228 . S
Cd16 O20 2.273 . S
Cd16 O24 2.277 . S
O17 C14 1.160 . S
O17 Cd18 2.203 . S
Cd18 O17 2.203 . S
Cd18 O20 2.411 . S
Cd18 O21 2.333 . S
Cd18 O22 2.352 . S
Cd18 O26 2.277 . S
Cd18 O27 2.356 . S
C19 O24 1.209 . S
C19 O26 1.226 . S
O20 Cd16 2.273 . S
O20 Cd18 2.411 . S
O20 C23 1.320 . S
O21 Cd18 2.333 . S
O21 C23 1.214 . S
O22 Cd18 2.352 . S
O22 C25 1.258 . S
C23 O20 1.320 . S
C23 O21 1.214 . S
O24 Cd16 2.277 . S
O24 C19 1.209 . S
C25 O22 1.258 . S
C25 O27 1.282 . S
O26 Cd18 2.277 . S
O26 C19 1.226 . S
O27 Cd18 2.356 . S
O27 C25 1.282 . S
C28 O29 1.306 . S
C28 O31 1.160 . S
O29 C28 1.306 . S
O29 Cd30 2.228 . S
Cd30 O29 2.228 . S
Cd30 O34 2.273 . S
Cd30 O38 2.277 . S
O31 C28 1.160 . S
O31 Cd32 2.203 . S
Cd32 O31 2.203 . S
Cd32 O34 2.411 . S
Cd32 O35 2.333 . S
Cd32 O36 2.352 . S
Cd32 O40 2.277 . S
Cd32 O41 2.356 . S
C33 O38 1.209 . S
C33 O40 1.226 . S
O34 Cd30 2.273 . S
O34 Cd32 2.411 . S
O34 C37 1.320 . S
O35 Cd32 2.333 . S
O35 C37 1.214 . S
O36 Cd32 2.352 . S
O36 C39 1.258 . S
C37 O34 1.320 . S
C37 O35 1.214 . S
O38 Cd30 2.277 . S
O38 C33 1.209 . S
C39 O36 1.258 . S
C39 O41 1.282 . S
O40 Cd32 2.277 . S
O40 C33 1.226 . S
O41 Cd32 2.356 . S
O41 C39 1.282 . S
C42 O43 1.306 . S
C42 O45 1.160 . S
O43 C42 1.306 . S
O43 Cd44 2.228 . S
Cd44 O43 2.228 . S
Cd44 O48 2.273 . S
Cd44 O52 2.277 . S
O45 C42 1.160 . S
O45 Cd46 2.203 . S
Cd46 O45 2.203 . S
Cd46 O48 2.411 . S
Cd46 O49 2.333 . S
Cd46 O50 2.352 . S
Cd46 O54 2.277 . S
Cd46 O55 2.356 . S
C47 O52 1.209 . S
C47 O54 1.226 . S
O48 Cd44 2.273 . S
O48 Cd46 2.411 . S
O48 C51 1.320 . S
O49 Cd46 2.333 . S
O49 C51 1.214 . S
O50 Cd46 2.352 . S
O50 C53 1.258 . S
C51 O48 1.320 . S
C51 O49 1.214 . S
O52 Cd44 2.277 . S
O52 C47 1.209 . S
C53 O50 1.258 . S
C53 O55 1.282 . S
O54 Cd46 2.277 . S
O54 C47 1.226 . S
O55 Cd46 2.356 . S
O55 C53 1.282 . S
C56 O57 1.306 . S
C56 O59 1.160 . S
O57 C56 1.306 . S
O57 Cd58 2.228 . S
Cd58 O57 2.228 . S
Cd58 O62 2.273 . S
Cd58 O66 2.277 . S
O59 C56 1.160 . S
O59 Cd60 2.203 . S
Cd60 O59 2.203 . S
Cd60 O62 2.411 . S
Cd60 O63 2.333 . S
Cd60 O64 2.352 . S
Cd60 O68 2.277 . S
Cd60 O69 2.356 . S
C61 O66 1.209 . S
C61 O68 1.226 . S
O62 Cd58 2.273 . S
O62 Cd60 2.411 . S
O62 C65 1.320 . S
O63 Cd60 2.333 . S
O63 C65 1.214 . S
O64 Cd60 2.352 . S
O64 C67 1.258 . S
C65 O62 1.320 . S
C65 O63 1.214 . S
O66 Cd58 2.277 . S
O66 C61 1.209 . S
C67 O64 1.258 . S
C67 O69 1.282 . S
O68 Cd60 2.277 . S
O68 C61 1.226 . S
O69 Cd60 2.356 . S
O69 C67 1.282 . S
C70 O71 1.306 . S
C70 O73 1.160 . S
O71 C70 1.306 . S
O71 Cd72 2.228 . S
Cd72 O71 2.228 . S
Cd72 O76 2.273 . S
Cd72 O80 2.277 . S
O73 C70 1.160 . S
O73 Cd74 2.203 . S
Cd74 O73 2.203 . S
Cd74 O76 2.411 . S
Cd74 O77 2.333 . S
Cd74 O78 2.352 . S
Cd74 O82 2.277 . S
Cd74 O83 2.356 . S
C75 O80 1.209 . S
C75 O82 1.226 . S
O76 Cd72 2.273 . S
O76 Cd74 2.411 . S
O76 C79 1.320 . S
O77 Cd74 2.333 . S
O77 C79 1.214 . S
O78 Cd74 2.352 . S
O78 C81 1.258 . S
C79 O76 1.320 . S
C79 O77 1.214 . S
O80 Cd72 2.277 . S
O80 C75 1.209 . S
C81 O78 1.258 . S
C81 O83 1.282 . S
O82 Cd74 2.277 . S
O82 C75 1.226 . S
O83 Cd74 2.356 . S
O83 C81 1.282 . S
C84 O85 1.306 . S
C84 O87 1.160 . S
O85 C84 1.306 . S
O85 Cd86 2.228 . S
Cd86 O85 2.228 . S
Cd86 O90 2.273 . S
Cd86 O94 2.277 . S
O87 C84 1.160 . S
O87 Cd88 2.203 . S
Cd88 O87 2.203 . S
Cd88 O90 2.411 . S
Cd88 O91 2.333 . S
Cd88 O92 2.352 . S
Cd88 O96 2.277 . S
Cd88 O97 2.356 . S
C89 O94 1.209 . S
C89 O96 1.226 . S
O90 Cd86 2.273 . S
O90 Cd88 2.411 . S
O90 C93 1.320 . S
O91 Cd88 2.333 . S
O91 C93 1.214 . S
O92 Cd88 2.352 . S
O92 C95 1.258 . S
C93 O90 1.320 . S
C93 O91 1.214 . S
O94 Cd86 2.277 . S
O94 C89 1.209 . S
C95 O92 1.258 . S
C95 O97 1.282 . S
O96 Cd88 2.277 . S
O96 C89 1.226 . S
O97 Cd88 2.356 . S
O97 C95 1.282 . S
C98 O99 1.306 . S
C98 O101 1.160 . S
O99 C98 1.306 . S
O99 Cd100 2.228 . S
Cd100 O99 2.228 . S
Cd100 O104 2.273 . S
Cd100 O108 2.277 . S
O101 C98 1.160 . S
O101 Cd102 2.203 . S
Cd102 O101 2.203 . S
Cd102 O104 2.411 . S
Cd102 O105 2.333 . S
Cd102 O106 2.352 . S
Cd102 O110 2.277 . S
Cd102 O111 2.356 . S
C103 O108 1.209 . S
C103 O110 1.226 . S
O104 Cd100 2.273 . S
O104 Cd102 2.411 . S
O104 C107 1.320 . S
O105 Cd102 2.333 . S
O105 C107 1.214 . S
O106 Cd102 2.352 . S
O106 C109 1.258 . S
C107 O104 1.320 . S
C107 O105 1.214 . S
O108 Cd100 2.277 . S
O108 C103 1.209 . S
C109 O106 1.258 . S
C109 O111 1.282 . S
O110 Cd102 2.277 . S
O110 C103 1.226 . S
O111 Cd102 2.356 . S
O111 C109 1.282 . S
C112 O113 1.306 . S
C112 O115 1.160 . S
O113 C112 1.306 . S
O113 Cd114 2.228 . S
Cd114 O113 2.228 . S
Cd114 O118 2.273 . S
Cd114 O122 2.277 . S
O115 C112 1.160 . S
O115 Cd116 2.203 . S
Cd116 O115 2.203 . S
Cd116 O118 2.411 . S
Cd116 O119 2.333 . S
Cd116 O120 2.352 . S
Cd116 O124 2.277 . S
Cd116 O125 2.356 . S
C117 O122 1.209 . S
C117 O124 1.226 . S
O118 Cd114 2.273 . S
O118 Cd116 2.411 . S
O118 C121 1.320 . S
O119 Cd116 2.333 . S
O119 C121 1.214 . S
O120 Cd116 2.352 . S
O120 C123 1.258 . S
C121 O118 1.320 . S
C121 O119 1.214 . S
O122 Cd114 2.277 . S
O122 C117 1.209 . S
C123 O120 1.258 . S
C123 O125 1.282 . S
O124 Cd116 2.277 . S
O124 C117 1.226 . S
O125 Cd116 2.356 . S
O125 C123 1.282 . S
C126 O127 1.306 . S
C126 O129 1.160 . S
O127 C126 1.306 . S
O127 Cd128 2.228 . S
Cd128 O127 2.228 . S
Cd128 O132 2.273 . S
Cd128 O136 2.277 . S
O129 C126 1.160 . S
O129 Cd130 2.203 . S
Cd130 O129 2.203 . S
Cd130 O132 2.411 . S
Cd130 O133 2.333 . S
Cd130 O134 2.352 . S
Cd130 O138 2.277 . S
Cd130 O139 2.356 . S
C131 O136 1.209 . S
C131 O138 1.226 . S
O132 Cd128 2.273 . S
O132 Cd130 2.411 . S
O132 C135 1.320 . S
O133 Cd130 2.333 . S
O133 C135 1.214 . S
O134 Cd130 2.352 . S
O134 C137 1.258 . S
C135 O132 1.320 . S
C135 O133 1.214 . S
O136 Cd128 2.277 . S
O136 C131 1.209 . S
C137 O134 1.258 . S
C137 O139 1.282 . S
O138 Cd130 2.277 . S
O138 C131 1.226 . S
O139 Cd130 2.356 . S
O139 C137 1.282 . S
C140 O141 1.306 . S
C140 O143 1.160 . S
O141 C140 1.306 . S
O141 Cd142 2.228 . S
Cd142 O141 2.228 . S
Cd142 O146 2.273 . S
Cd142 O150 2.277 . S
O143 C140 1.160 . S
O143 Cd144 2.203 . S
Cd144 O143 2.203 . S
Cd144 O146 2.411 . S
Cd144 O147 2.333 . S
Cd144 O148 2.352 . S
Cd144 O152 2.277 . S
Cd144 O153 2.356 . S
C145 O150 1.209 . S
C145 O152 1.226 . S
O146 Cd142 2.273 . S
O146 Cd144 2.411 . S
O146 C149 1.320 . S
O147 Cd144 2.333 . S
O147 C149 1.214 . S
O148 Cd144 2.352 . S
O148 C151 1.258 . S
C149 O146 1.320 . S
C149 O147 1.214 . S
O150 Cd142 2.277 . S
O150 C145 1.209 . S
C151 O148 1.258 . S
C151 O153 1.282 . S
O152 Cd144 2.277 . S
O152 C145 1.226 . S
O153 Cd144 2.356 . S
O153 C151 1.282 . S
C154 O155 1.306 . S
C154 O157 1.160 . S
O155 C154 1.306 . S
O155 Cd156 2.228 . S
Cd156 O155 2.228 . S
Cd156 O160 2.273 . S
Cd156 O164 2.277 . S
O157 C154 1.160 . S
O157 Cd158 2.203 . S
Cd158 O157 2.203 . S
Cd158 O160 2.411 . S
Cd158 O161 2.333 . S
Cd158 O162 2.352 . S
Cd158 O166 2.277 . S
Cd158 O167 2.356 . S
C159 O164 1.209 . S
C159 O166 1.226 . S
O160 Cd156 2.273 . S
O160 Cd158 2.411 . S
O160 C163 1.320 . S
O161 Cd158 2.333 . S
O161 C163 1.214 . S
O162 Cd158 2.352 . S
O162 C165 1.258 . S
C163 O160 1.320 . S
C163 O161 1.214 . S
O164 Cd156 2.277 . S
O164 C159 1.209 . S
C165 O162 1.258 . S
C165 O167 1.282 . S
O166 Cd158 2.277 . S
O166 C159 1.226 . S
O167 Cd158 2.356 . S
O167 C165 1.282 . S
C168 O169 1.306 . S
C168 O171 1.160 . S
O169 C168 1.306 . S
O169 Cd170 2.228 . S
Cd170 O169 2.228 . S
Cd170 O174 2.273 . S
Cd170 O178 2.277 . S
O171 C168 1.160 . S
O171 Cd172 2.203 . S
Cd172 O171 2.203 . S
Cd172 O174 2.411 . S
Cd172 O175 2.333 . S
Cd172 O176 2.352 . S
Cd172 O180 2.277 . S
Cd172 O181 2.356 . S
C173 O178 1.209 . S
C173 O180 1.226 . S
O174 Cd170 2.273 . S
O174 Cd172 2.411 . S
O174 C177 1.320 . S
O175 Cd172 2.333 . S
O175 C177 1.214 . S
O176 Cd172 2.352 . S
O176 C179 1.258 . S
C177 O174 1.320 . S
C177 O175 1.214 . S
O178 Cd170 2.277 . S
O178 C173 1.209 . S
C179 O176 1.258 . S
C179 O181 1.282 . S
O180 Cd172 2.277 . S
O180 C173 1.226 . S
O181 Cd172 2.356 . S
O181 C179 1.282 . S
C182 O183 1.306 . S
C182 O185 1.160 . S
O183 C182 1.306 . S
O183 Cd184 2.228 . S
Cd184 O183 2.228 . S
Cd184 O188 2.273 . S
Cd184 O192 2.277 . S
O185 C182 1.160 . S
O185 Cd186 2.203 . S
Cd186 O185 2.203 . S
Cd186 O188 2.411 . S
Cd186 O189 2.333 . S
Cd186 O190 2.352 . S
Cd186 O194 2.277 . S
Cd186 O195 2.356 . S
C187 O192 1.209 . S
C187 O194 1.226 . S
O188 Cd184 2.273 . S
O188 Cd186 2.411 . S
O188 C191 1.320 . S
O189 Cd186 2.333 . S
O189 C191 1.214 . S
O190 Cd186 2.352 . S
O190 C193 1.258 . S
C191 O188 1.320 . S
C191 O189 1.214 . S
O192 Cd184 2.277 . S
O192 C187 1.209 . S
C193 O190 1.258 . S
C193 O195 1.282 . S
O194 Cd186 2.277 . S
O194 C187 1.226 . S
O195 Cd186 2.356 . S
O195 C193 1.282 . S
C196 O197 1.306 . S
C196 O199 1.160 . S
O197 C196 1.306 . S
O197 Cd198 2.228 . S
Cd198 O197 2.228 . S
Cd198 O202 2.273 . S
Cd198 O206 2.277 . S
O199 C196 1.160 . S
O199 Cd200 2.203 . S
Cd200 O199 2.203 . S
Cd200 O202 2.411 . S
Cd200 O203 2.333 . S
Cd200 O204 2.352 . S
Cd200 O208 2.277 . S
Cd200 O209 2.356 . S
C201 O206 1.209 . S
C201 O208 1.226 . S
O202 Cd198 2.273 . S
O202 Cd200 2.411 . S
O202 C205 1.320 . S
O203 Cd200 2.333 . S
O203 C205 1.214 . S
O204 Cd200 2.352 . S
O204 C207 1.258 . S
C205 O202 1.320 . S
C205 O203 1.214 . S
O206 Cd198 2.277 . S
O206 C201 1.209 . S
C207 O204 1.258 . S
C207 O209 1.282 . S
O208 Cd200 2.277 . S
O208 C201 1.226 . S
O209 Cd200 2.356 . S
O209 C207 1.282 . S
C210 O211 1.306 . S
C210 O213 1.160 . S
O211 C210 1.306 . S
O211 Cd212 2.228 . S
Cd212 O211 2.228 . S
Cd212 O216 2.273 . S
Cd212 O220 2.277 . S
O213 C210 1.160 . S
O213 Cd214 2.203 . S
Cd214 O213 2.203 . S
Cd214 O216 2.411 . S
Cd214 O217 2.333 . S
Cd214 O218 2.352 . S
Cd214 O222 2.277 . S
Cd214 O223 2.356 . S
C215 O220 1.209 . S
C215 O222 1.226 . S
O216 Cd212 2.273 . S
O216 Cd214 2.411 . S
O216 C219 1.320 . S
O217 Cd214 2.333 . S
O217 C219 1.214 . S
O218 Cd214 2.352 . S
O218 C221 1.258 . S
C219 O216 1.320 . S
C219 O217 1.214 . S
O220 Cd212 2.277 . S
O220 C215 1.209 . S
C221 O218 1.258 . S
C221 O223 1.282 . S
O222 Cd214 2.277 . S
O222 C215 1.226 . S
O223 Cd214 2.356 . S
O223 C221 1.282 . S
C224 C225 1.349 . S
C224 C226 1.327 . S
C224 H249 0.950 . S
C225 C224 1.349 . S
C225 C241 1.349 . S
C226 C224 1.327 . S
C226 C245 1.429 . S
C226 H250 0.950 . S
C227 C244 1.574 1_655 S
C227 C246 1.368 . S
C227 H251 0.949 . S
H228 C232 0.949 . S
C229 C230 1.349 . S
C229 C231 1.327 . S
C229 H252 0.950 . S
C230 C229 1.349 . S
C230 C242 1.349 . S
C231 C229 1.327 . S
C231 C247 1.429 . S
C231 H253 0.950 . S
C232 H228 0.949 . S
C232 C240 1.574 1_455 S
C232 C248 1.368 . S
H233 C241 0.950 . S
H234 C239 0.950 . S
H235 C240 0.949 . S
H236 C242 0.950 . S
H237 C243 0.950 . S
H238 C244 0.949 . S
C239 H234 0.950 . S
C239 C241 1.327 . S
C239 C245 1.429 . S
C240 C232 1.574 1_655 S
C240 H235 0.949 . S
C240 C246 1.368 1_545 S
C241 C225 1.349 . S
C241 H233 0.950 . S
C241 C239 1.327 . S
C242 C230 1.349 . S
C242 H236 0.950 . S
C242 C243 1.327 . S
C243 H237 0.950 . S
C243 C242 1.327 . S
C243 C247 1.429 . S
C244 C227 1.574 1_455 S
C244 H238 0.949 . S
C244 C248 1.368 1_565 S
C245 C226 1.429 . S
C245 C239 1.429 . S
C245 C246 1.523 . S
C246 C227 1.368 . S
C246 C240 1.368 1_565 S
C246 C245 1.523 . S
C247 C231 1.429 . S
C247 C243 1.429 . S
C247 C248 1.523 . S
C248 C232 1.368 . S
C248 C244 1.368 1_545 S
C248 C247 1.523 . S
H249 C224 0.950 . S
H250 C226 0.950 . S
H251 C227 0.949 . S
H252 C229 0.950 . S
H253 C231 0.950 . S
C254 C255 1.349 . S
C254 C256 1.327 . S
C254 H279 0.950 . S
C255 C254 1.349 . S
C255 C271 1.349 . S
C256 C254 1.327 . S
C256 C275 1.429 . S
C256 H280 0.950 . S
C257 C274 1.574 . S
C257 C276 1.368 1_455 S
C257 H281 0.949 . S
H258 C262 0.949 . S
C259 C260 1.349 . S
C259 C261 1.327 . S
C259 H282 0.950 . S
C260 C259 1.349 . S
C260 C272 1.349 . S
C261 C259 1.327 . S
C261 C277 1.429 . S
C261 H283 0.950 . S
C262 H258 0.949 . S
C262 C270 1.574 . S
C262 C278 1.368 1_655 S
H263 C271 0.950 . S
H264 C269 0.950 . S
H265 C270 0.949 . S
H266 C272 0.950 . S
H267 C273 0.950 . S
H268 C274 0.949 . S
C269 H264 0.950 . S
C269 C271 1.327 . S
C269 C275 1.429 . S
C270 C262 1.574 . S
C270 H265 0.949 . S
C270 C276 1.368 . S
C271 C255 1.349 . S
C271 H263 0.950 . S
C271 C269 1.327 . S
C272 C260 1.349 . S
C272 H266 0.950 . S
C272 C273 1.327 . S
C273 H267 0.950 . S
C273 C272 1.327 . S
C273 C277 1.429 . S
C274 C257 1.574 . S
C274 H268 0.949 . S
C274 C278 1.368 . S
C275 C256 1.429 . S
C275 C269 1.429 . S
C275 C276 1.523 . S
C276 C257 1.368 1_655 S
C276 C270 1.368 . S
C276 C275 1.523 . S
C277 C261 1.429 . S
C277 C273 1.429 . S
C277 C278 1.523 . S
C278 C262 1.368 1_455 S
C278 C274 1.368 . S
C278 C277 1.523 . S
H279 C254 0.950 . S
H280 C256 0.950 . S
H281 C257 0.949 . S
H282 C259 0.950 . S
H283 C261 0.950 . S
C284 C285 1.349 . S
C284 C286 1.327 . S
C284 H309 0.950 . S
C285 C284 1.349 . S
C285 C301 1.349 . S
C286 C284 1.327 . S
C286 C305 1.429 . S
C286 H310 0.950 . S
C287 C304 1.574 . S
C287 C306 1.368 . S
C287 H311 0.949 . S
H288 C292 0.949 . S
C289 C290 1.349 . S
C289 C291 1.327 . S
C289 H312 0.950 . S
C290 C289 1.349 . S
C290 C302 1.349 . S
C291 C289 1.327 . S
C291 C307 1.429 . S
C291 H313 0.950 . S
C292 H288 0.949 . S
C292 C300 1.574 . S
C292 C308 1.368 . S
H293 C301 0.950 . S
H294 C299 0.950 . S
H295 C300 0.949 . S
H296 C302 0.950 . S
H297 C303 0.950 . S
H298 C304 0.949 . S
C299 H294 0.950 . S
C299 C301 1.327 . S
C299 C305 1.429 . S
C300 C292 1.574 . S
C300 H295 0.949 . S
C300 C306 1.368 . S
C301 C285 1.349 . S
C301 H293 0.950 . S
C301 C299 1.327 . S
C302 C290 1.349 . S
C302 H296 0.950 . S
C302 C303 1.327 . S
C303 H297 0.950 . S
C303 C302 1.327 . S
C303 C307 1.429 . S
C304 C287 1.574 . S
C304 H298 0.949 . S
C304 C308 1.368 . S
C305 C286 1.429 . S
C305 C299 1.429 . S
C305 C306 1.523 . S
C306 C287 1.368 . S
C306 C300 1.368 . S
C306 C305 1.523 . S
C307 C291 1.429 . S
C307 C303 1.429 . S
C307 C308 1.523 . S
C308 C292 1.368 . S
C308 C304 1.368 . S
C308 C307 1.523 . S
H309 C284 0.950 . S
H310 C286 0.950 . S
H311 C287 0.949 . S
H312 C289 0.950 . S
H313 C291 0.950 . S
C314 C315 1.349 . S
C314 C316 1.327 . S
C314 H339 0.950 . S
C315 C314 1.349 . S
C315 C331 1.349 . S
C316 C314 1.327 . S
C316 C335 1.429 . S
C316 H340 0.950 . S
C317 C334 1.574 1_545 S
C317 C336 1.368 . S
C317 H341 0.949 . S
H318 C322 0.949 . S
C319 C320 1.349 . S
C319 C321 1.327 . S
C319 H342 0.950 . S
C320 C319 1.349 . S
C320 C332 1.349 . S
C321 C319 1.327 . S
C321 C337 1.429 . S
C321 H343 0.950 . S
C322 H318 0.949 . S
C322 C330 1.574 1_565 S
C322 C338 1.368 . S
H323 C331 0.950 . S
H324 C329 0.950 . S
H325 C330 0.949 . S
H326 C332 0.950 . S
H327 C333 0.950 . S
H328 C334 0.949 . S
C329 H324 0.950 . S
C329 C331 1.327 . S
C329 C335 1.429 . S
C330 C322 1.574 1_545 S
C330 H325 0.949 . S
C330 C336 1.368 . S
C331 C315 1.349 . S
C331 H323 0.950 . S
C331 C329 1.327 . S
C332 C320 1.349 . S
C332 H326 0.950 . S
C332 C333 1.327 . S
C333 H327 0.950 . S
C333 C332 1.327 . S
C333 C337 1.429 . S
C334 C317 1.574 1_565 S
C334 H328 0.949 . S
C334 C338 1.368 . S
C335 C316 1.429 . S
C335 C329 1.429 . S
C335 C336 1.523 . S
C336 C317 1.368 . S
C336 C330 1.368 . S
C336 C335 1.523 . S
C337 C321 1.429 . S
C337 C333 1.429 . S
C337 C338 1.523 . S
C338 C322 1.368 . S
C338 C334 1.368 . S
C338 C337 1.523 . S
H339 C314 0.950 . S
H340 C316 0.950 . S
H341 C317 0.949 . S
H342 C319 0.950 . S
H343 C321 0.950 . S
C344 C345 1.349 . S
C344 C346 1.327 . S
C344 H369 0.950 . S
C345 C344 1.349 . S
C345 C361 1.349 . S
C346 C344 1.327 . S
C346 C365 1.429 . S
C346 H370 0.950 . S
C347 C364 1.574 1_455 S
C347 C366 1.368 . S
C347 H371 0.949 . S
H348 C352 0.949 . S
C349 C350 1.349 . S
C349 C351 1.327 . S
C349 H372 0.950 . S
C350 C349 1.349 . S
C350 C362 1.349 . S
C351 C349 1.327 . S
C351 C367 1.429 . S
C351 H373 0.950 . S
C352 H348 0.949 . S
C352 C360 1.574 1_655 S
C352 C368 1.368 . S
H353 C361 0.950 . S
H354 C359 0.950 . S
H355 C360 0.949 . S
H356 C362 0.950 . S
H357 C363 0.950 . S
H358 C364 0.949 . S
C359 H354 0.950 . S
C359 C361 1.327 . S
C359 C365 1.429 . S
C360 C352 1.574 1_455 S
C360 H355 0.949 . S
C360 C366 1.368 . S
C361 C345 1.349 . S
C361 H353 0.950 . S
C361 C359 1.327 . S
C362 C350 1.349 . S
C362 H356 0.950 . S
C362 C363 1.327 . S
C363 H357 0.950 . S
C363 C362 1.327 . S
C363 C367 1.429 . S
C364 C347 1.574 1_655 S
C364 H358 0.949 . S
C364 C368 1.368 . S
C365 C346 1.429 . S
C365 C359 1.429 . S
C365 C366 1.523 . S
C366 C347 1.368 . S
C366 C360 1.368 . S
C366 C365 1.523 . S
C367 C351 1.429 . S
C367 C363 1.429 . S
C367 C368 1.523 . S
C368 C352 1.368 . S
C368 C364 1.368 . S
C368 C367 1.523 . S
H369 C344 0.950 . S
H370 C346 0.950 . S
H371 C347 0.949 . S
H372 C349 0.950 . S
H373 C351 0.950 . S
C374 C375 1.349 . S
C374 C376 1.327 . S
C374 H399 0.950 . S
C375 C374 1.349 . S
C375 C391 1.349 . S
C376 C374 1.327 . S
C376 C395 1.429 . S
C376 H400 0.950 . S
C377 C394 1.574 . S
C377 C396 1.368 . S
C377 H401 0.949 . S
H378 C382 0.949 . S
C379 C380 1.349 . S
C379 C381 1.327 . S
C379 H402 0.950 . S
C380 C379 1.349 . S
C380 C392 1.349 . S
C381 C379 1.327 . S
C381 C397 1.429 . S
C381 H403 0.950 . S
C382 H378 0.949 . S
C382 C390 1.574 . S
C382 C398 1.368 . S
H383 C391 0.950 . S
H384 C389 0.950 . S
H385 C390 0.949 . S
H386 C392 0.950 . S
H387 C393 0.950 . S
H388 C394 0.949 . S
C389 H384 0.950 . S
C389 C391 1.327 . S
C389 C395 1.429 . S
C390 C382 1.574 . S
C390 H385 0.949 . S
C390 C396 1.368 . S
C391 C375 1.349 . S
C391 H383 0.950 . S
C391 C389 1.327 . S
C392 C380 1.349 . S
C392 H386 0.950 . S
C392 C393 1.327 . S
C393 H387 0.950 . S
C393 C392 1.327 . S
C393 C397 1.429 . S
C394 C377 1.574 . S
C394 H388 0.949 . S
C394 C398 1.368 . S
C395 C376 1.429 . S
C395 C389 1.429 . S
C395 C396 1.523 . S
C396 C377 1.368 . S
C396 C390 1.368 . S
C396 C395 1.523 . S
C397 C381 1.429 . S
C397 C393 1.429 . S
C397 C398 1.523 . S
C398 C382 1.368 . S
C398 C394 1.368 . S
C398 C397 1.523 . S
H399 C374 0.950 . S
H400 C376 0.950 . S
H401 C377 0.949 . S
H402 C379 0.950 . S
H403 C381 0.950 . S
C404 C405 1.349 . S
C404 C406 1.327 . S
C404 H429 0.950 . S
C405 C404 1.349 . S
C405 C421 1.349 . S
C406 C404 1.327 . S
C406 C425 1.429 . S
C406 H430 0.950 . S
C407 C424 1.574 . S
C407 C426 1.368 1_565 S
C407 H431 0.949 . S
H408 C412 0.949 . S
C409 C410 1.349 . S
C409 C411 1.327 . S
C409 H432 0.950 . S
C410 C409 1.349 . S
C410 C422 1.349 . S
C411 C409 1.327 . S
C411 C427 1.429 . S
C411 H433 0.950 . S
C412 H408 0.949 . S
C412 C420 1.574 . S
C412 C428 1.368 1_545 S
H413 C421 0.950 . S
H414 C419 0.950 . S
H415 C420 0.949 . S
H416 C422 0.950 . S
H417 C423 0.950 . S
H418 C424 0.949 . S
C419 H414 0.950 . S
C419 C421 1.327 . S
C419 C425 1.429 . S
C420 C412 1.574 . S
C420 H415 0.949 . S
C420 C426 1.368 . S
C421 C405 1.349 . S
C421 H413 0.950 . S
C421 C419 1.327 . S
C422 C410 1.349 . S
C422 H416 0.950 . S
C422 C423 1.327 . S
C423 H417 0.950 . S
C423 C422 1.327 . S
C423 C427 1.429 . S
C424 C407 1.574 . S
C424 H418 0.949 . S
C424 C428 1.368 . S
C425 C406 1.429 . S
C425 C419 1.429 . S
C425 C426 1.523 . S
C426 C407 1.368 1_545 S
C426 C420 1.368 . S
C426 C425 1.523 . S
C427 C411 1.429 . S
C427 C423 1.429 . S
C427 C428 1.523 . S
C428 C412 1.368 1_565 S
C428 C424 1.368 . S
C428 C427 1.523 . S
H429 C404 0.950 . S
H430 C406 0.950 . S
H431 C407 0.949 . S
H432 C409 0.950 . S
H433 C411 0.950 . S
C434 C435 1.349 . S
C434 C436 1.327 . S
C434 H459 0.950 . S
C435 C434 1.349 . S
C435 C451 1.349 . S
C436 C434 1.327 . S
C436 C455 1.429 . S
C436 H460 0.950 . S
C437 C454 1.574 1_545 S
C437 C456 1.368 1_655 S
C437 H461 0.949 . S
H438 C442 0.949 . S
C439 C440 1.349 . S
C439 C441 1.327 . S
C439 H462 0.950 . S
C440 C439 1.349 . S
C440 C452 1.349 . S
C441 C439 1.327 . S
C441 C457 1.429 . S
C441 H463 0.950 . S
C442 H438 0.949 . S
C442 C450 1.574 1_565 S
C442 C458 1.368 1_455 S
H443 C451 0.950 . S
H444 C449 0.950 . S
H445 C450 0.949 . S
H446 C452 0.950 . S
H447 C453 0.950 . S
H448 C454 0.949 . S
C449 H444 0.950 . S
C449 C451 1.327 . S
C449 C455 1.429 . S
C450 C442 1.574 1_545 S
C450 H445 0.949 . S
C450 C456 1.368 . S
C451 C435 1.349 . S
C451 H443 0.950 . S
C451 C449 1.327 . S
C452 C440 1.349 . S
C452 H446 0.950 . S
C452 C453 1.327 . S
C453 H447 0.950 . S
C453 C452 1.327 . S
C453 C457 1.429 . S
C454 C437 1.574 1_565 S
C454 H448 0.949 . S
C454 C458 1.368 . S
C455 C436 1.429 . S
C455 C449 1.429 . S
C455 C456 1.523 . S
C456 C437 1.368 1_455 S
C456 C450 1.368 . S
C456 C455 1.523 . S
C457 C441 1.429 . S
C457 C453 1.429 . S
C457 C458 1.523 . S
C458 C442 1.368 1_655 S
C458 C454 1.368 . S
C458 C457 1.523 . S
H459 C434 0.950 . S
H460 C436 0.950 . S
H461 C437 0.949 . S
H462 C439 0.950 . S
H463 C441 0.950 . S
C464 C465 1.349 . S
C464 C466 1.327 . S
C464 H489 0.950 . S
C465 C464 1.349 . S
C465 C481 1.349 . S
C466 C464 1.327 . S
C466 C485 1.429 . S
C466 H490 0.950 . S
C467 C484 1.574 . S
C467 C486 1.368 . S
C467 H491 0.949 . S
H468 C472 0.949 . S
C469 C470 1.349 . S
C469 C471 1.327 . S
C469 H492 0.950 . S
C470 C469 1.349 . S
C470 C482 1.349 . S
C471 C469 1.327 . S
C471 C487 1.429 . S
C471 H493 0.950 . S
C472 H468 0.949 . S
C472 C480 1.574 . S
C472 C488 1.368 . S
H473 C481 0.950 . S
H474 C479 0.950 . S
H475 C480 0.949 . S
H476 C482 0.950 . S
H477 C483 0.950 . S
H478 C484 0.949 . S
C479 H474 0.950 . S
C479 C481 1.327 . S
C479 C485 1.429 . S
C480 C472 1.574 . S
C480 H475 0.949 . S
C480 C486 1.368 1_545 S
C481 C465 1.349 . S
C481 H473 0.950 . S
C481 C479 1.327 . S
C482 C470 1.349 . S
C482 H476 0.950 . S
C482 C483 1.327 . S
C483 H477 0.950 . S
C483 C482 1.327 . S
C483 C487 1.429 . S
C484 C467 1.574 . S
C484 H478 0.949 . S
C484 C488 1.368 1_565 S
C485 C466 1.429 . S
C485 C479 1.429 . S
C485 C486 1.523 . S
C486 C467 1.368 . S
C486 C480 1.368 1_565 S
C486 C485 1.523 . S
C487 C471 1.429 . S
C487 C483 1.429 . S
C487 C488 1.523 . S
C488 C472 1.368 . S
C488 C484 1.368 1_545 S
C488 C487 1.523 . S
H489 C464 0.950 . S
H490 C466 0.950 . S
H491 C467 0.949 . S
H492 C469 0.950 . S
H493 C471 0.950 . S
C494 C495 1.349 . S
C494 C496 1.327 . S
C494 H519 0.950 . S
C495 C494 1.349 . S
C495 C511 1.349 . S
C496 C494 1.327 . S
C496 C515 1.429 . S
C496 H520 0.950 . S
C497 C514 1.574 1_565 S
C497 C516 1.368 . S
C497 H521 0.949 . S
H498 C502 0.949 . S
C499 C500 1.349 . S
C499 C501 1.327 . S
C499 H522 0.950 . S
C500 C499 1.349 . S
C500 C512 1.349 . S
C501 C499 1.327 . S
C501 C517 1.429 . S
C501 H523 0.950 . S
C502 H498 0.949 . S
C502 C510 1.574 1_545 S
C502 C518 1.368 . S
H503 C511 0.950 . S
H504 C509 0.950 . S
H505 C510 0.949 . S
H506 C512 0.950 . S
H507 C513 0.950 . S
H508 C514 0.949 . S
C509 H504 0.950 . S
C509 C511 1.327 . S
C509 C515 1.429 . S
C510 C502 1.574 1_565 S
C510 H505 0.949 . S
C510 C516 1.368 1_455 S
C511 C495 1.349 . S
C511 H503 0.950 . S
C511 C509 1.327 . S
C512 C500 1.349 . S
C512 H506 0.950 . S
C512 C513 1.327 . S
C513 H507 0.950 . S
C513 C512 1.327 . S
C513 C517 1.429 . S
C514 C497 1.574 1_545 S
C514 H508 0.949 . S
C514 C518 1.368 1_655 S
C515 C496 1.429 . S
C515 C509 1.429 . S
C515 C516 1.523 . S
C516 C497 1.368 . S
C516 C510 1.368 1_655 S
C516 C515 1.523 . S
C517 C501 1.429 . S
C517 C513 1.429 . S
C517 C518 1.523 . S
C518 C502 1.368 . S
C518 C514 1.368 1_455 S
C518 C517 1.523 . S
H519 C494 0.950 . S
H520 C496 0.950 . S
H521 C497 0.949 . S
H522 C499 0.950 . S
H523 C501 0.950 . S
C524 C525 1.349 . S
C524 C526 1.327 . S
C524 H549 0.950 . S
C525 C524 1.349 . S
C525 C541 1.349 . S
C526 C524 1.327 . S
C526 C545 1.429 . S
C526 H550 0.950 . S
C527 C544 1.574 1_455 S
C527 C546 1.368 . S
C527 H551 0.949 . S
H528 C532 0.949 . S
C529 C530 1.349 . S
C529 C531 1.327 . S
C529 H552 0.950 . S
C530 C529 1.349 . S
C530 C542 1.349 . S
C531 C529 1.327 . S
C531 C547 1.429 . S
C531 H553 0.950 . S
C532 H528 0.949 . S
C532 C540 1.574 1_655 S
C532 C548 1.368 . S
H533 C541 0.950 . S
H534 C539 0.950 . S
H535 C540 0.949 . S
H536 C542 0.950 . S
H537 C543 0.950 . S
H538 C544 0.949 . S
C539 H534 0.950 . S
C539 C541 1.327 . S
C539 C545 1.429 . S
C540 C532 1.574 1_455 S
C540 H535 0.949 . S
C540 C546 1.368 . S
C541 C525 1.349 . S
C541 H533 0.950 . S
C541 C539 1.327 . S
C542 C530 1.349 . S
C542 H536 0.950 . S
C542 C543 1.327 . S
C543 H537 0.950 . S
C543 C542 1.327 . S
C543 C547 1.429 . S
C544 C527 1.574 1_655 S
C544 H538 0.949 . S
C544 C548 1.368 . S
C545 C526 1.429 . S
C545 C539 1.429 . S
C545 C546 1.523 . S
C546 C527 1.368 . S
C546 C540 1.368 . S
C546 C545 1.523 . S
C547 C531 1.429 . S
C547 C543 1.429 . S
C547 C548 1.523 . S
C548 C532 1.368 . S
C548 C544 1.368 . S
C548 C547 1.523 . S
H549 C524 0.950 . S
H550 C526 0.950 . S
H551 C527 0.949 . S
H552 C529 0.950 . S
H553 C531 0.950 . S
C554 C555 1.349 . S
C554 C556 1.327 . S
C554 H579 0.950 . S
C555 C554 1.349 . S
C555 C571 1.349 . S
C556 C554 1.327 . S
C556 C575 1.429 . S
C556 H580 0.950 . S
C557 C574 1.574 . S
C557 C576 1.368 . S
C557 H581 0.949 . S
H558 C562 0.949 . S
C559 C560 1.349 . S
C559 C561 1.327 . S
C559 H582 0.950 . S
C560 C559 1.349 . S
C560 C572 1.349 . S
C561 C559 1.327 . S
C561 C577 1.429 . S
C561 H583 0.950 . S
C562 H558 0.949 . S
C562 C570 1.574 . S
C562 C578 1.368 . S
H563 C571 0.950 . S
H564 C569 0.950 . S
H565 C570 0.949 . S
H566 C572 0.950 . S
H567 C573 0.950 . S
H568 C574 0.949 . S
C569 H564 0.950 . S
C569 C571 1.327 . S
C569 C575 1.429 . S
C570 C562 1.574 . S
C570 H565 0.949 . S
C570 C576 1.368 . S
C571 C555 1.349 . S
C571 H563 0.950 . S
C571 C569 1.327 . S
C572 C560 1.349 . S
C572 H566 0.950 . S
C572 C573 1.327 . S
C573 H567 0.950 . S
C573 C572 1.327 . S
C573 C577 1.429 . S
C574 C557 1.574 . S
C574 H568 0.949 . S
C574 C578 1.368 . S
C575 C556 1.429 . S
C575 C569 1.429 . S
C575 C576 1.523 . S
C576 C557 1.368 . S
C576 C570 1.368 . S
C576 C575 1.523 . S
C577 C561 1.429 . S
C577 C573 1.429 . S
C577 C578 1.523 . S
C578 C562 1.368 . S
C578 C574 1.368 . S
C578 C577 1.523 . S
H579 C554 0.950 . S
H580 C556 0.950 . S
H581 C557 0.949 . S
H582 C559 0.950 . S
H583 C561 0.950 . S
C584 C585 1.349 . S
C584 C586 1.327 . S
C584 H609 0.950 . S
C585 C584 1.349 . S
C585 C601 1.349 . S
C586 C584 1.327 . S
C586 C605 1.429 . S
C586 H610 0.950 . S
C587 C604 1.574 . S
C587 C606 1.368 . S
C587 H611 0.949 . S
H588 C592 0.949 . S
C589 C590 1.349 . S
C589 C591 1.327 . S
C589 H612 0.950 . S
C590 C589 1.349 . S
C590 C602 1.349 . S
C591 C589 1.327 . S
C591 C607 1.429 . S
C591 H613 0.950 . S
C592 H588 0.949 . S
C592 C600 1.574 . S
C592 C608 1.368 . S
H593 C601 0.950 . S
H594 C599 0.950 . S
H595 C600 0.949 . S
H596 C602 0.950 . S
H597 C603 0.950 . S
H598 C604 0.949 . S
C599 H594 0.950 . S
C599 C601 1.327 . S
C599 C605 1.429 . S
C600 C592 1.574 . S
C600 H595 0.949 . S
C600 C606 1.368 . S
C601 C585 1.349 . S
C601 H593 0.950 . S
C601 C599 1.327 . S
C602 C590 1.349 . S
C602 H596 0.950 . S
C602 C603 1.327 . S
C603 H597 0.950 . S
C603 C602 1.327 . S
C603 C607 1.429 . S
C604 C587 1.574 . S
C604 H598 0.949 . S
C604 C608 1.368 . S
C605 C586 1.429 . S
C605 C599 1.429 . S
C605 C606 1.523 . S
C606 C587 1.368 . S
C606 C600 1.368 . S
C606 C605 1.523 . S
C607 C591 1.429 . S
C607 C603 1.429 . S
C607 C608 1.523 . S
C608 C592 1.368 . S
C608 C604 1.368 . S
C608 C607 1.523 . S
H609 C584 0.950 . S
H610 C586 0.950 . S
H611 C587 0.949 . S
H612 C589 0.950 . S
H613 C591 0.950 . S
C614 C615 1.349 . S
C614 C616 1.327 . S
C614 H639 0.950 . S
C615 C614 1.349 . S
C615 C631 1.349 . S
C616 C614 1.327 . S
C616 C635 1.429 . S
C616 H640 0.950 . S
C617 C634 1.574 1_565 S
C617 C636 1.368 . S
C617 H641 0.949 . S
H618 C622 0.949 . S
C619 C620 1.349 . S
C619 C621 1.327 . S
C619 H642 0.950 . S
C620 C619 1.349 . S
C620 C632 1.349 . S
C621 C619 1.327 . S
C621 C637 1.429 . S
C621 H643 0.950 . S
C622 H618 0.949 . S
C622 C630 1.574 1_545 S
C622 C638 1.368 . S
H623 C631 0.950 . S
H624 C629 0.950 . S
H625 C630 0.949 . S
H626 C632 0.950 . S
H627 C633 0.950 . S
H628 C634 0.949 . S
C629 H624 0.950 . S
C629 C631 1.327 . S
C629 C635 1.429 . S
C630 C622 1.574 1_565 S
C630 H625 0.949 . S
C630 C636 1.368 . S
C631 C615 1.349 . S
C631 H623 0.950 . S
C631 C629 1.327 . S
C632 C620 1.349 . S
C632 H626 0.950 . S
C632 C633 1.327 . S
C633 H627 0.950 . S
C633 C632 1.327 . S
C633 C637 1.429 . S
C634 C617 1.574 1_545 S
C634 H628 0.949 . S
C634 C638 1.368 . S
C635 C616 1.429 . S
C635 C629 1.429 . S
C635 C636 1.523 . S
C636 C617 1.368 . S
C636 C630 1.368 . S
C636 C635 1.523 . S
C637 C621 1.429 . S
C637 C633 1.429 . S
C637 C638 1.523 . S
C638 C622 1.368 . S
C638 C634 1.368 . S
C638 C637 1.523 . S
H639 C614 0.950 . S
H640 C616 0.950 . S
H641 C617 0.949 . S
H642 C619 0.950 . S
H643 C621 0.950 . S
C644 C645 1.349 . S
C644 C646 1.327 . S
C644 H669 0.950 . S
C645 C644 1.349 . S
C645 C661 1.349 . S
C646 C644 1.327 . S
C646 C665 1.429 . S
C646 H670 0.950 . S
C647 C664 1.574 1_655 S
C647 C666 1.368 1_545 S
C647 H671 0.949 . S
H648 C652 0.949 . S
C649 C650 1.349 . S
C649 C651 1.327 . S
C649 H672 0.950 . S
C650 C649 1.349 . S
C650 C662 1.349 . S
C651 C649 1.327 . S
C651 C667 1.429 . S
C651 H673 0.950 . S
C652 H648 0.949 . S
C652 C660 1.574 1_455 S
C652 C668 1.368 1_565 S
H653 C661 0.950 . S
H654 C659 0.950 . S
H655 C660 0.949 . S
H656 C662 0.950 . S
H657 C663 0.950 . S
H658 C664 0.949 . S
C659 H654 0.950 . S
C659 C661 1.327 . S
C659 C665 1.429 . S
C660 C652 1.574 1_655 S
C660 H655 0.949 . S
C660 C666 1.368 . S
C661 C645 1.349 . S
C661 H653 0.950 . S
C661 C659 1.327 . S
C662 C650 1.349 . S
C662 H656 0.950 . S
C662 C663 1.327 . S
C663 H657 0.950 . S
C663 C662 1.327 . S
C663 C667 1.429 . S
C664 C647 1.574 1_455 S
C664 H658 0.949 . S
C664 C668 1.368 . S
C665 C646 1.429 . S
C665 C659 1.429 . S
C665 C666 1.523 . S
C666 C647 1.368 1_565 S
C666 C660 1.368 . S
C666 C665 1.523 . S
C667 C651 1.429 . S
C667 C663 1.429 . S
C667 C668 1.523 . S
C668 C652 1.368 1_545 S
C668 C664 1.368 . S
C668 C667 1.523 . S
H669 C644 0.950 . S
H670 C646 0.950 . S
H671 C647 0.949 . S
H672 C649 0.950 . S
H673 C651 0.950 . S
C674 C675 1.349 . S
C674 C676 1.327 . S
C674 H699 0.950 . S
C675 C674 1.349 . S
C675 C691 1.349 . S
C676 C674 1.327 . S
C676 C695 1.429 . S
C676 H700 0.950 . S
C677 C694 1.574 . S
C677 C696 1.368 . S
C677 H701 0.949 . S
H678 C682 0.949 . S
C679 C680 1.349 . S
C679 C681 1.327 . S
C679 H702 0.950 . S
C680 C679 1.349 . S
C680 C692 1.349 . S
C681 C679 1.327 . S
C681 C697 1.429 . S
C681 H703 0.950 . S
C682 H678 0.949 . S
C682 C690 1.574 . S
C682 C698 1.368 . S
H683 C691 0.950 . S
H684 C689 0.950 . S
H685 C690 0.949 . S
H686 C692 0.950 . S
H687 C693 0.950 . S
H688 C694 0.949 . S
C689 H684 0.950 . S
C689 C691 1.327 . S
C689 C695 1.429 . S
C690 C682 1.574 . S
C690 H685 0.949 . S
C690 C696 1.368 1_655 S
C691 C675 1.349 . S
C691 H683 0.950 . S
C691 C689 1.327 . S
C692 C680 1.349 . S
C692 H686 0.950 . S
C692 C693 1.327 . S
C693 H687 0.950 . S
C693 C692 1.327 . S
C693 C697 1.429 . S
C694 C677 1.574 . S
C694 H688 0.949 . S
C694 C698 1.368 1_455 S
C695 C676 1.429 . S
C695 C689 1.429 . S
C695 C696 1.523 . S
C696 C677 1.368 . S
C696 C690 1.368 1_455 S
C696 C695 1.523 . S
C697 C681 1.429 . S
C697 C693 1.429 . S
C697 C698 1.523 . S
C698 C682 1.368 . S
C698 C694 1.368 1_655 S
C698 C697 1.523 . S
H699 C674 0.950 . S
H700 C676 0.950 . S
H701 C677 0.949 . S
H702 C679 0.950 . S
H703 C681 0.950 . S
C704 C705 1.349 . S
C704 C706 1.327 . S
C704 H729 0.950 . S
C705 C704 1.349 . S
C705 C721 1.349 . S
C706 C704 1.327 . S
C706 C725 1.429 . S
C706 H730 0.950 . S
C707 C724 1.574 . S
C707 C726 1.368 . S
C707 H731 0.949 . S
H708 C712 0.949 . S
C709 C710 1.349 . S
C709 C711 1.327 . S
C709 H732 0.950 . S
C710 C709 1.349 . S
C710 C722 1.349 . S
C711 C709 1.327 . S
C711 C727 1.429 . S
C711 H733 0.950 . S
C712 H708 0.949 . S
C712 C720 1.574 . S
C712 C728 1.368 . S
H713 C721 0.950 . S
H714 C719 0.950 . S
H715 C720 0.949 . S
H716 C722 0.950 . S
H717 C723 0.950 . S
H718 C724 0.949 . S
C719 H714 0.950 . S
C719 C721 1.327 . S
C719 C725 1.429 . S
C720 C712 1.574 . S
C720 H715 0.949 . S
C720 C726 1.368 . S
C721 C705 1.349 . S
C721 H713 0.950 . S
C721 C719 1.327 . S
C722 C710 1.349 . S
C722 H716 0.950 . S
C722 C723 1.327 . S
C723 H717 0.950 . S
C723 C722 1.327 . S
C723 C727 1.429 . S
C724 C707 1.574 . S
C724 H718 0.949 . S
C724 C728 1.368 . S
C725 C706 1.429 . S
C725 C719 1.429 . S
C725 C726 1.523 . S
C726 C707 1.368 . S
C726 C720 1.368 . S
C726 C725 1.523 . S
C727 C711 1.429 . S
C727 C723 1.429 . S
C727 C728 1.523 . S
C728 C712 1.368 . S
C728 C724 1.368 . S
C728 C727 1.523 . S
H729 C704 0.950 . S
H730 C706 0.950 . S
H731 C707 0.949 . S
H732 C709 0.950 . S
H733 C711 0.950 . S
C734 C735 1.349 . S
C734 C736 1.327 . S
C734 H759 0.950 . S
C735 C734 1.349 . S
C735 C751 1.349 . S
C736 C734 1.327 . S
C736 C755 1.429 . S
C736 H760 0.950 . S
C737 C754 1.574 . S
C737 C756 1.368 . S
C737 H761 0.949 . S
H738 C742 0.949 . S
C739 C740 1.349 . S
C739 C741 1.327 . S
C739 H762 0.950 . S
C740 C739 1.349 . S
C740 C752 1.349 . S
C741 C739 1.327 . S
C741 C757 1.429 . S
C741 H763 0.950 . S
C742 H738 0.949 . S
C742 C750 1.574 . S
C742 C758 1.368 . S
H743 C751 0.950 . S
H744 C749 0.950 . S
H745 C750 0.949 . S
H746 C752 0.950 . S
H747 C753 0.950 . S
H748 C754 0.949 . S
C749 H744 0.950 . S
C749 C751 1.327 . S
C749 C755 1.429 . S
C750 C742 1.574 . S
C750 H745 0.949 . S
C750 C756 1.368 . S
C751 C735 1.349 . S
C751 H743 0.950 . S
C751 C749 1.327 . S
C752 C740 1.349 . S
C752 H746 0.950 . S
C752 C753 1.327 . S
C753 H747 0.950 . S
C753 C752 1.327 . S
C753 C757 1.429 . S
C754 C737 1.574 . S
C754 H748 0.949 . S
C754 C758 1.368 . S
C755 C736 1.429 . S
C755 C749 1.429 . S
C755 C756 1.523 . S
C756 C737 1.368 . S
C756 C750 1.368 . S
C756 C755 1.523 . S
C757 C741 1.429 . S
C757 C753 1.429 . S
C757 C758 1.523 . S
C758 C742 1.368 . S
C758 C754 1.368 . S
C758 C757 1.523 . S
H759 C734 0.950 . S
H760 C736 0.950 . S
H761 C737 0.949 . S
H762 C739 0.950 . S
H763 C741 0.950 . S
C764 C765 1.349 . S
C764 C766 1.327 . S
C764 H789 0.950 . S
C765 C764 1.349 . S
C765 C781 1.349 . S
C766 C764 1.327 . S
C766 C785 1.429 . S
C766 H790 0.950 . S
C767 C784 1.574 . S
C767 C786 1.368 . S
C767 H791 0.949 . S
H768 C772 0.949 . S
C769 C770 1.349 . S
C769 C771 1.327 . S
C769 H792 0.950 . S
C770 C769 1.349 . S
C770 C782 1.349 . S
C771 C769 1.327 . S
C771 C787 1.429 . S
C771 H793 0.950 . S
C772 H768 0.949 . S
C772 C780 1.574 . S
C772 C788 1.368 . S
H773 C781 0.950 . S
H774 C779 0.950 . S
H775 C780 0.949 . S
H776 C782 0.950 . S
H777 C783 0.950 . S
H778 C784 0.949 . S
C779 H774 0.950 . S
C779 C781 1.327 . S
C779 C785 1.429 . S
C780 C772 1.574 . S
C780 H775 0.949 . S
C780 C786 1.368 . S
C781 C765 1.349 . S
C781 H773 0.950 . S
C781 C779 1.327 . S
C782 C770 1.349 . S
C782 H776 0.950 . S
C782 C783 1.327 . S
C783 H777 0.950 . S
C783 C782 1.327 . S
C783 C787 1.429 . S
C784 C767 1.574 . S
C784 H778 0.949 . S
C784 C788 1.368 . S
C785 C766 1.429 . S
C785 C779 1.429 . S
C785 C786 1.523 . S
C786 C767 1.368 . S
C786 C780 1.368 . S
C786 C785 1.523 . S
C787 C771 1.429 . S
C787 C783 1.429 . S
C787 C788 1.523 . S
C788 C772 1.368 . S
C788 C784 1.368 . S
C788 C787 1.523 . S
H789 C764 0.950 . S
H790 C766 0.950 . S
H791 C767 0.949 . S
H792 C769 0.950 . S
H793 C771 0.950 . S
C794 C795 1.349 . S
C794 C796 1.327 . S
C794 H819 0.950 . S
C795 C794 1.349 . S
C795 C811 1.349 . S
C796 C794 1.327 . S
C796 C815 1.429 . S
C796 H820 0.950 . S
C797 C814 1.574 . S
C797 C816 1.368 . S
C797 H821 0.949 . S
H798 C802 0.949 . S
C799 C800 1.349 . S
C799 C801 1.327 . S
C799 H822 0.950 . S
C800 C799 1.349 . S
C800 C812 1.349 . S
C801 C799 1.327 . S
C801 C817 1.429 . S
C801 H823 0.950 . S
C802 H798 0.949 . S
C802 C810 1.574 . S
C802 C818 1.368 . S
H803 C811 0.950 . S
H804 C809 0.950 . S
H805 C810 0.949 . S
H806 C812 0.950 . S
H807 C813 0.950 . S
H808 C814 0.949 . S
C809 H804 0.950 . S
C809 C811 1.327 . S
C809 C815 1.429 . S
C810 C802 1.574 . S
C810 H805 0.949 . S
C810 C816 1.368 . S
C811 C795 1.349 . S
C811 H803 0.950 . S
C811 C809 1.327 . S
C812 C800 1.349 . S
C812 H806 0.950 . S
C812 C813 1.327 . S
C813 H807 0.950 . S
C813 C812 1.327 . S
C813 C817 1.429 . S
C814 C797 1.574 . S
C814 H808 0.949 . S
C814 C818 1.368 . S
C815 C796 1.429 . S
C815 C809 1.429 . S
C815 C816 1.523 . S
C816 C797 1.368 . S
C816 C810 1.368 . S
C816 C815 1.523 . S
C817 C801 1.429 . S
C817 C813 1.429 . S
C817 C818 1.523 . S
C818 C802 1.368 . S
C818 C814 1.368 . S
C818 C817 1.523 . S
H819 C794 0.950 . S
H820 C796 0.950 . S
H821 C797 0.949 . S
H822 C799 0.950 . S
H823 C801 0.950 . S
C824 C825 1.349 . S
C824 C826 1.327 . S
C824 H849 0.950 . S
C825 C824 1.349 . S
C825 C841 1.349 . S
C826 C824 1.327 . S
C826 C845 1.429 . S
C826 H850 0.950 . S
C827 C844 1.574 . S
C827 C846 1.368 . S
C827 H851 0.949 . S
H828 C832 0.949 . S
C829 C830 1.349 . S
C829 C831 1.327 . S
C829 H852 0.950 . S
C830 C829 1.349 . S
C830 C842 1.349 . S
C831 C829 1.327 . S
C831 C847 1.429 . S
C831 H853 0.950 . S
C832 H828 0.949 . S
C832 C840 1.574 . S
C832 C848 1.368 . S
H833 C841 0.950 . S
H834 C839 0.950 . S
H835 C840 0.949 . S
H836 C842 0.950 . S
H837 C843 0.950 . S
H838 C844 0.949 . S
C839 H834 0.950 . S
C839 C841 1.327 . S
C839 C845 1.429 . S
C840 C832 1.574 . S
C840 H835 0.949 . S
C840 C846 1.368 . S
C841 C825 1.349 . S
C841 H833 0.950 . S
C841 C839 1.327 . S
C842 C830 1.349 . S
C842 H836 0.950 . S
C842 C843 1.327 . S
C843 H837 0.950 . S
C843 C842 1.327 . S
C843 C847 1.429 . S
C844 C827 1.574 . S
C844 H838 0.949 . S
C844 C848 1.368 . S
C845 C826 1.429 . S
C845 C839 1.429 . S
C845 C846 1.523 . S
C846 C827 1.368 . S
C846 C840 1.368 . S
C846 C845 1.523 . S
C847 C831 1.429 . S
C847 C843 1.429 . S
C847 C848 1.523 . S
C848 C832 1.368 . S
C848 C844 1.368 . S
C848 C847 1.523 . S
H849 C824 0.950 . S
H850 C826 0.950 . S
H851 C827 0.949 . S
H852 C829 0.950 . S
H853 C831 0.950 . S
C854 C855 1.349 . S
C854 C856 1.327 . S
C854 H879 0.950 . S
C855 C854 1.349 . S
C855 C871 1.349 . S
C856 C854 1.327 . S
C856 C875 1.429 . S
C856 H880 0.950 . S
C857 C874 1.574 . S
C857 C876 1.368 . S
C857 H881 0.949 . S
H858 C862 0.949 . S
C859 C860 1.349 . S
C859 C861 1.327 . S
C859 H882 0.950 . S
C860 C859 1.349 . S
C860 C872 1.349 . S
C861 C859 1.327 . S
C861 C877 1.429 . S
C861 H883 0.950 . S
C862 H858 0.949 . S
C862 C870 1.574 . S
C862 C878 1.368 . S
H863 C871 0.950 . S
H864 C869 0.950 . S
H865 C870 0.949 . S
H866 C872 0.950 . S
H867 C873 0.950 . S
H868 C874 0.949 . S
C869 H864 0.950 . S
C869 C871 1.327 . S
C869 C875 1.429 . S
C870 C862 1.574 . S
C870 H865 0.949 . S
C870 C876 1.368 . S
C871 C855 1.349 . S
C871 H863 0.950 . S
C871 C869 1.327 . S
C872 C860 1.349 . S
C872 H866 0.950 . S
C872 C873 1.327 . S
C873 H867 0.950 . S
C873 C872 1.327 . S
C873 C877 1.429 . S
C874 C857 1.574 . S
C874 H868 0.949 . S
C874 C878 1.368 . S
C875 C856 1.429 . S
C875 C869 1.429 . S
C875 C876 1.523 . S
C876 C857 1.368 . S
C876 C870 1.368 . S
C876 C875 1.523 . S
C877 C861 1.429 . S
C877 C873 1.429 . S
C877 C878 1.523 . S
C878 C862 1.368 . S
C878 C874 1.368 . S
C878 C877 1.523 . S
H879 C854 0.950 . S
H880 C856 0.950 . S
H881 C857 0.949 . S
H882 C859 0.950 . S
H883 C861 0.950 . S
C884 C885 1.349 . S
C884 C886 1.327 . S
C884 H909 0.950 . S
C885 C884 1.349 . S
C885 C901 1.349 . S
C886 C884 1.327 . S
C886 C905 1.429 . S
C886 H910 0.950 . S
C887 C904 1.574 . S
C887 C906 1.368 . S
C887 H911 0.949 . S
H888 C892 0.949 . S
C889 C890 1.349 . S
C889 C891 1.327 . S
C889 H912 0.950 . S
C890 C889 1.349 . S
C890 C902 1.349 . S
C891 C889 1.327 . S
C891 C907 1.429 . S
C891 H913 0.950 . S
C892 H888 0.949 . S
C892 C900 1.574 . S
C892 C908 1.368 . S
H893 C901 0.950 . S
H894 C899 0.950 . S
H895 C900 0.949 . S
H896 C902 0.950 . S
H897 C903 0.950 . S
H898 C904 0.949 . S
C899 H894 0.950 . S
C899 C901 1.327 . S
C899 C905 1.429 . S
C900 C892 1.574 . S
C900 H895 0.949 . S
C900 C906 1.368 . S
C901 C885 1.349 . S
C901 H893 0.950 . S
C901 C899 1.327 . S
C902 C890 1.349 . S
C902 H896 0.950 . S
C902 C903 1.327 . S
C903 H897 0.950 . S
C903 C902 1.327 . S
C903 C907 1.429 . S
C904 C887 1.574 . S
C904 H898 0.949 . S
C904 C908 1.368 . S
C905 C886 1.429 . S
C905 C899 1.429 . S
C905 C906 1.523 . S
C906 C887 1.368 . S
C906 C900 1.368 . S
C906 C905 1.523 . S
C907 C891 1.429 . S
C907 C903 1.429 . S
C907 C908 1.523 . S
C908 C892 1.368 . S
C908 C904 1.368 . S
C908 C907 1.523 . S
H909 C884 0.950 . S
H910 C886 0.950 . S
H911 C887 0.949 . S
H912 C889 0.950 . S
H913 C891 0.950 . S
C914 C915 1.349 . S
C914 C916 1.327 . S
C914 H939 0.950 . S
C915 C914 1.349 . S
C915 C931 1.349 . S
C916 C914 1.327 . S
C916 C935 1.429 . S
C916 H940 0.950 . S
C917 C934 1.574 . S
C917 C936 1.368 . S
C917 H941 0.949 . S
H918 C922 0.949 . S
C919 C920 1.349 . S
C919 C921 1.327 . S
C919 H942 0.950 . S
C920 C919 1.349 . S
C920 C932 1.349 . S
C921 C919 1.327 . S
C921 C937 1.429 . S
C921 H943 0.950 . S
C922 H918 0.949 . S
C922 C930 1.574 . S
C922 C938 1.368 . S
H923 C931 0.950 . S
H924 C929 0.950 . S
H925 C930 0.949 . S
H926 C932 0.950 . S
H927 C933 0.950 . S
H928 C934 0.949 . S
C929 H924 0.950 . S
C929 C931 1.327 . S
C929 C935 1.429 . S
C930 C922 1.574 . S
C930 H925 0.949 . S
C930 C936 1.368 . S
C931 C915 1.349 . S
C931 H923 0.950 . S
C931 C929 1.327 . S
C932 C920 1.349 . S
C932 H926 0.950 . S
C932 C933 1.327 . S
C933 H927 0.950 . S
C933 C932 1.327 . S
C933 C937 1.429 . S
C934 C917 1.574 . S
C934 H928 0.949 . S
C934 C938 1.368 . S
C935 C916 1.429 . S
C935 C929 1.429 . S
C935 C936 1.523 . S
C936 C917 1.368 . S
C936 C930 1.368 . S
C936 C935 1.523 . S
C937 C921 1.429 . S
C937 C933 1.429 . S
C937 C938 1.523 . S
C938 C922 1.368 . S
C938 C934 1.368 . S
C938 C937 1.523 . S
H939 C914 0.950 . S
H940 C916 0.950 . S
H941 C917 0.949 . S
H942 C919 0.950 . S
H943 C921 0.950 . S
C944 C945 1.349 . S
C944 C946 1.327 . S
C944 H969 0.950 . S
C945 C944 1.349 . S
C945 C961 1.349 . S
C946 C944 1.327 . S
C946 C965 1.429 . S
C946 H970 0.950 . S
C947 C964 1.574 . S
C947 C966 1.368 . S
C947 H971 0.949 . S
H948 C952 0.949 . S
C949 C950 1.349 . S
C949 C951 1.327 . S
C949 H972 0.950 . S
C950 C949 1.349 . S
C950 C962 1.349 . S
C951 C949 1.327 . S
C951 C967 1.429 . S
C951 H973 0.950 . S
C952 H948 0.949 . S
C952 C960 1.574 . S
C952 C968 1.368 . S
H953 C961 0.950 . S
H954 C959 0.950 . S
H955 C960 0.949 . S
H956 C962 0.950 . S
H957 C963 0.950 . S
H958 C964 0.949 . S
C959 H954 0.950 . S
C959 C961 1.327 . S
C959 C965 1.429 . S
C960 C952 1.574 . S
C960 H955 0.949 . S
C960 C966 1.368 . S
C961 C945 1.349 . S
C961 H953 0.950 . S
C961 C959 1.327 . S
C962 C950 1.349 . S
C962 H956 0.950 . S
C962 C963 1.327 . S
C963 H957 0.950 . S
C963 C962 1.327 . S
C963 C967 1.429 . S
C964 C947 1.574 . S
C964 H958 0.949 . S
C964 C968 1.368 . S
C965 C946 1.429 . S
C965 C959 1.429 . S
C965 C966 1.523 . S
C966 C947 1.368 . S
C966 C960 1.368 . S
C966 C965 1.523 . S
C967 C951 1.429 . S
C967 C963 1.429 . S
C967 C968 1.523 . S
C968 C952 1.368 . S
C968 C964 1.368 . S
C968 C967 1.523 . S
H969 C944 0.950 . S
H970 C946 0.950 . S
H971 C947 0.949 . S
H972 C949 0.950 . S
H973 C951 0.950 . S
C974 C975 1.349 . S
C974 C976 1.327 . S
C974 H999 0.950 . S
C975 C974 1.349 . S
C975 C991 1.349 . S
C976 C974 1.327 . S
C976 C995 1.429 . S
C976 H1000 0.950 . S
C977 C994 1.574 . S
C977 C996 1.368 . S
C977 H1001 0.949 . S
H978 C982 0.949 . S
C979 C980 1.349 . S
C979 C981 1.327 . S
C979 H1002 0.950 . S
C980 C979 1.349 . S
C980 C992 1.349 . S
C981 C979 1.327 . S
C981 C997 1.429 . S
C981 H1003 0.950 . S
C982 H978 0.949 . S
C982 C990 1.574 . S
C982 C998 1.368 . S
H983 C991 0.950 . S
H984 C989 0.950 . S
H985 C990 0.949 . S
H986 C992 0.950 . S
H987 C993 0.950 . S
H988 C994 0.949 . S
C989 H984 0.950 . S
C989 C991 1.327 . S
C989 C995 1.429 . S
C990 C982 1.574 . S
C990 H985 0.949 . S
C990 C996 1.368 . S
C991 C975 1.349 . S
C991 H983 0.950 . S
C991 C989 1.327 . S
C992 C980 1.349 . S
C992 H986 0.950 . S
C992 C993 1.327 . S
C993 H987 0.950 . S
C993 C992 1.327 . S
C993 C997 1.429 . S
C994 C977 1.574 . S
C994 H988 0.949 . S
C994 C998 1.368 . S
C995 C976 1.429 . S
C995 C989 1.429 . S
C995 C996 1.523 . S
C996 C977 1.368 . S
C996 C990 1.368 . S
C996 C995 1.523 . S
C997 C981 1.429 . S
C997 C993 1.429 . S
C997 C998 1.523 . S
C998 C982 1.368 . S
C998 C994 1.368 . S
C998 C997 1.523 . S
H999 C974 0.950 . S
H1000 C976 0.950 . S
H1001 C977 0.949 . S
H1002 C979 0.950 . S
H1003 C981 0.950 . S
C1004 C1005 1.349 . S
C1004 C1006 1.327 . S
C1004 H1029 0.950 . S
C1005 C1004 1.349 . S
C1005 C1021 1.349 . S
C1006 C1004 1.327 . S
C1006 C1025 1.429 . S
C1006 H1030 0.950 . S
C1007 C1024 1.574 . S
C1007 C1026 1.368 . S
C1007 H1031 0.949 . S
H1008 C1012 0.949 . S
C1009 C1010 1.349 . S
C1009 C1011 1.327 . S
C1009 H1032 0.950 . S
C1010 C1009 1.349 . S
C1010 C1022 1.349 . S
C1011 C1009 1.327 . S
C1011 C1027 1.429 . S
C1011 H1033 0.950 . S
C1012 H1008 0.949 . S
C1012 C1020 1.574 . S
C1012 C1028 1.368 . S
H1013 C1021 0.950 . S
H1014 C1019 0.950 . S
H1015 C1020 0.949 . S
H1016 C1022 0.950 . S
H1017 C1023 0.950 . S
H1018 C1024 0.949 . S
C1019 H1014 0.950 . S
C1019 C1021 1.327 . S
C1019 C1025 1.429 . S
C1020 C1012 1.574 . S
C1020 H1015 0.949 . S
C1020 C1026 1.368 . S
C1021 C1005 1.349 . S
C1021 H1013 0.950 . S
C1021 C1019 1.327 . S
C1022 C1010 1.349 . S
C1022 H1016 0.950 . S
C1022 C1023 1.327 . S
C1023 H1017 0.950 . S
C1023 C1022 1.327 . S
C1023 C1027 1.429 . S
C1024 C1007 1.574 . S
C1024 H1018 0.949 . S
C1024 C1028 1.368 . S
C1025 C1006 1.429 . S
C1025 C1019 1.429 . S
C1025 C1026 1.523 . S
C1026 C1007 1.368 . S
C1026 C1020 1.368 . S
C1026 C1025 1.523 . S
C1027 C1011 1.429 . S
C1027 C1023 1.429 . S
C1027 C1028 1.523 . S
C1028 C1012 1.368 . S
C1028 C1024 1.368 . S
C1028 C1027 1.523 . S
H1029 C1004 0.950 . S
H1030 C1006 0.950 . S
H1031 C1007 0.949 . S
H1032 C1009 0.950 . S
H1033 C1011 0.950 . S
C1034 C1035 1.349 . S
C1034 C1036 1.327 . S
C1034 H1059 0.950 . S
C1035 C1034 1.349 . S
C1035 C1051 1.349 . S
C1036 C1034 1.327 . S
C1036 C1055 1.429 . S
C1036 H1060 0.950 . S
C1037 C1054 1.574 1_556 S
C1037 C1056 1.368 . S
C1037 H1061 0.949 . S
H1038 C1042 0.949 . S
C1039 C1040 1.349 . S
C1039 C1041 1.327 . S
C1039 H1062 0.950 . S
C1040 C1039 1.349 . S
C1040 C1052 1.349 . S
C1041 C1039 1.327 . S
C1041 C1057 1.429 . S
C1041 H1063 0.950 . S
C1042 H1038 0.949 . S
C1042 C1050 1.574 1_554 S
C1042 C1058 1.368 . S
H1043 C1051 0.950 . S
H1044 C1049 0.950 . S
H1045 C1050 0.949 . S
H1046 C1052 0.950 . S
H1047 C1053 0.950 . S
H1048 C1054 0.949 . S
C1049 H1044 0.950 . S
C1049 C1051 1.327 . S
C1049 C1055 1.429 . S
C1050 C1042 1.574 1_556 S
C1050 H1045 0.949 . S
C1050 C1056 1.368 . S
C1051 C1035 1.349 . S
C1051 H1043 0.950 . S
C1051 C1049 1.327 . S
C1052 C1040 1.349 . S
C1052 H1046 0.950 . S
C1052 C1053 1.327 . S
C1053 H1047 0.950 . S
C1053 C1052 1.327 . S
C1053 C1057 1.429 . S
C1054 C1037 1.574 1_554 S
C1054 H1048 0.949 . S
C1054 C1058 1.368 . S
C1055 C1036 1.429 . S
C1055 C1049 1.429 . S
C1055 C1056 1.523 . S
C1056 C1037 1.368 . S
C1056 C1050 1.368 . S
C1056 C1055 1.523 . S
C1057 C1041 1.429 . S
C1057 C1053 1.429 . S
C1057 C1058 1.523 . S
C1058 C1042 1.368 . S
C1058 C1054 1.368 . S
C1058 C1057 1.523 . S
H1059 C1034 0.950 . S
H1060 C1036 0.950 . S
H1061 C1037 0.949 . S
H1062 C1039 0.950 . S
H1063 C1041 0.950 . S
C1064 C1065 1.349 . S
C1064 C1066 1.327 . S
C1064 H1089 0.950 . S
C1065 C1064 1.349 . S
C1065 C1081 1.349 . S
C1066 C1064 1.327 . S
C1066 C1085 1.429 . S
C1066 H1090 0.950 . S
C1067 C1084 1.574 1_554 S
C1067 C1086 1.368 . S
C1067 H1091 0.949 . S
H1068 C1072 0.949 . S
C1069 C1070 1.349 . S
C1069 C1071 1.327 . S
C1069 H1092 0.950 . S
C1070 C1069 1.349 . S
C1070 C1082 1.349 . S
C1071 C1069 1.327 . S
C1071 C1087 1.429 . S
C1071 H1093 0.950 . S
C1072 H1068 0.949 . S
C1072 C1080 1.574 1_556 S
C1072 C1088 1.368 . S
H1073 C1081 0.950 . S
H1074 C1079 0.950 . S
H1075 C1080 0.949 . S
H1076 C1082 0.950 . S
H1077 C1083 0.950 . S
H1078 C1084 0.949 . S
C1079 H1074 0.950 . S
C1079 C1081 1.327 . S
C1079 C1085 1.429 . S
C1080 C1072 1.574 1_554 S
C1080 H1075 0.949 . S
C1080 C1086 1.368 . S
C1081 C1065 1.349 . S
C1081 H1073 0.950 . S
C1081 C1079 1.327 . S
C1082 C1070 1.349 . S
C1082 H1076 0.950 . S
C1082 C1083 1.327 . S
C1083 H1077 0.950 . S
C1083 C1082 1.327 . S
C1083 C1087 1.429 . S
C1084 C1067 1.574 1_556 S
C1084 H1078 0.949 . S
C1084 C1088 1.368 . S
C1085 C1066 1.429 . S
C1085 C1079 1.429 . S
C1085 C1086 1.523 . S
C1086 C1067 1.368 . S
C1086 C1080 1.368 . S
C1086 C1085 1.523 . S
C1087 C1071 1.429 . S
C1087 C1083 1.429 . S
C1087 C1088 1.523 . S
C1088 C1072 1.368 . S
C1088 C1084 1.368 . S
C1088 C1087 1.523 . S
H1089 C1064 0.950 . S
H1090 C1066 0.950 . S
H1091 C1067 0.949 . S
H1092 C1069 0.950 . S
H1093 C1071 0.950 . S
C1094 C1095 1.349 . S
C1094 C1096 1.327 . S
C1094 H1119 0.950 . S
C1095 C1094 1.349 . S
C1095 C1111 1.349 . S
C1096 C1094 1.327 . S
C1096 C1115 1.429 . S
C1096 H1120 0.950 . S
C1097 C1114 1.574 . S
C1097 C1116 1.368 . S
C1097 H1121 0.949 . S
H1098 C1102 0.949 . S
C1099 C1100 1.349 . S
C1099 C1101 1.327 . S
C1099 H1122 0.950 . S
C1100 C1099 1.349 . S
C1100 C1112 1.349 . S
C1101 C1099 1.327 . S
C1101 C1117 1.429 . S
C1101 H1123 0.950 . S
C1102 H1098 0.949 . S
C1102 C1110 1.574 . S
C1102 C1118 1.368 . S
H1103 C1111 0.950 . S
H1104 C1109 0.950 . S
H1105 C1110 0.949 . S
H1106 C1112 0.950 . S
H1107 C1113 0.950 . S
H1108 C1114 0.949 . S
C1109 H1104 0.950 . S
C1109 C1111 1.327 . S
C1109 C1115 1.429 . S
C1110 C1102 1.574 . S
C1110 H1105 0.949 . S
C1110 C1116 1.368 . S
C1111 C1095 1.349 . S
C1111 H1103 0.950 . S
C1111 C1109 1.327 . S
C1112 C1100 1.349 . S
C1112 H1106 0.950 . S
C1112 C1113 1.327 . S
C1113 H1107 0.950 . S
C1113 C1112 1.327 . S
C1113 C1117 1.429 . S
C1114 C1097 1.574 . S
C1114 H1108 0.949 . S
C1114 C1118 1.368 . S
C1115 C1096 1.429 . S
C1115 C1109 1.429 . S
C1115 C1116 1.523 . S
C1116 C1097 1.368 . S
C1116 C1110 1.368 . S
C1116 C1115 1.523 . S
C1117 C1101 1.429 . S
C1117 C1113 1.429 . S
C1117 C1118 1.523 . S
C1118 C1102 1.368 . S
C1118 C1114 1.368 . S
C1118 C1117 1.523 . S
H1119 C1094 0.950 . S
H1120 C1096 0.950 . S
H1121 C1097 0.949 . S
H1122 C1099 0.950 . S
H1123 C1101 0.950 . S
C1124 C1125 1.349 . S
C1124 C1126 1.327 . S
C1124 H1149 0.950 . S
C1125 C1124 1.349 . S
C1125 C1141 1.349 . S
C1126 C1124 1.327 . S
C1126 C1145 1.429 . S
C1126 H1150 0.950 . S
C1127 C1144 1.574 . S
C1127 C1146 1.368 . S
C1127 H1151 0.949 . S
H1128 C1132 0.949 . S
C1129 C1130 1.349 . S
C1129 C1131 1.327 . S
C1129 H1152 0.950 . S
C1130 C1129 1.349 . S
C1130 C1142 1.349 . S
C1131 C1129 1.327 . S
C1131 C1147 1.429 . S
C1131 H1153 0.950 . S
C1132 H1128 0.949 . S
C1132 C1140 1.574 . S
C1132 C1148 1.368 . S
H1133 C1141 0.950 . S
H1134 C1139 0.950 . S
H1135 C1140 0.949 . S
H1136 C1142 0.950 . S
H1137 C1143 0.950 . S
H1138 C1144 0.949 . S
C1139 H1134 0.950 . S
C1139 C1141 1.327 . S
C1139 C1145 1.429 . S
C1140 C1132 1.574 . S
C1140 H1135 0.949 . S
C1140 C1146 1.368 . S
C1141 C1125 1.349 . S
C1141 H1133 0.950 . S
C1141 C1139 1.327 . S
C1142 C1130 1.349 . S
C1142 H1136 0.950 . S
C1142 C1143 1.327 . S
C1143 H1137 0.950 . S
C1143 C1142 1.327 . S
C1143 C1147 1.429 . S
C1144 C1127 1.574 . S
C1144 H1138 0.949 . S
C1144 C1148 1.368 . S
C1145 C1126 1.429 . S
C1145 C1139 1.429 . S
C1145 C1146 1.523 . S
C1146 C1127 1.368 . S
C1146 C1140 1.368 . S
C1146 C1145 1.523 . S
C1147 C1131 1.429 . S
C1147 C1143 1.429 . S
C1147 C1148 1.523 . S
C1148 C1132 1.368 . S
C1148 C1144 1.368 . S
C1148 C1147 1.523 . S
H1149 C1124 0.950 . S
H1150 C1126 0.950 . S
H1151 C1127 0.949 . S
H1152 C1129 0.950 . S
H1153 C1131 0.950 . S
C1154 C1155 1.349 . S
C1154 C1156 1.327 . S
C1154 H1179 0.950 . S
C1155 C1154 1.349 . S
C1155 C1171 1.349 . S
C1156 C1154 1.327 . S
C1156 C1175 1.429 . S
C1156 H1180 0.950 . S
C1157 C1174 1.574 . S
C1157 C1176 1.368 . S
C1157 H1181 0.949 . S
H1158 C1162 0.949 . S
C1159 C1160 1.349 . S
C1159 C1161 1.327 . S
C1159 H1182 0.950 . S
C1160 C1159 1.349 . S
C1160 C1172 1.349 . S
C1161 C1159 1.327 . S
C1161 C1177 1.429 . S
C1161 H1183 0.950 . S
C1162 H1158 0.949 . S
C1162 C1170 1.574 . S
C1162 C1178 1.368 . S
H1163 C1171 0.950 . S
H1164 C1169 0.950 . S
H1165 C1170 0.949 . S
H1166 C1172 0.950 . S
H1167 C1173 0.950 . S
H1168 C1174 0.949 . S
C1169 H1164 0.950 . S
C1169 C1171 1.327 . S
C1169 C1175 1.429 . S
C1170 C1162 1.574 . S
C1170 H1165 0.949 . S
C1170 C1176 1.368 . S
C1171 C1155 1.349 . S
C1171 H1163 0.950 . S
C1171 C1169 1.327 . S
C1172 C1160 1.349 . S
C1172 H1166 0.950 . S
C1172 C1173 1.327 . S
C1173 H1167 0.950 . S
C1173 C1172 1.327 . S
C1173 C1177 1.429 . S
C1174 C1157 1.574 . S
C1174 H1168 0.949 . S
C1174 C1178 1.368 . S
C1175 C1156 1.429 . S
C1175 C1169 1.429 . S
C1175 C1176 1.523 . S
C1176 C1157 1.368 . S
C1176 C1170 1.368 . S
C1176 C1175 1.523 . S
C1177 C1161 1.429 . S
C1177 C1173 1.429 . S
C1177 C1178 1.523 . S
C1178 C1162 1.368 . S
C1178 C1174 1.368 . S
C1178 C1177 1.523 . S
H1179 C1154 0.950 . S
H1180 C1156 0.950 . S
H1181 C1157 0.949 . S
H1182 C1159 0.950 . S
H1183 C1161 0.950 . S
C225 C151 1.525 . S
C230 C11 1.525 . S
C255 C25 1.525 . S
C260 C165 1.525 . S
C285 C123 1.525 . S
C290 C39 1.525 . S
C315 C137 1.525 . S
C320 C53 1.525 . S
C345 C67 1.525 . S
C350 C207 1.525 . S
C375 C221 1.525 . S
C380 C81 1.525 . S
C405 C95 1.525 . S
C410 C179 1.525 . S
C435 C193 1.525 . S
C440 C109 1.525 . S
C465 C145 1.564 . S
C470 C5 1.564 . S
C495 C19 1.564 . S
C500 C159 1.564 . S
C525 C33 1.564 . S
C530 C117 1.564 . S
C555 C47 1.564 . S
C560 C131 1.564 . S
C585 C61 1.564 . S
C590 C201 1.564 . S
C615 C75 1.564 . S
C620 C215 1.564 . S
C645 C173 1.564 . S
C650 C89 1.564 . S
C675 C187 1.564 . S
C680 C103 1.564 . S
C705 C9 1.135 . S
C710 C93 1.135 . S
C735 C23 1.135 . S
C740 C107 1.135 . S
C765 C37 1.136 . S
C770 C65 1.136 . S
C795 C51 1.136 . S
C800 C79 1.136 . S
C825 C121 1.135 . S
C830 C205 1.135 . S
C855 C219 1.135 . S
C860 C135 1.135 . S
C885 C149 1.136 . S
C890 C177 1.136 . S
C915 C191 1.136 . S
C920 C163 1.136 . S
C945 C0 1.111 . S
C950 C210 1.111 . S
C975 C168 1.111 . S
C980 C14 1.111 . S
C1005 C182 1.110 . S
C1010 C28 1.110 . S
C1035 C196 1.110 . S
C1040 C42 1.110 . S
C1065 C126 1.111 . S
C1070 C56 1.111 . S
C1095 C140 1.110 . S
C1100 C70 1.110 . S
C1125 C84 1.111 . S
C1130 C154 1.110 . S
C1155 C98 1.111 . S
C1160 C112 1.111 . S
