# Generated by pormake.
# Topology whz, (6)-cn, num edge types: 1
# Building blocks:
#     Node 0, Type 0, BuildingBlock: BETDEL_clean_sbu_0, # of connection points: 6
#     Node 1, Type 0, BuildingBlock: BETDEL_clean_sbu_0, # of connection points: 6
#     Node 2, Type 0, BuildingBlock: BETDEL_clean_sbu_0, # of connection points: 6
#     Node 3, Type 0, BuildingBlock: BETDEL_clean_sbu_0, # of connection points: 6
#     Node 4, Type 0, BuildingBlock: BETDEL_clean_sbu_0, # of connection points: 6
#     Node 5, Type 0, BuildingBlock: BETDEL_clean_sbu_0, # of connection points: 6
#     Node 6, Type 0, BuildingBlock: BETDEL_clean_sbu_0, # of connection points: 6
#     Node 7, Type 0, BuildingBlock: BETDEL_clean_sbu_0, # of connection points: 6
#     Node 8, Type 0, BuildingBlock: BETDEL_clean_sbu_0, # of connection points: 6
#     Node 9, Type 0, BuildingBlock: BETDEL_clean_sbu_0, # of connection points: 6
#     Node 10, Type 0, BuildingBlock: BETDEL_clean_sbu_0, # of connection points: 6
#     Node 11, Type 0, BuildingBlock: BETDEL_clean_sbu_0, # of connection points: 6
#     Node 12, Type 0, BuildingBlock: BETDEL_clean_sbu_0, # of connection points: 6
#     Node 13, Type 0, BuildingBlock: BETDEL_clean_sbu_0, # of connection points: 6
#     Node 14, Type 0, BuildingBlock: BETDEL_clean_sbu_0, # of connection points: 6
#     Node 15, Type 0, BuildingBlock: BETDEL_clean_sbu_0, # of connection points: 6
#     Edge 16, Type (0, 0), BuildingBlock: EZIPEK_clean_linker_0, # of connection points: 2
#     Edge 17, Type (0, 0), BuildingBlock: EZIPEK_clean_linker_0, # of connection points: 2
#     Edge 18, Type (0, 0), BuildingBlock: EZIPEK_clean_linker_0, # of connection points: 2
#     Edge 19, Type (0, 0), BuildingBlock: EZIPEK_clean_linker_0, # of connection points: 2
#     Edge 20, Type (0, 0), BuildingBlock: EZIPEK_clean_linker_0, # of connection points: 2
#     Edge 21, Type (0, 0), BuildingBlock: EZIPEK_clean_linker_0, # of connection points: 2
#     Edge 22, Type (0, 0), BuildingBlock: EZIPEK_clean_linker_0, # of connection points: 2
#     Edge 23, Type (0, 0), BuildingBlock: EZIPEK_clean_linker_0, # of connection points: 2
#     Edge 24, Type (0, 0), BuildingBlock: EZIPEK_clean_linker_0, # of connection points: 2
#     Edge 25, Type (0, 0), BuildingBlock: EZIPEK_clean_linker_0, # of connection points: 2
#     Edge 26, Type (0, 0), BuildingBlock: EZIPEK_clean_linker_0, # of connection points: 2
#     Edge 27, Type (0, 0), BuildingBlock: EZIPEK_clean_linker_0, # of connection points: 2
#     Edge 28, Type (0, 0), BuildingBlock: EZIPEK_clean_linker_0, # of connection points: 2
#     Edge 29, Type (0, 0), BuildingBlock: EZIPEK_clean_linker_0, # of connection points: 2
#     Edge 30, Type (0, 0), BuildingBlock: EZIPEK_clean_linker_0, # of connection points: 2
#     Edge 31, Type (0, 0), BuildingBlock: EZIPEK_clean_linker_0, # of connection points: 2
#     Edge 32, Type (0, 0), BuildingBlock: EZIPEK_clean_linker_0, # of connection points: 2
#     Edge 33, Type (0, 0), BuildingBlock: EZIPEK_clean_linker_0, # of connection points: 2
#     Edge 34, Type (0, 0), BuildingBlock: EZIPEK_clean_linker_0, # of connection points: 2
#     Edge 35, Type (0, 0), BuildingBlock: EZIPEK_clean_linker_0, # of connection points: 2
#     Edge 36, Type (0, 0), BuildingBlock: EZIPEK_clean_linker_0, # of connection points: 2
#     Edge 37, Type (0, 0), BuildingBlock: EZIPEK_clean_linker_0, # of connection points: 2
#     Edge 38, Type (0, 0), BuildingBlock: EZIPEK_clean_linker_0, # of connection points: 2
#     Edge 39, Type (0, 0), BuildingBlock: EZIPEK_clean_linker_0, # of connection points: 2
#     Edge 40, Type (0, 0), BuildingBlock: EZIPEK_clean_linker_0, # of connection points: 2
#     Edge 41, Type (0, 0), BuildingBlock: EZIPEK_clean_linker_0, # of connection points: 2
#     Edge 42, Type (0, 0), BuildingBlock: EZIPEK_clean_linker_0, # of connection points: 2
#     Edge 43, Type (0, 0), BuildingBlock: EZIPEK_clean_linker_0, # of connection points: 2
#     Edge 44, Type (0, 0), BuildingBlock: EZIPEK_clean_linker_0, # of connection points: 2
#     Edge 45, Type (0, 0), BuildingBlock: EZIPEK_clean_linker_0, # of connection points: 2
#     Edge 46, Type (0, 0), BuildingBlock: EZIPEK_clean_linker_0, # of connection points: 2
#     Edge 47, Type (0, 0), BuildingBlock: EZIPEK_clean_linker_0, # of connection points: 2
#     Edge 48, Type (0, 0), BuildingBlock: EZIPEK_clean_linker_0, # of connection points: 2
#     Edge 49, Type (0, 0), BuildingBlock: EZIPEK_clean_linker_0, # of connection points: 2
#     Edge 50, Type (0, 0), BuildingBlock: EZIPEK_clean_linker_0, # of connection points: 2
#     Edge 51, Type (0, 0), BuildingBlock: EZIPEK_clean_linker_0, # of connection points: 2
#     Edge 52, Type (0, 0), BuildingBlock: EZIPEK_clean_linker_0, # of connection points: 2
#     Edge 53, Type (0, 0), BuildingBlock: EZIPEK_clean_linker_0, # of connection points: 2
#     Edge 54, Type (0, 0), BuildingBlock: EZIPEK_clean_linker_0, # of connection points: 2
#     Edge 55, Type (0, 0), BuildingBlock: EZIPEK_clean_linker_0, # of connection points: 2
#     Edge 56, Type (0, 0), BuildingBlock: EZIPEK_clean_linker_0, # of connection points: 2
#     Edge 57, Type (0, 0), BuildingBlock: EZIPEK_clean_linker_0, # of connection points: 2
#     Edge 58, Type (0, 0), BuildingBlock: EZIPEK_clean_linker_0, # of connection points: 2
#     Edge 59, Type (0, 0), BuildingBlock: EZIPEK_clean_linker_0, # of connection points: 2
#     Edge 60, Type (0, 0), BuildingBlock: EZIPEK_clean_linker_0, # of connection points: 2
#     Edge 61, Type (0, 0), BuildingBlock: EZIPEK_clean_linker_0, # of connection points: 2
#     Edge 62, Type (0, 0), BuildingBlock: EZIPEK_clean_linker_0, # of connection points: 2
#     Edge 63, Type (0, 0), BuildingBlock: EZIPEK_clean_linker_0, # of connection points: 2
# Relax obj value: 0.525
# Max RMSD: 0.279
# Mean RMSD: 0.279
data_MOF--net-whz--node1-BETDEL_clean_sbu_0--edge1-EZIPEK_clean_linker_0
_symmetry_space_group_name_H-M    P1
_symmetry_Int_Tables_number       1
_symmetry_cell_setting            triclinic
loop_
_symmetry_equiv_pos_as_xyz
'x, y, z'
_cell_length_a     25.200567
_cell_length_b     25.169528
_cell_length_c     41.486779
_cell_angle_alpha  89.59421
_cell_angle_beta   89.940159
_cell_angle_gamma 90.256052
loop_
_atom_site_label
_atom_site_type_symbol
_atom_site_fract_x
_atom_site_fract_y
_atom_site_fract_z
_atom_type_partial_charge
Dy0 Dy 0.29954 0.19578 0.16963 0.0
C1 C 0.2743 0.12587 0.0416 0.0
C2 C 0.31091 0.23855 0.22895 0.0
Dy3 Dy 0.30126 0.14785 0.10669 0.0
O4 O 0.30773 0.26472 0.20209 0.0
O5 O 0.30998 0.18808 0.22269 0.0
O6 O 0.23091 0.24352 0.15577 0.0
O7 O 0.29074 0.23304 0.1212 0.0
C8 C 0.24676 0.2565 0.12725 0.0
C9 C 0.33839 0.08497 0.15752 0.0
O10 O 0.37498 0.20133 0.10338 0.0
O11 O 0.38642 0.2038 0.158 0.0
O12 O 0.32087 0.11989 0.05498 0.0
O13 O 0.24294 0.1417 0.06447 0.0
O14 O 0.35851 0.08379 0.12849 0.0
O15 O 0.29938 0.11472 0.15588 0.0
O16 O 0.22532 0.14854 0.1775 0.0
O17 O 0.21525 0.13082 0.12337 0.0
C18 C 0.40492 0.21342 0.12876 0.0
C19 C 0.19602 0.13063 0.15347 0.0
Dy20 Dy 0.58656 0.55933 0.42304 0.0
C21 C 0.64163 0.53293 0.29158 0.0
C22 C 0.55925 0.57796 0.48511 0.0
Dy23 Dy 0.62907 0.55388 0.35786 0.0
O24 O 0.5274 0.57892 0.46056 0.0
O25 O 0.60707 0.56978 0.47469 0.0
O26 O 0.54259 0.48454 0.41666 0.0
O27 O 0.54756 0.53702 0.37734 0.0
C28 C 0.52706 0.49344 0.38752 0.0
C29 C 0.69839 0.58655 0.40656 0.0
O30 O 0.58858 0.6359 0.35413 0.0
O31 O 0.55248 0.6356 0.40538 0.0
O32 O 0.66718 0.56907 0.30809 0.0
O33 O 0.6096 0.50895 0.31154 0.0
O34 O 0.71173 0.55572 0.38275 0.0
O35 O 0.65133 0.59953 0.40107 0.0
O36 O 0.64451 0.49217 0.42981 0.0
O37 O 0.6439 0.46989 0.3764 0.0
C38 C 0.55985 0.65938 0.3772 0.0
C39 C 0.65497 0.45764 0.40684 0.0
Dy40 Dy 0.22576 0.80812 0.66136 0.0
C41 C 0.24535 0.89457 0.53946 0.0
C42 C 0.23614 0.75261 0.71799 0.0
Dy43 Dy 0.22733 0.87532 0.60603 0.0
O44 O 0.27374 0.76564 0.69828 0.0
O45 O 0.19202 0.7705 0.70626 0.0
O46 O 0.22559 0.73895 0.62922 0.0
O47 O 0.27548 0.80277 0.61863 0.0
C48 C 0.26659 0.75377 0.61291 0.0
C49 C 0.19704 0.92899 0.66232 0.0
O50 O 0.14539 0.83624 0.59898 0.0
O51 O 0.14229 0.78952 0.64697 0.0
O52 O 0.23891 0.93066 0.56178 0.0
O53 O 0.23839 0.84888 0.55373 0.0
O54 O 0.22152 0.95059 0.63761 0.0
O55 O 0.18412 0.88236 0.65349 0.0
O56 O 0.29814 0.86035 0.67255 0.0
O57 O 0.3086 0.89793 0.6224 0.0
C58 C 0.12014 0.80368 0.61946 0.0
C59 C 0.32599 0.89015 0.65204 0.0
Dy60 Dy 0.93985 0.45692 0.91944 0.0
C61 C 0.87245 0.50083 0.79172 0.0
C62 C 0.97132 0.45218 0.98234 0.0
Dy63 Dy 0.88965 0.47593 0.85771 0.0
O64 O 0.92452 0.46514 0.97219 0.0
O65 O 0.99954 0.43906 0.95761 0.0
O66 O 0.01854 0.46669 0.89644 0.0
O67 O 0.95802 0.51745 0.88199 0.0
C68 C 1.00782 0.50871 0.87984 0.0
C69 C 0.8254 0.4306 0.90582 0.0
O70 O 0.93695 0.39845 0.84862 0.0
O71 O 0.95166 0.3745 0.90161 0.0
O72 O 0.83646 0.48595 0.81271 0.0
O73 O 0.91755 0.50037 0.807 0.0
O74 O 0.8099 0.46578 0.8846 0.0
O75 O 0.87245 0.41986 0.898 0.0
O76 O 0.89006 0.52966 0.93128 0.0
O77 O 0.87136 0.55592 0.8792 0.0
C78 C 0.95474 0.36362 0.87062 0.0
C79 C 0.87022 0.56479 0.91064 0.0
Dy80 Dy 0.7249 0.87661 0.9542 0.0
C81 C 0.70153 0.79782 0.82913 0.0
C82 C 0.75097 0.89863 1.01891 0.0
Dy83 Dy 0.72393 0.83007 0.88964 0.0
O84 O 0.73897 0.93356 0.99669 0.0
O85 O 0.74768 0.85222 1.00554 0.0
O86 O 0.66561 0.93952 0.93321 0.0
O87 O 0.72457 0.90983 0.9052 0.0
C88 C 0.68581 0.94015 0.90414 0.0
C89 C 0.78115 0.76923 0.92863 0.0
O90 O 0.79809 0.87882 0.88324 0.0
O91 O 0.81088 0.88968 0.93793 0.0
O92 O 0.70975 0.76707 0.85376 0.0
O93 O 0.70573 0.84704 0.83794 0.0
O94 O 0.79283 0.78059 0.899 0.0
O95 O 0.7379 0.79257 0.93709 0.0
O96 O 0.64587 0.83338 0.9593 0.0
O97 O 0.63983 0.81265 0.90542 0.0
C98 C 0.82836 0.89413 0.90765 0.0
C99 C 0.61926 0.81252 0.93479 0.0
Dy100 Dy 0.39436 0.4696 0.70332 0.0
C101 C 0.49108 0.44246 0.58159 0.0
C102 C 0.36693 0.50435 0.76612 0.0
Dy103 Dy 0.45058 0.46121 0.64099 0.0
O104 O 0.35252 0.45964 0.75278 0.0
O105 O 0.39467 0.53012 0.74452 0.0
O106 O 0.32894 0.41232 0.68288 0.0
O107 O 0.36926 0.46221 0.653 0.0
C108 C 0.3372 0.42475 0.65262 0.0
C109 C 0.50555 0.52299 0.68101 0.0
O110 O 0.40666 0.53504 0.62818 0.0
O111 O 0.37252 0.54941 0.67933 0.0
O112 O 0.51829 0.45026 0.60764 0.0
O113 O 0.44111 0.44133 0.58917 0.0
O114 O 0.49451 0.53402 0.65134 0.0
O115 O 0.4812 0.47991 0.68959 0.0
O116 O 0.44332 0.39497 0.71329 0.0
O117 O 0.464 0.37841 0.66016 0.0
C118 C 0.37985 0.56478 0.64864 0.0
C119 C 0.46383 0.36366 0.69079 0.0
Dy120 Dy 0.79857 0.14154 0.45444 0.0
C121 C 0.83158 0.21749 0.32835 0.0
C122 C 0.7739 0.12428 0.52074 0.0
Dy123 Dy 0.81101 0.18713 0.38982 0.0
O124 O 0.8028 0.09378 0.50232 0.0
O125 O 0.76024 0.16428 0.50256 0.0
O126 O 0.80242 0.06002 0.42847 0.0
O127 O 0.84798 0.12095 0.41203 0.0
C128 C 0.83511 0.07401 0.4055 0.0
C129 C 0.74246 0.24614 0.42402 0.0
O130 O 0.74438 0.12858 0.38113 0.0
O131 O 0.71613 0.1288 0.43364 0.0
O132 O 0.83013 0.24857 0.35308 0.0
O133 O 0.82542 0.16883 0.33831 0.0
O134 O 0.73571 0.23045 0.3948 0.0
O135 O 0.7847 0.2246 0.43526 0.0
O136 O 0.87919 0.18372 0.46125 0.0
O137 O 0.88826 0.21736 0.40923 0.0
C138 C 0.70733 0.11776 0.40285 0.0
C139 C 0.90624 0.21168 0.43898 0.0
Dy140 Dy 0.136 0.55154 0.20266 0.0
C141 C 0.07471 0.57728 0.07363 0.0
C142 C 0.1465 0.52826 0.26979 0.0
Dy143 Dy 0.09536 0.56961 0.13806 0.0
O144 O 0.17649 0.56009 0.25244 0.0
O145 O 0.1109 0.50984 0.25001 0.0
O146 O 0.21884 0.5552 0.17832 0.0
O147 O 0.16077 0.60444 0.16217 0.0
C148 C 0.20747 0.59023 0.15605 0.0
C149 C 0.01959 0.52399 0.17448 0.0
O150 O 0.1423 0.49368 0.13002 0.0
O151 O 0.15814 0.47104 0.18314 0.0
O152 O 0.11817 0.55953 0.08634 0.0
O153 O 0.04408 0.59289 0.09671 0.0
O154 O 0.01326 0.56524 0.15638 0.0
O155 O 0.06891 0.51242 0.1754 0.0
O156 O 0.08725 0.62938 0.20856 0.0
O157 O 0.0852 0.6521 0.15516 0.0
C158 C 0.16112 0.46 0.15196 0.0
C159 C 0.07544 0.66484 0.18541 0.0
Dy160 Dy 0.81626 0.68802 0.668 0.0
C161 C 0.77598 0.62176 0.54111 0.0
C162 C 0.82092 0.71669 0.73091 0.0
Dy163 Dy 0.79813 0.64045 0.60705 0.0
O164 O 0.83127 0.74703 0.70644 0.0
O165 O 0.81053 0.6695 0.72039 0.0
O166 O 0.80828 0.76804 0.64633 0.0
O167 O 0.75632 0.70892 0.63072 0.0
C168 C 0.7669 0.75869 0.62908 0.0
C169 C 0.84182 0.57439 0.65474 0.0
O170 O 0.87611 0.68771 0.59817 0.0
O171 O 0.89944 0.69929 0.65127 0.0
O172 O 0.78134 0.58585 0.56372 0.0
O173 O 0.78456 0.66743 0.55473 0.0
O174 O 0.80763 0.55977 0.63304 0.0
O175 O 0.85389 0.62136 0.64697 0.0
O176 O 0.74613 0.63427 0.68017 0.0
O177 O 0.71656 0.62601 0.62838 0.0
C178 C 0.91086 0.70411 0.6204 0.0
C179 C 0.70907 0.61846 0.65975 0.0
Dy180 Dy 0.08769 0.06927 0.92283 0.0
C181 C 0.153 0.02438 0.79296 0.0
C182 C 0.05361 0.09216 0.98331 0.0
Dy183 Dy 0.13447 0.05233 0.85818 0.0
O184 O 0.02479 0.09266 0.9574 0.0
O185 O 0.10245 0.08312 0.97499 0.0
O186 O 0.04587 0.99273 0.92031 0.0
O187 O 0.05233 0.03741 0.8778 0.0
C188 C 0.03226 0.99529 0.89041 0.0
C189 C 0.20029 0.0969 0.90573 0.0
O190 O 0.08676 0.12902 0.84844 0.0
O191 O 0.05747 0.1446 0.90069 0.0
O192 O 0.1686 0.0682 0.80698 0.0
O193 O 0.12881 0.99621 0.81499 0.0
O194 O 0.21578 0.06266 0.8842 0.0
O195 O 0.15284 0.10561 0.8987 0.0
O196 O 0.14621 1.0043 0.93424 0.0
O197 O 0.14957 0.97208 0.88254 0.0
C198 C 0.06074 0.15876 0.86999 0.0
C199 C 0.15751 0.96557 0.914 0.0
Dy200 Dy 0.73139 0.32292 0.16513 0.0
C201 C 0.74747 0.40255 0.04158 0.0
C202 C 0.7191 0.26817 0.22105 0.0
Dy203 Dy 0.72085 0.38052 0.10666 0.0
O204 O 0.75615 0.26102 0.2 0.0
O205 O 0.68854 0.30653 0.21189 0.0
O206 O 0.79933 0.28119 0.14478 0.0
O207 O 0.73169 0.29233 0.11605 0.0
C208 C 0.77593 0.26745 0.11855 0.0
C209 C 0.68581 0.43369 0.16266 0.0
O210 O 0.64064 0.34034 0.10215 0.0
O211 O 0.64551 0.30372 0.153 0.0
O212 O 0.72154 0.43422 0.061 0.0
O213 O 0.75749 0.35976 0.05812 0.0
O214 O 0.66315 0.43668 0.13423 0.0
O215 O 0.72662 0.40669 0.15777 0.0
O216 O 0.80492 0.37309 0.17216 0.0
O217 O 0.80581 0.40446 0.11999 0.0
C218 C 0.61886 0.31234 0.12597 0.0
C219 C 0.8291 0.39937 0.14862 0.0
Dy220 Dy 0.43702 0.97692 0.42107 0.0
C221 C 0.37404 1.00452 0.29103 0.0
C222 C 0.47264 0.95539 0.48107 0.0
Dy223 Dy 0.39013 0.9765 0.35668 0.0
O224 O 0.50136 0.97092 0.45691 0.0
O225 O 0.42329 0.95245 0.4724 0.0
O226 O 0.484 0.04761 0.40911 0.0
O227 O 0.47466 0.98852 0.37361 0.0
C228 C 0.499 0.03193 0.38091 0.0
C229 C 0.328 0.93545 0.40677 0.0
O230 O 0.42806 0.89467 0.35324 0.0
O231 O 0.45655 0.89379 0.40567 0.0
O232 O 0.33714 0.99306 0.31224 0.0
O233 O 0.41908 0.99932 0.30596 0.0
O234 O 0.32782 0.91583 0.3776 0.0
O235 O 0.35726 0.97523 0.40554 0.0
O236 O 0.38523 0.04732 0.42875 0.0
O237 O 0.37363 0.06175 0.37423 0.0
C238 C 0.45225 0.86988 0.3775 0.0
C239 C 0.36883 0.078 0.40478 0.0
Dy240 Dy 0.21811 0.38515 0.45516 0.0
C241 C 0.18799 0.31328 0.32839 0.0
C242 C 0.24933 0.3977 0.52052 0.0
Dy243 Dy 0.21128 0.34237 0.38946 0.0
O244 O 0.23169 0.43515 0.50125 0.0
O245 O 0.24893 0.35431 0.50373 0.0
O246 O 0.15886 0.44967 0.43426 0.0
O247 O 0.2175 0.42008 0.4066 0.0
C248 C 0.17971 0.45107 0.40527 0.0
C249 C 0.26987 0.27849 0.42538 0.0
O250 O 0.2877 0.3881 0.38283 0.0
O251 O 0.30332 0.39852 0.43739 0.0
O252 O 0.19239 0.28171 0.35301 0.0
O253 O 0.19492 0.36185 0.3379 0.0
O254 O 0.27992 0.29206 0.39593 0.0
O255 O 0.22764 0.30185 0.43555 0.0
O256 O 0.14047 0.34082 0.46199 0.0
O257 O 0.12711 0.32741 0.40767 0.0
C258 C 0.31967 0.40204 0.4068 0.0
C259 C 0.11055 0.32338 0.43798 0.0
Dy260 Dy 0.8868 0.97617 0.20293 0.0
C261 C 0.97758 0.95569 0.07913 0.0
C262 C 0.87111 0.9979 0.26969 0.0
Dy263 Dy 0.93657 0.96934 0.13913 0.0
O264 O 0.8347 0.98547 0.24858 0.0
O265 O 0.91584 0.99608 0.25405 0.0
O266 O 0.80631 0.96534 0.17732 0.0
O267 O 0.87154 0.9268 0.16005 0.0
C268 C 0.82351 0.93571 0.15388 0.0
C269 C 0.98753 0.04153 0.17528 0.0
O270 O 0.87219 0.02721 0.12784 0.0
O271 O 0.86941 0.05755 0.17975 0.0
O272 O 1.00419 0.9561 0.10586 0.0
O273 O 0.92747 0.95827 0.08625 0.0
O274 O 0.97234 0.04854 0.14597 0.0
O275 O 0.96872 0.99735 0.18552 0.0
O276 O 0.92337 0.89178 0.20736 0.0
O277 O 0.97103 0.8955 0.1598 0.0
C278 C 0.85875 0.06432 0.14844 0.0
C279 C 0.95774 0.86983 0.18656 0.0
Dy280 Dy 0.29392 0.65152 0.9539 0.0
C281 C 0.27338 0.77991 0.84824 0.0
C282 C 0.28092 0.62526 1.02002 0.0
Dy283 Dy 0.29328 0.71756 0.9011 0.0
O284 O 0.28809 0.59157 0.99651 0.0
O285 O 0.28416 0.67232 1.00712 0.0
O286 O 0.29517 0.57703 0.92143 0.0
O287 O 0.3361 0.64332 0.90627 0.0
C288 C 0.32159 0.59756 0.89719 0.0
C289 C 0.2629 0.77302 0.95286 0.0
O290 O 0.22519 0.66338 0.88687 0.0
O291 O 0.21063 0.63306 0.93804 0.0
O292 O 0.23854 0.75661 0.8663 0.0
O293 O 0.31991 0.76853 0.85944 0.0
O294 O 0.30507 0.78147 0.93638 0.0
O295 O 0.24674 0.72657 0.94546 0.0
O296 O 0.37623 0.69368 0.95839 0.0
O297 O 0.38088 0.72359 0.90623 0.0
C298 C 0.19517 0.63694 0.90767 0.0
C299 C 0.40351 0.71792 0.93465 0.0
Dy300 Dy 0.63354 0.0459 0.70544 0.0
C301 C 0.55724 0.06848 0.58076 0.0
C302 C 0.64838 0.02413 0.77195 0.0
Dy303 Dy 0.58508 0.06311 0.6439 0.0
O304 O 0.68467 0.02373 0.74945 0.0
O305 O 0.60466 0.03873 0.75785 0.0
O306 O 0.71456 0.05648 0.67996 0.0
O307 O 0.65219 0.10072 0.66483 0.0
C308 C 0.69924 0.08943 0.65749 0.0
C309 C 0.5158 1.01214 0.68292 0.0
O310 O 0.63274 0.9887 0.63298 0.0
O311 O 0.64936 0.96442 0.68537 0.0
O312 O 0.60404 0.05727 0.59164 0.0
O313 O 0.52687 0.07913 0.60498 0.0
O314 O 0.50589 0.05431 0.66622 0.0
O315 O 0.56563 1.00321 0.68154 0.0
O316 O 0.58703 0.1241 0.71353 0.0
O317 O 0.57268 0.14613 0.66031 0.0
C318 C 0.6515 0.95382 0.6541 0.0
C319 C 0.56937 0.15815 0.69109 0.0
C320 C 0.2746 0.31505 0.2585 0.0
C321 C 0.28851 0.26052 0.25865 0.0
C322 C 0.21468 0.24023 0.29422 0.0
C323 C 0.20334 0.29493 0.29624 0.0
N324 N 0.21193 0.38215 0.27185 0.0
N325 N 0.28459 0.17639 0.28665 0.0
C326 C 0.22957 0.3315 0.27568 0.0
C327 C 0.26243 0.22448 0.27962 0.0
N328 N 0.30469 0.35146 0.24208 0.0
N329 N 0.1802 0.20388 0.30704 0.0
H330 H 0.32253 0.16642 0.27863 0.0
H331 H 0.26852 0.15001 0.30355 0.0
H332 H 0.14409 0.21556 0.31712 0.0
H333 H 0.18508 0.16299 0.30462 0.0
H334 H 0.29494 0.39173 0.24108 0.0
H335 H 0.34098 0.34151 0.23161 0.0
H336 H 0.17665 0.39583 0.28203 0.0
H337 H 0.17665 0.39583 0.28203 0.0
C338 C 0.47276 0.49313 0.53193 0.0
C339 C 0.51017 0.46525 0.55095 0.0
C340 C 0.57891 0.52842 0.53501 0.0
C341 C 0.54117 0.55633 0.51627 0.0
N342 N 0.44899 0.57487 0.50577 0.0
N343 N 0.60186 0.4489 0.56399 0.0
C344 C 0.48696 0.54221 0.51822 0.0
C345 C 0.56431 0.48024 0.54991 0.0
N346 N 0.42353 0.47324 0.52595 0.0
N347 N 0.62897 0.54748 0.53932 0.0
H348 H 0.59243 0.41168 0.57379 0.0
H349 H 0.64211 0.45898 0.56392 0.0
H350 H 0.64131 0.58479 0.531 0.0
H351 H 0.64131 0.58479 0.531 0.0
H352 H 0.41179 0.43494 0.53269 0.0
H353 H 0.41179 0.43494 0.53269 0.0
H354 H 0.40868 0.56501 0.50625 0.0
H355 H 0.45819 0.613 0.49729 0.0
C356 C 0.29794 0.75645 0.76372 0.0
C357 C 0.24555 0.74704 0.75283 0.0
C358 C 0.21048 0.78122 0.80326 0.0
C359 C 0.26293 0.79031 0.81396 0.0
N360 N 0.35481 0.80439 0.79899 0.0
N361 N 0.15253 0.73723 0.76678 0.0
C362 C 0.30582 0.78434 0.79244 0.0
C363 C 0.20215 0.75506 0.77391 0.0
N364 N 0.34051 0.73834 0.74677 0.0
N365 N 0.16838 0.79683 0.82154 0.0
H366 H 0.14404 0.71377 0.74676 0.0
H367 H 0.14404 0.71377 0.74676 0.0
H368 H 0.17348 0.81958 0.84229 0.0
H369 H 0.12911 0.79005 0.8146 0.0
H370 H 0.37956 0.74544 0.75401 0.0
H371 H 0.336 0.7121 0.72758 0.0
H372 H 0.36259 0.8287 0.81874 0.0
H373 H 0.36259 0.8287 0.81874 0.0
C374 C 0.96825 0.51744 1.0267 0.0
C375 C 0.99607 0.47644 1.01093 0.0
C376 C 0.08054 0.51509 1.02785 0.0
C377 C 0.05239 0.55577 0.04359 0.0
N378 N 0.97268 0.60742 0.0465 0.0
N379 N 0.07667 0.42647 1.00563 0.0
C380 C 0.9971 0.56073 0.03923 0.0
C381 C 0.05185 0.47235 1.01421 0.0
N382 N 0.91478 0.51336 0.0314 0.0
N383 N 0.13436 0.51892 1.02478 0.0
H384 H 0.05536 0.39323 0.99792 0.0
H385 H 0.11679 0.41936 1.00973 0.0
H386 H 0.15513 0.5526 0.03233 0.0
H387 H 0.15702 0.49238 1.01149 0.0
H388 H 0.89315 0.5406 0.04483 0.0
H389 H 0.89372 0.47895 1.02567 0.0
H390 H 0.93283 0.61473 0.04152 0.0
H391 H 0.99429 0.64067 0.0539 0.0
C392 C 0.71752 0.72373 0.79349 0.0
C393 C 0.71294 0.77918 0.79657 0.0
C394 C 0.78892 0.79356 0.76189 0.0
C395 C 0.79563 0.73776 0.76001 0.0
N396 N 0.77718 0.65118 0.78266 0.0
N397 N 0.72737 0.86493 0.77264 0.0
C398 C 0.76281 0.70296 0.7782 0.0
C399 C 0.74306 0.81357 0.7769 0.0
N400 N 0.67895 0.69162 0.80616 0.0
N401 N 0.82788 0.82706 0.75106 0.0
H402 H 0.6918 0.87872 0.78238 0.0
H403 H 0.74601 0.8912 0.75668 0.0
H404 H 0.86448 0.81293 0.74311 0.0
H405 H 0.82645 0.86814 0.75384 0.0
H406 H 0.6778 0.65064 0.80285 0.0
H407 H 0.64546 0.70758 0.81732 0.0
H408 H 0.75644 0.6247 0.79745 0.0
H409 H 0.8137 0.63685 0.77472 0.0
C410 C 0.7499 0.19963 0.25641 0.0
C411 C 0.72649 0.25005 0.25407 0.0
C412 C 0.78533 0.28449 0.29507 0.0
C413 C 0.81029 0.23424 0.29696 0.0
N414 N 0.82774 0.15012 0.27221 0.0
N415 N 0.70913 0.33413 0.27963 0.0
C416 C 0.79585 0.19339 0.27539 0.0
C417 C 0.73946 0.28999 0.27631 0.0
N418 N 0.72835 0.15861 0.23957 0.0
N419 N 0.80575 0.32746 0.31069 0.0
H420 H 0.67305 0.33943 0.26771 0.0
H421 H 0.67305 0.33943 0.26771 0.0
H422 H 0.84309 0.32669 0.32155 0.0
H423 H 0.7877 0.36471 0.30973 0.0
H424 H 0.74113 0.11945 0.24174 0.0
H425 H 0.69412 0.16408 0.22574 0.0
H426 H 0.8213 0.12016 0.25545 0.0
H427 H 0.86404 0.148 0.28417 0.0
C428 C 0.96342 1.00707 1.0287 0.0
C429 C 0.99945 0.98142 0.04984 0.0
C430 C 0.06787 0.04623 0.03532 0.0
C431 C 0.03192 0.07123 1.01397 0.0
N432 N 0.94074 0.08578 0.99888 0.0
N433 N 0.09046 0.969 0.06651 0.0
C434 C 0.97805 0.05533 1.01389 0.0
C435 C 0.05312 0.99851 0.05082 0.0
N436 N 0.91525 0.98558 1.02151 0.0
N437 N 0.11667 0.06733 0.04126 0.0
H438 H 0.08219 0.93096 0.07545 0.0
H439 H 0.13011 0.98097 0.0681 0.0
H440 H 0.12895 0.10429 0.03232 0.0
H441 H 0.12895 0.10429 0.03232 0.0
H442 H 0.90337 0.94764 1.02897 0.0
H443 H 0.90337 0.94764 1.02897 0.0
H444 H 0.90076 0.07476 0.99799 0.0
H445 H 0.94972 0.12358 0.9898 0.0
C446 C 0.45805 0.99493 0.53346 0.0
C447 C 0.49122 0.96421 0.51388 0.0
C448 C 0.5694 1.01065 0.53328 0.0
C449 C 0.5358 0.04427 0.55136 0.0
N450 N 0.448 0.07977 0.55933 0.0
N451 N 0.57714 0.92843 0.50345 0.0
C452 C 0.47986 0.03976 0.54878 0.0
C453 C 0.54675 0.96695 0.51712 0.0
N454 N 0.40612 0.98085 0.53741 0.0
N455 N 0.62187 0.02305 0.52961 0.0
H456 H 0.55976 0.89648 0.49136 0.0
H457 H 0.61804 0.92565 0.50657 0.0
H458 H 0.63778 0.05861 0.53806 0.0
H459 H 0.64774 1.00191 0.51497 0.0
H460 H 0.38067 1.00005 0.5533 0.0
H461 H 0.39092 0.9458 0.52765 0.0
H462 H 0.40701 0.07991 0.55603 0.0
H463 H 0.46359 0.11569 0.56756 0.0
C464 C 0.20243 0.15013 0.95931 0.0
C465 C 0.22619 0.11177 0.93845 0.0
C466 C 0.28429 0.08526 0.98424 0.0
C467 C 0.25971 0.12219 1.00551 0.0
N468 N 0.20872 0.20308 1.00799 0.0
N469 N 0.3092 0.06768 0.92885 0.0
C470 C 0.2222 0.15814 0.99159 0.0
C471 C 0.27289 0.08655 0.9502 0.0
N472 N 0.16229 0.18134 0.94801 0.0
N473 N 0.3174 0.0473 0.99628 0.0
H474 H 0.30484 0.07238 0.90401 0.0
H475 H 0.34618 0.05339 0.93598 0.0
H476 H 0.3253 0.04296 1.02079 0.0
H477 H 0.33257 0.01688 0.9821 0.0
H478 H 0.13646 0.2018 0.96306 0.0
H479 H 0.15522 0.18741 0.92354 0.0
H480 H 0.18564 0.2334 0.99827 0.0
H481 H 0.22602 0.21389 1.02976 0.0
C482 C 0.61378 0.51374 0.23265 0.0
C483 C 0.65335 0.51415 0.25728 0.0
C484 C 0.70677 0.45559 0.22303 0.0
C485 C 0.67176 0.46069 0.19564 0.0
N486 N 0.59097 0.50221 0.17614 0.0
N487 N 0.74396 0.49482 0.27116 0.0
C488 C 0.62507 0.4922 0.20095 0.0
C489 C 0.70214 0.48928 0.25048 0.0
N490 N 0.56473 0.53349 0.23957 0.0
N491 N 0.74129 0.41443 0.22524 0.0
H492 H 0.74212 0.51644 0.29242 0.0
H493 H 0.78208 0.48182 0.26556 0.0
H494 H 0.73921 0.3825 0.21011 0.0
H495 H 0.76556 0.40729 0.24511 0.0
H496 H 0.53191 0.52851 0.22463 0.0
H497 H 0.55612 0.55204 0.26136 0.0
H498 H 0.56082 0.53028 0.17747 0.0
H499 H 0.59403 0.48516 0.15355 0.0
C500 C 0.24414 0.94754 0.48554 0.0
C501 C 0.26223 0.90302 0.50393 0.0
C502 C 0.30749 0.8714 0.45388 0.0
C503 C 0.29701 0.91983 0.43743 0.0
N504 N 0.25509 1.00548 0.43879 0.0
N505 N 0.32211 0.82796 0.50542 0.0
C506 C 0.26542 0.95828 0.4538 0.0
C507 C 0.29636 0.86606 0.4879 0.0
N508 N 0.20433 0.97835 0.49753 0.0
N509 N 0.32846 0.83011 0.43711 0.0
H510 H 0.31976 0.82497 0.53041 0.0
H511 H 0.35119 0.80357 0.49564 0.0
H512 H 0.3372 0.83289 0.41257 0.0
H513 H 0.33214 0.79197 0.44678 0.0
H514 H 0.18562 1.00805 0.48422 0.0
H515 H 0.18587 0.97064 0.51955 0.0
H516 H 0.23956 0.03836 0.45057 0.0
H517 H 0.26393 1.01202 0.41457 0.0
C518 C 0.8192 0.50846 0.70279 0.0
C519 C 0.852 0.54927 0.68854 0.0
C520 C 0.89401 0.56052 0.74251 0.0
C521 C 0.86407 0.51777 0.75626 0.0
N522 N 0.80591 0.44361 0.74601 0.0
N523 N 0.93441 0.59755 0.69433 0.0
C524 C 0.82851 0.49005 0.73546 0.0
C525 C 0.89336 0.5703 0.70832 0.0
N526 N 0.77899 0.48623 0.68548 0.0
N527 N 0.92155 0.59407 0.76216 0.0
H528 H 0.93894 0.60074 0.66942 0.0
H529 H 0.96771 0.61007 0.70713 0.0
H530 H 0.92088 0.59094 0.78721 0.0
H531 H 0.93953 0.62889 0.75374 0.0
H532 H 0.74785 0.46511 0.69614 0.0
H533 H 0.77644 0.48839 0.66059 0.0
H534 H 0.78467 0.41808 0.73112 0.0
H535 H 0.81281 0.42756 0.76882 0.0
C536 C 0.81748 0.88082 0.10246 0.0
C537 C 0.79762 0.92394 0.12094 0.0
C538 C 0.74041 0.94646 0.07355 0.0
C539 C 0.76745 0.90899 0.05386 0.0
N540 N 0.84127 0.84859 0.0496 0.0
N541 N 0.73775 0.99898 0.12226 0.0
C542 C 0.80852 0.87843 0.06839 0.0
C543 C 0.75838 0.95706 0.10596 0.0
N544 N 0.84266 0.83987 0.11769 0.0
N545 N 0.69525 0.96984 0.06217 0.0
H546 H 0.74157 1.0036 0.14692 0.0
H547 H 0.71713 0.02973 0.11101 0.0
H548 H 0.67974 0.96228 0.03939 0.0
H549 H 0.67015 0.99264 0.07639 0.0
H550 H 0.85336 0.80506 0.10591 0.0
H551 H 0.84638 0.8376 0.1427 0.0
H552 H 0.87499 0.82985 0.05866 0.0
H553 H 0.83876 0.84791 1.02453 0.0
C554 C 0.32806 0.60202 0.8341 0.0
C555 C 0.33275 0.57189 0.86353 0.0
C556 C 0.3608 0.49533 0.82879 0.0
C557 C 0.35228 0.52527 0.79984 0.0
N558 N 0.31346 0.60322 0.77621 0.0
N559 N 0.34972 0.48557 0.88702 0.0
C560 C 0.3322 0.57746 0.80301 0.0
C561 C 0.34741 0.51713 0.86017 0.0
N562 N 0.31958 0.65513 0.83523 0.0
N563 N 0.3847 0.44689 0.82659 0.0
H564 H 0.34652 0.50018 0.91033 0.0
H565 H 0.35252 0.44435 0.88617 0.0
H566 H 0.395 0.42995 0.80461 0.0
H567 H 0.39818 0.42529 0.84641 0.0
H568 H 0.32532 0.68029 0.81551 0.0
H569 H 0.31008 0.67422 0.85622 0.0
H570 H 0.29171 0.63826 0.77725 0.0
H571 H 0.31392 0.58661 0.75326 0.0
C572 C 0.71066 0.13947 0.56915 0.0
C573 C 0.75738 0.11534 0.55643 0.0
C574 C 0.76927 0.07292 0.61083 0.0
C575 C 0.72482 0.10116 0.62399 0.0
N576 N 0.67076 0.17925 0.61611 0.0
N577 N 0.83893 0.07049 0.57016 0.0
C578 C 0.70098 0.13981 0.60327 0.0
C579 C 0.78876 0.08514 0.57868 0.0
N580 N 0.67335 0.16029 0.5489 0.0
N581 N 0.79351 0.03394 0.62838 0.0
H582 H 0.85631 0.08093 0.54824 0.0
H583 H 0.86573 0.05362 0.58632 0.0
H584 H 0.78541 0.02566 0.65239 0.0
H585 H 0.82012 1.00724 0.61821 0.0
H586 H 0.63691 0.17423 0.55718 0.0
H587 H 0.67495 0.15655 0.52396 0.0
H588 H 0.65553 0.21037 0.60226 0.0
H589 H 0.668 0.18546 0.64087 0.0
C590 C 0.1154 0.48046 0.3587 0.0
C591 C 0.16638 0.48107 0.37356 0.0
C592 C 0.20414 0.50933 0.32038 0.0
C593 C 0.15293 0.51318 0.30594 0.0
N594 N 0.05832 0.51344 0.31565 0.0
N595 N 0.25591 0.5138 0.36951 0.0
C596 C 0.10814 0.50182 0.32639 0.0
C597 C 0.20945 0.50107 0.35457 0.0
N598 N 0.07391 0.4578 0.37485 0.0
N599 N 0.2485 0.50998 0.30145 0.0
H600 H 0.25969 0.51197 0.39448 0.0
H601 H 0.28754 0.53249 0.35776 0.0
H602 H 0.24721 0.51187 0.27639 0.0
H603 H 0.28625 0.50184 0.31042 0.0
H604 H 0.03731 0.44993 0.3642 0.0
H605 H 0.07759 0.44378 0.39838 0.0
H606 H 0.02473 0.51083 0.33024 0.0
H607 H 0.05112 0.5313 0.29337 0.0
C608 C 0.72421 0.6488 0.48998 0.0
C609 C 0.7594 0.61289 0.50584 0.0
C610 C 0.75882 0.55866 0.45559 0.0
C611 C 0.72627 0.59677 0.43916 0.0
N612 N 0.6955 0.68728 0.43927 0.0
N613 N 0.81985 0.53972 0.49968 0.0
C614 C 0.71439 0.64449 0.45601 0.0
C615 C 0.77924 0.56946 0.48748 0.0
N616 N 0.69711 0.68559 0.5075 0.0
N617 N 0.76977 0.5113 0.44141 0.0
H618 H 0.83719 0.54713 0.52199 0.0
H619 H 0.84014 0.51141 0.48632 0.0
H620 H 0.76055 0.50316 0.41765 0.0
H621 H 0.78579 0.47904 0.45384 0.0
H622 H 0.66704 0.70892 0.49765 0.0
H623 H 0.69966 0.68831 0.53248 0.0
H624 H 0.69093 0.72463 0.44959 0.0
H625 H 0.69076 0.68725 0.41429 0.0
C626 C 0.19569 0.95617 0.75613 0.0
C627 C 0.16739 1.00429 0.75905 0.0
C628 C 0.16253 1.00736 0.69855 0.0
C629 C 0.18551 0.95547 0.69583 0.0
N630 N 0.21605 0.87879 0.72534 0.0
N631 N 0.1202 0.07459 0.73243 0.0
C632 C 0.19934 0.92971 0.72564 0.0
C633 C 0.1503 0.02983 0.72999 0.0
N634 N 0.22187 0.93644 0.78248 0.0
N635 N 0.15145 0.03525 0.67106 0.0
H636 H 0.11163 0.09207 0.75455 0.0
H637 H 0.10097 0.09244 0.71302 0.0
H638 H 0.15507 0.01905 0.64813 0.0
H639 H 0.14102 0.07521 0.67082 0.0
H640 H 0.24927 0.90563 0.78132 0.0
H641 H 0.22117 0.95473 0.80496 0.0
H642 H 0.22017 0.85563 0.74601 0.0
H643 H 0.22147 0.85896 0.70415 0.0
C644 C 0.73302 0.43665 0.98249 0.0
C645 C 0.76571 0.41187 1.00645 0.0
C646 C 0.82832 0.3878 0.9626 0.0
C647 C 0.80021 0.41855 0.93931 0.0
N648 N 0.7141 0.45255 0.92545 0.0
N649 N 0.85237 0.37617 1.01858 0.0
C650 C 0.74933 0.43804 0.94888 0.0
C651 C 0.81542 0.3909 0.99618 0.0
N652 N 0.68629 0.45928 0.99166 0.0
N653 N 0.86425 0.35107 0.95254 0.0
H654 H 0.84719 0.38163 0.04326 0.0
H655 H 0.89096 0.36543 1.01242 0.0
H656 H 0.86758 0.34039 0.92842 0.0
H657 H 0.88333 0.32485 0.9682 0.0
H658 H 0.66422 0.48447 0.97695 0.0
H659 H 0.67067 0.45548 1.01478 0.0
H660 H 0.67483 0.46282 0.92979 0.0
H661 H 0.72215 0.44838 0.90099 0.0
C662 C 0.31885 0.01801 0.2031 0.0
C663 C 0.35408 0.0559 0.1887 0.0
C664 C 0.40007 0.06249 0.24155 0.0
C665 C 0.36689 0.0221 0.25558 0.0
N666 N 0.30189 0.95344 0.24589 0.0
N667 N 0.43614 0.10394 0.19285 0.0
C668 C 0.32815 0.99782 0.23526 0.0
C669 C 0.39732 0.07452 0.20752 0.0
N670 N 0.27601 1.00103 0.18587 0.0
N671 N 0.43184 0.09244 0.26102 0.0
H672 H 0.43566 0.11214 0.16817 0.0
H673 H 0.47128 0.11493 0.20426 0.0
H674 H 0.43269 0.08805 0.28599 0.0
H675 H 0.45267 0.12578 0.25291 0.0
H676 H 0.24447 0.9798 0.19598 0.0
H677 H 0.27132 1.01022 0.16152 0.0
H678 H 0.27725 0.93064 0.23129 0.0
H679 H 0.30874 0.93608 0.26836 0.0
C680 C 0.26294 0.44112 0.61102 0.0
C681 C 0.3065 0.40989 0.62202 0.0
C682 C 0.31402 0.3731 0.56665 0.0
C683 C 0.26883 0.4025 0.55572 0.0
N684 N 0.19382 0.45603 0.57093 0.0
N685 N 0.36493 0.33715 0.6117 0.0
C686 C 0.24158 0.43421 0.57893 0.0
C687 C 0.32897 0.37295 0.6002 0.0
N688 N 0.24269 0.4788 0.63105 0.0
N689 N 0.34537 0.34791 0.54467 0.0
H690 H 0.37593 0.33593 0.63591 0.0
H691 H 0.37925 0.30544 0.59831 0.0
H692 H 0.33913 0.35011 0.51991 0.0
H693 H 0.38152 0.33044 0.55049 0.0
H694 H 0.216 0.50782 0.62355 0.0
H695 H 0.25535 0.48304 0.65484 0.0
H696 H 0.16928 0.47491 0.58744 0.0
H697 H 0.17613 0.4509 0.54849 0.0
C698 C 0.82102 0.99219 0.32452 0.0
C699 C 0.86314 0.014 0.30541 0.0
C700 C 0.89322 0.06121 0.35503 0.0
C701 C 0.84597 0.04749 0.37233 0.0
N702 N 0.76211 1.00017 0.3704 0.0
N703 N 0.93477 0.07849 0.30329 0.0
C704 C 0.80924 0.01297 0.35619 0.0
C705 C 0.89809 0.05077 0.321 0.0
N706 N 0.79375 0.94898 0.31347 0.0
N707 N 0.93513 0.08264 0.37135 0.0
H708 H 0.93792 0.07606 0.27836 0.0
H709 H 0.95724 0.10951 0.31277 0.0
H710 H 0.93496 0.08772 0.39626 0.0
H711 H 0.97235 0.08871 0.36096 0.0
H712 H 0.76668 0.92761 0.3275 0.0
H713 H 0.80265 0.93037 0.2918 0.0
H714 H 0.73064 0.98282 0.35797 0.0
H715 H 0.75319 1.00914 0.39405 0.0
C716 C 0.27219 0.56563 0.10802 0.0
C717 C 0.23475 0.60056 0.12293 0.0
C718 C 0.22568 0.64673 0.07012 0.0
C719 C 0.26425 0.61383 0.05516 0.0
N720 N 0.33058 0.54633 0.06237 0.0
N721 N 0.19858 0.68851 0.11957 0.0
C722 C 0.28891 0.57407 0.07479 0.0
C723 C 0.21817 0.6451 0.1043 0.0
N724 N 0.29353 0.52537 0.12572 0.0
N725 N 0.19363 0.67829 0.05169 0.0
H726 H 0.1979 0.69122 0.14466 0.0
H727 H 0.19087 0.72412 0.10749 0.0
H728 H 0.19414 0.67803 1.02657 0.0
H729 H 0.16195 0.69941 0.0614 0.0
H730 H 0.31309 0.4931 0.11569 0.0
H731 H 0.29281 0.52529 0.15073 0.0
H732 H 0.35428 0.52076 0.07584 0.0
H733 H 0.34421 0.55182 0.03887 0.0
C734 C 0.61381 0.98587 0.82672 0.0
C735 C 0.65566 1.00924 0.8078 0.0
C736 C 0.71488 0.99677 0.8552 0.0
C737 C 0.67288 0.97387 0.87399 0.0
N738 N 0.5784 0.96969 0.88052 0.0
N739 N 0.74134 0.05224 0.80968 0.0
C740 C 0.62109 0.97583 0.86069 0.0
C741 C 0.70495 0.01885 0.82366 0.0
N742 N 0.56792 0.96972 0.81227 0.0
N743 N 0.76462 0.99922 0.86798 0.0
H744 H 0.73423 0.07274 0.78824 0.0
H745 H 0.77584 0.06489 0.82114 0.0
H746 H 0.77154 0.99269 0.89238 0.0
H747 H 0.7986 1.00691 0.85437 0.0
H748 H 0.53866 0.94813 0.82447 0.0
H749 H 0.5615 0.97206 0.78754 0.0
H750 H 0.53947 0.9753 0.87278 0.0
H751 H 0.58256 0.96514 0.90539 0.0
C752 C 0.47011 0.2874 0.14424 0.0
C753 C 0.4587 0.24132 0.12541 0.0
C754 C 0.54969 0.24837 0.10229 0.0
C755 C 0.56253 0.29073 0.12359 0.0
N756 N 0.53544 0.34819 0.16669 0.0
N757 N 0.49165 0.17356 0.08996 0.0
C758 C 0.52279 0.30935 0.14507 0.0
C759 C 0.49944 0.22105 0.10505 0.0
N760 N 0.42993 0.31204 0.16039 0.0
N761 N 0.58582 0.23367 0.07949 0.0
H762 H 0.45661 0.15166 0.09202 0.0
H763 H 0.52141 0.15333 0.07778 0.0
H764 H 0.62348 0.25073 0.07766 0.0
H765 H 0.57717 0.20752 0.06087 0.0
H766 H 0.43377 0.34906 0.1712 0.0
H767 H 0.39101 0.29819 0.16063 0.0
H768 H 0.51147 0.35816 0.18617 0.0
H769 H 0.57143 0.3688 0.16628 0.0
C770 C 0.51498 0.73717 0.34486 0.0
C771 C 0.5361 0.71509 0.37393 0.0
C772 C 0.49036 0.78591 0.40335 0.0
C773 C 0.47723 0.81433 0.37456 0.0
N774 N 0.49211 0.81848 0.31653 0.0
N775 N 0.56001 0.73657 0.42894 0.0
C776 C 0.49373 0.79049 0.34478 0.0
C777 C 0.529 0.74523 0.40248 0.0
N778 N 0.51322 0.70754 0.31749 0.0
N779 N 0.46457 0.79511 0.4317 0.0
H780 H 0.59262 0.71129 0.42859 0.0
H781 H 0.5575 0.76014 0.44949 0.0
H782 H 0.43088 0.81861 0.43325 0.0
H783 H 0.47194 0.77277 0.4525 0.0
H784 H 0.49372 0.72032 0.2967 0.0
H785 H 0.52615 0.66838 0.31654 0.0
H786 H 0.50793 0.80384 0.29514 0.0
H787 H 0.48137 0.85818 0.3149 0.0
C788 C 1.01026 0.69871 0.60976 0.0
C789 C 0.96346 0.72978 0.61167 0.0
C790 C 0.01924 0.81124 0.61348 0.0
C791 C 0.0661 0.78006 0.61183 0.0
N792 N 0.10535 0.69563 0.59965 0.0
N793 N 0.92307 0.81586 0.60763 0.0
C794 C 0.06119 0.72419 0.60727 0.0
C795 C 0.96801 0.7862 0.61095 0.0
N796 N 1.00615 0.64462 0.61139 0.0
N797 N 0.02358 0.86449 0.6191 0.0
H798 H 0.88558 0.79859 0.60525 0.0
H799 H 0.92324 0.85685 0.60413 0.0
H800 H 0.06009 0.88407 0.6203 0.0
H801 H 0.99142 0.88871 0.62442 0.0
H802 H 0.03856 0.61955 0.61431 0.0
H803 H 0.96965 0.62485 0.61145 0.0
H804 H 0.10446 0.6557 0.59328 0.0
H805 H 0.14239 0.71348 0.59636 0.0
C806 C 0.03698 0.30926 0.85802 0.0
C807 C 0.9808 0.31159 0.86144 0.0
C808 C 0.97796 0.21323 0.8589 0.0
C809 C 0.03428 0.21078 0.86072 0.0
N810 N 0.11789 0.25694 0.86269 0.0
N811 N 0.89748 0.2653 0.86595 0.0
C812 C 0.06392 0.25904 0.85998 0.0
C813 C 0.95121 0.26332 0.86177 0.0
N814 N 0.06462 0.35535 0.85283 0.0
N815 N 0.95013 0.16739 0.85384 0.0
H816 H 0.87668 0.30104 0.8666 0.0
H817 H 0.87395 0.23194 0.87037 0.0
H818 H 0.96899 0.13102 0.85045 0.0
H819 H 0.90941 0.16607 0.84974 0.0
H820 H 0.10492 0.35674 0.84736 0.0
H821 H 0.04601 0.3922 0.8511 0.0
H822 H 0.14181 0.29014 0.86641 0.0
H823 H 0.1387 0.22119 0.8628 0.0
C824 C 0.52082 0.81444 0.9214 0.0
C825 C 0.56312 0.79089 0.93892 0.0
C826 C 0.5011 0.71804 0.9551 0.0
C827 C 0.45795 0.74404 0.93935 0.0
N828 N 0.4266 0.82701 0.91652 0.0
N829 N 0.59053 0.72414 0.97729 0.0
C830 C 0.46792 0.79503 0.92513 0.0
C831 C 0.55211 0.74419 0.95755 0.0
N832 N 0.5308 0.85558 0.90062 0.0
N833 N 0.49472 0.66708 0.96596 0.0
H834 H 0.62827 0.74098 0.97899 0.0
H835 H 0.58363 0.69366 0.99389 0.0
H836 H 0.45912 0.64622 0.96392 0.0
H837 H 0.52591 0.64381 0.97436 0.0
H838 H 0.50314 0.86929 0.88388 0.0
H839 H 0.56788 0.87335 0.89833 0.0
H840 H 0.43134 0.86658 0.90947 0.0
H841 H 0.38728 0.81668 0.92026 0.0
C842 C 0.45933 0.26268 0.69639 0.0
C843 C 0.4889 0.31064 0.69926 0.0
C844 C 0.5715 0.25773 0.70296 0.0
C845 C 0.54205 0.20979 0.69956 0.0
N846 N 0.45709 0.16617 0.70154 0.0
N847 N 0.57072 0.35244 0.71481 0.0
C848 C 0.48561 0.21227 0.69897 0.0
C849 C 0.54431 0.30762 0.70558 0.0
N850 N 0.40611 0.26535 0.69046 0.0
N851 N 0.62564 0.25582 0.70256 0.0
H852 H 0.55124 0.38843 0.71834 0.0
H853 H 0.61019 0.35278 0.7222 0.0
H854 H 0.64644 0.22007 0.70201 0.0
H855 H 0.64974 0.28945 0.70101 0.0
H856 H 0.38303 0.23275 0.68397 0.0
H857 H 0.38533 0.30112 0.69075 0.0
H858 H 0.41599 0.16472 0.70391 0.0
H859 H 0.47525 0.12935 0.70462 0.0
C860 C 1.00946 0.32404 0.44501 0.0
C861 C 0.05802 0.29549 0.44489 0.0
C862 C 1.00683 0.21109 0.44737 0.0
C863 C 0.95823 0.23953 0.4466 0.0
N864 N 0.91358 0.32281 0.45325 0.0
N865 N 0.10223 0.21313 0.45654 0.0
C866 C 0.95979 0.29605 0.44797 0.0
C867 C 0.0564 0.23933 0.44932 0.0
N868 N 1.01089 0.37807 0.44216 0.0
N869 N 1.00581 0.157 0.44508 0.0
H870 H 0.13817 0.23305 0.45986 0.0
H871 H 0.10366 0.17298 0.46267 0.0
H872 H 0.97052 0.13518 0.44511 0.0
H873 H 0.03958 0.13414 0.44138 0.0
H874 H 0.97759 0.40137 0.43788 0.0
H875 H 0.04631 0.39955 0.44321 0.0
H876 H 0.91143 0.3636 0.45689 0.0
H877 H 0.8776 0.3031 0.45715 0.0
C878 C 0.04396 0.75373 0.1638 0.0
C879 C 0.0483 0.71916 0.19093 0.0
C880 C 0.99434 0.78741 0.21992 0.0
C881 C 0.98221 0.81415 0.19019 0.0
N882 N 0.97977 0.80017 0.13228 0.0
N883 N 0.01796 0.70378 0.246 0.0
C884 C 1.00158 0.78982 0.16172 0.0
C885 C 0.02056 0.73594 0.21947 0.0
N886 N 0.08205 0.75534 0.14055 0.0
N887 N 0.98316 0.81105 0.24858 0.0
H888 H 0.03689 0.66737 0.2478 0.0
H889 H 0.9935 0.71201 0.2656 0.0
H890 H 0.96534 0.8481 0.25025 0.0
H891 H 0.99609 0.79578 0.27062 0.0
H892 H 0.08025 0.78158 0.12097 0.0
H893 H 0.11868 0.73753 0.14411 0.0
H894 H 0.99288 0.78122 0.11143 0.0
H895 H 0.94476 0.82154 0.12955 0.0
C896 C 0.26407 0.35326 0.13056 0.0
C897 C 0.23218 0.31213 0.11804 0.0
C898 C 0.15459 0.37127 0.12254 0.0
C899 C 0.18523 0.40821 0.14083 0.0
N900 N 0.26852 0.42641 0.16767 0.0
N901 N 0.14755 0.28269 0.09917 0.0
C902 C 0.23989 0.39716 0.14624 0.0
C903 C 0.1777 0.32217 0.11237 0.0
N904 N 0.31774 0.35027 0.12741 0.0
N905 N 0.10249 0.38168 0.11658 0.0
H906 H 0.16466 0.24787 0.09044 0.0
H907 H 0.10638 0.28354 0.09748 0.0
H908 H 0.0826 0.41194 0.12834 0.0
H909 H 0.07928 0.36072 0.10024 0.0
H910 H 0.34322 0.38117 0.13384 0.0
H911 H 0.33557 0.31963 0.11456 0.0
H912 H 0.30697 0.41642 0.17463 0.0
H913 H 0.25239 0.4574 0.18084 0.0
C914 C 0.41058 0.39902 0.3797 0.0
C915 C 0.37253 0.42698 0.39862 0.0
C916 C 0.42974 0.50653 0.39524 0.0
C917 C 0.47111 0.47626 0.38136 0.0
N918 N 0.50194 0.39313 0.36084 0.0
N919 N 0.35069 0.50671 0.42819 0.0
C920 C 0.4614 0.4225 0.37329 0.0
C921 C 0.38348 0.48052 0.40746 0.0
N922 N 0.39888 0.34953 0.3684 0.0
N923 N 0.43436 0.56054 0.39653 0.0
H924 H 0.31535 0.49099 0.43712 0.0
H925 H 0.36072 0.54291 0.43865 0.0
H926 H 0.46626 0.58103 0.38639 0.0
H927 H 0.40365 0.58533 0.40379 0.0
H928 H 0.42186 0.33001 0.35134 0.0
H929 H 0.36475 0.32873 0.37488 0.0
H930 H 0.50054 0.35202 0.35835 0.0
H931 H 0.53823 0.41019 0.3542 0.0
C932 C 0.29661 0.6627 0.59802 0.0
C933 C 0.30914 0.71171 0.61294 0.0
C934 C 0.37069 0.66472 0.64975 0.0
C935 C 0.35601 0.61537 0.63595 0.0
N936 N 0.31302 0.56843 0.59228 0.0
N937 N 0.37252 0.76044 0.64474 0.0
C938 C 0.32193 0.6148 0.60841 0.0
C939 C 0.35055 0.71302 0.63636 0.0
N940 N 0.25794 0.66186 0.57492 0.0
N941 N 0.40455 0.66566 0.67551 0.0
H942 H 0.3628 0.79515 0.63283 0.0
H943 H 0.4052 0.76476 0.65981 0.0
H944 H 0.42423 0.63215 0.68416 0.0
H945 H 0.41157 0.69921 0.6894 0.0
H946 H 0.24053 0.62732 0.56611 0.0
H947 H 0.24178 0.69666 0.5653 0.0
H948 H 0.29461 0.56643 0.56988 0.0
H949 H 0.32609 0.53159 0.60038 0.0
C950 C 0.0889 0.55786 0.85958 0.0
C951 C 0.04872 0.55194 0.88328 0.0
C952 C 0.09892 0.61272 0.91831 0.0
C953 C 0.14349 0.61109 0.89732 0.0
N954 N 0.18219 0.57389 0.84899 0.0
N955 N 0.02212 0.56642 0.93868 0.0
C956 C 0.13865 0.58213 0.86789 0.0
C957 C 0.0554 0.57762 0.91351 0.0
N958 N 0.07987 0.5392 0.82925 0.0
N959 N 0.09708 0.64894 0.94257 0.0
H960 H 0.98896 0.54208 0.93664 0.0
H961 H 0.02971 0.57851 0.96222 0.0
H962 H 0.12689 0.67685 0.94607 0.0
H963 H 0.0633 0.65528 0.95655 0.0
H964 H 0.10538 0.5465 0.80992 0.0
H965 H 0.04415 0.52094 0.82286 0.0
H966 H 0.1821 0.54875 0.82916 0.0
H967 H 0.21991 0.58741 0.85488 0.0
C968 C 0.85617 0.70916 0.93954 0.0
C969 C 0.80027 0.71549 0.93917 0.0
C970 C 0.7914 0.61917 0.92954 0.0
C971 C 0.84672 0.61571 0.92308 0.0
N972 N 0.93189 0.65919 0.92028 0.0
N973 N 0.71369 0.67513 0.93448 0.0
C974 C 0.87933 0.66104 0.92817 0.0
C975 C 0.76755 0.66981 0.9351 0.0
N976 N 0.88701 0.75049 0.94973 0.0
N977 N 0.7616 0.57386 0.93042 0.0
H978 H 0.69465 0.71009 0.94082 0.0
H979 H 0.68793 0.64533 0.92681 0.0
H980 H 0.77805 0.53683 0.92601 0.0
H981 H 0.72232 0.57244 0.93821 0.0
H982 H 0.92787 0.74784 0.95304 0.0
H983 H 0.87035 0.78587 0.95792 0.0
H984 H 0.95697 0.69217 0.92057 0.0
H985 H 0.94936 0.62543 0.91062 0.0
C986 C 0.62606 0.60992 0.69605 0.0
C987 C 0.66034 0.58842 0.67188 0.0
C988 C 0.60178 0.50925 0.67043 0.0
C989 C 0.56241 0.53599 0.68852 0.0
N990 N 0.53679 0.61235 0.71873 0.0
N991 N 0.67777 0.51594 0.63517 0.0
C992 C 0.57498 0.58614 0.70183 0.0
C993 C 0.64753 0.5374 0.65908 0.0
N994 N 0.64154 0.65312 0.71344 0.0
N995 N 0.59458 0.45689 0.66323 0.0
H996 H 0.71302 0.53256 0.62691 0.0
H997 H 0.66622 0.48279 0.622 0.0
H998 H 0.56074 0.4359 0.67015 0.0
H999 H 0.624 0.43317 0.65322 0.0
H1000 H 0.62061 0.66697 0.73332 0.0
H1001 H 0.67761 0.67239 0.71011 0.0
H1002 H 0.54005 0.65202 0.72547 0.0
H1003 H 0.50053 0.5945 0.72465 0.0
C1004 C 0.75572 0.34269 0.41041 0.0
C1005 C 0.72803 0.30357 0.4288 0.0
C1006 C 0.65706 0.36919 0.43823 0.0
C1007 C 0.6807 0.40497 0.41529 0.0
N1008 N 0.75154 0.42149 0.37692 0.0
N1009 N 0.65112 0.27866 0.45943 0.0
C1010 C 0.72976 0.39049 0.40072 0.0
C1011 C 0.67863 0.31693 0.44283 0.0
N1012 N 0.8074 0.33419 0.40216 0.0
N1013 N 0.61347 0.3844 0.45538 0.0
H1014 H 0.66728 0.24142 0.46459 0.0
H1015 H 0.61182 0.28277 0.46673 0.0
H1016 H 0.59384 0.42007 0.45153 0.0
H1017 H 0.59855 0.36297 0.47497 0.0
H1018 H 0.83189 0.3632 0.39194 0.0
H1019 H 0.82753 0.29988 0.40876 0.0
H1020 H 0.78333 0.40949 0.36273 0.0
H1021 H 0.73629 0.45795 0.36968 0.0
C1022 C 0.88482 0.46016 0.18382 0.0
C1023 C 0.88024 0.42814 0.15577 0.0
C1024 C 0.96959 0.4575 0.13998 0.0
C1025 C 0.97689 0.48291 0.17042 0.0
N1026 N 0.94312 0.50001 0.2235 0.0
N1027 N 0.92418 0.38838 0.11028 0.0
C1028 C 0.93527 0.48061 0.19324 0.0
C1029 C 0.92449 0.42423 0.13484 0.0
N1030 N 0.8402 0.47624 0.19944 0.0
N1031 N 1.00349 0.46784 0.11502 0.0
H1032 H 0.89251 0.36251 0.10612 0.0
H1033 H 0.95752 0.38088 0.09615 0.0
H1034 H 0.03752 0.49101 0.11741 0.0
H1035 H 0.99599 0.45582 0.09146 0.0
H1036 H 0.84077 0.50306 0.21845 0.0
H1037 H 0.80264 0.46945 0.18991 0.0
H1038 H 0.91521 0.49562 0.24191 0.0
H1039 H 0.97955 0.51576 0.23081 0.0
C1040 C 0.72835 0.8442 0.60766 0.0
C1041 C 0.72568 0.80185 0.63034 0.0
C1042 C 0.66159 0.85431 0.6618 0.0
C1043 C 0.6728 0.90053 0.64306 0.0
N1044 N 0.72159 0.939 0.59805 0.0
N1045 N 0.69612 0.772 0.68294 0.0
C1046 C 0.70676 0.89523 0.61556 0.0
C1047 C 0.69358 0.80814 0.65833 0.0
N1048 N 0.75239 0.83574 0.57864 0.0
N1049 N 0.61933 0.85369 0.68244 0.0
H1050 H 0.72 0.73847 0.68214 0.0
H1051 H 0.67841 0.77818 0.70533 0.0
H1052 H 0.59266 0.88515 0.68404 0.0
H1053 H 0.60706 0.8195 0.69474 0.0
H1054 H 0.75145 0.863 0.55965 0.0
H1055 H 0.76863 0.79904 0.57258 0.0
H1056 H 0.7509 0.9383 0.58035 0.0
H1057 H 0.70838 0.97716 0.60279 0.0
C1058 C 0.88924 0.97467 0.9111 0.0
C1059 C 0.88025 0.92171 0.90031 0.0
C1060 C 0.96866 0.92333 0.87397 0.0
C1061 C 0.97686 0.97606 0.8846 0.0
N1062 N 0.9395 0.05652 0.90552 0.0
N1063 N 0.90958 0.84745 0.86829 0.0
C1064 C 0.93513 1.0031 0.90049 0.0
C1065 C 0.91919 0.8969 0.8804 0.0
N1066 N 0.85497 0.99791 0.93231 0.0
N1067 N 1.00945 0.89782 0.85896 0.0
H1068 H 0.87717 0.82425 0.87516 0.0
H1069 H 0.93278 0.82983 0.85061 0.0
H1070 H 0.04441 0.91753 0.85235 0.0
H1071 H 1.00978 0.85732 0.8541 0.0
H1072 H 0.86375 0.0328 0.94458 0.0
H1073 H 0.81902 0.98132 0.93955 0.0
H1074 H 0.9084 0.08007 0.91359 0.0
H1075 H 0.97266 0.07842 0.89844 0.0
C1076 C 0.85683 0.14471 0.11007 0.0
C1077 C 0.83253 0.11415 0.13545 0.0
C1078 C 0.75447 0.17297 0.1313 0.0
C1079 C 0.78378 0.20955 0.11213 0.0
N1080 N 0.86165 0.2294 0.08134 0.0
N1081 N 0.75666 0.10081 0.17032 0.0
C1082 C 0.83408 0.1943 0.10033 0.0
C1083 C 0.78075 0.12869 0.146 0.0
N1084 N 0.90203 0.12731 0.0954 0.0
N1085 N 0.70143 0.18106 0.13551 0.0
H1086 H 0.77413 0.06865 0.18201 0.0
H1087 H 0.72026 0.11112 0.1802 0.0
H1088 H 0.68156 0.21155 0.12354 0.0
H1089 H 0.67624 0.15431 0.14722 0.0
H1090 H 0.91719 0.1442 0.07431 0.0
H1091 H 0.923 0.09402 0.10277 0.0
H1092 H 0.90158 0.2252 0.07545 0.0
H1093 H 0.84441 0.26434 0.07263 0.0
C1094 C 0.57233 0.09133 0.36073 0.0
C1095 C 0.55699 0.04231 0.37503 0.0
C1096 C 0.64013 0.04193 0.40641 0.0
C1097 C 0.65588 0.0915 0.39255 0.0
N1098 N 0.64035 0.15832 0.35131 0.0
N1099 N 0.58502 0.96474 0.40526 0.0
C1100 C 0.62334 0.11425 0.36778 0.0
C1101 C 0.59386 0.01558 0.39523 0.0
N1102 N 0.53653 0.11746 0.34174 0.0
N1103 N 0.66916 0.01873 0.43046 0.0
H1104 H 0.55347 0.94139 0.39725 0.0
H1105 H 0.55347 0.94139 0.39725 0.0
H1106 H 0.70351 0.03527 0.44004 0.0
H1107 H 0.65798 0.98289 0.44139 0.0
H1108 H 0.5413 0.15653 0.33382 0.0
H1109 H 0.50054 0.10006 0.33499 0.0
H1110 H 0.62188 0.17274 0.33061 0.0
H1111 H 0.67466 0.17919 0.35712 0.0
C1112 C 0.2589 0.18277 0.41341 0.0
C1113 C 0.2848 0.22225 0.43202 0.0
C1114 C 0.36372 0.16497 0.43564 0.0
C1115 C 0.34036 0.12859 0.41331 0.0
N1116 N 0.2654 0.1051 0.37962 0.0
N1117 N 0.3603 0.25137 0.46196 0.0
C1118 C 0.28771 0.13791 0.40204 0.0
C1119 C 0.33635 0.21266 0.44408 0.0
N1120 N 0.2065 0.18912 0.40597 0.0
N1121 N 0.41294 0.15492 0.44801 0.0
H1122 H 0.33971 0.28494 0.46963 0.0
H1123 H 0.40016 0.2514 0.46844 0.0
H1124 H 0.43769 0.12529 0.43932 0.0
H1125 H 0.42919 0.17522 0.46743 0.0
H1126 H 0.18289 0.15965 0.3958 0.0
H1127 H 0.18527 0.22273 0.41253 0.0
H1128 H 0.23098 0.11423 0.36693 0.0
H1129 H 0.28227 0.06977 0.37197 0.0
C1130 C 0.08582 0.02785 0.16986 0.0
C1131 C 0.04341 0.0601 0.18085 0.0
C1132 C 0.10313 0.13797 0.17763 0.0
C1133 C 0.14234 0.10705 0.16145 0.0
N1134 N 0.16667 0.02249 0.13855 0.0
N1135 N 1.01112 0.14637 0.19482 0.0
C1136 C 0.13236 0.05201 0.15649 0.0
C1137 C 0.05234 0.11524 0.18504 0.0
N1138 N 0.08225 0.9739 0.17281 0.0
N1139 N 0.11382 0.18947 0.18554 0.0
H1140 H 0.97486 0.13031 0.20237 0.0
H1141 H 1.01196 0.18773 0.1942 0.0
H1142 H 0.14782 0.20943 0.178 0.0
H1143 H 0.0901 0.21175 0.20088 0.0
H1144 H 0.1135 0.94836 0.16767 0.0
H1145 H 0.05089 0.95506 0.18461 0.0
H1146 H 0.1582 0.98398 0.13103 0.0
H1147 H 0.20157 0.03765 0.12865 0.0
C1148 C 0.15063 0.86766 0.93177 0.0
C1149 C 0.18148 0.91495 0.92732 0.0
C1150 C 0.2554 0.8716 0.95568 0.0
C1151 C 0.22854 0.8221 0.95499 0.0
N1152 N 0.14436 0.77875 0.95581 0.0
N1153 N 0.26744 0.95628 0.92939 0.0
C1154 C 0.17407 0.82162 0.94678 0.0
C1155 C 0.2347 0.91567 0.93834 0.0
N1156 N 0.09971 0.86622 0.92069 0.0
N1157 N 0.30163 0.8759 0.97261 0.0
H1158 H 0.25479 0.98626 0.91393 0.0
H1159 H 0.30822 0.95606 0.93351 0.0
H1160 H 0.31681 0.84403 0.98592 0.0
H1161 H 0.3212 0.91194 0.9762 0.0
H1162 H 0.07613 0.8322 0.92049 0.0
H1163 H 0.08199 0.89891 0.90974 0.0
H1164 H 0.10355 0.77564 0.95256 0.0
H1165 H 0.16056 0.74899 0.97038 0.0
C1166 C 0.3843 0.9403 0.69257 0.0
C1167 C 0.37834 0.91483 0.66204 0.0
C1168 C 0.46832 0.94577 0.64741 0.0
C1169 C 0.47504 0.96898 0.67842 0.0
N1170 N 0.44413 0.97753 0.73273 0.0
N1171 N 0.42175 0.88413 0.6133 0.0
C1172 C 0.43466 0.96207 0.70178 0.0
C1173 C 0.42253 0.91451 0.64051 0.0
N1174 N 0.34094 0.94823 0.71166 0.0
N1175 N 0.50397 0.95647 0.6234 0.0
H1176 H 0.38893 0.86313 0.60518 0.0
H1177 H 0.45562 0.8763 0.59974 0.0
H1178 H 0.53868 0.97766 0.62706 0.0
H1179 H 0.49718 0.94794 0.59921 0.0
H1180 H 0.34176 0.97071 0.73263 0.0
H1181 H 0.30277 0.93786 0.70466 0.0
H1182 H 0.41838 0.96924 0.75179 0.0
H1183 H 0.48045 0.99391 0.73974 0.0
loop_
_geom_bond_atom_site_label_1
_geom_bond_atom_site_label_2
_geom_bond_distance
_geom_bond_site_symmetry_2
_ccdc_geom_bond_type
Dy0 O4 2.398 . S
Dy0 O5 2.491 . S
Dy0 O6 2.403 . S
Dy0 O7 2.664 . S
Dy0 O11 2.326 . S
Dy0 O15 2.310 . S
Dy0 O16 2.351 . S
C1 O12 1.185 . S
C1 O13 1.355 . S
C2 O4 1.185 . S
C2 O5 1.355 . S
Dy3 O7 2.310 . S
Dy3 O10 2.351 . S
Dy3 O12 2.398 . S
Dy3 O13 2.491 . S
Dy3 O14 2.403 . S
Dy3 O15 2.664 . S
Dy3 O17 2.326 . S
O4 Dy0 2.398 . S
O4 C2 1.185 . S
O5 Dy0 2.491 . S
O5 C2 1.355 . S
O6 Dy0 2.403 . S
O6 C8 1.254 . S
O7 Dy0 2.664 . S
O7 Dy3 2.310 . S
O7 C8 1.268 . S
C8 O6 1.254 . S
C8 O7 1.268 . S
C9 O14 1.254 . S
C9 O15 1.268 . S
O10 Dy3 2.351 . S
O10 C18 1.249 . S
O11 Dy0 2.326 . S
O11 C18 1.267 . S
O12 C1 1.185 . S
O12 Dy3 2.398 . S
O13 C1 1.355 . S
O13 Dy3 2.491 . S
O14 Dy3 2.403 . S
O14 C9 1.254 . S
O15 Dy0 2.310 . S
O15 Dy3 2.664 . S
O15 C9 1.268 . S
O16 Dy0 2.351 . S
O16 C19 1.249 . S
O17 Dy3 2.326 . S
O17 C19 1.267 . S
C18 O10 1.249 . S
C18 O11 1.267 . S
C19 O16 1.249 . S
C19 O17 1.267 . S
Dy20 O24 2.398 . S
Dy20 O25 2.491 . S
Dy20 O26 2.403 . S
Dy20 O27 2.664 . S
Dy20 O31 2.326 . S
Dy20 O35 2.310 . S
Dy20 O36 2.351 . S
C21 O32 1.185 . S
C21 O33 1.355 . S
C22 O24 1.185 . S
C22 O25 1.355 . S
Dy23 O27 2.310 . S
Dy23 O30 2.351 . S
Dy23 O32 2.398 . S
Dy23 O33 2.491 . S
Dy23 O34 2.403 . S
Dy23 O35 2.664 . S
Dy23 O37 2.326 . S
O24 Dy20 2.398 . S
O24 C22 1.185 . S
O25 Dy20 2.491 . S
O25 C22 1.355 . S
O26 Dy20 2.403 . S
O26 C28 1.254 . S
O27 Dy20 2.664 . S
O27 Dy23 2.310 . S
O27 C28 1.268 . S
C28 O26 1.254 . S
C28 O27 1.268 . S
C29 O34 1.254 . S
C29 O35 1.268 . S
O30 Dy23 2.351 . S
O30 C38 1.249 . S
O31 Dy20 2.326 . S
O31 C38 1.267 . S
O32 C21 1.185 . S
O32 Dy23 2.398 . S
O33 C21 1.355 . S
O33 Dy23 2.491 . S
O34 Dy23 2.403 . S
O34 C29 1.254 . S
O35 Dy20 2.310 . S
O35 Dy23 2.664 . S
O35 C29 1.268 . S
O36 Dy20 2.351 . S
O36 C39 1.249 . S
O37 Dy23 2.326 . S
O37 C39 1.267 . S
C38 O30 1.249 . S
C38 O31 1.267 . S
C39 O36 1.249 . S
C39 O37 1.267 . S
Dy40 O44 2.398 . S
Dy40 O45 2.491 . S
Dy40 O46 2.403 . S
Dy40 O47 2.664 . S
Dy40 O51 2.326 . S
Dy40 O55 2.310 . S
Dy40 O56 2.351 . S
C41 O52 1.185 . S
C41 O53 1.355 . S
C42 O44 1.185 . S
C42 O45 1.355 . S
Dy43 O47 2.310 . S
Dy43 O50 2.351 . S
Dy43 O52 2.398 . S
Dy43 O53 2.491 . S
Dy43 O54 2.403 . S
Dy43 O55 2.664 . S
Dy43 O57 2.326 . S
O44 Dy40 2.398 . S
O44 C42 1.185 . S
O45 Dy40 2.491 . S
O45 C42 1.355 . S
O46 Dy40 2.403 . S
O46 C48 1.254 . S
O47 Dy40 2.664 . S
O47 Dy43 2.310 . S
O47 C48 1.268 . S
C48 O46 1.254 . S
C48 O47 1.268 . S
C49 O54 1.254 . S
C49 O55 1.268 . S
O50 Dy43 2.351 . S
O50 C58 1.249 . S
O51 Dy40 2.326 . S
O51 C58 1.267 . S
O52 C41 1.185 . S
O52 Dy43 2.398 . S
O53 C41 1.355 . S
O53 Dy43 2.491 . S
O54 Dy43 2.403 . S
O54 C49 1.254 . S
O55 Dy40 2.310 . S
O55 Dy43 2.664 . S
O55 C49 1.268 . S
O56 Dy40 2.351 . S
O56 C59 1.249 . S
O57 Dy43 2.326 . S
O57 C59 1.267 . S
C58 O50 1.249 . S
C58 O51 1.267 . S
C59 O56 1.249 . S
C59 O57 1.267 . S
Dy60 O64 2.382 1_655 S
Dy60 O65 2.491 . S
Dy60 O66 2.394 1_655 S
Dy60 O67 2.664 . S
Dy60 O71 2.326 . S
Dy60 O75 2.310 . S
Dy60 O76 2.351 . S
C61 O72 1.185 . S
C61 O73 1.355 . S
C62 O64 1.177 1_655 S
C62 O65 1.355 . S
Dy63 O67 2.310 . S
Dy63 O70 2.351 . S
Dy63 O72 2.398 . S
Dy63 O73 2.491 . S
Dy63 O74 2.403 . S
Dy63 O75 2.664 . S
Dy63 O77 2.326 . S
O64 Dy60 2.382 1_455 S
O64 C62 1.177 1_455 S
O65 Dy60 2.491 . S
O65 C62 1.355 . S
O66 Dy60 2.394 1_455 S
O66 C68 1.249 1_455 S
O67 Dy60 2.664 . S
O67 Dy63 2.310 . S
O67 C68 1.268 . S
C68 O66 1.249 1_655 S
C68 O67 1.268 . S
C69 O74 1.254 . S
C69 O75 1.268 . S
O70 Dy63 2.351 . S
O70 C78 1.249 . S
O71 Dy60 2.326 . S
O71 C78 1.267 . S
O72 C61 1.185 . S
O72 Dy63 2.398 . S
O73 C61 1.355 . S
O73 Dy63 2.491 . S
O74 Dy63 2.403 . S
O74 C69 1.254 . S
O75 Dy60 2.310 . S
O75 Dy63 2.664 . S
O75 C69 1.268 . S
O76 Dy60 2.351 . S
O76 C79 1.249 . S
O77 Dy63 2.326 . S
O77 C79 1.267 . S
C78 O70 1.249 . S
C78 O71 1.267 . S
C79 O76 1.249 . S
C79 O77 1.267 . S
Dy80 O84 2.398 . S
Dy80 O85 2.491 . S
Dy80 O86 2.403 . S
Dy80 O87 2.664 . S
Dy80 O91 2.326 . S
Dy80 O95 2.310 . S
Dy80 O96 2.351 . S
C81 O92 1.185 . S
C81 O93 1.355 . S
C82 O84 1.185 . S
C82 O85 1.355 . S
Dy83 O87 2.310 . S
Dy83 O90 2.351 . S
Dy83 O92 2.398 . S
Dy83 O93 2.491 . S
Dy83 O94 2.403 . S
Dy83 O95 2.664 . S
Dy83 O97 2.326 . S
O84 Dy80 2.398 . S
O84 C82 1.185 . S
O85 Dy80 2.491 . S
O85 C82 1.355 . S
O86 Dy80 2.403 . S
O86 C88 1.254 . S
O87 Dy80 2.664 . S
O87 Dy83 2.310 . S
O87 C88 1.268 . S
C88 O86 1.254 . S
C88 O87 1.268 . S
C89 O94 1.254 . S
C89 O95 1.268 . S
O90 Dy83 2.351 . S
O90 C98 1.249 . S
O91 Dy80 2.326 . S
O91 C98 1.267 . S
O92 C81 1.185 . S
O92 Dy83 2.398 . S
O93 C81 1.355 . S
O93 Dy83 2.491 . S
O94 Dy83 2.403 . S
O94 C89 1.254 . S
O95 Dy80 2.310 . S
O95 Dy83 2.664 . S
O95 C89 1.268 . S
O96 Dy80 2.351 . S
O96 C99 1.249 . S
O97 Dy83 2.326 . S
O97 C99 1.267 . S
C98 O90 1.249 . S
C98 O91 1.267 . S
C99 O96 1.249 . S
C99 O97 1.267 . S
Dy100 O104 2.398 . S
Dy100 O105 2.491 . S
Dy100 O106 2.403 . S
Dy100 O107 2.664 . S
Dy100 O111 2.326 . S
Dy100 O115 2.310 . S
Dy100 O116 2.351 . S
C101 O112 1.185 . S
C101 O113 1.355 . S
C102 O104 1.185 . S
C102 O105 1.355 . S
Dy103 O107 2.310 . S
Dy103 O110 2.351 . S
Dy103 O112 2.398 . S
Dy103 O113 2.491 . S
Dy103 O114 2.403 . S
Dy103 O115 2.664 . S
Dy103 O117 2.326 . S
O104 Dy100 2.398 . S
O104 C102 1.185 . S
O105 Dy100 2.491 . S
O105 C102 1.355 . S
O106 Dy100 2.403 . S
O106 C108 1.254 . S
O107 Dy100 2.664 . S
O107 Dy103 2.310 . S
O107 C108 1.268 . S
C108 O106 1.254 . S
C108 O107 1.268 . S
C109 O114 1.254 . S
C109 O115 1.268 . S
O110 Dy103 2.351 . S
O110 C118 1.249 . S
O111 Dy100 2.326 . S
O111 C118 1.267 . S
O112 C101 1.185 . S
O112 Dy103 2.398 . S
O113 C101 1.355 . S
O113 Dy103 2.491 . S
O114 Dy103 2.403 . S
O114 C109 1.254 . S
O115 Dy100 2.310 . S
O115 Dy103 2.664 . S
O115 C109 1.268 . S
O116 Dy100 2.351 . S
O116 C119 1.249 . S
O117 Dy103 2.326 . S
O117 C119 1.267 . S
C118 O110 1.249 . S
C118 O111 1.267 . S
C119 O116 1.249 . S
C119 O117 1.267 . S
Dy120 O124 2.398 . S
Dy120 O125 2.491 . S
Dy120 O126 2.403 . S
Dy120 O127 2.664 . S
Dy120 O131 2.326 . S
Dy120 O135 2.310 . S
Dy120 O136 2.351 . S
C121 O132 1.185 . S
C121 O133 1.355 . S
C122 O124 1.185 . S
C122 O125 1.355 . S
Dy123 O127 2.310 . S
Dy123 O130 2.351 . S
Dy123 O132 2.398 . S
Dy123 O133 2.491 . S
Dy123 O134 2.403 . S
Dy123 O135 2.664 . S
Dy123 O137 2.326 . S
O124 Dy120 2.398 . S
O124 C122 1.185 . S
O125 Dy120 2.491 . S
O125 C122 1.355 . S
O126 Dy120 2.403 . S
O126 C128 1.254 . S
O127 Dy120 2.664 . S
O127 Dy123 2.310 . S
O127 C128 1.268 . S
C128 O126 1.254 . S
C128 O127 1.268 . S
C129 O134 1.254 . S
C129 O135 1.268 . S
O130 Dy123 2.351 . S
O130 C138 1.249 . S
O131 Dy120 2.326 . S
O131 C138 1.267 . S
O132 C121 1.185 . S
O132 Dy123 2.398 . S
O133 C121 1.355 . S
O133 Dy123 2.491 . S
O134 Dy123 2.403 . S
O134 C129 1.254 . S
O135 Dy120 2.310 . S
O135 Dy123 2.664 . S
O135 C129 1.268 . S
O136 Dy120 2.351 . S
O136 C139 1.249 . S
O137 Dy123 2.326 . S
O137 C139 1.267 . S
C138 O130 1.249 . S
C138 O131 1.267 . S
C139 O136 1.249 . S
C139 O137 1.267 . S
Dy140 O144 2.398 . S
Dy140 O145 2.491 . S
Dy140 O146 2.403 . S
Dy140 O147 2.664 . S
Dy140 O151 2.326 . S
Dy140 O155 2.310 . S
Dy140 O156 2.351 . S
C141 O152 1.177 1_455 S
C141 O153 1.355 . S
C142 O144 1.185 . S
C142 O145 1.355 . S
Dy143 O147 2.310 . S
Dy143 O150 2.351 . S
Dy143 O152 2.382 1_455 S
Dy143 O153 2.491 . S
Dy143 O154 2.394 1_455 S
Dy143 O155 2.664 . S
Dy143 O157 2.326 . S
O144 Dy140 2.398 . S
O144 C142 1.185 . S
O145 Dy140 2.491 . S
O145 C142 1.355 . S
O146 Dy140 2.403 . S
O146 C148 1.254 . S
O147 Dy140 2.664 . S
O147 Dy143 2.310 . S
O147 C148 1.268 . S
C148 O146 1.254 . S
C148 O147 1.268 . S
C149 O154 1.249 1_455 S
C149 O155 1.268 . S
O150 Dy143 2.351 . S
O150 C158 1.249 . S
O151 Dy140 2.326 . S
O151 C158 1.267 . S
O152 C141 1.177 1_655 S
O152 Dy143 2.382 1_655 S
O153 C141 1.355 . S
O153 Dy143 2.491 . S
O154 Dy143 2.394 1_655 S
O154 C149 1.249 1_655 S
O155 Dy140 2.310 . S
O155 Dy143 2.664 . S
O155 C149 1.268 . S
O156 Dy140 2.351 . S
O156 C159 1.249 . S
O157 Dy143 2.326 . S
O157 C159 1.267 . S
C158 O150 1.249 . S
C158 O151 1.267 . S
C159 O156 1.249 . S
C159 O157 1.267 . S
Dy160 O164 2.398 . S
Dy160 O165 2.491 . S
Dy160 O166 2.403 . S
Dy160 O167 2.664 . S
Dy160 O171 2.326 . S
Dy160 O175 2.310 . S
Dy160 O176 2.351 . S
C161 O172 1.185 . S
C161 O173 1.355 . S
C162 O164 1.185 . S
C162 O165 1.355 . S
Dy163 O167 2.310 . S
Dy163 O170 2.351 . S
Dy163 O172 2.398 . S
Dy163 O173 2.491 . S
Dy163 O174 2.403 . S
Dy163 O175 2.664 . S
Dy163 O177 2.326 . S
O164 Dy160 2.398 . S
O164 C162 1.185 . S
O165 Dy160 2.491 . S
O165 C162 1.355 . S
O166 Dy160 2.403 . S
O166 C168 1.254 . S
O167 Dy160 2.664 . S
O167 Dy163 2.310 . S
O167 C168 1.268 . S
C168 O166 1.254 . S
C168 O167 1.268 . S
C169 O174 1.254 . S
C169 O175 1.268 . S
O170 Dy163 2.351 . S
O170 C178 1.249 . S
O171 Dy160 2.326 . S
O171 C178 1.267 . S
O172 C161 1.185 . S
O172 Dy163 2.398 . S
O173 C161 1.355 . S
O173 Dy163 2.491 . S
O174 Dy163 2.403 . S
O174 C169 1.254 . S
O175 Dy160 2.310 . S
O175 Dy163 2.664 . S
O175 C169 1.268 . S
O176 Dy160 2.351 . S
O176 C179 1.249 . S
O177 Dy163 2.326 . S
O177 C179 1.267 . S
C178 O170 1.249 . S
C178 O171 1.267 . S
C179 O176 1.249 . S
C179 O177 1.267 . S
Dy180 O184 2.384 1_455 S
Dy180 O185 2.502 . S
Dy180 O186 2.390 1_445 S
Dy180 O187 2.665 . S
Dy180 O191 2.341 . S
Dy180 O195 2.319 . S
Dy180 O196 2.340 1_545 S
C181 O192 1.185 . S
C181 O193 1.355 1_545 S
C182 O184 1.177 1_455 S
C182 O185 1.355 . S
Dy183 O187 2.310 . S
Dy183 O190 2.351 . S
Dy183 O192 2.398 . S
Dy183 O193 2.491 1_545 S
Dy183 O194 2.403 . S
Dy183 O195 2.664 . S
Dy183 O197 2.326 1_545 S
O184 Dy180 2.384 1_655 S
O184 C182 1.177 1_655 S
O185 Dy180 2.502 . S
O185 C182 1.355 . S
O186 Dy180 2.390 1_665 S
O186 C188 1.249 1_655 S
O187 Dy180 2.665 . S
O187 Dy183 2.310 . S
O187 C188 1.268 1_545 S
C188 O186 1.249 1_455 S
C188 O187 1.268 1_565 S
C189 O194 1.254 . S
C189 O195 1.268 . S
O190 Dy183 2.351 . S
O190 C198 1.249 . S
O191 Dy180 2.341 . S
O191 C198 1.267 . S
O192 C181 1.185 . S
O192 Dy183 2.398 . S
O193 C181 1.355 1_565 S
O193 Dy183 2.491 1_565 S
O194 Dy183 2.403 . S
O194 C189 1.254 . S
O195 Dy180 2.319 . S
O195 Dy183 2.664 . S
O195 C189 1.268 . S
O196 Dy180 2.340 1_565 S
O196 C199 1.249 . S
O197 Dy183 2.326 1_565 S
O197 C199 1.267 . S
C198 O190 1.249 . S
C198 O191 1.267 . S
C199 O196 1.249 . S
C199 O197 1.267 . S
Dy200 O204 2.398 . S
Dy200 O205 2.491 . S
Dy200 O206 2.403 . S
Dy200 O207 2.664 . S
Dy200 O211 2.326 . S
Dy200 O215 2.310 . S
Dy200 O216 2.351 . S
C201 O212 1.185 . S
C201 O213 1.355 . S
C202 O204 1.185 . S
C202 O205 1.355 . S
Dy203 O207 2.310 . S
Dy203 O210 2.351 . S
Dy203 O212 2.398 . S
Dy203 O213 2.491 . S
Dy203 O214 2.403 . S
Dy203 O215 2.664 . S
Dy203 O217 2.326 . S
O204 Dy200 2.398 . S
O204 C202 1.185 . S
O205 Dy200 2.491 . S
O205 C202 1.355 . S
O206 Dy200 2.403 . S
O206 C208 1.254 . S
O207 Dy200 2.664 . S
O207 Dy203 2.310 . S
O207 C208 1.268 . S
C208 O206 1.254 . S
C208 O207 1.268 . S
C209 O214 1.254 . S
C209 O215 1.268 . S
O210 Dy203 2.351 . S
O210 C218 1.249 . S
O211 Dy200 2.326 . S
O211 C218 1.267 . S
O212 C201 1.185 . S
O212 Dy203 2.398 . S
O213 C201 1.355 . S
O213 Dy203 2.491 . S
O214 Dy203 2.403 . S
O214 C209 1.254 . S
O215 Dy200 2.310 . S
O215 Dy203 2.664 . S
O215 C209 1.268 . S
O216 Dy200 2.351 . S
O216 C219 1.249 . S
O217 Dy203 2.326 . S
O217 C219 1.267 . S
C218 O210 1.249 . S
C218 O211 1.267 . S
C219 O216 1.249 . S
C219 O217 1.267 . S
Dy220 O224 2.400 . S
Dy220 O225 2.502 . S
Dy220 O226 2.399 1_565 S
Dy220 O227 2.665 . S
Dy220 O231 2.341 . S
Dy220 O235 2.319 . S
Dy220 O236 2.340 1_565 S
C221 O232 1.185 . S
C221 O233 1.355 1_565 S
C222 O224 1.185 . S
C222 O225 1.355 . S
Dy223 O227 2.310 . S
Dy223 O230 2.351 . S
Dy223 O232 2.398 . S
Dy223 O233 2.491 1_565 S
Dy223 O234 2.403 . S
Dy223 O235 2.664 . S
Dy223 O237 2.326 1_565 S
O224 Dy220 2.400 . S
O224 C222 1.185 . S
O225 Dy220 2.502 . S
O225 C222 1.355 . S
O226 Dy220 2.399 1_545 S
O226 C228 1.254 . S
O227 Dy220 2.665 . S
O227 Dy223 2.310 . S
O227 C228 1.268 1_565 S
C228 O226 1.254 . S
C228 O227 1.268 1_545 S
C229 O234 1.254 . S
C229 O235 1.268 . S
O230 Dy223 2.351 . S
O230 C238 1.249 . S
O231 Dy220 2.341 . S
O231 C238 1.267 . S
O232 C221 1.185 . S
O232 Dy223 2.398 . S
O233 C221 1.355 1_545 S
O233 Dy223 2.491 1_545 S
O234 Dy223 2.403 . S
O234 C229 1.254 . S
O235 Dy220 2.319 . S
O235 Dy223 2.664 . S
O235 C229 1.268 . S
O236 Dy220 2.340 1_545 S
O236 C239 1.249 . S
O237 Dy223 2.326 1_545 S
O237 C239 1.267 . S
C238 O230 1.249 . S
C238 O231 1.267 . S
C239 O236 1.249 . S
C239 O237 1.267 . S
Dy240 O244 2.398 . S
Dy240 O245 2.491 . S
Dy240 O246 2.403 . S
Dy240 O247 2.664 . S
Dy240 O251 2.326 . S
Dy240 O255 2.310 . S
Dy240 O256 2.351 . S
C241 O252 1.185 . S
C241 O253 1.355 . S
C242 O244 1.185 . S
C242 O245 1.355 . S
Dy243 O247 2.310 . S
Dy243 O250 2.351 . S
Dy243 O252 2.398 . S
Dy243 O253 2.491 . S
Dy243 O254 2.403 . S
Dy243 O255 2.664 . S
Dy243 O257 2.326 . S
O244 Dy240 2.398 . S
O244 C242 1.185 . S
O245 Dy240 2.491 . S
O245 C242 1.355 . S
O246 Dy240 2.403 . S
O246 C248 1.254 . S
O247 Dy240 2.664 . S
O247 Dy243 2.310 . S
O247 C248 1.268 . S
C248 O246 1.254 . S
C248 O247 1.268 . S
C249 O254 1.254 . S
C249 O255 1.268 . S
O250 Dy243 2.351 . S
O250 C258 1.249 . S
O251 Dy240 2.326 . S
O251 C258 1.267 . S
O252 C241 1.185 . S
O252 Dy243 2.398 . S
O253 C241 1.355 . S
O253 Dy243 2.491 . S
O254 Dy243 2.403 . S
O254 C249 1.254 . S
O255 Dy240 2.310 . S
O255 Dy243 2.664 . S
O255 C249 1.268 . S
O256 Dy240 2.351 . S
O256 C259 1.249 . S
O257 Dy243 2.326 . S
O257 C259 1.267 . S
C258 O250 1.249 . S
C258 O251 1.267 . S
C259 O256 1.249 . S
C259 O257 1.267 . S
Dy260 O264 2.398 . S
Dy260 O265 2.491 1_565 S
Dy260 O266 2.403 . S
Dy260 O267 2.664 . S
Dy260 O271 2.326 1_565 S
Dy260 O275 2.310 . S
Dy260 O276 2.351 . S
C261 O272 1.177 1_655 S
C261 O273 1.355 . S
C262 O264 1.185 . S
C262 O265 1.355 1_565 S
Dy263 O267 2.319 . S
Dy263 O270 2.340 1_565 S
Dy263 O272 2.384 1_655 S
Dy263 O273 2.502 . S
Dy263 O274 2.390 1_665 S
Dy263 O275 2.665 . S
Dy263 O277 2.341 . S
O264 Dy260 2.398 . S
O264 C262 1.185 . S
O265 Dy260 2.491 1_545 S
O265 C262 1.355 1_545 S
O266 Dy260 2.403 . S
O266 C268 1.254 . S
O267 Dy260 2.664 . S
O267 Dy263 2.319 . S
O267 C268 1.268 . S
C268 O266 1.254 . S
C268 O267 1.268 . S
C269 O274 1.249 1_655 S
C269 O275 1.268 1_545 S
O270 Dy263 2.340 1_545 S
O270 C278 1.249 . S
O271 Dy260 2.326 1_545 S
O271 C278 1.267 . S
O272 C261 1.177 1_455 S
O272 Dy263 2.384 1_455 S
O273 C261 1.355 . S
O273 Dy263 2.502 . S
O274 Dy263 2.390 1_445 S
O274 C269 1.249 1_455 S
O275 Dy260 2.310 . S
O275 Dy263 2.665 . S
O275 C269 1.268 1_565 S
O276 Dy260 2.351 . S
O276 C279 1.249 . S
O277 Dy263 2.341 . S
O277 C279 1.267 . S
C278 O270 1.249 . S
C278 O271 1.267 . S
C279 O276 1.249 . S
C279 O277 1.267 . S
Dy280 O284 2.398 . S
Dy280 O285 2.491 . S
Dy280 O286 2.403 . S
Dy280 O287 2.664 . S
Dy280 O291 2.326 . S
Dy280 O295 2.310 . S
Dy280 O296 2.351 . S
C281 O292 1.185 . S
C281 O293 1.355 . S
C282 O284 1.185 . S
C282 O285 1.355 . S
Dy283 O287 2.310 . S
Dy283 O290 2.351 . S
Dy283 O292 2.398 . S
Dy283 O293 2.491 . S
Dy283 O294 2.403 . S
Dy283 O295 2.664 . S
Dy283 O297 2.326 . S
O284 Dy280 2.398 . S
O284 C282 1.185 . S
O285 Dy280 2.491 . S
O285 C282 1.355 . S
O286 Dy280 2.403 . S
O286 C288 1.254 . S
O287 Dy280 2.664 . S
O287 Dy283 2.310 . S
O287 C288 1.268 . S
C288 O286 1.254 . S
C288 O287 1.268 . S
C289 O294 1.254 . S
C289 O295 1.268 . S
O290 Dy283 2.351 . S
O290 C298 1.249 . S
O291 Dy280 2.326 . S
O291 C298 1.267 . S
O292 C281 1.185 . S
O292 Dy283 2.398 . S
O293 C281 1.355 . S
O293 Dy283 2.491 . S
O294 Dy283 2.403 . S
O294 C289 1.254 . S
O295 Dy280 2.310 . S
O295 Dy283 2.664 . S
O295 C289 1.268 . S
O296 Dy280 2.351 . S
O296 C299 1.249 . S
O297 Dy283 2.326 . S
O297 C299 1.267 . S
C298 O290 1.249 . S
C298 O291 1.267 . S
C299 O296 1.249 . S
C299 O297 1.267 . S
Dy300 O304 2.398 . S
Dy300 O305 2.491 1_545 S
Dy300 O306 2.403 . S
Dy300 O307 2.664 . S
Dy300 O311 2.326 1_545 S
Dy300 O315 2.310 . S
Dy300 O316 2.351 . S
C301 O312 1.185 . S
C301 O313 1.355 . S
C302 O304 1.185 . S
C302 O305 1.355 1_545 S
Dy303 O307 2.319 . S
Dy303 O310 2.340 1_545 S
Dy303 O312 2.400 . S
Dy303 O313 2.502 . S
Dy303 O314 2.399 1_545 S
Dy303 O315 2.665 . S
Dy303 O317 2.341 . S
O304 Dy300 2.398 . S
O304 C302 1.185 . S
O305 Dy300 2.491 1_565 S
O305 C302 1.355 1_565 S
O306 Dy300 2.403 . S
O306 C308 1.254 . S
O307 Dy300 2.664 . S
O307 Dy303 2.319 . S
O307 C308 1.268 . S
C308 O306 1.254 . S
C308 O307 1.268 . S
C309 O314 1.254 . S
C309 O315 1.268 1_565 S
O310 Dy303 2.340 1_565 S
O310 C318 1.249 . S
O311 Dy300 2.326 1_565 S
O311 C318 1.267 . S
O312 C301 1.185 . S
O312 Dy303 2.400 . S
O313 C301 1.355 . S
O313 Dy303 2.502 . S
O314 Dy303 2.399 1_565 S
O314 C309 1.254 . S
O315 Dy300 2.310 . S
O315 Dy303 2.665 . S
O315 C309 1.268 1_545 S
O316 Dy300 2.351 . S
O316 C319 1.249 . S
O317 Dy303 2.341 . S
O317 C319 1.267 . S
C318 O310 1.249 . S
C318 O311 1.267 . S
C319 O316 1.249 . S
C319 O317 1.267 . S
C320 C321 1.363 . S
C320 C326 1.379 . S
C320 N328 1.356 . S
C321 C320 1.363 . S
C321 C327 1.363 . S
C322 C323 1.363 . S
C322 C327 1.379 . S
C322 N329 1.356 . S
C323 C322 1.363 . S
C323 C326 1.363 . S
N324 C326 1.356 . S
N324 H336 0.984 . S
N324 H337 0.985 . S
N325 C327 1.356 . S
N325 H330 0.984 . S
N325 H331 0.985 . S
C326 C320 1.379 . S
C326 C323 1.363 . S
C326 N324 1.356 . S
C327 C321 1.363 . S
C327 C322 1.379 . S
C327 N325 1.356 . S
N328 C320 1.356 . S
N328 H334 0.984 . S
N328 H335 0.984 . S
N329 C322 1.356 . S
N329 H332 0.984 . S
N329 H333 0.985 . S
H330 N325 0.984 . S
H331 N325 0.985 . S
H332 N329 0.984 . S
H333 N329 0.985 . S
H334 N328 0.984 . S
H335 N328 0.984 . S
H336 N324 0.984 . S
H337 N324 0.985 . S
C338 C339 1.363 . S
C338 C344 1.379 . S
C338 N346 1.356 . S
C339 C338 1.363 . S
C339 C345 1.363 . S
C340 C341 1.363 . S
C340 C345 1.379 . S
C340 N347 1.356 . S
C341 C340 1.363 . S
C341 C344 1.363 . S
N342 C344 1.356 . S
N342 H354 0.984 . S
N342 H355 0.985 . S
N343 C345 1.356 . S
N343 H348 0.984 . S
N343 H349 0.985 . S
C344 C338 1.379 . S
C344 C341 1.363 . S
C344 N342 1.356 . S
C345 C339 1.363 . S
C345 C340 1.379 . S
C345 N343 1.356 . S
N346 C338 1.356 . S
N346 H352 0.984 . S
N346 H353 0.984 . S
N347 C340 1.356 . S
N347 H350 0.984 . S
N347 H351 0.985 . S
H348 N343 0.984 . S
H349 N343 0.985 . S
H350 N347 0.984 . S
H351 N347 0.985 . S
H352 N346 0.984 . S
H353 N346 0.984 . S
H354 N342 0.984 . S
H355 N342 0.985 . S
C356 C357 1.363 . S
C356 C362 1.379 . S
C356 N364 1.356 . S
C357 C356 1.363 . S
C357 C363 1.363 . S
C358 C359 1.363 . S
C358 C363 1.379 . S
C358 N365 1.356 . S
C359 C358 1.363 . S
C359 C362 1.363 . S
N360 C362 1.356 . S
N360 H372 0.984 . S
N360 H373 0.985 . S
N361 C363 1.356 . S
N361 H366 0.984 . S
N361 H367 0.985 . S
C362 C356 1.379 . S
C362 C359 1.363 . S
C362 N360 1.356 . S
C363 C357 1.363 . S
C363 C358 1.379 . S
C363 N361 1.356 . S
N364 C356 1.356 . S
N364 H370 0.984 . S
N364 H371 0.984 . S
N365 C358 1.356 . S
N365 H368 0.984 . S
N365 H369 0.985 . S
H366 N361 0.984 . S
H367 N361 0.985 . S
H368 N365 0.984 . S
H369 N365 0.985 . S
H370 N364 0.984 . S
H371 N364 0.984 . S
H372 N360 0.984 . S
H373 N360 0.985 . S
C374 C375 1.363 1_554 S
C374 C380 1.379 . S
C374 N382 1.356 . S
C375 C374 1.363 1_556 S
C375 C381 1.363 1_655 S
C376 C377 1.363 1_556 S
C376 C381 1.379 . S
C376 N383 1.356 . S
C377 C376 1.363 1_554 S
C377 C380 1.363 1_455 S
N378 C380 1.356 . S
N378 H390 0.984 . S
N378 H391 0.985 . S
N379 C381 1.356 . S
N379 H384 0.984 . S
N379 H385 0.985 . S
C380 C374 1.379 . S
C380 C377 1.363 1_655 S
C380 N378 1.356 . S
C381 C375 1.363 1_455 S
C381 C376 1.379 . S
C381 N379 1.356 . S
N382 C374 1.356 . S
N382 H388 0.984 . S
N382 H389 0.984 . S
N383 C376 1.356 . S
N383 H386 0.984 . S
N383 H387 0.985 . S
H384 N379 0.984 . S
H385 N379 0.985 . S
H386 N383 0.984 . S
H387 N383 0.985 . S
H388 N382 0.984 . S
H389 N382 0.984 . S
H390 N378 0.984 . S
H391 N378 0.985 . S
C392 C393 1.363 . S
C392 C398 1.379 . S
C392 N400 1.356 . S
C393 C392 1.363 . S
C393 C399 1.363 . S
C394 C395 1.363 . S
C394 C399 1.379 . S
C394 N401 1.356 . S
C395 C394 1.363 . S
C395 C398 1.363 . S
N396 C398 1.356 . S
N396 H408 0.984 . S
N396 H409 0.985 . S
N397 C399 1.356 . S
N397 H402 0.984 . S
N397 H403 0.985 . S
C398 C392 1.379 . S
C398 C395 1.363 . S
C398 N396 1.356 . S
C399 C393 1.363 . S
C399 C394 1.379 . S
C399 N397 1.356 . S
N400 C392 1.356 . S
N400 H406 0.984 . S
N400 H407 0.984 . S
N401 C394 1.356 . S
N401 H404 0.984 . S
N401 H405 0.985 . S
H402 N397 0.984 . S
H403 N397 0.985 . S
H404 N401 0.984 . S
H405 N401 0.985 . S
H406 N400 0.984 . S
H407 N400 0.984 . S
H408 N396 0.984 . S
H409 N396 0.985 . S
C410 C411 1.363 . S
C410 C416 1.379 . S
C410 N418 1.356 . S
C411 C410 1.363 . S
C411 C417 1.363 . S
C412 C413 1.363 . S
C412 C417 1.379 . S
C412 N419 1.356 . S
C413 C412 1.363 . S
C413 C416 1.363 . S
N414 C416 1.356 . S
N414 H426 0.984 . S
N414 H427 0.985 . S
N415 C417 1.356 . S
N415 H420 0.984 . S
N415 H421 0.985 . S
C416 C410 1.379 . S
C416 C413 1.363 . S
C416 N414 1.356 . S
C417 C411 1.363 . S
C417 C412 1.379 . S
C417 N415 1.356 . S
N418 C410 1.356 . S
N418 H424 0.984 . S
N418 H425 0.984 . S
N419 C412 1.356 . S
N419 H422 0.984 . S
N419 H423 0.985 . S
H420 N415 0.984 . S
H421 N415 0.985 . S
H422 N419 0.984 . S
H423 N419 0.985 . S
H424 N418 0.984 . S
H425 N418 0.984 . S
H426 N414 0.984 . S
H427 N414 0.985 . S
C428 C429 1.363 . S
C428 C434 1.379 1_565 S
C428 N436 1.356 . S
C429 C428 1.363 . S
C429 C435 1.363 1_654 S
C430 C431 1.363 . S
C430 C435 1.379 1_545 S
C430 N437 1.356 . S
C431 C430 1.363 . S
C431 C434 1.363 1_456 S
N432 C434 1.356 . S
N432 H444 0.984 . S
N432 H445 0.985 . S
N433 C435 1.356 . S
N433 H438 0.984 . S
N433 H439 0.985 . S
C434 C428 1.379 1_545 S
C434 C431 1.363 1_654 S
C434 N432 1.356 . S
C435 C429 1.363 1_456 S
C435 C430 1.379 1_565 S
C435 N433 1.356 . S
N436 C428 1.356 . S
N436 H442 0.984 . S
N436 H443 0.984 . S
N437 C430 1.356 . S
N437 H440 0.984 . S
N437 H441 0.985 . S
H438 N433 0.984 . S
H439 N433 0.985 . S
H440 N437 0.984 . S
H441 N437 0.985 . S
H442 N436 0.984 . S
H443 N436 0.984 . S
H444 N432 0.984 . S
H445 N432 0.985 . S
C446 C447 1.363 . S
C446 C452 1.379 1_565 S
C446 N454 1.356 . S
C447 C446 1.363 . S
C447 C453 1.363 . S
C448 C449 1.363 . S
C448 C453 1.379 1_545 S
C448 N455 1.356 . S
C449 C448 1.363 . S
C449 C452 1.363 . S
N450 C452 1.356 . S
N450 H462 0.984 . S
N450 H463 0.985 . S
N451 C453 1.356 . S
N451 H456 0.984 . S
N451 H457 0.985 . S
C452 C446 1.379 1_545 S
C452 C449 1.363 . S
C452 N450 1.356 . S
C453 C447 1.363 . S
C453 C448 1.379 1_565 S
C453 N451 1.356 . S
N454 C446 1.356 . S
N454 H460 0.984 . S
N454 H461 0.984 . S
N455 C448 1.356 . S
N455 H458 0.984 . S
N455 H459 0.985 . S
H456 N451 0.984 . S
H457 N451 0.985 . S
H458 N455 0.984 . S
H459 N455 0.985 . S
H460 N454 0.984 . S
H461 N454 0.984 . S
H462 N450 0.984 . S
H463 N450 0.985 . S
C464 C465 1.363 . S
C464 C470 1.379 . S
C464 N472 1.356 . S
C465 C464 1.363 . S
C465 C471 1.363 . S
C466 C467 1.363 1_556 S
C466 C471 1.379 . S
C466 N473 1.356 1_546 S
C467 C466 1.363 1_554 S
C467 C470 1.363 1_554 S
N468 C470 1.356 1_554 S
N468 H480 0.984 . S
N468 H481 0.985 . S
N469 C471 1.356 . S
N469 H474 0.984 . S
N469 H475 0.985 1_545 S
C470 C464 1.379 . S
C470 C467 1.363 1_556 S
C470 N468 1.356 1_556 S
C471 C465 1.363 . S
C471 C466 1.379 . S
C471 N469 1.356 . S
N472 C464 1.356 . S
N472 H478 0.984 . S
N472 H479 0.984 . S
N473 C466 1.356 1_564 S
N473 H476 0.984 . S
N473 H477 0.985 . S
H474 N469 0.984 . S
H475 N469 0.985 1_565 S
H476 N473 0.984 . S
H477 N473 0.985 . S
H478 N472 0.984 . S
H479 N472 0.984 . S
H480 N468 0.984 . S
H481 N468 0.985 . S
C482 C483 1.363 . S
C482 C488 1.379 . S
C482 N490 1.356 . S
C483 C482 1.363 . S
C483 C489 1.363 . S
C484 C485 1.363 . S
C484 C489 1.379 . S
C484 N491 1.356 . S
C485 C484 1.363 . S
C485 C488 1.363 . S
N486 C488 1.356 . S
N486 H498 0.984 . S
N486 H499 0.985 . S
N487 C489 1.356 . S
N487 H492 0.984 . S
N487 H493 0.985 . S
C488 C482 1.379 . S
C488 C485 1.363 . S
C488 N486 1.356 . S
C489 C483 1.363 . S
C489 C484 1.379 . S
C489 N487 1.356 . S
N490 C482 1.356 . S
N490 H496 0.984 . S
N490 H497 0.984 . S
N491 C484 1.356 . S
N491 H494 0.984 . S
N491 H495 0.985 . S
H492 N487 0.984 . S
H493 N487 0.985 . S
H494 N491 0.984 . S
H495 N491 0.985 . S
H496 N490 0.984 . S
H497 N490 0.984 . S
H498 N486 0.984 . S
H499 N486 0.985 . S
C500 C501 1.363 . S
C500 C506 1.379 . S
C500 N508 1.356 1_565 S
C501 C500 1.363 . S
C501 C507 1.363 . S
C502 C503 1.363 . S
C502 C507 1.379 . S
C502 N509 1.356 . S
C503 C502 1.363 . S
C503 C506 1.363 . S
N504 C506 1.356 1_545 S
N504 H516 0.984 . S
N504 H517 0.985 1_545 S
N505 C507 1.356 . S
N505 H510 0.984 . S
N505 H511 0.985 . S
C506 C500 1.379 . S
C506 C503 1.363 . S
C506 N504 1.356 1_565 S
C507 C501 1.363 . S
C507 C502 1.379 . S
C507 N505 1.356 . S
N508 C500 1.356 1_545 S
N508 H514 0.984 . S
N508 H515 0.984 . S
N509 C502 1.356 . S
N509 H512 0.984 . S
N509 H513 0.985 . S
H510 N505 0.984 . S
H511 N505 0.985 . S
H512 N509 0.984 . S
H513 N509 0.985 . S
H514 N508 0.984 . S
H515 N508 0.984 . S
H516 N504 0.984 . S
H517 N504 0.985 1_565 S
C518 C519 1.363 . S
C518 C524 1.379 . S
C518 N526 1.356 . S
C519 C518 1.363 . S
C519 C525 1.363 . S
C520 C521 1.363 . S
C520 C525 1.379 . S
C520 N527 1.356 . S
C521 C520 1.363 . S
C521 C524 1.363 . S
N522 C524 1.356 . S
N522 H534 0.984 . S
N522 H535 0.985 . S
N523 C525 1.356 . S
N523 H528 0.984 . S
N523 H529 0.985 . S
C524 C518 1.379 . S
C524 C521 1.363 . S
C524 N522 1.356 . S
C525 C519 1.363 . S
C525 C520 1.379 . S
C525 N523 1.356 . S
N526 C518 1.356 . S
N526 H532 0.984 . S
N526 H533 0.984 . S
N527 C520 1.356 . S
N527 H530 0.984 . S
N527 H531 0.985 . S
H528 N523 0.984 . S
H529 N523 0.985 . S
H530 N527 0.984 . S
H531 N527 0.985 . S
H532 N526 0.984 . S
H533 N526 0.984 . S
H534 N522 0.984 . S
H535 N522 0.985 . S
C536 C537 1.363 . S
C536 C542 1.386 . S
C536 N544 1.356 . S
C537 C536 1.363 . S
C537 C543 1.363 . S
C538 C539 1.363 1_554 S
C538 C543 1.379 . S
C538 N545 1.356 1_564 S
C539 C538 1.363 1_556 S
C539 C542 1.361 1_556 S
N540 C542 1.350 1_556 S
N540 H552 0.984 . S
N540 H553 0.985 . S
N541 C543 1.356 1_545 S
N541 H546 0.984 1_545 S
N541 H547 0.985 . S
C542 C536 1.386 . S
C542 C539 1.361 1_554 S
C542 N540 1.350 1_554 S
C543 C537 1.363 . S
C543 C538 1.379 . S
C543 N541 1.356 1_565 S
N544 C536 1.356 . S
N544 H550 0.984 . S
N544 H551 0.984 . S
N545 C538 1.356 1_546 S
N545 H548 0.984 . S
N545 H549 0.985 1_556 S
H546 N541 0.984 1_565 S
H547 N541 0.985 . S
H548 N545 0.984 . S
H549 N545 0.985 1_554 S
H550 N544 0.984 . S
H551 N544 0.984 . S
H552 N540 0.984 . S
H553 N540 0.985 . S
C554 C555 1.363 . S
C554 C560 1.379 . S
C554 N562 1.356 . S
C555 C554 1.363 . S
C555 C561 1.363 . S
C556 C557 1.363 . S
C556 C561 1.379 . S
C556 N563 1.356 . S
C557 C556 1.363 . S
C557 C560 1.363 . S
N558 C560 1.356 . S
N558 H570 0.984 . S
N558 H571 0.985 . S
N559 C561 1.356 . S
N559 H564 0.984 . S
N559 H565 0.985 . S
C560 C554 1.379 . S
C560 C557 1.363 . S
C560 N558 1.356 . S
C561 C555 1.363 . S
C561 C556 1.379 . S
C561 N559 1.356 . S
N562 C554 1.356 . S
N562 H568 0.984 . S
N562 H569 0.984 . S
N563 C556 1.356 . S
N563 H566 0.984 . S
N563 H567 0.985 . S
H564 N559 0.984 . S
H565 N559 0.985 . S
H566 N563 0.984 . S
H567 N563 0.985 . S
H568 N562 0.984 . S
H569 N562 0.984 . S
H570 N558 0.984 . S
H571 N558 0.985 . S
C572 C573 1.363 . S
C572 C578 1.379 . S
C572 N580 1.356 . S
C573 C572 1.363 . S
C573 C579 1.363 . S
C574 C575 1.363 . S
C574 C579 1.379 . S
C574 N581 1.356 . S
C575 C574 1.363 . S
C575 C578 1.363 . S
N576 C578 1.356 . S
N576 H588 0.984 . S
N576 H589 0.985 . S
N577 C579 1.356 . S
N577 H582 0.984 . S
N577 H583 0.985 . S
C578 C572 1.379 . S
C578 C575 1.363 . S
C578 N576 1.356 . S
C579 C573 1.363 . S
C579 C574 1.379 . S
C579 N577 1.356 . S
N580 C572 1.356 . S
N580 H586 0.984 . S
N580 H587 0.984 . S
N581 C574 1.356 . S
N581 H584 0.984 . S
N581 H585 0.985 . S
H582 N577 0.984 . S
H583 N577 0.985 . S
H584 N581 0.984 . S
H585 N581 0.985 . S
H586 N580 0.984 . S
H587 N580 0.984 . S
H588 N576 0.984 . S
H589 N576 0.985 . S
C590 C591 1.363 . S
C590 C596 1.379 . S
C590 N598 1.356 . S
C591 C590 1.363 . S
C591 C597 1.363 . S
C592 C593 1.363 . S
C592 C597 1.379 . S
C592 N599 1.356 . S
C593 C592 1.363 . S
C593 C596 1.363 . S
N594 C596 1.356 . S
N594 H606 0.984 . S
N594 H607 0.985 . S
N595 C597 1.356 . S
N595 H600 0.984 . S
N595 H601 0.985 . S
C596 C590 1.379 . S
C596 C593 1.363 . S
C596 N594 1.356 . S
C597 C591 1.363 . S
C597 C592 1.379 . S
C597 N595 1.356 . S
N598 C590 1.356 . S
N598 H604 0.984 . S
N598 H605 0.984 . S
N599 C592 1.356 . S
N599 H602 0.984 . S
N599 H603 0.985 . S
H600 N595 0.984 . S
H601 N595 0.985 . S
H602 N599 0.984 . S
H603 N599 0.985 . S
H604 N598 0.984 . S
H605 N598 0.984 . S
H606 N594 0.984 . S
H607 N594 0.985 . S
C608 C609 1.363 . S
C608 C614 1.379 . S
C608 N616 1.356 . S
C609 C608 1.363 . S
C609 C615 1.363 . S
C610 C611 1.363 . S
C610 C615 1.379 . S
C610 N617 1.356 . S
C611 C610 1.363 . S
C611 C614 1.363 . S
N612 C614 1.356 . S
N612 H624 0.984 . S
N612 H625 0.985 . S
N613 C615 1.356 . S
N613 H618 0.984 . S
N613 H619 0.985 . S
C614 C608 1.379 . S
C614 C611 1.363 . S
C614 N612 1.356 . S
C615 C609 1.363 . S
C615 C610 1.379 . S
C615 N613 1.356 . S
N616 C608 1.356 . S
N616 H622 0.984 . S
N616 H623 0.984 . S
N617 C610 1.356 . S
N617 H620 0.984 . S
N617 H621 0.985 . S
H618 N613 0.984 . S
H619 N613 0.985 . S
H620 N617 0.984 . S
H621 N617 0.985 . S
H622 N616 0.984 . S
H623 N616 0.984 . S
H624 N612 0.984 . S
H625 N612 0.985 . S
C626 C627 1.363 . S
C626 C632 1.379 . S
C626 N634 1.356 . S
C627 C626 1.363 . S
C627 C633 1.363 1_565 S
C628 C629 1.363 1_545 S
C628 C633 1.379 . S
C628 N635 1.356 . S
C629 C628 1.363 1_565 S
C629 C632 1.363 . S
N630 C632 1.356 . S
N630 H642 0.984 . S
N630 H643 0.985 . S
N631 C633 1.356 . S
N631 H636 0.984 . S
N631 H637 0.985 . S
C632 C626 1.379 . S
C632 C629 1.363 . S
C632 N630 1.356 . S
C633 C627 1.363 1_545 S
C633 C628 1.379 . S
C633 N631 1.356 . S
N634 C626 1.356 . S
N634 H640 0.984 . S
N634 H641 0.984 . S
N635 C628 1.356 . S
N635 H638 0.984 . S
N635 H639 0.985 . S
H636 N631 0.984 . S
H637 N631 0.985 . S
H638 N635 0.984 . S
H639 N635 0.985 . S
H640 N634 0.984 . S
H641 N634 0.984 . S
H642 N630 0.984 . S
H643 N630 0.985 . S
C644 C645 1.363 1_556 S
C644 C650 1.379 . S
C644 N652 1.356 1_556 S
C645 C644 1.363 1_554 S
C645 C651 1.369 . S
C646 C647 1.363 . S
C646 C651 1.360 1_556 S
C646 N653 1.356 . S
C647 C646 1.363 . S
C647 C650 1.363 . S
N648 C650 1.356 . S
N648 H660 0.984 . S
N648 H661 0.985 . S
N649 C651 1.374 . S
N649 H654 0.984 . S
N649 H655 0.985 . S
C650 C644 1.379 . S
C650 C647 1.363 . S
C650 N648 1.356 . S
C651 C645 1.369 . S
C651 C646 1.360 1_554 S
C651 N649 1.374 . S
N652 C644 1.356 1_554 S
N652 H658 0.984 1_554 S
N652 H659 0.984 . S
N653 C646 1.356 . S
N653 H656 0.984 . S
N653 H657 0.985 . S
H654 N649 0.984 . S
H655 N649 0.985 . S
H656 N653 0.984 . S
H657 N653 0.985 . S
H658 N652 0.984 1_556 S
H659 N652 0.984 . S
H660 N648 0.984 . S
H661 N648 0.985 . S
C662 C663 1.363 1_565 S
C662 C668 1.379 . S
C662 N670 1.356 . S
C663 C662 1.363 1_545 S
C663 C669 1.363 . S
C664 C665 1.363 . S
C664 C669 1.379 . S
C664 N671 1.356 . S
C665 C664 1.363 . S
C665 C668 1.363 1_545 S
N666 C668 1.356 . S
N666 H678 0.984 . S
N666 H679 0.985 . S
N667 C669 1.356 . S
N667 H672 0.984 . S
N667 H673 0.985 . S
C668 C662 1.379 . S
C668 C665 1.363 1_565 S
C668 N666 1.356 . S
C669 C663 1.363 . S
C669 C664 1.379 . S
C669 N667 1.356 . S
N670 C662 1.356 . S
N670 H676 0.984 . S
N670 H677 0.984 . S
N671 C664 1.356 . S
N671 H674 0.984 . S
N671 H675 0.985 . S
H672 N667 0.984 . S
H673 N667 0.985 . S
H674 N671 0.984 . S
H675 N671 0.985 . S
H676 N670 0.984 . S
H677 N670 0.984 . S
H678 N666 0.984 . S
H679 N666 0.985 . S
C680 C681 1.363 . S
C680 C686 1.379 . S
C680 N688 1.356 . S
C681 C680 1.363 . S
C681 C687 1.363 . S
C682 C683 1.363 . S
C682 C687 1.379 . S
C682 N689 1.356 . S
C683 C682 1.363 . S
C683 C686 1.363 . S
N684 C686 1.356 . S
N684 H696 0.984 . S
N684 H697 0.985 . S
N685 C687 1.356 . S
N685 H690 0.984 . S
N685 H691 0.985 . S
C686 C680 1.379 . S
C686 C683 1.363 . S
C686 N684 1.356 . S
C687 C681 1.363 . S
C687 C682 1.379 . S
C687 N685 1.356 . S
N688 C680 1.356 . S
N688 H694 0.984 . S
N688 H695 0.984 . S
N689 C682 1.356 . S
N689 H692 0.984 . S
N689 H693 0.985 . S
H690 N685 0.984 . S
H691 N685 0.985 . S
H692 N689 0.984 . S
H693 N689 0.985 . S
H694 N688 0.984 . S
H695 N688 0.984 . S
H696 N684 0.984 . S
H697 N684 0.985 . S
C698 C699 1.363 1_565 S
C698 C704 1.377 1_565 S
C698 N706 1.356 . S
C699 C698 1.363 1_545 S
C699 C705 1.363 . S
C700 C701 1.363 . S
C700 C705 1.379 . S
C700 N707 1.356 . S
C701 C700 1.363 . S
C701 C704 1.369 . S
N702 C704 1.354 1_565 S
N702 H714 0.984 . S
N702 H715 0.991 . S
N703 C705 1.356 . S
N703 H708 0.984 . S
N703 H709 0.985 . S
C704 C698 1.377 1_545 S
C704 C701 1.369 . S
C704 N702 1.354 1_545 S
C705 C699 1.363 . S
C705 C700 1.379 . S
C705 N703 1.356 . S
N706 C698 1.356 . S
N706 H712 0.984 . S
N706 H713 0.984 . S
N707 C700 1.356 . S
N707 H710 0.984 . S
N707 H711 0.985 . S
H708 N703 0.984 . S
H709 N703 0.985 . S
H710 N707 0.984 . S
H711 N707 0.985 . S
H712 N706 0.984 . S
H713 N706 0.984 . S
H714 N702 0.984 . S
H715 N702 0.991 . S
C716 C717 1.363 . S
C716 C722 1.379 . S
C716 N724 1.356 . S
C717 C716 1.363 . S
C717 C723 1.363 . S
C718 C719 1.364 . S
C718 C723 1.376 1_556 S
C718 N725 1.359 . S
C719 C718 1.364 . S
C719 C722 1.363 1_556 S
N720 C722 1.356 1_556 S
N720 H732 0.984 1_556 S
N720 H733 0.985 . S
N721 C723 1.356 . S
N721 H726 0.984 . S
N721 H727 0.985 . S
C722 C716 1.379 . S
C722 C719 1.363 1_554 S
C722 N720 1.356 1_554 S
C723 C717 1.363 . S
C723 C718 1.376 1_554 S
C723 N721 1.356 . S
N724 C716 1.356 . S
N724 H730 0.984 . S
N724 H731 0.984 . S
N725 C718 1.359 . S
N725 H728 0.984 . S
N725 H729 0.985 . S
H726 N721 0.984 . S
H727 N721 0.985 . S
H728 N725 0.984 . S
H729 N725 0.985 . S
H730 N724 0.984 . S
H731 N724 0.984 . S
H732 N720 0.984 1_554 S
H733 N720 0.985 . S
C734 C735 1.363 . S
C734 C740 1.379 . S
C734 N742 1.356 . S
C735 C734 1.363 . S
C735 C741 1.363 1_565 S
C736 C737 1.363 1_545 S
C736 C741 1.379 . S
C736 N743 1.356 . S
C737 C736 1.363 1_565 S
C737 C740 1.363 . S
N738 C740 1.356 . S
N738 H750 0.984 . S
N738 H751 0.985 . S
N739 C741 1.356 . S
N739 H744 0.984 . S
N739 H745 0.985 . S
C740 C734 1.379 . S
C740 C737 1.363 . S
C740 N738 1.356 . S
C741 C735 1.363 1_545 S
C741 C736 1.379 . S
C741 N739 1.356 . S
N742 C734 1.356 . S
N742 H748 0.984 . S
N742 H749 0.984 . S
N743 C736 1.356 . S
N743 H746 0.984 . S
N743 H747 0.985 . S
H744 N739 0.984 . S
H745 N739 0.985 . S
H746 N743 0.984 . S
H747 N743 0.985 . S
H748 N742 0.984 . S
H749 N742 0.984 . S
H750 N738 0.984 . S
H751 N738 0.985 . S
C752 C753 1.363 . S
C752 C758 1.379 . S
C752 N760 1.356 . S
C753 C752 1.363 . S
C753 C759 1.363 . S
C754 C755 1.363 . S
C754 C759 1.379 . S
C754 N761 1.356 . S
C755 C754 1.363 . S
C755 C758 1.363 . S
N756 C758 1.356 . S
N756 H768 0.984 . S
N756 H769 0.985 . S
N757 C759 1.356 . S
N757 H762 0.984 . S
N757 H763 0.985 . S
C758 C752 1.379 . S
C758 C755 1.363 . S
C758 N756 1.356 . S
C759 C753 1.363 . S
C759 C754 1.379 . S
C759 N757 1.356 . S
N760 C752 1.356 . S
N760 H766 0.984 . S
N760 H767 0.984 . S
N761 C754 1.356 . S
N761 H764 0.984 . S
N761 H765 0.985 . S
H762 N757 0.984 . S
H763 N757 0.985 . S
H764 N761 0.984 . S
H765 N761 0.985 . S
H766 N760 0.984 . S
H767 N760 0.984 . S
H768 N756 0.984 . S
H769 N756 0.985 . S
C770 C771 1.363 . S
C770 C776 1.379 . S
C770 N778 1.356 . S
C771 C770 1.363 . S
C771 C777 1.363 . S
C772 C773 1.363 . S
C772 C777 1.379 . S
C772 N779 1.356 . S
C773 C772 1.363 . S
C773 C776 1.363 . S
N774 C776 1.356 . S
N774 H786 0.984 . S
N774 H787 0.985 . S
N775 C777 1.356 . S
N775 H780 0.984 . S
N775 H781 0.985 . S
C776 C770 1.379 . S
C776 C773 1.363 . S
C776 N774 1.356 . S
C777 C771 1.363 . S
C777 C772 1.379 . S
C777 N775 1.356 . S
N778 C770 1.356 . S
N778 H784 0.984 . S
N778 H785 0.984 . S
N779 C772 1.356 . S
N779 H782 0.984 . S
N779 H783 0.985 . S
H780 N775 0.984 . S
H781 N775 0.985 . S
H782 N779 0.984 . S
H783 N779 0.985 . S
H784 N778 0.984 . S
H785 N778 0.984 . S
H786 N774 0.984 . S
H787 N774 0.985 . S
C788 C789 1.363 . S
C788 C794 1.379 1_655 S
C788 N796 1.356 . S
C789 C788 1.363 . S
C789 C795 1.363 . S
C790 C791 1.363 . S
C790 C795 1.379 1_455 S
C790 N797 1.356 . S
C791 C790 1.363 . S
C791 C794 1.363 . S
N792 C794 1.356 . S
N792 H804 0.984 . S
N792 H805 0.985 . S
N793 C795 1.356 . S
N793 H798 0.984 . S
N793 H799 0.985 . S
C794 C788 1.379 1_455 S
C794 C791 1.363 . S
C794 N792 1.356 . S
C795 C789 1.363 . S
C795 C790 1.379 1_655 S
C795 N793 1.356 . S
N796 C788 1.356 . S
N796 H802 0.984 . S
N796 H803 0.984 . S
N797 C790 1.356 . S
N797 H800 0.984 . S
N797 H801 0.985 . S
H798 N793 0.984 . S
H799 N793 0.985 . S
H800 N797 0.984 . S
H801 N797 0.985 . S
H802 N796 0.984 . S
H803 N796 0.984 . S
H804 N792 0.984 . S
H805 N792 0.985 . S
C806 C807 1.363 1_455 S
C806 C812 1.379 . S
C806 N814 1.356 . S
C807 C806 1.363 1_655 S
C807 C813 1.363 . S
C808 C809 1.363 1_655 S
C808 C813 1.379 . S
C808 N815 1.356 . S
C809 C808 1.363 1_455 S
C809 C812 1.363 . S
N810 C812 1.356 . S
N810 H822 0.984 . S
N810 H823 0.985 . S
N811 C813 1.356 . S
N811 H816 0.984 . S
N811 H817 0.985 . S
C812 C806 1.379 . S
C812 C809 1.363 . S
C812 N810 1.356 . S
C813 C807 1.363 . S
C813 C808 1.379 . S
C813 N811 1.356 . S
N814 C806 1.356 . S
N814 H820 0.984 . S
N814 H821 0.984 1_455 S
N815 C808 1.356 . S
N815 H818 0.984 1_655 S
N815 H819 0.985 . S
H816 N811 0.984 . S
H817 N811 0.985 . S
H818 N815 0.984 1_455 S
H819 N815 0.985 . S
H820 N814 0.984 . S
H821 N814 0.984 1_655 S
H822 N810 0.984 . S
H823 N810 0.985 . S
C824 C825 1.363 . S
C824 C830 1.379 . S
C824 N832 1.356 . S
C825 C824 1.363 . S
C825 C831 1.363 . S
C826 C827 1.363 . S
C826 C831 1.379 . S
C826 N833 1.356 . S
C827 C826 1.363 . S
C827 C830 1.363 . S
N828 C830 1.356 . S
N828 H840 0.984 . S
N828 H841 0.985 . S
N829 C831 1.356 . S
N829 H834 0.984 . S
N829 H835 0.985 . S
C830 C824 1.379 . S
C830 C827 1.363 . S
C830 N828 1.356 . S
C831 C825 1.363 . S
C831 C826 1.379 . S
C831 N829 1.356 . S
N832 C824 1.356 . S
N832 H838 0.984 . S
N832 H839 0.984 . S
N833 C826 1.356 . S
N833 H836 0.984 . S
N833 H837 0.985 . S
H834 N829 0.984 . S
H835 N829 0.985 . S
H836 N833 0.984 . S
H837 N833 0.985 . S
H838 N832 0.984 . S
H839 N832 0.984 . S
H840 N828 0.984 . S
H841 N828 0.985 . S
C842 C843 1.363 . S
C842 C848 1.379 . S
C842 N850 1.356 . S
C843 C842 1.363 . S
C843 C849 1.363 . S
C844 C845 1.363 . S
C844 C849 1.379 . S
C844 N851 1.356 . S
C845 C844 1.363 . S
C845 C848 1.363 . S
N846 C848 1.356 . S
N846 H858 0.984 . S
N846 H859 0.985 . S
N847 C849 1.356 . S
N847 H852 0.984 . S
N847 H853 0.985 . S
C848 C842 1.379 . S
C848 C845 1.363 . S
C848 N846 1.356 . S
C849 C843 1.363 . S
C849 C844 1.379 . S
C849 N847 1.356 . S
N850 C842 1.356 . S
N850 H856 0.984 . S
N850 H857 0.984 . S
N851 C844 1.356 . S
N851 H854 0.984 . S
N851 H855 0.985 . S
H852 N847 0.984 . S
H853 N847 0.985 . S
H854 N851 0.984 . S
H855 N851 0.985 . S
H856 N850 0.984 . S
H857 N850 0.984 . S
H858 N846 0.984 . S
H859 N846 0.985 . S
C860 C861 1.363 . S
C860 C866 1.379 1_455 S
C860 N868 1.356 . S
C861 C860 1.363 . S
C861 C867 1.363 . S
C862 C863 1.363 . S
C862 C867 1.379 1_655 S
C862 N869 1.356 . S
C863 C862 1.363 . S
C863 C866 1.363 . S
N864 C866 1.356 . S
N864 H876 0.984 . S
N864 H877 0.985 . S
N865 C867 1.356 . S
N865 H870 0.984 . S
N865 H871 0.985 . S
C866 C860 1.379 1_655 S
C866 C863 1.363 . S
C866 N864 1.356 . S
C867 C861 1.363 . S
C867 C862 1.379 1_455 S
C867 N865 1.356 . S
N868 C860 1.356 . S
N868 H874 0.984 . S
N868 H875 0.984 . S
N869 C862 1.356 . S
N869 H872 0.984 . S
N869 H873 0.985 . S
H870 N865 0.984 . S
H871 N865 0.985 . S
H872 N869 0.984 . S
H873 N869 0.985 . S
H874 N868 0.984 . S
H875 N868 0.984 . S
H876 N864 0.984 . S
H877 N864 0.985 . S
C878 C879 1.363 . S
C878 C884 1.379 . S
C878 N886 1.356 . S
C879 C878 1.363 . S
C879 C885 1.363 1_455 S
C880 C881 1.363 . S
C880 C885 1.379 . S
C880 N887 1.356 . S
C881 C880 1.363 . S
C881 C884 1.363 1_655 S
N882 C884 1.356 . S
N882 H894 0.984 . S
N882 H895 0.985 1_455 S
N883 C885 1.356 . S
N883 H888 0.984 1_655 S
N883 H889 0.985 . S
C884 C878 1.379 . S
C884 C881 1.363 1_455 S
C884 N882 1.356 . S
C885 C879 1.363 1_655 S
C885 C880 1.379 . S
C885 N883 1.356 . S
N886 C878 1.356 . S
N886 H892 0.984 . S
N886 H893 0.984 . S
N887 C880 1.356 . S
N887 H890 0.984 . S
N887 H891 0.985 . S
H888 N883 0.984 1_455 S
H889 N883 0.985 . S
H890 N887 0.984 . S
H891 N887 0.985 . S
H892 N886 0.984 . S
H893 N886 0.984 . S
H894 N882 0.984 . S
H895 N882 0.985 1_655 S
C896 C897 1.363 . S
C896 C902 1.379 . S
C896 N904 1.356 . S
C897 C896 1.363 . S
C897 C903 1.363 . S
C898 C899 1.363 . S
C898 C903 1.379 . S
C898 N905 1.356 . S
C899 C898 1.363 . S
C899 C902 1.363 . S
N900 C902 1.356 . S
N900 H912 0.984 . S
N900 H913 0.985 . S
N901 C903 1.356 . S
N901 H906 0.984 . S
N901 H907 0.985 . S
C902 C896 1.379 . S
C902 C899 1.363 . S
C902 N900 1.356 . S
C903 C897 1.363 . S
C903 C898 1.379 . S
C903 N901 1.356 . S
N904 C896 1.356 . S
N904 H910 0.984 . S
N904 H911 0.984 . S
N905 C898 1.356 . S
N905 H908 0.984 . S
N905 H909 0.985 . S
H906 N901 0.984 . S
H907 N901 0.985 . S
H908 N905 0.984 . S
H909 N905 0.985 . S
H910 N904 0.984 . S
H911 N904 0.984 . S
H912 N900 0.984 . S
H913 N900 0.985 . S
C914 C915 1.363 . S
C914 C920 1.379 . S
C914 N922 1.356 . S
C915 C914 1.363 . S
C915 C921 1.363 . S
C916 C917 1.363 . S
C916 C921 1.379 . S
C916 N923 1.356 . S
C917 C916 1.363 . S
C917 C920 1.363 . S
N918 C920 1.356 . S
N918 H930 0.984 . S
N918 H931 0.985 . S
N919 C921 1.356 . S
N919 H924 0.984 . S
N919 H925 0.985 . S
C920 C914 1.379 . S
C920 C917 1.363 . S
C920 N918 1.356 . S
C921 C915 1.363 . S
C921 C916 1.379 . S
C921 N919 1.356 . S
N922 C914 1.356 . S
N922 H928 0.984 . S
N922 H929 0.984 . S
N923 C916 1.356 . S
N923 H926 0.984 . S
N923 H927 0.985 . S
H924 N919 0.984 . S
H925 N919 0.985 . S
H926 N923 0.984 . S
H927 N923 0.985 . S
H928 N922 0.984 . S
H929 N922 0.984 . S
H930 N918 0.984 . S
H931 N918 0.985 . S
C932 C933 1.363 . S
C932 C938 1.379 . S
C932 N940 1.356 . S
C933 C932 1.363 . S
C933 C939 1.363 . S
C934 C935 1.363 . S
C934 C939 1.379 . S
C934 N941 1.356 . S
C935 C934 1.363 . S
C935 C938 1.363 . S
N936 C938 1.356 . S
N936 H948 0.984 . S
N936 H949 0.985 . S
N937 C939 1.356 . S
N937 H942 0.984 . S
N937 H943 0.985 . S
C938 C932 1.379 . S
C938 C935 1.363 . S
C938 N936 1.356 . S
C939 C933 1.363 . S
C939 C934 1.379 . S
C939 N937 1.356 . S
N940 C932 1.356 . S
N940 H946 0.984 . S
N940 H947 0.984 . S
N941 C934 1.356 . S
N941 H944 0.984 . S
N941 H945 0.985 . S
H942 N937 0.984 . S
H943 N937 0.985 . S
H944 N941 0.984 . S
H945 N941 0.985 . S
H946 N940 0.984 . S
H947 N940 0.984 . S
H948 N936 0.984 . S
H949 N936 0.985 . S
C950 C951 1.363 . S
C950 C956 1.379 . S
C950 N958 1.356 . S
C951 C950 1.363 . S
C951 C957 1.363 . S
C952 C953 1.363 . S
C952 C957 1.379 . S
C952 N959 1.356 . S
C953 C952 1.363 . S
C953 C956 1.363 . S
N954 C956 1.356 . S
N954 H966 0.984 . S
N954 H967 0.985 . S
N955 C957 1.356 1_655 S
N955 H960 0.984 . S
N955 H961 0.985 . S
C956 C950 1.379 . S
C956 C953 1.363 . S
C956 N954 1.356 . S
C957 C951 1.363 . S
C957 C952 1.379 . S
C957 N955 1.356 1_455 S
N958 C950 1.356 . S
N958 H964 0.984 . S
N958 H965 0.984 . S
N959 C952 1.356 . S
N959 H962 0.984 . S
N959 H963 0.985 . S
H960 N955 0.984 . S
H961 N955 0.985 . S
H962 N959 0.984 . S
H963 N959 0.985 . S
H964 N958 0.984 . S
H965 N958 0.984 . S
H966 N954 0.984 . S
H967 N954 0.985 . S
C968 C969 1.363 . S
C968 C974 1.379 . S
C968 N976 1.356 . S
C969 C968 1.363 . S
C969 C975 1.363 . S
C970 C971 1.363 . S
C970 C975 1.379 . S
C970 N977 1.356 . S
C971 C970 1.363 . S
C971 C974 1.363 . S
N972 C974 1.356 . S
N972 H984 0.984 . S
N972 H985 0.985 . S
N973 C975 1.356 . S
N973 H978 0.984 . S
N973 H979 0.985 . S
C974 C968 1.379 . S
C974 C971 1.363 . S
C974 N972 1.356 . S
C975 C969 1.363 . S
C975 C970 1.379 . S
C975 N973 1.356 . S
N976 C968 1.356 . S
N976 H982 0.984 . S
N976 H983 0.984 . S
N977 C970 1.356 . S
N977 H980 0.984 . S
N977 H981 0.985 . S
H978 N973 0.984 . S
H979 N973 0.985 . S
H980 N977 0.984 . S
H981 N977 0.985 . S
H982 N976 0.984 . S
H983 N976 0.984 . S
H984 N972 0.984 . S
H985 N972 0.985 . S
C986 C987 1.363 . S
C986 C992 1.379 . S
C986 N994 1.356 . S
C987 C986 1.363 . S
C987 C993 1.363 . S
C988 C989 1.363 . S
C988 C993 1.379 . S
C988 N995 1.356 . S
C989 C988 1.363 . S
C989 C992 1.363 . S
N990 C992 1.356 . S
N990 H1002 0.984 . S
N990 H1003 0.985 . S
N991 C993 1.356 . S
N991 H996 0.984 . S
N991 H997 0.985 . S
C992 C986 1.379 . S
C992 C989 1.363 . S
C992 N990 1.356 . S
C993 C987 1.363 . S
C993 C988 1.379 . S
C993 N991 1.356 . S
N994 C986 1.356 . S
N994 H1000 0.984 . S
N994 H1001 0.984 . S
N995 C988 1.356 . S
N995 H998 0.984 . S
N995 H999 0.985 . S
H996 N991 0.984 . S
H997 N991 0.985 . S
H998 N995 0.984 . S
H999 N995 0.985 . S
H1000 N994 0.984 . S
H1001 N994 0.984 . S
H1002 N990 0.984 . S
H1003 N990 0.985 . S
C1004 C1005 1.363 . S
C1004 C1010 1.379 . S
C1004 N1012 1.356 . S
C1005 C1004 1.363 . S
C1005 C1011 1.363 . S
C1006 C1007 1.363 . S
C1006 C1011 1.379 . S
C1006 N1013 1.356 . S
C1007 C1006 1.363 . S
C1007 C1010 1.363 . S
N1008 C1010 1.356 . S
N1008 H1020 0.984 . S
N1008 H1021 0.985 . S
N1009 C1011 1.356 . S
N1009 H1014 0.984 . S
N1009 H1015 0.985 . S
C1010 C1004 1.379 . S
C1010 C1007 1.363 . S
C1010 N1008 1.356 . S
C1011 C1005 1.363 . S
C1011 C1006 1.379 . S
C1011 N1009 1.356 . S
N1012 C1004 1.356 . S
N1012 H1018 0.984 . S
N1012 H1019 0.984 . S
N1013 C1006 1.356 . S
N1013 H1016 0.984 . S
N1013 H1017 0.985 . S
H1014 N1009 0.984 . S
H1015 N1009 0.985 . S
H1016 N1013 0.984 . S
H1017 N1013 0.985 . S
H1018 N1012 0.984 . S
H1019 N1012 0.984 . S
H1020 N1008 0.984 . S
H1021 N1008 0.985 . S
C1022 C1023 1.363 . S
C1022 C1028 1.379 . S
C1022 N1030 1.356 . S
C1023 C1022 1.363 . S
C1023 C1029 1.363 . S
C1024 C1025 1.363 . S
C1024 C1029 1.379 . S
C1024 N1031 1.341 1_655 S
C1025 C1024 1.363 . S
C1025 C1028 1.363 . S
N1026 C1028 1.356 . S
N1026 H1038 0.984 . S
N1026 H1039 0.985 . S
N1027 C1029 1.356 . S
N1027 H1032 0.984 . S
N1027 H1033 0.985 . S
C1028 C1022 1.379 . S
C1028 C1025 1.363 . S
C1028 N1026 1.356 . S
C1029 C1023 1.363 . S
C1029 C1024 1.379 . S
C1029 N1027 1.356 . S
N1030 C1022 1.356 . S
N1030 H1036 0.984 . S
N1030 H1037 0.984 . S
N1031 C1024 1.341 1_455 S
N1031 H1034 0.999 . S
N1031 H1035 0.986 . S
H1032 N1027 0.984 . S
H1033 N1027 0.985 . S
H1034 N1031 0.999 . S
H1035 N1031 0.986 . S
H1036 N1030 0.984 . S
H1037 N1030 0.984 . S
H1038 N1026 0.984 . S
H1039 N1026 0.985 . S
C1040 C1041 1.363 . S
C1040 C1046 1.379 . S
C1040 N1048 1.356 . S
C1041 C1040 1.363 . S
C1041 C1047 1.363 . S
C1042 C1043 1.363 . S
C1042 C1047 1.379 . S
C1042 N1049 1.356 . S
C1043 C1042 1.363 . S
C1043 C1046 1.363 . S
N1044 C1046 1.356 . S
N1044 H1056 0.984 . S
N1044 H1057 0.985 . S
N1045 C1047 1.356 . S
N1045 H1050 0.984 . S
N1045 H1051 0.985 . S
C1046 C1040 1.379 . S
C1046 C1043 1.363 . S
C1046 N1044 1.356 . S
C1047 C1041 1.363 . S
C1047 C1042 1.379 . S
C1047 N1045 1.356 . S
N1048 C1040 1.356 . S
N1048 H1054 0.984 . S
N1048 H1055 0.984 . S
N1049 C1042 1.356 . S
N1049 H1052 0.984 . S
N1049 H1053 0.985 . S
H1050 N1045 0.984 . S
H1051 N1045 0.985 . S
H1052 N1049 0.984 . S
H1053 N1049 0.985 . S
H1054 N1048 0.984 . S
H1055 N1048 0.984 . S
H1056 N1044 0.984 . S
H1057 N1044 0.985 . S
C1058 C1059 1.363 . S
C1058 C1064 1.379 . S
C1058 N1066 1.356 . S
C1059 C1058 1.363 . S
C1059 C1065 1.363 . S
C1060 C1061 1.363 . S
C1060 C1065 1.379 . S
C1060 N1067 1.344 1_655 S
C1061 C1060 1.363 . S
C1061 C1064 1.363 . S
N1062 C1064 1.356 1_545 S
N1062 H1074 0.984 . S
N1062 H1075 0.985 . S
N1063 C1065 1.356 . S
N1063 H1068 0.984 . S
N1063 H1069 0.985 . S
C1064 C1058 1.379 . S
C1064 C1061 1.363 . S
C1064 N1062 1.356 1_565 S
C1065 C1059 1.363 . S
C1065 C1060 1.379 . S
C1065 N1063 1.356 . S
N1066 C1058 1.356 . S
N1066 H1072 0.984 1_565 S
N1066 H1073 0.984 . S
N1067 C1060 1.344 1_455 S
N1067 H1070 0.996 . S
N1067 H1071 0.985 . S
H1068 N1063 0.984 . S
H1069 N1063 0.985 . S
H1070 N1067 0.996 . S
H1071 N1067 0.985 . S
H1072 N1066 0.984 1_545 S
H1073 N1066 0.984 . S
H1074 N1062 0.984 . S
H1075 N1062 0.985 . S
C1076 C1077 1.363 . S
C1076 C1082 1.379 . S
C1076 N1084 1.356 . S
C1077 C1076 1.363 . S
C1077 C1083 1.363 . S
C1078 C1079 1.363 . S
C1078 C1083 1.379 . S
C1078 N1085 1.356 . S
C1079 C1078 1.363 . S
C1079 C1082 1.363 . S
N1080 C1082 1.356 . S
N1080 H1092 0.984 . S
N1080 H1093 0.985 . S
N1081 C1083 1.356 . S
N1081 H1086 0.984 . S
N1081 H1087 0.985 . S
C1082 C1076 1.379 . S
C1082 C1079 1.363 . S
C1082 N1080 1.356 . S
C1083 C1077 1.363 . S
C1083 C1078 1.379 . S
C1083 N1081 1.356 . S
N1084 C1076 1.356 . S
N1084 H1090 0.984 . S
N1084 H1091 0.984 . S
N1085 C1078 1.356 . S
N1085 H1088 0.984 . S
N1085 H1089 0.985 . S
H1086 N1081 0.984 . S
H1087 N1081 0.985 . S
H1088 N1085 0.984 . S
H1089 N1085 0.985 . S
H1090 N1084 0.984 . S
H1091 N1084 0.984 . S
H1092 N1080 0.984 . S
H1093 N1080 0.985 . S
C1094 C1095 1.363 . S
C1094 C1100 1.379 . S
C1094 N1102 1.356 . S
C1095 C1094 1.363 . S
C1095 C1101 1.363 . S
C1096 C1097 1.363 . S
C1096 C1101 1.379 . S
C1096 N1103 1.356 . S
C1097 C1096 1.363 . S
C1097 C1100 1.363 . S
N1098 C1100 1.356 . S
N1098 H1110 0.984 . S
N1098 H1111 0.985 . S
N1099 C1101 1.356 . S
N1099 H1104 0.984 1_545 S
N1099 H1105 0.985 1_545 S
C1100 C1094 1.379 . S
C1100 C1097 1.363 . S
C1100 N1098 1.356 . S
C1101 C1095 1.363 . S
C1101 C1096 1.379 . S
C1101 N1099 1.356 . S
N1102 C1094 1.356 . S
N1102 H1108 0.984 . S
N1102 H1109 0.984 . S
N1103 C1096 1.356 . S
N1103 H1106 0.984 . S
N1103 H1107 0.985 . S
H1104 N1099 0.984 1_565 S
H1105 N1099 0.985 1_565 S
H1106 N1103 0.984 . S
H1107 N1103 0.985 . S
H1108 N1102 0.984 . S
H1109 N1102 0.984 . S
H1110 N1098 0.984 . S
H1111 N1098 0.985 . S
C1112 C1113 1.363 . S
C1112 C1118 1.379 . S
C1112 N1120 1.356 . S
C1113 C1112 1.363 . S
C1113 C1119 1.363 . S
C1114 C1115 1.363 . S
C1114 C1119 1.379 . S
C1114 N1121 1.356 . S
C1115 C1114 1.363 . S
C1115 C1118 1.363 . S
N1116 C1118 1.356 . S
N1116 H1128 0.984 . S
N1116 H1129 0.985 . S
N1117 C1119 1.356 . S
N1117 H1122 0.984 . S
N1117 H1123 0.985 . S
C1118 C1112 1.379 . S
C1118 C1115 1.363 . S
C1118 N1116 1.356 . S
C1119 C1113 1.363 . S
C1119 C1114 1.379 . S
C1119 N1117 1.356 . S
N1120 C1112 1.356 . S
N1120 H1126 0.984 . S
N1120 H1127 0.984 . S
N1121 C1114 1.356 . S
N1121 H1124 0.984 . S
N1121 H1125 0.985 . S
H1122 N1117 0.984 . S
H1123 N1117 0.985 . S
H1124 N1121 0.984 . S
H1125 N1121 0.985 . S
H1126 N1120 0.984 . S
H1127 N1120 0.984 . S
H1128 N1116 0.984 . S
H1129 N1116 0.985 . S
C1130 C1131 1.363 . S
C1130 C1136 1.379 . S
C1130 N1138 1.356 . S
C1131 C1130 1.363 . S
C1131 C1137 1.363 . S
C1132 C1133 1.363 . S
C1132 C1137 1.379 . S
C1132 N1139 1.356 . S
C1133 C1132 1.363 . S
C1133 C1136 1.363 . S
N1134 C1136 1.356 . S
N1134 H1146 0.984 . S
N1134 H1147 0.985 . S
N1135 C1137 1.356 . S
N1135 H1140 0.984 1_455 S
N1135 H1141 0.985 . S
C1136 C1130 1.379 . S
C1136 C1133 1.363 . S
C1136 N1134 1.356 . S
C1137 C1131 1.363 . S
C1137 C1132 1.379 . S
C1137 N1135 1.356 . S
N1138 C1130 1.356 . S
N1138 H1144 0.984 . S
N1138 H1145 0.984 1_455 S
N1139 C1132 1.356 . S
N1139 H1142 0.984 . S
N1139 H1143 0.985 . S
H1140 N1135 0.984 1_655 S
H1141 N1135 0.985 . S
H1142 N1139 0.984 . S
H1143 N1139 0.985 . S
H1144 N1138 0.984 . S
H1145 N1138 0.984 1_655 S
H1146 N1134 0.984 . S
H1147 N1134 0.985 . S
C1148 C1149 1.363 . S
C1148 C1154 1.379 . S
C1148 N1156 1.356 . S
C1149 C1148 1.363 . S
C1149 C1155 1.363 . S
C1150 C1151 1.363 . S
C1150 C1155 1.379 . S
C1150 N1157 1.356 . S
C1151 C1150 1.363 . S
C1151 C1154 1.363 . S
N1152 C1154 1.356 . S
N1152 H1164 0.984 . S
N1152 H1165 0.985 . S
N1153 C1155 1.356 . S
N1153 H1158 0.984 . S
N1153 H1159 0.985 . S
C1154 C1148 1.379 . S
C1154 C1151 1.363 . S
C1154 N1152 1.356 . S
C1155 C1149 1.363 . S
C1155 C1150 1.379 . S
C1155 N1153 1.356 . S
N1156 C1148 1.356 . S
N1156 H1162 0.984 . S
N1156 H1163 0.984 . S
N1157 C1150 1.356 . S
N1157 H1160 0.984 . S
N1157 H1161 0.985 . S
H1158 N1153 0.984 . S
H1159 N1153 0.985 . S
H1160 N1157 0.984 . S
H1161 N1157 0.985 . S
H1162 N1156 0.984 . S
H1163 N1156 0.984 . S
H1164 N1152 0.984 . S
H1165 N1152 0.985 . S
C1166 C1167 1.363 . S
C1166 C1172 1.379 . S
C1166 N1174 1.356 . S
C1167 C1166 1.363 . S
C1167 C1173 1.363 . S
C1168 C1169 1.363 . S
C1168 C1173 1.379 . S
C1168 N1175 1.356 . S
C1169 C1168 1.363 . S
C1169 C1172 1.363 . S
N1170 C1172 1.356 1_545 S
N1170 H1182 0.984 . S
N1170 H1183 0.985 . S
N1171 C1173 1.356 . S
N1171 H1176 0.984 . S
N1171 H1177 0.985 . S
C1172 C1166 1.379 . S
C1172 C1169 1.363 . S
C1172 N1170 1.356 1_565 S
C1173 C1167 1.363 . S
C1173 C1168 1.379 . S
C1173 N1171 1.356 . S
N1174 C1166 1.356 . S
N1174 H1180 0.984 . S
N1174 H1181 0.984 . S
N1175 C1168 1.356 . S
N1175 H1178 0.984 . S
N1175 H1179 0.985 . S
H1176 N1171 0.984 . S
H1177 N1171 0.985 . S
H1178 N1175 0.984 . S
H1179 N1175 0.985 . S
H1180 N1174 0.984 . S
H1181 N1174 0.984 . S
H1182 N1170 0.984 . S
H1183 N1170 0.985 . S
C321 C2 0.748 . S
C323 C241 0.748 . S
C339 C101 0.748 . S
C341 C22 0.748 . S
C357 C42 0.748 . S
C359 C281 0.748 . S
C375 C62 0.748 . S
C377 C141 0.748 . S
C393 C81 0.748 . S
C395 C162 0.748 . S
C411 C202 0.748 . S
C413 C121 0.748 . S
C429 C261 0.748 . S
C431 C182 0.748 . S
C447 C222 0.748 . S
C449 C301 0.748 . S
C465 C189 1.903 . S
C467 C1 1.844 . S
C483 C21 1.844 . S
C485 C209 1.903 . S
C501 C41 1.843 . S
C503 C229 1.902 . S
C519 C169 1.903 . S
C521 C61 1.843 . S
C537 C268 1.902 . S
C539 C82 1.843 . S
C555 C288 1.902 . S
C557 C102 1.843 . S
C573 C122 1.843 . S
C575 C308 1.902 . S
C591 C248 1.902 . S
C593 C142 1.843 . S
C609 C161 1.843 . S
C611 C29 1.903 . S
C627 C181 1.843 1_565 S
C629 C49 1.902 . S
C645 C201 1.843 . S
C647 C69 1.902 . S
C663 C9 1.902 . S
C665 C221 1.843 1_545 S
C681 C108 1.903 . S
C683 C242 1.844 . S
C699 C262 1.843 1_545 S
C701 C128 1.903 . S
C717 C148 1.903 . S
C719 C282 1.844 . S
C735 C302 1.844 1_565 S
C737 C88 1.903 . S
C753 C18 2.290 . S
C755 C218 2.290 . S
C771 C38 2.290 . S
C773 C238 2.290 . S
C789 C178 2.290 . S
C791 C58 2.290 . S
C807 C78 2.290 . S
C809 C198 2.290 . S
C825 C99 2.290 . S
C827 C299 2.290 . S
C843 C119 2.290 . S
C845 C319 2.290 . S
C861 C259 2.290 . S
C863 C139 2.290 . S
C879 C159 2.290 . S
C881 C279 2.290 . S
C897 C8 1.428 . S
C899 C158 1.647 . S
C915 C258 1.647 . S
C917 C28 1.428 . S
C933 C48 1.428 . S
C935 C118 1.647 . S
C951 C68 1.428 1_455 S
C953 C298 1.647 . S
C969 C89 1.428 . S
C971 C79 1.647 . S
C987 C179 1.647 . S
C989 C109 1.428 . S
C1005 C129 1.428 . S
C1007 C39 1.647 . S
C1023 C219 1.647 . S
C1025 C149 1.428 1_655 S
C1041 C168 1.428 . S
C1043 C318 1.647 . S
C1059 C98 1.647 . S
C1061 C188 1.428 1_655 S
C1077 C278 1.648 . S
C1079 C208 1.428 . S
C1095 C228 1.428 . S
C1097 C138 1.647 . S
C1113 C249 1.428 . S
C1115 C239 1.647 . S
C1131 C269 1.428 1_455 S
C1133 C19 1.647 . S
C1149 C199 1.647 . S
C1151 C289 1.428 . S
C1167 C59 1.647 . S
C1169 C309 1.428 . S
