# Generated by pormake.
# Topology snk, (6)-cn, num edge types: 1
# Building blocks:
#     Node 0, Type 0, BuildingBlock: FUNLAD_clean_sbu_0, # of connection points: 6
#     Node 1, Type 0, BuildingBlock: FUNLAD_clean_sbu_0, # of connection points: 6
#     Node 2, Type 0, BuildingBlock: FUNLAD_clean_sbu_0, # of connection points: 6
#     Node 3, Type 0, BuildingBlock: FUNLAD_clean_sbu_0, # of connection points: 6
#     Node 4, Type 0, BuildingBlock: FUNLAD_clean_sbu_0, # of connection points: 6
#     Node 5, Type 0, BuildingBlock: FUNLAD_clean_sbu_0, # of connection points: 6
#     Node 6, Type 0, BuildingBlock: FUNLAD_clean_sbu_0, # of connection points: 6
#     Node 7, Type 0, BuildingBlock: FUNLAD_clean_sbu_0, # of connection points: 6
#     Edge 8, Type (0, 0), BuildingBlock: KIFKEQ_clean_linker_1, # of connection points: 2
#     Edge 9, Type (0, 0), BuildingBlock: KIFKEQ_clean_linker_1, # of connection points: 2
#     Edge 10, Type (0, 0), BuildingBlock: KIFKEQ_clean_linker_1, # of connection points: 2
#     Edge 11, Type (0, 0), BuildingBlock: KIFKEQ_clean_linker_1, # of connection points: 2
#     Edge 12, Type (0, 0), BuildingBlock: KIFKEQ_clean_linker_1, # of connection points: 2
#     Edge 13, Type (0, 0), BuildingBlock: KIFKEQ_clean_linker_1, # of connection points: 2
#     Edge 14, Type (0, 0), BuildingBlock: KIFKEQ_clean_linker_1, # of connection points: 2
#     Edge 15, Type (0, 0), BuildingBlock: KIFKEQ_clean_linker_1, # of connection points: 2
#     Edge 16, Type (0, 0), BuildingBlock: KIFKEQ_clean_linker_1, # of connection points: 2
#     Edge 17, Type (0, 0), BuildingBlock: KIFKEQ_clean_linker_1, # of connection points: 2
#     Edge 18, Type (0, 0), BuildingBlock: KIFKEQ_clean_linker_1, # of connection points: 2
#     Edge 19, Type (0, 0), BuildingBlock: KIFKEQ_clean_linker_1, # of connection points: 2
#     Edge 20, Type (0, 0), BuildingBlock: KIFKEQ_clean_linker_1, # of connection points: 2
#     Edge 21, Type (0, 0), BuildingBlock: KIFKEQ_clean_linker_1, # of connection points: 2
#     Edge 22, Type (0, 0), BuildingBlock: KIFKEQ_clean_linker_1, # of connection points: 2
#     Edge 23, Type (0, 0), BuildingBlock: KIFKEQ_clean_linker_1, # of connection points: 2
#     Edge 24, Type (0, 0), BuildingBlock: KIFKEQ_clean_linker_1, # of connection points: 2
#     Edge 25, Type (0, 0), BuildingBlock: KIFKEQ_clean_linker_1, # of connection points: 2
#     Edge 26, Type (0, 0), BuildingBlock: KIFKEQ_clean_linker_1, # of connection points: 2
#     Edge 27, Type (0, 0), BuildingBlock: KIFKEQ_clean_linker_1, # of connection points: 2
#     Edge 28, Type (0, 0), BuildingBlock: KIFKEQ_clean_linker_1, # of connection points: 2
#     Edge 29, Type (0, 0), BuildingBlock: KIFKEQ_clean_linker_1, # of connection points: 2
#     Edge 30, Type (0, 0), BuildingBlock: KIFKEQ_clean_linker_1, # of connection points: 2
#     Edge 31, Type (0, 0), BuildingBlock: KIFKEQ_clean_linker_1, # of connection points: 2
# Relax obj value: 0.238
# Max RMSD: 0.120
# Mean RMSD: 0.089
data_MOF--net-snk--node1-FUNLAD_clean_sbu_0--edge1-KIFKEQ_clean_linker_1
_symmetry_space_group_name_H-M    P1
_symmetry_Int_Tables_number       1
_symmetry_cell_setting            triclinic
loop_
_symmetry_equiv_pos_as_xyz
'x, y, z'
_cell_length_a     49.620072
_cell_length_b     49.555539
_cell_length_c     15.582804
_cell_angle_alpha  79.591676
_cell_angle_beta   79.526623
_cell_angle_gamma 95.501669
loop_
_atom_site_label
_atom_site_type_symbol
_atom_site_fract_x
_atom_site_fract_y
_atom_site_fract_z
_atom_type_partial_charge
C0 C 1.03738 0.04087 0.65689 0.0
N1 N 0.08648 0.99897 0.4924 0.0
C2 C 0.10858 1.00791 0.52545 0.0
C3 C 0.12845 0.9906 0.54254 0.0
C4 C 0.12534 0.96352 0.52751 0.0
C5 C 0.10255 0.95483 0.49256 0.0
C6 C 0.0834 0.97305 0.47468 0.0
Zn7 Zn 0.05628 1.02471 0.48008 0.0
C8 C 0.99808 0.9929 0.52656 0.0
N9 N 0.99413 0.07939 0.46704 0.0
C10 C 0.99236 0.10222 0.50403 0.0
C11 C 0.97578 0.07231 0.417 0.0
C12 C 0.9553 0.08874 0.40006 0.0
C13 C 0.95322 0.11264 0.43582 0.0
C14 C 0.97178 0.11913 0.48971 0.0
Zn15 Zn 1.0247 0.05417 0.47919 0.0
O16 O 0.05354 1.0272 0.61446 0.0
C17 C 0.08266 0.08622 0.43224 0.0
O18 O 1.02127 0.05465 0.61706 0.0
H19 H 0.97718 0.05396 0.38888 0.0
H20 H 0.11049 1.02828 0.54119 0.0
H21 H 1.00709 0.10752 0.54362 0.0
O22 O 0.08811 0.0613 0.44091 0.0
O23 O 0.05725 0.09009 0.44484 0.0
H24 H 0.06575 0.96622 0.44862 0.0
O25 O 1.02918 0.05317 0.34269 0.0
O26 O 0.05851 1.02268 0.34402 0.0
O27 O 0.99283 1.01785 0.51284 0.0
O28 O 1.02338 0.98891 0.51955 0.0
C29 C 0.04412 1.03815 0.30197 0.0
H30 H 0.14552 0.99797 0.57053 0.0
H31 H 0.0995 0.93411 0.47973 0.0
H32 H 0.9412 0.0828 0.35915 0.0
H33 H 0.97089 0.13747 0.51826 0.0
C34 C 0.28315 0.78887 0.91778 0.0
N35 N 0.34112 0.82221 0.68199 0.0
C36 C 0.347 0.84458 0.71767 0.0
C37 C 0.37442 0.8542 0.7163 0.0
C38 C 0.39552 0.84016 0.6796 0.0
C39 C 0.38907 0.81916 0.63487 0.0
C40 C 0.36145 0.81071 0.63566 0.0
Zn41 Zn 0.30338 0.79939 0.72153 0.0
C42 C 0.31346 0.7386 0.77741 0.0
N43 N 0.2286 0.7452 0.8045 0.0
C44 C 0.20853 0.75717 0.85008 0.0
C45 C 0.22225 0.72354 0.76619 0.0
C46 C 0.19483 0.71564 0.76257 0.0
C47 C 0.17429 0.73068 0.79704 0.0
C48 C 0.18097 0.75043 0.84608 0.0
Zn49 Zn 0.26654 0.7678 0.76524 0.0
O50 O 0.302 0.80383 0.85672 0.0
C51 C 0.25647 0.82851 0.7073 0.0
O52 O 0.2653 0.7726 0.89668 0.0
H53 H 0.23859 0.71455 0.72981 0.0
H54 H 0.33048 0.85317 0.75465 0.0
H55 H 0.2141 0.7744 0.88001 0.0
O56 O 0.28249 0.83492 0.69574 0.0
O57 O 0.24616 0.80333 0.73576 0.0
H58 H 0.35624 0.79299 0.60747 0.0
O59 O 0.26806 0.7631 0.63118 0.0
O60 O 0.30447 0.79473 0.58905 0.0
O61 O 0.28731 0.73241 0.79335 0.0
O62 O 0.32389 0.76371 0.74752 0.0
C63 C 0.28668 0.77803 0.56934 0.0
H64 H 0.37883 0.87026 0.75257 0.0
H65 H 0.40493 0.80782 0.60687 0.0
H66 H 0.19031 0.70049 0.72318 0.0
H67 H 0.1656 0.76253 0.87258 0.0
C68 C 0.53157 1.03832 0.79575 0.0
N69 N 0.49823 0.98028 0.03189 0.0
C70 C 0.47582 0.97446 -0.00351 0.0
C71 C 0.46605 0.94701 -0.00185 0.0
C72 C 0.47996 0.92583 0.03494 0.0
C73 C 0.50102 0.93224 0.07934 0.0
C74 C 0.50965 0.95989 0.07812 0.0
Zn75 Zn 0.52118 1.018 -0.00751 0.0
C76 C 0.5816 1.00809 0.93644 0.0
N77 N 0.5754 0.09282 0.90787 0.0
C78 C 0.56445 0.11362 0.86174 0.0
C79 C 0.59843 0.09795 0.94098 0.0
C80 C 0.60957 0.12516 0.93662 0.0
C81 C 0.59639 0.14694 0.89962 0.0
C82 C 0.57447 0.14112 0.85787 0.0
Zn83 Zn 0.55213 0.05531 0.94781 0.0
O84 O 0.51637 1.01972 0.8572 0.0
C85 C 0.49175 0.06527 0.00382 0.0
O86 O 0.54807 0.05606 0.8164 0.0
H87 H 0.60662 0.08106 0.97774 0.0
H88 H 0.46728 0.99103 0.95957 0.0
H89 H 0.54624 0.10898 0.83525 0.0
O90 O 0.48594 1.03905 0.02046 0.0
O91 O 0.51668 0.07601 0.9726 0.0
H92 H 0.52744 0.96504 0.10596 0.0
O93 O 0.55609 0.05438 0.08242 0.0
O94 O 0.5262 1.0166 0.12439 0.0
O95 O 0.58743 1.03425 0.92299 0.0
O96 O 0.55656 0.99733 0.96468 0.0
C97 C 0.54203 1.03515 0.14416 0.0
H98 H 0.44994 0.94264 0.96214 0.0
H99 H 0.51227 0.91632 0.10742 0.0
H100 H 0.6263 0.12901 0.9707 0.0
H101 H 0.56377 0.1575 0.82954 0.0
C102 C 0.28958 0.29322 0.04586 0.0
N103 N 0.3298 0.24276 0.21266 0.0
C104 C 0.3224 0.22383 0.16489 0.0
C105 C 0.3386 0.203 0.14961 0.0
C106 C 0.36275 0.20122 0.18424 0.0
C107 C 0.36968 0.22076 0.23484 0.0
C108 C 0.35289 0.24147 0.24811 0.0
Zn109 Zn 0.30505 0.27367 0.22407 0.0
C110 C 0.33761 0.33125 0.17719 0.0
N111 N 0.25157 0.33675 0.23376 0.0
C112 C 0.22812 0.3379 0.20022 0.0
C113 C 0.25995 0.35642 0.27752 0.0
C114 C 0.24451 0.37798 0.29025 0.0
C115 C 0.22008 0.37972 0.25719 0.0
C116 C 0.21203 0.35931 0.2111 0.0
Zn117 Zn 0.27595 0.30547 0.22339 0.0
O118 O 0.30452 0.27827 0.08687 0.0
C119 C 0.2434 0.24784 0.27006 0.0
O120 O 0.27407 0.30763 0.08767 0.0
H121 H 0.27861 0.35528 0.30387 0.0
H122 H 0.30405 0.22513 0.13693 0.0
H123 H 0.22181 0.32214 0.16539 0.0
O124 O 0.26827 0.24237 0.25653 0.0
O125 O 0.23959 0.27325 0.26289 0.0
H126 H 0.35843 0.25666 0.28598 0.0
O127 O 0.2783 0.30259 0.35844 0.0
O128 O 0.3052 0.26988 0.36187 0.0
O129 O 0.31281 0.33681 0.18366 0.0
O130 O 0.34132 0.30579 0.19187 0.0
C131 C 0.29162 0.28619 0.40136 0.0
H132 H 0.33255 0.1889 0.10882 0.0
H133 H 0.38789 0.2201 0.26394 0.0
H134 H 0.2514 0.39276 0.32768 0.0
H135 H 0.19355 0.35988 0.18344 0.0
C136 C 0.7821 0.28957 0.42658 0.0
N137 N 0.84164 0.32553 0.19958 0.0
C138 C 0.84391 0.34639 0.2447 0.0
C139 C 0.86912 0.35447 0.2656 0.0
C140 C 0.89177 0.34083 0.23962 0.0
C141 C 0.8899 0.32222 0.18278 0.0
C142 C 0.8643 0.31502 0.16232 0.0
Zn143 Zn 0.80461 0.30155 0.22751 0.0
C144 C 0.81513 0.24132 0.2819 0.0
N145 N 0.73029 0.24658 0.30207 0.0
C146 C 0.70829 0.2574 0.34219 0.0
C147 C 0.72683 0.22487 0.26122 0.0
C148 C 0.70061 0.21559 0.24956 0.0
C149 C 0.67828 0.22927 0.27887 0.0
C150 C 0.68184 0.24931 0.32986 0.0
Zn151 Zn 0.76746 0.27041 0.27252 0.0
O152 O 0.80127 0.30355 0.3647 0.0
C153 C 0.75713 0.33075 0.21646 0.0
O154 O 0.76346 0.27383 0.40694 0.0
H155 H 0.74468 0.21686 0.22912 0.0
H156 H 0.82558 0.35418 0.27433 0.0
H157 H 0.7116 0.27462 0.37461 0.0
O158 O 0.78322 0.33665 0.20375 0.0
O159 O 0.74641 0.30567 0.24468 0.0
H160 H 0.86191 0.29847 0.12647 0.0
O161 O 0.77176 0.26721 0.13487 0.0
O162 O 0.8078 0.29932 0.09363 0.0
O163 O 0.78895 0.23538 0.3002 0.0
O164 O 0.82569 0.26629 0.25026 0.0
C165 C 0.79025 0.28251 0.07329 0.0
H166 H 0.87014 0.3689 0.3099 0.0
H167 H 0.90714 0.31138 0.16221 0.0
H168 H 0.69843 0.20026 0.20882 0.0
H169 H 0.66497 0.26035 0.35244 0.0
C170 C 0.79005 0.79295 0.54834 0.0
N171 N 0.83155 0.74368 0.71365 0.0
C172 C 0.82543 0.72476 0.66431 0.0
C173 C 0.84324 0.70542 0.64623 0.0
C174 C 0.86765 0.70508 0.67997 0.0
C175 C 0.87308 0.72439 0.73297 0.0
C176 C 0.85476 0.74365 0.74868 0.0
Zn177 Zn 0.80555 0.77349 0.72587 0.0
C178 C 0.83703 0.83185 0.68139 0.0
N179 N 0.75028 0.83496 0.73821 0.0
C180 C 0.72713 0.83517 0.7029 0.0
C181 C 0.75694 0.85436 0.7853 0.0
C182 C 0.73984 0.87452 0.80027 0.0
C183 C 0.7156 0.87519 0.7657 0.0
C184 C 0.7095 0.85523 0.71557 0.0
Zn185 Zn 0.776 0.80488 0.72695 0.0
O186 O 0.80481 0.77777 0.58923 0.0
C187 C 0.74444 0.74653 0.77172 0.0
O188 O 0.77472 0.80748 0.5903 0.0
H189 H 0.77541 0.85396 0.81289 0.0
H190 H 0.80694 0.72507 0.63677 0.0
H191 H 0.72219 0.81963 0.66553 0.0
O192 O 0.7694 0.74122 0.75911 0.0
O193 O 0.74045 0.77189 0.76387 0.0
H194 H 0.8593 0.75884 0.7877 0.0
O195 O 0.77775 0.8016 0.86222 0.0
O196 O 0.80589 0.76999 0.86381 0.0
O197 O 0.81209 0.83714 0.69072 0.0
O198 O 0.84106 0.80648 0.69222 0.0
C199 C 0.79168 0.78568 0.90426 0.0
H200 H 0.83822 0.69145 0.60376 0.0
H201 H 0.89135 0.72476 0.7618 0.0
H202 H 0.74532 0.88897 0.8407 0.0
H203 H 0.69132 0.85505 0.68633 0.0
C204 C 0.53649 0.54022 0.15564 0.0
N205 N 0.5866 0.49905 -0.00944 0.0
C206 C 0.60521 0.50588 0.03999 0.0
C207 C 0.62518 0.48885 0.05787 0.0
C208 C 0.62648 0.46448 0.02393 0.0
C209 C 0.60739 0.45825 0.97116 0.0
C210 C 0.58749 0.47583 0.95554 0.0
Zn211 Zn 0.55631 0.52445 0.97736 0.0
C212 C 0.49847 0.49238 0.02353 0.0
N213 N 0.49393 0.57882 0.96537 0.0
C214 C 0.49241 0.60216 -0.00025 0.0
C215 C 0.47514 0.57098 0.9178 0.0
C216 C 0.45447 0.58715 0.90058 0.0
C217 C 0.45264 0.61154 0.93366 0.0
C218 C 0.47165 0.61881 -0.01482 0.0
Zn219 Zn 0.52475 0.55388 0.97796 0.0
O220 O 0.55139 0.52522 0.11456 0.0
C221 C 0.58271 0.58591 0.93195 0.0
O222 O 0.52218 0.55584 0.11384 0.0
H223 H 0.47632 0.55223 0.89183 0.0
H224 H 0.60423 0.52437 0.06754 0.0
H225 H 0.50749 0.60807 0.03743 0.0
O226 O 0.588 0.56094 0.94516 0.0
O227 O 0.55737 0.58991 0.93925 0.0
H228 H 0.57254 0.47073 0.91639 0.0
O229 O 0.52812 0.55142 0.84274 0.0
O230 O 0.56042 0.52408 0.83948 0.0
O231 O 0.49302 0.51726 0.01694 0.0
O232 O 0.52386 0.48854 0.00926 0.0
C233 C 0.54433 0.5379 0.79986 0.0
H234 H 0.63894 0.49444 0.10022 0.0
H235 H 0.60772 0.43996 0.94231 0.0
H236 H 0.44003 0.58062 0.86155 0.0
H237 H 0.47096 0.63755 0.01163 0.0
C238 C 0.04594 0.55142 0.27956 0.0
N239 N 1.01292 0.49439 0.518 0.0
C240 C 0.98918 0.48908 0.48878 0.0
C241 C 0.97625 0.46197 0.5036 0.0
C242 C 0.98825 0.44037 0.54738 0.0
C243 C 1.01159 0.44661 0.58228 0.0
C244 C 1.02349 0.47406 0.56766 0.0
Zn245 Zn 1.03619 0.53178 0.4753 0.0
C246 C 0.09638 0.52163 0.4205 0.0
N247 N 0.08986 0.60698 0.38964 0.0
C248 C 0.07821 0.62697 0.34246 0.0
C249 C 0.11186 0.61343 0.42619 0.0
C250 C 0.12066 0.64104 0.42567 0.0
C251 C 0.10618 0.66173 0.38884 0.0
C252 C 0.08592 0.65475 0.34207 0.0
Zn253 Zn 0.06702 0.56915 0.43075 0.0
O254 O 1.03203 0.53207 0.34122 0.0
C255 C 1.00651 0.57884 0.48745 0.0
O256 O 0.06161 0.57008 0.2994 0.0
H257 H 0.1206 0.59717 0.46382 0.0
H258 H 0.98129 0.50559 0.44924 0.0
H259 H 0.0607 0.62135 0.31396 0.0
O260 O 1.00098 0.5527 0.4996 0.0
O261 O 1.03147 0.58992 0.45932 0.0
H262 H 0.04226 0.47885 0.59105 0.0
O263 O 0.07221 0.56787 0.56556 0.0
O264 O 0.04039 0.53166 0.60628 0.0
O265 O 0.10235 0.54787 0.40263 0.0
O266 O 0.07141 0.51108 0.45172 0.0
C267 C 0.05691 0.54935 0.62701 0.0
H268 H 0.95844 0.45772 0.47455 0.0
H269 H 1.02137 0.43033 0.61578 0.0
H270 H 0.13618 0.64576 0.46343 0.0
H271 H 0.07425 0.67023 0.31376 0.0
H272 H 0.08019 0.14231 0.37877 0.0
H273 H 0.13809 0.0851 0.43222 0.0
H274 H 0.11781 0.18074 0.33846 0.0
H275 H 0.17548 0.12333 0.39661 0.0
H276 H 0.24433 0.19307 0.25938 0.0
H277 H 0.20633 0.1555 0.29495 0.0
H278 H 0.14947 0.2116 0.37372 0.0
H279 H 0.18764 0.24951 0.33343 0.0
C280 C 0.10093 0.13786 0.38266 0.0
C281 C 0.10581 0.11027 0.40858 0.0
C282 C 0.12275 0.16013 0.35999 0.0
C283 C 0.15039 0.15582 0.3633 0.0
C284 C 0.15501 0.1281 0.39044 0.0
C285 C 0.13329 0.10587 0.41189 0.0
C286 C 0.22372 0.1975 0.2842 0.0
C287 C 0.2194 0.22465 0.2933 0.0
C288 C 0.20164 0.17565 0.30566 0.0
C289 C 0.17415 0.17976 0.3386 0.0
C290 C 0.16989 0.20707 0.34762 0.0
C291 C 0.19201 0.22905 0.32495 0.0
H292 H 0.11307 0.91143 0.62901 0.0
H293 H 0.18197 0.97211 0.48443 0.0
H294 H 0.14483 0.88013 0.67628 0.0
H295 H 0.21411 0.94025 0.52723 0.0
H296 H 0.26616 0.88553 0.68069 0.0
H297 H 0.23476 0.91857 0.63946 0.0
H298 H 0.17448 0.85065 0.62974 0.0
H299 H 0.20491 0.81811 0.67565 0.0
C300 C 0.13509 0.91784 0.60606 0.0
C301 C 0.14502 0.94411 0.55254 0.0
C302 C 0.15344 0.89984 0.63281 0.0
C303 C 0.1823 0.90734 0.6052 0.0
C304 C 0.19216 0.93373 0.55125 0.0
C305 C 0.17375 0.95197 0.52594 0.0
C306 C 0.24609 0.87779 0.67031 0.0
C307 C 0.23798 0.84919 0.68241 0.0
C308 C 0.2281 0.89672 0.64592 0.0
C309 C 0.20177 0.88748 0.63154 0.0
C310 C 0.19408 0.85879 0.64246 0.0
C311 C 0.21174 0.83999 0.66833 0.0
H312 H 0.41299 0.80119 0.79208 0.0
H313 H 0.43516 0.88491 0.64118 0.0
H314 H 0.44442 0.81063 0.89026 0.0
H315 H 0.46758 0.89394 0.7366 0.0
H316 H 0.51901 0.90731 0.92548 0.0
H317 H 0.50981 0.87533 0.82855 0.0
H318 H 0.42587 0.8539 0.97772 0.0
H319 H 0.4347 0.88683 0.07186 0.0
C320 C 0.42597 0.82102 0.77653 0.0
C321 C 0.42177 0.84249 0.7099 0.0
C322 C 0.44389 0.82633 0.83258 0.0
C323 C 0.45822 0.85291 0.8206 0.0
C324 C 0.45692 0.87316 0.74612 0.0
C325 C 0.4384 0.8681 0.69169 0.0
C326 C 0.49905 0.89461 0.94038 0.0
C327 C 0.47741 0.89943 0.0053 0.0
C328 C 0.49388 0.87637 0.88506 0.0
C329 C 0.46723 0.86233 0.89611 0.0
C330 C 0.4467 0.86431 0.96901 0.0
C331 C 0.45164 0.88314 0.02265 0.0
H332 H 0.44057 0.05168 0.11575 0.0
H333 H 0.49559 0.12071 0.94235 0.0
H334 H 0.40901 0.08355 0.16419 0.0
H335 H 0.4639 0.15226 -0.0122 0.0
H336 H 0.41951 0.20623 0.15192 0.0
H337 H 0.44914 0.17237 0.11116 0.0
H338 H 0.37712 0.11422 0.12414 0.0
H339 H 0.34741 0.14748 0.17065 0.0
C340 C 0.44567 0.07356 0.08679 0.0
C341 C 0.47066 0.08364 0.02559 0.0
C342 C 0.42759 0.09188 0.1145 0.0
C343 C 0.43402 0.12065 0.08106 0.0
C344 C 0.45853 0.13042 0.01712 0.0
C345 C 0.47663 0.11223 -0.00977 0.0
C346 C 0.4099 0.18606 0.14792 0.0
C347 C 0.38095 0.17981 0.16427 0.0
C348 C 0.42696 0.16671 0.12295 0.0
C349 C 0.41563 0.14058 0.11279 0.0
C350 C 0.38668 0.13402 0.13145 0.0
C351 C 0.36959 0.15332 0.15709 0.0
H352 H 0.99968 0.93705 0.58825 0.0
H353 H 0.94333 0.99406 0.51645 0.0
H354 H 0.96186 0.89884 0.62693 0.0
H355 H 0.90581 0.95601 0.55047 0.0
H356 H 0.8356 0.88714 0.68464 0.0
H357 H 0.87365 0.92467 0.65096 0.0
H358 H 0.93131 0.86753 0.58906 0.0
H359 H 0.89308 0.82976 0.6274 0.0
C360 C 0.97925 0.94149 0.57998 0.0
C361 C 0.97484 0.96897 0.5494 0.0
C362 C 0.95732 0.91935 0.60168 0.0
C363 C 0.93008 0.92367 0.59269 0.0
C364 C 0.92594 0.95127 0.561 0.0
C365 C 0.94774 0.97338 0.54048 0.0
C366 C 0.85639 0.88249 0.66391 0.0
C367 C 0.86093 0.85511 0.65895 0.0
C368 C 0.87851 0.9043 0.64359 0.0
C369 C 0.90624 0.89985 0.61605 0.0
C370 C 0.91068 0.87232 0.61105 0.0
C371 C 0.88853 0.85042 0.63255 0.0
H372 H 0.91634 0.1343 0.54988 0.0
H373 H 0.94278 0.13208 0.27192 0.0
H374 H 0.88126 0.16362 0.51187 0.0
H375 H 0.90806 0.16141 0.2341 0.0
H376 H 0.86912 0.24365 0.20411 0.0
H377 H 0.90153 0.21174 0.24233 0.0
H378 H 0.83644 0.15998 0.44288 0.0
H379 H 0.80358 0.19192 0.40353 0.0
C380 C 0.9147 0.14016 0.4808 0.0
C381 C 0.93228 0.13091 0.41388 0.0
C382 C 0.89449 0.15668 0.45917 0.0
C383 C 0.89188 0.1647 0.37005 0.0
C384 C 0.90962 0.1556 0.30328 0.0
C385 C 0.92943 0.13875 0.32499 0.0
C386 C 0.86157 0.22531 0.2557 0.0
C387 C 0.83373 0.22024 0.30054 0.0
C388 C 0.88016 0.20702 0.27748 0.0
C389 C 0.87154 0.18342 0.34575 0.0
C390 C 0.84366 0.17813 0.39034 0.0
C391 C 0.82483 0.19624 0.36728 0.0
H392 H 0.66795 0.26827 0.15008 0.0
H393 H 0.63728 0.18628 0.30538 0.0
H394 H 0.63978 0.26019 0.04116 0.0
H395 H 0.60814 0.17864 0.19879 0.0
H396 H 0.64422 0.18247 0.86544 0.0
H397 H 0.65492 0.21481 0.95957 0.0
H398 H 0.56961 0.20106 0.09755 0.0
H399 H 0.55867 0.16962 0.001 0.0
C400 C 0.6539 0.24917 0.16337 0.0
C401 C 0.65451 0.22781 0.23554 0.0
C402 C 0.63788 0.24462 0.10126 0.0
C403 C 0.62184 0.21895 0.11235 0.0
C404 C 0.62007 0.19879 0.19001 0.0
C405 C 0.63669 0.20305 0.25077 0.0
C406 C 0.62753 0.18776 0.91203 0.0
C407 C 0.60076 0.17363 0.92666 0.0
C408 C 0.63356 0.20623 0.96574 0.0
C409 C 0.61301 0.21008 0.03575 0.0
C410 C 0.58561 0.19848 0.0434 0.0
C411 C 0.57943 0.18058 -0.01188 0.0
H412 H 0.65878 0.86848 0.79483 0.0
H413 H 0.7289 0.92922 0.78049 0.0
H414 H 0.62772 0.90144 0.8325 0.0
H415 H 0.69775 0.96148 0.82481 0.0
H416 H 0.63336 1.0224 0.82902 0.0
H417 H 0.6659 0.99117 0.78286 0.0
H418 H 0.61046 0.92152 0.95229 0.0
H419 H 0.57773 0.95248 -0.00512 0.0
C420 C 0.66767 0.88888 0.79926 0.0
C421 C 0.6965 0.89595 0.78484 0.0
C422 C 0.64976 0.90772 0.82255 0.0
C423 C 0.66008 0.93414 0.83323 0.0
C424 C 0.68892 0.94146 0.81691 0.0
C425 C 0.70685 0.92271 0.79264 0.0
C426 C 0.62831 1.00043 0.85681 0.0
C427 C 0.60292 0.98994 0.91529 0.0
C428 C 0.64698 0.98247 0.83049 0.0
C429 C 0.64079 0.95363 0.86284 0.0
C430 C 0.61574 0.94341 0.92381 0.0
C431 C 0.59702 0.96126 0.94911 0.0
H432 H 0.63764 0.58457 0.93929 0.0
H433 H 0.5811 0.64191 0.87209 0.0
H434 H 0.67532 0.6225 0.90387 0.0
H435 H 0.61907 0.68001 0.83222 0.0
H436 H 0.68859 0.7487 0.82964 0.0
H437 H 0.65021 0.71107 0.86933 0.0
H438 H 0.70717 0.65387 0.80163 0.0
H439 H 0.74541 0.69128 0.76635 0.0
C440 C 0.6332 0.6053 0.91607 0.0
C441 C 0.606 0.60982 0.90881 0.0
C442 C 0.65511 0.62734 0.89472 0.0
C443 C 0.65096 0.65499 0.8639 0.0
C444 C 0.62361 0.65944 0.85669 0.0
C445 C 0.6016 0.63737 0.87913 0.0
C446 C 0.69296 0.72807 0.82343 0.0
C447 C 0.72044 0.72333 0.79488 0.0
C448 C 0.67071 0.70624 0.84575 0.0
C449 C 0.67492 0.67874 0.83957 0.0
C450 C 0.70251 0.67423 0.80992 0.0
C451 C 0.72474 0.69597 0.78867 0.0
H452 H 0.77206 0.38256 0.10977 0.0
H453 H 0.70122 0.32674 0.26881 0.0
H454 H 0.7414 0.41496 0.05881 0.0
H455 H 0.67074 0.35939 0.22142 0.0
H456 H 0.61984 0.40756 0.05441 0.0
H457 H 0.65217 0.37655 0.09817 0.0
H458 H 0.71122 0.44682 0.09594 0.0
H459 H 0.67969 0.47789 0.04567 0.0
C460 C 0.74999 0.37745 0.13514 0.0
C461 C 0.73911 0.35204 0.19313 0.0
C462 C 0.73234 0.39604 0.10603 0.0
C463 C 0.70341 0.38978 0.13499 0.0
C464 C 0.69275 0.36472 0.19552 0.0
C465 C 0.71031 0.34606 0.22363 0.0
C466 C 0.63991 0.41651 0.06136 0.0
C467 C 0.64692 0.44539 0.04666 0.0
C468 C 0.65837 0.39862 0.08817 0.0
C469 C 0.68431 0.40903 0.10212 0.0
C470 C 0.69157 0.43791 0.0856 0.0
C471 C 0.67322 0.45581 0.05785 0.0
H472 H 1.02018 0.40686 0.46917 0.0
H473 H 0.93692 0.41103 0.60235 0.0
H474 H 1.00314 0.36884 0.40454 0.0
H475 H 0.91991 0.37275 0.53953 0.0
H476 H 0.8902 0.31248 0.40428 0.0
H477 H 0.92035 0.32359 0.50448 0.0
H478 H 0.97293 0.38269 0.28613 0.0
H479 H 0.94252 0.37164 0.18652 0.0
C480 C 0.99845 0.39857 0.48853 0.0
C481 C 0.97967 0.4119 0.53947 0.0
C482 C 0.98876 0.37692 0.45139 0.0
C483 C 0.96028 0.3682 0.46624 0.0
C484 C 0.94203 0.379 0.52743 0.0
C485 C 0.95166 0.40095 0.56317 0.0
C486 C 0.90892 0.32695 0.37735 0.0
C487 C 0.9142 0.34153 0.28872 0.0
C488 C 0.92612 0.33319 0.43438 0.0
C489 C 0.94876 0.35404 0.40303 0.0
C490 C 0.95574 0.36628 0.31163 0.0
C491 C 0.93836 0.36017 0.2547 0.0
H492 H 0.9245 0.71373 0.65016 0.0
H493 H 0.85636 0.65165 0.65647 0.0
H494 H 0.95693 0.6826 0.60652 0.0
H495 H 0.88882 0.62137 0.60597 0.0
H496 H 0.95474 0.56272 0.59271 0.0
H497 H 0.92129 0.5924 0.64348 0.0
H498 H 0.97576 0.66441 0.48445 0.0
H499 H 1.00953 0.63485 0.43746 0.0
C500 C 0.91633 0.69343 0.64267 0.0
C501 C 0.88763 0.68543 0.6568 0.0
C502 C 0.93504 0.67566 0.61587 0.0
C503 C 0.92567 0.64944 0.60128 0.0
C504 C 0.89697 0.64124 0.61694 0.0
C505 C 0.87825 0.65888 0.64479 0.0
C506 C 0.95941 0.58488 0.56814 0.0
C507 C 0.98482 0.59639 0.51119 0.0
C508 C 0.94019 0.60197 0.59709 0.0
C509 C 0.94576 0.63099 0.56892 0.0
C510 C 0.9709 0.64231 0.50966 0.0
C511 C 0.99021 0.62529 0.48178 0.0
H512 H 0.39281 0.32852 0.18402 0.0
H513 H 0.33731 0.38697 0.11639 0.0
H514 H 0.43101 0.36626 0.15001 0.0
H515 H 0.37542 0.42451 0.07823 0.0
H516 H 0.44272 0.49273 0.08355 0.0
H517 H 0.40525 0.45452 0.1217 0.0
H518 H 0.46359 0.39885 0.05105 0.0
H519 H 0.50124 0.43713 0.01707 0.0
C520 C 0.38872 0.3494 0.16106 0.0
C521 C 0.36165 0.35439 0.15352 0.0
C522 C 0.41086 0.37129 0.14073 0.0
C523 C 0.40694 0.39912 0.11105 0.0
C524 C 0.37979 0.40386 0.10257 0.0
C525 C 0.35767 0.38206 0.12389 0.0
C526 C 0.44766 0.47234 0.07628 0.0
C527 C 0.47533 0.46835 0.04698 0.0
C528 C 0.4259 0.45016 0.0976 0.0
C529 C 0.43071 0.42295 0.08946 0.0
C530 C 0.45852 0.41904 0.06008 0.0
C531 C 0.48035 0.44123 0.03975 0.0
H532 H 0.41604 0.6338 0.04676 0.0
H533 H 0.44142 0.62965 0.76998 0.0
H534 H 0.38061 0.66261 0.00824 0.0
H535 H 0.4064 0.65855 0.73159 0.0
H536 H 0.36743 0.74109 0.69947 0.0
H537 H 0.40005 0.70945 0.73818 0.0
H538 H 0.33526 0.65777 0.93997 0.0
H539 H 0.30216 0.68939 0.89994 0.0
C540 C 0.4141 0.63913 0.97782 0.0
C541 C 0.43149 0.6295 0.91137 0.0
C542 C 0.39369 0.65536 0.95593 0.0
C543 C 0.39071 0.66272 0.86696 0.0
C544 C 0.40825 0.65324 0.80065 0.0
C545 C 0.42823 0.63665 0.82267 0.0
C546 C 0.35999 0.72281 0.75141 0.0
C547 C 0.33217 0.71766 0.79638 0.0
C548 C 0.3787 0.70469 0.77348 0.0
C549 C 0.37023 0.68121 0.84225 0.0
C550 C 0.34236 0.67583 0.887 0.0
C551 C 0.3234 0.69375 0.86358 0.0
H552 H 0.13303 0.68857 0.81285 0.0
H553 H 0.1616 0.77411 0.68849 0.0
H554 H 0.1046 0.6852 0.70186 0.0
H555 H 0.13417 0.77037 0.57493 0.0
H556 H 0.06341 0.6787 0.48843 0.0
H557 H 0.06798 0.70763 0.5975 0.0
H558 H 0.15454 0.73099 0.47796 0.0
H559 H 0.15025 0.7011 0.37137 0.0
C560 C 0.13196 0.707 0.7648 0.0
C561 C 0.14943 0.73148 0.75849 0.0
C562 C 0.1157 0.70518 0.70141 0.0
C563 C 0.11749 0.72755 0.62985 0.0
C564 C 0.13234 0.75303 0.63001 0.0
C565 C 0.14798 0.75509 0.69494 0.0
C566 C 0.08303 0.6913 0.48226 0.0
C567 C 0.10664 0.68758 0.42256 0.0
C568 C 0.08556 0.70781 0.54466 0.0
C569 C 0.11156 0.72126 0.54605 0.0
C570 C 0.1342 0.72096 0.47741 0.0
C571 C 0.13184 0.70384 0.41659 0.0
H572 H 0.16345 0.37631 0.29375 0.0
H573 H 0.23744 0.43407 0.25935 0.0
H574 H 0.13535 0.4118 0.33007 0.0
H575 H 0.20928 0.46912 0.30109 0.0
H576 H 0.14685 0.53337 0.30358 0.0
H577 H 0.17737 0.50007 0.25886 0.0
H578 H 0.12321 0.43417 0.45049 0.0
H579 H 0.09263 0.46701 0.49247 0.0
C580 C 0.17379 0.3966 0.29331 0.0
C581 C 0.20282 0.4021 0.27405 0.0
C582 C 0.15763 0.41692 0.31566 0.0
C583 C 0.16998 0.44331 0.32013 0.0
C584 C 0.19898 0.44912 0.29826 0.0
C585 C 0.21517 0.42882 0.27535 0.0
C586 C 0.14174 0.51181 0.3367 0.0
C587 C 0.11723 0.50283 0.40106 0.0
C588 C 0.15919 0.49268 0.31109 0.0
C589 C 0.15255 0.46424 0.34981 0.0
C590 C 0.12865 0.45568 0.41709 0.0
C591 C 0.1112 0.47463 0.44193 0.0
H592 H 0.99932 0.05717 0.78174 0.0
H593 H 0.07725 1.02432 0.74528 0.0
H594 H 1.00071 0.05572 0.93835 0.0
H595 H 0.07929 1.02399 0.89978 0.0
H596 H 0.06225 1.00084 0.20196 0.0
H597 H 0.05961 1.00098 0.04705 0.0
H598 H 1.02385 0.0775 0.03229 0.0
H599 H 1.0254 0.07665 0.18758 0.0
C600 C 1.01682 0.04986 0.80702 0.0
C601 C 1.03808 0.04077 0.75133 0.0
C602 C 1.01774 0.04915 0.89663 0.0
C603 C 0.04012 0.03968 0.93202 0.0
C604 C 0.06146 1.03085 0.87566 0.0
C605 C 0.06037 1.03124 0.78668 0.0
C606 C 0.05391 1.01769 0.16536 0.0
C607 C 0.04403 1.03869 0.20694 0.0
C608 C 0.05247 1.01787 0.07645 0.0
C609 C 0.04144 0.03925 0.02693 0.0
C610 C 1.03193 0.06041 0.06859 0.0
C611 C 1.03305 0.06004 0.15758 0.0
H612 H 0.32941 0.79583 0.42675 0.0
H613 H 0.24341 0.76055 0.49823 0.0
H614 H 0.32843 0.79868 0.26973 0.0
H615 H 0.24188 0.7647 0.34127 0.0
H616 H 0.25426 0.75034 0.05941 0.0
H617 H 0.25581 0.74677 0.21534 0.0
H618 H 0.31235 0.82299 0.14971 0.0
H619 H 0.31188 0.82568 -0.00811 0.0
C620 C 0.31027 0.7887 0.40873 0.0
C621 C 0.28653 0.77781 0.47474 0.0
C622 C 0.3096 0.79062 0.31857 0.0
C623 C 0.28503 0.78212 0.29214 0.0
C624 C 0.26133 0.77103 0.35867 0.0
C625 C 0.26215 0.76867 0.44889 0.0
C626 C 0.26693 0.76647 0.07811 0.0
C627 C 0.28292 0.78835 0.01316 0.0
C628 C 0.26771 0.76449 0.168 0.0
C629 C 0.28415 0.78459 0.19586 0.0
C630 C 0.29981 0.80681 0.13086 0.0
C631 C 0.29937 0.80855 0.04038 0.0
H632 H 0.49491 1.00916 0.72217 0.0
H633 H 0.56971 0.06753 0.65371 0.0
H634 H 0.49743 1.00876 0.56429 0.0
H635 H 0.57306 0.06611 0.4978 0.0
H636 H 0.55855 0.0787 0.21593 0.0
H637 H 0.5544 0.08007 0.37306 0.0
H638 H 0.52218 0.99298 0.44337 0.0
H639 H 0.52508 0.9921 0.28625 0.0
C640 C 0.51187 1.02185 0.67349 0.0
C641 C 0.53198 1.03848 0.70047 0.0
C642 C 0.51351 1.02146 0.58301 0.0
C643 C 0.5355 1.0374 0.51778 0.0
C644 C 0.55551 0.054 0.54538 0.0
C645 C 0.55366 0.05469 0.63526 0.0
C646 C 0.55081 0.05982 0.26501 0.0
C647 C 0.5422 1.0353 0.23878 0.0
C648 C 0.54845 0.06054 0.3553 0.0
C649 C 0.53787 1.03662 0.42149 0.0
C650 C 0.52985 1.01195 0.39473 0.0
C651 C 0.53181 1.01135 0.30451 0.0
H652 H 0.32782 0.27412 0.93136 0.0
H653 H 0.25242 0.31154 0.94618 0.0
H654 H 0.32851 0.27251 0.77609 0.0
H655 H 0.25236 0.30884 0.7915 0.0
H656 H 0.27535 0.32625 0.48978 0.0
H657 H 0.27527 0.32838 0.64412 0.0
H658 H 0.30641 0.24942 0.68257 0.0
H659 H 0.30761 0.24795 0.52617 0.0
C660 C 0.31128 0.28188 0.90146 0.0
C661 C 0.29009 0.29304 0.9509 0.0
C662 C 0.31154 0.28073 0.81252 0.0
C663 C 0.29043 0.29039 0.77106 0.0
C664 C 0.26921 0.30159 0.82071 0.0
C665 C 0.26915 0.30307 0.90951 0.0
C666 C 0.28217 0.3093 0.53114 0.0
C667 C 0.29148 0.28689 0.49582 0.0
C668 C 0.28195 0.31044 0.62001 0.0
C669 C 0.2907 0.28903 0.67627 0.0
C670 C 0.29992 0.26651 0.64092 0.0
C671 C 0.30047 0.26554 0.55143 0.0
H672 H 0.76184 0.2445 0.00328 0.0
H673 H 0.81788 0.32099 0.92896 0.0
H674 H 0.7601 0.24623 0.84689 0.0
H675 H 0.8151 0.32355 0.77404 0.0
H676 H 0.82586 0.30787 0.49364 0.0
H677 H 0.82855 0.30478 0.64912 0.0
H678 H 0.74241 0.26954 0.72839 0.0
H679 H 0.74024 0.27136 0.57244 0.0
C680 C 0.77376 0.26168 0.95354 0.0
C681 C 0.79012 0.2825 0.97845 0.0
C682 C 0.77257 0.26286 0.86389 0.0
C683 C 0.78739 0.2851 0.79733 0.0
C684 C 0.80381 0.30582 0.82275 0.0
C685 C 0.80532 0.30441 0.91195 0.0
C686 C 0.80743 0.29964 0.54427 0.0
C687 C 0.78281 0.28991 0.5208 0.0
C688 C 0.80893 0.29793 0.63367 0.0
C689 C 0.7857 0.28687 0.70192 0.0
C690 C 0.76089 0.27765 0.67804 0.0
C691 C 0.75953 0.27896 0.58855 0.0
H692 H 0.7525 0.81077 0.44948 0.0
H693 H 0.82858 0.77451 0.43311 0.0
H694 H 0.75231 0.80793 0.29497 0.0
H695 H 0.82915 0.77281 0.27797 0.0
H696 H 0.80855 0.74788 0.02831 0.0
H697 H 0.80744 0.74942 0.18467 0.0
H698 H 0.77464 0.82753 0.14747 0.0
H699 H 0.77459 0.82529 -0.00665 0.0
C700 C 0.76936 0.80254 0.41246 0.0
C701 C 0.79052 0.79286 0.45338 0.0
C702 C 0.76935 0.80098 0.32376 0.0
C703 C 0.79071 0.79007 0.27372 0.0
C704 C 0.81206 0.78079 0.3147 0.0
C705 C 0.81187 0.782 0.40355 0.0
C706 C 0.80106 0.7653 0.05388 0.0
C707 C 0.79156 0.78636 -0.00129 0.0
C708 C 0.80055 0.7663 0.14333 0.0
C709 C 0.7909 0.78861 0.17902 0.0
C710 C 0.78165 0.80975 0.12316 0.0
C711 C 0.78181 0.80854 0.03439 0.0
H712 H 0.50452 0.55481 0.71171 0.0
H713 H 0.58213 0.52139 0.67474 0.0
H714 H 0.50218 0.55495 0.55758 0.0
H715 H 0.58046 0.52266 0.5184 0.0
H716 H 0.55517 0.50161 0.26998 0.0
H717 H 0.55702 0.50089 0.42507 0.0
H718 H 0.52164 0.57762 0.41008 0.0
H719 H 0.51868 0.57762 0.25556 0.0
C720 C 0.52128 0.54774 0.67026 0.0
C721 C 0.54356 0.53809 0.7054 0.0
C722 C 0.52002 0.54801 0.58147 0.0
C723 C 0.54117 0.53896 0.52504 0.0
C724 C 0.56356 0.5294 0.56017 0.0
C725 C 0.56465 0.5288 0.64962 0.0
C726 C 0.54765 0.51828 0.29994 0.0
C727 C 0.53669 0.53965 0.25064 0.0
C728 C 0.54895 0.51799 0.38878 0.0
C729 C 0.53964 0.53926 0.43032 0.0
C730 C 0.52862 0.56065 0.38084 0.0
C731 C 0.52699 0.56074 0.29212 0.0
H732 H 0.09323 0.57874 0.7013 0.0
H733 H 1.01889 0.51976 0.76864 0.0
H734 H 0.09057 0.57887 0.85945 0.0
H735 H 1.01541 0.52089 0.92474 0.0
H736 H 1.02992 0.50789 0.20674 0.0
H737 H 1.03419 0.50686 0.04929 0.0
H738 H 0.06545 0.59418 -0.01904 0.0
H739 H 0.06241 0.59475 0.13829 0.0
C740 C 0.07634 0.56586 0.74977 0.0
C741 C 0.05641 0.54914 0.72239 0.0
C742 C 0.07462 0.56609 0.84041 0.0
C743 C 0.05272 0.54988 0.90537 0.0
C744 C 1.03288 0.5332 0.87736 0.0
C745 C 1.03481 0.53268 0.78735 0.0
C746 C 1.03747 0.52689 0.15802 0.0
C747 C 0.04577 0.55139 0.18485 0.0
C748 C 0.0399 0.52636 0.06756 0.0
C749 C 0.05027 0.55044 0.00183 0.0
C750 C 0.05797 0.57509 0.02921 0.0
C751 C 0.05592 0.5755 0.11957 0.0
loop_
_geom_bond_atom_site_label_1
_geom_bond_atom_site_label_2
_geom_bond_distance
_geom_bond_site_symmetry_2
_ccdc_geom_bond_type
C0 O16 1.251 1_645 S
C0 O18 1.254 . S
N1 C2 1.333 . S
N1 C6 1.307 . S
N1 Zn7 2.020 . S
C2 N1 1.333 . S
C2 C3 1.379 . S
C2 H20 0.952 . S
C3 C2 1.379 . S
C3 C4 1.390 . S
C3 H30 0.949 . S
C4 C3 1.390 . S
C4 C5 1.357 . S
C5 C4 1.357 . S
C5 C6 1.370 . S
C5 H31 0.950 . S
C6 N1 1.307 . S
C6 C5 1.370 . S
C6 H24 0.948 . S
Zn7 N1 2.020 . S
Zn7 O16 2.039 . S
Zn7 O22 2.034 1_565 S
Zn7 O26 2.025 . S
Zn7 O28 2.024 1_455 S
C8 O27 1.246 . S
C8 O28 1.249 . S
N9 C10 1.307 . S
N9 C11 1.333 . S
N9 Zn15 2.020 . S
C10 N9 1.307 . S
C10 C14 1.370 . S
C10 H21 0.948 . S
C11 N9 1.333 . S
C11 C12 1.379 . S
C11 H19 0.952 . S
C12 C11 1.379 . S
C12 C13 1.390 . S
C12 H32 0.949 . S
C13 C12 1.390 . S
C13 C14 1.357 . S
C14 C10 1.370 . S
C14 C13 1.357 . S
C14 H33 0.950 . S
Zn15 N9 2.020 . S
Zn15 O18 2.025 . S
Zn15 O23 2.024 1_655 S
Zn15 O25 2.039 . S
Zn15 O27 2.034 1_545 S
O16 C0 1.251 1_465 S
O16 Zn7 2.039 . S
C17 O22 1.246 . S
C17 O23 1.249 . S
O18 C0 1.254 . S
O18 Zn15 2.025 . S
H19 C11 0.952 . S
H20 C2 0.952 . S
H21 C10 0.948 . S
O22 Zn7 2.034 1_545 S
O22 C17 1.246 . S
O23 Zn15 2.024 1_455 S
O23 C17 1.249 . S
H24 C6 0.948 . S
O25 Zn15 2.039 . S
O25 C29 1.251 1_645 S
O26 Zn7 2.025 . S
O26 C29 1.254 . S
O27 C8 1.246 . S
O27 Zn15 2.034 1_565 S
O28 Zn7 2.024 1_655 S
O28 C8 1.249 . S
C29 O25 1.251 1_465 S
C29 O26 1.254 . S
H30 C3 0.949 . S
H31 C5 0.950 . S
H32 C12 0.949 . S
H33 C14 0.950 . S
C34 O50 1.251 . S
C34 O52 1.254 . S
N35 C36 1.333 . S
N35 C40 1.307 . S
N35 Zn41 2.020 . S
C36 N35 1.333 . S
C36 C37 1.379 . S
C36 H54 0.952 . S
C37 C36 1.379 . S
C37 C38 1.390 . S
C37 H64 0.949 . S
C38 C37 1.390 . S
C38 C39 1.357 . S
C39 C38 1.357 . S
C39 C40 1.370 . S
C39 H65 0.950 . S
C40 N35 1.307 . S
C40 C39 1.370 . S
C40 H58 0.948 . S
Zn41 N35 2.020 . S
Zn41 O50 2.039 . S
Zn41 O56 2.034 . S
Zn41 O60 2.025 . S
Zn41 O62 2.024 . S
C42 O61 1.246 . S
C42 O62 1.249 . S
N43 C44 1.307 . S
N43 C45 1.333 . S
N43 Zn49 2.020 . S
C44 N43 1.307 . S
C44 C48 1.370 . S
C44 H55 0.948 . S
C45 N43 1.333 . S
C45 C46 1.379 . S
C45 H53 0.952 . S
C46 C45 1.379 . S
C46 C47 1.390 . S
C46 H66 0.949 . S
C47 C46 1.390 . S
C47 C48 1.357 . S
C48 C44 1.370 . S
C48 C47 1.357 . S
C48 H67 0.950 . S
Zn49 N43 2.020 . S
Zn49 O52 2.025 . S
Zn49 O57 2.024 . S
Zn49 O59 2.039 . S
Zn49 O61 2.034 . S
O50 C34 1.251 . S
O50 Zn41 2.039 . S
C51 O56 1.246 . S
C51 O57 1.249 . S
O52 C34 1.254 . S
O52 Zn49 2.025 . S
H53 C45 0.952 . S
H54 C36 0.952 . S
H55 C44 0.948 . S
O56 Zn41 2.034 . S
O56 C51 1.246 . S
O57 Zn49 2.024 . S
O57 C51 1.249 . S
H58 C40 0.948 . S
O59 Zn49 2.039 . S
O59 C63 1.251 . S
O60 Zn41 2.025 . S
O60 C63 1.254 . S
O61 C42 1.246 . S
O61 Zn49 2.034 . S
O62 Zn41 2.024 . S
O62 C42 1.249 . S
C63 O59 1.251 . S
C63 O60 1.254 . S
H64 C37 0.949 . S
H65 C39 0.950 . S
H66 C46 0.949 . S
H67 C48 0.950 . S
C68 O84 1.251 1_545 S
C68 O86 1.254 . S
N69 C70 1.333 1_554 S
N69 C74 1.307 . S
N69 Zn75 2.020 . S
C70 N69 1.333 1_556 S
C70 C71 1.379 . S
C70 H88 0.952 . S
C71 C70 1.379 . S
C71 C72 1.390 . S
C71 H98 0.949 . S
C72 C71 1.390 . S
C72 C73 1.357 1_556 S
C73 C72 1.357 1_554 S
C73 C74 1.370 . S
C73 H99 0.950 . S
C74 N69 1.307 . S
C74 C73 1.370 . S
C74 H92 0.948 . S
Zn75 N69 2.020 . S
Zn75 O84 2.039 1_554 S
Zn75 O90 2.034 1_565 S
Zn75 O94 2.025 . S
Zn75 O96 2.024 1_554 S
C76 O95 1.246 . S
C76 O96 1.249 . S
N77 C78 1.307 . S
N77 C79 1.333 1_556 S
N77 Zn83 2.020 . S
C78 N77 1.307 . S
C78 C82 1.370 . S
C78 H89 0.948 . S
C79 N77 1.333 1_554 S
C79 C80 1.379 . S
C79 H87 0.952 . S
C80 C79 1.379 . S
C80 C81 1.390 . S
C80 H100 0.949 . S
C81 C80 1.390 . S
C81 C82 1.357 1_554 S
C82 C78 1.370 . S
C82 C81 1.357 1_556 S
C82 H101 0.950 . S
Zn83 N77 2.020 . S
Zn83 O86 2.025 . S
Zn83 O91 2.024 1_556 S
Zn83 O93 2.039 1_556 S
Zn83 O95 2.034 1_545 S
O84 C68 1.251 1_565 S
O84 Zn75 2.039 1_556 S
C85 O90 1.246 . S
C85 O91 1.249 . S
O86 C68 1.254 . S
O86 Zn83 2.025 . S
H87 C79 0.952 . S
H88 C70 0.952 . S
H89 C78 0.948 . S
O90 Zn75 2.034 1_545 S
O90 C85 1.246 . S
O91 Zn83 2.024 1_554 S
O91 C85 1.249 . S
H92 C74 0.948 . S
O93 Zn83 2.039 1_554 S
O93 C97 1.251 1_545 S
O94 Zn75 2.025 . S
O94 C97 1.254 . S
O95 C76 1.246 . S
O95 Zn83 2.034 1_565 S
O96 Zn75 2.024 1_556 S
O96 C76 1.249 . S
C97 O93 1.251 1_565 S
C97 O94 1.254 . S
H98 C71 0.949 . S
H99 C73 0.950 . S
H100 C80 0.949 . S
H101 C82 0.950 . S
C102 O118 1.251 . S
C102 O120 1.254 . S
N103 C104 1.333 . S
N103 C108 1.307 . S
N103 Zn109 2.020 . S
C104 N103 1.333 . S
C104 C105 1.379 . S
C104 H122 0.952 . S
C105 C104 1.379 . S
C105 C106 1.390 . S
C105 H132 0.949 . S
C106 C105 1.390 . S
C106 C107 1.357 . S
C107 C106 1.357 . S
C107 C108 1.370 . S
C107 H133 0.950 . S
C108 N103 1.307 . S
C108 C107 1.370 . S
C108 H126 0.948 . S
Zn109 N103 2.020 . S
Zn109 O118 2.039 . S
Zn109 O124 2.034 . S
Zn109 O128 2.025 . S
Zn109 O130 2.024 . S
C110 O129 1.246 . S
C110 O130 1.249 . S
N111 C112 1.307 . S
N111 C113 1.333 . S
N111 Zn117 2.020 . S
C112 N111 1.307 . S
C112 C116 1.370 . S
C112 H123 0.948 . S
C113 N111 1.333 . S
C113 C114 1.379 . S
C113 H121 0.952 . S
C114 C113 1.379 . S
C114 C115 1.390 . S
C114 H134 0.949 . S
C115 C114 1.390 . S
C115 C116 1.357 . S
C116 C112 1.370 . S
C116 C115 1.357 . S
C116 H135 0.950 . S
Zn117 N111 2.020 . S
Zn117 O120 2.025 . S
Zn117 O125 2.024 . S
Zn117 O127 2.039 . S
Zn117 O129 2.034 . S
O118 C102 1.251 . S
O118 Zn109 2.039 . S
C119 O124 1.246 . S
C119 O125 1.249 . S
O120 C102 1.254 . S
O120 Zn117 2.025 . S
H121 C113 0.952 . S
H122 C104 0.952 . S
H123 C112 0.948 . S
O124 Zn109 2.034 . S
O124 C119 1.246 . S
O125 Zn117 2.024 . S
O125 C119 1.249 . S
H126 C108 0.948 . S
O127 Zn117 2.039 . S
O127 C131 1.251 . S
O128 Zn109 2.025 . S
O128 C131 1.254 . S
O129 C110 1.246 . S
O129 Zn117 2.034 . S
O130 Zn109 2.024 . S
O130 C110 1.249 . S
C131 O127 1.251 . S
C131 O128 1.254 . S
H132 C105 0.949 . S
H133 C107 0.950 . S
H134 C114 0.949 . S
H135 C116 0.950 . S
C136 O152 1.251 . S
C136 O154 1.254 . S
N137 C138 1.333 . S
N137 C142 1.307 . S
N137 Zn143 2.020 . S
C138 N137 1.333 . S
C138 C139 1.379 . S
C138 H156 0.952 . S
C139 C138 1.379 . S
C139 C140 1.390 . S
C139 H166 0.949 . S
C140 C139 1.390 . S
C140 C141 1.357 . S
C141 C140 1.357 . S
C141 C142 1.370 . S
C141 H167 0.950 . S
C142 N137 1.307 . S
C142 C141 1.370 . S
C142 H160 0.948 . S
Zn143 N137 2.020 . S
Zn143 O152 2.039 . S
Zn143 O158 2.034 . S
Zn143 O162 2.025 . S
Zn143 O164 2.024 . S
C144 O163 1.246 . S
C144 O164 1.249 . S
N145 C146 1.307 . S
N145 C147 1.333 . S
N145 Zn151 2.020 . S
C146 N145 1.307 . S
C146 C150 1.370 . S
C146 H157 0.948 . S
C147 N145 1.333 . S
C147 C148 1.379 . S
C147 H155 0.952 . S
C148 C147 1.379 . S
C148 C149 1.390 . S
C148 H168 0.949 . S
C149 C148 1.390 . S
C149 C150 1.357 . S
C150 C146 1.370 . S
C150 C149 1.357 . S
C150 H169 0.950 . S
Zn151 N145 2.020 . S
Zn151 O154 2.025 . S
Zn151 O159 2.024 . S
Zn151 O161 2.039 . S
Zn151 O163 2.034 . S
O152 C136 1.251 . S
O152 Zn143 2.039 . S
C153 O158 1.246 . S
C153 O159 1.249 . S
O154 C136 1.254 . S
O154 Zn151 2.025 . S
H155 C147 0.952 . S
H156 C138 0.952 . S
H157 C146 0.948 . S
O158 Zn143 2.034 . S
O158 C153 1.246 . S
O159 Zn151 2.024 . S
O159 C153 1.249 . S
H160 C142 0.948 . S
O161 Zn151 2.039 . S
O161 C165 1.251 . S
O162 Zn143 2.025 . S
O162 C165 1.254 . S
O163 C144 1.246 . S
O163 Zn151 2.034 . S
O164 Zn143 2.024 . S
O164 C144 1.249 . S
C165 O161 1.251 . S
C165 O162 1.254 . S
H166 C139 0.949 . S
H167 C141 0.950 . S
H168 C148 0.949 . S
H169 C150 0.950 . S
C170 O186 1.251 . S
C170 O188 1.254 . S
N171 C172 1.333 . S
N171 C176 1.307 . S
N171 Zn177 2.020 . S
C172 N171 1.333 . S
C172 C173 1.379 . S
C172 H190 0.952 . S
C173 C172 1.379 . S
C173 C174 1.390 . S
C173 H200 0.949 . S
C174 C173 1.390 . S
C174 C175 1.357 . S
C175 C174 1.357 . S
C175 C176 1.370 . S
C175 H201 0.950 . S
C176 N171 1.307 . S
C176 C175 1.370 . S
C176 H194 0.948 . S
Zn177 N171 2.020 . S
Zn177 O186 2.039 . S
Zn177 O192 2.034 . S
Zn177 O196 2.025 . S
Zn177 O198 2.024 . S
C178 O197 1.246 . S
C178 O198 1.249 . S
N179 C180 1.307 . S
N179 C181 1.333 . S
N179 Zn185 2.020 . S
C180 N179 1.307 . S
C180 C184 1.370 . S
C180 H191 0.948 . S
C181 N179 1.333 . S
C181 C182 1.379 . S
C181 H189 0.952 . S
C182 C181 1.379 . S
C182 C183 1.390 . S
C182 H202 0.949 . S
C183 C182 1.390 . S
C183 C184 1.357 . S
C184 C180 1.370 . S
C184 C183 1.357 . S
C184 H203 0.950 . S
Zn185 N179 2.020 . S
Zn185 O188 2.025 . S
Zn185 O193 2.024 . S
Zn185 O195 2.039 . S
Zn185 O197 2.034 . S
O186 C170 1.251 . S
O186 Zn177 2.039 . S
C187 O192 1.246 . S
C187 O193 1.249 . S
O188 C170 1.254 . S
O188 Zn185 2.025 . S
H189 C181 0.952 . S
H190 C172 0.952 . S
H191 C180 0.948 . S
O192 Zn177 2.034 . S
O192 C187 1.246 . S
O193 Zn185 2.024 . S
O193 C187 1.249 . S
H194 C176 0.948 . S
O195 Zn185 2.039 . S
O195 C199 1.251 . S
O196 Zn177 2.025 . S
O196 C199 1.254 . S
O197 C178 1.246 . S
O197 Zn185 2.034 . S
O198 Zn177 2.024 . S
O198 C178 1.249 . S
C199 O195 1.251 . S
C199 O196 1.254 . S
H200 C173 0.949 . S
H201 C175 0.950 . S
H202 C182 0.949 . S
H203 C184 0.950 . S
C204 O220 1.251 . S
C204 O222 1.254 . S
N205 C206 1.333 . S
N205 C210 1.307 1_554 S
N205 Zn211 2.020 . S
C206 N205 1.333 . S
C206 C207 1.379 . S
C206 H224 0.952 . S
C207 C206 1.379 . S
C207 C208 1.390 . S
C207 H234 0.949 . S
C208 C207 1.390 . S
C208 C209 1.357 1_554 S
C209 C208 1.357 1_556 S
C209 C210 1.370 . S
C209 H235 0.950 . S
C210 N205 1.307 1_556 S
C210 C209 1.370 . S
C210 H228 0.948 . S
Zn211 N205 2.020 . S
Zn211 O220 2.039 . S
Zn211 O226 2.034 1_554 S
Zn211 O230 2.025 1_554 S
Zn211 O232 2.024 . S
C212 O231 1.246 . S
C212 O232 1.249 . S
N213 C214 1.307 1_556 S
N213 C215 1.333 . S
N213 Zn219 2.020 . S
C214 N213 1.307 1_554 S
C214 C218 1.370 . S
C214 H225 0.948 . S
C215 N213 1.333 . S
C215 C216 1.379 . S
C215 H223 0.952 . S
C216 C215 1.379 . S
C216 C217 1.390 . S
C216 H236 0.949 . S
C217 C216 1.390 . S
C217 C218 1.357 1_556 S
C218 C214 1.370 . S
C218 C217 1.357 1_554 S
C218 H237 0.950 . S
Zn219 N213 2.020 . S
Zn219 O222 2.025 1_556 S
Zn219 O227 2.024 . S
Zn219 O229 2.039 . S
Zn219 O231 2.034 1_556 S
O220 C204 1.251 . S
O220 Zn211 2.039 . S
C221 O226 1.246 . S
C221 O227 1.249 . S
O222 C204 1.254 . S
O222 Zn219 2.025 1_554 S
H223 C215 0.952 . S
H224 C206 0.952 . S
H225 C214 0.948 . S
O226 Zn211 2.034 1_556 S
O226 C221 1.246 . S
O227 Zn219 2.024 . S
O227 C221 1.249 . S
H228 C210 0.948 . S
O229 Zn219 2.039 . S
O229 C233 1.251 . S
O230 Zn211 2.025 1_556 S
O230 C233 1.254 . S
O231 C212 1.246 . S
O231 Zn219 2.034 1_554 S
O232 Zn211 2.024 . S
O232 C212 1.249 . S
C233 O229 1.251 . S
C233 O230 1.254 . S
H234 C207 0.949 . S
H235 C209 0.950 . S
H236 C216 0.949 . S
H237 C218 0.950 . S
C238 O254 1.251 1_455 S
C238 O256 1.254 . S
N239 C240 1.333 . S
N239 C244 1.307 . S
N239 Zn245 2.020 . S
C240 N239 1.333 . S
C240 C241 1.379 . S
C240 H258 0.952 . S
C241 C240 1.379 . S
C241 C242 1.390 . S
C241 H268 0.949 . S
C242 C241 1.390 . S
C242 C243 1.357 . S
C243 C242 1.357 . S
C243 C244 1.370 . S
C243 H269 0.950 . S
C244 N239 1.307 . S
C244 C243 1.370 . S
C244 H262 0.948 . S
Zn245 N239 2.020 . S
Zn245 O254 2.039 . S
Zn245 O260 2.034 . S
Zn245 O264 2.025 . S
Zn245 O266 2.024 1_655 S
C246 O265 1.246 . S
C246 O266 1.249 . S
N247 C248 1.307 . S
N247 C249 1.333 . S
N247 Zn253 2.020 . S
C248 N247 1.307 . S
C248 C252 1.370 . S
C248 H259 0.948 . S
C249 N247 1.333 . S
C249 C250 1.379 . S
C249 H257 0.952 . S
C250 C249 1.379 . S
C250 C251 1.390 . S
C250 H270 0.949 . S
C251 C250 1.390 . S
C251 C252 1.357 . S
C252 C248 1.370 . S
C252 C251 1.357 . S
C252 H271 0.950 . S
Zn253 N247 2.020 . S
Zn253 O256 2.025 . S
Zn253 O261 2.024 1_455 S
Zn253 O263 2.039 . S
Zn253 O265 2.034 . S
O254 C238 1.251 1_655 S
O254 Zn245 2.039 . S
C255 O260 1.246 . S
C255 O261 1.249 . S
O256 C238 1.254 . S
O256 Zn253 2.025 . S
H257 C249 0.952 . S
H258 C240 0.952 . S
H259 C248 0.948 . S
O260 Zn245 2.034 . S
O260 C255 1.246 . S
O261 Zn253 2.024 1_655 S
O261 C255 1.249 . S
H262 C244 0.948 . S
O263 Zn253 2.039 . S
O263 C267 1.251 1_455 S
O264 Zn245 2.025 . S
O264 C267 1.254 . S
O265 C246 1.246 . S
O265 Zn253 2.034 . S
O266 Zn245 2.024 1_455 S
O266 C246 1.249 . S
C267 O263 1.251 1_655 S
C267 O264 1.254 . S
H268 C241 0.949 . S
H269 C243 0.950 . S
H270 C250 0.949 . S
H271 C252 0.950 . S
H272 C280 0.950 . S
H273 C285 0.950 . S
H274 C282 0.950 . S
H275 C284 0.950 . S
H276 C286 0.950 . S
H277 C288 0.950 . S
H278 C290 0.950 . S
H279 C291 0.950 . S
C280 H272 0.950 . S
C280 C281 1.386 . S
C280 C282 1.391 . S
C281 C280 1.386 . S
C281 C285 1.393 . S
C282 H274 0.950 . S
C282 C280 1.391 . S
C282 C283 1.400 . S
C283 C282 1.400 . S
C283 C284 1.398 . S
C283 C289 1.491 . S
C284 H275 0.950 . S
C284 C283 1.398 . S
C284 C285 1.391 . S
C285 H273 0.950 . S
C285 C281 1.393 . S
C285 C284 1.391 . S
C286 H276 0.950 . S
C286 C287 1.386 . S
C286 C288 1.391 . S
C287 C286 1.386 . S
C287 C291 1.393 . S
C288 H277 0.950 . S
C288 C286 1.391 . S
C288 C289 1.400 . S
C289 C283 1.491 . S
C289 C288 1.400 . S
C289 C290 1.398 . S
C290 H278 0.950 . S
C290 C289 1.398 . S
C290 C291 1.391 . S
C291 H279 0.950 . S
C291 C287 1.393 . S
C291 C290 1.391 . S
H292 C300 0.950 . S
H293 C305 0.950 . S
H294 C302 0.950 . S
H295 C304 0.950 . S
H296 C306 0.950 . S
H297 C308 0.950 . S
H298 C310 0.950 . S
H299 C311 0.950 . S
C300 H292 0.950 . S
C300 C301 1.386 . S
C300 C302 1.391 . S
C301 C300 1.386 . S
C301 C305 1.393 . S
C302 H294 0.950 . S
C302 C300 1.391 . S
C302 C303 1.400 . S
C303 C302 1.400 . S
C303 C304 1.398 . S
C303 C309 1.491 . S
C304 H295 0.950 . S
C304 C303 1.398 . S
C304 C305 1.391 . S
C305 H293 0.950 . S
C305 C301 1.393 . S
C305 C304 1.391 . S
C306 H296 0.950 . S
C306 C307 1.386 . S
C306 C308 1.391 . S
C307 C306 1.386 . S
C307 C311 1.393 . S
C308 H297 0.950 . S
C308 C306 1.391 . S
C308 C309 1.400 . S
C309 C303 1.491 . S
C309 C308 1.400 . S
C309 C310 1.398 . S
C310 H298 0.950 . S
C310 C309 1.398 . S
C310 C311 1.391 . S
C311 H299 0.950 . S
C311 C307 1.393 . S
C311 C310 1.391 . S
H312 C320 0.950 . S
H313 C325 0.950 . S
H314 C322 0.950 . S
H315 C324 0.950 . S
H316 C326 0.950 . S
H317 C328 0.950 . S
H318 C330 0.950 1_554 S
H319 C331 0.950 . S
C320 H312 0.950 . S
C320 C321 1.386 . S
C320 C322 1.391 . S
C321 C320 1.386 . S
C321 C325 1.393 . S
C322 H314 0.950 . S
C322 C320 1.391 . S
C322 C323 1.400 . S
C323 C322 1.400 . S
C323 C324 1.398 . S
C323 C329 1.491 . S
C324 H315 0.950 . S
C324 C323 1.398 . S
C324 C325 1.391 . S
C325 H313 0.950 . S
C325 C321 1.393 . S
C325 C324 1.391 . S
C326 H316 0.950 . S
C326 C327 1.386 . S
C326 C328 1.391 . S
C327 C326 1.386 . S
C327 C331 1.393 1_556 S
C328 H317 0.950 . S
C328 C326 1.391 . S
C328 C329 1.400 . S
C329 C323 1.491 . S
C329 C328 1.400 . S
C329 C330 1.398 . S
C330 H318 0.950 1_556 S
C330 C329 1.398 . S
C330 C331 1.391 1_556 S
C331 H319 0.950 . S
C331 C327 1.393 1_554 S
C331 C330 1.391 1_554 S
H332 C340 0.950 . S
H333 C345 0.950 . S
H334 C342 0.950 . S
H335 C344 0.950 . S
H336 C346 0.950 . S
H337 C348 0.950 . S
H338 C350 0.950 . S
H339 C351 0.950 . S
C340 H332 0.950 . S
C340 C341 1.386 . S
C340 C342 1.391 . S
C341 C340 1.386 . S
C341 C345 1.393 . S
C342 H334 0.950 . S
C342 C340 1.391 . S
C342 C343 1.400 . S
C343 C342 1.400 . S
C343 C344 1.398 . S
C343 C349 1.491 . S
C344 H335 0.950 . S
C344 C343 1.398 . S
C344 C345 1.391 . S
C345 H333 0.950 . S
C345 C341 1.393 . S
C345 C344 1.391 . S
C346 H336 0.950 . S
C346 C347 1.386 . S
C346 C348 1.391 . S
C347 C346 1.386 . S
C347 C351 1.393 . S
C348 H337 0.950 . S
C348 C346 1.391 . S
C348 C349 1.400 . S
C349 C343 1.491 . S
C349 C348 1.400 . S
C349 C350 1.398 . S
C350 H338 0.950 . S
C350 C349 1.398 . S
C350 C351 1.391 . S
C351 H339 0.950 . S
C351 C347 1.393 . S
C351 C350 1.391 . S
H352 C360 0.950 . S
H353 C365 0.950 . S
H354 C362 0.950 . S
H355 C364 0.950 . S
H356 C366 0.950 . S
H357 C368 0.950 . S
H358 C370 0.950 . S
H359 C371 0.950 . S
C360 H352 0.950 . S
C360 C361 1.386 . S
C360 C362 1.391 . S
C361 C360 1.386 . S
C361 C365 1.393 . S
C362 H354 0.950 . S
C362 C360 1.391 . S
C362 C363 1.400 . S
C363 C362 1.400 . S
C363 C364 1.398 . S
C363 C369 1.491 . S
C364 H355 0.950 . S
C364 C363 1.398 . S
C364 C365 1.391 . S
C365 H353 0.950 . S
C365 C361 1.393 . S
C365 C364 1.391 . S
C366 H356 0.950 . S
C366 C367 1.386 . S
C366 C368 1.391 . S
C367 C366 1.386 . S
C367 C371 1.393 . S
C368 H357 0.950 . S
C368 C366 1.391 . S
C368 C369 1.400 . S
C369 C363 1.491 . S
C369 C368 1.400 . S
C369 C370 1.398 . S
C370 H358 0.950 . S
C370 C369 1.398 . S
C370 C371 1.391 . S
C371 H359 0.950 . S
C371 C367 1.393 . S
C371 C370 1.391 . S
H372 C380 0.950 . S
H373 C385 0.950 . S
H374 C382 0.950 . S
H375 C384 0.950 . S
H376 C386 0.950 . S
H377 C388 0.950 . S
H378 C390 0.950 . S
H379 C391 0.950 . S
C380 H372 0.950 . S
C380 C381 1.386 . S
C380 C382 1.391 . S
C381 C380 1.386 . S
C381 C385 1.393 . S
C382 H374 0.950 . S
C382 C380 1.391 . S
C382 C383 1.400 . S
C383 C382 1.400 . S
C383 C384 1.398 . S
C383 C389 1.491 . S
C384 H375 0.950 . S
C384 C383 1.398 . S
C384 C385 1.391 . S
C385 H373 0.950 . S
C385 C381 1.393 . S
C385 C384 1.391 . S
C386 H376 0.950 . S
C386 C387 1.386 . S
C386 C388 1.391 . S
C387 C386 1.386 . S
C387 C391 1.393 . S
C388 H377 0.950 . S
C388 C386 1.391 . S
C388 C389 1.400 . S
C389 C383 1.491 . S
C389 C388 1.400 . S
C389 C390 1.398 . S
C390 H378 0.950 . S
C390 C389 1.398 . S
C390 C391 1.391 . S
C391 H379 0.950 . S
C391 C387 1.393 . S
C391 C390 1.391 . S
H392 C400 0.950 . S
H393 C405 0.950 . S
H394 C402 0.950 . S
H395 C404 0.950 . S
H396 C406 0.950 1_556 S
H397 C408 0.950 . S
H398 C410 0.950 . S
H399 C411 0.950 . S
C400 H392 0.950 . S
C400 C401 1.386 . S
C400 C402 1.391 . S
C401 C400 1.386 . S
C401 C405 1.393 . S
C402 H394 0.950 . S
C402 C400 1.391 . S
C402 C403 1.400 . S
C403 C402 1.400 . S
C403 C404 1.398 . S
C403 C409 1.491 . S
C404 H395 0.950 . S
C404 C403 1.398 . S
C404 C405 1.391 . S
C405 H393 0.950 . S
C405 C401 1.393 . S
C405 C404 1.391 . S
C406 H396 0.950 1_554 S
C406 C407 1.386 . S
C406 C408 1.391 . S
C407 C406 1.386 . S
C407 C411 1.393 . S
C408 H397 0.950 . S
C408 C406 1.391 . S
C408 C409 1.400 . S
C409 C403 1.491 . S
C409 C408 1.400 . S
C409 C410 1.398 . S
C410 H398 0.950 . S
C410 C409 1.398 . S
C410 C411 1.391 . S
C411 H399 0.950 . S
C411 C407 1.393 . S
C411 C410 1.391 . S
H412 C420 0.950 . S
H413 C425 0.950 . S
H414 C422 0.950 . S
H415 C424 0.950 . S
H416 C426 0.950 . S
H417 C428 0.950 . S
H418 C430 0.950 . S
H419 C431 0.950 1_554 S
C420 H412 0.950 . S
C420 C421 1.386 . S
C420 C422 1.391 . S
C421 C420 1.386 . S
C421 C425 1.393 . S
C422 H414 0.950 . S
C422 C420 1.391 . S
C422 C423 1.400 . S
C423 C422 1.400 . S
C423 C424 1.398 . S
C423 C429 1.491 . S
C424 H415 0.950 . S
C424 C423 1.398 . S
C424 C425 1.391 . S
C425 H413 0.950 . S
C425 C421 1.393 . S
C425 C424 1.391 . S
C426 H416 0.950 . S
C426 C427 1.386 . S
C426 C428 1.391 . S
C427 C426 1.386 . S
C427 C431 1.393 . S
C428 H417 0.950 . S
C428 C426 1.391 . S
C428 C429 1.400 . S
C429 C423 1.491 . S
C429 C428 1.400 . S
C429 C430 1.398 . S
C430 H418 0.950 . S
C430 C429 1.398 . S
C430 C431 1.391 . S
C431 H419 0.950 1_556 S
C431 C427 1.393 . S
C431 C430 1.391 . S
H432 C440 0.950 . S
H433 C445 0.950 1_554 S
H434 C442 0.950 . S
H435 C444 0.950 1_554 S
H436 C446 0.950 . S
H437 C448 0.939 1_554 S
H438 C450 0.950 . S
H439 C451 0.950 . S
C440 H432 0.950 . S
C440 C441 1.386 . S
C440 C442 1.391 . S
C441 C440 1.386 . S
C441 C445 1.393 . S
C442 H434 0.950 . S
C442 C440 1.391 . S
C442 C443 1.400 . S
C443 C442 1.400 . S
C443 C444 1.398 . S
C443 C449 1.491 . S
C444 H435 0.950 1_556 S
C444 C443 1.398 . S
C444 C445 1.391 . S
C445 H433 0.950 1_556 S
C445 C441 1.393 . S
C445 C444 1.391 . S
C446 H436 0.950 . S
C446 C447 1.386 . S
C446 C448 1.391 . S
C447 C446 1.386 . S
C447 C451 1.393 . S
C448 H437 0.939 1_556 S
C448 C446 1.391 . S
C448 C449 1.400 . S
C449 C443 1.491 . S
C449 C448 1.400 . S
C449 C450 1.398 . S
C450 H438 0.950 . S
C450 C449 1.398 . S
C450 C451 1.391 . S
C451 H439 0.950 . S
C451 C447 1.393 . S
C451 C450 1.391 . S
H452 C460 0.950 . S
H453 C465 0.950 . S
H454 C462 0.950 . S
H455 C464 0.950 . S
H456 C466 0.950 . S
H457 C468 0.950 . S
H458 C470 0.950 . S
H459 C471 0.950 . S
C460 H452 0.950 . S
C460 C461 1.386 . S
C460 C462 1.391 . S
C461 C460 1.386 . S
C461 C465 1.393 . S
C462 H454 0.950 . S
C462 C460 1.391 . S
C462 C463 1.400 . S
C463 C462 1.400 . S
C463 C464 1.398 . S
C463 C469 1.491 . S
C464 H455 0.950 . S
C464 C463 1.398 . S
C464 C465 1.391 . S
C465 H453 0.950 . S
C465 C461 1.393 . S
C465 C464 1.391 . S
C466 H456 0.950 . S
C466 C467 1.386 . S
C466 C468 1.391 . S
C467 C466 1.386 . S
C467 C471 1.393 . S
C468 H457 0.950 . S
C468 C466 1.391 . S
C468 C469 1.400 . S
C469 C463 1.491 . S
C469 C468 1.400 . S
C469 C470 1.398 . S
C470 H458 0.950 . S
C470 C469 1.398 . S
C470 C471 1.391 . S
C471 H459 0.950 . S
C471 C467 1.393 . S
C471 C470 1.391 . S
H472 C480 0.950 . S
H473 C485 0.950 . S
H474 C482 0.950 . S
H475 C484 0.950 . S
H476 C486 0.950 . S
H477 C488 0.950 . S
H478 C490 0.950 . S
H479 C491 0.950 . S
C480 H472 0.950 . S
C480 C481 1.386 . S
C480 C482 1.391 . S
C481 C480 1.386 . S
C481 C485 1.393 . S
C482 H474 0.950 . S
C482 C480 1.391 . S
C482 C483 1.400 . S
C483 C482 1.400 . S
C483 C484 1.398 . S
C483 C489 1.491 . S
C484 H475 0.950 . S
C484 C483 1.398 . S
C484 C485 1.391 . S
C485 H473 0.950 . S
C485 C481 1.393 . S
C485 C484 1.391 . S
C486 H476 0.950 . S
C486 C487 1.386 . S
C486 C488 1.391 . S
C487 C486 1.386 . S
C487 C491 1.393 . S
C488 H477 0.950 . S
C488 C486 1.391 . S
C488 C489 1.400 . S
C489 C483 1.491 . S
C489 C488 1.400 . S
C489 C490 1.398 . S
C490 H478 0.950 . S
C490 C489 1.398 . S
C490 C491 1.391 . S
C491 H479 0.950 . S
C491 C487 1.393 . S
C491 C490 1.391 . S
H492 C500 0.950 . S
H493 C505 0.950 . S
H494 C502 0.950 . S
H495 C504 0.950 . S
H496 C506 0.950 . S
H497 C508 0.950 . S
H498 C510 0.950 . S
H499 C511 0.950 . S
C500 H492 0.950 . S
C500 C501 1.386 . S
C500 C502 1.391 . S
C501 C500 1.386 . S
C501 C505 1.393 . S
C502 H494 0.950 . S
C502 C500 1.391 . S
C502 C503 1.400 . S
C503 C502 1.400 . S
C503 C504 1.398 . S
C503 C509 1.491 . S
C504 H495 0.950 . S
C504 C503 1.398 . S
C504 C505 1.391 . S
C505 H493 0.950 . S
C505 C501 1.393 . S
C505 C504 1.391 . S
C506 H496 0.950 . S
C506 C507 1.386 . S
C506 C508 1.391 . S
C507 C506 1.386 . S
C507 C511 1.393 . S
C508 H497 0.950 . S
C508 C506 1.391 . S
C508 C509 1.400 . S
C509 C503 1.491 . S
C509 C508 1.400 . S
C509 C510 1.398 . S
C510 H498 0.950 . S
C510 C509 1.398 . S
C510 C511 1.391 . S
C511 H499 0.950 . S
C511 C507 1.393 . S
C511 C510 1.391 . S
H512 C520 0.950 . S
H513 C525 0.950 . S
H514 C522 0.950 . S
H515 C524 0.950 . S
H516 C526 0.950 . S
H517 C528 0.950 . S
H518 C530 0.950 . S
H519 C531 0.950 . S
C520 H512 0.950 . S
C520 C521 1.386 . S
C520 C522 1.391 . S
C521 C520 1.386 . S
C521 C525 1.393 . S
C522 H514 0.950 . S
C522 C520 1.391 . S
C522 C523 1.400 . S
C523 C522 1.400 . S
C523 C524 1.398 . S
C523 C529 1.491 . S
C524 H515 0.950 . S
C524 C523 1.398 . S
C524 C525 1.391 . S
C525 H513 0.950 . S
C525 C521 1.393 . S
C525 C524 1.391 . S
C526 H516 0.950 . S
C526 C527 1.386 . S
C526 C528 1.391 . S
C527 C526 1.386 . S
C527 C531 1.393 . S
C528 H517 0.950 . S
C528 C526 1.391 . S
C528 C529 1.400 . S
C529 C523 1.491 . S
C529 C528 1.400 . S
C529 C530 1.398 . S
C530 H518 0.950 . S
C530 C529 1.398 . S
C530 C531 1.391 . S
C531 H519 0.950 . S
C531 C527 1.393 . S
C531 C530 1.391 . S
H532 C540 0.950 1_554 S
H533 C545 0.950 . S
H534 C542 0.950 . S
H535 C544 0.950 . S
H536 C546 0.950 . S
H537 C548 0.950 . S
H538 C550 0.950 . S
H539 C551 0.950 . S
C540 H532 0.950 1_556 S
C540 C541 1.386 . S
C540 C542 1.391 . S
C541 C540 1.386 . S
C541 C545 1.393 . S
C542 H534 0.950 . S
C542 C540 1.391 . S
C542 C543 1.400 . S
C543 C542 1.400 . S
C543 C544 1.398 . S
C543 C549 1.491 . S
C544 H535 0.950 . S
C544 C543 1.398 . S
C544 C545 1.391 . S
C545 H533 0.950 . S
C545 C541 1.393 . S
C545 C544 1.391 . S
C546 H536 0.950 . S
C546 C547 1.386 . S
C546 C548 1.391 . S
C547 C546 1.386 . S
C547 C551 1.393 . S
C548 H537 0.950 . S
C548 C546 1.391 . S
C548 C549 1.400 . S
C549 C543 1.491 . S
C549 C548 1.400 . S
C549 C550 1.398 . S
C550 H538 0.950 . S
C550 C549 1.398 . S
C550 C551 1.391 . S
C551 H539 0.950 . S
C551 C547 1.393 . S
C551 C550 1.391 . S
H552 C560 0.950 . S
H553 C565 0.950 . S
H554 C562 0.950 . S
H555 C564 0.950 . S
H556 C566 0.950 . S
H557 C568 0.950 . S
H558 C570 0.950 . S
H559 C571 0.950 . S
C560 H552 0.950 . S
C560 C561 1.386 . S
C560 C562 1.391 . S
C561 C560 1.386 . S
C561 C565 1.393 . S
C562 H554 0.950 . S
C562 C560 1.391 . S
C562 C563 1.400 . S
C563 C562 1.400 . S
C563 C564 1.398 . S
C563 C569 1.491 . S
C564 H555 0.950 . S
C564 C563 1.398 . S
C564 C565 1.391 . S
C565 H553 0.950 . S
C565 C561 1.393 . S
C565 C564 1.391 . S
C566 H556 0.950 . S
C566 C567 1.386 . S
C566 C568 1.391 . S
C567 C566 1.386 . S
C567 C571 1.393 . S
C568 H557 0.950 . S
C568 C566 1.391 . S
C568 C569 1.400 . S
C569 C563 1.491 . S
C569 C568 1.400 . S
C569 C570 1.398 . S
C570 H558 0.950 . S
C570 C569 1.398 . S
C570 C571 1.391 . S
C571 H559 0.950 . S
C571 C567 1.393 . S
C571 C570 1.391 . S
H572 C580 0.950 . S
H573 C585 0.950 . S
H574 C582 0.950 . S
H575 C584 0.950 . S
H576 C586 0.950 . S
H577 C588 0.950 . S
H578 C590 0.950 . S
H579 C591 0.950 . S
C580 H572 0.950 . S
C580 C581 1.386 . S
C580 C582 1.391 . S
C581 C580 1.386 . S
C581 C585 1.393 . S
C582 H574 0.950 . S
C582 C580 1.391 . S
C582 C583 1.400 . S
C583 C582 1.400 . S
C583 C584 1.398 . S
C583 C589 1.491 . S
C584 H575 0.950 . S
C584 C583 1.398 . S
C584 C585 1.391 . S
C585 H573 0.950 . S
C585 C581 1.393 . S
C585 C584 1.391 . S
C586 H576 0.950 . S
C586 C587 1.386 . S
C586 C588 1.391 . S
C587 C586 1.386 . S
C587 C591 1.393 . S
C588 H577 0.950 . S
C588 C586 1.391 . S
C588 C589 1.400 . S
C589 C583 1.491 . S
C589 C588 1.400 . S
C589 C590 1.398 . S
C590 H578 0.950 . S
C590 C589 1.398 . S
C590 C591 1.391 . S
C591 H579 0.950 . S
C591 C587 1.393 . S
C591 C590 1.391 . S
H592 C600 0.950 . S
H593 C605 0.950 . S
H594 C602 0.950 . S
H595 C604 0.950 . S
H596 C606 0.950 . S
H597 C608 0.950 . S
H598 C610 0.950 . S
H599 C611 0.950 . S
C600 H592 0.950 . S
C600 C601 1.377 1_565 S
C600 C602 1.391 . S
C601 C600 1.377 1_545 S
C601 C605 1.405 1_655 S
C602 H594 0.950 . S
C602 C600 1.391 . S
C602 C603 1.412 . S
C603 C602 1.412 . S
C603 C604 1.388 1_665 S
C603 C609 1.484 1_666 S
C604 H595 0.950 . S
C604 C603 1.388 1_445 S
C604 C605 1.391 . S
C605 H593 0.950 . S
C605 C601 1.405 1_455 S
C605 C604 1.391 . S
C606 H596 0.950 . S
C606 C607 1.379 1_545 S
C606 C608 1.391 . S
C607 C606 1.379 1_565 S
C607 C611 1.401 1_455 S
C608 H597 0.950 . S
C608 C606 1.391 . S
C608 C609 1.430 . S
C609 C603 1.484 1_444 S
C609 C608 1.430 . S
C609 C610 1.374 1_445 S
C610 H598 0.950 . S
C610 C609 1.374 1_665 S
C610 C611 1.391 . S
C611 H599 0.950 . S
C611 C607 1.401 1_655 S
C611 C610 1.391 . S
H612 C620 0.950 . S
H613 C625 0.950 . S
H614 C622 0.950 . S
H615 C624 0.950 . S
H616 C626 0.950 . S
H617 C628 0.950 . S
H618 C630 0.950 . S
H619 C631 0.950 1_556 S
C620 H612 0.950 . S
C620 C621 1.386 . S
C620 C622 1.391 . S
C621 C620 1.386 . S
C621 C625 1.393 . S
C622 H614 0.950 . S
C622 C620 1.391 . S
C622 C623 1.400 . S
C623 C622 1.400 . S
C623 C624 1.398 . S
C623 C629 1.491 . S
C624 H615 0.950 . S
C624 C623 1.398 . S
C624 C625 1.391 . S
C625 H613 0.950 . S
C625 C621 1.393 . S
C625 C624 1.391 . S
C626 H616 0.950 . S
C626 C627 1.386 . S
C626 C628 1.391 . S
C627 C626 1.386 . S
C627 C631 1.393 . S
C628 H617 0.950 . S
C628 C626 1.391 . S
C628 C629 1.400 . S
C629 C623 1.491 . S
C629 C628 1.400 . S
C629 C630 1.398 . S
C630 H618 0.950 . S
C630 C629 1.398 . S
C630 C631 1.391 . S
C631 H619 0.950 1_554 S
C631 C627 1.393 . S
C631 C630 1.391 . S
H632 C640 0.950 . S
H633 C645 0.950 . S
H634 C642 0.950 . S
H635 C644 0.950 . S
H636 C646 0.950 . S
H637 C648 0.950 . S
H638 C650 0.950 . S
H639 C651 0.950 . S
C640 H632 0.950 . S
C640 C641 1.386 1_565 S
C640 C642 1.391 . S
C641 C640 1.386 1_545 S
C641 C645 1.393 . S
C642 H634 0.950 . S
C642 C640 1.391 . S
C642 C643 1.400 1_565 S
C643 C642 1.400 1_545 S
C643 C644 1.398 . S
C643 C649 1.491 1_545 S
C644 H635 0.950 . S
C644 C643 1.398 . S
C644 C645 1.391 . S
C645 H633 0.950 . S
C645 C641 1.393 . S
C645 C644 1.391 . S
C646 H636 0.950 . S
C646 C647 1.386 1_545 S
C646 C648 1.391 . S
C647 C646 1.386 1_565 S
C647 C651 1.393 . S
C648 H637 0.950 . S
C648 C646 1.391 . S
C648 C649 1.400 1_545 S
C649 C643 1.491 1_565 S
C649 C648 1.400 1_565 S
C649 C650 1.398 . S
C650 H638 0.950 . S
C650 C649 1.398 . S
C650 C651 1.391 . S
C651 H639 0.950 . S
C651 C647 1.393 . S
C651 C650 1.391 . S
H652 C660 0.950 1_554 S
H653 C665 0.950 . S
H654 C662 0.950 . S
H655 C664 0.950 . S
H656 C666 0.950 . S
H657 C668 0.950 . S
H658 C670 0.950 . S
H659 C671 0.950 . S
C660 H652 0.950 1_556 S
C660 C661 1.386 . S
C660 C662 1.391 . S
C661 C660 1.386 . S
C661 C665 1.393 . S
C662 H654 0.950 . S
C662 C660 1.391 . S
C662 C663 1.400 . S
C663 C662 1.400 . S
C663 C664 1.398 . S
C663 C669 1.491 . S
C664 H655 0.950 . S
C664 C663 1.398 . S
C664 C665 1.391 . S
C665 H653 0.950 . S
C665 C661 1.393 . S
C665 C664 1.391 . S
C666 H656 0.950 . S
C666 C667 1.386 . S
C666 C668 1.391 . S
C667 C666 1.386 . S
C667 C671 1.393 . S
C668 H657 0.950 . S
C668 C666 1.391 . S
C668 C669 1.400 . S
C669 C663 1.491 . S
C669 C668 1.400 . S
C669 C670 1.398 . S
C670 H658 0.950 . S
C670 C669 1.398 . S
C670 C671 1.391 . S
C671 H659 0.950 . S
C671 C667 1.393 . S
C671 C670 1.391 . S
H672 C680 0.950 . S
H673 C685 0.950 . S
H674 C682 0.950 . S
H675 C684 0.950 . S
H676 C686 0.950 . S
H677 C688 0.950 . S
H678 C690 0.950 . S
H679 C691 0.950 . S
C680 H672 0.950 . S
C680 C681 1.386 . S
C680 C682 1.391 . S
C681 C680 1.386 . S
C681 C685 1.393 . S
C682 H674 0.950 . S
C682 C680 1.391 . S
C682 C683 1.400 . S
C683 C682 1.400 . S
C683 C684 1.398 . S
C683 C689 1.491 . S
C684 H675 0.950 . S
C684 C683 1.398 . S
C684 C685 1.391 . S
C685 H673 0.950 . S
C685 C681 1.393 . S
C685 C684 1.391 . S
C686 H676 0.950 . S
C686 C687 1.386 . S
C686 C688 1.391 . S
C687 C686 1.386 . S
C687 C691 1.393 . S
C688 H677 0.950 . S
C688 C686 1.391 . S
C688 C689 1.400 . S
C689 C683 1.491 . S
C689 C688 1.400 . S
C689 C690 1.398 . S
C690 H678 0.950 . S
C690 C689 1.398 . S
C690 C691 1.391 . S
C691 H679 0.950 . S
C691 C687 1.393 . S
C691 C690 1.391 . S
H692 C700 0.950 . S
H693 C705 0.950 . S
H694 C702 0.950 . S
H695 C704 0.950 . S
H696 C706 0.950 . S
H697 C708 0.950 . S
H698 C710 0.950 . S
H699 C711 0.950 . S
C700 H692 0.950 . S
C700 C701 1.386 . S
C700 C702 1.391 . S
C701 C700 1.386 . S
C701 C705 1.393 . S
C702 H694 0.950 . S
C702 C700 1.391 . S
C702 C703 1.400 . S
C703 C702 1.400 . S
C703 C704 1.398 . S
C703 C709 1.491 . S
C704 H695 0.950 . S
C704 C703 1.398 . S
C704 C705 1.391 . S
C705 H693 0.950 . S
C705 C701 1.393 . S
C705 C704 1.391 . S
C706 H696 0.950 . S
C706 C707 1.386 . S
C706 C708 1.391 . S
C707 C706 1.386 . S
C707 C711 1.393 . S
C708 H697 0.950 . S
C708 C706 1.391 . S
C708 C709 1.400 . S
C709 C703 1.491 . S
C709 C708 1.400 . S
C709 C710 1.398 . S
C710 H698 0.950 . S
C710 C709 1.398 . S
C710 C711 1.391 . S
C711 H699 0.950 . S
C711 C707 1.393 . S
C711 C710 1.391 . S
H712 C720 0.950 . S
H713 C725 0.950 . S
H714 C722 0.950 . S
H715 C724 0.950 . S
H716 C726 0.950 . S
H717 C728 0.950 . S
H718 C730 0.950 . S
H719 C731 0.950 . S
C720 H712 0.950 . S
C720 C721 1.386 . S
C720 C722 1.391 . S
C721 C720 1.386 . S
C721 C725 1.393 . S
C722 H714 0.950 . S
C722 C720 1.391 . S
C722 C723 1.400 . S
C723 C722 1.400 . S
C723 C724 1.398 . S
C723 C729 1.491 . S
C724 H715 0.950 . S
C724 C723 1.398 . S
C724 C725 1.391 . S
C725 H713 0.950 . S
C725 C721 1.393 . S
C725 C724 1.391 . S
C726 H716 0.950 . S
C726 C727 1.386 . S
C726 C728 1.391 . S
C727 C726 1.386 . S
C727 C731 1.393 . S
C728 H717 0.950 . S
C728 C726 1.391 . S
C728 C729 1.400 . S
C729 C723 1.491 . S
C729 C728 1.400 . S
C729 C730 1.398 . S
C730 H718 0.950 . S
C730 C729 1.398 . S
C730 C731 1.391 . S
C731 H719 0.950 . S
C731 C727 1.393 . S
C731 C730 1.391 . S
H732 C740 0.950 . S
H733 C745 0.950 . S
H734 C742 0.950 . S
H735 C744 0.950 . S
H736 C746 0.950 . S
H737 C748 0.950 . S
H738 C750 0.950 . S
H739 C751 0.950 . S
C740 H732 0.950 . S
C740 C741 1.386 1_455 S
C740 C742 1.391 . S
C741 C740 1.386 1_655 S
C741 C745 1.393 . S
C742 H734 0.950 . S
C742 C740 1.391 . S
C742 C743 1.377 1_455 S
C743 C742 1.377 1_655 S
C743 C744 1.427 . S
C743 C749 1.486 1_656 S
C744 H735 0.950 . S
C744 C743 1.427 . S
C744 C745 1.391 . S
C745 H733 0.950 . S
C745 C741 1.393 . S
C745 C744 1.391 . S
C746 H736 0.950 . S
C746 C747 1.386 1_655 S
C746 C748 1.391 . S
C747 C746 1.386 1_455 S
C747 C751 1.393 . S
C748 H737 0.950 . S
C748 C746 1.391 . S
C748 C749 1.400 1_655 S
C749 C743 1.486 1_454 S
C749 C748 1.400 1_455 S
C749 C750 1.398 . S
C750 H738 0.950 . S
C750 C749 1.398 . S
C750 C751 1.391 . S
C751 H739 0.950 . S
C751 C747 1.393 . S
C751 C750 1.391 . S
C281 C17 3.240 . S
C287 C119 3.239 . S
C301 C4 1.522 . S
C307 C51 1.519 . S
C321 C38 0.385 . S
C327 C72 0.389 . S
C341 C85 1.519 . S
C347 C106 1.520 . S
C361 C8 3.241 . S
C367 C178 3.243 . S
C381 C13 1.521 . S
C387 C144 1.522 . S
C401 C149 0.344 . S
C407 C81 0.344 . S
C421 C183 1.520 . S
C427 C76 1.519 . S
C441 C221 3.240 . S
C447 C187 3.242 . S
C461 C153 1.519 . S
C467 C208 1.520 . S
C481 C242 0.385 . S
C487 C140 0.389 . S
C501 C174 1.522 . S
C507 C255 1.520 . S
C521 C110 3.243 . S
C527 C212 3.242 . S
C541 C217 1.521 . S
C547 C42 1.522 . S
C561 C47 0.409 . S
C567 C251 0.410 . S
C581 C115 1.520 . S
C587 C246 1.518 . S
C601 C0 1.138 . S
C607 C29 1.139 . S
C621 C63 1.183 . S
C627 C34 1.183 1_554 S
C641 C68 1.181 . S
C647 C97 1.181 . S
C661 C102 1.144 1_556 S
C667 C131 1.144 . S
C681 C165 1.176 1_556 S
C687 C136 1.176 . S
C701 C170 1.142 . S
C707 C199 1.142 1_554 S
C721 C233 1.144 . S
C727 C204 1.144 . S
C741 C267 1.178 . S
C747 C238 1.178 . S
