# Generated by pormake.
# Topology ukv, (4)-cn, num edge types: 1
# Building blocks:
#     Node 0, Type 0, BuildingBlock: TATPOV_clean_sbu_0, # of connection points: 4
#     Node 1, Type 0, BuildingBlock: TATPOV_clean_sbu_0, # of connection points: 4
#     Node 2, Type 0, BuildingBlock: TATPOV_clean_sbu_0, # of connection points: 4
#     Node 3, Type 0, BuildingBlock: TATPOV_clean_sbu_0, # of connection points: 4
#     Node 4, Type 0, BuildingBlock: TATPOV_clean_sbu_0, # of connection points: 4
#     Node 5, Type 0, BuildingBlock: TATPOV_clean_sbu_0, # of connection points: 4
#     Node 6, Type 0, BuildingBlock: TATPOV_clean_sbu_0, # of connection points: 4
#     Node 7, Type 0, BuildingBlock: TATPOV_clean_sbu_0, # of connection points: 4
#     Node 8, Type 0, BuildingBlock: TATPOV_clean_sbu_0, # of connection points: 4
#     Node 9, Type 0, BuildingBlock: TATPOV_clean_sbu_0, # of connection points: 4
#     Node 10, Type 0, BuildingBlock: TATPOV_clean_sbu_0, # of connection points: 4
#     Node 11, Type 0, BuildingBlock: TATPOV_clean_sbu_0, # of connection points: 4
#     Node 12, Type 0, BuildingBlock: TATPOV_clean_sbu_0, # of connection points: 4
#     Node 13, Type 0, BuildingBlock: TATPOV_clean_sbu_0, # of connection points: 4
#     Node 14, Type 0, BuildingBlock: TATPOV_clean_sbu_0, # of connection points: 4
#     Node 15, Type 0, BuildingBlock: TATPOV_clean_sbu_0, # of connection points: 4
#     Node 16, Type 0, BuildingBlock: TATPOV_clean_sbu_0, # of connection points: 4
#     Node 17, Type 0, BuildingBlock: TATPOV_clean_sbu_0, # of connection points: 4
#     Node 18, Type 0, BuildingBlock: TATPOV_clean_sbu_0, # of connection points: 4
#     Node 19, Type 0, BuildingBlock: TATPOV_clean_sbu_0, # of connection points: 4
#     Node 20, Type 0, BuildingBlock: TATPOV_clean_sbu_0, # of connection points: 4
#     Node 21, Type 0, BuildingBlock: TATPOV_clean_sbu_0, # of connection points: 4
#     Node 22, Type 0, BuildingBlock: TATPOV_clean_sbu_0, # of connection points: 4
#     Node 23, Type 0, BuildingBlock: TATPOV_clean_sbu_0, # of connection points: 4
#     Node 24, Type 0, BuildingBlock: TATPOV_clean_sbu_0, # of connection points: 4
#     Node 25, Type 0, BuildingBlock: TATPOV_clean_sbu_0, # of connection points: 4
#     Node 26, Type 0, BuildingBlock: TATPOV_clean_sbu_0, # of connection points: 4
#     Node 27, Type 0, BuildingBlock: TATPOV_clean_sbu_0, # of connection points: 4
#     Node 28, Type 0, BuildingBlock: TATPOV_clean_sbu_0, # of connection points: 4
#     Node 29, Type 0, BuildingBlock: TATPOV_clean_sbu_0, # of connection points: 4
#     Node 30, Type 0, BuildingBlock: TATPOV_clean_sbu_0, # of connection points: 4
#     Node 31, Type 0, BuildingBlock: TATPOV_clean_sbu_0, # of connection points: 4
#     Node 32, Type 0, BuildingBlock: TATPOV_clean_sbu_0, # of connection points: 4
#     Node 33, Type 0, BuildingBlock: TATPOV_clean_sbu_0, # of connection points: 4
#     Node 34, Type 0, BuildingBlock: TATPOV_clean_sbu_0, # of connection points: 4
#     Node 35, Type 0, BuildingBlock: TATPOV_clean_sbu_0, # of connection points: 4
#     Edge 36, Type (0, 0), None
#     Edge 37, Type (0, 0), None
#     Edge 38, Type (0, 0), None
#     Edge 39, Type (0, 0), None
#     Edge 40, Type (0, 0), None
#     Edge 41, Type (0, 0), None
#     Edge 42, Type (0, 0), None
#     Edge 43, Type (0, 0), None
#     Edge 44, Type (0, 0), None
#     Edge 45, Type (0, 0), None
#     Edge 46, Type (0, 0), None
#     Edge 47, Type (0, 0), None
#     Edge 48, Type (0, 0), None
#     Edge 49, Type (0, 0), None
#     Edge 50, Type (0, 0), None
#     Edge 51, Type (0, 0), None
#     Edge 52, Type (0, 0), None
#     Edge 53, Type (0, 0), None
#     Edge 54, Type (0, 0), None
#     Edge 55, Type (0, 0), None
#     Edge 56, Type (0, 0), None
#     Edge 57, Type (0, 0), None
#     Edge 58, Type (0, 0), None
#     Edge 59, Type (0, 0), None
#     Edge 60, Type (0, 0), None
#     Edge 61, Type (0, 0), None
#     Edge 62, Type (0, 0), None
#     Edge 63, Type (0, 0), None
#     Edge 64, Type (0, 0), None
#     Edge 65, Type (0, 0), None
#     Edge 66, Type (0, 0), None
#     Edge 67, Type (0, 0), None
#     Edge 68, Type (0, 0), None
#     Edge 69, Type (0, 0), None
#     Edge 70, Type (0, 0), None
#     Edge 71, Type (0, 0), None
#     Edge 72, Type (0, 0), None
#     Edge 73, Type (0, 0), None
#     Edge 74, Type (0, 0), None
#     Edge 75, Type (0, 0), None
#     Edge 76, Type (0, 0), None
#     Edge 77, Type (0, 0), None
#     Edge 78, Type (0, 0), None
#     Edge 79, Type (0, 0), None
#     Edge 80, Type (0, 0), None
#     Edge 81, Type (0, 0), None
#     Edge 82, Type (0, 0), None
#     Edge 83, Type (0, 0), None
#     Edge 84, Type (0, 0), None
#     Edge 85, Type (0, 0), None
#     Edge 86, Type (0, 0), None
#     Edge 87, Type (0, 0), None
#     Edge 88, Type (0, 0), None
#     Edge 89, Type (0, 0), None
#     Edge 90, Type (0, 0), None
#     Edge 91, Type (0, 0), None
#     Edge 92, Type (0, 0), None
#     Edge 93, Type (0, 0), None
#     Edge 94, Type (0, 0), None
#     Edge 95, Type (0, 0), None
#     Edge 96, Type (0, 0), None
#     Edge 97, Type (0, 0), None
#     Edge 98, Type (0, 0), None
#     Edge 99, Type (0, 0), None
#     Edge 100, Type (0, 0), None
#     Edge 101, Type (0, 0), None
#     Edge 102, Type (0, 0), None
#     Edge 103, Type (0, 0), None
#     Edge 104, Type (0, 0), None
#     Edge 105, Type (0, 0), None
#     Edge 106, Type (0, 0), None
#     Edge 107, Type (0, 0), None
# Relax obj value: 0.211
# Max RMSD: 0.180
# Mean RMSD: 0.180
data_MOF--net-ukv--node1-TATPOV_clean_sbu_0--edge1-none
_symmetry_space_group_name_H-M    P1
_symmetry_Int_Tables_number       1
_symmetry_cell_setting            triclinic
loop_
_symmetry_equiv_pos_as_xyz
'x, y, z'
_cell_length_a     46.115833
_cell_length_b     46.08136
_cell_length_c     9.1982804
_cell_angle_alpha  89.972561
_cell_angle_beta   90.013908
_cell_angle_gamma 119.8973
loop_
_atom_site_label
_atom_site_type_symbol
_atom_site_fract_x
_atom_site_fract_y
_atom_site_fract_z
_atom_type_partial_charge
Zn0 Zn 0.27195 0.15783 0.06531 0.0
Zn1 Zn 0.2436 0.07173 0.12783 0.0
O2 O 0.28415 0.07793 0.00313 0.0
O3 O 0.28946 0.12745 -0.00252 0.0
O4 O 0.22329 0.02965 0.24458 0.0
O5 O 0.23725 0.14009 0.23189 0.0
O6 O 0.25645 0.1063 0.28469 0.0
C7 C 0.2997 0.10794 0.95769 0.0
C8 C 0.21628 0.10234 0.94529 0.0
O9 O 0.2086 0.07371 -0.00377 0.0
O10 O 0.22167 0.1253 0.03619 0.0
C11 C 0.2083 0.00101 0.18669 0.0
O12 O 0.20626 -0.00164 0.04447 0.0
C13 C 0.237 0.11769 0.31344 0.0
Zn14 Zn 0.80748 0.10718 0.06578 0.0
Zn15 Zn 0.89347 0.16476 0.128 0.0
O16 O 0.88702 0.19889 0.00305 0.0
O17 O 0.83734 0.15497 -0.00383 0.0
O18 O 0.9356 0.18662 0.24451 0.0
O19 O 0.82532 0.09027 0.23236 0.0
O20 O 0.85898 0.14317 0.28502 0.0
C21 C 0.85707 0.1847 0.95716 0.0
C22 C 0.863 0.10693 0.94583 0.0
O23 O 0.89162 0.12784 -0.00343 0.0
O24 O 0.8401 0.08943 0.0369 0.0
C25 C 0.96425 0.20038 0.18668 0.0
O26 O 0.96693 0.20104 0.04447 0.0
C27 C 0.84761 0.11237 0.31404 0.0
Zn28 Zn 0.85805 0.69325 0.06579 0.0
Zn29 Zn 0.80049 0.72172 0.12786 0.0
O30 O 0.76634 0.68125 0.0031 0.0
O31 O 0.81026 0.67537 -0.00394 0.0
O32 O 0.77865 0.74199 0.24451 0.0
O33 O 0.87499 0.72807 0.23194 0.0
O34 O 0.82212 0.70882 0.28494 0.0
C35 C 0.78054 0.66545 0.95715 0.0
C36 C 0.85826 0.74901 0.94544 0.0
O37 O 0.83734 0.75674 -0.00367 0.0
O38 O 0.8758 0.74358 0.03642 0.0
C39 C 0.76493 0.75696 0.18664 0.0
O40 O 0.76429 0.75901 0.04443 0.0
C41 C 0.85289 0.7283 0.31361 0.0
Zn42 Zn 0.15088 0.27888 0.39952 0.0
Zn43 Zn 0.06485 0.25053 0.33764 0.0
O44 O 0.07128 0.29109 0.46255 0.0
O45 O 0.12102 0.29687 0.4693 0.0
O46 O 0.02271 0.23028 0.22111 0.0
O47 O 0.13301 0.2441 0.23334 0.0
O48 O 0.09933 0.26339 0.18053 0.0
C49 C 0.10124 0.30685 0.50828 0.0
C50 C 0.0954 0.22322 0.52006 0.0
O51 O 0.06677 0.21549 0.46923 0.0
O52 O 0.11831 0.22859 0.42903 0.0
C53 C -0.00594 0.21529 0.27892 0.0
O54 O -0.00861 0.21321 0.42112 0.0
C55 C 0.11066 0.24389 0.15177 0.0
Zn56 Zn 0.68637 0.86508 0.39973 0.0
Zn57 Zn 0.71476 0.80744 0.33774 0.0
O58 O 0.67429 0.77331 0.46259 0.0
O59 O 0.6684 0.81726 0.46964 0.0
O60 O 0.73503 0.7856 0.22099 0.0
O61 O 0.72115 0.88199 0.23354 0.0
O62 O 0.70187 0.82908 0.18065 0.0
C63 C 0.65849 0.7875 0.50848 0.0
C64 C 0.74206 0.86523 0.52007 0.0
O65 O 0.74978 0.84429 0.46921 0.0
O66 O 0.73665 0.88279 0.42905 0.0
C67 C 0.75 0.77187 0.27884 0.0
O68 O 0.75203 0.77122 0.42105 0.0
C69 C 0.72135 0.85986 0.15188 0.0
Zn70 Zn 0.10025 0.81443 0.39977 0.0
Zn71 Zn 0.15777 0.9004 0.33751 0.0
O72 O 0.19192 0.894 0.46231 0.0
O73 O 0.14803 0.8443 0.46928 0.0
O74 O 0.17961 0.94252 0.22096 0.0
O75 O 0.08331 0.83231 0.23341 0.0
O76 O 0.13617 0.86591 0.18048 0.0
C77 C 0.17774 0.86404 0.50825 0.0
C78 C 0.09999 0.86994 0.51993 0.0
O79 O 0.12089 0.89857 0.46902 0.0
O80 O 0.08246 0.84702 0.42898 0.0
C81 C 0.19335 0.97117 0.27885 0.0
O82 O 0.19401 0.97383 0.42107 0.0
C83 C 0.10539 0.85463 0.15176 0.0
Zn84 Zn 0.6864 0.81439 0.89978 0.0
Zn85 Zn 0.71473 0.90043 0.83768 0.0
O86 O 0.6742 0.89407 0.9625 0.0
O87 O 0.66846 0.84431 0.96928 0.0
O88 O 0.73501 0.94258 0.72102 0.0
O89 O 0.72116 0.83222 0.73351 0.0
O90 O 0.70189 0.86593 0.68065 0.0
C91 C 0.65845 0.86408 0.00824 0.0
C92 C 0.74206 0.86988 0.0201 0.0
O93 O 0.74975 0.89853 0.96928 0.0
O94 O 0.73667 0.84692 0.92923 0.0
C95 C 0.75 0.97124 0.7788 0.0
O96 O 0.75208 0.97391 0.921 0.0
C97 C 0.72136 0.85458 0.65189 0.0
Zn98 Zn 0.15083 0.86503 0.89975 0.0
Zn99 Zn 0.06484 0.80746 0.83755 0.0
O100 O 0.07127 0.7733 0.96247 0.0
O101 O 0.12094 0.81723 0.96926 0.0
O102 O 0.02271 0.78561 0.72101 0.0
O103 O 0.13297 0.88196 0.73334 0.0
O104 O 0.09934 0.82906 0.68059 0.0
C105 C 0.10122 0.7875 0.00832 0.0
C106 C 0.09532 0.86529 0.01986 0.0
O107 O 0.06671 0.84437 0.96913 0.0
O108 O 0.11825 0.88282 0.92893 0.0
C109 C -0.00594 0.77186 0.77884 0.0
O110 O -0.00862 0.77119 0.92105 0.0
C111 C 0.11064 0.85986 0.65179 0.0
Zn112 Zn 0.10024 0.27894 0.89977 0.0
Zn113 Zn 0.1578 0.2505 0.83764 0.0
O114 O 0.19193 0.29098 0.96236 0.0
O115 O 0.14804 0.2969 0.96963 0.0
O116 O 0.17965 0.23023 0.72099 0.0
O117 O 0.08332 0.24414 0.73357 0.0
O118 O 0.13619 0.26341 0.68056 0.0
C119 C 0.17777 0.30679 0.00838 0.0
C120 C 0.10001 0.22317 0.02001 0.0
O121 O 0.12097 0.21548 0.9692 0.0
O122 O 0.08246 0.22861 0.92913 0.0
C123 C 0.19338 0.21526 0.77886 0.0
O124 O 0.19401 0.21321 0.92107 0.0
C125 C 0.10543 0.24393 0.65187 0.0
Zn126 Zn 0.80745 0.69335 0.56577 0.0
Zn127 Zn 0.89346 0.72168 0.62785 0.0
O128 O 0.88706 0.68112 0.50303 0.0
O129 O 0.83736 0.67542 0.49633 0.0
O130 O 0.9356 0.74196 0.74443 0.0
O131 O 0.82528 0.7281 0.73208 0.0
O132 O 0.85896 0.70882 0.78486 0.0
C133 C 0.8571 0.66539 0.4573 0.0
C134 C 0.86292 0.74903 0.44538 0.0
O135 O 0.89155 0.75671 0.49615 0.0
O136 O 0.83999 0.74365 0.53629 0.0
C137 C 0.96424 0.75694 0.68662 0.0
O138 O 0.96692 0.75902 0.54441 0.0
C139 C 0.84763 0.72831 0.81362 0.0
Zn140 Zn 0.27193 0.10714 0.56568 0.0
Zn141 Zn 0.24355 0.16479 0.62769 0.0
O142 O 0.28403 0.19891 0.50293 0.0
O143 O 0.28995 0.15498 0.49572 0.0
O144 O 0.22328 0.18663 0.74449 0.0
O145 O 0.23715 0.09022 0.73181 0.0
O146 O 0.25645 0.14314 0.7847 0.0
C147 C 0.29984 0.18473 0.45699 0.0
C148 C 0.21627 0.10702 0.44519 0.0
O149 O 0.20857 0.12799 0.49599 0.0
O150 O 0.22166 0.08944 0.53611 0.0
C151 C 0.20831 0.20035 0.68666 0.0
O152 O 0.20626 0.201 0.54445 0.0
C153 C 0.23695 0.11236 0.81342 0.0
Zn154 Zn 0.85822 0.15787 0.56583 0.0
Zn155 Zn 0.80076 0.07203 0.62813 0.0
O156 O 0.76714 0.07896 0.50337 0.0
O157 O 0.81044 0.12936 0.49234 0.0
O158 O 0.77864 0.02975 0.74424 0.0
O159 O 0.87499 0.13979 0.73198 0.0
O160 O 0.82217 0.10633 0.78539 0.0
C161 C 0.78069 0.10883 0.45612 0.0
C162 C 0.85832 0.10228 0.44574 0.0
O163 O 0.83746 0.07365 0.49655 0.0
O164 O 0.87585 0.12519 0.53669 0.0
C165 C 0.76492 0.00108 0.6865 0.0
O166 O 0.76432 -0.00161 0.54431 0.0
C167 C 0.85293 0.11757 0.81396 0.0
Zn168 Zn 0.93837 0.49124 0.39952 0.0
Zn169 Zn 0.9102 0.40542 0.46124 0.0
O170 O 0.95072 0.41258 0.33641 0.0
O171 O 0.95831 0.46333 0.32438 0.0
O172 O 0.89013 0.36309 0.57735 0.0
O173 O 0.90358 0.4731 0.56539 0.0
O174 O 0.92307 0.43965 0.61867 0.0
C175 C 0.96724 0.44245 0.28909 0.0
C176 C 0.88299 0.43565 0.27852 0.0
O177 O 0.87513 0.40699 0.3294 0.0
O178 O 0.88824 0.45851 0.36964 0.0
C179 C 0.87507 0.33441 0.51967 0.0
O180 O 0.8729 0.33172 0.3775 0.0
C181 C 0.90354 0.4509 0.64737 0.0
Zn182 Zn 0.47413 0.44052 0.3993 0.0
Zn183 Zn 0.56013 0.49808 0.46134 0.0
O184 O 0.55369 0.53222 0.33635 0.0
O185 O 0.50401 0.4883 0.32968 0.0
O186 O 0.60226 0.51994 0.57785 0.0
O187 O 0.49199 0.42359 0.56573 0.0
O188 O 0.52565 0.47649 0.61839 0.0
C189 C 0.52373 0.51803 0.29057 0.0
C190 C 0.52964 0.44026 0.27916 0.0
O191 O 0.55826 0.46115 0.32992 0.0
O192 O 0.50673 0.42276 0.37022 0.0
C193 C 0.63091 0.5337 0.52 0.0
O194 O 0.63358 0.53437 0.37779 0.0
C195 C 0.5143 0.44569 0.64734 0.0
Zn196 Zn 0.52477 0.02666 0.3991 0.0
Zn197 Zn 0.46718 0.05508 0.4612 0.0
O198 O 0.43308 0.01459 0.33649 0.0
O199 O 0.47697 0.00864 0.32913 0.0
O200 O 0.4453 0.07533 0.57781 0.0
O201 O 0.54167 0.06144 0.56536 0.0
O202 O 0.4888 0.0422 0.61833 0.0
C203 C 0.44723 -0.00124 0.29046 0.0
C204 C 0.52494 0.0824 0.27888 0.0
O205 O 0.50401 0.09012 0.32974 0.0
O206 O 0.54249 0.07699 0.36987 0.0
C207 C 0.43155 0.09027 0.51996 0.0
O208 O 0.43091 0.09232 0.37774 0.0
C209 C 0.51956 0.06164 0.64713 0.0
Zn210 Zn 0.81754 0.61221 0.73288 0.0
Zn211 Zn 0.73152 0.58388 0.67088 0.0
O212 O 0.73795 0.62445 0.79573 0.0
O213 O 0.78769 0.63021 0.80259 0.0
O214 O 0.68937 0.56362 0.55439 0.0
O215 O 0.79967 0.57745 0.56662 0.0
O216 O 0.76599 0.59673 0.51378 0.0
C217 C 0.76791 0.64019 0.84152 0.0
C218 C 0.76206 0.55656 0.85331 0.0
O219 O 0.73343 0.54884 0.80251 0.0
O220 O 0.78497 0.56192 0.76227 0.0
C221 C 0.66072 0.54863 0.61221 0.0
O222 O 0.65805 0.54655 0.75442 0.0
C223 C 0.77733 0.57724 0.48503 0.0
Zn224 Zn 0.35307 0.19846 0.73281 0.0
Zn225 Zn 0.38141 0.14084 0.6709 0.0
O226 O 0.34096 0.10689 0.79582 0.0
O227 O 0.33463 0.15064 0.80424 0.0
O228 O 0.40162 0.11888 0.55436 0.0
O229 O 0.38787 0.2153 0.56673 0.0
O230 O 0.36852 0.1624 0.51361 0.0
C231 C 0.32498 0.12088 0.84217 0.0
C232 C 0.40872 0.19857 0.85309 0.0
O233 O 0.41646 0.17764 0.80226 0.0
O234 O 0.40332 0.21612 0.76202 0.0
C235 C 0.41662 0.10518 0.61218 0.0
O236 O 0.4187 0.10458 0.75438 0.0
C237 C 0.38802 0.19317 0.4849 0.0
Zn238 Zn 0.76694 0.14774 0.73296 0.0
Zn239 Zn 0.8245 0.23373 0.67075 0.0
O240 O 0.85862 0.2273 0.79546 0.0
O241 O 0.81472 0.17758 0.80254 0.0
O242 O 0.84634 0.2759 0.55416 0.0
O243 O 0.75002 0.16562 0.56664 0.0
O244 O 0.8029 0.19916 0.51391 0.0
C245 C 0.84444 0.19734 0.84142 0.0
C246 C 0.76679 0.20327 0.8537 0.0
O247 O 0.78768 0.2319 0.8028 0.0
O248 O 0.74922 0.18038 0.7627 0.0
C249 C 0.86012 0.30457 0.61197 0.0
O250 O 0.86076 0.30723 0.75418 0.0
C251 C 0.77214 0.18795 0.48516 0.0
Zn252 Zn 0.35307 0.14773 0.23286 0.0
Zn253 Zn 0.38138 0.23375 0.17087 0.0
O254 O 0.34085 0.22739 0.29568 0.0
O255 O 0.33512 0.17764 0.30245 0.0
O256 O 0.40165 0.27589 0.05431 0.0
O257 O 0.38782 0.16558 0.06659 0.0
O258 O 0.36856 0.19929 0.0137 0.0
C259 C 0.32512 0.19741 0.34145 0.0
C260 C 0.40873 0.2032 0.35314 0.0
O261 O 0.41641 0.23184 0.30234 0.0
O262 O 0.40333 0.18024 0.26224 0.0
C263 C 0.41664 0.30455 0.11215 0.0
O264 O 0.41871 0.3072 0.25436 0.0
C265 C 0.38801 0.18792 -0.0151 0.0
Zn266 Zn 0.81758 0.19798 0.23356 0.0
Zn267 Zn 0.73131 0.14043 0.17074 0.0
O268 O 0.7372 0.10572 0.29562 0.0
O269 O 0.78612 0.1502 0.29799 0.0
O270 O 0.6893 0.11887 0.05396 0.0
O271 O 0.79996 0.21517 0.06671 0.0
O272 O 0.76603 0.16227 0.01414 0.0
C273 C 0.76722 0.12058 0.34028 0.0
C274 C 0.76212 0.19855 0.35297 0.0
O275 O 0.73351 0.17758 0.30225 0.0
O276 O 0.78513 0.216 0.26215 0.0
C277 C 0.66067 0.10515 0.11191 0.0
O278 O 0.65802 0.10448 0.25415 0.0
C279 C 0.77746 0.19312 -0.01455 0.0
Zn280 Zn 0.76693 0.6123 0.23295 0.0
Zn281 Zn 0.82447 0.58384 0.17092 0.0
O282 O 0.8586 0.62431 0.29568 0.0
O283 O 0.81471 0.63025 0.3029 0.0
O284 O 0.84632 0.56356 0.05428 0.0
O285 O 0.74999 0.57748 0.06683 0.0
O286 O 0.80286 0.59674 0.0138 0.0
C287 C 0.84443 0.64013 0.3417 0.0
C288 C 0.76669 0.55653 0.35326 0.0
O289 O 0.78764 0.54882 0.30248 0.0
O290 O 0.74915 0.56197 0.26235 0.0
C291 C 0.86005 0.5486 0.11216 0.0
O292 O 0.86068 0.54654 0.25437 0.0
C293 C 0.7721 0.57726 -0.01487 0.0
Zn294 Zn 0.47406 0.02679 0.89917 0.0
Zn295 Zn 0.55998 0.05505 0.96124 0.0
O296 O 0.5532 0.0145 0.83641 0.0
O297 O 0.503 0.00787 0.82679 0.0
O298 O 0.6022 0.07522 0.07752 0.0
O299 O 0.49204 0.06154 0.06536 0.0
O300 O 0.52563 0.04219 0.11846 0.0
C301 C 0.52331 -0.00161 0.78972 0.0
C302 C 0.5296 0.08238 0.77884 0.0
O303 O 0.55823 0.09012 0.82959 0.0
O304 O 0.50669 0.07703 0.86982 0.0
C305 C 0.63085 0.09024 0.01974 0.0
O306 O 0.63354 0.09235 0.87755 0.0
C307 C 0.51431 0.06169 0.14714 0.0
Zn308 Zn 0.93876 0.44056 0.89845 0.0
Zn309 Zn 0.91028 0.49819 0.96129 0.0
O310 O 0.95076 0.53244 0.83667 0.0
O311 O 0.95649 0.48842 0.82952 0.0
O312 O 0.88999 0.52001 0.07789 0.0
O313 O 0.90407 0.42362 0.06527 0.0
O314 O 0.92319 0.47652 0.11818 0.0
C315 C 0.96647 0.51817 0.79056 0.0
C316 C 0.88292 0.4403 0.77932 0.0
O317 O 0.87527 0.4613 0.83004 0.0
O318 O 0.88844 0.42279 0.87021 0.0
C319 C 0.87499 0.5337 0.01999 0.0
O320 O 0.87294 0.53432 0.87777 0.0
C321 C 0.90384 0.44572 0.14712 0.0
Zn322 Zn 0.52485 0.49118 0.89915 0.0
Zn323 Zn 0.46735 0.40529 0.96146 0.0
O324 O 0.43358 0.41207 0.83667 0.0
O325 O 0.47707 0.46227 0.82678 0.0
O326 O 0.44531 0.36306 0.07773 0.0
O327 O 0.54165 0.47316 0.06543 0.0
O328 O 0.48881 0.43966 0.11862 0.0
C329 C 0.44732 0.44197 0.78978 0.0
C330 C 0.52499 0.4356 0.7791 0.0
O331 O 0.50411 0.40698 0.82991 0.0
O332 O 0.54252 0.45852 0.87002 0.0
C333 C 0.43158 0.33439 0.01993 0.0
O334 O 0.43096 0.33171 0.87772 0.0
C335 C 0.51957 0.45091 0.14728 0.0
Zn336 Zn 0.60523 0.82451 0.73268 0.0
Zn337 Zn 0.57693 0.73849 0.79466 0.0
O338 O 0.61746 0.74488 0.66982 0.0
O339 O 0.62324 0.79466 0.66292 0.0
O340 O 0.55667 0.69635 0.9112 0.0
O341 O 0.57047 0.80664 0.89889 0.0
O342 O 0.58976 0.77295 0.95184 0.0
C343 C 0.63321 0.77485 0.62402 0.0
C344 C 0.54961 0.76904 0.61228 0.0
O345 O 0.54189 0.74039 0.66319 0.0
O346 O 0.55498 0.79197 0.70326 0.0
C347 C 0.54167 0.6677 0.85332 0.0
O348 O 0.53961 0.66506 0.71111 0.0
C349 C 0.57028 0.7843 0.98057 0.0
Zn350 Zn 0.14078 0.77387 0.7328 0.0
Zn351 Zn 0.22677 0.83144 0.79484 0.0
O352 O 0.22031 0.86555 0.66985 0.0
O353 O 0.1706 0.82166 0.66296 0.0
O354 O 0.26892 0.85331 0.91129 0.0
O355 O 0.15868 0.75696 0.89914 0.0
O356 O 0.19229 0.80986 0.9519 0.0
C357 C 0.19036 0.85138 0.62396 0.0
C358 C 0.19628 0.77362 0.61257 0.0
O359 O 0.22489 0.79451 0.66334 0.0
O360 O 0.17338 0.75611 0.70364 0.0
C361 C 0.29756 0.86704 0.85344 0.0
O362 O 0.30023 0.8677 0.71122 0.0
C363 C 0.18099 0.77906 0.98072 0.0
Zn364 Zn 0.1914 0.35995 0.73246 0.0
Zn365 Zn 0.13382 0.38837 0.7946 0.0
O366 O 0.09967 0.34789 0.66991 0.0
O367 O 0.1436 0.34203 0.66274 0.0
O368 O 0.11201 0.40864 0.91125 0.0
O369 O 0.20831 0.39474 0.89868 0.0
O370 O 0.15544 0.37547 0.95171 0.0
C371 C 0.11387 0.33211 0.6239 0.0
C372 C 0.19159 0.41569 0.61218 0.0
O373 O 0.17065 0.4234 0.66305 0.0
O374 O 0.20915 0.41028 0.70317 0.0
C375 C 0.09831 0.42363 0.8533 0.0
O376 O 0.09766 0.42566 0.71109 0.0
C377 C 0.18621 0.39496 0.98039 0.0
Zn378 Zn 0.4842 0.94554 0.06638 0.0
Zn379 Zn 0.39817 0.91722 0.0044 0.0
O380 O 0.40459 0.95779 0.12917 0.0
O381 O 0.45428 0.96346 0.13579 0.0
O382 O 0.35603 0.89694 0.88781 0.0
O383 O 0.46635 0.91078 0.90019 0.0
O384 O 0.4327 0.93009 0.84746 0.0
C385 C 0.43455 0.9735 0.17487 0.0
C386 C 0.42871 0.88995 0.18724 0.0
O387 O 0.40008 0.88222 0.13636 0.0
O388 O 0.45161 0.89526 0.09622 0.0
C389 C 0.32739 0.88196 0.94564 0.0
O390 O 0.32472 0.8799 0.08784 0.0
C391 C 0.44399 0.91056 0.81876 0.0
Zn392 Zn 0.01921 0.5313 0.06735 0.0
Zn393 Zn 0.04791 0.47365 0.00455 0.0
O394 O 0.0074 0.43876 0.12924 0.0
O395 O 0.00332 0.48347 0.13017 0.0
O396 O 0.06839 0.45222 0.88733 0.0
O397 O 0.05396 0.54854 0.90051 0.0
O398 O 0.03502 0.49561 0.84806 0.0
C399 C -0.00757 0.45388 0.17337 0.0
C400 C 0.07514 0.53176 0.18709 0.0
O401 O 0.0828 0.51075 0.13618 0.0
O402 O 0.06962 0.54928 0.09625 0.0
C403 C 0.08337 0.43853 0.94537 0.0
O404 O 0.08534 0.43785 0.08761 0.0
C405 C 0.05441 0.52643 0.81931 0.0
Zn406 Zn 0.43355 0.4811 0.06644 0.0
Zn407 Zn 0.49112 0.56706 0.00418 0.0
O408 O 0.52523 0.56061 0.12889 0.0
O409 O 0.48134 0.51087 0.13614 0.0
O410 O 0.51298 0.60921 0.88762 0.0
O411 O 0.41665 0.499 0.90015 0.0
O412 O 0.46951 0.53255 0.84724 0.0
C413 C 0.51106 0.53065 0.17489 0.0
C414 C 0.43341 0.53664 0.18697 0.0
O415 O 0.45429 0.56526 0.13602 0.0
O416 O 0.41584 0.51374 0.09602 0.0
C417 C 0.52673 0.63786 0.94549 0.0
O418 O 0.52738 0.64052 0.08771 0.0
C419 C 0.43875 0.52133 0.81858 0.0
Zn420 Zn 0.01957 0.48098 0.56688 0.0
Zn421 Zn 0.04792 0.56706 0.50438 0.0
O422 O 0.00741 0.56075 0.62889 0.0
O423 O 0.0017 0.511 0.63603 0.0
O424 O 0.06825 0.60921 0.38773 0.0
O425 O 0.05427 0.49874 0.40047 0.0
O426 O 0.035 0.53245 0.34775 0.0
C427 C -0.0083 0.53078 0.67489 0.0
C428 C 0.07515 0.5365 0.68751 0.0
O429 O 0.08284 0.56515 0.63664 0.0
O430 O 0.06981 0.51355 0.59664 0.0
C431 C 0.08329 0.63786 0.4456 0.0
O432 O 0.08536 0.64051 0.58781 0.0
C433 C 0.05453 0.52116 0.31911 0.0
Zn434 Zn 0.48419 0.53149 0.56705 0.0
Zn435 Zn 0.39804 0.47388 0.50427 0.0
O436 O 0.40407 0.4393 0.62906 0.0
O437 O 0.45318 0.48367 0.63285 0.0
O438 O 0.35601 0.45225 0.38752 0.0
O439 O 0.46651 0.54859 0.40015 0.0
O440 O 0.43269 0.49569 0.34752 0.0
C441 C 0.43407 0.454 0.67412 0.0
C442 C 0.42871 0.53194 0.6865 0.0
O443 O 0.4001 0.51095 0.63575 0.0
O444 O 0.45168 0.54944 0.59568 0.0
C445 C 0.32737 0.43852 0.44544 0.0
O446 O 0.32472 0.43784 0.58767 0.0
C447 C 0.44407 0.52652 0.31877 0.0
Zn448 Zn 0.43377 0.94582 0.56723 0.0
Zn449 Zn 0.49139 0.91727 0.50445 0.0
O450 O 0.52597 0.95778 0.62901 0.0
O451 O 0.48161 0.96265 0.63315 0.0
O452 O 0.51302 0.89689 0.38754 0.0
O453 O 0.41669 0.91106 0.40051 0.0
O454 O 0.46957 0.93013 0.34765 0.0
C455 C 0.51127 0.97312 0.67417 0.0
C456 C 0.43339 0.88991 0.68681 0.0
O457 O 0.45441 0.88229 0.63597 0.0
O458 O 0.41585 0.89541 0.59605 0.0
C459 C 0.52674 0.88192 0.4455 0.0
O460 O 0.5274 0.87992 0.58773 0.0
C461 C 0.43878 0.9107 0.31902 0.0
Zn462 Zn 0.14076 0.35998 0.23266 0.0
Zn463 Zn 0.22679 0.38834 0.29459 0.0
O464 O 0.22039 0.34778 0.16972 0.0
O465 O 0.17068 0.34206 0.16309 0.0
O466 O 0.26892 0.40862 0.41112 0.0
O467 O 0.15861 0.39476 0.39883 0.0
O468 O 0.19231 0.37549 0.45167 0.0
C469 C 0.19043 0.33205 0.124 0.0
C470 C 0.19624 0.41567 0.11219 0.0
O471 O 0.22487 0.42336 0.16292 0.0
O472 O 0.1733 0.41027 0.20314 0.0
C473 C 0.29756 0.42361 0.35328 0.0
O474 O 0.30023 0.42567 0.21107 0.0
C475 C 0.18096 0.39498 0.48039 0.0
Zn476 Zn 0.60529 0.77384 0.23265 0.0
Zn477 Zn 0.57691 0.83146 0.29456 0.0
O478 O 0.61737 0.86559 0.16972 0.0
O479 O 0.62329 0.82166 0.16258 0.0
O480 O 0.55664 0.8533 0.41125 0.0
O481 O 0.5705 0.75693 0.39881 0.0
O482 O 0.58979 0.80984 0.45172 0.0
C483 C 0.63318 0.85141 0.12378 0.0
C484 C 0.54958 0.77365 0.11238 0.0
O485 O 0.54189 0.79462 0.16314 0.0
O486 O 0.55501 0.75609 0.20332 0.0
C487 C 0.54165 0.867 0.35336 0.0
O488 O 0.53961 0.86764 0.21115 0.0
C489 C 0.57031 0.77906 0.48049 0.0
Zn490 Zn 0.19134 0.82448 0.23272 0.0
Zn491 Zn 0.13385 0.7385 0.29486 0.0
O492 O 0.09972 0.74491 0.17001 0.0
O493 O 0.14358 0.79465 0.16295 0.0
O494 O 0.112 0.69636 0.41134 0.0
O495 O 0.20829 0.80659 0.39899 0.0
O496 O 0.15543 0.77298 0.45194 0.0
C497 C 0.11387 0.77488 0.12403 0.0
C498 C 0.19165 0.76898 0.11257 0.0
O499 O 0.17073 0.74035 0.16335 0.0
O500 O 0.20916 0.79192 0.20346 0.0
C501 C 0.09825 0.66771 0.35344 0.0
O502 O 0.0976 0.66505 0.21123 0.0
C503 C 0.18621 0.78427 0.48065 0.0
loop_
_geom_bond_atom_site_label_1
_geom_bond_atom_site_label_2
_geom_bond_distance
_geom_bond_site_symmetry_2
_ccdc_geom_bond_type
Zn0 O3 2.031 1_554 S
Zn0 O5 2.049 . S
Zn0 O10 2.067 1_554 S
Zn1 O2 1.962 . S
Zn1 O4 1.986 . S
Zn1 O6 1.996 . S
Zn1 O9 1.943 1_554 S
O2 Zn1 1.962 . S
O2 C7 1.254 . S
O3 Zn0 2.031 1_556 S
O3 C7 1.269 1_556 S
O4 Zn1 1.986 . S
O4 C11 1.262 . S
O5 Zn0 2.049 . S
O5 C13 1.260 . S
O6 Zn1 1.996 . S
O6 C13 1.257 . S
C7 O2 1.254 . S
C7 O3 1.269 1_554 S
C8 O9 1.249 . S
C8 O10 1.270 . S
O9 Zn1 1.943 1_556 S
O9 C8 1.249 . S
O10 Zn0 2.067 1_556 S
O10 C8 1.270 . S
C11 O4 1.262 . S
C11 O12 1.232 . S
O12 C11 1.232 . S
C13 O5 1.260 . S
C13 O6 1.257 . S
Zn14 O17 2.031 1_554 S
Zn14 O19 2.049 . S
Zn14 O24 2.067 1_554 S
Zn15 O16 1.962 . S
Zn15 O18 1.986 . S
Zn15 O20 1.996 . S
Zn15 O23 1.943 1_554 S
O16 Zn15 1.962 . S
O16 C21 1.254 . S
O17 Zn14 2.031 1_556 S
O17 C21 1.269 1_556 S
O18 Zn15 1.986 . S
O18 C25 1.262 . S
O19 Zn14 2.049 . S
O19 C27 1.260 . S
O20 Zn15 1.996 . S
O20 C27 1.257 . S
C21 O16 1.254 . S
C21 O17 1.269 1_554 S
C22 O23 1.249 . S
C22 O24 1.270 . S
O23 Zn15 1.943 1_556 S
O23 C22 1.249 . S
O24 Zn14 2.067 1_556 S
O24 C22 1.270 . S
C25 O18 1.262 . S
C25 O26 1.232 . S
O26 C25 1.232 . S
C27 O19 1.260 . S
C27 O20 1.257 . S
Zn28 O31 2.031 1_554 S
Zn28 O33 2.049 . S
Zn28 O38 2.067 1_554 S
Zn29 O30 1.962 . S
Zn29 O32 1.986 . S
Zn29 O34 1.996 . S
Zn29 O37 1.943 1_554 S
O30 Zn29 1.962 . S
O30 C35 1.254 . S
O31 Zn28 2.031 1_556 S
O31 C35 1.269 1_556 S
O32 Zn29 1.986 . S
O32 C39 1.262 . S
O33 Zn28 2.049 . S
O33 C41 1.260 . S
O34 Zn29 1.996 . S
O34 C41 1.257 . S
C35 O30 1.254 . S
C35 O31 1.269 1_554 S
C36 O37 1.249 . S
C36 O38 1.270 . S
O37 Zn29 1.943 1_556 S
O37 C36 1.249 . S
O38 Zn28 2.067 1_556 S
O38 C36 1.270 . S
C39 O32 1.262 . S
C39 O40 1.232 . S
O40 C39 1.232 . S
C41 O33 1.260 . S
C41 O34 1.257 . S
Zn42 O45 2.031 . S
Zn42 O47 2.049 . S
Zn42 O52 2.067 . S
Zn43 O44 1.962 . S
Zn43 O46 1.986 . S
Zn43 O48 1.996 . S
Zn43 O51 1.943 . S
O44 Zn43 1.962 . S
O44 C49 1.254 . S
O45 Zn42 2.031 . S
O45 C49 1.269 . S
O46 Zn43 1.986 . S
O46 C53 1.262 . S
O47 Zn42 2.049 . S
O47 C55 1.260 . S
O48 Zn43 1.996 . S
O48 C55 1.257 . S
C49 O44 1.254 . S
C49 O45 1.269 . S
C50 O51 1.249 . S
C50 O52 1.270 . S
O51 Zn43 1.943 . S
O51 C50 1.249 . S
O52 Zn42 2.067 . S
O52 C50 1.270 . S
C53 O46 1.262 . S
C53 O54 1.232 . S
O54 C53 1.232 . S
C55 O47 1.260 . S
C55 O48 1.257 . S
Zn56 O59 2.031 . S
Zn56 O61 2.049 . S
Zn56 O66 2.067 . S
Zn57 O58 1.962 . S
Zn57 O60 1.986 . S
Zn57 O62 1.996 . S
Zn57 O65 1.943 . S
O58 Zn57 1.962 . S
O58 C63 1.254 . S
O59 Zn56 2.031 . S
O59 C63 1.269 . S
O60 Zn57 1.986 . S
O60 C67 1.262 . S
O61 Zn56 2.049 . S
O61 C69 1.260 . S
O62 Zn57 1.996 . S
O62 C69 1.257 . S
C63 O58 1.254 . S
C63 O59 1.269 . S
C64 O65 1.249 . S
C64 O66 1.270 . S
O65 Zn57 1.943 . S
O65 C64 1.249 . S
O66 Zn56 2.067 . S
O66 C64 1.270 . S
C67 O60 1.262 . S
C67 O68 1.232 . S
O68 C67 1.232 . S
C69 O61 1.260 . S
C69 O62 1.257 . S
Zn70 O73 2.031 . S
Zn70 O75 2.049 . S
Zn70 O80 2.067 . S
Zn71 O72 1.962 . S
Zn71 O74 1.986 . S
Zn71 O76 1.996 . S
Zn71 O79 1.943 . S
O72 Zn71 1.962 . S
O72 C77 1.254 . S
O73 Zn70 2.031 . S
O73 C77 1.269 . S
O74 Zn71 1.986 . S
O74 C81 1.262 . S
O75 Zn70 2.049 . S
O75 C83 1.260 . S
O76 Zn71 1.996 . S
O76 C83 1.257 . S
C77 O72 1.254 . S
C77 O73 1.269 . S
C78 O79 1.249 . S
C78 O80 1.270 . S
O79 Zn71 1.943 . S
O79 C78 1.249 . S
O80 Zn70 2.067 . S
O80 C78 1.270 . S
C81 O74 1.262 . S
C81 O82 1.232 . S
O82 C81 1.232 . S
C83 O75 1.260 . S
C83 O76 1.257 . S
Zn84 O87 2.031 1_556 S
Zn84 O89 2.049 . S
Zn84 O94 2.067 1_556 S
Zn85 O86 1.962 . S
Zn85 O88 1.986 . S
Zn85 O90 1.996 . S
Zn85 O93 1.943 1_556 S
O86 Zn85 1.962 . S
O86 C91 1.254 . S
O87 Zn84 2.031 1_554 S
O87 C91 1.269 1_554 S
O88 Zn85 1.986 . S
O88 C95 1.262 . S
O89 Zn84 2.049 . S
O89 C97 1.260 . S
O90 Zn85 1.996 . S
O90 C97 1.257 . S
C91 O86 1.254 . S
C91 O87 1.269 1_556 S
C92 O93 1.249 . S
C92 O94 1.270 . S
O93 Zn85 1.943 1_554 S
O93 C92 1.249 . S
O94 Zn84 2.067 1_554 S
O94 C92 1.270 . S
C95 O88 1.262 . S
C95 O96 1.232 . S
O96 C95 1.232 . S
C97 O89 1.260 . S
C97 O90 1.257 . S
Zn98 O101 2.031 1_556 S
Zn98 O103 2.049 . S
Zn98 O108 2.067 1_556 S
Zn99 O100 1.962 . S
Zn99 O102 1.986 . S
Zn99 O104 1.996 . S
Zn99 O107 1.943 1_556 S
O100 Zn99 1.962 . S
O100 C105 1.254 . S
O101 Zn98 2.031 1_554 S
O101 C105 1.269 1_554 S
O102 Zn99 1.986 . S
O102 C109 1.262 . S
O103 Zn98 2.049 . S
O103 C111 1.260 . S
O104 Zn99 1.996 . S
O104 C111 1.257 . S
C105 O100 1.254 . S
C105 O101 1.269 1_556 S
C106 O107 1.249 . S
C106 O108 1.270 . S
O107 Zn99 1.943 1_554 S
O107 C106 1.249 . S
O108 Zn98 2.067 1_554 S
O108 C106 1.270 . S
C109 O102 1.262 . S
C109 O110 1.232 . S
O110 C109 1.232 . S
C111 O103 1.260 . S
C111 O104 1.257 . S
Zn112 O115 2.031 1_556 S
Zn112 O117 2.049 . S
Zn112 O122 2.067 1_556 S
Zn113 O114 1.962 . S
Zn113 O116 1.986 . S
Zn113 O118 1.996 . S
Zn113 O121 1.943 1_556 S
O114 Zn113 1.962 . S
O114 C119 1.254 . S
O115 Zn112 2.031 1_554 S
O115 C119 1.269 1_554 S
O116 Zn113 1.986 . S
O116 C123 1.262 . S
O117 Zn112 2.049 . S
O117 C125 1.260 . S
O118 Zn113 1.996 . S
O118 C125 1.257 . S
C119 O114 1.254 . S
C119 O115 1.269 1_556 S
C120 O121 1.249 . S
C120 O122 1.270 . S
O121 Zn113 1.943 1_554 S
O121 C120 1.249 . S
O122 Zn112 2.067 1_554 S
O122 C120 1.270 . S
C123 O116 1.262 . S
C123 O124 1.232 . S
O124 C123 1.232 . S
C125 O117 1.260 . S
C125 O118 1.257 . S
Zn126 O129 2.031 . S
Zn126 O131 2.049 . S
Zn126 O136 2.067 . S
Zn127 O128 1.962 . S
Zn127 O130 1.986 . S
Zn127 O132 1.996 . S
Zn127 O135 1.943 . S
O128 Zn127 1.962 . S
O128 C133 1.254 . S
O129 Zn126 2.031 . S
O129 C133 1.269 . S
O130 Zn127 1.986 . S
O130 C137 1.262 . S
O131 Zn126 2.049 . S
O131 C139 1.260 . S
O132 Zn127 1.996 . S
O132 C139 1.257 . S
C133 O128 1.254 . S
C133 O129 1.269 . S
C134 O135 1.249 . S
C134 O136 1.270 . S
O135 Zn127 1.943 . S
O135 C134 1.249 . S
O136 Zn126 2.067 . S
O136 C134 1.270 . S
C137 O130 1.262 . S
C137 O138 1.232 . S
O138 C137 1.232 . S
C139 O131 1.260 . S
C139 O132 1.257 . S
Zn140 O143 2.031 . S
Zn140 O145 2.049 . S
Zn140 O150 2.067 . S
Zn141 O142 1.962 . S
Zn141 O144 1.986 . S
Zn141 O146 1.996 . S
Zn141 O149 1.943 . S
O142 Zn141 1.962 . S
O142 C147 1.254 . S
O143 Zn140 2.031 . S
O143 C147 1.269 . S
O144 Zn141 1.986 . S
O144 C151 1.262 . S
O145 Zn140 2.049 . S
O145 C153 1.260 . S
O146 Zn141 1.996 . S
O146 C153 1.257 . S
C147 O142 1.254 . S
C147 O143 1.269 . S
C148 O149 1.249 . S
C148 O150 1.270 . S
O149 Zn141 1.943 . S
O149 C148 1.249 . S
O150 Zn140 2.067 . S
O150 C148 1.270 . S
C151 O144 1.262 . S
C151 O152 1.232 . S
O152 C151 1.232 . S
C153 O145 1.260 . S
C153 O146 1.257 . S
Zn154 O157 2.031 . S
Zn154 O159 2.049 . S
Zn154 O164 2.067 . S
Zn155 O156 1.962 . S
Zn155 O158 1.986 . S
Zn155 O160 1.996 . S
Zn155 O163 1.943 . S
O156 Zn155 1.962 . S
O156 C161 1.254 . S
O157 Zn154 2.031 . S
O157 C161 1.269 . S
O158 Zn155 1.986 . S
O158 C165 1.262 . S
O159 Zn154 2.049 . S
O159 C167 1.260 . S
O160 Zn155 1.996 . S
O160 C167 1.257 . S
C161 O156 1.254 . S
C161 O157 1.269 . S
C162 O163 1.249 . S
C162 O164 1.270 . S
O163 Zn155 1.943 . S
O163 C162 1.249 . S
O164 Zn154 2.067 . S
O164 C162 1.270 . S
C165 O158 1.262 . S
C165 O166 1.232 . S
O166 C165 1.232 . S
C167 O159 1.260 . S
C167 O160 1.257 . S
Zn168 O171 2.031 . S
Zn168 O173 2.049 . S
Zn168 O178 2.067 . S
Zn169 O170 1.962 . S
Zn169 O172 1.986 . S
Zn169 O174 1.996 . S
Zn169 O177 1.943 . S
O170 Zn169 1.962 . S
O170 C175 1.254 . S
O171 Zn168 2.031 . S
O171 C175 1.269 . S
O172 Zn169 1.986 . S
O172 C179 1.262 . S
O173 Zn168 2.049 . S
O173 C181 1.260 . S
O174 Zn169 1.996 . S
O174 C181 1.257 . S
C175 O170 1.254 . S
C175 O171 1.269 . S
C176 O177 1.249 . S
C176 O178 1.270 . S
O177 Zn169 1.943 . S
O177 C176 1.249 . S
O178 Zn168 2.067 . S
O178 C176 1.270 . S
C179 O172 1.262 . S
C179 O180 1.232 . S
O180 C179 1.232 . S
C181 O173 1.260 . S
C181 O174 1.257 . S
Zn182 O185 2.031 . S
Zn182 O187 2.049 . S
Zn182 O192 2.067 . S
Zn183 O184 1.962 . S
Zn183 O186 1.986 . S
Zn183 O188 1.996 . S
Zn183 O191 1.943 . S
O184 Zn183 1.962 . S
O184 C189 1.254 . S
O185 Zn182 2.031 . S
O185 C189 1.269 . S
O186 Zn183 1.986 . S
O186 C193 1.262 . S
O187 Zn182 2.049 . S
O187 C195 1.260 . S
O188 Zn183 1.996 . S
O188 C195 1.257 . S
C189 O184 1.254 . S
C189 O185 1.269 . S
C190 O191 1.249 . S
C190 O192 1.270 . S
O191 Zn183 1.943 . S
O191 C190 1.249 . S
O192 Zn182 2.067 . S
O192 C190 1.270 . S
C193 O186 1.262 . S
C193 O194 1.232 . S
O194 C193 1.232 . S
C195 O187 1.260 . S
C195 O188 1.257 . S
Zn196 O199 2.031 . S
Zn196 O201 2.049 . S
Zn196 O206 2.067 . S
Zn197 O198 1.962 . S
Zn197 O200 1.986 . S
Zn197 O202 1.996 . S
Zn197 O205 1.943 . S
O198 Zn197 1.962 . S
O198 C203 1.254 . S
O199 Zn196 2.031 . S
O199 C203 1.269 . S
O200 Zn197 1.986 . S
O200 C207 1.262 . S
O201 Zn196 2.049 . S
O201 C209 1.260 . S
O202 Zn197 1.996 . S
O202 C209 1.257 . S
C203 O198 1.254 . S
C203 O199 1.269 . S
C204 O205 1.249 . S
C204 O206 1.270 . S
O205 Zn197 1.943 . S
O205 C204 1.249 . S
O206 Zn196 2.067 . S
O206 C204 1.270 . S
C207 O200 1.262 . S
C207 O208 1.232 . S
O208 C207 1.232 . S
C209 O201 1.260 . S
C209 O202 1.257 . S
Zn210 O213 2.031 . S
Zn210 O215 2.049 . S
Zn210 O220 2.067 . S
Zn211 O212 1.962 . S
Zn211 O214 1.986 . S
Zn211 O216 1.996 . S
Zn211 O219 1.943 . S
O212 Zn211 1.962 . S
O212 C217 1.254 . S
O213 Zn210 2.031 . S
O213 C217 1.269 . S
O214 Zn211 1.986 . S
O214 C221 1.262 . S
O215 Zn210 2.049 . S
O215 C223 1.260 . S
O216 Zn211 1.996 . S
O216 C223 1.257 . S
C217 O212 1.254 . S
C217 O213 1.269 . S
C218 O219 1.249 . S
C218 O220 1.270 . S
O219 Zn211 1.943 . S
O219 C218 1.249 . S
O220 Zn210 2.067 . S
O220 C218 1.270 . S
C221 O214 1.262 . S
C221 O222 1.232 . S
O222 C221 1.232 . S
C223 O215 1.260 . S
C223 O216 1.257 . S
Zn224 O227 2.031 . S
Zn224 O229 2.049 . S
Zn224 O234 2.067 . S
Zn225 O226 1.962 . S
Zn225 O228 1.986 . S
Zn225 O230 1.996 . S
Zn225 O233 1.943 . S
O226 Zn225 1.962 . S
O226 C231 1.254 . S
O227 Zn224 2.031 . S
O227 C231 1.269 . S
O228 Zn225 1.986 . S
O228 C235 1.262 . S
O229 Zn224 2.049 . S
O229 C237 1.260 . S
O230 Zn225 1.996 . S
O230 C237 1.257 . S
C231 O226 1.254 . S
C231 O227 1.269 . S
C232 O233 1.249 . S
C232 O234 1.270 . S
O233 Zn225 1.943 . S
O233 C232 1.249 . S
O234 Zn224 2.067 . S
O234 C232 1.270 . S
C235 O228 1.262 . S
C235 O236 1.232 . S
O236 C235 1.232 . S
C237 O229 1.260 . S
C237 O230 1.257 . S
Zn238 O241 2.031 . S
Zn238 O243 2.049 . S
Zn238 O248 2.067 . S
Zn239 O240 1.962 . S
Zn239 O242 1.986 . S
Zn239 O244 1.996 . S
Zn239 O247 1.943 . S
O240 Zn239 1.962 . S
O240 C245 1.254 . S
O241 Zn238 2.031 . S
O241 C245 1.269 . S
O242 Zn239 1.986 . S
O242 C249 1.262 . S
O243 Zn238 2.049 . S
O243 C251 1.260 . S
O244 Zn239 1.996 . S
O244 C251 1.257 . S
C245 O240 1.254 . S
C245 O241 1.269 . S
C246 O247 1.249 . S
C246 O248 1.270 . S
O247 Zn239 1.943 . S
O247 C246 1.249 . S
O248 Zn238 2.067 . S
O248 C246 1.270 . S
C249 O242 1.262 . S
C249 O250 1.232 . S
O250 C249 1.232 . S
C251 O243 1.260 . S
C251 O244 1.257 . S
Zn252 O255 2.031 . S
Zn252 O257 2.049 . S
Zn252 O262 2.067 . S
Zn253 O254 1.962 . S
Zn253 O256 1.986 . S
Zn253 O258 1.996 . S
Zn253 O261 1.943 . S
O254 Zn253 1.962 . S
O254 C259 1.254 . S
O255 Zn252 2.031 . S
O255 C259 1.269 . S
O256 Zn253 1.986 . S
O256 C263 1.262 . S
O257 Zn252 2.049 . S
O257 C265 1.260 1_554 S
O258 Zn253 1.996 . S
O258 C265 1.257 1_554 S
C259 O254 1.254 . S
C259 O255 1.269 . S
C260 O261 1.249 . S
C260 O262 1.270 . S
O261 Zn253 1.943 . S
O261 C260 1.249 . S
O262 Zn252 2.067 . S
O262 C260 1.270 . S
C263 O256 1.262 . S
C263 O264 1.232 . S
O264 C263 1.232 . S
C265 O257 1.260 1_556 S
C265 O258 1.257 1_556 S
Zn266 O269 2.031 . S
Zn266 O271 2.049 . S
Zn266 O276 2.067 . S
Zn267 O268 1.962 . S
Zn267 O270 1.986 . S
Zn267 O272 1.996 . S
Zn267 O275 1.943 . S
O268 Zn267 1.962 . S
O268 C273 1.254 . S
O269 Zn266 2.031 . S
O269 C273 1.269 . S
O270 Zn267 1.986 . S
O270 C277 1.262 . S
O271 Zn266 2.049 . S
O271 C279 1.260 1_554 S
O272 Zn267 1.996 . S
O272 C279 1.257 1_554 S
C273 O268 1.254 . S
C273 O269 1.269 . S
C274 O275 1.249 . S
C274 O276 1.270 . S
O275 Zn267 1.943 . S
O275 C274 1.249 . S
O276 Zn266 2.067 . S
O276 C274 1.270 . S
C277 O270 1.262 . S
C277 O278 1.232 . S
O278 C277 1.232 . S
C279 O271 1.260 1_556 S
C279 O272 1.257 1_556 S
Zn280 O283 2.031 . S
Zn280 O285 2.049 . S
Zn280 O290 2.067 . S
Zn281 O282 1.962 . S
Zn281 O284 1.986 . S
Zn281 O286 1.996 . S
Zn281 O289 1.943 . S
O282 Zn281 1.962 . S
O282 C287 1.254 . S
O283 Zn280 2.031 . S
O283 C287 1.269 . S
O284 Zn281 1.986 . S
O284 C291 1.262 . S
O285 Zn280 2.049 . S
O285 C293 1.260 1_554 S
O286 Zn281 1.996 . S
O286 C293 1.257 1_554 S
C287 O282 1.254 . S
C287 O283 1.269 . S
C288 O289 1.249 . S
C288 O290 1.270 . S
O289 Zn281 1.943 . S
O289 C288 1.249 . S
O290 Zn280 2.067 . S
O290 C288 1.270 . S
C291 O284 1.262 . S
C291 O292 1.232 . S
O292 C291 1.232 . S
C293 O285 1.260 1_556 S
C293 O286 1.257 1_556 S
Zn294 O297 2.031 . S
Zn294 O299 2.049 1_556 S
Zn294 O304 2.067 . S
Zn295 O296 1.962 . S
Zn295 O298 1.986 1_556 S
Zn295 O300 1.996 1_556 S
Zn295 O303 1.943 . S
O296 Zn295 1.962 . S
O296 C301 1.254 . S
O297 Zn294 2.031 . S
O297 C301 1.269 . S
O298 Zn295 1.986 1_554 S
O298 C305 1.262 . S
O299 Zn294 2.049 1_554 S
O299 C307 1.260 . S
O300 Zn295 1.996 1_554 S
O300 C307 1.257 . S
C301 O296 1.254 . S
C301 O297 1.269 . S
C302 O303 1.249 . S
C302 O304 1.270 . S
O303 Zn295 1.943 . S
O303 C302 1.249 . S
O304 Zn294 2.067 . S
O304 C302 1.270 . S
C305 O298 1.262 . S
C305 O306 1.232 1_554 S
O306 C305 1.232 1_556 S
C307 O299 1.260 . S
C307 O300 1.257 . S
Zn308 O311 2.031 . S
Zn308 O313 2.049 1_556 S
Zn308 O318 2.067 . S
Zn309 O310 1.962 . S
Zn309 O312 1.986 1_556 S
Zn309 O314 1.996 1_556 S
Zn309 O317 1.943 . S
O310 Zn309 1.962 . S
O310 C315 1.254 . S
O311 Zn308 2.031 . S
O311 C315 1.269 . S
O312 Zn309 1.986 1_554 S
O312 C319 1.262 . S
O313 Zn308 2.049 1_554 S
O313 C321 1.260 . S
O314 Zn309 1.996 1_554 S
O314 C321 1.257 . S
C315 O310 1.254 . S
C315 O311 1.269 . S
C316 O317 1.249 . S
C316 O318 1.270 . S
O317 Zn309 1.943 . S
O317 C316 1.249 . S
O318 Zn308 2.067 . S
O318 C316 1.270 . S
C319 O312 1.262 . S
C319 O320 1.232 1_554 S
O320 C319 1.232 1_556 S
C321 O313 1.260 . S
C321 O314 1.257 . S
Zn322 O325 2.031 . S
Zn322 O327 2.049 1_556 S
Zn322 O332 2.067 . S
Zn323 O324 1.962 . S
Zn323 O326 1.986 1_556 S
Zn323 O328 1.996 1_556 S
Zn323 O331 1.943 . S
O324 Zn323 1.962 . S
O324 C329 1.254 . S
O325 Zn322 2.031 . S
O325 C329 1.269 . S
O326 Zn323 1.986 1_554 S
O326 C333 1.262 . S
O327 Zn322 2.049 1_554 S
O327 C335 1.260 . S
O328 Zn323 1.996 1_554 S
O328 C335 1.257 . S
C329 O324 1.254 . S
C329 O325 1.269 . S
C330 O331 1.249 . S
C330 O332 1.270 . S
O331 Zn323 1.943 . S
O331 C330 1.249 . S
O332 Zn322 2.067 . S
O332 C330 1.270 . S
C333 O326 1.262 . S
C333 O334 1.232 1_554 S
O334 C333 1.232 1_556 S
C335 O327 1.260 . S
C335 O328 1.257 . S
Zn336 O339 2.031 . S
Zn336 O341 2.049 . S
Zn336 O346 2.067 . S
Zn337 O338 1.962 . S
Zn337 O340 1.986 . S
Zn337 O342 1.996 . S
Zn337 O345 1.943 . S
O338 Zn337 1.962 . S
O338 C343 1.254 . S
O339 Zn336 2.031 . S
O339 C343 1.269 . S
O340 Zn337 1.986 . S
O340 C347 1.262 . S
O341 Zn336 2.049 . S
O341 C349 1.260 1_556 S
O342 Zn337 1.996 . S
O342 C349 1.257 1_556 S
C343 O338 1.254 . S
C343 O339 1.269 . S
C344 O345 1.249 . S
C344 O346 1.270 . S
O345 Zn337 1.943 . S
O345 C344 1.249 . S
O346 Zn336 2.067 . S
O346 C344 1.270 . S
C347 O340 1.262 . S
C347 O348 1.232 . S
O348 C347 1.232 . S
C349 O341 1.260 1_554 S
C349 O342 1.257 1_554 S
Zn350 O353 2.031 . S
Zn350 O355 2.049 . S
Zn350 O360 2.067 . S
Zn351 O352 1.962 . S
Zn351 O354 1.986 . S
Zn351 O356 1.996 . S
Zn351 O359 1.943 . S
O352 Zn351 1.962 . S
O352 C357 1.254 . S
O353 Zn350 2.031 . S
O353 C357 1.269 . S
O354 Zn351 1.986 . S
O354 C361 1.262 . S
O355 Zn350 2.049 . S
O355 C363 1.260 1_556 S
O356 Zn351 1.996 . S
O356 C363 1.257 1_556 S
C357 O352 1.254 . S
C357 O353 1.269 . S
C358 O359 1.249 . S
C358 O360 1.270 . S
O359 Zn351 1.943 . S
O359 C358 1.249 . S
O360 Zn350 2.067 . S
O360 C358 1.270 . S
C361 O354 1.262 . S
C361 O362 1.232 . S
O362 C361 1.232 . S
C363 O355 1.260 1_554 S
C363 O356 1.257 1_554 S
Zn364 O367 2.031 . S
Zn364 O369 2.049 . S
Zn364 O374 2.067 . S
Zn365 O366 1.962 . S
Zn365 O368 1.986 . S
Zn365 O370 1.996 . S
Zn365 O373 1.943 . S
O366 Zn365 1.962 . S
O366 C371 1.254 . S
O367 Zn364 2.031 . S
O367 C371 1.269 . S
O368 Zn365 1.986 . S
O368 C375 1.262 . S
O369 Zn364 2.049 . S
O369 C377 1.260 1_556 S
O370 Zn365 1.996 . S
O370 C377 1.257 1_556 S
C371 O366 1.254 . S
C371 O367 1.269 . S
C372 O373 1.249 . S
C372 O374 1.270 . S
O373 Zn365 1.943 . S
O373 C372 1.249 . S
O374 Zn364 2.067 . S
O374 C372 1.270 . S
C375 O368 1.262 . S
C375 O376 1.232 . S
O376 C375 1.232 . S
C377 O369 1.260 1_554 S
C377 O370 1.257 1_554 S
Zn378 O381 2.031 . S
Zn378 O383 2.049 1_554 S
Zn378 O388 2.067 . S
Zn379 O380 1.962 . S
Zn379 O382 1.986 1_554 S
Zn379 O384 1.996 1_554 S
Zn379 O387 1.943 . S
O380 Zn379 1.962 . S
O380 C385 1.254 . S
O381 Zn378 2.031 . S
O381 C385 1.269 . S
O382 Zn379 1.986 1_556 S
O382 C389 1.262 . S
O383 Zn378 2.049 1_556 S
O383 C391 1.260 . S
O384 Zn379 1.996 1_556 S
O384 C391 1.257 . S
C385 O380 1.254 . S
C385 O381 1.269 . S
C386 O387 1.249 . S
C386 O388 1.270 . S
O387 Zn379 1.943 . S
O387 C386 1.249 . S
O388 Zn378 2.067 . S
O388 C386 1.270 . S
C389 O382 1.262 . S
C389 O390 1.232 1_556 S
O390 C389 1.232 1_554 S
C391 O383 1.260 . S
C391 O384 1.257 . S
Zn392 O395 2.031 . S
Zn392 O397 2.049 1_554 S
Zn392 O402 2.067 . S
Zn393 O394 1.962 . S
Zn393 O396 1.986 1_554 S
Zn393 O398 1.996 1_554 S
Zn393 O401 1.943 . S
O394 Zn393 1.962 . S
O394 C399 1.254 . S
O395 Zn392 2.031 . S
O395 C399 1.269 . S
O396 Zn393 1.986 1_556 S
O396 C403 1.262 . S
O397 Zn392 2.049 1_556 S
O397 C405 1.260 . S
O398 Zn393 1.996 1_556 S
O398 C405 1.257 . S
C399 O394 1.254 . S
C399 O395 1.269 . S
C400 O401 1.249 . S
C400 O402 1.270 . S
O401 Zn393 1.943 . S
O401 C400 1.249 . S
O402 Zn392 2.067 . S
O402 C400 1.270 . S
C403 O396 1.262 . S
C403 O404 1.232 1_556 S
O404 C403 1.232 1_554 S
C405 O397 1.260 . S
C405 O398 1.257 . S
Zn406 O409 2.031 . S
Zn406 O411 2.049 1_554 S
Zn406 O416 2.067 . S
Zn407 O408 1.962 . S
Zn407 O410 1.986 1_554 S
Zn407 O412 1.996 1_554 S
Zn407 O415 1.943 . S
O408 Zn407 1.962 . S
O408 C413 1.254 . S
O409 Zn406 2.031 . S
O409 C413 1.269 . S
O410 Zn407 1.986 1_556 S
O410 C417 1.262 . S
O411 Zn406 2.049 1_556 S
O411 C419 1.260 . S
O412 Zn407 1.996 1_556 S
O412 C419 1.257 . S
C413 O408 1.254 . S
C413 O409 1.269 . S
C414 O415 1.249 . S
C414 O416 1.270 . S
O415 Zn407 1.943 . S
O415 C414 1.249 . S
O416 Zn406 2.067 . S
O416 C414 1.270 . S
C417 O410 1.262 . S
C417 O418 1.232 1_556 S
O418 C417 1.232 1_554 S
C419 O411 1.260 . S
C419 O412 1.257 . S
Zn420 O423 2.031 . S
Zn420 O425 2.049 . S
Zn420 O430 2.067 . S
Zn421 O422 1.962 . S
Zn421 O424 1.986 . S
Zn421 O426 1.996 . S
Zn421 O429 1.943 . S
O422 Zn421 1.962 . S
O422 C427 1.254 . S
O423 Zn420 2.031 . S
O423 C427 1.269 . S
O424 Zn421 1.986 . S
O424 C431 1.262 . S
O425 Zn420 2.049 . S
O425 C433 1.260 . S
O426 Zn421 1.996 . S
O426 C433 1.257 . S
C427 O422 1.254 . S
C427 O423 1.269 . S
C428 O429 1.249 . S
C428 O430 1.270 . S
O429 Zn421 1.943 . S
O429 C428 1.249 . S
O430 Zn420 2.067 . S
O430 C428 1.270 . S
C431 O424 1.262 . S
C431 O432 1.232 . S
O432 C431 1.232 . S
C433 O425 1.260 . S
C433 O426 1.257 . S
Zn434 O437 2.031 . S
Zn434 O439 2.049 . S
Zn434 O444 2.067 . S
Zn435 O436 1.962 . S
Zn435 O438 1.986 . S
Zn435 O440 1.996 . S
Zn435 O443 1.943 . S
O436 Zn435 1.962 . S
O436 C441 1.254 . S
O437 Zn434 2.031 . S
O437 C441 1.269 . S
O438 Zn435 1.986 . S
O438 C445 1.262 . S
O439 Zn434 2.049 . S
O439 C447 1.260 . S
O440 Zn435 1.996 . S
O440 C447 1.257 . S
C441 O436 1.254 . S
C441 O437 1.269 . S
C442 O443 1.249 . S
C442 O444 1.270 . S
O443 Zn435 1.943 . S
O443 C442 1.249 . S
O444 Zn434 2.067 . S
O444 C442 1.270 . S
C445 O438 1.262 . S
C445 O446 1.232 . S
O446 C445 1.232 . S
C447 O439 1.260 . S
C447 O440 1.257 . S
Zn448 O451 2.031 . S
Zn448 O453 2.049 . S
Zn448 O458 2.067 . S
Zn449 O450 1.962 . S
Zn449 O452 1.986 . S
Zn449 O454 1.996 . S
Zn449 O457 1.943 . S
O450 Zn449 1.962 . S
O450 C455 1.254 . S
O451 Zn448 2.031 . S
O451 C455 1.269 . S
O452 Zn449 1.986 . S
O452 C459 1.262 . S
O453 Zn448 2.049 . S
O453 C461 1.260 . S
O454 Zn449 1.996 . S
O454 C461 1.257 . S
C455 O450 1.254 . S
C455 O451 1.269 . S
C456 O457 1.249 . S
C456 O458 1.270 . S
O457 Zn449 1.943 . S
O457 C456 1.249 . S
O458 Zn448 2.067 . S
O458 C456 1.270 . S
C459 O452 1.262 . S
C459 O460 1.232 . S
O460 C459 1.232 . S
C461 O453 1.260 . S
C461 O454 1.257 . S
Zn462 O465 2.031 . S
Zn462 O467 2.049 . S
Zn462 O472 2.067 . S
Zn463 O464 1.962 . S
Zn463 O466 1.986 . S
Zn463 O468 1.996 . S
Zn463 O471 1.943 . S
O464 Zn463 1.962 . S
O464 C469 1.254 . S
O465 Zn462 2.031 . S
O465 C469 1.269 . S
O466 Zn463 1.986 . S
O466 C473 1.262 . S
O467 Zn462 2.049 . S
O467 C475 1.260 . S
O468 Zn463 1.996 . S
O468 C475 1.257 . S
C469 O464 1.254 . S
C469 O465 1.269 . S
C470 O471 1.249 . S
C470 O472 1.270 . S
O471 Zn463 1.943 . S
O471 C470 1.249 . S
O472 Zn462 2.067 . S
O472 C470 1.270 . S
C473 O466 1.262 . S
C473 O474 1.232 . S
O474 C473 1.232 . S
C475 O467 1.260 . S
C475 O468 1.257 . S
Zn476 O479 2.031 . S
Zn476 O481 2.049 . S
Zn476 O486 2.067 . S
Zn477 O478 1.962 . S
Zn477 O480 1.986 . S
Zn477 O482 1.996 . S
Zn477 O485 1.943 . S
O478 Zn477 1.962 . S
O478 C483 1.254 . S
O479 Zn476 2.031 . S
O479 C483 1.269 . S
O480 Zn477 1.986 . S
O480 C487 1.262 . S
O481 Zn476 2.049 . S
O481 C489 1.260 . S
O482 Zn477 1.996 . S
O482 C489 1.257 . S
C483 O478 1.254 . S
C483 O479 1.269 . S
C484 O485 1.249 . S
C484 O486 1.270 . S
O485 Zn477 1.943 . S
O485 C484 1.249 . S
O486 Zn476 2.067 . S
O486 C484 1.270 . S
C487 O480 1.262 . S
C487 O488 1.232 . S
O488 C487 1.232 . S
C489 O481 1.260 . S
C489 O482 1.257 . S
Zn490 O493 2.031 . S
Zn490 O495 2.049 . S
Zn490 O500 2.067 . S
Zn491 O492 1.962 . S
Zn491 O494 1.986 . S
Zn491 O496 1.996 . S
Zn491 O499 1.943 . S
O492 Zn491 1.962 . S
O492 C497 1.254 . S
O493 Zn490 2.031 . S
O493 C497 1.269 . S
O494 Zn491 1.986 . S
O494 C501 1.262 . S
O495 Zn490 2.049 . S
O495 C503 1.260 . S
O496 Zn491 1.996 . S
O496 C503 1.257 . S
C497 O492 1.254 . S
C497 O493 1.269 . S
C498 O499 1.249 . S
C498 O500 1.270 . S
O499 Zn491 1.943 . S
O499 C498 1.249 . S
O500 Zn490 2.067 . S
O500 C498 1.270 . S
C501 O494 1.262 . S
C501 O502 1.232 . S
O502 C501 1.232 . S
C503 O495 1.260 . S
C503 O496 1.257 . S
C81 C11 1.626 1_565 S
C25 C53 1.626 1_655 S
C67 C39 1.627 . S
C95 C165 1.626 1_565 S
C109 C137 1.626 1_455 S
C151 C123 1.627 . S
C249 C179 1.625 . S
C193 C221 1.626 . S
C235 C207 1.627 . S
C263 C333 1.625 . S
C277 C305 1.626 . S
C291 C319 1.627 . S
C347 C417 1.625 . S
C389 C361 1.625 . S
C375 C403 1.627 . S
C431 C501 1.625 . S
C445 C473 1.626 . S
C459 C487 1.627 . S
C153 C8 1.264 . S
C167 C22 1.264 . S
C139 C36 1.264 . S
C125 C50 1.264 . S
C64 C97 1.263 . S
C78 C111 1.264 . S
C92 C69 1.264 . S
C106 C83 1.264 . S
C120 C55 1.264 . S
C41 C134 1.264 . S
C13 C148 1.264 . S
C162 C27 1.264 . S
C176 C321 1.263 . S
C190 C335 1.263 . S
C307 C204 1.263 . S
C218 C293 1.264 . S
C232 C265 1.263 . S
C246 C279 1.264 . S
C260 C237 1.264 . S
C251 C274 1.263 . S
C223 C288 1.264 . S
C302 C209 1.263 . S
C181 C316 1.263 . S
C195 C330 1.264 . S
C489 C344 1.264 . S
C358 C503 1.263 . S
C372 C475 1.264 . S
C461 C386 1.263 . S
C433 C400 1.263 . S
C447 C414 1.264 . S
C428 C405 1.263 . S
C419 C442 1.263 . S
C456 C391 1.263 . S
C377 C470 1.264 . S
C349 C484 1.263 . S
C363 C498 1.264 . S
C231 C7 1.690 1_556 S
C21 C245 1.690 1_554 S
C217 C35 1.690 1_556 S
C371 C49 1.690 . S
C63 C343 1.690 . S
C77 C357 1.690 . S
C91 C483 1.690 1_556 S
C497 C105 1.690 1_554 S
C469 C119 1.690 1_554 S
C287 C133 1.690 . S
C147 C259 1.690 . S
C161 C273 1.690 . S
C175 C399 1.689 1_655 S
C413 C189 1.690 . S
C385 C203 1.689 1_565 S
C301 C455 1.689 1_545 S
C427 C315 1.690 1_455 S
C441 C329 1.690 . S
