# Generated by pormake.
# Topology wnm, (7)-cn, num edge types: 1
# Building blocks:
#     Node 0, Type 0, BuildingBlock: HICVOG_clean_sbu_0, # of connection points: 7
#     Node 1, Type 0, BuildingBlock: HICVOG_clean_sbu_0, # of connection points: 7
#     Node 2, Type 0, BuildingBlock: HICVOG_clean_sbu_0, # of connection points: 7
#     Node 3, Type 0, BuildingBlock: HICVOG_clean_sbu_0, # of connection points: 7
#     Node 4, Type 0, BuildingBlock: HICVOG_clean_sbu_0, # of connection points: 7
#     Node 5, Type 0, BuildingBlock: HICVOG_clean_sbu_0, # of connection points: 7
#     Node 6, Type 0, BuildingBlock: HICVOG_clean_sbu_0, # of connection points: 7
#     Node 7, Type 0, BuildingBlock: HICVOG_clean_sbu_0, # of connection points: 7
#     Node 8, Type 0, BuildingBlock: HICVOG_clean_sbu_0, # of connection points: 7
#     Node 9, Type 0, BuildingBlock: HICVOG_clean_sbu_0, # of connection points: 7
#     Node 10, Type 0, BuildingBlock: HICVOG_clean_sbu_0, # of connection points: 7
#     Node 11, Type 0, BuildingBlock: HICVOG_clean_sbu_0, # of connection points: 7
#     Node 12, Type 0, BuildingBlock: HICVOG_clean_sbu_0, # of connection points: 7
#     Node 13, Type 0, BuildingBlock: HICVOG_clean_sbu_0, # of connection points: 7
#     Node 14, Type 0, BuildingBlock: HICVOG_clean_sbu_0, # of connection points: 7
#     Node 15, Type 0, BuildingBlock: HICVOG_clean_sbu_0, # of connection points: 7
#     Node 16, Type 0, BuildingBlock: HICVOG_clean_sbu_0, # of connection points: 7
#     Node 17, Type 0, BuildingBlock: HICVOG_clean_sbu_0, # of connection points: 7
#     Edge 18, Type (0, 0), BuildingBlock: XIVTED_clean_linker_0, # of connection points: 2
#     Edge 19, Type (0, 0), BuildingBlock: XIVTED_clean_linker_0, # of connection points: 2
#     Edge 20, Type (0, 0), BuildingBlock: XIVTED_clean_linker_0, # of connection points: 2
#     Edge 21, Type (0, 0), BuildingBlock: XIVTED_clean_linker_0, # of connection points: 2
#     Edge 22, Type (0, 0), BuildingBlock: XIVTED_clean_linker_0, # of connection points: 2
#     Edge 23, Type (0, 0), BuildingBlock: XIVTED_clean_linker_0, # of connection points: 2
#     Edge 24, Type (0, 0), BuildingBlock: XIVTED_clean_linker_0, # of connection points: 2
#     Edge 25, Type (0, 0), BuildingBlock: XIVTED_clean_linker_0, # of connection points: 2
#     Edge 26, Type (0, 0), BuildingBlock: XIVTED_clean_linker_0, # of connection points: 2
#     Edge 27, Type (0, 0), BuildingBlock: XIVTED_clean_linker_0, # of connection points: 2
#     Edge 28, Type (0, 0), BuildingBlock: XIVTED_clean_linker_0, # of connection points: 2
#     Edge 29, Type (0, 0), BuildingBlock: XIVTED_clean_linker_0, # of connection points: 2
#     Edge 30, Type (0, 0), BuildingBlock: XIVTED_clean_linker_0, # of connection points: 2
#     Edge 31, Type (0, 0), BuildingBlock: XIVTED_clean_linker_0, # of connection points: 2
#     Edge 32, Type (0, 0), BuildingBlock: XIVTED_clean_linker_0, # of connection points: 2
#     Edge 33, Type (0, 0), BuildingBlock: XIVTED_clean_linker_0, # of connection points: 2
#     Edge 34, Type (0, 0), BuildingBlock: XIVTED_clean_linker_0, # of connection points: 2
#     Edge 35, Type (0, 0), BuildingBlock: XIVTED_clean_linker_0, # of connection points: 2
#     Edge 36, Type (0, 0), BuildingBlock: XIVTED_clean_linker_0, # of connection points: 2
#     Edge 37, Type (0, 0), BuildingBlock: XIVTED_clean_linker_0, # of connection points: 2
#     Edge 38, Type (0, 0), BuildingBlock: XIVTED_clean_linker_0, # of connection points: 2
#     Edge 39, Type (0, 0), BuildingBlock: XIVTED_clean_linker_0, # of connection points: 2
#     Edge 40, Type (0, 0), BuildingBlock: XIVTED_clean_linker_0, # of connection points: 2
#     Edge 41, Type (0, 0), BuildingBlock: XIVTED_clean_linker_0, # of connection points: 2
#     Edge 42, Type (0, 0), BuildingBlock: XIVTED_clean_linker_0, # of connection points: 2
#     Edge 43, Type (0, 0), BuildingBlock: XIVTED_clean_linker_0, # of connection points: 2
#     Edge 44, Type (0, 0), BuildingBlock: XIVTED_clean_linker_0, # of connection points: 2
#     Edge 45, Type (0, 0), BuildingBlock: XIVTED_clean_linker_0, # of connection points: 2
#     Edge 46, Type (0, 0), BuildingBlock: XIVTED_clean_linker_0, # of connection points: 2
#     Edge 47, Type (0, 0), BuildingBlock: XIVTED_clean_linker_0, # of connection points: 2
#     Edge 48, Type (0, 0), BuildingBlock: XIVTED_clean_linker_0, # of connection points: 2
#     Edge 49, Type (0, 0), BuildingBlock: XIVTED_clean_linker_0, # of connection points: 2
#     Edge 50, Type (0, 0), BuildingBlock: XIVTED_clean_linker_0, # of connection points: 2
#     Edge 51, Type (0, 0), BuildingBlock: XIVTED_clean_linker_0, # of connection points: 2
#     Edge 52, Type (0, 0), BuildingBlock: XIVTED_clean_linker_0, # of connection points: 2
#     Edge 53, Type (0, 0), BuildingBlock: XIVTED_clean_linker_0, # of connection points: 2
#     Edge 54, Type (0, 0), BuildingBlock: XIVTED_clean_linker_0, # of connection points: 2
#     Edge 55, Type (0, 0), BuildingBlock: XIVTED_clean_linker_0, # of connection points: 2
#     Edge 56, Type (0, 0), BuildingBlock: XIVTED_clean_linker_0, # of connection points: 2
#     Edge 57, Type (0, 0), BuildingBlock: XIVTED_clean_linker_0, # of connection points: 2
#     Edge 58, Type (0, 0), BuildingBlock: XIVTED_clean_linker_0, # of connection points: 2
#     Edge 59, Type (0, 0), BuildingBlock: XIVTED_clean_linker_0, # of connection points: 2
#     Edge 60, Type (0, 0), BuildingBlock: XIVTED_clean_linker_0, # of connection points: 2
#     Edge 61, Type (0, 0), BuildingBlock: XIVTED_clean_linker_0, # of connection points: 2
#     Edge 62, Type (0, 0), BuildingBlock: XIVTED_clean_linker_0, # of connection points: 2
#     Edge 63, Type (0, 0), BuildingBlock: XIVTED_clean_linker_0, # of connection points: 2
#     Edge 64, Type (0, 0), BuildingBlock: XIVTED_clean_linker_0, # of connection points: 2
#     Edge 65, Type (0, 0), BuildingBlock: XIVTED_clean_linker_0, # of connection points: 2
#     Edge 66, Type (0, 0), BuildingBlock: XIVTED_clean_linker_0, # of connection points: 2
#     Edge 67, Type (0, 0), BuildingBlock: XIVTED_clean_linker_0, # of connection points: 2
#     Edge 68, Type (0, 0), BuildingBlock: XIVTED_clean_linker_0, # of connection points: 2
#     Edge 69, Type (0, 0), BuildingBlock: XIVTED_clean_linker_0, # of connection points: 2
#     Edge 70, Type (0, 0), BuildingBlock: XIVTED_clean_linker_0, # of connection points: 2
#     Edge 71, Type (0, 0), BuildingBlock: XIVTED_clean_linker_0, # of connection points: 2
#     Edge 72, Type (0, 0), BuildingBlock: XIVTED_clean_linker_0, # of connection points: 2
#     Edge 73, Type (0, 0), BuildingBlock: XIVTED_clean_linker_0, # of connection points: 2
#     Edge 74, Type (0, 0), BuildingBlock: XIVTED_clean_linker_0, # of connection points: 2
#     Edge 75, Type (0, 0), BuildingBlock: XIVTED_clean_linker_0, # of connection points: 2
#     Edge 76, Type (0, 0), BuildingBlock: XIVTED_clean_linker_0, # of connection points: 2
#     Edge 77, Type (0, 0), BuildingBlock: XIVTED_clean_linker_0, # of connection points: 2
#     Edge 78, Type (0, 0), BuildingBlock: XIVTED_clean_linker_0, # of connection points: 2
#     Edge 79, Type (0, 0), BuildingBlock: XIVTED_clean_linker_0, # of connection points: 2
#     Edge 80, Type (0, 0), BuildingBlock: XIVTED_clean_linker_0, # of connection points: 2
# Relax obj value: 0.135
# Max RMSD: 0.198
# Mean RMSD: 0.198
data_MOF--net-wnm--node1-HICVOG_clean_sbu_0--edge1-XIVTED_clean_linker_0
_symmetry_space_group_name_H-M    P1
_symmetry_Int_Tables_number       1
_symmetry_cell_setting            triclinic
loop_
_symmetry_equiv_pos_as_xyz
'x, y, z'
_cell_length_a     69.588625
_cell_length_b     69.650915
_cell_length_c     20.807855
_cell_angle_alpha  89.9987
_cell_angle_beta   90.011136
_cell_angle_gamma 119.96136
loop_
_atom_site_label
_atom_site_type_symbol
_atom_site_fract_x
_atom_site_fract_y
_atom_site_fract_z
_atom_type_partial_charge
Zn0 Zn 0.12766 0.44246 0.1547 0.0
C1 C 0.08971 0.39231 0.27582 0.0
N2 N 0.07372 0.38941 0.23461 0.0
C3 C 0.08374 0.40759 0.19761 0.0
N4 N 0.1053 0.42083 0.21369 0.0
N5 N 0.10873 0.4114 0.26441 0.0
C6 C 0.14092 0.38732 0.30671 0.0
O7 O 0.13821 0.39187 0.24722 0.0
O8 O 0.1251 0.47036 0.15205 0.0
Zn9 Zn 0.13472 0.42285 0.31672 0.0
N10 N 0.12093 0.42661 0.07368 0.0
C11 C 0.11244 0.39168 0.02999 0.0
C12 C 0.11778 0.40587 0.08209 0.0
C13 C 0.11966 0.4341 0.01413 0.0
N14 N 0.11105 0.39898 0.97086 0.0
C15 C 0.11465 0.41984 0.9607 0.0
O16 O 0.16253 0.43938 0.26769 0.0
C17 C 0.17162 0.44915 0.21577 0.0
O18 O 0.16034 0.45122 0.1708 0.0
H19 H 0.11925 0.40034 0.12945 0.0
H20 H 0.12239 0.45073 0.00878 0.0
C21 C 0.13008 0.43684 0.44455 0.0
C22 C 0.12996 0.45216 0.48864 0.0
C23 C 0.13738 0.47745 0.40284 0.0
C24 C 0.13738 0.46221 0.35954 0.0
N25 N 0.13384 0.44231 0.38119 0.0
N26 N 0.13375 0.47213 0.46611 0.0
H27 H 0.12765 0.42096 0.46009 0.0
C28 C 0.13979 0.48791 0.12452 0.0
O29 O 0.15611 0.48748 0.09412 0.0
O30 O 0.1383 0.39802 0.3522 0.0
H31 H 0.14028 0.46618 0.30891 0.0
H32 H 0.1096 0.37504 0.03627 0.0
H33 H 0.14028 0.49342 0.38637 0.0
Zn34 Zn 0.57559 0.69107 0.1435 0.0
C35 C 0.62109 0.69731 0.27504 0.0
N36 N 0.62331 0.68335 0.23574 0.0
C37 C 0.60683 0.67782 0.19329 0.0
N38 N 0.59519 0.68824 0.20516 0.0
N39 N 0.60411 0.70027 0.25752 0.0
C40 C 0.62651 0.75699 0.29725 0.0
O41 O 0.62092 0.74979 0.238 0.0
O42 O 0.54818 0.661 0.12754 0.0
Zn43 Zn 0.59256 0.71476 0.30942 0.0
N44 N 0.59351 0.70261 0.06736 0.0
C45 C 0.62922 0.72838 0.02672 0.0
C46 C 0.6151 0.71799 0.0783 0.0
C47 C 0.5853 0.69731 0.00662 0.0
N48 N 0.62107 0.72331 0.96615 0.0
C49 C 0.59946 0.70807 0.95426 0.0
O50 O 0.5749 0.72542 0.26279 0.0
C51 C 0.56602 0.72556 0.20985 0.0
O52 O 0.56577 0.71383 0.16257 0.0
H53 H 0.62125 0.72237 0.12691 0.0
H54 H 0.56788 0.68552 -0.00038 0.0
C55 C 0.57828 0.69943 0.43861 0.0
C56 C 0.56436 0.68384 0.48465 0.0
C57 C 0.54367 0.6591 0.40022 0.0
C58 C 0.55746 0.67462 0.35508 0.0
N59 N 0.57436 0.69445 0.37516 0.0
N60 N 0.54743 0.66404 0.46368 0.0
H61 H 0.59235 0.71515 0.45231 0.0
C62 C 0.53079 0.65523 0.16096 0.0
O63 O 0.53098 0.66899 0.20443 0.0
O64 O 0.61729 0.74343 0.34337 0.0
H65 H 0.55492 0.67091 0.30435 0.0
H66 H 0.64644 0.74063 0.0347 0.0
H67 H 0.53013 0.64322 0.38503 0.0
Zn68 Zn 0.32626 0.88747 0.14838 0.0
C69 C 0.319 0.92835 0.27018 0.0
N70 N 0.33606 0.94445 0.23778 0.0
C71 C 0.343 0.93317 0.20126 0.0
N72 N 0.33015 0.91091 0.20894 0.0
N73 N 0.31567 0.90819 0.25437 0.0
C74 C 0.25872 0.87929 0.2922 0.0
O75 O 0.26645 0.88163 0.2334 0.0
O76 O 0.3559 0.88941 0.13013 0.0
Zn77 Zn 0.29933 0.88281 0.30803 0.0
N78 N 0.31316 0.89227 0.07244 0.0
C79 C 0.28634 0.90124 0.03454 0.0
C80 C 0.29778 0.89837 0.0849 0.0
C81 C 0.31754 0.88874 0.01113 0.0
N82 N 0.29061 0.89772 0.9735 0.0
C83 C 0.30592 0.89157 0.95988 0.0
O84 O 0.28781 0.85393 0.26437 0.0
C85 C 0.28939 0.84437 0.2146 0.0
O86 O 0.30323 0.85523 0.1703 0.0
H87 H 0.29431 0.90084 0.1338 0.0
H88 H 0.32948 0.88338 0.00288 0.0
C89 C 0.31358 0.88343 0.43972 0.0
C90 C 0.32883 0.88455 0.4864 0.0
C91 C 0.35347 0.88761 0.40271 0.0
C92 C 0.33833 0.88643 0.35706 0.0
N93 N 0.31872 0.88429 0.37634 0.0
N94 N 0.34839 0.88666 0.46597 0.0
H95 H 0.29803 0.8823 0.45288 0.0
C96 C 0.36184 0.8784 0.16572 0.0
O97 O 0.34852 0.86611 0.21193 0.0
O98 O 0.27131 0.88111 0.33889 0.0
H99 H 0.34214 0.88734 0.30645 0.0
H100 H 0.27405 0.90607 0.04383 0.0
H101 H 0.36918 0.88932 0.38809 0.0
Zn102 Zn 0.88918 0.5952 0.68865 0.0
C103 C 0.93647 0.6013 0.80979 0.0
N104 N 0.94888 0.62037 0.77812 0.0
C105 C 0.93409 0.62146 0.73933 0.0
N106 N 0.91361 0.60372 0.74643 0.0
N107 N 0.91484 0.59124 0.79261 0.0
C108 C 0.88107 0.52585 0.82768 0.0
O109 O 0.86891 0.52723 0.78163 0.0
O110 O 0.88753 0.62148 0.65625 0.0
Zn111 Zn 0.89045 0.57057 0.84863 0.0
N112 N 0.89136 0.57719 0.62172 0.0
C113 C 0.89364 0.54495 0.59875 0.0
C114 C 0.89248 0.55934 0.64288 0.0
C115 C 0.89169 0.58153 0.55785 0.0
N116 N 0.89393 0.54917 0.53502 0.0
C117 C 0.89315 0.56716 0.51286 0.0
O118 O 0.85855 0.56203 0.82322 0.0
C119 C 0.84895 0.56614 0.77751 0.0
O120 O 0.85982 0.57784 0.7299 0.0
H121 H 0.89244 0.55637 0.69383 0.0
H122 H 0.89055 0.59578 0.54269 0.0
C123 C 0.89571 0.5812 0.98795 0.0
C124 C 0.89969 0.59625 0.03863 0.0
C125 C 0.90168 0.62272 0.96283 0.0
C126 C 0.89771 0.60786 0.91329 0.0
N127 N 0.895 0.58755 0.92641 0.0
N128 N 0.9026 0.6166 0.02395 0.0
H129 H 0.89369 0.56499 -0.00325 0.0
C130 C 0.88478 0.63205 0.70181 0.0
O131 O 0.88601 0.62643 0.76127 0.0
O132 O 0.89205 0.54253 0.86422 0.0
H133 H 0.89695 0.61251 0.86428 0.0
H134 H 0.89439 0.53058 0.61495 0.0
H135 H 0.90402 0.639 0.95291 0.0
Zn136 Zn 0.42287 0.29626 0.68697 0.0
C137 C 0.41636 0.33723 0.80769 0.0
N138 N 0.3974 0.33056 0.77522 0.0
C139 C 0.39642 0.31463 0.73695 0.0
N140 N 0.41406 0.31179 0.74533 0.0
N141 N 0.42635 0.32547 0.79177 0.0
C142 C 0.49106 0.3584 0.8215 0.0
O143 O 0.48889 0.34556 0.77256 0.0
O144 O 0.39659 0.26831 0.65521 0.0
Zn145 Zn 0.44744 0.32202 0.84655 0.0
N146 N 0.44025 0.31673 0.61975 0.0
C147 C 0.46965 0.35301 0.59612 0.0
C148 C 0.45612 0.33702 0.64048 0.0
C149 C 0.43717 0.31173 0.55602 0.0
N150 N 0.4667 0.34809 0.53258 0.0
C151 C 0.45086 0.32787 0.51062 0.0
O152 O 0.45656 0.29938 0.81947 0.0
C153 C 0.45267 0.28567 0.77402 0.0
O154 O 0.44073 0.28442 0.72651 0.0
H155 H 0.4581 0.34073 0.69124 0.0
H156 H 0.42398 0.29557 0.54155 0.0
C157 C 0.43871 0.31379 0.98576 0.0
C158 C 0.42484 0.30117 0.03695 0.0
C159 C 0.39644 0.2793 0.9622 0.0
C160 C 0.41019 0.29162 0.91194 0.0
N161 N 0.43096 0.30861 0.92438 0.0
N162 N 0.40409 0.28428 0.02323 0.0
H163 H 0.45549 0.32707 0.99421 0.0
C164 C 0.38631 0.25507 0.70115 0.0
O165 O 0.39227 0.26198 0.76041 0.0
O166 O 0.47524 0.35186 0.86185 0.0
H167 H 0.40443 0.28758 0.863 0.0
H168 H 0.48237 0.36924 0.61196 0.0
H169 H 0.37989 0.26574 0.95286 0.0
Zn170 Zn 0.71955 0.12961 0.68308 0.0
C171 C 0.67965 0.08163 0.80446 0.0
N172 N 0.68651 0.06963 0.77133 0.0
C173 C 0.70192 0.08471 0.73208 0.0
N174 N 0.70425 0.10498 0.74059 0.0
N175 N 0.6908 0.10332 0.78809 0.0
C176 C 0.65782 0.13599 0.82347 0.0
O177 O 0.67135 0.14862 0.7781 0.0
O178 O 0.74765 0.13193 0.64975 0.0
Zn179 Zn 0.69378 0.12748 0.84386 0.0
N180 N 0.69904 0.12698 0.61659 0.0
C181 C 0.66416 0.12397 0.5937 0.0
C182 C 0.67991 0.12552 0.63781 0.0
C183 C 0.70303 0.1266 0.55273 0.0
N184 N 0.66807 0.12363 0.52996 0.0
C185 C 0.68702 0.12474 0.50778 0.0
O186 O 0.71639 0.15939 0.81815 0.0
C187 C 0.73001 0.1694 0.77262 0.0
O188 O 0.73119 0.15892 0.7245 0.0
H189 H 0.67701 0.12559 0.68876 0.0
H190 H 0.71855 0.12801 0.53758 0.0
C191 C 0.69945 0.12276 0.98317 0.0
C192 C 0.71108 0.11966 0.03405 0.0
C193 C 0.73669 0.11951 0.95876 0.0
C194 C 0.72524 0.1226 0.90898 0.0
N195 N 0.7068 0.12393 0.92176 0.0
N196 N 0.72935 0.11808 0.01976 0.0
H197 H 0.68462 0.12371 0.9917 0.0
C198 C 0.76077 0.13409 0.69527 0.0
O199 O 0.75355 0.13169 0.75465 0.0
O200 O 0.66377 0.12507 0.8594 0.0
H201 H 0.73083 0.12371 0.86004 0.0
H202 H 0.64891 0.12295 0.60992 0.0
H203 H 0.75129 0.11824 0.94912 0.0
Zn204 Zn 0.79615 0.77429 0.47945 0.0
C205 C 0.75727 0.73055 0.61491 0.0
N206 N 0.74091 0.72931 0.57817 0.0
C207 C 0.75187 0.74538 0.53463 0.0
N208 N 0.7741 0.75583 0.54345 0.0
N209 N 0.77735 0.74652 0.59466 0.0
C210 C 0.8124 0.72339 0.63072 0.0
O211 O 0.81118 0.72918 0.5714 0.0
O212 O 0.79384 0.80189 0.46197 0.0
Zn213 Zn 0.80384 0.75739 0.64413 0.0
N214 N 0.78853 0.7553 0.4054 0.0
C215 C 0.77555 0.71855 0.36843 0.0
C216 C 0.78096 0.73355 0.41851 0.0
C217 C 0.79156 0.76286 0.34392 0.0
N218 N 0.77845 0.72599 0.3071 0.0
C219 C 0.78643 0.74777 0.29282 0.0
O220 O 0.8319 0.77493 0.59627 0.0
C221 C 0.8406 0.78365 0.54289 0.0
O222 O 0.82883 0.78385 0.49631 0.0
H223 H 0.77921 0.7279 0.46766 0.0
H224 H 0.79847 0.78041 0.33574 0.0
C225 C 0.80299 0.77053 0.77423 0.0
C226 C 0.80039 0.78337 0.82204 0.0
C227 C 0.79732 0.80557 0.7404 0.0
C228 C 0.79937 0.79246 0.69352 0.0
N229 N 0.80227 0.77534 0.71141 0.0
N230 N 0.79778 0.80068 0.80329 0.0
H231 H 0.80556 0.75687 0.78594 0.0
C232 C 0.80533 0.81905 0.49632 0.0
O233 O 0.81846 0.81841 0.54055 0.0
O234 O 0.80763 0.73238 0.67658 0.0
H235 H 0.79843 0.79569 0.64319 0.0
H236 H 0.76932 0.70117 0.37809 0.0
H237 H 0.79507 0.81933 0.72701 0.0
Zn238 Zn 0.23945 0.02437 0.47226 0.0
C239 C 0.28571 0.02794 0.59815 0.0
N240 N 0.2837 0.01055 0.56507 0.0
C241 C 0.26702 1.00611 0.52435 0.0
N242 N 0.25923 0.02037 0.53141 0.0
N243 N 0.27083 0.03379 0.57915 0.0
C244 C 0.29452 0.09222 0.6204 0.0
O245 O 0.28731 0.08552 0.56173 0.0
O246 O 0.21203 0.99454 0.45328 0.0
Zn247 Zn 0.26134 0.04948 0.63448 0.0
N248 N 0.25727 0.03774 0.39698 0.0
C249 C 0.29244 0.06626 0.36084 0.0
C250 C 0.27766 0.05518 0.41045 0.0
C251 C 0.25082 0.03099 0.33542 0.0
N252 N 0.28617 0.05955 0.2995 0.0
C253 C 0.26573 0.04225 0.28477 0.0
O254 O 0.24273 0.06001 0.59287 0.0
C255 C 0.23172 0.05926 0.54362 0.0
O256 O 0.22944 0.04663 0.49651 0.0
H257 H 0.28242 0.06025 0.45967 0.0
H258 H 0.23457 0.01686 0.32672 0.0
C259 C 0.24934 0.03366 0.7654 0.0
C260 C 0.23563 0.01799 0.81159 0.0
C261 C 0.21224 0.99499 0.72794 0.0
C262 C 0.22596 0.01043 0.68254 0.0
N263 N 0.24407 0.02947 0.70212 0.0
N264 N 0.21734 0.99913 0.79119 0.0
H265 H 0.26379 0.0491 0.77917 0.0
C266 C 0.19505 0.98829 0.48899 0.0
O267 O 0.19586 1.00143 0.53547 0.0
O268 O 0.28683 0.07818 0.666 0.0
H269 H 0.22229 0.00737 0.63191 0.0
H270 H 0.30879 0.08008 0.37087 0.0
H271 H 0.19767 0.97981 0.71309 0.0
Zn272 Zn 0.99254 0.21937 0.48243 0.0
C273 C 0.98537 0.26159 0.59914 0.0
N274 N 1.00225 0.27713 0.56479 0.0
C275 C 1.0089 0.26524 0.53018 0.0
N276 N 0.99619 0.24317 0.54105 0.0
N277 N 0.98196 0.24113 0.58659 0.0
C278 C 0.92462 0.21153 0.62618 0.0
O279 O 0.93216 0.21396 0.56713 0.0
O280 O 0.02238 0.22173 0.46473 0.0
Zn281 Zn 0.96578 0.21597 0.64152 0.0
N282 N 0.97935 0.2236 0.4058 0.0
C283 C 0.95178 0.23142 0.36743 0.0
C284 C 0.96344 0.22901 0.41796 0.0
C285 C 0.98406 0.22037 0.34456 0.0
N286 N 0.95635 0.22816 0.30649 0.0
C287 C 0.97219 0.2227 0.29312 0.0
O288 O 0.95449 0.18697 0.59877 0.0
C289 C 0.95605 0.17678 0.55049 0.0
O290 O 0.96995 0.18711 0.50585 0.0
H291 H 0.95972 0.23125 0.4668 0.0
H292 H 0.99645 0.21557 0.33647 0.0
C293 C 0.98023 0.21641 0.77304 0.0
C294 C 0.99576 0.21793 0.81935 0.0
C295 C 0.02078 0.2224 0.73517 0.0
C296 C 1.00538 0.22086 0.68989 0.0
N297 N 0.98546 0.21785 0.70957 0.0
N298 N 0.01564 0.22093 0.7985 0.0
H299 H 0.9644 0.21455 0.7866 0.0
C300 C 0.02873 0.21134 0.50146 0.0
O301 O 0.0157 0.19939 0.54864 0.0
O302 O 0.93748 0.21364 0.67242 0.0
H303 H 1.00923 0.22217 0.63924 0.0
H304 H 0.93906 0.2357 0.37651 0.0
H305 H 0.03672 0.22482 0.7202 0.0
Zn306 Zn 0.55369 0.92721 0.01954 0.0
C307 C 0.60127 0.93464 0.14163 0.0
N308 N 0.61341 0.95368 0.10954 0.0
C309 C 0.59847 0.95423 0.07008 0.0
N310 N 0.57816 0.93626 0.07745 0.0
N311 N 0.57965 0.92416 0.12429 0.0
C312 C 0.5473 0.85861 0.15766 0.0
O313 O 0.53493 0.85956 0.1115 0.0
O314 O 0.55139 0.95309 0.98679 0.0
Zn315 Zn 0.55536 0.90287 0.17917 0.0
N316 N 0.55657 0.90961 0.95286 0.0
C317 C 0.56002 0.87808 0.92916 0.0
C318 C 0.55819 0.892 0.97363 0.0
C319 C 0.55703 0.91417 0.88916 0.0
N320 N 0.56047 0.88254 0.86554 0.0
C321 C 0.5592 0.90033 0.84388 0.0
O322 O 0.52343 0.89363 0.15321 0.0
C323 C 0.51359 0.89744 0.1076 0.0
O324 O 0.52426 0.90933 0.06006 0.0
H325 H 0.55808 0.88889 0.0245 0.0
H326 H 0.55548 0.92823 0.87439 0.0
C327 C 0.56009 0.91302 0.3183 0.0
C328 C 0.56313 0.92758 0.36952 0.0
C329 C 0.56342 0.95355 0.29485 0.0
C330 C 0.56035 0.93915 0.24475 0.0
N331 N 0.55895 0.91934 0.25711 0.0
N332 N 0.56475 0.94746 0.3557 0.0
H333 H 0.55912 0.89722 0.32639 0.0
C334 C 0.54849 0.96359 0.0322 0.0
O335 O 0.55013 0.95831 0.09173 0.0
O336 O 0.55782 0.87533 0.19438 0.0
H337 H 0.55928 0.94375 0.19592 0.0
H338 H 0.56117 0.8639 0.94501 0.0
H339 H 0.56473 0.96944 0.28558 0.0
Zn340 Zn 0.11114 0.65694 0.17599 0.0
C341 C 0.06925 0.6499 0.03149 0.0
N342 N 0.06959 0.66767 0.05703 0.0
C343 C 0.08579 0.67467 0.10148 0.0
N344 N 0.09454 0.66102 0.10494 0.0
N345 N 0.08456 0.64618 0.05872 0.0
C346 C 0.05695 0.58714 0.03453 0.0
O347 O 0.06266 0.59472 0.09339 0.0
O348 O 0.13879 0.68642 0.19691 0.0
Zn349 Zn 0.09392 0.62814 0.01486 0.0
N350 N 0.0907 0.64503 0.24835 0.0
C351 C 0.05314 0.62271 0.28113 0.0
C352 C 0.0689 0.63241 0.23277 0.0
C353 C 0.09746 0.64824 0.31088 0.0
N354 N 0.05979 0.62585 0.34335 0.0
C355 C 0.08154 0.63837 0.36022 0.0
O356 O 0.11117 0.6185 0.06708 0.0
C357 C 0.12065 0.62054 0.12053 0.0
O358 O 0.1213 0.63388 0.16357 0.0
H359 H 0.0638 0.62975 0.18299 0.0
H360 H 0.11499 0.65793 0.32149 0.0
C361 C 0.10484 0.64202 0.88108 0.0
C362 C 0.11977 0.65449 0.83153 0.0
C363 C 0.14871 0.67112 0.9089 0.0
C364 C 0.13399 0.65854 0.95724 0.0
N365 N 0.11239 0.64441 0.94264 0.0
N366 N 0.1413 0.66879 0.84755 0.0
H367 H 0.08749 0.6307 0.87151 0.0
C368 C 0.1514 0.69752 0.1505 0.0
O369 O 0.14552 0.68993 0.09178 0.0
O370 O 0.0676 0.59968 0.9877 0.0
H371 H 0.13968 0.65991 0.00623 0.0
H372 H 0.03573 0.61261 0.26937 0.0
H373 H 0.16594 0.68254 0.91989 0.0
Zn374 Zn 0.38807 0.4637 0.01961 0.0
C375 C 0.3469 0.41558 0.13863 0.0
N376 N 0.35399 0.40358 0.10653 0.0
C377 C 0.36973 0.41868 0.06809 0.0
N378 N 0.37206 0.43896 0.07609 0.0
N379 N 0.3582 0.43729 0.12235 0.0
C380 C 0.32411 0.46921 0.15731 0.0
O381 O 0.33742 0.48223 0.11216 0.0
O382 O 0.41635 0.4658 0.98808 0.0
Zn383 Zn 0.36082 0.46139 0.17779 0.0
N384 N 0.36807 0.46159 0.95229 0.0
C385 C 0.33375 0.45973 0.92861 0.0
C386 C 0.34926 0.46094 0.97305 0.0
C387 C 0.37197 0.46077 0.88858 0.0
N388 N 0.33756 0.45893 0.86502 0.0
C389 C 0.35619 0.45926 0.8433 0.0
O390 O 0.38351 0.4935 0.15311 0.0
C391 C 0.39775 0.50337 0.10883 0.0
O392 O 0.39941 0.49277 0.06181 0.0
H393 H 0.34643 0.46137 0.02391 0.0
H394 H 0.38726 0.46157 0.87379 0.0
C395 C 0.36624 0.45672 0.31726 0.0
C396 C 0.37773 0.45357 0.36844 0.0
C397 C 0.40316 0.45284 0.2936 0.0
C398 C 0.39187 0.45601 0.24356 0.0
N399 N 0.37359 0.45767 0.25597 0.0
N400 N 0.39584 0.45167 0.3545 0.0
H401 H 0.35154 0.45793 0.32547 0.0
C402 C 0.42934 0.46809 0.03414 0.0
O403 O 0.42208 0.46628 0.09331 0.0
O404 O 0.33053 0.45854 0.19269 0.0
H405 H 0.39747 0.45697 0.19471 0.0
H406 H 0.31875 0.45934 0.94447 0.0
H407 H 0.41763 0.45132 0.28425 0.0
Zn408 Zn 0.46262 0.10772 0.80895 0.0
C409 C 0.42182 0.05774 0.92521 0.0
N410 N 0.40663 0.05584 0.88227 0.0
C411 C 0.41774 0.07436 0.84713 0.0
N412 N 0.4391 0.08682 0.86599 0.0
N413 N 0.44137 0.07655 0.91657 0.0
C414 C 0.4727 0.05171 0.96179 0.0
O415 O 0.47079 0.05672 0.90214 0.0
O416 O 0.45976 0.13503 0.79284 0.0
Zn417 Zn 0.46639 0.08727 0.97268 0.0
N418 N 0.45829 0.09075 0.73169 0.0
C419 C 0.4521 0.05614 0.69152 0.0
C420 C 0.45437 0.06986 0.74285 0.0
C421 C 0.4603 0.09868 0.67081 0.0
N422 N 0.4543 0.06401 0.63087 0.0
C423 C 0.45839 0.08493 0.61863 0.0
O424 O 0.49542 0.10503 0.92998 0.0
C425 C 0.50542 0.1155 0.87974 0.0
O426 O 0.49486 0.11751 0.83267 0.0
H427 H 0.45318 0.06397 0.79152 0.0
H428 H 0.46408 0.11559 0.66356 0.0
C429 C 0.46519 0.10185 0.10161 0.0
C430 C 0.46294 0.11558 0.14718 0.0
C431 C 0.45701 0.13481 0.0621 0.0
C432 C 0.45933 0.12123 0.01743 0.0
N433 N 0.46341 0.10512 0.03804 0.0
N434 N 0.45883 0.13166 0.12565 0.0
H435 H 0.46786 0.08844 0.11584 0.0
C436 C 0.47048 0.15203 0.82839 0.0
O437 O 0.48305 0.1514 0.87449 0.0
O438 O 0.46958 0.06211 0.00708 0.0
H439 H 0.45775 0.12336 0.96663 0.0
H440 H 0.44892 0.03947 0.69973 0.0
H441 H 0.45373 0.14772 0.04648 0.0
Zn442 Zn 0.90678 0.35772 0.81242 0.0
C443 C 0.95196 0.36068 0.94147 0.0
N444 N 0.95082 0.34395 0.90686 0.0
C445 C 0.93462 0.3398 0.86456 0.0
N446 N 0.9263 0.35359 0.87221 0.0
N447 N 0.93703 0.36638 0.92196 0.0
C448 C 0.9609 0.42408 0.96504 0.0
O449 O 0.95405 0.41754 0.90603 0.0
O450 O 0.87947 0.32797 0.79263 0.0
Zn451 Zn 0.92708 0.38171 0.9771 0.0
N452 N 0.92475 0.37116 0.73732 0.0
C453 C 0.95991 0.39983 0.70161 0.0
C454 C 0.94505 0.38869 0.75103 0.0
C455 C 0.91844 0.3644 0.67566 0.0
N456 N 0.95379 0.39309 0.6402 0.0
C457 C 0.93344 0.37571 0.62521 0.0
O458 O 0.90894 0.3927 0.93458 0.0
C459 C 0.89854 0.3923 0.88421 0.0
O460 O 0.89681 0.37998 0.83679 0.0
H461 H 0.94969 0.39378 0.80031 0.0
H462 H 0.90224 0.35022 0.66671 0.0
C463 C 0.91454 0.36556 0.10743 0.0
C464 C 0.90065 0.34986 0.1533 0.0
C465 C 0.87744 0.32706 0.06905 0.0
C466 C 0.89133 0.34254 0.02397 0.0
N467 N 0.90945 0.3615 0.044 0.0
N468 N 0.88237 0.33108 0.13244 0.0
H469 H 0.929 0.38094 0.12155 0.0
C470 C 0.8622 0.32163 0.82712 0.0
O471 O 0.86259 0.33465 0.87334 0.0
O472 O 0.95258 0.41002 0.01041 0.0
H473 H 0.88779 0.33957 0.97325 0.0
H474 H 0.9762 0.41371 0.71185 0.0
H475 H 0.86286 0.31195 0.05385 0.0
Zn476 Zn 0.65993 0.55362 0.81161 0.0
C477 C 0.65471 0.59321 0.94454 0.0
N478 N 0.66943 0.60928 0.90634 0.0
C479 C 0.6745 0.59803 0.86368 0.0
N480 N 0.66305 0.57592 0.87428 0.0
N481 N 0.65083 0.57304 0.92609 0.0
C482 C 0.59296 0.53922 0.96281 0.0
O483 O 0.60025 0.5406 0.90376 0.0
O484 O 0.69003 0.55607 0.7962 0.0
Zn485 Zn 0.63513 0.54688 0.97691 0.0
N486 N 0.64911 0.5611 0.73583 0.0
C487 C 0.62364 0.57169 0.69682 0.0
C488 C 0.63275 0.5659 0.74744 0.0
C489 C 0.65657 0.56146 0.67516 0.0
N490 N 0.63093 0.57198 0.63628 0.0
C491 C 0.64707 0.56688 0.62338 0.0
O492 O 0.62442 0.51888 0.92878 0.0
C493 C 0.62445 0.5097 0.87631 0.0
O494 O 0.6366 0.521 0.82935 0.0
H495 H 0.62694 0.56537 0.79596 0.0
H496 H 0.66971 0.55768 0.66794 0.0
C497 C 0.65192 0.55125 0.10669 0.0
C498 C 0.66706 0.55176 0.15259 0.0
C499 C 0.6866 0.54535 0.06954 0.0
C500 C 0.67167 0.545 0.02442 0.0
N501 N 0.6546 0.54778 0.04386 0.0
N502 N 0.68392 0.54865 0.13237 0.0
H503 H 0.638 0.5532 0.12036 0.0
C504 C 0.6952 0.54345 0.82685 0.0
O505 O 0.68069 0.52869 0.86659 0.0
O506 O 0.60642 0.54346 0.00923 0.0
H507 H 0.67357 0.54253 0.97414 0.0
H508 H 0.61075 0.57575 0.7054 0.0
H509 H 0.70022 0.54304 0.05483 0.0
Zn510 Zn 0.22304 0.23737 0.51328 0.0
C511 C 0.26599 0.28823 0.4019 0.0
N512 N 0.28109 0.28745 0.44009 0.0
C513 C 0.26898 0.26854 0.4728 0.0
N514 N 0.2472 0.25839 0.45721 0.0
N515 N 0.24559 0.27054 0.41068 0.0
C516 C 0.21633 0.29837 0.36738 0.0
O517 O 0.21825 0.29304 0.4266 0.0
O518 O 0.22508 0.20951 0.52824 0.0
Zn519 Zn 0.22097 0.2617 0.35342 0.0
N520 N 0.22701 0.25408 0.59118 0.0
C521 C 0.2323 0.28874 0.62771 0.0
C522 C 0.22888 0.27406 0.57813 0.0
C523 C 0.22797 0.24787 0.6527 0.0
N524 N 0.2335 0.28277 0.68881 0.0
C525 C 0.23139 0.26274 0.7034 0.0
O526 O 0.19167 0.24391 0.39477 0.0
C527 C 0.18114 0.23211 0.44262 0.0
O528 O 0.19111 0.22835 0.48799 0.0
H529 H 0.22793 0.27857 0.52913 0.0
H530 H 0.22658 0.23192 0.66147 0.0
C531 C 0.22374 0.24824 0.22249 0.0
C532 C 0.2254 0.23397 0.17754 0.0
C533 C 0.2261 0.21188 0.26348 0.0
C534 C 0.22473 0.22616 0.30756 0.0
N535 N 0.2234 0.2439 0.28636 0.0
N536 N 0.22638 0.21609 0.19975 0.0
H537 H 0.22244 0.2624 0.20731 0.0
C538 C 0.21401 0.19284 0.49176 0.0
O539 O 0.20158 0.19416 0.44644 0.0
O540 O 0.21881 0.28777 0.32143 0.0
H541 H 0.22469 0.22321 0.35851 0.0
H542 H 0.23399 0.30476 0.61783 0.0
H543 H 0.22701 0.1976 0.27972 0.0
Zn544 Zn 0.77972 0.98764 0.51466 0.0
C545 C 0.72895 0.98055 0.40402 0.0
N546 N 0.73028 0.9969 0.44106 0.0
C547 C 0.74918 1.00345 0.47379 0.0
N548 N 0.75878 0.99121 0.45927 0.0
N549 N 0.74631 0.97734 0.41341 0.0
C550 C 0.71784 0.9203 0.37118 0.0
O551 O 0.72365 0.92743 0.43034 0.0
O552 O 0.80721 0.01756 0.53212 0.0
Zn553 Zn 0.75477 0.96133 0.35606 0.0
N554 N 0.76295 0.97415 0.59193 0.0
C555 C 0.72821 0.94533 0.6301 0.0
C556 C 0.74204 0.9574 0.57967 0.0
C557 C 0.77074 0.97936 0.65324 0.0
N558 N 0.73588 0.95038 0.6911 0.0
C559 C 0.75676 0.96706 0.70461 0.0
O560 O 0.77264 0.94975 0.39625 0.0
C561 C 0.78495 0.95118 0.44295 0.0
O562 O 0.78923 0.96513 0.48804 0.0
H563 H 0.73623 0.95337 0.53079 0.0
H564 H 0.78761 0.99247 0.66146 0.0
C565 C 0.76873 0.97618 0.22484 0.0
C566 C 0.78262 0.99189 0.17882 0.0
C567 C 0.80251 0.01703 0.26334 0.0
C568 C 0.78882 1.00142 0.30837 0.0
N569 N 0.77228 0.98136 0.28837 0.0
N570 N 0.7991 0.01192 0.19995 0.0
H571 H 0.75507 0.96021 0.211 0.0
C572 C 0.82377 0.02455 0.49429 0.0
O573 O 0.82265 0.01214 0.44531 0.0
O574 O 0.72836 0.93331 0.32503 0.0
H575 H 0.79126 1.00522 0.35907 0.0
H576 H 0.71154 0.93196 0.62093 0.0
H577 H 0.81575 0.03308 0.27855 0.0
Zn578 Zn 0.05306 0.79622 0.3404 0.0
C579 C 0.01694 0.74823 0.46754 0.0
N580 N 0.02401 0.73668 0.43295 0.0
C581 C 0.03778 0.75177 0.39053 0.0
N582 N 0.03888 0.77154 0.39839 0.0
N583 N 0.02631 0.76962 0.44857 0.0
C584 C 0.9918 0.8013 0.48226 0.0
O585 O 1.00513 0.81409 0.43678 0.0
O586 O 0.08148 0.79937 0.30635 0.0
Zn587 Zn 0.02843 0.79366 0.50324 0.0
N588 N 0.03198 0.79292 0.275 0.0
C589 C 0.99636 0.78823 0.25301 0.0
C590 C 0.01249 0.79047 0.29674 0.0
C591 C 0.03597 0.79289 0.21105 0.0
N592 N 1.00022 0.78811 0.18915 0.0
C593 C 0.01954 0.79018 0.16654 0.0
O594 O 0.05066 0.82567 0.47733 0.0
C595 C 0.06361 0.83586 0.43065 0.0
O596 O 0.06441 0.82551 0.38167 0.0
H597 H 1.00958 0.79025 0.34779 0.0
H598 H 0.05177 0.79508 0.19548 0.0
C599 C 0.0335 0.78874 0.64258 0.0
C600 C 0.04523 0.78617 0.69408 0.0
C601 C 0.07214 0.78788 0.62042 0.0
C602 C 0.06059 0.79048 0.56999 0.0
N603 N 0.04147 0.79063 0.58169 0.0
N604 N 0.06421 0.78576 0.68094 0.0
H605 H 0.01814 0.78877 0.65024 0.0
C606 C 0.09449 0.80156 0.35226 0.0
O607 O 0.08697 0.79876 0.41139 0.0
O608 O 0.99811 0.79063 0.51801 0.0
H609 H 0.06665 0.79214 0.52139 0.0
H610 H 0.98081 0.78643 0.26964 0.0
H611 H 0.08729 0.78754 0.61167 0.0
H612 H 0.96187 0.34414 0.04527 0.0
H613 H 0.07216 0.43917 0.17263 0.0
H614 H 0.98493 0.40382 0.93426 0.0
H615 H 0.0667 0.37869 0.10042 0.0
H616 H 0.03906 0.43156 0.10897 0.0
H617 H 0.99791 0.36093 0.09978 0.0
C618 C 0.97419 0.36116 0.03459 0.0
C619 C 0.97019 0.37297 0.98719 0.0
C620 C 0.0457 0.42047 0.10556 0.0
C621 C 0.01145 0.39197 0.04765 0.0
C622 C 0.06471 0.42495 0.14085 0.0
C623 C 0.07214 0.40956 0.14119 0.0
C624 C 0.03412 0.4003 0.07226 0.0
C625 C 0.06154 0.39101 0.10096 0.0
C626 C 0.99475 0.3706 0.06496 0.0
C627 C 0.98701 0.3947 0.97309 0.0
N628 N 0.04272 0.38657 0.06951 0.0
N629 N 1.00708 0.40358 0.00309 0.0
H630 H 0.66885 0.6161 0.05542 0.0
H631 H 0.57455 0.63537 0.16523 0.0
H632 H 0.61218 0.58403 0.93022 0.0
H633 H 0.63705 0.68928 0.10002 0.0
H634 H 0.58211 0.60932 0.10455 0.0
H635 H 0.65176 0.63536 0.10846 0.0
C636 C 0.65229 0.61225 0.04146 0.0
C637 C 0.64146 0.59782 0.9903 0.0
C638 C 0.5937 0.62696 0.10196 0.0
C639 C 0.62226 0.62017 0.04889 0.0
C640 C 0.58925 0.64181 0.13541 0.0
C641 C 0.60513 0.66446 0.13679 0.0
C642 C 0.61433 0.63502 0.07169 0.0
C643 C 0.6243 0.67196 0.0994 0.0
C644 C 0.64273 0.62342 0.07093 0.0
C645 C 0.62045 0.59414 0.97178 0.0
N646 N 0.62867 0.65722 0.06983 0.0
N647 N 0.61149 0.60538 0.00086 0.0
H648 H 0.38406 0.96456 0.23493 0.0
H649 H 0.40682 0.01627 0.88302 0.0
H650 H 0.3441 0.93171 0.06924 0.0
H651 H 0.42765 0.05557 0.05585 0.0
H652 H 0.39392 0.98273 0.94747 0.0
H653 H 0.41015 0.99484 0.16569 0.0
C654 C 0.38135 0.96316 0.18343 0.0
C655 C 0.362 0.94531 0.15761 0.0
C656 C 0.4017 0.99869 0.97131 0.0
C657 C 0.39142 0.98014 0.07858 0.0
C658 C 0.40904 0.01781 0.93469 0.0
C659 C 0.41818 0.03861 0.96445 0.0
C660 C 0.40333 1.00032 0.0384 0.0
C661 C 0.42077 0.0398 0.0313 0.0
C662 C 0.39609 0.98058 0.14421 0.0
C663 C 0.35899 0.94458 0.09101 0.0
N664 N 0.41313 0.02081 0.06631 0.0
N665 N 0.37338 0.96191 0.05384 0.0
H666 H 0.94018 0.60664 0.93955 0.0
H667 H 0.03322 0.61865 0.09293 0.0
H668 H 0.95995 0.58172 0.77866 0.0
H669 H 0.05861 0.64283 0.90338 0.0
H670 H 0.99588 0.59623 0.04753 0.0
H671 H 0.97146 0.60969 0.00108 0.0
C672 C 0.95015 0.60031 0.91878 0.0
C673 C 0.947 0.59314 0.8548 0.0
C674 C 1.00972 0.60599 0.01576 0.0
C675 C 0.98392 0.59835 0.92273 0.0
C676 C 0.03098 0.61861 0.04137 0.0
C677 C 0.04886 0.63243 0.0015 0.0
C678 C 1.00643 0.60725 0.94981 0.0
C679 C 0.0452 0.63219 0.93535 0.0
C680 C 0.96834 0.60247 0.95345 0.0
C681 C 0.96156 0.58678 0.82851 0.0
N682 N 0.02428 0.61987 0.91145 0.0
N683 N 0.97986 0.59027 0.86172 0.0
H684 H 0.41241 0.33332 0.93796 0.0
H685 H 0.38228 0.42625 0.94058 0.0
H686 H 0.43278 0.38049 0.78333 0.0
H687 H 0.39096 0.39859 0.11595 0.0
H688 H 0.40357 0.4121 0.88294 0.0
H689 H 0.40866 0.35933 0.00759 0.0
C690 C 0.41752 0.34971 0.91985 0.0
C691 C 0.42365 0.35504 0.85546 0.0
C692 C 0.40126 0.4096 0.93435 0.0
C693 C 0.41734 0.38419 0.93295 0.0
C694 C 0.38916 0.4177 0.96703 0.0
C695 C 0.38503 0.41362 0.03285 0.0
C696 C 0.40867 0.39689 0.96773 0.0
C697 C 0.39377 0.40198 0.06497 0.0
C698 C 0.41483 0.36444 0.95919 0.0
C699 C 0.42845 0.37601 0.83325 0.0
N700 N 0.40491 0.39377 0.03204 0.0
N701 N 0.42463 0.38961 0.87134 0.0
H702 H 0.686 0.07984 0.93236 0.0
H703 H 0.59102 0.95895 0.94216 0.0
H704 H 0.63571 0.05605 0.7858 0.0
H705 H 0.6189 0.99561 0.11694 0.0
H706 H 0.60556 0.99428 0.88367 0.0
H707 H 0.66036 0.05053 0.00373 0.0
C708 C 0.66906 0.0694 0.9168 0.0
C709 C 0.66262 0.07104 0.85429 0.0
C710 C 0.60799 0.99454 0.93513 0.0
C711 C 0.63385 0.03585 0.93302 0.0
C712 C 0.59967 0.97442 0.96831 0.0
C713 C 0.60371 0.9745 0.03423 0.0
C714 C 0.6209 0.01467 0.96815 0.0
C715 C 0.61554 0.99493 0.06591 0.0
C716 C 0.65452 0.0522 0.95694 0.0
C717 C 0.641 0.05566 0.83451 0.0
N718 N 0.62399 0.01417 0.03251 0.0
N719 N 0.62754 0.03832 0.87309 0.0
H720 H 0.6286 0.68263 0.3868 0.0
H721 H 0.74151 0.77741 0.50369 0.0
H722 H 0.65433 0.73999 0.26422 0.0
H723 H 0.73278 0.71435 0.44389 0.0
H724 H 0.7082 0.76969 0.44086 0.0
H725 H 0.66426 0.69954 0.4436 0.0
C726 C 0.64137 0.69928 0.37416 0.0
C727 C 0.63831 0.71035 0.32261 0.0
C728 C 0.71415 0.75799 0.44 0.0
C729 C 0.67912 0.72937 0.3855 0.0
C730 C 0.73328 0.76253 0.47469 0.0
C731 C 0.74001 0.74661 0.47788 0.0
C732 C 0.70165 0.73721 0.41049 0.0
C733 C 0.72833 0.72719 0.44161 0.0
C734 C 0.66173 0.70875 0.40577 0.0
C735 C 0.65575 0.73149 0.30588 0.0
N736 N 0.70941 0.72276 0.41079 0.0
N737 N 0.6756 0.74036 0.33706 0.0
H738 H 0.27419 0.01216 0.39572 0.0
H739 H 0.29336 0.94192 0.21277 0.0
H740 H 0.25067 0.96249 0.54371 0.0
H741 H 0.30779 0.92473 0.39832 0.0
H742 H 0.27091 0.95557 0.26462 0.0
H743 H 0.27903 0.98732 0.32452 0.0
C744 C 0.26839 0.99541 0.41155 0.0
C745 C 0.26102 0.98905 0.47464 0.0
C746 C 0.27881 0.94867 0.29405 0.0
C747 C 0.26831 0.96092 0.39527 0.0
C748 C 0.29148 0.94077 0.26457 0.0
C749 C 0.3025 0.93246 0.30168 0.0
C750 C 0.27747 0.94856 0.36131 0.0
C751 C 0.29954 0.93113 0.36835 0.0
C752 C 0.27167 0.98126 0.37128 0.0
C753 C 0.25585 0.96775 0.49467 0.0
N754 N 0.28743 0.93935 0.39629 0.0
N755 N 0.26017 0.95466 0.4558 0.0
H756 H 0.08421 0.35431 0.22673 0.0
H757 H 1.00926 0.26461 0.39857 0.0
H758 H 0.08955 0.38699 0.40702 0.0
H759 H 0.05068 0.2944 0.56409 0.0
H760 H 0.03656 0.29449 0.33209 0.0
H761 H 0.07095 0.31919 0.28376 0.0
C762 C 0.08305 0.3541 0.2787 0.0
C763 C 0.08777 0.37339 0.31249 0.0
C764 C 0.04032 0.29399 0.38235 0.0
C765 C 0.07192 0.33327 0.37758 0.0
C766 C 0.02475 0.27657 0.42021 0.0
C767 C 0.02798 0.27659 0.48655 0.0
C768 C 0.05886 0.31189 0.41165 0.0
C769 C 0.04782 0.29362 0.51274 0.0
C770 C 0.07531 0.33406 0.31102 0.0
C771 C 0.08607 0.3724 0.37952 0.0
N772 N 0.06221 0.31094 0.47566 0.0
N773 N 0.07797 0.35252 0.41 0.0
H774 H 0.68816 0.96048 0.45511 0.0
H775 H 0.62553 0.91494 0.1211 0.0
H776 H 0.7225 0.96688 0.27713 0.0
H777 H 0.60391 0.94275 0.26981 0.0
H778 H 0.65612 0.91966 0.19065 0.0
H779 H 0.6527 0.94009 0.39878 0.0
C780 C 0.68816 0.95717 0.40421 0.0
C781 C 0.70818 0.96529 0.37051 0.0
C782 C 0.64406 0.92379 0.20899 0.0
C783 C 0.66773 0.94198 0.30601 0.0
C784 C 0.62641 0.92074 0.16993 0.0
C785 C 0.61171 0.92774 0.19073 0.0
C786 C 0.64685 0.93378 0.26933 0.0
C787 C 0.61415 0.93614 0.25314 0.0
C788 C 0.66796 0.94552 0.3723 0.0
C789 C 0.70737 0.96064 0.30477 0.0
N790 N 0.63153 0.93911 0.2901 0.0
N791 N 0.68738 0.94937 0.27433 0.0
H792 H 0.1001 0.6836 0.2296 0.0
H793 H 0.04473 0.75951 0.26082 0.0
H794 H 0.08096 0.70939 0.06929 0.0
H795 H 0.06186 0.73262 0.42291 0.0
H796 H 0.06494 0.74745 0.19024 0.0
H797 H 0.09397 0.70782 0.30155 0.0
C798 C 0.0949 0.69443 0.20934 0.0
C799 C 0.08991 0.6935 0.14385 0.0
C800 C 0.06462 0.7445 0.24142 0.0
C801 C 0.08317 0.72163 0.22524 0.0
C802 C 0.05318 0.75151 0.28153 0.0
C803 C 0.05182 0.74717 0.34745 0.0
C804 C 0.07441 0.73272 0.26753 0.0
C805 C 0.06254 0.73621 0.37205 0.0
C806 C 0.09142 0.70838 0.25041 0.0
C807 C 0.08424 0.70892 0.11997 0.0
N808 N 0.07322 0.72919 0.3321 0.0
N809 N 0.0806 0.72199 0.16061 0.0
H810 H 0.30312 0.39067 0.11643 0.0
H811 H 0.28567 0.32908 0.45233 0.0
H812 H 0.35188 0.41317 0.26725 0.0
H813 H 0.25888 0.29416 0.27443 0.0
H814 H 0.30028 0.36431 0.39524 0.0
H815 H 0.27726 0.36005 0.18577 0.0
C816 C 0.30787 0.38997 0.1656 0.0
C817 C 0.32938 0.40496 0.18712 0.0
C818 C 0.2908 0.34896 0.36891 0.0
C819 C 0.3003 0.36979 0.26552 0.0
C820 C 0.2825 0.32889 0.40127 0.0
C821 C 0.27109 0.30878 0.36781 0.0
C822 C 0.28774 0.34898 0.30242 0.0
C823 C 0.26741 0.30936 0.30185 0.0
C824 C 0.29328 0.37231 0.20457 0.0
C825 C 0.33515 0.40275 0.25 0.0
N826 N 0.2759 0.32923 0.27097 0.0
N827 N 0.32076 0.38536 0.28686 0.0
H828 H 0.31732 0.07156 0.58835 0.0
H829 H 0.40509 0.04932 0.74072 0.0
H830 H 0.29926 0.01219 0.6961 0.0
H831 H 0.404 0.10451 0.83022 0.0
H832 H 0.37261 0.04205 0.67717 0.0
H833 H 0.35389 0.08976 0.64135 0.0
C834 C 0.32057 0.06284 0.62592 0.0
C835 C 0.30486 0.04077 0.64065 0.0
C836 C 0.38004 0.05629 0.70888 0.0
C837 C 0.34704 0.06056 0.69589 0.0
C838 C 0.39879 0.06072 0.74417 0.0
C839 C 0.4073 0.07766 0.79016 0.0
C840 C 0.3698 0.06893 0.71958 0.0
C841 C 0.39804 0.09149 0.79443 0.0
C842 C 0.34159 0.07301 0.65469 0.0
C843 C 0.31069 0.02942 0.68492 0.0
N844 N 0.37936 0.08656 0.76043 0.0
N845 N 0.33143 0.03932 0.71025 0.0
H846 H 0.94309 0.34678 0.73647 0.0
H847 H 0.97064 0.25198 0.72458 0.0
H848 H 0.91807 0.29602 0.88145 0.0
H849 H 0.96632 0.28394 0.55238 0.0
H850 H 0.94911 0.26592 0.78201 0.0
H851 H 0.94816 0.3222 0.66439 0.0
C852 C 0.93718 0.32994 0.75154 0.0
C853 C 0.92923 0.32314 0.81396 0.0
C854 C 0.95244 0.26944 0.73126 0.0
C855 C 0.93719 0.29554 0.73426 0.0
C856 C 0.96466 0.26144 0.69867 0.0
C857 C 0.97004 0.26674 0.63385 0.0
C858 C 0.94619 0.28325 0.69888 0.0
C859 C 0.96249 0.27957 0.60257 0.0
C860 C 0.94069 0.31601 0.711 0.0
C861 C 0.92378 0.30165 0.83298 0.0
N862 N 0.95121 0.28762 0.63548 0.0
N863 N 0.92836 0.28879 0.79395 0.0
H864 H 0.71752 0.60956 0.83908 0.0
H865 H 0.73368 0.72095 0.72465 0.0
H866 H 0.66256 0.61522 0.76708 0.0
H867 H 0.76761 0.69798 0.6011 0.0
H868 H 0.71501 0.68455 0.7772 0.0
H869 H 0.74312 0.64318 0.77791 0.0
C870 C 0.7108 0.61715 0.80762 0.0
C871 C 0.68793 0.60952 0.80714 0.0
C872 C 0.72723 0.68784 0.74017 0.0
C873 C 0.71683 0.64821 0.74133 0.0
C874 C 0.73807 0.70862 0.71097 0.0
C875 C 0.75288 0.71271 0.66047 0.0
C876 C 0.7312 0.67107 0.71854 0.0
C877 C 0.75724 0.69581 0.64228 0.0
C878 C 0.72538 0.63647 0.77384 0.0
C879 C 0.68005 0.6204 0.76773 0.0
N880 N 0.74632 0.67555 0.67111 0.0
N881 N 0.69449 0.63955 0.73785 0.0
H882 H 0.35551 0.29376 0.78721 0.0
H883 H 0.29377 0.24947 0.45148 0.0
H884 H 0.39043 0.30185 0.60929 0.0
H885 H 0.27146 0.27627 0.60124 0.0
H886 H 0.32439 0.25429 0.52106 0.0
H887 H 0.32023 0.27336 0.73001 0.0
C888 C 0.35568 0.29081 0.73613 0.0
C889 C 0.37581 0.29941 0.70271 0.0
C890 C 0.31217 0.25816 0.53959 0.0
C891 C 0.33556 0.27609 0.63723 0.0
C892 C 0.2945 0.25506 0.5005 0.0
C893 C 0.27956 0.2617 0.52164 0.0
C894 C 0.31474 0.26786 0.60029 0.0
C895 C 0.28182 0.26985 0.58432 0.0
C896 C 0.33559 0.27916 0.70371 0.0
C897 C 0.37522 0.29523 0.6367 0.0
N898 N 0.29921 0.27287 0.62131 0.0
N899 N 0.35532 0.28395 0.60579 0.0
H900 H 0.71388 0.09174 0.60397 0.0
H901 H 0.74609 1.00027 0.6044 0.0
H902 H 0.72394 0.06551 0.78023 0.0
H903 H 0.76508 0.04651 0.44768 0.0
H904 H 0.74212 0.02634 0.67313 0.0
H905 H 0.73538 0.07777 0.54651 0.0
C906 C 0.72108 0.08353 0.63062 0.0
C907 C 0.71728 0.07979 0.69666 0.0
C908 C 0.74803 0.03125 0.62443 0.0
C909 C 0.74118 0.06329 0.6318 0.0
C910 C 0.75086 0.01649 0.58558 0.0
C911 C 0.75662 0.0215 0.52085 0.0
C912 C 0.75006 0.0507 0.5974 0.0
C913 C 0.76101 0.04226 0.49784 0.0
C914 C 0.73331 0.07554 0.59804 0.0
C915 C 0.72648 0.06861 0.72907 0.0
N916 N 0.75706 0.05587 0.53548 0.0
N917 N 0.73773 0.0605 0.69628 0.0
H918 H 0.02439 0.74576 0.59446 0.0
H919 H 0.92622 0.62599 0.61159 0.0
H920 H 0.97281 0.72286 0.45191 0.0
H921 H 0.95647 0.66309 0.78413 0.0
H922 H 0.94181 0.66112 0.55153 0.0
H923 H 0.99892 0.71669 0.66715 0.0
C924 C 1.00728 0.73548 0.58003 0.0
C925 C 1.00037 0.73733 0.51838 0.0
C926 C 0.94454 0.66155 0.60287 0.0
C927 C 0.97171 0.70257 0.59856 0.0
C928 C 0.9356 0.64154 0.63697 0.0
C929 C 0.93994 0.64177 0.70273 0.0
C930 C 0.95839 0.68168 0.63475 0.0
C931 C 0.95279 0.66228 0.73329 0.0
C932 C 0.99283 0.71849 0.62093 0.0
C933 C 0.97848 0.7223 0.5 0.0
N934 N 0.96182 0.68137 0.69897 0.0
N935 N 0.96504 0.70519 0.5393 0.0
H936 H 0.29453 0.44872 0.25565 0.0
H937 H 0.19807 0.4661 0.10722 0.0
H938 H 0.30315 0.48488 0.07951 0.0
H939 H 0.19928 0.44634 0.30328 0.0
H940 H 0.23575 0.47202 0.09248 0.0
H941 H 0.25828 0.44575 0.26975 0.0
C942 C 0.28881 0.45603 0.21991 0.0
C943 C 0.30197 0.46711 0.16644 0.0
C944 C 0.22774 0.46656 0.13879 0.0
C945 C 0.26032 0.46374 0.18215 0.0
C946 C 0.20627 0.46326 0.14729 0.0
C947 C 0.19533 0.45562 0.20647 0.0
C948 C 0.2382 0.46196 0.18961 0.0
C949 C 0.20685 0.45214 0.25659 0.0
C950 C 0.26812 0.45441 0.22807 0.0
C951 C 0.29362 0.47626 0.12166 0.0
N952 N 0.22745 0.45514 0.24683 0.0
N953 N 0.27331 0.4743 0.13035 0.0
H954 H 0.5654 0.84774 0.25865 0.0
H955 H 0.55121 0.73681 0.10032 0.0
H956 H 0.53272 0.8231 0.07619 0.0
H957 H 0.56555 0.75344 0.30124 0.0
H958 H 0.54528 0.76856 0.08754 0.0
H959 H 0.56749 0.81394 0.27174 0.0
C960 C 0.55867 0.83523 0.22133 0.0
C961 C 0.54883 0.83827 0.16633 0.0
C962 C 0.54951 0.76505 0.13447 0.0
C963 C 0.55122 0.79948 0.18086 0.0
C964 C 0.55279 0.74687 0.14186 0.0
C965 C 0.55901 0.74241 0.20184 0.0
C966 C 0.55269 0.77897 0.18725 0.0
C967 C 0.56091 0.75617 0.25389 0.0
C968 C 0.55977 0.81588 0.22892 0.0
C969 C 0.54037 0.82144 0.11953 0.0
N970 N 0.55801 0.77386 0.24521 0.0
N971 N 0.54186 0.80283 0.12768 0.0
H972 H 0.16935 0.7185 0.26525 0.0
H973 H 0.27691 0.81985 0.10264 0.0
H974 H 0.18234 0.72381 0.0613 0.0
H975 H 0.26232 0.81505 0.30555 0.0
H976 H 0.24427 0.78302 0.08743 0.0
H977 H 0.2048 0.75261 0.28167 0.0
C978 C 0.17964 0.72681 0.22392 0.0
C979 C 0.17276 0.71828 0.16179 0.0
C980 C 0.24838 0.78995 0.13538 0.0
C981 C 0.21351 0.75737 0.18022 0.0
C982 C 0.26714 0.81091 0.14415 0.0
C983 C 0.27235 0.82068 0.2054 0.0
C984 C 0.23474 0.77867 0.18822 0.0
C985 C 0.2589 0.80832 0.25732 0.0
C986 C 0.19993 0.74629 0.23331 0.0
C987 C 0.18687 0.72979 0.11008 0.0
N988 N 0.2407 0.78812 0.24748 0.0
N989 N 0.2065 0.74871 0.12042 0.0
H990 H 0.82442 0.57354 0.68891 0.0
H991 H 0.71353 0.52369 0.89871 0.0
H992 H 0.81897 0.54431 0.87592 0.0
H993 H 0.72738 0.56767 0.73743 0.0
H994 H 0.75013 0.5272 0.88571 0.0
H995 H 0.78689 0.56702 0.69997 0.0
C996 C 0.81529 0.56552 0.73222 0.0
C997 C 0.82508 0.55957 0.78177 0.0
C998 C 0.74514 0.53606 0.85317 0.0
C999 C 0.78172 0.55214 0.79468 0.0
C1000 C 0.72422 0.53404 0.86039 0.0
C1001 C 0.71732 0.54541 0.81902 0.0
C1002 C 0.75923 0.54936 0.80378 0.0
C1003 C 0.73196 0.55863 0.77049 0.0
C1004 C 0.79381 0.56192 0.73854 0.0
C1005 C 0.81219 0.5492 0.8365 0.0
N1006 N 0.75215 0.56018 0.76413 0.0
N1007 N 0.79119 0.54588 0.84158 0.0
H1008 H 0.47341 0.27758 0.87527 0.0
H1009 H 0.45003 0.1613 0.73004 0.0
H1010 H 0.44657 0.25401 0.68586 0.0
H1011 H 0.48776 0.18929 0.90364 0.0
H1012 H 0.44812 0.19512 0.71462 0.0
H1013 H 0.47913 0.24573 0.88741 0.0
C1014 C 0.46902 0.26595 0.83591 0.0
C1015 C 0.4594 0.26853 0.77957 0.0
C1016 C 0.4569 0.19391 0.75599 0.0
C1017 C 0.46554 0.23182 0.79362 0.0
C1018 C 0.45792 0.17454 0.76492 0.0
C1019 C 0.46907 0.1724 0.8182 0.0
C1020 C 0.46695 0.21128 0.8009 0.0
C1021 C 0.47901 0.19019 0.86177 0.0
C1022 C 0.47219 0.2477 0.84299 0.0
C1023 C 0.45394 0.25277 0.73035 0.0
N1024 N 0.47764 0.20881 0.85232 0.0
N1025 N 0.4569 0.23508 0.73877 0.0
H1026 H 0.73769 0.19812 0.87381 0.0
H1027 H 0.85356 0.29197 0.72909 0.0
H1028 H 0.76168 0.19513 0.68475 0.0
H1029 H 0.82465 0.30151 0.90106 0.0
H1030 H 0.82007 0.25598 0.71364 0.0
H1031 H 0.76913 0.23592 0.88572 0.0
C1032 C 0.74933 0.20545 0.83451 0.0
C1033 C 0.74698 0.19328 0.77832 0.0
C1034 C 0.821 0.26598 0.75463 0.0
C1035 C 0.78321 0.23639 0.79207 0.0
C1036 C 0.84017 0.28652 0.76356 0.0
C1037 C 0.84196 0.29982 0.81642 0.0
C1038 C 0.80349 0.25852 0.79916 0.0
C1039 C 0.82401 0.29186 0.85951 0.0
C1040 C 0.76734 0.22701 0.84144 0.0
C1041 C 0.76274 0.20371 0.72913 0.0
N1042 N 0.8056 0.27172 0.85011 0.0
N1043 N 0.78019 0.22449 0.7374 0.0
H1044 H 0.866 0.79819 0.43207 0.0
H1045 H 0.96307 0.78283 0.58356 0.0
H1046 H 0.86936 0.78378 0.63233 0.0
H1047 H 0.97058 0.81609 0.40248 0.0
H1048 H 0.92729 0.78088 0.59853 0.0
H1049 H 0.90347 0.8037 0.41698 0.0
C1050 C 0.87466 0.7965 0.47299 0.0
C1051 C 0.86436 0.7904 0.53347 0.0
C1052 C 0.93679 0.78868 0.55558 0.0
C1053 C 0.90698 0.79621 0.51622 0.0
C1054 C 0.9572 0.7897 0.5469 0.0
C1055 C 0.9699 0.79968 0.49178 0.0
C1056 C 0.92884 0.79747 0.50848 0.0
C1057 C 0.9614 0.80833 0.44589 0.0
C1058 C 0.89601 0.79954 0.46428 0.0
C1059 C 0.87644 0.78834 0.58465 0.0
N1060 N 0.94137 0.80693 0.45509 0.0
N1061 N 0.8969 0.79101 0.57469 0.0
H1062 H 0.23315 0.08737 0.63736 0.0
H1063 H 0.19775 0.15717 0.41051 0.0
H1064 H 0.21472 0.07026 0.43853 0.0
H1065 H 0.23226 0.18116 0.59083 0.0
H1066 H 0.19926 0.12303 0.42403 0.0
H1067 H 0.22746 0.11889 0.6256 0.0
C1068 C 0.22761 0.09002 0.59127 0.0
C1069 C 0.22457 0.07609 0.53865 0.0
C1070 C 0.20647 0.13575 0.46063 0.0
C1071 C 0.21816 0.1126 0.52493 0.0
C1072 C 0.2056 0.15526 0.45308 0.0
C1073 C 0.21492 0.17212 0.49964 0.0
C1074 C 0.21652 0.13293 0.5155 0.0
C1075 C 0.22492 0.16869 0.55362 0.0
C1076 C 0.2245 0.10819 0.58459 0.0
C1077 C 0.21728 0.08049 0.4804 0.0
N1078 N 0.2254 0.14948 0.56011 0.0
N1079 N 0.21445 0.09845 0.47499 0.0
H1080 H 0.94765 0.14898 0.44625 0.0
H1081 H 0.83378 0.05307 0.59622 0.0
H1082 H 0.92538 0.15008 0.63922 0.0
H1083 H 0.86014 0.04585 0.41585 0.0
H1084 H 0.86733 0.08899 0.61154 0.0
H1085 H 0.91622 0.11118 0.43344 0.0
C1086 C 0.9364 0.14122 0.48619 0.0
C1087 C 0.9392 0.15287 0.54377 0.0
C1088 C 0.86584 0.07952 0.56868 0.0
C1089 C 0.90299 0.10977 0.52907 0.0
C1090 C 0.84662 0.05901 0.55985 0.0
C1091 C 0.84408 0.04638 0.50468 0.0
C1092 C 0.88267 0.08763 0.52182 0.0
C1093 C 0.86135 0.05498 0.4592 0.0
C1094 C 0.91838 0.11967 0.47874 0.0
C1095 C 0.92394 0.14192 0.59373 0.0
N1096 N 0.87984 0.07508 0.46864 0.0
N1097 N 0.90649 0.12116 0.58501 0.0
H1098 H 0.38138 0.86112 0.24279 0.0
H1099 H 0.48777 0.90194 0.01675 0.0
H1100 H 0.39163 0.89789 0.06695 0.0
H1101 H 0.48484 0.87782 0.20978 0.0
H1102 H 0.4504 0.89584 0.02938 0.0
H1103 H 0.41716 0.86309 0.22701 0.0
C1104 C 0.39111 0.86956 0.20071 0.0
C1105 C 0.38346 0.87939 0.15613 0.0
C1106 C 0.45783 0.89173 0.0689 0.0
C1107 C 0.42445 0.88157 0.13771 0.0
C1108 C 0.47921 0.8951 0.0617 0.0
C1109 C 0.48966 0.89053 0.11249 0.0
C1110 C 0.44658 0.88365 0.12729 0.0
C1111 C 0.47752 0.8816 0.16933 0.0
C1112 C 0.41156 0.87068 0.19185 0.0
C1113 C 0.39685 0.89013 0.10266 0.0
N1114 N 0.45666 0.87858 0.17533 0.0
N1115 N 0.41664 0.8909 0.09495 0.0
H1116 H 0.16384 0.52576 0.05436 0.0
H1117 H 0.11448 0.59484 0.22724 0.0
H1118 H 0.11446 0.49804 0.20411 0.0
H1119 H 0.14443 0.61012 0.03922 0.0
H1120 H 0.12093 0.56314 0.23347 0.0
H1121 H 0.1628 0.56026 0.06119 0.0
C1122 C 0.15279 0.52692 0.08881 0.0
C1123 C 0.13908 0.50886 0.12833 0.0
C1124 C 0.12642 0.5737 0.19141 0.0
C1125 C 0.13804 0.54857 0.137 0.0
C1126 C 0.12304 0.59194 0.18827 0.0
C1127 C 0.12907 0.60514 0.1328 0.0
C1128 C 0.13616 0.56893 0.13906 0.0
C1129 C 0.13961 0.60037 0.08292 0.0
C1130 C 0.15223 0.54665 0.09271 0.0
C1131 C 0.12516 0.51144 0.17224 0.0
N1132 N 0.14276 0.58267 0.08714 0.0
N1133 N 0.12501 0.53092 0.17545 0.0
H1134 H 0.40563 0.53217 0.21019 0.0
H1135 H 0.5222 0.62467 0.06582 0.0
H1136 H 0.42943 0.52895 0.02104 0.0
H1137 H 0.49312 0.63585 0.23471 0.0
H1138 H 0.48855 0.58878 0.05143 0.0
H1139 H 0.43739 0.56985 0.22214 0.0
C1140 C 0.41729 0.53943 0.17088 0.0
C1141 C 0.41481 0.52723 0.11467 0.0
C1142 C 0.48947 0.59911 0.09154 0.0
C1143 C 0.45137 0.57014 0.12849 0.0
C1144 C 0.50875 0.6196 0.09988 0.0
C1145 C 0.51052 0.63335 0.15147 0.0
C1146 C 0.47184 0.59214 0.13543 0.0
C1147 C 0.49248 0.62584 0.19409 0.0
C1148 C 0.43548 0.56091 0.17785 0.0
C1149 C 0.43059 0.53755 0.06549 0.0
N1150 N 0.47396 0.60573 0.18531 0.0
N1151 N 0.4482 0.55822 0.0738 0.0
H1152 H 0.53233 0.1136 0.97202 0.0
H1153 H 0.63774 0.15201 0.74375 0.0
H1154 H 0.53317 0.133 0.77442 0.0
H1155 H 0.6281 0.11689 0.9225 0.0
H1156 H 0.60168 0.1496 0.75831 0.0
H1157 H 0.56976 0.11991 0.9592 0.0
C1158 C 0.54044 0.11945 0.92597 0.0
C1159 C 0.52938 0.12262 0.87402 0.0
C1160 C 0.60748 0.14245 0.79433 0.0
C1161 C 0.57255 0.12977 0.85908 0.0
C1162 C 0.62809 0.14384 0.78619 0.0
C1163 C 0.63599 0.13461 0.83201 0.0
C1164 C 0.59474 0.13196 0.84903 0.0
C1165 C 0.62269 0.12418 0.88586 0.0
C1166 C 0.56186 0.12293 0.91868 0.0
C1167 C 0.54097 0.13031 0.81578 0.0
N1168 N 0.60278 0.1232 0.89292 0.0
N1169 N 0.5619 0.13352 0.80977 0.0
H1170 H 0.89961 0.42046 0.9773 0.0
H1171 H 0.86506 0.4901 0.74677 0.0
H1172 H 0.88207 0.40333 0.77801 0.0
H1173 H 0.89883 0.5142 0.92807 0.0
H1174 H 0.86651 0.45596 0.76141 0.0
H1175 H 0.8939 0.45195 0.96444 0.0
C1176 C 0.89427 0.4231 0.93087 0.0
C1177 C 0.89148 0.40917 0.87847 0.0
C1178 C 0.87356 0.46871 0.79798 0.0
C1179 C 0.88505 0.44563 0.86348 0.0
C1180 C 0.87273 0.48821 0.78979 0.0
C1181 C 0.88187 0.5051 0.83629 0.0
C1182 C 0.8834 0.46592 0.85342 0.0
C1183 C 0.89163 0.5017 0.89088 0.0
C1184 C 0.89114 0.44124 0.92357 0.0
C1185 C 0.88444 0.41356 0.81974 0.0
N1186 N 0.89209 0.4825 0.89797 0.0
N1187 N 0.88159 0.43148 0.81372 0.0
H1188 H 0.59834 0.48111 0.96979 0.0
H1189 H 0.52476 0.37977 0.73446 0.0
H1190 H 0.61133 0.48388 0.76605 0.0
H1191 H 0.50454 0.38656 0.9252 0.0
H1192 H 0.5588 0.41556 0.74732 0.0
H1193 H 0.56689 0.44401 0.95654 0.0
C1194 C 0.59478 0.47386 0.92216 0.0
C1195 C 0.60754 0.48586 0.86879 0.0
C1196 C 0.54692 0.4092 0.78632 0.0
C1197 C 0.57109 0.44302 0.85341 0.0
C1198 C 0.52748 0.38874 0.77915 0.0
C1199 C 0.51171 0.38011 0.82889 0.0
C1200 C 0.55078 0.42105 0.84392 0.0
C1201 C 0.51615 0.39255 0.88554 0.0
C1202 C 0.57665 0.45262 0.91469 0.0
C1203 C 0.60202 0.47533 0.80855 0.0
N1204 N 0.53527 0.41232 0.89153 0.0
N1205 N 0.58411 0.45454 0.80242 0.0
H1206 H 0.15501 0.23619 0.35199 0.0
H1207 H 0.04896 0.19507 0.57967 0.0
H1208 H 0.15268 0.21262 0.54542 0.0
H1209 H 0.05814 0.2305 0.40175 0.0
H1210 H 0.08496 0.19753 0.56389 0.0
H1211 H 0.11751 0.22969 0.36491 0.0
C1212 C 0.14656 0.2294 0.39711 0.0
C1213 C 0.15721 0.22509 0.44791 0.0
C1214 C 0.07908 0.20472 0.52827 0.0
C1215 C 0.11397 0.21774 0.46305 0.0
C1216 C 0.0585 0.20332 0.53714 0.0
C1217 C 0.05048 0.21263 0.49196 0.0
C1218 C 0.09173 0.21538 0.47355 0.0
C1219 C 0.06364 0.22314 0.43792 0.0
C1220 C 0.1251 0.22579 0.40448 0.0
C1221 C 0.1452 0.21621 0.50497 0.0
N1222 N 0.08356 0.2242 0.43024 0.0
N1223 N 0.12426 0.21295 0.51113 0.0
H1224 H 0.82321 0.85604 0.57264 0.0
H1225 H 0.77983 0.92068 0.35214 0.0
H1226 H 0.78435 0.8288 0.40042 0.0
H1227 H 0.80525 0.94222 0.54391 0.0
H1228 H 0.78604 0.88948 0.36385 0.0
H1229 H 0.82073 0.88961 0.55826 0.0
C1230 C 0.81421 0.85712 0.53163 0.0
C1231 C 0.80396 0.83951 0.48762 0.0
C1232 C 0.7904 0.90107 0.40331 0.0
C1233 C 0.8012 0.87806 0.4708 0.0
C1234 C 0.78697 0.91904 0.39663 0.0
C1235 C 0.79188 0.93417 0.44734 0.0
C1236 C 0.79893 0.89803 0.46106 0.0
C1237 C 0.8012 0.93105 0.50354 0.0
C1238 C 0.81279 0.87631 0.52359 0.0
C1239 C 0.79247 0.84189 0.43561 0.0
N1240 N 0.80431 0.91326 0.50902 0.0
N1241 N 0.79145 0.86079 0.42862 0.0
H1242 H 0.09345 0.86212 0.3394 0.0
H1243 H 0.15842 0.96821 0.56651 0.0
H1244 H 0.07287 0.86425 0.53382 0.0
H1245 H 0.18507 0.95867 0.38983 0.0
H1246 H 0.12496 0.93221 0.55084 0.0
H1247 H 0.12445 0.89958 0.35217 0.0
C1248 C 0.09524 0.87052 0.38469 0.0
C1249 C 0.08045 0.85982 0.4358 0.0
C1250 C 0.13811 0.93801 0.51547 0.0
C1251 C 0.11635 0.90302 0.45074 0.0
C1252 C 0.15724 0.95859 0.52426 0.0
C1253 C 0.17465 0.96652 0.47939 0.0
C1254 C 0.13622 0.92525 0.46111 0.0
C1255 C 0.17213 0.95325 0.42574 0.0
C1256 C 0.1131 0.89196 0.39197 0.0
C1257 C 0.08378 0.87176 0.4931 0.0
N1258 N 0.15329 0.93332 0.41808 0.0
N1259 N 0.10144 0.89268 0.49913 0.0
H1260 H 0.15532 0.37906 0.42081 0.0
H1261 H 0.20319 0.30795 0.25319 0.0
H1262 H 0.14804 0.36253 0.21893 0.0
H1263 H 0.20906 0.32285 0.45609 0.0
H1264 H 0.18403 0.32904 0.23907 0.0
H1265 H 0.17491 0.35836 0.43514 0.0
C1266 C 0.15761 0.37088 0.37969 0.0
C1267 C 0.15014 0.37262 0.31856 0.0
C1268 C 0.18961 0.32778 0.28663 0.0
C1269 C 0.17279 0.34923 0.33431 0.0
C1270 C 0.2007 0.31587 0.2946 0.0
C1271 C 0.20761 0.31352 0.35594 0.0
C1272 C 0.18543 0.33739 0.34039 0.0
C1273 C 0.2039 0.32412 0.40795 0.0
C1274 C 0.16893 0.35919 0.38777 0.0
C1275 C 0.15362 0.36174 0.26691 0.0
N1276 N 0.19296 0.33548 0.39905 0.0
N1277 N 0.16478 0.35061 0.27589 0.0
H1278 H 0.69322 0.8887 0.46008 0.0
H1279 H 0.6497 0.78899 0.20825 0.0
H1280 H 0.70693 0.89785 0.25655 0.0
H1281 H 0.63638 0.7795 0.41191 0.0
H1282 H 0.67063 0.82889 0.22527 0.0
H1283 H 0.67124 0.84881 0.44296 0.0
C1284 C 0.69142 0.88234 0.41162 0.0
C1285 C 0.70206 0.89662 0.35967 0.0
C1286 C 0.66321 0.81812 0.26633 0.0
C1287 C 0.67711 0.8509 0.33992 0.0
C1288 C 0.65133 0.7953 0.25673 0.0
C1289 C 0.64122 0.78089 0.30879 0.0
C1290 C 0.66502 0.82667 0.32846 0.0
C1291 C 0.64393 0.79001 0.37046 0.0
C1292 C 0.67895 0.85953 0.40197 0.0
C1293 C 0.69906 0.88744 0.29799 0.0
N1294 N 0.65551 0.81237 0.37856 0.0
N1295 N 0.68697 0.86513 0.28989 0.0
H1296 H 0.22788 0.87391 0.20237 0.0
H1297 H 0.12561 0.80675 0.44043 0.0
H1298 H 0.23498 0.86411 0.40399 0.0
H1299 H 0.11802 0.81814 0.24043 0.0
H1300 H 0.16571 0.82696 0.42691 0.0
H1301 H 0.18769 0.85412 0.21548 0.0
C1302 C 0.22099 0.86782 0.24962 0.0
C1303 C 0.23479 0.87053 0.30212 0.0
C1304 C 0.15531 0.82498 0.38585 0.0
C1305 C 0.18877 0.84758 0.31718 0.0
C1306 C 0.13238 0.81332 0.39341 0.0
C1307 C 0.11845 0.81087 0.34151 0.0
C1308 C 0.16444 0.83431 0.32595 0.0
C1309 C 0.12815 0.81965 0.2817 0.0
C1310 C 0.19802 0.8564 0.25694 0.0
C1311 C 0.22496 0.86237 0.3622 0.0
N1312 N 0.1506 0.83112 0.27564 0.0
N1313 N 0.20252 0.85111 0.36798 0.0
H1314 H 0.8227 0.71198 0.74671 0.0
H1315 H 0.87491 0.64374 0.58566 0.0
H1316 H 0.82365 0.70186 0.54225 0.0
H1317 H 0.87558 0.65536 0.78972 0.0
H1318 H 0.8568 0.66571 0.56845 0.0
H1319 H 0.84168 0.69081 0.76371 0.0
C1320 C 0.8267 0.70513 0.70549 0.0
C1321 C 0.82164 0.70874 0.643 0.0
C1322 C 0.86103 0.66355 0.61697 0.0
C1323 C 0.84357 0.68478 0.66192 0.0
C1324 C 0.87148 0.65112 0.62674 0.0
C1325 C 0.87663 0.6476 0.68922 0.0
C1326 C 0.85568 0.67247 0.67007 0.0
C1327 C 0.87181 0.65754 0.74071 0.0
C1328 C 0.83767 0.69318 0.71514 0.0
C1329 C 0.82729 0.69955 0.5913 0.0
N1330 N 0.86148 0.6694 0.73002 0.0
N1331 N 0.83801 0.68807 0.6019 0.0
H1332 H 0.31576 0.12481 0.53162 0.0
H1333 H 0.36293 0.22283 0.78968 0.0
H1334 H 0.30685 0.11391 0.73637 0.0
H1335 H 0.37437 0.2333 0.58544 0.0
H1336 H 0.34101 0.18303 0.77081 0.0
H1337 H 0.33696 0.16459 0.55057 0.0
C1338 C 0.31842 0.13079 0.58071 0.0
C1339 C 0.30946 0.11603 0.63256 0.0
C1340 C 0.34822 0.19402 0.73008 0.0
C1341 C 0.33355 0.16166 0.6545 0.0
C1342 C 0.36065 0.21678 0.74073 0.0
C1343 C 0.37063 0.23141 0.68903 0.0
C1344 C 0.34573 0.1858 0.66726 0.0
C1345 C 0.36703 0.22262 0.6267 0.0
C1346 C 0.33046 0.15354 0.59143 0.0
C1347 C 0.31349 0.12471 0.69504 0.0
N1348 N 0.35497 0.20036 0.61759 0.0
N1349 N 0.32516 0.14701 0.70427 0.0
H1350 H 0.89303 0.20469 0.53721 0.0
H1351 H 0.79245 0.14005 0.78259 0.0
H1352 H 0.90161 0.19706 0.73936 0.0
H1353 H 0.78353 0.14916 0.58174 0.0
H1354 H 0.83247 0.15991 0.76661 0.0
H1355 H 0.85293 0.18472 0.55258 0.0
C1356 C 0.88649 0.19902 0.58503 0.0
C1357 C 0.90068 0.20243 0.63706 0.0
C1358 C 0.82179 0.15749 0.72592 0.0
C1359 C 0.85477 0.17929 0.65474 0.0
C1360 C 0.7989 0.14603 0.73489 0.0
C1361 C 0.78464 0.14307 0.68346 0.0
C1362 C 0.83051 0.1661 0.66506 0.0
C1363 C 0.79394 0.15109 0.62273 0.0
C1364 C 0.86357 0.18751 0.59365 0.0
C1365 C 0.89128 0.19478 0.69789 0.0
N1366 N 0.81633 0.16239 0.61529 0.0
N1367 N 0.86889 0.18342 0.70497 0.0
H1368 H 0.48508 0.04231 0.07758 0.0
H1369 H 0.53661 0.9735 0.91643 0.0
H1370 H 0.48172 0.02809 0.87458 0.0
H1371 H 0.53961 0.98726 0.11967 0.0
H1372 H 0.51726 0.99429 0.8997 0.0
H1373 H 0.50466 0.02173 0.09439 0.0
C1374 C 0.48823 0.03466 0.03669 0.0
C1375 C 0.48187 0.03702 0.97457 0.0
C1376 C 0.52225 0.99284 0.94792 0.0
C1377 C 0.50451 0.01375 0.99322 0.0
C1378 C 0.53344 0.98111 0.9574 0.0
C1379 C 0.53961 0.97854 0.01955 0.0
C1380 C 0.51723 1.00205 0.00098 0.0
C1381 C 0.53505 0.98872 0.07092 0.0
C1382 C 0.49954 0.02305 0.04621 0.0
C1383 C 0.48642 0.02679 0.9233 0.0
N1384 N 0.52403 0.99992 0.06054 0.0
N1385 N 0.49756 0.01571 0.93372 0.0
H1386 H 0.04242 0.56543 0.91972 0.0
H1387 H 0.97417 0.44532 0.0816 0.0
H1388 H 0.03513 0.55495 0.1249 0.0
H1389 H 0.98209 0.45687 0.87692 0.0
H1390 H 0.99657 0.48538 0.09929 0.0
H1391 H 0.0193 0.52555 0.90355 0.0
C1392 C 0.03579 0.55476 0.96136 0.0
C1393 C 0.04083 0.5635 0.02373 0.0
C1394 C 0.99344 0.4791 0.05055 0.0
C1395 C 0.01457 0.51782 0.00568 0.0
C1396 C 0.98079 0.45625 0.04048 0.0
C1397 C 0.97621 0.44777 0.97774 0.0
C1398 C 1.00153 0.49347 -0.00254 0.0
C1399 C 0.98512 0.46266 0.92616 0.0
C1400 C 0.02267 0.53197 0.95215 0.0
C1401 C 0.03173 0.54891 0.07594 0.0
N1402 N 0.99727 0.48476 0.93717 0.0
N1403 N 0.01914 0.52675 0.06575 0.0
H1404 H 0.46084 0.47474 0.12313 0.0
H1405 H 0.56121 0.5309 0.87316 0.0
H1406 H 0.45208 0.48034 0.91989 0.0
H1407 H 0.57017 0.52689 0.07707 0.0
H1408 H 0.52124 0.51238 0.88945 0.0
H1409 H 0.50078 0.49265 0.10662 0.0
C1410 C 0.4673 0.47954 0.07484 0.0
C1411 C 0.4531 0.47616 0.02281 0.0
C1412 C 0.53192 0.51561 0.93072 0.0
C1413 C 0.49891 0.49692 0.00376 0.0
C1414 C 0.55478 0.52628 0.92153 0.0
C1415 C 0.56906 0.53039 0.97387 0.0
C1416 C 0.5232 0.50891 0.99271 0.0
C1417 C 0.55977 0.52408 0.0354 0.0
C1418 C 0.49014 0.48988 0.06555 0.0
C1419 C 0.46242 0.48266 0.96137 0.0
N1420 N 0.53739 0.51354 0.04309 0.0
N1421 N 0.48477 0.49286 0.95361 0.0
H1422 H 0.13806 0.4615 0.90461 0.0
H1423 H 0.10453 0.41188 0.5493 0.0
H1424 H 0.0902 0.39324 0.86233 0.0
H1425 H 0.1461 0.4818 0.58768 0.0
H1426 H 0.09885 0.40511 0.66449 0.0
H1427 H 0.1402 0.46992 0.78967 0.0
C1428 C 0.12765 0.44838 0.87157 0.0
C1429 C 0.11396 0.42658 0.89339 0.0
C1430 C 0.10922 0.42196 0.64778 0.0
C1431 C 0.11677 0.43602 0.76162 0.0
C1432 C 0.11269 0.42581 0.58183 0.0
C1433 C 0.12616 0.44743 0.55856 0.0
C1434 C 0.11933 0.4398 0.69108 0.0
C1435 C 0.13565 0.46485 0.60339 0.0
C1436 C 0.12904 0.45316 0.80578 0.0
C1437 C 0.10118 0.41023 0.84781 0.0
N1438 N 0.13219 0.46065 0.66744 0.0
N1439 N 0.10304 0.41524 0.7843 0.0
H1440 H 0.56763 0.66912 0.89791 0.0
H1441 H 0.58505 0.72399 0.54962 0.0
H1442 H 0.61375 0.73796 0.85702 0.0
H1443 H 0.55101 0.65317 0.58088 0.0
H1444 H 0.59169 0.72966 0.66452 0.0
H1445 H 0.55711 0.66335 0.78418 0.0
C1446 C 0.57531 0.68308 0.86529 0.0
C1447 C 0.59158 0.70408 0.88696 0.0
C1448 C 0.58282 0.71288 0.64615 0.0
C1449 C 0.57979 0.69754 0.75709 0.0
C1450 C 0.57918 0.70958 0.5802 0.0
C1451 C 0.56793 0.68801 0.55482 0.0
C1452 C 0.57502 0.69453 0.68736 0.0
C1453 C 0.55991 0.67011 0.59798 0.0
C1454 C 0.56943 0.67973 0.80034 0.0
C1455 C 0.60127 0.72146 0.84229 0.0
N1456 N 0.5637 0.67376 0.66207 0.0
N1457 N 0.59523 0.71781 0.77956 0.0
H1458 H 0.34453 0.89887 0.90028 0.0
H1459 H 0.28861 0.86724 0.55138 0.0
H1460 H 0.27545 0.8766 0.86379 0.0
H1461 H 0.35943 0.8998 0.58307 0.0
H1462 H 0.28312 0.8673 0.66678 0.0
H1463 H 0.34978 0.89543 0.78541 0.0
C1464 C 0.33039 0.89291 0.86841 0.0
C1465 C 0.30948 0.88795 0.89179 0.0
C1466 C 0.29987 0.87449 0.64838 0.0
C1467 C 0.31547 0.88433 0.76025 0.0
C1468 C 0.30308 0.87468 0.58211 0.0
C1469 C 0.32461 0.88397 0.55669 0.0
C1470 C 0.31826 0.88348 0.68984 0.0
C1471 C 0.34251 0.89252 0.60008 0.0
C1472 C 0.33345 0.89116 0.80272 0.0
C1473 C 0.29189 0.88076 0.84786 0.0
N1474 N 0.33894 0.89213 0.66436 0.0
N1475 N 0.29528 0.87919 0.78433 0.0
H1476 H 0.87782 0.53612 0.41754 0.0
H1477 H 0.92231 0.62549 0.1341 0.0
H1478 H 0.91114 0.6069 0.44741 0.0
H1479 H 0.87912 0.55545 0.10083 0.0
H1480 H 0.92117 0.6183 0.24868 0.0
H1481 H 0.88057 0.54237 0.3014 0.0
C1482 C 0.88563 0.55298 0.39974 0.0
C1483 C 0.89398 0.57099 0.44251 0.0
C1484 C 0.91202 0.60446 0.21639 0.0
C1485 C 0.89738 0.57822 0.30954 0.0
C1486 C 0.91267 0.60853 0.15074 0.0
C1487 C 0.90075 0.59107 0.10734 0.0
C1488 C 0.89934 0.58274 0.23944 0.0
C1489 C 0.88879 0.56944 0.13206 0.0
C1490 C 0.88717 0.5565 0.33343 0.0
C1491 C 0.90398 0.59246 0.41662 0.0
N1492 N 0.8883 0.5659 0.19658 0.0
N1493 N 0.90544 0.59545 0.35189 0.0
H1494 H 0.4646 0.35884 0.41519 0.0
H1495 H 0.41299 0.27045 0.13125 0.0
H1496 H 0.43233 0.28797 0.44375 0.0
H1497 H 0.45199 0.34095 0.09844 0.0
H1498 H 0.42076 0.27675 0.24577 0.0
H1499 H 0.46089 0.35279 0.29945 0.0
C1500 C 0.45671 0.34198 0.3974 0.0
C1501 C 0.44843 0.32391 0.44002 0.0
C1502 C 0.42782 0.29086 0.21361 0.0
C1503 C 0.44416 0.31691 0.30682 0.0
C1504 C 0.42337 0.28729 0.14813 0.0
C1505 C 0.43185 0.3052 0.10512 0.0
C1506 C 0.44067 0.31257 0.23675 0.0
C1507 C 0.44531 0.32663 0.1297 0.0
C1508 C 0.45462 0.33858 0.33111 0.0
C1509 C 0.43843 0.30248 0.41357 0.0
N1510 N 0.44914 0.32974 0.19407 0.0
N1511 N 0.43651 0.29962 0.3488 0.0
H1512 H 0.71881 0.0978 0.12945 0.0
H1513 H 0.67058 0.13927 0.41217 0.0
H1514 H 0.68902 0.13844 0.0958 0.0
H1515 H 0.70953 0.10747 0.44264 0.0
H1516 H 0.67432 0.13665 0.29611 0.0
H1517 H 0.71222 0.09837 0.24394 0.0
C1518 C 0.71073 0.10675 0.14601 0.0
C1519 C 0.70453 0.11813 0.10257 0.0
C1520 C 0.68212 0.13035 0.32825 0.0
C1521 C 0.697 0.11892 0.23449 0.0
C1522 C 0.67999 0.13181 0.39453 0.0
C1523 C 0.69002 0.12388 0.43745 0.0
C1524 C 0.69415 0.12064 0.30455 0.0
C1525 C 0.70195 0.11432 0.41173 0.0
C1526 C 0.707 0.10708 0.21159 0.0
C1527 C 0.69389 0.12921 0.12711 0.0
N1528 N 0.70364 0.11295 0.34704 0.0
N1529 N 0.69058 0.12943 0.19155 0.0
H1530 H 0.79051 0.74369 0.88094 0.0
H1531 H 0.7895 0.78543 0.23571 0.0
H1532 H 0.80808 0.81135 0.92308 0.0
H1533 H 0.79109 0.72549 0.19233 0.0
H1534 H 0.79457 0.79482 0.12175 0.0
H1535 H 0.78886 0.73633 0.99508 0.0
C1536 C 0.79448 0.75721 0.91372 0.0
C1537 C 0.7999 0.7784 0.89163 0.0
C1538 C 0.79397 0.77971 0.13751 0.0
C1539 C 0.79721 0.76964 0.02353 0.0
C1540 C 0.79121 0.77435 0.20282 0.0
C1541 C 0.79002 0.75464 0.22431 0.0
C1542 C 0.79528 0.76516 0.09336 0.0
C1543 C 0.79174 0.74078 0.17839 0.0
C1544 C 0.7933 0.75286 0.97933 0.0
C1545 C 0.80387 0.79478 0.93761 0.0
N1546 N 0.79419 0.74626 0.11526 0.0
N1547 N 0.80238 0.79005 0.00136 0.0
H1548 H 0.27624 0.04014 0.87246 0.0
H1549 H 0.22443 0.0211 0.22535 0.0
H1550 H 0.20582 1.0029 0.90998 0.0
H1551 H 0.29454 0.05019 0.18661 0.0
H1552 H 0.21706 0.01423 0.11056 0.0
H1553 H 0.28308 0.04469 0.98782 0.0
C1554 C 0.26218 0.03315 0.90481 0.0
C1555 C 0.24038 0.0214 0.88135 0.0
C1556 C 0.23403 0.02196 0.12738 0.0
C1557 C 0.24815 0.0262 0.01384 0.0
C1558 C 0.23828 0.02573 0.19318 0.0
C1559 C 0.2602 0.03618 0.21614 0.0
C1560 C 0.2518 0.02882 0.08421 0.0
C1561 C 0.27739 0.04225 0.17134 0.0
C1562 C 0.26612 0.03556 0.97084 0.0
C1563 C 0.2229 0.01212 0.92594 0.0
N1564 N 0.27284 0.03857 0.10769 0.0
N1565 N 0.22715 0.01481 0.99002 0.0
H1566 H 0.01131 0.23161 0.23348 0.0
H1567 H 0.95549 0.19887 0.88452 0.0
H1568 H 0.94168 0.20652 0.19726 0.0
H1569 H 0.02638 0.23383 0.91595 0.0
H1570 H 0.94992 0.19824 4e-05 0.0
H1571 H 0.01682 0.22862 0.11846 0.0
C1572 C 0.99713 0.22512 0.20163 0.0
C1573 C 0.97598 0.21926 0.22509 0.0
C1574 C 0.9667 0.2061 0.98157 0.0
C1575 C 0.98223 0.21613 0.09347 0.0
C1576 C 0.96994 0.20668 0.91524 0.0
C1577 C 0.99151 0.21686 0.88972 0.0
C1578 C 0.9851 0.21561 0.02299 0.0
C1579 C 1.00944 0.22587 0.93304 0.0
C1580 C 1.00032 0.22362 0.13587 0.0
C1581 C 0.9583 0.21138 0.18125 0.0
N1582 N 1.00584 0.2251 -0.00261 0.0
N1583 N 0.96183 0.21009 0.11768 0.0
H1584 H 0.57653 0.94036 0.78055 0.0
H1585 H 0.54473 0.88652 0.42966 0.0
H1586 H 0.54504 0.86986 0.74711 0.0
H1587 H 0.58421 0.95683 0.46626 0.0
H1588 H 0.5447 0.87969 0.54497 0.0
H1589 H 0.57866 0.94638 0.66486 0.0
C1590 C 0.56977 0.9261 0.74902 0.0
C1591 C 0.56025 0.90452 0.77377 0.0
C1592 C 0.55352 0.89658 0.52752 0.0
C1593 C 0.56309 0.91136 0.64075 0.0
C1594 C 0.55372 0.90051 0.4615 0.0
C1595 C 0.56451 0.92232 0.4379 0.0
C1596 C 0.56406 0.91459 0.57012 0.0
C1597 C 0.57546 0.93974 0.48209 0.0
C1598 C 0.57124 0.92957 0.68277 0.0
C1599 C 0.55246 0.88677 0.73015 0.0
N1600 N 0.57485 0.9355 0.54587 0.0
N1601 N 0.55395 0.89057 0.66578 0.0
H1602 H 0.14024 0.68509 0.73661 0.0
H1603 H 0.05887 0.60931 0.45661 0.0
H1604 H 0.08467 0.61929 0.7678 0.0
H1605 H 0.11733 0.67289 0.42306 0.0
H1606 H 0.06738 0.6133 0.5711 0.0
H1607 H 0.1313 0.68145 0.62248 0.0
C1608 C 0.12607 0.66989 0.71975 0.0
C1609 C 0.11315 0.65256 0.76265 0.0
C1610 C 0.07841 0.62634 0.53871 0.0
C1611 C 0.10284 0.6483 0.63109 0.0
C1612 C 0.07356 0.62411 0.47316 0.0
C1613 C 0.08749 0.64068 0.4296 0.0
C1614 C 0.09729 0.64538 0.56144 0.0
C1615 C 0.1063 0.65944 0.45424 0.0
C1616 C 0.12099 0.66786 0.65436 0.0
C1617 C 0.09495 0.63334 0.73745 0.0
N1618 N 0.1106 0.66128 0.51847 0.0
N1619 N 0.09039 0.63174 0.67342 0.0
H1620 H 0.35578 0.47272 0.4288 0.0
H1621 H 0.37777 0.44068 0.7797 0.0
H1622 H 0.38559 0.43224 0.46516 0.0
H1623 H 0.34048 0.47409 0.74661 0.0
H1624 H 0.38118 0.4381 0.66395 0.0
H1625 H 0.34944 0.4732 0.54429 0.0
C1626 C 0.36065 0.46361 0.46065 0.0
C1627 C 0.37127 0.45241 0.43692 0.0
C1628 C 0.37228 0.44605 0.68195 0.0
C1629 C 0.36451 0.45337 0.56933 0.0
C1630 C 0.37055 0.44776 0.74825 0.0
C1631 C 0.35911 0.45795 0.77313 0.0
C1632 C 0.36255 0.4546 0.64002 0.0
C1633 C 0.34949 0.46614 0.72958 0.0
C1634 C 0.35719 0.46407 0.52676 0.0
C1635 C 0.37757 0.4413 0.48109 0.0
N1636 N 0.35151 0.46438 0.66519 0.0
N1637 N 0.37421 0.44217 0.54495 0.0
H1638 H 0.44705 0.11375 0.56132 0.0
H1639 H 0.48502 0.09753 0.21205 0.0
H1640 H 0.47618 0.0729 0.5217 0.0
H1641 H 0.44479 0.12796 0.24363 0.0
H1642 H 0.48558 0.09219 0.32726 0.0
H1643 H 0.45012 0.12328 0.44694 0.0
C1644 C 0.45438 0.10705 0.52885 0.0
C1645 C 0.46139 0.09251 0.55108 0.0
C1646 C 0.47658 0.09999 0.30895 0.0
C1647 C 0.46471 0.10312 0.42045 0.0
C1648 C 0.47604 0.10287 0.24281 0.0
C1649 C 0.46432 0.11273 0.21746 0.0
C1650 C 0.46548 0.10714 0.35036 0.0
C1651 C 0.4539 0.12013 0.26075 0.0
C1652 C 0.45596 0.11235 0.46352 0.0
C1653 C 0.47039 0.08402 0.50659 0.0
N1654 N 0.45462 0.11709 0.32502 0.0
N1655 N 0.47177 0.08943 0.44352 0.0
H1656 H 0.96246 0.38334 0.52788 0.0
H1657 H 0.87056 0.33459 0.25105 0.0
H1658 H 0.89232 0.35477 0.5648 0.0
H1659 H 0.94108 0.37192 0.21534 0.0
H1660 H 0.87794 0.33917 0.3665 0.0
H1661 H 0.95453 0.37644 0.41371 0.0
C1662 C 0.94535 0.3755 0.51217 0.0
C1663 C 0.92806 0.36962 0.5565 0.0
C1664 C 0.89178 0.34643 0.33336 0.0
C1665 C 0.91888 0.36169 0.42506 0.0
C1666 C 0.8876 0.3438 0.26743 0.0
C1667 C 0.9052 0.35316 0.22324 0.0
C1668 C 0.91374 0.35831 0.35543 0.0
C1669 C 0.92693 0.36488 0.24731 0.0
C1670 C 0.94086 0.37157 0.44679 0.0
C1671 C 0.90622 0.35932 0.53296 0.0
N1672 N 0.93057 0.36708 0.31173 0.0
N1673 N 0.90227 0.35577 0.46879 0.0
H1674 H 0.65048 0.57624 0.21011 0.0
H1675 H 0.66473 0.54292 0.56713 0.0
H1676 H 0.67978 0.53577 0.25349 0.0
H1677 H 0.64297 0.58973 0.52324 0.0
H1678 H 0.67121 0.54071 0.453 0.0
H1679 H 0.64764 0.58132 0.32496 0.0
C1680 C 0.65609 0.56819 0.24366 0.0
C1681 C 0.66504 0.55521 0.22199 0.0
C1682 C 0.66522 0.55162 0.4685 0.0
C1683 C 0.66222 0.56135 0.35382 0.0
C1684 C 0.6617 0.55308 0.53398 0.0
C1685 C 0.65335 0.56664 0.55531 0.0
C1686 C 0.66021 0.56365 0.42395 0.0
C1687 C 0.64925 0.57892 0.50922 0.0
C1688 C 0.65469 0.57131 0.30936 0.0
C1689 C 0.67271 0.54585 0.26799 0.0
N1690 N 0.6526 0.57703 0.44584 0.0
N1691 N 0.671 0.54899 0.33168 0.0
H1692 H 0.21049 0.20293 0.08228 0.0
H1693 H 0.25357 0.29223 0.79869 0.0
H1694 H 0.24296 0.27368 0.11203 0.0
H1695 H 0.21177 0.22198 0.76556 0.0
H1696 H 0.25266 0.28514 0.91331 0.0
H1697 H 0.21324 0.20914 0.96616 0.0
C1698 C 0.21812 0.21977 0.06447 0.0
C1699 C 0.22623 0.23778 0.1072 0.0
C1700 C 0.24376 0.27124 0.88105 0.0
C1701 C 0.22961 0.24498 0.97423 0.0
C1702 C 0.24429 0.27525 0.81539 0.0
C1703 C 0.23269 0.2577 0.77205 0.0
C1704 C 0.23151 0.24947 0.90413 0.0
C1705 C 0.22118 0.23604 0.79679 0.0
C1706 C 0.21965 0.22328 -0.00185 0.0
C1707 C 0.23599 0.25923 0.08127 0.0
N1708 N 0.22078 0.23256 0.86131 0.0
N1709 N 0.23743 0.2622 0.01654 0.0
H1710 H 0.78512 0.00686 0.7643 0.0
H1711 H 0.76311 0.95165 0.11389 0.0
H1712 H 0.74385 0.93679 0.80063 0.0
H1713 H 0.79651 0.02241 0.08215 0.0
H1714 H 0.75887 0.94592 -0.00169 0.0
H1715 H 0.79304 0.01284 0.8796 0.0
C1716 C 0.77803 0.9927 0.79624 0.0
C1717 C 0.76381 0.97128 0.77275 0.0
C1718 C 0.76708 0.96271 0.0167 0.0
C1719 C 0.77251 0.97803 0.9046 0.0
C1720 C 0.76932 0.96603 0.08304 0.0
C1721 C 0.7798 0.9876 0.10846 0.0
C1722 C 0.77547 0.98104 0.97516 0.0
C1723 C 0.78823 1.00547 0.06507 0.0
C1724 C 0.78239 0.99614 0.86214 0.0
C1725 C 0.75476 0.95361 0.81667 0.0
N1726 N 0.78581 1.0018 0.00069 0.0
N1727 N 0.75922 0.95738 0.88034 0.0
H1728 H 0.05308 0.76443 0.78947 0.0
H1729 H 1.0021 0.80356 0.07067 0.0
H1730 H 0.02172 0.80355 0.75459 0.0
H1731 H 0.04285 0.77377 0.10194 0.0
H1732 H 1.00594 0.80087 0.95459 0.0
H1733 H 0.04578 0.76445 0.90368 0.0
C1734 C 0.04449 0.77291 0.80573 0.0
C1735 C 0.03809 0.78407 0.7621 0.0
C1736 C 0.0141 0.79502 0.98694 0.0
C1737 C 0.02977 0.78426 0.8936 0.0
C1738 C 0.01192 0.79653 0.05318 0.0
C1739 C 0.02247 0.78922 0.09627 0.0
C1740 C 0.02669 0.78588 0.96353 0.0
C1741 C 0.03489 0.78016 0.07084 0.0
C1742 C 0.04036 0.77293 0.87112 0.0
C1743 C 0.02678 0.79453 0.78613 0.0
N1744 N 0.03662 0.77874 0.00623 0.0
N1745 N 0.02311 0.7945 0.85043 0.0
loop_
_geom_bond_atom_site_label_1
_geom_bond_atom_site_label_2
_geom_bond_distance
_geom_bond_site_symmetry_2
_ccdc_geom_bond_type
Zn0 N4 2.020 . S
Zn0 O8 2.019 . S
Zn0 N10 2.119 . S
Zn0 O18 1.975 . S
C1 N2 1.334 . S
C1 N5 1.336 . S
N2 C1 1.334 . S
N2 C3 1.334 . S
C3 N2 1.334 . S
C3 N4 1.336 . S
N4 Zn0 2.020 . S
N4 C3 1.336 . S
N4 N5 1.354 . S
N5 C1 1.336 . S
N5 N4 1.354 . S
N5 Zn9 2.020 . S
C6 O7 1.244 . S
C6 O30 1.257 . S
O7 C6 1.244 . S
O8 Zn0 2.019 . S
O8 C28 1.257 . S
Zn9 N5 2.020 . S
Zn9 O16 1.975 . S
Zn9 N25 2.119 . S
Zn9 O30 2.019 . S
N10 Zn0 2.119 . S
N10 C12 1.334 . S
N10 C13 1.328 . S
C11 C12 1.391 . S
C11 N14 1.329 1_554 S
C11 H32 0.930 . S
C12 N10 1.334 . S
C12 C11 1.391 . S
C12 H19 0.930 . S
C13 N10 1.328 . S
C13 C15 1.392 1_554 S
C13 H20 0.930 . S
N14 C11 1.329 1_556 S
N14 C15 1.331 . S
C15 C13 1.392 1_556 S
C15 N14 1.331 . S
O16 Zn9 1.975 . S
O16 C17 1.252 . S
C17 O16 1.252 . S
C17 O18 1.252 . S
O18 Zn0 1.975 . S
O18 C17 1.252 . S
H19 C12 0.930 . S
H20 C13 0.930 . S
C21 C22 1.392 . S
C21 N25 1.328 . S
C21 H27 0.930 . S
C22 C21 1.392 . S
C22 N26 1.331 . S
C23 C24 1.391 . S
C23 N26 1.329 . S
C23 H33 0.930 . S
C24 C23 1.391 . S
C24 N25 1.334 . S
C24 H31 0.930 . S
N25 Zn9 2.119 . S
N25 C21 1.328 . S
N25 C24 1.334 . S
N26 C22 1.331 . S
N26 C23 1.329 . S
H27 C21 0.930 . S
C28 O8 1.257 . S
C28 O29 1.244 . S
O29 C28 1.244 . S
O30 C6 1.257 . S
O30 Zn9 2.019 . S
H31 C24 0.930 . S
H32 C11 0.930 . S
H33 C23 0.930 . S
Zn34 N38 2.020 . S
Zn34 O42 2.019 . S
Zn34 N44 2.119 . S
Zn34 O52 1.975 . S
C35 N36 1.334 . S
C35 N39 1.336 . S
N36 C35 1.334 . S
N36 C37 1.334 . S
C37 N36 1.334 . S
C37 N38 1.336 . S
N38 Zn34 2.020 . S
N38 C37 1.336 . S
N38 N39 1.354 . S
N39 C35 1.336 . S
N39 N38 1.354 . S
N39 Zn43 2.020 . S
C40 O41 1.244 . S
C40 O64 1.257 . S
O41 C40 1.244 . S
O42 Zn34 2.019 . S
O42 C62 1.257 . S
Zn43 N39 2.020 . S
Zn43 O50 1.975 . S
Zn43 N59 2.119 . S
Zn43 O64 2.019 . S
N44 Zn34 2.119 . S
N44 C46 1.334 . S
N44 C47 1.328 . S
C45 C46 1.391 . S
C45 N48 1.329 1_554 S
C45 H66 0.930 . S
C46 N44 1.334 . S
C46 C45 1.391 . S
C46 H53 0.930 . S
C47 N44 1.328 . S
C47 C49 1.392 1_554 S
C47 H54 0.930 . S
N48 C45 1.329 1_556 S
N48 C49 1.331 . S
C49 C47 1.392 1_556 S
C49 N48 1.331 . S
O50 Zn43 1.975 . S
O50 C51 1.252 . S
C51 O50 1.252 . S
C51 O52 1.252 . S
O52 Zn34 1.975 . S
O52 C51 1.252 . S
H53 C46 0.930 . S
H54 C47 0.930 . S
C55 C56 1.392 . S
C55 N59 1.328 . S
C55 H61 0.930 . S
C56 C55 1.392 . S
C56 N60 1.331 . S
C57 C58 1.391 . S
C57 N60 1.329 . S
C57 H67 0.930 . S
C58 C57 1.391 . S
C58 N59 1.334 . S
C58 H65 0.930 . S
N59 Zn43 2.119 . S
N59 C55 1.328 . S
N59 C58 1.334 . S
N60 C56 1.331 . S
N60 C57 1.329 . S
H61 C55 0.930 . S
C62 O42 1.257 . S
C62 O63 1.244 . S
O63 C62 1.244 . S
O64 C40 1.257 . S
O64 Zn43 2.019 . S
H65 C58 0.930 . S
H66 C45 0.930 . S
H67 C57 0.930 . S
Zn68 N72 2.020 . S
Zn68 O76 2.019 . S
Zn68 N78 2.119 . S
Zn68 O86 1.975 . S
C69 N70 1.334 . S
C69 N73 1.336 . S
N70 C69 1.334 . S
N70 C71 1.334 . S
C71 N70 1.334 . S
C71 N72 1.336 . S
N72 Zn68 2.020 . S
N72 C71 1.336 . S
N72 N73 1.354 . S
N73 C69 1.336 . S
N73 N72 1.354 . S
N73 Zn77 2.020 . S
C74 O75 1.244 . S
C74 O98 1.257 . S
O75 C74 1.244 . S
O76 Zn68 2.019 . S
O76 C96 1.257 . S
Zn77 N73 2.020 . S
Zn77 O84 1.975 . S
Zn77 N93 2.119 . S
Zn77 O98 2.019 . S
N78 Zn68 2.119 . S
N78 C80 1.334 . S
N78 C81 1.328 . S
C79 C80 1.391 . S
C79 N82 1.329 1_554 S
C79 H100 0.930 . S
C80 N78 1.334 . S
C80 C79 1.391 . S
C80 H87 0.930 . S
C81 N78 1.328 . S
C81 C83 1.392 1_554 S
C81 H88 0.930 . S
N82 C79 1.329 1_556 S
N82 C83 1.331 . S
C83 C81 1.392 1_556 S
C83 N82 1.331 . S
O84 Zn77 1.975 . S
O84 C85 1.252 . S
C85 O84 1.252 . S
C85 O86 1.252 . S
O86 Zn68 1.975 . S
O86 C85 1.252 . S
H87 C80 0.930 . S
H88 C81 0.930 . S
C89 C90 1.392 . S
C89 N93 1.328 . S
C89 H95 0.930 . S
C90 C89 1.392 . S
C90 N94 1.331 . S
C91 C92 1.391 . S
C91 N94 1.329 . S
C91 H101 0.930 . S
C92 C91 1.391 . S
C92 N93 1.334 . S
C92 H99 0.930 . S
N93 Zn77 2.119 . S
N93 C89 1.328 . S
N93 C92 1.334 . S
N94 C90 1.331 . S
N94 C91 1.329 . S
H95 C89 0.930 . S
C96 O76 1.257 . S
C96 O97 1.244 . S
O97 C96 1.244 . S
O98 C74 1.257 . S
O98 Zn77 2.019 . S
H99 C92 0.930 . S
H100 C79 0.930 . S
H101 C91 0.930 . S
Zn102 N106 2.020 . S
Zn102 O110 2.019 . S
Zn102 N112 2.119 . S
Zn102 O120 1.975 . S
C103 N104 1.334 . S
C103 N107 1.336 . S
N104 C103 1.334 . S
N104 C105 1.334 . S
C105 N104 1.334 . S
C105 N106 1.336 . S
N106 Zn102 2.020 . S
N106 C105 1.336 . S
N106 N107 1.354 . S
N107 C103 1.336 . S
N107 N106 1.354 . S
N107 Zn111 2.020 . S
C108 O109 1.244 . S
C108 O132 1.257 . S
O109 C108 1.244 . S
O110 Zn102 2.019 . S
O110 C130 1.257 . S
Zn111 N107 2.020 . S
Zn111 O118 1.975 . S
Zn111 N127 2.119 . S
Zn111 O132 2.019 . S
N112 Zn102 2.119 . S
N112 C114 1.334 . S
N112 C115 1.328 . S
C113 C114 1.391 . S
C113 N116 1.329 . S
C113 H134 0.930 . S
C114 N112 1.334 . S
C114 C113 1.391 . S
C114 H121 0.930 . S
C115 N112 1.328 . S
C115 C117 1.392 . S
C115 H122 0.930 . S
N116 C113 1.329 . S
N116 C117 1.331 . S
C117 C115 1.392 . S
C117 N116 1.331 . S
O118 Zn111 1.975 . S
O118 C119 1.252 . S
C119 O118 1.252 . S
C119 O120 1.252 . S
O120 Zn102 1.975 . S
O120 C119 1.252 . S
H121 C114 0.930 . S
H122 C115 0.930 . S
C123 C124 1.392 1_556 S
C123 N127 1.328 . S
C123 H129 0.930 . S
C124 C123 1.392 1_554 S
C124 N128 1.331 . S
C125 C126 1.391 . S
C125 N128 1.329 1_556 S
C125 H135 0.930 . S
C126 C125 1.391 . S
C126 N127 1.334 . S
C126 H133 0.930 . S
N127 Zn111 2.119 . S
N127 C123 1.328 . S
N127 C126 1.334 . S
N128 C124 1.331 . S
N128 C125 1.329 1_554 S
H129 C123 0.930 . S
C130 O110 1.257 . S
C130 O131 1.244 . S
O131 C130 1.244 . S
O132 C108 1.257 . S
O132 Zn111 2.019 . S
H133 C126 0.930 . S
H134 C113 0.930 . S
H135 C125 0.930 . S
Zn136 N140 2.020 . S
Zn136 O144 2.019 . S
Zn136 N146 2.119 . S
Zn136 O154 1.975 . S
C137 N138 1.334 . S
C137 N141 1.336 . S
N138 C137 1.334 . S
N138 C139 1.334 . S
C139 N138 1.334 . S
C139 N140 1.336 . S
N140 Zn136 2.020 . S
N140 C139 1.336 . S
N140 N141 1.354 . S
N141 C137 1.336 . S
N141 N140 1.354 . S
N141 Zn145 2.020 . S
C142 O143 1.244 . S
C142 O166 1.257 . S
O143 C142 1.244 . S
O144 Zn136 2.019 . S
O144 C164 1.257 . S
Zn145 N141 2.020 . S
Zn145 O152 1.975 . S
Zn145 N161 2.119 . S
Zn145 O166 2.019 . S
N146 Zn136 2.119 . S
N146 C148 1.334 . S
N146 C149 1.328 . S
C147 C148 1.391 . S
C147 N150 1.329 . S
C147 H168 0.930 . S
C148 N146 1.334 . S
C148 C147 1.391 . S
C148 H155 0.930 . S
C149 N146 1.328 . S
C149 C151 1.392 . S
C149 H156 0.930 . S
N150 C147 1.329 . S
N150 C151 1.331 . S
C151 C149 1.392 . S
C151 N150 1.331 . S
O152 Zn145 1.975 . S
O152 C153 1.252 . S
C153 O152 1.252 . S
C153 O154 1.252 . S
O154 Zn136 1.975 . S
O154 C153 1.252 . S
H155 C148 0.930 . S
H156 C149 0.930 . S
C157 C158 1.392 1_556 S
C157 N161 1.328 . S
C157 H163 0.930 . S
C158 C157 1.392 1_554 S
C158 N162 1.331 . S
C159 C160 1.391 . S
C159 N162 1.329 1_556 S
C159 H169 0.930 . S
C160 C159 1.391 . S
C160 N161 1.334 . S
C160 H167 0.930 . S
N161 Zn145 2.119 . S
N161 C157 1.328 . S
N161 C160 1.334 . S
N162 C158 1.331 . S
N162 C159 1.329 1_554 S
H163 C157 0.930 . S
C164 O144 1.257 . S
C164 O165 1.244 . S
O165 C164 1.244 . S
O166 C142 1.257 . S
O166 Zn145 2.019 . S
H167 C160 0.930 . S
H168 C147 0.930 . S
H169 C159 0.930 . S
Zn170 N174 2.020 . S
Zn170 O178 2.019 . S
Zn170 N180 2.119 . S
Zn170 O188 1.975 . S
C171 N172 1.334 . S
C171 N175 1.336 . S
N172 C171 1.334 . S
N172 C173 1.334 . S
C173 N172 1.334 . S
C173 N174 1.336 . S
N174 Zn170 2.020 . S
N174 C173 1.336 . S
N174 N175 1.354 . S
N175 C171 1.336 . S
N175 N174 1.354 . S
N175 Zn179 2.020 . S
C176 O177 1.244 . S
C176 O200 1.257 . S
O177 C176 1.244 . S
O178 Zn170 2.019 . S
O178 C198 1.257 . S
Zn179 N175 2.020 . S
Zn179 O186 1.975 . S
Zn179 N195 2.119 . S
Zn179 O200 2.019 . S
N180 Zn170 2.119 . S
N180 C182 1.334 . S
N180 C183 1.328 . S
C181 C182 1.391 . S
C181 N184 1.329 . S
C181 H202 0.930 . S
C182 N180 1.334 . S
C182 C181 1.391 . S
C182 H189 0.930 . S
C183 N180 1.328 . S
C183 C185 1.392 . S
C183 H190 0.930 . S
N184 C181 1.329 . S
N184 C185 1.331 . S
C185 C183 1.392 . S
C185 N184 1.331 . S
O186 Zn179 1.975 . S
O186 C187 1.252 . S
C187 O186 1.252 . S
C187 O188 1.252 . S
O188 Zn170 1.975 . S
O188 C187 1.252 . S
H189 C182 0.930 . S
H190 C183 0.930 . S
C191 C192 1.392 1_556 S
C191 N195 1.328 . S
C191 H197 0.930 . S
C192 C191 1.392 1_554 S
C192 N196 1.331 . S
C193 C194 1.391 . S
C193 N196 1.329 1_556 S
C193 H203 0.930 . S
C194 C193 1.391 . S
C194 N195 1.334 . S
C194 H201 0.930 . S
N195 Zn179 2.119 . S
N195 C191 1.328 . S
N195 C194 1.334 . S
N196 C192 1.331 . S
N196 C193 1.329 1_554 S
H197 C191 0.930 . S
C198 O178 1.257 . S
C198 O199 1.244 . S
O199 C198 1.244 . S
O200 C176 1.257 . S
O200 Zn179 2.019 . S
H201 C194 0.930 . S
H202 C181 0.930 . S
H203 C193 0.930 . S
Zn204 N208 2.020 . S
Zn204 O212 2.019 . S
Zn204 N214 2.119 . S
Zn204 O222 1.975 . S
C205 N206 1.334 . S
C205 N209 1.336 . S
N206 C205 1.334 . S
N206 C207 1.334 . S
C207 N206 1.334 . S
C207 N208 1.336 . S
N208 Zn204 2.020 . S
N208 C207 1.336 . S
N208 N209 1.354 . S
N209 C205 1.336 . S
N209 N208 1.354 . S
N209 Zn213 2.020 . S
C210 O211 1.244 . S
C210 O234 1.257 . S
O211 C210 1.244 . S
O212 Zn204 2.019 . S
O212 C232 1.257 . S
Zn213 N209 2.020 . S
Zn213 O220 1.975 . S
Zn213 N229 2.119 . S
Zn213 O234 2.019 . S
N214 Zn204 2.119 . S
N214 C216 1.334 . S
N214 C217 1.328 . S
C215 C216 1.391 . S
C215 N218 1.329 . S
C215 H236 0.930 . S
C216 N214 1.334 . S
C216 C215 1.391 . S
C216 H223 0.930 . S
C217 N214 1.328 . S
C217 C219 1.392 . S
C217 H224 0.930 . S
N218 C215 1.329 . S
N218 C219 1.331 . S
C219 C217 1.392 . S
C219 N218 1.331 . S
O220 Zn213 1.975 . S
O220 C221 1.252 . S
C221 O220 1.252 . S
C221 O222 1.252 . S
O222 Zn204 1.975 . S
O222 C221 1.252 . S
H223 C216 0.930 . S
H224 C217 0.930 . S
C225 C226 1.392 . S
C225 N229 1.328 . S
C225 H231 0.930 . S
C226 C225 1.392 . S
C226 N230 1.331 . S
C227 C228 1.391 . S
C227 N230 1.329 . S
C227 H237 0.930 . S
C228 C227 1.391 . S
C228 N229 1.334 . S
C228 H235 0.930 . S
N229 Zn213 2.119 . S
N229 C225 1.328 . S
N229 C228 1.334 . S
N230 C226 1.331 . S
N230 C227 1.329 . S
H231 C225 0.930 . S
C232 O212 1.257 . S
C232 O233 1.244 . S
O233 C232 1.244 . S
O234 C210 1.257 . S
O234 Zn213 2.019 . S
H235 C228 0.930 . S
H236 C215 0.930 . S
H237 C227 0.930 . S
Zn238 N242 2.020 . S
Zn238 O246 2.019 . S
Zn238 N248 2.119 . S
Zn238 O256 1.975 . S
C239 N240 1.334 . S
C239 N243 1.336 . S
N240 C239 1.334 . S
N240 C241 1.334 . S
C241 N240 1.334 . S
C241 N242 1.336 . S
N242 Zn238 2.020 . S
N242 C241 1.336 . S
N242 N243 1.354 . S
N243 C239 1.336 . S
N243 N242 1.354 . S
N243 Zn247 2.020 . S
C244 O245 1.244 . S
C244 O268 1.257 . S
O245 C244 1.244 . S
O246 Zn238 2.019 . S
O246 C266 1.257 1_545 S
Zn247 N243 2.020 . S
Zn247 O254 1.975 . S
Zn247 N263 2.119 . S
Zn247 O268 2.019 . S
N248 Zn238 2.119 . S
N248 C250 1.334 . S
N248 C251 1.328 . S
C249 C250 1.391 . S
C249 N252 1.329 . S
C249 H270 0.930 . S
C250 N248 1.334 . S
C250 C249 1.391 . S
C250 H257 0.930 . S
C251 N248 1.328 . S
C251 C253 1.392 . S
C251 H258 0.930 . S
N252 C249 1.329 . S
N252 C253 1.331 . S
C253 C251 1.392 . S
C253 N252 1.331 . S
O254 Zn247 1.975 . S
O254 C255 1.252 . S
C255 O254 1.252 . S
C255 O256 1.252 . S
O256 Zn238 1.975 . S
O256 C255 1.252 . S
H257 C250 0.930 . S
H258 C251 0.930 . S
C259 C260 1.392 . S
C259 N263 1.328 . S
C259 H265 0.930 . S
C260 C259 1.392 . S
C260 N264 1.331 . S
C261 C262 1.391 . S
C261 N264 1.329 . S
C261 H271 0.930 . S
C262 C261 1.391 . S
C262 N263 1.334 . S
C262 H269 0.930 . S
N263 Zn247 2.119 . S
N263 C259 1.328 . S
N263 C262 1.334 . S
N264 C260 1.331 . S
N264 C261 1.329 . S
H265 C259 0.930 . S
C266 O246 1.257 1_565 S
C266 O267 1.244 . S
O267 C266 1.244 . S
O268 C244 1.257 . S
O268 Zn247 2.019 . S
H269 C262 0.930 . S
H270 C249 0.930 . S
H271 C261 0.930 . S
Zn272 N276 2.020 . S
Zn272 O280 2.019 . S
Zn272 N282 2.119 . S
Zn272 O290 1.975 . S
C273 N274 1.334 . S
C273 N277 1.336 . S
N274 C273 1.334 . S
N274 C275 1.334 . S
C275 N274 1.334 . S
C275 N276 1.336 . S
N276 Zn272 2.020 . S
N276 C275 1.336 . S
N276 N277 1.354 . S
N277 C273 1.336 . S
N277 N276 1.354 . S
N277 Zn281 2.020 . S
C278 O279 1.244 . S
C278 O302 1.257 . S
O279 C278 1.244 . S
O280 Zn272 2.019 . S
O280 C300 1.257 1_655 S
Zn281 N277 2.020 . S
Zn281 O288 1.975 . S
Zn281 N297 2.119 . S
Zn281 O302 2.019 . S
N282 Zn272 2.119 . S
N282 C284 1.334 . S
N282 C285 1.328 . S
C283 C284 1.391 . S
C283 N286 1.329 . S
C283 H304 0.930 . S
C284 N282 1.334 . S
C284 C283 1.391 . S
C284 H291 0.930 . S
C285 N282 1.328 . S
C285 C287 1.392 . S
C285 H292 0.930 . S
N286 C283 1.329 . S
N286 C287 1.331 . S
C287 C285 1.392 . S
C287 N286 1.331 . S
O288 Zn281 1.975 . S
O288 C289 1.252 . S
C289 O288 1.252 . S
C289 O290 1.252 . S
O290 Zn272 1.975 . S
O290 C289 1.252 . S
H291 C284 0.930 . S
H292 C285 0.930 . S
C293 C294 1.392 . S
C293 N297 1.328 . S
C293 H299 0.930 . S
C294 C293 1.392 . S
C294 N298 1.331 . S
C295 C296 1.391 . S
C295 N298 1.329 . S
C295 H305 0.930 . S
C296 C295 1.391 . S
C296 N297 1.334 . S
C296 H303 0.930 . S
N297 Zn281 2.119 . S
N297 C293 1.328 . S
N297 C296 1.334 . S
N298 C294 1.331 . S
N298 C295 1.329 . S
H299 C293 0.930 . S
C300 O280 1.257 1_455 S
C300 O301 1.244 . S
O301 C300 1.244 . S
O302 C278 1.257 . S
O302 Zn281 2.019 . S
H303 C296 0.930 . S
H304 C283 0.930 . S
H305 C295 0.930 . S
Zn306 N310 2.020 . S
Zn306 O314 2.019 1_554 S
Zn306 N316 2.119 1_554 S
Zn306 O324 1.975 . S
C307 N308 1.334 . S
C307 N311 1.336 . S
N308 C307 1.334 . S
N308 C309 1.334 . S
C309 N308 1.334 . S
C309 N310 1.336 . S
N310 Zn306 2.020 . S
N310 C309 1.336 . S
N310 N311 1.354 . S
N311 C307 1.336 . S
N311 N310 1.354 . S
N311 Zn315 2.020 . S
C312 O313 1.244 . S
C312 O336 1.257 . S
O313 C312 1.244 . S
O314 Zn306 2.019 1_556 S
O314 C334 1.257 1_556 S
Zn315 N311 2.020 . S
Zn315 O322 1.975 . S
Zn315 N331 2.119 . S
Zn315 O336 2.019 . S
N316 Zn306 2.119 1_556 S
N316 C318 1.334 . S
N316 C319 1.328 . S
C317 C318 1.391 . S
C317 N320 1.329 . S
C317 H338 0.930 . S
C318 N316 1.334 . S
C318 C317 1.391 . S
C318 H325 0.930 . S
C319 N316 1.328 . S
C319 C321 1.392 . S
C319 H326 0.930 . S
N320 C317 1.329 . S
N320 C321 1.331 . S
C321 C319 1.392 . S
C321 N320 1.331 . S
O322 Zn315 1.975 . S
O322 C323 1.252 . S
C323 O322 1.252 . S
C323 O324 1.252 . S
O324 Zn306 1.975 . S
O324 C323 1.252 . S
H325 C318 0.930 . S
H326 C319 0.930 . S
C327 C328 1.392 . S
C327 N331 1.328 . S
C327 H333 0.930 . S
C328 C327 1.392 . S
C328 N332 1.331 . S
C329 C330 1.391 . S
C329 N332 1.329 . S
C329 H339 0.930 . S
C330 C329 1.391 . S
C330 N331 1.334 . S
C330 H337 0.930 . S
N331 Zn315 2.119 . S
N331 C327 1.328 . S
N331 C330 1.334 . S
N332 C328 1.331 . S
N332 C329 1.329 . S
H333 C327 0.930 . S
C334 O314 1.257 1_554 S
C334 O335 1.244 . S
O335 C334 1.244 . S
O336 C312 1.257 . S
O336 Zn315 2.019 . S
H337 C330 0.930 . S
H338 C317 0.930 . S
H339 C329 0.930 . S
Zn340 N344 2.020 . S
Zn340 O348 2.019 . S
Zn340 N350 2.119 . S
Zn340 O358 1.975 . S
C341 N342 1.334 . S
C341 N345 1.336 . S
N342 C341 1.334 . S
N342 C343 1.334 . S
C343 N342 1.334 . S
C343 N344 1.336 . S
N344 Zn340 2.020 . S
N344 C343 1.336 . S
N344 N345 1.354 . S
N345 C341 1.336 . S
N345 N344 1.354 . S
N345 Zn349 2.020 . S
C346 O347 1.244 . S
C346 O370 1.257 1_554 S
O347 C346 1.244 . S
O348 Zn340 2.019 . S
O348 C368 1.257 . S
Zn349 N345 2.020 . S
Zn349 O356 1.975 . S
Zn349 N365 2.119 1_554 S
Zn349 O370 2.019 1_554 S
N350 Zn340 2.119 . S
N350 C352 1.334 . S
N350 C353 1.328 . S
C351 C352 1.391 . S
C351 N354 1.329 . S
C351 H372 0.930 . S
C352 N350 1.334 . S
C352 C351 1.391 . S
C352 H359 0.930 . S
C353 N350 1.328 . S
C353 C355 1.392 . S
C353 H360 0.930 . S
N354 C351 1.329 . S
N354 C355 1.331 . S
C355 C353 1.392 . S
C355 N354 1.331 . S
O356 Zn349 1.975 . S
O356 C357 1.252 . S
C357 O356 1.252 . S
C357 O358 1.252 . S
O358 Zn340 1.975 . S
O358 C357 1.252 . S
H359 C352 0.930 . S
H360 C353 0.930 . S
C361 C362 1.392 . S
C361 N365 1.328 . S
C361 H367 0.930 . S
C362 C361 1.392 . S
C362 N366 1.331 . S
C363 C364 1.391 . S
C363 N366 1.329 . S
C363 H373 0.930 . S
C364 C363 1.391 . S
C364 N365 1.334 . S
C364 H371 0.930 . S
N365 Zn349 2.119 1_556 S
N365 C361 1.328 . S
N365 C364 1.334 . S
N366 C362 1.331 . S
N366 C363 1.329 . S
H367 C361 0.930 . S
C368 O348 1.257 . S
C368 O369 1.244 . S
O369 C368 1.244 . S
O370 C346 1.257 1_556 S
O370 Zn349 2.019 1_556 S
H371 C364 0.930 . S
H372 C351 0.930 . S
H373 C363 0.930 . S
Zn374 N378 2.020 . S
Zn374 O382 2.019 1_554 S
Zn374 N384 2.119 1_554 S
Zn374 O392 1.975 . S
C375 N376 1.334 . S
C375 N379 1.336 . S
N376 C375 1.334 . S
N376 C377 1.334 . S
C377 N376 1.334 . S
C377 N378 1.336 . S
N378 Zn374 2.020 . S
N378 C377 1.336 . S
N378 N379 1.354 . S
N379 C375 1.336 . S
N379 N378 1.354 . S
N379 Zn383 2.020 . S
C380 O381 1.244 . S
C380 O404 1.257 . S
O381 C380 1.244 . S
O382 Zn374 2.019 1_556 S
O382 C402 1.257 1_556 S
Zn383 N379 2.020 . S
Zn383 O390 1.975 . S
Zn383 N399 2.119 . S
Zn383 O404 2.019 . S
N384 Zn374 2.119 1_556 S
N384 C386 1.334 . S
N384 C387 1.328 . S
C385 C386 1.391 . S
C385 N388 1.329 . S
C385 H406 0.930 . S
C386 N384 1.334 . S
C386 C385 1.391 . S
C386 H393 0.930 . S
C387 N384 1.328 . S
C387 C389 1.392 . S
C387 H394 0.930 . S
N388 C385 1.329 . S
N388 C389 1.331 . S
C389 C387 1.392 . S
C389 N388 1.331 . S
O390 Zn383 1.975 . S
O390 C391 1.252 . S
C391 O390 1.252 . S
C391 O392 1.252 . S
O392 Zn374 1.975 . S
O392 C391 1.252 . S
H393 C386 0.930 . S
H394 C387 0.930 . S
C395 C396 1.392 . S
C395 N399 1.328 . S
C395 H401 0.930 . S
C396 C395 1.392 . S
C396 N400 1.331 . S
C397 C398 1.391 . S
C397 N400 1.329 . S
C397 H407 0.930 . S
C398 C397 1.391 . S
C398 N399 1.334 . S
C398 H405 0.930 . S
N399 Zn383 2.119 . S
N399 C395 1.328 . S
N399 C398 1.334 . S
N400 C396 1.331 . S
N400 C397 1.329 . S
H401 C395 0.930 . S
C402 O382 1.257 1_554 S
C402 O403 1.244 . S
O403 C402 1.244 . S
O404 C380 1.257 . S
O404 Zn383 2.019 . S
H405 C398 0.930 . S
H406 C385 0.930 . S
H407 C397 0.930 . S
Zn408 N412 2.020 . S
Zn408 O416 2.019 . S
Zn408 N418 2.119 . S
Zn408 O426 1.975 . S
C409 N410 1.334 . S
C409 N413 1.336 . S
N410 C409 1.334 . S
N410 C411 1.334 . S
C411 N410 1.334 . S
C411 N412 1.336 . S
N412 Zn408 2.020 . S
N412 C411 1.336 . S
N412 N413 1.354 . S
N413 C409 1.336 . S
N413 N412 1.354 . S
N413 Zn417 2.020 . S
C414 O415 1.244 . S
C414 O438 1.257 1_556 S
O415 C414 1.244 . S
O416 Zn408 2.019 . S
O416 C436 1.257 . S
Zn417 N413 2.020 . S
Zn417 O424 1.975 . S
Zn417 N433 2.119 1_556 S
Zn417 O438 2.019 1_556 S
N418 Zn408 2.119 . S
N418 C420 1.334 . S
N418 C421 1.328 . S
C419 C420 1.391 . S
C419 N422 1.329 . S
C419 H440 0.930 . S
C420 N418 1.334 . S
C420 C419 1.391 . S
C420 H427 0.930 . S
C421 N418 1.328 . S
C421 C423 1.392 . S
C421 H428 0.930 . S
N422 C419 1.329 . S
N422 C423 1.331 . S
C423 C421 1.392 . S
C423 N422 1.331 . S
O424 Zn417 1.975 . S
O424 C425 1.252 . S
C425 O424 1.252 . S
C425 O426 1.252 . S
O426 Zn408 1.975 . S
O426 C425 1.252 . S
H427 C420 0.930 . S
H428 C421 0.930 . S
C429 C430 1.392 . S
C429 N433 1.328 . S
C429 H435 0.930 . S
C430 C429 1.392 . S
C430 N434 1.331 . S
C431 C432 1.391 . S
C431 N434 1.329 . S
C431 H441 0.930 . S
C432 C431 1.391 . S
C432 N433 1.334 . S
C432 H439 0.930 . S
N433 Zn417 2.119 1_554 S
N433 C429 1.328 . S
N433 C432 1.334 . S
N434 C430 1.331 . S
N434 C431 1.329 . S
H435 C429 0.930 . S
C436 O416 1.257 . S
C436 O437 1.244 . S
O437 C436 1.244 . S
O438 C414 1.257 1_554 S
O438 Zn417 2.019 1_554 S
H439 C432 0.930 . S
H440 C419 0.930 . S
H441 C431 0.930 . S
Zn442 N446 2.020 . S
Zn442 O450 2.019 . S
Zn442 N452 2.119 . S
Zn442 O460 1.975 . S
C443 N444 1.334 . S
C443 N447 1.336 . S
N444 C443 1.334 . S
N444 C445 1.334 . S
C445 N444 1.334 . S
C445 N446 1.336 . S
N446 Zn442 2.020 . S
N446 C445 1.336 . S
N446 N447 1.354 . S
N447 C443 1.336 . S
N447 N446 1.354 . S
N447 Zn451 2.020 . S
C448 O449 1.244 . S
C448 O472 1.257 1_556 S
O449 C448 1.244 . S
O450 Zn442 2.019 . S
O450 C470 1.257 . S
Zn451 N447 2.020 . S
Zn451 O458 1.975 . S
Zn451 N467 2.119 1_556 S
Zn451 O472 2.019 1_556 S
N452 Zn442 2.119 . S
N452 C454 1.334 . S
N452 C455 1.328 . S
C453 C454 1.391 . S
C453 N456 1.329 . S
C453 H474 0.930 . S
C454 N452 1.334 . S
C454 C453 1.391 . S
C454 H461 0.930 . S
C455 N452 1.328 . S
C455 C457 1.392 . S
C455 H462 0.930 . S
N456 C453 1.329 . S
N456 C457 1.331 . S
C457 C455 1.392 . S
C457 N456 1.331 . S
O458 Zn451 1.975 . S
O458 C459 1.252 . S
C459 O458 1.252 . S
C459 O460 1.252 . S
O460 Zn442 1.975 . S
O460 C459 1.252 . S
H461 C454 0.930 . S
H462 C455 0.930 . S
C463 C464 1.392 . S
C463 N467 1.328 . S
C463 H469 0.930 . S
C464 C463 1.392 . S
C464 N468 1.331 . S
C465 C466 1.391 . S
C465 N468 1.329 . S
C465 H475 0.930 . S
C466 C465 1.391 . S
C466 N467 1.334 . S
C466 H473 0.930 . S
N467 Zn451 2.119 1_554 S
N467 C463 1.328 . S
N467 C466 1.334 . S
N468 C464 1.331 . S
N468 C465 1.329 . S
H469 C463 0.930 . S
C470 O450 1.257 . S
C470 O471 1.244 . S
O471 C470 1.244 . S
O472 C448 1.257 1_554 S
O472 Zn451 2.019 1_554 S
H473 C466 0.930 . S
H474 C453 0.930 . S
H475 C465 0.930 . S
Zn476 N480 2.020 . S
Zn476 O484 2.019 . S
Zn476 N486 2.119 . S
Zn476 O494 1.975 . S
C477 N478 1.334 . S
C477 N481 1.336 . S
N478 C477 1.334 . S
N478 C479 1.334 . S
C479 N478 1.334 . S
C479 N480 1.336 . S
N480 Zn476 2.020 . S
N480 C479 1.336 . S
N480 N481 1.354 . S
N481 C477 1.336 . S
N481 N480 1.354 . S
N481 Zn485 2.020 . S
C482 O483 1.244 . S
C482 O506 1.257 1_556 S
O483 C482 1.244 . S
O484 Zn476 2.019 . S
O484 C504 1.257 . S
Zn485 N481 2.020 . S
Zn485 O492 1.975 . S
Zn485 N501 2.119 1_556 S
Zn485 O506 2.019 1_556 S
N486 Zn476 2.119 . S
N486 C488 1.334 . S
N486 C489 1.328 . S
C487 C488 1.391 . S
C487 N490 1.329 . S
C487 H508 0.930 . S
C488 N486 1.334 . S
C488 C487 1.391 . S
C488 H495 0.930 . S
C489 N486 1.328 . S
C489 C491 1.392 . S
C489 H496 0.930 . S
N490 C487 1.329 . S
N490 C491 1.331 . S
C491 C489 1.392 . S
C491 N490 1.331 . S
O492 Zn485 1.975 . S
O492 C493 1.252 . S
C493 O492 1.252 . S
C493 O494 1.252 . S
O494 Zn476 1.975 . S
O494 C493 1.252 . S
H495 C488 0.930 . S
H496 C489 0.930 . S
C497 C498 1.392 . S
C497 N501 1.328 . S
C497 H503 0.930 . S
C498 C497 1.392 . S
C498 N502 1.331 . S
C499 C500 1.391 . S
C499 N502 1.329 . S
C499 H509 0.930 . S
C500 C499 1.391 . S
C500 N501 1.334 . S
C500 H507 0.930 . S
N501 Zn485 2.119 1_554 S
N501 C497 1.328 . S
N501 C500 1.334 . S
N502 C498 1.331 . S
N502 C499 1.329 . S
H503 C497 0.930 . S
C504 O484 1.257 . S
C504 O505 1.244 . S
O505 C504 1.244 . S
O506 C482 1.257 1_554 S
O506 Zn485 2.019 1_554 S
H507 C500 0.930 . S
H508 C487 0.930 . S
H509 C499 0.930 . S
Zn510 N514 2.020 . S
Zn510 O518 2.019 . S
Zn510 N520 2.119 . S
Zn510 O528 1.975 . S
C511 N512 1.334 . S
C511 N515 1.336 . S
N512 C511 1.334 . S
N512 C513 1.334 . S
C513 N512 1.334 . S
C513 N514 1.336 . S
N514 Zn510 2.020 . S
N514 C513 1.336 . S
N514 N515 1.354 . S
N515 C511 1.336 . S
N515 N514 1.354 . S
N515 Zn519 2.020 . S
C516 O517 1.244 . S
C516 O540 1.257 . S
O517 C516 1.244 . S
O518 Zn510 2.019 . S
O518 C538 1.257 . S
Zn519 N515 2.020 . S
Zn519 O526 1.975 . S
Zn519 N535 2.119 . S
Zn519 O540 2.019 . S
N520 Zn510 2.119 . S
N520 C522 1.334 . S
N520 C523 1.328 . S
C521 C522 1.391 . S
C521 N524 1.329 . S
C521 H542 0.930 . S
C522 N520 1.334 . S
C522 C521 1.391 . S
C522 H529 0.930 . S
C523 N520 1.328 . S
C523 C525 1.392 . S
C523 H530 0.930 . S
N524 C521 1.329 . S
N524 C525 1.331 . S
C525 C523 1.392 . S
C525 N524 1.331 . S
O526 Zn519 1.975 . S
O526 C527 1.252 . S
C527 O526 1.252 . S
C527 O528 1.252 . S
O528 Zn510 1.975 . S
O528 C527 1.252 . S
H529 C522 0.930 . S
H530 C523 0.930 . S
C531 C532 1.392 . S
C531 N535 1.328 . S
C531 H537 0.930 . S
C532 C531 1.392 . S
C532 N536 1.331 . S
C533 C534 1.391 . S
C533 N536 1.329 . S
C533 H543 0.930 . S
C534 C533 1.391 . S
C534 N535 1.334 . S
C534 H541 0.930 . S
N535 Zn519 2.119 . S
N535 C531 1.328 . S
N535 C534 1.334 . S
N536 C532 1.331 . S
N536 C533 1.329 . S
H537 C531 0.930 . S
C538 O518 1.257 . S
C538 O539 1.244 . S
O539 C538 1.244 . S
O540 C516 1.257 . S
O540 Zn519 2.019 . S
H541 C534 0.930 . S
H542 C521 0.930 . S
H543 C533 0.930 . S
Zn544 N548 2.020 . S
Zn544 O552 2.019 . S
Zn544 N554 2.119 . S
Zn544 O562 1.975 . S
C545 N546 1.334 . S
C545 N549 1.336 . S
N546 C545 1.334 . S
N546 C547 1.334 . S
C547 N546 1.334 . S
C547 N548 1.336 . S
N548 Zn544 2.020 . S
N548 C547 1.336 . S
N548 N549 1.354 . S
N549 C545 1.336 . S
N549 N548 1.354 . S
N549 Zn553 2.020 . S
C550 O551 1.244 . S
C550 O574 1.257 . S
O551 C550 1.244 . S
O552 Zn544 2.019 . S
O552 C572 1.257 1_565 S
Zn553 N549 2.020 . S
Zn553 O560 1.975 . S
Zn553 N569 2.119 . S
Zn553 O574 2.019 . S
N554 Zn544 2.119 . S
N554 C556 1.334 . S
N554 C557 1.328 . S
C555 C556 1.391 . S
C555 N558 1.329 . S
C555 H576 0.930 . S
C556 N554 1.334 . S
C556 C555 1.391 . S
C556 H563 0.930 . S
C557 N554 1.328 . S
C557 C559 1.392 . S
C557 H564 0.930 . S
N558 C555 1.329 . S
N558 C559 1.331 . S
C559 C557 1.392 . S
C559 N558 1.331 . S
O560 Zn553 1.975 . S
O560 C561 1.252 . S
C561 O560 1.252 . S
C561 O562 1.252 . S
O562 Zn544 1.975 . S
O562 C561 1.252 . S
H563 C556 0.930 . S
H564 C557 0.930 . S
C565 C566 1.392 . S
C565 N569 1.328 . S
C565 H571 0.930 . S
C566 C565 1.392 . S
C566 N570 1.331 . S
C567 C568 1.391 . S
C567 N570 1.329 . S
C567 H577 0.930 . S
C568 C567 1.391 . S
C568 N569 1.334 . S
C568 H575 0.930 . S
N569 Zn553 2.119 . S
N569 C565 1.328 . S
N569 C568 1.334 . S
N570 C566 1.331 . S
N570 C567 1.329 . S
H571 C565 0.930 . S
C572 O552 1.257 1_545 S
C572 O573 1.244 . S
O573 C572 1.244 . S
O574 C550 1.257 . S
O574 Zn553 2.019 . S
H575 C568 0.930 . S
H576 C555 0.930 . S
H577 C567 0.930 . S
Zn578 N582 2.020 . S
Zn578 O586 2.019 . S
Zn578 N588 2.119 . S
Zn578 O596 1.975 . S
C579 N580 1.334 . S
C579 N583 1.336 . S
N580 C579 1.334 . S
N580 C581 1.334 . S
C581 N580 1.334 . S
C581 N582 1.336 . S
N582 Zn578 2.020 . S
N582 C581 1.336 . S
N582 N583 1.354 . S
N583 C579 1.336 . S
N583 N582 1.354 . S
N583 Zn587 2.020 . S
C584 O585 1.244 . S
C584 O608 1.257 1_655 S
O585 C584 1.244 . S
O586 Zn578 2.019 . S
O586 C606 1.257 . S
Zn587 N583 2.020 . S
Zn587 O594 1.975 . S
Zn587 N603 2.119 . S
Zn587 O608 2.019 . S
N588 Zn578 2.119 . S
N588 C590 1.334 . S
N588 C591 1.328 . S
C589 C590 1.391 . S
C589 N592 1.329 . S
C589 H610 0.930 . S
C590 N588 1.334 . S
C590 C589 1.391 . S
C590 H597 0.930 . S
C591 N588 1.328 . S
C591 C593 1.392 . S
C591 H598 0.930 . S
N592 C589 1.329 . S
N592 C593 1.331 . S
C593 C591 1.392 . S
C593 N592 1.331 . S
O594 Zn587 1.975 . S
O594 C595 1.252 . S
C595 O594 1.252 . S
C595 O596 1.252 . S
O596 Zn578 1.975 . S
O596 C595 1.252 . S
H597 C590 0.930 . S
H598 C591 0.930 . S
C599 C600 1.392 . S
C599 N603 1.328 . S
C599 H605 0.930 . S
C600 C599 1.392 . S
C600 N604 1.331 . S
C601 C602 1.391 . S
C601 N604 1.329 . S
C601 H611 0.930 . S
C602 C601 1.391 . S
C602 N603 1.334 . S
C602 H609 0.930 . S
N603 Zn587 2.119 . S
N603 C599 1.328 . S
N603 C602 1.334 . S
N604 C600 1.331 . S
N604 C601 1.329 . S
H605 C599 0.930 . S
C606 O586 1.257 . S
C606 O607 1.244 . S
O607 C606 1.244 . S
O608 C584 1.257 1_455 S
O608 Zn587 2.019 . S
H609 C602 0.930 . S
H610 C589 0.930 . S
H611 C601 0.930 . S
H612 C618 0.930 . S
H613 C622 0.930 . S
H614 C627 0.929 . S
H615 C625 0.929 . S
H616 C620 0.929 . S
H617 C626 0.929 1_455 S
C618 H612 0.930 . S
C618 C619 1.367 . S
C618 C626 1.378 1_556 S
C619 C618 1.367 . S
C619 C627 1.433 1_556 S
C620 H616 0.929 . S
C620 C622 1.378 . S
C620 C624 1.350 . S
C621 C624 1.463 . S
C621 C626 1.350 1_455 S
C621 N629 1.427 . S
C622 H613 0.930 . S
C622 C620 1.378 . S
C622 C623 1.367 . S
C623 C622 1.367 . S
C623 C625 1.433 . S
C624 C620 1.350 . S
C624 C621 1.463 . S
C624 N628 1.427 . S
C625 H615 0.929 . S
C625 C623 1.433 . S
C625 N628 1.384 . S
C626 H617 0.929 1_655 S
C626 C618 1.378 1_554 S
C626 C621 1.350 1_655 S
C627 H614 0.929 . S
C627 C619 1.433 1_554 S
C627 N629 1.384 1_655 S
N628 C624 1.427 . S
N628 C625 1.384 . S
N629 C621 1.427 . S
N629 C627 1.384 1_455 S
H630 C636 0.930 . S
H631 C640 0.930 . S
H632 C645 0.929 . S
H633 C643 0.929 . S
H634 C638 0.929 . S
H635 C644 0.929 . S
C636 H630 0.930 . S
C636 C637 1.367 . S
C636 C644 1.378 1_556 S
C637 C636 1.367 . S
C637 C645 1.433 1_556 S
C638 H634 0.929 . S
C638 C640 1.378 . S
C638 C642 1.350 . S
C639 C642 1.463 . S
C639 C644 1.350 . S
C639 N647 1.427 . S
C640 H631 0.930 . S
C640 C638 1.378 . S
C640 C641 1.367 . S
C641 C640 1.367 . S
C641 C643 1.433 . S
C642 C638 1.350 . S
C642 C639 1.463 . S
C642 N646 1.427 . S
C643 H633 0.929 . S
C643 C641 1.433 . S
C643 N646 1.384 . S
C644 H635 0.929 . S
C644 C636 1.378 1_554 S
C644 C639 1.350 . S
C645 H632 0.929 . S
C645 C637 1.433 1_554 S
C645 N647 1.384 . S
N646 C642 1.427 . S
N646 C643 1.384 . S
N647 C639 1.427 . S
N647 C645 1.384 . S
H648 C654 0.930 . S
H649 C658 0.930 . S
H650 C663 0.929 . S
H651 C661 0.929 . S
H652 C656 0.929 . S
H653 C662 0.929 . S
C654 H648 0.930 . S
C654 C655 1.367 . S
C654 C662 1.378 . S
C655 C654 1.367 . S
C655 C663 1.433 . S
C656 H652 0.929 . S
C656 C658 1.378 1_565 S
C656 C660 1.350 1_556 S
C657 C660 1.463 . S
C657 C662 1.350 . S
C657 N665 1.427 . S
C658 H649 0.930 . S
C658 C656 1.378 1_545 S
C658 C659 1.367 . S
C659 C658 1.367 . S
C659 C661 1.433 1_556 S
C660 C656 1.350 1_554 S
C660 C657 1.463 . S
C660 N664 1.427 1_565 S
C661 H651 0.929 . S
C661 C659 1.433 1_554 S
C661 N664 1.384 . S
C662 H653 0.929 . S
C662 C654 1.378 . S
C662 C657 1.350 . S
C663 H650 0.929 . S
C663 C655 1.433 . S
C663 N665 1.384 . S
N664 C660 1.427 1_545 S
N664 C661 1.384 . S
N665 C657 1.427 . S
N665 C663 1.384 . S
H666 C672 0.930 . S
H667 C676 0.930 . S
H668 C681 0.929 . S
H669 C679 0.929 . S
H670 C674 0.929 . S
H671 C680 0.929 . S
C672 H666 0.930 . S
C672 C673 1.367 . S
C672 C680 1.378 . S
C673 C672 1.367 . S
C673 C681 1.433 . S
C674 H670 0.929 . S
C674 C676 1.378 1_656 S
C674 C678 1.350 . S
C675 C678 1.463 . S
C675 C680 1.350 . S
C675 N683 1.427 . S
C676 H667 0.930 . S
C676 C674 1.378 1_454 S
C676 C677 1.367 . S
C677 C676 1.367 . S
C677 C679 1.433 1_554 S
C678 C674 1.350 . S
C678 C675 1.463 . S
C678 N682 1.427 1_655 S
C679 H669 0.929 . S
C679 C677 1.433 1_556 S
C679 N682 1.384 . S
C680 H671 0.929 . S
C680 C672 1.378 . S
C680 C675 1.350 . S
C681 H668 0.929 . S
C681 C673 1.433 . S
C681 N683 1.384 . S
N682 C678 1.427 1_455 S
N682 C679 1.384 . S
N683 C675 1.427 . S
N683 C681 1.384 . S
H684 C690 0.930 . S
H685 C694 0.930 . S
H686 C699 0.929 . S
H687 C697 0.929 . S
H688 C692 0.929 . S
H689 C698 0.929 . S
C690 H684 0.930 . S
C690 C691 1.367 . S
C690 C698 1.378 . S
C691 C690 1.367 . S
C691 C699 1.433 . S
C692 H688 0.929 . S
C692 C694 1.378 . S
C692 C696 1.350 . S
C693 C696 1.463 . S
C693 C698 1.350 . S
C693 N701 1.427 . S
C694 H685 0.930 . S
C694 C692 1.378 . S
C694 C695 1.367 1_556 S
C695 C694 1.367 1_554 S
C695 C697 1.433 . S
C696 C692 1.350 . S
C696 C693 1.463 . S
C696 N700 1.427 . S
C697 H687 0.929 . S
C697 C695 1.433 . S
C697 N700 1.384 1_554 S
C698 H689 0.929 . S
C698 C690 1.378 . S
C698 C693 1.350 . S
C699 H686 0.929 . S
C699 C691 1.433 . S
C699 N701 1.384 . S
N700 C696 1.427 . S
N700 C697 1.384 1_556 S
N701 C693 1.427 . S
N701 C699 1.384 . S
H702 C708 0.930 . S
H703 C712 0.930 . S
H704 C717 0.929 . S
H705 C715 0.929 . S
H706 C710 0.929 . S
H707 C716 0.929 . S
C708 H702 0.930 . S
C708 C709 1.367 . S
C708 C716 1.378 . S
C709 C708 1.367 . S
C709 C717 1.433 . S
C710 H706 0.929 . S
C710 C712 1.378 . S
C710 C714 1.350 1_565 S
C711 C714 1.463 . S
C711 C716 1.350 . S
C711 N719 1.427 . S
C712 H703 0.930 . S
C712 C710 1.378 . S
C712 C713 1.367 1_556 S
C713 C712 1.367 1_554 S
C713 C715 1.433 . S
C714 C710 1.350 1_545 S
C714 C711 1.463 . S
C714 N718 1.427 1_556 S
C715 H705 0.929 . S
C715 C713 1.433 . S
C715 N718 1.384 1_565 S
C716 H707 0.929 . S
C716 C708 1.378 . S
C716 C711 1.350 . S
C717 H704 0.929 . S
C717 C709 1.433 . S
C717 N719 1.384 . S
N718 C714 1.427 1_554 S
N718 C715 1.384 1_545 S
N719 C711 1.427 . S
N719 C717 1.384 . S
H720 C726 0.930 . S
H721 C730 0.930 . S
H722 C735 0.929 . S
H723 C733 0.929 . S
H724 C728 0.929 . S
H725 C734 0.929 . S
C726 H720 0.930 . S
C726 C727 1.367 . S
C726 C734 1.378 . S
C727 C726 1.367 . S
C727 C735 1.433 . S
C728 H724 0.929 . S
C728 C730 1.378 . S
C728 C732 1.350 . S
C729 C732 1.463 . S
C729 C734 1.350 . S
C729 N737 1.427 . S
C730 H721 0.930 . S
C730 C728 1.378 . S
C730 C731 1.367 . S
C731 C730 1.367 . S
C731 C733 1.433 . S
C732 C728 1.350 . S
C732 C729 1.463 . S
C732 N736 1.427 . S
C733 H723 0.929 . S
C733 C731 1.433 . S
C733 N736 1.384 . S
C734 H725 0.929 . S
C734 C726 1.378 . S
C734 C729 1.350 . S
C735 H722 0.929 . S
C735 C727 1.433 . S
C735 N737 1.384 . S
N736 C732 1.427 . S
N736 C733 1.384 . S
N737 C729 1.427 . S
N737 C735 1.384 . S
H738 C744 0.930 1_545 S
H739 C748 0.930 . S
H740 C753 0.929 . S
H741 C751 0.929 . S
H742 C746 0.929 . S
H743 C752 0.929 . S
C744 H738 0.930 1_565 S
C744 C745 1.367 . S
C744 C752 1.378 . S
C745 C744 1.367 . S
C745 C753 1.433 . S
C746 H742 0.929 . S
C746 C748 1.378 . S
C746 C750 1.350 . S
C747 C750 1.463 . S
C747 C752 1.350 . S
C747 N755 1.427 . S
C748 H739 0.930 . S
C748 C746 1.378 . S
C748 C749 1.367 . S
C749 C748 1.367 . S
C749 C751 1.433 . S
C750 C746 1.350 . S
C750 C747 1.463 . S
C750 N754 1.427 . S
C751 H741 0.929 . S
C751 C749 1.433 . S
C751 N754 1.384 . S
C752 H743 0.929 . S
C752 C744 1.378 . S
C752 C747 1.350 . S
C753 H740 0.929 . S
C753 C745 1.433 . S
C753 N755 1.384 . S
N754 C750 1.427 . S
N754 C751 1.384 . S
N755 C747 1.427 . S
N755 C753 1.384 . S
H756 C762 0.930 . S
H757 C766 0.930 . S
H758 C771 0.929 . S
H759 C769 0.929 . S
H760 C764 0.929 . S
H761 C770 0.929 . S
C762 H756 0.930 . S
C762 C763 1.367 . S
C762 C770 1.378 . S
C763 C762 1.367 . S
C763 C771 1.433 . S
C764 H760 0.929 . S
C764 C766 1.378 . S
C764 C768 1.350 . S
C765 C768 1.463 . S
C765 C770 1.350 . S
C765 N773 1.427 . S
C766 H757 0.930 . S
C766 C764 1.378 . S
C766 C767 1.367 . S
C767 C766 1.367 . S
C767 C769 1.433 . S
C768 C764 1.350 . S
C768 C765 1.463 . S
C768 N772 1.427 . S
C769 H759 0.929 . S
C769 C767 1.433 . S
C769 N772 1.384 . S
C770 H761 0.929 . S
C770 C762 1.378 . S
C770 C765 1.350 . S
C771 H758 0.929 . S
C771 C763 1.433 . S
C771 N773 1.384 . S
N772 C768 1.427 . S
N772 C769 1.384 . S
N773 C765 1.427 . S
N773 C771 1.384 . S
H774 C780 0.930 . S
H775 C784 0.930 . S
H776 C789 0.929 . S
H777 C787 0.929 . S
H778 C782 0.929 . S
H779 C788 0.929 . S
C780 H774 0.930 . S
C780 C781 1.367 . S
C780 C788 1.378 . S
C781 C780 1.367 . S
C781 C789 1.433 . S
C782 H778 0.929 . S
C782 C784 1.378 . S
C782 C786 1.350 . S
C783 C786 1.463 . S
C783 C788 1.350 . S
C783 N791 1.427 . S
C784 H775 0.930 . S
C784 C782 1.378 . S
C784 C785 1.367 . S
C785 C784 1.367 . S
C785 C787 1.433 . S
C786 C782 1.350 . S
C786 C783 1.463 . S
C786 N790 1.427 . S
C787 H777 0.929 . S
C787 C785 1.433 . S
C787 N790 1.384 . S
C788 H779 0.929 . S
C788 C780 1.378 . S
C788 C783 1.350 . S
C789 H776 0.929 . S
C789 C781 1.433 . S
C789 N791 1.384 . S
N790 C786 1.427 . S
N790 C787 1.384 . S
N791 C783 1.427 . S
N791 C789 1.384 . S
H792 C798 0.930 . S
H793 C802 0.930 . S
H794 C807 0.929 . S
H795 C805 0.929 . S
H796 C800 0.929 . S
H797 C806 0.929 . S
C798 H792 0.930 . S
C798 C799 1.367 . S
C798 C806 1.378 . S
C799 C798 1.367 . S
C799 C807 1.433 . S
C800 H796 0.929 . S
C800 C802 1.378 . S
C800 C804 1.350 . S
C801 C804 1.463 . S
C801 C806 1.350 . S
C801 N809 1.427 . S
C802 H793 0.930 . S
C802 C800 1.378 . S
C802 C803 1.367 . S
C803 C802 1.367 . S
C803 C805 1.433 . S
C804 C800 1.350 . S
C804 C801 1.463 . S
C804 N808 1.427 . S
C805 H795 0.929 . S
C805 C803 1.433 . S
C805 N808 1.384 . S
C806 H797 0.929 . S
C806 C798 1.378 . S
C806 C801 1.350 . S
C807 H794 0.929 . S
C807 C799 1.433 . S
C807 N809 1.384 . S
N808 C804 1.427 . S
N808 C805 1.384 . S
N809 C801 1.427 . S
N809 C807 1.384 . S
H810 C816 0.930 . S
H811 C820 0.930 . S
H812 C825 0.929 . S
H813 C823 0.929 . S
H814 C818 0.929 . S
H815 C824 0.929 . S
C816 H810 0.930 . S
C816 C817 1.367 . S
C816 C824 1.378 . S
C817 C816 1.367 . S
C817 C825 1.433 . S
C818 H814 0.929 . S
C818 C820 1.378 . S
C818 C822 1.350 . S
C819 C822 1.463 . S
C819 C824 1.350 . S
C819 N827 1.427 . S
C820 H811 0.930 . S
C820 C818 1.378 . S
C820 C821 1.367 . S
C821 C820 1.367 . S
C821 C823 1.433 . S
C822 C818 1.350 . S
C822 C819 1.463 . S
C822 N826 1.427 . S
C823 H813 0.929 . S
C823 C821 1.433 . S
C823 N826 1.384 . S
C824 H815 0.929 . S
C824 C816 1.378 . S
C824 C819 1.350 . S
C825 H812 0.929 . S
C825 C817 1.433 . S
C825 N827 1.384 . S
N826 C822 1.427 . S
N826 C823 1.384 . S
N827 C819 1.427 . S
N827 C825 1.384 . S
H828 C834 0.930 . S
H829 C838 0.930 . S
H830 C843 0.929 . S
H831 C841 0.929 . S
H832 C836 0.929 . S
H833 C842 0.929 . S
C834 H828 0.930 . S
C834 C835 1.367 . S
C834 C842 1.378 . S
C835 C834 1.367 . S
C835 C843 1.433 . S
C836 H832 0.929 . S
C836 C838 1.378 . S
C836 C840 1.350 . S
C837 C840 1.463 . S
C837 C842 1.350 . S
C837 N845 1.427 . S
C838 H829 0.930 . S
C838 C836 1.378 . S
C838 C839 1.367 . S
C839 C838 1.367 . S
C839 C841 1.433 . S
C840 C836 1.350 . S
C840 C837 1.463 . S
C840 N844 1.427 . S
C841 H831 0.929 . S
C841 C839 1.433 . S
C841 N844 1.384 . S
C842 H833 0.929 . S
C842 C834 1.378 . S
C842 C837 1.350 . S
C843 H830 0.929 . S
C843 C835 1.433 . S
C843 N845 1.384 . S
N844 C840 1.427 . S
N844 C841 1.384 . S
N845 C837 1.427 . S
N845 C843 1.384 . S
H846 C852 0.930 . S
H847 C856 0.930 . S
H848 C861 0.929 . S
H849 C859 0.929 . S
H850 C854 0.929 . S
H851 C860 0.929 . S
C852 H846 0.930 . S
C852 C853 1.367 . S
C852 C860 1.378 . S
C853 C852 1.367 . S
C853 C861 1.433 . S
C854 H850 0.929 . S
C854 C856 1.378 . S
C854 C858 1.350 . S
C855 C858 1.463 . S
C855 C860 1.350 . S
C855 N863 1.427 . S
C856 H847 0.930 . S
C856 C854 1.378 . S
C856 C857 1.367 . S
C857 C856 1.367 . S
C857 C859 1.433 . S
C858 C854 1.350 . S
C858 C855 1.463 . S
C858 N862 1.427 . S
C859 H849 0.929 . S
C859 C857 1.433 . S
C859 N862 1.384 . S
C860 H851 0.929 . S
C860 C852 1.378 . S
C860 C855 1.350 . S
C861 H848 0.929 . S
C861 C853 1.433 . S
C861 N863 1.384 . S
N862 C858 1.427 . S
N862 C859 1.384 . S
N863 C855 1.427 . S
N863 C861 1.384 . S
H864 C870 0.930 . S
H865 C874 0.930 . S
H866 C879 0.929 . S
H867 C877 0.929 . S
H868 C872 0.929 . S
H869 C878 0.929 . S
C870 H864 0.930 . S
C870 C871 1.367 . S
C870 C878 1.378 . S
C871 C870 1.367 . S
C871 C879 1.433 . S
C872 H868 0.929 . S
C872 C874 1.378 . S
C872 C876 1.350 . S
C873 C876 1.463 . S
C873 C878 1.350 . S
C873 N881 1.427 . S
C874 H865 0.930 . S
C874 C872 1.378 . S
C874 C875 1.367 . S
C875 C874 1.367 . S
C875 C877 1.433 . S
C876 C872 1.350 . S
C876 C873 1.463 . S
C876 N880 1.427 . S
C877 H867 0.929 . S
C877 C875 1.433 . S
C877 N880 1.384 . S
C878 H869 0.929 . S
C878 C870 1.378 . S
C878 C873 1.350 . S
C879 H866 0.929 . S
C879 C871 1.433 . S
C879 N881 1.384 . S
N880 C876 1.427 . S
N880 C877 1.384 . S
N881 C873 1.427 . S
N881 C879 1.384 . S
H882 C888 0.930 . S
H883 C892 0.930 . S
H884 C897 0.929 . S
H885 C895 0.929 . S
H886 C890 0.929 . S
H887 C896 0.929 . S
C888 H882 0.930 . S
C888 C889 1.367 . S
C888 C896 1.378 . S
C889 C888 1.367 . S
C889 C897 1.433 . S
C890 H886 0.929 . S
C890 C892 1.378 . S
C890 C894 1.350 . S
C891 C894 1.463 . S
C891 C896 1.350 . S
C891 N899 1.427 . S
C892 H883 0.930 . S
C892 C890 1.378 . S
C892 C893 1.367 . S
C893 C892 1.367 . S
C893 C895 1.433 . S
C894 C890 1.350 . S
C894 C891 1.463 . S
C894 N898 1.427 . S
C895 H885 0.929 . S
C895 C893 1.433 . S
C895 N898 1.384 . S
C896 H887 0.929 . S
C896 C888 1.378 . S
C896 C891 1.350 . S
C897 H884 0.929 . S
C897 C889 1.433 . S
C897 N899 1.384 . S
N898 C894 1.427 . S
N898 C895 1.384 . S
N899 C891 1.427 . S
N899 C897 1.384 . S
H900 C906 0.930 . S
H901 C910 0.930 1_565 S
H902 C915 0.929 . S
H903 C913 0.929 . S
H904 C908 0.929 . S
H905 C914 0.929 . S
C906 H900 0.930 . S
C906 C907 1.367 . S
C906 C914 1.378 . S
C907 C906 1.367 . S
C907 C915 1.433 . S
C908 H904 0.929 . S
C908 C910 1.378 . S
C908 C912 1.350 . S
C909 C912 1.463 . S
C909 C914 1.350 . S
C909 N917 1.427 . S
C910 H901 0.930 1_545 S
C910 C908 1.378 . S
C910 C911 1.367 . S
C911 C910 1.367 . S
C911 C913 1.433 . S
C912 C908 1.350 . S
C912 C909 1.463 . S
C912 N916 1.427 . S
C913 H903 0.929 . S
C913 C911 1.433 . S
C913 N916 1.384 . S
C914 H905 0.929 . S
C914 C906 1.378 . S
C914 C909 1.350 . S
C915 H902 0.929 . S
C915 C907 1.433 . S
C915 N917 1.384 . S
N916 C912 1.427 . S
N916 C913 1.384 . S
N917 C909 1.427 . S
N917 C915 1.384 . S
H918 C924 0.930 . S
H919 C928 0.930 . S
H920 C933 0.929 . S
H921 C931 0.929 . S
H922 C926 0.929 . S
H923 C932 0.929 . S
C924 H918 0.930 . S
C924 C925 1.367 . S
C924 C932 1.378 . S
C925 C924 1.367 . S
C925 C933 1.433 . S
C926 H922 0.929 . S
C926 C928 1.378 . S
C926 C930 1.350 . S
C927 C930 1.463 . S
C927 C932 1.350 . S
C927 N935 1.427 . S
C928 H919 0.930 . S
C928 C926 1.378 . S
C928 C929 1.367 . S
C929 C928 1.367 . S
C929 C931 1.433 . S
C930 C926 1.350 . S
C930 C927 1.463 . S
C930 N934 1.427 . S
C931 H921 0.929 . S
C931 C929 1.433 . S
C931 N934 1.384 . S
C932 H923 0.929 . S
C932 C924 1.378 . S
C932 C927 1.350 . S
C933 H920 0.929 . S
C933 C925 1.433 . S
C933 N935 1.384 . S
N934 C930 1.427 . S
N934 C931 1.384 . S
N935 C927 1.427 . S
N935 C933 1.384 . S
H936 C942 0.930 . S
H937 C946 0.930 . S
H938 C951 0.929 . S
H939 C949 0.929 . S
H940 C944 0.929 . S
H941 C950 0.929 . S
C942 H936 0.930 . S
C942 C943 1.367 . S
C942 C950 1.378 . S
C943 C942 1.367 . S
C943 C951 1.433 . S
C944 H940 0.929 . S
C944 C946 1.378 . S
C944 C948 1.350 . S
C945 C948 1.463 . S
C945 C950 1.350 . S
C945 N953 1.427 . S
C946 H937 0.930 . S
C946 C944 1.378 . S
C946 C947 1.367 . S
C947 C946 1.367 . S
C947 C949 1.433 . S
C948 C944 1.350 . S
C948 C945 1.463 . S
C948 N952 1.427 . S
C949 H939 0.929 . S
C949 C947 1.433 . S
C949 N952 1.384 . S
C950 H941 0.929 . S
C950 C942 1.378 . S
C950 C945 1.350 . S
C951 H938 0.929 . S
C951 C943 1.433 . S
C951 N953 1.384 . S
N952 C948 1.427 . S
N952 C949 1.384 . S
N953 C945 1.427 . S
N953 C951 1.384 . S
H954 C960 0.930 . S
H955 C964 0.930 . S
H956 C969 0.929 . S
H957 C967 0.929 . S
H958 C962 0.929 . S
H959 C968 0.929 . S
C960 H954 0.930 . S
C960 C961 1.367 . S
C960 C968 1.378 . S
C961 C960 1.367 . S
C961 C969 1.433 . S
C962 H958 0.929 . S
C962 C964 1.378 . S
C962 C966 1.350 . S
C963 C966 1.463 . S
C963 C968 1.350 . S
C963 N971 1.427 . S
C964 H955 0.930 . S
C964 C962 1.378 . S
C964 C965 1.367 . S
C965 C964 1.367 . S
C965 C967 1.433 . S
C966 C962 1.350 . S
C966 C963 1.463 . S
C966 N970 1.427 . S
C967 H957 0.929 . S
C967 C965 1.433 . S
C967 N970 1.384 . S
C968 H959 0.929 . S
C968 C960 1.378 . S
C968 C963 1.350 . S
C969 H956 0.929 . S
C969 C961 1.433 . S
C969 N971 1.384 . S
N970 C966 1.427 . S
N970 C967 1.384 . S
N971 C963 1.427 . S
N971 C969 1.384 . S
H972 C978 0.930 . S
H973 C982 0.930 . S
H974 C987 0.929 . S
H975 C985 0.929 . S
H976 C980 0.929 . S
H977 C986 0.929 . S
C978 H972 0.930 . S
C978 C979 1.367 . S
C978 C986 1.378 . S
C979 C978 1.367 . S
C979 C987 1.433 . S
C980 H976 0.929 . S
C980 C982 1.378 . S
C980 C984 1.350 . S
C981 C984 1.463 . S
C981 C986 1.350 . S
C981 N989 1.427 . S
C982 H973 0.930 . S
C982 C980 1.378 . S
C982 C983 1.367 . S
C983 C982 1.367 . S
C983 C985 1.433 . S
C984 C980 1.350 . S
C984 C981 1.463 . S
C984 N988 1.427 . S
C985 H975 0.929 . S
C985 C983 1.433 . S
C985 N988 1.384 . S
C986 H977 0.929 . S
C986 C978 1.378 . S
C986 C981 1.350 . S
C987 H974 0.929 . S
C987 C979 1.433 . S
C987 N989 1.384 . S
N988 C984 1.427 . S
N988 C985 1.384 . S
N989 C981 1.427 . S
N989 C987 1.384 . S
H990 C996 0.930 . S
H991 C1000 0.930 . S
H992 C1005 0.929 . S
H993 C1003 0.929 . S
H994 C998 0.929 . S
H995 C1004 0.929 . S
C996 H990 0.930 . S
C996 C997 1.367 . S
C996 C1004 1.378 . S
C997 C996 1.367 . S
C997 C1005 1.433 . S
C998 H994 0.929 . S
C998 C1000 1.378 . S
C998 C1002 1.350 . S
C999 C1002 1.463 . S
C999 C1004 1.350 . S
C999 N1007 1.427 . S
C1000 H991 0.930 . S
C1000 C998 1.378 . S
C1000 C1001 1.367 . S
C1001 C1000 1.367 . S
C1001 C1003 1.433 . S
C1002 C998 1.350 . S
C1002 C999 1.463 . S
C1002 N1006 1.427 . S
C1003 H993 0.929 . S
C1003 C1001 1.433 . S
C1003 N1006 1.384 . S
C1004 H995 0.929 . S
C1004 C996 1.378 . S
C1004 C999 1.350 . S
C1005 H992 0.929 . S
C1005 C997 1.433 . S
C1005 N1007 1.384 . S
N1006 C1002 1.427 . S
N1006 C1003 1.384 . S
N1007 C999 1.427 . S
N1007 C1005 1.384 . S
H1008 C1014 0.930 . S
H1009 C1018 0.930 . S
H1010 C1023 0.929 . S
H1011 C1021 0.929 . S
H1012 C1016 0.929 . S
H1013 C1022 0.929 . S
C1014 H1008 0.930 . S
C1014 C1015 1.367 . S
C1014 C1022 1.378 . S
C1015 C1014 1.367 . S
C1015 C1023 1.433 . S
C1016 H1012 0.929 . S
C1016 C1018 1.378 . S
C1016 C1020 1.350 . S
C1017 C1020 1.463 . S
C1017 C1022 1.350 . S
C1017 N1025 1.427 . S
C1018 H1009 0.930 . S
C1018 C1016 1.378 . S
C1018 C1019 1.367 . S
C1019 C1018 1.367 . S
C1019 C1021 1.433 . S
C1020 C1016 1.350 . S
C1020 C1017 1.463 . S
C1020 N1024 1.427 . S
C1021 H1011 0.929 . S
C1021 C1019 1.433 . S
C1021 N1024 1.384 . S
C1022 H1013 0.929 . S
C1022 C1014 1.378 . S
C1022 C1017 1.350 . S
C1023 H1010 0.929 . S
C1023 C1015 1.433 . S
C1023 N1025 1.384 . S
N1024 C1020 1.427 . S
N1024 C1021 1.384 . S
N1025 C1017 1.427 . S
N1025 C1023 1.384 . S
H1026 C1032 0.930 . S
H1027 C1036 0.930 . S
H1028 C1041 0.929 . S
H1029 C1039 0.929 . S
H1030 C1034 0.929 . S
H1031 C1040 0.929 . S
C1032 H1026 0.930 . S
C1032 C1033 1.367 . S
C1032 C1040 1.378 . S
C1033 C1032 1.367 . S
C1033 C1041 1.433 . S
C1034 H1030 0.929 . S
C1034 C1036 1.378 . S
C1034 C1038 1.350 . S
C1035 C1038 1.463 . S
C1035 C1040 1.350 . S
C1035 N1043 1.427 . S
C1036 H1027 0.930 . S
C1036 C1034 1.378 . S
C1036 C1037 1.367 . S
C1037 C1036 1.367 . S
C1037 C1039 1.433 . S
C1038 C1034 1.350 . S
C1038 C1035 1.463 . S
C1038 N1042 1.427 . S
C1039 H1029 0.929 . S
C1039 C1037 1.433 . S
C1039 N1042 1.384 . S
C1040 H1031 0.929 . S
C1040 C1032 1.378 . S
C1040 C1035 1.350 . S
C1041 H1028 0.929 . S
C1041 C1033 1.433 . S
C1041 N1043 1.384 . S
N1042 C1038 1.427 . S
N1042 C1039 1.384 . S
N1043 C1035 1.427 . S
N1043 C1041 1.384 . S
H1044 C1050 0.930 . S
H1045 C1054 0.930 . S
H1046 C1059 0.929 . S
H1047 C1057 0.929 . S
H1048 C1052 0.929 . S
H1049 C1058 0.929 . S
C1050 H1044 0.930 . S
C1050 C1051 1.367 . S
C1050 C1058 1.378 . S
C1051 C1050 1.367 . S
C1051 C1059 1.433 . S
C1052 H1048 0.929 . S
C1052 C1054 1.378 . S
C1052 C1056 1.350 . S
C1053 C1056 1.463 . S
C1053 C1058 1.350 . S
C1053 N1061 1.427 . S
C1054 H1045 0.930 . S
C1054 C1052 1.378 . S
C1054 C1055 1.367 . S
C1055 C1054 1.367 . S
C1055 C1057 1.433 . S
C1056 C1052 1.350 . S
C1056 C1053 1.463 . S
C1056 N1060 1.427 . S
C1057 H1047 0.929 . S
C1057 C1055 1.433 . S
C1057 N1060 1.384 . S
C1058 H1049 0.929 . S
C1058 C1050 1.378 . S
C1058 C1053 1.350 . S
C1059 H1046 0.929 . S
C1059 C1051 1.433 . S
C1059 N1061 1.384 . S
N1060 C1056 1.427 . S
N1060 C1057 1.384 . S
N1061 C1053 1.427 . S
N1061 C1059 1.384 . S
H1062 C1068 0.930 . S
H1063 C1072 0.930 . S
H1064 C1077 0.929 . S
H1065 C1075 0.929 . S
H1066 C1070 0.929 . S
H1067 C1076 0.929 . S
C1068 H1062 0.930 . S
C1068 C1069 1.367 . S
C1068 C1076 1.378 . S
C1069 C1068 1.367 . S
C1069 C1077 1.433 . S
C1070 H1066 0.929 . S
C1070 C1072 1.378 . S
C1070 C1074 1.350 . S
C1071 C1074 1.463 . S
C1071 C1076 1.350 . S
C1071 N1079 1.427 . S
C1072 H1063 0.930 . S
C1072 C1070 1.378 . S
C1072 C1073 1.367 . S
C1073 C1072 1.367 . S
C1073 C1075 1.433 . S
C1074 C1070 1.350 . S
C1074 C1071 1.463 . S
C1074 N1078 1.427 . S
C1075 H1065 0.929 . S
C1075 C1073 1.433 . S
C1075 N1078 1.384 . S
C1076 H1067 0.929 . S
C1076 C1068 1.378 . S
C1076 C1071 1.350 . S
C1077 H1064 0.929 . S
C1077 C1069 1.433 . S
C1077 N1079 1.384 . S
N1078 C1074 1.427 . S
N1078 C1075 1.384 . S
N1079 C1071 1.427 . S
N1079 C1077 1.384 . S
H1080 C1086 0.930 . S
H1081 C1090 0.930 . S
H1082 C1095 0.929 . S
H1083 C1093 0.929 . S
H1084 C1088 0.929 . S
H1085 C1094 0.929 . S
C1086 H1080 0.930 . S
C1086 C1087 1.367 . S
C1086 C1094 1.378 . S
C1087 C1086 1.367 . S
C1087 C1095 1.433 . S
C1088 H1084 0.929 . S
C1088 C1090 1.378 . S
C1088 C1092 1.350 . S
C1089 C1092 1.463 . S
C1089 C1094 1.350 . S
C1089 N1097 1.427 . S
C1090 H1081 0.930 . S
C1090 C1088 1.378 . S
C1090 C1091 1.367 . S
C1091 C1090 1.367 . S
C1091 C1093 1.433 . S
C1092 C1088 1.350 . S
C1092 C1089 1.463 . S
C1092 N1096 1.427 . S
C1093 H1083 0.929 . S
C1093 C1091 1.433 . S
C1093 N1096 1.384 . S
C1094 H1085 0.929 . S
C1094 C1086 1.378 . S
C1094 C1089 1.350 . S
C1095 H1082 0.929 . S
C1095 C1087 1.433 . S
C1095 N1097 1.384 . S
N1096 C1092 1.427 . S
N1096 C1093 1.384 . S
N1097 C1089 1.427 . S
N1097 C1095 1.384 . S
H1098 C1104 0.930 . S
H1099 C1108 0.930 . S
H1100 C1113 0.929 . S
H1101 C1111 0.929 . S
H1102 C1106 0.929 . S
H1103 C1112 0.929 . S
C1104 H1098 0.930 . S
C1104 C1105 1.367 . S
C1104 C1112 1.378 . S
C1105 C1104 1.367 . S
C1105 C1113 1.433 . S
C1106 H1102 0.929 . S
C1106 C1108 1.378 . S
C1106 C1110 1.350 . S
C1107 C1110 1.463 . S
C1107 C1112 1.350 . S
C1107 N1115 1.427 . S
C1108 H1099 0.930 . S
C1108 C1106 1.378 . S
C1108 C1109 1.367 . S
C1109 C1108 1.367 . S
C1109 C1111 1.433 . S
C1110 C1106 1.350 . S
C1110 C1107 1.463 . S
C1110 N1114 1.427 . S
C1111 H1101 0.929 . S
C1111 C1109 1.433 . S
C1111 N1114 1.384 . S
C1112 H1103 0.929 . S
C1112 C1104 1.378 . S
C1112 C1107 1.350 . S
C1113 H1100 0.929 . S
C1113 C1105 1.433 . S
C1113 N1115 1.384 . S
N1114 C1110 1.427 . S
N1114 C1111 1.384 . S
N1115 C1107 1.427 . S
N1115 C1113 1.384 . S
H1116 C1122 0.930 . S
H1117 C1126 0.930 . S
H1118 C1131 0.929 . S
H1119 C1129 0.929 . S
H1120 C1124 0.929 . S
H1121 C1130 0.929 . S
C1122 H1116 0.930 . S
C1122 C1123 1.367 . S
C1122 C1130 1.378 . S
C1123 C1122 1.367 . S
C1123 C1131 1.433 . S
C1124 H1120 0.929 . S
C1124 C1126 1.378 . S
C1124 C1128 1.350 . S
C1125 C1128 1.463 . S
C1125 C1130 1.350 . S
C1125 N1133 1.427 . S
C1126 H1117 0.930 . S
C1126 C1124 1.378 . S
C1126 C1127 1.367 . S
C1127 C1126 1.367 . S
C1127 C1129 1.433 . S
C1128 C1124 1.350 . S
C1128 C1125 1.463 . S
C1128 N1132 1.427 . S
C1129 H1119 0.929 . S
C1129 C1127 1.433 . S
C1129 N1132 1.384 . S
C1130 H1121 0.929 . S
C1130 C1122 1.378 . S
C1130 C1125 1.350 . S
C1131 H1118 0.929 . S
C1131 C1123 1.433 . S
C1131 N1133 1.384 . S
N1132 C1128 1.427 . S
N1132 C1129 1.384 . S
N1133 C1125 1.427 . S
N1133 C1131 1.384 . S
H1134 C1140 0.930 . S
H1135 C1144 0.930 . S
H1136 C1149 0.929 . S
H1137 C1147 0.929 . S
H1138 C1142 0.929 . S
H1139 C1148 0.929 . S
C1140 H1134 0.930 . S
C1140 C1141 1.367 . S
C1140 C1148 1.378 . S
C1141 C1140 1.367 . S
C1141 C1149 1.433 . S
C1142 H1138 0.929 . S
C1142 C1144 1.378 . S
C1142 C1146 1.350 . S
C1143 C1146 1.463 . S
C1143 C1148 1.350 . S
C1143 N1151 1.427 . S
C1144 H1135 0.930 . S
C1144 C1142 1.378 . S
C1144 C1145 1.367 . S
C1145 C1144 1.367 . S
C1145 C1147 1.433 . S
C1146 C1142 1.350 . S
C1146 C1143 1.463 . S
C1146 N1150 1.427 . S
C1147 H1137 0.929 . S
C1147 C1145 1.433 . S
C1147 N1150 1.384 . S
C1148 H1139 0.929 . S
C1148 C1140 1.378 . S
C1148 C1143 1.350 . S
C1149 H1136 0.929 . S
C1149 C1141 1.433 . S
C1149 N1151 1.384 . S
N1150 C1146 1.427 . S
N1150 C1147 1.384 . S
N1151 C1143 1.427 . S
N1151 C1149 1.384 . S
H1152 C1158 0.930 . S
H1153 C1162 0.930 . S
H1154 C1167 0.929 . S
H1155 C1165 0.929 . S
H1156 C1160 0.929 . S
H1157 C1166 0.929 . S
C1158 H1152 0.930 . S
C1158 C1159 1.367 . S
C1158 C1166 1.378 . S
C1159 C1158 1.367 . S
C1159 C1167 1.433 . S
C1160 H1156 0.929 . S
C1160 C1162 1.378 . S
C1160 C1164 1.350 . S
C1161 C1164 1.463 . S
C1161 C1166 1.350 . S
C1161 N1169 1.427 . S
C1162 H1153 0.930 . S
C1162 C1160 1.378 . S
C1162 C1163 1.367 . S
C1163 C1162 1.367 . S
C1163 C1165 1.433 . S
C1164 C1160 1.350 . S
C1164 C1161 1.463 . S
C1164 N1168 1.427 . S
C1165 H1155 0.929 . S
C1165 C1163 1.433 . S
C1165 N1168 1.384 . S
C1166 H1157 0.929 . S
C1166 C1158 1.378 . S
C1166 C1161 1.350 . S
C1167 H1154 0.929 . S
C1167 C1159 1.433 . S
C1167 N1169 1.384 . S
N1168 C1164 1.427 . S
N1168 C1165 1.384 . S
N1169 C1161 1.427 . S
N1169 C1167 1.384 . S
H1170 C1176 0.930 . S
H1171 C1180 0.930 . S
H1172 C1185 0.929 . S
H1173 C1183 0.929 . S
H1174 C1178 0.929 . S
H1175 C1184 0.929 . S
C1176 H1170 0.930 . S
C1176 C1177 1.367 . S
C1176 C1184 1.378 . S
C1177 C1176 1.367 . S
C1177 C1185 1.433 . S
C1178 H1174 0.929 . S
C1178 C1180 1.378 . S
C1178 C1182 1.350 . S
C1179 C1182 1.463 . S
C1179 C1184 1.350 . S
C1179 N1187 1.427 . S
C1180 H1171 0.930 . S
C1180 C1178 1.378 . S
C1180 C1181 1.367 . S
C1181 C1180 1.367 . S
C1181 C1183 1.433 . S
C1182 C1178 1.350 . S
C1182 C1179 1.463 . S
C1182 N1186 1.427 . S
C1183 H1173 0.929 . S
C1183 C1181 1.433 . S
C1183 N1186 1.384 . S
C1184 H1175 0.929 . S
C1184 C1176 1.378 . S
C1184 C1179 1.350 . S
C1185 H1172 0.929 . S
C1185 C1177 1.433 . S
C1185 N1187 1.384 . S
N1186 C1182 1.427 . S
N1186 C1183 1.384 . S
N1187 C1179 1.427 . S
N1187 C1185 1.384 . S
H1188 C1194 0.930 . S
H1189 C1198 0.930 . S
H1190 C1203 0.929 . S
H1191 C1201 0.929 . S
H1192 C1196 0.929 . S
H1193 C1202 0.929 . S
C1194 H1188 0.930 . S
C1194 C1195 1.367 . S
C1194 C1202 1.378 . S
C1195 C1194 1.367 . S
C1195 C1203 1.433 . S
C1196 H1192 0.929 . S
C1196 C1198 1.378 . S
C1196 C1200 1.350 . S
C1197 C1200 1.463 . S
C1197 C1202 1.350 . S
C1197 N1205 1.427 . S
C1198 H1189 0.930 . S
C1198 C1196 1.378 . S
C1198 C1199 1.367 . S
C1199 C1198 1.367 . S
C1199 C1201 1.433 . S
C1200 C1196 1.350 . S
C1200 C1197 1.463 . S
C1200 N1204 1.427 . S
C1201 H1191 0.929 . S
C1201 C1199 1.433 . S
C1201 N1204 1.384 . S
C1202 H1193 0.929 . S
C1202 C1194 1.378 . S
C1202 C1197 1.350 . S
C1203 H1190 0.929 . S
C1203 C1195 1.433 . S
C1203 N1205 1.384 . S
N1204 C1200 1.427 . S
N1204 C1201 1.384 . S
N1205 C1197 1.427 . S
N1205 C1203 1.384 . S
H1206 C1212 0.930 . S
H1207 C1216 0.930 . S
H1208 C1221 0.929 . S
H1209 C1219 0.929 . S
H1210 C1214 0.929 . S
H1211 C1220 0.929 . S
C1212 H1206 0.930 . S
C1212 C1213 1.367 . S
C1212 C1220 1.378 . S
C1213 C1212 1.367 . S
C1213 C1221 1.433 . S
C1214 H1210 0.929 . S
C1214 C1216 1.378 . S
C1214 C1218 1.350 . S
C1215 C1218 1.463 . S
C1215 C1220 1.350 . S
C1215 N1223 1.427 . S
C1216 H1207 0.930 . S
C1216 C1214 1.378 . S
C1216 C1217 1.367 . S
C1217 C1216 1.367 . S
C1217 C1219 1.433 . S
C1218 C1214 1.350 . S
C1218 C1215 1.463 . S
C1218 N1222 1.427 . S
C1219 H1209 0.929 . S
C1219 C1217 1.433 . S
C1219 N1222 1.384 . S
C1220 H1211 0.929 . S
C1220 C1212 1.378 . S
C1220 C1215 1.350 . S
C1221 H1208 0.929 . S
C1221 C1213 1.433 . S
C1221 N1223 1.384 . S
N1222 C1218 1.427 . S
N1222 C1219 1.384 . S
N1223 C1215 1.427 . S
N1223 C1221 1.384 . S
H1224 C1230 0.930 . S
H1225 C1234 0.930 . S
H1226 C1239 0.929 . S
H1227 C1237 0.929 . S
H1228 C1232 0.929 . S
H1229 C1238 0.929 . S
C1230 H1224 0.930 . S
C1230 C1231 1.367 . S
C1230 C1238 1.378 . S
C1231 C1230 1.367 . S
C1231 C1239 1.433 . S
C1232 H1228 0.929 . S
C1232 C1234 1.378 . S
C1232 C1236 1.350 . S
C1233 C1236 1.463 . S
C1233 C1238 1.350 . S
C1233 N1241 1.427 . S
C1234 H1225 0.930 . S
C1234 C1232 1.378 . S
C1234 C1235 1.367 . S
C1235 C1234 1.367 . S
C1235 C1237 1.433 . S
C1236 C1232 1.350 . S
C1236 C1233 1.463 . S
C1236 N1240 1.427 . S
C1237 H1227 0.929 . S
C1237 C1235 1.433 . S
C1237 N1240 1.384 . S
C1238 H1229 0.929 . S
C1238 C1230 1.378 . S
C1238 C1233 1.350 . S
C1239 H1226 0.929 . S
C1239 C1231 1.433 . S
C1239 N1241 1.384 . S
N1240 C1236 1.427 . S
N1240 C1237 1.384 . S
N1241 C1233 1.427 . S
N1241 C1239 1.384 . S
H1242 C1248 0.930 . S
H1243 C1252 0.930 . S
H1244 C1257 0.929 . S
H1245 C1255 0.929 . S
H1246 C1250 0.929 . S
H1247 C1256 0.929 . S
C1248 H1242 0.930 . S
C1248 C1249 1.367 . S
C1248 C1256 1.378 . S
C1249 C1248 1.367 . S
C1249 C1257 1.433 . S
C1250 H1246 0.929 . S
C1250 C1252 1.378 . S
C1250 C1254 1.350 . S
C1251 C1254 1.463 . S
C1251 C1256 1.350 . S
C1251 N1259 1.427 . S
C1252 H1243 0.930 . S
C1252 C1250 1.378 . S
C1252 C1253 1.367 . S
C1253 C1252 1.367 . S
C1253 C1255 1.433 . S
C1254 C1250 1.350 . S
C1254 C1251 1.463 . S
C1254 N1258 1.427 . S
C1255 H1245 0.929 . S
C1255 C1253 1.433 . S
C1255 N1258 1.384 . S
C1256 H1247 0.929 . S
C1256 C1248 1.378 . S
C1256 C1251 1.350 . S
C1257 H1244 0.929 . S
C1257 C1249 1.433 . S
C1257 N1259 1.384 . S
N1258 C1254 1.427 . S
N1258 C1255 1.384 . S
N1259 C1251 1.427 . S
N1259 C1257 1.384 . S
H1260 C1266 0.930 . S
H1261 C1270 0.930 . S
H1262 C1275 0.929 . S
H1263 C1273 0.929 . S
H1264 C1268 0.929 . S
H1265 C1274 0.929 . S
C1266 H1260 0.930 . S
C1266 C1267 1.367 . S
C1266 C1274 1.378 . S
C1267 C1266 1.367 . S
C1267 C1275 1.433 . S
C1268 H1264 0.929 . S
C1268 C1270 1.378 . S
C1268 C1272 1.350 . S
C1269 C1272 1.463 . S
C1269 C1274 1.350 . S
C1269 N1277 1.427 . S
C1270 H1261 0.930 . S
C1270 C1268 1.378 . S
C1270 C1271 1.367 . S
C1271 C1270 1.367 . S
C1271 C1273 1.433 . S
C1272 C1268 1.350 . S
C1272 C1269 1.463 . S
C1272 N1276 1.427 . S
C1273 H1263 0.929 . S
C1273 C1271 1.433 . S
C1273 N1276 1.384 . S
C1274 H1265 0.929 . S
C1274 C1266 1.378 . S
C1274 C1269 1.350 . S
C1275 H1262 0.929 . S
C1275 C1267 1.433 . S
C1275 N1277 1.384 . S
N1276 C1272 1.427 . S
N1276 C1273 1.384 . S
N1277 C1269 1.427 . S
N1277 C1275 1.384 . S
H1278 C1284 0.930 . S
H1279 C1288 0.930 . S
H1280 C1293 0.929 . S
H1281 C1291 0.929 . S
H1282 C1286 0.929 . S
H1283 C1292 0.929 . S
C1284 H1278 0.930 . S
C1284 C1285 1.367 . S
C1284 C1292 1.378 . S
C1285 C1284 1.367 . S
C1285 C1293 1.433 . S
C1286 H1282 0.929 . S
C1286 C1288 1.378 . S
C1286 C1290 1.350 . S
C1287 C1290 1.463 . S
C1287 C1292 1.350 . S
C1287 N1295 1.427 . S
C1288 H1279 0.930 . S
C1288 C1286 1.378 . S
C1288 C1289 1.367 . S
C1289 C1288 1.367 . S
C1289 C1291 1.433 . S
C1290 C1286 1.350 . S
C1290 C1287 1.463 . S
C1290 N1294 1.427 . S
C1291 H1281 0.929 . S
C1291 C1289 1.433 . S
C1291 N1294 1.384 . S
C1292 H1283 0.929 . S
C1292 C1284 1.378 . S
C1292 C1287 1.350 . S
C1293 H1280 0.929 . S
C1293 C1285 1.433 . S
C1293 N1295 1.384 . S
N1294 C1290 1.427 . S
N1294 C1291 1.384 . S
N1295 C1287 1.427 . S
N1295 C1293 1.384 . S
H1296 C1302 0.930 . S
H1297 C1306 0.930 . S
H1298 C1311 0.929 . S
H1299 C1309 0.929 . S
H1300 C1304 0.929 . S
H1301 C1310 0.929 . S
C1302 H1296 0.930 . S
C1302 C1303 1.367 . S
C1302 C1310 1.378 . S
C1303 C1302 1.367 . S
C1303 C1311 1.433 . S
C1304 H1300 0.929 . S
C1304 C1306 1.378 . S
C1304 C1308 1.350 . S
C1305 C1308 1.463 . S
C1305 C1310 1.350 . S
C1305 N1313 1.427 . S
C1306 H1297 0.930 . S
C1306 C1304 1.378 . S
C1306 C1307 1.367 . S
C1307 C1306 1.367 . S
C1307 C1309 1.433 . S
C1308 C1304 1.350 . S
C1308 C1305 1.463 . S
C1308 N1312 1.427 . S
C1309 H1299 0.929 . S
C1309 C1307 1.433 . S
C1309 N1312 1.384 . S
C1310 H1301 0.929 . S
C1310 C1302 1.378 . S
C1310 C1305 1.350 . S
C1311 H1298 0.929 . S
C1311 C1303 1.433 . S
C1311 N1313 1.384 . S
N1312 C1308 1.427 . S
N1312 C1309 1.384 . S
N1313 C1305 1.427 . S
N1313 C1311 1.384 . S
H1314 C1320 0.930 . S
H1315 C1324 0.930 . S
H1316 C1329 0.929 . S
H1317 C1327 0.929 . S
H1318 C1322 0.929 . S
H1319 C1328 0.929 . S
C1320 H1314 0.930 . S
C1320 C1321 1.367 . S
C1320 C1328 1.378 . S
C1321 C1320 1.367 . S
C1321 C1329 1.433 . S
C1322 H1318 0.929 . S
C1322 C1324 1.378 . S
C1322 C1326 1.350 . S
C1323 C1326 1.463 . S
C1323 C1328 1.350 . S
C1323 N1331 1.427 . S
C1324 H1315 0.930 . S
C1324 C1322 1.378 . S
C1324 C1325 1.367 . S
C1325 C1324 1.367 . S
C1325 C1327 1.433 . S
C1326 C1322 1.350 . S
C1326 C1323 1.463 . S
C1326 N1330 1.427 . S
C1327 H1317 0.929 . S
C1327 C1325 1.433 . S
C1327 N1330 1.384 . S
C1328 H1319 0.929 . S
C1328 C1320 1.378 . S
C1328 C1323 1.350 . S
C1329 H1316 0.929 . S
C1329 C1321 1.433 . S
C1329 N1331 1.384 . S
N1330 C1326 1.427 . S
N1330 C1327 1.384 . S
N1331 C1323 1.427 . S
N1331 C1329 1.384 . S
H1332 C1338 0.930 . S
H1333 C1342 0.930 . S
H1334 C1347 0.929 . S
H1335 C1345 0.929 . S
H1336 C1340 0.929 . S
H1337 C1346 0.929 . S
C1338 H1332 0.930 . S
C1338 C1339 1.367 . S
C1338 C1346 1.378 . S
C1339 C1338 1.367 . S
C1339 C1347 1.433 . S
C1340 H1336 0.929 . S
C1340 C1342 1.378 . S
C1340 C1344 1.350 . S
C1341 C1344 1.463 . S
C1341 C1346 1.350 . S
C1341 N1349 1.427 . S
C1342 H1333 0.930 . S
C1342 C1340 1.378 . S
C1342 C1343 1.367 . S
C1343 C1342 1.367 . S
C1343 C1345 1.433 . S
C1344 C1340 1.350 . S
C1344 C1341 1.463 . S
C1344 N1348 1.427 . S
C1345 H1335 0.929 . S
C1345 C1343 1.433 . S
C1345 N1348 1.384 . S
C1346 H1337 0.929 . S
C1346 C1338 1.378 . S
C1346 C1341 1.350 . S
C1347 H1334 0.929 . S
C1347 C1339 1.433 . S
C1347 N1349 1.384 . S
N1348 C1344 1.427 . S
N1348 C1345 1.384 . S
N1349 C1341 1.427 . S
N1349 C1347 1.384 . S
H1350 C1356 0.930 . S
H1351 C1360 0.930 . S
H1352 C1365 0.929 . S
H1353 C1363 0.929 . S
H1354 C1358 0.929 . S
H1355 C1364 0.929 . S
C1356 H1350 0.930 . S
C1356 C1357 1.367 . S
C1356 C1364 1.378 . S
C1357 C1356 1.367 . S
C1357 C1365 1.433 . S
C1358 H1354 0.929 . S
C1358 C1360 1.378 . S
C1358 C1362 1.350 . S
C1359 C1362 1.463 . S
C1359 C1364 1.350 . S
C1359 N1367 1.427 . S
C1360 H1351 0.930 . S
C1360 C1358 1.378 . S
C1360 C1361 1.367 . S
C1361 C1360 1.367 . S
C1361 C1363 1.433 . S
C1362 C1358 1.350 . S
C1362 C1359 1.463 . S
C1362 N1366 1.427 . S
C1363 H1353 0.929 . S
C1363 C1361 1.433 . S
C1363 N1366 1.384 . S
C1364 H1355 0.929 . S
C1364 C1356 1.378 . S
C1364 C1359 1.350 . S
C1365 H1352 0.929 . S
C1365 C1357 1.433 . S
C1365 N1367 1.384 . S
N1366 C1362 1.427 . S
N1366 C1363 1.384 . S
N1367 C1359 1.427 . S
N1367 C1365 1.384 . S
H1368 C1374 0.930 . S
H1369 C1378 0.930 . S
H1370 C1383 0.929 . S
H1371 C1381 0.929 . S
H1372 C1376 0.929 1_546 S
H1373 C1382 0.929 1_564 S
C1374 H1368 0.930 . S
C1374 C1375 1.367 . S
C1374 C1382 1.378 . S
C1375 C1374 1.367 . S
C1375 C1383 1.433 . S
C1376 H1372 0.929 1_564 S
C1376 C1378 1.378 . S
C1376 C1380 1.350 . S
C1377 C1380 1.463 1_546 S
C1377 C1382 1.350 . S
C1377 N1385 1.427 . S
C1378 H1369 0.930 . S
C1378 C1376 1.378 . S
C1378 C1379 1.367 . S
C1379 C1378 1.367 . S
C1379 C1381 1.433 . S
C1380 C1376 1.350 . S
C1380 C1377 1.463 1_564 S
C1380 N1384 1.427 . S
C1381 H1371 0.929 . S
C1381 C1379 1.433 . S
C1381 N1384 1.384 . S
C1382 H1373 0.929 1_546 S
C1382 C1374 1.378 . S
C1382 C1377 1.350 . S
C1383 H1370 0.929 . S
C1383 C1375 1.433 . S
C1383 N1385 1.384 . S
N1384 C1380 1.427 . S
N1384 C1381 1.384 . S
N1385 C1377 1.427 . S
N1385 C1383 1.384 . S
H1386 C1392 0.930 . S
H1387 C1396 0.930 . S
H1388 C1401 0.929 . S
H1389 C1399 0.929 . S
H1390 C1394 0.929 . S
H1391 C1400 0.929 . S
C1392 H1386 0.930 . S
C1392 C1393 1.367 1_556 S
C1392 C1400 1.378 . S
C1393 C1392 1.367 1_554 S
C1393 C1401 1.433 . S
C1394 H1390 0.929 . S
C1394 C1396 1.378 . S
C1394 C1398 1.350 1_554 S
C1395 C1398 1.463 1_454 S
C1395 C1400 1.350 1_554 S
C1395 N1403 1.427 . S
C1396 H1387 0.930 . S
C1396 C1394 1.378 . S
C1396 C1397 1.367 1_554 S
C1397 C1396 1.367 1_556 S
C1397 C1399 1.433 . S
C1398 C1394 1.350 1_556 S
C1398 C1395 1.463 1_656 S
C1398 N1402 1.427 . S
C1399 H1389 0.929 . S
C1399 C1397 1.433 . S
C1399 N1402 1.384 . S
C1400 H1391 0.929 . S
C1400 C1392 1.378 . S
C1400 C1395 1.350 1_556 S
C1401 H1388 0.929 . S
C1401 C1393 1.433 . S
C1401 N1403 1.384 . S
N1402 C1398 1.427 . S
N1402 C1399 1.384 . S
N1403 C1395 1.427 . S
N1403 C1401 1.384 . S
H1404 C1410 0.930 . S
H1405 C1414 0.930 . S
H1406 C1419 0.929 . S
H1407 C1417 0.929 . S
H1408 C1412 0.929 . S
H1409 C1418 0.929 . S
C1410 H1404 0.930 . S
C1410 C1411 1.367 . S
C1410 C1418 1.378 . S
C1411 C1410 1.367 . S
C1411 C1419 1.433 1_554 S
C1412 H1408 0.929 . S
C1412 C1414 1.378 . S
C1412 C1416 1.350 . S
C1413 C1416 1.463 1_554 S
C1413 C1418 1.350 . S
C1413 N1421 1.427 1_554 S
C1414 H1405 0.930 . S
C1414 C1412 1.378 . S
C1414 C1415 1.367 . S
C1415 C1414 1.367 . S
C1415 C1417 1.433 1_556 S
C1416 C1412 1.350 . S
C1416 C1413 1.463 1_556 S
C1416 N1420 1.427 1_556 S
C1417 H1407 0.929 . S
C1417 C1415 1.433 1_554 S
C1417 N1420 1.384 . S
C1418 H1409 0.929 . S
C1418 C1410 1.378 . S
C1418 C1413 1.350 . S
C1419 H1406 0.929 . S
C1419 C1411 1.433 1_556 S
C1419 N1421 1.384 . S
N1420 C1416 1.427 1_554 S
N1420 C1417 1.384 . S
N1421 C1413 1.427 1_556 S
N1421 C1419 1.384 . S
H1422 C1428 0.930 . S
H1423 C1432 0.930 . S
H1424 C1437 0.929 . S
H1425 C1435 0.929 . S
H1426 C1430 0.929 . S
H1427 C1436 0.929 . S
C1428 H1422 0.930 . S
C1428 C1429 1.367 . S
C1428 C1436 1.378 . S
C1429 C1428 1.367 . S
C1429 C1437 1.433 . S
C1430 H1426 0.929 . S
C1430 C1432 1.378 . S
C1430 C1434 1.350 . S
C1431 C1434 1.463 . S
C1431 C1436 1.350 . S
C1431 N1439 1.427 . S
C1432 H1423 0.930 . S
C1432 C1430 1.378 . S
C1432 C1433 1.367 . S
C1433 C1432 1.367 . S
C1433 C1435 1.433 . S
C1434 C1430 1.350 . S
C1434 C1431 1.463 . S
C1434 N1438 1.427 . S
C1435 H1425 0.929 . S
C1435 C1433 1.433 . S
C1435 N1438 1.384 . S
C1436 H1427 0.929 . S
C1436 C1428 1.378 . S
C1436 C1431 1.350 . S
C1437 H1424 0.929 . S
C1437 C1429 1.433 . S
C1437 N1439 1.384 . S
N1438 C1434 1.427 . S
N1438 C1435 1.384 . S
N1439 C1431 1.427 . S
N1439 C1437 1.384 . S
H1440 C1446 0.930 . S
H1441 C1450 0.930 . S
H1442 C1455 0.929 . S
H1443 C1453 0.929 . S
H1444 C1448 0.929 . S
H1445 C1454 0.929 . S
C1446 H1440 0.930 . S
C1446 C1447 1.367 . S
C1446 C1454 1.378 . S
C1447 C1446 1.367 . S
C1447 C1455 1.433 . S
C1448 H1444 0.929 . S
C1448 C1450 1.378 . S
C1448 C1452 1.350 . S
C1449 C1452 1.463 . S
C1449 C1454 1.350 . S
C1449 N1457 1.427 . S
C1450 H1441 0.930 . S
C1450 C1448 1.378 . S
C1450 C1451 1.367 . S
C1451 C1450 1.367 . S
C1451 C1453 1.433 . S
C1452 C1448 1.350 . S
C1452 C1449 1.463 . S
C1452 N1456 1.427 . S
C1453 H1443 0.929 . S
C1453 C1451 1.433 . S
C1453 N1456 1.384 . S
C1454 H1445 0.929 . S
C1454 C1446 1.378 . S
C1454 C1449 1.350 . S
C1455 H1442 0.929 . S
C1455 C1447 1.433 . S
C1455 N1457 1.384 . S
N1456 C1452 1.427 . S
N1456 C1453 1.384 . S
N1457 C1449 1.427 . S
N1457 C1455 1.384 . S
H1458 C1464 0.930 . S
H1459 C1468 0.930 . S
H1460 C1473 0.929 . S
H1461 C1471 0.929 . S
H1462 C1466 0.929 . S
H1463 C1472 0.929 . S
C1464 H1458 0.930 . S
C1464 C1465 1.367 . S
C1464 C1472 1.378 . S
C1465 C1464 1.367 . S
C1465 C1473 1.433 . S
C1466 H1462 0.929 . S
C1466 C1468 1.378 . S
C1466 C1470 1.350 . S
C1467 C1470 1.463 . S
C1467 C1472 1.350 . S
C1467 N1475 1.427 . S
C1468 H1459 0.930 . S
C1468 C1466 1.378 . S
C1468 C1469 1.367 . S
C1469 C1468 1.367 . S
C1469 C1471 1.433 . S
C1470 C1466 1.350 . S
C1470 C1467 1.463 . S
C1470 N1474 1.427 . S
C1471 H1461 0.929 . S
C1471 C1469 1.433 . S
C1471 N1474 1.384 . S
C1472 H1463 0.929 . S
C1472 C1464 1.378 . S
C1472 C1467 1.350 . S
C1473 H1460 0.929 . S
C1473 C1465 1.433 . S
C1473 N1475 1.384 . S
N1474 C1470 1.427 . S
N1474 C1471 1.384 . S
N1475 C1467 1.427 . S
N1475 C1473 1.384 . S
H1476 C1482 0.930 . S
H1477 C1486 0.930 . S
H1478 C1491 0.929 . S
H1479 C1489 0.929 . S
H1480 C1484 0.929 . S
H1481 C1490 0.929 . S
C1482 H1476 0.930 . S
C1482 C1483 1.367 . S
C1482 C1490 1.378 . S
C1483 C1482 1.367 . S
C1483 C1491 1.433 . S
C1484 H1480 0.929 . S
C1484 C1486 1.378 . S
C1484 C1488 1.350 . S
C1485 C1488 1.463 . S
C1485 C1490 1.350 . S
C1485 N1493 1.427 . S
C1486 H1477 0.930 . S
C1486 C1484 1.378 . S
C1486 C1487 1.367 . S
C1487 C1486 1.367 . S
C1487 C1489 1.433 . S
C1488 C1484 1.350 . S
C1488 C1485 1.463 . S
C1488 N1492 1.427 . S
C1489 H1479 0.929 . S
C1489 C1487 1.433 . S
C1489 N1492 1.384 . S
C1490 H1481 0.929 . S
C1490 C1482 1.378 . S
C1490 C1485 1.350 . S
C1491 H1478 0.929 . S
C1491 C1483 1.433 . S
C1491 N1493 1.384 . S
N1492 C1488 1.427 . S
N1492 C1489 1.384 . S
N1493 C1485 1.427 . S
N1493 C1491 1.384 . S
H1494 C1500 0.930 . S
H1495 C1504 0.930 . S
H1496 C1509 0.929 . S
H1497 C1507 0.929 . S
H1498 C1502 0.929 . S
H1499 C1508 0.929 . S
C1500 H1494 0.930 . S
C1500 C1501 1.367 . S
C1500 C1508 1.378 . S
C1501 C1500 1.367 . S
C1501 C1509 1.433 . S
C1502 H1498 0.929 . S
C1502 C1504 1.378 . S
C1502 C1506 1.350 . S
C1503 C1506 1.463 . S
C1503 C1508 1.350 . S
C1503 N1511 1.427 . S
C1504 H1495 0.930 . S
C1504 C1502 1.378 . S
C1504 C1505 1.367 . S
C1505 C1504 1.367 . S
C1505 C1507 1.433 . S
C1506 C1502 1.350 . S
C1506 C1503 1.463 . S
C1506 N1510 1.427 . S
C1507 H1497 0.929 . S
C1507 C1505 1.433 . S
C1507 N1510 1.384 . S
C1508 H1499 0.929 . S
C1508 C1500 1.378 . S
C1508 C1503 1.350 . S
C1509 H1496 0.929 . S
C1509 C1501 1.433 . S
C1509 N1511 1.384 . S
N1510 C1506 1.427 . S
N1510 C1507 1.384 . S
N1511 C1503 1.427 . S
N1511 C1509 1.384 . S
H1512 C1518 0.930 . S
H1513 C1522 0.930 . S
H1514 C1527 0.929 . S
H1515 C1525 0.929 . S
H1516 C1520 0.929 . S
H1517 C1526 0.929 . S
C1518 H1512 0.930 . S
C1518 C1519 1.367 . S
C1518 C1526 1.378 . S
C1519 C1518 1.367 . S
C1519 C1527 1.433 . S
C1520 H1516 0.929 . S
C1520 C1522 1.378 . S
C1520 C1524 1.350 . S
C1521 C1524 1.463 . S
C1521 C1526 1.350 . S
C1521 N1529 1.427 . S
C1522 H1513 0.930 . S
C1522 C1520 1.378 . S
C1522 C1523 1.367 . S
C1523 C1522 1.367 . S
C1523 C1525 1.433 . S
C1524 C1520 1.350 . S
C1524 C1521 1.463 . S
C1524 N1528 1.427 . S
C1525 H1515 0.929 . S
C1525 C1523 1.433 . S
C1525 N1528 1.384 . S
C1526 H1517 0.929 . S
C1526 C1518 1.378 . S
C1526 C1521 1.350 . S
C1527 H1514 0.929 . S
C1527 C1519 1.433 . S
C1527 N1529 1.384 . S
N1528 C1524 1.427 . S
N1528 C1525 1.384 . S
N1529 C1521 1.427 . S
N1529 C1527 1.384 . S
H1530 C1536 0.930 . S
H1531 C1540 0.930 . S
H1532 C1545 0.929 . S
H1533 C1543 0.929 . S
H1534 C1538 0.929 . S
H1535 C1544 0.929 1_554 S
C1536 H1530 0.930 . S
C1536 C1537 1.367 . S
C1536 C1544 1.378 . S
C1537 C1536 1.367 . S
C1537 C1545 1.433 . S
C1538 H1534 0.929 . S
C1538 C1540 1.378 . S
C1538 C1542 1.350 . S
C1539 C1542 1.463 . S
C1539 C1544 1.350 1_554 S
C1539 N1547 1.427 1_554 S
C1540 H1531 0.930 . S
C1540 C1538 1.378 . S
C1540 C1541 1.367 . S
C1541 C1540 1.367 . S
C1541 C1543 1.433 . S
C1542 C1538 1.350 . S
C1542 C1539 1.463 . S
C1542 N1546 1.427 . S
C1543 H1533 0.929 . S
C1543 C1541 1.433 . S
C1543 N1546 1.384 . S
C1544 H1535 0.929 1_556 S
C1544 C1536 1.378 . S
C1544 C1539 1.350 1_556 S
C1545 H1532 0.929 . S
C1545 C1537 1.433 . S
C1545 N1547 1.384 . S
N1546 C1542 1.427 . S
N1546 C1543 1.384 . S
N1547 C1539 1.427 1_556 S
N1547 C1545 1.384 . S
H1548 C1554 0.930 . S
H1549 C1558 0.930 . S
H1550 C1563 0.929 . S
H1551 C1561 0.929 . S
H1552 C1556 0.929 . S
H1553 C1562 0.929 1_554 S
C1554 H1548 0.930 . S
C1554 C1555 1.367 . S
C1554 C1562 1.378 . S
C1555 C1554 1.367 . S
C1555 C1563 1.433 . S
C1556 H1552 0.929 . S
C1556 C1558 1.378 . S
C1556 C1560 1.350 . S
C1557 C1560 1.463 . S
C1557 C1562 1.350 1_554 S
C1557 N1565 1.427 1_554 S
C1558 H1549 0.930 . S
C1558 C1556 1.378 . S
C1558 C1559 1.367 . S
C1559 C1558 1.367 . S
C1559 C1561 1.433 . S
C1560 C1556 1.350 . S
C1560 C1557 1.463 . S
C1560 N1564 1.427 . S
C1561 H1551 0.929 . S
C1561 C1559 1.433 . S
C1561 N1564 1.384 . S
C1562 H1553 0.929 1_556 S
C1562 C1554 1.378 . S
C1562 C1557 1.350 1_556 S
C1563 H1550 0.929 . S
C1563 C1555 1.433 . S
C1563 N1565 1.384 . S
N1564 C1560 1.427 . S
N1564 C1561 1.384 . S
N1565 C1557 1.427 1_556 S
N1565 C1563 1.384 . S
H1566 C1572 0.930 . S
H1567 C1576 0.930 . S
H1568 C1581 0.929 . S
H1569 C1579 0.929 . S
H1570 C1574 0.929 . S
H1571 C1580 0.929 . S
C1572 H1566 0.930 . S
C1572 C1573 1.367 . S
C1572 C1580 1.378 . S
C1573 C1572 1.367 . S
C1573 C1581 1.433 . S
C1574 H1570 0.929 . S
C1574 C1576 1.378 1_554 S
C1574 C1578 1.350 . S
C1575 C1578 1.463 . S
C1575 C1580 1.350 . S
C1575 N1583 1.427 . S
C1576 H1567 0.930 . S
C1576 C1574 1.378 1_556 S
C1576 C1577 1.367 . S
C1577 C1576 1.367 . S
C1577 C1579 1.433 . S
C1578 C1574 1.350 . S
C1578 C1575 1.463 . S
C1578 N1582 1.427 1_554 S
C1579 H1569 0.929 . S
C1579 C1577 1.433 . S
C1579 N1582 1.384 . S
C1580 H1571 0.929 . S
C1580 C1572 1.378 . S
C1580 C1575 1.350 . S
C1581 H1568 0.929 . S
C1581 C1573 1.433 . S
C1581 N1583 1.384 . S
N1582 C1578 1.427 1_556 S
N1582 C1579 1.384 . S
N1583 C1575 1.427 . S
N1583 C1581 1.384 . S
H1584 C1590 0.930 . S
H1585 C1594 0.930 . S
H1586 C1599 0.929 . S
H1587 C1597 0.929 . S
H1588 C1592 0.929 . S
H1589 C1598 0.929 . S
C1590 H1584 0.930 . S
C1590 C1591 1.367 . S
C1590 C1598 1.378 . S
C1591 C1590 1.367 . S
C1591 C1599 1.433 . S
C1592 H1588 0.929 . S
C1592 C1594 1.378 . S
C1592 C1596 1.350 . S
C1593 C1596 1.463 . S
C1593 C1598 1.350 . S
C1593 N1601 1.427 . S
C1594 H1585 0.930 . S
C1594 C1592 1.378 . S
C1594 C1595 1.367 . S
C1595 C1594 1.367 . S
C1595 C1597 1.433 . S
C1596 C1592 1.350 . S
C1596 C1593 1.463 . S
C1596 N1600 1.427 . S
C1597 H1587 0.929 . S
C1597 C1595 1.433 . S
C1597 N1600 1.384 . S
C1598 H1589 0.929 . S
C1598 C1590 1.378 . S
C1598 C1593 1.350 . S
C1599 H1586 0.929 . S
C1599 C1591 1.433 . S
C1599 N1601 1.384 . S
N1600 C1596 1.427 . S
N1600 C1597 1.384 . S
N1601 C1593 1.427 . S
N1601 C1599 1.384 . S
H1602 C1608 0.930 . S
H1603 C1612 0.930 . S
H1604 C1617 0.929 . S
H1605 C1615 0.929 . S
H1606 C1610 0.929 . S
H1607 C1616 0.929 . S
C1608 H1602 0.930 . S
C1608 C1609 1.367 . S
C1608 C1616 1.378 . S
C1609 C1608 1.367 . S
C1609 C1617 1.433 . S
C1610 H1606 0.929 . S
C1610 C1612 1.378 . S
C1610 C1614 1.350 . S
C1611 C1614 1.463 . S
C1611 C1616 1.350 . S
C1611 N1619 1.427 . S
C1612 H1603 0.930 . S
C1612 C1610 1.378 . S
C1612 C1613 1.367 . S
C1613 C1612 1.367 . S
C1613 C1615 1.433 . S
C1614 C1610 1.350 . S
C1614 C1611 1.463 . S
C1614 N1618 1.427 . S
C1615 H1605 0.929 . S
C1615 C1613 1.433 . S
C1615 N1618 1.384 . S
C1616 H1607 0.929 . S
C1616 C1608 1.378 . S
C1616 C1611 1.350 . S
C1617 H1604 0.929 . S
C1617 C1609 1.433 . S
C1617 N1619 1.384 . S
N1618 C1614 1.427 . S
N1618 C1615 1.384 . S
N1619 C1611 1.427 . S
N1619 C1617 1.384 . S
H1620 C1626 0.930 . S
H1621 C1630 0.930 . S
H1622 C1635 0.929 . S
H1623 C1633 0.929 . S
H1624 C1628 0.929 . S
H1625 C1634 0.929 . S
C1626 H1620 0.930 . S
C1626 C1627 1.367 . S
C1626 C1634 1.378 . S
C1627 C1626 1.367 . S
C1627 C1635 1.433 . S
C1628 H1624 0.929 . S
C1628 C1630 1.378 . S
C1628 C1632 1.350 . S
C1629 C1632 1.463 . S
C1629 C1634 1.350 . S
C1629 N1637 1.427 . S
C1630 H1621 0.930 . S
C1630 C1628 1.378 . S
C1630 C1631 1.367 . S
C1631 C1630 1.367 . S
C1631 C1633 1.433 . S
C1632 C1628 1.350 . S
C1632 C1629 1.463 . S
C1632 N1636 1.427 . S
C1633 H1623 0.929 . S
C1633 C1631 1.433 . S
C1633 N1636 1.384 . S
C1634 H1625 0.929 . S
C1634 C1626 1.378 . S
C1634 C1629 1.350 . S
C1635 H1622 0.929 . S
C1635 C1627 1.433 . S
C1635 N1637 1.384 . S
N1636 C1632 1.427 . S
N1636 C1633 1.384 . S
N1637 C1629 1.427 . S
N1637 C1635 1.384 . S
H1638 C1644 0.930 . S
H1639 C1648 0.930 . S
H1640 C1653 0.929 . S
H1641 C1651 0.929 . S
H1642 C1646 0.929 . S
H1643 C1652 0.929 . S
C1644 H1638 0.930 . S
C1644 C1645 1.367 . S
C1644 C1652 1.378 . S
C1645 C1644 1.367 . S
C1645 C1653 1.433 . S
C1646 H1642 0.929 . S
C1646 C1648 1.378 . S
C1646 C1650 1.350 . S
C1647 C1650 1.463 . S
C1647 C1652 1.350 . S
C1647 N1655 1.427 . S
C1648 H1639 0.930 . S
C1648 C1646 1.378 . S
C1648 C1649 1.367 . S
C1649 C1648 1.367 . S
C1649 C1651 1.433 . S
C1650 C1646 1.350 . S
C1650 C1647 1.463 . S
C1650 N1654 1.427 . S
C1651 H1641 0.929 . S
C1651 C1649 1.433 . S
C1651 N1654 1.384 . S
C1652 H1643 0.929 . S
C1652 C1644 1.378 . S
C1652 C1647 1.350 . S
C1653 H1640 0.929 . S
C1653 C1645 1.433 . S
C1653 N1655 1.384 . S
N1654 C1650 1.427 . S
N1654 C1651 1.384 . S
N1655 C1647 1.427 . S
N1655 C1653 1.384 . S
H1656 C1662 0.930 . S
H1657 C1666 0.930 . S
H1658 C1671 0.929 . S
H1659 C1669 0.929 . S
H1660 C1664 0.929 . S
H1661 C1670 0.929 . S
C1662 H1656 0.930 . S
C1662 C1663 1.367 . S
C1662 C1670 1.378 . S
C1663 C1662 1.367 . S
C1663 C1671 1.433 . S
C1664 H1660 0.929 . S
C1664 C1666 1.378 . S
C1664 C1668 1.350 . S
C1665 C1668 1.463 . S
C1665 C1670 1.350 . S
C1665 N1673 1.427 . S
C1666 H1657 0.930 . S
C1666 C1664 1.378 . S
C1666 C1667 1.367 . S
C1667 C1666 1.367 . S
C1667 C1669 1.433 . S
C1668 C1664 1.350 . S
C1668 C1665 1.463 . S
C1668 N1672 1.427 . S
C1669 H1659 0.929 . S
C1669 C1667 1.433 . S
C1669 N1672 1.384 . S
C1670 H1661 0.929 . S
C1670 C1662 1.378 . S
C1670 C1665 1.350 . S
C1671 H1658 0.929 . S
C1671 C1663 1.433 . S
C1671 N1673 1.384 . S
N1672 C1668 1.427 . S
N1672 C1669 1.384 . S
N1673 C1665 1.427 . S
N1673 C1671 1.384 . S
H1674 C1680 0.930 . S
H1675 C1684 0.930 . S
H1676 C1689 0.929 . S
H1677 C1687 0.929 . S
H1678 C1682 0.929 . S
H1679 C1688 0.929 . S
C1680 H1674 0.930 . S
C1680 C1681 1.367 . S
C1680 C1688 1.378 . S
C1681 C1680 1.367 . S
C1681 C1689 1.433 . S
C1682 H1678 0.929 . S
C1682 C1684 1.378 . S
C1682 C1686 1.350 . S
C1683 C1686 1.463 . S
C1683 C1688 1.350 . S
C1683 N1691 1.427 . S
C1684 H1675 0.930 . S
C1684 C1682 1.378 . S
C1684 C1685 1.367 . S
C1685 C1684 1.367 . S
C1685 C1687 1.433 . S
C1686 C1682 1.350 . S
C1686 C1683 1.463 . S
C1686 N1690 1.427 . S
C1687 H1677 0.929 . S
C1687 C1685 1.433 . S
C1687 N1690 1.384 . S
C1688 H1679 0.929 . S
C1688 C1680 1.378 . S
C1688 C1683 1.350 . S
C1689 H1676 0.929 . S
C1689 C1681 1.433 . S
C1689 N1691 1.384 . S
N1690 C1686 1.427 . S
N1690 C1687 1.384 . S
N1691 C1683 1.427 . S
N1691 C1689 1.384 . S
H1692 C1698 0.930 . S
H1693 C1702 0.930 . S
H1694 C1707 0.929 . S
H1695 C1705 0.929 . S
H1696 C1700 0.929 . S
H1697 C1706 0.929 1_556 S
C1698 H1692 0.930 . S
C1698 C1699 1.367 . S
C1698 C1706 1.378 . S
C1699 C1698 1.367 . S
C1699 C1707 1.433 . S
C1700 H1696 0.929 . S
C1700 C1702 1.378 . S
C1700 C1704 1.350 . S
C1701 C1704 1.463 . S
C1701 C1706 1.350 1_556 S
C1701 N1709 1.427 1_556 S
C1702 H1693 0.930 . S
C1702 C1700 1.378 . S
C1702 C1703 1.367 . S
C1703 C1702 1.367 . S
C1703 C1705 1.433 . S
C1704 C1700 1.350 . S
C1704 C1701 1.463 . S
C1704 N1708 1.427 . S
C1705 H1695 0.929 . S
C1705 C1703 1.433 . S
C1705 N1708 1.384 . S
C1706 H1697 0.929 1_554 S
C1706 C1698 1.378 . S
C1706 C1701 1.350 1_554 S
C1707 H1694 0.929 . S
C1707 C1699 1.433 . S
C1707 N1709 1.384 . S
N1708 C1704 1.427 . S
N1708 C1705 1.384 . S
N1709 C1701 1.427 1_554 S
N1709 C1707 1.384 . S
H1710 C1716 0.930 . S
H1711 C1720 0.930 . S
H1712 C1725 0.929 . S
H1713 C1723 0.929 . S
H1714 C1718 0.929 . S
H1715 C1724 0.929 . S
C1716 H1710 0.930 . S
C1716 C1717 1.367 . S
C1716 C1724 1.378 . S
C1717 C1716 1.367 . S
C1717 C1725 1.433 . S
C1718 H1714 0.929 . S
C1718 C1720 1.378 1_556 S
C1718 C1722 1.350 . S
C1719 C1722 1.463 . S
C1719 C1724 1.350 . S
C1719 N1727 1.427 . S
C1720 H1711 0.930 . S
C1720 C1718 1.378 1_554 S
C1720 C1721 1.367 . S
C1721 C1720 1.367 . S
C1721 C1723 1.433 . S
C1722 C1718 1.350 . S
C1722 C1719 1.463 . S
C1722 N1726 1.427 1_556 S
C1723 H1713 0.929 . S
C1723 C1721 1.433 . S
C1723 N1726 1.384 . S
C1724 H1715 0.929 . S
C1724 C1716 1.378 . S
C1724 C1719 1.350 . S
C1725 H1712 0.929 . S
C1725 C1717 1.433 . S
C1725 N1727 1.384 . S
N1726 C1722 1.427 1_554 S
N1726 C1723 1.384 . S
N1727 C1719 1.427 . S
N1727 C1725 1.384 . S
H1728 C1734 0.930 . S
H1729 C1738 0.930 . S
H1730 C1743 0.929 . S
H1731 C1741 0.929 . S
H1732 C1736 0.929 1_556 S
H1733 C1742 0.929 . S
C1734 H1728 0.930 . S
C1734 C1735 1.367 . S
C1734 C1742 1.378 . S
C1735 C1734 1.367 . S
C1735 C1743 1.433 . S
C1736 H1732 0.929 1_554 S
C1736 C1738 1.378 . S
C1736 C1740 1.350 1_554 S
C1737 C1740 1.463 . S
C1737 C1742 1.350 . S
C1737 N1745 1.427 . S
C1738 H1729 0.930 . S
C1738 C1736 1.378 . S
C1738 C1739 1.367 . S
C1739 C1738 1.367 . S
C1739 C1741 1.433 . S
C1740 C1736 1.350 1_556 S
C1740 C1737 1.463 . S
C1740 N1744 1.427 1_556 S
C1741 H1731 0.929 . S
C1741 C1739 1.433 . S
C1741 N1744 1.384 . S
C1742 H1733 0.929 . S
C1742 C1734 1.378 . S
C1742 C1737 1.350 . S
C1743 H1730 0.929 . S
C1743 C1735 1.433 . S
C1743 N1745 1.384 . S
N1744 C1740 1.427 1_554 S
N1744 C1741 1.384 . S
N1745 C1737 1.427 . S
N1745 C1743 1.384 . S
C619 C443 2.140 . S
C623 C3 2.074 . S
C637 C477 2.140 . S
C641 C37 2.074 . S
C655 C71 2.066 . S
C659 C409 2.141 . S
C673 C103 2.062 . S
C677 C341 2.145 . S
C691 C137 2.066 . S
C695 C377 2.148 . S
C709 C171 2.074 . S
C713 C309 2.145 . S
C727 C35 2.139 . S
C731 C207 2.074 . S
C745 C241 2.065 1_565 S
C749 C69 2.148 . S
C763 C1 2.144 . S
C767 C275 2.063 1_455 S
C781 C545 2.142 . S
C785 C307 2.064 . S
C799 C343 2.071 . S
C803 C581 2.147 . S
C817 C375 2.063 . S
C821 C511 2.143 . S
C835 C239 2.145 . S
C839 C411 2.062 . S
C853 C445 2.070 . S
C857 C273 2.147 . S
C871 C479 2.076 . S
C875 C205 2.141 . S
C889 C139 2.143 . S
C893 C513 2.063 . S
C907 C173 2.148 . S
C911 C547 2.068 1_545 S
C925 C579 2.075 1_655 S
C929 C105 2.144 . S
C943 C380 1.367 . S
C947 C17 1.346 . S
C961 C312 1.372 . S
C965 C51 1.342 . S
C979 C368 1.373 . S
C983 C85 1.339 . S
C997 C119 1.339 . S
C1001 C504 1.368 . S
C1015 C153 1.346 . S
C1019 C436 1.368 . S
C1033 C187 1.346 . S
C1037 C470 1.367 . S
C1051 C221 1.337 . S
C1055 C584 1.374 . S
C1069 C255 1.333 . S
C1073 C538 1.371 . S
C1087 C289 1.341 . S
C1091 C572 1.372 . S
C1105 C96 1.368 . S
C1109 C323 1.343 . S
C1123 C28 1.374 . S
C1127 C357 1.334 . S
C1141 C391 1.339 . S
C1145 C62 1.373 . S
C1159 C425 1.338 . S
C1163 C176 1.369 . S
C1177 C459 1.338 . S
C1181 C108 1.368 . S
C1195 C493 1.335 . S
C1199 C142 1.370 . S
C1213 C527 1.333 . S
C1217 C300 1.372 . S
C1231 C232 1.369 . S
C1235 C561 1.336 . S
C1249 C595 1.341 . S
C1253 C266 1.368 . S
C1267 C6 0.485 . S
C1271 C516 0.485 . S
C1285 C550 0.484 . S
C1289 C40 0.484 . S
C1303 C74 0.481 . S
C1307 C606 0.481 . S
C1321 C210 0.487 . S
C1325 C130 0.487 . S
C1339 C244 0.481 . S
C1343 C164 0.481 . S
C1357 C278 0.481 . S
C1361 C198 0.481 . S
C1375 C414 0.487 . S
C1379 C334 0.487 . S
C1393 C346 0.485 . S
C1397 C448 0.485 . S
C1411 C402 0.481 . S
C1415 C482 0.481 . S
C1429 C15 1.515 . S
C1433 C22 1.511 . S
C1447 C49 1.515 . S
C1451 C56 1.512 . S
C1465 C83 1.513 . S
C1469 C90 1.510 . S
C1483 C117 1.506 . S
C1487 C124 1.509 . S
C1501 C151 1.495 . S
C1505 C158 1.499 . S
C1519 C192 1.505 . S
C1523 C185 1.502 . S
C1537 C226 1.511 . S
C1541 C219 1.515 . S
C1555 C260 1.510 . S
C1559 C253 1.514 . S
C1573 C287 1.514 . S
C1577 C294 1.511 . S
C1591 C321 1.504 . S
C1595 C328 1.509 . S
C1609 C362 1.495 . S
C1613 C355 1.498 . S
C1627 C396 1.513 . S
C1631 C389 1.508 . S
C1645 C423 1.515 . S
C1649 C430 1.512 . S
C1663 C457 1.499 . S
C1667 C464 1.496 . S
C1681 C498 1.506 . S
C1685 C491 1.511 . S
C1699 C532 1.504 . S
C1703 C525 1.507 . S
C1717 C559 1.515 . S
C1721 C566 1.512 . S
C1735 C600 1.503 . S
C1739 C593 1.500 . S
