# Generated by pormake.
# Topology smt, (6)-cn, num edge types: 1
# Building blocks:
#     Node 0, Type 0, BuildingBlock: CIFDUS_clean_sbu_1, # of connection points: 6
#     Node 1, Type 0, BuildingBlock: CIFDUS_clean_sbu_1, # of connection points: 6
#     Node 2, Type 0, BuildingBlock: CIFDUS_clean_sbu_1, # of connection points: 6
#     Node 3, Type 0, BuildingBlock: CIFDUS_clean_sbu_1, # of connection points: 6
#     Node 4, Type 0, BuildingBlock: CIFDUS_clean_sbu_1, # of connection points: 6
#     Node 5, Type 0, BuildingBlock: CIFDUS_clean_sbu_1, # of connection points: 6
#     Edge 6, Type (0, 0), BuildingBlock: CIFDUS_clean_linker_0, # of connection points: 2
#     Edge 7, Type (0, 0), BuildingBlock: CIFDUS_clean_linker_0, # of connection points: 2
#     Edge 8, Type (0, 0), BuildingBlock: CIFDUS_clean_linker_0, # of connection points: 2
#     Edge 9, Type (0, 0), BuildingBlock: CIFDUS_clean_linker_0, # of connection points: 2
#     Edge 10, Type (0, 0), BuildingBlock: CIFDUS_clean_linker_0, # of connection points: 2
#     Edge 11, Type (0, 0), BuildingBlock: CIFDUS_clean_linker_0, # of connection points: 2
#     Edge 12, Type (0, 0), BuildingBlock: CIFDUS_clean_linker_0, # of connection points: 2
#     Edge 13, Type (0, 0), BuildingBlock: CIFDUS_clean_linker_0, # of connection points: 2
#     Edge 14, Type (0, 0), BuildingBlock: CIFDUS_clean_linker_0, # of connection points: 2
#     Edge 15, Type (0, 0), BuildingBlock: CIFDUS_clean_linker_0, # of connection points: 2
#     Edge 16, Type (0, 0), BuildingBlock: CIFDUS_clean_linker_0, # of connection points: 2
#     Edge 17, Type (0, 0), BuildingBlock: CIFDUS_clean_linker_0, # of connection points: 2
#     Edge 18, Type (0, 0), BuildingBlock: CIFDUS_clean_linker_0, # of connection points: 2
#     Edge 19, Type (0, 0), BuildingBlock: CIFDUS_clean_linker_0, # of connection points: 2
#     Edge 20, Type (0, 0), BuildingBlock: CIFDUS_clean_linker_0, # of connection points: 2
#     Edge 21, Type (0, 0), BuildingBlock: CIFDUS_clean_linker_0, # of connection points: 2
#     Edge 22, Type (0, 0), BuildingBlock: CIFDUS_clean_linker_0, # of connection points: 2
#     Edge 23, Type (0, 0), BuildingBlock: CIFDUS_clean_linker_0, # of connection points: 2
# Relax obj value: 0.310
# Max RMSD: 0.271
# Mean RMSD: 0.271
data_MOF--net-smt--node1-CIFDUS_clean_sbu_1--edge1-CIFDUS_clean_linker_0
_symmetry_space_group_name_H-M    P1
_symmetry_Int_Tables_number       1
_symmetry_cell_setting            triclinic
loop_
_symmetry_equiv_pos_as_xyz
'x, y, z'
_cell_length_a     31.605002
_cell_length_b     31.617566
_cell_length_c     20.465295
_cell_angle_alpha  89.887673
_cell_angle_beta   89.804697
_cell_angle_gamma 120.45384
loop_
_atom_site_label
_atom_site_type_symbol
_atom_site_fract_x
_atom_site_fract_y
_atom_site_fract_z
_atom_type_partial_charge
O0 O 0.46653 0.16706 0.93953 0.0
Mn1 Mn 0.46081 0.11593 0.01019 0.0
O2 O 0.50344 0.15872 0.85412 0.0
Mn3 Mn 0.53788 0.1483 0.91681 0.0
O4 O 0.45442 0.06956 0.08969 0.0
O5 O 0.41708 0.13837 0.05483 0.0
Mn6 Mn 0.36517 0.08274 0.08191 0.0
O7 O 0.40091 0.05849 0.96194 0.0
O8 O 0.38824 0.05899 0.14515 0.0
O9 O 0.52502 0.16907 0.0576 0.0
O10 O 0.57374 0.20018 0.97092 0.0
O11 O 0.35118 0.12944 0.10571 0.0
O12 O 0.33166 0.04021 0.01416 0.0
C13 C 0.52889 0.0806 0.92231 0.0
C14 C 0.4787 0.17543 0.87937 0.0
C15 C 0.42649 0.05551 0.14102 0.0
C16 C 0.3938 0.15892 0.08011 0.0
C17 C 0.35425 0.03289 0.96831 0.0
C18 C 0.56722 0.19839 0.03201 0.0
O19 O 0.49999 0.09106 0.95665 0.0
O20 O 0.56731 0.11577 0.89339 0.0
O21 O 0.33503 0.39736 0.12968 0.0
Mn22 Mn 0.34232 0.46033 0.17396 0.0
O23 O 0.31716 0.34478 0.21378 0.0
Mn24 Mn 0.29982 0.37685 0.2756 0.0
O25 O 0.35466 0.52538 0.21959 0.0
O26 O 0.39707 0.49832 0.10686 0.0
Mn27 Mn 0.3849 0.54214 0.07319 0.0
O28 O 0.28848 0.46218 0.11635 0.0
O29 O 0.39017 0.58261 0.14017 0.0
O30 O 0.39492 0.46332 0.24054 0.0
O31 O 0.35069 0.41944 0.32721 0.0
O32 O 0.43972 0.55369 0.03054 0.0
O33 O 0.32593 0.51052 0.03081 0.0
C34 C 0.24127 0.39163 0.25828 0.0
C35 C 0.33077 0.35805 0.15475 0.0
C36 C 0.37591 0.57012 0.19891 0.0
C37 C 0.43396 0.51705 0.06589 0.0
C38 C 0.2875 0.48368 0.06375 0.0
C39 C 0.39082 0.45247 0.30209 0.0
O40 O 0.28519 0.41657 0.23368 0.0
O41 O 0.23554 0.35655 0.29674 0.0
O42 O 0.83076 0.28898 0.27695 0.0
Mn43 Mn 0.88656 0.33989 0.33897 0.0
O44 O 0.80049 0.33262 0.23203 0.0
Mn45 Mn 0.84833 0.39169 0.26265 0.0
O46 O 0.93896 0.38999 0.40782 0.0
O47 O 0.86887 0.27944 0.39415 0.0
Mn48 Mn 0.92259 0.29055 0.43403 0.0
O49 O 0.94087 0.33162 0.29159 0.0
O50 O 0.93455 0.34027 0.48915 0.0
O51 O 0.83708 0.35356 0.39329 0.0
O52 O 0.83535 0.41302 0.3373 0.0
O53 O 0.8766 0.2276 0.45608 0.0
O54 O 0.9706 0.30435 0.37078 0.0
C55 C 0.91861 0.43126 0.22853 0.0
C56 C 0.79882 0.29233 0.24217 0.0
C57 C 0.94617 0.38252 0.46803 0.0
C58 C 0.84821 0.23535 0.41871 0.0
C59 C 0.97271 0.32127 0.31341 0.0
C60 C 0.83066 0.39073 0.39029 0.0
O61 O 0.90613 0.39578 0.2714 0.0
O62 O 0.8845 0.43851 0.20563 0.0
O63 O 0.60819 0.93862 0.46054 0.0
Mn64 Mn 0.544 0.88659 0.50823 0.0
O65 O 0.66736 0.96665 0.53626 0.0
Mn66 Mn 0.6295 0.92136 0.60068 0.0
O67 O 0.47738 0.83945 0.55551 0.0
O68 O 0.50998 0.91266 0.44618 0.0
Mn69 Mn 0.47314 0.8545 0.40999 0.0
O70 O 0.5363 0.82808 0.44734 0.0
O71 O 0.4321 0.80564 0.46753 0.0
O72 O 0.54796 0.93875 0.57636 0.0
O73 O 0.59601 0.93934 0.65645 0.0
O74 O 0.44729 0.88696 0.37448 0.0
O75 O 0.51315 0.84456 0.35642 0.0
C76 C 0.60488 0.8457 0.59714 0.0
C77 C 0.65196 0.96875 0.47961 0.0
C78 C 0.43558 0.81172 0.52888 0.0
C79 C 0.48362 0.92238 0.4057 0.0
C80 C 0.52711 0.81938 0.3864 0.0
C81 C 0.56243 0.94671 0.63621 0.0
O82 O 0.58369 0.86555 0.56486 0.0
O83 O 0.64338 0.87559 0.63031 0.0
O84 O 0.71325 0.54639 0.60867 0.0
Mn85 Mn 0.66058 0.54385 0.67345 0.0
O86 O 0.67543 0.46828 0.58111 0.0
Mn87 Mn 0.61359 0.45936 0.58208 0.0
O88 O 0.60956 0.53916 0.74549 0.0
O89 O 0.72012 0.58582 0.73087 0.0
Mn90 Mn 0.70527 0.62359 0.77754 0.0
O91 O 0.66783 0.60842 0.6342 0.0
O92 O 0.65616 0.57999 0.83109 0.0
O93 O 0.64389 0.47445 0.71544 0.0
O94 O 0.58123 0.42206 0.65147 0.0
O95 O 0.76928 0.64366 0.79709 0.0
O96 O 0.68706 0.65817 0.72109 0.0
C97 C 0.59505 0.51261 0.54919 0.0
C98 C 0.71431 0.50861 0.58929 0.0
C99 C 0.6153 0.5478 0.80762 0.0
C100 C 0.76381 0.60999 0.75636 0.0
C101 C 0.67262 0.64695 0.66213 0.0
C102 C 0.60422 0.43205 0.7054 0.0
O103 O 0.60426 0.50764 0.60962 0.0
O104 O 0.59883 0.48286 0.50996 0.0
O105 O 0.06162 0.671 0.79034 0.0
Mn106 Mn 0.11615 0.66224 0.8367 0.0
O107 O 0.04085 0.71331 0.85816 0.0
Mn108 Mn 0.08349 0.71964 0.92459 0.0
O109 O 0.16483 0.6433 0.88439 0.0
O110 O 0.09497 0.60328 0.77439 0.0
Mn111 Mn 0.15469 0.61925 0.74349 0.0
O112 O 0.17208 0.71642 0.77688 0.0
O113 O 0.17662 0.59783 0.8092 0.0
O114 O 0.06465 0.61467 0.90941 0.0
O115 O 0.06128 0.66773 0.97976 0.0
O116 O 0.11482 0.5875 0.67763 0.0
O117 O 0.19986 0.67935 0.71399 0.0
C118 C 0.16064 0.76688 0.91668 0.0
C119 C 0.03491 0.68951 0.8056 0.0
C120 C 0.17664 0.61073 0.86808 0.0
C121 C 0.08139 0.58747 0.71446 0.0
C122 C 0.20244 0.71769 0.73463 0.0
C123 C 0.05252 0.62494 0.96543 0.0
O124 O 0.13651 0.72313 0.89164 0.0
O125 O 0.13386 0.77963 0.9496 0.0
H126 H 0.35557 0.94923 0.98456 0.0
H127 H 0.28886 0.01433 0.87057 0.0
H128 H 0.22943 0.93356 0.82669 0.0
H129 H 0.18662 0.84418 0.83976 0.0
H130 H 0.24575 0.77839 0.96645 0.0
H131 H 0.31887 0.85896 0.98483 0.0
C132 C 0.32896 0.94568 0.94838 0.0
C133 C 0.32656 0.98742 0.93016 0.0
C134 C 0.29349 0.89877 0.92604 0.0
C135 C 0.29141 0.98266 0.88468 0.0
C136 C 0.25739 0.93647 0.85995 0.0
C137 C 0.21687 0.84728 0.86848 0.0
C138 C 0.2113 0.80537 0.90077 0.0
C139 C 0.25673 0.89412 0.88258 0.0
C140 C 0.24982 0.80984 0.93965 0.0
C141 C 0.2911 0.85617 0.9513 0.0
H142 H 0.40254 0.34165 0.19121 0.0
H143 H 0.29915 0.31144 0.03641 0.0
H144 H 0.32047 0.25355 0.98759 0.0
H145 H 0.35728 0.20106 0.002 0.0
H146 H 0.45939 0.23112 0.15829 0.0
H147 H 0.45157 0.301 0.19232 0.0
C148 C 0.38539 0.32299 0.14604 0.0
C149 C 0.34858 0.32976 0.11803 0.0
C150 C 0.39804 0.29016 0.11847 0.0
C151 C 0.32717 0.3063 0.05904 0.0
C152 C 0.33938 0.27324 0.03132 0.0
C153 C 0.37989 0.2247 0.04118 0.0
C154 C 0.40947 0.21142 0.07707 0.0
C155 C 0.37342 0.26354 0.06205 0.0
C156 C 0.43748 0.24135 0.12892 0.0
C157 C 0.43206 0.28063 0.14927 0.0
H158 H 0.05544 0.40939 0.29192 0.0
H159 H 0.98802 0.25496 0.2513 0.0
H160 H 0.06701 0.26671 0.2147 0.0
H161 H 0.15649 0.31723 0.21567 0.0
H162 H 0.22663 0.47037 0.26461 0.0
H163 H 0.14581 0.46366 0.27461 0.0
C164 C 0.05794 0.37882 0.27249 0.0
C165 C 0.0159 0.33136 0.27332 0.0
C166 C 0.10419 0.38572 0.25388 0.0
C167 C 0.01966 0.29176 0.24999 0.0
C168 C 0.06494 0.29848 0.22967 0.0
C169 C 0.15411 0.34963 0.22596 0.0
C170 C 0.19741 0.39425 0.23928 0.0
C171 C 0.10768 0.34477 0.23428 0.0
C172 C 0.19392 0.43582 0.25326 0.0
C173 C 0.14759 0.43168 0.25999 0.0
H174 H 0.83738 0.15258 0.37077 0.0
H175 H 0.75454 0.22047 0.42786 0.0
H176 H 0.6802 0.1391 0.43877 0.0
H177 H 0.64512 0.0494 0.45697 0.0
H178 H 0.73386 0.98484 0.41526 0.0
H179 H 0.79955 0.06359 0.37328 0.0
C180 C 0.80248 0.14955 0.38301 0.0
C181 C 0.80127 0.19232 0.39835 0.0
C182 C 0.76132 0.10289 0.39367 0.0
C183 C 0.75621 0.18814 0.41492 0.0
C184 C 0.71398 0.14151 0.42232 0.0
C185 C 0.67824 0.05244 0.43639 0.0
C186 C 0.68474 0.01145 0.4384 0.0
C187 C 0.7169 0.09867 0.41557 0.0
C188 C 0.72804 0.01577 0.41335 0.0
C189 C 0.76563 0.06087 0.38982 0.0
H190 H 0.63847 0.80224 0.5145 0.0
H191 H 0.5465 0.77624 0.68311 0.0
H192 H 0.55758 0.70837 0.71668 0.0
H193 H 0.60598 0.66757 0.70918 0.0
H194 H 0.69719 0.69099 0.54048 0.0
H195 H 0.67379 0.74843 0.49514 0.0
C196 C 0.61868 0.77982 0.55649 0.0
C197 C 0.59096 0.79366 0.59577 0.0
C198 C 0.62665 0.74165 0.57661 0.0
C199 C 0.5668 0.76543 0.65122 0.0
C200 C 0.57407 0.72728 0.67119 0.0
C201 C 0.62025 0.68484 0.66204 0.0
C202 C 0.65442 0.67641 0.62904 0.0
C203 C 0.60601 0.71695 0.63617 0.0
C204 C 0.67158 0.69773 0.56724 0.0
C205 C 0.65811 0.73046 0.5414 0.0
H206 H 0.95429 0.60004 0.78298 0.0
H207 H 0.0161 0.75454 0.74586 0.0
H208 H 0.93602 0.73996 0.71048 0.0
H209 H 0.84684 0.68657 0.71194 0.0
H210 H 0.78202 0.53348 0.76003 0.0
H211 H 0.86427 0.54339 0.76751 0.0
C212 C 0.95041 0.63008 0.76457 0.0
C213 C 0.99122 0.67836 0.76613 0.0
C214 C 0.90338 0.62156 0.74719 0.0
C215 C 0.98548 0.71718 0.74418 0.0
C216 C 0.93955 0.70883 0.72452 0.0
C217 C 0.85069 0.65489 0.72135 0.0
C218 C 0.80838 0.60926 0.73496 0.0
C219 C 0.89795 0.66162 0.72876 0.0
C220 C 0.81386 0.56872 0.74818 0.0
C221 C 0.86103 0.57471 0.75355 0.0
H222 H 0.50875 0.04791 0.16965 0.0
H223 H 0.37155 0.02373 0.25134 0.0
H224 H 0.38821 0.99721 0.3528 0.0
H225 H 0.43377 0.96863 0.414 0.0
H226 H 0.56507 0.98078 0.33324 0.0
H227 H 0.56052 0.02642 0.23904 0.0
C228 C 0.48257 0.03672 0.20959 0.0
C229 C 0.43858 0.03733 0.20136 0.0
C230 C 0.49184 0.02025 0.26937 0.0
C231 C 0.40554 0.02335 0.25467 0.0
C232 C 0.41508 0.00842 0.31371 0.0
C233 C 0.46289 0.98383 0.37755 0.0
C234 C 0.49952 0.97156 0.38042 0.0
C235 C 0.45738 0.00568 0.32122 0.0
C236 C 0.53679 0.99057 0.33255 0.0
C237 C 0.53325 0.01526 0.27755 0.0
H238 H 0.39756 0.42308 0.42355 0.0
H239 H 0.47795 0.53941 0.28341 0.0
H240 H 0.54706 0.5789 0.35968 0.0
H241 H 0.5886 0.57182 0.45851 0.0
H242 H 0.50484 0.45666 0.59812 0.0
H243 H 0.43236 0.42565 0.52998 0.0
C244 C 0.42994 0.45735 0.40945 0.0
C245 C 0.43317 0.4775 0.34687 0.0
C246 C 0.46869 0.48013 0.4537 0.0
C247 C 0.47526 0.5222 0.33026 0.0
C248 C 0.51446 0.54505 0.37417 0.0
C249 C 0.55363 0.54192 0.47575 0.0
C250 C 0.55206 0.51664 0.53318 0.0
C251 C 0.51213 0.52351 0.43526 0.0
C252 C 0.50674 0.47748 0.55491 0.0
C253 C 0.46554 0.45883 0.51497 0.0
H254 H 0.05286 0.4939 0.72065 0.0
H255 H 0.00305 0.59192 0.66269 0.0
H256 H 0.95315 0.53476 0.57553 0.0
H257 H 0.93698 0.46328 0.50255 0.0
H258 H 0.01678 0.38867 0.54411 0.0
H259 H 0.04571 0.43242 0.64584 0.0
C260 C 0.02946 0.5018 0.69042 0.0
C261 C 0.03191 0.54711 0.69785 0.0
C262 C 0.00964 0.47458 0.6334 0.0
C263 C 0.00175 0.55716 0.65825 0.0
C264 C 0.97478 0.52535 0.60679 0.0
C265 C 0.96186 0.45786 0.533 0.0
C266 C 0.97409 0.42209 0.5159 0.0
C267 C 0.98124 0.48561 0.59098 0.0
C268 C 0.00632 0.41552 0.55627 0.0
C269 C 0.02235 0.43995 0.61518 0.0
H270 H 0.56636 0.94074 0.76735 0.0
H271 H 0.50585 0.9894 0.61584 0.0
H272 H 0.47488 0.02271 0.69934 0.0
H273 H 0.47764 0.04948 0.81311 0.0
H274 H 0.54821 0.00978 0.96055 0.0
H275 H 0.56017 0.95869 0.88158 0.0
C276 C 0.54623 0.95846 0.75223 0.0
C277 C 0.5397 0.96387 0.68514 0.0
C278 C 0.52932 0.97794 0.80022 0.0
C279 C 0.51218 0.98555 0.66692 0.0
C280 C 0.49431 0.00436 0.71472 0.0
C281 C 0.49312 0.0273 0.82862 0.0
C282 C 0.51121 0.03243 0.8928 0.0
C283 C 0.50398 1.002 0.78134 0.0
C284 C 0.53282 0.00521 0.91208 0.0
C285 C 0.54082 0.97716 0.86636 0.0
H286 H 0.41928 0.45339 0.97078 0.0
H287 H 0.52129 0.54256 0.11959 0.0
H288 H 0.59001 0.55712 0.04946 0.0
H289 H 0.61969 0.56026 0.93885 0.0
H290 H 0.5183 0.47794 0.78449 0.0
H291 H 0.45037 0.44474 0.86372 0.0
C292 C 0.45655 0.47337 0.98918 0.0
C293 C 0.46536 0.49686 0.05019 0.0
C294 C 0.4958 0.48478 0.94627 0.0
C295 C 0.51362 0.52338 0.07338 0.0
C296 C 0.55294 0.53291 0.03238 0.0
C297 C 0.58287 0.53467 0.92204 0.0
C298 C 0.57395 0.52289 0.85498 0.0
C299 C 0.54427 0.51651 0.9674 0.0
C300 C 0.52607 0.4887 0.83523 0.0
C301 C 0.48732 0.46952 0.88066 0.0
H302 H 0.04894 0.53539 0.99245 0.0
H303 H 1.00104 0.6335 0.06353 0.0
H304 H 0.97907 0.59234 0.16675 0.0
H305 H 0.96599 0.52622 0.2354 0.0
H306 H 0.97785 0.4073 0.15523 0.0
H307 H 0.02581 0.4597 0.06201 0.0
C308 C 0.03289 0.54703 0.0301 0.0
C309 C 0.02864 0.589 0.01997 0.0
C310 C 0.01595 0.52033 0.08976 0.0
C311 C 0.00678 0.60271 0.06962 0.0
C312 C 0.99429 0.57938 0.12957 0.0
C313 C 0.98071 0.51235 0.19855 0.0
C314 C 0.96812 0.46322 0.20173 0.0
C315 C 0.99884 0.53846 0.14031 0.0
C316 C 0.98723 0.44534 0.15403 0.0
C317 C 0.01302 0.47474 0.09952 0.0
H318 H 0.52963 0.2677 0.92546 0.0
H319 H 0.44452 0.18105 0.76165 0.0
H320 H 0.47695 0.25491 0.69445 0.0
H321 H 0.53572 0.33934 0.67885 0.0
H322 H 0.62514 0.43031 0.83779 0.0
H323 H 0.58559 0.35813 0.91109 0.0
C324 C 0.51682 0.26562 0.87579 0.0
C325 C 0.484 0.21946 0.84832 0.0
C326 C 0.53771 0.3081 0.83658 0.0
C327 C 0.46876 0.21639 0.78365 0.0
C328 C 0.48797 0.25841 0.74519 0.0
C329 C 0.5468 0.34442 0.72968 0.0
C330 C 0.5839 0.39055 0.75259 0.0
C331 C 0.52368 0.3038 0.77059 0.0
C332 C 0.59735 0.39521 0.81861 0.0
C333 C 0.57435 0.3541 0.86044 0.0
H334 H 0.22012 0.62844 0.99236 0.0
H335 H 0.13712 0.51466 0.85124 0.0
H336 H 0.157 0.45957 0.90574 0.0
H337 H 0.21108 0.44887 0.98001 0.0
H338 H 0.28565 0.55514 0.13113 0.0
H339 H 0.25484 0.60663 0.08828 0.0
C340 C 0.20525 0.5912 0.97498 0.0
C341 C 0.1795 0.57689 0.91574 0.0
C342 C 0.21533 0.55795 0.00827 0.0
C343 C 0.15923 0.52775 0.89504 0.0
C344 C 0.17017 0.49568 0.92634 0.0
C345 C 0.21823 0.48188 0.00557 0.0
C346 C 0.25054 0.49839 0.05804 0.0
C347 C 0.2001 0.51107 0.98107 0.0
C348 C 0.2603 0.54166 0.09053 0.0
C349 C 0.24335 0.57157 0.06545 0.0
H350 H 0.5831 0.18015 0.16021 0.0
H351 H 0.65718 0.26481 0.9871 0.0
H352 H 0.73496 0.28105 0.02887 0.0
H353 H 0.78409 0.27845 0.11594 0.0
H354 H 0.71771 0.21724 0.30195 0.0
H355 H 0.63555 0.18211 0.25376 0.0
C356 C 0.61639 0.20342 0.13269 0.0
C357 C 0.61352 0.2206 0.07007 0.0
C358 C 0.66261 0.21528 0.15856 0.0
C359 C 0.65752 0.25061 0.03522 0.0
C360 C 0.70237 0.25952 0.05853 0.0
C361 C 0.7515 0.25548 0.14512 0.0
C362 C 0.75684 0.24989 0.21182 0.0
C363 C 0.70539 0.24208 0.11984 0.0
C364 C 0.71455 0.22096 0.24986 0.0
C365 C 0.66758 0.20247 0.22278 0.0
H366 H 0.4784 0.78528 0.27417 0.0
H367 H 0.52962 0.73888 0.43959 0.0
H368 H 0.48155 0.65322 0.40115 0.0
H369 H 0.42367 0.59213 0.31774 0.0
H370 H 0.36042 0.64347 0.17342 0.0
H371 H 0.41202 0.72701 0.21011 0.0
C372 C 0.47936 0.75692 0.30295 0.0
C373 C 0.50812 0.76909 0.35978 0.0
C374 C 0.44769 0.70835 0.28564 0.0
C375 C 0.50857 0.73099 0.39503 0.0
C376 C 0.48026 0.68192 0.3738 0.0
C377 C 0.41954 0.62137 0.29682 0.0
C378 C 0.38857 0.61176 0.24243 0.0
C379 C 0.44881 0.67005 0.31956 0.0
C380 C 0.38385 0.64999 0.21532 0.0
C381 C 0.41409 0.69791 0.23533 0.0
H382 H 0.84884 0.48285 0.40187 0.0
H383 H 0.78741 0.34584 0.50801 0.0
H384 H 0.75855 0.37995 0.59352 0.0
H385 H 0.73778 0.44224 0.62504 0.0
H386 H 0.78806 0.57261 0.50774 0.0
H387 H 0.8367 0.54864 0.44035 0.0
C388 C 0.82934 0.46022 0.44387 0.0
C389 C 0.81883 0.41115 0.44777 0.0
C390 C 0.81164 0.4794 0.49081 0.0
C391 C 0.7952 0.38325 0.50351 0.0
C392 C 0.7788 0.40283 0.55215 0.0
C393 C 0.7611 0.46632 0.58622 0.0
C394 C 0.7593 0.50889 0.57064 0.0
C395 C 0.78513 0.45005 0.54472 0.0
C396 C 0.78939 0.54008 0.5208 0.0
C397 C 0.81621 0.5257 0.48157 0.0
H398 H 0.41681 0.80985 0.66254 0.0
H399 H 0.34932 0.78823 0.47244 0.0
H400 H 0.2749 0.77607 0.52171 0.0
H401 H 0.22388 0.75987 0.61729 0.0
H402 H 0.28352 0.76949 0.80853 0.0
H403 H 0.36538 0.79992 0.76136 0.0
C404 C 0.38562 0.80194 0.63215 0.0
C405 C 0.38901 0.79877 0.56375 0.0
C406 C 0.34129 0.79384 0.66107 0.0
C407 C 0.34816 0.78949 0.52527 0.0
C408 C 0.30531 0.78322 0.55325 0.0
C409 C 0.25544 0.77143 0.64878 0.0
C410 C 0.24775 0.76271 0.71602 0.0
C411 C 0.30103 0.78435 0.62091 0.0
C412 C 0.2887 0.7769 0.75648 0.0
C413 C 0.33527 0.79271 0.72925 0.0
loop_
_geom_bond_atom_site_label_1
_geom_bond_atom_site_label_2
_geom_bond_distance
_geom_bond_site_symmetry_2
_ccdc_geom_bond_type
O0 Mn1 2.163 1_556 S
O0 C14 1.244 . S
Mn1 O0 2.163 1_554 S
Mn1 O4 2.160 . S
Mn1 O5 2.221 . S
Mn1 O7 2.163 1_554 S
Mn1 O9 2.160 . S
Mn1 O19 2.221 1_554 S
O2 Mn3 2.087 . S
O2 C14 1.256 . S
Mn3 O2 2.087 . S
Mn3 O10 2.089 . S
Mn3 O19 2.290 . S
Mn3 O20 2.251 . S
O4 Mn1 2.160 . S
O4 C15 1.239 . S
O5 Mn1 2.221 . S
O5 Mn6 2.290 . S
O5 C16 1.278 . S
Mn6 O5 2.290 . S
Mn6 O8 2.089 . S
Mn6 O11 2.251 . S
Mn6 O12 2.087 . S
O7 Mn1 2.163 1_556 S
O7 C17 1.244 . S
O8 Mn6 2.089 . S
O8 C15 1.256 . S
O9 Mn1 2.160 . S
O9 C18 1.239 . S
O10 Mn3 2.089 . S
O10 C18 1.256 1_556 S
O11 Mn6 2.251 . S
O11 C16 1.241 . S
O12 Mn6 2.087 . S
O12 C17 1.256 1_554 S
C13 O19 1.278 . S
C13 O20 1.241 . S
C14 O0 1.244 . S
C14 O2 1.256 . S
C15 O4 1.239 . S
C15 O8 1.256 . S
C16 O5 1.278 . S
C16 O11 1.241 . S
C17 O7 1.244 . S
C17 O12 1.256 1_556 S
C18 O9 1.239 . S
C18 O10 1.256 1_554 S
O19 Mn1 2.221 1_556 S
O19 Mn3 2.290 . S
O19 C13 1.278 . S
O20 Mn3 2.251 . S
O20 C13 1.241 . S
O21 Mn22 2.163 . S
O21 C35 1.244 . S
Mn22 O21 2.163 . S
Mn22 O25 2.160 . S
Mn22 O26 2.221 . S
Mn22 O28 2.163 . S
Mn22 O30 2.160 . S
Mn22 O40 2.221 . S
O23 Mn24 2.087 . S
O23 C35 1.256 . S
Mn24 O23 2.087 . S
Mn24 O31 2.089 . S
Mn24 O40 2.290 . S
Mn24 O41 2.251 . S
O25 Mn22 2.160 . S
O25 C36 1.239 . S
O26 Mn22 2.221 . S
O26 Mn27 2.290 . S
O26 C37 1.278 . S
Mn27 O26 2.290 . S
Mn27 O29 2.089 . S
Mn27 O32 2.251 . S
Mn27 O33 2.087 . S
O28 Mn22 2.163 . S
O28 C38 1.244 . S
O29 Mn27 2.089 . S
O29 C36 1.256 . S
O30 Mn22 2.160 . S
O30 C39 1.239 . S
O31 Mn24 2.089 . S
O31 C39 1.256 . S
O32 Mn27 2.251 . S
O32 C37 1.241 . S
O33 Mn27 2.087 . S
O33 C38 1.256 . S
C34 O40 1.278 . S
C34 O41 1.241 . S
C35 O21 1.244 . S
C35 O23 1.256 . S
C36 O25 1.239 . S
C36 O29 1.256 . S
C37 O26 1.278 . S
C37 O32 1.241 . S
C38 O28 1.244 . S
C38 O33 1.256 . S
C39 O30 1.239 . S
C39 O31 1.256 . S
O40 Mn22 2.221 . S
O40 Mn24 2.290 . S
O40 C34 1.278 . S
O41 Mn24 2.251 . S
O41 C34 1.241 . S
O42 Mn43 2.163 . S
O42 C56 1.244 . S
Mn43 O42 2.163 . S
Mn43 O46 2.160 . S
Mn43 O47 2.221 . S
Mn43 O49 2.163 . S
Mn43 O51 2.160 . S
Mn43 O61 2.221 . S
O44 Mn45 2.087 . S
O44 C56 1.256 . S
Mn45 O44 2.087 . S
Mn45 O52 2.089 . S
Mn45 O61 2.290 . S
Mn45 O62 2.251 . S
O46 Mn43 2.160 . S
O46 C57 1.239 . S
O47 Mn43 2.221 . S
O47 Mn48 2.290 . S
O47 C58 1.278 . S
Mn48 O47 2.290 . S
Mn48 O50 2.089 . S
Mn48 O53 2.251 . S
Mn48 O54 2.087 . S
O49 Mn43 2.163 . S
O49 C59 1.244 . S
O50 Mn48 2.089 . S
O50 C57 1.256 . S
O51 Mn43 2.160 . S
O51 C60 1.239 . S
O52 Mn45 2.089 . S
O52 C60 1.256 . S
O53 Mn48 2.251 . S
O53 C58 1.241 . S
O54 Mn48 2.087 . S
O54 C59 1.256 . S
C55 O61 1.278 . S
C55 O62 1.241 . S
C56 O42 1.244 . S
C56 O44 1.256 . S
C57 O46 1.239 . S
C57 O50 1.256 . S
C58 O47 1.278 . S
C58 O53 1.241 . S
C59 O49 1.244 . S
C59 O54 1.256 . S
C60 O51 1.239 . S
C60 O52 1.256 . S
O61 Mn43 2.221 . S
O61 Mn45 2.290 . S
O61 C55 1.278 . S
O62 Mn45 2.251 . S
O62 C55 1.241 . S
O63 Mn64 2.163 . S
O63 C77 1.244 . S
Mn64 O63 2.163 . S
Mn64 O67 2.160 . S
Mn64 O68 2.221 . S
Mn64 O70 2.163 . S
Mn64 O72 2.160 . S
Mn64 O82 2.221 . S
O65 Mn66 2.087 . S
O65 C77 1.256 . S
Mn66 O65 2.087 . S
Mn66 O73 2.089 . S
Mn66 O82 2.290 . S
Mn66 O83 2.251 . S
O67 Mn64 2.160 . S
O67 C78 1.239 . S
O68 Mn64 2.221 . S
O68 Mn69 2.290 . S
O68 C79 1.278 . S
Mn69 O68 2.290 . S
Mn69 O71 2.089 . S
Mn69 O74 2.251 . S
Mn69 O75 2.087 . S
O70 Mn64 2.163 . S
O70 C80 1.244 . S
O71 Mn69 2.089 . S
O71 C78 1.256 . S
O72 Mn64 2.160 . S
O72 C81 1.239 . S
O73 Mn66 2.089 . S
O73 C81 1.256 . S
O74 Mn69 2.251 . S
O74 C79 1.241 . S
O75 Mn69 2.087 . S
O75 C80 1.256 . S
C76 O82 1.278 . S
C76 O83 1.241 . S
C77 O63 1.244 . S
C77 O65 1.256 . S
C78 O67 1.239 . S
C78 O71 1.256 . S
C79 O68 1.278 . S
C79 O74 1.241 . S
C80 O70 1.244 . S
C80 O75 1.256 . S
C81 O72 1.239 . S
C81 O73 1.256 . S
O82 Mn64 2.221 . S
O82 Mn66 2.290 . S
O82 C76 1.278 . S
O83 Mn66 2.251 . S
O83 C76 1.241 . S
O84 Mn85 2.163 . S
O84 C98 1.244 . S
Mn85 O84 2.163 . S
Mn85 O88 2.160 . S
Mn85 O89 2.221 . S
Mn85 O91 2.163 . S
Mn85 O93 2.160 . S
Mn85 O103 2.221 . S
O86 Mn87 2.087 . S
O86 C98 1.256 . S
Mn87 O86 2.087 . S
Mn87 O94 2.089 . S
Mn87 O103 2.290 . S
Mn87 O104 2.251 . S
O88 Mn85 2.160 . S
O88 C99 1.239 . S
O89 Mn85 2.221 . S
O89 Mn90 2.290 . S
O89 C100 1.278 . S
Mn90 O89 2.290 . S
Mn90 O92 2.089 . S
Mn90 O95 2.251 . S
Mn90 O96 2.087 . S
O91 Mn85 2.163 . S
O91 C101 1.244 . S
O92 Mn90 2.089 . S
O92 C99 1.256 . S
O93 Mn85 2.160 . S
O93 C102 1.239 . S
O94 Mn87 2.089 . S
O94 C102 1.256 . S
O95 Mn90 2.251 . S
O95 C100 1.241 . S
O96 Mn90 2.087 . S
O96 C101 1.256 . S
C97 O103 1.278 . S
C97 O104 1.241 . S
C98 O84 1.244 . S
C98 O86 1.256 . S
C99 O88 1.239 . S
C99 O92 1.256 . S
C100 O89 1.278 . S
C100 O95 1.241 . S
C101 O91 1.244 . S
C101 O96 1.256 . S
C102 O93 1.239 . S
C102 O94 1.256 . S
O103 Mn85 2.221 . S
O103 Mn87 2.290 . S
O103 C97 1.278 . S
O104 Mn87 2.251 . S
O104 C97 1.241 . S
O105 Mn106 2.163 . S
O105 C119 1.244 . S
Mn106 O105 2.163 . S
Mn106 O109 2.160 . S
Mn106 O110 2.221 . S
Mn106 O112 2.163 . S
Mn106 O114 2.160 . S
Mn106 O124 2.221 . S
O107 Mn108 2.087 . S
O107 C119 1.256 . S
Mn108 O107 2.087 . S
Mn108 O115 2.089 . S
Mn108 O124 2.290 . S
Mn108 O125 2.251 . S
O109 Mn106 2.160 . S
O109 C120 1.239 . S
O110 Mn106 2.221 . S
O110 Mn111 2.290 . S
O110 C121 1.278 . S
Mn111 O110 2.290 . S
Mn111 O113 2.089 . S
Mn111 O116 2.251 . S
Mn111 O117 2.087 . S
O112 Mn106 2.163 . S
O112 C122 1.244 . S
O113 Mn111 2.089 . S
O113 C120 1.256 . S
O114 Mn106 2.160 . S
O114 C123 1.239 . S
O115 Mn108 2.089 . S
O115 C123 1.256 . S
O116 Mn111 2.251 . S
O116 C121 1.241 . S
O117 Mn111 2.087 . S
O117 C122 1.256 . S
C118 O124 1.278 . S
C118 O125 1.241 . S
C119 O105 1.244 . S
C119 O107 1.256 . S
C120 O109 1.239 . S
C120 O113 1.256 . S
C121 O110 1.278 . S
C121 O116 1.241 . S
C122 O112 1.244 . S
C122 O117 1.256 . S
C123 O114 1.239 . S
C123 O115 1.256 . S
O124 Mn106 2.221 . S
O124 Mn108 2.290 . S
O124 C118 1.278 . S
O125 Mn108 2.251 . S
O125 C118 1.241 . S
H126 C132 0.930 1_554 S
H127 C135 0.925 1_545 S
H128 C136 0.930 . S
H129 C137 0.930 . S
H130 C140 0.930 1_554 S
H131 C141 0.930 . S
C132 H126 0.930 1_556 S
C132 C133 1.355 . S
C132 C134 1.415 . S
C133 C132 1.355 . S
C133 C135 1.419 . S
C134 C132 1.415 . S
C134 C139 1.425 . S
C134 C141 1.409 1_556 S
C135 H127 0.925 1_565 S
C135 C133 1.419 . S
C135 C136 1.362 . S
C136 H128 0.930 . S
C136 C135 1.362 . S
C136 C139 1.409 . S
C137 H129 0.930 . S
C137 C138 1.355 . S
C137 C139 1.415 . S
C138 C137 1.355 . S
C138 C140 1.419 . S
C139 C134 1.425 . S
C139 C136 1.409 . S
C139 C137 1.415 . S
C140 H130 0.930 1_556 S
C140 C138 1.419 . S
C140 C141 1.362 1_556 S
C141 H131 0.930 . S
C141 C134 1.409 1_554 S
C141 C140 1.362 1_554 S
H142 C148 0.930 . S
H143 C151 0.930 . S
H144 C152 0.930 1_556 S
H145 C153 0.930 . S
H146 C156 0.930 . S
H147 C157 0.930 . S
C148 H142 0.930 . S
C148 C149 1.355 . S
C148 C150 1.415 . S
C149 C148 1.355 . S
C149 C151 1.419 . S
C150 C148 1.415 . S
C150 C155 1.425 . S
C150 C157 1.409 . S
C151 H143 0.930 . S
C151 C149 1.419 . S
C151 C152 1.362 . S
C152 H144 0.930 1_554 S
C152 C151 1.362 . S
C152 C155 1.409 . S
C153 H145 0.930 . S
C153 C154 1.355 . S
C153 C155 1.415 . S
C154 C153 1.355 . S
C154 C156 1.419 . S
C155 C150 1.425 . S
C155 C152 1.409 . S
C155 C153 1.415 . S
C156 H146 0.930 . S
C156 C154 1.419 . S
C156 C157 1.362 . S
C157 H147 0.930 . S
C157 C150 1.409 . S
C157 C156 1.362 . S
H158 C164 0.930 . S
H159 C167 0.931 1_655 S
H160 C168 0.930 . S
H161 C169 0.930 . S
H162 C172 0.930 . S
H163 C173 0.930 . S
C164 H158 0.930 . S
C164 C165 1.355 . S
C164 C166 1.415 . S
C165 C164 1.355 . S
C165 C167 1.419 . S
C166 C164 1.415 . S
C166 C171 1.425 . S
C166 C173 1.409 . S
C167 H159 0.931 1_455 S
C167 C165 1.419 . S
C167 C168 1.362 . S
C168 H160 0.930 . S
C168 C167 1.362 . S
C168 C171 1.409 . S
C169 H161 0.930 . S
C169 C170 1.355 . S
C169 C171 1.415 . S
C170 C169 1.355 . S
C170 C172 1.419 . S
C171 C166 1.425 . S
C171 C168 1.409 . S
C171 C169 1.415 . S
C172 H162 0.930 . S
C172 C170 1.419 . S
C172 C173 1.362 . S
C173 H163 0.930 . S
C173 C166 1.409 . S
C173 C172 1.362 . S
H174 C180 0.930 . S
H175 C183 0.930 . S
H176 C184 0.930 . S
H177 C185 0.930 . S
H178 C188 0.951 . S
H179 C189 0.930 . S
C180 H174 0.930 . S
C180 C181 1.355 . S
C180 C182 1.415 . S
C181 C180 1.355 . S
C181 C183 1.419 . S
C182 C180 1.415 . S
C182 C187 1.425 . S
C182 C189 1.409 . S
C183 H175 0.930 . S
C183 C181 1.419 . S
C183 C184 1.362 . S
C184 H176 0.930 . S
C184 C183 1.362 . S
C184 C187 1.409 . S
C185 H177 0.930 . S
C185 C186 1.355 . S
C185 C187 1.415 . S
C186 C185 1.355 . S
C186 C188 1.419 . S
C187 C182 1.425 . S
C187 C184 1.409 . S
C187 C185 1.415 . S
C188 H178 0.951 . S
C188 C186 1.419 . S
C188 C189 1.362 . S
C189 H179 0.930 . S
C189 C182 1.409 . S
C189 C188 1.362 . S
H190 C196 0.930 . S
H191 C199 0.930 . S
H192 C200 0.930 . S
H193 C201 0.930 . S
H194 C204 0.930 . S
H195 C205 0.930 . S
C196 H190 0.930 . S
C196 C197 1.355 . S
C196 C198 1.415 . S
C197 C196 1.355 . S
C197 C199 1.419 . S
C198 C196 1.415 . S
C198 C203 1.425 . S
C198 C205 1.409 . S
C199 H191 0.930 . S
C199 C197 1.419 . S
C199 C200 1.362 . S
C200 H192 0.930 . S
C200 C199 1.362 . S
C200 C203 1.409 . S
C201 H193 0.930 . S
C201 C202 1.355 . S
C201 C203 1.415 . S
C202 C201 1.355 . S
C202 C204 1.419 . S
C203 C198 1.425 . S
C203 C200 1.409 . S
C203 C201 1.415 . S
C204 H194 0.930 . S
C204 C202 1.419 . S
C204 C205 1.362 . S
C205 H195 0.930 . S
C205 C198 1.409 . S
C205 C204 1.362 . S
H206 C212 0.930 . S
H207 C215 0.930 . S
H208 C216 0.930 . S
H209 C217 0.930 . S
H210 C220 0.930 . S
H211 C221 0.930 . S
C212 H206 0.930 . S
C212 C213 1.355 . S
C212 C214 1.415 . S
C213 C212 1.355 . S
C213 C215 1.419 . S
C214 C212 1.415 . S
C214 C219 1.425 . S
C214 C221 1.409 . S
C215 H207 0.930 . S
C215 C213 1.419 . S
C215 C216 1.362 . S
C216 H208 0.930 . S
C216 C215 1.362 . S
C216 C219 1.409 . S
C217 H209 0.930 . S
C217 C218 1.355 . S
C217 C219 1.415 . S
C218 C217 1.355 . S
C218 C220 1.419 . S
C219 C214 1.425 . S
C219 C216 1.409 . S
C219 C217 1.415 . S
C220 H210 0.930 . S
C220 C218 1.419 . S
C220 C221 1.362 . S
C221 H211 0.930 . S
C221 C214 1.409 . S
C221 C220 1.362 . S
H222 C228 0.934 1_545 S
H223 C231 0.930 . S
H224 C232 0.930 . S
H225 C233 0.930 . S
H226 C236 0.930 . S
H227 C237 0.930 . S
C228 H222 0.934 1_565 S
C228 C229 1.355 1_565 S
C228 C230 1.415 . S
C229 C228 1.355 1_545 S
C229 C231 1.419 . S
C230 C228 1.415 . S
C230 C235 1.425 . S
C230 C237 1.409 . S
C231 H223 0.930 . S
C231 C229 1.419 . S
C231 C232 1.362 1_545 S
C232 H224 0.930 . S
C232 C231 1.362 1_565 S
C232 C235 1.409 . S
C233 H225 0.930 . S
C233 C234 1.355 . S
C233 C235 1.415 . S
C234 C233 1.355 . S
C234 C236 1.419 . S
C235 C230 1.425 . S
C235 C232 1.409 . S
C235 C233 1.415 . S
C236 H226 0.930 . S
C236 C234 1.419 . S
C236 C237 1.362 . S
C237 H227 0.930 . S
C237 C230 1.409 . S
C237 C236 1.362 . S
H238 C244 0.930 . S
H239 C247 0.930 . S
H240 C248 0.930 . S
H241 C249 0.930 . S
H242 C252 0.930 . S
H243 C253 0.930 . S
C244 H238 0.930 . S
C244 C245 1.355 . S
C244 C246 1.415 . S
C245 C244 1.355 . S
C245 C247 1.419 . S
C246 C244 1.415 . S
C246 C251 1.425 . S
C246 C253 1.409 . S
C247 H239 0.930 . S
C247 C245 1.419 . S
C247 C248 1.362 . S
C248 H240 0.930 . S
C248 C247 1.362 . S
C248 C251 1.409 . S
C249 H241 0.930 . S
C249 C250 1.355 . S
C249 C251 1.415 . S
C250 C249 1.355 . S
C250 C252 1.419 . S
C251 C246 1.425 . S
C251 C248 1.409 . S
C251 C249 1.415 . S
C252 H242 0.930 . S
C252 C250 1.419 . S
C252 C253 1.362 . S
C253 H243 0.930 . S
C253 C246 1.409 . S
C253 C252 1.362 . S
H254 C260 0.930 . S
H255 C263 0.930 . S
H256 C264 0.930 . S
H257 C265 0.930 . S
H258 C268 0.930 . S
H259 C269 0.930 . S
C260 H254 0.930 . S
C260 C261 1.355 . S
C260 C262 1.415 . S
C261 C260 1.355 . S
C261 C263 1.419 . S
C262 C260 1.415 . S
C262 C267 1.425 . S
C262 C269 1.409 . S
C263 H255 0.930 . S
C263 C261 1.419 . S
C263 C264 1.362 1_455 S
C264 H256 0.930 . S
C264 C263 1.362 1_655 S
C264 C267 1.409 1_655 S
C265 H257 0.930 . S
C265 C266 1.355 . S
C265 C267 1.415 1_655 S
C266 C265 1.355 . S
C266 C268 1.419 1_655 S
C267 C262 1.425 . S
C267 C264 1.409 1_455 S
C267 C265 1.415 1_455 S
C268 H258 0.930 . S
C268 C266 1.419 1_455 S
C268 C269 1.362 . S
C269 H259 0.930 . S
C269 C262 1.409 . S
C269 C268 1.362 . S
H270 C276 0.930 . S
H271 C279 0.930 . S
H272 C280 0.930 . S
H273 C281 0.930 . S
H274 C284 0.930 . S
H275 C285 0.930 1_565 S
C276 H270 0.930 . S
C276 C277 1.355 . S
C276 C278 1.415 1_565 S
C277 C276 1.355 . S
C277 C279 1.419 1_565 S
C278 C276 1.415 1_545 S
C278 C283 1.425 . S
C278 C285 1.409 . S
C279 H271 0.930 . S
C279 C277 1.419 1_545 S
C279 C280 1.362 . S
C280 H272 0.930 . S
C280 C279 1.362 . S
C280 C283 1.409 . S
C281 H273 0.930 . S
C281 C282 1.355 . S
C281 C283 1.415 . S
C282 C281 1.355 . S
C282 C284 1.419 . S
C283 C278 1.425 . S
C283 C280 1.409 . S
C283 C281 1.415 . S
C284 H274 0.930 . S
C284 C282 1.419 . S
C284 C285 1.362 . S
C285 H275 0.930 1_545 S
C285 C278 1.409 . S
C285 C284 1.362 . S
H286 C292 0.930 . S
H287 C295 0.930 . S
H288 C296 0.930 . S
H289 C297 0.930 . S
H290 C300 0.930 . S
H291 C301 0.930 . S
C292 H286 0.930 . S
C292 C293 1.355 1_556 S
C292 C294 1.415 . S
C293 C292 1.355 1_554 S
C293 C295 1.419 . S
C294 C292 1.415 . S
C294 C299 1.425 . S
C294 C301 1.409 . S
C295 H287 0.930 . S
C295 C293 1.419 . S
C295 C296 1.362 1_554 S
C296 H288 0.930 . S
C296 C295 1.362 1_556 S
C296 C299 1.409 . S
C297 H289 0.930 . S
C297 C298 1.355 . S
C297 C299 1.415 . S
C298 C297 1.355 . S
C298 C300 1.419 . S
C299 C294 1.425 . S
C299 C296 1.409 . S
C299 C297 1.415 . S
C300 H290 0.930 . S
C300 C298 1.419 . S
C300 C301 1.362 . S
C301 H291 0.930 . S
C301 C294 1.409 . S
C301 C300 1.362 . S
H302 C308 0.930 1_556 S
H303 C311 0.930 . S
H304 C312 0.930 . S
H305 C313 0.930 . S
H306 C316 0.930 . S
H307 C317 0.930 1_455 S
C308 H302 0.930 1_554 S
C308 C309 1.355 . S
C308 C310 1.415 1_455 S
C309 C308 1.355 . S
C309 C311 1.419 1_455 S
C310 C308 1.415 1_655 S
C310 C315 1.425 . S
C310 C317 1.409 . S
C311 H303 0.930 . S
C311 C309 1.419 1_655 S
C311 C312 1.362 . S
C312 H304 0.930 . S
C312 C311 1.362 . S
C312 C315 1.409 . S
C313 H305 0.930 . S
C313 C314 1.355 . S
C313 C315 1.415 . S
C314 C313 1.355 . S
C314 C316 1.419 . S
C315 C310 1.425 . S
C315 C312 1.409 . S
C315 C313 1.415 . S
C316 H306 0.930 . S
C316 C314 1.419 . S
C316 C317 1.362 . S
C317 H307 0.930 1_655 S
C317 C310 1.409 . S
C317 C316 1.362 . S
H318 C324 0.930 . S
H319 C327 0.930 . S
H320 C328 0.930 . S
H321 C329 0.930 . S
H322 C332 0.930 . S
H323 C333 0.930 . S
C324 H318 0.930 . S
C324 C325 1.355 . S
C324 C326 1.415 . S
C325 C324 1.355 . S
C325 C327 1.419 . S
C326 C324 1.415 . S
C326 C331 1.425 . S
C326 C333 1.409 . S
C327 H319 0.930 . S
C327 C325 1.419 . S
C327 C328 1.362 . S
C328 H320 0.930 . S
C328 C327 1.362 . S
C328 C331 1.409 . S
C329 H321 0.930 . S
C329 C330 1.355 . S
C329 C331 1.415 . S
C330 C329 1.355 . S
C330 C332 1.419 . S
C331 C326 1.425 . S
C331 C328 1.409 . S
C331 C329 1.415 . S
C332 H322 0.930 . S
C332 C330 1.419 . S
C332 C333 1.362 . S
C333 H323 0.930 . S
C333 C326 1.409 . S
C333 C332 1.362 . S
H334 C340 0.930 . S
H335 C343 0.930 . S
H336 C344 0.930 . S
H337 C345 0.930 . S
H338 C348 0.930 . S
H339 C349 0.930 . S
C340 H334 0.930 . S
C340 C341 1.355 . S
C340 C342 1.415 . S
C341 C340 1.355 . S
C341 C343 1.419 . S
C342 C340 1.415 . S
C342 C347 1.425 . S
C342 C349 1.409 1_556 S
C343 H335 0.930 . S
C343 C341 1.419 . S
C343 C344 1.362 . S
C344 H336 0.930 . S
C344 C343 1.362 . S
C344 C347 1.409 . S
C345 H337 0.930 . S
C345 C346 1.355 . S
C345 C347 1.415 1_554 S
C346 C345 1.355 . S
C346 C348 1.419 . S
C347 C342 1.425 . S
C347 C344 1.409 . S
C347 C345 1.415 1_556 S
C348 H338 0.930 . S
C348 C346 1.419 . S
C348 C349 1.362 . S
C349 H339 0.930 . S
C349 C342 1.409 1_554 S
C349 C348 1.362 . S
H350 C356 0.930 . S
H351 C359 0.930 1_556 S
H352 C360 0.930 . S
H353 C361 0.930 . S
H354 C364 0.930 . S
H355 C365 0.930 . S
C356 H350 0.930 . S
C356 C357 1.355 . S
C356 C358 1.415 . S
C357 C356 1.355 . S
C357 C359 1.419 . S
C358 C356 1.415 . S
C358 C363 1.425 . S
C358 C365 1.409 . S
C359 H351 0.930 1_554 S
C359 C357 1.419 . S
C359 C360 1.362 . S
C360 H352 0.930 . S
C360 C359 1.362 . S
C360 C363 1.409 . S
C361 H353 0.930 . S
C361 C362 1.355 . S
C361 C363 1.415 . S
C362 C361 1.355 . S
C362 C364 1.419 . S
C363 C358 1.425 . S
C363 C360 1.409 . S
C363 C361 1.415 . S
C364 H354 0.930 . S
C364 C362 1.419 . S
C364 C365 1.362 . S
C365 H355 0.930 . S
C365 C358 1.409 . S
C365 C364 1.362 . S
H366 C372 0.930 . S
H367 C375 0.930 . S
H368 C376 0.930 . S
H369 C377 0.930 . S
H370 C380 0.930 . S
H371 C381 0.930 . S
C372 H366 0.930 . S
C372 C373 1.355 . S
C372 C374 1.415 . S
C373 C372 1.355 . S
C373 C375 1.419 . S
C374 C372 1.415 . S
C374 C379 1.425 . S
C374 C381 1.409 . S
C375 H367 0.930 . S
C375 C373 1.419 . S
C375 C376 1.362 . S
C376 H368 0.930 . S
C376 C375 1.362 . S
C376 C379 1.409 . S
C377 H369 0.930 . S
C377 C378 1.355 . S
C377 C379 1.415 . S
C378 C377 1.355 . S
C378 C380 1.419 . S
C379 C374 1.425 . S
C379 C376 1.409 . S
C379 C377 1.415 . S
C380 H370 0.930 . S
C380 C378 1.419 . S
C380 C381 1.362 . S
C381 H371 0.930 . S
C381 C374 1.409 . S
C381 C380 1.362 . S
H382 C388 0.930 . S
H383 C391 0.930 . S
H384 C392 0.930 . S
H385 C393 0.930 . S
H386 C396 0.930 . S
H387 C397 0.930 . S
C388 H382 0.930 . S
C388 C389 1.355 . S
C388 C390 1.415 . S
C389 C388 1.355 . S
C389 C391 1.419 . S
C390 C388 1.415 . S
C390 C395 1.425 . S
C390 C397 1.409 . S
C391 H383 0.930 . S
C391 C389 1.419 . S
C391 C392 1.362 . S
C392 H384 0.930 . S
C392 C391 1.362 . S
C392 C395 1.409 . S
C393 H385 0.930 . S
C393 C394 1.355 . S
C393 C395 1.415 . S
C394 C393 1.355 . S
C394 C396 1.419 . S
C395 C390 1.425 . S
C395 C392 1.409 . S
C395 C393 1.415 . S
C396 H386 0.930 . S
C396 C394 1.419 . S
C396 C397 1.362 . S
C397 H387 0.930 . S
C397 C390 1.409 . S
C397 C396 1.362 . S
H398 C404 0.930 . S
H399 C407 0.930 . S
H400 C408 0.930 . S
H401 C409 0.930 . S
H402 C412 0.930 . S
H403 C413 0.930 . S
C404 H398 0.930 . S
C404 C405 1.355 . S
C404 C406 1.415 . S
C405 C404 1.355 . S
C405 C407 1.419 . S
C406 C404 1.415 . S
C406 C411 1.425 . S
C406 C413 1.409 . S
C407 H399 0.930 . S
C407 C405 1.419 . S
C407 C408 1.362 . S
C408 H400 0.930 . S
C408 C407 1.362 . S
C408 C411 1.409 . S
C409 H401 0.930 . S
C409 C410 1.355 . S
C409 C411 1.415 . S
C410 C409 1.355 . S
C410 C412 1.419 . S
C411 C406 1.425 . S
C411 C408 1.409 . S
C411 C409 1.415 . S
C412 H402 0.930 . S
C412 C410 1.419 . S
C412 C413 1.362 . S
C413 H403 0.930 . S
C413 C406 1.409 . S
C413 C412 1.362 . S
C133 C17 1.690 1_565 S
C138 C118 1.590 . S
C149 C35 1.691 . S
C154 C16 1.576 . S
C165 C59 1.673 1_455 S
C170 C34 1.617 . S
C181 C58 1.619 . S
C186 C77 1.647 1_545 S
C197 C76 1.593 . S
C202 C101 1.689 . S
C213 C119 1.672 1_655 S
C218 C100 1.617 . S
C229 C15 1.255 . S
C234 C79 1.094 . S
C245 C39 1.234 . S
C250 C97 0.970 . S
C261 C121 1.081 . S
C266 C57 1.249 . S
C277 C81 1.298 . S
C282 C13 1.059 . S
C293 C37 1.049 . S
C298 C99 1.295 . S
C309 C123 1.270 1_554 S
C314 C55 1.121 . S
C325 C14 1.178 . S
C330 C102 1.234 . S
C341 C120 1.137 . S
C346 C38 1.114 . S
C357 C18 1.170 . S
C362 C56 1.173 . S
C373 C80 1.165 . S
C378 C36 1.164 . S
C389 C60 1.240 . S
C394 C98 1.194 . S
C405 C78 1.155 . S
C410 C122 1.153 . S
