# Generated by pormake.
# Topology unl, (4)-cn, num edge types: 1
# Building blocks:
#     Node 0, Type 0, BuildingBlock: UXUYUI_clean_sbu_0, # of connection points: 4
#     Node 1, Type 0, BuildingBlock: UXUYUI_clean_sbu_0, # of connection points: 4
#     Node 2, Type 0, BuildingBlock: UXUYUI_clean_sbu_0, # of connection points: 4
#     Node 3, Type 0, BuildingBlock: UXUYUI_clean_sbu_0, # of connection points: 4
#     Node 4, Type 0, BuildingBlock: UXUYUI_clean_sbu_0, # of connection points: 4
#     Node 5, Type 0, BuildingBlock: UXUYUI_clean_sbu_0, # of connection points: 4
#     Node 6, Type 0, BuildingBlock: UXUYUI_clean_sbu_0, # of connection points: 4
#     Node 7, Type 0, BuildingBlock: UXUYUI_clean_sbu_0, # of connection points: 4
#     Node 8, Type 0, BuildingBlock: UXUYUI_clean_sbu_0, # of connection points: 4
#     Node 9, Type 0, BuildingBlock: UXUYUI_clean_sbu_0, # of connection points: 4
#     Node 10, Type 0, BuildingBlock: UXUYUI_clean_sbu_0, # of connection points: 4
#     Node 11, Type 0, BuildingBlock: UXUYUI_clean_sbu_0, # of connection points: 4
#     Node 12, Type 0, BuildingBlock: UXUYUI_clean_sbu_0, # of connection points: 4
#     Node 13, Type 0, BuildingBlock: UXUYUI_clean_sbu_0, # of connection points: 4
#     Node 14, Type 0, BuildingBlock: UXUYUI_clean_sbu_0, # of connection points: 4
#     Node 15, Type 0, BuildingBlock: UXUYUI_clean_sbu_0, # of connection points: 4
#     Node 16, Type 0, BuildingBlock: UXUYUI_clean_sbu_0, # of connection points: 4
#     Node 17, Type 0, BuildingBlock: UXUYUI_clean_sbu_0, # of connection points: 4
#     Node 18, Type 0, BuildingBlock: UXUYUI_clean_sbu_0, # of connection points: 4
#     Node 19, Type 0, BuildingBlock: UXUYUI_clean_sbu_0, # of connection points: 4
#     Node 20, Type 0, BuildingBlock: UXUYUI_clean_sbu_0, # of connection points: 4
#     Node 21, Type 0, BuildingBlock: UXUYUI_clean_sbu_0, # of connection points: 4
#     Node 22, Type 0, BuildingBlock: UXUYUI_clean_sbu_0, # of connection points: 4
#     Node 23, Type 0, BuildingBlock: UXUYUI_clean_sbu_0, # of connection points: 4
#     Node 24, Type 0, BuildingBlock: UXUYUI_clean_sbu_0, # of connection points: 4
#     Node 25, Type 0, BuildingBlock: UXUYUI_clean_sbu_0, # of connection points: 4
#     Node 26, Type 0, BuildingBlock: UXUYUI_clean_sbu_0, # of connection points: 4
#     Node 27, Type 0, BuildingBlock: UXUYUI_clean_sbu_0, # of connection points: 4
#     Node 28, Type 0, BuildingBlock: UXUYUI_clean_sbu_0, # of connection points: 4
#     Node 29, Type 0, BuildingBlock: UXUYUI_clean_sbu_0, # of connection points: 4
#     Node 30, Type 0, BuildingBlock: UXUYUI_clean_sbu_0, # of connection points: 4
#     Node 31, Type 0, BuildingBlock: UXUYUI_clean_sbu_0, # of connection points: 4
#     Node 32, Type 0, BuildingBlock: UXUYUI_clean_sbu_0, # of connection points: 4
#     Node 33, Type 0, BuildingBlock: UXUYUI_clean_sbu_0, # of connection points: 4
#     Node 34, Type 0, BuildingBlock: UXUYUI_clean_sbu_0, # of connection points: 4
#     Node 35, Type 0, BuildingBlock: UXUYUI_clean_sbu_0, # of connection points: 4
#     Edge 36, Type (0, 0), BuildingBlock: XUDNAN_clean_linker_2, # of connection points: 2
#     Edge 37, Type (0, 0), BuildingBlock: XUDNAN_clean_linker_2, # of connection points: 2
#     Edge 38, Type (0, 0), BuildingBlock: XUDNAN_clean_linker_2, # of connection points: 2
#     Edge 39, Type (0, 0), BuildingBlock: XUDNAN_clean_linker_2, # of connection points: 2
#     Edge 40, Type (0, 0), BuildingBlock: XUDNAN_clean_linker_2, # of connection points: 2
#     Edge 41, Type (0, 0), BuildingBlock: XUDNAN_clean_linker_2, # of connection points: 2
#     Edge 42, Type (0, 0), BuildingBlock: XUDNAN_clean_linker_2, # of connection points: 2
#     Edge 43, Type (0, 0), BuildingBlock: XUDNAN_clean_linker_2, # of connection points: 2
#     Edge 44, Type (0, 0), BuildingBlock: XUDNAN_clean_linker_2, # of connection points: 2
#     Edge 45, Type (0, 0), BuildingBlock: XUDNAN_clean_linker_2, # of connection points: 2
#     Edge 46, Type (0, 0), BuildingBlock: XUDNAN_clean_linker_2, # of connection points: 2
#     Edge 47, Type (0, 0), BuildingBlock: XUDNAN_clean_linker_2, # of connection points: 2
#     Edge 48, Type (0, 0), BuildingBlock: XUDNAN_clean_linker_2, # of connection points: 2
#     Edge 49, Type (0, 0), BuildingBlock: XUDNAN_clean_linker_2, # of connection points: 2
#     Edge 50, Type (0, 0), BuildingBlock: XUDNAN_clean_linker_2, # of connection points: 2
#     Edge 51, Type (0, 0), BuildingBlock: XUDNAN_clean_linker_2, # of connection points: 2
#     Edge 52, Type (0, 0), BuildingBlock: XUDNAN_clean_linker_2, # of connection points: 2
#     Edge 53, Type (0, 0), BuildingBlock: XUDNAN_clean_linker_2, # of connection points: 2
#     Edge 54, Type (0, 0), BuildingBlock: XUDNAN_clean_linker_2, # of connection points: 2
#     Edge 55, Type (0, 0), BuildingBlock: XUDNAN_clean_linker_2, # of connection points: 2
#     Edge 56, Type (0, 0), BuildingBlock: XUDNAN_clean_linker_2, # of connection points: 2
#     Edge 57, Type (0, 0), BuildingBlock: XUDNAN_clean_linker_2, # of connection points: 2
#     Edge 58, Type (0, 0), BuildingBlock: XUDNAN_clean_linker_2, # of connection points: 2
#     Edge 59, Type (0, 0), BuildingBlock: XUDNAN_clean_linker_2, # of connection points: 2
#     Edge 60, Type (0, 0), BuildingBlock: XUDNAN_clean_linker_2, # of connection points: 2
#     Edge 61, Type (0, 0), BuildingBlock: XUDNAN_clean_linker_2, # of connection points: 2
#     Edge 62, Type (0, 0), BuildingBlock: XUDNAN_clean_linker_2, # of connection points: 2
#     Edge 63, Type (0, 0), BuildingBlock: XUDNAN_clean_linker_2, # of connection points: 2
#     Edge 64, Type (0, 0), BuildingBlock: XUDNAN_clean_linker_2, # of connection points: 2
#     Edge 65, Type (0, 0), BuildingBlock: XUDNAN_clean_linker_2, # of connection points: 2
#     Edge 66, Type (0, 0), BuildingBlock: XUDNAN_clean_linker_2, # of connection points: 2
#     Edge 67, Type (0, 0), BuildingBlock: XUDNAN_clean_linker_2, # of connection points: 2
#     Edge 68, Type (0, 0), BuildingBlock: XUDNAN_clean_linker_2, # of connection points: 2
#     Edge 69, Type (0, 0), BuildingBlock: XUDNAN_clean_linker_2, # of connection points: 2
#     Edge 70, Type (0, 0), BuildingBlock: XUDNAN_clean_linker_2, # of connection points: 2
#     Edge 71, Type (0, 0), BuildingBlock: XUDNAN_clean_linker_2, # of connection points: 2
#     Edge 72, Type (0, 0), BuildingBlock: XUDNAN_clean_linker_2, # of connection points: 2
#     Edge 73, Type (0, 0), BuildingBlock: XUDNAN_clean_linker_2, # of connection points: 2
#     Edge 74, Type (0, 0), BuildingBlock: XUDNAN_clean_linker_2, # of connection points: 2
#     Edge 75, Type (0, 0), BuildingBlock: XUDNAN_clean_linker_2, # of connection points: 2
#     Edge 76, Type (0, 0), BuildingBlock: XUDNAN_clean_linker_2, # of connection points: 2
#     Edge 77, Type (0, 0), BuildingBlock: XUDNAN_clean_linker_2, # of connection points: 2
#     Edge 78, Type (0, 0), BuildingBlock: XUDNAN_clean_linker_2, # of connection points: 2
#     Edge 79, Type (0, 0), BuildingBlock: XUDNAN_clean_linker_2, # of connection points: 2
#     Edge 80, Type (0, 0), BuildingBlock: XUDNAN_clean_linker_2, # of connection points: 2
#     Edge 81, Type (0, 0), BuildingBlock: XUDNAN_clean_linker_2, # of connection points: 2
#     Edge 82, Type (0, 0), BuildingBlock: XUDNAN_clean_linker_2, # of connection points: 2
#     Edge 83, Type (0, 0), BuildingBlock: XUDNAN_clean_linker_2, # of connection points: 2
#     Edge 84, Type (0, 0), BuildingBlock: XUDNAN_clean_linker_2, # of connection points: 2
#     Edge 85, Type (0, 0), BuildingBlock: XUDNAN_clean_linker_2, # of connection points: 2
#     Edge 86, Type (0, 0), BuildingBlock: XUDNAN_clean_linker_2, # of connection points: 2
#     Edge 87, Type (0, 0), BuildingBlock: XUDNAN_clean_linker_2, # of connection points: 2
#     Edge 88, Type (0, 0), BuildingBlock: XUDNAN_clean_linker_2, # of connection points: 2
#     Edge 89, Type (0, 0), BuildingBlock: XUDNAN_clean_linker_2, # of connection points: 2
#     Edge 90, Type (0, 0), BuildingBlock: XUDNAN_clean_linker_2, # of connection points: 2
#     Edge 91, Type (0, 0), BuildingBlock: XUDNAN_clean_linker_2, # of connection points: 2
#     Edge 92, Type (0, 0), BuildingBlock: XUDNAN_clean_linker_2, # of connection points: 2
#     Edge 93, Type (0, 0), BuildingBlock: XUDNAN_clean_linker_2, # of connection points: 2
#     Edge 94, Type (0, 0), BuildingBlock: XUDNAN_clean_linker_2, # of connection points: 2
#     Edge 95, Type (0, 0), BuildingBlock: XUDNAN_clean_linker_2, # of connection points: 2
#     Edge 96, Type (0, 0), BuildingBlock: XUDNAN_clean_linker_2, # of connection points: 2
#     Edge 97, Type (0, 0), BuildingBlock: XUDNAN_clean_linker_2, # of connection points: 2
#     Edge 98, Type (0, 0), BuildingBlock: XUDNAN_clean_linker_2, # of connection points: 2
#     Edge 99, Type (0, 0), BuildingBlock: XUDNAN_clean_linker_2, # of connection points: 2
#     Edge 100, Type (0, 0), BuildingBlock: XUDNAN_clean_linker_2, # of connection points: 2
#     Edge 101, Type (0, 0), BuildingBlock: XUDNAN_clean_linker_2, # of connection points: 2
#     Edge 102, Type (0, 0), BuildingBlock: XUDNAN_clean_linker_2, # of connection points: 2
#     Edge 103, Type (0, 0), BuildingBlock: XUDNAN_clean_linker_2, # of connection points: 2
#     Edge 104, Type (0, 0), BuildingBlock: XUDNAN_clean_linker_2, # of connection points: 2
#     Edge 105, Type (0, 0), BuildingBlock: XUDNAN_clean_linker_2, # of connection points: 2
#     Edge 106, Type (0, 0), BuildingBlock: XUDNAN_clean_linker_2, # of connection points: 2
#     Edge 107, Type (0, 0), BuildingBlock: XUDNAN_clean_linker_2, # of connection points: 2
# Relax obj value: 0.279
# Max RMSD: 0.258
# Mean RMSD: 0.258
data_MOF--net-unl--node1-UXUYUI_clean_sbu_0--edge1-XUDNAN_clean_linker_2
_symmetry_space_group_name_H-M    P1
_symmetry_Int_Tables_number       1
_symmetry_cell_setting            triclinic
loop_
_symmetry_equiv_pos_as_xyz
'x, y, z'
_cell_length_a     94.582314
_cell_length_b     94.57185
_cell_length_c     56.790539
_cell_angle_alpha  89.99893
_cell_angle_beta   90.00213
_cell_angle_gamma 120.00349
loop_
_atom_site_label
_atom_site_type_symbol
_atom_site_fract_x
_atom_site_fract_y
_atom_site_fract_z
_atom_type_partial_charge
Li0 Li 0.19766 0.09178 0.10933 0.0
Li1 Li 0.22168 0.11837 0.11914 0.0
Li2 Li 0.19336 0.1109 0.13252 0.0
Li3 Li 0.20121 0.11782 0.09135 0.0
C4 C 0.20671 0.08846 0.15383 0.0
N5 N 0.20664 0.06347 0.17911 0.0
C6 C 0.22136 0.0887 0.1583 0.0
C7 C 0.19206 0.07564 0.1625 0.0
C8 C 0.22106 0.07592 0.17105 0.0
C9 C 0.19226 0.06308 0.17515 0.0
C10 C 0.22647 0.10997 0.07172 0.0
C11 C 0.24708 0.12726 0.04371 0.0
N12 N 0.24995 0.11485 0.0387 0.0
C13 C 0.22948 0.09733 0.06609 0.0
C14 C 0.23523 0.12501 0.06028 0.0
C15 C 0.24145 0.10006 0.04943 0.0
C16 C 0.17796 0.06231 0.08644 0.0
N17 N 0.19087 0.06976 0.10137 0.0
C18 C 0.19575 0.04735 0.09837 0.0
C19 C 0.19969 0.06258 0.10757 0.0
C20 C 0.18286 0.03961 0.08215 0.0
C21 C 0.17373 0.04719 0.07658 0.0
H22 H 0.17144 0.06849 0.08129 0.0
H23 H 0.21026 0.06897 0.11875 0.0
C24 C 0.25138 0.14238 0.14025 0.0
N25 N 0.24434 0.12888 0.12629 0.0
C26 C 0.26824 0.15061 0.14419 0.0
C27 C 0.27013 0.13072 0.11965 0.0
C28 C 0.25327 0.12272 0.11661 0.0
C29 C 0.27776 0.1449 0.13338 0.0
H30 H 0.24394 0.1469 0.14797 0.0
H31 H 0.24733 0.11162 0.10643 0.0
C32 C 0.16516 0.09283 0.10836 0.0
N33 N 0.13252 0.08121 0.11773 0.0
C34 C 0.15724 0.10063 0.09878 0.0
C35 C 0.15642 0.07897 0.12238 0.0
C36 C 0.14075 0.09461 0.10381 0.0
C37 C 0.13994 0.07333 0.12701 0.0
C38 C 0.21771 0.14824 0.11428 0.0
C39 C 0.20992 0.15681 0.12129 0.0
C40 C 0.2326 0.15645 0.10234 0.0
C41 C 0.21699 0.17337 0.11576 0.0
C42 C 0.23929 0.17302 0.09716 0.0
N43 N 0.2314 0.18106 0.10389 0.0
C44 C 0.18071 0.108 0.17893 0.0
C45 C 0.17211 0.1207 0.1509 0.0
C46 C 0.17172 0.11026 0.19658 0.0
N47 N 0.18074 0.11325 0.15664 0.0
C48 C 0.1629 0.12312 0.16791 0.0
C49 C 0.16272 0.118 0.19119 0.0
H50 H 0.18786 0.1023 0.18309 0.0
H51 H 0.17249 0.1249 0.1331 0.0
C52 C 0.19848 0.12001 0.04254 0.0
N53 N 0.19749 0.12649 0.06342 0.0
C54 C 0.19429 0.12472 0.02161 0.0
C55 C 0.18807 0.14266 0.04402 0.0
C56 C 0.19248 0.13767 0.06452 0.0
C57 C 0.18872 0.13598 0.0222 0.0
H58 H 0.20205 0.1108 0.04221 0.0
H59 H 0.1912 0.14217 0.0814 0.0
O60 O 0.20678 0.10087 0.14139 0.0
O61 O 0.21482 0.1075 0.08809 0.0
O62 O 0.18133 0.09863 0.1038 0.0
O63 O 0.21096 0.13201 0.11961 0.0
H64 H 0.23283 0.0986 0.15191 0.0
H65 H 0.18065 0.0754 0.15952 0.0
H66 H 0.23229 0.07589 0.17453 0.0
H67 H 0.181 0.05303 0.18187 0.0
H68 H 0.25396 0.13885 0.03475 0.0
H69 H 0.22274 0.08557 0.07463 0.0
H70 H 0.23274 0.13477 0.06386 0.0
H71 H 0.24399 0.09042 0.04503 0.0
H72 H 0.20306 0.04196 0.10338 0.0
H73 H 0.16394 0.04197 0.06379 0.0
H74 H 0.27382 0.16151 0.15497 0.0
H75 H 0.27715 0.12587 0.11142 0.0
H76 H 0.1638 0.1113 0.08774 0.0
H77 H 0.1623 0.07263 0.12955 0.0
H78 H 0.13449 0.1006 0.09667 0.0
H79 H 0.13305 0.06266 0.13794 0.0
H80 H 0.19851 0.15073 0.13082 0.0
H81 H 0.23903 0.15016 0.09735 0.0
H82 H 0.21103 0.18011 0.12095 0.0
H83 H 0.25079 0.1795 0.08789 0.0
H84 H 0.17216 0.10635 0.21435 0.0
H85 H 0.156 0.12895 0.16284 0.0
H86 H 0.19506 0.11931 0.00519 0.0
H87 H 0.18348 0.15107 0.04542 0.0
Li88 Li 0.87706 0.10109 0.12305 0.0
Li89 Li 0.90301 0.10568 0.11215 0.0
Li90 Li 0.8787 0.08136 0.09892 0.0
Li91 Li 0.88788 0.08392 0.14108 0.0
C92 C 0.88021 0.11376 0.08176 0.0
N93 N 0.86817 0.1332 0.06527 0.0
C94 C 0.88989 0.13077 0.08253 0.0
C95 C 0.86444 0.10666 0.07243 0.0
C96 C 0.88358 0.14038 0.07412 0.0
C97 C 0.85856 0.11668 0.06426 0.0
C98 C 0.91049 0.12018 0.15354 0.0
C99 C 0.93365 0.12966 0.17955 0.0
N100 N 0.93958 0.14508 0.17117 0.0
C101 C 0.91679 0.13614 0.14527 0.0
C102 C 0.91896 0.11691 0.17087 0.0
C103 C 0.93153 0.14855 0.15436 0.0
C104 C 0.84762 0.10082 0.13284 0.0
N105 N 0.86399 0.11073 0.13025 0.0
C106 C 0.86155 0.13432 0.13748 0.0
C107 C 0.87108 0.12718 0.13278 0.0
C108 C 0.84456 0.12441 0.1401 0.0
C109 C 0.83764 0.10741 0.13784 0.0
H110 H 0.8423 0.08776 0.13118 0.0
H111 H 0.88412 0.13481 0.13086 0.0
C112 C 0.92664 0.12675 0.07964 0.0
N113 N 0.92485 0.12036 0.10161 0.0
C114 C 0.94203 0.13519 0.06922 0.0
C115 C 0.95356 0.13045 0.10425 0.0
C116 C 0.93795 0.12219 0.11407 0.0
C117 C 0.95569 0.1368 0.08135 0.0
H118 H 0.91601 0.12449 0.06962 0.0
H119 H 0.93619 0.11646 0.13109 0.0
C120 C 0.85228 0.0621 0.12317 0.0
N121 N 0.82596 0.0319 0.11198 0.0
C122 C 0.84985 0.04811 0.13504 0.0
C123 C 0.84116 0.06074 0.10585 0.0
C124 C 0.83651 0.03295 0.12908 0.0
C125 C 0.82799 0.04537 0.10036 0.0
C126 C 0.9116 0.08302 0.10213 0.0
C127 C 0.91367 0.0849 0.07774 0.0
C128 C 0.92327 0.0819 0.11585 0.0
C129 C 0.92751 0.08578 0.06748 0.0
C130 C 0.93694 0.08281 0.10491 0.0
N131 N 0.93876 0.08474 0.08116 0.0
C132 C 0.86781 0.06885 0.05234 0.0
C133 C 0.87027 0.05134 0.07988 0.0
C134 C 0.86465 0.05764 0.0342 0.0
N135 N 0.87071 0.06555 0.07456 0.0
C136 C 0.86725 0.03988 0.06235 0.0
C137 C 0.86479 0.04315 0.03907 0.0
H138 H 0.86873 0.08047 0.04847 0.0
H139 H 0.87296 0.04924 0.09763 0.0
C140 C 0.88566 0.07468 0.18925 0.0
N141 N 0.88829 0.07143 0.16687 0.0
C142 C 0.88433 0.06425 0.20764 0.0
C143 C 0.88838 0.04739 0.17952 0.0
C144 C 0.88991 0.05826 0.16177 0.0
C145 C 0.88538 0.05025 0.20274 0.0
H146 H 0.8842 0.08513 0.19268 0.0
H147 H 0.89174 0.05587 0.14373 0.0
O148 O 0.88608 0.10413 0.09024 0.0
O149 O 0.89607 0.10785 0.14486 0.0
O150 O 0.86542 0.07703 0.12851 0.0
O151 O 0.89841 0.08265 0.1126 0.0
H152 H 0.90207 0.13653 0.08987 0.0
H153 H 0.85678 0.09355 0.07159 0.0
H154 H 0.89091 0.15355 0.07476 0.0
H155 H 0.84635 0.11133 0.05712 0.0
H156 H 0.94036 0.12729 0.1929 0.0
H157 H 0.91052 0.13889 0.1317 0.0
H158 H 0.91435 0.10464 0.17739 0.0
H159 H 0.93659 0.16093 0.14799 0.0
H160 H 0.86745 0.14748 0.13875 0.0
H161 H 0.82467 0.09922 0.1402 0.0
H162 H 0.94307 0.13955 0.05131 0.0
H163 H 0.96378 0.13138 0.11415 0.0
H164 H 0.85812 0.0489 0.14874 0.0
H165 H 0.84275 0.07142 0.09661 0.0
H166 H 0.83453 0.02203 0.13807 0.0
H167 H 0.81937 0.04415 0.08687 0.0
H168 H 0.90482 0.08594 0.06691 0.0
H169 H 0.9219 0.08058 0.13478 0.0
H170 H 0.92934 0.08736 0.04865 0.0
H171 H 0.94613 0.08207 0.11531 0.0
H172 H 0.86297 0.06065 0.0164 0.0
H173 H 0.8673 0.02878 0.06685 0.0
H174 H 0.88184 0.06674 0.22531 0.0
H175 H 0.88929 0.03673 0.17511 0.0
Li176 Li 0.91185 0.79325 0.09234 0.0
Li177 Li 0.91423 0.80463 0.13075 0.0
Li178 Li 0.89305 0.77588 0.12235 0.0
Li179 Li 0.8913 0.79936 0.10513 0.0
C180 C 0.92583 0.77815 0.12113 0.0
N181 N 0.94373 0.76233 0.11942 0.0
C182 C 0.9426 0.78672 0.12576 0.0
C183 C 0.91815 0.76148 0.11591 0.0
C184 C 0.95144 0.77852 0.12471 0.0
C185 C 0.92742 0.75372 0.11506 0.0
C186 C 0.92983 0.82789 0.096 0.0
C187 C 0.94746 0.85612 0.08545 0.0
N188 N 0.96065 0.85409 0.08776 0.0
C189 C 0.94355 0.82609 0.09829 0.0
C190 C 0.93177 0.84301 0.08954 0.0
C191 C 0.95903 0.83947 0.09403 0.0
C192 C 0.92469 0.80498 0.04768 0.0
N193 N 0.92406 0.79446 0.06453 0.0
C194 C 0.94243 0.78915 0.04243 0.0
C195 C 0.93236 0.78626 0.06194 0.0
C196 C 0.94383 0.80045 0.02519 0.0
C197 C 0.93444 0.8081 0.02776 0.0
H198 H 0.91784 0.81123 0.04999 0.0
H199 H 0.93157 0.77776 0.07515 0.0
C200 C 0.93538 0.81115 0.16832 0.0
N201 N 0.9291 0.81824 0.15424 0.0
C202 C 0.94756 0.82046 0.18457 0.0
C203 C 0.94595 0.84413 0.17256 0.0
C204 C 0.93398 0.83437 0.15616 0.0
C205 C 0.95314 0.83726 0.18683 0.0
H206 H 0.93121 0.79827 0.16647 0.0
H207 H 0.92879 0.83973 0.14473 0.0
C208 C 0.88651 0.77281 0.0677 0.0
N209 N 0.88542 0.76109 0.02279 0.0
C210 C 0.88427 0.78057 0.0483 0.0
C211 C 0.88799 0.75897 0.0643 0.0
C212 C 0.8838 0.77448 0.02572 0.0
C213 C 0.88747 0.75327 0.04145 0.0
C214 C 0.88763 0.80288 0.154 0.0
C215 C 0.87971 0.79664 0.17546 0.0
C216 C 0.89261 0.81902 0.14786 0.0
C217 C 0.87688 0.80668 0.19046 0.0
C218 C 0.88956 0.82867 0.16334 0.0
N219 N 0.88182 0.82235 0.18414 0.0
C220 C 0.88638 0.75152 0.15574 0.0
C221 C 0.86659 0.74367 0.12545 0.0
C222 C 0.87755 0.7362 0.16627 0.0
N223 N 0.88079 0.7549 0.1357 0.0
C224 C 0.85731 0.72821 0.13547 0.0
C225 C 0.86275 0.7243 0.1562 0.0
H226 H 0.89775 0.76075 0.16344 0.0
H227 H 0.86243 0.7468 0.10958 0.0
C228 C 0.88123 0.81651 0.07635 0.0
N229 N 0.87672 0.80635 0.09521 0.0
C230 C 0.87054 0.82116 0.06698 0.0
C231 C 0.85097 0.80527 0.0972 0.0
C232 C 0.86199 0.80076 0.10582 0.0
C233 C 0.8551 0.81545 0.07731 0.0
H234 H 0.89299 0.82061 0.06818 0.0
H235 H 0.85874 0.79264 0.12078 0.0
O236 O 0.91693 0.78593 0.12243 0.0
O237 O 0.91454 0.815 0.10022 0.0
O238 O 0.88745 0.77885 0.08988 0.0
O239 O 0.89053 0.7932 0.13921 0.0
H240 H 0.94876 0.79956 0.13019 0.0
H241 H 0.90521 0.75459 0.1124 0.0
H242 H 0.96443 0.78502 0.12817 0.0
H243 H 0.92163 0.74085 0.11093 0.0
H244 H 0.94914 0.8679 0.08045 0.0
H245 H 0.94225 0.81448 0.10319 0.0
H246 H 0.92125 0.8446 0.08778 0.0
H247 H 0.96975 0.83823 0.09571 0.0
H248 H 0.94951 0.78305 0.04144 0.0
H249 H 0.9348 0.81662 0.01472 0.0
H250 H 0.95285 0.81457 0.1947 0.0
H251 H 0.94958 0.85692 0.17386 0.0
H252 H 0.88308 0.79127 0.05062 0.0
H253 H 0.88958 0.75274 0.07913 0.0
H254 H 0.8822 0.78044 0.01053 0.0
H255 H 0.88869 0.74263 0.03855 0.0
H256 H 0.87581 0.78417 0.18046 0.0
H257 H 0.8988 0.82408 0.13136 0.0
H258 H 0.87077 0.80202 0.20713 0.0
H259 H 0.89336 0.84118 0.15882 0.0
H260 H 0.88237 0.73366 0.18201 0.0
H261 H 0.84588 0.71952 0.12727 0.0
H262 H 0.87419 0.82873 0.05136 0.0
H263 H 0.83932 0.80074 0.10595 0.0
Li264 Li 0.09365 0.19819 0.39016 0.0
Li265 Li 0.11889 0.22222 0.37671 0.0
Li266 Li 0.11179 0.19493 0.36348 0.0
Li267 Li 0.12052 0.20268 0.40366 0.0
C268 C 0.08713 0.198 0.34193 0.0
N269 N 0.06191 0.18005 0.31087 0.0
C270 C 0.08539 0.20531 0.3216 0.0
C271 C 0.07605 0.18155 0.34646 0.0
C272 C 0.07256 0.19603 0.30611 0.0
C273 C 0.06338 0.17268 0.33055 0.0
C274 C 0.10978 0.22483 0.42753 0.0
C275 C 0.12118 0.23994 0.46345 0.0
N276 N 0.1082 0.24234 0.46544 0.0
C277 C 0.09652 0.2274 0.43 0.0
C278 C 0.12219 0.2311 0.44445 0.0
C279 C 0.09597 0.2363 0.44925 0.0
C280 C 0.06792 0.18255 0.42156 0.0
N281 N 0.07221 0.19111 0.40109 0.0
C282 C 0.04684 0.1909 0.39986 0.0
C283 C 0.06207 0.19534 0.39011 0.0
C284 C 0.04222 0.18231 0.42126 0.0
C285 C 0.05292 0.17802 0.43204 0.0
H286 H 0.07635 0.17953 0.42996 0.0
H287 H 0.06596 0.20248 0.37411 0.0
C288 C 0.14138 0.25254 0.35503 0.0
N289 N 0.12823 0.24482 0.36954 0.0
C290 C 0.14921 0.26948 0.3522 0.0
C291 C 0.12934 0.27003 0.37839 0.0
C292 C 0.12187 0.25312 0.38058 0.0
C293 C 0.14339 0.27845 0.36446 0.0
H294 H 0.1461 0.24561 0.34624 0.0
H295 H 0.11115 0.24666 0.39144 0.0
C296 C 0.10437 0.16952 0.39511 0.0
N297 N 0.11062 0.14413 0.40047 0.0
C298 C 0.11979 0.17179 0.38968 0.0
C299 C 0.09214 0.15436 0.4033 0.0
C300 C 0.1227 0.15879 0.3925 0.0
C301 C 0.09554 0.14167 0.40589 0.0
C302 C 0.14945 0.22373 0.37928 0.0
C303 C 0.16201 0.2227 0.3679 0.0
C304 C 0.1533 0.23607 0.39583 0.0
C305 C 0.17823 0.23406 0.37328 0.0
C306 C 0.16966 0.24721 0.4007 0.0
N307 N 0.18168 0.24598 0.38943 0.0
C308 C 0.12674 0.18952 0.32458 0.0
C309 C 0.10166 0.1664 0.33565 0.0
C310 C 0.12957 0.18026 0.3081 0.0
N311 N 0.11313 0.18242 0.33823 0.0
C312 C 0.10393 0.1567 0.31928 0.0
C313 C 0.11822 0.16352 0.30557 0.0
H314 H 0.1357 0.20225 0.32712 0.0
H315 H 0.09102 0.16098 0.3469 0.0
C316 C 0.12156 0.19383 0.45014 0.0
N317 N 0.13088 0.1997 0.43045 0.0
C318 C 0.12786 0.19061 0.47036 0.0
C319 C 0.15333 0.1997 0.44973 0.0
C320 C 0.14646 0.20252 0.42982 0.0
C321 C 0.14396 0.19357 0.47027 0.0
H322 H 0.10913 0.19151 0.45001 0.0
H323 H 0.15349 0.20662 0.41381 0.0
O324 O 0.09969 0.20697 0.35718 0.0
O325 O 0.11042 0.21592 0.40895 0.0
O326 O 0.10115 0.18202 0.39248 0.0
O327 O 0.13353 0.21259 0.37426 0.0
H328 H 0.09389 0.21804 0.31784 0.0
H329 H 0.07716 0.17567 0.36212 0.0
H330 H 0.07106 0.20154 0.29031 0.0
H331 H 0.05471 0.15995 0.33385 0.0
H332 H 0.13071 0.24486 0.47664 0.0
H333 H 0.08685 0.22274 0.41706 0.0
H334 H 0.13249 0.22915 0.44304 0.0
H335 H 0.08581 0.23842 0.45131 0.0
H336 H 0.03899 0.19456 0.39117 0.0
H337 H 0.04973 0.17127 0.44844 0.0
H338 H 0.16002 0.27555 0.34127 0.0
H339 H 0.12425 0.27646 0.38769 0.0
H340 H 0.1294 0.18342 0.38329 0.0
H341 H 0.08015 0.15243 0.40758 0.0
H342 H 0.13456 0.16037 0.38833 0.0
H343 H 0.08619 0.12986 0.4122 0.0
H344 H 0.15926 0.21316 0.35515 0.0
H345 H 0.14377 0.23712 0.40466 0.0
H346 H 0.18807 0.23339 0.36464 0.0
H347 H 0.17279 0.25684 0.41343 0.0
H348 H 0.14086 0.18602 0.2982 0.0
H349 H 0.09474 0.14393 0.31772 0.0
H350 H 0.12026 0.18583 0.48588 0.0
H351 H 0.16567 0.20178 0.44884 0.0
Li352 Li 0.80611 0.91813 0.36478 0.0
Li353 Li 0.7948 0.91834 0.40277 0.0
Li354 Li 0.79944 0.89617 0.39217 0.0
Li355 Li 0.77806 0.89871 0.37371 0.0
C356 C 0.82855 0.93452 0.40193 0.0
N357 N 0.85403 0.96499 0.41397 0.0
C358 C 0.82913 0.9486 0.3931 0.0
C359 C 0.8409 0.93593 0.41692 0.0
C360 C 0.84212 0.96389 0.39938 0.0
C361 C 0.85369 0.95145 0.42279 0.0
C362 C 0.77662 0.92718 0.37438 0.0
C363 C 0.75354 0.92538 0.39519 0.0
N364 N 0.75293 0.93592 0.37948 0.0
C365 C 0.77579 0.93801 0.35848 0.0
C366 C 0.76543 0.92083 0.39293 0.0
C367 C 0.76372 0.94227 0.36134 0.0
C368 C 0.81379 0.93714 0.32426 0.0
N369 N 0.82054 0.93211 0.34102 0.0
C370 C 0.84739 0.9511 0.32741 0.0
C371 C 0.83697 0.93841 0.3424 0.0
C372 C 0.84078 0.95717 0.31076 0.0
C373 C 0.82373 0.94968 0.30879 0.0
H374 H 0.80068 0.93192 0.32366 0.0
H375 H 0.84205 0.93421 0.35592 0.0
C376 C 0.79496 0.92584 0.45051 0.0
N377 N 0.79609 0.93179 0.42838 0.0
C378 C 0.79791 0.93596 0.47 0.0
C379 C 0.80286 0.95798 0.44346 0.0
C380 C 0.79957 0.94739 0.42453 0.0
C381 C 0.80233 0.95234 0.46648 0.0
H382 H 0.79234 0.91342 0.45296 0.0
H383 H 0.80041 0.9518 0.40674 0.0
C384 C 0.80438 0.89044 0.34567 0.0
N385 N 0.82488 0.8828 0.32107 0.0
C386 C 0.79869 0.88045 0.32576 0.0
C387 C 0.8205 0.89655 0.35308 0.0
C388 C 0.80924 0.87672 0.31356 0.0
C389 C 0.83067 0.89255 0.3404 0.0
C390 C 0.76948 0.8789 0.41365 0.0
C391 C 0.766 0.86628 0.39773 0.0
C392 C 0.76242 0.87519 0.43604 0.0
C393 C 0.75546 0.85014 0.40451 0.0
C394 C 0.75194 0.85888 0.44214 0.0
N395 N 0.7487 0.8468 0.42639 0.0
C396 C 0.80881 0.88514 0.42985 0.0
C397 C 0.8036 0.86783 0.39684 0.0
C398 C 0.81095 0.87446 0.44426 0.0
N399 N 0.80501 0.88158 0.40676 0.0
C400 C 0.80591 0.85687 0.41061 0.0
C401 C 0.80926 0.86001 0.43474 0.0
H402 H 0.80957 0.89605 0.43725 0.0
H403 H 0.80013 0.86507 0.37856 0.0
C404 C 0.75505 0.88603 0.33711 0.0
N405 N 0.75664 0.8875 0.3609 0.0
C406 C 0.73956 0.87836 0.32682 0.0
C407 C 0.72769 0.87374 0.36576 0.0
C408 C 0.74339 0.88163 0.37526 0.0
C409 C 0.72565 0.87208 0.34125 0.0
H410 H 0.76584 0.89094 0.32615 0.0
H411 H 0.74496 0.88323 0.3941 0.0
O412 O 0.8159 0.91938 0.39624 0.0
O413 O 0.78838 0.9229 0.37167 0.0
O414 O 0.7941 0.89414 0.35768 0.0
O415 O 0.77997 0.89481 0.40764 0.0
H416 H 0.81965 0.94775 0.38154 0.0
H417 H 0.84059 0.92514 0.42395 0.0
H418 H 0.84272 0.97488 0.39266 0.0
H419 H 0.86334 0.95273 0.43437 0.0
H420 H 0.74479 0.92054 0.40944 0.0
H421 H 0.78439 0.94309 0.34406 0.0
H422 H 0.76588 0.91248 0.40549 0.0
H423 H 0.76293 0.95064 0.34914 0.0
H424 H 0.86048 0.95644 0.32932 0.0
H425 H 0.81813 0.95408 0.29635 0.0
H426 H 0.79756 0.93126 0.48752 0.0
H427 H 0.80616 0.97054 0.44014 0.0
H428 H 0.78623 0.87562 0.31982 0.0
H429 H 0.82513 0.9042 0.36851 0.0
H430 H 0.80499 0.86899 0.29812 0.0
H431 H 0.84316 0.89717 0.34595 0.0
H432 H 0.77138 0.86888 0.38035 0.0
H433 H 0.76504 0.88481 0.44857 0.0
H434 H 0.75266 0.84026 0.39238 0.0
H435 H 0.74638 0.85583 0.45942 0.0
H436 H 0.81363 0.87732 0.46277 0.0
H437 H 0.8044 0.84575 0.40279 0.0
H438 H 0.73846 0.87724 0.30784 0.0
H439 H 0.71728 0.86928 0.37744 0.0
Li440 Li 0.10365 0.88255 0.37079 0.0
Li441 Li 0.10292 0.90689 0.38436 0.0
Li442 Li 0.08333 0.87991 0.39994 0.0
Li443 Li 0.08101 0.88788 0.36003 0.0
C444 C 0.11112 0.89098 0.42566 0.0
N445 N 0.11771 0.88896 0.47257 0.0
C446 C 0.11305 0.90316 0.44148 0.0
C447 C 0.11271 0.87787 0.43367 0.0
C448 C 0.11633 0.90189 0.46513 0.0
C449 C 0.11599 0.87704 0.45746 0.0
C450 C 0.11663 0.91521 0.34335 0.0
C451 C 0.12599 0.9426 0.32956 0.0
N452 N 0.14157 0.94543 0.32927 0.0
C453 C 0.13271 0.91835 0.3428 0.0
C454 C 0.1132 0.92739 0.33657 0.0
C455 C 0.14516 0.93371 0.33565 0.0
C456 C 0.114 0.86466 0.34225 0.0
N457 N 0.11762 0.8748 0.36105 0.0
C458 C 0.14286 0.87538 0.36698 0.0
C459 C 0.13166 0.88015 0.37345 0.0
C460 C 0.13959 0.86502 0.34753 0.0
C461 C 0.12487 0.85953 0.33519 0.0
H462 H 0.10273 0.86068 0.3327 0.0
H463 H 0.13421 0.88826 0.38825 0.0
C464 C 0.11035 0.93907 0.39547 0.0
N465 N 0.11669 0.92907 0.39286 0.0
C466 C 0.12012 0.95497 0.40373 0.0
C467 C 0.1428 0.95 0.40624 0.0
C468 C 0.13261 0.93423 0.39775 0.0
C469 C 0.13649 0.9605 0.40962 0.0
H470 H 0.0976 0.93456 0.39183 0.0
H471 H 0.13726 0.92591 0.39568 0.0
C472 C 0.07384 0.85082 0.37127 0.0
N473 N 0.06214 0.81757 0.37246 0.0
C474 C 0.0591 0.84008 0.36024 0.0
C475 C 0.08269 0.84466 0.38279 0.0
C476 C 0.05336 0.8233 0.36109 0.0
C477 C 0.07657 0.82782 0.38321 0.0
C478 C 0.06593 0.89917 0.38695 0.0
C479 C 0.05138 0.8886 0.3986 0.0
C480 C 0.06642 0.91098 0.37161 0.0
C481 C 0.03754 0.88997 0.39461 0.0
C482 C 0.05231 0.91193 0.36806 0.0
N483 N 0.03828 0.90149 0.37953 0.0
C484 C 0.07235 0.87897 0.44562 0.0
C485 C 0.06161 0.85256 0.42913 0.0
C486 C 0.06309 0.87246 0.46597 0.0
N487 N 0.07144 0.86903 0.42768 0.0
C488 C 0.05201 0.84552 0.44909 0.0
C489 C 0.05248 0.85553 0.46773 0.0
H490 H 0.07987 0.89205 0.44376 0.0
H491 H 0.06066 0.84485 0.41457 0.0
C492 C 0.07067 0.89231 0.315 0.0
N493 N 0.0656 0.88481 0.33621 0.0
C494 C 0.05926 0.89012 0.29767 0.0
C495 C 0.03768 0.87269 0.3245 0.0
C496 C 0.0495 0.87494 0.34108 0.0
C497 C 0.04246 0.88026 0.30232 0.0
H498 H 0.08357 0.89988 0.31146 0.0
H499 H 0.04583 0.86892 0.35798 0.0
O500 O 0.10781 0.89195 0.40245 0.0
O501 O 0.10434 0.90039 0.35089 0.0
O502 O 0.07963 0.86726 0.37046 0.0
O503 O 0.07959 0.89794 0.39048 0.0
H504 H 0.11177 0.91335 0.43567 0.0
H505 H 0.11148 0.86845 0.42168 0.0
H506 H 0.11774 0.91116 0.47758 0.0
H507 H 0.1172 0.86693 0.4639 0.0
H508 H 0.12353 0.95218 0.32442 0.0
H509 H 0.13558 0.90907 0.34803 0.0
H510 H 0.10082 0.92517 0.33695 0.0
H511 H 0.15768 0.93634 0.33525 0.0
H512 H 0.15394 0.8797 0.3772 0.0
H513 H 0.12195 0.85163 0.31999 0.0
H514 H 0.11472 0.96259 0.40647 0.0
H515 H 0.15537 0.95384 0.4105 0.0
H516 H 0.05214 0.84465 0.35115 0.0
H517 H 0.09411 0.85279 0.39136 0.0
H518 H 0.04194 0.81484 0.35269 0.0
H519 H 0.08327 0.82289 0.3921 0.0
H520 H 0.05069 0.87931 0.4104 0.0
H521 H 0.07751 0.91915 0.36226 0.0
H522 H 0.02619 0.88182 0.40344 0.0
H523 H 0.05249 0.92092 0.3561 0.0
H524 H 0.06396 0.88065 0.47993 0.0
H525 H 0.04376 0.83246 0.4494 0.0
H526 H 0.06363 0.89591 0.28071 0.0
H527 H 0.02494 0.86518 0.32918 0.0
Li528 Li 0.80326 0.90662 0.88871 0.0
Li529 Li 0.79339 0.88023 0.90804 0.0
Li530 Li 0.80168 0.88442 0.86652 0.0
Li531 Li 0.77641 0.88381 0.87902 0.0
C532 C 0.82892 0.89406 0.89062 0.0
N533 N 0.85596 0.89111 0.88085 0.0
C534 C 0.83193 0.88329 0.90364 0.0
C535 C 0.83972 0.90339 0.87271 0.0
C536 C 0.84566 0.88197 0.89842 0.0
C537 C 0.85329 0.90169 0.868 0.0
C538 C 0.7782 0.89255 0.93201 0.0
C539 C 0.75787 0.8764 0.96107 0.0
N540 N 0.76708 0.88737 0.97795 0.0
C541 C 0.78743 0.9037 0.94962 0.0
C542 C 0.76327 0.87882 0.93775 0.0
C543 C 0.78161 0.90086 0.97274 0.0
C544 C 0.80652 0.93564 0.90658 0.0
N545 N 0.81487 0.92932 0.89554 0.0
C546 C 0.8402 0.95361 0.90302 0.0
C547 C 0.83133 0.93815 0.89287 0.0
C548 C 0.83208 0.95984 0.91656 0.0
C549 C 0.81492 0.9509 0.91741 0.0
H550 H 0.79341 0.9283 0.90847 0.0
H551 H 0.83767 0.93286 0.884 0.0
C552 C 0.78681 0.8533 0.93717 0.0
N553 N 0.79419 0.86984 0.93617 0.0
C554 C 0.78922 0.84571 0.95662 0.0
C555 C 0.80638 0.87233 0.97389 0.0
C556 C 0.80376 0.87939 0.95403 0.0
C557 C 0.79937 0.85527 0.97514 0.0
H558 H 0.77967 0.84603 0.92242 0.0
H559 H 0.80989 0.89253 0.95242 0.0
C560 C 0.79761 0.91413 0.84814 0.0
N561 N 0.80643 0.94524 0.83312 0.0
C562 C 0.78685 0.92008 0.85094 0.0
C563 C 0.81283 0.92395 0.83765 0.0
C564 C 0.79154 0.93586 0.84324 0.0
C565 C 0.81707 0.93966 0.83019 0.0
C566 C 0.76884 0.85199 0.87357 0.0
C567 C 0.76864 0.84625 0.85081 0.0
C568 C 0.7554 0.84324 0.88836 0.0
C569 C 0.75491 0.83192 0.84315 0.0
C570 C 0.74189 0.82899 0.88003 0.0
N571 N 0.74192 0.82367 0.85779 0.0
C572 C 0.81298 0.86427 0.85137 0.0
C573 C 0.81492 0.88263 0.82143 0.0
C574 C 0.81927 0.85715 0.83636 0.0
N575 N 0.81097 0.87675 0.84376 0.0
C576 C 0.82113 0.87571 0.80564 0.0
C577 C 0.82322 0.86266 0.81302 0.0
H578 H 0.80957 0.85976 0.86916 0.0
H579 H 0.81301 0.89246 0.8158 0.0
C580 C 0.74686 0.88397 0.88364 0.0
N581 N 0.7547 0.87796 0.87053 0.0
C582 C 0.73095 0.88007 0.87796 0.0
C583 C 0.73153 0.86397 0.8453 0.0
C584 C 0.74754 0.86846 0.85131 0.0
C585 C 0.72308 0.8698 0.85874 0.0
H586 H 0.753 0.8919 0.89842 0.0
H587 H 0.75427 0.86446 0.84054 0.0
O588 O 0.81539 0.89534 0.89521 0.0
O589 O 0.78381 0.89498 0.90932 0.0
O590 O 0.79343 0.89891 0.85621 0.0
O591 O 0.78216 0.86602 0.88139 0.0
H592 H 0.8237 0.87591 0.91749 0.0
H593 H 0.83746 0.91157 0.86218 0.0
H594 H 0.8481 0.87365 0.9083 0.0
H595 H 0.86166 0.90872 0.85404 0.0
H596 H 0.74636 0.86579 0.96576 0.0
H597 H 0.7991 0.91431 0.94558 0.0
H598 H 0.75594 0.87011 0.92434 0.0
H599 H 0.78868 0.90933 0.98657 0.0
H600 H 0.85337 0.96022 0.90131 0.0
H601 H 0.80805 0.95503 0.92774 0.0
H602 H 0.78384 0.83257 0.95654 0.0
H603 H 0.81418 0.88018 0.9878 0.0
H604 H 0.77507 0.91267 0.85918 0.0
H605 H 0.82134 0.91955 0.83551 0.0
H606 H 0.78337 0.94066 0.84538 0.0
H607 H 0.82884 0.94743 0.82213 0.0
H608 H 0.77887 0.85286 0.83905 0.0
H609 H 0.75539 0.84741 0.90608 0.0
H610 H 0.75455 0.82739 0.82555 0.0
H611 H 0.73138 0.82214 0.89126 0.0
H612 H 0.82096 0.84736 0.84302 0.0
H613 H 0.82386 0.88024 0.78775 0.0
H614 H 0.72479 0.88485 0.88863 0.0
H615 H 0.72591 0.85627 0.83007 0.0
Li616 Li 0.09069 0.89313 0.8924 0.0
Li617 Li 0.11791 0.91576 0.90611 0.0
Li618 Li 0.10825 0.91599 0.86686 0.0
Li619 Li 0.11771 0.89731 0.87626 0.0
C620 C 0.09135 0.92575 0.89185 0.0
N621 N 0.07863 0.94522 0.87867 0.0
C622 C 0.09999 0.94248 0.89659 0.0
C623 C 0.07622 0.91887 0.88056 0.0
C624 C 0.09335 0.95214 0.88974 0.0
C625 C 0.07 0.92894 0.874 0.0
C626 C 0.11331 0.8901 0.931 0.0
C627 C 0.1342 0.89391 0.95881 0.0
N628 N 0.12279 0.88786 0.97621 0.0
C629 C 0.10177 0.88381 0.9491 0.0
C630 C 0.12963 0.89508 0.93582 0.0
C631 C 0.10682 0.88281 0.97186 0.0
C632 C 0.06036 0.8631 0.89291 0.0
N633 N 0.06942 0.87805 0.90293 0.0
C634 C 0.04881 0.87193 0.93179 0.0
C635 C 0.06393 0.88266 0.92187 0.0
C636 C 0.03905 0.85633 0.92191 0.0
C637 C 0.04498 0.85204 0.90201 0.0
H638 H 0.06513 0.85971 0.87798 0.0
H639 H 0.07155 0.89456 0.92964 0.0
C640 C 0.14456 0.94127 0.93002 0.0
N641 N 0.1289 0.92898 0.9326 0.0
C642 C 0.15274 0.95167 0.94882 0.0
C643 C 0.12851 0.9366 0.97262 0.0
C644 C 0.12076 0.92653 0.95329 0.0
C645 C 0.14471 0.94945 0.97049 0.0
H646 H 0.15058 0.94325 0.9132 0.0
H647 H 0.10818 0.91688 0.95467 0.0
C648 C 0.09097 0.89017 0.83703 0.0
N649 N 0.0785 0.88602 0.79195 0.0
C650 C 0.10142 0.89489 0.8176 0.0
C651 C 0.07417 0.88332 0.83354 0.0
C652 C 0.09489 0.89272 0.79495 0.0
C653 C 0.0681 0.88131 0.81061 0.0
C654 C 0.14483 0.92567 0.86581 0.0
C655 C 0.14717 0.93029 0.8421 0.0
C656 C 0.15736 0.92527 0.87831 0.0
C657 C 0.16201 0.93439 0.83129 0.0
C658 C 0.17199 0.92941 0.86684 0.0
N659 N 0.174 0.93385 0.84377 0.0
C660 C 0.12176 0.94674 0.84695 0.0
C661 C 0.0974 0.9281 0.8273 0.0
C662 C 0.12428 0.95913 0.83129 0.0
N663 N 0.10877 0.93144 0.84431 0.0
C664 C 0.09954 0.9401 0.81101 0.0
C665 C 0.11332 0.95581 0.8126 0.0
H666 H 0.13033 0.94927 0.86114 0.0
H667 H 0.08671 0.91616 0.82615 0.0
C668 C 0.12854 0.8745 0.88086 0.0
N669 N 0.12865 0.88592 0.86616 0.0
C670 C 0.13748 0.86684 0.87529 0.0
C671 C 0.14616 0.8825 0.83927 0.0
C672 C 0.13683 0.88962 0.84533 0.0
C673 C 0.14672 0.87113 0.85451 0.0
H674 H 0.12172 0.87152 0.89713 0.0
H675 H 0.13646 0.89837 0.83359 0.0
O676 O 0.09786 0.91619 0.89774 0.0
O677 O 0.10867 0.89147 0.90868 0.0
O678 O 0.09709 0.892 0.85933 0.0
O679 O 0.1304 0.92166 0.87677 0.0
H680 H 0.11176 0.94796 0.90524 0.0
H681 H 0.06946 0.90594 0.87665 0.0
H682 H 0.09992 0.96513 0.89316 0.0
H683 H 0.05835 0.92382 0.86512 0.0
H684 H 0.14681 0.89781 0.96281 0.0
H685 H 0.08908 0.87982 0.94566 0.0
H686 H 0.13868 0.89987 0.92197 0.0
H687 H 0.09804 0.87805 0.98608 0.0
H688 H 0.04507 0.87572 0.94745 0.0
H689 H 0.03787 0.84028 0.89357 0.0
H690 H 0.16507 0.96165 0.94615 0.0
H691 H 0.12186 0.9344 0.98899 0.0
H692 H 0.11444 0.90037 0.81998 0.0
H693 H 0.06591 0.87974 0.84836 0.0
H694 H 0.10285 0.8964 0.77976 0.0
H695 H 0.05513 0.87606 0.80764 0.0
H696 H 0.13757 0.93043 0.83197 0.0
H697 H 0.1558 0.92177 0.89665 0.0
H698 H 0.16395 0.9379 0.81293 0.0
H699 H 0.18176 0.92909 0.87629 0.0
H700 H 0.13479 0.97117 0.83377 0.0
H701 H 0.0907 0.93694 0.797 0.0
H702 H 0.13761 0.85809 0.88746 0.0
H703 H 0.15294 0.88591 0.82289 0.0
Li704 Li 0.08189 0.20067 0.90454 0.0
Li705 Li 0.10313 0.19608 0.89171 0.0
Li706 Li 0.10356 0.2223 0.8828 0.0
Li707 Li 0.08331 0.19611 0.86411 0.0
C708 C 0.106 0.21585 0.93678 0.0
N709 N 0.10707 0.22076 0.98481 0.0
C710 C 0.1019 0.20285 0.95221 0.0
C711 C 0.11082 0.23138 0.94572 0.0
C712 C 0.10245 0.20557 0.97645 0.0
C713 C 0.11125 0.2336 0.97008 0.0
C714 C 0.07734 0.16636 0.88002 0.0
C715 C 0.08474 0.15237 0.85127 0.0
N716 N 0.07326 0.13778 0.86033 0.0
C717 C 0.06563 0.1512 0.88905 0.0
C718 C 0.087 0.16693 0.86098 0.0
C719 C 0.06375 0.13691 0.87886 0.0
C720 C 0.05452 0.17921 0.92992 0.0
N721 N 0.0665 0.19514 0.9299 0.0
C722 C 0.05664 0.19963 0.96638 0.0
C723 C 0.0675 0.20549 0.94735 0.0
C724 C 0.04486 0.183 0.9674 0.0
C725 C 0.04364 0.17281 0.94867 0.0
H726 H 0.05361 0.17137 0.91554 0.0
H727 H 0.07693 0.21817 0.94689 0.0
C728 C 0.13246 0.19474 0.89481 0.0
N729 N 0.11628 0.18699 0.90017 0.0
C730 C 0.14212 0.1882 0.90222 0.0
C731 C 0.11815 0.16572 0.91996 0.0
C732 C 0.10909 0.17286 0.91271 0.0
C733 C 0.13486 0.17346 0.91482 0.0
H734 H 0.13788 0.2061 0.88509 0.0
H735 H 0.09634 0.16723 0.91744 0.0
C736 C 0.06992 0.21821 0.88847 0.0
N737 N 0.04975 0.22755 0.91028 0.0
C738 C 0.05301 0.209 0.88541 0.0
C739 C 0.07658 0.2322 0.90255 0.0
C740 C 0.04302 0.21391 0.89663 0.0
C741 C 0.06618 0.23673 0.91342 0.0
C742 C 0.11345 0.21549 0.83985 0.0
C743 C 0.10646 0.22389 0.82928 0.0
C744 C 0.12642 0.21505 0.82879 0.0
C745 C 0.11258 0.23172 0.80774 0.0
C746 C 0.13218 0.22302 0.80724 0.0
N747 N 0.1252 0.23113 0.79725 0.0
C748 C 0.13389 0.25074 0.88442 0.0
C749 C 0.11313 0.25471 0.86785 0.0
C750 C 0.14551 0.26708 0.88049 0.0
N751 N 0.11808 0.24493 0.87812 0.0
C752 C 0.12434 0.27116 0.86365 0.0
C753 C 0.14081 0.27755 0.86997 0.0
H754 H 0.13748 0.24258 0.89224 0.0
H755 H 0.1005 0.24969 0.86273 0.0
C756 C 0.05391 0.17611 0.84277 0.0
N757 N 0.07004 0.18528 0.8375 0.0
C758 C 0.04263 0.16695 0.82538 0.0
C759 C 0.06479 0.17649 0.79739 0.0
C760 C 0.07568 0.18543 0.81542 0.0
C761 C 0.04799 0.16714 0.80226 0.0
H762 H 0.04987 0.1757 0.86069 0.0
H763 H 0.0886 0.19228 0.81175 0.0
O764 O 0.10548 0.21346 0.91301 0.0
O765 O 0.07927 0.18046 0.88997 0.0
O766 O 0.07991 0.21352 0.87788 0.0
O767 O 0.10786 0.2079 0.86108 0.0
H768 H 0.09814 0.19077 0.94551 0.0
H769 H 0.11409 0.24156 0.93395 0.0
H770 H 0.09919 0.19561 0.98863 0.0
H771 H 0.11488 0.24553 0.97728 0.0
H772 H 0.09212 0.15266 0.83652 0.0
H773 H 0.05812 0.15041 0.9039 0.0
H774 H 0.09618 0.17841 0.85367 0.0
H775 H 0.05475 0.12512 0.88572 0.0
H776 H 0.05784 0.20783 0.98054 0.0
H777 H 0.03448 0.15997 0.94871 0.0
H778 H 0.15504 0.19452 0.89818 0.0
H779 H 0.11226 0.15451 0.93007 0.0
H780 H 0.04764 0.19818 0.87454 0.0
H781 H 0.08961 0.23934 0.90541 0.0
H782 H 0.02991 0.20687 0.89447 0.0
H783 H 0.07116 0.24747 0.92448 0.0
H784 H 0.09635 0.22427 0.83751 0.0
H785 H 0.13198 0.20862 0.8368 0.0
H786 H 0.10728 0.23826 0.79935 0.0
H787 H 0.1422 0.22277 0.79846 0.0
H788 H 0.1581 0.27138 0.88527 0.0
H789 H 0.12012 0.2788 0.85572 0.0
H790 H 0.02987 0.15959 0.8301 0.0
H791 H 0.06947 0.17701 0.77982 0.0
Li792 Li 0.88295 0.77823 0.61897 0.0
Li793 Li 0.88949 0.80559 0.63244 0.0
Li794 Li 0.87951 0.79578 0.59167 0.0
Li795 Li 0.90708 0.80318 0.60235 0.0
C796 C 0.8543 0.77513 0.63237 0.0
N797 N 0.82675 0.75036 0.65376 0.0
C798 C 0.84966 0.77743 0.65479 0.0
C799 C 0.84475 0.76029 0.62072 0.0
C800 C 0.83573 0.76475 0.66533 0.0
C801 C 0.83092 0.7479 0.63186 0.0
C802 C 0.91385 0.79966 0.65349 0.0
C803 C 0.93935 0.8193 0.67147 0.0
N804 N 0.93613 0.80901 0.68998 0.0
C805 C 0.91095 0.78918 0.67255 0.0
C806 C 0.92829 0.81476 0.65283 0.0
C807 C 0.92229 0.79417 0.69088 0.0
C808 C 0.87562 0.74514 0.61661 0.0
N809 N 0.87546 0.75678 0.63045 0.0
C810 C 0.86549 0.73846 0.66311 0.0
C811 C 0.87053 0.75374 0.65327 0.0
C812 C 0.86563 0.72619 0.64936 0.0
C813 C 0.87064 0.72962 0.62574 0.0
H814 H 0.87984 0.74798 0.59861 0.0
H815 H 0.87064 0.76328 0.66391 0.0
C816 C 0.88178 0.82731 0.65525 0.0
N817 N 0.88695 0.81641 0.65893 0.0
C818 C 0.87619 0.83268 0.67411 0.0
C819 C 0.88206 0.81606 0.7002 0.0
C820 C 0.88758 0.81107 0.6809 0.0
C821 C 0.87573 0.82654 0.69678 0.0
H822 H 0.88108 0.83105 0.63749 0.0
H823 H 0.8912 0.80201 0.68328 0.0
C824 C 0.88561 0.77825 0.56314 0.0
N825 N 0.87503 0.76939 0.51731 0.0
C826 C 0.89508 0.78791 0.54438 0.0
C827 C 0.87084 0.76399 0.55857 0.0
C828 C 0.8895 0.78325 0.52134 0.0
C829 C 0.86568 0.75974 0.53529 0.0
C830 C 0.90937 0.83396 0.60179 0.0
C831 C 0.91288 0.84313 0.58108 0.0
C832 C 0.9178 0.84156 0.62243 0.0
C833 C 0.92504 0.85957 0.58124 0.0
C834 C 0.92986 0.85803 0.62191 0.0
N835 N 0.93322 0.86662 0.60148 0.0
C836 C 0.84963 0.78795 0.56953 0.0
C837 C 0.87328 0.80752 0.54932 0.0
C838 C 0.83964 0.79032 0.55387 0.0
N839 N 0.86613 0.79679 0.56733 0.0
C840 C 0.86377 0.81046 0.53344 0.0
C841 C 0.84669 0.80216 0.53603 0.0
H842 H 0.84421 0.77952 0.58396 0.0
H843 H 0.88641 0.81423 0.54781 0.0
C844 C 0.9374 0.8046 0.60102 0.0
N845 N 0.9287 0.811 0.59126 0.0
C846 C 0.95282 0.80884 0.59233 0.0
C847 C 0.94989 0.82587 0.56327 0.0
C848 C 0.93464 0.8215 0.57279 0.0
C849 C 0.95918 0.81943 0.57294 0.0
H850 H 0.93222 0.79593 0.6153 0.0
H851 H 0.92726 0.82595 0.56478 0.0
O852 O 0.86804 0.78736 0.62189 0.0
O853 O 0.90287 0.79487 0.6353 0.0
O854 O 0.89069 0.78283 0.58584 0.0
O855 O 0.8974 0.81783 0.60193 0.0
H856 H 0.85667 0.78887 0.66396 0.0
H857 H 0.84809 0.75829 0.60338 0.0
H858 H 0.83206 0.76636 0.6827 0.0
H859 H 0.82353 0.73631 0.62311 0.0
H860 H 0.95054 0.83096 0.67115 0.0
H861 H 0.90002 0.77735 0.67328 0.0
H862 H 0.93113 0.82279 0.63788 0.0
H863 H 0.92011 0.78622 0.70579 0.0
H864 H 0.8615 0.73627 0.68129 0.0
H865 H 0.87108 0.72054 0.61463 0.0
H866 H 0.87124 0.84063 0.67074 0.0
H867 H 0.88195 0.8111 0.71743 0.0
H868 H 0.90651 0.79898 0.54757 0.0
H869 H 0.86342 0.75629 0.57282 0.0
H870 H 0.89666 0.79068 0.50668 0.0
H871 H 0.85424 0.74878 0.53151 0.0
H872 H 0.90642 0.83762 0.56496 0.0
H873 H 0.91506 0.83489 0.63877 0.0
H874 H 0.92795 0.86673 0.56527 0.0
H875 H 0.93651 0.864 0.63777 0.0
H876 H 0.82653 0.78334 0.55626 0.0
H877 H 0.86984 0.81978 0.52013 0.0
H878 H 0.95954 0.80368 0.60055 0.0
H879 H 0.95401 0.83371 0.54793 0.0
Li880 Li 0.21743 0.09968 0.62089 0.0
Li881 Li 0.1909 0.08003 0.6348 0.0
Li882 Li 0.19933 0.07998 0.59203 0.0
Li883 Li 0.19411 0.10191 0.60836 0.0
C884 C 0.21857 0.07207 0.63212 0.0
N885 N 0.24063 0.06525 0.65377 0.0
C886 C 0.22321 0.07677 0.65545 0.0
C887 C 0.22509 0.06386 0.61979 0.0
C888 C 0.23441 0.07324 0.66609 0.0
C889 C 0.23624 0.06053 0.63105 0.0
C890 C 0.19919 0.10715 0.66235 0.0
C891 C 0.18119 0.11053 0.68887 0.0
N892 N 0.19188 0.11355 0.70679 0.0
C893 C 0.21008 0.11045 0.68097 0.0
C894 C 0.1847 0.10734 0.66626 0.0
C895 C 0.20612 0.11359 0.70333 0.0
C896 C 0.24416 0.12766 0.63888 0.0
N897 N 0.23998 0.11309 0.62868 0.0
C898 C 0.26804 0.12028 0.62623 0.0
C899 C 0.25151 0.10922 0.62234 0.0
C900 C 0.2727 0.13554 0.63638 0.0
C901 C 0.26051 0.1391 0.64295 0.0
H902 H 0.23479 0.13059 0.64318 0.0
H903 H 0.24796 0.09783 0.61344 0.0
C904 C 0.16335 0.05224 0.65245 0.0
N905 N 0.17777 0.06534 0.65912 0.0
C906 C 0.15337 0.04055 0.66895 0.0
C907 C 0.17336 0.05587 0.69895 0.0
C908 C 0.18291 0.06731 0.68187 0.0
C909 C 0.1584 0.04223 0.69254 0.0
H910 H 0.15972 0.05066 0.63416 0.0
H911 H 0.19454 0.07756 0.68678 0.0
C912 C 0.22697 0.11589 0.58088 0.0
N913 N 0.25764 0.14042 0.56767 0.0
C914 C 0.23161 0.13222 0.58488 0.0
C915 C 0.23786 0.11201 0.57 0.0
C916 C 0.24719 0.14445 0.57811 0.0
C917 C 0.25332 0.1246 0.56348 0.0
C918 C 0.16345 0.07458 0.59954 0.0
C919 C 0.15734 0.06906 0.57694 0.0
C920 C 0.15367 0.07644 0.61628 0.0
C921 C 0.14158 0.06573 0.57134 0.0
C922 C 0.13798 0.07297 0.61001 0.0
N923 N 0.13231 0.06775 0.58785 0.0
C924 C 0.18791 0.05068 0.56671 0.0
C925 C 0.20118 0.07487 0.54385 0.0
C926 C 0.18387 0.04109 0.54642 0.0
N927 N 0.19624 0.06722 0.56499 0.0
C928 C 0.19749 0.06578 0.52313 0.0
C929 C 0.18846 0.04864 0.5242 0.0
H930 H 0.18393 0.04498 0.58379 0.0
H931 H 0.20756 0.08806 0.54303 0.0
C932 C 0.19027 0.12986 0.61137 0.0
N933 N 0.18655 0.11617 0.59886 0.0
C934 C 0.18604 0.14109 0.60266 0.0
C935 C 0.17403 0.1237 0.56868 0.0
C936 C 0.17869 0.11299 0.57785 0.0
C937 C 0.17787 0.13806 0.58099 0.0
H938 H 0.19696 0.13231 0.62772 0.0
H939 H 0.17654 0.1024 0.5678 0.0
O940 O 0.20767 0.07544 0.62136 0.0
O941 O 0.20293 0.10419 0.6403 0.0
O942 O 0.21198 0.10374 0.58807 0.0
O943 O 0.17883 0.07786 0.60533 0.0
H944 H 0.21841 0.08329 0.66511 0.0
H945 H 0.22159 0.06014 0.60169 0.0
H946 H 0.23818 0.07688 0.68411 0.0
H947 H 0.24141 0.0542 0.62173 0.0
H948 H 0.17 0.11068 0.69216 0.0
H949 H 0.22139 0.11043 0.67825 0.0
H950 H 0.17632 0.10517 0.65195 0.0
H951 H 0.21438 0.11605 0.71793 0.0
H952 H 0.27709 0.11719 0.62057 0.0
H953 H 0.26358 0.15069 0.65095 0.0
H954 H 0.14208 0.03005 0.66317 0.0
H955 H 0.17767 0.05765 0.71697 0.0
H956 H 0.22334 0.1354 0.59339 0.0
H957 H 0.23449 0.09941 0.567 0.0
H958 H 0.251 0.15715 0.58125 0.0
H959 H 0.26193 0.12178 0.55522 0.0
H960 H 0.16473 0.06747 0.56382 0.0
H961 H 0.1581 0.08038 0.63397 0.0
H962 H 0.13671 0.06153 0.55388 0.0
H963 H 0.13029 0.07438 0.62278 0.0
H964 H 0.17665 0.02794 0.54809 0.0
H965 H 0.20143 0.07211 0.50645 0.0
H966 H 0.18931 0.15209 0.61256 0.0
H967 H 0.16812 0.12113 0.55162 0.0
Li968 Li 0.89605 0.11696 0.62242 0.0
Li969 Li 0.91856 0.11167 0.63331 0.0
Li970 Li 0.91598 0.11988 0.59284 0.0
Li971 Li 0.89637 0.0934 0.60811 0.0
C972 C 0.92339 0.14814 0.6173 0.0
N973 N 0.92991 0.17938 0.60699 0.0
C974 C 0.93623 0.16156 0.62855 0.0
C975 C 0.91387 0.1506 0.60078 0.0
C976 C 0.93933 0.17726 0.6231 0.0
C977 C 0.91736 0.16649 0.59582 0.0
C978 C 0.88324 0.08429 0.65018 0.0
C979 C 0.87463 0.05717 0.66452 0.0
N980 N 0.85902 0.05418 0.66595 0.0
C981 C 0.86714 0.08101 0.65202 0.0
C982 C 0.88706 0.07235 0.6567 0.0
C983 C 0.85506 0.06569 0.65995 0.0
C984 C 0.86721 0.11794 0.62306 0.0
N985 N 0.8823 0.12484 0.63292 0.0
C986 C 0.87621 0.1414 0.65795 0.0
C987 C 0.88703 0.13643 0.64997 0.0
C988 C 0.86039 0.1342 0.64843 0.0
C989 C 0.85599 0.12242 0.63063 0.0
H990 H 0.86381 0.10871 0.6096 0.0
H991 H 0.89911 0.14164 0.65754 0.0
C992 C 0.94996 0.12089 0.64707 0.0
N993 N 0.93454 0.11453 0.65559 0.0
C994 C 0.96273 0.12361 0.66205 0.0
C995 C 0.94355 0.11333 0.69443 0.0
C996 C 0.93106 0.11066 0.67871 0.0
C997 C 0.95962 0.1199 0.68608 0.0
H998 H 0.9523 0.12391 0.62857 0.0
H999 H 0.91865 0.10559 0.68491 0.0
C1000 C 0.88739 0.10349 0.56709 0.0
N1001 N 0.87826 0.09298 0.5213 0.0
C1002 C 0.8946 0.09585 0.55498 0.0
C1003 C 0.87554 0.1058 0.5559 0.0
C1004 C 0.88981 0.09061 0.53186 0.0
C1005 C 0.87109 0.10041 0.53274 0.0
C1006 C 0.92694 0.09295 0.59981 0.0
C1007 C 0.93282 0.09213 0.57757 0.0
C1008 C 0.92847 0.08423 0.61855 0.0
C1009 C 0.94002 0.08247 0.57441 0.0
C1010 C 0.93576 0.07472 0.61469 0.0
N1011 N 0.94133 0.07404 0.59288 0.0
C1012 C 0.94462 0.13402 0.56803 0.0
C1013 C 0.92417 0.13694 0.54825 0.0
C1014 C 0.95544 0.14141 0.54944 0.0
N1015 N 0.92927 0.13168 0.56695 0.0
C1016 C 0.93468 0.14456 0.52922 0.0
C1017 C 0.95052 0.14672 0.52956 0.0
H1018 H 0.94832 0.12973 0.58319 0.0
H1019 H 0.91191 0.13505 0.54794 0.0
C1020 C 0.86585 0.06699 0.5969 0.0
N1021 N 0.88184 0.07126 0.59891 0.0
C1022 C 0.85451 0.05183 0.58758 0.0
C1023 C 0.87626 0.0457 0.5826 0.0
C1024 C 0.88712 0.06085 0.59239 0.0
C1025 C 0.8598 0.04119 0.57979 0.0
H1026 H 0.86203 0.07563 0.60174 0.0
H1027 H 0.89981 0.06441 0.5939 0.0
O1028 O 0.92025 0.13271 0.6225 0.0
O1029 O 0.89518 0.09912 0.64204 0.0
O1030 O 0.89177 0.10867 0.58981 0.0
O1031 O 0.91999 0.10249 0.60323 0.0
H1032 H 0.94372 0.15983 0.64136 0.0
H1033 H 0.90388 0.14038 0.59189 0.0
H1034 H 0.94923 0.18776 0.63168 0.0
H1035 H 0.91009 0.16858 0.58308 0.0
H1036 H 0.8774 0.04778 0.66947 0.0
H1037 H 0.86398 0.09014 0.64721 0.0
H1038 H 0.89947 0.07473 0.65567 0.0
H1039 H 0.84253 0.06295 0.6613 0.0
H1040 H 0.88001 0.15044 0.67181 0.0
H1041 H 0.84399 0.11673 0.62264 0.0
H1042 H 0.97498 0.12893 0.65499 0.0
H1043 H 0.94068 0.11028 0.71285 0.0
H1044 H 0.90373 0.09392 0.56334 0.0
H1045 H 0.86986 0.11173 0.565 0.0
H1046 H 0.89528 0.08465 0.52232 0.0
H1047 H 0.86194 0.10212 0.52386 0.0
H1048 H 0.93183 0.09885 0.56285 0.0
H1049 H 0.9241 0.08477 0.6359 0.0
H1050 H 0.94459 0.0817 0.55728 0.0
H1051 H 0.937 0.0679 0.62904 0.0
H1052 H 0.96736 0.14247 0.5504 0.0
H1053 H 0.93043 0.14863 0.51441 0.0
H1054 H 0.84193 0.04882 0.58537 0.0
H1055 H 0.88073 0.03775 0.57675 0.0
Li1056 Li 0.864 0.42804 0.44051 0.0
Li1057 Li 0.88617 0.45328 0.45697 0.0
Li1058 Li 0.85786 0.44521 0.4648 0.0
Li1059 Li 0.86887 0.45473 0.42577 0.0
C1060 C 0.85963 0.42039 0.48818 0.0
N1061 N 0.8393 0.39386 0.51586 0.0
C1062 C 0.86534 0.41758 0.50936 0.0
C1063 C 0.84358 0.4097 0.48107 0.0
C1064 C 0.85488 0.4041 0.5231 0.0
C1065 C 0.8335 0.39637 0.49531 0.0
C1066 C 0.89424 0.44563 0.40881 0.0
C1067 C 0.91282 0.4581 0.37629 0.0
N1068 N 0.91653 0.44595 0.37706 0.0
C1069 C 0.89816 0.43321 0.40918 0.0
C1070 C 0.90154 0.45813 0.39215 0.0
C1071 C 0.90949 0.43361 0.39303 0.0
C1072 C 0.84927 0.40206 0.40964 0.0
N1073 N 0.85806 0.40686 0.42988 0.0
C1074 C 0.85921 0.3822 0.43128 0.0
C1075 C 0.86298 0.39729 0.44092 0.0
C1076 C 0.85039 0.37705 0.41008 0.0
C1077 C 0.84523 0.38712 0.39942 0.0
H1078 H 0.84561 0.41001 0.40127 0.0
H1079 H 0.87013 0.40155 0.45689 0.0
C1080 C 0.91169 0.47535 0.48612 0.0
N1081 N 0.90775 0.46369 0.46938 0.0
C1082 C 0.92773 0.48451 0.49417 0.0
C1083 C 0.93519 0.46885 0.4686 0.0
C1084 C 0.91902 0.46008 0.46093 0.0
C1085 C 0.93976 0.48146 0.48511 0.0
H1086 H 0.90242 0.47781 0.49279 0.0
H1087 H 0.91556 0.4506 0.44792 0.0
C1088 C 0.83522 0.43781 0.42875 0.0
N1089 N 0.81003 0.44344 0.41754 0.0
C1090 C 0.83678 0.45308 0.43309 0.0
C1091 C 0.82086 0.42542 0.4187 0.0
C1092 C 0.82391 0.45568 0.4273 0.0
C1093 C 0.80826 0.4285 0.41316 0.0
C1094 C 0.88677 0.4834 0.45253 0.0
C1095 C 0.88405 0.49526 0.46283 0.0
C1096 C 0.90075 0.4882 0.4389 0.0
C1097 C 0.89539 0.51176 0.45928 0.0
C1098 C 0.91181 0.50482 0.4358 0.0
N1099 N 0.90892 0.51616 0.44596 0.0
C1100 C 0.8504 0.45899 0.50254 0.0
C1101 C 0.82728 0.43533 0.48756 0.0
C1102 C 0.84059 0.46181 0.51793 0.0
N1103 N 0.84361 0.44611 0.48753 0.0
C1104 C 0.81698 0.43766 0.50271 0.0
C1105 C 0.82359 0.45121 0.51792 0.0
H1106 H 0.86342 0.46739 0.50202 0.0
H1107 H 0.82218 0.42519 0.47538 0.0
C1108 C 0.86143 0.4549 0.37865 0.0
N1109 N 0.86751 0.46496 0.39761 0.0
C1110 C 0.85855 0.46061 0.35755 0.0
C1111 C 0.86882 0.48712 0.3756 0.0
C1112 C 0.87121 0.48082 0.39648 0.0
C1113 C 0.86221 0.47689 0.35594 0.0
H1114 H 0.85842 0.44229 0.38017 0.0
H1115 H 0.87553 0.4885 0.41185 0.0
O1116 O 0.86981 0.43355 0.47459 0.0
O1117 O 0.88299 0.44534 0.42427 0.0
O1118 O 0.84764 0.43492 0.43417 0.0
O1119 O 0.87579 0.46722 0.45602 0.0
H1120 H 0.87774 0.42574 0.51509 0.0
H1121 H 0.83893 0.41161 0.46472 0.0
H1122 H 0.85914 0.40177 0.53954 0.0
H1123 H 0.82105 0.38801 0.49001 0.0
H1124 H 0.9186 0.46773 0.36334 0.0
H1125 H 0.89265 0.42346 0.42197 0.0
H1126 H 0.89853 0.46775 0.39139 0.0
H1127 H 0.9127 0.42412 0.3932 0.0
H1128 H 0.86351 0.37486 0.43996 0.0
H1129 H 0.83816 0.38351 0.38331 0.0
H1130 H 0.9307 0.49395 0.50721 0.0
H1131 H 0.94411 0.46615 0.46112 0.0
H1132 H 0.84778 0.46284 0.44087 0.0
H1133 H 0.81948 0.41353 0.41523 0.0
H1134 H 0.82494 0.46744 0.43058 0.0
H1135 H 0.79708 0.41902 0.40537 0.0
H1136 H 0.87327 0.49175 0.47338 0.0
H1137 H 0.90309 0.47921 0.43092 0.0
H1138 H 0.89344 0.52107 0.46711 0.0
H1139 H 0.9227 0.5087 0.42534 0.0
H1140 H 0.84623 0.47254 0.52906 0.0
H1141 H 0.80399 0.42909 0.50231 0.0
H1142 H 0.85336 0.45236 0.34274 0.0
H1143 H 0.87146 0.49966 0.37512 0.0
Li1144 Li 0.57066 0.43498 0.44057 0.0
Li1145 Li 0.54668 0.43666 0.45251 0.0
Li1146 Li 0.55143 0.41419 0.46775 0.0
Li1147 Li 0.54236 0.41388 0.4272 0.0
C1148 C 0.57837 0.45009 0.48383 0.0
N1149 N 0.60621 0.47407 0.50564 0.0
C1150 C 0.58161 0.46622 0.48431 0.0
C1151 C 0.58914 0.44612 0.49484 0.0
C1152 C 0.59579 0.47818 0.49531 0.0
C1153 C 0.60319 0.45842 0.50566 0.0
C1154 C 0.55318 0.44816 0.4059 0.0
C1155 C 0.53588 0.45554 0.38427 0.0
N1156 N 0.54924 0.46987 0.37794 0.0
C1157 C 0.56677 0.46286 0.39893 0.0
C1158 C 0.53763 0.44438 0.39829 0.0
C1159 C 0.56452 0.4737 0.38488 0.0
C1160 C 0.59921 0.43857 0.42017 0.0
N1161 N 0.59291 0.44704 0.43092 0.0
C1162 C 0.61805 0.4721 0.42564 0.0
C1163 C 0.60192 0.46352 0.43363 0.0
C1164 C 0.6249 0.46356 0.41488 0.0
C1165 C 0.61529 0.44658 0.41221 0.0
H1166 H 0.59166 0.42561 0.41732 0.0
H1167 H 0.59649 0.47008 0.44148 0.0
C1168 C 0.52497 0.44547 0.47303 0.0
N1169 N 0.53863 0.45104 0.45957 0.0
C1170 C 0.51796 0.45524 0.47681 0.0
C1171 C 0.53938 0.47638 0.45323 0.0
C1172 C 0.54615 0.46636 0.45031 0.0
C1173 C 0.52502 0.47074 0.46637 0.0
H1174 H 0.51935 0.43332 0.48043 0.0
H1175 H 0.5573 0.47075 0.44041 0.0
C1176 C 0.56637 0.40045 0.44223 0.0
N1177 N 0.578 0.3793 0.45057 0.0
C1178 C 0.55912 0.3852 0.4312 0.0
C1179 C 0.57966 0.40502 0.45724 0.0
C1180 C 0.56514 0.37465 0.43572 0.0
C1181 C 0.58533 0.39414 0.46131 0.0
C1182 C 0.51442 0.40272 0.45346 0.0
C1183 C 0.50673 0.38683 0.46243 0.0
C1184 C 0.50524 0.40816 0.4412 0.0
C1185 C 0.49006 0.3765 0.45841 0.0
C1186 C 0.48859 0.39748 0.43755 0.0
N1187 N 0.48141 0.38199 0.44612 0.0
C1188 C 0.55421 0.4058 0.51523 0.0
C1189 C 0.54232 0.38393 0.48796 0.0
C1190 C 0.5524 0.39503 0.5334 0.0
N1191 N 0.54918 0.40007 0.49306 0.0
C1192 C 0.54036 0.37279 0.50546 0.0
C1193 C 0.54532 0.37825 0.5286 0.0
H1194 H 0.55948 0.4187 0.51885 0.0
H1195 H 0.53826 0.37968 0.47023 0.0
C1196 C 0.53154 0.40532 0.37994 0.0
N1197 N 0.53013 0.39961 0.40229 0.0
C1198 C 0.52386 0.39449 0.36132 0.0
C1199 C 0.51334 0.37216 0.38914 0.0
C1200 C 0.52114 0.38341 0.40719 0.0
C1201 C 0.51489 0.37764 0.3658 0.0
H1202 H 0.53913 0.41821 0.3764 0.0
H1203 H 0.5206 0.37916 0.425 0.0
O1204 O 0.56451 0.43821 0.47319 0.0
O1205 O 0.55516 0.43752 0.41999 0.0
O1206 O 0.56056 0.4109 0.43815 0.0
O1207 O 0.53078 0.41297 0.45708 0.0
H1208 H 0.57333 0.4695 0.47613 0.0
H1209 H 0.58663 0.43365 0.49523 0.0
H1210 H 0.59851 0.49073 0.49565 0.0
H1211 H 0.61166 0.45552 0.51415 0.0
H1212 H 0.52389 0.4528 0.37838 0.0
H1213 H 0.57891 0.46592 0.40443 0.0
H1214 H 0.52704 0.43292 0.40302 0.0
H1215 H 0.57491 0.48518 0.37951 0.0
H1216 H 0.62506 0.48523 0.4278 0.0
H1217 H 0.61999 0.43963 0.40341 0.0
H1218 H 0.50686 0.45055 0.4871 0.0
H1219 H 0.54527 0.4884 0.44526 0.0
H1220 H 0.54896 0.38152 0.41929 0.0
H1221 H 0.5856 0.41687 0.46553 0.0
H1222 H 0.5596 0.36278 0.42739 0.0
H1223 H 0.59559 0.39752 0.47295 0.0
H1224 H 0.51354 0.38246 0.47229 0.0
H1225 H 0.51085 0.42054 0.43474 0.0
H1226 H 0.484 0.36413 0.46509 0.0
H1227 H 0.48137 0.40152 0.42798 0.0
H1228 H 0.55618 0.39974 0.55106 0.0
H1229 H 0.53504 0.36002 0.50086 0.0
H1230 H 0.52556 0.39918 0.34352 0.0
H1231 H 0.50649 0.35926 0.39334 0.0
Li1232 Li 0.57804 0.12987 0.42649 0.0
Li1233 Li 0.58081 0.13804 0.46738 0.0
Li1234 Li 0.56129 0.10967 0.4555 0.0
Li1235 Li 0.5566 0.13257 0.44472 0.0
C1236 C 0.5952 0.11534 0.44994 0.0
N1237 N 0.61561 0.10256 0.44374 0.0
C1238 C 0.61168 0.12446 0.45626 0.0
C1239 C 0.58909 0.09964 0.44072 0.0
C1240 C 0.6218 0.11781 0.45291 0.0
C1241 C 0.5996 0.09342 0.43765 0.0
C1242 C 0.59399 0.16373 0.43517 0.0
C1243 C 0.60961 0.19242 0.42585 0.0
N1244 N 0.62353 0.19156 0.42628 0.0
C1245 C 0.60846 0.16313 0.43554 0.0
C1246 C 0.59455 0.17848 0.4303 0.0
C1247 C 0.62327 0.17732 0.43099 0.0
C1248 C 0.58471 0.14188 0.38099 0.0
N1249 N 0.58964 0.1347 0.39723 0.0
C1250 C 0.61239 0.13963 0.37314 0.0
C1251 C 0.60302 0.13318 0.3935 0.0
C1252 C 0.60788 0.1476 0.35635 0.0
C1253 C 0.59349 0.14816 0.36021 0.0
H1254 H 0.57426 0.14329 0.38462 0.0
H1255 H 0.60695 0.12773 0.40673 0.0
C1256 C 0.60048 0.14032 0.50412 0.0
N1257 N 0.59611 0.14974 0.49154 0.0
C1258 C 0.6139 0.14751 0.51914 0.0
C1259 C 0.6172 0.17395 0.50972 0.0
C1260 C 0.60378 0.16622 0.49454 0.0
C1261 C 0.62267 0.16453 0.52152 0.0
H1262 H 0.59411 0.12725 0.50139 0.0
H1263 H 0.60002 0.17343 0.48432 0.0
C1264 C 0.55133 0.10946 0.40201 0.0
N1265 N 0.5465 0.10071 0.35501 0.0
C1266 C 0.54273 0.11451 0.38754 0.0
C1267 C 0.55725 0.09974 0.39266 0.0
C1268 C 0.54047 0.11001 0.36381 0.0
C1269 C 0.55475 0.09552 0.36883 0.0
C1270 C 0.55368 0.13256 0.49359 0.0
C1271 C 0.5441 0.12421 0.51306 0.0
C1272 C 0.55935 0.14925 0.49101 0.0
C1273 C 0.54031 0.13271 0.52966 0.0
C1274 C 0.55531 0.15732 0.50801 0.0
N1275 N 0.54595 0.14895 0.52681 0.0
C1276 C 0.55662 0.08594 0.48793 0.0
C1277 C 0.5413 0.07507 0.45289 0.0
C1278 C 0.55057 0.07031 0.49718 0.0
N1279 N 0.55194 0.08798 0.46619 0.0
C1280 C 0.53494 0.05918 0.46145 0.0
C1281 C 0.53961 0.05665 0.48388 0.0
H1282 H 0.5651 0.09651 0.49805 0.0
H1283 H 0.53788 0.07712 0.43559 0.0
C1284 C 0.54542 0.15017 0.42061 0.0
N1285 N 0.54101 0.13894 0.43807 0.0
C1286 C 0.53431 0.15446 0.41195 0.0
C1287 C 0.51442 0.13599 0.44004 0.0
C1288 C 0.52596 0.13195 0.44809 0.0
C1289 C 0.51848 0.14721 0.42144 0.0
H1290 H 0.55737 0.15523 0.41266 0.0
H1291 H 0.52277 0.12293 0.46184 0.0
O1292 O 0.58508 0.12162 0.45332 0.0
O1293 O 0.57932 0.15 0.43955 0.0
O1294 O 0.55383 0.11391 0.42524 0.0
O1295 O 0.5574 0.12433 0.47718 0.0
H1296 H 0.61665 0.13658 0.46362 0.0
H1297 H 0.57635 0.09227 0.43613 0.0
H1298 H 0.63458 0.12477 0.45764 0.0
H1299 H 0.59503 0.0813 0.4305 0.0
H1300 H 0.61022 0.20392 0.42207 0.0
H1301 H 0.60825 0.15185 0.43927 0.0
H1302 H 0.58346 0.17916 0.43003 0.0
H1303 H 0.63455 0.17702 0.43121 0.0
H1304 H 0.62351 0.1391 0.37126 0.0
H1305 H 0.58927 0.15387 0.34767 0.0
H1306 H 0.61781 0.13993 0.52806 0.0
H1307 H 0.6238 0.18714 0.51116 0.0
H1308 H 0.53787 0.12183 0.39451 0.0
H1309 H 0.56384 0.09565 0.40358 0.0
H1310 H 0.53391 0.11391 0.35238 0.0
H1311 H 0.55939 0.08812 0.36133 0.0
H1312 H 0.53962 0.11128 0.51528 0.0
H1313 H 0.56676 0.15594 0.47607 0.0
H1314 H 0.53289 0.1264 0.54482 0.0
H1315 H 0.5596 0.17023 0.50623 0.0
H1316 H 0.5543 0.06895 0.51467 0.0
H1317 H 0.52666 0.04899 0.45051 0.0
H1318 H 0.53793 0.16283 0.39723 0.0
H1319 H 0.50241 0.13019 0.448 0.0
Li1320 Li 0.75796 0.53169 0.71987 0.0
Li1321 Li 0.78562 0.55506 0.70928 0.0
Li1322 Li 0.77542 0.52745 0.69219 0.0
Li1323 Li 0.78271 0.53265 0.73289 0.0
C1324 C 0.75396 0.53587 0.67151 0.0
N1325 N 0.72965 0.52303 0.6378 0.0
C1326 C 0.75433 0.54549 0.65259 0.0
C1327 C 0.74123 0.51971 0.67329 0.0
C1328 C 0.74192 0.53878 0.63573 0.0
C1329 C 0.72906 0.51345 0.65607 0.0
C1330 C 0.77872 0.5512 0.76395 0.0
C1331 C 0.7985 0.5629 0.7953 0.0
N1332 N 0.78622 0.5562 0.81138 0.0
C1333 C 0.76629 0.54459 0.78079 0.0
C1334 C 0.79495 0.56058 0.77126 0.0
C1335 C 0.77033 0.5472 0.80468 0.0
C1336 C 0.73052 0.51364 0.74662 0.0
N1337 N 0.73639 0.52512 0.72941 0.0
C1338 C 0.71202 0.52681 0.73014 0.0
C1339 C 0.7275 0.53168 0.72088 0.0
C1340 C 0.70582 0.51532 0.74858 0.0
C1341 C 0.71533 0.50868 0.75666 0.0
H1342 H 0.73797 0.50878 0.75317 0.0
H1343 H 0.73251 0.54082 0.70715 0.0
C1344 C 0.80574 0.58349 0.68289 0.0
N1345 N 0.7976 0.57775 0.70356 0.0
C1346 C 0.81498 0.6003 0.67892 0.0
C1347 C 0.80722 0.60483 0.71756 0.0
C1348 C 0.79807 0.58798 0.72071 0.0
C1349 C 0.81588 0.61119 0.69648 0.0
H1350 H 0.80515 0.575 0.66963 0.0
H1351 H 0.79138 0.58303 0.7369 0.0
C1352 C 0.76271 0.4994 0.72013 0.0
N1353 N 0.76224 0.46999 0.72206 0.0
C1354 C 0.77712 0.49894 0.71714 0.0
C1355 C 0.74804 0.48492 0.72413 0.0
C1356 C 0.77665 0.48395 0.71816 0.0
C1357 C 0.74806 0.47016 0.72504 0.0
C1358 C 0.81337 0.54789 0.70854 0.0
C1359 C 0.81985 0.5382 0.70106 0.0
C1360 C 0.8237 0.56315 0.71864 0.0
C1361 C 0.83645 0.54376 0.70436 0.0
C1362 C 0.84024 0.56827 0.72163 0.0
N1363 N 0.84621 0.55854 0.71452 0.0
C1364 C 0.79015 0.52281 0.65274 0.0
C1365 C 0.76332 0.50091 0.6596 0.0
C1366 C 0.79226 0.51424 0.63441 0.0
N1367 N 0.77599 0.51592 0.66519 0.0
C1368 C 0.76479 0.49201 0.64106 0.0
C1369 C 0.77955 0.49857 0.62861 0.0
H1370 H 0.79998 0.5348 0.65751 0.0
H1371 H 0.75224 0.49563 0.66993 0.0
C1372 C 0.77749 0.51563 0.77387 0.0
N1373 N 0.79001 0.52553 0.7594 0.0
C1374 C 0.78016 0.5082 0.79315 0.0
C1375 C 0.80874 0.52147 0.78274 0.0
C1376 C 0.80552 0.52879 0.76366 0.0
C1377 C 0.79587 0.51076 0.79752 0.0
H1378 H 0.76529 0.51326 0.7701 0.0
H1379 H 0.81533 0.53672 0.75207 0.0
O1380 O 0.76605 0.54229 0.68811 0.0
O1381 O 0.77503 0.54848 0.74047 0.0
O1382 O 0.76288 0.51394 0.71933 0.0
O1383 O 0.79717 0.54275 0.70511 0.0
H1384 H 0.76412 0.55802 0.65097 0.0
H1385 H 0.74074 0.51207 0.68779 0.0
H1386 H 0.74205 0.54608 0.62099 0.0
H1387 H 0.71914 0.50096 0.65723 0.0
H1388 H 0.81103 0.57002 0.80117 0.0
H1389 H 0.75365 0.5375 0.77553 0.0
H1390 H 0.80472 0.56589 0.75854 0.0
H1391 H 0.76082 0.54207 0.81788 0.0
H1392 H 0.70509 0.53212 0.72307 0.0
H1393 H 0.71142 0.50014 0.7712 0.0
H1394 H 0.82158 0.60474 0.6625 0.0
H1395 H 0.80739 0.61281 0.73138 0.0
H1396 H 0.78855 0.51004 0.71422 0.0
H1397 H 0.73677 0.48508 0.72647 0.0
H1398 H 0.78774 0.48343 0.7159 0.0
H1399 H 0.7368 0.45885 0.72812 0.0
H1400 H 0.81219 0.52653 0.6927 0.0
H1401 H 0.81909 0.57103 0.72398 0.0
H1402 H 0.84159 0.53634 0.69876 0.0
H1403 H 0.84833 0.58002 0.72951 0.0
H1404 H 0.80377 0.51971 0.62501 0.0
H1405 H 0.75479 0.4799 0.63711 0.0
H1406 H 0.76993 0.50033 0.80433 0.0
H1407 H 0.82103 0.52371 0.78536 0.0
Li1408 Li 0.47033 0.25 0.69964 0.0
Li1409 Li 0.45917 0.24855 0.73739 0.0
Li1410 Li 0.46547 0.22747 0.72543 0.0
Li1411 Li 0.44152 0.22918 0.70782 0.0
C1412 C 0.49636 0.26317 0.72891 0.0
N1413 N 0.52828 0.28836 0.72563 0.0
C1414 C 0.4998 0.27935 0.72782 0.0
C1415 C 0.50916 0.2598 0.72861 0.0
C1416 C 0.51601 0.29191 0.72607 0.0
C1417 C 0.52522 0.27271 0.72688 0.0
C1418 C 0.44578 0.26329 0.71166 0.0
C1419 C 0.42319 0.26775 0.71903 0.0
N1420 N 0.43379 0.2841 0.72035 0.0
C1421 C 0.45642 0.28014 0.71283 0.0
C1422 C 0.42901 0.25703 0.71458 0.0
C1423 C 0.45013 0.29045 0.71735 0.0
C1424 C 0.47721 0.27235 0.66367 0.0
N1425 N 0.48386 0.26461 0.67554 0.0
C1426 C 0.50918 0.28027 0.65512 0.0
C1427 C 0.4994 0.268 0.67113 0.0
C1428 C 0.50277 0.28886 0.64328 0.0
C1429 C 0.48647 0.28455 0.64743 0.0
H1430 H 0.46478 0.2693 0.66723 0.0
H1431 H 0.50436 0.26149 0.68039 0.0
C1432 C 0.4742 0.26844 0.77661 0.0
N1433 N 0.46002 0.2614 0.76419 0.0
C1434 C 0.47662 0.27918 0.79499 0.0
C1435 C 0.44928 0.27431 0.78887 0.0
C1436 C 0.44746 0.26377 0.77039 0.0
C1437 C 0.46417 0.28249 0.80112 0.0
H1438 H 0.48383 0.26599 0.77197 0.0
H1439 H 0.43606 0.25763 0.76094 0.0
C1440 C 0.46735 0.22393 0.67424 0.0
N1441 N 0.48452 0.21915 0.63878 0.0
C1442 C 0.46048 0.21911 0.65184 0.0
C1443 C 0.48295 0.22635 0.67861 0.0
C1444 C 0.46935 0.21673 0.63415 0.0
C1445 C 0.49144 0.22388 0.66044 0.0
C1446 C 0.43877 0.22356 0.76263 0.0
C1447 C 0.44762 0.22373 0.78244 0.0
C1448 C 0.42391 0.22317 0.76548 0.0
C1449 C 0.44146 0.22359 0.80485 0.0
C1450 C 0.41815 0.22301 0.78819 0.0
N1451 N 0.42698 0.22323 0.80724 0.0
C1452 C 0.48221 0.2174 0.75492 0.0
C1453 C 0.46716 0.19838 0.72483 0.0
C1454 C 0.4871 0.20688 0.76416 0.0
N1455 N 0.47236 0.21295 0.73574 0.0
C1456 C 0.47186 0.18749 0.73339 0.0
C1457 C 0.48188 0.19164 0.75344 0.0
H1458 H 0.48604 0.22904 0.76328 0.0
H1459 H 0.45926 0.19518 0.70961 0.0
C1460 C 0.41772 0.22271 0.67393 0.0
N1461 N 0.42042 0.21731 0.69467 0.0
C1462 C 0.40207 0.21521 0.66423 0.0
C1463 C 0.39242 0.19648 0.69715 0.0
C1464 C 0.40828 0.2043 0.70615 0.0
C1465 C 0.3891 0.20207 0.67607 0.0
H1466 H 0.42769 0.23306 0.66519 0.0
H1467 H 0.41085 0.20023 0.72257 0.0
O1468 O 0.48055 0.2507 0.73064 0.0
O1469 O 0.45169 0.25301 0.70701 0.0
O1470 O 0.45881 0.22619 0.69181 0.0
O1471 O 0.44478 0.22405 0.74056 0.0
H1472 H 0.49005 0.28216 0.7283 0.0
H1473 H 0.50673 0.24736 0.72956 0.0
H1474 H 0.51884 0.30449 0.72509 0.0
H1475 H 0.53525 0.27029 0.72652 0.0
H1476 H 0.41026 0.26307 0.7215 0.0
H1477 H 0.46938 0.28522 0.71017 0.0
H1478 H 0.42057 0.24404 0.71376 0.0
H1479 H 0.45823 0.30352 0.71841 0.0
H1480 H 0.52163 0.28307 0.65216 0.0
H1481 H 0.48107 0.29094 0.63881 0.0
H1482 H 0.48838 0.28523 0.80368 0.0
H1483 H 0.43917 0.27613 0.79332 0.0
H1484 H 0.4484 0.21718 0.64822 0.0
H1485 H 0.48849 0.2302 0.69579 0.0
H1486 H 0.46418 0.21296 0.61673 0.0
H1487 H 0.50354 0.22575 0.66357 0.0
H1488 H 0.45919 0.22413 0.78053 0.0
H1489 H 0.41702 0.22328 0.75034 0.0
H1490 H 0.44822 0.2238 0.82035 0.0
H1491 H 0.40671 0.22281 0.79067 0.0
H1492 H 0.49454 0.21049 0.77993 0.0
H1493 H 0.46767 0.17595 0.72444 0.0
H1494 H 0.40015 0.21975 0.64774 0.0
H1495 H 0.38279 0.18651 0.707 0.0
Li1496 Li 0.76872 0.21318 0.71502 0.0
Li1497 Li 0.76917 0.23887 0.7237 0.0
Li1498 Li 0.74772 0.21231 0.74141 0.0
Li1499 Li 0.74699 0.21869 0.69982 0.0
C1500 C 0.78305 0.22257 0.75924 0.0
N1501 N 0.80585 0.21939 0.78571 0.0
C1502 C 0.79885 0.23583 0.76195 0.0
C1503 C 0.7788 0.20776 0.77032 0.0
C1504 C 0.81021 0.23396 0.77532 0.0
C1505 C 0.79051 0.20637 0.78352 0.0
C1506 C 0.78386 0.2431 0.68168 0.0
C1507 C 0.79554 0.2683 0.65975 0.0
N1508 N 0.81032 0.26913 0.66027 0.0
C1509 C 0.79913 0.24413 0.68184 0.0
C1510 C 0.78201 0.2552 0.67037 0.0
C1511 C 0.81236 0.2574 0.67096 0.0
C1512 C 0.7726 0.1892 0.693 0.0
N1513 N 0.78061 0.20237 0.70736 0.0
C1514 C 0.80331 0.19788 0.71013 0.0
C1515 C 0.79584 0.20703 0.71559 0.0
C1516 C 0.79505 0.18389 0.69599 0.0
C1517 C 0.77958 0.17972 0.68714 0.0
H1518 H 0.76065 0.18595 0.68629 0.0
H1519 H 0.80222 0.21779 0.72638 0.0
C1520 C 0.77388 0.26841 0.74068 0.0
N1521 N 0.78213 0.26162 0.73067 0.0
C1522 C 0.78214 0.28463 0.74799 0.0
C1523 C 0.80742 0.28669 0.73495 0.0
C1524 C 0.7986 0.2704 0.72759 0.0
C1525 C 0.79913 0.29394 0.74537 0.0
H1526 H 0.76091 0.26112 0.74366 0.0
H1527 H 0.80499 0.26469 0.72009 0.0
C1528 C 0.73479 0.18245 0.7205 0.0
N1529 N 0.71496 0.15041 0.73445 0.0
C1530 C 0.71824 0.17409 0.71446 0.0
C1531 C 0.74129 0.1744 0.73328 0.0
C1532 C 0.7084 0.15794 0.72179 0.0
C1533 C 0.73107 0.15824 0.74026 0.0
C1534 C 0.73437 0.23495 0.72077 0.0
C1535 C 0.71872 0.22751 0.73052 0.0
C1536 C 0.73882 0.24719 0.70385 0.0
C1537 C 0.70765 0.23223 0.72283 0.0
C1538 C 0.72741 0.25156 0.6966 0.0
N1539 N 0.71218 0.24404 0.70615 0.0
C1540 C 0.74258 0.20655 0.79017 0.0
C1541 C 0.71847 0.19352 0.76719 0.0
C1542 C 0.73351 0.20095 0.81088 0.0
N1543 N 0.73497 0.2028 0.7689 0.0
C1544 C 0.7089 0.18783 0.78747 0.0
C1545 C 0.71639 0.1917 0.80977 0.0
H1546 H 0.75567 0.2143 0.79113 0.0
H1547 H 0.71268 0.19107 0.75011 0.0
C1548 C 0.73974 0.21994 0.65207 0.0
N1549 N 0.73294 0.21529 0.6738 0.0
C1550 C 0.72984 0.21662 0.63225 0.0
C1551 C 0.70613 0.20408 0.65756 0.0
C1552 C 0.7165 0.20765 0.6769 0.0
C1553 C 0.71278 0.20833 0.6348 0.0
H1554 H 0.75284 0.22589 0.65007 0.0
H1555 H 0.71139 0.20395 0.69434 0.0
O1556 O 0.77179 0.22418 0.74615 0.0
O1557 O 0.77076 0.23018 0.6922 0.0
O1558 O 0.74459 0.19832 0.7136 0.0
O1559 O 0.74535 0.23038 0.72785 0.0
H1560 H 0.80234 0.24741 0.75374 0.0
H1561 H 0.76655 0.19749 0.76894 0.0
H1562 H 0.8225 0.24411 0.77743 0.0
H1563 H 0.78738 0.19496 0.79211 0.0
H1564 H 0.79429 0.27779 0.65103 0.0
H1565 H 0.80078 0.23486 0.69038 0.0
H1566 H 0.77025 0.25449 0.66974 0.0
H1567 H 0.82426 0.2584 0.67107 0.0
H1568 H 0.81526 0.20155 0.71731 0.0
H1569 H 0.77293 0.16925 0.67573 0.0
H1570 H 0.77534 0.28963 0.75647 0.0
H1571 H 0.82055 0.29348 0.73276 0.0
H1572 H 0.71302 0.18004 0.70436 0.0
H1573 H 0.75412 0.18051 0.7376 0.0
H1574 H 0.69555 0.15138 0.71738 0.0
H1575 H 0.73595 0.1519 0.75023 0.0
H1576 H 0.71512 0.21817 0.74384 0.0
H1577 H 0.75095 0.25322 0.69639 0.0
H1578 H 0.69546 0.2265 0.73014 0.0
H1579 H 0.73066 0.26094 0.68342 0.0
H1580 H 0.73987 0.2041 0.8276 0.0
H1581 H 0.69574 0.18108 0.78564 0.0
H1582 H 0.73549 0.22027 0.61507 0.0
H1583 H 0.69305 0.19749 0.66033 0.0
Li1584 Li 0.46735 0.23561 0.22654 0.0
Li1585 Li 0.46079 0.20912 0.24296 0.0
Li1586 Li 0.4727 0.21752 0.20358 0.0
Li1587 Li 0.44442 0.21041 0.21144 0.0
C1588 C 0.49783 0.23009 0.23262 0.0
N1589 N 0.52867 0.23408 0.22765 0.0
C1590 C 0.50193 0.21963 0.24434 0.0
C1591 C 0.50944 0.24263 0.2185 0.0
C1592 C 0.51759 0.22185 0.24158 0.0
C1593 C 0.52495 0.24442 0.21616 0.0
C1594 C 0.4414 0.21706 0.2655 0.0
C1595 C 0.42314 0.1991 0.29538 0.0
N1596 N 0.43043 0.21132 0.31149 0.0
C1597 C 0.44867 0.22946 0.28231 0.0
C1598 C 0.42848 0.20178 0.27202 0.0
C1599 C 0.44296 0.22631 0.30548 0.0
C1600 C 0.46254 0.26204 0.23608 0.0
N1601 N 0.47402 0.25742 0.23506 0.0
C1602 C 0.49409 0.28281 0.25158 0.0
C1603 C 0.48961 0.26749 0.24224 0.0
C1604 C 0.48235 0.28771 0.25362 0.0
C1605 C 0.46649 0.27729 0.24521 0.0
H1606 H 0.45014 0.2536 0.23071 0.0
H1607 H 0.49841 0.26339 0.24156 0.0
C1608 C 0.45521 0.18197 0.27103 0.0
N1609 N 0.46113 0.19835 0.27098 0.0
C1610 C 0.45687 0.17433 0.29104 0.0
C1611 C 0.47024 0.2005 0.31072 0.0
C1612 C 0.46847 0.20764 0.29028 0.0
C1613 C 0.4647 0.18366 0.31116 0.0
H1614 H 0.4497 0.17493 0.25528 0.0
H1615 H 0.47333 0.22069 0.28956 0.0
C1616 C 0.46266 0.24303 0.18421 0.0
N1617 N 0.46544 0.27186 0.168 0.0
C1618 C 0.44869 0.24428 0.18079 0.0
C1619 C 0.47803 0.2564 0.17924 0.0
C1620 C 0.45035 0.25897 0.1726 0.0
C1621 C 0.47918 0.27088 0.17112 0.0
C1622 C 0.44321 0.18215 0.20291 0.0
C1623 C 0.44626 0.17864 0.1802 0.0
C1624 C 0.42854 0.17141 0.21412 0.0
C1625 C 0.43447 0.16447 0.16896 0.0
C1626 C 0.41705 0.15738 0.20227 0.0
N1627 N 0.42023 0.15423 0.18013 0.0
C1628 C 0.49296 0.20593 0.186 0.0
C1629 C 0.48933 0.22352 0.16013 0.0
C1630 C 0.50263 0.20382 0.16941 0.0
N1631 N 0.48661 0.21571 0.18112 0.0
C1632 C 0.49876 0.2216 0.1429 0.0
C1633 C 0.50552 0.21156 0.14737 0.0
H1634 H 0.49033 0.19962 0.20269 0.0
H1635 H 0.48386 0.23096 0.15654 0.0
C1636 C 0.41142 0.20227 0.21113 0.0
N1637 N 0.42319 0.2015 0.19842 0.0
C1638 C 0.39605 0.19698 0.20133 0.0
C1639 C 0.40513 0.18998 0.16569 0.0
C1640 C 0.42041 0.19567 0.17604 0.0
C1641 C 0.39271 0.19075 0.17825 0.0
H1642 H 0.41412 0.20741 0.22865 0.0
H1643 H 0.43013 0.19565 0.16609 0.0
O1644 O 0.4825 0.228 0.23486 0.0
O1645 O 0.44697 0.21981 0.2428 0.0
O1646 O 0.46132 0.22887 0.19264 0.0
O1647 O 0.45454 0.19602 0.21414 0.0
H1648 H 0.49309 0.20982 0.25527 0.0
H1649 H 0.50644 0.25078 0.20923 0.0
H1650 H 0.52092 0.21382 0.25047 0.0
H1651 H 0.53403 0.25401 0.20516 0.0
H1652 H 0.41321 0.18731 0.30071 0.0
H1653 H 0.45874 0.24134 0.2776 0.0
H1654 H 0.42272 0.19206 0.25922 0.0
H1655 H 0.44853 0.23576 0.31871 0.0
H1656 H 0.50648 0.29055 0.25773 0.0
H1657 H 0.45704 0.28051 0.2468 0.0
H1658 H 0.45269 0.16138 0.29036 0.0
H1659 H 0.47619 0.20817 0.32585 0.0
H1660 H 0.4367 0.23407 0.1846 0.0
H1661 H 0.48897 0.25564 0.18185 0.0
H1662 H 0.43965 0.26013 0.16997 0.0
H1663 H 0.49101 0.28136 0.16733 0.0
H1664 H 0.45754 0.18682 0.17124 0.0
H1665 H 0.426 0.17394 0.2317 0.0
H1666 H 0.43663 0.16163 0.15134 0.0
H1667 H 0.4056 0.14901 0.21067 0.0
H1668 H 0.5077 0.19611 0.17381 0.0
H1669 H 0.50031 0.22753 0.12604 0.0
H1670 H 0.38705 0.1982 0.21156 0.0
H1671 H 0.40314 0.18509 0.148 0.0
Li1672 Li 0.75585 0.23019 0.22814 0.0
Li1673 Li 0.78249 0.24794 0.24277 0.0
Li1674 Li 0.77653 0.24971 0.20173 0.0
Li1675 Li 0.77933 0.22627 0.21614 0.0
C1676 C 0.75439 0.25709 0.23221 0.0
N1677 N 0.72764 0.26122 0.23797 0.0
C1678 C 0.75236 0.26372 0.2531 0.0
C1679 C 0.74279 0.25258 0.21429 0.0
C1680 C 0.73876 0.26571 0.25566 0.0
C1681 C 0.72935 0.25475 0.21753 0.0
C1682 C 0.77377 0.22073 0.26899 0.0
C1683 C 0.78877 0.21126 0.29219 0.0
N1684 N 0.7826 0.21404 0.31216 0.0
C1685 C 0.76751 0.2234 0.28974 0.0
C1686 C 0.78445 0.21455 0.27019 0.0
C1687 C 0.77216 0.21999 0.3114 0.0
C1688 C 0.72152 0.207 0.22355 0.0
N1689 N 0.73344 0.21874 0.23721 0.0
C1690 C 0.71399 0.21536 0.26666 0.0
C1691 C 0.73 0.22277 0.25857 0.0
C1692 C 0.70145 0.20336 0.25292 0.0
C1693 C 0.70526 0.19899 0.23124 0.0
H1694 H 0.72463 0.20386 0.20679 0.0
H1695 H 0.73972 0.23191 0.26925 0.0
C1696 C 0.79514 0.27627 0.26912 0.0
N1697 N 0.79487 0.26178 0.26857 0.0
C1698 C 0.80343 0.28753 0.28692 0.0
C1699 C 0.81178 0.26918 0.30292 0.0
C1700 C 0.80333 0.25824 0.28467 0.0
C1701 C 0.81179 0.28401 0.30427 0.0
H1702 H 0.78896 0.27914 0.25558 0.0
H1703 H 0.8037 0.24707 0.2833 0.0
C1704 C 0.75987 0.22543 0.17226 0.0
N1705 N 0.75722 0.22562 0.12383 0.0
C1706 C 0.77208 0.22581 0.15796 0.0
C1707 C 0.74626 0.22503 0.16195 0.0
C1708 C 0.77053 0.22594 0.1335 0.0
C1709 C 0.74516 0.22516 0.13742 0.0
C1710 C 0.81102 0.26052 0.2227 0.0
C1711 C 0.81678 0.27722 0.22002 0.0
C1712 C 0.82058 0.2553 0.23443 0.0
C1713 C 0.83206 0.28845 0.22917 0.0
C1714 C 0.8358 0.26691 0.2433 0.0
N1715 N 0.84118 0.2831 0.24052 0.0
C1716 C 0.77571 0.27361 0.17077 0.0
C1717 C 0.79659 0.2671 0.16449 0.0
C1718 C 0.78283 0.28628 0.15429 0.0
N1719 N 0.78284 0.26453 0.17582 0.0
C1720 C 0.80425 0.27979 0.14828 0.0
C1721 C 0.79756 0.28976 0.14345 0.0
H1722 H 0.76499 0.27162 0.18025 0.0
H1723 H 0.80208 0.2598 0.16895 0.0
C1724 C 0.77455 0.19483 0.20837 0.0
N1725 N 0.78566 0.21102 0.20699 0.0
C1726 C 0.77856 0.1833 0.2004 0.0
C1727 C 0.8054 0.20537 0.19002 0.0
C1728 C 0.80084 0.21646 0.19806 0.0
C1729 C 0.79414 0.18855 0.19097 0.0
H1730 H 0.76252 0.19091 0.21543 0.0
H1731 H 0.80929 0.22943 0.19672 0.0
O1732 O 0.76739 0.25463 0.22954 0.0
O1733 O 0.76924 0.22382 0.24759 0.0
O1734 O 0.76135 0.22565 0.19623 0.0
O1735 O 0.79589 0.24936 0.21447 0.0
H1736 H 0.76098 0.267 0.2674 0.0
H1737 H 0.74403 0.24722 0.19819 0.0
H1738 H 0.73701 0.27074 0.27177 0.0
H1739 H 0.72026 0.25121 0.20382 0.0
H1740 H 0.79706 0.20653 0.29338 0.0
H1741 H 0.75929 0.22822 0.28918 0.0
H1742 H 0.78944 0.21241 0.25435 0.0
H1743 H 0.76749 0.2221 0.3276 0.0
H1744 H 0.71142 0.21888 0.28359 0.0
H1745 H 0.69578 0.18968 0.22033 0.0
H1746 H 0.80302 0.29877 0.28729 0.0
H1747 H 0.81837 0.26614 0.31566 0.0
H1748 H 0.78274 0.22623 0.16564 0.0
H1749 H 0.73662 0.22458 0.17274 0.0
H1750 H 0.77994 0.22634 0.12222 0.0
H1751 H 0.73471 0.22488 0.1292 0.0
H1752 H 0.80943 0.28147 0.21128 0.0
H1753 H 0.81618 0.24241 0.23698 0.0
H1754 H 0.83664 0.30141 0.22733 0.0
H1755 H 0.84331 0.26305 0.25252 0.0
H1756 H 0.77744 0.29386 0.1511 0.0
H1757 H 0.8156 0.28213 0.14018 0.0
H1758 H 0.76958 0.17043 0.20162 0.0
H1759 H 0.81745 0.20993 0.18254 0.0
Li1760 Li 0.74945 0.53185 0.24128 0.0
Li1761 Li 0.77034 0.52755 0.22216 0.0
Li1762 Li 0.76762 0.55185 0.21166 0.0
Li1763 Li 0.7476 0.52441 0.19812 0.0
C1764 C 0.77834 0.55516 0.26247 0.0
N1765 N 0.78817 0.57376 0.30306 0.0
C1766 C 0.78812 0.55305 0.27893 0.0
C1767 C 0.77373 0.56686 0.26653 0.0
C1768 C 0.79291 0.56253 0.29938 0.0
C1769 C 0.77878 0.57612 0.28717 0.0
C1770 C 0.74535 0.49689 0.23078 0.0
C1771 C 0.7466 0.4733 0.21759 0.0
N1772 N 0.74274 0.46696 0.23969 0.0
C1773 C 0.74123 0.49007 0.25331 0.0
C1774 C 0.74791 0.48839 0.21271 0.0
C1775 C 0.74004 0.47495 0.25748 0.0
C1776 C 0.72182 0.52483 0.26853 0.0
N1777 N 0.73743 0.52784 0.26953 0.0
C1778 C 0.73475 0.52144 0.31053 0.0
C1779 C 0.74403 0.52633 0.28997 0.0
C1780 C 0.71838 0.51769 0.30995 0.0
C1781 C 0.71202 0.51974 0.28865 0.0
H1782 H 0.71678 0.52574 0.25188 0.0
H1783 H 0.75628 0.52825 0.29012 0.0
C1784 C 0.7971 0.52164 0.21533 0.0
N1785 N 0.78497 0.52009 0.22986 0.0
C1786 C 0.80817 0.51689 0.22308 0.0
C1787 C 0.79371 0.50875 0.26019 0.0
C1788 C 0.78318 0.51388 0.25192 0.0
C1789 C 0.80648 0.51034 0.2458 0.0
H1790 H 0.79839 0.52688 0.19799 0.0
H1791 H 0.77377 0.51332 0.26334 0.0
C1792 C 0.73721 0.55086 0.20987 0.0
N1793 N 0.72448 0.57111 0.20168 0.0
C1794 C 0.73208 0.55211 0.18728 0.0
C1795 C 0.73555 0.55965 0.22839 0.0
C1796 C 0.72576 0.56249 0.18346 0.0
C1797 C 0.72918 0.5699 0.22387 0.0
C1798 C 0.77269 0.53536 0.16691 0.0
C1799 C 0.77424 0.54746 0.15126 0.0
C1800 C 0.77257 0.52146 0.15829 0.0
C1801 C 0.77535 0.5453 0.12713 0.0
C1802 C 0.77368 0.51974 0.13404 0.0
N1803 N 0.77502 0.53159 0.11909 0.0
C1804 C 0.79427 0.5833 0.21676 0.0
C1805 C 0.77466 0.58223 0.18976 0.0
C1806 C 0.80352 0.60022 0.21452 0.0
N1807 N 0.7799 0.57471 0.205 0.0
C1808 C 0.78367 0.59916 0.18671 0.0
C1809 C 0.79813 0.60836 0.19956 0.0
H1810 H 0.79848 0.57702 0.22816 0.0
H1811 H 0.76351 0.57515 0.18 0.0
C1812 C 0.71936 0.4969 0.18287 0.0
N1813 N 0.7316 0.51148 0.17496 0.0
C1814 C 0.7059 0.48726 0.16868 0.0
C1815 C 0.71786 0.50764 0.13809 0.0
C1816 C 0.73119 0.51689 0.1529 0.0
C1817 C 0.7048 0.49277 0.14616 0.0
H1818 H 0.71973 0.49297 0.2006 0.0
H1819 H 0.74079 0.52869 0.14714 0.0
O1820 O 0.77343 0.54588 0.24243 0.0
O1821 O 0.74673 0.51175 0.2264 0.0
O1822 O 0.74329 0.54065 0.21395 0.0
O1823 O 0.77169 0.5373 0.19059 0.0
H1824 H 0.79193 0.54415 0.27599 0.0
H1825 H 0.76647 0.56889 0.25375 0.0
H1826 H 0.80041 0.56096 0.31233 0.0
H1827 H 0.77528 0.58521 0.29053 0.0
H1828 H 0.74861 0.46662 0.20379 0.0
H1829 H 0.73909 0.49643 0.26745 0.0
H1830 H 0.75085 0.49339 0.19512 0.0
H1831 H 0.73696 0.46956 0.27487 0.0
H1832 H 0.74023 0.52018 0.32656 0.0
H1833 H 0.69939 0.51669 0.2872 0.0
H1834 H 0.81796 0.51838 0.21157 0.0
H1835 H 0.79225 0.50413 0.27802 0.0
H1836 H 0.73316 0.54532 0.17277 0.0
H1837 H 0.73898 0.55847 0.24613 0.0
H1838 H 0.7219 0.56369 0.16601 0.0
H1839 H 0.72789 0.57682 0.23803 0.0
H1840 H 0.77448 0.55834 0.15766 0.0
H1841 H 0.77171 0.51215 0.1702 0.0
H1842 H 0.77645 0.55452 0.11479 0.0
H1843 H 0.77353 0.50901 0.12711 0.0
H1844 H 0.8148 0.60687 0.22434 0.0
H1845 H 0.77919 0.60502 0.17487 0.0
H1846 H 0.69623 0.47579 0.17554 0.0
H1847 H 0.71744 0.51248 0.12099 0.0
Li1848 Li 0.55264 0.13697 0.96616 0.0
Li1849 Li 0.54668 0.11028 0.95095 0.0
Li1850 Li 0.57239 0.13486 0.9423 0.0
Li1851 Li 0.54681 0.13009 0.92442 0.0
C1852 C 0.57732 0.12501 0.98263 0.0
N1853 N 0.60537 0.12606 0.99878 0.0
C1854 C 0.57882 0.11105 0.98161 0.0
C1855 C 0.59002 0.13947 0.992 0.0
C1856 C 0.59312 0.11184 0.98985 0.0
C1857 C 0.60413 0.13976 1e-05 0.0
C1858 C 0.51817 0.10736 0.96031 0.0
C1859 C 0.49395 0.081 0.95577 0.0
N1860 N 0.49039 0.08123 0.97892 0.0
C1861 C 0.51426 0.10736 0.98405 0.0
C1862 C 0.50791 0.09412 0.946 0.0
C1863 C 0.50016 0.09403 0.99312 0.0
C1864 C 0.53973 0.15508 0.98594 0.0
N1865 N 0.54921 0.14841 0.99097 0.0
C1866 C 0.55401 0.1594 0.02994 0.0
C1867 C 0.55619 0.1502 0.01252 0.0
C1868 C 0.54483 0.16694 0.02479 0.0
C1869 C 0.53758 0.16467 0.00257 0.0
H1870 H 0.53409 0.15316 0.96879 0.0
H1871 H 0.56352 0.14461 0.0161 0.0
C1872 C 0.53554 0.07768 0.939 0.0
N1873 N 0.53676 0.08755 0.95717 0.0
C1874 C 0.52756 0.06082 0.94202 0.0
C1875 C 0.5228 0.06458 0.98278 0.0
C1876 C 0.53087 0.08143 0.97892 0.0
C1877 C 0.52089 0.05405 0.96405 0.0
H1878 H 0.54071 0.08287 0.92208 0.0
H1879 H 0.53221 0.08961 0.99315 0.0
C1880 C 0.56679 0.16542 0.94357 0.0
N1881 N 0.57029 0.19531 0.9557 0.0
C1882 C 0.55743 0.17109 0.9323 0.0
C1883 C 0.57802 0.17502 0.96089 0.0
C1884 C 0.55937 0.18623 0.93869 0.0
C1885 C 0.57956 0.19007 0.96683 0.0
C1886 C 0.55716 0.11516 0.89667 0.0
C1887 C 0.57099 0.1245 0.88281 0.0
C1888 C 0.54238 0.10419 0.88586 0.0
C1889 C 0.56979 0.12271 0.85835 0.0
C1890 C 0.54168 0.10279 0.86134 0.0
N1891 N 0.55529 0.112 0.84821 0.0
C1892 C 0.59994 0.1321 0.93145 0.0
C1893 C 0.60517 0.15931 0.93445 0.0
C1894 C 0.61596 0.13761 0.92417 0.0
N1895 N 0.59486 0.14295 0.93611 0.0
C1896 C 0.62129 0.16536 0.92732 0.0
C1897 C 0.62678 0.15445 0.92164 0.0
H1898 H 0.59137 0.11914 0.93259 0.0
H1899 H 0.60072 0.16764 0.93779 0.0
C1900 C 0.52063 0.12648 0.89637 0.0
N1901 N 0.53712 0.13336 0.89725 0.0
C1902 C 0.51321 0.12903 0.87688 0.0
C1903 C 0.5399 0.1456 0.8595 0.0
C1904 C 0.54681 0.14281 0.87941 0.0
C1905 C 0.52288 0.13879 0.85815 0.0
H1906 H 0.51325 0.11926 0.91099 0.0
H1907 H 0.55992 0.14829 0.88077 0.0
O1908 O 0.56358 0.12458 0.9742 0.0
O1909 O 0.53206 0.12017 0.95118 0.0
O1910 O 0.56487 0.15051 0.93782 0.0
O1911 O 0.55802 0.11688 0.92065 0.0
H1912 H 0.56912 0.09978 0.97433 0.0
H1913 H 0.58906 0.15039 0.99282 0.0
H1914 H 0.59449 0.10116 0.98908 0.0
H1915 H 0.61411 0.1509 0.00717 0.0
H1916 H 0.48597 0.07062 0.94495 0.0
H1917 H 0.52209 0.11746 0.9954 0.0
H1918 H 0.51083 0.09386 0.92765 0.0
H1919 H 0.49702 0.09383 0.01148 0.0
H1920 H 0.55968 0.16089 0.04703 0.0
H1921 H 0.53026 0.17018 0.9982 0.0
H1922 H 0.5267 0.05316 0.92728 0.0
H1923 H 0.51781 0.05983 3e-05 0.0
H1924 H 0.54863 0.16381 0.91893 0.0
H1925 H 0.58526 0.17077 0.96994 0.0
H1926 H 0.55215 0.19072 0.93019 0.0
H1927 H 0.5881 0.19755 0.98034 0.0
H1928 H 0.58249 0.13317 0.89078 0.0
H1929 H 0.5315 0.09703 0.89626 0.0
H1930 H 0.58038 0.1299 0.84741 0.0
H1931 H 0.5303 0.09443 0.85275 0.0
H1932 H 0.61973 0.12881 0.92005 0.0
H1933 H 0.62913 0.17841 0.92519 0.0
H1934 H 0.50008 0.12384 0.87687 0.0
H1935 H 0.54782 0.1531 0.84542 0.0
Li1936 Li 0.86249 0.4161 0.96572 0.0
Li1937 Li 0.88788 0.43835 0.94864 0.0
Li1938 Li 0.86217 0.4369 0.94284 0.0
Li1939 Li 0.86697 0.41662 0.92275 0.0
C1940 C 0.87184 0.45219 0.98139 0.0
N1941 N 0.86743 0.47752 0.99624 0.0
C1942 C 0.88324 0.46828 0.97543 0.0
C1943 C 0.85822 0.44896 0.99496 0.0
C1944 C 0.88079 0.48093 0.9831 0.0
C1945 C 0.8562 0.46195 0.00228 0.0
C1946 C 0.88926 0.40834 0.95636 0.0
C1947 C 0.90589 0.39602 0.94947 0.0
N1948 N 0.90836 0.39599 0.97306 0.0
C1949 C 0.89185 0.40806 0.98054 0.0
C1950 C 0.89622 0.40216 0.94069 0.0
C1951 C 0.90159 0.40182 0.98863 0.0
C1952 C 0.84733 0.3851 0.98749 0.0
N1953 N 0.85401 0.40137 0.99163 0.0
C1954 C 0.85048 0.39672 0.0331 0.0
C1955 C 0.85562 0.40733 0.01385 0.0
C1956 C 0.8435 0.37986 0.02933 0.0
C1957 C 0.84174 0.37404 0.00618 0.0
H1958 H 0.84657 0.38075 0.96967 0.0
H1959 H 0.86127 0.42034 0.01664 0.0
C1960 C 0.919 0.46641 0.94027 0.0
N1961 N 0.91063 0.45307 0.95427 0.0
C1962 C 0.93529 0.47775 0.94499 0.0
C1963 C 0.934 0.46187 0.97906 0.0
C1964 C 0.91774 0.45077 0.97356 0.0
C1965 C 0.94301 0.47562 0.96469 0.0
H1966 H 0.91298 0.46854 0.92571 0.0
H1967 H 0.91068 0.4406 0.98516 0.0
C1968 C 0.83287 0.40007 0.94685 0.0
N1969 N 0.80429 0.37319 0.96203 0.0
C1970 C 0.82626 0.38536 0.93443 0.0
C1971 C 0.82483 0.40115 0.96685 0.0
C1972 C 0.81182 0.3719 0.94242 0.0
C1973 C 0.81044 0.38741 0.97429 0.0
C1974 C 0.88972 0.4446 0.90014 0.0
C1975 C 0.89043 0.45489 0.88193 0.0
C1976 C 0.89991 0.43785 0.89944 0.0
C1977 C 0.90139 0.45831 0.8634 0.0
C1978 C 0.91072 0.44158 0.88062 0.0
N1979 N 0.91123 0.45165 0.86313 0.0
C1980 C 0.86028 0.46272 0.92238 0.0
C1981 C 0.83637 0.4441 0.94307 0.0
C1982 C 0.85214 0.47004 0.91208 0.0
N1983 N 0.85211 0.44958 0.93674 0.0
C1984 C 0.82782 0.45121 0.93347 0.0
C1985 C 0.83547 0.46383 0.9168 0.0
H1986 H 0.87282 0.46682 0.91772 0.0
H1987 H 0.83016 0.43363 0.95449 0.0
C1988 C 0.86065 0.38886 0.89514 0.0
N1989 N 0.86259 0.40409 0.89489 0.0
C1990 C 0.8554 0.37917 0.87486 0.0
C1991 C 0.85518 0.40144 0.85429 0.0
C1992 C 0.86006 0.41051 0.87502 0.0
C1993 C 0.8523 0.38535 0.85412 0.0
H1994 H 0.86246 0.38397 0.91136 0.0
H1995 H 0.86135 0.42252 0.87543 0.0
O1996 O 0.87382 0.43963 0.97349 0.0
O1997 O 0.87954 0.41414 0.94804 0.0
O1998 O 0.84709 0.41333 0.93942 0.0
O1999 O 0.87883 0.44094 0.91821 0.0
H2000 H 0.89378 0.47097 0.9648 0.0
H2001 H 0.84924 0.43657 -0.00039 0.0
H2002 H 0.88947 0.49344 0.97854 0.0
H2003 H 0.84569 0.45964 0.0127 0.0
H2004 H 0.9114 0.39125 0.93753 0.0
H2005 H 0.88658 0.41279 0.99295 0.0
H2006 H 0.89417 0.40207 0.92193 0.0
H2007 H 0.90378 0.40162 0.0073 0.0
H2008 H 0.85206 0.40163 0.05075 0.0
H2009 H 0.83665 0.36113 0.00265 0.0
H2010 H 0.94173 0.48813 0.93336 0.0
H2011 H 0.93928 0.45995 0.9948 0.0
H2012 H 0.83221 0.38433 0.91881 0.0
H2013 H 0.82985 0.41237 0.97683 0.0
H2014 H 0.80661 0.36043 0.93302 0.0
H2015 H 0.8042 0.38803 0.98988 0.0
H2016 H 0.88251 0.46009 0.88201 0.0
H2017 H 0.89959 0.42992 0.91333 0.0
H2018 H 0.90205 0.46624 0.8492 0.0
H2019 H 0.9187 0.43647 0.87992 0.0
H2020 H 0.85858 0.47964 0.89927 0.0
H2021 H 0.8151 0.44628 0.93811 0.0
H2022 H 0.8531 0.36677 0.8758 0.0
H2023 H 0.85331 0.4069 0.83871 0.0
Li2024 Li 0.58177 0.44028 0.96549 0.0
Li2025 Li 0.56446 0.45093 0.95376 0.0
Li2026 Li 0.55919 0.42323 0.93978 0.0
Li2027 Li 0.58284 0.4489 0.92626 0.0
C2028 C 0.55194 0.41971 0.99034 0.0
N2029 N 0.53924 0.39753 0.02692 0.0
C2030 C 0.54763 0.42408 0.01153 0.0
C2031 C 0.54963 0.40399 0.98768 0.0
C2032 C 0.54129 0.41272 0.02984 0.0
C2033 C 0.54323 0.39297 0.0064 0.0
C2034 C 0.59357 0.47354 0.97292 0.0
C2035 C 0.61189 0.49998 0.98959 0.0
N2036 N 0.60371 0.49507 0.01039 0.0
C2037 C 0.58535 0.46877 0.99447 0.0
C2038 C 0.60695 0.48928 0.97045 0.0
C2039 C 0.59066 0.47982 0.01319 0.0
C2040 C 0.61151 0.45364 0.98962 0.0
N2041 N 0.59588 0.44098 0.99067 0.0
C2042 C 0.60127 0.43277 0.02789 0.0
C2043 C 0.59079 0.43033 0.00905 0.0
C2044 C 0.61716 0.44635 0.02792 0.0
C2045 C 0.62234 0.45664 0.00814 0.0
H2046 H 0.61545 0.46177 0.97462 0.0
H2047 H 0.57857 0.42009 0.00946 0.0
C2048 C 0.54028 0.45578 0.97507 0.0
N2049 N 0.55441 0.46306 0.96255 0.0
C2050 C 0.53314 0.46485 0.9825 0.0
C2051 C 0.55516 0.48865 0.96373 0.0
C2052 C 0.56185 0.47912 0.95664 0.0
C2053 C 0.54068 0.48156 0.97698 0.0
H2054 H 0.53467 0.44296 0.97949 0.0
H2055 H 0.57307 0.48454 0.94662 0.0
C2056 C 0.59425 0.42547 0.94212 0.0
N2057 N 0.61897 0.41964 0.95542 0.0
C2058 C 0.61049 0.43684 0.93685 0.0
C2059 C 0.59056 0.41107 0.95397 0.0
C2060 C 0.62282 0.43368 0.94376 0.0
C2061 C 0.60324 0.40837 0.9606 0.0
C2062 C 0.55872 0.44518 0.89896 0.0
C2063 C 0.55449 0.43331 0.88151 0.0
C2064 C 0.56303 0.46112 0.89266 0.0
C2065 C 0.55477 0.43765 0.85793 0.0
C2066 C 0.56319 0.46498 0.86888 0.0
N2067 N 0.5591 0.45326 0.85215 0.0
C2068 C 0.52683 0.39879 0.9316 0.0
C2069 C 0.54678 0.39244 0.91828 0.0
C2070 C 0.51438 0.38456 0.92139 0.0
N2071 N 0.54263 0.40252 0.92953 0.0
C2072 C 0.53473 0.37808 0.90783 0.0
C2073 C 0.51831 0.37416 0.90889 0.0
H2074 H 0.52398 0.40717 0.94052 0.0
H2075 H 0.5595 0.3959 0.91665 0.0
C2076 C 0.6053 0.47548 0.89876 0.0
N2077 N 0.59601 0.45896 0.89949 0.0
C2078 C 0.61518 0.48316 0.87928 0.0
C2079 C 0.6054 0.45665 0.86144 0.0
C2080 C 0.59585 0.44948 0.8814 0.0
C2081 C 0.61538 0.47373 0.86026 0.0
H2082 H 0.60508 0.48268 0.91339 0.0
H2083 H 0.58826 0.43635 0.88249 0.0
O2084 O 0.55788 0.4306 0.97209 0.0
O2085 O 0.58867 0.46293 0.95426 0.0
O2086 O 0.58207 0.42855 0.93605 0.0
O2087 O 0.55896 0.44129 0.92208 0.0
H2088 H 0.54912 0.43611 0.01381 0.0
H2089 H 0.55294 0.40038 0.97151 0.0
H2090 H 0.53795 0.41596 0.04636 0.0
H2091 H 0.54148 0.3808 0.00463 0.0
H2092 H 0.62224 0.5122 0.98792 0.0
H2093 H 0.57504 0.45666 0.99678 0.0
H2094 H 0.6135 0.49317 0.95394 0.0
H2095 H 0.58441 0.47626 0.02995 0.0
H2096 H 0.59686 0.42425 0.04246 0.0
H2097 H 0.63441 0.46731 0.00731 0.0
H2098 H 0.52206 0.45894 0.99288 0.0
H2099 H 0.56125 0.50143 0.95882 0.0
H2100 H 0.61355 0.44809 0.9278 0.0
H2101 H 0.57805 0.40213 0.95813 0.0
H2102 H 0.63545 0.44242 0.93994 0.0
H2103 H 0.60058 0.39733 0.96989 0.0
H2104 H 0.55118 0.42093 0.88611 0.0
H2105 H 0.56641 0.47045 0.90598 0.0
H2106 H 0.5516 0.42862 0.84421 0.0
H2107 H 0.56661 0.47729 0.86372 0.0
H2108 H 0.50188 0.38192 0.92279 0.0
H2109 H 0.53834 0.37056 0.89806 0.0
H2110 H 0.62285 0.49632 0.87942 0.0
H2111 H 0.60493 0.44888 0.8471 0.0
Li2112 Li 0.53344 0.78363 0.76009 0.0
Li2113 Li 0.52389 0.77497 0.80094 0.0
Li2114 Li 0.55323 0.78558 0.78931 0.0
Li2115 Li 0.53193 0.75829 0.77688 0.0
C2116 C 0.54134 0.81154 0.78439 0.0
N2117 N 0.54309 0.84094 0.7743 0.0
C2118 C 0.52873 0.81428 0.79128 0.0
C2119 C 0.55492 0.82379 0.7726 0.0
C2120 C 0.52982 0.82922 0.78596 0.0
C2121 C 0.55555 0.83856 0.76759 0.0
C2122 C 0.49762 0.75302 0.77037 0.0
C2123 C 0.47379 0.72705 0.77902 0.0
N2124 N 0.46424 0.73224 0.76858 0.0
C2125 C 0.48759 0.75807 0.75963 0.0
C2126 C 0.49069 0.73736 0.78008 0.0
C2127 C 0.47074 0.74739 0.75894 0.0
C2128 C 0.53631 0.79039 0.71156 0.0
N2129 N 0.53006 0.79245 0.732 0.0
C2130 C 0.51731 0.80512 0.71139 0.0
C2131 C 0.52067 0.7996 0.73227 0.0
C2132 C 0.52344 0.80298 0.68998 0.0
C2133 C 0.53313 0.79558 0.69021 0.0
H2134 H 0.54343 0.78433 0.71174 0.0
H2135 H 0.51534 0.80056 0.74857 0.0
C2136 C 0.51907 0.78696 0.84271 0.0
N2137 N 0.51065 0.77584 0.82559 0.0
C2138 C 0.51079 0.78971 0.86085 0.0
C2139 C 0.48528 0.76915 0.84388 0.0
C2140 C 0.49406 0.76687 0.82596 0.0
C2141 C 0.49365 0.78084 0.86146 0.0
H2142 H 0.53226 0.79393 0.84195 0.0
H2143 H 0.48754 0.75815 0.81225 0.0
C2144 C 0.56377 0.78018 0.74691 0.0
N2145 N 0.5935 0.7893 0.72607 0.0
C2146 C 0.56881 0.76871 0.74379 0.0
C2147 C 0.57373 0.79623 0.7392 0.0
C2148 C 0.58392 0.77358 0.73326 0.0
C2149 C 0.58876 0.80062 0.72879 0.0
C2150 C 0.53596 0.75451 0.82518 0.0
C2151 C 0.54894 0.753 0.834 0.0
C2152 C 0.52005 0.7437 0.83264 0.0
C2153 C 0.54573 0.74048 0.84992 0.0
C2154 C 0.51734 0.73134 0.84858 0.0
N2155 N 0.53012 0.72999 0.85679 0.0
C2156 C 0.57948 0.81254 0.81109 0.0
C2157 C 0.58608 0.79321 0.796 0.0
C2158 C 0.59554 0.82257 0.81858 0.0
N2159 N 0.57514 0.7983 0.79976 0.0
C2160 C 0.60235 0.80302 0.80268 0.0
C2161 C 0.60735 0.81801 0.8141 0.0
H2162 H 0.57043 0.81611 0.81435 0.0
H2163 H 0.58221 0.7816 0.78762 0.0
C2164 C 0.51753 0.73104 0.74859 0.0
N2165 N 0.52712 0.73699 0.768 0.0
C2166 C 0.51363 0.71583 0.73952 0.0
C2167 C 0.52983 0.7132 0.77028 0.0
C2168 C 0.53339 0.72851 0.77884 0.0
C2169 C 0.51979 0.70668 0.75036 0.0
H2170 H 0.51309 0.73825 0.73996 0.0
H2171 H 0.54138 0.73369 0.79382 0.0
O2172 O 0.54051 0.797 0.78947 0.0
O2173 O 0.51415 0.76327 0.77098 0.0
O2174 O 0.54906 0.77565 0.75727 0.0
O2175 O 0.53892 0.76669 0.80962 0.0
H2176 H 0.51812 0.80492 0.8004 0.0
H2177 H 0.56488 0.82194 0.76743 0.0
H2178 H 0.52011 0.83148 0.79105 0.0
H2179 H 0.56596 0.84814 0.7584 0.0
H2180 H 0.46826 0.71492 0.7865 0.0
H2181 H 0.49276 0.77011 0.75195 0.0
H2182 H 0.49826 0.7332 0.78834 0.0
H2183 H 0.46282 0.75115 0.75073 0.0
H2184 H 0.50948 0.81042 0.71188 0.0
H2185 H 0.53804 0.79369 0.67406 0.0
H2186 H 0.51772 0.79871 0.87423 0.0
H2187 H 0.47207 0.76216 0.84359 0.0
H2188 H 0.56119 0.75622 0.74957 0.0
H2189 H 0.56991 0.80518 0.74127 0.0
H2190 H 0.58803 0.76486 0.73083 0.0
H2191 H 0.59664 0.81301 0.72284 0.0
H2192 H 0.56135 0.76136 0.82847 0.0
H2193 H 0.50991 0.74487 0.82626 0.0
H2194 H 0.55563 0.73909 0.85679 0.0
H2195 H 0.50507 0.72285 0.85446 0.0
H2196 H 0.59858 0.83372 0.82791 0.0
H2197 H 0.61092 0.79896 0.79854 0.0
H2198 H 0.5062 0.7115 0.72377 0.0
H2199 H 0.53488 0.70656 0.77911 0.0
Li2200 Li 0.21429 0.76888 0.79157 0.0
Li2201 Li 0.23809 0.76776 0.77598 0.0
Li2202 Li 0.21053 0.74838 0.76353 0.0
Li2203 Li 0.21788 0.74524 0.80319 0.0
C2204 C 0.21525 0.77638 0.7418 0.0
N2205 N 0.1999 0.78394 0.70667 0.0
C2206 C 0.22418 0.78585 0.72255 0.0
C2207 C 0.19853 0.77083 0.74322 0.0
C2208 C 0.21619 0.78952 0.70496 0.0
C2209 C 0.19099 0.77476 0.72529 0.0
C2210 C 0.24139 0.78393 0.82099 0.0
C2211 C 0.25196 0.7998 0.85647 0.0
N2212 N 0.25865 0.81373 0.84342 0.0
C2213 C 0.24835 0.79839 0.80792 0.0
C2214 C 0.24315 0.78461 0.84545 0.0
C2215 C 0.25703 0.81334 0.81959 0.0
C2216 C 0.19745 0.78037 0.8205 0.0
N2217 N 0.20769 0.78383 0.80187 0.0
C2218 C 0.20943 0.80969 0.79655 0.0
C2219 C 0.21375 0.79816 0.78999 0.0
C2220 C 0.19891 0.80657 0.81577 0.0
C2221 C 0.19287 0.79164 0.8278 0.0
H2222 H 0.1929 0.76888 0.82971 0.0
H2223 H 0.22199 0.80069 0.77537 0.0
C2224 C 0.26176 0.78189 0.742 0.0
N2225 N 0.25998 0.78012 0.7657 0.0
C2226 C 0.27719 0.79116 0.73209 0.0
C2227 C 0.28882 0.79657 0.77123 0.0
C2228 C 0.27307 0.78711 0.78042 0.0
C2229 C 0.291 0.79867 0.74672 0.0
H2230 H 0.25112 0.77602 0.73078 0.0
H2231 H 0.27129 0.7854 0.79924 0.0
C2232 C 0.18188 0.73383 0.79416 0.0
N2233 N 0.14922 0.71033 0.79677 0.0
C2234 C 0.17726 0.71749 0.7982 0.0
C2235 C 0.16988 0.73825 0.79192 0.0
C2236 C 0.16069 0.70579 0.79934 0.0
C2237 C 0.15343 0.72618 0.79315 0.0
C2238 C 0.22676 0.73192 0.75847 0.0
C2239 C 0.21339 0.71609 0.76005 0.0
C2240 C 0.23861 0.73556 0.74118 0.0
C2241 C 0.2119 0.70426 0.74395 0.0
C2242 C 0.23671 0.72338 0.72543 0.0
N2243 N 0.22349 0.70812 0.7271 0.0
C2244 C 0.20929 0.74082 0.71626 0.0
C2245 C 0.18358 0.72483 0.73459 0.0
C2246 C 0.20363 0.7317 0.69563 0.0
N2247 N 0.19947 0.73689 0.73549 0.0
C2248 C 0.17732 0.71551 0.71416 0.0
C2249 C 0.18755 0.71853 0.69457 0.0
H2250 H 0.22185 0.75057 0.71739 0.0
H2251 H 0.17585 0.72203 0.7498 0.0
C2252 C 0.20501 0.72633 0.84491 0.0
N2253 N 0.21535 0.72974 0.82642 0.0
C2254 C 0.20145 0.71316 0.85977 0.0
C2255 C 0.21966 0.7077 0.83666 0.0
C2256 C 0.22296 0.72101 0.82241 0.0
C2257 C 0.20851 0.70342 0.8553 0.0
H2258 H 0.199 0.7334 0.84749 0.0
H2259 H 0.23115 0.72402 0.8076 0.0
O2260 O 0.22275 0.77228 0.75891 0.0
O2261 O 0.23272 0.76917 0.80995 0.0
O2262 O 0.19805 0.74552 0.7932 0.0
O2263 O 0.2282 0.74381 0.77368 0.0
H2264 H 0.23715 0.79035 0.7212 0.0
H2265 H 0.19146 0.76345 0.75791 0.0
H2266 H 0.22295 0.7968 0.68994 0.0
H2267 H 0.17804 0.77048 0.72614 0.0
H2268 H 0.25345 0.80052 0.87539 0.0
H2269 H 0.24701 0.79807 0.78897 0.0
H2270 H 0.23777 0.77351 0.8558 0.0
H2271 H 0.26247 0.82462 0.8097 0.0
H2272 H 0.21417 0.82085 0.78645 0.0
H2273 H 0.18488 0.78878 0.84287 0.0
H2274 H 0.27824 0.79263 0.71314 0.0
H2275 H 0.29916 0.80204 0.7831 0.0
H2276 H 0.18633 0.71385 0.80046 0.0
H2277 H 0.1732 0.75087 0.78938 0.0
H2278 H 0.15695 0.69309 0.80232 0.0
H2279 H 0.14402 0.72942 0.79132 0.0
H2280 H 0.20417 0.71303 0.77337 0.0
H2281 H 0.24912 0.74768 0.73983 0.0
H2282 H 0.20152 0.69202 0.74482 0.0
H2283 H 0.24574 0.72606 0.71187 0.0
H2284 H 0.21207 0.73444 0.68117 0.0
H2285 H 0.16472 0.70575 0.71399 0.0
H2286 H 0.19268 0.71016 0.87385 0.0
H2287 H 0.22551 0.70061 0.83282 0.0
Li2288 Li 0.25017 0.4625 0.75404 0.0
Li2289 Li 0.25136 0.471 0.79615 0.0
Li2290 Li 0.23155 0.4438 0.78394 0.0
Li2291 Li 0.22824 0.4664 0.77322 0.0
C2292 C 0.2589 0.44186 0.78347 0.0
N2293 N 0.26457 0.41597 0.78637 0.0
C2294 C 0.26311 0.43786 0.80502 0.0
C2295 C 0.25758 0.43274 0.76339 0.0
C2296 C 0.26593 0.42472 0.80612 0.0
C2297 C 0.26048 0.41968 0.76522 0.0
C2298 C 0.26416 0.49814 0.7726 0.0
C2299 C 0.27522 0.52287 0.79563 0.0
N2300 N 0.2899 0.52845 0.78483 0.0
C2301 C 0.27933 0.5042 0.76162 0.0
C2302 C 0.26205 0.50761 0.78963 0.0
C2303 C 0.29219 0.51952 0.76807 0.0
C2304 C 0.25534 0.46521 0.70513 0.0
N2305 N 0.26237 0.46568 0.72617 0.0
C2306 C 0.28796 0.47395 0.70753 0.0
C2307 C 0.27825 0.46959 0.72771 0.0
C2308 C 0.28118 0.47395 0.68544 0.0
C2309 C 0.26446 0.46902 0.68443 0.0
H2310 H 0.2427 0.46219 0.7045 0.0
H2311 H 0.28354 0.47005 0.74478 0.0
C2312 C 0.26019 0.48458 0.8417 0.0
N2313 N 0.26617 0.48287 0.82081 0.0
C2314 C 0.27061 0.4918 0.86083 0.0
C2315 C 0.29325 0.4957 0.83645 0.0
C2316 C 0.28236 0.48837 0.81778 0.0
C2317 C 0.28734 0.49718 0.85848 0.0
H2318 H 0.24724 0.47989 0.84373 0.0
H2319 H 0.28672 0.48662 0.80103 0.0
C2320 C 0.21491 0.43352 0.74318 0.0
N2321 N 0.19246 0.40333 0.72513 0.0
C2322 C 0.19923 0.42482 0.75277 0.0
C2323 C 0.21918 0.42682 0.72442 0.0
C2324 C 0.18806 0.40959 0.74343 0.0
C2325 C 0.20765 0.41156 0.71552 0.0
C2326 C 0.21496 0.45872 0.81423 0.0
C2327 C 0.19975 0.44443 0.81543 0.0
C2328 C 0.21645 0.47349 0.82169 0.0
C2329 C 0.18628 0.44519 0.82389 0.0
C2330 C 0.20268 0.47376 0.82999 0.0
N2331 N 0.188 0.45972 0.8309 0.0
C2332 C 0.21901 0.42021 0.81907 0.0
C2333 C 0.21833 0.4086 0.78184 0.0
C2334 C 0.21223 0.40493 0.8298 0.0
N2335 N 0.22165 0.42176 0.79544 0.0
C2336 C 0.21142 0.39303 0.79183 0.0
C2337 C 0.20825 0.39107 0.81613 0.0
H2338 H 0.22222 0.4309 0.82965 0.0
H2339 H 0.22123 0.41014 0.76333 0.0
C2340 C 0.22066 0.49056 0.76108 0.0
N2341 N 0.21369 0.47436 0.76595 0.0
C2342 C 0.21109 0.49716 0.75384 0.0
C2343 C 0.18722 0.47031 0.75678 0.0
C2344 C 0.19727 0.46425 0.76416 0.0
C2345 C 0.19417 0.48695 0.7513 0.0
H2346 H 0.23373 0.49831 0.76212 0.0
H2347 H 0.19196 0.45144 0.76806 0.0
O2348 O 0.25598 0.45461 0.78206 0.0
O2349 O 0.25149 0.48299 0.76687 0.0
O2350 O 0.22597 0.44855 0.75192 0.0
O2351 O 0.22827 0.45828 0.80569 0.0
H2352 H 0.26415 0.44482 0.82071 0.0
H2353 H 0.25417 0.43559 0.74662 0.0
H2354 H 0.26921 0.42146 0.82268 0.0
H2355 H 0.25943 0.41246 0.74985 0.0
H2356 H 0.27377 0.53025 0.8089 0.0
H2357 H 0.28118 0.49717 0.74827 0.0
H2358 H 0.25043 0.50317 0.79831 0.0
H2359 H 0.30401 0.52431 0.75977 0.0
H2360 H 0.3008 0.47795 0.70951 0.0
H2361 H 0.2585 0.46842 0.66789 0.0
H2362 H 0.26558 0.49282 0.87744 0.0
H2363 H 0.30601 0.49948 0.83397 0.0
H2364 H 0.19579 0.42961 0.76753 0.0
H2365 H 0.23129 0.43321 0.71692 0.0
H2366 H 0.17592 0.40271 0.75079 0.0
H2367 H 0.2108 0.40623 0.70103 0.0
H2368 H 0.1983 0.43287 0.80975 0.0
H2369 H 0.22807 0.48468 0.82089 0.0
H2370 H 0.17444 0.43423 0.82482 0.0
H2371 H 0.20365 0.48513 0.83566 0.0
H2372 H 0.20997 0.40397 0.84859 0.0
H2373 H 0.20885 0.3827 0.78075 0.0
H2374 H 0.21698 0.51 0.74937 0.0
H2375 H 0.17421 0.46207 0.75512 0.0
Li2376 Li 0.42684 0.86482 0.05794 0.0
Li2377 Li 0.4529 0.88726 0.04335 0.0
Li2378 Li 0.44527 0.85885 0.03474 0.0
Li2379 Li 0.45319 0.87077 0.07476 0.0
C2380 C 0.42215 0.87024 0.01102 0.0
N2381 N 0.39765 0.86936 0.98348 0.0
C2382 C 0.42126 0.88441 0.00757 0.0
C2383 C 0.41073 0.85568 0.00021 0.0
C2384 C 0.40874 0.8837 0.99366 0.0
C2385 C 0.39839 0.85547 0.98643 0.0
C2386 C 0.44523 0.88998 0.09753 0.0
C2387 C 0.46288 0.90606 0.12932 0.0
N2388 N 0.44984 0.89964 0.14415 0.0
C2389 C 0.43199 0.88363 0.11305 0.0
C2390 C 0.46079 0.90138 0.10567 0.0
C2391 C 0.43458 0.88864 0.13656 0.0
C2392 C 0.39709 0.84514 0.08104 0.0
N2393 N 0.40487 0.85806 0.06619 0.0
C2394 C 0.38288 0.8636 0.06898 0.0
C2395 C 0.39809 0.86726 0.06002 0.0
C2396 C 0.37475 0.85058 0.08487 0.0
C2397 C 0.38196 0.84113 0.09056 0.0
H2398 H 0.40302 0.83846 0.08655 0.0
H2399 H 0.40478 0.87787 0.04902 0.0
C2400 C 0.46572 0.91027 0.00667 0.0
N2401 N 0.46259 0.90846 0.03016 0.0
C2402 C 0.47176 0.92555 0.99614 0.0
C2403 C 0.47132 0.93678 0.03421 0.0
C2404 C 0.46533 0.92129 0.04401 0.0
C2405 C 0.47445 0.93902 0.00991 0.0
H2406 H 0.46321 0.89977 0.99607 0.0
H2407 H 0.46246 0.91942 0.06256 0.0
C2408 C 0.42638 0.83286 0.06497 0.0
N2409 N 0.41035 0.79918 0.06338 0.0
C2410 C 0.43141 0.82427 0.07949 0.0
C2411 C 0.41316 0.82435 0.04976 0.0
C2412 C 0.42316 0.80723 0.0784 0.0
C2413 C 0.40522 0.80731 0.04919 0.0
C2414 C 0.48066 0.88841 0.03549 0.0
C2415 C 0.48399 0.8864 0.01215 0.0
C2416 C 0.49148 0.90258 0.04772 0.0
C2417 C 0.49804 0.89872 0.00132 0.0
C2418 C 0.50538 0.91463 0.03626 0.0
N2419 N 0.50834 0.91247 0.01349 0.0
C2420 C 0.4453 0.84676 0.98932 0.0
C2421 C 0.45001 0.8329 0.02045 0.0
C2422 C 0.4475 0.83716 0.97266 0.0
N2423 N 0.44666 0.84451 0.01268 0.0
C2424 C 0.45189 0.82277 0.00445 0.0
C2425 C 0.45082 0.82501 0.98025 0.0
H2426 H 0.44292 0.8563 0.98365 0.0
H2427 H 0.45157 0.83172 0.03905 0.0
C2428 C 0.45366 0.86239 0.12212 0.0
N2429 N 0.46313 0.86917 0.10277 0.0
C2430 C 0.46021 0.85937 0.14223 0.0
C2431 C 0.48611 0.87033 0.12201 0.0
C2432 C 0.47912 0.87335 0.10242 0.0
C2433 C 0.47653 0.86303 0.14208 0.0
H2434 H 0.44086 0.85879 0.12162 0.0
H2435 H 0.48626 0.87846 0.08662 0.0
O2436 O 0.4344 0.87072 0.02439 0.0
O2437 O 0.44299 0.88507 0.07451 0.0
O2438 O 0.43442 0.84954 0.06566 0.0
O2439 O 0.46681 0.87664 0.04624 0.0
H2440 H 0.43001 0.89579 0.01578 0.0
H2441 H 0.41143 0.84468 0.00233 0.0
H2442 H 0.40783 0.89454 0.99097 0.0
H2443 H 0.38942 0.84428 0.97802 0.0
H2444 H 0.47487 0.91478 0.13589 0.0
H2445 H 0.41985 0.87487 0.10707 0.0
H2446 H 0.47117 0.90642 0.09392 0.0
H2447 H 0.42445 0.88377 0.14879 0.0
H2448 H 0.37779 0.87121 0.06407 0.0
H2449 H 0.37642 0.83128 0.10323 0.0
H2450 H 0.47418 0.92676 0.97739 0.0
H2451 H 0.47296 0.94675 0.04543 0.0
H2452 H 0.44164 0.83071 0.09136 0.0
H2453 H 0.40906 0.83084 0.03858 0.0
H2454 H 0.42694 0.80041 0.08946 0.0
H2455 H 0.39499 0.80056 0.03747 0.0
H2456 H 0.47577 0.87551 0.00243 0.0
H2457 H 0.4891 0.90431 0.06581 0.0
H2458 H 0.50073 0.89736 0.98322 0.0
H2459 H 0.5138 0.9257 0.04547 0.0
H2460 H 0.44669 0.83924 0.95407 0.0
H2461 H 0.45471 0.81367 0.01085 0.0
H2462 H 0.45239 0.85346 0.15724 0.0
H2463 H 0.49873 0.87325 0.12129 0.0
Li2464 Li 0.13992 0.58007 0.03283 0.0
Li2465 Li 0.12999 0.57963 0.07248 0.0
Li2466 Li 0.1327 0.55716 0.05903 0.0
Li2467 Li 0.11079 0.56174 0.0432 0.0
C2468 C 0.16382 0.5952 0.06714 0.0
N2469 N 0.19051 0.62576 0.07531 0.0
C2470 C 0.16242 0.60917 0.06486 0.0
C2471 C 0.17881 0.59679 0.07362 0.0
C2472 C 0.17604 0.6245 0.06906 0.0
C2473 C 0.19216 0.61234 0.07764 0.0
C2474 C 0.11742 0.59582 0.03975 0.0
C2475 C 0.09573 0.60204 0.04373 0.0
N2476 N 0.10512 0.61651 0.03254 0.0
C2477 C 0.12683 0.61072 0.0282 0.0
C2478 C 0.10172 0.5914 0.04751 0.0
C2479 C 0.12041 0.62103 0.02477 0.0
C2480 C 0.14343 0.59124 0.98728 0.0
N2481 N 0.15247 0.59309 0.00686 0.0
C2482 C 0.17634 0.61445 0.98837 0.0
C2483 C 0.16875 0.60412 0.00754 0.0
C2484 C 0.16717 0.61302 0.9682 0.0
C2485 C 0.1506 0.60104 0.96755 0.0
H2486 H 0.13052 0.58238 0.98727 0.0
H2487 H 0.17583 0.60518 0.02299 0.0
C2488 C 0.14135 0.59075 0.11778 0.0
N2489 N 0.13276 0.5925 0.09994 0.0
C2490 C 0.14494 0.60023 0.13808 0.0
C2491 C 0.13081 0.61321 0.12132 0.0
C2492 C 0.12733 0.60334 0.10142 0.0
C2493 C 0.13985 0.6118 0.13987 0.0
H2494 H 0.14573 0.5822 0.11597 0.0
H2495 H 0.12062 0.60462 0.08705 0.0
C2496 C 0.13402 0.55087 0.01178 0.0
N2497 N 0.1504 0.5394 0.98466 0.0
C2498 C 0.1255 0.53837 0.99547 0.0
C2499 C 0.15087 0.55752 0.01436 0.0
C2500 C 0.134 0.53274 0.98192 0.0
C2501 C 0.15893 0.55157 0.00045 0.0
C2502 C 0.10869 0.55511 0.0982 0.0
C2503 C 0.1155 0.55023 0.11606 0.0
C2504 C 0.097 0.55949 0.10379 0.0
C2505 C 0.11064 0.55004 0.13934 0.0
C2506 C 0.09249 0.55916 0.12729 0.0
N2507 N 0.09935 0.55449 0.14443 0.0
C2508 C 0.15049 0.54524 0.0828 0.0
C2509 C 0.12682 0.52495 0.0633 0.0
C2510 C 0.15324 0.53334 0.09272 0.0
N2511 N 0.13735 0.54083 0.06869 0.0
C2512 C 0.1291 0.51262 0.07287 0.0
C2513 C 0.1423 0.51675 0.08813 0.0
H2514 H 0.15846 0.55796 0.0871 0.0
H2515 H 0.11639 0.52186 0.05216 0.0
C2516 C 0.08684 0.55816 0.01102 0.0
N2517 N 0.08933 0.55224 0.03144 0.0
C2518 C 0.07107 0.55191 0.00216 0.0
C2519 C 0.06081 0.53334 0.03527 0.0
C2520 C 0.07678 0.54004 0.04357 0.0
C2521 C 0.0578 0.53937 0.01438 0.0
H2522 H 0.09712 0.56787 0.00179 0.0
H2523 H 0.07919 0.53562 0.0598 0.0
O2524 O 0.15063 0.57998 0.06349 0.0
O2525 O 0.12347 0.5855 0.0429 0.0
O2526 O 0.12578 0.55628 0.02543 0.0
O2527 O 0.11356 0.55574 0.07538 0.0
H2528 H 0.15099 0.60826 0.05986 0.0
H2529 H 0.18013 0.58612 0.07548 0.0
H2530 H 0.17511 0.6354 0.06735 0.0
H2531 H 0.20383 0.61375 0.08263 0.0
H2532 H 0.08361 0.59879 0.04967 0.0
H2533 H 0.13898 0.61428 0.02197 0.0
H2534 H 0.09426 0.5799 0.05641 0.0
H2535 H 0.12756 0.63261 0.0159 0.0
H2536 H 0.1892 0.6235 0.98931 0.0
H2537 H 0.14316 0.59968 0.95228 0.0
H2538 H 0.15217 0.59896 0.15182 0.0
H2539 H 0.12664 0.62199 0.12209 0.0
H2540 H 0.11243 0.53305 0.99338 0.0
H2541 H 0.15766 0.56714 0.02698 0.0
H2542 H 0.12756 0.52305 0.96924 0.0
H2543 H 0.17197 0.5566 0.00224 0.0
H2544 H 0.12455 0.54679 0.11201 0.0
H2545 H 0.09158 0.56323 0.09015 0.0
H2546 H 0.11588 0.5464 0.15338 0.0
H2547 H 0.08354 0.56262 0.1319 0.0
H2548 H 0.1634 0.53708 0.10472 0.0
H2549 H 0.12044 0.49999 0.06876 0.0
H2550 H 0.06928 0.55676 0.98586 0.0
H2551 H 0.0509 0.5238 0.04532 0.0
Li2552 Li 0.43857 0.54861 0.04427 0.0
Li2553 Li 0.4389 0.57444 0.05454 0.0
Li2554 Li 0.41808 0.5486 0.06971 0.0
Li2555 Li 0.41745 0.55449 0.02898 0.0
C2556 C 0.44255 0.55695 0.09874 0.0
N2557 N 0.44246 0.55159 0.14659 0.0
C2558 C 0.44499 0.5692 0.11474 0.0
C2559 C 0.44028 0.54205 0.10708 0.0
C2560 C 0.44486 0.56624 0.13886 0.0
C2561 C 0.44021 0.53955 0.13133 0.0
C2562 C 0.44481 0.57836 0.00577 0.0
C2563 C 0.44241 0.60086 0.99051 0.0
N2564 N 0.45159 0.60168 0.97158 0.0
C2565 C 0.45423 0.57942 0.98618 0.0
C2566 C 0.43885 0.58916 0.008 0.0
C2567 C 0.45753 0.5913 0.96908 0.0
C2568 C 0.45057 0.53176 0.01708 0.0
N2569 N 0.45252 0.54027 0.03726 0.0
C2570 C 0.4763 0.53892 0.04736 0.0
C2571 C 0.46497 0.54382 0.05241 0.0
C2572 C 0.47485 0.53038 0.02642 0.0
C2573 C 0.46165 0.52662 0.0113 0.0
H2574 H 0.44058 0.52925 0.00531 0.0
H2575 H 0.46624 0.5507 0.06825 0.0
C2576 C 0.44781 0.60417 0.07694 0.0
N2577 N 0.45318 0.59653 0.06228 0.0
C2578 C 0.45886 0.61924 0.08679 0.0
C2579 C 0.48056 0.6187 0.06501 0.0
C2580 C 0.4691 0.60357 0.05574 0.0
C2581 C 0.47558 0.6265 0.08139 0.0
H2582 H 0.43511 0.59808 0.08214 0.0
H2583 H 0.47299 0.59706 0.04419 0.0
C2584 C 0.40653 0.51762 0.04688 0.0
N2585 N 0.38986 0.48435 0.05516 0.0
C2586 C 0.38996 0.50822 0.04119 0.0
C2587 C 0.41465 0.51003 0.05648 0.0
C2588 C 0.38174 0.49144 0.0456 0.0
C2589 C 0.406 0.49321 0.06061 0.0
C2590 C 0.39968 0.56361 0.05768 0.0
C2591 C 0.38652 0.54767 0.0563 0.0
C2592 C 0.39676 0.57662 0.06029 0.0
C2593 C 0.37062 0.54499 0.05753 0.0
C2594 C 0.38068 0.57345 0.06146 0.0
N2595 N 0.36805 0.55783 0.06006 0.0
C2596 C 0.40431 0.55105 0.11152 0.0
C2597 C 0.39644 0.52355 0.10308 0.0
C2598 C 0.39463 0.54633 0.13171 0.0
N2599 N 0.40494 0.53971 0.09753 0.0
C2600 C 0.38643 0.51825 0.12299 0.0
C2601 C 0.38535 0.52971 0.13747 0.0
H2602 H 0.4112 0.56383 0.10676 0.0
H2603 H 0.39721 0.5147 0.0921 0.0
C2604 C 0.39734 0.53597 0.99236 0.0
N2605 N 0.4031 0.55063 0.00326 0.0
C2606 C 0.38424 0.53038 0.9768 0.0
C2607 C 0.38412 0.55568 0.98236 0.0
C2608 C 0.39713 0.56071 0.99814 0.0
C2609 C 0.37727 0.54012 0.97216 0.0
H2610 H 0.40236 0.52824 0.99674 0.0
H2611 H 0.40183 0.57225 0.00722 0.0
O2612 O 0.44221 0.55947 0.07507 0.0
O2613 O 0.44151 0.56678 0.02263 0.0
O2614 O 0.41483 0.53405 0.04236 0.0
O2615 O 0.41537 0.56658 0.05623 0.0
H2616 H 0.44679 0.58081 0.10863 0.0
H2617 H 0.43847 0.53247 0.09499 0.0
H2618 H 0.44661 0.57557 0.15144 0.0
H2619 H 0.43834 0.52803 0.13803 0.0
H2620 H 0.43786 0.60929 0.992 0.0
H2621 H 0.45894 0.57113 0.98423 0.0
H2622 H 0.43155 0.58855 0.02304 0.0
H2623 H 0.4648 0.59226 0.95382 0.0
H2624 H 0.48613 0.54186 0.05967 0.0
H2625 H 0.46018 0.5202 0.99489 0.0
H2626 H 0.45446 0.62461 0.0996 0.0
H2627 H 0.49326 0.62394 0.06007 0.0
H2628 H 0.38348 0.51378 0.03339 0.0
H2629 H 0.42747 0.51699 0.06074 0.0
H2630 H 0.36891 0.48405 0.04137 0.0
H2631 H 0.41213 0.48721 0.06813 0.0
H2632 H 0.38857 0.53749 0.05433 0.0
H2633 H 0.40683 0.58905 0.06129 0.0
H2634 H 0.36032 0.5327 0.05647 0.0
H2635 H 0.37824 0.58341 0.06344 0.0
H2636 H 0.39401 0.55554 0.14227 0.0
H2637 H 0.37955 0.50533 0.12699 0.0
H2638 H 0.37916 0.51829 0.96921 0.0
H2639 H 0.37886 0.56339 0.97925 0.0
Li2640 Li 0.13544 0.5724 0.56064 0.0
Li2641 Li 0.12842 0.54532 0.57619 0.0
Li2642 Li 0.13664 0.55327 0.53362 0.0
Li2643 Li 0.10987 0.54753 0.5474 0.0
C2644 C 0.16416 0.57472 0.57105 0.0
N2645 N 0.19329 0.59992 0.58805 0.0
C2646 C 0.16864 0.57466 0.59449 0.0
C2647 C 0.17459 0.58748 0.55618 0.0
C2648 C 0.18339 0.58754 0.60277 0.0
C2649 C 0.18924 0.60014 0.56512 0.0
C2650 C 0.10472 0.55285 0.59668 0.0
C2651 C 0.07987 0.53278 0.61557 0.0
N2652 N 0.08134 0.54424 0.63138 0.0
C2653 C 0.10592 0.56447 0.61299 0.0
C2654 C 0.09155 0.5369 0.59788 0.0
C2655 C 0.09401 0.55986 0.63046 0.0
C2656 C 0.14469 0.60611 0.55674 0.0
N2657 N 0.14423 0.59427 0.57082 0.0
C2658 C 0.15459 0.61266 0.60333 0.0
C2659 C 0.14901 0.59724 0.59369 0.0
C2660 C 0.15484 0.62512 0.5895 0.0
C2661 C 0.14998 0.62173 0.56578 0.0
H2662 H 0.14053 0.6033 0.53871 0.0
H2663 H 0.14815 0.58747 0.6046 0.0
C2664 C 0.13699 0.52482 0.60086 0.0
N2665 N 0.13086 0.53502 0.60335 0.0
C2666 C 0.14132 0.51909 0.62071 0.0
C2667 C 0.13228 0.53393 0.64525 0.0
C2668 C 0.12832 0.5395 0.62497 0.0
C2669 C 0.13931 0.52394 0.64331 0.0
H2670 H 0.13918 0.52172 0.58342 0.0
H2671 H 0.12391 0.54799 0.62657 0.0
C2672 C 0.12847 0.57128 0.5057 0.0
N2673 N 0.13386 0.58035 0.45887 0.0
C2674 C 0.1158 0.56367 0.48935 0.0
C2675 C 0.14381 0.58367 0.49832 0.0
C2676 C 0.11879 0.56839 0.46573 0.0
C2677 C 0.14631 0.58803 0.47454 0.0
C2678 C 0.10796 0.51614 0.54408 0.0
C2679 C 0.10542 0.50899 0.5218 0.0
C2680 C 0.09978 0.50643 0.56354 0.0
C2681 C 0.09435 0.49231 0.51925 0.0
C2682 C 0.08881 0.4898 0.56028 0.0
N2683 N 0.08633 0.48315 0.53838 0.0
C2684 C 0.16371 0.55425 0.51051 0.0
C2685 C 0.14008 0.54516 0.48685 0.0
C2686 C 0.17213 0.55228 0.49173 0.0
N2687 N 0.148 0.55076 0.5077 0.0
C2688 C 0.14808 0.54323 0.46756 0.0
C2689 C 0.16432 0.5468 0.46988 0.0
H2690 H 0.16966 0.55847 0.52737 0.0
H2691 H 0.12749 0.54209 0.48521 0.0
C2692 C 0.08104 0.54864 0.54839 0.0
N2693 N 0.0877 0.54002 0.53924 0.0
C2694 C 0.06502 0.54439 0.54302 0.0
C2695 C 0.06307 0.52272 0.51823 0.0
C2696 C 0.07913 0.52732 0.52427 0.0
C2697 C 0.0558 0.53132 0.52764 0.0
H2698 H 0.08824 0.55893 0.55982 0.0
H2699 H 0.08482 0.521 0.51657 0.0
O2700 O 0.14967 0.56233 0.5627 0.0
O2701 O 0.1163 0.55719 0.57949 0.0
O2702 O 0.12581 0.56672 0.52885 0.0
O2703 O 0.11894 0.5324 0.54693 0.0
H2704 H 0.16075 0.56484 0.60623 0.0
H2705 H 0.1714 0.58761 0.53794 0.0
H2706 H 0.18696 0.5877 0.62091 0.0
H2707 H 0.19739 0.61014 0.55384 0.0
H2708 H 0.0696 0.52048 0.61668 0.0
H2709 H 0.11597 0.5769 0.61222 0.0
H2710 H 0.09021 0.52788 0.58508 0.0
H2711 H 0.09482 0.56871 0.64326 0.0
H2712 H 0.1585 0.61471 0.62153 0.0
H2713 H 0.14978 0.63087 0.55453 0.0
H2714 H 0.14692 0.51163 0.61829 0.0
H2715 H 0.13031 0.53783 0.66226 0.0
H2716 H 0.10384 0.55413 0.4948 0.0
H2717 H 0.15367 0.58981 0.51079 0.0
H2718 H 0.10913 0.56253 0.45285 0.0
H2719 H 0.15815 0.59752 0.46855 0.0
H2720 H 0.11182 0.51625 0.50659 0.0
H2721 H 0.10198 0.5116 0.58104 0.0
H2722 H 0.09216 0.48666 0.50207 0.0
H2723 H 0.08235 0.48216 0.57518 0.0
H2724 H 0.18465 0.55516 0.49419 0.0
H2725 H 0.14154 0.5387 0.45112 0.0
H2726 H 0.05992 0.55128 0.55091 0.0
H2727 H 0.05657 0.51279 0.50591 0.0
Li2728 Li 0.42903 0.56514 0.56082 0.0
Li2729 Li 0.45548 0.58395 0.57833 0.0
Li2730 Li 0.44796 0.58889 0.53896 0.0
Li2731 Li 0.45408 0.56687 0.54593 0.0
C2732 C 0.4357 0.60147 0.56901 0.0
N2733 N 0.43265 0.62901 0.5664 0.0
C2734 C 0.44554 0.61509 0.58297 0.0
C2735 C 0.42426 0.60184 0.55379 0.0
C2736 C 0.44381 0.62889 0.58139 0.0
C2737 C 0.42294 0.61589 0.55269 0.0
C2738 C 0.44649 0.55593 0.59945 0.0
C2739 C 0.4638 0.55419 0.62909 0.0
N2740 N 0.45156 0.54942 0.64511 0.0
C2741 C 0.43404 0.55094 0.61615 0.0
C2742 C 0.46146 0.55749 0.60589 0.0
C2743 C 0.43685 0.54772 0.63917 0.0
C2744 C 0.40094 0.53438 0.5698 0.0
N2745 N 0.40669 0.5507 0.56791 0.0
C2746 C 0.3807 0.54714 0.57849 0.0
C2747 C 0.39695 0.55718 0.57204 0.0
C2748 C 0.37441 0.53025 0.5809 0.0
C2749 C 0.38472 0.52386 0.57633 0.0
H2750 H 0.40904 0.5296 0.56663 0.0
H2751 H 0.4019 0.57019 0.57087 0.0
C2752 C 0.48272 0.6048 0.60644 0.0
N2753 N 0.46633 0.59441 0.60667 0.0
C2754 C 0.49057 0.61416 0.6263 0.0
C2755 C 0.46458 0.60154 0.64648 0.0
C2756 C 0.45723 0.5925 0.6262 0.0
C2757 C 0.48142 0.61285 0.64653 0.0
H2758 H 0.4896 0.60636 0.59053 0.0
H2759 H 0.44416 0.58441 0.6257 0.0
C2760 C 0.42191 0.55406 0.51812 0.0
N2761 N 0.39271 0.52887 0.50137 0.0
C2762 C 0.41976 0.53841 0.51561 0.0
C2763 C 0.40926 0.55694 0.51199 0.0
C2764 C 0.4049 0.52583 0.50711 0.0
C2765 C 0.39457 0.54403 0.50361 0.0
C2766 C 0.48311 0.59409 0.53932 0.0
C2767 C 0.48757 0.60192 0.51747 0.0
C2768 C 0.49327 0.58931 0.55034 0.0
C2769 C 0.50207 0.6047 0.50688 0.0
C2770 C 0.50765 0.59228 0.53916 0.0
N2771 N 0.51172 0.59984 0.51784 0.0
C2772 C 0.4595 0.62123 0.52366 0.0
C2773 C 0.44414 0.60087 0.49522 0.0
C2774 C 0.46172 0.63352 0.50798 0.0
N2775 N 0.45063 0.60528 0.51717 0.0
C2776 C 0.44641 0.6128 0.47876 0.0
C2777 C 0.4552 0.62932 0.48521 0.0
H2778 H 0.46493 0.62439 0.54099 0.0
H2779 H 0.4374 0.58811 0.49041 0.0
C2780 C 0.4618 0.54165 0.54365 0.0
N2781 N 0.46301 0.55479 0.53213 0.0
C2782 C 0.46788 0.53234 0.53339 0.0
C2783 C 0.47647 0.55043 0.49976 0.0
C2784 C 0.46989 0.55912 0.51042 0.0
C2785 C 0.47545 0.53673 0.51115 0.0
H2786 H 0.45589 0.53824 0.56064 0.0
H2787 H 0.47027 0.56936 0.50138 0.0
O2788 O 0.43727 0.58786 0.5702 0.0
O2789 O 0.44406 0.55935 0.57692 0.0
O2790 O 0.4362 0.56643 0.52699 0.0
O2791 O 0.46891 0.59118 0.5499 0.0
H2792 H 0.4545 0.61509 0.59476 0.0
H2793 H 0.41668 0.5915 0.54264 0.0
H2794 H 0.45138 0.63954 0.59203 0.0
H2795 H 0.41423 0.61639 0.54087 0.0
H2796 H 0.47536 0.55543 0.63436 0.0
H2797 H 0.4224 0.54973 0.61148 0.0
H2798 H 0.4712 0.5613 0.59315 0.0
H2799 H 0.42737 0.54393 0.65232 0.0
H2800 H 0.3733 0.55265 0.58236 0.0
H2801 H 0.38034 0.5109 0.57796 0.0
H2802 H 0.5035 0.62293 0.62535 0.0
H2803 H 0.45707 0.60004 0.66172 0.0
H2804 H 0.42941 0.53596 0.52037 0.0
H2805 H 0.41071 0.56898 0.51394 0.0
H2806 H 0.40303 0.51363 0.50517 0.0
H2807 H 0.38463 0.54606 0.49894 0.0
H2808 H 0.47987 0.60572 0.50868 0.0
H2809 H 0.49001 0.58326 0.56727 0.0
H2810 H 0.50564 0.61068 0.48993 0.0
H2811 H 0.51558 0.58856 0.54742 0.0
H2812 H 0.46881 0.64619 0.51335 0.0
H2813 H 0.44132 0.60919 0.46124 0.0
H2814 H 0.46637 0.52168 0.54267 0.0
H2815 H 0.48237 0.55451 0.48282 0.0
Li2816 Li 0.41829 0.86673 0.57471 0.0
Li2817 Li 0.44001 0.86129 0.5562 0.0
Li2818 Li 0.44012 0.887 0.54842 0.0
Li2819 Li 0.4188 0.86196 0.53314 0.0
C2820 C 0.4521 0.89277 0.59112 0.0
N2821 N 0.47155 0.92271 0.61224 0.0
C2822 C 0.46883 0.89875 0.59385 0.0
C2823 C 0.44525 0.90198 0.59919 0.0
C2824 C 0.47846 0.91393 0.60456 0.0
C2825 C 0.45529 0.9171 0.60982 0.0
C2826 C 0.4049 0.83124 0.55282 0.0
C2827 C 0.39624 0.80836 0.52647 0.0
N2828 N 0.3823 0.79983 0.53923 0.0
C2829 C 0.39056 0.82219 0.56578 0.0
C2830 C 0.40784 0.82423 0.53312 0.0
C2831 C 0.37926 0.80635 0.55859 0.0
C2832 C 0.38867 0.85581 0.59783 0.0
N2833 N 0.40498 0.86278 0.60151 0.0
C2834 C 0.40114 0.86157 0.64321 0.0
C2835 C 0.4114 0.86581 0.62359 0.0
C2836 C 0.38418 0.85395 0.63993 0.0
C2837 C 0.37798 0.85127 0.61687 0.0
H2838 H 0.38392 0.85328 0.58007 0.0
H2839 H 0.42442 0.87114 0.62598 0.0
C2840 C 0.46977 0.86194 0.56159 0.0
N2841 N 0.4533 0.85199 0.56168 0.0
C2842 C 0.47994 0.85593 0.56854 0.0
C2843 C 0.456 0.82931 0.57385 0.0
C2844 C 0.44629 0.8359 0.56724 0.0
C2845 C 0.473 0.83949 0.57512 0.0
H2846 H 0.47495 0.87465 0.55683 0.0
H2847 H 0.43315 0.82832 0.56734 0.0
C2848 C 0.40849 0.88333 0.53206 0.0
N2849 N 0.39182 0.88938 0.49718 0.0
C2850 C 0.41659 0.89163 0.51159 0.0
C2851 C 0.39194 0.87822 0.53488 0.0
C2852 C 0.40795 0.89454 0.49414 0.0
C2853 C 0.38372 0.88137 0.51702 0.0
C2854 C 0.44855 0.87124 0.50525 0.0
C2855 C 0.45407 0.88398 0.48893 0.0
C2856 C 0.44975 0.85744 0.50004 0.0
C2857 C 0.46032 0.8825 0.46737 0.0
C2858 C 0.45608 0.85643 0.47829 0.0
N2859 N 0.46118 0.86886 0.46253 0.0
C2860 C 0.47034 0.91381 0.537 0.0
C2861 C 0.44997 0.9207 0.54553 0.0
C2862 C 0.48179 0.93014 0.53279 0.0
N2863 N 0.45481 0.90945 0.54313 0.0
C2864 C 0.46103 0.9372 0.54144 0.0
C2865 C 0.47717 0.94208 0.53492 0.0
H2866 H 0.47379 0.90454 0.53533 0.0
H2867 H 0.43755 0.91685 0.55066 0.0
C2868 C 0.38766 0.84278 0.513 0.0
N2869 N 0.40372 0.85239 0.50739 0.0
C2870 C 0.37576 0.83688 0.49542 0.0
C2871 C 0.39702 0.85125 0.46659 0.0
C2872 C 0.40855 0.85657 0.48466 0.0
C2873 C 0.38042 0.84138 0.47198 0.0
H2874 H 0.38401 0.84025 0.53123 0.0
H2875 H 0.42122 0.86464 0.48057 0.0
O2876 O 0.44252 0.87823 0.57991 0.0
O2877 O 0.41602 0.84683 0.55952 0.0
O2878 O 0.41664 0.87987 0.54894 0.0
O2879 O 0.44257 0.87258 0.52654 0.0
H2880 H 0.47434 0.89181 0.58767 0.0
H2881 H 0.43235 0.89762 0.59693 0.0
H2882 H 0.49144 0.91874 0.60672 0.0
H2883 H 0.45017 0.9244 0.61602 0.0
H2884 H 0.3983 0.80284 0.51114 0.0
H2885 H 0.38817 0.82733 0.58126 0.0
H2886 H 0.41884 0.83104 0.52288 0.0
H2887 H 0.36808 0.79924 0.56841 0.0
H2888 H 0.40636 0.86367 0.66072 0.0
H2889 H 0.36498 0.84554 0.6136 0.0
H2890 H 0.49302 0.8641 0.56929 0.0
H2891 H 0.45024 0.81661 0.57912 0.0
H2892 H 0.42935 0.89553 0.50902 0.0
H2893 H 0.38547 0.87181 0.5506 0.0
H2894 H 0.41404 0.90083 0.47813 0.0
H2895 H 0.37089 0.87741 0.51892 0.0
H2896 H 0.45343 0.89485 0.4928 0.0
H2897 H 0.44599 0.84768 0.5127 0.0
H2898 H 0.46453 0.89221 0.4545 0.0
H2899 H 0.45703 0.84579 0.47398 0.0
H2900 H 0.49404 0.93335 0.52754 0.0
H2901 H 0.45703 0.94604 0.54358 0.0
H2902 H 0.363 0.82958 0.50022 0.0
H2903 H 0.40097 0.8551 0.44865 0.0
Li2904 Li 0.22097 0.47476 0.29949 0.0
Li2905 Li 0.21446 0.44664 0.29245 0.0
Li2906 Li 0.23807 0.47045 0.27233 0.0
Li2907 Li 0.21003 0.46159 0.26018 0.0
C2908 C 0.24028 0.47069 0.32864 0.0
N2909 N 0.25084 0.48274 0.37346 0.0
C2910 C 0.23267 0.46092 0.34829 0.0
C2911 C 0.25341 0.4865 0.33177 0.0
C2912 C 0.23815 0.46725 0.37081 0.0
C2913 C 0.25852 0.4924 0.35457 0.0
C2914 C 0.18333 0.44407 0.29546 0.0
C2915 C 0.15828 0.42056 0.28257 0.0
N2916 N 0.15094 0.42094 0.30296 0.0
C2917 C 0.17544 0.44437 0.31613 0.0
C2918 C 0.1746 0.43219 0.27842 0.0
C2919 C 0.15911 0.43252 0.31966 0.0
C2920 C 0.22458 0.50456 0.31627 0.0
N2921 N 0.21955 0.48883 0.32223 0.0
C2922 C 0.20857 0.4919 0.35854 0.0
C2923 C 0.21199 0.4825 0.3431 0.0
C2924 C 0.213 0.508 0.35242 0.0
C2925 C 0.22153 0.51444 0.33124 0.0
H2926 H 0.23039 0.50927 0.29947 0.0
H2927 H 0.20798 0.4699 0.34733 0.0
C2928 C 0.21249 0.41601 0.29822 0.0
N2929 N 0.20692 0.42582 0.30652 0.0
C2930 C 0.20685 0.40052 0.3079 0.0
C2931 C 0.19032 0.40577 0.33502 0.0
C2932 C 0.19623 0.42111 0.32477 0.0
C2933 C 0.19556 0.39521 0.32651 0.0
H2934 H 0.22125 0.42019 0.28397 0.0
H2935 H 0.19237 0.4293 0.33153 0.0
C2936 C 0.23917 0.49761 0.25576 0.0
N2937 N 0.26262 0.52463 0.23174 0.0
C2938 C 0.23672 0.50007 0.23219 0.0
C2939 C 0.25345 0.50903 0.2672 0.0
C2940 C 0.24874 0.51378 0.22033 0.0
C2941 C 0.26519 0.52257 0.25473 0.0
C2942 C 0.21651 0.4377 0.24109 0.0
C2943 C 0.22578 0.44103 0.22053 0.0
C2944 C 0.20223 0.42258 0.24354 0.0
C2945 C 0.22038 0.42942 0.20253 0.0
C2946 C 0.19724 0.41127 0.22516 0.0
N2947 N 0.20633 0.4149 0.20518 0.0
C2948 C 0.27191 0.48049 0.27445 0.0
C2949 C 0.26203 0.48251 0.23697 0.0
C2950 C 0.2876 0.48645 0.26528 0.0
N2951 N 0.25954 0.47869 0.26023 0.0
C2952 C 0.27746 0.48847 0.2271 0.0
C2953 C 0.29051 0.49046 0.24126 0.0
H2954 H 0.26956 0.47721 0.29285 0.0
H2955 H 0.252 0.48096 0.22606 0.0
C2956 C 0.18331 0.46203 0.23964 0.0
N2957 N 0.19656 0.46057 0.23454 0.0
C2958 C 0.17376 0.46288 0.22159 0.0
C2959 C 0.19183 0.46101 0.19326 0.0
C2960 C 0.2009 0.45995 0.2119 0.0
C2961 C 0.17815 0.46263 0.19805 0.0
H2962 H 0.18042 0.46305 0.25776 0.0
H2963 H 0.21181 0.45939 0.20827 0.0
O2964 O 0.23494 0.46478 0.30645 0.0
O2965 O 0.19937 0.45558 0.29178 0.0
O2966 O 0.22762 0.48414 0.26757 0.0
O2967 O 0.22171 0.44894 0.25897 0.0
H2968 H 0.22257 0.44864 0.34622 0.0
H2969 H 0.2596 0.49415 0.31678 0.0
H2970 H 0.23229 0.45986 0.38618 0.0
H2971 H 0.26862 0.50464 0.35725 0.0
H2972 H 0.15142 0.41129 0.26951 0.0
H2973 H 0.18187 0.45359 0.32939 0.0
H2974 H 0.18025 0.43213 0.26196 0.0
H2975 H 0.15292 0.43254 0.33566 0.0
H2976 H 0.2018 0.4863 0.37449 0.0
H2977 H 0.22542 0.52685 0.32594 0.0
H2978 H 0.2114 0.39285 0.30105 0.0
H2979 H 0.18156 0.40216 0.34925 0.0
H2980 H 0.22568 0.49149 0.22311 0.0
H2981 H 0.25548 0.50742 0.28547 0.0
H2982 H 0.24703 0.51578 0.20205 0.0
H2983 H 0.27635 0.53143 0.26334 0.0
H2984 H 0.23699 0.4525 0.21839 0.0
H2985 H 0.19516 0.41947 0.25956 0.0
H2986 H 0.22739 0.43193 0.18647 0.0
H2987 H 0.18619 0.39956 0.22685 0.0
H2988 H 0.29729 0.48766 0.27678 0.0
H2989 H 0.27919 0.49167 0.20859 0.0
H2990 H 0.16352 0.4645 0.22601 0.0
H2991 H 0.19567 0.46091 0.17531 0.0
Li2992 Li 0.55445 0.76862 0.28728 0.0
Li2993 Li 0.52763 0.74909 0.30103 0.0
Li2994 Li 0.53502 0.74769 0.26092 0.0
Li2995 Li 0.53017 0.77017 0.27432 0.0
C2996 C 0.5518 0.74088 0.30832 0.0
N2997 N 0.56578 0.73371 0.3458 0.0
C2998 C 0.55419 0.74899 0.32979 0.0
C2999 C 0.55653 0.72912 0.30592 0.0
C3000 C 0.56127 0.74519 0.34853 0.0
C3001 C 0.56358 0.72567 0.32506 0.0
C3002 C 0.53682 0.7803 0.32473 0.0
C3003 C 0.51962 0.78801 0.34594 0.0
N3004 N 0.53128 0.79499 0.3629 0.0
C3005 C 0.54868 0.78766 0.34226 0.0
C3006 C 0.52221 0.78055 0.32648 0.0
C3007 C 0.54562 0.79497 0.36147 0.0
C3008 C 0.58186 0.7987 0.29483 0.0
N3009 N 0.57689 0.78252 0.29383 0.0
C3010 C 0.60425 0.78808 0.29904 0.0
C3011 C 0.58765 0.77702 0.2958 0.0
C3012 C 0.60976 0.80489 0.29981 0.0
C3013 C 0.59834 0.81017 0.29777 0.0
H3014 H 0.57299 0.80267 0.29293 0.0
H3015 H 0.58344 0.76413 0.29434 0.0
C3016 C 0.50854 0.71888 0.32267 0.0
N3017 N 0.51529 0.73517 0.32668 0.0
C3018 C 0.49924 0.70759 0.34002 0.0
C3019 C 0.50468 0.73002 0.36589 0.0
C3020 C 0.51364 0.74087 0.34787 0.0
C3021 C 0.49724 0.71309 0.3621 0.0
H3022 H 0.51042 0.71466 0.3059 0.0
H3023 H 0.51946 0.75379 0.3511 0.0
C3024 C 0.56108 0.77521 0.23973 0.0
N3025 N 0.58682 0.78278 0.20958 0.0
C3026 C 0.5663 0.78825 0.22402 0.0
C3027 C 0.56894 0.76603 0.24015 0.0
C3028 C 0.57934 0.79188 0.2089 0.0
C3029 C 0.58193 0.77005 0.22476 0.0
C3030 C 0.49915 0.73455 0.27688 0.0
C3031 C 0.49338 0.71871 0.26845 0.0
C3032 C 0.48893 0.73803 0.29041 0.0
C3033 C 0.47753 0.70651 0.27412 0.0
C3034 C 0.47317 0.72549 0.29573 0.0
N3035 N 0.46785 0.71012 0.28756 0.0
C3036 C 0.53374 0.7206 0.23831 0.0
C3037 C 0.52903 0.738 0.21348 0.0
C3038 C 0.53148 0.71021 0.21946 0.0
N3039 N 0.53243 0.73412 0.23497 0.0
C3040 C 0.52663 0.72793 0.19414 0.0
C3041 C 0.52777 0.71378 0.19704 0.0
H3042 H 0.5363 0.71778 0.25568 0.0
H3043 H 0.52809 0.74888 0.21145 0.0
C3044 C 0.52924 0.79968 0.27303 0.0
N3045 N 0.52266 0.78426 0.26439 0.0
C3046 C 0.52418 0.81024 0.26424 0.0
C3047 C 0.50588 0.78883 0.23773 0.0
C3048 C 0.51111 0.77864 0.24724 0.0
C3049 C 0.51255 0.80488 0.2461 0.0
H3050 H 0.53861 0.80387 0.28642 0.0
H3051 H 0.50623 0.76633 0.24064 0.0
O3052 O 0.54488 0.74435 0.28965 0.0
O3053 O 0.53969 0.77316 0.3058 0.0
O3054 O 0.54845 0.77164 0.25481 0.0
O3055 O 0.51468 0.74661 0.2717 0.0
H3056 H 0.55063 0.7581 0.33203 0.0
H3057 H 0.55482 0.72276 0.2894 0.0
H3058 H 0.56317 0.75137 0.36525 0.0
H3059 H 0.56731 0.71661 0.32343 0.0
H3060 H 0.50835 0.78826 0.34756 0.0
H3061 H 0.56013 0.7877 0.34106 0.0
H3062 H 0.51299 0.77508 0.31296 0.0
H3063 H 0.55467 0.80066 0.37521 0.0
H3064 H 0.61274 0.78357 0.30024 0.0
H3065 H 0.60212 0.82303 0.29844 0.0
H3066 H 0.49367 0.6947 0.33608 0.0
H3067 H 0.50393 0.73492 0.38277 0.0
H3068 H 0.56036 0.7955 0.22356 0.0
H3069 H 0.56512 0.75595 0.25229 0.0
H3070 H 0.58352 0.80194 0.19664 0.0
H3071 H 0.58814 0.76306 0.22491 0.0
H3072 H 0.50111 0.71583 0.25784 0.0
H3073 H 0.49313 0.75025 0.29683 0.0
H3074 H 0.47294 0.69417 0.26788 0.0
H3075 H 0.46516 0.72799 0.30633 0.0
H3076 H 0.53219 0.69929 0.22255 0.0
H3077 H 0.52391 0.73117 0.17712 0.0
H3078 H 0.52969 0.8226 0.27093 0.0
H3079 H 0.49681 0.78426 0.22384 0.0
Li3080 Li 0.24991 0.77682 0.302 0.0
Li3081 Li 0.22963 0.78341 0.28736 0.0
Li3082 Li 0.22964 0.75787 0.27431 0.0
Li3083 Li 0.25026 0.78462 0.25942 0.0
C3084 C 0.22334 0.75788 0.32864 0.0
N3085 N 0.21873 0.74567 0.37393 0.0
C3086 C 0.22009 0.7657 0.34698 0.0
C3087 C 0.22393 0.74368 0.33326 0.0
C3088 C 0.21789 0.75939 0.36978 0.0
C3089 C 0.22165 0.73774 0.35629 0.0
C3090 C 0.25828 0.81399 0.28954 0.0
C3091 C 0.26052 0.83823 0.27182 0.0
N3092 N 0.26717 0.84662 0.29206 0.0
C3093 C 0.26541 0.82296 0.31003 0.0
C3094 C 0.25603 0.82177 0.27018 0.0
C3095 C 0.26972 0.83939 0.31102 0.0
C3096 C 0.27626 0.7774 0.32738 0.0
N3097 N 0.26368 0.78048 0.32839 0.0
C3098 C 0.27412 0.79567 0.36394 0.0
C3099 C 0.26215 0.78896 0.34656 0.0
C3100 C 0.28767 0.79343 0.36267 0.0
C3101 C 0.28842 0.78366 0.34468 0.0
H3102 H 0.27745 0.77102 0.31241 0.0
H3103 H 0.25226 0.79159 0.34659 0.0
C3104 C 0.20407 0.79113 0.28385 0.0
N3105 N 0.21735 0.79342 0.29627 0.0
C3106 C 0.19652 0.8002 0.28931 0.0
C3107 C 0.21589 0.81305 0.32101 0.0
C3108 C 0.22297 0.8037 0.31503 0.0
C3109 C 0.20273 0.81163 0.30773 0.0
H3110 H 0.19962 0.78261 0.26932 0.0
H3111 H 0.23319 0.80486 0.32509 0.0
C3112 C 0.25734 0.75542 0.26775 0.0
N3113 N 0.26425 0.7311 0.25642 0.0
C3114 C 0.26354 0.75513 0.24552 0.0
C3115 C 0.25492 0.74351 0.28434 0.0
C3116 C 0.26688 0.74268 0.24009 0.0
C3117 C 0.25841 0.73127 0.27825 0.0
C3118 C 0.22185 0.77689 0.23375 0.0
C3119 C 0.21704 0.76544 0.21555 0.0
C3120 C 0.22185 0.7915 0.22992 0.0
C3121 C 0.21283 0.76901 0.19366 0.0
C3122 C 0.21754 0.79461 0.2078 0.0
N3123 N 0.21319 0.78341 0.19025 0.0
C3124 C 0.20296 0.72507 0.2768 0.0
C3125 C 0.22041 0.73159 0.24371 0.0
C3126 C 0.19267 0.70937 0.26794 0.0
N3127 N 0.21645 0.73581 0.26451 0.0
C3128 C 0.2105 0.71614 0.23419 0.0
C3129 C 0.19628 0.70489 0.24613 0.0
H3130 H 0.19993 0.72884 0.29311 0.0
H3131 H 0.23097 0.74045 0.23403 0.0
C3132 C 0.27788 0.81022 0.2374 0.0
N3133 N 0.26402 0.79578 0.23334 0.0
C3134 C 0.28844 0.81874 0.21891 0.0
C3135 C 0.27065 0.79703 0.19249 0.0
C3136 C 0.26034 0.78901 0.21148 0.0
C3137 C 0.28488 0.81213 0.19611 0.0
H3138 H 0.28088 0.81505 0.25508 0.0
H3139 H 0.24961 0.77721 0.20886 0.0
O3140 O 0.22558 0.76392 0.30621 0.0
O3141 O 0.25374 0.79778 0.28838 0.0
O3142 O 0.2539 0.76746 0.27329 0.0
O3143 O 0.22604 0.77358 0.25534 0.0
H3144 H 0.21937 0.77658 0.34368 0.0
H3145 H 0.22599 0.73723 0.31919 0.0
H3146 H 0.2155 0.7654 0.38417 0.0
H3147 H 0.22214 0.72678 0.36011 0.0
H3148 H 0.25879 0.84435 0.25694 0.0
H3149 H 0.26755 0.81732 0.32509 0.0
H3150 H 0.25118 0.81527 0.25389 0.0
H3151 H 0.27511 0.84641 0.32685 0.0
H3152 H 0.27327 0.80325 0.37753 0.0
H3153 H 0.29886 0.78193 0.34305 0.0
H3154 H 0.18634 0.79872 0.27871 0.0
H3155 H 0.22077 0.82142 0.33573 0.0
H3156 H 0.26564 0.76434 0.23254 0.0
H3157 H 0.25051 0.74378 0.30178 0.0
H3158 H 0.27157 0.74224 0.2229 0.0
H3159 H 0.25654 0.72193 0.2909 0.0
H3160 H 0.21667 0.75397 0.21817 0.0
H3161 H 0.2249 0.80027 0.24391 0.0
H3162 H 0.20925 0.7603 0.17939 0.0
H3163 H 0.21757 0.80591 0.20462 0.0
H3164 H 0.18175 0.70107 0.27758 0.0
H3165 H 0.21382 0.71311 0.21746 0.0
H3166 H 0.29951 0.83014 0.22255 0.0
H3167 H 0.26756 0.79147 0.17519 0.0
H3168 H 0.15338 0.01385 0.06753 0.0
H3169 H 0.20552 0.0315 0.06712 0.0
H3170 H 0.20086 0.00818 0.04245 0.0
H3171 H 0.13929 0.96959 0.06536 0.0
H3172 H 0.12274 0.96554 0.04566 0.0
H3173 H 0.12979 0.98203 0.0666 0.0
H3174 H 0.13459 0.00228 0.03266 0.0
H3175 H 0.12758 0.98591 0.01167 0.0
H3176 H 0.14747 0.00376 0.00828 0.0
H3177 H 0.19102 0.98477 0.01426 0.0
H3178 H 0.17677 0.96334 0.98428 0.0
H3179 H 0.13138 0.96214 0.00098 0.0
C3180 C 0.16383 0.01275 0.06253 0.0
C3181 C 0.17982 0.02453 0.06954 0.0
C3182 C 0.1931 0.0225 0.06257 0.0
C3183 C 0.1906 0.00931 0.0484 0.0
C3184 C 0.17474 0.99821 0.0413 0.0
C3185 C 0.16157 -0.00023 0.04818 0.0
C3186 C 0.14599 0.98711 0.03634 0.0
C3187 C 0.13373 0.97537 0.05458 0.0
C3188 C 0.13848 0.99526 0.02135 0.0
C3189 C 0.15255 0.97855 0.02112 0.0
C3190 C 0.16911 0.98494 0.02454 0.0
C3191 C 0.17803 0.97956 0.01158 0.0
C3192 C 0.16984 0.96748 0.99445 0.0
C3193 C 0.15294 0.96104 0.99022 0.0
C3194 C 0.14421 0.96654 0.00406 0.0
H3195 H 0.97097 0.16416 0.05336 0.0
H3196 H 0.976 0.12411 0.081 0.0
H3197 H 0.00098 0.1333 0.05742 0.0
H3198 H 0.98223 0.16201 0.99569 0.0
H3199 H 0.99341 0.18373 0.99052 0.0
H3200 H 0.97705 0.17528 0.01165 0.0
H3201 H 0.9967 0.19435 0.04394 0.0
H3202 H 0.01314 0.20293 0.02284 0.0
H3203 H 0.01538 0.19426 0.04988 0.0
H3204 H 0.02316 0.14456 0.02756 0.0
H3205 H 0.04218 0.15819 0.99447 0.0
H3206 H 0.0235 0.19146 0.98656 0.0
C3207 C 0.9775 0.15751 0.05473 0.0
C3208 C 0.97164 0.14352 0.06919 0.0
C3209 C 0.98045 0.13506 0.07043 0.0
C3210 C 0.99461 0.14014 0.05701 0.0
C3211 C -0.00011 0.15379 0.04262 0.0
C3212 C 0.99174 0.16249 0.04156 0.0
C3213 C -0.00046 0.17621 0.0237 0.0
C3214 C 0.98733 0.17418 0.00424 0.0
C3215 C 0.00661 0.19293 0.03582 0.0
C3216 C 0.01298 0.17349 0.0143 0.0
C3217 C 0.013 0.16054 0.02558 0.0
C3218 C 0.02348 0.15491 0.01889 0.0
C3219 C 0.03416 0.16265 6e-05 0.0
C3220 C 0.03433 0.1759 0.98826 0.0
C3221 C 0.02377 0.18154 0.99567 0.0
H3222 H 0.82931 0.86691 0.9959 0.0
H3223 H 0.77964 0.82608 0.99771 0.0
H3224 H 0.78799 0.81227 0.02688 0.0
H3225 H 0.84895 0.84457 0.9984 0.0
H3226 H 0.86547 0.85861 0.01704 0.0
H3227 H 0.85525 0.86599 0.99825 0.0
H3228 H 0.8487 0.87853 0.0343 0.0
H3229 H 0.85904 0.87131 0.05323 0.0
H3230 H 0.83819 0.86579 0.05925 0.0
H3231 H 0.80251 0.80179 0.05263 0.0
H3232 H 0.8218 0.79572 0.0733 0.0
H3233 H 0.86148 0.84431 0.05646 0.0
C3234 C 0.82002 0.8553 0.00292 0.0
C3235 C 0.80378 0.84763 0.99454 0.0
C3236 C 0.79218 0.83216 0.0037 0.0
C3237 C 0.79678 0.82427 0.02041 0.0
C3238 C 0.81298 0.83209 0.02795 0.0
C3239 C 0.82437 0.84734 0.01966 0.0
C3240 C 0.84118 0.85274 0.02947 0.0
C3241 C 0.85343 0.85564 0.0096 0.0
C3242 C 0.84712 0.868 0.04499 0.0
C3243 C 0.83759 0.83793 0.04402 0.0
C3244 C 0.82125 0.82619 0.04309 0.0
C3245 C 0.81528 0.81103 0.05388 0.0
C3246 C 0.82634 0.80773 0.06571 0.0
C3247 C 0.84321 0.81955 0.06666 0.0
C3248 C 0.84873 0.83493 0.05598 0.0
H3249 H 0.98379 0.16689 0.53023 0.0
H3250 H 0.94273 0.14196 0.48244 0.0
H3251 H 0.96177 0.15091 0.44876 0.0
H3252 H 0.01056 0.20108 0.49113 0.0
H3253 H 0.02858 0.20085 0.50089 0.0
H3254 H 0.01161 0.19474 0.5207 0.0
H3255 H 0.01042 0.16706 0.5275 0.0
H3256 H 0.02727 0.17302 0.50763 0.0
H3257 H 0.00831 0.15436 0.50255 0.0
H3258 H 0.98556 0.16022 0.42063 0.0
H3259 H 0.01195 0.16878 0.4008 0.0
H3260 H 0.03711 0.18626 0.46749 0.0
C3261 C 0.97873 0.16342 0.51269 0.0
C3262 C 0.96172 0.15372 0.50905 0.0
C3263 C 0.95568 0.14962 0.48572 0.0
C3264 C 0.96642 0.15458 0.46646 0.0
C3265 C 0.98315 0.16366 0.47081 0.0
C3266 C 0.98925 0.16809 0.49337 0.0
C3267 C 0.0077 0.17663 0.49364 0.0
C3268 C 0.01504 0.19438 0.50209 0.0
C3269 C 0.01377 0.1672 0.50872 0.0
C3270 C 0.01103 0.17589 0.46778 0.0
C3271 C 0.99676 0.16862 0.45479 0.0
C3272 C 0.99681 0.16608 0.4306 0.0
C3273 C 0.01183 0.17099 0.41949 0.0
C3274 C 0.02651 0.1781 0.43265 0.0
C3275 C 0.02605 0.18073 0.45704 0.0
H3276 H 0.82879 0.84636 0.43003 0.0
H3277 H 0.79229 0.84729 0.47514 0.0
H3278 H 0.79566 0.8296 0.50385 0.0
H3279 H 0.81873 0.80362 0.44431 0.0
H3280 H 0.8399 0.80901 0.44392 0.0
H3281 H 0.83294 0.81971 0.42524 0.0
H3282 H 0.85476 0.84722 0.44333 0.0
H3283 H 0.86172 0.83662 0.46211 0.0
H3284 H 0.85533 0.85 0.4748 0.0
H3285 H 0.80507 0.81483 0.52946 0.0
H3286 H 0.8202 0.80411 0.55099 0.0
H3287 H 0.85056 0.81201 0.48941 0.0
C3288 C 0.82123 0.84243 0.44568 0.0
C3289 C 0.81023 0.84807 0.45043 0.0
C3290 C 0.80079 0.84308 0.47129 0.0
C3291 C 0.80255 0.83297 0.4876 0.0
C3292 C 0.81378 0.82793 0.48274 0.0
C3293 C 0.82294 0.83241 0.46228 0.0
C3294 C 0.8352 0.82653 0.46247 0.0
C3295 C 0.83146 0.81397 0.44282 0.0
C3296 C 0.85279 0.84096 0.46057 0.0
C3297 C 0.83189 0.81859 0.48657 0.0
C3298 C 0.8193 0.81932 0.49774 0.0
C3299 C 0.81471 0.81384 0.52072 0.0
C3300 C 0.82335 0.80765 0.53278 0.0
C3301 C 0.83651 0.80698 0.52189 0.0
C3302 C 0.84059 0.81231 0.49829 0.0
H3303 H 0.15588 0.96755 0.44849 0.0
H3304 H 0.13898 0.98963 0.39696 0.0
H3305 H 0.15301 0.01572 0.41881 0.0
H3306 H 0.14956 0.98518 0.49745 0.0
H3307 H 0.16733 0.98826 0.51349 0.0
H3308 H 0.15802 0.9721 0.49216 0.0
H3309 H 0.18557 0.98362 0.47005 0.0
H3310 H 0.19504 -0.00022 0.49148 0.0
H3311 H 0.19611 0.00464 0.4606 0.0
H3312 H 0.1662 0.03824 0.44841 0.0
H3313 H 0.1775 0.0556 0.48356 0.0
H3314 H 0.18633 0.019 0.5155 0.0
C3315 C 0.15557 0.97803 0.4414 0.0
C3316 C 0.14646 0.97664 0.42095 0.0
C3317 C 0.14588 0.99046 0.41263 0.0
C3318 C 0.15388 0.00533 0.42483 0.0
C3319 C 0.16244 0.00617 0.44525 0.0
C3320 C 0.16343 0.99291 0.4534 0.0
C3321 C 0.17222 0.99659 0.47682 0.0
C3322 C 0.16112 0.98484 0.49611 0.0
C3323 C 0.18819 0.99613 0.47459 0.0
C3324 C 0.17557 0.0138 0.48095 0.0
C3325 C 0.17003 0.01918 0.4624 0.0
C3326 C 0.17087 0.0343 0.46285 0.0
C3327 C 0.17739 0.04411 0.48288 0.0
C3328 C 0.18294 0.03875 0.50228 0.0
C3329 C 0.18218 0.02346 0.50103 0.0
H3330 H 0.84271 0.03128 0.00254 0.0
H3331 H 0.88421 0.02986 0.03242 0.0
H3332 H 0.88192 0.01046 0.00162 0.0
H3333 H 0.81968 0.98945 0.98905 0.0
H3334 H 0.81144 0.99202 0.96181 0.0
H3335 H 0.81721 0.00699 0.98483 0.0
H3336 H 0.83632 0.02972 0.95582 0.0
H3337 H 0.83062 0.01479 0.93268 0.0
H3338 H 0.85183 0.02772 0.9402 0.0
H3339 H 0.87402 0.98985 0.97005 0.0
H3340 H 0.86042 0.96838 0.94035 0.0
H3341 H 0.82442 0.9835 0.92932 0.0
C3342 C 0.85146 0.02707 0.0023 0.0
C3343 C 0.8636 0.03201 0.01987 0.0
C3344 C 0.87469 0.02607 0.01927 0.0
C3345 C 0.87359 0.01517 0.00174 0.0
C3346 C 0.86138 0.01038 0.98485 0.0
C3347 C 0.85049 0.01611 0.98492 0.0
C3348 C 0.83786 0.00813 0.96559 0.0
C3349 C 0.82053 0.99858 0.97595 0.0
C3350 C 0.83925 0.02085 0.9475 0.0
C3351 C 0.84314 0.99676 0.95509 0.0
C3352 C 0.85685 0.99844 0.96631 0.0
C3353 C 0.86346 0.98862 0.96079 0.0
C3354 C 0.85569 0.97651 0.94365 0.0
C3355 C 0.8414 0.97427 0.93213 0.0
C3356 C 0.83529 0.98482 0.93771 0.0
H3357 H 0.96277 0.83079 0.00559 0.0
H3358 H 0.95244 0.78066 0.00077 0.0
H3359 H 0.97451 0.78913 0.9715 0.0
H3360 H 0.97244 0.84053 0.9423 0.0
H3361 H 0.98813 0.86117 0.94877 0.0
H3362 H 0.97067 0.85082 0.96789 0.0
H3363 H 0.98996 0.85645 0.00344 0.0
H3364 H 0.00745 0.86664 0.98446 0.0
H3365 H 0.00472 0.84971 0.00234 0.0
H3366 H -0.00032 0.8037 0.9461 0.0
H3367 H 0.02502 0.82288 0.9254 0.0
H3368 H 0.01708 0.86293 0.94414 0.0
C3369 C 0.96474 0.82144 0.99792 0.0
C3370 C 0.95582 0.80503 0.00561 0.0
C3371 C 0.95923 0.79335 0.99548 0.0
C3372 C 0.97167 0.79801 0.97868 0.0
C3373 C 0.98041 0.81434 0.97189 0.0
C3374 C 0.97694 0.82582 0.98096 0.0
C3375 C 0.98857 0.84271 0.97155 0.0
C3376 C 0.9794 0.84919 0.95675 0.0
C3377 C 0.99824 0.85457 0.99165 0.0
C3378 C -0.00054 0.83904 0.95634 0.0
C3379 C 0.99454 0.82261 0.95666 0.0
C3380 C 0.00344 0.81653 0.94528 0.0
C3381 C 0.0178 0.82756 0.93342 0.0
C3382 C 0.02313 0.8445 0.93292 0.0
C3383 C 0.01355 0.85014 0.94425 0.0
H3384 H 0.16094 0.18768 0.9445 0.0
H3385 H 0.12979 0.14296 0.9065 0.0
H3386 H 0.14321 0.12951 0.92634 0.0
H3387 H 0.19815 0.18291 0.9479 0.0
H3388 H 0.20267 0.19099 0.97741 0.0
H3389 H 0.19292 0.19799 0.95695 0.0
H3390 H 0.16934 0.19005 0.98669 0.0
H3391 H 0.1789 0.18289 0.0071 0.0
H3392 H 0.15822 0.1694 0.99762 0.0
H3393 H 0.15708 0.11995 0.95384 0.0
H3394 H 0.17008 0.11463 0.98758 0.0
H3395 H 0.19227 0.16551 0.00842 0.0
C3396 C 0.15744 0.17526 0.93977 0.0
C3397 C 0.1446 0.16637 0.92375 0.0
C3398 C 0.13977 0.14995 0.91856 0.0
C3399 C 0.14735 0.14226 0.92968 0.0
C3400 C 0.15967 0.15118 0.94596 0.0
C3401 C 0.16475 0.16735 0.95096 0.0
C3402 C 0.17683 0.17355 0.97117 0.0
C3403 C 0.19364 0.18717 0.96285 0.0
C3404 C 0.17043 0.1793 0.99186 0.0
C3405 C 0.17725 0.15819 0.97732 0.0
C3406 C 0.16751 0.14553 0.96228 0.0
C3407 C 0.16503 0.12985 0.96543 0.0
C3408 C 0.17253 0.12697 0.98463 0.0
C3409 C 0.18233 0.13968 0.00058 0.0
C3410 C 0.18488 0.15554 0.99655 0.0
H3411 H 0.98235 0.84808 0.5523 0.0
H3412 H 0.97145 0.79865 0.56784 0.0
H3413 H 0.99634 0.80384 0.54678 0.0
H3414 H 0.99399 0.84797 0.49428 0.0
H3415 H 0.0098 0.86913 0.49388 0.0
H3416 H 0.9927 0.86247 0.51346 0.0
H3417 H 0.01248 0.87431 0.54898 0.0
H3418 H 0.02968 0.88097 0.52945 0.0
H3419 H 0.02726 0.86792 0.55407 0.0
H3420 H 0.02088 0.81341 0.52063 0.0
H3421 H 0.0425 0.82632 0.4905 0.0
H3422 H 0.03594 0.86861 0.48995 0.0
C3423 C 0.98522 0.83835 0.5515 0.0
C3424 C 0.97492 0.82299 0.56196 0.0
C3425 C 0.97927 0.81067 0.56051 0.0
C3426 C 0.99338 0.81346 0.54846 0.0
C3427 C 0.00303 0.82862 0.53793 0.0
C3428 C -0.00088 0.84086 0.53932 0.0
C3429 C 0.01058 0.85549 0.52461 0.0
C3430 C 0.00121 0.85895 0.50542 0.0
C3431 C 0.02059 0.87056 0.54021 0.0
C3432 C 0.02124 0.84937 0.51414 0.0
C3433 C 0.01689 0.83398 0.52234 0.0
C3434 C 0.02449 0.82552 0.51422 0.0
C3435 C 0.03666 0.83291 0.49698 0.0
C3436 C 0.04097 0.84851 0.48784 0.0
C3437 C 0.03326 0.85686 0.4969 0.0
H3438 H 0.12977 0.16502 0.49492 0.0
H3439 H 0.1736 0.21254 0.49139 0.0
H3440 H 0.18582 0.20455 0.5236 0.0
H3441 H 0.13036 0.15873 0.55961 0.0
H3442 H 0.12336 0.1373 0.55599 0.0
H3443 H 0.11718 0.14765 0.53531 0.0
H3444 H 0.12848 0.13815 0.50094 0.0
H3445 H 0.13471 0.12783 0.52145 0.0
H3446 H 0.14946 0.14288 0.50168 0.0
H3447 H 0.19414 0.19048 0.55348 0.0
H3448 H 0.1986 0.17094 0.57671 0.0
H3449 H 0.14952 0.13244 0.55996 0.0
C3450 C 0.14174 0.17389 0.50144 0.0
C3451 C 0.1507 0.18945 0.49096 0.0
C3452 C 0.16655 0.20057 0.49933 0.0
C3453 C 0.17353 0.19618 0.51768 0.0
C3454 C 0.16447 0.18061 0.5274 0.0
C3455 C 0.14893 0.16963 0.51953 0.0
C3456 C 0.14244 0.15312 0.53112 0.0
C3457 C 0.12744 0.14896 0.54642 0.0
C3458 C 0.13856 0.13972 0.5127 0.0
C3459 C 0.15696 0.15635 0.54613 0.0
C3460 C 0.16942 0.17237 0.54415 0.0
C3461 C 0.18438 0.17797 0.55544 0.0
C3462 C 0.18679 0.16682 0.56866 0.0
C3463 C 0.17437 0.15023 0.57017 0.0
C3464 C 0.15919 0.14507 0.55913 0.0
H3465 H 0.86454 0.03237 0.53637 0.0
H3466 H 0.82972 0.0166 0.59375 0.0
H3467 H 0.81086 0.99175 0.5711 0.0
H3468 H 0.83498 0.01951 0.49011 0.0
H3469 H 0.84609 0.01341 0.47078 0.0
H3470 H 0.85692 0.02944 0.49197 0.0
H3471 H 0.8704 0.01365 0.50924 0.0
H3472 H 0.85968 0.9976 0.48804 0.0
H3473 H 0.85767 0.99288 0.51904 0.0
H3474 H 0.79627 0.96827 0.54211 0.0
H3475 H 0.78652 0.94897 0.5084 0.0
H3476 H 0.83056 0.98137 0.46974 0.0
C3477 C 0.85301 0.02357 0.54424 0.0
C3478 C 0.84859 0.02617 0.56684 0.0
C3479 C 0.83328 0.01468 0.57644 0.0
C3480 C 0.82255 0.00058 0.56374 0.0
C3481 C 0.82729 0.99838 0.54141 0.0
C3482 C 0.84212 0.00965 0.5317 0.0
C3483 C 0.84415 0.00483 0.50711 0.0
C3484 C 0.84562 0.01755 0.48893 0.0
C3485 C 0.85884 0.00207 0.50579 0.0
C3486 C 0.8282 0.98899 0.50449 0.0
C3487 C 0.81866 0.98537 0.52448 0.0
C3488 C 0.80359 0.97105 0.52631 0.0
C3489 C 0.79817 0.96018 0.50717 0.0
C3490 C 0.80772 0.96385 0.48649 0.0
C3491 C 0.82288 0.97845 0.48521 0.0
H3492 H 0.83005 0.3173 0.30154 0.0
H3493 H 0.81174 0.27713 0.35124 0.0
H3494 H 0.8225 0.29686 0.38418 0.0
H3495 H 0.86698 0.34621 0.33517 0.0
H3496 H 0.86483 0.36341 0.32669 0.0
H3497 H 0.85797 0.34617 0.30718 0.0
H3498 H 0.82919 0.34319 0.30596 0.0
H3499 H 0.8359 0.36029 0.32557 0.0
H3500 H 0.81842 0.3409 0.33316 0.0
H3501 H 0.8322 0.32101 0.41174 0.0
H3502 H 0.84027 0.34736 0.4313 0.0
H3503 H 0.852 0.37141 0.36322 0.0
C3504 C 0.8285 0.31264 0.31934 0.0
C3505 C 0.82005 0.29568 0.32384 0.0
C3506 C 0.81837 0.29007 0.34737 0.0
C3507 C 0.82439 0.30119 0.36619 0.0
C3508 C 0.83219 0.31784 0.36113 0.0
C3509 C 0.83438 0.32352 0.33823 0.0
C3510 C 0.84196 0.34188 0.33744 0.0
C3511 C 0.85894 0.34989 0.32594 0.0
C3512 C 0.83069 0.34684 0.32479 0.0
C3513 C 0.84314 0.34562 0.36346 0.0
C3514 C 0.83767 0.33166 0.37691 0.0
C3515 C 0.83675 0.33205 0.40139 0.0
C3516 C 0.84139 0.34706 0.41235 0.0
C3517 C 0.84672 0.36143 0.39878 0.0
C3518 C 0.84785 0.36063 0.37407 0.0
H3519 H 0.63877 0.49085 0.3871 0.0
H3520 H 0.64855 0.45532 0.42029 0.0
H3521 H 0.67529 0.46761 0.40027 0.0
H3522 H 0.6541 0.48989 0.33259 0.0
H3523 H 0.66299 0.51134 0.32614 0.0
H3524 H 0.64584 0.50156 0.34581 0.0
H3525 H 0.66232 0.52264 0.37837 0.0
H3526 H 0.67952 0.53261 0.35869 0.0
H3527 H 0.68194 0.52561 0.38713 0.0
H3528 H 0.69902 0.48129 0.37321 0.0
H3529 H 0.7183 0.49544 0.3409 0.0
H3530 H 0.69364 0.52272 0.32562 0.0
C3531 C 0.64679 0.48602 0.39072 0.0
C3532 C 0.6417 0.47223 0.40532 0.0
C3533 C 0.65227 0.46589 0.40911 0.0
C3534 C 0.66749 0.47284 0.39794 0.0
C3535 C 0.67197 0.48616 0.38314 0.0
C3536 C 0.662 0.49278 0.37961 0.0
C3537 C 0.66905 0.50613 0.36115 0.0
C3538 C 0.65729 0.50197 0.34019 0.0
C3539 C 0.67347 0.52273 0.37199 0.0
C3540 C 0.68421 0.50554 0.35424 0.0
C3541 C 0.68578 0.49412 0.3674 0.0
C3542 C 0.69815 0.49054 0.36314 0.0
C3543 C 0.70911 0.49873 0.34478 0.0
C3544 C 0.70765 0.51036 0.33081 0.0
C3545 C 0.69513 0.51393 0.33594 0.0
H3546 H 0.52323 0.17635 0.40402 0.0
H3547 H 0.48592 0.12558 0.41347 0.0
H3548 H 0.46665 0.13039 0.39031 0.0
H3549 H 0.49594 0.19405 0.40281 0.0
H3550 H 0.50786 0.20836 0.38004 0.0
H3551 H 0.51761 0.20171 0.40104 0.0
H3552 H 0.52915 0.19233 0.36681 0.0
H3553 H 0.51942 0.19889 0.34578 0.0
H3554 H 0.51531 0.17811 0.34532 0.0
H3555 H 0.45263 0.13986 0.36172 0.0
H3556 H 0.44521 0.15313 0.33042 0.0
H3557 H 0.49253 0.19699 0.33788 0.0
C3558 C 0.51093 0.16627 0.40157 0.0
C3559 C 0.50612 0.15059 0.41067 0.0
C3560 C 0.48986 0.13779 0.4071 0.0
C3561 C 0.47882 0.14038 0.39384 0.0
C3562 C 0.48421 0.15585 0.38436 0.0
C3563 C 0.49987 0.16859 0.38819 0.0
C3564 C 0.50328 0.18355 0.37412 0.0
C3565 C 0.50635 0.19776 0.39049 0.0
C3566 C 0.51763 0.1885 0.357 0.0
C3567 C 0.48727 0.17708 0.36113 0.0
C3568 C 0.4763 0.16118 0.36752 0.0
C3569 C 0.46106 0.15237 0.35678 0.0
C3570 C 0.45701 0.15997 0.33888 0.0
C3571 C 0.46825 0.17615 0.33169 0.0
C3572 C 0.48347 0.18479 0.34329 0.0
H3573 H 0.63246 0.46234 0.83518 0.0
H3574 H 0.6237 0.50318 0.83933 0.0
H3575 H 0.64421 0.51736 0.80818 0.0
H3576 H 0.6741 0.48451 0.82768 0.0
H3577 H 0.67536 0.47073 0.80701 0.0
H3578 H 0.65891 0.46312 0.82794 0.0
H3579 H 0.63781 0.45121 0.794 0.0
H3580 H 0.65423 0.45868 0.7729 0.0
H3581 H 0.63872 0.46436 0.77036 0.0
H3582 H 0.668 0.52838 0.78012 0.0
H3583 H 0.69245 0.53495 0.75672 0.0
H3584 H 0.68358 0.48571 0.76802 0.0
C3585 C 0.63444 0.47404 0.82912 0.0
C3586 C 0.62646 0.48163 0.83985 0.0
C3587 C 0.62983 0.49719 0.83171 0.0
C3588 C 0.64134 0.50529 0.81384 0.0
C3589 C 0.64919 0.49756 0.80399 0.0
C3590 C 0.64571 0.48218 0.81114 0.0
C3591 C 0.65644 0.47689 0.79867 0.0
C3592 C 0.66681 0.47363 0.81639 0.0
C3593 C 0.64618 0.4619 0.78305 0.0
C3594 C 0.66688 0.49192 0.784 0.0
C3595 C 0.66248 0.50369 0.78719 0.0
C3596 C 0.67132 0.51912 0.77704 0.0
C3597 C 0.68517 0.5227 0.7636 0.0
C3598 C 0.69004 0.51087 0.76035 0.0
C3599 C 0.6804 0.49515 0.77025 0.0
H3600 H 0.51108 0.1987 0.77348 0.0
H3601 H 0.46269 0.15833 0.75768 0.0
H3602 H 0.46929 0.13955 0.77878 0.0
H3603 H 0.53314 0.17558 0.77154 0.0
H3604 H 0.54597 0.1868 0.79605 0.0
H3605 H 0.53841 0.1965 0.77642 0.0
H3606 H 0.52585 0.20362 0.8119 0.0
H3607 H 0.53334 0.19397 0.83158 0.0
H3608 H 0.5119 0.18752 0.83118 0.0
H3609 H 0.48004 0.12581 0.80543 0.0
H3610 H 0.4939 0.11834 0.83572 0.0
H3611 H 0.53448 0.16817 0.83572 0.0
C3612 C 0.50191 0.18588 0.77419 0.0
C3613 C 0.48638 0.18001 0.76384 0.0
C3614 C 0.47478 0.16311 0.76509 0.0
C3615 C 0.4784 0.15234 0.77712 0.0
C3616 C 0.49367 0.15865 0.78771 0.0
C3617 C 0.50526 0.17503 0.78626 0.0
C3618 C 0.52014 0.17906 0.80095 0.0
C3619 C 0.53531 0.18482 0.7853 0.0
C3620 C 0.52296 0.19178 0.82003 0.0
C3621 C 0.5149 0.16251 0.81156 0.0
C3622 C 0.49972 0.15082 0.80342 0.0
C3623 C 0.492 0.13482 0.81175 0.0
C3624 C 0.49991 0.13074 0.82909 0.0
C3625 C 0.5153 0.14266 0.8381 0.0
C3626 C 0.52292 0.15866 0.82887 0.0
H3627 H 0.85756 0.3609 0.83727 0.0
H3628 H 0.8297 0.38523 0.8237 0.0
H3629 H 0.81621 0.36684 0.79037 0.0
H3630 H 0.86121 0.35069 0.77537 0.0
H3631 H 0.85828 0.33093 0.78321 0.0
H3632 H 0.86786 0.34767 0.80373 0.0
H3633 H 0.84632 0.33038 0.83537 0.0
H3634 H 0.83676 0.31362 0.81502 0.0
H3635 H 0.82493 0.32156 0.82857 0.0
H3636 H 0.80345 0.34424 0.7615 0.0
H3637 H 0.79143 0.31799 0.74022 0.0
H3638 H 0.8264 0.30734 0.77328 0.0
C3639 C 0.84876 0.36251 0.82717 0.0
C3640 C 0.84497 0.37478 0.83303 0.0
C3641 C 0.83329 0.37633 0.81928 0.0
C3642 C 0.82545 0.36587 0.8003 0.0
C3643 C 0.82933 0.35382 0.79522 0.0
C3644 C 0.84067 0.35203 0.80827 0.0
C3645 C 0.84139 0.33706 0.80058 0.0
C3646 C 0.85819 0.34188 0.7901 0.0
C3647 C 0.83709 0.32494 0.8211 0.0
C3648 C 0.82826 0.33041 0.78179 0.0
C3649 C 0.82168 0.34045 0.7787 0.0
C3650 C 0.80863 0.33637 0.76352 0.0
C3651 C 0.80185 0.32143 0.75159 0.0
C3652 C 0.80804 0.31071 0.75505 0.0
C3653 C 0.82167 0.31547 0.76991 0.0
H3654 H 0.51714 0.35021 0.36043 0.0
H3655 H 0.49821 0.37847 0.32663 0.0
H3656 H 0.48805 0.35877 0.29349 0.0
H3657 H 0.53074 0.33981 0.30814 0.0
H3658 H 0.52519 0.3196 0.31818 0.0
H3659 H 0.53067 0.33579 0.33919 0.0
H3660 H 0.50306 0.31849 0.36076 0.0
H3661 H 0.49754 0.30219 0.33994 0.0
H3662 H 0.48427 0.31052 0.34439 0.0
H3663 H 0.47965 0.33544 0.26431 0.0
H3664 H 0.47412 0.31085 0.2415 0.0
H3665 H 0.49893 0.29854 0.295 0.0
C3666 C 0.51067 0.35216 0.34621 0.0
C3667 C 0.50832 0.36577 0.34615 0.0
C3668 C 0.50015 0.36811 0.32695 0.0
C3669 C 0.49432 0.35699 0.30812 0.0
C3670 C 0.49688 0.34369 0.30876 0.0
C3671 C 0.5049 0.34129 0.32733 0.0
C3672 C 0.50631 0.32621 0.32382 0.0
C3673 C 0.5243 0.33062 0.32223 0.0
C3674 C 0.49725 0.31361 0.34339 0.0
C3675 C 0.49778 0.32041 0.30038 0.0
C3676 C 0.49238 0.33059 0.29193 0.0
C3677 C 0.48388 0.32743 0.27073 0.0
C3678 C 0.48077 0.31344 0.25794 0.0
C3679 C 0.48625 0.30291 0.26638 0.0
C3680 C 0.49489 0.30654 0.28784 0.0
H3681 H 0.68271 0.17226 0.26924 0.0
H3682 H 0.68306 0.21771 0.25795 0.0
H3683 H 0.65675 0.20667 0.27904 0.0
H3684 H 0.63696 0.14432 0.26659 0.0
H3685 H 0.63743 0.13161 0.28988 0.0
H3686 H 0.65455 0.14185 0.27011 0.0
H3687 H 0.67377 0.15513 0.30581 0.0
H3688 H 0.65674 0.14512 0.32564 0.0
H3689 H 0.66953 0.16702 0.32645 0.0
H3690 H 0.63324 0.19268 0.30611 0.0
H3691 H 0.61361 0.17658 0.33698 0.0
H3692 H 0.62768 0.13946 0.33063 0.0
C3693 C 0.67683 0.17956 0.27048 0.0
C3694 C 0.68456 0.19565 0.26166 0.0
C3695 C 0.67704 0.20524 0.26431 0.0
C3696 C 0.66215 0.19907 0.27622 0.0
C3697 C 0.655 0.1833 0.28538 0.0
C3698 C 0.662 0.17359 0.28252 0.0
C3699 C 0.65275 0.15783 0.29635 0.0
C3700 C 0.64496 0.14302 0.27973 0.0
C3701 C 0.66386 0.15619 0.31464 0.0
C3702 C 0.63987 0.16048 0.3081 0.0
C3703 C 0.64128 0.17515 0.30125 0.0
C3704 C 0.6317 0.18096 0.31114 0.0
C3705 C 0.62047 0.17161 0.32864 0.0
C3706 C 0.6188 0.15653 0.33615 0.0
C3707 C 0.62855 0.15087 0.32537 0.0
H3708 H 0.83279 0.46301 0.33385 0.0
H3709 H 0.88178 0.50469 0.33092 0.0
H3710 H 0.87362 0.516 0.29762 0.0
H3711 H 0.82343 0.46015 0.26964 0.0
H3712 H 0.80263 0.45504 0.27512 0.0
H3713 H 0.81307 0.44897 0.2958 0.0
H3714 H 0.80686 0.46367 0.32934 0.0
H3715 H 0.79645 0.46978 0.30882 0.0
H3716 H 0.8131 0.48498 0.32613 0.0
H3717 H 0.85936 0.52397 0.26744 0.0
H3718 H 0.83978 0.52902 0.24526 0.0
H3719 H 0.79999 0.48249 0.26905 0.0
C3720 C 0.8419 0.47425 0.32566 0.0
C3721 C 0.85796 0.48289 0.33457 0.0
C3722 C 0.86945 0.49787 0.32411 0.0
C3723 C 0.86494 0.50431 0.30516 0.0
C3724 C 0.8489 0.49562 0.297 0.0
C3725 C 0.83754 0.48093 0.307 0.0
C3726 C 0.82066 0.47495 0.29702 0.0
C3727 C 0.81459 0.45882 0.28359 0.0
C3728 C 0.80856 0.47326 0.31648 0.0
C3729 C 0.82416 0.48882 0.28039 0.0
C3730 C 0.84057 0.50045 0.28019 0.0
C3731 C 0.84652 0.51483 0.26719 0.0
C3732 C 0.83535 0.51757 0.25457 0.0
C3733 C 0.81843 0.5061 0.25542 0.0
C3734 C 0.81289 0.4914 0.26803 0.0
H3735 H 0.63473 0.14211 0.88361 0.0
H3736 H 0.65566 0.18109 0.93528 0.0
H3737 H 0.68209 0.19337 0.91434 0.0
H3738 H 0.67244 0.13947 0.87336 0.0
H3739 H 0.66804 0.13557 0.84239 0.0
H3740 H 0.65156 0.12868 0.86332 0.0
H3741 H 0.63995 0.14429 0.84032 0.0
H3742 H 0.65643 0.15137 0.8195 0.0
H3743 H 0.65282 0.16587 0.83506 0.0
H3744 H 0.70485 0.20318 0.88514 0.0
H3745 H 0.72251 0.20967 0.85033 0.0
H3746 H 0.68718 0.16358 0.81846 0.0
C3747 C 0.64502 0.15291 0.891 0.0
C3748 C 0.64319 0.1606 0.91115 0.0
C3749 C 0.6568 0.17504 0.91981 0.0
C3750 C 0.67187 0.18203 0.90813 0.0
C3751 C 0.67314 0.17436 0.88794 0.0
C3752 C 0.66012 0.16003 0.87956 0.0
C3753 C 0.66425 0.15498 0.85643 0.0
C3754 C 0.66406 0.13871 0.85904 0.0
C3755 C 0.65268 0.15409 0.83667 0.0
C3756 C 0.68141 0.16903 0.85266 0.0
C3757 C 0.68638 0.17997 0.87116 0.0
C3758 C 0.70126 0.19451 0.87081 0.0
C3759 C 0.71127 0.19805 0.85094 0.0
C3760 C 0.70636 0.18708 0.83162 0.0
C3761 C 0.69132 0.17226 0.83282 0.0
H3762 H 0.84463 0.49452 0.89913 0.0
H3763 H 0.80448 0.44439 0.9001 0.0
H3764 H 0.78942 0.45164 0.87199 0.0
H3765 H 0.81968 0.51429 0.89153 0.0
H3766 H 0.83423 0.52956 0.87178 0.0
H3767 H 0.84112 0.52102 0.89439 0.0
H3768 H 0.85532 0.51275 0.86267 0.0
H3769 H 0.84836 0.5211 0.83997 0.0
H3770 H 0.84353 0.50011 0.83833 0.0
H3771 H 0.77986 0.4632 0.84092 0.0
H3772 H 0.77581 0.47885 0.80971 0.0
H3773 H 0.82205 0.52162 0.82802 0.0
C3774 C 0.83258 0.48511 0.8937 0.0
C3775 C 0.82571 0.46891 0.90218 0.0
C3776 C 0.80989 0.45699 0.89449 0.0
C3777 C 0.80126 0.46094 0.87831 0.0
C3778 C 0.80856 0.47686 0.8699 0.0
C3779 C 0.8238 0.48882 0.8774 0.0
C3780 C 0.82922 0.50474 0.86444 0.0
C3781 C 0.83117 0.5182 0.88156 0.0
C3782 C 0.84504 0.50998 0.85053 0.0
C3783 C 0.8148 0.49971 0.84812 0.0
C3784 C 0.803 0.48361 0.85173 0.0
C3785 C 0.78886 0.47592 0.8382 0.0
C3786 C 0.78665 0.48496 0.82057 0.0
C3787 C 0.79849 0.50155 0.81659 0.0
C3788 C 0.81276 0.50898 0.83061 0.0
H3789 H 0.51464 0.34356 0.90424 0.0
H3790 H 0.49378 0.37318 0.88214 0.0
H3791 H 0.47482 0.35104 0.85584 0.0
H3792 H 0.51542 0.32857 0.84936 0.0
H3793 H 0.51023 0.30836 0.85888 0.0
H3794 H 0.52029 0.32531 0.87883 0.0
H3795 H 0.49694 0.31033 0.90915 0.0
H3796 H 0.48683 0.29325 0.88929 0.0
H3797 H 0.47613 0.30317 0.90036 0.0
H3798 H 0.46112 0.32766 0.8278 0.0
H3799 H 0.4534 0.30461 0.80071 0.0
H3800 H 0.48237 0.28957 0.84181 0.0
C3801 C 0.50587 0.34527 0.89419 0.0
C3802 C 0.50563 0.36006 0.89538 0.0
C3803 C 0.494 0.36184 0.88189 0.0
C3804 C 0.4832 0.34935 0.86682 0.0
C3805 C 0.48405 0.33508 0.86562 0.0
C3806 C 0.49497 0.3329 0.87912 0.0
C3807 C 0.49433 0.31699 0.87315 0.0
C3808 C 0.51106 0.32 0.86454 0.0
C3809 C 0.48819 0.30524 0.89425 0.0
C3810 C 0.4819 0.31094 0.85343 0.0
C3811 C 0.47595 0.32143 0.84957 0.0
C3812 C 0.46538 0.31913 0.83101 0.0
C3813 C 0.46099 0.30591 0.81576 0.0
C3814 C 0.46718 0.29514 0.81911 0.0
C3815 C 0.47746 0.29757 0.83861 0.0
H3816 H 0.46855 0.62841 0.67158 0.0
H3817 H 0.51186 0.62386 0.66594 0.0
H3818 H 0.52562 0.64562 0.69575 0.0
H3819 H 0.48805 0.67002 0.67487 0.0
H3820 H 0.4743 0.67113 0.69577 0.0
H3821 H 0.46713 0.65372 0.67668 0.0
H3822 H 0.45776 0.6344 0.71283 0.0
H3823 H 0.46478 0.65179 0.73211 0.0
H3824 H 0.47215 0.63766 0.73594 0.0
H3825 H 0.53559 0.67004 0.72272 0.0
H3826 H 0.54092 0.69501 0.74409 0.0
H3827 H 0.49066 0.68268 0.73279 0.0
C3828 C 0.48072 0.63154 0.67718 0.0
C3829 C 0.48908 0.62433 0.66653 0.0
C3830 C 0.50523 0.62926 0.67379 0.0
C3831 C 0.5131 0.64152 0.69083 0.0
C3832 C 0.50459 0.64861 0.70059 0.0
C3833 C 0.4887 0.64368 0.69414 0.0
C3834 C 0.48266 0.6541 0.70568 0.0
C3835 C 0.47776 0.66275 0.68714 0.0
C3836 C 0.4685 0.64387 0.72265 0.0
C3837 C 0.49785 0.66608 0.71891 0.0
C3838 C 0.51031 0.66261 0.71608 0.0
C3839 C 0.52582 0.67269 0.72542 0.0
C3840 C 0.52873 0.68682 0.7376 0.0
C3841 C 0.5162 0.69078 0.74014 0.0
C3842 C 0.5005 0.68002 0.73108 0.0
H3843 H 0.35652 0.82437 0.64456 0.0
H3844 H 0.38634 0.87015 0.68115 0.0
H3845 H 0.36668 0.86029 0.71434 0.0
H3846 H 0.31834 0.81956 0.65993 0.0
H3847 H 0.30844 0.7977 0.66321 0.0
H3848 H 0.32545 0.80804 0.6434 0.0
H3849 H 0.34062 0.7954 0.66513 0.0
H3850 H 0.32364 0.78501 0.68505 0.0
H3851 H 0.34385 0.79825 0.69646 0.0
H3852 H 0.34249 0.84583 0.74225 0.0
H3853 H 0.31609 0.8282 0.76216 0.0
H3854 H 0.30296 0.7919 0.70714 0.0
C3855 C 0.35893 0.83233 0.65956 0.0
C3856 C 0.37287 0.84805 0.66028 0.0
C3857 C 0.37575 0.85802 0.68035 0.0
C3858 C 0.36465 0.85253 0.69923 0.0
C3859 C 0.35089 0.837 0.6978 0.0
C3860 C 0.34809 0.82703 0.67849 0.0
C3861 C 0.33221 0.81108 0.68077 0.0
C3862 C 0.32042 0.80898 0.66064 0.0
C3863 C 0.33527 0.79658 0.68193 0.0
C3864 C 0.32626 0.81375 0.70411 0.0
C3865 C 0.33721 0.82869 0.71382 0.0
C3866 C 0.33392 0.83402 0.73493 0.0
C3867 C 0.31894 0.8239 0.74617 0.0
C3868 C 0.30745 0.80869 0.73619 0.0
C3869 C 0.31139 0.80352 0.71512 0.0
H3870 H 0.13905 0.49522 0.65308 0.0
H3871 H 0.15484 0.5436 0.68117 0.0
H3872 H 0.1675 0.5378 0.71482 0.0
H3873 H 0.13191 0.47389 0.71043 0.0
H3874 H 0.13989 0.46126 0.69996 0.0
H3875 H 0.12991 0.4682 0.6798 0.0
H3876 H 0.15556 0.48091 0.65305 0.0
H3877 H 0.16556 0.47399 0.67306 0.0
H3878 H 0.1751 0.49532 0.66545 0.0
H3879 H 0.18116 0.52821 0.74288 0.0
H3880 H 0.19512 0.51547 0.76307 0.0
H3881 H 0.1712 0.47365 0.71645 0.0
C3882 C 0.14499 0.50453 0.66645 0.0
C3883 C 0.14573 0.5198 0.66453 0.0
C3884 C 0.15369 0.53164 0.68245 0.0
C3885 C 0.16101 0.5285 0.70164 0.0
C3886 C 0.16026 0.51345 0.70277 0.0
C3887 C 0.15242 0.50162 0.6857 0.0
C3888 C 0.15457 0.48701 0.69006 0.0
C3889 C 0.13809 0.47168 0.69538 0.0
C3890 C 0.16322 0.48415 0.66917 0.0
C3891 C 0.16535 0.49273 0.71173 0.0
C3892 C 0.16828 0.50792 0.71897 0.0
C3893 C 0.17877 0.51622 0.7376 0.0
C3894 C 0.1867 0.50894 0.74887 0.0
C3895 C 0.18416 0.49355 0.7414 0.0
C3896 C 0.17308 0.48525 0.72289 0.0
H3897 H 0.34813 0.82119 0.09738 0.0
H3898 H 0.36761 0.87357 0.10134 0.0
H3899 H 0.34444 0.86905 0.12631 0.0
H3900 H 0.30407 0.80872 0.09957 0.0
H3901 H 0.29925 0.79134 0.11795 0.0
H3902 H 0.31576 0.7985 0.09704 0.0
H3903 H 0.33556 0.80127 0.13062 0.0
H3904 H 0.31917 0.79421 0.15159 0.0
H3905 H 0.33752 0.81357 0.15601 0.0
H3906 H 0.32152 0.85923 0.15521 0.0
H3907 H 0.30017 0.84467 0.18527 0.0
H3908 H 0.29608 0.79881 0.16347 0.0
C3909 C 0.3474 0.83171 0.10316 0.0
C3910 C 0.35968 0.84773 0.0972 0.0
C3911 C 0.35822 0.86116 0.10517 0.0
C3912 C 0.34512 0.85872 0.11949 0.0
C3913 C 0.33353 0.8428 0.12562 0.0
C3914 C 0.33447 0.82951 0.11757 0.0
C3915 C 0.32133 0.81378 0.12848 0.0
C3916 C 0.30939 0.80242 0.10963 0.0
C3917 C 0.32885 0.80522 0.14251 0.0
C3918 C 0.31323 0.82037 0.14458 0.0
C3919 C 0.32031 0.83712 0.14245 0.0
C3920 C 0.3157 0.84609 0.15676 0.0
C3921 C 0.30366 0.83775 0.17387 0.0
C3922 C 0.29643 0.82063 0.17656 0.0
C3923 C 0.30113 0.81185 0.16144 0.0
H3924 H 0.17049 0.51614 0.09732 0.0
H3925 H 0.11809 0.48879 0.10835 0.0
H3926 H 0.12129 0.46945 0.13381 0.0
H3927 H 0.17744 0.48058 0.0994 0.0
H3928 H 0.19647 0.49221 0.11496 0.0
H3929 H 0.18979 0.50226 0.09452 0.0
H3930 H 0.19214 0.52238 0.12734 0.0
H3931 H 0.19877 0.51239 0.14783 0.0
H3932 H 0.18124 0.51442 0.1546 0.0
H3933 H 0.13051 0.45569 0.16268 0.0
H3934 H 0.14508 0.44813 0.19176 0.0
H3935 H 0.1914 0.48439 0.16193 0.0
C3936 C 0.15966 0.5059 0.10473 0.0
C3937 C 0.14403 0.50393 0.10073 0.0
C3938 C 0.13015 0.49039 0.11079 0.0
C3939 C 0.13186 0.47936 0.12535 0.0
C3940 C 0.1475 0.48194 0.12949 0.0
C3941 C 0.16115 0.49478 0.11926 0.0
C3942 C 0.17668 0.4957 0.12812 0.0
C3943 C 0.18562 0.49249 0.10805 0.0
C3944 C 0.18785 0.51219 0.14019 0.0
C3945 C 0.16968 0.4818 0.14566 0.0
C3946 C 0.15281 0.47387 0.146 0.0
C3947 C 0.1437 0.46157 0.16224 0.0
C3948 C 0.15205 0.45741 0.17873 0.0
C3949 C 0.16933 0.46554 0.17885 0.0
C3950 C 0.17818 0.47766 0.1618 0.0
H3951 H 0.50319 0.70337 0.1645 0.0
H3952 H 0.54451 0.6981 0.18501 0.0
H3953 H 0.53735 0.67721 0.15411 0.0
H3954 H 0.47602 0.66247 0.15541 0.0
H3955 H 0.46593 0.66514 0.1303 0.0
H3956 H 0.4755 0.68115 0.1518 0.0
H3957 H 0.49302 0.70154 0.11909 0.0
H3958 H 0.48343 0.68557 0.09741 0.0
H3959 H 0.50535 0.69674 0.10018 0.0
H3960 H 0.52405 0.65498 0.12415 0.0
H3961 H 0.50537 0.63268 0.09795 0.0
H3962 H 0.47315 0.65302 0.09583 0.0
C3963 C 0.51102 0.69817 0.16205 0.0
C3964 C 0.52445 0.7024 0.17709 0.0
C3965 C 0.5341 0.69496 0.17377 0.0
C3966 C 0.53021 0.68319 0.15615 0.0
C3967 C 0.5167 0.67909 0.1419 0.0
C3968 C 0.5073 0.68641 0.14457 0.0
C3969 C 0.49266 0.67888 0.12828 0.0
C3970 C 0.47659 0.67147 0.14229 0.0
C3971 C 0.49368 0.69143 0.11016 0.0
C3972 C 0.49497 0.66577 0.11666 0.0
C3973 C 0.50904 0.66626 0.12449 0.0
C3974 C 0.51318 0.65468 0.11751 0.0
C3975 C 0.5025 0.64209 0.10246 0.0
C3976 C 0.48781 0.64112 0.0946 0.0
C3977 C 0.48425 0.65338 0.10149 0.0
H3978 H 0.14834 0.63131 0.63418 0.0
H3979 H 0.17239 0.65561 0.56915 0.0
H3980 H 0.18115 0.68235 0.58782 0.0
H3981 H 0.13528 0.6597 0.65286 0.0
H3982 H 0.13956 0.65833 0.68344 0.0
H3983 H 0.13372 0.64115 0.66415 0.0
H3984 H 0.16006 0.64064 0.67528 0.0
H3985 H 0.16589 0.6577 0.6947 0.0
H3986 H 0.17962 0.65891 0.67175 0.0
H3987 H 0.1886 0.70656 0.61467 0.0
H3988 H 0.19516 0.72596 0.64757 0.0
H3989 H 0.16784 0.68527 0.69522 0.0
C3990 C 0.15549 0.64221 0.62377 0.0
C3991 C 0.15968 0.64129 0.60015 0.0
C3992 C 0.16881 0.65593 0.58716 0.0
C3993 C 0.17389 0.6712 0.59764 0.0
C3994 C 0.16974 0.6716 0.62109 0.0
C3995 C 0.16079 0.65746 0.63398 0.0
C3996 C 0.15883 0.66112 0.6593 0.0
C3997 C 0.14077 0.65469 0.66527 0.0
C3998 C 0.16657 0.65419 0.67625 0.0
C3999 C 0.16835 0.67956 0.65882 0.0
C4000 C 0.17435 0.68542 0.63659 0.0
C4001 C 0.18392 0.70209 0.63213 0.0
C4002 C 0.18766 0.71301 0.65098 0.0
C4003 C 0.18202 0.7072 0.67408 0.0
C4004 C 0.17206 0.69022 0.67779 0.0
H4005 H 0.30887 0.4723 0.67455 0.0
H4006 H 0.27792 0.49063 0.64803 0.0
H4007 H 0.2965 0.50317 0.61464 0.0
H4008 H 0.34508 0.50831 0.66457 0.0
H4009 H 0.35685 0.49881 0.65667 0.0
H4010 H 0.33953 0.48838 0.67587 0.0
H4011 H 0.32693 0.46352 0.64763 0.0
H4012 H 0.34425 0.47393 0.62825 0.0
H4013 H 0.32389 0.46643 0.61706 0.0
H4014 H 0.31983 0.51662 0.58686 0.0
H4015 H 0.34695 0.53111 0.56801 0.0
H4016 H 0.36385 0.50603 0.61414 0.0
C4017 C 0.30583 0.47879 0.66166 0.0
C4018 C 0.29168 0.4802 0.66402 0.0
C4019 C 0.28831 0.48883 0.6465 0.0
C4020 C 0.29889 0.49612 0.62741 0.0
C4021 C 0.31288 0.49482 0.62603 0.0
C4022 C 0.31641 0.48641 0.64271 0.0
C4023 C 0.3332 0.48851 0.63872 0.0
C4024 C 0.34431 0.49648 0.66023 0.0
C4025 C 0.33199 0.47212 0.63254 0.0
C4026 C 0.33876 0.4999 0.61771 0.0
C4027 C 0.32671 0.50309 0.61036 0.0
C4028 C 0.32931 0.51408 0.59228 0.0
C4029 C 0.34478 0.52233 0.58179 0.0
C4030 C 0.35751 0.51971 0.58961 0.0
C4031 C 0.35428 0.50805 0.60744 0.0
H4032 H 0.52318 0.83113 0.67981 0.0
H4033 H 0.51268 0.78471 0.64978 0.0
H4034 H 0.50177 0.79074 0.61403 0.0
H4035 H 0.4879 0.82987 0.66184 0.0
H4036 H 0.497 0.85134 0.65538 0.0
H4037 H 0.50624 0.84452 0.67684 0.0
H4038 H 0.53356 0.85901 0.65383 0.0
H4039 H 0.52438 0.86591 0.63225 0.0
H4040 H 0.53389 0.85439 0.62311 0.0
H4041 H 0.48806 0.79977 0.58473 0.0
H4042 H 0.47383 0.81185 0.56328 0.0
H4043 H 0.49411 0.85274 0.6117 0.0
C4044 C 0.51887 0.82239 0.66549 0.0
C4045 C 0.51881 0.80749 0.66748 0.0
C4046 C 0.51305 0.79631 0.64845 0.0
C4047 C 0.5068 0.79962 0.62811 0.0
C4048 C 0.50666 0.81426 0.62695 0.0
C4049 C 0.51275 0.82558 0.64501 0.0
C4050 C 0.51008 0.83981 0.64022 0.0
C4051 C 0.49968 0.84147 0.65972 0.0
C4052 C 0.52646 0.85572 0.63716 0.0
C4053 C 0.50087 0.83438 0.61718 0.0
C4054 C 0.49914 0.81969 0.60967 0.0
C4055 C 0.48968 0.81147 0.59009 0.0
C4056 C 0.48161 0.81836 0.57808 0.0
C4057 C 0.48316 0.83332 0.58566 0.0
C4058 C 0.49316 0.84154 0.60515 0.0
H4059 H 0.29823 0.4825 0.19865 0.0
H4060 H 0.32002 0.51294 0.26024 0.0
H4061 H 0.34724 0.52478 0.24166 0.0
H4062 H 0.33189 0.47516 0.1852 0.0
H4063 H 0.32956 0.47618 0.15385 0.0
H4064 H 0.31208 0.46908 0.17293 0.0
H4065 H 0.30624 0.49111 0.15599 0.0
H4066 H 0.32366 0.49825 0.13688 0.0
H4067 H 0.32207 0.51226 0.15674 0.0
H4068 H 0.37166 0.53506 0.21478 0.0
H4069 H 0.39142 0.5425 0.18205 0.0
H4070 H 0.35348 0.50532 0.13825 0.0
C4071 C 0.30873 0.49159 0.20831 0.0
C4072 C 0.307 0.4968 0.2309 0.0
C4073 C 0.32108 0.50862 0.24303 0.0
C4074 C 0.33657 0.51545 0.23259 0.0
C4075 C 0.33779 0.51023 0.21011 0.0
C4076 C 0.32425 0.49849 0.19818 0.0
C4077 C 0.32868 0.49554 0.17379 0.0
C4078 C 0.32536 0.47794 0.17131 0.0
C4079 C 0.31963 0.49954 0.15474 0.0
C4080 C 0.34679 0.5077 0.17363 0.0
C4081 C 0.35184 0.51601 0.19476 0.0
C4082 C 0.36788 0.5285 0.19826 0.0
C4083 C 0.37898 0.53269 0.17958 0.0
C4084 C 0.37399 0.52439 0.15774 0.0
C4085 C 0.35772 0.51162 0.15492 0.0
H4086 H 0.51178 0.81058 0.19933 0.0
H4087 H 0.5029 0.82447 0.26811 0.0
H4088 H 0.49406 0.8424 0.24914 0.0
H4089 H 0.52736 0.85041 0.17177 0.0
H4090 H 0.51796 0.84178 0.14382 0.0
H4091 H 0.52417 0.8307 0.163 0.0
H4092 H 0.49477 0.80583 0.16215 0.0
H4093 H 0.48849 0.81681 0.14294 0.0
H4094 H 0.47787 0.80857 0.1703 0.0
H4095 H 0.48405 0.85699 0.22211 0.0
H4096 H 0.47505 0.86804 0.1894 0.0
H4097 H 0.49175 0.84522 0.13889 0.0
C4098 C 0.508 0.81743 0.21038 0.0
C4099 C 0.50788 0.81612 0.23512 0.0
C4100 C 0.50309 0.8254 0.24909 0.0
C4101 C 0.49805 0.83556 0.23848 0.0
C4102 C 0.49814 0.83644 0.21395 0.0
C4103 C 0.50316 0.82773 0.20013 0.0
C4104 C 0.50193 0.83055 0.17421 0.0
C4105 C 0.51886 0.83886 0.16252 0.0
C4106 C 0.49006 0.81448 0.16167 0.0
C4107 C 0.49511 0.84196 0.17552 0.0
C4108 C 0.49298 0.84524 0.19856 0.0
C4109 C 0.4859 0.85471 0.20401 0.0
C4110 C 0.4808 0.86089 0.1854 0.0
C4111 C 0.48297 0.85767 0.16173 0.0
C4112 C 0.49035 0.84821 0.15684 0.0
H4113 H 0.18614 0.69898 0.20042 0.0
H4114 H 0.18131 0.67467 0.26716 0.0
H4115 H 0.16418 0.64787 0.24786 0.0
H4116 H 0.14503 0.67087 0.17834 0.0
H4117 H 0.15205 0.67218 0.14848 0.0
H4118 H 0.16263 0.68932 0.16809 0.0
H4119 H 0.18972 0.68947 0.16027 0.0
H4120 H 0.17924 0.67237 0.14065 0.0
H4121 H 0.19061 0.6711 0.16523 0.0
H4122 H 0.14986 0.62373 0.22016 0.0
H4123 H 0.13886 0.60434 0.18675 0.0
H4124 H 0.15309 0.64485 0.13863 0.0
C4125 C 0.1814 0.68802 0.21102 0.0
C4126 C 0.1851 0.68885 0.23525 0.0
C4127 C 0.17852 0.67427 0.2486 0.0
C4128 C 0.16882 0.65903 0.23778 0.0
C4129 C 0.16569 0.65865 0.21371 0.0
C4130 C 0.17169 0.6728 0.20057 0.0
C4131 C 0.16722 0.66916 0.17484 0.0
C4132 C 0.15607 0.67577 0.16698 0.0
C4133 C 0.18261 0.67592 0.15935 0.0
C4134 C 0.1581 0.65071 0.17538 0.0
C4135 C 0.15725 0.64484 0.19794 0.0
C4136 C 0.15025 0.62819 0.20249 0.0
C4137 C 0.14411 0.61729 0.18344 0.0
C4138 C 0.14499 0.62312 0.1602 0.0
C4139 C 0.1519 0.64003 0.15627 0.0
H4140 H 0.13316 0.17136 0.26212 0.0
H4141 H 0.1118 0.13222 0.31364 0.0
H4142 H 0.11932 0.11561 0.28883 0.0
H4143 H 0.12222 0.14569 0.20967 0.0
H4144 H 0.14121 0.1591 0.195 0.0
H4145 H 0.13278 0.1673 0.21576 0.0
H4146 H 0.15977 0.18026 0.23958 0.0
H4147 H 0.16827 0.17209 0.21893 0.0
H4148 H 0.16763 0.16748 0.24985 0.0
H4149 H 0.13072 0.10389 0.25953 0.0
H4150 H 0.14495 0.09799 0.22789 0.0
H4151 H 0.16001 0.1454 0.19682 0.0
C4152 C 0.12999 0.15927 0.26819 0.0
C4153 C 0.12177 0.1531 0.28981 0.0
C4154 C 0.11778 0.13714 0.29694 0.0
C4155 C 0.1221 0.12763 0.28304 0.0
C4156 C 0.13041 0.13422 0.26203 0.0
C4157 C 0.13428 0.14966 0.25461 0.0
C4158 C 0.14396 0.15421 0.23191 0.0
C4159 C 0.13447 0.15672 0.2119 0.0
C4160 C 0.16091 0.16941 0.23528 0.0
C4161 C 0.14518 0.13904 0.22795 0.0
C4162 C 0.13718 0.12758 0.24539 0.0
C4163 C 0.13698 0.11275 0.24573 0.0
C4164 C 0.1452 0.10956 0.22778 0.0
C4165 C 0.1536 0.1212 0.20981 0.0
C4166 C 0.15348 0.13609 0.20999 0.0
H4167 H 0.83846 0.96287 0.26387 0.0
H4168 H 0.86679 0.98545 0.32689 0.0
H4169 H 0.88264 0.01145 0.30539 0.0
H4170 H 0.87205 0.985 0.22148 0.0
H4171 H 0.85885 0.98666 0.20014 0.0
H4172 H 0.85081 0.96947 0.21993 0.0
H4173 H 0.82872 0.97615 0.23393 0.0
H4174 H 0.83674 0.9934 0.21432 0.0
H4175 H 0.83489 0.99621 0.24532 0.0
H4176 H 0.89324 0.03575 0.27831 0.0
H4177 H 0.89918 0.05598 0.24662 0.0
H4178 H 0.86443 0.01738 0.20115 0.0
C4179 C 0.84816 0.97323 0.27303 0.0
C4180 C 0.85146 0.97212 0.29701 0.0
C4181 C 0.86424 0.98595 0.30841 0.0
C4182 C 0.87324 0.00079 0.29639 0.0
C4183 C 0.86943 0.00157 0.2729 0.0
C4184 C 0.85734 0.9881 0.26125 0.0
C4185 C 0.85524 0.99231 0.23626 0.0
C4186 C 0.8595 0.9828 0.2184 0.0
C4187 C 0.83787 0.98935 0.23224 0.0
C4188 C 0.86775 0.01034 0.23585 0.0
C4189 C 0.87582 0.01547 0.25715 0.0
C4190 C 0.8872 0.03183 0.26143 0.0
C4191 C 0.89043 0.04323 0.24343 0.0
C4192 C 0.8824 0.03817 0.22144 0.0
C4193 C 0.871 0.0215 0.21764 0.0
H4194 H 0.96013 0.82845 0.22969 0.0
H4195 H 0.9775 0.8693 0.18109 0.0
H4196 H 0.00108 0.88551 0.20698 0.0
H4197 H 0.97414 0.85166 0.28415 0.0
H4198 H 0.98024 0.83803 0.29676 0.0
H4199 H 0.96362 0.83038 0.276 0.0
H4200 H 0.97831 0.81924 0.24977 0.0
H4201 H 0.99494 0.82683 0.27043 0.0
H4202 H 0.99887 0.83293 0.23997 0.0
H4203 H 0.02365 0.89683 0.23733 0.0
H4204 H 0.04371 0.90191 0.26863 0.0
H4205 H 0.01286 0.85243 0.29437 0.0
C4206 C 0.96883 0.84079 0.22435 0.0
C4207 C 0.96678 0.84753 0.20326 0.0
C4208 C 0.97847 0.86388 0.19735 0.0
C4209 C 0.99202 0.87318 0.21189 0.0
C4210 C 0.9938 0.86598 0.23221 0.0
C4211 C 0.98254 0.85013 0.23837 0.0
C4212 C 0.98785 0.84477 0.26012 0.0
C4213 C 0.97574 0.84099 0.28046 0.0
C4214 C 0.99013 0.83008 0.25474 0.0
C4215 C 0.00401 0.86001 0.26504 0.0
C4216 C 0.00711 0.8722 0.24899 0.0
C4217 C 0.02136 0.88734 0.24995 0.0
C4218 C 0.03278 0.89005 0.26769 0.0
C4219 C 0.03002 0.87757 0.28405 0.0
C4220 C 0.01534 0.86239 0.28257 0.0
H4221 H 0.87786 0.85551 0.7107 0.0
H4222 H 0.8531 0.80357 0.72584 0.0
H4223 H 0.83694 0.80728 0.75669 0.0
H4224 H 0.88005 0.86869 0.77134 0.0
H4225 H 0.87655 0.88523 0.76396 0.0
H4226 H 0.88636 0.87859 0.74308 0.0
H4227 H 0.86443 0.87399 0.71194 0.0
H4228 H 0.85449 0.88051 0.73278 0.0
H4229 H 0.84315 0.86082 0.71882 0.0
H4230 H 0.82272 0.81613 0.78446 0.0
H4231 H 0.81239 0.82996 0.80995 0.0
H4232 H 0.84694 0.87656 0.77851 0.0
C4233 C 0.86907 0.84496 0.7206 0.0
C4234 C 0.86682 0.82927 0.71606 0.0
C4235 C 0.85522 0.81574 0.72935 0.0
C4236 C 0.84589 0.8177 0.74676 0.0
C4237 C 0.84834 0.83327 0.75076 0.0
C4238 C 0.85971 0.84672 0.73828 0.0
C4239 C 0.85998 0.86213 0.74643 0.0
C4240 C 0.87673 0.87438 0.75683 0.0
C4241 C 0.85523 0.86981 0.72629 0.0
C4242 C 0.8469 0.85517 0.76533 0.0
C4243 C 0.84032 0.83849 0.76737 0.0
C4244 C 0.8279 0.82922 0.78327 0.0
C4245 C 0.8222 0.83723 0.79779 0.0
C4246 C 0.82901 0.85441 0.79655 0.0
C4247 C 0.84143 0.86343 0.77987 0.0
H4248 H 0.16921 0.02886 0.72566 0.0
H4249 H 0.12516 0.02651 0.69869 0.0
H4250 H 0.10866 0.00449 0.72712 0.0
H4251 H 0.15248 0.98626 0.73381 0.0
H4252 H 0.16377 0.98835 0.7604 0.0
H4253 H 0.17202 0.00432 0.73863 0.0
H4254 H 0.17466 0.02531 0.77022 0.0
H4255 H 0.16641 0.00939 0.7921 0.0
H4256 H 0.15694 0.02158 0.78699 0.0
H4257 H 0.09703 0.98245 0.75852 0.0
H4258 H 0.09122 0.9619 0.7895 0.0
H4259 H 0.14302 0.97842 0.79442 0.0
C4260 C 0.15611 0.0239 0.72597 0.0
C4261 C 0.14846 0.02945 0.71009 0.0
C4262 C 0.13126 0.02237 0.71066 0.0
C4263 C 0.1218 0.00993 0.7268 0.0
C4264 C 0.12975 0.0047 0.74217 0.0
C4265 C 0.14652 0.01145 0.74182 0.0
C4266 C 0.15208 0.00335 0.75959 0.0
C4267 C 0.16058 0.99508 0.74737 0.0
C4268 C 0.16318 0.01564 0.77833 0.0
C4269 C 0.13582 0.9909 0.76993 0.0
C4270 C 0.12308 0.99191 0.75981 0.0
C4271 C 0.10692 0.98154 0.76654 0.0
C4272 C 0.10374 0.96982 0.78405 0.0
C4273 C 0.11665 0.9685 0.79451 0.0
C4274 C 0.13287 0.97924 0.78721 0.0
H4275 H 0.96576 0.13513 0.72885 0.0
H4276 H 0.98454 0.11346 0.67962 0.0
H4277 H 0.00871 0.12199 0.70503 0.0
H4278 H 0.0032 0.16989 0.74148 0.0
H4279 H 0.99895 0.17083 0.7722 0.0
H4280 H 0.98243 0.16166 0.75138 0.0
H4281 H 0.96883 0.13494 0.77585 0.0
H4282 H 0.98528 0.14408 0.79687 0.0
H4283 H 0.98036 0.12503 0.78294 0.0
H4284 H 0.0316 0.13441 0.73461 0.0
H4285 H 0.05133 0.14951 0.76635 0.0
H4286 H 0.01768 0.16355 0.79546 0.0
C4287 C 0.97476 0.13184 0.72372 0.0
C4288 C 0.97327 0.12358 0.70236 0.0
C4289 C 0.98551 0.11985 0.6959 0.0
C4290 C -0.00077 0.12458 0.71025 0.0
C4291 C 0.00049 0.133 0.73098 0.0
C4292 C 0.98855 0.13654 0.73776 0.0
C4293 C 0.99325 0.14652 0.76016 0.0
C4294 C 0.99454 0.16321 0.75604 0.0
C4295 C 0.98121 0.13707 0.78014 0.0
C4296 C 0.00982 0.1483 0.76471 0.0
C4297 C 0.01374 0.14032 0.74781 0.0
C4298 C 0.02863 0.14065 0.74801 0.0
C4299 C 0.03982 0.14937 0.76599 0.0
C4300 C 0.03607 0.15772 0.78343 0.0
C4301 C 0.02082 0.15708 0.78267 0.0
H4302 H 0.80426 0.49181 0.62654 0.0
H4303 H 0.76059 0.48361 0.58996 0.0
H4304 H 0.7659 0.46858 0.55858 0.0
H4305 H 0.82913 0.49903 0.57733 0.0
H4306 H 0.83911 0.48844 0.58858 0.0
H4307 H 0.83115 0.49745 0.60865 0.0
H4308 H 0.8138 0.46946 0.62924 0.0
H4309 H 0.82173 0.46034 0.6092 0.0
H4310 H 0.79999 0.45191 0.612 0.0
H4311 H 0.7775 0.45655 0.52976 0.0
H4312 H 0.79397 0.44809 0.50624 0.0
H4313 H 0.82923 0.46305 0.56314 0.0
C4314 C 0.79578 0.48675 0.61196 0.0
C4315 C 0.78209 0.48888 0.61044 0.0
C4316 C 0.77112 0.482 0.59134 0.0
C4317 C 0.77405 0.47348 0.57352 0.0
C4318 C 0.78781 0.47173 0.57541 0.0
C4319 C 0.79838 0.47803 0.59431 0.0
C4320 C 0.81246 0.47482 0.59204 0.0
C4321 C 0.82893 0.49089 0.59161 0.0
C4322 C 0.81196 0.46345 0.61179 0.0
C4323 C 0.80856 0.46632 0.56842 0.0
C4324 C 0.79422 0.46449 0.55919 0.0
C4325 C 0.78861 0.45769 0.537 0.0
C4326 C 0.79801 0.45283 0.52382 0.0
C4327 C 0.81289 0.45484 0.53285 0.0
C4328 C 0.81799 0.46143 0.55564 0.0
H4329 H 0.49439 0.29552 0.60032 0.0
H4330 H 0.53416 0.3136 0.65067 0.0
H4331 H 0.55016 0.33809 0.62594 0.0
H4332 H 0.51971 0.3108 0.5473 0.0
H4333 H 0.50574 0.31581 0.53309 0.0
H4334 H 0.49819 0.29915 0.55378 0.0
H4335 H 0.48468 0.31244 0.5781 0.0
H4336 H 0.49226 0.32916 0.5576 0.0
H4337 H 0.49703 0.33312 0.58847 0.0
H4338 H 0.56085 0.36167 0.59696 0.0
H4339 H 0.56581 0.38162 0.56531 0.0
H4340 H 0.51852 0.34802 0.53503 0.0
C4341 C 0.50653 0.30457 0.60605 0.0
C4342 C 0.51305 0.30267 0.62738 0.0
C4343 C 0.52902 0.31472 0.63421 0.0
C4344 C 0.53815 0.3287 0.62035 0.0
C4345 C 0.53117 0.33036 0.59967 0.0
C4346 C 0.51577 0.31852 0.59245 0.0
C4347 C 0.51075 0.32342 0.57001 0.0
C4348 C 0.50847 0.31159 0.54985 0.0
C4349 C 0.49527 0.32461 0.57379 0.0
C4350 C 0.52557 0.34003 0.56596 0.0
C4351 C 0.53727 0.34382 0.58313 0.0
C4352 C 0.55181 0.35877 0.58333 0.0
C4353 C 0.55446 0.37007 0.5654 0.0
C4354 C 0.5426 0.36636 0.54761 0.0
C4355 C 0.52799 0.35112 0.54807 0.0
H4356 H 0.63112 0.18322 0.56172 0.0
H4357 H 0.64931 0.16268 0.50976 0.0
H4358 H 0.67531 0.17371 0.53158 0.0
H4359 H 0.67057 0.22044 0.57468 0.0
H4360 H 0.66631 0.21973 0.60573 0.0
H4361 H 0.6498 0.2118 0.58475 0.0
H4362 H 0.63599 0.18397 0.60642 0.0
H4363 H 0.65246 0.19178 0.62739 0.0
H4364 H 0.6473 0.1735 0.61101 0.0
H4365 H 0.69832 0.18517 0.55989 0.0
H4366 H 0.71691 0.19566 0.59389 0.0
H4367 H 0.68398 0.2086 0.62845 0.0
C4368 C 0.64076 0.18138 0.55483 0.0
C4369 C 0.63842 0.17227 0.53406 0.0
C4370 C 0.65103 0.16971 0.52565 0.0
C4371 C 0.66581 0.17596 0.53786 0.0
C4372 C 0.66772 0.18468 0.5585 0.0
C4373 C 0.65557 0.18739 0.567 0.0
C4374 C 0.66039 0.19613 0.59054 0.0
C4375 C 0.66185 0.21303 0.58881 0.0
C4376 C 0.64832 0.18572 0.60998 0.0
C4377 C 0.67696 0.19757 0.59409 0.0
C4378 C 0.681 0.19108 0.57521 0.0
C4379 C 0.69541 0.19048 0.57466 0.0
C4380 C 0.70593 0.19656 0.59403 0.0
C4381 C 0.70199 0.20309 0.61378 0.0
C4382 C 0.68733 0.20368 0.61364 0.0
H4383 H 0.52936 0.15727 0.06715 0.0
H4384 H 0.55483 0.19926 0.02139 0.0
H4385 H 0.54954 0.21607 0.04963 0.0
H4386 H 0.49763 0.16483 0.08196 0.0
H4387 H 0.49555 0.15774 0.11192 0.0
H4388 H 0.50308 0.14967 0.08964 0.0
H4389 H 0.52912 0.15815 0.11447 0.0
H4390 H 0.52165 0.16627 0.13686 0.0
H4391 H 0.54143 0.17908 0.12383 0.0
H4392 H 0.54034 0.22781 0.08192 0.0
H4393 H 0.52666 0.23338 0.11463 0.0
H4394 H 0.50544 0.183 0.13768 0.0
C4395 C 0.53409 0.17009 0.06343 0.0
C4396 C 0.54269 0.17714 0.04243 0.0
C4397 C 0.54834 0.1938 0.0376 0.0
C4398 C 0.54543 0.20339 0.05352 0.0
C4399 C 0.53672 0.19605 0.07401 0.0
C4400 C 0.53105 0.17976 0.07894 0.0
C4401 C 0.5208 0.17449 0.10112 0.0
C4402 C 0.50323 0.16088 0.09583 0.0
C4403 C 0.52873 0.16919 0.1202 0.0
C4404 C 0.52141 0.19029 0.10773 0.0
C4405 C 0.53084 0.20264 0.09208 0.0
C4406 C 0.53291 0.21823 0.09429 0.0
C4407 C 0.52497 0.22123 0.11284 0.0
C4408 C 0.51488 0.20864 0.12878 0.0
C4409 C 0.51327 0.19302 0.12616 0.0
H4410 H 0.81455 0.35143 0.0366 0.0
H4411 H 0.86233 0.3826 0.0672 0.0
H4412 H 0.85556 0.36302 0.09995 0.0
H4413 H 0.79258 0.33897 0.09247 0.0
H4414 H 0.77873 0.31847 0.0826 0.0
H4415 H 0.78726 0.33504 0.06174 0.0
H4416 H 0.79836 0.31969 0.03695 0.0
H4417 H 0.78993 0.30311 0.05777 0.0
H4418 H 0.81138 0.31323 0.0507 0.0
H4419 H 0.84438 0.33943 0.12774 0.0
H4420 H 0.82856 0.31417 0.15096 0.0
H4421 H 0.78737 0.29883 0.10382 0.0
C4422 C 0.82352 0.35411 0.05028 0.0
C4423 C 0.83896 0.36848 0.04948 0.0
C4424 C 0.8504 0.37171 0.06769 0.0
C4425 C 0.84669 0.36064 0.08626 0.0
C4426 C 0.83141 0.34653 0.08648 0.0
C4427 C 0.81992 0.34331 0.06917 0.0
C4428 C 0.80435 0.3273 0.07377 0.0
C4429 C 0.78988 0.33012 0.07789 0.0
C4430 C 0.8008 0.31511 0.0536 0.0
C4431 C 0.80899 0.3219 0.09618 0.0
C4432 C 0.82471 0.33314 0.10307 0.0
C4433 C 0.83201 0.33061 0.12266 0.0
C4434 C 0.82299 0.31623 0.13564 0.0
C4435 C 0.80681 0.30467 0.12912 0.0
C4436 C 0.79969 0.30759 0.10922 0.0
H4437 H 0.65063 0.4595 0.02938 0.0
H4438 H 0.60803 0.44292 0.0743 0.0
H4439 H 0.62576 0.45141 0.10928 0.0
H4440 H 0.67425 0.44859 0.06895 0.0
H4441 H 0.69336 0.46656 0.06175 0.0
H4442 H 0.67722 0.45776 0.04022 0.0
H4443 H 0.67834 0.48558 0.03587 0.0
H4444 H 0.69442 0.49445 0.05745 0.0
H4445 H 0.676 0.49537 0.06164 0.0
H4446 H 0.64799 0.4634 0.13916 0.0
H4447 H 0.67335 0.47794 0.16219 0.0
H4448 H 0.7018 0.48727 0.09817 0.0
C4449 C 0.645 0.45756 0.04656 0.0
C4450 C 0.62786 0.45038 0.04899 0.0
C4451 C 0.62105 0.44803 0.07188 0.0
C4452 C 0.63103 0.45292 0.0919 0.0
C4453 C 0.64784 0.46018 0.08882 0.0
C4454 C 0.6548 0.46246 0.06676 0.0
C4455 C 0.67327 0.47128 0.06832 0.0
C4456 C 0.67991 0.4604 0.05927 0.0
C4457 C 0.68095 0.48764 0.05503 0.0
C4458 C 0.6756 0.47386 0.09469 0.0
C4459 C 0.66075 0.46723 0.10615 0.0
C4460 C 0.65969 0.46845 0.13043 0.0
C4461 C 0.6742 0.47667 0.14337 0.0
C4462 C 0.68961 0.48361 0.13206 0.0
C4463 C 0.69024 0.48212 0.10735 0.0
H4464 H 0.47396 0.8363 0.94583 0.0
H4465 H 0.43524 0.7918 0.97666 0.0
H4466 H 0.44144 0.77541 0.94883 0.0
H4467 H 0.46918 0.82248 0.8854 0.0
H4468 H 0.49083 0.8329 0.87979 0.0
H4469 H 0.48264 0.84093 0.9012 0.0
H4470 H 0.50213 0.84041 0.93284 0.0
H4471 H 0.51032 0.8323 0.91157 0.0
H4472 H 0.50189 0.82157 0.9388 0.0
H4473 H 0.45212 0.76405 0.9177 0.0
H4474 H 0.4672 0.75849 0.88689 0.0
H4475 H 0.49956 0.81057 0.87767 0.0
C4476 C 0.46667 0.8231 0.94643 0.0
C4477 C 0.45401 0.81522 0.96306 0.0
C4478 C 0.44494 0.79797 0.96388 0.0
C4479 C 0.44836 0.78861 0.94816 0.0
C4480 C 0.46102 0.79675 0.93203 0.0
C4481 C 0.4701 0.81361 0.93118 0.0
C4482 C 0.4836 0.81938 0.91305 0.0
C4483 C 0.48142 0.82951 0.89371 0.0
C4484 C 0.50048 0.82898 0.92477 0.0
C4485 C 0.48061 0.80314 0.90367 0.0
C4486 C 0.4675 0.79023 0.91473 0.0
C4487 C 0.46242 0.77406 0.90892 0.0
C4488 C 0.471 0.77102 0.89136 0.0
C4489 C 0.48458 0.78409 0.87998 0.0
C4490 C 0.48937 0.80033 0.88628 0.0
H4491 H 0.2052 0.69909 0.90331 0.0
H4492 H 0.20008 0.67338 0.83776 0.0
H4493 H 0.19039 0.64764 0.85975 0.0
H4494 H 0.2192 0.67608 0.93866 0.0
H4495 H 0.20817 0.67614 0.96451 0.0
H4496 H 0.21541 0.69272 0.94372 0.0
H4497 H 0.18603 0.68784 0.93924 0.0
H4498 H 0.17871 0.67127 0.96001 0.0
H4499 H 0.16973 0.66785 0.93109 0.0
H4500 H 0.17911 0.62436 0.88838 0.0
H4501 H 0.16833 0.60534 0.92225 0.0
H4502 H 0.18194 0.64623 0.96933 0.0
C4503 C 0.20212 0.68804 0.89364 0.0
C4504 C 0.20345 0.68822 0.86886 0.0
C4505 C 0.19936 0.67355 0.85679 0.0
C4506 C 0.19379 0.65886 0.8691 0.0
C4507 C 0.19253 0.65908 0.89351 0.0
C4508 C 0.19671 0.6733 0.9057 0.0
C4509 C 0.19397 0.67011 0.9319 0.0
C4510 C 0.21015 0.67931 0.9455 0.0
C4511 C 0.18136 0.67453 0.94109 0.0
C4512 C 0.18731 0.65184 0.93248 0.0
C4513 C 0.18654 0.64571 0.91013 0.0
C4514 C 0.17988 0.62904 0.90601 0.0
C4515 C 0.17378 0.61834 0.92526 0.0
C4516 C 0.17457 0.62441 0.94827 0.0
C4517 C 0.18155 0.64137 0.95192 0.0
H4518 H 0.37168 0.54859 0.92831 0.0
H4519 H 0.34815 0.51569 0.98688 0.0
H4520 H 0.32199 0.50254 0.96515 0.0
H4521 H 0.33645 0.55274 0.9101 0.0
H4522 H 0.34064 0.55271 0.87914 0.0
H4523 H 0.35715 0.56064 0.90012 0.0
H4524 H 0.36618 0.54066 0.88436 0.0
H4525 H 0.3497 0.53266 0.86339 0.0
H4526 H 0.35165 0.51907 0.88368 0.0
H4527 H 0.29904 0.4921 0.93677 0.0
H4528 H 0.28061 0.48396 0.90255 0.0
H4529 H 0.31887 0.5231 0.86141 0.0
C4530 C 0.3609 0.53879 0.93656 0.0
C4531 C 0.36172 0.53314 0.95922 0.0
C4532 C 0.34759 0.52012 0.96951 0.0
C4533 C 0.33273 0.51266 0.95736 0.0
C4534 C 0.33228 0.51833 0.9349 0.0
C4535 C 0.34596 0.53104 0.9245 0.0
C4536 C 0.34232 0.53395 0.89953 0.0
C4537 C 0.34426 0.55102 0.89709 0.0
C4538 C 0.3531 0.53143 0.88169 0.0
C4539 C 0.32457 0.52069 0.89743 0.0
C4540 C 0.319 0.51201 0.91818 0.0
C4541 C 0.30318 0.49891 0.92048 0.0
C4542 C 0.29278 0.49444 0.90097 0.0
C4543 C 0.29825 0.50297 0.87935 0.0
C4544 C 0.31435 0.51634 0.87769 0.0
H4545 H 0.18232 0.53134 0.4694 0.0
H4546 H 0.16523 0.55686 0.42457 0.0
H4547 H 0.17786 0.55157 0.3901 0.0
H4548 H 0.22132 0.54449 0.43856 0.0
H4549 H 0.22006 0.52496 0.44239 0.0
H4550 H 0.21102 0.53208 0.46388 0.0
H4551 H 0.18318 0.50555 0.45847 0.0
H4552 H 0.1921 0.49839 0.43693 0.0
H4553 H 0.17438 0.4999 0.42945 0.0
H4554 H 0.1905 0.54191 0.36031 0.0
H4555 H 0.20176 0.52799 0.3368 0.0
H4556 H 0.21112 0.50895 0.4009 0.0
C4557 C 0.18156 0.5361 0.4524 0.0
C4558 C 0.17287 0.54457 0.4496 0.0
C4559 C 0.17178 0.55029 0.42702 0.0
C4560 C 0.17898 0.54743 0.4074 0.0
C4561 C 0.18725 0.53884 0.41067 0.0
C4562 C 0.1886 0.53326 0.43258 0.0
C4563 C 0.19721 0.52342 0.43099 0.0
C4564 C 0.21336 0.53174 0.44477 0.0
C4565 C 0.18605 0.50577 0.43946 0.0
C4566 C 0.20021 0.52407 0.4047 0.0
C4567 C 0.19452 0.53318 0.39337 0.0
C4568 C 0.19523 0.53495 0.369 0.0
C4569 C 0.20177 0.52707 0.3558 0.0
C4570 C 0.20751 0.51747 0.36694 0.0
C4571 C 0.20684 0.51616 0.39179 0.0
H4572 H 0.46988 0.6343 0.4424 0.0
H4573 H 0.44782 0.65361 0.48989 0.0
H4574 H 0.45434 0.67621 0.46196 0.0
H4575 H 0.5033 0.67244 0.42682 0.0
H4576 H 0.50423 0.667 0.39667 0.0
H4577 H 0.49615 0.65145 0.41904 0.0
H4578 H 0.46928 0.63539 0.3953 0.0
H4579 H 0.47729 0.65092 0.37283 0.0
H4580 H 0.45811 0.64541 0.3868 0.0
H4581 H 0.46413 0.69709 0.42941 0.0
H4582 H 0.4779 0.71571 0.39612 0.0
H4583 H 0.49552 0.68372 0.37176 0.0
C4584 C 0.46616 0.64313 0.44662 0.0
C4585 C 0.45818 0.64221 0.46801 0.0
C4586 C 0.45386 0.65416 0.47343 0.0
C4587 C 0.45746 0.66695 0.45767 0.0
C4588 C 0.46551 0.66765 0.43677 0.0
C4589 C 0.4699 0.65611 0.4313 0.0
C4590 C 0.47965 0.66036 0.40868 0.0
C4591 C 0.49685 0.66297 0.41308 0.0
C4592 C 0.47053 0.64724 0.38979 0.0
C4593 C 0.48024 0.67619 0.40243 0.0
C4594 C 0.4718 0.68006 0.41862 0.0
C4595 C 0.47082 0.69422 0.41665 0.0
C4596 C 0.47883 0.7048 0.39777 0.0
C4597 C 0.48794 0.70132 0.38127 0.0
C4598 C 0.48848 0.6867 0.3837 0.0
H4599 H 0.35661 0.81079 0.45851 0.0
H4600 H 0.37603 0.86231 0.44457 0.0
H4601 H 0.3542 0.85551 0.41524 0.0
H4602 H 0.34583 0.79767 0.39754 0.0
H4603 H 0.32761 0.77894 0.4053 0.0
H4604 H 0.34471 0.78786 0.42526 0.0
H4605 H 0.32591 0.78808 0.45826 0.0
H4606 H 0.30877 0.77924 0.43838 0.0
H4607 H 0.31428 0.79816 0.45319 0.0
H4608 H 0.32962 0.84333 0.38945 0.0
H4609 H 0.30506 0.82633 0.36543 0.0
H4610 H 0.30242 0.7825 0.39376 0.0
C4611 C 0.35624 0.82057 0.44913 0.0
C4612 C 0.3679 0.83706 0.45362 0.0
C4613 C 0.36721 0.84962 0.4411 0.0
C4614 C 0.35484 0.84587 0.42456 0.0
C4615 C 0.34345 0.8295 0.42057 0.0
C4616 C 0.34415 0.81703 0.4322 0.0
C4617 C 0.33058 0.80046 0.42415 0.0
C4618 C 0.33761 0.79066 0.41236 0.0
C4619 C 0.31921 0.79093 0.44473 0.0
C4620 C 0.32204 0.80559 0.40641 0.0
C4621 C 0.3296 0.82242 0.40484 0.0
C4622 C 0.32367 0.83015 0.39034 0.0
C4623 C 0.30971 0.82043 0.3769 0.0
C4624 C 0.30197 0.8032 0.37785 0.0
C4625 C 0.30823 0.79568 0.39271 0.0
H4626 H 0.29549 0.15057 0.17377 0.0
H4627 H 0.30008 0.1586 0.09837 0.0
H4628 H 0.33018 0.17229 0.10179 0.0
H4629 H 0.33205 0.18835 0.19119 0.0
H4630 H 0.33723 0.17866 0.2143 0.0
H4631 H 0.31618 0.17071 0.20613 0.0
H4632 H 0.31315 0.14228 0.19868 0.0
H4633 H 0.33418 0.15015 0.20677 0.0
H4634 H 0.3269 0.14048 0.17854 0.0
H4635 H 0.35954 0.18469 0.1134 0.0
H4636 H 0.38629 0.19395 0.13191 0.0
H4637 H 0.36239 0.17574 0.19946 0.0
C4638 C 0.30292 0.15547 0.15812 0.0
C4639 C 0.29566 0.15378 0.13584 0.0
C4640 C 0.30557 0.15993 0.11556 0.0
C4641 C 0.32261 0.16771 0.11736 0.0
C4642 C 0.32945 0.16905 0.13955 0.0
C4643 C 0.31994 0.16302 0.15956 0.0
C4644 C 0.33031 0.16515 0.18103 0.0
C4645 C 0.32885 0.17639 0.19923 0.0
C4646 C 0.32587 0.14853 0.19188 0.0
C4647 C 0.34712 0.17326 0.16994 0.0
C4648 C 0.34636 0.17555 0.14607 0.0
C4649 C 0.3603 0.18286 0.13207 0.0
C4650 C 0.37544 0.18794 0.14274 0.0
C4651 C 0.37655 0.18547 0.16717 0.0
C4652 C 0.3621 0.17802 0.18084 0.0
H4653 H 0.82277 0.18833 0.1974 0.0
H4654 H 0.77549 0.16189 0.16326 0.0
H4655 H 0.78309 0.14243 0.14673 0.0
H4656 H 0.846 0.18435 0.15069 0.0
H4657 H 0.85964 0.18182 0.17012 0.0
H4658 H 0.85035 0.19347 0.17958 0.0
H4659 H 0.83853 0.17493 0.21633 0.0
H4660 H 0.84783 0.16326 0.20703 0.0
H4661 H 0.82617 0.15314 0.21256 0.0
H4662 H 0.79628 0.12648 0.13279 0.0
H4663 H 0.81363 0.11456 0.12369 0.0
H4664 H 0.85191 0.15096 0.16819 0.0
C4665 C 0.81404 0.17848 0.18639 0.0
C4666 C 0.79853 0.1766 0.18161 0.0
C4667 C 0.78736 0.16343 0.16736 0.0
C4668 C 0.7916 0.15238 0.15778 0.0
C4669 C 0.80702 0.15464 0.16274 0.0
C4670 C 0.81803 0.1673 0.17681 0.0
C4671 C 0.83379 0.16698 0.17951 0.0
C4672 C 0.8483 0.18258 0.16936 0.0
C4673 C 0.83674 0.16442 0.2054 0.0
C4674 C 0.82996 0.1522 0.16467 0.0
C4675 C 0.81449 0.14529 0.15507 0.0
C4676 C 0.80836 0.13169 0.14039 0.0
C4677 C 0.81829 0.12494 0.13545 0.0
C4678 C 0.83415 0.13172 0.1453 0.0
C4679 C 0.83996 0.14555 0.16012 0.0
H4680 H 0.80752 0.62696 0.1594 0.0
H4681 H 0.80999 0.63031 0.23562 0.0
H4682 H 0.82622 0.6604 0.23287 0.0
H4683 H 0.84834 0.65915 0.14902 0.0
H4684 H 0.84327 0.66661 0.12301 0.0
H4685 H 0.83125 0.6454 0.13099 0.0
H4686 H 0.80508 0.64772 0.13082 0.0
H4687 H 0.81703 0.66895 0.12284 0.0
H4688 H 0.80429 0.66306 0.14871 0.0
H4689 H 0.84226 0.68998 0.22185 0.0
H4690 H 0.85774 0.71713 0.20335 0.0
H4691 H 0.84575 0.69443 0.13422 0.0
C4692 C 0.81134 0.63407 0.17548 0.0
C4693 C 0.80751 0.62638 0.19773 0.0
C4694 C 0.81292 0.63601 0.21841 0.0
C4695 C 0.82206 0.65308 0.21702 0.0
C4696 C 0.82574 0.66029 0.19482 0.0
C4697 C 0.82062 0.65111 0.17441 0.0
C4698 C 0.82674 0.66188 0.15276 0.0
C4699 C 0.83808 0.65803 0.13809 0.0
C4700 C 0.81243 0.66031 0.13791 0.0
C4701 C 0.8361 0.67853 0.16421 0.0
C4702 C 0.8353 0.67735 0.18846 0.0
C4703 C 0.84304 0.69107 0.20286 0.0
C4704 C 0.8519 0.70643 0.19217 0.0
C4705 C 0.85306 0.70796 0.16731 0.0
C4706 C 0.84497 0.69375 0.15324 0.0
H4707 H 0.18589 0.36628 0.30339 0.0
H4708 H 0.19062 0.3869 0.3732 0.0
H4709 H 0.17858 0.35933 0.39048 0.0
H4710 H 0.14776 0.3306 0.31262 0.0
H4711 H 0.15251 0.31742 0.29563 0.0
H4712 H 0.16222 0.33884 0.28875 0.0
H4713 H 0.19066 0.34139 0.29344 0.0
H4714 H 0.18103 0.31994 0.30026 0.0
H4715 H 0.1956 0.33479 0.32044 0.0
H4716 H 0.16496 0.32961 0.40002 0.0
H4717 H 0.15103 0.29951 0.40133 0.0
H4718 H 0.15548 0.29813 0.32542 0.0
C4719 C 0.18465 0.36503 0.32234 0.0
C4720 C 0.18917 0.37874 0.33695 0.0
C4721 C 0.18706 0.37655 0.36164 0.0
C4722 C 0.18033 0.36096 0.37164 0.0
C4723 C 0.17584 0.3477 0.35672 0.0
C4724 C 0.17797 0.34955 0.33262 0.0
C4725 C 0.17166 0.33321 0.3205 0.0
C4726 C 0.15771 0.32982 0.30337 0.0
C4727 C 0.18557 0.33229 0.30792 0.0
C4728 C 0.16549 0.32187 0.34154 0.0
C4729 C 0.16806 0.3305 0.36225 0.0
C4730 C 0.16295 0.32271 0.38394 0.0
C4731 C 0.15497 0.30563 0.38449 0.0
C4732 C 0.15216 0.29652 0.36348 0.0
C4733 C 0.15763 0.3048 0.34177 0.0
H4734 H 0.6315 0.80422 0.33099 0.0
H4735 H 0.62767 0.83264 0.27397 0.0
H4736 H 0.65709 0.85275 0.27781 0.0
H4737 H 0.6594 0.83834 0.36614 0.0
H4738 H 0.67064 0.82875 0.37625 0.0
H4739 H 0.64939 0.81642 0.36859 0.0
H4740 H 0.65657 0.80011 0.33896 0.0
H4741 H 0.67784 0.81239 0.34653 0.0
H4742 H 0.67149 0.81089 0.31627 0.0
H4743 H 0.68696 0.86956 0.28763 0.0
H4744 H 0.7149 0.88261 0.30411 0.0
H4745 H 0.699 0.8434 0.35512 0.0
C4746 C 0.63691 0.81462 0.31922 0.0
C4747 C 0.62737 0.8169 0.30216 0.0
C4748 C 0.63478 0.83077 0.28727 0.0
C4749 C 0.65146 0.84219 0.28924 0.0
C4750 C 0.66052 0.83959 0.30626 0.0
C4751 C 0.6535 0.8262 0.32108 0.0
C4752 C 0.66585 0.82648 0.3383 0.0
C4753 C 0.66103 0.82757 0.36383 0.0
C4754 C 0.66807 0.81158 0.3348 0.0
C4755 C 0.68092 0.84211 0.33084 0.0
C4756 C 0.67763 0.84943 0.31222 0.0
C4757 C 0.68969 0.86394 0.30221 0.0
C4758 C 0.70551 0.87121 0.31158 0.0
C4759 C 0.70907 0.86401 0.33087 0.0
C4760 C 0.69658 0.84925 0.34051 0.0
H4761 H 0.17048 0.80343 0.31053 0.0
H4762 H 0.21988 0.84441 0.31601 0.0
H4763 H 0.20901 0.86266 0.32519 0.0
H4764 H 0.15256 0.8259 0.28369 0.0
H4765 H 0.13368 0.8149 0.29979 0.0
H4766 H 0.1453 0.80511 0.29268 0.0
H4767 H 0.14611 0.79863 0.33684 0.0
H4768 H 0.13449 0.80839 0.34408 0.0
H4769 H 0.15394 0.81502 0.35804 0.0
H4770 H 0.19301 0.87629 0.33475 0.0
H4771 H 0.17275 0.88446 0.34489 0.0
H4772 H 0.13363 0.83465 0.33367 0.0
C4773 C 0.17898 0.81628 0.31339 0.0
C4774 C 0.19601 0.82251 0.31264 0.0
C4775 C 0.20678 0.83935 0.3168 0.0
C4776 C 0.20073 0.84983 0.32186 0.0
C4777 C 0.18389 0.84329 0.32266 0.0
C4778 C 0.17314 0.82692 0.31856 0.0
C4779 C 0.1556 0.82295 0.32133 0.0
C4780 C 0.14624 0.81686 0.29798 0.0
C4781 C 0.14704 0.81051 0.34126 0.0
C4782 C 0.1582 0.83961 0.32784 0.0
C4783 C 0.17461 0.85117 0.32836 0.0
C4784 C 0.18011 0.86737 0.33439 0.0
C4785 C 0.16852 0.87186 0.34026 0.0
C4786 C 0.15162 0.86019 0.34017 0.0
C4787 C 0.14644 0.84389 0.33364 0.0
H4788 H 0.69719 0.83913 0.85232 0.0
H4789 H 0.71098 0.89028 0.85146 0.0
H4790 H 0.68273 0.88268 0.84022 0.0
H4791 H 0.66986 0.82629 0.80333 0.0
H4792 H 0.65534 0.807 0.81628 0.0
H4793 H 0.6766 0.81652 0.82417 0.0
H4794 H 0.66904 0.81552 0.86826 0.0
H4795 H 0.64776 0.80595 0.8605 0.0
H4796 H 0.65707 0.82453 0.87752 0.0
H4797 H 0.65343 0.86945 0.827 0.0
H4798 H 0.62477 0.85166 0.81536 0.0
H4799 H 0.62965 0.80899 0.82844 0.0
C4800 C 0.69422 0.8487 0.84971 0.0
C4801 C 0.70617 0.86527 0.85258 0.0
C4802 C 0.7019 0.87751 0.84937 0.0
C4803 C 0.68595 0.87331 0.84294 0.0
C4804 C 0.67443 0.85683 0.84015 0.0
C4805 C 0.67832 0.84471 0.84369 0.0
C4806 C 0.66362 0.82791 0.84006 0.0
C4807 C 0.66654 0.81891 0.81975 0.0
C4808 C 0.65911 0.81789 0.86295 0.0
C4809 C 0.6509 0.83248 0.83361 0.0
C4810 C 0.65739 0.8492 0.8336 0.0
C4811 C 0.64813 0.85631 0.82731 0.0
C4812 C 0.63177 0.84605 0.8209 0.0
C4813 C 0.62472 0.82881 0.82113 0.0
C4814 C 0.63454 0.82206 0.82774 0.0
H4815 H 0.169 0.80121 0.83145 0.0
H4816 H 0.21845 0.83989 0.81638 0.0
H4817 H 0.21049 0.86045 0.8252 0.0
H4818 H 0.1484 0.82019 0.80704 0.0
H4819 H 0.13286 0.8133 0.82946 0.0
H4820 H 0.14246 0.80146 0.82272 0.0
H4821 H 0.1508 0.80269 0.86646 0.0
H4822 H 0.14112 0.81444 0.87337 0.0
H4823 H 0.16228 0.82224 0.88077 0.0
H4824 H 0.1969 0.8768 0.83311 0.0
H4825 H 0.17884 0.88796 0.84231 0.0
H4826 H 0.13861 0.83891 0.85442 0.0
C4827 C 0.17825 0.81399 0.83041 0.0
C4828 C 0.19433 0.81889 0.82295 0.0
C4829 C 0.20597 0.83578 0.82154 0.0
C4830 C 0.2016 0.84758 0.82669 0.0
C4831 C 0.1856 0.84233 0.83354 0.0
C4832 C 0.17414 0.82596 0.83571 0.0
C4833 C 0.15773 0.82363 0.8432 0.0
C4834 C 0.14459 0.81408 0.82448 0.0
C4835 C 0.15269 0.81526 0.86739 0.0
C4836 C 0.16172 0.84125 0.84455 0.0
C4837 C 0.17786 0.85182 0.83883 0.0
C4838 C 0.18428 0.86866 0.83785 0.0
C4839 C 0.17393 0.87487 0.84296 0.0
C4840 C 0.1574 0.86428 0.84911 0.0
C4841 C 0.15127 0.84726 0.85003 0.0
H4842 H 0.18256 0.3623 0.79995 0.0
H4843 H 0.21713 0.38293 0.85761 0.0
H4844 H 0.20393 0.35605 0.87731 0.0
H4845 H 0.14797 0.33643 0.8348 0.0
H4846 H 0.13944 0.31987 0.81391 0.0
H4847 H 0.152 0.34054 0.80378 0.0
H4848 H 0.17122 0.33243 0.78273 0.0
H4849 H 0.15865 0.31169 0.79265 0.0
H4850 H 0.18017 0.32261 0.79928 0.0
H4851 H 0.18644 0.32725 0.89137 0.0
H4852 H 0.16602 0.29838 0.89867 0.0
H4853 H 0.14322 0.29629 0.83138 0.0
C4854 C 0.1875 0.3611 0.81655 0.0
C4855 C 0.20085 0.37471 0.82729 0.0
C4856 C 0.20679 0.3727 0.84921 0.0
C4857 C 0.19944 0.35748 0.86047 0.0
C4858 C 0.18616 0.34437 0.84956 0.0
C4859 C 0.18028 0.34599 0.82807 0.0
C4860 C 0.16559 0.33005 0.82044 0.0
C4861 C 0.15035 0.33184 0.8181 0.0
C4862 C 0.16913 0.32383 0.79741 0.0
C4863 C 0.16409 0.31925 0.84108 0.0
C4864 C 0.1761 0.32773 0.85765 0.0
C4865 C 0.17705 0.32043 0.87843 0.0
C4866 C 0.16544 0.30399 0.88236 0.0
C4867 C 0.15303 0.295 0.86558 0.0
C4868 C 0.15243 0.30282 0.84468 0.0
H4869 H 0.84643 0.69589 0.62967 0.0
H4870 H 0.87381 0.71999 0.69279 0.0
H4871 H 0.86485 0.69316 0.7111 0.0
H4872 H 0.8124 0.66357 0.65845 0.0
H4873 H 0.80936 0.64829 0.63692 0.0
H4874 H 0.81852 0.66938 0.6283 0.0
H4875 H 0.84365 0.6685 0.61193 0.0
H4876 H 0.83454 0.64737 0.62048 0.0
H4877 H 0.85466 0.66202 0.63084 0.0
H4878 H 0.85213 0.66392 0.72315 0.0
H4879 H 0.83649 0.63398 0.72811 0.0
H4880 H 0.81753 0.62881 0.65711 0.0
C4881 C 0.85074 0.69551 0.6472 0.0
C4882 C 0.86078 0.71003 0.65984 0.0
C4883 C 0.86594 0.70903 0.6829 0.0
C4884 C 0.86101 0.69386 0.69339 0.0
C4885 C 0.85098 0.6798 0.68055 0.0
C4886 C 0.84593 0.68047 0.65795 0.0
C4887 C 0.83475 0.66351 0.6483 0.0
C4888 C 0.81775 0.66105 0.64267 0.0
C4889 C 0.84236 0.66016 0.6266 0.0
C4890 C 0.83417 0.65322 0.66912 0.0
C4891 C 0.84367 0.66287 0.6875 0.0
C4892 C 0.8447 0.65622 0.70885 0.0
C4893 C 0.83571 0.63923 0.71155 0.0
C4894 C 0.82581 0.62909 0.69301 0.0
C4895 C 0.82517 0.63623 0.67147 0.0
H4896 H 0.29728 0.13093 0.65337 0.0
H4897 H 0.28752 0.16811 0.62625 0.0
H4898 H 0.31644 0.189 0.63226 0.0
H4899 H 0.32496 0.15528 0.69831 0.0
H4900 H 0.33827 0.14689 0.6949 0.0
H4901 H 0.31694 0.13471 0.68762 0.0
H4902 H 0.32452 0.13004 0.64561 0.0
H4903 H 0.34588 0.14217 0.65278 0.0
H4904 H 0.33778 0.14739 0.62763 0.0
H4905 H 0.34605 0.20593 0.64235 0.0
H4906 H 0.37445 0.2179 0.65621 0.0
H4907 H 0.3652 0.16961 0.67585 0.0
C4908 C 0.30129 0.14343 0.64844 0.0
C4909 C 0.29017 0.14793 0.63943 0.0
C4910 C 0.29581 0.16445 0.63348 0.0
C4911 C 0.31221 0.17638 0.63668 0.0
C4912 C 0.32282 0.17157 0.64579 0.0
C4913 C 0.31762 0.15551 0.65157 0.0
C4914 C 0.33144 0.15368 0.66169 0.0
C4915 C 0.32767 0.14726 0.68714 0.0
C4916 C 0.33512 0.14267 0.64598 0.0
C4917 C 0.34519 0.17125 0.66086 0.0
C4918 C 0.33996 0.18135 0.65154 0.0
C4919 C 0.35034 0.19813 0.64948 0.0
C4920 C 0.36649 0.2048 0.65727 0.0
C4921 C 0.37213 0.1947 0.667 0.0
C4922 C 0.36128 0.17769 0.66866 0.0
H4923 H 0.86516 0.16485 0.65731 0.0
H4924 H 0.82841 0.11343 0.65939 0.0
H4925 H 0.80795 0.12057 0.67287 0.0
H4926 H 0.85113 0.17702 0.70912 0.0
H4927 H 0.85541 0.19628 0.69658 0.0
H4928 H 0.86736 0.18712 0.68794 0.0
H4929 H 0.86024 0.1883 0.64418 0.0
H4930 H 0.84827 0.19743 0.65268 0.0
H4931 H 0.83913 0.17896 0.63544 0.0
H4932 H 0.79139 0.13318 0.68519 0.0
H4933 H 0.77962 0.15052 0.69526 0.0
H4934 H 0.82698 0.19384 0.68464 0.0
C4935 C 0.85285 0.1551 0.6609 0.0
C4936 C 0.84834 0.13859 0.65728 0.0
C4937 C 0.83206 0.12617 0.66181 0.0
C4938 C 0.82039 0.13009 0.6696 0.0
C4939 C 0.82519 0.14649 0.67277 0.0
C4940 C 0.84101 0.15881 0.66858 0.0
C4941 C 0.84281 0.17546 0.67266 0.0
C4942 C 0.8549 0.1845 0.69278 0.0
C4943 C 0.84791 0.18563 0.64989 0.0
C4944 C 0.82551 0.17056 0.67967 0.0
C4945 C 0.81557 0.15379 0.67971 0.0
C4946 C 0.79904 0.14633 0.68522 0.0
C4947 C 0.79245 0.15629 0.69075 0.0
C4948 C 0.80235 0.17354 0.69063 0.0
C4949 C 0.81913 0.1807 0.68514 0.0
H4950 H 0.02927 0.5006 0.52106 0.0
H4951 H 0.04394 0.55207 0.51936 0.0
H4952 H 0.01575 0.54483 0.50947 0.0
H4953 H 0.00194 0.48898 0.4714 0.0
H4954 H 0.98736 0.4695 0.48379 0.0
H4955 H 0.00864 0.47871 0.49141 0.0
H4956 H 0.00122 0.47687 0.53567 0.0
H4957 H 0.97992 0.46771 0.52818 0.0
H4958 H 0.98952 0.48594 0.54593 0.0
H4959 H 0.98602 0.5321 0.49979 0.0
H4960 H 0.95693 0.51468 0.48941 0.0
H4961 H 0.96176 0.47158 0.4963 0.0
C4962 C 0.02662 0.51037 0.51841 0.0
C4963 C 0.03885 0.52691 0.5212 0.0
C4964 C 0.03475 0.5393 0.51782 0.0
C4965 C 0.01878 0.53532 0.51204 0.0
C4966 C 0.00704 0.51892 0.50956 0.0
C4967 C 0.01076 0.50664 0.5125 0.0
C4968 C 0.99592 0.48998 0.50844 0.0
C4969 C 0.99863 0.48129 0.48751 0.0
C4970 C 0.99138 0.47951 0.5309 0.0
C4971 C 0.98328 0.49483 0.50273 0.0
C4972 C 0.98994 0.51157 0.5036 0.0
C4973 C 0.98066 0.51897 0.49908 0.0
C4974 C 0.96413 0.50897 0.49336 0.0
C4975 C 0.95709 0.49179 0.49212 0.0
C4976 C 0.96684 0.48468 0.49694 0.0
H4977 H 0.48935 0.5204 0.53266 0.0
H4978 H 0.47647 0.53077 0.46384 0.0
H4979 H 0.48825 0.51555 0.44511 0.0
H4980 H 0.52666 0.52249 0.51683 0.0
H4981 H 0.52343 0.50551 0.53502 0.0
H4982 H 0.51447 0.51771 0.54317 0.0
H4983 H 0.48581 0.49179 0.54422 0.0
H4984 H 0.49468 0.47948 0.53617 0.0
H4985 H 0.47845 0.47878 0.51865 0.0
H4986 H 0.50223 0.49999 0.43366 0.0
H4987 H 0.5156 0.48327 0.4306 0.0
H4988 H 0.51697 0.48087 0.50674 0.0
C4989 C 0.48875 0.51934 0.51367 0.0
C4990 C 0.4821 0.52705 0.49982 0.0
C4991 C 0.48187 0.52543 0.47495 0.0
C4992 C 0.4884 0.51666 0.46409 0.0
C4993 C 0.4949 0.50932 0.47829 0.0
C4994 C 0.49492 0.51037 0.50254 0.0
C4995 C 0.50222 0.50094 0.51379 0.0
C4996 C 0.51761 0.51235 0.52804 0.0
C4997 C 0.48953 0.48691 0.52911 0.0
C4998 C 0.50641 0.49454 0.49203 0.0
C4999 C 0.50222 0.49965 0.47173 0.0
C5000 C 0.50543 0.49579 0.44943 0.0
C5001 C 0.51305 0.48637 0.44785 0.0
C5002 C 0.51716 0.48078 0.46843 0.0
C5003 C 0.51375 0.48488 0.49077 0.0
H5004 H 0.50829 0.03074 0.48079 0.0
H5005 H 0.55631 0.04471 0.50853 0.0
H5006 H 0.54545 0.01711 0.52526 0.0
H5007 H 0.48513 0.00559 0.52922 0.0
H5008 H 0.46901 0.99052 0.51104 0.0
H5009 H 0.48052 0.01141 0.50128 0.0
H5010 H 0.48802 0.00207 0.46266 0.0
H5011 H 0.47645 0.98114 0.47224 0.0
H5012 H 0.49762 0.98974 0.46422 0.0
H5013 H 0.52941 0.98803 0.53893 0.0
H5014 H 0.50932 0.95931 0.54816 0.0
H5015 H 0.47199 0.96416 0.51059 0.0
C5016 C 0.51657 0.02796 0.49018 0.0
C5017 C 0.53314 0.03992 0.49342 0.0
C5018 C 0.54351 0.03583 0.50612 0.0
C5019 C 0.53748 0.02017 0.51559 0.0
C5020 C 0.52107 0.00872 0.51218 0.0
C5021 C 0.51077 0.01239 0.49973 0.0
C5022 C 0.49364 0.99785 0.49853 0.0
C5023 C 0.48136 0.00157 0.51075 0.0
C5024 C 0.48865 0.99238 0.47289 0.0
C5025 C 0.49594 0.98542 0.51224 0.0
C5026 C 0.51185 0.99193 0.51997 0.0
C5027 C 0.51693 0.98277 0.53291 0.0
C5028 C 0.50546 0.96646 0.53796 0.0
C5029 C 0.4891 0.95949 0.53007 0.0
C5030 C 0.48434 0.96918 0.51712 0.0
H5031 H 0.523 0.03642 0.00098 0.0
H5032 H 0.49849 0.03114 0.93422 0.0
H5033 H 0.48415 0.00117 0.93855 0.0
H5034 H 0.52889 0.00214 0.99415 0.0
H5035 H 0.52515 0.9962 0.02469 0.0
H5036 H 0.53333 0.01728 0.01659 0.0
H5037 H 0.50947 0.0178 0.03824 0.0
H5038 H 0.50126 0.99674 0.04649 0.0
H5039 H 0.48873 0.00295 0.03071 0.0
H5040 H 0.47262 0.97191 0.94992 0.0
H5041 H 0.46426 0.94514 0.96794 0.0
H5042 H 0.49655 0.9694 0.02709 0.0
C5043 C 0.51449 0.02896 0.98741 0.0
C5044 C 0.5119 0.03609 0.96722 0.0
C5045 C 0.50081 0.02591 0.94968 0.0
C5046 C 0.49256 0.00889 0.95203 0.0
C5047 C 0.49552 0.00225 0.97202 0.0
C5048 C 0.50617 0.01193 0.98943 0.0
C5049 C 0.50726 0.00167 0.00904 0.0
C5050 C 0.5247 0.00449 0.01123 0.0
C5051 C 0.50132 0.00499 0.03251 0.0
C5052 C 0.49555 0.98471 -0.0001 0.0
C5053 C 0.48891 0.98533 0.97853 0.0
C5054 C 0.47777 0.97125 0.96662 0.0
C5055 C 0.4732 0.9561 0.97692 0.0
C5056 C 0.4798 0.95514 0.99887 0.0
C5057 C 0.49117 0.9697 0.0104 0.0
H5058 H 0.96698 0.47018 0.98234 0.0
H5059 H 0.95784 0.50896 0.96077 0.0
H5060 H 0.98629 0.52939 0.97041 0.0
H5061 H 0.99231 0.49157 0.03206 0.0
H5062 H 0.00578 0.48344 0.02796 0.0
H5063 H 0.9848 0.4718 0.01868 0.0
H5064 H 0.99418 0.46987 0.97651 0.0
H5065 H 0.01519 0.48151 0.98565 0.0
H5066 H 0.00809 0.48832 0.96105 0.0
H5067 H 0.01569 0.54563 0.98251 0.0
H5068 H 0.04388 0.55657 0.9971 0.0
H5069 H 0.0336 0.50728 0.01175 0.0
C5070 C 0.9709 0.48297 0.97979 0.0
C5071 C 0.96016 0.48792 0.97061 0.0
C5072 C 0.96589 0.5048 0.96732 0.0
C5073 C 0.98201 0.51653 0.97291 0.0
C5074 C 0.99224 0.5112 0.98189 0.0
C5075 C 0.98691 0.49484 0.9854 0.0
C5076 C 0.00031 0.49237 0.99558 0.0
C5077 C 0.99551 0.48432 0.02002 0.0
C5078 C 0.0047 0.48243 0.97868 0.0
C5079 C 0.01401 0.50991 0.99727 0.0
C5080 C 0.00912 0.52058 0.98919 0.0
C5081 C 0.01968 0.5374 0.98886 0.0
C5082 C 0.03567 0.54349 0.99706 0.0
C5083 C 0.04091 0.53277 0.00554 0.0
C5084 C 0.02988 0.51577 0.00561 0.0
H5085 H 0.5084 0.47336 0.97778 0.0
H5086 H 0.55712 0.51244 0.99529 0.0
H5087 H 0.54559 0.52926 0.00928 0.0
H5088 H 0.49277 0.49892 0.95748 0.0
H5089 H 0.47273 0.48622 0.96981 0.0
H5090 H 0.48481 0.47728 0.96087 0.0
H5091 H 0.48212 0.46521 0.00269 0.0
H5092 H 0.47 0.47407 0.01174 0.0
H5093 H 0.48819 0.47858 0.02788 0.0
H5094 H 0.52885 0.5417 0.02168 0.0
H5095 H 0.50797 0.54907 0.03158 0.0
H5096 H 0.47002 0.50165 0.00692 0.0
C5097 C 0.51663 0.48541 0.98469 0.0
C5098 C 0.53368 0.49162 0.98536 0.0
C5099 C 0.54406 0.50753 0.99428 0.0
C5100 C 0.53761 0.51714 0.00239 0.0
C5101 C 0.52078 0.51066 0.00146 0.0
C5102 C 0.51042 0.49518 0.99284 0.0
C5103 C 0.49277 0.49112 0.99386 0.0
C5104 C 0.48534 0.48822 0.96903 0.0
C5105 C 0.48268 0.47637 0.01001 0.0
C5106 C 0.49484 0.50672 0.00449 0.0
C5107 C 0.5111 0.51783 0.00871 0.0
C5108 C 0.51607 0.5331 0.01853 0.0
C5109 C 0.50411 0.53712 0.02423 0.0
C5110 C 0.48735 0.52591 0.02016 0.0
C5111 C 0.48273 0.51054 0.01007 0.0
loop_
_geom_bond_atom_site_label_1
_geom_bond_atom_site_label_2
_geom_bond_distance
_geom_bond_site_symmetry_2
_ccdc_geom_bond_type
Li0 N17 1.990 . S
Li0 O60 1.956 . S
Li0 O61 1.970 . S
Li0 O62 1.961 . S
Li1 N25 1.990 . S
Li1 O60 1.970 . S
Li1 O61 1.956 . S
Li1 O63 1.961 . S
Li2 N47 1.990 . S
Li2 O60 1.961 . S
Li2 O62 1.956 . S
Li2 O63 1.970 . S
Li3 N53 1.990 . S
Li3 O61 1.961 . S
Li3 O62 1.970 . S
Li3 O63 1.956 . S
C4 C6 1.348 . S
C4 C7 1.356 . S
C4 O60 1.325 . S
N5 C8 1.314 . S
N5 C9 1.279 . S
C6 C4 1.348 . S
C6 C8 1.353 . S
C6 H64 0.929 . S
C7 C4 1.356 . S
C7 C9 1.358 . S
C7 H65 0.930 . S
C8 N5 1.314 . S
C8 C6 1.353 . S
C8 H66 0.930 . S
C9 N5 1.279 . S
C9 C7 1.358 . S
C9 H67 0.930 . S
C10 C13 1.348 . S
C10 C14 1.356 . S
C10 O61 1.325 . S
C11 N12 1.279 . S
C11 C14 1.358 . S
C11 H68 0.930 . S
N12 C11 1.279 . S
N12 C15 1.314 . S
C13 C10 1.348 . S
C13 C15 1.353 . S
C13 H69 0.929 . S
C14 C10 1.356 . S
C14 C11 1.358 . S
C14 H70 0.930 . S
C15 N12 1.314 . S
C15 C13 1.353 . S
C15 H71 0.930 . S
C16 N17 1.314 . S
C16 C21 1.353 . S
C16 H22 0.930 . S
N17 Li0 1.990 . S
N17 C16 1.314 . S
N17 C19 1.279 . S
C18 C19 1.358 . S
C18 C20 1.356 . S
C18 H72 0.930 . S
C19 N17 1.279 . S
C19 C18 1.358 . S
C19 H23 0.930 . S
C20 C18 1.356 . S
C20 C21 1.348 . S
C21 C16 1.353 . S
C21 C20 1.348 . S
C21 H73 0.929 . S
H22 C16 0.930 . S
H23 C19 0.930 . S
C24 N25 1.314 . S
C24 C26 1.353 . S
C24 H30 0.930 . S
N25 Li1 1.990 . S
N25 C24 1.314 . S
N25 C28 1.279 . S
C26 C24 1.353 . S
C26 C29 1.348 . S
C26 H74 0.929 . S
C27 C28 1.358 . S
C27 C29 1.356 . S
C27 H75 0.930 . S
C28 N25 1.279 . S
C28 C27 1.358 . S
C28 H31 0.930 . S
C29 C26 1.348 . S
C29 C27 1.356 . S
H30 C24 0.930 . S
H31 C28 0.930 . S
C32 C34 1.348 . S
C32 C35 1.356 . S
C32 O62 1.325 . S
N33 C36 1.314 . S
N33 C37 1.279 . S
C34 C32 1.348 . S
C34 C36 1.353 . S
C34 H76 0.929 . S
C35 C32 1.356 . S
C35 C37 1.358 . S
C35 H77 0.930 . S
C36 N33 1.314 . S
C36 C34 1.353 . S
C36 H78 0.930 . S
C37 N33 1.279 . S
C37 C35 1.358 . S
C37 H79 0.930 . S
C38 C39 1.348 . S
C38 C40 1.356 . S
C38 O63 1.325 . S
C39 C38 1.348 . S
C39 C41 1.353 . S
C39 H80 0.929 . S
C40 C38 1.356 . S
C40 C42 1.358 . S
C40 H81 0.930 . S
C41 C39 1.353 . S
C41 N43 1.314 . S
C41 H82 0.930 . S
C42 C40 1.358 . S
C42 N43 1.279 . S
C42 H83 0.930 . S
N43 C41 1.314 . S
N43 C42 1.279 . S
C44 C46 1.353 . S
C44 N47 1.314 . S
C44 H50 0.930 . S
C45 N47 1.279 . S
C45 C48 1.358 . S
C45 H51 0.930 . S
C46 C44 1.353 . S
C46 C49 1.348 . S
C46 H84 0.929 . S
N47 Li2 1.990 . S
N47 C44 1.314 . S
N47 C45 1.279 . S
C48 C45 1.358 . S
C48 C49 1.356 . S
C48 H85 0.930 . S
C49 C46 1.348 . S
C49 C48 1.356 . S
H50 C44 0.930 . S
H51 C45 0.930 . S
C52 N53 1.314 . S
C52 C54 1.353 . S
C52 H58 0.930 . S
N53 Li3 1.990 . S
N53 C52 1.314 . S
N53 C56 1.279 . S
C54 C52 1.353 . S
C54 C57 1.348 . S
C54 H86 0.929 . S
C55 C56 1.358 . S
C55 C57 1.356 . S
C55 H87 0.930 . S
C56 N53 1.279 . S
C56 C55 1.358 . S
C56 H59 0.930 . S
C57 C54 1.348 . S
C57 C55 1.356 . S
H58 C52 0.930 . S
H59 C56 0.930 . S
O60 Li0 1.956 . S
O60 Li1 1.970 . S
O60 Li2 1.961 . S
O60 C4 1.325 . S
O61 Li0 1.970 . S
O61 Li1 1.956 . S
O61 Li3 1.961 . S
O61 C10 1.325 . S
O62 Li0 1.961 . S
O62 Li2 1.956 . S
O62 Li3 1.970 . S
O62 C32 1.325 . S
O63 Li1 1.961 . S
O63 Li2 1.970 . S
O63 Li3 1.956 . S
O63 C38 1.325 . S
H64 C6 0.929 . S
H65 C7 0.930 . S
H66 C8 0.930 . S
H67 C9 0.930 . S
H68 C11 0.930 . S
H69 C13 0.929 . S
H70 C14 0.930 . S
H71 C15 0.930 . S
H72 C18 0.930 . S
H73 C21 0.929 . S
H74 C26 0.929 . S
H75 C27 0.930 . S
H76 C34 0.929 . S
H77 C35 0.930 . S
H78 C36 0.930 . S
H79 C37 0.930 . S
H80 C39 0.929 . S
H81 C40 0.930 . S
H82 C41 0.930 . S
H83 C42 0.930 . S
H84 C46 0.929 . S
H85 C48 0.930 . S
H86 C54 0.929 . S
H87 C55 0.930 . S
Li88 N105 1.990 . S
Li88 O148 1.956 . S
Li88 O149 1.970 . S
Li88 O150 1.961 . S
Li89 N113 1.990 . S
Li89 O148 1.970 . S
Li89 O149 1.956 . S
Li89 O151 1.961 . S
Li90 N135 1.990 . S
Li90 O148 1.961 . S
Li90 O150 1.956 . S
Li90 O151 1.970 . S
Li91 N141 1.990 . S
Li91 O149 1.961 . S
Li91 O150 1.970 . S
Li91 O151 1.956 . S
C92 C94 1.348 . S
C92 C95 1.356 . S
C92 O148 1.325 . S
N93 C96 1.314 . S
N93 C97 1.279 . S
C94 C92 1.348 . S
C94 C96 1.353 . S
C94 H152 0.929 . S
C95 C92 1.356 . S
C95 C97 1.358 . S
C95 H153 0.930 . S
C96 N93 1.314 . S
C96 C94 1.353 . S
C96 H154 0.930 . S
C97 N93 1.279 . S
C97 C95 1.358 . S
C97 H155 0.930 . S
C98 C101 1.348 . S
C98 C102 1.356 . S
C98 O149 1.325 . S
C99 N100 1.279 . S
C99 C102 1.358 . S
C99 H156 0.930 . S
N100 C99 1.279 . S
N100 C103 1.314 . S
C101 C98 1.348 . S
C101 C103 1.353 . S
C101 H157 0.929 . S
C102 C98 1.356 . S
C102 C99 1.358 . S
C102 H158 0.930 . S
C103 N100 1.314 . S
C103 C101 1.353 . S
C103 H159 0.930 . S
C104 N105 1.314 . S
C104 C109 1.353 . S
C104 H110 0.930 . S
N105 Li88 1.990 . S
N105 C104 1.314 . S
N105 C107 1.279 . S
C106 C107 1.358 . S
C106 C108 1.356 . S
C106 H160 0.930 . S
C107 N105 1.279 . S
C107 C106 1.358 . S
C107 H111 0.930 . S
C108 C106 1.356 . S
C108 C109 1.348 . S
C109 C104 1.353 . S
C109 C108 1.348 . S
C109 H161 0.929 . S
H110 C104 0.930 . S
H111 C107 0.930 . S
C112 N113 1.314 . S
C112 C114 1.353 . S
C112 H118 0.930 . S
N113 Li89 1.990 . S
N113 C112 1.314 . S
N113 C116 1.279 . S
C114 C112 1.353 . S
C114 C117 1.348 . S
C114 H162 0.929 . S
C115 C116 1.358 . S
C115 C117 1.356 . S
C115 H163 0.930 . S
C116 N113 1.279 . S
C116 C115 1.358 . S
C116 H119 0.930 . S
C117 C114 1.348 . S
C117 C115 1.356 . S
H118 C112 0.930 . S
H119 C116 0.930 . S
C120 C122 1.348 . S
C120 C123 1.356 . S
C120 O150 1.325 . S
N121 C124 1.314 . S
N121 C125 1.279 . S
C122 C120 1.348 . S
C122 C124 1.353 . S
C122 H164 0.929 . S
C123 C120 1.356 . S
C123 C125 1.358 . S
C123 H165 0.930 . S
C124 N121 1.314 . S
C124 C122 1.353 . S
C124 H166 0.930 . S
C125 N121 1.279 . S
C125 C123 1.358 . S
C125 H167 0.930 . S
C126 C127 1.348 . S
C126 C128 1.356 . S
C126 O151 1.325 . S
C127 C126 1.348 . S
C127 C129 1.353 . S
C127 H168 0.929 . S
C128 C126 1.356 . S
C128 C130 1.358 . S
C128 H169 0.930 . S
C129 C127 1.353 . S
C129 N131 1.314 . S
C129 H170 0.930 . S
C130 C128 1.358 . S
C130 N131 1.279 . S
C130 H171 0.930 . S
N131 C129 1.314 . S
N131 C130 1.279 . S
C132 C134 1.353 . S
C132 N135 1.314 . S
C132 H138 0.930 . S
C133 N135 1.279 . S
C133 C136 1.358 . S
C133 H139 0.930 . S
C134 C132 1.353 . S
C134 C137 1.348 . S
C134 H172 0.929 . S
N135 Li90 1.990 . S
N135 C132 1.314 . S
N135 C133 1.279 . S
C136 C133 1.358 . S
C136 C137 1.356 . S
C136 H173 0.930 . S
C137 C134 1.348 . S
C137 C136 1.356 . S
H138 C132 0.930 . S
H139 C133 0.930 . S
C140 N141 1.314 . S
C140 C142 1.353 . S
C140 H146 0.930 . S
N141 Li91 1.990 . S
N141 C140 1.314 . S
N141 C144 1.279 . S
C142 C140 1.353 . S
C142 C145 1.348 . S
C142 H174 0.929 . S
C143 C144 1.358 . S
C143 C145 1.356 . S
C143 H175 0.930 . S
C144 N141 1.279 . S
C144 C143 1.358 . S
C144 H147 0.930 . S
C145 C142 1.348 . S
C145 C143 1.356 . S
H146 C140 0.930 . S
H147 C144 0.930 . S
O148 Li88 1.956 . S
O148 Li89 1.970 . S
O148 Li90 1.961 . S
O148 C92 1.325 . S
O149 Li88 1.970 . S
O149 Li89 1.956 . S
O149 Li91 1.961 . S
O149 C98 1.325 . S
O150 Li88 1.961 . S
O150 Li90 1.956 . S
O150 Li91 1.970 . S
O150 C120 1.325 . S
O151 Li89 1.961 . S
O151 Li90 1.970 . S
O151 Li91 1.956 . S
O151 C126 1.325 . S
H152 C94 0.929 . S
H153 C95 0.930 . S
H154 C96 0.930 . S
H155 C97 0.930 . S
H156 C99 0.930 . S
H157 C101 0.929 . S
H158 C102 0.930 . S
H159 C103 0.930 . S
H160 C106 0.930 . S
H161 C109 0.929 . S
H162 C114 0.929 . S
H163 C115 0.930 . S
H164 C122 0.929 . S
H165 C123 0.930 . S
H166 C124 0.930 . S
H167 C125 0.930 . S
H168 C127 0.929 . S
H169 C128 0.930 . S
H170 C129 0.930 . S
H171 C130 0.930 . S
H172 C134 0.929 . S
H173 C136 0.930 . S
H174 C142 0.929 . S
H175 C143 0.930 . S
Li176 N193 1.990 . S
Li176 O236 1.956 . S
Li176 O237 1.970 . S
Li176 O238 1.961 . S
Li177 N201 1.990 . S
Li177 O236 1.970 . S
Li177 O237 1.956 . S
Li177 O239 1.961 . S
Li178 N223 1.990 . S
Li178 O236 1.961 . S
Li178 O238 1.956 . S
Li178 O239 1.970 . S
Li179 N229 1.990 . S
Li179 O237 1.961 . S
Li179 O238 1.970 . S
Li179 O239 1.956 . S
C180 C182 1.348 . S
C180 C183 1.356 . S
C180 O236 1.325 . S
N181 C184 1.314 . S
N181 C185 1.279 . S
C182 C180 1.348 . S
C182 C184 1.353 . S
C182 H240 0.929 . S
C183 C180 1.356 . S
C183 C185 1.358 . S
C183 H241 0.930 . S
C184 N181 1.314 . S
C184 C182 1.353 . S
C184 H242 0.930 . S
C185 N181 1.279 . S
C185 C183 1.358 . S
C185 H243 0.930 . S
C186 C189 1.348 . S
C186 C190 1.356 . S
C186 O237 1.325 . S
C187 N188 1.279 . S
C187 C190 1.358 . S
C187 H244 0.930 . S
N188 C187 1.279 . S
N188 C191 1.314 . S
C189 C186 1.348 . S
C189 C191 1.353 . S
C189 H245 0.929 . S
C190 C186 1.356 . S
C190 C187 1.358 . S
C190 H246 0.930 . S
C191 N188 1.314 . S
C191 C189 1.353 . S
C191 H247 0.930 . S
C192 N193 1.314 . S
C192 C197 1.353 . S
C192 H198 0.930 . S
N193 Li176 1.990 . S
N193 C192 1.314 . S
N193 C195 1.279 . S
C194 C195 1.358 . S
C194 C196 1.356 . S
C194 H248 0.930 . S
C195 N193 1.279 . S
C195 C194 1.358 . S
C195 H199 0.930 . S
C196 C194 1.356 . S
C196 C197 1.348 . S
C197 C192 1.353 . S
C197 C196 1.348 . S
C197 H249 0.929 . S
H198 C192 0.930 . S
H199 C195 0.930 . S
C200 N201 1.314 . S
C200 C202 1.353 . S
C200 H206 0.930 . S
N201 Li177 1.990 . S
N201 C200 1.314 . S
N201 C204 1.279 . S
C202 C200 1.353 . S
C202 C205 1.348 . S
C202 H250 0.929 . S
C203 C204 1.358 . S
C203 C205 1.356 . S
C203 H251 0.930 . S
C204 N201 1.279 . S
C204 C203 1.358 . S
C204 H207 0.930 . S
C205 C202 1.348 . S
C205 C203 1.356 . S
H206 C200 0.930 . S
H207 C204 0.930 . S
C208 C210 1.348 . S
C208 C211 1.356 . S
C208 O238 1.325 . S
N209 C212 1.314 . S
N209 C213 1.279 . S
C210 C208 1.348 . S
C210 C212 1.353 . S
C210 H252 0.929 . S
C211 C208 1.356 . S
C211 C213 1.358 . S
C211 H253 0.930 . S
C212 N209 1.314 . S
C212 C210 1.353 . S
C212 H254 0.930 . S
C213 N209 1.279 . S
C213 C211 1.358 . S
C213 H255 0.930 . S
C214 C215 1.348 . S
C214 C216 1.356 . S
C214 O239 1.325 . S
C215 C214 1.348 . S
C215 C217 1.353 . S
C215 H256 0.929 . S
C216 C214 1.356 . S
C216 C218 1.358 . S
C216 H257 0.930 . S
C217 C215 1.353 . S
C217 N219 1.314 . S
C217 H258 0.930 . S
C218 C216 1.358 . S
C218 N219 1.279 . S
C218 H259 0.930 . S
N219 C217 1.314 . S
N219 C218 1.279 . S
C220 C222 1.353 . S
C220 N223 1.314 . S
C220 H226 0.930 . S
C221 N223 1.279 . S
C221 C224 1.358 . S
C221 H227 0.930 . S
C222 C220 1.353 . S
C222 C225 1.348 . S
C222 H260 0.929 . S
N223 Li178 1.990 . S
N223 C220 1.314 . S
N223 C221 1.279 . S
C224 C221 1.358 . S
C224 C225 1.356 . S
C224 H261 0.930 . S
C225 C222 1.348 . S
C225 C224 1.356 . S
H226 C220 0.930 . S
H227 C221 0.930 . S
C228 N229 1.314 . S
C228 C230 1.353 . S
C228 H234 0.930 . S
N229 Li179 1.990 . S
N229 C228 1.314 . S
N229 C232 1.279 . S
C230 C228 1.353 . S
C230 C233 1.348 . S
C230 H262 0.929 . S
C231 C232 1.358 . S
C231 C233 1.356 . S
C231 H263 0.930 . S
C232 N229 1.279 . S
C232 C231 1.358 . S
C232 H235 0.930 . S
C233 C230 1.348 . S
C233 C231 1.356 . S
H234 C228 0.930 . S
H235 C232 0.930 . S
O236 Li176 1.956 . S
O236 Li177 1.970 . S
O236 Li178 1.961 . S
O236 C180 1.325 . S
O237 Li176 1.970 . S
O237 Li177 1.956 . S
O237 Li179 1.961 . S
O237 C186 1.325 . S
O238 Li176 1.961 . S
O238 Li178 1.956 . S
O238 Li179 1.970 . S
O238 C208 1.325 . S
O239 Li177 1.961 . S
O239 Li178 1.970 . S
O239 Li179 1.956 . S
O239 C214 1.325 . S
H240 C182 0.929 . S
H241 C183 0.930 . S
H242 C184 0.930 . S
H243 C185 0.930 . S
H244 C187 0.930 . S
H245 C189 0.929 . S
H246 C190 0.930 . S
H247 C191 0.930 . S
H248 C194 0.930 . S
H249 C197 0.929 . S
H250 C202 0.929 . S
H251 C203 0.930 . S
H252 C210 0.929 . S
H253 C211 0.930 . S
H254 C212 0.930 . S
H255 C213 0.930 . S
H256 C215 0.929 . S
H257 C216 0.930 . S
H258 C217 0.930 . S
H259 C218 0.930 . S
H260 C222 0.929 . S
H261 C224 0.930 . S
H262 C230 0.929 . S
H263 C231 0.930 . S
Li264 N281 1.990 . S
Li264 O324 1.956 . S
Li264 O325 1.970 . S
Li264 O326 1.961 . S
Li265 N289 1.990 . S
Li265 O324 1.970 . S
Li265 O325 1.956 . S
Li265 O327 1.961 . S
Li266 N311 1.990 . S
Li266 O324 1.961 . S
Li266 O326 1.956 . S
Li266 O327 1.970 . S
Li267 N317 1.990 . S
Li267 O325 1.961 . S
Li267 O326 1.970 . S
Li267 O327 1.956 . S
C268 C270 1.348 . S
C268 C271 1.356 . S
C268 O324 1.325 . S
N269 C272 1.314 . S
N269 C273 1.279 . S
C270 C268 1.348 . S
C270 C272 1.353 . S
C270 H328 0.929 . S
C271 C268 1.356 . S
C271 C273 1.358 . S
C271 H329 0.930 . S
C272 N269 1.314 . S
C272 C270 1.353 . S
C272 H330 0.930 . S
C273 N269 1.279 . S
C273 C271 1.358 . S
C273 H331 0.930 . S
C274 C277 1.348 . S
C274 C278 1.356 . S
C274 O325 1.325 . S
C275 N276 1.279 . S
C275 C278 1.358 . S
C275 H332 0.930 . S
N276 C275 1.279 . S
N276 C279 1.314 . S
C277 C274 1.348 . S
C277 C279 1.353 . S
C277 H333 0.929 . S
C278 C274 1.356 . S
C278 C275 1.358 . S
C278 H334 0.930 . S
C279 N276 1.314 . S
C279 C277 1.353 . S
C279 H335 0.930 . S
C280 N281 1.314 . S
C280 C285 1.353 . S
C280 H286 0.930 . S
N281 Li264 1.990 . S
N281 C280 1.314 . S
N281 C283 1.279 . S
C282 C283 1.358 . S
C282 C284 1.356 . S
C282 H336 0.930 . S
C283 N281 1.279 . S
C283 C282 1.358 . S
C283 H287 0.930 . S
C284 C282 1.356 . S
C284 C285 1.348 . S
C285 C280 1.353 . S
C285 C284 1.348 . S
C285 H337 0.929 . S
H286 C280 0.930 . S
H287 C283 0.930 . S
C288 N289 1.314 . S
C288 C290 1.353 . S
C288 H294 0.930 . S
N289 Li265 1.990 . S
N289 C288 1.314 . S
N289 C292 1.279 . S
C290 C288 1.353 . S
C290 C293 1.348 . S
C290 H338 0.929 . S
C291 C292 1.358 . S
C291 C293 1.356 . S
C291 H339 0.930 . S
C292 N289 1.279 . S
C292 C291 1.358 . S
C292 H295 0.930 . S
C293 C290 1.348 . S
C293 C291 1.356 . S
H294 C288 0.930 . S
H295 C292 0.930 . S
C296 C298 1.348 . S
C296 C299 1.356 . S
C296 O326 1.325 . S
N297 C300 1.314 . S
N297 C301 1.279 . S
C298 C296 1.348 . S
C298 C300 1.353 . S
C298 H340 0.929 . S
C299 C296 1.356 . S
C299 C301 1.358 . S
C299 H341 0.930 . S
C300 N297 1.314 . S
C300 C298 1.353 . S
C300 H342 0.930 . S
C301 N297 1.279 . S
C301 C299 1.358 . S
C301 H343 0.930 . S
C302 C303 1.348 . S
C302 C304 1.356 . S
C302 O327 1.325 . S
C303 C302 1.348 . S
C303 C305 1.353 . S
C303 H344 0.929 . S
C304 C302 1.356 . S
C304 C306 1.358 . S
C304 H345 0.930 . S
C305 C303 1.353 . S
C305 N307 1.314 . S
C305 H346 0.930 . S
C306 C304 1.358 . S
C306 N307 1.279 . S
C306 H347 0.930 . S
N307 C305 1.314 . S
N307 C306 1.279 . S
C308 C310 1.353 . S
C308 N311 1.314 . S
C308 H314 0.930 . S
C309 N311 1.279 . S
C309 C312 1.358 . S
C309 H315 0.930 . S
C310 C308 1.353 . S
C310 C313 1.348 . S
C310 H348 0.929 . S
N311 Li266 1.990 . S
N311 C308 1.314 . S
N311 C309 1.279 . S
C312 C309 1.358 . S
C312 C313 1.356 . S
C312 H349 0.930 . S
C313 C310 1.348 . S
C313 C312 1.356 . S
H314 C308 0.930 . S
H315 C309 0.930 . S
C316 N317 1.314 . S
C316 C318 1.353 . S
C316 H322 0.930 . S
N317 Li267 1.990 . S
N317 C316 1.314 . S
N317 C320 1.279 . S
C318 C316 1.353 . S
C318 C321 1.348 . S
C318 H350 0.929 . S
C319 C320 1.358 . S
C319 C321 1.356 . S
C319 H351 0.930 . S
C320 N317 1.279 . S
C320 C319 1.358 . S
C320 H323 0.930 . S
C321 C318 1.348 . S
C321 C319 1.356 . S
H322 C316 0.930 . S
H323 C320 0.930 . S
O324 Li264 1.956 . S
O324 Li265 1.970 . S
O324 Li266 1.961 . S
O324 C268 1.325 . S
O325 Li264 1.970 . S
O325 Li265 1.956 . S
O325 Li267 1.961 . S
O325 C274 1.325 . S
O326 Li264 1.961 . S
O326 Li266 1.956 . S
O326 Li267 1.970 . S
O326 C296 1.325 . S
O327 Li265 1.961 . S
O327 Li266 1.970 . S
O327 Li267 1.956 . S
O327 C302 1.325 . S
H328 C270 0.929 . S
H329 C271 0.930 . S
H330 C272 0.930 . S
H331 C273 0.930 . S
H332 C275 0.930 . S
H333 C277 0.929 . S
H334 C278 0.930 . S
H335 C279 0.930 . S
H336 C282 0.930 . S
H337 C285 0.929 . S
H338 C290 0.929 . S
H339 C291 0.930 . S
H340 C298 0.929 . S
H341 C299 0.930 . S
H342 C300 0.930 . S
H343 C301 0.930 . S
H344 C303 0.929 . S
H345 C304 0.930 . S
H346 C305 0.930 . S
H347 C306 0.930 . S
H348 C310 0.929 . S
H349 C312 0.930 . S
H350 C318 0.929 . S
H351 C319 0.930 . S
Li352 N369 1.990 . S
Li352 O412 1.956 . S
Li352 O413 1.970 . S
Li352 O414 1.961 . S
Li353 N377 1.990 . S
Li353 O412 1.970 . S
Li353 O413 1.956 . S
Li353 O415 1.961 . S
Li354 N399 1.990 . S
Li354 O412 1.961 . S
Li354 O414 1.956 . S
Li354 O415 1.970 . S
Li355 N405 1.990 . S
Li355 O413 1.961 . S
Li355 O414 1.970 . S
Li355 O415 1.956 . S
C356 C358 1.348 . S
C356 C359 1.356 . S
C356 O412 1.325 . S
N357 C360 1.314 . S
N357 C361 1.279 . S
C358 C356 1.348 . S
C358 C360 1.353 . S
C358 H416 0.929 . S
C359 C356 1.356 . S
C359 C361 1.358 . S
C359 H417 0.930 . S
C360 N357 1.314 . S
C360 C358 1.353 . S
C360 H418 0.930 . S
C361 N357 1.279 . S
C361 C359 1.358 . S
C361 H419 0.930 . S
C362 C365 1.348 . S
C362 C366 1.356 . S
C362 O413 1.325 . S
C363 N364 1.279 . S
C363 C366 1.358 . S
C363 H420 0.930 . S
N364 C363 1.279 . S
N364 C367 1.314 . S
C365 C362 1.348 . S
C365 C367 1.353 . S
C365 H421 0.929 . S
C366 C362 1.356 . S
C366 C363 1.358 . S
C366 H422 0.930 . S
C367 N364 1.314 . S
C367 C365 1.353 . S
C367 H423 0.930 . S
C368 N369 1.314 . S
C368 C373 1.353 . S
C368 H374 0.930 . S
N369 Li352 1.990 . S
N369 C368 1.314 . S
N369 C371 1.279 . S
C370 C371 1.358 . S
C370 C372 1.356 . S
C370 H424 0.930 . S
C371 N369 1.279 . S
C371 C370 1.358 . S
C371 H375 0.930 . S
C372 C370 1.356 . S
C372 C373 1.348 . S
C373 C368 1.353 . S
C373 C372 1.348 . S
C373 H425 0.929 . S
H374 C368 0.930 . S
H375 C371 0.930 . S
C376 N377 1.314 . S
C376 C378 1.353 . S
C376 H382 0.930 . S
N377 Li353 1.990 . S
N377 C376 1.314 . S
N377 C380 1.279 . S
C378 C376 1.353 . S
C378 C381 1.348 . S
C378 H426 0.929 . S
C379 C380 1.358 . S
C379 C381 1.356 . S
C379 H427 0.930 . S
C380 N377 1.279 . S
C380 C379 1.358 . S
C380 H383 0.930 . S
C381 C378 1.348 . S
C381 C379 1.356 . S
H382 C376 0.930 . S
H383 C380 0.930 . S
C384 C386 1.348 . S
C384 C387 1.356 . S
C384 O414 1.325 . S
N385 C388 1.314 . S
N385 C389 1.279 . S
C386 C384 1.348 . S
C386 C388 1.353 . S
C386 H428 0.929 . S
C387 C384 1.356 . S
C387 C389 1.358 . S
C387 H429 0.930 . S
C388 N385 1.314 . S
C388 C386 1.353 . S
C388 H430 0.930 . S
C389 N385 1.279 . S
C389 C387 1.358 . S
C389 H431 0.930 . S
C390 C391 1.348 . S
C390 C392 1.356 . S
C390 O415 1.325 . S
C391 C390 1.348 . S
C391 C393 1.353 . S
C391 H432 0.929 . S
C392 C390 1.356 . S
C392 C394 1.358 . S
C392 H433 0.930 . S
C393 C391 1.353 . S
C393 N395 1.314 . S
C393 H434 0.930 . S
C394 C392 1.358 . S
C394 N395 1.279 . S
C394 H435 0.930 . S
N395 C393 1.314 . S
N395 C394 1.279 . S
C396 C398 1.353 . S
C396 N399 1.314 . S
C396 H402 0.930 . S
C397 N399 1.279 . S
C397 C400 1.358 . S
C397 H403 0.930 . S
C398 C396 1.353 . S
C398 C401 1.348 . S
C398 H436 0.929 . S
N399 Li354 1.990 . S
N399 C396 1.314 . S
N399 C397 1.279 . S
C400 C397 1.358 . S
C400 C401 1.356 . S
C400 H437 0.930 . S
C401 C398 1.348 . S
C401 C400 1.356 . S
H402 C396 0.930 . S
H403 C397 0.930 . S
C404 N405 1.314 . S
C404 C406 1.353 . S
C404 H410 0.930 . S
N405 Li355 1.990 . S
N405 C404 1.314 . S
N405 C408 1.279 . S
C406 C404 1.353 . S
C406 C409 1.348 . S
C406 H438 0.929 . S
C407 C408 1.358 . S
C407 C409 1.356 . S
C407 H439 0.930 . S
C408 N405 1.279 . S
C408 C407 1.358 . S
C408 H411 0.930 . S
C409 C406 1.348 . S
C409 C407 1.356 . S
H410 C404 0.930 . S
H411 C408 0.930 . S
O412 Li352 1.956 . S
O412 Li353 1.970 . S
O412 Li354 1.961 . S
O412 C356 1.325 . S
O413 Li352 1.970 . S
O413 Li353 1.956 . S
O413 Li355 1.961 . S
O413 C362 1.325 . S
O414 Li352 1.961 . S
O414 Li354 1.956 . S
O414 Li355 1.970 . S
O414 C384 1.325 . S
O415 Li353 1.961 . S
O415 Li354 1.970 . S
O415 Li355 1.956 . S
O415 C390 1.325 . S
H416 C358 0.929 . S
H417 C359 0.930 . S
H418 C360 0.930 . S
H419 C361 0.930 . S
H420 C363 0.930 . S
H421 C365 0.929 . S
H422 C366 0.930 . S
H423 C367 0.930 . S
H424 C370 0.930 . S
H425 C373 0.929 . S
H426 C378 0.929 . S
H427 C379 0.930 . S
H428 C386 0.929 . S
H429 C387 0.930 . S
H430 C388 0.930 . S
H431 C389 0.930 . S
H432 C391 0.929 . S
H433 C392 0.930 . S
H434 C393 0.930 . S
H435 C394 0.930 . S
H436 C398 0.929 . S
H437 C400 0.930 . S
H438 C406 0.929 . S
H439 C407 0.930 . S
Li440 N457 1.990 . S
Li440 O500 1.956 . S
Li440 O501 1.970 . S
Li440 O502 1.961 . S
Li441 N465 1.990 . S
Li441 O500 1.970 . S
Li441 O501 1.956 . S
Li441 O503 1.961 . S
Li442 N487 1.990 . S
Li442 O500 1.961 . S
Li442 O502 1.956 . S
Li442 O503 1.970 . S
Li443 N493 1.990 . S
Li443 O501 1.961 . S
Li443 O502 1.970 . S
Li443 O503 1.956 . S
C444 C446 1.348 . S
C444 C447 1.356 . S
C444 O500 1.325 . S
N445 C448 1.314 . S
N445 C449 1.279 . S
C446 C444 1.348 . S
C446 C448 1.353 . S
C446 H504 0.929 . S
C447 C444 1.356 . S
C447 C449 1.358 . S
C447 H505 0.930 . S
C448 N445 1.314 . S
C448 C446 1.353 . S
C448 H506 0.930 . S
C449 N445 1.279 . S
C449 C447 1.358 . S
C449 H507 0.930 . S
C450 C453 1.348 . S
C450 C454 1.356 . S
C450 O501 1.325 . S
C451 N452 1.279 . S
C451 C454 1.358 . S
C451 H508 0.930 . S
N452 C451 1.279 . S
N452 C455 1.314 . S
C453 C450 1.348 . S
C453 C455 1.353 . S
C453 H509 0.929 . S
C454 C450 1.356 . S
C454 C451 1.358 . S
C454 H510 0.930 . S
C455 N452 1.314 . S
C455 C453 1.353 . S
C455 H511 0.930 . S
C456 N457 1.314 . S
C456 C461 1.353 . S
C456 H462 0.930 . S
N457 Li440 1.990 . S
N457 C456 1.314 . S
N457 C459 1.279 . S
C458 C459 1.358 . S
C458 C460 1.356 . S
C458 H512 0.930 . S
C459 N457 1.279 . S
C459 C458 1.358 . S
C459 H463 0.930 . S
C460 C458 1.356 . S
C460 C461 1.348 . S
C461 C456 1.353 . S
C461 C460 1.348 . S
C461 H513 0.929 . S
H462 C456 0.930 . S
H463 C459 0.930 . S
C464 N465 1.314 . S
C464 C466 1.353 . S
C464 H470 0.930 . S
N465 Li441 1.990 . S
N465 C464 1.314 . S
N465 C468 1.279 . S
C466 C464 1.353 . S
C466 C469 1.348 . S
C466 H514 0.929 . S
C467 C468 1.358 . S
C467 C469 1.356 . S
C467 H515 0.930 . S
C468 N465 1.279 . S
C468 C467 1.358 . S
C468 H471 0.930 . S
C469 C466 1.348 . S
C469 C467 1.356 . S
H470 C464 0.930 . S
H471 C468 0.930 . S
C472 C474 1.348 . S
C472 C475 1.356 . S
C472 O502 1.325 . S
N473 C476 1.314 . S
N473 C477 1.279 . S
C474 C472 1.348 . S
C474 C476 1.353 . S
C474 H516 0.929 . S
C475 C472 1.356 . S
C475 C477 1.358 . S
C475 H517 0.930 . S
C476 N473 1.314 . S
C476 C474 1.353 . S
C476 H518 0.930 . S
C477 N473 1.279 . S
C477 C475 1.358 . S
C477 H519 0.930 . S
C478 C479 1.348 . S
C478 C480 1.356 . S
C478 O503 1.325 . S
C479 C478 1.348 . S
C479 C481 1.353 . S
C479 H520 0.929 . S
C480 C478 1.356 . S
C480 C482 1.358 . S
C480 H521 0.930 . S
C481 C479 1.353 . S
C481 N483 1.314 . S
C481 H522 0.930 . S
C482 C480 1.358 . S
C482 N483 1.279 . S
C482 H523 0.930 . S
N483 C481 1.314 . S
N483 C482 1.279 . S
C484 C486 1.353 . S
C484 N487 1.314 . S
C484 H490 0.930 . S
C485 N487 1.279 . S
C485 C488 1.358 . S
C485 H491 0.930 . S
C486 C484 1.353 . S
C486 C489 1.348 . S
C486 H524 0.929 . S
N487 Li442 1.990 . S
N487 C484 1.314 . S
N487 C485 1.279 . S
C488 C485 1.358 . S
C488 C489 1.356 . S
C488 H525 0.930 . S
C489 C486 1.348 . S
C489 C488 1.356 . S
H490 C484 0.930 . S
H491 C485 0.930 . S
C492 N493 1.314 . S
C492 C494 1.353 . S
C492 H498 0.930 . S
N493 Li443 1.990 . S
N493 C492 1.314 . S
N493 C496 1.279 . S
C494 C492 1.353 . S
C494 C497 1.348 . S
C494 H526 0.929 . S
C495 C496 1.358 . S
C495 C497 1.356 . S
C495 H527 0.930 . S
C496 N493 1.279 . S
C496 C495 1.358 . S
C496 H499 0.930 . S
C497 C494 1.348 . S
C497 C495 1.356 . S
H498 C492 0.930 . S
H499 C496 0.930 . S
O500 Li440 1.956 . S
O500 Li441 1.970 . S
O500 Li442 1.961 . S
O500 C444 1.325 . S
O501 Li440 1.970 . S
O501 Li441 1.956 . S
O501 Li443 1.961 . S
O501 C450 1.325 . S
O502 Li440 1.961 . S
O502 Li442 1.956 . S
O502 Li443 1.970 . S
O502 C472 1.325 . S
O503 Li441 1.961 . S
O503 Li442 1.970 . S
O503 Li443 1.956 . S
O503 C478 1.325 . S
H504 C446 0.929 . S
H505 C447 0.930 . S
H506 C448 0.930 . S
H507 C449 0.930 . S
H508 C451 0.930 . S
H509 C453 0.929 . S
H510 C454 0.930 . S
H511 C455 0.930 . S
H512 C458 0.930 . S
H513 C461 0.929 . S
H514 C466 0.929 . S
H515 C467 0.930 . S
H516 C474 0.929 . S
H517 C475 0.930 . S
H518 C476 0.930 . S
H519 C477 0.930 . S
H520 C479 0.929 . S
H521 C480 0.930 . S
H522 C481 0.930 . S
H523 C482 0.930 . S
H524 C486 0.929 . S
H525 C488 0.930 . S
H526 C494 0.929 . S
H527 C495 0.930 . S
Li528 N545 1.990 . S
Li528 O588 1.956 . S
Li528 O589 1.970 . S
Li528 O590 1.961 . S
Li529 N553 1.990 . S
Li529 O588 1.970 . S
Li529 O589 1.956 . S
Li529 O591 1.961 . S
Li530 N575 1.990 . S
Li530 O588 1.961 . S
Li530 O590 1.956 . S
Li530 O591 1.970 . S
Li531 N581 1.990 . S
Li531 O589 1.961 . S
Li531 O590 1.970 . S
Li531 O591 1.956 . S
C532 C534 1.348 . S
C532 C535 1.356 . S
C532 O588 1.325 . S
N533 C536 1.314 . S
N533 C537 1.279 . S
C534 C532 1.348 . S
C534 C536 1.353 . S
C534 H592 0.929 . S
C535 C532 1.356 . S
C535 C537 1.358 . S
C535 H593 0.930 . S
C536 N533 1.314 . S
C536 C534 1.353 . S
C536 H594 0.930 . S
C537 N533 1.279 . S
C537 C535 1.358 . S
C537 H595 0.930 . S
C538 C541 1.348 . S
C538 C542 1.356 . S
C538 O589 1.325 . S
C539 N540 1.279 . S
C539 C542 1.358 . S
C539 H596 0.930 . S
N540 C539 1.279 . S
N540 C543 1.314 . S
C541 C538 1.348 . S
C541 C543 1.353 . S
C541 H597 0.929 . S
C542 C538 1.356 . S
C542 C539 1.358 . S
C542 H598 0.930 . S
C543 N540 1.314 . S
C543 C541 1.353 . S
C543 H599 0.930 . S
C544 N545 1.314 . S
C544 C549 1.353 . S
C544 H550 0.930 . S
N545 Li528 1.990 . S
N545 C544 1.314 . S
N545 C547 1.279 . S
C546 C547 1.358 . S
C546 C548 1.356 . S
C546 H600 0.930 . S
C547 N545 1.279 . S
C547 C546 1.358 . S
C547 H551 0.930 . S
C548 C546 1.356 . S
C548 C549 1.348 . S
C549 C544 1.353 . S
C549 C548 1.348 . S
C549 H601 0.929 . S
H550 C544 0.930 . S
H551 C547 0.930 . S
C552 N553 1.314 . S
C552 C554 1.353 . S
C552 H558 0.930 . S
N553 Li529 1.990 . S
N553 C552 1.314 . S
N553 C556 1.279 . S
C554 C552 1.353 . S
C554 C557 1.348 . S
C554 H602 0.929 . S
C555 C556 1.358 . S
C555 C557 1.356 . S
C555 H603 0.930 . S
C556 N553 1.279 . S
C556 C555 1.358 . S
C556 H559 0.930 . S
C557 C554 1.348 . S
C557 C555 1.356 . S
H558 C552 0.930 . S
H559 C556 0.930 . S
C560 C562 1.348 . S
C560 C563 1.356 . S
C560 O590 1.325 . S
N561 C564 1.314 . S
N561 C565 1.279 . S
C562 C560 1.348 . S
C562 C564 1.353 . S
C562 H604 0.929 . S
C563 C560 1.356 . S
C563 C565 1.358 . S
C563 H605 0.930 . S
C564 N561 1.314 . S
C564 C562 1.353 . S
C564 H606 0.930 . S
C565 N561 1.279 . S
C565 C563 1.358 . S
C565 H607 0.930 . S
C566 C567 1.348 . S
C566 C568 1.356 . S
C566 O591 1.325 . S
C567 C566 1.348 . S
C567 C569 1.353 . S
C567 H608 0.929 . S
C568 C566 1.356 . S
C568 C570 1.358 . S
C568 H609 0.930 . S
C569 C567 1.353 . S
C569 N571 1.314 . S
C569 H610 0.930 . S
C570 C568 1.358 . S
C570 N571 1.279 . S
C570 H611 0.930 . S
N571 C569 1.314 . S
N571 C570 1.279 . S
C572 C574 1.353 . S
C572 N575 1.314 . S
C572 H578 0.930 . S
C573 N575 1.279 . S
C573 C576 1.358 . S
C573 H579 0.930 . S
C574 C572 1.353 . S
C574 C577 1.348 . S
C574 H612 0.929 . S
N575 Li530 1.990 . S
N575 C572 1.314 . S
N575 C573 1.279 . S
C576 C573 1.358 . S
C576 C577 1.356 . S
C576 H613 0.930 . S
C577 C574 1.348 . S
C577 C576 1.356 . S
H578 C572 0.930 . S
H579 C573 0.930 . S
C580 N581 1.314 . S
C580 C582 1.353 . S
C580 H586 0.930 . S
N581 Li531 1.990 . S
N581 C580 1.314 . S
N581 C584 1.279 . S
C582 C580 1.353 . S
C582 C585 1.348 . S
C582 H614 0.929 . S
C583 C584 1.358 . S
C583 C585 1.356 . S
C583 H615 0.930 . S
C584 N581 1.279 . S
C584 C583 1.358 . S
C584 H587 0.930 . S
C585 C582 1.348 . S
C585 C583 1.356 . S
H586 C580 0.930 . S
H587 C584 0.930 . S
O588 Li528 1.956 . S
O588 Li529 1.970 . S
O588 Li530 1.961 . S
O588 C532 1.325 . S
O589 Li528 1.970 . S
O589 Li529 1.956 . S
O589 Li531 1.961 . S
O589 C538 1.325 . S
O590 Li528 1.961 . S
O590 Li530 1.956 . S
O590 Li531 1.970 . S
O590 C560 1.325 . S
O591 Li529 1.961 . S
O591 Li530 1.970 . S
O591 Li531 1.956 . S
O591 C566 1.325 . S
H592 C534 0.929 . S
H593 C535 0.930 . S
H594 C536 0.930 . S
H595 C537 0.930 . S
H596 C539 0.930 . S
H597 C541 0.929 . S
H598 C542 0.930 . S
H599 C543 0.930 . S
H600 C546 0.930 . S
H601 C549 0.929 . S
H602 C554 0.929 . S
H603 C555 0.930 . S
H604 C562 0.929 . S
H605 C563 0.930 . S
H606 C564 0.930 . S
H607 C565 0.930 . S
H608 C567 0.929 . S
H609 C568 0.930 . S
H610 C569 0.930 . S
H611 C570 0.930 . S
H612 C574 0.929 . S
H613 C576 0.930 . S
H614 C582 0.929 . S
H615 C583 0.930 . S
Li616 N633 1.990 . S
Li616 O676 1.956 . S
Li616 O677 1.970 . S
Li616 O678 1.961 . S
Li617 N641 1.990 . S
Li617 O676 1.970 . S
Li617 O677 1.956 . S
Li617 O679 1.961 . S
Li618 N663 1.990 . S
Li618 O676 1.961 . S
Li618 O678 1.956 . S
Li618 O679 1.970 . S
Li619 N669 1.990 . S
Li619 O677 1.961 . S
Li619 O678 1.970 . S
Li619 O679 1.956 . S
C620 C622 1.348 . S
C620 C623 1.356 . S
C620 O676 1.325 . S
N621 C624 1.314 . S
N621 C625 1.279 . S
C622 C620 1.348 . S
C622 C624 1.353 . S
C622 H680 0.929 . S
C623 C620 1.356 . S
C623 C625 1.358 . S
C623 H681 0.930 . S
C624 N621 1.314 . S
C624 C622 1.353 . S
C624 H682 0.930 . S
C625 N621 1.279 . S
C625 C623 1.358 . S
C625 H683 0.930 . S
C626 C629 1.348 . S
C626 C630 1.356 . S
C626 O677 1.325 . S
C627 N628 1.279 . S
C627 C630 1.358 . S
C627 H684 0.930 . S
N628 C627 1.279 . S
N628 C631 1.314 . S
C629 C626 1.348 . S
C629 C631 1.353 . S
C629 H685 0.929 . S
C630 C626 1.356 . S
C630 C627 1.358 . S
C630 H686 0.930 . S
C631 N628 1.314 . S
C631 C629 1.353 . S
C631 H687 0.930 . S
C632 N633 1.314 . S
C632 C637 1.353 . S
C632 H638 0.930 . S
N633 Li616 1.990 . S
N633 C632 1.314 . S
N633 C635 1.279 . S
C634 C635 1.358 . S
C634 C636 1.356 . S
C634 H688 0.930 . S
C635 N633 1.279 . S
C635 C634 1.358 . S
C635 H639 0.930 . S
C636 C634 1.356 . S
C636 C637 1.348 . S
C637 C632 1.353 . S
C637 C636 1.348 . S
C637 H689 0.929 . S
H638 C632 0.930 . S
H639 C635 0.930 . S
C640 N641 1.314 . S
C640 C642 1.353 . S
C640 H646 0.930 . S
N641 Li617 1.990 . S
N641 C640 1.314 . S
N641 C644 1.279 . S
C642 C640 1.353 . S
C642 C645 1.348 . S
C642 H690 0.929 . S
C643 C644 1.358 . S
C643 C645 1.356 . S
C643 H691 0.930 . S
C644 N641 1.279 . S
C644 C643 1.358 . S
C644 H647 0.930 . S
C645 C642 1.348 . S
C645 C643 1.356 . S
H646 C640 0.930 . S
H647 C644 0.930 . S
C648 C650 1.348 . S
C648 C651 1.356 . S
C648 O678 1.325 . S
N649 C652 1.314 . S
N649 C653 1.279 . S
C650 C648 1.348 . S
C650 C652 1.353 . S
C650 H692 0.929 . S
C651 C648 1.356 . S
C651 C653 1.358 . S
C651 H693 0.930 . S
C652 N649 1.314 . S
C652 C650 1.353 . S
C652 H694 0.930 . S
C653 N649 1.279 . S
C653 C651 1.358 . S
C653 H695 0.930 . S
C654 C655 1.348 . S
C654 C656 1.356 . S
C654 O679 1.325 . S
C655 C654 1.348 . S
C655 C657 1.353 . S
C655 H696 0.929 . S
C656 C654 1.356 . S
C656 C658 1.358 . S
C656 H697 0.930 . S
C657 C655 1.353 . S
C657 N659 1.314 . S
C657 H698 0.930 . S
C658 C656 1.358 . S
C658 N659 1.279 . S
C658 H699 0.930 . S
N659 C657 1.314 . S
N659 C658 1.279 . S
C660 C662 1.353 . S
C660 N663 1.314 . S
C660 H666 0.930 . S
C661 N663 1.279 . S
C661 C664 1.358 . S
C661 H667 0.930 . S
C662 C660 1.353 . S
C662 C665 1.348 . S
C662 H700 0.929 . S
N663 Li618 1.990 . S
N663 C660 1.314 . S
N663 C661 1.279 . S
C664 C661 1.358 . S
C664 C665 1.356 . S
C664 H701 0.930 . S
C665 C662 1.348 . S
C665 C664 1.356 . S
H666 C660 0.930 . S
H667 C661 0.930 . S
C668 N669 1.314 . S
C668 C670 1.353 . S
C668 H674 0.930 . S
N669 Li619 1.990 . S
N669 C668 1.314 . S
N669 C672 1.279 . S
C670 C668 1.353 . S
C670 C673 1.348 . S
C670 H702 0.929 . S
C671 C672 1.358 . S
C671 C673 1.356 . S
C671 H703 0.930 . S
C672 N669 1.279 . S
C672 C671 1.358 . S
C672 H675 0.930 . S
C673 C670 1.348 . S
C673 C671 1.356 . S
H674 C668 0.930 . S
H675 C672 0.930 . S
O676 Li616 1.956 . S
O676 Li617 1.970 . S
O676 Li618 1.961 . S
O676 C620 1.325 . S
O677 Li616 1.970 . S
O677 Li617 1.956 . S
O677 Li619 1.961 . S
O677 C626 1.325 . S
O678 Li616 1.961 . S
O678 Li618 1.956 . S
O678 Li619 1.970 . S
O678 C648 1.325 . S
O679 Li617 1.961 . S
O679 Li618 1.970 . S
O679 Li619 1.956 . S
O679 C654 1.325 . S
H680 C622 0.929 . S
H681 C623 0.930 . S
H682 C624 0.930 . S
H683 C625 0.930 . S
H684 C627 0.930 . S
H685 C629 0.929 . S
H686 C630 0.930 . S
H687 C631 0.930 . S
H688 C634 0.930 . S
H689 C637 0.929 . S
H690 C642 0.929 . S
H691 C643 0.930 . S
H692 C650 0.929 . S
H693 C651 0.930 . S
H694 C652 0.930 . S
H695 C653 0.930 . S
H696 C655 0.929 . S
H697 C656 0.930 . S
H698 C657 0.930 . S
H699 C658 0.930 . S
H700 C662 0.929 . S
H701 C664 0.930 . S
H702 C670 0.929 . S
H703 C671 0.930 . S
Li704 N721 1.990 . S
Li704 O764 1.956 . S
Li704 O765 1.970 . S
Li704 O766 1.961 . S
Li705 N729 1.990 . S
Li705 O764 1.970 . S
Li705 O765 1.956 . S
Li705 O767 1.961 . S
Li706 N751 1.990 . S
Li706 O764 1.961 . S
Li706 O766 1.956 . S
Li706 O767 1.970 . S
Li707 N757 1.990 . S
Li707 O765 1.961 . S
Li707 O766 1.970 . S
Li707 O767 1.956 . S
C708 C710 1.348 . S
C708 C711 1.356 . S
C708 O764 1.325 . S
N709 C712 1.314 . S
N709 C713 1.279 . S
C710 C708 1.348 . S
C710 C712 1.353 . S
C710 H768 0.929 . S
C711 C708 1.356 . S
C711 C713 1.358 . S
C711 H769 0.930 . S
C712 N709 1.314 . S
C712 C710 1.353 . S
C712 H770 0.930 . S
C713 N709 1.279 . S
C713 C711 1.358 . S
C713 H771 0.930 . S
C714 C717 1.348 . S
C714 C718 1.356 . S
C714 O765 1.325 . S
C715 N716 1.279 . S
C715 C718 1.358 . S
C715 H772 0.930 . S
N716 C715 1.279 . S
N716 C719 1.314 . S
C717 C714 1.348 . S
C717 C719 1.353 . S
C717 H773 0.929 . S
C718 C714 1.356 . S
C718 C715 1.358 . S
C718 H774 0.930 . S
C719 N716 1.314 . S
C719 C717 1.353 . S
C719 H775 0.930 . S
C720 N721 1.314 . S
C720 C725 1.353 . S
C720 H726 0.930 . S
N721 Li704 1.990 . S
N721 C720 1.314 . S
N721 C723 1.279 . S
C722 C723 1.358 . S
C722 C724 1.356 . S
C722 H776 0.930 . S
C723 N721 1.279 . S
C723 C722 1.358 . S
C723 H727 0.930 . S
C724 C722 1.356 . S
C724 C725 1.348 . S
C725 C720 1.353 . S
C725 C724 1.348 . S
C725 H777 0.929 . S
H726 C720 0.930 . S
H727 C723 0.930 . S
C728 N729 1.314 . S
C728 C730 1.353 . S
C728 H734 0.930 . S
N729 Li705 1.990 . S
N729 C728 1.314 . S
N729 C732 1.279 . S
C730 C728 1.353 . S
C730 C733 1.348 . S
C730 H778 0.929 . S
C731 C732 1.358 . S
C731 C733 1.356 . S
C731 H779 0.930 . S
C732 N729 1.279 . S
C732 C731 1.358 . S
C732 H735 0.930 . S
C733 C730 1.348 . S
C733 C731 1.356 . S
H734 C728 0.930 . S
H735 C732 0.930 . S
C736 C738 1.348 . S
C736 C739 1.356 . S
C736 O766 1.325 . S
N737 C740 1.314 . S
N737 C741 1.279 . S
C738 C736 1.348 . S
C738 C740 1.353 . S
C738 H780 0.929 . S
C739 C736 1.356 . S
C739 C741 1.358 . S
C739 H781 0.930 . S
C740 N737 1.314 . S
C740 C738 1.353 . S
C740 H782 0.930 . S
C741 N737 1.279 . S
C741 C739 1.358 . S
C741 H783 0.930 . S
C742 C743 1.348 . S
C742 C744 1.356 . S
C742 O767 1.325 . S
C743 C742 1.348 . S
C743 C745 1.353 . S
C743 H784 0.929 . S
C744 C742 1.356 . S
C744 C746 1.358 . S
C744 H785 0.930 . S
C745 C743 1.353 . S
C745 N747 1.314 . S
C745 H786 0.930 . S
C746 C744 1.358 . S
C746 N747 1.279 . S
C746 H787 0.930 . S
N747 C745 1.314 . S
N747 C746 1.279 . S
C748 C750 1.353 . S
C748 N751 1.314 . S
C748 H754 0.930 . S
C749 N751 1.279 . S
C749 C752 1.358 . S
C749 H755 0.930 . S
C750 C748 1.353 . S
C750 C753 1.348 . S
C750 H788 0.929 . S
N751 Li706 1.990 . S
N751 C748 1.314 . S
N751 C749 1.279 . S
C752 C749 1.358 . S
C752 C753 1.356 . S
C752 H789 0.930 . S
C753 C750 1.348 . S
C753 C752 1.356 . S
H754 C748 0.930 . S
H755 C749 0.930 . S
C756 N757 1.314 . S
C756 C758 1.353 . S
C756 H762 0.930 . S
N757 Li707 1.990 . S
N757 C756 1.314 . S
N757 C760 1.279 . S
C758 C756 1.353 . S
C758 C761 1.348 . S
C758 H790 0.929 . S
C759 C760 1.358 . S
C759 C761 1.356 . S
C759 H791 0.930 . S
C760 N757 1.279 . S
C760 C759 1.358 . S
C760 H763 0.930 . S
C761 C758 1.348 . S
C761 C759 1.356 . S
H762 C756 0.930 . S
H763 C760 0.930 . S
O764 Li704 1.956 . S
O764 Li705 1.970 . S
O764 Li706 1.961 . S
O764 C708 1.325 . S
O765 Li704 1.970 . S
O765 Li705 1.956 . S
O765 Li707 1.961 . S
O765 C714 1.325 . S
O766 Li704 1.961 . S
O766 Li706 1.956 . S
O766 Li707 1.970 . S
O766 C736 1.325 . S
O767 Li705 1.961 . S
O767 Li706 1.970 . S
O767 Li707 1.956 . S
O767 C742 1.325 . S
H768 C710 0.929 . S
H769 C711 0.930 . S
H770 C712 0.930 . S
H771 C713 0.930 . S
H772 C715 0.930 . S
H773 C717 0.929 . S
H774 C718 0.930 . S
H775 C719 0.930 . S
H776 C722 0.930 . S
H777 C725 0.929 . S
H778 C730 0.929 . S
H779 C731 0.930 . S
H780 C738 0.929 . S
H781 C739 0.930 . S
H782 C740 0.930 . S
H783 C741 0.930 . S
H784 C743 0.929 . S
H785 C744 0.930 . S
H786 C745 0.930 . S
H787 C746 0.930 . S
H788 C750 0.929 . S
H789 C752 0.930 . S
H790 C758 0.929 . S
H791 C759 0.930 . S
Li792 N809 1.990 . S
Li792 O852 1.956 . S
Li792 O853 1.970 . S
Li792 O854 1.961 . S
Li793 N817 1.990 . S
Li793 O852 1.970 . S
Li793 O853 1.956 . S
Li793 O855 1.961 . S
Li794 N839 1.990 . S
Li794 O852 1.961 . S
Li794 O854 1.956 . S
Li794 O855 1.970 . S
Li795 N845 1.990 . S
Li795 O853 1.961 . S
Li795 O854 1.970 . S
Li795 O855 1.956 . S
C796 C798 1.348 . S
C796 C799 1.356 . S
C796 O852 1.325 . S
N797 C800 1.314 . S
N797 C801 1.279 . S
C798 C796 1.348 . S
C798 C800 1.353 . S
C798 H856 0.929 . S
C799 C796 1.356 . S
C799 C801 1.358 . S
C799 H857 0.930 . S
C800 N797 1.314 . S
C800 C798 1.353 . S
C800 H858 0.930 . S
C801 N797 1.279 . S
C801 C799 1.358 . S
C801 H859 0.930 . S
C802 C805 1.348 . S
C802 C806 1.356 . S
C802 O853 1.325 . S
C803 N804 1.279 . S
C803 C806 1.358 . S
C803 H860 0.930 . S
N804 C803 1.279 . S
N804 C807 1.314 . S
C805 C802 1.348 . S
C805 C807 1.353 . S
C805 H861 0.929 . S
C806 C802 1.356 . S
C806 C803 1.358 . S
C806 H862 0.930 . S
C807 N804 1.314 . S
C807 C805 1.353 . S
C807 H863 0.930 . S
C808 N809 1.314 . S
C808 C813 1.353 . S
C808 H814 0.930 . S
N809 Li792 1.990 . S
N809 C808 1.314 . S
N809 C811 1.279 . S
C810 C811 1.358 . S
C810 C812 1.356 . S
C810 H864 0.930 . S
C811 N809 1.279 . S
C811 C810 1.358 . S
C811 H815 0.930 . S
C812 C810 1.356 . S
C812 C813 1.348 . S
C813 C808 1.353 . S
C813 C812 1.348 . S
C813 H865 0.929 . S
H814 C808 0.930 . S
H815 C811 0.930 . S
C816 N817 1.314 . S
C816 C818 1.353 . S
C816 H822 0.930 . S
N817 Li793 1.990 . S
N817 C816 1.314 . S
N817 C820 1.279 . S
C818 C816 1.353 . S
C818 C821 1.348 . S
C818 H866 0.929 . S
C819 C820 1.358 . S
C819 C821 1.356 . S
C819 H867 0.930 . S
C820 N817 1.279 . S
C820 C819 1.358 . S
C820 H823 0.930 . S
C821 C818 1.348 . S
C821 C819 1.356 . S
H822 C816 0.930 . S
H823 C820 0.930 . S
C824 C826 1.348 . S
C824 C827 1.356 . S
C824 O854 1.325 . S
N825 C828 1.314 . S
N825 C829 1.279 . S
C826 C824 1.348 . S
C826 C828 1.353 . S
C826 H868 0.929 . S
C827 C824 1.356 . S
C827 C829 1.358 . S
C827 H869 0.930 . S
C828 N825 1.314 . S
C828 C826 1.353 . S
C828 H870 0.930 . S
C829 N825 1.279 . S
C829 C827 1.358 . S
C829 H871 0.930 . S
C830 C831 1.348 . S
C830 C832 1.356 . S
C830 O855 1.325 . S
C831 C830 1.348 . S
C831 C833 1.353 . S
C831 H872 0.929 . S
C832 C830 1.356 . S
C832 C834 1.358 . S
C832 H873 0.930 . S
C833 C831 1.353 . S
C833 N835 1.314 . S
C833 H874 0.930 . S
C834 C832 1.358 . S
C834 N835 1.279 . S
C834 H875 0.930 . S
N835 C833 1.314 . S
N835 C834 1.279 . S
C836 C838 1.353 . S
C836 N839 1.314 . S
C836 H842 0.930 . S
C837 N839 1.279 . S
C837 C840 1.358 . S
C837 H843 0.930 . S
C838 C836 1.353 . S
C838 C841 1.348 . S
C838 H876 0.929 . S
N839 Li794 1.990 . S
N839 C836 1.314 . S
N839 C837 1.279 . S
C840 C837 1.358 . S
C840 C841 1.356 . S
C840 H877 0.930 . S
C841 C838 1.348 . S
C841 C840 1.356 . S
H842 C836 0.930 . S
H843 C837 0.930 . S
C844 N845 1.314 . S
C844 C846 1.353 . S
C844 H850 0.930 . S
N845 Li795 1.990 . S
N845 C844 1.314 . S
N845 C848 1.279 . S
C846 C844 1.353 . S
C846 C849 1.348 . S
C846 H878 0.929 . S
C847 C848 1.358 . S
C847 C849 1.356 . S
C847 H879 0.930 . S
C848 N845 1.279 . S
C848 C847 1.358 . S
C848 H851 0.930 . S
C849 C846 1.348 . S
C849 C847 1.356 . S
H850 C844 0.930 . S
H851 C848 0.930 . S
O852 Li792 1.956 . S
O852 Li793 1.970 . S
O852 Li794 1.961 . S
O852 C796 1.325 . S
O853 Li792 1.970 . S
O853 Li793 1.956 . S
O853 Li795 1.961 . S
O853 C802 1.325 . S
O854 Li792 1.961 . S
O854 Li794 1.956 . S
O854 Li795 1.970 . S
O854 C824 1.325 . S
O855 Li793 1.961 . S
O855 Li794 1.970 . S
O855 Li795 1.956 . S
O855 C830 1.325 . S
H856 C798 0.929 . S
H857 C799 0.930 . S
H858 C800 0.930 . S
H859 C801 0.930 . S
H860 C803 0.930 . S
H861 C805 0.929 . S
H862 C806 0.930 . S
H863 C807 0.930 . S
H864 C810 0.930 . S
H865 C813 0.929 . S
H866 C818 0.929 . S
H867 C819 0.930 . S
H868 C826 0.929 . S
H869 C827 0.930 . S
H870 C828 0.930 . S
H871 C829 0.930 . S
H872 C831 0.929 . S
H873 C832 0.930 . S
H874 C833 0.930 . S
H875 C834 0.930 . S
H876 C838 0.929 . S
H877 C840 0.930 . S
H878 C846 0.929 . S
H879 C847 0.930 . S
Li880 N897 1.990 . S
Li880 O940 1.956 . S
Li880 O941 1.970 . S
Li880 O942 1.961 . S
Li881 N905 1.990 . S
Li881 O940 1.970 . S
Li881 O941 1.956 . S
Li881 O943 1.961 . S
Li882 N927 1.990 . S
Li882 O940 1.961 . S
Li882 O942 1.956 . S
Li882 O943 1.970 . S
Li883 N933 1.990 . S
Li883 O941 1.961 . S
Li883 O942 1.970 . S
Li883 O943 1.956 . S
C884 C886 1.348 . S
C884 C887 1.356 . S
C884 O940 1.325 . S
N885 C888 1.314 . S
N885 C889 1.279 . S
C886 C884 1.348 . S
C886 C888 1.353 . S
C886 H944 0.929 . S
C887 C884 1.356 . S
C887 C889 1.358 . S
C887 H945 0.930 . S
C888 N885 1.314 . S
C888 C886 1.353 . S
C888 H946 0.930 . S
C889 N885 1.279 . S
C889 C887 1.358 . S
C889 H947 0.930 . S
C890 C893 1.348 . S
C890 C894 1.356 . S
C890 O941 1.325 . S
C891 N892 1.279 . S
C891 C894 1.358 . S
C891 H948 0.930 . S
N892 C891 1.279 . S
N892 C895 1.314 . S
C893 C890 1.348 . S
C893 C895 1.353 . S
C893 H949 0.929 . S
C894 C890 1.356 . S
C894 C891 1.358 . S
C894 H950 0.930 . S
C895 N892 1.314 . S
C895 C893 1.353 . S
C895 H951 0.930 . S
C896 N897 1.314 . S
C896 C901 1.353 . S
C896 H902 0.930 . S
N897 Li880 1.990 . S
N897 C896 1.314 . S
N897 C899 1.279 . S
C898 C899 1.358 . S
C898 C900 1.356 . S
C898 H952 0.930 . S
C899 N897 1.279 . S
C899 C898 1.358 . S
C899 H903 0.930 . S
C900 C898 1.356 . S
C900 C901 1.348 . S
C901 C896 1.353 . S
C901 C900 1.348 . S
C901 H953 0.929 . S
H902 C896 0.930 . S
H903 C899 0.930 . S
C904 N905 1.314 . S
C904 C906 1.353 . S
C904 H910 0.930 . S
N905 Li881 1.990 . S
N905 C904 1.314 . S
N905 C908 1.279 . S
C906 C904 1.353 . S
C906 C909 1.348 . S
C906 H954 0.929 . S
C907 C908 1.358 . S
C907 C909 1.356 . S
C907 H955 0.930 . S
C908 N905 1.279 . S
C908 C907 1.358 . S
C908 H911 0.930 . S
C909 C906 1.348 . S
C909 C907 1.356 . S
H910 C904 0.930 . S
H911 C908 0.930 . S
C912 C914 1.348 . S
C912 C915 1.356 . S
C912 O942 1.325 . S
N913 C916 1.314 . S
N913 C917 1.279 . S
C914 C912 1.348 . S
C914 C916 1.353 . S
C914 H956 0.929 . S
C915 C912 1.356 . S
C915 C917 1.358 . S
C915 H957 0.930 . S
C916 N913 1.314 . S
C916 C914 1.353 . S
C916 H958 0.930 . S
C917 N913 1.279 . S
C917 C915 1.358 . S
C917 H959 0.930 . S
C918 C919 1.348 . S
C918 C920 1.356 . S
C918 O943 1.325 . S
C919 C918 1.348 . S
C919 C921 1.353 . S
C919 H960 0.929 . S
C920 C918 1.356 . S
C920 C922 1.358 . S
C920 H961 0.930 . S
C921 C919 1.353 . S
C921 N923 1.314 . S
C921 H962 0.930 . S
C922 C920 1.358 . S
C922 N923 1.279 . S
C922 H963 0.930 . S
N923 C921 1.314 . S
N923 C922 1.279 . S
C924 C926 1.353 . S
C924 N927 1.314 . S
C924 H930 0.930 . S
C925 N927 1.279 . S
C925 C928 1.358 . S
C925 H931 0.930 . S
C926 C924 1.353 . S
C926 C929 1.348 . S
C926 H964 0.929 . S
N927 Li882 1.990 . S
N927 C924 1.314 . S
N927 C925 1.279 . S
C928 C925 1.358 . S
C928 C929 1.356 . S
C928 H965 0.930 . S
C929 C926 1.348 . S
C929 C928 1.356 . S
H930 C924 0.930 . S
H931 C925 0.930 . S
C932 N933 1.314 . S
C932 C934 1.353 . S
C932 H938 0.930 . S
N933 Li883 1.990 . S
N933 C932 1.314 . S
N933 C936 1.279 . S
C934 C932 1.353 . S
C934 C937 1.348 . S
C934 H966 0.929 . S
C935 C936 1.358 . S
C935 C937 1.356 . S
C935 H967 0.930 . S
C936 N933 1.279 . S
C936 C935 1.358 . S
C936 H939 0.930 . S
C937 C934 1.348 . S
C937 C935 1.356 . S
H938 C932 0.930 . S
H939 C936 0.930 . S
O940 Li880 1.956 . S
O940 Li881 1.970 . S
O940 Li882 1.961 . S
O940 C884 1.325 . S
O941 Li880 1.970 . S
O941 Li881 1.956 . S
O941 Li883 1.961 . S
O941 C890 1.325 . S
O942 Li880 1.961 . S
O942 Li882 1.956 . S
O942 Li883 1.970 . S
O942 C912 1.325 . S
O943 Li881 1.961 . S
O943 Li882 1.970 . S
O943 Li883 1.956 . S
O943 C918 1.325 . S
H944 C886 0.929 . S
H945 C887 0.930 . S
H946 C888 0.930 . S
H947 C889 0.930 . S
H948 C891 0.930 . S
H949 C893 0.929 . S
H950 C894 0.930 . S
H951 C895 0.930 . S
H952 C898 0.930 . S
H953 C901 0.929 . S
H954 C906 0.929 . S
H955 C907 0.930 . S
H956 C914 0.929 . S
H957 C915 0.930 . S
H958 C916 0.930 . S
H959 C917 0.930 . S
H960 C919 0.929 . S
H961 C920 0.930 . S
H962 C921 0.930 . S
H963 C922 0.930 . S
H964 C926 0.929 . S
H965 C928 0.930 . S
H966 C934 0.929 . S
H967 C935 0.930 . S
Li968 N985 1.990 . S
Li968 O1028 1.956 . S
Li968 O1029 1.970 . S
Li968 O1030 1.961 . S
Li969 N993 1.990 . S
Li969 O1028 1.970 . S
Li969 O1029 1.956 . S
Li969 O1031 1.961 . S
Li970 N1015 1.990 . S
Li970 O1028 1.961 . S
Li970 O1030 1.956 . S
Li970 O1031 1.970 . S
Li971 N1021 1.990 . S
Li971 O1029 1.961 . S
Li971 O1030 1.970 . S
Li971 O1031 1.956 . S
C972 C974 1.348 . S
C972 C975 1.356 . S
C972 O1028 1.325 . S
N973 C976 1.314 . S
N973 C977 1.279 . S
C974 C972 1.348 . S
C974 C976 1.353 . S
C974 H1032 0.929 . S
C975 C972 1.356 . S
C975 C977 1.358 . S
C975 H1033 0.930 . S
C976 N973 1.314 . S
C976 C974 1.353 . S
C976 H1034 0.930 . S
C977 N973 1.279 . S
C977 C975 1.358 . S
C977 H1035 0.930 . S
C978 C981 1.348 . S
C978 C982 1.356 . S
C978 O1029 1.325 . S
C979 N980 1.279 . S
C979 C982 1.358 . S
C979 H1036 0.930 . S
N980 C979 1.279 . S
N980 C983 1.314 . S
C981 C978 1.348 . S
C981 C983 1.353 . S
C981 H1037 0.929 . S
C982 C978 1.356 . S
C982 C979 1.358 . S
C982 H1038 0.930 . S
C983 N980 1.314 . S
C983 C981 1.353 . S
C983 H1039 0.930 . S
C984 N985 1.314 . S
C984 C989 1.353 . S
C984 H990 0.930 . S
N985 Li968 1.990 . S
N985 C984 1.314 . S
N985 C987 1.279 . S
C986 C987 1.358 . S
C986 C988 1.356 . S
C986 H1040 0.930 . S
C987 N985 1.279 . S
C987 C986 1.358 . S
C987 H991 0.930 . S
C988 C986 1.356 . S
C988 C989 1.348 . S
C989 C984 1.353 . S
C989 C988 1.348 . S
C989 H1041 0.929 . S
H990 C984 0.930 . S
H991 C987 0.930 . S
C992 N993 1.314 . S
C992 C994 1.353 . S
C992 H998 0.930 . S
N993 Li969 1.990 . S
N993 C992 1.314 . S
N993 C996 1.279 . S
C994 C992 1.353 . S
C994 C997 1.348 . S
C994 H1042 0.929 . S
C995 C996 1.358 . S
C995 C997 1.356 . S
C995 H1043 0.930 . S
C996 N993 1.279 . S
C996 C995 1.358 . S
C996 H999 0.930 . S
C997 C994 1.348 . S
C997 C995 1.356 . S
H998 C992 0.930 . S
H999 C996 0.930 . S
C1000 C1002 1.348 . S
C1000 C1003 1.356 . S
C1000 O1030 1.325 . S
N1001 C1004 1.314 . S
N1001 C1005 1.279 . S
C1002 C1000 1.348 . S
C1002 C1004 1.353 . S
C1002 H1044 0.929 . S
C1003 C1000 1.356 . S
C1003 C1005 1.358 . S
C1003 H1045 0.930 . S
C1004 N1001 1.314 . S
C1004 C1002 1.353 . S
C1004 H1046 0.930 . S
C1005 N1001 1.279 . S
C1005 C1003 1.358 . S
C1005 H1047 0.930 . S
C1006 C1007 1.348 . S
C1006 C1008 1.356 . S
C1006 O1031 1.325 . S
C1007 C1006 1.348 . S
C1007 C1009 1.353 . S
C1007 H1048 0.929 . S
C1008 C1006 1.356 . S
C1008 C1010 1.358 . S
C1008 H1049 0.930 . S
C1009 C1007 1.353 . S
C1009 N1011 1.314 . S
C1009 H1050 0.930 . S
C1010 C1008 1.358 . S
C1010 N1011 1.279 . S
C1010 H1051 0.930 . S
N1011 C1009 1.314 . S
N1011 C1010 1.279 . S
C1012 C1014 1.353 . S
C1012 N1015 1.314 . S
C1012 H1018 0.930 . S
C1013 N1015 1.279 . S
C1013 C1016 1.358 . S
C1013 H1019 0.930 . S
C1014 C1012 1.353 . S
C1014 C1017 1.348 . S
C1014 H1052 0.929 . S
N1015 Li970 1.990 . S
N1015 C1012 1.314 . S
N1015 C1013 1.279 . S
C1016 C1013 1.358 . S
C1016 C1017 1.356 . S
C1016 H1053 0.930 . S
C1017 C1014 1.348 . S
C1017 C1016 1.356 . S
H1018 C1012 0.930 . S
H1019 C1013 0.930 . S
C1020 N1021 1.314 . S
C1020 C1022 1.353 . S
C1020 H1026 0.930 . S
N1021 Li971 1.990 . S
N1021 C1020 1.314 . S
N1021 C1024 1.279 . S
C1022 C1020 1.353 . S
C1022 C1025 1.348 . S
C1022 H1054 0.929 . S
C1023 C1024 1.358 . S
C1023 C1025 1.356 . S
C1023 H1055 0.930 . S
C1024 N1021 1.279 . S
C1024 C1023 1.358 . S
C1024 H1027 0.930 . S
C1025 C1022 1.348 . S
C1025 C1023 1.356 . S
H1026 C1020 0.930 . S
H1027 C1024 0.930 . S
O1028 Li968 1.956 . S
O1028 Li969 1.970 . S
O1028 Li970 1.961 . S
O1028 C972 1.325 . S
O1029 Li968 1.970 . S
O1029 Li969 1.956 . S
O1029 Li971 1.961 . S
O1029 C978 1.325 . S
O1030 Li968 1.961 . S
O1030 Li970 1.956 . S
O1030 Li971 1.970 . S
O1030 C1000 1.325 . S
O1031 Li969 1.961 . S
O1031 Li970 1.970 . S
O1031 Li971 1.956 . S
O1031 C1006 1.325 . S
H1032 C974 0.929 . S
H1033 C975 0.930 . S
H1034 C976 0.930 . S
H1035 C977 0.930 . S
H1036 C979 0.930 . S
H1037 C981 0.929 . S
H1038 C982 0.930 . S
H1039 C983 0.930 . S
H1040 C986 0.930 . S
H1041 C989 0.929 . S
H1042 C994 0.929 . S
H1043 C995 0.930 . S
H1044 C1002 0.929 . S
H1045 C1003 0.930 . S
H1046 C1004 0.930 . S
H1047 C1005 0.930 . S
H1048 C1007 0.929 . S
H1049 C1008 0.930 . S
H1050 C1009 0.930 . S
H1051 C1010 0.930 . S
H1052 C1014 0.929 . S
H1053 C1016 0.930 . S
H1054 C1022 0.929 . S
H1055 C1023 0.930 . S
Li1056 N1073 1.990 . S
Li1056 O1116 1.956 . S
Li1056 O1117 1.970 . S
Li1056 O1118 1.961 . S
Li1057 N1081 1.990 . S
Li1057 O1116 1.970 . S
Li1057 O1117 1.956 . S
Li1057 O1119 1.961 . S
Li1058 N1103 1.990 . S
Li1058 O1116 1.961 . S
Li1058 O1118 1.956 . S
Li1058 O1119 1.970 . S
Li1059 N1109 1.990 . S
Li1059 O1117 1.961 . S
Li1059 O1118 1.970 . S
Li1059 O1119 1.956 . S
C1060 C1062 1.348 . S
C1060 C1063 1.356 . S
C1060 O1116 1.325 . S
N1061 C1064 1.314 . S
N1061 C1065 1.279 . S
C1062 C1060 1.348 . S
C1062 C1064 1.353 . S
C1062 H1120 0.929 . S
C1063 C1060 1.356 . S
C1063 C1065 1.358 . S
C1063 H1121 0.930 . S
C1064 N1061 1.314 . S
C1064 C1062 1.353 . S
C1064 H1122 0.930 . S
C1065 N1061 1.279 . S
C1065 C1063 1.358 . S
C1065 H1123 0.930 . S
C1066 C1069 1.348 . S
C1066 C1070 1.356 . S
C1066 O1117 1.325 . S
C1067 N1068 1.279 . S
C1067 C1070 1.358 . S
C1067 H1124 0.930 . S
N1068 C1067 1.279 . S
N1068 C1071 1.314 . S
C1069 C1066 1.348 . S
C1069 C1071 1.353 . S
C1069 H1125 0.929 . S
C1070 C1066 1.356 . S
C1070 C1067 1.358 . S
C1070 H1126 0.930 . S
C1071 N1068 1.314 . S
C1071 C1069 1.353 . S
C1071 H1127 0.930 . S
C1072 N1073 1.314 . S
C1072 C1077 1.353 . S
C1072 H1078 0.930 . S
N1073 Li1056 1.990 . S
N1073 C1072 1.314 . S
N1073 C1075 1.279 . S
C1074 C1075 1.358 . S
C1074 C1076 1.356 . S
C1074 H1128 0.930 . S
C1075 N1073 1.279 . S
C1075 C1074 1.358 . S
C1075 H1079 0.930 . S
C1076 C1074 1.356 . S
C1076 C1077 1.348 . S
C1077 C1072 1.353 . S
C1077 C1076 1.348 . S
C1077 H1129 0.929 . S
H1078 C1072 0.930 . S
H1079 C1075 0.930 . S
C1080 N1081 1.314 . S
C1080 C1082 1.353 . S
C1080 H1086 0.930 . S
N1081 Li1057 1.990 . S
N1081 C1080 1.314 . S
N1081 C1084 1.279 . S
C1082 C1080 1.353 . S
C1082 C1085 1.348 . S
C1082 H1130 0.929 . S
C1083 C1084 1.358 . S
C1083 C1085 1.356 . S
C1083 H1131 0.930 . S
C1084 N1081 1.279 . S
C1084 C1083 1.358 . S
C1084 H1087 0.930 . S
C1085 C1082 1.348 . S
C1085 C1083 1.356 . S
H1086 C1080 0.930 . S
H1087 C1084 0.930 . S
C1088 C1090 1.348 . S
C1088 C1091 1.356 . S
C1088 O1118 1.325 . S
N1089 C1092 1.314 . S
N1089 C1093 1.279 . S
C1090 C1088 1.348 . S
C1090 C1092 1.353 . S
C1090 H1132 0.929 . S
C1091 C1088 1.356 . S
C1091 C1093 1.358 . S
C1091 H1133 0.930 . S
C1092 N1089 1.314 . S
C1092 C1090 1.353 . S
C1092 H1134 0.930 . S
C1093 N1089 1.279 . S
C1093 C1091 1.358 . S
C1093 H1135 0.930 . S
C1094 C1095 1.348 . S
C1094 C1096 1.356 . S
C1094 O1119 1.325 . S
C1095 C1094 1.348 . S
C1095 C1097 1.353 . S
C1095 H1136 0.929 . S
C1096 C1094 1.356 . S
C1096 C1098 1.358 . S
C1096 H1137 0.930 . S
C1097 C1095 1.353 . S
C1097 N1099 1.314 . S
C1097 H1138 0.930 . S
C1098 C1096 1.358 . S
C1098 N1099 1.279 . S
C1098 H1139 0.930 . S
N1099 C1097 1.314 . S
N1099 C1098 1.279 . S
C1100 C1102 1.353 . S
C1100 N1103 1.314 . S
C1100 H1106 0.930 . S
C1101 N1103 1.279 . S
C1101 C1104 1.358 . S
C1101 H1107 0.930 . S
C1102 C1100 1.353 . S
C1102 C1105 1.348 . S
C1102 H1140 0.929 . S
N1103 Li1058 1.990 . S
N1103 C1100 1.314 . S
N1103 C1101 1.279 . S
C1104 C1101 1.358 . S
C1104 C1105 1.356 . S
C1104 H1141 0.930 . S
C1105 C1102 1.348 . S
C1105 C1104 1.356 . S
H1106 C1100 0.930 . S
H1107 C1101 0.930 . S
C1108 N1109 1.314 . S
C1108 C1110 1.353 . S
C1108 H1114 0.930 . S
N1109 Li1059 1.990 . S
N1109 C1108 1.314 . S
N1109 C1112 1.279 . S
C1110 C1108 1.353 . S
C1110 C1113 1.348 . S
C1110 H1142 0.929 . S
C1111 C1112 1.358 . S
C1111 C1113 1.356 . S
C1111 H1143 0.930 . S
C1112 N1109 1.279 . S
C1112 C1111 1.358 . S
C1112 H1115 0.930 . S
C1113 C1110 1.348 . S
C1113 C1111 1.356 . S
H1114 C1108 0.930 . S
H1115 C1112 0.930 . S
O1116 Li1056 1.956 . S
O1116 Li1057 1.970 . S
O1116 Li1058 1.961 . S
O1116 C1060 1.325 . S
O1117 Li1056 1.970 . S
O1117 Li1057 1.956 . S
O1117 Li1059 1.961 . S
O1117 C1066 1.325 . S
O1118 Li1056 1.961 . S
O1118 Li1058 1.956 . S
O1118 Li1059 1.970 . S
O1118 C1088 1.325 . S
O1119 Li1057 1.961 . S
O1119 Li1058 1.970 . S
O1119 Li1059 1.956 . S
O1119 C1094 1.325 . S
H1120 C1062 0.929 . S
H1121 C1063 0.930 . S
H1122 C1064 0.930 . S
H1123 C1065 0.930 . S
H1124 C1067 0.930 . S
H1125 C1069 0.929 . S
H1126 C1070 0.930 . S
H1127 C1071 0.930 . S
H1128 C1074 0.930 . S
H1129 C1077 0.929 . S
H1130 C1082 0.929 . S
H1131 C1083 0.930 . S
H1132 C1090 0.929 . S
H1133 C1091 0.930 . S
H1134 C1092 0.930 . S
H1135 C1093 0.930 . S
H1136 C1095 0.929 . S
H1137 C1096 0.930 . S
H1138 C1097 0.930 . S
H1139 C1098 0.930 . S
H1140 C1102 0.929 . S
H1141 C1104 0.930 . S
H1142 C1110 0.929 . S
H1143 C1111 0.930 . S
Li1144 N1161 1.990 . S
Li1144 O1204 1.956 . S
Li1144 O1205 1.970 . S
Li1144 O1206 1.961 . S
Li1145 N1169 1.990 . S
Li1145 O1204 1.970 . S
Li1145 O1205 1.956 . S
Li1145 O1207 1.961 . S
Li1146 N1191 1.990 . S
Li1146 O1204 1.961 . S
Li1146 O1206 1.956 . S
Li1146 O1207 1.970 . S
Li1147 N1197 1.990 . S
Li1147 O1205 1.961 . S
Li1147 O1206 1.970 . S
Li1147 O1207 1.956 . S
C1148 C1150 1.348 . S
C1148 C1151 1.356 . S
C1148 O1204 1.325 . S
N1149 C1152 1.314 . S
N1149 C1153 1.279 . S
C1150 C1148 1.348 . S
C1150 C1152 1.353 . S
C1150 H1208 0.929 . S
C1151 C1148 1.356 . S
C1151 C1153 1.358 . S
C1151 H1209 0.930 . S
C1152 N1149 1.314 . S
C1152 C1150 1.353 . S
C1152 H1210 0.930 . S
C1153 N1149 1.279 . S
C1153 C1151 1.358 . S
C1153 H1211 0.930 . S
C1154 C1157 1.348 . S
C1154 C1158 1.356 . S
C1154 O1205 1.325 . S
C1155 N1156 1.279 . S
C1155 C1158 1.358 . S
C1155 H1212 0.930 . S
N1156 C1155 1.279 . S
N1156 C1159 1.314 . S
C1157 C1154 1.348 . S
C1157 C1159 1.353 . S
C1157 H1213 0.929 . S
C1158 C1154 1.356 . S
C1158 C1155 1.358 . S
C1158 H1214 0.930 . S
C1159 N1156 1.314 . S
C1159 C1157 1.353 . S
C1159 H1215 0.930 . S
C1160 N1161 1.314 . S
C1160 C1165 1.353 . S
C1160 H1166 0.930 . S
N1161 Li1144 1.990 . S
N1161 C1160 1.314 . S
N1161 C1163 1.279 . S
C1162 C1163 1.358 . S
C1162 C1164 1.356 . S
C1162 H1216 0.930 . S
C1163 N1161 1.279 . S
C1163 C1162 1.358 . S
C1163 H1167 0.930 . S
C1164 C1162 1.356 . S
C1164 C1165 1.348 . S
C1165 C1160 1.353 . S
C1165 C1164 1.348 . S
C1165 H1217 0.929 . S
H1166 C1160 0.930 . S
H1167 C1163 0.930 . S
C1168 N1169 1.314 . S
C1168 C1170 1.353 . S
C1168 H1174 0.930 . S
N1169 Li1145 1.990 . S
N1169 C1168 1.314 . S
N1169 C1172 1.279 . S
C1170 C1168 1.353 . S
C1170 C1173 1.348 . S
C1170 H1218 0.929 . S
C1171 C1172 1.358 . S
C1171 C1173 1.356 . S
C1171 H1219 0.930 . S
C1172 N1169 1.279 . S
C1172 C1171 1.358 . S
C1172 H1175 0.930 . S
C1173 C1170 1.348 . S
C1173 C1171 1.356 . S
H1174 C1168 0.930 . S
H1175 C1172 0.930 . S
C1176 C1178 1.348 . S
C1176 C1179 1.356 . S
C1176 O1206 1.325 . S
N1177 C1180 1.314 . S
N1177 C1181 1.279 . S
C1178 C1176 1.348 . S
C1178 C1180 1.353 . S
C1178 H1220 0.929 . S
C1179 C1176 1.356 . S
C1179 C1181 1.358 . S
C1179 H1221 0.930 . S
C1180 N1177 1.314 . S
C1180 C1178 1.353 . S
C1180 H1222 0.930 . S
C1181 N1177 1.279 . S
C1181 C1179 1.358 . S
C1181 H1223 0.930 . S
C1182 C1183 1.348 . S
C1182 C1184 1.356 . S
C1182 O1207 1.325 . S
C1183 C1182 1.348 . S
C1183 C1185 1.353 . S
C1183 H1224 0.929 . S
C1184 C1182 1.356 . S
C1184 C1186 1.358 . S
C1184 H1225 0.930 . S
C1185 C1183 1.353 . S
C1185 N1187 1.314 . S
C1185 H1226 0.930 . S
C1186 C1184 1.358 . S
C1186 N1187 1.279 . S
C1186 H1227 0.930 . S
N1187 C1185 1.314 . S
N1187 C1186 1.279 . S
C1188 C1190 1.353 . S
C1188 N1191 1.314 . S
C1188 H1194 0.930 . S
C1189 N1191 1.279 . S
C1189 C1192 1.358 . S
C1189 H1195 0.930 . S
C1190 C1188 1.353 . S
C1190 C1193 1.348 . S
C1190 H1228 0.929 . S
N1191 Li1146 1.990 . S
N1191 C1188 1.314 . S
N1191 C1189 1.279 . S
C1192 C1189 1.358 . S
C1192 C1193 1.356 . S
C1192 H1229 0.930 . S
C1193 C1190 1.348 . S
C1193 C1192 1.356 . S
H1194 C1188 0.930 . S
H1195 C1189 0.930 . S
C1196 N1197 1.314 . S
C1196 C1198 1.353 . S
C1196 H1202 0.930 . S
N1197 Li1147 1.990 . S
N1197 C1196 1.314 . S
N1197 C1200 1.279 . S
C1198 C1196 1.353 . S
C1198 C1201 1.348 . S
C1198 H1230 0.929 . S
C1199 C1200 1.358 . S
C1199 C1201 1.356 . S
C1199 H1231 0.930 . S
C1200 N1197 1.279 . S
C1200 C1199 1.358 . S
C1200 H1203 0.930 . S
C1201 C1198 1.348 . S
C1201 C1199 1.356 . S
H1202 C1196 0.930 . S
H1203 C1200 0.930 . S
O1204 Li1144 1.956 . S
O1204 Li1145 1.970 . S
O1204 Li1146 1.961 . S
O1204 C1148 1.325 . S
O1205 Li1144 1.970 . S
O1205 Li1145 1.956 . S
O1205 Li1147 1.961 . S
O1205 C1154 1.325 . S
O1206 Li1144 1.961 . S
O1206 Li1146 1.956 . S
O1206 Li1147 1.970 . S
O1206 C1176 1.325 . S
O1207 Li1145 1.961 . S
O1207 Li1146 1.970 . S
O1207 Li1147 1.956 . S
O1207 C1182 1.325 . S
H1208 C1150 0.929 . S
H1209 C1151 0.930 . S
H1210 C1152 0.930 . S
H1211 C1153 0.930 . S
H1212 C1155 0.930 . S
H1213 C1157 0.929 . S
H1214 C1158 0.930 . S
H1215 C1159 0.930 . S
H1216 C1162 0.930 . S
H1217 C1165 0.929 . S
H1218 C1170 0.929 . S
H1219 C1171 0.930 . S
H1220 C1178 0.929 . S
H1221 C1179 0.930 . S
H1222 C1180 0.930 . S
H1223 C1181 0.930 . S
H1224 C1183 0.929 . S
H1225 C1184 0.930 . S
H1226 C1185 0.930 . S
H1227 C1186 0.930 . S
H1228 C1190 0.929 . S
H1229 C1192 0.930 . S
H1230 C1198 0.929 . S
H1231 C1199 0.930 . S
Li1232 N1249 1.990 . S
Li1232 O1292 1.956 . S
Li1232 O1293 1.970 . S
Li1232 O1294 1.961 . S
Li1233 N1257 1.990 . S
Li1233 O1292 1.970 . S
Li1233 O1293 1.956 . S
Li1233 O1295 1.961 . S
Li1234 N1279 1.990 . S
Li1234 O1292 1.961 . S
Li1234 O1294 1.956 . S
Li1234 O1295 1.970 . S
Li1235 N1285 1.990 . S
Li1235 O1293 1.961 . S
Li1235 O1294 1.970 . S
Li1235 O1295 1.956 . S
C1236 C1238 1.348 . S
C1236 C1239 1.356 . S
C1236 O1292 1.325 . S
N1237 C1240 1.314 . S
N1237 C1241 1.279 . S
C1238 C1236 1.348 . S
C1238 C1240 1.353 . S
C1238 H1296 0.929 . S
C1239 C1236 1.356 . S
C1239 C1241 1.358 . S
C1239 H1297 0.930 . S
C1240 N1237 1.314 . S
C1240 C1238 1.353 . S
C1240 H1298 0.930 . S
C1241 N1237 1.279 . S
C1241 C1239 1.358 . S
C1241 H1299 0.930 . S
C1242 C1245 1.348 . S
C1242 C1246 1.356 . S
C1242 O1293 1.325 . S
C1243 N1244 1.279 . S
C1243 C1246 1.358 . S
C1243 H1300 0.930 . S
N1244 C1243 1.279 . S
N1244 C1247 1.314 . S
C1245 C1242 1.348 . S
C1245 C1247 1.353 . S
C1245 H1301 0.929 . S
C1246 C1242 1.356 . S
C1246 C1243 1.358 . S
C1246 H1302 0.930 . S
C1247 N1244 1.314 . S
C1247 C1245 1.353 . S
C1247 H1303 0.930 . S
C1248 N1249 1.314 . S
C1248 C1253 1.353 . S
C1248 H1254 0.930 . S
N1249 Li1232 1.990 . S
N1249 C1248 1.314 . S
N1249 C1251 1.279 . S
C1250 C1251 1.358 . S
C1250 C1252 1.356 . S
C1250 H1304 0.930 . S
C1251 N1249 1.279 . S
C1251 C1250 1.358 . S
C1251 H1255 0.930 . S
C1252 C1250 1.356 . S
C1252 C1253 1.348 . S
C1253 C1248 1.353 . S
C1253 C1252 1.348 . S
C1253 H1305 0.929 . S
H1254 C1248 0.930 . S
H1255 C1251 0.930 . S
C1256 N1257 1.314 . S
C1256 C1258 1.353 . S
C1256 H1262 0.930 . S
N1257 Li1233 1.990 . S
N1257 C1256 1.314 . S
N1257 C1260 1.279 . S
C1258 C1256 1.353 . S
C1258 C1261 1.348 . S
C1258 H1306 0.929 . S
C1259 C1260 1.358 . S
C1259 C1261 1.356 . S
C1259 H1307 0.930 . S
C1260 N1257 1.279 . S
C1260 C1259 1.358 . S
C1260 H1263 0.930 . S
C1261 C1258 1.348 . S
C1261 C1259 1.356 . S
H1262 C1256 0.930 . S
H1263 C1260 0.930 . S
C1264 C1266 1.348 . S
C1264 C1267 1.356 . S
C1264 O1294 1.325 . S
N1265 C1268 1.314 . S
N1265 C1269 1.279 . S
C1266 C1264 1.348 . S
C1266 C1268 1.353 . S
C1266 H1308 0.929 . S
C1267 C1264 1.356 . S
C1267 C1269 1.358 . S
C1267 H1309 0.930 . S
C1268 N1265 1.314 . S
C1268 C1266 1.353 . S
C1268 H1310 0.930 . S
C1269 N1265 1.279 . S
C1269 C1267 1.358 . S
C1269 H1311 0.930 . S
C1270 C1271 1.348 . S
C1270 C1272 1.356 . S
C1270 O1295 1.325 . S
C1271 C1270 1.348 . S
C1271 C1273 1.353 . S
C1271 H1312 0.929 . S
C1272 C1270 1.356 . S
C1272 C1274 1.358 . S
C1272 H1313 0.930 . S
C1273 C1271 1.353 . S
C1273 N1275 1.314 . S
C1273 H1314 0.930 . S
C1274 C1272 1.358 . S
C1274 N1275 1.279 . S
C1274 H1315 0.930 . S
N1275 C1273 1.314 . S
N1275 C1274 1.279 . S
C1276 C1278 1.353 . S
C1276 N1279 1.314 . S
C1276 H1282 0.930 . S
C1277 N1279 1.279 . S
C1277 C1280 1.358 . S
C1277 H1283 0.930 . S
C1278 C1276 1.353 . S
C1278 C1281 1.348 . S
C1278 H1316 0.929 . S
N1279 Li1234 1.990 . S
N1279 C1276 1.314 . S
N1279 C1277 1.279 . S
C1280 C1277 1.358 . S
C1280 C1281 1.356 . S
C1280 H1317 0.930 . S
C1281 C1278 1.348 . S
C1281 C1280 1.356 . S
H1282 C1276 0.930 . S
H1283 C1277 0.930 . S
C1284 N1285 1.314 . S
C1284 C1286 1.353 . S
C1284 H1290 0.930 . S
N1285 Li1235 1.990 . S
N1285 C1284 1.314 . S
N1285 C1288 1.279 . S
C1286 C1284 1.353 . S
C1286 C1289 1.348 . S
C1286 H1318 0.929 . S
C1287 C1288 1.358 . S
C1287 C1289 1.356 . S
C1287 H1319 0.930 . S
C1288 N1285 1.279 . S
C1288 C1287 1.358 . S
C1288 H1291 0.930 . S
C1289 C1286 1.348 . S
C1289 C1287 1.356 . S
H1290 C1284 0.930 . S
H1291 C1288 0.930 . S
O1292 Li1232 1.956 . S
O1292 Li1233 1.970 . S
O1292 Li1234 1.961 . S
O1292 C1236 1.325 . S
O1293 Li1232 1.970 . S
O1293 Li1233 1.956 . S
O1293 Li1235 1.961 . S
O1293 C1242 1.325 . S
O1294 Li1232 1.961 . S
O1294 Li1234 1.956 . S
O1294 Li1235 1.970 . S
O1294 C1264 1.325 . S
O1295 Li1233 1.961 . S
O1295 Li1234 1.970 . S
O1295 Li1235 1.956 . S
O1295 C1270 1.325 . S
H1296 C1238 0.929 . S
H1297 C1239 0.930 . S
H1298 C1240 0.930 . S
H1299 C1241 0.930 . S
H1300 C1243 0.930 . S
H1301 C1245 0.929 . S
H1302 C1246 0.930 . S
H1303 C1247 0.930 . S
H1304 C1250 0.930 . S
H1305 C1253 0.929 . S
H1306 C1258 0.929 . S
H1307 C1259 0.930 . S
H1308 C1266 0.929 . S
H1309 C1267 0.930 . S
H1310 C1268 0.930 . S
H1311 C1269 0.930 . S
H1312 C1271 0.929 . S
H1313 C1272 0.930 . S
H1314 C1273 0.930 . S
H1315 C1274 0.930 . S
H1316 C1278 0.929 . S
H1317 C1280 0.930 . S
H1318 C1286 0.929 . S
H1319 C1287 0.930 . S
Li1320 N1337 1.990 . S
Li1320 O1380 1.956 . S
Li1320 O1381 1.970 . S
Li1320 O1382 1.961 . S
Li1321 N1345 1.990 . S
Li1321 O1380 1.970 . S
Li1321 O1381 1.956 . S
Li1321 O1383 1.961 . S
Li1322 N1367 1.990 . S
Li1322 O1380 1.961 . S
Li1322 O1382 1.956 . S
Li1322 O1383 1.970 . S
Li1323 N1373 1.990 . S
Li1323 O1381 1.961 . S
Li1323 O1382 1.970 . S
Li1323 O1383 1.956 . S
C1324 C1326 1.348 . S
C1324 C1327 1.356 . S
C1324 O1380 1.325 . S
N1325 C1328 1.314 . S
N1325 C1329 1.279 . S
C1326 C1324 1.348 . S
C1326 C1328 1.353 . S
C1326 H1384 0.929 . S
C1327 C1324 1.356 . S
C1327 C1329 1.358 . S
C1327 H1385 0.930 . S
C1328 N1325 1.314 . S
C1328 C1326 1.353 . S
C1328 H1386 0.930 . S
C1329 N1325 1.279 . S
C1329 C1327 1.358 . S
C1329 H1387 0.930 . S
C1330 C1333 1.348 . S
C1330 C1334 1.356 . S
C1330 O1381 1.325 . S
C1331 N1332 1.279 . S
C1331 C1334 1.358 . S
C1331 H1388 0.930 . S
N1332 C1331 1.279 . S
N1332 C1335 1.314 . S
C1333 C1330 1.348 . S
C1333 C1335 1.353 . S
C1333 H1389 0.929 . S
C1334 C1330 1.356 . S
C1334 C1331 1.358 . S
C1334 H1390 0.930 . S
C1335 N1332 1.314 . S
C1335 C1333 1.353 . S
C1335 H1391 0.930 . S
C1336 N1337 1.314 . S
C1336 C1341 1.353 . S
C1336 H1342 0.930 . S
N1337 Li1320 1.990 . S
N1337 C1336 1.314 . S
N1337 C1339 1.279 . S
C1338 C1339 1.358 . S
C1338 C1340 1.356 . S
C1338 H1392 0.930 . S
C1339 N1337 1.279 . S
C1339 C1338 1.358 . S
C1339 H1343 0.930 . S
C1340 C1338 1.356 . S
C1340 C1341 1.348 . S
C1341 C1336 1.353 . S
C1341 C1340 1.348 . S
C1341 H1393 0.929 . S
H1342 C1336 0.930 . S
H1343 C1339 0.930 . S
C1344 N1345 1.314 . S
C1344 C1346 1.353 . S
C1344 H1350 0.930 . S
N1345 Li1321 1.990 . S
N1345 C1344 1.314 . S
N1345 C1348 1.279 . S
C1346 C1344 1.353 . S
C1346 C1349 1.348 . S
C1346 H1394 0.929 . S
C1347 C1348 1.358 . S
C1347 C1349 1.356 . S
C1347 H1395 0.930 . S
C1348 N1345 1.279 . S
C1348 C1347 1.358 . S
C1348 H1351 0.930 . S
C1349 C1346 1.348 . S
C1349 C1347 1.356 . S
H1350 C1344 0.930 . S
H1351 C1348 0.930 . S
C1352 C1354 1.348 . S
C1352 C1355 1.356 . S
C1352 O1382 1.325 . S
N1353 C1356 1.314 . S
N1353 C1357 1.279 . S
C1354 C1352 1.348 . S
C1354 C1356 1.353 . S
C1354 H1396 0.929 . S
C1355 C1352 1.356 . S
C1355 C1357 1.358 . S
C1355 H1397 0.930 . S
C1356 N1353 1.314 . S
C1356 C1354 1.353 . S
C1356 H1398 0.930 . S
C1357 N1353 1.279 . S
C1357 C1355 1.358 . S
C1357 H1399 0.930 . S
C1358 C1359 1.348 . S
C1358 C1360 1.356 . S
C1358 O1383 1.325 . S
C1359 C1358 1.348 . S
C1359 C1361 1.353 . S
C1359 H1400 0.929 . S
C1360 C1358 1.356 . S
C1360 C1362 1.358 . S
C1360 H1401 0.930 . S
C1361 C1359 1.353 . S
C1361 N1363 1.314 . S
C1361 H1402 0.930 . S
C1362 C1360 1.358 . S
C1362 N1363 1.279 . S
C1362 H1403 0.930 . S
N1363 C1361 1.314 . S
N1363 C1362 1.279 . S
C1364 C1366 1.353 . S
C1364 N1367 1.314 . S
C1364 H1370 0.930 . S
C1365 N1367 1.279 . S
C1365 C1368 1.358 . S
C1365 H1371 0.930 . S
C1366 C1364 1.353 . S
C1366 C1369 1.348 . S
C1366 H1404 0.929 . S
N1367 Li1322 1.990 . S
N1367 C1364 1.314 . S
N1367 C1365 1.279 . S
C1368 C1365 1.358 . S
C1368 C1369 1.356 . S
C1368 H1405 0.930 . S
C1369 C1366 1.348 . S
C1369 C1368 1.356 . S
H1370 C1364 0.930 . S
H1371 C1365 0.930 . S
C1372 N1373 1.314 . S
C1372 C1374 1.353 . S
C1372 H1378 0.930 . S
N1373 Li1323 1.990 . S
N1373 C1372 1.314 . S
N1373 C1376 1.279 . S
C1374 C1372 1.353 . S
C1374 C1377 1.348 . S
C1374 H1406 0.929 . S
C1375 C1376 1.358 . S
C1375 C1377 1.356 . S
C1375 H1407 0.930 . S
C1376 N1373 1.279 . S
C1376 C1375 1.358 . S
C1376 H1379 0.930 . S
C1377 C1374 1.348 . S
C1377 C1375 1.356 . S
H1378 C1372 0.930 . S
H1379 C1376 0.930 . S
O1380 Li1320 1.956 . S
O1380 Li1321 1.970 . S
O1380 Li1322 1.961 . S
O1380 C1324 1.325 . S
O1381 Li1320 1.970 . S
O1381 Li1321 1.956 . S
O1381 Li1323 1.961 . S
O1381 C1330 1.325 . S
O1382 Li1320 1.961 . S
O1382 Li1322 1.956 . S
O1382 Li1323 1.970 . S
O1382 C1352 1.325 . S
O1383 Li1321 1.961 . S
O1383 Li1322 1.970 . S
O1383 Li1323 1.956 . S
O1383 C1358 1.325 . S
H1384 C1326 0.929 . S
H1385 C1327 0.930 . S
H1386 C1328 0.930 . S
H1387 C1329 0.930 . S
H1388 C1331 0.930 . S
H1389 C1333 0.929 . S
H1390 C1334 0.930 . S
H1391 C1335 0.930 . S
H1392 C1338 0.930 . S
H1393 C1341 0.929 . S
H1394 C1346 0.929 . S
H1395 C1347 0.930 . S
H1396 C1354 0.929 . S
H1397 C1355 0.930 . S
H1398 C1356 0.930 . S
H1399 C1357 0.930 . S
H1400 C1359 0.929 . S
H1401 C1360 0.930 . S
H1402 C1361 0.930 . S
H1403 C1362 0.930 . S
H1404 C1366 0.929 . S
H1405 C1368 0.930 . S
H1406 C1374 0.929 . S
H1407 C1375 0.930 . S
Li1408 N1425 1.990 . S
Li1408 O1468 1.956 . S
Li1408 O1469 1.970 . S
Li1408 O1470 1.961 . S
Li1409 N1433 1.990 . S
Li1409 O1468 1.970 . S
Li1409 O1469 1.956 . S
Li1409 O1471 1.961 . S
Li1410 N1455 1.990 . S
Li1410 O1468 1.961 . S
Li1410 O1470 1.956 . S
Li1410 O1471 1.970 . S
Li1411 N1461 1.990 . S
Li1411 O1469 1.961 . S
Li1411 O1470 1.970 . S
Li1411 O1471 1.956 . S
C1412 C1414 1.348 . S
C1412 C1415 1.356 . S
C1412 O1468 1.325 . S
N1413 C1416 1.314 . S
N1413 C1417 1.279 . S
C1414 C1412 1.348 . S
C1414 C1416 1.353 . S
C1414 H1472 0.929 . S
C1415 C1412 1.356 . S
C1415 C1417 1.358 . S
C1415 H1473 0.930 . S
C1416 N1413 1.314 . S
C1416 C1414 1.353 . S
C1416 H1474 0.930 . S
C1417 N1413 1.279 . S
C1417 C1415 1.358 . S
C1417 H1475 0.930 . S
C1418 C1421 1.348 . S
C1418 C1422 1.356 . S
C1418 O1469 1.325 . S
C1419 N1420 1.279 . S
C1419 C1422 1.358 . S
C1419 H1476 0.930 . S
N1420 C1419 1.279 . S
N1420 C1423 1.314 . S
C1421 C1418 1.348 . S
C1421 C1423 1.353 . S
C1421 H1477 0.929 . S
C1422 C1418 1.356 . S
C1422 C1419 1.358 . S
C1422 H1478 0.930 . S
C1423 N1420 1.314 . S
C1423 C1421 1.353 . S
C1423 H1479 0.930 . S
C1424 N1425 1.314 . S
C1424 C1429 1.353 . S
C1424 H1430 0.930 . S
N1425 Li1408 1.990 . S
N1425 C1424 1.314 . S
N1425 C1427 1.279 . S
C1426 C1427 1.358 . S
C1426 C1428 1.356 . S
C1426 H1480 0.930 . S
C1427 N1425 1.279 . S
C1427 C1426 1.358 . S
C1427 H1431 0.930 . S
C1428 C1426 1.356 . S
C1428 C1429 1.348 . S
C1429 C1424 1.353 . S
C1429 C1428 1.348 . S
C1429 H1481 0.929 . S
H1430 C1424 0.930 . S
H1431 C1427 0.930 . S
C1432 N1433 1.314 . S
C1432 C1434 1.353 . S
C1432 H1438 0.930 . S
N1433 Li1409 1.990 . S
N1433 C1432 1.314 . S
N1433 C1436 1.279 . S
C1434 C1432 1.353 . S
C1434 C1437 1.348 . S
C1434 H1482 0.929 . S
C1435 C1436 1.358 . S
C1435 C1437 1.356 . S
C1435 H1483 0.930 . S
C1436 N1433 1.279 . S
C1436 C1435 1.358 . S
C1436 H1439 0.930 . S
C1437 C1434 1.348 . S
C1437 C1435 1.356 . S
H1438 C1432 0.930 . S
H1439 C1436 0.930 . S
C1440 C1442 1.348 . S
C1440 C1443 1.356 . S
C1440 O1470 1.325 . S
N1441 C1444 1.314 . S
N1441 C1445 1.279 . S
C1442 C1440 1.348 . S
C1442 C1444 1.353 . S
C1442 H1484 0.929 . S
C1443 C1440 1.356 . S
C1443 C1445 1.358 . S
C1443 H1485 0.930 . S
C1444 N1441 1.314 . S
C1444 C1442 1.353 . S
C1444 H1486 0.930 . S
C1445 N1441 1.279 . S
C1445 C1443 1.358 . S
C1445 H1487 0.930 . S
C1446 C1447 1.348 . S
C1446 C1448 1.356 . S
C1446 O1471 1.325 . S
C1447 C1446 1.348 . S
C1447 C1449 1.353 . S
C1447 H1488 0.929 . S
C1448 C1446 1.356 . S
C1448 C1450 1.358 . S
C1448 H1489 0.930 . S
C1449 C1447 1.353 . S
C1449 N1451 1.314 . S
C1449 H1490 0.930 . S
C1450 C1448 1.358 . S
C1450 N1451 1.279 . S
C1450 H1491 0.930 . S
N1451 C1449 1.314 . S
N1451 C1450 1.279 . S
C1452 C1454 1.353 . S
C1452 N1455 1.314 . S
C1452 H1458 0.930 . S
C1453 N1455 1.279 . S
C1453 C1456 1.358 . S
C1453 H1459 0.930 . S
C1454 C1452 1.353 . S
C1454 C1457 1.348 . S
C1454 H1492 0.929 . S
N1455 Li1410 1.990 . S
N1455 C1452 1.314 . S
N1455 C1453 1.279 . S
C1456 C1453 1.358 . S
C1456 C1457 1.356 . S
C1456 H1493 0.930 . S
C1457 C1454 1.348 . S
C1457 C1456 1.356 . S
H1458 C1452 0.930 . S
H1459 C1453 0.930 . S
C1460 N1461 1.314 . S
C1460 C1462 1.353 . S
C1460 H1466 0.930 . S
N1461 Li1411 1.990 . S
N1461 C1460 1.314 . S
N1461 C1464 1.279 . S
C1462 C1460 1.353 . S
C1462 C1465 1.348 . S
C1462 H1494 0.929 . S
C1463 C1464 1.358 . S
C1463 C1465 1.356 . S
C1463 H1495 0.930 . S
C1464 N1461 1.279 . S
C1464 C1463 1.358 . S
C1464 H1467 0.930 . S
C1465 C1462 1.348 . S
C1465 C1463 1.356 . S
H1466 C1460 0.930 . S
H1467 C1464 0.930 . S
O1468 Li1408 1.956 . S
O1468 Li1409 1.970 . S
O1468 Li1410 1.961 . S
O1468 C1412 1.325 . S
O1469 Li1408 1.970 . S
O1469 Li1409 1.956 . S
O1469 Li1411 1.961 . S
O1469 C1418 1.325 . S
O1470 Li1408 1.961 . S
O1470 Li1410 1.956 . S
O1470 Li1411 1.970 . S
O1470 C1440 1.325 . S
O1471 Li1409 1.961 . S
O1471 Li1410 1.970 . S
O1471 Li1411 1.956 . S
O1471 C1446 1.325 . S
H1472 C1414 0.929 . S
H1473 C1415 0.930 . S
H1474 C1416 0.930 . S
H1475 C1417 0.930 . S
H1476 C1419 0.930 . S
H1477 C1421 0.929 . S
H1478 C1422 0.930 . S
H1479 C1423 0.930 . S
H1480 C1426 0.930 . S
H1481 C1429 0.929 . S
H1482 C1434 0.929 . S
H1483 C1435 0.930 . S
H1484 C1442 0.929 . S
H1485 C1443 0.930 . S
H1486 C1444 0.930 . S
H1487 C1445 0.930 . S
H1488 C1447 0.929 . S
H1489 C1448 0.930 . S
H1490 C1449 0.930 . S
H1491 C1450 0.930 . S
H1492 C1454 0.929 . S
H1493 C1456 0.930 . S
H1494 C1462 0.929 . S
H1495 C1463 0.930 . S
Li1496 N1513 1.990 . S
Li1496 O1556 1.956 . S
Li1496 O1557 1.970 . S
Li1496 O1558 1.961 . S
Li1497 N1521 1.990 . S
Li1497 O1556 1.970 . S
Li1497 O1557 1.956 . S
Li1497 O1559 1.961 . S
Li1498 N1543 1.990 . S
Li1498 O1556 1.961 . S
Li1498 O1558 1.956 . S
Li1498 O1559 1.970 . S
Li1499 N1549 1.990 . S
Li1499 O1557 1.961 . S
Li1499 O1558 1.970 . S
Li1499 O1559 1.956 . S
C1500 C1502 1.348 . S
C1500 C1503 1.356 . S
C1500 O1556 1.325 . S
N1501 C1504 1.314 . S
N1501 C1505 1.279 . S
C1502 C1500 1.348 . S
C1502 C1504 1.353 . S
C1502 H1560 0.929 . S
C1503 C1500 1.356 . S
C1503 C1505 1.358 . S
C1503 H1561 0.930 . S
C1504 N1501 1.314 . S
C1504 C1502 1.353 . S
C1504 H1562 0.930 . S
C1505 N1501 1.279 . S
C1505 C1503 1.358 . S
C1505 H1563 0.930 . S
C1506 C1509 1.348 . S
C1506 C1510 1.356 . S
C1506 O1557 1.325 . S
C1507 N1508 1.279 . S
C1507 C1510 1.358 . S
C1507 H1564 0.930 . S
N1508 C1507 1.279 . S
N1508 C1511 1.314 . S
C1509 C1506 1.348 . S
C1509 C1511 1.353 . S
C1509 H1565 0.929 . S
C1510 C1506 1.356 . S
C1510 C1507 1.358 . S
C1510 H1566 0.930 . S
C1511 N1508 1.314 . S
C1511 C1509 1.353 . S
C1511 H1567 0.930 . S
C1512 N1513 1.314 . S
C1512 C1517 1.353 . S
C1512 H1518 0.930 . S
N1513 Li1496 1.990 . S
N1513 C1512 1.314 . S
N1513 C1515 1.279 . S
C1514 C1515 1.358 . S
C1514 C1516 1.356 . S
C1514 H1568 0.930 . S
C1515 N1513 1.279 . S
C1515 C1514 1.358 . S
C1515 H1519 0.930 . S
C1516 C1514 1.356 . S
C1516 C1517 1.348 . S
C1517 C1512 1.353 . S
C1517 C1516 1.348 . S
C1517 H1569 0.929 . S
H1518 C1512 0.930 . S
H1519 C1515 0.930 . S
C1520 N1521 1.314 . S
C1520 C1522 1.353 . S
C1520 H1526 0.930 . S
N1521 Li1497 1.990 . S
N1521 C1520 1.314 . S
N1521 C1524 1.279 . S
C1522 C1520 1.353 . S
C1522 C1525 1.348 . S
C1522 H1570 0.929 . S
C1523 C1524 1.358 . S
C1523 C1525 1.356 . S
C1523 H1571 0.930 . S
C1524 N1521 1.279 . S
C1524 C1523 1.358 . S
C1524 H1527 0.930 . S
C1525 C1522 1.348 . S
C1525 C1523 1.356 . S
H1526 C1520 0.930 . S
H1527 C1524 0.930 . S
C1528 C1530 1.348 . S
C1528 C1531 1.356 . S
C1528 O1558 1.325 . S
N1529 C1532 1.314 . S
N1529 C1533 1.279 . S
C1530 C1528 1.348 . S
C1530 C1532 1.353 . S
C1530 H1572 0.929 . S
C1531 C1528 1.356 . S
C1531 C1533 1.358 . S
C1531 H1573 0.930 . S
C1532 N1529 1.314 . S
C1532 C1530 1.353 . S
C1532 H1574 0.930 . S
C1533 N1529 1.279 . S
C1533 C1531 1.358 . S
C1533 H1575 0.930 . S
C1534 C1535 1.348 . S
C1534 C1536 1.356 . S
C1534 O1559 1.325 . S
C1535 C1534 1.348 . S
C1535 C1537 1.353 . S
C1535 H1576 0.929 . S
C1536 C1534 1.356 . S
C1536 C1538 1.358 . S
C1536 H1577 0.930 . S
C1537 C1535 1.353 . S
C1537 N1539 1.314 . S
C1537 H1578 0.930 . S
C1538 C1536 1.358 . S
C1538 N1539 1.279 . S
C1538 H1579 0.930 . S
N1539 C1537 1.314 . S
N1539 C1538 1.279 . S
C1540 C1542 1.353 . S
C1540 N1543 1.314 . S
C1540 H1546 0.930 . S
C1541 N1543 1.279 . S
C1541 C1544 1.358 . S
C1541 H1547 0.930 . S
C1542 C1540 1.353 . S
C1542 C1545 1.348 . S
C1542 H1580 0.929 . S
N1543 Li1498 1.990 . S
N1543 C1540 1.314 . S
N1543 C1541 1.279 . S
C1544 C1541 1.358 . S
C1544 C1545 1.356 . S
C1544 H1581 0.930 . S
C1545 C1542 1.348 . S
C1545 C1544 1.356 . S
H1546 C1540 0.930 . S
H1547 C1541 0.930 . S
C1548 N1549 1.314 . S
C1548 C1550 1.353 . S
C1548 H1554 0.930 . S
N1549 Li1499 1.990 . S
N1549 C1548 1.314 . S
N1549 C1552 1.279 . S
C1550 C1548 1.353 . S
C1550 C1553 1.348 . S
C1550 H1582 0.929 . S
C1551 C1552 1.358 . S
C1551 C1553 1.356 . S
C1551 H1583 0.930 . S
C1552 N1549 1.279 . S
C1552 C1551 1.358 . S
C1552 H1555 0.930 . S
C1553 C1550 1.348 . S
C1553 C1551 1.356 . S
H1554 C1548 0.930 . S
H1555 C1552 0.930 . S
O1556 Li1496 1.956 . S
O1556 Li1497 1.970 . S
O1556 Li1498 1.961 . S
O1556 C1500 1.325 . S
O1557 Li1496 1.970 . S
O1557 Li1497 1.956 . S
O1557 Li1499 1.961 . S
O1557 C1506 1.325 . S
O1558 Li1496 1.961 . S
O1558 Li1498 1.956 . S
O1558 Li1499 1.970 . S
O1558 C1528 1.325 . S
O1559 Li1497 1.961 . S
O1559 Li1498 1.970 . S
O1559 Li1499 1.956 . S
O1559 C1534 1.325 . S
H1560 C1502 0.929 . S
H1561 C1503 0.930 . S
H1562 C1504 0.930 . S
H1563 C1505 0.930 . S
H1564 C1507 0.930 . S
H1565 C1509 0.929 . S
H1566 C1510 0.930 . S
H1567 C1511 0.930 . S
H1568 C1514 0.930 . S
H1569 C1517 0.929 . S
H1570 C1522 0.929 . S
H1571 C1523 0.930 . S
H1572 C1530 0.929 . S
H1573 C1531 0.930 . S
H1574 C1532 0.930 . S
H1575 C1533 0.930 . S
H1576 C1535 0.929 . S
H1577 C1536 0.930 . S
H1578 C1537 0.930 . S
H1579 C1538 0.930 . S
H1580 C1542 0.929 . S
H1581 C1544 0.930 . S
H1582 C1550 0.929 . S
H1583 C1551 0.930 . S
Li1584 N1601 1.990 . S
Li1584 O1644 1.956 . S
Li1584 O1645 1.970 . S
Li1584 O1646 1.961 . S
Li1585 N1609 1.990 . S
Li1585 O1644 1.970 . S
Li1585 O1645 1.956 . S
Li1585 O1647 1.961 . S
Li1586 N1631 1.990 . S
Li1586 O1644 1.961 . S
Li1586 O1646 1.956 . S
Li1586 O1647 1.970 . S
Li1587 N1637 1.990 . S
Li1587 O1645 1.961 . S
Li1587 O1646 1.970 . S
Li1587 O1647 1.956 . S
C1588 C1590 1.348 . S
C1588 C1591 1.356 . S
C1588 O1644 1.325 . S
N1589 C1592 1.314 . S
N1589 C1593 1.279 . S
C1590 C1588 1.348 . S
C1590 C1592 1.353 . S
C1590 H1648 0.929 . S
C1591 C1588 1.356 . S
C1591 C1593 1.358 . S
C1591 H1649 0.930 . S
C1592 N1589 1.314 . S
C1592 C1590 1.353 . S
C1592 H1650 0.930 . S
C1593 N1589 1.279 . S
C1593 C1591 1.358 . S
C1593 H1651 0.930 . S
C1594 C1597 1.348 . S
C1594 C1598 1.356 . S
C1594 O1645 1.325 . S
C1595 N1596 1.279 . S
C1595 C1598 1.358 . S
C1595 H1652 0.930 . S
N1596 C1595 1.279 . S
N1596 C1599 1.314 . S
C1597 C1594 1.348 . S
C1597 C1599 1.353 . S
C1597 H1653 0.929 . S
C1598 C1594 1.356 . S
C1598 C1595 1.358 . S
C1598 H1654 0.930 . S
C1599 N1596 1.314 . S
C1599 C1597 1.353 . S
C1599 H1655 0.930 . S
C1600 N1601 1.314 . S
C1600 C1605 1.353 . S
C1600 H1606 0.930 . S
N1601 Li1584 1.990 . S
N1601 C1600 1.314 . S
N1601 C1603 1.279 . S
C1602 C1603 1.358 . S
C1602 C1604 1.356 . S
C1602 H1656 0.930 . S
C1603 N1601 1.279 . S
C1603 C1602 1.358 . S
C1603 H1607 0.930 . S
C1604 C1602 1.356 . S
C1604 C1605 1.348 . S
C1605 C1600 1.353 . S
C1605 C1604 1.348 . S
C1605 H1657 0.929 . S
H1606 C1600 0.930 . S
H1607 C1603 0.930 . S
C1608 N1609 1.314 . S
C1608 C1610 1.353 . S
C1608 H1614 0.930 . S
N1609 Li1585 1.990 . S
N1609 C1608 1.314 . S
N1609 C1612 1.279 . S
C1610 C1608 1.353 . S
C1610 C1613 1.348 . S
C1610 H1658 0.929 . S
C1611 C1612 1.358 . S
C1611 C1613 1.356 . S
C1611 H1659 0.930 . S
C1612 N1609 1.279 . S
C1612 C1611 1.358 . S
C1612 H1615 0.930 . S
C1613 C1610 1.348 . S
C1613 C1611 1.356 . S
H1614 C1608 0.930 . S
H1615 C1612 0.930 . S
C1616 C1618 1.348 . S
C1616 C1619 1.356 . S
C1616 O1646 1.325 . S
N1617 C1620 1.314 . S
N1617 C1621 1.279 . S
C1618 C1616 1.348 . S
C1618 C1620 1.353 . S
C1618 H1660 0.929 . S
C1619 C1616 1.356 . S
C1619 C1621 1.358 . S
C1619 H1661 0.930 . S
C1620 N1617 1.314 . S
C1620 C1618 1.353 . S
C1620 H1662 0.930 . S
C1621 N1617 1.279 . S
C1621 C1619 1.358 . S
C1621 H1663 0.930 . S
C1622 C1623 1.348 . S
C1622 C1624 1.356 . S
C1622 O1647 1.325 . S
C1623 C1622 1.348 . S
C1623 C1625 1.353 . S
C1623 H1664 0.929 . S
C1624 C1622 1.356 . S
C1624 C1626 1.358 . S
C1624 H1665 0.930 . S
C1625 C1623 1.353 . S
C1625 N1627 1.314 . S
C1625 H1666 0.930 . S
C1626 C1624 1.358 . S
C1626 N1627 1.279 . S
C1626 H1667 0.930 . S
N1627 C1625 1.314 . S
N1627 C1626 1.279 . S
C1628 C1630 1.353 . S
C1628 N1631 1.314 . S
C1628 H1634 0.930 . S
C1629 N1631 1.279 . S
C1629 C1632 1.358 . S
C1629 H1635 0.930 . S
C1630 C1628 1.353 . S
C1630 C1633 1.348 . S
C1630 H1668 0.929 . S
N1631 Li1586 1.990 . S
N1631 C1628 1.314 . S
N1631 C1629 1.279 . S
C1632 C1629 1.358 . S
C1632 C1633 1.356 . S
C1632 H1669 0.930 . S
C1633 C1630 1.348 . S
C1633 C1632 1.356 . S
H1634 C1628 0.930 . S
H1635 C1629 0.930 . S
C1636 N1637 1.314 . S
C1636 C1638 1.353 . S
C1636 H1642 0.930 . S
N1637 Li1587 1.990 . S
N1637 C1636 1.314 . S
N1637 C1640 1.279 . S
C1638 C1636 1.353 . S
C1638 C1641 1.348 . S
C1638 H1670 0.929 . S
C1639 C1640 1.358 . S
C1639 C1641 1.356 . S
C1639 H1671 0.930 . S
C1640 N1637 1.279 . S
C1640 C1639 1.358 . S
C1640 H1643 0.930 . S
C1641 C1638 1.348 . S
C1641 C1639 1.356 . S
H1642 C1636 0.930 . S
H1643 C1640 0.930 . S
O1644 Li1584 1.956 . S
O1644 Li1585 1.970 . S
O1644 Li1586 1.961 . S
O1644 C1588 1.325 . S
O1645 Li1584 1.970 . S
O1645 Li1585 1.956 . S
O1645 Li1587 1.961 . S
O1645 C1594 1.325 . S
O1646 Li1584 1.961 . S
O1646 Li1586 1.956 . S
O1646 Li1587 1.970 . S
O1646 C1616 1.325 . S
O1647 Li1585 1.961 . S
O1647 Li1586 1.970 . S
O1647 Li1587 1.956 . S
O1647 C1622 1.325 . S
H1648 C1590 0.929 . S
H1649 C1591 0.930 . S
H1650 C1592 0.930 . S
H1651 C1593 0.930 . S
H1652 C1595 0.930 . S
H1653 C1597 0.929 . S
H1654 C1598 0.930 . S
H1655 C1599 0.930 . S
H1656 C1602 0.930 . S
H1657 C1605 0.929 . S
H1658 C1610 0.929 . S
H1659 C1611 0.930 . S
H1660 C1618 0.929 . S
H1661 C1619 0.930 . S
H1662 C1620 0.930 . S
H1663 C1621 0.930 . S
H1664 C1623 0.929 . S
H1665 C1624 0.930 . S
H1666 C1625 0.930 . S
H1667 C1626 0.930 . S
H1668 C1630 0.929 . S
H1669 C1632 0.930 . S
H1670 C1638 0.929 . S
H1671 C1639 0.930 . S
Li1672 N1689 1.990 . S
Li1672 O1732 1.956 . S
Li1672 O1733 1.970 . S
Li1672 O1734 1.961 . S
Li1673 N1697 1.990 . S
Li1673 O1732 1.970 . S
Li1673 O1733 1.956 . S
Li1673 O1735 1.961 . S
Li1674 N1719 1.990 . S
Li1674 O1732 1.961 . S
Li1674 O1734 1.956 . S
Li1674 O1735 1.970 . S
Li1675 N1725 1.990 . S
Li1675 O1733 1.961 . S
Li1675 O1734 1.970 . S
Li1675 O1735 1.956 . S
C1676 C1678 1.348 . S
C1676 C1679 1.356 . S
C1676 O1732 1.325 . S
N1677 C1680 1.314 . S
N1677 C1681 1.279 . S
C1678 C1676 1.348 . S
C1678 C1680 1.353 . S
C1678 H1736 0.929 . S
C1679 C1676 1.356 . S
C1679 C1681 1.358 . S
C1679 H1737 0.930 . S
C1680 N1677 1.314 . S
C1680 C1678 1.353 . S
C1680 H1738 0.930 . S
C1681 N1677 1.279 . S
C1681 C1679 1.358 . S
C1681 H1739 0.930 . S
C1682 C1685 1.348 . S
C1682 C1686 1.356 . S
C1682 O1733 1.325 . S
C1683 N1684 1.279 . S
C1683 C1686 1.358 . S
C1683 H1740 0.930 . S
N1684 C1683 1.279 . S
N1684 C1687 1.314 . S
C1685 C1682 1.348 . S
C1685 C1687 1.353 . S
C1685 H1741 0.929 . S
C1686 C1682 1.356 . S
C1686 C1683 1.358 . S
C1686 H1742 0.930 . S
C1687 N1684 1.314 . S
C1687 C1685 1.353 . S
C1687 H1743 0.930 . S
C1688 N1689 1.314 . S
C1688 C1693 1.353 . S
C1688 H1694 0.930 . S
N1689 Li1672 1.990 . S
N1689 C1688 1.314 . S
N1689 C1691 1.279 . S
C1690 C1691 1.358 . S
C1690 C1692 1.356 . S
C1690 H1744 0.930 . S
C1691 N1689 1.279 . S
C1691 C1690 1.358 . S
C1691 H1695 0.930 . S
C1692 C1690 1.356 . S
C1692 C1693 1.348 . S
C1693 C1688 1.353 . S
C1693 C1692 1.348 . S
C1693 H1745 0.929 . S
H1694 C1688 0.930 . S
H1695 C1691 0.930 . S
C1696 N1697 1.314 . S
C1696 C1698 1.353 . S
C1696 H1702 0.930 . S
N1697 Li1673 1.990 . S
N1697 C1696 1.314 . S
N1697 C1700 1.279 . S
C1698 C1696 1.353 . S
C1698 C1701 1.348 . S
C1698 H1746 0.929 . S
C1699 C1700 1.358 . S
C1699 C1701 1.356 . S
C1699 H1747 0.930 . S
C1700 N1697 1.279 . S
C1700 C1699 1.358 . S
C1700 H1703 0.930 . S
C1701 C1698 1.348 . S
C1701 C1699 1.356 . S
H1702 C1696 0.930 . S
H1703 C1700 0.930 . S
C1704 C1706 1.348 . S
C1704 C1707 1.356 . S
C1704 O1734 1.325 . S
N1705 C1708 1.314 . S
N1705 C1709 1.279 . S
C1706 C1704 1.348 . S
C1706 C1708 1.353 . S
C1706 H1748 0.929 . S
C1707 C1704 1.356 . S
C1707 C1709 1.358 . S
C1707 H1749 0.930 . S
C1708 N1705 1.314 . S
C1708 C1706 1.353 . S
C1708 H1750 0.930 . S
C1709 N1705 1.279 . S
C1709 C1707 1.358 . S
C1709 H1751 0.930 . S
C1710 C1711 1.348 . S
C1710 C1712 1.356 . S
C1710 O1735 1.325 . S
C1711 C1710 1.348 . S
C1711 C1713 1.353 . S
C1711 H1752 0.929 . S
C1712 C1710 1.356 . S
C1712 C1714 1.358 . S
C1712 H1753 0.930 . S
C1713 C1711 1.353 . S
C1713 N1715 1.314 . S
C1713 H1754 0.930 . S
C1714 C1712 1.358 . S
C1714 N1715 1.279 . S
C1714 H1755 0.930 . S
N1715 C1713 1.314 . S
N1715 C1714 1.279 . S
C1716 C1718 1.353 . S
C1716 N1719 1.314 . S
C1716 H1722 0.930 . S
C1717 N1719 1.279 . S
C1717 C1720 1.358 . S
C1717 H1723 0.930 . S
C1718 C1716 1.353 . S
C1718 C1721 1.348 . S
C1718 H1756 0.929 . S
N1719 Li1674 1.990 . S
N1719 C1716 1.314 . S
N1719 C1717 1.279 . S
C1720 C1717 1.358 . S
C1720 C1721 1.356 . S
C1720 H1757 0.930 . S
C1721 C1718 1.348 . S
C1721 C1720 1.356 . S
H1722 C1716 0.930 . S
H1723 C1717 0.930 . S
C1724 N1725 1.314 . S
C1724 C1726 1.353 . S
C1724 H1730 0.930 . S
N1725 Li1675 1.990 . S
N1725 C1724 1.314 . S
N1725 C1728 1.279 . S
C1726 C1724 1.353 . S
C1726 C1729 1.348 . S
C1726 H1758 0.929 . S
C1727 C1728 1.358 . S
C1727 C1729 1.356 . S
C1727 H1759 0.930 . S
C1728 N1725 1.279 . S
C1728 C1727 1.358 . S
C1728 H1731 0.930 . S
C1729 C1726 1.348 . S
C1729 C1727 1.356 . S
H1730 C1724 0.930 . S
H1731 C1728 0.930 . S
O1732 Li1672 1.956 . S
O1732 Li1673 1.970 . S
O1732 Li1674 1.961 . S
O1732 C1676 1.325 . S
O1733 Li1672 1.970 . S
O1733 Li1673 1.956 . S
O1733 Li1675 1.961 . S
O1733 C1682 1.325 . S
O1734 Li1672 1.961 . S
O1734 Li1674 1.956 . S
O1734 Li1675 1.970 . S
O1734 C1704 1.325 . S
O1735 Li1673 1.961 . S
O1735 Li1674 1.970 . S
O1735 Li1675 1.956 . S
O1735 C1710 1.325 . S
H1736 C1678 0.929 . S
H1737 C1679 0.930 . S
H1738 C1680 0.930 . S
H1739 C1681 0.930 . S
H1740 C1683 0.930 . S
H1741 C1685 0.929 . S
H1742 C1686 0.930 . S
H1743 C1687 0.930 . S
H1744 C1690 0.930 . S
H1745 C1693 0.929 . S
H1746 C1698 0.929 . S
H1747 C1699 0.930 . S
H1748 C1706 0.929 . S
H1749 C1707 0.930 . S
H1750 C1708 0.930 . S
H1751 C1709 0.930 . S
H1752 C1711 0.929 . S
H1753 C1712 0.930 . S
H1754 C1713 0.930 . S
H1755 C1714 0.930 . S
H1756 C1718 0.929 . S
H1757 C1720 0.930 . S
H1758 C1726 0.929 . S
H1759 C1727 0.930 . S
Li1760 N1777 1.990 . S
Li1760 O1820 1.956 . S
Li1760 O1821 1.970 . S
Li1760 O1822 1.961 . S
Li1761 N1785 1.990 . S
Li1761 O1820 1.970 . S
Li1761 O1821 1.956 . S
Li1761 O1823 1.961 . S
Li1762 N1807 1.990 . S
Li1762 O1820 1.961 . S
Li1762 O1822 1.956 . S
Li1762 O1823 1.970 . S
Li1763 N1813 1.990 . S
Li1763 O1821 1.961 . S
Li1763 O1822 1.970 . S
Li1763 O1823 1.956 . S
C1764 C1766 1.348 . S
C1764 C1767 1.356 . S
C1764 O1820 1.325 . S
N1765 C1768 1.314 . S
N1765 C1769 1.279 . S
C1766 C1764 1.348 . S
C1766 C1768 1.353 . S
C1766 H1824 0.929 . S
C1767 C1764 1.356 . S
C1767 C1769 1.358 . S
C1767 H1825 0.930 . S
C1768 N1765 1.314 . S
C1768 C1766 1.353 . S
C1768 H1826 0.930 . S
C1769 N1765 1.279 . S
C1769 C1767 1.358 . S
C1769 H1827 0.930 . S
C1770 C1773 1.348 . S
C1770 C1774 1.356 . S
C1770 O1821 1.325 . S
C1771 N1772 1.279 . S
C1771 C1774 1.358 . S
C1771 H1828 0.930 . S
N1772 C1771 1.279 . S
N1772 C1775 1.314 . S
C1773 C1770 1.348 . S
C1773 C1775 1.353 . S
C1773 H1829 0.929 . S
C1774 C1770 1.356 . S
C1774 C1771 1.358 . S
C1774 H1830 0.930 . S
C1775 N1772 1.314 . S
C1775 C1773 1.353 . S
C1775 H1831 0.930 . S
C1776 N1777 1.314 . S
C1776 C1781 1.353 . S
C1776 H1782 0.930 . S
N1777 Li1760 1.990 . S
N1777 C1776 1.314 . S
N1777 C1779 1.279 . S
C1778 C1779 1.358 . S
C1778 C1780 1.356 . S
C1778 H1832 0.930 . S
C1779 N1777 1.279 . S
C1779 C1778 1.358 . S
C1779 H1783 0.930 . S
C1780 C1778 1.356 . S
C1780 C1781 1.348 . S
C1781 C1776 1.353 . S
C1781 C1780 1.348 . S
C1781 H1833 0.929 . S
H1782 C1776 0.930 . S
H1783 C1779 0.930 . S
C1784 N1785 1.314 . S
C1784 C1786 1.353 . S
C1784 H1790 0.930 . S
N1785 Li1761 1.990 . S
N1785 C1784 1.314 . S
N1785 C1788 1.279 . S
C1786 C1784 1.353 . S
C1786 C1789 1.348 . S
C1786 H1834 0.929 . S
C1787 C1788 1.358 . S
C1787 C1789 1.356 . S
C1787 H1835 0.930 . S
C1788 N1785 1.279 . S
C1788 C1787 1.358 . S
C1788 H1791 0.930 . S
C1789 C1786 1.348 . S
C1789 C1787 1.356 . S
H1790 C1784 0.930 . S
H1791 C1788 0.930 . S
C1792 C1794 1.348 . S
C1792 C1795 1.356 . S
C1792 O1822 1.325 . S
N1793 C1796 1.314 . S
N1793 C1797 1.279 . S
C1794 C1792 1.348 . S
C1794 C1796 1.353 . S
C1794 H1836 0.929 . S
C1795 C1792 1.356 . S
C1795 C1797 1.358 . S
C1795 H1837 0.930 . S
C1796 N1793 1.314 . S
C1796 C1794 1.353 . S
C1796 H1838 0.930 . S
C1797 N1793 1.279 . S
C1797 C1795 1.358 . S
C1797 H1839 0.930 . S
C1798 C1799 1.348 . S
C1798 C1800 1.356 . S
C1798 O1823 1.325 . S
C1799 C1798 1.348 . S
C1799 C1801 1.353 . S
C1799 H1840 0.929 . S
C1800 C1798 1.356 . S
C1800 C1802 1.358 . S
C1800 H1841 0.930 . S
C1801 C1799 1.353 . S
C1801 N1803 1.314 . S
C1801 H1842 0.930 . S
C1802 C1800 1.358 . S
C1802 N1803 1.279 . S
C1802 H1843 0.930 . S
N1803 C1801 1.314 . S
N1803 C1802 1.279 . S
C1804 C1806 1.353 . S
C1804 N1807 1.314 . S
C1804 H1810 0.930 . S
C1805 N1807 1.279 . S
C1805 C1808 1.358 . S
C1805 H1811 0.930 . S
C1806 C1804 1.353 . S
C1806 C1809 1.348 . S
C1806 H1844 0.929 . S
N1807 Li1762 1.990 . S
N1807 C1804 1.314 . S
N1807 C1805 1.279 . S
C1808 C1805 1.358 . S
C1808 C1809 1.356 . S
C1808 H1845 0.930 . S
C1809 C1806 1.348 . S
C1809 C1808 1.356 . S
H1810 C1804 0.930 . S
H1811 C1805 0.930 . S
C1812 N1813 1.314 . S
C1812 C1814 1.353 . S
C1812 H1818 0.930 . S
N1813 Li1763 1.990 . S
N1813 C1812 1.314 . S
N1813 C1816 1.279 . S
C1814 C1812 1.353 . S
C1814 C1817 1.348 . S
C1814 H1846 0.929 . S
C1815 C1816 1.358 . S
C1815 C1817 1.356 . S
C1815 H1847 0.930 . S
C1816 N1813 1.279 . S
C1816 C1815 1.358 . S
C1816 H1819 0.930 . S
C1817 C1814 1.348 . S
C1817 C1815 1.356 . S
H1818 C1812 0.930 . S
H1819 C1816 0.930 . S
O1820 Li1760 1.956 . S
O1820 Li1761 1.970 . S
O1820 Li1762 1.961 . S
O1820 C1764 1.325 . S
O1821 Li1760 1.970 . S
O1821 Li1761 1.956 . S
O1821 Li1763 1.961 . S
O1821 C1770 1.325 . S
O1822 Li1760 1.961 . S
O1822 Li1762 1.956 . S
O1822 Li1763 1.970 . S
O1822 C1792 1.325 . S
O1823 Li1761 1.961 . S
O1823 Li1762 1.970 . S
O1823 Li1763 1.956 . S
O1823 C1798 1.325 . S
H1824 C1766 0.929 . S
H1825 C1767 0.930 . S
H1826 C1768 0.930 . S
H1827 C1769 0.930 . S
H1828 C1771 0.930 . S
H1829 C1773 0.929 . S
H1830 C1774 0.930 . S
H1831 C1775 0.930 . S
H1832 C1778 0.930 . S
H1833 C1781 0.929 . S
H1834 C1786 0.929 . S
H1835 C1787 0.930 . S
H1836 C1794 0.929 . S
H1837 C1795 0.930 . S
H1838 C1796 0.930 . S
H1839 C1797 0.930 . S
H1840 C1799 0.929 . S
H1841 C1800 0.930 . S
H1842 C1801 0.930 . S
H1843 C1802 0.930 . S
H1844 C1806 0.929 . S
H1845 C1808 0.930 . S
H1846 C1814 0.929 . S
H1847 C1815 0.930 . S
Li1848 N1865 1.965 1_556 S
Li1848 O1908 1.956 . S
Li1848 O1909 1.970 . S
Li1848 O1910 1.961 . S
Li1849 N1873 1.990 . S
Li1849 O1908 1.970 . S
Li1849 O1909 1.956 . S
Li1849 O1911 1.961 . S
Li1850 N1895 1.990 . S
Li1850 O1908 1.961 . S
Li1850 O1910 1.956 . S
Li1850 O1911 1.970 . S
Li1851 N1901 1.990 . S
Li1851 O1909 1.961 . S
Li1851 O1910 1.970 . S
Li1851 O1911 1.956 . S
C1852 C1854 1.348 . S
C1852 C1855 1.356 . S
C1852 O1908 1.325 . S
N1853 C1856 1.314 . S
N1853 C1857 1.279 . S
C1854 C1852 1.348 . S
C1854 C1856 1.353 1_556 S
C1854 H1912 0.929 . S
C1855 C1852 1.356 . S
C1855 C1857 1.358 1_556 S
C1855 H1913 0.930 . S
C1856 N1853 1.314 . S
C1856 C1854 1.353 1_554 S
C1856 H1914 0.930 . S
C1857 N1853 1.279 . S
C1857 C1855 1.358 1_554 S
C1857 H1915 0.930 . S
C1858 C1861 1.348 . S
C1858 C1862 1.356 . S
C1858 O1909 1.325 . S
C1859 N1860 1.279 . S
C1859 C1862 1.358 . S
C1859 H1916 0.930 . S
N1860 C1859 1.279 . S
N1860 C1863 1.314 . S
C1861 C1858 1.348 . S
C1861 C1863 1.353 . S
C1861 H1917 0.929 . S
C1862 C1858 1.356 . S
C1862 C1859 1.358 . S
C1862 H1918 0.930 . S
C1863 N1860 1.314 . S
C1863 C1861 1.353 . S
C1863 H1919 0.930 1_556 S
C1864 N1865 1.316 . S
C1864 C1869 1.353 . S
C1864 H1870 0.930 1_554 S
N1865 Li1848 1.965 1_554 S
N1865 C1864 1.316 . S
N1865 C1867 1.306 . S
C1866 C1867 1.358 . S
C1866 C1868 1.356 . S
C1866 H1920 0.930 . S
C1867 N1865 1.306 . S
C1867 C1866 1.358 . S
C1867 H1871 0.930 . S
C1868 C1866 1.356 . S
C1868 C1869 1.348 . S
C1869 C1864 1.353 . S
C1869 C1868 1.348 . S
C1869 H1921 0.929 . S
H1870 C1864 0.930 1_556 S
H1871 C1867 0.930 . S
C1872 N1873 1.314 . S
C1872 C1874 1.353 . S
C1872 H1878 0.930 . S
N1873 Li1849 1.990 . S
N1873 C1872 1.314 . S
N1873 C1876 1.279 . S
C1874 C1872 1.353 . S
C1874 C1877 1.348 . S
C1874 H1922 0.929 . S
C1875 C1876 1.358 . S
C1875 C1877 1.356 . S
C1875 H1923 0.930 . S
C1876 N1873 1.279 . S
C1876 C1875 1.358 . S
C1876 H1879 0.930 . S
C1877 C1874 1.348 . S
C1877 C1875 1.356 . S
H1878 C1872 0.930 . S
H1879 C1876 0.930 . S
C1880 C1882 1.348 . S
C1880 C1883 1.356 . S
C1880 O1910 1.325 . S
N1881 C1884 1.314 . S
N1881 C1885 1.279 . S
C1882 C1880 1.348 . S
C1882 C1884 1.353 . S
C1882 H1924 0.929 . S
C1883 C1880 1.356 . S
C1883 C1885 1.358 . S
C1883 H1925 0.930 . S
C1884 N1881 1.314 . S
C1884 C1882 1.353 . S
C1884 H1926 0.930 . S
C1885 N1881 1.279 . S
C1885 C1883 1.358 . S
C1885 H1927 0.930 . S
C1886 C1887 1.348 . S
C1886 C1888 1.356 . S
C1886 O1911 1.325 . S
C1887 C1886 1.348 . S
C1887 C1889 1.353 . S
C1887 H1928 0.929 . S
C1888 C1886 1.356 . S
C1888 C1890 1.358 . S
C1888 H1929 0.930 . S
C1889 C1887 1.353 . S
C1889 N1891 1.314 . S
C1889 H1930 0.930 . S
C1890 C1888 1.358 . S
C1890 N1891 1.279 . S
C1890 H1931 0.930 . S
N1891 C1889 1.314 . S
N1891 C1890 1.279 . S
C1892 C1894 1.353 . S
C1892 N1895 1.314 . S
C1892 H1898 0.930 . S
C1893 N1895 1.279 . S
C1893 C1896 1.358 . S
C1893 H1899 0.930 . S
C1894 C1892 1.353 . S
C1894 C1897 1.348 . S
C1894 H1932 0.929 . S
N1895 Li1850 1.990 . S
N1895 C1892 1.314 . S
N1895 C1893 1.279 . S
C1896 C1893 1.358 . S
C1896 C1897 1.356 . S
C1896 H1933 0.930 . S
C1897 C1894 1.348 . S
C1897 C1896 1.356 . S
H1898 C1892 0.930 . S
H1899 C1893 0.930 . S
C1900 N1901 1.314 . S
C1900 C1902 1.353 . S
C1900 H1906 0.930 . S
N1901 Li1851 1.990 . S
N1901 C1900 1.314 . S
N1901 C1904 1.279 . S
C1902 C1900 1.353 . S
C1902 C1905 1.348 . S
C1902 H1934 0.929 . S
C1903 C1904 1.358 . S
C1903 C1905 1.356 . S
C1903 H1935 0.930 . S
C1904 N1901 1.279 . S
C1904 C1903 1.358 . S
C1904 H1907 0.930 . S
C1905 C1902 1.348 . S
C1905 C1903 1.356 . S
H1906 C1900 0.930 . S
H1907 C1904 0.930 . S
O1908 Li1848 1.956 . S
O1908 Li1849 1.970 . S
O1908 Li1850 1.961 . S
O1908 C1852 1.325 . S
O1909 Li1848 1.970 . S
O1909 Li1849 1.956 . S
O1909 Li1851 1.961 . S
O1909 C1858 1.325 . S
O1910 Li1848 1.961 . S
O1910 Li1850 1.956 . S
O1910 Li1851 1.970 . S
O1910 C1880 1.325 . S
O1911 Li1849 1.961 . S
O1911 Li1850 1.970 . S
O1911 Li1851 1.956 . S
O1911 C1886 1.325 . S
H1912 C1854 0.929 . S
H1913 C1855 0.930 . S
H1914 C1856 0.930 . S
H1915 C1857 0.930 . S
H1916 C1859 0.930 . S
H1917 C1861 0.929 . S
H1918 C1862 0.930 . S
H1919 C1863 0.930 1_554 S
H1920 C1866 0.930 . S
H1921 C1869 0.929 . S
H1922 C1874 0.929 . S
H1923 C1875 0.930 . S
H1924 C1882 0.929 . S
H1925 C1883 0.930 . S
H1926 C1884 0.930 . S
H1927 C1885 0.930 . S
H1928 C1887 0.929 . S
H1929 C1888 0.930 . S
H1930 C1889 0.930 . S
H1931 C1890 0.930 . S
H1932 C1894 0.929 . S
H1933 C1896 0.930 . S
H1934 C1902 0.929 . S
H1935 C1903 0.930 . S
Li1936 N1953 1.965 1_556 S
Li1936 O1996 1.956 . S
Li1936 O1997 1.970 . S
Li1936 O1998 1.961 . S
Li1937 N1961 1.990 . S
Li1937 O1996 1.970 . S
Li1937 O1997 1.956 . S
Li1937 O1999 1.961 . S
Li1938 N1983 1.990 . S
Li1938 O1996 1.961 . S
Li1938 O1998 1.956 . S
Li1938 O1999 1.970 . S
Li1939 N1989 1.990 . S
Li1939 O1997 1.961 . S
Li1939 O1998 1.970 . S
Li1939 O1999 1.956 . S
C1940 C1942 1.348 . S
C1940 C1943 1.356 . S
C1940 O1996 1.325 . S
N1941 C1944 1.314 . S
N1941 C1945 1.279 . S
C1942 C1940 1.348 . S
C1942 C1944 1.353 1_556 S
C1942 H2000 0.929 . S
C1943 C1940 1.356 . S
C1943 C1945 1.358 1_556 S
C1943 H2001 0.930 . S
C1944 N1941 1.314 . S
C1944 C1942 1.353 1_554 S
C1944 H2002 0.930 . S
C1945 N1941 1.279 . S
C1945 C1943 1.358 1_554 S
C1945 H2003 0.930 . S
C1946 C1949 1.348 . S
C1946 C1950 1.356 . S
C1946 O1997 1.325 . S
C1947 N1948 1.279 . S
C1947 C1950 1.358 . S
C1947 H2004 0.930 . S
N1948 C1947 1.279 . S
N1948 C1951 1.314 . S
C1949 C1946 1.348 . S
C1949 C1951 1.353 . S
C1949 H2005 0.929 . S
C1950 C1946 1.356 . S
C1950 C1947 1.358 . S
C1950 H2006 0.930 . S
C1951 N1948 1.314 . S
C1951 C1949 1.353 . S
C1951 H2007 0.930 1_556 S
C1952 N1953 1.316 . S
C1952 C1957 1.353 . S
C1952 H1958 0.930 1_554 S
N1953 Li1936 1.965 1_554 S
N1953 C1952 1.316 . S
N1953 C1955 1.306 . S
C1954 C1955 1.358 . S
C1954 C1956 1.356 . S
C1954 H2008 0.930 . S
C1955 N1953 1.306 . S
C1955 C1954 1.358 . S
C1955 H1959 0.930 . S
C1956 C1954 1.356 . S
C1956 C1957 1.348 . S
C1957 C1952 1.353 . S
C1957 C1956 1.348 . S
C1957 H2009 0.929 . S
H1958 C1952 0.930 1_556 S
H1959 C1955 0.930 . S
C1960 N1961 1.314 . S
C1960 C1962 1.353 . S
C1960 H1966 0.930 . S
N1961 Li1937 1.990 . S
N1961 C1960 1.314 . S
N1961 C1964 1.279 . S
C1962 C1960 1.353 . S
C1962 C1965 1.348 . S
C1962 H2010 0.929 . S
C1963 C1964 1.358 . S
C1963 C1965 1.356 . S
C1963 H2011 0.930 . S
C1964 N1961 1.279 . S
C1964 C1963 1.358 . S
C1964 H1967 0.930 . S
C1965 C1962 1.348 . S
C1965 C1963 1.356 . S
H1966 C1960 0.930 . S
H1967 C1964 0.930 . S
C1968 C1970 1.348 . S
C1968 C1971 1.356 . S
C1968 O1998 1.325 . S
N1969 C1972 1.314 . S
N1969 C1973 1.279 . S
C1970 C1968 1.348 . S
C1970 C1972 1.353 . S
C1970 H2012 0.929 . S
C1971 C1968 1.356 . S
C1971 C1973 1.358 . S
C1971 H2013 0.930 . S
C1972 N1969 1.314 . S
C1972 C1970 1.353 . S
C1972 H2014 0.930 . S
C1973 N1969 1.279 . S
C1973 C1971 1.358 . S
C1973 H2015 0.930 . S
C1974 C1975 1.348 . S
C1974 C1976 1.356 . S
C1974 O1999 1.325 . S
C1975 C1974 1.348 . S
C1975 C1977 1.353 . S
C1975 H2016 0.929 . S
C1976 C1974 1.356 . S
C1976 C1978 1.358 . S
C1976 H2017 0.930 . S
C1977 C1975 1.353 . S
C1977 N1979 1.314 . S
C1977 H2018 0.930 . S
C1978 C1976 1.358 . S
C1978 N1979 1.279 . S
C1978 H2019 0.930 . S
N1979 C1977 1.314 . S
N1979 C1978 1.279 . S
C1980 C1982 1.353 . S
C1980 N1983 1.314 . S
C1980 H1986 0.930 . S
C1981 N1983 1.279 . S
C1981 C1984 1.358 . S
C1981 H1987 0.930 . S
C1982 C1980 1.353 . S
C1982 C1985 1.348 . S
C1982 H2020 0.929 . S
N1983 Li1938 1.990 . S
N1983 C1980 1.314 . S
N1983 C1981 1.279 . S
C1984 C1981 1.358 . S
C1984 C1985 1.356 . S
C1984 H2021 0.930 . S
C1985 C1982 1.348 . S
C1985 C1984 1.356 . S
H1986 C1980 0.930 . S
H1987 C1981 0.930 . S
C1988 N1989 1.314 . S
C1988 C1990 1.353 . S
C1988 H1994 0.930 . S
N1989 Li1939 1.990 . S
N1989 C1988 1.314 . S
N1989 C1992 1.279 . S
C1990 C1988 1.353 . S
C1990 C1993 1.348 . S
C1990 H2022 0.929 . S
C1991 C1992 1.358 . S
C1991 C1993 1.356 . S
C1991 H2023 0.930 . S
C1992 N1989 1.279 . S
C1992 C1991 1.358 . S
C1992 H1995 0.930 . S
C1993 C1990 1.348 . S
C1993 C1991 1.356 . S
H1994 C1988 0.930 . S
H1995 C1992 0.930 . S
O1996 Li1936 1.956 . S
O1996 Li1937 1.970 . S
O1996 Li1938 1.961 . S
O1996 C1940 1.325 . S
O1997 Li1936 1.970 . S
O1997 Li1937 1.956 . S
O1997 Li1939 1.961 . S
O1997 C1946 1.325 . S
O1998 Li1936 1.961 . S
O1998 Li1938 1.956 . S
O1998 Li1939 1.970 . S
O1998 C1968 1.325 . S
O1999 Li1937 1.961 . S
O1999 Li1938 1.970 . S
O1999 Li1939 1.956 . S
O1999 C1974 1.325 . S
H2000 C1942 0.929 . S
H2001 C1943 0.930 . S
H2002 C1944 0.930 . S
H2003 C1945 0.930 . S
H2004 C1947 0.930 . S
H2005 C1949 0.929 . S
H2006 C1950 0.930 . S
H2007 C1951 0.930 1_554 S
H2008 C1954 0.930 . S
H2009 C1957 0.929 . S
H2010 C1962 0.929 . S
H2011 C1963 0.930 . S
H2012 C1970 0.929 . S
H2013 C1971 0.930 . S
H2014 C1972 0.930 . S
H2015 C1973 0.930 . S
H2016 C1975 0.929 . S
H2017 C1976 0.930 . S
H2018 C1977 0.930 . S
H2019 C1978 0.930 . S
H2020 C1982 0.929 . S
H2021 C1984 0.930 . S
H2022 C1990 0.929 . S
H2023 C1991 0.930 . S
Li2024 N2041 1.965 1_556 S
Li2024 O2084 1.956 . S
Li2024 O2085 1.970 . S
Li2024 O2086 1.961 . S
Li2025 N2049 1.990 . S
Li2025 O2084 1.970 . S
Li2025 O2085 1.956 . S
Li2025 O2087 1.961 . S
Li2026 N2071 1.990 . S
Li2026 O2084 1.961 . S
Li2026 O2086 1.956 . S
Li2026 O2087 1.970 . S
Li2027 N2077 1.990 . S
Li2027 O2085 1.961 . S
Li2027 O2086 1.970 . S
Li2027 O2087 1.956 . S
C2028 C2030 1.348 . S
C2028 C2031 1.356 . S
C2028 O2084 1.325 . S
N2029 C2032 1.314 . S
N2029 C2033 1.279 . S
C2030 C2028 1.348 . S
C2030 C2032 1.353 1_556 S
C2030 H2088 0.929 . S
C2031 C2028 1.356 . S
C2031 C2033 1.358 1_556 S
C2031 H2089 0.930 . S
C2032 N2029 1.314 . S
C2032 C2030 1.353 1_554 S
C2032 H2090 0.930 . S
C2033 N2029 1.279 . S
C2033 C2031 1.358 1_554 S
C2033 H2091 0.930 . S
C2034 C2037 1.348 . S
C2034 C2038 1.356 . S
C2034 O2085 1.325 . S
C2035 N2036 1.279 . S
C2035 C2038 1.358 . S
C2035 H2092 0.930 . S
N2036 C2035 1.279 . S
N2036 C2039 1.314 . S
C2037 C2034 1.348 . S
C2037 C2039 1.353 . S
C2037 H2093 0.929 . S
C2038 C2034 1.356 . S
C2038 C2035 1.358 . S
C2038 H2094 0.930 . S
C2039 N2036 1.314 . S
C2039 C2037 1.353 . S
C2039 H2095 0.930 1_556 S
C2040 N2041 1.317 . S
C2040 C2045 1.353 . S
C2040 H2046 0.930 1_554 S
N2041 Li2024 1.965 1_554 S
N2041 C2040 1.317 . S
N2041 C2043 1.306 . S
C2042 C2043 1.358 . S
C2042 C2044 1.356 . S
C2042 H2096 0.930 . S
C2043 N2041 1.306 . S
C2043 C2042 1.358 . S
C2043 H2047 0.930 . S
C2044 C2042 1.356 . S
C2044 C2045 1.348 . S
C2045 C2040 1.353 . S
C2045 C2044 1.348 . S
C2045 H2097 0.929 . S
H2046 C2040 0.930 1_556 S
H2047 C2043 0.930 . S
C2048 N2049 1.314 . S
C2048 C2050 1.353 . S
C2048 H2054 0.930 . S
N2049 Li2025 1.990 . S
N2049 C2048 1.314 . S
N2049 C2052 1.279 . S
C2050 C2048 1.353 . S
C2050 C2053 1.348 . S
C2050 H2098 0.929 . S
C2051 C2052 1.358 . S
C2051 C2053 1.356 . S
C2051 H2099 0.930 . S
C2052 N2049 1.279 . S
C2052 C2051 1.358 . S
C2052 H2055 0.930 . S
C2053 C2050 1.348 . S
C2053 C2051 1.356 . S
H2054 C2048 0.930 . S
H2055 C2052 0.930 . S
C2056 C2058 1.348 . S
C2056 C2059 1.356 . S
C2056 O2086 1.325 . S
N2057 C2060 1.314 . S
N2057 C2061 1.279 . S
C2058 C2056 1.348 . S
C2058 C2060 1.353 . S
C2058 H2100 0.929 . S
C2059 C2056 1.356 . S
C2059 C2061 1.358 . S
C2059 H2101 0.930 . S
C2060 N2057 1.314 . S
C2060 C2058 1.353 . S
C2060 H2102 0.930 . S
C2061 N2057 1.279 . S
C2061 C2059 1.358 . S
C2061 H2103 0.930 . S
C2062 C2063 1.348 . S
C2062 C2064 1.356 . S
C2062 O2087 1.325 . S
C2063 C2062 1.348 . S
C2063 C2065 1.353 . S
C2063 H2104 0.929 . S
C2064 C2062 1.356 . S
C2064 C2066 1.358 . S
C2064 H2105 0.930 . S
C2065 C2063 1.353 . S
C2065 N2067 1.314 . S
C2065 H2106 0.930 . S
C2066 C2064 1.358 . S
C2066 N2067 1.279 . S
C2066 H2107 0.930 . S
N2067 C2065 1.314 . S
N2067 C2066 1.279 . S
C2068 C2070 1.353 . S
C2068 N2071 1.314 . S
C2068 H2074 0.930 . S
C2069 N2071 1.279 . S
C2069 C2072 1.358 . S
C2069 H2075 0.930 . S
C2070 C2068 1.353 . S
C2070 C2073 1.348 . S
C2070 H2108 0.929 . S
N2071 Li2026 1.990 . S
N2071 C2068 1.314 . S
N2071 C2069 1.279 . S
C2072 C2069 1.358 . S
C2072 C2073 1.356 . S
C2072 H2109 0.930 . S
C2073 C2070 1.348 . S
C2073 C2072 1.356 . S
H2074 C2068 0.930 . S
H2075 C2069 0.930 . S
C2076 N2077 1.314 . S
C2076 C2078 1.353 . S
C2076 H2082 0.930 . S
N2077 Li2027 1.990 . S
N2077 C2076 1.314 . S
N2077 C2080 1.279 . S
C2078 C2076 1.353 . S
C2078 C2081 1.348 . S
C2078 H2110 0.929 . S
C2079 C2080 1.358 . S
C2079 C2081 1.356 . S
C2079 H2111 0.930 . S
C2080 N2077 1.279 . S
C2080 C2079 1.358 . S
C2080 H2083 0.930 . S
C2081 C2078 1.348 . S
C2081 C2079 1.356 . S
H2082 C2076 0.930 . S
H2083 C2080 0.930 . S
O2084 Li2024 1.956 . S
O2084 Li2025 1.970 . S
O2084 Li2026 1.961 . S
O2084 C2028 1.325 . S
O2085 Li2024 1.970 . S
O2085 Li2025 1.956 . S
O2085 Li2027 1.961 . S
O2085 C2034 1.325 . S
O2086 Li2024 1.961 . S
O2086 Li2026 1.956 . S
O2086 Li2027 1.970 . S
O2086 C2056 1.325 . S
O2087 Li2025 1.961 . S
O2087 Li2026 1.970 . S
O2087 Li2027 1.956 . S
O2087 C2062 1.325 . S
H2088 C2030 0.929 . S
H2089 C2031 0.930 . S
H2090 C2032 0.930 . S
H2091 C2033 0.930 . S
H2092 C2035 0.930 . S
H2093 C2037 0.929 . S
H2094 C2038 0.930 . S
H2095 C2039 0.930 1_554 S
H2096 C2042 0.930 . S
H2097 C2045 0.929 . S
H2098 C2050 0.929 . S
H2099 C2051 0.930 . S
H2100 C2058 0.929 . S
H2101 C2059 0.930 . S
H2102 C2060 0.930 . S
H2103 C2061 0.930 . S
H2104 C2063 0.929 . S
H2105 C2064 0.930 . S
H2106 C2065 0.930 . S
H2107 C2066 0.930 . S
H2108 C2070 0.929 . S
H2109 C2072 0.930 . S
H2110 C2078 0.929 . S
H2111 C2079 0.930 . S
Li2112 N2129 1.990 . S
Li2112 O2172 1.956 . S
Li2112 O2173 1.970 . S
Li2112 O2174 1.961 . S
Li2113 N2137 1.990 . S
Li2113 O2172 1.970 . S
Li2113 O2173 1.956 . S
Li2113 O2175 1.961 . S
Li2114 N2159 1.990 . S
Li2114 O2172 1.961 . S
Li2114 O2174 1.956 . S
Li2114 O2175 1.970 . S
Li2115 N2165 1.990 . S
Li2115 O2173 1.961 . S
Li2115 O2174 1.970 . S
Li2115 O2175 1.956 . S
C2116 C2118 1.348 . S
C2116 C2119 1.356 . S
C2116 O2172 1.325 . S
N2117 C2120 1.314 . S
N2117 C2121 1.279 . S
C2118 C2116 1.348 . S
C2118 C2120 1.353 . S
C2118 H2176 0.929 . S
C2119 C2116 1.356 . S
C2119 C2121 1.358 . S
C2119 H2177 0.930 . S
C2120 N2117 1.314 . S
C2120 C2118 1.353 . S
C2120 H2178 0.930 . S
C2121 N2117 1.279 . S
C2121 C2119 1.358 . S
C2121 H2179 0.930 . S
C2122 C2125 1.348 . S
C2122 C2126 1.356 . S
C2122 O2173 1.325 . S
C2123 N2124 1.279 . S
C2123 C2126 1.358 . S
C2123 H2180 0.930 . S
N2124 C2123 1.279 . S
N2124 C2127 1.314 . S
C2125 C2122 1.348 . S
C2125 C2127 1.353 . S
C2125 H2181 0.929 . S
C2126 C2122 1.356 . S
C2126 C2123 1.358 . S
C2126 H2182 0.930 . S
C2127 N2124 1.314 . S
C2127 C2125 1.353 . S
C2127 H2183 0.930 . S
C2128 N2129 1.314 . S
C2128 C2133 1.353 . S
C2128 H2134 0.930 . S
N2129 Li2112 1.990 . S
N2129 C2128 1.314 . S
N2129 C2131 1.279 . S
C2130 C2131 1.358 . S
C2130 C2132 1.356 . S
C2130 H2184 0.930 . S
C2131 N2129 1.279 . S
C2131 C2130 1.358 . S
C2131 H2135 0.930 . S
C2132 C2130 1.356 . S
C2132 C2133 1.348 . S
C2133 C2128 1.353 . S
C2133 C2132 1.348 . S
C2133 H2185 0.929 . S
H2134 C2128 0.930 . S
H2135 C2131 0.930 . S
C2136 N2137 1.314 . S
C2136 C2138 1.353 . S
C2136 H2142 0.930 . S
N2137 Li2113 1.990 . S
N2137 C2136 1.314 . S
N2137 C2140 1.279 . S
C2138 C2136 1.353 . S
C2138 C2141 1.348 . S
C2138 H2186 0.929 . S
C2139 C2140 1.358 . S
C2139 C2141 1.356 . S
C2139 H2187 0.930 . S
C2140 N2137 1.279 . S
C2140 C2139 1.358 . S
C2140 H2143 0.930 . S
C2141 C2138 1.348 . S
C2141 C2139 1.356 . S
H2142 C2136 0.930 . S
H2143 C2140 0.930 . S
C2144 C2146 1.348 . S
C2144 C2147 1.356 . S
C2144 O2174 1.325 . S
N2145 C2148 1.314 . S
N2145 C2149 1.279 . S
C2146 C2144 1.348 . S
C2146 C2148 1.353 . S
C2146 H2188 0.929 . S
C2147 C2144 1.356 . S
C2147 C2149 1.358 . S
C2147 H2189 0.930 . S
C2148 N2145 1.314 . S
C2148 C2146 1.353 . S
C2148 H2190 0.930 . S
C2149 N2145 1.279 . S
C2149 C2147 1.358 . S
C2149 H2191 0.930 . S
C2150 C2151 1.348 . S
C2150 C2152 1.356 . S
C2150 O2175 1.325 . S
C2151 C2150 1.348 . S
C2151 C2153 1.353 . S
C2151 H2192 0.929 . S
C2152 C2150 1.356 . S
C2152 C2154 1.358 . S
C2152 H2193 0.930 . S
C2153 C2151 1.353 . S
C2153 N2155 1.314 . S
C2153 H2194 0.930 . S
C2154 C2152 1.358 . S
C2154 N2155 1.279 . S
C2154 H2195 0.930 . S
N2155 C2153 1.314 . S
N2155 C2154 1.279 . S
C2156 C2158 1.353 . S
C2156 N2159 1.314 . S
C2156 H2162 0.930 . S
C2157 N2159 1.279 . S
C2157 C2160 1.358 . S
C2157 H2163 0.930 . S
C2158 C2156 1.353 . S
C2158 C2161 1.348 . S
C2158 H2196 0.929 . S
N2159 Li2114 1.990 . S
N2159 C2156 1.314 . S
N2159 C2157 1.279 . S
C2160 C2157 1.358 . S
C2160 C2161 1.356 . S
C2160 H2197 0.930 . S
C2161 C2158 1.348 . S
C2161 C2160 1.356 . S
H2162 C2156 0.930 . S
H2163 C2157 0.930 . S
C2164 N2165 1.314 . S
C2164 C2166 1.353 . S
C2164 H2170 0.930 . S
N2165 Li2115 1.990 . S
N2165 C2164 1.314 . S
N2165 C2168 1.279 . S
C2166 C2164 1.353 . S
C2166 C2169 1.348 . S
C2166 H2198 0.929 . S
C2167 C2168 1.358 . S
C2167 C2169 1.356 . S
C2167 H2199 0.930 . S
C2168 N2165 1.279 . S
C2168 C2167 1.358 . S
C2168 H2171 0.930 . S
C2169 C2166 1.348 . S
C2169 C2167 1.356 . S
H2170 C2164 0.930 . S
H2171 C2168 0.930 . S
O2172 Li2112 1.956 . S
O2172 Li2113 1.970 . S
O2172 Li2114 1.961 . S
O2172 C2116 1.325 . S
O2173 Li2112 1.970 . S
O2173 Li2113 1.956 . S
O2173 Li2115 1.961 . S
O2173 C2122 1.325 . S
O2174 Li2112 1.961 . S
O2174 Li2114 1.956 . S
O2174 Li2115 1.970 . S
O2174 C2144 1.325 . S
O2175 Li2113 1.961 . S
O2175 Li2114 1.970 . S
O2175 Li2115 1.956 . S
O2175 C2150 1.325 . S
H2176 C2118 0.929 . S
H2177 C2119 0.930 . S
H2178 C2120 0.930 . S
H2179 C2121 0.930 . S
H2180 C2123 0.930 . S
H2181 C2125 0.929 . S
H2182 C2126 0.930 . S
H2183 C2127 0.930 . S
H2184 C2130 0.930 . S
H2185 C2133 0.929 . S
H2186 C2138 0.929 . S
H2187 C2139 0.930 . S
H2188 C2146 0.929 . S
H2189 C2147 0.930 . S
H2190 C2148 0.930 . S
H2191 C2149 0.930 . S
H2192 C2151 0.929 . S
H2193 C2152 0.930 . S
H2194 C2153 0.930 . S
H2195 C2154 0.930 . S
H2196 C2158 0.929 . S
H2197 C2160 0.930 . S
H2198 C2166 0.929 . S
H2199 C2167 0.930 . S
Li2200 N2217 1.990 . S
Li2200 O2260 1.956 . S
Li2200 O2261 1.970 . S
Li2200 O2262 1.961 . S
Li2201 N2225 1.990 . S
Li2201 O2260 1.970 . S
Li2201 O2261 1.956 . S
Li2201 O2263 1.961 . S
Li2202 N2247 1.990 . S
Li2202 O2260 1.961 . S
Li2202 O2262 1.956 . S
Li2202 O2263 1.970 . S
Li2203 N2253 1.990 . S
Li2203 O2261 1.961 . S
Li2203 O2262 1.970 . S
Li2203 O2263 1.956 . S
C2204 C2206 1.348 . S
C2204 C2207 1.356 . S
C2204 O2260 1.325 . S
N2205 C2208 1.314 . S
N2205 C2209 1.279 . S
C2206 C2204 1.348 . S
C2206 C2208 1.353 . S
C2206 H2264 0.929 . S
C2207 C2204 1.356 . S
C2207 C2209 1.358 . S
C2207 H2265 0.930 . S
C2208 N2205 1.314 . S
C2208 C2206 1.353 . S
C2208 H2266 0.930 . S
C2209 N2205 1.279 . S
C2209 C2207 1.358 . S
C2209 H2267 0.930 . S
C2210 C2213 1.348 . S
C2210 C2214 1.356 . S
C2210 O2261 1.325 . S
C2211 N2212 1.279 . S
C2211 C2214 1.358 . S
C2211 H2268 0.930 . S
N2212 C2211 1.279 . S
N2212 C2215 1.314 . S
C2213 C2210 1.348 . S
C2213 C2215 1.353 . S
C2213 H2269 0.929 . S
C2214 C2210 1.356 . S
C2214 C2211 1.358 . S
C2214 H2270 0.930 . S
C2215 N2212 1.314 . S
C2215 C2213 1.353 . S
C2215 H2271 0.930 . S
C2216 N2217 1.314 . S
C2216 C2221 1.353 . S
C2216 H2222 0.930 . S
N2217 Li2200 1.990 . S
N2217 C2216 1.314 . S
N2217 C2219 1.279 . S
C2218 C2219 1.358 . S
C2218 C2220 1.356 . S
C2218 H2272 0.930 . S
C2219 N2217 1.279 . S
C2219 C2218 1.358 . S
C2219 H2223 0.930 . S
C2220 C2218 1.356 . S
C2220 C2221 1.348 . S
C2221 C2216 1.353 . S
C2221 C2220 1.348 . S
C2221 H2273 0.929 . S
H2222 C2216 0.930 . S
H2223 C2219 0.930 . S
C2224 N2225 1.314 . S
C2224 C2226 1.353 . S
C2224 H2230 0.930 . S
N2225 Li2201 1.990 . S
N2225 C2224 1.314 . S
N2225 C2228 1.279 . S
C2226 C2224 1.353 . S
C2226 C2229 1.348 . S
C2226 H2274 0.929 . S
C2227 C2228 1.358 . S
C2227 C2229 1.356 . S
C2227 H2275 0.930 . S
C2228 N2225 1.279 . S
C2228 C2227 1.358 . S
C2228 H2231 0.930 . S
C2229 C2226 1.348 . S
C2229 C2227 1.356 . S
H2230 C2224 0.930 . S
H2231 C2228 0.930 . S
C2232 C2234 1.348 . S
C2232 C2235 1.356 . S
C2232 O2262 1.325 . S
N2233 C2236 1.314 . S
N2233 C2237 1.279 . S
C2234 C2232 1.348 . S
C2234 C2236 1.353 . S
C2234 H2276 0.929 . S
C2235 C2232 1.356 . S
C2235 C2237 1.358 . S
C2235 H2277 0.930 . S
C2236 N2233 1.314 . S
C2236 C2234 1.353 . S
C2236 H2278 0.930 . S
C2237 N2233 1.279 . S
C2237 C2235 1.358 . S
C2237 H2279 0.930 . S
C2238 C2239 1.348 . S
C2238 C2240 1.356 . S
C2238 O2263 1.325 . S
C2239 C2238 1.348 . S
C2239 C2241 1.353 . S
C2239 H2280 0.929 . S
C2240 C2238 1.356 . S
C2240 C2242 1.358 . S
C2240 H2281 0.930 . S
C2241 C2239 1.353 . S
C2241 N2243 1.314 . S
C2241 H2282 0.930 . S
C2242 C2240 1.358 . S
C2242 N2243 1.279 . S
C2242 H2283 0.930 . S
N2243 C2241 1.314 . S
N2243 C2242 1.279 . S
C2244 C2246 1.353 . S
C2244 N2247 1.314 . S
C2244 H2250 0.930 . S
C2245 N2247 1.279 . S
C2245 C2248 1.358 . S
C2245 H2251 0.930 . S
C2246 C2244 1.353 . S
C2246 C2249 1.348 . S
C2246 H2284 0.929 . S
N2247 Li2202 1.990 . S
N2247 C2244 1.314 . S
N2247 C2245 1.279 . S
C2248 C2245 1.358 . S
C2248 C2249 1.356 . S
C2248 H2285 0.930 . S
C2249 C2246 1.348 . S
C2249 C2248 1.356 . S
H2250 C2244 0.930 . S
H2251 C2245 0.930 . S
C2252 N2253 1.314 . S
C2252 C2254 1.353 . S
C2252 H2258 0.930 . S
N2253 Li2203 1.990 . S
N2253 C2252 1.314 . S
N2253 C2256 1.279 . S
C2254 C2252 1.353 . S
C2254 C2257 1.348 . S
C2254 H2286 0.929 . S
C2255 C2256 1.358 . S
C2255 C2257 1.356 . S
C2255 H2287 0.930 . S
C2256 N2253 1.279 . S
C2256 C2255 1.358 . S
C2256 H2259 0.930 . S
C2257 C2254 1.348 . S
C2257 C2255 1.356 . S
H2258 C2252 0.930 . S
H2259 C2256 0.930 . S
O2260 Li2200 1.956 . S
O2260 Li2201 1.970 . S
O2260 Li2202 1.961 . S
O2260 C2204 1.325 . S
O2261 Li2200 1.970 . S
O2261 Li2201 1.956 . S
O2261 Li2203 1.961 . S
O2261 C2210 1.325 . S
O2262 Li2200 1.961 . S
O2262 Li2202 1.956 . S
O2262 Li2203 1.970 . S
O2262 C2232 1.325 . S
O2263 Li2201 1.961 . S
O2263 Li2202 1.970 . S
O2263 Li2203 1.956 . S
O2263 C2238 1.325 . S
H2264 C2206 0.929 . S
H2265 C2207 0.930 . S
H2266 C2208 0.930 . S
H2267 C2209 0.930 . S
H2268 C2211 0.930 . S
H2269 C2213 0.929 . S
H2270 C2214 0.930 . S
H2271 C2215 0.930 . S
H2272 C2218 0.930 . S
H2273 C2221 0.929 . S
H2274 C2226 0.929 . S
H2275 C2227 0.930 . S
H2276 C2234 0.929 . S
H2277 C2235 0.930 . S
H2278 C2236 0.930 . S
H2279 C2237 0.930 . S
H2280 C2239 0.929 . S
H2281 C2240 0.930 . S
H2282 C2241 0.930 . S
H2283 C2242 0.930 . S
H2284 C2246 0.929 . S
H2285 C2248 0.930 . S
H2286 C2254 0.929 . S
H2287 C2255 0.930 . S
Li2288 N2305 1.990 . S
Li2288 O2348 1.956 . S
Li2288 O2349 1.970 . S
Li2288 O2350 1.961 . S
Li2289 N2313 1.990 . S
Li2289 O2348 1.970 . S
Li2289 O2349 1.956 . S
Li2289 O2351 1.961 . S
Li2290 N2335 1.990 . S
Li2290 O2348 1.961 . S
Li2290 O2350 1.956 . S
Li2290 O2351 1.970 . S
Li2291 N2341 1.990 . S
Li2291 O2349 1.961 . S
Li2291 O2350 1.970 . S
Li2291 O2351 1.956 . S
C2292 C2294 1.348 . S
C2292 C2295 1.356 . S
C2292 O2348 1.325 . S
N2293 C2296 1.314 . S
N2293 C2297 1.279 . S
C2294 C2292 1.348 . S
C2294 C2296 1.353 . S
C2294 H2352 0.929 . S
C2295 C2292 1.356 . S
C2295 C2297 1.358 . S
C2295 H2353 0.930 . S
C2296 N2293 1.314 . S
C2296 C2294 1.353 . S
C2296 H2354 0.930 . S
C2297 N2293 1.279 . S
C2297 C2295 1.358 . S
C2297 H2355 0.930 . S
C2298 C2301 1.348 . S
C2298 C2302 1.356 . S
C2298 O2349 1.325 . S
C2299 N2300 1.279 . S
C2299 C2302 1.358 . S
C2299 H2356 0.930 . S
N2300 C2299 1.279 . S
N2300 C2303 1.314 . S
C2301 C2298 1.348 . S
C2301 C2303 1.353 . S
C2301 H2357 0.929 . S
C2302 C2298 1.356 . S
C2302 C2299 1.358 . S
C2302 H2358 0.930 . S
C2303 N2300 1.314 . S
C2303 C2301 1.353 . S
C2303 H2359 0.930 . S
C2304 N2305 1.314 . S
C2304 C2309 1.353 . S
C2304 H2310 0.930 . S
N2305 Li2288 1.990 . S
N2305 C2304 1.314 . S
N2305 C2307 1.279 . S
C2306 C2307 1.358 . S
C2306 C2308 1.356 . S
C2306 H2360 0.930 . S
C2307 N2305 1.279 . S
C2307 C2306 1.358 . S
C2307 H2311 0.930 . S
C2308 C2306 1.356 . S
C2308 C2309 1.348 . S
C2309 C2304 1.353 . S
C2309 C2308 1.348 . S
C2309 H2361 0.929 . S
H2310 C2304 0.930 . S
H2311 C2307 0.930 . S
C2312 N2313 1.314 . S
C2312 C2314 1.353 . S
C2312 H2318 0.930 . S
N2313 Li2289 1.990 . S
N2313 C2312 1.314 . S
N2313 C2316 1.279 . S
C2314 C2312 1.353 . S
C2314 C2317 1.348 . S
C2314 H2362 0.929 . S
C2315 C2316 1.358 . S
C2315 C2317 1.356 . S
C2315 H2363 0.930 . S
C2316 N2313 1.279 . S
C2316 C2315 1.358 . S
C2316 H2319 0.930 . S
C2317 C2314 1.348 . S
C2317 C2315 1.356 . S
H2318 C2312 0.930 . S
H2319 C2316 0.930 . S
C2320 C2322 1.348 . S
C2320 C2323 1.356 . S
C2320 O2350 1.325 . S
N2321 C2324 1.314 . S
N2321 C2325 1.279 . S
C2322 C2320 1.348 . S
C2322 C2324 1.353 . S
C2322 H2364 0.929 . S
C2323 C2320 1.356 . S
C2323 C2325 1.358 . S
C2323 H2365 0.930 . S
C2324 N2321 1.314 . S
C2324 C2322 1.353 . S
C2324 H2366 0.930 . S
C2325 N2321 1.279 . S
C2325 C2323 1.358 . S
C2325 H2367 0.930 . S
C2326 C2327 1.348 . S
C2326 C2328 1.356 . S
C2326 O2351 1.325 . S
C2327 C2326 1.348 . S
C2327 C2329 1.353 . S
C2327 H2368 0.929 . S
C2328 C2326 1.356 . S
C2328 C2330 1.358 . S
C2328 H2369 0.930 . S
C2329 C2327 1.353 . S
C2329 N2331 1.314 . S
C2329 H2370 0.930 . S
C2330 C2328 1.358 . S
C2330 N2331 1.279 . S
C2330 H2371 0.930 . S
N2331 C2329 1.314 . S
N2331 C2330 1.279 . S
C2332 C2334 1.353 . S
C2332 N2335 1.314 . S
C2332 H2338 0.930 . S
C2333 N2335 1.279 . S
C2333 C2336 1.358 . S
C2333 H2339 0.930 . S
C2334 C2332 1.353 . S
C2334 C2337 1.348 . S
C2334 H2372 0.929 . S
N2335 Li2290 1.990 . S
N2335 C2332 1.314 . S
N2335 C2333 1.279 . S
C2336 C2333 1.358 . S
C2336 C2337 1.356 . S
C2336 H2373 0.930 . S
C2337 C2334 1.348 . S
C2337 C2336 1.356 . S
H2338 C2332 0.930 . S
H2339 C2333 0.930 . S
C2340 N2341 1.314 . S
C2340 C2342 1.353 . S
C2340 H2346 0.930 . S
N2341 Li2291 1.990 . S
N2341 C2340 1.314 . S
N2341 C2344 1.279 . S
C2342 C2340 1.353 . S
C2342 C2345 1.348 . S
C2342 H2374 0.929 . S
C2343 C2344 1.358 . S
C2343 C2345 1.356 . S
C2343 H2375 0.930 . S
C2344 N2341 1.279 . S
C2344 C2343 1.358 . S
C2344 H2347 0.930 . S
C2345 C2342 1.348 . S
C2345 C2343 1.356 . S
H2346 C2340 0.930 . S
H2347 C2344 0.930 . S
O2348 Li2288 1.956 . S
O2348 Li2289 1.970 . S
O2348 Li2290 1.961 . S
O2348 C2292 1.325 . S
O2349 Li2288 1.970 . S
O2349 Li2289 1.956 . S
O2349 Li2291 1.961 . S
O2349 C2298 1.325 . S
O2350 Li2288 1.961 . S
O2350 Li2290 1.956 . S
O2350 Li2291 1.970 . S
O2350 C2320 1.325 . S
O2351 Li2289 1.961 . S
O2351 Li2290 1.970 . S
O2351 Li2291 1.956 . S
O2351 C2326 1.325 . S
H2352 C2294 0.929 . S
H2353 C2295 0.930 . S
H2354 C2296 0.930 . S
H2355 C2297 0.930 . S
H2356 C2299 0.930 . S
H2357 C2301 0.929 . S
H2358 C2302 0.930 . S
H2359 C2303 0.930 . S
H2360 C2306 0.930 . S
H2361 C2309 0.929 . S
H2362 C2314 0.929 . S
H2363 C2315 0.930 . S
H2364 C2322 0.929 . S
H2365 C2323 0.930 . S
H2366 C2324 0.930 . S
H2367 C2325 0.930 . S
H2368 C2327 0.929 . S
H2369 C2328 0.930 . S
H2370 C2329 0.930 . S
H2371 C2330 0.930 . S
H2372 C2334 0.929 . S
H2373 C2336 0.930 . S
H2374 C2342 0.929 . S
H2375 C2343 0.930 . S
Li2376 N2393 1.990 . S
Li2376 O2436 1.956 . S
Li2376 O2437 1.970 . S
Li2376 O2438 1.961 . S
Li2377 N2401 1.990 . S
Li2377 O2436 1.970 . S
Li2377 O2437 1.956 . S
Li2377 O2439 1.961 . S
Li2378 N2423 2.018 . S
Li2378 O2436 1.961 . S
Li2378 O2438 1.956 . S
Li2378 O2439 1.970 . S
Li2379 N2429 1.990 . S
Li2379 O2437 1.961 . S
Li2379 O2438 1.970 . S
Li2379 O2439 1.956 . S
C2380 C2382 1.348 . S
C2380 C2383 1.356 . S
C2380 O2436 1.325 . S
N2381 C2384 1.314 . S
N2381 C2385 1.279 . S
C2382 C2380 1.348 . S
C2382 C2384 1.353 1_554 S
C2382 H2440 0.929 . S
C2383 C2380 1.356 . S
C2383 C2385 1.358 1_554 S
C2383 H2441 0.930 . S
C2384 N2381 1.314 . S
C2384 C2382 1.353 1_556 S
C2384 H2442 0.930 . S
C2385 N2381 1.279 . S
C2385 C2383 1.358 1_556 S
C2385 H2443 0.930 . S
C2386 C2389 1.348 . S
C2386 C2390 1.356 . S
C2386 O2437 1.325 . S
C2387 N2388 1.279 . S
C2387 C2390 1.358 . S
C2387 H2444 0.930 . S
N2388 C2387 1.279 . S
N2388 C2391 1.314 . S
C2389 C2386 1.348 . S
C2389 C2391 1.353 . S
C2389 H2445 0.929 . S
C2390 C2386 1.356 . S
C2390 C2387 1.358 . S
C2390 H2446 0.930 . S
C2391 N2388 1.314 . S
C2391 C2389 1.353 . S
C2391 H2447 0.930 . S
C2392 N2393 1.314 . S
C2392 C2397 1.353 . S
C2392 H2398 0.930 . S
N2393 Li2376 1.990 . S
N2393 C2392 1.314 . S
N2393 C2395 1.279 . S
C2394 C2395 1.358 . S
C2394 C2396 1.356 . S
C2394 H2448 0.930 . S
C2395 N2393 1.279 . S
C2395 C2394 1.358 . S
C2395 H2399 0.930 . S
C2396 C2394 1.356 . S
C2396 C2397 1.348 . S
C2397 C2392 1.353 . S
C2397 C2396 1.348 . S
C2397 H2449 0.929 . S
H2398 C2392 0.930 . S
H2399 C2395 0.930 . S
C2400 N2401 1.314 . S
C2400 C2402 1.353 . S
C2400 H2406 0.930 . S
N2401 Li2377 1.990 . S
N2401 C2400 1.314 . S
N2401 C2404 1.279 . S
C2402 C2400 1.353 . S
C2402 C2405 1.348 . S
C2402 H2450 0.929 . S
C2403 C2404 1.358 . S
C2403 C2405 1.356 . S
C2403 H2451 0.930 . S
C2404 N2401 1.279 . S
C2404 C2403 1.358 . S
C2404 H2407 0.930 . S
C2405 C2402 1.348 . S
C2405 C2403 1.356 . S
H2406 C2400 0.930 . S
H2407 C2404 0.930 . S
C2408 C2410 1.348 . S
C2408 C2411 1.356 . S
C2408 O2438 1.325 . S
N2409 C2412 1.314 . S
N2409 C2413 1.279 . S
C2410 C2408 1.348 . S
C2410 C2412 1.353 . S
C2410 H2452 0.929 . S
C2411 C2408 1.356 . S
C2411 C2413 1.358 . S
C2411 H2453 0.930 . S
C2412 N2409 1.314 . S
C2412 C2410 1.353 . S
C2412 H2454 0.930 . S
C2413 N2409 1.279 . S
C2413 C2411 1.358 . S
C2413 H2455 0.930 . S
C2414 C2415 1.348 . S
C2414 C2416 1.356 . S
C2414 O2439 1.325 . S
C2415 C2414 1.348 . S
C2415 C2417 1.353 . S
C2415 H2456 0.929 . S
C2416 C2414 1.356 . S
C2416 C2418 1.358 . S
C2416 H2457 0.930 . S
C2417 C2415 1.353 . S
C2417 N2419 1.314 . S
C2417 H2458 0.930 . S
C2418 C2416 1.358 . S
C2418 N2419 1.279 . S
C2418 H2459 0.930 . S
N2419 C2417 1.314 . S
N2419 C2418 1.279 . S
C2420 C2422 1.353 . S
C2420 N2423 1.285 1_556 S
C2420 H2426 0.930 . S
C2421 N2423 1.276 1_556 S
C2421 C2424 1.358 . S
C2421 H2427 0.930 1_556 S
C2422 C2420 1.353 . S
C2422 C2425 1.348 . S
C2422 H2460 0.929 . S
N2423 Li2378 2.018 . S
N2423 C2420 1.285 1_554 S
N2423 C2421 1.276 1_554 S
C2424 C2421 1.358 . S
C2424 C2425 1.356 . S
C2424 H2461 0.930 . S
C2425 C2422 1.348 . S
C2425 C2424 1.356 . S
H2426 C2420 0.930 . S
H2427 C2421 0.930 1_554 S
C2428 N2429 1.314 . S
C2428 C2430 1.353 . S
C2428 H2434 0.930 . S
N2429 Li2379 1.990 . S
N2429 C2428 1.314 . S
N2429 C2432 1.279 . S
C2430 C2428 1.353 . S
C2430 C2433 1.348 . S
C2430 H2462 0.929 . S
C2431 C2432 1.358 . S
C2431 C2433 1.356 . S
C2431 H2463 0.930 . S
C2432 N2429 1.279 . S
C2432 C2431 1.358 . S
C2432 H2435 0.930 . S
C2433 C2430 1.348 . S
C2433 C2431 1.356 . S
H2434 C2428 0.930 . S
H2435 C2432 0.930 . S
O2436 Li2376 1.956 . S
O2436 Li2377 1.970 . S
O2436 Li2378 1.961 . S
O2436 C2380 1.325 . S
O2437 Li2376 1.970 . S
O2437 Li2377 1.956 . S
O2437 Li2379 1.961 . S
O2437 C2386 1.325 . S
O2438 Li2376 1.961 . S
O2438 Li2378 1.956 . S
O2438 Li2379 1.970 . S
O2438 C2408 1.325 . S
O2439 Li2377 1.961 . S
O2439 Li2378 1.970 . S
O2439 Li2379 1.956 . S
O2439 C2414 1.325 . S
H2440 C2382 0.929 . S
H2441 C2383 0.930 . S
H2442 C2384 0.930 . S
H2443 C2385 0.930 . S
H2444 C2387 0.930 . S
H2445 C2389 0.929 . S
H2446 C2390 0.930 . S
H2447 C2391 0.930 . S
H2448 C2394 0.930 . S
H2449 C2397 0.929 . S
H2450 C2402 0.929 . S
H2451 C2403 0.930 . S
H2452 C2410 0.929 . S
H2453 C2411 0.930 . S
H2454 C2412 0.930 . S
H2455 C2413 0.930 . S
H2456 C2415 0.929 . S
H2457 C2416 0.930 . S
H2458 C2417 0.930 . S
H2459 C2418 0.930 . S
H2460 C2422 0.929 . S
H2461 C2424 0.930 . S
H2462 C2430 0.929 . S
H2463 C2431 0.930 . S
Li2464 N2481 2.018 . S
Li2464 O2524 1.956 . S
Li2464 O2525 1.970 . S
Li2464 O2526 1.961 . S
Li2465 N2489 1.990 . S
Li2465 O2524 1.970 . S
Li2465 O2525 1.956 . S
Li2465 O2527 1.961 . S
Li2466 N2511 1.990 . S
Li2466 O2524 1.961 . S
Li2466 O2526 1.956 . S
Li2466 O2527 1.970 . S
Li2467 N2517 1.990 . S
Li2467 O2525 1.961 . S
Li2467 O2526 1.970 . S
Li2467 O2527 1.956 . S
C2468 C2470 1.348 . S
C2468 C2471 1.356 . S
C2468 O2524 1.325 . S
N2469 C2472 1.314 . S
N2469 C2473 1.279 . S
C2470 C2468 1.348 . S
C2470 C2472 1.353 . S
C2470 H2528 0.929 . S
C2471 C2468 1.356 . S
C2471 C2473 1.358 . S
C2471 H2529 0.930 . S
C2472 N2469 1.314 . S
C2472 C2470 1.353 . S
C2472 H2530 0.930 . S
C2473 N2469 1.279 . S
C2473 C2471 1.358 . S
C2473 H2531 0.930 . S
C2474 C2477 1.348 . S
C2474 C2478 1.356 . S
C2474 O2525 1.325 . S
C2475 N2476 1.279 . S
C2475 C2478 1.358 . S
C2475 H2532 0.930 . S
N2476 C2475 1.279 . S
N2476 C2479 1.314 . S
C2477 C2474 1.348 . S
C2477 C2479 1.353 . S
C2477 H2533 0.929 . S
C2478 C2474 1.356 . S
C2478 C2475 1.358 . S
C2478 H2534 0.930 . S
C2479 N2476 1.314 . S
C2479 C2477 1.353 . S
C2479 H2535 0.930 . S
C2480 N2481 1.285 1_556 S
C2480 C2485 1.353 . S
C2480 H2486 0.930 . S
N2481 Li2464 2.018 . S
N2481 C2480 1.285 1_554 S
N2481 C2483 1.276 1_554 S
C2482 C2483 1.358 . S
C2482 C2484 1.356 . S
C2482 H2536 0.930 . S
C2483 N2481 1.276 1_556 S
C2483 C2482 1.358 . S
C2483 H2487 0.930 1_556 S
C2484 C2482 1.356 . S
C2484 C2485 1.348 . S
C2485 C2480 1.353 . S
C2485 C2484 1.348 . S
C2485 H2537 0.929 . S
H2486 C2480 0.930 . S
H2487 C2483 0.930 1_554 S
C2488 N2489 1.314 . S
C2488 C2490 1.353 . S
C2488 H2494 0.930 . S
N2489 Li2465 1.990 . S
N2489 C2488 1.314 . S
N2489 C2492 1.279 . S
C2490 C2488 1.353 . S
C2490 C2493 1.348 . S
C2490 H2538 0.929 . S
C2491 C2492 1.358 . S
C2491 C2493 1.356 . S
C2491 H2539 0.930 . S
C2492 N2489 1.279 . S
C2492 C2491 1.358 . S
C2492 H2495 0.930 . S
C2493 C2490 1.348 . S
C2493 C2491 1.356 . S
H2494 C2488 0.930 . S
H2495 C2492 0.930 . S
C2496 C2498 1.348 . S
C2496 C2499 1.356 . S
C2496 O2526 1.325 . S
N2497 C2500 1.314 . S
N2497 C2501 1.279 . S
C2498 C2496 1.348 . S
C2498 C2500 1.353 1_554 S
C2498 H2540 0.929 . S
C2499 C2496 1.356 . S
C2499 C2501 1.358 1_554 S
C2499 H2541 0.930 . S
C2500 N2497 1.314 . S
C2500 C2498 1.353 1_556 S
C2500 H2542 0.930 . S
C2501 N2497 1.279 . S
C2501 C2499 1.358 1_556 S
C2501 H2543 0.930 . S
C2502 C2503 1.348 . S
C2502 C2504 1.356 . S
C2502 O2527 1.325 . S
C2503 C2502 1.348 . S
C2503 C2505 1.353 . S
C2503 H2544 0.929 . S
C2504 C2502 1.356 . S
C2504 C2506 1.358 . S
C2504 H2545 0.930 . S
C2505 C2503 1.353 . S
C2505 N2507 1.314 . S
C2505 H2546 0.930 . S
C2506 C2504 1.358 . S
C2506 N2507 1.279 . S
C2506 H2547 0.930 . S
N2507 C2505 1.314 . S
N2507 C2506 1.279 . S
C2508 C2510 1.353 . S
C2508 N2511 1.314 . S
C2508 H2514 0.930 . S
C2509 N2511 1.279 . S
C2509 C2512 1.358 . S
C2509 H2515 0.930 . S
C2510 C2508 1.353 . S
C2510 C2513 1.348 . S
C2510 H2548 0.929 . S
N2511 Li2466 1.990 . S
N2511 C2508 1.314 . S
N2511 C2509 1.279 . S
C2512 C2509 1.358 . S
C2512 C2513 1.356 . S
C2512 H2549 0.930 . S
C2513 C2510 1.348 . S
C2513 C2512 1.356 . S
H2514 C2508 0.930 . S
H2515 C2509 0.930 . S
C2516 N2517 1.314 . S
C2516 C2518 1.353 . S
C2516 H2522 0.930 . S
N2517 Li2467 1.990 . S
N2517 C2516 1.314 . S
N2517 C2520 1.279 . S
C2518 C2516 1.353 . S
C2518 C2521 1.348 . S
C2518 H2550 0.929 . S
C2519 C2520 1.358 . S
C2519 C2521 1.356 . S
C2519 H2551 0.930 . S
C2520 N2517 1.279 . S
C2520 C2519 1.358 . S
C2520 H2523 0.930 . S
C2521 C2518 1.348 . S
C2521 C2519 1.356 . S
H2522 C2516 0.930 . S
H2523 C2520 0.930 . S
O2524 Li2464 1.956 . S
O2524 Li2465 1.970 . S
O2524 Li2466 1.961 . S
O2524 C2468 1.325 . S
O2525 Li2464 1.970 . S
O2525 Li2465 1.956 . S
O2525 Li2467 1.961 . S
O2525 C2474 1.325 . S
O2526 Li2464 1.961 . S
O2526 Li2466 1.956 . S
O2526 Li2467 1.970 . S
O2526 C2496 1.325 . S
O2527 Li2465 1.961 . S
O2527 Li2466 1.970 . S
O2527 Li2467 1.956 . S
O2527 C2502 1.325 . S
H2528 C2470 0.929 . S
H2529 C2471 0.930 . S
H2530 C2472 0.930 . S
H2531 C2473 0.930 . S
H2532 C2475 0.930 . S
H2533 C2477 0.929 . S
H2534 C2478 0.930 . S
H2535 C2479 0.930 . S
H2536 C2482 0.930 . S
H2537 C2485 0.929 . S
H2538 C2490 0.929 . S
H2539 C2491 0.930 . S
H2540 C2498 0.929 . S
H2541 C2499 0.930 . S
H2542 C2500 0.930 . S
H2543 C2501 0.930 . S
H2544 C2503 0.929 . S
H2545 C2504 0.930 . S
H2546 C2505 0.930 . S
H2547 C2506 0.930 . S
H2548 C2510 0.929 . S
H2549 C2512 0.930 . S
H2550 C2518 0.929 . S
H2551 C2519 0.930 . S
Li2552 N2569 1.990 . S
Li2552 O2612 1.956 . S
Li2552 O2613 1.970 . S
Li2552 O2614 1.961 . S
Li2553 N2577 1.990 . S
Li2553 O2612 1.970 . S
Li2553 O2613 1.956 . S
Li2553 O2615 1.961 . S
Li2554 N2599 1.990 . S
Li2554 O2612 1.961 . S
Li2554 O2614 1.956 . S
Li2554 O2615 1.970 . S
Li2555 N2605 2.018 . S
Li2555 O2613 1.961 . S
Li2555 O2614 1.970 . S
Li2555 O2615 1.956 . S
C2556 C2558 1.348 . S
C2556 C2559 1.356 . S
C2556 O2612 1.325 . S
N2557 C2560 1.314 . S
N2557 C2561 1.279 . S
C2558 C2556 1.348 . S
C2558 C2560 1.353 . S
C2558 H2616 0.929 . S
C2559 C2556 1.356 . S
C2559 C2561 1.358 . S
C2559 H2617 0.930 . S
C2560 N2557 1.314 . S
C2560 C2558 1.353 . S
C2560 H2618 0.930 . S
C2561 N2557 1.279 . S
C2561 C2559 1.358 . S
C2561 H2619 0.930 . S
C2562 C2565 1.348 . S
C2562 C2566 1.356 . S
C2562 O2613 1.325 . S
C2563 N2564 1.279 . S
C2563 C2566 1.358 1_556 S
C2563 H2620 0.930 . S
N2564 C2563 1.279 . S
N2564 C2567 1.314 . S
C2565 C2562 1.348 . S
C2565 C2567 1.353 1_554 S
C2565 H2621 0.929 . S
C2566 C2562 1.356 . S
C2566 C2563 1.358 1_554 S
C2566 H2622 0.930 . S
C2567 N2564 1.314 . S
C2567 C2565 1.353 1_556 S
C2567 H2623 0.930 . S
C2568 N2569 1.314 . S
C2568 C2573 1.353 . S
C2568 H2574 0.930 . S
N2569 Li2552 1.990 . S
N2569 C2568 1.314 . S
N2569 C2571 1.279 . S
C2570 C2571 1.358 . S
C2570 C2572 1.356 . S
C2570 H2624 0.930 . S
C2571 N2569 1.279 . S
C2571 C2570 1.358 . S
C2571 H2575 0.930 . S
C2572 C2570 1.356 . S
C2572 C2573 1.348 . S
C2573 C2568 1.353 . S
C2573 C2572 1.348 . S
C2573 H2625 0.929 . S
H2574 C2568 0.930 . S
H2575 C2571 0.930 . S
C2576 N2577 1.314 . S
C2576 C2578 1.353 . S
C2576 H2582 0.930 . S
N2577 Li2553 1.990 . S
N2577 C2576 1.314 . S
N2577 C2580 1.279 . S
C2578 C2576 1.353 . S
C2578 C2581 1.348 . S
C2578 H2626 0.929 . S
C2579 C2580 1.358 . S
C2579 C2581 1.356 . S
C2579 H2627 0.930 . S
C2580 N2577 1.279 . S
C2580 C2579 1.358 . S
C2580 H2583 0.930 . S
C2581 C2578 1.348 . S
C2581 C2579 1.356 . S
H2582 C2576 0.930 . S
H2583 C2580 0.930 . S
C2584 C2586 1.348 . S
C2584 C2587 1.356 . S
C2584 O2614 1.325 . S
N2585 C2588 1.314 . S
N2585 C2589 1.279 . S
C2586 C2584 1.348 . S
C2586 C2588 1.353 . S
C2586 H2628 0.929 . S
C2587 C2584 1.356 . S
C2587 C2589 1.358 . S
C2587 H2629 0.930 . S
C2588 N2585 1.314 . S
C2588 C2586 1.353 . S
C2588 H2630 0.930 . S
C2589 N2585 1.279 . S
C2589 C2587 1.358 . S
C2589 H2631 0.930 . S
C2590 C2591 1.348 . S
C2590 C2592 1.356 . S
C2590 O2615 1.325 . S
C2591 C2590 1.348 . S
C2591 C2593 1.353 . S
C2591 H2632 0.929 . S
C2592 C2590 1.356 . S
C2592 C2594 1.358 . S
C2592 H2633 0.930 . S
C2593 C2591 1.353 . S
C2593 N2595 1.314 . S
C2593 H2634 0.930 . S
C2594 C2592 1.358 . S
C2594 N2595 1.279 . S
C2594 H2635 0.930 . S
N2595 C2593 1.314 . S
N2595 C2594 1.279 . S
C2596 C2598 1.353 . S
C2596 N2599 1.314 . S
C2596 H2602 0.930 . S
C2597 N2599 1.279 . S
C2597 C2600 1.358 . S
C2597 H2603 0.930 . S
C2598 C2596 1.353 . S
C2598 C2601 1.348 . S
C2598 H2636 0.929 . S
N2599 Li2554 1.990 . S
N2599 C2596 1.314 . S
N2599 C2597 1.279 . S
C2600 C2597 1.358 . S
C2600 C2601 1.356 . S
C2600 H2637 0.930 . S
C2601 C2598 1.348 . S
C2601 C2600 1.356 . S
H2602 C2596 0.930 . S
H2603 C2597 0.930 . S
C2604 N2605 1.285 1_556 S
C2604 C2606 1.353 . S
C2604 H2610 0.930 . S
N2605 Li2555 2.018 . S
N2605 C2604 1.285 1_554 S
N2605 C2608 1.277 1_554 S
C2606 C2604 1.353 . S
C2606 C2609 1.348 . S
C2606 H2638 0.929 . S
C2607 C2608 1.358 . S
C2607 C2609 1.356 . S
C2607 H2639 0.930 . S
C2608 N2605 1.277 1_556 S
C2608 C2607 1.358 . S
C2608 H2611 0.930 1_556 S
C2609 C2606 1.348 . S
C2609 C2607 1.356 . S
H2610 C2604 0.930 . S
H2611 C2608 0.930 1_554 S
O2612 Li2552 1.956 . S
O2612 Li2553 1.970 . S
O2612 Li2554 1.961 . S
O2612 C2556 1.325 . S
O2613 Li2552 1.970 . S
O2613 Li2553 1.956 . S
O2613 Li2555 1.961 . S
O2613 C2562 1.325 . S
O2614 Li2552 1.961 . S
O2614 Li2554 1.956 . S
O2614 Li2555 1.970 . S
O2614 C2584 1.325 . S
O2615 Li2553 1.961 . S
O2615 Li2554 1.970 . S
O2615 Li2555 1.956 . S
O2615 C2590 1.325 . S
H2616 C2558 0.929 . S
H2617 C2559 0.930 . S
H2618 C2560 0.930 . S
H2619 C2561 0.930 . S
H2620 C2563 0.930 . S
H2621 C2565 0.929 . S
H2622 C2566 0.930 . S
H2623 C2567 0.930 . S
H2624 C2570 0.930 . S
H2625 C2573 0.929 . S
H2626 C2578 0.929 . S
H2627 C2579 0.930 . S
H2628 C2586 0.929 . S
H2629 C2587 0.930 . S
H2630 C2588 0.930 . S
H2631 C2589 0.930 . S
H2632 C2591 0.929 . S
H2633 C2592 0.930 . S
H2634 C2593 0.930 . S
H2635 C2594 0.930 . S
H2636 C2598 0.929 . S
H2637 C2600 0.930 . S
H2638 C2606 0.929 . S
H2639 C2607 0.930 . S
Li2640 N2657 1.990 . S
Li2640 O2700 1.956 . S
Li2640 O2701 1.970 . S
Li2640 O2702 1.961 . S
Li2641 N2665 1.990 . S
Li2641 O2700 1.970 . S
Li2641 O2701 1.956 . S
Li2641 O2703 1.961 . S
Li2642 N2687 1.990 . S
Li2642 O2700 1.961 . S
Li2642 O2702 1.956 . S
Li2642 O2703 1.970 . S
Li2643 N2693 1.990 . S
Li2643 O2701 1.961 . S
Li2643 O2702 1.970 . S
Li2643 O2703 1.956 . S
C2644 C2646 1.348 . S
C2644 C2647 1.356 . S
C2644 O2700 1.325 . S
N2645 C2648 1.314 . S
N2645 C2649 1.279 . S
C2646 C2644 1.348 . S
C2646 C2648 1.353 . S
C2646 H2704 0.929 . S
C2647 C2644 1.356 . S
C2647 C2649 1.358 . S
C2647 H2705 0.930 . S
C2648 N2645 1.314 . S
C2648 C2646 1.353 . S
C2648 H2706 0.930 . S
C2649 N2645 1.279 . S
C2649 C2647 1.358 . S
C2649 H2707 0.930 . S
C2650 C2653 1.348 . S
C2650 C2654 1.356 . S
C2650 O2701 1.325 . S
C2651 N2652 1.279 . S
C2651 C2654 1.358 . S
C2651 H2708 0.930 . S
N2652 C2651 1.279 . S
N2652 C2655 1.314 . S
C2653 C2650 1.348 . S
C2653 C2655 1.353 . S
C2653 H2709 0.929 . S
C2654 C2650 1.356 . S
C2654 C2651 1.358 . S
C2654 H2710 0.930 . S
C2655 N2652 1.314 . S
C2655 C2653 1.353 . S
C2655 H2711 0.930 . S
C2656 N2657 1.314 . S
C2656 C2661 1.353 . S
C2656 H2662 0.930 . S
N2657 Li2640 1.990 . S
N2657 C2656 1.314 . S
N2657 C2659 1.279 . S
C2658 C2659 1.358 . S
C2658 C2660 1.356 . S
C2658 H2712 0.930 . S
C2659 N2657 1.279 . S
C2659 C2658 1.358 . S
C2659 H2663 0.930 . S
C2660 C2658 1.356 . S
C2660 C2661 1.348 . S
C2661 C2656 1.353 . S
C2661 C2660 1.348 . S
C2661 H2713 0.929 . S
H2662 C2656 0.930 . S
H2663 C2659 0.930 . S
C2664 N2665 1.314 . S
C2664 C2666 1.353 . S
C2664 H2670 0.930 . S
N2665 Li2641 1.990 . S
N2665 C2664 1.314 . S
N2665 C2668 1.279 . S
C2666 C2664 1.353 . S
C2666 C2669 1.348 . S
C2666 H2714 0.929 . S
C2667 C2668 1.358 . S
C2667 C2669 1.356 . S
C2667 H2715 0.930 . S
C2668 N2665 1.279 . S
C2668 C2667 1.358 . S
C2668 H2671 0.930 . S
C2669 C2666 1.348 . S
C2669 C2667 1.356 . S
H2670 C2664 0.930 . S
H2671 C2668 0.930 . S
C2672 C2674 1.348 . S
C2672 C2675 1.356 . S
C2672 O2702 1.325 . S
N2673 C2676 1.314 . S
N2673 C2677 1.279 . S
C2674 C2672 1.348 . S
C2674 C2676 1.353 . S
C2674 H2716 0.929 . S
C2675 C2672 1.356 . S
C2675 C2677 1.358 . S
C2675 H2717 0.930 . S
C2676 N2673 1.314 . S
C2676 C2674 1.353 . S
C2676 H2718 0.930 . S
C2677 N2673 1.279 . S
C2677 C2675 1.358 . S
C2677 H2719 0.930 . S
C2678 C2679 1.348 . S
C2678 C2680 1.356 . S
C2678 O2703 1.325 . S
C2679 C2678 1.348 . S
C2679 C2681 1.353 . S
C2679 H2720 0.929 . S
C2680 C2678 1.356 . S
C2680 C2682 1.358 . S
C2680 H2721 0.930 . S
C2681 C2679 1.353 . S
C2681 N2683 1.314 . S
C2681 H2722 0.930 . S
C2682 C2680 1.358 . S
C2682 N2683 1.279 . S
C2682 H2723 0.930 . S
N2683 C2681 1.314 . S
N2683 C2682 1.279 . S
C2684 C2686 1.353 . S
C2684 N2687 1.314 . S
C2684 H2690 0.930 . S
C2685 N2687 1.279 . S
C2685 C2688 1.358 . S
C2685 H2691 0.930 . S
C2686 C2684 1.353 . S
C2686 C2689 1.348 . S
C2686 H2724 0.929 . S
N2687 Li2642 1.990 . S
N2687 C2684 1.314 . S
N2687 C2685 1.279 . S
C2688 C2685 1.358 . S
C2688 C2689 1.356 . S
C2688 H2725 0.930 . S
C2689 C2686 1.348 . S
C2689 C2688 1.356 . S
H2690 C2684 0.930 . S
H2691 C2685 0.930 . S
C2692 N2693 1.314 . S
C2692 C2694 1.353 . S
C2692 H2698 0.930 . S
N2693 Li2643 1.990 . S
N2693 C2692 1.314 . S
N2693 C2696 1.279 . S
C2694 C2692 1.353 . S
C2694 C2697 1.348 . S
C2694 H2726 0.929 . S
C2695 C2696 1.358 . S
C2695 C2697 1.356 . S
C2695 H2727 0.930 . S
C2696 N2693 1.279 . S
C2696 C2695 1.358 . S
C2696 H2699 0.930 . S
C2697 C2694 1.348 . S
C2697 C2695 1.356 . S
H2698 C2692 0.930 . S
H2699 C2696 0.930 . S
O2700 Li2640 1.956 . S
O2700 Li2641 1.970 . S
O2700 Li2642 1.961 . S
O2700 C2644 1.325 . S
O2701 Li2640 1.970 . S
O2701 Li2641 1.956 . S
O2701 Li2643 1.961 . S
O2701 C2650 1.325 . S
O2702 Li2640 1.961 . S
O2702 Li2642 1.956 . S
O2702 Li2643 1.970 . S
O2702 C2672 1.325 . S
O2703 Li2641 1.961 . S
O2703 Li2642 1.970 . S
O2703 Li2643 1.956 . S
O2703 C2678 1.325 . S
H2704 C2646 0.929 . S
H2705 C2647 0.930 . S
H2706 C2648 0.930 . S
H2707 C2649 0.930 . S
H2708 C2651 0.930 . S
H2709 C2653 0.929 . S
H2710 C2654 0.930 . S
H2711 C2655 0.930 . S
H2712 C2658 0.930 . S
H2713 C2661 0.929 . S
H2714 C2666 0.929 . S
H2715 C2667 0.930 . S
H2716 C2674 0.929 . S
H2717 C2675 0.930 . S
H2718 C2676 0.930 . S
H2719 C2677 0.930 . S
H2720 C2679 0.929 . S
H2721 C2680 0.930 . S
H2722 C2681 0.930 . S
H2723 C2682 0.930 . S
H2724 C2686 0.929 . S
H2725 C2688 0.930 . S
H2726 C2694 0.929 . S
H2727 C2695 0.930 . S
Li2728 N2745 1.990 . S
Li2728 O2788 1.956 . S
Li2728 O2789 1.970 . S
Li2728 O2790 1.961 . S
Li2729 N2753 1.990 . S
Li2729 O2788 1.970 . S
Li2729 O2789 1.956 . S
Li2729 O2791 1.961 . S
Li2730 N2775 1.990 . S
Li2730 O2788 1.961 . S
Li2730 O2790 1.956 . S
Li2730 O2791 1.970 . S
Li2731 N2781 1.990 . S
Li2731 O2789 1.961 . S
Li2731 O2790 1.970 . S
Li2731 O2791 1.956 . S
C2732 C2734 1.348 . S
C2732 C2735 1.356 . S
C2732 O2788 1.325 . S
N2733 C2736 1.314 . S
N2733 C2737 1.279 . S
C2734 C2732 1.348 . S
C2734 C2736 1.353 . S
C2734 H2792 0.929 . S
C2735 C2732 1.356 . S
C2735 C2737 1.358 . S
C2735 H2793 0.930 . S
C2736 N2733 1.314 . S
C2736 C2734 1.353 . S
C2736 H2794 0.930 . S
C2737 N2733 1.279 . S
C2737 C2735 1.358 . S
C2737 H2795 0.930 . S
C2738 C2741 1.348 . S
C2738 C2742 1.356 . S
C2738 O2789 1.325 . S
C2739 N2740 1.279 . S
C2739 C2742 1.358 . S
C2739 H2796 0.930 . S
N2740 C2739 1.279 . S
N2740 C2743 1.314 . S
C2741 C2738 1.348 . S
C2741 C2743 1.353 . S
C2741 H2797 0.929 . S
C2742 C2738 1.356 . S
C2742 C2739 1.358 . S
C2742 H2798 0.930 . S
C2743 N2740 1.314 . S
C2743 C2741 1.353 . S
C2743 H2799 0.930 . S
C2744 N2745 1.314 . S
C2744 C2749 1.353 . S
C2744 H2750 0.930 . S
N2745 Li2728 1.990 . S
N2745 C2744 1.314 . S
N2745 C2747 1.279 . S
C2746 C2747 1.358 . S
C2746 C2748 1.356 . S
C2746 H2800 0.930 . S
C2747 N2745 1.279 . S
C2747 C2746 1.358 . S
C2747 H2751 0.930 . S
C2748 C2746 1.356 . S
C2748 C2749 1.348 . S
C2749 C2744 1.353 . S
C2749 C2748 1.348 . S
C2749 H2801 0.929 . S
H2750 C2744 0.930 . S
H2751 C2747 0.930 . S
C2752 N2753 1.314 . S
C2752 C2754 1.353 . S
C2752 H2758 0.930 . S
N2753 Li2729 1.990 . S
N2753 C2752 1.314 . S
N2753 C2756 1.279 . S
C2754 C2752 1.353 . S
C2754 C2757 1.348 . S
C2754 H2802 0.929 . S
C2755 C2756 1.358 . S
C2755 C2757 1.356 . S
C2755 H2803 0.930 . S
C2756 N2753 1.279 . S
C2756 C2755 1.358 . S
C2756 H2759 0.930 . S
C2757 C2754 1.348 . S
C2757 C2755 1.356 . S
H2758 C2752 0.930 . S
H2759 C2756 0.930 . S
C2760 C2762 1.348 . S
C2760 C2763 1.356 . S
C2760 O2790 1.325 . S
N2761 C2764 1.314 . S
N2761 C2765 1.279 . S
C2762 C2760 1.348 . S
C2762 C2764 1.353 . S
C2762 H2804 0.929 . S
C2763 C2760 1.356 . S
C2763 C2765 1.358 . S
C2763 H2805 0.930 . S
C2764 N2761 1.314 . S
C2764 C2762 1.353 . S
C2764 H2806 0.930 . S
C2765 N2761 1.279 . S
C2765 C2763 1.358 . S
C2765 H2807 0.930 . S
C2766 C2767 1.348 . S
C2766 C2768 1.356 . S
C2766 O2791 1.325 . S
C2767 C2766 1.348 . S
C2767 C2769 1.353 . S
C2767 H2808 0.929 . S
C2768 C2766 1.356 . S
C2768 C2770 1.358 . S
C2768 H2809 0.930 . S
C2769 C2767 1.353 . S
C2769 N2771 1.314 . S
C2769 H2810 0.930 . S
C2770 C2768 1.358 . S
C2770 N2771 1.279 . S
C2770 H2811 0.930 . S
N2771 C2769 1.314 . S
N2771 C2770 1.279 . S
C2772 C2774 1.353 . S
C2772 N2775 1.314 . S
C2772 H2778 0.930 . S
C2773 N2775 1.279 . S
C2773 C2776 1.358 . S
C2773 H2779 0.930 . S
C2774 C2772 1.353 . S
C2774 C2777 1.348 . S
C2774 H2812 0.929 . S
N2775 Li2730 1.990 . S
N2775 C2772 1.314 . S
N2775 C2773 1.279 . S
C2776 C2773 1.358 . S
C2776 C2777 1.356 . S
C2776 H2813 0.930 . S
C2777 C2774 1.348 . S
C2777 C2776 1.356 . S
H2778 C2772 0.930 . S
H2779 C2773 0.930 . S
C2780 N2781 1.314 . S
C2780 C2782 1.353 . S
C2780 H2786 0.930 . S
N2781 Li2731 1.990 . S
N2781 C2780 1.314 . S
N2781 C2784 1.279 . S
C2782 C2780 1.353 . S
C2782 C2785 1.348 . S
C2782 H2814 0.929 . S
C2783 C2784 1.358 . S
C2783 C2785 1.356 . S
C2783 H2815 0.930 . S
C2784 N2781 1.279 . S
C2784 C2783 1.358 . S
C2784 H2787 0.930 . S
C2785 C2782 1.348 . S
C2785 C2783 1.356 . S
H2786 C2780 0.930 . S
H2787 C2784 0.930 . S
O2788 Li2728 1.956 . S
O2788 Li2729 1.970 . S
O2788 Li2730 1.961 . S
O2788 C2732 1.325 . S
O2789 Li2728 1.970 . S
O2789 Li2729 1.956 . S
O2789 Li2731 1.961 . S
O2789 C2738 1.325 . S
O2790 Li2728 1.961 . S
O2790 Li2730 1.956 . S
O2790 Li2731 1.970 . S
O2790 C2760 1.325 . S
O2791 Li2729 1.961 . S
O2791 Li2730 1.970 . S
O2791 Li2731 1.956 . S
O2791 C2766 1.325 . S
H2792 C2734 0.929 . S
H2793 C2735 0.930 . S
H2794 C2736 0.930 . S
H2795 C2737 0.930 . S
H2796 C2739 0.930 . S
H2797 C2741 0.929 . S
H2798 C2742 0.930 . S
H2799 C2743 0.930 . S
H2800 C2746 0.930 . S
H2801 C2749 0.929 . S
H2802 C2754 0.929 . S
H2803 C2755 0.930 . S
H2804 C2762 0.929 . S
H2805 C2763 0.930 . S
H2806 C2764 0.930 . S
H2807 C2765 0.930 . S
H2808 C2767 0.929 . S
H2809 C2768 0.930 . S
H2810 C2769 0.930 . S
H2811 C2770 0.930 . S
H2812 C2774 0.929 . S
H2813 C2776 0.930 . S
H2814 C2782 0.929 . S
H2815 C2783 0.930 . S
Li2816 N2833 1.990 . S
Li2816 O2876 1.956 . S
Li2816 O2877 1.970 . S
Li2816 O2878 1.961 . S
Li2817 N2841 1.990 . S
Li2817 O2876 1.970 . S
Li2817 O2877 1.956 . S
Li2817 O2879 1.961 . S
Li2818 N2863 1.990 . S
Li2818 O2876 1.961 . S
Li2818 O2878 1.956 . S
Li2818 O2879 1.970 . S
Li2819 N2869 1.990 . S
Li2819 O2877 1.961 . S
Li2819 O2878 1.970 . S
Li2819 O2879 1.956 . S
C2820 C2822 1.348 . S
C2820 C2823 1.356 . S
C2820 O2876 1.325 . S
N2821 C2824 1.314 . S
N2821 C2825 1.279 . S
C2822 C2820 1.348 . S
C2822 C2824 1.353 . S
C2822 H2880 0.929 . S
C2823 C2820 1.356 . S
C2823 C2825 1.358 . S
C2823 H2881 0.930 . S
C2824 N2821 1.314 . S
C2824 C2822 1.353 . S
C2824 H2882 0.930 . S
C2825 N2821 1.279 . S
C2825 C2823 1.358 . S
C2825 H2883 0.930 . S
C2826 C2829 1.348 . S
C2826 C2830 1.356 . S
C2826 O2877 1.325 . S
C2827 N2828 1.279 . S
C2827 C2830 1.358 . S
C2827 H2884 0.930 . S
N2828 C2827 1.279 . S
N2828 C2831 1.314 . S
C2829 C2826 1.348 . S
C2829 C2831 1.353 . S
C2829 H2885 0.929 . S
C2830 C2826 1.356 . S
C2830 C2827 1.358 . S
C2830 H2886 0.930 . S
C2831 N2828 1.314 . S
C2831 C2829 1.353 . S
C2831 H2887 0.930 . S
C2832 N2833 1.314 . S
C2832 C2837 1.353 . S
C2832 H2838 0.930 . S
N2833 Li2816 1.990 . S
N2833 C2832 1.314 . S
N2833 C2835 1.279 . S
C2834 C2835 1.358 . S
C2834 C2836 1.356 . S
C2834 H2888 0.930 . S
C2835 N2833 1.279 . S
C2835 C2834 1.358 . S
C2835 H2839 0.930 . S
C2836 C2834 1.356 . S
C2836 C2837 1.348 . S
C2837 C2832 1.353 . S
C2837 C2836 1.348 . S
C2837 H2889 0.929 . S
H2838 C2832 0.930 . S
H2839 C2835 0.930 . S
C2840 N2841 1.314 . S
C2840 C2842 1.353 . S
C2840 H2846 0.930 . S
N2841 Li2817 1.990 . S
N2841 C2840 1.314 . S
N2841 C2844 1.279 . S
C2842 C2840 1.353 . S
C2842 C2845 1.348 . S
C2842 H2890 0.929 . S
C2843 C2844 1.358 . S
C2843 C2845 1.356 . S
C2843 H2891 0.930 . S
C2844 N2841 1.279 . S
C2844 C2843 1.358 . S
C2844 H2847 0.930 . S
C2845 C2842 1.348 . S
C2845 C2843 1.356 . S
H2846 C2840 0.930 . S
H2847 C2844 0.930 . S
C2848 C2850 1.348 . S
C2848 C2851 1.356 . S
C2848 O2878 1.325 . S
N2849 C2852 1.314 . S
N2849 C2853 1.279 . S
C2850 C2848 1.348 . S
C2850 C2852 1.353 . S
C2850 H2892 0.929 . S
C2851 C2848 1.356 . S
C2851 C2853 1.358 . S
C2851 H2893 0.930 . S
C2852 N2849 1.314 . S
C2852 C2850 1.353 . S
C2852 H2894 0.930 . S
C2853 N2849 1.279 . S
C2853 C2851 1.358 . S
C2853 H2895 0.930 . S
C2854 C2855 1.348 . S
C2854 C2856 1.356 . S
C2854 O2879 1.325 . S
C2855 C2854 1.348 . S
C2855 C2857 1.353 . S
C2855 H2896 0.929 . S
C2856 C2854 1.356 . S
C2856 C2858 1.358 . S
C2856 H2897 0.930 . S
C2857 C2855 1.353 . S
C2857 N2859 1.314 . S
C2857 H2898 0.930 . S
C2858 C2856 1.358 . S
C2858 N2859 1.279 . S
C2858 H2899 0.930 . S
N2859 C2857 1.314 . S
N2859 C2858 1.279 . S
C2860 C2862 1.353 . S
C2860 N2863 1.314 . S
C2860 H2866 0.930 . S
C2861 N2863 1.279 . S
C2861 C2864 1.358 . S
C2861 H2867 0.930 . S
C2862 C2860 1.353 . S
C2862 C2865 1.348 . S
C2862 H2900 0.929 . S
N2863 Li2818 1.990 . S
N2863 C2860 1.314 . S
N2863 C2861 1.279 . S
C2864 C2861 1.358 . S
C2864 C2865 1.356 . S
C2864 H2901 0.930 . S
C2865 C2862 1.348 . S
C2865 C2864 1.356 . S
H2866 C2860 0.930 . S
H2867 C2861 0.930 . S
C2868 N2869 1.314 . S
C2868 C2870 1.353 . S
C2868 H2874 0.930 . S
N2869 Li2819 1.990 . S
N2869 C2868 1.314 . S
N2869 C2872 1.279 . S
C2870 C2868 1.353 . S
C2870 C2873 1.348 . S
C2870 H2902 0.929 . S
C2871 C2872 1.358 . S
C2871 C2873 1.356 . S
C2871 H2903 0.930 . S
C2872 N2869 1.279 . S
C2872 C2871 1.358 . S
C2872 H2875 0.930 . S
C2873 C2870 1.348 . S
C2873 C2871 1.356 . S
H2874 C2868 0.930 . S
H2875 C2872 0.930 . S
O2876 Li2816 1.956 . S
O2876 Li2817 1.970 . S
O2876 Li2818 1.961 . S
O2876 C2820 1.325 . S
O2877 Li2816 1.970 . S
O2877 Li2817 1.956 . S
O2877 Li2819 1.961 . S
O2877 C2826 1.325 . S
O2878 Li2816 1.961 . S
O2878 Li2818 1.956 . S
O2878 Li2819 1.970 . S
O2878 C2848 1.325 . S
O2879 Li2817 1.961 . S
O2879 Li2818 1.970 . S
O2879 Li2819 1.956 . S
O2879 C2854 1.325 . S
H2880 C2822 0.929 . S
H2881 C2823 0.930 . S
H2882 C2824 0.930 . S
H2883 C2825 0.930 . S
H2884 C2827 0.930 . S
H2885 C2829 0.929 . S
H2886 C2830 0.930 . S
H2887 C2831 0.930 . S
H2888 C2834 0.930 . S
H2889 C2837 0.929 . S
H2890 C2842 0.929 . S
H2891 C2843 0.930 . S
H2892 C2850 0.929 . S
H2893 C2851 0.930 . S
H2894 C2852 0.930 . S
H2895 C2853 0.930 . S
H2896 C2855 0.929 . S
H2897 C2856 0.930 . S
H2898 C2857 0.930 . S
H2899 C2858 0.930 . S
H2900 C2862 0.929 . S
H2901 C2864 0.930 . S
H2902 C2870 0.929 . S
H2903 C2871 0.930 . S
Li2904 N2921 1.990 . S
Li2904 O2964 1.956 . S
Li2904 O2965 1.970 . S
Li2904 O2966 1.961 . S
Li2905 N2929 1.990 . S
Li2905 O2964 1.970 . S
Li2905 O2965 1.956 . S
Li2905 O2967 1.961 . S
Li2906 N2951 1.990 . S
Li2906 O2964 1.961 . S
Li2906 O2966 1.956 . S
Li2906 O2967 1.970 . S
Li2907 N2957 1.990 . S
Li2907 O2965 1.961 . S
Li2907 O2966 1.970 . S
Li2907 O2967 1.956 . S
C2908 C2910 1.348 . S
C2908 C2911 1.356 . S
C2908 O2964 1.325 . S
N2909 C2912 1.314 . S
N2909 C2913 1.279 . S
C2910 C2908 1.348 . S
C2910 C2912 1.353 . S
C2910 H2968 0.929 . S
C2911 C2908 1.356 . S
C2911 C2913 1.358 . S
C2911 H2969 0.930 . S
C2912 N2909 1.314 . S
C2912 C2910 1.353 . S
C2912 H2970 0.930 . S
C2913 N2909 1.279 . S
C2913 C2911 1.358 . S
C2913 H2971 0.930 . S
C2914 C2917 1.348 . S
C2914 C2918 1.356 . S
C2914 O2965 1.325 . S
C2915 N2916 1.279 . S
C2915 C2918 1.358 . S
C2915 H2972 0.930 . S
N2916 C2915 1.279 . S
N2916 C2919 1.314 . S
C2917 C2914 1.348 . S
C2917 C2919 1.353 . S
C2917 H2973 0.929 . S
C2918 C2914 1.356 . S
C2918 C2915 1.358 . S
C2918 H2974 0.930 . S
C2919 N2916 1.314 . S
C2919 C2917 1.353 . S
C2919 H2975 0.930 . S
C2920 N2921 1.314 . S
C2920 C2925 1.353 . S
C2920 H2926 0.930 . S
N2921 Li2904 1.990 . S
N2921 C2920 1.314 . S
N2921 C2923 1.279 . S
C2922 C2923 1.358 . S
C2922 C2924 1.356 . S
C2922 H2976 0.930 . S
C2923 N2921 1.279 . S
C2923 C2922 1.358 . S
C2923 H2927 0.930 . S
C2924 C2922 1.356 . S
C2924 C2925 1.348 . S
C2925 C2920 1.353 . S
C2925 C2924 1.348 . S
C2925 H2977 0.929 . S
H2926 C2920 0.930 . S
H2927 C2923 0.930 . S
C2928 N2929 1.314 . S
C2928 C2930 1.353 . S
C2928 H2934 0.930 . S
N2929 Li2905 1.990 . S
N2929 C2928 1.314 . S
N2929 C2932 1.279 . S
C2930 C2928 1.353 . S
C2930 C2933 1.348 . S
C2930 H2978 0.929 . S
C2931 C2932 1.358 . S
C2931 C2933 1.356 . S
C2931 H2979 0.930 . S
C2932 N2929 1.279 . S
C2932 C2931 1.358 . S
C2932 H2935 0.930 . S
C2933 C2930 1.348 . S
C2933 C2931 1.356 . S
H2934 C2928 0.930 . S
H2935 C2932 0.930 . S
C2936 C2938 1.348 . S
C2936 C2939 1.356 . S
C2936 O2966 1.325 . S
N2937 C2940 1.314 . S
N2937 C2941 1.279 . S
C2938 C2936 1.348 . S
C2938 C2940 1.353 . S
C2938 H2980 0.929 . S
C2939 C2936 1.356 . S
C2939 C2941 1.358 . S
C2939 H2981 0.930 . S
C2940 N2937 1.314 . S
C2940 C2938 1.353 . S
C2940 H2982 0.930 . S
C2941 N2937 1.279 . S
C2941 C2939 1.358 . S
C2941 H2983 0.930 . S
C2942 C2943 1.348 . S
C2942 C2944 1.356 . S
C2942 O2967 1.325 . S
C2943 C2942 1.348 . S
C2943 C2945 1.353 . S
C2943 H2984 0.929 . S
C2944 C2942 1.356 . S
C2944 C2946 1.358 . S
C2944 H2985 0.930 . S
C2945 C2943 1.353 . S
C2945 N2947 1.314 . S
C2945 H2986 0.930 . S
C2946 C2944 1.358 . S
C2946 N2947 1.279 . S
C2946 H2987 0.930 . S
N2947 C2945 1.314 . S
N2947 C2946 1.279 . S
C2948 C2950 1.353 . S
C2948 N2951 1.314 . S
C2948 H2954 0.930 . S
C2949 N2951 1.279 . S
C2949 C2952 1.358 . S
C2949 H2955 0.930 . S
C2950 C2948 1.353 . S
C2950 C2953 1.348 . S
C2950 H2988 0.929 . S
N2951 Li2906 1.990 . S
N2951 C2948 1.314 . S
N2951 C2949 1.279 . S
C2952 C2949 1.358 . S
C2952 C2953 1.356 . S
C2952 H2989 0.930 . S
C2953 C2950 1.348 . S
C2953 C2952 1.356 . S
H2954 C2948 0.930 . S
H2955 C2949 0.930 . S
C2956 N2957 1.314 . S
C2956 C2958 1.353 . S
C2956 H2962 0.930 . S
N2957 Li2907 1.990 . S
N2957 C2956 1.314 . S
N2957 C2960 1.279 . S
C2958 C2956 1.353 . S
C2958 C2961 1.348 . S
C2958 H2990 0.929 . S
C2959 C2960 1.358 . S
C2959 C2961 1.356 . S
C2959 H2991 0.930 . S
C2960 N2957 1.279 . S
C2960 C2959 1.358 . S
C2960 H2963 0.930 . S
C2961 C2958 1.348 . S
C2961 C2959 1.356 . S
H2962 C2956 0.930 . S
H2963 C2960 0.930 . S
O2964 Li2904 1.956 . S
O2964 Li2905 1.970 . S
O2964 Li2906 1.961 . S
O2964 C2908 1.325 . S
O2965 Li2904 1.970 . S
O2965 Li2905 1.956 . S
O2965 Li2907 1.961 . S
O2965 C2914 1.325 . S
O2966 Li2904 1.961 . S
O2966 Li2906 1.956 . S
O2966 Li2907 1.970 . S
O2966 C2936 1.325 . S
O2967 Li2905 1.961 . S
O2967 Li2906 1.970 . S
O2967 Li2907 1.956 . S
O2967 C2942 1.325 . S
H2968 C2910 0.929 . S
H2969 C2911 0.930 . S
H2970 C2912 0.930 . S
H2971 C2913 0.930 . S
H2972 C2915 0.930 . S
H2973 C2917 0.929 . S
H2974 C2918 0.930 . S
H2975 C2919 0.930 . S
H2976 C2922 0.930 . S
H2977 C2925 0.929 . S
H2978 C2930 0.929 . S
H2979 C2931 0.930 . S
H2980 C2938 0.929 . S
H2981 C2939 0.930 . S
H2982 C2940 0.930 . S
H2983 C2941 0.930 . S
H2984 C2943 0.929 . S
H2985 C2944 0.930 . S
H2986 C2945 0.930 . S
H2987 C2946 0.930 . S
H2988 C2950 0.929 . S
H2989 C2952 0.930 . S
H2990 C2958 0.929 . S
H2991 C2959 0.930 . S
Li2992 N3009 1.990 . S
Li2992 O3052 1.956 . S
Li2992 O3053 1.970 . S
Li2992 O3054 1.961 . S
Li2993 N3017 1.990 . S
Li2993 O3052 1.970 . S
Li2993 O3053 1.956 . S
Li2993 O3055 1.961 . S
Li2994 N3039 1.990 . S
Li2994 O3052 1.961 . S
Li2994 O3054 1.956 . S
Li2994 O3055 1.970 . S
Li2995 N3045 1.990 . S
Li2995 O3053 1.961 . S
Li2995 O3054 1.970 . S
Li2995 O3055 1.956 . S
C2996 C2998 1.348 . S
C2996 C2999 1.356 . S
C2996 O3052 1.325 . S
N2997 C3000 1.314 . S
N2997 C3001 1.279 . S
C2998 C2996 1.348 . S
C2998 C3000 1.353 . S
C2998 H3056 0.929 . S
C2999 C2996 1.356 . S
C2999 C3001 1.358 . S
C2999 H3057 0.930 . S
C3000 N2997 1.314 . S
C3000 C2998 1.353 . S
C3000 H3058 0.930 . S
C3001 N2997 1.279 . S
C3001 C2999 1.358 . S
C3001 H3059 0.930 . S
C3002 C3005 1.348 . S
C3002 C3006 1.356 . S
C3002 O3053 1.325 . S
C3003 N3004 1.279 . S
C3003 C3006 1.358 . S
C3003 H3060 0.930 . S
N3004 C3003 1.279 . S
N3004 C3007 1.314 . S
C3005 C3002 1.348 . S
C3005 C3007 1.353 . S
C3005 H3061 0.929 . S
C3006 C3002 1.356 . S
C3006 C3003 1.358 . S
C3006 H3062 0.930 . S
C3007 N3004 1.314 . S
C3007 C3005 1.353 . S
C3007 H3063 0.930 . S
C3008 N3009 1.314 . S
C3008 C3013 1.353 . S
C3008 H3014 0.930 . S
N3009 Li2992 1.990 . S
N3009 C3008 1.314 . S
N3009 C3011 1.279 . S
C3010 C3011 1.358 . S
C3010 C3012 1.356 . S
C3010 H3064 0.930 . S
C3011 N3009 1.279 . S
C3011 C3010 1.358 . S
C3011 H3015 0.930 . S
C3012 C3010 1.356 . S
C3012 C3013 1.348 . S
C3013 C3008 1.353 . S
C3013 C3012 1.348 . S
C3013 H3065 0.929 . S
H3014 C3008 0.930 . S
H3015 C3011 0.930 . S
C3016 N3017 1.314 . S
C3016 C3018 1.353 . S
C3016 H3022 0.930 . S
N3017 Li2993 1.990 . S
N3017 C3016 1.314 . S
N3017 C3020 1.279 . S
C3018 C3016 1.353 . S
C3018 C3021 1.348 . S
C3018 H3066 0.929 . S
C3019 C3020 1.358 . S
C3019 C3021 1.356 . S
C3019 H3067 0.930 . S
C3020 N3017 1.279 . S
C3020 C3019 1.358 . S
C3020 H3023 0.930 . S
C3021 C3018 1.348 . S
C3021 C3019 1.356 . S
H3022 C3016 0.930 . S
H3023 C3020 0.930 . S
C3024 C3026 1.348 . S
C3024 C3027 1.356 . S
C3024 O3054 1.325 . S
N3025 C3028 1.314 . S
N3025 C3029 1.279 . S
C3026 C3024 1.348 . S
C3026 C3028 1.353 . S
C3026 H3068 0.929 . S
C3027 C3024 1.356 . S
C3027 C3029 1.358 . S
C3027 H3069 0.930 . S
C3028 N3025 1.314 . S
C3028 C3026 1.353 . S
C3028 H3070 0.930 . S
C3029 N3025 1.279 . S
C3029 C3027 1.358 . S
C3029 H3071 0.930 . S
C3030 C3031 1.348 . S
C3030 C3032 1.356 . S
C3030 O3055 1.325 . S
C3031 C3030 1.348 . S
C3031 C3033 1.353 . S
C3031 H3072 0.929 . S
C3032 C3030 1.356 . S
C3032 C3034 1.358 . S
C3032 H3073 0.930 . S
C3033 C3031 1.353 . S
C3033 N3035 1.314 . S
C3033 H3074 0.930 . S
C3034 C3032 1.358 . S
C3034 N3035 1.279 . S
C3034 H3075 0.930 . S
N3035 C3033 1.314 . S
N3035 C3034 1.279 . S
C3036 C3038 1.353 . S
C3036 N3039 1.314 . S
C3036 H3042 0.930 . S
C3037 N3039 1.279 . S
C3037 C3040 1.358 . S
C3037 H3043 0.930 . S
C3038 C3036 1.353 . S
C3038 C3041 1.348 . S
C3038 H3076 0.929 . S
N3039 Li2994 1.990 . S
N3039 C3036 1.314 . S
N3039 C3037 1.279 . S
C3040 C3037 1.358 . S
C3040 C3041 1.356 . S
C3040 H3077 0.930 . S
C3041 C3038 1.348 . S
C3041 C3040 1.356 . S
H3042 C3036 0.930 . S
H3043 C3037 0.930 . S
C3044 N3045 1.314 . S
C3044 C3046 1.353 . S
C3044 H3050 0.930 . S
N3045 Li2995 1.990 . S
N3045 C3044 1.314 . S
N3045 C3048 1.279 . S
C3046 C3044 1.353 . S
C3046 C3049 1.348 . S
C3046 H3078 0.929 . S
C3047 C3048 1.358 . S
C3047 C3049 1.356 . S
C3047 H3079 0.930 . S
C3048 N3045 1.279 . S
C3048 C3047 1.358 . S
C3048 H3051 0.930 . S
C3049 C3046 1.348 . S
C3049 C3047 1.356 . S
H3050 C3044 0.930 . S
H3051 C3048 0.930 . S
O3052 Li2992 1.956 . S
O3052 Li2993 1.970 . S
O3052 Li2994 1.961 . S
O3052 C2996 1.325 . S
O3053 Li2992 1.970 . S
O3053 Li2993 1.956 . S
O3053 Li2995 1.961 . S
O3053 C3002 1.325 . S
O3054 Li2992 1.961 . S
O3054 Li2994 1.956 . S
O3054 Li2995 1.970 . S
O3054 C3024 1.325 . S
O3055 Li2993 1.961 . S
O3055 Li2994 1.970 . S
O3055 Li2995 1.956 . S
O3055 C3030 1.325 . S
H3056 C2998 0.929 . S
H3057 C2999 0.930 . S
H3058 C3000 0.930 . S
H3059 C3001 0.930 . S
H3060 C3003 0.930 . S
H3061 C3005 0.929 . S
H3062 C3006 0.930 . S
H3063 C3007 0.930 . S
H3064 C3010 0.930 . S
H3065 C3013 0.929 . S
H3066 C3018 0.929 . S
H3067 C3019 0.930 . S
H3068 C3026 0.929 . S
H3069 C3027 0.930 . S
H3070 C3028 0.930 . S
H3071 C3029 0.930 . S
H3072 C3031 0.929 . S
H3073 C3032 0.930 . S
H3074 C3033 0.930 . S
H3075 C3034 0.930 . S
H3076 C3038 0.929 . S
H3077 C3040 0.930 . S
H3078 C3046 0.929 . S
H3079 C3047 0.930 . S
Li3080 N3097 1.990 . S
Li3080 O3140 1.956 . S
Li3080 O3141 1.970 . S
Li3080 O3142 1.961 . S
Li3081 N3105 1.990 . S
Li3081 O3140 1.970 . S
Li3081 O3141 1.956 . S
Li3081 O3143 1.961 . S
Li3082 N3127 1.990 . S
Li3082 O3140 1.961 . S
Li3082 O3142 1.956 . S
Li3082 O3143 1.970 . S
Li3083 N3133 1.990 . S
Li3083 O3141 1.961 . S
Li3083 O3142 1.970 . S
Li3083 O3143 1.956 . S
C3084 C3086 1.348 . S
C3084 C3087 1.356 . S
C3084 O3140 1.325 . S
N3085 C3088 1.314 . S
N3085 C3089 1.279 . S
C3086 C3084 1.348 . S
C3086 C3088 1.353 . S
C3086 H3144 0.929 . S
C3087 C3084 1.356 . S
C3087 C3089 1.358 . S
C3087 H3145 0.930 . S
C3088 N3085 1.314 . S
C3088 C3086 1.353 . S
C3088 H3146 0.930 . S
C3089 N3085 1.279 . S
C3089 C3087 1.358 . S
C3089 H3147 0.930 . S
C3090 C3093 1.348 . S
C3090 C3094 1.356 . S
C3090 O3141 1.325 . S
C3091 N3092 1.279 . S
C3091 C3094 1.358 . S
C3091 H3148 0.930 . S
N3092 C3091 1.279 . S
N3092 C3095 1.314 . S
C3093 C3090 1.348 . S
C3093 C3095 1.353 . S
C3093 H3149 0.929 . S
C3094 C3090 1.356 . S
C3094 C3091 1.358 . S
C3094 H3150 0.930 . S
C3095 N3092 1.314 . S
C3095 C3093 1.353 . S
C3095 H3151 0.930 . S
C3096 N3097 1.314 . S
C3096 C3101 1.353 . S
C3096 H3102 0.930 . S
N3097 Li3080 1.990 . S
N3097 C3096 1.314 . S
N3097 C3099 1.279 . S
C3098 C3099 1.358 . S
C3098 C3100 1.356 . S
C3098 H3152 0.930 . S
C3099 N3097 1.279 . S
C3099 C3098 1.358 . S
C3099 H3103 0.930 . S
C3100 C3098 1.356 . S
C3100 C3101 1.348 . S
C3101 C3096 1.353 . S
C3101 C3100 1.348 . S
C3101 H3153 0.929 . S
H3102 C3096 0.930 . S
H3103 C3099 0.930 . S
C3104 N3105 1.314 . S
C3104 C3106 1.353 . S
C3104 H3110 0.930 . S
N3105 Li3081 1.990 . S
N3105 C3104 1.314 . S
N3105 C3108 1.279 . S
C3106 C3104 1.353 . S
C3106 C3109 1.348 . S
C3106 H3154 0.929 . S
C3107 C3108 1.358 . S
C3107 C3109 1.356 . S
C3107 H3155 0.930 . S
C3108 N3105 1.279 . S
C3108 C3107 1.358 . S
C3108 H3111 0.930 . S
C3109 C3106 1.348 . S
C3109 C3107 1.356 . S
H3110 C3104 0.930 . S
H3111 C3108 0.930 . S
C3112 C3114 1.348 . S
C3112 C3115 1.356 . S
C3112 O3142 1.325 . S
N3113 C3116 1.314 . S
N3113 C3117 1.279 . S
C3114 C3112 1.348 . S
C3114 C3116 1.353 . S
C3114 H3156 0.929 . S
C3115 C3112 1.356 . S
C3115 C3117 1.358 . S
C3115 H3157 0.930 . S
C3116 N3113 1.314 . S
C3116 C3114 1.353 . S
C3116 H3158 0.930 . S
C3117 N3113 1.279 . S
C3117 C3115 1.358 . S
C3117 H3159 0.930 . S
C3118 C3119 1.348 . S
C3118 C3120 1.356 . S
C3118 O3143 1.325 . S
C3119 C3118 1.348 . S
C3119 C3121 1.353 . S
C3119 H3160 0.929 . S
C3120 C3118 1.356 . S
C3120 C3122 1.358 . S
C3120 H3161 0.930 . S
C3121 C3119 1.353 . S
C3121 N3123 1.314 . S
C3121 H3162 0.930 . S
C3122 C3120 1.358 . S
C3122 N3123 1.279 . S
C3122 H3163 0.930 . S
N3123 C3121 1.314 . S
N3123 C3122 1.279 . S
C3124 C3126 1.353 . S
C3124 N3127 1.314 . S
C3124 H3130 0.930 . S
C3125 N3127 1.279 . S
C3125 C3128 1.358 . S
C3125 H3131 0.930 . S
C3126 C3124 1.353 . S
C3126 C3129 1.348 . S
C3126 H3164 0.929 . S
N3127 Li3082 1.990 . S
N3127 C3124 1.314 . S
N3127 C3125 1.279 . S
C3128 C3125 1.358 . S
C3128 C3129 1.356 . S
C3128 H3165 0.930 . S
C3129 C3126 1.348 . S
C3129 C3128 1.356 . S
H3130 C3124 0.930 . S
H3131 C3125 0.930 . S
C3132 N3133 1.314 . S
C3132 C3134 1.353 . S
C3132 H3138 0.930 . S
N3133 Li3083 1.990 . S
N3133 C3132 1.314 . S
N3133 C3136 1.279 . S
C3134 C3132 1.353 . S
C3134 C3137 1.348 . S
C3134 H3166 0.929 . S
C3135 C3136 1.358 . S
C3135 C3137 1.356 . S
C3135 H3167 0.930 . S
C3136 N3133 1.279 . S
C3136 C3135 1.358 . S
C3136 H3139 0.930 . S
C3137 C3134 1.348 . S
C3137 C3135 1.356 . S
H3138 C3132 0.930 . S
H3139 C3136 0.930 . S
O3140 Li3080 1.956 . S
O3140 Li3081 1.970 . S
O3140 Li3082 1.961 . S
O3140 C3084 1.325 . S
O3141 Li3080 1.970 . S
O3141 Li3081 1.956 . S
O3141 Li3083 1.961 . S
O3141 C3090 1.325 . S
O3142 Li3080 1.961 . S
O3142 Li3082 1.956 . S
O3142 Li3083 1.970 . S
O3142 C3112 1.325 . S
O3143 Li3081 1.961 . S
O3143 Li3082 1.970 . S
O3143 Li3083 1.956 . S
O3143 C3118 1.325 . S
H3144 C3086 0.929 . S
H3145 C3087 0.930 . S
H3146 C3088 0.930 . S
H3147 C3089 0.930 . S
H3148 C3091 0.930 . S
H3149 C3093 0.929 . S
H3150 C3094 0.930 . S
H3151 C3095 0.930 . S
H3152 C3098 0.930 . S
H3153 C3101 0.929 . S
H3154 C3106 0.929 . S
H3155 C3107 0.930 . S
H3156 C3114 0.929 . S
H3157 C3115 0.930 . S
H3158 C3116 0.930 . S
H3159 C3117 0.930 . S
H3160 C3119 0.929 . S
H3161 C3120 0.930 . S
H3162 C3121 0.930 . S
H3163 C3122 0.930 . S
H3164 C3126 0.929 . S
H3165 C3128 0.930 . S
H3166 C3134 0.929 . S
H3167 C3135 0.930 . S
H3168 C3180 0.930 . S
H3169 C3182 0.930 . S
H3170 C3183 0.930 . S
H3171 C3187 0.959 . S
H3172 C3187 0.959 . S
H3173 C3187 0.961 . S
H3174 C3188 0.960 . S
H3175 C3188 0.961 . S
H3176 C3188 0.959 . S
H3177 C3191 0.929 . S
H3178 C3192 0.931 . S
H3179 C3194 0.942 . S
C3180 H3168 0.930 . S
C3180 C3181 1.399 . S
C3180 C3185 1.399 . S
C3181 C3180 1.399 . S
C3181 C3182 1.376 . S
C3182 H3169 0.930 . S
C3182 C3181 1.376 . S
C3182 C3183 1.388 . S
C3183 H3170 0.930 . S
C3183 C3182 1.388 . S
C3183 C3184 1.390 . S
C3184 C3183 1.390 . S
C3184 C3185 1.394 . S
C3184 C3190 1.465 . S
C3185 C3180 1.399 . S
C3185 C3184 1.394 . S
C3185 C3186 1.516 1_545 S
C3186 C3185 1.516 1_565 S
C3186 C3187 1.502 . S
C3186 C3188 1.561 . S
C3186 C3189 1.526 . S
C3187 H3171 0.959 . S
C3187 H3172 0.959 . S
C3187 H3173 0.961 . S
C3187 C3186 1.502 . S
C3188 H3174 0.960 . S
C3188 H3175 0.961 . S
C3188 H3176 0.959 . S
C3188 C3186 1.561 . S
C3189 C3186 1.526 . S
C3189 C3190 1.396 1_565 S
C3189 C3194 1.409 . S
C3190 C3184 1.465 . S
C3190 C3189 1.396 1_545 S
C3190 C3191 1.399 1_554 S
C3191 H3177 0.929 . S
C3191 C3190 1.399 1_556 S
C3191 C3192 1.385 1_545 S
C3192 H3178 0.931 . S
C3192 C3191 1.385 1_565 S
C3192 C3193 1.389 . S
C3193 C3192 1.389 . S
C3193 C3194 1.356 1_556 S
C3194 H3179 0.942 . S
C3194 C3189 1.409 . S
C3194 C3193 1.356 1_554 S
H3195 C3207 0.930 . S
H3196 C3209 0.930 . S
H3197 C3210 0.930 . S
H3198 C3214 0.959 . S
H3199 C3214 0.959 1_455 S
H3200 C3214 0.961 . S
H3201 C3215 0.960 . S
H3202 C3215 0.961 . S
H3203 C3215 0.959 . S
H3204 C3218 0.929 . S
H3205 C3219 0.931 . S
H3206 C3221 0.924 1_554 S
C3207 H3195 0.930 . S
C3207 C3208 1.399 . S
C3207 C3212 1.399 . S
C3208 C3207 1.399 . S
C3208 C3209 1.376 . S
C3209 H3196 0.930 . S
C3209 C3208 1.376 . S
C3209 C3210 1.388 . S
C3210 H3197 0.930 . S
C3210 C3209 1.388 . S
C3210 C3211 1.390 . S
C3211 C3210 1.390 . S
C3211 C3212 1.394 . S
C3211 C3217 1.465 1_655 S
C3212 C3207 1.399 . S
C3212 C3211 1.394 . S
C3212 C3213 1.516 1_655 S
C3213 C3212 1.516 1_455 S
C3213 C3214 1.502 1_455 S
C3213 C3215 1.561 . S
C3213 C3216 1.526 . S
C3214 H3198 0.959 . S
C3214 H3199 0.959 1_655 S
C3214 H3200 0.961 . S
C3214 C3213 1.502 1_655 S
C3215 H3201 0.960 . S
C3215 H3202 0.961 . S
C3215 H3203 0.959 . S
C3215 C3213 1.561 . S
C3216 C3213 1.526 . S
C3216 C3217 1.396 . S
C3216 C3221 1.370 1_554 S
C3217 C3211 1.465 1_455 S
C3217 C3216 1.396 . S
C3217 C3218 1.399 1_554 S
C3218 H3204 0.929 . S
C3218 C3217 1.399 1_556 S
C3218 C3219 1.385 . S
C3219 H3205 0.931 . S
C3219 C3218 1.385 . S
C3219 C3220 1.389 . S
C3220 C3219 1.389 . S
C3220 C3221 1.413 . S
C3221 H3206 0.924 1_556 S
C3221 C3216 1.370 1_556 S
C3221 C3220 1.413 . S
H3222 C3234 0.930 . S
H3223 C3236 0.930 . S
H3224 C3237 0.930 . S
H3225 C3241 0.959 1_556 S
H3226 C3241 0.959 . S
H3227 C3241 0.961 1_556 S
H3228 C3242 0.960 . S
H3229 C3242 0.961 . S
H3230 C3242 0.959 . S
H3231 C3245 0.929 . S
H3232 C3246 0.931 . S
H3233 C3248 0.930 . S
C3234 H3222 0.930 . S
C3234 C3235 1.399 . S
C3234 C3239 1.399 1_556 S
C3235 C3234 1.399 . S
C3235 C3236 1.376 . S
C3236 H3223 0.930 . S
C3236 C3235 1.376 . S
C3236 C3237 1.388 1_556 S
C3237 H3224 0.930 . S
C3237 C3236 1.388 1_554 S
C3237 C3238 1.390 . S
C3238 C3237 1.390 . S
C3238 C3239 1.394 . S
C3238 C3244 1.465 . S
C3239 C3234 1.399 1_554 S
C3239 C3238 1.394 . S
C3239 C3240 1.516 . S
C3240 C3239 1.516 . S
C3240 C3241 1.502 . S
C3240 C3242 1.561 . S
C3240 C3243 1.526 . S
C3241 H3225 0.959 1_554 S
C3241 H3226 0.959 . S
C3241 H3227 0.961 1_554 S
C3241 C3240 1.502 . S
C3242 H3228 0.960 . S
C3242 H3229 0.961 . S
C3242 H3230 0.959 . S
C3242 C3240 1.561 . S
C3243 C3240 1.526 . S
C3243 C3244 1.396 . S
C3243 C3248 1.390 . S
C3244 C3238 1.465 . S
C3244 C3243 1.396 . S
C3244 C3245 1.399 . S
C3245 H3231 0.929 . S
C3245 C3244 1.399 . S
C3245 C3246 1.385 . S
C3246 H3232 0.931 . S
C3246 C3245 1.385 . S
C3246 C3247 1.389 . S
C3247 C3246 1.389 . S
C3247 C3248 1.387 . S
C3248 H3233 0.930 . S
C3248 C3243 1.390 . S
C3248 C3247 1.387 . S
H3249 C3261 0.930 . S
H3250 C3263 0.930 . S
H3251 C3264 0.930 . S
H3252 C3268 0.959 . S
H3253 C3268 0.959 . S
H3254 C3268 0.961 . S
H3255 C3269 0.960 . S
H3256 C3269 0.961 . S
H3257 C3269 0.959 . S
H3258 C3272 0.909 1_655 S
H3259 C3273 0.931 . S
H3260 C3275 0.930 . S
C3261 H3249 0.930 . S
C3261 C3262 1.399 . S
C3261 C3266 1.399 . S
C3262 C3261 1.399 . S
C3262 C3263 1.376 . S
C3263 H3250 0.930 . S
C3263 C3262 1.376 . S
C3263 C3264 1.388 . S
C3264 H3251 0.930 . S
C3264 C3263 1.388 . S
C3264 C3265 1.390 . S
C3265 C3264 1.390 . S
C3265 C3266 1.394 . S
C3265 C3271 1.465 1_655 S
C3266 C3261 1.399 . S
C3266 C3265 1.394 . S
C3266 C3267 1.516 1_655 S
C3267 C3266 1.516 1_455 S
C3267 C3268 1.502 . S
C3267 C3269 1.561 . S
C3267 C3270 1.526 . S
C3268 H3252 0.959 . S
C3268 H3253 0.959 . S
C3268 H3254 0.961 . S
C3268 C3267 1.502 . S
C3269 H3255 0.960 . S
C3269 H3256 0.961 . S
C3269 H3257 0.959 . S
C3269 C3267 1.561 . S
C3270 C3267 1.526 . S
C3270 C3271 1.396 . S
C3270 C3275 1.390 . S
C3271 C3265 1.465 1_455 S
C3271 C3270 1.396 . S
C3271 C3272 1.391 . S
C3272 H3258 0.909 1_455 S
C3272 C3271 1.391 . S
C3272 C3273 1.415 . S
C3273 H3259 0.931 . S
C3273 C3272 1.415 . S
C3273 C3274 1.389 . S
C3274 C3273 1.389 . S
C3274 C3275 1.387 . S
C3275 H3260 0.930 . S
C3275 C3270 1.390 . S
C3275 C3274 1.387 . S
H3276 C3288 0.930 . S
H3277 C3290 0.930 . S
H3278 C3291 0.930 . S
H3279 C3295 0.959 . S
H3280 C3295 0.959 . S
H3281 C3295 0.961 . S
H3282 C3296 0.960 . S
H3283 C3296 0.961 . S
H3284 C3296 0.959 . S
H3285 C3299 0.929 . S
H3286 C3300 0.931 . S
H3287 C3302 0.930 . S
C3288 H3276 0.930 . S
C3288 C3289 1.399 . S
C3288 C3293 1.399 . S
C3289 C3288 1.399 . S
C3289 C3290 1.376 . S
C3290 H3277 0.930 . S
C3290 C3289 1.376 . S
C3290 C3291 1.388 . S
C3291 H3278 0.930 . S
C3291 C3290 1.388 . S
C3291 C3292 1.390 . S
C3292 C3291 1.390 . S
C3292 C3293 1.394 . S
C3292 C3298 1.465 . S
C3293 C3288 1.399 . S
C3293 C3292 1.394 . S
C3293 C3294 1.516 . S
C3294 C3293 1.516 . S
C3294 C3295 1.502 . S
C3294 C3296 1.561 . S
C3294 C3297 1.526 . S
C3295 H3279 0.959 . S
C3295 H3280 0.959 . S
C3295 H3281 0.961 . S
C3295 C3294 1.502 . S
C3296 H3282 0.960 . S
C3296 H3283 0.961 . S
C3296 H3284 0.959 . S
C3296 C3294 1.561 . S
C3297 C3294 1.526 . S
C3297 C3298 1.396 . S
C3297 C3302 1.390 . S
C3298 C3292 1.465 . S
C3298 C3297 1.396 . S
C3298 C3299 1.399 . S
C3299 H3285 0.929 . S
C3299 C3298 1.399 . S
C3299 C3300 1.385 . S
C3300 H3286 0.931 . S
C3300 C3299 1.385 . S
C3300 C3301 1.389 . S
C3301 C3300 1.389 . S
C3301 C3302 1.387 . S
C3302 H3287 0.930 . S
C3302 C3297 1.390 . S
C3302 C3301 1.387 . S
H3303 C3315 0.930 . S
H3304 C3317 0.930 . S
H3305 C3318 0.930 1_545 S
H3306 C3322 0.959 . S
H3307 C3322 0.959 . S
H3308 C3322 0.961 . S
H3309 C3323 0.960 . S
H3310 C3323 0.961 . S
H3311 C3323 0.959 1_545 S
H3312 C3326 0.929 . S
H3313 C3327 0.931 . S
H3314 C3329 0.930 . S
C3315 H3303 0.930 . S
C3315 C3316 1.399 . S
C3315 C3320 1.399 . S
C3316 C3315 1.399 . S
C3316 C3317 1.376 . S
C3317 H3304 0.930 . S
C3317 C3316 1.376 . S
C3317 C3318 1.388 . S
C3318 H3305 0.930 1_565 S
C3318 C3317 1.388 . S
C3318 C3319 1.390 . S
C3319 C3318 1.390 . S
C3319 C3320 1.394 . S
C3319 C3325 1.465 1_565 S
C3320 C3315 1.399 . S
C3320 C3319 1.394 . S
C3320 C3321 1.516 . S
C3321 C3320 1.516 . S
C3321 C3322 1.502 . S
C3321 C3323 1.561 . S
C3321 C3324 1.526 1_565 S
C3322 H3306 0.959 . S
C3322 H3307 0.959 . S
C3322 H3308 0.961 . S
C3322 C3321 1.502 . S
C3323 H3309 0.960 . S
C3323 H3310 0.961 . S
C3323 H3311 0.959 1_565 S
C3323 C3321 1.561 . S
C3324 C3321 1.526 1_545 S
C3324 C3325 1.396 . S
C3324 C3329 1.390 . S
C3325 C3319 1.465 1_545 S
C3325 C3324 1.396 . S
C3325 C3326 1.399 . S
C3326 H3312 0.929 . S
C3326 C3325 1.399 . S
C3326 C3327 1.385 . S
C3327 H3313 0.931 . S
C3327 C3326 1.385 . S
C3327 C3328 1.389 . S
C3328 C3327 1.389 . S
C3328 C3329 1.387 . S
C3329 H3314 0.930 . S
C3329 C3324 1.390 . S
C3329 C3328 1.387 . S
H3330 C3342 0.930 . S
H3331 C3344 0.930 . S
H3332 C3345 0.930 1_565 S
H3333 C3349 0.959 1_565 S
H3334 C3349 0.959 . S
H3335 C3349 0.961 . S
H3336 C3350 0.960 . S
H3337 C3350 0.961 . S
H3338 C3350 0.959 . S
H3339 C3353 0.929 . S
H3340 C3354 0.931 . S
H3341 C3356 0.930 . S
C3342 H3330 0.930 . S
C3342 C3343 1.399 1_556 S
C3342 C3347 1.399 . S
C3343 C3342 1.399 1_554 S
C3343 C3344 1.376 . S
C3344 H3331 0.930 . S
C3344 C3343 1.376 . S
C3344 C3345 1.388 . S
C3345 H3332 0.930 1_545 S
C3345 C3344 1.388 . S
C3345 C3346 1.390 1_554 S
C3346 C3345 1.390 1_556 S
C3346 C3347 1.394 . S
C3346 C3352 1.465 1_545 S
C3347 C3342 1.399 . S
C3347 C3346 1.394 . S
C3347 C3348 1.516 . S
C3348 C3347 1.516 . S
C3348 C3349 1.502 . S
C3348 C3350 1.561 . S
C3348 C3351 1.526 1_545 S
C3349 H3333 0.959 1_545 S
C3349 H3334 0.959 . S
C3349 H3335 0.961 . S
C3349 C3348 1.502 . S
C3350 H3336 0.960 . S
C3350 H3337 0.961 . S
C3350 H3338 0.959 . S
C3350 C3348 1.561 . S
C3351 C3348 1.526 1_565 S
C3351 C3352 1.396 . S
C3351 C3356 1.390 . S
C3352 C3346 1.465 1_565 S
C3352 C3351 1.396 . S
C3352 C3353 1.399 . S
C3353 H3339 0.929 . S
C3353 C3352 1.399 . S
C3353 C3354 1.385 . S
C3354 H3340 0.931 . S
C3354 C3353 1.385 . S
C3354 C3355 1.389 . S
C3355 C3354 1.389 . S
C3355 C3356 1.387 . S
C3356 H3341 0.930 . S
C3356 C3351 1.390 . S
C3356 C3355 1.387 . S
H3357 C3369 0.930 . S
H3358 C3371 0.930 . S
H3359 C3372 0.930 . S
H3360 C3376 0.959 . S
H3361 C3376 0.959 . S
H3362 C3376 0.961 . S
H3363 C3377 0.960 . S
H3364 C3377 0.961 1_556 S
H3365 C3377 0.959 . S
H3366 C3380 0.929 . S
H3367 C3381 0.931 . S
H3368 C3383 0.930 . S
C3369 H3357 0.930 . S
C3369 C3370 1.399 . S
C3369 C3374 1.399 1_554 S
C3370 C3369 1.399 . S
C3370 C3371 1.376 . S
C3371 H3358 0.930 . S
C3371 C3370 1.376 . S
C3371 C3372 1.388 1_554 S
C3372 H3359 0.930 . S
C3372 C3371 1.388 1_556 S
C3372 C3373 1.390 . S
C3373 C3372 1.390 . S
C3373 C3374 1.394 . S
C3373 C3379 1.465 1_655 S
C3374 C3369 1.399 1_556 S
C3374 C3373 1.394 . S
C3374 C3375 1.516 1_655 S
C3375 C3374 1.516 1_455 S
C3375 C3376 1.502 1_455 S
C3375 C3377 1.561 1_556 S
C3375 C3378 1.526 . S
C3376 H3360 0.959 . S
C3376 H3361 0.959 . S
C3376 H3362 0.961 . S
C3376 C3375 1.502 1_655 S
C3377 H3363 0.960 . S
C3377 H3364 0.961 1_554 S
C3377 H3365 0.959 . S
C3377 C3375 1.561 1_554 S
C3378 C3375 1.526 . S
C3378 C3379 1.396 . S
C3378 C3383 1.390 . S
C3379 C3373 1.465 1_455 S
C3379 C3378 1.396 . S
C3379 C3380 1.399 . S
C3380 H3366 0.929 . S
C3380 C3379 1.399 . S
C3380 C3381 1.385 . S
C3381 H3367 0.931 . S
C3381 C3380 1.385 . S
C3381 C3382 1.389 . S
C3382 C3381 1.389 . S
C3382 C3383 1.387 . S
C3383 H3368 0.930 . S
C3383 C3378 1.390 . S
C3383 C3382 1.387 . S
H3384 C3396 0.930 . S
H3385 C3398 0.930 . S
H3386 C3399 0.930 . S
H3387 C3403 0.959 . S
H3388 C3403 0.959 . S
H3389 C3403 0.961 . S
H3390 C3404 0.960 . S
H3391 C3404 0.961 1_554 S
H3392 C3404 0.959 1_554 S
H3393 C3407 0.929 . S
H3394 C3408 0.931 . S
H3395 C3410 0.930 . S
C3396 H3384 0.930 . S
C3396 C3397 1.399 . S
C3396 C3401 1.399 . S
C3397 C3396 1.399 . S
C3397 C3398 1.376 . S
C3398 H3385 0.930 . S
C3398 C3397 1.376 . S
C3398 C3399 1.388 . S
C3399 H3386 0.930 . S
C3399 C3398 1.388 . S
C3399 C3400 1.390 . S
C3400 C3399 1.390 . S
C3400 C3401 1.394 . S
C3400 C3406 1.465 . S
C3401 C3396 1.399 . S
C3401 C3400 1.394 . S
C3401 C3402 1.516 . S
C3402 C3401 1.516 . S
C3402 C3403 1.502 . S
C3402 C3404 1.561 . S
C3402 C3405 1.526 . S
C3403 H3387 0.959 . S
C3403 H3388 0.959 . S
C3403 H3389 0.961 . S
C3403 C3402 1.502 . S
C3404 H3390 0.960 . S
C3404 H3391 0.961 1_556 S
C3404 H3392 0.959 1_556 S
C3404 C3402 1.561 . S
C3405 C3402 1.526 . S
C3405 C3406 1.396 . S
C3405 C3410 1.390 1_556 S
C3406 C3400 1.465 . S
C3406 C3405 1.396 . S
C3406 C3407 1.399 . S
C3407 H3393 0.929 . S
C3407 C3406 1.399 . S
C3407 C3408 1.385 1_556 S
C3408 H3394 0.931 . S
C3408 C3407 1.385 1_554 S
C3408 C3409 1.389 . S
C3409 C3408 1.389 . S
C3409 C3410 1.387 . S
C3410 H3395 0.930 . S
C3410 C3405 1.390 1_554 S
C3410 C3409 1.387 . S
H3411 C3423 0.930 . S
H3412 C3425 0.930 . S
H3413 C3426 0.930 . S
H3414 C3430 0.959 . S
H3415 C3430 0.959 1_455 S
H3416 C3430 0.961 . S
H3417 C3431 0.960 . S
H3418 C3431 0.961 . S
H3419 C3431 0.959 . S
H3420 C3434 0.929 . S
H3421 C3435 0.931 . S
H3422 C3437 0.930 . S
C3423 H3411 0.930 . S
C3423 C3424 1.399 . S
C3423 C3428 1.399 . S
C3424 C3423 1.399 . S
C3424 C3425 1.376 . S
C3425 H3412 0.930 . S
C3425 C3424 1.376 . S
C3425 C3426 1.388 . S
C3426 H3413 0.930 . S
C3426 C3425 1.388 . S
C3426 C3427 1.390 . S
C3427 C3426 1.390 . S
C3427 C3428 1.394 . S
C3427 C3433 1.465 1_655 S
C3428 C3423 1.399 . S
C3428 C3427 1.394 . S
C3428 C3429 1.516 1_655 S
C3429 C3428 1.516 1_455 S
C3429 C3430 1.502 1_455 S
C3429 C3431 1.561 . S
C3429 C3432 1.526 . S
C3430 H3414 0.959 . S
C3430 H3415 0.959 1_655 S
C3430 H3416 0.961 . S
C3430 C3429 1.502 1_655 S
C3431 H3417 0.960 . S
C3431 H3418 0.961 . S
C3431 H3419 0.959 . S
C3431 C3429 1.561 . S
C3432 C3429 1.526 . S
C3432 C3433 1.396 . S
C3432 C3437 1.390 . S
C3433 C3427 1.465 1_455 S
C3433 C3432 1.396 . S
C3433 C3434 1.399 . S
C3434 H3420 0.929 . S
C3434 C3433 1.399 . S
C3434 C3435 1.385 . S
C3435 H3421 0.931 . S
C3435 C3434 1.385 . S
C3435 C3436 1.389 . S
C3436 C3435 1.389 . S
C3436 C3437 1.387 . S
C3437 H3422 0.930 . S
C3437 C3432 1.390 . S
C3437 C3436 1.387 . S
H3438 C3450 0.930 . S
H3439 C3452 0.930 . S
H3440 C3453 0.930 . S
H3441 C3457 0.959 . S
H3442 C3457 0.959 . S
H3443 C3457 0.961 . S
H3444 C3458 0.960 . S
H3445 C3458 0.961 . S
H3446 C3458 0.959 . S
H3447 C3461 0.929 . S
H3448 C3462 0.931 . S
H3449 C3464 0.930 . S
C3450 H3438 0.930 . S
C3450 C3451 1.399 . S
C3450 C3455 1.399 . S
C3451 C3450 1.399 . S
C3451 C3452 1.376 . S
C3452 H3439 0.930 . S
C3452 C3451 1.376 . S
C3452 C3453 1.388 . S
C3453 H3440 0.930 . S
C3453 C3452 1.388 . S
C3453 C3454 1.390 . S
C3454 C3453 1.390 . S
C3454 C3455 1.394 . S
C3454 C3460 1.465 . S
C3455 C3450 1.399 . S
C3455 C3454 1.394 . S
C3455 C3456 1.516 . S
C3456 C3455 1.516 . S
C3456 C3457 1.502 . S
C3456 C3458 1.561 . S
C3456 C3459 1.526 . S
C3457 H3441 0.959 . S
C3457 H3442 0.959 . S
C3457 H3443 0.961 . S
C3457 C3456 1.502 . S
C3458 H3444 0.960 . S
C3458 H3445 0.961 . S
C3458 H3446 0.959 . S
C3458 C3456 1.561 . S
C3459 C3456 1.526 . S
C3459 C3460 1.396 . S
C3459 C3464 1.390 . S
C3460 C3454 1.465 . S
C3460 C3459 1.396 . S
C3460 C3461 1.399 . S
C3461 H3447 0.929 . S
C3461 C3460 1.399 . S
C3461 C3462 1.385 . S
C3462 H3448 0.931 . S
C3462 C3461 1.385 . S
C3462 C3463 1.389 . S
C3463 C3462 1.389 . S
C3463 C3464 1.387 . S
C3464 H3449 0.930 . S
C3464 C3459 1.390 . S
C3464 C3463 1.387 . S
H3465 C3477 0.930 . S
H3466 C3479 0.930 . S
H3467 C3480 0.930 1_565 S
H3468 C3484 0.959 . S
H3469 C3484 0.959 . S
H3470 C3484 0.961 . S
H3471 C3485 0.960 . S
H3472 C3485 0.934 1_565 S
H3473 C3485 0.959 1_565 S
H3474 C3488 0.929 . S
H3475 C3489 0.931 . S
H3476 C3491 0.930 . S
C3477 H3465 0.930 . S
C3477 C3478 1.399 . S
C3477 C3482 1.399 . S
C3478 C3477 1.399 . S
C3478 C3479 1.376 . S
C3479 H3466 0.930 . S
C3479 C3478 1.376 . S
C3479 C3480 1.388 . S
C3480 H3467 0.930 1_545 S
C3480 C3479 1.388 . S
C3480 C3481 1.390 . S
C3481 C3480 1.390 . S
C3481 C3482 1.394 . S
C3481 C3487 1.465 1_545 S
C3482 C3477 1.399 . S
C3482 C3481 1.394 . S
C3482 C3483 1.516 . S
C3483 C3482 1.516 . S
C3483 C3484 1.502 . S
C3483 C3485 1.561 . S
C3483 C3486 1.526 1_545 S
C3484 H3468 0.959 . S
C3484 H3469 0.959 . S
C3484 H3470 0.961 . S
C3484 C3483 1.502 . S
C3485 H3471 0.960 . S
C3485 H3472 0.934 1_545 S
C3485 H3473 0.959 1_545 S
C3485 C3483 1.561 . S
C3486 C3483 1.526 1_565 S
C3486 C3487 1.396 . S
C3486 C3491 1.390 . S
C3487 C3481 1.465 1_565 S
C3487 C3486 1.396 . S
C3487 C3488 1.399 . S
C3488 H3474 0.929 . S
C3488 C3487 1.399 . S
C3488 C3489 1.385 . S
C3489 H3475 0.931 . S
C3489 C3488 1.385 . S
C3489 C3490 1.389 . S
C3490 C3489 1.389 . S
C3490 C3491 1.387 . S
C3491 H3476 0.930 . S
C3491 C3486 1.390 . S
C3491 C3490 1.387 . S
H3492 C3504 0.930 . S
H3493 C3506 0.930 . S
H3494 C3507 0.930 . S
H3495 C3511 0.959 . S
H3496 C3511 0.959 . S
H3497 C3511 0.961 . S
H3498 C3512 0.960 . S
H3499 C3512 0.961 . S
H3500 C3512 0.959 . S
H3501 C3515 0.929 . S
H3502 C3516 0.931 . S
H3503 C3518 0.930 . S
C3504 H3492 0.930 . S
C3504 C3505 1.399 . S
C3504 C3509 1.399 . S
C3505 C3504 1.399 . S
C3505 C3506 1.376 . S
C3506 H3493 0.930 . S
C3506 C3505 1.376 . S
C3506 C3507 1.388 . S
C3507 H3494 0.930 . S
C3507 C3506 1.388 . S
C3507 C3508 1.390 . S
C3508 C3507 1.390 . S
C3508 C3509 1.394 . S
C3508 C3514 1.465 . S
C3509 C3504 1.399 . S
C3509 C3508 1.394 . S
C3509 C3510 1.516 . S
C3510 C3509 1.516 . S
C3510 C3511 1.502 . S
C3510 C3512 1.561 . S
C3510 C3513 1.526 . S
C3511 H3495 0.959 . S
C3511 H3496 0.959 . S
C3511 H3497 0.961 . S
C3511 C3510 1.502 . S
C3512 H3498 0.960 . S
C3512 H3499 0.961 . S
C3512 H3500 0.959 . S
C3512 C3510 1.561 . S
C3513 C3510 1.526 . S
C3513 C3514 1.396 . S
C3513 C3518 1.390 . S
C3514 C3508 1.465 . S
C3514 C3513 1.396 . S
C3514 C3515 1.399 . S
C3515 H3501 0.929 . S
C3515 C3514 1.399 . S
C3515 C3516 1.385 . S
C3516 H3502 0.931 . S
C3516 C3515 1.385 . S
C3516 C3517 1.389 . S
C3517 C3516 1.389 . S
C3517 C3518 1.387 . S
C3518 H3503 0.930 . S
C3518 C3513 1.390 . S
C3518 C3517 1.387 . S
H3519 C3531 0.930 . S
H3520 C3533 0.930 . S
H3521 C3534 0.930 . S
H3522 C3538 0.959 . S
H3523 C3538 0.959 . S
H3524 C3538 0.961 . S
H3525 C3539 0.960 . S
H3526 C3539 0.961 . S
H3527 C3539 0.959 . S
H3528 C3542 0.929 . S
H3529 C3543 0.931 . S
H3530 C3545 0.930 . S
C3531 H3519 0.930 . S
C3531 C3532 1.399 . S
C3531 C3536 1.399 . S
C3532 C3531 1.399 . S
C3532 C3533 1.376 . S
C3533 H3520 0.930 . S
C3533 C3532 1.376 . S
C3533 C3534 1.388 . S
C3534 H3521 0.930 . S
C3534 C3533 1.388 . S
C3534 C3535 1.390 . S
C3535 C3534 1.390 . S
C3535 C3536 1.394 . S
C3535 C3541 1.465 . S
C3536 C3531 1.399 . S
C3536 C3535 1.394 . S
C3536 C3537 1.516 . S
C3537 C3536 1.516 . S
C3537 C3538 1.502 . S
C3537 C3539 1.561 . S
C3537 C3540 1.526 . S
C3538 H3522 0.959 . S
C3538 H3523 0.959 . S
C3538 H3524 0.961 . S
C3538 C3537 1.502 . S
C3539 H3525 0.960 . S
C3539 H3526 0.961 . S
C3539 H3527 0.959 . S
C3539 C3537 1.561 . S
C3540 C3537 1.526 . S
C3540 C3541 1.396 . S
C3540 C3545 1.390 . S
C3541 C3535 1.465 . S
C3541 C3540 1.396 . S
C3541 C3542 1.399 . S
C3542 H3528 0.929 . S
C3542 C3541 1.399 . S
C3542 C3543 1.385 . S
C3543 H3529 0.931 . S
C3543 C3542 1.385 . S
C3543 C3544 1.389 . S
C3544 C3543 1.389 . S
C3544 C3545 1.387 . S
C3545 H3530 0.930 . S
C3545 C3540 1.390 . S
C3545 C3544 1.387 . S
H3546 C3558 0.930 . S
H3547 C3560 0.930 . S
H3548 C3561 0.930 . S
H3549 C3565 0.959 . S
H3550 C3565 0.959 . S
H3551 C3565 0.961 . S
H3552 C3566 0.960 . S
H3553 C3566 0.961 . S
H3554 C3566 0.959 . S
H3555 C3569 0.929 . S
H3556 C3570 0.931 . S
H3557 C3572 0.930 . S
C3558 H3546 0.930 . S
C3558 C3559 1.399 . S
C3558 C3563 1.399 . S
C3559 C3558 1.399 . S
C3559 C3560 1.376 . S
C3560 H3547 0.930 . S
C3560 C3559 1.376 . S
C3560 C3561 1.388 . S
C3561 H3548 0.930 . S
C3561 C3560 1.388 . S
C3561 C3562 1.390 . S
C3562 C3561 1.390 . S
C3562 C3563 1.394 . S
C3562 C3568 1.465 . S
C3563 C3558 1.399 . S
C3563 C3562 1.394 . S
C3563 C3564 1.516 . S
C3564 C3563 1.516 . S
C3564 C3565 1.502 . S
C3564 C3566 1.561 . S
C3564 C3567 1.526 . S
C3565 H3549 0.959 . S
C3565 H3550 0.959 . S
C3565 H3551 0.961 . S
C3565 C3564 1.502 . S
C3566 H3552 0.960 . S
C3566 H3553 0.961 . S
C3566 H3554 0.959 . S
C3566 C3564 1.561 . S
C3567 C3564 1.526 . S
C3567 C3568 1.396 . S
C3567 C3572 1.390 . S
C3568 C3562 1.465 . S
C3568 C3567 1.396 . S
C3568 C3569 1.399 . S
C3569 H3555 0.929 . S
C3569 C3568 1.399 . S
C3569 C3570 1.385 . S
C3570 H3556 0.931 . S
C3570 C3569 1.385 . S
C3570 C3571 1.389 . S
C3571 C3570 1.389 . S
C3571 C3572 1.387 . S
C3572 H3557 0.930 . S
C3572 C3567 1.390 . S
C3572 C3571 1.387 . S
H3573 C3585 0.930 . S
H3574 C3587 0.930 . S
H3575 C3588 0.930 . S
H3576 C3592 0.959 . S
H3577 C3592 0.959 . S
H3578 C3592 0.961 . S
H3579 C3593 0.960 . S
H3580 C3593 0.961 . S
H3581 C3593 0.959 . S
H3582 C3596 0.929 . S
H3583 C3597 0.931 . S
H3584 C3599 0.930 . S
C3585 H3573 0.930 . S
C3585 C3586 1.399 . S
C3585 C3590 1.399 . S
C3586 C3585 1.399 . S
C3586 C3587 1.376 . S
C3587 H3574 0.930 . S
C3587 C3586 1.376 . S
C3587 C3588 1.388 . S
C3588 H3575 0.930 . S
C3588 C3587 1.388 . S
C3588 C3589 1.390 . S
C3589 C3588 1.390 . S
C3589 C3590 1.394 . S
C3589 C3595 1.465 . S
C3590 C3585 1.399 . S
C3590 C3589 1.394 . S
C3590 C3591 1.516 . S
C3591 C3590 1.516 . S
C3591 C3592 1.502 . S
C3591 C3593 1.561 . S
C3591 C3594 1.526 . S
C3592 H3576 0.959 . S
C3592 H3577 0.959 . S
C3592 H3578 0.961 . S
C3592 C3591 1.502 . S
C3593 H3579 0.960 . S
C3593 H3580 0.961 . S
C3593 H3581 0.959 . S
C3593 C3591 1.561 . S
C3594 C3591 1.526 . S
C3594 C3595 1.396 . S
C3594 C3599 1.390 . S
C3595 C3589 1.465 . S
C3595 C3594 1.396 . S
C3595 C3596 1.399 . S
C3596 H3582 0.929 . S
C3596 C3595 1.399 . S
C3596 C3597 1.385 . S
C3597 H3583 0.931 . S
C3597 C3596 1.385 . S
C3597 C3598 1.389 . S
C3598 C3597 1.389 . S
C3598 C3599 1.387 . S
C3599 H3584 0.930 . S
C3599 C3594 1.390 . S
C3599 C3598 1.387 . S
H3600 C3612 0.930 . S
H3601 C3614 0.930 . S
H3602 C3615 0.930 . S
H3603 C3619 0.959 . S
H3604 C3619 0.959 . S
H3605 C3619 0.961 . S
H3606 C3620 0.960 . S
H3607 C3620 0.961 . S
H3608 C3620 0.959 . S
H3609 C3623 0.929 . S
H3610 C3624 0.931 . S
H3611 C3626 0.930 . S
C3612 H3600 0.930 . S
C3612 C3613 1.399 . S
C3612 C3617 1.399 . S
C3613 C3612 1.399 . S
C3613 C3614 1.376 . S
C3614 H3601 0.930 . S
C3614 C3613 1.376 . S
C3614 C3615 1.388 . S
C3615 H3602 0.930 . S
C3615 C3614 1.388 . S
C3615 C3616 1.390 . S
C3616 C3615 1.390 . S
C3616 C3617 1.394 . S
C3616 C3622 1.465 . S
C3617 C3612 1.399 . S
C3617 C3616 1.394 . S
C3617 C3618 1.516 . S
C3618 C3617 1.516 . S
C3618 C3619 1.502 . S
C3618 C3620 1.561 . S
C3618 C3621 1.526 . S
C3619 H3603 0.959 . S
C3619 H3604 0.959 . S
C3619 H3605 0.961 . S
C3619 C3618 1.502 . S
C3620 H3606 0.960 . S
C3620 H3607 0.961 . S
C3620 H3608 0.959 . S
C3620 C3618 1.561 . S
C3621 C3618 1.526 . S
C3621 C3622 1.396 . S
C3621 C3626 1.390 . S
C3622 C3616 1.465 . S
C3622 C3621 1.396 . S
C3622 C3623 1.399 . S
C3623 H3609 0.929 . S
C3623 C3622 1.399 . S
C3623 C3624 1.385 . S
C3624 H3610 0.931 . S
C3624 C3623 1.385 . S
C3624 C3625 1.389 . S
C3625 C3624 1.389 . S
C3625 C3626 1.387 . S
C3626 H3611 0.930 . S
C3626 C3621 1.390 . S
C3626 C3625 1.387 . S
H3627 C3639 0.930 . S
H3628 C3641 0.930 . S
H3629 C3642 0.930 . S
H3630 C3646 0.959 . S
H3631 C3646 0.959 . S
H3632 C3646 0.961 . S
H3633 C3647 0.960 . S
H3634 C3647 0.961 . S
H3635 C3647 0.959 . S
H3636 C3650 0.929 . S
H3637 C3651 0.931 . S
H3638 C3653 0.930 . S
C3639 H3627 0.930 . S
C3639 C3640 1.399 . S
C3639 C3644 1.399 . S
C3640 C3639 1.399 . S
C3640 C3641 1.376 . S
C3641 H3628 0.930 . S
C3641 C3640 1.376 . S
C3641 C3642 1.388 . S
C3642 H3629 0.930 . S
C3642 C3641 1.388 . S
C3642 C3643 1.390 . S
C3643 C3642 1.390 . S
C3643 C3644 1.394 . S
C3643 C3649 1.465 . S
C3644 C3639 1.399 . S
C3644 C3643 1.394 . S
C3644 C3645 1.516 . S
C3645 C3644 1.516 . S
C3645 C3646 1.502 . S
C3645 C3647 1.561 . S
C3645 C3648 1.526 . S
C3646 H3630 0.959 . S
C3646 H3631 0.959 . S
C3646 H3632 0.961 . S
C3646 C3645 1.502 . S
C3647 H3633 0.960 . S
C3647 H3634 0.961 . S
C3647 H3635 0.959 . S
C3647 C3645 1.561 . S
C3648 C3645 1.526 . S
C3648 C3649 1.396 . S
C3648 C3653 1.390 . S
C3649 C3643 1.465 . S
C3649 C3648 1.396 . S
C3649 C3650 1.399 . S
C3650 H3636 0.929 . S
C3650 C3649 1.399 . S
C3650 C3651 1.385 . S
C3651 H3637 0.931 . S
C3651 C3650 1.385 . S
C3651 C3652 1.389 . S
C3652 C3651 1.389 . S
C3652 C3653 1.387 . S
C3653 H3638 0.930 . S
C3653 C3648 1.390 . S
C3653 C3652 1.387 . S
H3654 C3666 0.930 . S
H3655 C3668 0.930 . S
H3656 C3669 0.930 . S
H3657 C3673 0.959 . S
H3658 C3673 0.959 . S
H3659 C3673 0.961 . S
H3660 C3674 0.960 . S
H3661 C3674 0.961 . S
H3662 C3674 0.959 . S
H3663 C3677 0.929 . S
H3664 C3678 0.931 . S
H3665 C3680 0.930 . S
C3666 H3654 0.930 . S
C3666 C3667 1.399 . S
C3666 C3671 1.399 . S
C3667 C3666 1.399 . S
C3667 C3668 1.376 . S
C3668 H3655 0.930 . S
C3668 C3667 1.376 . S
C3668 C3669 1.388 . S
C3669 H3656 0.930 . S
C3669 C3668 1.388 . S
C3669 C3670 1.390 . S
C3670 C3669 1.390 . S
C3670 C3671 1.394 . S
C3670 C3676 1.465 . S
C3671 C3666 1.399 . S
C3671 C3670 1.394 . S
C3671 C3672 1.516 . S
C3672 C3671 1.516 . S
C3672 C3673 1.502 . S
C3672 C3674 1.561 . S
C3672 C3675 1.526 . S
C3673 H3657 0.959 . S
C3673 H3658 0.959 . S
C3673 H3659 0.961 . S
C3673 C3672 1.502 . S
C3674 H3660 0.960 . S
C3674 H3661 0.961 . S
C3674 H3662 0.959 . S
C3674 C3672 1.561 . S
C3675 C3672 1.526 . S
C3675 C3676 1.396 . S
C3675 C3680 1.390 . S
C3676 C3670 1.465 . S
C3676 C3675 1.396 . S
C3676 C3677 1.399 . S
C3677 H3663 0.929 . S
C3677 C3676 1.399 . S
C3677 C3678 1.385 . S
C3678 H3664 0.931 . S
C3678 C3677 1.385 . S
C3678 C3679 1.389 . S
C3679 C3678 1.389 . S
C3679 C3680 1.387 . S
C3680 H3665 0.930 . S
C3680 C3675 1.390 . S
C3680 C3679 1.387 . S
H3681 C3693 0.930 . S
H3682 C3695 0.930 . S
H3683 C3696 0.930 . S
H3684 C3700 0.959 . S
H3685 C3700 0.959 . S
H3686 C3700 0.961 . S
H3687 C3701 0.960 . S
H3688 C3701 0.961 . S
H3689 C3701 0.959 . S
H3690 C3704 0.929 . S
H3691 C3705 0.931 . S
H3692 C3707 0.930 . S
C3693 H3681 0.930 . S
C3693 C3694 1.399 . S
C3693 C3698 1.399 . S
C3694 C3693 1.399 . S
C3694 C3695 1.376 . S
C3695 H3682 0.930 . S
C3695 C3694 1.376 . S
C3695 C3696 1.388 . S
C3696 H3683 0.930 . S
C3696 C3695 1.388 . S
C3696 C3697 1.390 . S
C3697 C3696 1.390 . S
C3697 C3698 1.394 . S
C3697 C3703 1.465 . S
C3698 C3693 1.399 . S
C3698 C3697 1.394 . S
C3698 C3699 1.516 . S
C3699 C3698 1.516 . S
C3699 C3700 1.502 . S
C3699 C3701 1.561 . S
C3699 C3702 1.526 . S
C3700 H3684 0.959 . S
C3700 H3685 0.959 . S
C3700 H3686 0.961 . S
C3700 C3699 1.502 . S
C3701 H3687 0.960 . S
C3701 H3688 0.961 . S
C3701 H3689 0.959 . S
C3701 C3699 1.561 . S
C3702 C3699 1.526 . S
C3702 C3703 1.396 . S
C3702 C3707 1.390 . S
C3703 C3697 1.465 . S
C3703 C3702 1.396 . S
C3703 C3704 1.399 . S
C3704 H3690 0.929 . S
C3704 C3703 1.399 . S
C3704 C3705 1.385 . S
C3705 H3691 0.931 . S
C3705 C3704 1.385 . S
C3705 C3706 1.389 . S
C3706 C3705 1.389 . S
C3706 C3707 1.387 . S
C3707 H3692 0.930 . S
C3707 C3702 1.390 . S
C3707 C3706 1.387 . S
H3708 C3720 0.930 . S
H3709 C3722 0.930 . S
H3710 C3723 0.930 . S
H3711 C3727 0.959 . S
H3712 C3727 0.959 . S
H3713 C3727 0.961 . S
H3714 C3728 0.960 . S
H3715 C3728 0.961 . S
H3716 C3728 0.959 . S
H3717 C3731 0.929 . S
H3718 C3732 0.931 . S
H3719 C3734 0.930 . S
C3720 H3708 0.930 . S
C3720 C3721 1.399 . S
C3720 C3725 1.399 . S
C3721 C3720 1.399 . S
C3721 C3722 1.376 . S
C3722 H3709 0.930 . S
C3722 C3721 1.376 . S
C3722 C3723 1.388 . S
C3723 H3710 0.930 . S
C3723 C3722 1.388 . S
C3723 C3724 1.390 . S
C3724 C3723 1.390 . S
C3724 C3725 1.394 . S
C3724 C3730 1.465 . S
C3725 C3720 1.399 . S
C3725 C3724 1.394 . S
C3725 C3726 1.516 . S
C3726 C3725 1.516 . S
C3726 C3727 1.502 . S
C3726 C3728 1.561 . S
C3726 C3729 1.526 . S
C3727 H3711 0.959 . S
C3727 H3712 0.959 . S
C3727 H3713 0.961 . S
C3727 C3726 1.502 . S
C3728 H3714 0.960 . S
C3728 H3715 0.961 . S
C3728 H3716 0.959 . S
C3728 C3726 1.561 . S
C3729 C3726 1.526 . S
C3729 C3730 1.396 . S
C3729 C3734 1.390 . S
C3730 C3724 1.465 . S
C3730 C3729 1.396 . S
C3730 C3731 1.399 . S
C3731 H3717 0.929 . S
C3731 C3730 1.399 . S
C3731 C3732 1.385 . S
C3732 H3718 0.931 . S
C3732 C3731 1.385 . S
C3732 C3733 1.389 . S
C3733 C3732 1.389 . S
C3733 C3734 1.387 . S
C3734 H3719 0.930 . S
C3734 C3729 1.390 . S
C3734 C3733 1.387 . S
H3735 C3747 0.930 . S
H3736 C3749 0.930 . S
H3737 C3750 0.930 . S
H3738 C3754 0.959 . S
H3739 C3754 0.959 . S
H3740 C3754 0.961 . S
H3741 C3755 0.960 . S
H3742 C3755 0.961 . S
H3743 C3755 0.959 . S
H3744 C3758 0.929 . S
H3745 C3759 0.931 . S
H3746 C3761 0.930 . S
C3747 H3735 0.930 . S
C3747 C3748 1.399 . S
C3747 C3752 1.399 . S
C3748 C3747 1.399 . S
C3748 C3749 1.376 . S
C3749 H3736 0.930 . S
C3749 C3748 1.376 . S
C3749 C3750 1.388 . S
C3750 H3737 0.930 . S
C3750 C3749 1.388 . S
C3750 C3751 1.390 . S
C3751 C3750 1.390 . S
C3751 C3752 1.394 . S
C3751 C3757 1.465 . S
C3752 C3747 1.399 . S
C3752 C3751 1.394 . S
C3752 C3753 1.516 . S
C3753 C3752 1.516 . S
C3753 C3754 1.502 . S
C3753 C3755 1.561 . S
C3753 C3756 1.526 . S
C3754 H3738 0.959 . S
C3754 H3739 0.959 . S
C3754 H3740 0.961 . S
C3754 C3753 1.502 . S
C3755 H3741 0.960 . S
C3755 H3742 0.961 . S
C3755 H3743 0.959 . S
C3755 C3753 1.561 . S
C3756 C3753 1.526 . S
C3756 C3757 1.396 . S
C3756 C3761 1.390 . S
C3757 C3751 1.465 . S
C3757 C3756 1.396 . S
C3757 C3758 1.399 . S
C3758 H3744 0.929 . S
C3758 C3757 1.399 . S
C3758 C3759 1.385 . S
C3759 H3745 0.931 . S
C3759 C3758 1.385 . S
C3759 C3760 1.389 . S
C3760 C3759 1.389 . S
C3760 C3761 1.387 . S
C3761 H3746 0.930 . S
C3761 C3756 1.390 . S
C3761 C3760 1.387 . S
H3762 C3774 0.930 . S
H3763 C3776 0.930 . S
H3764 C3777 0.930 . S
H3765 C3781 0.959 . S
H3766 C3781 0.959 . S
H3767 C3781 0.961 . S
H3768 C3782 0.960 . S
H3769 C3782 0.961 . S
H3770 C3782 0.959 . S
H3771 C3785 0.929 . S
H3772 C3786 0.931 . S
H3773 C3788 0.930 . S
C3774 H3762 0.930 . S
C3774 C3775 1.399 . S
C3774 C3779 1.399 . S
C3775 C3774 1.399 . S
C3775 C3776 1.376 . S
C3776 H3763 0.930 . S
C3776 C3775 1.376 . S
C3776 C3777 1.388 . S
C3777 H3764 0.930 . S
C3777 C3776 1.388 . S
C3777 C3778 1.390 . S
C3778 C3777 1.390 . S
C3778 C3779 1.394 . S
C3778 C3784 1.465 . S
C3779 C3774 1.399 . S
C3779 C3778 1.394 . S
C3779 C3780 1.516 . S
C3780 C3779 1.516 . S
C3780 C3781 1.502 . S
C3780 C3782 1.561 . S
C3780 C3783 1.526 . S
C3781 H3765 0.959 . S
C3781 H3766 0.959 . S
C3781 H3767 0.961 . S
C3781 C3780 1.502 . S
C3782 H3768 0.960 . S
C3782 H3769 0.961 . S
C3782 H3770 0.959 . S
C3782 C3780 1.561 . S
C3783 C3780 1.526 . S
C3783 C3784 1.396 . S
C3783 C3788 1.390 . S
C3784 C3778 1.465 . S
C3784 C3783 1.396 . S
C3784 C3785 1.399 . S
C3785 H3771 0.929 . S
C3785 C3784 1.399 . S
C3785 C3786 1.385 . S
C3786 H3772 0.931 . S
C3786 C3785 1.385 . S
C3786 C3787 1.389 . S
C3787 C3786 1.389 . S
C3787 C3788 1.387 . S
C3788 H3773 0.930 . S
C3788 C3783 1.390 . S
C3788 C3787 1.387 . S
H3789 C3801 0.930 . S
H3790 C3803 0.930 . S
H3791 C3804 0.930 . S
H3792 C3808 0.959 . S
H3793 C3808 0.959 . S
H3794 C3808 0.961 . S
H3795 C3809 0.960 . S
H3796 C3809 0.961 . S
H3797 C3809 0.959 . S
H3798 C3812 0.929 . S
H3799 C3813 0.931 . S
H3800 C3815 0.930 . S
C3801 H3789 0.930 . S
C3801 C3802 1.399 . S
C3801 C3806 1.399 . S
C3802 C3801 1.399 . S
C3802 C3803 1.376 . S
C3803 H3790 0.930 . S
C3803 C3802 1.376 . S
C3803 C3804 1.388 . S
C3804 H3791 0.930 . S
C3804 C3803 1.388 . S
C3804 C3805 1.390 . S
C3805 C3804 1.390 . S
C3805 C3806 1.394 . S
C3805 C3811 1.465 . S
C3806 C3801 1.399 . S
C3806 C3805 1.394 . S
C3806 C3807 1.516 . S
C3807 C3806 1.516 . S
C3807 C3808 1.502 . S
C3807 C3809 1.561 . S
C3807 C3810 1.526 . S
C3808 H3792 0.959 . S
C3808 H3793 0.959 . S
C3808 H3794 0.961 . S
C3808 C3807 1.502 . S
C3809 H3795 0.960 . S
C3809 H3796 0.961 . S
C3809 H3797 0.959 . S
C3809 C3807 1.561 . S
C3810 C3807 1.526 . S
C3810 C3811 1.396 . S
C3810 C3815 1.390 . S
C3811 C3805 1.465 . S
C3811 C3810 1.396 . S
C3811 C3812 1.399 . S
C3812 H3798 0.929 . S
C3812 C3811 1.399 . S
C3812 C3813 1.385 . S
C3813 H3799 0.931 . S
C3813 C3812 1.385 . S
C3813 C3814 1.389 . S
C3814 C3813 1.389 . S
C3814 C3815 1.387 . S
C3815 H3800 0.930 . S
C3815 C3810 1.390 . S
C3815 C3814 1.387 . S
H3816 C3828 0.930 . S
H3817 C3830 0.930 . S
H3818 C3831 0.930 . S
H3819 C3835 0.959 . S
H3820 C3835 0.959 . S
H3821 C3835 0.961 . S
H3822 C3836 0.960 . S
H3823 C3836 0.961 . S
H3824 C3836 0.959 . S
H3825 C3839 0.929 . S
H3826 C3840 0.931 . S
H3827 C3842 0.930 . S
C3828 H3816 0.930 . S
C3828 C3829 1.399 . S
C3828 C3833 1.399 . S
C3829 C3828 1.399 . S
C3829 C3830 1.376 . S
C3830 H3817 0.930 . S
C3830 C3829 1.376 . S
C3830 C3831 1.388 . S
C3831 H3818 0.930 . S
C3831 C3830 1.388 . S
C3831 C3832 1.390 . S
C3832 C3831 1.390 . S
C3832 C3833 1.394 . S
C3832 C3838 1.465 . S
C3833 C3828 1.399 . S
C3833 C3832 1.394 . S
C3833 C3834 1.516 . S
C3834 C3833 1.516 . S
C3834 C3835 1.502 . S
C3834 C3836 1.561 . S
C3834 C3837 1.526 . S
C3835 H3819 0.959 . S
C3835 H3820 0.959 . S
C3835 H3821 0.961 . S
C3835 C3834 1.502 . S
C3836 H3822 0.960 . S
C3836 H3823 0.961 . S
C3836 H3824 0.959 . S
C3836 C3834 1.561 . S
C3837 C3834 1.526 . S
C3837 C3838 1.396 . S
C3837 C3842 1.390 . S
C3838 C3832 1.465 . S
C3838 C3837 1.396 . S
C3838 C3839 1.399 . S
C3839 H3825 0.929 . S
C3839 C3838 1.399 . S
C3839 C3840 1.385 . S
C3840 H3826 0.931 . S
C3840 C3839 1.385 . S
C3840 C3841 1.389 . S
C3841 C3840 1.389 . S
C3841 C3842 1.387 . S
C3842 H3827 0.930 . S
C3842 C3837 1.390 . S
C3842 C3841 1.387 . S
H3843 C3855 0.930 . S
H3844 C3857 0.930 . S
H3845 C3858 0.930 . S
H3846 C3862 0.959 . S
H3847 C3862 0.959 . S
H3848 C3862 0.961 . S
H3849 C3863 0.960 . S
H3850 C3863 0.961 . S
H3851 C3863 0.959 . S
H3852 C3866 0.929 . S
H3853 C3867 0.931 . S
H3854 C3869 0.930 . S
C3855 H3843 0.930 . S
C3855 C3856 1.399 . S
C3855 C3860 1.399 . S
C3856 C3855 1.399 . S
C3856 C3857 1.376 . S
C3857 H3844 0.930 . S
C3857 C3856 1.376 . S
C3857 C3858 1.388 . S
C3858 H3845 0.930 . S
C3858 C3857 1.388 . S
C3858 C3859 1.390 . S
C3859 C3858 1.390 . S
C3859 C3860 1.394 . S
C3859 C3865 1.465 . S
C3860 C3855 1.399 . S
C3860 C3859 1.394 . S
C3860 C3861 1.516 . S
C3861 C3860 1.516 . S
C3861 C3862 1.502 . S
C3861 C3863 1.561 . S
C3861 C3864 1.526 . S
C3862 H3846 0.959 . S
C3862 H3847 0.959 . S
C3862 H3848 0.961 . S
C3862 C3861 1.502 . S
C3863 H3849 0.960 . S
C3863 H3850 0.961 . S
C3863 H3851 0.959 . S
C3863 C3861 1.561 . S
C3864 C3861 1.526 . S
C3864 C3865 1.396 . S
C3864 C3869 1.390 . S
C3865 C3859 1.465 . S
C3865 C3864 1.396 . S
C3865 C3866 1.399 . S
C3866 H3852 0.929 . S
C3866 C3865 1.399 . S
C3866 C3867 1.385 . S
C3867 H3853 0.931 . S
C3867 C3866 1.385 . S
C3867 C3868 1.389 . S
C3868 C3867 1.389 . S
C3868 C3869 1.387 . S
C3869 H3854 0.930 . S
C3869 C3864 1.390 . S
C3869 C3868 1.387 . S
H3870 C3882 0.930 . S
H3871 C3884 0.930 . S
H3872 C3885 0.930 . S
H3873 C3889 0.959 . S
H3874 C3889 0.959 . S
H3875 C3889 0.961 . S
H3876 C3890 0.960 . S
H3877 C3890 0.961 . S
H3878 C3890 0.959 . S
H3879 C3893 0.929 . S
H3880 C3894 0.931 . S
H3881 C3896 0.930 . S
C3882 H3870 0.930 . S
C3882 C3883 1.399 . S
C3882 C3887 1.399 . S
C3883 C3882 1.399 . S
C3883 C3884 1.376 . S
C3884 H3871 0.930 . S
C3884 C3883 1.376 . S
C3884 C3885 1.388 . S
C3885 H3872 0.930 . S
C3885 C3884 1.388 . S
C3885 C3886 1.390 . S
C3886 C3885 1.390 . S
C3886 C3887 1.394 . S
C3886 C3892 1.465 . S
C3887 C3882 1.399 . S
C3887 C3886 1.394 . S
C3887 C3888 1.516 . S
C3888 C3887 1.516 . S
C3888 C3889 1.502 . S
C3888 C3890 1.561 . S
C3888 C3891 1.526 . S
C3889 H3873 0.959 . S
C3889 H3874 0.959 . S
C3889 H3875 0.961 . S
C3889 C3888 1.502 . S
C3890 H3876 0.960 . S
C3890 H3877 0.961 . S
C3890 H3878 0.959 . S
C3890 C3888 1.561 . S
C3891 C3888 1.526 . S
C3891 C3892 1.396 . S
C3891 C3896 1.390 . S
C3892 C3886 1.465 . S
C3892 C3891 1.396 . S
C3892 C3893 1.399 . S
C3893 H3879 0.929 . S
C3893 C3892 1.399 . S
C3893 C3894 1.385 . S
C3894 H3880 0.931 . S
C3894 C3893 1.385 . S
C3894 C3895 1.389 . S
C3895 C3894 1.389 . S
C3895 C3896 1.387 . S
C3896 H3881 0.930 . S
C3896 C3891 1.390 . S
C3896 C3895 1.387 . S
H3897 C3909 0.930 . S
H3898 C3911 0.930 . S
H3899 C3912 0.930 . S
H3900 C3916 0.959 . S
H3901 C3916 0.959 . S
H3902 C3916 0.961 . S
H3903 C3917 0.960 . S
H3904 C3917 0.961 . S
H3905 C3917 0.959 . S
H3906 C3920 0.929 . S
H3907 C3921 0.931 . S
H3908 C3923 0.930 . S
C3909 H3897 0.930 . S
C3909 C3910 1.399 . S
C3909 C3914 1.399 . S
C3910 C3909 1.399 . S
C3910 C3911 1.376 . S
C3911 H3898 0.930 . S
C3911 C3910 1.376 . S
C3911 C3912 1.388 . S
C3912 H3899 0.930 . S
C3912 C3911 1.388 . S
C3912 C3913 1.390 . S
C3913 C3912 1.390 . S
C3913 C3914 1.394 . S
C3913 C3919 1.465 . S
C3914 C3909 1.399 . S
C3914 C3913 1.394 . S
C3914 C3915 1.516 . S
C3915 C3914 1.516 . S
C3915 C3916 1.502 . S
C3915 C3917 1.561 . S
C3915 C3918 1.526 . S
C3916 H3900 0.959 . S
C3916 H3901 0.959 . S
C3916 H3902 0.961 . S
C3916 C3915 1.502 . S
C3917 H3903 0.960 . S
C3917 H3904 0.961 . S
C3917 H3905 0.959 . S
C3917 C3915 1.561 . S
C3918 C3915 1.526 . S
C3918 C3919 1.396 . S
C3918 C3923 1.390 . S
C3919 C3913 1.465 . S
C3919 C3918 1.396 . S
C3919 C3920 1.399 . S
C3920 H3906 0.929 . S
C3920 C3919 1.399 . S
C3920 C3921 1.385 . S
C3921 H3907 0.931 . S
C3921 C3920 1.385 . S
C3921 C3922 1.389 . S
C3922 C3921 1.389 . S
C3922 C3923 1.387 . S
C3923 H3908 0.930 . S
C3923 C3918 1.390 . S
C3923 C3922 1.387 . S
H3924 C3936 0.930 . S
H3925 C3938 0.930 . S
H3926 C3939 0.930 . S
H3927 C3943 0.959 . S
H3928 C3943 0.959 . S
H3929 C3943 0.961 . S
H3930 C3944 0.960 . S
H3931 C3944 0.961 . S
H3932 C3944 0.959 . S
H3933 C3947 0.929 . S
H3934 C3948 0.931 . S
H3935 C3950 0.930 . S
C3936 H3924 0.930 . S
C3936 C3937 1.399 . S
C3936 C3941 1.399 . S
C3937 C3936 1.399 . S
C3937 C3938 1.376 . S
C3938 H3925 0.930 . S
C3938 C3937 1.376 . S
C3938 C3939 1.388 . S
C3939 H3926 0.930 . S
C3939 C3938 1.388 . S
C3939 C3940 1.390 . S
C3940 C3939 1.390 . S
C3940 C3941 1.394 . S
C3940 C3946 1.465 . S
C3941 C3936 1.399 . S
C3941 C3940 1.394 . S
C3941 C3942 1.516 . S
C3942 C3941 1.516 . S
C3942 C3943 1.502 . S
C3942 C3944 1.561 . S
C3942 C3945 1.526 . S
C3943 H3927 0.959 . S
C3943 H3928 0.959 . S
C3943 H3929 0.961 . S
C3943 C3942 1.502 . S
C3944 H3930 0.960 . S
C3944 H3931 0.961 . S
C3944 H3932 0.959 . S
C3944 C3942 1.561 . S
C3945 C3942 1.526 . S
C3945 C3946 1.396 . S
C3945 C3950 1.390 . S
C3946 C3940 1.465 . S
C3946 C3945 1.396 . S
C3946 C3947 1.399 . S
C3947 H3933 0.929 . S
C3947 C3946 1.399 . S
C3947 C3948 1.385 . S
C3948 H3934 0.931 . S
C3948 C3947 1.385 . S
C3948 C3949 1.389 . S
C3949 C3948 1.389 . S
C3949 C3950 1.387 . S
C3950 H3935 0.930 . S
C3950 C3945 1.390 . S
C3950 C3949 1.387 . S
H3951 C3963 0.930 . S
H3952 C3965 0.930 . S
H3953 C3966 0.930 . S
H3954 C3970 0.959 . S
H3955 C3970 0.959 . S
H3956 C3970 0.961 . S
H3957 C3971 0.960 . S
H3958 C3971 0.961 . S
H3959 C3971 0.959 . S
H3960 C3974 0.929 . S
H3961 C3975 0.931 . S
H3962 C3977 0.930 . S
C3963 H3951 0.930 . S
C3963 C3964 1.399 . S
C3963 C3968 1.399 . S
C3964 C3963 1.399 . S
C3964 C3965 1.376 . S
C3965 H3952 0.930 . S
C3965 C3964 1.376 . S
C3965 C3966 1.388 . S
C3966 H3953 0.930 . S
C3966 C3965 1.388 . S
C3966 C3967 1.390 . S
C3967 C3966 1.390 . S
C3967 C3968 1.394 . S
C3967 C3973 1.465 . S
C3968 C3963 1.399 . S
C3968 C3967 1.394 . S
C3968 C3969 1.516 . S
C3969 C3968 1.516 . S
C3969 C3970 1.502 . S
C3969 C3971 1.561 . S
C3969 C3972 1.526 . S
C3970 H3954 0.959 . S
C3970 H3955 0.959 . S
C3970 H3956 0.961 . S
C3970 C3969 1.502 . S
C3971 H3957 0.960 . S
C3971 H3958 0.961 . S
C3971 H3959 0.959 . S
C3971 C3969 1.561 . S
C3972 C3969 1.526 . S
C3972 C3973 1.396 . S
C3972 C3977 1.390 . S
C3973 C3967 1.465 . S
C3973 C3972 1.396 . S
C3973 C3974 1.399 . S
C3974 H3960 0.929 . S
C3974 C3973 1.399 . S
C3974 C3975 1.385 . S
C3975 H3961 0.931 . S
C3975 C3974 1.385 . S
C3975 C3976 1.389 . S
C3976 C3975 1.389 . S
C3976 C3977 1.387 . S
C3977 H3962 0.930 . S
C3977 C3972 1.390 . S
C3977 C3976 1.387 . S
H3978 C3990 0.930 . S
H3979 C3992 0.930 . S
H3980 C3993 0.930 . S
H3981 C3997 0.959 . S
H3982 C3997 0.959 . S
H3983 C3997 0.961 . S
H3984 C3998 0.960 . S
H3985 C3998 0.961 . S
H3986 C3998 0.959 . S
H3987 C4001 0.929 . S
H3988 C4002 0.931 . S
H3989 C4004 0.930 . S
C3990 H3978 0.930 . S
C3990 C3991 1.399 . S
C3990 C3995 1.399 . S
C3991 C3990 1.399 . S
C3991 C3992 1.376 . S
C3992 H3979 0.930 . S
C3992 C3991 1.376 . S
C3992 C3993 1.388 . S
C3993 H3980 0.930 . S
C3993 C3992 1.388 . S
C3993 C3994 1.390 . S
C3994 C3993 1.390 . S
C3994 C3995 1.394 . S
C3994 C4000 1.465 . S
C3995 C3990 1.399 . S
C3995 C3994 1.394 . S
C3995 C3996 1.516 . S
C3996 C3995 1.516 . S
C3996 C3997 1.502 . S
C3996 C3998 1.561 . S
C3996 C3999 1.526 . S
C3997 H3981 0.959 . S
C3997 H3982 0.959 . S
C3997 H3983 0.961 . S
C3997 C3996 1.502 . S
C3998 H3984 0.960 . S
C3998 H3985 0.961 . S
C3998 H3986 0.959 . S
C3998 C3996 1.561 . S
C3999 C3996 1.526 . S
C3999 C4000 1.396 . S
C3999 C4004 1.390 . S
C4000 C3994 1.465 . S
C4000 C3999 1.396 . S
C4000 C4001 1.399 . S
C4001 H3987 0.929 . S
C4001 C4000 1.399 . S
C4001 C4002 1.385 . S
C4002 H3988 0.931 . S
C4002 C4001 1.385 . S
C4002 C4003 1.389 . S
C4003 C4002 1.389 . S
C4003 C4004 1.387 . S
C4004 H3989 0.930 . S
C4004 C3999 1.390 . S
C4004 C4003 1.387 . S
H4005 C4017 0.930 . S
H4006 C4019 0.930 . S
H4007 C4020 0.930 . S
H4008 C4024 0.959 . S
H4009 C4024 0.959 . S
H4010 C4024 0.961 . S
H4011 C4025 0.960 . S
H4012 C4025 0.961 . S
H4013 C4025 0.959 . S
H4014 C4028 0.929 . S
H4015 C4029 0.931 . S
H4016 C4031 0.930 . S
C4017 H4005 0.930 . S
C4017 C4018 1.399 . S
C4017 C4022 1.399 . S
C4018 C4017 1.399 . S
C4018 C4019 1.376 . S
C4019 H4006 0.930 . S
C4019 C4018 1.376 . S
C4019 C4020 1.388 . S
C4020 H4007 0.930 . S
C4020 C4019 1.388 . S
C4020 C4021 1.390 . S
C4021 C4020 1.390 . S
C4021 C4022 1.394 . S
C4021 C4027 1.465 . S
C4022 C4017 1.399 . S
C4022 C4021 1.394 . S
C4022 C4023 1.516 . S
C4023 C4022 1.516 . S
C4023 C4024 1.502 . S
C4023 C4025 1.561 . S
C4023 C4026 1.526 . S
C4024 H4008 0.959 . S
C4024 H4009 0.959 . S
C4024 H4010 0.961 . S
C4024 C4023 1.502 . S
C4025 H4011 0.960 . S
C4025 H4012 0.961 . S
C4025 H4013 0.959 . S
C4025 C4023 1.561 . S
C4026 C4023 1.526 . S
C4026 C4027 1.396 . S
C4026 C4031 1.390 . S
C4027 C4021 1.465 . S
C4027 C4026 1.396 . S
C4027 C4028 1.399 . S
C4028 H4014 0.929 . S
C4028 C4027 1.399 . S
C4028 C4029 1.385 . S
C4029 H4015 0.931 . S
C4029 C4028 1.385 . S
C4029 C4030 1.389 . S
C4030 C4029 1.389 . S
C4030 C4031 1.387 . S
C4031 H4016 0.930 . S
C4031 C4026 1.390 . S
C4031 C4030 1.387 . S
H4032 C4044 0.930 . S
H4033 C4046 0.930 . S
H4034 C4047 0.930 . S
H4035 C4051 0.959 . S
H4036 C4051 0.959 . S
H4037 C4051 0.961 . S
H4038 C4052 0.960 . S
H4039 C4052 0.961 . S
H4040 C4052 0.959 . S
H4041 C4055 0.929 . S
H4042 C4056 0.931 . S
H4043 C4058 0.930 . S
C4044 H4032 0.930 . S
C4044 C4045 1.399 . S
C4044 C4049 1.399 . S
C4045 C4044 1.399 . S
C4045 C4046 1.376 . S
C4046 H4033 0.930 . S
C4046 C4045 1.376 . S
C4046 C4047 1.388 . S
C4047 H4034 0.930 . S
C4047 C4046 1.388 . S
C4047 C4048 1.390 . S
C4048 C4047 1.390 . S
C4048 C4049 1.394 . S
C4048 C4054 1.465 . S
C4049 C4044 1.399 . S
C4049 C4048 1.394 . S
C4049 C4050 1.516 . S
C4050 C4049 1.516 . S
C4050 C4051 1.502 . S
C4050 C4052 1.561 . S
C4050 C4053 1.526 . S
C4051 H4035 0.959 . S
C4051 H4036 0.959 . S
C4051 H4037 0.961 . S
C4051 C4050 1.502 . S
C4052 H4038 0.960 . S
C4052 H4039 0.961 . S
C4052 H4040 0.959 . S
C4052 C4050 1.561 . S
C4053 C4050 1.526 . S
C4053 C4054 1.396 . S
C4053 C4058 1.390 . S
C4054 C4048 1.465 . S
C4054 C4053 1.396 . S
C4054 C4055 1.399 . S
C4055 H4041 0.929 . S
C4055 C4054 1.399 . S
C4055 C4056 1.385 . S
C4056 H4042 0.931 . S
C4056 C4055 1.385 . S
C4056 C4057 1.389 . S
C4057 C4056 1.389 . S
C4057 C4058 1.387 . S
C4058 H4043 0.930 . S
C4058 C4053 1.390 . S
C4058 C4057 1.387 . S
H4059 C4071 0.930 . S
H4060 C4073 0.930 . S
H4061 C4074 0.930 . S
H4062 C4078 0.959 . S
H4063 C4078 0.959 . S
H4064 C4078 0.961 . S
H4065 C4079 0.960 . S
H4066 C4079 0.961 . S
H4067 C4079 0.959 . S
H4068 C4082 0.929 . S
H4069 C4083 0.931 . S
H4070 C4085 0.930 . S
C4071 H4059 0.930 . S
C4071 C4072 1.399 . S
C4071 C4076 1.399 . S
C4072 C4071 1.399 . S
C4072 C4073 1.376 . S
C4073 H4060 0.930 . S
C4073 C4072 1.376 . S
C4073 C4074 1.388 . S
C4074 H4061 0.930 . S
C4074 C4073 1.388 . S
C4074 C4075 1.390 . S
C4075 C4074 1.390 . S
C4075 C4076 1.394 . S
C4075 C4081 1.465 . S
C4076 C4071 1.399 . S
C4076 C4075 1.394 . S
C4076 C4077 1.516 . S
C4077 C4076 1.516 . S
C4077 C4078 1.502 . S
C4077 C4079 1.561 . S
C4077 C4080 1.526 . S
C4078 H4062 0.959 . S
C4078 H4063 0.959 . S
C4078 H4064 0.961 . S
C4078 C4077 1.502 . S
C4079 H4065 0.960 . S
C4079 H4066 0.961 . S
C4079 H4067 0.959 . S
C4079 C4077 1.561 . S
C4080 C4077 1.526 . S
C4080 C4081 1.396 . S
C4080 C4085 1.390 . S
C4081 C4075 1.465 . S
C4081 C4080 1.396 . S
C4081 C4082 1.399 . S
C4082 H4068 0.929 . S
C4082 C4081 1.399 . S
C4082 C4083 1.385 . S
C4083 H4069 0.931 . S
C4083 C4082 1.385 . S
C4083 C4084 1.389 . S
C4084 C4083 1.389 . S
C4084 C4085 1.387 . S
C4085 H4070 0.930 . S
C4085 C4080 1.390 . S
C4085 C4084 1.387 . S
H4086 C4098 0.930 . S
H4087 C4100 0.930 . S
H4088 C4101 0.930 . S
H4089 C4105 0.959 . S
H4090 C4105 0.959 . S
H4091 C4105 0.961 . S
H4092 C4106 0.960 . S
H4093 C4106 0.961 . S
H4094 C4106 0.959 . S
H4095 C4109 0.929 . S
H4096 C4110 0.931 . S
H4097 C4112 0.930 . S
C4098 H4086 0.930 . S
C4098 C4099 1.399 . S
C4098 C4103 1.399 . S
C4099 C4098 1.399 . S
C4099 C4100 1.376 . S
C4100 H4087 0.930 . S
C4100 C4099 1.376 . S
C4100 C4101 1.388 . S
C4101 H4088 0.930 . S
C4101 C4100 1.388 . S
C4101 C4102 1.390 . S
C4102 C4101 1.390 . S
C4102 C4103 1.394 . S
C4102 C4108 1.465 . S
C4103 C4098 1.399 . S
C4103 C4102 1.394 . S
C4103 C4104 1.516 . S
C4104 C4103 1.516 . S
C4104 C4105 1.502 . S
C4104 C4106 1.561 . S
C4104 C4107 1.526 . S
C4105 H4089 0.959 . S
C4105 H4090 0.959 . S
C4105 H4091 0.961 . S
C4105 C4104 1.502 . S
C4106 H4092 0.960 . S
C4106 H4093 0.961 . S
C4106 H4094 0.959 . S
C4106 C4104 1.561 . S
C4107 C4104 1.526 . S
C4107 C4108 1.396 . S
C4107 C4112 1.390 . S
C4108 C4102 1.465 . S
C4108 C4107 1.396 . S
C4108 C4109 1.399 . S
C4109 H4095 0.929 . S
C4109 C4108 1.399 . S
C4109 C4110 1.385 . S
C4110 H4096 0.931 . S
C4110 C4109 1.385 . S
C4110 C4111 1.389 . S
C4111 C4110 1.389 . S
C4111 C4112 1.387 . S
C4112 H4097 0.930 . S
C4112 C4107 1.390 . S
C4112 C4111 1.387 . S
H4113 C4125 0.930 . S
H4114 C4127 0.930 . S
H4115 C4128 0.930 . S
H4116 C4132 0.959 . S
H4117 C4132 0.959 . S
H4118 C4132 0.961 . S
H4119 C4133 0.960 . S
H4120 C4133 0.961 . S
H4121 C4133 0.959 . S
H4122 C4136 0.929 . S
H4123 C4137 0.931 . S
H4124 C4139 0.930 . S
C4125 H4113 0.930 . S
C4125 C4126 1.399 . S
C4125 C4130 1.399 . S
C4126 C4125 1.399 . S
C4126 C4127 1.376 . S
C4127 H4114 0.930 . S
C4127 C4126 1.376 . S
C4127 C4128 1.388 . S
C4128 H4115 0.930 . S
C4128 C4127 1.388 . S
C4128 C4129 1.390 . S
C4129 C4128 1.390 . S
C4129 C4130 1.394 . S
C4129 C4135 1.465 . S
C4130 C4125 1.399 . S
C4130 C4129 1.394 . S
C4130 C4131 1.516 . S
C4131 C4130 1.516 . S
C4131 C4132 1.502 . S
C4131 C4133 1.561 . S
C4131 C4134 1.526 . S
C4132 H4116 0.959 . S
C4132 H4117 0.959 . S
C4132 H4118 0.961 . S
C4132 C4131 1.502 . S
C4133 H4119 0.960 . S
C4133 H4120 0.961 . S
C4133 H4121 0.959 . S
C4133 C4131 1.561 . S
C4134 C4131 1.526 . S
C4134 C4135 1.396 . S
C4134 C4139 1.390 . S
C4135 C4129 1.465 . S
C4135 C4134 1.396 . S
C4135 C4136 1.399 . S
C4136 H4122 0.929 . S
C4136 C4135 1.399 . S
C4136 C4137 1.385 . S
C4137 H4123 0.931 . S
C4137 C4136 1.385 . S
C4137 C4138 1.389 . S
C4138 C4137 1.389 . S
C4138 C4139 1.387 . S
C4139 H4124 0.930 . S
C4139 C4134 1.390 . S
C4139 C4138 1.387 . S
H4140 C4152 0.930 . S
H4141 C4154 0.930 . S
H4142 C4155 0.930 . S
H4143 C4159 0.959 . S
H4144 C4159 0.959 . S
H4145 C4159 0.961 . S
H4146 C4160 0.960 . S
H4147 C4160 0.961 . S
H4148 C4160 0.959 . S
H4149 C4163 0.929 . S
H4150 C4164 0.931 . S
H4151 C4166 0.930 . S
C4152 H4140 0.930 . S
C4152 C4153 1.399 . S
C4152 C4157 1.399 . S
C4153 C4152 1.399 . S
C4153 C4154 1.376 . S
C4154 H4141 0.930 . S
C4154 C4153 1.376 . S
C4154 C4155 1.388 . S
C4155 H4142 0.930 . S
C4155 C4154 1.388 . S
C4155 C4156 1.390 . S
C4156 C4155 1.390 . S
C4156 C4157 1.394 . S
C4156 C4162 1.465 . S
C4157 C4152 1.399 . S
C4157 C4156 1.394 . S
C4157 C4158 1.516 . S
C4158 C4157 1.516 . S
C4158 C4159 1.502 . S
C4158 C4160 1.561 . S
C4158 C4161 1.526 . S
C4159 H4143 0.959 . S
C4159 H4144 0.959 . S
C4159 H4145 0.961 . S
C4159 C4158 1.502 . S
C4160 H4146 0.960 . S
C4160 H4147 0.961 . S
C4160 H4148 0.959 . S
C4160 C4158 1.561 . S
C4161 C4158 1.526 . S
C4161 C4162 1.396 . S
C4161 C4166 1.390 . S
C4162 C4156 1.465 . S
C4162 C4161 1.396 . S
C4162 C4163 1.399 . S
C4163 H4149 0.929 . S
C4163 C4162 1.399 . S
C4163 C4164 1.385 . S
C4164 H4150 0.931 . S
C4164 C4163 1.385 . S
C4164 C4165 1.389 . S
C4165 C4164 1.389 . S
C4165 C4166 1.387 . S
C4166 H4151 0.930 . S
C4166 C4161 1.390 . S
C4166 C4165 1.387 . S
H4167 C4179 0.930 . S
H4168 C4181 0.930 . S
H4169 C4182 0.930 . S
H4170 C4186 0.959 . S
H4171 C4186 0.959 . S
H4172 C4186 0.961 . S
H4173 C4187 0.960 . S
H4174 C4187 0.961 . S
H4175 C4187 0.959 . S
H4176 C4190 0.929 . S
H4177 C4191 0.931 . S
H4178 C4193 0.930 . S
C4179 H4167 0.930 . S
C4179 C4180 1.399 . S
C4179 C4184 1.399 . S
C4180 C4179 1.399 . S
C4180 C4181 1.376 . S
C4181 H4168 0.930 . S
C4181 C4180 1.376 . S
C4181 C4182 1.388 . S
C4182 H4169 0.930 . S
C4182 C4181 1.388 . S
C4182 C4183 1.390 . S
C4183 C4182 1.390 . S
C4183 C4184 1.394 . S
C4183 C4189 1.465 1_565 S
C4184 C4179 1.399 . S
C4184 C4183 1.394 . S
C4184 C4185 1.516 . S
C4185 C4184 1.516 . S
C4185 C4186 1.502 . S
C4185 C4187 1.561 . S
C4185 C4188 1.526 1_565 S
C4186 H4170 0.959 . S
C4186 H4171 0.959 . S
C4186 H4172 0.961 . S
C4186 C4185 1.502 . S
C4187 H4173 0.960 . S
C4187 H4174 0.961 . S
C4187 H4175 0.959 . S
C4187 C4185 1.561 . S
C4188 C4185 1.526 1_545 S
C4188 C4189 1.396 . S
C4188 C4193 1.390 . S
C4189 C4183 1.465 1_545 S
C4189 C4188 1.396 . S
C4189 C4190 1.399 . S
C4190 H4176 0.929 . S
C4190 C4189 1.399 . S
C4190 C4191 1.385 . S
C4191 H4177 0.931 . S
C4191 C4190 1.385 . S
C4191 C4192 1.389 . S
C4192 C4191 1.389 . S
C4192 C4193 1.387 . S
C4193 H4178 0.930 . S
C4193 C4188 1.390 . S
C4193 C4192 1.387 . S
H4194 C4206 0.930 . S
H4195 C4208 0.930 . S
H4196 C4209 0.930 . S
H4197 C4213 0.959 . S
H4198 C4213 0.959 . S
H4199 C4213 0.961 . S
H4200 C4214 0.960 . S
H4201 C4214 0.934 1_455 S
H4202 C4214 0.972 . S
H4203 C4217 0.929 . S
H4204 C4218 0.931 . S
H4205 C4220 0.930 . S
C4206 H4194 0.930 . S
C4206 C4207 1.399 . S
C4206 C4211 1.399 . S
C4207 C4206 1.399 . S
C4207 C4208 1.376 . S
C4208 H4195 0.930 . S
C4208 C4207 1.376 . S
C4208 C4209 1.388 . S
C4209 H4196 0.930 . S
C4209 C4208 1.388 . S
C4209 C4210 1.390 . S
C4210 C4209 1.390 . S
C4210 C4211 1.394 . S
C4210 C4216 1.465 1_655 S
C4211 C4206 1.399 . S
C4211 C4210 1.394 . S
C4211 C4212 1.516 . S
C4212 C4211 1.516 . S
C4212 C4213 1.502 . S
C4212 C4214 1.561 . S
C4212 C4215 1.526 1_655 S
C4213 H4197 0.959 . S
C4213 H4198 0.959 . S
C4213 H4199 0.961 . S
C4213 C4212 1.502 . S
C4214 H4200 0.960 . S
C4214 H4201 0.934 1_655 S
C4214 H4202 0.972 . S
C4214 C4212 1.561 . S
C4215 C4212 1.526 1_455 S
C4215 C4216 1.396 . S
C4215 C4220 1.390 . S
C4216 C4210 1.465 1_455 S
C4216 C4215 1.396 . S
C4216 C4217 1.399 . S
C4217 H4203 0.929 . S
C4217 C4216 1.399 . S
C4217 C4218 1.385 . S
C4218 H4204 0.931 . S
C4218 C4217 1.385 . S
C4218 C4219 1.389 . S
C4219 C4218 1.389 . S
C4219 C4220 1.387 . S
C4220 H4205 0.930 . S
C4220 C4215 1.390 . S
C4220 C4219 1.387 . S
H4221 C4233 0.930 . S
H4222 C4235 0.930 . S
H4223 C4236 0.930 . S
H4224 C4240 0.959 . S
H4225 C4240 0.959 . S
H4226 C4240 0.961 . S
H4227 C4241 0.960 . S
H4228 C4241 0.961 . S
H4229 C4241 0.959 . S
H4230 C4244 0.929 . S
H4231 C4245 0.931 . S
H4232 C4247 0.930 . S
C4233 H4221 0.930 . S
C4233 C4234 1.399 . S
C4233 C4238 1.399 . S
C4234 C4233 1.399 . S
C4234 C4235 1.376 . S
C4235 H4222 0.930 . S
C4235 C4234 1.376 . S
C4235 C4236 1.388 . S
C4236 H4223 0.930 . S
C4236 C4235 1.388 . S
C4236 C4237 1.390 . S
C4237 C4236 1.390 . S
C4237 C4238 1.394 . S
C4237 C4243 1.465 . S
C4238 C4233 1.399 . S
C4238 C4237 1.394 . S
C4238 C4239 1.516 . S
C4239 C4238 1.516 . S
C4239 C4240 1.502 . S
C4239 C4241 1.561 . S
C4239 C4242 1.526 . S
C4240 H4224 0.959 . S
C4240 H4225 0.959 . S
C4240 H4226 0.961 . S
C4240 C4239 1.502 . S
C4241 H4227 0.960 . S
C4241 H4228 0.961 . S
C4241 H4229 0.959 . S
C4241 C4239 1.561 . S
C4242 C4239 1.526 . S
C4242 C4243 1.396 . S
C4242 C4247 1.390 . S
C4243 C4237 1.465 . S
C4243 C4242 1.396 . S
C4243 C4244 1.399 . S
C4244 H4230 0.929 . S
C4244 C4243 1.399 . S
C4244 C4245 1.385 . S
C4245 H4231 0.931 . S
C4245 C4244 1.385 . S
C4245 C4246 1.389 . S
C4246 C4245 1.389 . S
C4246 C4247 1.387 . S
C4247 H4232 0.930 . S
C4247 C4242 1.390 . S
C4247 C4246 1.387 . S
H4248 C4260 0.930 . S
H4249 C4262 0.930 . S
H4250 C4263 0.930 . S
H4251 C4267 0.959 1_565 S
H4252 C4267 0.959 1_565 S
H4253 C4267 0.961 . S
H4254 C4268 0.960 . S
H4255 C4268 0.961 . S
H4256 C4268 0.959 . S
H4257 C4271 0.929 . S
H4258 C4272 0.931 . S
H4259 C4274 0.930 . S
C4260 H4248 0.930 . S
C4260 C4261 1.399 . S
C4260 C4265 1.399 . S
C4261 C4260 1.399 . S
C4261 C4262 1.376 . S
C4262 H4249 0.930 . S
C4262 C4261 1.376 . S
C4262 C4263 1.388 . S
C4263 H4250 0.930 . S
C4263 C4262 1.388 . S
C4263 C4264 1.390 . S
C4264 C4263 1.390 . S
C4264 C4265 1.394 . S
C4264 C4270 1.465 1_545 S
C4265 C4260 1.399 . S
C4265 C4264 1.394 . S
C4265 C4266 1.516 . S
C4266 C4265 1.516 . S
C4266 C4267 1.502 . S
C4266 C4268 1.561 . S
C4266 C4269 1.526 1_545 S
C4267 H4251 0.959 1_545 S
C4267 H4252 0.959 1_545 S
C4267 H4253 0.961 . S
C4267 C4266 1.502 . S
C4268 H4254 0.960 . S
C4268 H4255 0.961 . S
C4268 H4256 0.959 . S
C4268 C4266 1.561 . S
C4269 C4266 1.526 1_565 S
C4269 C4270 1.396 . S
C4269 C4274 1.390 . S
C4270 C4264 1.465 1_565 S
C4270 C4269 1.396 . S
C4270 C4271 1.399 . S
C4271 H4257 0.929 . S
C4271 C4270 1.399 . S
C4271 C4272 1.385 . S
C4272 H4258 0.931 . S
C4272 C4271 1.385 . S
C4272 C4273 1.389 . S
C4273 C4272 1.389 . S
C4273 C4274 1.387 . S
C4274 H4259 0.930 . S
C4274 C4269 1.390 . S
C4274 C4273 1.387 . S
H4275 C4287 0.930 . S
H4276 C4289 0.930 . S
H4277 C4290 0.930 . S
H4278 C4294 0.959 . S
H4279 C4294 0.959 . S
H4280 C4294 0.961 . S
H4281 C4295 0.960 . S
H4282 C4295 0.961 . S
H4283 C4295 0.959 . S
H4284 C4298 0.929 . S
H4285 C4299 0.931 . S
H4286 C4301 0.930 . S
C4287 H4275 0.930 . S
C4287 C4288 1.399 . S
C4287 C4292 1.399 . S
C4288 C4287 1.399 . S
C4288 C4289 1.376 . S
C4289 H4276 0.930 . S
C4289 C4288 1.376 . S
C4289 C4290 1.388 . S
C4290 H4277 0.930 . S
C4290 C4289 1.388 . S
C4290 C4291 1.390 . S
C4291 C4290 1.390 . S
C4291 C4292 1.394 . S
C4291 C4297 1.465 1_655 S
C4292 C4287 1.399 . S
C4292 C4291 1.394 . S
C4292 C4293 1.516 . S
C4293 C4292 1.516 . S
C4293 C4294 1.502 . S
C4293 C4295 1.561 . S
C4293 C4296 1.526 1_655 S
C4294 H4278 0.959 . S
C4294 H4279 0.959 . S
C4294 H4280 0.961 . S
C4294 C4293 1.502 . S
C4295 H4281 0.960 . S
C4295 H4282 0.961 . S
C4295 H4283 0.959 . S
C4295 C4293 1.561 . S
C4296 C4293 1.526 1_455 S
C4296 C4297 1.396 . S
C4296 C4301 1.390 . S
C4297 C4291 1.465 1_455 S
C4297 C4296 1.396 . S
C4297 C4298 1.399 . S
C4298 H4284 0.929 . S
C4298 C4297 1.399 . S
C4298 C4299 1.385 . S
C4299 H4285 0.931 . S
C4299 C4298 1.385 . S
C4299 C4300 1.389 . S
C4300 C4299 1.389 . S
C4300 C4301 1.387 . S
C4301 H4286 0.930 . S
C4301 C4296 1.390 . S
C4301 C4300 1.387 . S
H4302 C4314 0.930 . S
H4303 C4316 0.930 . S
H4304 C4317 0.930 . S
H4305 C4321 0.959 . S
H4306 C4321 0.959 . S
H4307 C4321 0.961 . S
H4308 C4322 0.960 . S
H4309 C4322 0.961 . S
H4310 C4322 0.959 . S
H4311 C4325 0.929 . S
H4312 C4326 0.931 . S
H4313 C4328 0.930 . S
C4314 H4302 0.930 . S
C4314 C4315 1.399 . S
C4314 C4319 1.399 . S
C4315 C4314 1.399 . S
C4315 C4316 1.376 . S
C4316 H4303 0.930 . S
C4316 C4315 1.376 . S
C4316 C4317 1.388 . S
C4317 H4304 0.930 . S
C4317 C4316 1.388 . S
C4317 C4318 1.390 . S
C4318 C4317 1.390 . S
C4318 C4319 1.394 . S
C4318 C4324 1.465 . S
C4319 C4314 1.399 . S
C4319 C4318 1.394 . S
C4319 C4320 1.516 . S
C4320 C4319 1.516 . S
C4320 C4321 1.502 . S
C4320 C4322 1.561 . S
C4320 C4323 1.526 . S
C4321 H4305 0.959 . S
C4321 H4306 0.959 . S
C4321 H4307 0.961 . S
C4321 C4320 1.502 . S
C4322 H4308 0.960 . S
C4322 H4309 0.961 . S
C4322 H4310 0.959 . S
C4322 C4320 1.561 . S
C4323 C4320 1.526 . S
C4323 C4324 1.396 . S
C4323 C4328 1.390 . S
C4324 C4318 1.465 . S
C4324 C4323 1.396 . S
C4324 C4325 1.399 . S
C4325 H4311 0.929 . S
C4325 C4324 1.399 . S
C4325 C4326 1.385 . S
C4326 H4312 0.931 . S
C4326 C4325 1.385 . S
C4326 C4327 1.389 . S
C4327 C4326 1.389 . S
C4327 C4328 1.387 . S
C4328 H4313 0.930 . S
C4328 C4323 1.390 . S
C4328 C4327 1.387 . S
H4329 C4341 0.930 . S
H4330 C4343 0.930 . S
H4331 C4344 0.930 . S
H4332 C4348 0.959 . S
H4333 C4348 0.959 . S
H4334 C4348 0.961 . S
H4335 C4349 0.960 . S
H4336 C4349 0.961 . S
H4337 C4349 0.959 . S
H4338 C4352 0.929 . S
H4339 C4353 0.931 . S
H4340 C4355 0.930 . S
C4341 H4329 0.930 . S
C4341 C4342 1.399 . S
C4341 C4346 1.399 . S
C4342 C4341 1.399 . S
C4342 C4343 1.376 . S
C4343 H4330 0.930 . S
C4343 C4342 1.376 . S
C4343 C4344 1.388 . S
C4344 H4331 0.930 . S
C4344 C4343 1.388 . S
C4344 C4345 1.390 . S
C4345 C4344 1.390 . S
C4345 C4346 1.394 . S
C4345 C4351 1.465 . S
C4346 C4341 1.399 . S
C4346 C4345 1.394 . S
C4346 C4347 1.516 . S
C4347 C4346 1.516 . S
C4347 C4348 1.502 . S
C4347 C4349 1.561 . S
C4347 C4350 1.526 . S
C4348 H4332 0.959 . S
C4348 H4333 0.959 . S
C4348 H4334 0.961 . S
C4348 C4347 1.502 . S
C4349 H4335 0.960 . S
C4349 H4336 0.961 . S
C4349 H4337 0.959 . S
C4349 C4347 1.561 . S
C4350 C4347 1.526 . S
C4350 C4351 1.396 . S
C4350 C4355 1.390 . S
C4351 C4345 1.465 . S
C4351 C4350 1.396 . S
C4351 C4352 1.399 . S
C4352 H4338 0.929 . S
C4352 C4351 1.399 . S
C4352 C4353 1.385 . S
C4353 H4339 0.931 . S
C4353 C4352 1.385 . S
C4353 C4354 1.389 . S
C4354 C4353 1.389 . S
C4354 C4355 1.387 . S
C4355 H4340 0.930 . S
C4355 C4350 1.390 . S
C4355 C4354 1.387 . S
H4356 C4368 0.930 . S
H4357 C4370 0.930 . S
H4358 C4371 0.930 . S
H4359 C4375 0.959 . S
H4360 C4375 0.959 . S
H4361 C4375 0.961 . S
H4362 C4376 0.960 . S
H4363 C4376 0.961 . S
H4364 C4376 0.959 . S
H4365 C4379 0.929 . S
H4366 C4380 0.931 . S
H4367 C4382 0.930 . S
C4368 H4356 0.930 . S
C4368 C4369 1.399 . S
C4368 C4373 1.399 . S
C4369 C4368 1.399 . S
C4369 C4370 1.376 . S
C4370 H4357 0.930 . S
C4370 C4369 1.376 . S
C4370 C4371 1.388 . S
C4371 H4358 0.930 . S
C4371 C4370 1.388 . S
C4371 C4372 1.390 . S
C4372 C4371 1.390 . S
C4372 C4373 1.394 . S
C4372 C4378 1.465 . S
C4373 C4368 1.399 . S
C4373 C4372 1.394 . S
C4373 C4374 1.516 . S
C4374 C4373 1.516 . S
C4374 C4375 1.502 . S
C4374 C4376 1.561 . S
C4374 C4377 1.526 . S
C4375 H4359 0.959 . S
C4375 H4360 0.959 . S
C4375 H4361 0.961 . S
C4375 C4374 1.502 . S
C4376 H4362 0.960 . S
C4376 H4363 0.961 . S
C4376 H4364 0.959 . S
C4376 C4374 1.561 . S
C4377 C4374 1.526 . S
C4377 C4378 1.396 . S
C4377 C4382 1.390 . S
C4378 C4372 1.465 . S
C4378 C4377 1.396 . S
C4378 C4379 1.399 . S
C4379 H4365 0.929 . S
C4379 C4378 1.399 . S
C4379 C4380 1.385 . S
C4380 H4366 0.931 . S
C4380 C4379 1.385 . S
C4380 C4381 1.389 . S
C4381 C4380 1.389 . S
C4381 C4382 1.387 . S
C4382 H4367 0.930 . S
C4382 C4377 1.390 . S
C4382 C4381 1.387 . S
H4383 C4395 0.930 . S
H4384 C4397 0.930 . S
H4385 C4398 0.930 . S
H4386 C4402 0.959 . S
H4387 C4402 0.959 . S
H4388 C4402 0.961 . S
H4389 C4403 0.960 . S
H4390 C4403 0.961 . S
H4391 C4403 0.959 . S
H4392 C4406 0.929 . S
H4393 C4407 0.931 . S
H4394 C4409 0.930 . S
C4395 H4383 0.930 . S
C4395 C4396 1.399 . S
C4395 C4400 1.399 . S
C4396 C4395 1.399 . S
C4396 C4397 1.376 . S
C4397 H4384 0.930 . S
C4397 C4396 1.376 . S
C4397 C4398 1.388 . S
C4398 H4385 0.930 . S
C4398 C4397 1.388 . S
C4398 C4399 1.390 . S
C4399 C4398 1.390 . S
C4399 C4400 1.394 . S
C4399 C4405 1.465 . S
C4400 C4395 1.399 . S
C4400 C4399 1.394 . S
C4400 C4401 1.516 . S
C4401 C4400 1.516 . S
C4401 C4402 1.502 . S
C4401 C4403 1.561 . S
C4401 C4404 1.526 . S
C4402 H4386 0.959 . S
C4402 H4387 0.959 . S
C4402 H4388 0.961 . S
C4402 C4401 1.502 . S
C4403 H4389 0.960 . S
C4403 H4390 0.961 . S
C4403 H4391 0.959 . S
C4403 C4401 1.561 . S
C4404 C4401 1.526 . S
C4404 C4405 1.396 . S
C4404 C4409 1.390 . S
C4405 C4399 1.465 . S
C4405 C4404 1.396 . S
C4405 C4406 1.399 . S
C4406 H4392 0.929 . S
C4406 C4405 1.399 . S
C4406 C4407 1.385 . S
C4407 H4393 0.931 . S
C4407 C4406 1.385 . S
C4407 C4408 1.389 . S
C4408 C4407 1.389 . S
C4408 C4409 1.387 . S
C4409 H4394 0.930 . S
C4409 C4404 1.390 . S
C4409 C4408 1.387 . S
H4410 C4422 0.930 . S
H4411 C4424 0.930 . S
H4412 C4425 0.930 . S
H4413 C4429 0.959 . S
H4414 C4429 0.959 . S
H4415 C4429 0.961 . S
H4416 C4430 0.960 . S
H4417 C4430 0.961 . S
H4418 C4430 0.959 . S
H4419 C4433 0.929 . S
H4420 C4434 0.931 . S
H4421 C4436 0.930 . S
C4422 H4410 0.930 . S
C4422 C4423 1.399 . S
C4422 C4427 1.399 . S
C4423 C4422 1.399 . S
C4423 C4424 1.376 . S
C4424 H4411 0.930 . S
C4424 C4423 1.376 . S
C4424 C4425 1.388 . S
C4425 H4412 0.930 . S
C4425 C4424 1.388 . S
C4425 C4426 1.390 . S
C4426 C4425 1.390 . S
C4426 C4427 1.394 . S
C4426 C4432 1.465 . S
C4427 C4422 1.399 . S
C4427 C4426 1.394 . S
C4427 C4428 1.516 . S
C4428 C4427 1.516 . S
C4428 C4429 1.502 . S
C4428 C4430 1.561 . S
C4428 C4431 1.526 . S
C4429 H4413 0.959 . S
C4429 H4414 0.959 . S
C4429 H4415 0.961 . S
C4429 C4428 1.502 . S
C4430 H4416 0.960 . S
C4430 H4417 0.961 . S
C4430 H4418 0.959 . S
C4430 C4428 1.561 . S
C4431 C4428 1.526 . S
C4431 C4432 1.396 . S
C4431 C4436 1.390 . S
C4432 C4426 1.465 . S
C4432 C4431 1.396 . S
C4432 C4433 1.399 . S
C4433 H4419 0.929 . S
C4433 C4432 1.399 . S
C4433 C4434 1.385 . S
C4434 H4420 0.931 . S
C4434 C4433 1.385 . S
C4434 C4435 1.389 . S
C4435 C4434 1.389 . S
C4435 C4436 1.387 . S
C4436 H4421 0.930 . S
C4436 C4431 1.390 . S
C4436 C4435 1.387 . S
H4437 C4449 0.930 . S
H4438 C4451 0.930 . S
H4439 C4452 0.930 . S
H4440 C4456 0.959 . S
H4441 C4456 0.959 . S
H4442 C4456 0.961 . S
H4443 C4457 0.960 . S
H4444 C4457 0.961 . S
H4445 C4457 0.959 . S
H4446 C4460 0.929 . S
H4447 C4461 0.931 . S
H4448 C4463 0.930 . S
C4449 H4437 0.930 . S
C4449 C4450 1.399 . S
C4449 C4454 1.399 . S
C4450 C4449 1.399 . S
C4450 C4451 1.376 . S
C4451 H4438 0.930 . S
C4451 C4450 1.376 . S
C4451 C4452 1.388 . S
C4452 H4439 0.930 . S
C4452 C4451 1.388 . S
C4452 C4453 1.390 . S
C4453 C4452 1.390 . S
C4453 C4454 1.394 . S
C4453 C4459 1.465 . S
C4454 C4449 1.399 . S
C4454 C4453 1.394 . S
C4454 C4455 1.516 . S
C4455 C4454 1.516 . S
C4455 C4456 1.502 . S
C4455 C4457 1.561 . S
C4455 C4458 1.526 . S
C4456 H4440 0.959 . S
C4456 H4441 0.959 . S
C4456 H4442 0.961 . S
C4456 C4455 1.502 . S
C4457 H4443 0.960 . S
C4457 H4444 0.961 . S
C4457 H4445 0.959 . S
C4457 C4455 1.561 . S
C4458 C4455 1.526 . S
C4458 C4459 1.396 . S
C4458 C4463 1.390 . S
C4459 C4453 1.465 . S
C4459 C4458 1.396 . S
C4459 C4460 1.399 . S
C4460 H4446 0.929 . S
C4460 C4459 1.399 . S
C4460 C4461 1.385 . S
C4461 H4447 0.931 . S
C4461 C4460 1.385 . S
C4461 C4462 1.389 . S
C4462 C4461 1.389 . S
C4462 C4463 1.387 . S
C4463 H4448 0.930 . S
C4463 C4458 1.390 . S
C4463 C4462 1.387 . S
H4464 C4476 0.930 . S
H4465 C4478 0.930 . S
H4466 C4479 0.930 . S
H4467 C4483 0.959 . S
H4468 C4483 0.959 . S
H4469 C4483 0.961 . S
H4470 C4484 0.960 . S
H4471 C4484 0.961 . S
H4472 C4484 0.959 . S
H4473 C4487 0.929 . S
H4474 C4488 0.931 . S
H4475 C4490 0.930 . S
C4476 H4464 0.930 . S
C4476 C4477 1.399 . S
C4476 C4481 1.399 . S
C4477 C4476 1.399 . S
C4477 C4478 1.376 . S
C4478 H4465 0.930 . S
C4478 C4477 1.376 . S
C4478 C4479 1.388 . S
C4479 H4466 0.930 . S
C4479 C4478 1.388 . S
C4479 C4480 1.390 . S
C4480 C4479 1.390 . S
C4480 C4481 1.394 . S
C4480 C4486 1.465 . S
C4481 C4476 1.399 . S
C4481 C4480 1.394 . S
C4481 C4482 1.516 . S
C4482 C4481 1.516 . S
C4482 C4483 1.502 . S
C4482 C4484 1.561 . S
C4482 C4485 1.526 . S
C4483 H4467 0.959 . S
C4483 H4468 0.959 . S
C4483 H4469 0.961 . S
C4483 C4482 1.502 . S
C4484 H4470 0.960 . S
C4484 H4471 0.961 . S
C4484 H4472 0.959 . S
C4484 C4482 1.561 . S
C4485 C4482 1.526 . S
C4485 C4486 1.396 . S
C4485 C4490 1.390 . S
C4486 C4480 1.465 . S
C4486 C4485 1.396 . S
C4486 C4487 1.399 . S
C4487 H4473 0.929 . S
C4487 C4486 1.399 . S
C4487 C4488 1.385 . S
C4488 H4474 0.931 . S
C4488 C4487 1.385 . S
C4488 C4489 1.389 . S
C4489 C4488 1.389 . S
C4489 C4490 1.387 . S
C4490 H4475 0.930 . S
C4490 C4485 1.390 . S
C4490 C4489 1.387 . S
H4491 C4503 0.930 . S
H4492 C4505 0.930 . S
H4493 C4506 0.930 . S
H4494 C4510 0.959 . S
H4495 C4510 0.959 . S
H4496 C4510 0.961 . S
H4497 C4511 0.960 . S
H4498 C4511 0.961 . S
H4499 C4511 0.959 . S
H4500 C4514 0.929 . S
H4501 C4515 0.931 . S
H4502 C4517 0.930 . S
C4503 H4491 0.930 . S
C4503 C4504 1.399 . S
C4503 C4508 1.399 . S
C4504 C4503 1.399 . S
C4504 C4505 1.376 . S
C4505 H4492 0.930 . S
C4505 C4504 1.376 . S
C4505 C4506 1.388 . S
C4506 H4493 0.930 . S
C4506 C4505 1.388 . S
C4506 C4507 1.390 . S
C4507 C4506 1.390 . S
C4507 C4508 1.394 . S
C4507 C4513 1.465 . S
C4508 C4503 1.399 . S
C4508 C4507 1.394 . S
C4508 C4509 1.516 . S
C4509 C4508 1.516 . S
C4509 C4510 1.502 . S
C4509 C4511 1.561 . S
C4509 C4512 1.526 . S
C4510 H4494 0.959 . S
C4510 H4495 0.959 . S
C4510 H4496 0.961 . S
C4510 C4509 1.502 . S
C4511 H4497 0.960 . S
C4511 H4498 0.961 . S
C4511 H4499 0.959 . S
C4511 C4509 1.561 . S
C4512 C4509 1.526 . S
C4512 C4513 1.396 . S
C4512 C4517 1.390 . S
C4513 C4507 1.465 . S
C4513 C4512 1.396 . S
C4513 C4514 1.399 . S
C4514 H4500 0.929 . S
C4514 C4513 1.399 . S
C4514 C4515 1.385 . S
C4515 H4501 0.931 . S
C4515 C4514 1.385 . S
C4515 C4516 1.389 . S
C4516 C4515 1.389 . S
C4516 C4517 1.387 . S
C4517 H4502 0.930 . S
C4517 C4512 1.390 . S
C4517 C4516 1.387 . S
H4518 C4530 0.930 . S
H4519 C4532 0.930 . S
H4520 C4533 0.930 . S
H4521 C4537 0.959 . S
H4522 C4537 0.959 . S
H4523 C4537 0.961 . S
H4524 C4538 0.960 . S
H4525 C4538 0.961 . S
H4526 C4538 0.959 . S
H4527 C4541 0.929 . S
H4528 C4542 0.931 . S
H4529 C4544 0.930 . S
C4530 H4518 0.930 . S
C4530 C4531 1.399 . S
C4530 C4535 1.399 . S
C4531 C4530 1.399 . S
C4531 C4532 1.376 . S
C4532 H4519 0.930 . S
C4532 C4531 1.376 . S
C4532 C4533 1.388 . S
C4533 H4520 0.930 . S
C4533 C4532 1.388 . S
C4533 C4534 1.390 . S
C4534 C4533 1.390 . S
C4534 C4535 1.394 . S
C4534 C4540 1.465 . S
C4535 C4530 1.399 . S
C4535 C4534 1.394 . S
C4535 C4536 1.516 . S
C4536 C4535 1.516 . S
C4536 C4537 1.502 . S
C4536 C4538 1.561 . S
C4536 C4539 1.526 . S
C4537 H4521 0.959 . S
C4537 H4522 0.959 . S
C4537 H4523 0.961 . S
C4537 C4536 1.502 . S
C4538 H4524 0.960 . S
C4538 H4525 0.961 . S
C4538 H4526 0.959 . S
C4538 C4536 1.561 . S
C4539 C4536 1.526 . S
C4539 C4540 1.396 . S
C4539 C4544 1.390 . S
C4540 C4534 1.465 . S
C4540 C4539 1.396 . S
C4540 C4541 1.399 . S
C4541 H4527 0.929 . S
C4541 C4540 1.399 . S
C4541 C4542 1.385 . S
C4542 H4528 0.931 . S
C4542 C4541 1.385 . S
C4542 C4543 1.389 . S
C4543 C4542 1.389 . S
C4543 C4544 1.387 . S
C4544 H4529 0.930 . S
C4544 C4539 1.390 . S
C4544 C4543 1.387 . S
H4545 C4557 0.930 . S
H4546 C4559 0.930 . S
H4547 C4560 0.930 . S
H4548 C4564 0.959 . S
H4549 C4564 0.959 . S
H4550 C4564 0.961 . S
H4551 C4565 0.960 . S
H4552 C4565 0.961 . S
H4553 C4565 0.959 . S
H4554 C4568 0.929 . S
H4555 C4569 0.931 . S
H4556 C4571 0.930 . S
C4557 H4545 0.930 . S
C4557 C4558 1.399 . S
C4557 C4562 1.399 . S
C4558 C4557 1.399 . S
C4558 C4559 1.376 . S
C4559 H4546 0.930 . S
C4559 C4558 1.376 . S
C4559 C4560 1.388 . S
C4560 H4547 0.930 . S
C4560 C4559 1.388 . S
C4560 C4561 1.390 . S
C4561 C4560 1.390 . S
C4561 C4562 1.394 . S
C4561 C4567 1.465 . S
C4562 C4557 1.399 . S
C4562 C4561 1.394 . S
C4562 C4563 1.516 . S
C4563 C4562 1.516 . S
C4563 C4564 1.502 . S
C4563 C4565 1.561 . S
C4563 C4566 1.526 . S
C4564 H4548 0.959 . S
C4564 H4549 0.959 . S
C4564 H4550 0.961 . S
C4564 C4563 1.502 . S
C4565 H4551 0.960 . S
C4565 H4552 0.961 . S
C4565 H4553 0.959 . S
C4565 C4563 1.561 . S
C4566 C4563 1.526 . S
C4566 C4567 1.396 . S
C4566 C4571 1.390 . S
C4567 C4561 1.465 . S
C4567 C4566 1.396 . S
C4567 C4568 1.399 . S
C4568 H4554 0.929 . S
C4568 C4567 1.399 . S
C4568 C4569 1.385 . S
C4569 H4555 0.931 . S
C4569 C4568 1.385 . S
C4569 C4570 1.389 . S
C4570 C4569 1.389 . S
C4570 C4571 1.387 . S
C4571 H4556 0.930 . S
C4571 C4566 1.390 . S
C4571 C4570 1.387 . S
H4572 C4584 0.930 . S
H4573 C4586 0.930 . S
H4574 C4587 0.930 . S
H4575 C4591 0.959 . S
H4576 C4591 0.959 . S
H4577 C4591 0.961 . S
H4578 C4592 0.960 . S
H4579 C4592 0.961 . S
H4580 C4592 0.959 . S
H4581 C4595 0.929 . S
H4582 C4596 0.931 . S
H4583 C4598 0.930 . S
C4584 H4572 0.930 . S
C4584 C4585 1.399 . S
C4584 C4589 1.399 . S
C4585 C4584 1.399 . S
C4585 C4586 1.376 . S
C4586 H4573 0.930 . S
C4586 C4585 1.376 . S
C4586 C4587 1.388 . S
C4587 H4574 0.930 . S
C4587 C4586 1.388 . S
C4587 C4588 1.390 . S
C4588 C4587 1.390 . S
C4588 C4589 1.394 . S
C4588 C4594 1.465 . S
C4589 C4584 1.399 . S
C4589 C4588 1.394 . S
C4589 C4590 1.516 . S
C4590 C4589 1.516 . S
C4590 C4591 1.502 . S
C4590 C4592 1.561 . S
C4590 C4593 1.526 . S
C4591 H4575 0.959 . S
C4591 H4576 0.959 . S
C4591 H4577 0.961 . S
C4591 C4590 1.502 . S
C4592 H4578 0.960 . S
C4592 H4579 0.961 . S
C4592 H4580 0.959 . S
C4592 C4590 1.561 . S
C4593 C4590 1.526 . S
C4593 C4594 1.396 . S
C4593 C4598 1.390 . S
C4594 C4588 1.465 . S
C4594 C4593 1.396 . S
C4594 C4595 1.399 . S
C4595 H4581 0.929 . S
C4595 C4594 1.399 . S
C4595 C4596 1.385 . S
C4596 H4582 0.931 . S
C4596 C4595 1.385 . S
C4596 C4597 1.389 . S
C4597 C4596 1.389 . S
C4597 C4598 1.387 . S
C4598 H4583 0.930 . S
C4598 C4593 1.390 . S
C4598 C4597 1.387 . S
H4599 C4611 0.930 . S
H4600 C4613 0.930 . S
H4601 C4614 0.930 . S
H4602 C4618 0.959 . S
H4603 C4618 0.959 . S
H4604 C4618 0.961 . S
H4605 C4619 0.960 . S
H4606 C4619 0.961 . S
H4607 C4619 0.959 . S
H4608 C4622 0.929 . S
H4609 C4623 0.931 . S
H4610 C4625 0.930 . S
C4611 H4599 0.930 . S
C4611 C4612 1.399 . S
C4611 C4616 1.399 . S
C4612 C4611 1.399 . S
C4612 C4613 1.376 . S
C4613 H4600 0.930 . S
C4613 C4612 1.376 . S
C4613 C4614 1.388 . S
C4614 H4601 0.930 . S
C4614 C4613 1.388 . S
C4614 C4615 1.390 . S
C4615 C4614 1.390 . S
C4615 C4616 1.394 . S
C4615 C4621 1.465 . S
C4616 C4611 1.399 . S
C4616 C4615 1.394 . S
C4616 C4617 1.516 . S
C4617 C4616 1.516 . S
C4617 C4618 1.502 . S
C4617 C4619 1.561 . S
C4617 C4620 1.526 . S
C4618 H4602 0.959 . S
C4618 H4603 0.959 . S
C4618 H4604 0.961 . S
C4618 C4617 1.502 . S
C4619 H4605 0.960 . S
C4619 H4606 0.961 . S
C4619 H4607 0.959 . S
C4619 C4617 1.561 . S
C4620 C4617 1.526 . S
C4620 C4621 1.396 . S
C4620 C4625 1.390 . S
C4621 C4615 1.465 . S
C4621 C4620 1.396 . S
C4621 C4622 1.399 . S
C4622 H4608 0.929 . S
C4622 C4621 1.399 . S
C4622 C4623 1.385 . S
C4623 H4609 0.931 . S
C4623 C4622 1.385 . S
C4623 C4624 1.389 . S
C4624 C4623 1.389 . S
C4624 C4625 1.387 . S
C4625 H4610 0.930 . S
C4625 C4620 1.390 . S
C4625 C4624 1.387 . S
H4626 C4638 0.930 . S
H4627 C4640 0.930 . S
H4628 C4641 0.930 . S
H4629 C4645 0.959 . S
H4630 C4645 0.959 . S
H4631 C4645 0.961 . S
H4632 C4646 0.960 . S
H4633 C4646 0.961 . S
H4634 C4646 0.959 . S
H4635 C4649 0.929 . S
H4636 C4650 0.931 . S
H4637 C4652 0.930 . S
C4638 H4626 0.930 . S
C4638 C4639 1.399 . S
C4638 C4643 1.399 . S
C4639 C4638 1.399 . S
C4639 C4640 1.376 . S
C4640 H4627 0.930 . S
C4640 C4639 1.376 . S
C4640 C4641 1.388 . S
C4641 H4628 0.930 . S
C4641 C4640 1.388 . S
C4641 C4642 1.390 . S
C4642 C4641 1.390 . S
C4642 C4643 1.394 . S
C4642 C4648 1.465 . S
C4643 C4638 1.399 . S
C4643 C4642 1.394 . S
C4643 C4644 1.516 . S
C4644 C4643 1.516 . S
C4644 C4645 1.502 . S
C4644 C4646 1.561 . S
C4644 C4647 1.526 . S
C4645 H4629 0.959 . S
C4645 H4630 0.959 . S
C4645 H4631 0.961 . S
C4645 C4644 1.502 . S
C4646 H4632 0.960 . S
C4646 H4633 0.961 . S
C4646 H4634 0.959 . S
C4646 C4644 1.561 . S
C4647 C4644 1.526 . S
C4647 C4648 1.396 . S
C4647 C4652 1.390 . S
C4648 C4642 1.465 . S
C4648 C4647 1.396 . S
C4648 C4649 1.399 . S
C4649 H4635 0.929 . S
C4649 C4648 1.399 . S
C4649 C4650 1.385 . S
C4650 H4636 0.931 . S
C4650 C4649 1.385 . S
C4650 C4651 1.389 . S
C4651 C4650 1.389 . S
C4651 C4652 1.387 . S
C4652 H4637 0.930 . S
C4652 C4647 1.390 . S
C4652 C4651 1.387 . S
H4653 C4665 0.930 . S
H4654 C4667 0.930 . S
H4655 C4668 0.930 . S
H4656 C4672 0.959 . S
H4657 C4672 0.959 . S
H4658 C4672 0.961 . S
H4659 C4673 0.960 . S
H4660 C4673 0.961 . S
H4661 C4673 0.959 . S
H4662 C4676 0.929 . S
H4663 C4677 0.931 . S
H4664 C4679 0.930 . S
C4665 H4653 0.930 . S
C4665 C4666 1.399 . S
C4665 C4670 1.399 . S
C4666 C4665 1.399 . S
C4666 C4667 1.376 . S
C4667 H4654 0.930 . S
C4667 C4666 1.376 . S
C4667 C4668 1.388 . S
C4668 H4655 0.930 . S
C4668 C4667 1.388 . S
C4668 C4669 1.390 . S
C4669 C4668 1.390 . S
C4669 C4670 1.394 . S
C4669 C4675 1.465 . S
C4670 C4665 1.399 . S
C4670 C4669 1.394 . S
C4670 C4671 1.516 . S
C4671 C4670 1.516 . S
C4671 C4672 1.502 . S
C4671 C4673 1.561 . S
C4671 C4674 1.526 . S
C4672 H4656 0.959 . S
C4672 H4657 0.959 . S
C4672 H4658 0.961 . S
C4672 C4671 1.502 . S
C4673 H4659 0.960 . S
C4673 H4660 0.961 . S
C4673 H4661 0.959 . S
C4673 C4671 1.561 . S
C4674 C4671 1.526 . S
C4674 C4675 1.396 . S
C4674 C4679 1.390 . S
C4675 C4669 1.465 . S
C4675 C4674 1.396 . S
C4675 C4676 1.399 . S
C4676 H4662 0.929 . S
C4676 C4675 1.399 . S
C4676 C4677 1.385 . S
C4677 H4663 0.931 . S
C4677 C4676 1.385 . S
C4677 C4678 1.389 . S
C4678 C4677 1.389 . S
C4678 C4679 1.387 . S
C4679 H4664 0.930 . S
C4679 C4674 1.390 . S
C4679 C4678 1.387 . S
H4680 C4692 0.930 . S
H4681 C4694 0.930 . S
H4682 C4695 0.930 . S
H4683 C4699 0.959 . S
H4684 C4699 0.959 . S
H4685 C4699 0.961 . S
H4686 C4700 0.960 . S
H4687 C4700 0.961 . S
H4688 C4700 0.959 . S
H4689 C4703 0.929 . S
H4690 C4704 0.931 . S
H4691 C4706 0.930 . S
C4692 H4680 0.930 . S
C4692 C4693 1.399 . S
C4692 C4697 1.399 . S
C4693 C4692 1.399 . S
C4693 C4694 1.376 . S
C4694 H4681 0.930 . S
C4694 C4693 1.376 . S
C4694 C4695 1.388 . S
C4695 H4682 0.930 . S
C4695 C4694 1.388 . S
C4695 C4696 1.390 . S
C4696 C4695 1.390 . S
C4696 C4697 1.394 . S
C4696 C4702 1.465 . S
C4697 C4692 1.399 . S
C4697 C4696 1.394 . S
C4697 C4698 1.516 . S
C4698 C4697 1.516 . S
C4698 C4699 1.502 . S
C4698 C4700 1.561 . S
C4698 C4701 1.526 . S
C4699 H4683 0.959 . S
C4699 H4684 0.959 . S
C4699 H4685 0.961 . S
C4699 C4698 1.502 . S
C4700 H4686 0.960 . S
C4700 H4687 0.961 . S
C4700 H4688 0.959 . S
C4700 C4698 1.561 . S
C4701 C4698 1.526 . S
C4701 C4702 1.396 . S
C4701 C4706 1.390 . S
C4702 C4696 1.465 . S
C4702 C4701 1.396 . S
C4702 C4703 1.399 . S
C4703 H4689 0.929 . S
C4703 C4702 1.399 . S
C4703 C4704 1.385 . S
C4704 H4690 0.931 . S
C4704 C4703 1.385 . S
C4704 C4705 1.389 . S
C4705 C4704 1.389 . S
C4705 C4706 1.387 . S
C4706 H4691 0.930 . S
C4706 C4701 1.390 . S
C4706 C4705 1.387 . S
H4707 C4719 0.930 . S
H4708 C4721 0.930 . S
H4709 C4722 0.930 . S
H4710 C4726 0.959 . S
H4711 C4726 0.959 . S
H4712 C4726 0.961 . S
H4713 C4727 0.960 . S
H4714 C4727 0.961 . S
H4715 C4727 0.959 . S
H4716 C4730 0.929 . S
H4717 C4731 0.931 . S
H4718 C4733 0.930 . S
C4719 H4707 0.930 . S
C4719 C4720 1.399 . S
C4719 C4724 1.399 . S
C4720 C4719 1.399 . S
C4720 C4721 1.376 . S
C4721 H4708 0.930 . S
C4721 C4720 1.376 . S
C4721 C4722 1.388 . S
C4722 H4709 0.930 . S
C4722 C4721 1.388 . S
C4722 C4723 1.390 . S
C4723 C4722 1.390 . S
C4723 C4724 1.394 . S
C4723 C4729 1.465 . S
C4724 C4719 1.399 . S
C4724 C4723 1.394 . S
C4724 C4725 1.516 . S
C4725 C4724 1.516 . S
C4725 C4726 1.502 . S
C4725 C4727 1.561 . S
C4725 C4728 1.526 . S
C4726 H4710 0.959 . S
C4726 H4711 0.959 . S
C4726 H4712 0.961 . S
C4726 C4725 1.502 . S
C4727 H4713 0.960 . S
C4727 H4714 0.961 . S
C4727 H4715 0.959 . S
C4727 C4725 1.561 . S
C4728 C4725 1.526 . S
C4728 C4729 1.396 . S
C4728 C4733 1.390 . S
C4729 C4723 1.465 . S
C4729 C4728 1.396 . S
C4729 C4730 1.399 . S
C4730 H4716 0.929 . S
C4730 C4729 1.399 . S
C4730 C4731 1.385 . S
C4731 H4717 0.931 . S
C4731 C4730 1.385 . S
C4731 C4732 1.389 . S
C4732 C4731 1.389 . S
C4732 C4733 1.387 . S
C4733 H4718 0.930 . S
C4733 C4728 1.390 . S
C4733 C4732 1.387 . S
H4734 C4746 0.930 . S
H4735 C4748 0.930 . S
H4736 C4749 0.930 . S
H4737 C4753 0.959 . S
H4738 C4753 0.959 . S
H4739 C4753 0.961 . S
H4740 C4754 0.960 . S
H4741 C4754 0.961 . S
H4742 C4754 0.959 . S
H4743 C4757 0.929 . S
H4744 C4758 0.931 . S
H4745 C4760 0.930 . S
C4746 H4734 0.930 . S
C4746 C4747 1.399 . S
C4746 C4751 1.399 . S
C4747 C4746 1.399 . S
C4747 C4748 1.376 . S
C4748 H4735 0.930 . S
C4748 C4747 1.376 . S
C4748 C4749 1.388 . S
C4749 H4736 0.930 . S
C4749 C4748 1.388 . S
C4749 C4750 1.390 . S
C4750 C4749 1.390 . S
C4750 C4751 1.394 . S
C4750 C4756 1.465 . S
C4751 C4746 1.399 . S
C4751 C4750 1.394 . S
C4751 C4752 1.516 . S
C4752 C4751 1.516 . S
C4752 C4753 1.502 . S
C4752 C4754 1.561 . S
C4752 C4755 1.526 . S
C4753 H4737 0.959 . S
C4753 H4738 0.959 . S
C4753 H4739 0.961 . S
C4753 C4752 1.502 . S
C4754 H4740 0.960 . S
C4754 H4741 0.961 . S
C4754 H4742 0.959 . S
C4754 C4752 1.561 . S
C4755 C4752 1.526 . S
C4755 C4756 1.396 . S
C4755 C4760 1.390 . S
C4756 C4750 1.465 . S
C4756 C4755 1.396 . S
C4756 C4757 1.399 . S
C4757 H4743 0.929 . S
C4757 C4756 1.399 . S
C4757 C4758 1.385 . S
C4758 H4744 0.931 . S
C4758 C4757 1.385 . S
C4758 C4759 1.389 . S
C4759 C4758 1.389 . S
C4759 C4760 1.387 . S
C4760 H4745 0.930 . S
C4760 C4755 1.390 . S
C4760 C4759 1.387 . S
H4761 C4773 0.930 . S
H4762 C4775 0.930 . S
H4763 C4776 0.930 . S
H4764 C4780 0.959 . S
H4765 C4780 0.959 . S
H4766 C4780 0.961 . S
H4767 C4781 0.960 . S
H4768 C4781 0.961 . S
H4769 C4781 0.959 . S
H4770 C4784 0.929 . S
H4771 C4785 0.931 . S
H4772 C4787 0.930 . S
C4773 H4761 0.930 . S
C4773 C4774 1.399 . S
C4773 C4778 1.399 . S
C4774 C4773 1.399 . S
C4774 C4775 1.376 . S
C4775 H4762 0.930 . S
C4775 C4774 1.376 . S
C4775 C4776 1.388 . S
C4776 H4763 0.930 . S
C4776 C4775 1.388 . S
C4776 C4777 1.390 . S
C4777 C4776 1.390 . S
C4777 C4778 1.394 . S
C4777 C4783 1.465 . S
C4778 C4773 1.399 . S
C4778 C4777 1.394 . S
C4778 C4779 1.516 . S
C4779 C4778 1.516 . S
C4779 C4780 1.502 . S
C4779 C4781 1.561 . S
C4779 C4782 1.526 . S
C4780 H4764 0.959 . S
C4780 H4765 0.959 . S
C4780 H4766 0.961 . S
C4780 C4779 1.502 . S
C4781 H4767 0.960 . S
C4781 H4768 0.961 . S
C4781 H4769 0.959 . S
C4781 C4779 1.561 . S
C4782 C4779 1.526 . S
C4782 C4783 1.396 . S
C4782 C4787 1.390 . S
C4783 C4777 1.465 . S
C4783 C4782 1.396 . S
C4783 C4784 1.399 . S
C4784 H4770 0.929 . S
C4784 C4783 1.399 . S
C4784 C4785 1.385 . S
C4785 H4771 0.931 . S
C4785 C4784 1.385 . S
C4785 C4786 1.389 . S
C4786 C4785 1.389 . S
C4786 C4787 1.387 . S
C4787 H4772 0.930 . S
C4787 C4782 1.390 . S
C4787 C4786 1.387 . S
H4788 C4800 0.930 . S
H4789 C4802 0.930 . S
H4790 C4803 0.930 . S
H4791 C4807 0.959 . S
H4792 C4807 0.959 . S
H4793 C4807 0.961 . S
H4794 C4808 0.960 . S
H4795 C4808 0.961 . S
H4796 C4808 0.959 . S
H4797 C4811 0.929 . S
H4798 C4812 0.931 . S
H4799 C4814 0.930 . S
C4800 H4788 0.930 . S
C4800 C4801 1.399 . S
C4800 C4805 1.399 . S
C4801 C4800 1.399 . S
C4801 C4802 1.376 . S
C4802 H4789 0.930 . S
C4802 C4801 1.376 . S
C4802 C4803 1.388 . S
C4803 H4790 0.930 . S
C4803 C4802 1.388 . S
C4803 C4804 1.390 . S
C4804 C4803 1.390 . S
C4804 C4805 1.394 . S
C4804 C4810 1.465 . S
C4805 C4800 1.399 . S
C4805 C4804 1.394 . S
C4805 C4806 1.516 . S
C4806 C4805 1.516 . S
C4806 C4807 1.502 . S
C4806 C4808 1.561 . S
C4806 C4809 1.526 . S
C4807 H4791 0.959 . S
C4807 H4792 0.959 . S
C4807 H4793 0.961 . S
C4807 C4806 1.502 . S
C4808 H4794 0.960 . S
C4808 H4795 0.961 . S
C4808 H4796 0.959 . S
C4808 C4806 1.561 . S
C4809 C4806 1.526 . S
C4809 C4810 1.396 . S
C4809 C4814 1.390 . S
C4810 C4804 1.465 . S
C4810 C4809 1.396 . S
C4810 C4811 1.399 . S
C4811 H4797 0.929 . S
C4811 C4810 1.399 . S
C4811 C4812 1.385 . S
C4812 H4798 0.931 . S
C4812 C4811 1.385 . S
C4812 C4813 1.389 . S
C4813 C4812 1.389 . S
C4813 C4814 1.387 . S
C4814 H4799 0.930 . S
C4814 C4809 1.390 . S
C4814 C4813 1.387 . S
H4815 C4827 0.930 . S
H4816 C4829 0.930 . S
H4817 C4830 0.930 . S
H4818 C4834 0.959 . S
H4819 C4834 0.959 . S
H4820 C4834 0.961 . S
H4821 C4835 0.960 . S
H4822 C4835 0.961 . S
H4823 C4835 0.959 . S
H4824 C4838 0.929 . S
H4825 C4839 0.931 . S
H4826 C4841 0.930 . S
C4827 H4815 0.930 . S
C4827 C4828 1.399 . S
C4827 C4832 1.399 . S
C4828 C4827 1.399 . S
C4828 C4829 1.376 . S
C4829 H4816 0.930 . S
C4829 C4828 1.376 . S
C4829 C4830 1.388 . S
C4830 H4817 0.930 . S
C4830 C4829 1.388 . S
C4830 C4831 1.390 . S
C4831 C4830 1.390 . S
C4831 C4832 1.394 . S
C4831 C4837 1.465 . S
C4832 C4827 1.399 . S
C4832 C4831 1.394 . S
C4832 C4833 1.516 . S
C4833 C4832 1.516 . S
C4833 C4834 1.502 . S
C4833 C4835 1.561 . S
C4833 C4836 1.526 . S
C4834 H4818 0.959 . S
C4834 H4819 0.959 . S
C4834 H4820 0.961 . S
C4834 C4833 1.502 . S
C4835 H4821 0.960 . S
C4835 H4822 0.961 . S
C4835 H4823 0.959 . S
C4835 C4833 1.561 . S
C4836 C4833 1.526 . S
C4836 C4837 1.396 . S
C4836 C4841 1.390 . S
C4837 C4831 1.465 . S
C4837 C4836 1.396 . S
C4837 C4838 1.399 . S
C4838 H4824 0.929 . S
C4838 C4837 1.399 . S
C4838 C4839 1.385 . S
C4839 H4825 0.931 . S
C4839 C4838 1.385 . S
C4839 C4840 1.389 . S
C4840 C4839 1.389 . S
C4840 C4841 1.387 . S
C4841 H4826 0.930 . S
C4841 C4836 1.390 . S
C4841 C4840 1.387 . S
H4842 C4854 0.930 . S
H4843 C4856 0.930 . S
H4844 C4857 0.930 . S
H4845 C4861 0.959 . S
H4846 C4861 0.959 . S
H4847 C4861 0.961 . S
H4848 C4862 0.960 . S
H4849 C4862 0.961 . S
H4850 C4862 0.959 . S
H4851 C4865 0.929 . S
H4852 C4866 0.931 . S
H4853 C4868 0.930 . S
C4854 H4842 0.930 . S
C4854 C4855 1.399 . S
C4854 C4859 1.399 . S
C4855 C4854 1.399 . S
C4855 C4856 1.376 . S
C4856 H4843 0.930 . S
C4856 C4855 1.376 . S
C4856 C4857 1.388 . S
C4857 H4844 0.930 . S
C4857 C4856 1.388 . S
C4857 C4858 1.390 . S
C4858 C4857 1.390 . S
C4858 C4859 1.394 . S
C4858 C4864 1.465 . S
C4859 C4854 1.399 . S
C4859 C4858 1.394 . S
C4859 C4860 1.516 . S
C4860 C4859 1.516 . S
C4860 C4861 1.502 . S
C4860 C4862 1.561 . S
C4860 C4863 1.526 . S
C4861 H4845 0.959 . S
C4861 H4846 0.959 . S
C4861 H4847 0.961 . S
C4861 C4860 1.502 . S
C4862 H4848 0.960 . S
C4862 H4849 0.961 . S
C4862 H4850 0.959 . S
C4862 C4860 1.561 . S
C4863 C4860 1.526 . S
C4863 C4864 1.396 . S
C4863 C4868 1.390 . S
C4864 C4858 1.465 . S
C4864 C4863 1.396 . S
C4864 C4865 1.399 . S
C4865 H4851 0.929 . S
C4865 C4864 1.399 . S
C4865 C4866 1.385 . S
C4866 H4852 0.931 . S
C4866 C4865 1.385 . S
C4866 C4867 1.389 . S
C4867 C4866 1.389 . S
C4867 C4868 1.387 . S
C4868 H4853 0.930 . S
C4868 C4863 1.390 . S
C4868 C4867 1.387 . S
H4869 C4881 0.930 . S
H4870 C4883 0.930 . S
H4871 C4884 0.930 . S
H4872 C4888 0.959 . S
H4873 C4888 0.959 . S
H4874 C4888 0.961 . S
H4875 C4889 0.960 . S
H4876 C4889 0.961 . S
H4877 C4889 0.959 . S
H4878 C4892 0.929 . S
H4879 C4893 0.931 . S
H4880 C4895 0.930 . S
C4881 H4869 0.930 . S
C4881 C4882 1.399 . S
C4881 C4886 1.399 . S
C4882 C4881 1.399 . S
C4882 C4883 1.376 . S
C4883 H4870 0.930 . S
C4883 C4882 1.376 . S
C4883 C4884 1.388 . S
C4884 H4871 0.930 . S
C4884 C4883 1.388 . S
C4884 C4885 1.390 . S
C4885 C4884 1.390 . S
C4885 C4886 1.394 . S
C4885 C4891 1.465 . S
C4886 C4881 1.399 . S
C4886 C4885 1.394 . S
C4886 C4887 1.516 . S
C4887 C4886 1.516 . S
C4887 C4888 1.502 . S
C4887 C4889 1.561 . S
C4887 C4890 1.526 . S
C4888 H4872 0.959 . S
C4888 H4873 0.959 . S
C4888 H4874 0.961 . S
C4888 C4887 1.502 . S
C4889 H4875 0.960 . S
C4889 H4876 0.961 . S
C4889 H4877 0.959 . S
C4889 C4887 1.561 . S
C4890 C4887 1.526 . S
C4890 C4891 1.396 . S
C4890 C4895 1.390 . S
C4891 C4885 1.465 . S
C4891 C4890 1.396 . S
C4891 C4892 1.399 . S
C4892 H4878 0.929 . S
C4892 C4891 1.399 . S
C4892 C4893 1.385 . S
C4893 H4879 0.931 . S
C4893 C4892 1.385 . S
C4893 C4894 1.389 . S
C4894 C4893 1.389 . S
C4894 C4895 1.387 . S
C4895 H4880 0.930 . S
C4895 C4890 1.390 . S
C4895 C4894 1.387 . S
H4896 C4908 0.930 . S
H4897 C4910 0.930 . S
H4898 C4911 0.930 . S
H4899 C4915 0.959 . S
H4900 C4915 0.959 . S
H4901 C4915 0.961 . S
H4902 C4916 0.960 . S
H4903 C4916 0.961 . S
H4904 C4916 0.959 . S
H4905 C4919 0.929 . S
H4906 C4920 0.931 . S
H4907 C4922 0.930 . S
C4908 H4896 0.930 . S
C4908 C4909 1.399 . S
C4908 C4913 1.399 . S
C4909 C4908 1.399 . S
C4909 C4910 1.376 . S
C4910 H4897 0.930 . S
C4910 C4909 1.376 . S
C4910 C4911 1.388 . S
C4911 H4898 0.930 . S
C4911 C4910 1.388 . S
C4911 C4912 1.390 . S
C4912 C4911 1.390 . S
C4912 C4913 1.394 . S
C4912 C4918 1.465 . S
C4913 C4908 1.399 . S
C4913 C4912 1.394 . S
C4913 C4914 1.516 . S
C4914 C4913 1.516 . S
C4914 C4915 1.502 . S
C4914 C4916 1.561 . S
C4914 C4917 1.526 . S
C4915 H4899 0.959 . S
C4915 H4900 0.959 . S
C4915 H4901 0.961 . S
C4915 C4914 1.502 . S
C4916 H4902 0.960 . S
C4916 H4903 0.961 . S
C4916 H4904 0.959 . S
C4916 C4914 1.561 . S
C4917 C4914 1.526 . S
C4917 C4918 1.396 . S
C4917 C4922 1.390 . S
C4918 C4912 1.465 . S
C4918 C4917 1.396 . S
C4918 C4919 1.399 . S
C4919 H4905 0.929 . S
C4919 C4918 1.399 . S
C4919 C4920 1.385 . S
C4920 H4906 0.931 . S
C4920 C4919 1.385 . S
C4920 C4921 1.389 . S
C4921 C4920 1.389 . S
C4921 C4922 1.387 . S
C4922 H4907 0.930 . S
C4922 C4917 1.390 . S
C4922 C4921 1.387 . S
H4923 C4935 0.930 . S
H4924 C4937 0.930 . S
H4925 C4938 0.930 . S
H4926 C4942 0.959 . S
H4927 C4942 0.959 . S
H4928 C4942 0.961 . S
H4929 C4943 0.960 . S
H4930 C4943 0.961 . S
H4931 C4943 0.959 . S
H4932 C4946 0.929 . S
H4933 C4947 0.931 . S
H4934 C4949 0.930 . S
C4935 H4923 0.930 . S
C4935 C4936 1.399 . S
C4935 C4940 1.399 . S
C4936 C4935 1.399 . S
C4936 C4937 1.376 . S
C4937 H4924 0.930 . S
C4937 C4936 1.376 . S
C4937 C4938 1.388 . S
C4938 H4925 0.930 . S
C4938 C4937 1.388 . S
C4938 C4939 1.390 . S
C4939 C4938 1.390 . S
C4939 C4940 1.394 . S
C4939 C4945 1.465 . S
C4940 C4935 1.399 . S
C4940 C4939 1.394 . S
C4940 C4941 1.516 . S
C4941 C4940 1.516 . S
C4941 C4942 1.502 . S
C4941 C4943 1.561 . S
C4941 C4944 1.526 . S
C4942 H4926 0.959 . S
C4942 H4927 0.959 . S
C4942 H4928 0.961 . S
C4942 C4941 1.502 . S
C4943 H4929 0.960 . S
C4943 H4930 0.961 . S
C4943 H4931 0.959 . S
C4943 C4941 1.561 . S
C4944 C4941 1.526 . S
C4944 C4945 1.396 . S
C4944 C4949 1.390 . S
C4945 C4939 1.465 . S
C4945 C4944 1.396 . S
C4945 C4946 1.399 . S
C4946 H4932 0.929 . S
C4946 C4945 1.399 . S
C4946 C4947 1.385 . S
C4947 H4933 0.931 . S
C4947 C4946 1.385 . S
C4947 C4948 1.389 . S
C4948 C4947 1.389 . S
C4948 C4949 1.387 . S
C4949 H4934 0.930 . S
C4949 C4944 1.390 . S
C4949 C4948 1.387 . S
H4950 C4962 0.930 . S
H4951 C4964 0.930 . S
H4952 C4965 0.930 . S
H4953 C4969 0.959 . S
H4954 C4969 0.959 1_655 S
H4955 C4969 0.961 . S
H4956 C4970 0.960 . S
H4957 C4970 0.961 . S
H4958 C4970 0.959 . S
H4959 C4973 0.929 . S
H4960 C4974 0.931 . S
H4961 C4976 0.930 . S
C4962 H4950 0.930 . S
C4962 C4963 1.399 . S
C4962 C4967 1.399 . S
C4963 C4962 1.399 . S
C4963 C4964 1.376 . S
C4964 H4951 0.930 . S
C4964 C4963 1.376 . S
C4964 C4965 1.388 . S
C4965 H4952 0.930 . S
C4965 C4964 1.388 . S
C4965 C4966 1.390 . S
C4966 C4965 1.390 . S
C4966 C4967 1.394 . S
C4966 C4972 1.465 1_455 S
C4967 C4962 1.399 . S
C4967 C4966 1.394 . S
C4967 C4968 1.516 1_455 S
C4968 C4967 1.516 1_655 S
C4968 C4969 1.502 1_655 S
C4968 C4970 1.561 . S
C4968 C4971 1.526 . S
C4969 H4953 0.959 . S
C4969 H4954 0.959 1_455 S
C4969 H4955 0.961 . S
C4969 C4968 1.502 1_455 S
C4970 H4956 0.960 . S
C4970 H4957 0.961 . S
C4970 H4958 0.959 . S
C4970 C4968 1.561 . S
C4971 C4968 1.526 . S
C4971 C4972 1.396 . S
C4971 C4976 1.390 . S
C4972 C4966 1.465 1_655 S
C4972 C4971 1.396 . S
C4972 C4973 1.399 . S
C4973 H4959 0.929 . S
C4973 C4972 1.399 . S
C4973 C4974 1.385 . S
C4974 H4960 0.931 . S
C4974 C4973 1.385 . S
C4974 C4975 1.389 . S
C4975 C4974 1.389 . S
C4975 C4976 1.387 . S
C4976 H4961 0.930 . S
C4976 C4971 1.390 . S
C4976 C4975 1.387 . S
H4977 C4989 0.930 . S
H4978 C4991 0.930 . S
H4979 C4992 0.930 . S
H4980 C4996 0.959 . S
H4981 C4996 0.959 . S
H4982 C4996 0.961 . S
H4983 C4997 0.960 . S
H4984 C4997 0.961 . S
H4985 C4997 0.959 . S
H4986 C5000 0.929 . S
H4987 C5001 0.931 . S
H4988 C5003 0.930 . S
C4989 H4977 0.930 . S
C4989 C4990 1.399 . S
C4989 C4994 1.399 . S
C4990 C4989 1.399 . S
C4990 C4991 1.376 . S
C4991 H4978 0.930 . S
C4991 C4990 1.376 . S
C4991 C4992 1.388 . S
C4992 H4979 0.930 . S
C4992 C4991 1.388 . S
C4992 C4993 1.390 . S
C4993 C4992 1.390 . S
C4993 C4994 1.394 . S
C4993 C4999 1.465 . S
C4994 C4989 1.399 . S
C4994 C4993 1.394 . S
C4994 C4995 1.516 . S
C4995 C4994 1.516 . S
C4995 C4996 1.502 . S
C4995 C4997 1.561 . S
C4995 C4998 1.526 . S
C4996 H4980 0.959 . S
C4996 H4981 0.959 . S
C4996 H4982 0.961 . S
C4996 C4995 1.502 . S
C4997 H4983 0.960 . S
C4997 H4984 0.961 . S
C4997 H4985 0.959 . S
C4997 C4995 1.561 . S
C4998 C4995 1.526 . S
C4998 C4999 1.396 . S
C4998 C5003 1.390 . S
C4999 C4993 1.465 . S
C4999 C4998 1.396 . S
C4999 C5000 1.399 . S
C5000 H4986 0.929 . S
C5000 C4999 1.399 . S
C5000 C5001 1.385 . S
C5001 H4987 0.931 . S
C5001 C5000 1.385 . S
C5001 C5002 1.389 . S
C5002 C5001 1.389 . S
C5002 C5003 1.387 . S
C5003 H4988 0.930 . S
C5003 C4998 1.390 . S
C5003 C5002 1.387 . S
H5004 C5016 0.930 . S
H5005 C5018 0.930 . S
H5006 C5019 0.930 . S
H5007 C5023 0.959 . S
H5008 C5023 0.959 . S
H5009 C5023 0.961 . S
H5010 C5024 0.960 . S
H5011 C5024 0.961 . S
H5012 C5024 0.959 . S
H5013 C5027 0.929 . S
H5014 C5028 0.931 . S
H5015 C5030 0.930 . S
C5016 H5004 0.930 . S
C5016 C5017 1.399 . S
C5016 C5021 1.399 . S
C5017 C5016 1.399 . S
C5017 C5018 1.376 . S
C5018 H5005 0.930 . S
C5018 C5017 1.376 . S
C5018 C5019 1.388 . S
C5019 H5006 0.930 . S
C5019 C5018 1.388 . S
C5019 C5020 1.390 . S
C5020 C5019 1.390 . S
C5020 C5021 1.394 . S
C5020 C5026 1.465 1_545 S
C5021 C5016 1.399 . S
C5021 C5020 1.394 . S
C5021 C5022 1.516 1_545 S
C5022 C5021 1.516 1_565 S
C5022 C5023 1.502 . S
C5022 C5024 1.561 . S
C5022 C5025 1.526 . S
C5023 H5007 0.959 . S
C5023 H5008 0.959 . S
C5023 H5009 0.961 . S
C5023 C5022 1.502 . S
C5024 H5010 0.960 . S
C5024 H5011 0.961 . S
C5024 H5012 0.959 . S
C5024 C5022 1.561 . S
C5025 C5022 1.526 . S
C5025 C5026 1.396 . S
C5025 C5030 1.390 . S
C5026 C5020 1.465 1_565 S
C5026 C5025 1.396 . S
C5026 C5027 1.399 . S
C5027 H5013 0.929 . S
C5027 C5026 1.399 . S
C5027 C5028 1.385 . S
C5028 H5014 0.931 . S
C5028 C5027 1.385 . S
C5028 C5029 1.389 . S
C5029 C5028 1.389 . S
C5029 C5030 1.387 . S
C5030 H5015 0.930 . S
C5030 C5025 1.390 . S
C5030 C5029 1.387 . S
H5031 C5043 0.930 . S
H5032 C5045 0.930 . S
H5033 C5046 0.930 1_565 S
H5034 C5050 0.959 . S
H5035 C5050 0.959 . S
H5036 C5050 0.961 . S
H5037 C5051 0.960 . S
H5038 C5051 0.961 . S
H5039 C5051 0.959 . S
H5040 C5054 0.929 . S
H5041 C5055 0.931 . S
H5042 C5057 0.930 . S
C5043 H5031 0.930 . S
C5043 C5044 1.399 . S
C5043 C5048 1.416 . S
C5044 C5043 1.399 . S
C5044 C5045 1.376 . S
C5045 H5032 0.930 . S
C5045 C5044 1.376 . S
C5045 C5046 1.388 . S
C5046 H5033 0.930 1_545 S
C5046 C5045 1.388 . S
C5046 C5047 1.390 . S
C5047 C5046 1.390 . S
C5047 C5048 1.420 . S
C5047 C5053 1.465 1_545 S
C5048 C5043 1.416 . S
C5048 C5047 1.420 . S
C5048 C5049 1.475 1_556 S
C5049 C5048 1.475 1_554 S
C5049 C5050 1.502 . S
C5049 C5051 1.561 . S
C5049 C5052 1.526 1_545 S
C5050 H5034 0.959 . S
C5050 H5035 0.959 . S
C5050 H5036 0.961 . S
C5050 C5049 1.502 . S
C5051 H5037 0.960 . S
C5051 H5038 0.961 . S
C5051 H5039 0.959 . S
C5051 C5049 1.561 . S
C5052 C5049 1.526 1_565 S
C5052 C5053 1.396 1_554 S
C5052 C5057 1.390 . S
C5053 C5047 1.465 1_565 S
C5053 C5052 1.396 1_556 S
C5053 C5054 1.399 . S
C5054 H5040 0.929 . S
C5054 C5053 1.399 . S
C5054 C5055 1.385 1_556 S
C5055 H5041 0.931 . S
C5055 C5054 1.385 1_554 S
C5055 C5056 1.389 . S
C5056 C5055 1.389 . S
C5056 C5057 1.387 . S
C5057 H5042 0.930 . S
C5057 C5052 1.390 . S
C5057 C5056 1.387 . S
H5058 C5070 0.930 . S
H5059 C5072 0.930 . S
H5060 C5073 0.930 . S
H5061 C5077 0.959 . S
H5062 C5077 0.959 1_455 S
H5063 C5077 0.961 . S
H5064 C5078 0.960 . S
H5065 C5078 0.961 . S
H5066 C5078 0.959 . S
H5067 C5081 0.929 1_556 S
H5068 C5082 0.931 . S
H5069 C5084 0.930 . S
C5070 H5058 0.930 . S
C5070 C5071 1.399 . S
C5070 C5075 1.399 . S
C5071 C5070 1.399 . S
C5071 C5072 1.376 . S
C5072 H5059 0.930 . S
C5072 C5071 1.376 . S
C5072 C5073 1.388 . S
C5073 H5060 0.930 . S
C5073 C5072 1.388 . S
C5073 C5074 1.390 . S
C5074 C5073 1.390 . S
C5074 C5075 1.394 . S
C5074 C5080 1.465 1_656 S
C5075 C5070 1.399 . S
C5075 C5074 1.394 . S
C5075 C5076 1.445 1_656 S
C5076 C5075 1.445 1_454 S
C5076 C5077 1.499 1_455 S
C5076 C5078 1.624 1_554 S
C5076 C5079 1.544 . S
C5077 H5061 0.959 . S
C5077 H5062 0.959 1_655 S
C5077 H5063 0.961 . S
C5077 C5076 1.499 1_655 S
C5078 H5064 0.960 . S
C5078 H5065 0.961 . S
C5078 H5066 0.959 . S
C5078 C5076 1.624 1_556 S
C5079 C5076 1.544 . S
C5079 C5080 1.396 . S
C5079 C5084 1.390 . S
C5080 C5074 1.465 1_454 S
C5080 C5079 1.396 . S
C5080 C5081 1.399 . S
C5081 H5067 0.929 1_554 S
C5081 C5080 1.399 . S
C5081 C5082 1.385 . S
C5082 H5068 0.931 . S
C5082 C5081 1.385 . S
C5082 C5083 1.389 . S
C5083 C5082 1.389 . S
C5083 C5084 1.387 . S
C5084 H5069 0.930 . S
C5084 C5079 1.390 . S
C5084 C5083 1.387 . S
H5085 C5097 0.930 . S
H5086 C5099 0.930 . S
H5087 C5100 0.930 . S
H5088 C5104 0.959 . S
H5089 C5104 0.959 . S
H5090 C5104 0.961 . S
H5091 C5105 0.960 . S
H5092 C5105 0.961 . S
H5093 C5105 0.959 1_554 S
H5094 C5108 0.929 . S
H5095 C5109 0.931 . S
H5096 C5111 0.930 . S
C5097 H5085 0.930 . S
C5097 C5098 1.399 . S
C5097 C5102 1.399 . S
C5098 C5097 1.399 . S
C5098 C5099 1.376 . S
C5099 H5086 0.930 . S
C5099 C5098 1.376 . S
C5099 C5100 1.388 1_556 S
C5100 H5087 0.930 . S
C5100 C5099 1.388 1_554 S
C5100 C5101 1.390 . S
C5101 C5100 1.390 . S
C5101 C5102 1.394 1_554 S
C5101 C5107 1.465 . S
C5102 C5097 1.399 . S
C5102 C5101 1.394 1_556 S
C5102 C5103 1.516 . S
C5103 C5102 1.516 . S
C5103 C5104 1.502 . S
C5103 C5105 1.561 . S
C5103 C5106 1.526 1_556 S
C5104 H5088 0.959 . S
C5104 H5089 0.959 . S
C5104 H5090 0.961 . S
C5104 C5103 1.502 . S
C5105 H5091 0.960 . S
C5105 H5092 0.961 . S
C5105 H5093 0.959 1_556 S
C5105 C5103 1.561 . S
C5106 C5103 1.526 1_554 S
C5106 C5107 1.396 . S
C5106 C5111 1.390 . S
C5107 C5101 1.465 . S
C5107 C5106 1.396 . S
C5107 C5108 1.399 . S
C5108 H5094 0.929 . S
C5108 C5107 1.399 . S
C5108 C5109 1.385 . S
C5109 H5095 0.931 . S
C5109 C5108 1.385 . S
C5109 C5110 1.389 . S
C5110 C5109 1.389 . S
C5110 C5111 1.387 . S
C5111 H5096 0.930 . S
C5111 C5106 1.390 . S
C5111 C5110 1.387 . S
C3181 C20 1.001 . S
C3193 C645 1.072 . S
C3208 C117 1.055 . S
C3220 C724 1.024 . S
C3235 C557 1.088 . S
C3247 C233 1.051 . S
C3262 C1017 1.018 . S
C3274 C284 1.090 . S
C3289 C401 1.024 . S
C3301 C841 1.044 . S
C3316 C469 1.093 . S
C3328 C929 1.020 . S
C3343 C137 1.015 . S
C3355 C548 1.014 . S
C3370 C196 1.089 . S
C3382 C636 1.031 . S
C3397 C733 1.040 . S
C3409 C57 1.010 . S
C3424 C849 1.053 . S
C3436 C489 1.088 . S
C3451 C321 1.081 . S
C3463 C937 1.009 . S
C3478 C1025 1.085 . S
C3490 C381 1.069 . S
C3505 C1701 1.023 . S
C3517 C1076 1.095 . S
C3532 C1164 1.077 . S
C3544 C1780 1.017 . S
C3559 C1289 0.998 . S
C3571 C1613 1.087 . S
C3586 C2081 1.091 . S
C3598 C1340 1.044 . S
C3613 C1457 1.000 . S
C3625 C1905 1.092 . S
C3640 C1993 1.033 . S
C3652 C1525 1.039 . S
C3667 C1201 1.075 . S
C3679 C1604 1.079 . S
C3694 C1692 1.016 . S
C3706 C1252 1.015 . S
C3721 C1113 1.086 . S
C3733 C1789 1.020 . S
C3748 C1897 1.026 . S
C3760 C1545 1.012 . S
C3775 C1985 0.993 . S
C3787 C1377 1.031 . S
C3802 C2073 1.000 . S
C3814 C1437 1.075 . S
C3829 C2757 1.096 . S
C3841 C2169 1.005 . S
C3856 C2836 1.069 . S
C3868 C2229 1.076 . S
C3883 C2669 1.029 . S
C3895 C2345 1.045 . S
C3910 C2396 1.001 . S
C3922 C3137 1.093 . S
C3937 C2513 1.003 . S
C3949 C2961 1.069 . S
C3964 C3041 1.095 . S
C3976 C2581 1.003 . S
C3991 C2660 1.084 . S
C4003 C2249 1.033 . S
C4018 C2308 1.019 . S
C4030 C2748 1.071 . S
C4045 C2132 1.024 . S
C4057 C2845 1.077 . S
C4072 C2953 1.086 . S
C4084 C2601 1.066 . S
C4099 C3049 1.090 . S
C4111 C2433 1.056 . S
C4126 C3129 1.089 . S
C4138 C2493 1.045 . S
C4153 C313 1.520 . S
C4165 C49 1.611 . S
C4180 C372 1.528 . S
C4192 C145 1.595 . S
C4207 C205 1.524 . S
C4219 C497 1.612 . S
C4234 C821 1.544 . S
C4246 C577 1.544 . S
C4261 C909 1.576 . S
C4273 C665 1.595 . S
C4288 C997 1.555 . S
C4300 C761 1.606 . S
C4315 C1369 1.611 . S
C4327 C1105 1.521 . S
C4342 C1428 1.526 . S
C4354 C1193 1.598 . S
C4369 C1261 1.538 . S
C4381 C1553 1.583 . S
C4396 C1868 1.591 . S
C4408 C1633 1.581 . S
C4423 C1956 1.554 . S
C4435 C1721 1.535 . S
C4450 C2044 1.582 . S
C4462 C1817 1.521 . S
C4477 C2425 1.552 . S
C4489 C2141 1.594 . S
C4504 C2257 1.526 . S
C4516 C2484 1.598 . S
C4531 C2609 1.536 . S
C4543 C2317 1.586 . S
C4558 C2689 1.594 . S
C4570 C2924 1.520 . S
C4585 C2777 1.548 . S
C4597 C3021 1.608 . S
C4612 C2873 1.533 . S
C4624 C3100 1.556 . S
C4639 C29 1.476 . S
C4651 C1641 1.424 . S
C4666 C1729 1.449 . S
C4678 C108 1.465 . S
C4693 C1809 1.473 . S
C4705 C225 1.429 . S
C4720 C2933 1.429 . S
C4732 C293 1.479 . S
C4747 C3012 1.476 . S
C4759 C409 1.436 . S
C4774 C3109 1.446 . S
C4786 C460 1.449 . S
C4801 C585 1.451 . S
C4813 C2161 1.464 . S
C4828 C2220 1.451 . S
C4840 C673 1.444 . S
C4855 C2337 1.443 . S
C4867 C753 1.471 . S
C4882 C812 1.427 . S
C4894 C1349 1.480 . S
C4909 C900 1.477 . S
C4921 C1465 1.435 . S
C4936 C988 1.461 . S
C4948 C1516 1.454 . S
C4963 C2697 1.464 . S
C4975 C1085 1.451 . S
C4990 C2785 1.423 . S
C5002 C1173 1.479 . S
C5017 C1281 1.440 . S
C5029 C2865 1.473 . S
C5044 C1877 1.470 . S
C5056 C2405 1.430 . S
C5071 C1965 1.469 . S
C5083 C2521 1.446 . S
C5098 C2053 1.426 . S
C5110 C2572 1.471 . S
