# Generated by pormake.
# Topology sml, (6)-cn, num edge types: 1
# Building blocks:
#     Node 0, Type 0, BuildingBlock: OJICUG_clean_sbu_0, # of connection points: 6
#     Node 1, Type 0, BuildingBlock: OJICUG_clean_sbu_0, # of connection points: 6
#     Node 2, Type 0, BuildingBlock: OJICUG_clean_sbu_0, # of connection points: 6
#     Node 3, Type 0, BuildingBlock: OJICUG_clean_sbu_0, # of connection points: 6
#     Node 4, Type 0, BuildingBlock: OJICUG_clean_sbu_0, # of connection points: 6
#     Node 5, Type 0, BuildingBlock: OJICUG_clean_sbu_0, # of connection points: 6
#     Edge 6, Type (0, 0), BuildingBlock: ZUJKAS_clean_linker_0, # of connection points: 2
#     Edge 7, Type (0, 0), BuildingBlock: ZUJKAS_clean_linker_0, # of connection points: 2
#     Edge 8, Type (0, 0), BuildingBlock: ZUJKAS_clean_linker_0, # of connection points: 2
#     Edge 9, Type (0, 0), BuildingBlock: ZUJKAS_clean_linker_0, # of connection points: 2
#     Edge 10, Type (0, 0), BuildingBlock: ZUJKAS_clean_linker_0, # of connection points: 2
#     Edge 11, Type (0, 0), BuildingBlock: ZUJKAS_clean_linker_0, # of connection points: 2
#     Edge 12, Type (0, 0), BuildingBlock: ZUJKAS_clean_linker_0, # of connection points: 2
#     Edge 13, Type (0, 0), BuildingBlock: ZUJKAS_clean_linker_0, # of connection points: 2
#     Edge 14, Type (0, 0), BuildingBlock: ZUJKAS_clean_linker_0, # of connection points: 2
#     Edge 15, Type (0, 0), BuildingBlock: ZUJKAS_clean_linker_0, # of connection points: 2
#     Edge 16, Type (0, 0), BuildingBlock: ZUJKAS_clean_linker_0, # of connection points: 2
#     Edge 17, Type (0, 0), BuildingBlock: ZUJKAS_clean_linker_0, # of connection points: 2
#     Edge 18, Type (0, 0), BuildingBlock: ZUJKAS_clean_linker_0, # of connection points: 2
#     Edge 19, Type (0, 0), BuildingBlock: ZUJKAS_clean_linker_0, # of connection points: 2
#     Edge 20, Type (0, 0), BuildingBlock: ZUJKAS_clean_linker_0, # of connection points: 2
#     Edge 21, Type (0, 0), BuildingBlock: ZUJKAS_clean_linker_0, # of connection points: 2
#     Edge 22, Type (0, 0), BuildingBlock: ZUJKAS_clean_linker_0, # of connection points: 2
#     Edge 23, Type (0, 0), BuildingBlock: ZUJKAS_clean_linker_0, # of connection points: 2
# Relax obj value: 0.230
# Max RMSD: 0.261
# Mean RMSD: 0.261
data_MOF--net-sml--node1-OJICUG_clean_sbu_0--edge1-ZUJKAS_clean_linker_0
_symmetry_space_group_name_H-M    P1
_symmetry_Int_Tables_number       1
_symmetry_cell_setting            triclinic
loop_
_symmetry_equiv_pos_as_xyz
'x, y, z'
_cell_length_a     53.35954
_cell_length_b     53.397626
_cell_length_c     19.836858
_cell_angle_alpha  90.028052
_cell_angle_beta   90.044509
_cell_angle_gamma 119.97045
loop_
_atom_site_label
_atom_site_type_symbol
_atom_site_fract_x
_atom_site_fract_y
_atom_site_fract_z
_atom_type_partial_charge
Sc0 Sc 0.18872 0.37154 0.00375 0.0
Sc1 Sc 0.2487 0.43785 0.05371 0.0
Sc2 Sc 0.19382 0.43724 0.9534 0.0
O3 O 0.21044 0.41559 0.00362 0.0
C4 C 0.17995 0.3856 0.85201 0.0
C5 C 0.25404 0.38636 0.98622 0.0
C6 C 0.26134 0.47637 0.92233 0.0
C7 C 0.21173 0.38604 0.15525 0.0
C8 C 0.13743 0.38522 0.02069 0.0
C9 C 0.21898 0.47579 0.08522 0.0
O10 O 0.18008 0.36881 0.89721 0.0
O11 O 0.26494 0.41121 0.01328 0.0
O12 O 0.23496 0.46817 0.90972 0.0
O13 O 0.19481 0.36909 0.11022 0.0
O14 O 0.15101 0.40996 -0.00691 0.0
O15 O 0.2376 0.46814 0.09778 0.0
O16 O 0.14829 0.36897 0.02803 0.0
O17 O 0.23198 0.41151 0.14239 0.0
O18 O 0.20128 0.4657 0.03636 0.0
O19 O 0.22695 0.36965 0.97961 0.0
O20 O 0.18485 0.41099 0.86469 0.0
O21 O 0.26929 0.46655 0.97104 0.0
Sc22 Sc 0.75273 0.19539 0.28527 0.0
Sc23 Sc 0.80424 0.24853 0.39327 0.0
Sc24 Sc 0.81201 0.18973 0.34297 0.0
O25 O 0.78966 0.21127 0.34043 0.0
C26 C 0.74742 0.13837 0.35144 0.0
C27 C 0.73536 0.21843 0.413 0.0
C28 C 0.81693 0.21078 0.49561 0.0
C29 C 0.7822 0.26384 0.26064 0.0
C30 C 0.7923 0.1829 0.18858 0.0
C31 C 0.86295 0.25437 0.33455 0.0
O32 O 0.73692 0.15116 0.31738 0.0
O33 O 0.76121 0.23795 0.42669 0.0
O34 O 0.82008 0.19609 0.44947 0.0
O35 O 0.76301 0.23777 0.24789 0.0
O36 O 0.80697 0.18064 0.23628 0.0
O37 O 0.84884 0.2647 0.36374 0.0
O38 O 0.77291 0.1897 0.19812 0.0
O39 O 0.80032 0.27077 0.30838 0.0
O40 O 0.85206 0.22774 0.32069 0.0
O41 O 0.72923 0.19973 0.36696 0.0
O42 O 0.77396 0.15004 0.36703 0.0
O43 O 0.80951 0.22956 0.48372 0.0
Sc44 Sc 0.61908 0.79811 0.63095 0.0
Sc45 Sc 0.55477 0.79599 0.68119 0.0
Sc46 Sc 0.55173 0.73762 0.59061 0.0
O47 O 0.57513 0.77724 0.63411 0.0
C48 C 0.60197 0.77107 0.48353 0.0
C49 C 0.60697 0.84994 0.60745 0.0
C50 C 0.5142 0.76764 0.55433 0.0
C51 C 0.60676 0.81042 0.78121 0.0
C52 C 0.60374 0.73332 0.65883 0.0
C53 C 0.51505 0.7295 0.72242 0.0
O54 O 0.61974 0.78898 0.52588 0.0
O55 O 0.58295 0.83806 0.63846 0.0
O56 O 0.52056 0.74776 0.54667 0.0
O57 O 0.62309 0.8093 0.73617 0.0
O58 O 0.57869 0.72194 0.63253 0.0
O59 O 0.52291 0.75614 0.72878 0.0
O60 O 0.62063 0.76046 0.66155 0.0
O61 O 0.58138 0.80575 0.76927 0.0
O62 O 0.52489 0.71993 0.67723 0.0
O63 O 0.62214 0.83792 0.59977 0.0
O64 O 0.57651 0.75145 0.499 0.0
O65 O 0.52623 0.78762 0.59794 0.0
Sc66 Sc 0.79181 0.55768 0.97652 0.0
Sc67 Sc 0.74384 0.55697 0.09928 0.0
Sc68 Sc 0.8004 0.62336 0.03868 0.0
O69 O 0.77867 0.57931 0.03819 0.0
C70 C 0.85138 0.60873 0.03581 0.0
C71 C 0.77452 0.51924 0.11043 0.0
C72 C 0.78452 0.61026 0.19397 0.0
C73 C 0.72348 0.51795 0.96619 0.0
C74 C 0.80308 0.61061 0.88274 0.0
C75 C 0.73436 0.6074 0.04015 0.0
O76 O 0.83632 0.58402 0.0084 0.0
O77 O 0.75878 0.52845 0.13631 0.0
O78 O 0.79963 0.62662 0.1463 0.0
O79 O 0.74846 0.52828 0.93971 0.0
O80 O 0.80453 0.6269 0.93091 0.0
O81 O 0.72484 0.58238 0.06574 0.0
O82 O 0.79821 0.58504 0.89173 0.0
O83 O 0.7194 0.52632 0.02285 0.0
O84 O 0.76104 0.62463 0.02858 0.0
O85 O 0.78694 0.52777 0.05375 0.0
O86 O 0.84133 0.62532 0.04925 0.0
O87 O 0.76394 0.58467 0.18436 0.0
Sc88 Sc 0.18326 0.8026 0.34332 0.0
Sc89 Sc 0.18781 0.74144 0.38619 0.0
Sc90 Sc 0.24402 0.7979 0.29613 0.0
O91 O 0.20501 0.78065 0.34188 0.0
C92 C 0.2083 0.81257 0.19273 0.0
C93 C 0.13214 0.73907 0.31887 0.0
C94 C 0.21514 0.73041 0.25921 0.0
C95 C 0.17359 0.77656 0.49264 0.0
C96 C 0.24711 0.85314 0.36638 0.0
C97 C 0.25561 0.76994 0.4211 0.0
O98 O 0.19302 0.81523 0.2385 0.0
O99 O 0.14421 0.72757 0.35198 0.0
O100 O 0.236 0.75641 0.25757 0.0
O101 O 0.17106 0.79227 0.44794 0.0
O102 O 0.2583 0.84154 0.3305 0.0
O103 O 0.22949 0.74925 0.42331 0.0
O104 O 0.22031 0.84088 0.37936 0.0
O105 O 0.18131 0.75812 0.4789 0.0
O106 O 0.26367 0.79205 0.38403 0.0
O107 O 0.14433 0.76605 0.30811 0.0
O108 O 0.22668 0.80463 0.20501 0.0
O109 O 0.19324 0.72226 0.297 0.0
Sc110 Sc 0.43793 0.25331 0.5462 0.0
Sc111 Sc 0.43676 0.20282 0.66267 0.0
Sc112 Sc 0.37139 0.1952 0.60113 0.0
O113 O 0.41542 0.2171 0.6032 0.0
C114 C 0.38643 0.26074 0.60719 0.0
C115 C 0.47581 0.27118 0.68061 0.0
C116 C 0.3836 0.19023 0.75664 0.0
C117 C 0.47627 0.2231 0.53075 0.0
C118 C 0.38576 0.2141 0.44744 0.0
C119 C 0.38588 0.14431 0.59894 0.0
O120 O 0.41145 0.27102 0.58096 0.0
O121 O 0.46642 0.24556 0.70221 0.0
O122 O 0.36725 0.18877 0.70849 0.0
O123 O 0.46784 0.24011 0.5087 0.0
O124 O 0.36894 0.19849 0.49396 0.0
O125 O 0.41008 0.15854 0.62915 0.0
O126 O 0.41142 0.23431 0.45861 0.0
O127 O 0.46657 0.20847 0.58447 0.0
O128 O 0.36981 0.15484 0.58473 0.0
O129 O 0.46717 0.2766 0.6259 0.0
O130 O 0.36964 0.23388 0.61698 0.0
O131 O 0.40942 0.19581 0.74774 0.0
H132 H 0.33174 0.24796 0.63925 0.0
H133 H 0.31749 0.27747 0.70452 0.0
H134 H 0.40567 0.34775 0.70483 0.0
H135 H 0.42036 0.31825 0.63908 0.0
H136 H 0.34781 0.3014 0.83847 0.0
H137 H 0.35044 0.3829 0.65838 0.0
H138 H 0.3441 0.34809 0.62955 0.0
H139 H 0.37936 0.37463 0.65834 0.0
C140 C 0.34809 0.26989 0.65193 0.0
C141 C 0.37725 0.28068 0.63445 0.0
C142 C 0.33988 0.28669 0.68923 0.0
C143 C 0.36056 0.31463 0.70955 0.0
C144 C 0.38942 0.32623 0.6891 0.0
H145 H 0.31211 0.41974 0.96036 0.0
H146 H 0.34297 0.40523 0.90037 0.0
C147 C 0.39772 0.30939 0.65144 0.0
C148 C 0.35197 0.33008 0.7575 0.0
H149 H 0.33167 0.38123 0.76676 0.0
C150 C 0.34468 0.31917 0.82325 0.0
C151 C 0.34828 0.35337 0.7374 0.0
C152 C 0.35585 0.36559 0.66709 0.0
C153 C 0.33246 0.33009 0.86871 0.0
C154 C 0.32699 0.35214 0.84729 0.0
C155 C 0.33584 0.36424 0.78281 0.0
C156 C 0.30933 0.36065 0.8882 0.0
C157 C 0.32477 0.31743 0.93867 0.0
C158 C 0.28031 0.34032 0.90127 0.0
C159 C 0.26263 0.34846 0.93521 0.0
C160 C 0.27365 0.37718 0.95671 0.0
C161 C 0.303 0.39739 0.94496 0.0
C162 C 0.32064 0.38921 0.91048 0.0
H163 H 0.33797 0.30754 0.95375 0.0
H164 H 0.32793 0.33415 0.97637 0.0
H165 H 0.30168 0.30022 0.9396 0.0
H166 H 0.27108 0.31827 0.88345 0.0
H167 H 0.24016 0.33236 0.94328 0.0
H168 H 0.10006 0.33268 0.076 0.0
H169 H 0.05452 0.3185 0.13336 0.0
H170 H 0.06395 0.40201 0.09148 0.0
H171 H 0.10954 0.41645 0.03305 0.0
H172 H 0.04852 0.34725 0.24734 0.0
H173 H 0.98036 0.34437 0.03114 0.0
H174 H 0.01368 0.34391 0.01941 0.0
H175 H 0.01464 0.3769 0.04216 0.0
C176 C 0.09237 0.34799 0.07814 0.0
C177 C 0.1085 0.37572 0.04981 0.0
C178 C 0.06636 0.33984 0.11113 0.0
C179 C 0.05589 0.35918 0.11636 0.0
C180 C 0.07152 0.38667 0.08713 0.0
H181 H 0.88958 0.3128 0.31124 0.0
H182 H 0.93838 0.34382 0.26547 0.0
C183 C 0.09759 0.39485 0.05386 0.0
C184 C 0.02914 0.35061 0.15495 0.0
H185 H 0.95806 0.33111 0.13748 0.0
C186 C 0.02881 0.34405 0.22355 0.0
C187 C 0.00363 0.3468 0.12382 0.0
C188 C 0.00283 0.35316 0.04999 0.0
C189 C 0.00326 0.33254 0.26124 0.0
C190 C 0.97742 0.32724 0.22922 0.0
C191 C 0.97803 0.33531 0.16169 0.0
C192 C 0.94906 0.30974 0.262 0.0
C193 C 0.00386 0.32529 0.33449 0.0
C194 C 0.93917 0.28049 0.27504 0.0
C195 C 0.91147 0.2628 0.30043 0.0
C196 C 0.89311 0.27404 0.31349 0.0
C197 C 0.90334 0.3036 0.30212 0.0
C198 C 0.93108 0.32129 0.27585 0.0
H199 H 0.02596 0.33799 0.35614 0.0
H200 H 0.98877 0.32942 0.3647 0.0
H201 H -0.00302 0.30202 0.33898 0.0
H202 H 0.95262 0.27113 0.26371 0.0
H203 H 0.90429 0.24015 0.30882 0.0
H204 H 0.7006 0.09369 0.28869 0.0
H205 H 0.67209 0.04368 0.32929 0.0
H206 H 0.72177 0.06795 0.51378 0.0
H207 H 0.75099 0.11715 0.47209 0.0
H208 H 0.72031 0.02277 0.46219 0.0
H209 H 0.60845 0.00444 0.46465 0.0
H210 H 0.62558 0.01537 0.38378 0.0
H211 H 0.63972 0.03988 0.4541 0.0
C212 C 0.70507 0.08826 0.33816 0.0
C213 C 0.72809 0.10904 0.37706 0.0
C214 C 0.68868 0.0598 0.36155 0.0
C215 C 0.69463 0.0521 0.42489 0.0
C216 C 0.71686 0.07331 0.46467 0.0
H217 H 0.59668 0.89274 0.64977 0.0
H218 H 0.61692 0.94149 0.60254 0.0
C219 C 0.73357 0.1014 0.44079 0.0
C220 C 0.67971 0.02166 0.44806 0.0
H221 H 0.61366 0.96311 0.4824 0.0
C222 C 0.69697 0.0098 0.46686 0.0
C223 C 0.6493 0.00483 0.45466 0.0
C224 C 0.62968 0.01684 0.43888 0.0
C225 C 0.68481 0.98178 0.49275 0.0
C226 C 0.65436 0.96454 0.49715 0.0
C227 C 0.63699 0.97628 0.47825 0.0
C228 C 0.64035 0.93449 0.52256 0.0
C229 C 0.70488 0.97137 0.5171 0.0
C230 C 0.64622 0.91424 0.49221 0.0
C231 C 0.63531 0.88676 0.51997 0.0
C232 C 0.61762 0.87875 0.57746 0.0
C233 C 0.61042 0.89847 0.60568 0.0
C234 C 0.62187 0.92623 0.57864 0.0
H235 H 0.72669 0.98972 0.52946 0.0
H236 H 0.69613 0.95754 0.56254 0.0
H237 H 0.70755 0.95853 0.47666 0.0
H238 H 0.65966 0.91984 0.44763 0.0
H239 H 0.64066 0.87174 0.49625 0.0
H240 H 0.65651 0.74927 0.71397 0.0
H241 H 0.66949 0.72027 0.78491 0.0
H242 H 0.58452 0.64624 0.75666 0.0
H243 H 0.57114 0.6751 0.68498 0.0
H244 H 0.63718 0.6914 0.90737 0.0
H245 H 0.6429 0.61656 0.71981 0.0
H246 H 0.646 0.65055 0.69505 0.0
H247 H 0.61154 0.62092 0.71937 0.0
C248 C 0.64062 0.72672 0.72182 0.0
C249 C 0.61273 0.71456 0.69379 0.0
C250 C 0.64809 0.71022 0.7626 0.0
C251 C 0.62795 0.68121 0.77595 0.0
C252 C 0.60042 0.66858 0.74638 0.0
H253 H 0.67654 0.57275 0.01299 0.0
H254 H 0.64446 0.58721 0.95839 0.0
C255 C 0.59286 0.68511 0.7054 0.0
C256 C 0.63573 0.66499 0.82368 0.0
H257 H 0.65688 0.61444 0.83098 0.0
C258 C 0.64109 0.67426 0.89102 0.0
C259 C 0.64041 0.64244 0.80218 0.0
C260 C 0.63508 0.63196 0.73015 0.0
C261 C 0.65239 0.66249 0.93683 0.0
C262 C 0.65889 0.64129 0.91425 0.0
C263 C 0.65185 0.63073 0.84801 0.0
C264 C 0.6765 0.63271 0.95528 0.0
C265 C 0.65805 0.67345 0.00847 0.0
C266 C 0.70493 0.65357 0.97218 0.0
C267 C 0.72326 0.64544 0.00294 0.0
C268 C 0.71353 0.61623 0.01733 0.0
C269 C 0.68461 0.59546 0.00301 0.0
C270 C 0.66629 0.60363 0.97161 0.0
H271 H 0.64354 0.68184 0.02341 0.0
H272 H 0.65506 0.65619 0.04428 0.0
H273 H 0.68069 0.6915 0.01277 0.0
H274 H 0.71339 0.67605 0.95886 0.0
H275 H 0.74538 0.66198 0.01336 0.0
H276 H 0.09612 0.68053 0.3354 0.0
H277 H 0.049 0.64998 0.28154 0.0
H278 H 0.05598 0.72463 0.1803 0.0
H279 H 0.10274 0.7552 0.23313 0.0
H280 H -0.00071 0.65644 0.29139 0.0
H281 H 0.03598 0.66527 0.02697 0.0
H282 H 0.06012 0.67373 0.09807 0.0
H283 H 0.05065 0.69973 0.06811 0.0
C284 C 0.08764 0.69043 0.30158 0.0
C285 C 0.10324 0.72034 0.28868 0.0
C286 C 0.0608 0.67292 0.27074 0.0
C287 C 0.0494 0.68501 0.22596 0.0
C288 C 0.06477 0.71481 0.21351 0.0
H289 H 0.88842 0.65775 0.10474 0.0
H290 H 0.93602 0.67118 0.14926 0.0
C291 C 0.0914 0.73229 0.24441 0.0
C292 C 0.02063 0.66715 0.19494 0.0
H293 H 0.98589 0.65168 0.04309 0.0
C294 C -0.00367 0.65481 0.23714 0.0
C295 C 0.01689 0.66481 0.12416 0.0
C296 C 0.04232 0.67634 0.07666 0.0
C297 C 0.96831 0.64201 0.21025 0.0
C298 C 0.96469 0.64177 0.13964 0.0
C299 C 0.98886 0.65221 0.09728 0.0
C300 C 0.93632 0.6336 0.1097 0.0
C301 C 0.94279 0.62984 0.25755 0.0
C302 C 0.9212 0.6084 0.071 0.0
C303 C 0.8938 0.60053 0.04529 0.0
C304 C 0.88134 0.61796 0.05747 0.0
C305 C 0.8972 0.64372 0.09441 0.0
C306 C 0.92438 0.65141 0.12026 0.0
H307 H 0.94845 0.62507 0.30799 0.0
H308 H 0.93555 0.6459 0.26414 0.0
H309 H 0.92439 0.60975 0.23662 0.0
H310 H 0.93032 0.59457 0.06199 0.0
H311 H 0.88222 0.58059 0.01697 0.0
H312 H 0.34951 0.11515 0.49574 0.0
H313 H 0.33057 0.06486 0.46354 0.0
H314 H 0.37989 0.0547 0.62276 0.0
H315 H 0.39989 0.10571 0.65409 0.0
H316 H 0.38024 0.02684 0.50736 0.0
H317 H 0.26826 -0.00118 0.56955 0.0
H318 H 0.28407 0.02774 0.50962 0.0
H319 H 0.29915 0.03292 0.59321 0.0
C320 C 0.35636 0.10226 0.52401 0.0
C321 C 0.3758 0.11421 0.57819 0.0
C322 C 0.34546 0.0735 0.50563 0.0
C323 C 0.35319 0.05587 0.54198 0.0
C324 C 0.37345 0.06793 0.59453 0.0
H325 H 0.24181 0.87105 0.49027 0.0
H326 H 0.27097 0.91892 0.53999 0.0
C327 C 0.3848 0.09699 0.61238 0.0
C328 C 0.33943 0.02475 0.52545 0.0
H329 H 0.27343 0.96511 0.4998 0.0
C330 C 0.35689 0.01315 0.50648 0.0
C331 C 0.30901 0.00678 0.5259 0.0
C332 C 0.28908 0.01713 0.55141 0.0
C333 C 0.34462 0.98427 0.48517 0.0
C334 C 0.31413 0.96695 0.48085 0.0
C335 C 0.29681 0.97839 0.50225 0.0
C336 C 0.29935 0.93705 0.45378 0.0
C337 C 0.36447 0.97266 0.46824 0.0
C338 C 0.30588 0.93104 0.38917 0.0
C339 C 0.28959 0.90339 0.36128 0.0
C340 C 0.26597 0.88169 0.39673 0.0
C341 C 0.25974 0.88757 0.4616 0.0
C342 C 0.27643 0.91488 0.49009 0.0
H343 H 0.38531 0.98456 0.49595 0.0
H344 H 0.35438 0.94931 0.48045 0.0
H345 H 0.36944 0.97555 0.41354 0.0
H346 H 0.32287 0.94794 0.35929 0.0
H347 H 0.29466 0.89933 0.311 0.0
H348 H 0.17498 0.41354 0.74188 0.0
H349 H 0.17288 0.40002 0.62396 0.0
H350 H 0.17291 0.32224 0.68222 0.0
H351 H 0.17539 0.33573 0.80093 0.0
H352 H 0.21456 0.35415 0.5887 0.0
H353 H 0.1092 0.33938 0.50556 0.0
H354 H 0.12989 0.37292 0.54975 0.0
H355 H 0.11809 0.33929 0.59345 0.0
C356 C 0.17409 0.39332 0.72993 0.0
C357 C 0.17547 0.37579 0.78099 0.0
C358 C 0.17262 0.3855 0.6624 0.0
C359 C 0.17228 0.35992 0.64449 0.0
C360 C 0.17289 0.34194 0.69518 0.0
H361 H 0.16744 0.33551 0.20634 0.0
H362 H 0.1568 0.32195 0.32501 0.0
C363 C 0.1743 0.34972 0.76294 0.0
C364 C 0.17445 0.35387 0.57271 0.0
H365 H 0.14572 0.35282 0.41857 0.0
C366 C 0.19917 0.35316 0.55151 0.0
C367 C 0.15411 0.35203 0.52442 0.0
C368 C 0.12618 0.35062 0.54456 0.0
C369 C 0.20524 0.35303 0.48284 0.0
C370 C 0.18632 0.35412 0.43455 0.0
C371 C 0.16043 0.35241 0.45575 0.0
C372 C 0.19443 0.36032 0.36277 0.0
C373 C 0.23233 0.35269 0.46271 0.0
C374 C 0.21918 0.38633 0.34489 0.0
C375 C 0.22533 0.39419 0.27735 0.0
C376 C 0.20669 0.37629 0.22629 0.0
C377 C 0.18229 0.34982 0.24433 0.0
C378 C 0.17615 0.34199 0.31207 0.0
H379 H 0.2386 0.34188 0.50163 0.0
H380 H 0.22949 0.34149 0.41374 0.0
H381 H 0.25039 0.37527 0.45769 0.0
H382 H 0.2332 0.40112 0.38334 0.0
H383 H 0.24427 0.41473 0.26542 0.0
H384 H 0.83736 0.1765 0.1426 0.0
H385 H 0.84957 0.17346 0.02486 0.0
H386 H 0.77413 0.17662 0.95925 0.0
H387 H 0.76155 0.17931 0.07574 0.0
H388 H 0.78454 0.13522 0.88985 0.0
H389 H 0.88078 0.24623 0.90172 0.0
H390 H 0.87794 0.21967 0.96179 0.0
H391 H 0.85315 0.23309 0.96586 0.0
C392 C 0.82318 0.17619 0.1031 0.0
C393 C 0.79865 0.17849 0.11852 0.0
C394 C 0.83026 0.17452 0.03601 0.0
C395 C 0.81286 0.17509 0.98374 0.0
C396 C 0.78778 0.17613 -0.00089 0.0
H397 H 0.81214 0.23715 0.60899 0.0
H398 H 0.81677 0.22595 0.7258 0.0
C399 C 0.78074 0.17785 0.06578 0.0
C400 C 0.82131 0.1768 0.91249 0.0
H401 H 0.86439 0.22607 0.79488 0.0
C402 C 0.80246 0.15469 0.86885 0.0
C403 C 0.84469 0.20235 0.88588 0.0
C404 C 0.86534 0.22684 0.93088 0.0
C405 C 0.80501 0.15839 0.79879 0.0
C406 C 0.82723 0.18475 0.77229 0.0
C407 C 0.84742 0.20593 0.81581 0.0
C408 C 0.82698 0.19256 0.70118 0.0
C409 C 0.78261 0.1351 0.75393 0.0
C410 C 0.83164 0.17773 0.64892 0.0
C411 C 0.82885 0.18396 0.58189 0.0
C412 C 0.82145 0.2052 0.56629 0.0
C413 C 0.81771 0.22059 0.61907 0.0
C414 C 0.82048 0.21431 0.68586 0.0
H415 H 0.76493 0.11735 0.78325 0.0
H416 H 0.77299 0.1444 0.71942 0.0
H417 H 0.79307 0.12571 0.72254 0.0
H418 H 0.83698 0.16108 0.65999 0.0
H419 H 0.83207 0.17181 0.54245 0.0
H420 H 0.58316 0.72948 0.38618 0.0
H421 H 0.59317 0.73676 0.26529 0.0
H422 H 0.64826 0.82836 0.29908 0.0
H423 H 0.63952 0.82098 0.41992 0.0
H424 H 0.57693 0.76498 0.19032 0.0
H425 H 0.69539 0.81641 0.16204 0.0
H426 H 0.67719 0.79938 0.23957 0.0
H427 H 0.68638 0.83605 0.22115 0.0
C428 C 0.59795 0.75104 0.3678 0.0
C429 C 0.61054 0.77467 0.41217 0.0
C430 C 0.6037 0.75518 0.29888 0.0
C431 C 0.62174 0.78307 0.27312 0.0
C432 C 0.63502 0.80654 0.31777 0.0
H433 H 0.5911 0.83336 0.88446 0.0
H434 H 0.59879 0.82972 0.00476 0.0
C435 C 0.62978 0.80232 0.38684 0.0
C436 C 0.62343 0.7881 0.1995 0.0
H437 H 0.66987 0.82371 0.07003 0.0
C438 C 0.59731 0.77747 0.16397 0.0
C439 C 0.64998 0.8042 0.16486 0.0
C440 C 0.67878 0.81436 0.19886 0.0
C441 C 0.59694 0.78305 0.09529 0.0
C442 C 0.6234 0.80082 0.06174 0.0
C443 C 0.64961 0.81071 0.09645 0.0
C444 C 0.62396 0.80852 0.99008 0.0
C445 C 0.56812 0.76947 0.05932 0.0
C446 C 0.63754 0.79992 0.94236 0.0
C447 C 0.63379 0.80265 0.87365 0.0
C448 C 0.61613 0.81371 0.85201 0.0
C449 C 0.60446 0.82438 0.89992 0.0
C450 C 0.60871 0.82217 0.9685 0.0
H451 H 0.55141 0.75012 0.08654 0.0
H452 H 0.56049 0.78534 0.05663 0.0
H453 H 0.5699 0.76294 0.00719 0.0
H454 H 0.6496 0.78955 0.95814 0.0
H455 H 0.64301 0.79421 0.83772 0.0
H456 H 0.81318 0.66385 0.84012 0.0
H457 H 0.81916 0.68133 0.72369 0.0
H458 H 0.80847 0.60026 0.65229 0.0
H459 H 0.80279 0.58271 0.76742 0.0
H460 H 0.85581 0.6518 0.59254 0.0
H461 H 0.74992 0.64919 0.5883 0.0
H462 H 0.77576 0.66925 0.65353 0.0
H463 H 0.75816 0.63054 0.65275 0.0
C464 C 0.81222 0.64979 0.79961 0.0
C465 C 0.80731 0.62178 0.81308 0.0
C466 C 0.81564 0.65985 0.73329 0.0
C467 C 0.81415 0.64201 0.6798 0.0
C468 C 0.80982 0.61436 0.69318 0.0
H469 H 0.75677 0.5821 0.30888 0.0
H470 H 0.76816 0.59971 0.42421 0.0
C471 C 0.80641 0.60431 0.75906 0.0
C472 C 0.8155 0.65085 0.60899 0.0
H473 H 0.77138 0.65061 0.48448 0.0
C474 C 0.83787 0.65251 0.56871 0.0
C475 C 0.79201 0.6518 0.57875 0.0
C476 C 0.76747 0.65005 0.62017 0.0
C477 C 0.83598 0.65224 0.49826 0.0
C478 C 0.81123 0.65061 0.46802 0.0
C479 C 0.79027 0.65182 0.50829 0.0
C480 C 0.80388 0.64171 0.39714 0.0
C481 C 0.85905 0.65096 0.4569 0.0
C482 C 0.82017 0.65967 0.34387 0.0
C483 C 0.81383 0.64958 0.27751 0.0
C484 C 0.79107 0.62142 0.26374 0.0
C485 C 0.77451 0.60383 0.3175 0.0
C486 C 0.78087 0.6139 0.38348 0.0
H487 H 0.87584 0.65033 0.48882 0.0
H488 H 0.84916 0.63152 0.424 0.0
H489 H 0.86979 0.67026 0.42387 0.0
H490 H 0.83789 0.68128 0.35367 0.0
H491 H 0.82691 0.66375 0.23719 0.0
H492 H 0.16247 0.81758 0.54551 0.0
H493 H 0.16124 0.82873 0.66471 0.0
H494 H 0.17464 0.7583 0.72094 0.0
H495 H 0.17551 0.74666 0.60251 0.0
H496 H 0.13322 0.7632 0.80096 0.0
H497 H 0.23684 0.86747 0.77602 0.0
H498 H 0.20766 0.86197 0.72118 0.0
H499 H 0.22409 0.83992 0.71163 0.0
C500 C 0.16476 0.80419 0.58319 0.0
C501 C 0.16941 0.78139 0.56431 0.0
C502 C 0.16418 0.81071 0.65125 0.0
C503 C 0.1683 0.79461 0.70138 0.0
C504 C 0.1715 0.77103 0.68286 0.0
H505 H 0.24001 0.81466 0.0828 0.0
H506 H 0.22773 0.81461 0.96456 0.0
C507 C 0.17208 0.76447 0.61504 0.0
C508 C 0.17112 0.80306 0.77315 0.0
H509 H 0.21814 0.85316 0.88494 0.0
C510 C 0.15145 0.7831 0.81948 0.0
C511 C 0.19509 0.829 0.79675 0.0
C512 C 0.2173 0.85083 0.7491 0.0
C513 C 0.15585 0.78772 0.88916 0.0
C514 C 0.18039 0.81318 0.91276 0.0
C515 C 0.19928 0.83379 0.86641 0.0
C516 C 0.18899 0.81676 0.98451 0.0
C517 C 0.13527 0.76453 0.93686 0.0
C518 C 0.17171 0.8189 0.03485 0.0
C519 C 0.17864 0.81887 0.10288 0.0
C520 C 0.20297 0.8167 0.12142 0.0
C521 C 0.22099 0.81611 0.07049 0.0
C522 C 0.21407 0.81617 0.00278 0.0
H523 H 0.11982 0.74436 0.91002 0.0
H524 H 0.14743 0.75926 0.97431 0.0
H525 H 0.12263 0.7725 0.96483 0.0
H526 H 0.15249 0.8198 0.02157 0.0
H527 H 0.16435 0.81946 0.14079 0.0
H528 H 0.33177 0.17379 0.40231 0.0
H529 H 0.31508 0.16329 0.28532 0.0
H530 H 0.39867 0.23038 0.21726 0.0
H531 H 0.41547 0.24137 0.33341 0.0
H532 H 0.35021 0.2294 0.15203 0.0
H533 H 0.34369 0.1218 0.1565 0.0
H534 H 0.32369 0.12918 0.21869 0.0
H535 H 0.36249 0.14848 0.22128 0.0
C536 C 0.34658 0.18643 0.36247 0.0
C537 C 0.37508 0.20828 0.37721 0.0
C538 C 0.33697 0.18036 0.29577 0.0
C539 C 0.35574 0.19593 0.243 0.0
C540 C 0.38386 0.2182 0.25757 0.0
H541 H 0.41041 0.18737 0.87087 0.0
H542 H 0.394 0.18369 0.98654 0.0
C543 C 0.39347 0.22434 0.324 0.0
C544 C 0.34723 0.1884 0.17194 0.0
H545 H 0.34196 0.14056 0.05127 0.0
C546 C 0.34758 0.20966 0.12983 0.0
C547 C 0.34374 0.16253 0.14378 0.0
C548 C 0.34346 0.13914 0.18704 0.0
C549 C 0.34705 0.20682 0.05955 0.0
C550 C 0.34582 0.18193 0.03132 0.0
C551 C 0.34287 0.15956 0.07353 0.0
C552 C 0.35353 0.18139 0.96027 0.0
C553 C 0.35037 0.23151 0.01611 0.0
C554 C 0.33592 0.18089 0.90724 0.0
C555 C 0.34534 0.18316 0.84058 0.0
C556 C 0.37248 0.18595 0.82635 0.0
C557 C 0.38951 0.18548 0.87986 0.0
C558 C 0.3801 0.1832 0.94607 0.0
H559 H 0.35331 0.25028 0.0465 0.0
H560 H 0.36925 0.2388 0.98203 0.0
H561 H 0.33081 0.22409 0.98425 0.0
H562 H 0.31522 0.17926 0.91747 0.0
H563 H 0.33164 0.18332 0.80047 0.0
H564 H 0.26598 0.52126 0.14424 0.0
H565 H 0.26948 0.56663 0.18242 0.0
H566 H 0.1782 0.53095 0.14622 0.0
H567 H 0.17453 0.4858 0.10778 0.0
H568 H 0.25251 0.59858 0.08983 0.0
H569 H 0.19341 0.57211 0.3331 0.0
H570 H 0.20907 0.55149 0.29969 0.0
H571 H 0.17528 0.54607 0.26718 0.0
C572 C 0.2465 0.52279 0.14657 0.0
C573 C 0.21998 0.50007 0.12293 0.0
C574 C 0.24859 0.54874 0.16789 0.0
C575 C 0.22409 0.552 0.16714 0.0
C576 C 0.19727 0.52869 0.14778 0.0
H577 H 0.1722 0.67785 0.21676 0.0
H578 H 0.17712 0.63606 0.18767 0.0
C579 C 0.19523 0.50295 0.12574 0.0
C580 C 0.22675 0.58051 0.1791 0.0
H581 H 0.20083 0.61481 0.27735 0.0
C582 C 0.24162 0.60241 0.13133 0.0
C583 C 0.21233 0.58516 0.233 0.0
C584 C 0.1968 0.56258 0.28659 0.0
C585 C 0.24131 0.62852 0.13436 0.0
C586 C 0.22616 0.63286 0.1873 0.0
C587 C 0.21217 0.61129 0.23636 0.0
C588 C 0.22389 0.6593 0.19274 0.0
C589 C 0.25609 0.65064 0.07942 0.0
C590 C 0.24864 0.68646 0.20238 0.0
C591 C 0.24589 0.71052 0.21794 0.0
C592 C 0.21833 0.70757 0.2253 0.0
C593 C 0.1937 0.68073 0.21152 0.0
C594 C 0.19647 0.65683 0.19525 0.0
H595 H 0.26027 0.64106 0.03407 0.0
H596 H 0.24288 0.66049 0.06434 0.0
H597 H 0.27721 0.66812 0.0984 0.0
H598 H 0.26997 0.68874 0.20181 0.0
H599 H 0.26525 0.73083 0.22926 0.0
H600 H 0.67929 0.17516 0.42065 0.0
H601 H 0.63715 0.18062 0.44025 0.0
H602 H 0.69291 0.27047 0.49002 0.0
H603 H 0.73552 0.26534 0.47003 0.0
H604 H 0.63729 0.23385 0.57383 0.0
H605 H 0.62304 0.23249 0.29592 0.0
H606 H 0.62869 0.20438 0.32938 0.0
H607 H 0.65712 0.24139 0.335 0.0
C608 C 0.68268 0.19595 0.43734 0.0
C609 C 0.71077 0.21991 0.44301 0.0
C610 C 0.65856 0.19903 0.44816 0.0
C611 C 0.66206 0.22606 0.46498 0.0
C612 C 0.68992 0.24949 0.47641 0.0
H613 H 0.52107 0.2665 0.45999 0.0
H614 H 0.56802 0.27009 0.43697 0.0
C615 C 0.71419 0.24645 0.46554 0.0
C616 C 0.63655 0.22994 0.46584 0.0
H617 H 0.58381 0.22736 0.36335 0.0
C618 C 0.62579 0.23286 0.52788 0.0
C619 C 0.62187 0.22893 0.40555 0.0
C620 C 0.63331 0.22686 0.33749 0.0
C621 C 0.59978 0.23334 0.53142 0.0
C622 C 0.58426 0.23068 0.47143 0.0
C623 C 0.59575 0.22921 0.40912 0.0
C624 C 0.55504 0.22719 0.47373 0.0
C625 C 0.58858 0.2359 0.59938 0.0
C626 C 0.53203 0.20134 0.49835 0.0
C627 C 0.50534 0.19916 0.51101 0.0
C628 C 0.5012 0.22282 0.49929 0.0
C629 C 0.52357 0.24787 0.46911 0.0
C630 C 0.55043 0.25005 0.45649 0.0
H631 H 0.60568 0.24368 0.63874 0.0
H632 H 0.57985 0.2509 0.59684 0.0
H633 H 0.57069 0.21436 0.61485 0.0
H634 H 0.53518 0.18336 0.51101 0.0
H635 H 0.48845 0.17949 0.53376 0.0
H636 H 0.25863 0.52127 0.86392 0.0
H637 H 0.29976 0.56688 0.82445 0.0
H638 H 0.35689 0.53289 0.85935 0.0
H639 H 0.31615 0.48752 0.89929 0.0
H640 H 0.35088 0.60003 0.9162 0.0
H641 H 0.37841 0.57226 0.66757 0.0
H642 H 0.34264 0.55236 0.70392 0.0
H643 H 0.37106 0.54645 0.73366 0.0
C644 C 0.27982 0.52324 0.8612 0.0
C645 C 0.28426 0.50091 0.88471 0.0
C646 C 0.30325 0.54933 0.83919 0.0
C647 C 0.33121 0.55309 0.83912 0.0
C648 C 0.33538 0.53022 0.85864 0.0
H649 H 0.50679 0.6779 0.76677 0.0
H650 H 0.46103 0.63683 0.80371 0.0
C651 C 0.31212 0.50436 0.88144 0.0
C652 C 0.3566 0.5816 0.82496 0.0
H653 H 0.41433 0.61558 0.71951 0.0
C654 C 0.36464 0.60373 0.87276 0.0
C655 C 0.37437 0.58606 0.7685 0.0
C656 C 0.36617 0.56314 0.71505 0.0
C657 C 0.39089 0.62989 0.86711 0.0
C658 C 0.40912 0.63401 0.81156 0.0
C659 C 0.40044 0.61222 0.76251 0.0
C660 C 0.43771 0.66034 0.80331 0.0
C661 C 0.39944 0.65231 0.92193 0.0
C662 C 0.44008 0.68751 0.79415 0.0
C663 C 0.46642 0.7112 0.77423 0.0
C664 C 0.49048 0.70777 0.76202 0.0
C665 C 0.48853 0.68107 0.77581 0.0
C666 C 0.4624 0.65759 0.79654 0.0
H667 H 0.38664 0.64301 0.96865 0.0
H668 H 0.42278 0.66215 0.93433 0.0
H669 H 0.39551 0.66976 0.90418 0.0
H670 H 0.42119 0.68999 0.79806 0.0
H671 H 0.46726 0.73146 0.76294 0.0
H672 H 0.73567 0.26296 0.19946 0.0
H673 H 0.73133 0.30535 0.17092 0.0
H674 H 0.82139 0.36127 0.21931 0.0
H675 H 0.826 0.31931 0.24764 0.0
H676 H 0.77779 0.36971 0.29512 0.0
H677 H 0.7672 0.36859 0.01532 0.0
H678 H 0.74637 0.33518 0.06067 0.0
H679 H 0.78498 0.35167 0.05733 0.0
C680 C 0.75478 0.28422 0.2017 0.0
C681 C 0.78113 0.28783 0.22628 0.0
C682 C 0.7522 0.30838 0.18581 0.0
C683 C 0.77599 0.33632 0.19375 0.0
C684 C 0.80277 0.33983 0.21338 0.0
H685 H 0.81779 0.50693 0.09718 0.0
H686 H 0.81587 0.46155 0.12514 0.0
C687 C 0.80537 0.31582 0.22927 0.0
C688 C 0.77267 0.36206 0.18804 0.0
H689 H 0.76654 0.40654 0.07434 0.0
C690 C 0.77502 0.37768 0.247 0.0
C691 C 0.7691 0.37221 0.12517 0.0
C692 C 0.76686 0.35624 0.0607 0.0
C693 C 0.77464 0.40374 0.24445 0.0
C694 C 0.77176 0.41424 0.1814 0.0
C695 C 0.76867 0.39825 0.12263 0.0
C696 C 0.77422 0.4429 0.17425 0.0
C697 C 0.77843 0.42048 0.30854 0.0
C698 C 0.75189 0.44777 0.19521 0.0
C699 C 0.75297 0.47388 0.17956 0.0
C700 C 0.77629 0.49519 0.14228 0.0
C701 C 0.79944 0.49083 0.12553 0.0
C702 C 0.79835 0.4649 0.1412 0.0
H703 H 0.78341 0.41082 0.35249 0.0
H704 H 0.79612 0.4432 0.30248 0.0
H705 H 0.75824 0.42091 0.31937 0.0
H706 H 0.73304 0.4309 0.22061 0.0
H707 H 0.73472 0.47654 0.19254 0.0
H708 H 0.31002 0.81214 0.45533 0.0
H709 H 0.35115 0.80563 0.48133 0.0
H710 H 0.29492 0.71315 0.48257 0.0
H711 H 0.25349 0.7194 0.45638 0.0
H712 H 0.36152 0.77321 0.58781 0.0
H713 H 0.35575 0.73125 0.32743 0.0
H714 H 0.33757 0.75083 0.35067 0.0
H715 H 0.32345 0.71421 0.37798 0.0
C716 C 0.30624 0.79043 0.46273 0.0
C717 C 0.27855 0.76628 0.45326 0.0
C718 C 0.32977 0.78676 0.47744 0.0
C719 C 0.32605 0.75892 0.48242 0.0
C720 C 0.29817 0.73479 0.47792 0.0
H721 H 0.4658 0.71835 0.51285 0.0
H722 H 0.41844 0.71361 0.48993 0.0
C723 C 0.27451 0.73843 0.4637 0.0
C724 C 0.35181 0.75553 0.48752 0.0
H725 H 0.39523 0.73861 0.39461 0.0
C726 C 0.36876 0.76536 0.54594 0.0
C727 C 0.36106 0.74522 0.43265 0.0
C728 C 0.3437 0.73488 0.36832 0.0
C729 C 0.39513 0.7657 0.55055 0.0
C730 C 0.40506 0.75666 0.49454 0.0
C731 C 0.3876 0.74576 0.43705 0.0
C732 C 0.43409 0.75955 0.49464 0.0
C733 C 0.41228 0.77598 0.6152 0.0
C734 C 0.45869 0.78704 0.50035 0.0
C735 C 0.48564 0.78982 0.51335 0.0
C736 C 0.48846 0.76515 0.52022 0.0
C737 C 0.46431 0.73776 0.5075 0.0
C738 C 0.43721 0.73498 0.49494 0.0
H739 H 0.39842 0.77463 0.65842 0.0
H740 H 0.42281 0.76308 0.6272 0.0
H741 H 0.42945 0.79891 0.60943 0.0
H742 H 0.45674 0.80628 0.49868 0.0
H743 H 0.50392 0.81121 0.52235 0.0
H744 H 0.66937 0.48661 0.01854 0.0
H745 H 0.62805 0.44432 0.97155 0.0
H746 H 0.67701 0.45132 0.79256 0.0
H747 H 0.71947 0.49365 0.84074 0.0
H748 H 0.59717 0.43799 0.86345 0.0
H749 H 0.64595 0.36764 0.84312 0.0
H750 H 0.66329 0.40159 0.88798 0.0
H751 H 0.66527 0.40101 0.79752 0.0
C752 C 0.6716 0.47938 0.96904 0.0
C753 C 0.69794 0.49358 0.93352 0.0
C754 C 0.64781 0.45505 0.94229 0.0
C755 C 0.64953 0.44433 0.8791 0.0
C756 C 0.67544 0.45881 0.84226 0.0
H757 H 0.50132 0.32798 0.6456 0.0
H758 H 0.54265 0.36877 0.69745 0.0
C759 C 0.69958 0.48316 0.8695 0.0
C760 C 0.62372 0.41831 0.85234 0.0
H761 H 0.5989 0.34934 0.79667 0.0
C762 C 0.59757 0.41859 0.84902 0.0
C763 C 0.6241 0.3928 0.83497 0.0
C764 C 0.65107 0.39053 0.84164 0.0
C765 C 0.57188 0.39421 0.82819 0.0
C766 C 0.57252 0.36915 0.80786 0.0
C767 C 0.59853 0.36865 0.81204 0.0
C768 C 0.54681 0.34394 0.77835 0.0
C769 C 0.54423 0.39547 0.82922 0.0
C770 C 0.53569 0.31614 0.80582 0.0
C771 C 0.51201 0.29236 0.77557 0.0
C772 C 0.49923 0.2961 0.71724 0.0
C773 C 0.51037 0.32414 0.69067 0.0
C774 C 0.534 0.34766 0.72049 0.0
H775 H 0.54542 0.41156 0.86652 0.0
H776 H 0.5407 0.40219 0.77883 0.0
H777 H 0.52528 0.37409 0.84153 0.0
H778 H 0.54544 0.31283 0.85036 0.0
H779 H 0.5041 0.27108 0.7971 0.0
loop_
_geom_bond_atom_site_label_1
_geom_bond_atom_site_label_2
_geom_bond_distance
_geom_bond_site_symmetry_2
_ccdc_geom_bond_type
Sc0 O3 2.025 . S
Sc0 O10 2.105 1_554 S
Sc0 O13 2.105 . S
Sc0 O16 2.105 . S
Sc0 O19 2.105 1_554 S
Sc1 O3 2.025 . S
Sc1 O11 2.105 . S
Sc1 O15 2.105 . S
Sc1 O17 2.105 . S
Sc1 O21 2.105 1_554 S
Sc2 O3 2.025 1_556 S
Sc2 O12 2.105 . S
Sc2 O14 2.105 . S
Sc2 O18 2.105 1_556 S
Sc2 O20 2.105 . S
O3 Sc0 2.025 . S
O3 Sc1 2.025 . S
O3 Sc2 2.025 1_554 S
C4 O10 1.268 . S
C4 O20 1.268 . S
C5 O11 1.262 1_556 S
C5 O19 1.270 . S
C6 O12 1.268 . S
C6 O21 1.268 . S
C7 O13 1.268 . S
C7 O17 1.268 . S
C8 O14 1.268 1_554 S
C8 O16 1.268 . S
C9 O15 1.268 . S
C9 O18 1.268 . S
O10 Sc0 2.105 1_556 S
O10 C4 1.268 . S
O11 Sc1 2.105 . S
O11 C5 1.262 1_554 S
O12 Sc2 2.105 . S
O12 C6 1.268 . S
O13 Sc0 2.105 . S
O13 C7 1.268 . S
O14 Sc2 2.105 . S
O14 C8 1.268 1_556 S
O15 Sc1 2.105 . S
O15 C9 1.268 . S
O16 Sc0 2.105 . S
O16 C8 1.268 . S
O17 Sc1 2.105 . S
O17 C7 1.268 . S
O18 Sc2 2.105 1_554 S
O18 C9 1.268 . S
O19 Sc0 2.105 1_556 S
O19 C5 1.270 . S
O20 Sc2 2.105 . S
O20 C4 1.268 . S
O21 Sc1 2.105 1_556 S
O21 C6 1.268 . S
Sc22 O25 2.025 . S
Sc22 O32 2.105 . S
Sc22 O35 2.105 . S
Sc22 O38 2.105 . S
Sc22 O41 2.105 . S
Sc23 O25 2.025 . S
Sc23 O33 2.105 . S
Sc23 O37 2.105 . S
Sc23 O39 2.105 . S
Sc23 O43 2.105 . S
Sc24 O25 2.025 . S
Sc24 O34 2.105 . S
Sc24 O36 2.105 . S
Sc24 O40 2.105 . S
Sc24 O42 2.105 . S
O25 Sc22 2.025 . S
O25 Sc23 2.025 . S
O25 Sc24 2.025 . S
C26 O32 1.268 . S
C26 O42 1.268 . S
C27 O33 1.268 . S
C27 O41 1.268 . S
C28 O34 1.268 . S
C28 O43 1.268 . S
C29 O35 1.268 . S
C29 O39 1.268 . S
C30 O36 1.268 . S
C30 O38 1.268 . S
C31 O37 1.268 . S
C31 O40 1.268 . S
O32 Sc22 2.105 . S
O32 C26 1.268 . S
O33 Sc23 2.105 . S
O33 C27 1.268 . S
O34 Sc24 2.105 . S
O34 C28 1.268 . S
O35 Sc22 2.105 . S
O35 C29 1.268 . S
O36 Sc24 2.105 . S
O36 C30 1.268 . S
O37 Sc23 2.105 . S
O37 C31 1.268 . S
O38 Sc22 2.105 . S
O38 C30 1.268 . S
O39 Sc23 2.105 . S
O39 C29 1.268 . S
O40 Sc24 2.105 . S
O40 C31 1.268 . S
O41 Sc22 2.105 . S
O41 C27 1.268 . S
O42 Sc24 2.105 . S
O42 C26 1.268 . S
O43 Sc23 2.105 . S
O43 C28 1.268 . S
Sc44 O47 2.025 . S
Sc44 O54 2.105 . S
Sc44 O57 2.105 . S
Sc44 O60 2.105 . S
Sc44 O63 2.105 . S
Sc45 O47 2.025 . S
Sc45 O55 2.105 . S
Sc45 O59 2.105 . S
Sc45 O61 2.105 . S
Sc45 O65 2.105 . S
Sc46 O47 2.025 . S
Sc46 O56 2.105 . S
Sc46 O58 2.105 . S
Sc46 O62 2.105 . S
Sc46 O64 2.105 . S
O47 Sc44 2.025 . S
O47 Sc45 2.025 . S
O47 Sc46 2.025 . S
C48 O54 1.268 . S
C48 O64 1.268 . S
C49 O55 1.268 . S
C49 O63 1.268 . S
C50 O56 1.268 . S
C50 O65 1.268 . S
C51 O57 1.268 . S
C51 O61 1.268 . S
C52 O58 1.268 . S
C52 O60 1.268 . S
C53 O59 1.268 . S
C53 O62 1.268 . S
O54 Sc44 2.105 . S
O54 C48 1.268 . S
O55 Sc45 2.105 . S
O55 C49 1.268 . S
O56 Sc46 2.105 . S
O56 C50 1.268 . S
O57 Sc44 2.105 . S
O57 C51 1.268 . S
O58 Sc46 2.105 . S
O58 C52 1.268 . S
O59 Sc45 2.105 . S
O59 C53 1.268 . S
O60 Sc44 2.105 . S
O60 C52 1.268 . S
O61 Sc45 2.105 . S
O61 C51 1.268 . S
O62 Sc46 2.105 . S
O62 C53 1.268 . S
O63 Sc44 2.105 . S
O63 C49 1.268 . S
O64 Sc46 2.105 . S
O64 C48 1.268 . S
O65 Sc45 2.105 . S
O65 C50 1.268 . S
Sc66 O69 2.025 1_556 S
Sc66 O76 2.105 . S
Sc66 O79 2.105 . S
Sc66 O82 2.105 . S
Sc66 O85 2.105 1_556 S
Sc67 O69 2.025 . S
Sc67 O77 2.105 . S
Sc67 O81 2.105 . S
Sc67 O83 2.105 1_554 S
Sc67 O87 2.105 . S
Sc68 O69 2.025 . S
Sc68 O78 2.105 . S
Sc68 O80 2.105 1_554 S
Sc68 O84 2.105 1_554 S
Sc68 O86 2.105 . S
O69 Sc66 2.025 1_554 S
O69 Sc67 2.025 . S
O69 Sc68 2.025 . S
C70 O76 1.268 1_554 S
C70 O86 1.268 . S
C71 O77 1.268 . S
C71 O85 1.268 . S
C72 O78 1.268 . S
C72 O87 1.268 . S
C73 O79 1.268 . S
C73 O83 1.268 . S
C74 O80 1.268 . S
C74 O82 1.268 . S
C75 O81 1.262 1_556 S
C75 O84 1.270 . S
O76 Sc66 2.105 . S
O76 C70 1.268 1_556 S
O77 Sc67 2.105 . S
O77 C71 1.268 . S
O78 Sc68 2.105 . S
O78 C72 1.268 . S
O79 Sc66 2.105 . S
O79 C73 1.268 . S
O80 Sc68 2.105 1_556 S
O80 C74 1.268 . S
O81 Sc67 2.105 . S
O81 C75 1.262 1_554 S
O82 Sc66 2.105 . S
O82 C74 1.268 . S
O83 Sc67 2.105 1_556 S
O83 C73 1.268 . S
O84 Sc68 2.105 1_556 S
O84 C75 1.270 . S
O85 Sc66 2.105 1_554 S
O85 C71 1.268 . S
O86 Sc68 2.105 . S
O86 C70 1.268 . S
O87 Sc67 2.105 . S
O87 C72 1.268 . S
Sc88 O91 2.025 . S
Sc88 O98 2.105 . S
Sc88 O101 2.105 . S
Sc88 O104 2.105 . S
Sc88 O107 2.105 . S
Sc89 O91 2.025 . S
Sc89 O99 2.105 . S
Sc89 O103 2.105 . S
Sc89 O105 2.105 . S
Sc89 O109 2.105 . S
Sc90 O91 2.025 . S
Sc90 O100 2.105 . S
Sc90 O102 2.105 . S
Sc90 O106 2.105 . S
Sc90 O108 2.105 . S
O91 Sc88 2.025 . S
O91 Sc89 2.025 . S
O91 Sc90 2.025 . S
C92 O98 1.268 . S
C92 O108 1.268 . S
C93 O99 1.268 . S
C93 O107 1.268 . S
C94 O100 1.268 . S
C94 O109 1.268 . S
C95 O101 1.268 . S
C95 O105 1.268 . S
C96 O102 1.268 . S
C96 O104 1.268 . S
C97 O103 1.268 . S
C97 O106 1.268 . S
O98 Sc88 2.105 . S
O98 C92 1.268 . S
O99 Sc89 2.105 . S
O99 C93 1.268 . S
O100 Sc90 2.105 . S
O100 C94 1.268 . S
O101 Sc88 2.105 . S
O101 C95 1.268 . S
O102 Sc90 2.105 . S
O102 C96 1.268 . S
O103 Sc89 2.105 . S
O103 C97 1.268 . S
O104 Sc88 2.105 . S
O104 C96 1.268 . S
O105 Sc89 2.105 . S
O105 C95 1.268 . S
O106 Sc90 2.105 . S
O106 C97 1.268 . S
O107 Sc88 2.105 . S
O107 C93 1.268 . S
O108 Sc90 2.105 . S
O108 C92 1.268 . S
O109 Sc89 2.105 . S
O109 C94 1.268 . S
Sc110 O113 2.025 . S
Sc110 O120 2.105 . S
Sc110 O123 2.105 . S
Sc110 O126 2.105 . S
Sc110 O129 2.105 . S
Sc111 O113 2.025 . S
Sc111 O121 2.105 . S
Sc111 O125 2.105 . S
Sc111 O127 2.105 . S
Sc111 O131 2.105 . S
Sc112 O113 2.025 . S
Sc112 O122 2.105 . S
Sc112 O124 2.105 . S
Sc112 O128 2.105 . S
Sc112 O130 2.105 . S
O113 Sc110 2.025 . S
O113 Sc111 2.025 . S
O113 Sc112 2.025 . S
C114 O120 1.268 . S
C114 O130 1.268 . S
C115 O121 1.268 . S
C115 O129 1.268 . S
C116 O122 1.268 . S
C116 O131 1.268 . S
C117 O123 1.268 . S
C117 O127 1.268 . S
C118 O124 1.268 . S
C118 O126 1.268 . S
C119 O125 1.268 . S
C119 O128 1.268 . S
O120 Sc110 2.105 . S
O120 C114 1.268 . S
O121 Sc111 2.105 . S
O121 C115 1.268 . S
O122 Sc112 2.105 . S
O122 C116 1.268 . S
O123 Sc110 2.105 . S
O123 C117 1.268 . S
O124 Sc112 2.105 . S
O124 C118 1.268 . S
O125 Sc111 2.105 . S
O125 C119 1.268 . S
O126 Sc110 2.105 . S
O126 C118 1.268 . S
O127 Sc111 2.105 . S
O127 C117 1.268 . S
O128 Sc112 2.105 . S
O128 C119 1.268 . S
O129 Sc110 2.105 . S
O129 C115 1.268 . S
O130 Sc112 2.105 . S
O130 C114 1.268 . S
O131 Sc111 2.105 . S
O131 C116 1.268 . S
H132 C140 0.929 . S
H133 C142 0.930 . S
H134 C144 0.930 . S
H135 C147 0.929 . S
H136 C150 0.930 . S
H137 C152 0.960 . S
H138 C152 0.960 . S
H139 C152 0.960 . S
C140 H132 0.929 . S
C140 C141 1.377 . S
C140 C142 1.384 . S
C141 C140 1.377 . S
C141 C147 1.390 . S
C142 H133 0.930 . S
C142 C140 1.384 . S
C142 C143 1.372 . S
C143 C142 1.372 . S
C143 C144 1.400 . S
C143 C148 1.490 . S
C144 H134 0.930 . S
C144 C143 1.400 . S
C144 C147 1.386 . S
H145 C161 0.930 . S
H146 C162 0.931 . S
C147 H135 0.929 . S
C147 C141 1.390 . S
C147 C144 1.386 . S
C148 C143 1.490 . S
C148 C150 1.395 . S
C148 C151 1.403 . S
H149 C155 0.930 . S
C150 H136 0.930 . S
C150 C148 1.395 . S
C150 C153 1.403 . S
C151 C148 1.403 . S
C151 C152 1.524 . S
C151 C155 1.400 . S
C152 H137 0.960 . S
C152 H138 0.960 . S
C152 H139 0.960 . S
C152 C151 1.524 . S
C153 C150 1.403 . S
C153 C154 1.392 . S
C153 C157 1.495 . S
C154 C153 1.392 . S
C154 C155 1.385 . S
C154 C156 1.478 . S
C155 H149 0.930 . S
C155 C151 1.400 . S
C155 C154 1.385 . S
C156 C154 1.478 . S
C156 C158 1.381 . S
C156 C162 1.383 . S
C157 C153 1.495 . S
C157 H163 0.959 1_556 S
C157 H164 0.961 1_556 S
C157 H165 0.960 1_556 S
C158 C156 1.381 . S
C158 C159 1.394 . S
C158 H166 0.930 . S
C159 C158 1.394 . S
C159 C160 1.383 . S
C159 H167 0.929 1_556 S
C160 C159 1.383 . S
C160 C161 1.377 . S
C161 H145 0.930 . S
C161 C160 1.377 . S
C161 C162 1.379 . S
C162 H146 0.931 . S
C162 C156 1.383 . S
C162 C161 1.379 . S
H163 C157 0.959 1_554 S
H164 C157 0.961 1_554 S
H165 C157 0.960 1_554 S
H166 C158 0.930 . S
H167 C159 0.929 1_554 S
H168 C176 0.929 1_556 S
H169 C178 0.930 . S
H170 C180 0.930 . S
H171 C183 0.929 . S
H172 C186 0.930 . S
H173 C188 0.960 . S
H174 C188 0.960 . S
H175 C188 0.960 . S
C176 H168 0.929 1_554 S
C176 C177 1.377 . S
C176 C178 1.384 . S
C177 C176 1.377 . S
C177 C183 1.390 . S
C178 H169 0.930 . S
C178 C176 1.384 . S
C178 C179 1.372 . S
C179 C178 1.372 . S
C179 C180 1.400 . S
C179 C184 1.490 . S
C180 H170 0.930 . S
C180 C179 1.400 . S
C180 C183 1.386 . S
H181 C197 0.930 . S
H182 C198 0.931 . S
C183 H171 0.929 . S
C183 C177 1.390 . S
C183 C180 1.386 . S
C184 C179 1.490 . S
C184 C186 1.395 . S
C184 C187 1.403 . S
H185 C191 0.930 . S
C186 H172 0.930 . S
C186 C184 1.395 . S
C186 C189 1.403 1_455 S
C187 C184 1.403 . S
C187 C188 1.524 . S
C187 C191 1.400 1_455 S
C188 H173 0.960 . S
C188 H174 0.960 . S
C188 H175 0.960 . S
C188 C187 1.524 . S
C189 C186 1.403 1_655 S
C189 C190 1.392 . S
C189 C193 1.495 . S
C190 C189 1.392 . S
C190 C191 1.385 . S
C190 C192 1.478 . S
C191 H185 0.930 . S
C191 C187 1.400 1_655 S
C191 C190 1.385 . S
C192 C190 1.478 . S
C192 C194 1.381 . S
C192 C198 1.383 . S
C193 C189 1.495 . S
C193 H199 0.959 . S
C193 H200 0.961 . S
C193 H201 0.960 . S
C194 C192 1.381 . S
C194 C195 1.394 . S
C194 H202 0.930 . S
C195 C194 1.394 . S
C195 C196 1.383 . S
C195 H203 0.929 . S
C196 C195 1.383 . S
C196 C197 1.377 . S
C197 H181 0.930 . S
C197 C196 1.377 . S
C197 C198 1.379 . S
C198 H182 0.931 . S
C198 C192 1.383 . S
C198 C197 1.379 . S
H199 C193 0.959 . S
H200 C193 0.961 . S
H201 C193 0.960 . S
H202 C194 0.930 . S
H203 C195 0.929 . S
H204 C212 0.929 . S
H205 C214 0.930 . S
H206 C216 0.930 . S
H207 C219 0.929 . S
H208 C222 0.930 . S
H209 C224 0.960 . S
H210 C224 0.960 . S
H211 C224 0.960 . S
C212 H204 0.929 . S
C212 C213 1.377 . S
C212 C214 1.384 . S
C213 C212 1.377 . S
C213 C219 1.390 . S
C214 H205 0.930 . S
C214 C212 1.384 . S
C214 C215 1.372 . S
C215 C214 1.372 . S
C215 C216 1.400 . S
C215 C220 1.490 . S
C216 H206 0.930 . S
C216 C215 1.400 . S
C216 C219 1.386 . S
H217 C233 0.930 . S
H218 C234 0.931 . S
C219 H207 0.929 . S
C219 C213 1.390 . S
C219 C216 1.386 . S
C220 C215 1.490 . S
C220 C222 1.395 . S
C220 C223 1.403 . S
H221 C227 0.930 . S
C222 H208 0.930 . S
C222 C220 1.395 . S
C222 C225 1.403 1_545 S
C223 C220 1.403 . S
C223 C224 1.524 . S
C223 C227 1.400 1_545 S
C224 H209 0.960 . S
C224 H210 0.960 . S
C224 H211 0.960 . S
C224 C223 1.524 . S
C225 C222 1.403 1_565 S
C225 C226 1.392 . S
C225 C229 1.495 . S
C226 C225 1.392 . S
C226 C227 1.385 . S
C226 C228 1.478 . S
C227 H221 0.930 . S
C227 C223 1.400 1_565 S
C227 C226 1.385 . S
C228 C226 1.478 . S
C228 C230 1.381 . S
C228 C234 1.383 . S
C229 C225 1.495 . S
C229 H235 0.959 . S
C229 H236 0.961 . S
C229 H237 0.960 . S
C230 C228 1.381 . S
C230 C231 1.394 . S
C230 H238 0.930 . S
C231 C230 1.394 . S
C231 C232 1.383 . S
C231 H239 0.929 . S
C232 C231 1.383 . S
C232 C233 1.377 . S
C233 H217 0.930 . S
C233 C232 1.377 . S
C233 C234 1.379 . S
C234 H218 0.931 . S
C234 C228 1.383 . S
C234 C233 1.379 . S
H235 C229 0.959 . S
H236 C229 0.961 . S
H237 C229 0.960 . S
H238 C230 0.930 . S
H239 C231 0.929 . S
H240 C248 0.929 . S
H241 C250 0.930 . S
H242 C252 0.930 . S
H243 C255 0.929 . S
H244 C258 0.930 . S
H245 C260 0.960 . S
H246 C260 0.960 . S
H247 C260 0.960 . S
C248 H240 0.929 . S
C248 C249 1.377 . S
C248 C250 1.384 . S
C249 C248 1.377 . S
C249 C255 1.390 . S
C250 H241 0.930 . S
C250 C248 1.384 . S
C250 C251 1.372 . S
C251 C250 1.372 . S
C251 C252 1.400 . S
C251 C256 1.490 . S
C252 H242 0.930 . S
C252 C251 1.400 . S
C252 C255 1.386 . S
H253 C269 0.930 . S
H254 C270 0.931 . S
C255 H243 0.929 . S
C255 C249 1.390 . S
C255 C252 1.386 . S
C256 C251 1.490 . S
C256 C258 1.395 . S
C256 C259 1.403 . S
H257 C263 0.930 . S
C258 H244 0.930 . S
C258 C256 1.395 . S
C258 C261 1.403 . S
C259 C256 1.403 . S
C259 C260 1.524 . S
C259 C263 1.400 . S
C260 H245 0.960 . S
C260 H246 0.960 . S
C260 H247 0.960 . S
C260 C259 1.524 . S
C261 C258 1.403 . S
C261 C262 1.392 . S
C261 C265 1.495 . S
C262 C261 1.392 . S
C262 C263 1.385 . S
C262 C264 1.478 . S
C263 H257 0.930 . S
C263 C259 1.400 . S
C263 C262 1.385 . S
C264 C262 1.478 . S
C264 C266 1.381 . S
C264 C270 1.383 . S
C265 C261 1.495 . S
C265 H271 0.959 1_556 S
C265 H272 0.961 . S
C265 H273 0.960 1_556 S
C266 C264 1.381 . S
C266 C267 1.394 . S
C266 H274 0.930 . S
C267 C266 1.394 . S
C267 C268 1.383 . S
C267 H275 0.929 1_556 S
C268 C267 1.383 . S
C268 C269 1.377 . S
C269 H253 0.930 . S
C269 C268 1.377 . S
C269 C270 1.379 . S
C270 H254 0.931 . S
C270 C264 1.383 . S
C270 C269 1.379 . S
H271 C265 0.959 1_554 S
H272 C265 0.961 . S
H273 C265 0.960 1_554 S
H274 C266 0.930 . S
H275 C267 0.929 1_554 S
H276 C284 0.929 . S
H277 C286 0.930 . S
H278 C288 0.930 . S
H279 C291 0.929 . S
H280 C294 0.930 . S
H281 C296 0.960 . S
H282 C296 0.960 . S
H283 C296 0.960 . S
C284 H276 0.929 . S
C284 C285 1.377 . S
C284 C286 1.384 . S
C285 C284 1.377 . S
C285 C291 1.390 . S
C286 H277 0.930 . S
C286 C284 1.384 . S
C286 C287 1.372 . S
C287 C286 1.372 . S
C287 C288 1.400 . S
C287 C292 1.490 . S
C288 H278 0.930 . S
C288 C287 1.400 . S
C288 C291 1.386 . S
H289 C305 0.930 . S
H290 C306 0.931 . S
C291 H279 0.929 . S
C291 C285 1.390 . S
C291 C288 1.386 . S
C292 C287 1.490 . S
C292 C294 1.395 . S
C292 C295 1.403 . S
H293 C299 0.930 . S
C294 H280 0.930 . S
C294 C292 1.395 . S
C294 C297 1.403 1_455 S
C295 C292 1.403 . S
C295 C296 1.524 . S
C295 C299 1.400 1_455 S
C296 H281 0.960 . S
C296 H282 0.960 . S
C296 H283 0.960 . S
C296 C295 1.524 . S
C297 C294 1.403 1_655 S
C297 C298 1.392 . S
C297 C301 1.495 . S
C298 C297 1.392 . S
C298 C299 1.385 . S
C298 C300 1.478 . S
C299 H293 0.930 . S
C299 C295 1.400 1_655 S
C299 C298 1.385 . S
C300 C298 1.478 . S
C300 C302 1.381 . S
C300 C306 1.383 . S
C301 C297 1.495 . S
C301 H307 0.959 . S
C301 H308 0.961 . S
C301 H309 0.960 . S
C302 C300 1.381 . S
C302 C303 1.394 . S
C302 H310 0.930 . S
C303 C302 1.394 . S
C303 C304 1.383 . S
C303 H311 0.929 . S
C304 C303 1.383 . S
C304 C305 1.377 . S
C305 H289 0.930 . S
C305 C304 1.377 . S
C305 C306 1.379 . S
C306 H290 0.931 . S
C306 C300 1.383 . S
C306 C305 1.379 . S
H307 C301 0.959 . S
H308 C301 0.961 . S
H309 C301 0.960 . S
H310 C302 0.930 . S
H311 C303 0.929 . S
H312 C320 0.929 . S
H313 C322 0.930 . S
H314 C324 0.930 . S
H315 C327 0.929 . S
H316 C330 0.930 . S
H317 C332 0.960 1_565 S
H318 C332 0.960 . S
H319 C332 0.960 . S
C320 H312 0.929 . S
C320 C321 1.377 . S
C320 C322 1.384 . S
C321 C320 1.377 . S
C321 C327 1.390 . S
C322 H313 0.930 . S
C322 C320 1.384 . S
C322 C323 1.372 . S
C323 C322 1.372 . S
C323 C324 1.400 . S
C323 C328 1.490 . S
C324 H314 0.930 . S
C324 C323 1.400 . S
C324 C327 1.386 . S
H325 C341 0.930 . S
H326 C342 0.931 . S
C327 H315 0.929 . S
C327 C321 1.390 . S
C327 C324 1.386 . S
C328 C323 1.490 . S
C328 C330 1.395 . S
C328 C331 1.403 . S
H329 C335 0.930 . S
C330 H316 0.930 . S
C330 C328 1.395 . S
C330 C333 1.403 1_545 S
C331 C328 1.403 . S
C331 C332 1.524 . S
C331 C335 1.400 1_545 S
C332 H317 0.960 1_545 S
C332 H318 0.960 . S
C332 H319 0.960 . S
C332 C331 1.524 . S
C333 C330 1.403 1_565 S
C333 C334 1.392 . S
C333 C337 1.495 . S
C334 C333 1.392 . S
C334 C335 1.385 . S
C334 C336 1.478 . S
C335 H329 0.930 . S
C335 C331 1.400 1_565 S
C335 C334 1.385 . S
C336 C334 1.478 . S
C336 C338 1.381 . S
C336 C342 1.383 . S
C337 C333 1.495 . S
C337 H343 0.959 1_565 S
C337 H344 0.961 . S
C337 H345 0.960 . S
C338 C336 1.381 . S
C338 C339 1.394 . S
C338 H346 0.930 . S
C339 C338 1.394 . S
C339 C340 1.383 . S
C339 H347 0.929 . S
C340 C339 1.383 . S
C340 C341 1.377 . S
C341 H325 0.930 . S
C341 C340 1.377 . S
C341 C342 1.379 . S
C342 H326 0.931 . S
C342 C336 1.383 . S
C342 C341 1.379 . S
H343 C337 0.959 1_545 S
H344 C337 0.961 . S
H345 C337 0.960 . S
H346 C338 0.930 . S
H347 C339 0.929 . S
H348 C356 0.929 . S
H349 C358 0.930 . S
H350 C360 0.930 . S
H351 C363 0.929 . S
H352 C366 0.930 . S
H353 C368 0.960 . S
H354 C368 0.960 . S
H355 C368 0.960 . S
C356 H348 0.929 . S
C356 C357 1.377 . S
C356 C358 1.384 . S
C357 C356 1.377 . S
C357 C363 1.390 . S
C358 H349 0.930 . S
C358 C356 1.384 . S
C358 C359 1.372 . S
C359 C358 1.372 . S
C359 C360 1.400 . S
C359 C364 1.490 . S
C360 H350 0.930 . S
C360 C359 1.400 . S
C360 C363 1.386 . S
H361 C377 0.930 . S
H362 C378 0.931 . S
C363 H351 0.929 . S
C363 C357 1.390 . S
C363 C360 1.386 . S
C364 C359 1.490 . S
C364 C366 1.395 . S
C364 C367 1.403 . S
H365 C371 0.930 . S
C366 H352 0.930 . S
C366 C364 1.395 . S
C366 C369 1.403 . S
C367 C364 1.403 . S
C367 C368 1.524 . S
C367 C371 1.400 . S
C368 H353 0.960 . S
C368 H354 0.960 . S
C368 H355 0.960 . S
C368 C367 1.524 . S
C369 C366 1.403 . S
C369 C370 1.392 . S
C369 C373 1.495 . S
C370 C369 1.392 . S
C370 C371 1.385 . S
C370 C372 1.478 . S
C371 H365 0.930 . S
C371 C367 1.400 . S
C371 C370 1.385 . S
C372 C370 1.478 . S
C372 C374 1.381 . S
C372 C378 1.383 . S
C373 C369 1.495 . S
C373 H379 0.959 . S
C373 H380 0.961 . S
C373 H381 0.960 . S
C374 C372 1.381 . S
C374 C375 1.394 . S
C374 H382 0.930 . S
C375 C374 1.394 . S
C375 C376 1.383 . S
C375 H383 0.929 . S
C376 C375 1.383 . S
C376 C377 1.377 . S
C377 H361 0.930 . S
C377 C376 1.377 . S
C377 C378 1.379 . S
C378 H362 0.931 . S
C378 C372 1.383 . S
C378 C377 1.379 . S
H379 C373 0.959 . S
H380 C373 0.961 . S
H381 C373 0.960 . S
H382 C374 0.930 . S
H383 C375 0.929 . S
H384 C392 0.929 . S
H385 C394 0.930 . S
H386 C396 0.930 1_556 S
H387 C399 0.929 . S
H388 C402 0.930 . S
H389 C404 0.960 . S
H390 C404 0.960 . S
H391 C404 0.960 . S
C392 H384 0.929 . S
C392 C393 1.377 . S
C392 C394 1.384 . S
C393 C392 1.377 . S
C393 C399 1.390 . S
C394 H385 0.930 . S
C394 C392 1.384 . S
C394 C395 1.372 1_554 S
C395 C394 1.372 1_556 S
C395 C396 1.400 1_556 S
C395 C400 1.490 . S
C396 H386 0.930 1_554 S
C396 C395 1.400 1_554 S
C396 C399 1.386 . S
H397 C413 0.930 . S
H398 C414 0.931 . S
C399 H387 0.929 . S
C399 C393 1.390 . S
C399 C396 1.386 . S
C400 C395 1.490 . S
C400 C402 1.395 . S
C400 C403 1.403 . S
H401 C407 0.930 . S
C402 H388 0.930 . S
C402 C400 1.395 . S
C402 C405 1.403 . S
C403 C400 1.403 . S
C403 C404 1.524 . S
C403 C407 1.400 . S
C404 H389 0.960 . S
C404 H390 0.960 . S
C404 H391 0.960 . S
C404 C403 1.524 . S
C405 C402 1.403 . S
C405 C406 1.392 . S
C405 C409 1.495 . S
C406 C405 1.392 . S
C406 C407 1.385 . S
C406 C408 1.478 . S
C407 H401 0.930 . S
C407 C403 1.400 . S
C407 C406 1.385 . S
C408 C406 1.478 . S
C408 C410 1.381 . S
C408 C414 1.383 . S
C409 C405 1.495 . S
C409 H415 0.959 . S
C409 H416 0.961 . S
C409 H417 0.960 . S
C410 C408 1.381 . S
C410 C411 1.394 . S
C410 H418 0.930 . S
C411 C410 1.394 . S
C411 C412 1.383 . S
C411 H419 0.929 . S
C412 C411 1.383 . S
C412 C413 1.377 . S
C413 H397 0.930 . S
C413 C412 1.377 . S
C413 C414 1.379 . S
C414 H398 0.931 . S
C414 C408 1.383 . S
C414 C413 1.379 . S
H415 C409 0.959 . S
H416 C409 0.961 . S
H417 C409 0.960 . S
H418 C410 0.930 . S
H419 C411 0.929 . S
H420 C428 0.929 . S
H421 C430 0.930 . S
H422 C432 0.930 . S
H423 C435 0.929 . S
H424 C438 0.930 . S
H425 C440 0.960 . S
H426 C440 0.960 . S
H427 C440 0.960 . S
C428 H420 0.929 . S
C428 C429 1.377 . S
C428 C430 1.384 . S
C429 C428 1.377 . S
C429 C435 1.390 . S
C430 H421 0.930 . S
C430 C428 1.384 . S
C430 C431 1.372 . S
C431 C430 1.372 . S
C431 C432 1.400 . S
C431 C436 1.490 . S
C432 H422 0.930 . S
C432 C431 1.400 . S
C432 C435 1.386 . S
H433 C449 0.930 . S
H434 C450 0.931 1_554 S
C435 H423 0.929 . S
C435 C429 1.390 . S
C435 C432 1.386 . S
C436 C431 1.490 . S
C436 C438 1.395 . S
C436 C439 1.403 . S
H437 C443 0.930 . S
C438 H424 0.930 . S
C438 C436 1.395 . S
C438 C441 1.403 . S
C439 C436 1.403 . S
C439 C440 1.524 . S
C439 C443 1.400 . S
C440 H425 0.960 . S
C440 H426 0.960 . S
C440 H427 0.960 . S
C440 C439 1.524 . S
C441 C438 1.403 . S
C441 C442 1.392 . S
C441 C445 1.495 . S
C442 C441 1.392 . S
C442 C443 1.385 . S
C442 C444 1.478 . S
C443 H437 0.930 . S
C443 C439 1.400 . S
C443 C442 1.385 . S
C444 C442 1.478 . S
C444 C446 1.381 1_554 S
C444 C450 1.383 1_554 S
C445 C441 1.495 . S
C445 H451 0.959 . S
C445 H452 0.961 . S
C445 H453 0.960 . S
C446 C444 1.381 1_556 S
C446 C447 1.394 . S
C446 H454 0.930 1_556 S
C447 C446 1.394 . S
C447 C448 1.383 . S
C447 H455 0.929 . S
C448 C447 1.383 . S
C448 C449 1.377 . S
C449 H433 0.930 . S
C449 C448 1.377 . S
C449 C450 1.379 . S
C450 H434 0.931 1_556 S
C450 C444 1.383 1_556 S
C450 C449 1.379 . S
H451 C445 0.959 . S
H452 C445 0.961 . S
H453 C445 0.960 . S
H454 C446 0.930 1_554 S
H455 C447 0.929 . S
H456 C464 0.929 . S
H457 C466 0.930 . S
H458 C468 0.930 . S
H459 C471 0.929 . S
H460 C474 0.930 . S
H461 C476 0.960 . S
H462 C476 0.960 . S
H463 C476 0.960 . S
C464 H456 0.929 . S
C464 C465 1.377 . S
C464 C466 1.384 . S
C465 C464 1.377 . S
C465 C471 1.390 . S
C466 H457 0.930 . S
C466 C464 1.384 . S
C466 C467 1.372 . S
C467 C466 1.372 . S
C467 C468 1.400 . S
C467 C472 1.490 . S
C468 H458 0.930 . S
C468 C467 1.400 . S
C468 C471 1.386 . S
H469 C485 0.930 . S
H470 C486 0.931 . S
C471 H459 0.929 . S
C471 C465 1.390 . S
C471 C468 1.386 . S
C472 C467 1.490 . S
C472 C474 1.395 . S
C472 C475 1.403 . S
H473 C479 0.930 . S
C474 H460 0.930 . S
C474 C472 1.395 . S
C474 C477 1.403 . S
C475 C472 1.403 . S
C475 C476 1.524 . S
C475 C479 1.400 . S
C476 H461 0.960 . S
C476 H462 0.960 . S
C476 H463 0.960 . S
C476 C475 1.524 . S
C477 C474 1.403 . S
C477 C478 1.392 . S
C477 C481 1.495 . S
C478 C477 1.392 . S
C478 C479 1.385 . S
C478 C480 1.478 . S
C479 H473 0.930 . S
C479 C475 1.400 . S
C479 C478 1.385 . S
C480 C478 1.478 . S
C480 C482 1.381 . S
C480 C486 1.383 . S
C481 C477 1.495 . S
C481 H487 0.959 . S
C481 H488 0.961 . S
C481 H489 0.960 . S
C482 C480 1.381 . S
C482 C483 1.394 . S
C482 H490 0.930 . S
C483 C482 1.394 . S
C483 C484 1.383 . S
C483 H491 0.929 . S
C484 C483 1.383 . S
C484 C485 1.377 . S
C485 H469 0.930 . S
C485 C484 1.377 . S
C485 C486 1.379 . S
C486 H470 0.931 . S
C486 C480 1.383 . S
C486 C485 1.379 . S
H487 C481 0.959 . S
H488 C481 0.961 . S
H489 C481 0.960 . S
H490 C482 0.930 . S
H491 C483 0.929 . S
H492 C500 0.929 . S
H493 C502 0.930 . S
H494 C504 0.930 . S
H495 C507 0.929 . S
H496 C510 0.930 . S
H497 C512 0.960 . S
H498 C512 0.960 . S
H499 C512 0.960 . S
C500 H492 0.929 . S
C500 C501 1.377 . S
C500 C502 1.384 . S
C501 C500 1.377 . S
C501 C507 1.390 . S
C502 H493 0.930 . S
C502 C500 1.384 . S
C502 C503 1.372 . S
C503 C502 1.372 . S
C503 C504 1.400 . S
C503 C508 1.490 . S
C504 H494 0.930 . S
C504 C503 1.400 . S
C504 C507 1.386 . S
H505 C521 0.930 . S
H506 C522 0.927 1_556 S
C507 H495 0.929 . S
C507 C501 1.390 . S
C507 C504 1.386 . S
C508 C503 1.490 . S
C508 C510 1.395 . S
C508 C511 1.403 . S
H509 C515 0.930 . S
C510 H496 0.930 . S
C510 C508 1.395 . S
C510 C513 1.403 . S
C511 C508 1.403 . S
C511 C512 1.524 . S
C511 C515 1.400 . S
C512 H497 0.960 . S
C512 H498 0.960 . S
C512 H499 0.960 . S
C512 C511 1.524 . S
C513 C510 1.403 . S
C513 C514 1.392 . S
C513 C517 1.495 . S
C514 C513 1.392 . S
C514 C515 1.385 . S
C514 C516 1.478 . S
C515 H509 0.930 . S
C515 C511 1.400 . S
C515 C514 1.385 . S
C516 C514 1.478 . S
C516 C518 1.381 1_556 S
C516 C522 1.383 1_556 S
C517 C513 1.495 . S
C517 H523 0.959 . S
C517 H524 0.961 . S
C517 H525 0.960 . S
C518 C516 1.381 1_554 S
C518 C519 1.394 . S
C518 H526 0.930 1_554 S
C519 C518 1.394 . S
C519 C520 1.383 . S
C519 H527 0.929 . S
C520 C519 1.383 . S
C520 C521 1.377 . S
C521 H505 0.930 . S
C521 C520 1.377 . S
C521 C522 1.379 . S
C522 H506 0.927 1_554 S
C522 C516 1.383 1_554 S
C522 C521 1.379 . S
H523 C517 0.959 . S
H524 C517 0.961 . S
H525 C517 0.960 . S
H526 C518 0.930 1_556 S
H527 C519 0.929 . S
H528 C536 0.929 . S
H529 C538 0.930 . S
H530 C540 0.930 . S
H531 C543 0.929 . S
H532 C546 0.930 . S
H533 C548 0.960 . S
H534 C548 0.960 . S
H535 C548 0.960 . S
C536 H528 0.929 . S
C536 C537 1.377 . S
C536 C538 1.384 . S
C537 C536 1.377 . S
C537 C543 1.390 . S
C538 H529 0.930 . S
C538 C536 1.384 . S
C538 C539 1.372 . S
C539 C538 1.372 . S
C539 C540 1.400 . S
C539 C544 1.490 . S
C540 H530 0.930 . S
C540 C539 1.400 . S
C540 C543 1.386 . S
H541 C557 0.930 . S
H542 C558 0.931 1_554 S
C543 H531 0.929 . S
C543 C537 1.390 . S
C543 C540 1.386 . S
C544 C539 1.490 . S
C544 C546 1.395 . S
C544 C547 1.403 . S
H545 C551 0.930 . S
C546 H532 0.930 . S
C546 C544 1.395 . S
C546 C549 1.403 . S
C547 C544 1.403 . S
C547 C548 1.524 . S
C547 C551 1.400 . S
C548 H533 0.960 . S
C548 H534 0.960 . S
C548 H535 0.960 . S
C548 C547 1.524 . S
C549 C546 1.403 . S
C549 C550 1.392 . S
C549 C553 1.495 . S
C550 C549 1.392 . S
C550 C551 1.385 . S
C550 C552 1.478 . S
C551 H545 0.930 . S
C551 C547 1.400 . S
C551 C550 1.385 . S
C552 C550 1.478 . S
C552 C554 1.381 1_554 S
C552 C558 1.383 1_554 S
C553 C549 1.495 . S
C553 H559 0.959 . S
C553 H560 0.961 . S
C553 H561 0.960 . S
C554 C552 1.381 1_556 S
C554 C555 1.394 . S
C554 H562 0.930 1_556 S
C555 C554 1.394 . S
C555 C556 1.383 . S
C555 H563 0.929 . S
C556 C555 1.383 . S
C556 C557 1.377 . S
C557 H541 0.930 . S
C557 C556 1.377 . S
C557 C558 1.379 . S
C558 H542 0.931 1_556 S
C558 C552 1.383 1_556 S
C558 C557 1.379 . S
H559 C553 0.959 . S
H560 C553 0.961 . S
H561 C553 0.960 . S
H562 C554 0.930 1_554 S
H563 C555 0.929 . S
H564 C572 0.929 . S
H565 C574 0.930 . S
H566 C576 0.930 . S
H567 C579 0.929 . S
H568 C582 0.930 . S
H569 C584 0.960 . S
H570 C584 0.960 . S
H571 C584 0.960 . S
C572 H564 0.929 . S
C572 C573 1.377 . S
C572 C574 1.384 . S
C573 C572 1.377 . S
C573 C579 1.390 . S
C574 H565 0.930 . S
C574 C572 1.384 . S
C574 C575 1.372 . S
C575 C574 1.372 . S
C575 C576 1.400 . S
C575 C580 1.490 . S
C576 H566 0.930 . S
C576 C575 1.400 . S
C576 C579 1.386 . S
H577 C593 0.930 . S
H578 C594 0.931 . S
C579 H567 0.929 . S
C579 C573 1.390 . S
C579 C576 1.386 . S
C580 C575 1.490 . S
C580 C582 1.395 . S
C580 C583 1.403 . S
H581 C587 0.930 . S
C582 H568 0.930 . S
C582 C580 1.395 . S
C582 C585 1.403 . S
C583 C580 1.403 . S
C583 C584 1.524 . S
C583 C587 1.400 . S
C584 H569 0.960 . S
C584 H570 0.960 . S
C584 H571 0.960 . S
C584 C583 1.524 . S
C585 C582 1.403 . S
C585 C586 1.392 . S
C585 C589 1.495 . S
C586 C585 1.392 . S
C586 C587 1.385 . S
C586 C588 1.478 . S
C587 H581 0.930 . S
C587 C583 1.400 . S
C587 C586 1.385 . S
C588 C586 1.478 . S
C588 C590 1.381 . S
C588 C594 1.383 . S
C589 C585 1.495 . S
C589 H595 0.959 . S
C589 H596 0.961 . S
C589 H597 0.960 . S
C590 C588 1.381 . S
C590 C591 1.394 . S
C590 H598 0.930 . S
C591 C590 1.394 . S
C591 C592 1.383 . S
C591 H599 0.929 . S
C592 C591 1.383 . S
C592 C593 1.377 . S
C593 H577 0.930 . S
C593 C592 1.377 . S
C593 C594 1.379 . S
C594 H578 0.931 . S
C594 C588 1.383 . S
C594 C593 1.379 . S
H595 C589 0.959 . S
H596 C589 0.961 . S
H597 C589 0.960 . S
H598 C590 0.930 . S
H599 C591 0.929 . S
H600 C608 0.929 . S
H601 C610 0.930 . S
H602 C612 0.930 . S
H603 C615 0.929 . S
H604 C618 0.930 . S
H605 C620 0.960 . S
H606 C620 0.960 . S
H607 C620 0.960 . S
C608 H600 0.929 . S
C608 C609 1.377 . S
C608 C610 1.384 . S
C609 C608 1.377 . S
C609 C615 1.390 . S
C610 H601 0.930 . S
C610 C608 1.384 . S
C610 C611 1.372 . S
C611 C610 1.372 . S
C611 C612 1.400 . S
C611 C616 1.490 . S
C612 H602 0.930 . S
C612 C611 1.400 . S
C612 C615 1.386 . S
H613 C629 0.930 . S
H614 C630 0.931 . S
C615 H603 0.929 . S
C615 C609 1.390 . S
C615 C612 1.386 . S
C616 C611 1.490 . S
C616 C618 1.395 . S
C616 C619 1.403 . S
H617 C623 0.930 . S
C618 H604 0.930 . S
C618 C616 1.395 . S
C618 C621 1.403 . S
C619 C616 1.403 . S
C619 C620 1.524 . S
C619 C623 1.400 . S
C620 H605 0.960 . S
C620 H606 0.960 . S
C620 H607 0.960 . S
C620 C619 1.524 . S
C621 C618 1.403 . S
C621 C622 1.392 . S
C621 C625 1.495 . S
C622 C621 1.392 . S
C622 C623 1.385 . S
C622 C624 1.478 . S
C623 H617 0.930 . S
C623 C619 1.400 . S
C623 C622 1.385 . S
C624 C622 1.478 . S
C624 C626 1.381 . S
C624 C630 1.383 . S
C625 C621 1.495 . S
C625 H631 0.959 . S
C625 H632 0.961 . S
C625 H633 0.960 . S
C626 C624 1.381 . S
C626 C627 1.394 . S
C626 H634 0.930 . S
C627 C626 1.394 . S
C627 C628 1.383 . S
C627 H635 0.929 . S
C628 C627 1.383 . S
C628 C629 1.377 . S
C629 H613 0.930 . S
C629 C628 1.377 . S
C629 C630 1.379 . S
C630 H614 0.931 . S
C630 C624 1.383 . S
C630 C629 1.379 . S
H631 C625 0.959 . S
H632 C625 0.961 . S
H633 C625 0.960 . S
H634 C626 0.930 . S
H635 C627 0.929 . S
H636 C644 0.929 . S
H637 C646 0.930 . S
H638 C648 0.930 . S
H639 C651 0.929 . S
H640 C654 0.930 . S
H641 C656 0.960 . S
H642 C656 0.960 . S
H643 C656 0.960 . S
C644 H636 0.929 . S
C644 C645 1.377 . S
C644 C646 1.384 . S
C645 C644 1.377 . S
C645 C651 1.390 . S
C646 H637 0.930 . S
C646 C644 1.384 . S
C646 C647 1.372 . S
C647 C646 1.372 . S
C647 C648 1.400 . S
C647 C652 1.490 . S
C648 H638 0.930 . S
C648 C647 1.400 . S
C648 C651 1.386 . S
H649 C665 0.930 . S
H650 C666 0.931 . S
C651 H639 0.929 . S
C651 C645 1.390 . S
C651 C648 1.386 . S
C652 C647 1.490 . S
C652 C654 1.395 . S
C652 C655 1.403 . S
H653 C659 0.930 . S
C654 H640 0.930 . S
C654 C652 1.395 . S
C654 C657 1.403 . S
C655 C652 1.403 . S
C655 C656 1.524 . S
C655 C659 1.400 . S
C656 H641 0.960 . S
C656 H642 0.960 . S
C656 H643 0.960 . S
C656 C655 1.524 . S
C657 C654 1.403 . S
C657 C658 1.392 . S
C657 C661 1.495 . S
C658 C657 1.392 . S
C658 C659 1.385 . S
C658 C660 1.478 . S
C659 H653 0.930 . S
C659 C655 1.400 . S
C659 C658 1.385 . S
C660 C658 1.478 . S
C660 C662 1.381 . S
C660 C666 1.383 . S
C661 C657 1.495 . S
C661 H667 0.959 . S
C661 H668 0.961 . S
C661 H669 0.960 . S
C662 C660 1.381 . S
C662 C663 1.394 . S
C662 H670 0.930 . S
C663 C662 1.394 . S
C663 C664 1.383 . S
C663 H671 0.929 . S
C664 C663 1.383 . S
C664 C665 1.377 . S
C665 H649 0.930 . S
C665 C664 1.377 . S
C665 C666 1.379 . S
C666 H650 0.931 . S
C666 C660 1.383 . S
C666 C665 1.379 . S
H667 C661 0.959 . S
H668 C661 0.961 . S
H669 C661 0.960 . S
H670 C662 0.930 . S
H671 C663 0.929 . S
H672 C680 0.929 . S
H673 C682 0.930 . S
H674 C684 0.930 . S
H675 C687 0.929 . S
H676 C690 0.930 . S
H677 C692 0.960 . S
H678 C692 0.960 . S
H679 C692 0.960 . S
C680 H672 0.929 . S
C680 C681 1.377 . S
C680 C682 1.384 . S
C681 C680 1.377 . S
C681 C687 1.390 . S
C682 H673 0.930 . S
C682 C680 1.384 . S
C682 C683 1.372 . S
C683 C682 1.372 . S
C683 C684 1.400 . S
C683 C688 1.490 . S
C684 H674 0.930 . S
C684 C683 1.400 . S
C684 C687 1.386 . S
H685 C701 0.930 . S
H686 C702 0.931 . S
C687 H675 0.929 . S
C687 C681 1.390 . S
C687 C684 1.386 . S
C688 C683 1.490 . S
C688 C690 1.395 . S
C688 C691 1.403 . S
H689 C695 0.930 . S
C690 H676 0.930 . S
C690 C688 1.395 . S
C690 C693 1.403 . S
C691 C688 1.403 . S
C691 C692 1.524 . S
C691 C695 1.400 . S
C692 H677 0.960 . S
C692 H678 0.960 . S
C692 H679 0.960 . S
C692 C691 1.524 . S
C693 C690 1.403 . S
C693 C694 1.392 . S
C693 C697 1.495 . S
C694 C693 1.392 . S
C694 C695 1.385 . S
C694 C696 1.478 . S
C695 H689 0.930 . S
C695 C691 1.400 . S
C695 C694 1.385 . S
C696 C694 1.478 . S
C696 C698 1.381 . S
C696 C702 1.383 . S
C697 C693 1.495 . S
C697 H703 0.959 . S
C697 H704 0.961 . S
C697 H705 0.960 . S
C698 C696 1.381 . S
C698 C699 1.394 . S
C698 H706 0.930 . S
C699 C698 1.394 . S
C699 C700 1.383 . S
C699 H707 0.929 . S
C700 C699 1.383 . S
C700 C701 1.377 . S
C701 H685 0.930 . S
C701 C700 1.377 . S
C701 C702 1.379 . S
C702 H686 0.931 . S
C702 C696 1.383 . S
C702 C701 1.379 . S
H703 C697 0.959 . S
H704 C697 0.961 . S
H705 C697 0.960 . S
H706 C698 0.930 . S
H707 C699 0.929 . S
H708 C716 0.929 . S
H709 C718 0.930 . S
H710 C720 0.930 . S
H711 C723 0.929 . S
H712 C726 0.930 . S
H713 C728 0.960 . S
H714 C728 0.960 . S
H715 C728 0.960 . S
C716 H708 0.929 . S
C716 C717 1.377 . S
C716 C718 1.384 . S
C717 C716 1.377 . S
C717 C723 1.390 . S
C718 H709 0.930 . S
C718 C716 1.384 . S
C718 C719 1.372 . S
C719 C718 1.372 . S
C719 C720 1.400 . S
C719 C724 1.490 . S
C720 H710 0.930 . S
C720 C719 1.400 . S
C720 C723 1.386 . S
H721 C737 0.930 . S
H722 C738 0.931 . S
C723 H711 0.929 . S
C723 C717 1.390 . S
C723 C720 1.386 . S
C724 C719 1.490 . S
C724 C726 1.395 . S
C724 C727 1.403 . S
H725 C731 0.930 . S
C726 H712 0.930 . S
C726 C724 1.395 . S
C726 C729 1.403 . S
C727 C724 1.403 . S
C727 C728 1.524 . S
C727 C731 1.400 . S
C728 H713 0.960 . S
C728 H714 0.960 . S
C728 H715 0.960 . S
C728 C727 1.524 . S
C729 C726 1.403 . S
C729 C730 1.392 . S
C729 C733 1.495 . S
C730 C729 1.392 . S
C730 C731 1.385 . S
C730 C732 1.478 . S
C731 H725 0.930 . S
C731 C727 1.400 . S
C731 C730 1.385 . S
C732 C730 1.478 . S
C732 C734 1.381 . S
C732 C738 1.383 . S
C733 C729 1.495 . S
C733 H739 0.959 . S
C733 H740 0.961 . S
C733 H741 0.960 . S
C734 C732 1.381 . S
C734 C735 1.394 . S
C734 H742 0.930 . S
C735 C734 1.394 . S
C735 C736 1.383 . S
C735 H743 0.929 . S
C736 C735 1.383 . S
C736 C737 1.377 . S
C737 H721 0.930 . S
C737 C736 1.377 . S
C737 C738 1.379 . S
C738 H722 0.931 . S
C738 C732 1.383 . S
C738 C737 1.379 . S
H739 C733 0.959 . S
H740 C733 0.961 . S
H741 C733 0.960 . S
H742 C734 0.930 . S
H743 C735 0.929 . S
H744 C752 0.929 . S
H745 C754 0.930 . S
H746 C756 0.930 . S
H747 C759 0.929 . S
H748 C762 0.930 . S
H749 C764 0.960 . S
H750 C764 0.960 . S
H751 C764 0.960 . S
C752 H744 0.929 . S
C752 C753 1.377 . S
C752 C754 1.384 . S
C753 C752 1.377 . S
C753 C759 1.390 . S
C754 H745 0.930 . S
C754 C752 1.384 . S
C754 C755 1.372 . S
C755 C754 1.372 . S
C755 C756 1.400 . S
C755 C760 1.490 . S
C756 H746 0.930 . S
C756 C755 1.400 . S
C756 C759 1.386 . S
H757 C773 0.930 . S
H758 C774 0.931 . S
C759 H747 0.929 . S
C759 C753 1.390 . S
C759 C756 1.386 . S
C760 C755 1.490 . S
C760 C762 1.395 . S
C760 C763 1.403 . S
H761 C767 0.930 . S
C762 H748 0.930 . S
C762 C760 1.395 . S
C762 C765 1.403 . S
C763 C760 1.403 . S
C763 C764 1.524 . S
C763 C767 1.400 . S
C764 H749 0.960 . S
C764 H750 0.960 . S
C764 H751 0.960 . S
C764 C763 1.524 . S
C765 C762 1.403 . S
C765 C766 1.392 . S
C765 C769 1.495 . S
C766 C765 1.392 . S
C766 C767 1.385 . S
C766 C768 1.478 . S
C767 H761 0.930 . S
C767 C763 1.400 . S
C767 C766 1.385 . S
C768 C766 1.478 . S
C768 C770 1.381 . S
C768 C774 1.383 . S
C769 C765 1.495 . S
C769 H775 0.959 . S
C769 H776 0.961 . S
C769 H777 0.960 . S
C770 C768 1.381 . S
C770 C771 1.394 . S
C770 H778 0.930 . S
C771 C770 1.394 . S
C771 C772 1.383 . S
C771 H779 0.929 . S
C772 C771 1.383 . S
C772 C773 1.377 . S
C773 H757 0.930 . S
C773 C772 1.377 . S
C773 C774 1.379 . S
C774 H758 0.931 . S
C774 C768 1.383 . S
C774 C773 1.379 . S
H775 C769 0.959 . S
H776 C769 0.961 . S
H777 C769 0.960 . S
H778 C770 0.930 . S
H779 C771 0.929 . S
C141 C114 1.653 . S
C160 C5 1.660 . S
C177 C8 1.656 . S
C196 C31 1.641 . S
C213 C26 1.657 . S
C232 C49 1.642 . S
C249 C52 1.653 . S
C268 C75 1.662 . S
C285 C93 1.656 . S
C304 C70 1.652 . S
C321 C119 1.653 . S
C340 C96 1.661 . S
C357 C4 1.091 . S
C376 C7 1.080 . S
C393 C30 1.098 . S
C412 C28 1.114 . S
C429 C48 1.094 . S
C448 C51 1.075 . S
C465 C74 1.099 . S
C484 C72 1.104 . S
C501 C95 1.098 . S
C520 C92 1.113 . S
C537 C118 1.097 . S
C556 C116 1.114 . S
C573 C9 1.075 . S
C592 C94 1.084 . S
C609 C27 1.069 . S
C628 C117 1.029 . S
C645 C6 1.076 . S
C664 C53 1.041 . S
C681 C29 1.077 . S
C700 C71 1.053 . S
C717 C97 1.068 . S
C736 C50 1.029 . S
C753 C73 1.061 . S
C772 C115 1.095 . S
