# Generated by pormake.
# Topology wlt, (5)-cn, num edge types: 1
# Building blocks:
#     Node 0, Type 0, BuildingBlock: XOMCOT_clean_sbu_0, # of connection points: 5
#     Node 1, Type 0, BuildingBlock: XOMCOT_clean_sbu_0, # of connection points: 5
#     Node 2, Type 0, BuildingBlock: XOMCOT_clean_sbu_0, # of connection points: 5
#     Node 3, Type 0, BuildingBlock: XOMCOT_clean_sbu_0, # of connection points: 5
#     Node 4, Type 0, BuildingBlock: XOMCOT_clean_sbu_0, # of connection points: 5
#     Node 5, Type 0, BuildingBlock: XOMCOT_clean_sbu_0, # of connection points: 5
#     Node 6, Type 0, BuildingBlock: XOMCOT_clean_sbu_0, # of connection points: 5
#     Node 7, Type 0, BuildingBlock: XOMCOT_clean_sbu_0, # of connection points: 5
#     Node 8, Type 0, BuildingBlock: XOMCOT_clean_sbu_0, # of connection points: 5
#     Node 9, Type 0, BuildingBlock: XOMCOT_clean_sbu_0, # of connection points: 5
#     Node 10, Type 0, BuildingBlock: XOMCOT_clean_sbu_0, # of connection points: 5
#     Node 11, Type 0, BuildingBlock: XOMCOT_clean_sbu_0, # of connection points: 5
#     Node 12, Type 0, BuildingBlock: XOMCOT_clean_sbu_0, # of connection points: 5
#     Node 13, Type 0, BuildingBlock: XOMCOT_clean_sbu_0, # of connection points: 5
#     Node 14, Type 0, BuildingBlock: XOMCOT_clean_sbu_0, # of connection points: 5
#     Node 15, Type 0, BuildingBlock: XOMCOT_clean_sbu_0, # of connection points: 5
#     Node 16, Type 0, BuildingBlock: XOMCOT_clean_sbu_0, # of connection points: 5
#     Node 17, Type 0, BuildingBlock: XOMCOT_clean_sbu_0, # of connection points: 5
#     Node 18, Type 0, BuildingBlock: XOMCOT_clean_sbu_0, # of connection points: 5
#     Node 19, Type 0, BuildingBlock: XOMCOT_clean_sbu_0, # of connection points: 5
#     Node 20, Type 0, BuildingBlock: XOMCOT_clean_sbu_0, # of connection points: 5
#     Node 21, Type 0, BuildingBlock: XOMCOT_clean_sbu_0, # of connection points: 5
#     Node 22, Type 0, BuildingBlock: XOMCOT_clean_sbu_0, # of connection points: 5
#     Node 23, Type 0, BuildingBlock: XOMCOT_clean_sbu_0, # of connection points: 5
#     Node 24, Type 0, BuildingBlock: XOMCOT_clean_sbu_0, # of connection points: 5
#     Node 25, Type 0, BuildingBlock: XOMCOT_clean_sbu_0, # of connection points: 5
#     Node 26, Type 0, BuildingBlock: XOMCOT_clean_sbu_0, # of connection points: 5
#     Node 27, Type 0, BuildingBlock: XOMCOT_clean_sbu_0, # of connection points: 5
#     Node 28, Type 0, BuildingBlock: XOMCOT_clean_sbu_0, # of connection points: 5
#     Node 29, Type 0, BuildingBlock: XOMCOT_clean_sbu_0, # of connection points: 5
#     Node 30, Type 0, BuildingBlock: XOMCOT_clean_sbu_0, # of connection points: 5
#     Node 31, Type 0, BuildingBlock: XOMCOT_clean_sbu_0, # of connection points: 5
#     Node 32, Type 0, BuildingBlock: XOMCOT_clean_sbu_0, # of connection points: 5
#     Node 33, Type 0, BuildingBlock: XOMCOT_clean_sbu_0, # of connection points: 5
#     Node 34, Type 0, BuildingBlock: XOMCOT_clean_sbu_0, # of connection points: 5
#     Node 35, Type 0, BuildingBlock: XOMCOT_clean_sbu_0, # of connection points: 5
#     Edge 36, Type (0, 0), BuildingBlock: XIVTED_clean_linker_0, # of connection points: 2
#     Edge 37, Type (0, 0), BuildingBlock: XIVTED_clean_linker_0, # of connection points: 2
#     Edge 38, Type (0, 0), BuildingBlock: XIVTED_clean_linker_0, # of connection points: 2
#     Edge 39, Type (0, 0), BuildingBlock: XIVTED_clean_linker_0, # of connection points: 2
#     Edge 40, Type (0, 0), BuildingBlock: XIVTED_clean_linker_0, # of connection points: 2
#     Edge 41, Type (0, 0), BuildingBlock: XIVTED_clean_linker_0, # of connection points: 2
#     Edge 42, Type (0, 0), BuildingBlock: XIVTED_clean_linker_0, # of connection points: 2
#     Edge 43, Type (0, 0), BuildingBlock: XIVTED_clean_linker_0, # of connection points: 2
#     Edge 44, Type (0, 0), BuildingBlock: XIVTED_clean_linker_0, # of connection points: 2
#     Edge 45, Type (0, 0), BuildingBlock: XIVTED_clean_linker_0, # of connection points: 2
#     Edge 46, Type (0, 0), BuildingBlock: XIVTED_clean_linker_0, # of connection points: 2
#     Edge 47, Type (0, 0), BuildingBlock: XIVTED_clean_linker_0, # of connection points: 2
#     Edge 48, Type (0, 0), BuildingBlock: XIVTED_clean_linker_0, # of connection points: 2
#     Edge 49, Type (0, 0), BuildingBlock: XIVTED_clean_linker_0, # of connection points: 2
#     Edge 50, Type (0, 0), BuildingBlock: XIVTED_clean_linker_0, # of connection points: 2
#     Edge 51, Type (0, 0), BuildingBlock: XIVTED_clean_linker_0, # of connection points: 2
#     Edge 52, Type (0, 0), BuildingBlock: XIVTED_clean_linker_0, # of connection points: 2
#     Edge 53, Type (0, 0), BuildingBlock: XIVTED_clean_linker_0, # of connection points: 2
#     Edge 54, Type (0, 0), BuildingBlock: XIVTED_clean_linker_0, # of connection points: 2
#     Edge 55, Type (0, 0), BuildingBlock: XIVTED_clean_linker_0, # of connection points: 2
#     Edge 56, Type (0, 0), BuildingBlock: XIVTED_clean_linker_0, # of connection points: 2
#     Edge 57, Type (0, 0), BuildingBlock: XIVTED_clean_linker_0, # of connection points: 2
#     Edge 58, Type (0, 0), BuildingBlock: XIVTED_clean_linker_0, # of connection points: 2
#     Edge 59, Type (0, 0), BuildingBlock: XIVTED_clean_linker_0, # of connection points: 2
#     Edge 60, Type (0, 0), BuildingBlock: XIVTED_clean_linker_0, # of connection points: 2
#     Edge 61, Type (0, 0), BuildingBlock: XIVTED_clean_linker_0, # of connection points: 2
#     Edge 62, Type (0, 0), BuildingBlock: XIVTED_clean_linker_0, # of connection points: 2
#     Edge 63, Type (0, 0), BuildingBlock: XIVTED_clean_linker_0, # of connection points: 2
#     Edge 64, Type (0, 0), BuildingBlock: XIVTED_clean_linker_0, # of connection points: 2
#     Edge 65, Type (0, 0), BuildingBlock: XIVTED_clean_linker_0, # of connection points: 2
#     Edge 66, Type (0, 0), BuildingBlock: XIVTED_clean_linker_0, # of connection points: 2
#     Edge 67, Type (0, 0), BuildingBlock: XIVTED_clean_linker_0, # of connection points: 2
#     Edge 68, Type (0, 0), BuildingBlock: XIVTED_clean_linker_0, # of connection points: 2
#     Edge 69, Type (0, 0), BuildingBlock: XIVTED_clean_linker_0, # of connection points: 2
#     Edge 70, Type (0, 0), BuildingBlock: XIVTED_clean_linker_0, # of connection points: 2
#     Edge 71, Type (0, 0), BuildingBlock: XIVTED_clean_linker_0, # of connection points: 2
#     Edge 72, Type (0, 0), BuildingBlock: XIVTED_clean_linker_0, # of connection points: 2
#     Edge 73, Type (0, 0), BuildingBlock: XIVTED_clean_linker_0, # of connection points: 2
#     Edge 74, Type (0, 0), BuildingBlock: XIVTED_clean_linker_0, # of connection points: 2
#     Edge 75, Type (0, 0), BuildingBlock: XIVTED_clean_linker_0, # of connection points: 2
#     Edge 76, Type (0, 0), BuildingBlock: XIVTED_clean_linker_0, # of connection points: 2
#     Edge 77, Type (0, 0), BuildingBlock: XIVTED_clean_linker_0, # of connection points: 2
#     Edge 78, Type (0, 0), BuildingBlock: XIVTED_clean_linker_0, # of connection points: 2
#     Edge 79, Type (0, 0), BuildingBlock: XIVTED_clean_linker_0, # of connection points: 2
#     Edge 80, Type (0, 0), BuildingBlock: XIVTED_clean_linker_0, # of connection points: 2
#     Edge 81, Type (0, 0), BuildingBlock: XIVTED_clean_linker_0, # of connection points: 2
#     Edge 82, Type (0, 0), BuildingBlock: XIVTED_clean_linker_0, # of connection points: 2
#     Edge 83, Type (0, 0), BuildingBlock: XIVTED_clean_linker_0, # of connection points: 2
#     Edge 84, Type (0, 0), BuildingBlock: XIVTED_clean_linker_0, # of connection points: 2
#     Edge 85, Type (0, 0), BuildingBlock: XIVTED_clean_linker_0, # of connection points: 2
#     Edge 86, Type (0, 0), BuildingBlock: XIVTED_clean_linker_0, # of connection points: 2
#     Edge 87, Type (0, 0), BuildingBlock: XIVTED_clean_linker_0, # of connection points: 2
#     Edge 88, Type (0, 0), BuildingBlock: XIVTED_clean_linker_0, # of connection points: 2
#     Edge 89, Type (0, 0), BuildingBlock: XIVTED_clean_linker_0, # of connection points: 2
#     Edge 90, Type (0, 0), BuildingBlock: XIVTED_clean_linker_0, # of connection points: 2
#     Edge 91, Type (0, 0), BuildingBlock: XIVTED_clean_linker_0, # of connection points: 2
#     Edge 92, Type (0, 0), BuildingBlock: XIVTED_clean_linker_0, # of connection points: 2
#     Edge 93, Type (0, 0), BuildingBlock: XIVTED_clean_linker_0, # of connection points: 2
#     Edge 94, Type (0, 0), BuildingBlock: XIVTED_clean_linker_0, # of connection points: 2
#     Edge 95, Type (0, 0), BuildingBlock: XIVTED_clean_linker_0, # of connection points: 2
#     Edge 96, Type (0, 0), BuildingBlock: XIVTED_clean_linker_0, # of connection points: 2
#     Edge 97, Type (0, 0), BuildingBlock: XIVTED_clean_linker_0, # of connection points: 2
#     Edge 98, Type (0, 0), BuildingBlock: XIVTED_clean_linker_0, # of connection points: 2
#     Edge 99, Type (0, 0), BuildingBlock: XIVTED_clean_linker_0, # of connection points: 2
#     Edge 100, Type (0, 0), BuildingBlock: XIVTED_clean_linker_0, # of connection points: 2
#     Edge 101, Type (0, 0), BuildingBlock: XIVTED_clean_linker_0, # of connection points: 2
#     Edge 102, Type (0, 0), BuildingBlock: XIVTED_clean_linker_0, # of connection points: 2
#     Edge 103, Type (0, 0), BuildingBlock: XIVTED_clean_linker_0, # of connection points: 2
#     Edge 104, Type (0, 0), BuildingBlock: XIVTED_clean_linker_0, # of connection points: 2
#     Edge 105, Type (0, 0), BuildingBlock: XIVTED_clean_linker_0, # of connection points: 2
#     Edge 106, Type (0, 0), BuildingBlock: XIVTED_clean_linker_0, # of connection points: 2
#     Edge 107, Type (0, 0), BuildingBlock: XIVTED_clean_linker_0, # of connection points: 2
#     Edge 108, Type (0, 0), BuildingBlock: XIVTED_clean_linker_0, # of connection points: 2
#     Edge 109, Type (0, 0), BuildingBlock: XIVTED_clean_linker_0, # of connection points: 2
#     Edge 110, Type (0, 0), BuildingBlock: XIVTED_clean_linker_0, # of connection points: 2
#     Edge 111, Type (0, 0), BuildingBlock: XIVTED_clean_linker_0, # of connection points: 2
#     Edge 112, Type (0, 0), BuildingBlock: XIVTED_clean_linker_0, # of connection points: 2
#     Edge 113, Type (0, 0), BuildingBlock: XIVTED_clean_linker_0, # of connection points: 2
#     Edge 114, Type (0, 0), BuildingBlock: XIVTED_clean_linker_0, # of connection points: 2
#     Edge 115, Type (0, 0), BuildingBlock: XIVTED_clean_linker_0, # of connection points: 2
#     Edge 116, Type (0, 0), BuildingBlock: XIVTED_clean_linker_0, # of connection points: 2
#     Edge 117, Type (0, 0), BuildingBlock: XIVTED_clean_linker_0, # of connection points: 2
#     Edge 118, Type (0, 0), BuildingBlock: XIVTED_clean_linker_0, # of connection points: 2
#     Edge 119, Type (0, 0), BuildingBlock: XIVTED_clean_linker_0, # of connection points: 2
#     Edge 120, Type (0, 0), BuildingBlock: XIVTED_clean_linker_0, # of connection points: 2
#     Edge 121, Type (0, 0), BuildingBlock: XIVTED_clean_linker_0, # of connection points: 2
#     Edge 122, Type (0, 0), BuildingBlock: XIVTED_clean_linker_0, # of connection points: 2
#     Edge 123, Type (0, 0), BuildingBlock: XIVTED_clean_linker_0, # of connection points: 2
#     Edge 124, Type (0, 0), BuildingBlock: XIVTED_clean_linker_0, # of connection points: 2
#     Edge 125, Type (0, 0), BuildingBlock: XIVTED_clean_linker_0, # of connection points: 2
# Relax obj value: 0.196
# Max RMSD: 0.209
# Mean RMSD: 0.209
data_MOF--net-wlt--node1-XOMCOT_clean_sbu_0--edge1-XIVTED_clean_linker_0
_symmetry_space_group_name_H-M    P1
_symmetry_Int_Tables_number       1
_symmetry_cell_setting            triclinic
loop_
_symmetry_equiv_pos_as_xyz
'x, y, z'
_cell_length_a     65.058224
_cell_length_b     65.086551
_cell_length_c     52.008535
_cell_angle_alpha  90.024021
_cell_angle_beta   89.963847
_cell_angle_gamma 119.9655
loop_
_atom_site_label
_atom_site_type_symbol
_atom_site_fract_x
_atom_site_fract_y
_atom_site_fract_z
_atom_type_partial_charge
Co0 Co 0.25109 0.20189 0.06104 0.0
C1 C 0.28614 0.1943 0.08752 0.0
C2 C 0.30364 0.22432 0.06233 0.0
C3 C 0.32064 0.22154 0.07533 0.0
N4 N 0.2821 0.20726 0.07024 0.0
N5 N 0.30949 0.20259 0.09111 0.0
H6 H 0.27214 0.1796 0.09798 0.0
H7 H 0.30677 0.23796 0.04845 0.0
C8 C 0.25641 0.24989 0.06652 0.0
O9 O 0.23611 0.23921 0.07898 0.0
N10 N 0.21932 0.19549 0.05131 0.0
C11 C 0.19866 0.17523 0.05575 0.0
C12 C 0.18017 0.17744 0.04631 0.0
C13 C 0.21298 0.20899 0.03728 0.0
N14 N 0.18916 0.19876 0.03495 0.0
C15 C 0.2273 0.18544 0.10974 0.0
C16 C 0.25872 0.22496 0.13752 0.0
C17 C 0.23928 0.20643 0.1501 0.0
C18 C 0.22362 0.18634 0.13599 0.0
C19 C 0.26175 0.22327 0.11131 0.0
N20 N 0.24544 0.20424 0.09738 0.0
H21 H 0.21613 0.16917 0.09979 0.0
H22 H 0.27746 0.23727 0.10225 0.0
H23 H 0.19684 0.15933 0.06434 0.0
H24 H 0.22538 0.22608 0.0292 0.0
O25 O 0.24025 0.16858 0.05998 0.0
O26 O 0.25505 0.19279 0.02651 0.0
O27 O 0.2648 0.23754 0.0566 0.0
C28 C 0.24649 0.17147 0.03598 0.0
H29 H 0.33966 0.23262 0.07335 0.0
H30 H 0.16154 0.16415 0.04722 0.0
H31 H 0.2715 0.24068 0.14777 0.0
H32 H 0.20903 0.17114 0.14526 0.0
Co33 Co 0.81354 0.05003 0.05969 0.0
C34 C 0.81998 0.09195 0.08688 0.0
C35 C 0.79144 0.08044 0.0598 0.0
C36 C 0.79349 0.09973 0.07324 0.0
N37 N 0.80801 0.07563 0.06862 0.0
N38 N 0.81148 0.10687 0.09028 0.0
H39 H 0.83399 0.09211 0.09823 0.0
H40 H 0.77854 0.07042 0.04507 0.0
C41 C 0.76561 0.00728 0.06378 0.0
O42 O 0.77618 0.99773 0.07656 0.0
N43 N 0.82005 0.02469 0.05016 0.0
C44 C 0.83993 0.02378 0.05543 0.0
C45 C 0.83769 1.00313 0.04577 0.0
C46 C 0.80687 1.00528 0.03541 0.0
N47 N 0.81679 0.99139 0.03343 0.0
C48 C 0.82839 0.04185 0.10902 0.0
C49 C 0.78824 0.03407 0.13538 0.0
C50 C 0.8062 0.03267 0.14859 0.0
C51 C 0.82661 0.03691 0.13523 0.0
C52 C 0.79073 0.03898 0.1092 0.0
N53 N 0.8101 0.04162 0.09597 0.0
H54 H 0.84492 0.04687 0.09966 0.0
H55 H 0.77709 0.04094 0.0996 0.0
H56 H 0.85559 0.03748 0.06476 0.0
H57 H 0.79017 1.00109 0.02663 0.0
O58 O 0.84693 0.07238 0.05965 0.0
O59 O 0.82364 0.06345 0.02544 0.0
O60 O 0.77799 0.02816 0.05424 0.0
C61 C 0.84474 0.07597 0.03554 0.0
H62 H 0.78249 0.1077 0.07074 0.0
H63 H 0.85068 0.99742 0.04723 0.0
H64 H 0.77234 0.03133 0.14512 0.0
H65 H 0.84135 0.03707 0.14509 0.0
Co66 Co 0.96381 0.76621 0.06376 0.0
C67 C 0.92281 0.73297 0.09437 0.0
C68 C 0.93281 0.71411 0.06794 0.0
C69 C 0.91367 0.69787 0.0823 0.0
N70 N 0.93852 0.73604 0.07576 0.0
N71 N 0.90744 0.70982 0.09887 0.0
H72 H 0.92316 0.74749 0.10488 0.0
H73 H 0.94193 0.71021 0.05302 0.0
C74 C 1.00581 0.75962 0.06691 0.0
O75 O 0.01636 0.78028 0.07862 0.0
N76 N 0.98876 0.79715 0.05093 0.0
C77 C 0.98791 0.81751 0.05166 0.0
C78 C 1.00714 0.83511 0.03908 0.0
C79 C 1.00828 0.80274 0.0365 0.0
N80 N 0.02005 0.82589 0.02977 0.0
C81 C 0.97806 0.79447 0.10979 0.0
C82 C 0.98228 0.7618 0.13995 0.0
C83 C 0.98638 0.78316 0.15081 0.0
C84 C 0.98434 0.79966 0.13552 0.0
C85 C 0.97651 0.75752 0.114 0.0
N86 N 0.97492 0.77397 0.09904 0.0
H87 H 0.97482 0.80658 0.09899 0.0
H88 H 0.97289 0.74071 0.106 0.0
H89 H 0.97387 0.81961 0.06002 0.0
H90 H 0.01342 0.79016 0.03005 0.0
O91 O 0.94211 0.77794 0.06452 0.0
O92 O 0.94771 0.76073 0.03058 0.0
O93 O 0.9847 0.75138 0.05807 0.0
C94 C 0.93679 0.77097 0.0409 0.0
H95 H 0.90494 0.67877 0.0805 0.0
H96 H 0.0113 0.85333 0.03682 0.0
H97 H 0.98346 0.74854 0.15143 0.0
H98 H 0.9867 0.81604 0.14364 0.0
Co99 Co 0.20837 0.24886 0.42088 0.0
C100 C 0.19704 0.28337 0.39725 0.0
C101 C 0.23266 0.30094 0.41152 0.0
C102 C 0.22875 0.31737 0.39905 0.0
N103 N 0.21282 0.27947 0.41008 0.0
N104 N 0.20641 0.30617 0.38985 0.0
H105 H 0.17903 0.26981 0.39309 0.0
H106 H 0.24919 0.30459 0.42022 0.0
C107 C 0.25782 0.27182 0.44351 0.0
O108 O 0.2495 0.27016 0.4669 0.0
N109 N 0.2034 0.21801 0.43084 0.0
C110 C 0.18589 0.19749 0.42112 0.0
C111 C 0.18906 0.17918 0.42913 0.0
C112 C 0.217 0.21186 0.44487 0.0
N113 N 0.20863 0.18819 0.44396 0.0
C114 C 0.1945 0.23822 0.368 0.0
C115 C 0.23117 0.2307 0.35383 0.0
C116 C 0.21502 0.22921 0.33513 0.0
C117 C 0.19626 0.23268 0.34252 0.0
C118 C 0.22886 0.23645 0.37898 0.0
N119 N 0.21122 0.24103 0.38563 0.0
H120 H 0.17946 0.2399 0.37353 0.0
H121 H 0.24103 0.23659 0.39315 0.0
H122 H 0.1722 0.19604 0.40822 0.0
H123 H 0.23308 0.22431 0.45468 0.0
O124 O 0.17466 0.23637 0.42218 0.0
O125 O 0.19897 0.25359 0.45501 0.0
O126 O 0.24375 0.26379 0.42443 0.0
C127 C 0.17743 0.24352 0.44584 0.0
H128 H 0.24172 0.33585 0.39593 0.0
H129 H 0.17791 0.16064 0.42425 0.0
H130 H 0.24533 0.22715 0.34917 0.0
H131 H 0.18319 0.23139 0.32874 0.0
Co132 Co 0.76887 0.96347 0.42131 0.0
C133 C 0.73432 0.92281 0.3916 0.0
C134 C 0.71665 0.93171 0.42069 0.0
C135 C 0.69985 0.91233 0.40702 0.0
N136 N 0.73816 0.93817 0.41081 0.0
N137 N 0.71109 0.9069 0.38867 0.0
H138 H 0.74842 0.92322 0.38016 0.0
H139 H 0.71342 0.94041 0.43662 0.0
C140 C 0.76271 1.00581 0.41987 0.0
O141 O 0.78307 0.01629 0.40755 0.0
N142 N 0.80043 0.98846 0.4324 0.0
C143 C 0.82114 0.9889 0.4279 0.0
C144 C 0.83955 0.00921 0.43798 0.0
C145 C 0.8067 0.00785 0.44726 0.0
N146 N 0.8305 0.02125 0.44989 0.0
C147 C 0.79378 0.97533 0.37304 0.0
C148 C 0.76187 0.98371 0.34664 0.0
C149 C 0.78208 0.98654 0.33393 0.0
C150 C 0.79802 0.982 0.34733 0.0
C151 C 0.75835 0.97702 0.3724 0.0
N152 N 0.77483 0.97405 0.38571 0.0
H153 H 0.80537 0.97036 0.38228 0.0
H154 H 0.74216 0.97395 0.38159 0.0
H155 H 0.82305 0.97515 0.41855 0.0
H156 H 0.79431 0.01241 0.45566 0.0
O157 O 0.7805 0.94172 0.4195 0.0
O158 O 0.76491 0.94782 0.45454 0.0
O159 O 0.75445 0.98457 0.42833 0.0
C160 C 0.77456 0.93667 0.44341 0.0
H161 H 0.68088 0.90317 0.41017 0.0
H162 H 0.85819 0.01459 0.43697 0.0
H163 H 0.74861 0.98611 0.33665 0.0
H164 H 0.81359 0.98345 0.33804 0.0
Co165 Co 0.0559 0.81037 0.42135 0.0
C166 C 0.09908 0.8207 0.39129 0.0
C167 C 0.09284 0.79678 0.42245 0.0
C168 C 0.11332 0.80109 0.40994 0.0
N169 N 0.08361 0.80868 0.41037 0.0
N170 N 0.11718 0.81623 0.39043 0.0
H171 H 0.09752 0.83263 0.37825 0.0
H172 H 0.0852 0.78577 0.43928 0.0
C173 C 0.03852 0.75991 0.40842 0.0
O174 O 0.05269 0.76843 0.38844 0.0
N175 N 0.02897 0.81296 0.4325 0.0
C176 C 0.02603 0.83157 0.42691 0.0
C177 C 1.00512 0.82778 0.43749 0.0
C178 C 1.00954 0.7978 0.44614 0.0
N179 N 0.99477 0.80659 0.44937 0.0
C180 C 0.05667 0.82897 0.37115 0.0
C181 C 0.01597 0.79008 0.35307 0.0
C182 C 0.02929 0.80907 0.33636 0.0
C183 C 0.0494 0.82909 0.34603 0.0
C184 C 0.02369 0.79097 0.3782 0.0
N185 N 0.04498 0.80931 0.38628 0.0
H186 H 0.0717 0.84492 0.37839 0.0
H187 H 0.01229 0.77687 0.3911 0.0
H188 H 0.0383 0.84692 0.41586 0.0
H189 H 1.00648 0.78107 0.45389 0.0
O190 O 0.07587 0.8441 0.42437 0.0
O191 O 0.06965 0.81866 0.45577 0.0
O192 O 0.03693 0.77423 0.42427 0.0
C193 C 0.0805 0.84055 0.44762 0.0
H194 H 0.1247 0.79403 0.41508 0.0
H195 H 0.99802 0.83967 0.43667 0.0
H196 H 0.99987 0.77446 0.34684 0.0
H197 H 0.05944 0.84482 0.33439 0.0
Co198 Co 0.76658 0.809 0.92002 0.0
C199 C 0.73221 0.81647 0.89169 0.0
C200 C 0.71405 0.78618 0.91641 0.0
C201 C 0.69742 0.78892 0.90255 0.0
N202 N 0.73579 0.80344 0.90934 0.0
N203 N 0.70897 0.80803 0.88705 0.0
H204 H 0.74651 0.83135 0.88174 0.0
H205 H 0.71053 0.77245 0.93031 0.0
C206 C 0.76212 0.76141 0.91439 0.0
O207 O 0.78271 0.7725 0.90255 0.0
N208 N 0.79812 0.81572 0.9313 0.0
C209 C 0.81825 0.83703 0.92981 0.0
C210 C 0.8364 0.83582 0.94171 0.0
C211 C 0.80437 0.80218 0.94546 0.0
N212 N 0.82772 0.81387 0.95133 0.0
C213 C 0.79288 0.82595 0.87276 0.0
C214 C 0.76137 0.78786 0.84317 0.0
C215 C 0.78143 0.80645 0.83155 0.0
C216 C 0.79729 0.82572 0.84658 0.0
C217 C 0.7577 0.78879 0.86935 0.0
N218 N 0.77375 0.80729 0.88407 0.0
H219 H 0.80437 0.84162 0.88351 0.0
H220 H 0.74162 0.77469 0.87774 0.0
H221 H 0.81974 0.85299 0.92173 0.0
H222 H 0.7921 0.78453 0.9523 0.0
O223 O 0.77689 0.84222 0.92139 0.0
O224 O 0.76121 0.81747 0.9543 0.0
O225 O 0.75317 0.77336 0.92402 0.0
C226 C 0.76998 0.83893 0.94518 0.0
H227 H 0.67836 0.7777 0.90379 0.0
H228 H 0.85457 0.85011 0.94344 0.0
H229 H 0.74858 0.77271 0.83216 0.0
H230 H 0.81256 0.84081 0.83805 0.0
Co231 Co 0.20549 0.96145 0.91997 0.0
C232 C 0.19827 0.91962 0.89181 0.0
C233 C 0.22658 0.9302 0.91904 0.0
C234 C 0.22372 0.91051 0.90579 0.0
N235 N 0.21064 0.93583 0.91004 0.0
N236 N 0.20583 0.9039 0.88874 0.0
H237 H 0.18436 0.91978 0.88057 0.0
H238 H 0.23937 0.93971 0.93404 0.0
C239 C 0.25408 1.00364 0.91772 0.0
O240 O 0.24423 0.01393 0.90498 0.0
N241 N 0.19918 0.98678 0.93046 0.0
C242 C 0.17898 0.98731 0.92588 0.0
C243 C 0.18112 0.00791 0.93543 0.0
C244 C 0.21252 0.00645 0.94483 0.0
N245 N 0.20232 0.02008 0.94706 0.0
C246 C 0.19225 0.97265 0.87145 0.0
C247 C 0.23254 0.98087 0.84511 0.0
C248 C 0.21534 0.98402 0.83245 0.0
C249 C 0.1948 0.97943 0.84578 0.0
C250 C 0.22924 0.97406 0.87083 0.0
N251 N 0.20989 0.97135 0.88415 0.0
H252 H 0.17572 0.96779 0.88071 0.0
H253 H 0.24231 0.97095 0.88006 0.0
H254 H 0.1632 0.97345 0.91684 0.0
H255 H 0.22949 0.01105 0.95317 0.0
O256 O 0.17207 0.93985 0.91863 0.0
O257 O 0.19401 0.94647 0.95353 0.0
O258 O 0.24107 0.98256 0.92659 0.0
C259 C 0.17312 0.93524 0.94266 0.0
H260 H 0.23388 0.90166 0.90867 0.0
H261 H 0.16793 0.01338 0.93427 0.0
H262 H 0.24822 0.98328 0.83515 0.0
H263 H 0.18079 0.98107 0.8365 0.0
Co264 Co 0.05507 0.24736 0.92251 0.0
C265 C 0.09763 0.28296 0.89659 0.0
C266 C 0.08436 0.30007 0.92138 0.0
C267 C 0.10403 0.31726 0.90835 0.0
N268 N 0.08045 0.27865 0.91376 0.0
N269 N 0.11231 0.30635 0.89283 0.0
H270 H 0.0987 0.2691 0.88627 0.0
H271 H 0.07351 0.303 0.935 0.0
C272 C 0.01146 0.25153 0.91853 0.0
O273 O 1.0019 0.23129 0.90601 0.0
N274 N 0.03 0.21528 0.93143 0.0
C275 C 0.02911 0.19481 0.92462 0.0
C276 C 1.00854 0.17598 0.93375 0.0
C277 C 0.01055 0.20836 0.94639 0.0
N278 N 0.99673 0.18448 0.94716 0.0
C279 C 0.05059 0.22593 0.8729 0.0
C280 C 0.03697 0.25411 0.84684 0.0
C281 C 0.03804 0.23597 0.83347 0.0
C282 C 0.04571 0.22227 0.84671 0.0
C283 C 0.04265 0.25753 0.87282 0.0
N284 N 0.04747 0.2423 0.88606 0.0
H285 H 0.05784 0.21624 0.8822 0.0
H286 H 0.04319 0.27257 0.88223 0.0
H287 H 0.0427 0.19329 0.91445 0.0
H288 H 1.00617 0.22045 0.95593 0.0
O289 O 0.07791 0.2369 0.92351 0.0
O290 O 0.06777 0.25086 0.95715 0.0
O291 O 0.0326 0.26044 0.9275 0.0
C292 C 0.08082 0.24263 0.94765 0.0
H293 H 0.11155 0.33625 0.91012 0.0
H294 H 1.00285 0.1574 0.93106 0.0
H295 H 0.03162 0.26558 0.83756 0.0
H296 H 0.04839 0.20911 0.83691 0.0
Co297 Co 0.81297 0.76494 0.56082 0.0
C298 C 0.81966 0.73108 0.59154 0.0
C299 C 0.79213 0.71283 0.56357 0.0
C300 C 0.79496 0.69631 0.57745 0.0
N301 N 0.80759 0.73454 0.57261 0.0
N302 N 0.81225 0.70789 0.59507 0.0
H303 H 0.83381 0.74541 0.60227 0.0
H304 H 0.77978 0.70928 0.548 0.0
C305 C 0.76417 0.75786 0.56465 0.0
O306 O 0.77381 0.77825 0.57688 0.0
N307 N 0.81936 0.79605 0.54825 0.0
C308 C 0.8408 0.81614 0.5486 0.0
C309 C 0.83928 0.83402 0.53655 0.0
C310 C 0.80531 0.80211 0.53474 0.0
N311 N 0.81696 0.82527 0.52803 0.0
C312 C 0.82679 0.79323 0.60681 0.0
C313 C 0.78878 0.7615 0.63635 0.0
C314 C 0.80558 0.7832 0.64705 0.0
C315 C 0.82498 0.79902 0.63214 0.0
C316 C 0.79132 0.7564 0.61099 0.0
N317 N 0.80957 0.77265 0.59611 0.0
H318 H 0.84235 0.80515 0.59612 0.0
H319 H 0.77841 0.73938 0.60318 0.0
H320 H 0.85693 0.81786 0.55653 0.0
H321 H 0.78733 0.78986 0.52888 0.0
O322 O 0.84626 0.77617 0.56188 0.0
O323 O 0.82366 0.75938 0.52773 0.0
O324 O 0.77739 0.75046 0.55476 0.0
C325 C 0.84468 0.76906 0.53832 0.0
H326 H 0.78491 0.67727 0.57489 0.0
H327 H 0.85353 0.85213 0.53413 0.0
H328 H 0.77396 0.74844 0.64757 0.0
H329 H 0.8386 0.81579 0.63991 0.0
Co330 Co 0.25206 0.05146 0.55961 0.0
C331 C 0.28668 0.09338 0.58716 0.0
C332 C 0.30465 0.08239 0.5607 0.0
C333 C 0.32139 0.10187 0.57436 0.0
N334 N 0.28297 0.07716 0.56899 0.0
N335 N 0.30992 0.10853 0.59112 0.0
H336 H 0.27246 0.09379 0.59752 0.0
H337 H 0.30806 0.07252 0.54623 0.0
C338 C 0.25722 0.00867 0.5649 0.0
O339 O 0.23704 0.99927 0.57756 0.0
N340 N 0.22032 0.02609 0.54982 0.0
C341 C 0.19963 0.02562 0.55445 0.0
C342 C 0.18113 1.00482 0.5453 0.0
C343 C 0.21394 1.00618 0.53589 0.0
N344 N 0.19011 0.99249 0.53389 0.0
C345 C 0.22819 0.0437 0.60846 0.0
C346 C 0.26008 0.03601 0.63591 0.0
C347 C 0.24048 0.03464 0.64857 0.0
C348 C 0.22456 0.03886 0.63467 0.0
C349 C 0.26295 0.0408 0.60972 0.0
N350 N 0.24645 0.04336 0.59594 0.0
H351 H 0.21684 0.04868 0.59866 0.0
H352 H 0.27869 0.04268 0.60054 0.0
H353 H 0.19781 0.03969 0.56307 0.0
H354 H 0.22632 1.00149 0.52772 0.0
O355 O 0.24109 0.0739 0.55848 0.0
O356 O 0.25605 0.06456 0.52511 0.0
O357 O 0.26582 0.02949 0.55512 0.0
C358 C 0.24735 0.07724 0.53447 0.0
H359 H 0.34046 0.11001 0.57262 0.0
H360 H 0.16247 0.99937 0.54646 0.0
H361 H 0.27303 0.03326 0.64607 0.0
H362 H 0.20978 0.03902 0.6441 0.0
Co363 Co 0.96699 0.20348 0.56152 0.0
C364 C 0.92552 0.19686 0.58987 0.0
C365 C 0.93601 0.22509 0.56257 0.0
C366 C 0.91663 0.22256 0.57629 0.0
N367 N 0.94148 0.20895 0.57131 0.0
N368 N 0.91023 0.20487 0.59357 0.0
H369 H 0.92524 0.18245 0.60053 0.0
H370 H 0.94557 0.23792 0.54762 0.0
C371 C 0.01016 0.25142 0.5646 0.0
O372 O 0.02015 0.24087 0.57658 0.0
N373 N 0.99221 0.19694 0.55148 0.0
C374 C 0.99372 0.17765 0.55804 0.0
C375 C 0.01423 0.17972 0.54816 0.0
C376 C 0.01119 0.2096 0.53592 0.0
N377 N 0.02536 0.19993 0.53452 0.0
C378 C 0.9734 0.18735 0.61087 0.0
C379 C 0.98605 0.22903 0.63678 0.0
C380 C 0.98562 0.21016 0.6502 0.0
C381 C 0.97857 0.18887 0.63702 0.0
C382 C 0.98012 0.22647 0.61089 0.0
N383 N 0.97564 0.20648 0.5977 0.0
H384 H 0.96649 0.17041 0.60166 0.0
H385 H 0.97895 0.24065 0.60153 0.0
H386 H 0.9806 0.16251 0.56855 0.0
H387 H 0.015 0.22591 0.52642 0.0
O388 O 0.94451 0.1701 0.56101 0.0
O389 O 0.9534 0.19395 0.52731 0.0
O390 O 0.98886 0.23904 0.55613 0.0
C391 C 0.94085 0.17272 0.53704 0.0
H392 H 0.90829 0.23327 0.57412 0.0
H393 H 0.02036 0.16713 0.55054 0.0
H394 H 0.99095 0.24576 0.64602 0.0
H395 H 0.97649 0.1733 0.64687 0.0
Co396 Co 0.91694 0.5351 0.39379 0.0
C397 C 0.95144 0.52807 0.42232 0.0
C398 C 0.96934 0.55615 0.39487 0.0
C399 C 0.98609 0.55339 0.40846 0.0
N400 N 0.94771 0.54028 0.40382 0.0
N401 N 0.97469 0.53581 0.42582 0.0
H402 H 0.93726 0.51379 0.43308 0.0
H403 H 0.9727 0.5689 0.37981 0.0
C404 C 0.9244 0.58431 0.39897 0.0
O405 O 0.90448 0.57507 0.4121 0.0
N406 N 0.88537 0.52885 0.38333 0.0
C407 C 0.86494 0.50797 0.38607 0.0
C408 C 0.84629 0.51025 0.37742 0.0
C409 C 0.87875 0.54305 0.37113 0.0
N410 N 0.85494 0.53236 0.36825 0.0
C411 C 0.8914 0.51951 0.44165 0.0
C412 C 0.92376 0.55785 0.47032 0.0
C413 C 0.90347 0.5399 0.48232 0.0
C414 C 0.88725 0.52046 0.46777 0.0
C415 C 0.92715 0.55623 0.44418 0.0
N416 N 0.91058 0.53772 0.42984 0.0
H417 H 0.87963 0.50365 0.43134 0.0
H418 H 0.94336 0.56983 0.43549 0.0
H419 H 0.86341 0.49177 0.39346 0.0
H420 H 0.89088 0.56083 0.36456 0.0
O421 O 0.906 0.5017 0.39302 0.0
O422 O 0.92158 0.52587 0.35967 0.0
O423 O 0.93118 0.57071 0.38881 0.0
C424 C 0.91285 0.50456 0.3692 0.0
H425 H 1.00514 0.56384 0.40612 0.0
H426 H 0.82778 0.49657 0.37745 0.0
H427 H 0.9369 0.57305 0.481 0.0
H428 H 0.87185 0.50577 0.47664 0.0
Co429 Co 0.47999 0.38339 0.39606 0.0
C430 C 0.48827 0.42581 0.42396 0.0
C431 C 0.45831 0.41404 0.39879 0.0
C432 C 0.46126 0.43362 0.41232 0.0
N433 N 0.4752 0.40918 0.40636 0.0
N434 N 0.48015 0.44095 0.42811 0.0
H435 H 0.50291 0.42617 0.43422 0.0
H436 H 0.44466 0.40391 0.38478 0.0
C437 C 0.43156 0.34158 0.40349 0.0
O438 O 0.44223 0.33151 0.41505 0.0
N439 N 0.48566 0.35784 0.38504 0.0
C440 C 0.50624 0.35759 0.38742 0.0
C441 C 0.50343 0.33677 0.37763 0.0
C442 C 0.47122 0.33773 0.37185 0.0
N443 N 0.48137 0.32421 0.36805 0.0
C444 C 0.49655 0.37333 0.44325 0.0
C445 C 0.45822 0.36617 0.47277 0.0
C446 C 0.4757 0.36239 0.48371 0.0
C447 C 0.49539 0.36669 0.46889 0.0
C448 C 0.46015 0.37288 0.44713 0.0
N449 N 0.47836 0.37486 0.43217 0.0
H450 H 0.51234 0.37769 0.43264 0.0
H451 H 0.44672 0.37616 0.43917 0.0
H452 H 0.52264 0.3718 0.395 0.0
H453 H 0.4536 0.33285 0.36529 0.0
O454 O 0.51337 0.40553 0.39446 0.0
O455 O 0.48867 0.39697 0.36162 0.0
O456 O 0.44406 0.36187 0.3926 0.0
C457 C 0.5102 0.40933 0.37072 0.0
H458 H 0.45033 0.44177 0.41067 0.0
H459 H 0.51677 0.33147 0.37707 0.0
H460 H 0.44324 0.36408 0.48396 0.0
H461 H 0.50965 0.36468 0.4769 0.0
Co462 Co 0.63122 0.09964 0.39529 0.0
C463 C 0.58977 0.06493 0.42374 0.0
C464 C 0.60071 0.04721 0.39686 0.0
C465 C 0.58122 0.03036 0.41037 0.0
N466 N 0.60598 0.06879 0.40549 0.0
N467 N 0.5744 0.04165 0.42719 0.0
H468 H 0.58971 0.07901 0.43476 0.0
H469 H 0.61035 0.04395 0.38198 0.0
C470 C 0.67387 0.09404 0.39764 0.0
O471 O 0.68408 0.11449 0.40979 0.0
N472 N 0.65605 0.13137 0.38452 0.0
C473 C 0.65507 0.15153 0.38753 0.0
C474 C 0.67412 0.16996 0.37569 0.0
C475 C 0.67544 0.13799 0.3695 0.0
N476 N 0.68701 0.16152 0.36453 0.0
C477 C 0.64275 0.12475 0.4434 0.0
C478 C 0.65015 0.09246 0.47038 0.0
C479 C 0.65296 0.11272 0.48292 0.0
C480 C 0.64898 0.12888 0.46924 0.0
C481 C 0.64395 0.08906 0.44451 0.0
N482 N 0.6413 0.10561 0.43099 0.0
H483 H 0.63824 0.13654 0.43383 0.0
H484 H 0.64111 0.07294 0.43537 0.0
H485 H 0.64094 0.15294 0.39669 0.0
H486 H 0.68062 0.12591 0.36153 0.0
O487 O 0.6091 0.11086 0.39651 0.0
O488 O 0.61614 0.09563 0.36175 0.0
O489 O 0.65274 0.08566 0.3888 0.0
C490 C 0.60472 0.10517 0.37246 0.0
H491 H 0.57268 0.01134 0.40785 0.0
H492 H 0.6781 0.18822 0.37514 0.0
H493 H 0.65276 0.07936 0.48042 0.0
H494 H 0.64998 0.14423 0.4786 0.0
Co495 Co 0.8722 0.57914 0.75438 0.0
C496 C 0.8664 0.61419 0.72529 0.0
C497 C 0.89424 0.63156 0.75311 0.0
C498 C 0.89202 0.64859 0.73946 0.0
N499 N 0.87818 0.61009 0.744 0.0
N500 N 0.87457 0.63754 0.72188 0.0
H501 H 0.85204 0.60021 0.71443 0.0
H502 H 0.90672 0.63462 0.76839 0.0
C503 C 0.92022 0.58404 0.75031 0.0
O504 O 0.90972 0.56362 0.7381 0.0
N505 N 0.8652 0.54744 0.76535 0.0
C506 C 0.84452 0.52699 0.76173 0.0
C507 C 0.84642 0.50839 0.77134 0.0
C508 C 0.87867 0.54091 0.77919 0.0
N509 N 0.868 0.51712 0.78205 0.0
C510 C 0.85664 0.55356 0.70651 0.0
C511 C 0.89665 0.58397 0.67875 0.0
C512 C 0.8788 0.56354 0.66687 0.0
C513 C 0.85835 0.54848 0.68086 0.0
C514 C 0.89418 0.58835 0.70441 0.0
N515 N 0.87498 0.57249 0.71846 0.0
H516 H 0.84026 0.54255 0.71638 0.0
H517 H 0.90782 0.60457 0.71302 0.0
H518 H 0.82866 0.52541 0.75329 0.0
H519 H 0.89606 0.55312 0.78672 0.0
O520 O 0.83894 0.56876 0.75464 0.0
O521 O 0.86276 0.58402 0.78833 0.0
O522 O 0.90777 0.59261 0.75954 0.0
C523 C 0.84155 0.57538 0.77851 0.0
H524 H 0.90271 0.6676 0.74197 0.0
H525 H 0.83285 0.48985 0.77083 0.0
H526 H 0.91227 0.59664 0.66825 0.0
H527 H 0.84383 0.53285 0.67215 0.0
Co528 Co 0.43411 0.2941 0.75561 0.0
C529 C 0.39997 0.2539 0.7252 0.0
C530 C 0.38162 0.26416 0.75201 0.0
C531 C 0.36508 0.24521 0.73758 0.0
N532 N 0.40342 0.26952 0.744 0.0
N533 N 0.37677 0.23897 0.72065 0.0
H534 H 0.41433 0.25355 0.71507 0.0
H535 H 0.37802 0.27342 0.76704 0.0
C536 C 0.42976 0.33747 0.7512 0.0
O537 O 0.45049 0.34733 0.73962 0.0
N538 N 0.46559 0.31824 0.76778 0.0
C539 C 0.48541 0.31642 0.76677 0.0
C540 C 0.50366 0.33547 0.7789 0.0
C541 C 0.47212 0.33812 0.78187 0.0
N542 N 0.49537 0.3492 0.78818 0.0
C543 C 0.46147 0.30489 0.70893 0.0
C544 C 0.43048 0.31215 0.67918 0.0
C545 C 0.45074 0.31383 0.66779 0.0
C546 C 0.46638 0.31017 0.68292 0.0
C547 C 0.42632 0.30696 0.70521 0.0
N548 N 0.44206 0.30406 0.72001 0.0
H549 H 0.4728 0.3005 0.71972 0.0
H550 H 0.41009 0.3048 0.71338 0.0
H551 H 0.48663 0.30181 0.75862 0.0
H552 H 0.46014 0.34404 0.7883 0.0
O553 O 0.44399 0.2708 0.75623 0.0
O554 O 0.42799 0.27924 0.78936 0.0
O555 O 0.42085 0.3164 0.76031 0.0
C556 C 0.43669 0.2666 0.77988 0.0
H557 H 0.34599 0.237 0.73914 0.0
H558 H 0.52169 0.33893 0.78086 0.0
H559 H 0.41786 0.31471 0.66806 0.0
H560 H 0.48183 0.31057 0.67454 0.0
Co561 Co 0.72194 0.14315 0.75541 0.0
C562 C 0.7631 0.15004 0.72602 0.0
C563 C 0.75328 0.12204 0.75349 0.0
C564 C 0.77266 0.12481 0.73959 0.0
N565 N 0.74737 0.13786 0.74477 0.0
N566 N 0.77866 0.14237 0.72223 0.0
H567 H 0.76306 0.16431 0.7154 0.0
H568 H 0.74409 0.10932 0.76865 0.0
C569 C 0.67926 0.09487 0.75182 0.0
O570 O 0.66912 0.10523 0.73978 0.0
N571 N 0.69686 0.14962 0.76652 0.0
C572 C 0.6966 0.17003 0.76255 0.0
C573 C 0.67609 0.16796 0.77237 0.0
C574 C 0.6771 0.13616 0.78076 0.0
N575 N 0.6637 0.14657 0.78356 0.0
C576 C 0.71125 0.1579 0.70734 0.0
C577 C 0.7025 0.11783 0.68018 0.0
C578 C 0.69951 0.1353 0.66798 0.0
C579 C 0.70446 0.15579 0.68165 0.0
C580 C 0.70934 0.1207 0.70582 0.0
N581 N 0.71227 0.1399 0.71958 0.0
H582 H 0.71631 0.17431 0.71697 0.0
H583 H 0.71229 0.10738 0.71464 0.0
H584 H 0.71061 0.18587 0.75376 0.0
H585 H 0.67229 0.11896 0.7886 0.0
O586 O 0.74432 0.17655 0.75543 0.0
O587 O 0.7364 0.15298 0.78925 0.0
O588 O 0.70036 0.10749 0.76083 0.0
C589 C 0.7486 0.17416 0.77927 0.0
H590 H 0.78132 0.11441 0.74178 0.0
H591 H 0.67082 0.18131 0.77169 0.0
H592 H 0.69992 0.10223 0.66991 0.0
H593 H 0.70304 0.17003 0.67264 0.0
Co594 Co 0.43415 0.14293 0.25457 0.0
C595 C 0.39862 0.14882 0.22696 0.0
C596 C 0.38145 0.11864 0.25198 0.0
C597 C 0.36429 0.12084 0.23852 0.0
N598 N 0.40289 0.13621 0.24448 0.0
N599 N 0.37524 0.13991 0.22288 0.0
H600 H 0.41253 0.16384 0.21679 0.0
H601 H 0.3785 0.10514 0.26596 0.0
C602 C 0.4313 0.09583 0.25036 0.0
O603 O 0.45182 0.10702 0.23839 0.0
N604 N 0.46613 0.15075 0.26509 0.0
C605 C 0.48615 0.17189 0.26179 0.0
C606 C 0.50482 0.17133 0.27332 0.0
C607 C 0.47296 0.1381 0.27992 0.0
N608 N 0.49654 0.15 0.28444 0.0
C609 C 0.45845 0.16007 0.20617 0.0
C610 C 0.42962 0.11923 0.1788 0.0
C611 C 0.44854 0.13828 0.1661 0.0
C612 C 0.46277 0.15911 0.18005 0.0
C613 C 0.42558 0.12122 0.20466 0.0
N614 N 0.44077 0.14086 0.21849 0.0
H615 H 0.46879 0.17658 0.2161 0.0
H616 H 0.4101 0.10679 0.21356 0.0
H617 H 0.48726 0.18729 0.25265 0.0
H618 H 0.46098 0.12083 0.28792 0.0
O619 O 0.44356 0.17599 0.25562 0.0
O620 O 0.42903 0.15148 0.28887 0.0
O621 O 0.42183 0.10756 0.2593 0.0
C622 C 0.43706 0.17277 0.27956 0.0
H623 H 0.34529 0.10934 0.2402 0.0
H624 H 0.5231 0.18557 0.27359 0.0
H625 H 0.41795 0.10274 0.16907 0.0
H626 H 0.47683 0.17475 0.17085 0.0
Co627 Co 0.87138 0.29461 0.2525 0.0
C628 C 0.85966 0.24946 0.22539 0.0
C629 C 0.8819 0.25572 0.25817 0.0
C630 C 0.87737 0.23467 0.24685 0.0
N631 N 0.87126 0.26532 0.2443 0.0
N632 N 0.86329 0.23083 0.2263 0.0
H633 H 0.84878 0.25115 0.21104 0.0
H634 H 0.89242 0.26361 0.27525 0.0
C635 C 0.92163 0.30877 0.24265 0.0
O636 O 0.91318 0.29371 0.22341 0.0
N637 N 0.87058 0.32315 0.26085 0.0
C638 C 0.85511 0.32871 0.25017 0.0
C639 C 0.86069 0.35102 0.25786 0.0
C640 C 0.88534 0.34217 0.27527 0.0
N641 N 0.87967 0.35952 0.27353 0.0
C642 C 0.85636 0.29292 0.20029 0.0
C643 C 0.89651 0.33344 0.18395 0.0
C644 C 0.87859 0.32003 0.16626 0.0
C645 C 0.85807 0.29984 0.17472 0.0
C646 C 0.89414 0.32567 0.20926 0.0
N647 N 0.87503 0.30461 0.21673 0.0
H648 H 0.8397 0.27843 0.2069 0.0
H649 H 0.9075 0.337 0.2229 0.0
H650 H 0.84102 0.31746 0.23709 0.0
H651 H 0.9002 0.34358 0.2861 0.0
O652 O 0.83743 0.27716 0.25378 0.0
O653 O 0.86073 0.28216 0.28708 0.0
O654 O 0.90732 0.31167 0.25724 0.0
C655 C 0.8393 0.27301 0.27777 0.0
H656 H 0.8837 0.22303 0.25336 0.0
H657 H 0.85144 0.36032 0.25244 0.0
H658 H 0.91228 0.34969 0.17826 0.0
H659 H 0.8433 0.28978 0.16182 0.0
Co660 Co 0.7201 0.58051 0.25706 0.0
C661 C 0.76335 0.61672 0.23266 0.0
C662 C 0.74959 0.63321 0.2577 0.0
C663 C 0.76968 0.65071 0.24553 0.0
N664 N 0.74574 0.61198 0.2494 0.0
N665 N 0.77826 0.64018 0.22987 0.0
H666 H 0.76464 0.60312 0.222 0.0
H667 H 0.73848 0.6358 0.27125 0.0
C668 C 0.67672 0.58485 0.25288 0.0
O669 O 0.66741 0.56484 0.23993 0.0
N670 N 0.6947 0.54829 0.26498 0.0
C671 C 0.69333 0.52784 0.25719 0.0
C672 C 0.6726 0.50899 0.26605 0.0
C673 C 0.67536 0.54128 0.28015 0.0
N674 N 0.66115 0.51743 0.28022 0.0
C675 C 0.71667 0.56068 0.20673 0.0
C676 C 0.70389 0.58989 0.18143 0.0
C677 C 0.70542 0.5723 0.16742 0.0
C678 C 0.71264 0.55807 0.18032 0.0
C679 C 0.70875 0.59228 0.20762 0.0
N680 N 0.71317 0.57655 0.22041 0.0
H681 H 0.72366 0.55064 0.21578 0.0
H682 H 0.70907 0.607 0.21754 0.0
H683 H 0.70668 0.52629 0.24654 0.0
H684 H 0.67135 0.55335 0.29033 0.0
O685 O 0.74276 0.56985 0.25783 0.0
O686 O 0.73227 0.58305 0.29185 0.0
O687 O 0.69769 0.5936 0.26226 0.0
C688 C 0.74546 0.57509 0.28209 0.0
H689 H 0.77729 0.66965 0.24801 0.0
H690 H 0.66659 0.49042 0.26267 0.0
H691 H 0.69887 0.60174 0.17247 0.0
H692 H 0.71565 0.54531 0.17012 0.0
Co693 Co 0.47972 0.09829 0.89389 0.0
C694 C 0.48653 0.06354 0.92195 0.0
C695 C 0.4586 0.04588 0.8943 0.0
C696 C 0.46126 0.02902 0.90779 0.0
N697 N 0.47447 0.06743 0.90342 0.0
N698 N 0.47875 0.04027 0.92527 0.0
H699 H 0.50079 0.07762 0.93283 0.0
H700 H 0.44589 0.04266 0.87922 0.0
C701 C 0.43137 0.09281 0.8975 0.0
O702 O 0.4417 0.1133 0.90958 0.0
N703 N 0.48594 0.12991 0.88404 0.0
C704 C 0.50524 0.1508 0.89028 0.0
C705 C 0.50282 0.16907 0.88054 0.0
C706 C 0.47291 0.13597 0.86879 0.0
N707 N 0.48237 0.15975 0.86729 0.0
C708 C 0.49604 0.121 0.94311 0.0
C709 C 0.45467 0.09202 0.96953 0.0
C710 C 0.47358 0.11068 0.98271 0.0
C711 C 0.49473 0.12485 0.96926 0.0
C712 C 0.45704 0.08844 0.9436 0.0
N713 N 0.47686 0.10393 0.93016 0.0
H714 H 0.51289 0.13108 0.93371 0.0
H715 H 0.44284 0.07299 0.93441 0.0
H716 H 0.5206 0.15299 0.90051 0.0
H717 H 0.4565 0.12334 0.85956 0.0
O718 O 0.51318 0.10942 0.89324 0.0
O719 O 0.48937 0.09446 0.85955 0.0
O720 O 0.44402 0.08429 0.88872 0.0
C721 C 0.51065 0.10326 0.86924 0.0
H722 H 0.45079 0.00999 0.9053 0.0
H723 H 0.51533 0.18782 0.88273 0.0
H724 H 0.43803 0.08022 0.97895 0.0
H725 H 0.51037 0.13849 0.97887 0.0
Co726 Co 0.91927 0.38458 0.89313 0.0
C727 C 0.95434 0.42673 0.92025 0.0
C728 C 0.9719 0.41446 0.89478 0.0
C729 C 0.98886 0.43416 0.90794 0.0
N730 N 0.95033 0.4099 0.90273 0.0
N731 N 0.97768 0.44182 0.92389 0.0
H732 H 0.9403 0.42738 0.93072 0.0
H733 H 0.97507 0.40415 0.88068 0.0
C734 C 0.92403 0.34139 0.89747 0.0
O735 O 0.9037 0.33171 0.90986 0.0
N736 N 0.88742 0.35955 0.88315 0.0
C737 C 0.86685 0.35922 0.88811 0.0
C738 C 0.8482 0.33866 0.87872 0.0
C739 C 0.88082 0.33979 0.86883 0.0
N740 N 0.85696 0.32633 0.86686 0.0
C741 C 0.89561 0.37737 0.94183 0.0
C742 C 0.92535 0.36639 0.96897 0.0
C743 C 0.90598 0.36567 0.98143 0.0
C744 C 0.89134 0.37183 0.96784 0.0
C745 C 0.92915 0.37236 0.94306 0.0
N746 N 0.91342 0.37616 0.92933 0.0
H747 H 0.88506 0.38341 0.93215 0.0
H748 H 0.94486 0.374 0.93406 0.0
H749 H 0.86519 0.37323 0.89715 0.0
H750 H 0.89306 0.33501 0.86043 0.0
O751 O 0.90869 0.40729 0.89246 0.0
O752 O 0.92342 0.39804 0.85878 0.0
O753 O 0.93271 0.36239 0.88819 0.0
C754 C 0.9149 0.41077 0.86846 0.0
H755 H 1.00789 0.44222 0.90583 0.0
H756 H 0.82959 0.33334 0.88011 0.0
H757 H 0.93766 0.36275 0.97926 0.0
H758 H 0.87667 0.37227 0.97717 0.0
Co759 Co 0.63223 0.53548 0.89577 0.0
C760 C 0.58979 0.52822 0.92255 0.0
C761 C 0.60052 0.55611 0.89477 0.0
C762 C 0.58055 0.55323 0.90748 0.0
N763 N 0.6062 0.54042 0.90443 0.0
N764 N 0.57385 0.53559 0.92488 0.0
H765 H 0.58995 0.51455 0.93424 0.0
H766 H 0.6102 0.56877 0.87971 0.0
C767 C 0.67452 0.58413 0.89602 0.0
O768 O 0.68517 0.57474 0.90893 0.0
N769 N 0.65801 0.52944 0.88687 0.0
C770 C 0.66022 0.5109 0.89494 0.0
C771 C 0.68082 0.51299 0.88537 0.0
C772 C 0.67666 0.54157 0.87075 0.0
N773 N 0.69132 0.53243 0.87045 0.0
C774 C 0.63992 0.52253 0.94619 0.0
C775 C 0.65306 0.56553 0.96932 0.0
C776 C 0.65385 0.54773 0.98372 0.0
C777 C 0.64629 0.52569 0.97202 0.0
C778 C 0.64586 0.56129 0.94375 0.0
N779 N 0.64139 0.54074 0.93183 0.0
H780 H 0.63289 0.50509 0.93818 0.0
H781 H 0.644 0.5747 0.93354 0.0
H782 H 0.64752 0.49619 0.90631 0.0
H783 H 0.67991 0.55717 0.86008 0.0
O784 O 0.61095 0.50196 0.89745 0.0
O785 O 0.61808 0.52342 0.86206 0.0
O786 O 0.65312 0.57085 0.88814 0.0
C787 C 0.60684 0.50268 0.87319 0.0
H788 H 0.57161 0.5632 0.90401 0.0
H789 H 0.68744 0.50093 0.88886 0.0
H790 H 0.65809 0.5827 0.97748 0.0
H791 H 0.64487 0.51079 0.98276 0.0
Co792 Co 0.58566 0.8701 0.72509 0.0
C793 C 0.62132 0.86288 0.75049 0.0
C794 C 0.63843 0.89333 0.72587 0.0
C795 C 0.65563 0.89072 0.73874 0.0
N796 N 0.61699 0.87583 0.73347 0.0
N797 N 0.64471 0.87148 0.75416 0.0
H798 H 0.60745 0.84795 0.76082 0.0
H799 H 0.64138 0.90719 0.71239 0.0
C800 C 0.59 0.91791 0.72882 0.0
O801 O 0.56982 0.90728 0.74148 0.0
N802 N 0.55351 0.86323 0.71659 0.0
C803 C 0.53307 0.84395 0.72403 0.0
C804 C 0.51418 0.84563 0.71495 0.0
C805 C 0.54649 0.87552 0.70138 0.0
N806 N 0.52259 0.86561 0.70097 0.0
C807 C 0.56512 0.85367 0.77517 0.0
C808 C 0.59399 0.89561 0.80067 0.0
C809 C 0.57636 0.87644 0.81455 0.0
C810 C 0.56225 0.85503 0.80153 0.0
C811 C 0.59666 0.89321 0.77453 0.0
N812 N 0.58114 0.87305 0.76162 0.0
H813 H 0.55523 0.83666 0.76606 0.0
H814 H 0.61148 0.90763 0.76478 0.0
H815 H 0.53157 0.82905 0.73458 0.0
H816 H 0.55853 0.89172 0.6914 0.0
O817 O 0.57499 0.83677 0.72436 0.0
O818 O 0.58869 0.86048 0.69044 0.0
O819 O 0.59886 0.90564 0.71982 0.0
C820 C 0.5805 0.83931 0.70017 0.0
H821 H 0.67462 0.90216 0.73697 0.0
H822 H 0.4956 0.83291 0.71806 0.0
H823 H 0.60572 0.91246 0.80973 0.0
H824 H 0.54945 0.83922 0.81164 0.0
Co825 Co 0.14496 0.71849 0.72509 0.0
C826 C 0.15116 0.75955 0.75401 0.0
C827 C 0.1221 0.74817 0.72764 0.0
C828 C 0.12457 0.76754 0.74125 0.0
N829 N 0.13876 0.74323 0.73589 0.0
N830 N 0.14293 0.77465 0.75776 0.0
H831 H 0.1656 0.75989 0.76467 0.0
H832 H 0.10911 0.73841 0.71289 0.0
C833 C 0.09727 0.67512 0.72869 0.0
O834 O 0.10802 0.66529 0.74057 0.0
N835 N 0.15234 0.69418 0.71364 0.0
C836 C 0.17377 0.69563 0.7155 0.0
C837 C 0.17306 0.67658 0.7034 0.0
C838 C 0.13927 0.6746 0.69905 0.0
N839 N 0.15131 0.66327 0.69331 0.0
C840 C 0.15982 0.70686 0.77253 0.0
C841 C 0.12009 0.69832 0.80033 0.0
C842 C 0.13749 0.69494 0.81211 0.0
C843 C 0.15778 0.69972 0.79811 0.0
C844 C 0.12287 0.70551 0.77481 0.0
N845 N 0.14199 0.70855 0.76079 0.0
H846 H 0.17597 0.71145 0.7625 0.0
H847 H 0.10947 0.70851 0.76624 0.0
H848 H 0.18944 0.71001 0.72417 0.0
H849 H 0.12168 0.66907 0.69188 0.0
O850 O 0.1782 0.74159 0.72509 0.0
O851 O 0.15445 0.73318 0.69135 0.0
O852 O 0.10949 0.69624 0.71969 0.0
C853 C 0.17563 0.7457 0.70123 0.0
H854 H 0.11383 0.77584 0.73896 0.0
H855 H 0.18747 0.67283 0.70197 0.0
H856 H 0.10459 0.69575 0.81083 0.0
H857 H 0.1719 0.69786 0.80677 0.0
Co858 Co 0.29845 0.4325 0.7299 0.0
C859 C 0.25558 0.39814 0.75664 0.0
C860 C 0.26677 0.38016 0.73041 0.0
C861 C 0.24693 0.36345 0.74359 0.0
N862 N 0.27212 0.40182 0.73885 0.0
N863 N 0.23997 0.3749 0.76002 0.0
H864 H 0.25562 0.41228 0.76763 0.0
H865 H 0.27674 0.37673 0.71609 0.0
C866 C 0.34016 0.42539 0.73305 0.0
O867 O 0.35031 0.44528 0.74625 0.0
N868 N 0.32448 0.46411 0.72055 0.0
C869 C 0.32552 0.48495 0.72587 0.0
C870 C 0.34638 0.50332 0.71675 0.0
C871 C 0.34419 0.47035 0.70624 0.0
N872 N 0.35825 0.49416 0.70468 0.0
C873 C 0.30772 0.45548 0.77915 0.0
C874 C 0.31474 0.42252 0.80524 0.0
C875 C 0.31709 0.44232 0.81841 0.0
C876 C 0.31313 0.45872 0.80521 0.0
C877 C 0.30932 0.42001 0.77915 0.0
N878 N 0.30718 0.43707 0.76605 0.0
H879 H 0.30302 0.46729 0.76997 0.0
H880 H 0.30671 0.40418 0.76951 0.0
H881 H 0.31176 0.48704 0.73492 0.0
H882 H 0.34846 0.45789 0.69743 0.0
O883 O 0.27734 0.44495 0.73058 0.0
O884 O 0.2847 0.42989 0.69585 0.0
O885 O 0.31927 0.41765 0.72373 0.0
C886 C 0.27353 0.43979 0.70636 0.0
H887 H 0.23838 0.34441 0.74128 0.0
H888 H 0.35219 0.52202 0.71838 0.0
H889 H 0.31718 0.40916 0.81492 0.0
H890 H 0.31358 0.47361 0.81507 0.0
Co891 Co 0.54047 0.91396 0.08613 0.0
C892 C 0.53466 0.94845 0.05608 0.0
C893 C 0.56134 0.96624 0.085 0.0
C894 C 0.55889 0.98299 0.07106 0.0
N895 N 0.54613 0.94468 0.0754 0.0
N896 N 0.54216 0.97168 0.05282 0.0
H897 H 0.52087 0.9343 0.04482 0.0
H898 H 0.57331 0.96953 0.1009 0.0
C899 C 0.58869 0.91935 0.08538 0.0
O900 O 0.57869 0.89874 0.07356 0.0
N901 N 0.53367 0.88243 0.0973 0.0
C902 C 0.51316 0.86188 0.09322 0.0
C903 C 0.51403 0.8437 0.10547 0.0
C904 C 0.54621 0.87633 0.11329 0.0
N905 N 0.53489 0.85275 0.11781 0.0
C906 C 0.52671 0.88954 0.03763 0.0
C907 C 0.56827 0.91966 0.01205 0.0
C908 C 0.55028 0.90023 -0.0012 0.0
C909 C 0.52906 0.88538 0.01183 0.0
C910 C 0.56486 0.92354 0.03757 0.0
N911 N 0.5449 0.90774 0.05059 0.0
H912 H 0.50987 0.87864 0.04674 0.0
H913 H 0.57839 0.9394 0.04686 0.0
H914 H 0.4979 0.86003 0.08302 0.0
H915 H 0.56294 0.88878 0.12205 0.0
O916 O 0.5071 0.90264 0.08466 0.0
O917 O 0.52925 0.91827 0.1194 0.0
O918 O 0.57585 0.92801 0.09315 0.0
C919 C 0.50834 0.90864 0.10862 0.0
H920 H 0.56884 1.00199 0.07396 0.0
H921 H 0.50033 0.82519 0.10537 0.0
H922 H 0.58496 0.93187 0.00298 0.0
H923 H 0.5141 0.87095 0.00212 0.0
Co924 Co 0.1029 0.62991 0.08595 0.0
C925 C 0.06922 0.58744 0.05788 0.0
C926 C 0.05075 0.5977 0.08453 0.0
C927 C 0.03432 0.57787 0.07119 0.0
N928 N 0.07255 0.60364 0.07595 0.0
N929 N 0.04605 0.57147 0.05448 0.0
H930 H 0.08355 0.58784 0.0469 0.0
H931 H 0.04706 0.60717 0.09924 0.0
C932 C 0.09521 0.67125 0.08275 0.0
O933 O 0.11544 0.68182 0.07017 0.0
N934 N 0.13412 0.65594 0.09653 0.0
C935 C 0.15521 0.65719 0.09211 0.0
C936 C 0.17317 0.67797 0.10192 0.0
C937 C 0.13975 0.67541 0.11101 0.0
N938 N 0.16349 0.68954 0.11355 0.0
C939 C 0.12755 0.64059 0.03756 0.0
C940 C 0.09488 0.64716 0.01026 0.0
C941 C 0.11517 0.64998 -0.00226 0.0
C942 C 0.13148 0.64633 0.01159 0.0
C943 C 0.09168 0.64143 0.03628 0.0
N944 N 0.10852 0.6394 0.05 0.0
H945 H 0.13933 0.6361 0.04718 0.0
H946 H 0.07548 0.63843 0.04537 0.0
H947 H 0.15771 0.64365 0.08317 0.0
H948 H 0.12693 0.67947 0.11924 0.0
O949 O 0.11559 0.60901 0.08543 0.0
O950 O 0.09941 0.61545 0.11979 0.0
O951 O 0.08753 0.65031 0.09184 0.0
C952 C 0.10968 0.60458 0.10943 0.0
H953 H 0.01527 0.56884 0.07371 0.0
H954 H 0.19196 0.68394 0.101 0.0
H955 H 0.08159 0.64938 9e-05 0.0
H956 H 0.14678 0.64718 0.00227 0.0
Co957 Co 0.38825 0.47477 0.09002 0.0
C958 C 0.42856 0.48092 0.05933 0.0
C959 C 0.41925 0.45347 0.08739 0.0
C960 C 0.43842 0.45601 0.0733 0.0
N961 N 0.41313 0.46906 0.07841 0.0
N962 N 0.44424 0.47336 0.05571 0.0
H963 H 0.42796 0.49457 0.04804 0.0
H964 H 0.41052 0.44125 0.10308 0.0
C965 C 0.34572 0.42655 0.08981 0.0
O966 O 0.335 0.43645 0.07801 0.0
N967 N 0.3638 0.48173 0.10232 0.0
C968 C 0.36453 0.50279 0.09979 0.0
C969 C 0.3457 0.50202 0.11246 0.0
C970 C 0.34488 0.46889 0.11791 0.0
N971 N 0.33323 0.48064 0.12358 0.0
C972 C 0.37365 0.48675 0.04287 0.0
C973 C 0.36587 0.44674 0.01619 0.0
C974 C 0.36182 0.46352 0.00396 0.0
C975 C 0.36599 0.48383 0.01748 0.0
C976 C 0.37354 0.45037 0.04157 0.0
N977 N 0.37642 0.46972 0.05498 0.0
H978 H 0.37799 0.50305 0.05236 0.0
H979 H 0.37732 0.43761 0.05044 0.0
H980 H 0.37823 0.51828 0.09013 0.0
H981 H 0.34 0.45167 0.12574 0.0
O982 O 0.41011 0.50804 0.0875 0.0
O983 O 0.40492 0.4867 0.12264 0.0
O984 O 0.3672 0.43945 0.0976 0.0
C985 C 0.41575 0.50736 0.11125 0.0
H986 H 0.44754 0.44612 0.07609 0.0
H987 H 0.34145 0.5161 0.11345 0.0
H988 H 0.36368 0.43122 0.00607 0.0
H989 H 0.36348 0.49744 0.0085 0.0
Co990 Co 0.1017 0.4762 0.58812 0.0
C991 C 0.06698 0.48135 0.55766 0.0
C992 C 0.04934 0.45485 0.58678 0.0
C993 C 0.03248 0.45702 0.57271 0.0
N994 N 0.07087 0.47011 0.57713 0.0
N995 N 0.04371 0.47364 0.55434 0.0
H996 H 0.08108 0.49513 0.54632 0.0
H997 H 0.04613 0.44306 0.60282 0.0
C998 C 0.09654 0.42815 0.58745 0.0
O999 O 0.11705 0.43822 0.57541 0.0
N1000 N 0.13337 0.48354 0.59972 0.0
C1001 C 0.15354 0.50464 0.59667 0.0
C1002 C 0.17194 0.50408 0.60876 0.0
C1003 C 0.13989 0.47091 0.61505 0.0
N1004 N 0.1634 0.48281 0.62007 0.0
C1005 C 0.12744 0.48872 0.5403 0.0
C1006 C 0.09533 0.44842 0.51399 0.0
C1007 C 0.11564 0.46559 0.50131 0.0
C1008 C 0.13173 0.48604 0.51464 0.0
C1009 C 0.09172 0.45184 0.53961 0.0
N1010 N 0.10815 0.47135 0.55282 0.0
H1011 H 0.13928 0.50513 0.54965 0.0
H1012 H 0.07547 0.43882 0.54878 0.0
H1013 H 0.15499 0.52002 0.58709 0.0
H1014 H 0.12778 0.45372 0.62311 0.0
O1015 O 0.11264 0.50943 0.5859 0.0
O1016 O 0.09713 0.48784 0.62103 0.0
O1017 O 0.08792 0.44093 0.59557 0.0
C1018 C 0.10652 0.50854 0.60977 0.0
H1019 H 0.01348 0.44697 0.57561 0.0
H1020 H 0.19025 0.51825 0.6092 0.0
H1021 H 0.08202 0.43278 0.50405 0.0
H1022 H 0.14742 0.49994 0.50532 0.0
Co1023 Co 0.53911 0.62734 0.58896 0.0
C1024 C 0.53112 0.58402 0.56363 0.0
C1025 C 0.56123 0.59688 0.58873 0.0
C1026 C 0.55835 0.57687 0.57615 0.0
N1027 N 0.54418 0.6013 0.5806 0.0
N1028 N 0.53935 0.56887 0.56041 0.0
H1029 H 0.51644 0.58324 0.55302 0.0
H1030 H 0.57498 0.60762 0.6024 0.0
C1031 C 0.58752 0.66895 0.58163 0.0
O1032 O 0.57725 0.6783 0.56798 0.0
N1033 N 0.53303 0.65312 0.59787 0.0
C1034 C 0.51234 0.65296 0.5945 0.0
C1035 C 0.51475 0.67402 0.60293 0.0
C1036 C 0.54717 0.67385 0.61023 0.0
N1037 N 0.53669 0.68722 0.61263 0.0
C1038 C 0.5236 0.63588 0.5402 0.0
C1039 C 0.56237 0.64166 0.51247 0.0
C1040 C 0.54519 0.64507 0.50023 0.0
C1041 C 0.52528 0.64151 0.51418 0.0
C1042 C 0.55994 0.63599 0.53845 0.0
N1043 N 0.54149 0.63466 0.55244 0.0
H1044 H 0.50767 0.63208 0.55019 0.0
H1045 H 0.57322 0.63307 0.54747 0.0
H1046 H 0.49612 0.63832 0.58712 0.0
H1047 H 0.56475 0.67921 0.61732 0.0
O1048 O 0.50575 0.60511 0.59012 0.0
O1049 O 0.52991 0.61491 0.62369 0.0
O1050 O 0.57483 0.64913 0.59327 0.0
C1051 C 0.50859 0.60207 0.61422 0.0
H1052 H 0.56943 0.56894 0.57833 0.0
H1053 H 0.50118 0.67902 0.60258 0.0
H1054 H 0.57754 0.64327 0.50206 0.0
H1055 H 0.51126 0.64333 0.50519 0.0
Co1056 Co 0.3873 0.91295 0.58716 0.0
C1057 C 0.43002 0.94825 0.5611 0.0
C1058 C 0.41778 0.96543 0.58716 0.0
C1059 C 0.43771 0.98256 0.57447 0.0
N1060 N 0.41307 0.94401 0.57854 0.0
N1061 N 0.44534 0.97161 0.55817 0.0
H1062 H 0.4306 0.9344 0.55017 0.0
H1063 H 0.4074 0.96839 0.60137 0.0
C1064 C 0.34443 0.91847 0.58453 0.0
O1065 O 0.33422 0.8982 0.57203 0.0
N1066 N 0.36172 0.88118 0.59611 0.0
C1067 C 0.35948 0.86033 0.58844 0.0
C1068 C 0.33883 0.84201 0.59819 0.0
C1069 C 0.34304 0.87499 0.61207 0.0
N1070 N 0.32836 0.85124 0.61279 0.0
C1071 C 0.3819 0.89198 0.5371 0.0
C1072 C 0.36878 0.92099 0.51199 0.0
C1073 C 0.36955 0.90293 0.49808 0.0
C1074 C 0.37693 0.88877 0.51088 0.0
C1075 C 0.37458 0.92396 0.53797 0.0
N1076 N 0.37919 0.90836 0.55075 0.0
H1077 H 0.389 0.88197 0.54599 0.0
H1078 H 0.3755 0.93904 0.54771 0.0
H1079 H 0.37217 0.85815 0.57722 0.0
H1080 H 0.3398 0.88757 0.6223 0.0
O1081 O 0.40944 0.90158 0.58728 0.0
O1082 O 0.40047 0.91584 0.62151 0.0
O1083 O 0.36566 0.9269 0.59305 0.0
C1084 C 0.41294 0.90718 0.61143 0.0
H1085 H 0.44591 1.00154 0.5771 0.0
H1086 H 0.33215 0.82329 0.59505 0.0
H1087 H 0.36369 0.93281 0.50309 0.0
H1088 H 0.37942 0.87566 0.50071 0.0
Co1089 Co 0.14564 0.43178 0.22727 0.0
C1090 C 0.15129 0.39693 0.25725 0.0
C1091 C 0.12408 0.37948 0.2288 0.0
C1092 C 0.12588 0.3625 0.243 0.0
N1093 N 0.13997 0.40098 0.23797 0.0
N1094 N 0.14296 0.37356 0.26097 0.0
H1095 H 0.16534 0.41099 0.26834 0.0
H1096 H 0.1119 0.37635 0.21317 0.0
C1097 C 0.09643 0.42427 0.22829 0.0
O1098 O 0.10523 0.44448 0.24081 0.0
N1099 N 0.15237 0.46333 0.216 0.0
C1100 C 0.17352 0.48354 0.21847 0.0
C1101 C 0.17256 0.50185 0.20675 0.0
C1102 C 0.13916 0.46979 0.20153 0.0
N1103 N 0.15094 0.49327 0.19628 0.0
C1104 C 0.15762 0.45742 0.27497 0.0
C1105 C 0.11831 0.42422 0.30185 0.0
C1106 C 0.13532 0.44467 0.31447 0.0
C1107 C 0.1552 0.46137 0.30079 0.0
C1108 C 0.12142 0.42099 0.27601 0.0
N1109 N 0.14051 0.43785 0.2626 0.0
H1110 H 0.17376 0.46967 0.2654 0.0
H1111 H 0.10855 0.40468 0.26686 0.0
H1112 H 0.18918 0.48508 0.22748 0.0
H1113 H 0.12174 0.45765 0.19403 0.0
O1114 O 0.17898 0.44322 0.22968 0.0
O1115 O 0.15767 0.42769 0.19439 0.0
O1116 O 0.11041 0.41734 0.21952 0.0
C1117 C 0.17831 0.4372 0.2058 0.0
H1118 H 0.11509 0.34351 0.24053 0.0
H1119 H 0.18675 0.52013 0.20585 0.0
H1120 H 0.1028 0.41076 0.31185 0.0
H1121 H 0.16919 0.47696 0.31018 0.0
Co1122 Co 0.58436 0.71768 0.22881 0.0
C1123 C 0.61867 0.75848 0.2586 0.0
C1124 C 0.63655 0.74948 0.22984 0.0
C1125 C 0.65325 0.7689 0.24353 0.0
N1126 N 0.61497 0.74305 0.23951 0.0
N1127 N 0.64189 0.77439 0.26167 0.0
H1128 H 0.6045 0.7581 0.26987 0.0
H1129 H 0.63989 0.74072 0.21406 0.0
C1130 C 0.5904 0.67539 0.23079 0.0
O1131 O 0.56993 0.665 0.24292 0.0
N1132 N 0.55298 0.69267 0.21738 0.0
C1133 C 0.53241 0.69293 0.22008 0.0
C1134 C 0.51446 0.67362 0.2079 0.0
C1135 C 0.54716 0.67359 0.20218 0.0
N1136 N 0.52371 0.66137 0.19692 0.0
C1137 C 0.55859 0.70501 0.27659 0.0
C1138 C 0.59136 0.69842 0.30374 0.0
C1139 C 0.57087 0.69513 0.31619 0.0
C1140 C 0.55442 0.69864 0.30241 0.0
C1141 C 0.59479 0.70475 0.27793 0.0
N1142 N 0.57808 0.70709 0.26434 0.0
H1143 H 0.54654 0.70911 0.26689 0.0
H1144 H 0.61109 0.70798 0.26888 0.0
H1145 H 0.53039 0.70665 0.22936 0.0
H1146 H 0.55973 0.66902 0.19432 0.0
O1147 O 0.57267 0.73939 0.23025 0.0
O1148 O 0.58861 0.73318 0.19552 0.0
O1149 O 0.5988 0.69661 0.22222 0.0
C1150 C 0.57873 0.74424 0.20632 0.0
H1151 H 0.67224 0.77804 0.24055 0.0
H1152 H 0.496 0.66896 0.2071 0.0
H1153 H 0.60463 0.69612 0.31382 0.0
H1154 H 0.53883 0.69717 0.31168 0.0
Co1155 Co 0.29975 0.87148 0.22524 0.0
C1156 C 0.25894 0.86619 0.25359 0.0
C1157 C 0.27083 0.89526 0.22718 0.0
C1158 C 0.25154 0.89314 0.24073 0.0
N1159 N 0.27535 0.87834 0.2355 0.0
N1160 N 0.24412 0.87475 0.25725 0.0
H1161 H 0.25836 0.85168 0.26434 0.0
H1162 H 0.28082 0.90819 0.21247 0.0
C1163 C 0.34376 0.91892 0.22818 0.0
O1164 O 0.35358 0.9082 0.24014 0.0
N1165 N 0.32377 0.8635 0.21456 0.0
C1166 C 0.3225 0.84229 0.21792 0.0
C1167 C 0.34148 0.84256 0.20611 0.0
C1168 C 0.34313 0.87594 0.19948 0.0
N1169 N 0.35454 0.86379 0.19478 0.0
C1170 C 0.3079 0.85536 0.27375 0.0
C1171 C 0.31989 0.89651 0.3005 0.0
C1172 C 0.31996 0.87767 0.31349 0.0
C1173 C 0.3134 0.8567 0.29983 0.0
C1174 C 0.31362 0.89413 0.2747 0.0
N1175 N 0.30909 0.8743 0.26117 0.0
H1176 H 0.30177 0.83872 0.26408 0.0
H1177 H 0.31233 0.90835 0.26561 0.0
H1178 H 0.30826 0.82703 0.2273 0.0
H1179 H 0.34848 0.89318 0.19137 0.0
O1180 O 0.27614 0.83837 0.22507 0.0
O1181 O 0.28545 0.8622 0.1913 0.0
O1182 O 0.3225 0.90675 0.21959 0.0
C1183 C 0.27239 0.84109 0.20114 0.0
H1184 H 0.24354 0.90415 0.23844 0.0
H1185 H 0.34535 0.8282 0.20574 0.0
H1186 H 0.32466 0.91309 0.31 0.0
H1187 H 0.31195 0.8412 0.30924 0.0
H1188 H 0.18043 0.20069 0.30076 0.0
H1189 H 0.2728 0.22347 0.18808 0.0
H1190 H 0.25625 0.2464 0.30798 0.0
H1191 H 0.19749 0.19265 0.17532 0.0
H1192 H 0.26666 0.22771 0.23356 0.0
H1193 H 0.18599 0.19353 0.25583 0.0
C1194 C 0.19822 0.20928 0.29288 0.0
C1195 C 0.21791 0.22419 0.3081 0.0
C1196 C 0.25147 0.21999 0.22081 0.0
C1197 C 0.22438 0.2158 0.25702 0.0
C1198 C 0.25498 0.21767 0.19485 0.0
C1199 C 0.23565 0.20793 0.17789 0.0
C1200 C 0.22847 0.21243 0.22988 0.0
C1201 C 0.21286 0.20013 0.18779 0.0
C1202 C 0.20138 0.20508 0.26732 0.0
C1203 C 0.2406 0.23451 0.29706 0.0
N1204 N 0.20989 0.20264 0.21319 0.0
N1205 N 0.2432 0.23012 0.27217 0.0
H1206 H 0.79013 0.05043 0.18625 0.0
H1207 H 0.79755 0.96854 0.29591 0.0
H1208 H 0.81666 1.00227 0.17366 0.0
H1209 H 0.7759 0.02039 0.30994 0.0
H1210 H 0.80466 0.98071 0.25096 0.0
H1211 H 0.78464 0.0396 0.2317 0.0
C1212 C 0.79474 0.03754 0.19309 0.0
C1213 C 0.80374 0.02711 0.17626 0.0
C1214 C 0.7984 0.98947 0.26387 0.0
C1215 C 0.79766 0.01477 0.22807 0.0
C1216 C 0.79445 0.98261 0.28954 0.0
C1217 C 0.7862 0.99355 0.30664 0.0
C1218 C 0.79401 0.00734 0.25524 0.0
C1219 C 0.78203 0.01134 0.29729 0.0
C1220 C 0.79172 0.03145 0.21901 0.0
C1221 C 0.80983 0.01082 0.1861 0.0
N1222 N 0.78599 0.0177 0.27217 0.0
N1223 N 0.80658 1.00506 0.2114 0.0
H1224 H 0.05892 0.82732 0.29484 0.0
H1225 H 0.96109 0.75557 0.19115 0.0
H1226 H 0.98454 0.78771 0.31511 0.0
H1227 H 0.0241 0.82148 0.17232 0.0
H1228 H 0.97082 0.76375 0.23693 0.0
H1229 H 0.04788 0.8228 0.24961 0.0
C1230 C 0.04026 0.81797 0.28989 0.0
C1231 C 0.02264 0.8078 0.30893 0.0
C1232 C 0.9824 0.77645 0.22275 0.0
C1233 C 0.01007 0.80199 0.25715 0.0
C1234 C 0.97698 0.77172 0.19677 0.0
C1235 C 0.99194 0.78788 0.17824 0.0
C1236 C 1.00313 0.79723 0.23 0.0
C1237 C 0.0122 0.80868 0.18623 0.0
C1238 C 0.03403 0.8153 0.26404 0.0
C1239 C 0.99878 0.7954 0.30117 0.0
N1240 N 0.01738 0.81268 0.21163 0.0
N1241 N 0.99319 0.7926 0.27581 0.0
H1242 H 0.83997 0.80317 0.68396 0.0
H1243 H 0.74903 0.79373 0.79285 0.0
H1244 H 0.76536 0.77661 0.67076 0.0
H1245 H 0.82299 0.81783 0.80722 0.0
H1246 H 0.75544 0.79024 0.74725 0.0
H1247 H 0.83491 0.81172 0.7285 0.0
C1248 C 0.82257 0.79934 0.69041 0.0
C1249 C 0.80301 0.78908 0.67378 0.0
C1250 C 0.77031 0.79638 0.76033 0.0
C1251 C 0.79706 0.79857 0.72458 0.0
C1252 C 0.76662 0.79827 0.78635 0.0
C1253 C 0.78547 0.80582 0.80376 0.0
C1254 C 0.79298 0.80204 0.75172 0.0
C1255 C 0.80802 0.812 0.79434 0.0
C1256 C 0.81967 0.80411 0.71583 0.0
C1257 C 0.78081 0.78419 0.68312 0.0
N1258 N 0.81113 0.80981 0.76891 0.0
N1259 N 0.77842 0.78893 0.70796 0.0
H1260 H 0.18239 0.9672 0.79389 0.0
H1261 H 0.27341 0.05216 0.68708 0.0
H1262 H 0.25572 0.01836 0.80954 0.0
H1263 H 0.1991 1.00394 0.67261 0.0
H1264 H 0.26723 0.04037 0.73224 0.0
H1265 H 0.18808 0.98078 0.7494 0.0
C1266 C 0.19966 0.98139 0.78797 0.0
C1267 C 0.21862 0.99172 0.80537 0.0
C1268 C 0.25225 0.03244 0.71922 0.0
C1269 C 0.22532 0.00716 0.75454 0.0
C1270 C 0.2558 0.03908 0.69346 0.0
C1271 C 0.23675 0.02886 0.67616 0.0
C1272 C 0.22952 0.0154 0.72764 0.0
C1273 C 0.21421 0.01233 0.68542 0.0
C1274 C 0.20292 0.98907 0.76257 0.0
C1275 C 0.24072 0.00975 0.79662 0.0
N1276 N 0.21123 1.006 0.71056 0.0
N1277 N 0.24347 0.01691 0.77177 0.0
H1278 H 0.97863 0.23622 0.6873 0.0
H1279 H 0.01731 0.19335 0.80774 0.0
H1280 H 1.00754 0.18967 0.67631 0.0
H1281 H 0.04325 0.26821 0.79612 0.0
H1282 H 1.00478 0.18625 0.76278 0.0
H1283 H 0.99267 0.24259 0.73159 0.0
C1284 C 0.988 0.22741 0.69401 0.0
C1285 C 0.99224 0.21267 0.67775 0.0
C1286 C 0.01328 0.20416 0.7703 0.0
C1287 C 1.00729 0.21919 0.72867 0.0
C1288 C 0.02062 0.20834 0.79584 0.0
C1289 C 0.03128 0.23145 0.80596 0.0
C1290 C 0.01604 0.22308 0.75509 0.0
C1291 C 0.03453 0.25001 0.78957 0.0
C1292 C 0.99581 0.23097 0.71932 0.0
C1293 C 1.00364 0.201 0.68809 0.0
N1294 N 0.02664 0.24536 0.76499 0.0
N1295 N 0.01071 0.20444 0.71302 0.0
H1296 H 0.84536 0.54736 0.62871 0.0
H1297 H 0.93569 0.55269 0.52127 0.0
H1298 H 0.9183 0.56754 0.64388 0.0
H1299 H 0.86222 0.5303 0.50612 0.0
H1300 H 0.9292 0.55687 0.56671 0.0
H1301 H 0.85062 0.53937 0.58403 0.0
C1302 C 0.86242 0.54993 0.62266 0.0
C1303 C 0.88147 0.55821 0.63993 0.0
C1304 C 0.91446 0.55096 0.55348 0.0
C1305 C 0.88767 0.54937 0.58894 0.0
C1306 C 0.91819 0.5487 0.52756 0.0
C1307 C 0.89949 0.54134 0.50999 0.0
C1308 C 0.89188 0.54591 0.56183 0.0
C1309 C 0.87707 0.53592 0.51914 0.0
C1310 C 0.86545 0.54548 0.59716 0.0
C1311 C 0.90328 0.56154 0.63106 0.0
N1312 N 0.87391 0.53846 0.54447 0.0
N1313 N 0.9058 0.55715 0.60613 0.0
H1314 H 0.50986 0.37795 0.52111 0.0
H1315 H 0.41895 0.29411 0.62866 0.0
H1316 H 0.436 0.32766 0.5069 0.0
H1317 H 0.49243 0.34474 0.64415 0.0
H1318 H 0.42576 0.30439 0.58321 0.0
H1319 H 0.50479 0.36418 0.56563 0.0
C1320 C 0.49264 0.36389 0.52734 0.0
C1321 C 0.47326 0.35402 0.51045 0.0
C1322 C 0.44045 0.31321 0.59649 0.0
C1323 C 0.4673 0.33835 0.56116 0.0
C1324 C 0.43653 0.30742 0.62243 0.0
C1325 C 0.45511 0.31883 0.64011 0.0
C1326 C 0.46309 0.3306 0.58822 0.0
C1327 C 0.47767 0.33555 0.63104 0.0
C1328 C 0.48973 0.35611 0.55273 0.0
C1329 C 0.45128 0.33602 0.51948 0.0
N1330 N 0.48101 0.34109 0.60567 0.0
N1331 N 0.44889 0.32881 0.54426 0.0
H1332 H 0.66445 0.09535 0.64544 0.0
H1333 H 0.68503 0.15408 0.50611 0.0
H1334 H 0.71672 0.1682 0.62934 0.0
H1335 H 0.6354 0.08039 0.52193 0.0
H1336 H 0.69561 0.16022 0.55162 0.0
H1337 H 0.65241 0.09002 0.60044 0.0
C1338 C 0.67342 0.1102 0.63236 0.0
C1339 C 0.69166 0.13221 0.641 0.0
C1340 C 0.6824 0.14271 0.54514 0.0
C1341 C 0.6779 0.12633 0.58965 0.0
C1342 C 0.67629 0.13924 0.51923 0.0
C1343 C 0.65941 0.11668 0.51034 0.0
C1344 C 0.67148 0.12349 0.5622 0.0
C1345 C 0.64877 0.09798 0.52799 0.0
C1346 C 0.66648 0.10719 0.60673 0.0
C1347 C 0.70244 0.151 0.62345 0.0
N1348 N 0.65501 0.1018 0.55313 0.0
N1349 N 0.69543 0.1476 0.59851 0.0
H1350 H 0.49154 0.15897 0.14085 0.0
H1351 H 0.44753 0.07813 0.02027 0.0
H1352 H 0.41626 0.11318 0.12805 0.0
H1353 H 0.49459 0.15334 0.00848 0.0
H1354 H 0.44162 0.08634 0.06453 0.0
H1355 H 0.49867 0.1535 0.09582 0.0
C1356 C 0.47649 0.14797 0.1287 0.0
C1357 C 0.45323 0.13632 0.13853 0.0
C1358 C 0.45327 0.10092 0.05209 0.0
C1359 C 0.46157 0.12939 0.0876 0.0
C1360 C 0.45655 0.09636 0.02678 0.0
C1361 C 0.4713 0.11511 0.01028 0.0
C1362 C 0.46534 0.12424 0.06122 0.0
C1363 C 0.48325 0.13825 0.02042 0.0
C1364 C 0.48067 0.14478 0.10312 0.0
C1365 C 0.43455 0.12193 0.12177 0.0
N1366 N 0.48009 0.14218 0.04536 0.0
N1367 N 0.43917 0.11859 0.09721 0.0
H1368 H 0.89223 0.36381 0.14634 0.0
H1369 H 0.90348 0.32682 0.00379 0.0
H1370 H 0.87125 0.29196 0.12472 0.0
H1371 H 0.89777 0.38874 0.0204 0.0
H1372 H 0.89572 0.3154 0.04907 0.0
H1373 H 0.89819 0.37506 0.10081 0.0
C1374 C 0.88887 0.35046 0.13194 0.0
C1375 C 0.88129 0.32698 0.13907 0.0
C1376 C 0.89607 0.33143 0.04278 0.0
C1377 C 0.88813 0.33961 0.08744 0.0
C1378 C 0.90064 0.338 0.01708 0.0
C1379 C 0.90125 0.35871 0.00859 0.0
C1380 C 0.89243 0.34587 0.06005 0.0
C1381 C 0.89727 0.37255 0.02633 0.0
C1382 C 0.89214 0.35682 0.10608 0.0
C1383 C 0.87696 0.31021 0.11986 0.0
N1384 N 0.89316 0.36595 0.05139 0.0
N1385 N 0.88062 0.3169 0.09485 0.0
H1386 H 0.6494 0.57623 0.01997 0.0
H1387 H 0.68567 0.53076 0.13982 0.0
H1388 H 0.67733 0.52879 0.00954 0.0
H1389 H 0.71165 0.60594 0.1313 0.0
H1390 H 0.6747 0.52534 0.09445 0.0
H1391 H 0.66416 0.58328 0.06403 0.0
C1392 C 0.65874 0.56742 0.0267 0.0
C1393 C 0.66214 0.5519 0.01078 0.0
C1394 C 0.68289 0.54297 0.1027 0.0
C1395 C 0.67811 0.55929 0.06143 0.0
C1396 C 0.68934 0.54619 0.12851 0.0
C1397 C 0.69957 0.56888 0.13963 0.0
C1398 C 0.6861 0.56241 0.08814 0.0
C1399 C 0.70325 0.58802 0.12393 0.0
C1400 C 0.667 0.57139 0.0519 0.0
C1401 C 0.6738 0.54049 0.02112 0.0
N1402 N 0.69622 0.5843 0.09901 0.0
N1403 N 0.68116 0.54423 0.04592 0.0
H1404 H 0.53181 0.85733 0.97379 0.0
H1405 H 0.61 0.90364 0.85072 0.0
H1406 H 0.57606 0.93286 0.96122 0.0
H1407 H 0.53482 0.8543 0.84225 0.0
H1408 H 0.60315 0.90927 0.8956 0.0
H1409 H 0.53763 0.8506 0.92881 0.0
C1410 C 0.5426 0.87252 0.96172 0.0
C1411 C 0.55349 0.89575 0.97153 0.0
C1412 C 0.58829 0.89717 0.88375 0.0
C1413 C 0.56091 0.88787 0.92064 0.0
C1414 C 0.59206 0.89405 0.85809 0.0
C1415 C 0.5729 0.87871 0.84237 0.0
C1416 C 0.5654 0.88436 0.89394 0.0
C1417 C 0.55021 0.86609 0.85356 0.0
C1418 C 0.54601 0.86857 0.93617 0.0
C1419 C 0.56779 0.91461 0.95491 0.0
N1420 N 0.54709 0.86912 0.87877 0.0
N1421 N 0.57129 0.91022 0.93031 0.0
H1422 H 0.15652 0.68163 0.97417 0.0
H1423 H 0.09748 0.66009 0.83491 0.0
H1424 H 0.08272 0.632 0.95878 0.0
H1425 H 0.17072 0.71157 0.85044 0.0
H1426 H 0.09222 0.64827 0.88 0.0
H1427 H 0.16264 0.6915 0.92849 0.0
C1428 C 0.14164 0.67274 0.96112 0.0
C1429 C 0.11907 0.65605 0.9702 0.0
C1430 C 0.10946 0.6621 0.87355 0.0
C1431 C 0.12587 0.66733 0.91809 0.0
C1432 C 0.11244 0.66891 0.84787 0.0
C1433 C 0.13452 0.68692 0.83905 0.0
C1434 C 0.12871 0.67342 0.89053 0.0
C1435 C 0.15345 0.69748 0.85647 0.0
C1436 C 0.14511 0.67844 0.9351 0.0
C1437 C 0.10033 0.64523 0.95259 0.0
N1438 N 0.15007 0.69064 0.88146 0.0
N1439 N 0.10415 0.65108 0.92734 0.0
H1440 H 0.32807 0.42294 0.98085 0.0
H1441 H 0.34847 0.48332 0.84246 0.0
H1442 H 0.3783 0.49662 0.96569 0.0
H1443 H 0.29967 0.4091 0.85669 0.0
H1444 H 0.35859 0.4888 0.88803 0.0
H1445 H 0.31652 0.41763 0.93561 0.0
C1446 C 0.33667 0.43797 0.96795 0.0
C1447 C 0.35415 0.46023 0.97692 0.0
C1448 C 0.34565 0.47131 0.88121 0.0
C1449 C 0.34098 0.45438 0.92538 0.0
C1450 C 0.33981 0.46821 0.85526 0.0
C1451 C 0.32325 0.44573 0.8459 0.0
C1452 C 0.33484 0.45178 0.89787 0.0
C1453 C 0.31276 0.42667 0.86314 0.0
C1454 C 0.33002 0.43497 0.9422 0.0
C1455 C 0.36453 0.47923 0.95958 0.0
N1456 N 0.31874 0.43013 0.88837 0.0
N1457 N 0.35782 0.47584 0.93458 0.0
H1458 H 0.14358 0.48539 0.33848 0.0
H1459 H 0.10942 0.42547 0.47762 0.0
H1460 H 0.12162 0.41195 0.353 0.0
H1461 H 0.13042 0.49867 0.46302 0.0
H1462 H 0.11454 0.42034 0.43202 0.0
H1463 H 0.13979 0.49091 0.38432 0.0
C1464 C 0.13803 0.47047 0.35137 0.0
C1465 C 0.13282 0.44818 0.34202 0.0
C1466 C 0.11809 0.43755 0.4388 0.0
C1467 C 0.12833 0.45428 0.39429 0.0
C1468 C 0.11508 0.44044 0.46476 0.0
C1469 C 0.11949 0.46251 0.474 0.0
C1470 C 0.1255 0.45686 0.422 0.0
C1471 C 0.12711 0.48143 0.45669 0.0
C1472 C 0.13579 0.47359 0.37748 0.0
C1473 C 0.12546 0.42934 0.35942 0.0
N1474 N 0.12981 0.47815 0.43145 0.0
N1475 N 0.12344 0.43283 0.38476 0.0
H1476 H 0.51175 0.62848 0.46206 0.0
H1477 H 0.60312 0.7132 0.3552 0.0
H1478 H 0.5855 0.67872 0.47693 0.0
H1479 H 0.52975 0.66238 0.33934 0.0
H1480 H 0.59661 0.70137 0.40027 0.0
H1481 H 0.5175 0.64144 0.41722 0.0
C1482 C 0.52911 0.64231 0.45588 0.0
C1483 C 0.54821 0.65251 0.4731 0.0
C1484 C 0.58191 0.6928 0.38696 0.0
C1485 C 0.55495 0.66725 0.42204 0.0
C1486 C 0.58566 0.69946 0.36124 0.0
C1487 C 0.56697 0.68861 0.34359 0.0
C1488 C 0.55931 0.67515 0.39505 0.0
C1489 C 0.54457 0.67127 0.35244 0.0
C1490 C 0.53241 0.64962 0.43031 0.0
C1491 C 0.5704 0.67016 0.46413 0.0
N1492 N 0.54137 0.665 0.3776 0.0
N1493 N 0.57317 0.67697 0.43918 0.0
H1494 H 0.34219 0.85718 0.33925 0.0
H1495 H 0.37527 0.93617 0.46165 0.0
H1496 H 0.31277 0.90318 0.35115 0.0
H1497 H 0.34914 0.86102 0.47092 0.0
H1498 H 0.36207 0.92891 0.41706 0.0
H1499 H 0.35395 0.86235 0.3845 0.0
C1500 C 0.338 0.86819 0.35124 0.0
C1501 C 0.32656 0.8799 0.3411 0.0
C1502 C 0.35935 0.91413 0.42902 0.0
C1503 C 0.34091 0.8865 0.39236 0.0
C1504 C 0.36668 0.91814 0.45454 0.0
C1505 C 0.36306 0.89913 0.47041 0.0
C1506 C 0.34901 0.89113 0.41907 0.0
C1507 C 0.35263 0.87632 0.45949 0.0
C1508 C 0.3449 0.87122 0.37696 0.0
C1509 C 0.32214 0.89435 0.35767 0.0
N1510 N 0.34608 0.87295 0.43439 0.0
N1511 N 0.32961 0.89749 0.38242 0.0
H1512 H 0.30483 0.27913 0.0606 0.0
H1513 H 0.29839 0.3964 0.09213 0.0
H1514 H 0.24036 0.28041 0.07631 0.0
H1515 H 0.36493 0.39714 0.08755 0.0
H1516 H 0.27733 0.35367 0.08579 0.0
H1517 H 0.32765 0.32221 0.06836 0.0
C1518 C 0.29546 0.28849 0.06529 0.0
C1519 C 0.27063 0.27615 0.06775 0.0
C1520 C 0.29653 0.363 0.08638 0.0
C1521 C 0.29656 0.32519 0.07701 0.0
C1522 C 0.30858 0.38745 0.09014 0.0
C1523 C 0.33344 0.40032 0.09048 0.0
C1524 C 0.30935 0.35114 0.08256 0.0
C1525 C 0.34573 0.3878 0.08772 0.0
C1526 C 0.3085 0.31301 0.06999 0.0
C1527 C 0.25945 0.28912 0.07425 0.0
N1528 N 0.33355 0.36387 0.08361 0.0
N1529 N 0.27246 0.31281 0.07864 0.0
H1530 H 0.61754 0.96805 0.08677 0.0
H1531 H 0.73576 0.96002 0.0686 0.0
H1532 H 0.61955 0.90288 0.08295 0.0
H1533 H 0.73575 0.02598 0.06076 0.0
H1534 H 0.69309 0.93944 0.07537 0.0
H1535 H 0.66083 0.99038 0.08014 0.0
C1536 C 0.62712 0.95848 0.08501 0.0
C1537 C 0.61494 0.93357 0.08546 0.0
C1538 C 0.70226 0.95839 0.072 0.0
C1539 C 0.66419 0.95886 0.07748 0.0
C1540 C 0.72668 0.97016 0.06802 0.0
C1541 C 0.73934 0.99474 0.06402 0.0
C1542 C 0.69019 0.97124 0.07228 0.0
C1543 C 0.72661 0.00695 0.0635 0.0
C1544 C 0.65175 0.9712 0.08093 0.0
C1545 C 0.62816 0.92205 0.08267 0.0
N1546 N 0.7027 0.99509 0.0678 0.0
N1547 N 0.65195 0.93474 0.07878 0.0
H1548 H 0.05321 0.77679 0.06833 0.0
H1549 H 0.04646 0.65119 0.08725 0.0
H1550 H 0.98671 0.71089 0.06551 0.0
H1551 H 0.11104 0.71828 0.07838 0.0
H1552 H 0.02355 0.6718 0.08206 0.0
H1553 H 0.07401 0.75477 0.0735 0.0
C1554 C 0.04297 0.75759 0.06855 0.0
C1555 C 0.01818 0.74569 0.06641 0.0
C1556 C 0.04274 0.68195 0.0814 0.0
C1557 C 0.04203 0.72008 0.07281 0.0
C1558 C 0.05581 0.67025 0.08464 0.0
C1559 C 0.08072 0.68305 0.08328 0.0
C1560 C 0.05473 0.70658 0.07699 0.0
C1561 C 0.0919 0.70765 0.07948 0.0
C1562 C 0.05488 0.74496 0.07159 0.0
C1563 C 1.00588 0.72075 0.06682 0.0
N1564 N 0.07888 0.71851 0.07646 0.0
N1565 N 0.01792 0.70873 0.07018 0.0
H1566 H 0.40002 0.35117 0.37786 0.0
H1567 H 0.29357 0.27847 0.47679 0.0
H1568 H 0.40426 0.30953 0.44002 0.0
H1569 H 0.28108 0.29137 0.39854 0.0
H1570 H 0.33599 0.29601 0.46669 0.0
H1571 H 0.35767 0.33508 0.38789 0.0
C1572 C 0.39207 0.33861 0.39347 0.0
C1573 C 0.40569 0.33151 0.40789 0.0
C1574 C 0.32391 0.29503 0.45179 0.0
C1575 C 0.3576 0.3136 0.41989 0.0
C1576 C 0.29975 0.28513 0.45759 0.0
C1577 C 0.28372 0.28332 0.43849 0.0
C1578 C 0.33217 0.30361 0.42686 0.0
C1579 C 0.29276 0.29222 0.41384 0.0
C1580 C 0.36796 0.32947 0.39921 0.0
C1581 C 0.39447 0.31531 0.42811 0.0
N1582 N 0.31634 0.30206 0.40878 0.0
N1583 N 0.37122 0.30708 0.4336 0.0
H1584 H 0.77959 0.05312 0.41987 0.0
H1585 H 0.65423 0.04533 0.39426 0.0
H1586 H 0.71393 0.98636 0.41953 0.0
H1587 H 0.72094 0.11029 0.40332 0.0
H1588 H 0.67489 0.02276 0.40151 0.0
H1589 H 0.75751 0.07375 0.4134 0.0
C1590 C 0.76041 0.0428 0.41877 0.0
C1591 C 0.7486 0.01799 0.42034 0.0
C1592 C 0.68496 0.04195 0.40175 0.0
C1593 C 0.72296 0.0416 0.41231 0.0
C1594 C 0.67323 0.05483 0.39732 0.0
C1595 C 0.68589 0.07975 0.39812 0.0
C1596 C 0.70949 0.05413 0.40686 0.0
C1597 C 0.71042 0.09112 0.40259 0.0
C1598 C 0.74776 0.0546 0.41493 0.0
C1599 C 0.7237 1.00555 0.41872 0.0
N1600 N 0.72132 0.07828 0.4068 0.0
N1601 N 0.71168 0.01747 0.41455 0.0
H1602 H 0.91666 0.61794 0.42153 0.0
H1603 H 0.04499 0.72611 0.38554 0.0
H1604 H 0.96915 0.61034 0.37832 0.0
H1605 H 0.99556 0.73431 0.43373 0.0
H1606 H 0.01725 0.6837 0.38306 0.0
H1607 H 0.9446 0.66041 0.42564 0.0
C1608 C 0.93399 0.62519 0.41269 0.0
C1609 C 0.94049 0.61044 0.39947 0.0
C1610 C 0.01243 0.69465 0.39432 0.0
C1611 C 0.97273 0.65922 0.40439 0.0
C1612 C 0.02831 0.71894 0.3958 0.0
C1613 C 0.02259 0.73385 0.40983 0.0
C1614 C 0.99041 0.68498 0.4068 0.0
C1615 C 1.00075 0.72347 0.42282 0.0
C1616 C 0.94999 0.64948 0.4152 0.0
C1617 C 0.96326 0.62094 0.38858 0.0
N1618 N 0.98536 0.69966 0.42084 0.0
N1619 N 0.97851 0.64463 0.39131 0.0
H1620 H 0.65421 0.61258 0.89355 0.0
H1621 H 0.77997 0.73199 0.90762 0.0
H1622 H 0.72176 0.61533 0.89726 0.0
H1623 H 0.71371 0.73101 0.91823 0.0
H1624 H 0.75821 0.68929 0.90112 0.0
H1625 H 0.67489 0.65603 0.89872 0.0
C1626 C 0.67338 0.62235 0.89494 0.0
C1627 C 0.68631 0.61034 0.89492 0.0
C1628 C 0.74831 0.69828 0.90501 0.0
C1629 C 0.70995 0.65978 0.90121 0.0
C1630 C 0.76078 0.72273 0.9088 0.0
C1631 C 0.74867 0.73512 0.91357 0.0
C1632 C 0.7234 0.68589 0.90571 0.0
C1633 C 0.72376 0.7221 0.91486 0.0
C1634 C 0.68513 0.64707 0.8982 0.0
C1635 C 0.71107 0.62382 0.89723 0.0
N1636 N 0.7119 0.69817 0.91078 0.0
N1637 N 0.72201 0.64769 0.90031 0.0
H1638 H 0.40235 0.04419 0.89305 0.0
H1639 H 0.28421 0.051 0.91808 0.0
H1640 H 0.40047 0.10886 0.90467 0.0
H1641 H 0.28368 0.9845 0.91796 0.0
H1642 H 0.32703 0.07193 0.91242 0.0
H1643 H 0.35909 0.02143 0.89996 0.0
C1644 C 0.39283 0.0536 0.89665 0.0
C1645 C 0.40506 0.0785 0.89821 0.0
C1646 C 0.31772 0.05277 0.91384 0.0
C1647 C 0.35579 0.05263 0.9065 0.0
C1648 C 0.29321 0.0408 0.91719 0.0
C1649 C 0.28035 0.01598 0.9186 0.0
C1650 C 0.32971 0.03992 0.9115 0.0
C1651 C 0.29298 1.00369 0.91727 0.0
C1652 C 0.3682 0.0406 0.90087 0.0
C1653 C 0.39187 0.08973 0.90332 0.0
N1654 N 0.31699 0.01578 0.91354 0.0
N1655 N 0.36809 0.07677 0.90727 0.0
H1656 H 0.97251 0.3602 0.89335 0.0
H1657 H 0.96406 0.23415 0.91401 0.0
H1658 H 0.90704 0.29419 0.90368 0.0
H1659 H 0.03015 0.30005 0.9211 0.0
H1660 H 0.94342 0.25632 0.9077 0.0
H1661 H 0.99458 0.33895 0.89984 0.0
C1662 C 0.96278 0.34122 0.89656 0.0
C1663 C 0.93788 0.32893 0.89791 0.0
C1664 C 0.96241 0.26604 0.91082 0.0
C1665 C 0.96293 0.30465 0.90564 0.0
C1666 C 0.97421 0.25335 0.91451 0.0
C1667 C 0.99885 0.26524 0.91821 0.0
C1668 C 0.97529 0.29094 0.91046 0.0
C1669 C 0.01109 0.29017 0.9186 0.0
C1670 C 0.97538 0.32917 0.90055 0.0
C1671 C 0.92621 0.30442 0.90253 0.0
N1672 N 0.99921 0.30223 0.91455 0.0
N1673 N 0.93879 0.29316 0.9062 0.0
H1674 H 0.73764 0.75091 0.60722 0.0
H1675 H 0.61406 0.68855 0.53898 0.0
H1676 H 0.73202 0.72855 0.52826 0.0
H1677 H 0.61987 0.67261 0.61819 0.0
H1678 H 0.65716 0.70708 0.53445 0.0
H1679 H 0.69457 0.72615 0.6118 0.0
C1680 C 0.72727 0.74074 0.59082 0.0
C1681 C 0.7383 0.74189 0.56723 0.0
C1682 C 0.649 0.69939 0.55276 0.0
C1683 C 0.68905 0.71382 0.57231 0.0
C1684 C 0.62447 0.68901 0.55546 0.0
C1685 C 0.61347 0.67928 0.57911 0.0
C1686 C 0.66277 0.70066 0.57405 0.0
C1687 C 0.62772 0.67999 0.59969 0.0
C1688 C 0.70277 0.72651 0.59354 0.0
C1689 C 0.72414 0.72815 0.54672 0.0
N1690 N 0.65174 0.69091 0.59683 0.0
N1691 N 0.70011 0.71497 0.54958 0.0
H1692 H 0.36434 0.96711 0.58825 0.0
H1693 H 0.23924 0.96127 0.56939 0.0
H1694 H 0.29728 0.90245 0.57959 0.0
H1695 H 0.30571 0.02673 0.56196 0.0
H1696 H 0.26082 0.94006 0.57548 0.0
H1697 H 0.34383 0.98994 0.58215 0.0
C1698 C 0.34529 0.95772 0.5855 0.0
C1699 C 0.33248 0.93282 0.58449 0.0
C1700 C 0.27081 0.95903 0.57234 0.0
C1701 C 0.30905 0.95875 0.57718 0.0
C1702 C 0.25845 0.97117 0.56878 0.0
C1703 C 0.27067 0.99581 0.56505 0.0
C1704 C 0.29573 0.97155 0.57252 0.0
C1705 C 0.2956 0.00769 0.56449 0.0
C1706 C 0.33365 0.97076 0.58173 0.0
C1707 C 0.3079 0.9216 0.58047 0.0
N1708 N 0.30735 0.99547 0.5684 0.0
N1709 N 0.29706 0.9346 0.57698 0.0
H1710 H 0.05742 0.2817 0.56934 0.0
H1711 H 0.04784 0.39895 0.58882 0.0
H1712 H 0.99093 0.28087 0.56259 0.0
H1713 H 0.11342 0.39766 0.58529 0.0
H1714 H 0.02588 0.35568 0.58208 0.0
H1715 H 0.07758 0.32426 0.57662 0.0
C1716 C 0.04707 0.29056 0.56912 0.0
C1717 C 0.02246 0.27769 0.56527 0.0
C1718 C 0.04507 0.36491 0.58298 0.0
C1719 C 0.04549 0.32674 0.57411 0.0
C1720 C 0.05758 0.38952 0.58713 0.0
C1721 C 0.0825 0.4019 0.58766 0.0
C1722 C 0.05763 0.35269 0.57953 0.0
C1723 C 0.09424 0.38888 0.58494 0.0
C1724 C 0.0586 0.31493 0.5734 0.0
C1725 C 1.00999 0.29017 0.56522 0.0
N1726 N 0.08174 0.36511 0.58095 0.0
N1727 N 0.02162 0.31402 0.56977 0.0
H1728 H 0.06741 0.69377 0.72546 0.0
H1729 H 0.95058 0.56708 0.74569 0.0
H1730 H 0.06732 0.62781 0.73408 0.0
H1731 H 0.9496 0.63261 0.75291 0.0
H1732 H 0.99332 0.58959 0.73922 0.0
H1733 H 0.02413 0.67224 0.73211 0.0
C1734 C 0.05826 0.67474 0.72833 0.0
C1735 C 0.07098 0.66254 0.72916 0.0
C1736 C 0.98389 0.59916 0.7424 0.0
C1737 C 0.02171 0.63795 0.73709 0.0
C1738 C 0.95943 0.58628 0.74618 0.0
C1739 C 0.94649 0.59797 0.74995 0.0
C1740 C 0.99568 0.62405 0.74204 0.0
C1741 C 0.95895 0.62289 0.75035 0.0
C1742 C 0.03363 0.66253 0.7324 0.0
C1743 C 0.05829 0.63796 0.73334 0.0
N1744 N 0.98287 0.63515 0.74622 0.0
N1745 N 0.03447 0.62655 0.73713 0.0
H1746 H 0.32056 0.37675 0.72941 0.0
H1747 H 0.44704 0.38473 0.74529 0.0
H1748 H 0.38743 0.44193 0.73587 0.0
H1749 H 0.38121 0.31884 0.75438 0.0
H1750 H 0.4248 0.40524 0.73897 0.0
H1751 H 0.34173 0.35439 0.73458 0.0
C1752 C 0.33969 0.38633 0.73143 0.0
C1753 C 0.35228 0.41124 0.73217 0.0
C1754 C 0.4151 0.38632 0.74249 0.0
C1755 C 0.37645 0.38591 0.73842 0.0
C1756 C 0.42784 0.37457 0.74618 0.0
C1757 C 0.416 0.35003 0.75048 0.0
C1758 C 0.39018 0.3735 0.74282 0.0
C1759 C 0.39106 0.33783 0.75139 0.0
C1760 C 0.35171 0.37359 0.73468 0.0
C1761 C 0.37699 0.42276 0.73527 0.0
N1762 N 0.37894 0.34967 0.74742 0.0
N1763 N 0.38818 0.41005 0.73828 0.0
H1764 H 0.57263 0.94791 0.73336 0.0
H1765 H 0.69869 0.0656 0.75442 0.0
H1766 H 0.6386 0.94771 0.72656 0.0
H1767 H 0.63204 0.06434 0.74698 0.0
H1768 H 0.67767 0.02235 0.7474 0.0
H1769 H 0.59475 0.99058 0.74026 0.0
C1770 C 0.59185 0.95693 0.73303 0.0
C1771 C 0.60376 0.94421 0.72926 0.0
C1772 C 0.6677 0.03159 0.74746 0.0
C1773 C 0.62943 0.99336 0.7377 0.0
C1774 C 0.67963 0.0562 0.75175 0.0
C1775 C 0.66708 0.06859 0.75135 0.0
C1776 C 0.64307 0.01937 0.74296 0.0
C1777 C 0.64247 0.05557 0.7474 0.0
C1778 C 0.60451 0.98136 0.73708 0.0
C1779 C 0.62871 0.95689 0.7291 0.0
N1780 N 0.63135 0.03181 0.74337 0.0
N1781 N 0.64075 0.98077 0.73348 0.0
H1782 H 0.44966 0.06661 0.24561 0.0
H1783 H 0.32466 0.94823 0.22406 0.0
H1784 H 0.38298 0.06534 0.25266 0.0
H1785 H 0.39098 0.94937 0.23473 0.0
H1786 H 0.34546 0.9914 0.23077 0.0
H1787 H 0.42818 0.02382 0.23903 0.0
C1788 C 0.43044 0.05725 0.24602 0.0
C1789 C 0.4181 0.06956 0.24978 0.0
C1790 C 0.35543 0.98217 0.23151 0.0
C1791 C 0.39324 0.0204 0.24176 0.0
C1792 C 0.34363 0.95759 0.22741 0.0
C1793 C 0.35613 0.94519 0.22878 0.0
C1794 C 0.3799 0.99439 0.23676 0.0
C1795 C 0.38062 0.95817 0.23355 0.0
C1796 C 0.41816 0.03279 0.24219 0.0
C1797 C 0.39318 0.0565 0.2501 0.0
N1798 N 0.39165 0.98198 0.23734 0.0
N1799 N 0.38154 0.03261 0.24591 0.0
H1800 H 0.95565 0.30083 0.22277 0.0
H1801 H 0.06221 0.43283 0.24746 0.0
H1802 H 0.94695 0.35336 0.26433 0.0
H1803 H 0.07115 0.37805 0.21136 0.0
H1804 H 0.02003 0.4045 0.25298 0.0
H1805 H 0.99796 0.32889 0.21883 0.0
C1806 C 0.9627 0.31824 0.23134 0.0
C1807 C 0.94768 0.32475 0.24389 0.0
C1808 C 0.03118 0.39868 0.24377 0.0
C1809 C 0.99634 0.35727 0.23906 0.0
C1810 C 0.0553 0.4149 0.24044 0.0
C1811 C 0.07036 0.40787 0.22886 0.0
C1812 C 0.02189 0.37517 0.23547 0.0
C1813 C 0.06028 0.38435 0.22028 0.0
C1814 C 0.98691 0.33431 0.22899 0.0
C1815 C 0.95788 0.34754 0.25466 0.0
N1816 N 0.03673 0.36887 0.22381 0.0
N1817 N 0.98156 0.36305 0.25181 0.0
H1818 H 0.63909 0.69481 0.22973 0.0
H1819 H 0.6296 0.56781 0.24631 0.0
H1820 H 0.57346 0.62804 0.23245 0.0
H1821 H 0.69553 0.63332 0.25677 0.0
H1822 H 0.60945 0.59029 0.23917 0.0
H1823 H 0.66098 0.67336 0.23625 0.0
C1824 C 0.62934 0.67565 0.2312 0.0
C1825 C 0.60442 0.66316 0.23051 0.0
C1826 C 0.6283 0.59986 0.24319 0.0
C1827 C 0.62919 0.63866 0.23835 0.0
C1828 C 0.63981 0.58699 0.24738 0.0
C1829 C 0.66427 0.59868 0.25225 0.0
C1830 C 0.64128 0.62477 0.24358 0.0
C1831 C 0.67659 0.62359 0.25336 0.0
C1832 C 0.6418 0.66346 0.23523 0.0
C1833 C 0.59264 0.6384 0.23295 0.0
N1834 N 0.66498 0.63585 0.24885 0.0
N1835 N 0.60509 0.62704 0.23678 0.0
H1836 H 0.35233 0.227 0.11486 0.0
H1837 H 0.33269 0.11506 0.19855 0.0
H1838 H 0.2902 0.15753 0.10901 0.0
H1839 H 0.39391 0.18505 0.20547 0.0
H1840 H 0.3166 0.13023 0.16588 0.0
H1841 H 0.36828 0.21168 0.14746 0.0
C1842 C 0.34213 0.2085 0.12025 0.0
C1843 C 0.31982 0.19359 0.10926 0.0
C1844 C 0.33356 0.14226 0.17457 0.0
C1845 C 0.33782 0.17595 0.14682 0.0
C1846 C 0.34266 0.13363 0.19337 0.0
C1847 C 0.36477 0.14873 0.20467 0.0
C1848 C 0.34664 0.16619 0.16705 0.0
C1849 C 0.37703 0.17262 0.19696 0.0
C1850 C 0.35115 0.19978 0.13902 0.0
C1851 C 0.30727 0.16979 0.11726 0.0
N1852 N 0.36784 0.18057 0.17864 0.0
N1853 N 0.31641 0.16173 0.13554 0.0
H1854 H 0.8219 0.21143 0.1998 0.0
H1855 H 0.85457 0.13012 0.11366 0.0
H1856 H 0.88496 0.20648 0.21095 0.0
H1857 H 0.78628 0.126 0.11102 0.0
H1858 H 0.86658 0.15931 0.14798 0.0
H1859 H 0.80903 0.18119 0.16628 0.0
C1860 C 0.83304 0.20396 0.19519 0.0
C1861 C 0.85463 0.21161 0.20808 0.0
C1862 C 0.84895 0.152 0.13994 0.0
C1863 C 0.83999 0.17693 0.16969 0.0
C1864 C 0.84201 0.13522 0.12033 0.0
C1865 C 0.81923 0.12531 0.10947 0.0
C1866 C 0.83312 0.15916 0.14877 0.0
C1867 C 0.80403 0.1332 0.1186 0.0
C1868 C 0.82563 0.18663 0.17612 0.0
C1869 C 0.86814 0.20099 0.20163 0.0
N1870 N 0.81124 0.14963 0.13773 0.0
N1871 N 0.86068 0.18432 0.18276 0.0
H1872 H 0.88404 0.73084 0.11933 0.0
H1873 H 0.80505 0.62171 0.21285 0.0
H1874 H 0.88824 0.66678 0.12228 0.0
H1875 H 0.7973 0.68364 0.20719 0.0
H1876 H 0.83673 0.63885 0.18103 0.0
H1877 H 0.85346 0.71473 0.15257 0.0
C1878 C 0.87864 0.71343 0.12702 0.0
C1879 C 0.88884 0.70019 0.11797 0.0
C1880 C 0.82816 0.64875 0.18674 0.0
C1881 C 0.8536 0.68154 0.15603 0.0
C1882 C 0.80996 0.63892 0.20487 0.0
C1883 C 0.79825 0.65112 0.21255 0.0
C1884 C 0.83485 0.67104 0.1761 0.0
C1885 C 0.80586 0.67364 0.20196 0.0
C1886 C 0.86107 0.7042 0.14595 0.0
C1887 C 0.88076 0.67754 0.12842 0.0
N1888 N 0.8236 0.68282 0.18418 0.0
N1889 N 0.86368 0.66897 0.1469 0.0
H1890 H 0.13743 0.32919 0.26086 0.0
H1891 H 0.21487 0.35141 0.38801 0.0
H1892 H 0.16604 0.39348 0.3058 0.0
H1893 H 0.17417 0.28282 0.35218 0.0
H1894 H 0.19831 0.36766 0.35712 0.0
H1895 H 0.15156 0.31214 0.29341 0.0
C1896 C 0.14653 0.33971 0.27756 0.0
C1897 C 0.15066 0.36294 0.28033 0.0
C1898 C 0.19288 0.34901 0.35614 0.0
C1899 C 0.16718 0.34357 0.31763 0.0
C1900 C 0.2024 0.33978 0.3737 0.0
C1901 C 0.19584 0.31573 0.37275 0.0
C1902 C 0.17688 0.33415 0.33727 0.0
C1903 C 0.17947 0.30138 0.3539 0.0
C1904 C 0.15468 0.32997 0.29614 0.0
C1905 C 0.16283 0.37573 0.30241 0.0
N1906 N 0.17068 0.31083 0.33682 0.0
N1907 N 0.17073 0.36593 0.32009 0.0
H1908 H 0.72908 0.90594 0.34184 0.0
H1909 H 0.62368 0.77544 0.30833 0.0
H1910 H 0.66966 0.86494 0.39223 0.0
H1911 H 0.68331 0.81635 0.25817 0.0
H1912 H 0.64016 0.808 0.33918 0.0
H1913 H 0.71253 0.87342 0.31098 0.0
C1914 C 0.7126 0.89005 0.34652 0.0
C1915 C 0.70085 0.88814 0.36984 0.0
C1916 C 0.64966 0.80989 0.32143 0.0
C1917 C 0.68162 0.85079 0.3343 0.0
C1918 C 0.64019 0.79132 0.3037 0.0
C1919 C 0.65203 0.7932 0.28046 0.0
C1920 C 0.67117 0.83058 0.31597 0.0
C1921 C 0.67366 0.81404 0.27587 0.0
C1922 C 0.70309 0.8715 0.32878 0.0
C1923 C 0.67925 0.86728 0.37448 0.0
N1924 N 0.68249 0.83193 0.29341 0.0
N1925 N 0.67038 0.84939 0.35692 0.0
H1926 H 0.21943 0.8303 0.27703 0.0
H1927 H 0.13706 0.85897 0.3665 0.0
H1928 H 0.22477 0.8991 0.27954 0.0
H1929 H 0.14086 0.79484 0.37219 0.0
H1930 H 0.16773 0.87346 0.33329 0.0
H1931 H 0.18906 0.81645 0.3102 0.0
C1932 C 0.21433 0.84259 0.28463 0.0
C1933 C 0.22496 0.86605 0.27563 0.0
C1934 C 0.16191 0.85625 0.34185 0.0
C1935 C 0.18976 0.85008 0.31358 0.0
C1936 C 0.14432 0.84791 0.36072 0.0
C1937 C 0.13628 0.82557 0.37202 0.0
C1938 C 0.17146 0.8421 0.33406 0.0
C1939 C 0.14665 0.81221 0.36413 0.0
C1940 C 0.19687 0.8346 0.30356 0.0
C1941 C 0.21704 0.88087 0.28578 0.0
N1942 N 0.1636 0.82062 0.34553 0.0
N1943 N 0.19994 0.87265 0.30428 0.0
H1944 H 0.66661 0.78372 0.86226 0.0
H1945 H 0.68741 0.896 0.77835 0.0
H1946 H 0.72878 0.85309 0.8688 0.0
H1947 H 0.62588 0.82624 0.77131 0.0
H1948 H 0.70331 0.88057 0.81097 0.0
H1949 H 0.65123 0.79914 0.82916 0.0
C1950 C 0.67696 0.80222 0.85691 0.0
C1951 C 0.69909 0.81706 0.86832 0.0
C1952 C 0.68633 0.86864 0.80225 0.0
C1953 C 0.68172 0.83483 0.83013 0.0
C1954 C 0.67734 0.87742 0.78347 0.0
C1955 C 0.65518 0.86247 0.77216 0.0
C1956 C 0.67311 0.84472 0.80975 0.0
C1957 C 0.64281 0.83856 0.77981 0.0
C1958 C 0.66825 0.81099 0.83785 0.0
C1959 C 0.71183 0.84086 0.8603 0.0
N1960 N 0.65189 0.83047 0.79812 0.0
N1961 N 0.70299 0.84898 0.84173 0.0
H1962 H 0.2294 0.8834 0.86744 0.0
H1963 H 0.11891 0.79431 0.78 0.0
H1964 H 0.16157 0.88027 0.86822 0.0
H1965 H 0.18746 0.79904 0.77759 0.0
H1966 H 0.13416 0.82581 0.81234 0.0
H1967 H 0.21406 0.85181 0.8352 0.0
C1968 C 0.21125 0.87598 0.86099 0.0
C1969 C 0.19683 0.88464 0.87049 0.0
C1970 C 0.14586 0.81994 0.80472 0.0
C1971 C 0.17917 0.84861 0.83336 0.0
C1972 C 0.13719 0.80204 0.78611 0.0
C1973 C 0.15184 0.79385 0.77611 0.0
C1974 C 0.16939 0.82977 0.81338 0.0
C1975 C 0.17535 0.80442 0.78503 0.0
C1976 C 0.20253 0.85805 0.84244 0.0
C1977 C 0.17349 0.87449 0.86116 0.0
N1978 N 0.18335 0.82176 0.80314 0.0
N1979 N 0.16542 0.85706 0.84313 0.0
H1980 H 0.13863 0.2875 0.87528 0.0
H1981 H 0.21561 0.39523 0.77942 0.0
H1982 H 0.13048 0.34915 0.86884 0.0
H1983 H 0.22067 0.33168 0.78312 0.0
H1984 H 0.18502 0.37909 0.81262 0.0
H1985 H 0.16938 0.30393 0.84238 0.0
C1986 C 0.14324 0.30448 0.86691 0.0
C1987 C 0.13172 0.31684 0.87473 0.0
C1988 C 0.19278 0.36864 0.80616 0.0
C1989 C 0.16725 0.33593 0.83703 0.0
C1990 C 0.21034 0.37789 0.78725 0.0
C1991 C 0.22088 0.36486 0.77852 0.0
C1992 C 0.18565 0.34617 0.81657 0.0
C1993 C 0.21295 0.34228 0.78907 0.0
C1994 C 0.1609 0.3139 0.84814 0.0
C1995 C 0.13893 0.33905 0.86356 0.0
N1996 N 0.1959 0.33371 0.8076 0.0
N1997 N 0.15616 0.34784 0.84521 0.0
H1998 H 0.8542 0.61907 0.67576 0.0
H1999 H 0.83346 0.72706 0.64077 0.0
H2000 H 0.87624 0.6801 0.72468 0.0
H2001 H 0.81156 0.66581 0.59219 0.0
H2002 H 0.84953 0.71044 0.67149 0.0
H2003 H 0.83881 0.63614 0.64487 0.0
C2004 C 0.85569 0.63602 0.68011 0.0
C2005 C 0.86635 0.64805 0.70304 0.0
C2006 C 0.84122 0.70063 0.65411 0.0
C2007 C 0.84893 0.6679 0.66744 0.0
C2008 C 0.83213 0.71017 0.63645 0.0
C2009 C 0.82121 0.69789 0.61371 0.0
C2010 C 0.83942 0.6786 0.64909 0.0
C2011 C 0.8196 0.67582 0.60951 0.0
C2012 C 0.847 0.64583 0.66235 0.0
C2013 C 0.86829 0.67026 0.70725 0.0
N2014 N 0.82865 0.66693 0.62699 0.0
N2015 N 0.85957 0.67943 0.68967 0.0
H2016 H 0.39702 0.23781 0.6754 0.0
H2017 H 0.29021 0.10973 0.63668 0.0
H2018 H 0.33417 0.1981 0.72163 0.0
H2019 H 0.35243 0.14956 0.58958 0.0
H2020 H 0.3062 0.14182 0.66799 0.0
H2021 H 0.38116 0.20578 0.64389 0.0
C2022 C 0.37992 0.22229 0.67903 0.0
C2023 C 0.367 0.22057 0.70139 0.0
C2024 C 0.31639 0.14362 0.65081 0.0
C2025 C 0.34859 0.18383 0.6651 0.0
C2026 C 0.30719 0.12532 0.6328 0.0
C2027 C 0.31987 0.12705 0.61024 0.0
C2028 C 0.3385 0.1639 0.64639 0.0
C2029 C 0.3421 0.14744 0.6067 0.0
C2030 C 0.37082 0.20404 0.66092 0.0
C2031 C 0.34468 0.20025 0.70466 0.0
N2032 N 0.35067 0.16511 0.62454 0.0
N2033 N 0.33623 0.18265 0.68677 0.0
H2034 H 0.90857 0.18398 0.63933 0.0
H2035 H 0.78038 0.1637 0.6767 0.0
H2036 H 0.86928 0.20658 0.59164 0.0
H2037 H 0.81978 0.141 0.72408 0.0
H2038 H 0.81269 0.17961 0.64552 0.0
H2039 H 0.87633 0.16834 0.67053 0.0
C2040 C 0.89309 0.18554 0.63529 0.0
C2041 C 0.89158 0.19644 0.6126 0.0
C2042 C 0.81431 0.17118 0.66273 0.0
C2043 C 0.85454 0.17872 0.64863 0.0
C2044 C 0.79588 0.16217 0.68068 0.0
C2045 C 0.79738 0.15112 0.70326 0.0
C2046 C 0.83449 0.16916 0.66727 0.0
C2047 C 0.81774 0.14921 0.70694 0.0
C2048 C 0.8747 0.17669 0.65325 0.0
C2049 C 0.87128 0.19844 0.60886 0.0
N2050 N 0.8355 0.1582 0.68919 0.0
N2051 N 0.85353 0.18959 0.62664 0.0
H2052 H 0.95586 0.51588 0.47199 0.0
H2053 H 0.0621 0.49261 0.50765 0.0
H2054 H 0.01668 0.53628 0.42314 0.0
H2055 H 1.00186 0.47348 0.55704 0.0
H2056 H 0.04559 0.50827 0.47634 0.0
H2057 H 0.97227 0.49999 0.5031 0.0
C2058 C 0.97261 0.51689 0.4677 0.0
C2059 C 0.9848 0.52725 0.44474 0.0
C2060 C 0.03596 0.50066 0.49402 0.0
C2061 C 1.00388 0.50925 0.48058 0.0
C2062 C 0.04544 0.49179 0.51201 0.0
C2063 C 0.03346 0.48187 0.53519 0.0
C2064 C 0.01429 0.49963 0.49914 0.0
C2065 C 0.01164 0.48082 0.53941 0.0
C2066 C 0.98205 0.50791 0.48559 0.0
C2067 C 1.00675 0.52857 0.4406 0.0
N2068 N 1.00281 0.48966 0.52161 0.0
N2069 N 0.01554 0.5196 0.45831 0.0
H2070 H 0.49427 0.54297 0.54265 0.0
H2071 H 0.52503 0.46583 0.44685 0.0
H2072 H 0.56372 0.55012 0.53702 0.0
H2073 H 0.45591 0.45953 0.45209 0.0
H2074 H 0.53945 0.4964 0.48004 0.0
H2075 H 0.47984 0.51199 0.50999 0.0
C2076 C 0.50653 0.53807 0.53452 0.0
C2077 C 0.53033 0.54935 0.54249 0.0
C2078 C 0.52113 0.48835 0.47393 0.0
C2079 C 0.51381 0.51363 0.50507 0.0
C2080 C 0.51284 0.4708 0.45502 0.0
C2081 C 0.48914 0.45994 0.44671 0.0
C2082 C 0.50566 0.49517 0.48471 0.0
C2083 C 0.47433 0.46751 0.45769 0.0
C2084 C 0.49824 0.52028 0.5159 0.0
C2085 C 0.54523 0.54184 0.53161 0.0
N2086 N 0.48281 0.48458 0.47617 0.0
N2087 N 0.53675 0.52452 0.51338 0.0
H2088 H 0.55011 0.06186 0.44706 0.0
H2089 H 0.47065 0.95207 0.53947 0.0
H2090 H 0.55488 0.99811 0.44957 0.0
H2091 H 0.46487 0.01522 0.53593 0.0
H2092 H 0.5019 0.9689 0.50711 0.0
H2093 H 0.51924 0.04529 0.47986 0.0
C2094 C 0.54475 0.0444 0.45457 0.0
C2095 C 0.55528 0.03143 0.44562 0.0
C2096 C 0.49384 0.97911 0.5134 0.0
C2097 C 0.51966 0.01222 0.48317 0.0
C2098 C 0.47589 0.96947 0.53184 0.0
C2099 C 0.46492 0.98216 0.54032 0.0
C2100 C 0.50098 1.00168 0.50327 0.0
C2101 C 0.47289 1.00487 0.53012 0.0
C2102 C 0.52701 0.0349 0.47326 0.0
C2103 C 0.54718 0.00867 0.45573 0.0
N2104 N 0.49036 0.01385 0.51206 0.0
N2105 N 0.52991 0.99982 0.47402 0.0
H2106 H 0.52296 0.95324 0.00623 0.0
H2107 H 0.4984 0.0588 0.97161 0.0
H2108 H 0.54189 0.01327 0.05582 0.0
H2109 H 0.47849 0.99841 0.92229 0.0
H2110 H 0.51449 0.04242 0.00251 0.0
H2111 H 0.50684 0.96954 0.97521 0.0
C2112 C 0.52363 0.96981 0.0107 0.0
C2113 C 0.53364 0.9818 0.03385 0.0
C2114 C 0.50663 0.03272 0.98494 0.0
C2115 C 0.51536 1.00072 -0.00187 0.0
C2116 C 0.49753 0.04213 0.96718 0.0
C2117 C 0.48727 0.03008 0.94413 0.0
C2118 C 0.50551 0.01103 0.97973 0.0
C2119 C 0.48612 0.00824 0.93982 0.0
C2120 C 0.51451 0.97916 -0.00713 0.0
C2121 C 0.5345 1.00349 0.03821 0.0
N2122 N 0.49522 0.99946 0.9574 0.0
N2123 N 0.5254 0.01221 0.02057 0.0
H2124 H 0.95777 0.46692 0.94232 0.0
H2125 H 0.06734 0.54827 0.03429 0.0
H2126 H 0.02114 0.46152 0.94669 0.0
H2127 H 1.0023 0.55075 0.03243 0.0
H2128 H 0.05117 0.51712 0.00172 0.0
H2129 H 0.97425 0.49821 0.97458 0.0
C2130 C 0.97513 0.47222 0.95012 0.0
C2131 C 0.98798 0.46134 0.94187 0.0
C2132 C 0.04042 0.52445 0.00844 0.0
C2133 C 1.00714 0.49754 0.97882 0.0
C2134 C 0.04968 0.54235 0.02698 0.0
C2135 C 0.03622 0.5523 0.03608 0.0
C2136 C 0.01749 0.51639 -0.00121 0.0
C2137 C 0.01326 0.54351 0.0262 0.0
C2138 C 0.98459 0.49021 0.96851 0.0
C2139 C 0.01065 0.46945 0.95231 0.0
N2140 N 1.00467 0.52614 0.00804 0.0
N2141 N 0.01947 0.48699 0.97029 0.0
H2142 H 0.46518 0.44995 0.035 0.0
H2143 H 0.55232 0.55885 0.94454 0.0
H2144 H 0.46652 0.5169 0.0332 0.0
H2145 H 0.55052 0.49169 0.94631 0.0
H2146 H 0.52034 0.54362 0.97638 0.0
H2147 H 0.49651 0.46499 0.00251 0.0
C2148 C 0.47211 0.46784 0.02791 0.0
C2149 C 0.46306 0.4821 0.03687 0.0
C2150 C 0.52695 0.53222 0.96977 0.0
C2151 C 0.49885 0.49943 -0.00062 0.0
C2152 C 0.54512 0.54087 0.95146 0.0
C2153 C 0.55429 0.52662 0.9428 0.0
C2154 C 0.51781 0.50911 0.97949 0.0
C2155 C 0.54437 0.5035 0.95271 0.0
C2156 C 0.48992 0.47639 0.00921 0.0
C2157 C 0.47261 0.50509 0.02665 0.0
N2158 N 0.52675 0.49551 0.9705 0.0
N2159 N 0.48995 0.51301 0.0085 0.0
H2160 H 0.1972 0.05612 0.929 0.0
H2161 H 0.24779 0.13339 0.05467 0.0
H2162 H 0.23015 0.03746 0.98946 0.0
H2163 H 0.2402 0.16334 0.9838 0.0
H2164 H 0.24068 0.09788 0.03144 0.0
H2165 H 0.21182 0.09507 0.94881 0.0
C2166 C 0.20755 0.06029 0.94648 0.0
C2167 C 0.21223 0.04349 0.95785 0.0
C2168 C 0.24081 0.11228 0.02086 0.0
C2169 C 0.22901 0.08798 0.9806 0.0
C2170 C 0.24474 0.13251 0.03412 0.0
C2171 C 0.24436 0.15121 0.02111 0.0
C2172 C 0.23596 0.11045 -0.00556 0.0
C2173 C 0.24061 0.14928 -0.00551 0.0
C2174 C 0.21605 0.08257 0.95763 0.0
C2175 C 0.22613 0.04992 0.98017 0.0
N2176 N 0.23617 0.12904 0.98204 0.0
N2177 N 0.23376 0.07157 0.99105 0.0
H2178 H 0.8837 0.11393 0.05529 0.0
H2179 H 0.96023 0.14411 0.92809 0.0
H2180 H 0.85316 0.07907 0.98332 0.0
H2181 H 0.98011 0.1932 -0.00865 0.0
H2182 H 0.9215 0.11923 0.94818 0.0
H2183 H 0.91957 0.14235 0.03261 0.0
C2184 C 0.88453 0.11232 0.03463 0.0
C2185 C 0.86551 0.09401 0.02114 0.0
C2186 C 0.93424 0.13552 0.95758 0.0
C2187 C 0.90671 0.12644 -0.00492 0.0
C2188 C 0.9564 0.14962 0.94626 0.0
C2189 C 0.97347 0.17058 0.95828 0.0
C2190 C 0.9292 0.14221 0.98135 0.0
C2191 C 0.96744 0.17717 0.98151 0.0
C2192 C 0.90499 0.12865 0.02169 0.0
C2193 C 0.86744 0.09293 -0.0056 0.0
N2194 N 0.94589 0.16286 -0.00752 0.0
N2195 N 0.88786 0.10876 0.98224 0.0
H2196 H 0.92317 0.80229 0.05482 0.0
H2197 H 0.82484 0.77087 0.9471 0.0
H2198 H 0.91177 0.75108 -0.00428 0.0
H2199 H 0.86155 0.83788 0.98668 0.0
H2200 H 0.85109 0.75873 0.96833 0.0
H2201 H 0.89516 0.81089 0.03367 0.0
C2202 C 0.91472 0.79277 0.03733 0.0
C2203 C 0.9199 0.77594 0.027 0.0
C2204 C 0.85327 0.77603 0.97234 0.0
C2205 C 0.88745 0.78578 0.00258 0.0
C2206 C 0.83821 0.78283 0.9605 0.0
C2207 C 0.84113 0.80539 0.96523 0.0
C2208 C 0.87094 0.79178 0.98932 0.0
C2209 C 0.85885 0.82042 0.98243 0.0
C2210 C 0.89873 0.79778 0.02521 0.0
C2211 C 0.90838 0.76428 0.00422 0.0
N2212 N 0.87297 0.81333 -0.00611 0.0
N2213 N 0.89252 0.76935 -0.00726 0.0
H2214 H 0.17094 0.24099 0.49839 0.0
H2215 H 0.0403 0.22438 0.48964 0.0
H2216 H 0.13692 0.2397 0.42676 0.0
H2217 H 0.06305 0.19768 0.55276 0.0
H2218 H 0.07909 0.23841 0.46896 0.0
H2219 H 0.13461 0.2332 0.52139 0.0
C2220 C 0.15595 0.23932 0.48758 0.0
C2221 C 0.15679 0.24073 0.46067 0.0
C2222 C 0.07558 0.22957 0.48741 0.0
C2223 C 0.11555 0.23217 0.48667 0.0
C2224 C 0.05354 0.22169 0.49921 0.0
C2225 C 0.0484 0.20959 0.52272 0.0
C2226 C 0.09271 0.22571 0.49949 0.0
C2227 C 0.06618 0.20653 0.53437 0.0
C2228 C 0.13525 0.2348 0.50065 0.0
C2229 C 0.13689 0.23843 0.44753 0.0
N2230 N 0.08752 0.21451 0.52267 0.0
N2231 N 0.11712 0.23429 0.46063 0.0
H2232 H 0.80402 0.92147 0.42696 0.0
H2233 H 0.77508 0.82418 0.53553 0.0
H2234 H 0.75635 0.91234 0.48931 0.0
H2235 H 0.83919 0.85714 0.49047 0.0
H2236 H 0.76299 0.85093 0.51539 0.0
H2237 H 0.81217 0.89259 0.44666 0.0
C2238 C 0.7952 0.91336 0.44488 0.0
C2239 C 0.77951 0.91943 0.45655 0.0
C2240 C 0.77963 0.85215 0.5099 0.0
C2241 C 0.78882 0.88597 0.47932 0.0
C2242 C 0.78636 0.83679 0.52112 0.0
C2243 C 0.80813 0.83856 0.51455 0.0
C2244 C 0.79463 0.86895 0.49172 0.0
C2245 C 0.82235 0.85534 0.4961 0.0
C2246 C 0.79994 0.89685 0.45616 0.0
C2247 C 0.7687 0.90828 0.47981 0.0
N2248 N 0.81534 0.8698 0.48532 0.0
N2249 N 0.7735 0.89193 0.49046 0.0
H2250 H 0.08341 0.84718 0.50018 0.0
H2251 H 0.20069 0.97522 0.49154 0.0
H2252 H 0.1187 0.87968 0.42898 0.0
H2253 H 0.14894 0.95635 0.55193 0.0
H2254 H 0.17578 0.93594 0.47211 0.0
H2255 H 0.11244 0.88326 0.52328 0.0
C2256 C 0.09741 0.86176 0.48952 0.0
C2257 C 0.09856 0.86068 0.46269 0.0
C2258 C 0.16999 0.94039 0.48973 0.0
C2259 C 0.13174 0.90146 0.48873 0.0
C2260 C 0.18422 0.9627 0.5008 0.0
C2261 C 0.17664 0.96908 0.52309 0.0
C2262 C 0.14828 0.92426 0.50132 0.0
C2263 C 0.15513 0.95223 0.53443 0.0
C2264 C 0.11385 0.88229 0.50262 0.0
C2265 C 0.117 0.87998 0.44968 0.0
N2266 N 0.14167 0.93059 0.52342 0.0
N2267 N 0.13286 0.89955 0.4628 0.0
H2268 H 0.78901 0.97517 0.9909 0.0
H2269 H 0.776 0.84605 -0.00254 0.0
H2270 H 0.82155 0.95464 0.05009 0.0
H2271 H 0.76975 0.87785 0.92733 0.0
H2272 H 0.78458 0.88244 0.02079 0.0
H2273 H 0.77368 0.93599 0.97094 0.0
C2274 C 0.79275 0.96235 -0.00023 0.0
C2275 C 0.80682 0.96822 0.02194 0.0
C2276 C 0.78109 0.88127 0.00033 0.0
C2277 C 0.78922 0.92345 -0.0005 0.0
C2278 C 0.77608 0.86052 0.9871 0.0
C2279 C 0.77239 0.85911 0.96047 0.0
C2280 C 0.78196 0.90042 0.98681 0.0
C2281 C 0.77277 0.87836 0.94786 0.0
C2282 C 0.7841 0.94007 0.98838 0.0
C2283 C 0.81117 0.95096 0.0327 0.0
N2284 N 0.7775 0.89821 0.96111 0.0
N2285 N 0.80242 0.92936 0.0214 0.0
H2286 H 0.06041 0.82376 0.03589 0.0
H2287 H 0.12844 0.92096 0.92716 0.0
H2288 H 0.02961 0.858 -0.0075 0.0
H2289 H 0.16723 0.91093 0.98849 0.0
H2290 H 0.09147 0.89253 0.94741 0.0
H2291 H 0.09906 0.85006 0.01513 0.0
C2292 C 0.06177 0.83655 0.0217 0.0
C2293 C 0.04193 0.83881 0.01578 0.0
C2294 C 0.108 0.8965 0.95656 0.0
C2295 C 0.08561 0.86871 -0.00773 0.0
C2296 C 0.12921 0.91274 0.94497 0.0
C2297 C 0.15102 0.91841 0.95619 0.0
C2298 C 0.10835 0.88548 0.97956 0.0
C2299 C 0.15078 0.90717 0.97933 0.0
C2300 C 0.08376 0.85166 0.01014 0.0
C2301 C 0.04452 0.85581 -0.00239 0.0
N2302 N 0.12969 0.89108 0.99028 0.0
N2303 N 0.06589 0.87002 0.98649 0.0
H2304 H 0.20035 0.22709 -0.00708 0.0
H2305 H 0.08194 0.23616 -0.00014 0.0
H2306 H 0.14737 0.19299 0.05193 0.0
H2307 H 0.12019 0.24337 0.92956 0.0
H2308 H 0.11044 0.22848 0.02303 0.0
H2309 H 0.17562 0.24152 0.97313 0.0
C2310 C 0.18363 0.22286 0.0018 0.0
C2311 C 0.1757 0.20859 0.02383 0.0
C2312 C 0.11262 0.23194 0.00256 0.0
C2313 C 0.14752 0.22511 0.00161 0.0
C2314 C 0.09647 0.23641 0.98942 0.0
C2315 C 0.09862 0.24013 0.96278 0.0
C2316 C 0.1312 0.23167 0.98897 0.0
C2317 C 0.11774 0.24026 0.95007 0.0
C2318 C 0.16951 0.23098 0.9905 0.0
C2319 C 0.15387 0.20357 0.03464 0.0
N2320 N 0.13327 0.23608 0.96326 0.0
N2321 N 0.14053 0.21179 0.02343 0.0
H2322 H 0.88974 0.79512 0.55528 0.0
H2323 H 0.95301 0.76645 0.44019 0.0
H2324 H 0.84918 0.7509 0.49157 0.0
H2325 H 0.98788 0.8264 0.49096 0.0
H2326 H 0.91489 0.75491 0.46196 0.0
H2327 H 0.92584 0.80121 0.53506 0.0
C2328 C 0.88837 0.78662 0.53695 0.0
C2329 C 0.86632 0.77255 0.52504 0.0
C2330 C 0.93097 0.77041 0.46847 0.0
C2331 C 0.90808 0.77954 0.50161 0.0
C2332 C 0.95261 0.77677 0.45632 0.0
C2333 C 0.97339 0.79718 0.46417 0.0
C2334 C 0.93044 0.78451 0.48867 0.0
C2335 C 0.97217 0.81043 0.48466 0.0
C2336 C 0.90912 0.79016 0.52538 0.0
C2337 C 0.86584 0.76203 0.50129 0.0
N2338 N 0.95109 0.80387 0.49619 0.0
N2339 N 0.8865 0.76573 0.49027 0.0
H2340 H 0.24602 0.0814 0.48182 0.0
H2341 H 0.23092 0.19635 0.49001 0.0
H2342 H 0.24373 0.11424 0.55301 0.0
H2343 H 0.20866 0.14966 0.42439 0.0
H2344 H 0.24386 0.17098 0.51112 0.0
H2345 H 0.23995 0.11074 0.45822 0.0
C2346 C 0.24443 0.09487 0.49242 0.0
C2347 C 0.24512 0.09526 0.51937 0.0
C2348 C 0.23628 0.1664 0.49202 0.0
C2349 C 0.23852 0.12888 0.49269 0.0
C2350 C 0.22906 0.18094 0.47995 0.0
C2351 C 0.21844 0.1749 0.45561 0.0
C2352 C 0.23315 0.14587 0.47948 0.0
C2353 C 0.21635 0.15467 0.44339 0.0
C2354 C 0.24092 0.11153 0.47901 0.0
C2355 C 0.24301 0.11311 0.53223 0.0
N2356 N 0.22356 0.14084 0.45547 0.0
N2357 N 0.23982 0.12917 0.5188 0.0
H2358 H 0.93755 0.16569 0.48467 0.0
H2359 H 0.82032 0.03762 0.49329 0.0
H2360 H 0.90282 0.13335 0.55617 0.0
H2361 H 0.87137 0.05772 0.43196 0.0
H2362 H 0.84551 0.07656 0.51347 0.0
H2363 H 0.90835 0.12971 0.46179 0.0
C2364 C 0.92366 0.15114 0.49547 0.0
C2365 C 0.92271 0.15232 0.52231 0.0
C2366 C 0.85107 0.07244 0.4955 0.0
C2367 C 0.88929 0.11152 0.49646 0.0
C2368 C 0.83669 0.05034 0.484 0.0
C2369 C 0.84401 0.04443 0.4612 0.0
C2370 C 0.87263 0.08881 0.48379 0.0
C2371 C 0.86538 0.06149 0.44983 0.0
C2372 C 0.9071 0.13065 0.48248 0.0
C2373 C 0.90436 0.13302 0.53546 0.0
N2374 N 0.87896 0.0829 0.46123 0.0
N2375 N 0.88838 0.11343 0.52243 0.0
H2376 H 0.9057 0.46264 0.38828 0.0
H2377 H 0.88805 0.4008 0.25243 0.0
H2378 H 0.91736 0.50078 0.31697 0.0
H2379 H 0.89545 0.37007 0.32266 0.0
H2380 H 0.89999 0.43798 0.2752 0.0
H2381 H 0.9025 0.42891 0.3645 0.0
C2382 C 0.90759 0.46393 0.36756 0.0
C2383 C 0.91155 0.48449 0.35453 0.0
C2384 C 0.89936 0.42327 0.28561 0.0
C2385 C 0.9079 0.44577 0.32713 0.0
C2386 C 0.89253 0.40207 0.27264 0.0
C2387 C 0.89059 0.38236 0.28581 0.0
C2388 C 0.90392 0.42467 0.3121 0.0
C2389 C 0.8968 0.38491 0.31187 0.0
C2390 C 0.90592 0.44468 0.35401 0.0
C2391 C 0.91416 0.48523 0.32773 0.0
N2392 N 0.90282 0.40558 0.3243 0.0
N2393 N 0.91203 0.46602 0.31486 0.0
H2394 H 0.62426 0.47707 0.26139 0.0
H2395 H 0.54885 0.44808 0.38949 0.0
H2396 H 0.64494 0.52618 0.32472 0.0
H2397 H 0.51788 0.41182 0.31828 0.0
H2398 H 0.58437 0.47636 0.36623 0.0
H2399 H 0.58567 0.45238 0.28183 0.0
C2400 C 0.62066 0.48263 0.27965 0.0
C2401 C 0.63795 0.50356 0.29157 0.0
C2402 C 0.56978 0.4624 0.35558 0.0
C2403 C 0.59375 0.4754 0.31503 0.0
C2404 C 0.54951 0.44616 0.36885 0.0
C2405 C 0.53048 0.42748 0.35577 0.0
C2406 C 0.57133 0.45975 0.32902 0.0
C2407 C 0.53217 0.42598 0.32904 0.0
C2408 C 0.59855 0.46864 0.29117 0.0
C2409 C 0.63215 0.5102 0.31492 0.0
N2410 N 0.55244 0.44174 0.31655 0.0
N2411 N 0.61065 0.49601 0.32605 0.0
H2412 H 0.49199 0.10623 0.28239 0.0
H2413 H 0.59359 0.13846 0.38562 0.0
H2414 H 0.53322 0.17551 0.31636 0.0
H2415 H 0.57892 0.08523 0.32788 0.0
H2416 H 0.5663 0.14817 0.36442 0.0
H2417 H 0.51846 0.09408 0.30294 0.0
C2418 C 0.50644 0.11873 0.29441 0.0
C2419 C 0.5105 0.14188 0.2978 0.0
C2420 C 0.56902 0.13439 0.35629 0.0
C2421 C 0.54056 0.12824 0.32111 0.0
C2422 C 0.58456 0.12875 0.36842 0.0
C2423 C 0.58854 0.111 0.35847 0.0
C2424 C 0.55696 0.12201 0.33413 0.0
C2425 C 0.57641 0.09913 0.33605 0.0
C2426 C 0.52161 0.11191 0.30584 0.0
C2427 C 0.5296 0.15757 0.31319 0.0
N2428 N 0.56094 0.10473 0.32465 0.0
N2429 N 0.54381 0.15044 0.32438 0.0
H2430 H 0.80157 0.57254 0.75904 0.0
H2431 H 0.72957 0.53185 0.88964 0.0
H2432 H 0.83471 0.57281 0.83095 0.0
H2433 H 0.70557 0.555 0.82443 0.0
H2434 H 0.76782 0.54583 0.86842 0.0
H2435 H 0.76607 0.56544 0.78236 0.0
C2436 C 0.8014 0.57122 0.77982 0.0
C2437 C 0.82103 0.57308 0.79311 0.0
C2438 C 0.75429 0.54804 0.85881 0.0
C2439 C 0.78028 0.56472 0.81991 0.0
C2440 C 0.73239 0.53989 0.8708 0.0
C2441 C 0.7143 0.54201 0.85858 0.0
C2442 C 0.75805 0.55808 0.83419 0.0
C2443 C 0.71905 0.55302 0.83444 0.0
C2444 C 0.78115 0.56727 0.79311 0.0
C2445 C 0.81993 0.57146 0.82 0.0
N2446 N 0.74039 0.56038 0.82286 0.0
N2447 N 0.79973 0.56705 0.83253 0.0
H2448 H 0.45643 0.14918 0.82341 0.0
H2449 H 0.44045 0.26353 0.83226 0.0
H2450 H 0.48497 0.19993 0.88526 0.0
H2451 H 0.438 0.22848 0.76098 0.0
H2452 H 0.44846 0.23516 0.85518 0.0
H2453 H 0.44124 0.17315 0.80331 0.0
C2454 C 0.4593 0.16524 0.83282 0.0
C2455 C 0.47224 0.1728 0.85579 0.0
C2456 C 0.44593 0.23361 0.83455 0.0
C2457 C 0.4548 0.20007 0.83323 0.0
C2458 C 0.44125 0.24967 0.82154 0.0
C2459 C 0.43879 0.24842 0.79473 0.0
C2460 C 0.44774 0.21603 0.82062 0.0
C2461 C 0.44006 0.2302 0.78166 0.0
C2462 C 0.45073 0.17893 0.82136 0.0
C2463 C 0.47549 0.19376 0.86727 0.0
N2464 N 0.44447 0.21475 0.79471 0.0
N2465 N 0.46686 0.20668 0.85588 0.0
H2466 H 0.81601 0.29031 0.88538 0.0
H2467 H 0.78661 0.213 0.75934 0.0
H2468 H 0.86661 0.30904 0.82379 0.0
H2469 H 0.75207 0.18248 0.83145 0.0
H2470 H 0.81519 0.24888 0.78198 0.0
H2471 H 0.79134 0.2514 0.86558 0.0
C2472 C 0.8219 0.28617 0.86765 0.0
C2473 C 0.84322 0.30296 0.856 0.0
C2474 C 0.80153 0.23428 0.79292 0.0
C2475 C 0.81509 0.25853 0.83323 0.0
C2476 C 0.78513 0.21383 0.78002 0.0
C2477 C 0.76687 0.19483 0.79357 0.0
C2478 C 0.7994 0.236 0.81955 0.0
C2479 C 0.76591 0.19675 0.82034 0.0
C2480 C 0.80793 0.26392 0.8565 0.0
C2481 C 0.85029 0.29658 0.83332 0.0
N2482 N 0.78177 0.21716 0.83245 0.0
N2483 N 0.83607 0.27496 0.82245 0.0
H2484 H 0.44285 0.17971 0.3318 0.0
H2485 H 0.4516 0.30701 0.32715 0.0
H2486 H 0.43588 0.21134 0.26189 0.0
H2487 H 0.48737 0.28817 0.38414 0.0
H2488 H 0.43665 0.26784 0.30706 0.0
H2489 H 0.45023 0.21555 0.35544 0.0
C2490 C 0.44254 0.19403 0.32155 0.0
C2491 C 0.43901 0.19274 0.29489 0.0
C2492 C 0.44764 0.27227 0.32409 0.0
C2493 C 0.44714 0.23341 0.32162 0.0
C2494 C 0.45604 0.29451 0.33556 0.0
C2495 C 0.47095 0.30084 0.35707 0.0
C2496 C 0.45384 0.25619 0.33457 0.0
C2497 C 0.47626 0.28406 0.36728 0.0
C2498 C 0.44684 0.21446 0.33496 0.0
C2499 C 0.43883 0.21178 0.28243 0.0
N2500 N 0.46774 0.2625 0.35595 0.0
N2501 N 0.44286 0.23133 0.29588 0.0
H2502 H 0.79573 0.26683 0.26928 0.0
H2503 H 0.72694 0.15811 0.36613 0.0
H2504 H 0.83339 0.24401 0.31921 0.0
H2505 H 0.69667 0.19724 0.33188 0.0
H2506 H 0.76542 0.18592 0.34611 0.0
H2507 H 0.75866 0.23855 0.28973 0.0
C2508 C 0.79618 0.25594 0.28478 0.0
C2509 C 0.81763 0.25779 0.29266 0.0
C2510 C 0.75028 0.1883 0.34296 0.0
C2511 C 0.77502 0.22493 0.316 0.0
C2512 C 0.72837 0.17233 0.35408 0.0
C2513 C 0.70874 0.17551 0.3506 0.0
C2514 C 0.7523 0.20724 0.32805 0.0
C2515 C 0.71144 0.19433 0.33517 0.0
C2516 C 0.77497 0.23975 0.29644 0.0
C2517 C 0.81719 0.24324 0.31281 0.0
N2518 N 0.73276 0.20943 0.32448 0.0
N2519 N 0.79611 0.22719 0.32372 0.0
H2520 H 0.8126 0.52437 0.38602 0.0
H2521 H 0.78591 0.57861 0.26357 0.0
H2522 H 0.86562 0.56281 0.32823 0.0
H2523 H 0.74635 0.56661 0.33391 0.0
H2524 H 0.81473 0.57193 0.28653 0.0
H2525 H 0.78745 0.53852 0.36717 0.0
C2526 C 0.81894 0.53588 0.36937 0.0
C2527 C 0.84107 0.54224 0.35843 0.0
C2528 C 0.79991 0.57098 0.29705 0.0
C2529 C 0.81241 0.55841 0.33675 0.0
C2530 C 0.78336 0.57465 0.28395 0.0
C2531 C 0.76363 0.57293 0.29688 0.0
C2532 C 0.79648 0.56503 0.32321 0.0
C2533 C 0.76133 0.56805 0.32329 0.0
C2534 C 0.80468 0.54408 0.35877 0.0
C2535 C 0.84868 0.55751 0.33718 0.0
N2536 N 0.77741 0.56389 0.33557 0.0
N2537 N 0.8342 0.56481 0.32677 0.0
H2538 H 0.64637 0.11864 0.8259 0.0
H2539 H 0.51852 0.10861 0.81696 0.0
H2540 H 0.62769 0.152 0.76593 0.0
H2541 H 0.54965 0.10378 0.88827 0.0
H2542 H 0.55494 0.11617 0.79433 0.0
H2543 H 0.60712 0.1045 0.84552 0.0
C2544 C 0.63391 0.12276 0.81678 0.0
C2545 C 0.64032 0.13675 0.79453 0.0
C2546 C 0.55363 0.11326 0.81492 0.0
C2547 C 0.59553 0.12053 0.8165 0.0
C2548 C 0.53288 0.10886 0.82775 0.0
C2549 C 0.53123 0.10583 0.8545 0.0
C2550 C 0.57255 0.11411 0.82892 0.0
C2551 C 0.55033 0.10634 0.86765 0.0
C2552 C 0.61161 0.11481 0.82797 0.0
C2553 C 0.62355 0.14163 0.78338 0.0
N2554 N 0.57017 0.1104 0.85476 0.0
N2555 N 0.60193 0.13355 0.79446 0.0
H2556 H 0.8608 0.47486 0.7649 0.0
H2557 H 0.91746 0.45073 0.88717 0.0
H2558 H 0.89782 0.52824 0.82278 0.0
H2559 H 0.90656 0.41172 0.81666 0.0
H2560 H 0.90935 0.47872 0.86445 0.0
H2561 H 0.87597 0.45066 0.78393 0.0
C2562 C 0.87213 0.48145 0.78167 0.0
C2563 C 0.87785 0.50343 0.79252 0.0
C2564 C 0.90898 0.46423 0.85383 0.0
C2565 C 0.89529 0.47588 0.81434 0.0
C2566 C 0.91351 0.44819 0.86678 0.0
C2567 C 0.91251 0.42883 0.85374 0.0
C2568 C 0.90288 0.46064 0.82771 0.0
C2569 C 0.90753 0.42645 0.82735 0.0
C2570 C 0.88095 0.46775 0.79235 0.0
C2571 C 0.89298 0.51139 0.81389 0.0
N2572 N 0.90251 0.44199 0.81523 0.0
N2573 N 0.90093 0.49746 0.82434 0.0
H2574 H 0.4937 0.38983 0.78256 0.0
H2575 H 0.59396 0.4582 0.88823 0.0
H2576 H 0.52889 0.35882 0.82387 0.0
H2577 H 0.58183 0.49648 0.828 0.0
H2578 H 0.56542 0.42103 0.86824 0.0
H2579 H 0.52091 0.42848 0.80263 0.0
C2580 C 0.50693 0.39115 0.79613 0.0
C2581 C 0.50916 0.37124 0.80165 0.0
C2582 C 0.56899 0.4375 0.85927 0.0
C2583 C 0.5401 0.41496 0.82439 0.0
C2584 C 0.58528 0.45879 0.87069 0.0
C2585 C 0.59033 0.48049 0.85971 0.0
C2586 C 0.55728 0.43771 0.83674 0.0
C2587 C 0.57855 0.4801 0.83694 0.0
C2588 C 0.52255 0.41315 0.8073 0.0
C2589 C 0.52672 0.3738 0.81903 0.0
N2590 N 0.56238 0.45896 0.82622 0.0
N2591 N 0.54144 0.39519 0.82981 0.0
H2592 H 0.58281 0.8017 0.71871 0.0
H2593 H 0.52938 0.72208 0.59508 0.0
H2594 H 0.57263 0.83034 0.64821 0.0
H2595 H 0.56642 0.70621 0.65338 0.0
H2596 H 0.54364 0.7612 0.61443 0.0
H2597 H 0.57565 0.7661 0.69561 0.0
C2598 C 0.57916 0.80051 0.69827 0.0
C2599 C 0.57812 0.81889 0.68534 0.0
C2600 C 0.54886 0.74928 0.62284 0.0
C2601 C 0.56965 0.778 0.65882 0.0
C2602 C 0.54059 0.72691 0.61195 0.0
C2603 C 0.54656 0.71085 0.62285 0.0
C2604 C 0.56285 0.75549 0.64512 0.0
C2605 C 0.56145 0.71809 0.64442 0.0
C2606 C 0.57521 0.78023 0.68508 0.0
C2607 C 0.57358 0.81655 0.65884 0.0
N2608 N 0.56882 0.73978 0.65509 0.0
N2609 N 0.56914 0.79626 0.64648 0.0
H2610 H 0.31419 0.86112 0.65798 0.0
H2611 H 0.18246 0.74915 0.64886 0.0
H2612 H 0.29002 0.81184 0.59461 0.0
H2613 H 0.21587 0.78276 0.7204 0.0
H2614 H 0.21903 0.77704 0.62599 0.0
H2615 H 0.27525 0.83737 0.67862 0.0
C2616 C 0.30063 0.84542 0.64837 0.0
C2617 C 0.30539 0.83822 0.62478 0.0
C2618 C 0.21822 0.77837 0.64669 0.0
C2619 C 0.26092 0.81119 0.64797 0.0
C2620 C 0.19736 0.76258 0.65967 0.0
C2621 C 0.19627 0.76356 0.68652 0.0
C2622 C 0.23788 0.79543 0.66068 0.0
C2623 C 0.21608 0.78124 0.69968 0.0
C2624 C 0.27849 0.83184 0.66014 0.0
C2625 C 0.28721 0.81772 0.61307 0.0
N2626 N 0.23607 0.79645 0.68665 0.0
N2627 N 0.2658 0.80492 0.62477 0.0
H2628 H 0.15938 0.43926 0.61795 0.0
H2629 H 0.26428 0.47459 0.71826 0.0
H2630 H 0.19944 0.50836 0.65261 0.0
H2631 H 0.24643 0.41878 0.66289 0.0
H2632 H 0.2363 0.48379 0.69784 0.0
H2633 H 0.18654 0.42775 0.63803 0.0
C2634 C 0.17368 0.45183 0.63008 0.0
C2635 C 0.17726 0.47476 0.63374 0.0
C2636 C 0.2385 0.46958 0.68999 0.0
C2637 C 0.20818 0.46192 0.65642 0.0
C2638 C 0.25447 0.46428 0.70167 0.0
C2639 C 0.25769 0.44591 0.6922 0.0
C2640 C 0.22527 0.45625 0.66879 0.0
C2641 C 0.24455 0.43321 0.67061 0.0
C2642 C 0.18926 0.44539 0.64123 0.0
C2643 C 0.19618 0.49058 0.64925 0.0
N2644 N 0.22868 0.4385 0.65966 0.0
N2645 N 0.21085 0.48385 0.66006 0.0
H2646 H 0.50309 0.92839 0.15359 0.0
H2647 H 0.36424 0.83806 0.1616 0.0
H2648 H 0.46353 0.87676 0.09481 0.0
H2649 H 0.3946 0.9068 0.1974 0.0
H2650 H 0.4024 0.84992 0.14117 0.0
H2651 H 0.46521 0.9188 0.17451 0.0
C2652 C 0.48652 0.91505 0.14518 0.0
C2653 C 0.4864 0.90338 0.12245 0.0
C2654 C 0.40074 0.86251 0.15336 0.0
C2655 C 0.44346 0.89229 0.14615 0.0
C2656 C 0.379 0.85572 0.165 0.0
C2657 C 0.37636 0.87153 0.18102 0.0
C2658 C 0.42018 0.88516 0.15814 0.0
C2659 C 0.39599 0.89426 0.18487 0.0
C2660 C 0.46499 0.90972 0.15698 0.0
C2661 C 0.46447 0.88631 0.11223 0.0
N2662 N 0.41725 0.90038 0.17368 0.0
N2663 N 0.44398 0.8812 0.12422 0.0
H2664 H 0.14347 0.59391 0.09714 0.0
H2665 H 0.10787 0.49038 0.19967 0.0
H2666 H 0.08851 0.57781 0.15315 0.0
H2667 H 0.17589 0.52795 0.16215 0.0
H2668 H 0.09658 0.51763 0.17931 0.0
H2669 H 0.15193 0.56545 0.11753 0.0
C2670 C 0.13317 0.58438 0.11386 0.0
C2671 C 0.11527 0.58826 0.1235 0.0
C2672 C 0.11392 0.51977 0.17553 0.0
C2673 C 0.12482 0.55527 0.14697 0.0
C2674 C 0.12023 0.50413 0.18686 0.0
C2675 C 0.14282 0.50702 0.18249 0.0
C2676 C 0.13024 0.53803 0.15947 0.0
C2677 C 0.15838 0.52525 0.16608 0.0
C2678 C 0.13806 0.56811 0.12552 0.0
C2679 C 0.10259 0.57543 0.14527 0.0
N2680 N 0.15179 0.53998 0.15516 0.0
N2681 N 0.1075 0.5593 0.15626 0.0
H2682 H 0.42882 0.5517 0.09548 0.0
H2683 H 0.52849 0.62238 0.20049 0.0
H2684 H 0.44144 0.51409 0.15613 0.0
H2685 H 0.48871 0.65028 0.16273 0.0
H2686 H 0.50266 0.58358 0.17993 0.0
H2687 H 0.45674 0.58905 0.1155 0.0
C2688 C 0.43754 0.55127 0.11305 0.0
C2689 C 0.43273 0.5297 0.12421 0.0
C2690 C 0.49973 0.59828 0.17614 0.0
C2691 C 0.46502 0.57273 0.14722 0.0
C2692 C 0.51455 0.62036 0.18757 0.0
C2693 C 0.51063 0.63941 0.18316 0.0
C2694 C 0.48133 0.59557 0.15986 0.0
C2695 C 0.49219 0.63597 0.16665 0.0
C2696 C 0.45346 0.57267 0.1245 0.0
C2697 C 0.44456 0.53035 0.14703 0.0
N2698 N 0.47831 0.61453 0.15552 0.0
N2699 N 0.46034 0.55163 0.15781 0.0
H2700 H 0.17536 0.65385 0.65763 0.0
H2701 H 0.08806 0.51427 0.65554 0.0
H2702 H 0.109 0.62272 0.69866 0.0
H2703 H 0.13619 0.55328 0.59375 0.0
H2704 H 0.09727 0.55237 0.6756 0.0
H2705 H 0.1632 0.61551 0.63758 0.0
C2706 C 0.15812 0.63887 0.66222 0.0
C2707 C 0.1431 0.64135 0.67964 0.0
C2708 C 0.10564 0.55241 0.65759 0.0
C2709 C 0.12915 0.5973 0.65722 0.0
C2710 C 0.10052 0.53076 0.64627 0.0
C2711 C 0.11137 0.53063 0.62298 0.0
C2712 C 0.12202 0.57385 0.64569 0.0
C2713 C 0.12732 0.55247 0.61166 0.0
C2714 C 0.15116 0.61702 0.65082 0.0
C2715 C 0.12091 0.62145 0.68504 0.0
N2716 N 0.13225 0.5731 0.62318 0.0
N2717 N 0.11464 0.60008 0.67406 0.0
H2718 H 0.39486 0.53457 0.72333 0.0
H2719 H 0.46998 0.56315 0.59557 0.0
H2720 H 0.3749 0.48431 0.66125 0.0
H2721 H 0.50104 0.59982 0.66659 0.0
H2722 H 0.43482 0.53454 0.61909 0.0
H2723 H 0.43352 0.55914 0.70299 0.0
C2724 C 0.3987 0.52872 0.7054 0.0
C2725 C 0.38161 0.50757 0.69373 0.0
C2726 C 0.44937 0.54868 0.62962 0.0
C2727 C 0.42575 0.53557 0.67034 0.0
C2728 C 0.46941 0.56512 0.6162 0.0
C2729 C 0.48833 0.58401 0.62917 0.0
C2730 C 0.44797 0.55133 0.6562 0.0
C2731 C 0.48679 0.58553 0.65591 0.0
C2732 C 0.42081 0.54264 0.69392 0.0
C2733 C 0.3876 0.50051 0.6708 0.0
N2734 N 0.46675 0.56956 0.66855 0.0
N2735 N 0.40908 0.51467 0.65963 0.0
H2736 H 0.45042 0.90517 0.59161 0.0
H2737 H 0.48262 0.86254 0.72032 0.0
H2738 H 0.41656 0.90278 0.66377 0.0
H2739 H 0.53059 0.88955 0.65589 0.0
H2740 H 0.45735 0.87569 0.69978 0.0
H2741 H 0.47906 0.89812 0.61442 0.0
C2742 C 0.44905 0.90321 0.61233 0.0
C2743 C 0.43096 0.90437 0.62584 0.0
C2744 C 0.47348 0.87893 0.69021 0.0
C2745 C 0.4637 0.8961 0.65206 0.0
C2746 C 0.48781 0.87127 0.70181 0.0
C2747 C 0.50857 0.87473 0.68961 0.0
C2748 C 0.47973 0.88981 0.66599 0.0
C2749 C 0.51473 0.88654 0.66589 0.0
C2750 C 0.46551 0.89931 0.62534 0.0
C2751 C 0.43021 0.90197 0.65266 0.0
N2752 N 0.5002 0.89339 0.65468 0.0
N2753 N 0.44619 0.89764 0.6649 0.0
H2754 H 0.18435 0.41829 0.16056 0.0
H2755 H 0.32418 0.50471 0.15949 0.0
H2756 H 0.22297 0.46712 0.22194 0.0
H2757 H 0.2927 0.43831 0.11865 0.0
H2758 H 0.28583 0.49287 0.17943 0.0
H2759 H 0.22257 0.42702 0.14118 0.0
C2760 C 0.20079 0.43083 0.16987 0.0
C2761 C 0.20051 0.442 0.19285 0.0
C2762 C 0.28727 0.48073 0.1663 0.0
C2763 C 0.24388 0.45205 0.17095 0.0
C2764 C 0.30913 0.48749 0.155 0.0
C2765 C 0.31149 0.47238 0.13763 0.0
C2766 C 0.26742 0.45884 0.15981 0.0
C2767 C 0.29151 0.45026 0.13226 0.0
C2768 C 0.2225 0.43566 0.15895 0.0
C2769 C 0.22228 0.45801 0.20425 0.0
N2770 N 0.27012 0.44421 0.14309 0.0
N2771 N 0.24299 0.46264 0.19313 0.0
H2772 H 0.54557 0.75556 0.21962 0.0
H2773 H 0.57891 0.85789 0.11681 0.0
H2774 H 0.59924 0.77062 0.16225 0.0
H2775 H 0.50942 0.8167 0.15033 0.0
H2776 H 0.59104 0.8316 0.13787 0.0
H2777 H 0.5364 0.78341 0.19884 0.0
C2778 C 0.55549 0.76479 0.20259 0.0
C2779 C 0.57319 0.76074 0.1926 0.0
C2780 C 0.57319 0.82845 0.14062 0.0
C2781 C 0.56281 0.79296 0.16876 0.0
C2782 C 0.56639 0.84353 0.12891 0.0
C2783 C 0.54318 0.83937 0.13199 0.0
C2784 C 0.55675 0.80951 0.15583 0.0
C2785 C 0.52743 0.82039 0.14747 0.0
C2786 C 0.55017 0.78065 0.19071 0.0
C2787 C 0.58536 0.77315 0.17042 0.0
N2788 N 0.53452 0.80625 0.15889 0.0
N2789 N 0.58004 0.78891 0.15925 0.0
H2790 H 0.26891 0.83431 0.14878 0.0
H2791 H 0.15276 0.70529 0.15709 0.0
H2792 H 0.23416 0.80172 0.22019 0.0
H2793 H 0.20364 0.7268 0.09542 0.0
H2794 H 0.17733 0.7443 0.17744 0.0
H2795 H 0.23983 0.7984 0.12579 0.0
C2796 C 0.25501 0.81974 0.15954 0.0
C2797 C 0.25405 0.82082 0.18639 0.0
C2798 C 0.18297 0.74048 0.15934 0.0
C2799 C 0.22076 0.78003 0.16039 0.0
C2800 C 0.16894 0.71834 0.14774 0.0
C2801 C 0.17641 0.71281 0.1248 0.0
C2802 C 0.20434 0.75726 0.1476 0.0
C2803 C 0.19753 0.73028 0.11338 0.0
C2804 C 0.23851 0.79927 0.14648 0.0
C2805 C 0.2357 0.80146 0.19947 0.0
N2806 N 0.21077 0.7517 0.12489 0.0
N2807 N 0.2198 0.78186 0.18637 0.0
loop_
_geom_bond_atom_site_label_1
_geom_bond_atom_site_label_2
_geom_bond_distance
_geom_bond_site_symmetry_2
_ccdc_geom_bond_type
Co0 N4 2.148 . S
Co0 N10 2.128 . S
Co0 N20 2.194 . S
Co0 O25 2.351 . S
Co0 O26 2.155 . S
Co0 O27 2.096 . S
C1 N4 1.301 . S
C1 N5 1.328 . S
C1 H6 0.930 . S
C2 C3 1.333 . S
C2 N4 1.317 . S
C2 H7 0.930 . S
C3 C2 1.333 . S
C3 N5 1.350 . S
C3 H29 0.931 . S
N4 Co0 2.148 . S
N4 C1 1.301 . S
N4 C2 1.317 . S
N5 C1 1.328 . S
N5 C3 1.350 . S
H6 C1 0.930 . S
H7 C2 0.930 . S
C8 O9 1.224 . S
C8 O27 1.247 . S
O9 C8 1.224 . S
N10 Co0 2.128 . S
N10 C11 1.355 . S
N10 C13 1.311 . S
C11 N10 1.355 . S
C11 C12 1.363 . S
C11 H23 0.929 . S
C12 C11 1.363 . S
C12 N14 1.375 . S
C12 H30 0.931 . S
C13 N10 1.311 . S
C13 N14 1.347 . S
C13 H24 0.929 . S
N14 C12 1.375 . S
N14 C13 1.347 . S
C15 C18 1.365 . S
C15 N20 1.328 . S
C15 H21 0.929 . S
C16 C17 1.362 . S
C16 C19 1.378 . S
C16 H31 0.929 . S
C17 C16 1.362 . S
C17 C18 1.366 . S
C18 C15 1.365 . S
C18 C17 1.366 . S
C18 H32 0.930 . S
C19 C16 1.378 . S
C19 N20 1.315 . S
C19 H22 0.930 . S
N20 Co0 2.194 . S
N20 C15 1.328 . S
N20 C19 1.315 . S
H21 C15 0.929 . S
H22 C19 0.930 . S
H23 C11 0.929 . S
H24 C13 0.929 . S
O25 Co0 2.351 . S
O25 C28 1.244 . S
O26 Co0 2.155 . S
O26 C28 1.240 . S
O27 Co0 2.096 . S
O27 C8 1.247 . S
C28 O25 1.244 . S
C28 O26 1.240 . S
H29 C3 0.931 . S
H30 C12 0.931 . S
H31 C16 0.929 . S
H32 C18 0.930 . S
Co33 N37 2.148 . S
Co33 N43 2.128 . S
Co33 N53 2.194 . S
Co33 O58 2.351 . S
Co33 O59 2.155 . S
Co33 O60 2.096 . S
C34 N37 1.301 . S
C34 N38 1.328 . S
C34 H39 0.930 . S
C35 C36 1.333 . S
C35 N37 1.317 . S
C35 H40 0.930 . S
C36 C35 1.333 . S
C36 N38 1.350 . S
C36 H62 0.931 . S
N37 Co33 2.148 . S
N37 C34 1.301 . S
N37 C35 1.317 . S
N38 C34 1.328 . S
N38 C36 1.350 . S
H39 C34 0.930 . S
H40 C35 0.930 . S
C41 O42 1.224 . S
C41 O60 1.247 . S
O42 C41 1.224 . S
N43 Co33 2.128 . S
N43 C44 1.355 1_545 S
N43 C46 1.311 1_545 S
C44 N43 1.355 1_565 S
C44 C45 1.363 . S
C44 H56 0.929 1_565 S
C45 C44 1.363 . S
C45 N47 1.375 . S
C45 H63 0.931 . S
C46 N43 1.311 1_565 S
C46 N47 1.347 . S
C46 H57 0.929 . S
N47 C45 1.375 . S
N47 C46 1.347 . S
C48 C51 1.365 . S
C48 N53 1.328 . S
C48 H54 0.929 . S
C49 C50 1.362 . S
C49 C52 1.378 . S
C49 H64 0.929 1_545 S
C50 C49 1.362 . S
C50 C51 1.366 . S
C51 C48 1.365 . S
C51 C50 1.366 . S
C51 H65 0.930 . S
C52 C49 1.378 . S
C52 N53 1.315 . S
C52 H55 0.930 . S
N53 Co33 2.194 . S
N53 C48 1.328 . S
N53 C52 1.315 . S
H54 C48 0.929 . S
H55 C52 0.930 . S
H56 C44 0.929 1_545 S
H57 C46 0.929 . S
O58 Co33 2.351 . S
O58 C61 1.244 . S
O59 Co33 2.155 . S
O59 C61 1.240 . S
O60 Co33 2.096 . S
O60 C41 1.247 . S
C61 O58 1.244 . S
C61 O59 1.240 . S
H62 C36 0.931 . S
H63 C45 0.931 . S
H64 C49 0.929 1_565 S
H65 C51 0.930 . S
Co66 N70 2.148 . S
Co66 N76 2.128 . S
Co66 N86 2.194 . S
Co66 O91 2.351 . S
Co66 O92 2.155 . S
Co66 O93 2.096 . S
C67 N70 1.301 . S
C67 N71 1.328 . S
C67 H72 0.930 . S
C68 C69 1.333 . S
C68 N70 1.317 . S
C68 H73 0.930 . S
C69 C68 1.333 . S
C69 N71 1.350 . S
C69 H95 0.931 . S
N70 Co66 2.148 . S
N70 C67 1.301 . S
N70 C68 1.317 . S
N71 C67 1.328 . S
N71 C69 1.350 . S
H72 C67 0.930 . S
H73 C68 0.930 . S
C74 O75 1.224 . S
C74 O93 1.247 . S
O75 C74 1.224 . S
N76 Co66 2.128 . S
N76 C77 1.355 1_655 S
N76 C79 1.311 1_655 S
C77 N76 1.355 1_455 S
C77 C78 1.363 . S
C77 H89 0.929 1_455 S
C78 C77 1.363 . S
C78 N80 1.375 . S
C78 H96 0.931 . S
C79 N76 1.311 1_455 S
C79 N80 1.347 . S
C79 H90 0.929 . S
N80 C78 1.375 . S
N80 C79 1.347 . S
C81 C84 1.365 . S
C81 N86 1.328 . S
C81 H87 0.929 . S
C82 C83 1.362 . S
C82 C85 1.378 . S
C82 H97 0.929 1_655 S
C83 C82 1.362 . S
C83 C84 1.366 . S
C84 C81 1.365 . S
C84 C83 1.366 . S
C84 H98 0.930 . S
C85 C82 1.378 . S
C85 N86 1.315 . S
C85 H88 0.930 . S
N86 Co66 2.194 . S
N86 C81 1.328 . S
N86 C85 1.315 . S
H87 C81 0.929 . S
H88 C85 0.930 . S
H89 C77 0.929 1_655 S
H90 C79 0.929 . S
O91 Co66 2.351 . S
O91 C94 1.244 . S
O92 Co66 2.155 . S
O92 C94 1.240 . S
O93 Co66 2.096 . S
O93 C74 1.247 . S
C94 O91 1.244 . S
C94 O92 1.240 . S
H95 C69 0.931 . S
H96 C78 0.931 . S
H97 C82 0.929 1_455 S
H98 C84 0.930 . S
Co99 N103 2.148 . S
Co99 N109 2.128 . S
Co99 N119 2.194 . S
Co99 O124 2.351 . S
Co99 O125 2.155 . S
Co99 O126 2.096 . S
C100 N103 1.301 . S
C100 N104 1.328 . S
C100 H105 0.930 . S
C101 C102 1.333 . S
C101 N103 1.317 . S
C101 H106 0.930 . S
C102 C101 1.333 . S
C102 N104 1.350 . S
C102 H128 0.931 . S
N103 Co99 2.148 . S
N103 C100 1.301 . S
N103 C101 1.317 . S
N104 C100 1.328 . S
N104 C102 1.350 . S
H105 C100 0.930 . S
H106 C101 0.930 . S
C107 O108 1.224 . S
C107 O126 1.247 . S
O108 C107 1.224 . S
N109 Co99 2.128 . S
N109 C110 1.355 . S
N109 C112 1.311 . S
C110 N109 1.355 . S
C110 C111 1.363 . S
C110 H122 0.929 . S
C111 C110 1.363 . S
C111 N113 1.375 . S
C111 H129 0.931 . S
C112 N109 1.311 . S
C112 N113 1.347 . S
C112 H123 0.929 . S
N113 C111 1.375 . S
N113 C112 1.347 . S
C114 C117 1.365 . S
C114 N119 1.328 . S
C114 H120 0.929 . S
C115 C116 1.362 . S
C115 C118 1.378 . S
C115 H130 0.929 . S
C116 C115 1.362 . S
C116 C117 1.366 . S
C117 C114 1.365 . S
C117 C116 1.366 . S
C117 H131 0.930 . S
C118 C115 1.378 . S
C118 N119 1.315 . S
C118 H121 0.930 . S
N119 Co99 2.194 . S
N119 C114 1.328 . S
N119 C118 1.315 . S
H120 C114 0.929 . S
H121 C118 0.930 . S
H122 C110 0.929 . S
H123 C112 0.929 . S
O124 Co99 2.351 . S
O124 C127 1.244 . S
O125 Co99 2.155 . S
O125 C127 1.240 . S
O126 Co99 2.096 . S
O126 C107 1.247 . S
C127 O124 1.244 . S
C127 O125 1.240 . S
H128 C102 0.931 . S
H129 C111 0.931 . S
H130 C115 0.929 . S
H131 C117 0.930 . S
Co132 N136 2.148 . S
Co132 N142 2.128 . S
Co132 N152 2.194 . S
Co132 O157 2.351 . S
Co132 O158 2.155 . S
Co132 O159 2.096 . S
C133 N136 1.301 . S
C133 N137 1.328 . S
C133 H138 0.930 . S
C134 C135 1.333 . S
C134 N136 1.317 . S
C134 H139 0.930 . S
C135 C134 1.333 . S
C135 N137 1.350 . S
C135 H161 0.931 . S
N136 Co132 2.148 . S
N136 C133 1.301 . S
N136 C134 1.317 . S
N137 C133 1.328 . S
N137 C135 1.350 . S
H138 C133 0.930 . S
H139 C134 0.930 . S
C140 O141 1.224 . S
C140 O159 1.247 . S
O141 C140 1.224 . S
N142 Co132 2.128 . S
N142 C143 1.355 1_565 S
N142 C145 1.311 1_565 S
C143 N142 1.355 1_545 S
C143 C144 1.363 . S
C143 H155 0.929 1_545 S
C144 C143 1.363 . S
C144 N146 1.375 . S
C144 H162 0.931 . S
C145 N142 1.311 1_545 S
C145 N146 1.347 . S
C145 H156 0.929 . S
N146 C144 1.375 . S
N146 C145 1.347 . S
C147 C150 1.365 . S
C147 N152 1.328 . S
C147 H153 0.929 . S
C148 C149 1.362 . S
C148 C151 1.378 . S
C148 H163 0.929 1_565 S
C149 C148 1.362 . S
C149 C150 1.366 . S
C150 C147 1.365 . S
C150 C149 1.366 . S
C150 H164 0.930 . S
C151 C148 1.378 . S
C151 N152 1.315 . S
C151 H154 0.930 . S
N152 Co132 2.194 . S
N152 C147 1.328 . S
N152 C151 1.315 . S
H153 C147 0.929 . S
H154 C151 0.930 . S
H155 C143 0.929 1_565 S
H156 C145 0.929 . S
O157 Co132 2.351 . S
O157 C160 1.244 . S
O158 Co132 2.155 . S
O158 C160 1.240 . S
O159 Co132 2.096 . S
O159 C140 1.247 . S
C160 O157 1.244 . S
C160 O158 1.240 . S
H161 C135 0.931 . S
H162 C144 0.931 . S
H163 C148 0.929 1_545 S
H164 C150 0.930 . S
Co165 N169 2.148 . S
Co165 N175 2.128 . S
Co165 N185 2.194 . S
Co165 O190 2.351 . S
Co165 O191 2.155 . S
Co165 O192 2.096 . S
C166 N169 1.301 . S
C166 N170 1.328 . S
C166 H171 0.930 . S
C167 C168 1.333 . S
C167 N169 1.317 . S
C167 H172 0.930 . S
C168 C167 1.333 . S
C168 N170 1.350 . S
C168 H194 0.931 . S
N169 Co165 2.148 . S
N169 C166 1.301 . S
N169 C167 1.317 . S
N170 C166 1.328 . S
N170 C168 1.350 . S
H171 C166 0.930 . S
H172 C167 0.930 . S
C173 O174 1.224 . S
C173 O192 1.247 . S
O174 C173 1.224 . S
N175 Co165 2.128 . S
N175 C176 1.355 1_455 S
N175 C178 1.311 1_455 S
C176 N175 1.355 1_655 S
C176 C177 1.363 . S
C176 H188 0.929 1_655 S
C177 C176 1.363 . S
C177 N179 1.375 . S
C177 H195 0.931 . S
C178 N175 1.311 1_655 S
C178 N179 1.347 . S
C178 H189 0.929 . S
N179 C177 1.375 . S
N179 C178 1.347 . S
C180 C183 1.365 . S
C180 N185 1.328 . S
C180 H186 0.929 . S
C181 C182 1.362 . S
C181 C184 1.378 . S
C181 H196 0.929 1_455 S
C182 C181 1.362 . S
C182 C183 1.366 . S
C183 C180 1.365 . S
C183 C182 1.366 . S
C183 H197 0.930 . S
C184 C181 1.378 . S
C184 N185 1.315 . S
C184 H187 0.930 . S
N185 Co165 2.194 . S
N185 C180 1.328 . S
N185 C184 1.315 . S
H186 C180 0.929 . S
H187 C184 0.930 . S
H188 C176 0.929 1_455 S
H189 C178 0.929 . S
O190 Co165 2.351 . S
O190 C193 1.244 . S
O191 Co165 2.155 . S
O191 C193 1.240 . S
O192 Co165 2.096 . S
O192 C173 1.247 . S
C193 O190 1.244 . S
C193 O191 1.240 . S
H194 C168 0.931 . S
H195 C177 0.931 . S
H196 C181 0.929 1_655 S
H197 C183 0.930 . S
Co198 N202 2.148 . S
Co198 N208 2.128 . S
Co198 N218 2.194 . S
Co198 O223 2.351 . S
Co198 O224 2.155 . S
Co198 O225 2.096 . S
C199 N202 1.301 . S
C199 N203 1.328 . S
C199 H204 0.930 . S
C200 C201 1.333 . S
C200 N202 1.317 . S
C200 H205 0.930 . S
C201 C200 1.333 . S
C201 N203 1.350 . S
C201 H227 0.931 . S
N202 Co198 2.148 . S
N202 C199 1.301 . S
N202 C200 1.317 . S
N203 C199 1.328 . S
N203 C201 1.350 . S
H204 C199 0.930 . S
H205 C200 0.930 . S
C206 O207 1.224 . S
C206 O225 1.247 . S
O207 C206 1.224 . S
N208 Co198 2.128 . S
N208 C209 1.355 . S
N208 C211 1.311 . S
C209 N208 1.355 . S
C209 C210 1.363 . S
C209 H221 0.929 . S
C210 C209 1.363 . S
C210 N212 1.375 . S
C210 H228 0.931 . S
C211 N208 1.311 . S
C211 N212 1.347 . S
C211 H222 0.929 . S
N212 C210 1.375 . S
N212 C211 1.347 . S
C213 C216 1.365 . S
C213 N218 1.328 . S
C213 H219 0.929 . S
C214 C215 1.362 . S
C214 C217 1.378 . S
C214 H229 0.929 . S
C215 C214 1.362 . S
C215 C216 1.366 . S
C216 C213 1.365 . S
C216 C215 1.366 . S
C216 H230 0.930 . S
C217 C214 1.378 . S
C217 N218 1.315 . S
C217 H220 0.930 . S
N218 Co198 2.194 . S
N218 C213 1.328 . S
N218 C217 1.315 . S
H219 C213 0.929 . S
H220 C217 0.930 . S
H221 C209 0.929 . S
H222 C211 0.929 . S
O223 Co198 2.351 . S
O223 C226 1.244 . S
O224 Co198 2.155 . S
O224 C226 1.240 . S
O225 Co198 2.096 . S
O225 C206 1.247 . S
C226 O223 1.244 . S
C226 O224 1.240 . S
H227 C201 0.931 . S
H228 C210 0.931 . S
H229 C214 0.929 . S
H230 C216 0.930 . S
Co231 N235 2.148 . S
Co231 N241 2.128 . S
Co231 N251 2.194 . S
Co231 O256 2.351 . S
Co231 O257 2.155 . S
Co231 O258 2.096 . S
C232 N235 1.301 . S
C232 N236 1.328 . S
C232 H237 0.930 . S
C233 C234 1.333 . S
C233 N235 1.317 . S
C233 H238 0.930 . S
C234 C233 1.333 . S
C234 N236 1.350 . S
C234 H260 0.931 . S
N235 Co231 2.148 . S
N235 C232 1.301 . S
N235 C233 1.317 . S
N236 C232 1.328 . S
N236 C234 1.350 . S
H237 C232 0.930 . S
H238 C233 0.930 . S
C239 O240 1.224 . S
C239 O258 1.247 . S
O240 C239 1.224 . S
N241 Co231 2.128 . S
N241 C242 1.355 1_565 S
N241 C244 1.311 1_565 S
C242 N241 1.355 1_545 S
C242 C243 1.363 . S
C242 H254 0.929 1_545 S
C243 C242 1.363 . S
C243 N245 1.375 . S
C243 H261 0.931 . S
C244 N241 1.311 1_545 S
C244 N245 1.347 . S
C244 H255 0.929 . S
N245 C243 1.375 . S
N245 C244 1.347 . S
C246 C249 1.365 . S
C246 N251 1.328 . S
C246 H252 0.929 . S
C247 C248 1.362 . S
C247 C250 1.378 . S
C247 H262 0.929 1_565 S
C248 C247 1.362 . S
C248 C249 1.366 . S
C249 C246 1.365 . S
C249 C248 1.366 . S
C249 H263 0.930 . S
C250 C247 1.378 . S
C250 N251 1.315 . S
C250 H253 0.930 . S
N251 Co231 2.194 . S
N251 C246 1.328 . S
N251 C250 1.315 . S
H252 C246 0.929 . S
H253 C250 0.930 . S
H254 C242 0.929 1_565 S
H255 C244 0.929 . S
O256 Co231 2.351 . S
O256 C259 1.244 . S
O257 Co231 2.155 . S
O257 C259 1.240 . S
O258 Co231 2.096 . S
O258 C239 1.247 . S
C259 O256 1.244 . S
C259 O257 1.240 . S
H260 C234 0.931 . S
H261 C243 0.931 . S
H262 C247 0.929 1_545 S
H263 C249 0.930 . S
Co264 N268 2.148 . S
Co264 N274 2.128 . S
Co264 N284 2.194 . S
Co264 O289 2.351 . S
Co264 O290 2.155 . S
Co264 O291 2.096 . S
C265 N268 1.301 . S
C265 N269 1.328 . S
C265 H270 0.930 . S
C266 C267 1.333 . S
C266 N268 1.317 . S
C266 H271 0.930 . S
C267 C266 1.333 . S
C267 N269 1.350 . S
C267 H293 0.931 . S
N268 Co264 2.148 . S
N268 C265 1.301 . S
N268 C266 1.317 . S
N269 C265 1.328 . S
N269 C267 1.350 . S
H270 C265 0.930 . S
H271 C266 0.930 . S
C272 O273 1.224 . S
C272 O291 1.247 . S
O273 C272 1.224 . S
N274 Co264 2.128 . S
N274 C275 1.355 1_455 S
N274 C277 1.311 1_455 S
C275 N274 1.355 1_655 S
C275 C276 1.363 . S
C275 H287 0.929 1_655 S
C276 C275 1.363 . S
C276 N278 1.375 . S
C276 H294 0.931 . S
C277 N274 1.311 1_655 S
C277 N278 1.347 . S
C277 H288 0.929 . S
N278 C276 1.375 . S
N278 C277 1.347 . S
C279 C282 1.365 . S
C279 N284 1.328 . S
C279 H285 0.929 . S
C280 C281 1.362 . S
C280 C283 1.378 . S
C280 H295 0.929 1_455 S
C281 C280 1.362 . S
C281 C282 1.366 . S
C282 C279 1.365 . S
C282 C281 1.366 . S
C282 H296 0.930 . S
C283 C280 1.378 . S
C283 N284 1.315 . S
C283 H286 0.930 . S
N284 Co264 2.194 . S
N284 C279 1.328 . S
N284 C283 1.315 . S
H285 C279 0.929 . S
H286 C283 0.930 . S
H287 C275 0.929 1_455 S
H288 C277 0.929 . S
O289 Co264 2.351 . S
O289 C292 1.244 . S
O290 Co264 2.155 . S
O290 C292 1.240 . S
O291 Co264 2.096 . S
O291 C272 1.247 . S
C292 O289 1.244 . S
C292 O290 1.240 . S
H293 C267 0.931 . S
H294 C276 0.931 . S
H295 C280 0.929 1_655 S
H296 C282 0.930 . S
Co297 N301 2.148 . S
Co297 N307 2.128 . S
Co297 N317 2.194 . S
Co297 O322 2.351 . S
Co297 O323 2.155 . S
Co297 O324 2.096 . S
C298 N301 1.301 . S
C298 N302 1.328 . S
C298 H303 0.930 . S
C299 C300 1.333 . S
C299 N301 1.317 . S
C299 H304 0.930 . S
C300 C299 1.333 . S
C300 N302 1.350 . S
C300 H326 0.931 . S
N301 Co297 2.148 . S
N301 C298 1.301 . S
N301 C299 1.317 . S
N302 C298 1.328 . S
N302 C300 1.350 . S
H303 C298 0.930 . S
H304 C299 0.930 . S
C305 O306 1.224 . S
C305 O324 1.247 . S
O306 C305 1.224 . S
N307 Co297 2.128 . S
N307 C308 1.355 . S
N307 C310 1.311 . S
C308 N307 1.355 . S
C308 C309 1.363 . S
C308 H320 0.929 . S
C309 C308 1.363 . S
C309 N311 1.375 . S
C309 H327 0.931 . S
C310 N307 1.311 . S
C310 N311 1.347 . S
C310 H321 0.929 . S
N311 C309 1.375 . S
N311 C310 1.347 . S
C312 C315 1.365 . S
C312 N317 1.328 . S
C312 H318 0.929 . S
C313 C314 1.362 . S
C313 C316 1.378 . S
C313 H328 0.929 . S
C314 C313 1.362 . S
C314 C315 1.366 . S
C315 C312 1.365 . S
C315 C314 1.366 . S
C315 H329 0.930 . S
C316 C313 1.378 . S
C316 N317 1.315 . S
C316 H319 0.930 . S
N317 Co297 2.194 . S
N317 C312 1.328 . S
N317 C316 1.315 . S
H318 C312 0.929 . S
H319 C316 0.930 . S
H320 C308 0.929 . S
H321 C310 0.929 . S
O322 Co297 2.351 . S
O322 C325 1.244 . S
O323 Co297 2.155 . S
O323 C325 1.240 . S
O324 Co297 2.096 . S
O324 C305 1.247 . S
C325 O322 1.244 . S
C325 O323 1.240 . S
H326 C300 0.931 . S
H327 C309 0.931 . S
H328 C313 0.929 . S
H329 C315 0.930 . S
Co330 N334 2.148 . S
Co330 N340 2.128 . S
Co330 N350 2.194 . S
Co330 O355 2.351 . S
Co330 O356 2.155 . S
Co330 O357 2.096 . S
C331 N334 1.301 . S
C331 N335 1.328 . S
C331 H336 0.930 . S
C332 C333 1.333 . S
C332 N334 1.317 . S
C332 H337 0.930 . S
C333 C332 1.333 . S
C333 N335 1.350 . S
C333 H359 0.931 . S
N334 Co330 2.148 . S
N334 C331 1.301 . S
N334 C332 1.317 . S
N335 C331 1.328 . S
N335 C333 1.350 . S
H336 C331 0.930 . S
H337 C332 0.930 . S
C338 O339 1.224 . S
C338 O357 1.247 . S
O339 C338 1.224 . S
N340 Co330 2.128 . S
N340 C341 1.355 1_545 S
N340 C343 1.311 1_545 S
C341 N340 1.355 1_565 S
C341 C342 1.363 . S
C341 H353 0.929 1_565 S
C342 C341 1.363 . S
C342 N344 1.375 . S
C342 H360 0.931 . S
C343 N340 1.311 1_565 S
C343 N344 1.347 . S
C343 H354 0.929 . S
N344 C342 1.375 . S
N344 C343 1.347 . S
C345 C348 1.365 . S
C345 N350 1.328 . S
C345 H351 0.929 . S
C346 C347 1.362 . S
C346 C349 1.378 . S
C346 H361 0.929 1_545 S
C347 C346 1.362 . S
C347 C348 1.366 . S
C348 C345 1.365 . S
C348 C347 1.366 . S
C348 H362 0.930 . S
C349 C346 1.378 . S
C349 N350 1.315 . S
C349 H352 0.930 . S
N350 Co330 2.194 . S
N350 C345 1.328 . S
N350 C349 1.315 . S
H351 C345 0.929 . S
H352 C349 0.930 . S
H353 C341 0.929 1_545 S
H354 C343 0.929 . S
O355 Co330 2.351 . S
O355 C358 1.244 . S
O356 Co330 2.155 . S
O356 C358 1.240 . S
O357 Co330 2.096 . S
O357 C338 1.247 . S
C358 O355 1.244 . S
C358 O356 1.240 . S
H359 C333 0.931 . S
H360 C342 0.931 . S
H361 C346 0.929 1_565 S
H362 C348 0.930 . S
Co363 N367 2.148 . S
Co363 N373 2.128 . S
Co363 N383 2.194 . S
Co363 O388 2.351 . S
Co363 O389 2.155 . S
Co363 O390 2.096 . S
C364 N367 1.301 . S
C364 N368 1.328 . S
C364 H369 0.930 . S
C365 C366 1.333 . S
C365 N367 1.317 . S
C365 H370 0.930 . S
C366 C365 1.333 . S
C366 N368 1.350 . S
C366 H392 0.931 . S
N367 Co363 2.148 . S
N367 C364 1.301 . S
N367 C365 1.317 . S
N368 C364 1.328 . S
N368 C366 1.350 . S
H369 C364 0.930 . S
H370 C365 0.930 . S
C371 O372 1.224 . S
C371 O390 1.247 . S
O372 C371 1.224 . S
N373 Co363 2.128 . S
N373 C374 1.355 1_655 S
N373 C376 1.311 1_655 S
C374 N373 1.355 1_455 S
C374 C375 1.363 . S
C374 H386 0.929 1_455 S
C375 C374 1.363 . S
C375 N377 1.375 . S
C375 H393 0.931 . S
C376 N373 1.311 1_455 S
C376 N377 1.347 . S
C376 H387 0.929 . S
N377 C375 1.375 . S
N377 C376 1.347 . S
C378 C381 1.365 . S
C378 N383 1.328 . S
C378 H384 0.929 . S
C379 C380 1.362 . S
C379 C382 1.378 . S
C379 H394 0.929 1_655 S
C380 C379 1.362 . S
C380 C381 1.366 . S
C381 C378 1.365 . S
C381 C380 1.366 . S
C381 H395 0.930 . S
C382 C379 1.378 . S
C382 N383 1.315 . S
C382 H385 0.930 . S
N383 Co363 2.194 . S
N383 C378 1.328 . S
N383 C382 1.315 . S
H384 C378 0.929 . S
H385 C382 0.930 . S
H386 C374 0.929 1_655 S
H387 C376 0.929 . S
O388 Co363 2.351 . S
O388 C391 1.244 . S
O389 Co363 2.155 . S
O389 C391 1.240 . S
O390 Co363 2.096 . S
O390 C371 1.247 . S
C391 O388 1.244 . S
C391 O389 1.240 . S
H392 C366 0.931 . S
H393 C375 0.931 . S
H394 C379 0.929 1_455 S
H395 C381 0.930 . S
Co396 N400 2.148 . S
Co396 N406 2.128 . S
Co396 N416 2.194 . S
Co396 O421 2.351 . S
Co396 O422 2.155 . S
Co396 O423 2.096 . S
C397 N400 1.301 . S
C397 N401 1.328 . S
C397 H402 0.930 . S
C398 C399 1.333 . S
C398 N400 1.317 . S
C398 H403 0.930 . S
C399 C398 1.333 . S
C399 N401 1.350 . S
C399 H425 0.931 . S
N400 Co396 2.148 . S
N400 C397 1.301 . S
N400 C398 1.317 . S
N401 C397 1.328 . S
N401 C399 1.350 . S
H402 C397 0.930 . S
H403 C398 0.930 . S
C404 O405 1.224 . S
C404 O423 1.247 . S
O405 C404 1.224 . S
N406 Co396 2.128 . S
N406 C407 1.355 . S
N406 C409 1.311 . S
C407 N406 1.355 . S
C407 C408 1.363 . S
C407 H419 0.929 . S
C408 C407 1.363 . S
C408 N410 1.375 . S
C408 H426 0.931 . S
C409 N406 1.311 . S
C409 N410 1.347 . S
C409 H420 0.929 . S
N410 C408 1.375 . S
N410 C409 1.347 . S
C411 C414 1.365 . S
C411 N416 1.328 . S
C411 H417 0.929 . S
C412 C413 1.362 . S
C412 C415 1.378 . S
C412 H427 0.929 . S
C413 C412 1.362 . S
C413 C414 1.366 . S
C414 C411 1.365 . S
C414 C413 1.366 . S
C414 H428 0.930 . S
C415 C412 1.378 . S
C415 N416 1.315 . S
C415 H418 0.930 . S
N416 Co396 2.194 . S
N416 C411 1.328 . S
N416 C415 1.315 . S
H417 C411 0.929 . S
H418 C415 0.930 . S
H419 C407 0.929 . S
H420 C409 0.929 . S
O421 Co396 2.351 . S
O421 C424 1.244 . S
O422 Co396 2.155 . S
O422 C424 1.240 . S
O423 Co396 2.096 . S
O423 C404 1.247 . S
C424 O421 1.244 . S
C424 O422 1.240 . S
H425 C399 0.931 . S
H426 C408 0.931 . S
H427 C412 0.929 . S
H428 C414 0.930 . S
Co429 N433 2.148 . S
Co429 N439 2.128 . S
Co429 N449 2.194 . S
Co429 O454 2.351 . S
Co429 O455 2.155 . S
Co429 O456 2.096 . S
C430 N433 1.301 . S
C430 N434 1.328 . S
C430 H435 0.930 . S
C431 C432 1.333 . S
C431 N433 1.317 . S
C431 H436 0.930 . S
C432 C431 1.333 . S
C432 N434 1.350 . S
C432 H458 0.931 . S
N433 Co429 2.148 . S
N433 C430 1.301 . S
N433 C431 1.317 . S
N434 C430 1.328 . S
N434 C432 1.350 . S
H435 C430 0.930 . S
H436 C431 0.930 . S
C437 O438 1.224 . S
C437 O456 1.247 . S
O438 C437 1.224 . S
N439 Co429 2.128 . S
N439 C440 1.355 . S
N439 C442 1.311 . S
C440 N439 1.355 . S
C440 C441 1.363 . S
C440 H452 0.929 . S
C441 C440 1.363 . S
C441 N443 1.375 . S
C441 H459 0.931 . S
C442 N439 1.311 . S
C442 N443 1.347 . S
C442 H453 0.929 . S
N443 C441 1.375 . S
N443 C442 1.347 . S
C444 C447 1.365 . S
C444 N449 1.328 . S
C444 H450 0.929 . S
C445 C446 1.362 . S
C445 C448 1.378 . S
C445 H460 0.929 . S
C446 C445 1.362 . S
C446 C447 1.366 . S
C447 C444 1.365 . S
C447 C446 1.366 . S
C447 H461 0.930 . S
C448 C445 1.378 . S
C448 N449 1.315 . S
C448 H451 0.930 . S
N449 Co429 2.194 . S
N449 C444 1.328 . S
N449 C448 1.315 . S
H450 C444 0.929 . S
H451 C448 0.930 . S
H452 C440 0.929 . S
H453 C442 0.929 . S
O454 Co429 2.351 . S
O454 C457 1.244 . S
O455 Co429 2.155 . S
O455 C457 1.240 . S
O456 Co429 2.096 . S
O456 C437 1.247 . S
C457 O454 1.244 . S
C457 O455 1.240 . S
H458 C432 0.931 . S
H459 C441 0.931 . S
H460 C445 0.929 . S
H461 C447 0.930 . S
Co462 N466 2.148 . S
Co462 N472 2.128 . S
Co462 N482 2.194 . S
Co462 O487 2.351 . S
Co462 O488 2.155 . S
Co462 O489 2.096 . S
C463 N466 1.301 . S
C463 N467 1.328 . S
C463 H468 0.930 . S
C464 C465 1.333 . S
C464 N466 1.317 . S
C464 H469 0.930 . S
C465 C464 1.333 . S
C465 N467 1.350 . S
C465 H491 0.931 . S
N466 Co462 2.148 . S
N466 C463 1.301 . S
N466 C464 1.317 . S
N467 C463 1.328 . S
N467 C465 1.350 . S
H468 C463 0.930 . S
H469 C464 0.930 . S
C470 O471 1.224 . S
C470 O489 1.247 . S
O471 C470 1.224 . S
N472 Co462 2.128 . S
N472 C473 1.355 . S
N472 C475 1.311 . S
C473 N472 1.355 . S
C473 C474 1.363 . S
C473 H485 0.929 . S
C474 C473 1.363 . S
C474 N476 1.375 . S
C474 H492 0.931 . S
C475 N472 1.311 . S
C475 N476 1.347 . S
C475 H486 0.929 . S
N476 C474 1.375 . S
N476 C475 1.347 . S
C477 C480 1.365 . S
C477 N482 1.328 . S
C477 H483 0.929 . S
C478 C479 1.362 . S
C478 C481 1.378 . S
C478 H493 0.929 . S
C479 C478 1.362 . S
C479 C480 1.366 . S
C480 C477 1.365 . S
C480 C479 1.366 . S
C480 H494 0.930 . S
C481 C478 1.378 . S
C481 N482 1.315 . S
C481 H484 0.930 . S
N482 Co462 2.194 . S
N482 C477 1.328 . S
N482 C481 1.315 . S
H483 C477 0.929 . S
H484 C481 0.930 . S
H485 C473 0.929 . S
H486 C475 0.929 . S
O487 Co462 2.351 . S
O487 C490 1.244 . S
O488 Co462 2.155 . S
O488 C490 1.240 . S
O489 Co462 2.096 . S
O489 C470 1.247 . S
C490 O487 1.244 . S
C490 O488 1.240 . S
H491 C465 0.931 . S
H492 C474 0.931 . S
H493 C478 0.929 . S
H494 C480 0.930 . S
Co495 N499 2.148 . S
Co495 N505 2.128 . S
Co495 N515 2.194 . S
Co495 O520 2.351 . S
Co495 O521 2.155 . S
Co495 O522 2.096 . S
C496 N499 1.301 . S
C496 N500 1.328 . S
C496 H501 0.930 . S
C497 C498 1.333 . S
C497 N499 1.317 . S
C497 H502 0.930 . S
C498 C497 1.333 . S
C498 N500 1.350 . S
C498 H524 0.931 . S
N499 Co495 2.148 . S
N499 C496 1.301 . S
N499 C497 1.317 . S
N500 C496 1.328 . S
N500 C498 1.350 . S
H501 C496 0.930 . S
H502 C497 0.930 . S
C503 O504 1.224 . S
C503 O522 1.247 . S
O504 C503 1.224 . S
N505 Co495 2.128 . S
N505 C506 1.355 . S
N505 C508 1.311 . S
C506 N505 1.355 . S
C506 C507 1.363 . S
C506 H518 0.929 . S
C507 C506 1.363 . S
C507 N509 1.375 . S
C507 H525 0.931 . S
C508 N505 1.311 . S
C508 N509 1.347 . S
C508 H519 0.929 . S
N509 C507 1.375 . S
N509 C508 1.347 . S
C510 C513 1.365 . S
C510 N515 1.328 . S
C510 H516 0.929 . S
C511 C512 1.362 . S
C511 C514 1.378 . S
C511 H526 0.929 . S
C512 C511 1.362 . S
C512 C513 1.366 . S
C513 C510 1.365 . S
C513 C512 1.366 . S
C513 H527 0.930 . S
C514 C511 1.378 . S
C514 N515 1.315 . S
C514 H517 0.930 . S
N515 Co495 2.194 . S
N515 C510 1.328 . S
N515 C514 1.315 . S
H516 C510 0.929 . S
H517 C514 0.930 . S
H518 C506 0.929 . S
H519 C508 0.929 . S
O520 Co495 2.351 . S
O520 C523 1.244 . S
O521 Co495 2.155 . S
O521 C523 1.240 . S
O522 Co495 2.096 . S
O522 C503 1.247 . S
C523 O520 1.244 . S
C523 O521 1.240 . S
H524 C498 0.931 . S
H525 C507 0.931 . S
H526 C511 0.929 . S
H527 C513 0.930 . S
Co528 N532 2.148 . S
Co528 N538 2.128 . S
Co528 N548 2.194 . S
Co528 O553 2.351 . S
Co528 O554 2.155 . S
Co528 O555 2.096 . S
C529 N532 1.301 . S
C529 N533 1.328 . S
C529 H534 0.930 . S
C530 C531 1.333 . S
C530 N532 1.317 . S
C530 H535 0.930 . S
C531 C530 1.333 . S
C531 N533 1.350 . S
C531 H557 0.931 . S
N532 Co528 2.148 . S
N532 C529 1.301 . S
N532 C530 1.317 . S
N533 C529 1.328 . S
N533 C531 1.350 . S
H534 C529 0.930 . S
H535 C530 0.930 . S
C536 O537 1.224 . S
C536 O555 1.247 . S
O537 C536 1.224 . S
N538 Co528 2.128 . S
N538 C539 1.355 . S
N538 C541 1.311 . S
C539 N538 1.355 . S
C539 C540 1.363 . S
C539 H551 0.929 . S
C540 C539 1.363 . S
C540 N542 1.375 . S
C540 H558 0.931 . S
C541 N538 1.311 . S
C541 N542 1.347 . S
C541 H552 0.929 . S
N542 C540 1.375 . S
N542 C541 1.347 . S
C543 C546 1.365 . S
C543 N548 1.328 . S
C543 H549 0.929 . S
C544 C545 1.362 . S
C544 C547 1.378 . S
C544 H559 0.929 . S
C545 C544 1.362 . S
C545 C546 1.366 . S
C546 C543 1.365 . S
C546 C545 1.366 . S
C546 H560 0.930 . S
C547 C544 1.378 . S
C547 N548 1.315 . S
C547 H550 0.930 . S
N548 Co528 2.194 . S
N548 C543 1.328 . S
N548 C547 1.315 . S
H549 C543 0.929 . S
H550 C547 0.930 . S
H551 C539 0.929 . S
H552 C541 0.929 . S
O553 Co528 2.351 . S
O553 C556 1.244 . S
O554 Co528 2.155 . S
O554 C556 1.240 . S
O555 Co528 2.096 . S
O555 C536 1.247 . S
C556 O553 1.244 . S
C556 O554 1.240 . S
H557 C531 0.931 . S
H558 C540 0.931 . S
H559 C544 0.929 . S
H560 C546 0.930 . S
Co561 N565 2.148 . S
Co561 N571 2.128 . S
Co561 N581 2.194 . S
Co561 O586 2.351 . S
Co561 O587 2.155 . S
Co561 O588 2.096 . S
C562 N565 1.301 . S
C562 N566 1.328 . S
C562 H567 0.930 . S
C563 C564 1.333 . S
C563 N565 1.317 . S
C563 H568 0.930 . S
C564 C563 1.333 . S
C564 N566 1.350 . S
C564 H590 0.931 . S
N565 Co561 2.148 . S
N565 C562 1.301 . S
N565 C563 1.317 . S
N566 C562 1.328 . S
N566 C564 1.350 . S
H567 C562 0.930 . S
H568 C563 0.930 . S
C569 O570 1.224 . S
C569 O588 1.247 . S
O570 C569 1.224 . S
N571 Co561 2.128 . S
N571 C572 1.355 . S
N571 C574 1.311 . S
C572 N571 1.355 . S
C572 C573 1.363 . S
C572 H584 0.929 . S
C573 C572 1.363 . S
C573 N575 1.375 . S
C573 H591 0.931 . S
C574 N571 1.311 . S
C574 N575 1.347 . S
C574 H585 0.929 . S
N575 C573 1.375 . S
N575 C574 1.347 . S
C576 C579 1.365 . S
C576 N581 1.328 . S
C576 H582 0.929 . S
C577 C578 1.362 . S
C577 C580 1.378 . S
C577 H592 0.929 . S
C578 C577 1.362 . S
C578 C579 1.366 . S
C579 C576 1.365 . S
C579 C578 1.366 . S
C579 H593 0.930 . S
C580 C577 1.378 . S
C580 N581 1.315 . S
C580 H583 0.930 . S
N581 Co561 2.194 . S
N581 C576 1.328 . S
N581 C580 1.315 . S
H582 C576 0.929 . S
H583 C580 0.930 . S
H584 C572 0.929 . S
H585 C574 0.929 . S
O586 Co561 2.351 . S
O586 C589 1.244 . S
O587 Co561 2.155 . S
O587 C589 1.240 . S
O588 Co561 2.096 . S
O588 C569 1.247 . S
C589 O586 1.244 . S
C589 O587 1.240 . S
H590 C564 0.931 . S
H591 C573 0.931 . S
H592 C577 0.929 . S
H593 C579 0.930 . S
Co594 N598 2.148 . S
Co594 N604 2.128 . S
Co594 N614 2.194 . S
Co594 O619 2.351 . S
Co594 O620 2.155 . S
Co594 O621 2.096 . S
C595 N598 1.301 . S
C595 N599 1.328 . S
C595 H600 0.930 . S
C596 C597 1.333 . S
C596 N598 1.317 . S
C596 H601 0.930 . S
C597 C596 1.333 . S
C597 N599 1.350 . S
C597 H623 0.931 . S
N598 Co594 2.148 . S
N598 C595 1.301 . S
N598 C596 1.317 . S
N599 C595 1.328 . S
N599 C597 1.350 . S
H600 C595 0.930 . S
H601 C596 0.930 . S
C602 O603 1.224 . S
C602 O621 1.247 . S
O603 C602 1.224 . S
N604 Co594 2.128 . S
N604 C605 1.355 . S
N604 C607 1.311 . S
C605 N604 1.355 . S
C605 C606 1.363 . S
C605 H617 0.929 . S
C606 C605 1.363 . S
C606 N608 1.375 . S
C606 H624 0.931 . S
C607 N604 1.311 . S
C607 N608 1.347 . S
C607 H618 0.929 . S
N608 C606 1.375 . S
N608 C607 1.347 . S
C609 C612 1.365 . S
C609 N614 1.328 . S
C609 H615 0.929 . S
C610 C611 1.362 . S
C610 C613 1.378 . S
C610 H625 0.929 . S
C611 C610 1.362 . S
C611 C612 1.366 . S
C612 C609 1.365 . S
C612 C611 1.366 . S
C612 H626 0.930 . S
C613 C610 1.378 . S
C613 N614 1.315 . S
C613 H616 0.930 . S
N614 Co594 2.194 . S
N614 C609 1.328 . S
N614 C613 1.315 . S
H615 C609 0.929 . S
H616 C613 0.930 . S
H617 C605 0.929 . S
H618 C607 0.929 . S
O619 Co594 2.351 . S
O619 C622 1.244 . S
O620 Co594 2.155 . S
O620 C622 1.240 . S
O621 Co594 2.096 . S
O621 C602 1.247 . S
C622 O619 1.244 . S
C622 O620 1.240 . S
H623 C597 0.931 . S
H624 C606 0.931 . S
H625 C610 0.929 . S
H626 C612 0.930 . S
Co627 N631 2.148 . S
Co627 N637 2.128 . S
Co627 N647 2.194 . S
Co627 O652 2.351 . S
Co627 O653 2.155 . S
Co627 O654 2.096 . S
C628 N631 1.301 . S
C628 N632 1.328 . S
C628 H633 0.930 . S
C629 C630 1.333 . S
C629 N631 1.317 . S
C629 H634 0.930 . S
C630 C629 1.333 . S
C630 N632 1.350 . S
C630 H656 0.931 . S
N631 Co627 2.148 . S
N631 C628 1.301 . S
N631 C629 1.317 . S
N632 C628 1.328 . S
N632 C630 1.350 . S
H633 C628 0.930 . S
H634 C629 0.930 . S
C635 O636 1.224 . S
C635 O654 1.247 . S
O636 C635 1.224 . S
N637 Co627 2.128 . S
N637 C638 1.355 . S
N637 C640 1.311 . S
C638 N637 1.355 . S
C638 C639 1.363 . S
C638 H650 0.929 . S
C639 C638 1.363 . S
C639 N641 1.375 . S
C639 H657 0.931 . S
C640 N637 1.311 . S
C640 N641 1.347 . S
C640 H651 0.929 . S
N641 C639 1.375 . S
N641 C640 1.347 . S
C642 C645 1.365 . S
C642 N647 1.328 . S
C642 H648 0.929 . S
C643 C644 1.362 . S
C643 C646 1.378 . S
C643 H658 0.929 . S
C644 C643 1.362 . S
C644 C645 1.366 . S
C645 C642 1.365 . S
C645 C644 1.366 . S
C645 H659 0.930 . S
C646 C643 1.378 . S
C646 N647 1.315 . S
C646 H649 0.930 . S
N647 Co627 2.194 . S
N647 C642 1.328 . S
N647 C646 1.315 . S
H648 C642 0.929 . S
H649 C646 0.930 . S
H650 C638 0.929 . S
H651 C640 0.929 . S
O652 Co627 2.351 . S
O652 C655 1.244 . S
O653 Co627 2.155 . S
O653 C655 1.240 . S
O654 Co627 2.096 . S
O654 C635 1.247 . S
C655 O652 1.244 . S
C655 O653 1.240 . S
H656 C630 0.931 . S
H657 C639 0.931 . S
H658 C643 0.929 . S
H659 C645 0.930 . S
Co660 N664 2.148 . S
Co660 N670 2.128 . S
Co660 N680 2.194 . S
Co660 O685 2.351 . S
Co660 O686 2.155 . S
Co660 O687 2.096 . S
C661 N664 1.301 . S
C661 N665 1.328 . S
C661 H666 0.930 . S
C662 C663 1.333 . S
C662 N664 1.317 . S
C662 H667 0.930 . S
C663 C662 1.333 . S
C663 N665 1.350 . S
C663 H689 0.931 . S
N664 Co660 2.148 . S
N664 C661 1.301 . S
N664 C662 1.317 . S
N665 C661 1.328 . S
N665 C663 1.350 . S
H666 C661 0.930 . S
H667 C662 0.930 . S
C668 O669 1.224 . S
C668 O687 1.247 . S
O669 C668 1.224 . S
N670 Co660 2.128 . S
N670 C671 1.355 . S
N670 C673 1.311 . S
C671 N670 1.355 . S
C671 C672 1.363 . S
C671 H683 0.929 . S
C672 C671 1.363 . S
C672 N674 1.375 . S
C672 H690 0.931 . S
C673 N670 1.311 . S
C673 N674 1.347 . S
C673 H684 0.929 . S
N674 C672 1.375 . S
N674 C673 1.347 . S
C675 C678 1.365 . S
C675 N680 1.328 . S
C675 H681 0.929 . S
C676 C677 1.362 . S
C676 C679 1.378 . S
C676 H691 0.929 . S
C677 C676 1.362 . S
C677 C678 1.366 . S
C678 C675 1.365 . S
C678 C677 1.366 . S
C678 H692 0.930 . S
C679 C676 1.378 . S
C679 N680 1.315 . S
C679 H682 0.930 . S
N680 Co660 2.194 . S
N680 C675 1.328 . S
N680 C679 1.315 . S
H681 C675 0.929 . S
H682 C679 0.930 . S
H683 C671 0.929 . S
H684 C673 0.929 . S
O685 Co660 2.351 . S
O685 C688 1.244 . S
O686 Co660 2.155 . S
O686 C688 1.240 . S
O687 Co660 2.096 . S
O687 C668 1.247 . S
C688 O685 1.244 . S
C688 O686 1.240 . S
H689 C663 0.931 . S
H690 C672 0.931 . S
H691 C676 0.929 . S
H692 C678 0.930 . S
Co693 N697 2.148 . S
Co693 N703 2.128 . S
Co693 N713 2.194 . S
Co693 O718 2.351 . S
Co693 O719 2.155 . S
Co693 O720 2.096 . S
C694 N697 1.301 . S
C694 N698 1.328 . S
C694 H699 0.930 . S
C695 C696 1.333 . S
C695 N697 1.317 . S
C695 H700 0.930 . S
C696 C695 1.333 . S
C696 N698 1.350 . S
C696 H722 0.931 . S
N697 Co693 2.148 . S
N697 C694 1.301 . S
N697 C695 1.317 . S
N698 C694 1.328 . S
N698 C696 1.350 . S
H699 C694 0.930 . S
H700 C695 0.930 . S
C701 O702 1.224 . S
C701 O720 1.247 . S
O702 C701 1.224 . S
N703 Co693 2.128 . S
N703 C704 1.355 . S
N703 C706 1.311 . S
C704 N703 1.355 . S
C704 C705 1.363 . S
C704 H716 0.929 . S
C705 C704 1.363 . S
C705 N707 1.375 . S
C705 H723 0.931 . S
C706 N703 1.311 . S
C706 N707 1.347 . S
C706 H717 0.929 . S
N707 C705 1.375 . S
N707 C706 1.347 . S
C708 C711 1.365 . S
C708 N713 1.328 . S
C708 H714 0.929 . S
C709 C710 1.346 1_556 S
C709 C712 1.413 . S
C709 H724 0.911 1_556 S
C710 C709 1.346 1_554 S
C710 C711 1.366 1_554 S
C711 C708 1.365 . S
C711 C710 1.366 1_556 S
C711 H725 0.930 1_556 S
C712 C709 1.413 . S
C712 N713 1.315 . S
C712 H715 0.930 . S
N713 Co693 2.194 . S
N713 C708 1.328 . S
N713 C712 1.315 . S
H714 C708 0.929 . S
H715 C712 0.930 . S
H716 C704 0.929 . S
H717 C706 0.929 . S
O718 Co693 2.351 . S
O718 C721 1.244 . S
O719 Co693 2.155 . S
O719 C721 1.240 . S
O720 Co693 2.096 . S
O720 C701 1.247 . S
C721 O718 1.244 . S
C721 O719 1.240 . S
H722 C696 0.931 . S
H723 C705 0.931 . S
H724 C709 0.911 1_554 S
H725 C711 0.930 1_554 S
Co726 N730 2.148 . S
Co726 N736 2.128 . S
Co726 N746 2.194 . S
Co726 O751 2.351 . S
Co726 O752 2.155 . S
Co726 O753 2.096 . S
C727 N730 1.301 . S
C727 N731 1.328 . S
C727 H732 0.930 . S
C728 C729 1.333 . S
C728 N730 1.317 . S
C728 H733 0.930 . S
C729 C728 1.333 . S
C729 N731 1.350 . S
C729 H755 0.931 . S
N730 Co726 2.148 . S
N730 C727 1.301 . S
N730 C728 1.317 . S
N731 C727 1.328 . S
N731 C729 1.350 . S
H732 C727 0.930 . S
H733 C728 0.930 . S
C734 O735 1.224 . S
C734 O753 1.247 . S
O735 C734 1.224 . S
N736 Co726 2.128 . S
N736 C737 1.355 . S
N736 C739 1.311 . S
C737 N736 1.355 . S
C737 C738 1.363 . S
C737 H749 0.929 . S
C738 C737 1.363 . S
C738 N740 1.375 . S
C738 H756 0.931 . S
C739 N736 1.311 . S
C739 N740 1.347 . S
C739 H750 0.929 . S
N740 C738 1.375 . S
N740 C739 1.347 . S
C741 C744 1.365 . S
C741 N746 1.328 . S
C741 H747 0.929 . S
C742 C743 1.346 1_556 S
C742 C745 1.413 . S
C742 H757 0.911 1_556 S
C743 C742 1.346 1_554 S
C743 C744 1.366 1_554 S
C744 C741 1.365 . S
C744 C743 1.366 1_556 S
C744 H758 0.930 1_556 S
C745 C742 1.413 . S
C745 N746 1.315 . S
C745 H748 0.930 . S
N746 Co726 2.194 . S
N746 C741 1.328 . S
N746 C745 1.315 . S
H747 C741 0.929 . S
H748 C745 0.930 . S
H749 C737 0.929 . S
H750 C739 0.929 . S
O751 Co726 2.351 . S
O751 C754 1.244 . S
O752 Co726 2.155 . S
O752 C754 1.240 . S
O753 Co726 2.096 . S
O753 C734 1.247 . S
C754 O751 1.244 . S
C754 O752 1.240 . S
H755 C729 0.931 . S
H756 C738 0.931 . S
H757 C742 0.911 1_554 S
H758 C744 0.930 1_554 S
Co759 N763 2.148 . S
Co759 N769 2.128 . S
Co759 N779 2.194 . S
Co759 O784 2.351 . S
Co759 O785 2.155 . S
Co759 O786 2.096 . S
C760 N763 1.301 . S
C760 N764 1.328 . S
C760 H765 0.930 . S
C761 C762 1.333 . S
C761 N763 1.317 . S
C761 H766 0.930 . S
C762 C761 1.333 . S
C762 N764 1.350 . S
C762 H788 0.931 . S
N763 Co759 2.148 . S
N763 C760 1.301 . S
N763 C761 1.317 . S
N764 C760 1.328 . S
N764 C762 1.350 . S
H765 C760 0.930 . S
H766 C761 0.930 . S
C767 O768 1.224 . S
C767 O786 1.247 . S
O768 C767 1.224 . S
N769 Co759 2.128 . S
N769 C770 1.355 . S
N769 C772 1.311 . S
C770 N769 1.355 . S
C770 C771 1.363 . S
C770 H782 0.929 . S
C771 C770 1.363 . S
C771 N773 1.375 . S
C771 H789 0.931 . S
C772 N769 1.311 . S
C772 N773 1.347 . S
C772 H783 0.929 . S
N773 C771 1.375 . S
N773 C772 1.347 . S
C774 C777 1.365 . S
C774 N779 1.328 . S
C774 H780 0.929 . S
C775 C776 1.346 1_556 S
C775 C778 1.413 . S
C775 H790 0.911 1_556 S
C776 C775 1.346 1_554 S
C776 C777 1.366 1_554 S
C777 C774 1.365 . S
C777 C776 1.366 1_556 S
C777 H791 0.930 1_556 S
C778 C775 1.413 . S
C778 N779 1.315 . S
C778 H781 0.930 . S
N779 Co759 2.194 . S
N779 C774 1.328 . S
N779 C778 1.315 . S
H780 C774 0.929 . S
H781 C778 0.930 . S
H782 C770 0.929 . S
H783 C772 0.929 . S
O784 Co759 2.351 . S
O784 C787 1.244 . S
O785 Co759 2.155 . S
O785 C787 1.240 . S
O786 Co759 2.096 . S
O786 C767 1.247 . S
C787 O784 1.244 . S
C787 O785 1.240 . S
H788 C762 0.931 . S
H789 C771 0.931 . S
H790 C775 0.911 1_554 S
H791 C777 0.930 1_554 S
Co792 N796 2.148 . S
Co792 N802 2.128 . S
Co792 N812 2.194 . S
Co792 O817 2.351 . S
Co792 O818 2.155 . S
Co792 O819 2.096 . S
C793 N796 1.301 . S
C793 N797 1.328 . S
C793 H798 0.930 . S
C794 C795 1.333 . S
C794 N796 1.317 . S
C794 H799 0.930 . S
C795 C794 1.333 . S
C795 N797 1.350 . S
C795 H821 0.931 . S
N796 Co792 2.148 . S
N796 C793 1.301 . S
N796 C794 1.317 . S
N797 C793 1.328 . S
N797 C795 1.350 . S
H798 C793 0.930 . S
H799 C794 0.930 . S
C800 O801 1.224 . S
C800 O819 1.247 . S
O801 C800 1.224 . S
N802 Co792 2.128 . S
N802 C803 1.355 . S
N802 C805 1.311 . S
C803 N802 1.355 . S
C803 C804 1.363 . S
C803 H815 0.929 . S
C804 C803 1.363 . S
C804 N806 1.375 . S
C804 H822 0.931 . S
C805 N802 1.311 . S
C805 N806 1.347 . S
C805 H816 0.929 . S
N806 C804 1.375 . S
N806 C805 1.347 . S
C807 C810 1.365 . S
C807 N812 1.328 . S
C807 H813 0.929 . S
C808 C809 1.362 . S
C808 C811 1.378 . S
C808 H823 0.929 . S
C809 C808 1.362 . S
C809 C810 1.366 . S
C810 C807 1.365 . S
C810 C809 1.366 . S
C810 H824 0.930 . S
C811 C808 1.378 . S
C811 N812 1.315 . S
C811 H814 0.930 . S
N812 Co792 2.194 . S
N812 C807 1.328 . S
N812 C811 1.315 . S
H813 C807 0.929 . S
H814 C811 0.930 . S
H815 C803 0.929 . S
H816 C805 0.929 . S
O817 Co792 2.351 . S
O817 C820 1.244 . S
O818 Co792 2.155 . S
O818 C820 1.240 . S
O819 Co792 2.096 . S
O819 C800 1.247 . S
C820 O817 1.244 . S
C820 O818 1.240 . S
H821 C795 0.931 . S
H822 C804 0.931 . S
H823 C808 0.929 . S
H824 C810 0.930 . S
Co825 N829 2.148 . S
Co825 N835 2.128 . S
Co825 N845 2.194 . S
Co825 O850 2.351 . S
Co825 O851 2.155 . S
Co825 O852 2.096 . S
C826 N829 1.301 . S
C826 N830 1.328 . S
C826 H831 0.930 . S
C827 C828 1.333 . S
C827 N829 1.317 . S
C827 H832 0.930 . S
C828 C827 1.333 . S
C828 N830 1.350 . S
C828 H854 0.931 . S
N829 Co825 2.148 . S
N829 C826 1.301 . S
N829 C827 1.317 . S
N830 C826 1.328 . S
N830 C828 1.350 . S
H831 C826 0.930 . S
H832 C827 0.930 . S
C833 O834 1.224 . S
C833 O852 1.247 . S
O834 C833 1.224 . S
N835 Co825 2.128 . S
N835 C836 1.355 . S
N835 C838 1.311 . S
C836 N835 1.355 . S
C836 C837 1.363 . S
C836 H848 0.929 . S
C837 C836 1.363 . S
C837 N839 1.375 . S
C837 H855 0.931 . S
C838 N835 1.311 . S
C838 N839 1.347 . S
C838 H849 0.929 . S
N839 C837 1.375 . S
N839 C838 1.347 . S
C840 C843 1.365 . S
C840 N845 1.328 . S
C840 H846 0.929 . S
C841 C842 1.362 . S
C841 C844 1.378 . S
C841 H856 0.929 . S
C842 C841 1.362 . S
C842 C843 1.366 . S
C843 C840 1.365 . S
C843 C842 1.366 . S
C843 H857 0.930 . S
C844 C841 1.378 . S
C844 N845 1.315 . S
C844 H847 0.930 . S
N845 Co825 2.194 . S
N845 C840 1.328 . S
N845 C844 1.315 . S
H846 C840 0.929 . S
H847 C844 0.930 . S
H848 C836 0.929 . S
H849 C838 0.929 . S
O850 Co825 2.351 . S
O850 C853 1.244 . S
O851 Co825 2.155 . S
O851 C853 1.240 . S
O852 Co825 2.096 . S
O852 C833 1.247 . S
C853 O850 1.244 . S
C853 O851 1.240 . S
H854 C828 0.931 . S
H855 C837 0.931 . S
H856 C841 0.929 . S
H857 C843 0.930 . S
Co858 N862 2.148 . S
Co858 N868 2.128 . S
Co858 N878 2.194 . S
Co858 O883 2.351 . S
Co858 O884 2.155 . S
Co858 O885 2.096 . S
C859 N862 1.301 . S
C859 N863 1.328 . S
C859 H864 0.930 . S
C860 C861 1.333 . S
C860 N862 1.317 . S
C860 H865 0.930 . S
C861 C860 1.333 . S
C861 N863 1.350 . S
C861 H887 0.931 . S
N862 Co858 2.148 . S
N862 C859 1.301 . S
N862 C860 1.317 . S
N863 C859 1.328 . S
N863 C861 1.350 . S
H864 C859 0.930 . S
H865 C860 0.930 . S
C866 O867 1.224 . S
C866 O885 1.247 . S
O867 C866 1.224 . S
N868 Co858 2.128 . S
N868 C869 1.355 . S
N868 C871 1.311 . S
C869 N868 1.355 . S
C869 C870 1.363 . S
C869 H881 0.929 . S
C870 C869 1.363 . S
C870 N872 1.375 . S
C870 H888 0.931 . S
C871 N868 1.311 . S
C871 N872 1.347 . S
C871 H882 0.929 . S
N872 C870 1.375 . S
N872 C871 1.347 . S
C873 C876 1.365 . S
C873 N878 1.328 . S
C873 H879 0.929 . S
C874 C875 1.362 . S
C874 C877 1.378 . S
C874 H889 0.929 . S
C875 C874 1.362 . S
C875 C876 1.366 . S
C876 C873 1.365 . S
C876 C875 1.366 . S
C876 H890 0.930 . S
C877 C874 1.378 . S
C877 N878 1.315 . S
C877 H880 0.930 . S
N878 Co858 2.194 . S
N878 C873 1.328 . S
N878 C877 1.315 . S
H879 C873 0.929 . S
H880 C877 0.930 . S
H881 C869 0.929 . S
H882 C871 0.929 . S
O883 Co858 2.351 . S
O883 C886 1.244 . S
O884 Co858 2.155 . S
O884 C886 1.240 . S
O885 Co858 2.096 . S
O885 C866 1.247 . S
C886 O883 1.244 . S
C886 O884 1.240 . S
H887 C861 0.931 . S
H888 C870 0.931 . S
H889 C874 0.929 . S
H890 C876 0.930 . S
Co891 N895 2.148 . S
Co891 N901 2.128 . S
Co891 N911 2.194 . S
Co891 O916 2.351 . S
Co891 O917 2.155 . S
Co891 O918 2.096 . S
C892 N895 1.301 . S
C892 N896 1.328 . S
C892 H897 0.930 . S
C893 C894 1.333 . S
C893 N895 1.317 . S
C893 H898 0.930 . S
C894 C893 1.333 . S
C894 N896 1.350 . S
C894 H920 0.931 . S
N895 Co891 2.148 . S
N895 C892 1.301 . S
N895 C893 1.317 . S
N896 C892 1.328 . S
N896 C894 1.350 . S
H897 C892 0.930 . S
H898 C893 0.930 . S
C899 O900 1.224 . S
C899 O918 1.247 . S
O900 C899 1.224 . S
N901 Co891 2.128 . S
N901 C902 1.355 . S
N901 C904 1.311 . S
C902 N901 1.355 . S
C902 C903 1.363 . S
C902 H914 0.929 . S
C903 C902 1.363 . S
C903 N905 1.375 . S
C903 H921 0.931 . S
C904 N901 1.311 . S
C904 N905 1.347 . S
C904 H915 0.929 . S
N905 C903 1.375 . S
N905 C904 1.347 . S
C906 C909 1.365 . S
C906 N911 1.328 . S
C906 H912 0.929 . S
C907 C908 1.346 1_554 S
C907 C910 1.413 . S
C907 H922 0.911 1_554 S
C908 C907 1.346 1_556 S
C908 C909 1.366 1_556 S
C909 C906 1.365 . S
C909 C908 1.366 1_554 S
C909 H923 0.930 1_554 S
C910 C907 1.413 . S
C910 N911 1.315 . S
C910 H913 0.930 . S
N911 Co891 2.194 . S
N911 C906 1.328 . S
N911 C910 1.315 . S
H912 C906 0.929 . S
H913 C910 0.930 . S
H914 C902 0.929 . S
H915 C904 0.929 . S
O916 Co891 2.351 . S
O916 C919 1.244 . S
O917 Co891 2.155 . S
O917 C919 1.240 . S
O918 Co891 2.096 . S
O918 C899 1.247 . S
C919 O916 1.244 . S
C919 O917 1.240 . S
H920 C894 0.931 . S
H921 C903 0.931 . S
H922 C907 0.911 1_556 S
H923 C909 0.930 1_556 S
Co924 N928 2.148 . S
Co924 N934 2.128 . S
Co924 N944 2.194 . S
Co924 O949 2.351 . S
Co924 O950 2.155 . S
Co924 O951 2.096 . S
C925 N928 1.301 . S
C925 N929 1.328 . S
C925 H930 0.930 . S
C926 C927 1.333 . S
C926 N928 1.317 . S
C926 H931 0.930 . S
C927 C926 1.333 . S
C927 N929 1.350 . S
C927 H953 0.931 . S
N928 Co924 2.148 . S
N928 C925 1.301 . S
N928 C926 1.317 . S
N929 C925 1.328 . S
N929 C927 1.350 . S
H930 C925 0.930 . S
H931 C926 0.930 . S
C932 O933 1.224 . S
C932 O951 1.247 . S
O933 C932 1.224 . S
N934 Co924 2.128 . S
N934 C935 1.355 . S
N934 C937 1.311 . S
C935 N934 1.355 . S
C935 C936 1.363 . S
C935 H947 0.929 . S
C936 C935 1.363 . S
C936 N938 1.375 . S
C936 H954 0.931 . S
C937 N934 1.311 . S
C937 N938 1.347 . S
C937 H948 0.929 . S
N938 C936 1.375 . S
N938 C937 1.347 . S
C939 C942 1.365 . S
C939 N944 1.328 . S
C939 H945 0.929 . S
C940 C941 1.346 1_554 S
C940 C943 1.413 . S
C940 H955 0.911 1_554 S
C941 C940 1.346 1_556 S
C941 C942 1.366 1_556 S
C942 C939 1.365 . S
C942 C941 1.366 1_554 S
C942 H956 0.930 1_554 S
C943 C940 1.413 . S
C943 N944 1.315 . S
C943 H946 0.930 . S
N944 Co924 2.194 . S
N944 C939 1.328 . S
N944 C943 1.315 . S
H945 C939 0.929 . S
H946 C943 0.930 . S
H947 C935 0.929 . S
H948 C937 0.929 . S
O949 Co924 2.351 . S
O949 C952 1.244 . S
O950 Co924 2.155 . S
O950 C952 1.240 . S
O951 Co924 2.096 . S
O951 C932 1.247 . S
C952 O949 1.244 . S
C952 O950 1.240 . S
H953 C927 0.931 . S
H954 C936 0.931 . S
H955 C940 0.911 1_556 S
H956 C942 0.930 1_556 S
Co957 N961 2.148 . S
Co957 N967 2.128 . S
Co957 N977 2.194 . S
Co957 O982 2.351 . S
Co957 O983 2.155 . S
Co957 O984 2.096 . S
C958 N961 1.301 . S
C958 N962 1.328 . S
C958 H963 0.930 . S
C959 C960 1.333 . S
C959 N961 1.317 . S
C959 H964 0.930 . S
C960 C959 1.333 . S
C960 N962 1.350 . S
C960 H986 0.931 . S
N961 Co957 2.148 . S
N961 C958 1.301 . S
N961 C959 1.317 . S
N962 C958 1.328 . S
N962 C960 1.350 . S
H963 C958 0.930 . S
H964 C959 0.930 . S
C965 O966 1.224 . S
C965 O984 1.247 . S
O966 C965 1.224 . S
N967 Co957 2.128 . S
N967 C968 1.355 . S
N967 C970 1.311 . S
C968 N967 1.355 . S
C968 C969 1.363 . S
C968 H980 0.929 . S
C969 C968 1.363 . S
C969 N971 1.375 . S
C969 H987 0.931 . S
C970 N967 1.311 . S
C970 N971 1.347 . S
C970 H981 0.929 . S
N971 C969 1.375 . S
N971 C970 1.347 . S
C972 C975 1.365 . S
C972 N977 1.328 . S
C972 H978 0.929 . S
C973 C974 1.346 1_554 S
C973 C976 1.413 . S
C973 H988 0.911 1_554 S
C974 C973 1.346 1_556 S
C974 C975 1.366 1_556 S
C975 C972 1.365 . S
C975 C974 1.366 1_554 S
C975 H989 0.930 1_554 S
C976 C973 1.413 . S
C976 N977 1.315 . S
C976 H979 0.930 . S
N977 Co957 2.194 . S
N977 C972 1.328 . S
N977 C976 1.315 . S
H978 C972 0.929 . S
H979 C976 0.930 . S
H980 C968 0.929 . S
H981 C970 0.929 . S
O982 Co957 2.351 . S
O982 C985 1.244 . S
O983 Co957 2.155 . S
O983 C985 1.240 . S
O984 Co957 2.096 . S
O984 C965 1.247 . S
C985 O982 1.244 . S
C985 O983 1.240 . S
H986 C960 0.931 . S
H987 C969 0.931 . S
H988 C973 0.911 1_556 S
H989 C975 0.930 1_556 S
Co990 N994 2.148 . S
Co990 N1000 2.128 . S
Co990 N1010 2.194 . S
Co990 O1015 2.351 . S
Co990 O1016 2.155 . S
Co990 O1017 2.096 . S
C991 N994 1.301 . S
C991 N995 1.328 . S
C991 H996 0.930 . S
C992 C993 1.333 . S
C992 N994 1.317 . S
C992 H997 0.930 . S
C993 C992 1.333 . S
C993 N995 1.350 . S
C993 H1019 0.931 . S
N994 Co990 2.148 . S
N994 C991 1.301 . S
N994 C992 1.317 . S
N995 C991 1.328 . S
N995 C993 1.350 . S
H996 C991 0.930 . S
H997 C992 0.930 . S
C998 O999 1.224 . S
C998 O1017 1.247 . S
O999 C998 1.224 . S
N1000 Co990 2.128 . S
N1000 C1001 1.355 . S
N1000 C1003 1.311 . S
C1001 N1000 1.355 . S
C1001 C1002 1.363 . S
C1001 H1013 0.929 . S
C1002 C1001 1.363 . S
C1002 N1004 1.375 . S
C1002 H1020 0.931 . S
C1003 N1000 1.311 . S
C1003 N1004 1.347 . S
C1003 H1014 0.929 . S
N1004 C1002 1.375 . S
N1004 C1003 1.347 . S
C1005 C1008 1.365 . S
C1005 N1010 1.328 . S
C1005 H1011 0.929 . S
C1006 C1007 1.362 . S
C1006 C1009 1.378 . S
C1006 H1021 0.929 . S
C1007 C1006 1.362 . S
C1007 C1008 1.366 . S
C1008 C1005 1.365 . S
C1008 C1007 1.366 . S
C1008 H1022 0.930 . S
C1009 C1006 1.378 . S
C1009 N1010 1.315 . S
C1009 H1012 0.930 . S
N1010 Co990 2.194 . S
N1010 C1005 1.328 . S
N1010 C1009 1.315 . S
H1011 C1005 0.929 . S
H1012 C1009 0.930 . S
H1013 C1001 0.929 . S
H1014 C1003 0.929 . S
O1015 Co990 2.351 . S
O1015 C1018 1.244 . S
O1016 Co990 2.155 . S
O1016 C1018 1.240 . S
O1017 Co990 2.096 . S
O1017 C998 1.247 . S
C1018 O1015 1.244 . S
C1018 O1016 1.240 . S
H1019 C993 0.931 . S
H1020 C1002 0.931 . S
H1021 C1006 0.929 . S
H1022 C1008 0.930 . S
Co1023 N1027 2.148 . S
Co1023 N1033 2.128 . S
Co1023 N1043 2.194 . S
Co1023 O1048 2.351 . S
Co1023 O1049 2.155 . S
Co1023 O1050 2.096 . S
C1024 N1027 1.301 . S
C1024 N1028 1.328 . S
C1024 H1029 0.930 . S
C1025 C1026 1.333 . S
C1025 N1027 1.317 . S
C1025 H1030 0.930 . S
C1026 C1025 1.333 . S
C1026 N1028 1.350 . S
C1026 H1052 0.931 . S
N1027 Co1023 2.148 . S
N1027 C1024 1.301 . S
N1027 C1025 1.317 . S
N1028 C1024 1.328 . S
N1028 C1026 1.350 . S
H1029 C1024 0.930 . S
H1030 C1025 0.930 . S
C1031 O1032 1.224 . S
C1031 O1050 1.247 . S
O1032 C1031 1.224 . S
N1033 Co1023 2.128 . S
N1033 C1034 1.355 . S
N1033 C1036 1.311 . S
C1034 N1033 1.355 . S
C1034 C1035 1.363 . S
C1034 H1046 0.929 . S
C1035 C1034 1.363 . S
C1035 N1037 1.375 . S
C1035 H1053 0.931 . S
C1036 N1033 1.311 . S
C1036 N1037 1.347 . S
C1036 H1047 0.929 . S
N1037 C1035 1.375 . S
N1037 C1036 1.347 . S
C1038 C1041 1.365 . S
C1038 N1043 1.328 . S
C1038 H1044 0.929 . S
C1039 C1040 1.362 . S
C1039 C1042 1.378 . S
C1039 H1054 0.929 . S
C1040 C1039 1.362 . S
C1040 C1041 1.366 . S
C1041 C1038 1.365 . S
C1041 C1040 1.366 . S
C1041 H1055 0.930 . S
C1042 C1039 1.378 . S
C1042 N1043 1.315 . S
C1042 H1045 0.930 . S
N1043 Co1023 2.194 . S
N1043 C1038 1.328 . S
N1043 C1042 1.315 . S
H1044 C1038 0.929 . S
H1045 C1042 0.930 . S
H1046 C1034 0.929 . S
H1047 C1036 0.929 . S
O1048 Co1023 2.351 . S
O1048 C1051 1.244 . S
O1049 Co1023 2.155 . S
O1049 C1051 1.240 . S
O1050 Co1023 2.096 . S
O1050 C1031 1.247 . S
C1051 O1048 1.244 . S
C1051 O1049 1.240 . S
H1052 C1026 0.931 . S
H1053 C1035 0.931 . S
H1054 C1039 0.929 . S
H1055 C1041 0.930 . S
Co1056 N1060 2.148 . S
Co1056 N1066 2.128 . S
Co1056 N1076 2.194 . S
Co1056 O1081 2.351 . S
Co1056 O1082 2.155 . S
Co1056 O1083 2.096 . S
C1057 N1060 1.301 . S
C1057 N1061 1.328 . S
C1057 H1062 0.930 . S
C1058 C1059 1.333 . S
C1058 N1060 1.317 . S
C1058 H1063 0.930 . S
C1059 C1058 1.333 . S
C1059 N1061 1.350 . S
C1059 H1085 0.931 . S
N1060 Co1056 2.148 . S
N1060 C1057 1.301 . S
N1060 C1058 1.317 . S
N1061 C1057 1.328 . S
N1061 C1059 1.350 . S
H1062 C1057 0.930 . S
H1063 C1058 0.930 . S
C1064 O1065 1.224 . S
C1064 O1083 1.247 . S
O1065 C1064 1.224 . S
N1066 Co1056 2.128 . S
N1066 C1067 1.355 . S
N1066 C1069 1.311 . S
C1067 N1066 1.355 . S
C1067 C1068 1.363 . S
C1067 H1079 0.929 . S
C1068 C1067 1.363 . S
C1068 N1070 1.375 . S
C1068 H1086 0.931 . S
C1069 N1066 1.311 . S
C1069 N1070 1.347 . S
C1069 H1080 0.929 . S
N1070 C1068 1.375 . S
N1070 C1069 1.347 . S
C1071 C1074 1.365 . S
C1071 N1076 1.328 . S
C1071 H1077 0.929 . S
C1072 C1073 1.362 . S
C1072 C1075 1.378 . S
C1072 H1087 0.929 . S
C1073 C1072 1.362 . S
C1073 C1074 1.366 . S
C1074 C1071 1.365 . S
C1074 C1073 1.366 . S
C1074 H1088 0.930 . S
C1075 C1072 1.378 . S
C1075 N1076 1.315 . S
C1075 H1078 0.930 . S
N1076 Co1056 2.194 . S
N1076 C1071 1.328 . S
N1076 C1075 1.315 . S
H1077 C1071 0.929 . S
H1078 C1075 0.930 . S
H1079 C1067 0.929 . S
H1080 C1069 0.929 . S
O1081 Co1056 2.351 . S
O1081 C1084 1.244 . S
O1082 Co1056 2.155 . S
O1082 C1084 1.240 . S
O1083 Co1056 2.096 . S
O1083 C1064 1.247 . S
C1084 O1081 1.244 . S
C1084 O1082 1.240 . S
H1085 C1059 0.931 . S
H1086 C1068 0.931 . S
H1087 C1072 0.929 . S
H1088 C1074 0.930 . S
Co1089 N1093 2.148 . S
Co1089 N1099 2.128 . S
Co1089 N1109 2.194 . S
Co1089 O1114 2.351 . S
Co1089 O1115 2.155 . S
Co1089 O1116 2.096 . S
C1090 N1093 1.301 . S
C1090 N1094 1.328 . S
C1090 H1095 0.930 . S
C1091 C1092 1.333 . S
C1091 N1093 1.317 . S
C1091 H1096 0.930 . S
C1092 C1091 1.333 . S
C1092 N1094 1.350 . S
C1092 H1118 0.931 . S
N1093 Co1089 2.148 . S
N1093 C1090 1.301 . S
N1093 C1091 1.317 . S
N1094 C1090 1.328 . S
N1094 C1092 1.350 . S
H1095 C1090 0.930 . S
H1096 C1091 0.930 . S
C1097 O1098 1.224 . S
C1097 O1116 1.247 . S
O1098 C1097 1.224 . S
N1099 Co1089 2.128 . S
N1099 C1100 1.355 . S
N1099 C1102 1.311 . S
C1100 N1099 1.355 . S
C1100 C1101 1.363 . S
C1100 H1112 0.929 . S
C1101 C1100 1.363 . S
C1101 N1103 1.375 . S
C1101 H1119 0.931 . S
C1102 N1099 1.311 . S
C1102 N1103 1.347 . S
C1102 H1113 0.929 . S
N1103 C1101 1.375 . S
N1103 C1102 1.347 . S
C1104 C1107 1.365 . S
C1104 N1109 1.328 . S
C1104 H1110 0.929 . S
C1105 C1106 1.362 . S
C1105 C1108 1.378 . S
C1105 H1120 0.929 . S
C1106 C1105 1.362 . S
C1106 C1107 1.366 . S
C1107 C1104 1.365 . S
C1107 C1106 1.366 . S
C1107 H1121 0.930 . S
C1108 C1105 1.378 . S
C1108 N1109 1.315 . S
C1108 H1111 0.930 . S
N1109 Co1089 2.194 . S
N1109 C1104 1.328 . S
N1109 C1108 1.315 . S
H1110 C1104 0.929 . S
H1111 C1108 0.930 . S
H1112 C1100 0.929 . S
H1113 C1102 0.929 . S
O1114 Co1089 2.351 . S
O1114 C1117 1.244 . S
O1115 Co1089 2.155 . S
O1115 C1117 1.240 . S
O1116 Co1089 2.096 . S
O1116 C1097 1.247 . S
C1117 O1114 1.244 . S
C1117 O1115 1.240 . S
H1118 C1092 0.931 . S
H1119 C1101 0.931 . S
H1120 C1105 0.929 . S
H1121 C1107 0.930 . S
Co1122 N1126 2.148 . S
Co1122 N1132 2.128 . S
Co1122 N1142 2.194 . S
Co1122 O1147 2.351 . S
Co1122 O1148 2.155 . S
Co1122 O1149 2.096 . S
C1123 N1126 1.301 . S
C1123 N1127 1.328 . S
C1123 H1128 0.930 . S
C1124 C1125 1.333 . S
C1124 N1126 1.317 . S
C1124 H1129 0.930 . S
C1125 C1124 1.333 . S
C1125 N1127 1.350 . S
C1125 H1151 0.931 . S
N1126 Co1122 2.148 . S
N1126 C1123 1.301 . S
N1126 C1124 1.317 . S
N1127 C1123 1.328 . S
N1127 C1125 1.350 . S
H1128 C1123 0.930 . S
H1129 C1124 0.930 . S
C1130 O1131 1.224 . S
C1130 O1149 1.247 . S
O1131 C1130 1.224 . S
N1132 Co1122 2.128 . S
N1132 C1133 1.355 . S
N1132 C1135 1.311 . S
C1133 N1132 1.355 . S
C1133 C1134 1.363 . S
C1133 H1145 0.929 . S
C1134 C1133 1.363 . S
C1134 N1136 1.375 . S
C1134 H1152 0.931 . S
C1135 N1132 1.311 . S
C1135 N1136 1.347 . S
C1135 H1146 0.929 . S
N1136 C1134 1.375 . S
N1136 C1135 1.347 . S
C1137 C1140 1.365 . S
C1137 N1142 1.328 . S
C1137 H1143 0.929 . S
C1138 C1139 1.362 . S
C1138 C1141 1.378 . S
C1138 H1153 0.929 . S
C1139 C1138 1.362 . S
C1139 C1140 1.366 . S
C1140 C1137 1.365 . S
C1140 C1139 1.366 . S
C1140 H1154 0.930 . S
C1141 C1138 1.378 . S
C1141 N1142 1.315 . S
C1141 H1144 0.930 . S
N1142 Co1122 2.194 . S
N1142 C1137 1.328 . S
N1142 C1141 1.315 . S
H1143 C1137 0.929 . S
H1144 C1141 0.930 . S
H1145 C1133 0.929 . S
H1146 C1135 0.929 . S
O1147 Co1122 2.351 . S
O1147 C1150 1.244 . S
O1148 Co1122 2.155 . S
O1148 C1150 1.240 . S
O1149 Co1122 2.096 . S
O1149 C1130 1.247 . S
C1150 O1147 1.244 . S
C1150 O1148 1.240 . S
H1151 C1125 0.931 . S
H1152 C1134 0.931 . S
H1153 C1138 0.929 . S
H1154 C1140 0.930 . S
Co1155 N1159 2.148 . S
Co1155 N1165 2.128 . S
Co1155 N1175 2.194 . S
Co1155 O1180 2.351 . S
Co1155 O1181 2.155 . S
Co1155 O1182 2.096 . S
C1156 N1159 1.301 . S
C1156 N1160 1.328 . S
C1156 H1161 0.930 . S
C1157 C1158 1.333 . S
C1157 N1159 1.317 . S
C1157 H1162 0.930 . S
C1158 C1157 1.333 . S
C1158 N1160 1.350 . S
C1158 H1184 0.931 . S
N1159 Co1155 2.148 . S
N1159 C1156 1.301 . S
N1159 C1157 1.317 . S
N1160 C1156 1.328 . S
N1160 C1158 1.350 . S
H1161 C1156 0.930 . S
H1162 C1157 0.930 . S
C1163 O1164 1.224 . S
C1163 O1182 1.247 . S
O1164 C1163 1.224 . S
N1165 Co1155 2.128 . S
N1165 C1166 1.355 . S
N1165 C1168 1.311 . S
C1166 N1165 1.355 . S
C1166 C1167 1.363 . S
C1166 H1178 0.929 . S
C1167 C1166 1.363 . S
C1167 N1169 1.375 . S
C1167 H1185 0.931 . S
C1168 N1165 1.311 . S
C1168 N1169 1.347 . S
C1168 H1179 0.929 . S
N1169 C1167 1.375 . S
N1169 C1168 1.347 . S
C1170 C1173 1.365 . S
C1170 N1175 1.328 . S
C1170 H1176 0.929 . S
C1171 C1172 1.362 . S
C1171 C1174 1.378 . S
C1171 H1186 0.929 . S
C1172 C1171 1.362 . S
C1172 C1173 1.366 . S
C1173 C1170 1.365 . S
C1173 C1172 1.366 . S
C1173 H1187 0.930 . S
C1174 C1171 1.378 . S
C1174 N1175 1.315 . S
C1174 H1177 0.930 . S
N1175 Co1155 2.194 . S
N1175 C1170 1.328 . S
N1175 C1174 1.315 . S
H1176 C1170 0.929 . S
H1177 C1174 0.930 . S
H1178 C1166 0.929 . S
H1179 C1168 0.929 . S
O1180 Co1155 2.351 . S
O1180 C1183 1.244 . S
O1181 Co1155 2.155 . S
O1181 C1183 1.240 . S
O1182 Co1155 2.096 . S
O1182 C1163 1.247 . S
C1183 O1180 1.244 . S
C1183 O1181 1.240 . S
H1184 C1158 0.931 . S
H1185 C1167 0.931 . S
H1186 C1171 0.929 . S
H1187 C1173 0.930 . S
H1188 C1194 0.930 . S
H1189 C1198 0.930 . S
H1190 C1203 0.929 . S
H1191 C1201 0.929 . S
H1192 C1196 0.929 . S
H1193 C1202 0.929 . S
C1194 H1188 0.930 . S
C1194 C1195 1.367 . S
C1194 C1202 1.378 . S
C1195 C1194 1.367 . S
C1195 C1203 1.433 . S
C1196 H1192 0.929 . S
C1196 C1198 1.378 . S
C1196 C1200 1.350 . S
C1197 C1200 1.463 . S
C1197 C1202 1.350 . S
C1197 N1205 1.427 . S
C1198 H1189 0.930 . S
C1198 C1196 1.378 . S
C1198 C1199 1.367 . S
C1199 C1198 1.367 . S
C1199 C1201 1.433 . S
C1200 C1196 1.350 . S
C1200 C1197 1.463 . S
C1200 N1204 1.427 . S
C1201 H1191 0.929 . S
C1201 C1199 1.433 . S
C1201 N1204 1.384 . S
C1202 H1193 0.929 . S
C1202 C1194 1.378 . S
C1202 C1197 1.350 . S
C1203 H1190 0.929 . S
C1203 C1195 1.433 . S
C1203 N1205 1.384 . S
N1204 C1200 1.427 . S
N1204 C1201 1.384 . S
N1205 C1197 1.427 . S
N1205 C1203 1.384 . S
H1206 C1212 0.930 . S
H1207 C1216 0.930 . S
H1208 C1221 0.929 . S
H1209 C1219 0.929 . S
H1210 C1214 0.929 . S
H1211 C1220 0.929 . S
C1212 H1206 0.930 . S
C1212 C1213 1.367 . S
C1212 C1220 1.378 . S
C1213 C1212 1.367 . S
C1213 C1221 1.433 1_545 S
C1214 H1210 0.929 . S
C1214 C1216 1.378 . S
C1214 C1218 1.350 . S
C1215 C1218 1.463 1_545 S
C1215 C1220 1.350 . S
C1215 N1223 1.427 1_545 S
C1216 H1207 0.930 . S
C1216 C1214 1.378 . S
C1216 C1217 1.367 . S
C1217 C1216 1.367 . S
C1217 C1219 1.433 1_565 S
C1218 C1214 1.350 . S
C1218 C1215 1.463 1_565 S
C1218 N1222 1.427 1_565 S
C1219 H1209 0.929 . S
C1219 C1217 1.433 1_545 S
C1219 N1222 1.384 . S
C1220 H1211 0.929 . S
C1220 C1212 1.378 . S
C1220 C1215 1.350 . S
C1221 H1208 0.929 . S
C1221 C1213 1.433 1_565 S
C1221 N1223 1.384 . S
N1222 C1218 1.427 1_545 S
N1222 C1219 1.384 . S
N1223 C1215 1.427 1_565 S
N1223 C1221 1.384 . S
H1224 C1230 0.930 . S
H1225 C1234 0.930 . S
H1226 C1239 0.929 . S
H1227 C1237 0.929 . S
H1228 C1232 0.929 . S
H1229 C1238 0.929 . S
C1230 H1224 0.930 . S
C1230 C1231 1.367 . S
C1230 C1238 1.378 . S
C1231 C1230 1.367 . S
C1231 C1239 1.433 1_455 S
C1232 H1228 0.929 . S
C1232 C1234 1.378 . S
C1232 C1236 1.350 . S
C1233 C1236 1.463 1_455 S
C1233 C1238 1.350 . S
C1233 N1241 1.427 1_455 S
C1234 H1225 0.930 . S
C1234 C1232 1.378 . S
C1234 C1235 1.367 . S
C1235 C1234 1.367 . S
C1235 C1237 1.433 1_655 S
C1236 C1232 1.350 . S
C1236 C1233 1.463 1_655 S
C1236 N1240 1.427 1_655 S
C1237 H1227 0.929 . S
C1237 C1235 1.433 1_455 S
C1237 N1240 1.384 . S
C1238 H1229 0.929 . S
C1238 C1230 1.378 . S
C1238 C1233 1.350 . S
C1239 H1226 0.929 . S
C1239 C1231 1.433 1_655 S
C1239 N1241 1.384 . S
N1240 C1236 1.427 1_455 S
N1240 C1237 1.384 . S
N1241 C1233 1.427 1_655 S
N1241 C1239 1.384 . S
H1242 C1248 0.930 . S
H1243 C1252 0.930 . S
H1244 C1257 0.929 . S
H1245 C1255 0.929 . S
H1246 C1250 0.929 . S
H1247 C1256 0.929 . S
C1248 H1242 0.930 . S
C1248 C1249 1.367 . S
C1248 C1256 1.378 . S
C1249 C1248 1.367 . S
C1249 C1257 1.433 . S
C1250 H1246 0.929 . S
C1250 C1252 1.378 . S
C1250 C1254 1.350 . S
C1251 C1254 1.463 . S
C1251 C1256 1.350 . S
C1251 N1259 1.427 . S
C1252 H1243 0.930 . S
C1252 C1250 1.378 . S
C1252 C1253 1.367 . S
C1253 C1252 1.367 . S
C1253 C1255 1.433 . S
C1254 C1250 1.350 . S
C1254 C1251 1.463 . S
C1254 N1258 1.427 . S
C1255 H1245 0.929 . S
C1255 C1253 1.433 . S
C1255 N1258 1.384 . S
C1256 H1247 0.929 . S
C1256 C1248 1.378 . S
C1256 C1251 1.350 . S
C1257 H1244 0.929 . S
C1257 C1249 1.433 . S
C1257 N1259 1.384 . S
N1258 C1254 1.427 . S
N1258 C1255 1.384 . S
N1259 C1251 1.427 . S
N1259 C1257 1.384 . S
H1260 C1266 0.930 . S
H1261 C1270 0.930 . S
H1262 C1275 0.929 . S
H1263 C1273 0.929 . S
H1264 C1268 0.929 . S
H1265 C1274 0.929 . S
C1266 H1260 0.930 . S
C1266 C1267 1.367 . S
C1266 C1274 1.378 . S
C1267 C1266 1.367 . S
C1267 C1275 1.433 1_565 S
C1268 H1264 0.929 . S
C1268 C1270 1.378 . S
C1268 C1272 1.350 . S
C1269 C1272 1.463 1_565 S
C1269 C1274 1.350 . S
C1269 N1277 1.427 1_565 S
C1270 H1261 0.930 . S
C1270 C1268 1.378 . S
C1270 C1271 1.367 . S
C1271 C1270 1.367 . S
C1271 C1273 1.433 1_545 S
C1272 C1268 1.350 . S
C1272 C1269 1.463 1_545 S
C1272 N1276 1.427 1_545 S
C1273 H1263 0.929 . S
C1273 C1271 1.433 1_565 S
C1273 N1276 1.384 . S
C1274 H1265 0.929 . S
C1274 C1266 1.378 . S
C1274 C1269 1.350 . S
C1275 H1262 0.929 . S
C1275 C1267 1.433 1_545 S
C1275 N1277 1.384 . S
N1276 C1272 1.427 1_565 S
N1276 C1273 1.384 . S
N1277 C1269 1.427 1_545 S
N1277 C1275 1.384 . S
H1278 C1284 0.928 . S
H1279 C1288 0.928 . S
H1280 C1293 0.929 . S
H1281 C1291 0.929 . S
H1282 C1286 0.929 . S
H1283 C1292 0.929 . S
C1284 H1278 0.928 . S
C1284 C1285 1.367 . S
C1284 C1292 1.378 1_655 S
C1285 C1284 1.367 . S
C1285 C1293 1.433 . S
C1286 H1282 0.929 . S
C1286 C1288 1.378 1_655 S
C1286 C1290 1.350 1_655 S
C1287 C1290 1.463 1_655 S
C1287 C1292 1.350 1_655 S
C1287 N1295 1.427 . S
C1288 H1279 0.928 . S
C1288 C1286 1.378 1_455 S
C1288 C1289 1.367 . S
C1289 C1288 1.367 . S
C1289 C1291 1.433 . S
C1290 C1286 1.350 1_455 S
C1290 C1287 1.463 1_455 S
C1290 N1294 1.427 . S
C1291 H1281 0.929 . S
C1291 C1289 1.433 . S
C1291 N1294 1.384 . S
C1292 H1283 0.929 . S
C1292 C1284 1.378 1_455 S
C1292 C1287 1.350 1_455 S
C1293 H1280 0.929 . S
C1293 C1285 1.433 . S
C1293 N1295 1.384 . S
N1294 C1290 1.427 . S
N1294 C1291 1.384 . S
N1295 C1287 1.427 . S
N1295 C1293 1.384 . S
H1296 C1302 0.930 . S
H1297 C1306 0.930 . S
H1298 C1311 0.929 . S
H1299 C1309 0.929 . S
H1300 C1304 0.929 . S
H1301 C1310 0.929 . S
C1302 H1296 0.930 . S
C1302 C1303 1.367 . S
C1302 C1310 1.378 . S
C1303 C1302 1.367 . S
C1303 C1311 1.433 . S
C1304 H1300 0.929 . S
C1304 C1306 1.378 . S
C1304 C1308 1.350 . S
C1305 C1308 1.463 . S
C1305 C1310 1.350 . S
C1305 N1313 1.427 . S
C1306 H1297 0.930 . S
C1306 C1304 1.378 . S
C1306 C1307 1.367 . S
C1307 C1306 1.367 . S
C1307 C1309 1.433 . S
C1308 C1304 1.350 . S
C1308 C1305 1.463 . S
C1308 N1312 1.427 . S
C1309 H1299 0.929 . S
C1309 C1307 1.433 . S
C1309 N1312 1.384 . S
C1310 H1301 0.929 . S
C1310 C1302 1.378 . S
C1310 C1305 1.350 . S
C1311 H1298 0.929 . S
C1311 C1303 1.433 . S
C1311 N1313 1.384 . S
N1312 C1308 1.427 . S
N1312 C1309 1.384 . S
N1313 C1305 1.427 . S
N1313 C1311 1.384 . S
H1314 C1320 0.930 . S
H1315 C1324 0.930 . S
H1316 C1329 0.929 . S
H1317 C1327 0.929 . S
H1318 C1322 0.929 . S
H1319 C1328 0.929 . S
C1320 H1314 0.930 . S
C1320 C1321 1.367 . S
C1320 C1328 1.378 . S
C1321 C1320 1.367 . S
C1321 C1329 1.433 . S
C1322 H1318 0.929 . S
C1322 C1324 1.378 . S
C1322 C1326 1.350 . S
C1323 C1326 1.463 . S
C1323 C1328 1.350 . S
C1323 N1331 1.427 . S
C1324 H1315 0.930 . S
C1324 C1322 1.378 . S
C1324 C1325 1.367 . S
C1325 C1324 1.367 . S
C1325 C1327 1.433 . S
C1326 C1322 1.350 . S
C1326 C1323 1.463 . S
C1326 N1330 1.427 . S
C1327 H1317 0.929 . S
C1327 C1325 1.433 . S
C1327 N1330 1.384 . S
C1328 H1319 0.929 . S
C1328 C1320 1.378 . S
C1328 C1323 1.350 . S
C1329 H1316 0.929 . S
C1329 C1321 1.433 . S
C1329 N1331 1.384 . S
N1330 C1326 1.427 . S
N1330 C1327 1.384 . S
N1331 C1323 1.427 . S
N1331 C1329 1.384 . S
H1332 C1338 0.930 . S
H1333 C1342 0.930 . S
H1334 C1347 0.929 . S
H1335 C1345 0.929 . S
H1336 C1340 0.929 . S
H1337 C1346 0.929 . S
C1338 H1332 0.930 . S
C1338 C1339 1.367 . S
C1338 C1346 1.378 . S
C1339 C1338 1.367 . S
C1339 C1347 1.433 . S
C1340 H1336 0.929 . S
C1340 C1342 1.378 . S
C1340 C1344 1.350 . S
C1341 C1344 1.463 . S
C1341 C1346 1.350 . S
C1341 N1349 1.427 . S
C1342 H1333 0.930 . S
C1342 C1340 1.378 . S
C1342 C1343 1.367 . S
C1343 C1342 1.367 . S
C1343 C1345 1.433 . S
C1344 C1340 1.350 . S
C1344 C1341 1.463 . S
C1344 N1348 1.427 . S
C1345 H1335 0.929 . S
C1345 C1343 1.433 . S
C1345 N1348 1.384 . S
C1346 H1337 0.929 . S
C1346 C1338 1.378 . S
C1346 C1341 1.350 . S
C1347 H1334 0.929 . S
C1347 C1339 1.433 . S
C1347 N1349 1.384 . S
N1348 C1344 1.427 . S
N1348 C1345 1.384 . S
N1349 C1341 1.427 . S
N1349 C1347 1.384 . S
H1350 C1356 0.930 . S
H1351 C1360 0.930 . S
H1352 C1365 0.929 . S
H1353 C1363 0.929 . S
H1354 C1358 0.929 . S
H1355 C1364 0.929 . S
C1356 H1350 0.930 . S
C1356 C1357 1.367 . S
C1356 C1364 1.378 . S
C1357 C1356 1.367 . S
C1357 C1365 1.433 . S
C1358 H1354 0.929 . S
C1358 C1360 1.378 . S
C1358 C1362 1.350 . S
C1359 C1362 1.463 . S
C1359 C1364 1.350 . S
C1359 N1367 1.427 . S
C1360 H1351 0.930 . S
C1360 C1358 1.378 . S
C1360 C1361 1.367 . S
C1361 C1360 1.367 . S
C1361 C1363 1.433 . S
C1362 C1358 1.350 . S
C1362 C1359 1.463 . S
C1362 N1366 1.427 . S
C1363 H1353 0.929 . S
C1363 C1361 1.433 . S
C1363 N1366 1.384 . S
C1364 H1355 0.929 . S
C1364 C1356 1.378 . S
C1364 C1359 1.350 . S
C1365 H1352 0.929 . S
C1365 C1357 1.433 . S
C1365 N1367 1.384 . S
N1366 C1362 1.427 . S
N1366 C1363 1.384 . S
N1367 C1359 1.427 . S
N1367 C1365 1.384 . S
H1368 C1374 0.930 . S
H1369 C1378 0.930 . S
H1370 C1383 0.929 . S
H1371 C1381 0.929 . S
H1372 C1376 0.929 . S
H1373 C1382 0.929 . S
C1374 H1368 0.930 . S
C1374 C1375 1.367 . S
C1374 C1382 1.378 . S
C1375 C1374 1.367 . S
C1375 C1383 1.433 . S
C1376 H1372 0.929 . S
C1376 C1378 1.378 . S
C1376 C1380 1.350 . S
C1377 C1380 1.463 . S
C1377 C1382 1.350 . S
C1377 N1385 1.427 . S
C1378 H1369 0.930 . S
C1378 C1376 1.378 . S
C1378 C1379 1.367 . S
C1379 C1378 1.367 . S
C1379 C1381 1.433 . S
C1380 C1376 1.350 . S
C1380 C1377 1.463 . S
C1380 N1384 1.427 . S
C1381 H1371 0.929 . S
C1381 C1379 1.433 . S
C1381 N1384 1.384 . S
C1382 H1373 0.929 . S
C1382 C1374 1.378 . S
C1382 C1377 1.350 . S
C1383 H1370 0.929 . S
C1383 C1375 1.433 . S
C1383 N1385 1.384 . S
N1384 C1380 1.427 . S
N1384 C1381 1.384 . S
N1385 C1377 1.427 . S
N1385 C1383 1.384 . S
H1386 C1392 0.930 . S
H1387 C1396 0.930 . S
H1388 C1401 0.929 . S
H1389 C1399 0.929 . S
H1390 C1394 0.929 . S
H1391 C1400 0.929 . S
C1392 H1386 0.930 . S
C1392 C1393 1.367 . S
C1392 C1400 1.378 . S
C1393 C1392 1.367 . S
C1393 C1401 1.433 . S
C1394 H1390 0.929 . S
C1394 C1396 1.378 . S
C1394 C1398 1.350 . S
C1395 C1398 1.463 . S
C1395 C1400 1.350 . S
C1395 N1403 1.427 . S
C1396 H1387 0.930 . S
C1396 C1394 1.378 . S
C1396 C1397 1.367 . S
C1397 C1396 1.367 . S
C1397 C1399 1.433 . S
C1398 C1394 1.350 . S
C1398 C1395 1.463 . S
C1398 N1402 1.427 . S
C1399 H1389 0.929 . S
C1399 C1397 1.433 . S
C1399 N1402 1.384 . S
C1400 H1391 0.929 . S
C1400 C1392 1.378 . S
C1400 C1395 1.350 . S
C1401 H1388 0.929 . S
C1401 C1393 1.433 . S
C1401 N1403 1.384 . S
N1402 C1398 1.427 . S
N1402 C1399 1.384 . S
N1403 C1395 1.427 . S
N1403 C1401 1.384 . S
H1404 C1410 0.930 . S
H1405 C1414 0.930 . S
H1406 C1419 0.929 . S
H1407 C1417 0.929 . S
H1408 C1412 0.929 . S
H1409 C1418 0.929 . S
C1410 H1404 0.930 . S
C1410 C1411 1.367 . S
C1410 C1418 1.378 . S
C1411 C1410 1.367 . S
C1411 C1419 1.433 . S
C1412 H1408 0.929 . S
C1412 C1414 1.378 . S
C1412 C1416 1.350 . S
C1413 C1416 1.463 . S
C1413 C1418 1.350 . S
C1413 N1421 1.427 . S
C1414 H1405 0.930 . S
C1414 C1412 1.378 . S
C1414 C1415 1.367 . S
C1415 C1414 1.367 . S
C1415 C1417 1.433 . S
C1416 C1412 1.350 . S
C1416 C1413 1.463 . S
C1416 N1420 1.427 . S
C1417 H1407 0.929 . S
C1417 C1415 1.433 . S
C1417 N1420 1.384 . S
C1418 H1409 0.929 . S
C1418 C1410 1.378 . S
C1418 C1413 1.350 . S
C1419 H1406 0.929 . S
C1419 C1411 1.433 . S
C1419 N1421 1.384 . S
N1420 C1416 1.427 . S
N1420 C1417 1.384 . S
N1421 C1413 1.427 . S
N1421 C1419 1.384 . S
H1422 C1428 0.930 . S
H1423 C1432 0.930 . S
H1424 C1437 0.929 . S
H1425 C1435 0.929 . S
H1426 C1430 0.929 . S
H1427 C1436 0.929 . S
C1428 H1422 0.930 . S
C1428 C1429 1.367 . S
C1428 C1436 1.378 . S
C1429 C1428 1.367 . S
C1429 C1437 1.433 . S
C1430 H1426 0.929 . S
C1430 C1432 1.378 . S
C1430 C1434 1.350 . S
C1431 C1434 1.463 . S
C1431 C1436 1.350 . S
C1431 N1439 1.427 . S
C1432 H1423 0.930 . S
C1432 C1430 1.378 . S
C1432 C1433 1.367 . S
C1433 C1432 1.367 . S
C1433 C1435 1.433 . S
C1434 C1430 1.350 . S
C1434 C1431 1.463 . S
C1434 N1438 1.427 . S
C1435 H1425 0.929 . S
C1435 C1433 1.433 . S
C1435 N1438 1.384 . S
C1436 H1427 0.929 . S
C1436 C1428 1.378 . S
C1436 C1431 1.350 . S
C1437 H1424 0.929 . S
C1437 C1429 1.433 . S
C1437 N1439 1.384 . S
N1438 C1434 1.427 . S
N1438 C1435 1.384 . S
N1439 C1431 1.427 . S
N1439 C1437 1.384 . S
H1440 C1446 0.930 . S
H1441 C1450 0.930 . S
H1442 C1455 0.929 . S
H1443 C1453 0.929 . S
H1444 C1448 0.929 . S
H1445 C1454 0.929 . S
C1446 H1440 0.930 . S
C1446 C1447 1.367 . S
C1446 C1454 1.378 . S
C1447 C1446 1.367 . S
C1447 C1455 1.433 . S
C1448 H1444 0.929 . S
C1448 C1450 1.378 . S
C1448 C1452 1.350 . S
C1449 C1452 1.463 . S
C1449 C1454 1.350 . S
C1449 N1457 1.427 . S
C1450 H1441 0.930 . S
C1450 C1448 1.378 . S
C1450 C1451 1.367 . S
C1451 C1450 1.367 . S
C1451 C1453 1.433 . S
C1452 C1448 1.350 . S
C1452 C1449 1.463 . S
C1452 N1456 1.427 . S
C1453 H1443 0.929 . S
C1453 C1451 1.433 . S
C1453 N1456 1.384 . S
C1454 H1445 0.929 . S
C1454 C1446 1.378 . S
C1454 C1449 1.350 . S
C1455 H1442 0.929 . S
C1455 C1447 1.433 . S
C1455 N1457 1.384 . S
N1456 C1452 1.427 . S
N1456 C1453 1.384 . S
N1457 C1449 1.427 . S
N1457 C1455 1.384 . S
H1458 C1464 0.930 . S
H1459 C1468 0.930 . S
H1460 C1473 0.929 . S
H1461 C1471 0.929 . S
H1462 C1466 0.929 . S
H1463 C1472 0.929 . S
C1464 H1458 0.930 . S
C1464 C1465 1.367 . S
C1464 C1472 1.378 . S
C1465 C1464 1.367 . S
C1465 C1473 1.433 . S
C1466 H1462 0.929 . S
C1466 C1468 1.378 . S
C1466 C1470 1.350 . S
C1467 C1470 1.463 . S
C1467 C1472 1.350 . S
C1467 N1475 1.427 . S
C1468 H1459 0.930 . S
C1468 C1466 1.378 . S
C1468 C1469 1.367 . S
C1469 C1468 1.367 . S
C1469 C1471 1.433 . S
C1470 C1466 1.350 . S
C1470 C1467 1.463 . S
C1470 N1474 1.427 . S
C1471 H1461 0.929 . S
C1471 C1469 1.433 . S
C1471 N1474 1.384 . S
C1472 H1463 0.929 . S
C1472 C1464 1.378 . S
C1472 C1467 1.350 . S
C1473 H1460 0.929 . S
C1473 C1465 1.433 . S
C1473 N1475 1.384 . S
N1474 C1470 1.427 . S
N1474 C1471 1.384 . S
N1475 C1467 1.427 . S
N1475 C1473 1.384 . S
H1476 C1482 0.930 . S
H1477 C1486 0.930 . S
H1478 C1491 0.929 . S
H1479 C1489 0.929 . S
H1480 C1484 0.929 . S
H1481 C1490 0.929 . S
C1482 H1476 0.930 . S
C1482 C1483 1.367 . S
C1482 C1490 1.378 . S
C1483 C1482 1.367 . S
C1483 C1491 1.433 . S
C1484 H1480 0.929 . S
C1484 C1486 1.378 . S
C1484 C1488 1.350 . S
C1485 C1488 1.463 . S
C1485 C1490 1.350 . S
C1485 N1493 1.427 . S
C1486 H1477 0.930 . S
C1486 C1484 1.378 . S
C1486 C1487 1.367 . S
C1487 C1486 1.367 . S
C1487 C1489 1.433 . S
C1488 C1484 1.350 . S
C1488 C1485 1.463 . S
C1488 N1492 1.427 . S
C1489 H1479 0.929 . S
C1489 C1487 1.433 . S
C1489 N1492 1.384 . S
C1490 H1481 0.929 . S
C1490 C1482 1.378 . S
C1490 C1485 1.350 . S
C1491 H1478 0.929 . S
C1491 C1483 1.433 . S
C1491 N1493 1.384 . S
N1492 C1488 1.427 . S
N1492 C1489 1.384 . S
N1493 C1485 1.427 . S
N1493 C1491 1.384 . S
H1494 C1500 0.930 . S
H1495 C1504 0.930 . S
H1496 C1509 0.929 . S
H1497 C1507 0.929 . S
H1498 C1502 0.929 . S
H1499 C1508 0.929 . S
C1500 H1494 0.930 . S
C1500 C1501 1.367 . S
C1500 C1508 1.378 . S
C1501 C1500 1.367 . S
C1501 C1509 1.433 . S
C1502 H1498 0.929 . S
C1502 C1504 1.378 . S
C1502 C1506 1.350 . S
C1503 C1506 1.463 . S
C1503 C1508 1.350 . S
C1503 N1511 1.427 . S
C1504 H1495 0.930 . S
C1504 C1502 1.378 . S
C1504 C1505 1.367 . S
C1505 C1504 1.367 . S
C1505 C1507 1.433 . S
C1506 C1502 1.350 . S
C1506 C1503 1.463 . S
C1506 N1510 1.427 . S
C1507 H1497 0.929 . S
C1507 C1505 1.433 . S
C1507 N1510 1.384 . S
C1508 H1499 0.929 . S
C1508 C1500 1.378 . S
C1508 C1503 1.350 . S
C1509 H1496 0.929 . S
C1509 C1501 1.433 . S
C1509 N1511 1.384 . S
N1510 C1506 1.427 . S
N1510 C1507 1.384 . S
N1511 C1503 1.427 . S
N1511 C1509 1.384 . S
H1512 C1518 0.930 . S
H1513 C1522 0.930 . S
H1514 C1527 0.929 . S
H1515 C1525 0.929 . S
H1516 C1520 0.929 . S
H1517 C1526 0.929 . S
C1518 H1512 0.930 . S
C1518 C1519 1.367 . S
C1518 C1526 1.378 . S
C1519 C1518 1.367 . S
C1519 C1527 1.433 . S
C1520 H1516 0.929 . S
C1520 C1522 1.378 . S
C1520 C1524 1.350 . S
C1521 C1524 1.463 . S
C1521 C1526 1.350 . S
C1521 N1529 1.427 . S
C1522 H1513 0.930 . S
C1522 C1520 1.378 . S
C1522 C1523 1.367 . S
C1523 C1522 1.367 . S
C1523 C1525 1.433 . S
C1524 C1520 1.350 . S
C1524 C1521 1.463 . S
C1524 N1528 1.427 . S
C1525 H1515 0.929 . S
C1525 C1523 1.433 . S
C1525 N1528 1.384 . S
C1526 H1517 0.929 . S
C1526 C1518 1.378 . S
C1526 C1521 1.350 . S
C1527 H1514 0.929 . S
C1527 C1519 1.433 . S
C1527 N1529 1.384 . S
N1528 C1524 1.427 . S
N1528 C1525 1.384 . S
N1529 C1521 1.427 . S
N1529 C1527 1.384 . S
H1530 C1536 0.930 . S
H1531 C1540 0.930 . S
H1532 C1545 0.929 . S
H1533 C1543 0.929 . S
H1534 C1538 0.929 . S
H1535 C1544 0.929 . S
C1536 H1530 0.930 . S
C1536 C1537 1.367 . S
C1536 C1544 1.378 . S
C1537 C1536 1.367 . S
C1537 C1545 1.433 . S
C1538 H1534 0.929 . S
C1538 C1540 1.378 . S
C1538 C1542 1.350 . S
C1539 C1542 1.463 . S
C1539 C1544 1.350 . S
C1539 N1547 1.427 . S
C1540 H1531 0.930 . S
C1540 C1538 1.378 . S
C1540 C1541 1.367 . S
C1541 C1540 1.367 . S
C1541 C1543 1.433 1_565 S
C1542 C1538 1.350 . S
C1542 C1539 1.463 . S
C1542 N1546 1.427 . S
C1543 H1533 0.929 . S
C1543 C1541 1.433 1_545 S
C1543 N1546 1.384 1_545 S
C1544 H1535 0.929 . S
C1544 C1536 1.378 . S
C1544 C1539 1.350 . S
C1545 H1532 0.929 . S
C1545 C1537 1.433 . S
C1545 N1547 1.384 . S
N1546 C1542 1.427 . S
N1546 C1543 1.384 1_565 S
N1547 C1539 1.427 . S
N1547 C1545 1.384 . S
H1548 C1554 0.930 . S
H1549 C1558 0.930 . S
H1550 C1563 0.929 . S
H1551 C1561 0.929 . S
H1552 C1556 0.929 . S
H1553 C1562 0.929 . S
C1554 H1548 0.930 . S
C1554 C1555 1.367 . S
C1554 C1562 1.378 . S
C1555 C1554 1.367 . S
C1555 C1563 1.433 1_455 S
C1556 H1552 0.929 . S
C1556 C1558 1.378 . S
C1556 C1560 1.350 . S
C1557 C1560 1.463 . S
C1557 C1562 1.350 . S
C1557 N1565 1.427 . S
C1558 H1549 0.930 . S
C1558 C1556 1.378 . S
C1558 C1559 1.367 . S
C1559 C1558 1.367 . S
C1559 C1561 1.433 . S
C1560 C1556 1.350 . S
C1560 C1557 1.463 . S
C1560 N1564 1.427 . S
C1561 H1551 0.929 . S
C1561 C1559 1.433 . S
C1561 N1564 1.384 . S
C1562 H1553 0.929 . S
C1562 C1554 1.378 . S
C1562 C1557 1.350 . S
C1563 H1550 0.929 . S
C1563 C1555 1.433 1_655 S
C1563 N1565 1.384 1_655 S
N1564 C1560 1.427 . S
N1564 C1561 1.384 . S
N1565 C1557 1.427 . S
N1565 C1563 1.384 1_455 S
H1566 C1572 0.930 . S
H1567 C1576 0.930 . S
H1568 C1581 0.929 . S
H1569 C1579 0.929 . S
H1570 C1574 0.929 . S
H1571 C1580 0.929 . S
C1572 H1566 0.930 . S
C1572 C1573 1.367 . S
C1572 C1580 1.378 . S
C1573 C1572 1.367 . S
C1573 C1581 1.433 . S
C1574 H1570 0.929 . S
C1574 C1576 1.378 . S
C1574 C1578 1.350 . S
C1575 C1578 1.463 . S
C1575 C1580 1.350 . S
C1575 N1583 1.427 . S
C1576 H1567 0.930 . S
C1576 C1574 1.378 . S
C1576 C1577 1.367 . S
C1577 C1576 1.367 . S
C1577 C1579 1.433 . S
C1578 C1574 1.350 . S
C1578 C1575 1.463 . S
C1578 N1582 1.427 . S
C1579 H1569 0.929 . S
C1579 C1577 1.433 . S
C1579 N1582 1.384 . S
C1580 H1571 0.929 . S
C1580 C1572 1.378 . S
C1580 C1575 1.350 . S
C1581 H1568 0.929 . S
C1581 C1573 1.433 . S
C1581 N1583 1.384 . S
N1582 C1578 1.427 . S
N1582 C1579 1.384 . S
N1583 C1575 1.427 . S
N1583 C1581 1.384 . S
H1584 C1590 0.930 . S
H1585 C1594 0.930 . S
H1586 C1599 0.929 1_565 S
H1587 C1597 0.929 . S
H1588 C1592 0.929 . S
H1589 C1598 0.929 . S
C1590 H1584 0.930 . S
C1590 C1591 1.367 . S
C1590 C1598 1.378 . S
C1591 C1590 1.367 . S
C1591 C1599 1.433 . S
C1592 H1588 0.929 . S
C1592 C1594 1.378 . S
C1592 C1596 1.350 . S
C1593 C1596 1.463 . S
C1593 C1598 1.350 . S
C1593 N1601 1.427 . S
C1594 H1585 0.930 . S
C1594 C1592 1.378 . S
C1594 C1595 1.367 . S
C1595 C1594 1.367 . S
C1595 C1597 1.433 . S
C1596 C1592 1.350 . S
C1596 C1593 1.463 . S
C1596 N1600 1.427 . S
C1597 H1587 0.929 . S
C1597 C1595 1.433 . S
C1597 N1600 1.384 . S
C1598 H1589 0.929 . S
C1598 C1590 1.378 . S
C1598 C1593 1.350 . S
C1599 H1586 0.929 1_545 S
C1599 C1591 1.433 . S
C1599 N1601 1.384 . S
N1600 C1596 1.427 . S
N1600 C1597 1.384 . S
N1601 C1593 1.427 . S
N1601 C1599 1.384 . S
H1602 C1608 0.930 . S
H1603 C1612 0.930 . S
H1604 C1617 0.929 . S
H1605 C1615 0.929 . S
H1606 C1610 0.929 . S
H1607 C1616 0.929 . S
C1608 H1602 0.930 . S
C1608 C1609 1.367 . S
C1608 C1616 1.378 . S
C1609 C1608 1.367 . S
C1609 C1617 1.433 . S
C1610 H1606 0.929 . S
C1610 C1612 1.378 1_655 S
C1610 C1614 1.350 . S
C1611 C1614 1.463 . S
C1611 C1616 1.350 . S
C1611 N1619 1.427 . S
C1612 H1603 0.930 . S
C1612 C1610 1.378 1_455 S
C1612 C1613 1.367 1_455 S
C1613 C1612 1.367 1_655 S
C1613 C1615 1.433 . S
C1614 C1610 1.350 . S
C1614 C1611 1.463 . S
C1614 N1618 1.427 . S
C1615 H1605 0.929 . S
C1615 C1613 1.433 . S
C1615 N1618 1.384 . S
C1616 H1607 0.929 . S
C1616 C1608 1.378 . S
C1616 C1611 1.350 . S
C1617 H1604 0.929 . S
C1617 C1609 1.433 . S
C1617 N1619 1.384 . S
N1618 C1614 1.427 . S
N1618 C1615 1.384 . S
N1619 C1611 1.427 . S
N1619 C1617 1.384 . S
H1620 C1626 0.930 . S
H1621 C1630 0.930 . S
H1622 C1635 0.929 . S
H1623 C1633 0.929 . S
H1624 C1628 0.929 . S
H1625 C1634 0.929 . S
C1626 H1620 0.930 . S
C1626 C1627 1.367 . S
C1626 C1634 1.378 . S
C1627 C1626 1.367 . S
C1627 C1635 1.433 . S
C1628 H1624 0.929 . S
C1628 C1630 1.378 . S
C1628 C1632 1.350 . S
C1629 C1632 1.463 . S
C1629 C1634 1.350 . S
C1629 N1637 1.427 . S
C1630 H1621 0.930 . S
C1630 C1628 1.378 . S
C1630 C1631 1.367 . S
C1631 C1630 1.367 . S
C1631 C1633 1.433 . S
C1632 C1628 1.350 . S
C1632 C1629 1.463 . S
C1632 N1636 1.427 . S
C1633 H1623 0.929 . S
C1633 C1631 1.433 . S
C1633 N1636 1.384 . S
C1634 H1625 0.929 . S
C1634 C1626 1.378 . S
C1634 C1629 1.350 . S
C1635 H1622 0.929 . S
C1635 C1627 1.433 . S
C1635 N1637 1.384 . S
N1636 C1632 1.427 . S
N1636 C1633 1.384 . S
N1637 C1629 1.427 . S
N1637 C1635 1.384 . S
H1638 C1644 0.930 . S
H1639 C1648 0.930 . S
H1640 C1653 0.929 . S
H1641 C1651 0.929 . S
H1642 C1646 0.929 . S
H1643 C1652 0.929 . S
C1644 H1638 0.930 . S
C1644 C1645 1.367 . S
C1644 C1652 1.378 . S
C1645 C1644 1.367 . S
C1645 C1653 1.433 . S
C1646 H1642 0.929 . S
C1646 C1648 1.378 . S
C1646 C1650 1.350 . S
C1647 C1650 1.463 . S
C1647 C1652 1.350 . S
C1647 N1655 1.427 . S
C1648 H1639 0.930 . S
C1648 C1646 1.378 . S
C1648 C1649 1.367 . S
C1649 C1648 1.367 . S
C1649 C1651 1.433 1_545 S
C1650 C1646 1.350 . S
C1650 C1647 1.463 . S
C1650 N1654 1.427 . S
C1651 H1641 0.929 . S
C1651 C1649 1.433 1_565 S
C1651 N1654 1.384 1_565 S
C1652 H1643 0.929 . S
C1652 C1644 1.378 . S
C1652 C1647 1.350 . S
C1653 H1640 0.929 . S
C1653 C1645 1.433 . S
C1653 N1655 1.384 . S
N1654 C1650 1.427 . S
N1654 C1651 1.384 1_545 S
N1655 C1647 1.427 . S
N1655 C1653 1.384 . S
H1656 C1662 0.930 . S
H1657 C1666 0.930 . S
H1658 C1671 0.929 . S
H1659 C1669 0.929 1_455 S
H1660 C1664 0.929 . S
H1661 C1670 0.929 . S
C1662 H1656 0.930 . S
C1662 C1663 1.367 . S
C1662 C1670 1.378 . S
C1663 C1662 1.367 . S
C1663 C1671 1.433 . S
C1664 H1660 0.929 . S
C1664 C1666 1.378 . S
C1664 C1668 1.350 . S
C1665 C1668 1.463 . S
C1665 C1670 1.350 . S
C1665 N1673 1.427 . S
C1666 H1657 0.930 . S
C1666 C1664 1.378 . S
C1666 C1667 1.367 . S
C1667 C1666 1.367 . S
C1667 C1669 1.433 . S
C1668 C1664 1.350 . S
C1668 C1665 1.463 . S
C1668 N1672 1.427 . S
C1669 H1659 0.929 1_655 S
C1669 C1667 1.433 . S
C1669 N1672 1.384 . S
C1670 H1661 0.929 . S
C1670 C1662 1.378 . S
C1670 C1665 1.350 . S
C1671 H1658 0.929 . S
C1671 C1663 1.433 . S
C1671 N1673 1.384 . S
N1672 C1668 1.427 . S
N1672 C1669 1.384 . S
N1673 C1665 1.427 . S
N1673 C1671 1.384 . S
H1674 C1680 0.930 . S
H1675 C1684 0.930 . S
H1676 C1689 0.929 . S
H1677 C1687 0.929 . S
H1678 C1682 0.929 . S
H1679 C1688 0.929 . S
C1680 H1674 0.930 . S
C1680 C1681 1.367 . S
C1680 C1688 1.378 . S
C1681 C1680 1.367 . S
C1681 C1689 1.433 . S
C1682 H1678 0.929 . S
C1682 C1684 1.378 . S
C1682 C1686 1.350 . S
C1683 C1686 1.463 . S
C1683 C1688 1.350 . S
C1683 N1691 1.427 . S
C1684 H1675 0.930 . S
C1684 C1682 1.378 . S
C1684 C1685 1.367 . S
C1685 C1684 1.367 . S
C1685 C1687 1.433 . S
C1686 C1682 1.350 . S
C1686 C1683 1.463 . S
C1686 N1690 1.427 . S
C1687 H1677 0.929 . S
C1687 C1685 1.433 . S
C1687 N1690 1.384 . S
C1688 H1679 0.929 . S
C1688 C1680 1.378 . S
C1688 C1683 1.350 . S
C1689 H1676 0.929 . S
C1689 C1681 1.433 . S
C1689 N1691 1.384 . S
N1690 C1686 1.427 . S
N1690 C1687 1.384 . S
N1691 C1683 1.427 . S
N1691 C1689 1.384 . S
H1692 C1698 0.930 . S
H1693 C1702 0.930 . S
H1694 C1707 0.929 . S
H1695 C1705 0.929 . S
H1696 C1700 0.929 . S
H1697 C1706 0.929 . S
C1698 H1692 0.930 . S
C1698 C1699 1.367 . S
C1698 C1706 1.378 . S
C1699 C1698 1.367 . S
C1699 C1707 1.433 . S
C1700 H1696 0.929 . S
C1700 C1702 1.378 . S
C1700 C1704 1.350 . S
C1701 C1704 1.463 . S
C1701 C1706 1.350 . S
C1701 N1709 1.427 . S
C1702 H1693 0.930 . S
C1702 C1700 1.378 . S
C1702 C1703 1.367 . S
C1703 C1702 1.367 . S
C1703 C1705 1.433 1_565 S
C1704 C1700 1.350 . S
C1704 C1701 1.463 . S
C1704 N1708 1.427 . S
C1705 H1695 0.929 . S
C1705 C1703 1.433 1_545 S
C1705 N1708 1.384 1_545 S
C1706 H1697 0.929 . S
C1706 C1698 1.378 . S
C1706 C1701 1.350 . S
C1707 H1694 0.929 . S
C1707 C1699 1.433 . S
C1707 N1709 1.384 . S
N1708 C1704 1.427 . S
N1708 C1705 1.384 1_565 S
N1709 C1701 1.427 . S
N1709 C1707 1.384 . S
H1710 C1716 0.930 . S
H1711 C1720 0.930 . S
H1712 C1725 0.908 1_655 S
H1713 C1723 0.929 . S
H1714 C1718 0.929 . S
H1715 C1724 0.929 . S
C1716 H1710 0.930 . S
C1716 C1717 1.367 . S
C1716 C1724 1.378 . S
C1717 C1716 1.367 . S
C1717 C1725 1.456 . S
C1718 H1714 0.929 . S
C1718 C1720 1.378 . S
C1718 C1722 1.350 . S
C1719 C1722 1.463 . S
C1719 C1724 1.350 . S
C1719 N1727 1.427 . S
C1720 H1711 0.930 . S
C1720 C1718 1.378 . S
C1720 C1721 1.367 . S
C1721 C1720 1.367 . S
C1721 C1723 1.433 . S
C1722 C1718 1.350 . S
C1722 C1719 1.463 . S
C1722 N1726 1.427 . S
C1723 H1713 0.929 . S
C1723 C1721 1.433 . S
C1723 N1726 1.384 . S
C1724 H1715 0.929 . S
C1724 C1716 1.378 . S
C1724 C1719 1.350 . S
C1725 H1712 0.908 1_455 S
C1725 C1717 1.456 . S
C1725 N1727 1.385 . S
N1726 C1722 1.427 . S
N1726 C1723 1.384 . S
N1727 C1719 1.427 . S
N1727 C1725 1.385 . S
H1728 C1734 0.930 . S
H1729 C1738 0.930 . S
H1730 C1743 0.929 . S
H1731 C1741 0.929 . S
H1732 C1736 0.929 . S
H1733 C1742 0.929 . S
C1734 H1728 0.930 . S
C1734 C1735 1.367 . S
C1734 C1742 1.378 . S
C1735 C1734 1.367 . S
C1735 C1743 1.433 . S
C1736 H1732 0.929 . S
C1736 C1738 1.378 . S
C1736 C1740 1.350 . S
C1737 C1740 1.463 1_455 S
C1737 C1742 1.350 . S
C1737 N1745 1.427 . S
C1738 H1729 0.930 . S
C1738 C1736 1.378 . S
C1738 C1739 1.367 . S
C1739 C1738 1.367 . S
C1739 C1741 1.433 . S
C1740 C1736 1.350 . S
C1740 C1737 1.463 1_655 S
C1740 N1744 1.427 . S
C1741 H1731 0.929 . S
C1741 C1739 1.433 . S
C1741 N1744 1.384 . S
C1742 H1733 0.929 . S
C1742 C1734 1.378 . S
C1742 C1737 1.350 . S
C1743 H1730 0.929 . S
C1743 C1735 1.433 . S
C1743 N1745 1.384 . S
N1744 C1740 1.427 . S
N1744 C1741 1.384 . S
N1745 C1737 1.427 . S
N1745 C1743 1.384 . S
H1746 C1752 0.930 . S
H1747 C1756 0.930 . S
H1748 C1761 0.929 . S
H1749 C1759 0.929 . S
H1750 C1754 0.929 . S
H1751 C1760 0.929 . S
C1752 H1746 0.930 . S
C1752 C1753 1.367 . S
C1752 C1760 1.378 . S
C1753 C1752 1.367 . S
C1753 C1761 1.433 . S
C1754 H1750 0.929 . S
C1754 C1756 1.378 . S
C1754 C1758 1.350 . S
C1755 C1758 1.463 . S
C1755 C1760 1.350 . S
C1755 N1763 1.427 . S
C1756 H1747 0.930 . S
C1756 C1754 1.378 . S
C1756 C1757 1.367 . S
C1757 C1756 1.367 . S
C1757 C1759 1.433 . S
C1758 C1754 1.350 . S
C1758 C1755 1.463 . S
C1758 N1762 1.427 . S
C1759 H1749 0.929 . S
C1759 C1757 1.433 . S
C1759 N1762 1.384 . S
C1760 H1751 0.929 . S
C1760 C1752 1.378 . S
C1760 C1755 1.350 . S
C1761 H1748 0.929 . S
C1761 C1753 1.433 . S
C1761 N1763 1.384 . S
N1762 C1758 1.427 . S
N1762 C1759 1.384 . S
N1763 C1755 1.427 . S
N1763 C1761 1.384 . S
H1764 C1770 0.930 . S
H1765 C1774 0.930 . S
H1766 C1779 0.929 . S
H1767 C1777 0.929 . S
H1768 C1772 0.929 . S
H1769 C1778 0.929 . S
C1770 H1764 0.930 . S
C1770 C1771 1.367 . S
C1770 C1778 1.378 . S
C1771 C1770 1.367 . S
C1771 C1779 1.433 . S
C1772 H1768 0.929 . S
C1772 C1774 1.378 . S
C1772 C1776 1.350 . S
C1773 C1776 1.463 1_565 S
C1773 C1778 1.350 . S
C1773 N1781 1.427 . S
C1774 H1765 0.930 . S
C1774 C1772 1.378 . S
C1774 C1775 1.367 . S
C1775 C1774 1.367 . S
C1775 C1777 1.433 . S
C1776 C1772 1.350 . S
C1776 C1773 1.463 1_545 S
C1776 N1780 1.427 . S
C1777 H1767 0.929 . S
C1777 C1775 1.433 . S
C1777 N1780 1.384 . S
C1778 H1769 0.929 . S
C1778 C1770 1.378 . S
C1778 C1773 1.350 . S
C1779 H1766 0.929 . S
C1779 C1771 1.433 . S
C1779 N1781 1.384 . S
N1780 C1776 1.427 . S
N1780 C1777 1.384 . S
N1781 C1773 1.427 . S
N1781 C1779 1.384 . S
H1782 C1788 0.930 . S
H1783 C1792 0.930 . S
H1784 C1797 0.929 . S
H1785 C1795 0.929 . S
H1786 C1790 0.929 . S
H1787 C1796 0.929 . S
C1788 H1782 0.930 . S
C1788 C1789 1.367 . S
C1788 C1796 1.378 . S
C1789 C1788 1.367 . S
C1789 C1797 1.433 . S
C1790 H1786 0.929 . S
C1790 C1792 1.378 . S
C1790 C1794 1.350 . S
C1791 C1794 1.463 1_545 S
C1791 C1796 1.350 . S
C1791 N1799 1.427 . S
C1792 H1783 0.930 . S
C1792 C1790 1.378 . S
C1792 C1793 1.367 . S
C1793 C1792 1.367 . S
C1793 C1795 1.433 . S
C1794 C1790 1.350 . S
C1794 C1791 1.463 1_565 S
C1794 N1798 1.427 . S
C1795 H1785 0.929 . S
C1795 C1793 1.433 . S
C1795 N1798 1.384 . S
C1796 H1787 0.929 . S
C1796 C1788 1.378 . S
C1796 C1791 1.350 . S
C1797 H1784 0.929 . S
C1797 C1789 1.433 . S
C1797 N1799 1.384 . S
N1798 C1794 1.427 . S
N1798 C1795 1.384 . S
N1799 C1791 1.427 . S
N1799 C1797 1.384 . S
H1800 C1806 0.930 . S
H1801 C1810 0.930 . S
H1802 C1815 0.929 . S
H1803 C1813 0.929 . S
H1804 C1808 0.929 . S
H1805 C1814 0.929 . S
C1806 H1800 0.930 . S
C1806 C1807 1.367 . S
C1806 C1814 1.378 . S
C1807 C1806 1.367 . S
C1807 C1815 1.433 . S
C1808 H1804 0.929 . S
C1808 C1810 1.378 . S
C1808 C1812 1.350 . S
C1809 C1812 1.463 1_655 S
C1809 C1814 1.350 . S
C1809 N1817 1.427 . S
C1810 H1801 0.930 . S
C1810 C1808 1.378 . S
C1810 C1811 1.367 . S
C1811 C1810 1.367 . S
C1811 C1813 1.433 . S
C1812 C1808 1.350 . S
C1812 C1809 1.463 1_455 S
C1812 N1816 1.427 . S
C1813 H1803 0.929 . S
C1813 C1811 1.433 . S
C1813 N1816 1.384 . S
C1814 H1805 0.929 . S
C1814 C1806 1.378 . S
C1814 C1809 1.350 . S
C1815 H1802 0.929 . S
C1815 C1807 1.433 . S
C1815 N1817 1.384 . S
N1816 C1812 1.427 . S
N1816 C1813 1.384 . S
N1817 C1809 1.427 . S
N1817 C1815 1.384 . S
H1818 C1824 0.930 . S
H1819 C1828 0.930 . S
H1820 C1833 0.929 . S
H1821 C1831 0.929 . S
H1822 C1826 0.929 . S
H1823 C1832 0.929 . S
C1824 H1818 0.930 . S
C1824 C1825 1.367 . S
C1824 C1832 1.378 . S
C1825 C1824 1.367 . S
C1825 C1833 1.433 . S
C1826 H1822 0.929 . S
C1826 C1828 1.378 . S
C1826 C1830 1.350 . S
C1827 C1830 1.463 . S
C1827 C1832 1.350 . S
C1827 N1835 1.427 . S
C1828 H1819 0.930 . S
C1828 C1826 1.378 . S
C1828 C1829 1.367 . S
C1829 C1828 1.367 . S
C1829 C1831 1.433 . S
C1830 C1826 1.350 . S
C1830 C1827 1.463 . S
C1830 N1834 1.427 . S
C1831 H1821 0.929 . S
C1831 C1829 1.433 . S
C1831 N1834 1.384 . S
C1832 H1823 0.929 . S
C1832 C1824 1.378 . S
C1832 C1827 1.350 . S
C1833 H1820 0.929 . S
C1833 C1825 1.433 . S
C1833 N1835 1.384 . S
N1834 C1830 1.427 . S
N1834 C1831 1.384 . S
N1835 C1827 1.427 . S
N1835 C1833 1.384 . S
H1836 C1842 0.930 . S
H1837 C1846 0.930 . S
H1838 C1851 0.929 . S
H1839 C1849 0.929 . S
H1840 C1844 0.929 . S
H1841 C1850 0.929 . S
C1842 H1836 0.930 . S
C1842 C1843 1.367 . S
C1842 C1850 1.378 . S
C1843 C1842 1.367 . S
C1843 C1851 1.433 . S
C1844 H1840 0.929 . S
C1844 C1846 1.378 . S
C1844 C1848 1.350 . S
C1845 C1848 1.463 . S
C1845 C1850 1.350 . S
C1845 N1853 1.427 . S
C1846 H1837 0.930 . S
C1846 C1844 1.378 . S
C1846 C1847 1.367 . S
C1847 C1846 1.367 . S
C1847 C1849 1.433 . S
C1848 C1844 1.350 . S
C1848 C1845 1.463 . S
C1848 N1852 1.427 . S
C1849 H1839 0.929 . S
C1849 C1847 1.433 . S
C1849 N1852 1.384 . S
C1850 H1841 0.929 . S
C1850 C1842 1.378 . S
C1850 C1845 1.350 . S
C1851 H1838 0.929 . S
C1851 C1843 1.433 . S
C1851 N1853 1.384 . S
N1852 C1848 1.427 . S
N1852 C1849 1.384 . S
N1853 C1845 1.427 . S
N1853 C1851 1.384 . S
H1854 C1860 0.930 . S
H1855 C1864 0.930 . S
H1856 C1869 0.929 . S
H1857 C1867 0.929 . S
H1858 C1862 0.929 . S
H1859 C1868 0.929 . S
C1860 H1854 0.930 . S
C1860 C1861 1.367 . S
C1860 C1868 1.378 . S
C1861 C1860 1.367 . S
C1861 C1869 1.433 . S
C1862 H1858 0.929 . S
C1862 C1864 1.378 . S
C1862 C1866 1.350 . S
C1863 C1866 1.463 . S
C1863 C1868 1.350 . S
C1863 N1871 1.427 . S
C1864 H1855 0.930 . S
C1864 C1862 1.378 . S
C1864 C1865 1.367 . S
C1865 C1864 1.367 . S
C1865 C1867 1.433 . S
C1866 C1862 1.350 . S
C1866 C1863 1.463 . S
C1866 N1870 1.427 . S
C1867 H1857 0.929 . S
C1867 C1865 1.433 . S
C1867 N1870 1.384 . S
C1868 H1859 0.929 . S
C1868 C1860 1.378 . S
C1868 C1863 1.350 . S
C1869 H1856 0.929 . S
C1869 C1861 1.433 . S
C1869 N1871 1.384 . S
N1870 C1866 1.427 . S
N1870 C1867 1.384 . S
N1871 C1863 1.427 . S
N1871 C1869 1.384 . S
H1872 C1878 0.930 . S
H1873 C1882 0.930 . S
H1874 C1887 0.929 . S
H1875 C1885 0.929 . S
H1876 C1880 0.929 . S
H1877 C1886 0.929 . S
C1878 H1872 0.930 . S
C1878 C1879 1.367 . S
C1878 C1886 1.378 . S
C1879 C1878 1.367 . S
C1879 C1887 1.433 . S
C1880 H1876 0.929 . S
C1880 C1882 1.378 . S
C1880 C1884 1.350 . S
C1881 C1884 1.463 . S
C1881 C1886 1.350 . S
C1881 N1889 1.427 . S
C1882 H1873 0.930 . S
C1882 C1880 1.378 . S
C1882 C1883 1.367 . S
C1883 C1882 1.367 . S
C1883 C1885 1.433 . S
C1884 C1880 1.350 . S
C1884 C1881 1.463 . S
C1884 N1888 1.427 . S
C1885 H1875 0.929 . S
C1885 C1883 1.433 . S
C1885 N1888 1.384 . S
C1886 H1877 0.929 . S
C1886 C1878 1.378 . S
C1886 C1881 1.350 . S
C1887 H1874 0.929 . S
C1887 C1879 1.433 . S
C1887 N1889 1.384 . S
N1888 C1884 1.427 . S
N1888 C1885 1.384 . S
N1889 C1881 1.427 . S
N1889 C1887 1.384 . S
H1890 C1896 0.930 . S
H1891 C1900 0.930 . S
H1892 C1905 0.929 . S
H1893 C1903 0.929 . S
H1894 C1898 0.929 . S
H1895 C1904 0.929 . S
C1896 H1890 0.930 . S
C1896 C1897 1.367 . S
C1896 C1904 1.378 . S
C1897 C1896 1.367 . S
C1897 C1905 1.433 . S
C1898 H1894 0.929 . S
C1898 C1900 1.378 . S
C1898 C1902 1.350 . S
C1899 C1902 1.463 . S
C1899 C1904 1.350 . S
C1899 N1907 1.427 . S
C1900 H1891 0.930 . S
C1900 C1898 1.378 . S
C1900 C1901 1.367 . S
C1901 C1900 1.367 . S
C1901 C1903 1.433 . S
C1902 C1898 1.350 . S
C1902 C1899 1.463 . S
C1902 N1906 1.427 . S
C1903 H1893 0.929 . S
C1903 C1901 1.433 . S
C1903 N1906 1.384 . S
C1904 H1895 0.929 . S
C1904 C1896 1.378 . S
C1904 C1899 1.350 . S
C1905 H1892 0.929 . S
C1905 C1897 1.433 . S
C1905 N1907 1.384 . S
N1906 C1902 1.427 . S
N1906 C1903 1.384 . S
N1907 C1899 1.427 . S
N1907 C1905 1.384 . S
H1908 C1914 0.930 . S
H1909 C1918 0.930 . S
H1910 C1923 0.929 . S
H1911 C1921 0.929 . S
H1912 C1916 0.929 . S
H1913 C1922 0.929 . S
C1914 H1908 0.930 . S
C1914 C1915 1.367 . S
C1914 C1922 1.378 . S
C1915 C1914 1.367 . S
C1915 C1923 1.433 . S
C1916 H1912 0.929 . S
C1916 C1918 1.378 . S
C1916 C1920 1.350 . S
C1917 C1920 1.463 . S
C1917 C1922 1.350 . S
C1917 N1925 1.427 . S
C1918 H1909 0.930 . S
C1918 C1916 1.378 . S
C1918 C1919 1.367 . S
C1919 C1918 1.367 . S
C1919 C1921 1.433 . S
C1920 C1916 1.350 . S
C1920 C1917 1.463 . S
C1920 N1924 1.427 . S
C1921 H1911 0.929 . S
C1921 C1919 1.433 . S
C1921 N1924 1.384 . S
C1922 H1913 0.929 . S
C1922 C1914 1.378 . S
C1922 C1917 1.350 . S
C1923 H1910 0.929 . S
C1923 C1915 1.433 . S
C1923 N1925 1.384 . S
N1924 C1920 1.427 . S
N1924 C1921 1.384 . S
N1925 C1917 1.427 . S
N1925 C1923 1.384 . S
H1926 C1932 0.930 . S
H1927 C1936 0.930 . S
H1928 C1941 0.929 . S
H1929 C1939 0.929 . S
H1930 C1934 0.929 . S
H1931 C1940 0.929 . S
C1932 H1926 0.930 . S
C1932 C1933 1.367 . S
C1932 C1940 1.378 . S
C1933 C1932 1.367 . S
C1933 C1941 1.433 . S
C1934 H1930 0.929 . S
C1934 C1936 1.378 . S
C1934 C1938 1.350 . S
C1935 C1938 1.463 . S
C1935 C1940 1.350 . S
C1935 N1943 1.427 . S
C1936 H1927 0.930 . S
C1936 C1934 1.378 . S
C1936 C1937 1.367 . S
C1937 C1936 1.367 . S
C1937 C1939 1.433 . S
C1938 C1934 1.350 . S
C1938 C1935 1.463 . S
C1938 N1942 1.427 . S
C1939 H1929 0.929 . S
C1939 C1937 1.433 . S
C1939 N1942 1.384 . S
C1940 H1931 0.929 . S
C1940 C1932 1.378 . S
C1940 C1935 1.350 . S
C1941 H1928 0.929 . S
C1941 C1933 1.433 . S
C1941 N1943 1.384 . S
N1942 C1938 1.427 . S
N1942 C1939 1.384 . S
N1943 C1935 1.427 . S
N1943 C1941 1.384 . S
H1944 C1950 0.930 . S
H1945 C1954 0.930 . S
H1946 C1959 0.929 . S
H1947 C1957 0.929 . S
H1948 C1952 0.929 . S
H1949 C1958 0.929 . S
C1950 H1944 0.930 . S
C1950 C1951 1.367 . S
C1950 C1958 1.378 . S
C1951 C1950 1.367 . S
C1951 C1959 1.433 . S
C1952 H1948 0.929 . S
C1952 C1954 1.378 . S
C1952 C1956 1.350 . S
C1953 C1956 1.463 . S
C1953 C1958 1.350 . S
C1953 N1961 1.427 . S
C1954 H1945 0.930 . S
C1954 C1952 1.378 . S
C1954 C1955 1.367 . S
C1955 C1954 1.367 . S
C1955 C1957 1.433 . S
C1956 C1952 1.350 . S
C1956 C1953 1.463 . S
C1956 N1960 1.427 . S
C1957 H1947 0.929 . S
C1957 C1955 1.433 . S
C1957 N1960 1.384 . S
C1958 H1949 0.929 . S
C1958 C1950 1.378 . S
C1958 C1953 1.350 . S
C1959 H1946 0.929 . S
C1959 C1951 1.433 . S
C1959 N1961 1.384 . S
N1960 C1956 1.427 . S
N1960 C1957 1.384 . S
N1961 C1953 1.427 . S
N1961 C1959 1.384 . S
H1962 C1968 0.930 . S
H1963 C1972 0.930 . S
H1964 C1977 0.929 . S
H1965 C1975 0.929 . S
H1966 C1970 0.929 . S
H1967 C1976 0.929 . S
C1968 H1962 0.930 . S
C1968 C1969 1.367 . S
C1968 C1976 1.378 . S
C1969 C1968 1.367 . S
C1969 C1977 1.433 . S
C1970 H1966 0.929 . S
C1970 C1972 1.378 . S
C1970 C1974 1.350 . S
C1971 C1974 1.463 . S
C1971 C1976 1.350 . S
C1971 N1979 1.427 . S
C1972 H1963 0.930 . S
C1972 C1970 1.378 . S
C1972 C1973 1.367 . S
C1973 C1972 1.367 . S
C1973 C1975 1.433 . S
C1974 C1970 1.350 . S
C1974 C1971 1.463 . S
C1974 N1978 1.427 . S
C1975 H1965 0.929 . S
C1975 C1973 1.433 . S
C1975 N1978 1.384 . S
C1976 H1967 0.929 . S
C1976 C1968 1.378 . S
C1976 C1971 1.350 . S
C1977 H1964 0.929 . S
C1977 C1969 1.433 . S
C1977 N1979 1.384 . S
N1978 C1974 1.427 . S
N1978 C1975 1.384 . S
N1979 C1971 1.427 . S
N1979 C1977 1.384 . S
H1980 C1986 0.930 . S
H1981 C1990 0.930 . S
H1982 C1995 0.929 . S
H1983 C1993 0.929 . S
H1984 C1988 0.929 . S
H1985 C1994 0.929 . S
C1986 H1980 0.930 . S
C1986 C1987 1.367 . S
C1986 C1994 1.378 . S
C1987 C1986 1.367 . S
C1987 C1995 1.433 . S
C1988 H1984 0.929 . S
C1988 C1990 1.378 . S
C1988 C1992 1.350 . S
C1989 C1992 1.463 . S
C1989 C1994 1.350 . S
C1989 N1997 1.427 . S
C1990 H1981 0.930 . S
C1990 C1988 1.378 . S
C1990 C1991 1.367 . S
C1991 C1990 1.367 . S
C1991 C1993 1.433 . S
C1992 C1988 1.350 . S
C1992 C1989 1.463 . S
C1992 N1996 1.427 . S
C1993 H1983 0.929 . S
C1993 C1991 1.433 . S
C1993 N1996 1.384 . S
C1994 H1985 0.929 . S
C1994 C1986 1.378 . S
C1994 C1989 1.350 . S
C1995 H1982 0.929 . S
C1995 C1987 1.433 . S
C1995 N1997 1.384 . S
N1996 C1992 1.427 . S
N1996 C1993 1.384 . S
N1997 C1989 1.427 . S
N1997 C1995 1.384 . S
H1998 C2004 0.930 . S
H1999 C2008 0.930 . S
H2000 C2013 0.929 . S
H2001 C2011 0.929 . S
H2002 C2006 0.929 . S
H2003 C2012 0.929 . S
C2004 H1998 0.930 . S
C2004 C2005 1.367 . S
C2004 C2012 1.378 . S
C2005 C2004 1.367 . S
C2005 C2013 1.433 . S
C2006 H2002 0.929 . S
C2006 C2008 1.378 . S
C2006 C2010 1.350 . S
C2007 C2010 1.463 . S
C2007 C2012 1.350 . S
C2007 N2015 1.427 . S
C2008 H1999 0.930 . S
C2008 C2006 1.378 . S
C2008 C2009 1.367 . S
C2009 C2008 1.367 . S
C2009 C2011 1.433 . S
C2010 C2006 1.350 . S
C2010 C2007 1.463 . S
C2010 N2014 1.427 . S
C2011 H2001 0.929 . S
C2011 C2009 1.433 . S
C2011 N2014 1.384 . S
C2012 H2003 0.929 . S
C2012 C2004 1.378 . S
C2012 C2007 1.350 . S
C2013 H2000 0.929 . S
C2013 C2005 1.433 . S
C2013 N2015 1.384 . S
N2014 C2010 1.427 . S
N2014 C2011 1.384 . S
N2015 C2007 1.427 . S
N2015 C2013 1.384 . S
H2016 C2022 0.930 . S
H2017 C2026 0.930 . S
H2018 C2031 0.929 . S
H2019 C2029 0.929 . S
H2020 C2024 0.929 . S
H2021 C2030 0.929 . S
C2022 H2016 0.930 . S
C2022 C2023 1.367 . S
C2022 C2030 1.378 . S
C2023 C2022 1.367 . S
C2023 C2031 1.433 . S
C2024 H2020 0.929 . S
C2024 C2026 1.378 . S
C2024 C2028 1.350 . S
C2025 C2028 1.463 . S
C2025 C2030 1.350 . S
C2025 N2033 1.427 . S
C2026 H2017 0.930 . S
C2026 C2024 1.378 . S
C2026 C2027 1.367 . S
C2027 C2026 1.367 . S
C2027 C2029 1.433 . S
C2028 C2024 1.350 . S
C2028 C2025 1.463 . S
C2028 N2032 1.427 . S
C2029 H2019 0.929 . S
C2029 C2027 1.433 . S
C2029 N2032 1.384 . S
C2030 H2021 0.929 . S
C2030 C2022 1.378 . S
C2030 C2025 1.350 . S
C2031 H2018 0.929 . S
C2031 C2023 1.433 . S
C2031 N2033 1.384 . S
N2032 C2028 1.427 . S
N2032 C2029 1.384 . S
N2033 C2025 1.427 . S
N2033 C2031 1.384 . S
H2034 C2040 0.930 . S
H2035 C2044 0.930 . S
H2036 C2049 0.929 . S
H2037 C2047 0.929 . S
H2038 C2042 0.929 . S
H2039 C2048 0.929 . S
C2040 H2034 0.930 . S
C2040 C2041 1.367 . S
C2040 C2048 1.378 . S
C2041 C2040 1.367 . S
C2041 C2049 1.433 . S
C2042 H2038 0.929 . S
C2042 C2044 1.378 . S
C2042 C2046 1.350 . S
C2043 C2046 1.463 . S
C2043 C2048 1.350 . S
C2043 N2051 1.427 . S
C2044 H2035 0.930 . S
C2044 C2042 1.378 . S
C2044 C2045 1.367 . S
C2045 C2044 1.367 . S
C2045 C2047 1.433 . S
C2046 C2042 1.350 . S
C2046 C2043 1.463 . S
C2046 N2050 1.427 . S
C2047 H2037 0.929 . S
C2047 C2045 1.433 . S
C2047 N2050 1.384 . S
C2048 H2039 0.929 . S
C2048 C2040 1.378 . S
C2048 C2043 1.350 . S
C2049 H2036 0.929 . S
C2049 C2041 1.433 . S
C2049 N2051 1.384 . S
N2050 C2046 1.427 . S
N2050 C2047 1.384 . S
N2051 C2043 1.427 . S
N2051 C2049 1.384 . S
H2052 C2058 0.930 . S
H2053 C2062 0.930 . S
H2054 C2067 0.929 . S
H2055 C2065 0.929 . S
H2056 C2060 0.929 . S
H2057 C2066 0.929 . S
C2058 H2052 0.930 . S
C2058 C2059 1.367 . S
C2058 C2066 1.378 . S
C2059 C2058 1.367 . S
C2059 C2067 1.433 . S
C2060 H2056 0.929 . S
C2060 C2062 1.378 . S
C2060 C2064 1.350 . S
C2061 C2064 1.463 1_655 S
C2061 C2066 1.350 . S
C2061 N2069 1.427 1_655 S
C2062 H2053 0.930 . S
C2062 C2060 1.378 . S
C2062 C2063 1.367 . S
C2063 C2062 1.367 . S
C2063 C2065 1.433 . S
C2064 C2060 1.350 . S
C2064 C2061 1.463 1_455 S
C2064 N2068 1.427 1_455 S
C2065 H2055 0.929 . S
C2065 C2063 1.433 . S
C2065 N2068 1.384 1_455 S
C2066 H2057 0.929 . S
C2066 C2058 1.378 . S
C2066 C2061 1.350 . S
C2067 H2054 0.929 . S
C2067 C2059 1.433 . S
C2067 N2069 1.384 1_655 S
N2068 C2064 1.427 1_655 S
N2068 C2065 1.384 1_655 S
N2069 C2061 1.427 1_455 S
N2069 C2067 1.384 1_455 S
H2070 C2076 0.930 . S
H2071 C2080 0.930 . S
H2072 C2085 0.929 . S
H2073 C2083 0.929 . S
H2074 C2078 0.929 . S
H2075 C2084 0.929 . S
C2076 H2070 0.930 . S
C2076 C2077 1.367 . S
C2076 C2084 1.378 . S
C2077 C2076 1.367 . S
C2077 C2085 1.433 . S
C2078 H2074 0.929 . S
C2078 C2080 1.378 . S
C2078 C2082 1.350 . S
C2079 C2082 1.463 . S
C2079 C2084 1.350 . S
C2079 N2087 1.427 . S
C2080 H2071 0.930 . S
C2080 C2078 1.378 . S
C2080 C2081 1.367 . S
C2081 C2080 1.367 . S
C2081 C2083 1.433 . S
C2082 C2078 1.350 . S
C2082 C2079 1.463 . S
C2082 N2086 1.427 . S
C2083 H2073 0.929 . S
C2083 C2081 1.433 . S
C2083 N2086 1.384 . S
C2084 H2075 0.929 . S
C2084 C2076 1.378 . S
C2084 C2079 1.350 . S
C2085 H2072 0.929 . S
C2085 C2077 1.433 . S
C2085 N2087 1.384 . S
N2086 C2082 1.427 . S
N2086 C2083 1.384 . S
N2087 C2079 1.427 . S
N2087 C2085 1.384 . S
H2088 C2094 0.930 . S
H2089 C2098 0.930 . S
H2090 C2103 0.929 . S
H2091 C2101 0.929 . S
H2092 C2096 0.929 . S
H2093 C2102 0.929 . S
C2094 H2088 0.930 . S
C2094 C2095 1.367 . S
C2094 C2102 1.378 . S
C2095 C2094 1.367 . S
C2095 C2103 1.433 . S
C2096 H2092 0.929 . S
C2096 C2098 1.378 . S
C2096 C2100 1.350 . S
C2097 C2100 1.463 1_545 S
C2097 C2102 1.350 . S
C2097 N2105 1.427 . S
C2098 H2089 0.930 . S
C2098 C2096 1.378 . S
C2098 C2099 1.367 . S
C2099 C2098 1.367 . S
C2099 C2101 1.433 . S
C2100 C2096 1.350 . S
C2100 C2097 1.463 1_565 S
C2100 N2104 1.427 . S
C2101 H2091 0.929 . S
C2101 C2099 1.433 . S
C2101 N2104 1.384 . S
C2102 H2093 0.929 . S
C2102 C2094 1.378 . S
C2102 C2097 1.350 . S
C2103 H2090 0.929 . S
C2103 C2095 1.433 . S
C2103 N2105 1.384 . S
N2104 C2100 1.427 . S
N2104 C2101 1.384 . S
N2105 C2097 1.427 . S
N2105 C2103 1.384 . S
H2106 C2112 0.930 . S
H2107 C2116 0.930 . S
H2108 C2121 0.929 . S
H2109 C2119 0.929 . S
H2110 C2114 0.929 1_554 S
H2111 C2120 0.929 1_556 S
C2112 H2106 0.930 . S
C2112 C2113 1.367 . S
C2112 C2120 1.378 . S
C2113 C2112 1.367 . S
C2113 C2121 1.433 . S
C2114 H2110 0.929 1_556 S
C2114 C2116 1.378 . S
C2114 C2118 1.350 . S
C2115 C2118 1.463 1_564 S
C2115 C2120 1.350 . S
C2115 N2123 1.427 1_565 S
C2116 H2107 0.930 . S
C2116 C2114 1.378 . S
C2116 C2117 1.367 . S
C2117 C2116 1.367 . S
C2117 C2119 1.433 . S
C2118 C2114 1.350 . S
C2118 C2115 1.463 1_546 S
C2118 N2122 1.427 1_545 S
C2119 H2109 0.929 . S
C2119 C2117 1.433 . S
C2119 N2122 1.384 1_545 S
C2120 H2111 0.929 1_554 S
C2120 C2112 1.378 . S
C2120 C2115 1.350 . S
C2121 H2108 0.929 . S
C2121 C2113 1.433 . S
C2121 N2123 1.384 1_565 S
N2122 C2118 1.427 1_565 S
N2122 C2119 1.384 1_565 S
N2123 C2115 1.427 1_545 S
N2123 C2121 1.384 1_545 S
H2124 C2130 0.930 . S
H2125 C2134 0.930 . S
H2126 C2139 0.929 . S
H2127 C2137 0.929 . S
H2128 C2132 0.929 . S
H2129 C2138 0.929 . S
C2130 H2124 0.930 . S
C2130 C2131 1.367 . S
C2130 C2138 1.378 . S
C2131 C2130 1.367 . S
C2131 C2139 1.433 . S
C2132 H2128 0.929 . S
C2132 C2134 1.378 . S
C2132 C2136 1.350 . S
C2133 C2136 1.463 1_656 S
C2133 C2138 1.350 . S
C2133 N2141 1.427 1_655 S
C2134 H2125 0.930 . S
C2134 C2132 1.378 . S
C2134 C2135 1.367 . S
C2135 C2134 1.367 . S
C2135 C2137 1.433 . S
C2136 C2132 1.350 . S
C2136 C2133 1.463 1_454 S
C2136 N2140 1.427 1_455 S
C2137 H2127 0.929 . S
C2137 C2135 1.433 . S
C2137 N2140 1.384 1_455 S
C2138 H2129 0.929 . S
C2138 C2130 1.378 . S
C2138 C2133 1.350 . S
C2139 H2126 0.929 . S
C2139 C2131 1.433 . S
C2139 N2141 1.384 1_655 S
N2140 C2136 1.427 1_655 S
N2140 C2137 1.384 1_655 S
N2141 C2133 1.427 1_455 S
N2141 C2139 1.384 1_455 S
H2142 C2148 0.930 . S
H2143 C2152 0.930 . S
H2144 C2157 0.929 . S
H2145 C2155 0.929 . S
H2146 C2150 0.916 1_554 S
H2147 C2156 0.916 1_556 S
C2148 H2142 0.930 . S
C2148 C2149 1.367 . S
C2148 C2156 1.378 . S
C2149 C2148 1.367 . S
C2149 C2157 1.433 . S
C2150 H2146 0.916 1_556 S
C2150 C2152 1.378 . S
C2150 C2154 1.350 . S
C2151 C2154 1.463 1_554 S
C2151 C2156 1.350 . S
C2151 N2159 1.427 . S
C2152 H2143 0.930 . S
C2152 C2150 1.378 . S
C2152 C2153 1.367 . S
C2153 C2152 1.367 . S
C2153 C2155 1.433 . S
C2154 C2150 1.350 . S
C2154 C2151 1.463 1_556 S
C2154 N2158 1.427 . S
C2155 H2145 0.929 . S
C2155 C2153 1.433 . S
C2155 N2158 1.384 . S
C2156 H2147 0.916 1_554 S
C2156 C2148 1.378 . S
C2156 C2151 1.350 . S
C2157 H2144 0.929 . S
C2157 C2149 1.433 . S
C2157 N2159 1.384 . S
N2158 C2154 1.427 . S
N2158 C2155 1.384 . S
N2159 C2151 1.427 . S
N2159 C2157 1.384 . S
H2160 C2166 0.930 . S
H2161 C2170 0.930 . S
H2162 C2175 0.929 . S
H2163 C2173 0.929 . S
H2164 C2168 0.929 . S
H2165 C2174 0.929 . S
C2166 H2160 0.930 . S
C2166 C2167 1.367 . S
C2166 C2174 1.378 . S
C2167 C2166 1.367 . S
C2167 C2175 1.433 . S
C2168 H2164 0.929 . S
C2168 C2170 1.378 . S
C2168 C2172 1.350 . S
C2169 C2172 1.463 1_556 S
C2169 C2174 1.350 . S
C2169 N2177 1.427 . S
C2170 H2161 0.930 . S
C2170 C2168 1.378 . S
C2170 C2171 1.367 . S
C2171 C2170 1.367 . S
C2171 C2173 1.433 . S
C2172 C2168 1.350 . S
C2172 C2169 1.463 1_554 S
C2172 N2176 1.427 . S
C2173 H2163 0.929 . S
C2173 C2171 1.433 . S
C2173 N2176 1.384 . S
C2174 H2165 0.929 . S
C2174 C2166 1.378 . S
C2174 C2169 1.350 . S
C2175 H2162 0.929 . S
C2175 C2167 1.433 . S
C2175 N2177 1.384 . S
N2176 C2172 1.427 . S
N2176 C2173 1.384 . S
N2177 C2169 1.427 . S
N2177 C2175 1.384 . S
H2178 C2184 0.930 . S
H2179 C2188 0.930 . S
H2180 C2193 0.929 . S
H2181 C2191 0.929 . S
H2182 C2186 0.929 . S
H2183 C2192 0.929 . S
C2184 H2178 0.930 . S
C2184 C2185 1.367 . S
C2184 C2192 1.378 . S
C2185 C2184 1.367 . S
C2185 C2193 1.433 . S
C2186 H2182 0.929 . S
C2186 C2188 1.378 . S
C2186 C2190 1.350 . S
C2187 C2190 1.463 1_554 S
C2187 C2192 1.350 . S
C2187 N2195 1.427 . S
C2188 H2179 0.930 . S
C2188 C2186 1.378 . S
C2188 C2189 1.367 . S
C2189 C2188 1.367 . S
C2189 C2191 1.433 . S
C2190 C2186 1.350 . S
C2190 C2187 1.463 1_556 S
C2190 N2194 1.423 1_556 S
C2191 H2181 0.929 . S
C2191 C2189 1.433 . S
C2191 N2194 1.375 1_556 S
C2192 H2183 0.929 . S
C2192 C2184 1.378 . S
C2192 C2187 1.350 . S
C2193 H2180 0.929 . S
C2193 C2185 1.433 . S
C2193 N2195 1.384 . S
N2194 C2190 1.423 1_554 S
N2194 C2191 1.375 1_554 S
N2195 C2187 1.427 . S
N2195 C2193 1.384 . S
H2196 C2202 0.930 . S
H2197 C2206 0.930 . S
H2198 C2211 0.929 . S
H2199 C2209 0.929 . S
H2200 C2204 0.929 . S
H2201 C2210 0.929 . S
C2202 H2196 0.930 . S
C2202 C2203 1.367 . S
C2202 C2210 1.378 . S
C2203 C2202 1.367 . S
C2203 C2211 1.433 . S
C2204 H2200 0.929 . S
C2204 C2206 1.378 . S
C2204 C2208 1.350 . S
C2205 C2208 1.463 1_554 S
C2205 C2210 1.350 . S
C2205 N2213 1.427 . S
C2206 H2197 0.930 . S
C2206 C2204 1.378 . S
C2206 C2207 1.367 . S
C2207 C2206 1.367 . S
C2207 C2209 1.433 . S
C2208 C2204 1.350 . S
C2208 C2205 1.463 1_556 S
C2208 N2212 1.427 . S
C2209 H2199 0.929 . S
C2209 C2207 1.433 . S
C2209 N2212 1.384 . S
C2210 H2201 0.929 . S
C2210 C2202 1.378 . S
C2210 C2205 1.350 . S
C2211 H2198 0.929 . S
C2211 C2203 1.433 . S
C2211 N2213 1.384 . S
N2212 C2208 1.427 . S
N2212 C2209 1.384 . S
N2213 C2205 1.427 . S
N2213 C2211 1.384 . S
H2214 C2220 0.930 . S
H2215 C2224 0.930 . S
H2216 C2229 0.929 . S
H2217 C2227 0.929 . S
H2218 C2222 0.929 . S
H2219 C2228 0.929 . S
C2220 H2214 0.930 . S
C2220 C2221 1.367 . S
C2220 C2228 1.378 . S
C2221 C2220 1.367 . S
C2221 C2229 1.433 . S
C2222 H2218 0.929 . S
C2222 C2224 1.378 . S
C2222 C2226 1.350 . S
C2223 C2226 1.463 . S
C2223 C2228 1.350 . S
C2223 N2231 1.427 . S
C2224 H2215 0.930 . S
C2224 C2222 1.378 . S
C2224 C2225 1.367 . S
C2225 C2224 1.367 . S
C2225 C2227 1.433 . S
C2226 C2222 1.350 . S
C2226 C2223 1.463 . S
C2226 N2230 1.427 . S
C2227 H2217 0.929 . S
C2227 C2225 1.433 . S
C2227 N2230 1.384 . S
C2228 H2219 0.929 . S
C2228 C2220 1.378 . S
C2228 C2223 1.350 . S
C2229 H2216 0.929 . S
C2229 C2221 1.433 . S
C2229 N2231 1.384 . S
N2230 C2226 1.427 . S
N2230 C2227 1.384 . S
N2231 C2223 1.427 . S
N2231 C2229 1.384 . S
H2232 C2238 0.930 . S
H2233 C2242 0.930 . S
H2234 C2247 0.929 . S
H2235 C2245 0.929 . S
H2236 C2240 0.929 . S
H2237 C2246 0.929 . S
C2238 H2232 0.930 . S
C2238 C2239 1.367 . S
C2238 C2246 1.378 . S
C2239 C2238 1.367 . S
C2239 C2247 1.433 . S
C2240 H2236 0.929 . S
C2240 C2242 1.378 . S
C2240 C2244 1.350 . S
C2241 C2244 1.463 . S
C2241 C2246 1.350 . S
C2241 N2249 1.427 . S
C2242 H2233 0.930 . S
C2242 C2240 1.378 . S
C2242 C2243 1.367 . S
C2243 C2242 1.367 . S
C2243 C2245 1.433 . S
C2244 C2240 1.350 . S
C2244 C2241 1.463 . S
C2244 N2248 1.427 . S
C2245 H2235 0.929 . S
C2245 C2243 1.433 . S
C2245 N2248 1.384 . S
C2246 H2237 0.929 . S
C2246 C2238 1.378 . S
C2246 C2241 1.350 . S
C2247 H2234 0.929 . S
C2247 C2239 1.433 . S
C2247 N2249 1.384 . S
N2248 C2244 1.427 . S
N2248 C2245 1.384 . S
N2249 C2241 1.427 . S
N2249 C2247 1.384 . S
H2250 C2256 0.930 . S
H2251 C2260 0.930 . S
H2252 C2265 0.929 . S
H2253 C2263 0.929 . S
H2254 C2258 0.929 . S
H2255 C2264 0.929 . S
C2256 H2250 0.930 . S
C2256 C2257 1.367 . S
C2256 C2264 1.378 . S
C2257 C2256 1.367 . S
C2257 C2265 1.433 . S
C2258 H2254 0.929 . S
C2258 C2260 1.378 . S
C2258 C2262 1.350 . S
C2259 C2262 1.463 . S
C2259 C2264 1.350 . S
C2259 N2267 1.427 . S
C2260 H2251 0.930 . S
C2260 C2258 1.378 . S
C2260 C2261 1.367 . S
C2261 C2260 1.367 . S
C2261 C2263 1.433 . S
C2262 C2258 1.350 . S
C2262 C2259 1.463 . S
C2262 N2266 1.427 . S
C2263 H2253 0.929 . S
C2263 C2261 1.433 . S
C2263 N2266 1.384 . S
C2264 H2255 0.929 . S
C2264 C2256 1.378 . S
C2264 C2259 1.350 . S
C2265 H2252 0.929 . S
C2265 C2257 1.433 . S
C2265 N2267 1.384 . S
N2266 C2262 1.427 . S
N2266 C2263 1.384 . S
N2267 C2259 1.427 . S
N2267 C2265 1.384 . S
H2268 C2274 0.930 . S
H2269 C2278 0.930 . S
H2270 C2283 0.929 . S
H2271 C2281 0.929 . S
H2272 C2276 0.929 1_554 S
H2273 C2282 0.967 . S
C2274 H2268 0.930 . S
C2274 C2275 1.367 . S
C2274 C2282 1.352 1_554 S
C2275 C2274 1.367 . S
C2275 C2283 1.433 . S
C2276 H2272 0.929 1_556 S
C2276 C2278 1.378 . S
C2276 C2280 1.350 . S
C2277 C2280 1.463 1_554 S
C2277 C2282 1.339 1_554 S
C2277 N2285 1.427 . S
C2278 H2269 0.930 . S
C2278 C2276 1.378 . S
C2278 C2279 1.367 . S
C2279 C2278 1.367 . S
C2279 C2281 1.433 . S
C2280 C2276 1.350 . S
C2280 C2277 1.463 1_556 S
C2280 N2284 1.427 . S
C2281 H2271 0.929 . S
C2281 C2279 1.433 . S
C2281 N2284 1.384 . S
C2282 H2273 0.967 . S
C2282 C2274 1.352 1_556 S
C2282 C2277 1.339 1_556 S
C2283 H2270 0.929 . S
C2283 C2275 1.433 . S
C2283 N2285 1.384 . S
N2284 C2280 1.427 . S
N2284 C2281 1.384 . S
N2285 C2277 1.427 . S
N2285 C2283 1.384 . S
H2286 C2292 0.930 . S
H2287 C2296 0.930 . S
H2288 C2301 0.929 . S
H2289 C2299 0.929 . S
H2290 C2294 0.929 . S
H2291 C2300 0.929 . S
C2292 H2286 0.930 . S
C2292 C2293 1.367 . S
C2292 C2300 1.378 . S
C2293 C2292 1.367 . S
C2293 C2301 1.433 . S
C2294 H2290 0.929 . S
C2294 C2296 1.378 . S
C2294 C2298 1.350 . S
C2295 C2298 1.463 1_554 S
C2295 C2300 1.350 . S
C2295 N2303 1.427 . S
C2296 H2287 0.930 . S
C2296 C2294 1.378 . S
C2296 C2297 1.367 . S
C2297 C2296 1.367 . S
C2297 C2299 1.433 . S
C2298 C2294 1.350 . S
C2298 C2295 1.463 1_556 S
C2298 N2302 1.427 . S
C2299 H2289 0.929 . S
C2299 C2297 1.433 . S
C2299 N2302 1.384 . S
C2300 H2291 0.929 . S
C2300 C2292 1.378 . S
C2300 C2295 1.350 . S
C2301 H2288 0.929 . S
C2301 C2293 1.433 . S
C2301 N2303 1.384 . S
N2302 C2298 1.427 . S
N2302 C2299 1.384 . S
N2303 C2295 1.427 . S
N2303 C2301 1.384 . S
H2304 C2310 0.930 . S
H2305 C2314 0.930 . S
H2306 C2319 0.929 . S
H2307 C2317 0.929 . S
H2308 C2312 0.929 1_554 S
H2309 C2318 0.929 1_556 S
C2310 H2304 0.930 . S
C2310 C2311 1.367 . S
C2310 C2318 1.378 . S
C2311 C2310 1.367 . S
C2311 C2319 1.433 . S
C2312 H2308 0.929 1_556 S
C2312 C2314 1.378 . S
C2312 C2316 1.350 . S
C2313 C2316 1.463 1_554 S
C2313 C2318 1.350 . S
C2313 N2321 1.427 . S
C2314 H2305 0.930 . S
C2314 C2312 1.378 . S
C2314 C2315 1.367 . S
C2315 C2314 1.367 . S
C2315 C2317 1.433 . S
C2316 C2312 1.350 . S
C2316 C2313 1.463 1_556 S
C2316 N2320 1.427 . S
C2317 H2307 0.929 . S
C2317 C2315 1.433 . S
C2317 N2320 1.384 . S
C2318 H2309 0.929 1_554 S
C2318 C2310 1.378 . S
C2318 C2313 1.350 . S
C2319 H2306 0.929 . S
C2319 C2311 1.433 . S
C2319 N2321 1.384 . S
N2320 C2316 1.427 . S
N2320 C2317 1.384 . S
N2321 C2313 1.427 . S
N2321 C2319 1.384 . S
H2322 C2328 0.930 . S
H2323 C2332 0.930 . S
H2324 C2337 0.929 . S
H2325 C2335 0.929 . S
H2326 C2330 0.929 . S
H2327 C2336 0.929 . S
C2328 H2322 0.930 . S
C2328 C2329 1.367 . S
C2328 C2336 1.378 . S
C2329 C2328 1.367 . S
C2329 C2337 1.433 . S
C2330 H2326 0.929 . S
C2330 C2332 1.378 . S
C2330 C2334 1.350 . S
C2331 C2334 1.463 . S
C2331 C2336 1.350 . S
C2331 N2339 1.427 . S
C2332 H2323 0.930 . S
C2332 C2330 1.378 . S
C2332 C2333 1.367 . S
C2333 C2332 1.367 . S
C2333 C2335 1.433 . S
C2334 C2330 1.350 . S
C2334 C2331 1.463 . S
C2334 N2338 1.427 . S
C2335 H2325 0.929 . S
C2335 C2333 1.433 . S
C2335 N2338 1.384 . S
C2336 H2327 0.929 . S
C2336 C2328 1.378 . S
C2336 C2331 1.350 . S
C2337 H2324 0.929 . S
C2337 C2329 1.433 . S
C2337 N2339 1.384 . S
N2338 C2334 1.427 . S
N2338 C2335 1.384 . S
N2339 C2331 1.427 . S
N2339 C2337 1.384 . S
H2340 C2346 0.930 . S
H2341 C2350 0.930 . S
H2342 C2355 0.929 . S
H2343 C2353 0.929 . S
H2344 C2348 0.929 . S
H2345 C2354 0.929 . S
C2346 H2340 0.930 . S
C2346 C2347 1.367 . S
C2346 C2354 1.378 . S
C2347 C2346 1.367 . S
C2347 C2355 1.433 . S
C2348 H2344 0.929 . S
C2348 C2350 1.378 . S
C2348 C2352 1.350 . S
C2349 C2352 1.463 . S
C2349 C2354 1.350 . S
C2349 N2357 1.427 . S
C2350 H2341 0.930 . S
C2350 C2348 1.378 . S
C2350 C2351 1.367 . S
C2351 C2350 1.367 . S
C2351 C2353 1.433 . S
C2352 C2348 1.350 . S
C2352 C2349 1.463 . S
C2352 N2356 1.427 . S
C2353 H2343 0.929 . S
C2353 C2351 1.433 . S
C2353 N2356 1.384 . S
C2354 H2345 0.929 . S
C2354 C2346 1.378 . S
C2354 C2349 1.350 . S
C2355 H2342 0.929 . S
C2355 C2347 1.433 . S
C2355 N2357 1.384 . S
N2356 C2352 1.427 . S
N2356 C2353 1.384 . S
N2357 C2349 1.427 . S
N2357 C2355 1.384 . S
H2358 C2364 0.930 . S
H2359 C2368 0.930 . S
H2360 C2373 0.929 . S
H2361 C2371 0.929 . S
H2362 C2366 0.929 . S
H2363 C2372 0.929 . S
C2364 H2358 0.930 . S
C2364 C2365 1.367 . S
C2364 C2372 1.378 . S
C2365 C2364 1.367 . S
C2365 C2373 1.433 . S
C2366 H2362 0.929 . S
C2366 C2368 1.378 . S
C2366 C2370 1.350 . S
C2367 C2370 1.463 . S
C2367 C2372 1.350 . S
C2367 N2375 1.427 . S
C2368 H2359 0.930 . S
C2368 C2366 1.378 . S
C2368 C2369 1.367 . S
C2369 C2368 1.367 . S
C2369 C2371 1.433 . S
C2370 C2366 1.350 . S
C2370 C2367 1.463 . S
C2370 N2374 1.427 . S
C2371 H2361 0.929 . S
C2371 C2369 1.433 . S
C2371 N2374 1.384 . S
C2372 H2363 0.929 . S
C2372 C2364 1.378 . S
C2372 C2367 1.350 . S
C2373 H2360 0.929 . S
C2373 C2365 1.433 . S
C2373 N2375 1.384 . S
N2374 C2370 1.427 . S
N2374 C2371 1.384 . S
N2375 C2367 1.427 . S
N2375 C2373 1.384 . S
H2376 C2382 0.930 . S
H2377 C2386 0.930 . S
H2378 C2391 0.929 . S
H2379 C2389 0.929 . S
H2380 C2384 0.929 . S
H2381 C2390 0.929 . S
C2382 H2376 0.930 . S
C2382 C2383 1.367 . S
C2382 C2390 1.378 . S
C2383 C2382 1.367 . S
C2383 C2391 1.433 . S
C2384 H2380 0.929 . S
C2384 C2386 1.378 . S
C2384 C2388 1.350 . S
C2385 C2388 1.463 . S
C2385 C2390 1.350 . S
C2385 N2393 1.427 . S
C2386 H2377 0.930 . S
C2386 C2384 1.378 . S
C2386 C2387 1.367 . S
C2387 C2386 1.367 . S
C2387 C2389 1.433 . S
C2388 C2384 1.350 . S
C2388 C2385 1.463 . S
C2388 N2392 1.427 . S
C2389 H2379 0.929 . S
C2389 C2387 1.433 . S
C2389 N2392 1.384 . S
C2390 H2381 0.929 . S
C2390 C2382 1.378 . S
C2390 C2385 1.350 . S
C2391 H2378 0.929 . S
C2391 C2383 1.433 . S
C2391 N2393 1.384 . S
N2392 C2388 1.427 . S
N2392 C2389 1.384 . S
N2393 C2385 1.427 . S
N2393 C2391 1.384 . S
H2394 C2400 0.930 . S
H2395 C2404 0.930 . S
H2396 C2409 0.929 . S
H2397 C2407 0.929 . S
H2398 C2402 0.929 . S
H2399 C2408 0.929 . S
C2400 H2394 0.930 . S
C2400 C2401 1.367 . S
C2400 C2408 1.378 . S
C2401 C2400 1.367 . S
C2401 C2409 1.433 . S
C2402 H2398 0.929 . S
C2402 C2404 1.378 . S
C2402 C2406 1.350 . S
C2403 C2406 1.463 . S
C2403 C2408 1.350 . S
C2403 N2411 1.427 . S
C2404 H2395 0.930 . S
C2404 C2402 1.378 . S
C2404 C2405 1.367 . S
C2405 C2404 1.367 . S
C2405 C2407 1.433 . S
C2406 C2402 1.350 . S
C2406 C2403 1.463 . S
C2406 N2410 1.427 . S
C2407 H2397 0.929 . S
C2407 C2405 1.433 . S
C2407 N2410 1.384 . S
C2408 H2399 0.929 . S
C2408 C2400 1.378 . S
C2408 C2403 1.350 . S
C2409 H2396 0.929 . S
C2409 C2401 1.433 . S
C2409 N2411 1.384 . S
N2410 C2406 1.427 . S
N2410 C2407 1.384 . S
N2411 C2403 1.427 . S
N2411 C2409 1.384 . S
H2412 C2418 0.930 . S
H2413 C2422 0.930 . S
H2414 C2427 0.929 . S
H2415 C2425 0.929 . S
H2416 C2420 0.929 . S
H2417 C2426 0.929 . S
C2418 H2412 0.930 . S
C2418 C2419 1.367 . S
C2418 C2426 1.378 . S
C2419 C2418 1.367 . S
C2419 C2427 1.433 . S
C2420 H2416 0.929 . S
C2420 C2422 1.378 . S
C2420 C2424 1.350 . S
C2421 C2424 1.463 . S
C2421 C2426 1.350 . S
C2421 N2429 1.427 . S
C2422 H2413 0.930 . S
C2422 C2420 1.378 . S
C2422 C2423 1.367 . S
C2423 C2422 1.367 . S
C2423 C2425 1.433 . S
C2424 C2420 1.350 . S
C2424 C2421 1.463 . S
C2424 N2428 1.427 . S
C2425 H2415 0.929 . S
C2425 C2423 1.433 . S
C2425 N2428 1.384 . S
C2426 H2417 0.929 . S
C2426 C2418 1.378 . S
C2426 C2421 1.350 . S
C2427 H2414 0.929 . S
C2427 C2419 1.433 . S
C2427 N2429 1.384 . S
N2428 C2424 1.427 . S
N2428 C2425 1.384 . S
N2429 C2421 1.427 . S
N2429 C2427 1.384 . S
H2430 C2436 0.930 . S
H2431 C2440 0.930 . S
H2432 C2445 0.929 . S
H2433 C2443 0.929 . S
H2434 C2438 0.929 . S
H2435 C2444 0.929 . S
C2436 H2430 0.930 . S
C2436 C2437 1.367 . S
C2436 C2444 1.378 . S
C2437 C2436 1.367 . S
C2437 C2445 1.433 . S
C2438 H2434 0.929 . S
C2438 C2440 1.378 . S
C2438 C2442 1.350 . S
C2439 C2442 1.463 . S
C2439 C2444 1.350 . S
C2439 N2447 1.427 . S
C2440 H2431 0.930 . S
C2440 C2438 1.378 . S
C2440 C2441 1.367 . S
C2441 C2440 1.367 . S
C2441 C2443 1.433 . S
C2442 C2438 1.350 . S
C2442 C2439 1.463 . S
C2442 N2446 1.427 . S
C2443 H2433 0.929 . S
C2443 C2441 1.433 . S
C2443 N2446 1.384 . S
C2444 H2435 0.929 . S
C2444 C2436 1.378 . S
C2444 C2439 1.350 . S
C2445 H2432 0.929 . S
C2445 C2437 1.433 . S
C2445 N2447 1.384 . S
N2446 C2442 1.427 . S
N2446 C2443 1.384 . S
N2447 C2439 1.427 . S
N2447 C2445 1.384 . S
H2448 C2454 0.930 . S
H2449 C2458 0.930 . S
H2450 C2463 0.929 . S
H2451 C2461 0.929 . S
H2452 C2456 0.929 . S
H2453 C2462 0.929 . S
C2454 H2448 0.930 . S
C2454 C2455 1.367 . S
C2454 C2462 1.378 . S
C2455 C2454 1.367 . S
C2455 C2463 1.433 . S
C2456 H2452 0.929 . S
C2456 C2458 1.378 . S
C2456 C2460 1.350 . S
C2457 C2460 1.463 . S
C2457 C2462 1.350 . S
C2457 N2465 1.427 . S
C2458 H2449 0.930 . S
C2458 C2456 1.378 . S
C2458 C2459 1.367 . S
C2459 C2458 1.367 . S
C2459 C2461 1.433 . S
C2460 C2456 1.350 . S
C2460 C2457 1.463 . S
C2460 N2464 1.427 . S
C2461 H2451 0.929 . S
C2461 C2459 1.433 . S
C2461 N2464 1.384 . S
C2462 H2453 0.929 . S
C2462 C2454 1.378 . S
C2462 C2457 1.350 . S
C2463 H2450 0.929 . S
C2463 C2455 1.433 . S
C2463 N2465 1.384 . S
N2464 C2460 1.427 . S
N2464 C2461 1.384 . S
N2465 C2457 1.427 . S
N2465 C2463 1.384 . S
H2466 C2472 0.930 . S
H2467 C2476 0.930 . S
H2468 C2481 0.929 . S
H2469 C2479 0.929 . S
H2470 C2474 0.929 . S
H2471 C2480 0.929 . S
C2472 H2466 0.930 . S
C2472 C2473 1.367 . S
C2472 C2480 1.378 . S
C2473 C2472 1.367 . S
C2473 C2481 1.433 . S
C2474 H2470 0.929 . S
C2474 C2476 1.378 . S
C2474 C2478 1.350 . S
C2475 C2478 1.463 . S
C2475 C2480 1.350 . S
C2475 N2483 1.427 . S
C2476 H2467 0.930 . S
C2476 C2474 1.378 . S
C2476 C2477 1.367 . S
C2477 C2476 1.367 . S
C2477 C2479 1.433 . S
C2478 C2474 1.350 . S
C2478 C2475 1.463 . S
C2478 N2482 1.427 . S
C2479 H2469 0.929 . S
C2479 C2477 1.433 . S
C2479 N2482 1.384 . S
C2480 H2471 0.929 . S
C2480 C2472 1.378 . S
C2480 C2475 1.350 . S
C2481 H2468 0.929 . S
C2481 C2473 1.433 . S
C2481 N2483 1.384 . S
N2482 C2478 1.427 . S
N2482 C2479 1.384 . S
N2483 C2475 1.427 . S
N2483 C2481 1.384 . S
H2484 C2490 0.930 . S
H2485 C2494 0.930 . S
H2486 C2499 0.929 . S
H2487 C2497 0.929 . S
H2488 C2492 0.929 . S
H2489 C2498 0.929 . S
C2490 H2484 0.930 . S
C2490 C2491 1.367 . S
C2490 C2498 1.378 . S
C2491 C2490 1.367 . S
C2491 C2499 1.433 . S
C2492 H2488 0.929 . S
C2492 C2494 1.378 . S
C2492 C2496 1.350 . S
C2493 C2496 1.463 . S
C2493 C2498 1.350 . S
C2493 N2501 1.427 . S
C2494 H2485 0.930 . S
C2494 C2492 1.378 . S
C2494 C2495 1.367 . S
C2495 C2494 1.367 . S
C2495 C2497 1.433 . S
C2496 C2492 1.350 . S
C2496 C2493 1.463 . S
C2496 N2500 1.427 . S
C2497 H2487 0.929 . S
C2497 C2495 1.433 . S
C2497 N2500 1.384 . S
C2498 H2489 0.929 . S
C2498 C2490 1.378 . S
C2498 C2493 1.350 . S
C2499 H2486 0.929 . S
C2499 C2491 1.433 . S
C2499 N2501 1.384 . S
N2500 C2496 1.427 . S
N2500 C2497 1.384 . S
N2501 C2493 1.427 . S
N2501 C2499 1.384 . S
H2502 C2508 0.930 . S
H2503 C2512 0.930 . S
H2504 C2517 0.929 . S
H2505 C2515 0.929 . S
H2506 C2510 0.929 . S
H2507 C2516 0.929 . S
C2508 H2502 0.930 . S
C2508 C2509 1.367 . S
C2508 C2516 1.378 . S
C2509 C2508 1.367 . S
C2509 C2517 1.433 . S
C2510 H2506 0.929 . S
C2510 C2512 1.378 . S
C2510 C2514 1.350 . S
C2511 C2514 1.463 . S
C2511 C2516 1.350 . S
C2511 N2519 1.427 . S
C2512 H2503 0.930 . S
C2512 C2510 1.378 . S
C2512 C2513 1.367 . S
C2513 C2512 1.367 . S
C2513 C2515 1.433 . S
C2514 C2510 1.350 . S
C2514 C2511 1.463 . S
C2514 N2518 1.427 . S
C2515 H2505 0.929 . S
C2515 C2513 1.433 . S
C2515 N2518 1.384 . S
C2516 H2507 0.929 . S
C2516 C2508 1.378 . S
C2516 C2511 1.350 . S
C2517 H2504 0.929 . S
C2517 C2509 1.433 . S
C2517 N2519 1.384 . S
N2518 C2514 1.427 . S
N2518 C2515 1.384 . S
N2519 C2511 1.427 . S
N2519 C2517 1.384 . S
H2520 C2526 0.930 . S
H2521 C2530 0.930 . S
H2522 C2535 0.929 . S
H2523 C2533 0.929 . S
H2524 C2528 0.929 . S
H2525 C2534 0.929 . S
C2526 H2520 0.930 . S
C2526 C2527 1.367 . S
C2526 C2534 1.378 . S
C2527 C2526 1.367 . S
C2527 C2535 1.433 . S
C2528 H2524 0.929 . S
C2528 C2530 1.378 . S
C2528 C2532 1.350 . S
C2529 C2532 1.463 . S
C2529 C2534 1.350 . S
C2529 N2537 1.427 . S
C2530 H2521 0.930 . S
C2530 C2528 1.378 . S
C2530 C2531 1.367 . S
C2531 C2530 1.367 . S
C2531 C2533 1.433 . S
C2532 C2528 1.350 . S
C2532 C2529 1.463 . S
C2532 N2536 1.427 . S
C2533 H2523 0.929 . S
C2533 C2531 1.433 . S
C2533 N2536 1.384 . S
C2534 H2525 0.929 . S
C2534 C2526 1.378 . S
C2534 C2529 1.350 . S
C2535 H2522 0.929 . S
C2535 C2527 1.433 . S
C2535 N2537 1.384 . S
N2536 C2532 1.427 . S
N2536 C2533 1.384 . S
N2537 C2529 1.427 . S
N2537 C2535 1.384 . S
H2538 C2544 0.930 . S
H2539 C2548 0.930 . S
H2540 C2553 0.929 . S
H2541 C2551 0.929 . S
H2542 C2546 0.929 . S
H2543 C2552 0.929 . S
C2544 H2538 0.930 . S
C2544 C2545 1.367 . S
C2544 C2552 1.378 . S
C2545 C2544 1.367 . S
C2545 C2553 1.433 . S
C2546 H2542 0.929 . S
C2546 C2548 1.378 . S
C2546 C2550 1.350 . S
C2547 C2550 1.463 . S
C2547 C2552 1.350 . S
C2547 N2555 1.427 . S
C2548 H2539 0.930 . S
C2548 C2546 1.378 . S
C2548 C2549 1.367 . S
C2549 C2548 1.367 . S
C2549 C2551 1.433 . S
C2550 C2546 1.350 . S
C2550 C2547 1.463 . S
C2550 N2554 1.427 . S
C2551 H2541 0.929 . S
C2551 C2549 1.433 . S
C2551 N2554 1.384 . S
C2552 H2543 0.929 . S
C2552 C2544 1.378 . S
C2552 C2547 1.350 . S
C2553 H2540 0.929 . S
C2553 C2545 1.433 . S
C2553 N2555 1.384 . S
N2554 C2550 1.427 . S
N2554 C2551 1.384 . S
N2555 C2547 1.427 . S
N2555 C2553 1.384 . S
H2556 C2562 0.930 . S
H2557 C2566 0.930 . S
H2558 C2571 0.929 . S
H2559 C2569 0.929 . S
H2560 C2564 0.929 . S
H2561 C2570 0.929 . S
C2562 H2556 0.930 . S
C2562 C2563 1.367 . S
C2562 C2570 1.378 . S
C2563 C2562 1.367 . S
C2563 C2571 1.433 . S
C2564 H2560 0.929 . S
C2564 C2566 1.378 . S
C2564 C2568 1.350 . S
C2565 C2568 1.463 . S
C2565 C2570 1.350 . S
C2565 N2573 1.427 . S
C2566 H2557 0.930 . S
C2566 C2564 1.378 . S
C2566 C2567 1.367 . S
C2567 C2566 1.367 . S
C2567 C2569 1.433 . S
C2568 C2564 1.350 . S
C2568 C2565 1.463 . S
C2568 N2572 1.427 . S
C2569 H2559 0.929 . S
C2569 C2567 1.433 . S
C2569 N2572 1.384 . S
C2570 H2561 0.929 . S
C2570 C2562 1.378 . S
C2570 C2565 1.350 . S
C2571 H2558 0.929 . S
C2571 C2563 1.433 . S
C2571 N2573 1.384 . S
N2572 C2568 1.427 . S
N2572 C2569 1.384 . S
N2573 C2565 1.427 . S
N2573 C2571 1.384 . S
H2574 C2580 0.930 . S
H2575 C2584 0.930 . S
H2576 C2589 0.929 . S
H2577 C2587 0.929 . S
H2578 C2582 0.929 . S
H2579 C2588 0.929 . S
C2580 H2574 0.930 . S
C2580 C2581 1.367 . S
C2580 C2588 1.378 . S
C2581 C2580 1.367 . S
C2581 C2589 1.433 . S
C2582 H2578 0.929 . S
C2582 C2584 1.378 . S
C2582 C2586 1.350 . S
C2583 C2586 1.463 . S
C2583 C2588 1.350 . S
C2583 N2591 1.427 . S
C2584 H2575 0.930 . S
C2584 C2582 1.378 . S
C2584 C2585 1.367 . S
C2585 C2584 1.367 . S
C2585 C2587 1.433 . S
C2586 C2582 1.350 . S
C2586 C2583 1.463 . S
C2586 N2590 1.427 . S
C2587 H2577 0.929 . S
C2587 C2585 1.433 . S
C2587 N2590 1.384 . S
C2588 H2579 0.929 . S
C2588 C2580 1.378 . S
C2588 C2583 1.350 . S
C2589 H2576 0.929 . S
C2589 C2581 1.433 . S
C2589 N2591 1.384 . S
N2590 C2586 1.427 . S
N2590 C2587 1.384 . S
N2591 C2583 1.427 . S
N2591 C2589 1.384 . S
H2592 C2598 0.930 . S
H2593 C2602 0.930 . S
H2594 C2607 0.929 . S
H2595 C2605 0.929 . S
H2596 C2600 0.929 . S
H2597 C2606 0.929 . S
C2598 H2592 0.930 . S
C2598 C2599 1.367 . S
C2598 C2606 1.378 . S
C2599 C2598 1.367 . S
C2599 C2607 1.433 . S
C2600 H2596 0.929 . S
C2600 C2602 1.378 . S
C2600 C2604 1.350 . S
C2601 C2604 1.463 . S
C2601 C2606 1.350 . S
C2601 N2609 1.427 . S
C2602 H2593 0.930 . S
C2602 C2600 1.378 . S
C2602 C2603 1.367 . S
C2603 C2602 1.367 . S
C2603 C2605 1.433 . S
C2604 C2600 1.350 . S
C2604 C2601 1.463 . S
C2604 N2608 1.427 . S
C2605 H2595 0.929 . S
C2605 C2603 1.433 . S
C2605 N2608 1.384 . S
C2606 H2597 0.929 . S
C2606 C2598 1.378 . S
C2606 C2601 1.350 . S
C2607 H2594 0.929 . S
C2607 C2599 1.433 . S
C2607 N2609 1.384 . S
N2608 C2604 1.427 . S
N2608 C2605 1.384 . S
N2609 C2601 1.427 . S
N2609 C2607 1.384 . S
H2610 C2616 0.930 . S
H2611 C2620 0.930 . S
H2612 C2625 0.929 . S
H2613 C2623 0.929 . S
H2614 C2618 0.929 . S
H2615 C2624 0.929 . S
C2616 H2610 0.930 . S
C2616 C2617 1.367 . S
C2616 C2624 1.378 . S
C2617 C2616 1.367 . S
C2617 C2625 1.433 . S
C2618 H2614 0.929 . S
C2618 C2620 1.378 . S
C2618 C2622 1.350 . S
C2619 C2622 1.463 . S
C2619 C2624 1.350 . S
C2619 N2627 1.427 . S
C2620 H2611 0.930 . S
C2620 C2618 1.378 . S
C2620 C2621 1.367 . S
C2621 C2620 1.367 . S
C2621 C2623 1.433 . S
C2622 C2618 1.350 . S
C2622 C2619 1.463 . S
C2622 N2626 1.427 . S
C2623 H2613 0.929 . S
C2623 C2621 1.433 . S
C2623 N2626 1.384 . S
C2624 H2615 0.929 . S
C2624 C2616 1.378 . S
C2624 C2619 1.350 . S
C2625 H2612 0.929 . S
C2625 C2617 1.433 . S
C2625 N2627 1.384 . S
N2626 C2622 1.427 . S
N2626 C2623 1.384 . S
N2627 C2619 1.427 . S
N2627 C2625 1.384 . S
H2628 C2634 0.930 . S
H2629 C2638 0.930 . S
H2630 C2643 0.929 . S
H2631 C2641 0.929 . S
H2632 C2636 0.929 . S
H2633 C2642 0.929 . S
C2634 H2628 0.930 . S
C2634 C2635 1.367 . S
C2634 C2642 1.378 . S
C2635 C2634 1.367 . S
C2635 C2643 1.433 . S
C2636 H2632 0.929 . S
C2636 C2638 1.378 . S
C2636 C2640 1.350 . S
C2637 C2640 1.463 . S
C2637 C2642 1.350 . S
C2637 N2645 1.427 . S
C2638 H2629 0.930 . S
C2638 C2636 1.378 . S
C2638 C2639 1.367 . S
C2639 C2638 1.367 . S
C2639 C2641 1.433 . S
C2640 C2636 1.350 . S
C2640 C2637 1.463 . S
C2640 N2644 1.427 . S
C2641 H2631 0.929 . S
C2641 C2639 1.433 . S
C2641 N2644 1.384 . S
C2642 H2633 0.929 . S
C2642 C2634 1.378 . S
C2642 C2637 1.350 . S
C2643 H2630 0.929 . S
C2643 C2635 1.433 . S
C2643 N2645 1.384 . S
N2644 C2640 1.427 . S
N2644 C2641 1.384 . S
N2645 C2637 1.427 . S
N2645 C2643 1.384 . S
H2646 C2652 0.930 . S
H2647 C2656 0.930 . S
H2648 C2661 0.929 . S
H2649 C2659 0.929 . S
H2650 C2654 0.929 . S
H2651 C2660 0.929 . S
C2652 H2646 0.930 . S
C2652 C2653 1.367 . S
C2652 C2660 1.378 . S
C2653 C2652 1.367 . S
C2653 C2661 1.433 . S
C2654 H2650 0.929 . S
C2654 C2656 1.378 . S
C2654 C2658 1.350 . S
C2655 C2658 1.463 . S
C2655 C2660 1.350 . S
C2655 N2663 1.427 . S
C2656 H2647 0.930 . S
C2656 C2654 1.378 . S
C2656 C2657 1.367 . S
C2657 C2656 1.367 . S
C2657 C2659 1.433 . S
C2658 C2654 1.350 . S
C2658 C2655 1.463 . S
C2658 N2662 1.427 . S
C2659 H2649 0.929 . S
C2659 C2657 1.433 . S
C2659 N2662 1.384 . S
C2660 H2651 0.929 . S
C2660 C2652 1.378 . S
C2660 C2655 1.350 . S
C2661 H2648 0.929 . S
C2661 C2653 1.433 . S
C2661 N2663 1.384 . S
N2662 C2658 1.427 . S
N2662 C2659 1.384 . S
N2663 C2655 1.427 . S
N2663 C2661 1.384 . S
H2664 C2670 0.930 . S
H2665 C2674 0.930 . S
H2666 C2679 0.929 . S
H2667 C2677 0.929 . S
H2668 C2672 0.929 . S
H2669 C2678 0.929 . S
C2670 H2664 0.930 . S
C2670 C2671 1.367 . S
C2670 C2678 1.378 . S
C2671 C2670 1.367 . S
C2671 C2679 1.433 . S
C2672 H2668 0.929 . S
C2672 C2674 1.378 . S
C2672 C2676 1.350 . S
C2673 C2676 1.463 . S
C2673 C2678 1.350 . S
C2673 N2681 1.427 . S
C2674 H2665 0.930 . S
C2674 C2672 1.378 . S
C2674 C2675 1.367 . S
C2675 C2674 1.367 . S
C2675 C2677 1.433 . S
C2676 C2672 1.350 . S
C2676 C2673 1.463 . S
C2676 N2680 1.427 . S
C2677 H2667 0.929 . S
C2677 C2675 1.433 . S
C2677 N2680 1.384 . S
C2678 H2669 0.929 . S
C2678 C2670 1.378 . S
C2678 C2673 1.350 . S
C2679 H2666 0.929 . S
C2679 C2671 1.433 . S
C2679 N2681 1.384 . S
N2680 C2676 1.427 . S
N2680 C2677 1.384 . S
N2681 C2673 1.427 . S
N2681 C2679 1.384 . S
H2682 C2688 0.930 . S
H2683 C2692 0.930 . S
H2684 C2697 0.929 . S
H2685 C2695 0.929 . S
H2686 C2690 0.929 . S
H2687 C2696 0.929 . S
C2688 H2682 0.930 . S
C2688 C2689 1.367 . S
C2688 C2696 1.378 . S
C2689 C2688 1.367 . S
C2689 C2697 1.433 . S
C2690 H2686 0.929 . S
C2690 C2692 1.378 . S
C2690 C2694 1.350 . S
C2691 C2694 1.463 . S
C2691 C2696 1.350 . S
C2691 N2699 1.427 . S
C2692 H2683 0.930 . S
C2692 C2690 1.378 . S
C2692 C2693 1.367 . S
C2693 C2692 1.367 . S
C2693 C2695 1.433 . S
C2694 C2690 1.350 . S
C2694 C2691 1.463 . S
C2694 N2698 1.427 . S
C2695 H2685 0.929 . S
C2695 C2693 1.433 . S
C2695 N2698 1.384 . S
C2696 H2687 0.929 . S
C2696 C2688 1.378 . S
C2696 C2691 1.350 . S
C2697 H2684 0.929 . S
C2697 C2689 1.433 . S
C2697 N2699 1.384 . S
N2698 C2694 1.427 . S
N2698 C2695 1.384 . S
N2699 C2691 1.427 . S
N2699 C2697 1.384 . S
H2700 C2706 0.930 . S
H2701 C2710 0.930 . S
H2702 C2715 0.929 . S
H2703 C2713 0.929 . S
H2704 C2708 0.929 . S
H2705 C2714 0.929 . S
C2706 H2700 0.930 . S
C2706 C2707 1.367 . S
C2706 C2714 1.378 . S
C2707 C2706 1.367 . S
C2707 C2715 1.433 . S
C2708 H2704 0.929 . S
C2708 C2710 1.378 . S
C2708 C2712 1.350 . S
C2709 C2712 1.463 . S
C2709 C2714 1.350 . S
C2709 N2717 1.427 . S
C2710 H2701 0.930 . S
C2710 C2708 1.378 . S
C2710 C2711 1.367 . S
C2711 C2710 1.367 . S
C2711 C2713 1.433 . S
C2712 C2708 1.350 . S
C2712 C2709 1.463 . S
C2712 N2716 1.427 . S
C2713 H2703 0.929 . S
C2713 C2711 1.433 . S
C2713 N2716 1.384 . S
C2714 H2705 0.929 . S
C2714 C2706 1.378 . S
C2714 C2709 1.350 . S
C2715 H2702 0.929 . S
C2715 C2707 1.433 . S
C2715 N2717 1.384 . S
N2716 C2712 1.427 . S
N2716 C2713 1.384 . S
N2717 C2709 1.427 . S
N2717 C2715 1.384 . S
H2718 C2724 0.930 . S
H2719 C2728 0.930 . S
H2720 C2733 0.929 . S
H2721 C2731 0.929 . S
H2722 C2726 0.929 . S
H2723 C2732 0.929 . S
C2724 H2718 0.930 . S
C2724 C2725 1.367 . S
C2724 C2732 1.378 . S
C2725 C2724 1.367 . S
C2725 C2733 1.433 . S
C2726 H2722 0.929 . S
C2726 C2728 1.378 . S
C2726 C2730 1.350 . S
C2727 C2730 1.463 . S
C2727 C2732 1.350 . S
C2727 N2735 1.427 . S
C2728 H2719 0.930 . S
C2728 C2726 1.378 . S
C2728 C2729 1.367 . S
C2729 C2728 1.367 . S
C2729 C2731 1.433 . S
C2730 C2726 1.350 . S
C2730 C2727 1.463 . S
C2730 N2734 1.427 . S
C2731 H2721 0.929 . S
C2731 C2729 1.433 . S
C2731 N2734 1.384 . S
C2732 H2723 0.929 . S
C2732 C2724 1.378 . S
C2732 C2727 1.350 . S
C2733 H2720 0.929 . S
C2733 C2725 1.433 . S
C2733 N2735 1.384 . S
N2734 C2730 1.427 . S
N2734 C2731 1.384 . S
N2735 C2727 1.427 . S
N2735 C2733 1.384 . S
H2736 C2742 0.930 . S
H2737 C2746 0.930 . S
H2738 C2751 0.929 . S
H2739 C2749 0.929 . S
H2740 C2744 0.929 . S
H2741 C2750 0.929 . S
C2742 H2736 0.930 . S
C2742 C2743 1.367 . S
C2742 C2750 1.378 . S
C2743 C2742 1.367 . S
C2743 C2751 1.433 . S
C2744 H2740 0.929 . S
C2744 C2746 1.378 . S
C2744 C2748 1.350 . S
C2745 C2748 1.463 . S
C2745 C2750 1.350 . S
C2745 N2753 1.427 . S
C2746 H2737 0.930 . S
C2746 C2744 1.378 . S
C2746 C2747 1.367 . S
C2747 C2746 1.367 . S
C2747 C2749 1.433 . S
C2748 C2744 1.350 . S
C2748 C2745 1.463 . S
C2748 N2752 1.427 . S
C2749 H2739 0.929 . S
C2749 C2747 1.433 . S
C2749 N2752 1.384 . S
C2750 H2741 0.929 . S
C2750 C2742 1.378 . S
C2750 C2745 1.350 . S
C2751 H2738 0.929 . S
C2751 C2743 1.433 . S
C2751 N2753 1.384 . S
N2752 C2748 1.427 . S
N2752 C2749 1.384 . S
N2753 C2745 1.427 . S
N2753 C2751 1.384 . S
H2754 C2760 0.930 . S
H2755 C2764 0.930 . S
H2756 C2769 0.929 . S
H2757 C2767 0.929 . S
H2758 C2762 0.929 . S
H2759 C2768 0.929 . S
C2760 H2754 0.930 . S
C2760 C2761 1.367 . S
C2760 C2768 1.378 . S
C2761 C2760 1.367 . S
C2761 C2769 1.433 . S
C2762 H2758 0.929 . S
C2762 C2764 1.378 . S
C2762 C2766 1.350 . S
C2763 C2766 1.463 . S
C2763 C2768 1.350 . S
C2763 N2771 1.427 . S
C2764 H2755 0.930 . S
C2764 C2762 1.378 . S
C2764 C2765 1.367 . S
C2765 C2764 1.367 . S
C2765 C2767 1.433 . S
C2766 C2762 1.350 . S
C2766 C2763 1.463 . S
C2766 N2770 1.427 . S
C2767 H2757 0.929 . S
C2767 C2765 1.433 . S
C2767 N2770 1.384 . S
C2768 H2759 0.929 . S
C2768 C2760 1.378 . S
C2768 C2763 1.350 . S
C2769 H2756 0.929 . S
C2769 C2761 1.433 . S
C2769 N2771 1.384 . S
N2770 C2766 1.427 . S
N2770 C2767 1.384 . S
N2771 C2763 1.427 . S
N2771 C2769 1.384 . S
H2772 C2778 0.930 . S
H2773 C2782 0.930 . S
H2774 C2787 0.929 . S
H2775 C2785 0.929 . S
H2776 C2780 0.929 . S
H2777 C2786 0.929 . S
C2778 H2772 0.930 . S
C2778 C2779 1.367 . S
C2778 C2786 1.378 . S
C2779 C2778 1.367 . S
C2779 C2787 1.433 . S
C2780 H2776 0.929 . S
C2780 C2782 1.378 . S
C2780 C2784 1.350 . S
C2781 C2784 1.463 . S
C2781 C2786 1.350 . S
C2781 N2789 1.427 . S
C2782 H2773 0.930 . S
C2782 C2780 1.378 . S
C2782 C2783 1.367 . S
C2783 C2782 1.367 . S
C2783 C2785 1.433 . S
C2784 C2780 1.350 . S
C2784 C2781 1.463 . S
C2784 N2788 1.427 . S
C2785 H2775 0.929 . S
C2785 C2783 1.433 . S
C2785 N2788 1.384 . S
C2786 H2777 0.929 . S
C2786 C2778 1.378 . S
C2786 C2781 1.350 . S
C2787 H2774 0.929 . S
C2787 C2779 1.433 . S
C2787 N2789 1.384 . S
N2788 C2784 1.427 . S
N2788 C2785 1.384 . S
N2789 C2781 1.427 . S
N2789 C2787 1.384 . S
H2790 C2796 0.930 . S
H2791 C2800 0.930 . S
H2792 C2805 0.929 . S
H2793 C2803 0.929 . S
H2794 C2798 0.929 . S
H2795 C2804 0.929 . S
C2796 H2790 0.930 . S
C2796 C2797 1.367 . S
C2796 C2804 1.378 . S
C2797 C2796 1.367 . S
C2797 C2805 1.433 . S
C2798 H2794 0.929 . S
C2798 C2800 1.378 . S
C2798 C2802 1.350 . S
C2799 C2802 1.463 . S
C2799 C2804 1.350 . S
C2799 N2807 1.427 . S
C2800 H2791 0.930 . S
C2800 C2798 1.378 . S
C2800 C2801 1.367 . S
C2801 C2800 1.367 . S
C2801 C2803 1.433 . S
C2802 C2798 1.350 . S
C2802 C2799 1.463 . S
C2802 N2806 1.427 . S
C2803 H2793 0.929 . S
C2803 C2801 1.433 . S
C2803 N2806 1.384 . S
C2804 H2795 0.929 . S
C2804 C2796 1.378 . S
C2804 C2799 1.350 . S
C2805 H2792 0.929 . S
C2805 C2797 1.433 . S
C2805 N2807 1.384 . S
N2806 C2802 1.427 . S
N2806 C2803 1.384 . S
N2807 C2799 1.427 . S
N2807 C2805 1.384 . S
C1195 C116 0.467 . S
C1199 C17 0.435 . S
C1213 C50 0.436 . S
C1217 C149 0.456 . S
C1231 C182 0.456 . S
C1235 C83 0.436 . S
C1249 C314 0.456 . S
C1253 C215 0.436 . S
C1267 C248 0.461 . S
C1271 C347 0.435 . S
C1285 C380 0.441 . S
C1289 C281 0.473 . S
C1303 C512 0.463 . S
C1307 C413 0.435 . S
C1321 C446 0.447 . S
C1325 C545 0.440 . S
C1339 C578 0.451 . S
C1343 C479 0.474 . S
C1357 C611 0.469 . S
C1361 C710 0.437 . S
C1375 C644 0.460 . S
C1379 C743 0.471 . S
C1393 C776 0.440 . S
C1397 C677 0.472 . S
C1411 C908 0.471 . S
C1415 C809 0.438 . S
C1429 C941 0.473 . S
C1433 C842 0.457 . S
C1447 C974 0.456 . S
C1451 C875 0.473 . S
C1465 C1106 0.473 . S
C1469 C1007 0.457 . S
C1483 C1040 0.450 . S
C1487 C1139 0.438 . S
C1501 C1172 0.473 . S
C1505 C1073 0.440 . S
C1519 C8 1.622 . S
C1523 C965 1.620 . S
C1537 C899 1.623 . S
C1541 C41 1.621 1_565 S
C1555 C74 1.624 1_455 S
C1559 C932 1.627 . S
C1573 C437 1.631 . S
C1577 C107 1.628 . S
C1591 C140 1.631 1_545 S
C1595 C470 1.632 . S
C1609 C404 1.628 . S
C1613 C173 1.631 1_655 S
C1627 C767 1.624 . S
C1631 C206 1.622 . S
C1645 C701 1.627 . S
C1649 C239 1.624 1_545 S
C1663 C734 1.620 . S
C1667 C272 1.619 1_655 S
C1681 C305 1.620 . S
C1685 C1031 1.620 . S
C1699 C1064 1.631 . S
C1703 C338 1.629 1_565 S
C1717 C371 1.620 1_455 S
C1721 C998 1.622 . S
C1735 C833 1.620 . S
C1739 C503 1.619 . S
C1753 C866 1.620 . S
C1757 C536 1.619 . S
C1771 C800 1.631 . S
C1775 C569 1.632 . S
C1789 C602 1.619 . S
C1793 C1163 1.621 . S
C1807 C635 1.630 . S
C1811 C1097 1.628 . S
C1825 C1130 1.623 . S
C1829 C668 1.621 . S
C1843 N5 1.272 . S
C1847 N599 1.272 . S
C1861 N632 1.279 . S
C1865 N38 1.279 . S
C1879 N71 1.277 . S
C1883 N665 1.277 . S
C1897 N1094 1.273 . S
C1901 N104 1.273 . S
C1915 N137 1.276 . S
C1919 N1127 1.276 . S
C1933 N1160 1.279 . S
C1937 N170 1.279 . S
C1951 N203 1.271 . S
C1955 N797 1.271 . S
C1969 N236 1.271 . S
C1973 N830 1.271 . S
C1987 N269 1.279 . S
C1991 N863 1.279 . S
C2005 N500 1.278 . S
C2009 N302 1.278 . S
C2023 N533 1.275 . S
C2027 N335 1.275 . S
C2041 N368 1.278 . S
C2045 N566 1.278 . S
C2059 N401 1.277 . S
C2063 N995 1.277 . S
C2077 N1028 1.278 . S
C2081 N434 1.278 . S
C2095 N467 1.278 . S
C2099 N1061 1.278 . S
C2113 N896 1.278 . S
C2117 N698 1.278 . S
C2131 N731 1.278 . S
C2135 N929 1.278 . S
C2149 N962 1.271 . S
C2153 N764 1.271 . S
C2167 N245 1.626 . S
C2171 C28 1.674 . S
C2185 C61 1.676 . S
C2189 N278 1.635 . S
C2203 C94 1.675 . S
C2207 N212 1.636 . S
C2221 C127 1.672 . S
C2225 N377 1.633 . S
C2239 C160 1.676 . S
C2243 N311 1.635 . S
C2257 C193 1.671 . S
C2261 N344 1.626 . S
C2275 N47 1.626 . S
C2279 C226 1.671 . S
C2293 N80 1.636 . S
C2297 C259 1.675 . S
C2311 N14 1.634 . S
C2315 C292 1.672 . S
C2329 C325 1.674 . S
C2333 N179 1.636 . S
C2347 C358 1.672 . S
C2351 N113 1.634 . S
C2365 C391 1.672 . S
C2369 N146 1.632 . S
C2383 C424 1.676 . S
C2387 N641 1.634 . S
C2401 N674 1.629 . S
C2405 C457 1.675 . S
C2419 N608 1.636 . S
C2423 C490 1.675 . S
C2437 C523 1.674 . S
C2441 N773 1.627 . S
C2455 N707 1.625 . S
C2459 C556 1.671 . S
C2473 N740 1.630 . S
C2477 C589 1.675 . S
C2491 C622 1.672 . S
C2495 N443 1.634 . S
C2509 C655 1.673 . S
C2513 N476 1.636 . S
C2527 N410 1.626 . S
C2531 C688 1.674 . S
C2545 N575 1.625 . S
C2549 C721 1.671 . S
C2563 N509 1.633 . S
C2567 C754 1.676 . S
C2581 N542 1.636 . S
C2585 C787 1.675 . S
C2599 C820 1.674 . S
C2603 N1037 1.627 . S
C2617 N1070 1.630 . S
C2621 C853 1.671 . S
C2635 N1004 1.636 . S
C2639 C886 1.673 . S
C2653 C919 1.673 . S
C2657 N1169 1.625 . S
C2671 C952 1.675 . S
C2675 N1103 1.636 . S
C2689 C985 1.674 . S
C2693 N1136 1.636 . S
C2707 N839 1.624 . S
C2711 C1018 1.672 . S
C2725 N872 1.630 . S
C2729 C1051 1.675 . S
C2743 C1084 1.676 . S
C2747 N806 1.634 . S
C2761 C1117 1.671 . S
C2765 N971 1.624 . S
C2779 C1150 1.675 . S
C2783 N905 1.636 . S
C2797 C1183 1.671 . S
C2801 N938 1.629 . S
