# Generated by pormake.
# Topology qtz-e, (6)-cn, num edge types: 1
# Building blocks:
#     Node 0, Type 0, BuildingBlock: MIFKUJ_clean_sbu_0, # of connection points: 6
#     Node 1, Type 0, BuildingBlock: MIFKUJ_clean_sbu_0, # of connection points: 6
#     Node 2, Type 0, BuildingBlock: MIFKUJ_clean_sbu_0, # of connection points: 6
#     Node 3, Type 0, BuildingBlock: MIFKUJ_clean_sbu_0, # of connection points: 6
#     Node 4, Type 0, BuildingBlock: MIFKUJ_clean_sbu_0, # of connection points: 6
#     Node 5, Type 0, BuildingBlock: MIFKUJ_clean_sbu_0, # of connection points: 6
#     Edge 6, Type (0, 0), BuildingBlock: CIFDUS_clean_linker_0, # of connection points: 2
#     Edge 7, Type (0, 0), BuildingBlock: CIFDUS_clean_linker_0, # of connection points: 2
#     Edge 8, Type (0, 0), BuildingBlock: CIFDUS_clean_linker_0, # of connection points: 2
#     Edge 9, Type (0, 0), BuildingBlock: CIFDUS_clean_linker_0, # of connection points: 2
#     Edge 10, Type (0, 0), BuildingBlock: CIFDUS_clean_linker_0, # of connection points: 2
#     Edge 11, Type (0, 0), BuildingBlock: CIFDUS_clean_linker_0, # of connection points: 2
#     Edge 12, Type (0, 0), BuildingBlock: CIFDUS_clean_linker_0, # of connection points: 2
#     Edge 13, Type (0, 0), BuildingBlock: CIFDUS_clean_linker_0, # of connection points: 2
#     Edge 14, Type (0, 0), BuildingBlock: CIFDUS_clean_linker_0, # of connection points: 2
#     Edge 15, Type (0, 0), BuildingBlock: CIFDUS_clean_linker_0, # of connection points: 2
#     Edge 16, Type (0, 0), BuildingBlock: CIFDUS_clean_linker_0, # of connection points: 2
#     Edge 17, Type (0, 0), BuildingBlock: CIFDUS_clean_linker_0, # of connection points: 2
#     Edge 18, Type (0, 0), BuildingBlock: CIFDUS_clean_linker_0, # of connection points: 2
#     Edge 19, Type (0, 0), BuildingBlock: CIFDUS_clean_linker_0, # of connection points: 2
#     Edge 20, Type (0, 0), BuildingBlock: CIFDUS_clean_linker_0, # of connection points: 2
#     Edge 21, Type (0, 0), BuildingBlock: CIFDUS_clean_linker_0, # of connection points: 2
#     Edge 22, Type (0, 0), BuildingBlock: CIFDUS_clean_linker_0, # of connection points: 2
#     Edge 23, Type (0, 0), BuildingBlock: CIFDUS_clean_linker_0, # of connection points: 2
# Relax obj value: 0.213
# Max RMSD: 0.227
# Mean RMSD: 0.227
data_MOF--net-qtz-e--node1-MIFKUJ_clean_sbu_0--edge1-CIFDUS_clean_linker_0
_symmetry_space_group_name_H-M    P1
_symmetry_Int_Tables_number       1
_symmetry_cell_setting            triclinic
loop_
_symmetry_equiv_pos_as_xyz
'x, y, z'
_cell_length_a     21.362279
_cell_length_b     21.15736
_cell_length_c     39.075466
_cell_angle_alpha  90.338152
_cell_angle_beta   89.513897
_cell_angle_gamma 119.94824
loop_
_atom_site_label
_atom_site_type_symbol
_atom_site_fract_x
_atom_site_fract_y
_atom_site_fract_z
_atom_type_partial_charge
Zn0 Zn 0.16943 0.33108 0.97882 0.0
Zn1 Zn 0.23735 0.4267 0.04396 0.0
C2 C 0.19891 0.42039 0.91944 0.0
O3 O 0.13246 0.36989 0.91223 0.0
C4 C 0.221 0.31862 0.08995 0.0
O5 O 0.29141 0.36221 0.08968 0.0
O6 O 0.11598 0.25004 0.94513 0.0
O7 O 0.24952 0.3169 -0.00113 0.0
O8 O 0.31338 0.43264 0.01376 0.0
C9 C 0.11096 0.18771 0.94494 0.0
O10 O 0.13559 0.16821 0.97115 0.0
O11 O 0.22505 0.41933 0.94836 0.0
C12 C 0.23036 0.48861 0.1041 0.0
O13 O 0.16435 0.43456 0.09909 0.0
O14 O 0.27906 0.49949 0.08219 0.0
O15 O 0.17472 0.4558 0.02045 0.0
O16 O 0.0944 0.34439 0.00545 0.0
O17 O 0.18357 0.32929 0.06799 0.0
C18 C 0.30981 0.37591 0.00084 0.0
C19 C 0.1109 0.40965 0.01221 0.0
Zn20 Zn 0.86187 0.2043 0.28637 0.0
Zn21 Zn 0.83199 0.19107 0.39409 0.0
C22 C 0.8174 0.30318 0.2591 0.0
O23 O 0.75211 0.25131 0.26747 0.0
C24 C 0.90533 0.15525 0.44278 0.0
O25 O 0.94281 0.22684 0.44405 0.0
O26 O 0.90577 0.16616 0.25205 0.0
O27 O 0.9079 0.22782 0.33245 0.0
O28 O 0.92024 0.28482 0.38056 0.0
C29 C 0.97232 0.18502 0.25183 0.0
O30 O 0.0127 0.22292 0.27773 0.0
O31 O 0.87111 0.29506 0.26555 0.0
C32 C 0.7328 0.16923 0.44908 0.0
O33 O 0.73248 0.10715 0.45137 0.0
O34 O 0.77124 0.21459 0.426 0.0
O35 O 0.77672 0.1494 0.34989 0.0
O36 O 0.75595 0.13028 0.29498 0.0
O37 O 0.85799 0.12521 0.41955 0.0
C38 C 0.9344 0.2876 0.34882 0.0
C39 C 0.73221 0.11836 0.32569 0.0
Zn40 Zn 0.59745 0.81561 0.63888 0.0
Zn41 Zn 0.60358 0.81259 0.74725 0.0
C42 C 0.46388 0.75482 0.60176 0.0
O43 O 0.46518 0.69396 0.60591 0.0
C44 C 0.7268 0.91763 0.78273 0.0
O45 O 0.68683 0.94878 0.78374 0.0
O46 O 0.67722 0.85206 0.60403 0.0
O47 O 0.62035 0.86834 0.68261 0.0
O48 O 0.5813 0.88887 0.73009 0.0
C49 C 0.73651 0.91203 0.60401 0.0
O50 O 0.75363 0.95521 0.6308 0.0
O51 O 0.51348 0.81338 0.61498 0.0
C52 C 0.5028 0.69371 0.79001 0.0
O53 O 0.51077 0.6557 0.76552 0.0
O54 O 0.53758 0.76298 0.78829 0.0
O55 O 0.57858 0.73335 0.70982 0.0
O56 O 0.57126 0.71555 0.65342 0.0
O57 O 0.7051 0.8597 0.76507 0.0
C58 C 0.58745 0.89613 0.69794 0.0
C59 C 0.56568 0.69167 0.68383 0.0
Zn60 Zn 0.79419 0.64357 0.95569 0.0
Zn61 Zn 0.78781 0.63826 0.06309 0.0
C62 C 0.69271 0.50164 0.92717 0.0
O63 O 0.72518 0.47845 0.9478 0.0
C64 C 0.82138 0.7597 0.10481 0.0
O65 O 0.7506 0.72371 0.10764 0.0
O66 O 0.85046 0.73151 0.92611 0.0
O67 O 0.76022 0.66452 -0.00092 0.0
O68 O 0.69487 0.62463 0.045 0.0
C69 C 0.86179 0.79565 0.93146 0.0
O70 O 0.84054 0.81044 0.96057 0.0
O71 O 0.71216 0.56903 0.92694 0.0
C72 C 0.81612 0.57546 0.1203 0.0
O73 O 0.88198 0.62788 0.11315 0.0
O74 O 0.76423 0.56818 0.10185 0.0
O75 O 0.83641 0.60829 0.02597 0.0
O76 O 0.85694 0.60368 0.97056 0.0
O77 O 0.85086 0.73781 0.08296 0.0
C78 C 0.69816 0.62903 0.0127 0.0
C79 C 0.86526 0.59119 0.0016 0.0
Zn80 Zn 0.15237 0.80041 0.29678 0.0
Zn81 Zn 0.19322 0.80275 0.38995 0.0
C82 C 0.20257 0.73561 0.24882 0.0
O83 O 0.2491 0.80455 0.24274 0.0
C84 C 0.09559 0.82701 0.42733 0.0
O85 O 0.07026 0.75733 0.43342 0.0
O86 O 0.12104 0.84667 0.2613 0.0
O87 O 0.07886 0.7514 0.33438 0.0
O88 O 0.12905 0.7073 0.36822 0.0
C89 C 0.06948 0.86024 0.26224 0.0
O90 O 0.03185 0.84837 0.29063 0.0
O91 O 0.15408 0.71949 0.27147 0.0
C92 C 0.26994 0.84075 0.45138 0.0
O93 O 0.28373 0.90477 0.43997 0.0
O94 O 0.22948 0.78421 0.43384 0.0
O95 O 0.28259 0.86581 0.36328 0.0
O96 O 0.25706 0.86875 0.30855 0.0
O97 O 0.14284 0.85704 0.40388 0.0
C98 C 0.08012 0.69704 0.34718 0.0
C99 C 0.30203 0.8888 0.33296 0.0
Zn100 Zn 0.33118 0.1331 0.62839 0.0
Zn101 Zn 0.33573 0.16152 0.736 0.0
C102 C 0.45373 0.18049 0.58267 0.0
O103 O 0.44004 0.23302 0.5756 0.0
C104 C 0.22338 0.06794 0.78051 0.0
O105 O 0.26385 0.03733 0.78055 0.0
O106 O 0.24612 0.07976 0.5974 0.0
O107 O 0.31696 0.0924 0.67491 0.0
O108 O 0.35864 0.08244 0.72346 0.0
C109 C 0.19032 0.01849 0.60336 0.0
O110 O 0.18298 0.98759 0.63332 0.0
O111 O 0.41557 0.13335 0.60511 0.0
C112 C 0.40609 0.28508 0.78008 0.0
O113 O 0.35819 0.29887 0.76641 0.0
O114 O 0.40796 0.22838 0.77066 0.0
O115 O 0.34859 0.22326 0.69338 0.0
O116 O 0.35043 0.23494 0.637 0.0
O117 O 0.23918 0.11997 0.75973 0.0
C118 C 0.35089 0.06827 0.69175 0.0
C119 C 0.35661 0.26173 0.66697 0.0
H120 H 0.30648 0.75015 0.20396 0.0
H121 H 0.1001 0.59144 0.24674 0.0
H122 H 0.09538 0.49853 0.20806 0.0
H123 H 0.14376 0.46588 0.15859 0.0
H124 H 0.34803 0.62439 0.11414 0.0
H125 H 0.36037 0.71382 0.15751 0.0
C126 C 0.26075 0.69509 0.20497 0.0
C127 C 0.20334 0.67794 0.22785 0.0
C128 C 0.25795 0.6421 0.18236 0.0
C129 C 0.14492 0.60614 0.22929 0.0
C130 C 0.14204 0.55299 0.20711 0.0
C131 C 0.19134 0.51981 0.15852 0.0
C132 C 0.24426 0.53909 0.13288 0.0
C133 C 0.19735 0.57093 0.18301 0.0
C134 C 0.3063 0.60854 0.13352 0.0
C135 C 0.31318 0.65972 0.15817 0.0
H136 H 0.54284 0.26966 0.53248 0.0
H137 H 0.48657 0.07158 0.5875 0.0
H138 H 0.56908 0.0519 0.55152 0.0
H139 H 0.65312 0.08777 0.503 0.0
H140 H 0.70997 0.28559 0.44775 0.0
H141 H 0.63125 0.30838 0.48531 0.0
C142 C 0.54892 0.22241 0.53676 0.0
C143 C 0.50818 0.17203 0.56256 0.0
C144 C 0.59622 0.21106 0.5158 0.0
C145 C 0.51709 0.11128 0.56782 0.0
C146 C 0.56415 0.09979 0.54718 0.0
C147 C 0.64849 0.136 0.49916 0.0
C148 C 0.68708 0.18463 0.47244 0.0
C149 C 0.60324 0.14879 0.52083 0.0
C150 C 0.68074 0.24711 0.46805 0.0
C151 C 0.6357 0.26019 0.48952 0.0
H152 H 0.3146 0.55859 0.92403 0.0
H153 H 0.19229 0.38336 0.85291 0.0
H154 H 0.27681 0.45189 0.80708 0.0
H155 H 0.38584 0.55992 0.78723 0.0
H156 H 0.50473 0.74097 0.85581 0.0
H157 H 0.42101 0.67236 0.90262 0.0
C158 C 0.30632 0.53609 0.89837 0.0
C159 C 0.24721 0.46633 0.89174 0.0
C160 C 0.35441 0.57667 0.87178 0.0
C161 C 0.23679 0.43742 0.85849 0.0
C162 C 0.28533 0.47632 0.83231 0.0
C163 C 0.39342 0.5845 0.81242 0.0
C164 C 0.45149 0.65505 0.81821 0.0
C165 C 0.34434 0.54572 0.83869 0.0
C166 C 0.46019 0.68664 0.8508 0.0
C167 C 0.41249 0.64739 0.87753 0.0
H168 H 0.71458 0.31945 0.22661 0.0
H169 H 0.94427 0.42759 0.24483 0.0
H170 H 0.96357 0.52399 0.20484 0.0
H171 H 0.9162 0.5723 0.16153 0.0
H172 H 0.68689 0.46208 0.14205 0.0
H173 H 0.66651 0.37183 0.18583 0.0
C174 C 0.76875 0.36459 0.22219 0.0
C175 C 0.82791 0.36595 0.23839 0.0
C176 C 0.77963 0.41908 0.19869 0.0
C177 C 0.89782 0.42487 0.2324 0.0
C178 C 0.90894 0.47998 0.2095 0.0
C179 C 0.86168 0.52885 0.16699 0.0
C180 C 0.80326 0.5236 0.14831 0.0
C181 C 0.85041 0.47672 0.19193 0.0
C182 C 0.73293 0.46712 0.15587 0.0
C183 C 0.72118 0.41548 0.18091 0.0
H184 H 0.46213 0.87492 0.57899 0.0
H185 H 0.35047 0.6402 0.56976 0.0
H186 H 0.27688 0.64562 0.52365 0.0
H187 H 0.25182 0.71781 0.48264 0.0
H188 H 0.36661 0.95276 0.49114 0.0
H189 H 0.43127 0.94617 0.54078 0.0
C190 C 0.42112 0.82481 0.5672 0.0
C191 C 0.41244 0.75735 0.57753 0.0
C192 C 0.38007 0.82837 0.54026 0.0
C193 C 0.35871 0.69296 0.5621 0.0
C194 C 0.31674 0.69599 0.53563 0.0
C195 C 0.29062 0.76754 0.49549 0.0
C196 C 0.30477 0.83565 0.48297 0.0
C197 C 0.32826 0.76353 0.52392 0.0
C198 C 0.35485 0.89956 0.50009 0.0
C199 C 0.39199 0.89595 0.52851 0.0
H200 H 0.60618 0.52819 0.88588 0.0
H201 H 0.65664 0.36118 0.91312 0.0
H202 H 0.57309 0.28005 0.86987 0.0
H203 H 0.48818 0.25734 0.82334 0.0
H204 H 0.4355 0.42291 0.79654 0.0
H205 H 0.51756 0.50377 0.84051 0.0
C206 C 0.59872 0.47395 0.88244 0.0
C207 C 0.63804 0.45103 0.90259 0.0
C208 C 0.55048 0.42742 0.85748 0.0
C209 C 0.62717 0.38031 0.89799 0.0
C210 C 0.57956 0.3339 0.87316 0.0
C211 C 0.49478 0.31119 0.82705 0.0
C212 C 0.45606 0.33414 0.80659 0.0
C213 C 0.54149 0.3571 0.85255 0.0
C214 C 0.46464 0.40382 0.81196 0.0
C215 C 0.5116 0.45015 0.83709 0.0
H216 H 0.39391 0.46496 0.95175 0.0
H217 H 0.37837 0.30605 0.02471 0.0
H218 H 0.5102 0.36726 0.02794 0.0
H219 H 0.62215 0.48549 0.02441 0.0
H220 H 0.63449 0.65331 0.95807 0.0
H221 H 0.51205 0.56979 0.93736 0.0
C222 C 0.41992 0.4418 0.96689 0.0
C223 C 0.37754 0.38242 0.9885 0.0
C224 C 0.49496 0.48093 0.97076 0.0
C225 C 0.41046 0.35186 0.00796 0.0
C226 C 0.48572 0.38785 0.01032 0.0
C227 C 0.59844 0.50279 0.00471 0.0
C228 C 0.63541 0.57542 0.99333 0.0
C229 C 0.52755 0.45567 0.9942 0.0
C230 C 0.60588 0.59771 0.9674 0.0
C231 C 0.53608 0.55007 0.95571 0.0
H232 H 0.1248 0.61284 0.31616 0.0
H233 H 0.93394 0.6149 0.35086 0.0
H234 H 0.86432 0.48138 0.34734 0.0
H235 H 0.8675 0.36637 0.34741 0.0
H236 H 0.05867 0.36511 0.31256 0.0
H237 H 0.1182 0.4965 0.3013 0.0
C238 C 0.06718 0.5841 0.32141 0.0
C239 C 0.03424 0.62284 0.33396 0.0
C240 C 0.02815 0.50781 0.31957 0.0
C241 C 0.95994 0.58569 0.34103 0.0
C242 C 0.92048 0.50949 0.33932 0.0
C243 C 0.92132 0.39477 0.33625 0.0
C244 C 0.95976 0.35749 0.33144 0.0
C245 C 0.95529 0.47013 0.33059 0.0
C246 C 0.02877 0.39349 0.3166 0.0
C247 C 0.06284 0.4685 0.31052 0.0
H248 H 0.32218 0.93221 0.67697 0.0
H249 H 0.48944 0.15757 0.67296 0.0
H250 H 0.58129 0.12163 0.66562 0.0
H251 H 0.61448 0.02705 0.67496 0.0
H252 H 0.44731 0.8025 0.68447 0.0
H253 H 0.35479 0.83596 0.6741 0.0
C254 C 0.37847 0.97301 0.67297 0.0
C255 C 0.39959 0.0471 0.67535 0.0
C256 C 0.43098 0.95179 0.67034 0.0
C257 C 0.47249 0.10013 0.67088 0.0
C258 C 0.52492 0.07956 0.66705 0.0
C259 C 0.55793 0.98545 0.67327 0.0
C260 C 0.53715 0.91268 0.68028 0.0
C261 C 0.50512 0.0057 0.66887 0.0
C262 C 0.46396 0.85885 0.67883 0.0
C263 C 0.41119 0.87808 0.67322 0.0
H264 H 0.45187 0.59111 0.64944 0.0
H265 H 0.60086 0.61494 0.72884 0.0
H266 H 0.54293 0.48142 0.73352 0.0
H267 H 0.45589 0.35866 0.71106 0.0
H268 H 0.31145 0.33851 0.62988 0.0
H269 H 0.36129 0.47055 0.62988 0.0
C270 C 0.47186 0.56707 0.66768 0.0
C271 C 0.53094 0.61221 0.68841 0.0
C272 C 0.43891 0.49126 0.66989 0.0
C273 C 0.55544 0.58078 0.71256 0.0
C274 C 0.52244 0.50473 0.71516 0.0
C275 C 0.43442 0.38332 0.69399 0.0
C276 C 0.38009 0.33951 0.67055 0.0
C277 C 0.46481 0.45947 0.69352 0.0
C278 C 0.35348 0.37163 0.64798 0.0
C279 C 0.38203 0.44689 0.64793 0.0
H280 H -0.00363 0.39625 0.04841 0.0
H281 H 0.12375 0.49022 0.9573 0.0
H282 H 0.05879 0.55559 0.9459 0.0
H283 H 0.96948 0.58964 0.96304 0.0
H284 H 0.84599 0.50245 0.05595 0.0
H285 H 0.90552 0.4308 0.0657 0.0
C286 C 0.00817 0.42964 0.02569 0.0
C287 C 0.06275 0.43716 0.00308 0.0
C288 C 0.97221 0.46896 0.01998 0.0
C289 C 0.0802 0.48243 0.97436 0.0
C290 C 0.04374 0.52029 0.96807 0.0
C291 C 0.95565 0.55493 0.98542 0.0
C292 C 0.90388 0.55144 0.0088 0.0
C293 C -0.00969 0.51463 0.99092 0.0
C294 C 0.8866 0.50672 0.03784 0.0
C295 C 0.92012 0.46533 0.04326 0.0
H296 H 0.40963 0.96694 0.37804 0.0
H297 H 0.36992 0.90996 0.27104 0.0
H298 H 0.49954 0.97343 0.2596 0.0
H299 H 0.62425 0.04361 0.2801 0.0
H300 H 0.66376 0.10138 0.38696 0.0
H301 H 0.5342 0.03919 0.39833 0.0
C302 C 0.42931 0.96885 0.35216 0.0
C303 C 0.38009 0.9338 0.32544 0.0
C304 C 0.50391 0.00527 0.34577 0.0
C305 C 0.40649 0.93701 0.29204 0.0
C306 C 0.48069 0.9729 0.28549 0.0
C307 C 0.60454 0.0423 0.30591 0.0
C308 C 0.6537 0.07673 0.33271 0.0
C309 C 0.52988 0.0068 0.3122 0.0
C310 C 0.62718 0.07477 0.36596 0.0
C311 C 0.55303 0.03949 0.37245 0.0
H312 H 0.14023 0.13042 0.79193 0.0
H313 H 0.20059 0.98253 0.83665 0.0
H314 H 0.15517 0.995 0.89216 0.0
H315 H 0.12451 0.06908 0.92981 0.0
H316 H 0.06768 0.21972 0.88513 0.0
H317 H 0.08382 0.1836 0.828 0.0
C318 C 0.14163 0.09931 0.81358 0.0
C319 C 0.176 0.05762 0.81035 0.0
C320 C 0.11703 0.10807 0.84571 0.0
C321 C 0.17581 0.01632 0.8385 0.0
C322 C 0.15013 0.02366 0.8704 0.0
C323 C 0.11356 0.09245 0.9076 0.0
C324 C 0.09755 0.14891 0.9118 0.0
C325 C 0.12467 0.07275 0.87467 0.0
C326 C 0.08192 0.17741 0.8827 0.0
C327 C 0.0914 0.15701 0.84992 0.0
H328 H 0.11412 0.22855 0.24014 0.0
H329 H 0.90721 0.13287 0.19 0.0
H330 H 0.96654 0.15553 0.13429 0.0
H331 H 0.07769 0.22252 0.10006 0.0
H332 H 0.28452 0.31875 0.15027 0.0
H333 H 0.22467 0.27487 0.20539 0.0
C334 C 0.08184 0.21112 0.21708 0.0
C335 C 0.00649 0.181 0.21931 0.0
C336 C 0.11636 0.22533 0.18498 0.0
C337 C 0.96545 0.1574 0.18913 0.0
C338 C -0.00065 0.17062 0.15715 0.0
C339 C 0.1097 0.23231 0.12294 0.0
C340 C 0.18539 0.27531 0.12105 0.0
C341 C 0.07492 0.20774 0.15477 0.0
C342 C 0.2261 0.2865 0.15091 0.0
C343 C 0.19191 0.26177 0.18258 0.0
H344 H 0.86145 0.04018 0.59223 0.0
H345 H 0.70101 0.84414 0.54182 0.0
H346 H 0.74891 0.8987 0.48622 0.0
H347 H 0.82163 0.00883 0.45231 0.0
H348 H 0.98063 0.206 0.50237 0.0
H349 H 0.94948 0.14347 0.55737 0.0
C350 C 0.83798 0.00881 0.56911 0.0
C351 C 0.77654 0.93896 0.57128 0.0
C352 C 0.86518 0.04087 0.53701 0.0
C353 C 0.74763 0.89855 0.54102 0.0
C354 C 0.77486 0.92975 0.50909 0.0
C355 C 0.85081 0.03771 0.47509 0.0
C356 C 0.90189 0.11252 0.47333 0.0
C357 C 0.83143 0.00199 0.50681 0.0
C358 C 0.94011 0.14867 0.50302 0.0
C359 C 0.92203 0.11307 0.5346 0.0
H360 H 0.82754 0.87522 0.78548 0.0
H361 H 0.74745 -0.00254 0.84102 0.0
H362 H 0.80199 0.98612 0.89341 0.0
H363 H 0.84163 0.91261 0.92529 0.0
H364 H 0.91729 0.7864 0.86979 0.0
H365 H 0.89787 0.83037 0.8157 0.0
C366 C 0.82412 0.90144 0.80881 0.0
C367 C 0.78107 0.9344 0.8097 0.0
C368 C 0.85392 0.89301 0.8391 0.0
C369 C 0.77889 0.97017 0.83978 0.0
C370 C 0.80971 0.96332 0.86991 0.0
C371 C 0.85639 0.89681 0.90143 0.0
C372 C 0.87765 0.84374 0.90146 0.0
C373 C 0.84268 0.92031 0.87029 0.0
C374 C 0.89848 0.82541 0.87039 0.0
C375 C 0.88705 0.85023 0.83938 0.0
H376 H 0.9441 0.86145 0.2506 0.0
H377 H 0.13498 0.8853 0.19972 0.0
H378 H 0.0784 0.87119 0.14434 0.0
H379 H 0.96721 0.82735 0.11175 0.0
H380 H 0.77417 0.79809 0.16237 0.0
H381 H 0.83988 0.84152 0.21603 0.0
C382 C 0.97404 0.86552 0.22738 0.0
C383 C 0.04277 0.87213 0.22942 0.0
C384 C 0.94054 0.85568 0.19544 0.0
C385 C 0.08132 0.87862 0.199 0.0
C386 C 0.04897 0.8704 0.16722 0.0
C387 C 0.93988 0.83229 0.13426 0.0
C388 C 0.86535 0.80724 0.13328 0.0
C389 C 0.97729 0.85499 0.16529 0.0
C390 C 0.83124 0.81559 0.16253 0.0
C391 C 0.86868 0.84 0.19335 0.0
H392 H 0.19422 0.06628 0.53861 0.0
H393 H 0.08202 0.8757 0.6027 0.0
H394 H 0.02788 0.79987 0.55217 0.0
H395 H 0.03275 0.78494 0.49013 0.0
H396 H 0.15231 0.97489 0.42635 0.0
H397 H 0.18161 0.05374 0.4764 0.0
C398 C 0.15671 0.00838 0.54165 0.0
C399 C 0.14378 0.97639 0.57433 0.0
C400 C 0.12759 0.9648 0.51246 0.0
C401 C 0.09387 0.9016 0.57782 0.0
C402 C 0.06308 0.85809 0.5489 0.0
C403 C 0.06341 0.84368 0.48698 0.0
C404 C 0.09194 0.87382 0.45466 0.0
C405 C 0.08255 0.8886 0.51606 0.0
C406 C 0.13061 0.95012 0.45101 0.0
C407 C 0.14788 0.99531 0.47968 0.0
loop_
_geom_bond_atom_site_label_1
_geom_bond_atom_site_label_2
_geom_bond_distance
_geom_bond_site_symmetry_2
_ccdc_geom_bond_type
Zn0 O6 1.969 . S
Zn0 O7 1.965 1_556 S
Zn0 O11 2.024 . S
Zn0 O16 1.969 . S
Zn1 O8 1.969 . S
Zn1 O14 1.969 . S
Zn1 O15 1.965 . S
Zn1 O17 2.024 . S
C2 O3 1.229 . S
C2 O11 1.058 . S
O3 C2 1.229 . S
C4 O5 1.229 . S
C4 O17 1.058 . S
O5 C4 1.229 . S
O6 Zn0 1.969 . S
O6 C9 1.267 . S
O7 Zn0 1.965 1_554 S
O7 C18 1.260 . S
O8 Zn1 1.969 . S
O8 C18 1.258 . S
C9 O6 1.267 . S
C9 O10 1.228 . S
O10 C9 1.228 . S
O11 Zn0 2.024 . S
O11 C2 1.058 . S
C12 O13 1.228 . S
C12 O14 1.267 . S
O13 C12 1.228 . S
O14 Zn1 1.969 . S
O14 C12 1.267 . S
O15 Zn1 1.965 . S
O15 C19 1.260 . S
O16 Zn0 1.969 . S
O16 C19 1.258 1_556 S
O17 Zn1 2.024 . S
O17 C4 1.058 . S
C18 O7 1.260 . S
C18 O8 1.258 . S
C19 O15 1.260 . S
C19 O16 1.258 1_554 S
Zn20 O26 1.969 . S
Zn20 O27 1.965 . S
Zn20 O31 2.024 . S
Zn20 O36 1.969 . S
Zn21 O28 1.969 . S
Zn21 O34 1.969 . S
Zn21 O35 1.965 . S
Zn21 O37 2.024 . S
C22 O23 1.229 . S
C22 O31 1.058 . S
O23 C22 1.229 . S
C24 O25 1.229 . S
C24 O37 1.058 . S
O25 C24 1.229 . S
O26 Zn20 1.969 . S
O26 C29 1.267 . S
O27 Zn20 1.965 . S
O27 C38 1.260 . S
O28 Zn21 1.969 . S
O28 C38 1.258 . S
C29 O26 1.267 . S
C29 O30 1.228 . S
O30 C29 1.228 . S
O31 Zn20 2.024 . S
O31 C22 1.058 . S
C32 O33 1.228 . S
C32 O34 1.267 . S
O33 C32 1.228 . S
O34 Zn21 1.969 . S
O34 C32 1.267 . S
O35 Zn21 1.965 . S
O35 C39 1.260 . S
O36 Zn20 1.969 . S
O36 C39 1.258 . S
O37 Zn21 2.024 . S
O37 C24 1.058 . S
C38 O27 1.260 . S
C38 O28 1.258 . S
C39 O35 1.260 . S
C39 O36 1.258 . S
Zn40 O46 1.969 . S
Zn40 O47 1.965 . S
Zn40 O51 2.024 . S
Zn40 O56 1.969 . S
Zn41 O48 1.969 . S
Zn41 O54 1.969 . S
Zn41 O55 1.965 . S
Zn41 O57 2.024 . S
C42 O43 1.229 . S
C42 O51 1.058 . S
O43 C42 1.229 . S
C44 O45 1.229 . S
C44 O57 1.058 . S
O45 C44 1.229 . S
O46 Zn40 1.969 . S
O46 C49 1.267 . S
O47 Zn40 1.965 . S
O47 C58 1.260 . S
O48 Zn41 1.969 . S
O48 C58 1.258 . S
C49 O46 1.267 . S
C49 O50 1.228 . S
O50 C49 1.228 . S
O51 Zn40 2.024 . S
O51 C42 1.058 . S
C52 O53 1.228 . S
C52 O54 1.267 . S
O53 C52 1.228 . S
O54 Zn41 1.969 . S
O54 C52 1.267 . S
O55 Zn41 1.965 . S
O55 C59 1.260 . S
O56 Zn40 1.969 . S
O56 C59 1.258 . S
O57 Zn41 2.024 . S
O57 C44 1.058 . S
C58 O47 1.260 . S
C58 O48 1.258 . S
C59 O55 1.260 . S
C59 O56 1.258 . S
Zn60 O66 1.969 . S
Zn60 O67 1.965 1_556 S
Zn60 O71 2.024 . S
Zn60 O76 1.969 . S
Zn61 O68 1.969 . S
Zn61 O74 1.969 . S
Zn61 O75 1.965 . S
Zn61 O77 2.024 . S
C62 O63 1.229 . S
C62 O71 1.058 . S
O63 C62 1.229 . S
C64 O65 1.229 . S
C64 O77 1.058 . S
O65 C64 1.229 . S
O66 Zn60 1.969 . S
O66 C69 1.267 . S
O67 Zn60 1.965 1_554 S
O67 C78 1.260 . S
O68 Zn61 1.969 . S
O68 C78 1.258 . S
C69 O66 1.267 . S
C69 O70 1.228 . S
O70 C69 1.228 . S
O71 Zn60 2.024 . S
O71 C62 1.058 . S
C72 O73 1.228 . S
C72 O74 1.267 . S
O73 C72 1.228 . S
O74 Zn61 1.969 . S
O74 C72 1.267 . S
O75 Zn61 1.965 . S
O75 C79 1.260 . S
O76 Zn60 1.969 . S
O76 C79 1.258 1_556 S
O77 Zn61 2.024 . S
O77 C64 1.058 . S
C78 O67 1.260 . S
C78 O68 1.258 . S
C79 O75 1.260 . S
C79 O76 1.258 1_554 S
Zn80 O86 1.969 . S
Zn80 O87 1.965 . S
Zn80 O91 2.024 . S
Zn80 O96 1.969 . S
Zn81 O88 1.969 . S
Zn81 O94 1.969 . S
Zn81 O95 1.965 . S
Zn81 O97 2.024 . S
C82 O83 1.229 . S
C82 O91 1.058 . S
O83 C82 1.229 . S
C84 O85 1.229 . S
C84 O97 1.058 . S
O85 C84 1.229 . S
O86 Zn80 1.969 . S
O86 C89 1.267 . S
O87 Zn80 1.965 . S
O87 C98 1.260 . S
O88 Zn81 1.969 . S
O88 C98 1.258 . S
C89 O86 1.267 . S
C89 O90 1.228 . S
O90 C89 1.228 . S
O91 Zn80 2.024 . S
O91 C82 1.058 . S
C92 O93 1.228 . S
C92 O94 1.267 . S
O93 C92 1.228 . S
O94 Zn81 1.969 . S
O94 C92 1.267 . S
O95 Zn81 1.965 . S
O95 C99 1.260 . S
O96 Zn80 1.969 . S
O96 C99 1.258 . S
O97 Zn81 2.024 . S
O97 C84 1.058 . S
C98 O87 1.260 . S
C98 O88 1.258 . S
C99 O95 1.260 . S
C99 O96 1.258 . S
Zn100 O106 1.969 . S
Zn100 O107 1.965 . S
Zn100 O111 2.024 . S
Zn100 O116 1.969 . S
Zn101 O108 1.969 . S
Zn101 O114 1.969 . S
Zn101 O115 1.965 . S
Zn101 O117 2.024 . S
C102 O103 1.229 . S
C102 O111 1.058 . S
O103 C102 1.229 . S
C104 O105 1.229 . S
C104 O117 1.058 . S
O105 C104 1.229 . S
O106 Zn100 1.969 . S
O106 C109 1.267 . S
O107 Zn100 1.965 . S
O107 C118 1.260 . S
O108 Zn101 1.969 . S
O108 C118 1.258 . S
C109 O106 1.267 . S
C109 O110 1.228 . S
O110 C109 1.228 . S
O111 Zn100 2.024 . S
O111 C102 1.058 . S
C112 O113 1.228 . S
C112 O114 1.267 . S
O113 C112 1.228 . S
O114 Zn101 1.969 . S
O114 C112 1.267 . S
O115 Zn101 1.965 . S
O115 C119 1.260 . S
O116 Zn100 1.969 . S
O116 C119 1.258 . S
O117 Zn101 2.024 . S
O117 C104 1.058 . S
C118 O107 1.260 . S
C118 O108 1.258 . S
C119 O115 1.260 . S
C119 O116 1.258 . S
H120 C126 0.930 . S
H121 C129 0.930 . S
H122 C130 0.930 . S
H123 C131 0.930 . S
H124 C134 0.930 . S
H125 C135 0.930 . S
C126 H120 0.930 . S
C126 C127 1.355 . S
C126 C128 1.415 . S
C127 C126 1.355 . S
C127 C129 1.419 . S
C128 C126 1.415 . S
C128 C133 1.425 . S
C128 C135 1.409 . S
C129 H121 0.930 . S
C129 C127 1.419 . S
C129 C130 1.362 . S
C130 H122 0.930 . S
C130 C129 1.362 . S
C130 C133 1.409 . S
C131 H123 0.930 . S
C131 C132 1.355 . S
C131 C133 1.415 . S
C132 C131 1.355 . S
C132 C134 1.419 . S
C133 C128 1.425 . S
C133 C130 1.409 . S
C133 C131 1.415 . S
C134 H124 0.930 . S
C134 C132 1.419 . S
C134 C135 1.362 . S
C135 H125 0.930 . S
C135 C128 1.409 . S
C135 C134 1.362 . S
H136 C142 0.930 . S
H137 C145 0.930 . S
H138 C146 0.930 . S
H139 C147 0.930 . S
H140 C150 0.930 . S
H141 C151 0.930 . S
C142 H136 0.930 . S
C142 C143 1.355 . S
C142 C144 1.415 . S
C143 C142 1.355 . S
C143 C145 1.419 . S
C144 C142 1.415 . S
C144 C149 1.425 . S
C144 C151 1.409 . S
C145 H137 0.930 . S
C145 C143 1.419 . S
C145 C146 1.362 . S
C146 H138 0.930 . S
C146 C145 1.362 . S
C146 C149 1.409 . S
C147 H139 0.930 . S
C147 C148 1.355 . S
C147 C149 1.415 . S
C148 C147 1.355 . S
C148 C150 1.419 . S
C149 C144 1.425 . S
C149 C146 1.409 . S
C149 C147 1.415 . S
C150 H140 0.930 . S
C150 C148 1.419 . S
C150 C151 1.362 . S
C151 H141 0.930 . S
C151 C144 1.409 . S
C151 C150 1.362 . S
H152 C158 0.930 . S
H153 C161 0.930 . S
H154 C162 0.930 . S
H155 C163 0.930 . S
H156 C166 0.930 . S
H157 C167 0.930 . S
C158 H152 0.930 . S
C158 C159 1.355 . S
C158 C160 1.415 . S
C159 C158 1.355 . S
C159 C161 1.419 . S
C160 C158 1.415 . S
C160 C165 1.425 . S
C160 C167 1.409 . S
C161 H153 0.930 . S
C161 C159 1.419 . S
C161 C162 1.362 . S
C162 H154 0.930 . S
C162 C161 1.362 . S
C162 C165 1.409 . S
C163 H155 0.930 . S
C163 C164 1.355 . S
C163 C165 1.415 . S
C164 C163 1.355 . S
C164 C166 1.419 . S
C165 C160 1.425 . S
C165 C162 1.409 . S
C165 C163 1.415 . S
C166 H156 0.930 . S
C166 C164 1.419 . S
C166 C167 1.362 . S
C167 H157 0.930 . S
C167 C160 1.409 . S
C167 C166 1.362 . S
H168 C174 0.930 . S
H169 C177 0.930 . S
H170 C178 0.930 . S
H171 C179 0.930 . S
H172 C182 0.930 . S
H173 C183 0.930 . S
C174 H168 0.930 . S
C174 C175 1.355 . S
C174 C176 1.415 . S
C175 C174 1.355 . S
C175 C177 1.419 . S
C176 C174 1.415 . S
C176 C181 1.425 . S
C176 C183 1.409 . S
C177 H169 0.930 . S
C177 C175 1.419 . S
C177 C178 1.362 . S
C178 H170 0.930 . S
C178 C177 1.362 . S
C178 C181 1.409 . S
C179 H171 0.930 . S
C179 C180 1.355 . S
C179 C181 1.415 . S
C180 C179 1.355 . S
C180 C182 1.419 . S
C181 C176 1.425 . S
C181 C178 1.409 . S
C181 C179 1.415 . S
C182 H172 0.930 . S
C182 C180 1.419 . S
C182 C183 1.362 . S
C183 H173 0.930 . S
C183 C176 1.409 . S
C183 C182 1.362 . S
H184 C190 0.930 . S
H185 C193 0.930 . S
H186 C194 0.930 . S
H187 C195 0.930 . S
H188 C198 0.930 . S
H189 C199 0.930 . S
C190 H184 0.930 . S
C190 C191 1.355 . S
C190 C192 1.415 . S
C191 C190 1.355 . S
C191 C193 1.419 . S
C192 C190 1.415 . S
C192 C197 1.425 . S
C192 C199 1.409 . S
C193 H185 0.930 . S
C193 C191 1.419 . S
C193 C194 1.362 . S
C194 H186 0.930 . S
C194 C193 1.362 . S
C194 C197 1.409 . S
C195 H187 0.930 . S
C195 C196 1.355 . S
C195 C197 1.415 . S
C196 C195 1.355 . S
C196 C198 1.419 . S
C197 C192 1.425 . S
C197 C194 1.409 . S
C197 C195 1.415 . S
C198 H188 0.930 . S
C198 C196 1.419 . S
C198 C199 1.362 . S
C199 H189 0.930 . S
C199 C192 1.409 . S
C199 C198 1.362 . S
H200 C206 0.930 . S
H201 C209 0.930 . S
H202 C210 0.930 . S
H203 C211 0.930 . S
H204 C214 0.930 . S
H205 C215 0.930 . S
C206 H200 0.930 . S
C206 C207 1.355 . S
C206 C208 1.415 . S
C207 C206 1.355 . S
C207 C209 1.419 . S
C208 C206 1.415 . S
C208 C213 1.425 . S
C208 C215 1.409 . S
C209 H201 0.930 . S
C209 C207 1.419 . S
C209 C210 1.362 . S
C210 H202 0.930 . S
C210 C209 1.362 . S
C210 C213 1.409 . S
C211 H203 0.930 . S
C211 C212 1.355 . S
C211 C213 1.415 . S
C212 C211 1.355 . S
C212 C214 1.419 . S
C213 C208 1.425 . S
C213 C210 1.409 . S
C213 C211 1.415 . S
C214 H204 0.930 . S
C214 C212 1.419 . S
C214 C215 1.362 . S
C215 H205 0.930 . S
C215 C208 1.409 . S
C215 C214 1.362 . S
H216 C222 0.930 1_556 S
H217 C225 0.930 . S
H218 C226 0.930 . S
H219 C227 0.930 . S
H220 C230 0.930 1_556 S
H221 C231 0.930 . S
C222 H216 0.930 1_554 S
C222 C223 1.355 . S
C222 C224 1.415 . S
C223 C222 1.355 . S
C223 C225 1.419 . S
C224 C222 1.415 . S
C224 C229 1.425 . S
C224 C231 1.409 1_554 S
C225 H217 0.930 . S
C225 C223 1.419 . S
C225 C226 1.362 . S
C226 H218 0.930 . S
C226 C225 1.362 . S
C226 C229 1.409 . S
C227 H219 0.930 . S
C227 C228 1.355 . S
C227 C229 1.415 . S
C228 C227 1.355 . S
C228 C230 1.419 . S
C229 C224 1.425 . S
C229 C226 1.409 . S
C229 C227 1.415 . S
C230 H220 0.930 1_554 S
C230 C228 1.419 . S
C230 C231 1.362 1_554 S
C231 H221 0.930 . S
C231 C224 1.409 1_556 S
C231 C230 1.362 1_556 S
H232 C238 0.930 . S
H233 C241 0.930 . S
H234 C242 0.930 . S
H235 C243 0.930 . S
H236 C246 0.930 . S
H237 C247 0.930 . S
C238 H232 0.930 . S
C238 C239 1.355 . S
C238 C240 1.415 . S
C239 C238 1.355 . S
C239 C241 1.419 1_455 S
C240 C238 1.415 . S
C240 C245 1.425 1_455 S
C240 C247 1.409 . S
C241 H233 0.930 . S
C241 C239 1.419 1_655 S
C241 C242 1.362 . S
C242 H234 0.930 . S
C242 C241 1.362 . S
C242 C245 1.409 . S
C243 H235 0.930 . S
C243 C244 1.355 . S
C243 C245 1.415 . S
C244 C243 1.355 . S
C244 C246 1.419 1_655 S
C245 C240 1.425 1_655 S
C245 C242 1.409 . S
C245 C243 1.415 . S
C246 H236 0.930 . S
C246 C244 1.419 1_455 S
C246 C247 1.362 . S
C247 H237 0.930 . S
C247 C240 1.409 . S
C247 C246 1.362 . S
H248 C254 0.930 . S
H249 C257 0.930 . S
H250 C258 0.930 . S
H251 C259 0.930 . S
H252 C262 0.930 . S
H253 C263 0.930 . S
C254 H248 0.930 . S
C254 C255 1.355 1_565 S
C254 C256 1.415 . S
C255 C254 1.355 1_545 S
C255 C257 1.419 . S
C256 C254 1.415 . S
C256 C261 1.425 1_565 S
C256 C263 1.409 . S
C257 H249 0.930 . S
C257 C255 1.419 . S
C257 C258 1.362 . S
C258 H250 0.930 . S
C258 C257 1.362 . S
C258 C261 1.409 . S
C259 H251 0.930 . S
C259 C260 1.355 1_545 S
C259 C261 1.415 . S
C260 C259 1.355 1_565 S
C260 C262 1.419 . S
C261 C256 1.425 1_545 S
C261 C258 1.409 . S
C261 C259 1.415 . S
C262 H252 0.930 . S
C262 C260 1.419 . S
C262 C263 1.362 . S
C263 H253 0.930 . S
C263 C256 1.409 . S
C263 C262 1.362 . S
H264 C270 0.930 . S
H265 C273 0.930 . S
H266 C274 0.930 . S
H267 C275 0.930 . S
H268 C278 0.930 . S
H269 C279 0.930 . S
C270 H264 0.930 . S
C270 C271 1.355 . S
C270 C272 1.415 . S
C271 C270 1.355 . S
C271 C273 1.419 . S
C272 C270 1.415 . S
C272 C277 1.425 . S
C272 C279 1.409 . S
C273 H265 0.930 . S
C273 C271 1.419 . S
C273 C274 1.362 . S
C274 H266 0.930 . S
C274 C273 1.362 . S
C274 C277 1.409 . S
C275 H267 0.930 . S
C275 C276 1.355 . S
C275 C277 1.415 . S
C276 C275 1.355 . S
C276 C278 1.419 . S
C277 C272 1.425 . S
C277 C274 1.409 . S
C277 C275 1.415 . S
C278 H268 0.930 . S
C278 C276 1.419 . S
C278 C279 1.362 . S
C279 H269 0.930 . S
C279 C272 1.409 . S
C279 C278 1.362 . S
H280 C286 0.930 1_655 S
H281 C289 0.930 . S
H282 C290 0.930 . S
H283 C291 0.930 1_455 S
H284 C294 0.930 . S
H285 C295 0.930 . S
C286 H280 0.930 1_455 S
C286 C287 1.355 1_556 S
C286 C288 1.415 1_455 S
C287 C286 1.355 1_554 S
C287 C289 1.419 . S
C288 C286 1.415 1_655 S
C288 C293 1.425 1_656 S
C288 C295 1.409 . S
C289 H281 0.930 . S
C289 C287 1.419 . S
C289 C290 1.362 . S
C290 H282 0.930 . S
C290 C289 1.362 . S
C290 C293 1.409 . S
C291 H283 0.930 1_655 S
C291 C292 1.355 . S
C291 C293 1.415 1_655 S
C292 C291 1.355 . S
C292 C294 1.419 1_554 S
C293 C288 1.425 1_454 S
C293 C290 1.409 . S
C293 C291 1.415 1_455 S
C294 H284 0.930 . S
C294 C292 1.419 1_556 S
C294 C295 1.362 . S
C295 H285 0.930 . S
C295 C288 1.409 . S
C295 C294 1.362 . S
H296 C302 0.930 1_545 S
H297 C305 0.930 . S
H298 C306 0.930 . S
H299 C307 0.930 1_565 S
H300 C310 0.930 . S
H301 C311 0.930 . S
C302 H296 0.930 1_565 S
C302 C303 1.355 . S
C302 C304 1.415 1_565 S
C303 C302 1.355 . S
C303 C305 1.419 . S
C304 C302 1.415 1_545 S
C304 C309 1.425 1_545 S
C304 C311 1.409 . S
C305 H297 0.930 . S
C305 C303 1.419 . S
C305 C306 1.362 . S
C306 H298 0.930 . S
C306 C305 1.362 . S
C306 C309 1.409 . S
C307 H299 0.930 1_545 S
C307 C308 1.355 . S
C307 C309 1.415 1_545 S
C308 C307 1.355 . S
C308 C310 1.419 . S
C309 C304 1.425 1_565 S
C309 C306 1.409 . S
C309 C307 1.415 1_565 S
C310 H300 0.930 . S
C310 C308 1.419 . S
C310 C311 1.362 . S
C311 H301 0.930 . S
C311 C304 1.409 . S
C311 C310 1.362 . S
H312 C318 0.930 . S
H313 C321 0.930 . S
H314 C322 0.930 . S
H315 C323 0.930 . S
H316 C326 0.930 . S
H317 C327 0.930 . S
C318 H312 0.930 . S
C318 C319 1.355 . S
C318 C320 1.415 . S
C319 C318 1.355 . S
C319 C321 1.419 . S
C320 C318 1.415 . S
C320 C325 1.425 . S
C320 C327 1.409 . S
C321 H313 0.930 . S
C321 C319 1.419 . S
C321 C322 1.362 . S
C322 H314 0.930 . S
C322 C321 1.362 . S
C322 C325 1.409 . S
C323 H315 0.930 . S
C323 C324 1.355 . S
C323 C325 1.415 . S
C324 C323 1.355 . S
C324 C326 1.419 . S
C325 C320 1.425 . S
C325 C322 1.409 . S
C325 C323 1.415 . S
C326 H316 0.930 . S
C326 C324 1.419 . S
C326 C327 1.362 . S
C327 H317 0.930 . S
C327 C320 1.409 . S
C327 C326 1.362 . S
H328 C334 0.930 . S
H329 C337 0.930 . S
H330 C338 0.930 . S
H331 C339 0.930 . S
H332 C342 0.930 . S
H333 C343 0.930 . S
C334 H328 0.930 . S
C334 C335 1.355 1_455 S
C334 C336 1.415 . S
C335 C334 1.355 1_655 S
C335 C337 1.419 . S
C336 C334 1.415 . S
C336 C341 1.425 . S
C336 C343 1.409 . S
C337 H329 0.930 . S
C337 C335 1.419 . S
C337 C338 1.362 . S
C338 H330 0.930 . S
C338 C337 1.362 . S
C338 C341 1.409 1_655 S
C339 H331 0.930 . S
C339 C340 1.355 . S
C339 C341 1.415 . S
C340 C339 1.355 . S
C340 C342 1.419 . S
C341 C336 1.425 . S
C341 C338 1.409 1_455 S
C341 C339 1.415 . S
C342 H332 0.930 . S
C342 C340 1.419 . S
C342 C343 1.362 . S
C343 H333 0.930 . S
C343 C336 1.409 . S
C343 C342 1.362 . S
H344 C350 0.930 . S
H345 C353 0.930 . S
H346 C354 0.930 . S
H347 C355 0.930 . S
H348 C358 0.930 . S
H349 C359 0.930 . S
C350 H344 0.930 . S
C350 C351 1.355 1_545 S
C350 C352 1.415 . S
C351 C350 1.355 1_565 S
C351 C353 1.419 . S
C352 C350 1.415 . S
C352 C357 1.425 . S
C352 C359 1.409 . S
C353 H345 0.930 . S
C353 C351 1.419 . S
C353 C354 1.362 . S
C354 H346 0.930 . S
C354 C353 1.362 . S
C354 C357 1.409 1_565 S
C355 H347 0.930 . S
C355 C356 1.355 . S
C355 C357 1.415 . S
C356 C355 1.355 . S
C356 C358 1.419 . S
C357 C352 1.425 . S
C357 C354 1.409 1_545 S
C357 C355 1.415 . S
C358 H348 0.930 . S
C358 C356 1.419 . S
C358 C359 1.362 . S
C359 H349 0.930 . S
C359 C352 1.409 . S
C359 C358 1.362 . S
H360 C366 0.930 . S
H361 C369 0.930 . S
H362 C370 0.930 . S
H363 C371 0.930 . S
H364 C374 0.930 . S
H365 C375 0.930 . S
C366 H360 0.930 . S
C366 C367 1.355 . S
C366 C368 1.415 . S
C367 C366 1.355 . S
C367 C369 1.419 . S
C368 C366 1.415 . S
C368 C373 1.425 . S
C368 C375 1.409 . S
C369 H361 0.930 . S
C369 C367 1.419 . S
C369 C370 1.362 . S
C370 H362 0.930 . S
C370 C369 1.362 . S
C370 C373 1.409 . S
C371 H363 0.930 . S
C371 C372 1.355 . S
C371 C373 1.415 . S
C372 C371 1.355 . S
C372 C374 1.419 . S
C373 C368 1.425 . S
C373 C370 1.409 . S
C373 C371 1.415 . S
C374 H364 0.930 . S
C374 C372 1.419 . S
C374 C375 1.362 . S
C375 H365 0.930 . S
C375 C368 1.409 . S
C375 C374 1.362 . S
H376 C382 0.930 . S
H377 C385 0.930 . S
H378 C386 0.930 . S
H379 C387 0.930 . S
H380 C390 0.930 . S
H381 C391 0.930 . S
C382 H376 0.930 . S
C382 C383 1.355 1_655 S
C382 C384 1.415 . S
C383 C382 1.355 1_455 S
C383 C385 1.419 . S
C384 C382 1.415 . S
C384 C389 1.425 . S
C384 C391 1.409 . S
C385 H377 0.930 . S
C385 C383 1.419 . S
C385 C386 1.362 . S
C386 H378 0.930 . S
C386 C385 1.362 . S
C386 C389 1.409 1_455 S
C387 H379 0.930 . S
C387 C388 1.355 . S
C387 C389 1.415 . S
C388 C387 1.355 . S
C388 C390 1.419 . S
C389 C384 1.425 . S
C389 C386 1.409 1_655 S
C389 C387 1.415 . S
C390 H380 0.930 . S
C390 C388 1.419 . S
C390 C391 1.362 . S
C391 H381 0.930 . S
C391 C384 1.409 . S
C391 C390 1.362 . S
H392 C398 0.930 . S
H393 C401 0.930 . S
H394 C402 0.930 . S
H395 C403 0.930 . S
H396 C406 0.930 . S
H397 C407 0.930 . S
C398 H392 0.930 . S
C398 C399 1.355 . S
C398 C400 1.415 . S
C399 C398 1.355 . S
C399 C401 1.419 1_545 S
C400 C398 1.415 . S
C400 C405 1.425 1_545 S
C400 C407 1.409 . S
C401 H393 0.930 . S
C401 C399 1.419 1_565 S
C401 C402 1.362 . S
C402 H394 0.930 . S
C402 C401 1.362 . S
C402 C405 1.409 . S
C403 H395 0.930 . S
C403 C404 1.355 . S
C403 C405 1.415 . S
C404 C403 1.355 . S
C404 C406 1.419 . S
C405 C400 1.425 1_565 S
C405 C402 1.409 . S
C405 C403 1.415 . S
C406 H396 0.930 . S
C406 C404 1.419 . S
C406 C407 1.362 1_565 S
C407 H397 0.930 . S
C407 C400 1.409 . S
C407 C406 1.362 1_545 S
C127 C82 0.969 . S
C132 C12 1.088 . S
C143 C102 0.996 . S
C148 C32 1.115 . S
C159 C2 0.973 . S
C164 C52 1.051 . S
C175 C22 0.969 . S
C180 C72 1.087 . S
C191 C42 1.109 . S
C196 C92 1.097 . S
C207 C62 1.111 . S
C212 C112 1.111 . S
C223 C18 1.310 . S
C228 C78 1.317 . S
C239 C98 1.319 . S
C244 C38 1.317 . S
C255 C118 1.239 . S
C260 C58 1.246 . S
C271 C59 1.307 . S
C276 C119 1.298 . S
C287 C19 1.210 . S
C292 C79 1.209 . S
C303 C99 1.223 . S
C308 C39 1.236 . S
C319 C104 0.932 . S
C324 C9 1.093 . S
C335 C29 1.089 . S
C340 C4 0.935 . S
C351 C49 1.009 . S
C356 C24 1.049 . S
C367 C44 0.937 . S
C372 C69 1.087 . S
C383 C89 1.009 . S
C388 C64 1.047 . S
C399 C109 1.129 . S
C404 C84 0.970 . S
