# Generated by pormake.
# Topology smc, (6)-cn, num edge types: 1
# Building blocks:
#     Node 0, Type 0, BuildingBlock: OJICUG_clean_sbu_0, # of connection points: 6
#     Node 1, Type 0, BuildingBlock: OJICUG_clean_sbu_0, # of connection points: 6
#     Node 2, Type 0, BuildingBlock: OJICUG_clean_sbu_0, # of connection points: 6
#     Node 3, Type 0, BuildingBlock: OJICUG_clean_sbu_0, # of connection points: 6
#     Node 4, Type 0, BuildingBlock: OJICUG_clean_sbu_0, # of connection points: 6
#     Node 5, Type 0, BuildingBlock: OJICUG_clean_sbu_0, # of connection points: 6
#     Node 6, Type 0, BuildingBlock: OJICUG_clean_sbu_0, # of connection points: 6
#     Node 7, Type 0, BuildingBlock: OJICUG_clean_sbu_0, # of connection points: 6
#     Node 8, Type 0, BuildingBlock: OJICUG_clean_sbu_0, # of connection points: 6
#     Edge 9, Type (0, 0), BuildingBlock: XUDNAN_clean_linker_2, # of connection points: 2
#     Edge 10, Type (0, 0), BuildingBlock: XUDNAN_clean_linker_2, # of connection points: 2
#     Edge 11, Type (0, 0), BuildingBlock: XUDNAN_clean_linker_2, # of connection points: 2
#     Edge 12, Type (0, 0), BuildingBlock: XUDNAN_clean_linker_2, # of connection points: 2
#     Edge 13, Type (0, 0), BuildingBlock: XUDNAN_clean_linker_2, # of connection points: 2
#     Edge 14, Type (0, 0), BuildingBlock: XUDNAN_clean_linker_2, # of connection points: 2
#     Edge 15, Type (0, 0), BuildingBlock: XUDNAN_clean_linker_2, # of connection points: 2
#     Edge 16, Type (0, 0), BuildingBlock: XUDNAN_clean_linker_2, # of connection points: 2
#     Edge 17, Type (0, 0), BuildingBlock: XUDNAN_clean_linker_2, # of connection points: 2
#     Edge 18, Type (0, 0), BuildingBlock: XUDNAN_clean_linker_2, # of connection points: 2
#     Edge 19, Type (0, 0), BuildingBlock: XUDNAN_clean_linker_2, # of connection points: 2
#     Edge 20, Type (0, 0), BuildingBlock: XUDNAN_clean_linker_2, # of connection points: 2
#     Edge 21, Type (0, 0), BuildingBlock: XUDNAN_clean_linker_2, # of connection points: 2
#     Edge 22, Type (0, 0), BuildingBlock: XUDNAN_clean_linker_2, # of connection points: 2
#     Edge 23, Type (0, 0), BuildingBlock: XUDNAN_clean_linker_2, # of connection points: 2
#     Edge 24, Type (0, 0), BuildingBlock: XUDNAN_clean_linker_2, # of connection points: 2
#     Edge 25, Type (0, 0), BuildingBlock: XUDNAN_clean_linker_2, # of connection points: 2
#     Edge 26, Type (0, 0), BuildingBlock: XUDNAN_clean_linker_2, # of connection points: 2
#     Edge 27, Type (0, 0), BuildingBlock: XUDNAN_clean_linker_2, # of connection points: 2
#     Edge 28, Type (0, 0), BuildingBlock: XUDNAN_clean_linker_2, # of connection points: 2
#     Edge 29, Type (0, 0), BuildingBlock: XUDNAN_clean_linker_2, # of connection points: 2
#     Edge 30, Type (0, 0), BuildingBlock: XUDNAN_clean_linker_2, # of connection points: 2
#     Edge 31, Type (0, 0), BuildingBlock: XUDNAN_clean_linker_2, # of connection points: 2
#     Edge 32, Type (0, 0), BuildingBlock: XUDNAN_clean_linker_2, # of connection points: 2
#     Edge 33, Type (0, 0), BuildingBlock: XUDNAN_clean_linker_2, # of connection points: 2
#     Edge 34, Type (0, 0), BuildingBlock: XUDNAN_clean_linker_2, # of connection points: 2
#     Edge 35, Type (0, 0), BuildingBlock: XUDNAN_clean_linker_2, # of connection points: 2
# Relax obj value: 0.196
# Max RMSD: 0.270
# Mean RMSD: 0.270
data_MOF--net-smc--node1-OJICUG_clean_sbu_0--edge1-XUDNAN_clean_linker_2
_symmetry_space_group_name_H-M    P1
_symmetry_Int_Tables_number       1
_symmetry_cell_setting            triclinic
loop_
_symmetry_equiv_pos_as_xyz
'x, y, z'
_cell_length_a     30.329506
_cell_length_b     30.475
_cell_length_c     45.934739
_cell_angle_alpha  89.844547
_cell_angle_beta   90.09841
_cell_angle_gamma 119.96359
loop_
_atom_site_label
_atom_site_type_symbol
_atom_site_fract_x
_atom_site_fract_y
_atom_site_fract_z
_atom_type_partial_charge
Sc0 Sc 0.03501 0.4812 0.9605 0.0
Sc1 Sc 1.00688 0.37229 -0.00229 0.0
Sc2 Sc 0.94355 0.43751 0.0132 0.0
O3 O 0.99572 0.43035 0.99121 0.0
C4 C 0.04231 0.54968 0.01012 0.0
C5 C 0.11639 0.45486 0.98576 0.0
C6 C 0.98917 0.40144 0.06197 0.0
C7 C 0.00829 0.38427 0.92834 0.0
C8 C 0.93 0.48024 0.9584 0.0
C9 C 0.88782 0.31946 -0.00112 0.0
O10 O 0.06654 0.53598 -0.00649 0.0
O11 O 0.08683 0.42279 0.00434 0.0
O12 O 0.97403 0.43152 0.0537 0.0
O13 O 1.00356 0.42354 0.9283 0.0
O14 O 0.9108 0.43974 0.97279 0.0
O15 O 0.92796 0.32012 0.99041 0.0
O16 O 0.97764 0.50421 0.95347 0.0
O17 O 0.01758 0.36656 0.95136 0.0
O18 O 0.88858 0.35653 0.01224 0.0
O19 O 0.09971 0.46987 0.96475 0.0
O20 O 0.99459 0.52122 0.01554 0.0
O21 O 0.99692 0.3735 0.04446 0.0
Sc22 Sc 0.53791 0.54972 0.95884 0.0
Sc23 Sc 0.64099 0.64682 -0.00442 0.0
Sc24 Sc 0.56411 0.52915 0.02834 0.0
O25 O 0.58274 0.57584 -0.00597 0.0
C26 C 0.46002 0.50778 0.00734 0.0
C27 C 0.54597 0.65593 0.9743 0.0
C28 C 0.61006 0.63396 0.06188 0.0
C29 C 0.64231 0.62657 0.92845 0.0
C30 C 0.54543 0.45651 0.97405 0.0
C31 C 0.68336 0.57599 0.0187 0.0
O32 O 0.47565 0.49625 0.98489 0.0
O33 O 0.59295 0.67605 0.98113 0.0
O34 O 0.58918 0.58618 0.06135 0.0
O35 O 0.59477 0.59613 0.92721 0.0
O36 O 0.5377 0.46397 0.00038 0.0
O37 O 0.68946 0.61874 0.01045 0.0
O38 O 0.55637 0.48961 0.95398 0.0
O39 O 0.66542 0.64394 0.95231 0.0
O40 O 0.63998 0.5379 0.02551 0.0
O41 O 0.51895 0.60948 0.9664 0.0
O42 O 0.48882 0.52383 0.02962 0.0
O43 O 0.62655 0.66086 0.03914 0.0
Sc44 Sc 0.42568 0.95846 0.96739 0.0
Sc45 Sc 0.36197 0.01176 0.00326 0.0
Sc46 Sc 0.46872 0.01438 0.03487 0.0
O47 O 0.41784 0.99417 0.00208 0.0
C48 C 0.45227 0.90795 0.02071 0.0
C49 C 0.30719 0.89631 0.98298 0.0
C50 C 0.36983 0.99364 0.07049 0.0
C51 C 0.38486 0.02409 0.93554 0.0
C52 C 0.53832 0.03953 0.98021 0.0
C53 C 0.46272 0.1139 0.02025 0.0
O54 O 0.45056 0.91675 -0.00618 0.0
O55 O 0.30624 0.93538 -0.00804 0.0
O56 O 0.41596 0.00454 0.06911 0.0
O57 O 0.40228 0.99403 0.9354 0.0
O58 O 0.52969 0.02646 0.00668 0.0
O59 O 0.41538 0.08882 0.0143 0.0
O60 O 0.5035 0.02049 0.96091 0.0
O61 O 0.37124 0.03633 0.95874 0.0
O62 O 0.48888 0.09315 0.02753 0.0
O63 O 0.34766 0.89728 0.97398 0.0
O64 O 0.4517 0.93646 0.04088 0.0
O65 O 0.34416 0.99082 0.04806 0.0
Sc66 Sc 0.71514 0.82118 0.31449 0.0
Sc67 Sc 0.66312 0.69306 0.3286 0.0
Sc68 Sc 0.60522 0.76032 0.35288 0.0
O69 O 0.66086 0.75685 0.33155 0.0
C70 C 0.70383 0.86828 0.36637 0.0
C71 C 0.78074 0.77092 0.33489 0.0
C72 C 0.63549 0.70146 0.39596 0.0
C73 C 0.69099 0.7438 0.26441 0.0
C74 C 0.61137 0.82384 0.30251 0.0
C75 C 0.54464 0.64906 0.32562 0.0
O76 O 0.729 0.84863 0.35751 0.0
O77 O 0.74233 0.72807 0.3406 0.0
O78 O 0.62516 0.73669 0.39166 0.0
O79 O 0.70136 0.78776 0.27276 0.0
O80 O 0.58542 0.77982 0.31291 0.0
O81 O 0.58457 0.6511 0.31563 0.0
O82 O 0.66007 0.84824 0.30504 0.0
O83 O 0.68072 0.70694 0.28193 0.0
O84 O 0.54648 0.68178 0.3436 0.0
O85 O 0.77685 0.80611 0.3224 0.0
O86 O 0.65525 0.84299 0.36387 0.0
O87 O 0.64544 0.67891 0.3755 0.0
Sc88 Sc 0.1611 0.83781 0.31019 0.0
Sc89 Sc 0.27202 0.93957 0.33954 0.0
Sc90 Sc 0.21856 0.81869 0.36887 0.0
O91 O 0.21871 0.86633 0.33904 0.0
C92 C 0.10554 0.78814 0.36657 0.0
C93 C 0.16526 0.93672 0.33508 0.0
C94 C 0.2621 0.91688 0.40714 0.0
C95 C 0.24945 0.92446 0.27225 0.0
C96 C 0.19135 0.75584 0.31207 0.0
C97 C 0.33276 0.87896 0.34627 0.0
O98 O 0.10966 0.7801 0.34 0.0
O99 O 0.21378 0.96018 0.33681 0.0
O100 O 0.25083 0.87157 0.40311 0.0
O101 O 0.20371 0.89017 0.27637 0.0
O102 O 0.1845 0.75657 0.33923 0.0
O103 O 0.33106 0.91981 0.34311 0.0
O104 O 0.18626 0.78597 0.29479 0.0
O105 O 0.28206 0.94256 0.29266 0.0
O106 O 0.2942 0.8365 0.35391 0.0
O107 O 0.1382 0.89057 0.32679 0.0
O108 O 0.14449 0.80655 0.38307 0.0
O109 O 0.26836 0.94692 0.38633 0.0
Sc110 Sc 0.0924 0.26689 0.29333 0.0
Sc111 Sc 0.03342 0.32417 0.32936 0.0
Sc112 Sc 0.14412 0.33143 0.35687 0.0
O113 O 0.08838 0.3064 0.3269 0.0
C114 C 0.11608 0.22035 0.34913 0.0
C115 C 0.97535 0.20619 0.3137 0.0
C116 C 0.05406 0.3241 0.39554 0.0
C117 C 0.04791 0.32857 0.26116 0.0
C118 C 0.20552 0.34803 0.30213 0.0
C119 C 0.13849 0.42734 0.33591 0.0
O120 O 0.11978 0.22929 0.32182 0.0
O121 O 0.97593 0.24641 0.32202 0.0
O122 O 0.10039 0.33729 0.39178 0.0
O123 O 0.06539 0.29852 0.26077 0.0
O124 O 0.19739 0.32926 0.32737 0.0
O125 O 0.08987 0.40255 0.33584 0.0
O126 O 0.16952 0.33012 0.28352 0.0
O127 O 0.03668 0.34258 0.28448 0.0
O128 O 0.1662 0.40797 0.34259 0.0
O129 O 0.0146 0.20593 0.30337 0.0
O130 O 0.1197 0.25301 0.36794 0.0
O131 O 0.02226 0.30938 0.37489 0.0
Sc132 Sc 0.41716 0.17671 0.62497 0.0
Sc133 Sc 0.35781 0.07156 0.6706 0.0
Sc134 Sc 0.34931 0.17961 0.68346 0.0
O135 O 0.3763 0.14245 0.66028 0.0
C136 C 0.4609 0.26114 0.67457 0.0
C137 C 0.47632 0.12572 0.65398 0.0
C138 C 0.36107 0.11317 0.73284 0.0
C139 C 0.35272 0.06426 0.60183 0.0
C140 C 0.3382 0.21244 0.62264 0.0
C141 C 0.25389 0.07318 0.66981 0.0
O142 O 0.45507 0.24803 0.64783 0.0
O143 O 0.43552 0.08845 0.66411 0.0
O144 O 0.34308 0.14022 0.72348 0.0
O145 O 0.38529 0.11063 0.59844 0.0
O146 O 0.35349 0.2278 0.6481 0.0
O147 O 0.27916 0.05145 0.67691 0.0
O148 O 0.35459 0.18705 0.6092 0.0
O149 O 0.33661 0.04449 0.62669 0.0
O150 O 0.27332 0.12143 0.67007 0.0
O151 O 0.4773 0.16289 0.64025 0.0
O152 O 0.42679 0.2366 0.69384 0.0
O153 O 0.37607 0.09054 0.71583 0.0
Sc154 Sc 0.8871 0.27439 0.64038 0.0
Sc155 Sc 0.01352 0.33643 0.66332 0.0
Sc156 Sc 0.93269 0.2085 0.67683 0.0
O157 O 0.94539 0.27451 0.66073 0.0
C158 C 0.82695 0.20768 0.68868 0.0
C159 C 0.94416 0.38587 0.66855 0.0
C160 C 0.99183 0.28309 0.72666 0.0
C161 C 0.97596 0.33459 0.59746 0.0
C162 C 0.87399 0.16614 0.62371 0.0
C163 C 0.04704 0.25451 0.65476 0.0
O164 O 0.8476 0.25307 0.68026 0.0
O165 O 0.98165 0.38206 0.67779 0.0
O166 O 0.95459 0.24041 0.71898 0.0
O167 O 0.93012 0.29967 0.60155 0.0
O168 O 0.91803 0.18249 0.63351 0.0
O169 O 0.05302 0.29788 0.64884 0.0
O170 O 0.85227 0.19264 0.6272 0.0
O171 O 0.0094 0.35452 0.61766 0.0
O172 O 0.0085 0.22113 0.6686 0.0
O173 O 0.91046 0.35275 0.65176 0.0
O174 O 0.85063 0.18279 0.68608 0.0
O175 O 0.01873 0.31943 0.70897 0.0
Sc176 Sc 0.83259 0.69143 0.62513 0.0
Sc177 Sc 0.74503 0.7115 0.66515 0.0
Sc178 Sc 0.87343 0.7704 0.68538 0.0
O179 O 0.81663 0.72484 0.65834 0.0
C180 C 0.89444 0.6798 0.6765 0.0
C181 C 0.73324 0.60265 0.65612 0.0
C182 C 0.7824 0.72315 0.73085 0.0
C183 C 0.74472 0.70453 0.59586 0.0
C184 C 0.92873 0.79933 0.62391 0.0
C185 C 0.81471 0.83154 0.67039 0.0
O186 O 0.88699 0.68136 0.64947 0.0
O187 O 0.71715 0.63209 0.66415 0.0
O188 O 0.82883 0.74863 0.72399 0.0
O189 O 0.78114 0.69555 0.59509 0.0
O190 O 0.92866 0.80002 0.65146 0.0
O191 O 0.77185 0.79121 0.66722 0.0
O192 O 0.89262 0.7648 0.60894 0.0
O193 O 0.7287 0.7132 0.61946 0.0
O194 O 0.85617 0.8315 0.67634 0.0
O195 O 0.77385 0.61713 0.64116 0.0
O196 O 0.88943 0.70873 0.69467 0.0
O197 O 0.74726 0.7056 0.71196 0.0
H198 H 0.37982 0.48528 0.04629 0.0
H199 H 0.43271 0.53362 0.9578 0.0
H200 H 0.35604 0.53607 0.94647 0.0
H201 H 0.25547 0.39826 0.02345 0.0
H202 H 0.22237 0.40652 0.05361 0.0
H203 H 0.2864 0.41855 0.05834 0.0
H204 H 0.31466 0.50929 0.07635 0.0
H205 H 0.25054 0.49741 0.07176 0.0
H206 H 0.30268 0.55088 0.05393 0.0
H207 H 0.27514 0.52981 0.94198 0.0
H208 H 0.18455 0.50273 0.94251 0.0
H209 H 0.17297 0.44755 0.03123 0.0
C210 C 0.37571 0.49809 0.02498 0.0
C211 C 0.41379 0.51184 0.00347 0.0
C212 C 0.40551 0.52504 0.97516 0.0
C213 C 0.36177 0.52652 0.96832 0.0
C214 C 0.32516 0.51305 0.98966 0.0
C215 C 0.33053 0.49793 0.01724 0.0
C216 C 0.28077 0.47751 0.03398 0.0
C217 C 0.26004 0.42191 0.04286 0.0
C218 C 0.28758 0.51076 0.06059 0.0
C219 C 0.24717 0.4825 0.01103 0.0
C220 C 0.2746 0.50463 0.98608 0.0
C221 C 0.25296 0.51261 0.9614 0.0
C222 C 0.20132 0.49695 0.96193 0.0
C223 C 0.17147 0.47275 0.98682 0.0
C224 C 0.19484 0.4658 0.01185 0.0
H225 H 0.53814 0.90222 0.02502 0.0
H226 H 0.3739 0.81196 0.0249 0.0
H227 H 0.37928 0.73548 0.01344 0.0
H228 H 0.55819 0.84952 0.96585 0.0
H229 H 0.61481 0.8498 0.97811 0.0
H230 H 0.59929 0.89533 -0.00764 0.0
H231 H 0.60087 0.8661 0.04517 0.0
H232 H 0.61851 0.82179 0.03123 0.0
H233 H 0.56346 0.79984 0.05433 0.0
H234 H 0.40316 0.67279 -0.00713 0.0
H235 H 0.44359 0.62556 0.97412 0.0
H236 H 0.59242 0.75695 0.98844 0.0
C237 C 0.50353 0.86571 0.02448 0.0
C238 C 0.45562 0.8624 0.027 0.0
C239 C 0.41088 0.81467 0.02425 0.0
C240 C 0.41366 0.77124 0.01727 0.0
C241 C 0.46157 0.77629 0.01323 0.0
C242 C 0.50578 0.82207 0.01758 0.0
C243 C 0.55236 0.81842 0.00973 0.0
C244 C 0.58293 0.85547 0.98505 0.0
C245 C 0.58576 0.82703 0.03672 0.0
C246 C 0.52751 0.76401 -0.0005 0.0
C247 C 0.47516 0.7403 0.00157 0.0
C248 C 0.44422 0.69073 -0.00813 0.0
C249 C 0.46751 0.66414 0.98101 0.0
C250 C 0.52119 0.68676 0.98015 0.0
C251 C 0.55125 0.73794 0.98896 0.0
H252 H 0.29801 0.80418 -0.00477 0.0
H253 H 0.20951 0.87838 0.98077 0.0
H254 H 0.13093 0.79929 -0.00608 0.0
H255 H 0.20781 0.68305 0.9671 0.0
H256 H 0.222 0.64881 -0.00592 0.0
H257 H 0.2701 0.71156 0.98353 0.0
H258 H 0.28091 0.73881 0.03762 0.0
H259 H 0.23148 0.6765 0.04826 0.0
H260 H 0.22666 0.73127 0.05786 0.0
H261 H 0.06114 0.71005 0.00655 0.0
H262 H 1.00691 0.61705 0.01228 0.0
H263 H 0.14229 0.60455 0.02251 0.0
C264 C 0.26202 0.80356 -0.00558 0.0
C265 C 0.25976 0.8472 0.98668 0.0
C266 C 0.21201 0.84518 0.98647 0.0
C267 C 0.16725 0.80061 -0.00583 0.0
C268 C 0.17097 0.75863 0.00256 0.0
C269 C 0.21717 0.75973 0.00259 0.0
C270 C 0.21092 0.70936 0.01191 0.0
C271 C 0.22872 0.68687 0.98771 0.0
C272 C 0.23917 0.71432 0.04062 0.0
C273 C 0.1538 0.67923 0.01616 0.0
C274 C 0.13129 0.70827 0.01102 0.0
C275 C 0.07837 0.68707 0.01108 0.0
C276 C 0.04775 0.63431 0.01473 0.0
C277 C 0.07044 0.6038 0.01804 0.0
C278 C 0.12396 0.62716 0.02046 0.0
H279 H 0.42185 0.17507 0.02507 0.0
H280 H 0.55907 0.17545 -0.00125 0.0
H281 H 0.59328 0.26193 0.97843 0.0
H282 H 0.41012 0.23542 0.96238 0.0
H283 H 0.38683 0.27121 0.98165 0.0
H284 H 0.37512 0.21117 -0.00417 0.0
H285 H 0.41788 0.25288 0.0449 0.0
H286 H 0.42773 0.31251 0.03129 0.0
H287 H 0.48094 0.30754 0.04474 0.0
H288 H 0.60999 0.349 0.95903 0.0
H289 H 0.6126 0.43112 0.95035 0.0
H290 H 0.46246 0.36869 0.98782 0.0
C291 C 0.45959 0.19371 0.01558 0.0
C292 C 0.48827 0.16891 0.014 0.0
C293 C 0.53719 0.19439 0.00105 0.0
C294 C 0.55643 0.24311 0.98894 0.0
C295 C 0.52604 0.26559 0.98982 0.0
C296 C 0.47899 0.24181 0.00331 0.0
C297 C 0.45339 0.27335 0.00174 0.0
C298 C 0.40341 0.24615 0.98436 0.0
C299 C 0.4445 0.28743 0.03248 0.0
C300 C 0.49338 0.319 0.98542 0.0
C301 C 0.53496 0.31401 0.97836 0.0
C302 C 0.57749 0.35309 0.96438 0.0
C303 C 0.57854 0.39927 0.95914 0.0
C304 C 0.53758 0.40567 0.9681 0.0
C305 C 0.4938 0.36426 0.98017 0.0
H306 H 0.59328 0.12019 0.01414 0.0
H307 H 0.60035 0.05259 0.93263 0.0
H308 H 0.69166 0.11897 0.92774 0.0
H309 H 0.67546 0.25145 -0.00717 0.0
H310 H 0.705 0.27066 0.02812 0.0
H311 H 0.64025 0.21998 0.02527 0.0
H312 H 0.66039 0.15881 0.05301 0.0
H313 H 0.7252 0.20886 0.0574 0.0
H314 H 0.71187 0.14985 0.04093 0.0
H315 H 0.78476 0.18774 0.93563 0.0
H316 H 0.86794 0.25818 0.95165 0.0
H317 H 0.79599 0.28192 0.0268 0.0
C318 C 0.6137 0.11979 -0.0051 0.0
C319 C 0.59004 0.08136 0.97372 0.0
C320 C 0.61787 0.08199 0.94894 0.0
C321 C 0.66963 0.11933 0.94614 0.0
C322 C 0.69208 0.15591 0.96803 0.0
C323 C 0.66445 0.15688 -0.00839 0.0
C324 C 0.69687 0.19907 0.0126 0.0
C325 C 0.67828 0.23756 0.01478 0.0
C326 C 0.69868 0.17785 0.04275 0.0
C327 C 0.74771 0.22163 -0.0025 0.0
C328 C 0.74445 0.19606 0.97198 0.0
C329 C 0.78742 0.20835 0.95532 0.0
C330 C 0.83455 0.24813 0.96477 0.0
C331 C 0.83832 0.27554 0.99049 0.0
C332 C 0.79419 0.26199 0.00694 0.0
H333 H 0.8272 0.4372 0.95897 0.0
H334 H 0.96654 0.58278 0.96088 0.0
H335 H 0.91814 0.62278 0.97874 0.0
H336 H 0.73929 0.485 0.93877 0.0
H337 H 0.69046 0.43757 0.96165 0.0
H338 H 0.73593 0.42477 0.94437 0.0
H339 H 0.75627 0.40285 -0.00444 0.0
H340 H 0.71302 0.41914 0.01265 0.0
H341 H 0.77879 0.45019 0.02379 0.0
H342 H 0.85647 0.64406 0.00268 0.0
H343 H 0.78325 0.64922 0.02175 0.0
H344 H 0.68442 0.48883 0.00496 0.0
C345 C 0.84724 0.47788 0.96203 0.0
C346 C 0.90061 0.50692 0.95846 0.0
C347 C 0.9256 0.5599 0.96306 0.0
C348 C 0.8985 0.58279 0.97364 0.0
C349 C 0.84655 0.55215 0.97913 0.0
C350 C 0.82096 0.5011 0.97274 0.0
C351 C 0.76561 0.47601 0.98172 0.0
C352 C 0.7308 0.45464 0.95499 0.0
C353 C 0.75272 0.43462 0.0048 0.0
C354 C 0.76393 0.52083 -0.00547 0.0
C355 C 0.81113 0.5643 -0.007 0.0
C356 C 0.81925 0.61042 0.00367 0.0
C357 C 0.77749 0.61281 0.01473 0.0
C358 C 0.72813 0.56938 0.01498 0.0
C359 C 0.72174 0.52246 0.00558 0.0
H360 H 0.81827 0.70552 0.33545 0.0
H361 H 0.85844 0.85987 0.35596 0.0
H362 H 0.94247 0.8767 0.37396 0.0
H363 H 0.88541 0.68454 0.39506 0.0
H364 H 0.90674 0.65027 0.37268 0.0
H365 H 0.84784 0.64862 0.36431 0.0
H366 H 0.87975 0.68103 0.312 0.0
H367 H 0.93811 0.68167 0.32005 0.0
H368 H 0.93991 0.73842 0.30707 0.0
H369 H 0.02314 0.87678 0.38923 0.0
H370 H 0.09838 0.86535 0.3914 0.0
H371 H 0.00796 0.71369 0.35698 0.0
C372 C 0.8446 0.74267 0.34403 0.0
C373 C 0.83171 0.78125 0.3446 0.0
C374 C 0.8676 0.82977 0.35533 0.0
C375 C 0.91519 0.8395 0.36588 0.0
C376 C 0.92665 0.8005 0.36523 0.0
C377 C 0.89274 0.75338 0.35397 0.0
C378 C 0.9163 0.71976 0.35268 0.0
C379 C 0.88734 0.67303 0.37236 0.0
C380 C 0.91868 0.70435 0.32108 0.0
C381 C 0.96893 0.7554 0.36465 0.0
C382 C 0.97377 0.80135 0.37256 0.0
C383 C 0.01955 0.84077 0.38335 0.0
C384 C 0.06198 0.83378 0.38488 0.0
C385 C 0.05861 0.78829 0.37492 0.0
C386 C 0.01113 0.7483 0.36544 0.0
H387 H 0.07765 0.13598 0.31595 0.0
H388 H 0.14223 0.19291 0.40124 0.0
H389 H 0.14431 0.1137 0.41062 0.0
H390 H 1.00434 0.99686 0.33508 0.0
H391 H 0.01962 0.98009 0.30047 0.0
H392 H 0.0118 0.03481 0.30326 0.0
H393 H 0.10129 0.09121 0.28121 0.0
H394 H 0.10954 0.03707 0.27814 0.0
H395 H 0.1555 0.09203 0.29798 0.0
H396 H 0.15474 0.03725 0.40655 0.0
H397 H 0.17512 0.97274 0.38943 0.0
H398 H 0.10518 0.96644 0.3062 0.0
C399 C 0.09111 0.13141 0.33698 0.0
C400 C 0.11013 0.17079 0.35787 0.0
C401 C 0.12725 0.16319 0.38503 0.0
C402 C 0.1284 0.11825 0.3905 0.0
C403 C 0.1115 0.08119 0.36876 0.0
C404 C 0.09268 0.08723 0.34261 0.0
C405 C 0.08344 0.0457 0.32118 0.0
C406 C 0.02639 0.01239 0.31463 0.0
C407 C 0.11431 0.06784 0.293 0.0
C408 C 0.10301 0.01679 0.3386 0.0
C409 C 0.11768 0.03702 0.3663 0.0
C410 C 0.14216 0.0204 0.38526 0.0
C411 C 0.15359 0.98378 0.37535 0.0
C412 C 0.14079 0.96425 0.34672 0.0
C413 C 0.1137 0.97964 0.32847 0.0
H414 H 0.96397 0.11602 0.33388 0.0
H415 H 0.87833 0.18855 0.30774 0.0
H416 H 0.79852 0.11321 0.32382 0.0
H417 H 0.86936 0.98752 0.31375 0.0
H418 H 0.88396 0.96051 0.3447 0.0
H419 H 0.93222 0.01949 0.32941 0.0
H420 H 0.94568 0.06029 0.38048 0.0
H421 H 0.89554 1.00189 0.39544 0.0
H422 H 0.89265 0.05932 0.39879 0.0
H423 H 0.7266 0.02726 0.34224 0.0
H424 H 0.67099 0.93773 0.35741 0.0
H425 H 0.80532 0.9265 0.37573 0.0
C426 C 0.92828 0.11554 0.33096 0.0
C427 C 0.92729 0.15784 0.31908 0.0
C428 C 0.87991 0.15631 0.31648 0.0
C429 C 0.83438 0.11383 0.32577 0.0
C430 C 0.83675 0.07329 0.3382 0.0
C431 C 0.88255 0.07383 0.34071 0.0
C432 C 0.875 0.02585 0.35513 0.0
C433 C 0.89103 0.99657 0.33452 0.0
C434 C 0.90394 0.03757 0.38419 0.0
C435 C 0.81787 0.99794 0.35992 0.0
C436 C 0.79619 0.02565 0.35005 0.0
C437 C 0.74332 0.00541 0.35025 0.0
C438 C 0.71187 0.95461 0.35915 0.0
C439 C 0.73347 0.92472 0.36759 0.0
C440 C 0.78728 0.94816 0.36957 0.0
H441 H 0.24131 0.71821 0.34157 0.0
H442 H 0.15827 0.69899 0.26136 0.0
H443 H 0.15434 0.61654 0.25362 0.0
H444 H 0.30676 0.64323 0.32222 0.0
H445 H 0.29559 0.61694 0.35847 0.0
H446 H 0.3065 0.68006 0.35287 0.0
H447 H 0.2224 0.65605 0.37912 0.0
H448 H 0.21067 0.59286 0.38472 0.0
H449 H 0.16394 0.60288 0.36623 0.0
H450 H 0.14139 0.52983 0.26089 0.0
H451 H 0.11939 0.44693 0.28193 0.0
H452 H 0.20639 0.52026 0.35938 0.0
C453 C 0.22405 0.69756 0.32172 0.0
C454 C 0.20008 0.71479 0.30198 0.0
C455 C 0.17743 0.68676 0.27648 0.0
C456 C 0.17503 0.63988 0.27204 0.0
C457 C 0.19586 0.62224 0.29318 0.0
C458 C 0.22047 0.65066 0.31744 0.0
C459 C 0.23096 0.62014 0.33973 0.0
C460 C 0.2884 0.64135 0.34348 0.0
C461 C 0.20544 0.61785 0.36915 0.0
C462 C 0.20603 0.56899 0.32504 0.0
C463 C 0.18723 0.57138 0.29786 0.0
C464 C 0.15712 0.52791 0.2817 0.0
C465 C 0.14461 0.48099 0.29391 0.0
C466 C 0.16172 0.47764 0.3221 0.0
C467 C 0.19418 0.52217 0.33748 0.0
H468 H 0.25927 0.42157 0.34157 0.0
H469 H 0.26455 0.38072 0.25186 0.0
H470 H 0.35119 0.4563 0.24711 0.0
H471 H 0.32423 0.55896 0.32834 0.0
H472 H 0.35546 0.57326 0.36329 0.0
H473 H 0.29397 0.51738 0.35886 0.0
H474 H 0.32985 0.46172 0.3783 0.0
H475 H 0.3915 0.51708 0.38285 0.0
H476 H 0.38477 0.46501 0.36102 0.0
H477 H 0.44175 0.53176 0.255 0.0
H478 H 0.52293 0.60373 0.27228 0.0
H479 H 0.45362 0.59869 0.35561 0.0
C480 C 0.27816 0.42872 0.3207 0.0
C481 C 0.2552 0.39498 0.29706 0.0
C482 C 0.28133 0.40601 0.27019 0.0
C483 C 0.33054 0.4488 0.2674 0.0
C484 C 0.35227 0.48079 0.29144 0.0
C485 C 0.32619 0.47167 0.31736 0.0
C486 C 0.35712 0.51147 0.34003 0.0
C487 C 0.33116 0.54209 0.3481 0.0
C488 C 0.36635 0.48736 0.36714 0.0
C489 C 0.40597 0.54366 0.32336 0.0
C490 C 0.40255 0.52535 0.29537 0.0
C491 C 0.44429 0.54675 0.27666 0.0
C492 C 0.49039 0.58752 0.28676 0.0
C493 C 0.49461 0.60719 0.31526 0.0
C494 C 0.45143 0.58517 0.33358 0.0
H495 H 0.34759 0.80421 0.32294 0.0
H496 H 0.42825 0.96077 0.35134 0.0
H497 H 0.50937 0.96895 0.33459 0.0
H498 H 0.44111 0.77298 0.34361 0.0
H499 H 0.43067 0.73306 0.31245 0.0
H500 H 0.37999 0.74184 0.32581 0.0
H501 H 0.3705 0.77126 0.27447 0.0
H502 H 0.42268 0.76447 0.2612 0.0
H503 H 0.42456 0.82431 0.25762 0.0
H504 H 0.58312 0.95802 0.31782 0.0
H505 H 0.64175 0.92548 0.3075 0.0
H506 H 0.51228 0.77897 0.28646 0.0
C507 C 0.38238 0.84007 0.32581 0.0
C508 C 0.38161 0.8817 0.33866 0.0
C509 C 0.42792 0.92827 0.3416 0.0
C510 C 0.47418 0.93345 0.33194 0.0
C511 C 0.47357 0.89204 0.31879 0.0
C512 C 0.42883 0.84622 0.31576 0.0
C513 C 0.43871 0.80701 0.30187 0.0
C514 C 0.42169 0.76103 0.32216 0.0
C515 C 0.41255 0.79083 0.27201 0.0
C516 C 0.49612 0.83721 0.29873 0.0
C517 C 0.51567 0.88643 0.3082 0.0
C518 C 0.56818 0.9197 0.31002 0.0
C519 C 0.60136 0.90108 0.3039 0.0
C520 C 0.58169 0.84958 0.29654 0.0
C521 C 0.52861 0.81866 0.29191 0.0
H522 H 0.76991 0.25344 0.69369 0.0
H523 H 0.75603 0.10468 0.69083 0.0
H524 H 0.66278 0.06627 0.68388 0.0
H525 H 0.64585 0.21739 0.72767 0.0
H526 H 0.63805 0.26153 0.7051 0.0
H527 H 0.70088 0.275 0.71551 0.0
H528 H 0.7265 0.28552 0.6611 0.0
H529 H 0.66348 0.27078 0.6505 0.0
H530 H 0.6903 0.23417 0.63621 0.0
H531 H 0.5713 0.04579 0.67244 0.0
H532 H 0.49171 0.04477 0.65889 0.0
H533 H 0.56997 0.20862 0.66443 0.0
C534 C 0.7474 0.21254 0.69246 0.0
C535 C 0.7707 0.18211 0.69275 0.0
C536 C 0.73932 0.12884 0.69087 0.0
C537 C 0.6863 0.10678 0.68672 0.0
C538 C 0.66538 0.13853 0.68455 0.0
C539 C 0.69516 0.19033 0.68765 0.0
C540 C 0.66525 0.21709 0.6817 0.0
C541 C 0.66232 0.24434 0.70913 0.0
C542 C 0.68774 0.25404 0.65584 0.0
C543 C 0.61388 0.1724 0.67417 0.0
C544 C 0.61429 0.12728 0.67642 0.0
C545 C 0.57077 0.08094 0.67069 0.0
C546 C 0.5258 0.08076 0.66289 0.0
C547 C 0.52483 0.12667 0.66022 0.0
C548 C 0.56971 0.17299 0.66577 0.0
H549 H 0.8755 0.41425 0.64949 0.0
H550 H 1.00485 0.46109 0.70718 0.0
H551 H 1.00152 0.53805 0.7199 0.0
H552 H 0.91274 0.53466 0.62121 0.0
H553 H 0.84921 0.52521 0.61909 0.0
H554 H 0.85897 0.47177 0.61689 0.0
H555 H 0.79684 0.42942 0.66004 0.0
H556 H 0.78729 0.48309 0.6625 0.0
H557 H 0.80832 0.46308 0.69395 0.0
H558 H 0.98697 0.61433 0.72402 0.0
H559 H 0.96488 0.68213 0.71645 0.0
H560 H 0.84633 0.5843 0.65621 0.0
C561 C 0.90276 0.44024 0.66511 0.0
C562 C 0.94042 0.4312 0.67727 0.0
C563 C 0.97558 0.46683 0.69744 0.0
C564 C 0.97388 0.51073 0.70495 0.0
C565 C 0.93664 0.51873 0.69231 0.0
C566 C 0.90164 0.48427 0.67283 0.0
C567 C 0.86734 0.50291 0.66086 0.0
C568 C 0.87241 0.50902 0.62755 0.0
C569 C 0.81167 0.46752 0.66989 0.0
C570 C 0.88936 0.55374 0.67596 0.0
C571 C 0.92878 0.56219 0.69442 0.0
C572 C 0.95583 0.60783 0.70977 0.0
C573 C 0.94299 0.64608 0.70553 0.0
C574 C 0.90403 0.63854 0.68576 0.0
C575 C 0.87642 0.59126 0.67147 0.0
H576 H 0.70812 0.51234 0.62877 0.0
H577 H 0.69228 0.57615 0.70967 0.0
H578 H 0.63076 0.49113 0.72747 0.0
H579 H 0.58488 0.42998 0.61872 0.0
H580 H 0.59024 0.37766 0.60467 0.0
H581 H 0.64258 0.4411 0.60096 0.0
H582 H 0.7022 0.41562 0.62731 0.0
H583 H 0.64987 0.35165 0.63085 0.0
H584 H 0.68476 0.38601 0.66266 0.0
H585 H 0.55862 0.40366 0.7325 0.0
H586 H 0.48312 0.31917 0.72434 0.0
H587 H 0.54584 0.31064 0.64102 0.0
C588 C 0.69314 0.50792 0.65062 0.0
C589 C 0.70459 0.5506 0.66775 0.0
C590 C 0.68354 0.54378 0.69607 0.0
C591 C 0.64886 0.49559 0.70654 0.0
C592 C 0.63596 0.45427 0.68862 0.0
C593 C 0.65804 0.45968 0.66144 0.0
C594 C 0.63261 0.4099 0.64516 0.0
C595 C 0.61131 0.415 0.61566 0.0
C596 C 0.66956 0.3896 0.64127 0.0
C597 C 0.59042 0.37733 0.66636 0.0
C598 C 0.59385 0.40307 0.69166 0.0
C599 C 0.55613 0.38248 0.7131 0.0
C600 C 0.51326 0.3346 0.70827 0.0
C601 C 0.50831 0.30842 0.68202 0.0
C602 C 0.54831 0.32965 0.66135 0.0
H603 H 0.88794 0.91838 0.64293 0.0
H604 H 0.74005 0.85228 0.68447 0.0
H605 H 0.73237 0.92614 0.66974 0.0
H606 H 0.93051 0.04853 0.66138 0.0
H607 H 0.96227 0.07217 0.62698 0.0
H608 H 0.95484 0.0141 0.64158 0.0
H609 H 0.91125 0.96957 0.59327 0.0
H610 H 0.91667 0.0274 0.57931 0.0
H611 H 0.85524 0.97067 0.58112 0.0
H612 H 0.74207 0.00939 0.6519 0.0
H613 H 0.77394 0.09878 0.6378 0.0
H614 H 0.91177 0.10751 0.60461 0.0
C615 C 0.85439 0.91992 0.64931 0.0
C616 C 0.81483 0.87974 0.66511 0.0
C617 C 0.77098 0.88274 0.67249 0.0
C618 C 0.76603 0.92436 0.664 0.0
C619 C 0.80489 0.96262 0.64766 0.0
C620 C 0.84841 0.96095 0.64057 0.0
C621 C 0.88491 0.00744 0.62326 0.0
C622 C 0.93613 0.03733 0.63928 0.0
C623 C 0.89244 0.99287 0.59241 0.0
C624 C 0.85586 0.03613 0.62257 0.0
C625 C 0.80949 0.00947 0.63646 0.0
C626 C 0.77808 0.03041 0.64066 0.0
C627 C 0.7961 0.08108 0.63223 0.0
C628 C 0.84522 0.11022 0.62004 0.0
C629 C 0.87365 0.08602 0.61346 0.0
H630 H 0.02232 0.81192 0.61778 0.0
H631 H 0.93465 0.88707 0.60666 0.0
H632 H 0.01262 0.97017 0.61281 0.0
H633 H 0.0875 0.87676 0.67362 0.0
H634 H 0.14813 0.8821 0.66555 0.0
H635 H 0.09093 0.83049 0.65079 0.0
H636 H 0.12508 0.85509 0.59806 0.0
H637 H 0.18381 0.90512 0.61284 0.0
H638 H 0.14968 0.91941 0.5858 0.0
H639 H 0.09656 0.04289 0.63224 0.0
H640 H 0.17993 0.09811 0.65595 0.0
H641 H 0.21024 0.97318 0.65552 0.0
C642 C 0.02044 0.84611 0.61425 0.0
C643 C 0.97289 0.84322 0.61069 0.0
C644 C 0.97106 0.8886 0.60813 0.0
C645 C 0.01517 0.93601 0.61213 0.0
C646 C 0.06093 0.93733 0.61826 0.0
C647 C 0.06409 0.89349 0.61835 0.0
C648 C 0.11544 0.90369 0.62938 0.0
C649 C 0.11011 0.87135 0.65643 0.0
C650 C 0.14527 0.89535 0.60506 0.0
C651 C 0.13954 0.95917 0.63708 0.0
C652 C 0.10818 0.97843 0.63015 0.0
C653 C 0.12177 0.02829 0.63713 0.0
C654 C 0.16901 0.05933 0.65085 0.0
C655 C 0.20183 0.04021 0.65781 0.0
C656 C 0.18629 0.98931 0.65078 0.0
H657 H 0.32288 0.2925 0.62748 0.0
H658 H 0.25017 0.1362 0.5994 0.0
H659 H 0.16648 0.13195 0.60034 0.0
H660 H 0.23703 0.27951 0.67746 0.0
H661 H 0.2377 0.33819 0.67093 0.0
H662 H 0.29263 0.33303 0.6621 0.0
H663 H 0.29017 0.35927 0.60874 0.0
H664 H 0.23602 0.36612 0.61754 0.0
H665 H 0.23218 0.32552 0.58801 0.0
H666 H 0.0902 0.13927 0.61589 0.0
H667 H 0.02834 0.16248 0.635 0.0
H668 H 0.15078 0.3158 0.65003 0.0
C669 C 0.2896 0.25823 0.62006 0.0
C670 C 0.29303 0.21496 0.61284 0.0
C671 C 0.24859 0.17019 0.60415 0.0
C672 C 0.2008 0.16731 0.60502 0.0
C673 C 0.19838 0.2098 0.61408 0.0
C674 C 0.24189 0.25503 0.62044 0.0
C675 C 0.22899 0.29416 0.6315 0.0
C676 C 0.25036 0.31224 0.66232 0.0
C677 C 0.24796 0.33892 0.61017 0.0
C678 C 0.17142 0.26327 0.63178 0.0
C679 C 0.15443 0.21463 0.62174 0.0
C680 C 0.10306 0.17768 0.62292 0.0
C681 C 0.06826 0.19103 0.63411 0.0
C682 C 0.08472 0.24102 0.64374 0.0
C683 C 0.137 0.27758 0.64231 0.0
H684 H 0.05426 0.29864 0.20577 0.0
H685 H 0.02435 0.40353 0.25409 0.0
H686 H 0.0091 0.43535 0.20812 0.0
H687 H 0.11862 0.38294 0.14455 0.0
H688 H 0.09122 0.33254 0.11818 0.0
H689 H 0.10237 0.31951 0.15491 0.0
H690 H 1.00739 0.25023 0.1595 0.0
H691 H 0.9959 0.26315 0.12286 0.0
H692 H 0.95875 0.26646 0.15247 0.0
H693 H 0.9936 0.45331 0.15779 0.0
H694 H 0.97936 0.45721 0.10539 0.0
H695 H 0.01932 0.34069 0.08957 0.0
C696 C 0.0449 0.32856 0.2067 0.0
C697 C 0.04029 0.34841 0.23351 0.0
C698 C 0.02776 0.38744 0.2338 0.0
C699 C 0.01921 0.40596 0.20782 0.0
C700 C 0.02348 0.38514 0.18183 0.0
C701 C 0.03616 0.34747 0.18099 0.0
C702 C 0.03676 0.3307 0.15011 0.0
C703 C 0.09044 0.34212 0.14143 0.0
C704 C 0.99734 0.2743 0.14601 0.0
C705 C 0.0216 0.36431 0.13383 0.0
C706 C 0.01445 0.39559 0.15256 0.0
C707 C 0.99932 0.42925 0.14281 0.0
C708 C 0.99121 0.43102 0.113 0.0
C709 C 0.99815 0.39918 0.09333 0.0
C710 C 0.01374 0.36556 0.10399 0.0
H711 H 0.64096 0.65329 0.23463 0.0
H712 H 0.7326 0.81622 0.2224 0.0
H713 H 0.71729 0.80548 0.16975 0.0
H714 H 0.68303 0.61936 0.16817 0.0
H715 H 0.62125 0.56532 0.16101 0.0
H716 H 0.64068 0.58571 0.19791 0.0
H717 H 0.55958 0.59254 0.20539 0.0
H718 H 0.54047 0.57313 0.16832 0.0
H719 H 0.54733 0.632 0.18127 0.0
H720 H 0.68919 0.77883 0.11927 0.0
H721 H 0.65916 0.73601 0.0721 0.0
H722 H 0.58687 0.59007 0.11619 0.0
C723 C 0.65857 0.68655 0.22081 0.0
C724 C 0.68774 0.73556 0.23268 0.0
C725 C 0.70976 0.77825 0.21386 0.0
C726 C 0.7012 0.77267 0.1839 0.0
C727 C 0.67079 0.72416 0.17302 0.0
C728 C 0.65049 0.68171 0.19069 0.0
C729 C 0.61954 0.63394 0.1731 0.0
C730 C 0.64251 0.59903 0.17517 0.0
C731 C 0.56341 0.60629 0.18259 0.0
C732 C 0.6259 0.65642 0.14289 0.0
C733 C 0.65512 0.70855 0.14347 0.0
C734 C 0.6665 0.73795 0.1184 0.0
C735 C 0.64905 0.71324 0.09172 0.0
C736 C 0.62092 0.65963 0.09036 0.0
C737 C 0.60824 0.63107 0.11644 0.0
H738 H 0.40776 0.98795 0.12425 0.0
H739 H 0.27616 0.98165 0.08223 0.0
H740 H 0.23536 0.97054 0.12994 0.0
H741 H 0.33772 0.89255 0.17744 0.0
H742 H 0.38355 0.92318 0.20617 0.0
H743 H 0.40403 0.93326 0.16878 0.0
H744 H 0.44496 0.03016 0.17594 0.0
H745 H 0.4242 0.02031 0.21334 0.0
H746 H 0.40656 0.05578 0.18922 0.0
H747 H 0.20696 0.95688 0.18091 0.0
H748 H 0.19018 0.93681 0.23305 0.0
H749 H 0.33957 0.9523 0.24346 0.0
C750 C 0.37048 0.98448 0.12509 0.0
C751 C 0.34529 0.98581 0.09938 0.0
C752 C 0.29632 0.98071 0.10149 0.0
C753 C 0.27286 0.97465 0.12853 0.0
C754 C 0.29876 0.97376 0.15335 0.0
C755 C 0.3463 0.97823 0.15199 0.0
C756 C 0.36454 0.97368 0.18207 0.0
C757 C 0.37293 0.92794 0.1837 0.0
C758 C 0.41294 0.02293 0.19064 0.0
C759 C 0.31942 0.96531 0.2004 0.0
C760 C 0.2822 0.96592 0.18326 0.0
C761 C 0.23588 0.95667 0.19463 0.0
C762 C 0.22672 0.94525 0.22424 0.0
C763 C 0.26369 0.9433 0.24221 0.0
C764 C 0.31111 0.95451 0.23027 0.0
H765 H 0.40431 1.0021 0.88079 0.0
H766 H 0.35459 0.09425 0.92677 0.0
H767 H 0.34541 0.12852 0.87989 0.0
H768 H 0.47652 0.09404 0.82484 0.0
H769 H 0.45815 0.04696 0.7967 0.0
H770 H 0.46225 0.0307 0.83395 0.0
H771 H 0.36891 0.95703 0.83156 0.0
H772 H 0.36448 0.97307 0.79433 0.0
H773 H 0.31934 0.97006 0.82088 0.0
H774 H 0.33953 0.15101 0.82832 0.0
H775 H 0.33712 0.16059 0.77526 0.0
H776 H 0.39076 0.05368 0.76275 0.0
C777 C 0.39171 0.02966 0.8811 0.0
C778 C 0.38011 0.0454 0.90752 0.0
C779 C 0.36359 0.08146 0.90685 0.0
C780 C 0.35835 0.10124 0.88033 0.0
C781 C 0.36984 0.08464 0.85475 0.0
C782 C 0.38623 0.04975 0.85488 0.0
C783 C 0.39514 0.0375 0.82428 0.0
C784 C 0.45136 0.05326 0.81968 0.0
C785 C 0.35985 0.98107 0.81736 0.0
C786 C 0.38072 0.07066 0.80687 0.0
C787 C 0.36643 0.09764 0.8249 0.0
C788 C 0.35076 0.13022 0.81396 0.0
C789 C 0.34947 0.13529 0.78373 0.0
C790 C 0.36371 0.10783 0.76473 0.0
C791 C 0.37976 0.07529 0.77661 0.0
H792 H 0.02433 0.42731 0.87446 0.0
H793 H 0.98996 0.28803 0.91921 0.0
H794 H 0.98986 0.24911 0.8721 0.0
H795 H 0.94653 0.37095 0.81299 0.0
H796 H 0.99034 0.4175 0.78762 0.0
H797 H 0.98974 0.43463 0.825 0.0
H798 H 0.08611 0.46506 0.82904 0.0
H799 H 0.08683 0.44747 0.7917 0.0
H800 H 0.10863 0.42204 0.82015 0.0
H801 H 0.98707 0.22373 0.82041 0.0
H802 H 0.98158 0.21322 0.767 0.0
H803 H 0.0223 0.37054 0.75645 0.0
C804 C 0.01673 0.3886 0.87437 0.0
C805 C 1.00697 0.36052 0.90036 0.0
C806 C 0.99766 0.31016 0.89945 0.0
C807 C 0.99767 0.28784 0.87288 0.0
C808 C 0.00778 0.31675 0.84766 0.0
C809 C 0.01728 0.36604 0.84818 0.0
C810 C 0.02569 0.38845 0.81794 0.0
C811 C 0.98568 0.40375 0.81046 0.0
C812 C 0.08006 0.43341 0.81452 0.0
C813 C 0.01808 0.34352 0.80024 0.0
C814 C 0.008 0.30262 0.81781 0.0
C815 C 0.99573 0.25564 0.8064 0.0
C816 C 0.99263 0.25003 0.77615 0.0
C817 C 1.00215 0.29132 0.75788 0.0
C818 C 0.01616 0.33886 0.77003 0.0
H819 H 0.68786 0.66526 0.75642 0.0
H820 H 0.84896 0.75836 0.77641 0.0
H821 H 0.8302 0.74138 0.82846 0.0
H822 H 0.6424 0.70401 0.81792 0.0
H823 H 0.58795 0.64217 0.82411 0.0
H824 H 0.61366 0.66071 0.78797 0.0
H825 H 0.62405 0.58147 0.78454 0.0
H826 H 0.59848 0.56277 0.82072 0.0
H827 H 0.66 0.57069 0.81209 0.0
H828 H 0.79547 0.71594 0.87799 0.0
H829 H 0.74559 0.68441 0.92304 0.0
H830 H 0.60648 0.60751 0.872 0.0
C831 C 0.71915 0.68213 0.77174 0.0
C832 C 0.76988 0.71318 0.76218 0.0
C833 C 0.80973 0.73442 0.78302 0.0
C834 C 0.79957 0.72499 0.81272 0.0
C835 C 0.74938 0.6942 0.82137 0.0
C836 C 0.70972 0.67311 0.80163 0.0
C837 C 0.6592 0.64186 0.81704 0.0
C838 C 0.62372 0.6635 0.81143 0.0
C839 C 0.63396 0.58587 0.80806 0.0
C840 C 0.67687 0.6492 0.84846 0.0
C841 C 0.72907 0.67936 0.85034 0.0
C842 C 0.75451 0.69222 0.87689 0.0
C843 C 0.72576 0.67413 0.90237 0.0
C844 C 0.67204 0.64353 0.90114 0.0
C845 C 0.64745 0.63066 0.87372 0.0
H846 H 0.70775 0.68717 0.42334 0.0
H847 H 0.56777 0.68964 0.43765 0.0
H848 H 0.57819 0.68637 0.49073 0.0
H849 H 0.6951 0.60459 0.48727 0.0
H850 H 0.76242 0.64021 0.4947 0.0
H851 H 0.73964 0.63454 0.45786 0.0
H852 H 0.78809 0.73234 0.45328 0.0
H853 H 0.81012 0.73842 0.49024 0.0
H854 H 0.77534 0.76926 0.47898 0.0
H855 H 0.60897 0.69405 0.54178 0.0
H856 H 0.65469 0.70424 0.58806 0.0
H857 H 0.77535 0.69797 0.54072 0.0
C858 C 0.67838 0.68489 0.4377 0.0
C859 C 0.63663 0.68792 0.42659 0.0
C860 C 0.59978 0.68686 0.44591 0.0
C861 C 0.60541 0.68513 0.47604 0.0
C862 C 0.64816 0.68452 0.48648 0.0
C863 C 0.6837 0.68364 0.46797 0.0
C864 C 0.72815 0.68703 0.48493 0.0
C865 C 0.7315 0.63871 0.48096 0.0
C866 C 0.77837 0.73459 0.47634 0.0
C867 C 0.71248 0.6911 0.51566 0.0
C868 C 0.66617 0.68939 0.51609 0.0
C869 C 0.64497 0.69469 0.54183 0.0
C870 C 0.6714 0.70088 0.56797 0.0
C871 C 0.71851 0.70173 0.56812 0.0
C872 C 0.73924 0.6971 0.54148 0.0
H873 H 0.32112 0.01194 0.43094 0.0
H874 H 0.209 0.85647 0.45221 0.0
H875 H 0.2173 0.878 0.50417 0.0
H876 H 0.4024 0.03045 0.48974 0.0
H877 H 0.41922 0.09516 0.49669 0.0
H878 H 0.4009 0.06946 0.4606 0.0
H879 H 0.32994 0.09332 0.45988 0.0
H880 H 0.34842 0.11961 0.49589 0.0
H881 H 0.28356 0.07142 0.48878 0.0
H882 H 0.24137 0.91391 0.55385 0.0
H883 H 0.27925 0.96379 0.59847 0.0
H884 H 0.37668 0.09528 0.54525 0.0
C885 C 0.29772 0.98285 0.44654 0.0
C886 C 0.26471 0.93262 0.43764 0.0
C887 C 0.23501 0.8952 0.45865 0.0
C888 C 0.23919 0.907 0.48821 0.0
C889 C 0.27316 0.95641 0.49646 0.0
C890 C 0.30172 0.99389 0.47634 0.0
C891 C 0.33739 0.04325 0.49134 0.0
C892 C 0.39328 0.06057 0.48416 0.0
C893 C 0.32401 0.08432 0.4835 0.0
C894 C 0.32515 0.0271 0.52286 0.0
C895 C 0.28763 0.97703 0.52534 0.0
C896 C 0.27066 0.95333 0.55227 0.0
C897 C 0.29255 0.98185 0.57747 0.0
C898 C 0.33107 0.03334 0.57542 0.0
C899 C 0.34742 0.05597 0.54767 0.0
H900 H 0.05929 0.34703 0.56789 0.0
H901 H 0.92148 0.35571 0.55948 0.0
H902 H 0.93206 0.36279 0.50623 0.0
H903 H 0.12874 0.43137 0.50253 0.0
H904 H 0.15529 0.39196 0.49307 0.0
H905 H 0.14363 0.39949 0.5307 0.0
H906 H 0.08923 0.30201 0.53579 0.0
H907 H 0.0994 0.29405 0.49809 0.0
H908 H 0.0355 0.26731 0.51194 0.0
H909 H 0.94661 0.35129 0.45531 0.0
H910 H 0.97117 0.33312 0.40782 0.0
H911 H 0.10037 0.33207 0.44814 0.0
C912 C 0.03296 0.35295 0.55479 0.0
C913 C 0.98996 0.35144 0.56742 0.0
C914 C 0.95483 0.35721 0.54989 0.0
C915 C 0.96054 0.36127 0.51973 0.0
C916 C 1.00167 0.35965 0.50763 0.0
C917 C 0.03795 0.35665 0.5245 0.0
C918 C 0.07504 0.34976 0.50574 0.0
C919 C 0.12887 0.39591 0.50815 0.0
C920 C 0.07472 0.30035 0.51335 0.0
C921 C 0.05231 0.34686 0.47597 0.0
C922 C 0.01031 0.35309 0.47763 0.0
C923 C 0.9802 0.34762 0.45351 0.0
C924 C 0.99407 0.33661 0.42673 0.0
C925 C 0.03773 0.33133 0.42434 0.0
C926 C 0.06713 0.33648 0.44932 0.0
loop_
_geom_bond_atom_site_label_1
_geom_bond_atom_site_label_2
_geom_bond_distance
_geom_bond_site_symmetry_2
_ccdc_geom_bond_type
Sc0 O3 2.025 1_556 S
Sc0 O10 2.117 . S
Sc0 O13 2.105 . S
Sc0 O16 2.105 1_455 S
Sc0 O19 2.105 . S
Sc1 O3 2.025 . S
Sc1 O11 2.105 1_554 S
Sc1 O15 2.105 1_455 S
Sc1 O17 2.105 1_454 S
Sc1 O21 2.105 . S
Sc2 O3 2.025 1_655 S
Sc2 O12 2.105 1_655 S
Sc2 O14 2.105 . S
Sc2 O18 2.105 . S
Sc2 O20 2.105 1_655 S
O3 Sc0 2.025 1_554 S
O3 Sc1 2.025 . S
O3 Sc2 2.025 1_455 S
C4 O10 1.250 1_554 S
C4 O20 1.268 . S
C5 O11 1.268 . S
C5 O19 1.268 . S
C6 O12 1.268 . S
C6 O21 1.268 . S
C7 O13 1.268 1_655 S
C7 O17 1.268 . S
C8 O14 1.268 1_556 S
C8 O16 1.268 . S
C9 O15 1.268 . S
C9 O18 1.268 . S
O10 Sc0 2.117 . S
O10 C4 1.250 1_556 S
O11 Sc1 2.105 1_556 S
O11 C5 1.268 . S
O12 Sc2 2.105 1_455 S
O12 C6 1.268 . S
O13 Sc0 2.105 . S
O13 C7 1.268 1_455 S
O14 Sc2 2.105 . S
O14 C8 1.268 1_554 S
O15 Sc1 2.105 1_655 S
O15 C9 1.268 . S
O16 Sc0 2.105 1_655 S
O16 C8 1.268 . S
O17 Sc1 2.105 1_656 S
O17 C7 1.268 . S
O18 Sc2 2.105 . S
O18 C9 1.268 . S
O19 Sc0 2.105 . S
O19 C5 1.268 . S
O20 Sc2 2.105 1_455 S
O20 C4 1.268 . S
O21 Sc1 2.105 . S
O21 C6 1.268 . S
Sc22 O25 2.025 1_556 S
Sc22 O32 2.117 . S
Sc22 O35 2.105 . S
Sc22 O38 2.105 . S
Sc22 O41 2.105 . S
Sc23 O25 2.025 . S
Sc23 O33 2.105 1_554 S
Sc23 O37 2.105 . S
Sc23 O39 2.105 1_554 S
Sc23 O43 2.105 . S
Sc24 O25 2.025 . S
Sc24 O34 2.105 . S
Sc24 O36 2.105 . S
Sc24 O40 2.105 . S
Sc24 O42 2.105 . S
O25 Sc22 2.025 1_554 S
O25 Sc23 2.025 . S
O25 Sc24 2.025 . S
C26 O32 1.250 1_554 S
C26 O42 1.268 . S
C27 O33 1.268 . S
C27 O41 1.268 . S
C28 O34 1.268 . S
C28 O43 1.268 . S
C29 O35 1.268 . S
C29 O39 1.268 . S
C30 O36 1.268 1_556 S
C30 O38 1.268 . S
C31 O37 1.268 . S
C31 O40 1.268 . S
O32 Sc22 2.117 . S
O32 C26 1.250 1_556 S
O33 Sc23 2.105 1_556 S
O33 C27 1.268 . S
O34 Sc24 2.105 . S
O34 C28 1.268 . S
O35 Sc22 2.105 . S
O35 C29 1.268 . S
O36 Sc24 2.105 . S
O36 C30 1.268 1_554 S
O37 Sc23 2.105 . S
O37 C31 1.268 . S
O38 Sc22 2.105 . S
O38 C30 1.268 . S
O39 Sc23 2.105 1_556 S
O39 C29 1.268 . S
O40 Sc24 2.105 . S
O40 C31 1.268 . S
O41 Sc22 2.105 . S
O41 C27 1.268 . S
O42 Sc24 2.105 . S
O42 C26 1.268 . S
O43 Sc23 2.105 . S
O43 C28 1.268 . S
Sc44 O47 2.025 1_566 S
Sc44 O54 2.117 . S
Sc44 O57 2.105 1_565 S
Sc44 O60 2.105 1_565 S
Sc44 O63 2.105 . S
Sc45 O47 2.025 . S
Sc45 O55 2.105 1_544 S
Sc45 O59 2.105 . S
Sc45 O61 2.105 1_554 S
Sc45 O65 2.105 1_545 S
Sc46 O47 2.025 . S
Sc46 O56 2.105 . S
Sc46 O58 2.105 . S
Sc46 O62 2.105 . S
Sc46 O64 2.105 1_545 S
O47 Sc44 2.025 1_544 S
O47 Sc45 2.025 . S
O47 Sc46 2.025 . S
C48 O54 1.250 1_554 S
C48 O64 1.268 . S
C49 O55 1.268 . S
C49 O63 1.268 . S
C50 O56 1.268 1_565 S
C50 O65 1.268 . S
C51 O57 1.268 . S
C51 O61 1.268 . S
C52 O58 1.268 1_556 S
C52 O60 1.268 . S
C53 O59 1.268 . S
C53 O62 1.268 . S
O54 Sc44 2.117 . S
O54 C48 1.250 1_556 S
O55 Sc45 2.105 1_566 S
O55 C49 1.268 . S
O56 Sc46 2.105 . S
O56 C50 1.268 1_545 S
O57 Sc44 2.105 1_545 S
O57 C51 1.268 . S
O58 Sc46 2.105 . S
O58 C52 1.268 1_554 S
O59 Sc45 2.105 . S
O59 C53 1.268 . S
O60 Sc44 2.105 1_545 S
O60 C52 1.268 . S
O61 Sc45 2.105 1_556 S
O61 C51 1.268 . S
O62 Sc46 2.105 . S
O62 C53 1.268 . S
O63 Sc44 2.105 . S
O63 C49 1.268 . S
O64 Sc46 2.105 1_565 S
O64 C48 1.268 . S
O65 Sc45 2.105 1_565 S
O65 C50 1.268 . S
Sc66 O69 2.025 . S
Sc66 O76 2.105 . S
Sc66 O79 2.105 . S
Sc66 O82 2.105 . S
Sc66 O85 2.105 . S
Sc67 O69 2.025 . S
Sc67 O77 2.105 . S
Sc67 O81 2.105 . S
Sc67 O83 2.105 . S
Sc67 O87 2.105 . S
Sc68 O69 2.025 . S
Sc68 O78 2.105 . S
Sc68 O80 2.105 . S
Sc68 O84 2.105 . S
Sc68 O86 2.105 . S
O69 Sc66 2.025 . S
O69 Sc67 2.025 . S
O69 Sc68 2.025 . S
C70 O76 1.268 . S
C70 O86 1.268 . S
C71 O77 1.268 . S
C71 O85 1.268 . S
C72 O78 1.268 . S
C72 O87 1.268 . S
C73 O79 1.268 . S
C73 O83 1.268 . S
C74 O80 1.268 . S
C74 O82 1.268 . S
C75 O81 1.268 . S
C75 O84 1.268 . S
O76 Sc66 2.105 . S
O76 C70 1.268 . S
O77 Sc67 2.105 . S
O77 C71 1.268 . S
O78 Sc68 2.105 . S
O78 C72 1.268 . S
O79 Sc66 2.105 . S
O79 C73 1.268 . S
O80 Sc68 2.105 . S
O80 C74 1.268 . S
O81 Sc67 2.105 . S
O81 C75 1.268 . S
O82 Sc66 2.105 . S
O82 C74 1.268 . S
O83 Sc67 2.105 . S
O83 C73 1.268 . S
O84 Sc68 2.105 . S
O84 C75 1.268 . S
O85 Sc66 2.105 . S
O85 C71 1.268 . S
O86 Sc68 2.105 . S
O86 C70 1.268 . S
O87 Sc67 2.105 . S
O87 C72 1.268 . S
Sc88 O91 2.025 . S
Sc88 O98 2.105 . S
Sc88 O101 2.105 . S
Sc88 O104 2.105 . S
Sc88 O107 2.105 . S
Sc89 O91 2.025 . S
Sc89 O99 2.105 1_565 S
Sc89 O103 2.105 . S
Sc89 O105 2.105 . S
Sc89 O109 2.105 . S
Sc90 O91 2.025 . S
Sc90 O100 2.105 . S
Sc90 O102 2.105 . S
Sc90 O106 2.105 . S
Sc90 O108 2.105 . S
O91 Sc88 2.025 . S
O91 Sc89 2.025 . S
O91 Sc90 2.025 . S
C92 O98 1.268 . S
C92 O108 1.268 . S
C93 O99 1.268 1_565 S
C93 O107 1.268 . S
C94 O100 1.268 . S
C94 O109 1.268 . S
C95 O101 1.268 . S
C95 O105 1.268 . S
C96 O102 1.268 . S
C96 O104 1.268 . S
C97 O103 1.268 . S
C97 O106 1.268 . S
O98 Sc88 2.105 . S
O98 C92 1.268 . S
O99 Sc89 2.105 1_545 S
O99 C93 1.268 1_545 S
O100 Sc90 2.105 . S
O100 C94 1.268 . S
O101 Sc88 2.105 . S
O101 C95 1.268 . S
O102 Sc90 2.105 . S
O102 C96 1.268 . S
O103 Sc89 2.105 . S
O103 C97 1.268 . S
O104 Sc88 2.105 . S
O104 C96 1.268 . S
O105 Sc89 2.105 . S
O105 C95 1.268 . S
O106 Sc90 2.105 . S
O106 C97 1.268 . S
O107 Sc88 2.105 . S
O107 C93 1.268 . S
O108 Sc90 2.105 . S
O108 C92 1.268 . S
O109 Sc89 2.105 . S
O109 C94 1.268 . S
Sc110 O113 2.025 . S
Sc110 O120 2.105 . S
Sc110 O123 2.105 . S
Sc110 O126 2.105 . S
Sc110 O129 2.105 . S
Sc111 O113 2.025 . S
Sc111 O121 2.105 . S
Sc111 O125 2.105 . S
Sc111 O127 2.105 . S
Sc111 O131 2.105 . S
Sc112 O113 2.025 . S
Sc112 O122 2.105 . S
Sc112 O124 2.105 . S
Sc112 O128 2.105 . S
Sc112 O130 2.105 . S
O113 Sc110 2.025 . S
O113 Sc111 2.025 . S
O113 Sc112 2.025 . S
C114 O120 1.268 . S
C114 O130 1.268 . S
C115 O121 1.268 . S
C115 O129 1.268 . S
C116 O122 1.268 . S
C116 O131 1.268 . S
C117 O123 1.268 . S
C117 O127 1.268 . S
C118 O124 1.268 . S
C118 O126 1.268 . S
C119 O125 1.268 . S
C119 O128 1.268 . S
O120 Sc110 2.105 . S
O120 C114 1.268 . S
O121 Sc111 2.105 . S
O121 C115 1.268 . S
O122 Sc112 2.105 . S
O122 C116 1.268 . S
O123 Sc110 2.105 . S
O123 C117 1.268 . S
O124 Sc112 2.105 . S
O124 C118 1.268 . S
O125 Sc111 2.105 . S
O125 C119 1.268 . S
O126 Sc110 2.105 . S
O126 C118 1.268 . S
O127 Sc111 2.105 . S
O127 C117 1.268 . S
O128 Sc112 2.105 . S
O128 C119 1.268 . S
O129 Sc110 2.105 . S
O129 C115 1.268 . S
O130 Sc112 2.105 . S
O130 C114 1.268 . S
O131 Sc111 2.105 . S
O131 C116 1.268 . S
Sc132 O135 2.025 . S
Sc132 O142 2.105 . S
Sc132 O145 2.105 . S
Sc132 O148 2.105 . S
Sc132 O151 2.105 . S
Sc133 O135 2.025 . S
Sc133 O143 2.105 . S
Sc133 O147 2.105 . S
Sc133 O149 2.105 . S
Sc133 O153 2.105 . S
Sc134 O135 2.025 . S
Sc134 O144 2.105 . S
Sc134 O146 2.105 . S
Sc134 O150 2.105 . S
Sc134 O152 2.105 . S
O135 Sc132 2.025 . S
O135 Sc133 2.025 . S
O135 Sc134 2.025 . S
C136 O142 1.268 . S
C136 O152 1.268 . S
C137 O143 1.268 . S
C137 O151 1.268 . S
C138 O144 1.268 . S
C138 O153 1.268 . S
C139 O145 1.268 . S
C139 O149 1.268 . S
C140 O146 1.268 . S
C140 O148 1.268 . S
C141 O147 1.268 . S
C141 O150 1.268 . S
O142 Sc132 2.105 . S
O142 C136 1.268 . S
O143 Sc133 2.105 . S
O143 C137 1.268 . S
O144 Sc134 2.105 . S
O144 C138 1.268 . S
O145 Sc132 2.105 . S
O145 C139 1.268 . S
O146 Sc134 2.105 . S
O146 C140 1.268 . S
O147 Sc133 2.105 . S
O147 C141 1.268 . S
O148 Sc132 2.105 . S
O148 C140 1.268 . S
O149 Sc133 2.105 . S
O149 C139 1.268 . S
O150 Sc134 2.105 . S
O150 C141 1.268 . S
O151 Sc132 2.105 . S
O151 C137 1.268 . S
O152 Sc134 2.105 . S
O152 C136 1.268 . S
O153 Sc133 2.105 . S
O153 C138 1.268 . S
Sc154 O157 2.025 . S
Sc154 O164 2.105 . S
Sc154 O167 2.105 . S
Sc154 O170 2.105 . S
Sc154 O173 2.105 . S
Sc155 O157 2.025 . S
Sc155 O165 2.105 . S
Sc155 O169 2.105 1_655 S
Sc155 O171 2.105 . S
Sc155 O175 2.105 . S
Sc156 O157 2.025 . S
Sc156 O166 2.105 . S
Sc156 O168 2.105 . S
Sc156 O172 2.105 . S
Sc156 O174 2.105 . S
O157 Sc154 2.025 . S
O157 Sc155 2.025 . S
O157 Sc156 2.025 . S
C158 O164 1.268 . S
C158 O174 1.268 . S
C159 O165 1.268 . S
C159 O173 1.268 . S
C160 O166 1.268 . S
C160 O175 1.268 . S
C161 O167 1.268 . S
C161 O171 1.268 . S
C162 O168 1.268 . S
C162 O170 1.268 . S
C163 O169 1.268 1_655 S
C163 O172 1.268 . S
O164 Sc154 2.105 . S
O164 C158 1.268 . S
O165 Sc155 2.105 . S
O165 C159 1.268 . S
O166 Sc156 2.105 . S
O166 C160 1.268 . S
O167 Sc154 2.105 . S
O167 C161 1.268 . S
O168 Sc156 2.105 . S
O168 C162 1.268 . S
O169 Sc155 2.105 1_455 S
O169 C163 1.268 1_455 S
O170 Sc154 2.105 . S
O170 C162 1.268 . S
O171 Sc155 2.105 . S
O171 C161 1.268 . S
O172 Sc156 2.105 . S
O172 C163 1.268 . S
O173 Sc154 2.105 . S
O173 C159 1.268 . S
O174 Sc156 2.105 . S
O174 C158 1.268 . S
O175 Sc155 2.105 . S
O175 C160 1.268 . S
Sc176 O179 2.025 . S
Sc176 O186 2.105 . S
Sc176 O189 2.105 . S
Sc176 O192 2.105 . S
Sc176 O195 2.105 . S
Sc177 O179 2.025 . S
Sc177 O187 2.105 . S
Sc177 O191 2.105 . S
Sc177 O193 2.105 . S
Sc177 O197 2.105 . S
Sc178 O179 2.025 . S
Sc178 O188 2.105 . S
Sc178 O190 2.105 . S
Sc178 O194 2.105 . S
Sc178 O196 2.105 . S
O179 Sc176 2.025 . S
O179 Sc177 2.025 . S
O179 Sc178 2.025 . S
C180 O186 1.268 . S
C180 O196 1.268 . S
C181 O187 1.268 . S
C181 O195 1.268 . S
C182 O188 1.268 . S
C182 O197 1.268 . S
C183 O189 1.268 . S
C183 O193 1.268 . S
C184 O190 1.268 . S
C184 O192 1.268 . S
C185 O191 1.268 . S
C185 O194 1.268 . S
O186 Sc176 2.105 . S
O186 C180 1.268 . S
O187 Sc177 2.105 . S
O187 C181 1.268 . S
O188 Sc178 2.105 . S
O188 C182 1.268 . S
O189 Sc176 2.105 . S
O189 C183 1.268 . S
O190 Sc178 2.105 . S
O190 C184 1.268 . S
O191 Sc177 2.105 . S
O191 C185 1.268 . S
O192 Sc176 2.105 . S
O192 C184 1.268 . S
O193 Sc177 2.105 . S
O193 C183 1.268 . S
O194 Sc178 2.105 . S
O194 C185 1.268 . S
O195 Sc176 2.105 . S
O195 C181 1.268 . S
O196 Sc178 2.105 . S
O196 C180 1.268 . S
O197 Sc177 2.105 . S
O197 C182 1.268 . S
H198 C210 0.930 . S
H199 C212 0.935 . S
H200 C213 0.930 . S
H201 C217 0.959 . S
H202 C217 0.959 . S
H203 C217 0.961 . S
H204 C218 0.960 . S
H205 C218 0.961 . S
H206 C218 0.959 . S
H207 C221 0.929 . S
H208 C222 0.931 . S
H209 C224 0.930 . S
C210 H198 0.930 . S
C210 C211 1.399 . S
C210 C215 1.399 . S
C211 C210 1.399 . S
C211 C212 1.368 1_554 S
C212 H199 0.935 . S
C212 C211 1.368 1_556 S
C212 C213 1.392 . S
C213 H200 0.930 . S
C213 C212 1.392 . S
C213 C214 1.390 1_556 S
C214 C213 1.390 1_554 S
C214 C215 1.394 . S
C214 C220 1.465 1_554 S
C215 C210 1.399 . S
C215 C214 1.394 . S
C215 C216 1.516 . S
C216 C215 1.516 . S
C216 C217 1.502 . S
C216 C218 1.561 . S
C216 C219 1.526 . S
C217 H201 0.959 . S
C217 H202 0.959 . S
C217 H203 0.961 . S
C217 C216 1.502 . S
C218 H204 0.960 . S
C218 H205 0.961 . S
C218 H206 0.959 . S
C218 C216 1.561 . S
C219 C216 1.526 . S
C219 C220 1.396 1_554 S
C219 C224 1.390 . S
C220 C214 1.465 1_556 S
C220 C219 1.396 1_556 S
C220 C221 1.399 . S
C221 H207 0.929 . S
C221 C220 1.399 . S
C221 C222 1.385 . S
C222 H208 0.931 . S
C222 C221 1.385 . S
C222 C223 1.389 . S
C223 C222 1.389 . S
C223 C224 1.387 1_556 S
C224 H209 0.930 . S
C224 C219 1.390 . S
C224 C223 1.387 1_554 S
H225 C237 0.930 1_556 S
H226 C239 0.930 . S
H227 C240 0.930 . S
H228 C244 0.959 . S
H229 C244 0.959 . S
H230 C244 0.961 . S
H231 C245 0.960 . S
H232 C245 0.961 . S
H233 C245 0.959 . S
H234 C248 0.929 . S
H235 C249 0.931 . S
H236 C251 0.930 . S
C237 H225 0.930 1_554 S
C237 C238 1.399 . S
C237 C242 1.399 . S
C238 C237 1.399 . S
C238 C239 1.376 . S
C239 H226 0.930 . S
C239 C238 1.376 . S
C239 C240 1.388 . S
C240 H227 0.930 . S
C240 C239 1.388 . S
C240 C241 1.390 . S
C241 C240 1.390 . S
C241 C242 1.394 . S
C241 C247 1.465 . S
C242 C237 1.399 . S
C242 C241 1.394 . S
C242 C243 1.516 1_554 S
C243 C242 1.516 1_556 S
C243 C244 1.502 . S
C243 C245 1.561 . S
C243 C246 1.526 . S
C244 H228 0.959 . S
C244 H229 0.959 . S
C244 H230 0.961 . S
C244 C243 1.502 . S
C245 H231 0.960 . S
C245 H232 0.961 . S
C245 H233 0.959 . S
C245 C243 1.561 . S
C246 C243 1.526 . S
C246 C247 1.396 1_556 S
C246 C251 1.390 . S
C247 C241 1.465 . S
C247 C246 1.396 1_554 S
C247 C248 1.399 . S
C248 H234 0.929 . S
C248 C247 1.399 . S
C248 C249 1.385 . S
C249 H235 0.931 . S
C249 C248 1.385 . S
C249 C250 1.389 1_554 S
C250 C249 1.389 1_556 S
C250 C251 1.387 . S
C251 H236 0.930 . S
C251 C246 1.390 . S
C251 C250 1.387 . S
H252 C264 0.930 . S
H253 C266 0.930 . S
H254 C267 0.930 . S
H255 C271 0.959 . S
H256 C271 0.959 . S
H257 C271 0.961 . S
H258 C272 0.960 . S
H259 C272 0.961 . S
H260 C272 0.959 . S
H261 C275 0.929 . S
H262 C276 0.931 1_556 S
H263 C278 0.930 . S
C264 H252 0.930 . S
C264 C265 1.399 1_554 S
C264 C269 1.399 . S
C265 C264 1.399 1_556 S
C265 C266 1.376 . S
C266 H253 0.930 . S
C266 C265 1.376 . S
C266 C267 1.388 . S
C267 H254 0.930 . S
C267 C266 1.388 . S
C267 C268 1.390 . S
C268 C267 1.390 . S
C268 C269 1.394 1_556 S
C268 C274 1.465 1_556 S
C269 C264 1.399 . S
C269 C268 1.394 1_554 S
C269 C270 1.516 . S
C270 C269 1.516 . S
C270 C271 1.502 . S
C270 C272 1.561 . S
C270 C273 1.526 . S
C271 H255 0.959 . S
C271 H256 0.959 . S
C271 H257 0.961 . S
C271 C270 1.502 . S
C272 H258 0.960 . S
C272 H259 0.961 . S
C272 H260 0.959 . S
C272 C270 1.561 . S
C273 C270 1.526 . S
C273 C274 1.396 . S
C273 C278 1.390 . S
C274 C268 1.465 1_554 S
C274 C273 1.396 . S
C274 C275 1.399 1_554 S
C275 H261 0.929 . S
C275 C274 1.399 1_556 S
C275 C276 1.385 1_556 S
C276 H262 0.931 1_554 S
C276 C275 1.385 1_554 S
C276 C277 1.389 . S
C277 C276 1.389 . S
C277 C278 1.387 . S
C278 H263 0.930 . S
C278 C273 1.390 . S
C278 C277 1.387 . S
H279 C291 0.930 . S
H280 C293 0.930 . S
H281 C294 0.930 . S
H282 C298 0.959 . S
H283 C298 0.959 . S
H284 C298 0.961 . S
H285 C299 0.960 . S
H286 C299 0.961 . S
H287 C299 0.959 . S
H288 C302 0.929 . S
H289 C303 0.931 . S
H290 C305 0.916 1_554 S
C291 H279 0.930 . S
C291 C292 1.399 . S
C291 C296 1.399 . S
C292 C291 1.399 . S
C292 C293 1.376 1_554 S
C293 H280 0.930 . S
C293 C292 1.376 1_556 S
C293 C294 1.388 . S
C294 H281 0.930 . S
C294 C293 1.388 . S
C294 C295 1.390 . S
C295 C294 1.390 . S
C295 C296 1.394 1_556 S
C295 C301 1.465 . S
C296 C291 1.399 . S
C296 C295 1.394 1_554 S
C296 C297 1.516 . S
C297 C296 1.516 . S
C297 C298 1.502 . S
C297 C299 1.561 . S
C297 C300 1.526 . S
C298 H282 0.959 . S
C298 H283 0.959 . S
C298 H284 0.961 . S
C298 C297 1.502 . S
C299 H285 0.960 . S
C299 H286 0.961 . S
C299 H287 0.959 . S
C299 C297 1.561 . S
C300 C297 1.526 . S
C300 C301 1.396 1_554 S
C300 C305 1.387 1_554 S
C301 C295 1.465 . S
C301 C300 1.396 1_556 S
C301 C302 1.399 . S
C302 H288 0.929 . S
C302 C301 1.399 . S
C302 C303 1.385 . S
C303 H289 0.931 . S
C303 C302 1.385 . S
C303 C304 1.389 . S
C304 C303 1.389 . S
C304 C305 1.404 . S
C305 H290 0.916 1_556 S
C305 C300 1.387 1_556 S
C305 C304 1.404 . S
H306 C318 0.930 . S
H307 C320 0.930 . S
H308 C321 0.930 . S
H309 C325 0.959 . S
H310 C325 0.959 . S
H311 C325 0.961 . S
H312 C326 0.960 . S
H313 C326 0.961 . S
H314 C326 0.959 . S
H315 C329 0.929 . S
H316 C330 0.931 . S
H317 C332 0.930 . S
C318 H306 0.930 . S
C318 C319 1.399 1_554 S
C318 C323 1.399 . S
C319 C318 1.399 1_556 S
C319 C320 1.376 . S
C320 H307 0.930 . S
C320 C319 1.376 . S
C320 C321 1.388 . S
C321 H308 0.930 . S
C321 C320 1.388 . S
C321 C322 1.390 . S
C322 C321 1.390 . S
C322 C323 1.394 1_556 S
C322 C328 1.465 . S
C323 C318 1.399 . S
C323 C322 1.394 1_554 S
C323 C324 1.516 . S
C324 C323 1.516 . S
C324 C325 1.502 . S
C324 C326 1.561 . S
C324 C327 1.526 . S
C325 H309 0.959 . S
C325 H310 0.959 . S
C325 H311 0.961 . S
C325 C324 1.502 . S
C326 H312 0.960 . S
C326 H313 0.961 . S
C326 H314 0.959 . S
C326 C324 1.561 . S
C327 C324 1.526 . S
C327 C328 1.396 1_554 S
C327 C332 1.390 . S
C328 C322 1.465 . S
C328 C327 1.396 1_556 S
C328 C329 1.399 . S
C329 H315 0.929 . S
C329 C328 1.399 . S
C329 C330 1.385 . S
C330 H316 0.931 . S
C330 C329 1.385 . S
C330 C331 1.389 1_556 S
C331 C330 1.389 1_554 S
C331 C332 1.387 . S
C332 H317 0.930 . S
C332 C327 1.390 . S
C332 C331 1.387 . S
H333 C345 0.930 . S
H334 C347 0.937 . S
H335 C348 0.930 . S
H336 C352 0.959 . S
H337 C352 0.959 . S
H338 C352 0.961 . S
H339 C353 0.960 1_556 S
H340 C353 0.961 . S
H341 C353 0.959 . S
H342 C356 0.929 . S
H343 C357 0.931 . S
H344 C359 0.928 1_556 S
C345 H333 0.930 . S
C345 C346 1.399 . S
C345 C350 1.399 . S
C346 C345 1.399 . S
C346 C347 1.376 . S
C347 H334 0.937 . S
C347 C346 1.376 . S
C347 C348 1.388 1_556 S
C348 H335 0.930 . S
C348 C347 1.388 1_554 S
C348 C349 1.390 . S
C349 C348 1.390 . S
C349 C350 1.394 1_554 S
C349 C355 1.465 . S
C350 C345 1.399 . S
C350 C349 1.394 1_556 S
C350 C351 1.516 . S
C351 C350 1.516 . S
C351 C352 1.502 . S
C351 C353 1.561 1_556 S
C351 C354 1.526 1_556 S
C352 H336 0.959 . S
C352 H337 0.959 . S
C352 H338 0.961 . S
C352 C351 1.502 . S
C353 H339 0.960 1_554 S
C353 H340 0.961 . S
C353 H341 0.959 . S
C353 C351 1.561 1_554 S
C354 C351 1.526 1_554 S
C354 C355 1.396 . S
C354 C359 1.390 . S
C355 C349 1.465 . S
C355 C354 1.396 . S
C355 C356 1.399 . S
C356 H342 0.929 . S
C356 C355 1.399 . S
C356 C357 1.385 . S
C357 H343 0.931 . S
C357 C356 1.385 . S
C357 C358 1.389 . S
C358 C357 1.389 . S
C358 C359 1.387 . S
C359 H344 0.928 1_554 S
C359 C354 1.390 . S
C359 C358 1.387 . S
H360 C372 0.930 . S
H361 C374 0.930 . S
H362 C375 0.930 . S
H363 C379 0.959 . S
H364 C379 0.959 . S
H365 C379 0.961 . S
H366 C380 0.960 . S
H367 C380 0.961 . S
H368 C380 0.959 . S
H369 C383 0.929 . S
H370 C384 0.931 . S
H371 C386 0.930 . S
C372 H360 0.930 . S
C372 C373 1.399 . S
C372 C377 1.399 . S
C373 C372 1.399 . S
C373 C374 1.376 . S
C374 H361 0.930 . S
C374 C373 1.376 . S
C374 C375 1.388 . S
C375 H362 0.930 . S
C375 C374 1.388 . S
C375 C376 1.390 . S
C376 C375 1.390 . S
C376 C377 1.394 . S
C376 C382 1.465 . S
C377 C372 1.399 . S
C377 C376 1.394 . S
C377 C378 1.516 . S
C378 C377 1.516 . S
C378 C379 1.502 . S
C378 C380 1.561 . S
C378 C381 1.526 . S
C379 H363 0.959 . S
C379 H364 0.959 . S
C379 H365 0.961 . S
C379 C378 1.502 . S
C380 H366 0.960 . S
C380 H367 0.961 . S
C380 H368 0.959 . S
C380 C378 1.561 . S
C381 C378 1.526 . S
C381 C382 1.396 . S
C381 C386 1.390 1_655 S
C382 C376 1.465 . S
C382 C381 1.396 . S
C382 C383 1.399 1_655 S
C383 H369 0.929 . S
C383 C382 1.399 1_455 S
C383 C384 1.385 . S
C384 H370 0.931 . S
C384 C383 1.385 . S
C384 C385 1.389 . S
C385 C384 1.389 . S
C385 C386 1.387 . S
C386 H371 0.930 . S
C386 C381 1.390 1_455 S
C386 C385 1.387 . S
H387 C399 0.930 . S
H388 C401 0.930 . S
H389 C402 0.930 . S
H390 C406 0.959 . S
H391 C406 0.959 . S
H392 C406 0.961 . S
H393 C407 0.960 . S
H394 C407 0.961 . S
H395 C407 0.959 . S
H396 C410 0.929 . S
H397 C411 0.931 . S
H398 C413 0.930 . S
C399 H387 0.930 . S
C399 C400 1.399 . S
C399 C404 1.399 . S
C400 C399 1.399 . S
C400 C401 1.376 . S
C401 H388 0.930 . S
C401 C400 1.376 . S
C401 C402 1.388 . S
C402 H389 0.930 . S
C402 C401 1.388 . S
C402 C403 1.390 . S
C403 C402 1.390 . S
C403 C404 1.394 . S
C403 C409 1.465 . S
C404 C399 1.399 . S
C404 C403 1.394 . S
C404 C405 1.516 . S
C405 C404 1.516 . S
C405 C406 1.502 . S
C405 C407 1.561 . S
C405 C408 1.526 . S
C406 H390 0.959 . S
C406 H391 0.959 . S
C406 H392 0.961 . S
C406 C405 1.502 . S
C407 H393 0.960 . S
C407 H394 0.961 . S
C407 H395 0.959 . S
C407 C405 1.561 . S
C408 C405 1.526 . S
C408 C409 1.396 . S
C408 C413 1.390 . S
C409 C403 1.465 . S
C409 C408 1.396 . S
C409 C410 1.399 . S
C410 H396 0.929 . S
C410 C409 1.399 . S
C410 C411 1.385 . S
C411 H397 0.931 . S
C411 C410 1.385 . S
C411 C412 1.389 . S
C412 C411 1.389 . S
C412 C413 1.387 . S
C413 H398 0.930 . S
C413 C408 1.390 . S
C413 C412 1.387 . S
H414 C426 0.930 . S
H415 C428 0.930 . S
H416 C429 0.930 . S
H417 C433 0.959 . S
H418 C433 0.959 . S
H419 C433 0.961 . S
H420 C434 0.960 . S
H421 C434 0.961 . S
H422 C434 0.959 . S
H423 C437 0.929 . S
H424 C438 0.931 . S
H425 C440 0.930 . S
C426 H414 0.930 . S
C426 C427 1.399 . S
C426 C431 1.399 . S
C427 C426 1.399 . S
C427 C428 1.376 . S
C428 H415 0.930 . S
C428 C427 1.376 . S
C428 C429 1.388 . S
C429 H416 0.930 . S
C429 C428 1.388 . S
C429 C430 1.390 . S
C430 C429 1.390 . S
C430 C431 1.394 . S
C430 C436 1.465 . S
C431 C426 1.399 . S
C431 C430 1.394 . S
C431 C432 1.516 . S
C432 C431 1.516 . S
C432 C433 1.502 . S
C432 C434 1.561 . S
C432 C435 1.526 . S
C433 H417 0.959 . S
C433 H418 0.959 . S
C433 H419 0.961 . S
C433 C432 1.502 . S
C434 H420 0.960 . S
C434 H421 0.961 . S
C434 H422 0.959 . S
C434 C432 1.561 . S
C435 C432 1.526 . S
C435 C436 1.396 . S
C435 C440 1.390 1_545 S
C436 C430 1.465 . S
C436 C435 1.396 . S
C436 C437 1.399 . S
C437 H423 0.929 . S
C437 C436 1.399 . S
C437 C438 1.385 1_545 S
C438 H424 0.931 . S
C438 C437 1.385 1_565 S
C438 C439 1.389 . S
C439 C438 1.389 . S
C439 C440 1.387 . S
C440 H425 0.930 . S
C440 C435 1.390 1_565 S
C440 C439 1.387 . S
H441 C453 0.930 . S
H442 C455 0.930 . S
H443 C456 0.930 . S
H444 C460 0.959 . S
H445 C460 0.959 . S
H446 C460 0.961 . S
H447 C461 0.960 . S
H448 C461 0.961 . S
H449 C461 0.959 . S
H450 C464 0.929 . S
H451 C465 0.931 . S
H452 C467 0.930 . S
C453 H441 0.930 . S
C453 C454 1.399 . S
C453 C458 1.399 . S
C454 C453 1.399 . S
C454 C455 1.376 . S
C455 H442 0.930 . S
C455 C454 1.376 . S
C455 C456 1.388 . S
C456 H443 0.930 . S
C456 C455 1.388 . S
C456 C457 1.390 . S
C457 C456 1.390 . S
C457 C458 1.394 . S
C457 C463 1.465 . S
C458 C453 1.399 . S
C458 C457 1.394 . S
C458 C459 1.516 . S
C459 C458 1.516 . S
C459 C460 1.502 . S
C459 C461 1.561 . S
C459 C462 1.526 . S
C460 H444 0.959 . S
C460 H445 0.959 . S
C460 H446 0.961 . S
C460 C459 1.502 . S
C461 H447 0.960 . S
C461 H448 0.961 . S
C461 H449 0.959 . S
C461 C459 1.561 . S
C462 C459 1.526 . S
C462 C463 1.396 . S
C462 C467 1.390 . S
C463 C457 1.465 . S
C463 C462 1.396 . S
C463 C464 1.399 . S
C464 H450 0.929 . S
C464 C463 1.399 . S
C464 C465 1.385 . S
C465 H451 0.931 . S
C465 C464 1.385 . S
C465 C466 1.389 . S
C466 C465 1.389 . S
C466 C467 1.387 . S
C467 H452 0.930 . S
C467 C462 1.390 . S
C467 C466 1.387 . S
H468 C480 0.930 . S
H469 C482 0.930 . S
H470 C483 0.930 . S
H471 C487 0.959 . S
H472 C487 0.959 . S
H473 C487 0.961 . S
H474 C488 0.960 . S
H475 C488 0.961 . S
H476 C488 0.959 . S
H477 C491 0.929 . S
H478 C492 0.931 . S
H479 C494 0.930 . S
C480 H468 0.930 . S
C480 C481 1.399 . S
C480 C485 1.399 . S
C481 C480 1.399 . S
C481 C482 1.376 . S
C482 H469 0.930 . S
C482 C481 1.376 . S
C482 C483 1.388 . S
C483 H470 0.930 . S
C483 C482 1.388 . S
C483 C484 1.390 . S
C484 C483 1.390 . S
C484 C485 1.394 . S
C484 C490 1.465 . S
C485 C480 1.399 . S
C485 C484 1.394 . S
C485 C486 1.516 . S
C486 C485 1.516 . S
C486 C487 1.502 . S
C486 C488 1.561 . S
C486 C489 1.526 . S
C487 H471 0.959 . S
C487 H472 0.959 . S
C487 H473 0.961 . S
C487 C486 1.502 . S
C488 H474 0.960 . S
C488 H475 0.961 . S
C488 H476 0.959 . S
C488 C486 1.561 . S
C489 C486 1.526 . S
C489 C490 1.396 . S
C489 C494 1.390 . S
C490 C484 1.465 . S
C490 C489 1.396 . S
C490 C491 1.399 . S
C491 H477 0.929 . S
C491 C490 1.399 . S
C491 C492 1.385 . S
C492 H478 0.931 . S
C492 C491 1.385 . S
C492 C493 1.389 . S
C493 C492 1.389 . S
C493 C494 1.387 . S
C494 H479 0.930 . S
C494 C489 1.390 . S
C494 C493 1.387 . S
H495 C507 0.930 . S
H496 C509 0.930 . S
H497 C510 0.930 . S
H498 C514 0.959 . S
H499 C514 0.959 . S
H500 C514 0.961 . S
H501 C515 0.960 . S
H502 C515 0.961 . S
H503 C515 0.959 . S
H504 C518 0.929 . S
H505 C519 0.931 . S
H506 C521 0.930 . S
C507 H495 0.930 . S
C507 C508 1.399 . S
C507 C512 1.399 . S
C508 C507 1.399 . S
C508 C509 1.376 . S
C509 H496 0.930 . S
C509 C508 1.376 . S
C509 C510 1.388 . S
C510 H497 0.930 . S
C510 C509 1.388 . S
C510 C511 1.390 . S
C511 C510 1.390 . S
C511 C512 1.394 . S
C511 C517 1.465 . S
C512 C507 1.399 . S
C512 C511 1.394 . S
C512 C513 1.516 . S
C513 C512 1.516 . S
C513 C514 1.502 . S
C513 C515 1.561 . S
C513 C516 1.526 . S
C514 H498 0.959 . S
C514 H499 0.959 . S
C514 H500 0.961 . S
C514 C513 1.502 . S
C515 H501 0.960 . S
C515 H502 0.961 . S
C515 H503 0.959 . S
C515 C513 1.561 . S
C516 C513 1.526 . S
C516 C517 1.396 . S
C516 C521 1.390 . S
C517 C511 1.465 . S
C517 C516 1.396 . S
C517 C518 1.399 . S
C518 H504 0.929 . S
C518 C517 1.399 . S
C518 C519 1.385 . S
C519 H505 0.931 . S
C519 C518 1.385 . S
C519 C520 1.389 . S
C520 C519 1.389 . S
C520 C521 1.387 . S
C521 H506 0.930 . S
C521 C516 1.390 . S
C521 C520 1.387 . S
H522 C534 0.930 . S
H523 C536 0.930 . S
H524 C537 0.930 . S
H525 C541 0.959 . S
H526 C541 0.959 . S
H527 C541 0.961 . S
H528 C542 0.960 . S
H529 C542 0.961 . S
H530 C542 0.959 . S
H531 C545 0.929 . S
H532 C546 0.931 . S
H533 C548 0.930 . S
C534 H522 0.930 . S
C534 C535 1.399 . S
C534 C539 1.399 . S
C535 C534 1.399 . S
C535 C536 1.376 . S
C536 H523 0.930 . S
C536 C535 1.376 . S
C536 C537 1.388 . S
C537 H524 0.930 . S
C537 C536 1.388 . S
C537 C538 1.390 . S
C538 C537 1.390 . S
C538 C539 1.394 . S
C538 C544 1.465 . S
C539 C534 1.399 . S
C539 C538 1.394 . S
C539 C540 1.516 . S
C540 C539 1.516 . S
C540 C541 1.502 . S
C540 C542 1.561 . S
C540 C543 1.526 . S
C541 H525 0.959 . S
C541 H526 0.959 . S
C541 H527 0.961 . S
C541 C540 1.502 . S
C542 H528 0.960 . S
C542 H529 0.961 . S
C542 H530 0.959 . S
C542 C540 1.561 . S
C543 C540 1.526 . S
C543 C544 1.396 . S
C543 C548 1.390 . S
C544 C538 1.465 . S
C544 C543 1.396 . S
C544 C545 1.399 . S
C545 H531 0.929 . S
C545 C544 1.399 . S
C545 C546 1.385 . S
C546 H532 0.931 . S
C546 C545 1.385 . S
C546 C547 1.389 . S
C547 C546 1.389 . S
C547 C548 1.387 . S
C548 H533 0.930 . S
C548 C543 1.390 . S
C548 C547 1.387 . S
H549 C561 0.930 . S
H550 C563 0.930 . S
H551 C564 0.930 . S
H552 C568 0.959 . S
H553 C568 0.959 . S
H554 C568 0.961 . S
H555 C569 0.960 . S
H556 C569 0.961 . S
H557 C569 0.959 . S
H558 C572 0.929 . S
H559 C573 0.931 . S
H560 C575 0.930 . S
C561 H549 0.930 . S
C561 C562 1.399 . S
C561 C566 1.399 . S
C562 C561 1.399 . S
C562 C563 1.376 . S
C563 H550 0.930 . S
C563 C562 1.376 . S
C563 C564 1.388 . S
C564 H551 0.930 . S
C564 C563 1.388 . S
C564 C565 1.390 . S
C565 C564 1.390 . S
C565 C566 1.394 . S
C565 C571 1.465 . S
C566 C561 1.399 . S
C566 C565 1.394 . S
C566 C567 1.516 . S
C567 C566 1.516 . S
C567 C568 1.502 . S
C567 C569 1.561 . S
C567 C570 1.526 . S
C568 H552 0.959 . S
C568 H553 0.959 . S
C568 H554 0.961 . S
C568 C567 1.502 . S
C569 H555 0.960 . S
C569 H556 0.961 . S
C569 H557 0.959 . S
C569 C567 1.561 . S
C570 C567 1.526 . S
C570 C571 1.396 . S
C570 C575 1.390 . S
C571 C565 1.465 . S
C571 C570 1.396 . S
C571 C572 1.399 . S
C572 H558 0.929 . S
C572 C571 1.399 . S
C572 C573 1.385 . S
C573 H559 0.931 . S
C573 C572 1.385 . S
C573 C574 1.389 . S
C574 C573 1.389 . S
C574 C575 1.387 . S
C575 H560 0.930 . S
C575 C570 1.390 . S
C575 C574 1.387 . S
H576 C588 0.930 . S
H577 C590 0.930 . S
H578 C591 0.930 . S
H579 C595 0.959 . S
H580 C595 0.959 . S
H581 C595 0.961 . S
H582 C596 0.960 . S
H583 C596 0.961 . S
H584 C596 0.959 . S
H585 C599 0.929 . S
H586 C600 0.931 . S
H587 C602 0.930 . S
C588 H576 0.930 . S
C588 C589 1.399 . S
C588 C593 1.399 . S
C589 C588 1.399 . S
C589 C590 1.376 . S
C590 H577 0.930 . S
C590 C589 1.376 . S
C590 C591 1.388 . S
C591 H578 0.930 . S
C591 C590 1.388 . S
C591 C592 1.390 . S
C592 C591 1.390 . S
C592 C593 1.394 . S
C592 C598 1.465 . S
C593 C588 1.399 . S
C593 C592 1.394 . S
C593 C594 1.516 . S
C594 C593 1.516 . S
C594 C595 1.502 . S
C594 C596 1.561 . S
C594 C597 1.526 . S
C595 H579 0.959 . S
C595 H580 0.959 . S
C595 H581 0.961 . S
C595 C594 1.502 . S
C596 H582 0.960 . S
C596 H583 0.961 . S
C596 H584 0.959 . S
C596 C594 1.561 . S
C597 C594 1.526 . S
C597 C598 1.396 . S
C597 C602 1.390 . S
C598 C592 1.465 . S
C598 C597 1.396 . S
C598 C599 1.399 . S
C599 H585 0.929 . S
C599 C598 1.399 . S
C599 C600 1.385 . S
C600 H586 0.931 . S
C600 C599 1.385 . S
C600 C601 1.389 . S
C601 C600 1.389 . S
C601 C602 1.387 . S
C602 H587 0.930 . S
C602 C597 1.390 . S
C602 C601 1.387 . S
H603 C615 0.930 . S
H604 C617 0.930 . S
H605 C618 0.930 . S
H606 C622 0.959 . S
H607 C622 0.959 . S
H608 C622 0.961 . S
H609 C623 0.960 . S
H610 C623 0.961 . S
H611 C623 0.959 . S
H612 C626 0.929 . S
H613 C627 0.931 . S
H614 C629 0.930 . S
C615 H603 0.930 . S
C615 C616 1.399 . S
C615 C620 1.399 . S
C616 C615 1.399 . S
C616 C617 1.376 . S
C617 H604 0.930 . S
C617 C616 1.376 . S
C617 C618 1.388 . S
C618 H605 0.930 . S
C618 C617 1.388 . S
C618 C619 1.390 . S
C619 C618 1.390 . S
C619 C620 1.394 . S
C619 C625 1.465 . S
C620 C615 1.399 . S
C620 C619 1.394 . S
C620 C621 1.516 . S
C621 C620 1.516 . S
C621 C622 1.502 . S
C621 C623 1.561 . S
C621 C624 1.526 . S
C622 H606 0.959 . S
C622 H607 0.959 . S
C622 H608 0.961 . S
C622 C621 1.502 . S
C623 H609 0.960 . S
C623 H610 0.961 . S
C623 H611 0.959 . S
C623 C621 1.561 . S
C624 C621 1.526 . S
C624 C625 1.396 . S
C624 C629 1.390 1_565 S
C625 C619 1.465 . S
C625 C624 1.396 . S
C625 C626 1.399 1_565 S
C626 H612 0.929 . S
C626 C625 1.399 1_545 S
C626 C627 1.385 . S
C627 H613 0.931 . S
C627 C626 1.385 . S
C627 C628 1.389 . S
C628 C627 1.389 . S
C628 C629 1.387 . S
C629 H614 0.930 . S
C629 C624 1.390 1_545 S
C629 C628 1.387 . S
H630 C642 0.930 . S
H631 C644 0.930 . S
H632 C645 0.930 . S
H633 C649 0.959 . S
H634 C649 0.959 . S
H635 C649 0.961 . S
H636 C650 0.960 . S
H637 C650 0.961 . S
H638 C650 0.959 . S
H639 C653 0.929 . S
H640 C654 0.931 . S
H641 C656 0.930 . S
C642 H630 0.930 . S
C642 C643 1.399 . S
C642 C647 1.399 1_655 S
C643 C642 1.399 . S
C643 C644 1.376 . S
C644 H631 0.930 . S
C644 C643 1.376 . S
C644 C645 1.388 . S
C645 H632 0.930 . S
C645 C644 1.388 . S
C645 C646 1.390 1_655 S
C646 C645 1.390 1_455 S
C646 C647 1.394 . S
C646 C652 1.465 . S
C647 C642 1.399 1_455 S
C647 C646 1.394 . S
C647 C648 1.516 . S
C648 C647 1.516 . S
C648 C649 1.502 . S
C648 C650 1.561 . S
C648 C651 1.526 . S
C649 H633 0.959 . S
C649 H634 0.959 . S
C649 H635 0.961 . S
C649 C648 1.502 . S
C650 H636 0.960 . S
C650 H637 0.961 . S
C650 H638 0.959 . S
C650 C648 1.561 . S
C651 C648 1.526 . S
C651 C652 1.396 . S
C651 C656 1.390 . S
C652 C646 1.465 . S
C652 C651 1.396 . S
C652 C653 1.399 . S
C653 H639 0.929 . S
C653 C652 1.399 . S
C653 C654 1.385 . S
C654 H640 0.931 . S
C654 C653 1.385 . S
C654 C655 1.389 . S
C655 C654 1.389 . S
C655 C656 1.387 . S
C656 H641 0.930 . S
C656 C651 1.390 . S
C656 C655 1.387 . S
H657 C669 0.930 . S
H658 C671 0.930 . S
H659 C672 0.930 . S
H660 C676 0.959 . S
H661 C676 0.959 . S
H662 C676 0.961 . S
H663 C677 0.960 . S
H664 C677 0.961 . S
H665 C677 0.959 . S
H666 C680 0.929 . S
H667 C681 0.931 1_655 S
H668 C683 0.930 . S
C669 H657 0.930 . S
C669 C670 1.399 . S
C669 C674 1.399 . S
C670 C669 1.399 . S
C670 C671 1.376 . S
C671 H658 0.930 . S
C671 C670 1.376 . S
C671 C672 1.388 . S
C672 H659 0.930 . S
C672 C671 1.388 . S
C672 C673 1.390 . S
C673 C672 1.390 . S
C673 C674 1.394 . S
C673 C679 1.465 . S
C674 C669 1.399 . S
C674 C673 1.394 . S
C674 C675 1.516 . S
C675 C674 1.516 . S
C675 C676 1.502 . S
C675 C677 1.561 . S
C675 C678 1.526 . S
C676 H660 0.959 . S
C676 H661 0.959 . S
C676 H662 0.961 . S
C676 C675 1.502 . S
C677 H663 0.960 . S
C677 H664 0.961 . S
C677 H665 0.959 . S
C677 C675 1.561 . S
C678 C675 1.526 . S
C678 C679 1.396 . S
C678 C683 1.390 . S
C679 C673 1.465 . S
C679 C678 1.396 . S
C679 C680 1.399 . S
C680 H666 0.929 . S
C680 C679 1.399 . S
C680 C681 1.385 . S
C681 H667 0.931 1_455 S
C681 C680 1.385 . S
C681 C682 1.389 . S
C682 C681 1.389 . S
C682 C683 1.387 . S
C683 H668 0.930 . S
C683 C678 1.390 . S
C683 C682 1.387 . S
H684 C696 0.930 . S
H685 C698 0.930 . S
H686 C699 0.930 . S
H687 C703 0.959 . S
H688 C703 0.959 . S
H689 C703 0.961 . S
H690 C704 0.960 . S
H691 C704 0.961 . S
H692 C704 0.959 . S
H693 C707 0.929 . S
H694 C708 0.931 . S
H695 C710 0.930 . S
C696 H684 0.930 . S
C696 C697 1.399 . S
C696 C701 1.399 . S
C697 C696 1.399 . S
C697 C698 1.376 . S
C698 H685 0.930 . S
C698 C697 1.376 . S
C698 C699 1.388 . S
C699 H686 0.930 . S
C699 C698 1.388 . S
C699 C700 1.390 . S
C700 C699 1.390 . S
C700 C701 1.394 . S
C700 C706 1.465 . S
C701 C696 1.399 . S
C701 C700 1.394 . S
C701 C702 1.516 . S
C702 C701 1.516 . S
C702 C703 1.502 . S
C702 C704 1.561 . S
C702 C705 1.526 . S
C703 H687 0.959 . S
C703 H688 0.959 . S
C703 H689 0.961 . S
C703 C702 1.502 . S
C704 H690 0.960 . S
C704 H691 0.961 . S
C704 H692 0.959 . S
C704 C702 1.561 . S
C705 C702 1.526 . S
C705 C706 1.396 . S
C705 C710 1.390 . S
C706 C700 1.465 . S
C706 C705 1.396 . S
C706 C707 1.399 . S
C707 H693 0.929 . S
C707 C706 1.399 . S
C707 C708 1.385 . S
C708 H694 0.931 . S
C708 C707 1.385 . S
C708 C709 1.389 . S
C709 C708 1.389 . S
C709 C710 1.387 . S
C710 H695 0.930 . S
C710 C705 1.390 . S
C710 C709 1.387 . S
H711 C723 0.930 . S
H712 C725 0.930 . S
H713 C726 0.930 . S
H714 C730 0.959 . S
H715 C730 0.959 . S
H716 C730 0.961 . S
H717 C731 0.960 . S
H718 C731 0.961 . S
H719 C731 0.959 . S
H720 C734 0.929 . S
H721 C735 0.931 . S
H722 C737 0.930 . S
C723 H711 0.930 . S
C723 C724 1.399 . S
C723 C728 1.399 . S
C724 C723 1.399 . S
C724 C725 1.376 . S
C725 H712 0.930 . S
C725 C724 1.376 . S
C725 C726 1.388 . S
C726 H713 0.930 . S
C726 C725 1.388 . S
C726 C727 1.390 . S
C727 C726 1.390 . S
C727 C728 1.394 . S
C727 C733 1.465 . S
C728 C723 1.399 . S
C728 C727 1.394 . S
C728 C729 1.516 . S
C729 C728 1.516 . S
C729 C730 1.502 . S
C729 C731 1.561 . S
C729 C732 1.526 . S
C730 H714 0.959 . S
C730 H715 0.959 . S
C730 H716 0.961 . S
C730 C729 1.502 . S
C731 H717 0.960 . S
C731 H718 0.961 . S
C731 H719 0.959 . S
C731 C729 1.561 . S
C732 C729 1.526 . S
C732 C733 1.396 . S
C732 C737 1.390 . S
C733 C727 1.465 . S
C733 C732 1.396 . S
C733 C734 1.399 . S
C734 H720 0.929 . S
C734 C733 1.399 . S
C734 C735 1.385 . S
C735 H721 0.931 . S
C735 C734 1.385 . S
C735 C736 1.389 . S
C736 C735 1.389 . S
C736 C737 1.387 . S
C737 H722 0.930 . S
C737 C732 1.390 . S
C737 C736 1.387 . S
H738 C750 0.930 . S
H739 C752 0.930 . S
H740 C753 0.930 . S
H741 C757 0.959 . S
H742 C757 0.959 . S
H743 C757 0.961 . S
H744 C758 0.960 . S
H745 C758 0.961 . S
H746 C758 0.959 . S
H747 C761 0.929 1_545 S
H748 C762 0.931 . S
H749 C764 0.930 . S
C750 H738 0.930 . S
C750 C751 1.399 . S
C750 C755 1.399 . S
C751 C750 1.399 . S
C751 C752 1.376 1_565 S
C752 H739 0.930 . S
C752 C751 1.376 1_545 S
C752 C753 1.388 . S
C753 H740 0.930 . S
C753 C752 1.388 . S
C753 C754 1.390 1_545 S
C754 C753 1.390 1_565 S
C754 C755 1.394 . S
C754 C760 1.465 . S
C755 C750 1.399 . S
C755 C754 1.394 . S
C755 C756 1.516 . S
C756 C755 1.516 . S
C756 C757 1.502 . S
C756 C758 1.561 . S
C756 C759 1.526 . S
C757 H741 0.959 . S
C757 H742 0.959 . S
C757 H743 0.961 . S
C757 C756 1.502 . S
C758 H744 0.960 . S
C758 H745 0.961 . S
C758 H746 0.959 . S
C758 C756 1.561 . S
C759 C756 1.526 . S
C759 C760 1.396 . S
C759 C764 1.390 . S
C760 C754 1.465 . S
C760 C759 1.396 . S
C760 C761 1.399 . S
C761 H747 0.929 1_565 S
C761 C760 1.399 . S
C761 C762 1.385 . S
C762 H748 0.931 . S
C762 C761 1.385 . S
C762 C763 1.389 . S
C763 C762 1.389 . S
C763 C764 1.387 . S
C764 H749 0.930 . S
C764 C759 1.390 . S
C764 C763 1.387 . S
H765 C777 0.930 1_565 S
H766 C779 0.930 . S
H767 C780 0.930 . S
H768 C784 0.959 . S
H769 C784 0.959 . S
H770 C784 0.961 . S
H771 C785 0.960 . S
H772 C785 0.961 . S
H773 C785 0.959 1_545 S
H774 C788 0.929 . S
H775 C789 0.931 . S
H776 C791 0.930 . S
C777 H765 0.930 1_545 S
C777 C778 1.399 . S
C777 C782 1.399 . S
C778 C777 1.399 . S
C778 C779 1.376 . S
C779 H766 0.930 . S
C779 C778 1.376 . S
C779 C780 1.388 . S
C780 H767 0.930 . S
C780 C779 1.388 . S
C780 C781 1.390 . S
C781 C780 1.390 . S
C781 C782 1.394 . S
C781 C787 1.465 . S
C782 C777 1.399 . S
C782 C781 1.394 . S
C782 C783 1.516 . S
C783 C782 1.516 . S
C783 C784 1.502 1_545 S
C783 C785 1.561 1_545 S
C783 C786 1.526 . S
C784 H768 0.959 . S
C784 H769 0.959 . S
C784 H770 0.961 . S
C784 C783 1.502 1_565 S
C785 H771 0.960 . S
C785 H772 0.961 . S
C785 H773 0.959 1_565 S
C785 C783 1.561 1_565 S
C786 C783 1.526 . S
C786 C787 1.396 . S
C786 C791 1.390 . S
C787 C781 1.465 . S
C787 C786 1.396 . S
C787 C788 1.399 . S
C788 H774 0.929 . S
C788 C787 1.399 . S
C788 C789 1.385 . S
C789 H775 0.931 . S
C789 C788 1.385 . S
C789 C790 1.389 . S
C790 C789 1.389 . S
C790 C791 1.387 . S
C791 H776 0.930 . S
C791 C786 1.390 . S
C791 C790 1.387 . S
H792 C804 0.930 . S
H793 C806 0.930 . S
H794 C807 0.930 . S
H795 C811 0.959 . S
H796 C811 0.959 . S
H797 C811 0.961 . S
H798 C812 0.960 . S
H799 C812 0.961 . S
H800 C812 0.959 . S
H801 C815 0.929 . S
H802 C816 0.931 . S
H803 C818 0.930 . S
C804 H792 0.930 . S
C804 C805 1.399 . S
C804 C809 1.399 . S
C805 C804 1.399 . S
C805 C806 1.376 . S
C806 H793 0.930 . S
C806 C805 1.376 . S
C806 C807 1.388 . S
C807 H794 0.930 . S
C807 C806 1.388 . S
C807 C808 1.390 . S
C808 C807 1.390 . S
C808 C809 1.394 . S
C808 C814 1.465 . S
C809 C804 1.399 . S
C809 C808 1.394 . S
C809 C810 1.516 . S
C810 C809 1.516 . S
C810 C811 1.502 . S
C810 C812 1.561 1_655 S
C810 C813 1.526 . S
C811 H795 0.959 . S
C811 H796 0.959 . S
C811 H797 0.961 . S
C811 C810 1.502 . S
C812 H798 0.960 . S
C812 H799 0.961 . S
C812 H800 0.959 . S
C812 C810 1.561 1_455 S
C813 C810 1.526 . S
C813 C814 1.396 . S
C813 C818 1.390 . S
C814 C808 1.465 . S
C814 C813 1.396 . S
C814 C815 1.399 . S
C815 H801 0.929 . S
C815 C814 1.399 . S
C815 C816 1.385 . S
C816 H802 0.931 . S
C816 C815 1.385 . S
C816 C817 1.389 . S
C817 C816 1.389 . S
C817 C818 1.387 . S
C818 H803 0.930 . S
C818 C813 1.390 . S
C818 C817 1.387 . S
H819 C831 0.930 . S
H820 C833 0.930 . S
H821 C834 0.930 . S
H822 C838 0.959 . S
H823 C838 0.959 . S
H824 C838 0.961 . S
H825 C839 0.960 . S
H826 C839 0.961 . S
H827 C839 0.959 . S
H828 C842 0.929 . S
H829 C843 0.931 . S
H830 C845 0.930 . S
C831 H819 0.930 . S
C831 C832 1.399 . S
C831 C836 1.399 . S
C832 C831 1.399 . S
C832 C833 1.376 . S
C833 H820 0.930 . S
C833 C832 1.376 . S
C833 C834 1.388 . S
C834 H821 0.930 . S
C834 C833 1.388 . S
C834 C835 1.390 . S
C835 C834 1.390 . S
C835 C836 1.394 . S
C835 C841 1.465 . S
C836 C831 1.399 . S
C836 C835 1.394 . S
C836 C837 1.516 . S
C837 C836 1.516 . S
C837 C838 1.502 . S
C837 C839 1.561 . S
C837 C840 1.526 . S
C838 H822 0.959 . S
C838 H823 0.959 . S
C838 H824 0.961 . S
C838 C837 1.502 . S
C839 H825 0.960 . S
C839 H826 0.961 . S
C839 H827 0.959 . S
C839 C837 1.561 . S
C840 C837 1.526 . S
C840 C841 1.396 . S
C840 C845 1.390 . S
C841 C835 1.465 . S
C841 C840 1.396 . S
C841 C842 1.399 . S
C842 H828 0.929 . S
C842 C841 1.399 . S
C842 C843 1.385 . S
C843 H829 0.931 . S
C843 C842 1.385 . S
C843 C844 1.389 . S
C844 C843 1.389 . S
C844 C845 1.387 . S
C845 H830 0.930 . S
C845 C840 1.390 . S
C845 C844 1.387 . S
H846 C858 0.930 . S
H847 C860 0.930 . S
H848 C861 0.930 . S
H849 C865 0.959 . S
H850 C865 0.959 . S
H851 C865 0.961 . S
H852 C866 0.960 . S
H853 C866 0.961 . S
H854 C866 0.959 . S
H855 C869 0.929 . S
H856 C870 0.931 . S
H857 C872 0.930 . S
C858 H846 0.930 . S
C858 C859 1.399 . S
C858 C863 1.399 . S
C859 C858 1.399 . S
C859 C860 1.376 . S
C860 H847 0.930 . S
C860 C859 1.376 . S
C860 C861 1.388 . S
C861 H848 0.930 . S
C861 C860 1.388 . S
C861 C862 1.390 . S
C862 C861 1.390 . S
C862 C863 1.394 . S
C862 C868 1.465 . S
C863 C858 1.399 . S
C863 C862 1.394 . S
C863 C864 1.516 . S
C864 C863 1.516 . S
C864 C865 1.502 . S
C864 C866 1.561 . S
C864 C867 1.526 . S
C865 H849 0.959 . S
C865 H850 0.959 . S
C865 H851 0.961 . S
C865 C864 1.502 . S
C866 H852 0.960 . S
C866 H853 0.961 . S
C866 H854 0.959 . S
C866 C864 1.561 . S
C867 C864 1.526 . S
C867 C868 1.396 . S
C867 C872 1.390 . S
C868 C862 1.465 . S
C868 C867 1.396 . S
C868 C869 1.399 . S
C869 H855 0.929 . S
C869 C868 1.399 . S
C869 C870 1.385 . S
C870 H856 0.931 . S
C870 C869 1.385 . S
C870 C871 1.389 . S
C871 C870 1.389 . S
C871 C872 1.387 . S
C872 H857 0.930 . S
C872 C867 1.390 . S
C872 C871 1.387 . S
H873 C885 0.930 . S
H874 C887 0.930 . S
H875 C888 0.930 . S
H876 C892 0.959 . S
H877 C892 0.959 . S
H878 C892 0.961 . S
H879 C893 0.960 . S
H880 C893 0.961 . S
H881 C893 0.959 . S
H882 C896 0.929 . S
H883 C897 0.931 1_565 S
H884 C899 0.930 . S
C885 H873 0.930 . S
C885 C886 1.399 1_545 S
C885 C890 1.399 . S
C886 C885 1.399 1_565 S
C886 C887 1.376 . S
C887 H874 0.930 . S
C887 C886 1.376 . S
C887 C888 1.388 . S
C888 H875 0.930 . S
C888 C887 1.388 . S
C888 C889 1.390 . S
C889 C888 1.390 . S
C889 C890 1.394 1_565 S
C889 C895 1.465 . S
C890 C885 1.399 . S
C890 C889 1.394 1_545 S
C890 C891 1.516 . S
C891 C890 1.516 . S
C891 C892 1.502 . S
C891 C893 1.561 . S
C891 C894 1.526 . S
C892 H876 0.959 . S
C892 H877 0.959 . S
C892 H878 0.961 . S
C892 C891 1.502 . S
C893 H879 0.960 . S
C893 H880 0.961 . S
C893 H881 0.959 . S
C893 C891 1.561 . S
C894 C891 1.526 . S
C894 C895 1.396 1_545 S
C894 C899 1.390 . S
C895 C889 1.465 . S
C895 C894 1.396 1_565 S
C895 C896 1.399 . S
C896 H882 0.929 . S
C896 C895 1.399 . S
C896 C897 1.385 1_565 S
C897 H883 0.931 1_545 S
C897 C896 1.385 1_545 S
C897 C898 1.389 . S
C898 C897 1.389 . S
C898 C899 1.387 . S
C899 H884 0.930 . S
C899 C894 1.390 . S
C899 C898 1.387 . S
H900 C912 0.930 . S
H901 C914 0.930 . S
H902 C915 0.930 . S
H903 C919 0.959 . S
H904 C919 0.959 . S
H905 C919 0.961 . S
H906 C920 0.960 . S
H907 C920 0.961 . S
H908 C920 0.959 . S
H909 C923 0.929 . S
H910 C924 0.931 . S
H911 C926 0.930 . S
C912 H900 0.930 . S
C912 C913 1.399 . S
C912 C917 1.399 . S
C913 C912 1.399 . S
C913 C914 1.376 . S
C914 H901 0.930 . S
C914 C913 1.376 . S
C914 C915 1.388 . S
C915 H902 0.930 . S
C915 C914 1.388 . S
C915 C916 1.390 1_655 S
C916 C915 1.390 1_455 S
C916 C917 1.394 1_455 S
C916 C922 1.465 . S
C917 C912 1.399 . S
C917 C916 1.394 1_655 S
C917 C918 1.516 1_655 S
C918 C917 1.516 1_455 S
C918 C919 1.502 1_455 S
C918 C920 1.561 . S
C918 C921 1.526 . S
C919 H903 0.959 . S
C919 H904 0.959 . S
C919 H905 0.961 . S
C919 C918 1.502 1_655 S
C920 H906 0.960 . S
C920 H907 0.961 . S
C920 H908 0.959 . S
C920 C918 1.561 . S
C921 C918 1.526 . S
C921 C922 1.396 . S
C921 C926 1.390 . S
C922 C916 1.465 . S
C922 C921 1.396 . S
C922 C923 1.399 . S
C923 H909 0.929 . S
C923 C922 1.399 . S
C923 C924 1.385 . S
C924 H910 0.931 . S
C924 C923 1.385 . S
C924 C925 1.389 . S
C925 C924 1.389 . S
C925 C926 1.387 . S
C926 H911 0.930 . S
C926 C921 1.390 . S
C926 C925 1.387 . S
C211 C26 1.341 . S
C223 C5 1.480 . S
C238 C48 1.424 . S
C250 C27 1.448 . S
C265 C49 1.460 . S
C277 C4 1.332 . S
C292 C53 1.465 . S
C304 C30 1.416 . S
C319 C52 1.420 . S
C331 C9 1.446 . S
C346 C8 1.331 . S
C358 C31 1.460 . S
C373 C71 1.479 . S
C385 C92 1.361 . S
C400 C114 1.382 . S
C412 C93 1.445 1_545 S
C427 C115 1.460 1_655 S
C439 C70 1.331 . S
C454 C96 1.413 . S
C466 C119 1.445 . S
C481 C118 1.358 . S
C493 C75 1.450 . S
C508 C97 1.462 . S
C520 C74 1.328 . S
C535 C158 1.353 . S
C547 C137 1.451 . S
C562 C159 1.462 . S
C574 C180 1.328 . S
C589 C181 1.468 . S
C601 C136 1.322 . S
C616 C185 1.467 . S
C628 C162 1.323 . S
C643 C184 1.335 . S
C655 C141 1.479 1_565 S
C670 C140 1.393 . S
C682 C163 1.474 1_455 S
C697 C117 1.380 . S
C709 C6 1.356 . S
C724 C73 1.384 . S
C736 C28 1.404 . S
C751 C50 1.345 . S
C763 C95 1.352 . S
C778 C51 1.407 . S
C790 C138 1.395 . S
C805 C7 1.376 . S
C817 C160 1.353 . S
C832 C182 1.353 . S
C844 C29 1.378 . S
C859 C72 1.407 . S
C871 C183 1.401 . S
C886 C94 1.395 . S
C898 C139 1.407 . S
C913 C161 1.407 . S
C925 C116 1.401 . S
