# Generated by pormake.
# Topology vcc, (6)-cn, num edge types: 1
# Building blocks:
#     Node 0, Type 0, BuildingBlock: MIFKUJ_clean_sbu_0, # of connection points: 6
#     Node 1, Type 0, BuildingBlock: MIFKUJ_clean_sbu_0, # of connection points: 6
#     Node 2, Type 0, BuildingBlock: MIFKUJ_clean_sbu_0, # of connection points: 6
#     Node 3, Type 0, BuildingBlock: MIFKUJ_clean_sbu_0, # of connection points: 6
#     Node 4, Type 0, BuildingBlock: MIFKUJ_clean_sbu_0, # of connection points: 6
#     Node 5, Type 0, BuildingBlock: MIFKUJ_clean_sbu_0, # of connection points: 6
#     Node 6, Type 0, BuildingBlock: MIFKUJ_clean_sbu_0, # of connection points: 6
#     Node 7, Type 0, BuildingBlock: MIFKUJ_clean_sbu_0, # of connection points: 6
#     Node 8, Type 0, BuildingBlock: MIFKUJ_clean_sbu_0, # of connection points: 6
#     Node 9, Type 0, BuildingBlock: MIFKUJ_clean_sbu_0, # of connection points: 6
#     Node 10, Type 0, BuildingBlock: MIFKUJ_clean_sbu_0, # of connection points: 6
#     Node 11, Type 0, BuildingBlock: MIFKUJ_clean_sbu_0, # of connection points: 6
#     Node 12, Type 0, BuildingBlock: MIFKUJ_clean_sbu_0, # of connection points: 6
#     Node 13, Type 0, BuildingBlock: MIFKUJ_clean_sbu_0, # of connection points: 6
#     Node 14, Type 0, BuildingBlock: MIFKUJ_clean_sbu_0, # of connection points: 6
#     Node 15, Type 0, BuildingBlock: MIFKUJ_clean_sbu_0, # of connection points: 6
#     Node 16, Type 0, BuildingBlock: MIFKUJ_clean_sbu_0, # of connection points: 6
#     Node 17, Type 0, BuildingBlock: MIFKUJ_clean_sbu_0, # of connection points: 6
#     Node 18, Type 0, BuildingBlock: MIFKUJ_clean_sbu_0, # of connection points: 6
#     Node 19, Type 0, BuildingBlock: MIFKUJ_clean_sbu_0, # of connection points: 6
#     Node 20, Type 0, BuildingBlock: MIFKUJ_clean_sbu_0, # of connection points: 6
#     Node 21, Type 0, BuildingBlock: MIFKUJ_clean_sbu_0, # of connection points: 6
#     Node 22, Type 0, BuildingBlock: MIFKUJ_clean_sbu_0, # of connection points: 6
#     Node 23, Type 0, BuildingBlock: MIFKUJ_clean_sbu_0, # of connection points: 6
#     Node 24, Type 0, BuildingBlock: MIFKUJ_clean_sbu_0, # of connection points: 6
#     Node 25, Type 0, BuildingBlock: MIFKUJ_clean_sbu_0, # of connection points: 6
#     Node 26, Type 0, BuildingBlock: MIFKUJ_clean_sbu_0, # of connection points: 6
#     Node 27, Type 0, BuildingBlock: MIFKUJ_clean_sbu_0, # of connection points: 6
#     Node 28, Type 0, BuildingBlock: MIFKUJ_clean_sbu_0, # of connection points: 6
#     Node 29, Type 0, BuildingBlock: MIFKUJ_clean_sbu_0, # of connection points: 6
#     Node 30, Type 0, BuildingBlock: MIFKUJ_clean_sbu_0, # of connection points: 6
#     Node 31, Type 0, BuildingBlock: MIFKUJ_clean_sbu_0, # of connection points: 6
#     Edge 32, Type (0, 0), BuildingBlock: KIFKEQ_clean_linker_1, # of connection points: 2
#     Edge 33, Type (0, 0), BuildingBlock: KIFKEQ_clean_linker_1, # of connection points: 2
#     Edge 34, Type (0, 0), BuildingBlock: KIFKEQ_clean_linker_1, # of connection points: 2
#     Edge 35, Type (0, 0), BuildingBlock: KIFKEQ_clean_linker_1, # of connection points: 2
#     Edge 36, Type (0, 0), BuildingBlock: KIFKEQ_clean_linker_1, # of connection points: 2
#     Edge 37, Type (0, 0), BuildingBlock: KIFKEQ_clean_linker_1, # of connection points: 2
#     Edge 38, Type (0, 0), BuildingBlock: KIFKEQ_clean_linker_1, # of connection points: 2
#     Edge 39, Type (0, 0), BuildingBlock: KIFKEQ_clean_linker_1, # of connection points: 2
#     Edge 40, Type (0, 0), BuildingBlock: KIFKEQ_clean_linker_1, # of connection points: 2
#     Edge 41, Type (0, 0), BuildingBlock: KIFKEQ_clean_linker_1, # of connection points: 2
#     Edge 42, Type (0, 0), BuildingBlock: KIFKEQ_clean_linker_1, # of connection points: 2
#     Edge 43, Type (0, 0), BuildingBlock: KIFKEQ_clean_linker_1, # of connection points: 2
#     Edge 44, Type (0, 0), BuildingBlock: KIFKEQ_clean_linker_1, # of connection points: 2
#     Edge 45, Type (0, 0), BuildingBlock: KIFKEQ_clean_linker_1, # of connection points: 2
#     Edge 46, Type (0, 0), BuildingBlock: KIFKEQ_clean_linker_1, # of connection points: 2
#     Edge 47, Type (0, 0), BuildingBlock: KIFKEQ_clean_linker_1, # of connection points: 2
#     Edge 48, Type (0, 0), BuildingBlock: KIFKEQ_clean_linker_1, # of connection points: 2
#     Edge 49, Type (0, 0), BuildingBlock: KIFKEQ_clean_linker_1, # of connection points: 2
#     Edge 50, Type (0, 0), BuildingBlock: KIFKEQ_clean_linker_1, # of connection points: 2
#     Edge 51, Type (0, 0), BuildingBlock: KIFKEQ_clean_linker_1, # of connection points: 2
#     Edge 52, Type (0, 0), BuildingBlock: KIFKEQ_clean_linker_1, # of connection points: 2
#     Edge 53, Type (0, 0), BuildingBlock: KIFKEQ_clean_linker_1, # of connection points: 2
#     Edge 54, Type (0, 0), BuildingBlock: KIFKEQ_clean_linker_1, # of connection points: 2
#     Edge 55, Type (0, 0), BuildingBlock: KIFKEQ_clean_linker_1, # of connection points: 2
#     Edge 56, Type (0, 0), BuildingBlock: KIFKEQ_clean_linker_1, # of connection points: 2
#     Edge 57, Type (0, 0), BuildingBlock: KIFKEQ_clean_linker_1, # of connection points: 2
#     Edge 58, Type (0, 0), BuildingBlock: KIFKEQ_clean_linker_1, # of connection points: 2
#     Edge 59, Type (0, 0), BuildingBlock: KIFKEQ_clean_linker_1, # of connection points: 2
#     Edge 60, Type (0, 0), BuildingBlock: KIFKEQ_clean_linker_1, # of connection points: 2
#     Edge 61, Type (0, 0), BuildingBlock: KIFKEQ_clean_linker_1, # of connection points: 2
#     Edge 62, Type (0, 0), BuildingBlock: KIFKEQ_clean_linker_1, # of connection points: 2
#     Edge 63, Type (0, 0), BuildingBlock: KIFKEQ_clean_linker_1, # of connection points: 2
#     Edge 64, Type (0, 0), BuildingBlock: KIFKEQ_clean_linker_1, # of connection points: 2
#     Edge 65, Type (0, 0), BuildingBlock: KIFKEQ_clean_linker_1, # of connection points: 2
#     Edge 66, Type (0, 0), BuildingBlock: KIFKEQ_clean_linker_1, # of connection points: 2
#     Edge 67, Type (0, 0), BuildingBlock: KIFKEQ_clean_linker_1, # of connection points: 2
#     Edge 68, Type (0, 0), BuildingBlock: KIFKEQ_clean_linker_1, # of connection points: 2
#     Edge 69, Type (0, 0), BuildingBlock: KIFKEQ_clean_linker_1, # of connection points: 2
#     Edge 70, Type (0, 0), BuildingBlock: KIFKEQ_clean_linker_1, # of connection points: 2
#     Edge 71, Type (0, 0), BuildingBlock: KIFKEQ_clean_linker_1, # of connection points: 2
#     Edge 72, Type (0, 0), BuildingBlock: KIFKEQ_clean_linker_1, # of connection points: 2
#     Edge 73, Type (0, 0), BuildingBlock: KIFKEQ_clean_linker_1, # of connection points: 2
#     Edge 74, Type (0, 0), BuildingBlock: KIFKEQ_clean_linker_1, # of connection points: 2
#     Edge 75, Type (0, 0), BuildingBlock: KIFKEQ_clean_linker_1, # of connection points: 2
#     Edge 76, Type (0, 0), BuildingBlock: KIFKEQ_clean_linker_1, # of connection points: 2
#     Edge 77, Type (0, 0), BuildingBlock: KIFKEQ_clean_linker_1, # of connection points: 2
#     Edge 78, Type (0, 0), BuildingBlock: KIFKEQ_clean_linker_1, # of connection points: 2
#     Edge 79, Type (0, 0), BuildingBlock: KIFKEQ_clean_linker_1, # of connection points: 2
#     Edge 80, Type (0, 0), BuildingBlock: KIFKEQ_clean_linker_1, # of connection points: 2
#     Edge 81, Type (0, 0), BuildingBlock: KIFKEQ_clean_linker_1, # of connection points: 2
#     Edge 82, Type (0, 0), BuildingBlock: KIFKEQ_clean_linker_1, # of connection points: 2
#     Edge 83, Type (0, 0), BuildingBlock: KIFKEQ_clean_linker_1, # of connection points: 2
#     Edge 84, Type (0, 0), BuildingBlock: KIFKEQ_clean_linker_1, # of connection points: 2
#     Edge 85, Type (0, 0), BuildingBlock: KIFKEQ_clean_linker_1, # of connection points: 2
#     Edge 86, Type (0, 0), BuildingBlock: KIFKEQ_clean_linker_1, # of connection points: 2
#     Edge 87, Type (0, 0), BuildingBlock: KIFKEQ_clean_linker_1, # of connection points: 2
#     Edge 88, Type (0, 0), BuildingBlock: KIFKEQ_clean_linker_1, # of connection points: 2
#     Edge 89, Type (0, 0), BuildingBlock: KIFKEQ_clean_linker_1, # of connection points: 2
#     Edge 90, Type (0, 0), BuildingBlock: KIFKEQ_clean_linker_1, # of connection points: 2
#     Edge 91, Type (0, 0), BuildingBlock: KIFKEQ_clean_linker_1, # of connection points: 2
#     Edge 92, Type (0, 0), BuildingBlock: KIFKEQ_clean_linker_1, # of connection points: 2
#     Edge 93, Type (0, 0), BuildingBlock: KIFKEQ_clean_linker_1, # of connection points: 2
#     Edge 94, Type (0, 0), BuildingBlock: KIFKEQ_clean_linker_1, # of connection points: 2
#     Edge 95, Type (0, 0), BuildingBlock: KIFKEQ_clean_linker_1, # of connection points: 2
#     Edge 96, Type (0, 0), BuildingBlock: KIFKEQ_clean_linker_1, # of connection points: 2
#     Edge 97, Type (0, 0), BuildingBlock: KIFKEQ_clean_linker_1, # of connection points: 2
#     Edge 98, Type (0, 0), BuildingBlock: KIFKEQ_clean_linker_1, # of connection points: 2
#     Edge 99, Type (0, 0), BuildingBlock: KIFKEQ_clean_linker_1, # of connection points: 2
#     Edge 100, Type (0, 0), BuildingBlock: KIFKEQ_clean_linker_1, # of connection points: 2
#     Edge 101, Type (0, 0), BuildingBlock: KIFKEQ_clean_linker_1, # of connection points: 2
#     Edge 102, Type (0, 0), BuildingBlock: KIFKEQ_clean_linker_1, # of connection points: 2
#     Edge 103, Type (0, 0), BuildingBlock: KIFKEQ_clean_linker_1, # of connection points: 2
#     Edge 104, Type (0, 0), BuildingBlock: KIFKEQ_clean_linker_1, # of connection points: 2
#     Edge 105, Type (0, 0), BuildingBlock: KIFKEQ_clean_linker_1, # of connection points: 2
#     Edge 106, Type (0, 0), BuildingBlock: KIFKEQ_clean_linker_1, # of connection points: 2
#     Edge 107, Type (0, 0), BuildingBlock: KIFKEQ_clean_linker_1, # of connection points: 2
#     Edge 108, Type (0, 0), BuildingBlock: KIFKEQ_clean_linker_1, # of connection points: 2
#     Edge 109, Type (0, 0), BuildingBlock: KIFKEQ_clean_linker_1, # of connection points: 2
#     Edge 110, Type (0, 0), BuildingBlock: KIFKEQ_clean_linker_1, # of connection points: 2
#     Edge 111, Type (0, 0), BuildingBlock: KIFKEQ_clean_linker_1, # of connection points: 2
#     Edge 112, Type (0, 0), BuildingBlock: KIFKEQ_clean_linker_1, # of connection points: 2
#     Edge 113, Type (0, 0), BuildingBlock: KIFKEQ_clean_linker_1, # of connection points: 2
#     Edge 114, Type (0, 0), BuildingBlock: KIFKEQ_clean_linker_1, # of connection points: 2
#     Edge 115, Type (0, 0), BuildingBlock: KIFKEQ_clean_linker_1, # of connection points: 2
#     Edge 116, Type (0, 0), BuildingBlock: KIFKEQ_clean_linker_1, # of connection points: 2
#     Edge 117, Type (0, 0), BuildingBlock: KIFKEQ_clean_linker_1, # of connection points: 2
#     Edge 118, Type (0, 0), BuildingBlock: KIFKEQ_clean_linker_1, # of connection points: 2
#     Edge 119, Type (0, 0), BuildingBlock: KIFKEQ_clean_linker_1, # of connection points: 2
#     Edge 120, Type (0, 0), BuildingBlock: KIFKEQ_clean_linker_1, # of connection points: 2
#     Edge 121, Type (0, 0), BuildingBlock: KIFKEQ_clean_linker_1, # of connection points: 2
#     Edge 122, Type (0, 0), BuildingBlock: KIFKEQ_clean_linker_1, # of connection points: 2
#     Edge 123, Type (0, 0), BuildingBlock: KIFKEQ_clean_linker_1, # of connection points: 2
#     Edge 124, Type (0, 0), BuildingBlock: KIFKEQ_clean_linker_1, # of connection points: 2
#     Edge 125, Type (0, 0), BuildingBlock: KIFKEQ_clean_linker_1, # of connection points: 2
#     Edge 126, Type (0, 0), BuildingBlock: KIFKEQ_clean_linker_1, # of connection points: 2
#     Edge 127, Type (0, 0), BuildingBlock: KIFKEQ_clean_linker_1, # of connection points: 2
# Relax obj value: 0.069
# Max RMSD: 0.136
# Mean RMSD: 0.136
data_MOF--net-vcc--node1-MIFKUJ_clean_sbu_0--edge1-KIFKEQ_clean_linker_1
_symmetry_space_group_name_H-M    P1
_symmetry_Int_Tables_number       1
_symmetry_cell_setting            triclinic
loop_
_symmetry_equiv_pos_as_xyz
'x, y, z'
_cell_length_a     49.849028
_cell_length_b     54.656463
_cell_length_c     46.977914
_cell_angle_alpha  90.025259
_cell_angle_beta   89.997934
_cell_angle_gamma 89.998494
loop_
_atom_site_label
_atom_site_type_symbol
_atom_site_fract_x
_atom_site_fract_y
_atom_site_fract_z
_atom_type_partial_charge
Zn0 Zn 0.31217 0.99483 0.10657 0.0
Zn1 Zn 0.32995 0.00525 0.03806 0.0
C2 C 0.35646 0.98727 0.14413 0.0
O3 O 0.33841 0.97354 0.15671 0.0
C4 C 0.28228 0.01972 0.01218 0.0
O5 O 0.29814 0.03864 0.00832 0.0
O6 O 0.28846 0.99227 0.14168 0.0
O7 O 0.30041 0.02572 0.08661 0.0
O8 O 0.33632 0.03503 0.06197 0.0
C9 C 0.29152 0.00895 0.16037 0.0
O10 O 0.30863 0.02671 0.15529 0.0
O11 O 0.35032 -0.00134 0.1214 0.0
C12 C 0.35452 0.99006 0.98599 0.0
O13 O 0.35188 0.9686 0.99822 0.0
O14 O 0.34778 0.00923 0.99961 0.0
O15 O 0.34478 0.97461 0.05522 0.0
O16 O 0.31239 0.96293 0.08441 0.0
O17 O 0.29076 0.00197 0.02723 0.0
C18 C 0.31842 0.04108 0.07983 0.0
C19 C 0.33292 0.95801 0.06931 0.0
Zn20 Zn 0.919 0.25419 0.10847 0.0
Zn21 Zn 0.89438 0.24191 0.04907 0.0
C22 C 0.8736 0.2715 0.13901 0.0
O23 O 0.88726 0.29197 0.13686 0.0
C24 C 0.94251 0.22712 0.02364 0.0
O25 O 0.92766 0.20736 0.02114 0.0
O26 O 0.94354 0.26108 0.14158 0.0
O27 O 0.9289 0.22057 0.094 0.0
O28 O 0.88967 0.21273 0.07475 0.0
C29 C 0.94372 0.24525 0.16142 0.0
O30 O 0.92933 0.22527 0.15845 0.0
O31 O 0.88264 0.25225 0.1272 0.0
C32 C 0.85915 0.2491 1.00002 0.0
O33 O 0.84811 0.26636 0.01555 0.0
O34 O 0.87711 0.23554 0.01094 0.0
O35 O 0.88074 0.27419 0.06313 0.0
O36 O 0.91951 0.28368 0.08239 0.0
O37 O 0.93321 0.24522 0.0375 0.0
C38 C 0.91023 0.20549 0.08833 0.0
C39 C 0.89756 0.29028 0.07092 0.0
Zn40 Zn 0.32152 0.25405 0.15506 0.0
Zn41 Zn 0.34327 0.24139 0.2167 0.0
C42 C 0.36709 0.2709 0.12453 0.0
O43 O 0.35344 0.29138 0.12674 0.0
C44 C 0.29256 0.22804 0.2372 0.0
O45 O 0.30647 0.20794 0.24142 0.0
O46 O 0.29654 0.26027 0.12204 0.0
O47 O 0.3107 0.22096 0.17001 0.0
O48 O 0.34836 0.21173 0.19179 0.0
C49 C 0.30067 0.24705 0.10016 0.0
O50 O 0.31988 0.2306 0.10094 0.0
O51 O 0.35811 0.2517 0.13649 0.0
C52 C 0.35991 0.25411 0.2722 0.0
O53 O 0.35356 0.27562 0.26171 0.0
O54 O 0.35857 0.23542 0.2561 0.0
O55 O 0.35911 0.2726 0.20176 0.0
O56 O 0.32152 0.28365 0.18091 0.0
O57 O 0.30386 0.24602 0.22492 0.0
C58 C 0.32852 0.20533 0.17653 0.0
C59 C 0.3437 0.28932 0.19255 0.0
Zn60 Zn 0.92964 -0.00131 0.14449 0.0
Zn61 Zn 0.92302 0.00608 0.22608 0.0
C62 C 0.88643 0.99049 0.10921 0.0
O63 O 0.89931 0.96954 0.10997 0.0
C64 C 0.97437 0.02525 0.24271 0.0
O65 O 0.96101 0.04597 0.24257 0.0
O66 O 0.95685 0.9931 0.11335 0.0
O67 O 0.94262 0.02409 0.17173 0.0
O68 O 0.91229 0.0354 0.20245 0.0
C69 C 0.95825 0.00964 0.09436 0.0
O70 O 0.94355 0.02943 0.09722 0.0
O71 O 0.89558 0.0084 0.12358 0.0
C72 C 0.91818 0.9979 0.28547 0.0
O73 O 0.93867 0.98371 0.27941 0.0
O74 O 0.90658 0.00942 0.26539 0.0
O75 O 0.91207 0.97284 0.21055 0.0
O76 O 0.92047 0.96709 0.16433 0.0
O77 O 0.9629 0.00596 0.23374 0.0
C78 C 0.92528 0.03954 0.17976 0.0
C79 C 0.91261 0.95924 0.18847 0.0
Zn80 Zn 0.6694 -0.0013 0.96815 0.0
Zn81 Zn 0.68671 0.00964 0.90381 0.0
C82 C 0.72258 0.98723 0.98475 0.0
O83 O 0.71139 0.96551 0.98614 0.0
C84 C 0.64071 0.98906 0.87247 0.0
O85 O 0.65711 0.97134 0.86512 0.0
O86 O 0.65481 0.99438 0.00772 0.0
O87 O 0.65104 0.02807 0.9524 0.0
O88 O 0.68551 0.04085 0.92723 0.0
C89 C 0.66014 0.0123 0.02406 0.0
O90 O 0.67284 0.03131 0.01347 0.0
O91 O 0.70888 0.00514 0.97544 0.0
C92 C 0.71853 0.99769 0.85481 0.0
O93 O 0.71491 0.97553 0.86483 0.0
O94 O 0.70894 0.01581 0.86845 0.0
O95 O 0.69967 0.97759 0.92081 0.0
O96 O 0.66363 0.96821 0.94528 0.0
O97 O 0.6489 0.00578 0.88916 0.0
C98 C 0.66353 0.04526 0.94003 0.0
C99 C 0.68247 0.96184 0.92871 0.0
Zn100 Zn 0.07786 0.74663 0.97753 0.0
Zn101 Zn 0.07236 0.74133 0.8947 0.0
C102 C 0.03153 0.76227 0.0076 0.0
O103 O 0.04975 0.777 0.01833 0.0
C104 C 0.11366 0.73785 0.85534 0.0
O105 O 0.09672 0.72075 0.84735 0.0
O106 O 0.09664 0.74605 0.01558 0.0
O107 O 0.0862 0.71404 0.95755 0.0
O108 O 0.07967 0.70811 0.91097 0.0
C109 C 0.08664 0.73194 0.03431 0.0
O110 O 0.06671 0.71745 0.02718 0.0
O111 O 0.03819 0.74794 0.98744 0.0
C112 C 0.04706 0.75631 0.84387 0.0
O113 O 0.06528 0.7735 0.84664 0.0
O114 O 0.04499 0.74008 0.86315 0.0
O115 O 0.06042 0.76322 0.92575 0.0
O116 O 0.08854 0.77761 0.95658 0.0
O117 O 0.10789 0.75094 0.87693 0.0
C118 C 0.08645 0.70029 0.93552 0.0
C119 C 0.07639 0.78003 0.9331 0.0
Zn120 Zn 0.66988 0.76206 0.78992 0.0
Zn121 Zn 0.68646 0.74962 0.85507 0.0
C122 C 0.71785 0.77375 0.76108 0.0
O123 O 0.70194 0.79177 0.75349 0.0
C124 C 0.63943 0.73529 0.88342 0.0
O125 O 0.6547 0.71579 0.88574 0.0
O126 O 0.65186 0.76742 0.75191 0.0
O127 O 0.65425 0.73049 0.80411 0.0
O128 O 0.68792 0.7189 0.83126 0.0
C129 C 0.65922 0.75218 0.73298 0.0
O130 O 0.67563 0.7344 0.74015 0.0
O131 O 0.70949 0.75844 0.77951 0.0
C132 C 0.70277 0.7592 0.91103 0.0
O133 O 0.68615 0.77741 0.90625 0.0
O134 O 0.70746 0.74404 0.89108 0.0
O135 O 0.70027 0.78136 0.83905 0.0
O136 O 0.66427 0.79147 0.81499 0.0
O137 O 0.64816 0.75348 0.86927 0.0
C138 C 0.66728 0.71367 0.81658 0.0
C139 C 0.68308 0.79733 0.83189 0.0
Zn140 Zn 0.09607 0.9786 0.79056 0.0
Zn141 Zn 0.07558 0.99171 0.8532 0.0
C142 C 0.04969 -0.00119 0.76387 0.0
O143 O 0.06812 0.01408 0.75471 0.0
C144 C 0.11777 0.00992 0.88666 0.0
O145 O 0.1004 0.028 0.88715 0.0
O146 O 0.11151 0.9722 0.7515 0.0
O147 O 0.1116 0.01028 0.80483 0.0
O148 O 0.07475 0.02142 0.82708 0.0
C149 C 0.13077 0.98434 0.7408 0.0
O150 O 0.14355 0.00031 0.7567 0.0
O151 O 0.05638 0.98229 0.78163 0.0
C152 C 0.05458 0.98338 0.90759 0.0
O153 O 0.07254 0.96588 0.90525 0.0
O154 O 0.05089 0.9977 0.88658 0.0
O155 O 0.06581 0.9577 0.83935 0.0
O156 O 0.10262 0.94925 0.81561 0.0
O157 O 0.11244 0.99114 0.87164 0.0
C158 C 0.09667 0.02702 0.81482 0.0
C159 C 0.08382 0.94248 0.83205 0.0
Zn160 Zn 0.3254 0.50195 0.61812 0.0
Zn161 Zn 0.33383 0.50941 0.53748 0.0
C162 C 0.36499 0.49285 0.65799 0.0
O163 O 0.3484 0.47428 0.66046 0.0
C164 C 0.28626 0.52819 0.51195 0.0
O165 O 0.30325 0.5458 0.50584 0.0
O166 O 0.29711 0.49726 0.64841 0.0
O167 O 0.31442 0.52948 0.59237 0.0
O168 O 0.34532 0.53853 0.56121 0.0
C169 C 0.2971 0.51236 0.66903 0.0
O170 O 0.31437 0.53049 0.66887 0.0
O171 O 0.35982 0.50926 0.63955 0.0
C172 C 0.34171 0.4999 0.47883 0.0
O173 O 0.32095 0.48577 0.484 0.0
O174 O 0.3521 0.51197 0.4992 0.0
O175 O 0.34322 0.47571 0.55281 0.0
O176 O 0.33254 0.46977 0.59844 0.0
O177 O 0.29407 0.51081 0.52795 0.0
C178 C 0.33254 0.54396 0.58369 0.0
C179 C 0.34102 0.46189 0.57456 0.0
Zn180 Zn 0.92739 0.74496 0.60478 0.0
Zn181 Zn 0.90645 0.73605 0.54174 0.0
C182 C 0.88772 0.75688 0.64639 0.0
O183 O 0.90738 0.77134 0.65432 0.0
C184 C 0.95804 0.7213 0.52107 0.0
O185 O 0.94541 0.70023 0.51988 0.0
O186 O 0.95345 0.74933 0.63689 0.0
O187 O 0.93671 0.7119 0.58794 0.0
O188 O 0.89882 0.70592 0.56533 0.0
C189 C 0.95544 0.732 0.6548 0.0
O190 O 0.94217 0.71159 0.6503 0.0
O191 O 0.89079 0.74354 0.62436 0.0
C192 C 0.89555 0.74954 0.48599 0.0
O193 O 0.90789 0.76888 0.49623 0.0
O194 O 0.8906 0.73176 0.50265 0.0
O195 O 0.89169 0.76763 0.55728 0.0
O196 O 0.92844 0.77599 0.58125 0.0
O197 O 0.94614 0.73962 0.53208 0.0
C198 C 0.91775 0.69772 0.58067 0.0
C199 C 0.90714 0.78316 0.56892 0.0
Zn200 Zn 0.33651 0.74695 0.63985 0.0
Zn201 Zn 0.33873 0.74252 0.72582 0.0
C202 C 0.37737 0.75851 0.60325 0.0
O203 O 0.36004 0.77656 0.60145 0.0
C204 C 0.29283 0.72957 0.7579 0.0
O205 O 0.31128 0.71647 0.77079 0.0
O206 O 0.30775 0.74853 0.60907 0.0
O207 O 0.32624 0.7232 0.6701 0.0
O208 O 0.35007 0.71108 0.70605 0.0
C209 C 0.31173 0.73732 0.58566 0.0
O210 O 0.33383 0.72459 0.58238 0.0
O211 O 0.37224 0.7409 0.62019 0.0
C212 C 0.35557 0.76376 0.7785 0.0
O213 O 0.34441 0.78316 0.76705 0.0
O214 O 0.35697 0.74407 0.76416 0.0
O215 O 0.34673 0.77483 0.70525 0.0
O216 O 0.34159 0.77981 0.65832 0.0
O217 O 0.29923 0.74161 0.73573 0.0
C218 C 0.3422 0.70766 0.68071 0.0
C219 C 0.34713 0.78822 0.68296 0.0
Zn220 Zn 0.91034 0.49494 0.63562 0.0
Zn221 Zn 0.91791 0.50106 0.72602 0.0
C222 C 0.8732 0.4855 0.59309 0.0
O223 O 0.89157 0.46852 0.58944 0.0
C224 C 0.97404 0.51157 0.74082 0.0
O225 O 0.97074 0.53144 0.72548 0.0
O226 O 0.94197 0.49559 0.60881 0.0
O227 O 0.91392 0.51481 0.66978 0.0
O228 O 0.91554 0.53559 0.70843 0.0
C229 C 0.94153 0.51074 0.58825 0.0
O230 O 0.92173 0.52654 0.58661 0.0
O231 O 0.87642 0.50098 0.61304 0.0
C232 C 0.89489 0.48212 0.77716 0.0
O233 O 0.90632 0.46197 0.76795 0.0
O234 O 0.89545 0.50115 0.76162 0.0
O235 O 0.90838 0.47084 0.70009 0.0
O236 O 0.90578 0.4622 0.6535 0.0
O237 O 0.95511 0.49604 0.74229 0.0
C238 C 0.91466 0.53547 0.68155 0.0
C239 C 0.90388 0.45579 0.6796 0.0
Zn240 Zn 0.6472 0.48447 0.46628 0.0
Zn241 Zn 0.67013 0.49521 0.40484 0.0
C242 C 0.69831 0.4718 0.48711 0.0
O243 O 0.68458 0.45181 0.49256 0.0
C244 C 0.6306 0.51278 0.36748 0.0
O245 O 0.64834 0.53057 0.36713 0.0
O246 O 0.63219 0.48006 0.50591 0.0
O247 O 0.63118 0.51489 0.45004 0.0
O248 O 0.66978 0.52472 0.43071 0.0
C249 C 0.63044 0.49941 0.52084 0.0
O250 O 0.6363 0.52055 0.50909 0.0
O251 O 0.68681 0.48915 0.47385 0.0
C252 C 0.69863 0.48688 0.35345 0.0
O253 O 0.6846 0.46656 0.35465 0.0
O254 O 0.69687 0.50213 0.37381 0.0
O255 O 0.67847 0.46132 0.4196 0.0
O256 O 0.64098 0.45437 0.44299 0.0
O257 O 0.63469 0.49455 0.38375 0.0
C258 C 0.64739 0.5311 0.44129 0.0
C259 C 0.66008 0.44671 0.42749 0.0
Zn260 Zn 0.08204 0.25082 0.47834 0.0
Zn261 Zn 0.08141 0.24693 0.38767 0.0
C262 C 0.02367 0.25613 0.48408 0.0
O263 O 0.02406 0.26575 0.45846 0.0
C264 C 0.11839 0.23688 0.34469 0.0
O265 O 0.09944 0.22066 0.33997 0.0
O266 O 0.1062 0.24507 0.51205 0.0
O267 O 0.0849 0.22343 0.44806 0.0
O268 O 0.08308 0.21269 0.40236 0.0
C269 C 0.10099 0.22626 0.52701 0.0
O270 O 0.08311 0.21055 0.51759 0.0
O271 O 0.04539 0.24887 0.49532 0.0
C272 C 0.05309 0.26643 0.34019 0.0
O273 O 0.07541 0.27913 0.33855 0.0
O274 O 0.04975 0.25204 0.36122 0.0
O275 O 0.08166 0.26483 0.42392 0.0
O276 O 0.08683 0.28544 0.46253 0.0
O277 O 0.11561 0.25169 0.36538 0.0
C278 C 0.08644 0.20719 0.42855 0.0
C279 C 0.08478 0.2853 0.43568 0.0
Zn280 Zn 0.65847 0.25289 0.28114 0.0
Zn281 Zn 0.66491 0.24233 0.36116 0.0
C282 C 0.71068 0.27152 0.26645 0.0
O283 O 0.6986 0.29272 0.26948 0.0
C284 C 0.61968 0.23339 0.39344 0.0
O285 O 0.63216 0.21225 0.39212 0.0
O286 O 0.64257 0.2583 0.24235 0.0
O287 O 0.64703 0.21908 0.29429 0.0
O288 O 0.65686 0.21153 0.33983 0.0
C289 C 0.64918 0.24234 0.22393 0.0
O290 O 0.66355 0.22344 0.23211 0.0
O291 O 0.69806 0.25203 0.27264 0.0
C292 C 0.69027 0.25146 0.4135 0.0
O293 O 0.67508 0.27097 0.41102 0.0
O294 O 0.6905 0.23583 0.39343 0.0
O295 O 0.67957 0.26771 0.33525 0.0
O296 O 0.64894 0.2815 0.30639 0.0
O297 O 0.62982 0.25169 0.38056 0.0
C298 C 0.6485 0.20461 0.31552 0.0
C299 C 0.66294 0.28423 0.32868 0.0
Zn300 Zn 0.09673 0.48225 0.29398 0.0
Zn301 Zn 0.07701 0.49378 0.35796 0.0
C302 C 0.05028 0.50348 0.27013 0.0
O303 O 0.069 0.51818 0.26039 0.0
C304 C 0.11964 0.51367 0.3899 0.0
O305 O 0.10208 0.5316 0.38993 0.0
O306 O 0.11107 0.47593 0.25454 0.0
O307 O 0.11192 0.51354 0.30856 0.0
O308 O 0.07477 0.52263 0.33159 0.0
C309 C 0.12967 0.48825 0.24288 0.0
O310 O 0.14232 0.50499 0.25779 0.0
O311 O 0.05695 0.48627 0.28695 0.0
C312 C 0.05662 0.48776 0.41366 0.0
O313 O 0.07658 0.47207 0.41397 0.0
O314 O 0.05186 0.49966 0.39094 0.0
O315 O 0.06776 0.46023 0.34324 0.0
O316 O 0.10434 0.45321 0.31834 0.0
O317 O 0.11416 0.49428 0.376 0.0
C318 C 0.09623 0.52934 0.31926 0.0
C319 C 0.08586 0.44566 0.33465 0.0
Zn320 Zn 0.83436 2e-05 0.6131 0.0
Zn321 Zn 0.85456 0.00928 0.54941 0.0
C322 C 0.87611 0.98975 0.65247 0.0
O323 O 0.85804 0.97342 0.65979 0.0
C324 C 0.80249 0.02302 0.52924 0.0
O325 O 0.81485 0.04416 0.52696 0.0
O326 O 0.80908 0.99666 0.64629 0.0
O327 O 0.82302 0.03166 0.5945 0.0
O328 O 0.86116 0.03958 0.57334 0.0
C329 C 0.80942 0.01431 0.66396 0.0
O330 O 0.825 0.03319 0.65878 0.0
O331 O 0.87123 0.00376 0.63142 0.0
C332 C 0.8614 -7e-05 0.49096 0.0
O333 O 0.84371 0.98322 0.4981 0.0
O334 O 0.8708 0.01395 0.5102 0.0
O335 O 0.86955 0.97761 0.56444 0.0
O336 O 0.83443 0.96827 0.59082 0.0
O337 O 0.8148 0.00516 0.54067 0.0
C338 C 0.84126 0.04683 0.58794 0.0
C339 C 0.855 0.96169 0.57671 0.0
Zn340 Zn 0.42594 0.24917 0.60182 0.0
Zn341 Zn 0.40436 0.23948 0.53966 0.0
C342 C 0.38087 0.26358 0.6336 0.0
O343 O 0.39671 0.28266 0.63625 0.0
C344 C 0.45641 0.22707 0.51932 0.0
O345 O 0.44487 0.20547 0.51842 0.0
O346 O 0.44894 0.25374 0.63684 0.0
O347 O 0.43745 0.2167 0.58523 0.0
O348 O 0.39927 0.2092 0.56377 0.0
C349 C 0.44502 0.238 0.65637 0.0
O350 O 0.42789 0.22016 0.65172 0.0
O351 O 0.3885 0.24581 0.61809 0.0
C352 C 0.38351 0.25282 0.48545 0.0
O353 O 0.38738 0.27461 0.49654 0.0
O354 O 0.38793 0.23402 0.50069 0.0
O355 O 0.38869 0.2703 0.55624 0.0
O356 O 0.4261 0.28041 0.57822 0.0
O357 O 0.44346 0.24505 0.52962 0.0
C358 C 0.41891 0.2018 0.57866 0.0
C359 C 0.40397 0.28658 0.56675 0.0
Zn360 Zn 0.81859 0.24541 0.64581 0.0
Zn361 Zn 0.81871 0.24055 0.73422 0.0
C362 C 0.85772 0.25671 0.60629 0.0
O363 O 0.84046 0.27472 0.60349 0.0
C364 C 0.76316 0.22568 0.74682 0.0
O365 O 0.76893 0.20524 0.73343 0.0
O366 O 0.78787 0.24184 0.61789 0.0
O367 O 0.81695 0.22735 0.68093 0.0
O368 O 0.82567 0.20613 0.71775 0.0
C369 C 0.7922 0.22792 0.59663 0.0
O370 O 0.81444 0.21506 0.59588 0.0
O371 O 0.85311 0.24017 0.62469 0.0
C372 C 0.83409 0.26049 0.78743 0.0
O373 O 0.81868 0.2783 0.77819 0.0
O374 O 0.83921 0.24268 0.77091 0.0
O375 O 0.82586 0.27186 0.70896 0.0
O376 O 0.82199 0.27887 0.66198 0.0
O377 O 0.78054 0.24264 0.74801 0.0
C378 C 0.82289 0.20681 0.6911 0.0
C379 C 0.82721 0.28617 0.68726 0.0
Zn380 Zn 0.42144 0.00201 0.63737 0.0
Zn381 Zn 0.42413 0.00687 0.72724 0.0
C382 C 0.38461 0.99079 0.59551 0.0
O383 O 0.4032 0.97391 0.59265 0.0
C384 C 0.46616 0.01409 0.76727 0.0
O385 O 0.44771 0.02847 0.77818 0.0
O386 O 0.45333 0.00396 0.61111 0.0
O387 O 0.42317 0.02078 0.6722 0.0
O388 O 0.42139 0.0417 0.71054 0.0
C389 C 0.45055 0.01643 0.58845 0.0
O390 O 0.42884 0.02975 0.58515 0.0
O391 O 0.3875 0.00693 0.61481 0.0
C392 C 0.3998 0.9865 0.77691 0.0
O393 O 0.41312 0.96709 0.76841 0.0
O394 O 0.39977 0.0055 0.76135 0.0
O395 O 0.41734 0.9764 0.70063 0.0
O396 O 0.418 0.96883 0.65373 0.0
O397 O 0.46128 0.00307 0.74398 0.0
C398 C 0.42204 0.04151 0.68368 0.0
C399 C 0.41484 0.96172 0.6794 0.0
Zn400 Zn 0.16008 0.98964 0.47046 0.0
Zn401 Zn 0.17884 0.00397 0.4058 0.0
C402 C 0.21193 0.9764 0.48688 0.0
O403 O 0.19858 0.95604 0.49144 0.0
C404 C 0.1327 0.02116 0.37648 0.0
O405 O 0.1452 0.04199 0.38084 0.0
O406 O 0.1471 0.98261 0.51033 0.0
O407 O 0.14302 0.02035 0.45775 0.0
O408 O 0.17774 0.03317 0.43263 0.0
C409 C 0.15223 -0.00044 0.52809 0.0
O410 O 0.16331 0.01984 0.51875 0.0
O411 O 0.19978 0.99437 0.47559 0.0
C412 C 0.2035 0.99366 0.35371 0.0
O413 O 0.18891 0.97403 0.3583 0.0
O414 O 0.20359 0.01054 0.37241 0.0
O415 O 0.18909 0.97071 0.42094 0.0
O416 O 0.15256 0.96161 0.44489 0.0
O417 O 0.14266 0.00156 0.38656 0.0
C418 C 0.15654 0.03762 0.44686 0.0
C419 C 0.17071 0.95558 0.42733 0.0
Zn420 Zn 0.59904 0.75693 0.4689 0.0
Zn421 Zn 0.57673 0.74616 0.40792 0.0
C422 C 0.54842 0.77221 0.48968 0.0
O423 O 0.563 0.79176 0.49479 0.0
C424 C 0.62156 0.72785 0.3765 0.0
O425 O 0.6081 0.70739 0.37982 0.0
O426 O 0.61485 0.76279 0.50788 0.0
O427 O 0.61319 0.72484 0.45574 0.0
O428 O 0.57565 0.71627 0.43332 0.0
C429 C 0.60445 0.75024 0.52785 0.0
O430 O 0.58591 0.73402 0.52162 0.0
O431 O 0.55903 0.75448 0.47625 0.0
C432 C 0.55092 0.75605 0.35595 0.0
O433 O 0.56613 0.77558 0.35837 0.0
O434 O 0.5511 0.74024 0.37579 0.0
O435 O 0.56817 0.77984 0.42317 0.0
O436 O 0.60736 0.78532 0.44347 0.0
O437 O 0.61271 0.74737 0.3879 0.0
C438 C 0.59689 0.7092 0.44582 0.0
C439 C 0.58787 0.79366 0.42908 0.0
Zn440 Zn 0.14713 0.75342 0.29726 0.0
Zn441 Zn 0.16665 0.74357 0.36176 0.0
C442 C 0.19537 0.76604 0.2704 0.0
O443 O 0.17886 0.78315 0.26152 0.0
C444 C 0.11993 0.72744 0.39153 0.0
O445 O 0.13295 0.70666 0.38891 0.0
O446 O 0.13008 0.7562 0.25834 0.0
O447 O 0.13239 0.72249 0.31328 0.0
O448 O 0.16835 0.71306 0.33805 0.0
C449 C 0.13867 0.74018 0.24089 0.0
O450 O 0.15567 0.72354 0.24996 0.0
O451 O 0.187 0.75058 0.28861 0.0
C452 C 0.19208 0.75551 0.41378 0.0
O453 O 0.17748 0.77529 0.41018 0.0
O454 O 0.19137 0.7388 0.39496 0.0
O455 O 0.17798 0.77508 0.3435 0.0
O456 O 0.14082 0.78361 0.32035 0.0
O457 O 0.12981 0.74665 0.38032 0.0
C458 C 0.14775 0.70655 0.32411 0.0
C459 C 0.16055 0.79051 0.33544 0.0
Zn460 Zn 0.58195 0.9852 0.27769 0.0
Zn461 Zn 0.59645 0.99393 0.36823 0.0
C462 C 0.53978 0.98206 0.2351 0.0
O463 O 0.55984 0.97545 0.21873 0.0
C464 C 0.64342 0.01034 0.39736 0.0
O465 O 0.63247 0.0314 0.39062 0.0
O466 O 0.60735 0.9889 0.24471 0.0
O467 O 0.58746 0.01447 0.30522 0.0
O468 O 0.59421 0.02662 0.34992 0.0
C469 C 0.60568 0.00853 0.23032 0.0
O470 O 0.58933 0.02581 0.23909 0.0
O471 O 0.54402 0.98662 0.26133 0.0
C472 C 0.56968 0.98067 0.42013 0.0
O473 O 0.59115 0.96713 0.42392 0.0
O474 O 0.56681 0.99236 0.39696 0.0
O475 O 0.59187 0.9732 0.33427 0.0
O476 O 0.58717 0.95155 0.29623 0.0
O477 O 0.6322 0.99065 0.38905 0.0
C478 C 0.59094 0.03144 0.3236 0.0
C479 C 0.59055 0.95234 0.32295 0.0
Zn480 Zn 0.83337 0.50738 0.12619 0.0
Zn481 Zn 0.82311 0.50812 0.03568 0.0
C482 C 0.87255 0.5027 0.16823 0.0
O483 O 0.85466 0.48626 0.17572 0.0
C484 C 0.76625 0.51616 0.02298 0.0
O485 O 0.76855 0.53488 0.04035 0.0
O486 O 0.80269 0.50868 0.15435 0.0
O487 O 0.8278 0.52422 0.09023 0.0
O488 O 0.8246 0.54355 0.05074 0.0
C489 C 0.80448 0.52321 0.17544 0.0
O490 O 0.82466 0.53864 0.17653 0.0
O491 O 0.86817 0.51562 0.14616 0.0
C492 C 0.84768 0.48715 0.98613 0.0
O493 O 0.83741 0.46703 0.9968 0.0
O494 O 0.84584 0.50695 1.00018 0.0
O495 O 0.83359 0.47995 0.06435 0.0
O496 O 0.83829 0.47379 0.11126 0.0
O497 O 0.7861 0.50185 0.01964 0.0
C498 C 0.82621 0.54441 0.07755 0.0
C499 C 0.83905 0.466 0.08562 0.0
Zn500 Zn 0.41336 0.75081 0.12785 0.0
Zn501 Zn 0.42679 0.74817 0.03672 0.0
C502 C 0.37247 0.75783 0.16833 0.0
O503 O 0.39107 0.77299 0.1774 0.0
C504 C 0.46884 0.73663 1.00007 0.0
O505 O 0.45052 0.72006 0.9943 0.0
O506 O 0.44266 0.74741 0.15756 0.0
O507 O 0.419 0.73208 0.09252 0.0
O508 O 0.42387 0.71346 0.05247 0.0
C509 C 0.43853 0.73425 0.17951 0.0
O510 O 0.41617 0.72164 0.18135 0.0
O511 O 0.37703 0.74514 0.1461 0.0
C512 C 0.40073 0.76951 0.98785 0.0
O513 O 0.41159 0.78982 0.99739 0.0
O514 O 0.40274 0.75006 1.00249 0.0
O515 O 0.41785 0.77533 0.06641 0.0
O516 O 0.41219 0.78475 0.11229 0.0
O517 O 0.4641 0.75203 0.0198 0.0
C518 C 0.42053 0.71213 0.07913 0.0
C519 C 0.41263 0.79089 0.08605 0.0
Zn520 Zn 0.81498 0.74942 0.15384 0.0
Zn521 Zn 0.83215 0.73998 0.22453 0.0
C522 C 0.85476 0.75481 0.11097 0.0
O523 O 0.83646 0.77028 0.10199 0.0
C524 C 0.78057 0.72317 0.24334 0.0
O525 O 0.79292 0.70195 0.24233 0.0
O526 O 0.78814 0.75371 0.12221 0.0
O527 O 0.80335 0.71976 0.17606 0.0
O528 O 0.84064 0.71166 0.19862 0.0
C529 C 0.7845 0.73565 0.10557 0.0
O530 O 0.79659 0.71484 0.11114 0.0
O531 O 0.8505 0.7429 0.13384 0.0
C532 C 0.86821 0.74463 0.27347 0.0
O533 O 0.88112 0.76064 0.25775 0.0
O534 O 0.84835 0.73322 0.26295 0.0
O535 O 0.84506 0.77301 0.21164 0.0
O536 O 0.81995 0.78183 0.1739 0.0
O537 O 0.79269 0.74215 0.2344 0.0
C538 C 0.82221 0.70499 0.18173 0.0
C539 C 0.83604 0.7883 0.19359 0.0
Zn540 Zn 0.42132 0.49288 0.14084 0.0
Zn541 Zn 0.41759 0.51039 0.21896 0.0
C542 C 0.38176 0.46883 0.10546 0.0
O543 O 0.40205 0.45432 0.09966 0.0
C544 C 0.46732 0.52405 0.24083 0.0
O545 O 0.45284 0.544 0.24366 0.0
O546 O 0.44745 0.49011 0.10834 0.0
O547 O 0.42047 0.52798 0.15211 0.0
O548 O 0.41334 0.54143 0.19596 0.0
C549 C 0.44335 0.50504 0.08803 0.0
O550 O 0.4234 0.52064 0.09005 0.0
O551 O 0.38489 0.4858 0.1237 0.0
C552 C 0.40942 0.50161 0.27733 0.0
O553 O 0.42716 0.48468 0.27098 0.0
O554 O 0.40092 0.51568 0.25772 0.0
O555 O 0.4003 0.47925 0.20443 0.0
O556 O 0.42974 0.46872 0.17167 0.0
O557 O 0.45706 0.50582 0.22794 0.0
C558 C 0.41735 0.5454 0.16964 0.0
C559 C 0.41044 0.46321 0.18806 0.0
Zn560 Zn 0.15968 0.47907 0.97307 0.0
Zn561 Zn 0.17605 0.49086 0.90711 0.0
C562 C 0.20977 0.4621 0.99201 0.0
O563 O 0.19438 0.44285 0.99584 0.0
C564 C 0.13093 0.50803 0.87689 0.0
O565 O 0.14626 0.52758 0.87716 0.0
O566 O 0.14562 0.47399 0.0129 0.0
O567 O 0.14475 0.51152 0.9602 0.0
O568 O 0.17785 0.52139 0.93135 0.0
C569 C 0.15129 0.49167 0.02949 0.0
O570 O 0.16343 0.51097 0.0189 0.0
O571 O 0.1998 0.48088 0.97995 0.0
C572 C 0.19509 0.48291 0.85126 0.0
O573 O 0.17603 0.46634 0.85257 0.0
O574 O 0.19983 0.49606 0.87303 0.0
O575 O 0.18661 0.45799 0.92292 0.0
O576 O 0.15077 0.44993 0.94835 0.0
O577 O 0.13876 0.48901 0.8901 0.0
C578 C 0.15805 0.52764 0.94678 0.0
C579 C 0.16837 0.44312 0.93046 0.0
Zn580 Zn 0.57402 0.26042 0.96762 0.0
Zn581 Zn 0.55417 0.2465 0.90286 0.0
C582 C 0.52244 0.27445 0.98714 0.0
O583 O 0.53392 0.29602 0.98522 0.0
C584 C 0.59908 0.23026 0.87252 0.0
O585 O 0.58424 0.21041 0.87343 0.0
O586 O 0.59086 0.26782 0.00552 0.0
O587 O 0.59018 0.22933 0.95362 0.0
O588 O 0.55567 0.21651 0.92835 0.0
C589 C 0.61308 0.25903 0.01389 0.0
O590 O 0.62768 0.24612 0.9961 0.0
O591 O 0.53513 0.2557 0.97841 0.0
C592 C 0.53064 0.25676 0.85021 0.0
O593 O 0.54461 0.27668 0.8552 0.0
O594 O 0.5305 0.23986 0.86884 0.0
O595 O 0.54277 0.27957 0.91804 0.0
O596 O 0.57942 0.28885 0.94158 0.0
O597 O 0.59079 0.24947 0.88502 0.0
C598 C 0.57748 0.21212 0.9415 0.0
C599 C 0.56091 0.29493 0.92448 0.0
Zn600 Zn 0.16878 0.24498 0.78573 0.0
Zn601 Zn 0.1557 0.24218 0.87573 0.0
C602 C 0.21138 0.25894 0.75139 0.0
O603 O 0.19266 0.27515 0.74571 0.0
C604 C 0.09891 0.23811 0.88839 0.0
O605 O 0.09913 0.22286 0.86676 0.0
O606 O 0.14605 0.24093 0.75054 0.0
O607 O 0.16095 0.21698 0.81499 0.0
O608 O 0.15519 0.20783 0.8609 0.0
C609 C 0.15114 0.22249 0.73492 0.0
O610 O 0.16802 0.20588 0.74432 0.0
O611 O 0.20661 0.24275 0.77021 0.0
C612 C 0.17896 0.24063 0.92986 0.0
O613 O 0.15533 0.23072 0.93433 0.0
O614 O 0.18519 0.24709 0.90469 0.0
O615 O 0.16023 0.26059 0.84053 0.0
O616 O 0.16456 0.28 0.80121 0.0
O617 O 0.1203 0.24946 0.89481 0.0
C618 C 0.15635 0.20136 0.83477 0.0
C619 C 0.16156 0.28088 0.82793 0.0
Zn620 Zn 0.58961 0.49464 0.78866 0.0
Zn621 Zn 0.56829 0.50676 0.85018 0.0
C622 C 0.53944 0.48333 0.76557 0.0
O623 O 0.55318 0.46317 0.76112 0.0
C624 C 0.61304 0.52058 0.8827 0.0
O625 O 0.59849 0.54063 0.88288 0.0
O626 O 0.60568 0.48797 0.74999 0.0
O627 O 0.60675 0.52497 0.80428 0.0
O628 O 0.5702 0.53747 0.82617 0.0
C629 C 0.60973 0.50632 0.73395 0.0
O630 O 0.60574 0.52841 0.74415 0.0
O631 O 0.55055 0.50072 0.77917 0.0
C632 C 0.54764 0.49708 0.9041 0.0
O633 O 0.56534 0.4795 0.90078 0.0
O634 O 0.5441 0.51234 0.88398 0.0
O635 O 0.55538 0.47489 0.83356 0.0
O636 O 0.59323 0.46465 0.81306 0.0
O637 O 0.60492 0.50235 0.86822 0.0
C638 C 0.59265 0.54221 0.81451 0.0
C639 C 0.57271 0.45872 0.82748 0.0
H640 H 0.37927 0.8053 0.04341 0.0
H641 H 0.42654 0.83252 0.11362 0.0
H642 H 0.35931 0.84609 0.03728 0.0
H643 H 0.40721 0.87331 0.10691 0.0
H644 H 0.38464 0.9461 0.05815 0.0
H645 H 0.40528 0.90566 0.05896 0.0
H646 H 0.32905 0.87338 0.08071 0.0
H647 H 0.30818 0.91417 0.08066 0.0
C648 C 0.38596 0.82018 0.05689 0.0
C649 C 0.40458 0.81598 0.07879 0.0
C650 C 0.37433 0.84331 0.05363 0.0
C651 C 0.38171 0.86255 0.07178 0.0
C652 C 0.40129 0.85863 0.09272 0.0
C653 C 0.41238 0.83543 0.09645 0.0
C654 C 0.37216 0.93041 0.06298 0.0
C655 C 0.34476 0.93327 0.06939 0.0
C656 C 0.38403 0.90734 0.06341 0.0
C657 C 0.36863 0.88663 0.06966 0.0
C658 C 0.34116 0.88924 0.07557 0.0
C659 C 0.32932 0.91248 0.07574 0.0
H660 H 0.83178 0.43686 0.03838 0.0
H661 H 0.86598 0.43711 0.12288 0.0
H662 H 0.84778 0.39488 0.03144 0.0
H663 H 0.88104 0.39534 0.11636 0.0
H664 H 0.92738 0.32946 0.08848 0.0
H665 H 0.91415 0.37237 0.08898 0.0
H666 H 0.83832 0.35341 0.05033 0.0
H667 H 0.85168 0.31052 0.04936 0.0
C668 C 0.84285 0.42808 0.05531 0.0
C669 C 0.84781 0.44043 0.081 0.0
C670 C 0.85178 0.40399 0.05148 0.0
C671 C 0.86592 0.3919 0.07326 0.0
C672 C 0.87069 0.40428 0.09895 0.0
C673 C 0.86175 0.42818 0.10278 0.0
C674 C 0.908 0.33445 0.07981 0.0
C675 C 0.8905 0.31653 0.06911 0.0
C676 C 0.90037 0.35902 0.08021 0.0
C677 C 0.87508 0.36623 0.06994 0.0
C678 C 0.858 0.34846 0.05821 0.0
C679 C 0.86562 0.32385 0.05783 0.0
H680 H 0.365 0.44642 0.21416 0.0
H681 H 0.43215 0.42276 0.16279 0.0
H682 H 0.3482 0.40445 0.21545 0.0
H683 H 0.41532 0.38086 0.16426 0.0
H684 H 0.39383 0.30647 0.20438 0.0
H685 H 0.40938 0.34873 0.20305 0.0
H686 H 0.32974 0.37275 0.18023 0.0
H687 H 0.31403 0.33037 0.18141 0.0
C688 C 0.37617 0.4323 0.20315 0.0
C689 C 0.39998 0.4379 0.18849 0.0
C690 C 0.36645 0.40833 0.20378 0.0
C691 C 0.38054 0.38947 0.19005 0.0
C692 C 0.40424 0.39505 0.17527 0.0
C693 C 0.41379 0.41905 0.17435 0.0
C694 C 0.37956 0.32074 0.19921 0.0
C695 C 0.35269 0.31508 0.19299 0.0
C696 C 0.38854 0.3449 0.19827 0.0
C697 C 0.37078 0.36393 0.19142 0.0
C698 C 0.34379 0.35839 0.18571 0.0
C699 C 0.33486 0.33415 0.18631 0.0
H700 H 0.82649 0.82481 0.15504 0.0
H701 H 0.86785 0.8098 0.23405 0.0
H702 H 0.84496 0.86606 0.15488 0.0
H703 H 0.88661 0.85098 0.23355 0.0
H704 H 0.89335 0.93532 0.23561 0.0
H705 H 0.87385 0.89441 0.2378 0.0
H706 H 0.88923 0.8847 0.14802 0.0
H707 H 0.90834 0.92556 0.14563 0.0
C708 C 0.83939 0.83032 0.17247 0.0
C709 C 0.84573 0.81392 0.19451 0.0
C710 C 0.85015 0.85391 0.17223 0.0
C711 C 0.86743 0.86171 0.19407 0.0
C712 C 0.87323 0.84557 0.21651 0.0
C713 C 0.86255 0.82192 0.21671 0.0
C714 C 0.89269 0.92443 0.21635 0.0
C715 C 0.90235 0.93383 0.19042 0.0
C716 C 0.88158 0.90096 0.21765 0.0
C717 C 0.8798 0.88641 0.19304 0.0
C718 C 0.88987 0.89563 0.16726 0.0
C719 C 0.90103 0.91902 0.16596 0.0
H720 H 0.68586 0.08828 0.92125 0.0
H721 H 0.61319 0.05788 0.95694 0.0
H722 H 0.66471 0.12872 0.92013 0.0
H723 H 0.59232 0.09805 0.95579 0.0
H724 H 0.55527 0.16936 0.92181 0.0
H725 H 0.57647 0.12901 0.91979 0.0
H726 H 0.64857 0.15904 0.95686 0.0
H727 H 0.62762 0.19918 0.95893 0.0
C728 C 0.66545 0.0902 0.92882 0.0
C729 C 0.65128 0.06989 0.93929 0.0
C730 C 0.65338 0.11332 0.92823 0.0
C731 C 0.62685 0.11645 0.93779 0.0
C732 C 0.61265 0.09611 0.94797 0.0
C733 C 0.62475 0.07314 0.94883 0.0
C734 C 0.57561 0.16732 0.92958 0.0
C735 C 0.58966 0.18744 0.9407 0.0
C736 C 0.58772 0.14425 0.92844 0.0
C737 C 0.61419 0.14096 0.93809 0.0
C738 C 0.62827 0.16111 0.94896 0.0
C739 C 0.61612 0.18405 0.95038 0.0
H740 H 0.09702 0.66775 0.89271 0.0
H741 H 0.09809 0.67485 0.98439 0.0
H742 H 0.11501 0.6265 0.89678 0.0
H743 H 0.1163 0.63348 0.98832 0.0
H744 H 0.12006 0.54841 0.98122 0.0
H745 H 0.10265 0.59013 0.97932 0.0
H746 H 0.15795 0.60703 0.91137 0.0
H747 H 0.17531 0.56534 0.91311 0.0
C748 C 0.10095 0.66051 0.91376 0.0
C749 C 0.09607 0.67468 0.93823 0.0
C750 C 0.1115 0.63692 0.91605 0.0
C751 C 0.11726 0.62681 0.94286 0.0
C752 C 0.11194 0.64074 0.96738 0.0
C753 C 0.10157 0.66446 0.9651 0.0
C754 C 0.12864 0.56106 0.966 0.0
C755 C 0.149 0.55348 0.94722 0.0
C756 C 0.11873 0.58499 0.96501 0.0
C757 C 0.12878 0.6018 0.94506 0.0
C758 C 0.14953 0.59438 0.92671 0.0
C759 C 0.15961 0.57054 0.92786 0.0
H760 H 0.6912 0.67202 0.83697 0.0
H761 H 0.61959 0.69801 0.79475 0.0
H762 H 0.67296 0.63048 0.83675 0.0
H763 H 0.60154 0.65664 0.7946 0.0
H764 H 0.56685 0.58445 0.82997 0.0
H765 H 0.58528 0.62589 0.83074 0.0
H766 H 0.66117 0.59833 0.80014 0.0
H767 H 0.6429 0.557 0.79932 0.0
C768 C 0.67166 0.66888 0.82758 0.0
C769 C 0.6569 0.68832 0.81583 0.0
C770 C 0.66126 0.64512 0.8274 0.0
C771 C 0.6358 0.6404 0.81574 0.0
C772 C 0.62108 0.6598 0.80401 0.0
C773 C 0.63155 0.68347 0.80393 0.0
C774 C 0.58743 0.58724 0.82335 0.0
C775 C 0.60337 0.56744 0.81451 0.0
C776 C 0.59795 0.61096 0.82372 0.0
C777 C 0.62466 0.61527 0.81554 0.0
C778 C 0.64061 0.59548 0.80683 0.0
C779 C 0.63004 0.57185 0.80618 0.0
H780 H 0.13018 0.18318 0.78817 0.0
H781 H 0.16934 0.1614 0.86614 0.0
H782 H 0.11567 0.14066 0.78048 0.0
H783 H 0.15564 0.119 0.8579 0.0
H784 H 0.14812 0.04321 0.8106 0.0
H785 H 0.16418 0.08547 0.81227 0.0
H786 H 0.08264 0.11124 0.81858 0.0
H787 H 0.06639 0.06881 0.81776 0.0
C788 C 0.13619 0.16923 0.80326 0.0
C789 C 0.1509 0.1755 0.82773 0.0
C790 C 0.12774 0.14505 0.79897 0.0
C791 C 0.13454 0.12675 0.81868 0.0
C792 C 0.15023 0.13285 0.84242 0.0
C793 C 0.15805 0.15704 0.8471 0.0
C794 C 0.13356 0.05787 0.8121 0.0
C795 C 0.10598 0.05271 0.81413 0.0
C796 C 0.14279 0.08199 0.81307 0.0
C797 C 0.12459 0.10144 0.81536 0.0
C798 C 0.09698 0.09645 0.81654 0.0
C799 C 0.08775 0.07224 0.81625 0.0
H800 H 0.35269 0.30349 0.5639 0.0
H801 H 0.43486 0.32789 0.57093 0.0
H802 H 0.33738 0.34594 0.56552 0.0
H803 H 0.41941 0.37052 0.57186 0.0
H804 H 0.37651 0.44186 0.53673 0.0
H805 H 0.39232 0.39946 0.5348 0.0
H806 H 0.34072 0.38101 0.60531 0.0
H807 H 0.32531 0.42346 0.60781 0.0
C808 C 0.3675 0.31793 0.56558 0.0
C809 C 0.395 0.31238 0.56724 0.0
C810 C 0.3587 0.34218 0.56664 0.0
C811 C 0.37723 0.36142 0.56877 0.0
C812 C 0.40476 0.35597 0.57006 0.0
C813 C 0.41356 0.33163 0.56964 0.0
C814 C 0.36845 0.42874 0.55175 0.0
C815 C 0.34962 0.436 0.5724 0.0
C816 C 0.37765 0.40456 0.55074 0.0
C817 C 0.36774 0.38708 0.56994 0.0
C818 C 0.34858 0.39418 0.59024 0.0
C819 C 0.33983 0.41846 0.59167 0.0
H820 H 0.90128 0.942 0.5555 0.0
H821 H 0.82564 0.92199 0.594 0.0
H822 H 0.91391 0.89894 0.55312 0.0
H823 H 0.83839 0.87887 0.59157 0.0
H824 H 0.85964 0.80377 0.55242 0.0
H825 H 0.84697 0.84687 0.55401 0.0
H826 H 0.92509 0.86516 0.58749 0.0
H827 H 0.93786 0.82203 0.58597 0.0
C828 C 0.88731 0.92844 0.56342 0.0
C829 C 0.86243 0.93547 0.57495 0.0
C830 C 0.89464 0.90378 0.56219 0.0
C831 C 0.87716 0.88555 0.57218 0.0
C832 C 0.85218 0.89252 0.58348 0.0
C833 C 0.84495 0.91722 0.58499 0.0
C834 C 0.87418 0.81696 0.56004 0.0
C835 C 0.89979 0.80944 0.56906 0.0
C836 C 0.86683 0.84163 0.56111 0.0
C837 C 0.88501 0.85937 0.57092 0.0
C838 C 0.91073 0.85191 0.57961 0.0
C839 C 0.91799 0.8272 0.57884 0.0
H840 H 0.38977 0.94052 0.72556 0.0
H841 H 0.42323 0.92406 0.64289 0.0
H842 H 0.37269 0.89848 0.72881 0.0
H843 H 0.4065 0.88253 0.64623 0.0
H844 H 0.34428 0.82349 0.64198 0.0
H845 H 0.36121 0.86509 0.64406 0.0
H846 H 0.38624 0.85383 0.73107 0.0
H847 H 0.36908 0.81195 0.72914 0.0
C848 C 0.39395 0.92786 0.70841 0.0
C849 C 0.40765 0.9357 0.68388 0.0
C850 C 0.38411 0.90384 0.71022 0.0
C851 C 0.38778 0.88737 0.6875 0.0
C852 C 0.4027 0.89495 0.66375 0.0
C853 C 0.41244 0.91876 0.66193 0.0
C854 C 0.35321 0.82982 0.66167 0.0
C855 C 0.35539 0.81424 0.68535 0.0
C856 C 0.36305 0.85368 0.66281 0.0
C857 C 0.37542 0.86263 0.6876 0.0
C858 C 0.37674 0.84746 0.7117 0.0
C859 C 0.36688 0.82346 0.71056 0.0
H860 H 0.8224 0.32297 0.64872 0.0
H861 H 0.85173 0.30796 0.73356 0.0
H862 H 0.8418 0.36355 0.65076 0.0
H863 H 0.87151 0.34914 0.73541 0.0
H864 H 0.87944 0.43712 0.72762 0.0
H865 H 0.86014 0.39602 0.73329 0.0
H866 H 0.89004 0.37615 0.6502 0.0
H867 H 0.90911 0.41668 0.64454 0.0
C868 C 0.83283 0.32836 0.66796 0.0
C869 C 0.83584 0.31199 0.69082 0.0
C870 C 0.84406 0.35165 0.66905 0.0
C871 C 0.85869 0.35932 0.69298 0.0
C872 C 0.86043 0.34364 0.71664 0.0
C873 C 0.8491 0.3201 0.71556 0.0
C874 C 0.8824 0.42375 0.71092 0.0
C875 C 0.89562 0.43024 0.68554 0.0
C876 C 0.87127 0.40029 0.71412 0.0
C877 C 0.87313 0.38308 0.69194 0.0
C878 C 0.88772 0.38921 0.66739 0.0
C879 C 0.89874 0.41245 0.6642 0.0
H880 H 0.6779 0.57066 0.42656 0.0
H881 H 0.60016 0.55052 0.46004 0.0
H882 H 0.66521 0.61372 0.42875 0.0
H883 H 0.58765 0.59358 0.46237 0.0
H884 H 0.56616 0.67061 0.42823 0.0
H885 H 0.57844 0.6274 0.42794 0.0
H886 H 0.65499 0.64522 0.4657 0.0
H887 H 0.64291 0.6884 0.46585 0.0
C888 C 0.65817 0.57541 0.43449 0.0
C889 C 0.64003 0.5572 0.44311 0.0
C890 C 0.65097 0.60006 0.43586 0.0
C891 C 0.62546 0.60693 0.44573 0.0
C892 C 0.60735 0.58875 0.45441 0.0
C893 C 0.61459 0.56412 0.45319 0.0
C894 C 0.58555 0.6653 0.43662 0.0
C895 C 0.60358 0.68292 0.44702 0.0
C896 C 0.59252 0.64057 0.43654 0.0
C897 C 0.61769 0.63302 0.44671 0.0
C898 C 0.63558 0.65059 0.45742 0.0
C899 C 0.62857 0.67529 0.45766 0.0
H900 H 0.18406 0.08057 0.44094 0.0
H901 H 0.10487 0.05096 0.45601 0.0
H902 H 0.16516 0.12202 0.44105 0.0
H903 H 0.08618 0.09221 0.45544 0.0
H904 H 0.07158 0.16585 0.40072 0.0
H905 H 0.08802 0.12434 0.40925 0.0
H906 H 0.1348 0.15036 0.48038 0.0
H907 H 0.11786 0.19193 0.47238 0.0
C908 C 0.16274 0.08294 0.44445 0.0
C909 C 0.14591 0.06265 0.44843 0.0
C910 C 0.15203 0.10654 0.44469 0.0
C911 C 0.12435 0.11001 0.44836 0.0
C912 C 0.1076 0.0898 0.4527 0.0
C913 C 0.11833 0.06631 0.45304 0.0
C914 C 0.08498 0.1626 0.41848 0.0
C915 C 0.09345 0.18194 0.43595 0.0
C916 C 0.0943 0.13896 0.42334 0.0
C917 C 0.11265 0.13448 0.44534 0.0
C918 C 0.12066 0.15362 0.46328 0.0
C919 C 0.11084 0.17722 0.45883 0.0
H920 H 0.6303 0.18114 0.2673 0.0
H921 H 0.6447 0.17033 0.35727 0.0
H922 H 0.61185 0.13958 0.26415 0.0
H923 H 0.62647 0.12942 0.35395 0.0
H924 H 0.5688 0.06972 0.35091 0.0
H925 H 0.57997 0.11275 0.34456 0.0
H926 H 0.62885 0.09439 0.27172 0.0
H927 H 0.61739 0.05105 0.27803 0.0
C928 C 0.62961 0.16997 0.28632 0.0
C929 C 0.63878 0.17916 0.31259 0.0
C930 C 0.61909 0.14625 0.28446 0.0
C931 C 0.61729 0.13158 0.3089 0.0
C932 C 0.62703 0.14059 0.3349 0.0
C933 C 0.63768 0.16402 0.33672 0.0
C934 C 0.58128 0.07498 0.33303 0.0
C935 C 0.59232 0.05721 0.31498 0.0
C936 C 0.58775 0.09953 0.32947 0.0
C937 C 0.60567 0.10673 0.308 0.0
C938 C 0.61492 0.08925 0.28837 0.0
C939 C 0.60827 0.06453 0.29187 0.0
H940 H 0.17718 0.66728 0.34191 0.0
H941 H 0.1022 0.68699 0.30157 0.0
H942 H 0.1645 0.6242 0.33961 0.0
H943 H 0.08973 0.64396 0.29924 0.0
H944 H 0.06549 0.56829 0.33524 0.0
H945 H 0.07837 0.61134 0.33545 0.0
H946 H 0.15614 0.59225 0.30153 0.0
H947 H 0.14345 0.54918 0.30139 0.0
C948 C 0.15808 0.66242 0.33246 0.0
C949 C 0.14066 0.68049 0.32198 0.0
C950 C 0.15091 0.63781 0.33104 0.0
C951 C 0.12615 0.6309 0.3193 0.0
C952 C 0.10882 0.64891 0.30865 0.0
C953 C 0.11605 0.67349 0.30987 0.0
C954 C 0.08529 0.57328 0.32772 0.0
C955 C 0.10348 0.5554 0.31832 0.0
C956 C 0.09259 0.59789 0.32774 0.0
C957 C 0.11823 0.60497 0.31855 0.0
C958 C 0.13634 0.58715 0.30897 0.0
C959 C 0.129 0.56257 0.30874 0.0
H960 H 0.30295 0.03527 0.20816 0.0
H961 H 0.25 0.97903 0.17631 0.0
H962 H 0.28281 0.03164 0.25508 0.0
H963 H 0.22894 0.97608 0.22303 0.0
H964 H 0.21546 0.95772 0.31572 0.0
H965 H 0.23678 0.96171 0.26946 0.0
H966 H 0.24432 0.03972 0.28262 0.0
H967 H 0.22388 0.03545 0.32959 0.0
C968 C 0.28674 0.02232 0.21108 0.0
C969 C 0.27811 0.0074 0.18847 0.0
C970 C 0.27506 0.02033 0.23804 0.0
C971 C 0.25422 0.00353 0.24305 0.0
C972 C 0.24529 0.98889 0.22022 0.0
C973 C 0.25721 0.99069 0.19332 0.0
C974 C 0.22181 0.97572 0.30882 0.0
C975 C 0.21796 0.99628 0.32633 0.0
C976 C 0.23384 0.97806 0.28211 0.0
C977 C 0.24207 0.00108 0.27198 0.0
C978 C 0.23855 0.02163 0.28974 0.0
C979 C 0.22676 0.01923 0.31668 0.0
H980 H 0.00512 0.24211 0.33534 0.0
H981 H 0.05871 0.29023 0.28962 0.0
H982 H 0.97697 0.23864 0.29302 0.0
H983 H 0.03133 0.28604 0.24722 0.0
H984 H 0.96671 0.28793 0.17976 0.0
H985 H 0.99026 0.29516 0.22447 0.0
H986 H 0.97883 0.21934 0.2477 0.0
H987 H 0.95447 0.21242 0.20358 0.0
C988 C 0.0108 0.25207 0.31634 0.0
C989 C 0.03423 0.26634 0.31584 0.0
C990 C 0.9948 0.24992 0.29198 0.0
C991 C 0.00199 0.26184 0.26652 0.0
C992 C 0.02493 0.2768 0.26644 0.0
C993 C 0.04077 0.2791 0.2908 0.0
C994 C 0.96926 0.27282 0.19444 0.0
C995 C 0.9588 0.24959 0.18809 0.0
C996 C 0.98282 0.27694 0.22006 0.0
C997 C 0.98646 0.25786 0.23981 0.0
C998 C 0.97598 0.23461 0.23334 0.0
C999 C 0.96222 0.23057 0.20787 0.0
H1000 H 0.16727 0.23676 0.98617 0.0
H1001 H 0.23231 0.25317 0.92841 0.0
H1002 H 0.19745 0.2415 0.02646 0.0
H1003 H 0.26267 0.25793 0.96908 0.0
H1004 H 0.31033 0.22758 0.04781 0.0
H1005 H 0.28165 0.22905 0.00586 0.0
H1006 H 0.22459 0.27349 0.05183 0.0
H1007 H 0.25333 0.27201 0.09402 0.0
C1008 C 0.18801 0.24148 0.98206 0.0
C1009 C 0.19746 0.24443 0.95407 0.0
C1010 C 0.20524 0.24441 0.0052 0.0
C1011 C 0.23238 0.25014 1.00092 0.0
C1012 C 0.24184 0.25338 0.97296 0.0
C1013 C 0.22448 0.25072 0.94973 0.0
C1014 C 0.29176 0.23782 0.04896 0.0
C1015 C 0.28396 0.24949 0.07432 0.0
C1016 C 0.27546 0.23882 0.02483 0.0
C1017 C 0.25088 0.25132 0.0256 0.0
C1018 C 0.24336 0.26354 0.05073 0.0
C1019 C 0.25983 0.26276 0.07482 0.0
H1020 H 0.97131 0.04376 0.05442 0.0
H1021 H 0.98058 0.96713 0.07464 0.0
H1022 H 0.99486 0.03747 0.00964 0.0
H1023 H 0.00327 0.96059 0.02933 0.0
H1024 H 0.0653 0.96157 0.95843 0.0
H1025 H 0.0433 0.96829 1.0039 0.0
H1026 H 0.98902 0.01959 0.96402 0.0
H1027 H 0.01185 0.01352 0.91861 0.0
C1028 C 0.97838 0.02554 0.04928 0.0
C1029 C 0.9741 0.00594 0.06809 0.0
C1030 C 0.99168 0.02189 0.02345 0.0
C1031 C 0.00082 -0.00152 0.01566 0.0
C1032 C 0.99685 0.97893 0.03473 0.0
C1033 C 0.98376 0.98265 0.06071 0.0
C1034 C 0.04862 0.97425 0.95931 0.0
C1035 C 0.04031 0.98702 0.93489 0.0
C1036 C 0.03589 0.97802 0.98542 0.0
C1037 C 0.01433 0.99448 0.98774 0.0
C1038 C 0.00585 0.00708 0.96319 0.0
C1039 C 0.01879 0.00348 0.93708 0.0
H1040 H 0.72371 0.03991 0.82376 0.0
H1041 H 0.74377 0.96298 0.823 0.0
H1042 H 0.74405 0.04455 0.77678 0.0
H1043 H 0.7646 0.96774 0.77656 0.0
H1044 H 0.77547 0.97806 0.68179 0.0
H1045 H 0.75268 0.97493 0.72758 0.0
H1046 H 0.78722 0.04398 0.75339 0.0
H1047 H 0.80937 0.04743 0.70742 0.0
C1048 C 0.73266 0.02406 0.8137 0.0
C1049 C 0.73208 0.00108 0.82709 0.0
C1050 C 0.74437 0.02672 0.78681 0.0
C1051 C 0.7558 0.00647 0.77281 0.0
C1052 C 0.75551 0.9836 0.78646 0.0
C1053 C 0.74375 0.98093 0.81322 0.0
C1054 C 0.77802 0.99265 0.69716 0.0
C1055 C 0.79431 0.01294 0.691 0.0
C1056 C 0.76512 0.99079 0.72348 0.0
C1057 C 0.76829 0.00912 0.74425 0.0
C1058 C 0.78411 0.02966 0.7378 0.0
C1059 C 0.79694 0.03156 0.71147 0.0
H1060 H 0.00538 0.72538 0.8317 0.0
H1061 H 0.05504 0.78199 0.79501 0.0
H1062 H 0.98285 0.72005 0.78601 0.0
H1063 H 0.03342 0.77602 0.74927 0.0
H1064 H 0.97269 0.77519 0.67742 0.0
H1065 H 0.99308 0.78184 0.72382 0.0
H1066 H 0.99134 0.70394 0.73973 0.0
H1067 H 0.96993 0.69744 0.69372 0.0
C1068 C 0.01144 0.7367 0.8139 0.0
C1069 C 0.03196 0.7541 0.81696 0.0
C1070 C 0.99872 0.7335 0.78765 0.0
C1071 C 0.00644 0.74748 0.76386 0.0
C1072 C 0.02667 0.76516 0.76716 0.0
C1073 C 0.03917 0.76852 0.79343 0.0
C1074 C 0.97684 0.75947 0.69075 0.0
C1075 C 0.96977 0.73578 0.68192 0.0
C1076 C 0.98858 0.76327 0.71736 0.0
C1077 C 0.9938 0.74344 0.7356 0.0
C1078 C 0.98712 0.71969 0.72649 0.0
C1079 C 0.9751 0.71592 0.7 0.0
H1080 H 0.74136 0.72644 0.92748 0.0
H1081 H 0.6903 0.78412 0.95949 0.0
H1082 H 0.75994 0.72073 0.97504 0.0
H1083 H 0.70812 0.77787 0.0071 0.0
H1084 H 0.76932 0.70021 0.06794 0.0
H1085 H 0.74874 0.7057 0.02134 0.0
H1086 H 0.74759 0.78397 0.03457 0.0
H1087 H 0.76733 0.77838 0.08149 0.0
C1088 C 0.73403 0.73782 0.94469 0.0
C1089 C 0.71445 0.75579 0.93969 0.0
C1090 C 0.74451 0.73443 0.97201 0.0
C1091 C 0.73548 0.7488 0.99498 0.0
C1092 C 0.71585 0.76672 0.98988 0.0
C1093 C 0.70554 0.77024 0.96256 0.0
C1094 C 0.76442 0.71857 0.061 0.0
C1095 C 0.76995 0.73886 0.07841 0.0
C1096 C 0.75283 0.72174 0.03417 0.0
C1097 C 0.74669 0.74529 0.02404 0.0
C1098 C 0.75173 0.76554 0.04177 0.0
C1099 C 0.76312 0.76235 0.06869 0.0
H1100 H 0.24034 0.51024 0.8428 0.0
H1101 H 0.18285 0.46475 0.79878 0.0
H1102 H 0.26404 0.51715 0.79818 0.0
H1103 H 0.20585 0.47242 0.75399 0.0
H1104 H 0.28553 0.5451 0.71089 0.0
H1105 H 0.26006 0.53811 0.75429 0.0
H1106 H 0.24557 0.46337 0.72829 0.0
H1107 H 0.27022 0.47074 0.68429 0.0
C1108 C 0.23269 0.50183 0.82356 0.0
C1109 C 0.20977 0.48692 0.82433 0.0
C1110 C 0.24614 0.50593 0.7979 0.0
C1111 C 0.2368 0.49545 0.77237 0.0
C1112 C 0.21386 0.48051 0.77324 0.0
C1113 C 0.20059 0.4762 0.79894 0.0
C1114 C 0.27671 0.52723 0.71435 0.0
C1115 C 0.27991 0.50845 0.69422 0.0
C1116 C 0.26229 0.52315 0.73936 0.0
C1117 C 0.25098 0.50009 0.74502 0.0
C1118 C 0.25373 0.48144 0.72454 0.0
C1119 C 0.26792 0.48562 0.69933 0.0
H1120 H 0.20277 0.7897 0.4547 0.0
H1121 H 0.21837 0.71448 0.43165 0.0
H1122 H 0.23045 0.78489 0.49713 0.0
H1123 H 0.24532 0.70945 0.47445 0.0
H1124 H 0.31743 0.71809 0.53266 0.0
H1125 H 0.28782 0.72246 0.49212 0.0
H1126 H 0.23298 0.76516 0.54323 0.0
H1127 H 0.26328 0.76136 0.58396 0.0
C1128 C 0.21196 0.77209 0.45879 0.0
C1129 C 0.20856 0.75252 0.4397 0.0
C1130 C 0.22765 0.76928 0.48324 0.0
C1131 C 0.24017 0.74681 0.48919 0.0
C1132 C 0.23636 0.72714 0.47028 0.0
C1133 C 0.22084 0.73 0.44577 0.0
C1134 C 0.29903 0.72836 0.5354 0.0
C1135 C 0.29273 0.73939 0.56159 0.0
C1136 C 0.28192 0.73072 0.51212 0.0
C1137 C 0.25794 0.74406 0.5144 0.0
C1138 C 0.25146 0.75498 0.54067 0.0
C1139 C 0.26871 0.75268 0.56405 0.0
H1140 H 0.0088 0.51201 0.41877 0.0
H1141 H 0.06857 0.47316 0.46763 0.0
H1142 H 0.98244 0.51826 0.46187 0.0
H1143 H 0.0429 0.48024 0.51086 0.0
H1144 H 0.97523 0.47268 0.57617 0.0
H1145 H 0.00347 0.4677 0.53431 0.0
H1146 H 0.98069 0.53989 0.50545 0.0
H1147 H 0.95161 0.54439 0.54679 0.0
C1148 C 0.01641 0.50499 0.43876 0.0
C1149 C 0.04068 0.49198 0.43976 0.0
C1150 C 0.00141 0.50873 0.46355 0.0
C1151 C 0.01051 0.49979 0.48996 0.0
C1152 C 0.03499 0.48703 0.4909 0.0
C1153 C 0.0498 0.48305 0.46608 0.0
C1154 C 0.97648 0.48758 0.56103 0.0
C1155 C 0.96109 0.50887 0.5647 0.0
C1156 C 0.99276 0.48477 0.53702 0.0
C1157 C 0.99427 0.50332 0.51628 0.0
C1158 C 0.97958 0.52499 0.52059 0.0
C1159 C 0.96308 0.52767 0.54443 0.0
H1160 H 0.75927 0.49497 0.17999 0.0
H1161 H 0.8097 0.54461 0.22754 0.0
H1162 H 0.73275 0.48727 0.22269 0.0
H1163 H 0.784 0.53624 0.27033 0.0
H1164 H 0.7194 0.53122 0.33808 0.0
H1165 H 0.74269 0.54157 0.29413 0.0
H1166 H 0.73687 0.46623 0.26671 0.0
H1167 H 0.71267 0.45616 0.31017 0.0
C1168 C 0.76462 0.50432 0.19952 0.0
C1169 C 0.78663 0.52035 0.20037 0.0
C1170 C 0.74958 0.49974 0.22408 0.0
C1171 C 0.75637 0.51092 0.25011 0.0
C1172 C 0.77794 0.5275 0.25067 0.0
C1173 C 0.79278 0.53224 0.22608 0.0
C1174 C 0.72321 0.51686 0.32271 0.0
C1175 C 0.71425 0.49286 0.32762 0.0
C1176 C 0.73662 0.52278 0.2975 0.0
C1177 C 0.74163 0.50477 0.27674 0.0
C1178 C 0.7329 0.48069 0.2819 0.0
C1179 C 0.71925 0.47484 0.30696 0.0
H1180 H 0.71355 0.20887 0.43157 0.0
H1181 H 0.70004 0.28405 0.4561 0.0
H1182 H 0.73562 0.20126 0.47703 0.0
H1183 H 0.72292 0.27676 0.50102 0.0
H1184 H 0.74459 0.25245 0.58963 0.0
H1185 H 0.71871 0.25671 0.54579 0.0
H1186 H 0.77557 0.21031 0.502 0.0
H1187 H 0.80064 0.2053 0.54581 0.0
C1188 C 0.71558 0.22384 0.44654 0.0
C1189 C 0.7051 0.24706 0.44025 0.0
C1190 C 0.72825 0.2195 0.47261 0.0
C1191 C 0.73097 0.23836 0.49282 0.0
C1192 C 0.7207 0.26166 0.48629 0.0
C1193 C 0.70781 0.26591 0.46038 0.0
C1194 C 0.75129 0.24289 0.57072 0.0
C1195 C 0.77472 0.22863 0.5712 0.0
C1196 C 0.73662 0.2455 0.54551 0.0
C1197 C 0.74518 0.23405 0.52022 0.0
C1198 C 0.76815 0.21917 0.52106 0.0
C1199 C 0.78264 0.2164 0.54625 0.0
H1200 H 0.51921 0.2922 0.81141 0.0
H1201 H 0.5114 0.21455 0.82625 0.0
H1202 H 0.4986 0.28746 0.76483 0.0
H1203 H 0.49169 0.20956 0.77908 0.0
H1204 H 0.43309 0.21281 0.70476 0.0
H1205 H 0.45295 0.21737 0.75167 0.0
H1206 H 0.50708 0.27225 0.71861 0.0
H1207 H 0.48634 0.26835 0.67179 0.0
C1208 C 0.51315 0.27407 0.80465 0.0
C1209 C 0.5169 0.25374 0.82252 0.0
C1210 C 0.50153 0.27131 0.77779 0.0
C1211 C 0.49363 0.2481 0.76796 0.0
C1212 C 0.49718 0.22777 0.78602 0.0
C1213 C 0.50855 0.23059 0.81306 0.0
C1214 C 0.44929 0.22582 0.70745 0.0
C1215 C 0.45811 0.24026 0.68453 0.0
C1216 C 0.46081 0.22833 0.73439 0.0
C1217 C 0.48166 0.24518 0.73907 0.0
C1218 C 0.49074 0.25939 0.71598 0.0
C1219 C 0.479 0.25706 0.68906 0.0
H1220 H 0.50111 0.99683 0.58913 0.0
H1221 H 0.44122 0.02732 0.53296 0.0
H1222 H 0.52982 0.98824 0.54825 0.0
H1223 H 0.46899 0.01762 0.49217 0.0
H1224 H 0.53489 0.01863 0.42634 0.0
H1225 H 0.50748 0.02838 0.46747 0.0
H1226 H 0.53421 0.96198 0.50878 0.0
H1227 H 0.56286 0.95298 0.468 0.0
C1228 C 0.49412 0.00171 0.56805 0.0
C1229 C 0.46902 0.01287 0.56426 0.0
C1230 C 0.51042 0.99655 0.54457 0.0
C1231 C 0.50173 0.00209 0.51678 0.0
C1232 C 0.47666 0.01348 0.51319 0.0
C1233 C 0.46063 0.019 0.53664 0.0
C1234 C 0.53474 0.006 0.44411 0.0
C1235 C 0.55099 0.98502 0.44395 0.0
C1236 C 0.51893 0.01155 0.46773 0.0
C1237 C 0.51858 0.99601 0.4916 0.0
C1238 C 0.53438 0.97466 0.49109 0.0
C1239 C 0.55059 0.96933 0.4676 0.0
H1240 H 0.43136 0.71348 0.23161 0.0
H1241 H 0.48728 0.75727 0.18319 0.0
H1242 H 0.45913 0.71814 0.27367 0.0
H1243 H 0.51572 0.76124 0.22523 0.0
H1244 H 0.54086 0.7887 0.31339 0.0
H1245 H 0.51514 0.78203 0.27004 0.0
H1246 H 0.50041 0.70722 0.29547 0.0
H1247 H 0.52536 0.71419 0.33932 0.0
C1248 C 0.44984 0.72379 0.2298 0.0
C1249 C 0.45704 0.73513 0.20407 0.0
C1250 C 0.46587 0.72636 0.25396 0.0
C1251 C 0.48963 0.74016 0.25293 0.0
C1252 C 0.49729 0.75085 0.22691 0.0
C1253 C 0.48112 0.74842 0.20275 0.0
C1254 C 0.53208 0.77084 0.30975 0.0
C1255 C 0.535 0.75201 0.32985 0.0
C1256 C 0.51753 0.76694 0.28475 0.0
C1257 C 0.50576 0.74406 0.27916 0.0
C1258 C 0.50887 0.72518 0.29925 0.0
C1259 C 0.52322 0.72914 0.32437 0.0
H1260 H 0.44922 0.54119 0.04877 0.0
H1261 H 0.47448 0.46753 0.06835 0.0
H1262 H 0.47516 0.5401 1.00492 0.0
H1263 H 0.49939 0.46585 0.02378 0.0
H1264 H 0.56132 0.47728 0.95506 0.0
H1265 H 0.53734 0.48012 0.99994 0.0
H1266 H 0.47575 0.52337 0.95902 0.0
H1267 H 0.50067 0.52151 0.91437 0.0
C1268 C 0.46023 0.52469 0.04357 0.0
C1269 C 0.45987 0.50444 0.06197 0.0
C1270 C 0.47495 0.52398 0.01829 0.0
C1271 C 0.48932 0.50284 0.01057 0.0
C1272 C 0.48899 0.48262 0.02916 0.0
C1273 C 0.47461 0.48349 0.05469 0.0
C1274 C 0.54266 0.48743 0.95568 0.0
C1275 C 0.53281 0.49914 0.9312 0.0
C1276 C 0.52879 0.48893 0.98141 0.0
C1277 C 0.50444 0.50184 0.98323 0.0
C1278 C 0.49463 0.5136 0.95864 0.0
C1279 C 0.50879 0.51243 0.93296 0.0
H1280 H 0.38398 0.95703 0.9562 0.0
H1281 H 0.3417 0.02552 0.94728 0.0
H1282 H 0.39357 0.95689 0.90548 0.0
H1283 H 0.34991 0.02484 0.89611 0.0
H1284 H 0.39179 0.02729 0.80929 0.0
H1285 H 0.38144 0.02907 0.85983 0.0
H1286 H 0.37355 0.95026 0.86151 0.0
H1287 H 0.38548 0.94853 0.81128 0.0
C1288 C 0.37671 0.97206 0.9433 0.0
C1289 C 0.36218 0.99131 0.95567 0.0
C1290 C 0.3819 0.97186 0.9141 0.0
C1291 C 0.37219 0.99066 0.8964 0.0
C1292 C 0.35801 0.01017 0.90898 0.0
C1293 C 0.35326 0.01059 0.93834 0.0
C1294 C 0.38751 0.01038 0.82042 0.0
C1295 C 0.38954 0.98774 0.80638 0.0
C1296 C 0.38151 0.01139 0.84946 0.0
C1297 C 0.37694 0.9898 0.86505 0.0
C1298 C 0.37771 0.96724 0.85052 0.0
C1299 C 0.38423 0.96622 0.82162 0.0
H1300 H 0.88824 0.22468 0.9597 0.0
H1301 H 0.81977 0.27236 0.96994 0.0
H1302 H 0.88412 0.22779 0.90824 0.0
H1303 H 0.81497 0.27473 0.91842 0.0
H1304 H 0.8303 0.2966 0.82736 0.0
H1305 H 0.83652 0.29288 0.87859 0.0
H1306 H 0.85814 0.2168 0.86805 0.0
H1307 H 0.85291 0.22084 0.81676 0.0
C1308 C 0.87195 0.23544 0.95097 0.0
C1309 C 0.85436 0.24833 0.96894 0.0
C1310 C 0.86958 0.23721 0.9214 0.0
C1311 C 0.84938 0.25173 0.90907 0.0
C1312 C 0.83117 0.26387 0.92712 0.0
C1313 C 0.83372 0.26229 0.95669 0.0
C1314 C 0.83674 0.27918 0.83597 0.0
C1315 C 0.84107 0.25902 0.818 0.0
C1316 C 0.84001 0.27695 0.86539 0.0
C1317 C 0.84743 0.25443 0.87759 0.0
C1318 C 0.85261 0.23448 0.85946 0.0
C1319 C 0.84959 0.23679 0.83 0.0
H1320 H 0.37715 0.2898 0.30794 0.0
H1321 H 0.35514 0.21342 0.3061 0.0
H1322 H 0.38237 0.28781 0.35926 0.0
H1323 H 0.35923 0.21158 0.35796 0.0
H1324 H 0.39282 0.21373 0.45015 0.0
H1325 H 0.38829 0.21266 0.39834 0.0
H1326 H 0.35522 0.28578 0.39993 0.0
H1327 H 0.36086 0.28713 0.45126 0.0
C1328 C 0.37344 0.27254 0.31857 0.0
C1329 C 0.36565 0.2518 0.303 0.0
C1330 C 0.37614 0.27143 0.3481 0.0
C1331 C 0.37068 0.24966 0.36299 0.0
C1332 C 0.36372 0.22864 0.34727 0.0
C1333 C 0.36137 0.22967 0.31754 0.0
C1334 C 0.3843 0.22943 0.43937 0.0
C1335 C 0.37738 0.25059 0.45473 0.0
C1336 C 0.38168 0.22883 0.40966 0.0
C1337 C 0.37183 0.2493 0.39475 0.0
C1338 C 0.36368 0.26994 0.41046 0.0
C1339 C 0.36664 0.27065 0.43999 0.0
H1340 H 0.94723 0.98754 0.33292 0.0
H1341 H 0.8701 0.01502 0.30577 0.0
H1342 H 0.93332 0.99103 0.38252 0.0
H1343 H 0.85607 0.01824 0.35568 0.0
H1344 H 0.83424 0.98361 0.44457 0.0
H1345 H 0.84764 0.98599 0.39474 0.0
H1346 H 0.9199 0.02421 0.41899 0.0
H1347 H 0.90632 0.02209 0.46913 0.0
C1348 C 0.9273 0.99436 0.33755 0.0
C1349 C 0.90967 0.00084 0.31544 0.0
C1350 C 0.91945 0.99655 0.36597 0.0
C1351 C 0.89366 0.00493 0.37291 0.0
C1352 C 0.87606 0.01165 0.35086 0.0
C1353 C 0.88409 0.00985 0.32236 0.0
C1354 C 0.85294 0.99264 0.43931 0.0
C1355 C 0.86936 0.0025 0.46078 0.0
C1356 C 0.86047 0.99417 0.41075 0.0
C1357 C 0.88478 0.00527 0.40303 0.0
C1358 C 0.90109 0.01545 0.42442 0.0
C1359 C 0.89331 0.01429 0.45305 0.0
H1360 H 0.63601 0.97529 0.05401 0.0
H1361 H 0.66916 0.04793 0.06345 0.0
H1362 H 0.62526 0.97466 0.10476 0.0
H1363 H 0.65884 0.04709 0.11404 0.0
H1364 H 0.60487 0.04731 0.19386 0.0
H1365 H 0.61905 0.048 0.14429 0.0
H1366 H 0.64735 0.97358 0.15181 0.0
H1367 H 0.63278 0.97272 0.2014 0.0
C1368 C 0.64104 0.99108 0.06689 0.0
C1369 C 0.6533 0.01169 0.05467 0.0
C1370 C 0.63509 0.99064 0.09599 0.0
C1371 C 0.64124 0.01083 0.1134 0.0
C1372 C 0.65358 0.03137 0.10115 0.0
C1373 C 0.65956 0.03179 0.07214 0.0
C1374 C 0.61441 0.03118 0.18507 0.0
C1375 C 0.6176 0.00994 0.20155 0.0
C1376 C 0.6226 0.0316 0.15666 0.0
C1377 C 0.63413 0.01077 0.14408 0.0
C1378 C 0.63814 0.98978 0.16081 0.0
C1379 C 0.63003 0.98938 0.18929 0.0
H1380 H 0.13378 0.7499 0.05564 0.0
H1381 H 0.05769 0.71889 0.08092 0.0
H1382 H 0.14657 0.75368 0.10586 0.0
H1383 H 0.07032 0.72309 0.1309 0.0
H1384 H 0.09391 0.7604 0.21654 0.0
H1385 H 0.08148 0.75965 0.16597 0.0
H1386 H 0.15478 0.72114 0.14637 0.0
H1387 H 0.16699 0.72146 0.19667 0.0
C1388 C 0.11983 0.74393 0.0719 0.0
C1389 C 0.09487 0.7339 0.0644 0.0
C1390 C 0.12713 0.7461 0.10054 0.0
C1391 C 0.10934 0.73877 0.12212 0.0
C1392 C 0.08427 0.72906 0.11463 0.0
C1393 C 0.07719 0.72645 0.08604 0.0
C1394 C 0.10735 0.75187 0.20137 0.0
C1395 C 0.13127 0.74081 0.2105 0.0
C1396 C 0.10023 0.75139 0.17255 0.0
C1397 C 0.11722 0.74034 0.15241 0.0
C1398 C 0.14145 0.72989 0.16148 0.0
C1399 C 0.14829 0.72993 0.19027 0.0
H1400 H 0.68621 0.73592 0.68661 0.0
H1401 H 0.61481 0.77526 0.71158 0.0
H1402 H 0.67304 0.73919 0.63676 0.0
H1403 H 0.60138 0.77815 0.66139 0.0
H1404 H 0.57505 0.73951 0.57483 0.0
H1405 H 0.58831 0.74366 0.62461 0.0
H1406 H 0.66463 0.77344 0.5985 0.0
H1407 H 0.65121 0.76968 0.54844 0.0
C1408 C 0.66769 0.74528 0.68141 0.0
C1409 C 0.65136 0.75514 0.70293 0.0
C1410 C 0.66032 0.74734 0.65288 0.0
C1411 C 0.63626 0.75894 0.64533 0.0
C1412 C 0.62003 0.76909 0.66677 0.0
C1413 C 0.62769 0.76746 0.69537 0.0
C1414 C 0.5946 0.74711 0.5797 0.0
C1415 C 0.61223 0.75408 0.55781 0.0
C1416 C 0.60205 0.74968 0.60817 0.0
C1417 C 0.62744 0.75887 0.61529 0.0
C1418 C 0.64494 0.76626 0.59346 0.0
C1419 C 0.63727 0.76414 0.56491 0.0
H1420 H 0.10194 0.9598 0.70019 0.0
H1421 H 0.171 0.00668 0.71107 0.0
H1422 H 0.107 0.96239 0.64868 0.0
H1423 H 0.17647 0.00873 0.65962 0.0
H1424 H 0.15737 0.03371 0.56988 0.0
H1425 H 0.15317 0.02804 0.62094 0.0
H1426 H 0.13433 0.95169 0.60783 0.0
H1427 H 0.13792 0.95755 0.55637 0.0
C1428 C 0.11851 0.9703 0.69162 0.0
C1429 C 0.13596 0.9832 0.70977 0.0
C1430 C 0.12144 0.97173 0.66205 0.0
C1431 C 0.14194 0.98601 0.64997 0.0
C1432 C 0.16009 -0.002 0.66819 0.0
C1433 C 0.15709 0.99667 0.69772 0.0
C1434 C 0.15222 0.01571 0.57781 0.0
C1435 C 0.14802 0.99607 0.55903 0.0
C1436 C 0.15005 0.0124 0.60717 0.0
C1437 C 0.14376 0.98933 0.61857 0.0
C1438 C 0.13906 0.96973 0.59976 0.0
C1439 C 0.14115 0.97308 0.57028 0.0
H1440 H 0.39065 0.51703 0.4614 0.0
H1441 H 0.31546 0.48855 0.42983 0.0
H1442 H 0.40738 0.51998 0.41246 0.0
H1443 H 0.33208 0.49179 0.38112 0.0
H1444 H 0.36356 0.5238 0.29652 0.0
H1445 H 0.34727 0.52566 0.34573 0.0
H1446 H 0.41803 0.4872 0.37408 0.0
H1447 H 0.43413 0.48504 0.32511 0.0
C1448 C 0.37768 0.51156 0.44404 0.0
C1449 C 0.35185 0.50239 0.44943 0.0
C1450 C 0.38725 0.51321 0.4161 0.0
C1451 C 0.37096 0.50617 0.39309 0.0
C1452 C 0.34493 0.49755 0.39847 0.0
C1453 C 0.33554 0.4955 0.42636 0.0
C1454 C 0.37567 0.5159 0.31331 0.0
C1455 C 0.39999 0.50412 0.30698 0.0
C1456 C 0.36634 0.5169 0.34138 0.0
C1457 C 0.38144 0.50657 0.36362 0.0
C1458 C 0.40612 0.49547 0.35736 0.0
C1459 C 0.4152 0.49409 0.32931 0.0
H1460 H 0.89951 0.7859 0.44672 0.0
H1461 H 0.87997 0.70924 0.45531 0.0
H1462 H 0.8939 0.78294 0.39547 0.0
H1463 H 0.87501 0.70609 0.40369 0.0
H1464 H 0.8404 0.7185 0.31338 0.0
H1465 H 0.84674 0.71882 0.36474 0.0
H1466 H 0.91591 0.76569 0.3547 0.0
H1467 H 0.9091 0.76596 0.30333 0.0
C1468 C 0.89401 0.76838 0.43765 0.0
C1469 C 0.89019 0.7478 0.45509 0.0
C1470 C 0.89105 0.76663 0.4082 0.0
C1471 C 0.88435 0.7442 0.39538 0.0
C1472 C 0.88002 0.72368 0.41287 0.0
C1473 C 0.88287 0.72547 0.44245 0.0
C1474 C 0.85715 0.72868 0.32208 0.0
C1475 C 0.87414 0.74237 0.30425 0.0
C1476 C 0.86083 0.72878 0.35157 0.0
C1477 C 0.88165 0.7425 0.3639 0.0
C1478 C 0.89931 0.75536 0.34594 0.0
C1479 C 0.89555 0.75535 0.31646 0.0
H1480 H 0.35318 0.72598 0.81607 0.0
H1481 H 0.37394 0.80238 0.80945 0.0
H1482 H 0.36121 0.72727 0.86706 0.0
H1483 H 0.38407 0.80347 0.86014 0.0
H1484 H 0.37872 0.80592 0.95562 0.0
H1485 H 0.36671 0.80418 0.90533 0.0
H1486 H 0.39242 0.72855 0.90237 0.0
H1487 H 0.40235 0.73001 0.95282 0.0
C1488 C 0.3601 0.74293 0.82551 0.0
C1489 C 0.36307 0.76405 0.80886 0.0
C1490 C 0.36482 0.74371 0.85482 0.0
C1491 C 0.37335 0.7655 0.86809 0.0
C1492 C 0.3769 0.78649 0.85107 0.0
C1493 C 0.37145 0.78584 0.82188 0.0
C1494 C 0.38131 0.78887 0.94418 0.0
C1495 C 0.39123 0.76808 0.95814 0.0
C1496 C 0.37478 0.78789 0.91523 0.0
C1497 C 0.37876 0.76626 0.89938 0.0
C1498 C 0.38847 0.74542 0.91368 0.0
C1499 C 0.39429 0.74624 0.94273 0.0
H1500 H 0.89545 0.52214 0.81163 0.0
H1501 H 0.87474 0.44552 0.8102 0.0
H1502 H 0.88609 0.52375 0.86233 0.0
H1503 H 0.86334 0.44732 0.86057 0.0
H1504 H 0.86954 0.44955 0.95593 0.0
H1505 H 0.88097 0.4489 0.90555 0.0
H1506 H 0.85514 0.52426 0.89805 0.0
H1507 H 0.84571 0.52518 0.94877 0.0
C1508 C 0.88819 0.50577 0.82209 0.0
C1509 C 0.88577 0.48371 0.80701 0.0
C1510 C 0.88272 0.50666 0.85126 0.0
C1511 C 0.87404 0.48563 0.86596 0.0
C1512 C 0.87069 0.46377 0.85041 0.0
C1513 C 0.87686 0.46275 0.82139 0.0
C1514 C 0.86676 0.46605 0.94349 0.0
C1515 C 0.85694 0.48744 0.95627 0.0
C1516 C 0.87294 0.46563 0.91445 0.0
C1517 C 0.86872 0.48644 0.89729 0.0
C1518 C 0.85917 0.50795 0.91038 0.0
C1519 C 0.85367 0.50851 0.93956 0.0
H1520 H 0.63087 0.53981 0.69762 0.0
H1521 H 0.60076 0.46579 0.70097 0.0
H1522 H 0.63569 0.53655 0.64629 0.0
H1523 H 0.60446 0.46278 0.64924 0.0
H1524 H 0.63676 0.46039 0.55688 0.0
H1525 H 0.6333 0.46068 0.60879 0.0
H1526 H 0.60772 0.53624 0.60603 0.0
H1527 H 0.61232 0.53615 0.55456 0.0
C1528 C 0.62533 0.5228 0.68734 0.0
C1529 C 0.61536 0.50311 0.70329 0.0
C1530 C 0.62782 0.52098 0.65783 0.0
C1531 C 0.61995 0.49956 0.64344 0.0
C1532 C 0.61084 0.47951 0.65956 0.0
C1533 C 0.6087 0.48123 0.68922 0.0
C1534 C 0.63012 0.47694 0.56744 0.0
C1535 C 0.62498 0.4983 0.55172 0.0
C1536 C 0.62813 0.47713 0.59719 0.0
C1537 C 0.62068 0.49861 0.61174 0.0
C1538 C 0.61433 0.51958 0.59572 0.0
C1539 C 0.61668 0.51948 0.56614 0.0
H1540 H 0.12563 0.25847 0.70474 0.0
H1541 H 0.15637 0.18483 0.69711 0.0
H1542 H 0.11489 0.25854 0.65405 0.0
H1543 H 0.14581 0.18502 0.64641 0.0
H1544 H 0.09555 0.18753 0.56323 0.0
H1545 H 0.10691 0.18596 0.61368 0.0
H1546 H 0.14027 0.25873 0.60838 0.0
H1547 H 0.12873 0.26043 0.55791 0.0
C1548 C 0.12984 0.24221 0.69234 0.0
C1549 C 0.14186 0.22164 0.70498 0.0
C1550 C 0.12396 0.24235 0.66323 0.0
C1551 C 0.12977 0.22188 0.64617 0.0
C1552 C 0.14101 0.20104 0.65899 0.0
C1553 C 0.14707 0.20095 0.68805 0.0
C1554 C 0.10559 0.2031 0.57272 0.0
C1555 C 0.11115 0.22414 0.55654 0.0
C1556 C 0.11213 0.20217 0.60164 0.0
C1557 C 0.12421 0.22232 0.61509 0.0
C1558 C 0.13054 0.24307 0.59871 0.0
C1559 C 0.12419 0.24394 0.56973 0.0
H1560 H 0.58355 0.27857 0.05736 0.0
H1561 H 0.65845 0.24172 0.0397 0.0
H1562 H 0.59232 0.27554 0.10817 0.0
H1563 H 0.66758 0.23932 0.09059 0.0
H1564 H 0.65776 0.21011 0.18068 0.0
H1565 H 0.65012 0.2163 0.13011 0.0
H1566 H 0.62014 0.28903 0.14717 0.0
H1567 H 0.62718 0.28258 0.19807 0.0
C1568 C 0.60214 0.27021 0.06428 0.0
C1569 C 0.62021 0.26019 0.04445 0.0
C1570 C 0.6072 0.26856 0.09347 0.0
C1571 C 0.63051 0.25694 0.10349 0.0
C1572 C 0.64915 0.24791 0.08359 0.0
C1573 C 0.64403 0.24947 0.0544 0.0
C1574 C 0.64943 0.2274 0.1737 0.0
C1575 C 0.64306 0.24585 0.1934 0.0
C1576 C 0.64529 0.23104 0.14464 0.0
C1577 C 0.6348 0.25327 0.13451 0.0
C1578 C 0.62808 0.27163 0.15427 0.0
C1579 C 0.63213 0.26795 0.18343 0.0
H1580 H 0.13696 0.45141 0.06098 0.0
H1581 H 0.15551 0.52837 0.06826 0.0
H1582 H 0.13312 0.44868 0.11278 0.0
H1583 H 0.15102 0.52584 0.11963 0.0
H1584 H 0.16907 0.51001 0.21134 0.0
H1585 H 0.17437 0.50933 0.15981 0.0
H1586 H 0.10577 0.46138 0.15261 0.0
H1587 H 0.10095 0.46148 0.2042 0.0
C1588 C 0.13989 0.46778 0.07359 0.0
C1589 C 0.14664 0.49007 0.06053 0.0
C1590 C 0.13767 0.46624 0.10327 0.0
C1591 C 0.14208 0.48698 0.12042 0.0
C1592 C 0.14815 0.50936 0.10718 0.0
C1593 C 0.15049 0.51086 0.07765 0.0
C1594 C 0.1553 0.49911 0.1988 0.0
C1595 C 0.13452 0.48592 0.21189 0.0
C1596 C 0.15819 0.49886 0.16922 0.0
C1597 C 0.14026 0.48556 0.152 0.0
C1598 C 0.12004 0.47168 0.16519 0.0
C1599 C 0.11724 0.47181 0.19481 0.0
H1600 H 0.28572 0.18475 0.14955 0.0
H1601 H 0.36682 0.16936 0.17679 0.0
H1602 H 0.28329 0.14477 0.12689 0.0
H1603 H 0.36425 0.12914 0.15409 0.0
H1604 H 0.28045 0.06159 0.11428 0.0
H1605 H 0.28295 0.10046 0.13965 0.0
H1606 H 0.36129 0.11374 0.1036 0.0
H1607 H 0.35895 0.07477 0.0783 0.0
C1608 C 0.30297 0.17275 0.15094 0.0
C1609 C 0.32651 0.18025 0.16494 0.0
C1610 C 0.3015 0.1498 0.13803 0.0
C1611 C 0.32361 0.1339 0.13864 0.0
C1612 C 0.34701 0.14117 0.15305 0.0
C1613 C 0.3484 0.1641 0.16621 0.0
C1614 C 0.29818 0.07282 0.11168 0.0
C1615 C 0.31947 0.06513 0.0942 0.0
C1616 C 0.29958 0.09508 0.12618 0.0
C1617 C 0.32235 0.11006 0.12366 0.0
C1618 C 0.34364 0.10241 0.1062 0.0
C1619 C 0.34217 0.08021 0.09152 0.0
H1620 H 0.88337 0.07185 0.18295 0.0
H1621 H 0.95929 0.05958 0.14094 0.0
H1622 H 0.87908 0.11116 0.1584 0.0
H1623 H 0.95479 0.09852 0.1162 0.0
H1624 H 0.95376 0.18299 0.11176 0.0
H1625 H 0.9563 0.14202 0.13187 0.0
H1626 H 0.87351 0.12931 0.10923 0.0
H1627 H 0.87084 0.17051 0.08906 0.0
C1628 C 0.89898 0.07744 0.16829 0.0
C1629 C 0.92162 0.06261 0.16381 0.0
C1630 C 0.89644 0.09983 0.15411 0.0
C1631 C 0.91664 0.10791 0.13545 0.0
C1632 C 0.93902 0.09287 0.13064 0.0
C1633 C 0.94147 0.07047 0.14464 0.0
C1634 C 0.93612 0.17144 0.11085 0.0
C1635 C 0.91209 0.18002 0.09881 0.0
C1636 C 0.93763 0.14791 0.12226 0.0
C1637 C 0.9151 0.13247 0.12212 0.0
C1638 C 0.89112 0.14091 0.10982 0.0
C1639 C 0.88967 0.16441 0.09813 0.0
H1640 H 0.72163 0.81574 0.86716 0.0
H1641 H 0.64601 0.83412 0.82749 0.0
H1642 H 0.72165 0.85497 0.89177 0.0
H1643 H 0.64623 0.87352 0.85203 0.0
H1644 H 0.64161 0.92872 0.92556 0.0
H1645 H 0.6421 0.88888 0.90195 0.0
H1646 H 0.72561 0.89913 0.8805 0.0
H1647 H 0.72525 0.93874 0.90446 0.0
C1648 C 0.70511 0.82822 0.86349 0.0
C1649 C 0.68381 0.82181 0.84532 0.0
C1650 C 0.70518 0.85072 0.87757 0.0
C1651 C 0.6839 0.86726 0.87391 0.0
C1652 C 0.66273 0.86098 0.85553 0.0
C1653 C 0.66272 0.83852 0.8413 0.0
C1654 C 0.66015 0.92231 0.91611 0.0
C1655 C 0.68337 0.93687 0.91675 0.0
C1656 C 0.66035 0.89964 0.90234 0.0
C1657 C 0.68384 0.891 0.88919 0.0
C1658 C 0.70725 0.90526 0.89055 0.0
C1659 C 0.707 0.92799 0.90414 0.0
H1660 H 0.04147 0.79743 0.89371 0.0
H1661 H 0.11786 0.81312 0.93301 0.0
H1662 H 0.04423 0.83547 0.86682 0.0
H1663 H 0.12054 0.85148 0.90607 0.0
H1664 H 0.12422 0.90835 0.83233 0.0
H1665 H 0.12381 0.86793 0.85489 0.0
H1666 H 0.04193 0.8797 0.88151 0.0
H1667 H 0.0423 0.91993 0.85924 0.0
C1668 C 0.05906 0.80885 0.8963 0.0
C1669 C 0.07953 0.80222 0.91535 0.0
C1670 C 0.06052 0.83074 0.88105 0.0
C1671 C 0.08254 0.8465 0.88442 0.0
C1672 C 0.10343 0.83959 0.90288 0.0
C1673 C 0.10183 0.81772 0.9184 0.0
C1674 C 0.10607 0.9022 0.84278 0.0
C1675 C 0.08327 0.91734 0.84393 0.0
C1676 C 0.10592 0.87915 0.85585 0.0
C1677 C 0.08284 0.87065 0.86992 0.0
C1678 C 0.05993 0.88562 0.87057 0.0
C1679 C 0.06018 0.90873 0.85788 0.0
H1680 H 0.35345 0.66344 0.70543 0.0
H1681 H 0.33927 0.69763 0.62421 0.0
H1682 H 0.35402 0.62324 0.68229 0.0
H1683 H 0.34071 0.65761 0.60086 0.0
H1684 H 0.36903 0.57987 0.57037 0.0
H1685 H 0.37519 0.61945 0.5941 0.0
H1686 H 0.31314 0.60091 0.65431 0.0
H1687 H 0.30594 0.56209 0.6299 0.0
C1688 C 0.35108 0.66245 0.68254 0.0
C1689 C 0.34629 0.68373 0.66649 0.0
C1690 C 0.3513 0.63946 0.66936 0.0
C1691 C 0.34742 0.63738 0.63983 0.0
C1692 C 0.34395 0.65872 0.62363 0.0
C1693 C 0.34308 0.6816 0.63692 0.0
C1694 C 0.35677 0.58418 0.58874 0.0
C1695 C 0.33727 0.56757 0.59853 0.0
C1696 C 0.36034 0.6068 0.60228 0.0
C1697 C 0.34487 0.61303 0.62621 0.0
C1698 C 0.32568 0.59634 0.63623 0.0
C1699 C 0.32167 0.57404 0.62232 0.0
H1700 H 0.9599 0.67012 0.59903 0.0
H1701 H 0.87382 0.66855 0.58859 0.0
H1702 H 0.95834 0.62982 0.6216 0.0
H1703 H 0.8723 0.62842 0.61181 0.0
H1704 H 0.88518 0.57642 0.69225 0.0
H1705 H 0.88507 0.61478 0.66506 0.0
H1706 H 0.94363 0.58455 0.6072 0.0
H1707 H 0.94348 0.54618 0.63434 0.0
C1708 C 0.94068 0.66108 0.60136 0.0
C1709 C 0.91698 0.67247 0.592 0.0
C1710 C 0.93982 0.63802 0.6142 0.0
C1711 C 0.91519 0.62611 0.61848 0.0
C1712 C 0.89152 0.63731 0.60883 0.0
C1713 C 0.89243 0.66016 0.59541 0.0
C1714 C 0.8978 0.57798 0.67357 0.0
C1715 C 0.91399 0.55832 0.66495 0.0
C1716 C 0.89765 0.5998 0.65797 0.0
C1717 C 0.91422 0.6025 0.63396 0.0
C1718 C 0.9306 0.58287 0.62556 0.0
C1719 C 0.93032 0.56091 0.64083 0.0
H1720 H 0.69851 0.30022 0.36829 0.0
H1721 H 0.62295 0.31861 0.32857 0.0
H1722 H 0.6969 0.338 0.39567 0.0
H1723 H 0.62155 0.35675 0.35591 0.0
H1724 H 0.61902 0.41347 0.42852 0.0
H1725 H 0.61853 0.37266 0.40706 0.0
H1726 H 0.70097 0.38203 0.38099 0.0
H1727 H 0.70156 0.42261 0.4023 0.0
C1728 C 0.68139 0.31221 0.36564 0.0
C1729 C 0.66083 0.30647 0.3463 0.0
C1730 C 0.68058 0.3339 0.38121 0.0
C1731 C 0.65917 0.35029 0.37781 0.0
C1732 C 0.63818 0.34429 0.35908 0.0
C1733 C 0.63907 0.3226 0.34332 0.0
C1734 C 0.63712 0.40667 0.41851 0.0
C1735 C 0.66032 0.42125 0.41704 0.0
C1736 C 0.63676 0.38343 0.40609 0.0
C1737 C 0.65968 0.37427 0.39236 0.0
C1738 C 0.68309 0.38856 0.39168 0.0
C1739 C 0.68337 0.41184 0.40378 0.0
H1740 H 0.11793 0.32425 0.44422 0.0
H1741 H 0.05494 0.29675 0.39002 0.0
H1742 H 0.11946 0.36211 0.4161 0.0
H1743 H 0.05644 0.33437 0.36187 0.0
H1744 H 0.04366 0.41976 0.35524 0.0
H1745 H 0.04478 0.37947 0.37757 0.0
H1746 H 0.12997 0.3748 0.36192 0.0
H1747 H 0.12889 0.41509 0.33907 0.0
C1748 C 0.10464 0.3263 0.42613 0.0
C1749 C 0.0866 0.30768 0.4188 0.0
C1750 C 0.10565 0.34773 0.41 0.0
C1751 C 0.08818 0.35089 0.38683 0.0
C1752 C 0.07016 0.33221 0.37959 0.0
C1753 C 0.06947 0.31071 0.39543 0.0
C1754 C 0.06256 0.41001 0.35625 0.0
C1755 C 0.0862 0.42047 0.34551 0.0
C1756 C 0.06316 0.38699 0.3689 0.0
C1757 C 0.08748 0.37428 0.37143 0.0
C1758 C 0.11105 0.38445 0.36024 0.0
C1759 C 0.11037 0.40733 0.34707 0.0
H1760 H 0.79653 0.07119 0.60505 0.0
H1761 H 0.8823 0.07947 0.59622 0.0
H1762 H 0.79381 0.11142 0.62732 0.0
H1763 H 0.87954 0.11982 0.61897 0.0
H1764 H 0.8605 0.17104 0.69876 0.0
H1765 H 0.86645 0.13378 0.67029 0.0
H1766 H 0.80188 0.1565 0.61504 0.0
H1767 H 0.79592 0.19355 0.64368 0.0
C1768 C 0.81478 0.08172 0.60762 0.0
C1769 C 0.83963 0.07218 0.59889 0.0
C1770 C 0.81319 0.1048 0.62027 0.0
C1771 C 0.83647 0.11872 0.62489 0.0
C1772 C 0.86131 0.1094 0.61575 0.0
C1773 C 0.86285 0.08642 0.60259 0.0
C1774 C 0.84788 0.16815 0.68028 0.0
C1775 C 0.82807 0.18529 0.67298 0.0
C1776 C 0.85138 0.14697 0.66392 0.0
C1777 C 0.8347 0.14233 0.64039 0.0
C1778 C 0.81505 0.15964 0.63302 0.0
C1779 C 0.81184 0.18094 0.64913 0.0
H1780 H 0.46223 0.17529 0.59614 0.0
H1781 H 0.37587 0.17234 0.58948 0.0
H1782 H 0.46219 0.13546 0.61999 0.0
H1783 H 0.37589 0.13277 0.61401 0.0
H1784 H 0.39337 0.08279 0.69552 0.0
H1785 H 0.39177 0.12073 0.6676 0.0
H1786 H 0.44668 0.08946 0.60658 0.0
H1787 H 0.44796 0.05149 0.63435 0.0
C1788 C 0.44329 0.16605 0.59959 0.0
C1789 C 0.41906 0.17687 0.59087 0.0
C1790 C 0.44329 0.14329 0.61316 0.0
C1791 C 0.41903 0.13118 0.61886 0.0
C1792 C 0.39483 0.14184 0.60991 0.0
C1793 C 0.39486 0.16435 0.59574 0.0
C1794 C 0.40489 0.08403 0.67603 0.0
C1795 C 0.42049 0.06418 0.66676 0.0
C1796 C 0.40388 0.10561 0.66003 0.0
C1797 C 0.41901 0.10789 0.63493 0.0
C1798 C 0.43478 0.08809 0.62582 0.0
C1799 C 0.43531 0.06635 0.64149 0.0
H1800 H 0.12282 0.82676 0.33212 0.0
H1801 H 0.20332 0.81154 0.36159 0.0
H1802 H 0.12558 0.8677 0.35296 0.0
H1803 H 0.20585 0.85212 0.38249 0.0
H1804 H 0.2092 0.93486 0.39386 0.0
H1805 H 0.2067 0.89603 0.36848 0.0
H1806 H 0.12775 0.88331 0.40338 0.0
H1807 H 0.12998 0.9223 0.42848 0.0
C1808 C 0.14115 0.83223 0.34274 0.0
C1809 C 0.16279 0.81595 0.34536 0.0
C1810 C 0.14265 0.85554 0.3548 0.0
C1811 C 0.16587 0.86292 0.36941 0.0
C1812 C 0.18781 0.84694 0.37114 0.0
C1813 C 0.18627 0.82367 0.35928 0.0
C1814 C 0.1913 0.92378 0.39612 0.0
C1815 C 0.16979 0.93158 0.41317 0.0
C1816 C 0.18991 0.90158 0.38163 0.0
C1817 C 0.16697 0.88682 0.38389 0.0
C1818 C 0.14549 0.89456 0.40097 0.0
C1819 C 0.14691 0.91673 0.41556 0.0
H1820 H 0.63256 0.82006 0.41601 0.0
H1821 H 0.54594 0.82263 0.4137 0.0
H1822 H 0.63448 0.85947 0.39121 0.0
H1823 H 0.548 0.86232 0.38963 0.0
H1824 H 0.56956 0.94523 0.37532 0.0
H1825 H 0.56994 0.90755 0.40355 0.0
H1826 H 0.6146 0.87127 0.3371 0.0
H1827 H 0.61386 0.90897 0.30867 0.0
C1828 C 0.61398 0.82925 0.41064 0.0
C1829 C 0.58909 0.81838 0.41673 0.0
C1830 C 0.61511 0.85163 0.39636 0.0
C1831 C 0.59138 0.86371 0.38863 0.0
C1832 C 0.56652 0.85328 0.39556 0.0
C1833 C 0.56537 0.83064 0.40922 0.0
C1834 C 0.57986 0.92932 0.36707 0.0
C1835 C 0.59197 0.92996 0.34014 0.0
C1836 C 0.57986 0.9078 0.38303 0.0
C1837 C 0.59243 0.88674 0.37243 0.0
C1838 C 0.605 0.88745 0.3457 0.0
C1839 C 0.60447 0.90886 0.32947 0.0
H1840 H 0.85215 0.58652 0.06294 0.0
H1841 H 0.80046 0.55485 0.12662 0.0
H1842 H 0.85216 0.62543 0.08924 0.0
H1843 H 0.80015 0.5937 0.15272 0.0
H1844 H 0.78032 0.67823 0.16165 0.0
H1845 H 0.78207 0.63889 0.13678 0.0
H1846 H 0.86839 0.63879 0.14352 0.0
H1847 H 0.86669 0.67791 0.1691 0.0
C1848 C 0.8409 0.58792 0.08261 0.0
C1849 C 0.82664 0.56773 0.09315 0.0
C1850 C 0.84101 0.61003 0.09765 0.0
C1851 C 0.82624 0.61239 0.12297 0.0
C1852 C 0.81173 0.59225 0.13327 0.0
C1853 C 0.81212 0.57004 0.11858 0.0
C1854 C 0.79965 0.66974 0.15795 0.0
C1855 C 0.82336 0.68102 0.16736 0.0
C1856 C 0.80062 0.64728 0.14381 0.0
C1857 C 0.82536 0.63597 0.1383 0.0
C1858 C 0.84911 0.64728 0.1475 0.0
C1859 C 0.8481 0.66951 0.16223 0.0
H1860 H 0.39853 0.58767 0.19463 0.0
H1861 H 0.43798 0.56026 0.11915 0.0
H1862 H 0.39764 0.62873 0.17357 0.0
H1863 H 0.43722 0.60078 0.09847 0.0
H1864 H 0.4062 0.6685 0.05567 0.0
H1865 H 0.40405 0.62876 0.07914 0.0
H1866 H 0.42818 0.66224 0.15848 0.0
H1867 H 0.43021 0.70197 0.13464 0.0
C1868 C 0.40707 0.5904 0.17368 0.0
C1869 C 0.41785 0.57063 0.15834 0.0
C1870 C 0.4066 0.61386 0.16165 0.0
C1871 C 0.41693 0.61786 0.13415 0.0
C1872 C 0.42839 0.59819 0.11933 0.0
C1873 C 0.42886 0.57492 0.13125 0.0
C1874 C 0.41088 0.66735 0.07815 0.0
C1875 C 0.41811 0.68831 0.09358 0.0
C1876 C 0.40972 0.64462 0.09159 0.0
C1877 C 0.41604 0.64235 0.12066 0.0
C1878 C 0.4228 0.66343 0.13618 0.0
C1879 C 0.42388 0.68618 0.12267 0.0
H1880 H 0.13342 0.40548 0.94194 0.0
H1881 H 0.20047 0.42529 0.88833 0.0
H1882 H 0.13032 0.36601 0.91748 0.0
H1883 H 0.19746 0.38604 0.86427 0.0
H1884 H 0.15501 0.28827 0.88525 0.0
H1885 H 0.15594 0.32712 0.91092 0.0
H1886 H 0.16628 0.3656 0.83139 0.0
H1887 H 0.16561 0.32683 0.80578 0.0
C1888 C 0.14758 0.40138 0.92511 0.0
C1889 C 0.16714 0.41858 0.91707 0.0
C1890 C 0.14585 0.37877 0.91117 0.0
C1891 C 0.16349 0.37301 0.88878 0.0
C1892 C 0.18327 0.39008 0.8811 0.0
C1893 C 0.18511 0.41254 0.89508 0.0
C1894 C 0.15728 0.30502 0.87323 0.0
C1895 C 0.16033 0.30443 0.84347 0.0
C1896 C 0.15771 0.32729 0.88794 0.0
C1897 C 0.16138 0.34941 0.87321 0.0
C1898 C 0.16384 0.34883 0.8434 0.0
C1899 C 0.1633 0.32661 0.8287 0.0
H1900 H 0.52191 0.31604 0.89167 0.0
H1901 H 0.60139 0.3285 0.92556 0.0
H1902 H 0.52424 0.35504 0.8664 0.0
H1903 H 0.60354 0.36746 0.90047 0.0
H1904 H 0.52947 0.43961 0.85527 0.0
H1905 H 0.52599 0.39979 0.87832 0.0
H1906 H 0.60589 0.38168 0.84971 0.0
H1907 H 0.60952 0.4216 0.82669 0.0
C1908 C 0.5398 0.32714 0.89385 0.0
C1909 C 0.56147 0.31918 0.9106 0.0
C1910 C 0.54109 0.34947 0.87944 0.0
C1911 C 0.56415 0.36415 0.88133 0.0
C1912 C 0.58568 0.35632 0.8983 0.0
C1913 C 0.58432 0.33412 0.91288 0.0
C1914 C 0.54622 0.42706 0.85365 0.0
C1915 C 0.56982 0.43378 0.83922 0.0
C1916 C 0.54417 0.40424 0.86678 0.0
C1917 C 0.56573 0.38774 0.86593 0.0
C1918 C 0.58909 0.3942 0.85098 0.0
C1919 C 0.59108 0.41697 0.83764 0.0
H1920 H 0.2479 0.98052 0.00727 0.0
H1921 H 0.259 0.05539 0.98026 0.0
H1922 H 0.2078 0.97763 0.97733 0.0
H1923 H 0.2196 0.05235 0.95015 0.0
H1924 H 0.13345 0.04751 0.92083 0.0
H1925 H 0.17164 0.04922 0.95282 0.0
H1926 H 0.19528 0.97659 0.92656 0.0
H1927 H 0.15641 0.97464 0.89477 0.0
C1928 C 0.24169 0.99639 0.99516 0.0
C1929 C 0.25664 0.0182 0.99624 0.0
C1930 C 0.21888 0.99466 0.97778 0.0
C1931 C 0.2105 0.01474 0.96125 0.0
C1932 C 0.22523 0.03662 0.96282 0.0
C1933 C 0.24795 0.03833 0.98007 0.0
C1934 C 0.14677 0.03188 0.92175 0.0
C1935 C 0.1419 0.01097 0.9051 0.0
C1936 C 0.16878 0.03291 0.94008 0.0
C1937 C 0.18661 0.01308 0.94225 0.0
C1938 C 0.18176 0.99209 0.92565 0.0
C1939 C 0.15964 0.99105 0.90723 0.0
H1940 H 0.0942 0.26315 0.93867 0.0
H1941 H 0.05049 0.21545 0.88178 0.0
H1942 H 0.05743 0.26105 0.97286 0.0
H1943 H 0.01359 0.21379 0.91567 0.0
H1944 H 0.96824 0.19113 0.99434 0.0
H1945 H 0.00595 0.19534 0.9619 0.0
H1946 H 0.01063 0.27248 0.98138 0.0
H1947 H 0.97304 0.26817 0.01442 0.0
C1948 C 0.07659 0.25251 0.93326 0.0
C1949 C 0.07536 0.23932 0.90756 0.0
C1950 C 0.05549 0.25136 0.95286 0.0
C1951 C 0.03273 0.23698 0.94718 0.0
C1952 C 0.03111 0.22458 0.92099 0.0
C1953 C 0.05217 0.22571 0.90143 0.0
C1954 C 0.97745 0.20896 0.99197 0.0
C1955 C 0.96752 0.22934 0.00684 0.0
C1956 C 0.99893 0.21142 0.97315 0.0
C1957 C 0.011 0.23433 0.96864 0.0
C1958 C 0.00181 0.25456 0.9844 0.0
C1959 C 0.98027 0.25209 1.00333 0.0
H1960 H 0.26106 0.19138 0.25751 0.0
H1961 H 0.26248 0.26962 0.24439 0.0
H1962 H 0.21798 0.19494 0.28145 0.0
H1963 H 0.21902 0.27315 0.26834 0.0
H1964 H 0.16111 0.2685 0.3472 0.0
H1965 H 0.20191 0.26747 0.31828 0.0
H1966 H 0.17076 0.2055 0.27177 0.0
H1967 H 0.13027 0.20632 0.30066 0.0
C1968 C 0.25203 0.20933 0.25946 0.0
C1969 C 0.26521 0.23023 0.24911 0.0
C1970 C 0.22726 0.21135 0.27307 0.0
C1971 C 0.21514 0.23433 0.27683 0.0
C1972 C 0.22802 0.25523 0.26597 0.0
C1973 C 0.25277 0.25318 0.25208 0.0
C1974 C 0.16293 0.25475 0.3307 0.0
C1975 C 0.14256 0.23736 0.32642 0.0
C1976 C 0.1862 0.25427 0.31402 0.0
C1977 C 0.18957 0.23632 0.29286 0.0
C1978 C 0.16889 0.21935 0.28815 0.0
C1979 C 0.14565 0.21989 0.30469 0.0
H1980 H 0.01004 0.06181 0.25417 0.0
H1981 H 0.99587 0.98483 0.26804 0.0
H1982 H 0.04899 0.06004 0.28539 0.0
H1983 H 0.03359 0.98325 0.30068 0.0
H1984 H 0.11546 0.98328 0.34328 0.0
H1985 H 0.07929 0.9838 0.30838 0.0
H1986 H 0.05985 0.05801 0.33307 0.0
H1987 H 0.09706 0.05779 0.36654 0.0
C1988 C 0.01534 0.04448 0.26385 0.0
C1989 C -9e-05 0.02349 0.25863 0.0
C1990 C 0.03748 0.04349 0.28209 0.0
C1991 C 0.04437 0.02158 0.29614 0.0
C1992 C 0.02929 0.0004 0.29013 0.0
C1993 C 0.00752 0.00131 0.27139 0.0
C1994 C 0.10327 -0.0004 0.3413 0.0
C1995 C 0.10905 0.0205 0.35756 0.0
C1996 C 0.08246 -6e-05 0.3213 0.0
C1997 C 0.06658 0.02103 0.31753 0.0
C1998 C 0.07199 0.04165 0.33461 0.0
C1999 C 0.09315 0.04147 0.35412 0.0
H2000 H 0.85271 0.95396 0.09474 0.0
H2001 H 0.86538 0.03145 0.08336 0.0
H2002 H 0.81456 0.95541 0.06294 0.0
H2003 H 0.82756 0.03285 0.04996 0.0
H2004 H 0.74022 0.0274 0.01399 0.0
H2005 H 0.78026 0.03006 0.04392 0.0
H2006 H 0.80477 0.95838 0.01479 0.0
H2007 H 0.7641 0.95533 0.98644 0.0
C2008 C 0.84737 0.97135 0.08522 0.0
C2009 C 0.8621 0.99256 0.09139 0.0
C2010 C 0.82561 0.97216 0.06666 0.0
C2011 C 0.81824 0.99413 0.05317 0.0
C2012 C 0.83259 0.0156 0.05993 0.0
C2013 C 0.85425 0.01484 0.07905 0.0
C2014 C 0.75449 0.01245 0.01369 0.0
C2015 C 0.74903 0.99106 0.99814 0.0
C2016 C 0.77746 0.01395 0.03085 0.0
C2017 C 0.79555 0.9942 0.03239 0.0
C2018 C 0.79088 0.97361 0.01503 0.0
C2019 C 0.76773 0.97192 0.99846 0.0
H2020 H 0.01788 0.77793 0.06062 0.0
H2021 H 0.9856 0.74105 0.98682 0.0
H2022 H 0.97514 0.77301 0.08513 0.0
H2023 H 0.94248 0.73642 0.01144 0.0
H2024 H 0.86372 0.76675 0.05561 0.0
H2025 H 0.90625 0.76642 0.0299 0.0
H2026 H 0.94598 0.73756 0.10428 0.0
H2027 H 0.90321 0.73759 0.13008 0.0
C2028 C 0.00159 0.76891 0.04953 0.0
C2029 C 0.00506 0.76003 0.02167 0.0
C2030 C 0.97721 0.76587 0.06373 0.0
C2031 C 0.95557 0.7542 0.05027 0.0
C2032 C 0.95886 0.7455 0.0223 0.0
C2033 C 0.98348 0.74817 0.00822 0.0
C2034 C 0.88147 0.76009 0.06642 0.0
C2035 C 0.88018 0.75236 0.09495 0.0
C2036 C 0.90577 0.75978 0.05161 0.0
C2037 C 0.9294 0.75209 0.06514 0.0
C2038 C 0.92805 0.74375 0.09344 0.0
C2039 C 0.90359 0.74366 0.10814 0.0
H2040 H 0.8822 0.76867 0.70224 0.0
H2041 H 0.83704 0.74359 0.62941 0.0
H2042 H 0.8411 0.77011 0.73045 0.0
H2043 H 0.79565 0.74553 0.65769 0.0
H2044 H 0.72999 0.79026 0.70814 0.0
H2045 H 0.77062 0.78304 0.68052 0.0
H2046 H 0.80341 0.74044 0.74956 0.0
H2047 H 0.76223 0.74725 0.77726 0.0
C2048 C 0.86347 0.76336 0.69228 0.0
C2049 C 0.8628 0.75616 0.66354 0.0
C2050 C 0.84 0.76403 0.70853 0.0
C2051 C 0.81522 0.75796 0.69626 0.0
C2052 C 0.81452 0.75037 0.66763 0.0
C2053 C 0.83816 0.7492 0.65149 0.0
C2054 C 0.74585 0.77937 0.71754 0.0
C2055 C 0.74302 0.7695 0.74503 0.0
C2056 C 0.76899 0.77504 0.70155 0.0
C2057 C 0.79008 0.76111 0.71283 0.0
C2058 C 0.7874 0.75127 0.74037 0.0
C2059 C 0.76391 0.75517 0.75621 0.0
H2060 H 0.92258 0.01405 0.63863 0.0
H2061 H 0.88584 0.97111 0.70517 0.0
H2062 H 0.96366 0.01688 0.66677 0.0
H2063 H 0.92615 0.97483 0.7338 0.0
H2064 H 0.01193 0.96243 0.76442 0.0
H2065 H 0.97012 0.96081 0.73776 0.0
H2066 H 0.98419 0.03426 0.70698 0.0
H2067 H 0.02661 0.03532 0.73267 0.0
C2068 C 0.9232 0.0054 0.65936 0.0
C2069 C 0.90102 0.99219 0.66952 0.0
C2070 C 0.9467 0.00716 0.67566 0.0
C2071 C 0.94843 0.99602 0.70269 0.0
C2072 C 0.92595 0.9832 0.71293 0.0
C2073 C 0.90268 0.98117 0.6965 0.0
C2074 C 0.00595 0.97832 0.75221 0.0
C2075 C 0.02266 -0.00104 0.75063 0.0
C2076 C 0.98186 0.97746 0.73691 0.0
C2077 C 0.97365 0.99736 0.71993 0.0
C2078 C 0.99002 0.01834 0.71922 0.0
C2079 C 0.01426 0.01906 0.73422 0.0
H2080 H 0.25016 0.49018 0.51111 0.0
H2081 H 0.26404 0.56245 0.47694 0.0
H2082 H 0.20987 0.48644 0.48174 0.0
H2083 H 0.22423 0.55854 0.44738 0.0
H2084 H 0.13699 0.55347 0.41954 0.0
H2085 H 0.17592 0.55684 0.45042 0.0
H2086 H 0.19733 0.48204 0.43126 0.0
H2087 H 0.15784 0.47849 0.40056 0.0
C2088 C 0.2445 0.50535 0.49757 0.0
C2089 C 0.26032 0.52665 0.49649 0.0
C2090 C 0.22157 0.5031 0.48049 0.0
C2091 C 0.21385 0.52213 0.46207 0.0
C2092 C 0.22938 0.54361 0.46151 0.0
C2093 C 0.25229 0.54583 0.47846 0.0
C2094 C 0.14999 0.53771 0.42179 0.0
C2095 C 0.14428 0.5157 0.40749 0.0
C2096 C 0.17242 0.53969 0.43946 0.0
C2097 C 0.1898 0.51972 0.44337 0.0
C2098 C 0.18418 0.49769 0.429 0.0
C2099 C 0.16169 0.49572 0.4112 0.0
H2100 H 0.08508 0.69041 0.40213 0.0
H2101 H 0.09969 0.76639 0.42154 0.0
H2102 H 0.04684 0.6903 0.4341 0.0
H2103 H 0.0622 0.7661 0.45507 0.0
H2104 H 0.97747 0.76227 0.4946 0.0
H2105 H 0.01602 0.76489 0.4627 0.0
H2106 H 0.03556 0.68948 0.48151 0.0
H2107 H 0.99617 0.68666 0.51184 0.0
C2108 C 0.08012 0.70711 0.41338 0.0
C2109 C 0.0954 0.72839 0.40933 0.0
C2110 C 0.05831 0.70701 0.43208 0.0
C2111 C 0.05149 0.72806 0.44785 0.0
C2112 C 0.06653 0.74956 0.44326 0.0
C2113 C 0.0881 0.74977 0.42404 0.0
C2114 C 0.99028 0.74639 0.49215 0.0
C2115 C 0.98376 0.72422 0.50562 0.0
C2116 C 0.01246 0.74786 0.47382 0.0
C2117 C 0.02889 0.72728 0.46892 0.0
C2118 C 0.02302 0.70553 0.4838 0.0
C2119 C 0.00059 0.70395 0.50157 0.0
H2120 H 0.27836 0.71771 0.81197 0.0
H2121 H 0.24693 0.74812 0.73389 0.0
H2122 H 0.23489 0.7233 0.83473 0.0
H2123 H 0.20311 0.75346 0.75682 0.0
H2124 H 0.12448 0.72335 0.80129 0.0
H2125 H 0.16762 0.72382 0.77681 0.0
H2126 H 0.20391 0.75882 0.84965 0.0
H2127 H 0.16049 0.75858 0.87421 0.0
C2128 C 0.26213 0.7255 0.7996 0.0
C2129 C 0.26603 0.73234 0.77105 0.0
C2130 C 0.23732 0.72893 0.81278 0.0
C2131 C 0.21572 0.73897 0.7976 0.0
C2132 C 0.21948 0.74568 0.76898 0.0
C2133 C 0.24449 0.7426 0.75588 0.0
C2134 C 0.14159 0.73142 0.81198 0.0
C2135 C 0.1392 0.74076 0.83976 0.0
C2136 C 0.16623 0.73181 0.79787 0.0
C2137 C 0.18909 0.74123 0.81139 0.0
C2138 C 0.18658 0.75128 0.83884 0.0
C2139 C 0.16176 0.75126 0.85282 0.0
H2140 H 0.10267 0.4681 0.85814 0.0
H2141 H 0.10463 0.54702 0.85418 0.0
H2142 H 0.06558 0.46762 0.82418 0.0
H2143 H 0.06712 0.54666 0.82111 0.0
H2144 H 0.02 0.53884 0.73998 0.0
H2145 H 0.0576 0.53688 0.77298 0.0
H2146 H 0.0193 0.47706 0.81735 0.0
H2147 H 0.98215 0.47849 0.78371 0.0
C2148 C 0.09489 0.48535 0.85038 0.0
C2149 C 0.10665 0.50759 0.85875 0.0
C2150 C 0.0736 0.4851 0.83091 0.0
C2151 C 0.06349 0.50709 0.81956 0.0
C2152 C 0.07478 0.52933 0.82876 0.0
C2153 C 0.09615 0.52956 0.84797 0.0
C2154 C 0.01973 0.5251 0.7566 0.0
C2155 C 0.99802 0.50888 0.75923 0.0
C2156 C 0.04119 0.52411 0.77572 0.0
C2157 C 0.04139 0.50703 0.79815 0.0
C2158 C 0.02 0.49033 0.80025 0.0
C2159 C 0.99863 0.49119 0.78097 0.0
H2160 H 0.73032 0.43631 0.5093 0.0
H2161 H 0.72786 0.51396 0.4923 0.0
H2162 H 0.7734 0.4412 0.53292 0.0
H2163 H 0.77133 0.51884 0.51598 0.0
H2164 H 0.83042 0.51727 0.59449 0.0
H2165 H 0.78928 0.51512 0.56608 0.0
H2166 H 0.82035 0.45183 0.522 0.0
H2167 H 0.8611 0.45379 0.55031 0.0
C2168 C 0.73911 0.45441 0.51034 0.0
C2169 C 0.72565 0.47474 0.49893 0.0
C2170 C 0.76388 0.4572 0.52379 0.0
C2171 C 0.77576 0.48042 0.52635 0.0
C2172 C 0.76255 0.50075 0.51454 0.0
C2173 C 0.7378 0.49792 0.50078 0.0
C2174 C 0.82851 0.50302 0.5786 0.0
C2175 C 0.84893 0.48557 0.57488 0.0
C2176 C 0.80503 0.50188 0.56221 0.0
C2177 C 0.80152 0.48319 0.54195 0.0
C2178 C 0.82229 0.46623 0.53772 0.0
C2179 C 0.8457 0.46742 0.55394 0.0
H2180 H 0.97336 0.27118 0.46827 0.0
H2181 H 0.01716 0.23772 0.53751 0.0
H2182 H 0.93244 0.26992 0.49683 0.0
H2183 H 0.97663 0.23704 0.56611 0.0
H2184 H 0.89408 0.21944 0.60127 0.0
H2185 H 0.93318 0.21782 0.57006 0.0
H2186 H 0.91446 0.29014 0.53863 0.0
H2187 H 0.87512 0.2915 0.5692 0.0
C2188 C 0.97426 0.26353 0.48952 0.0
C2189 C 0.99851 0.25462 0.50062 0.0
C2190 C 0.95087 0.26293 0.50594 0.0
C2191 C 0.95131 0.25342 0.53376 0.0
C2192 C 0.9755 0.24417 0.54463 0.0
C2193 C 0.9988 0.24473 0.52826 0.0
C2194 C 0.89833 0.23496 0.58767 0.0
C2195 C 0.88157 0.25561 0.58773 0.0
C2196 C 0.92075 0.23407 0.56985 0.0
C2197 C 0.92691 0.25385 0.55184 0.0
C2198 C 0.91004 0.27444 0.55188 0.0
C2199 C 0.8876 0.27528 0.56958 0.0
H2200 H 0.73007 0.23317 0.23562 0.0
H2201 H 0.74899 0.30692 0.26163 0.0
H2202 H 0.76905 0.23275 0.2046 0.0
H2203 H 0.78906 0.30613 0.23195 0.0
H2204 H 0.84044 0.30916 0.15289 0.0
H2205 H 0.80196 0.30838 0.1847 0.0
H2206 H 0.81514 0.23119 0.19971 0.0
H2207 H 0.85263 0.23187 0.16646 0.0
C2208 C 0.74301 0.24909 0.23526 0.0
C2209 C 0.73647 0.27011 0.25102 0.0
C2210 C 0.76548 0.24886 0.21747 0.0
C2211 C 0.78228 0.26949 0.2154 0.0
C2212 C 0.77629 0.29012 0.23227 0.0
C2213 C 0.75348 0.29051 0.2496 0.0
C2214 C 0.83491 0.29201 0.16285 0.0
C2215 C 0.84943 0.27057 0.15714 0.0
C2216 C 0.81301 0.29157 0.1814 0.0
C2217 C 0.80542 0.26977 0.1952 0.0
C2218 C 0.81999 0.24827 0.18925 0.0
C2219 C 0.84157 0.24863 0.17022 0.0
H2220 H 0.91921 0.52572 0.15294 0.0
H2221 H 0.88202 0.48584 0.22177 0.0
H2222 H 0.96111 0.52724 0.17969 0.0
H2223 H 0.92339 0.4882 0.24902 0.0
H2224 H 0.01016 0.46942 0.27299 0.0
H2225 H 0.96661 0.47087 0.24963 0.0
H2226 H 0.98399 0.54385 0.2193 0.0
H2227 H 0.02798 0.54191 0.24172 0.0
C2228 C 0.91988 0.51761 0.17396 0.0
C2229 C 0.8974 0.50548 0.18512 0.0
C2230 C 0.94386 0.51858 0.18942 0.0
C2231 C 0.94578 0.50771 0.21655 0.0
C2232 C 0.92292 0.4963 0.228 0.0
C2233 C 0.8991 0.49508 0.21241 0.0
C2234 C 0.00454 0.48587 0.2616 0.0
C2235 C 0.02258 0.50547 0.25905 0.0
C2236 C 0.97949 0.48677 0.24825 0.0
C2237 C 0.97174 0.50744 0.23233 0.0
C2238 C 0.98945 0.52743 0.2308 0.0
C2239 C 0.01461 0.5264 0.24388 0.0
H2240 H 0.78265 0.98051 0.5067 0.0
H2241 H 0.76463 0.05721 0.51705 0.0
H2242 H 0.74425 0.97609 0.47487 0.0
H2243 H 0.72547 0.05269 0.48661 0.0
H2244 H 0.67957 0.0468 0.40497 0.0
H2245 H 0.71667 0.04843 0.4383 0.0
H2246 H 0.6974 0.97543 0.46731 0.0
H2247 H 0.6608 0.97349 0.43264 0.0
C2248 C 0.77003 0.99628 0.50276 0.0
C2249 C 0.77674 0.01926 0.51419 0.0
C2250 C 0.74796 0.99377 0.48449 0.0
C2251 C 0.7319 0.01412 0.47759 0.0
C2252 C 0.7378 0.03674 0.49056 0.0
C2253 C 0.76009 0.03933 0.50834 0.0
C2254 C 0.68337 0.03101 0.41831 0.0
C2255 C 0.66724 0.01004 0.4162 0.0
C2256 C 0.70451 0.03203 0.43774 0.0
C2257 C 0.70986 0.01226 0.45608 0.0
C2258 C 0.69405 0.99098 0.4535 0.0
C2259 C 0.67305 0.98983 0.43364 0.0
H2260 H 0.47518 0.26848 0.4932 0.0
H2261 H 0.49602 0.19362 0.51216 0.0
H2262 H 0.51455 0.27187 0.46239 0.0
H2263 H 0.53599 0.19725 0.48286 0.0
H2264 H 0.58368 0.1975 0.40286 0.0
H2265 H 0.54526 0.19794 0.43442 0.0
H2266 H 0.56195 0.27334 0.45607 0.0
H2267 H 0.60002 0.27309 0.42293 0.0
C2268 C 0.48859 0.25296 0.49135 0.0
C2269 C 0.48243 0.23069 0.50482 0.0
C2270 C 0.51119 0.25489 0.47369 0.0
C2271 C 0.52825 0.23467 0.46951 0.0
C2272 C 0.52288 0.21296 0.48465 0.0
C2273 C 0.5001 0.21092 0.50176 0.0
C2274 C 0.57902 0.21426 0.41417 0.0
C2275 C 0.59489 0.23522 0.41056 0.0
C2276 C 0.55712 0.21446 0.43259 0.0
C2277 C 0.55077 0.23548 0.44852 0.0
C2278 C 0.56617 0.25681 0.44418 0.0
C2279 C 0.58796 0.25672 0.42521 0.0
H2280 H 0.71915 0.19581 0.74526 0.0
H2281 H 0.75069 0.26037 0.7865 0.0
H2282 H 0.67939 0.19785 0.77536 0.0
H2283 H 0.71157 0.26186 0.81733 0.0
H2284 H 0.62632 0.26992 0.85185 0.0
H2285 H 0.66498 0.26975 0.81998 0.0
H2286 H 0.66673 0.1907 0.82316 0.0
H2287 H 0.62756 0.19094 0.854 0.0
C2288 C 0.71757 0.21045 0.76072 0.0
C2289 C 0.73808 0.2279 0.76348 0.0
C2290 C 0.69489 0.21151 0.77818 0.0
C2291 C 0.69233 0.22989 0.79904 0.0
C2292 C 0.71264 0.24763 0.80133 0.0
C2293 C 0.73516 0.24672 0.78367 0.0
C2294 C 0.63512 0.25255 0.84584 0.0
C2295 C 0.62387 0.23045 0.8553 0.0
C2296 C 0.65731 0.25242 0.82761 0.0
C2297 C 0.6689 0.23019 0.81872 0.0
C2298 C 0.65798 0.20814 0.82892 0.0
C2299 C 0.63564 0.20827 0.84683 0.0
H2300 H 0.47778 0.02727 0.82179 0.0
H2301 H 0.51155 0.99075 0.7485 0.0
H2302 H 0.51869 0.01955 0.84838 0.0
H2303 H 0.55307 0.98378 0.77484 0.0
H2304 H 0.6154 0.95598 0.83782 0.0
H2305 H 0.5727 0.96105 0.81308 0.0
H2306 H 0.56372 0.03272 0.85088 0.0
H2307 H 0.60569 0.02728 0.87626 0.0
C2308 C 0.49408 0.01779 0.81123 0.0
C2309 C 0.49147 0.00975 0.78296 0.0
C2310 C 0.51762 0.01343 0.82649 0.0
C2311 C 0.53932 0.00113 0.81378 0.0
C2312 C 0.53666 0.993 0.78547 0.0
C2313 C 0.51295 0.99718 0.77027 0.0
C2314 C 0.60414 0.9727 0.84104 0.0
C2315 C 0.61397 0.99121 0.85901 0.0
C2316 C 0.57977 0.97571 0.82667 0.0
C2317 C 0.56476 0.99736 0.82983 0.0
C2318 C 0.57446 0.01565 0.84821 0.0
C2319 C 0.59866 0.01257 0.86271 0.0
H2320 H 0.24128 0.01854 0.49238 0.0
H2321 H 0.24432 0.94064 0.50785 0.0
H2322 H 0.28454 0.02338 0.51632 0.0
H2323 H 0.28717 0.94553 0.53191 0.0
H2324 H 0.37401 0.95879 0.5526 0.0
H2325 H 0.33409 0.95654 0.523 0.0
H2326 H 0.30119 0.01951 0.56626 0.0
H2327 H 0.34149 0.02203 0.59581 0.0
C2328 C 0.25132 0.00243 0.50055 0.0
C2329 C 0.23938 0.97921 0.49829 0.0
C2330 C 0.27595 0.00524 0.51446 0.0
C2331 C 0.28918 0.98486 0.52609 0.0
C2332 C 0.27762 0.96157 0.52293 0.0
C2333 C 0.25299 0.95878 0.50923 0.0
C2334 C 0.35837 0.97228 0.55575 0.0
C2335 C 0.36082 0.99047 0.57675 0.0
C2336 C 0.33546 0.97092 0.53881 0.0
C2337 C 0.31444 0.98774 0.54242 0.0
C2338 C 0.31718 0.00641 0.56283 0.0
C2339 C 0.34016 0.00776 0.57987 0.0
H2340 H 0.41869 0.725 0.60063 0.0
H2341 H 0.39084 0.79308 0.56435 0.0
H2342 H 0.4592 0.72743 0.57109 0.0
H2343 H 0.43064 0.79521 0.53485 0.0
H2344 H 0.5195 0.80758 0.51651 0.0
H2345 H 0.47799 0.80291 0.54306 0.0
H2346 H 0.4753 0.7263 0.52061 0.0
H2347 H 0.51734 0.7309 0.49417 0.0
C2348 C 0.42112 0.74036 0.58631 0.0
C2349 C 0.40166 0.75894 0.58508 0.0
C2350 C 0.44419 0.74168 0.56926 0.0
C2351 C 0.44821 0.76163 0.55078 0.0
C2352 C 0.42841 0.77984 0.5492 0.0
C2353 C 0.4055 0.77853 0.56611 0.0
C2354 C 0.50998 0.78976 0.51696 0.0
C2355 C 0.52171 0.76964 0.50315 0.0
C2356 C 0.48611 0.78709 0.53214 0.0
C2357 C 0.47333 0.76421 0.53397 0.0
C2358 C 0.48481 0.7441 0.51982 0.0
C2359 C 0.50872 0.74681 0.50445 0.0
H2360 H 0.32401 0.74153 0.14853 0.0
H2361 H 0.36328 0.76953 0.22376 0.0
H2362 H 0.28109 0.7414 0.17405 0.0
H2363 H 0.32056 0.76895 0.24927 0.0
H2364 H 0.23994 0.74184 0.2902 0.0
H2365 H 0.28332 0.73718 0.2659 0.0
H2366 H 0.25303 0.77832 0.19441 0.0
H2367 H 0.21019 0.78341 0.21865 0.0
C2368 C 0.32353 0.74732 0.17058 0.0
C2369 C 0.34691 0.75572 0.18409 0.0
C2370 C 0.29902 0.74731 0.18512 0.0
C2371 C 0.29759 0.75519 0.21359 0.0
C2372 C 0.32116 0.76264 0.22741 0.0
C2373 C 0.34554 0.76312 0.21273 0.0
C2374 C 0.24264 0.7499 0.26934 0.0
C2375 C 0.22178 0.76315 0.25644 0.0
C2376 C 0.26738 0.74723 0.25548 0.0
C2377 C 0.27137 0.75726 0.22823 0.0
C2378 C 0.25038 0.7702 0.21526 0.0
C2379 C 0.22595 0.77329 0.2293 0.0
H2380 H 0.49143 0.97112 0.2592 0.0
H2381 H 0.52765 -0.00069 0.18262 0.0
H2382 H 0.44741 0.97317 0.23692 0.0
H2383 H 0.48366 0.00355 0.16093 0.0
H2384 H 0.40491 0.98499 0.11741 0.0
H2385 H 0.44908 0.98417 0.13961 0.0
H2386 H 0.4121 0.99557 0.22203 0.0
H2387 H 0.36812 0.9941 0.19974 0.0
C2388 C 0.4898 0.97822 0.23775 0.0
C2389 C 0.51284 0.98491 0.22255 0.0
C2390 C 0.4645 0.97964 0.22491 0.0
C2391 C 0.46157 0.98855 0.19686 0.0
C2392 C 0.48483 0.99594 0.18215 0.0
C2393 C 0.51014 0.99376 0.19468 0.0
C2394 C 0.40645 0.98744 0.14024 0.0
C2395 C 0.38329 0.98952 0.15693 0.0
C2396 C 0.4318 0.98713 0.1531 0.0
C2397 C 0.43455 0.98968 0.18289 0.0
C2398 C 0.4111 0.99278 0.19926 0.0
C2399 C 0.3858 0.99225 0.18648 0.0
H2400 H 0.63916 0.55779 0.90928 0.0
H2401 H 0.6401 0.47923 0.89931 0.0
H2402 H 0.67547 0.55506 0.94364 0.0
H2403 H 0.67614 0.47638 0.93446 0.0
H2404 H 0.75927 0.48532 0.97759 0.0
H2405 H 0.72274 0.4855 0.94313 0.0
H2406 H 0.68269 0.54196 0.99155 0.0
H2407 H 0.71957 0.54229 0.02551 0.0
C2408 C 0.64715 0.5399 0.91443 0.0
C2409 C 0.63669 0.51872 0.90163 0.0
C2410 C 0.66783 0.53831 0.93437 0.0
C2411 C 0.6785 0.51546 0.94222 0.0
C2412 C 0.66851 0.49428 0.92883 0.0
C2413 C 0.64786 0.4959 0.90868 0.0
C2414 C 0.74252 0.49758 0.98107 0.0
C2415 C 0.74245 0.51394 1.00422 0.0
C2416 C 0.72151 0.49764 0.96131 0.0
C2417 C 0.6999 0.51398 0.9643 0.0
C2418 C 0.69932 0.52955 0.98817 0.0
C2419 C 0.72037 0.52959 0.00782 0.0
H2420 H 0.61342 0.6976 0.90915 0.0
H2421 H 0.60725 0.7753 0.89355 0.0
H2422 H 0.57261 0.69899 0.93738 0.0
H2423 H 0.56589 0.77661 0.9218 0.0
H2424 H 0.50972 0.77061 1.00179 0.0
H2425 H 0.55053 0.77128 0.97259 0.0
H2426 H 0.52462 0.70536 0.93001 0.0
H2427 H 0.48439 0.7045 0.95907 0.0
C2428 C 0.60324 0.71499 0.91157 0.0
C2429 C 0.61358 0.73633 0.89901 0.0
C2430 C 0.57975 0.71576 0.92771 0.0
C2431 C 0.56595 0.7379 0.93183 0.0
C2432 C 0.57619 0.75931 0.91922 0.0
C2433 C 0.59972 0.75851 0.90283 0.0
C2434 C 0.51283 0.75625 0.98624 0.0
C2435 C 0.49386 0.73741 0.98294 0.0
C2436 C 0.53608 0.75674 0.96937 0.0
C2437 C 0.54087 0.73831 0.94905 0.0
C2438 C 0.52176 0.71964 0.94571 0.0
C2439 C 0.4986 0.71921 0.96238 0.0
H2440 H 0.65492 0.69009 0.36361 0.0
H2441 H 0.64124 0.76659 0.3462 0.0
H2442 H 0.69233 0.68992 0.33043 0.0
H2443 H 0.67762 0.76624 0.31153 0.0
H2444 H 0.76136 0.76321 0.2715 0.0
H2445 H 0.72334 0.76497 0.30391 0.0
H2446 H 0.70367 0.68998 0.28296 0.0
H2447 H 0.74277 0.68795 0.25202 0.0
C2448 C 0.65988 0.70687 0.35251 0.0
C2449 C 0.64524 0.72836 0.35755 0.0
C2450 C 0.68117 0.70674 0.33316 0.0
C2451 C 0.68801 0.72798 0.31778 0.0
C2452 C 0.67336 0.74958 0.32312 0.0
C2453 C 0.65241 0.74981 0.34298 0.0
C2454 C 0.74867 0.74722 0.27359 0.0
C2455 C 0.7551 0.7254 0.25931 0.0
C2456 C 0.72675 0.74821 0.29218 0.0
C2457 C 0.71039 0.72752 0.29654 0.0
C2458 C 0.71615 0.70609 0.28099 0.0
C2459 C 0.7384 0.70497 0.2629 0.0
H2460 H 0.49842 0.48307 0.24914 0.0
H2461 H 0.4943 0.56032 0.2682 0.0
H2462 H 0.53864 0.4796 0.27881 0.0
H2463 H 0.53377 0.55677 0.29812 0.0
H2464 H 0.61883 0.54817 0.3287 0.0
H2465 H 0.58121 0.54993 0.29597 0.0
H2466 H 0.55135 0.4815 0.32933 0.0
H2467 H 0.58963 0.47942 0.36186 0.0
C2468 C 0.50622 0.49933 0.2594 0.0
C2469 C 0.49318 0.52199 0.25623 0.0
C2470 C 0.52909 0.4973 0.27664 0.0
C2471 C 0.53941 0.51789 0.29093 0.0
C2472 C 0.52663 0.54058 0.28717 0.0
C2473 C 0.50387 0.5426 0.27005 0.0
C2474 C 0.60428 0.53346 0.32915 0.0
C2475 C 0.60718 0.51372 0.34806 0.0
C2476 C 0.58261 0.53452 0.31038 0.0
C2477 C 0.56315 0.51592 0.31006 0.0
C2478 C 0.56613 0.49601 0.3288 0.0
C2479 C 0.58793 0.49491 0.34761 0.0
H2480 H 0.33859 0.49983 0.10666 0.0
H2481 H 0.36804 0.43414 0.06608 0.0
H2482 H 0.29831 0.4982 0.07723 0.0
H2483 H 0.32786 0.43269 0.03647 0.0
H2484 H 0.23781 0.4239 0.01443 0.0
H2485 H 0.27953 0.42535 0.04131 0.0
H2486 H 0.28461 0.50325 0.0269 0.0
H2487 H 0.24254 0.50186 1.00016 0.0
C2488 C 0.33645 0.48498 0.09155 0.0
C2489 C 0.35655 0.46708 0.0888 0.0
C2490 C 0.31347 0.4842 0.07447 0.0
C2491 C 0.30994 0.46541 0.05435 0.0
C2492 C 0.32987 0.44732 0.05188 0.0
C2493 C 0.35293 0.44818 0.06884 0.0
C2494 C 0.24794 0.44132 0.0167 0.0
C2495 C 0.23678 0.46278 0.0052 0.0
C2496 C 0.27194 0.44213 0.03206 0.0
C2497 C 0.28532 0.46444 0.03644 0.0
C2498 C 0.27458 0.48582 0.02424 0.0
C2499 C 0.25062 0.48499 0.00868 0.0
H2500 H 0.38665 0.2314 0.09547 0.0
H2501 H 0.40042 0.30828 0.11044 0.0
H2502 H 0.42241 0.23109 0.06001 0.0
H2503 H 0.4371 0.30785 0.07635 0.0
H2504 H 0.48371 0.30873 0.99551 0.0
H2505 H 0.44576 0.30666 0.02798 0.0
H2506 H 0.46832 0.23284 0.05101 0.0
H2507 H 0.50531 0.23458 0.01718 0.0
C2508 C 0.39774 0.24811 0.09157 0.0
C2509 C 0.39074 0.26988 0.10561 0.0
C2510 C 0.41829 0.24797 0.07124 0.0
C2511 C 0.43259 0.26952 0.06487 0.0
C2512 C 0.4261 0.29104 0.07988 0.0
C2513 C 0.40526 0.29127 0.09974 0.0
C2514 C 0.48023 0.29193 0.00718 0.0
C2515 C 0.49746 0.27185 1.00382 0.0
C2516 C 0.45866 0.29081 0.02613 0.0
C2517 C 0.45414 0.26975 0.04274 0.0
C2518 C 0.4709 0.24931 0.03853 0.0
C2519 C 0.49218 0.25029 0.01911 0.0
H2520 H 0.3572 0.3004 0.66339 0.0
H2521 H 0.34759 0.2241 0.6415 0.0
H2522 H 0.31692 0.29855 0.69249 0.0
H2523 H 0.30684 0.22235 0.67059 0.0
H2524 H 0.25177 0.22459 0.75091 0.0
H2525 H 0.2927 0.22506 0.72197 0.0
H2526 H 0.26848 0.29402 0.6852 0.0
H2527 H 0.22807 0.29372 0.71406 0.0
C2528 C 0.3464 0.28323 0.66466 0.0
C2529 C 0.35557 0.26241 0.65005 0.0
C2530 C 0.32324 0.28221 0.68129 0.0
C2531 C 0.30867 0.26031 0.68384 0.0
C2532 C 0.31779 0.23942 0.66925 0.0
C2533 C 0.34096 0.24049 0.6524 0.0
C2534 C 0.25531 0.23989 0.73676 0.0
C2535 C 0.23671 0.25916 0.7349 0.0
C2536 C 0.27861 0.24006 0.72003 0.0
C2537 C 0.28383 0.2596 0.70133 0.0
C2538 C 0.26524 0.27885 0.69963 0.0
C2539 C 0.24198 0.27861 0.71614 0.0
H2540 H 0.50934 0.52521 0.75961 0.0
H2541 H 0.50868 0.44758 0.7422 0.0
H2542 H 0.46605 0.5294 0.73524 0.0
H2543 H 0.46597 0.4518 0.71787 0.0
H2544 H 0.37843 0.46164 0.70063 0.0
H2545 H 0.41909 0.46109 0.729 0.0
H2546 H 0.44757 0.52553 0.68528 0.0
H2547 H 0.40632 0.52634 0.65682 0.0
C2548 C 0.49988 0.50905 0.75083 0.0
C2549 C 0.51242 0.48605 0.75288 0.0
C2550 C 0.47524 0.51148 0.7367 0.0
C2551 C 0.46258 0.49093 0.72468 0.0
C2552 C 0.47499 0.46795 0.72721 0.0
C2553 C 0.49958 0.46555 0.74107 0.0
C2554 C 0.39323 0.47582 0.69705 0.0
C2555 C 0.38925 0.49388 0.67618 0.0
C2556 C 0.41661 0.47544 0.71332 0.0
C2557 C 0.43669 0.49308 0.70917 0.0
C2558 C 0.43238 0.51174 0.68904 0.0
C2559 C 0.40886 0.51212 0.67265 0.0
loop_
_geom_bond_atom_site_label_1
_geom_bond_atom_site_label_2
_geom_bond_distance
_geom_bond_site_symmetry_2
_ccdc_geom_bond_type
Zn0 O6 1.969 . S
Zn0 O7 1.965 1_565 S
Zn0 O11 2.024 1_565 S
Zn0 O16 1.969 . S
Zn1 O8 1.969 . S
Zn1 O14 1.969 . S
Zn1 O15 1.965 1_545 S
Zn1 O17 2.024 1_545 S
C2 O3 1.229 . S
C2 O11 1.058 1_565 S
O3 C2 1.229 . S
C4 O5 1.229 1_554 S
C4 O17 1.058 1_545 S
O5 C4 1.229 1_556 S
O6 Zn0 1.969 . S
O6 C9 1.267 1_565 S
O7 Zn0 1.965 1_545 S
O7 C18 1.260 . S
O8 Zn1 1.969 . S
O8 C18 1.258 . S
C9 O6 1.267 1_545 S
C9 O10 1.228 . S
O10 C9 1.228 . S
O11 Zn0 2.024 1_545 S
O11 C2 1.058 1_545 S
C12 O13 1.202 1_545 S
C12 O14 1.288 1_556 S
O13 C12 1.202 1_565 S
O14 Zn1 1.969 . S
O14 C12 1.288 1_554 S
O15 Zn1 1.965 1_565 S
O15 C19 1.260 . S
O16 Zn0 1.969 . S
O16 C19 1.258 . S
O17 Zn1 2.024 1_565 S
O17 C4 1.058 1_565 S
C18 O7 1.260 . S
C18 O8 1.258 . S
C19 O15 1.260 . S
C19 O16 1.258 . S
Zn20 O26 1.969 . S
Zn20 O27 1.965 . S
Zn20 O31 2.024 . S
Zn20 O36 1.969 . S
Zn21 O28 1.969 . S
Zn21 O34 1.969 . S
Zn21 O35 1.965 . S
Zn21 O37 2.024 . S
C22 O23 1.229 . S
C22 O31 1.058 . S
O23 C22 1.229 . S
C24 O25 1.229 1_554 S
C24 O37 1.058 . S
O25 C24 1.229 1_556 S
O26 Zn20 1.969 . S
O26 C29 1.267 . S
O27 Zn20 1.965 . S
O27 C38 1.260 . S
O28 Zn21 1.969 . S
O28 C38 1.258 . S
C29 O26 1.267 . S
C29 O30 1.228 . S
O30 C29 1.228 . S
O31 Zn20 2.024 . S
O31 C22 1.058 . S
C32 O33 1.228 . S
C32 O34 1.267 1_556 S
O33 C32 1.228 . S
O34 Zn21 1.969 . S
O34 C32 1.267 1_554 S
O35 Zn21 1.965 . S
O35 C39 1.260 . S
O36 Zn20 1.969 . S
O36 C39 1.258 . S
O37 Zn21 2.024 . S
O37 C24 1.058 . S
C38 O27 1.260 . S
C38 O28 1.258 . S
C39 O35 1.260 . S
C39 O36 1.258 . S
Zn40 O46 1.969 . S
Zn40 O47 1.965 . S
Zn40 O51 2.024 . S
Zn40 O56 1.969 . S
Zn41 O48 1.969 . S
Zn41 O54 1.969 . S
Zn41 O55 1.965 . S
Zn41 O57 2.024 . S
C42 O43 1.229 . S
C42 O51 1.058 . S
O43 C42 1.229 . S
C44 O45 1.229 . S
C44 O57 1.058 . S
O45 C44 1.229 . S
O46 Zn40 1.969 . S
O46 C49 1.267 . S
O47 Zn40 1.965 . S
O47 C58 1.260 . S
O48 Zn41 1.969 . S
O48 C58 1.258 . S
C49 O46 1.267 . S
C49 O50 1.228 . S
O50 C49 1.228 . S
O51 Zn40 2.024 . S
O51 C42 1.058 . S
C52 O53 1.228 . S
C52 O54 1.267 . S
O53 C52 1.228 . S
O54 Zn41 1.969 . S
O54 C52 1.267 . S
O55 Zn41 1.965 . S
O55 C59 1.260 . S
O56 Zn40 1.969 . S
O56 C59 1.258 . S
O57 Zn41 2.024 . S
O57 C44 1.058 . S
C58 O47 1.260 . S
C58 O48 1.258 . S
C59 O55 1.260 . S
C59 O56 1.258 . S
Zn60 O66 1.969 . S
Zn60 O67 1.965 1_565 S
Zn60 O71 2.024 1_565 S
Zn60 O76 1.969 . S
Zn61 O68 1.969 . S
Zn61 O74 1.969 . S
Zn61 O75 1.965 1_545 S
Zn61 O77 2.024 1_545 S
C62 O63 1.229 . S
C62 O71 1.058 1_565 S
O63 C62 1.229 . S
C64 O65 1.229 . S
C64 O77 1.058 1_545 S
O65 C64 1.229 . S
O66 Zn60 1.969 . S
O66 C69 1.267 1_565 S
O67 Zn60 1.965 1_545 S
O67 C78 1.260 . S
O68 Zn61 1.969 . S
O68 C78 1.258 . S
C69 O66 1.267 1_545 S
C69 O70 1.228 . S
O70 C69 1.228 . S
O71 Zn60 2.024 1_545 S
O71 C62 1.058 1_545 S
C72 O73 1.201 1_545 S
C72 O74 1.289 . S
O73 C72 1.201 1_565 S
O74 Zn61 1.969 . S
O74 C72 1.289 . S
O75 Zn61 1.965 1_565 S
O75 C79 1.260 . S
O76 Zn60 1.969 . S
O76 C79 1.258 . S
O77 Zn61 2.024 1_565 S
O77 C64 1.058 1_565 S
C78 O67 1.260 . S
C78 O68 1.258 . S
C79 O75 1.260 . S
C79 O76 1.258 . S
Zn80 O86 1.969 . S
Zn80 O87 1.965 1_565 S
Zn80 O91 2.024 1_565 S
Zn80 O96 1.969 . S
Zn81 O88 1.969 . S
Zn81 O94 1.969 . S
Zn81 O95 1.965 1_545 S
Zn81 O97 2.024 1_545 S
C82 O83 1.229 1_556 S
C82 O91 1.058 1_565 S
O83 C82 1.229 1_554 S
C84 O85 1.229 . S
C84 O97 1.058 1_545 S
O85 C84 1.229 . S
O86 Zn80 1.969 . S
O86 C89 1.288 1_556 S
O87 Zn80 1.965 1_545 S
O87 C98 1.260 . S
O88 Zn81 1.969 . S
O88 C98 1.258 . S
C89 O86 1.288 1_554 S
C89 O90 1.202 1_565 S
O90 C89 1.202 1_545 S
O91 Zn80 2.024 1_545 S
O91 C82 1.058 1_545 S
C92 O93 1.228 . S
C92 O94 1.267 1_565 S
O93 C92 1.228 . S
O94 Zn81 1.969 . S
O94 C92 1.267 1_545 S
O95 Zn81 1.965 1_565 S
O95 C99 1.260 . S
O96 Zn80 1.969 . S
O96 C99 1.258 . S
O97 Zn81 2.024 1_565 S
O97 C84 1.058 1_565 S
C98 O87 1.260 . S
C98 O88 1.258 . S
C99 O95 1.260 . S
C99 O96 1.258 . S
Zn100 O106 1.969 . S
Zn100 O107 1.965 . S
Zn100 O111 2.024 . S
Zn100 O116 1.969 . S
Zn101 O108 1.969 . S
Zn101 O114 1.969 . S
Zn101 O115 1.965 . S
Zn101 O117 2.024 . S
C102 O103 1.229 1_556 S
C102 O111 1.058 . S
O103 C102 1.229 1_554 S
C104 O105 1.229 . S
C104 O117 1.058 . S
O105 C104 1.229 . S
O106 Zn100 1.969 . S
O106 C109 1.267 1_556 S
O107 Zn100 1.965 . S
O107 C118 1.260 . S
O108 Zn101 1.969 . S
O108 C118 1.258 . S
C109 O106 1.267 1_554 S
C109 O110 1.228 . S
O110 C109 1.228 . S
O111 Zn100 2.024 . S
O111 C102 1.058 . S
C112 O113 1.228 . S
C112 O114 1.267 . S
O113 C112 1.228 . S
O114 Zn101 1.969 . S
O114 C112 1.267 . S
O115 Zn101 1.965 . S
O115 C119 1.260 . S
O116 Zn100 1.969 . S
O116 C119 1.258 . S
O117 Zn101 2.024 . S
O117 C104 1.058 . S
C118 O107 1.260 . S
C118 O108 1.258 . S
C119 O115 1.260 . S
C119 O116 1.258 . S
Zn120 O126 1.969 . S
Zn120 O127 1.965 . S
Zn120 O131 2.024 . S
Zn120 O136 1.969 . S
Zn121 O128 1.969 . S
Zn121 O134 1.969 . S
Zn121 O135 1.965 . S
Zn121 O137 2.024 . S
C122 O123 1.229 . S
C122 O131 1.058 . S
O123 C122 1.229 . S
C124 O125 1.229 . S
C124 O137 1.058 . S
O125 C124 1.229 . S
O126 Zn120 1.969 . S
O126 C129 1.267 . S
O127 Zn120 1.965 . S
O127 C138 1.260 . S
O128 Zn121 1.969 . S
O128 C138 1.258 . S
C129 O126 1.267 . S
C129 O130 1.228 . S
O130 C129 1.228 . S
O131 Zn120 2.024 . S
O131 C122 1.058 . S
C132 O133 1.228 . S
C132 O134 1.267 . S
O133 C132 1.228 . S
O134 Zn121 1.969 . S
O134 C132 1.267 . S
O135 Zn121 1.965 . S
O135 C139 1.260 . S
O136 Zn120 1.969 . S
O136 C139 1.258 . S
O137 Zn121 2.024 . S
O137 C124 1.058 . S
C138 O127 1.260 . S
C138 O128 1.258 . S
C139 O135 1.260 . S
C139 O136 1.258 . S
Zn140 O146 1.969 . S
Zn140 O147 1.965 1_565 S
Zn140 O151 2.024 1_565 S
Zn140 O156 1.969 . S
Zn141 O148 1.969 . S
Zn141 O154 1.969 . S
Zn141 O155 1.965 1_545 S
Zn141 O157 2.024 1_545 S
C142 O143 1.229 . S
C142 O151 1.058 1_565 S
O143 C142 1.229 . S
C144 O145 1.229 . S
C144 O157 1.058 1_545 S
O145 C144 1.229 . S
O146 Zn140 1.969 . S
O146 C149 1.289 . S
O147 Zn140 1.965 1_545 S
O147 C158 1.260 . S
O148 Zn141 1.969 . S
O148 C158 1.258 . S
C149 O146 1.289 . S
C149 O150 1.201 1_565 S
O150 C149 1.201 1_545 S
O151 Zn140 2.024 1_545 S
O151 C142 1.058 1_545 S
C152 O153 1.228 . S
C152 O154 1.267 1_565 S
O153 C152 1.228 . S
O154 Zn141 1.969 . S
O154 C152 1.267 1_545 S
O155 Zn141 1.965 1_565 S
O155 C159 1.260 . S
O156 Zn140 1.969 . S
O156 C159 1.258 . S
O157 Zn141 2.024 1_565 S
O157 C144 1.058 1_565 S
C158 O147 1.260 . S
C158 O148 1.258 . S
C159 O155 1.260 . S
C159 O156 1.258 . S
Zn160 O166 1.969 . S
Zn160 O167 1.965 . S
Zn160 O171 2.024 . S
Zn160 O176 1.969 . S
Zn161 O168 1.969 . S
Zn161 O174 1.969 . S
Zn161 O175 1.965 . S
Zn161 O177 2.024 . S
C162 O163 1.229 . S
C162 O171 1.058 . S
O163 C162 1.229 . S
C164 O165 1.229 . S
C164 O177 1.058 . S
O165 C164 1.229 . S
O166 Zn160 1.969 . S
O166 C169 1.267 . S
O167 Zn160 1.965 . S
O167 C178 1.260 . S
O168 Zn161 1.969 . S
O168 C178 1.258 . S
C169 O166 1.267 . S
C169 O170 1.228 . S
O170 C169 1.228 . S
O171 Zn160 2.024 . S
O171 C162 1.058 . S
C172 O173 1.228 . S
C172 O174 1.267 . S
O173 C172 1.228 . S
O174 Zn161 1.969 . S
O174 C172 1.267 . S
O175 Zn161 1.965 . S
O175 C179 1.260 . S
O176 Zn160 1.969 . S
O176 C179 1.258 . S
O177 Zn161 2.024 . S
O177 C164 1.058 . S
C178 O167 1.260 . S
C178 O168 1.258 . S
C179 O175 1.260 . S
C179 O176 1.258 . S
Zn180 O186 1.969 . S
Zn180 O187 1.965 . S
Zn180 O191 2.024 . S
Zn180 O196 1.969 . S
Zn181 O188 1.969 . S
Zn181 O194 1.969 . S
Zn181 O195 1.965 . S
Zn181 O197 2.024 . S
C182 O183 1.229 . S
C182 O191 1.058 . S
O183 C182 1.229 . S
C184 O185 1.229 . S
C184 O197 1.058 . S
O185 C184 1.229 . S
O186 Zn180 1.969 . S
O186 C189 1.267 . S
O187 Zn180 1.965 . S
O187 C198 1.260 . S
O188 Zn181 1.969 . S
O188 C198 1.258 . S
C189 O186 1.267 . S
C189 O190 1.228 . S
O190 C189 1.228 . S
O191 Zn180 2.024 . S
O191 C182 1.058 . S
C192 O193 1.228 . S
C192 O194 1.267 . S
O193 C192 1.228 . S
O194 Zn181 1.969 . S
O194 C192 1.267 . S
O195 Zn181 1.965 . S
O195 C199 1.260 . S
O196 Zn180 1.969 . S
O196 C199 1.258 . S
O197 Zn181 2.024 . S
O197 C184 1.058 . S
C198 O187 1.260 . S
C198 O188 1.258 . S
C199 O195 1.260 . S
C199 O196 1.258 . S
Zn200 O206 1.969 . S
Zn200 O207 1.965 . S
Zn200 O211 2.024 . S
Zn200 O216 1.969 . S
Zn201 O208 1.969 . S
Zn201 O214 1.969 . S
Zn201 O215 1.965 . S
Zn201 O217 2.024 . S
C202 O203 1.229 . S
C202 O211 1.058 . S
O203 C202 1.229 . S
C204 O205 1.229 . S
C204 O217 1.058 . S
O205 C204 1.229 . S
O206 Zn200 1.969 . S
O206 C209 1.267 . S
O207 Zn200 1.965 . S
O207 C218 1.260 . S
O208 Zn201 1.969 . S
O208 C218 1.258 . S
C209 O206 1.267 . S
C209 O210 1.228 . S
O210 C209 1.228 . S
O211 Zn200 2.024 . S
O211 C202 1.058 . S
C212 O213 1.228 . S
C212 O214 1.267 . S
O213 C212 1.228 . S
O214 Zn201 1.969 . S
O214 C212 1.267 . S
O215 Zn201 1.965 . S
O215 C219 1.260 . S
O216 Zn200 1.969 . S
O216 C219 1.258 . S
O217 Zn201 2.024 . S
O217 C204 1.058 . S
C218 O207 1.260 . S
C218 O208 1.258 . S
C219 O215 1.260 . S
C219 O216 1.258 . S
Zn220 O226 1.969 . S
Zn220 O227 1.965 . S
Zn220 O231 2.024 . S
Zn220 O236 1.969 . S
Zn221 O228 1.969 . S
Zn221 O234 1.969 . S
Zn221 O235 1.965 . S
Zn221 O237 2.024 . S
C222 O223 1.229 . S
C222 O231 1.058 . S
O223 C222 1.229 . S
C224 O225 1.229 . S
C224 O237 1.058 . S
O225 C224 1.229 . S
O226 Zn220 1.969 . S
O226 C229 1.267 . S
O227 Zn220 1.965 . S
O227 C238 1.260 . S
O228 Zn221 1.969 . S
O228 C238 1.258 . S
C229 O226 1.267 . S
C229 O230 1.228 . S
O230 C229 1.228 . S
O231 Zn220 2.024 . S
O231 C222 1.058 . S
C232 O233 1.228 . S
C232 O234 1.267 . S
O233 C232 1.228 . S
O234 Zn221 1.969 . S
O234 C232 1.267 . S
O235 Zn221 1.965 . S
O235 C239 1.260 . S
O236 Zn220 1.969 . S
O236 C239 1.258 . S
O237 Zn221 2.024 . S
O237 C224 1.058 . S
C238 O227 1.260 . S
C238 O228 1.258 . S
C239 O235 1.260 . S
C239 O236 1.258 . S
Zn240 O246 1.969 . S
Zn240 O247 1.965 . S
Zn240 O251 2.024 . S
Zn240 O256 1.969 . S
Zn241 O248 1.969 . S
Zn241 O254 1.969 . S
Zn241 O255 1.965 . S
Zn241 O257 2.024 . S
C242 O243 1.229 . S
C242 O251 1.058 . S
O243 C242 1.229 . S
C244 O245 1.229 . S
C244 O257 1.058 . S
O245 C244 1.229 . S
O246 Zn240 1.969 . S
O246 C249 1.267 . S
O247 Zn240 1.965 . S
O247 C258 1.260 . S
O248 Zn241 1.969 . S
O248 C258 1.258 . S
C249 O246 1.267 . S
C249 O250 1.228 . S
O250 C249 1.228 . S
O251 Zn240 2.024 . S
O251 C242 1.058 . S
C252 O253 1.228 . S
C252 O254 1.267 . S
O253 C252 1.228 . S
O254 Zn241 1.969 . S
O254 C252 1.267 . S
O255 Zn241 1.965 . S
O255 C259 1.260 . S
O256 Zn240 1.969 . S
O256 C259 1.258 . S
O257 Zn241 2.024 . S
O257 C244 1.058 . S
C258 O247 1.260 . S
C258 O248 1.258 . S
C259 O255 1.260 . S
C259 O256 1.258 . S
Zn260 O266 1.969 . S
Zn260 O267 1.965 . S
Zn260 O271 2.024 . S
Zn260 O276 1.969 . S
Zn261 O268 1.969 . S
Zn261 O274 1.969 . S
Zn261 O275 1.965 . S
Zn261 O277 2.024 . S
C262 O263 1.229 . S
C262 O271 1.058 . S
O263 C262 1.229 . S
C264 O265 1.229 . S
C264 O277 1.058 . S
O265 C264 1.229 . S
O266 Zn260 1.969 . S
O266 C269 1.267 . S
O267 Zn260 1.965 . S
O267 C278 1.260 . S
O268 Zn261 1.969 . S
O268 C278 1.258 . S
C269 O266 1.267 . S
C269 O270 1.228 . S
O270 C269 1.228 . S
O271 Zn260 2.024 . S
O271 C262 1.058 . S
C272 O273 1.228 . S
C272 O274 1.267 . S
O273 C272 1.228 . S
O274 Zn261 1.969 . S
O274 C272 1.267 . S
O275 Zn261 1.965 . S
O275 C279 1.260 . S
O276 Zn260 1.969 . S
O276 C279 1.258 . S
O277 Zn261 2.024 . S
O277 C264 1.058 . S
C278 O267 1.260 . S
C278 O268 1.258 . S
C279 O275 1.260 . S
C279 O276 1.258 . S
Zn280 O286 1.969 . S
Zn280 O287 1.965 . S
Zn280 O291 2.024 . S
Zn280 O296 1.969 . S
Zn281 O288 1.969 . S
Zn281 O294 1.969 . S
Zn281 O295 1.965 . S
Zn281 O297 2.024 . S
C282 O283 1.229 . S
C282 O291 1.058 . S
O283 C282 1.229 . S
C284 O285 1.229 . S
C284 O297 1.058 . S
O285 C284 1.229 . S
O286 Zn280 1.969 . S
O286 C289 1.267 . S
O287 Zn280 1.965 . S
O287 C298 1.260 . S
O288 Zn281 1.969 . S
O288 C298 1.258 . S
C289 O286 1.267 . S
C289 O290 1.228 . S
O290 C289 1.228 . S
O291 Zn280 2.024 . S
O291 C282 1.058 . S
C292 O293 1.228 . S
C292 O294 1.267 . S
O293 C292 1.228 . S
O294 Zn281 1.969 . S
O294 C292 1.267 . S
O295 Zn281 1.965 . S
O295 C299 1.260 . S
O296 Zn280 1.969 . S
O296 C299 1.258 . S
O297 Zn281 2.024 . S
O297 C284 1.058 . S
C298 O287 1.260 . S
C298 O288 1.258 . S
C299 O295 1.260 . S
C299 O296 1.258 . S
Zn300 O306 1.969 . S
Zn300 O307 1.965 . S
Zn300 O311 2.024 . S
Zn300 O316 1.969 . S
Zn301 O308 1.969 . S
Zn301 O314 1.969 . S
Zn301 O315 1.965 . S
Zn301 O317 2.024 . S
C302 O303 1.229 . S
C302 O311 1.058 . S
O303 C302 1.229 . S
C304 O305 1.229 . S
C304 O317 1.058 . S
O305 C304 1.229 . S
O306 Zn300 1.969 . S
O306 C309 1.267 . S
O307 Zn300 1.965 . S
O307 C318 1.260 . S
O308 Zn301 1.969 . S
O308 C318 1.258 . S
C309 O306 1.267 . S
C309 O310 1.228 . S
O310 C309 1.228 . S
O311 Zn300 2.024 . S
O311 C302 1.058 . S
C312 O313 1.228 . S
C312 O314 1.267 . S
O313 C312 1.228 . S
O314 Zn301 1.969 . S
O314 C312 1.267 . S
O315 Zn301 1.965 . S
O315 C319 1.260 . S
O316 Zn300 1.969 . S
O316 C319 1.258 . S
O317 Zn301 2.024 . S
O317 C304 1.058 . S
C318 O307 1.260 . S
C318 O308 1.258 . S
C319 O315 1.260 . S
C319 O316 1.258 . S
Zn320 O326 1.969 . S
Zn320 O327 1.965 1_565 S
Zn320 O331 2.024 1_565 S
Zn320 O336 1.969 . S
Zn321 O328 1.969 . S
Zn321 O334 1.969 . S
Zn321 O335 1.965 1_545 S
Zn321 O337 2.024 1_545 S
C322 O323 1.229 . S
C322 O331 1.058 1_565 S
O323 C322 1.229 . S
C324 O325 1.229 . S
C324 O337 1.058 1_545 S
O325 C324 1.229 . S
O326 Zn320 1.969 . S
O326 C329 1.267 1_565 S
O327 Zn320 1.965 1_545 S
O327 C338 1.260 . S
O328 Zn321 1.969 . S
O328 C338 1.258 . S
C329 O326 1.267 1_545 S
C329 O330 1.228 . S
O330 C329 1.228 . S
O331 Zn320 2.024 1_545 S
O331 C322 1.058 1_545 S
C332 O333 1.201 1_545 S
C332 O334 1.289 . S
O333 C332 1.201 1_565 S
O334 Zn321 1.969 . S
O334 C332 1.289 . S
O335 Zn321 1.965 1_565 S
O335 C339 1.260 . S
O336 Zn320 1.969 . S
O336 C339 1.258 . S
O337 Zn321 2.024 1_565 S
O337 C324 1.058 1_565 S
C338 O327 1.260 . S
C338 O328 1.258 . S
C339 O335 1.260 . S
C339 O336 1.258 . S
Zn340 O346 1.969 . S
Zn340 O347 1.965 . S
Zn340 O351 2.024 . S
Zn340 O356 1.969 . S
Zn341 O348 1.969 . S
Zn341 O354 1.969 . S
Zn341 O355 1.965 . S
Zn341 O357 2.024 . S
C342 O343 1.229 . S
C342 O351 1.058 . S
O343 C342 1.229 . S
C344 O345 1.229 . S
C344 O357 1.058 . S
O345 C344 1.229 . S
O346 Zn340 1.969 . S
O346 C349 1.267 . S
O347 Zn340 1.965 . S
O347 C358 1.260 . S
O348 Zn341 1.969 . S
O348 C358 1.258 . S
C349 O346 1.267 . S
C349 O350 1.228 . S
O350 C349 1.228 . S
O351 Zn340 2.024 . S
O351 C342 1.058 . S
C352 O353 1.228 . S
C352 O354 1.267 . S
O353 C352 1.228 . S
O354 Zn341 1.969 . S
O354 C352 1.267 . S
O355 Zn341 1.965 . S
O355 C359 1.260 . S
O356 Zn340 1.969 . S
O356 C359 1.258 . S
O357 Zn341 2.024 . S
O357 C344 1.058 . S
C358 O347 1.260 . S
C358 O348 1.258 . S
C359 O355 1.260 . S
C359 O356 1.258 . S
Zn360 O366 1.969 . S
Zn360 O367 1.965 . S
Zn360 O371 2.024 . S
Zn360 O376 1.969 . S
Zn361 O368 1.969 . S
Zn361 O374 1.969 . S
Zn361 O375 1.965 . S
Zn361 O377 2.024 . S
C362 O363 1.229 . S
C362 O371 1.058 . S
O363 C362 1.229 . S
C364 O365 1.229 . S
C364 O377 1.058 . S
O365 C364 1.229 . S
O366 Zn360 1.969 . S
O366 C369 1.267 . S
O367 Zn360 1.965 . S
O367 C378 1.260 . S
O368 Zn361 1.969 . S
O368 C378 1.258 . S
C369 O366 1.267 . S
C369 O370 1.228 . S
O370 C369 1.228 . S
O371 Zn360 2.024 . S
O371 C362 1.058 . S
C372 O373 1.228 . S
C372 O374 1.267 . S
O373 C372 1.228 . S
O374 Zn361 1.969 . S
O374 C372 1.267 . S
O375 Zn361 1.965 . S
O375 C379 1.260 . S
O376 Zn360 1.969 . S
O376 C379 1.258 . S
O377 Zn361 2.024 . S
O377 C364 1.058 . S
C378 O367 1.260 . S
C378 O368 1.258 . S
C379 O375 1.260 . S
C379 O376 1.258 . S
Zn380 O386 1.969 . S
Zn380 O387 1.965 1_565 S
Zn380 O391 2.024 1_565 S
Zn380 O396 1.969 . S
Zn381 O388 1.969 . S
Zn381 O394 1.969 . S
Zn381 O395 1.965 1_545 S
Zn381 O397 2.024 1_545 S
C382 O383 1.229 . S
C382 O391 1.058 1_565 S
O383 C382 1.229 . S
C384 O385 1.229 . S
C384 O397 1.058 1_545 S
O385 C384 1.229 . S
O386 Zn380 1.969 . S
O386 C389 1.267 1_565 S
O387 Zn380 1.965 1_545 S
O387 C398 1.260 . S
O388 Zn381 1.969 . S
O388 C398 1.258 . S
C389 O386 1.267 1_545 S
C389 O390 1.228 . S
O390 C389 1.228 . S
O391 Zn380 2.024 1_545 S
O391 C382 1.058 1_545 S
C392 O393 1.202 1_545 S
C392 O394 1.288 . S
O393 C392 1.202 1_565 S
O394 Zn381 1.969 . S
O394 C392 1.288 . S
O395 Zn381 1.965 1_565 S
O395 C399 1.260 . S
O396 Zn380 1.969 . S
O396 C399 1.258 . S
O397 Zn381 2.024 1_565 S
O397 C384 1.058 1_565 S
C398 O387 1.260 . S
C398 O388 1.258 . S
C399 O395 1.260 . S
C399 O396 1.258 . S
Zn400 O406 1.969 . S
Zn400 O407 1.965 1_565 S
Zn400 O411 2.024 1_565 S
Zn400 O416 1.969 . S
Zn401 O408 1.969 . S
Zn401 O414 1.969 . S
Zn401 O415 1.965 1_545 S
Zn401 O417 2.024 1_545 S
C402 O403 1.229 . S
C402 O411 1.058 1_565 S
O403 C402 1.229 . S
C404 O405 1.229 . S
C404 O417 1.058 1_545 S
O405 C404 1.229 . S
O406 Zn400 1.969 . S
O406 C409 1.289 . S
O407 Zn400 1.965 1_545 S
O407 C418 1.260 . S
O408 Zn401 1.969 . S
O408 C418 1.258 . S
C409 O406 1.289 . S
C409 O410 1.201 1_565 S
O410 C409 1.201 1_545 S
O411 Zn400 2.024 1_545 S
O411 C402 1.058 1_545 S
C412 O413 1.228 . S
C412 O414 1.267 1_565 S
O413 C412 1.228 . S
O414 Zn401 1.969 . S
O414 C412 1.267 1_545 S
O415 Zn401 1.965 1_565 S
O415 C419 1.260 . S
O416 Zn400 1.969 . S
O416 C419 1.258 . S
O417 Zn401 2.024 1_565 S
O417 C404 1.058 1_565 S
C418 O407 1.260 . S
C418 O408 1.258 . S
C419 O415 1.260 . S
C419 O416 1.258 . S
Zn420 O426 1.969 . S
Zn420 O427 1.965 . S
Zn420 O431 2.024 . S
Zn420 O436 1.969 . S
Zn421 O428 1.969 . S
Zn421 O434 1.969 . S
Zn421 O435 1.965 . S
Zn421 O437 2.024 . S
C422 O423 1.229 . S
C422 O431 1.058 . S
O423 C422 1.229 . S
C424 O425 1.229 . S
C424 O437 1.058 . S
O425 C424 1.229 . S
O426 Zn420 1.969 . S
O426 C429 1.267 . S
O427 Zn420 1.965 . S
O427 C438 1.260 . S
O428 Zn421 1.969 . S
O428 C438 1.258 . S
C429 O426 1.267 . S
C429 O430 1.228 . S
O430 C429 1.228 . S
O431 Zn420 2.024 . S
O431 C422 1.058 . S
C432 O433 1.228 . S
C432 O434 1.267 . S
O433 C432 1.228 . S
O434 Zn421 1.969 . S
O434 C432 1.267 . S
O435 Zn421 1.965 . S
O435 C439 1.260 . S
O436 Zn420 1.969 . S
O436 C439 1.258 . S
O437 Zn421 2.024 . S
O437 C424 1.058 . S
C438 O427 1.260 . S
C438 O428 1.258 . S
C439 O435 1.260 . S
C439 O436 1.258 . S
Zn440 O446 1.969 . S
Zn440 O447 1.965 . S
Zn440 O451 2.024 . S
Zn440 O456 1.969 . S
Zn441 O448 1.969 . S
Zn441 O454 1.969 . S
Zn441 O455 1.965 . S
Zn441 O457 2.024 . S
C442 O443 1.229 . S
C442 O451 1.058 . S
O443 C442 1.229 . S
C444 O445 1.229 . S
C444 O457 1.058 . S
O445 C444 1.229 . S
O446 Zn440 1.969 . S
O446 C449 1.267 . S
O447 Zn440 1.965 . S
O447 C458 1.260 . S
O448 Zn441 1.969 . S
O448 C458 1.258 . S
C449 O446 1.267 . S
C449 O450 1.228 . S
O450 C449 1.228 . S
O451 Zn440 2.024 . S
O451 C442 1.058 . S
C452 O453 1.228 . S
C452 O454 1.267 . S
O453 C452 1.228 . S
O454 Zn441 1.969 . S
O454 C452 1.267 . S
O455 Zn441 1.965 . S
O455 C459 1.260 . S
O456 Zn440 1.969 . S
O456 C459 1.258 . S
O457 Zn441 2.024 . S
O457 C444 1.058 . S
C458 O447 1.260 . S
C458 O448 1.258 . S
C459 O455 1.260 . S
C459 O456 1.258 . S
Zn460 O466 1.969 . S
Zn460 O467 1.965 1_565 S
Zn460 O471 2.024 1_565 S
Zn460 O476 1.969 . S
Zn461 O468 1.969 . S
Zn461 O474 1.969 . S
Zn461 O475 1.965 1_545 S
Zn461 O477 2.024 1_545 S
C462 O463 1.229 . S
C462 O471 1.058 1_565 S
O463 C462 1.229 . S
C464 O465 1.229 . S
C464 O477 1.058 1_545 S
O465 C464 1.229 . S
O466 Zn460 1.969 . S
O466 C469 1.288 . S
O467 Zn460 1.965 1_545 S
O467 C478 1.260 . S
O468 Zn461 1.969 . S
O468 C478 1.258 . S
C469 O466 1.288 . S
C469 O470 1.202 1_565 S
O470 C469 1.202 1_545 S
O471 Zn460 2.024 1_545 S
O471 C462 1.058 1_545 S
C472 O473 1.228 . S
C472 O474 1.267 1_565 S
O473 C472 1.228 . S
O474 Zn461 1.969 . S
O474 C472 1.267 1_545 S
O475 Zn461 1.965 1_565 S
O475 C479 1.260 . S
O476 Zn460 1.969 . S
O476 C479 1.258 . S
O477 Zn461 2.024 1_565 S
O477 C464 1.058 1_565 S
C478 O467 1.260 . S
C478 O468 1.258 . S
C479 O475 1.260 . S
C479 O476 1.258 . S
Zn480 O486 1.969 . S
Zn480 O487 1.965 . S
Zn480 O491 2.024 . S
Zn480 O496 1.969 . S
Zn481 O488 1.969 . S
Zn481 O494 1.969 . S
Zn481 O495 1.965 . S
Zn481 O497 2.024 . S
C482 O483 1.229 . S
C482 O491 1.058 . S
O483 C482 1.229 . S
C484 O485 1.229 1_554 S
C484 O497 1.058 . S
O485 C484 1.229 1_556 S
O486 Zn480 1.969 . S
O486 C489 1.267 . S
O487 Zn480 1.965 . S
O487 C498 1.260 . S
O488 Zn481 1.969 . S
O488 C498 1.258 . S
C489 O486 1.267 . S
C489 O490 1.228 . S
O490 C489 1.228 . S
O491 Zn480 2.024 . S
O491 C482 1.058 . S
C492 O493 1.228 . S
C492 O494 1.267 1_556 S
O493 C492 1.228 . S
O494 Zn481 1.969 . S
O494 C492 1.267 1_554 S
O495 Zn481 1.965 . S
O495 C499 1.260 . S
O496 Zn480 1.969 . S
O496 C499 1.258 . S
O497 Zn481 2.024 . S
O497 C484 1.058 . S
C498 O487 1.260 . S
C498 O488 1.258 . S
C499 O495 1.260 . S
C499 O496 1.258 . S
Zn500 O506 1.969 . S
Zn500 O507 1.965 . S
Zn500 O511 2.024 . S
Zn500 O516 1.969 . S
Zn501 O508 1.969 . S
Zn501 O514 1.969 . S
Zn501 O515 1.965 . S
Zn501 O517 2.024 . S
C502 O503 1.229 . S
C502 O511 1.058 . S
O503 C502 1.229 . S
C504 O505 1.229 1_554 S
C504 O517 1.058 . S
O505 C504 1.229 1_556 S
O506 Zn500 1.969 . S
O506 C509 1.267 . S
O507 Zn500 1.965 . S
O507 C518 1.260 . S
O508 Zn501 1.969 . S
O508 C518 1.258 . S
C509 O506 1.267 . S
C509 O510 1.228 . S
O510 C509 1.228 . S
O511 Zn500 2.024 . S
O511 C502 1.058 . S
C512 O513 1.228 . S
C512 O514 1.267 1_556 S
O513 C512 1.228 . S
O514 Zn501 1.969 . S
O514 C512 1.267 1_554 S
O515 Zn501 1.965 . S
O515 C519 1.260 . S
O516 Zn500 1.969 . S
O516 C519 1.258 . S
O517 Zn501 2.024 . S
O517 C504 1.058 . S
C518 O507 1.260 . S
C518 O508 1.258 . S
C519 O515 1.260 . S
C519 O516 1.258 . S
Zn520 O526 1.969 . S
Zn520 O527 1.965 . S
Zn520 O531 2.024 . S
Zn520 O536 1.969 . S
Zn521 O528 1.969 . S
Zn521 O534 1.969 . S
Zn521 O535 1.965 . S
Zn521 O537 2.024 . S
C522 O523 1.229 . S
C522 O531 1.058 . S
O523 C522 1.229 . S
C524 O525 1.229 . S
C524 O537 1.058 . S
O525 C524 1.229 . S
O526 Zn520 1.969 . S
O526 C529 1.267 . S
O527 Zn520 1.965 . S
O527 C538 1.260 . S
O528 Zn521 1.969 . S
O528 C538 1.258 . S
C529 O526 1.267 . S
C529 O530 1.228 . S
O530 C529 1.228 . S
O531 Zn520 2.024 . S
O531 C522 1.058 . S
C532 O533 1.228 . S
C532 O534 1.267 . S
O533 C532 1.228 . S
O534 Zn521 1.969 . S
O534 C532 1.267 . S
O535 Zn521 1.965 . S
O535 C539 1.260 . S
O536 Zn520 1.969 . S
O536 C539 1.258 . S
O537 Zn521 2.024 . S
O537 C524 1.058 . S
C538 O527 1.260 . S
C538 O528 1.258 . S
C539 O535 1.260 . S
C539 O536 1.258 . S
Zn540 O546 1.969 . S
Zn540 O547 1.965 . S
Zn540 O551 2.024 . S
Zn540 O556 1.969 . S
Zn541 O548 1.969 . S
Zn541 O554 1.969 . S
Zn541 O555 1.965 . S
Zn541 O557 2.024 . S
C542 O543 1.229 . S
C542 O551 1.058 . S
O543 C542 1.229 . S
C544 O545 1.229 . S
C544 O557 1.058 . S
O545 C544 1.229 . S
O546 Zn540 1.969 . S
O546 C549 1.267 . S
O547 Zn540 1.965 . S
O547 C558 1.260 . S
O548 Zn541 1.969 . S
O548 C558 1.258 . S
C549 O546 1.267 . S
C549 O550 1.228 . S
O550 C549 1.228 . S
O551 Zn540 2.024 . S
O551 C542 1.058 . S
C552 O553 1.228 . S
C552 O554 1.267 . S
O553 C552 1.228 . S
O554 Zn541 1.969 . S
O554 C552 1.267 . S
O555 Zn541 1.965 . S
O555 C559 1.260 . S
O556 Zn540 1.969 . S
O556 C559 1.258 . S
O557 Zn541 2.024 . S
O557 C544 1.058 . S
C558 O547 1.260 . S
C558 O548 1.258 . S
C559 O555 1.260 . S
C559 O556 1.258 . S
Zn560 O566 1.969 . S
Zn560 O567 1.965 . S
Zn560 O571 2.024 . S
Zn560 O576 1.969 . S
Zn561 O568 1.969 . S
Zn561 O574 1.969 . S
Zn561 O575 1.965 . S
Zn561 O577 2.024 . S
C562 O563 1.229 1_556 S
C562 O571 1.058 . S
O563 C562 1.229 1_554 S
C564 O565 1.229 . S
C564 O577 1.058 . S
O565 C564 1.229 . S
O566 Zn560 1.969 . S
O566 C569 1.267 1_556 S
O567 Zn560 1.965 . S
O567 C578 1.260 . S
O568 Zn561 1.969 . S
O568 C578 1.258 . S
C569 O566 1.267 1_554 S
C569 O570 1.228 . S
O570 C569 1.228 . S
O571 Zn560 2.024 . S
O571 C562 1.058 . S
C572 O573 1.228 . S
C572 O574 1.267 . S
O573 C572 1.228 . S
O574 Zn561 1.969 . S
O574 C572 1.267 . S
O575 Zn561 1.965 . S
O575 C579 1.260 . S
O576 Zn560 1.969 . S
O576 C579 1.258 . S
O577 Zn561 2.024 . S
O577 C564 1.058 . S
C578 O567 1.260 . S
C578 O568 1.258 . S
C579 O575 1.260 . S
C579 O576 1.258 . S
Zn580 O586 1.969 . S
Zn580 O587 1.965 . S
Zn580 O591 2.024 . S
Zn580 O596 1.969 . S
Zn581 O588 1.969 . S
Zn581 O594 1.969 . S
Zn581 O595 1.965 . S
Zn581 O597 2.024 . S
C582 O583 1.229 1_556 S
C582 O591 1.058 . S
O583 C582 1.229 1_554 S
C584 O585 1.229 . S
C584 O597 1.058 . S
O585 C584 1.229 . S
O586 Zn580 1.969 . S
O586 C589 1.267 1_556 S
O587 Zn580 1.965 . S
O587 C598 1.260 . S
O588 Zn581 1.969 . S
O588 C598 1.258 . S
C589 O586 1.267 1_554 S
C589 O590 1.228 . S
O590 C589 1.228 . S
O591 Zn580 2.024 . S
O591 C582 1.058 . S
C592 O593 1.228 . S
C592 O594 1.267 . S
O593 C592 1.228 . S
O594 Zn581 1.969 . S
O594 C592 1.267 . S
O595 Zn581 1.965 . S
O595 C599 1.260 . S
O596 Zn580 1.969 . S
O596 C599 1.258 . S
O597 Zn581 2.024 . S
O597 C584 1.058 . S
C598 O587 1.260 . S
C598 O588 1.258 . S
C599 O595 1.260 . S
C599 O596 1.258 . S
Zn600 O606 1.969 . S
Zn600 O607 1.965 . S
Zn600 O611 2.024 . S
Zn600 O616 1.969 . S
Zn601 O608 1.969 . S
Zn601 O614 1.969 . S
Zn601 O615 1.965 . S
Zn601 O617 2.024 . S
C602 O603 1.229 . S
C602 O611 1.058 . S
O603 C602 1.229 . S
C604 O605 1.229 . S
C604 O617 1.058 . S
O605 C604 1.229 . S
O606 Zn600 1.969 . S
O606 C609 1.267 . S
O607 Zn600 1.965 . S
O607 C618 1.260 . S
O608 Zn601 1.969 . S
O608 C618 1.258 . S
C609 O606 1.267 . S
C609 O610 1.228 . S
O610 C609 1.228 . S
O611 Zn600 2.024 . S
O611 C602 1.058 . S
C612 O613 1.228 . S
C612 O614 1.267 . S
O613 C612 1.228 . S
O614 Zn601 1.969 . S
O614 C612 1.267 . S
O615 Zn601 1.965 . S
O615 C619 1.260 . S
O616 Zn600 1.969 . S
O616 C619 1.258 . S
O617 Zn601 2.024 . S
O617 C604 1.058 . S
C618 O607 1.260 . S
C618 O608 1.258 . S
C619 O615 1.260 . S
C619 O616 1.258 . S
Zn620 O626 1.969 . S
Zn620 O627 1.965 . S
Zn620 O631 2.024 . S
Zn620 O636 1.969 . S
Zn621 O628 1.969 . S
Zn621 O634 1.969 . S
Zn621 O635 1.965 . S
Zn621 O637 2.024 . S
C622 O623 1.229 . S
C622 O631 1.058 . S
O623 C622 1.229 . S
C624 O625 1.229 . S
C624 O637 1.058 . S
O625 C624 1.229 . S
O626 Zn620 1.969 . S
O626 C629 1.267 . S
O627 Zn620 1.965 . S
O627 C638 1.260 . S
O628 Zn621 1.969 . S
O628 C638 1.258 . S
C629 O626 1.267 . S
C629 O630 1.228 . S
O630 C629 1.228 . S
O631 Zn620 2.024 . S
O631 C622 1.058 . S
C632 O633 1.228 . S
C632 O634 1.267 . S
O633 C632 1.228 . S
O634 Zn621 1.969 . S
O634 C632 1.267 . S
O635 Zn621 1.965 . S
O635 C639 1.260 . S
O636 Zn620 1.969 . S
O636 C639 1.258 . S
O637 Zn621 2.024 . S
O637 C624 1.058 . S
C638 O627 1.260 . S
C638 O628 1.258 . S
C639 O635 1.260 . S
C639 O636 1.258 . S
H640 C648 0.950 . S
H641 C653 0.950 . S
H642 C650 0.950 . S
H643 C652 0.950 . S
H644 C654 0.950 . S
H645 C656 0.950 . S
H646 C658 0.950 . S
H647 C659 0.950 . S
C648 H640 0.950 . S
C648 C649 1.386 . S
C648 C650 1.391 . S
C649 C648 1.386 . S
C649 C653 1.393 . S
C650 H642 0.950 . S
C650 C648 1.391 . S
C650 C651 1.400 . S
C651 C650 1.400 . S
C651 C652 1.398 . S
C651 C657 1.491 . S
C652 H643 0.950 . S
C652 C651 1.398 . S
C652 C653 1.391 . S
C653 H641 0.950 . S
C653 C649 1.393 . S
C653 C652 1.391 . S
C654 H644 0.950 . S
C654 C655 1.386 . S
C654 C656 1.391 . S
C655 C654 1.386 . S
C655 C659 1.393 . S
C656 H645 0.950 . S
C656 C654 1.391 . S
C656 C657 1.400 . S
C657 C651 1.491 . S
C657 C656 1.400 . S
C657 C658 1.398 . S
C658 H646 0.950 . S
C658 C657 1.398 . S
C658 C659 1.391 . S
C659 H647 0.950 . S
C659 C655 1.393 . S
C659 C658 1.391 . S
H660 C668 0.950 . S
H661 C673 0.950 . S
H662 C670 0.950 . S
H663 C672 0.950 . S
H664 C674 0.950 . S
H665 C676 0.950 . S
H666 C678 0.950 . S
H667 C679 0.950 . S
C668 H660 0.950 . S
C668 C669 1.386 . S
C668 C670 1.391 . S
C669 C668 1.386 . S
C669 C673 1.393 . S
C670 H662 0.950 . S
C670 C668 1.391 . S
C670 C671 1.400 . S
C671 C670 1.400 . S
C671 C672 1.398 . S
C671 C677 1.491 . S
C672 H663 0.950 . S
C672 C671 1.398 . S
C672 C673 1.391 . S
C673 H661 0.950 . S
C673 C669 1.393 . S
C673 C672 1.391 . S
C674 H664 0.950 . S
C674 C675 1.386 . S
C674 C676 1.391 . S
C675 C674 1.386 . S
C675 C679 1.393 . S
C676 H665 0.950 . S
C676 C674 1.391 . S
C676 C677 1.400 . S
C677 C671 1.491 . S
C677 C676 1.400 . S
C677 C678 1.398 . S
C678 H666 0.950 . S
C678 C677 1.398 . S
C678 C679 1.391 . S
C679 H667 0.950 . S
C679 C675 1.393 . S
C679 C678 1.391 . S
H680 C688 0.950 . S
H681 C693 0.950 . S
H682 C690 0.950 . S
H683 C692 0.950 . S
H684 C694 0.950 . S
H685 C696 0.950 . S
H686 C698 0.950 . S
H687 C699 0.950 . S
C688 H680 0.950 . S
C688 C689 1.386 . S
C688 C690 1.391 . S
C689 C688 1.386 . S
C689 C693 1.393 . S
C690 H682 0.950 . S
C690 C688 1.391 . S
C690 C691 1.400 . S
C691 C690 1.400 . S
C691 C692 1.398 . S
C691 C697 1.491 . S
C692 H683 0.950 . S
C692 C691 1.398 . S
C692 C693 1.391 . S
C693 H681 0.950 . S
C693 C689 1.393 . S
C693 C692 1.391 . S
C694 H684 0.950 . S
C694 C695 1.386 . S
C694 C696 1.391 . S
C695 C694 1.386 . S
C695 C699 1.393 . S
C696 H685 0.950 . S
C696 C694 1.391 . S
C696 C697 1.400 . S
C697 C691 1.491 . S
C697 C696 1.400 . S
C697 C698 1.398 . S
C698 H686 0.950 . S
C698 C697 1.398 . S
C698 C699 1.391 . S
C699 H687 0.950 . S
C699 C695 1.393 . S
C699 C698 1.391 . S
H700 C708 0.950 . S
H701 C713 0.950 . S
H702 C710 0.950 . S
H703 C712 0.950 . S
H704 C714 0.950 . S
H705 C716 0.950 . S
H706 C718 0.950 . S
H707 C719 0.950 . S
C708 H700 0.950 . S
C708 C709 1.386 . S
C708 C710 1.391 . S
C709 C708 1.386 . S
C709 C713 1.393 . S
C710 H702 0.950 . S
C710 C708 1.391 . S
C710 C711 1.400 . S
C711 C710 1.400 . S
C711 C712 1.398 . S
C711 C717 1.491 . S
C712 H703 0.950 . S
C712 C711 1.398 . S
C712 C713 1.391 . S
C713 H701 0.950 . S
C713 C709 1.393 . S
C713 C712 1.391 . S
C714 H704 0.950 . S
C714 C715 1.386 . S
C714 C716 1.391 . S
C715 C714 1.386 . S
C715 C719 1.393 . S
C716 H705 0.950 . S
C716 C714 1.391 . S
C716 C717 1.400 . S
C717 C711 1.491 . S
C717 C716 1.400 . S
C717 C718 1.398 . S
C718 H706 0.950 . S
C718 C717 1.398 . S
C718 C719 1.391 . S
C719 H707 0.950 . S
C719 C715 1.393 . S
C719 C718 1.391 . S
H720 C728 0.950 . S
H721 C733 0.950 . S
H722 C730 0.950 . S
H723 C732 0.950 . S
H724 C734 0.950 . S
H725 C736 0.950 . S
H726 C738 0.950 . S
H727 C739 0.950 . S
C728 H720 0.950 . S
C728 C729 1.386 . S
C728 C730 1.391 . S
C729 C728 1.386 . S
C729 C733 1.393 . S
C730 H722 0.950 . S
C730 C728 1.391 . S
C730 C731 1.400 . S
C731 C730 1.400 . S
C731 C732 1.398 . S
C731 C737 1.491 . S
C732 H723 0.950 . S
C732 C731 1.398 . S
C732 C733 1.391 . S
C733 H721 0.950 . S
C733 C729 1.393 . S
C733 C732 1.391 . S
C734 H724 0.950 . S
C734 C735 1.386 . S
C734 C736 1.391 . S
C735 C734 1.386 . S
C735 C739 1.393 . S
C736 H725 0.950 . S
C736 C734 1.391 . S
C736 C737 1.400 . S
C737 C731 1.491 . S
C737 C736 1.400 . S
C737 C738 1.398 . S
C738 H726 0.950 . S
C738 C737 1.398 . S
C738 C739 1.391 . S
C739 H727 0.950 . S
C739 C735 1.393 . S
C739 C738 1.391 . S
H740 C748 0.950 . S
H741 C753 0.950 . S
H742 C750 0.950 . S
H743 C752 0.950 . S
H744 C754 0.950 . S
H745 C756 0.950 . S
H746 C758 0.950 . S
H747 C759 0.950 . S
C748 H740 0.950 . S
C748 C749 1.386 . S
C748 C750 1.391 . S
C749 C748 1.386 . S
C749 C753 1.393 . S
C750 H742 0.950 . S
C750 C748 1.391 . S
C750 C751 1.400 . S
C751 C750 1.400 . S
C751 C752 1.398 . S
C751 C757 1.491 . S
C752 H743 0.950 . S
C752 C751 1.398 . S
C752 C753 1.391 . S
C753 H741 0.950 . S
C753 C749 1.393 . S
C753 C752 1.391 . S
C754 H744 0.950 . S
C754 C755 1.386 . S
C754 C756 1.391 . S
C755 C754 1.386 . S
C755 C759 1.393 . S
C756 H745 0.950 . S
C756 C754 1.391 . S
C756 C757 1.400 . S
C757 C751 1.491 . S
C757 C756 1.400 . S
C757 C758 1.398 . S
C758 H746 0.950 . S
C758 C757 1.398 . S
C758 C759 1.391 . S
C759 H747 0.950 . S
C759 C755 1.393 . S
C759 C758 1.391 . S
H760 C768 0.950 . S
H761 C773 0.950 . S
H762 C770 0.950 . S
H763 C772 0.950 . S
H764 C774 0.950 . S
H765 C776 0.950 . S
H766 C778 0.950 . S
H767 C779 0.950 . S
C768 H760 0.950 . S
C768 C769 1.386 . S
C768 C770 1.391 . S
C769 C768 1.386 . S
C769 C773 1.393 . S
C770 H762 0.950 . S
C770 C768 1.391 . S
C770 C771 1.400 . S
C771 C770 1.400 . S
C771 C772 1.398 . S
C771 C777 1.491 . S
C772 H763 0.950 . S
C772 C771 1.398 . S
C772 C773 1.391 . S
C773 H761 0.950 . S
C773 C769 1.393 . S
C773 C772 1.391 . S
C774 H764 0.950 . S
C774 C775 1.386 . S
C774 C776 1.391 . S
C775 C774 1.386 . S
C775 C779 1.393 . S
C776 H765 0.950 . S
C776 C774 1.391 . S
C776 C777 1.400 . S
C777 C771 1.491 . S
C777 C776 1.400 . S
C777 C778 1.398 . S
C778 H766 0.950 . S
C778 C777 1.398 . S
C778 C779 1.391 . S
C779 H767 0.950 . S
C779 C775 1.393 . S
C779 C778 1.391 . S
H780 C788 0.950 . S
H781 C793 0.950 . S
H782 C790 0.950 . S
H783 C792 0.950 . S
H784 C794 0.950 . S
H785 C796 0.950 . S
H786 C798 0.950 . S
H787 C799 0.950 . S
C788 H780 0.950 . S
C788 C789 1.386 . S
C788 C790 1.391 . S
C789 C788 1.386 . S
C789 C793 1.393 . S
C790 H782 0.950 . S
C790 C788 1.391 . S
C790 C791 1.400 . S
C791 C790 1.400 . S
C791 C792 1.398 . S
C791 C797 1.491 . S
C792 H783 0.950 . S
C792 C791 1.398 . S
C792 C793 1.391 . S
C793 H781 0.950 . S
C793 C789 1.393 . S
C793 C792 1.391 . S
C794 H784 0.950 . S
C794 C795 1.386 . S
C794 C796 1.391 . S
C795 C794 1.386 . S
C795 C799 1.393 . S
C796 H785 0.950 . S
C796 C794 1.391 . S
C796 C797 1.400 . S
C797 C791 1.491 . S
C797 C796 1.400 . S
C797 C798 1.398 . S
C798 H786 0.950 . S
C798 C797 1.398 . S
C798 C799 1.391 . S
C799 H787 0.950 . S
C799 C795 1.393 . S
C799 C798 1.391 . S
H800 C808 0.950 . S
H801 C813 0.950 . S
H802 C810 0.950 . S
H803 C812 0.950 . S
H804 C814 0.950 . S
H805 C816 0.950 . S
H806 C818 0.950 . S
H807 C819 0.950 . S
C808 H800 0.950 . S
C808 C809 1.386 . S
C808 C810 1.391 . S
C809 C808 1.386 . S
C809 C813 1.393 . S
C810 H802 0.950 . S
C810 C808 1.391 . S
C810 C811 1.400 . S
C811 C810 1.400 . S
C811 C812 1.398 . S
C811 C817 1.491 . S
C812 H803 0.950 . S
C812 C811 1.398 . S
C812 C813 1.391 . S
C813 H801 0.950 . S
C813 C809 1.393 . S
C813 C812 1.391 . S
C814 H804 0.950 . S
C814 C815 1.386 . S
C814 C816 1.391 . S
C815 C814 1.386 . S
C815 C819 1.393 . S
C816 H805 0.950 . S
C816 C814 1.391 . S
C816 C817 1.400 . S
C817 C811 1.491 . S
C817 C816 1.400 . S
C817 C818 1.398 . S
C818 H806 0.950 . S
C818 C817 1.398 . S
C818 C819 1.391 . S
C819 H807 0.950 . S
C819 C815 1.393 . S
C819 C818 1.391 . S
H820 C828 0.950 . S
H821 C833 0.950 . S
H822 C830 0.950 . S
H823 C832 0.950 . S
H824 C834 0.950 . S
H825 C836 0.950 . S
H826 C838 0.950 . S
H827 C839 0.950 . S
C828 H820 0.950 . S
C828 C829 1.386 . S
C828 C830 1.391 . S
C829 C828 1.386 . S
C829 C833 1.393 . S
C830 H822 0.950 . S
C830 C828 1.391 . S
C830 C831 1.400 . S
C831 C830 1.400 . S
C831 C832 1.398 . S
C831 C837 1.491 . S
C832 H823 0.950 . S
C832 C831 1.398 . S
C832 C833 1.391 . S
C833 H821 0.950 . S
C833 C829 1.393 . S
C833 C832 1.391 . S
C834 H824 0.950 . S
C834 C835 1.386 . S
C834 C836 1.391 . S
C835 C834 1.386 . S
C835 C839 1.393 . S
C836 H825 0.950 . S
C836 C834 1.391 . S
C836 C837 1.400 . S
C837 C831 1.491 . S
C837 C836 1.400 . S
C837 C838 1.398 . S
C838 H826 0.950 . S
C838 C837 1.398 . S
C838 C839 1.391 . S
C839 H827 0.950 . S
C839 C835 1.393 . S
C839 C838 1.391 . S
H840 C848 0.950 . S
H841 C853 0.950 . S
H842 C850 0.950 . S
H843 C852 0.950 . S
H844 C854 0.950 . S
H845 C856 0.950 . S
H846 C858 0.950 . S
H847 C859 0.950 . S
C848 H840 0.950 . S
C848 C849 1.386 . S
C848 C850 1.391 . S
C849 C848 1.386 . S
C849 C853 1.393 . S
C850 H842 0.950 . S
C850 C848 1.391 . S
C850 C851 1.400 . S
C851 C850 1.400 . S
C851 C852 1.398 . S
C851 C857 1.491 . S
C852 H843 0.950 . S
C852 C851 1.398 . S
C852 C853 1.391 . S
C853 H841 0.950 . S
C853 C849 1.393 . S
C853 C852 1.391 . S
C854 H844 0.950 . S
C854 C855 1.386 . S
C854 C856 1.391 . S
C855 C854 1.386 . S
C855 C859 1.393 . S
C856 H845 0.950 . S
C856 C854 1.391 . S
C856 C857 1.400 . S
C857 C851 1.491 . S
C857 C856 1.400 . S
C857 C858 1.398 . S
C858 H846 0.950 . S
C858 C857 1.398 . S
C858 C859 1.391 . S
C859 H847 0.950 . S
C859 C855 1.393 . S
C859 C858 1.391 . S
H860 C868 0.950 . S
H861 C873 0.950 . S
H862 C870 0.950 . S
H863 C872 0.950 . S
H864 C874 0.950 . S
H865 C876 0.950 . S
H866 C878 0.950 . S
H867 C879 0.950 . S
C868 H860 0.950 . S
C868 C869 1.386 . S
C868 C870 1.391 . S
C869 C868 1.386 . S
C869 C873 1.393 . S
C870 H862 0.950 . S
C870 C868 1.391 . S
C870 C871 1.400 . S
C871 C870 1.400 . S
C871 C872 1.398 . S
C871 C877 1.491 . S
C872 H863 0.950 . S
C872 C871 1.398 . S
C872 C873 1.391 . S
C873 H861 0.950 . S
C873 C869 1.393 . S
C873 C872 1.391 . S
C874 H864 0.950 . S
C874 C875 1.386 . S
C874 C876 1.391 . S
C875 C874 1.386 . S
C875 C879 1.393 . S
C876 H865 0.950 . S
C876 C874 1.391 . S
C876 C877 1.400 . S
C877 C871 1.491 . S
C877 C876 1.400 . S
C877 C878 1.398 . S
C878 H866 0.950 . S
C878 C877 1.398 . S
C878 C879 1.391 . S
C879 H867 0.950 . S
C879 C875 1.393 . S
C879 C878 1.391 . S
H880 C888 0.950 . S
H881 C893 0.950 . S
H882 C890 0.950 . S
H883 C892 0.950 . S
H884 C894 0.950 . S
H885 C896 0.950 . S
H886 C898 0.950 . S
H887 C899 0.950 . S
C888 H880 0.950 . S
C888 C889 1.386 . S
C888 C890 1.391 . S
C889 C888 1.386 . S
C889 C893 1.393 . S
C890 H882 0.950 . S
C890 C888 1.391 . S
C890 C891 1.400 . S
C891 C890 1.400 . S
C891 C892 1.398 . S
C891 C897 1.491 . S
C892 H883 0.950 . S
C892 C891 1.398 . S
C892 C893 1.391 . S
C893 H881 0.950 . S
C893 C889 1.393 . S
C893 C892 1.391 . S
C894 H884 0.950 . S
C894 C895 1.386 . S
C894 C896 1.391 . S
C895 C894 1.386 . S
C895 C899 1.393 . S
C896 H885 0.950 . S
C896 C894 1.391 . S
C896 C897 1.400 . S
C897 C891 1.491 . S
C897 C896 1.400 . S
C897 C898 1.398 . S
C898 H886 0.950 . S
C898 C897 1.398 . S
C898 C899 1.391 . S
C899 H887 0.950 . S
C899 C895 1.393 . S
C899 C898 1.391 . S
H900 C908 0.950 . S
H901 C913 0.950 . S
H902 C910 0.950 . S
H903 C912 0.950 . S
H904 C914 0.950 . S
H905 C916 0.950 . S
H906 C918 0.950 . S
H907 C919 0.950 . S
C908 H900 0.950 . S
C908 C909 1.386 . S
C908 C910 1.391 . S
C909 C908 1.386 . S
C909 C913 1.393 . S
C910 H902 0.950 . S
C910 C908 1.391 . S
C910 C911 1.400 . S
C911 C910 1.400 . S
C911 C912 1.398 . S
C911 C917 1.491 . S
C912 H903 0.950 . S
C912 C911 1.398 . S
C912 C913 1.391 . S
C913 H901 0.950 . S
C913 C909 1.393 . S
C913 C912 1.391 . S
C914 H904 0.950 . S
C914 C915 1.386 . S
C914 C916 1.391 . S
C915 C914 1.386 . S
C915 C919 1.393 . S
C916 H905 0.950 . S
C916 C914 1.391 . S
C916 C917 1.400 . S
C917 C911 1.491 . S
C917 C916 1.400 . S
C917 C918 1.398 . S
C918 H906 0.950 . S
C918 C917 1.398 . S
C918 C919 1.391 . S
C919 H907 0.950 . S
C919 C915 1.393 . S
C919 C918 1.391 . S
H920 C928 0.950 . S
H921 C933 0.950 . S
H922 C930 0.950 . S
H923 C932 0.950 . S
H924 C934 0.950 . S
H925 C936 0.950 . S
H926 C938 0.950 . S
H927 C939 0.950 . S
C928 H920 0.950 . S
C928 C929 1.386 . S
C928 C930 1.391 . S
C929 C928 1.386 . S
C929 C933 1.393 . S
C930 H922 0.950 . S
C930 C928 1.391 . S
C930 C931 1.400 . S
C931 C930 1.400 . S
C931 C932 1.398 . S
C931 C937 1.491 . S
C932 H923 0.950 . S
C932 C931 1.398 . S
C932 C933 1.391 . S
C933 H921 0.950 . S
C933 C929 1.393 . S
C933 C932 1.391 . S
C934 H924 0.950 . S
C934 C935 1.386 . S
C934 C936 1.391 . S
C935 C934 1.386 . S
C935 C939 1.393 . S
C936 H925 0.950 . S
C936 C934 1.391 . S
C936 C937 1.400 . S
C937 C931 1.491 . S
C937 C936 1.400 . S
C937 C938 1.398 . S
C938 H926 0.950 . S
C938 C937 1.398 . S
C938 C939 1.391 . S
C939 H927 0.950 . S
C939 C935 1.393 . S
C939 C938 1.391 . S
H940 C948 0.950 . S
H941 C953 0.950 . S
H942 C950 0.950 . S
H943 C952 0.950 . S
H944 C954 0.950 . S
H945 C956 0.950 . S
H946 C958 0.950 . S
H947 C959 0.950 . S
C948 H940 0.950 . S
C948 C949 1.386 . S
C948 C950 1.391 . S
C949 C948 1.386 . S
C949 C953 1.393 . S
C950 H942 0.950 . S
C950 C948 1.391 . S
C950 C951 1.400 . S
C951 C950 1.400 . S
C951 C952 1.398 . S
C951 C957 1.491 . S
C952 H943 0.950 . S
C952 C951 1.398 . S
C952 C953 1.391 . S
C953 H941 0.950 . S
C953 C949 1.393 . S
C953 C952 1.391 . S
C954 H944 0.950 . S
C954 C955 1.386 . S
C954 C956 1.391 . S
C955 C954 1.386 . S
C955 C959 1.393 . S
C956 H945 0.950 . S
C956 C954 1.391 . S
C956 C957 1.400 . S
C957 C951 1.491 . S
C957 C956 1.400 . S
C957 C958 1.398 . S
C958 H946 0.950 . S
C958 C957 1.398 . S
C958 C959 1.391 . S
C959 H947 0.950 . S
C959 C955 1.393 . S
C959 C958 1.391 . S
H960 C968 0.950 . S
H961 C973 0.950 . S
H962 C970 0.950 . S
H963 C972 0.950 . S
H964 C974 0.950 . S
H965 C976 0.950 . S
H966 C978 0.950 . S
H967 C979 0.950 . S
C968 H960 0.950 . S
C968 C969 1.385 1_545 S
C968 C970 1.391 . S
C969 C968 1.385 1_565 S
C969 C973 1.393 . S
C970 H962 0.950 . S
C970 C968 1.391 . S
C970 C971 1.402 . S
C971 C970 1.402 . S
C971 C972 1.396 1_545 S
C971 C977 1.490 1_545 S
C972 H963 0.950 . S
C972 C971 1.396 1_565 S
C972 C973 1.391 . S
C973 H961 0.950 . S
C973 C969 1.393 . S
C973 C972 1.391 . S
C974 H964 0.950 . S
C974 C975 1.385 1_565 S
C974 C976 1.391 . S
C975 C974 1.385 1_545 S
C975 C979 1.393 . S
C976 H965 0.950 . S
C976 C974 1.391 . S
C976 C977 1.403 . S
C977 C971 1.490 1_565 S
C977 C976 1.403 . S
C977 C978 1.396 1_565 S
C978 H966 0.950 . S
C978 C977 1.396 1_545 S
C978 C979 1.391 . S
C979 H967 0.950 . S
C979 C975 1.393 . S
C979 C978 1.391 . S
H980 C988 0.950 . S
H981 C993 0.950 . S
H982 C990 0.950 . S
H983 C992 0.950 1_655 S
H984 C994 0.950 . S
H985 C996 0.950 . S
H986 C998 0.950 1_455 S
H987 C999 0.950 . S
C988 H980 0.950 . S
C988 C989 1.386 . S
C988 C990 1.391 . S
C989 C988 1.386 . S
C989 C993 1.393 . S
C990 H982 0.950 . S
C990 C988 1.391 . S
C990 C991 1.400 . S
C991 C990 1.400 . S
C991 C992 1.398 . S
C991 C997 1.491 1_455 S
C992 H983 0.950 1_455 S
C992 C991 1.398 . S
C992 C993 1.391 . S
C993 H981 0.950 . S
C993 C989 1.393 . S
C993 C992 1.391 . S
C994 H984 0.950 . S
C994 C995 1.386 . S
C994 C996 1.391 . S
C995 C994 1.386 . S
C995 C999 1.393 . S
C996 H985 0.950 . S
C996 C994 1.391 . S
C996 C997 1.400 . S
C997 C991 1.491 1_655 S
C997 C996 1.400 . S
C997 C998 1.398 . S
C998 H986 0.950 1_655 S
C998 C997 1.398 . S
C998 C999 1.391 . S
C999 H987 0.950 . S
C999 C995 1.393 . S
C999 C998 1.391 . S
H1000 C1008 0.950 . S
H1001 C1013 0.950 . S
H1002 C1010 0.950 1_554 S
H1003 C1012 0.950 . S
H1004 C1014 0.950 . S
H1005 C1016 0.950 1_556 S
H1006 C1018 0.950 . S
H1007 C1019 0.950 . S
C1008 H1000 0.950 . S
C1008 C1009 1.386 . S
C1008 C1010 1.391 . S
C1009 C1008 1.386 . S
C1009 C1013 1.393 . S
C1010 H1002 0.950 1_556 S
C1010 C1008 1.391 . S
C1010 C1011 1.400 . S
C1011 C1010 1.400 . S
C1011 C1012 1.398 . S
C1011 C1017 1.491 1_556 S
C1012 H1003 0.950 . S
C1012 C1011 1.398 . S
C1012 C1013 1.391 . S
C1013 H1001 0.950 . S
C1013 C1009 1.393 . S
C1013 C1012 1.391 . S
C1014 H1004 0.950 . S
C1014 C1015 1.386 . S
C1014 C1016 1.391 . S
C1015 C1014 1.386 . S
C1015 C1019 1.393 . S
C1016 H1005 0.950 1_554 S
C1016 C1014 1.391 . S
C1016 C1017 1.400 . S
C1017 C1011 1.491 1_554 S
C1017 C1016 1.400 . S
C1017 C1018 1.398 . S
C1018 H1006 0.950 . S
C1018 C1017 1.398 . S
C1018 C1019 1.391 . S
C1019 H1007 0.950 . S
C1019 C1015 1.393 . S
C1019 C1018 1.391 . S
H1020 C1028 0.950 . S
H1021 C1033 0.950 . S
H1022 C1030 0.950 1_556 S
H1023 C1032 0.950 . S
H1024 C1034 0.950 . S
H1025 C1036 0.950 1_554 S
H1026 C1038 0.950 . S
H1027 C1039 0.950 . S
C1028 H1020 0.950 . S
C1028 C1029 1.385 1_565 S
C1028 C1030 1.391 . S
C1029 C1028 1.385 1_545 S
C1029 C1033 1.393 . S
C1030 H1022 0.950 1_554 S
C1030 C1028 1.391 . S
C1030 C1031 1.397 1_565 S
C1031 C1030 1.397 1_545 S
C1031 C1032 1.402 1_655 S
C1031 C1037 1.490 1_644 S
C1032 H1023 0.950 . S
C1032 C1031 1.402 1_455 S
C1032 C1033 1.391 1_455 S
C1033 H1021 0.950 . S
C1033 C1029 1.393 . S
C1033 C1032 1.391 1_655 S
C1034 H1024 0.950 . S
C1034 C1035 1.385 1_545 S
C1034 C1036 1.391 . S
C1035 C1034 1.385 1_565 S
C1035 C1039 1.393 . S
C1036 H1025 0.950 1_556 S
C1036 C1034 1.391 . S
C1036 C1037 1.397 1_545 S
C1037 C1031 1.490 1_466 S
C1037 C1036 1.397 1_565 S
C1037 C1038 1.402 1_455 S
C1038 H1026 0.950 . S
C1038 C1037 1.402 1_655 S
C1038 C1039 1.391 1_655 S
C1039 H1027 0.950 . S
C1039 C1035 1.393 . S
C1039 C1038 1.391 1_455 S
H1040 C1048 0.950 . S
H1041 C1053 0.950 . S
H1042 C1050 0.950 . S
H1043 C1052 0.950 . S
H1044 C1054 0.950 . S
H1045 C1056 0.950 . S
H1046 C1058 0.950 . S
H1047 C1059 0.950 . S
C1048 H1040 0.950 . S
C1048 C1049 1.386 . S
C1048 C1050 1.391 . S
C1049 C1048 1.386 . S
C1049 C1053 1.393 1_545 S
C1050 H1042 0.950 . S
C1050 C1048 1.391 . S
C1050 C1051 1.412 . S
C1051 C1050 1.412 . S
C1051 C1052 1.387 1_545 S
C1051 C1057 1.490 1_545 S
C1052 H1043 0.950 . S
C1052 C1051 1.387 1_565 S
C1052 C1053 1.391 . S
C1053 H1041 0.950 . S
C1053 C1049 1.393 1_565 S
C1053 C1052 1.391 . S
C1054 H1044 0.950 . S
C1054 C1055 1.386 . S
C1054 C1056 1.391 . S
C1055 C1054 1.386 . S
C1055 C1059 1.393 1_565 S
C1056 H1045 0.950 . S
C1056 C1054 1.391 . S
C1056 C1057 1.412 . S
C1057 C1051 1.490 1_565 S
C1057 C1056 1.412 . S
C1057 C1058 1.387 1_565 S
C1058 H1046 0.950 . S
C1058 C1057 1.387 1_545 S
C1058 C1059 1.391 . S
C1059 H1047 0.950 . S
C1059 C1055 1.393 1_545 S
C1059 C1058 1.391 . S
H1060 C1068 0.950 . S
H1061 C1073 0.950 . S
H1062 C1070 0.950 . S
H1063 C1072 0.950 . S
H1064 C1074 0.950 . S
H1065 C1076 0.950 . S
H1066 C1078 0.950 . S
H1067 C1079 0.950 . S
C1068 H1060 0.950 . S
C1068 C1069 1.386 . S
C1068 C1070 1.391 1_455 S
C1069 C1068 1.386 . S
C1069 C1073 1.393 . S
C1070 H1062 0.950 . S
C1070 C1068 1.391 1_655 S
C1070 C1071 1.400 1_655 S
C1071 C1070 1.400 1_455 S
C1071 C1072 1.398 . S
C1071 C1077 1.491 1_455 S
C1072 H1063 0.950 . S
C1072 C1071 1.398 . S
C1072 C1073 1.391 . S
C1073 H1061 0.950 . S
C1073 C1069 1.393 . S
C1073 C1072 1.391 . S
C1074 H1064 0.950 . S
C1074 C1075 1.386 . S
C1074 C1076 1.391 1_655 S
C1075 C1074 1.386 . S
C1075 C1079 1.393 . S
C1076 H1065 0.950 . S
C1076 C1074 1.391 1_455 S
C1076 C1077 1.400 1_455 S
C1077 C1071 1.491 1_655 S
C1077 C1076 1.400 1_655 S
C1077 C1078 1.398 . S
C1078 H1066 0.950 . S
C1078 C1077 1.398 . S
C1078 C1079 1.391 . S
C1079 H1067 0.950 . S
C1079 C1075 1.393 . S
C1079 C1078 1.391 . S
H1080 C1088 0.950 . S
H1081 C1093 0.950 . S
H1082 C1090 0.950 . S
H1083 C1092 0.950 1_554 S
H1084 C1094 0.950 . S
H1085 C1096 0.950 . S
H1086 C1098 0.950 1_556 S
H1087 C1099 0.950 . S
C1088 H1080 0.950 . S
C1088 C1089 1.386 . S
C1088 C1090 1.391 . S
C1089 C1088 1.386 . S
C1089 C1093 1.393 . S
C1090 H1082 0.950 . S
C1090 C1088 1.391 . S
C1090 C1091 1.400 . S
C1091 C1090 1.400 . S
C1091 C1092 1.398 . S
C1091 C1097 1.491 1_556 S
C1092 H1083 0.950 1_556 S
C1092 C1091 1.398 . S
C1092 C1093 1.391 . S
C1093 H1081 0.950 . S
C1093 C1089 1.393 . S
C1093 C1092 1.391 . S
C1094 H1084 0.950 . S
C1094 C1095 1.386 . S
C1094 C1096 1.391 . S
C1095 C1094 1.386 . S
C1095 C1099 1.393 . S
C1096 H1085 0.950 . S
C1096 C1094 1.391 . S
C1096 C1097 1.400 . S
C1097 C1091 1.491 1_554 S
C1097 C1096 1.400 . S
C1097 C1098 1.398 . S
C1098 H1086 0.950 1_554 S
C1098 C1097 1.398 . S
C1098 C1099 1.391 . S
C1099 H1087 0.950 . S
C1099 C1095 1.393 . S
C1099 C1098 1.391 . S
H1100 C1108 0.950 . S
H1101 C1113 0.950 . S
H1102 C1110 0.950 . S
H1103 C1112 0.950 . S
H1104 C1114 0.950 . S
H1105 C1116 0.950 . S
H1106 C1118 0.950 . S
H1107 C1119 0.950 . S
C1108 H1100 0.950 . S
C1108 C1109 1.386 . S
C1108 C1110 1.391 . S
C1109 C1108 1.386 . S
C1109 C1113 1.393 . S
C1110 H1102 0.950 . S
C1110 C1108 1.391 . S
C1110 C1111 1.400 . S
C1111 C1110 1.400 . S
C1111 C1112 1.398 . S
C1111 C1117 1.491 . S
C1112 H1103 0.950 . S
C1112 C1111 1.398 . S
C1112 C1113 1.391 . S
C1113 H1101 0.950 . S
C1113 C1109 1.393 . S
C1113 C1112 1.391 . S
C1114 H1104 0.950 . S
C1114 C1115 1.386 . S
C1114 C1116 1.391 . S
C1115 C1114 1.386 . S
C1115 C1119 1.393 . S
C1116 H1105 0.950 . S
C1116 C1114 1.391 . S
C1116 C1117 1.400 . S
C1117 C1111 1.491 . S
C1117 C1116 1.400 . S
C1117 C1118 1.398 . S
C1118 H1106 0.950 . S
C1118 C1117 1.398 . S
C1118 C1119 1.391 . S
C1119 H1107 0.950 . S
C1119 C1115 1.393 . S
C1119 C1118 1.391 . S
H1120 C1128 0.950 . S
H1121 C1133 0.950 . S
H1122 C1130 0.950 . S
H1123 C1132 0.950 . S
H1124 C1134 0.950 . S
H1125 C1136 0.950 . S
H1126 C1138 0.950 . S
H1127 C1139 0.950 . S
C1128 H1120 0.950 . S
C1128 C1129 1.386 . S
C1128 C1130 1.391 . S
C1129 C1128 1.386 . S
C1129 C1133 1.393 . S
C1130 H1122 0.950 . S
C1130 C1128 1.391 . S
C1130 C1131 1.400 . S
C1131 C1130 1.400 . S
C1131 C1132 1.398 . S
C1131 C1137 1.491 . S
C1132 H1123 0.950 . S
C1132 C1131 1.398 . S
C1132 C1133 1.391 . S
C1133 H1121 0.950 . S
C1133 C1129 1.393 . S
C1133 C1132 1.391 . S
C1134 H1124 0.950 . S
C1134 C1135 1.386 . S
C1134 C1136 1.391 . S
C1135 C1134 1.386 . S
C1135 C1139 1.393 . S
C1136 H1125 0.950 . S
C1136 C1134 1.391 . S
C1136 C1137 1.400 . S
C1137 C1131 1.491 . S
C1137 C1136 1.400 . S
C1137 C1138 1.398 . S
C1138 H1126 0.950 . S
C1138 C1137 1.398 . S
C1138 C1139 1.391 . S
C1139 H1127 0.950 . S
C1139 C1135 1.393 . S
C1139 C1138 1.391 . S
H1140 C1148 0.950 . S
H1141 C1153 0.950 . S
H1142 C1150 0.950 . S
H1143 C1152 0.950 1_655 S
H1144 C1154 0.950 . S
H1145 C1156 0.950 . S
H1146 C1158 0.950 1_455 S
H1147 C1159 0.950 . S
C1148 H1140 0.950 . S
C1148 C1149 1.386 . S
C1148 C1150 1.391 . S
C1149 C1148 1.386 . S
C1149 C1153 1.393 . S
C1150 H1142 0.950 . S
C1150 C1148 1.391 . S
C1150 C1151 1.400 . S
C1151 C1150 1.400 . S
C1151 C1152 1.398 . S
C1151 C1157 1.491 1_455 S
C1152 H1143 0.950 1_455 S
C1152 C1151 1.398 . S
C1152 C1153 1.391 . S
C1153 H1141 0.950 . S
C1153 C1149 1.393 . S
C1153 C1152 1.391 . S
C1154 H1144 0.950 . S
C1154 C1155 1.386 . S
C1154 C1156 1.391 . S
C1155 C1154 1.386 . S
C1155 C1159 1.393 . S
C1156 H1145 0.950 . S
C1156 C1154 1.391 . S
C1156 C1157 1.400 . S
C1157 C1151 1.491 1_655 S
C1157 C1156 1.400 . S
C1157 C1158 1.398 . S
C1158 H1146 0.950 1_655 S
C1158 C1157 1.398 . S
C1158 C1159 1.391 . S
C1159 H1147 0.950 . S
C1159 C1155 1.393 . S
C1159 C1158 1.391 . S
H1160 C1168 0.950 . S
H1161 C1173 0.950 . S
H1162 C1170 0.950 . S
H1163 C1172 0.950 . S
H1164 C1174 0.950 . S
H1165 C1176 0.950 . S
H1166 C1178 0.950 . S
H1167 C1179 0.950 . S
C1168 H1160 0.950 . S
C1168 C1169 1.386 . S
C1168 C1170 1.391 . S
C1169 C1168 1.386 . S
C1169 C1173 1.393 . S
C1170 H1162 0.950 . S
C1170 C1168 1.391 . S
C1170 C1171 1.400 . S
C1171 C1170 1.400 . S
C1171 C1172 1.398 . S
C1171 C1177 1.491 . S
C1172 H1163 0.950 . S
C1172 C1171 1.398 . S
C1172 C1173 1.391 . S
C1173 H1161 0.950 . S
C1173 C1169 1.393 . S
C1173 C1172 1.391 . S
C1174 H1164 0.950 . S
C1174 C1175 1.386 . S
C1174 C1176 1.391 . S
C1175 C1174 1.386 . S
C1175 C1179 1.393 . S
C1176 H1165 0.950 . S
C1176 C1174 1.391 . S
C1176 C1177 1.400 . S
C1177 C1171 1.491 . S
C1177 C1176 1.400 . S
C1177 C1178 1.398 . S
C1178 H1166 0.950 . S
C1178 C1177 1.398 . S
C1178 C1179 1.391 . S
C1179 H1167 0.950 . S
C1179 C1175 1.393 . S
C1179 C1178 1.391 . S
H1180 C1188 0.950 . S
H1181 C1193 0.950 . S
H1182 C1190 0.950 . S
H1183 C1192 0.950 . S
H1184 C1194 0.950 . S
H1185 C1196 0.950 . S
H1186 C1198 0.950 . S
H1187 C1199 0.950 . S
C1188 H1180 0.950 . S
C1188 C1189 1.386 . S
C1188 C1190 1.391 . S
C1189 C1188 1.386 . S
C1189 C1193 1.393 . S
C1190 H1182 0.950 . S
C1190 C1188 1.391 . S
C1190 C1191 1.400 . S
C1191 C1190 1.400 . S
C1191 C1192 1.398 . S
C1191 C1197 1.491 . S
C1192 H1183 0.950 . S
C1192 C1191 1.398 . S
C1192 C1193 1.391 . S
C1193 H1181 0.950 . S
C1193 C1189 1.393 . S
C1193 C1192 1.391 . S
C1194 H1184 0.950 . S
C1194 C1195 1.386 . S
C1194 C1196 1.391 . S
C1195 C1194 1.386 . S
C1195 C1199 1.393 . S
C1196 H1185 0.950 . S
C1196 C1194 1.391 . S
C1196 C1197 1.400 . S
C1197 C1191 1.491 . S
C1197 C1196 1.400 . S
C1197 C1198 1.398 . S
C1198 H1186 0.950 . S
C1198 C1197 1.398 . S
C1198 C1199 1.391 . S
C1199 H1187 0.950 . S
C1199 C1195 1.393 . S
C1199 C1198 1.391 . S
H1200 C1208 0.950 . S
H1201 C1213 0.950 . S
H1202 C1210 0.950 . S
H1203 C1212 0.950 . S
H1204 C1214 0.950 . S
H1205 C1216 0.950 . S
H1206 C1218 0.950 . S
H1207 C1219 0.950 . S
C1208 H1200 0.950 . S
C1208 C1209 1.386 . S
C1208 C1210 1.391 . S
C1209 C1208 1.386 . S
C1209 C1213 1.393 . S
C1210 H1202 0.950 . S
C1210 C1208 1.391 . S
C1210 C1211 1.400 . S
C1211 C1210 1.400 . S
C1211 C1212 1.398 . S
C1211 C1217 1.491 . S
C1212 H1203 0.950 . S
C1212 C1211 1.398 . S
C1212 C1213 1.391 . S
C1213 H1201 0.950 . S
C1213 C1209 1.393 . S
C1213 C1212 1.391 . S
C1214 H1204 0.950 . S
C1214 C1215 1.386 . S
C1214 C1216 1.391 . S
C1215 C1214 1.386 . S
C1215 C1219 1.393 . S
C1216 H1205 0.950 . S
C1216 C1214 1.391 . S
C1216 C1217 1.400 . S
C1217 C1211 1.491 . S
C1217 C1216 1.400 . S
C1217 C1218 1.398 . S
C1218 H1206 0.950 . S
C1218 C1217 1.398 . S
C1218 C1219 1.391 . S
C1219 H1207 0.950 . S
C1219 C1215 1.393 . S
C1219 C1218 1.391 . S
H1220 C1228 0.950 . S
H1221 C1233 0.950 . S
H1222 C1230 0.950 . S
H1223 C1232 0.950 . S
H1224 C1234 0.950 . S
H1225 C1236 0.950 . S
H1226 C1238 0.950 . S
H1227 C1239 0.950 . S
C1228 H1220 0.950 . S
C1228 C1229 1.386 . S
C1228 C1230 1.391 . S
C1229 C1228 1.386 . S
C1229 C1233 1.393 1_565 S
C1230 H1222 0.950 . S
C1230 C1228 1.391 . S
C1230 C1231 1.408 . S
C1231 C1230 1.408 . S
C1231 C1232 1.392 1_565 S
C1231 C1237 1.489 1_565 S
C1232 H1223 0.950 . S
C1232 C1231 1.392 1_545 S
C1232 C1233 1.391 . S
C1233 H1221 0.950 . S
C1233 C1229 1.393 1_545 S
C1233 C1232 1.391 . S
C1234 H1224 0.950 . S
C1234 C1235 1.386 . S
C1234 C1236 1.391 . S
C1235 C1234 1.386 . S
C1235 C1239 1.393 1_545 S
C1236 H1225 0.950 . S
C1236 C1234 1.391 . S
C1236 C1237 1.408 . S
C1237 C1231 1.489 1_545 S
C1237 C1236 1.408 . S
C1237 C1238 1.392 1_545 S
C1238 H1226 0.950 . S
C1238 C1237 1.392 1_565 S
C1238 C1239 1.391 . S
C1239 H1227 0.950 . S
C1239 C1235 1.393 1_565 S
C1239 C1238 1.391 . S
H1240 C1248 0.950 . S
H1241 C1253 0.950 . S
H1242 C1250 0.950 . S
H1243 C1252 0.950 . S
H1244 C1254 0.950 . S
H1245 C1256 0.950 . S
H1246 C1258 0.950 . S
H1247 C1259 0.950 . S
C1248 H1240 0.950 . S
C1248 C1249 1.386 . S
C1248 C1250 1.391 . S
C1249 C1248 1.386 . S
C1249 C1253 1.393 . S
C1250 H1242 0.950 . S
C1250 C1248 1.391 . S
C1250 C1251 1.400 . S
C1251 C1250 1.400 . S
C1251 C1252 1.398 . S
C1251 C1257 1.491 . S
C1252 H1243 0.950 . S
C1252 C1251 1.398 . S
C1252 C1253 1.391 . S
C1253 H1241 0.950 . S
C1253 C1249 1.393 . S
C1253 C1252 1.391 . S
C1254 H1244 0.950 . S
C1254 C1255 1.386 . S
C1254 C1256 1.391 . S
C1255 C1254 1.386 . S
C1255 C1259 1.393 . S
C1256 H1245 0.950 . S
C1256 C1254 1.391 . S
C1256 C1257 1.400 . S
C1257 C1251 1.491 . S
C1257 C1256 1.400 . S
C1257 C1258 1.398 . S
C1258 H1246 0.950 . S
C1258 C1257 1.398 . S
C1258 C1259 1.391 . S
C1259 H1247 0.950 . S
C1259 C1255 1.393 . S
C1259 C1258 1.391 . S
H1260 C1268 0.950 . S
H1261 C1273 0.950 . S
H1262 C1270 0.950 . S
H1263 C1272 0.950 . S
H1264 C1274 0.950 . S
H1265 C1276 0.950 . S
H1266 C1278 0.950 . S
H1267 C1279 0.950 . S
C1268 H1260 0.950 . S
C1268 C1269 1.386 . S
C1268 C1270 1.391 . S
C1269 C1268 1.386 . S
C1269 C1273 1.393 . S
C1270 H1262 0.950 . S
C1270 C1268 1.391 . S
C1270 C1271 1.400 . S
C1271 C1270 1.400 . S
C1271 C1272 1.398 . S
C1271 C1277 1.491 1_554 S
C1272 H1263 0.950 . S
C1272 C1271 1.398 . S
C1272 C1273 1.391 . S
C1273 H1261 0.950 . S
C1273 C1269 1.393 . S
C1273 C1272 1.391 . S
C1274 H1264 0.950 . S
C1274 C1275 1.386 . S
C1274 C1276 1.391 . S
C1275 C1274 1.386 . S
C1275 C1279 1.393 . S
C1276 H1265 0.950 . S
C1276 C1274 1.391 . S
C1276 C1277 1.400 . S
C1277 C1271 1.491 1_556 S
C1277 C1276 1.400 . S
C1277 C1278 1.398 . S
C1278 H1266 0.950 . S
C1278 C1277 1.398 . S
C1278 C1279 1.391 . S
C1279 H1267 0.950 . S
C1279 C1275 1.393 . S
C1279 C1278 1.391 . S
H1280 C1288 0.950 . S
H1281 C1293 0.950 . S
H1282 C1290 0.950 . S
H1283 C1292 0.950 . S
H1284 C1294 0.950 . S
H1285 C1296 0.950 . S
H1286 C1298 0.950 . S
H1287 C1299 0.950 . S
C1288 H1280 0.950 . S
C1288 C1289 1.386 1_565 S
C1288 C1290 1.391 . S
C1289 C1288 1.386 1_545 S
C1289 C1293 1.393 . S
C1290 H1282 0.950 . S
C1290 C1288 1.391 . S
C1290 C1291 1.400 1_565 S
C1291 C1290 1.400 1_545 S
C1291 C1292 1.398 . S
C1291 C1297 1.491 . S
C1292 H1283 0.950 . S
C1292 C1291 1.398 . S
C1292 C1293 1.391 . S
C1293 H1281 0.950 . S
C1293 C1289 1.393 . S
C1293 C1292 1.391 . S
C1294 H1284 0.950 . S
C1294 C1295 1.386 . S
C1294 C1296 1.391 . S
C1295 C1294 1.386 . S
C1295 C1299 1.393 1_545 S
C1296 H1285 0.950 . S
C1296 C1294 1.391 . S
C1296 C1297 1.400 . S
C1297 C1291 1.491 . S
C1297 C1296 1.400 . S
C1297 C1298 1.398 1_545 S
C1298 H1286 0.950 . S
C1298 C1297 1.398 1_565 S
C1298 C1299 1.391 . S
C1299 H1287 0.950 . S
C1299 C1295 1.393 1_565 S
C1299 C1298 1.391 . S
H1300 C1308 0.950 . S
H1301 C1313 0.950 . S
H1302 C1310 0.950 . S
H1303 C1312 0.950 . S
H1304 C1314 0.950 . S
H1305 C1316 0.950 . S
H1306 C1318 0.950 . S
H1307 C1319 0.950 . S
C1308 H1300 0.950 . S
C1308 C1309 1.386 . S
C1308 C1310 1.391 . S
C1309 C1308 1.386 . S
C1309 C1313 1.393 . S
C1310 H1302 0.950 . S
C1310 C1308 1.391 . S
C1310 C1311 1.400 . S
C1311 C1310 1.400 . S
C1311 C1312 1.398 . S
C1311 C1317 1.491 . S
C1312 H1303 0.950 . S
C1312 C1311 1.398 . S
C1312 C1313 1.391 . S
C1313 H1301 0.950 . S
C1313 C1309 1.393 . S
C1313 C1312 1.391 . S
C1314 H1304 0.950 . S
C1314 C1315 1.386 . S
C1314 C1316 1.391 . S
C1315 C1314 1.386 . S
C1315 C1319 1.393 . S
C1316 H1305 0.950 . S
C1316 C1314 1.391 . S
C1316 C1317 1.400 . S
C1317 C1311 1.491 . S
C1317 C1316 1.400 . S
C1317 C1318 1.398 . S
C1318 H1306 0.950 . S
C1318 C1317 1.398 . S
C1318 C1319 1.391 . S
C1319 H1307 0.950 . S
C1319 C1315 1.393 . S
C1319 C1318 1.391 . S
H1320 C1328 0.950 . S
H1321 C1333 0.950 . S
H1322 C1330 0.950 . S
H1323 C1332 0.950 . S
H1324 C1334 0.950 . S
H1325 C1336 0.950 . S
H1326 C1338 0.950 . S
H1327 C1339 0.950 . S
C1328 H1320 0.950 . S
C1328 C1329 1.386 . S
C1328 C1330 1.391 . S
C1329 C1328 1.386 . S
C1329 C1333 1.393 . S
C1330 H1322 0.950 . S
C1330 C1328 1.391 . S
C1330 C1331 1.400 . S
C1331 C1330 1.400 . S
C1331 C1332 1.398 . S
C1331 C1337 1.491 . S
C1332 H1323 0.950 . S
C1332 C1331 1.398 . S
C1332 C1333 1.391 . S
C1333 H1321 0.950 . S
C1333 C1329 1.393 . S
C1333 C1332 1.391 . S
C1334 H1324 0.950 . S
C1334 C1335 1.386 . S
C1334 C1336 1.391 . S
C1335 C1334 1.386 . S
C1335 C1339 1.393 . S
C1336 H1325 0.950 . S
C1336 C1334 1.391 . S
C1336 C1337 1.400 . S
C1337 C1331 1.491 . S
C1337 C1336 1.400 . S
C1337 C1338 1.398 . S
C1338 H1326 0.950 . S
C1338 C1337 1.398 . S
C1338 C1339 1.391 . S
C1339 H1327 0.950 . S
C1339 C1335 1.393 . S
C1339 C1338 1.391 . S
H1340 C1348 0.950 . S
H1341 C1353 0.952 . S
H1342 C1350 0.950 . S
H1343 C1352 0.950 . S
H1344 C1354 0.950 . S
H1345 C1356 0.950 . S
H1346 C1358 0.950 . S
H1347 C1359 0.950 . S
C1348 H1340 0.950 . S
C1348 C1349 1.386 . S
C1348 C1350 1.391 . S
C1349 C1348 1.386 . S
C1349 C1353 1.391 1_545 S
C1350 H1342 0.950 . S
C1350 C1348 1.391 . S
C1350 C1351 1.400 . S
C1351 C1350 1.400 . S
C1351 C1352 1.398 1_545 S
C1351 C1357 1.491 . S
C1352 H1343 0.950 . S
C1352 C1351 1.398 1_565 S
C1352 C1353 1.391 . S
C1353 H1341 0.952 . S
C1353 C1349 1.391 1_565 S
C1353 C1352 1.391 . S
C1354 H1344 0.950 . S
C1354 C1355 1.386 1_565 S
C1354 C1356 1.391 . S
C1355 C1354 1.386 1_545 S
C1355 C1359 1.393 . S
C1356 H1345 0.950 . S
C1356 C1354 1.391 . S
C1356 C1357 1.400 1_565 S
C1357 C1351 1.491 . S
C1357 C1356 1.400 1_545 S
C1357 C1358 1.398 . S
C1358 H1346 0.950 . S
C1358 C1357 1.398 . S
C1358 C1359 1.391 . S
C1359 H1347 0.950 . S
C1359 C1355 1.393 . S
C1359 C1358 1.391 . S
H1360 C1368 0.950 . S
H1361 C1373 0.950 . S
H1362 C1370 0.950 . S
H1363 C1372 0.950 . S
H1364 C1374 0.950 . S
H1365 C1376 0.950 . S
H1366 C1378 0.950 . S
H1367 C1379 0.950 . S
C1368 H1360 0.950 . S
C1368 C1369 1.386 . S
C1368 C1370 1.391 . S
C1369 C1368 1.386 . S
C1369 C1373 1.393 1_565 S
C1370 H1362 0.950 . S
C1370 C1368 1.391 . S
C1370 C1371 1.400 . S
C1371 C1370 1.400 . S
C1371 C1372 1.398 1_565 S
C1371 C1377 1.491 . S
C1372 H1363 0.950 . S
C1372 C1371 1.398 1_545 S
C1372 C1373 1.391 . S
C1373 H1361 0.950 . S
C1373 C1369 1.393 1_545 S
C1373 C1372 1.391 . S
C1374 H1364 0.950 . S
C1374 C1375 1.386 1_545 S
C1374 C1376 1.391 . S
C1375 C1374 1.386 1_565 S
C1375 C1379 1.393 . S
C1376 H1365 0.950 . S
C1376 C1374 1.391 . S
C1376 C1377 1.400 1_545 S
C1377 C1371 1.491 . S
C1377 C1376 1.400 1_565 S
C1377 C1378 1.398 . S
C1378 H1366 0.950 . S
C1378 C1377 1.398 . S
C1378 C1379 1.391 . S
C1379 H1367 0.950 . S
C1379 C1375 1.393 . S
C1379 C1378 1.391 . S
H1380 C1388 0.950 . S
H1381 C1393 0.950 . S
H1382 C1390 0.950 . S
H1383 C1392 0.950 . S
H1384 C1394 0.950 . S
H1385 C1396 0.950 . S
H1386 C1398 0.950 . S
H1387 C1399 0.950 . S
C1388 H1380 0.950 . S
C1388 C1389 1.386 . S
C1388 C1390 1.391 . S
C1389 C1388 1.386 . S
C1389 C1393 1.393 . S
C1390 H1382 0.950 . S
C1390 C1388 1.391 . S
C1390 C1391 1.400 . S
C1391 C1390 1.400 . S
C1391 C1392 1.398 . S
C1391 C1397 1.491 . S
C1392 H1383 0.950 . S
C1392 C1391 1.398 . S
C1392 C1393 1.391 . S
C1393 H1381 0.950 . S
C1393 C1389 1.393 . S
C1393 C1392 1.391 . S
C1394 H1384 0.950 . S
C1394 C1395 1.386 . S
C1394 C1396 1.391 . S
C1395 C1394 1.386 . S
C1395 C1399 1.393 . S
C1396 H1385 0.950 . S
C1396 C1394 1.391 . S
C1396 C1397 1.400 . S
C1397 C1391 1.491 . S
C1397 C1396 1.400 . S
C1397 C1398 1.398 . S
C1398 H1386 0.950 . S
C1398 C1397 1.398 . S
C1398 C1399 1.391 . S
C1399 H1387 0.950 . S
C1399 C1395 1.393 . S
C1399 C1398 1.391 . S
H1400 C1408 0.950 . S
H1401 C1413 0.950 . S
H1402 C1410 0.950 . S
H1403 C1412 0.950 . S
H1404 C1414 0.950 . S
H1405 C1416 0.950 . S
H1406 C1418 0.950 . S
H1407 C1419 0.950 . S
C1408 H1400 0.950 . S
C1408 C1409 1.386 . S
C1408 C1410 1.391 . S
C1409 C1408 1.386 . S
C1409 C1413 1.393 . S
C1410 H1402 0.950 . S
C1410 C1408 1.391 . S
C1410 C1411 1.400 . S
C1411 C1410 1.400 . S
C1411 C1412 1.398 . S
C1411 C1417 1.491 . S
C1412 H1403 0.950 . S
C1412 C1411 1.398 . S
C1412 C1413 1.391 . S
C1413 H1401 0.950 . S
C1413 C1409 1.393 . S
C1413 C1412 1.391 . S
C1414 H1404 0.950 . S
C1414 C1415 1.386 . S
C1414 C1416 1.391 . S
C1415 C1414 1.386 . S
C1415 C1419 1.393 . S
C1416 H1405 0.950 . S
C1416 C1414 1.391 . S
C1416 C1417 1.400 . S
C1417 C1411 1.491 . S
C1417 C1416 1.400 . S
C1417 C1418 1.398 . S
C1418 H1406 0.950 . S
C1418 C1417 1.398 . S
C1418 C1419 1.391 . S
C1419 H1407 0.950 . S
C1419 C1415 1.393 . S
C1419 C1418 1.391 . S
H1420 C1428 0.950 . S
H1421 C1433 0.950 . S
H1422 C1430 0.950 . S
H1423 C1432 0.950 . S
H1424 C1434 0.950 . S
H1425 C1436 0.950 . S
H1426 C1438 0.950 . S
H1427 C1439 0.950 . S
C1428 H1420 0.950 . S
C1428 C1429 1.386 . S
C1428 C1430 1.391 . S
C1429 C1428 1.386 . S
C1429 C1433 1.393 1_565 S
C1430 H1422 0.950 . S
C1430 C1428 1.391 . S
C1430 C1431 1.400 . S
C1431 C1430 1.400 . S
C1431 C1432 1.398 1_565 S
C1431 C1437 1.491 . S
C1432 H1423 0.950 . S
C1432 C1431 1.398 1_545 S
C1432 C1433 1.391 . S
C1433 H1421 0.950 . S
C1433 C1429 1.393 1_545 S
C1433 C1432 1.391 . S
C1434 H1424 0.950 . S
C1434 C1435 1.386 1_545 S
C1434 C1436 1.391 . S
C1435 C1434 1.386 1_565 S
C1435 C1439 1.393 . S
C1436 H1425 0.950 . S
C1436 C1434 1.391 . S
C1436 C1437 1.400 1_545 S
C1437 C1431 1.491 . S
C1437 C1436 1.400 1_565 S
C1437 C1438 1.398 . S
C1438 H1426 0.950 . S
C1438 C1437 1.398 . S
C1438 C1439 1.391 . S
C1439 H1427 0.950 . S
C1439 C1435 1.393 . S
C1439 C1438 1.391 . S
H1440 C1448 0.950 . S
H1441 C1453 0.950 . S
H1442 C1450 0.950 . S
H1443 C1452 0.950 . S
H1444 C1454 0.950 . S
H1445 C1456 0.950 . S
H1446 C1458 0.950 . S
H1447 C1459 0.950 . S
C1448 H1440 0.950 . S
C1448 C1449 1.386 . S
C1448 C1450 1.391 . S
C1449 C1448 1.386 . S
C1449 C1453 1.393 . S
C1450 H1442 0.950 . S
C1450 C1448 1.391 . S
C1450 C1451 1.400 . S
C1451 C1450 1.400 . S
C1451 C1452 1.398 . S
C1451 C1457 1.491 . S
C1452 H1443 0.950 . S
C1452 C1451 1.398 . S
C1452 C1453 1.391 . S
C1453 H1441 0.950 . S
C1453 C1449 1.393 . S
C1453 C1452 1.391 . S
C1454 H1444 0.950 . S
C1454 C1455 1.386 . S
C1454 C1456 1.391 . S
C1455 C1454 1.386 . S
C1455 C1459 1.393 . S
C1456 H1445 0.950 . S
C1456 C1454 1.391 . S
C1456 C1457 1.400 . S
C1457 C1451 1.491 . S
C1457 C1456 1.400 . S
C1457 C1458 1.398 . S
C1458 H1446 0.950 . S
C1458 C1457 1.398 . S
C1458 C1459 1.391 . S
C1459 H1447 0.950 . S
C1459 C1455 1.393 . S
C1459 C1458 1.391 . S
H1460 C1468 0.950 . S
H1461 C1473 0.950 . S
H1462 C1470 0.950 . S
H1463 C1472 0.950 . S
H1464 C1474 0.950 . S
H1465 C1476 0.950 . S
H1466 C1478 0.950 . S
H1467 C1479 0.950 . S
C1468 H1460 0.950 . S
C1468 C1469 1.386 . S
C1468 C1470 1.391 . S
C1469 C1468 1.386 . S
C1469 C1473 1.393 . S
C1470 H1462 0.950 . S
C1470 C1468 1.391 . S
C1470 C1471 1.400 . S
C1471 C1470 1.400 . S
C1471 C1472 1.398 . S
C1471 C1477 1.491 . S
C1472 H1463 0.950 . S
C1472 C1471 1.398 . S
C1472 C1473 1.391 . S
C1473 H1461 0.950 . S
C1473 C1469 1.393 . S
C1473 C1472 1.391 . S
C1474 H1464 0.950 . S
C1474 C1475 1.386 . S
C1474 C1476 1.391 . S
C1475 C1474 1.386 . S
C1475 C1479 1.393 . S
C1476 H1465 0.950 . S
C1476 C1474 1.391 . S
C1476 C1477 1.400 . S
C1477 C1471 1.491 . S
C1477 C1476 1.400 . S
C1477 C1478 1.398 . S
C1478 H1466 0.950 . S
C1478 C1477 1.398 . S
C1478 C1479 1.391 . S
C1479 H1467 0.950 . S
C1479 C1475 1.393 . S
C1479 C1478 1.391 . S
H1480 C1488 0.950 . S
H1481 C1493 0.950 . S
H1482 C1490 0.950 . S
H1483 C1492 0.950 . S
H1484 C1494 0.950 . S
H1485 C1496 0.950 . S
H1486 C1498 0.950 . S
H1487 C1499 0.950 . S
C1488 H1480 0.950 . S
C1488 C1489 1.386 . S
C1488 C1490 1.391 . S
C1489 C1488 1.386 . S
C1489 C1493 1.393 . S
C1490 H1482 0.950 . S
C1490 C1488 1.391 . S
C1490 C1491 1.400 . S
C1491 C1490 1.400 . S
C1491 C1492 1.398 . S
C1491 C1497 1.491 . S
C1492 H1483 0.950 . S
C1492 C1491 1.398 . S
C1492 C1493 1.391 . S
C1493 H1481 0.950 . S
C1493 C1489 1.393 . S
C1493 C1492 1.391 . S
C1494 H1484 0.950 . S
C1494 C1495 1.386 . S
C1494 C1496 1.391 . S
C1495 C1494 1.386 . S
C1495 C1499 1.393 . S
C1496 H1485 0.950 . S
C1496 C1494 1.391 . S
C1496 C1497 1.400 . S
C1497 C1491 1.491 . S
C1497 C1496 1.400 . S
C1497 C1498 1.398 . S
C1498 H1486 0.950 . S
C1498 C1497 1.398 . S
C1498 C1499 1.391 . S
C1499 H1487 0.950 . S
C1499 C1495 1.393 . S
C1499 C1498 1.391 . S
H1500 C1508 0.950 . S
H1501 C1513 0.950 . S
H1502 C1510 0.950 . S
H1503 C1512 0.950 . S
H1504 C1514 0.950 . S
H1505 C1516 0.950 . S
H1506 C1518 0.950 . S
H1507 C1519 0.950 . S
C1508 H1500 0.950 . S
C1508 C1509 1.386 . S
C1508 C1510 1.391 . S
C1509 C1508 1.386 . S
C1509 C1513 1.393 . S
C1510 H1502 0.950 . S
C1510 C1508 1.391 . S
C1510 C1511 1.400 . S
C1511 C1510 1.400 . S
C1511 C1512 1.398 . S
C1511 C1517 1.491 . S
C1512 H1503 0.950 . S
C1512 C1511 1.398 . S
C1512 C1513 1.391 . S
C1513 H1501 0.950 . S
C1513 C1509 1.393 . S
C1513 C1512 1.391 . S
C1514 H1504 0.950 . S
C1514 C1515 1.386 . S
C1514 C1516 1.391 . S
C1515 C1514 1.386 . S
C1515 C1519 1.393 . S
C1516 H1505 0.950 . S
C1516 C1514 1.391 . S
C1516 C1517 1.400 . S
C1517 C1511 1.491 . S
C1517 C1516 1.400 . S
C1517 C1518 1.398 . S
C1518 H1506 0.950 . S
C1518 C1517 1.398 . S
C1518 C1519 1.391 . S
C1519 H1507 0.950 . S
C1519 C1515 1.393 . S
C1519 C1518 1.391 . S
H1520 C1528 0.950 . S
H1521 C1533 0.950 . S
H1522 C1530 0.950 . S
H1523 C1532 0.950 . S
H1524 C1534 0.950 . S
H1525 C1536 0.950 . S
H1526 C1538 0.950 . S
H1527 C1539 0.950 . S
C1528 H1520 0.950 . S
C1528 C1529 1.386 . S
C1528 C1530 1.391 . S
C1529 C1528 1.386 . S
C1529 C1533 1.393 . S
C1530 H1522 0.950 . S
C1530 C1528 1.391 . S
C1530 C1531 1.400 . S
C1531 C1530 1.400 . S
C1531 C1532 1.398 . S
C1531 C1537 1.491 . S
C1532 H1523 0.950 . S
C1532 C1531 1.398 . S
C1532 C1533 1.391 . S
C1533 H1521 0.950 . S
C1533 C1529 1.393 . S
C1533 C1532 1.391 . S
C1534 H1524 0.950 . S
C1534 C1535 1.386 . S
C1534 C1536 1.391 . S
C1535 C1534 1.386 . S
C1535 C1539 1.393 . S
C1536 H1525 0.950 . S
C1536 C1534 1.391 . S
C1536 C1537 1.400 . S
C1537 C1531 1.491 . S
C1537 C1536 1.400 . S
C1537 C1538 1.398 . S
C1538 H1526 0.950 . S
C1538 C1537 1.398 . S
C1538 C1539 1.391 . S
C1539 H1527 0.950 . S
C1539 C1535 1.393 . S
C1539 C1538 1.391 . S
H1540 C1548 0.950 . S
H1541 C1553 0.950 . S
H1542 C1550 0.950 . S
H1543 C1552 0.950 . S
H1544 C1554 0.950 . S
H1545 C1556 0.950 . S
H1546 C1558 0.950 . S
H1547 C1559 0.950 . S
C1548 H1540 0.950 . S
C1548 C1549 1.386 . S
C1548 C1550 1.391 . S
C1549 C1548 1.386 . S
C1549 C1553 1.393 . S
C1550 H1542 0.950 . S
C1550 C1548 1.391 . S
C1550 C1551 1.400 . S
C1551 C1550 1.400 . S
C1551 C1552 1.398 . S
C1551 C1557 1.491 . S
C1552 H1543 0.950 . S
C1552 C1551 1.398 . S
C1552 C1553 1.391 . S
C1553 H1541 0.950 . S
C1553 C1549 1.393 . S
C1553 C1552 1.391 . S
C1554 H1544 0.950 . S
C1554 C1555 1.386 . S
C1554 C1556 1.391 . S
C1555 C1554 1.386 . S
C1555 C1559 1.393 . S
C1556 H1545 0.950 . S
C1556 C1554 1.391 . S
C1556 C1557 1.400 . S
C1557 C1551 1.491 . S
C1557 C1556 1.400 . S
C1557 C1558 1.398 . S
C1558 H1546 0.950 . S
C1558 C1557 1.398 . S
C1558 C1559 1.391 . S
C1559 H1547 0.950 . S
C1559 C1555 1.393 . S
C1559 C1558 1.391 . S
H1560 C1568 0.950 . S
H1561 C1573 0.950 . S
H1562 C1570 0.950 . S
H1563 C1572 0.950 . S
H1564 C1574 0.950 . S
H1565 C1576 0.950 . S
H1566 C1578 0.950 . S
H1567 C1579 0.950 . S
C1568 H1560 0.950 . S
C1568 C1569 1.386 . S
C1568 C1570 1.391 . S
C1569 C1568 1.386 . S
C1569 C1573 1.393 . S
C1570 H1562 0.950 . S
C1570 C1568 1.391 . S
C1570 C1571 1.400 . S
C1571 C1570 1.400 . S
C1571 C1572 1.398 . S
C1571 C1577 1.491 . S
C1572 H1563 0.950 . S
C1572 C1571 1.398 . S
C1572 C1573 1.391 . S
C1573 H1561 0.950 . S
C1573 C1569 1.393 . S
C1573 C1572 1.391 . S
C1574 H1564 0.950 . S
C1574 C1575 1.386 . S
C1574 C1576 1.391 . S
C1575 C1574 1.386 . S
C1575 C1579 1.393 . S
C1576 H1565 0.950 . S
C1576 C1574 1.391 . S
C1576 C1577 1.400 . S
C1577 C1571 1.491 . S
C1577 C1576 1.400 . S
C1577 C1578 1.398 . S
C1578 H1566 0.950 . S
C1578 C1577 1.398 . S
C1578 C1579 1.391 . S
C1579 H1567 0.950 . S
C1579 C1575 1.393 . S
C1579 C1578 1.391 . S
H1580 C1588 0.950 . S
H1581 C1593 0.950 . S
H1582 C1590 0.950 . S
H1583 C1592 0.950 . S
H1584 C1594 0.950 . S
H1585 C1596 0.950 . S
H1586 C1598 0.950 . S
H1587 C1599 0.950 . S
C1588 H1580 0.950 . S
C1588 C1589 1.386 . S
C1588 C1590 1.391 . S
C1589 C1588 1.386 . S
C1589 C1593 1.393 . S
C1590 H1582 0.950 . S
C1590 C1588 1.391 . S
C1590 C1591 1.400 . S
C1591 C1590 1.400 . S
C1591 C1592 1.398 . S
C1591 C1597 1.491 . S
C1592 H1583 0.950 . S
C1592 C1591 1.398 . S
C1592 C1593 1.391 . S
C1593 H1581 0.950 . S
C1593 C1589 1.393 . S
C1593 C1592 1.391 . S
C1594 H1584 0.950 . S
C1594 C1595 1.386 . S
C1594 C1596 1.391 . S
C1595 C1594 1.386 . S
C1595 C1599 1.393 . S
C1596 H1585 0.950 . S
C1596 C1594 1.391 . S
C1596 C1597 1.400 . S
C1597 C1591 1.491 . S
C1597 C1596 1.400 . S
C1597 C1598 1.398 . S
C1598 H1586 0.950 . S
C1598 C1597 1.398 . S
C1598 C1599 1.391 . S
C1599 H1587 0.950 . S
C1599 C1595 1.393 . S
C1599 C1598 1.391 . S
H1600 C1608 0.950 . S
H1601 C1613 0.950 . S
H1602 C1610 0.950 . S
H1603 C1612 0.950 . S
H1604 C1614 0.950 . S
H1605 C1616 0.950 . S
H1606 C1618 0.950 . S
H1607 C1619 0.950 . S
C1608 H1600 0.950 . S
C1608 C1609 1.386 . S
C1608 C1610 1.391 . S
C1609 C1608 1.386 . S
C1609 C1613 1.393 . S
C1610 H1602 0.950 . S
C1610 C1608 1.391 . S
C1610 C1611 1.400 . S
C1611 C1610 1.400 . S
C1611 C1612 1.398 . S
C1611 C1617 1.491 . S
C1612 H1603 0.950 . S
C1612 C1611 1.398 . S
C1612 C1613 1.391 . S
C1613 H1601 0.950 . S
C1613 C1609 1.393 . S
C1613 C1612 1.391 . S
C1614 H1604 0.950 . S
C1614 C1615 1.386 . S
C1614 C1616 1.391 . S
C1615 C1614 1.386 . S
C1615 C1619 1.393 . S
C1616 H1605 0.950 . S
C1616 C1614 1.391 . S
C1616 C1617 1.400 . S
C1617 C1611 1.491 . S
C1617 C1616 1.400 . S
C1617 C1618 1.398 . S
C1618 H1606 0.950 . S
C1618 C1617 1.398 . S
C1618 C1619 1.391 . S
C1619 H1607 0.950 . S
C1619 C1615 1.393 . S
C1619 C1618 1.391 . S
H1620 C1628 0.950 . S
H1621 C1633 0.950 . S
H1622 C1630 0.950 . S
H1623 C1632 0.950 . S
H1624 C1634 0.950 . S
H1625 C1636 0.950 . S
H1626 C1638 0.950 . S
H1627 C1639 0.950 . S
C1628 H1620 0.950 . S
C1628 C1629 1.386 . S
C1628 C1630 1.391 . S
C1629 C1628 1.386 . S
C1629 C1633 1.393 . S
C1630 H1622 0.950 . S
C1630 C1628 1.391 . S
C1630 C1631 1.400 . S
C1631 C1630 1.400 . S
C1631 C1632 1.398 . S
C1631 C1637 1.491 . S
C1632 H1623 0.950 . S
C1632 C1631 1.398 . S
C1632 C1633 1.391 . S
C1633 H1621 0.950 . S
C1633 C1629 1.393 . S
C1633 C1632 1.391 . S
C1634 H1624 0.950 . S
C1634 C1635 1.386 . S
C1634 C1636 1.391 . S
C1635 C1634 1.386 . S
C1635 C1639 1.393 . S
C1636 H1625 0.950 . S
C1636 C1634 1.391 . S
C1636 C1637 1.400 . S
C1637 C1631 1.491 . S
C1637 C1636 1.400 . S
C1637 C1638 1.398 . S
C1638 H1626 0.950 . S
C1638 C1637 1.398 . S
C1638 C1639 1.391 . S
C1639 H1627 0.950 . S
C1639 C1635 1.393 . S
C1639 C1638 1.391 . S
H1640 C1648 0.950 . S
H1641 C1653 0.950 . S
H1642 C1650 0.950 . S
H1643 C1652 0.950 . S
H1644 C1654 0.950 . S
H1645 C1656 0.950 . S
H1646 C1658 0.950 . S
H1647 C1659 0.950 . S
C1648 H1640 0.950 . S
C1648 C1649 1.386 . S
C1648 C1650 1.391 . S
C1649 C1648 1.386 . S
C1649 C1653 1.393 . S
C1650 H1642 0.950 . S
C1650 C1648 1.391 . S
C1650 C1651 1.400 . S
C1651 C1650 1.400 . S
C1651 C1652 1.398 . S
C1651 C1657 1.491 . S
C1652 H1643 0.950 . S
C1652 C1651 1.398 . S
C1652 C1653 1.391 . S
C1653 H1641 0.950 . S
C1653 C1649 1.393 . S
C1653 C1652 1.391 . S
C1654 H1644 0.950 . S
C1654 C1655 1.386 . S
C1654 C1656 1.391 . S
C1655 C1654 1.386 . S
C1655 C1659 1.393 . S
C1656 H1645 0.950 . S
C1656 C1654 1.391 . S
C1656 C1657 1.400 . S
C1657 C1651 1.491 . S
C1657 C1656 1.400 . S
C1657 C1658 1.398 . S
C1658 H1646 0.950 . S
C1658 C1657 1.398 . S
C1658 C1659 1.391 . S
C1659 H1647 0.950 . S
C1659 C1655 1.393 . S
C1659 C1658 1.391 . S
H1660 C1668 0.950 . S
H1661 C1673 0.950 . S
H1662 C1670 0.950 . S
H1663 C1672 0.950 . S
H1664 C1674 0.950 . S
H1665 C1676 0.950 . S
H1666 C1678 0.950 . S
H1667 C1679 0.950 . S
C1668 H1660 0.950 . S
C1668 C1669 1.386 . S
C1668 C1670 1.391 . S
C1669 C1668 1.386 . S
C1669 C1673 1.393 . S
C1670 H1662 0.950 . S
C1670 C1668 1.391 . S
C1670 C1671 1.400 . S
C1671 C1670 1.400 . S
C1671 C1672 1.398 . S
C1671 C1677 1.491 . S
C1672 H1663 0.950 . S
C1672 C1671 1.398 . S
C1672 C1673 1.391 . S
C1673 H1661 0.950 . S
C1673 C1669 1.393 . S
C1673 C1672 1.391 . S
C1674 H1664 0.950 . S
C1674 C1675 1.386 . S
C1674 C1676 1.391 . S
C1675 C1674 1.386 . S
C1675 C1679 1.393 . S
C1676 H1665 0.950 . S
C1676 C1674 1.391 . S
C1676 C1677 1.400 . S
C1677 C1671 1.491 . S
C1677 C1676 1.400 . S
C1677 C1678 1.398 . S
C1678 H1666 0.950 . S
C1678 C1677 1.398 . S
C1678 C1679 1.391 . S
C1679 H1667 0.950 . S
C1679 C1675 1.393 . S
C1679 C1678 1.391 . S
H1680 C1688 0.950 . S
H1681 C1693 0.950 . S
H1682 C1690 0.950 . S
H1683 C1692 0.950 . S
H1684 C1694 0.950 . S
H1685 C1696 0.950 . S
H1686 C1698 0.950 . S
H1687 C1699 0.950 . S
C1688 H1680 0.950 . S
C1688 C1689 1.386 . S
C1688 C1690 1.391 . S
C1689 C1688 1.386 . S
C1689 C1693 1.393 . S
C1690 H1682 0.950 . S
C1690 C1688 1.391 . S
C1690 C1691 1.400 . S
C1691 C1690 1.400 . S
C1691 C1692 1.398 . S
C1691 C1697 1.491 . S
C1692 H1683 0.950 . S
C1692 C1691 1.398 . S
C1692 C1693 1.391 . S
C1693 H1681 0.950 . S
C1693 C1689 1.393 . S
C1693 C1692 1.391 . S
C1694 H1684 0.950 . S
C1694 C1695 1.386 . S
C1694 C1696 1.391 . S
C1695 C1694 1.386 . S
C1695 C1699 1.393 . S
C1696 H1685 0.950 . S
C1696 C1694 1.391 . S
C1696 C1697 1.400 . S
C1697 C1691 1.491 . S
C1697 C1696 1.400 . S
C1697 C1698 1.398 . S
C1698 H1686 0.950 . S
C1698 C1697 1.398 . S
C1698 C1699 1.391 . S
C1699 H1687 0.950 . S
C1699 C1695 1.393 . S
C1699 C1698 1.391 . S
H1700 C1708 0.950 . S
H1701 C1713 0.950 . S
H1702 C1710 0.950 . S
H1703 C1712 0.950 . S
H1704 C1714 0.950 . S
H1705 C1716 0.950 . S
H1706 C1718 0.950 . S
H1707 C1719 0.950 . S
C1708 H1700 0.950 . S
C1708 C1709 1.386 . S
C1708 C1710 1.391 . S
C1709 C1708 1.386 . S
C1709 C1713 1.393 . S
C1710 H1702 0.950 . S
C1710 C1708 1.391 . S
C1710 C1711 1.400 . S
C1711 C1710 1.400 . S
C1711 C1712 1.398 . S
C1711 C1717 1.491 . S
C1712 H1703 0.950 . S
C1712 C1711 1.398 . S
C1712 C1713 1.391 . S
C1713 H1701 0.950 . S
C1713 C1709 1.393 . S
C1713 C1712 1.391 . S
C1714 H1704 0.950 . S
C1714 C1715 1.386 . S
C1714 C1716 1.391 . S
C1715 C1714 1.386 . S
C1715 C1719 1.393 . S
C1716 H1705 0.950 . S
C1716 C1714 1.391 . S
C1716 C1717 1.400 . S
C1717 C1711 1.491 . S
C1717 C1716 1.400 . S
C1717 C1718 1.398 . S
C1718 H1706 0.950 . S
C1718 C1717 1.398 . S
C1718 C1719 1.391 . S
C1719 H1707 0.950 . S
C1719 C1715 1.393 . S
C1719 C1718 1.391 . S
H1720 C1728 0.950 . S
H1721 C1733 0.950 . S
H1722 C1730 0.950 . S
H1723 C1732 0.950 . S
H1724 C1734 0.950 . S
H1725 C1736 0.950 . S
H1726 C1738 0.950 . S
H1727 C1739 0.950 . S
C1728 H1720 0.950 . S
C1728 C1729 1.386 . S
C1728 C1730 1.391 . S
C1729 C1728 1.386 . S
C1729 C1733 1.393 . S
C1730 H1722 0.950 . S
C1730 C1728 1.391 . S
C1730 C1731 1.400 . S
C1731 C1730 1.400 . S
C1731 C1732 1.398 . S
C1731 C1737 1.491 . S
C1732 H1723 0.950 . S
C1732 C1731 1.398 . S
C1732 C1733 1.391 . S
C1733 H1721 0.950 . S
C1733 C1729 1.393 . S
C1733 C1732 1.391 . S
C1734 H1724 0.950 . S
C1734 C1735 1.386 . S
C1734 C1736 1.391 . S
C1735 C1734 1.386 . S
C1735 C1739 1.393 . S
C1736 H1725 0.950 . S
C1736 C1734 1.391 . S
C1736 C1737 1.400 . S
C1737 C1731 1.491 . S
C1737 C1736 1.400 . S
C1737 C1738 1.398 . S
C1738 H1726 0.950 . S
C1738 C1737 1.398 . S
C1738 C1739 1.391 . S
C1739 H1727 0.950 . S
C1739 C1735 1.393 . S
C1739 C1738 1.391 . S
H1740 C1748 0.950 . S
H1741 C1753 0.950 . S
H1742 C1750 0.950 . S
H1743 C1752 0.950 . S
H1744 C1754 0.950 . S
H1745 C1756 0.950 . S
H1746 C1758 0.950 . S
H1747 C1759 0.950 . S
C1748 H1740 0.950 . S
C1748 C1749 1.386 . S
C1748 C1750 1.391 . S
C1749 C1748 1.386 . S
C1749 C1753 1.393 . S
C1750 H1742 0.950 . S
C1750 C1748 1.391 . S
C1750 C1751 1.400 . S
C1751 C1750 1.400 . S
C1751 C1752 1.398 . S
C1751 C1757 1.491 . S
C1752 H1743 0.950 . S
C1752 C1751 1.398 . S
C1752 C1753 1.391 . S
C1753 H1741 0.950 . S
C1753 C1749 1.393 . S
C1753 C1752 1.391 . S
C1754 H1744 0.950 . S
C1754 C1755 1.386 . S
C1754 C1756 1.391 . S
C1755 C1754 1.386 . S
C1755 C1759 1.393 . S
C1756 H1745 0.950 . S
C1756 C1754 1.391 . S
C1756 C1757 1.400 . S
C1757 C1751 1.491 . S
C1757 C1756 1.400 . S
C1757 C1758 1.398 . S
C1758 H1746 0.950 . S
C1758 C1757 1.398 . S
C1758 C1759 1.391 . S
C1759 H1747 0.950 . S
C1759 C1755 1.393 . S
C1759 C1758 1.391 . S
H1760 C1768 0.950 . S
H1761 C1773 0.950 . S
H1762 C1770 0.950 . S
H1763 C1772 0.950 . S
H1764 C1774 0.950 . S
H1765 C1776 0.950 . S
H1766 C1778 0.950 . S
H1767 C1779 0.950 . S
C1768 H1760 0.950 . S
C1768 C1769 1.386 . S
C1768 C1770 1.391 . S
C1769 C1768 1.386 . S
C1769 C1773 1.393 . S
C1770 H1762 0.950 . S
C1770 C1768 1.391 . S
C1770 C1771 1.400 . S
C1771 C1770 1.400 . S
C1771 C1772 1.398 . S
C1771 C1777 1.491 . S
C1772 H1763 0.950 . S
C1772 C1771 1.398 . S
C1772 C1773 1.391 . S
C1773 H1761 0.950 . S
C1773 C1769 1.393 . S
C1773 C1772 1.391 . S
C1774 H1764 0.950 . S
C1774 C1775 1.386 . S
C1774 C1776 1.391 . S
C1775 C1774 1.386 . S
C1775 C1779 1.393 . S
C1776 H1765 0.950 . S
C1776 C1774 1.391 . S
C1776 C1777 1.400 . S
C1777 C1771 1.491 . S
C1777 C1776 1.400 . S
C1777 C1778 1.398 . S
C1778 H1766 0.950 . S
C1778 C1777 1.398 . S
C1778 C1779 1.391 . S
C1779 H1767 0.950 . S
C1779 C1775 1.393 . S
C1779 C1778 1.391 . S
H1780 C1788 0.950 . S
H1781 C1793 0.950 . S
H1782 C1790 0.950 . S
H1783 C1792 0.950 . S
H1784 C1794 0.950 . S
H1785 C1796 0.950 . S
H1786 C1798 0.950 . S
H1787 C1799 0.950 . S
C1788 H1780 0.950 . S
C1788 C1789 1.386 . S
C1788 C1790 1.391 . S
C1789 C1788 1.386 . S
C1789 C1793 1.393 . S
C1790 H1782 0.950 . S
C1790 C1788 1.391 . S
C1790 C1791 1.400 . S
C1791 C1790 1.400 . S
C1791 C1792 1.398 . S
C1791 C1797 1.491 . S
C1792 H1783 0.950 . S
C1792 C1791 1.398 . S
C1792 C1793 1.391 . S
C1793 H1781 0.950 . S
C1793 C1789 1.393 . S
C1793 C1792 1.391 . S
C1794 H1784 0.950 . S
C1794 C1795 1.386 . S
C1794 C1796 1.391 . S
C1795 C1794 1.386 . S
C1795 C1799 1.393 . S
C1796 H1785 0.950 . S
C1796 C1794 1.391 . S
C1796 C1797 1.400 . S
C1797 C1791 1.491 . S
C1797 C1796 1.400 . S
C1797 C1798 1.398 . S
C1798 H1786 0.950 . S
C1798 C1797 1.398 . S
C1798 C1799 1.391 . S
C1799 H1787 0.950 . S
C1799 C1795 1.393 . S
C1799 C1798 1.391 . S
H1800 C1808 0.950 . S
H1801 C1813 0.950 . S
H1802 C1810 0.950 . S
H1803 C1812 0.950 . S
H1804 C1814 0.950 . S
H1805 C1816 0.950 . S
H1806 C1818 0.950 . S
H1807 C1819 0.950 . S
C1808 H1800 0.950 . S
C1808 C1809 1.386 . S
C1808 C1810 1.391 . S
C1809 C1808 1.386 . S
C1809 C1813 1.393 . S
C1810 H1802 0.950 . S
C1810 C1808 1.391 . S
C1810 C1811 1.400 . S
C1811 C1810 1.400 . S
C1811 C1812 1.398 . S
C1811 C1817 1.491 . S
C1812 H1803 0.950 . S
C1812 C1811 1.398 . S
C1812 C1813 1.391 . S
C1813 H1801 0.950 . S
C1813 C1809 1.393 . S
C1813 C1812 1.391 . S
C1814 H1804 0.950 . S
C1814 C1815 1.386 . S
C1814 C1816 1.391 . S
C1815 C1814 1.386 . S
C1815 C1819 1.393 . S
C1816 H1805 0.950 . S
C1816 C1814 1.391 . S
C1816 C1817 1.400 . S
C1817 C1811 1.491 . S
C1817 C1816 1.400 . S
C1817 C1818 1.398 . S
C1818 H1806 0.950 . S
C1818 C1817 1.398 . S
C1818 C1819 1.391 . S
C1819 H1807 0.950 . S
C1819 C1815 1.393 . S
C1819 C1818 1.391 . S
H1820 C1828 0.950 . S
H1821 C1833 0.950 . S
H1822 C1830 0.950 . S
H1823 C1832 0.950 . S
H1824 C1834 0.950 . S
H1825 C1836 0.950 . S
H1826 C1838 0.950 . S
H1827 C1839 0.950 . S
C1828 H1820 0.950 . S
C1828 C1829 1.386 . S
C1828 C1830 1.391 . S
C1829 C1828 1.386 . S
C1829 C1833 1.393 . S
C1830 H1822 0.950 . S
C1830 C1828 1.391 . S
C1830 C1831 1.400 . S
C1831 C1830 1.400 . S
C1831 C1832 1.398 . S
C1831 C1837 1.491 . S
C1832 H1823 0.950 . S
C1832 C1831 1.398 . S
C1832 C1833 1.391 . S
C1833 H1821 0.950 . S
C1833 C1829 1.393 . S
C1833 C1832 1.391 . S
C1834 H1824 0.950 . S
C1834 C1835 1.386 . S
C1834 C1836 1.391 . S
C1835 C1834 1.386 . S
C1835 C1839 1.393 . S
C1836 H1825 0.950 . S
C1836 C1834 1.391 . S
C1836 C1837 1.400 . S
C1837 C1831 1.491 . S
C1837 C1836 1.400 . S
C1837 C1838 1.398 . S
C1838 H1826 0.950 . S
C1838 C1837 1.398 . S
C1838 C1839 1.391 . S
C1839 H1827 0.950 . S
C1839 C1835 1.393 . S
C1839 C1838 1.391 . S
H1840 C1848 0.950 . S
H1841 C1853 0.950 . S
H1842 C1850 0.950 . S
H1843 C1852 0.950 . S
H1844 C1854 0.950 . S
H1845 C1856 0.950 . S
H1846 C1858 0.950 . S
H1847 C1859 0.950 . S
C1848 H1840 0.950 . S
C1848 C1849 1.386 . S
C1848 C1850 1.391 . S
C1849 C1848 1.386 . S
C1849 C1853 1.393 . S
C1850 H1842 0.950 . S
C1850 C1848 1.391 . S
C1850 C1851 1.400 . S
C1851 C1850 1.400 . S
C1851 C1852 1.398 . S
C1851 C1857 1.491 . S
C1852 H1843 0.950 . S
C1852 C1851 1.398 . S
C1852 C1853 1.391 . S
C1853 H1841 0.950 . S
C1853 C1849 1.393 . S
C1853 C1852 1.391 . S
C1854 H1844 0.950 . S
C1854 C1855 1.386 . S
C1854 C1856 1.391 . S
C1855 C1854 1.386 . S
C1855 C1859 1.393 . S
C1856 H1845 0.950 . S
C1856 C1854 1.391 . S
C1856 C1857 1.400 . S
C1857 C1851 1.491 . S
C1857 C1856 1.400 . S
C1857 C1858 1.398 . S
C1858 H1846 0.950 . S
C1858 C1857 1.398 . S
C1858 C1859 1.391 . S
C1859 H1847 0.950 . S
C1859 C1855 1.393 . S
C1859 C1858 1.391 . S
H1860 C1868 0.950 . S
H1861 C1873 0.950 . S
H1862 C1870 0.950 . S
H1863 C1872 0.950 . S
H1864 C1874 0.950 . S
H1865 C1876 0.950 . S
H1866 C1878 0.950 . S
H1867 C1879 0.950 . S
C1868 H1860 0.950 . S
C1868 C1869 1.386 . S
C1868 C1870 1.391 . S
C1869 C1868 1.386 . S
C1869 C1873 1.393 . S
C1870 H1862 0.950 . S
C1870 C1868 1.391 . S
C1870 C1871 1.400 . S
C1871 C1870 1.400 . S
C1871 C1872 1.398 . S
C1871 C1877 1.491 . S
C1872 H1863 0.950 . S
C1872 C1871 1.398 . S
C1872 C1873 1.391 . S
C1873 H1861 0.950 . S
C1873 C1869 1.393 . S
C1873 C1872 1.391 . S
C1874 H1864 0.950 . S
C1874 C1875 1.386 . S
C1874 C1876 1.391 . S
C1875 C1874 1.386 . S
C1875 C1879 1.393 . S
C1876 H1865 0.950 . S
C1876 C1874 1.391 . S
C1876 C1877 1.400 . S
C1877 C1871 1.491 . S
C1877 C1876 1.400 . S
C1877 C1878 1.398 . S
C1878 H1866 0.950 . S
C1878 C1877 1.398 . S
C1878 C1879 1.391 . S
C1879 H1867 0.950 . S
C1879 C1875 1.393 . S
C1879 C1878 1.391 . S
H1880 C1888 0.950 . S
H1881 C1893 0.950 . S
H1882 C1890 0.950 . S
H1883 C1892 0.950 . S
H1884 C1894 0.950 . S
H1885 C1896 0.950 . S
H1886 C1898 0.950 . S
H1887 C1899 0.950 . S
C1888 H1880 0.950 . S
C1888 C1889 1.386 . S
C1888 C1890 1.391 . S
C1889 C1888 1.386 . S
C1889 C1893 1.393 . S
C1890 H1882 0.950 . S
C1890 C1888 1.391 . S
C1890 C1891 1.400 . S
C1891 C1890 1.400 . S
C1891 C1892 1.398 . S
C1891 C1897 1.491 . S
C1892 H1883 0.950 . S
C1892 C1891 1.398 . S
C1892 C1893 1.391 . S
C1893 H1881 0.950 . S
C1893 C1889 1.393 . S
C1893 C1892 1.391 . S
C1894 H1884 0.950 . S
C1894 C1895 1.386 . S
C1894 C1896 1.391 . S
C1895 C1894 1.386 . S
C1895 C1899 1.393 . S
C1896 H1885 0.950 . S
C1896 C1894 1.391 . S
C1896 C1897 1.400 . S
C1897 C1891 1.491 . S
C1897 C1896 1.400 . S
C1897 C1898 1.398 . S
C1898 H1886 0.950 . S
C1898 C1897 1.398 . S
C1898 C1899 1.391 . S
C1899 H1887 0.950 . S
C1899 C1895 1.393 . S
C1899 C1898 1.391 . S
H1900 C1908 0.950 . S
H1901 C1913 0.950 . S
H1902 C1910 0.950 . S
H1903 C1912 0.950 . S
H1904 C1914 0.950 . S
H1905 C1916 0.950 . S
H1906 C1918 0.950 . S
H1907 C1919 0.950 . S
C1908 H1900 0.950 . S
C1908 C1909 1.386 . S
C1908 C1910 1.391 . S
C1909 C1908 1.386 . S
C1909 C1913 1.393 . S
C1910 H1902 0.950 . S
C1910 C1908 1.391 . S
C1910 C1911 1.400 . S
C1911 C1910 1.400 . S
C1911 C1912 1.398 . S
C1911 C1917 1.491 . S
C1912 H1903 0.950 . S
C1912 C1911 1.398 . S
C1912 C1913 1.391 . S
C1913 H1901 0.950 . S
C1913 C1909 1.393 . S
C1913 C1912 1.391 . S
C1914 H1904 0.950 . S
C1914 C1915 1.386 . S
C1914 C1916 1.391 . S
C1915 C1914 1.386 . S
C1915 C1919 1.393 . S
C1916 H1905 0.950 . S
C1916 C1914 1.391 . S
C1916 C1917 1.400 . S
C1917 C1911 1.491 . S
C1917 C1916 1.400 . S
C1917 C1918 1.398 . S
C1918 H1906 0.950 . S
C1918 C1917 1.398 . S
C1918 C1919 1.391 . S
C1919 H1907 0.950 . S
C1919 C1915 1.393 . S
C1919 C1918 1.391 . S
H1920 C1928 0.950 . S
H1921 C1933 0.950 . S
H1922 C1930 0.950 . S
H1923 C1932 0.950 . S
H1924 C1934 0.950 . S
H1925 C1936 0.950 . S
H1926 C1938 0.950 . S
H1927 C1939 0.950 . S
C1928 H1920 0.950 . S
C1928 C1929 1.376 1_566 S
C1928 C1930 1.391 . S
C1929 C1928 1.376 1_544 S
C1929 C1933 1.397 . S
C1930 H1922 0.950 . S
C1930 C1928 1.391 . S
C1930 C1931 1.404 . S
C1931 C1930 1.404 . S
C1931 C1932 1.395 1_565 S
C1931 C1937 1.491 1_565 S
C1932 H1923 0.950 . S
C1932 C1931 1.395 1_545 S
C1932 C1933 1.391 1_556 S
C1933 H1921 0.950 . S
C1933 C1929 1.397 . S
C1933 C1932 1.391 1_554 S
C1934 H1924 0.950 . S
C1934 C1935 1.378 1_545 S
C1934 C1936 1.391 . S
C1935 C1934 1.378 1_565 S
C1935 C1939 1.401 . S
C1936 H1925 0.950 . S
C1936 C1934 1.391 . S
C1936 C1937 1.399 . S
C1937 C1931 1.491 1_545 S
C1937 C1936 1.399 . S
C1937 C1938 1.400 1_545 S
C1938 H1926 0.950 . S
C1938 C1937 1.400 1_565 S
C1938 C1939 1.391 . S
C1939 H1927 0.950 . S
C1939 C1935 1.401 . S
C1939 C1938 1.391 . S
H1940 C1948 0.950 . S
H1941 C1953 0.950 . S
H1942 C1950 0.950 . S
H1943 C1952 0.950 . S
H1944 C1954 0.950 . S
H1945 C1956 0.950 . S
H1946 C1958 0.950 . S
H1947 C1959 0.950 . S
C1948 H1940 0.950 . S
C1948 C1949 1.386 . S
C1948 C1950 1.391 . S
C1949 C1948 1.386 . S
C1949 C1953 1.393 . S
C1950 H1942 0.950 . S
C1950 C1948 1.391 . S
C1950 C1951 1.400 . S
C1951 C1950 1.400 . S
C1951 C1952 1.398 . S
C1951 C1957 1.491 . S
C1952 H1943 0.950 . S
C1952 C1951 1.398 . S
C1952 C1953 1.391 . S
C1953 H1941 0.950 . S
C1953 C1949 1.393 . S
C1953 C1952 1.391 . S
C1954 H1944 0.950 . S
C1954 C1955 1.371 1_556 S
C1954 C1956 1.391 1_655 S
C1955 C1954 1.371 1_554 S
C1955 C1959 1.394 1_655 S
C1956 H1945 0.950 . S
C1956 C1954 1.391 1_455 S
C1956 C1957 1.400 . S
C1957 C1951 1.491 . S
C1957 C1956 1.400 . S
C1957 C1958 1.398 . S
C1958 H1946 0.950 . S
C1958 C1957 1.398 . S
C1958 C1959 1.391 1_556 S
C1959 H1947 0.950 . S
C1959 C1955 1.394 1_455 S
C1959 C1958 1.391 1_554 S
H1960 C1968 0.950 . S
H1961 C1973 0.950 . S
H1962 C1970 0.950 . S
H1963 C1972 0.950 . S
H1964 C1974 0.950 . S
H1965 C1976 0.950 . S
H1966 C1978 0.950 . S
H1967 C1979 0.950 . S
C1968 H1960 0.950 . S
C1968 C1969 1.386 . S
C1968 C1970 1.391 . S
C1969 C1968 1.386 . S
C1969 C1973 1.393 . S
C1970 H1962 0.950 . S
C1970 C1968 1.391 . S
C1970 C1971 1.400 . S
C1971 C1970 1.400 . S
C1971 C1972 1.398 . S
C1971 C1977 1.491 . S
C1972 H1963 0.950 . S
C1972 C1971 1.398 . S
C1972 C1973 1.391 . S
C1973 H1961 0.950 . S
C1973 C1969 1.393 . S
C1973 C1972 1.391 . S
C1974 H1964 0.950 . S
C1974 C1975 1.386 . S
C1974 C1976 1.391 . S
C1975 C1974 1.386 . S
C1975 C1979 1.393 . S
C1976 H1965 0.950 . S
C1976 C1974 1.391 . S
C1976 C1977 1.400 . S
C1977 C1971 1.491 . S
C1977 C1976 1.400 . S
C1977 C1978 1.398 . S
C1978 H1966 0.950 . S
C1978 C1977 1.398 . S
C1978 C1979 1.391 . S
C1979 H1967 0.950 . S
C1979 C1975 1.393 . S
C1979 C1978 1.391 . S
H1980 C1988 0.950 . S
H1981 C1993 0.950 . S
H1982 C1990 0.950 . S
H1983 C1992 0.950 . S
H1984 C1994 0.950 . S
H1985 C1996 0.950 . S
H1986 C1998 0.950 . S
H1987 C1999 0.950 . S
C1988 H1980 0.950 . S
C1988 C1989 1.386 1_455 S
C1988 C1990 1.391 . S
C1989 C1988 1.386 1_655 S
C1989 C1993 1.393 1_545 S
C1990 H1982 0.950 . S
C1990 C1988 1.391 . S
C1990 C1991 1.407 . S
C1991 C1990 1.407 . S
C1991 C1992 1.392 1_545 S
C1991 C1997 1.490 1_545 S
C1992 H1983 0.950 . S
C1992 C1991 1.392 1_565 S
C1992 C1993 1.391 1_455 S
C1993 H1981 0.950 . S
C1993 C1989 1.393 1_565 S
C1993 C1992 1.391 1_655 S
C1994 H1984 0.950 . S
C1994 C1995 1.386 . S
C1994 C1996 1.391 . S
C1995 C1994 1.386 . S
C1995 C1999 1.393 1_565 S
C1996 H1985 0.950 . S
C1996 C1994 1.391 . S
C1996 C1997 1.419 . S
C1997 C1991 1.490 1_565 S
C1997 C1996 1.419 . S
C1997 C1998 1.380 1_565 S
C1998 H1986 0.950 . S
C1998 C1997 1.380 1_545 S
C1998 C1999 1.391 . S
C1999 H1987 0.950 . S
C1999 C1995 1.393 1_545 S
C1999 C1998 1.391 . S
H2000 C2008 0.950 . S
H2001 C2013 0.950 . S
H2002 C2010 0.950 . S
H2003 C2012 0.950 . S
H2004 C2014 0.950 . S
H2005 C2016 0.950 . S
H2006 C2018 0.950 . S
H2007 C2019 0.950 1_556 S
C2008 H2000 0.950 . S
C2008 C2009 1.386 1_565 S
C2008 C2010 1.391 . S
C2009 C2008 1.386 1_545 S
C2009 C2013 1.393 . S
C2010 H2002 0.950 . S
C2010 C2008 1.391 . S
C2010 C2011 1.394 1_565 S
C2011 C2010 1.394 1_545 S
C2011 C2012 1.404 . S
C2011 C2017 1.491 . S
C2012 H2003 0.950 . S
C2012 C2011 1.404 . S
C2012 C2013 1.391 . S
C2013 H2001 0.950 . S
C2013 C2009 1.393 . S
C2013 C2012 1.391 . S
C2014 H2004 0.950 . S
C2014 C2015 1.341 1_544 S
C2014 C2016 1.391 . S
C2015 C2014 1.341 1_566 S
C2015 C2019 1.420 1_556 S
C2016 H2005 0.950 . S
C2016 C2014 1.391 . S
C2016 C2017 1.398 . S
C2017 C2011 1.491 . S
C2017 C2016 1.398 . S
C2017 C2018 1.401 1_545 S
C2018 H2006 0.950 . S
C2018 C2017 1.401 1_565 S
C2018 C2019 1.391 . S
C2019 H2007 0.950 1_554 S
C2019 C2015 1.420 1_554 S
C2019 C2018 1.391 . S
H2020 C2028 0.950 . S
H2021 C2033 0.950 . S
H2022 C2030 0.950 . S
H2023 C2032 0.950 . S
H2024 C2034 0.950 . S
H2025 C2036 0.950 . S
H2026 C2038 0.950 . S
H2027 C2039 0.950 . S
C2028 H2020 0.950 . S
C2028 C2029 1.372 1_554 S
C2028 C2030 1.391 1_455 S
C2029 C2028 1.372 1_556 S
C2029 C2033 1.395 1_455 S
C2030 H2022 0.950 . S
C2030 C2028 1.391 1_655 S
C2030 C2031 1.400 . S
C2031 C2030 1.400 . S
C2031 C2032 1.398 . S
C2031 C2037 1.491 . S
C2032 H2023 0.950 . S
C2032 C2031 1.398 . S
C2032 C2033 1.391 1_554 S
C2033 H2021 0.950 . S
C2033 C2029 1.395 1_655 S
C2033 C2032 1.391 1_556 S
C2034 H2024 0.950 . S
C2034 C2035 1.386 . S
C2034 C2036 1.391 . S
C2035 C2034 1.386 . S
C2035 C2039 1.393 . S
C2036 H2025 0.950 . S
C2036 C2034 1.391 . S
C2036 C2037 1.400 . S
C2037 C2031 1.491 . S
C2037 C2036 1.400 . S
C2037 C2038 1.398 . S
C2038 H2026 0.950 . S
C2038 C2037 1.398 . S
C2038 C2039 1.391 . S
C2039 H2027 0.950 . S
C2039 C2035 1.393 . S
C2039 C2038 1.391 . S
H2040 C2048 0.950 . S
H2041 C2053 0.950 . S
H2042 C2050 0.950 . S
H2043 C2052 0.950 . S
H2044 C2054 0.950 . S
H2045 C2056 0.950 . S
H2046 C2058 0.950 . S
H2047 C2059 0.950 . S
C2048 H2040 0.950 . S
C2048 C2049 1.386 . S
C2048 C2050 1.391 . S
C2049 C2048 1.386 . S
C2049 C2053 1.393 . S
C2050 H2042 0.950 . S
C2050 C2048 1.391 . S
C2050 C2051 1.400 . S
C2051 C2050 1.400 . S
C2051 C2052 1.398 . S
C2051 C2057 1.491 . S
C2052 H2043 0.950 . S
C2052 C2051 1.398 . S
C2052 C2053 1.391 . S
C2053 H2041 0.950 . S
C2053 C2049 1.393 . S
C2053 C2052 1.391 . S
C2054 H2044 0.950 . S
C2054 C2055 1.386 . S
C2054 C2056 1.391 . S
C2055 C2054 1.386 . S
C2055 C2059 1.393 . S
C2056 H2045 0.950 . S
C2056 C2054 1.391 . S
C2056 C2057 1.400 . S
C2057 C2051 1.491 . S
C2057 C2056 1.400 . S
C2057 C2058 1.398 . S
C2058 H2046 0.950 . S
C2058 C2057 1.398 . S
C2058 C2059 1.391 . S
C2059 H2047 0.950 . S
C2059 C2055 1.393 . S
C2059 C2058 1.391 . S
H2060 C2068 0.950 . S
H2061 C2073 0.950 . S
H2062 C2070 0.950 . S
H2063 C2072 0.950 . S
H2064 C2074 0.950 . S
H2065 C2076 0.950 . S
H2066 C2078 0.950 . S
H2067 C2079 0.950 . S
C2068 H2060 0.950 . S
C2068 C2069 1.386 . S
C2068 C2070 1.391 . S
C2069 C2068 1.386 . S
C2069 C2073 1.393 . S
C2070 H2062 0.950 . S
C2070 C2068 1.391 . S
C2070 C2071 1.403 . S
C2071 C2070 1.403 . S
C2071 C2072 1.400 . S
C2071 C2077 1.489 1_545 S
C2072 H2063 0.950 . S
C2072 C2071 1.400 . S
C2072 C2073 1.391 . S
C2073 H2061 0.950 . S
C2073 C2069 1.393 . S
C2073 C2072 1.391 . S
C2074 H2064 0.950 . S
C2074 C2075 1.386 1_655 S
C2074 C2076 1.391 . S
C2075 C2074 1.386 1_455 S
C2075 C2079 1.393 . S
C2076 H2065 0.950 . S
C2076 C2074 1.391 . S
C2076 C2077 1.402 . S
C2077 C2071 1.489 1_565 S
C2077 C2076 1.402 . S
C2077 C2078 1.399 . S
C2078 H2066 0.950 . S
C2078 C2077 1.399 . S
C2078 C2079 1.391 1_655 S
C2079 H2067 0.950 . S
C2079 C2075 1.393 . S
C2079 C2078 1.391 1_455 S
H2080 C2088 0.950 . S
H2081 C2093 0.950 . S
H2082 C2090 0.950 . S
H2083 C2092 0.950 . S
H2084 C2094 0.950 . S
H2085 C2096 0.950 . S
H2086 C2098 0.950 . S
H2087 C2099 0.950 . S
C2088 H2080 0.950 . S
C2088 C2089 1.386 . S
C2088 C2090 1.391 . S
C2089 C2088 1.386 . S
C2089 C2093 1.393 . S
C2090 H2082 0.950 . S
C2090 C2088 1.391 . S
C2090 C2091 1.400 . S
C2091 C2090 1.400 . S
C2091 C2092 1.398 . S
C2091 C2097 1.491 . S
C2092 H2083 0.950 . S
C2092 C2091 1.398 . S
C2092 C2093 1.391 . S
C2093 H2081 0.950 . S
C2093 C2089 1.393 . S
C2093 C2092 1.391 . S
C2094 H2084 0.950 . S
C2094 C2095 1.386 . S
C2094 C2096 1.391 . S
C2095 C2094 1.386 . S
C2095 C2099 1.393 . S
C2096 H2085 0.950 . S
C2096 C2094 1.391 . S
C2096 C2097 1.400 . S
C2097 C2091 1.491 . S
C2097 C2096 1.400 . S
C2097 C2098 1.398 . S
C2098 H2086 0.950 . S
C2098 C2097 1.398 . S
C2098 C2099 1.391 . S
C2099 H2087 0.950 . S
C2099 C2095 1.393 . S
C2099 C2098 1.391 . S
H2100 C2108 0.950 . S
H2101 C2113 0.950 . S
H2102 C2110 0.950 . S
H2103 C2112 0.950 . S
H2104 C2114 0.950 . S
H2105 C2116 0.950 . S
H2106 C2118 0.950 . S
H2107 C2119 0.950 . S
C2108 H2100 0.950 . S
C2108 C2109 1.386 . S
C2108 C2110 1.391 . S
C2109 C2108 1.386 . S
C2109 C2113 1.393 . S
C2110 H2102 0.950 . S
C2110 C2108 1.391 . S
C2110 C2111 1.400 . S
C2111 C2110 1.400 . S
C2111 C2112 1.398 . S
C2111 C2117 1.491 . S
C2112 H2103 0.950 . S
C2112 C2111 1.398 . S
C2112 C2113 1.391 . S
C2113 H2101 0.950 . S
C2113 C2109 1.393 . S
C2113 C2112 1.391 . S
C2114 H2104 0.950 . S
C2114 C2115 1.386 . S
C2114 C2116 1.391 1_655 S
C2115 C2114 1.386 . S
C2115 C2119 1.393 1_655 S
C2116 H2105 0.950 . S
C2116 C2114 1.391 1_455 S
C2116 C2117 1.400 . S
C2117 C2111 1.491 . S
C2117 C2116 1.400 . S
C2117 C2118 1.398 . S
C2118 H2106 0.950 . S
C2118 C2117 1.398 . S
C2118 C2119 1.391 . S
C2119 H2107 0.950 . S
C2119 C2115 1.393 1_455 S
C2119 C2118 1.391 . S
H2120 C2128 0.950 . S
H2121 C2133 0.950 . S
H2122 C2130 0.950 . S
H2123 C2132 0.950 . S
H2124 C2134 0.950 . S
H2125 C2136 0.950 . S
H2126 C2138 0.950 . S
H2127 C2139 0.950 . S
C2128 H2120 0.950 . S
C2128 C2129 1.386 . S
C2128 C2130 1.391 . S
C2129 C2128 1.386 . S
C2129 C2133 1.393 . S
C2130 H2122 0.950 . S
C2130 C2128 1.391 . S
C2130 C2131 1.400 . S
C2131 C2130 1.400 . S
C2131 C2132 1.398 . S
C2131 C2137 1.491 . S
C2132 H2123 0.950 . S
C2132 C2131 1.398 . S
C2132 C2133 1.391 . S
C2133 H2121 0.950 . S
C2133 C2129 1.393 . S
C2133 C2132 1.391 . S
C2134 H2124 0.950 . S
C2134 C2135 1.386 . S
C2134 C2136 1.391 . S
C2135 C2134 1.386 . S
C2135 C2139 1.393 . S
C2136 H2125 0.950 . S
C2136 C2134 1.391 . S
C2136 C2137 1.400 . S
C2137 C2131 1.491 . S
C2137 C2136 1.400 . S
C2137 C2138 1.398 . S
C2138 H2126 0.950 . S
C2138 C2137 1.398 . S
C2138 C2139 1.391 . S
C2139 H2127 0.950 . S
C2139 C2135 1.393 . S
C2139 C2138 1.391 . S
H2140 C2148 0.950 . S
H2141 C2153 0.950 . S
H2142 C2150 0.950 . S
H2143 C2152 0.950 . S
H2144 C2154 0.950 . S
H2145 C2156 0.950 . S
H2146 C2158 0.950 . S
H2147 C2159 0.950 . S
C2148 H2140 0.950 . S
C2148 C2149 1.386 . S
C2148 C2150 1.391 . S
C2149 C2148 1.386 . S
C2149 C2153 1.393 . S
C2150 H2142 0.950 . S
C2150 C2148 1.391 . S
C2150 C2151 1.400 . S
C2151 C2150 1.400 . S
C2151 C2152 1.398 . S
C2151 C2157 1.491 . S
C2152 H2143 0.950 . S
C2152 C2151 1.398 . S
C2152 C2153 1.391 . S
C2153 H2141 0.950 . S
C2153 C2149 1.393 . S
C2153 C2152 1.391 . S
C2154 H2144 0.950 . S
C2154 C2155 1.386 . S
C2154 C2156 1.391 1_655 S
C2155 C2154 1.386 . S
C2155 C2159 1.393 1_655 S
C2156 H2145 0.950 . S
C2156 C2154 1.391 1_455 S
C2156 C2157 1.400 . S
C2157 C2151 1.491 . S
C2157 C2156 1.400 . S
C2157 C2158 1.398 . S
C2158 H2146 0.950 . S
C2158 C2157 1.398 . S
C2158 C2159 1.391 . S
C2159 H2147 0.950 . S
C2159 C2155 1.393 1_455 S
C2159 C2158 1.391 . S
H2160 C2168 0.950 . S
H2161 C2173 0.950 . S
H2162 C2170 0.950 . S
H2163 C2172 0.950 . S
H2164 C2174 0.950 . S
H2165 C2176 0.950 . S
H2166 C2178 0.950 . S
H2167 C2179 0.950 . S
C2168 H2160 0.950 . S
C2168 C2169 1.386 . S
C2168 C2170 1.391 . S
C2169 C2168 1.386 . S
C2169 C2173 1.393 . S
C2170 H2162 0.950 . S
C2170 C2168 1.391 . S
C2170 C2171 1.400 . S
C2171 C2170 1.400 . S
C2171 C2172 1.398 . S
C2171 C2177 1.491 . S
C2172 H2163 0.950 . S
C2172 C2171 1.398 . S
C2172 C2173 1.391 . S
C2173 H2161 0.950 . S
C2173 C2169 1.393 . S
C2173 C2172 1.391 . S
C2174 H2164 0.950 . S
C2174 C2175 1.386 . S
C2174 C2176 1.391 . S
C2175 C2174 1.386 . S
C2175 C2179 1.393 . S
C2176 H2165 0.950 . S
C2176 C2174 1.391 . S
C2176 C2177 1.400 . S
C2177 C2171 1.491 . S
C2177 C2176 1.400 . S
C2177 C2178 1.398 . S
C2178 H2166 0.950 . S
C2178 C2177 1.398 . S
C2178 C2179 1.391 . S
C2179 H2167 0.950 . S
C2179 C2175 1.393 . S
C2179 C2178 1.391 . S
H2180 C2188 0.949 . S
H2181 C2193 0.950 . S
H2182 C2190 0.950 . S
H2183 C2192 0.950 . S
H2184 C2194 0.950 . S
H2185 C2196 0.950 . S
H2186 C2198 0.950 . S
H2187 C2199 0.950 . S
C2188 H2180 0.949 . S
C2188 C2189 1.385 . S
C2188 C2190 1.392 1_455 S
C2189 C2188 1.385 . S
C2189 C2193 1.393 1_455 S
C2190 H2182 0.950 . S
C2190 C2188 1.392 1_655 S
C2190 C2191 1.400 . S
C2191 C2190 1.400 . S
C2191 C2192 1.398 . S
C2191 C2197 1.491 . S
C2192 H2183 0.950 . S
C2192 C2191 1.398 . S
C2192 C2193 1.391 . S
C2193 H2181 0.950 . S
C2193 C2189 1.393 1_655 S
C2193 C2192 1.391 . S
C2194 H2184 0.950 . S
C2194 C2195 1.386 . S
C2194 C2196 1.391 . S
C2195 C2194 1.386 . S
C2195 C2199 1.393 . S
C2196 H2185 0.950 . S
C2196 C2194 1.391 . S
C2196 C2197 1.400 . S
C2197 C2191 1.491 . S
C2197 C2196 1.400 . S
C2197 C2198 1.398 . S
C2198 H2186 0.950 . S
C2198 C2197 1.398 . S
C2198 C2199 1.391 . S
C2199 H2187 0.950 . S
C2199 C2195 1.393 . S
C2199 C2198 1.391 . S
H2200 C2208 0.950 . S
H2201 C2213 0.950 . S
H2202 C2210 0.950 . S
H2203 C2212 0.950 . S
H2204 C2214 0.950 . S
H2205 C2216 0.950 . S
H2206 C2218 0.950 . S
H2207 C2219 0.950 . S
C2208 H2200 0.950 . S
C2208 C2209 1.386 . S
C2208 C2210 1.391 . S
C2209 C2208 1.386 . S
C2209 C2213 1.393 . S
C2210 H2202 0.950 . S
C2210 C2208 1.391 . S
C2210 C2211 1.400 . S
C2211 C2210 1.400 . S
C2211 C2212 1.398 . S
C2211 C2217 1.491 . S
C2212 H2203 0.950 . S
C2212 C2211 1.398 . S
C2212 C2213 1.391 . S
C2213 H2201 0.950 . S
C2213 C2209 1.393 . S
C2213 C2212 1.391 . S
C2214 H2204 0.950 . S
C2214 C2215 1.386 . S
C2214 C2216 1.391 . S
C2215 C2214 1.386 . S
C2215 C2219 1.393 . S
C2216 H2205 0.950 . S
C2216 C2214 1.391 . S
C2216 C2217 1.400 . S
C2217 C2211 1.491 . S
C2217 C2216 1.400 . S
C2217 C2218 1.398 . S
C2218 H2206 0.950 . S
C2218 C2217 1.398 . S
C2218 C2219 1.391 . S
C2219 H2207 0.950 . S
C2219 C2215 1.393 . S
C2219 C2218 1.391 . S
H2220 C2228 0.950 . S
H2221 C2233 0.950 . S
H2222 C2230 0.950 . S
H2223 C2232 0.950 . S
H2224 C2234 0.950 . S
H2225 C2236 0.950 . S
H2226 C2238 0.950 . S
H2227 C2239 0.950 . S
C2228 H2220 0.950 . S
C2228 C2229 1.386 . S
C2228 C2230 1.391 . S
C2229 C2228 1.386 . S
C2229 C2233 1.393 . S
C2230 H2222 0.950 . S
C2230 C2228 1.391 . S
C2230 C2231 1.400 . S
C2231 C2230 1.400 . S
C2231 C2232 1.398 . S
C2231 C2237 1.491 . S
C2232 H2223 0.950 . S
C2232 C2231 1.398 . S
C2232 C2233 1.391 . S
C2233 H2221 0.950 . S
C2233 C2229 1.393 . S
C2233 C2232 1.391 . S
C2234 H2224 0.950 . S
C2234 C2235 1.386 1_655 S
C2234 C2236 1.391 . S
C2235 C2234 1.386 1_455 S
C2235 C2239 1.393 . S
C2236 H2225 0.950 . S
C2236 C2234 1.391 . S
C2236 C2237 1.400 . S
C2237 C2231 1.491 . S
C2237 C2236 1.400 . S
C2237 C2238 1.398 . S
C2238 H2226 0.950 . S
C2238 C2237 1.398 . S
C2238 C2239 1.391 1_655 S
C2239 H2227 0.950 . S
C2239 C2235 1.393 . S
C2239 C2238 1.391 1_455 S
H2240 C2248 0.950 . S
H2241 C2253 0.950 . S
H2242 C2250 0.950 . S
H2243 C2252 0.950 . S
H2244 C2254 0.950 . S
H2245 C2256 0.950 . S
H2246 C2258 0.950 . S
H2247 C2259 0.950 . S
C2248 H2240 0.950 . S
C2248 C2249 1.347 1_565 S
C2248 C2250 1.391 . S
C2249 C2248 1.347 1_545 S
C2249 C2253 1.431 . S
C2250 H2242 0.950 . S
C2250 C2248 1.391 . S
C2250 C2251 1.403 1_565 S
C2251 C2250 1.403 1_545 S
C2251 C2252 1.395 . S
C2251 C2257 1.491 1_545 S
C2252 H2243 0.950 . S
C2252 C2251 1.395 . S
C2252 C2253 1.391 . S
C2253 H2241 0.950 . S
C2253 C2249 1.431 . S
C2253 C2252 1.391 . S
C2254 H2244 0.950 . S
C2254 C2255 1.386 1_545 S
C2254 C2256 1.391 . S
C2255 C2254 1.386 1_565 S
C2255 C2259 1.393 . S
C2256 H2245 0.950 . S
C2256 C2254 1.391 . S
C2256 C2257 1.391 1_545 S
C2257 C2251 1.491 1_565 S
C2257 C2256 1.391 1_565 S
C2257 C2258 1.408 . S
C2258 H2246 0.950 . S
C2258 C2257 1.408 . S
C2258 C2259 1.391 . S
C2259 H2247 0.950 . S
C2259 C2255 1.393 . S
C2259 C2258 1.391 . S
H2260 C2268 0.950 . S
H2261 C2273 0.950 . S
H2262 C2270 0.950 . S
H2263 C2272 0.950 . S
H2264 C2274 0.950 . S
H2265 C2276 0.950 . S
H2266 C2278 0.950 . S
H2267 C2279 0.950 . S
C2268 H2260 0.950 . S
C2268 C2269 1.386 . S
C2268 C2270 1.391 . S
C2269 C2268 1.386 . S
C2269 C2273 1.393 . S
C2270 H2262 0.950 . S
C2270 C2268 1.391 . S
C2270 C2271 1.400 . S
C2271 C2270 1.400 . S
C2271 C2272 1.398 . S
C2271 C2277 1.491 . S
C2272 H2263 0.950 . S
C2272 C2271 1.398 . S
C2272 C2273 1.391 . S
C2273 H2261 0.950 . S
C2273 C2269 1.393 . S
C2273 C2272 1.391 . S
C2274 H2264 0.950 . S
C2274 C2275 1.386 . S
C2274 C2276 1.391 . S
C2275 C2274 1.386 . S
C2275 C2279 1.393 . S
C2276 H2265 0.950 . S
C2276 C2274 1.391 . S
C2276 C2277 1.400 . S
C2277 C2271 1.491 . S
C2277 C2276 1.400 . S
C2277 C2278 1.398 . S
C2278 H2266 0.950 . S
C2278 C2277 1.398 . S
C2278 C2279 1.391 . S
C2279 H2267 0.950 . S
C2279 C2275 1.393 . S
C2279 C2278 1.391 . S
H2280 C2288 0.950 . S
H2281 C2293 0.950 . S
H2282 C2290 0.950 . S
H2283 C2292 0.950 . S
H2284 C2294 0.950 . S
H2285 C2296 0.950 . S
H2286 C2298 0.950 . S
H2287 C2299 0.950 . S
C2288 H2280 0.950 . S
C2288 C2289 1.386 . S
C2288 C2290 1.391 . S
C2289 C2288 1.386 . S
C2289 C2293 1.393 . S
C2290 H2282 0.950 . S
C2290 C2288 1.391 . S
C2290 C2291 1.400 . S
C2291 C2290 1.400 . S
C2291 C2292 1.398 . S
C2291 C2297 1.491 . S
C2292 H2283 0.950 . S
C2292 C2291 1.398 . S
C2292 C2293 1.391 . S
C2293 H2281 0.950 . S
C2293 C2289 1.393 . S
C2293 C2292 1.391 . S
C2294 H2284 0.950 . S
C2294 C2295 1.386 . S
C2294 C2296 1.391 . S
C2295 C2294 1.386 . S
C2295 C2299 1.393 . S
C2296 H2285 0.950 . S
C2296 C2294 1.391 . S
C2296 C2297 1.400 . S
C2297 C2291 1.491 . S
C2297 C2296 1.400 . S
C2297 C2298 1.398 . S
C2298 H2286 0.950 . S
C2298 C2297 1.398 . S
C2298 C2299 1.391 . S
C2299 H2287 0.950 . S
C2299 C2295 1.393 . S
C2299 C2298 1.391 . S
H2300 C2308 0.950 . S
H2301 C2313 0.950 . S
H2302 C2310 0.950 . S
H2303 C2312 0.952 . S
H2304 C2314 0.950 . S
H2305 C2316 0.950 . S
H2306 C2318 0.950 . S
H2307 C2319 0.950 . S
C2308 H2300 0.950 . S
C2308 C2309 1.385 1_565 S
C2308 C2310 1.391 . S
C2309 C2308 1.385 1_545 S
C2309 C2313 1.393 . S
C2310 H2302 0.950 . S
C2310 C2308 1.391 . S
C2310 C2311 1.401 . S
C2311 C2310 1.401 . S
C2311 C2312 1.397 1_565 S
C2311 C2317 1.490 1_565 S
C2312 H2303 0.952 . S
C2312 C2311 1.397 1_545 S
C2312 C2313 1.392 . S
C2313 H2301 0.950 . S
C2313 C2309 1.393 . S
C2313 C2312 1.392 . S
C2314 H2304 0.950 . S
C2314 C2315 1.384 1_545 S
C2314 C2316 1.391 . S
C2315 C2314 1.384 1_565 S
C2315 C2319 1.394 . S
C2316 H2305 0.950 . S
C2316 C2314 1.391 . S
C2316 C2317 1.400 . S
C2317 C2311 1.490 1_545 S
C2317 C2316 1.400 . S
C2317 C2318 1.398 1_545 S
C2318 H2306 0.950 . S
C2318 C2317 1.398 1_565 S
C2318 C2319 1.391 . S
C2319 H2307 0.950 . S
C2319 C2315 1.394 . S
C2319 C2318 1.391 . S
H2320 C2328 0.950 . S
H2321 C2333 0.950 . S
H2322 C2330 0.950 . S
H2323 C2332 0.950 . S
H2324 C2334 0.950 . S
H2325 C2336 0.950 . S
H2326 C2338 0.950 . S
H2327 C2339 0.950 . S
C2328 H2320 0.950 . S
C2328 C2329 1.386 1_545 S
C2328 C2330 1.391 . S
C2329 C2328 1.386 1_565 S
C2329 C2333 1.393 . S
C2330 H2322 0.950 . S
C2330 C2328 1.391 . S
C2330 C2331 1.394 1_545 S
C2331 C2330 1.394 1_565 S
C2331 C2332 1.406 . S
C2331 C2337 1.489 1_565 S
C2332 H2323 0.950 . S
C2332 C2331 1.406 . S
C2332 C2333 1.391 . S
C2333 H2321 0.950 . S
C2333 C2329 1.393 . S
C2333 C2332 1.391 . S
C2334 H2324 0.950 . S
C2334 C2335 1.386 1_565 S
C2334 C2336 1.391 . S
C2335 C2334 1.386 1_545 S
C2335 C2339 1.393 . S
C2336 H2325 0.950 . S
C2336 C2334 1.391 . S
C2336 C2337 1.391 1_565 S
C2337 C2331 1.489 1_545 S
C2337 C2336 1.391 1_545 S
C2337 C2338 1.411 . S
C2338 H2326 0.950 . S
C2338 C2337 1.411 . S
C2338 C2339 1.391 . S
C2339 H2327 0.950 . S
C2339 C2335 1.393 . S
C2339 C2338 1.391 . S
H2340 C2348 0.950 . S
H2341 C2353 0.950 . S
H2342 C2350 0.950 . S
H2343 C2352 0.950 . S
H2344 C2354 0.950 . S
H2345 C2356 0.950 . S
H2346 C2358 0.950 . S
H2347 C2359 0.950 . S
C2348 H2340 0.950 . S
C2348 C2349 1.386 . S
C2348 C2350 1.391 . S
C2349 C2348 1.386 . S
C2349 C2353 1.393 . S
C2350 H2342 0.950 . S
C2350 C2348 1.391 . S
C2350 C2351 1.400 . S
C2351 C2350 1.400 . S
C2351 C2352 1.398 . S
C2351 C2357 1.491 . S
C2352 H2343 0.950 . S
C2352 C2351 1.398 . S
C2352 C2353 1.391 . S
C2353 H2341 0.950 . S
C2353 C2349 1.393 . S
C2353 C2352 1.391 . S
C2354 H2344 0.950 . S
C2354 C2355 1.386 . S
C2354 C2356 1.391 . S
C2355 C2354 1.386 . S
C2355 C2359 1.393 . S
C2356 H2345 0.950 . S
C2356 C2354 1.391 . S
C2356 C2357 1.400 . S
C2357 C2351 1.491 . S
C2357 C2356 1.400 . S
C2357 C2358 1.398 . S
C2358 H2346 0.950 . S
C2358 C2357 1.398 . S
C2358 C2359 1.391 . S
C2359 H2347 0.950 . S
C2359 C2355 1.393 . S
C2359 C2358 1.391 . S
H2360 C2368 0.950 . S
H2361 C2373 0.950 . S
H2362 C2370 0.950 . S
H2363 C2372 0.950 . S
H2364 C2374 0.950 . S
H2365 C2376 0.950 . S
H2366 C2378 0.950 . S
H2367 C2379 0.950 . S
C2368 H2360 0.950 . S
C2368 C2369 1.386 . S
C2368 C2370 1.391 . S
C2369 C2368 1.386 . S
C2369 C2373 1.393 . S
C2370 H2362 0.950 . S
C2370 C2368 1.391 . S
C2370 C2371 1.400 . S
C2371 C2370 1.400 . S
C2371 C2372 1.398 . S
C2371 C2377 1.491 . S
C2372 H2363 0.950 . S
C2372 C2371 1.398 . S
C2372 C2373 1.391 . S
C2373 H2361 0.950 . S
C2373 C2369 1.393 . S
C2373 C2372 1.391 . S
C2374 H2364 0.950 . S
C2374 C2375 1.386 . S
C2374 C2376 1.391 . S
C2375 C2374 1.386 . S
C2375 C2379 1.393 . S
C2376 H2365 0.950 . S
C2376 C2374 1.391 . S
C2376 C2377 1.400 . S
C2377 C2371 1.491 . S
C2377 C2376 1.400 . S
C2377 C2378 1.398 . S
C2378 H2366 0.950 . S
C2378 C2377 1.398 . S
C2378 C2379 1.391 . S
C2379 H2367 0.950 . S
C2379 C2375 1.393 . S
C2379 C2378 1.391 . S
H2380 C2388 0.950 . S
H2381 C2393 0.950 . S
H2382 C2390 0.950 . S
H2383 C2392 0.950 . S
H2384 C2394 0.950 . S
H2385 C2396 0.950 . S
H2386 C2398 0.950 . S
H2387 C2399 0.950 . S
C2388 H2380 0.950 . S
C2388 C2389 1.387 . S
C2388 C2390 1.391 . S
C2389 C2388 1.387 . S
C2389 C2393 1.392 1_565 S
C2390 H2382 0.950 . S
C2390 C2388 1.391 . S
C2390 C2391 1.397 1_565 S
C2391 C2390 1.397 1_545 S
C2391 C2392 1.402 . S
C2391 C2397 1.490 1_545 S
C2392 H2383 0.950 . S
C2392 C2391 1.402 . S
C2392 C2393 1.391 . S
C2393 H2381 0.950 . S
C2393 C2389 1.392 1_545 S
C2393 C2392 1.391 . S
C2394 H2384 0.950 . S
C2394 C2395 1.390 . S
C2394 C2396 1.391 . S
C2395 C2394 1.390 . S
C2395 C2399 1.388 1_545 S
C2396 H2385 0.950 . S
C2396 C2394 1.391 . S
C2396 C2397 1.401 1_545 S
C2397 C2391 1.490 1_565 S
C2397 C2396 1.401 1_565 S
C2397 C2398 1.398 . S
C2398 H2386 0.950 . S
C2398 C2397 1.398 . S
C2398 C2399 1.391 . S
C2399 H2387 0.950 . S
C2399 C2395 1.388 1_565 S
C2399 C2398 1.391 . S
H2400 C2408 0.950 . S
H2401 C2413 0.950 . S
H2402 C2410 0.950 . S
H2403 C2412 0.950 . S
H2404 C2414 0.950 1_554 S
H2405 C2416 0.950 . S
H2406 C2418 0.950 . S
H2407 C2419 0.950 . S
C2408 H2400 0.950 . S
C2408 C2409 1.386 . S
C2408 C2410 1.391 . S
C2409 C2408 1.386 . S
C2409 C2413 1.393 . S
C2410 H2402 0.950 . S
C2410 C2408 1.391 . S
C2410 C2411 1.400 . S
C2411 C2410 1.400 . S
C2411 C2412 1.398 . S
C2411 C2417 1.491 . S
C2412 H2403 0.950 . S
C2412 C2411 1.398 . S
C2412 C2413 1.391 . S
C2413 H2401 0.950 . S
C2413 C2409 1.393 . S
C2413 C2412 1.391 . S
C2414 H2404 0.950 1_556 S
C2414 C2415 1.393 . S
C2414 C2416 1.391 . S
C2415 C2414 1.393 . S
C2415 C2419 1.412 . S
C2416 H2405 0.950 . S
C2416 C2414 1.391 . S
C2416 C2417 1.400 . S
C2417 C2411 1.491 . S
C2417 C2416 1.400 . S
C2417 C2418 1.398 . S
C2418 H2406 0.950 . S
C2418 C2417 1.398 . S
C2418 C2419 1.391 . S
C2419 H2407 0.950 . S
C2419 C2415 1.412 . S
C2419 C2418 1.391 . S
H2420 C2428 0.950 . S
H2421 C2433 0.950 . S
H2422 C2430 0.950 . S
H2423 C2432 0.950 . S
H2424 C2434 0.950 . S
H2425 C2436 0.950 . S
H2426 C2438 0.950 . S
H2427 C2439 0.950 . S
C2428 H2420 0.950 . S
C2428 C2429 1.386 . S
C2428 C2430 1.391 . S
C2429 C2428 1.386 . S
C2429 C2433 1.393 . S
C2430 H2422 0.950 . S
C2430 C2428 1.391 . S
C2430 C2431 1.400 . S
C2431 C2430 1.400 . S
C2431 C2432 1.398 . S
C2431 C2437 1.491 . S
C2432 H2423 0.950 . S
C2432 C2431 1.398 . S
C2432 C2433 1.391 . S
C2433 H2421 0.950 . S
C2433 C2429 1.393 . S
C2433 C2432 1.391 . S
C2434 H2424 0.950 . S
C2434 C2435 1.382 1_554 S
C2434 C2436 1.391 1_554 S
C2435 C2434 1.382 1_556 S
C2435 C2439 1.406 . S
C2436 H2425 0.950 . S
C2436 C2434 1.391 1_556 S
C2436 C2437 1.400 . S
C2437 C2431 1.491 . S
C2437 C2436 1.400 . S
C2437 C2438 1.398 . S
C2438 H2426 0.950 . S
C2438 C2437 1.398 . S
C2438 C2439 1.391 . S
C2439 H2427 0.950 . S
C2439 C2435 1.406 . S
C2439 C2438 1.391 . S
H2440 C2448 0.950 . S
H2441 C2453 0.950 . S
H2442 C2450 0.950 . S
H2443 C2452 0.950 . S
H2444 C2454 0.950 . S
H2445 C2456 0.950 . S
H2446 C2458 0.950 . S
H2447 C2459 0.950 . S
C2448 H2440 0.950 . S
C2448 C2449 1.386 . S
C2448 C2450 1.391 . S
C2449 C2448 1.386 . S
C2449 C2453 1.393 . S
C2450 H2442 0.950 . S
C2450 C2448 1.391 . S
C2450 C2451 1.400 . S
C2451 C2450 1.400 . S
C2451 C2452 1.398 . S
C2451 C2457 1.491 . S
C2452 H2443 0.950 . S
C2452 C2451 1.398 . S
C2452 C2453 1.391 . S
C2453 H2441 0.950 . S
C2453 C2449 1.393 . S
C2453 C2452 1.391 . S
C2454 H2444 0.950 . S
C2454 C2455 1.386 . S
C2454 C2456 1.391 . S
C2455 C2454 1.386 . S
C2455 C2459 1.393 . S
C2456 H2445 0.950 . S
C2456 C2454 1.391 . S
C2456 C2457 1.400 . S
C2457 C2451 1.491 . S
C2457 C2456 1.400 . S
C2457 C2458 1.398 . S
C2458 H2446 0.950 . S
C2458 C2457 1.398 . S
C2458 C2459 1.391 . S
C2459 H2447 0.950 . S
C2459 C2455 1.393 . S
C2459 C2458 1.391 . S
H2460 C2468 0.950 . S
H2461 C2473 0.950 . S
H2462 C2470 0.950 . S
H2463 C2472 0.950 . S
H2464 C2474 0.950 . S
H2465 C2476 0.950 . S
H2466 C2478 0.950 . S
H2467 C2479 0.950 . S
C2468 H2460 0.950 . S
C2468 C2469 1.386 . S
C2468 C2470 1.391 . S
C2469 C2468 1.386 . S
C2469 C2473 1.393 . S
C2470 H2462 0.950 . S
C2470 C2468 1.391 . S
C2470 C2471 1.400 . S
C2471 C2470 1.400 . S
C2471 C2472 1.398 . S
C2471 C2477 1.491 . S
C2472 H2463 0.950 . S
C2472 C2471 1.398 . S
C2472 C2473 1.391 . S
C2473 H2461 0.950 . S
C2473 C2469 1.393 . S
C2473 C2472 1.391 . S
C2474 H2464 0.950 . S
C2474 C2475 1.386 . S
C2474 C2476 1.391 . S
C2475 C2474 1.386 . S
C2475 C2479 1.393 . S
C2476 H2465 0.950 . S
C2476 C2474 1.391 . S
C2476 C2477 1.400 . S
C2477 C2471 1.491 . S
C2477 C2476 1.400 . S
C2477 C2478 1.398 . S
C2478 H2466 0.950 . S
C2478 C2477 1.398 . S
C2478 C2479 1.391 . S
C2479 H2467 0.950 . S
C2479 C2475 1.393 . S
C2479 C2478 1.391 . S
H2480 C2488 0.950 . S
H2481 C2493 0.950 . S
H2482 C2490 0.950 . S
H2483 C2492 0.950 . S
H2484 C2494 0.950 . S
H2485 C2496 0.950 . S
H2486 C2498 0.950 . S
H2487 C2499 0.950 . S
C2488 H2480 0.950 . S
C2488 C2489 1.386 . S
C2488 C2490 1.391 . S
C2489 C2488 1.386 . S
C2489 C2493 1.393 . S
C2490 H2482 0.950 . S
C2490 C2488 1.391 . S
C2490 C2491 1.400 . S
C2491 C2490 1.400 . S
C2491 C2492 1.398 . S
C2491 C2497 1.491 . S
C2492 H2483 0.950 . S
C2492 C2491 1.398 . S
C2492 C2493 1.391 . S
C2493 H2481 0.950 . S
C2493 C2489 1.393 . S
C2493 C2492 1.391 . S
C2494 H2484 0.950 . S
C2494 C2495 1.402 . S
C2494 C2496 1.391 . S
C2495 C2494 1.402 . S
C2495 C2499 1.390 1_554 S
C2496 H2485 0.950 . S
C2496 C2494 1.391 . S
C2496 C2497 1.400 . S
C2497 C2491 1.491 . S
C2497 C2496 1.400 . S
C2497 C2498 1.398 . S
C2498 H2486 0.950 . S
C2498 C2497 1.398 . S
C2498 C2499 1.391 1_554 S
C2499 H2487 0.950 . S
C2499 C2495 1.390 1_556 S
C2499 C2498 1.391 1_556 S
H2500 C2508 0.950 . S
H2501 C2513 0.950 . S
H2502 C2510 0.950 . S
H2503 C2512 0.950 . S
H2504 C2514 0.950 1_556 S
H2505 C2516 0.950 . S
H2506 C2518 0.950 . S
H2507 C2519 0.950 . S
C2508 H2500 0.950 . S
C2508 C2509 1.386 . S
C2508 C2510 1.391 . S
C2509 C2508 1.386 . S
C2509 C2513 1.393 . S
C2510 H2502 0.950 . S
C2510 C2508 1.391 . S
C2510 C2511 1.400 . S
C2511 C2510 1.400 . S
C2511 C2512 1.398 . S
C2511 C2517 1.491 . S
C2512 H2503 0.950 . S
C2512 C2511 1.398 . S
C2512 C2513 1.391 . S
C2513 H2501 0.950 . S
C2513 C2509 1.393 . S
C2513 C2512 1.391 . S
C2514 H2504 0.950 1_554 S
C2514 C2515 1.387 . S
C2514 C2516 1.391 . S
C2515 C2514 1.387 . S
C2515 C2519 1.416 . S
C2516 H2505 0.950 . S
C2516 C2514 1.391 . S
C2516 C2517 1.400 . S
C2517 C2511 1.491 . S
C2517 C2516 1.400 . S
C2517 C2518 1.398 . S
C2518 H2506 0.950 . S
C2518 C2517 1.398 . S
C2518 C2519 1.391 . S
C2519 H2507 0.950 . S
C2519 C2515 1.416 . S
C2519 C2518 1.391 . S
H2520 C2528 0.950 . S
H2521 C2533 0.950 . S
H2522 C2530 0.950 . S
H2523 C2532 0.950 . S
H2524 C2534 0.950 . S
H2525 C2536 0.950 . S
H2526 C2538 0.950 . S
H2527 C2539 0.950 . S
C2528 H2520 0.950 . S
C2528 C2529 1.386 . S
C2528 C2530 1.391 . S
C2529 C2528 1.386 . S
C2529 C2533 1.393 . S
C2530 H2522 0.950 . S
C2530 C2528 1.391 . S
C2530 C2531 1.400 . S
C2531 C2530 1.400 . S
C2531 C2532 1.398 . S
C2531 C2537 1.491 . S
C2532 H2523 0.950 . S
C2532 C2531 1.398 . S
C2532 C2533 1.391 . S
C2533 H2521 0.950 . S
C2533 C2529 1.393 . S
C2533 C2532 1.391 . S
C2534 H2524 0.950 . S
C2534 C2535 1.386 . S
C2534 C2536 1.391 . S
C2535 C2534 1.386 . S
C2535 C2539 1.393 . S
C2536 H2525 0.950 . S
C2536 C2534 1.391 . S
C2536 C2537 1.400 . S
C2537 C2531 1.491 . S
C2537 C2536 1.400 . S
C2537 C2538 1.398 . S
C2538 H2526 0.950 . S
C2538 C2537 1.398 . S
C2538 C2539 1.391 . S
C2539 H2527 0.950 . S
C2539 C2535 1.393 . S
C2539 C2538 1.391 . S
H2540 C2548 0.950 . S
H2541 C2553 0.950 . S
H2542 C2550 0.950 . S
H2543 C2552 0.950 . S
H2544 C2554 0.950 . S
H2545 C2556 0.950 . S
H2546 C2558 0.950 . S
H2547 C2559 0.950 . S
C2548 H2540 0.950 . S
C2548 C2549 1.386 . S
C2548 C2550 1.391 . S
C2549 C2548 1.386 . S
C2549 C2553 1.393 . S
C2550 H2542 0.950 . S
C2550 C2548 1.391 . S
C2550 C2551 1.400 . S
C2551 C2550 1.400 . S
C2551 C2552 1.398 . S
C2551 C2557 1.491 . S
C2552 H2543 0.950 . S
C2552 C2551 1.398 . S
C2552 C2553 1.391 . S
C2553 H2541 0.950 . S
C2553 C2549 1.393 . S
C2553 C2552 1.391 . S
C2554 H2544 0.950 . S
C2554 C2555 1.386 . S
C2554 C2556 1.391 . S
C2555 C2554 1.386 . S
C2555 C2559 1.393 . S
C2556 H2545 0.950 . S
C2556 C2554 1.391 . S
C2556 C2557 1.400 . S
C2557 C2551 1.491 . S
C2557 C2556 1.400 . S
C2557 C2558 1.398 . S
C2558 H2546 0.950 . S
C2558 C2557 1.398 . S
C2558 C2559 1.391 . S
C2559 H2547 0.950 . S
C2559 C2555 1.393 . S
C2559 C2558 1.391 . S
C649 C519 1.685 . S
C655 C19 1.697 . S
C669 C499 1.673 . S
C675 C39 1.676 . S
C689 C559 1.677 . S
C695 C59 1.693 . S
C709 C539 1.689 . S
C715 C79 1.697 . S
C729 C98 1.675 . S
C735 C598 1.691 . S
C749 C118 1.674 . S
C755 C578 1.675 . S
C769 C138 1.675 . S
C775 C638 1.691 . S
C789 C618 1.697 . S
C795 C158 1.685 . S
C809 C359 1.678 . S
C815 C179 1.694 . S
C829 C339 1.684 . S
C835 C199 1.697 . S
C849 C399 1.672 . S
C855 C219 1.678 . S
C869 C379 1.695 . S
C875 C239 1.694 . S
C889 C258 1.672 . S
C895 C438 1.686 . S
C909 C418 1.673 . S
C915 C278 1.687 . S
C929 C298 1.697 . S
C935 C478 1.690 . S
C949 C458 1.675 . S
C955 C318 1.690 . S
C969 C9 1.353 1_565 S
C975 C412 1.353 1_545 S
C989 C272 1.360 . S
C995 C29 1.360 . S
C1009 C612 1.361 . S
C1015 C49 1.361 . S
C1029 C69 1.346 . S
C1035 C152 1.346 . S
C1049 C92 1.361 1_545 S
C1055 C329 1.361 1_565 S
C1069 C112 1.346 . S
C1075 C189 1.346 . S
C1089 C132 1.345 . S
C1095 C529 1.345 . S
C1109 C572 1.345 . S
C1115 C169 1.345 . S
C1129 C452 1.346 . S
C1135 C209 1.346 . S
C1149 C312 1.361 . S
C1155 C229 1.361 . S
C1169 C489 1.350 . S
C1175 C252 1.350 . S
C1189 C292 1.360 . S
C1195 C369 1.360 . S
C1209 C592 1.361 . S
C1215 C349 1.361 . S
C1229 C389 1.356 1_565 S
C1235 C472 1.356 1_545 S
C1249 C509 1.361 . S
C1255 C432 1.361 . S
C1269 C549 1.355 . S
C1275 C632 1.355 . S
C1289 C12 1.694 . S
C1295 C392 1.696 . S
C1309 C32 1.717 . S
C1315 C372 1.712 . S
C1329 C52 1.696 . S
C1335 C352 1.691 . S
C1349 C72 1.717 . S
C1355 C332 1.706 . S
C1369 C89 1.702 . S
C1375 C469 1.694 . S
C1389 C109 1.708 . S
C1395 C449 1.699 . S
C1409 C129 1.704 . S
C1415 C429 1.712 . S
C1429 C149 1.694 . S
C1435 C409 1.697 . S
C1449 C172 1.697 . S
C1455 C552 1.706 . S
C1469 C192 1.696 . S
C1475 C532 1.691 . S
C1489 C212 1.712 . S
C1495 C512 1.717 . S
C1509 C232 1.717 . S
C1515 C492 1.715 . S
C1529 C629 1.717 . S
C1535 C249 1.716 . S
C1549 C609 1.701 . S
C1555 C269 1.694 . S
C1569 C589 1.691 . S
C1575 C289 1.694 . S
C1589 C569 1.694 . S
C1595 C309 1.691 . S
C1609 C58 1.694 . S
C1615 C18 1.690 . S
C1629 C78 1.692 . S
C1635 C38 1.695 . S
C1649 C139 1.694 . S
C1655 C99 1.694 . S
C1669 C119 1.694 . S
C1675 C159 1.694 . S
C1689 C218 1.689 . S
C1695 C178 1.692 . S
C1709 C198 1.691 . S
C1715 C238 1.690 . S
C1729 C299 1.695 . S
C1735 C259 1.692 . S
C1749 C279 1.690 . S
C1755 C319 1.690 . S
C1769 C338 1.690 . S
C1775 C378 1.690 . S
C1789 C358 1.690 . S
C1795 C398 1.690 . S
C1809 C459 1.691 . S
C1815 C419 1.690 . S
C1829 C439 1.689 . S
C1835 C479 1.692 . S
C1849 C498 1.695 . S
C1855 C538 1.694 . S
C1869 C558 1.689 . S
C1875 C518 1.693 . S
C1889 C579 1.690 . S
C1895 C619 1.691 . S
C1909 C599 1.691 . S
C1915 C639 1.695 . S
C1929 C4 1.144 . S
C1935 C144 1.124 1_565 S
C1949 C604 1.143 . S
C1955 C24 1.144 . S
C1969 C44 1.127 . S
C1975 C264 1.112 . S
C1989 C64 1.105 . S
C1995 C404 1.107 1_565 S
C2009 C62 1.139 1_545 S
C2015 C82 1.159 . S
C2029 C102 1.142 . S
C2035 C522 1.142 . S
C2049 C182 1.132 . S
C2055 C122 1.143 . S
C2069 C322 1.127 1_545 S
C2075 C142 1.117 . S
C2089 C164 1.140 . S
C2095 C304 1.127 . S
C2109 C444 1.115 . S
C2115 C184 1.108 . S
C2129 C204 1.142 . S
C2135 C104 1.129 . S
C2149 C564 1.143 . S
C2155 C224 1.139 . S
C2169 C242 1.129 . S
C2175 C222 1.138 . S
C2189 C262 1.143 . S
C2195 C362 1.143 . S
C2209 C282 1.106 . S
C2215 C22 1.110 . S
C2229 C482 1.126 . S
C2235 C302 1.116 . S
C2249 C324 1.153 . S
C2255 C464 1.141 1_565 S
C2269 C344 1.145 . S
C2275 C284 1.140 . S
C2289 C364 1.106 . S
C2295 C584 1.104 . S
C2309 C384 1.136 . S
C2315 C84 1.119 1_565 S
C2329 C402 1.116 . S
C2335 C382 1.127 1_545 S
C2349 C202 1.112 . S
C2355 C422 1.127 . S
C2369 C502 1.131 . S
C2375 C442 1.120 . S
C2389 C462 1.135 . S
C2395 C2 1.118 1_545 S
C2409 C624 1.103 . S
C2415 C484 1.094 1_556 S
C2429 C124 1.109 . S
C2435 C504 1.119 1_556 S
C2449 C424 1.103 . S
C2455 C524 1.110 . S
C2469 C544 1.139 . S
C2475 C244 1.125 . S
C2489 C542 1.107 . S
C2495 C562 1.114 1_554 S
C2509 C42 1.109 . S
C2515 C582 1.094 1_554 S
C2529 C342 1.127 . S
C2535 C602 1.141 . S
C2549 C622 1.118 . S
C2555 C162 1.129 . S
