# Generated by pormake.
# Topology sod, (4)-cn, num edge types: 1
# Building blocks:
#     Node 0, Type 0, BuildingBlock: KUFVIS_clean_sbu_0, # of connection points: 4
#     Node 1, Type 0, BuildingBlock: KUFVIS_clean_sbu_0, # of connection points: 4
#     Node 2, Type 0, BuildingBlock: KUFVIS_clean_sbu_0, # of connection points: 4
#     Node 3, Type 0, BuildingBlock: KUFVIS_clean_sbu_0, # of connection points: 4
#     Node 4, Type 0, BuildingBlock: KUFVIS_clean_sbu_0, # of connection points: 4
#     Node 5, Type 0, BuildingBlock: KUFVIS_clean_sbu_0, # of connection points: 4
#     Node 6, Type 0, BuildingBlock: KUFVIS_clean_sbu_0, # of connection points: 4
#     Node 7, Type 0, BuildingBlock: KUFVIS_clean_sbu_0, # of connection points: 4
#     Node 8, Type 0, BuildingBlock: KUFVIS_clean_sbu_0, # of connection points: 4
#     Node 9, Type 0, BuildingBlock: KUFVIS_clean_sbu_0, # of connection points: 4
#     Node 10, Type 0, BuildingBlock: KUFVIS_clean_sbu_0, # of connection points: 4
#     Node 11, Type 0, BuildingBlock: KUFVIS_clean_sbu_0, # of connection points: 4
#     Edge 12, Type (0, 0), BuildingBlock: XIVTED_clean_linker_0, # of connection points: 2
#     Edge 13, Type (0, 0), BuildingBlock: XIVTED_clean_linker_0, # of connection points: 2
#     Edge 14, Type (0, 0), BuildingBlock: XIVTED_clean_linker_0, # of connection points: 2
#     Edge 15, Type (0, 0), BuildingBlock: XIVTED_clean_linker_0, # of connection points: 2
#     Edge 16, Type (0, 0), BuildingBlock: XIVTED_clean_linker_0, # of connection points: 2
#     Edge 17, Type (0, 0), BuildingBlock: XIVTED_clean_linker_0, # of connection points: 2
#     Edge 18, Type (0, 0), BuildingBlock: XIVTED_clean_linker_0, # of connection points: 2
#     Edge 19, Type (0, 0), BuildingBlock: XIVTED_clean_linker_0, # of connection points: 2
#     Edge 20, Type (0, 0), BuildingBlock: XIVTED_clean_linker_0, # of connection points: 2
#     Edge 21, Type (0, 0), BuildingBlock: XIVTED_clean_linker_0, # of connection points: 2
#     Edge 22, Type (0, 0), BuildingBlock: XIVTED_clean_linker_0, # of connection points: 2
#     Edge 23, Type (0, 0), BuildingBlock: XIVTED_clean_linker_0, # of connection points: 2
#     Edge 24, Type (0, 0), BuildingBlock: XIVTED_clean_linker_0, # of connection points: 2
#     Edge 25, Type (0, 0), BuildingBlock: XIVTED_clean_linker_0, # of connection points: 2
#     Edge 26, Type (0, 0), BuildingBlock: XIVTED_clean_linker_0, # of connection points: 2
#     Edge 27, Type (0, 0), BuildingBlock: XIVTED_clean_linker_0, # of connection points: 2
#     Edge 28, Type (0, 0), BuildingBlock: XIVTED_clean_linker_0, # of connection points: 2
#     Edge 29, Type (0, 0), BuildingBlock: XIVTED_clean_linker_0, # of connection points: 2
#     Edge 30, Type (0, 0), BuildingBlock: XIVTED_clean_linker_0, # of connection points: 2
#     Edge 31, Type (0, 0), BuildingBlock: XIVTED_clean_linker_0, # of connection points: 2
#     Edge 32, Type (0, 0), BuildingBlock: XIVTED_clean_linker_0, # of connection points: 2
#     Edge 33, Type (0, 0), BuildingBlock: XIVTED_clean_linker_0, # of connection points: 2
#     Edge 34, Type (0, 0), BuildingBlock: XIVTED_clean_linker_0, # of connection points: 2
#     Edge 35, Type (0, 0), BuildingBlock: XIVTED_clean_linker_0, # of connection points: 2
# Relax obj value: 0.118
# Max RMSD: 0.164
# Mean RMSD: 0.150
data_MOF--net-sod--node1-KUFVIS_clean_sbu_0--edge1-XIVTED_clean_linker_0
_symmetry_space_group_name_H-M    P1
_symmetry_Int_Tables_number       1
_symmetry_cell_setting            triclinic
loop_
_symmetry_equiv_pos_as_xyz
'x, y, z'
_cell_length_a     42.093569
_cell_length_b     42.03316
_cell_length_c     42.465405
_cell_angle_alpha  91.281821
_cell_angle_beta   90.169399
_cell_angle_gamma 92.791642
loop_
_atom_site_label
_atom_site_type_symbol
_atom_site_fract_x
_atom_site_fract_y
_atom_site_fract_z
_atom_type_partial_charge
Mn0 Mn 0.0337 0.25487 0.51751 0.0
Mn1 Mn 0.96032 0.28156 0.50551 0.0
C2 C 0.98836 0.2232 0.5287 0.0
C3 C 0.07867 0.22662 0.5057 0.0
C4 C 1.00246 0.30532 0.5593 0.0
O5 O 0.04272 0.29036 0.48556 0.0
O6 O 0.99245 0.30683 0.48179 0.0
C7 C 0.95394 0.26341 0.43794 0.0
N8 N 0.94297 0.26153 0.46802 0.0
C9 C 0.89946 0.22565 0.45177 0.0
C10 C 0.91016 0.22734 0.42059 0.0
C11 C 0.9375 0.24635 0.41365 0.0
C12 C 0.91651 0.24361 0.47492 0.0
H13 H 0.97513 0.27772 0.43253 0.0
C14 C 0.02209 0.30902 0.47509 0.0
O15 O 0.07955 0.24995 0.52616 0.0
O16 O 0.05229 0.22127 0.49004 0.0
N17 N 0.92712 0.25864 0.52715 0.0
C18 C 0.92102 0.2583 0.55862 0.0
C19 C 0.89505 0.23959 0.56968 0.0
C20 C 0.87578 0.22145 0.54826 0.0
C21 C 0.88218 0.22275 0.5159 0.0
C22 C 0.90803 0.24221 0.50623 0.0
H23 H 0.93614 0.2718 0.57518 0.0
O24 O 0.01468 0.21949 0.54387 0.0
O25 O 0.98898 0.24627 0.5089 0.0
O26 O 0.02563 0.28856 0.55149 0.0
O27 O 0.97588 0.30363 0.54467 0.0
C28 C 0.86495 0.20428 0.49303 0.0
C29 C 0.87329 0.20594 0.46097 0.0
H30 H 0.8978 0.21384 0.40187 0.0
H31 H 0.94603 0.24764 0.38967 0.0
H32 H 0.89028 0.23864 0.59467 0.0
H33 H 0.8567 0.206 0.55701 0.0
H34 H 0.84625 0.18753 0.50003 0.0
H35 H 0.86002 0.1912 0.44376 0.0
Mn36 Mn 0.76911 0.02405 0.51286 0.0
Mn37 Mn 0.73986 0.09703 0.52182 0.0
C38 C 0.80016 0.06981 0.50113 0.0
C39 C 0.79727 0.97919 0.52478 0.0
C40 C 0.71981 0.05174 0.46885 0.0
O41 O 0.73336 0.01556 0.54496 0.0
O42 O 0.71509 0.06528 0.54647 0.0
C43 C 0.7545 0.10854 0.58951 0.0
N44 N 0.75674 0.11786 0.55906 0.0
C45 C 0.77979 0.16921 0.57493 0.0
C46 C 0.77783 0.16018 0.60649 0.0
C47 C 0.76541 0.12959 0.61379 0.0
C48 C 0.76949 0.14686 0.55174 0.0
H49 H 0.74422 0.08536 0.59524 0.0
C50 C 0.71388 0.03614 0.55468 0.0
O51 O 0.77463 0.97832 0.50415 0.0
O52 O 0.80224 0.0058 0.54076 0.0
N53 N 0.7617 0.13036 0.49953 0.0
C54 C 0.7632 0.1347 0.46788 0.0
C55 C 0.77521 0.16399 0.45651 0.0
C56 C 0.78475 0.18869 0.47781 0.0
C57 C 0.78316 0.18354 0.51032 0.0
C58 C 0.77172 0.15363 0.5202 0.0
H59 H 0.75477 0.11613 0.45148 0.0
O60 O 0.80441 0.04289 0.48648 0.0
O61 O 0.77664 0.0697 0.52081 0.0
O62 O 0.73654 0.02953 0.4782 0.0
O63 O 0.72013 0.07896 0.48258 0.0
C64 C 0.79252 0.20688 0.53329 0.0
C65 C 0.79112 0.19962 0.56557 0.0
H66 H 0.7857 0.17657 0.62531 0.0
H67 H 0.76376 0.12247 0.63808 0.0
H68 H 0.77649 0.16774 0.4314 0.0
H69 H 0.79357 0.21142 0.46897 0.0
H70 H 0.80138 0.23032 0.52637 0.0
H71 H 0.7989 0.21759 0.58298 0.0
Mn72 Mn 0.00349 0.78511 0.53066 0.0
Mn73 Mn 0.07879 0.76311 0.51957 0.0
C74 C 0.04661 0.82087 0.54013 0.0
C75 C 0.95658 0.80961 0.5185 0.0
C76 C 0.03893 0.74122 0.57446 0.0
O77 O 0.9968 0.74655 0.5 0.0
O78 O 0.04825 0.73363 0.49705 0.0
C79 C 0.08291 0.77522 0.45123 0.0
N80 N 0.09411 0.78078 0.48108 0.0
C81 C 0.13446 0.81835 0.46284 0.0
C82 C 0.12348 0.81292 0.4319 0.0
C83 C 0.09761 0.79121 0.42608 0.0
C84 C 0.11918 0.80134 0.48692 0.0
H85 H 0.06282 0.75882 0.44661 0.0
C86 C 0.01879 0.72871 0.49004 0.0
O87 O 0.95757 0.7882 0.5399 0.0
O88 O 0.98211 0.81458 0.5018 0.0
N89 N 0.11059 0.7904 0.53983 0.0
C90 C 0.11732 0.79402 0.57114 0.0
C91 C 0.14216 0.81547 0.58103 0.0
C92 C 0.15967 0.83297 0.55864 0.0
C93 C 0.15262 0.82838 0.52651 0.0
C94 C 0.12804 0.80628 0.51802 0.0
H95 H 0.10356 0.78095 0.58844 0.0
O96 O 0.02026 0.82387 0.55543 0.0
O97 O 0.04748 0.79617 0.52139 0.0
O98 O 0.01434 0.75515 0.56583 0.0
O99 O 0.06538 0.74379 0.5599 0.0
C100 C 0.16798 0.84596 0.50268 0.0
C101 C 0.15918 0.84081 0.47088 0.0
H102 H 0.13449 0.82556 0.4125 0.0
H103 H 0.08887 0.78699 0.40228 0.0
H104 H 0.14743 0.81893 0.60586 0.0
H105 H 0.17797 0.85039 0.56643 0.0
H106 H 0.18562 0.86458 0.50873 0.0
H107 H 0.17097 0.8549 0.4529 0.0
Mn108 Mn 0.26492 0.01553 0.51185 0.0
Mn109 Mn 0.29075 0.94113 0.5164 0.0
C110 C 0.23112 0.97108 0.49972 0.0
C111 C 0.23854 0.0607 0.52777 0.0
C112 C 0.30959 0.98516 0.46413 0.0
O113 O 0.30254 0.02269 0.54258 0.0
O114 O 0.31842 0.97221 0.54031 0.0
C115 C 0.2805 0.93129 0.58457 0.0
N116 N 0.27593 0.92146 0.55405 0.0
C117 C 0.25447 0.87023 0.56981 0.0
C118 C 0.25875 0.8798 0.60145 0.0
C119 C 0.2715 0.9106 0.60886 0.0
C120 C 0.26267 0.89233 0.5467 0.0
H121 H 0.29126 0.95455 0.59029 0.0
C122 C 0.32175 1.00125 0.54987 0.0
O123 O 0.26038 0.06182 0.50641 0.0
O124 O 0.2337 0.03381 0.54198 0.0
N125 N 0.2663 0.90807 0.49463 0.0
C126 C 0.26247 0.90318 0.46301 0.0
C127 C 0.24998 0.87355 0.45153 0.0
C128 C 0.24253 0.84902 0.47262 0.0
C129 C 0.24664 0.85469 0.50509 0.0
C130 C 0.25813 0.88501 0.51517 0.0
H131 H 0.26954 0.92153 0.44669 0.0
O132 O 0.22764 0.99809 0.48615 0.0
O133 O 0.25561 0.97015 0.51819 0.0
O134 O 0.2957 0.00893 0.47544 0.0
O135 O 0.30783 0.95792 0.47665 0.0
C136 C 0.23939 0.83158 0.52789 0.0
C137 C 0.24299 0.83946 0.56024 0.0
H138 H 0.25251 0.86365 0.62023 0.0
H139 H 0.27502 0.91813 0.63321 0.0
H140 H 0.24682 0.86938 0.42645 0.0
H141 H 0.23338 0.82603 0.46365 0.0
H142 H 0.2304 0.8079 0.52082 0.0
H143 H 0.23679 0.82168 0.57755 0.0
Mn144 Mn 0.51844 0.02131 0.24545 0.0
Mn145 Mn 0.51533 0.94457 0.26747 0.0
C146 C 0.53804 0.98123 0.21313 0.0
C147 C 0.50071 0.06448 0.21803 0.0
C148 C 0.56029 0.99542 0.29708 0.0
O149 O 0.48306 0.02066 0.27901 0.0
O150 O 0.48184 0.96793 0.28916 0.0
C151 C 0.45316 0.92432 0.2387 0.0
N152 N 0.48493 0.92045 0.24189 0.0
C153 C 0.48254 0.87587 0.20522 0.0
C154 C 0.44969 0.87901 0.20204 0.0
C155 C 0.43498 0.90347 0.21871 0.0
C156 C 0.49942 0.89735 0.22551 0.0
H157 H 0.44185 0.94339 0.25104 0.0
C158 C 0.47124 0.99588 0.29277 0.0
O159 O 0.51975 0.0684 0.24199 0.0
O160 O 0.48952 0.03566 0.2118 0.0
N161 N 0.5465 0.91968 0.24706 0.0
C162 C 0.5787 0.92154 0.25075 0.0
C163 C 0.59721 0.8996 0.2346 0.0
C164 C 0.58242 0.87593 0.21494 0.0
C165 C 0.54923 0.87444 0.21156 0.0
C166 C 0.53201 0.89684 0.22838 0.0
H167 H 0.59019 0.93964 0.26588 0.0
O168 O 0.5493 0.01037 0.21077 0.0
O169 O 0.5175 0.97667 0.23522 0.0
O170 O 0.55204 0.01775 0.27958 0.0
O171 O 0.54796 0.96707 0.29487 0.0
C172 C 0.53264 0.85204 0.19167 0.0
C173 C 0.49932 0.85282 0.18842 0.0
H174 H 0.43562 0.8631 0.18649 0.0
H175 H 0.40971 0.90634 0.21603 0.0
H176 H 0.62282 0.90095 0.23727 0.0
H177 H 0.5968 0.8592 0.20235 0.0
H178 H 0.54533 0.8345 0.17828 0.0
H179 H 0.48692 0.83593 0.17251 0.0
Mn180 Mn 0.02505 0.51794 0.2666 0.0
Mn181 Mn 0.94793 0.51707 0.28824 0.0
C182 C 0.9851 0.49948 0.23215 0.0
C183 C 0.07028 0.53821 0.24103 0.0
C184 C 0.99557 0.47227 0.31427 0.0
O185 O 0.02523 0.55077 0.30358 0.0
O186 O 0.97212 0.55071 0.31273 0.0
C187 C 0.92976 0.57978 0.26552 0.0
N188 N 0.92537 0.54746 0.26523 0.0
C189 C 0.88226 0.54915 0.22802 0.0
C190 C 0.88613 0.58248 0.22817 0.0
C191 C 0.91003 0.59784 0.24695 0.0
C192 C 0.90243 0.53243 0.24725 0.0
H193 H 0.9483 0.59166 0.27965 0.0
C194 C 1.00079 0.56141 0.31784 0.0
O195 O 0.07212 0.5178 0.26331 0.0
O196 O 0.0426 0.54971 0.23623 0.0
N197 N 0.92261 0.48547 0.26505 0.0
C198 C 0.92383 0.45316 0.26553 0.0
C199 C 0.90245 0.43417 0.24686 0.0
C200 C 0.88008 0.44859 0.22793 0.0
C201 C 0.8793 0.4819 0.22781 0.0
C202 C 0.90101 0.49958 0.24711 0.0
H203 H 0.94108 0.44197 0.27991 0.0
O204 O 0.01355 0.4892 0.22929 0.0
O205 O 0.98078 0.51857 0.25586 0.0
O206 O 0.01851 0.48148 0.29688 0.0
O207 O 0.96836 0.48442 0.31354 0.0
C208 C 0.85835 0.49825 0.20874 0.0
C209 C 0.85981 0.53185 0.20886 0.0
H210 H 0.87118 0.59648 0.21363 0.0
H211 H 0.91334 0.62353 0.24698 0.0
H212 H 0.90331 0.40849 0.24696 0.0
H213 H 0.86385 0.43387 0.21333 0.0
H214 H 0.84138 0.48521 0.19348 0.0
H215 H 0.84396 0.54413 0.19368 0.0
Mn216 Mn 0.51733 0.01718 0.76043 0.0
Mn217 Mn 0.4414 0.01326 0.78597 0.0
C218 C 0.47621 0.99893 0.7275 0.0
C219 C 0.56116 0.03825 0.73332 0.0
C220 C 0.49096 0.96855 0.80729 0.0
O221 O 0.51865 0.04953 0.79757 0.0
O222 O 0.4667 0.04507 0.81185 0.0
C223 C 0.4216 0.07757 0.7699 0.0
N224 N 0.41769 0.0453 0.76669 0.0
C225 C 0.37345 0.04976 0.73128 0.0
C226 C 0.37695 0.08303 0.7343 0.0
C227 C 0.40113 0.09698 0.7537 0.0
C228 C 0.39431 0.03162 0.74831 0.0
H229 H 0.44026 0.08842 0.78465 0.0
C230 C 0.49512 0.05728 0.81496 0.0
O231 O 0.56412 0.01773 0.75531 0.0
O232 O 0.53315 0.04946 0.72966 0.0
N233 N 0.41516 0.98341 0.76159 0.0
C234 C 0.41664 0.95114 0.75929 0.0
C235 C 0.39494 0.93359 0.7397 0.0
C236 C 0.37203 0.94939 0.72268 0.0
C237 C 0.37101 0.98263 0.7254 0.0
C238 C 0.39305 0.99883 0.74551 0.0
H239 H 0.43441 0.93894 0.77209 0.0
O240 O 0.50459 0.98884 0.72335 0.0
O241 O 0.47252 0.01732 0.75194 0.0
O242 O 0.51315 0.98025 0.79038 0.0
O243 O 0.46298 0.97892 0.80756 0.0
C244 C 0.34949 1.00038 0.70839 0.0
C245 C 0.35066 0.03391 0.71139 0.0
H246 H 0.36143 0.0981 0.72157 0.0
H247 H 0.40407 0.12265 0.75603 0.0
H248 H 0.396 0.90796 0.73758 0.0
H249 H 0.35556 0.9358 0.70734 0.0
H250 H 0.33224 0.98851 0.69258 0.0
H251 H 0.33428 0.04731 0.69785 0.0
Mn252 Mn 0.03394 0.52111 0.75796 0.0
Mn253 Mn 0.01487 0.44618 0.78148 0.0
C254 C 0.04036 0.47754 0.72433 0.0
C255 C 0.02462 0.56932 0.73396 0.0
C256 C 0.07257 0.48521 0.80552 0.0
O257 O 0.00378 0.52847 0.79541 0.0
O258 O 0.99095 0.47689 0.80648 0.0
C259 C 0.94759 0.44036 0.76081 0.0
N260 N 0.97756 0.42957 0.75988 0.0
C261 C 0.96092 0.38589 0.7251 0.0
C262 C 0.92983 0.39646 0.72577 0.0
C263 C 0.92317 0.42386 0.74365 0.0
C264 C 0.98426 0.40329 0.7427 0.0
H265 H 0.9424 0.46141 0.77454 0.0
C266 C 0.98863 0.50689 0.81116 0.0
O267 O 0.04664 0.56694 0.75499 0.0
O268 O 0.00627 0.54403 0.72824 0.0
N269 N 0.03669 0.41427 0.75852 0.0
C270 C 0.06823 0.40839 0.75892 0.0
C271 C 0.07908 0.38231 0.74149 0.0
C272 C 0.05738 0.36246 0.72402 0.0
C273 C 0.025 0.36887 0.72415 0.0
C274 C 0.01557 0.39511 0.74208 0.0
H275 H 0.08495 0.42356 0.77238 0.0
O276 O 0.05728 0.5038 0.72043 0.0
O277 O 0.02116 0.47739 0.74809 0.0
O278 O 0.06893 0.50876 0.78788 0.0
O279 O 0.05361 0.46059 0.80555 0.0
C280 C 1.0018 0.35061 0.70674 0.0
C281 C 0.9698 0.35916 0.70715 0.0
H282 H 0.91096 0.38388 0.71246 0.0
H283 H 0.89927 0.43224 0.74418 0.0
H284 H 0.10411 0.37754 0.74148 0.0
H285 H 0.06588 0.34252 0.7104 0.0
H286 H 0.00841 0.33028 0.69252 0.0
H287 H 0.95228 0.34527 0.69324 0.0
Mn288 Mn 0.27969 0.5243 0.0206 0.0
Mn289 Mn 0.24775 0.59624 0.0269 0.0
C290 C 0.30843 0.57018 0.00531 0.0
C291 C 0.31043 0.48221 0.03517 0.0
C292 C 0.22772 0.54728 0.97691 0.0
O293 O 0.24505 0.51644 0.05419 0.0
O294 O 0.22548 0.5656 0.05471 0.0
C295 C 0.2653 0.61304 0.09299 0.0
N296 N 0.26587 0.62011 0.06185 0.0
C297 C 0.28884 0.67263 0.07311 0.0
C298 C 0.28859 0.66594 0.10532 0.0
C299 C 0.27702 0.6359 0.11527 0.0
C300 C 0.27768 0.6486 0.05197 0.0
H301 H 0.25572 0.59024 0.10076 0.0
C302 C 0.22549 0.53689 0.06407 0.0
O303 O 0.28714 0.47833 0.01532 0.0
O304 O 0.3146 0.51021 0.04866 0.0
N305 N 0.26737 0.62837 1.00136 0.0
C306 C 0.26745 0.63029 0.96939 0.0
C307 C 0.27889 0.65857 0.95546 0.0
C308 C 0.28937 0.68473 0.97457 0.0
C309 C 0.28916 0.68208 0.00745 0.0
C310 C 0.27823 0.65307 0.01992 0.0
H311 H 0.25848 0.61053 0.95469 0.0
O312 O 0.31346 0.54268 0.99217 0.0
O313 O 0.28546 0.57031 0.02562 0.0
O314 O 0.24622 0.52639 0.98601 0.0
O315 O 0.22653 0.57469 0.99008 0.0
C316 C 0.29933 0.70707 0.02835 0.0
C317 C 0.29937 0.70228 0.06114 0.0
H318 H 0.29715 0.6837 0.1226 0.0
H319 H 0.2767 0.63056 0.14008 0.0
H320 H 0.27909 0.66039 0.93008 0.0
H321 H 0.29778 0.70666 0.96376 0.0
H322 H 0.3077 0.72991 0.01941 0.0
H323 H 0.30774 0.72151 0.07693 0.0
Mn324 Mn 0.51705 0.28669 0.02182 0.0
Mn325 Mn 0.58518 0.25154 0.0041 0.0
C326 C 0.56598 0.31325 0.03264 0.0
C327 C 0.47449 0.31893 0.01238 0.0
C328 C 0.54049 0.23004 0.05635 0.0
O329 O 0.50323 0.2521 0.98853 0.0
O330 O 0.55192 0.2364 0.97385 0.0
C331 C 0.60182 0.27689 0.94144 0.0
N332 N 0.60961 0.27234 0.97208 0.0
C333 C 0.66444 0.28797 0.96274 0.0
C334 C 0.65703 0.29297 0.93107 0.0
C335 C 0.62548 0.28782 0.92048 0.0
C336 C 0.6396 0.27845 0.98277 0.0
H337 H 0.5778 0.27207 0.93314 0.0
C338 C 0.52167 0.23635 0.97059 0.0
O339 O 0.47259 0.29606 0.03226 0.0
O340 O 0.50061 0.32203 0.99618 0.0
N341 N 0.61944 0.26477 0.03178 0.0
C342 C 0.62202 0.26102 0.06344 0.0
C343 C 0.6517 0.26686 0.07822 0.0
C344 C 0.67856 0.2754 0.06011 0.0
C345 C 0.67528 0.27894 0.02753 0.0
C346 C 0.64484 0.2743 0.01441 0.0
H347 H 0.6017 0.25315 0.07719 0.0
O348 O 0.54081 0.31982 0.04873 0.0
O349 O 0.56195 0.2904 0.01182 0.0
O350 O 0.52257 0.25328 0.05488 0.0
O351 O 0.5635 0.22629 0.03745 0.0
C352 C 0.70104 0.28655 0.00745 0.0
C353 C 0.69557 0.2914 0.97512 0.0
H354 H 0.67536 0.30066 0.91468 0.0
H355 H 0.61956 0.29159 0.89607 0.0
H356 H 0.65404 0.264 0.10337 0.0
H357 H 0.70156 0.27915 0.07146 0.0
H358 H 0.72498 0.28973 0.0168 0.0
H359 H 0.71542 0.29806 0.96007 0.0
Mn360 Mn 0.7737 0.52282 0.01645 0.0
Mn361 Mn 0.78966 0.44509 0.01994 0.0
C362 C 0.73555 0.4832 0.00223 0.0
C363 C 0.75182 0.5697 0.03405 0.0
C364 C 0.81719 0.48875 0.97027 0.0
O365 O 0.81136 0.52387 0.04772 0.0
O366 O 0.81918 0.47099 0.04729 0.0
C367 C 0.77221 0.43396 0.0864 0.0
N368 N 0.76809 0.42674 0.05518 0.0
C369 C 0.72694 0.38693 0.06632 0.0
C370 C 0.73083 0.39382 0.09859 0.0
C371 C 0.7536 0.41742 0.10867 0.0
C372 C 0.7465 0.40384 0.04524 0.0
H373 H 0.78948 0.45229 0.09427 0.0
C374 C 0.82627 0.49964 0.05666 0.0
O375 O 0.77417 0.56986 0.01312 0.0
O376 O 0.74467 0.54275 0.04734 0.0
N377 N 0.76183 0.41784 0.99456 0.0
C378 C 0.75975 0.41543 0.96257 0.0
C379 C 0.73733 0.39361 0.9486 0.0
C380 C 0.71723 0.37467 0.96768 0.0
C381 C 0.72007 0.3774 1.00056 0.0
C382 C 0.74322 0.3991 0.01312 0.0
H383 H 0.77485 0.43031 0.94786 0.0
O384 O 0.73484 0.51113 0.98991 0.0
O385 O 0.75944 0.47898 0.02068 0.0
O386 O 0.80367 0.5134 0.98017 0.0
O387 O 0.81304 0.46155 0.98282 0.0
C388 C 0.69985 0.36055 0.02136 0.0
C389 C 0.70355 0.36487 0.05419 0.0
H390 H 0.7162 0.38142 0.11581 0.0
H391 H 0.75665 0.42301 0.13353 0.0
H392 H 0.73521 0.39173 0.92322 0.0
H393 H 0.69934 0.35856 0.95682 0.0
H394 H 0.68038 0.34531 0.01233 0.0
H395 H 0.68755 0.35194 0.06984 0.0
Mn396 Mn 0.54207 0.75616 0.01036 0.0
Mn397 Mn 0.46879 0.78156 0.99483 0.0
C398 C 0.49665 0.72493 0.02225 0.0
C399 C 0.58767 0.72827 1.00084 0.0
C400 C 0.50988 0.80872 0.04817 0.0
O401 O 0.5516 0.79006 0.97703 0.0
O402 O 0.50117 0.80505 0.96984 0.0
C403 C 0.46319 0.75855 0.92856 0.0
N404 N 0.45182 0.75896 0.95856 0.0
C405 C 0.4078 0.72294 0.94404 0.0
C406 C 0.41891 0.72227 0.91295 0.0
C407 C 0.44673 0.74017 0.90519 0.0
C408 C 0.42496 0.74204 0.96624 0.0
H409 H 0.4847 0.77207 0.92254 0.0
C410 C 0.53103 0.80728 0.96425 0.0
O411 O 0.58773 0.75239 0.02033 0.0
O412 O 0.56163 0.72165 0.98493 0.0
N413 N 0.4353 0.76033 0.01757 0.0
C414 C 0.42889 0.76218 0.04897 0.0
C415 C 0.40251 0.74471 0.06088 0.0
C416 C 0.38308 0.72563 0.04038 0.0
C417 C 0.38976 0.72471 0.00804 0.0
C418 C 0.41613 0.7429 0.99749 0.0
H419 H 0.44407 0.7765 0.06483 0.0
O420 O 0.52276 0.72206 0.03806 0.0
O421 O 0.49755 0.74679 1.00116 0.0
O422 O 0.53304 0.79125 0.04242 0.0
O423 O 0.48386 0.80642 0.03261 0.0
C424 C 0.37221 0.70531 0.9861 0.0
C425 C 0.38101 0.70459 0.9541 0.0
H426 H 0.4065 0.70781 0.89494 0.0
H427 H 0.45557 0.73964 0.88128 0.0
H428 H 0.3975 0.74547 0.08586 0.0
H429 H 0.36366 0.71116 0.04987 0.0
H430 H 0.35277 0.6898 0.99381 0.0
H431 H 0.36753 0.68915 0.93763 0.0
H432 H 0.0511 0.30655 0.41712 0.0
H433 H 0.96434 0.46105 0.36959 0.0
H434 H 0.01019 0.37056 0.48464 0.0
H435 H 0.04128 0.42783 0.31261 0.0
H436 H 0.97768 0.42334 0.40997 0.0
H437 H 0.04753 0.34767 0.37681 0.0
C438 C 0.04265 0.32969 0.42373 0.0
C439 C 0.03113 0.33539 0.45418 0.0
C440 C 0.99168 0.42433 0.38863 0.0
C441 C 0.02551 0.38148 0.40831 0.0
C442 C 0.98384 0.44561 0.36542 0.0
C443 C 1.0017 0.44763 0.33768 0.0
C444 C 0.01724 0.40445 0.38392 0.0
C445 C 0.02695 0.42714 0.33373 0.0
C446 C 0.04016 0.35292 0.4007 0.0
C447 C 0.01944 0.36537 0.4614 0.0
N448 N 0.03387 0.40622 0.35651 0.0
N449 N 0.01641 0.38703 0.43855 0.0
H450 H 0.68334 0.09302 0.43648 0.0
H451 H 0.59272 0.95437 0.33361 0.0
H452 H 0.706 0.99401 0.43958 0.0
H453 H 0.58422 0.05449 0.31642 0.0
H454 H 0.63261 0.96842 0.37427 0.0
H455 H 0.64535 0.07945 0.39386 0.0
C456 C 0.68048 0.0685 0.42817 0.0
C457 C 0.69795 0.04467 0.44176 0.0
C458 C 0.62207 0.9873 0.3615 0.0
C459 C 0.65429 0.02893 0.39315 0.0
C460 C 0.59921 0.97928 0.33833 0.0
C461 C 0.585 1.00323 0.32149 0.0
C462 C 0.63063 0.01952 0.36815 0.0
C463 C 0.59453 0.03514 0.32865 0.0
C464 C 0.65879 0.06076 0.40381 0.0
C465 C 0.69319 0.01327 0.42989 0.0
N466 N 0.61658 0.04232 0.35149 0.0
N467 N 0.67174 0.00632 0.40647 0.0
H468 H 0.05379 0.58008 0.35347 0.0
H469 H 0.96781 0.71853 0.4489 0.0
H470 H 0.95584 0.60172 0.33776 0.0
H471 H 0.05487 0.67791 0.47891 0.0
H472 H 0.9635 0.67816 0.40598 0.0
H473 H 0.05644 0.62001 0.39664 0.0
C474 C 0.03301 0.5934 0.35884 0.0
C475 C 0.00457 0.58735 0.34205 0.0
C476 C 0.98339 0.67806 0.4222 0.0
C477 C 0.00727 0.63287 0.39139 0.0
C478 C 0.98565 0.70089 0.44684 0.0
C479 C 0.01181 0.70183 0.46742 0.0
C480 C 0.00757 0.6563 0.41812 0.0
C481 C 0.03444 0.67847 0.4634 0.0
C482 C 0.0344 0.61599 0.38362 0.0
C483 C 0.97826 0.60531 0.35018 0.0
N484 N 0.03196 0.65698 0.43915 0.0
N485 N 0.98025 0.62717 0.37419 0.0
H486 H 0.33428 0.04109 0.43934 0.0
H487 H 0.42806 0.94822 0.30562 0.0
H488 H 0.33098 0.93904 0.42444 0.0
H489 H 0.45035 0.04756 0.32792 0.0
H490 H 0.38581 0.94789 0.34375 0.0
H491 H 0.37069 0.04671 0.39445 0.0
C492 C 0.34092 0.01991 0.42648 0.0
C493 C 0.32967 0.98948 0.4358 0.0
C494 C 0.39973 0.9699 0.3404 0.0
C495 C 0.37109 0.99586 0.38453 0.0
C496 C 0.42399 0.97019 0.31842 0.0
C497 C 0.44322 0.99792 0.3137 0.0
C498 C 0.39447 0.99744 0.35841 0.0
C499 C 0.43622 0.02563 0.33089 0.0
C500 C 0.36178 0.02318 0.40097 0.0
C501 C 0.33918 0.96292 0.41836 0.0
N502 N 0.41255 0.02462 0.35288 0.0
N503 N 0.35928 0.96677 0.3937 0.0
H504 H 0.06835 0.61929 0.7331 0.0
H505 H 0.98411 0.7134 0.59773 0.0
H506 H 0.97985 0.58488 0.69006 0.0
H507 H 0.08587 0.71808 0.61179 0.0
H508 H 0.97875 0.67386 0.63896 0.0
H509 H 0.07112 0.66331 0.69649 0.0
C510 C 0.0492 0.62122 0.71627 0.0
C511 C 0.02382 0.59822 0.71461 0.0
C512 C 1.0022 0.6837 0.63313 0.0
C513 C 0.02699 0.64874 0.6726 0.0
C514 C 0.00535 0.70644 0.60973 0.0
C515 C 0.03557 0.71913 0.60119 0.0
C516 C 0.02938 0.67389 0.6486 0.0
C517 C 0.06216 0.70889 0.61747 0.0
C518 C 0.05098 0.64627 0.69524 0.0
C519 C 0.99984 0.602 0.69216 0.0
N520 N 0.05843 0.68694 0.64046 0.0
N521 N 1.002 0.62679 0.672 0.0
H522 H 0.45695 0.95065 0.68635 0.0
H523 H 0.32762 0.04703 0.59783 0.0
H524 H 0.44796 0.05078 0.70623 0.0
H525 H 0.37599 0.96959 0.5537 0.0
H526 H 0.36704 0.04804 0.64099 0.0
H527 H 0.42125 0.95476 0.64081 0.0
C528 C 0.44725 0.97336 0.68119 0.0
C529 C 0.45437 1.00013 0.7005 0.0
C530 C 0.36906 0.03117 0.62154 0.0
C531 C 0.41417 0.00523 0.6487 0.0
C532 C 0.34682 0.03081 0.59683 0.0
C533 C 0.3483 0.008 0.57233 0.0
C534 C 0.3924 0.00828 0.62169 0.0
C535 C 0.37357 0.98728 0.57237 0.0
C536 C 0.42705 0.97579 0.65528 0.0
C537 C 0.44193 0.02932 0.6925 0.0
N538 N 0.39423 0.98757 0.59687 0.0
N539 N 0.42208 0.03107 0.66741 0.0
H540 H 0.05719 0.31928 0.5932 0.0
H541 H 0.98496 0.46004 0.69548 0.0
H542 H 0.96035 0.34747 0.5837 0.0
H543 H 0.085 0.44297 0.69339 0.0
H544 H 0.97542 0.41853 0.6549 0.0
H545 H 0.06725 0.36256 0.63168 0.0
C546 C 0.03791 0.33439 0.5993 0.0
C547 C 0.00782 0.32965 0.58496 0.0
C548 C 0.99952 0.42385 0.6631 0.0
C549 C 0.01951 0.3797 0.62891 0.0
C550 C 0.00494 0.44746 0.68631 0.0
C551 C 0.03566 0.4541 0.69827 0.0
C552 C 0.02504 0.40666 0.65182 0.0
C553 C 0.06089 0.43797 0.68509 0.0
C554 C 0.04383 0.3593 0.62115 0.0
C555 C 0.98392 0.35015 0.59398 0.0
N556 N 0.05497 0.41456 0.66283 0.0
N557 N 0.9903 0.37426 0.61532 0.0
H558 H 0.55822 0.06992 0.67782 0.0
H559 H 0.72035 1.00327 0.60945 0.0
H560 H 0.62026 0.01371 0.73261 0.0
H561 H 0.65311 0.05369 0.55519 0.0
H562 H 0.68398 0.00499 0.65471 0.0
H563 H 0.5944 0.06559 0.6333 0.0
C564 C 0.57979 0.05725 0.68074 0.0
C565 C 0.58615 0.04217 0.70903 0.0
C566 C 0.677 0.01521 0.63271 0.0
C567 C 0.62739 0.03629 0.65774 0.0
C568 C 0.69749 0.0137 0.60677 0.0
C569 C 0.68957 0.02819 0.57857 0.0
C570 C 0.64859 0.0314 0.63025 0.0
C571 C 0.66005 0.04218 0.57654 0.0
C572 C 0.60029 0.05439 0.65513 0.0
C573 C 0.61439 0.02576 0.71125 0.0
N574 N 0.64083 0.04369 0.60205 0.0
N575 N 0.63385 0.02305 0.68589 0.0
H576 H 0.48063 0.38226 0.99807 0.0
H577 H 0.29935 0.41804 0.02906 0.0
H578 H 0.41198 0.30949 0.02746 0.0
H579 H 0.37483 0.48986 0.04414 0.0
H580 H 0.33912 0.37785 0.02225 0.0
H581 H 0.44064 0.42235 0.00658 0.0
C582 C 0.45697 0.37465 0.00565 0.0
C583 C 0.44951 0.34251 0.01192 0.0
C584 C 0.34699 0.40232 0.02745 0.0
C585 C 0.40397 0.38809 0.02199 0.0
C586 C 0.32432 0.42521 0.03156 0.0
C587 C 0.33383 0.45723 0.03755 0.0
C588 C 0.37946 0.41163 0.02847 0.0
C589 C 0.36651 0.46533 0.04007 0.0
C590 C 0.43435 0.39754 0.01093 0.0
C591 C 0.41868 0.33401 0.02228 0.0
N592 N 0.38821 0.44274 0.03507 0.0
N593 N 0.39702 0.35661 0.02688 0.0
H594 H 0.34838 0.5888 0.95772 0.0
H595 H 0.46336 0.69838 0.07164 0.0
H596 H 0.32993 0.60551 0.0563 0.0
H597 H 0.47449 0.69145 0.97099 0.0
H598 H 0.41806 0.6591 0.06771 0.0
H599 H 0.397 0.62326 0.96266 0.0
C600 C 0.35427 0.60024 0.98024 0.0
C601 C 0.33464 0.595 0.0064 0.0
C602 C 0.43057 0.666 0.0465 0.0
C603 C 0.39087 0.63335 0.01268 0.0
C604 C 0.45638 0.68834 0.0488 0.0
C605 C 0.47162 0.69902 0.02145 0.0
C606 C 0.42046 0.65401 0.01668 0.0
C607 C 0.46244 0.68466 0.99249 0.0
C608 C 0.38217 0.61961 0.98318 0.0
C609 C 0.34374 0.60981 0.03525 0.0
N610 N 0.43727 0.66318 0.9908 0.0
N611 N 0.37118 0.62822 0.03764 0.0
H612 H 0.59428 0.35165 0.07853 0.0
H613 H 0.69632 0.45682 0.95548 0.0
H614 H 0.59264 0.33414 0.97821 0.0
H615 H 0.70708 0.46553 0.05624 0.0
H616 H 0.65125 0.41808 0.9629 0.0
H617 H 0.63045 0.39839 0.07066 0.0
C618 C 0.60206 0.35732 0.05493 0.0
C619 C 0.59148 0.33832 0.02912 0.0
C620 C 0.66324 0.4288 0.98339 0.0
C621 C 0.63157 0.39244 0.01965 0.0
C622 C 0.68888 0.45083 0.9791 0.0
C623 C 0.70604 0.46316 0.00527 0.0
C624 C 0.65468 0.41962 0.01407 0.0
C625 C 0.69507 0.4555 0.03544 0.0
C626 C 0.62229 0.3842 0.05035 0.0
C627 C 0.60145 0.34722 0.99889 0.0
N628 N 0.67037 0.43393 0.03904 0.0
N629 N 0.62092 0.37358 0.99497 0.0
H630 H 0.7652 0.63246 0.02093 0.0
H631 H 0.58488 0.66428 0.98828 0.0
H632 H 0.68897 0.56698 0.04906 0.0
H633 H 0.64985 0.74226 0.01668 0.0
H634 H 0.62612 0.62693 0.9999 0.0
H635 H 0.72603 0.67279 0.01162 0.0
C636 C 0.74035 0.62685 0.02587 0.0
C637 C 0.73033 0.59643 0.03601 0.0
C638 C 0.63138 0.65227 0.00327 0.0
C639 C 0.68556 0.64169 0.02397 0.0
C640 C 0.60807 0.67358 0.9962 0.0
C641 C 0.61405 0.70638 1.00143 0.0
C642 C 0.66103 0.6639 0.01502 0.0
C643 C 0.64436 0.71712 0.01229 0.0
C644 C 0.71807 0.64973 0.02031 0.0
C645 C 0.69779 0.59023 0.04162 0.0
N646 N 0.66683 0.69593 0.01864 0.0
N647 N 0.67649 0.61245 0.03495 0.0
H648 H 0.55198 0.80151 0.90351 0.0
H649 H 0.46461 0.95623 0.86465 0.0
H650 H 0.52708 0.86991 0.97517 0.0
H651 H 0.53661 0.92457 0.80064 0.0
H652 H 0.48254 0.91877 0.90345 0.0
H653 H 0.54526 0.84215 0.86334 0.0
C654 C 0.54666 0.82551 0.91087 0.0
C655 C 0.54056 0.83269 0.94261 0.0
C656 C 0.49438 0.92004 0.88087 0.0
C657 C 0.53094 0.87818 0.89712 0.0
C658 C 0.48389 0.94108 0.8586 0.0
C659 C 0.49912 0.94348 0.82941 0.0
C660 C 0.51984 0.90075 0.8737 0.0
C661 C 0.52429 0.92349 0.82296 0.0
C662 C 0.5423 0.84846 0.88798 0.0
C663 C 0.53243 0.86371 0.95092 0.0
N664 N 0.53376 0.90273 0.84486 0.0
N665 N 0.52718 0.8851 0.92828 0.0
H666 H 0.16485 0.55947 0.97212 0.0
H667 H 0.13494 0.5041 0.79735 0.0
H668 H 0.24051 0.51454 0.92253 0.0
H669 H 0.06674 0.47667 0.86847 0.0
H670 H 0.17418 0.51819 0.83915 0.0
H671 H 0.12763 0.54076 0.9301 0.0
C672 C 0.17365 0.54605 0.95218 0.0
C673 C 0.20571 0.53854 0.95064 0.0
C674 C 0.15074 0.50867 0.84545 0.0
C675 C 0.16362 0.51755 0.9027 0.0
C676 C 0.12849 0.50056 0.82175 0.0
C677 C 0.09785 0.48879 0.82961 0.0
C678 C 0.14174 0.5062 0.87712 0.0
C679 C 0.09035 0.48513 0.86153 0.0
C680 C 0.15244 0.53517 0.92848 0.0
C681 C 0.21591 0.52074 0.92452 0.0
N682 N 0.11198 0.49437 0.88421 0.0
N683 N 0.19499 0.51112 0.90131 0.0
H684 H 0.46062 0.06494 0.86845 0.0
H685 H 0.53875 0.23778 0.9094 0.0
H686 H 0.53806 0.10886 0.81606 0.0
H687 H 0.47797 0.18609 0.97397 0.0
H688 H 0.53182 0.194 0.871 0.0
H689 H 0.46202 0.11098 0.90452 0.0
C690 C 0.47817 0.08419 0.86469 0.0
C691 C 0.49933 0.08303 0.83916 0.0
C692 C 0.51956 0.19235 0.89333 0.0
C693 C 0.50056 0.13617 0.88018 0.0
C694 C 0.52317 0.21751 0.91512 0.0
C695 C 0.5088 0.21554 0.94482 0.0
C696 C 0.50153 0.16482 0.90133 0.0
C697 C 0.48903 0.18869 0.95113 0.0
C698 C 0.47882 0.11052 0.88526 0.0
C699 C 0.52153 0.10862 0.83555 0.0
N700 N 0.48623 0.16412 0.92965 0.0
N701 N 0.52141 0.13427 0.85571 0.0
H702 H 0.93643 0.54407 0.81031 0.0
H703 H 0.86491 0.44945 0.95504 0.0
H704 H 0.99133 0.48592 0.87017 0.0
H705 H 0.825 0.53777 0.9286 0.0
H706 H 0.90825 0.45956 0.91811 0.0
H707 H 0.89324 0.54192 0.84961 0.0
C708 C 0.93983 0.53193 0.83221 0.0
C709 C 0.96739 0.51526 0.83722 0.0
C710 C 0.88998 0.47674 0.92034 0.0
C711 C 0.91808 0.51147 0.88109 0.0
C712 C 0.86499 0.47078 0.94119 0.0
C713 C 0.84127 0.4928 0.94504 0.0
C714 C 0.89117 0.50471 0.90278 0.0
C715 C 0.84288 0.52019 0.92648 0.0
C716 C 0.91511 0.53032 0.85436 0.0
C717 C 0.9704 0.49911 0.86553 0.0
N718 N 0.86739 0.52536 0.90604 0.0
N719 N 0.94589 0.49719 0.88611 0.0
H720 H 0.50695 0.12884 0.22922 0.0
H721 H 0.55091 0.16625 0.05333 0.0
H722 H 0.49071 0.05849 0.15469 0.0
H723 H 0.51334 0.23884 0.11411 0.0
H724 H 0.53588 0.12626 0.09256 0.0
H725 H 0.51439 0.17005 0.18946 0.0
C726 C 0.50424 0.12221 0.20452 0.0
C727 C 0.498 0.09027 0.19522 0.0
C728 C 0.53092 0.15096 0.09721 0.0
C729 C 0.50778 0.1369 0.14981 0.0
C730 C 0.53976 0.17379 0.07503 0.0
C731 C 0.5334 0.20589 0.08052 0.0
C732 C 0.51631 0.16041 0.12537 0.0
C733 C 0.51859 0.21432 0.10893 0.0
C734 C 0.50865 0.14566 0.1819 0.0
C735 C 0.49513 0.08288 0.16289 0.0
N736 N 0.51083 0.19177 0.13045 0.0
N737 N 0.50065 0.10592 0.14131 0.0
H738 H 0.96288 0.44873 0.1954 0.0
H739 H 0.84325 0.55072 0.09694 0.0
H740 H 0.96066 0.55078 0.20572 0.0
H741 H 0.86973 0.45601 0.06954 0.0
H742 H 0.88406 0.5515 0.1387 0.0
H743 H 0.92598 0.45051 0.15057 0.0
C744 C 0.95459 0.47143 0.18812 0.0
C745 C 0.9638 0.49949 0.20466 0.0
C746 C 0.88095 0.53073 0.12325 0.0
C747 C 0.92224 0.50199 0.15356 0.0
C748 C 0.85778 0.53034 0.09939 0.0
C749 C 0.85275 0.50321 0.07983 0.0
C750 C 0.89894 0.50374 0.12751 0.0
C751 C 0.87227 0.47737 0.08423 0.0
C752 C 0.93363 0.47255 0.16262 0.0
C753 C 0.9531 0.52851 0.19406 0.0
N754 N 0.89419 0.47819 0.10766 0.0
N755 N 0.93258 0.52903 0.16938 0.0
H756 H 0.56403 0.8252 0.08215 0.0
H757 H 0.48513 0.96352 0.18105 0.0
H758 H 0.46694 0.85145 0.06944 0.0
H759 H 0.58606 0.9508 0.18199 0.0
H760 H 0.47863 0.92308 0.13934 0.0
H761 H 0.57269 0.87003 0.11921 0.0
C762 C 0.54443 0.84025 0.0872 0.0
C763 C 0.51461 0.83441 0.07254 0.0
C764 C 0.50231 0.92923 0.14827 0.0
C765 C 0.52471 0.88615 0.11476 0.0
C766 C 0.50602 0.9523 0.1721 0.0
C767 C 0.53608 0.95987 0.18524 0.0
C768 C 0.52886 0.9133 0.1376 0.0
C769 C 0.56247 0.94521 0.17259 0.0
C770 C 0.54956 0.86605 0.10819 0.0
C771 C 0.49028 0.8549 0.08008 0.0
N772 N 0.5582 0.92211 0.14969 0.0
N773 N 0.49588 0.87978 0.10068 0.0
H774 H 0.2335 0.50617 0.12013 0.0
H775 H 0.07023 0.5717 0.18657 0.0
H776 H 0.16421 0.55241 0.06454 0.0
H777 H 0.12862 0.51165 0.24119 0.0
H778 H 0.1076 0.56783 0.14308 0.0
H779 H 0.19693 0.50767 0.16539 0.0
C780 C 0.21024 0.51568 0.1172 0.0
C781 C 0.20174 0.52905 0.08859 0.0
C782 C 0.11244 0.55565 0.16464 0.0
C783 C 0.16055 0.532 0.14019 0.0
C784 C 0.09125 0.55822 0.18968 0.0
C785 C 0.0962 0.54196 0.21761 0.0
C786 C 0.1389 0.53668 0.1674 0.0
C787 C 0.12385 0.52462 0.22009 0.0
C788 C 0.18961 0.51701 0.1431 0.0
C789 C 0.17166 0.54183 0.08621 0.0
N790 N 0.14406 0.52225 0.19524 0.0
N791 N 0.15237 0.54325 0.11165 0.0
H792 H 0.83685 0.96216 0.57316 0.0
H793 H 0.93729 0.84614 0.46967 0.0
H794 H 0.80761 0.93594 0.47823 0.0
H795 H 0.91663 0.82397 0.5664 0.0
H796 H 0.89698 0.88666 0.47203 0.0
H797 H 0.87422 0.91861 0.57152 0.0
C798 C 0.83818 0.94723 0.55214 0.0
C799 C 0.81891 0.95247 0.52594 0.0
C800 C 0.90122 0.87266 0.49259 0.0
C801 C 0.86196 0.90372 0.52356 0.0
C802 C 0.92406 0.84954 0.49122 0.0
C803 C 0.93 0.83141 0.51772 0.0
C804 C 0.88511 0.87837 0.52096 0.0
C805 C 0.91246 0.83709 0.54526 0.0
C806 C 0.85938 0.92247 0.55121 0.0
C807 C 0.82173 0.93254 0.49913 0.0
N808 N 0.89113 0.86038 0.54633 0.0
N809 N 0.8431 0.90936 0.49847 0.0
H810 H 0.95539 0.19277 0.5762 0.0
H811 H 0.8422 0.08917 0.45553 0.0
H812 H 0.96675 0.19286 0.47546 0.0
H813 H 0.82101 0.10258 0.554 0.0
H814 H 0.89121 0.12264 0.46303 0.0
H815 H 0.91063 0.1531 0.56969 0.0
C816 C 0.9486 0.18418 0.55279 0.0
C817 C 0.96371 0.19696 0.52625 0.0
C818 C 0.87573 0.11842 0.48298 0.0
C819 C 0.91323 0.15149 0.51853 0.0
C820 C 0.84762 0.09962 0.47859 0.0
C821 C 0.82708 0.0938 0.50396 0.0
C822 C 0.88372 0.13098 0.51313 0.0
C823 C 0.83557 0.10735 0.53354 0.0
C824 C 0.92311 0.16162 0.54902 0.0
C825 C 0.95479 0.18442 0.49645 0.0
N826 N 0.86322 0.12522 0.53733 0.0
N827 N 0.92995 0.16267 0.49335 0.0
H828 H 0.07863 0.85799 0.58533 0.0
H829 H 0.18354 0.95401 0.45754 0.0
H830 H 0.06367 0.84788 0.48517 0.0
H831 H 0.21293 0.9415 0.55359 0.0
H832 H 0.1334 0.92393 0.46861 0.0
H833 H 0.12058 0.89961 0.57582 0.0
C834 C 0.08394 0.86488 0.56142 0.0
C835 C 0.06888 0.84868 0.53591 0.0
C836 C 0.15086 0.92782 0.48725 0.0
C837 C 0.11598 0.89632 0.52482 0.0
C838 C 0.17959 0.94457 0.4808 0.0
C839 C 0.20281 0.9494 0.50437 0.0
C840 C 0.145 0.91649 0.51773 0.0
C841 C 0.19619 0.93736 0.53439 0.0
C842 C 0.10777 0.88858 0.55596 0.0
C843 C 0.07576 0.85904 0.50539 0.0
N844 N 0.16794 0.92155 0.54022 0.0
N845 N 0.09907 0.88191 0.50064 0.0
H846 H 0.1416 0.23862 0.51969 0.0
H847 H 0.17556 0.05653 0.54317 0.0
H848 H 0.07377 0.16276 0.49236 0.0
H849 H 0.25085 0.12389 0.51686 0.0
H850 H 0.13703 0.09784 0.53615 0.0
H851 H 0.1817 0.199 0.52779 0.0
C852 C 0.13534 0.21368 0.51488 0.0
C853 C 0.10446 0.20395 0.50499 0.0
C854 C 0.16206 0.10361 0.53232 0.0
C855 C 0.14963 0.15861 0.51556 0.0
C856 C 0.18408 0.08025 0.53679 0.0
C857 C 0.21644 0.08689 0.53072 0.0
C858 C 0.17257 0.13396 0.52234 0.0
C859 C 0.22611 0.11786 0.52186 0.0
C860 C 0.15812 0.19114 0.5197 0.0
C861 C 0.09744 0.1713 0.49952 0.0
N862 N 0.20428 0.14031 0.51798 0.0
N863 N 0.11971 0.14974 0.50532 0.0
loop_
_geom_bond_atom_site_label_1
_geom_bond_atom_site_label_2
_geom_bond_distance
_geom_bond_site_symmetry_2
_ccdc_geom_bond_type
Mn0 O5 2.095 . S
Mn0 O15 2.162 . S
Mn0 O16 2.297 . S
Mn0 O24 2.385 1_455 S
Mn0 O25 2.209 1_455 S
Mn0 O26 2.094 . S
Mn1 O6 2.121 . S
Mn1 N8 2.257 . S
Mn1 N17 2.282 . S
Mn1 O25 2.215 . S
Mn1 O27 2.117 . S
C2 O24 1.234 . S
C2 O25 1.283 . S
C3 O15 1.281 . S
C3 O16 1.236 . S
C4 O26 1.240 . S
C4 O27 1.264 1_455 S
O5 Mn0 2.095 . S
O5 C14 1.250 . S
O6 Mn1 2.121 . S
O6 C14 1.258 1_655 S
C7 N8 1.326 . S
C7 C11 1.460 . S
C7 H13 0.929 . S
N8 Mn1 2.257 . S
N8 C7 1.326 . S
N8 C12 1.362 . S
C9 C10 1.258 . S
C9 C12 1.431 . S
C9 C29 1.449 . S
C10 C9 1.258 . S
C10 C11 1.477 . S
C10 H30 0.931 . S
C11 C7 1.460 . S
C11 C10 1.477 . S
C11 H31 0.930 . S
C12 N8 1.362 . S
C12 C9 1.431 . S
C12 C22 1.476 . S
H13 C7 0.929 . S
C14 O5 1.250 . S
C14 O6 1.258 1_455 S
O15 Mn0 2.162 . S
O15 C3 1.281 . S
O16 Mn0 2.297 . S
O16 C3 1.236 . S
N17 Mn1 2.282 . S
N17 C18 1.328 . S
N17 C22 1.318 . S
C18 N17 1.328 . S
C18 C19 1.457 . S
C18 H23 0.929 . S
C19 C18 1.457 . S
C19 C20 1.291 . S
C19 H32 0.931 . S
C20 C19 1.291 . S
C20 C21 1.373 . S
C20 H33 0.929 . S
C21 C20 1.373 . S
C21 C22 1.396 . S
C21 C28 1.403 . S
C22 C12 1.476 . S
C22 N17 1.318 . S
C22 C21 1.396 . S
H23 C18 0.929 . S
O24 Mn0 2.385 1_655 S
O24 C2 1.234 . S
O25 Mn0 2.209 1_655 S
O25 Mn1 2.215 . S
O25 C2 1.283 . S
O26 Mn0 2.094 . S
O26 C4 1.240 . S
O27 Mn1 2.117 . S
O27 C4 1.264 1_655 S
C28 C21 1.403 . S
C28 C29 1.399 . S
C28 H34 0.929 . S
C29 C9 1.449 . S
C29 C28 1.399 . S
C29 H35 0.930 . S
H30 C10 0.931 . S
H31 C11 0.930 . S
H32 C19 0.931 . S
H33 C20 0.929 . S
H34 C28 0.929 . S
H35 C29 0.930 . S
Mn36 O41 2.095 . S
Mn36 O51 2.162 1_545 S
Mn36 O52 2.297 1_545 S
Mn36 O60 2.385 . S
Mn36 O61 2.209 . S
Mn36 O62 2.094 . S
Mn37 O42 2.121 . S
Mn37 N44 2.257 . S
Mn37 N53 2.282 . S
Mn37 O61 2.215 . S
Mn37 O63 2.117 . S
C38 O60 1.234 . S
C38 O61 1.283 . S
C39 O51 1.281 . S
C39 O52 1.236 . S
C40 O62 1.240 . S
C40 O63 1.264 . S
O41 Mn36 2.095 . S
O41 C50 1.250 . S
O42 Mn37 2.121 . S
O42 C50 1.258 . S
C43 N44 1.326 . S
C43 C47 1.460 . S
C43 H49 0.929 . S
N44 Mn37 2.257 . S
N44 C43 1.326 . S
N44 C48 1.362 . S
C45 C46 1.258 . S
C45 C48 1.431 . S
C45 C65 1.449 . S
C46 C45 1.258 . S
C46 C47 1.477 . S
C46 H66 0.931 . S
C47 C43 1.460 . S
C47 C46 1.477 . S
C47 H67 0.930 . S
C48 N44 1.362 . S
C48 C45 1.431 . S
C48 C58 1.476 . S
H49 C43 0.929 . S
C50 O41 1.250 . S
C50 O42 1.258 . S
O51 Mn36 2.162 1_565 S
O51 C39 1.281 . S
O52 Mn36 2.297 1_565 S
O52 C39 1.236 . S
N53 Mn37 2.282 . S
N53 C54 1.328 . S
N53 C58 1.318 . S
C54 N53 1.328 . S
C54 C55 1.457 . S
C54 H59 0.929 . S
C55 C54 1.457 . S
C55 C56 1.291 . S
C55 H68 0.931 . S
C56 C55 1.291 . S
C56 C57 1.373 . S
C56 H69 0.929 . S
C57 C56 1.373 . S
C57 C58 1.396 . S
C57 C64 1.403 . S
C58 C48 1.476 . S
C58 N53 1.318 . S
C58 C57 1.396 . S
H59 C54 0.929 . S
O60 Mn36 2.385 . S
O60 C38 1.234 . S
O61 Mn36 2.209 . S
O61 Mn37 2.215 . S
O61 C38 1.283 . S
O62 Mn36 2.094 . S
O62 C40 1.240 . S
O63 Mn37 2.117 . S
O63 C40 1.264 . S
C64 C57 1.403 . S
C64 C65 1.399 . S
C64 H70 0.929 . S
C65 C45 1.449 . S
C65 C64 1.399 . S
C65 H71 0.930 . S
H66 C46 0.931 . S
H67 C47 0.930 . S
H68 C55 0.931 . S
H69 C56 0.929 . S
H70 C64 0.929 . S
H71 C65 0.930 . S
Mn72 O77 2.095 . S
Mn72 O87 2.162 1_455 S
Mn72 O88 2.297 1_455 S
Mn72 O96 2.385 . S
Mn72 O97 2.209 . S
Mn72 O98 2.094 . S
Mn73 O78 2.121 . S
Mn73 N80 2.257 . S
Mn73 N89 2.282 . S
Mn73 O97 2.215 . S
Mn73 O99 2.117 . S
C74 O96 1.234 . S
C74 O97 1.283 . S
C75 O87 1.281 . S
C75 O88 1.236 . S
C76 O98 1.240 . S
C76 O99 1.264 . S
O77 Mn72 2.095 . S
O77 C86 1.250 . S
O78 Mn73 2.121 . S
O78 C86 1.258 . S
C79 N80 1.326 . S
C79 C83 1.460 . S
C79 H85 0.929 . S
N80 Mn73 2.257 . S
N80 C79 1.326 . S
N80 C84 1.362 . S
C81 C82 1.258 . S
C81 C84 1.431 . S
C81 C101 1.449 . S
C82 C81 1.258 . S
C82 C83 1.477 . S
C82 H102 0.931 . S
C83 C79 1.460 . S
C83 C82 1.477 . S
C83 H103 0.930 . S
C84 N80 1.362 . S
C84 C81 1.431 . S
C84 C94 1.476 . S
H85 C79 0.929 . S
C86 O77 1.250 . S
C86 O78 1.258 . S
O87 Mn72 2.162 1_655 S
O87 C75 1.281 . S
O88 Mn72 2.297 1_655 S
O88 C75 1.236 . S
N89 Mn73 2.282 . S
N89 C90 1.328 . S
N89 C94 1.318 . S
C90 N89 1.328 . S
C90 C91 1.457 . S
C90 H95 0.929 . S
C91 C90 1.457 . S
C91 C92 1.291 . S
C91 H104 0.931 . S
C92 C91 1.291 . S
C92 C93 1.373 . S
C92 H105 0.929 . S
C93 C92 1.373 . S
C93 C94 1.396 . S
C93 C100 1.403 . S
C94 C84 1.476 . S
C94 N89 1.318 . S
C94 C93 1.396 . S
H95 C90 0.929 . S
O96 Mn72 2.385 . S
O96 C74 1.234 . S
O97 Mn72 2.209 . S
O97 Mn73 2.215 . S
O97 C74 1.283 . S
O98 Mn72 2.094 . S
O98 C76 1.240 . S
O99 Mn73 2.117 . S
O99 C76 1.264 . S
C100 C93 1.403 . S
C100 C101 1.399 . S
C100 H106 0.929 . S
C101 C81 1.449 . S
C101 C100 1.399 . S
C101 H107 0.930 . S
H102 C82 0.931 . S
H103 C83 0.930 . S
H104 C91 0.931 . S
H105 C92 0.929 . S
H106 C100 0.929 . S
H107 C101 0.930 . S
Mn108 O113 2.095 . S
Mn108 O123 2.162 . S
Mn108 O124 2.297 . S
Mn108 O132 2.385 1_545 S
Mn108 O133 2.209 1_545 S
Mn108 O134 2.094 . S
Mn109 O114 2.121 . S
Mn109 N116 2.257 . S
Mn109 N125 2.282 . S
Mn109 O133 2.215 . S
Mn109 O135 2.117 . S
C110 O132 1.234 . S
C110 O133 1.283 . S
C111 O123 1.281 . S
C111 O124 1.236 . S
C112 O134 1.240 . S
C112 O135 1.264 1_545 S
O113 Mn108 2.095 . S
O113 C122 1.250 . S
O114 Mn109 2.121 . S
O114 C122 1.258 1_565 S
C115 N116 1.326 . S
C115 C119 1.460 . S
C115 H121 0.929 . S
N116 Mn109 2.257 . S
N116 C115 1.326 . S
N116 C120 1.362 . S
C117 C118 1.258 . S
C117 C120 1.431 . S
C117 C137 1.449 . S
C118 C117 1.258 . S
C118 C119 1.477 . S
C118 H138 0.931 . S
C119 C115 1.460 . S
C119 C118 1.477 . S
C119 H139 0.930 . S
C120 N116 1.362 . S
C120 C117 1.431 . S
C120 C130 1.476 . S
H121 C115 0.929 . S
C122 O113 1.250 . S
C122 O114 1.258 1_545 S
O123 Mn108 2.162 . S
O123 C111 1.281 . S
O124 Mn108 2.297 . S
O124 C111 1.236 . S
N125 Mn109 2.282 . S
N125 C126 1.328 . S
N125 C130 1.318 . S
C126 N125 1.328 . S
C126 C127 1.457 . S
C126 H131 0.929 . S
C127 C126 1.457 . S
C127 C128 1.291 . S
C127 H140 0.931 . S
C128 C127 1.291 . S
C128 C129 1.373 . S
C128 H141 0.929 . S
C129 C128 1.373 . S
C129 C130 1.396 . S
C129 C136 1.403 . S
C130 C120 1.476 . S
C130 N125 1.318 . S
C130 C129 1.396 . S
H131 C126 0.929 . S
O132 Mn108 2.385 1_565 S
O132 C110 1.234 . S
O133 Mn108 2.209 1_565 S
O133 Mn109 2.215 . S
O133 C110 1.283 . S
O134 Mn108 2.094 . S
O134 C112 1.240 . S
O135 Mn109 2.117 . S
O135 C112 1.264 1_565 S
C136 C129 1.403 . S
C136 C137 1.399 . S
C136 H142 0.929 . S
C137 C117 1.449 . S
C137 C136 1.399 . S
C137 H143 0.930 . S
H138 C118 0.931 . S
H139 C119 0.930 . S
H140 C127 0.931 . S
H141 C128 0.929 . S
H142 C136 0.929 . S
H143 C137 0.930 . S
Mn144 O149 2.095 . S
Mn144 O159 2.162 . S
Mn144 O160 2.297 . S
Mn144 O168 2.385 1_545 S
Mn144 O169 2.209 1_545 S
Mn144 O170 2.094 . S
Mn145 O150 2.121 . S
Mn145 N152 2.257 . S
Mn145 N161 2.282 . S
Mn145 O169 2.215 . S
Mn145 O171 2.117 . S
C146 O168 1.234 . S
C146 O169 1.283 . S
C147 O159 1.281 . S
C147 O160 1.236 . S
C148 O170 1.240 . S
C148 O171 1.264 1_545 S
O149 Mn144 2.095 . S
O149 C158 1.250 . S
O150 Mn145 2.121 . S
O150 C158 1.258 1_565 S
C151 N152 1.326 . S
C151 C155 1.460 . S
C151 H157 0.929 . S
N152 Mn145 2.257 . S
N152 C151 1.326 . S
N152 C156 1.362 . S
C153 C154 1.258 . S
C153 C156 1.431 . S
C153 C173 1.449 . S
C154 C153 1.258 . S
C154 C155 1.477 . S
C154 H174 0.931 . S
C155 C151 1.460 . S
C155 C154 1.477 . S
C155 H175 0.930 . S
C156 N152 1.362 . S
C156 C153 1.431 . S
C156 C166 1.476 . S
H157 C151 0.929 . S
C158 O149 1.250 . S
C158 O150 1.258 1_545 S
O159 Mn144 2.162 . S
O159 C147 1.281 . S
O160 Mn144 2.297 . S
O160 C147 1.236 . S
N161 Mn145 2.282 . S
N161 C162 1.328 . S
N161 C166 1.318 . S
C162 N161 1.328 . S
C162 C163 1.457 . S
C162 H167 0.929 . S
C163 C162 1.457 . S
C163 C164 1.291 . S
C163 H176 0.931 . S
C164 C163 1.291 . S
C164 C165 1.373 . S
C164 H177 0.929 . S
C165 C164 1.373 . S
C165 C166 1.396 . S
C165 C172 1.403 . S
C166 C156 1.476 . S
C166 N161 1.318 . S
C166 C165 1.396 . S
H167 C162 0.929 . S
O168 Mn144 2.385 1_565 S
O168 C146 1.234 . S
O169 Mn144 2.209 1_565 S
O169 Mn145 2.215 . S
O169 C146 1.283 . S
O170 Mn144 2.094 . S
O170 C148 1.240 . S
O171 Mn145 2.117 . S
O171 C148 1.264 1_565 S
C172 C165 1.403 . S
C172 C173 1.399 . S
C172 H178 0.929 . S
C173 C153 1.449 . S
C173 C172 1.399 . S
C173 H179 0.930 . S
H174 C154 0.931 . S
H175 C155 0.930 . S
H176 C163 0.931 . S
H177 C164 0.929 . S
H178 C172 0.929 . S
H179 C173 0.930 . S
Mn180 O185 2.095 . S
Mn180 O195 2.162 . S
Mn180 O196 2.297 . S
Mn180 O204 2.385 1_455 S
Mn180 O205 2.209 1_455 S
Mn180 O206 2.094 . S
Mn181 O186 2.121 . S
Mn181 N188 2.257 . S
Mn181 N197 2.282 . S
Mn181 O205 2.215 . S
Mn181 O207 2.117 . S
C182 O204 1.234 . S
C182 O205 1.283 . S
C183 O195 1.281 . S
C183 O196 1.236 . S
C184 O206 1.240 . S
C184 O207 1.264 1_455 S
O185 Mn180 2.095 . S
O185 C194 1.250 . S
O186 Mn181 2.121 . S
O186 C194 1.258 1_655 S
C187 N188 1.326 . S
C187 C191 1.460 . S
C187 H193 0.929 . S
N188 Mn181 2.257 . S
N188 C187 1.326 . S
N188 C192 1.362 . S
C189 C190 1.258 . S
C189 C192 1.431 . S
C189 C209 1.449 . S
C190 C189 1.258 . S
C190 C191 1.477 . S
C190 H210 0.931 . S
C191 C187 1.460 . S
C191 C190 1.477 . S
C191 H211 0.930 . S
C192 N188 1.362 . S
C192 C189 1.431 . S
C192 C202 1.476 . S
H193 C187 0.929 . S
C194 O185 1.250 . S
C194 O186 1.258 1_455 S
O195 Mn180 2.162 . S
O195 C183 1.281 . S
O196 Mn180 2.297 . S
O196 C183 1.236 . S
N197 Mn181 2.282 . S
N197 C198 1.328 . S
N197 C202 1.318 . S
C198 N197 1.328 . S
C198 C199 1.457 . S
C198 H203 0.929 . S
C199 C198 1.457 . S
C199 C200 1.291 . S
C199 H212 0.931 . S
C200 C199 1.291 . S
C200 C201 1.373 . S
C200 H213 0.929 . S
C201 C200 1.373 . S
C201 C202 1.396 . S
C201 C208 1.403 . S
C202 C192 1.476 . S
C202 N197 1.318 . S
C202 C201 1.396 . S
H203 C198 0.929 . S
O204 Mn180 2.385 1_655 S
O204 C182 1.234 . S
O205 Mn180 2.209 1_655 S
O205 Mn181 2.215 . S
O205 C182 1.283 . S
O206 Mn180 2.094 . S
O206 C184 1.240 . S
O207 Mn181 2.117 . S
O207 C184 1.264 1_655 S
C208 C201 1.403 . S
C208 C209 1.399 . S
C208 H214 0.929 . S
C209 C189 1.449 . S
C209 C208 1.399 . S
C209 H215 0.930 . S
H210 C190 0.931 . S
H211 C191 0.930 . S
H212 C199 0.931 . S
H213 C200 0.929 . S
H214 C208 0.929 . S
H215 C209 0.930 . S
Mn216 O221 2.095 . S
Mn216 O231 2.158 1_545 S
Mn216 O232 2.297 . S
Mn216 O240 2.385 1_545 S
Mn216 O241 2.209 . S
Mn216 O242 2.094 1_545 S
Mn217 O222 2.121 . S
Mn217 N224 2.257 . S
Mn217 N233 2.282 1_545 S
Mn217 O241 2.215 . S
Mn217 O243 2.117 1_545 S
C218 O240 1.234 1_545 S
C218 O241 1.283 . S
C219 O231 1.264 1_545 S
C219 O232 1.236 . S
C220 O242 1.240 . S
C220 O243 1.264 . S
O221 Mn216 2.095 . S
O221 C230 1.250 . S
O222 Mn217 2.121 . S
O222 C230 1.258 . S
C223 N224 1.326 . S
C223 C227 1.460 . S
C223 H229 0.929 . S
N224 Mn217 2.257 . S
N224 C223 1.326 . S
N224 C228 1.362 . S
C225 C226 1.258 . S
C225 C228 1.431 . S
C225 C245 1.449 . S
C226 C225 1.258 . S
C226 C227 1.477 . S
C226 H246 0.931 . S
C227 C223 1.460 . S
C227 C226 1.477 . S
C227 H247 0.930 . S
C228 N224 1.362 . S
C228 C225 1.431 . S
C228 C238 1.476 . S
H229 C223 0.929 . S
C230 O221 1.250 . S
C230 O222 1.258 . S
O231 Mn216 2.158 1_565 S
O231 C219 1.264 1_565 S
O232 Mn216 2.297 . S
O232 C219 1.236 . S
N233 Mn217 2.282 1_565 S
N233 C234 1.328 . S
N233 C238 1.318 1_565 S
C234 N233 1.328 . S
C234 C235 1.457 . S
C234 H239 0.929 . S
C235 C234 1.457 . S
C235 C236 1.291 . S
C235 H248 0.931 . S
C236 C235 1.291 . S
C236 C237 1.373 . S
C236 H249 0.929 . S
C237 C236 1.373 . S
C237 C238 1.396 1_565 S
C237 C244 1.403 1_565 S
C238 C228 1.476 . S
C238 N233 1.318 1_545 S
C238 C237 1.396 1_545 S
H239 C234 0.929 . S
O240 Mn216 2.385 1_565 S
O240 C218 1.234 1_565 S
O241 Mn216 2.209 . S
O241 Mn217 2.215 . S
O241 C218 1.283 . S
O242 Mn216 2.094 1_565 S
O242 C220 1.240 . S
O243 Mn217 2.117 1_565 S
O243 C220 1.264 . S
C244 C237 1.403 1_545 S
C244 C245 1.399 . S
C244 H250 0.929 1_545 S
C245 C225 1.449 . S
C245 C244 1.399 . S
C245 H251 0.930 . S
H246 C226 0.931 . S
H247 C227 0.930 . S
H248 C235 0.931 . S
H249 C236 0.929 . S
H250 C244 0.929 1_565 S
H251 C245 0.930 . S
Mn252 O257 2.095 1_455 S
Mn252 O267 2.162 . S
Mn252 O268 2.297 1_455 S
Mn252 O276 2.385 . S
Mn252 O277 2.209 . S
Mn252 O278 2.094 . S
Mn253 O258 2.121 1_455 S
Mn253 N260 2.257 1_455 S
Mn253 N269 2.282 . S
Mn253 O277 2.215 . S
Mn253 O279 2.117 . S
C254 O276 1.234 . S
C254 O277 1.283 . S
C255 O267 1.281 . S
C255 O268 1.236 1_455 S
C256 O278 1.240 . S
C256 O279 1.264 . S
O257 Mn252 2.095 1_655 S
O257 C266 1.250 . S
O258 Mn253 2.121 1_655 S
O258 C266 1.258 . S
C259 N260 1.326 . S
C259 C263 1.460 . S
C259 H265 0.929 . S
N260 Mn253 2.257 1_655 S
N260 C259 1.326 . S
N260 C264 1.362 . S
C261 C262 1.258 . S
C261 C264 1.431 . S
C261 C281 1.449 . S
C262 C261 1.258 . S
C262 C263 1.477 . S
C262 H282 0.931 . S
C263 C259 1.460 . S
C263 C262 1.477 . S
C263 H283 0.930 . S
C264 N260 1.362 . S
C264 C261 1.431 . S
C264 C274 1.476 1_655 S
H265 C259 0.929 . S
C266 O257 1.250 . S
C266 O258 1.258 . S
O267 Mn252 2.162 . S
O267 C255 1.281 . S
O268 Mn252 2.297 1_655 S
O268 C255 1.236 1_655 S
N269 Mn253 2.282 . S
N269 C270 1.328 . S
N269 C274 1.318 . S
C270 N269 1.328 . S
C270 C271 1.457 . S
C270 H275 0.929 . S
C271 C270 1.457 . S
C271 C272 1.291 . S
C271 H284 0.931 . S
C272 C271 1.291 . S
C272 C273 1.373 . S
C272 H285 0.929 . S
C273 C272 1.373 . S
C273 C274 1.396 . S
C273 C280 1.403 . S
C274 C264 1.476 1_455 S
C274 N269 1.318 . S
C274 C273 1.396 . S
H275 C270 0.929 . S
O276 Mn252 2.385 . S
O276 C254 1.234 . S
O277 Mn252 2.209 . S
O277 Mn253 2.215 . S
O277 C254 1.283 . S
O278 Mn252 2.094 . S
O278 C256 1.240 . S
O279 Mn253 2.117 . S
O279 C256 1.264 . S
C280 C273 1.403 . S
C280 C281 1.399 1_455 S
C280 H286 0.929 . S
C281 C261 1.449 . S
C281 C280 1.399 1_655 S
C281 H287 0.930 . S
H282 C262 0.931 . S
H283 C263 0.930 . S
H284 C271 0.931 . S
H285 C272 0.929 . S
H286 C280 0.929 . S
H287 C281 0.930 . S
Mn288 O293 2.095 . S
Mn288 O303 2.162 1_554 S
Mn288 O304 2.297 . S
Mn288 O312 2.385 1_554 S
Mn288 O313 2.209 . S
Mn288 O314 2.094 1_554 S
Mn289 O294 2.121 . S
Mn289 N296 2.257 . S
Mn289 N305 2.282 1_554 S
Mn289 O313 2.215 . S
Mn289 O315 2.117 1_554 S
C290 O312 1.227 1_554 S
C290 O313 1.289 . S
C291 O303 1.281 1_554 S
C291 O304 1.236 . S
C292 O314 1.240 . S
C292 O315 1.264 . S
O293 Mn288 2.095 . S
O293 C302 1.250 . S
O294 Mn289 2.121 . S
O294 C302 1.258 . S
C295 N296 1.326 . S
C295 C299 1.460 . S
C295 H301 0.929 . S
N296 Mn289 2.257 . S
N296 C295 1.326 . S
N296 C300 1.362 . S
C297 C298 1.258 . S
C297 C300 1.431 . S
C297 C317 1.449 . S
C298 C297 1.258 . S
C298 C299 1.477 . S
C298 H318 0.931 . S
C299 C295 1.460 . S
C299 C298 1.477 . S
C299 H319 0.930 . S
C300 N296 1.362 . S
C300 C297 1.431 . S
C300 C310 1.476 . S
H301 C295 0.929 . S
C302 O293 1.250 . S
C302 O294 1.258 . S
O303 Mn288 2.162 1_556 S
O303 C291 1.281 1_556 S
O304 Mn288 2.297 . S
O304 C291 1.236 . S
N305 Mn289 2.282 1_556 S
N305 C306 1.328 . S
N305 C310 1.318 1_556 S
C306 N305 1.328 . S
C306 C307 1.457 . S
C306 H311 0.929 . S
C307 C306 1.457 . S
C307 C308 1.291 . S
C307 H320 0.931 . S
C308 C307 1.291 . S
C308 C309 1.373 . S
C308 H321 0.929 . S
C309 C308 1.373 . S
C309 C310 1.396 1_556 S
C309 C316 1.403 1_556 S
C310 C300 1.476 . S
C310 N305 1.318 1_554 S
C310 C309 1.396 1_554 S
H311 C306 0.929 . S
O312 Mn288 2.385 1_556 S
O312 C290 1.227 1_556 S
O313 Mn288 2.209 . S
O313 Mn289 2.215 . S
O313 C290 1.289 . S
O314 Mn288 2.094 1_556 S
O314 C292 1.240 . S
O315 Mn289 2.117 1_556 S
O315 C292 1.264 . S
C316 C309 1.403 1_554 S
C316 C317 1.399 . S
C316 H322 0.922 1_554 S
C317 C297 1.449 . S
C317 C316 1.399 . S
C317 H323 0.930 . S
H318 C298 0.931 . S
H319 C299 0.930 . S
H320 C307 0.931 . S
H321 C308 0.929 . S
H322 C316 0.922 1_556 S
H323 C317 0.930 . S
Mn324 O329 2.095 1_554 S
Mn324 O339 2.162 . S
Mn324 O340 2.297 1_554 S
Mn324 O348 2.385 . S
Mn324 O349 2.209 1_554 S
Mn324 O350 2.094 . S
Mn325 O330 2.121 . S
Mn325 N332 2.257 . S
Mn325 N341 2.282 1_556 S
Mn325 O349 2.215 . S
Mn325 O351 2.117 1_556 S
C326 O348 1.234 . S
C326 O349 1.283 1_554 S
C327 O339 1.281 1_556 S
C327 O340 1.236 . S
C328 O350 1.240 . S
C328 O351 1.264 . S
O329 Mn324 2.095 1_556 S
O329 C338 1.250 . S
O330 Mn325 2.121 . S
O330 C338 1.258 . S
C331 N332 1.326 . S
C331 C335 1.460 . S
C331 H337 0.929 . S
N332 Mn325 2.257 . S
N332 C331 1.326 . S
N332 C336 1.362 . S
C333 C334 1.258 . S
C333 C336 1.431 . S
C333 C353 1.449 . S
C334 C333 1.258 . S
C334 C335 1.477 . S
C334 H354 0.931 . S
C335 C331 1.460 . S
C335 C334 1.477 . S
C335 H355 0.930 . S
C336 N332 1.362 . S
C336 C333 1.431 . S
C336 C346 1.476 1_556 S
H337 C331 0.929 . S
C338 O329 1.250 . S
C338 O330 1.258 . S
O339 Mn324 2.162 . S
O339 C327 1.281 1_554 S
O340 Mn324 2.297 1_556 S
O340 C327 1.236 . S
N341 Mn325 2.282 1_554 S
N341 C342 1.328 . S
N341 C346 1.318 . S
C342 N341 1.328 . S
C342 C343 1.457 . S
C342 H347 0.929 . S
C343 C342 1.457 . S
C343 C344 1.291 . S
C343 H356 0.931 . S
C344 C343 1.291 . S
C344 C345 1.373 . S
C344 H357 0.929 . S
C345 C344 1.373 . S
C345 C346 1.396 . S
C345 C352 1.403 . S
C346 C336 1.476 1_554 S
C346 N341 1.318 . S
C346 C345 1.396 . S
H347 C342 0.929 . S
O348 Mn324 2.385 . S
O348 C326 1.234 . S
O349 Mn324 2.209 1_556 S
O349 Mn325 2.215 . S
O349 C326 1.283 1_556 S
O350 Mn324 2.094 . S
O350 C328 1.240 . S
O351 Mn325 2.117 1_554 S
O351 C328 1.264 . S
C352 C345 1.403 . S
C352 C353 1.399 1_554 S
C352 H358 0.929 . S
C353 C333 1.449 . S
C353 C352 1.399 1_556 S
C353 H359 0.930 . S
H354 C334 0.931 . S
H355 C335 0.930 . S
H356 C343 0.931 . S
H357 C344 0.929 . S
H358 C352 0.929 . S
H359 C353 0.930 . S
Mn360 O365 2.095 . S
Mn360 O375 2.162 1_554 S
Mn360 O376 2.297 . S
Mn360 O384 2.385 1_554 S
Mn360 O385 2.209 . S
Mn360 O386 2.094 1_554 S
Mn361 O366 2.121 . S
Mn361 N368 2.257 . S
Mn361 N377 2.282 1_554 S
Mn361 O385 2.215 . S
Mn361 O387 2.117 1_554 S
C362 O384 1.218 1_554 S
C362 O385 1.297 . S
C363 O375 1.281 1_554 S
C363 O376 1.236 . S
C364 O386 1.240 . S
C364 O387 1.264 . S
O365 Mn360 2.095 . S
O365 C374 1.250 . S
O366 Mn361 2.121 . S
O366 C374 1.258 . S
C367 N368 1.326 . S
C367 C371 1.460 . S
C367 H373 0.929 . S
N368 Mn361 2.257 . S
N368 C367 1.326 . S
N368 C372 1.362 . S
C369 C370 1.258 . S
C369 C372 1.431 . S
C369 C389 1.449 . S
C370 C369 1.258 . S
C370 C371 1.477 . S
C370 H390 0.931 . S
C371 C367 1.460 . S
C371 C370 1.477 . S
C371 H391 0.930 . S
C372 N368 1.362 . S
C372 C369 1.431 . S
C372 C382 1.495 . S
H373 C367 0.929 . S
C374 O365 1.250 . S
C374 O366 1.258 . S
O375 Mn360 2.162 1_556 S
O375 C363 1.281 1_556 S
O376 Mn360 2.297 . S
O376 C363 1.236 . S
N377 Mn361 2.282 1_556 S
N377 C378 1.328 . S
N377 C382 1.309 1_556 S
C378 N377 1.328 . S
C378 C379 1.457 . S
C378 H383 0.929 . S
C379 C378 1.457 . S
C379 C380 1.291 . S
C379 H392 0.931 . S
C380 C379 1.291 . S
C380 C381 1.373 . S
C380 H393 0.929 . S
C381 C380 1.373 . S
C381 C382 1.387 1_556 S
C381 C388 1.403 1_556 S
C382 C372 1.495 . S
C382 N377 1.309 1_554 S
C382 C381 1.387 1_554 S
H383 C378 0.929 . S
O384 Mn360 2.385 1_556 S
O384 C362 1.218 1_556 S
O385 Mn360 2.209 . S
O385 Mn361 2.215 . S
O385 C362 1.297 . S
O386 Mn360 2.094 1_556 S
O386 C364 1.240 . S
O387 Mn361 2.117 1_556 S
O387 C364 1.264 . S
C388 C381 1.403 1_554 S
C388 C389 1.399 . S
C388 H394 0.929 1_554 S
C389 C369 1.449 . S
C389 C388 1.399 . S
C389 H395 0.930 . S
H390 C370 0.931 . S
H391 C371 0.930 . S
H392 C379 0.931 . S
H393 C380 0.929 . S
H394 C388 0.929 1_556 S
H395 C389 0.930 . S
Mn396 O401 2.095 1_554 S
Mn396 O411 2.162 . S
Mn396 O412 2.297 1_554 S
Mn396 O420 2.385 . S
Mn396 O421 2.209 . S
Mn396 O422 2.094 . S
Mn397 O402 2.121 1_554 S
Mn397 N404 2.257 1_554 S
Mn397 N413 2.282 . S
Mn397 O421 2.215 . S
Mn397 O423 2.117 . S
C398 O420 1.234 . S
C398 O421 1.283 . S
C399 O411 1.281 . S
C399 O412 1.236 1_554 S
C400 O422 1.240 . S
C400 O423 1.264 . S
O401 Mn396 2.095 1_556 S
O401 C410 1.250 . S
O402 Mn397 2.121 1_556 S
O402 C410 1.258 . S
C403 N404 1.326 . S
C403 C407 1.460 . S
C403 H409 0.929 . S
N404 Mn397 2.257 1_556 S
N404 C403 1.326 . S
N404 C408 1.362 . S
C405 C406 1.258 . S
C405 C408 1.431 . S
C405 C425 1.449 . S
C406 C405 1.258 . S
C406 C407 1.477 . S
C406 H426 0.931 . S
C407 C403 1.460 . S
C407 C406 1.477 . S
C407 H427 0.930 . S
C408 N404 1.362 . S
C408 C405 1.431 . S
C408 C418 1.476 1_556 S
H409 C403 0.929 . S
C410 O401 1.250 . S
C410 O402 1.258 . S
O411 Mn396 2.162 . S
O411 C399 1.281 . S
O412 Mn396 2.297 1_556 S
O412 C399 1.236 1_556 S
N413 Mn397 2.282 . S
N413 C414 1.328 . S
N413 C418 1.318 . S
C414 N413 1.328 . S
C414 C415 1.457 . S
C414 H419 0.929 . S
C415 C414 1.457 . S
C415 C416 1.291 . S
C415 H428 0.931 . S
C416 C415 1.291 . S
C416 C417 1.373 . S
C416 H429 0.929 . S
C417 C416 1.373 . S
C417 C418 1.396 . S
C417 C424 1.403 . S
C418 C408 1.476 1_554 S
C418 N413 1.318 . S
C418 C417 1.396 . S
H419 C414 0.929 . S
O420 Mn396 2.385 . S
O420 C398 1.234 . S
O421 Mn396 2.209 . S
O421 Mn397 2.215 . S
O421 C398 1.283 . S
O422 Mn396 2.094 . S
O422 C400 1.240 . S
O423 Mn397 2.117 . S
O423 C400 1.264 . S
C424 C417 1.403 . S
C424 C425 1.399 1_554 S
C424 H430 0.929 . S
C425 C405 1.449 . S
C425 C424 1.399 1_556 S
C425 H431 0.930 . S
H426 C406 0.931 . S
H427 C407 0.930 . S
H428 C415 0.931 . S
H429 C416 0.929 . S
H430 C424 0.929 . S
H431 C425 0.930 . S
H432 C438 0.930 . S
H433 C442 0.930 . S
H434 C447 0.929 . S
H435 C445 0.929 . S
H436 C440 0.929 . S
H437 C446 0.929 . S
C438 H432 0.930 . S
C438 C439 1.367 . S
C438 C446 1.378 . S
C439 C438 1.367 . S
C439 C447 1.433 . S
C440 H436 0.929 . S
C440 C442 1.378 . S
C440 C444 1.350 . S
C441 C444 1.463 . S
C441 C446 1.350 . S
C441 N449 1.427 . S
C442 H433 0.930 . S
C442 C440 1.378 . S
C442 C443 1.367 . S
C443 C442 1.367 . S
C443 C445 1.433 . S
C444 C440 1.350 . S
C444 C441 1.463 . S
C444 N448 1.427 . S
C445 H435 0.929 . S
C445 C443 1.433 . S
C445 N448 1.384 . S
C446 H437 0.929 . S
C446 C438 1.378 . S
C446 C441 1.350 . S
C447 H434 0.929 . S
C447 C439 1.433 . S
C447 N449 1.384 . S
N448 C444 1.427 . S
N448 C445 1.384 . S
N449 C441 1.427 . S
N449 C447 1.384 . S
H450 C456 0.930 . S
H451 C460 0.930 . S
H452 C465 0.929 . S
H453 C463 0.929 . S
H454 C458 0.929 . S
H455 C464 0.929 . S
C456 H450 0.930 . S
C456 C457 1.367 . S
C456 C464 1.378 . S
C457 C456 1.367 . S
C457 C465 1.433 1_545 S
C458 H454 0.929 . S
C458 C460 1.378 . S
C458 C462 1.350 1_565 S
C459 C462 1.463 . S
C459 C464 1.350 . S
C459 N467 1.427 1_545 S
C460 H451 0.930 . S
C460 C458 1.378 . S
C460 C461 1.367 1_565 S
C461 C460 1.367 1_545 S
C461 C463 1.433 . S
C462 C458 1.350 1_545 S
C462 C459 1.463 . S
C462 N466 1.427 . S
C463 H453 0.929 . S
C463 C461 1.433 . S
C463 N466 1.384 . S
C464 H455 0.929 . S
C464 C456 1.378 . S
C464 C459 1.350 . S
C465 H452 0.929 . S
C465 C457 1.433 1_565 S
C465 N467 1.384 . S
N466 C462 1.427 . S
N466 C463 1.384 . S
N467 C459 1.427 1_565 S
N467 C465 1.384 . S
H468 C474 0.930 1_655 S
H469 C478 0.930 . S
H470 C483 0.929 . S
H471 C481 0.929 . S
H472 C476 0.929 . S
H473 C482 0.929 1_655 S
C474 H468 0.930 1_455 S
C474 C475 1.367 . S
C474 C482 1.378 . S
C475 C474 1.367 . S
C475 C483 1.433 . S
C476 H472 0.929 . S
C476 C478 1.378 . S
C476 C480 1.350 . S
C477 C480 1.463 . S
C477 C482 1.350 . S
C477 N485 1.427 . S
C478 H469 0.930 . S
C478 C476 1.378 . S
C478 C479 1.367 . S
C479 C478 1.367 . S
C479 C481 1.433 1_455 S
C480 C476 1.350 . S
C480 C477 1.463 . S
C480 N484 1.427 1_455 S
C481 H471 0.929 . S
C481 C479 1.433 1_655 S
C481 N484 1.384 . S
C482 H473 0.929 1_455 S
C482 C474 1.378 . S
C482 C477 1.350 . S
C483 H470 0.929 . S
C483 C475 1.433 . S
C483 N485 1.384 . S
N484 C480 1.427 1_655 S
N484 C481 1.384 . S
N485 C477 1.427 . S
N485 C483 1.384 . S
H486 C492 0.930 . S
H487 C496 0.930 . S
H488 C501 0.929 . S
H489 C499 0.929 . S
H490 C494 0.929 . S
H491 C500 0.929 . S
C492 H486 0.930 . S
C492 C493 1.367 . S
C492 C500 1.378 . S
C493 C492 1.367 . S
C493 C501 1.433 1_545 S
C494 H490 0.929 . S
C494 C496 1.378 . S
C494 C498 1.350 1_565 S
C495 C498 1.463 . S
C495 C500 1.350 . S
C495 N503 1.427 1_545 S
C496 H487 0.930 . S
C496 C494 1.378 . S
C496 C497 1.367 1_565 S
C497 C496 1.367 1_545 S
C497 C499 1.433 . S
C498 C494 1.350 1_545 S
C498 C495 1.463 . S
C498 N502 1.427 . S
C499 H489 0.929 . S
C499 C497 1.433 . S
C499 N502 1.384 . S
C500 H491 0.929 . S
C500 C492 1.378 . S
C500 C495 1.350 . S
C501 H488 0.929 . S
C501 C493 1.433 1_565 S
C501 N503 1.384 . S
N502 C498 1.427 . S
N502 C499 1.384 . S
N503 C495 1.427 1_565 S
N503 C501 1.384 . S
H504 C510 0.930 . S
H505 C514 0.930 1_655 S
H506 C519 0.929 . S
H507 C517 0.929 . S
H508 C512 0.929 . S
H509 C518 0.929 . S
C510 H504 0.930 . S
C510 C511 1.367 . S
C510 C518 1.378 . S
C511 C510 1.367 . S
C511 C519 1.433 1_455 S
C512 H508 0.929 . S
C512 C514 1.378 1_655 S
C512 C516 1.350 1_655 S
C513 C516 1.463 . S
C513 C518 1.350 . S
C513 N521 1.427 1_455 S
C514 H505 0.930 1_455 S
C514 C512 1.378 1_455 S
C514 C515 1.367 . S
C515 C514 1.367 . S
C515 C517 1.433 . S
C516 C512 1.350 1_455 S
C516 C513 1.463 . S
C516 N520 1.427 . S
C517 H507 0.929 . S
C517 C515 1.433 . S
C517 N520 1.384 . S
C518 H509 0.929 . S
C518 C510 1.378 . S
C518 C513 1.350 . S
C519 H506 0.929 . S
C519 C511 1.433 1_655 S
C519 N521 1.384 . S
N520 C516 1.427 . S
N520 C517 1.384 . S
N521 C513 1.427 1_655 S
N521 C519 1.384 . S
H522 C528 0.930 . S
H523 C532 0.930 . S
H524 C537 0.929 . S
H525 C535 0.929 . S
H526 C530 0.929 . S
H527 C536 0.929 . S
C528 H522 0.930 . S
C528 C529 1.367 1_565 S
C528 C536 1.378 . S
C529 C528 1.367 1_545 S
C529 C537 1.433 . S
C530 H526 0.929 . S
C530 C532 1.378 . S
C530 C534 1.350 . S
C531 C534 1.463 . S
C531 C536 1.350 1_545 S
C531 N539 1.427 . S
C532 H523 0.930 . S
C532 C530 1.378 . S
C532 C533 1.367 . S
C533 C532 1.367 . S
C533 C535 1.433 1_545 S
C534 C530 1.350 . S
C534 C531 1.463 . S
C534 N538 1.427 1_545 S
C535 H525 0.929 . S
C535 C533 1.433 1_565 S
C535 N538 1.384 . S
C536 H527 0.929 . S
C536 C528 1.378 . S
C536 C531 1.350 1_565 S
C537 H524 0.929 . S
C537 C529 1.433 . S
C537 N539 1.384 . S
N538 C534 1.427 1_565 S
N538 C535 1.384 . S
N539 C531 1.427 . S
N539 C537 1.384 . S
H540 C546 0.930 . S
H541 C550 0.930 . S
H542 C555 0.929 . S
H543 C553 0.929 . S
H544 C548 0.931 . S
H545 C554 0.929 . S
C546 H540 0.930 . S
C546 C547 1.367 . S
C546 C554 1.378 . S
C547 C546 1.367 . S
C547 C555 1.433 1_455 S
C548 H544 0.931 . S
C548 C550 1.378 . S
C548 C552 1.350 . S
C549 C552 1.463 . S
C549 C554 1.350 . S
C549 N557 1.430 . S
C550 H541 0.930 . S
C550 C548 1.378 . S
C550 C551 1.367 . S
C551 C550 1.367 . S
C551 C553 1.433 . S
C552 C548 1.350 . S
C552 C549 1.463 . S
C552 N556 1.427 . S
C553 H543 0.929 . S
C553 C551 1.433 . S
C553 N556 1.384 . S
C554 H545 0.929 . S
C554 C546 1.378 . S
C554 C549 1.350 . S
C555 H542 0.929 . S
C555 C547 1.433 1_655 S
C555 N557 1.383 1_655 S
N556 C552 1.427 . S
N556 C553 1.384 . S
N557 C549 1.430 . S
N557 C555 1.383 1_455 S
H558 C564 0.930 . S
H559 C568 0.930 . S
H560 C573 0.929 . S
H561 C571 0.929 . S
H562 C566 0.929 . S
H563 C572 0.929 . S
C564 H558 0.930 . S
C564 C565 1.367 1_565 S
C564 C572 1.378 . S
C565 C564 1.367 1_545 S
C565 C573 1.433 . S
C566 H562 0.929 . S
C566 C568 1.378 . S
C566 C570 1.350 . S
C567 C570 1.463 . S
C567 C572 1.350 1_545 S
C567 N575 1.427 . S
C568 H559 0.930 . S
C568 C566 1.378 . S
C568 C569 1.367 . S
C569 C568 1.367 . S
C569 C571 1.433 1_545 S
C570 C566 1.350 . S
C570 C567 1.463 . S
C570 N574 1.427 1_545 S
C571 H561 0.929 . S
C571 C569 1.433 1_565 S
C571 N574 1.384 . S
C572 H563 0.929 . S
C572 C564 1.378 . S
C572 C567 1.350 1_565 S
C573 H560 0.929 . S
C573 C565 1.433 . S
C573 N575 1.384 . S
N574 C570 1.427 1_565 S
N574 C571 1.384 . S
N575 C567 1.427 . S
N575 C573 1.384 . S
H576 C582 0.930 . S
H577 C586 0.930 . S
H578 C591 0.929 . S
H579 C589 0.929 . S
H580 C584 0.929 . S
H581 C590 0.929 . S
C582 H576 0.930 . S
C582 C583 1.367 1_554 S
C582 C590 1.378 . S
C583 C582 1.367 1_556 S
C583 C591 1.433 . S
C584 H580 0.929 . S
C584 C586 1.378 . S
C584 C588 1.350 1_556 S
C585 C588 1.463 . S
C585 C590 1.350 . S
C585 N593 1.427 1_554 S
C586 H577 0.930 . S
C586 C584 1.378 . S
C586 C587 1.367 1_556 S
C587 C586 1.367 1_554 S
C587 C589 1.433 . S
C588 C584 1.350 1_554 S
C588 C585 1.463 . S
C588 N592 1.427 . S
C589 H579 0.929 . S
C589 C587 1.433 . S
C589 N592 1.384 . S
C590 H581 0.929 . S
C590 C582 1.378 . S
C590 C585 1.350 . S
C591 H578 0.929 . S
C591 C583 1.433 . S
C591 N593 1.384 . S
N592 C588 1.427 . S
N592 C589 1.384 . S
N593 C585 1.427 1_556 S
N593 C591 1.384 . S
H594 C600 0.930 . S
H595 C604 0.930 . S
H596 C609 0.929 . S
H597 C607 0.929 . S
H598 C602 0.929 . S
H599 C608 0.929 . S
C600 H594 0.930 . S
C600 C601 1.367 . S
C600 C608 1.378 . S
C601 C600 1.367 . S
C601 C609 1.433 . S
C602 H598 0.929 . S
C602 C604 1.378 . S
C602 C606 1.350 . S
C603 C606 1.463 . S
C603 C608 1.350 . S
C603 N611 1.427 . S
C604 H595 0.930 . S
C604 C602 1.378 . S
C604 C605 1.367 . S
C605 C604 1.367 . S
C605 C607 1.433 . S
C606 C602 1.350 . S
C606 C603 1.463 . S
C606 N610 1.427 . S
C607 H597 0.929 . S
C607 C605 1.433 . S
C607 N610 1.384 . S
C608 H599 0.929 . S
C608 C600 1.378 . S
C608 C603 1.350 . S
C609 H596 0.929 . S
C609 C601 1.433 . S
C609 N611 1.384 . S
N610 C606 1.427 . S
N610 C607 1.384 . S
N611 C603 1.427 . S
N611 C609 1.384 . S
H612 C618 0.930 . S
H613 C622 0.930 . S
H614 C627 0.929 . S
H615 C625 0.929 . S
H616 C620 0.929 . S
H617 C626 0.929 . S
C618 H612 0.930 . S
C618 C619 1.367 . S
C618 C626 1.378 . S
C619 C618 1.367 . S
C619 C627 1.433 1_554 S
C620 H616 0.929 . S
C620 C622 1.378 . S
C620 C624 1.350 1_556 S
C621 C624 1.463 . S
C621 C626 1.350 . S
C621 N629 1.427 1_554 S
C622 H613 0.930 . S
C622 C620 1.378 . S
C622 C623 1.367 1_556 S
C623 C622 1.367 1_554 S
C623 C625 1.433 . S
C624 C620 1.350 1_554 S
C624 C621 1.463 . S
C624 N628 1.427 . S
C625 H615 0.929 . S
C625 C623 1.433 . S
C625 N628 1.384 . S
C626 H617 0.929 . S
C626 C618 1.378 . S
C626 C621 1.350 . S
C627 H614 0.929 . S
C627 C619 1.433 1_556 S
C627 N629 1.384 . S
N628 C624 1.427 . S
N628 C625 1.384 . S
N629 C621 1.427 1_556 S
N629 C627 1.384 . S
H630 C636 0.930 . S
H631 C640 0.930 . S
H632 C645 0.929 . S
H633 C643 0.929 1_556 S
H634 C638 0.929 . S
H635 C644 0.929 . S
C636 H630 0.930 . S
C636 C637 1.367 . S
C636 C644 1.378 . S
C637 C636 1.367 . S
C637 C645 1.433 . S
C638 H634 0.929 . S
C638 C640 1.378 . S
C638 C642 1.350 . S
C639 C642 1.463 . S
C639 C644 1.350 . S
C639 N647 1.427 . S
C640 H631 0.930 . S
C640 C638 1.378 . S
C640 C641 1.367 . S
C641 C640 1.367 . S
C641 C643 1.434 . S
C642 C638 1.350 . S
C642 C639 1.463 . S
C642 N646 1.427 . S
C643 H633 0.929 1_554 S
C643 C641 1.434 . S
C643 N646 1.384 . S
C644 H635 0.929 . S
C644 C636 1.378 . S
C644 C639 1.350 . S
C645 H632 0.929 . S
C645 C637 1.433 . S
C645 N647 1.384 . S
N646 C642 1.427 . S
N646 C643 1.384 . S
N647 C639 1.427 . S
N647 C645 1.384 . S
H648 C654 0.930 . S
H649 C658 0.930 . S
H650 C663 0.929 . S
H651 C661 0.929 . S
H652 C656 0.929 . S
H653 C662 0.929 . S
C654 H648 0.930 . S
C654 C655 1.367 . S
C654 C662 1.378 . S
C655 C654 1.367 . S
C655 C663 1.433 . S
C656 H652 0.929 . S
C656 C658 1.378 . S
C656 C660 1.350 . S
C657 C660 1.463 . S
C657 C662 1.350 . S
C657 N665 1.427 . S
C658 H649 0.930 . S
C658 C656 1.378 . S
C658 C659 1.367 . S
C659 C658 1.367 . S
C659 C661 1.433 . S
C660 C656 1.350 . S
C660 C657 1.463 . S
C660 N664 1.427 . S
C661 H651 0.929 . S
C661 C659 1.433 . S
C661 N664 1.384 . S
C662 H653 0.929 . S
C662 C654 1.378 . S
C662 C657 1.350 . S
C663 H650 0.929 . S
C663 C655 1.433 . S
C663 N665 1.384 . S
N664 C660 1.427 . S
N664 C661 1.384 . S
N665 C657 1.427 . S
N665 C663 1.384 . S
H666 C672 0.930 . S
H667 C676 0.930 . S
H668 C681 0.929 . S
H669 C679 0.929 . S
H670 C674 0.929 . S
H671 C680 0.929 . S
C672 H666 0.930 . S
C672 C673 1.367 . S
C672 C680 1.378 . S
C673 C672 1.367 . S
C673 C681 1.433 . S
C674 H670 0.929 . S
C674 C676 1.378 . S
C674 C678 1.350 . S
C675 C678 1.463 . S
C675 C680 1.350 . S
C675 N683 1.427 . S
C676 H667 0.930 . S
C676 C674 1.378 . S
C676 C677 1.367 . S
C677 C676 1.367 . S
C677 C679 1.433 . S
C678 C674 1.350 . S
C678 C675 1.463 . S
C678 N682 1.427 . S
C679 H669 0.929 . S
C679 C677 1.433 . S
C679 N682 1.384 . S
C680 H671 0.929 . S
C680 C672 1.378 . S
C680 C675 1.350 . S
C681 H668 0.929 . S
C681 C673 1.433 . S
C681 N683 1.384 . S
N682 C678 1.427 . S
N682 C679 1.384 . S
N683 C675 1.427 . S
N683 C681 1.384 . S
H684 C690 0.930 . S
H685 C694 0.930 . S
H686 C699 0.929 . S
H687 C697 0.929 . S
H688 C692 0.929 . S
H689 C698 0.929 . S
C690 H684 0.930 . S
C690 C691 1.367 . S
C690 C698 1.378 . S
C691 C690 1.367 . S
C691 C699 1.433 . S
C692 H688 0.929 . S
C692 C694 1.378 . S
C692 C696 1.350 . S
C693 C696 1.463 . S
C693 C698 1.350 . S
C693 N701 1.427 . S
C694 H685 0.930 . S
C694 C692 1.378 . S
C694 C695 1.367 . S
C695 C694 1.367 . S
C695 C697 1.433 . S
C696 C692 1.350 . S
C696 C693 1.463 . S
C696 N700 1.427 . S
C697 H687 0.929 . S
C697 C695 1.433 . S
C697 N700 1.384 . S
C698 H689 0.929 . S
C698 C690 1.378 . S
C698 C693 1.350 . S
C699 H686 0.929 . S
C699 C691 1.433 . S
C699 N701 1.384 . S
N700 C696 1.427 . S
N700 C697 1.384 . S
N701 C693 1.427 . S
N701 C699 1.384 . S
H702 C708 0.930 . S
H703 C712 0.930 . S
H704 C717 0.929 . S
H705 C715 0.929 . S
H706 C710 0.929 . S
H707 C716 0.929 . S
C708 H702 0.930 . S
C708 C709 1.367 . S
C708 C716 1.378 . S
C709 C708 1.367 . S
C709 C717 1.433 . S
C710 H706 0.929 . S
C710 C712 1.378 . S
C710 C714 1.350 . S
C711 C714 1.463 . S
C711 C716 1.350 . S
C711 N719 1.427 . S
C712 H703 0.930 . S
C712 C710 1.378 . S
C712 C713 1.367 . S
C713 C712 1.367 . S
C713 C715 1.433 . S
C714 C710 1.350 . S
C714 C711 1.463 . S
C714 N718 1.427 . S
C715 H705 0.929 . S
C715 C713 1.433 . S
C715 N718 1.384 . S
C716 H707 0.929 . S
C716 C708 1.378 . S
C716 C711 1.350 . S
C717 H704 0.929 . S
C717 C709 1.433 . S
C717 N719 1.384 . S
N718 C714 1.427 . S
N718 C715 1.384 . S
N719 C711 1.427 . S
N719 C717 1.384 . S
H720 C726 0.930 . S
H721 C730 0.930 . S
H722 C735 0.929 . S
H723 C733 0.929 . S
H724 C728 0.929 . S
H725 C734 0.929 . S
C726 H720 0.930 . S
C726 C727 1.367 . S
C726 C734 1.378 . S
C727 C726 1.367 . S
C727 C735 1.433 . S
C728 H724 0.929 . S
C728 C730 1.378 . S
C728 C732 1.350 . S
C729 C732 1.463 . S
C729 C734 1.350 . S
C729 N737 1.427 . S
C730 H721 0.930 . S
C730 C728 1.378 . S
C730 C731 1.367 . S
C731 C730 1.367 . S
C731 C733 1.433 . S
C732 C728 1.350 . S
C732 C729 1.463 . S
C732 N736 1.427 . S
C733 H723 0.929 . S
C733 C731 1.433 . S
C733 N736 1.384 . S
C734 H725 0.929 . S
C734 C726 1.378 . S
C734 C729 1.350 . S
C735 H722 0.929 . S
C735 C727 1.433 . S
C735 N737 1.384 . S
N736 C732 1.427 . S
N736 C733 1.384 . S
N737 C729 1.427 . S
N737 C735 1.384 . S
H738 C744 0.930 . S
H739 C748 0.930 . S
H740 C753 0.929 . S
H741 C751 0.929 . S
H742 C746 0.929 . S
H743 C752 0.929 . S
C744 H738 0.930 . S
C744 C745 1.367 . S
C744 C752 1.378 . S
C745 C744 1.367 . S
C745 C753 1.433 . S
C746 H742 0.929 . S
C746 C748 1.378 . S
C746 C750 1.350 . S
C747 C750 1.463 . S
C747 C752 1.350 . S
C747 N755 1.427 . S
C748 H739 0.930 . S
C748 C746 1.378 . S
C748 C749 1.367 . S
C749 C748 1.367 . S
C749 C751 1.433 . S
C750 C746 1.350 . S
C750 C747 1.463 . S
C750 N754 1.427 . S
C751 H741 0.929 . S
C751 C749 1.433 . S
C751 N754 1.384 . S
C752 H743 0.929 . S
C752 C744 1.378 . S
C752 C747 1.350 . S
C753 H740 0.929 . S
C753 C745 1.433 . S
C753 N755 1.384 . S
N754 C750 1.427 . S
N754 C751 1.384 . S
N755 C747 1.427 . S
N755 C753 1.384 . S
H756 C762 0.930 . S
H757 C766 0.930 . S
H758 C771 0.929 . S
H759 C769 0.929 . S
H760 C764 0.929 . S
H761 C770 0.929 . S
C762 H756 0.930 . S
C762 C763 1.367 . S
C762 C770 1.378 . S
C763 C762 1.367 . S
C763 C771 1.433 . S
C764 H760 0.929 . S
C764 C766 1.378 . S
C764 C768 1.350 . S
C765 C768 1.463 . S
C765 C770 1.350 . S
C765 N773 1.427 . S
C766 H757 0.930 . S
C766 C764 1.378 . S
C766 C767 1.367 . S
C767 C766 1.367 . S
C767 C769 1.433 . S
C768 C764 1.350 . S
C768 C765 1.463 . S
C768 N772 1.427 . S
C769 H759 0.929 . S
C769 C767 1.433 . S
C769 N772 1.384 . S
C770 H761 0.929 . S
C770 C762 1.378 . S
C770 C765 1.350 . S
C771 H758 0.929 . S
C771 C763 1.433 . S
C771 N773 1.384 . S
N772 C768 1.427 . S
N772 C769 1.384 . S
N773 C765 1.427 . S
N773 C771 1.384 . S
H774 C780 0.930 . S
H775 C784 0.930 . S
H776 C789 0.929 . S
H777 C787 0.929 . S
H778 C782 0.929 . S
H779 C788 0.929 . S
C780 H774 0.930 . S
C780 C781 1.367 . S
C780 C788 1.378 . S
C781 C780 1.367 . S
C781 C789 1.433 . S
C782 H778 0.929 . S
C782 C784 1.378 . S
C782 C786 1.350 . S
C783 C786 1.463 . S
C783 C788 1.350 . S
C783 N791 1.427 . S
C784 H775 0.930 . S
C784 C782 1.378 . S
C784 C785 1.367 . S
C785 C784 1.367 . S
C785 C787 1.433 . S
C786 C782 1.350 . S
C786 C783 1.463 . S
C786 N790 1.427 . S
C787 H777 0.929 . S
C787 C785 1.433 . S
C787 N790 1.384 . S
C788 H779 0.929 . S
C788 C780 1.378 . S
C788 C783 1.350 . S
C789 H776 0.929 . S
C789 C781 1.433 . S
C789 N791 1.384 . S
N790 C786 1.427 . S
N790 C787 1.384 . S
N791 C783 1.427 . S
N791 C789 1.384 . S
H792 C798 0.930 . S
H793 C802 0.930 . S
H794 C807 0.929 . S
H795 C805 0.929 . S
H796 C800 0.929 . S
H797 C806 0.929 . S
C798 H792 0.930 . S
C798 C799 1.367 . S
C798 C806 1.378 . S
C799 C798 1.367 . S
C799 C807 1.433 . S
C800 H796 0.929 . S
C800 C802 1.378 . S
C800 C804 1.350 . S
C801 C804 1.463 . S
C801 C806 1.350 . S
C801 N809 1.427 . S
C802 H793 0.930 . S
C802 C800 1.378 . S
C802 C803 1.367 . S
C803 C802 1.367 . S
C803 C805 1.433 . S
C804 C800 1.350 . S
C804 C801 1.463 . S
C804 N808 1.427 . S
C805 H795 0.929 . S
C805 C803 1.433 . S
C805 N808 1.384 . S
C806 H797 0.929 . S
C806 C798 1.378 . S
C806 C801 1.350 . S
C807 H794 0.929 . S
C807 C799 1.433 . S
C807 N809 1.384 . S
N808 C804 1.427 . S
N808 C805 1.384 . S
N809 C801 1.427 . S
N809 C807 1.384 . S
H810 C816 0.930 . S
H811 C820 0.930 . S
H812 C825 0.929 . S
H813 C823 0.929 . S
H814 C818 0.929 . S
H815 C824 0.929 . S
C816 H810 0.930 . S
C816 C817 1.367 . S
C816 C824 1.378 . S
C817 C816 1.367 . S
C817 C825 1.433 . S
C818 H814 0.929 . S
C818 C820 1.378 . S
C818 C822 1.350 . S
C819 C822 1.463 . S
C819 C824 1.350 . S
C819 N827 1.427 . S
C820 H811 0.930 . S
C820 C818 1.378 . S
C820 C821 1.367 . S
C821 C820 1.367 . S
C821 C823 1.433 . S
C822 C818 1.350 . S
C822 C819 1.463 . S
C822 N826 1.427 . S
C823 H813 0.929 . S
C823 C821 1.433 . S
C823 N826 1.384 . S
C824 H815 0.929 . S
C824 C816 1.378 . S
C824 C819 1.350 . S
C825 H812 0.929 . S
C825 C817 1.433 . S
C825 N827 1.384 . S
N826 C822 1.427 . S
N826 C823 1.384 . S
N827 C819 1.427 . S
N827 C825 1.384 . S
H828 C834 0.930 . S
H829 C838 0.930 . S
H830 C843 0.929 . S
H831 C841 0.929 . S
H832 C836 0.929 . S
H833 C842 0.929 . S
C834 H828 0.930 . S
C834 C835 1.367 . S
C834 C842 1.378 . S
C835 C834 1.367 . S
C835 C843 1.433 . S
C836 H832 0.929 . S
C836 C838 1.378 . S
C836 C840 1.350 . S
C837 C840 1.463 . S
C837 C842 1.350 . S
C837 N845 1.427 . S
C838 H829 0.930 . S
C838 C836 1.378 . S
C838 C839 1.367 . S
C839 C838 1.367 . S
C839 C841 1.433 . S
C840 C836 1.350 . S
C840 C837 1.463 . S
C840 N844 1.427 . S
C841 H831 0.929 . S
C841 C839 1.433 . S
C841 N844 1.384 . S
C842 H833 0.929 . S
C842 C834 1.378 . S
C842 C837 1.350 . S
C843 H830 0.929 . S
C843 C835 1.433 . S
C843 N845 1.384 . S
N844 C840 1.427 . S
N844 C841 1.384 . S
N845 C837 1.427 . S
N845 C843 1.384 . S
H846 C852 0.930 . S
H847 C856 0.930 . S
H848 C861 0.929 . S
H849 C859 0.929 . S
H850 C854 0.929 . S
H851 C860 0.929 . S
C852 H846 0.930 . S
C852 C853 1.367 . S
C852 C860 1.378 . S
C853 C852 1.367 . S
C853 C861 1.433 . S
C854 H850 0.929 . S
C854 C856 1.378 . S
C854 C858 1.350 . S
C855 C858 1.463 . S
C855 C860 1.350 . S
C855 N863 1.427 . S
C856 H847 0.930 . S
C856 C854 1.378 . S
C856 C857 1.367 . S
C857 C856 1.367 . S
C857 C859 1.433 . S
C858 C854 1.350 . S
C858 C855 1.463 . S
C858 N862 1.427 . S
C859 H849 0.929 . S
C859 C857 1.433 . S
C859 N862 1.384 . S
C860 H851 0.929 . S
C860 C852 1.378 . S
C860 C855 1.350 . S
C861 H848 0.929 . S
C861 C853 1.433 . S
C861 N863 1.384 . S
N862 C858 1.427 . S
N862 C859 1.384 . S
N863 C855 1.427 . S
N863 C861 1.384 . S
C439 C14 1.432 . S
C443 C184 1.522 . S
C457 C40 1.262 . S
C461 C148 1.261 . S
C475 C194 1.344 . S
C479 C86 1.350 . S
C493 C112 1.393 . S
C497 C158 1.297 . S
C511 C255 1.354 . S
C515 C76 1.366 . S
C529 C218 1.570 . S
C533 C122 1.483 . S
C547 C4 1.349 . S
C551 C254 1.342 . S
C565 C219 1.445 . S
C569 C50 1.354 . S
C583 C327 1.409 . S
C587 C291 1.411 . S
C601 C290 1.327 . S
C605 C398 1.331 . S
C619 C326 1.391 . S
C623 C362 1.388 . S
C637 C363 1.506 . S
C641 C399 1.508 . S
C655 C410 1.428 . S
C659 C220 1.521 . S
C673 C292 1.258 . S
C677 C256 1.263 . S
C691 C230 1.346 . S
C695 C338 1.354 . S
C709 C266 1.311 . S
C713 C364 1.394 . S
C727 C147 1.357 . S
C731 C328 1.364 . S
C745 C182 1.572 . S
C749 C374 1.482 . S
C763 C400 1.345 . S
C767 C146 1.347 . S
C781 C302 1.366 . S
C785 C183 1.448 . S
C799 C39 1.417 . S
C803 C75 1.416 . S
C817 C2 1.330 . S
C821 C38 1.328 . S
C835 C74 1.389 . S
C839 C110 1.387 . S
C853 C3 1.506 . S
C857 C111 1.504 . S
