# Generated by pormake.
# Topology whm, (6)-cn, num edge types: 1
# Building blocks:
#     Node 0, Type 0, BuildingBlock: OJICUG_clean_sbu_0, # of connection points: 6
#     Node 1, Type 0, BuildingBlock: OJICUG_clean_sbu_0, # of connection points: 6
#     Node 2, Type 0, BuildingBlock: OJICUG_clean_sbu_0, # of connection points: 6
#     Node 3, Type 0, BuildingBlock: OJICUG_clean_sbu_0, # of connection points: 6
#     Node 4, Type 0, BuildingBlock: OJICUG_clean_sbu_0, # of connection points: 6
#     Node 5, Type 0, BuildingBlock: OJICUG_clean_sbu_0, # of connection points: 6
#     Node 6, Type 0, BuildingBlock: OJICUG_clean_sbu_0, # of connection points: 6
#     Node 7, Type 0, BuildingBlock: OJICUG_clean_sbu_0, # of connection points: 6
#     Node 8, Type 0, BuildingBlock: OJICUG_clean_sbu_0, # of connection points: 6
#     Node 9, Type 0, BuildingBlock: OJICUG_clean_sbu_0, # of connection points: 6
#     Node 10, Type 0, BuildingBlock: OJICUG_clean_sbu_0, # of connection points: 6
#     Node 11, Type 0, BuildingBlock: OJICUG_clean_sbu_0, # of connection points: 6
#     Node 12, Type 0, BuildingBlock: OJICUG_clean_sbu_0, # of connection points: 6
#     Node 13, Type 0, BuildingBlock: OJICUG_clean_sbu_0, # of connection points: 6
#     Node 14, Type 0, BuildingBlock: OJICUG_clean_sbu_0, # of connection points: 6
#     Node 15, Type 0, BuildingBlock: OJICUG_clean_sbu_0, # of connection points: 6
#     Edge 16, Type (0, 0), BuildingBlock: AJUNOK_clean_linker_0, # of connection points: 2
#     Edge 17, Type (0, 0), BuildingBlock: AJUNOK_clean_linker_0, # of connection points: 2
#     Edge 18, Type (0, 0), BuildingBlock: AJUNOK_clean_linker_0, # of connection points: 2
#     Edge 19, Type (0, 0), BuildingBlock: AJUNOK_clean_linker_0, # of connection points: 2
#     Edge 20, Type (0, 0), BuildingBlock: AJUNOK_clean_linker_0, # of connection points: 2
#     Edge 21, Type (0, 0), BuildingBlock: AJUNOK_clean_linker_0, # of connection points: 2
#     Edge 22, Type (0, 0), BuildingBlock: AJUNOK_clean_linker_0, # of connection points: 2
#     Edge 23, Type (0, 0), BuildingBlock: AJUNOK_clean_linker_0, # of connection points: 2
#     Edge 24, Type (0, 0), BuildingBlock: AJUNOK_clean_linker_0, # of connection points: 2
#     Edge 25, Type (0, 0), BuildingBlock: AJUNOK_clean_linker_0, # of connection points: 2
#     Edge 26, Type (0, 0), BuildingBlock: AJUNOK_clean_linker_0, # of connection points: 2
#     Edge 27, Type (0, 0), BuildingBlock: AJUNOK_clean_linker_0, # of connection points: 2
#     Edge 28, Type (0, 0), BuildingBlock: AJUNOK_clean_linker_0, # of connection points: 2
#     Edge 29, Type (0, 0), BuildingBlock: AJUNOK_clean_linker_0, # of connection points: 2
#     Edge 30, Type (0, 0), BuildingBlock: AJUNOK_clean_linker_0, # of connection points: 2
#     Edge 31, Type (0, 0), BuildingBlock: AJUNOK_clean_linker_0, # of connection points: 2
#     Edge 32, Type (0, 0), BuildingBlock: AJUNOK_clean_linker_0, # of connection points: 2
#     Edge 33, Type (0, 0), BuildingBlock: AJUNOK_clean_linker_0, # of connection points: 2
#     Edge 34, Type (0, 0), BuildingBlock: AJUNOK_clean_linker_0, # of connection points: 2
#     Edge 35, Type (0, 0), BuildingBlock: AJUNOK_clean_linker_0, # of connection points: 2
#     Edge 36, Type (0, 0), BuildingBlock: AJUNOK_clean_linker_0, # of connection points: 2
#     Edge 37, Type (0, 0), BuildingBlock: AJUNOK_clean_linker_0, # of connection points: 2
#     Edge 38, Type (0, 0), BuildingBlock: AJUNOK_clean_linker_0, # of connection points: 2
#     Edge 39, Type (0, 0), BuildingBlock: AJUNOK_clean_linker_0, # of connection points: 2
#     Edge 40, Type (0, 0), BuildingBlock: AJUNOK_clean_linker_0, # of connection points: 2
#     Edge 41, Type (0, 0), BuildingBlock: AJUNOK_clean_linker_0, # of connection points: 2
#     Edge 42, Type (0, 0), BuildingBlock: AJUNOK_clean_linker_0, # of connection points: 2
#     Edge 43, Type (0, 0), BuildingBlock: AJUNOK_clean_linker_0, # of connection points: 2
#     Edge 44, Type (0, 0), BuildingBlock: AJUNOK_clean_linker_0, # of connection points: 2
#     Edge 45, Type (0, 0), BuildingBlock: AJUNOK_clean_linker_0, # of connection points: 2
#     Edge 46, Type (0, 0), BuildingBlock: AJUNOK_clean_linker_0, # of connection points: 2
#     Edge 47, Type (0, 0), BuildingBlock: AJUNOK_clean_linker_0, # of connection points: 2
#     Edge 48, Type (0, 0), BuildingBlock: AJUNOK_clean_linker_0, # of connection points: 2
#     Edge 49, Type (0, 0), BuildingBlock: AJUNOK_clean_linker_0, # of connection points: 2
#     Edge 50, Type (0, 0), BuildingBlock: AJUNOK_clean_linker_0, # of connection points: 2
#     Edge 51, Type (0, 0), BuildingBlock: AJUNOK_clean_linker_0, # of connection points: 2
#     Edge 52, Type (0, 0), BuildingBlock: AJUNOK_clean_linker_0, # of connection points: 2
#     Edge 53, Type (0, 0), BuildingBlock: AJUNOK_clean_linker_0, # of connection points: 2
#     Edge 54, Type (0, 0), BuildingBlock: AJUNOK_clean_linker_0, # of connection points: 2
#     Edge 55, Type (0, 0), BuildingBlock: AJUNOK_clean_linker_0, # of connection points: 2
#     Edge 56, Type (0, 0), BuildingBlock: AJUNOK_clean_linker_0, # of connection points: 2
#     Edge 57, Type (0, 0), BuildingBlock: AJUNOK_clean_linker_0, # of connection points: 2
#     Edge 58, Type (0, 0), BuildingBlock: AJUNOK_clean_linker_0, # of connection points: 2
#     Edge 59, Type (0, 0), BuildingBlock: AJUNOK_clean_linker_0, # of connection points: 2
#     Edge 60, Type (0, 0), BuildingBlock: AJUNOK_clean_linker_0, # of connection points: 2
#     Edge 61, Type (0, 0), BuildingBlock: AJUNOK_clean_linker_0, # of connection points: 2
#     Edge 62, Type (0, 0), BuildingBlock: AJUNOK_clean_linker_0, # of connection points: 2
#     Edge 63, Type (0, 0), BuildingBlock: AJUNOK_clean_linker_0, # of connection points: 2
# Relax obj value: 0.342
# Max RMSD: 0.245
# Mean RMSD: 0.245
data_MOF--net-whm--node1-OJICUG_clean_sbu_0--edge1-AJUNOK_clean_linker_0
_symmetry_space_group_name_H-M    P1
_symmetry_Int_Tables_number       1
_symmetry_cell_setting            triclinic
loop_
_symmetry_equiv_pos_as_xyz
'x, y, z'
_cell_length_a     39.460202
_cell_length_b     39.593632
_cell_length_c     22.4797
_cell_angle_alpha  90.146514
_cell_angle_beta   90.129883
_cell_angle_gamma 89.901552
loop_
_atom_site_label
_atom_site_type_symbol
_atom_site_fract_x
_atom_site_fract_y
_atom_site_fract_z
_atom_type_partial_charge
Sc0 Sc 0.58493 0.16095 0.11044 0.0
Sc1 Sc 0.51516 0.15531 0.20653 0.0
Sc2 Sc 0.56224 0.08339 0.16638 0.0
O3 O 0.55366 0.13339 0.16129 0.0
C4 C 0.57688 0.09286 0.03445 0.0
C5 C 0.51242 0.18967 0.07774 0.0
C6 C 0.48186 0.08496 0.18376 0.0
C7 C 0.56978 0.21331 0.21491 0.0
C8 C 0.63732 0.11264 0.16506 0.0
C9 C 0.54885 0.10357 0.2992 0.0
O10 O 0.59066 0.12124 0.04522 0.0
O11 O 0.49974 0.18461 0.12921 0.0
O12 O 0.51026 0.07072 0.17645 0.0
O13 O 0.58491 0.20436 0.16778 0.0
O14 O 0.61652 0.08832 0.16046 0.0
O15 O 0.5289 0.12797 0.28648 0.0
O16 O 0.62874 0.14322 0.15753 0.0
O17 O 0.54568 0.19655 0.23731 0.0
O18 O 0.56549 0.08674 0.26078 0.0
O19 O 0.54207 0.18022 0.06255 0.0
O20 O 0.55872 0.07742 0.07205 0.0
O21 O 0.47861 0.11686 0.18478 0.0
Sc22 Sc 0.32155 0.58553 0.59945 0.0
Sc23 Sc 0.32854 0.52171 0.70459 0.0
Sc24 Sc 0.399 0.57038 0.66451 0.0
O25 O 0.34981 0.55868 0.65633 0.0
C26 C 0.39259 0.5832 0.53151 0.0
C27 C 0.29785 0.51241 0.57217 0.0
C28 C 0.40036 0.4903 0.6856 0.0
C29 C 0.26759 0.57109 0.70055 0.0
C30 C 0.36269 0.64216 0.65786 0.0
C31 C 0.37751 0.55953 0.79765 0.0
O32 O 0.36315 0.59529 0.53986 0.0
O33 O 0.29945 0.50389 0.62711 0.0
O34 O 0.41389 0.51907 0.67859 0.0
O35 O 0.27505 0.58082 0.64858 0.0
O36 O 0.38922 0.62385 0.65484 0.0
O37 O 0.35477 0.53773 0.78501 0.0
O38 O 0.33305 0.63097 0.64765 0.0
O39 O 0.2874 0.55343 0.73206 0.0
O40 O 0.39406 0.57586 0.75873 0.0
O41 O 0.30986 0.54003 0.55231 0.0
O42 O 0.40771 0.56553 0.57044 0.0
O43 O 0.36841 0.4861 0.68566 0.0
Sc44 Sc 0.89454 0.30921 0.12996 0.0
Sc45 Sc 0.96795 0.3117 0.21568 0.0
Sc46 Sc 0.92778 0.38679 0.17472 0.0
O47 O 0.92994 0.33605 0.17309 0.0
C48 C 0.90435 0.37052 0.0418 0.0
C49 C 0.96565 0.27456 0.09436 0.0
C50 C 0.00456 0.3805 0.18086 0.0
C51 C 0.90731 0.26012 0.235 0.0
C52 C 0.85029 0.36762 0.18955 0.0
C53 C 0.94481 0.36513 0.30883 0.0
O54 O 0.89842 0.33959 0.05198 0.0
O55 O 0.98433 0.28902 0.13316 0.0
O56 O 0.97989 0.39078 0.14963 0.0
O57 O 0.88629 0.27661 0.20395 0.0
O58 O 0.87535 0.38695 0.19959 0.0
O59 O 0.95122 0.33419 0.29727 0.0
O60 O 0.8531 0.33936 0.16298 0.0
O61 O 0.93866 0.26718 0.23568 0.0
O62 O 0.9405 0.38749 0.26867 0.0
O63 O 0.93338 0.27688 0.09306 0.0
O64 O 0.91408 0.39112 0.08185 0.0
O65 O 0.00351 0.35265 0.2084 0.0
Sc66 Sc 0.15732 0.88878 0.59703 0.0
Sc67 Sc 0.14798 0.95288 0.70222 0.0
Sc68 Sc 0.07863 0.90518 0.65472 0.0
O69 O 0.12819 0.91632 0.65088 0.0
C70 C 0.08888 0.901 0.52188 0.0
C71 C 0.18355 0.96269 0.57503 0.0
C72 C 0.07784 0.98414 0.68593 0.0
C73 C 0.20704 0.89982 0.70737 0.0
C74 C 0.11067 0.83295 0.6433 0.0
C75 C 0.09913 0.90945 0.78733 0.0
O76 O 0.11744 0.88657 0.53044 0.0
O77 O 0.17856 0.97254 0.62861 0.0
O78 O 0.06376 0.95546 0.68087 0.0
O79 O 0.20041 0.88767 0.65632 0.0
O80 O 0.08557 0.8523 0.63366 0.0
O81 O 0.11902 0.93462 0.77916 0.0
O82 O 0.14095 0.84321 0.63922 0.0
O83 O 0.1887 0.92198 0.73217 0.0
O84 O 0.08468 0.89355 0.74533 0.0
O85 O 0.17506 0.93369 0.55565 0.0
O86 O 0.07222 0.91569 0.56275 0.0
O87 O 0.10934 -0.01188 0.67867 0.0
Sc88 Sc 0.58648 0.31499 0.87144 0.0
Sc89 Sc 0.51616 0.31625 0.77639 0.0
Sc90 Sc 0.55748 0.39109 0.81236 0.0
O91 O 0.55353 0.34076 0.82067 0.0
C92 C 0.57959 0.38154 0.9481 0.0
C93 C 0.5127 0.28471 0.90315 0.0
C94 C 0.4816 0.3877 0.80173 0.0
C95 C 0.57481 0.26105 0.77152 0.0
C96 C 0.63374 0.367 0.80308 0.0
C97 C 0.54256 0.3653 0.68006 0.0
O98 O 0.58383 0.34988 0.94402 0.0
O99 O 0.49627 0.29653 0.85879 0.0
O100 O 0.50542 0.39695 0.83586 0.0
O101 O 0.59496 0.27722 0.80482 0.0
O102 O 0.60986 0.3869 0.78812 0.0
O103 O 0.53646 0.33474 0.69409 0.0
O104 O 0.62964 0.34119 0.83591 0.0
O105 O 0.54432 0.27024 0.76378 0.0
O106 O 0.54529 0.38896 0.71828 0.0
O107 O 0.54477 0.28738 0.90978 0.0
O108 O 0.57077 0.39995 0.90452 0.0
O109 O 0.48211 0.35914 0.77602 0.0
Sc110 Sc 0.09171 0.54977 0.31224 0.0
Sc111 Sc 0.16807 0.51126 0.27279 0.0
Sc112 Sc 0.16808 0.58058 0.37005 0.0
O113 O 0.14261 0.54732 0.31882 0.0
C114 C 0.11289 0.62758 0.31018 0.0
C115 C 0.11787 0.54047 0.17802 0.0
C116 C 0.22387 0.56927 0.27317 0.0
C117 C 0.09763 0.47372 0.29256 0.0
C118 C 0.10154 0.56876 0.44798 0.0
C119 C 0.19992 0.50726 0.40065 0.0
O120 O 0.09257 0.60339 0.29969 0.0
O121 O 0.14831 0.53233 0.19125 0.0
O122 O 0.20754 0.58941 0.30624 0.0
O123 O 0.08585 0.49678 0.32559 0.0
O124 O 0.13207 0.57803 0.44129 0.0
O125 O 0.18914 0.49114 0.35487 0.0
O126 O 0.08366 0.55663 0.40611 0.0
O127 O 0.12684 0.47567 0.26972 0.0
O128 O 0.19564 0.53894 0.40888 0.0
O129 O 0.09435 0.5437 0.21649 0.0
O130 O 0.14191 0.62364 0.33391 0.0
O131 O 0.2135 0.53978 0.26181 0.0
Sc132 Sc 0.92413 0.08157 0.81281 0.0
Sc133 Sc 0.96287 0.15716 0.77484 0.0
Sc134 Sc 0.89118 0.15793 0.86383 0.0
O135 O 0.92588 0.13211 0.81764 0.0
C136 C 0.84704 0.10104 0.80004 0.0
C137 C 0.93813 0.10582 0.6801 0.0
C138 C 0.90151 0.20846 0.76047 0.0
C139 C 1e-05 0.08781 0.80529 0.0
C140 C 0.90266 0.09527 0.94748 0.0
C141 C 0.96282 0.19197 0.89792 0.0
O142 O 0.87211 0.08248 0.78628 0.0
O143 O 0.94408 0.13659 0.69319 0.0
O144 O 0.88107 0.19122 0.79117 0.0
O145 O 0.97613 0.07805 0.83856 0.0
O146 O 0.89748 0.12659 0.93988 0.0
O147 O 0.98084 0.17784 0.85789 0.0
O148 O 0.9105 0.0753 0.90526 0.0
O149 O -0.00181 0.11563 0.77765 0.0
O150 O 0.9305 0.19017 0.89996 0.0
O151 O 0.93687 0.08243 0.71901 0.0
O152 O 0.84947 0.12752 0.83197 0.0
O153 O 0.93305 0.20205 0.75944 0.0
Sc154 Sc 0.38197 0.93227 0.31378 0.0
Sc155 Sc 0.30697 0.97168 0.27008 0.0
Sc156 Sc 0.30409 0.90003 0.35821 0.0
O157 O 0.33116 0.93434 0.31436 0.0
C158 C 0.36255 0.85475 0.30068 0.0
C159 C 0.35897 0.94427 0.17848 0.0
C160 C 0.25241 0.91335 0.25789 0.0
C161 C 0.37663 0.00757 0.29958 0.0
C162 C 0.36592 0.91073 0.447 0.0
C163 C 0.2718 0.97271 0.3927 0.0
O164 O 0.38266 0.87939 0.2925 0.0
O165 O 0.32791 0.95102 0.18959 0.0
O166 O 0.2701 0.8918 0.28545 0.0
O167 O 0.38459 0.98471 0.33621 0.0
O168 O 0.33534 0.90351 0.43532 0.0
O169 O 0.28621 -0.00947 0.35272 0.0
O170 O 0.38661 0.92096 0.40764 0.0
O171 O 0.34915 0.00609 0.27068 0.0
O172 O 0.27327 0.94043 0.39478 0.0
O173 O 0.38189 0.94243 0.21867 0.0
O174 O 0.33361 0.85815 0.32492 0.0
O175 O 0.26063 0.94422 0.25607 0.0
Sc176 Sc 0.40632 0.8971 0.81983 0.0
Sc177 Sc 0.452 0.82715 0.77019 0.0
Sc178 Sc 0.38787 0.81865 0.87433 0.0
O179 O 0.41608 0.84756 0.82179 0.0
C180 C 0.39709 0.88654 0.95167 0.0
C181 C 0.48617 0.89477 0.79303 0.0
C182 C 0.46058 0.79094 0.89703 0.0
C183 C 0.41227 0.87914 0.68563 0.0
C184 C 0.33355 0.86529 0.82275 0.0
C185 C 0.39776 0.77026 0.76235 0.0
O186 O 0.41525 0.90184 0.91365 0.0
O187 O 0.48895 0.86311 0.79829 0.0
O188 O 0.43272 0.8019 0.91804 0.0
O189 O 0.3962 0.89331 0.72772 0.0
O190 O 0.34346 0.83504 0.82884 0.0
O191 O 0.41824 0.78984 0.73647 0.0
O192 O 0.35245 0.89035 0.83552 0.0
O193 O 0.43671 0.85833 0.69399 0.0
O194 O 0.38822 0.77513 0.81569 0.0
O195 O 0.45792 0.91007 0.79772 0.0
O196 O 0.38249 0.85855 0.94013 0.0
O197 O 0.46913 0.79398 0.84239 0.0
Sc198 Sc 0.66083 0.39181 0.37134 0.0
Sc199 Sc 0.66017 0.46352 0.28021 0.0
Sc200 Sc 0.58406 0.42181 0.31353 0.0
O201 O 0.63498 0.42582 0.32215 0.0
C202 C 0.60807 0.34449 0.30688 0.0
C203 C 0.71759 0.40686 0.27718 0.0
C204 C 0.61178 0.43396 0.18113 0.0
C205 C 0.6901 0.46478 0.41042 0.0
C206 C 0.59289 0.40063 0.44768 0.0
C207 C 0.58863 0.49976 0.30015 0.0
O208 O 0.63744 0.34909 0.32872 0.0
O209 O 0.70603 0.43591 0.26586 0.0
O210 O 0.58816 0.42768 0.21817 0.0
O211 O 0.68573 0.43301 0.41665 0.0
O212 O 0.57537 0.41493 0.40745 0.0
O213 O 0.61893 0.49899 0.2818 0.0
O214 O 0.62319 0.39088 0.4398 0.0
O215 O 0.68079 0.48143 0.36438 0.0
O216 O 0.57487 0.47469 0.32518 0.0
O217 O 0.70217 0.38617 0.31021 0.0
O218 O 0.58646 0.36805 0.30062 0.0
O219 O 0.641 0.44495 0.19621 0.0
Sc220 Sc 0.08932 0.65607 0.86268 0.0
Sc221 Sc 0.01708 0.65249 0.77207 0.0
Sc222 Sc 0.05927 0.57803 0.81038 0.0
O223 O 0.05522 0.62881 0.81576 0.0
C224 C 0.13584 0.60263 0.79663 0.0
C225 C 0.07465 0.70783 0.75908 0.0
C226 C 0.04435 0.60134 0.67702 0.0
C227 C 0.0159 0.68553 0.89904 0.0
C228 C 0.0825 0.59069 0.94439 0.0
C229 C 0.98107 0.58288 0.80456 0.0
O230 O 0.13203 0.6306 0.82372 0.0
O231 O 0.04474 0.69723 0.75225 0.0
O232 O 0.04916 0.57844 0.71583 0.0
O233 O 0.04799 0.6826 0.90496 0.0
O234 O 0.07046 0.57172 0.90388 0.0
O235 O 0.98216 0.61147 0.77964 0.0
O236 O 0.0899 0.62149 0.93602 0.0
O237 O -0.00082 0.67456 0.85432 0.0
O238 O 0.00676 0.57 0.8299 0.0
O239 O 0.0952 0.69408 0.79503 0.0
O240 O 0.11213 0.58139 0.78865 0.0
O241 O 0.03546 0.63145 0.68992 0.0
Sc242 Sc 0.81439 0.07929 0.37622 0.0
Sc243 Sc 0.82092 0.014 0.27259 0.0
Sc244 Sc 0.89252 0.05781 0.32152 0.0
O245 O 0.84242 0.04981 0.32366 0.0
C246 C 0.86455 0.13248 0.33245 0.0
C247 C 0.76529 0.0704 0.26454 0.0
C248 C 0.87437 0.05128 0.18753 0.0
C249 C 0.78289 0.0078 0.39823 0.0
C250 C 0.88201 0.06704 0.45326 0.0
C251 C 0.88863 0.97864 0.29224 0.0
O252 O 0.8336 0.12389 0.33448 0.0
O253 O 0.78329 0.04799 0.23957 0.0
O254 O 0.88872 0.06793 0.22899 0.0
O255 O 0.79431 0.03554 0.41872 0.0
O256 O 0.89719 0.04869 0.41517 0.0
O257 O 0.85685 0.97622 0.29862 0.0
O258 O 0.85393 0.08174 0.44246 0.0
O259 O 0.78737 -0.00204 0.34457 0.0
O260 O 0.90419 0.00645 0.29855 0.0
O261 O 0.77169 0.08159 0.31637 0.0
O262 O 0.88848 0.11133 0.33928 0.0
O263 O 0.85233 0.02822 0.19683 0.0
Sc264 Sc 0.43265 0.59439 0.16916 0.0
Sc265 Sc 0.46958 0.67143 0.20612 0.0
Sc266 Sc 0.39711 0.66907 0.11662 0.0
O267 O 0.43274 0.64493 0.16374 0.0
C268 C 0.40822 0.6042 0.0356 0.0
C269 C 0.50777 0.60197 0.18252 0.0
C270 C 0.46915 0.70146 0.07843 0.0
C271 C 0.44546 0.62124 0.30248 0.0
C272 C 0.35432 0.6124 0.18215 0.0
C273 C 0.4092 0.72452 0.21287 0.0
O274 O 0.42126 0.58609 0.07622 0.0
O275 O 0.50574 0.63024 0.20873 0.0
O276 O 0.43693 0.6981 0.07491 0.0
O277 O 0.44343 0.59753 0.26395 0.0
O278 O 0.35629 0.64079 0.15591 0.0
O279 O 0.44035 0.71714 0.21752 0.0
O280 O 0.37975 0.59319 0.19079 0.0
O281 O 0.45061 0.65213 0.28888 0.0
O282 O 0.38871 0.70627 0.18395 0.0
O283 O 0.48506 0.59268 0.1464 0.0
O284 O 0.39912 0.63457 0.04339 0.0
O285 O 0.4872 0.69058 0.12171 0.0
Sc286 Sc 0.89378 0.40669 0.66901 0.0
Sc287 Sc 0.82215 0.45166 0.71246 0.0
Sc288 Sc 0.81783 0.39118 0.601 0.0
O289 O 0.84459 0.41725 0.66044 0.0
C290 C 0.88914 0.40162 0.5356 0.0
C291 C 0.89111 0.48532 0.70281 0.0
C292 C 0.78864 0.46286 0.58269 0.0
C293 C 0.8716 0.41122 0.80084 0.0
C294 C 0.86222 0.33448 0.65119 0.0
C295 C 0.76498 0.3984 0.7063 0.0
O296 O 0.90301 0.41837 0.57732 0.0
O297 O 0.85963 0.48926 0.69321 0.0
O298 O 0.80318 0.43738 0.55925 0.0
O299 O 0.88586 0.39413 0.75994 0.0
O300 O 0.832 0.34479 0.64373 0.0
O301 O 0.78407 0.4165 0.73853 0.0
O302 O 0.88757 0.35403 0.64595 0.0
O303 O 0.85122 0.43564 0.79029 0.0
O304 O 0.77162 0.39151 0.65236 0.0
O305 O 0.90598 0.45702 0.69728 0.0
O306 O 0.86058 0.38707 0.54149 0.0
O307 O 0.79019 0.46948 0.63849 0.0
Sc308 Sc 0.04393 0.8844 0.15592 0.0
Sc309 Sc 0.00762 0.81003 0.20826 0.0
Sc310 Sc 0.07888 0.80627 0.11782 0.0
O311 O 0.04363 0.83368 0.16014 0.0
C312 C 0.06509 0.86505 0.02454 0.0
C313 C 0.96765 0.87669 0.17231 0.0
C314 C 0.00725 0.77036 0.08936 0.0
C315 C 0.03483 0.86607 0.29299 0.0
C316 C 0.12259 0.86742 0.16748 0.0
C317 C 0.06823 0.75775 0.22376 0.0
O318 O 0.05349 0.88612 0.06203 0.0
O319 O 0.97117 0.85006 0.20257 0.0
O320 O 0.03939 0.77342 0.08518 0.0
O321 O 0.03586 0.88735 0.25055 0.0
O322 O 0.12014 0.83741 0.1477 0.0
O323 O 0.0373 0.76594 0.22724 0.0
O324 O 0.09725 0.88695 0.17364 0.0
O325 O 0.02744 0.83488 0.28614 0.0
O326 O 0.08894 0.77429 0.19248 0.0
O327 O -0.00935 0.88663 0.13728 0.0
O328 O 0.07411 0.83529 0.03825 0.0
O329 O 0.98917 0.78519 0.12872 0.0
Sc330 Sc 0.58387 0.05673 0.66881 0.0
Sc331 Sc 0.65774 0.0112 0.70473 0.0
Sc332 Sc 0.66002 0.08018 0.60705 0.0
O333 O 0.63398 0.04895 0.6606 0.0
C334 C 0.59041 0.07327 0.53669 0.0
C335 C 0.58681 0.97674 0.68256 0.0
C336 C 0.68652 0.0078 0.57097 0.0
C337 C 0.60768 0.04362 0.80094 0.0
C338 C 0.61375 0.13173 0.67028 0.0
C339 C 0.71619 0.065 0.70491 0.0
O340 O 0.57584 0.05482 0.57469 0.0
O341 O 0.6187 0.97425 0.68875 0.0
O342 O 0.67642 0.0373 0.55668 0.0
O343 O 0.58842 0.058 0.76329 0.0
O344 O 0.64401 0.12359 0.65716 0.0
O345 O 0.69956 0.04229 0.73139 0.0
O346 O 0.58924 0.11093 0.66734 0.0
O347 O 0.63329 0.02549 0.78725 0.0
O348 O 0.70612 0.0789 0.65747 0.0
O349 O 0.57189 0.00464 0.67407 0.0
O350 O 0.61865 0.08749 0.54614 0.0
O351 O 0.68419 -0.00435 0.6236 0.0
C352 C 0.61317 0.25718 0.2385 0.0
C353 C 0.57956 0.24562 0.24277 0.0
C354 C 0.62252 0.28885 0.26105 0.0
C355 C 0.59838 0.31029 0.28735 0.0
H356 H 0.63235 0.24173 0.21725 0.0
H357 H 0.64856 0.297 0.2562 0.0
S358 S 0.50728 0.29159 0.31071 0.0
N359 N 0.52232 0.25772 0.27682 0.0
N360 N 0.53979 0.31743 0.31839 0.0
C361 C 0.56483 0.29884 0.29271 0.0
C362 C 0.55544 0.26642 0.27068 0.0
C363 C 0.23052 0.59094 0.78298 0.0
C364 C 0.23397 0.57943 0.72412 0.0
C365 C 0.19858 0.59903 0.80606 0.0
C366 C 0.16918 0.59475 0.7715 0.0
H367 H 0.25268 0.59411 0.81101 0.0
H368 H 0.19678 0.60808 0.85148 0.0
S369 S 0.16473 0.5648 0.61527 0.0
N370 N 0.20556 0.5643 0.63171 0.0
N371 N 0.14534 0.57832 0.6759 0.0
C372 C 0.17229 0.58293 0.71283 0.0
C373 C 0.2048 0.57558 0.68887 0.0
C374 C 0.85216 0.18608 0.279 0.0
C375 C 0.87358 0.16739 0.31652 0.0
C376 C 0.86278 0.21678 0.25477 0.0
C377 C 0.89519 0.22996 0.26736 0.0
H378 H 0.82773 0.17613 0.26566 0.0
H379 H 0.84592 0.22948 0.22398 0.0
S380 S 0.95816 0.19349 0.37227 0.0
N381 N 0.92671 0.16609 0.37151 0.0
N382 N 0.94669 0.22397 0.32644 0.0
C383 C 0.91582 0.21263 0.30838 0.0
C384 C 0.90501 0.18131 0.33284 0.0
C385 C 0.28345 0.90267 0.80891 0.0
C386 C 0.29978 0.87185 0.79717 0.0
C387 C 0.25308 0.91104 0.78056 0.0
C388 C 0.23814 0.88913 0.73866 0.0
H389 H 0.29443 0.9207 0.83971 0.0
H390 H 0.24175 0.93535 0.79044 0.0
S391 S 0.27056 0.80501 0.69291 0.0
N392 N 0.29858 0.81892 0.74174 0.0
N393 N 0.2414 0.83483 0.68809 0.0
C394 C 0.25387 0.85793 0.72723 0.0
C395 C 0.28467 0.84921 0.75668 0.0
C396 C 0.56279 0.20879 0.71322 0.0
C397 C 0.58657 0.22954 0.74227 0.0
C398 C 0.57224 0.17786 0.68846 0.0
C399 C 0.60592 0.16628 0.69131 0.0
H400 H 0.53634 0.21601 0.7106 0.0
H401 H 0.5527 0.16265 0.66768 0.0
S402 S 0.67872 0.2119 0.75835 0.0
N403 N 0.64595 0.23712 0.76939 0.0
N404 N 0.66362 0.17864 0.72275 0.0
C405 C 0.63036 0.18723 0.71806 0.0
C406 C 0.6207 0.21887 0.74366 0.0
C407 C 0.29615 0.62476 0.22047 0.0
C408 C 0.32095 0.60102 0.20372 0.0
C409 C 0.26476 0.61436 0.24292 0.0
C410 C 0.25688 0.57987 0.24844 0.0
H411 H 0.30123 0.65157 0.21727 0.0
H412 H 0.24652 0.63351 0.25582 0.0
S413 S 0.3129 0.50769 0.20879 0.0
N414 N 0.33536 0.54157 0.19293 0.0
N415 N 0.27649 0.52196 0.23463 0.0
C416 C 0.28137 0.55589 0.23097 0.0
C417 C 0.31337 0.56649 0.2088 0.0
C418 C 0.90138 0.28573 0.66191 0.0
C419 C 0.86894 0.29954 0.67073 0.0
C420 C 0.91109 0.25563 0.68929 0.0
C421 C 0.8888 0.23809 0.72692 0.0
H422 H 0.91998 0.2989 0.63521 0.0
H423 H 0.93672 0.24669 0.68219 0.0
S424 S 0.79953 0.26186 0.7595 0.0
N425 N 0.81344 0.29218 0.71565 0.0
N426 N 0.83155 0.23533 0.76729 0.0
C427 C 0.85547 0.25053 0.73319 0.0
C428 C 0.84555 0.28129 0.705 0.0
C429 C 0.18168 0.85673 0.20242 0.0
C430 C 0.15624 0.87984 0.18614 0.0
C431 C 0.21295 0.86782 0.2243 0.0
C432 C 0.2201 0.90248 0.23034 0.0
H433 H 0.17715 0.82978 0.19983 0.0
H434 H 0.23145 0.84898 0.23733 0.0
S435 S 0.16269 0.97337 0.18984 0.0
N436 N 0.14081 0.93899 0.17433 0.0
N437 N 0.19947 0.95995 0.2157 0.0
C438 C 0.19522 0.92591 0.21234 0.0
C439 C 0.16333 0.91458 0.19026 0.0
C440 C 0.34955 0.68985 0.72607 0.0
C441 C 0.3673 0.67728 0.67672 0.0
C442 C 0.35889 0.72054 0.75259 0.0
C443 C 0.38602 0.73974 0.73009 0.0
H444 H 0.32966 0.67497 0.74632 0.0
H445 H 0.34535 0.72874 0.79194 0.0
S446 S 0.43734 0.719 0.59617 0.0
N447 N 0.41087 0.68703 0.60294 0.0
N448 N 0.42829 0.74499 0.65144 0.0
C449 C 0.40242 0.72822 0.67811 0.0
C450 C 0.39311 0.69687 0.65181 0.0
C451 C 0.75922 0.36336 0.24281 0.0
C452 C 0.75109 0.39746 0.25304 0.0
C453 C 0.79119 0.35397 0.22135 0.0
C454 C 0.81637 0.3783 0.21031 0.0
H455 H 0.74072 0.34377 0.25124 0.0
H456 H 0.79635 0.32738 0.21439 0.0
S457 S 0.80783 0.47105 0.2304 0.0
N458 N 0.77078 0.45569 0.25065 0.0
N459 N 0.83083 0.43806 0.21064 0.0
C460 C 0.80852 0.41252 0.2203 0.0
C461 C 0.77589 0.4221 0.2415 0.0
C462 C 0.12504 0.78433 0.70896 0.0
C463 C 0.1039 0.79862 0.66529 0.0
C464 C 0.11591 0.75446 0.73809 0.0
C465 C 0.08539 0.73776 0.72433 0.0
H466 H 0.14794 0.7972 0.72292 0.0
H467 H 0.13235 0.7451 0.77303 0.0
S468 S 0.02405 0.76251 0.6061 0.0
N469 N 0.05318 0.79233 0.60503 0.0
N470 N 0.03604 0.73599 0.65863 0.0
C471 C 0.06513 0.75085 0.6779 0.0
C472 C 0.07437 0.78132 0.6487 0.0
C473 C 0.68834 0.12382 0.22714 0.0
C474 C 0.67213 0.10447 0.18315 0.0
C475 C 0.71903 0.11307 0.25216 0.0
C476 C 0.73472 0.08289 0.23334 0.0
H477 H 0.67642 0.14647 0.24443 0.0
H478 H 0.73011 0.12816 0.28743 0.0
S479 S 0.70387 0.02555 0.11382 0.0
N480 N 0.67486 0.05553 0.11804 0.0
N481 N 0.73275 0.03535 0.16419 0.0
C482 C 0.71956 0.06443 0.18673 0.0
C483 C 0.68817 0.0752 0.1619 0.0
C484 C 0.4082 0.8147 0.26939 0.0
C485 C 0.37365 0.82074 0.28094 0.0
C486 C 0.41953 0.78326 0.24901 0.0
C487 C 0.39673 0.75661 0.23871 0.0
H488 H 0.42681 0.83447 0.27591 0.0
H489 H 0.44629 0.78014 0.23985 0.0
S490 S 0.30376 0.75869 0.26388 0.0
N491 N 0.31677 0.79696 0.28202 0.0
N492 N 0.3381 0.73783 0.24358 0.0
C493 C 0.36217 0.76202 0.25097 0.0
C494 C 0.35063 0.79404 0.27217 0.0
C495 C 0.67111 0.38325 0.71947 0.0
C496 C 0.66762 0.37352 0.7792 0.0
C497 C 0.70305 0.38979 0.69545 0.0
C498 C 0.73232 0.38779 0.73094 0.0
H499 H 0.64902 0.38564 0.69103 0.0
H500 H 0.70473 0.39749 0.64934 0.0
S501 S 0.7367 0.36239 0.88939 0.0
N502 N 0.69594 0.36084 0.87267 0.0
N503 N 0.75611 0.37443 0.82797 0.0
C504 C 0.72922 0.37771 0.79053 0.0
C505 C 0.69677 0.37022 0.81458 0.0
C506 C 0.1142 0.71678 0.25059 0.0
C507 C 0.07971 0.72609 0.25248 0.0
C508 C 0.12508 0.68525 0.27135 0.0
C509 C 0.10181 0.66182 0.29401 0.0
H510 H 0.13288 0.73357 0.23159 0.0
H511 H 0.15167 0.67869 0.26753 0.0
S512 S 0.00956 0.67484 0.31554 0.0
N513 N 0.02287 0.71002 0.28421 0.0
N514 N 0.04352 0.65082 0.32251 0.0
C515 C 0.06762 0.67125 0.29877 0.0
C516 C 0.05653 0.70339 0.27827 0.0
C517 C 0.78509 0.09148 0.81216 0.0
C518 C 0.81382 0.09214 0.7754 0.0
C519 C 0.75339 0.08224 0.7892 0.0
C520 C 0.74947 0.07452 0.72853 0.0
H521 H 0.78729 0.09753 0.85905 0.0
H522 H 0.73176 0.08154 0.81878 0.0
S523 S 0.81683 0.07347 0.61377 0.0
N524 N 0.83651 0.08447 0.67577 0.0
N525 N 0.77666 0.06824 0.63215 0.0
C526 C 0.77792 0.07563 0.69122 0.0
C527 C 0.81024 0.08416 0.71483 0.0
C528 C 0.61772 0.07949 0.95424 0.0
C529 C 0.58479 0.07649 0.97755 0.0
C530 C 0.62573 0.06642 0.89823 0.0
C531 C 0.60083 0.05059 0.86356 0.0
H532 H 0.63731 0.09255 0.97909 0.0
H533 H 0.65097 0.07033 0.88067 0.0
S534 S 0.51174 0.03396 0.90592 0.0
N535 N 0.52792 0.05425 0.96368 0.0
N536 N 0.54276 0.0306 0.85698 0.0
C537 C 0.56822 0.04623 0.8871 0.0
C538 C 0.56024 0.0589 0.94468 0.0
C539 C 0.40454 0.6256 0.4534 0.0
C540 C 0.41026 0.59308 0.47656 0.0
C541 C 0.41809 0.63531 0.3987 0.0
C542 C 0.43737 0.61262 0.36462 0.0
H543 H 0.38885 0.64357 0.47725 0.0
H544 H 0.41185 0.66013 0.38163 0.0
S545 S 0.46263 0.52575 0.40803 0.0
N546 N 0.43896 0.53921 0.46386 0.0
N547 N 0.46398 0.55718 0.35989 0.0
C548 C 0.44469 0.58056 0.38848 0.0
C549 C 0.4313 0.57087 0.44485 0.0
C550 C 0.90052 0.35992 0.9331 0.0
C551 C 0.89798 0.38277 0.98084 0.0
C552 C 0.89187 0.36951 0.87536 0.0
C553 C 0.87993 0.40224 0.86294 0.0
H554 H 0.90911 0.33426 0.94039 0.0
H555 H 0.89416 0.35081 0.84026 0.0
S556 S 0.86918 0.47189 0.97214 0.0
N557 N 0.88329 0.43983 0.01204 0.0
N558 N 0.8666 0.45785 0.90304 0.0
C559 C 0.87745 0.42552 0.91015 0.0
C560 C 0.88673 0.41582 0.96913 0.0
C561 C 0.02958 0.86908 0.40341 0.0
C562 C 0.04684 0.87781 0.35116 0.0
C563 C 0.04231 0.87875 0.45913 0.0
C564 C 0.07301 0.89654 0.46376 0.0
H565 H 0.00642 0.85448 0.40117 0.0
H566 H 0.02898 0.8709 0.49884 0.0
S567 S 0.12775 0.92517 0.34053 0.0
N568 N 0.09572 0.90587 0.30751 0.0
N569 N 0.12011 0.92275 0.41258 0.0
C570 C 0.09023 0.90569 0.41202 0.0
C571 C 0.07697 0.89665 0.35546 0.0
C572 C 0.56534 0.41741 0.03624 0.0
C573 C 0.58886 0.39773 0.00472 0.0
C574 C 0.57337 0.43025 0.09282 0.0
C575 C 0.60549 0.42463 0.11853 0.0
H576 H 0.54024 0.42174 0.01816 0.0
H577 H 0.55414 0.44412 0.11711 0.0
S578 S 0.67653 0.37659 0.05128 0.0
N579 N 0.64577 0.37432 0.0015 0.0
N580 N 0.66126 0.3993 0.10686 0.0
C581 C 0.62967 0.4063 0.08597 0.0
C582 C 0.62122 0.39258 0.02925 0.0
C583 C 0.09153 0.60779 0.53242 0.0
C584 C 0.08517 0.57642 0.50517 0.0
C585 C 0.07635 0.61644 0.58646 0.0
C586 C 0.05491 0.59369 0.6158 0.0
H587 H 0.10836 0.62587 0.51174 0.0
H588 H 0.08264 0.64052 0.60664 0.0
S589 S 0.02931 0.50882 0.5623 0.0
N590 N 0.05484 0.52314 0.50996 0.0
N591 N 0.02732 0.53885 0.61339 0.0
C592 C 0.04796 0.5624 0.58878 0.0
C593 C 0.06279 0.55392 0.53286 0.0
C594 C 0.90038 0.1044 0.05658 0.0
C595 C 0.89801 0.08196 0.00817 0.0
C596 C 0.8932 0.0939 0.11426 0.0
C597 C 0.88295 0.06061 0.12599 0.0
H598 H 0.9074 0.13053 0.04988 0.0
H599 H 0.89489 0.11241 0.14979 0.0
S600 S 0.87466 -0.00871 0.01572 0.0
N601 N 0.88619 0.02437 0.97603 0.0
N602 N 0.8724 0.00464 0.08527 0.0
C603 C 0.88119 0.03756 0.07844 0.0
C604 C 0.88892 0.04821 0.01938 0.0
C605 C 0.42372 0.88981 0.57753 0.0
C606 C 0.40068 0.88695 0.62481 0.0
C607 C 0.41253 0.89878 0.52032 0.0
C608 C 0.37792 0.90471 0.50852 0.0
H609 H 0.4505 0.88549 0.58494 0.0
H610 H 0.43103 0.90033 0.48489 0.0
S611 S 0.30746 0.89966 0.6177 0.0
N612 N 0.34177 0.89017 0.65621 0.0
N613 N 0.32083 0.90718 0.54956 0.0
C614 C 0.35474 0.90196 0.55582 0.0
C615 C 0.36611 0.893 0.61369 0.0
C616 C 0.35518 0.89944 0.03065 0.0
C617 C 0.3881 0.90366 0.00786 0.0
C618 C 0.34542 0.91446 0.08425 0.0
C619 C 0.3684 0.93377 0.11773 0.0
H620 H 0.33672 0.88425 0.00696 0.0
H621 H 0.32011 0.90963 0.10076 0.0
S622 S 0.45695 0.95429 0.07609 0.0
N623 N 0.4431 0.93022 0.02104 0.0
N624 N 0.42503 0.95785 0.12315 0.0
C625 C 0.40115 0.93902 0.09481 0.0
C626 C 0.41091 0.92417 0.03946 0.0
C627 C 0.58458 0.3602 0.53026 0.0
C628 C 0.57692 0.39172 0.50465 0.0
C629 C 0.57153 0.35104 0.58561 0.0
C630 C 0.55092 0.37336 0.61794 0.0
H631 H 0.60111 0.34252 0.50752 0.0
H632 H 0.57897 0.32695 0.60439 0.0
S633 S 0.52145 0.45789 0.56898 0.0
N634 N 0.54563 0.44437 0.51387 0.0
N635 N 0.52178 0.42755 0.61933 0.0
C636 C 0.54217 0.40455 0.59218 0.0
C637 C 0.55494 0.41361 0.53506 0.0
C638 C 0.12227 0.58458 0.02962 0.0
C639 C 0.09126 0.57588 0.0026 0.0
C640 C 0.13152 0.57147 0.08513 0.0
C641 C 0.10969 0.54986 0.11623 0.0
H642 H 0.13958 0.60167 0.00761 0.0
H643 H 0.15531 0.57936 0.10484 0.0
S644 S 0.0261 0.51862 0.06437 0.0
N645 N 0.03935 0.54326 0.00996 0.0
N646 N 0.05615 0.51956 0.11566 0.0
C647 C 0.07879 0.5406 0.08949 0.0
C648 C 0.06974 0.55333 0.03223 0.0
C649 C 0.9153 0.05321 0.54474 0.0
C650 C 0.89981 0.07716 0.50778 0.0
C651 C 0.92923 0.06294 0.59959 0.0
C652 C 0.92862 0.09698 0.61842 0.0
H653 H 0.91536 0.02675 0.5324 0.0
H654 H 0.9397 0.04352 0.62812 0.0
S655 S 0.8945 0.16969 0.53293 0.0
N656 N 0.88719 0.13646 0.49042 0.0
N657 N 0.91358 0.15489 0.59283 0.0
C658 C 0.91498 0.12135 0.57975 0.0
C659 C 0.90046 0.11137 0.52459 0.0
C660 C 0.4187 0.57048 0.87958 0.0
C661 C 0.38485 0.56708 0.86046 0.0
C662 C 0.42637 0.58087 0.93776 0.0
C663 C 0.40037 0.58887 0.97782 0.0
H664 H 0.43934 0.56555 0.84904 0.0
H665 H 0.45265 0.58398 0.95069 0.0
S666 S 0.30792 0.58395 0.94993 0.0
N667 N 0.32532 0.57169 0.88666 0.0
N668 N 0.33977 0.59228 -0.00451 0.0
C669 C 0.36653 0.58504 0.95966 0.0
C670 C 0.35873 0.5738 0.90101 0.0
C671 C 0.92338 0.35018 0.40883 0.0
C672 C 0.93706 0.37468 0.37078 0.0
C673 C 0.90916 0.35932 0.46323 0.0
C674 C 0.90865 0.39316 0.48214 0.0
H675 H 0.92169 0.32398 0.39509 0.0
H676 H 0.8975 0.33981 0.49001 0.0
S677 S 0.94578 0.46625 0.40355 0.0
N678 N 0.95248 0.43385 0.35857 0.0
N679 N 0.92609 0.4508 0.46231 0.0
C680 C 0.92453 0.41762 0.44704 0.0
C681 C 0.93863 0.40842 0.39086 0.0
C682 C 0.08988 0.92092 0.89546 0.0
C683 C 0.09124 0.89791 0.84792 0.0
C684 C 0.07998 0.91036 0.95225 0.0
C685 C 0.07156 0.87639 0.96332 0.0
H686 H 0.09599 0.94728 0.88859 0.0
H687 H 0.07974 0.92877 0.98801 0.0
S688 S 0.07115 0.80622 0.8536 0.0
N689 N 0.08353 0.83956 0.81557 0.0
N690 N 0.06471 0.81997 0.92199 0.0
C691 C 0.07273 0.85319 0.91604 0.0
C692 C 0.08268 0.86389 0.85843 0.0
C693 C 0.56896 0.11334 0.46178 0.0
C694 C 0.57412 0.07975 0.4796 0.0
C695 C 0.55866 0.12086 0.40383 0.0
C696 C 0.55421 0.09497 0.36182 0.0
H697 H 0.57397 0.13395 0.49238 0.0
H698 H 0.55604 0.1471 0.39097 0.0
S699 S 0.56244 0.00286 0.38811 0.0
N700 N 0.57203 0.02039 0.45277 0.0
N701 N 0.55341 0.03441 0.34276 0.0
C702 C 0.55797 0.06118 0.37989 0.0
C703 C 0.56776 0.05356 0.43926 0.0
C704 C 0.39707 0.06022 0.2502 0.0
C705 C 0.40387 0.02787 0.27297 0.0
C706 C 0.42176 0.07806 0.21832 0.0
C707 C 0.45378 0.06373 0.20655 0.0
H708 H 0.37255 0.07186 0.25742 0.0
H709 H 0.41589 0.10347 0.20374 0.0
S710 S 0.48236 0.97759 0.25096 0.0
N711 N 0.44385 0.9812 0.27845 0.0
N712 N 0.48967 0.01368 0.21699 0.0
C713 C 0.46012 0.03055 0.22689 0.0
C714 C 0.4354 0.01295 0.26065 0.0
C715 C 0.42713 0.40731 0.75619 0.0
C716 C 0.4606 0.41409 0.77385 0.0
C717 C 0.40818 0.4313 0.72436 0.0
C718 C 0.42241 0.46253 0.70763 0.0
H719 H 0.41541 0.38349 0.76768 0.0
H720 H 0.38198 0.42558 0.7141 0.0
S721 S 0.51129 0.48989 0.73565 0.0
N722 N 0.50832 0.4527 0.76795 0.0
N723 N 0.47364 0.49705 0.70634 0.0
C724 C 0.4567 0.46855 0.72215 0.0
C725 C 0.47551 0.4446 0.75587 0.0
C726 C 0.06215 0.39469 0.22013 0.0
C727 C 0.0297 0.40536 0.20188 0.0
C728 C 0.08406 0.41668 0.2506 0.0
C729 C 0.07366 0.44954 0.26583 0.0
H730 H 0.07044 0.36904 0.21152 0.0
H731 H 0.10908 0.40781 0.263 0.0
S732 S -0.0085 0.48996 0.22742 0.0
N733 N 0.98871 0.4514 0.19997 0.0
N734 N 0.02937 0.49219 0.25835 0.0
C735 C 0.0414 0.46056 0.24741 0.0
C736 C 0.01958 0.43862 0.21507 0.0
C737 C 0.03143 0.0032 0.75227 0.0
C738 C 0.05854 0.01165 0.71464 0.0
C739 C 0.01454 0.0278 0.78541 0.0
C740 C 0.02362 0.06207 0.78167 0.0
H741 H 0.02332 0.97722 0.75698 0.0
H742 H -0.0068 0.01986 0.81217 0.0
S743 S 0.0942 0.0973 0.69228 0.0
N744 N 0.09498 0.0564 0.67779 0.0
N745 N 0.06269 0.10303 0.73947 0.0
C746 C 0.05134 0.07083 0.74547 0.0
C747 C 0.06883 0.04558 0.71203 0.0
C748 C 0.53068 0.94943 0.68162 0.0
C749 C 0.5647 0.94853 0.70026 0.0
C750 C 0.50567 0.9321 0.71267 0.0
C751 C 0.51375 0.9126 0.76285 0.0
H752 H 0.52291 0.96555 0.64512 0.0
H753 H 0.47965 0.93432 0.69757 0.0
S754 S 0.59938 0.89732 0.82461 0.0
N755 N 0.60564 0.92365 0.7688 0.0
N756 N 0.55824 0.8897 0.82564 0.0
C757 C 0.54788 0.90881 0.77888 0.0
C758 C 0.57351 0.92699 0.74774 0.0
C759 C 0.58041 0.55901 0.26367 0.0
C760 C 0.56661 0.52722 0.2777 0.0
C761 C 0.56151 0.58312 0.23197 0.0
C762 C 0.52869 0.57574 0.21132 0.0
H763 H 0.60617 0.56509 0.27648 0.0
H764 H 0.57279 0.60748 0.2228 0.0
S765 S 0.48038 0.49679 0.23798 0.0
N766 N 0.51737 0.49038 0.27038 0.0
N767 N 0.48251 0.53509 0.2096 0.0
C768 C 0.51445 0.54427 0.22575 0.0
C769 C 0.53321 0.5202 0.25934 0.0
C770 C 0.90924 0.54538 0.71541 0.0
C771 C 0.90975 0.51182 0.73474 0.0
C772 C 0.93018 0.56949 0.74254 0.0
C773 C 0.95203 0.56072 0.79006 0.0
H774 H 0.89409 0.55256 0.67721 0.0
H775 H 0.93085 0.59453 0.72329 0.0
S776 S 0.9554 0.47781 0.86633 0.0
N777 N 0.92878 0.47221 0.81046 0.0
N778 N 0.96761 0.51758 0.86207 0.0
C779 C 0.9497 0.52804 0.81372 0.0
C780 C 0.92877 0.50352 0.78572 0.0
C781 C 0.9321 0.9604 0.2197 0.0
C782 C 0.90676 0.95138 0.26069 0.0
C783 C 0.9493 0.93607 0.18652 0.0
C784 C 0.94236 0.90152 0.19359 0.0
H785 H 0.93886 0.98663 0.21298 0.0
H786 H 0.96956 0.9445 0.15772 0.0
S787 S 0.87526 0.86489 0.28942 0.0
N788 N 0.87292 0.90597 0.3019 0.0
N789 N 0.90597 0.85966 0.2404 0.0
C790 C 0.91567 0.89221 0.23186 0.0
C791 C 0.89777 0.91723 0.26525 0.0
C792 C 0.49232 0.20413 0.97672 0.0
C793 C 0.49578 0.21332 0.03686 0.0
C794 C 0.49186 0.22876 0.93206 0.0
C795 C 0.4956 0.26309 0.94646 0.0
H796 H 0.49374 0.17777 0.9638 0.0
H797 H 0.49306 0.22061 0.88603 0.0
S798 S 0.50026 0.30022 0.09749 0.0
N799 N 0.49793 0.25908 0.10887 0.0
N800 N 0.49838 0.30532 0.02461 0.0
C801 C 0.4951 0.27271 0.00652 0.0
C802 C 0.49481 0.24772 0.052 0.0
C803 C 0.21489 0.4911 0.50353 0.0
C804 C 0.2233 0.49095 0.44276 0.0
C805 C 0.24023 0.4923 0.54743 0.0
C806 C 0.27461 0.49444 0.53156 0.0
H807 H 0.18871 0.49419 0.51697 0.0
H808 H 0.23263 0.49615 0.59325 0.0
S809 S 0.30973 0.48874 0.37924 0.0
N810 N 0.26823 0.48739 0.36955 0.0
N811 N 0.31586 0.49095 0.45187 0.0
C812 C 0.28331 0.49012 0.47147 0.0
C813 C 0.25756 0.48806 0.42698 0.0
C814 C 0.98245 0.26754 0.98976 0.0
C815 C 0.98078 0.25388 0.04732 0.0
C816 C 0.98156 0.24651 0.93951 0.0
C817 C 0.97892 0.21134 0.94575 0.0
H818 H 0.98064 0.29462 0.98346 0.0
H819 H 0.97916 0.25796 0.89596 0.0
S820 S 0.97814 0.16328 0.08674 0.0
N821 N 0.98015 0.20325 0.10776 0.0
N822 N 0.97841 0.16362 0.01322 0.0
C823 C 0.98078 0.19734 0.00292 0.0
C824 C 0.98175 0.21872 0.05395 0.0
C825 C 0.21504 -0.01152 0.42717 0.0
C826 C 0.25011 -0.01138 0.43768 0.0
C827 C 0.19219 0.98569 0.47447 0.0
C828 C 0.2038 0.98302 0.53353 0.0
H829 H 0.20543 0.98601 0.38214 0.0
H830 H 0.16569 0.98133 0.46425 0.0
S831 S 0.29275 -0.00983 0.58447 0.0
N832 N 0.29509 -0.00805 0.51115 0.0
N833 N 0.25201 0.98709 0.60042 0.0
C834 C 0.23837 -0.01176 0.54491 0.0
C835 C 0.26167 -0.00917 0.49665 0.0
C836 C 0.48199 0.71099 0.97258 0.0
C837 C 0.48454 0.72218 0.03185 0.0
C838 C 0.48017 0.73416 0.9256 0.0
C839 C 0.48008 0.76904 0.9371 0.0
H840 H 0.47739 0.68453 0.96315 0.0
H841 H 0.47414 0.72482 0.88147 0.0
S842 S 0.4927 0.81061 0.08318 0.0
N843 N 0.49259 0.7698 0.09839 0.0
N844 N 0.48828 0.81348 0.01026 0.0
C845 C 0.48709 0.78024 -0.00484 0.0
C846 C 0.4895 0.75667 0.04273 0.0
C847 C 0.771 0.48633 0.48509 0.0
C848 C 0.763 0.47959 0.54491 0.0
C849 C 0.74565 0.48726 0.44122 0.0
C850 C 0.71168 0.48082 0.45582 0.0
H851 H 0.79726 0.48722 0.4712 0.0
H852 H 0.75325 0.48864 0.39498 0.0
S853 S 0.67684 0.46823 0.6069 0.0
N854 N 0.7181 0.4721 0.6175 0.0
N855 N 0.67068 0.47265 0.53462 0.0
C856 C 0.70295 0.4782 0.51612 0.0
C857 C 0.72863 0.47797 0.56094 0.0
C858 C 0.98908 0.73725 0.93927 0.0
C859 C -0.00169 0.70329 0.94723 0.0
C860 C 0.98604 0.75897 0.98842 0.0
C861 C -0.00807 0.7471 0.04644 0.0
H862 H 0.98819 0.74793 0.89495 0.0
H863 H 0.98325 0.78582 0.98047 0.0
S864 S 0.01112 0.65913 0.09048 0.0
N865 N 0.00878 0.65784 0.01711 0.0
N866 N 0.00272 0.69861 0.10943 0.0
C867 C -0.00307 0.7124 0.05501 0.0
C868 C 0.00032 0.69043 0.0052 0.0
C869 C 0.76691 0.985 0.49648 0.0
C870 C 0.75824 -0.00942 0.43655 0.0
C871 C 0.74199 0.98467 0.54083 0.0
C872 C 0.70786 -0.00925 0.52641 0.0
H873 H 0.79331 0.98484 0.50991 0.0
H874 H 0.75006 0.98438 0.58695 0.0
S875 S 0.67158 -0.00041 0.37512 0.0
N876 N 0.71283 -0.00395 0.36416 0.0
N877 N 0.66601 -0.00359 0.44771 0.0
C878 C 0.69852 -0.00833 0.46607 0.0
C879 C 0.72381 -0.00865 0.42089 0.0
loop_
_geom_bond_atom_site_label_1
_geom_bond_atom_site_label_2
_geom_bond_distance
_geom_bond_site_symmetry_2
_ccdc_geom_bond_type
Sc0 O3 2.025 . S
Sc0 O10 2.105 . S
Sc0 O13 2.105 . S
Sc0 O16 2.105 . S
Sc0 O19 2.105 . S
Sc1 O3 2.025 . S
Sc1 O11 2.105 . S
Sc1 O15 2.105 . S
Sc1 O17 2.105 . S
Sc1 O21 2.105 . S
Sc2 O3 2.025 . S
Sc2 O12 2.105 . S
Sc2 O14 2.105 . S
Sc2 O18 2.105 . S
Sc2 O20 2.105 . S
O3 Sc0 2.025 . S
O3 Sc1 2.025 . S
O3 Sc2 2.025 . S
C4 O10 1.268 . S
C4 O20 1.268 . S
C5 O11 1.268 . S
C5 O19 1.268 . S
C6 O12 1.268 . S
C6 O21 1.268 . S
C7 O13 1.268 . S
C7 O17 1.268 . S
C8 O14 1.268 . S
C8 O16 1.268 . S
C9 O15 1.268 . S
C9 O18 1.268 . S
O10 Sc0 2.105 . S
O10 C4 1.268 . S
O11 Sc1 2.105 . S
O11 C5 1.268 . S
O12 Sc2 2.105 . S
O12 C6 1.268 . S
O13 Sc0 2.105 . S
O13 C7 1.268 . S
O14 Sc2 2.105 . S
O14 C8 1.268 . S
O15 Sc1 2.105 . S
O15 C9 1.268 . S
O16 Sc0 2.105 . S
O16 C8 1.268 . S
O17 Sc1 2.105 . S
O17 C7 1.268 . S
O18 Sc2 2.105 . S
O18 C9 1.268 . S
O19 Sc0 2.105 . S
O19 C5 1.268 . S
O20 Sc2 2.105 . S
O20 C4 1.268 . S
O21 Sc1 2.105 . S
O21 C6 1.268 . S
Sc22 O25 2.025 . S
Sc22 O32 2.105 . S
Sc22 O35 2.105 . S
Sc22 O38 2.105 . S
Sc22 O41 2.105 . S
Sc23 O25 2.025 . S
Sc23 O33 2.105 . S
Sc23 O37 2.105 . S
Sc23 O39 2.105 . S
Sc23 O43 2.105 . S
Sc24 O25 2.025 . S
Sc24 O34 2.105 . S
Sc24 O36 2.105 . S
Sc24 O40 2.105 . S
Sc24 O42 2.105 . S
O25 Sc22 2.025 . S
O25 Sc23 2.025 . S
O25 Sc24 2.025 . S
C26 O32 1.268 . S
C26 O42 1.268 . S
C27 O33 1.268 . S
C27 O41 1.268 . S
C28 O34 1.268 . S
C28 O43 1.268 . S
C29 O35 1.268 . S
C29 O39 1.268 . S
C30 O36 1.268 . S
C30 O38 1.268 . S
C31 O37 1.268 . S
C31 O40 1.268 . S
O32 Sc22 2.105 . S
O32 C26 1.268 . S
O33 Sc23 2.105 . S
O33 C27 1.268 . S
O34 Sc24 2.105 . S
O34 C28 1.268 . S
O35 Sc22 2.105 . S
O35 C29 1.268 . S
O36 Sc24 2.105 . S
O36 C30 1.268 . S
O37 Sc23 2.105 . S
O37 C31 1.268 . S
O38 Sc22 2.105 . S
O38 C30 1.268 . S
O39 Sc23 2.105 . S
O39 C29 1.268 . S
O40 Sc24 2.105 . S
O40 C31 1.268 . S
O41 Sc22 2.105 . S
O41 C27 1.268 . S
O42 Sc24 2.105 . S
O42 C26 1.268 . S
O43 Sc23 2.105 . S
O43 C28 1.268 . S
Sc44 O47 2.025 . S
Sc44 O54 2.105 . S
Sc44 O57 2.105 . S
Sc44 O60 2.105 . S
Sc44 O63 2.105 . S
Sc45 O47 2.025 . S
Sc45 O55 2.105 . S
Sc45 O59 2.105 . S
Sc45 O61 2.105 . S
Sc45 O65 2.105 1_655 S
Sc46 O47 2.025 . S
Sc46 O56 2.105 . S
Sc46 O58 2.105 . S
Sc46 O62 2.105 . S
Sc46 O64 2.105 . S
O47 Sc44 2.025 . S
O47 Sc45 2.025 . S
O47 Sc46 2.025 . S
C48 O54 1.268 . S
C48 O64 1.268 . S
C49 O55 1.268 . S
C49 O63 1.268 . S
C50 O56 1.268 1_455 S
C50 O65 1.268 . S
C51 O57 1.268 . S
C51 O61 1.268 . S
C52 O58 1.268 . S
C52 O60 1.268 . S
C53 O59 1.268 . S
C53 O62 1.268 . S
O54 Sc44 2.105 . S
O54 C48 1.268 . S
O55 Sc45 2.105 . S
O55 C49 1.268 . S
O56 Sc46 2.105 . S
O56 C50 1.268 1_655 S
O57 Sc44 2.105 . S
O57 C51 1.268 . S
O58 Sc46 2.105 . S
O58 C52 1.268 . S
O59 Sc45 2.105 . S
O59 C53 1.268 . S
O60 Sc44 2.105 . S
O60 C52 1.268 . S
O61 Sc45 2.105 . S
O61 C51 1.268 . S
O62 Sc46 2.105 . S
O62 C53 1.268 . S
O63 Sc44 2.105 . S
O63 C49 1.268 . S
O64 Sc46 2.105 . S
O64 C48 1.268 . S
O65 Sc45 2.105 1_455 S
O65 C50 1.268 . S
Sc66 O69 2.025 . S
Sc66 O76 2.105 . S
Sc66 O79 2.105 . S
Sc66 O82 2.105 . S
Sc66 O85 2.105 . S
Sc67 O69 2.025 . S
Sc67 O77 2.105 . S
Sc67 O81 2.105 . S
Sc67 O83 2.105 . S
Sc67 O87 2.105 1_565 S
Sc68 O69 2.025 . S
Sc68 O78 2.105 . S
Sc68 O80 2.105 . S
Sc68 O84 2.105 . S
Sc68 O86 2.105 . S
O69 Sc66 2.025 . S
O69 Sc67 2.025 . S
O69 Sc68 2.025 . S
C70 O76 1.268 . S
C70 O86 1.268 . S
C71 O77 1.268 . S
C71 O85 1.268 . S
C72 O78 1.268 1_545 S
C72 O87 1.268 . S
C73 O79 1.268 . S
C73 O83 1.268 . S
C74 O80 1.268 . S
C74 O82 1.268 . S
C75 O81 1.268 . S
C75 O84 1.268 . S
O76 Sc66 2.105 . S
O76 C70 1.268 . S
O77 Sc67 2.105 . S
O77 C71 1.268 . S
O78 Sc68 2.105 . S
O78 C72 1.268 1_565 S
O79 Sc66 2.105 . S
O79 C73 1.268 . S
O80 Sc68 2.105 . S
O80 C74 1.268 . S
O81 Sc67 2.105 . S
O81 C75 1.268 . S
O82 Sc66 2.105 . S
O82 C74 1.268 . S
O83 Sc67 2.105 . S
O83 C73 1.268 . S
O84 Sc68 2.105 . S
O84 C75 1.268 . S
O85 Sc66 2.105 . S
O85 C71 1.268 . S
O86 Sc68 2.105 . S
O86 C70 1.268 . S
O87 Sc67 2.105 1_545 S
O87 C72 1.268 . S
Sc88 O91 2.025 . S
Sc88 O98 2.105 . S
Sc88 O101 2.105 . S
Sc88 O104 2.105 . S
Sc88 O107 2.105 . S
Sc89 O91 2.025 . S
Sc89 O99 2.105 . S
Sc89 O103 2.105 . S
Sc89 O105 2.105 . S
Sc89 O109 2.105 . S
Sc90 O91 2.025 . S
Sc90 O100 2.105 . S
Sc90 O102 2.105 . S
Sc90 O106 2.105 . S
Sc90 O108 2.105 . S
O91 Sc88 2.025 . S
O91 Sc89 2.025 . S
O91 Sc90 2.025 . S
C92 O98 1.268 . S
C92 O108 1.268 . S
C93 O99 1.268 . S
C93 O107 1.268 . S
C94 O100 1.268 . S
C94 O109 1.268 . S
C95 O101 1.268 . S
C95 O105 1.268 . S
C96 O102 1.268 . S
C96 O104 1.268 . S
C97 O103 1.268 . S
C97 O106 1.268 . S
O98 Sc88 2.105 . S
O98 C92 1.268 . S
O99 Sc89 2.105 . S
O99 C93 1.268 . S
O100 Sc90 2.105 . S
O100 C94 1.268 . S
O101 Sc88 2.105 . S
O101 C95 1.268 . S
O102 Sc90 2.105 . S
O102 C96 1.268 . S
O103 Sc89 2.105 . S
O103 C97 1.268 . S
O104 Sc88 2.105 . S
O104 C96 1.268 . S
O105 Sc89 2.105 . S
O105 C95 1.268 . S
O106 Sc90 2.105 . S
O106 C97 1.268 . S
O107 Sc88 2.105 . S
O107 C93 1.268 . S
O108 Sc90 2.105 . S
O108 C92 1.268 . S
O109 Sc89 2.105 . S
O109 C94 1.268 . S
Sc110 O113 2.025 . S
Sc110 O120 2.105 . S
Sc110 O123 2.105 . S
Sc110 O126 2.105 . S
Sc110 O129 2.105 . S
Sc111 O113 2.025 . S
Sc111 O121 2.105 . S
Sc111 O125 2.105 . S
Sc111 O127 2.105 . S
Sc111 O131 2.105 . S
Sc112 O113 2.025 . S
Sc112 O122 2.105 . S
Sc112 O124 2.105 . S
Sc112 O128 2.105 . S
Sc112 O130 2.105 . S
O113 Sc110 2.025 . S
O113 Sc111 2.025 . S
O113 Sc112 2.025 . S
C114 O120 1.268 . S
C114 O130 1.268 . S
C115 O121 1.268 . S
C115 O129 1.268 . S
C116 O122 1.268 . S
C116 O131 1.268 . S
C117 O123 1.268 . S
C117 O127 1.268 . S
C118 O124 1.268 . S
C118 O126 1.268 . S
C119 O125 1.268 . S
C119 O128 1.268 . S
O120 Sc110 2.105 . S
O120 C114 1.268 . S
O121 Sc111 2.105 . S
O121 C115 1.268 . S
O122 Sc112 2.105 . S
O122 C116 1.268 . S
O123 Sc110 2.105 . S
O123 C117 1.268 . S
O124 Sc112 2.105 . S
O124 C118 1.268 . S
O125 Sc111 2.105 . S
O125 C119 1.268 . S
O126 Sc110 2.105 . S
O126 C118 1.268 . S
O127 Sc111 2.105 . S
O127 C117 1.268 . S
O128 Sc112 2.105 . S
O128 C119 1.268 . S
O129 Sc110 2.105 . S
O129 C115 1.268 . S
O130 Sc112 2.105 . S
O130 C114 1.268 . S
O131 Sc111 2.105 . S
O131 C116 1.268 . S
Sc132 O135 2.025 . S
Sc132 O142 2.105 . S
Sc132 O145 2.105 . S
Sc132 O148 2.105 . S
Sc132 O151 2.105 . S
Sc133 O135 2.025 . S
Sc133 O143 2.105 . S
Sc133 O147 2.105 . S
Sc133 O149 2.105 1_655 S
Sc133 O153 2.105 . S
Sc134 O135 2.025 . S
Sc134 O144 2.105 . S
Sc134 O146 2.105 . S
Sc134 O150 2.105 . S
Sc134 O152 2.105 . S
O135 Sc132 2.025 . S
O135 Sc133 2.025 . S
O135 Sc134 2.025 . S
C136 O142 1.268 . S
C136 O152 1.268 . S
C137 O143 1.268 . S
C137 O151 1.268 . S
C138 O144 1.268 . S
C138 O153 1.268 . S
C139 O145 1.268 1_455 S
C139 O149 1.268 . S
C140 O146 1.268 . S
C140 O148 1.268 . S
C141 O147 1.268 . S
C141 O150 1.268 . S
O142 Sc132 2.105 . S
O142 C136 1.268 . S
O143 Sc133 2.105 . S
O143 C137 1.268 . S
O144 Sc134 2.105 . S
O144 C138 1.268 . S
O145 Sc132 2.105 . S
O145 C139 1.268 1_655 S
O146 Sc134 2.105 . S
O146 C140 1.268 . S
O147 Sc133 2.105 . S
O147 C141 1.268 . S
O148 Sc132 2.105 . S
O148 C140 1.268 . S
O149 Sc133 2.105 1_455 S
O149 C139 1.268 . S
O150 Sc134 2.105 . S
O150 C141 1.268 . S
O151 Sc132 2.105 . S
O151 C137 1.268 . S
O152 Sc134 2.105 . S
O152 C136 1.268 . S
O153 Sc133 2.105 . S
O153 C138 1.268 . S
Sc154 O157 2.025 . S
Sc154 O164 2.105 . S
Sc154 O167 2.105 . S
Sc154 O170 2.105 . S
Sc154 O173 2.105 . S
Sc155 O157 2.025 . S
Sc155 O165 2.105 . S
Sc155 O169 2.105 . S
Sc155 O171 2.105 1_565 S
Sc155 O175 2.105 . S
Sc156 O157 2.025 . S
Sc156 O166 2.105 . S
Sc156 O168 2.105 . S
Sc156 O172 2.105 . S
Sc156 O174 2.105 . S
O157 Sc154 2.025 . S
O157 Sc155 2.025 . S
O157 Sc156 2.025 . S
C158 O164 1.268 . S
C158 O174 1.268 . S
C159 O165 1.268 . S
C159 O173 1.268 . S
C160 O166 1.268 . S
C160 O175 1.268 . S
C161 O167 1.268 1_545 S
C161 O171 1.268 . S
C162 O168 1.268 . S
C162 O170 1.268 . S
C163 O169 1.268 . S
C163 O172 1.268 . S
O164 Sc154 2.105 . S
O164 C158 1.268 . S
O165 Sc155 2.105 . S
O165 C159 1.268 . S
O166 Sc156 2.105 . S
O166 C160 1.268 . S
O167 Sc154 2.105 . S
O167 C161 1.268 1_565 S
O168 Sc156 2.105 . S
O168 C162 1.268 . S
O169 Sc155 2.105 . S
O169 C163 1.268 . S
O170 Sc154 2.105 . S
O170 C162 1.268 . S
O171 Sc155 2.105 1_545 S
O171 C161 1.268 . S
O172 Sc156 2.105 . S
O172 C163 1.268 . S
O173 Sc154 2.105 . S
O173 C159 1.268 . S
O174 Sc156 2.105 . S
O174 C158 1.268 . S
O175 Sc155 2.105 . S
O175 C160 1.268 . S
Sc176 O179 2.025 . S
Sc176 O186 2.105 . S
Sc176 O189 2.105 . S
Sc176 O192 2.105 . S
Sc176 O195 2.105 . S
Sc177 O179 2.025 . S
Sc177 O187 2.105 . S
Sc177 O191 2.105 . S
Sc177 O193 2.105 . S
Sc177 O197 2.105 . S
Sc178 O179 2.025 . S
Sc178 O188 2.105 . S
Sc178 O190 2.105 . S
Sc178 O194 2.105 . S
Sc178 O196 2.105 . S
O179 Sc176 2.025 . S
O179 Sc177 2.025 . S
O179 Sc178 2.025 . S
C180 O186 1.268 . S
C180 O196 1.268 . S
C181 O187 1.268 . S
C181 O195 1.268 . S
C182 O188 1.268 . S
C182 O197 1.268 . S
C183 O189 1.268 . S
C183 O193 1.268 . S
C184 O190 1.268 . S
C184 O192 1.268 . S
C185 O191 1.268 . S
C185 O194 1.268 . S
O186 Sc176 2.105 . S
O186 C180 1.268 . S
O187 Sc177 2.105 . S
O187 C181 1.268 . S
O188 Sc178 2.105 . S
O188 C182 1.268 . S
O189 Sc176 2.105 . S
O189 C183 1.268 . S
O190 Sc178 2.105 . S
O190 C184 1.268 . S
O191 Sc177 2.105 . S
O191 C185 1.268 . S
O192 Sc176 2.105 . S
O192 C184 1.268 . S
O193 Sc177 2.105 . S
O193 C183 1.268 . S
O194 Sc178 2.105 . S
O194 C185 1.268 . S
O195 Sc176 2.105 . S
O195 C181 1.268 . S
O196 Sc178 2.105 . S
O196 C180 1.268 . S
O197 Sc177 2.105 . S
O197 C182 1.268 . S
Sc198 O201 2.025 . S
Sc198 O208 2.105 . S
Sc198 O211 2.105 . S
Sc198 O214 2.105 . S
Sc198 O217 2.105 . S
Sc199 O201 2.025 . S
Sc199 O209 2.105 . S
Sc199 O213 2.105 . S
Sc199 O215 2.105 . S
Sc199 O219 2.105 . S
Sc200 O201 2.025 . S
Sc200 O210 2.105 . S
Sc200 O212 2.105 . S
Sc200 O216 2.105 . S
Sc200 O218 2.105 . S
O201 Sc198 2.025 . S
O201 Sc199 2.025 . S
O201 Sc200 2.025 . S
C202 O208 1.268 . S
C202 O218 1.268 . S
C203 O209 1.268 . S
C203 O217 1.268 . S
C204 O210 1.268 . S
C204 O219 1.268 . S
C205 O211 1.268 . S
C205 O215 1.268 . S
C206 O212 1.268 . S
C206 O214 1.268 . S
C207 O213 1.268 . S
C207 O216 1.268 . S
O208 Sc198 2.105 . S
O208 C202 1.268 . S
O209 Sc199 2.105 . S
O209 C203 1.268 . S
O210 Sc200 2.105 . S
O210 C204 1.268 . S
O211 Sc198 2.105 . S
O211 C205 1.268 . S
O212 Sc200 2.105 . S
O212 C206 1.268 . S
O213 Sc199 2.105 . S
O213 C207 1.268 . S
O214 Sc198 2.105 . S
O214 C206 1.268 . S
O215 Sc199 2.105 . S
O215 C205 1.268 . S
O216 Sc200 2.105 . S
O216 C207 1.268 . S
O217 Sc198 2.105 . S
O217 C203 1.268 . S
O218 Sc200 2.105 . S
O218 C202 1.268 . S
O219 Sc199 2.105 . S
O219 C204 1.268 . S
Sc220 O223 2.025 . S
Sc220 O230 2.105 . S
Sc220 O233 2.105 . S
Sc220 O236 2.105 . S
Sc220 O239 2.105 . S
Sc221 O223 2.025 . S
Sc221 O231 2.105 . S
Sc221 O235 2.105 1_455 S
Sc221 O237 2.105 . S
Sc221 O241 2.105 . S
Sc222 O223 2.025 . S
Sc222 O232 2.105 . S
Sc222 O234 2.105 . S
Sc222 O238 2.105 . S
Sc222 O240 2.105 . S
O223 Sc220 2.025 . S
O223 Sc221 2.025 . S
O223 Sc222 2.025 . S
C224 O230 1.268 . S
C224 O240 1.268 . S
C225 O231 1.268 . S
C225 O239 1.268 . S
C226 O232 1.268 . S
C226 O241 1.268 . S
C227 O233 1.268 . S
C227 O237 1.268 . S
C228 O234 1.268 . S
C228 O236 1.268 . S
C229 O235 1.268 . S
C229 O238 1.268 1_655 S
O230 Sc220 2.105 . S
O230 C224 1.268 . S
O231 Sc221 2.105 . S
O231 C225 1.268 . S
O232 Sc222 2.105 . S
O232 C226 1.268 . S
O233 Sc220 2.105 . S
O233 C227 1.268 . S
O234 Sc222 2.105 . S
O234 C228 1.268 . S
O235 Sc221 2.105 1_655 S
O235 C229 1.268 . S
O236 Sc220 2.105 . S
O236 C228 1.268 . S
O237 Sc221 2.105 . S
O237 C227 1.268 . S
O238 Sc222 2.105 . S
O238 C229 1.268 1_455 S
O239 Sc220 2.105 . S
O239 C225 1.268 . S
O240 Sc222 2.105 . S
O240 C224 1.268 . S
O241 Sc221 2.105 . S
O241 C226 1.268 . S
Sc242 O245 2.025 . S
Sc242 O252 2.105 . S
Sc242 O255 2.105 . S
Sc242 O258 2.105 . S
Sc242 O261 2.105 . S
Sc243 O245 2.025 . S
Sc243 O253 2.105 . S
Sc243 O257 2.105 1_545 S
Sc243 O259 2.105 . S
Sc243 O263 2.105 . S
Sc244 O245 2.025 . S
Sc244 O254 2.105 . S
Sc244 O256 2.105 . S
Sc244 O260 2.105 . S
Sc244 O262 2.105 . S
O245 Sc242 2.025 . S
O245 Sc243 2.025 . S
O245 Sc244 2.025 . S
C246 O252 1.268 . S
C246 O262 1.268 . S
C247 O253 1.268 . S
C247 O261 1.268 . S
C248 O254 1.268 . S
C248 O263 1.268 . S
C249 O255 1.268 . S
C249 O259 1.268 . S
C250 O256 1.268 . S
C250 O258 1.268 . S
C251 O257 1.268 . S
C251 O260 1.268 1_565 S
O252 Sc242 2.105 . S
O252 C246 1.268 . S
O253 Sc243 2.105 . S
O253 C247 1.268 . S
O254 Sc244 2.105 . S
O254 C248 1.268 . S
O255 Sc242 2.105 . S
O255 C249 1.268 . S
O256 Sc244 2.105 . S
O256 C250 1.268 . S
O257 Sc243 2.105 1_565 S
O257 C251 1.268 . S
O258 Sc242 2.105 . S
O258 C250 1.268 . S
O259 Sc243 2.105 . S
O259 C249 1.268 . S
O260 Sc244 2.105 . S
O260 C251 1.268 1_545 S
O261 Sc242 2.105 . S
O261 C247 1.268 . S
O262 Sc244 2.105 . S
O262 C246 1.268 . S
O263 Sc243 2.105 . S
O263 C248 1.268 . S
Sc264 O267 2.025 . S
Sc264 O274 2.105 . S
Sc264 O277 2.105 . S
Sc264 O280 2.105 . S
Sc264 O283 2.105 . S
Sc265 O267 2.025 . S
Sc265 O275 2.105 . S
Sc265 O279 2.105 . S
Sc265 O281 2.105 . S
Sc265 O285 2.105 . S
Sc266 O267 2.025 . S
Sc266 O276 2.105 . S
Sc266 O278 2.105 . S
Sc266 O282 2.105 . S
Sc266 O284 2.105 . S
O267 Sc264 2.025 . S
O267 Sc265 2.025 . S
O267 Sc266 2.025 . S
C268 O274 1.268 . S
C268 O284 1.268 . S
C269 O275 1.268 . S
C269 O283 1.268 . S
C270 O276 1.268 . S
C270 O285 1.268 . S
C271 O277 1.268 . S
C271 O281 1.268 . S
C272 O278 1.268 . S
C272 O280 1.268 . S
C273 O279 1.268 . S
C273 O282 1.268 . S
O274 Sc264 2.105 . S
O274 C268 1.268 . S
O275 Sc265 2.105 . S
O275 C269 1.268 . S
O276 Sc266 2.105 . S
O276 C270 1.268 . S
O277 Sc264 2.105 . S
O277 C271 1.268 . S
O278 Sc266 2.105 . S
O278 C272 1.268 . S
O279 Sc265 2.105 . S
O279 C273 1.268 . S
O280 Sc264 2.105 . S
O280 C272 1.268 . S
O281 Sc265 2.105 . S
O281 C271 1.268 . S
O282 Sc266 2.105 . S
O282 C273 1.268 . S
O283 Sc264 2.105 . S
O283 C269 1.268 . S
O284 Sc266 2.105 . S
O284 C268 1.268 . S
O285 Sc265 2.105 . S
O285 C270 1.268 . S
Sc286 O289 2.025 . S
Sc286 O296 2.105 . S
Sc286 O299 2.105 . S
Sc286 O302 2.105 . S
Sc286 O305 2.105 . S
Sc287 O289 2.025 . S
Sc287 O297 2.105 . S
Sc287 O301 2.105 . S
Sc287 O303 2.105 . S
Sc287 O307 2.105 . S
Sc288 O289 2.025 . S
Sc288 O298 2.105 . S
Sc288 O300 2.105 . S
Sc288 O304 2.105 . S
Sc288 O306 2.105 . S
O289 Sc286 2.025 . S
O289 Sc287 2.025 . S
O289 Sc288 2.025 . S
C290 O296 1.268 . S
C290 O306 1.268 . S
C291 O297 1.268 . S
C291 O305 1.268 . S
C292 O298 1.268 . S
C292 O307 1.268 . S
C293 O299 1.268 . S
C293 O303 1.268 . S
C294 O300 1.268 . S
C294 O302 1.268 . S
C295 O301 1.268 . S
C295 O304 1.268 . S
O296 Sc286 2.105 . S
O296 C290 1.268 . S
O297 Sc287 2.105 . S
O297 C291 1.268 . S
O298 Sc288 2.105 . S
O298 C292 1.268 . S
O299 Sc286 2.105 . S
O299 C293 1.268 . S
O300 Sc288 2.105 . S
O300 C294 1.268 . S
O301 Sc287 2.105 . S
O301 C295 1.268 . S
O302 Sc286 2.105 . S
O302 C294 1.268 . S
O303 Sc287 2.105 . S
O303 C293 1.268 . S
O304 Sc288 2.105 . S
O304 C295 1.268 . S
O305 Sc286 2.105 . S
O305 C291 1.268 . S
O306 Sc288 2.105 . S
O306 C290 1.268 . S
O307 Sc287 2.105 . S
O307 C292 1.268 . S
Sc308 O311 2.025 . S
Sc308 O318 2.105 . S
Sc308 O321 2.105 . S
Sc308 O324 2.105 . S
Sc308 O327 2.105 . S
Sc309 O311 2.025 . S
Sc309 O319 2.105 1_455 S
Sc309 O323 2.105 . S
Sc309 O325 2.105 . S
Sc309 O329 2.105 . S
Sc310 O311 2.025 . S
Sc310 O320 2.105 . S
Sc310 O322 2.105 . S
Sc310 O326 2.105 . S
Sc310 O328 2.105 . S
O311 Sc308 2.025 . S
O311 Sc309 2.025 . S
O311 Sc310 2.025 . S
C312 O318 1.268 . S
C312 O328 1.268 . S
C313 O319 1.268 . S
C313 O327 1.268 1_655 S
C314 O320 1.268 . S
C314 O329 1.268 . S
C315 O321 1.268 . S
C315 O325 1.268 . S
C316 O322 1.268 . S
C316 O324 1.268 . S
C317 O323 1.268 . S
C317 O326 1.268 . S
O318 Sc308 2.105 . S
O318 C312 1.268 . S
O319 Sc309 2.105 1_655 S
O319 C313 1.268 . S
O320 Sc310 2.105 . S
O320 C314 1.268 . S
O321 Sc308 2.105 . S
O321 C315 1.268 . S
O322 Sc310 2.105 . S
O322 C316 1.268 . S
O323 Sc309 2.105 . S
O323 C317 1.268 . S
O324 Sc308 2.105 . S
O324 C316 1.268 . S
O325 Sc309 2.105 . S
O325 C315 1.268 . S
O326 Sc310 2.105 . S
O326 C317 1.268 . S
O327 Sc308 2.105 . S
O327 C313 1.268 1_455 S
O328 Sc310 2.105 . S
O328 C312 1.268 . S
O329 Sc309 2.105 . S
O329 C314 1.268 . S
Sc330 O333 2.025 . S
Sc330 O340 2.105 . S
Sc330 O343 2.105 . S
Sc330 O346 2.105 . S
Sc330 O349 2.105 . S
Sc331 O333 2.025 . S
Sc331 O341 2.105 1_545 S
Sc331 O345 2.105 . S
Sc331 O347 2.105 . S
Sc331 O351 2.105 . S
Sc332 O333 2.025 . S
Sc332 O342 2.105 . S
Sc332 O344 2.105 . S
Sc332 O348 2.105 . S
Sc332 O350 2.105 . S
O333 Sc330 2.025 . S
O333 Sc331 2.025 . S
O333 Sc332 2.025 . S
C334 O340 1.268 . S
C334 O350 1.268 . S
C335 O341 1.268 . S
C335 O349 1.268 1_565 S
C336 O342 1.268 . S
C336 O351 1.268 . S
C337 O343 1.268 . S
C337 O347 1.268 . S
C338 O344 1.268 . S
C338 O346 1.268 . S
C339 O345 1.268 . S
C339 O348 1.268 . S
O340 Sc330 2.105 . S
O340 C334 1.268 . S
O341 Sc331 2.105 1_565 S
O341 C335 1.268 . S
O342 Sc332 2.105 . S
O342 C336 1.268 . S
O343 Sc330 2.105 . S
O343 C337 1.268 . S
O344 Sc332 2.105 . S
O344 C338 1.268 . S
O345 Sc331 2.105 . S
O345 C339 1.268 . S
O346 Sc330 2.105 . S
O346 C338 1.268 . S
O347 Sc331 2.105 . S
O347 C337 1.268 . S
O348 Sc332 2.105 . S
O348 C339 1.268 . S
O349 Sc330 2.105 . S
O349 C335 1.268 1_545 S
O350 Sc332 2.105 . S
O350 C334 1.268 . S
O351 Sc331 2.105 . S
O351 C336 1.268 . S
C352 C353 1.369 . S
C352 C354 1.419 . S
C352 H356 0.930 . S
C353 C352 1.369 . S
C353 C362 1.429 . S
C354 C352 1.419 . S
C354 C355 1.363 . S
C354 H357 0.929 . S
C355 C354 1.363 . S
C355 C361 1.428 . S
H356 C352 0.930 . S
H357 C354 0.929 . S
S358 N359 1.613 . S
S358 N360 1.610 . S
N359 S358 1.613 . S
N359 C362 1.350 . S
N360 S358 1.610 . S
N360 C361 1.351 . S
C361 C355 1.428 . S
C361 N360 1.351 . S
C361 C362 1.434 . S
C362 C353 1.429 . S
C362 N359 1.350 . S
C362 C361 1.434 . S
C363 C364 1.369 . S
C363 C365 1.419 . S
C363 H367 0.930 . S
C364 C363 1.369 . S
C364 C373 1.429 . S
C365 C363 1.419 . S
C365 C366 1.363 . S
C365 H368 0.929 . S
C366 C365 1.363 . S
C366 C372 1.428 . S
H367 C363 0.930 . S
H368 C365 0.929 . S
S369 N370 1.613 . S
S369 N371 1.610 . S
N370 S369 1.613 . S
N370 C373 1.350 . S
N371 S369 1.610 . S
N371 C372 1.351 . S
C372 C366 1.428 . S
C372 N371 1.351 . S
C372 C373 1.434 . S
C373 C364 1.429 . S
C373 N370 1.350 . S
C373 C372 1.434 . S
C374 C375 1.369 . S
C374 C376 1.419 . S
C374 H378 0.930 . S
C375 C374 1.369 . S
C375 C384 1.429 . S
C376 C374 1.419 . S
C376 C377 1.363 . S
C376 H379 0.929 . S
C377 C376 1.363 . S
C377 C383 1.428 . S
H378 C374 0.930 . S
H379 C376 0.929 . S
S380 N381 1.613 . S
S380 N382 1.610 . S
N381 S380 1.613 . S
N381 C384 1.350 . S
N382 S380 1.610 . S
N382 C383 1.351 . S
C383 C377 1.428 . S
C383 N382 1.351 . S
C383 C384 1.434 . S
C384 C375 1.429 . S
C384 N381 1.350 . S
C384 C383 1.434 . S
C385 C386 1.369 . S
C385 C387 1.419 . S
C385 H389 0.930 . S
C386 C385 1.369 . S
C386 C395 1.429 . S
C387 C385 1.419 . S
C387 C388 1.363 . S
C387 H390 0.929 . S
C388 C387 1.363 . S
C388 C394 1.428 . S
H389 C385 0.930 . S
H390 C387 0.929 . S
S391 N392 1.613 . S
S391 N393 1.610 . S
N392 S391 1.613 . S
N392 C395 1.350 . S
N393 S391 1.610 . S
N393 C394 1.351 . S
C394 C388 1.428 . S
C394 N393 1.351 . S
C394 C395 1.434 . S
C395 C386 1.429 . S
C395 N392 1.350 . S
C395 C394 1.434 . S
C396 C397 1.369 . S
C396 C398 1.419 . S
C396 H400 0.930 . S
C397 C396 1.369 . S
C397 C406 1.429 . S
C398 C396 1.419 . S
C398 C399 1.363 . S
C398 H401 0.929 . S
C399 C398 1.363 . S
C399 C405 1.428 . S
H400 C396 0.930 . S
H401 C398 0.929 . S
S402 N403 1.613 . S
S402 N404 1.610 . S
N403 S402 1.613 . S
N403 C406 1.350 . S
N404 S402 1.610 . S
N404 C405 1.351 . S
C405 C399 1.428 . S
C405 N404 1.351 . S
C405 C406 1.434 . S
C406 C397 1.429 . S
C406 N403 1.350 . S
C406 C405 1.434 . S
C407 C408 1.369 . S
C407 C409 1.419 . S
C407 H411 0.930 . S
C408 C407 1.369 . S
C408 C417 1.429 . S
C409 C407 1.419 . S
C409 C410 1.363 . S
C409 H412 0.929 . S
C410 C409 1.363 . S
C410 C416 1.428 . S
H411 C407 0.930 . S
H412 C409 0.929 . S
S413 N414 1.613 . S
S413 N415 1.610 . S
N414 S413 1.613 . S
N414 C417 1.350 . S
N415 S413 1.610 . S
N415 C416 1.351 . S
C416 C410 1.428 . S
C416 N415 1.351 . S
C416 C417 1.434 . S
C417 C408 1.429 . S
C417 N414 1.350 . S
C417 C416 1.434 . S
C418 C419 1.369 . S
C418 C420 1.419 . S
C418 H422 0.930 . S
C419 C418 1.369 . S
C419 C428 1.429 . S
C420 C418 1.419 . S
C420 C421 1.363 . S
C420 H423 0.929 . S
C421 C420 1.363 . S
C421 C427 1.428 . S
H422 C418 0.930 . S
H423 C420 0.929 . S
S424 N425 1.613 . S
S424 N426 1.610 . S
N425 S424 1.613 . S
N425 C428 1.350 . S
N426 S424 1.610 . S
N426 C427 1.351 . S
C427 C421 1.428 . S
C427 N426 1.351 . S
C427 C428 1.434 . S
C428 C419 1.429 . S
C428 N425 1.350 . S
C428 C427 1.434 . S
C429 C430 1.369 . S
C429 C431 1.419 . S
C429 H433 0.930 . S
C430 C429 1.369 . S
C430 C439 1.429 . S
C431 C429 1.419 . S
C431 C432 1.363 . S
C431 H434 0.929 . S
C432 C431 1.363 . S
C432 C438 1.428 . S
H433 C429 0.930 . S
H434 C431 0.929 . S
S435 N436 1.613 . S
S435 N437 1.610 . S
N436 S435 1.613 . S
N436 C439 1.350 . S
N437 S435 1.610 . S
N437 C438 1.351 . S
C438 C432 1.428 . S
C438 N437 1.351 . S
C438 C439 1.434 . S
C439 C430 1.429 . S
C439 N436 1.350 . S
C439 C438 1.434 . S
C440 C441 1.369 . S
C440 C442 1.419 . S
C440 H444 0.930 . S
C441 C440 1.369 . S
C441 C450 1.429 . S
C442 C440 1.419 . S
C442 C443 1.363 . S
C442 H445 0.929 . S
C443 C442 1.363 . S
C443 C449 1.428 . S
H444 C440 0.930 . S
H445 C442 0.929 . S
S446 N447 1.613 . S
S446 N448 1.610 . S
N447 S446 1.613 . S
N447 C450 1.350 . S
N448 S446 1.610 . S
N448 C449 1.351 . S
C449 C443 1.428 . S
C449 N448 1.351 . S
C449 C450 1.434 . S
C450 C441 1.429 . S
C450 N447 1.350 . S
C450 C449 1.434 . S
C451 C452 1.369 . S
C451 C453 1.419 . S
C451 H455 0.930 . S
C452 C451 1.369 . S
C452 C461 1.429 . S
C453 C451 1.419 . S
C453 C454 1.363 . S
C453 H456 0.929 . S
C454 C453 1.363 . S
C454 C460 1.428 . S
H455 C451 0.930 . S
H456 C453 0.929 . S
S457 N458 1.613 . S
S457 N459 1.610 . S
N458 S457 1.613 . S
N458 C461 1.350 . S
N459 S457 1.610 . S
N459 C460 1.351 . S
C460 C454 1.428 . S
C460 N459 1.351 . S
C460 C461 1.434 . S
C461 C452 1.429 . S
C461 N458 1.350 . S
C461 C460 1.434 . S
C462 C463 1.369 . S
C462 C464 1.419 . S
C462 H466 0.930 . S
C463 C462 1.369 . S
C463 C472 1.429 . S
C464 C462 1.419 . S
C464 C465 1.363 . S
C464 H467 0.929 . S
C465 C464 1.363 . S
C465 C471 1.428 . S
H466 C462 0.930 . S
H467 C464 0.929 . S
S468 N469 1.613 . S
S468 N470 1.610 . S
N469 S468 1.613 . S
N469 C472 1.350 . S
N470 S468 1.610 . S
N470 C471 1.351 . S
C471 C465 1.428 . S
C471 N470 1.351 . S
C471 C472 1.434 . S
C472 C463 1.429 . S
C472 N469 1.350 . S
C472 C471 1.434 . S
C473 C474 1.369 . S
C473 C475 1.419 . S
C473 H477 0.930 . S
C474 C473 1.369 . S
C474 C483 1.429 . S
C475 C473 1.419 . S
C475 C476 1.363 . S
C475 H478 0.929 . S
C476 C475 1.363 . S
C476 C482 1.428 . S
H477 C473 0.930 . S
H478 C475 0.929 . S
S479 N480 1.613 . S
S479 N481 1.610 . S
N480 S479 1.613 . S
N480 C483 1.350 . S
N481 S479 1.610 . S
N481 C482 1.351 . S
C482 C476 1.428 . S
C482 N481 1.351 . S
C482 C483 1.434 . S
C483 C474 1.429 . S
C483 N480 1.350 . S
C483 C482 1.434 . S
C484 C485 1.369 . S
C484 C486 1.419 . S
C484 H488 0.930 . S
C485 C484 1.369 . S
C485 C494 1.429 . S
C486 C484 1.419 . S
C486 C487 1.363 . S
C486 H489 0.929 . S
C487 C486 1.363 . S
C487 C493 1.428 . S
H488 C484 0.930 . S
H489 C486 0.929 . S
S490 N491 1.613 . S
S490 N492 1.610 . S
N491 S490 1.613 . S
N491 C494 1.350 . S
N492 S490 1.610 . S
N492 C493 1.351 . S
C493 C487 1.428 . S
C493 N492 1.351 . S
C493 C494 1.434 . S
C494 C485 1.429 . S
C494 N491 1.350 . S
C494 C493 1.434 . S
C495 C496 1.369 . S
C495 C497 1.419 . S
C495 H499 0.930 . S
C496 C495 1.369 . S
C496 C505 1.429 . S
C497 C495 1.419 . S
C497 C498 1.363 . S
C497 H500 0.929 . S
C498 C497 1.363 . S
C498 C504 1.428 . S
H499 C495 0.930 . S
H500 C497 0.929 . S
S501 N502 1.613 . S
S501 N503 1.610 . S
N502 S501 1.613 . S
N502 C505 1.350 . S
N503 S501 1.610 . S
N503 C504 1.351 . S
C504 C498 1.428 . S
C504 N503 1.351 . S
C504 C505 1.434 . S
C505 C496 1.429 . S
C505 N502 1.350 . S
C505 C504 1.434 . S
C506 C507 1.369 . S
C506 C508 1.419 . S
C506 H510 0.930 . S
C507 C506 1.369 . S
C507 C516 1.429 . S
C508 C506 1.419 . S
C508 C509 1.363 . S
C508 H511 0.929 . S
C509 C508 1.363 . S
C509 C515 1.428 . S
H510 C506 0.930 . S
H511 C508 0.929 . S
S512 N513 1.613 . S
S512 N514 1.610 . S
N513 S512 1.613 . S
N513 C516 1.350 . S
N514 S512 1.610 . S
N514 C515 1.351 . S
C515 C509 1.428 . S
C515 N514 1.351 . S
C515 C516 1.434 . S
C516 C507 1.429 . S
C516 N513 1.350 . S
C516 C515 1.434 . S
C517 C518 1.369 . S
C517 C519 1.419 . S
C517 H521 0.930 . S
C518 C517 1.369 . S
C518 C527 1.429 . S
C519 C517 1.419 . S
C519 C520 1.363 . S
C519 H522 0.929 . S
C520 C519 1.363 . S
C520 C526 1.428 . S
H521 C517 0.930 . S
H522 C519 0.929 . S
S523 N524 1.613 . S
S523 N525 1.610 . S
N524 S523 1.613 . S
N524 C527 1.350 . S
N525 S523 1.610 . S
N525 C526 1.351 . S
C526 C520 1.428 . S
C526 N525 1.351 . S
C526 C527 1.434 . S
C527 C518 1.429 . S
C527 N524 1.350 . S
C527 C526 1.434 . S
C528 C529 1.369 1_556 S
C528 C530 1.419 . S
C528 H532 0.930 1_556 S
C529 C528 1.369 1_554 S
C529 C538 1.429 1_554 S
C530 C528 1.419 . S
C530 C531 1.363 . S
C530 H533 0.929 . S
C531 C530 1.363 . S
C531 C537 1.428 . S
H532 C528 0.930 1_554 S
H533 C530 0.929 . S
S534 N535 1.613 . S
S534 N536 1.610 . S
N535 S534 1.613 . S
N535 C538 1.350 . S
N536 S534 1.610 . S
N536 C537 1.351 . S
C537 C531 1.428 . S
C537 N536 1.351 . S
C537 C538 1.434 . S
C538 C529 1.429 1_556 S
C538 N535 1.350 . S
C538 C537 1.434 . S
C539 C540 1.369 . S
C539 C541 1.419 . S
C539 H543 0.930 . S
C540 C539 1.369 . S
C540 C549 1.429 . S
C541 C539 1.419 . S
C541 C542 1.363 . S
C541 H544 0.929 . S
C542 C541 1.363 . S
C542 C548 1.428 . S
H543 C539 0.930 . S
H544 C541 0.929 . S
S545 N546 1.613 . S
S545 N547 1.610 . S
N546 S545 1.613 . S
N546 C549 1.350 . S
N547 S545 1.610 . S
N547 C548 1.351 . S
C548 C542 1.428 . S
C548 N547 1.351 . S
C548 C549 1.434 . S
C549 C540 1.429 . S
C549 N546 1.350 . S
C549 C548 1.434 . S
C550 C551 1.369 1_556 S
C550 C552 1.419 . S
C550 H554 0.930 . S
C551 C550 1.369 1_554 S
C551 C560 1.429 1_554 S
C552 C550 1.419 . S
C552 C553 1.363 . S
C552 H555 0.929 . S
C553 C552 1.363 . S
C553 C559 1.428 . S
H554 C550 0.930 . S
H555 C552 0.929 . S
S556 N557 1.613 1_556 S
S556 N558 1.610 . S
N557 S556 1.613 1_554 S
N557 C560 1.350 1_554 S
N558 S556 1.610 . S
N558 C559 1.351 . S
C559 C553 1.428 . S
C559 N558 1.351 . S
C559 C560 1.434 . S
C560 C551 1.429 1_556 S
C560 N557 1.350 1_556 S
C560 C559 1.434 . S
C561 C562 1.369 . S
C561 C563 1.419 . S
C561 H565 0.930 . S
C562 C561 1.369 . S
C562 C571 1.429 . S
C563 C561 1.419 . S
C563 C564 1.363 . S
C563 H566 0.929 . S
C564 C563 1.363 . S
C564 C570 1.428 . S
H565 C561 0.930 . S
H566 C563 0.929 . S
S567 N568 1.613 . S
S567 N569 1.610 . S
N568 S567 1.613 . S
N568 C571 1.350 . S
N569 S567 1.610 . S
N569 C570 1.351 . S
C570 C564 1.428 . S
C570 N569 1.351 . S
C570 C571 1.434 . S
C571 C562 1.429 . S
C571 N568 1.350 . S
C571 C570 1.434 . S
C572 C573 1.369 . S
C572 C574 1.419 1_556 S
C572 H576 0.930 . S
C573 C572 1.369 . S
C573 C582 1.429 1_556 S
C574 C572 1.419 1_554 S
C574 C575 1.363 . S
C574 H577 0.929 . S
C575 C574 1.363 . S
C575 C581 1.428 . S
H576 C572 0.930 . S
H577 C574 0.929 . S
S578 N579 1.613 . S
S578 N580 1.610 . S
N579 S578 1.613 . S
N579 C582 1.350 . S
N580 S578 1.610 . S
N580 C581 1.351 . S
C581 C575 1.428 . S
C581 N580 1.351 . S
C581 C582 1.434 . S
C582 C573 1.429 1_554 S
C582 N579 1.350 . S
C582 C581 1.434 . S
C583 C584 1.369 . S
C583 C585 1.419 . S
C583 H587 0.930 . S
C584 C583 1.369 . S
C584 C593 1.429 . S
C585 C583 1.419 . S
C585 C586 1.363 . S
C585 H588 0.929 . S
C586 C585 1.363 . S
C586 C592 1.428 . S
H587 C583 0.930 . S
H588 C585 0.929 . S
S589 N590 1.613 . S
S589 N591 1.610 . S
N590 S589 1.613 . S
N590 C593 1.350 . S
N591 S589 1.610 . S
N591 C592 1.351 . S
C592 C586 1.428 . S
C592 N591 1.351 . S
C592 C593 1.434 . S
C593 C584 1.429 . S
C593 N590 1.350 . S
C593 C592 1.434 . S
C594 C595 1.369 1_554 S
C594 C596 1.419 . S
C594 H598 0.930 . S
C595 C594 1.369 1_556 S
C595 C604 1.429 . S
C596 C594 1.419 . S
C596 C597 1.363 . S
C596 H599 0.929 . S
C597 C596 1.363 . S
C597 C603 1.428 . S
H598 C594 0.930 . S
H599 C596 0.929 . S
S600 N601 1.613 . S
S600 N602 1.610 1_556 S
N601 S600 1.613 . S
N601 C604 1.350 . S
N602 S600 1.610 1_554 S
N602 C603 1.351 . S
C603 C597 1.428 . S
C603 N602 1.351 . S
C603 C604 1.434 1_554 S
C604 C595 1.429 . S
C604 N601 1.350 . S
C604 C603 1.434 1_556 S
C605 C606 1.369 . S
C605 C607 1.419 . S
C605 H609 0.930 . S
C606 C605 1.369 . S
C606 C615 1.429 . S
C607 C605 1.419 . S
C607 C608 1.363 . S
C607 H610 0.929 . S
C608 C607 1.363 . S
C608 C614 1.428 . S
H609 C605 0.930 . S
H610 C607 0.929 . S
S611 N612 1.613 . S
S611 N613 1.610 . S
N612 S611 1.613 . S
N612 C615 1.350 . S
N613 S611 1.610 . S
N613 C614 1.351 . S
C614 C608 1.428 . S
C614 N613 1.351 . S
C614 C615 1.434 . S
C615 C606 1.429 . S
C615 N612 1.350 . S
C615 C614 1.434 . S
C616 C617 1.369 1_554 S
C616 C618 1.419 . S
C616 H620 0.930 1_554 S
C617 C616 1.369 1_556 S
C617 C626 1.429 1_556 S
C618 C616 1.419 . S
C618 C619 1.363 . S
C618 H621 0.929 . S
C619 C618 1.363 . S
C619 C625 1.428 . S
H620 C616 0.930 1_556 S
H621 C618 0.929 . S
S622 N623 1.613 . S
S622 N624 1.610 . S
N623 S622 1.613 . S
N623 C626 1.350 . S
N624 S622 1.610 . S
N624 C625 1.351 . S
C625 C619 1.428 . S
C625 N624 1.351 . S
C625 C626 1.434 . S
C626 C617 1.429 1_554 S
C626 N623 1.350 . S
C626 C625 1.434 . S
C627 C628 1.369 . S
C627 C629 1.419 . S
C627 H631 0.930 . S
C628 C627 1.369 . S
C628 C637 1.429 . S
C629 C627 1.419 . S
C629 C630 1.363 . S
C629 H632 0.929 . S
C630 C629 1.363 . S
C630 C636 1.428 . S
H631 C627 0.930 . S
H632 C629 0.929 . S
S633 N634 1.613 . S
S633 N635 1.610 . S
N634 S633 1.613 . S
N634 C637 1.350 . S
N635 S633 1.610 . S
N635 C636 1.351 . S
C636 C630 1.428 . S
C636 N635 1.351 . S
C636 C637 1.434 . S
C637 C628 1.429 . S
C637 N634 1.350 . S
C637 C636 1.434 . S
C638 C639 1.369 1_554 S
C638 C640 1.419 . S
C638 H642 0.923 1_554 S
C639 C638 1.369 1_556 S
C639 C648 1.429 1_556 S
C640 C638 1.419 . S
C640 C641 1.363 . S
C640 H643 0.929 . S
C641 C640 1.363 . S
C641 C647 1.428 . S
H642 C638 0.923 1_556 S
H643 C640 0.929 . S
S644 N645 1.618 . S
S644 N646 1.610 . S
N645 S644 1.618 . S
N645 C648 1.352 . S
N646 S644 1.610 . S
N646 C647 1.351 . S
C647 C641 1.428 . S
C647 N646 1.351 . S
C647 C648 1.434 . S
C648 C639 1.429 1_554 S
C648 N645 1.352 . S
C648 C647 1.434 . S
C649 C650 1.369 . S
C649 C651 1.419 . S
C649 H653 0.930 . S
C650 C649 1.369 . S
C650 C659 1.429 . S
C651 C649 1.419 . S
C651 C652 1.363 . S
C651 H654 0.929 . S
C652 C651 1.363 . S
C652 C658 1.428 . S
H653 C649 0.930 . S
H654 C651 0.929 . S
S655 N656 1.613 . S
S655 N657 1.610 . S
N656 S655 1.613 . S
N656 C659 1.350 . S
N657 S655 1.610 . S
N657 C658 1.351 . S
C658 C652 1.428 . S
C658 N657 1.351 . S
C658 C659 1.434 . S
C659 C650 1.429 . S
C659 N656 1.350 . S
C659 C658 1.434 . S
C660 C661 1.369 . S
C660 C662 1.419 . S
C660 H664 0.930 . S
C661 C660 1.369 . S
C661 C670 1.429 . S
C662 C660 1.419 . S
C662 C663 1.363 1_556 S
C662 H665 0.929 . S
C663 C662 1.363 1_554 S
C663 C669 1.428 1_554 S
H664 C660 0.930 . S
H665 C662 0.929 . S
S666 N667 1.613 . S
S666 N668 1.610 1_556 S
N667 S666 1.613 . S
N667 C670 1.350 . S
N668 S666 1.610 1_554 S
N668 C669 1.351 1_554 S
C669 C663 1.428 1_556 S
C669 N668 1.351 1_556 S
C669 C670 1.434 . S
C670 C661 1.429 . S
C670 N667 1.350 . S
C670 C669 1.434 . S
C671 C672 1.369 . S
C671 C673 1.419 . S
C671 H675 0.930 . S
C672 C671 1.369 . S
C672 C681 1.429 . S
C673 C671 1.419 . S
C673 C674 1.363 . S
C673 H676 0.929 . S
C674 C673 1.363 . S
C674 C680 1.428 . S
H675 C671 0.930 . S
H676 C673 0.929 . S
S677 N678 1.613 . S
S677 N679 1.610 . S
N678 S677 1.613 . S
N678 C681 1.350 . S
N679 S677 1.610 . S
N679 C680 1.351 . S
C680 C674 1.428 . S
C680 N679 1.351 . S
C680 C681 1.434 . S
C681 C672 1.429 . S
C681 N678 1.350 . S
C681 C680 1.434 . S
C682 C683 1.369 . S
C682 C684 1.419 1_556 S
C682 H686 0.930 . S
C683 C682 1.369 . S
C683 C692 1.429 . S
C684 C682 1.419 1_554 S
C684 C685 1.363 . S
C684 H687 0.929 . S
C685 C684 1.363 . S
C685 C691 1.428 1_554 S
H686 C682 0.930 . S
H687 C684 0.929 . S
S688 N689 1.613 . S
S688 N690 1.610 . S
N689 S688 1.613 . S
N689 C692 1.350 . S
N690 S688 1.610 . S
N690 C691 1.351 . S
C691 C685 1.428 1_556 S
C691 N690 1.351 . S
C691 C692 1.434 . S
C692 C683 1.429 . S
C692 N689 1.350 . S
C692 C691 1.434 . S
C693 C694 1.369 . S
C693 C695 1.419 . S
C693 H697 0.930 . S
C694 C693 1.369 . S
C694 C703 1.429 . S
C695 C693 1.419 . S
C695 C696 1.363 . S
C695 H698 0.929 . S
C696 C695 1.363 . S
C696 C702 1.428 . S
H697 C693 0.930 . S
H698 C695 0.929 . S
S699 N700 1.613 . S
S699 N701 1.610 . S
N700 S699 1.613 . S
N700 C703 1.350 . S
N701 S699 1.610 . S
N701 C702 1.351 . S
C702 C696 1.428 . S
C702 N701 1.351 . S
C702 C703 1.434 . S
C703 C694 1.429 . S
C703 N700 1.350 . S
C703 C702 1.434 . S
C704 C705 1.369 . S
C704 C706 1.419 . S
C704 H708 0.930 . S
C705 C704 1.369 . S
C705 C714 1.429 . S
C706 C704 1.419 . S
C706 C707 1.363 . S
C706 H709 0.929 . S
C707 C706 1.363 . S
C707 C713 1.428 . S
H708 C704 0.930 . S
H709 C706 0.929 . S
S710 N711 1.613 . S
S710 N712 1.610 1_565 S
N711 S710 1.613 . S
N711 C714 1.350 1_565 S
N712 S710 1.610 1_545 S
N712 C713 1.351 . S
C713 C707 1.428 . S
C713 N712 1.351 . S
C713 C714 1.434 . S
C714 C705 1.429 . S
C714 N711 1.350 1_545 S
C714 C713 1.434 . S
C715 C716 1.369 . S
C715 C717 1.419 . S
C715 H719 0.930 . S
C716 C715 1.369 . S
C716 C725 1.429 . S
C717 C715 1.419 . S
C717 C718 1.363 . S
C717 H720 0.929 . S
C718 C717 1.363 . S
C718 C724 1.428 . S
H719 C715 0.930 . S
H720 C717 0.929 . S
S721 N722 1.613 . S
S721 N723 1.610 . S
N722 S721 1.613 . S
N722 C725 1.350 . S
N723 S721 1.610 . S
N723 C724 1.351 . S
C724 C718 1.428 . S
C724 N723 1.351 . S
C724 C725 1.434 . S
C725 C716 1.429 . S
C725 N722 1.350 . S
C725 C724 1.434 . S
C726 C727 1.369 . S
C726 C728 1.419 . S
C726 H730 0.930 . S
C727 C726 1.369 . S
C727 C736 1.429 . S
C728 C726 1.419 . S
C728 C729 1.363 . S
C728 H731 0.929 . S
C729 C728 1.363 . S
C729 C735 1.428 . S
H730 C726 0.930 . S
H731 C728 0.929 . S
S732 N733 1.613 . S
S732 N734 1.610 1_655 S
N733 S732 1.613 . S
N733 C736 1.350 1_655 S
N734 S732 1.610 1_455 S
N734 C735 1.351 . S
C735 C729 1.428 . S
C735 N734 1.351 . S
C735 C736 1.434 . S
C736 C727 1.429 . S
C736 N733 1.350 1_455 S
C736 C735 1.434 . S
C737 C738 1.369 . S
C737 C739 1.419 . S
C737 H741 0.930 . S
C738 C737 1.369 . S
C738 C747 1.429 . S
C739 C737 1.419 . S
C739 C740 1.363 . S
C739 H742 0.929 . S
C740 C739 1.363 . S
C740 C746 1.428 . S
H741 C737 0.930 . S
H742 C739 0.929 . S
S743 N744 1.613 . S
S743 N745 1.610 . S
N744 S743 1.613 . S
N744 C747 1.350 . S
N745 S743 1.610 . S
N745 C746 1.351 . S
C746 C740 1.428 . S
C746 N745 1.351 . S
C746 C747 1.434 . S
C747 C738 1.429 . S
C747 N744 1.350 . S
C747 C746 1.434 . S
C748 C749 1.369 . S
C748 C750 1.419 . S
C748 H752 0.930 . S
C749 C748 1.369 . S
C749 C758 1.429 . S
C750 C748 1.419 . S
C750 C751 1.363 . S
C750 H753 0.929 . S
C751 C750 1.363 . S
C751 C757 1.428 . S
H752 C748 0.930 . S
H753 C750 0.929 . S
S754 N755 1.613 . S
S754 N756 1.610 . S
N755 S754 1.613 . S
N755 C758 1.350 . S
N756 S754 1.610 . S
N756 C757 1.351 . S
C757 C751 1.428 . S
C757 N756 1.351 . S
C757 C758 1.434 . S
C758 C749 1.429 . S
C758 N755 1.350 . S
C758 C757 1.434 . S
C759 C760 1.369 . S
C759 C761 1.419 . S
C759 H763 0.930 . S
C760 C759 1.369 . S
C760 C769 1.429 . S
C761 C759 1.419 . S
C761 C762 1.363 . S
C761 H764 0.929 . S
C762 C761 1.363 . S
C762 C768 1.428 . S
H763 C759 0.930 . S
H764 C761 0.929 . S
S765 N766 1.613 . S
S765 N767 1.610 . S
N766 S765 1.613 . S
N766 C769 1.350 . S
N767 S765 1.610 . S
N767 C768 1.351 . S
C768 C762 1.428 . S
C768 N767 1.351 . S
C768 C769 1.434 . S
C769 C760 1.429 . S
C769 N766 1.350 . S
C769 C768 1.434 . S
C770 C771 1.369 . S
C770 C772 1.419 . S
C770 H774 0.930 . S
C771 C770 1.369 . S
C771 C780 1.429 . S
C772 C770 1.419 . S
C772 C773 1.363 . S
C772 H775 0.929 . S
C773 C772 1.363 . S
C773 C779 1.428 . S
H774 C770 0.930 . S
H775 C772 0.929 . S
S776 N777 1.613 . S
S776 N778 1.610 . S
N777 S776 1.613 . S
N777 C780 1.350 . S
N778 S776 1.610 . S
N778 C779 1.351 . S
C779 C773 1.428 . S
C779 N778 1.351 . S
C779 C780 1.434 . S
C780 C771 1.429 . S
C780 N777 1.350 . S
C780 C779 1.434 . S
C781 C782 1.369 . S
C781 C783 1.419 . S
C781 H785 0.930 . S
C782 C781 1.369 . S
C782 C791 1.429 . S
C783 C781 1.419 . S
C783 C784 1.363 . S
C783 H786 0.929 . S
C784 C783 1.363 . S
C784 C790 1.428 . S
H785 C781 0.930 . S
H786 C783 0.929 . S
S787 N788 1.613 . S
S787 N789 1.610 . S
N788 S787 1.613 . S
N788 C791 1.350 . S
N789 S787 1.610 . S
N789 C790 1.351 . S
C790 C784 1.428 . S
C790 N789 1.351 . S
C790 C791 1.434 . S
C791 C782 1.429 . S
C791 N788 1.350 . S
C791 C790 1.434 . S
C792 C793 1.369 . S
C792 C794 1.419 1_554 S
C792 H796 0.930 . S
C793 C792 1.369 . S
C793 C802 1.429 . S
C794 C792 1.419 1_556 S
C794 C795 1.363 . S
C794 H797 0.929 . S
C795 C794 1.363 . S
C795 C801 1.428 . S
H796 C792 0.930 . S
H797 C794 0.929 . S
S798 N799 1.613 . S
S798 N800 1.610 1_554 S
N799 S798 1.613 . S
N799 C802 1.350 . S
N800 S798 1.610 1_556 S
N800 C801 1.351 . S
C801 C795 1.428 . S
C801 N800 1.351 . S
C801 C802 1.434 1_556 S
C802 C793 1.429 . S
C802 N799 1.350 . S
C802 C801 1.434 1_554 S
C803 C804 1.369 . S
C803 C805 1.419 . S
C803 H807 0.930 . S
C804 C803 1.369 . S
C804 C813 1.429 . S
C805 C803 1.419 . S
C805 C806 1.363 . S
C805 H808 0.929 . S
C806 C805 1.363 . S
C806 C812 1.428 . S
H807 C803 0.930 . S
H808 C805 0.929 . S
S809 N810 1.613 . S
S809 N811 1.610 . S
N810 S809 1.613 . S
N810 C813 1.350 . S
N811 S809 1.610 . S
N811 C812 1.351 . S
C812 C806 1.428 . S
C812 N811 1.351 . S
C812 C813 1.434 . S
C813 C804 1.429 . S
C813 N810 1.350 . S
C813 C812 1.434 . S
C814 C815 1.369 1_455 S
C814 C816 1.419 1_554 S
C814 H818 0.930 . S
C815 C814 1.369 1_655 S
C815 C824 1.429 . S
C816 C814 1.419 1_556 S
C816 C817 1.363 1_455 S
C816 H819 0.929 . S
C817 C816 1.363 1_655 S
C817 C823 1.428 . S
H818 C814 0.930 . S
H819 C816 0.929 . S
S820 N821 1.613 . S
S820 N822 1.610 1_554 S
N821 S820 1.613 . S
N821 C824 1.350 . S
N822 S820 1.610 1_556 S
N822 C823 1.351 . S
C823 C817 1.428 . S
C823 N822 1.351 . S
C823 C824 1.434 1_556 S
C824 C815 1.429 . S
C824 N821 1.350 . S
C824 C823 1.434 1_554 S
C825 C826 1.369 1_545 S
C825 C827 1.419 . S
C825 H829 0.930 . S
C826 C825 1.369 1_565 S
C826 C835 1.429 . S
C827 C825 1.419 . S
C827 C828 1.363 1_545 S
C827 H830 0.929 . S
C828 C827 1.363 1_565 S
C828 C834 1.428 . S
H829 C825 0.930 . S
H830 C827 0.929 . S
S831 N832 1.613 . S
S831 N833 1.610 . S
N832 S831 1.613 . S
N832 C835 1.350 . S
N833 S831 1.610 . S
N833 C834 1.351 . S
C834 C828 1.428 . S
C834 N833 1.351 . S
C834 C835 1.434 . S
C835 C826 1.429 . S
C835 N832 1.350 . S
C835 C834 1.434 . S
C836 C837 1.369 . S
C836 C838 1.419 1_554 S
C836 H840 0.930 . S
C837 C836 1.369 . S
C837 C846 1.429 . S
C838 C836 1.419 1_556 S
C838 C839 1.363 . S
C838 H841 0.929 . S
C839 C838 1.363 . S
C839 C845 1.432 . S
H840 C836 0.930 . S
H841 C838 0.929 . S
S842 N843 1.613 . S
S842 N844 1.610 . S
N843 S842 1.613 . S
N843 C846 1.350 . S
N844 S842 1.610 . S
N844 C845 1.351 1_554 S
C845 C839 1.432 . S
C845 N844 1.351 1_556 S
C845 C846 1.431 1_556 S
C846 C837 1.429 . S
C846 N843 1.350 . S
C846 C845 1.431 1_554 S
C847 C848 1.369 . S
C847 C849 1.419 . S
C847 H851 0.930 . S
C848 C847 1.369 . S
C848 C857 1.429 . S
C849 C847 1.419 . S
C849 C850 1.363 . S
C849 H852 0.929 . S
C850 C849 1.363 . S
C850 C856 1.428 . S
H851 C847 0.930 . S
H852 C849 0.929 . S
S853 N854 1.613 . S
S853 N855 1.610 . S
N854 S853 1.613 . S
N854 C857 1.350 . S
N855 S853 1.610 . S
N855 C856 1.351 . S
C856 C850 1.428 . S
C856 N855 1.351 . S
C856 C857 1.434 . S
C857 C848 1.429 . S
C857 N854 1.350 . S
C857 C856 1.434 . S
C858 C859 1.369 . S
C858 C860 1.419 . S
C858 H862 0.930 . S
C859 C858 1.369 . S
C859 C868 1.429 1_456 S
C860 C858 1.419 . S
C860 C861 1.363 1_556 S
C860 H863 0.929 . S
C861 C860 1.363 1_554 S
C861 C867 1.428 1_455 S
H862 C858 0.930 . S
H863 C860 0.929 . S
S864 N865 1.613 . S
S864 N866 1.610 . S
N865 S864 1.613 . S
N865 C868 1.350 . S
N866 S864 1.610 . S
N866 C867 1.351 . S
C867 C861 1.428 1_655 S
C867 N866 1.351 . S
C867 C868 1.434 . S
C868 C859 1.429 1_654 S
C868 N865 1.350 . S
C868 C867 1.434 . S
C869 C870 1.369 . S
C869 C871 1.419 . S
C869 H873 0.930 . S
C870 C869 1.369 . S
C870 C879 1.429 . S
C871 C869 1.419 . S
C871 C872 1.363 . S
C871 H874 0.929 . S
C872 C871 1.363 . S
C872 C878 1.428 . S
H873 C869 0.930 . S
H874 C871 0.929 . S
S875 N876 1.613 . S
S875 N877 1.610 . S
N876 S875 1.613 . S
N876 C879 1.349 1_565 S
N877 S875 1.610 . S
N877 C878 1.351 1_565 S
C878 C872 1.428 . S
C878 N877 1.351 1_545 S
C878 C879 1.434 . S
C879 C870 1.429 . S
C879 N876 1.349 1_545 S
C879 C878 1.434 . S
C353 C7 1.221 . S
C355 C202 1.243 . S
C364 C29 1.222 . S
C366 C224 1.245 . S
C375 C246 1.236 . S
C377 C51 1.229 . S
C386 C184 1.246 . S
C388 C73 1.227 . S
C397 C95 1.232 . S
C399 C338 1.242 . S
C408 C272 1.237 . S
C410 C116 1.228 . S
C419 C294 1.247 . S
C421 C138 1.225 . S
C430 C316 1.237 . S
C432 C160 1.228 . S
C441 C30 1.240 . S
C443 C185 1.225 . S
C452 C203 1.225 . S
C454 C52 1.239 . S
C463 C74 1.237 . S
C465 C225 1.231 . S
C474 C8 1.238 . S
C476 C247 1.227 . S
C485 C158 1.242 . S
C487 C273 1.230 . S
C496 C96 1.238 . S
C498 C295 1.232 . S
C507 C317 1.230 . S
C509 C114 1.238 . S
C518 C136 1.244 . S
C520 C339 1.223 . S
C529 C4 1.526 . S
C531 C337 1.559 . S
C540 C26 1.521 . S
C542 C271 1.562 . S
C551 C48 1.519 . S
C553 C293 1.561 . S
C562 C315 1.558 . S
C564 C70 1.522 . S
C573 C92 1.523 . S
C575 C204 1.558 . S
C584 C118 1.523 . S
C586 C226 1.560 . S
C595 C140 1.517 . S
C597 C248 1.563 . S
C606 C183 1.560 . S
C608 C162 1.520 . S
C617 C180 1.527 . S
C619 C159 1.558 . S
C628 C206 1.524 . S
C630 C97 1.561 . S
C639 C228 1.527 . S
C641 C115 1.558 . S
C650 C250 1.517 . S
C652 C137 1.562 . S
C661 C31 1.560 . S
C663 C268 1.519 . S
C672 C53 1.558 . S
C674 C290 1.525 . S
C683 C75 1.556 . S
C685 C312 1.526 . S
C694 C334 1.527 . S
C696 C9 1.557 . S
C705 C161 1.438 . S
C707 C6 1.439 . S
C716 C94 1.444 . S
C718 C28 1.435 . S
C727 C50 1.440 . S
C729 C117 1.438 . S
C738 C72 1.448 . S
C740 C139 1.436 . S
C749 C335 1.434 . S
C751 C181 1.446 . S
C760 C207 1.437 . S
C762 C269 1.439 . S
C771 C291 1.434 . S
C773 C229 1.447 . S
C782 C251 1.448 . S
C784 C313 1.436 . S
C793 C5 1.449 . S
C795 C93 1.452 . S
C804 C119 1.459 . S
C806 C27 1.457 . S
C815 C49 1.449 . S
C817 C141 1.452 . S
C826 C163 1.448 . S
C828 C71 1.449 . S
C837 C270 1.453 . S
C839 C182 1.456 . S
C848 C292 1.449 . S
C850 C205 1.453 . S
C859 C227 1.458 . S
C861 C314 1.454 . S
C870 C249 1.450 . S
C872 C336 1.454 . S
