# Generated by pormake.
# Topology lcy, (6)-cn, num edge types: 1
# Building blocks:
#     Node 0, Type 0, BuildingBlock: IZENUY_clean_sbu_0, # of connection points: 6
#     Node 1, Type 0, BuildingBlock: IZENUY_clean_sbu_0, # of connection points: 6
#     Node 2, Type 0, BuildingBlock: IZENUY_clean_sbu_0, # of connection points: 6
#     Node 3, Type 0, BuildingBlock: IZENUY_clean_sbu_0, # of connection points: 6
#     Edge 4, Type (0, 0), BuildingBlock: TEMPAE_clean_linker_10, # of connection points: 2
#     Edge 5, Type (0, 0), BuildingBlock: TEMPAE_clean_linker_10, # of connection points: 2
#     Edge 6, Type (0, 0), BuildingBlock: TEMPAE_clean_linker_10, # of connection points: 2
#     Edge 7, Type (0, 0), BuildingBlock: TEMPAE_clean_linker_10, # of connection points: 2
#     Edge 8, Type (0, 0), BuildingBlock: TEMPAE_clean_linker_10, # of connection points: 2
#     Edge 9, Type (0, 0), BuildingBlock: TEMPAE_clean_linker_10, # of connection points: 2
#     Edge 10, Type (0, 0), BuildingBlock: TEMPAE_clean_linker_10, # of connection points: 2
#     Edge 11, Type (0, 0), BuildingBlock: TEMPAE_clean_linker_10, # of connection points: 2
#     Edge 12, Type (0, 0), BuildingBlock: TEMPAE_clean_linker_10, # of connection points: 2
#     Edge 13, Type (0, 0), BuildingBlock: TEMPAE_clean_linker_10, # of connection points: 2
#     Edge 14, Type (0, 0), BuildingBlock: TEMPAE_clean_linker_10, # of connection points: 2
#     Edge 15, Type (0, 0), BuildingBlock: TEMPAE_clean_linker_10, # of connection points: 2
# Relax obj value: 0.232
# Max RMSD: 0.227
# Mean RMSD: 0.227
data_MOF--net-lcy--node1-IZENUY_clean_sbu_0--edge1-TEMPAE_clean_linker_10
_symmetry_space_group_name_H-M    P1
_symmetry_Int_Tables_number       1
_symmetry_cell_setting            triclinic
loop_
_symmetry_equiv_pos_as_xyz
'x, y, z'
_cell_length_a     26.009718
_cell_length_b     25.987929
_cell_length_c     26.020628
_cell_angle_alpha  89.996606
_cell_angle_beta   90.037708
_cell_angle_gamma 90.012962
loop_
_atom_site_label
_atom_site_type_symbol
_atom_site_fract_x
_atom_site_fract_y
_atom_site_fract_z
_atom_type_partial_charge
Fe0 Fe 0.42133 0.37164 0.32567 0.0
Fe1 Fe 0.37036 0.32245 0.41875 0.0
O2 O 0.37272 0.37152 0.37247 0.0
Fe3 Fe 0.32635 0.42052 0.37305 0.0
O4 O 0.30423 0.40209 0.31052 0.0
O5 O 0.38069 0.40251 0.27509 0.0
O6 O 0.39985 0.31084 0.30104 0.0
C7 C 0.40155 0.27018 0.32711 0.0
C8 C 0.41892 0.47303 0.34513 0.0
O9 O 0.3985 0.27228 0.37593 0.0
C10 C 0.34107 0.41277 0.47461 0.0
O11 O 0.47043 0.3408 0.36807 0.0
O12 O 0.43215 0.34066 0.44314 0.0
O13 O 0.37002 0.4707 0.34636 0.0
O14 O 0.44505 0.43249 0.34815 0.0
C15 C 0.2693 0.33042 0.40037 0.0
O16 O 0.34187 0.36395 0.46991 0.0
O17 O 0.34669 0.44082 0.43569 0.0
C18 C 0.47253 0.33717 0.4169 0.0
O19 O 0.30831 0.3022 0.39626 0.0
O20 O 0.27425 0.37918 0.3998 0.0
C21 C 0.33194 0.40592 0.27117 0.0
Fe22 Fe 0.8264 0.07388 0.62275 0.0
Fe23 Fe 0.86975 0.17308 0.57889 0.0
O24 O 0.87265 0.12307 0.62413 0.0
Fe25 Fe 0.92157 0.1222 0.67065 0.0
O26 O 0.94515 0.06173 0.64704 0.0
O27 O 0.87022 0.02338 0.64853 0.0
O28 O 0.84654 0.05483 0.55959 0.0
C29 C 0.84084 0.08382 0.52133 0.0
C30 C 0.83242 0.08711 0.7249 0.0
O31 O 0.84113 0.1325 0.52716 0.0
C32 C 0.90164 0.22371 0.67118 0.0
O33 O 0.77407 0.11548 0.59685 0.0
O34 O 0.80776 0.1925 0.60223 0.0
O35 O 0.88117 0.09058 0.72088 0.0
O36 O 0.80448 0.09106 0.68568 0.0
C37 C 0.97204 0.15835 0.57972 0.0
O38 O 0.89804 0.2225 0.62239 0.0
O39 O 0.90037 0.18259 0.69652 0.0
C40 C 0.76888 0.16422 0.59725 0.0
O41 O 0.93142 0.15573 0.55369 0.0
O42 O 0.97036 0.15373 0.62848 0.0
C43 C 0.9191 0.0211 0.64972 0.0
Fe44 Fe 0.07475 0.62258 0.82543 0.0
Fe45 Fe 0.17022 0.57464 0.87291 0.0
O46 O 0.12336 0.62317 0.8723 0.0
Fe47 Fe 0.12522 0.67225 0.91859 0.0
O48 O 0.06356 0.6535 0.94285 0.0
O49 O 0.02541 0.65309 0.86768 0.0
O50 O 0.05155 0.56155 0.84798 0.0
C51 C 0.07809 0.52124 0.84534 0.0
C52 C 0.09393 0.72421 0.82679 0.0
O53 O 0.12697 0.52405 0.84629 0.0
C54 C 0.22637 0.66529 0.9005 0.0
O55 O 0.1156 0.59197 0.77495 0.0
O56 O 0.1921 0.59328 0.81037 0.0
O57 O 0.09675 0.72216 0.87564 0.0
O58 O 0.09572 0.68353 0.80075 0.0
C59 C 0.15535 0.5822 0.97448 0.0
O60 O 0.22195 0.61647 0.89972 0.0
O61 O 0.18707 0.69307 0.89623 0.0
C62 C 0.16439 0.58903 0.77103 0.0
O63 O 0.15013 0.55413 0.93552 0.0
O64 O 0.15403 0.63101 0.96983 0.0
C65 C 0.02318 0.65661 0.9165 0.0
Fe66 Fe 0.57524 0.87164 0.17141 0.0
Fe67 Fe 0.67009 0.92017 0.12339 0.0
O68 O 0.62345 0.87146 0.12418 0.0
Fe69 Fe 0.62515 0.82254 0.07773 0.0
O70 O 0.5633 0.84128 0.05388 0.0
O71 O 0.5257 0.84109 0.1293 0.0
O72 O 0.55157 0.93261 0.14925 0.0
C73 C 0.5779 0.97307 0.15194 0.0
C74 C 0.59462 0.77014 0.16947 0.0
O75 O 0.62679 0.97056 0.15036 0.0
C76 C 0.72639 0.82974 0.0955 0.0
O77 O 0.61631 0.90238 0.22176 0.0
O78 O 0.69242 0.90143 0.18573 0.0
O79 O 0.59703 0.77244 0.12062 0.0
O80 O 0.59673 0.8107 0.19569 0.0
C81 C 0.65488 0.91276 0.02191 0.0
O82 O 0.72182 0.87854 0.0963 0.0
O83 O 0.68718 0.8018 0.0997 0.0
C84 C 0.66508 0.90609 0.22522 0.0
O85 O 0.64953 0.94073 0.06092 0.0
O86 O 0.65361 0.86395 0.02648 0.0
C87 C 0.52312 0.83795 0.08045 0.0
C88 C 0.18256 0.50363 0.02204 0.0
C89 C 0.17711 0.55746 0.02104 0.0
C90 C 0.2103 0.479 0.06094 0.0
C91 C 0.23202 0.50856 0.101 0.0
C92 C 0.22538 0.56272 0.10143 0.0
C93 C 0.19826 0.58666 0.06115 0.0
C94 C 0.21689 0.42124 0.05876 0.0
C95 C 0.24709 0.5953 0.14428 0.0
C96 C 0.25363 0.43524 0.22456 0.0
C97 C 0.30717 0.42762 0.22458 0.0
C98 C 0.22921 0.46272 0.18536 0.0
C99 C 0.25862 0.48191 0.14398 0.0
C100 C 0.3124 0.47302 0.14254 0.0
C101 C 0.3362 0.44626 0.18317 0.0
C102 C 0.17188 0.47177 0.18866 0.0
C103 C 0.34471 0.49198 0.09826 0.0
H104 H 0.1664 0.48051 0.99135 0.0
H105 H 0.19462 0.6282 0.06053 0.0
H106 H 0.25833 0.4112 0.06029 0.0
H107 H 0.19823 0.40313 0.09254 0.0
H108 H 0.20005 0.40424 0.02337 0.0
H109 H 0.23835 0.63683 0.13914 0.0
H110 H 0.23113 0.58246 0.18169 0.0
H111 H 0.28941 0.59045 0.1463 0.0
H112 H 0.23059 0.42099 0.25621 0.0
H113 H 0.37752 0.44088 0.18297 0.0
H114 H 0.15222 0.45299 0.15581 0.0
H115 H 0.16355 0.51358 0.18626 0.0
H116 H 0.15507 0.4566 0.22486 0.0
H117 H 0.33014 0.47556 0.06167 0.0
H118 H 0.38589 0.48146 0.1026 0.0
H119 H 0.34174 0.53444 0.09513 0.0
C120 C 0.74132 0.94613 0.26709 0.0
C121 C 0.69 0.92943 0.27095 0.0
C122 C 0.76493 0.97383 0.30659 0.0
C123 C 0.73731 0.98397 0.35214 0.0
C124 C 0.68591 0.96641 0.35715 0.0
C125 C 0.66257 0.93974 0.31617 0.0
C126 C 0.81951 0.99255 0.29932 0.0
C127 C 0.65576 0.97567 0.40581 0.0
C128 C 0.82137 0.00635 0.46869 0.0
C129 C 0.81916 0.06004 0.47438 0.0
C130 C 0.79375 0.98121 0.42997 0.0
C131 C 0.76384 0.01045 0.39525 0.0
C132 C 0.76247 0.0648 0.39969 0.0
C133 C 0.79011 0.08902 0.43937 0.0
C134 C 0.79616 0.9232 0.42663 0.0
C135 C 0.73156 0.09725 0.36276 0.0
H136 H 0.76309 0.93885 0.23234 0.0
H137 H 0.62293 0.92729 0.31939 0.0
H138 H 0.82147 0.03475 0.3055 0.0
H139 H 0.84512 0.97428 0.32812 0.0
H140 H 0.83465 0.98382 0.26038 0.0
H141 H 0.61626 0.95952 0.40369 0.0
H142 H 0.67603 0.95799 0.43893 0.0
H143 H 0.65304 0.01756 0.41355 0.0
H144 H 0.8437 0.98362 0.49558 0.0
H145 H 0.78761 0.13041 0.44392 0.0
H146 H 0.81365 0.91148 0.38957 0.0
H147 H 0.75677 0.90683 0.42778 0.0
H148 H 0.819 0.90599 0.45837 0.0
H149 H 0.74527 0.09083 0.3229 0.0
H150 H 0.73425 0.13899 0.37163 0.0
H151 H 0.69053 0.08568 0.364 0.0
C152 C 0.24279 0.55986 0.72457 0.0
C153 C 0.18924 0.5674 0.72449 0.0
C154 C 0.26728 0.5325 0.68536 0.0
C155 C 0.23793 0.51331 0.64391 0.0
C156 C 0.18414 0.52212 0.64237 0.0
C157 C 0.16027 0.54879 0.68298 0.0
C158 C 0.32462 0.5235 0.68878 0.0
C159 C 0.15188 0.50318 0.59799 0.0
C160 C 0.31395 0.49144 0.52205 0.0
C161 C 0.31935 0.43761 0.52111 0.0
C162 C 0.28628 0.51614 0.56093 0.0
C163 C 0.26456 0.48663 0.601 0.0
C164 C 0.27115 0.43246 0.60149 0.0
C165 C 0.29821 0.40847 0.56125 0.0
C166 C 0.27973 0.5739 0.55868 0.0
C167 C 0.24944 0.39994 0.64436 0.0
H168 H 0.26578 0.57409 0.75629 0.0
H169 H 0.11895 0.55411 0.6827 0.0
H170 H 0.33299 0.48169 0.68647 0.0
H171 H 0.34428 0.54223 0.65592 0.0
H172 H 0.3414 0.53875 0.72497 0.0
H173 H 0.11071 0.51371 0.60222 0.0
H174 H 0.16651 0.51958 0.56144 0.0
H175 H 0.15484 0.46071 0.59489 0.0
H176 H 0.33009 0.51451 0.49133 0.0
H177 H 0.30181 0.36692 0.56069 0.0
H178 H 0.29833 0.59202 0.5925 0.0
H179 H 0.23829 0.58395 0.56008 0.0
H180 H 0.29663 0.59087 0.52333 0.0
H181 H 0.26536 0.41285 0.68178 0.0
H182 H 0.25822 0.35841 0.63931 0.0
H183 H 0.20711 0.40476 0.64627 0.0
C184 C 0.685 0.99104 0.97558 0.0
C185 C 0.67698 0.93751 0.97553 0.0
C186 C 0.71293 0.01524 0.93658 0.0
C187 C 0.73217 0.98563 0.89535 0.0
C188 C 0.72298 0.93186 0.89391 0.0
C189 C 0.69579 0.90829 0.93432 0.0
C190 C 0.72234 0.07256 0.93987 0.0
C191 C 0.74199 0.89932 0.8498 0.0
C192 C 0.75403 0.06055 0.77281 0.0
C193 C 0.80782 0.06572 0.77166 0.0
C194 C 0.72934 0.03344 0.81208 0.0
C195 C 0.75886 0.012 0.8523 0.0
C196 C 0.81302 0.01839 0.85259 0.0
C197 C 0.837 0.04496 0.81198 0.0
C198 C 0.67158 0.02716 0.81006 0.0
C199 C 0.84554 0.99692 0.89561 0.0
H200 H 0.67074 0.01421 0.00714 0.0
H201 H 0.69014 0.86697 0.93408 0.0
H202 H 0.76416 0.08067 0.9375 0.0
H203 H 0.70371 0.09231 0.90699 0.0
H204 H 0.70726 0.0895 0.97605 0.0
H205 H 0.73144 0.85813 0.85426 0.0
H206 H 0.72565 0.91375 0.81312 0.0
H207 H 0.78442 0.90227 0.84677 0.0
H208 H 0.73093 0.07652 0.742 0.0
H209 H 0.87852 0.04842 0.81125 0.0
H210 H 0.6537 0.04605 0.84382 0.0
H211 H 0.66132 0.98574 0.81175 0.0
H212 H 0.65457 0.04395 0.77466 0.0
H213 H 0.83281 0.01324 0.9329 0.0
H214 H 0.88706 0.0055 0.89038 0.0
H215 H 0.84055 0.9546 0.89796 0.0
C216 C 0.06209 0.19423 0.58062 0.0
C217 C 0.01819 0.17898 0.55327 0.0
C218 C 0.10283 0.21965 0.55561 0.0
C219 C 0.09906 0.23061 0.50234 0.0
C220 C 0.05522 0.21469 0.47455 0.0
C221 C 0.01581 0.18856 0.5001 0.0
C222 C 0.14967 0.23518 0.58618 0.0
C223 C 0.04942 0.22608 0.41785 0.0
C224 C 0.18329 0.33528 0.44406 0.0
C225 C 0.222 0.30593 0.42066 0.0
C226 C 0.1429 0.31134 0.47091 0.0
C227 C 0.14162 0.25694 0.47475 0.0
C228 C 0.17986 0.2272 0.45018 0.0
C229 C 0.21912 0.25198 0.423 0.0
C230 C 0.10207 0.34422 0.4958 0.0
C231 C 0.18004 0.16914 0.45357 0.0
H232 H 0.06421 0.18725 0.62163 0.0
H233 H 0.98222 0.17693 0.47833 0.0
H234 H 0.18468 0.21807 0.56881 0.0
H235 H 0.1544 0.27759 0.58502 0.0
H236 H 0.14721 0.22282 0.62697 0.0
H237 H 0.01204 0.2125 0.40223 0.0
H238 H 0.05254 0.26812 0.41107 0.0
H239 H 0.0808 0.20733 0.39593 0.0
H240 H 0.18538 0.37691 0.44284 0.0
H241 H 0.24873 0.22885 0.40497 0.0
H242 H 0.10218 0.33797 0.53797 0.0
H243 H 0.06351 0.3329 0.48143 0.0
H244 H 0.10788 0.38589 0.4882 0.0
H245 H 0.18089 0.15698 0.49445 0.0
H246 H 0.21349 0.15175 0.43353 0.0
H247 H 0.14432 0.15335 0.43642 0.0
C248 C 0.05621 0.81336 0.82761 0.0
C249 C 0.07543 0.77115 0.80011 0.0
C250 C 0.03122 0.85403 0.80207 0.0
C251 C 0.02498 0.85205 0.74796 0.0
C252 C 0.04564 0.81033 0.71996 0.0
C253 C 0.07104 0.77081 0.74624 0.0
C254 C 0.01051 0.89855 0.83304 0.0
C255 C 0.03953 0.80657 0.66232 0.0
C256 C 0.91826 0.93198 0.68737 0.0
C257 C 0.94587 0.97433 0.66855 0.0
C258 C 0.94355 0.89153 0.71291 0.0
C259 C 0.99753 0.89386 0.7202 0.0
C260 C 0.02569 0.93572 0.70001 0.0
C261 C -0.00034 0.97503 0.67398 0.0
C262 C 0.91242 0.84684 0.73304 0.0
C263 C 0.0832 0.93983 0.70725 0.0
H264 H 0.05918 0.81388 0.86916 0.0
H265 H 0.08594 0.73854 0.72447 0.0
H266 H 0.0259 0.93538 0.81791 0.0
H267 H 0.96804 0.90014 0.8294 0.0
H268 H 0.02053 0.89548 0.87444 0.0
H269 H 0.05785 0.77147 0.64627 0.0
H270 H 0.99808 0.80609 0.65218 0.0
H271 H 0.05675 0.84073 0.64345 0.0
H272 H 0.87676 0.93116 0.68361 0.0
H273 H 0.02154 0.00743 0.65949 0.0
H274 H 0.91536 0.8452 0.77555 0.0
H275 H 0.92798 0.8101 0.71787 0.0
H276 H 0.87116 0.84971 0.72234 0.0
H277 H 0.09253 0.94027 0.74887 0.0
H278 H 0.09939 0.97509 0.68933 0.0
H279 H 0.1026 0.90583 0.69033 0.0
C280 C 0.27478 0.74412 0.92558 0.0
C281 C 0.27334 0.69023 0.9211 0.0
C282 C 0.31386 0.76892 0.95302 0.0
C283 C 0.35351 0.73936 0.97552 0.0
C284 C 0.35368 0.68513 0.96951 0.0
C285 C 0.31335 0.66111 0.94258 0.0
C286 C 0.31205 0.82676 0.95886 0.0
C287 C 0.39607 0.65251 0.99207 0.0
C288 C 0.47786 0.81047 0.00066 0.0
C289 C 0.47668 0.81763 0.05423 0.0
C290 C 0.43856 0.78426 0.97499 0.0
C291 C 0.39598 0.76583 0.00315 0.0
C292 C 0.3933 0.77446 0.05691 0.0
C293 C 0.43396 0.79999 0.08197 0.0
C294 C 0.44318 0.7754 0.91775 0.0
C295 C 0.34776 0.75627 0.08792 0.0
H296 H 0.24418 0.76714 0.90909 0.0
H297 H 0.31242 0.61951 0.93966 0.0
H298 H 0.31201 0.83718 0.00022 0.0
H299 H 0.34678 0.84435 0.94147 0.0
H300 H 0.27753 0.84393 0.94046 0.0
H301 H 0.3913 0.61104 0.98286 0.0
H302 H 0.4339 0.66559 0.97731 0.0
H303 H 0.39684 0.65701 0.03446 0.0
H304 H 0.51052 0.82401 0.97861 0.0
H305 H 0.43279 0.8051 0.12329 0.0
H306 H 0.4107 0.79407 0.89738 0.0
H307 H 0.44111 0.7336 0.90929 0.0
H308 H 0.47972 0.79073 0.90182 0.0
H309 H 0.3118 0.77285 0.07202 0.0
H310 H 0.35087 0.76716 0.12909 0.0
H311 H 0.34437 0.7138 0.08526 0.0
C312 C 0.4386 0.18073 0.32837 0.0
C313 C 0.42053 0.22332 0.30063 0.0
C314 C 0.464 0.14005 0.30328 0.0
C315 C 0.47192 0.14244 0.24941 0.0
C316 C 0.45252 0.18459 0.22115 0.0
C317 C 0.4266 0.22407 0.24694 0.0
C318 C 0.48327 0.09504 0.33449 0.0
C319 C 0.46046 0.18881 0.16376 0.0
C320 C 0.57911 0.06163 0.19092 0.0
C321 C 0.55139 0.01994 0.17081 0.0
C322 C 0.55375 0.1021 0.21633 0.0
C323 C 0.49956 0.10047 0.22211 0.0
C324 C 0.47135 0.05926 0.20066 0.0
C325 C 0.49748 0.01993 0.17484 0.0
C326 C 0.58497 0.14608 0.23788 0.0
C327 C 0.41361 0.0559 0.20625 0.0
H328 H 0.43433 0.17986 0.36979 0.0
H329 H 0.41264 0.25663 0.22494 0.0
H330 H 0.4679 0.05852 0.31858 0.0
H331 H 0.5258 0.09297 0.33213 0.0
H332 H 0.47207 0.09788 0.37558 0.0
H333 H 0.44322 0.22437 0.14749 0.0
H334 H 0.50219 0.18868 0.15493 0.0
H335 H 0.44324 0.15513 0.14403 0.0
H336 H 0.6207 0.06188 0.18828 0.0
H337 H 0.47554 0.98804 0.15932 0.0
H338 H 0.58081 0.14734 0.28029 0.0
H339 H 0.57044 0.18321 0.22262 0.0
H340 H 0.62647 0.14265 0.22842 0.0
H341 H 0.40313 0.05541 0.24759 0.0
H342 H 0.39744 0.02095 0.18771 0.0
H343 H 0.39515 0.09024 0.18894 0.0
C344 C 0.68338 0.15947 0.55245 0.0
C345 C 0.72175 0.18875 0.57658 0.0
C346 C 0.64324 0.18348 0.52529 0.0
C347 C 0.64187 0.2379 0.5218 0.0
C348 C 0.67984 0.26756 0.54697 0.0
C349 C 0.71882 0.24271 0.5745 0.0
C350 C 0.60271 0.15066 0.49975 0.0
C351 C 0.67997 0.32565 0.5439 0.0
C352 C 0.56256 0.30119 0.41602 0.0
C353 C 0.51862 0.31629 0.44333 0.0
C354 C 0.60327 0.27564 0.441 0.0
C355 C 0.59937 0.26432 0.49418 0.0
C356 C 0.55545 0.27998 0.52191 0.0
C357 C 0.51613 0.30633 0.49642 0.0
C358 C 0.65021 0.26041 0.41052 0.0
C359 C 0.54946 0.2681 0.57848 0.0
H360 H 0.68554 0.11783 0.55342 0.0
H361 H 0.7482 0.26579 0.59302 0.0
H362 H 0.56397 0.16192 0.51361 0.0
H363 H 0.60337 0.15701 0.4576 0.0
H364 H 0.60842 0.10897 0.50732 0.0
H365 H 0.71339 0.34297 0.56412 0.0
H366 H 0.68085 0.33804 0.50309 0.0
H367 H 0.64422 0.34128 0.56106 0.0
H368 H 0.56477 0.30848 0.37506 0.0
H369 H 0.4825 0.31777 0.51817 0.0
H370 H 0.65494 0.218 0.4113 0.0
H371 H 0.68516 0.27736 0.42822 0.0
H372 H 0.64789 0.27314 0.36983 0.0
H373 H 0.55274 0.22601 0.58494 0.0
H374 H 0.51195 0.28135 0.59401 0.0
H375 H 0.58066 0.28682 0.60074 0.0
C376 C 0.07932 0.43287 0.80611 0.0
C377 C 0.05164 0.47401 0.82731 0.0
C378 C 0.05375 0.39219 0.78121 0.0
C379 C -0.00061 0.39302 0.77716 0.0
C380 C 0.97127 0.43354 0.79992 0.0
C381 C 0.99764 0.47317 0.8251 0.0
C382 C 0.08493 0.34898 0.75818 0.0
C383 C 0.91333 0.43597 0.79626 0.0
C384 C 0.93696 0.31384 0.67096 0.0
C385 C 0.92053 0.2703 0.69823 0.0
C386 C 0.96221 0.3545 0.69624 0.0
C387 C 0.97161 0.35116 0.74982 0.0
C388 C 0.95382 0.30805 0.77769 0.0
C389 C 0.92806 0.26854 0.75172 0.0
C390 C 0.97978 0.40051 0.6655 0.0
C391 C 0.96338 0.30284 0.83475 0.0
H392 H 0.12097 0.4333 0.80736 0.0
H393 H 0.97578 0.50463 0.84154 0.0
H394 H 0.07132 0.31141 0.77322 0.0
H395 H 0.07962 0.34833 0.71588 0.0
H396 H 0.12664 0.35284 0.76661 0.0
H397 H 0.89719 0.47013 0.81621 0.0
H398 H 0.90149 0.43735 0.7553 0.0
H399 H 0.89602 0.40086 0.81321 0.0
H400 H 0.93152 0.3155 0.62969 0.0
H401 H 0.91539 0.23522 0.77335 0.0
H402 H 0.02232 0.40338 0.66684 0.0
H403 H 0.96415 0.43638 0.68254 0.0
H404 H 0.96754 0.39828 0.62464 0.0
H405 H 0.00534 0.30326 0.84248 0.0
H406 H 0.94696 0.26679 0.85079 0.0
H407 H 0.94639 0.33596 0.85557 0.0
C408 C 0.97859 0.6853 0.99621 0.0
C409 C 0.9769 0.6771 0.9428 0.0
C410 C 0.93931 0.71161 0.02177 0.0
C411 C 0.89626 0.72911 0.99368 0.0
C412 C 0.89311 0.71946 0.94012 0.0
C413 C 0.93373 0.69384 0.91515 0.0
C414 C 0.94444 0.72155 0.0788 0.0
C415 C 0.84708 0.73664 0.90921 0.0
C416 C 0.77544 0.75097 0.07166 0.0
C417 C 0.77349 0.80491 0.07516 0.0
C418 C 0.81462 0.72608 0.0445 0.0
C419 C 0.8538 0.75563 0.02121 0.0
C420 C 0.85346 0.80996 0.02624 0.0
C421 C 0.81307 0.83405 0.05295 0.0
C422 C 0.81336 0.66812 0.03975 0.0
C423 C 0.89533 0.84261 0.00278 0.0
H424 H 0.0116 0.6725 0.0182 0.0
H425 H 0.93215 0.68794 0.87395 0.0
H426 H 0.94207 0.76348 0.08652 0.0
H427 H 0.91234 0.70295 0.09979 0.0
H428 H 0.98128 0.70686 0.09467 0.0
H429 H 0.8499 0.72509 0.8682 0.0
H430 H 0.81145 0.71994 0.92569 0.0
H431 H 0.84327 0.77911 0.91119 0.0
H432 H 0.74517 0.72796 0.08874 0.0
H433 H 0.81174 0.87568 0.0551 0.0
H434 H 0.84846 0.65124 0.05713 0.0
H435 H 0.81298 0.65693 -0.00141 0.0
H436 H 0.77923 0.65092 0.0588 0.0
H437 H 0.93342 0.83018 0.01747 0.0
H438 H 0.89023 0.88418 0.0113 0.0
H439 H 0.89576 0.83738 0.96048 0.0
C440 C 0.55678 0.68106 0.1682 0.0
C441 C 0.57592 0.72318 0.19594 0.0
C442 C 0.53157 0.64038 0.19346 0.0
C443 C 0.525 0.64226 0.24752 0.0
C444 C 0.54555 0.68389 0.27577 0.0
C445 C 0.5712 0.72342 0.24977 0.0
C446 C 0.51101 0.59594 0.16224 0.0
C447 C 0.53909 0.68752 0.33338 0.0
C448 C 0.41807 0.56208 0.3073 0.0
C449 C 0.44566 0.51978 0.32625 0.0
C450 C 0.44343 0.6026 0.28194 0.0
C451 C 0.49744 0.60036 0.27498 0.0
C452 C 0.52556 0.55851 0.29525 0.0
C453 C 0.49947 0.51915 0.32109 0.0
C454 C 0.41235 0.64728 0.2617 0.0
C455 C 0.58311 0.55449 0.28834 0.0
H456 H 0.56001 0.68061 0.12668 0.0
H457 H 0.58602 0.75562 0.27173 0.0
H458 H 0.52632 0.55907 0.17737 0.0
H459 H 0.46852 0.59432 0.16561 0.0
H460 H 0.52123 0.59911 0.12092 0.0
H461 H 0.55726 0.72263 0.34963 0.0
H462 H 0.49758 0.6879 0.34322 0.0
H463 H 0.55625 0.65336 0.35229 0.0
H464 H 0.37656 0.56284 0.31086 0.0
H465 H 0.52133 0.48678 0.3357 0.0
H466 H 0.41556 0.64906 0.21922 0.0
H467 H 0.42775 0.684 0.27711 0.0
H468 H 0.37103 0.64428 0.27207 0.0
H469 H 0.59265 0.55427 0.24678 0.0
H470 H 0.59924 0.51916 0.30619 0.0
H471 H 0.60241 0.58842 0.30555 0.0
loop_
_geom_bond_atom_site_label_1
_geom_bond_atom_site_label_2
_geom_bond_distance
_geom_bond_site_symmetry_2
_ccdc_geom_bond_type
Fe0 O2 1.918 . S
Fe0 O5 1.997 . S
Fe0 O6 2.002 . S
Fe0 O11 1.976 . S
Fe0 O14 1.996 . S
Fe1 O2 1.918 . S
Fe1 O9 1.997 . S
Fe1 O12 1.996 . S
Fe1 O16 1.976 . S
Fe1 O19 2.002 . S
O2 Fe0 1.918 . S
O2 Fe1 1.918 . S
O2 Fe3 1.918 . S
Fe3 O2 1.918 . S
Fe3 O4 2.002 . S
Fe3 O13 1.976 . S
Fe3 O17 1.996 . S
Fe3 O20 1.997 . S
O4 Fe3 2.002 . S
O4 C21 1.295 . S
O5 Fe0 1.997 . S
O5 C21 1.235 . S
O6 Fe0 2.002 . S
O6 C7 1.295 . S
C7 O6 1.295 . S
C7 O9 1.235 . S
C8 O13 1.287 . S
C8 O14 1.255 . S
O9 Fe1 1.997 . S
O9 C7 1.235 . S
C10 O16 1.287 . S
C10 O17 1.255 . S
O11 Fe0 1.976 . S
O11 C18 1.287 . S
O12 Fe1 1.996 . S
O12 C18 1.255 . S
O13 Fe3 1.976 . S
O13 C8 1.287 . S
O14 Fe0 1.996 . S
O14 C8 1.255 . S
C15 O19 1.295 . S
C15 O20 1.235 . S
O16 Fe1 1.976 . S
O16 C10 1.287 . S
O17 Fe3 1.996 . S
O17 C10 1.255 . S
C18 O11 1.287 . S
C18 O12 1.255 . S
O19 Fe1 2.002 . S
O19 C15 1.295 . S
O20 Fe3 1.997 . S
O20 C15 1.235 . S
C21 O4 1.295 . S
C21 O5 1.235 . S
Fe22 O24 1.918 . S
Fe22 O27 1.997 . S
Fe22 O28 2.002 . S
Fe22 O33 1.976 . S
Fe22 O36 1.996 . S
Fe23 O24 1.918 . S
Fe23 O31 1.997 . S
Fe23 O34 1.996 . S
Fe23 O38 1.976 . S
Fe23 O41 2.002 . S
O24 Fe22 1.918 . S
O24 Fe23 1.918 . S
O24 Fe25 1.918 . S
Fe25 O24 1.918 . S
Fe25 O26 2.002 . S
Fe25 O35 1.976 . S
Fe25 O39 1.996 . S
Fe25 O42 1.997 . S
O26 Fe25 2.002 . S
O26 C43 1.295 . S
O27 Fe22 1.997 . S
O27 C43 1.235 . S
O28 Fe22 2.002 . S
O28 C29 1.295 . S
C29 O28 1.295 . S
C29 O31 1.235 . S
C30 O35 1.287 . S
C30 O36 1.255 . S
O31 Fe23 1.997 . S
O31 C29 1.235 . S
C32 O38 1.287 . S
C32 O39 1.255 . S
O33 Fe22 1.976 . S
O33 C40 1.287 . S
O34 Fe23 1.996 . S
O34 C40 1.255 . S
O35 Fe25 1.976 . S
O35 C30 1.287 . S
O36 Fe22 1.996 . S
O36 C30 1.255 . S
C37 O41 1.295 . S
C37 O42 1.235 . S
O38 Fe23 1.976 . S
O38 C32 1.287 . S
O39 Fe25 1.996 . S
O39 C32 1.255 . S
C40 O33 1.287 . S
C40 O34 1.255 . S
O41 Fe23 2.002 . S
O41 C37 1.295 . S
O42 Fe25 1.997 . S
O42 C37 1.235 . S
C43 O26 1.295 . S
C43 O27 1.235 . S
Fe44 O46 1.918 . S
Fe44 O49 1.997 . S
Fe44 O50 2.002 . S
Fe44 O55 1.976 . S
Fe44 O58 1.996 . S
Fe45 O46 1.918 . S
Fe45 O53 1.997 . S
Fe45 O56 1.996 . S
Fe45 O60 1.976 . S
Fe45 O63 2.002 . S
O46 Fe44 1.918 . S
O46 Fe45 1.918 . S
O46 Fe47 1.918 . S
Fe47 O46 1.918 . S
Fe47 O48 2.002 . S
Fe47 O57 1.976 . S
Fe47 O61 1.996 . S
Fe47 O64 1.997 . S
O48 Fe47 2.002 . S
O48 C65 1.295 . S
O49 Fe44 1.997 . S
O49 C65 1.235 . S
O50 Fe44 2.002 . S
O50 C51 1.295 . S
C51 O50 1.295 . S
C51 O53 1.235 . S
C52 O57 1.287 . S
C52 O58 1.255 . S
O53 Fe45 1.997 . S
O53 C51 1.235 . S
C54 O60 1.287 . S
C54 O61 1.255 . S
O55 Fe44 1.976 . S
O55 C62 1.287 . S
O56 Fe45 1.996 . S
O56 C62 1.255 . S
O57 Fe47 1.976 . S
O57 C52 1.287 . S
O58 Fe44 1.996 . S
O58 C52 1.255 . S
C59 O63 1.295 . S
C59 O64 1.235 . S
O60 Fe45 1.976 . S
O60 C54 1.287 . S
O61 Fe47 1.996 . S
O61 C54 1.255 . S
C62 O55 1.287 . S
C62 O56 1.255 . S
O63 Fe45 2.002 . S
O63 C59 1.295 . S
O64 Fe47 1.997 . S
O64 C59 1.235 . S
C65 O48 1.295 . S
C65 O49 1.235 . S
Fe66 O68 1.918 . S
Fe66 O71 1.997 . S
Fe66 O72 2.002 . S
Fe66 O77 1.976 . S
Fe66 O80 1.996 . S
Fe67 O68 1.918 . S
Fe67 O75 1.997 . S
Fe67 O78 1.996 . S
Fe67 O82 1.976 . S
Fe67 O85 2.002 . S
O68 Fe66 1.918 . S
O68 Fe67 1.918 . S
O68 Fe69 1.918 . S
Fe69 O68 1.918 . S
Fe69 O70 2.002 . S
Fe69 O79 1.976 . S
Fe69 O83 1.996 . S
Fe69 O86 1.997 . S
O70 Fe69 2.002 . S
O70 C87 1.295 . S
O71 Fe66 1.997 . S
O71 C87 1.235 . S
O72 Fe66 2.002 . S
O72 C73 1.295 . S
C73 O72 1.295 . S
C73 O75 1.235 . S
C74 O79 1.287 . S
C74 O80 1.255 . S
O75 Fe67 1.997 . S
O75 C73 1.235 . S
C76 O82 1.287 . S
C76 O83 1.255 . S
O77 Fe66 1.976 . S
O77 C84 1.287 . S
O78 Fe67 1.996 . S
O78 C84 1.255 . S
O79 Fe69 1.976 . S
O79 C74 1.287 . S
O80 Fe66 1.996 . S
O80 C74 1.255 . S
C81 O85 1.295 . S
C81 O86 1.235 . S
O82 Fe67 1.976 . S
O82 C76 1.287 . S
O83 Fe69 1.996 . S
O83 C76 1.255 . S
C84 O77 1.287 . S
C84 O78 1.255 . S
O85 Fe67 2.002 . S
O85 C81 1.295 . S
O86 Fe69 1.997 . S
O86 C81 1.235 . S
C87 O70 1.295 . S
C87 O71 1.235 . S
C88 C89 1.391 . S
C88 C90 1.394 . S
C88 H104 0.931 . S
C89 C88 1.391 . S
C89 C93 1.376 . S
C90 C88 1.394 . S
C90 C91 1.369 . S
C90 C94 1.531 . S
C91 C90 1.369 . S
C91 C92 1.410 . S
C91 C99 1.503 . S
C92 C91 1.410 . S
C92 C93 1.392 . S
C92 C95 1.511 . S
C93 C89 1.376 . S
C93 C92 1.392 . S
C93 H105 0.929 . S
C94 C90 1.531 . S
C94 H106 0.960 . S
C94 H107 0.962 . S
C94 H108 0.960 . S
C95 C92 1.511 . S
C95 H109 0.961 . S
C95 H110 0.961 . S
C95 H111 0.961 . S
C96 C97 1.370 . S
C96 C98 1.363 . S
C96 H112 0.931 . S
C97 C96 1.370 . S
C97 C101 1.408 . S
C98 C96 1.363 . S
C98 C99 1.370 . S
C98 C102 1.524 . S
C99 C91 1.503 . S
C99 C98 1.370 . S
C99 C100 1.403 . S
C100 C99 1.403 . S
C100 C101 1.404 . S
C100 C103 1.539 . S
C101 C97 1.408 . S
C101 C100 1.404 . S
C101 H113 0.930 . S
C102 C98 1.524 . S
C102 H114 0.956 . S
C102 H115 0.961 . S
C102 H116 0.961 . S
C103 C100 1.539 . S
C103 H117 0.958 . S
C103 H118 0.961 . S
C103 H119 0.960 . S
H104 C88 0.931 . S
H105 C93 0.929 . S
H106 C94 0.960 . S
H107 C94 0.962 . S
H108 C94 0.960 . S
H109 C95 0.961 . S
H110 C95 0.961 . S
H111 C95 0.961 . S
H112 C96 0.931 . S
H113 C101 0.930 . S
H114 C102 0.956 . S
H115 C102 0.961 . S
H116 C102 0.961 . S
H117 C103 0.958 . S
H118 C103 0.961 . S
H119 C103 0.960 . S
C120 C121 1.391 . S
C120 C122 1.394 1_565 S
C120 H136 0.931 . S
C121 C120 1.391 . S
C121 C125 1.376 . S
C122 C120 1.394 1_545 S
C122 C123 1.369 1_545 S
C122 C126 1.531 . S
C123 C122 1.369 1_565 S
C123 C124 1.410 . S
C123 C131 1.503 1_565 S
C124 C123 1.410 . S
C124 C125 1.392 . S
C124 C127 1.511 . S
C125 C121 1.376 . S
C125 C124 1.392 . S
C125 H137 0.929 . S
C126 C122 1.531 . S
C126 H138 0.960 . S
C126 H139 0.962 . S
C126 H140 0.960 . S
C127 C124 1.511 . S
C127 H141 0.961 . S
C127 H142 0.961 . S
C127 H143 0.961 . S
C128 C129 1.370 . S
C128 C130 1.363 . S
C128 H144 0.931 . S
C129 C128 1.370 . S
C129 C133 1.408 . S
C130 C128 1.363 . S
C130 C131 1.370 . S
C130 C134 1.524 1_545 S
C131 C123 1.503 1_545 S
C131 C130 1.370 . S
C131 C132 1.403 . S
C132 C131 1.403 . S
C132 C133 1.404 . S
C132 C135 1.539 . S
C133 C129 1.408 . S
C133 C132 1.404 . S
C133 H145 0.930 . S
C134 C130 1.524 1_565 S
C134 H146 0.956 . S
C134 H147 0.961 . S
C134 H148 0.961 . S
C135 C132 1.539 . S
C135 H149 0.958 . S
C135 H150 0.961 . S
C135 H151 0.958 1_545 S
H136 C120 0.931 . S
H137 C125 0.929 . S
H138 C126 0.960 . S
H139 C126 0.962 . S
H140 C126 0.960 . S
H141 C127 0.961 . S
H142 C127 0.961 . S
H143 C127 0.961 . S
H144 C128 0.931 . S
H145 C133 0.930 . S
H146 C134 0.956 . S
H147 C134 0.961 . S
H148 C134 0.961 . S
H149 C135 0.958 . S
H150 C135 0.961 . S
H151 C135 0.958 1_565 S
C152 C153 1.391 . S
C152 C154 1.394 . S
C152 H168 0.931 . S
C153 C152 1.391 . S
C153 C157 1.376 . S
C154 C152 1.394 . S
C154 C155 1.369 . S
C154 C158 1.531 . S
C155 C154 1.369 . S
C155 C156 1.410 . S
C155 C163 1.503 . S
C156 C155 1.410 . S
C156 C157 1.392 . S
C156 C159 1.511 . S
C157 C153 1.376 . S
C157 C156 1.392 . S
C157 H169 0.929 . S
C158 C154 1.531 . S
C158 H170 0.960 . S
C158 H171 0.962 . S
C158 H172 0.960 . S
C159 C156 1.511 . S
C159 H173 0.961 . S
C159 H174 0.961 . S
C159 H175 0.961 . S
C160 C161 1.370 . S
C160 C162 1.363 . S
C160 H176 0.931 . S
C161 C160 1.370 . S
C161 C165 1.408 . S
C162 C160 1.363 . S
C162 C163 1.370 . S
C162 C166 1.524 . S
C163 C155 1.503 . S
C163 C162 1.370 . S
C163 C164 1.403 . S
C164 C163 1.403 . S
C164 C165 1.404 . S
C164 C167 1.539 . S
C165 C161 1.408 . S
C165 C164 1.404 . S
C165 H177 0.930 . S
C166 C162 1.524 . S
C166 H178 0.956 . S
C166 H179 0.961 . S
C166 H180 0.961 . S
C167 C164 1.539 . S
C167 H181 0.958 . S
C167 H182 0.961 . S
C167 H183 0.960 . S
H168 C152 0.931 . S
H169 C157 0.929 . S
H170 C158 0.960 . S
H171 C158 0.962 . S
H172 C158 0.960 . S
H173 C159 0.961 . S
H174 C159 0.961 . S
H175 C159 0.961 . S
H176 C160 0.931 . S
H177 C165 0.930 . S
H178 C166 0.956 . S
H179 C166 0.961 . S
H180 C166 0.961 . S
H181 C167 0.958 . S
H182 C167 0.961 . S
H183 C167 0.960 . S
C184 C185 1.391 . S
C184 C186 1.394 . S
C184 H200 0.931 1_556 S
C185 C184 1.391 . S
C185 C189 1.376 . S
C186 C184 1.394 . S
C186 C187 1.369 . S
C186 C190 1.531 1_565 S
C187 C186 1.369 . S
C187 C188 1.410 . S
C187 C195 1.503 1_565 S
C188 C187 1.410 . S
C188 C189 1.392 . S
C188 C191 1.511 . S
C189 C185 1.376 . S
C189 C188 1.392 . S
C189 H201 0.929 . S
C190 C186 1.531 1_545 S
C190 H202 0.960 . S
C190 H203 0.962 . S
C190 H204 0.960 1_545 S
C191 C188 1.511 . S
C191 H205 0.961 . S
C191 H206 0.961 . S
C191 H207 0.961 . S
C192 C193 1.370 . S
C192 C194 1.363 . S
C192 H208 0.931 . S
C193 C192 1.370 . S
C193 C197 1.408 . S
C194 C192 1.363 . S
C194 C195 1.370 . S
C194 C198 1.524 . S
C195 C187 1.503 1_545 S
C195 C194 1.370 . S
C195 C196 1.403 1_545 S
C196 C195 1.403 1_565 S
C196 C197 1.404 1_565 S
C196 C199 1.539 . S
C197 C193 1.408 . S
C197 C196 1.404 1_545 S
C197 H209 0.930 . S
C198 C194 1.524 . S
C198 H210 0.956 . S
C198 H211 0.961 . S
C198 H212 0.961 . S
C199 C196 1.539 . S
C199 H213 0.958 . S
C199 H214 0.961 . S
C199 H215 0.960 . S
H200 C184 0.931 1_554 S
H201 C189 0.929 . S
H202 C190 0.960 . S
H203 C190 0.962 . S
H204 C190 0.960 1_565 S
H205 C191 0.961 . S
H206 C191 0.961 . S
H207 C191 0.961 . S
H208 C192 0.931 . S
H209 C197 0.930 . S
H210 C198 0.956 . S
H211 C198 0.961 . S
H212 C198 0.961 . S
H213 C199 0.958 . S
H214 C199 0.961 . S
H215 C199 0.960 . S
C216 C217 1.391 . S
C216 C218 1.394 . S
C216 H232 0.931 . S
C217 C216 1.391 . S
C217 C221 1.376 . S
C218 C216 1.394 . S
C218 C219 1.369 . S
C218 C222 1.531 . S
C219 C218 1.369 . S
C219 C220 1.410 . S
C219 C227 1.503 . S
C220 C219 1.410 . S
C220 C221 1.392 . S
C220 C223 1.511 . S
C221 C217 1.376 . S
C221 C220 1.392 . S
C221 H233 0.929 1_455 S
C222 C218 1.531 . S
C222 H234 0.960 . S
C222 H235 0.962 . S
C222 H236 0.960 . S
C223 C220 1.511 . S
C223 H237 0.961 . S
C223 H238 0.961 . S
C223 H239 0.961 . S
C224 C225 1.370 . S
C224 C226 1.363 . S
C224 H240 0.931 . S
C225 C224 1.370 . S
C225 C229 1.408 . S
C226 C224 1.363 . S
C226 C227 1.370 . S
C226 C230 1.524 . S
C227 C219 1.503 . S
C227 C226 1.370 . S
C227 C228 1.403 . S
C228 C227 1.403 . S
C228 C229 1.404 . S
C228 C231 1.539 . S
C229 C225 1.408 . S
C229 C228 1.404 . S
C229 H241 0.930 . S
C230 C226 1.524 . S
C230 H242 0.956 . S
C230 H243 0.961 . S
C230 H244 0.961 . S
C231 C228 1.539 . S
C231 H245 0.958 . S
C231 H246 0.961 . S
C231 H247 0.960 . S
H232 C216 0.931 . S
H233 C221 0.929 1_655 S
H234 C222 0.960 . S
H235 C222 0.962 . S
H236 C222 0.960 . S
H237 C223 0.961 . S
H238 C223 0.961 . S
H239 C223 0.961 . S
H240 C224 0.931 . S
H241 C229 0.930 . S
H242 C230 0.956 . S
H243 C230 0.961 . S
H244 C230 0.961 . S
H245 C231 0.958 . S
H246 C231 0.961 . S
H247 C231 0.960 . S
C248 C249 1.391 . S
C248 C250 1.394 . S
C248 H264 0.931 . S
C249 C248 1.391 . S
C249 C253 1.376 . S
C250 C248 1.394 . S
C250 C251 1.369 . S
C250 C254 1.531 1_455 S
C251 C250 1.369 . S
C251 C252 1.410 . S
C251 C259 1.503 1_455 S
C252 C251 1.410 . S
C252 C253 1.392 . S
C252 C255 1.511 . S
C253 C249 1.376 . S
C253 C252 1.392 . S
C253 H265 0.929 . S
C254 C250 1.531 1_655 S
C254 H266 0.960 . S
C254 H267 0.962 . S
C254 H268 0.960 . S
C255 C252 1.511 . S
C255 H269 0.961 . S
C255 H270 0.961 . S
C255 H271 0.961 . S
C256 C257 1.370 . S
C256 C258 1.363 . S
C256 H272 0.931 . S
C257 C256 1.370 . S
C257 C261 1.408 . S
C258 C256 1.363 . S
C258 C259 1.370 . S
C258 C262 1.524 . S
C259 C251 1.503 1_655 S
C259 C258 1.370 . S
C259 C260 1.403 . S
C260 C259 1.403 . S
C260 C261 1.404 . S
C260 C263 1.539 1_655 S
C261 C257 1.408 . S
C261 C260 1.404 . S
C261 H273 0.930 1_565 S
C262 C258 1.524 . S
C262 H274 0.956 . S
C262 H275 0.961 1_655 S
C262 H276 0.961 . S
C263 C260 1.539 1_455 S
C263 H277 0.958 . S
C263 H278 0.961 1_565 S
C263 H279 0.960 . S
H264 C248 0.931 . S
H265 C253 0.929 . S
H266 C254 0.960 . S
H267 C254 0.962 . S
H268 C254 0.960 . S
H269 C255 0.961 . S
H270 C255 0.961 . S
H271 C255 0.961 . S
H272 C256 0.931 . S
H273 C261 0.930 1_545 S
H274 C262 0.956 . S
H275 C262 0.961 1_455 S
H276 C262 0.961 . S
H277 C263 0.958 . S
H278 C263 0.961 1_545 S
H279 C263 0.960 . S
C280 C281 1.391 . S
C280 C282 1.394 . S
C280 H296 0.931 . S
C281 C280 1.391 . S
C281 C285 1.376 . S
C282 C280 1.394 . S
C282 C283 1.369 . S
C282 C286 1.531 . S
C283 C282 1.369 . S
C283 C284 1.410 . S
C283 C291 1.503 1_556 S
C284 C283 1.410 . S
C284 C285 1.392 . S
C284 C287 1.511 1_556 S
C285 C281 1.376 . S
C285 C284 1.392 . S
C285 H297 0.929 . S
C286 C282 1.531 . S
C286 H298 0.960 . S
C286 H299 0.962 . S
C286 H300 0.960 . S
C287 C284 1.511 1_554 S
C287 H301 0.961 . S
C287 H302 0.961 . S
C287 H303 0.961 . S
C288 C289 1.370 . S
C288 C290 1.363 1_554 S
C288 H304 0.931 1_554 S
C289 C288 1.370 . S
C289 C293 1.408 . S
C290 C288 1.363 1_556 S
C290 C291 1.370 1_556 S
C290 C294 1.524 . S
C291 C283 1.503 1_554 S
C291 C290 1.370 1_554 S
C291 C292 1.403 . S
C292 C291 1.403 . S
C292 C293 1.404 . S
C292 C295 1.539 . S
C293 C289 1.408 . S
C293 C292 1.404 . S
C293 H305 0.930 . S
C294 C290 1.524 . S
C294 H306 0.956 . S
C294 H307 0.961 . S
C294 H308 0.961 . S
C295 C292 1.539 . S
C295 H309 0.958 . S
C295 H310 0.961 . S
C295 H311 0.960 . S
H296 C280 0.931 . S
H297 C285 0.929 . S
H298 C286 0.960 . S
H299 C286 0.962 . S
H300 C286 0.960 . S
H301 C287 0.961 . S
H302 C287 0.961 . S
H303 C287 0.961 . S
H304 C288 0.931 1_556 S
H305 C293 0.930 . S
H306 C294 0.956 . S
H307 C294 0.961 . S
H308 C294 0.961 . S
H309 C295 0.958 . S
H310 C295 0.961 . S
H311 C295 0.960 . S
C312 C313 1.391 . S
C312 C314 1.394 . S
C312 H328 0.931 . S
C313 C312 1.391 . S
C313 C317 1.376 . S
C314 C312 1.394 . S
C314 C315 1.369 . S
C314 C318 1.531 . S
C315 C314 1.369 . S
C315 C316 1.410 . S
C315 C323 1.503 . S
C316 C315 1.410 . S
C316 C317 1.392 . S
C316 C319 1.511 . S
C317 C313 1.376 . S
C317 C316 1.392 . S
C317 H329 0.929 . S
C318 C314 1.531 . S
C318 H330 0.960 . S
C318 H331 0.962 . S
C318 H332 0.960 . S
C319 C316 1.511 . S
C319 H333 0.961 . S
C319 H334 0.961 . S
C319 H335 0.961 . S
C320 C321 1.370 . S
C320 C322 1.363 . S
C320 H336 0.931 . S
C321 C320 1.370 . S
C321 C325 1.408 . S
C322 C320 1.363 . S
C322 C323 1.370 . S
C322 C326 1.524 . S
C323 C315 1.503 . S
C323 C322 1.370 . S
C323 C324 1.403 . S
C324 C323 1.403 . S
C324 C325 1.404 . S
C324 C327 1.539 . S
C325 C321 1.408 . S
C325 C324 1.404 . S
C325 H337 0.930 . S
C326 C322 1.524 . S
C326 H338 0.956 . S
C326 H339 0.961 . S
C326 H340 0.961 . S
C327 C324 1.539 . S
C327 H341 0.958 . S
C327 H342 0.961 . S
C327 H343 0.960 . S
H328 C312 0.931 . S
H329 C317 0.929 . S
H330 C318 0.960 . S
H331 C318 0.962 . S
H332 C318 0.960 . S
H333 C319 0.961 . S
H334 C319 0.961 . S
H335 C319 0.961 . S
H336 C320 0.931 . S
H337 C325 0.930 . S
H338 C326 0.956 . S
H339 C326 0.961 . S
H340 C326 0.961 . S
H341 C327 0.958 . S
H342 C327 0.961 . S
H343 C327 0.960 . S
C344 C345 1.391 . S
C344 C346 1.394 . S
C344 H360 0.931 . S
C345 C344 1.391 . S
C345 C349 1.376 . S
C346 C344 1.394 . S
C346 C347 1.369 . S
C346 C350 1.531 . S
C347 C346 1.369 . S
C347 C348 1.410 . S
C347 C355 1.503 . S
C348 C347 1.410 . S
C348 C349 1.392 . S
C348 C351 1.511 . S
C349 C345 1.376 . S
C349 C348 1.392 . S
C349 H361 0.929 . S
C350 C346 1.531 . S
C350 H362 0.960 . S
C350 H363 0.962 . S
C350 H364 0.960 . S
C351 C348 1.511 . S
C351 H365 0.961 . S
C351 H366 0.961 . S
C351 H367 0.961 . S
C352 C353 1.370 . S
C352 C354 1.363 . S
C352 H368 0.931 . S
C353 C352 1.370 . S
C353 C357 1.408 . S
C354 C352 1.363 . S
C354 C355 1.370 . S
C354 C358 1.524 . S
C355 C347 1.503 . S
C355 C354 1.370 . S
C355 C356 1.403 . S
C356 C355 1.403 . S
C356 C357 1.404 . S
C356 C359 1.539 . S
C357 C353 1.408 . S
C357 C356 1.404 . S
C357 H369 0.930 . S
C358 C354 1.524 . S
C358 H370 0.956 . S
C358 H371 0.961 . S
C358 H372 0.961 . S
C359 C356 1.539 . S
C359 H373 0.958 . S
C359 H374 0.961 . S
C359 H375 0.960 . S
H360 C344 0.931 . S
H361 C349 0.929 . S
H362 C350 0.960 . S
H363 C350 0.962 . S
H364 C350 0.960 . S
H365 C351 0.961 . S
H366 C351 0.961 . S
H367 C351 0.961 . S
H368 C352 0.931 . S
H369 C357 0.930 . S
H370 C358 0.956 . S
H371 C358 0.961 . S
H372 C358 0.961 . S
H373 C359 0.958 . S
H374 C359 0.961 . S
H375 C359 0.960 . S
C376 C377 1.391 . S
C376 C378 1.394 . S
C376 H392 0.931 . S
C377 C376 1.391 . S
C377 C381 1.376 . S
C378 C376 1.394 . S
C378 C379 1.369 . S
C378 C382 1.531 . S
C379 C378 1.369 . S
C379 C380 1.410 1_455 S
C379 C387 1.503 1_455 S
C380 C379 1.410 1_655 S
C380 C381 1.392 1_655 S
C380 C383 1.511 . S
C381 C377 1.376 . S
C381 C380 1.392 1_455 S
C381 H393 0.929 1_455 S
C382 C378 1.531 . S
C382 H394 0.960 . S
C382 H395 0.962 . S
C382 H396 0.960 . S
C383 C380 1.511 . S
C383 H397 0.961 . S
C383 H398 0.961 . S
C383 H399 0.961 . S
C384 C385 1.370 . S
C384 C386 1.363 . S
C384 H400 0.931 . S
C385 C384 1.370 . S
C385 C389 1.408 . S
C386 C384 1.363 . S
C386 C387 1.370 . S
C386 C390 1.524 . S
C387 C379 1.503 1_655 S
C387 C386 1.370 . S
C387 C388 1.403 . S
C388 C387 1.403 . S
C388 C389 1.404 . S
C388 C391 1.539 . S
C389 C385 1.408 . S
C389 C388 1.404 . S
C389 H401 0.930 . S
C390 C386 1.524 . S
C390 H402 0.956 1_655 S
C390 H403 0.961 . S
C390 H404 0.961 . S
C391 C388 1.539 . S
C391 H405 0.958 1_655 S
C391 H406 0.961 . S
C391 H407 0.960 . S
H392 C376 0.931 . S
H393 C381 0.929 1_655 S
H394 C382 0.960 . S
H395 C382 0.962 . S
H396 C382 0.960 . S
H397 C383 0.961 . S
H398 C383 0.961 . S
H399 C383 0.961 . S
H400 C384 0.931 . S
H401 C389 0.930 . S
H402 C390 0.956 1_455 S
H403 C390 0.961 . S
H404 C390 0.961 . S
H405 C391 0.958 1_455 S
H406 C391 0.961 . S
H407 C391 0.960 . S
C408 C409 1.391 . S
C408 C410 1.394 . S
C408 H424 0.931 1_655 S
C409 C408 1.391 . S
C409 C413 1.376 . S
C410 C408 1.394 . S
C410 C411 1.369 . S
C410 C414 1.531 1_556 S
C411 C410 1.369 . S
C411 C412 1.410 . S
C411 C419 1.503 1_556 S
C412 C411 1.410 . S
C412 C413 1.392 . S
C412 C415 1.511 . S
C413 C409 1.376 . S
C413 C412 1.392 . S
C413 H425 0.929 . S
C414 C410 1.531 1_554 S
C414 H426 0.960 . S
C414 H427 0.962 . S
C414 H428 0.960 . S
C415 C412 1.511 . S
C415 H429 0.961 . S
C415 H430 0.961 . S
C415 H431 0.961 . S
C416 C417 1.370 . S
C416 C418 1.363 . S
C416 H432 0.931 . S
C417 C416 1.370 . S
C417 C421 1.408 . S
C418 C416 1.363 . S
C418 C419 1.370 . S
C418 C422 1.524 . S
C419 C411 1.503 1_554 S
C419 C418 1.370 . S
C419 C420 1.403 . S
C420 C419 1.403 . S
C420 C421 1.405 . S
C420 C423 1.537 1_554 S
C421 C417 1.408 . S
C421 C420 1.405 . S
C421 H433 0.930 . S
C422 C418 1.524 . S
C422 H434 0.956 . S
C422 H435 0.961 . S
C422 H436 0.961 . S
C423 C420 1.537 1_556 S
C423 H437 0.958 . S
C423 H438 0.961 . S
C423 H439 0.960 . S
H424 C408 0.931 1_455 S
H425 C413 0.929 . S
H426 C414 0.960 . S
H427 C414 0.962 . S
H428 C414 0.960 . S
H429 C415 0.961 . S
H430 C415 0.961 . S
H431 C415 0.961 . S
H432 C416 0.931 . S
H433 C421 0.930 . S
H434 C422 0.956 . S
H435 C422 0.961 . S
H436 C422 0.961 . S
H437 C423 0.958 . S
H438 C423 0.961 . S
H439 C423 0.960 . S
C440 C441 1.391 . S
C440 C442 1.394 . S
C440 H456 0.931 . S
C441 C440 1.391 . S
C441 C445 1.376 . S
C442 C440 1.394 . S
C442 C443 1.369 . S
C442 C446 1.531 . S
C443 C442 1.369 . S
C443 C444 1.410 . S
C443 C451 1.503 . S
C444 C443 1.410 . S
C444 C445 1.392 . S
C444 C447 1.511 . S
C445 C441 1.376 . S
C445 C444 1.392 . S
C445 H457 0.929 . S
C446 C442 1.531 . S
C446 H458 0.960 . S
C446 H459 0.962 . S
C446 H460 0.960 . S
C447 C444 1.511 . S
C447 H461 0.961 . S
C447 H462 0.961 . S
C447 H463 0.961 . S
C448 C449 1.370 . S
C448 C450 1.363 . S
C448 H464 0.931 . S
C449 C448 1.370 . S
C449 C453 1.408 . S
C450 C448 1.363 . S
C450 C451 1.370 . S
C450 C454 1.524 . S
C451 C443 1.503 . S
C451 C450 1.370 . S
C451 C452 1.403 . S
C452 C451 1.403 . S
C452 C453 1.404 . S
C452 C455 1.539 . S
C453 C449 1.408 . S
C453 C452 1.404 . S
C453 H465 0.930 . S
C454 C450 1.524 . S
C454 H466 0.956 . S
C454 H467 0.961 . S
C454 H468 0.961 . S
C455 C452 1.539 . S
C455 H469 0.958 . S
C455 H470 0.961 . S
C455 H471 0.960 . S
H456 C440 0.931 . S
H457 C445 0.929 . S
H458 C446 0.960 . S
H459 C446 0.962 . S
H460 C446 0.960 . S
H461 C447 0.961 . S
H462 C447 0.961 . S
H463 C447 0.961 . S
H464 C448 0.931 . S
H465 C453 0.930 . S
H466 C454 0.956 . S
H467 C454 0.961 . S
H468 C454 0.961 . S
H469 C455 0.958 . S
H470 C455 0.961 . S
H471 C455 0.960 . S
C89 C59 1.364 1_554 S
C97 C21 1.403 . S
C121 C84 1.371 . S
C129 C29 1.331 . S
C153 C62 1.288 . S
C161 C10 1.317 . S
C185 C81 1.332 1_556 S
C193 C30 1.356 . S
C217 C37 1.423 1_455 S
C225 C15 1.398 . S
C249 C52 1.387 . S
C257 C43 1.333 1_565 S
C281 C54 1.331 . S
C289 C87 1.350 . S
C313 C7 1.393 . S
C321 C73 1.411 1_545 S
C345 C40 1.337 . S
C353 C18 1.306 . S
C377 C51 1.380 . S
C385 C32 1.359 . S
C409 C65 1.325 1_655 S
C417 C76 1.357 . S
C441 C74 1.333 . S
C449 C8 1.305 . S
