# Generated by pormake.
# Topology umd, (4)-cn, num edge types: 1
# Building blocks:
#     Node 0, Type 0, BuildingBlock: CEKHIL_clean_sbu_0, # of connection points: 4
#     Node 1, Type 0, BuildingBlock: CEKHIL_clean_sbu_0, # of connection points: 4
#     Node 2, Type 0, BuildingBlock: CEKHIL_clean_sbu_0, # of connection points: 4
#     Node 3, Type 0, BuildingBlock: CEKHIL_clean_sbu_0, # of connection points: 4
#     Node 4, Type 0, BuildingBlock: CEKHIL_clean_sbu_0, # of connection points: 4
#     Node 5, Type 0, BuildingBlock: CEKHIL_clean_sbu_0, # of connection points: 4
#     Node 6, Type 0, BuildingBlock: CEKHIL_clean_sbu_0, # of connection points: 4
#     Node 7, Type 0, BuildingBlock: CEKHIL_clean_sbu_0, # of connection points: 4
#     Node 8, Type 0, BuildingBlock: CEKHIL_clean_sbu_0, # of connection points: 4
#     Node 9, Type 0, BuildingBlock: CEKHIL_clean_sbu_0, # of connection points: 4
#     Node 10, Type 0, BuildingBlock: CEKHIL_clean_sbu_0, # of connection points: 4
#     Node 11, Type 0, BuildingBlock: CEKHIL_clean_sbu_0, # of connection points: 4
#     Node 12, Type 0, BuildingBlock: CEKHIL_clean_sbu_0, # of connection points: 4
#     Node 13, Type 0, BuildingBlock: CEKHIL_clean_sbu_0, # of connection points: 4
#     Node 14, Type 0, BuildingBlock: CEKHIL_clean_sbu_0, # of connection points: 4
#     Node 15, Type 0, BuildingBlock: CEKHIL_clean_sbu_0, # of connection points: 4
#     Edge 16, Type (0, 0), BuildingBlock: OJICUG_clean_linker_0, # of connection points: 2
#     Edge 17, Type (0, 0), BuildingBlock: OJICUG_clean_linker_0, # of connection points: 2
#     Edge 18, Type (0, 0), BuildingBlock: OJICUG_clean_linker_0, # of connection points: 2
#     Edge 19, Type (0, 0), BuildingBlock: OJICUG_clean_linker_0, # of connection points: 2
#     Edge 20, Type (0, 0), BuildingBlock: OJICUG_clean_linker_0, # of connection points: 2
#     Edge 21, Type (0, 0), BuildingBlock: OJICUG_clean_linker_0, # of connection points: 2
#     Edge 22, Type (0, 0), BuildingBlock: OJICUG_clean_linker_0, # of connection points: 2
#     Edge 23, Type (0, 0), BuildingBlock: OJICUG_clean_linker_0, # of connection points: 2
#     Edge 24, Type (0, 0), BuildingBlock: OJICUG_clean_linker_0, # of connection points: 2
#     Edge 25, Type (0, 0), BuildingBlock: OJICUG_clean_linker_0, # of connection points: 2
#     Edge 26, Type (0, 0), BuildingBlock: OJICUG_clean_linker_0, # of connection points: 2
#     Edge 27, Type (0, 0), BuildingBlock: OJICUG_clean_linker_0, # of connection points: 2
#     Edge 28, Type (0, 0), BuildingBlock: OJICUG_clean_linker_0, # of connection points: 2
#     Edge 29, Type (0, 0), BuildingBlock: OJICUG_clean_linker_0, # of connection points: 2
#     Edge 30, Type (0, 0), BuildingBlock: OJICUG_clean_linker_0, # of connection points: 2
#     Edge 31, Type (0, 0), BuildingBlock: OJICUG_clean_linker_0, # of connection points: 2
#     Edge 32, Type (0, 0), BuildingBlock: OJICUG_clean_linker_0, # of connection points: 2
#     Edge 33, Type (0, 0), BuildingBlock: OJICUG_clean_linker_0, # of connection points: 2
#     Edge 34, Type (0, 0), BuildingBlock: OJICUG_clean_linker_0, # of connection points: 2
#     Edge 35, Type (0, 0), BuildingBlock: OJICUG_clean_linker_0, # of connection points: 2
#     Edge 36, Type (0, 0), BuildingBlock: OJICUG_clean_linker_0, # of connection points: 2
#     Edge 37, Type (0, 0), BuildingBlock: OJICUG_clean_linker_0, # of connection points: 2
#     Edge 38, Type (0, 0), BuildingBlock: OJICUG_clean_linker_0, # of connection points: 2
#     Edge 39, Type (0, 0), BuildingBlock: OJICUG_clean_linker_0, # of connection points: 2
#     Edge 40, Type (0, 0), BuildingBlock: OJICUG_clean_linker_0, # of connection points: 2
#     Edge 41, Type (0, 0), BuildingBlock: OJICUG_clean_linker_0, # of connection points: 2
#     Edge 42, Type (0, 0), BuildingBlock: OJICUG_clean_linker_0, # of connection points: 2
#     Edge 43, Type (0, 0), BuildingBlock: OJICUG_clean_linker_0, # of connection points: 2
#     Edge 44, Type (0, 0), BuildingBlock: OJICUG_clean_linker_0, # of connection points: 2
#     Edge 45, Type (0, 0), BuildingBlock: OJICUG_clean_linker_0, # of connection points: 2
#     Edge 46, Type (0, 0), BuildingBlock: OJICUG_clean_linker_0, # of connection points: 2
#     Edge 47, Type (0, 0), BuildingBlock: OJICUG_clean_linker_0, # of connection points: 2
# Relax obj value: 0.091
# Max RMSD: 0.226
# Mean RMSD: 0.226
data_MOF--net-umd--node1-CEKHIL_clean_sbu_0--edge1-OJICUG_clean_linker_0
_symmetry_space_group_name_H-M    P1
_symmetry_Int_Tables_number       1
_symmetry_cell_setting            triclinic
loop_
_symmetry_equiv_pos_as_xyz
'x, y, z'
_cell_length_a     28.459533
_cell_length_b     28.459571
_cell_length_c     40.042543
_cell_angle_alpha  90.000019
_cell_angle_beta   90.000035
_cell_angle_gamma 89.99468
loop_
_atom_site_label
_atom_site_type_symbol
_atom_site_fract_x
_atom_site_fract_y
_atom_site_fract_z
_atom_type_partial_charge
Co0 Co 0.19011 0.43113 0.13273 0.0
O1 O 0.2485 0.39845 0.1292 0.0
O2 O 0.17931 0.36778 0.11589 0.0
C3 C 0.20175 0.45972 0.18433 0.0
O4 O 0.12268 0.45592 0.13425 0.0
Co5 Co 0.19334 0.53982 0.13696 0.0
O6 O 0.12505 0.53352 0.14543 0.0
C7 C 0.20897 0.49445 0.07219 0.0
C8 C 0.2247 0.36291 0.1182 0.0
C9 C 0.10234 0.49549 0.14072 0.0
O10 O 0.19831 0.455 0.08584 0.0
O11 O 0.2123 0.5328 0.08875 0.0
O12 O 0.18658 0.41714 0.1801 0.0
O13 O 0.21443 0.48163 0.15743 0.0
Co14 Co 0.56996 0.19059 0.63256 0.0
O15 O 0.60177 0.24934 0.62854 0.0
O16 O 0.63331 0.18051 0.61538 0.0
C17 C 0.54171 0.2024 0.68425 0.0
O18 O 0.54586 0.12292 0.63453 0.0
Co19 Co 0.4612 0.19326 0.63724 0.0
O20 O 0.46835 0.12517 0.64615 0.0
C21 C 0.50591 0.20824 0.5722 0.0
C22 C 0.63749 0.22601 0.61735 0.0
C23 C 0.50641 0.10253 0.64132 0.0
O24 O 0.54552 0.19803 0.58577 0.0
O25 O 0.46765 0.21155 0.58886 0.0
O26 O 0.58445 0.18771 0.67993 0.0
O27 O 0.51949 0.21458 0.65737 0.0
Co28 Co 0.80974 0.56734 0.13208 0.0
O29 O 0.75032 0.59789 0.12823 0.0
O30 O 0.81827 0.63075 0.1145 0.0
C31 C 0.79897 0.53949 0.18396 0.0
O32 O 0.8779 0.54445 0.13382 0.0
Co33 Co 0.80878 0.45857 0.13732 0.0
O34 O 0.87671 0.46712 0.14611 0.0
C35 C 0.79264 0.50233 0.07213 0.0
C36 C 0.77271 0.634 0.11672 0.0
C37 C 0.89884 0.50538 0.14089 0.0
O38 O 0.80224 0.54224 0.08548 0.0
O39 O 0.79017 0.46415 0.08895 0.0
O40 O 0.81286 0.58243 0.17932 0.0
O41 O 0.7869 0.51676 0.15728 0.0
Co42 Co 0.43193 0.81108 0.63216 0.0
O43 O 0.40017 0.7523 0.62823 0.0
O44 O 0.36872 0.82101 0.61466 0.0
C45 C 0.45963 0.79966 0.68399 0.0
O46 O 0.45604 0.87876 0.63402 0.0
Co47 Co 0.54062 0.80839 0.63732 0.0
O48 O 0.53338 0.87648 0.64618 0.0
C49 C 0.49652 0.79295 0.57215 0.0
C50 C 0.36452 0.77552 0.61683 0.0
C51 C 0.4954 0.89913 0.64107 0.0
O52 O 0.45681 0.80325 0.58553 0.0
O53 O 0.53467 0.78983 0.58895 0.0
O54 O 0.41695 0.81435 0.67939 0.0
O55 O 0.48214 0.78723 0.65729 0.0
Co56 Co 0.19059 0.56982 0.36754 0.0
O57 O 0.24942 0.60146 0.37158 0.0
O58 O 0.18069 0.63319 0.38476 0.0
C59 C 0.20233 0.5416 0.31584 0.0
O60 O 0.12285 0.54588 0.36556 0.0
Co61 Co 0.19306 0.46106 0.36281 0.0
O62 O 0.12501 0.46839 0.35387 0.0
C63 C 0.20808 0.50567 0.42787 0.0
C64 C 0.22621 0.63724 0.3828 0.0
C65 C 0.10242 0.50647 0.35873 0.0
O66 O 0.19797 0.54531 0.41432 0.0
O67 O 0.21131 0.46741 0.41121 0.0
O68 O 0.18775 0.58438 0.32018 0.0
O69 O 0.21446 0.51933 0.34271 0.0
Co70 Co 0.43105 0.19012 0.8673 0.0
O71 O 0.39838 0.24852 0.87085 0.0
O72 O 0.36769 0.17932 0.88412 0.0
C73 C 0.45969 0.20181 0.81572 0.0
O74 O 0.45582 0.12269 0.86576 0.0
Co75 Co 0.53974 0.19333 0.8631 0.0
O76 O 0.53343 0.12504 0.85462 0.0
C77 C 0.49433 0.2089 0.92787 0.0
C78 C 0.36283 0.22472 0.88183 0.0
C79 C 0.49539 0.10234 0.85931 0.0
O80 O 0.45489 0.19827 0.91421 0.0
O81 O 0.53269 0.21224 0.91133 0.0
O82 O 0.41709 0.18664 0.81992 0.0
O83 O 0.48158 0.21445 0.84264 0.0
Co84 Co 0.81106 0.43183 0.36787 0.0
O85 O 0.75235 0.39992 0.37177 0.0
O86 O 0.82114 0.36863 0.38533 0.0
C87 C 0.7996 0.45957 0.31605 0.0
O88 O 0.87868 0.45608 0.36603 0.0
Co89 Co 0.8082 0.54051 0.36277 0.0
O90 O 0.87632 0.53344 0.35395 0.0
C91 C 0.79278 0.49631 0.42791 0.0
C92 C 0.77567 0.36431 0.38315 0.0
C93 C 0.89902 0.49547 0.35902 0.0
O94 O 0.80316 0.45663 0.41451 0.0
O95 O 0.78959 0.53447 0.41112 0.0
O96 O 0.81437 0.41691 0.32063 0.0
O97 O 0.78711 0.48203 0.34276 0.0
Co98 Co 0.56726 0.80975 0.86801 0.0
O99 O 0.59783 0.75035 0.87184 0.0
O100 O 0.63066 0.8183 0.8856 0.0
C101 C 0.53944 0.79902 0.81611 0.0
O102 O 0.54435 0.87791 0.86628 0.0
Co103 Co 0.4585 0.80876 0.86273 0.0
O104 O 0.46703 0.8767 0.85395 0.0
C105 C 0.50222 0.79258 0.92793 0.0
C106 C 0.63393 0.77274 0.88336 0.0
C107 C 0.50528 0.89884 0.85919 0.0
O108 O 0.54213 0.80221 0.91459 0.0
O109 O 0.46405 0.79012 0.9111 0.0
O110 O 0.58238 0.81292 0.82077 0.0
O111 O 0.5167 0.78692 0.84278 0.0
Co112 Co 0.80975 0.56735 0.86798 0.0
O113 O 0.75034 0.5979 0.87182 0.0
O114 O 0.81829 0.63076 0.88555 0.0
C115 C 0.79898 0.5395 0.81609 0.0
O116 O 0.87792 0.54446 0.86623 0.0
Co117 Co 0.80879 0.45858 0.86273 0.0
O118 O 0.87672 0.46713 0.85394 0.0
C119 C 0.79265 0.50234 0.92792 0.0
C120 C 0.77272 0.63401 0.88333 0.0
C121 C 0.89885 0.50539 0.85916 0.0
O122 O 0.80225 0.54224 0.91457 0.0
O123 O 0.79018 0.46416 0.9111 0.0
O124 O 0.81288 0.58244 0.82073 0.0
O125 O 0.78692 0.51677 0.84278 0.0
Co126 Co 0.43194 0.81107 0.3679 0.0
O127 O 0.40019 0.75229 0.37183 0.0
O128 O 0.36873 0.82099 0.3854 0.0
C129 C 0.45965 0.79967 0.31607 0.0
O130 O 0.45604 0.87876 0.36605 0.0
Co131 Co 0.54063 0.8084 0.36275 0.0
O132 O 0.53338 0.87649 0.35389 0.0
C133 C 0.49653 0.79295 0.42791 0.0
C134 C 0.36453 0.77551 0.38323 0.0
C135 C 0.4954 0.89914 0.35899 0.0
O136 O 0.45681 0.80324 0.41453 0.0
O137 O 0.53468 0.78983 0.41111 0.0
O138 O 0.41696 0.81435 0.32067 0.0
O139 O 0.48216 0.78724 0.34277 0.0
Co140 Co 0.19012 0.43114 0.86733 0.0
O141 O 0.2485 0.39845 0.87087 0.0
O142 O 0.17931 0.36779 0.88417 0.0
C143 C 0.20177 0.45973 0.81574 0.0
O144 O 0.12269 0.45593 0.86581 0.0
Co145 Co 0.19336 0.53982 0.8631 0.0
O146 O 0.12506 0.53353 0.85463 0.0
C147 C 0.20898 0.49444 0.92787 0.0
C148 C 0.2247 0.36291 0.88186 0.0
C149 C 0.10235 0.49549 0.85934 0.0
O150 O 0.19832 0.455 0.91423 0.0
O151 O 0.21231 0.53279 0.91132 0.0
O152 O 0.18659 0.41714 0.81996 0.0
O153 O 0.21444 0.48164 0.84264 0.0
Co154 Co 0.56994 0.1906 0.3675 0.0
O155 O 0.60174 0.24935 0.37152 0.0
O156 O 0.6333 0.18053 0.38469 0.0
C157 C 0.54169 0.2024 0.31582 0.0
O158 O 0.54585 0.12292 0.36554 0.0
Co159 Co 0.46118 0.19326 0.36283 0.0
O160 O 0.46834 0.12517 0.35393 0.0
C161 C 0.5059 0.20825 0.42787 0.0
C162 C 0.63747 0.22603 0.38272 0.0
C163 C 0.5064 0.10253 0.35875 0.0
O164 O 0.54551 0.19804 0.4143 0.0
O165 O 0.46763 0.21155 0.41122 0.0
O166 O 0.58444 0.18772 0.32014 0.0
O167 O 0.51947 0.21458 0.3427 0.0
Co168 Co 0.81105 0.43183 0.63219 0.0
O169 O 0.75236 0.39992 0.62828 0.0
O170 O 0.82115 0.36863 0.61473 0.0
C171 C 0.79959 0.45957 0.68401 0.0
O172 O 0.87868 0.45608 0.63403 0.0
Co173 Co 0.8082 0.54051 0.63729 0.0
O174 O 0.87631 0.53344 0.64611 0.0
C175 C 0.79277 0.49631 0.57215 0.0
C176 C 0.77568 0.36431 0.61691 0.0
C177 C 0.89901 0.49548 0.64104 0.0
O178 O 0.80316 0.45663 0.58554 0.0
O179 O 0.78959 0.53446 0.58893 0.0
O180 O 0.81437 0.41691 0.67942 0.0
O181 O 0.78711 0.48203 0.65729 0.0
Co182 Co 0.56726 0.80976 0.13205 0.0
O183 O 0.59784 0.75035 0.12822 0.0
O184 O 0.63066 0.81831 0.11446 0.0
C185 C 0.53945 0.79902 0.18395 0.0
O186 O 0.54435 0.87791 0.13378 0.0
Co187 Co 0.4585 0.80876 0.13733 0.0
O188 O 0.46703 0.8767 0.14611 0.0
C189 C 0.50223 0.79258 0.07213 0.0
C190 C 0.63394 0.77275 0.11669 0.0
C191 C 0.50528 0.89884 0.14087 0.0
O192 O 0.54213 0.80221 0.08547 0.0
O193 O 0.46405 0.79012 0.08896 0.0
O194 O 0.58239 0.81293 0.17929 0.0
O195 O 0.51671 0.78692 0.15728 0.0
Co196 Co 0.19058 0.56984 0.63253 0.0
O197 O 0.24941 0.60148 0.62849 0.0
O198 O 0.18068 0.63321 0.61531 0.0
C199 C 0.20233 0.54162 0.68423 0.0
O200 O 0.12284 0.54589 0.63451 0.0
Co201 Co 0.19306 0.46107 0.63727 0.0
O202 O 0.125 0.4684 0.6462 0.0
C203 C 0.20808 0.50568 0.5722 0.0
C204 C 0.22619 0.63726 0.61727 0.0
C205 C 0.10241 0.50648 0.64134 0.0
O206 O 0.19796 0.54532 0.58575 0.0
O207 O 0.2113 0.46742 0.58887 0.0
O208 O 0.18774 0.5844 0.67989 0.0
O209 O 0.21445 0.51935 0.65736 0.0
Co210 Co 0.43105 0.19012 0.13276 0.0
O211 O 0.39838 0.24852 0.12921 0.0
O212 O 0.36768 0.17933 0.11594 0.0
C213 C 0.45968 0.20181 0.18435 0.0
O214 O 0.45581 0.12269 0.1343 0.0
Co215 Co 0.53974 0.19333 0.13696 0.0
O216 O 0.53343 0.12504 0.14545 0.0
C217 C 0.49433 0.20891 0.0722 0.0
C218 C 0.36283 0.22472 0.11823 0.0
C219 C 0.49538 0.10234 0.14075 0.0
O220 O 0.45489 0.19827 0.08586 0.0
O221 O 0.53269 0.21224 0.08874 0.0
O222 O 0.41708 0.18665 0.18014 0.0
O223 O 0.48157 0.21445 0.15743 0.0
C224 C 0.02721 0.54182 0.14147 0.0
C225 C 0.05028 0.49796 0.14168 0.0
H226 H 0.96154 0.57874 0.14087 0.0
C227 C 0.02308 0.45688 0.14223 0.0
H228 H 0.04704 0.57429 0.14093 0.0
C229 C 0.97407 0.45954 0.14245 0.0
C230 C 0.95094 0.50336 0.14179 0.0
H231 H 0.0396 0.42259 0.14248 0.0
H232 H 0.95433 0.42701 0.14268 0.0
C233 C 0.97812 0.54448 0.14134 0.0
C234 C 0.45698 0.9786 0.64219 0.0
C235 C 0.49793 0.95118 0.64217 0.0
H236 H 0.42751 0.0476 0.64224 0.0
C237 C 0.5419 0.97402 0.64256 0.0
H238 H 0.42261 0.96225 0.64197 0.0
C239 C 0.54483 0.02305 0.64247 0.0
C240 C 0.50388 0.05048 0.64234 0.0
H241 H 0.5743 0.95405 0.64245 0.0
H242 H 0.5792 0.0394 0.64245 0.0
C243 C 0.45991 0.02763 0.64245 0.0
C244 C 0.02294 0.54494 0.35769 0.0
C245 C 0.05036 0.50397 0.35772 0.0
H246 H 0.95392 0.5744 0.3578 0.0
C247 C 0.0275 0.46001 0.35752 0.0
H248 H 0.0393 0.5793 0.35778 0.0
C249 C 0.97848 0.45708 0.35779 0.0
C250 C 0.95106 0.49804 0.35792 0.0
H251 H 0.04746 0.4276 0.35765 0.0
H252 H 0.96213 0.42272 0.35794 0.0
C253 C 0.9739 0.54201 0.35761 0.0
C254 C 0.45944 0.97406 0.85761 0.0
C255 C 0.50325 0.95093 0.85829 0.0
H256 H 0.42249 0.0396 0.85755 0.0
C257 C 0.54437 0.97812 0.85873 0.0
H258 H 0.4269 0.95433 0.85738 0.0
C259 C 0.54172 0.0272 0.85858 0.0
C260 C 0.49786 0.05028 0.85835 0.0
H261 H 0.57863 0.96154 0.8592 0.0
H262 H 0.57419 0.04703 0.85912 0.0
C263 C 0.45678 0.02308 0.85781 0.0
C264 C 0.97813 0.54449 0.85871 0.0
C265 C 0.95095 0.50336 0.85827 0.0
H266 H 0.04705 0.5743 0.85913 0.0
C267 C 0.97408 0.45955 0.8576 0.0
H268 H 0.96155 0.57874 0.85918 0.0
C269 C 0.02309 0.45689 0.85782 0.0
C270 C 0.05029 0.49797 0.85838 0.0
H271 H 0.95434 0.42701 0.85737 0.0
H272 H 0.03961 0.4226 0.85758 0.0
C273 C 0.02722 0.54183 0.85859 0.0
C274 C 0.54483 0.02306 0.3576 0.0
C275 C 0.50387 0.05048 0.35773 0.0
H276 H 0.5743 0.95406 0.35762 0.0
C277 C 0.4599 0.02763 0.35762 0.0
H278 H 0.57919 0.03941 0.35761 0.0
C279 C 0.45697 0.9786 0.35787 0.0
C280 C 0.49793 0.95118 0.3579 0.0
H281 H 0.4275 0.0476 0.35783 0.0
H282 H 0.42261 0.96225 0.3581 0.0
C283 C 0.5419 0.97403 0.3575 0.0
C284 C 0.97389 0.54202 0.64245 0.0
C285 C 0.95105 0.49805 0.64214 0.0
H286 H 0.03929 0.57931 0.64229 0.0
C287 C 0.97847 0.45709 0.64228 0.0
H288 H 0.95391 0.57441 0.64226 0.0
C289 C 0.0275 0.46002 0.64255 0.0
C290 C 0.05035 0.50399 0.64235 0.0
H291 H 0.96212 0.42272 0.64213 0.0
H292 H 0.04746 0.42761 0.64242 0.0
C293 C 0.02293 0.54495 0.64238 0.0
C294 C 0.54171 0.0272 0.14148 0.0
C295 C 0.49785 0.05028 0.14171 0.0
H296 H 0.57863 0.96154 0.14086 0.0
C297 C 0.45677 0.02308 0.14226 0.0
H298 H 0.57418 0.04703 0.14094 0.0
C299 C 0.45943 0.97406 0.14246 0.0
C300 C 0.50325 0.95093 0.14178 0.0
H301 H 0.42248 0.0396 0.14252 0.0
H302 H 0.4269 0.95433 0.14268 0.0
C303 C 0.54437 0.97812 0.14134 0.0
C304 C 0.20447 0.47156 0.27828 0.0
C305 C 0.20422 0.52047 0.2823 0.0
H306 H 0.20325 0.41404 0.24387 0.0
C307 C 0.20455 0.54945 0.25384 0.0
H308 H 0.20409 0.44848 0.29979 0.0
C309 C 0.20492 0.52983 0.22185 0.0
C310 C 0.20394 0.48091 0.21784 0.0
H311 H 0.20454 0.58736 0.25629 0.0
H312 H 0.2049 0.55289 0.20034 0.0
C313 C 0.20382 0.45195 0.2463 0.0
C314 C 0.47162 0.20463 0.72177 0.0
C315 C 0.52054 0.20431 0.71778 0.0
H316 H 0.41406 0.20345 0.75615 0.0
C317 C 0.54949 0.20457 0.74625 0.0
H318 H 0.44857 0.2043 0.70025 0.0
C319 C 0.52983 0.20494 0.77823 0.0
C320 C 0.48091 0.20402 0.78221 0.0
H321 H 0.5874 0.20451 0.74382 0.0
H322 H 0.55287 0.20486 0.79976 0.0
C323 C 0.45198 0.20397 0.75374 0.0
C324 C 0.79726 0.46997 0.22202 0.0
C325 C 0.79736 0.51883 0.21764 0.0
H326 H 0.7985 0.41297 0.25685 0.0
C327 C 0.79697 0.54822 0.24588 0.0
H328 H 0.79769 0.44659 0.20068 0.0
C329 C 0.7966 0.52908 0.278 0.0
C330 C 0.79761 0.48023 0.28237 0.0
H331 H 0.79687 0.5861 0.24316 0.0
H332 H 0.79652 0.55246 0.29934 0.0
C333 C 0.79788 0.45084 0.25414 0.0
C334 C 0.54823 0.79711 0.7542 0.0
C335 C 0.51881 0.79743 0.78242 0.0
H336 H 0.55251 0.79671 0.70074 0.0
C337 C 0.46996 0.79728 0.77803 0.0
H338 H 0.5861 0.79704 0.75693 0.0
C339 C 0.45085 0.79791 0.7459 0.0
C340 C 0.48027 0.7977 0.71768 0.0
H341 H 0.44656 0.79766 0.79935 0.0
H342 H 0.41298 0.79848 0.74317 0.0
C343 C 0.52911 0.79674 0.72207 0.0
C344 C 0.79726 0.46998 0.77804 0.0
C345 C 0.79737 0.51884 0.78241 0.0
H346 H 0.7985 0.41297 0.7432 0.0
C347 C 0.79698 0.54823 0.75417 0.0
H348 H 0.7977 0.4466 0.79937 0.0
C349 C 0.7966 0.52908 0.72205 0.0
C350 C 0.79761 0.48024 0.71768 0.0
H351 H 0.79688 0.58611 0.75689 0.0
H352 H 0.79652 0.55246 0.70071 0.0
C353 C 0.79788 0.45085 0.74592 0.0
C354 C 0.45086 0.79791 0.25416 0.0
C355 C 0.48028 0.7977 0.28238 0.0
H356 H 0.44656 0.79766 0.20071 0.0
C357 C 0.52912 0.79675 0.27799 0.0
H358 H 0.41299 0.79848 0.2569 0.0
C359 C 0.54824 0.79711 0.24586 0.0
C360 C 0.51882 0.79743 0.21764 0.0
H361 H 0.55252 0.79672 0.29932 0.0
H362 H 0.58611 0.79706 0.24312 0.0
C363 C 0.46997 0.79728 0.22203 0.0
C364 C 0.20493 0.52984 0.77821 0.0
C365 C 0.20395 0.48092 0.78222 0.0
H366 H 0.20453 0.58738 0.74378 0.0
C367 C 0.20383 0.45196 0.75376 0.0
H368 H 0.2049 0.5529 0.79973 0.0
C369 C 0.20448 0.47157 0.72179 0.0
C370 C 0.20422 0.52049 0.71777 0.0
H371 H 0.20327 0.41405 0.75619 0.0
H372 H 0.2041 0.4485 0.70028 0.0
C373 C 0.20455 0.54946 0.74623 0.0
C374 C 0.4716 0.20463 0.27829 0.0
C375 C 0.52052 0.20432 0.28229 0.0
H376 H 0.41405 0.20345 0.24391 0.0
C377 C 0.54947 0.20458 0.25382 0.0
H378 H 0.44855 0.2043 0.29981 0.0
C379 C 0.52982 0.20495 0.22184 0.0
C380 C 0.4809 0.20403 0.21785 0.0
H381 H 0.58739 0.20452 0.25625 0.0
H382 H 0.55286 0.20487 0.20031 0.0
C383 C 0.45196 0.20397 0.24633 0.0
C384 C 0.21598 0.45281 0.98263 0.0
C385 C 0.2148 0.49527 0.9647 0.0
H386 H 0.2157 0.41928 0.03026 0.0
C387 C 0.21612 0.53786 0.98253 0.0
H388 H 0.2157 0.41928 0.96981 0.0
C389 C 0.21612 0.53786 0.01754 0.0
C390 C 0.21479 0.49527 0.03537 0.0
H391 H 0.21545 0.57121 0.96951 0.0
H392 H 0.21545 0.57121 0.03055 0.0
C393 C 0.21598 0.45281 0.01744 0.0
C394 C 0.46228 0.21423 0.48253 0.0
C395 C 0.50489 0.21377 0.46471 0.0
H396 H 0.42896 0.21294 0.53057 0.0
C397 C 0.54732 0.21567 0.48264 0.0
H398 H 0.42895 0.21294 0.4695 0.0
C399 C 0.54733 0.21567 0.51743 0.0
C400 C 0.50489 0.21377 0.53536 0.0
H401 H 0.58085 0.21604 0.46982 0.0
H402 H 0.58086 0.21604 0.53024 0.0
C403 C 0.46228 0.21423 0.51755 0.0
C404 C 0.78293 0.54327 0.01742 0.0
C405 C 0.78684 0.50097 0.03534 0.0
H406 H 0.78103 0.57675 0.96982 0.0
C407 C 0.78826 0.45837 0.01753 0.0
H408 H 0.78103 0.57674 0.03023 0.0
C409 C 0.78826 0.45837 0.98251 0.0
C410 C 0.78684 0.50098 0.96471 0.0
H411 H 0.79113 0.42515 0.03057 0.0
H412 H 0.79114 0.42515 0.96947 0.0
C413 C 0.78293 0.54327 0.98263 0.0
C414 C 0.54036 0.78751 0.51754 0.0
C415 C 0.49774 0.78714 0.53535 0.0
H416 H 0.57364 0.78956 0.46948 0.0
C417 C 0.45536 0.78425 0.51742 0.0
H418 H 0.57364 0.78956 0.53059 0.0
C419 C 0.45536 0.78425 0.48264 0.0
C420 C 0.49774 0.78713 0.46471 0.0
H421 H 0.42184 0.78317 0.53023 0.0
H422 H 0.42185 0.78317 0.46982 0.0
C423 C 0.54037 0.78751 0.48252 0.0
C424 C 0.2157 0.54704 0.48264 0.0
C425 C 0.21359 0.50462 0.46471 0.0
H426 H 0.21623 0.58058 0.53024 0.0
C427 C 0.21384 0.46201 0.48253 0.0
H428 H 0.21624 0.58057 0.46982 0.0
C429 C 0.21384 0.46201 0.51755 0.0
C430 C 0.21359 0.50463 0.53536 0.0
H431 H 0.21238 0.42869 0.4695 0.0
H432 H 0.21238 0.4287 0.53058 0.0
C433 C 0.2157 0.54705 0.51743 0.0
C434 C 0.53773 0.21606 0.98253 0.0
C435 C 0.49514 0.21469 0.9647 0.0
H436 H 0.57108 0.21544 0.03055 0.0
C437 C 0.45268 0.21581 0.98263 0.0
H438 H 0.57108 0.21544 0.96951 0.0
C439 C 0.45268 0.21581 0.01744 0.0
C440 C 0.49515 0.21469 0.03537 0.0
H441 H 0.41915 0.21548 0.96981 0.0
H442 H 0.41915 0.21548 0.03026 0.0
C443 C 0.53773 0.21606 0.01754 0.0
C444 C 0.78711 0.54011 0.48252 0.0
C445 C 0.78695 0.49749 0.46471 0.0
H446 H 0.789 0.5734 0.53058 0.0
C447 C 0.78426 0.4551 0.48263 0.0
H448 H 0.789 0.5734 0.46948 0.0
C449 C 0.78426 0.4551 0.51742 0.0
C450 C 0.78694 0.49749 0.53535 0.0
H451 H 0.78333 0.42158 0.46982 0.0
H452 H 0.78333 0.42158 0.53023 0.0
C453 C 0.78711 0.54011 0.51754 0.0
C454 C 0.45825 0.78821 0.01754 0.0
C455 C 0.50085 0.78675 0.03534 0.0
H456 H 0.42504 0.79112 0.96948 0.0
C457 C 0.54314 0.78278 0.01742 0.0
H458 H 0.42504 0.79112 0.03058 0.0
C459 C 0.54314 0.78278 0.98264 0.0
C460 C 0.50085 0.78675 0.96472 0.0
H461 H 0.57662 0.78085 0.03024 0.0
H462 H 0.57662 0.78085 0.96982 0.0
C463 C 0.45825 0.7882 0.98252 0.0
C464 C 0.24292 0.27792 0.12703 0.0
C465 C 0.24996 0.31977 0.1091 0.0
H466 H 0.27422 0.21311 0.1436 0.0
C467 C 0.28951 0.32413 0.08849 0.0
H468 H 0.21303 0.27434 0.14359 0.0
C469 C 0.32409 0.28953 0.0885 0.0
C470 C 0.3197 0.24999 0.10912 0.0
H471 H 0.29568 0.35627 0.07463 0.0
H472 H 0.35624 0.29568 0.07465 0.0
C473 C 0.27783 0.24298 0.12704 0.0
C474 C 0.75824 0.27855 0.62327 0.0
C475 C 0.74975 0.32173 0.60735 0.0
H476 H 0.72824 0.21248 0.63859 0.0
C477 C 0.70864 0.3275 0.58853 0.0
H478 H 0.78947 0.27374 0.63835 0.0
C479 C 0.67407 0.29294 0.58867 0.0
C480 C 0.67999 0.25197 0.60763 0.0
H481 H 0.70139 0.36058 0.57612 0.0
H482 H 0.64091 0.30009 0.57635 0.0
C483 C 0.7233 0.24361 0.62341 0.0
C484 C 0.75507 0.72017 0.12113 0.0
C485 C 0.74564 0.6759 0.10708 0.0
H486 H 0.72601 0.78737 0.13487 0.0
C487 C 0.70334 0.66884 0.08987 0.0
H488 H 0.78731 0.72608 0.13489 0.0
C489 C 0.66879 0.70339 0.08986 0.0
C490 C 0.67584 0.7457 0.10706 0.0
H491 H 0.69539 0.63498 0.07882 0.0
H492 H 0.63495 0.69542 0.0788 0.0
C493 C 0.72011 0.75513 0.12112 0.0
C494 C 0.24375 0.72313 0.62306 0.0
C495 C 0.25229 0.67967 0.60753 0.0
H496 H 0.27371 0.78947 0.63781 0.0
C497 C 0.29343 0.67359 0.5888 0.0
H498 H 0.21247 0.7282 0.63804 0.0
C499 C 0.32798 0.70817 0.58865 0.0
C500 C 0.32202 0.74946 0.60724 0.0
H501 H 0.3007 0.64032 0.57666 0.0
H502 H 0.36117 0.70082 0.57642 0.0
C503 C 0.27868 0.75809 0.62292 0.0
C504 C 0.32801 0.70814 0.4114 0.0
C505 C 0.32204 0.74944 0.39282 0.0
H506 H 0.30075 0.64029 0.42338 0.0
C507 C 0.27869 0.75807 0.37716 0.0
H508 H 0.36121 0.70079 0.42362 0.0
C509 C 0.24376 0.72312 0.37702 0.0
C510 C 0.25231 0.67965 0.39254 0.0
H511 H 0.27372 0.78946 0.36228 0.0
H512 H 0.21247 0.7282 0.36205 0.0
C513 C 0.29347 0.67356 0.41126 0.0
C514 C 0.32406 0.28949 0.91157 0.0
C515 C 0.31969 0.24997 0.89093 0.0
H516 H 0.29564 0.35622 0.92546 0.0
C517 C 0.27784 0.24299 0.87298 0.0
H518 H 0.3562 0.29562 0.92544 0.0
C519 C 0.24293 0.27792 0.87299 0.0
C520 C 0.24995 0.31976 0.89095 0.0
H521 H 0.27426 0.21313 0.8564 0.0
H522 H 0.21306 0.27436 0.85641 0.0
C523 C 0.28948 0.32409 0.91158 0.0
C524 C 0.67404 0.29297 0.41138 0.0
C525 C 0.67997 0.25199 0.39243 0.0
H526 H 0.70136 0.36061 0.42392 0.0
C527 C 0.72328 0.24361 0.37666 0.0
H528 H 0.64087 0.30012 0.42369 0.0
C529 C 0.75823 0.27855 0.3768 0.0
C530 C 0.74974 0.32174 0.39271 0.0
H531 H 0.72822 0.21248 0.3615 0.0
H532 H 0.78947 0.27372 0.36173 0.0
C533 C 0.70862 0.32753 0.41152 0.0
C534 C 0.70337 0.66884 0.91018 0.0
C535 C 0.74566 0.67591 0.89298 0.0
H536 H 0.63496 0.6954 0.92125 0.0
C537 C 0.75508 0.72018 0.87892 0.0
H538 H 0.69542 0.63498 0.92124 0.0
C539 C 0.7201 0.75514 0.87893 0.0
C540 C 0.67584 0.74569 0.89299 0.0
H541 H 0.78731 0.7261 0.86516 0.0
H542 H 0.726 0.78737 0.86518 0.0
C543 C 0.6688 0.70338 0.91019 0.0
loop_
_geom_bond_atom_site_label_1
_geom_bond_atom_site_label_2
_geom_bond_distance
_geom_bond_site_symmetry_2
_ccdc_geom_bond_type
Co0 O1 2.216 . S
Co0 O2 2.091 . S
Co0 O4 2.004 . S
Co0 O10 2.021 . S
Co0 O12 2.137 . S
Co0 O13 2.244 . S
O1 Co0 2.216 . S
O1 C8 1.247 . S
O2 Co0 2.091 . S
O2 C8 1.261 . S
C3 O12 1.247 . S
C3 O13 1.272 . S
O4 Co0 2.004 . S
O4 C9 1.259 . S
Co5 O6 2.061 . S
Co5 O11 2.052 . S
Co5 O13 2.135 . S
O6 Co5 2.061 . S
O6 C9 1.235 . S
C7 O10 1.238 . S
C7 O11 1.241 . S
C8 O1 1.247 . S
C8 O2 1.261 . S
C9 O4 1.259 . S
C9 O6 1.235 . S
O10 Co0 2.021 . S
O10 C7 1.238 . S
O11 Co5 2.052 . S
O11 C7 1.241 . S
O12 Co0 2.137 . S
O12 C3 1.247 . S
O13 Co0 2.244 . S
O13 C3 1.272 . S
O13 Co5 2.135 . S
Co14 O15 2.216 . S
Co14 O16 2.091 . S
Co14 O18 2.004 . S
Co14 O24 2.021 . S
Co14 O26 2.137 . S
Co14 O27 2.244 . S
O15 Co14 2.216 . S
O15 C22 1.247 . S
O16 Co14 2.091 . S
O16 C22 1.261 . S
C17 O26 1.247 . S
C17 O27 1.272 . S
O18 Co14 2.004 . S
O18 C23 1.259 . S
Co19 O20 2.061 . S
Co19 O25 2.052 . S
Co19 O27 2.135 . S
O20 Co19 2.061 . S
O20 C23 1.235 . S
C21 O24 1.238 . S
C21 O25 1.241 . S
C22 O15 1.247 . S
C22 O16 1.261 . S
C23 O18 1.259 . S
C23 O20 1.235 . S
O24 Co14 2.021 . S
O24 C21 1.238 . S
O25 Co19 2.052 . S
O25 C21 1.241 . S
O26 Co14 2.137 . S
O26 C17 1.247 . S
O27 Co14 2.244 . S
O27 C17 1.272 . S
O27 Co19 2.135 . S
Co28 O29 2.216 . S
Co28 O30 2.091 . S
Co28 O32 2.004 . S
Co28 O38 2.021 . S
Co28 O40 2.137 . S
Co28 O41 2.244 . S
O29 Co28 2.216 . S
O29 C36 1.247 . S
O30 Co28 2.091 . S
O30 C36 1.261 . S
C31 O40 1.247 . S
C31 O41 1.272 . S
O32 Co28 2.004 . S
O32 C37 1.259 . S
Co33 O34 2.061 . S
Co33 O39 2.052 . S
Co33 O41 2.135 . S
O34 Co33 2.061 . S
O34 C37 1.235 . S
C35 O38 1.238 . S
C35 O39 1.241 . S
C36 O29 1.247 . S
C36 O30 1.261 . S
C37 O32 1.259 . S
C37 O34 1.235 . S
O38 Co28 2.021 . S
O38 C35 1.238 . S
O39 Co33 2.052 . S
O39 C35 1.241 . S
O40 Co28 2.137 . S
O40 C31 1.247 . S
O41 Co28 2.244 . S
O41 C31 1.272 . S
O41 Co33 2.135 . S
Co42 O43 2.216 . S
Co42 O44 2.091 . S
Co42 O46 2.004 . S
Co42 O52 2.021 . S
Co42 O54 2.137 . S
Co42 O55 2.244 . S
O43 Co42 2.216 . S
O43 C50 1.247 . S
O44 Co42 2.091 . S
O44 C50 1.261 . S
C45 O54 1.247 . S
C45 O55 1.272 . S
O46 Co42 2.004 . S
O46 C51 1.259 . S
Co47 O48 2.061 . S
Co47 O53 2.052 . S
Co47 O55 2.135 . S
O48 Co47 2.061 . S
O48 C51 1.235 . S
C49 O52 1.238 . S
C49 O53 1.241 . S
C50 O43 1.247 . S
C50 O44 1.261 . S
C51 O46 1.259 . S
C51 O48 1.235 . S
O52 Co42 2.021 . S
O52 C49 1.238 . S
O53 Co47 2.052 . S
O53 C49 1.241 . S
O54 Co42 2.137 . S
O54 C45 1.247 . S
O55 Co42 2.244 . S
O55 C45 1.272 . S
O55 Co47 2.135 . S
Co56 O57 2.216 . S
Co56 O58 2.091 . S
Co56 O60 2.004 . S
Co56 O66 2.021 . S
Co56 O68 2.137 . S
Co56 O69 2.244 . S
O57 Co56 2.216 . S
O57 C64 1.247 . S
O58 Co56 2.091 . S
O58 C64 1.261 . S
C59 O68 1.247 . S
C59 O69 1.272 . S
O60 Co56 2.004 . S
O60 C65 1.259 . S
Co61 O62 2.061 . S
Co61 O67 2.052 . S
Co61 O69 2.135 . S
O62 Co61 2.061 . S
O62 C65 1.235 . S
C63 O66 1.238 . S
C63 O67 1.241 . S
C64 O57 1.247 . S
C64 O58 1.261 . S
C65 O60 1.259 . S
C65 O62 1.235 . S
O66 Co56 2.021 . S
O66 C63 1.238 . S
O67 Co61 2.052 . S
O67 C63 1.241 . S
O68 Co56 2.137 . S
O68 C59 1.247 . S
O69 Co56 2.244 . S
O69 C59 1.272 . S
O69 Co61 2.135 . S
Co70 O71 2.216 . S
Co70 O72 2.091 . S
Co70 O74 2.004 . S
Co70 O80 2.021 . S
Co70 O82 2.137 . S
Co70 O83 2.244 . S
O71 Co70 2.216 . S
O71 C78 1.247 . S
O72 Co70 2.091 . S
O72 C78 1.261 . S
C73 O82 1.247 . S
C73 O83 1.272 . S
O74 Co70 2.004 . S
O74 C79 1.259 . S
Co75 O76 2.061 . S
Co75 O81 2.052 . S
Co75 O83 2.135 . S
O76 Co75 2.061 . S
O76 C79 1.235 . S
C77 O80 1.238 . S
C77 O81 1.241 . S
C78 O71 1.247 . S
C78 O72 1.261 . S
C79 O74 1.259 . S
C79 O76 1.235 . S
O80 Co70 2.021 . S
O80 C77 1.238 . S
O81 Co75 2.052 . S
O81 C77 1.241 . S
O82 Co70 2.137 . S
O82 C73 1.247 . S
O83 Co70 2.244 . S
O83 C73 1.272 . S
O83 Co75 2.135 . S
Co84 O85 2.216 . S
Co84 O86 2.091 . S
Co84 O88 2.004 . S
Co84 O94 2.021 . S
Co84 O96 2.137 . S
Co84 O97 2.244 . S
O85 Co84 2.216 . S
O85 C92 1.247 . S
O86 Co84 2.091 . S
O86 C92 1.261 . S
C87 O96 1.247 . S
C87 O97 1.272 . S
O88 Co84 2.004 . S
O88 C93 1.259 . S
Co89 O90 2.061 . S
Co89 O95 2.052 . S
Co89 O97 2.135 . S
O90 Co89 2.061 . S
O90 C93 1.235 . S
C91 O94 1.238 . S
C91 O95 1.241 . S
C92 O85 1.247 . S
C92 O86 1.261 . S
C93 O88 1.259 . S
C93 O90 1.235 . S
O94 Co84 2.021 . S
O94 C91 1.238 . S
O95 Co89 2.052 . S
O95 C91 1.241 . S
O96 Co84 2.137 . S
O96 C87 1.247 . S
O97 Co84 2.244 . S
O97 C87 1.272 . S
O97 Co89 2.135 . S
Co98 O99 2.216 . S
Co98 O100 2.091 . S
Co98 O102 2.004 . S
Co98 O108 2.021 . S
Co98 O110 2.137 . S
Co98 O111 2.244 . S
O99 Co98 2.216 . S
O99 C106 1.247 . S
O100 Co98 2.091 . S
O100 C106 1.261 . S
C101 O110 1.247 . S
C101 O111 1.272 . S
O102 Co98 2.004 . S
O102 C107 1.259 . S
Co103 O104 2.061 . S
Co103 O109 2.052 . S
Co103 O111 2.135 . S
O104 Co103 2.061 . S
O104 C107 1.235 . S
C105 O108 1.238 . S
C105 O109 1.241 . S
C106 O99 1.247 . S
C106 O100 1.261 . S
C107 O102 1.259 . S
C107 O104 1.235 . S
O108 Co98 2.021 . S
O108 C105 1.238 . S
O109 Co103 2.052 . S
O109 C105 1.241 . S
O110 Co98 2.137 . S
O110 C101 1.247 . S
O111 Co98 2.244 . S
O111 C101 1.272 . S
O111 Co103 2.135 . S
Co112 O113 2.216 . S
Co112 O114 2.091 . S
Co112 O116 2.004 . S
Co112 O122 2.021 . S
Co112 O124 2.137 . S
Co112 O125 2.244 . S
O113 Co112 2.216 . S
O113 C120 1.247 . S
O114 Co112 2.091 . S
O114 C120 1.261 . S
C115 O124 1.247 . S
C115 O125 1.272 . S
O116 Co112 2.004 . S
O116 C121 1.259 . S
Co117 O118 2.061 . S
Co117 O123 2.052 . S
Co117 O125 2.135 . S
O118 Co117 2.061 . S
O118 C121 1.235 . S
C119 O122 1.238 . S
C119 O123 1.241 . S
C120 O113 1.247 . S
C120 O114 1.261 . S
C121 O116 1.259 . S
C121 O118 1.235 . S
O122 Co112 2.021 . S
O122 C119 1.238 . S
O123 Co117 2.052 . S
O123 C119 1.241 . S
O124 Co112 2.137 . S
O124 C115 1.247 . S
O125 Co112 2.244 . S
O125 C115 1.272 . S
O125 Co117 2.135 . S
Co126 O127 2.216 . S
Co126 O128 2.091 . S
Co126 O130 2.004 . S
Co126 O136 2.021 . S
Co126 O138 2.137 . S
Co126 O139 2.244 . S
O127 Co126 2.216 . S
O127 C134 1.247 . S
O128 Co126 2.091 . S
O128 C134 1.261 . S
C129 O138 1.247 . S
C129 O139 1.272 . S
O130 Co126 2.004 . S
O130 C135 1.259 . S
Co131 O132 2.061 . S
Co131 O137 2.052 . S
Co131 O139 2.135 . S
O132 Co131 2.061 . S
O132 C135 1.235 . S
C133 O136 1.238 . S
C133 O137 1.241 . S
C134 O127 1.247 . S
C134 O128 1.261 . S
C135 O130 1.259 . S
C135 O132 1.235 . S
O136 Co126 2.021 . S
O136 C133 1.238 . S
O137 Co131 2.052 . S
O137 C133 1.241 . S
O138 Co126 2.137 . S
O138 C129 1.247 . S
O139 Co126 2.244 . S
O139 C129 1.272 . S
O139 Co131 2.135 . S
Co140 O141 2.216 . S
Co140 O142 2.091 . S
Co140 O144 2.004 . S
Co140 O150 2.021 . S
Co140 O152 2.137 . S
Co140 O153 2.244 . S
O141 Co140 2.216 . S
O141 C148 1.247 . S
O142 Co140 2.091 . S
O142 C148 1.261 . S
C143 O152 1.247 . S
C143 O153 1.272 . S
O144 Co140 2.004 . S
O144 C149 1.259 . S
Co145 O146 2.061 . S
Co145 O151 2.052 . S
Co145 O153 2.135 . S
O146 Co145 2.061 . S
O146 C149 1.235 . S
C147 O150 1.238 . S
C147 O151 1.241 . S
C148 O141 1.247 . S
C148 O142 1.261 . S
C149 O144 1.259 . S
C149 O146 1.235 . S
O150 Co140 2.021 . S
O150 C147 1.238 . S
O151 Co145 2.052 . S
O151 C147 1.241 . S
O152 Co140 2.137 . S
O152 C143 1.247 . S
O153 Co140 2.244 . S
O153 C143 1.272 . S
O153 Co145 2.135 . S
Co154 O155 2.216 . S
Co154 O156 2.091 . S
Co154 O158 2.004 . S
Co154 O164 2.021 . S
Co154 O166 2.137 . S
Co154 O167 2.244 . S
O155 Co154 2.216 . S
O155 C162 1.247 . S
O156 Co154 2.091 . S
O156 C162 1.261 . S
C157 O166 1.247 . S
C157 O167 1.272 . S
O158 Co154 2.004 . S
O158 C163 1.259 . S
Co159 O160 2.061 . S
Co159 O165 2.052 . S
Co159 O167 2.135 . S
O160 Co159 2.061 . S
O160 C163 1.235 . S
C161 O164 1.238 . S
C161 O165 1.241 . S
C162 O155 1.247 . S
C162 O156 1.261 . S
C163 O158 1.259 . S
C163 O160 1.235 . S
O164 Co154 2.021 . S
O164 C161 1.238 . S
O165 Co159 2.052 . S
O165 C161 1.241 . S
O166 Co154 2.137 . S
O166 C157 1.247 . S
O167 Co154 2.244 . S
O167 C157 1.272 . S
O167 Co159 2.135 . S
Co168 O169 2.216 . S
Co168 O170 2.091 . S
Co168 O172 2.004 . S
Co168 O178 2.021 . S
Co168 O180 2.137 . S
Co168 O181 2.244 . S
O169 Co168 2.216 . S
O169 C176 1.247 . S
O170 Co168 2.091 . S
O170 C176 1.261 . S
C171 O180 1.247 . S
C171 O181 1.272 . S
O172 Co168 2.004 . S
O172 C177 1.259 . S
Co173 O174 2.061 . S
Co173 O179 2.052 . S
Co173 O181 2.135 . S
O174 Co173 2.061 . S
O174 C177 1.235 . S
C175 O178 1.238 . S
C175 O179 1.241 . S
C176 O169 1.247 . S
C176 O170 1.261 . S
C177 O172 1.259 . S
C177 O174 1.235 . S
O178 Co168 2.021 . S
O178 C175 1.238 . S
O179 Co173 2.052 . S
O179 C175 1.241 . S
O180 Co168 2.137 . S
O180 C171 1.247 . S
O181 Co168 2.244 . S
O181 C171 1.272 . S
O181 Co173 2.135 . S
Co182 O183 2.216 . S
Co182 O184 2.091 . S
Co182 O186 2.004 . S
Co182 O192 2.021 . S
Co182 O194 2.137 . S
Co182 O195 2.244 . S
O183 Co182 2.216 . S
O183 C190 1.247 . S
O184 Co182 2.091 . S
O184 C190 1.261 . S
C185 O194 1.247 . S
C185 O195 1.272 . S
O186 Co182 2.004 . S
O186 C191 1.259 . S
Co187 O188 2.061 . S
Co187 O193 2.052 . S
Co187 O195 2.135 . S
O188 Co187 2.061 . S
O188 C191 1.235 . S
C189 O192 1.238 . S
C189 O193 1.241 . S
C190 O183 1.247 . S
C190 O184 1.261 . S
C191 O186 1.259 . S
C191 O188 1.235 . S
O192 Co182 2.021 . S
O192 C189 1.238 . S
O193 Co187 2.052 . S
O193 C189 1.241 . S
O194 Co182 2.137 . S
O194 C185 1.247 . S
O195 Co182 2.244 . S
O195 C185 1.272 . S
O195 Co187 2.135 . S
Co196 O197 2.216 . S
Co196 O198 2.091 . S
Co196 O200 2.004 . S
Co196 O206 2.021 . S
Co196 O208 2.137 . S
Co196 O209 2.244 . S
O197 Co196 2.216 . S
O197 C204 1.247 . S
O198 Co196 2.091 . S
O198 C204 1.261 . S
C199 O208 1.247 . S
C199 O209 1.272 . S
O200 Co196 2.004 . S
O200 C205 1.259 . S
Co201 O202 2.061 . S
Co201 O207 2.052 . S
Co201 O209 2.135 . S
O202 Co201 2.061 . S
O202 C205 1.235 . S
C203 O206 1.238 . S
C203 O207 1.241 . S
C204 O197 1.247 . S
C204 O198 1.261 . S
C205 O200 1.259 . S
C205 O202 1.235 . S
O206 Co196 2.021 . S
O206 C203 1.238 . S
O207 Co201 2.052 . S
O207 C203 1.241 . S
O208 Co196 2.137 . S
O208 C199 1.247 . S
O209 Co196 2.244 . S
O209 C199 1.272 . S
O209 Co201 2.135 . S
Co210 O211 2.216 . S
Co210 O212 2.091 . S
Co210 O214 2.004 . S
Co210 O220 2.021 . S
Co210 O222 2.137 . S
Co210 O223 2.244 . S
O211 Co210 2.216 . S
O211 C218 1.247 . S
O212 Co210 2.091 . S
O212 C218 1.261 . S
C213 O222 1.247 . S
C213 O223 1.272 . S
O214 Co210 2.004 . S
O214 C219 1.259 . S
Co215 O216 2.061 . S
Co215 O221 2.052 . S
Co215 O223 2.135 . S
O216 Co215 2.061 . S
O216 C219 1.235 . S
C217 O220 1.238 . S
C217 O221 1.241 . S
C218 O211 1.247 . S
C218 O212 1.261 . S
C219 O214 1.259 . S
C219 O216 1.235 . S
O220 Co210 2.021 . S
O220 C217 1.238 . S
O221 Co215 2.052 . S
O221 C217 1.241 . S
O222 Co210 2.137 . S
O222 C213 1.247 . S
O223 Co210 2.244 . S
O223 C213 1.272 . S
O223 Co215 2.135 . S
C224 C225 1.387 . S
C224 H228 0.950 . S
C224 C233 1.390 1_455 S
C225 C224 1.387 . S
C225 C227 1.387 . S
H226 C233 0.950 . S
C227 C225 1.387 . S
C227 C229 1.390 1_455 S
C227 H231 0.950 . S
H228 C224 0.950 . S
C229 C227 1.390 1_655 S
C229 C230 1.387 . S
C229 H232 0.950 . S
C230 C229 1.387 . S
C230 C233 1.387 . S
H231 C227 0.950 . S
H232 C229 0.950 . S
C233 C224 1.390 1_655 S
C233 H226 0.950 . S
C233 C230 1.387 . S
C234 C235 1.387 . S
C234 H238 0.950 . S
C234 C243 1.390 1_565 S
C235 C234 1.387 . S
C235 C237 1.387 . S
H236 C243 0.950 . S
C237 C235 1.387 . S
C237 C239 1.390 1_565 S
C237 H241 0.950 . S
H238 C234 0.950 . S
C239 C237 1.390 1_545 S
C239 C240 1.387 . S
C239 H242 0.950 . S
C240 C239 1.387 . S
C240 C243 1.387 . S
H241 C237 0.950 . S
H242 C239 0.950 . S
C243 C234 1.390 1_545 S
C243 H236 0.950 . S
C243 C240 1.387 . S
C244 C245 1.387 . S
C244 H248 0.950 . S
C244 C253 1.390 1_455 S
C245 C244 1.387 . S
C245 C247 1.387 . S
H246 C253 0.950 . S
C247 C245 1.387 . S
C247 C249 1.390 1_455 S
C247 H251 0.950 . S
H248 C244 0.950 . S
C249 C247 1.390 1_655 S
C249 C250 1.387 . S
C249 H252 0.950 . S
C250 C249 1.387 . S
C250 C253 1.387 . S
H251 C247 0.950 . S
H252 C249 0.950 . S
C253 C244 1.390 1_655 S
C253 H246 0.950 . S
C253 C250 1.387 . S
C254 C255 1.387 . S
C254 H258 0.950 . S
C254 C263 1.390 1_565 S
C255 C254 1.387 . S
C255 C257 1.387 . S
H256 C263 0.950 . S
C257 C255 1.387 . S
C257 C259 1.390 1_565 S
C257 H261 0.950 . S
H258 C254 0.950 . S
C259 C257 1.390 1_545 S
C259 C260 1.387 . S
C259 H262 0.950 . S
C260 C259 1.387 . S
C260 C263 1.387 . S
H261 C257 0.950 . S
H262 C259 0.950 . S
C263 C254 1.390 1_545 S
C263 H256 0.950 . S
C263 C260 1.387 . S
C264 C265 1.387 . S
C264 H268 0.950 . S
C264 C273 1.390 1_655 S
C265 C264 1.387 . S
C265 C267 1.387 . S
H266 C273 0.950 . S
C267 C265 1.387 . S
C267 C269 1.390 1_655 S
C267 H271 0.950 . S
H268 C264 0.950 . S
C269 C267 1.390 1_455 S
C269 C270 1.387 . S
C269 H272 0.950 . S
C270 C269 1.387 . S
C270 C273 1.387 . S
H271 C267 0.950 . S
H272 C269 0.950 . S
C273 C264 1.390 1_455 S
C273 H266 0.950 . S
C273 C270 1.387 . S
C274 C275 1.387 . S
C274 H278 0.950 . S
C274 C283 1.390 1_545 S
C275 C274 1.387 . S
C275 C277 1.387 . S
H276 C283 0.950 . S
C277 C275 1.387 . S
C277 C279 1.390 1_545 S
C277 H281 0.950 . S
H278 C274 0.950 . S
C279 C277 1.390 1_565 S
C279 C280 1.387 . S
C279 H282 0.950 . S
C280 C279 1.387 . S
C280 C283 1.387 . S
H281 C277 0.950 . S
H282 C279 0.950 . S
C283 C274 1.390 1_565 S
C283 H276 0.950 . S
C283 C280 1.387 . S
C284 C285 1.387 . S
C284 H288 0.950 . S
C284 C293 1.390 1_655 S
C285 C284 1.387 . S
C285 C287 1.387 . S
H286 C293 0.950 . S
C287 C285 1.387 . S
C287 C289 1.390 1_655 S
C287 H291 0.950 . S
H288 C284 0.950 . S
C289 C287 1.390 1_455 S
C289 C290 1.387 . S
C289 H292 0.950 . S
C290 C289 1.387 . S
C290 C293 1.387 . S
H291 C287 0.950 . S
H292 C289 0.950 . S
C293 C284 1.390 1_455 S
C293 H286 0.950 . S
C293 C290 1.387 . S
C294 C295 1.387 . S
C294 H298 0.950 . S
C294 C303 1.390 1_545 S
C295 C294 1.387 . S
C295 C297 1.387 . S
H296 C303 0.950 . S
C297 C295 1.387 . S
C297 C299 1.390 1_545 S
C297 H301 0.950 . S
H298 C294 0.950 . S
C299 C297 1.390 1_565 S
C299 C300 1.387 . S
C299 H302 0.950 . S
C300 C299 1.387 . S
C300 C303 1.387 . S
H301 C297 0.950 . S
H302 C299 0.950 . S
C303 C294 1.390 1_565 S
C303 H296 0.950 . S
C303 C300 1.387 . S
C304 C305 1.387 . S
C304 H308 0.950 . S
C304 C313 1.390 . S
C305 C304 1.387 . S
C305 C307 1.387 . S
H306 C313 0.950 . S
C307 C305 1.387 . S
C307 C309 1.390 . S
C307 H311 0.950 . S
H308 C304 0.950 . S
C309 C307 1.390 . S
C309 C310 1.387 . S
C309 H312 0.950 . S
C310 C309 1.387 . S
C310 C313 1.387 . S
H311 C307 0.950 . S
H312 C309 0.950 . S
C313 C304 1.390 . S
C313 H306 0.950 . S
C313 C310 1.387 . S
C314 C315 1.387 . S
C314 H318 0.950 . S
C314 C323 1.390 . S
C315 C314 1.387 . S
C315 C317 1.387 . S
H316 C323 0.950 . S
C317 C315 1.387 . S
C317 C319 1.390 . S
C317 H321 0.950 . S
H318 C314 0.950 . S
C319 C317 1.390 . S
C319 C320 1.387 . S
C319 H322 0.950 . S
C320 C319 1.387 . S
C320 C323 1.387 . S
H321 C317 0.950 . S
H322 C319 0.950 . S
C323 C314 1.390 . S
C323 H316 0.950 . S
C323 C320 1.387 . S
C324 C325 1.387 . S
C324 H328 0.950 . S
C324 C333 1.390 . S
C325 C324 1.387 . S
C325 C327 1.387 . S
H326 C333 0.950 . S
C327 C325 1.387 . S
C327 C329 1.390 . S
C327 H331 0.950 . S
H328 C324 0.950 . S
C329 C327 1.390 . S
C329 C330 1.387 . S
C329 H332 0.950 . S
C330 C329 1.387 . S
C330 C333 1.387 . S
H331 C327 0.950 . S
H332 C329 0.950 . S
C333 C324 1.390 . S
C333 H326 0.950 . S
C333 C330 1.387 . S
C334 C335 1.387 . S
C334 H338 0.950 . S
C334 C343 1.390 . S
C335 C334 1.387 . S
C335 C337 1.387 . S
H336 C343 0.950 . S
C337 C335 1.387 . S
C337 C339 1.390 . S
C337 H341 0.950 . S
H338 C334 0.950 . S
C339 C337 1.390 . S
C339 C340 1.387 . S
C339 H342 0.950 . S
C340 C339 1.387 . S
C340 C343 1.387 . S
H341 C337 0.950 . S
H342 C339 0.950 . S
C343 C334 1.390 . S
C343 H336 0.950 . S
C343 C340 1.387 . S
C344 C345 1.387 . S
C344 H348 0.950 . S
C344 C353 1.390 . S
C345 C344 1.387 . S
C345 C347 1.387 . S
H346 C353 0.950 . S
C347 C345 1.387 . S
C347 C349 1.390 . S
C347 H351 0.950 . S
H348 C344 0.950 . S
C349 C347 1.390 . S
C349 C350 1.387 . S
C349 H352 0.950 . S
C350 C349 1.387 . S
C350 C353 1.387 . S
H351 C347 0.950 . S
H352 C349 0.950 . S
C353 C344 1.390 . S
C353 H346 0.950 . S
C353 C350 1.387 . S
C354 C355 1.387 . S
C354 H358 0.950 . S
C354 C363 1.390 . S
C355 C354 1.387 . S
C355 C357 1.387 . S
H356 C363 0.950 . S
C357 C355 1.387 . S
C357 C359 1.390 . S
C357 H361 0.950 . S
H358 C354 0.950 . S
C359 C357 1.390 . S
C359 C360 1.387 . S
C359 H362 0.950 . S
C360 C359 1.387 . S
C360 C363 1.387 . S
H361 C357 0.950 . S
H362 C359 0.950 . S
C363 C354 1.390 . S
C363 H356 0.950 . S
C363 C360 1.387 . S
C364 C365 1.387 . S
C364 H368 0.950 . S
C364 C373 1.390 . S
C365 C364 1.387 . S
C365 C367 1.387 . S
H366 C373 0.950 . S
C367 C365 1.387 . S
C367 C369 1.390 . S
C367 H371 0.950 . S
H368 C364 0.950 . S
C369 C367 1.390 . S
C369 C370 1.387 . S
C369 H372 0.950 . S
C370 C369 1.387 . S
C370 C373 1.387 . S
H371 C367 0.950 . S
H372 C369 0.950 . S
C373 C364 1.390 . S
C373 H366 0.950 . S
C373 C370 1.387 . S
C374 C375 1.387 . S
C374 H378 0.950 . S
C374 C383 1.390 . S
C375 C374 1.387 . S
C375 C377 1.387 . S
H376 C383 0.950 . S
C377 C375 1.387 . S
C377 C379 1.390 . S
C377 H381 0.950 . S
H378 C374 0.950 . S
C379 C377 1.390 . S
C379 C380 1.387 . S
C379 H382 0.950 . S
C380 C379 1.387 . S
C380 C383 1.387 . S
H381 C377 0.950 . S
H382 C379 0.950 . S
C383 C374 1.390 . S
C383 H376 0.950 . S
C383 C380 1.387 . S
C384 C385 1.387 . S
C384 H388 0.950 . S
C384 C393 1.390 1_556 S
C385 C384 1.387 . S
C385 C387 1.387 . S
H386 C393 0.950 . S
C387 C385 1.387 . S
C387 C389 1.390 1_556 S
C387 H391 0.950 . S
H388 C384 0.950 . S
C389 C387 1.390 1_554 S
C389 C390 1.387 . S
C389 H392 0.950 . S
C390 C389 1.387 . S
C390 C393 1.387 . S
H391 C387 0.950 . S
H392 C389 0.950 . S
C393 C384 1.390 1_554 S
C393 H386 0.950 . S
C393 C390 1.387 . S
C394 C395 1.387 . S
C394 H398 0.950 . S
C394 C403 1.390 . S
C395 C394 1.387 . S
C395 C397 1.387 . S
H396 C403 0.950 . S
C397 C395 1.387 . S
C397 C399 1.390 . S
C397 H401 0.950 . S
H398 C394 0.950 . S
C399 C397 1.390 . S
C399 C400 1.387 . S
C399 H402 0.950 . S
C400 C399 1.387 . S
C400 C403 1.387 . S
H401 C397 0.950 . S
H402 C399 0.950 . S
C403 C394 1.390 . S
C403 H396 0.950 . S
C403 C400 1.387 . S
C404 C405 1.387 . S
C404 H408 0.950 . S
C404 C413 1.390 1_554 S
C405 C404 1.387 . S
C405 C407 1.387 . S
H406 C413 0.950 . S
C407 C405 1.387 . S
C407 C409 1.390 1_554 S
C407 H411 0.950 . S
H408 C404 0.950 . S
C409 C407 1.390 1_556 S
C409 C410 1.387 . S
C409 H412 0.950 . S
C410 C409 1.387 . S
C410 C413 1.387 . S
H411 C407 0.950 . S
H412 C409 0.950 . S
C413 C404 1.390 1_556 S
C413 H406 0.950 . S
C413 C410 1.387 . S
C414 C415 1.387 . S
C414 H418 0.950 . S
C414 C423 1.390 . S
C415 C414 1.387 . S
C415 C417 1.387 . S
H416 C423 0.950 . S
C417 C415 1.387 . S
C417 C419 1.390 . S
C417 H421 0.950 . S
H418 C414 0.950 . S
C419 C417 1.390 . S
C419 C420 1.387 . S
C419 H422 0.950 . S
C420 C419 1.387 . S
C420 C423 1.387 . S
H421 C417 0.950 . S
H422 C419 0.950 . S
C423 C414 1.390 . S
C423 H416 0.950 . S
C423 C420 1.387 . S
C424 C425 1.387 . S
C424 H428 0.950 . S
C424 C433 1.390 . S
C425 C424 1.387 . S
C425 C427 1.387 . S
H426 C433 0.950 . S
C427 C425 1.387 . S
C427 C429 1.390 . S
C427 H431 0.950 . S
H428 C424 0.950 . S
C429 C427 1.390 . S
C429 C430 1.387 . S
C429 H432 0.950 . S
C430 C429 1.387 . S
C430 C433 1.387 . S
H431 C427 0.950 . S
H432 C429 0.950 . S
C433 C424 1.390 . S
C433 H426 0.950 . S
C433 C430 1.387 . S
C434 C435 1.387 . S
C434 H438 0.950 . S
C434 C443 1.390 1_556 S
C435 C434 1.387 . S
C435 C437 1.387 . S
H436 C443 0.950 . S
C437 C435 1.387 . S
C437 C439 1.390 1_556 S
C437 H441 0.950 . S
H438 C434 0.950 . S
C439 C437 1.390 1_554 S
C439 C440 1.387 . S
C439 H442 0.950 . S
C440 C439 1.387 . S
C440 C443 1.387 . S
H441 C437 0.950 . S
H442 C439 0.950 . S
C443 C434 1.390 1_554 S
C443 H436 0.950 . S
C443 C440 1.387 . S
C444 C445 1.387 . S
C444 H448 0.950 . S
C444 C453 1.390 . S
C445 C444 1.387 . S
C445 C447 1.387 . S
H446 C453 0.950 . S
C447 C445 1.387 . S
C447 C449 1.390 . S
C447 H451 0.950 . S
H448 C444 0.950 . S
C449 C447 1.390 . S
C449 C450 1.387 . S
C449 H452 0.950 . S
C450 C449 1.387 . S
C450 C453 1.387 . S
H451 C447 0.950 . S
H452 C449 0.950 . S
C453 C444 1.390 . S
C453 H446 0.950 . S
C453 C450 1.387 . S
C454 C455 1.387 . S
C454 H458 0.950 . S
C454 C463 1.390 1_554 S
C455 C454 1.387 . S
C455 C457 1.387 . S
H456 C463 0.950 . S
C457 C455 1.387 . S
C457 C459 1.390 1_554 S
C457 H461 0.950 . S
H458 C454 0.950 . S
C459 C457 1.390 1_556 S
C459 C460 1.387 . S
C459 H462 0.950 . S
C460 C459 1.387 . S
C460 C463 1.387 . S
H461 C457 0.950 . S
H462 C459 0.950 . S
C463 C454 1.390 1_556 S
C463 H456 0.950 . S
C463 C460 1.387 . S
C464 C465 1.387 . S
C464 H468 0.950 . S
C464 C473 1.390 . S
C465 C464 1.387 . S
C465 C467 1.387 . S
H466 C473 0.950 . S
C467 C465 1.387 . S
C467 C469 1.390 . S
C467 H471 0.950 . S
H468 C464 0.950 . S
C469 C467 1.390 . S
C469 C470 1.387 . S
C469 H472 0.950 . S
C470 C469 1.387 . S
C470 C473 1.387 . S
H471 C467 0.950 . S
H472 C469 0.950 . S
C473 C464 1.390 . S
C473 H466 0.950 . S
C473 C470 1.387 . S
C474 C475 1.387 . S
C474 H478 0.950 . S
C474 C483 1.390 . S
C475 C474 1.387 . S
C475 C477 1.387 . S
H476 C483 0.950 . S
C477 C475 1.387 . S
C477 C479 1.390 . S
C477 H481 0.950 . S
H478 C474 0.950 . S
C479 C477 1.390 . S
C479 C480 1.387 . S
C479 H482 0.950 . S
C480 C479 1.387 . S
C480 C483 1.387 . S
H481 C477 0.950 . S
H482 C479 0.950 . S
C483 C474 1.390 . S
C483 H476 0.950 . S
C483 C480 1.387 . S
C484 C485 1.387 . S
C484 H488 0.950 . S
C484 C493 1.390 . S
C485 C484 1.387 . S
C485 C487 1.387 . S
H486 C493 0.950 . S
C487 C485 1.387 . S
C487 C489 1.390 . S
C487 H491 0.950 . S
H488 C484 0.950 . S
C489 C487 1.390 . S
C489 C490 1.387 . S
C489 H492 0.950 . S
C490 C489 1.387 . S
C490 C493 1.387 . S
H491 C487 0.950 . S
H492 C489 0.950 . S
C493 C484 1.390 . S
C493 H486 0.950 . S
C493 C490 1.387 . S
C494 C495 1.387 . S
C494 H498 0.950 . S
C494 C503 1.390 . S
C495 C494 1.387 . S
C495 C497 1.387 . S
H496 C503 0.950 . S
C497 C495 1.387 . S
C497 C499 1.390 . S
C497 H501 0.950 . S
H498 C494 0.950 . S
C499 C497 1.390 . S
C499 C500 1.387 . S
C499 H502 0.950 . S
C500 C499 1.387 . S
C500 C503 1.387 . S
H501 C497 0.950 . S
H502 C499 0.950 . S
C503 C494 1.390 . S
C503 H496 0.950 . S
C503 C500 1.387 . S
C504 C505 1.387 . S
C504 H508 0.950 . S
C504 C513 1.390 . S
C505 C504 1.387 . S
C505 C507 1.387 . S
H506 C513 0.950 . S
C507 C505 1.387 . S
C507 C509 1.390 . S
C507 H511 0.950 . S
H508 C504 0.950 . S
C509 C507 1.390 . S
C509 C510 1.387 . S
C509 H512 0.950 . S
C510 C509 1.387 . S
C510 C513 1.387 . S
H511 C507 0.950 . S
H512 C509 0.950 . S
C513 C504 1.390 . S
C513 H506 0.950 . S
C513 C510 1.387 . S
C514 C515 1.387 . S
C514 H518 0.950 . S
C514 C523 1.390 . S
C515 C514 1.387 . S
C515 C517 1.387 . S
H516 C523 0.950 . S
C517 C515 1.387 . S
C517 C519 1.390 . S
C517 H521 0.950 . S
H518 C514 0.950 . S
C519 C517 1.390 . S
C519 C520 1.387 . S
C519 H522 0.950 . S
C520 C519 1.387 . S
C520 C523 1.387 . S
H521 C517 0.950 . S
H522 C519 0.950 . S
C523 C514 1.390 . S
C523 H516 0.950 . S
C523 C520 1.387 . S
C524 C525 1.387 . S
C524 H528 0.950 . S
C524 C533 1.390 . S
C525 C524 1.387 . S
C525 C527 1.387 . S
H526 C533 0.950 . S
C527 C525 1.387 . S
C527 C529 1.390 . S
C527 H531 0.950 . S
H528 C524 0.950 . S
C529 C527 1.390 . S
C529 C530 1.387 . S
C529 H532 0.950 . S
C530 C529 1.387 . S
C530 C533 1.387 . S
H531 C527 0.950 . S
H532 C529 0.950 . S
C533 C524 1.390 . S
C533 H526 0.950 . S
C533 C530 1.387 . S
C534 C535 1.387 . S
C534 H538 0.950 . S
C534 C543 1.390 . S
C535 C534 1.387 . S
C535 C537 1.387 . S
H536 C543 0.950 . S
C537 C535 1.387 . S
C537 C539 1.390 . S
C537 H541 0.950 . S
H538 C534 0.950 . S
C539 C537 1.390 . S
C539 C540 1.387 . S
C539 H542 0.950 . S
C540 C539 1.387 . S
C540 C543 1.387 . S
H541 C537 0.950 . S
H542 C539 0.950 . S
C543 C534 1.390 . S
C543 H536 0.950 . S
C543 C540 1.387 . S
C225 C9 1.391 . S
C230 C37 1.391 . S
C235 C51 1.394 . S
C240 C23 1.394 . S
C245 C65 1.391 . S
C250 C93 1.391 . S
C255 C107 1.394 . S
C260 C79 1.394 . S
C265 C121 1.394 . S
C270 C149 1.394 . S
C275 C163 1.394 . S
C280 C135 1.394 . S
C285 C177 1.394 . S
C290 C205 1.394 . S
C295 C219 1.394 . S
C300 C191 1.394 . S
C305 C59 1.447 . S
C310 C3 1.447 . S
C315 C17 1.447 . S
C320 C73 1.447 . S
C325 C31 1.447 . S
C330 C87 1.447 . S
C335 C101 1.451 . S
C340 C45 1.451 . S
C345 C115 1.451 . S
C350 C171 1.451 . S
C355 C129 1.451 . S
C360 C185 1.451 . S
C365 C143 1.447 . S
C370 C199 1.447 . S
C375 C157 1.451 . S
C380 C213 1.451 . S
C385 C147 1.375 . S
C390 C7 1.377 . S
C395 C161 1.376 . S
C400 C21 1.376 . S
C405 C35 1.377 . S
C410 C119 1.375 . S
C415 C49 1.376 . S
C420 C133 1.377 . S
C425 C63 1.377 . S
C430 C203 1.376 . S
C435 C77 1.376 . S
C440 C217 1.377 . S
C445 C91 1.375 . S
C450 C175 1.377 . S
C455 C189 1.377 . S
C460 C105 1.375 . S
C465 C8 1.422 . S
C470 C218 1.422 . S
C475 C176 1.422 . S
C480 C22 1.422 . S
C485 C36 1.422 . S
C490 C190 1.422 . S
C495 C204 1.422 . S
C500 C50 1.422 . S
C505 C134 1.422 . S
C510 C64 1.422 . S
C515 C78 1.422 . S
C520 C148 1.422 . S
C525 C162 1.422 . S
C530 C92 1.422 . S
C535 C120 1.422 . S
C540 C106 1.422 . S
