# Generated by pormake.
# Topology gme, (4)-cn, num edge types: 1
# Building blocks:
#     Node 0, Type 0, BuildingBlock: NAHDIM_clean_sbu_0, # of connection points: 4
#     Node 1, Type 0, BuildingBlock: NAHDIM_clean_sbu_0, # of connection points: 4
#     Node 2, Type 0, BuildingBlock: NAHDIM_clean_sbu_0, # of connection points: 4
#     Node 3, Type 0, BuildingBlock: NAHDIM_clean_sbu_0, # of connection points: 4
#     Node 4, Type 0, BuildingBlock: NAHDIM_clean_sbu_0, # of connection points: 4
#     Node 5, Type 0, BuildingBlock: NAHDIM_clean_sbu_0, # of connection points: 4
#     Node 6, Type 0, BuildingBlock: NAHDIM_clean_sbu_0, # of connection points: 4
#     Node 7, Type 0, BuildingBlock: NAHDIM_clean_sbu_0, # of connection points: 4
#     Node 8, Type 0, BuildingBlock: NAHDIM_clean_sbu_0, # of connection points: 4
#     Node 9, Type 0, BuildingBlock: NAHDIM_clean_sbu_0, # of connection points: 4
#     Node 10, Type 0, BuildingBlock: NAHDIM_clean_sbu_0, # of connection points: 4
#     Node 11, Type 0, BuildingBlock: NAHDIM_clean_sbu_0, # of connection points: 4
#     Node 12, Type 0, BuildingBlock: NAHDIM_clean_sbu_0, # of connection points: 4
#     Node 13, Type 0, BuildingBlock: NAHDIM_clean_sbu_0, # of connection points: 4
#     Node 14, Type 0, BuildingBlock: NAHDIM_clean_sbu_0, # of connection points: 4
#     Node 15, Type 0, BuildingBlock: NAHDIM_clean_sbu_0, # of connection points: 4
#     Node 16, Type 0, BuildingBlock: NAHDIM_clean_sbu_0, # of connection points: 4
#     Node 17, Type 0, BuildingBlock: NAHDIM_clean_sbu_0, # of connection points: 4
#     Node 18, Type 0, BuildingBlock: NAHDIM_clean_sbu_0, # of connection points: 4
#     Node 19, Type 0, BuildingBlock: NAHDIM_clean_sbu_0, # of connection points: 4
#     Node 20, Type 0, BuildingBlock: NAHDIM_clean_sbu_0, # of connection points: 4
#     Node 21, Type 0, BuildingBlock: NAHDIM_clean_sbu_0, # of connection points: 4
#     Node 22, Type 0, BuildingBlock: NAHDIM_clean_sbu_0, # of connection points: 4
#     Node 23, Type 0, BuildingBlock: NAHDIM_clean_sbu_0, # of connection points: 4
#     Edge 24, Type (0, 0), BuildingBlock: UVAHIK_clean_linker_0, # of connection points: 2
#     Edge 25, Type (0, 0), BuildingBlock: UVAHIK_clean_linker_0, # of connection points: 2
#     Edge 26, Type (0, 0), BuildingBlock: UVAHIK_clean_linker_0, # of connection points: 2
#     Edge 27, Type (0, 0), BuildingBlock: UVAHIK_clean_linker_0, # of connection points: 2
#     Edge 28, Type (0, 0), BuildingBlock: UVAHIK_clean_linker_0, # of connection points: 2
#     Edge 29, Type (0, 0), BuildingBlock: UVAHIK_clean_linker_0, # of connection points: 2
#     Edge 30, Type (0, 0), BuildingBlock: UVAHIK_clean_linker_0, # of connection points: 2
#     Edge 31, Type (0, 0), BuildingBlock: UVAHIK_clean_linker_0, # of connection points: 2
#     Edge 32, Type (0, 0), BuildingBlock: UVAHIK_clean_linker_0, # of connection points: 2
#     Edge 33, Type (0, 0), BuildingBlock: UVAHIK_clean_linker_0, # of connection points: 2
#     Edge 34, Type (0, 0), BuildingBlock: UVAHIK_clean_linker_0, # of connection points: 2
#     Edge 35, Type (0, 0), BuildingBlock: UVAHIK_clean_linker_0, # of connection points: 2
#     Edge 36, Type (0, 0), BuildingBlock: UVAHIK_clean_linker_0, # of connection points: 2
#     Edge 37, Type (0, 0), BuildingBlock: UVAHIK_clean_linker_0, # of connection points: 2
#     Edge 38, Type (0, 0), BuildingBlock: UVAHIK_clean_linker_0, # of connection points: 2
#     Edge 39, Type (0, 0), BuildingBlock: UVAHIK_clean_linker_0, # of connection points: 2
#     Edge 40, Type (0, 0), BuildingBlock: UVAHIK_clean_linker_0, # of connection points: 2
#     Edge 41, Type (0, 0), BuildingBlock: UVAHIK_clean_linker_0, # of connection points: 2
#     Edge 42, Type (0, 0), BuildingBlock: UVAHIK_clean_linker_0, # of connection points: 2
#     Edge 43, Type (0, 0), BuildingBlock: UVAHIK_clean_linker_0, # of connection points: 2
#     Edge 44, Type (0, 0), BuildingBlock: UVAHIK_clean_linker_0, # of connection points: 2
#     Edge 45, Type (0, 0), BuildingBlock: UVAHIK_clean_linker_0, # of connection points: 2
#     Edge 46, Type (0, 0), BuildingBlock: UVAHIK_clean_linker_0, # of connection points: 2
#     Edge 47, Type (0, 0), BuildingBlock: UVAHIK_clean_linker_0, # of connection points: 2
#     Edge 48, Type (0, 0), BuildingBlock: UVAHIK_clean_linker_0, # of connection points: 2
#     Edge 49, Type (0, 0), BuildingBlock: UVAHIK_clean_linker_0, # of connection points: 2
#     Edge 50, Type (0, 0), BuildingBlock: UVAHIK_clean_linker_0, # of connection points: 2
#     Edge 51, Type (0, 0), BuildingBlock: UVAHIK_clean_linker_0, # of connection points: 2
#     Edge 52, Type (0, 0), BuildingBlock: UVAHIK_clean_linker_0, # of connection points: 2
#     Edge 53, Type (0, 0), BuildingBlock: UVAHIK_clean_linker_0, # of connection points: 2
#     Edge 54, Type (0, 0), BuildingBlock: UVAHIK_clean_linker_0, # of connection points: 2
#     Edge 55, Type (0, 0), BuildingBlock: UVAHIK_clean_linker_0, # of connection points: 2
#     Edge 56, Type (0, 0), BuildingBlock: UVAHIK_clean_linker_0, # of connection points: 2
#     Edge 57, Type (0, 0), BuildingBlock: UVAHIK_clean_linker_0, # of connection points: 2
#     Edge 58, Type (0, 0), BuildingBlock: UVAHIK_clean_linker_0, # of connection points: 2
#     Edge 59, Type (0, 0), BuildingBlock: UVAHIK_clean_linker_0, # of connection points: 2
#     Edge 60, Type (0, 0), BuildingBlock: UVAHIK_clean_linker_0, # of connection points: 2
#     Edge 61, Type (0, 0), BuildingBlock: UVAHIK_clean_linker_0, # of connection points: 2
#     Edge 62, Type (0, 0), BuildingBlock: UVAHIK_clean_linker_0, # of connection points: 2
#     Edge 63, Type (0, 0), BuildingBlock: UVAHIK_clean_linker_0, # of connection points: 2
#     Edge 64, Type (0, 0), BuildingBlock: UVAHIK_clean_linker_0, # of connection points: 2
#     Edge 65, Type (0, 0), BuildingBlock: UVAHIK_clean_linker_0, # of connection points: 2
#     Edge 66, Type (0, 0), BuildingBlock: UVAHIK_clean_linker_0, # of connection points: 2
#     Edge 67, Type (0, 0), BuildingBlock: UVAHIK_clean_linker_0, # of connection points: 2
#     Edge 68, Type (0, 0), BuildingBlock: UVAHIK_clean_linker_0, # of connection points: 2
#     Edge 69, Type (0, 0), BuildingBlock: UVAHIK_clean_linker_0, # of connection points: 2
#     Edge 70, Type (0, 0), BuildingBlock: UVAHIK_clean_linker_0, # of connection points: 2
#     Edge 71, Type (0, 0), BuildingBlock: UVAHIK_clean_linker_0, # of connection points: 2
# Relax obj value: 0.157
# Max RMSD: 0.150
# Mean RMSD: 0.150
data_MOF--net-gme--node1-NAHDIM_clean_sbu_0--edge1-UVAHIK_clean_linker_0
_symmetry_space_group_name_H-M    P1
_symmetry_Int_Tables_number       1
_symmetry_cell_setting            triclinic
loop_
_symmetry_equiv_pos_as_xyz
'x, y, z'
_cell_length_a     80.004826
_cell_length_b     79.922248
_cell_length_c     65.513255
_cell_angle_alpha  90.015425
_cell_angle_beta   89.998504
_cell_angle_gamma 119.99252
loop_
_atom_site_label
_atom_site_type_symbol
_atom_site_fract_x
_atom_site_fract_y
_atom_site_fract_z
_atom_type_partial_charge
C0 C 0.3861 0.07159 0.07268 0.0
O1 O 0.38737 0.08862 0.07275 0.0
O2 O 0.42245 0.11509 0.0962 0.0
Zn3 Zn 0.41775 0.08849 0.102 0.0
O4 O 0.4426 0.08842 0.09842 0.0
C5 C 0.39856 0.08702 0.1397 0.0
O6 O 0.39196 0.09645 0.1291 0.0
O7 O 0.39744 0.06868 0.08375 0.0
C8 C 0.45702 0.10044 0.10887 0.0
O9 O 0.45503 0.11235 0.12113 0.0
C10 C 0.42989 0.12406 0.07969 0.0
O11 O 0.43436 0.11554 0.06527 0.0
O12 O 0.40954 0.08193 0.1311 0.0
C13 C 0.32233 0.40161 0.55998 0.0
O14 O 0.32196 0.41695 0.55341 0.0
O15 O 0.30205 0.42261 0.59539 0.0
Zn16 Zn 0.32516 0.41933 0.59875 0.0
O17 O 0.34949 0.44478 0.59493 0.0
C18 C 0.30955 0.3981 0.63591 0.0
O19 O 0.29325 0.39085 0.62572 0.0
O20 O 0.32379 0.39958 0.579 0.0
C21 C 0.35197 0.45847 0.60671 0.0
O22 O 0.33854 0.45535 0.62018 0.0
C23 C 0.30164 0.43536 0.58415 0.0
O24 O 0.31705 0.44726 0.57365 0.0
O25 O 0.32513 0.41033 0.62725 0.0
C26 C 0.91546 0.31817 0.06324 0.0
O27 O 0.8992 0.31576 0.05566 0.0
O28 O 0.87359 0.30178 0.0966 0.0
Zn29 Zn 0.90021 0.32451 0.10017 0.0
O30 O 0.90006 0.34905 0.09417 0.0
C31 C 0.90507 0.31009 0.13846 0.0
O32 O 0.89713 0.29365 0.12843 0.0
O33 O 0.91902 0.32202 0.08208 0.0
C34 C 0.88892 0.35259 0.10483 0.0
O35 O 0.87805 0.34005 0.1188 0.0
C36 C 0.86114 0.30152 0.08437 0.0
O37 O 0.86566 0.31668 0.07291 0.0
O38 O 0.90806 0.32535 0.1293 0.0
C39 C 0.59309 0.92012 0.5612 0.0
O40 O 0.57808 0.90402 0.55488 0.0
O41 O 0.57125 0.87975 0.59729 0.0
Zn42 Zn 0.57498 0.90639 0.60005 0.0
O43 O 0.54979 0.90568 0.59578 0.0
C44 C 0.59853 0.91478 0.63559 0.0
O45 O 0.60723 0.90797 0.62409 0.0
O46 O 0.59479 0.92424 0.58008 0.0
C47 C 0.5359 0.89508 0.60762 0.0
O48 O 0.5386 0.8851 0.62186 0.0
C49 C 0.55827 0.86651 0.58633 0.0
O50 O 0.54649 0.87012 0.57574 0.0
O51 O 0.5843 0.91574 0.62836 0.0
C52 C 0.67233 0.59547 0.06156 0.0
O53 O 0.67699 0.58255 0.05595 0.0
O54 O 0.69589 0.57833 0.09527 0.0
Zn55 Zn 0.67196 0.57978 0.10064 0.0
O56 O 0.64861 0.55336 0.09833 0.0
C57 C 0.68821 0.60079 0.1383 0.0
O58 O 0.70481 0.60714 0.12889 0.0
O59 O 0.66972 0.59725 0.08037 0.0
C60 C 0.63249 0.5504 0.10512 0.0
O61 O 0.6314 0.56483 0.11331 0.0
C62 C 0.69543 0.56423 0.0858 0.0
O63 O 0.67883 0.5501 0.07921 0.0
O64 O 0.67267 0.58941 0.12902 0.0
C65 C 0.0698 0.67179 0.5623 0.0
O66 O 0.08622 0.67442 0.55498 0.0
O67 O 0.11107 0.68912 0.59656 0.0
Zn68 Zn 0.08469 0.66597 0.59985 0.0
O69 O 0.08564 0.64166 0.59487 0.0
C70 C 0.07866 0.68052 0.63753 0.0
O71 O 0.08675 0.69693 0.62745 0.0
O72 O 0.06601 0.66786 0.58109 0.0
C73 C 0.09687 0.63889 0.60627 0.0
O74 O 0.10719 0.65198 0.62006 0.0
C75 C 0.12405 0.68949 0.58508 0.0
O76 O 0.12028 0.67412 0.57432 0.0
O77 O 0.0761 0.6653 0.62864 0.0
C78 C 0.91771 0.60088 0.42604 0.0
O79 O 0.89985 0.59718 0.42808 0.0
O80 O 0.87585 0.56781 0.39884 0.0
Zn81 Zn 0.90186 0.57025 0.39559 0.0
O82 O 0.90022 0.54491 0.40183 0.0
C83 C 0.90818 0.59006 0.35756 0.0
O84 O 0.90136 0.5995 0.36779 0.0
O85 O 0.92152 0.59116 0.41344 0.0
C86 C 0.88811 0.53021 0.39179 0.0
O87 O 0.87717 0.53223 0.37819 0.0
C88 C 0.86362 0.55724 0.41222 0.0
O89 O 0.86804 0.54744 0.4251 0.0
O90 O 0.90992 0.57691 0.3665 0.0
C91 C 0.32575 0.92688 0.92658 0.0
O92 O 0.32472 0.91081 0.93295 0.0
O93 O 0.30728 0.88624 0.89114 0.0
Zn94 Zn 0.33002 0.91291 0.88785 0.0
O95 O 0.35463 0.91234 0.89162 0.0
C96 C 0.31443 0.92065 0.85205 0.0
O97 O 0.29897 0.91413 0.86357 0.0
O98 O 0.32818 0.93097 0.9077 0.0
C99 C 0.3573 0.9012 0.87994 0.0
O100 O 0.34396 0.89072 0.86646 0.0
C101 C 0.30741 0.87322 0.90216 0.0
O102 O 0.32305 0.87713 0.91242 0.0
O103 O 0.32962 0.92174 0.8594 0.0
C104 C 0.38699 0.31717 0.41845 0.0
O105 O 0.38845 0.30153 0.41925 0.0
O106 O 0.42278 0.30891 0.39587 0.0
Zn107 Zn 0.4193 0.33156 0.39 0.0
O108 O 0.44432 0.35596 0.39512 0.0
C109 C 0.40136 0.31502 0.35154 0.0
O110 O 0.39391 0.29882 0.36196 0.0
O111 O 0.39847 0.33122 0.40722 0.0
C112 C 0.45928 0.35822 0.38592 0.0
O113 O 0.45779 0.3445 0.3737 0.0
C114 C 0.43057 0.30727 0.41206 0.0
O115 O 0.43638 0.32075 0.42614 0.0
O116 O 0.41247 0.33087 0.36051 0.0
C117 C 0.06745 0.38943 0.92581 0.0
O118 O 0.08528 0.39298 0.92768 0.0
O119 O 0.10913 0.42174 0.89767 0.0
Zn120 Zn 0.08306 0.4191 0.89428 0.0
O121 O 0.08498 0.44472 0.89954 0.0
C122 C 0.07718 0.39893 0.85641 0.0
O123 O 0.08496 0.39034 0.86656 0.0
O124 O 0.06356 0.39883 0.91286 0.0
C125 C 0.09707 0.45897 0.88894 0.0
O126 O 0.10767 0.45625 0.87548 0.0
C127 C 0.12078 0.43164 0.91179 0.0
O128 O 0.1156 0.44038 0.92525 0.0
O129 O 0.07469 0.41162 0.86534 0.0
C130 C 0.67259 0.06662 0.41643 0.0
O131 O 0.68793 0.08394 0.41687 0.0
O132 O 0.68164 0.10891 0.39005 0.0
Zn133 Zn 0.65849 0.08279 0.38564 0.0
O134 O 0.63447 0.08433 0.38989 0.0
C135 C 0.67459 0.07577 0.35024 0.0
O136 O 0.68956 0.08196 0.36244 0.0
O137 O 0.65867 0.06324 0.40457 0.0
C138 C 0.63274 0.09736 0.38064 0.0
O139 O 0.64668 0.10933 0.36849 0.0
C140 C 0.68276 0.12026 0.40423 0.0
O141 O 0.66829 0.11476 0.41702 0.0
O142 O 0.65918 0.0747 0.35693 0.0
C143 C 0.57194 0.65421 0.92814 0.0
O144 O 0.5532 0.64447 0.93109 0.0
O145 O 0.55761 0.68885 0.89611 0.0
Zn146 Zn 0.56034 0.66555 0.89196 0.0
O147 O 0.53453 0.64146 0.89436 0.0
C148 C 0.58551 0.68154 0.85738 0.0
O149 O 0.59433 0.6967 0.86936 0.0
O150 O 0.57861 0.66483 0.91244 0.0
C151 C 0.51968 0.63928 0.885 0.0
O152 O 0.52109 0.65331 0.87335 0.0
C153 C 0.55432 0.69384 0.91338 0.0
O154 O 0.55262 0.68339 0.92956 0.0
O155 O 0.57064 0.6665 0.86391 0.0
C156 C 0.60868 0.92945 0.91427 0.0
O157 O 0.60954 0.91376 0.91047 0.0
O158 O 0.57141 0.88604 0.89169 0.0
Zn159 Zn 0.57599 0.91268 0.88656 0.0
O160 O 0.55092 0.91237 0.88984 0.0
C161 C 0.599 0.91843 0.85083 0.0
O162 O 0.60748 0.91168 0.86274 0.0
O163 O 0.59566 0.93176 0.90586 0.0
C164 C 0.53648 0.89989 0.87975 0.0
O165 O 0.5386 0.88785 0.86783 0.0
C166 C 0.5659 0.87776 0.9089 0.0
O167 O 0.56343 0.88702 0.92412 0.0
O168 O 0.58521 0.92027 0.85786 0.0
C169 C 0.67003 0.59868 0.4304 0.0
O170 O 0.67271 0.58474 0.43723 0.0
O171 O 0.68722 0.57458 0.39667 0.0
Zn172 Zn 0.66469 0.57871 0.39251 0.0
O173 O 0.63998 0.5537 0.39675 0.0
C174 C 0.68126 0.59913 0.3553 0.0
O175 O 0.69729 0.60604 0.36593 0.0
O176 O 0.66635 0.59905 0.41161 0.0
C177 C 0.63715 0.53941 0.38577 0.0
O178 O 0.65038 0.54167 0.37242 0.0
C179 C 0.68692 0.56171 0.40829 0.0
O180 O 0.67123 0.5504 0.41872 0.0
O181 O 0.66534 0.58733 0.3637 0.0
C182 C 0.07793 0.68247 0.9263 0.0
O183 O 0.09649 0.69382 0.92945 0.0
O184 O 0.11672 0.69166 0.89323 0.0
Zn185 Zn 0.09013 0.6686 0.89155 0.0
O186 O 0.09111 0.64441 0.89702 0.0
C187 C 0.08221 0.68209 0.85434 0.0
O188 O 0.09049 0.69864 0.86417 0.0
O189 O 0.07225 0.67086 0.91128 0.0
C190 C 0.10197 0.64088 0.88587 0.0
O191 O 0.11224 0.65325 0.8715 0.0
C192 C 0.12974 0.69261 0.90508 0.0
O193 O 0.12582 0.67801 0.91722 0.0
O194 O 0.08022 0.66708 0.86321 0.0
C195 C 0.38664 0.07424 0.42581 0.0
O196 O 0.38837 0.0914 0.42761 0.0
O197 O 0.42108 0.11836 0.40133 0.0
Zn198 Zn 0.41786 0.09228 0.39592 0.0
O199 O 0.44313 0.09326 0.40033 0.0
C200 C 0.39914 0.09002 0.35771 0.0
O201 O 0.39192 0.09906 0.36799 0.0
O202 O 0.39756 0.07179 0.41359 0.0
C203 C 0.4579 0.10606 0.39093 0.0
O204 O 0.45615 0.11837 0.3791 0.0
C205 C 0.42933 0.12849 0.41702 0.0
O206 O 0.43579 0.12155 0.43122 0.0
O207 O 0.4104 0.0855 0.36666 0.0
C208 C 0.33208 0.3874 0.90746 0.0
O209 O 0.34381 0.39345 0.8917 0.0
O210 O 0.29801 0.41624 0.89513 0.0
Zn211 Zn 0.32147 0.41381 0.89113 0.0
O212 O 0.34501 0.43974 0.89564 0.0
C213 C 0.30666 0.39369 0.85313 0.0
O214 O 0.29013 0.38584 0.86296 0.0
O215 O 0.32097 0.39423 0.91045 0.0
C216 C 0.34615 0.45389 0.88564 0.0
O217 O 0.33201 0.45087 0.87322 0.0
C218 C 0.29626 0.42512 0.91031 0.0
O219 O 0.31001 0.43257 0.92411 0.0
O220 O 0.32197 0.4058 0.86231 0.0
C221 C 0.91601 0.31769 0.4316 0.0
O222 O 0.89963 0.31495 0.43917 0.0
O223 O 0.87422 0.30048 0.39805 0.0
Zn224 Zn 0.90053 0.32374 0.39473 0.0
O225 O 0.89954 0.34782 0.40097 0.0
C226 C 0.90581 0.30983 0.35637 0.0
O227 O 0.89809 0.29338 0.36635 0.0
O228 O 0.91958 0.32167 0.41279 0.0
C229 C 0.88801 0.35092 0.39048 0.0
O230 O 0.87733 0.33827 0.37649 0.0
C231 C 0.86141 0.29965 0.41015 0.0
O232 O 0.86531 0.3146 0.42171 0.0
O233 O 0.90855 0.32498 0.3656 0.0
C234 C 0.06784 0.38981 0.56904 0.0
O235 O 0.08586 0.39407 0.5668 0.0
O236 O 0.10919 0.42195 0.59749 0.0
Zn237 Zn 0.08298 0.41902 0.60098 0.0
O238 O 0.08445 0.44449 0.59596 0.0
C239 C 0.07729 0.3988 0.63884 0.0
O240 O 0.08522 0.39035 0.62874 0.0
O241 O 0.06364 0.39867 0.58236 0.0
C242 C 0.09634 0.45872 0.60673 0.0
O243 O 0.10708 0.45609 0.62008 0.0
C244 C 0.12136 0.43311 0.58438 0.0
O245 O 0.1167 0.44311 0.57208 0.0
O246 O 0.07466 0.41139 0.62989 0.0
C247 C 0.6705 0.05645 0.07829 0.0
O248 O 0.67811 0.05575 0.0958 0.0
O249 O 0.68312 0.10969 0.09683 0.0
Zn250 Zn 0.66095 0.08274 0.0993 0.0
O251 O 0.63627 0.0834 0.09722 0.0
C252 C 0.67827 0.07758 0.13534 0.0
O253 O 0.69427 0.08891 0.12537 0.0
O254 O 0.66244 0.06664 0.07669 0.0
C255 C 0.6342 0.09509 0.10864 0.0
O256 O 0.6482 0.10616 0.12124 0.0
C257 C 0.68425 0.12118 0.08281 0.0
O258 O 0.67047 0.11526 0.06909 0.0
O259 O 0.66212 0.07251 0.12691 0.0
C260 C 0.60146 0.67729 0.57468 0.0
O261 O 0.59766 0.69144 0.57315 0.0
O262 O 0.56952 0.68647 0.60325 0.0
Zn263 Zn 0.57277 0.6634 0.60707 0.0
O264 O 0.5473 0.63919 0.60288 0.0
C265 C 0.5957 0.67899 0.64296 0.0
O266 O 0.605 0.69419 0.63112 0.0
O267 O 0.59257 0.66407 0.58785 0.0
C268 C 0.53308 0.63687 0.61362 0.0
O269 O 0.53561 0.65034 0.6268 0.0
C270 C 0.5582 0.68724 0.59019 0.0
O271 O 0.54813 0.67239 0.57812 0.0
O272 O 0.58142 0.66381 0.63578 0.0
C273 C 0.92827 0.59917 0.06573 0.0
O274 O 0.91124 0.5875 0.05781 0.0
O275 O 0.88559 0.57437 0.09529 0.0
Zn276 Zn 0.9109 0.57578 0.10096 0.0
O277 O 0.90903 0.55023 0.09514 0.0
C278 C 0.91459 0.59439 0.13952 0.0
O279 O 0.90795 0.60388 0.1291 0.0
O280 O 0.9316 0.59677 0.08412 0.0
C281 C 0.89728 0.53593 0.10591 0.0
O282 O 0.88702 0.53853 0.11988 0.0
C283 C 0.87275 0.56194 0.08354 0.0
O284 O 0.87584 0.54913 0.07434 0.0
O285 O 0.91723 0.58183 0.13051 0.0
C286 C 0.32474 0.92174 0.56282 0.0
O287 O 0.32388 0.90597 0.55565 0.0
O288 O 0.30555 0.88031 0.59787 0.0
Zn289 Zn 0.32874 0.90666 0.60111 0.0
O290 O 0.35303 0.90568 0.59641 0.0
C291 C 0.31392 0.91523 0.63671 0.0
O292 O 0.2987 0.9093 0.62493 0.0
O293 O 0.32696 0.9251 0.58185 0.0
C294 C 0.35625 0.89485 0.60798 0.0
O295 O 0.34358 0.88476 0.62219 0.0
C296 C 0.30502 0.86711 0.58661 0.0
O297 O 0.32037 0.87053 0.57605 0.0
O298 O 0.32887 0.91554 0.62967 0.0
C299 C 0.39478 0.3162 0.0674 0.0
O300 O 0.39297 0.29922 0.07109 0.0
O301 O 0.43082 0.30865 0.09204 0.0
Zn302 Zn 0.42672 0.3311 0.09643 0.0
O303 O 0.45189 0.35575 0.09334 0.0
C304 C 0.40589 0.31414 0.13371 0.0
O305 O 0.39978 0.29787 0.12368 0.0
O306 O 0.40784 0.33107 0.07644 0.0
C307 C 0.46476 0.36052 0.10699 0.0
O308 O 0.46139 0.3489 0.12257 0.0
C309 C 0.43663 0.30531 0.07531 0.0
O310 O 0.44006 0.31692 0.05972 0.0
O311 O 0.41715 0.33003 0.12491 0.0
C312 C 0.38567 0.09405 0.32473 0.0
C313 C 0.39535 0.08629 0.33564 0.0
C314 C 0.38354 0.09178 0.30356 0.0
C315 C 0.4067 0.08347 0.25938 0.0
H316 H 0.36093 0.07483 0.2301 0.0
C317 C 0.40123 0.07304 0.1728 0.0
C318 C 0.39463 0.0837 0.1618 0.0
C319 C 0.39914 0.0713 0.19395 0.0
C320 C 0.37383 0.07736 0.23809 0.0
H321 H 0.40951 0.06925 0.33306 0.0
H322 H 0.40554 0.06508 0.29627 0.0
H323 H 0.36115 0.07542 0.26745 0.0
H324 H 0.37992 0.10022 0.16427 0.0
H325 H 0.37649 0.09737 0.20134 0.0
H326 H 0.41952 0.08566 0.23021 0.0
C327 C 0.39998 0.07328 0.30398 0.0
C328 C 0.37396 0.0777 0.25944 0.0
C329 C 0.40217 0.07559 0.32508 0.0
C330 C 0.38519 0.09194 0.17232 0.0
C331 C 0.38313 0.09023 0.19354 0.0
C332 C 0.40656 0.0831 0.23813 0.0
C333 C 0.39099 0.08167 0.29292 0.0
C334 C 0.39042 0.08077 0.2703 0.0
C335 C 0.39046 0.08023 0.2046 0.0
C336 C 0.39015 0.08005 0.22723 0.0
H337 H 0.38023 0.10235 0.33244 0.0
H338 H 0.37667 0.09855 0.29545 0.0
H339 H 0.41976 0.0863 0.26726 0.0
H340 H 0.40838 0.06633 0.16514 0.0
H341 H 0.40459 0.06318 0.20201 0.0
C342 C 0.32721 0.40082 0.66832 0.0
C343 C 0.30966 0.39346 0.65772 0.0
C344 C 0.32736 0.39802 0.68932 0.0
C345 C 0.29727 0.36983 0.73325 0.0
H346 H 0.3322 0.41591 0.76361 0.0
C347 C 0.29024 0.37939 0.81988 0.0
C348 C 0.30733 0.38987 0.83117 0.0
C349 C 0.29095 0.37749 0.79873 0.0
C350 C 0.32259 0.4028 0.75539 0.0
H351 H 0.2785 0.37667 0.66069 0.0
H352 H 0.27878 0.37202 0.69746 0.0
H353 H 0.3327 0.41669 0.72657 0.0
H354 H 0.33861 0.40563 0.82935 0.0
H355 H 0.33984 0.40209 0.79258 0.0
H356 H 0.28692 0.35609 0.76226 0.0
C357 C 0.29242 0.37979 0.68948 0.0
C358 C 0.32288 0.40325 0.73413 0.0
C359 C 0.29227 0.38255 0.66842 0.0
C360 C 0.32516 0.39765 0.82105 0.0
C361 C 0.32588 0.39569 0.79997 0.0
C362 C 0.29698 0.36937 0.7546 0.0
C363 C 0.30997 0.38785 0.70021 0.0
C364 C 0.31017 0.38682 0.72281 0.0
C365 C 0.30878 0.38599 0.7885 0.0
C366 C 0.30959 0.38591 0.76589 0.0
H367 H 0.34087 0.40913 0.66049 0.0
H368 H 0.34113 0.4041 0.69709 0.0
H369 H 0.28743 0.35688 0.72493 0.0
H370 H 0.27627 0.3732 0.82724 0.0
H371 H 0.27753 0.37004 0.79031 0.0
C372 C 0.91797 0.32839 0.17103 0.0
C373 C 0.9092 0.31069 0.16052 0.0
C374 C 0.92049 0.3289 0.19213 0.0
C375 C 0.92061 0.30039 0.23661 0.0
H376 H 0.9057 0.33299 0.26607 0.0
C377 C 0.90433 0.29346 0.32326 0.0
C378 C 0.90987 0.31053 0.33429 0.0
C379 C 0.90669 0.29403 0.30208 0.0
C380 C 0.91023 0.32405 0.2581 0.0
H381 H 0.89684 0.27971 0.1638 0.0
H382 H 0.90102 0.2806 0.20074 0.0
H383 H 0.90553 0.333 0.229 0.0
H384 H 0.92309 0.34169 0.3319 0.0
H385 H 0.92741 0.34269 0.29506 0.0
H386 H 0.92499 0.29123 0.26587 0.0
C387 C 0.90612 0.29409 0.19261 0.0
C388 C 0.91013 0.32405 0.23683 0.0
C389 C 0.90362 0.29358 0.17146 0.0
C390 C 0.91849 0.32825 0.32383 0.0
C391 C 0.92089 0.32882 0.30271 0.0
C392 C 0.92072 0.30039 0.25795 0.0
C393 C 0.91426 0.31174 0.20321 0.0
C394 C 0.91523 0.31218 0.22583 0.0
C395 C 0.91466 0.31169 0.29154 0.0
C396 C 0.91545 0.31217 0.26892 0.0
H397 H 0.92259 0.34186 0.16303 0.0
H398 H 0.92712 0.34275 0.19982 0.0
H399 H 0.9248 0.29123 0.22854 0.0
H400 H 0.89765 0.27957 0.33088 0.0
H401 H 0.90159 0.28056 0.2939 0.0
C402 C 0.61827 0.9166 0.6661 0.0
C403 C 0.60427 0.91998 0.65713 0.0
C404 C 0.62247 0.92005 0.6869 0.0
C405 C 0.61636 0.94445 0.73208 0.0
H406 H 0.61524 0.90214 0.76219 0.0
C407 C 0.59545 0.93003 0.81657 0.0
C408 C 0.60456 0.92272 0.82913 0.0
C409 C 0.5996 0.93281 0.79576 0.0
C410 C 0.616 0.91428 0.75402 0.0
H411 H 0.58427 0.93036 0.66275 0.0
H412 H 0.59148 0.9362 0.69897 0.0
H413 H 0.61522 0.9016 0.72503 0.0
H414 H 0.6257 0.91329 0.82985 0.0
H415 H 0.63297 0.9182 0.7934 0.0
H416 H 0.61651 0.95681 0.76111 0.0
C417 C 0.59934 0.93105 0.68994 0.0
C418 C 0.61599 0.91397 0.73271 0.0
C419 C 0.59509 0.92755 0.6692 0.0
C420 C 0.61837 0.91884 0.82055 0.0
C421 C 0.62248 0.92158 0.79968 0.0
C422 C 0.61639 0.94477 0.75339 0.0
C423 C 0.61283 0.92704 0.6991 0.0
C424 C 0.61565 0.9288 0.72153 0.0
C425 C 0.61293 0.92834 0.78702 0.0
C426 C 0.6157 0.92943 0.76458 0.0
H427 H 0.62565 0.91085 0.65718 0.0
H428 H 0.63307 0.91699 0.69351 0.0
H429 H 0.61644 0.95625 0.72385 0.0
H430 H 0.58477 0.93321 0.8227 0.0
H431 H 0.59179 0.93778 0.78639 0.0
C432 C 0.66458 0.59706 0.32235 0.0
C433 C 0.68182 0.60369 0.33337 0.0
C434 C 0.665 0.5998 0.30129 0.0
C435 C 0.69682 0.62657 0.25769 0.0
H436 H 0.66047 0.58117 0.22728 0.0
C437 C 0.70454 0.61492 0.17167 0.0
C438 C 0.68754 0.6053 0.16005 0.0
C439 C 0.70362 0.6173 0.19271 0.0
C440 C 0.67051 0.5941 0.23551 0.0
H441 H 0.71305 0.6191 0.33107 0.0
H442 H 0.71376 0.62357 0.29421 0.0
H443 H 0.6592 0.58073 0.2643 0.0
H444 H 0.65631 0.59168 0.16115 0.0
H445 H 0.65475 0.59604 0.19772 0.0
H446 H 0.70838 0.63973 0.2287 0.0
C447 C 0.69993 0.61646 0.30189 0.0
C448 C 0.66977 0.59385 0.25676 0.0
C449 C 0.69951 0.6138 0.32301 0.0
C450 C 0.66967 0.59895 0.1697 0.0
C451 C 0.66876 0.60138 0.19067 0.0
C452 C 0.69757 0.62681 0.23635 0.0
C453 C 0.68265 0.60913 0.29075 0.0
C454 C 0.68297 0.61003 0.26812 0.0
C455 C 0.68568 0.61014 0.20249 0.0
C456 C 0.68447 0.61052 0.22506 0.0
H457 H 0.65071 0.58939 0.32992 0.0
H458 H 0.65144 0.59431 0.2932 0.0
H459 H 0.70706 0.63932 0.26602 0.0
H460 H 0.71853 0.62001 0.16467 0.0
H461 H 0.7169 0.62401 0.20142 0.0
C462 C 0.07985 0.6971 0.67041 0.0
C463 C 0.07402 0.67994 0.65943 0.0
C464 C 0.0771 0.69656 0.69152 0.0
C465 C 0.07226 0.6661 0.73545 0.0
H466 H 0.05955 0.7003 0.76504 0.0
C467 C 0.06706 0.66326 0.82257 0.0
C468 C 0.07676 0.68116 0.83265 0.0
C469 C 0.06354 0.66241 0.80163 0.0
C470 C 0.06318 0.69073 0.75696 0.0
H471 H 0.05971 0.6487 0.66176 0.0
H472 H 0.0547 0.64777 0.69847 0.0
H473 H 0.059 0.70007 0.72769 0.0
H474 H 0.08961 0.71214 0.82887 0.0
H475 H 0.08377 0.71067 0.79221 0.0
H476 H 0.07688 0.65704 0.7645 0.0
C477 C 0.06177 0.66166 0.69086 0.0
C478 C 0.06287 0.6906 0.73561 0.0
C479 C 0.06458 0.6622 0.66981 0.0
C480 C 0.08214 0.69814 0.82153 0.0
C481 C 0.07869 0.69729 0.80054 0.0
C482 C 0.07257 0.66624 0.75671 0.0
C483 C 0.06841 0.67885 0.70202 0.0
C484 C 0.06754 0.67836 0.72464 0.0
C485 C 0.06974 0.67944 0.7903 0.0
C486 C 0.06817 0.67863 0.76772 0.0
H487 H 0.08713 0.711 0.66283 0.0
H488 H 0.08251 0.71007 0.69971 0.0
H489 H 0.07633 0.6568 0.72747 0.0
H490 H 0.06253 0.64989 0.83075 0.0
H491 H 0.05628 0.64842 0.79425 0.0
C492 C 0.92522 0.58731 0.17266 0.0
C493 C 0.91767 0.59719 0.16178 0.0
C494 C 0.92675 0.58866 0.19386 0.0
C495 C 0.92643 0.61681 0.2385 0.0
H496 H 0.90818 0.5681 0.26676 0.0
C497 C 0.90799 0.60607 0.32476 0.0
C498 C 0.91255 0.59368 0.33557 0.0
C499 C 0.91073 0.60822 0.30364 0.0
C500 C 0.91362 0.58188 0.25914 0.0
H501 H 0.90647 0.61684 0.16456 0.0
H502 H 0.90892 0.619 0.20171 0.0
H503 H 0.90928 0.56886 0.22971 0.0
H504 H 0.92442 0.57458 0.33289 0.0
H505 H 0.92941 0.57855 0.29618 0.0
H506 H 0.9305 0.62974 0.26809 0.0
C507 C 0.91382 0.61035 0.19378 0.0
C508 C 0.91424 0.58232 0.23789 0.0
C509 C 0.91232 0.60902 0.17251 0.0
C510 C 0.92057 0.58408 0.32498 0.0
C511 C 0.92335 0.58628 0.30392 0.0
C512 C 0.92581 0.61638 0.25984 0.0
C513 C 0.92071 0.59989 0.20469 0.0
C514 C 0.92064 0.59977 0.22732 0.0
C515 C 0.91811 0.59807 0.29296 0.0
C516 C 0.91938 0.59888 0.27037 0.0
H517 H 0.92966 0.57822 0.16484 0.0
H518 H 0.93246 0.58072 0.20182 0.0
H519 H 0.93157 0.6305 0.23077 0.0
H520 H 0.90181 0.61368 0.33249 0.0
H521 H 0.90642 0.6173 0.2956 0.0
C522 C 0.29647 0.92195 0.82129 0.0
C523 C 0.31378 0.92519 0.8303 0.0
C524 C 0.29556 0.92461 0.80032 0.0
C525 C 0.32583 0.94624 0.7542 0.0
H526 H 0.28316 0.90365 0.72598 0.0
C527 C 0.32987 0.92727 0.67058 0.0
C528 C 0.31336 0.92043 0.65825 0.0
C529 C 0.32908 0.931 0.69125 0.0
C530 C 0.29498 0.91586 0.73361 0.0
H531 H 0.34392 0.93455 0.82452 0.0
H532 H 0.34227 0.93898 0.78804 0.0
H533 H 0.28324 0.90479 0.76311 0.0
H534 H 0.28323 0.91274 0.65778 0.0
H535 H 0.28187 0.91926 0.69399 0.0
H536 H 0.33788 0.95691 0.72466 0.0
C537 C 0.32943 0.93457 0.79715 0.0
C538 C 0.29502 0.91652 0.75491 0.0
C539 C 0.33033 0.93188 0.81806 0.0
C540 C 0.29618 0.91792 0.6669 0.0
C541 C 0.29537 0.92159 0.68764 0.0
C542 C 0.3258 0.94555 0.73291 0.0
C543 C 0.31196 0.93064 0.78797 0.0
C544 C 0.31067 0.93146 0.76544 0.0
C545 C 0.31176 0.92793 0.70007 0.0
C546 C 0.3106 0.9301 0.72242 0.0
H547 H 0.28348 0.91688 0.83033 0.0
H548 H 0.28194 0.92168 0.79371 0.0
H549 H 0.33793 0.95811 0.76189 0.0
H550 H 0.34334 0.92939 0.66438 0.0
H551 H 0.34189 0.93563 0.70048 0.0
C552 C 0.38846 0.29726 0.31856 0.0
C553 C 0.39803 0.3148 0.32933 0.0
C554 C 0.38676 0.29721 0.29732 0.0
C555 C 0.41094 0.32821 0.25309 0.0
H556 H 0.36577 0.29066 0.22325 0.0
C557 C 0.40763 0.33153 0.16604 0.0
C558 C 0.40126 0.31403 0.15557 0.0
C559 C 0.40497 0.33164 0.18707 0.0
C560 C 0.37851 0.30116 0.2314 0.0
H561 H 0.41247 0.346 0.3264 0.0
H562 H 0.40925 0.34588 0.28947 0.0
H563 H 0.36518 0.29086 0.26058 0.0
H564 H 0.38634 0.28284 0.15881 0.0
H565 H 0.38192 0.28306 0.19565 0.0
H566 H 0.42441 0.33837 0.22408 0.0
C567 C 0.40343 0.33218 0.29735 0.0
C568 C 0.37818 0.30127 0.25275 0.0
C569 C 0.4052 0.33224 0.31854 0.0
C570 C 0.39145 0.29657 0.16645 0.0
C571 C 0.38882 0.29669 0.18754 0.0
C572 C 0.41127 0.32811 0.23182 0.0
C573 C 0.39455 0.31469 0.28646 0.0
C574 C 0.39442 0.31479 0.26381 0.0
C575 C 0.39594 0.31425 0.19812 0.0
C576 C 0.39509 0.31458 0.22073 0.0
H577 H 0.38277 0.28358 0.32645 0.0
H578 H 0.37997 0.28349 0.28936 0.0
H579 H 0.42385 0.33854 0.26113 0.0
H580 H 0.41507 0.34523 0.15809 0.0
H581 H 0.41029 0.34538 0.19474 0.0
C582 C 0.0786 0.38354 0.67176 0.0
C583 C 0.07288 0.39496 0.66081 0.0
C584 C 0.07599 0.38144 0.6929 0.0
C585 C 0.07151 0.40722 0.73697 0.0
H586 H 0.05759 0.35988 0.76632 0.0
C587 C 0.06376 0.40374 0.82393 0.0
C588 C 0.0728 0.39509 0.83444 0.0
C589 C 0.06111 0.40156 0.80285 0.0
C590 C 0.06159 0.37322 0.75831 0.0
H591 H 0.05899 0.41227 0.66326 0.0
H592 H 0.05422 0.40839 0.7 0.0
H593 H 0.05762 0.35985 0.72898 0.0
H594 H 0.08545 0.37673 0.83119 0.0
H595 H 0.08109 0.37319 0.79427 0.0
H596 H 0.07586 0.42072 0.76611 0.0
C597 C 0.06109 0.4014 0.69235 0.0
C598 C 0.06161 0.3732 0.73696 0.0
C599 C 0.06376 0.40354 0.67127 0.0
C600 C 0.07846 0.3836 0.82353 0.0
C601 C 0.07587 0.38148 0.80239 0.0
C602 C 0.0715 0.40724 0.75823 0.0
C603 C 0.06756 0.39068 0.70346 0.0
C604 C 0.06664 0.39023 0.72607 0.0
C605 C 0.06752 0.39077 0.79178 0.0
C606 C 0.06662 0.39028 0.76916 0.0
H607 H 0.08565 0.37672 0.66413 0.0
H608 H 0.08125 0.37321 0.70105 0.0
H609 H 0.07587 0.42068 0.72906 0.0
H610 H 0.05904 0.41252 0.83192 0.0
H611 H 0.0543 0.4086 0.79517 0.0
C612 C 0.65955 0.06334 0.31607 0.0
C613 C 0.67597 0.07124 0.32866 0.0
C614 C 0.66106 0.06032 0.29534 0.0
C615 C 0.6957 0.07967 0.25374 0.0
H616 H 0.65634 0.03567 0.22386 0.0
C617 C 0.69681 0.07763 0.16614 0.0
C618 C 0.67902 0.07218 0.15674 0.0
C619 C 0.69765 0.07426 0.18694 0.0
C620 C 0.66743 0.04806 0.23198 0.0
H621 H 0.70671 0.08151 0.32955 0.0
H622 H 0.70934 0.07634 0.29322 0.0
H623 H 0.65553 0.03568 0.26112 0.0
H624 H 0.64808 0.05813 0.16157 0.0
H625 H 0.64958 0.05265 0.19782 0.0
H626 H 0.70714 0.09248 0.22474 0.0
C627 C 0.69534 0.07258 0.29943 0.0
C628 C 0.66697 0.04804 0.2533 0.0
C629 C 0.69381 0.07548 0.32022 0.0
C630 C 0.66203 0.06254 0.16835 0.0
C631 C 0.66287 0.05926 0.18914 0.0
C632 C 0.6961 0.07974 0.23245 0.0
C633 C 0.67903 0.06522 0.28674 0.0
C634 C 0.68086 0.06403 0.26436 0.0
C635 C 0.68073 0.06544 0.19878 0.0
C636 C 0.68171 0.06413 0.22131 0.0
H637 H 0.64558 0.05985 0.32212 0.0
H638 H 0.64828 0.05484 0.28589 0.0
H639 H 0.70646 0.0923 0.26185 0.0
H640 H 0.71015 0.08493 0.15757 0.0
H641 H 0.7116 0.07892 0.19384 0.0
C642 C 0.59074 0.66363 0.67731 0.0
C643 C 0.6007 0.67999 0.66482 0.0
C644 C 0.59414 0.6649 0.69829 0.0
C645 C 0.60971 0.69998 0.7398 0.0
H646 H 0.60699 0.65768 0.77145 0.0
C647 C 0.60697 0.69945 0.82783 0.0
C648 C 0.59214 0.68218 0.83619 0.0
C649 C 0.61226 0.70024 0.80736 0.0
C650 C 0.6078 0.66962 0.76281 0.0
H651 H 0.62266 0.71033 0.6644 0.0
H652 H 0.62862 0.71252 0.70114 0.0
H653 H 0.609 0.65719 0.73429 0.0
H654 H 0.57173 0.65203 0.82985 0.0
H655 H 0.58084 0.65346 0.79423 0.0
H656 H 0.60783 0.71208 0.76824 0.0
C657 C 0.61804 0.69876 0.69468 0.0
C658 C 0.60894 0.66934 0.74156 0.0
C659 C 0.61468 0.69748 0.67364 0.0
C660 C 0.58317 0.66558 0.82387 0.0
C661 C 0.58851 0.66635 0.80348 0.0
C662 C 0.60857 0.70027 0.76106 0.0
C663 C 0.60756 0.68255 0.70726 0.0
C664 C 0.60936 0.68424 0.7298 0.0
C665 C 0.60292 0.68375 0.79491 0.0
C666 C 0.60705 0.68482 0.77274 0.0
H667 H 0.57991 0.64992 0.67099 0.0
H668 H 0.58564 0.6522 0.70758 0.0
H669 H 0.60979 0.71158 0.73118 0.0
H670 H 0.61421 0.71247 0.83696 0.0
H671 H 0.62352 0.71381 0.8012 0.0
C672 C 0.43945 0.15343 0.05808 0.0
C673 C 0.43362 0.14399 0.07704 0.0
C674 C 0.44281 0.17228 0.0558 0.0
C675 C 0.45372 0.21569 0.08557 0.0
H676 H 0.4288 0.22734 0.04148 0.0
C677 C 0.43691 0.27699 0.09091 0.0
C678 C 0.43929 0.28835 0.0736 0.0
C679 C 0.4391 0.2608 0.08951 0.0
C680 C 0.43616 0.22443 0.05365 0.0
H681 H 0.42689 0.14695 0.10847 0.0
H682 H 0.43274 0.17966 0.10449 0.0
H683 H 0.42752 0.19612 0.0422 0.0
H684 H 0.44594 0.29167 0.04124 0.0
H685 H 0.44974 0.26317 0.03882 0.0
H686 H 0.46195 0.24372 0.09733 0.0
C687 C 0.43487 0.1726 0.09143 0.0
C688 C 0.43542 0.20658 0.05406 0.0
C689 C 0.43136 0.15379 0.09366 0.0
C690 C 0.44401 0.2832 0.05485 0.0
C691 C 0.44612 0.26687 0.05343 0.0
C692 C 0.4545 0.2335 0.08513 0.0
C693 C 0.44062 0.18205 0.07251 0.0
C694 C 0.44371 0.20184 0.07036 0.0
C695 C 0.4437 0.25553 0.07078 0.0
C696 C 0.44523 0.23783 0.06952 0.0
H697 H 0.4413 0.14624 0.04499 0.0
H698 H 0.44726 0.17927 0.04106 0.0
H699 H 0.46057 0.21256 0.09809 0.0
H700 H 0.43323 0.28051 0.10559 0.0
H701 H 0.43679 0.25216 0.10308 0.0
C702 C 0.14533 0.4241 0.59665 0.0
C703 C 0.14065 0.43495 0.58338 0.0
C704 C 0.16361 0.426 0.59617 0.0
C705 C 0.20628 0.44135 0.56376 0.0
H706 H 0.23037 0.44166 0.61526 0.0
C707 C 0.28266 0.44994 0.57 0.0
C708 C 0.28401 0.4369 0.58335 0.0
C709 C 0.26594 0.45137 0.56952 0.0
C710 C 0.22379 0.44151 0.60076 0.0
H711 H 0.15145 0.45621 0.55905 0.0
H712 H 0.18357 0.45959 0.5583 0.0
H713 H 0.19974 0.44126 0.61524 0.0
H714 H 0.26887 0.41509 0.6066 0.0
H715 H 0.23983 0.41759 0.60571 0.0
H716 H 0.23035 0.4414 0.54933 0.0
C717 C 0.17297 0.44953 0.56897 0.0
C718 C 0.20624 0.44125 0.60074 0.0
C719 C 0.15462 0.44764 0.56946 0.0
C720 C 0.26833 0.42532 0.59616 0.0
C721 C 0.25173 0.42683 0.59576 0.0
C722 C 0.22391 0.44165 0.56378 0.0
C723 C 0.17768 0.43881 0.58244 0.0
C724 C 0.19711 0.44078 0.58226 0.0
C725 C 0.25037 0.43991 0.5825 0.0
C726 C 0.23262 0.44134 0.5823 0.0
H727 H 0.13488 0.41411 0.60749 0.0
H728 H 0.16667 0.41726 0.60647 0.0
H729 H 0.19952 0.44087 0.54929 0.0
H730 H 0.2945 0.45905 0.55993 0.0
H731 H 0.26529 0.46163 0.55921 0.0
C732 C 0.82834 0.2827 0.06841 0.0
C733 C 0.84165 0.28434 0.08342 0.0
C734 C 0.80992 0.26635 0.06767 0.0
C735 C 0.77466 0.22638 0.09956 0.0
H736 H 0.75494 0.19882 0.04852 0.0
C737 C 0.71529 0.14714 0.0973 0.0
C738 C 0.70094 0.14102 0.08221 0.0
C739 C 0.73112 0.1658 0.09693 0.0
C740 C 0.76009 0.20653 0.06282 0.0
H741 H 0.84606 0.27017 0.10944 0.0
H742 H 0.81403 0.24178 0.10814 0.0
H743 H 0.78523 0.22967 0.04877 0.0
H744 H 0.6919 0.14971 0.05491 0.0
H745 H 0.71968 0.1825 0.05433 0.0
H746 H 0.74979 0.2032 0.1137 0.0
C747 C 0.81776 0.25316 0.09705 0.0
C748 C 0.77742 0.22416 0.06296 0.0
C749 C 0.83616 0.26938 0.09769 0.0
C750 C 0.70275 0.154 0.06673 0.0
C751 C 0.71866 0.17274 0.06635 0.0
C752 C 0.75736 0.20883 0.09942 0.0
C753 C 0.80445 0.25148 0.08206 0.0
C754 C 0.78509 0.234 0.08142 0.0
C755 C 0.73298 0.17882 0.0815 0.0
C756 C 0.75013 0.19848 0.08114 0.0
H757 H 0.83217 0.294 0.05719 0.0
H758 H 0.7999 0.26542 0.056 0.0
H759 H 0.78007 0.23386 0.11395 0.0
H760 H 0.71439 0.1375 0.10941 0.0
H761 H 0.74208 0.16992 0.1086 0.0
C762 C 0.5436 0.70581 0.57492 0.0
C763 C 0.55633 0.70469 0.58891 0.0
C764 C 0.54177 0.72232 0.57411 0.0
C765 C 0.55048 0.76454 0.60504 0.0
H766 H 0.55054 0.78788 0.55312 0.0
C767 C 0.56778 0.84296 0.59887 0.0
C768 C 0.55634 0.84714 0.58593 0.0
C769 C 0.56589 0.82466 0.59885 0.0
C770 C 0.55023 0.78136 0.56771 0.0
H771 H 0.57729 0.72008 0.61282 0.0
H772 H 0.57424 0.74878 0.61124 0.0
H773 H 0.5506 0.75731 0.55373 0.0
H774 H 0.53406 0.83544 0.56266 0.0
H775 H 0.53082 0.80333 0.5626 0.0
H776 H 0.55051 0.78872 0.61904 0.0
C777 C 0.56543 0.73683 0.60114 0.0
C778 C 0.55026 0.76388 0.56807 0.0
C779 C 0.56727 0.72041 0.60194 0.0
C780 C 0.54306 0.83265 0.57282 0.0
C781 C 0.54126 0.81431 0.57272 0.0
C782 C 0.5505 0.78198 0.60468 0.0
C783 C 0.55259 0.73794 0.58732 0.0
C784 C 0.55078 0.75551 0.58675 0.0
C785 C 0.55258 0.81013 0.58584 0.0
C786 C 0.55077 0.79077 0.58604 0.0
H787 H 0.53497 0.69393 0.56469 0.0
H788 H 0.5317 0.72274 0.56337 0.0
H789 H 0.55044 0.75821 0.61968 0.0
H790 H 0.57819 0.85381 0.60912 0.0
H791 H 0.57503 0.82195 0.60889 0.0
C792 C 0.71318 0.54832 0.07183 0.0
C793 C 0.71344 0.56379 0.08231 0.0
C794 C 0.73023 0.54783 0.0689 0.0
C795 C 0.78335 0.57896 0.06939 0.0
H796 H 0.7832 0.53127 0.08082 0.0
C797 C 0.85215 0.5769 0.08865 0.0
C798 C 0.85451 0.56199 0.08037 0.0
C799 C 0.83485 0.57688 0.08608 0.0
C800 C 0.78341 0.5446 0.07725 0.0
H801 H 0.7318 0.59096 0.09781 0.0
H802 H 0.76141 0.58998 0.09293 0.0
H803 H 0.75289 0.53165 0.0814 0.0
H804 H 0.84064 0.53545 0.06275 0.0
H805 H 0.81027 0.53542 0.05834 0.0
H806 H 0.81392 0.59202 0.06578 0.0
C807 C 0.74811 0.57836 0.08669 0.0
C808 C 0.76606 0.54483 0.07757 0.0
C809 C 0.7311 0.57885 0.08963 0.0
C810 C 0.83924 0.54713 0.06933 0.0
C811 C 0.82185 0.54706 0.06686 0.0
C812 C 0.80067 0.57874 0.06912 0.0
C813 C 0.74786 0.56283 0.07636 0.0
C814 C 0.76592 0.56211 0.07405 0.0
C815 C 0.81949 0.56193 0.07525 0.0
C816 C 0.80092 0.56166 0.07344 0.0
H817 H 0.6998 0.53653 0.06595 0.0
H818 H 0.72963 0.53576 0.06073 0.0
H819 H 0.78364 0.5924 0.0662 0.0
H820 H 0.86362 0.58856 0.09724 0.0
H821 H 0.83335 0.58839 0.09297 0.0
C822 C 0.27129 0.84435 0.59784 0.0
C823 C 0.28727 0.84801 0.58576 0.0
C824 C 0.25455 0.82632 0.59738 0.0
C825 C 0.22746 0.7829 0.56603 0.0
H826 H 0.20109 0.76072 0.61709 0.0
C827 C 0.15796 0.70776 0.57176 0.0
C828 C 0.14336 0.70696 0.58438 0.0
C829 C 0.17631 0.72423 0.57154 0.0
C830 C 0.20822 0.76679 0.6027 0.0
H831 H 0.29818 0.83566 0.56358 0.0
H832 H 0.26879 0.80402 0.56282 0.0
H833 H 0.23188 0.79082 0.61743 0.0
H834 H 0.13649 0.72288 0.60647 0.0
H835 H 0.16834 0.75154 0.60596 0.0
H836 H 0.20358 0.75891 0.55131 0.0
C837 C 0.26927 0.8152 0.57256 0.0
C838 C 0.22584 0.78401 0.6029 0.0
C839 C 0.2861 0.83327 0.57307 0.0
C840 C 0.14743 0.72298 0.59663 0.0
C841 C 0.16572 0.73937 0.59645 0.0
C842 C 0.20977 0.76562 0.56584 0.0
C843 C 0.25337 0.81153 0.58482 0.0
C844 C 0.23548 0.79243 0.58455 0.0
C845 C 0.18039 0.74014 0.58401 0.0
C846 C 0.19982 0.7576 0.58416 0.0
H847 H 0.27167 0.8554 0.60773 0.0
H848 H 0.24241 0.82404 0.60673 0.0
H849 H 0.2345 0.78913 0.55165 0.0
H850 H 0.15527 0.69564 0.56214 0.0
H851 H 0.18738 0.7244 0.56188 0.0
C852 C 0.83044 0.54384 0.42708 0.0
C853 C 0.84451 0.55584 0.41286 0.0
C854 C 0.81227 0.5424 0.42723 0.0
C855 C 0.7796 0.55059 0.39431 0.0
H856 H 0.75624 0.55339 0.44512 0.0
C857 C 0.71989 0.57003 0.39668 0.0
C858 C 0.70405 0.55933 0.40962 0.0
C859 C 0.73599 0.56767 0.39755 0.0
C860 C 0.76247 0.55232 0.43085 0.0
H861 H 0.85066 0.57591 0.38783 0.0
H862 H 0.81921 0.57355 0.38827 0.0
H863 H 0.78646 0.55271 0.44586 0.0
H864 H 0.69273 0.53789 0.43376 0.0
H865 H 0.72107 0.53385 0.43532 0.0
H866 H 0.75591 0.55062 0.37927 0.0
C867 C 0.82203 0.56499 0.39907 0.0
C868 C 0.77974 0.55191 0.43126 0.0
C869 C 0.84012 0.56645 0.39893 0.0
C870 C 0.70472 0.54632 0.42358 0.0
C871 C 0.72094 0.54406 0.42454 0.0
C872 C 0.76243 0.55104 0.3939 0.0
C873 C 0.80787 0.55288 0.41312 0.0
C874 C 0.78868 0.55145 0.41296 0.0
C875 C 0.73667 0.55462 0.41142 0.0
C876 C 0.75389 0.55231 0.41213 0.0
H877 H 0.83339 0.53548 0.43801 0.0
H878 H 0.8016 0.53288 0.43818 0.0
H879 H 0.78592 0.54979 0.37998 0.0
H880 H 0.71987 0.5802 0.38577 0.0
H881 H 0.74804 0.57623 0.38747 0.0
C882 C 0.153 0.72553 0.89198 0.0
C883 C 0.14904 0.71011 0.90515 0.0
C884 C 0.17115 0.7421 0.89187 0.0
C885 C 0.2145 0.7701 0.92311 0.0
H886 H 0.2368 0.79475 0.87135 0.0
C887 C 0.28954 0.83945 0.91596 0.0
C888 C 0.29015 0.85376 0.90299 0.0
C889 C 0.27319 0.82101 0.91648 0.0
C890 C 0.2307 0.78808 0.88593 0.0
H891 H 0.16105 0.69999 0.92857 0.0
H892 H 0.19293 0.72905 0.9283 0.0
H893 H 0.20669 0.76395 0.87175 0.0
H894 H 0.27408 0.85999 0.88049 0.0
H895 H 0.24567 0.82796 0.88147 0.0
H896 H 0.23849 0.79444 0.93725 0.0
C897 C 0.18187 0.72829 0.91817 0.0
C898 C 0.21347 0.77046 0.88616 0.0
C899 C 0.16365 0.71164 0.91826 0.0
C900 C 0.27411 0.84929 0.89062 0.0
C901 C 0.25787 0.83089 0.89106 0.0
C902 C 0.2318 0.78775 0.92287 0.0
C903 C 0.18581 0.74366 0.90492 0.0
C904 C 0.20498 0.76147 0.90475 0.0
C905 C 0.25725 0.81654 0.90394 0.0
C906 C 0.23986 0.79708 0.90428 0.0
H907 H 0.14205 0.72486 0.88174 0.0
H908 H 0.17363 0.75383 0.88175 0.0
H909 H 0.20822 0.76359 0.93767 0.0
H910 H 0.30167 0.84245 0.92568 0.0
H911 H 0.27313 0.81018 0.92647 0.0
C912 C 0.4273 0.15613 0.40219 0.0
C913 C 0.43203 0.14812 0.41876 0.0
C914 C 0.43009 0.17474 0.40338 0.0
C915 C 0.43348 0.21136 0.4389 0.0
H916 H 0.45423 0.24463 0.39152 0.0
C917 C 0.44028 0.28723 0.43309 0.0
C918 C 0.43321 0.29038 0.41469 0.0
C919 C 0.44272 0.27115 0.43528 0.0
C920 C 0.4484 0.2355 0.40487 0.0
H921 H 0.44321 0.1533 0.44969 0.0
H922 H 0.44794 0.18602 0.45181 0.0
H923 H 0.4539 0.21399 0.39243 0.0
H924 H 0.42316 0.27916 0.38422 0.0
H925 H 0.42736 0.25128 0.38808 0.0
H926 H 0.42746 0.23271 0.45104 0.0
C927 C 0.44212 0.17778 0.43791 0.0
C928 C 0.44822 0.21799 0.40538 0.0
C929 C 0.43947 0.15911 0.43666 0.0
C930 C 0.42868 0.2772 0.39858 0.0
C931 C 0.43122 0.26129 0.40073 0.0
C932 C 0.43364 0.22894 0.43837 0.0
C933 C 0.43759 0.1858 0.42119 0.0
C934 C 0.44024 0.20548 0.42212 0.0
C935 C 0.43831 0.2581 0.41905 0.0
C936 C 0.44058 0.24089 0.42106 0.0
H937 H 0.42151 0.14806 0.38818 0.0
H938 H 0.42614 0.18042 0.39039 0.0
H939 H 0.42718 0.20195 0.45196 0.0
H940 H 0.44389 0.29713 0.44579 0.0
H941 H 0.44824 0.26904 0.44956 0.0
C942 C 0.27695 0.43748 0.92846 0.0
C943 C 0.2792 0.4276 0.91188 0.0
C944 C 0.26095 0.44011 0.92951 0.0
C945 C 0.22369 0.44071 0.89694 0.0
H946 H 0.19411 0.42996 0.94696 0.0
C947 C 0.14578 0.42506 0.89738 0.0
C948 C 0.13997 0.43325 0.91283 0.0
C949 C 0.16386 0.42653 0.8981 0.0
C950 C 0.20241 0.43331 0.93298 0.0
H951 H 0.26634 0.41256 0.88353 0.0
H952 H 0.2385 0.41702 0.88547 0.0
H953 H 0.22396 0.42855 0.9468 0.0
H954 H 0.14858 0.44938 0.94123 0.0
H955 H 0.18034 0.45191 0.94248 0.0
H956 H 0.20202 0.44507 0.88299 0.0
C957 C 0.2492 0.42299 0.8975 0.0
C958 C 0.21947 0.4325 0.93288 0.0
C959 C 0.2651 0.42031 0.89648 0.0
C960 C 0.15265 0.44292 0.92909 0.0
C961 C 0.17078 0.44431 0.92986 0.0
C962 C 0.20668 0.4415 0.89703 0.0
C963 C 0.247 0.433 0.91395 0.0
C964 C 0.23002 0.43576 0.91473 0.0
C965 C 0.17657 0.43619 0.9143 0.0
C966 C 0.19564 0.43738 0.91492 0.0
H967 H 0.28759 0.44327 0.94056 0.0
H968 H 0.25966 0.44796 0.94232 0.0
H969 H 0.23176 0.44371 0.88283 0.0
H970 H 0.13635 0.41747 0.88466 0.0
H971 H 0.1678 0.41984 0.88607 0.0
C972 C 0.70164 0.15263 0.4212 0.0
C973 C 0.70015 0.13956 0.40596 0.0
C974 C 0.71808 0.17098 0.42243 0.0
C975 C 0.75907 0.20627 0.39132 0.0
H976 H 0.78417 0.22694 0.44331 0.0
C977 C 0.83754 0.26712 0.39665 0.0
C978 C 0.84215 0.28212 0.41066 0.0
C979 C 0.81928 0.25068 0.39669 0.0
C980 C 0.77715 0.22147 0.42873 0.0
H981 H 0.7148 0.1354 0.38024 0.0
H982 H 0.74337 0.16716 0.38252 0.0
H983 H 0.75367 0.19628 0.4423 0.0
H984 H 0.83128 0.29155 0.43588 0.0
H985 H 0.79924 0.26262 0.43598 0.0
H986 H 0.78268 0.23117 0.37768 0.0
C987 C 0.73177 0.16341 0.39331 0.0
C988 C 0.75971 0.20394 0.42815 0.0
C989 C 0.71543 0.14514 0.3921 0.0
C990 C 0.82814 0.28024 0.42488 0.0
C991 C 0.80985 0.26367 0.42499 0.0
C992 C 0.77647 0.2237 0.39189 0.0
C993 C 0.73324 0.17658 0.40839 0.0
C994 C 0.75072 0.19598 0.40938 0.0
C995 C 0.80523 0.24882 0.41078 0.0
C996 C 0.78589 0.23128 0.41055 0.0
H997 H 0.6901 0.14875 0.4321 0.0
H998 H 0.71879 0.18087 0.43415 0.0
H999 H 0.75225 0.20072 0.37667 0.0
H1000 H 0.848 0.26808 0.38552 0.0
H1001 H 0.81622 0.23932 0.38577 0.0
C1002 C 0.55358 0.72181 0.89746 0.0
C1003 C 0.55267 0.71139 0.91509 0.0
C1004 C 0.55237 0.73857 0.89886 0.0
C1005 C 0.5606 0.77762 0.93392 0.0
H1006 H 0.53261 0.78845 0.89255 0.0
C1007 C 0.55838 0.84915 0.93093 0.0
C1008 C 0.56221 0.85784 0.91155 0.0
C1009 C 0.55506 0.83032 0.93322 0.0
C1010 C 0.5405 0.78563 0.90419 0.0
H1011 H 0.54963 0.71031 0.94805 0.0
H1012 H 0.5475 0.73974 0.95048 0.0
H1013 H 0.53039 0.75691 0.89335 0.0
H1014 H 0.56545 0.85359 0.87937 0.0
H1015 H 0.55967 0.82089 0.88338 0.0
H1016 H 0.57102 0.80656 0.94446 0.0
C1017 C 0.54925 0.73491 0.9356 0.0
C1018 C 0.53925 0.7676 0.90465 0.0
C1019 C 0.5504 0.71804 0.93418 0.0
C1020 C 0.56253 0.84732 0.89452 0.0
C1021 C 0.55907 0.82852 0.89678 0.0
C1022 C 0.56182 0.79569 0.93349 0.0
C1023 C 0.55023 0.74533 0.91793 0.0
C1024 C 0.54968 0.76357 0.91916 0.0
C1025 C 0.55531 0.81982 0.91613 0.0
C1026 C 0.55218 0.80001 0.91828 0.0
H1027 H 0.55536 0.71712 0.88251 0.0
H1028 H 0.55352 0.74646 0.885 0.0
H1029 H 0.5689 0.77497 0.9452 0.0
H1030 H 0.55806 0.85691 0.94434 0.0
H1031 H 0.55213 0.82392 0.9483 0.0
C1032 C 0.32437 0.95682 0.93442 0.0
C1033 C 0.32503 0.9405 0.94129 0.0
C1034 C 0.32503 0.97039 0.94832 0.0
C1035 C 0.3219 0.97899 0.00379 0.0
H1036 H 0.35875 0.03208 0.98974 0.0
C1037 C 0.36828 0.03706 0.06196 0.0
C1038 C 0.37257 0.05619 0.05885 0.0
C1039 C 0.35714 0.02272 0.04784 0.0
C1040 C 0.34807 0.0174 0.99375 0.0
H1041 H 0.32616 0.92523 0.96814 0.0
H1042 H 0.32788 0.9491 0.99232 0.0
H1043 H 0.34902 0.00698 0.96402 0.0
H1044 H 0.36785 0.07518 0.03904 0.0
H1045 H 0.34858 0.05003 0.01405 0.0
H1046 H 0.32196 0.98943 0.03393 0.0
C1047 C 0.32646 0.95129 0.97624 0.0
C1048 C 0.34247 0.00297 0.979 0.0
C1049 C 0.32566 0.93767 0.96236 0.0
C1050 C 0.36479 0.06055 0.04179 0.0
C1051 C 0.35382 0.04621 0.02749 0.0
C1052 C 0.32763 0.99341 0.01859 0.0
C1053 C 0.32649 0.96798 0.96938 0.0
C1054 C 0.3298 0.98352 0.98403 0.0
C1055 C 0.35022 0.02725 0.03021 0.0
C1056 C 0.34123 0.01265 0.01385 0.0
H1057 H 0.32364 0.95929 0.91827 0.0
H1058 H 0.32473 0.98293 0.94255 0.0
H1059 H 0.31178 0.9642 0.00803 0.0
H1060 H 0.37395 0.03324 0.07505 0.0
H1061 H 0.35478 0.00829 0.05022 0.0
C1062 C 0.36471 0.30709 0.44853 0.0
C1063 C 0.3731 0.31918 0.43155 0.0
C1064 C 0.35335 0.31057 0.46217 0.0
C1065 C 0.3273 0.3376 0.46906 0.0
H1066 H 0.3464 0.34475 0.5246 0.0
C1067 C 0.32367 0.39115 0.52437 0.0
C1068 C 0.32204 0.38738 0.54541 0.0
C1069 C 0.32492 0.37842 0.5107 0.0
C1070 C 0.34049 0.3424 0.50932 0.0
H1071 H 0.37519 0.34356 0.41478 0.0
H1072 H 0.35538 0.34956 0.43848 0.0
H1073 H 0.35693 0.32941 0.49971 0.0
H1074 H 0.31933 0.36676 0.56858 0.0
H1075 H 0.32121 0.34438 0.54467 0.0
H1076 H 0.31131 0.35115 0.47852 0.0
C1077 C 0.35754 0.33742 0.4413 0.0
C1078 C 0.34655 0.3336 0.49504 0.0
C1079 C 0.36904 0.33409 0.42783 0.0
C1080 C 0.32083 0.37019 0.55245 0.0
C1081 C 0.32194 0.35739 0.53877 0.0
C1082 C 0.32112 0.34629 0.48338 0.0
C1083 C 0.34998 0.32601 0.45887 0.0
C1084 C 0.34054 0.33172 0.47463 0.0
C1085 C 0.32441 0.36156 0.51778 0.0
C1086 C 0.32819 0.34941 0.50349 0.0
H1087 H 0.36756 0.29545 0.45174 0.0
H1088 H 0.3476 0.30152 0.47557 0.0
H1089 H 0.32226 0.33608 0.45346 0.0
H1090 H 0.32462 0.40426 0.51846 0.0
H1091 H 0.3271 0.38226 0.49468 0.0
C1092 C 0.03267 0.36899 0.93485 0.0
C1093 C 0.05211 0.37537 0.93933 0.0
C1094 C 0.01817 0.35701 0.94841 0.0
C1095 C 0.01069 0.34811 0.00248 0.0
H1096 H 0.95997 0.30745 0.98575 0.0
C1097 C 0.92805 0.31776 0.02846 0.0
C1098 C 0.93015 0.318 0.04974 0.0
C1099 C 0.94286 0.31971 0.01566 0.0
C1100 C 0.97406 0.31877 0.99067 0.0
H1101 H 0.07157 0.37353 0.96109 0.0
H1102 H 0.0461 0.35276 0.98504 0.0
H1103 H 0.98667 0.32016 0.96142 0.0
H1104 H 0.94884 0.3191 0.07434 0.0
H1105 H 0.97456 0.32213 0.05198 0.0
H1106 H -0.002 0.34768 0.03126 0.0
C1107 C 0.04218 0.35705 0.97098 0.0
C1108 C 0.98933 0.32597 0.97678 0.0
C1109 C 0.05671 0.36889 0.95727 0.0
C1110 C 0.94691 0.31913 0.05798 0.0
C1111 C 0.96167 0.32092 0.04518 0.0
C1112 C -0.00459 0.34104 0.01632 0.0
C1113 C 0.02281 0.35128 0.96681 0.0
C1114 C 0.00763 0.34112 0.98238 0.0
C1115 C 0.96003 0.32176 0.02388 0.0
C1116 C 0.97677 0.32672 0.01037 0.0
H1117 H 0.02866 0.37362 0.92106 0.0
H1118 H 0.00339 0.35298 0.94491 0.0
H1119 H 0.0246 0.35994 0.00715 0.0
H1120 H 0.91529 0.31687 0.02164 0.0
H1121 H 0.94119 0.32055 -0.00064 0.0
C1122 C 0.68312 0.05582 0.4473 0.0
C1123 C 0.67095 0.05131 0.43026 0.0
C1124 C 0.68023 0.04146 0.46136 0.0
C1125 C 0.65532 0.98856 0.46928 0.0
H1126 H 0.6476 0.00076 0.52451 0.0
C1127 C 0.60349 0.93121 0.52541 0.0
C1128 C 0.60718 0.93392 0.54645 0.0
C1129 C 0.6159 0.94514 0.51153 0.0
C1130 C 0.65013 -0.00284 0.50932 0.0
H1131 H 0.64696 0.02811 0.4139 0.0
H1132 H 0.64198 0.00314 0.43835 0.0
H1133 H 0.66182 0.02631 0.49915 0.0
H1134 H 0.6274 0.95275 0.56941 0.0
H1135 H 0.64924 0.97693 0.54514 0.0
H1136 H 0.64307 0.95928 0.47929 0.0
C1137 C 0.65375 0.01771 0.44088 0.0
C1138 C 0.65828 0.01184 0.49478 0.0
C1139 C 0.65649 0.03206 0.42698 0.0
C1140 C 0.62403 0.95037 0.55328 0.0
C1141 C 0.63653 0.96425 0.53939 0.0
C1142 C 0.64729 0.97389 0.48386 0.0
C1143 C 0.66531 0.02233 0.45842 0.0
C1144 C 0.66032 0.00756 0.47446 0.0
C1145 C 0.63236 0.96201 0.5184 0.0
C1146 C 0.64397 0.97791 0.50387 0.0
H1147 H 0.69443 0.07054 0.45017 0.0
H1148 H 0.68938 0.04536 0.47474 0.0
H1149 H 0.65699 0.98495 0.45376 0.0
H1150 H 0.59064 0.91866 0.51966 0.0
H1151 H 0.61208 0.94306 0.49551 0.0
C1152 C 0.66739 0.60165 0.02528 0.0
C1153 C 0.66796 0.60616 0.04609 0.0
C1154 C 0.66072 0.60982 0.01091 0.0
C1155 C 0.64856 0.64812 0.00196 0.0
H1156 H 0.60708 0.609 0.96908 0.0
C1157 C 0.60509 0.66327 0.94039 0.0
C1158 C 0.58494 0.65144 0.94192 0.0
C1159 C 0.61732 0.65965 0.95251 0.0
C1160 C 0.61867 0.62007 0.97813 0.0
H1161 H 0.66333 0.62384 0.06798 0.0
H1162 H 0.65164 0.63807 0.04285 0.0
H1163 H 0.62621 0.60003 0.99057 0.0
H1164 H 0.56182 0.62686 0.95766 0.0
H1165 H 0.58319 0.62046 0.97857 0.0
H1166 H 0.64061 0.66806 0.98968 0.0
C1167 C 0.65635 0.62822 0.03767 0.0
C1168 C 0.62975 0.615 0.99024 0.0
C1169 C 0.66291 0.61995 0.05207 0.0
C1170 C 0.57727 0.63623 0.9561 0.0
C1171 C 0.58947 0.63248 0.96798 0.0
C1172 C 0.63758 0.65325 0.9896 0.0
C1173 C 0.65464 0.62277 0.01706 0.0
C1174 C 0.64458 0.62889 0.00254 0.0
C1175 C 0.60958 0.644 0.9661 0.0
C1176 C 0.62229 0.63915 0.97794 0.0
H1177 H 0.67134 0.5912 0.02016 0.0
H1178 H 0.65974 0.60556 0.99506 0.0
H1179 H 0.65997 0.65909 0.01127 0.0
H1180 H 0.61141 0.67515 0.92964 0.0
H1181 H 0.6328 0.66871 0.95081 0.0
C1182 C 0.03882 0.67168 0.55683 0.0
C1183 C 0.0553 0.67215 0.54867 0.0
C1184 C 0.02424 0.67023 0.54397 0.0
C1185 C 0.0119 0.67208 0.4894 0.0
H1186 H 0.96097 0.63212 0.50643 0.0
C1187 C 0.95259 0.62165 0.43444 0.0
C1188 C 0.93321 0.61542 0.43907 0.0
C1189 C 0.96725 0.63393 0.44769 0.0
C1190 C 0.97499 0.64364 0.5016 0.0
H1191 H 0.06987 0.67243 0.52066 0.0
H1192 H 0.04422 0.66928 0.49827 0.0
H1193 H 0.98763 0.64409 0.5304 0.0
H1194 H 0.91402 0.61793 0.46066 0.0
H1195 H 0.93976 0.63925 0.48408 0.0
H1196 H -0.00071 0.67064 0.46013 0.0
C1197 C 0.04267 0.67042 0.51455 0.0
C1198 C 0.99031 0.65054 0.51536 0.0
C1199 C 0.05732 0.67204 0.5274 0.0
C1200 C 0.92883 0.62243 0.45675 0.0
C1201 C 0.94353 0.63459 0.47015 0.0
C1202 C -0.00343 0.66506 0.47558 0.0
C1203 C 0.02575 0.66904 0.52271 0.0
C1204 C 0.00908 0.66438 0.50922 0.0
C1205 C 0.96283 0.64012 0.46593 0.0
C1206 C 0.97812 0.65033 0.48138 0.0
H1207 H 0.03698 0.67202 0.57317 0.0
H1208 H 0.01156 0.66955 0.55073 0.0
H1209 H 0.0261 0.68304 0.48434 0.0
H1210 H 0.95643 0.61663 0.42083 0.0
H1211 H 0.98197 0.63776 0.44415 0.0
C1212 C 0.63318 0.93973 0.94233 0.0
C1213 C 0.62209 0.94398 0.92893 0.0
C1214 C 0.64455 0.95303 0.95734 0.0
C1215 C 0.66557 0.00418 0.9731 0.0
H1216 H 0.65453 0.98362 0.02814 0.0
C1217 C 0.66469 0.04778 0.04138 0.0
C1218 C 0.67094 0.04526 0.06058 0.0
C1219 C 0.6642 0.03666 0.02477 0.0
C1220 C 0.65818 0.98959 0.01289 0.0
H1221 H 0.61495 0.96582 0.92003 0.0
H1222 H 0.63467 0.98889 0.9461 0.0
H1223 H 0.64409 0.96153 -0.00082 0.0
H1224 H 0.68214 0.02952 0.07727 0.0
H1225 H 0.68111 0.00991 0.0481 0.0
H1226 H 0.67885 0.03223 0.9868 0.0
C1227 C 0.6347 0.97538 0.94503 0.0
C1228 C 0.6522 0.97693 -0.00371 0.0
C1229 C 0.62323 0.96207 0.93021 0.0
C1230 C 0.67718 0.03173 0.06268 0.0
C1231 C 0.67656 0.02049 0.04602 0.0
C1232 C 0.67155 0.01682 0.98967 0.0
C1233 C 0.6452 0.97087 0.95898 0.0
C1234 C 0.65515 0.98412 0.97625 0.0
C1235 C 0.66989 0.02273 0.02695 0.0
C1236 C 0.66722 0.00963 0.00971 0.0
H1237 H 0.63261 0.92591 0.94166 0.0
H1238 H 0.65256 0.94924 0.96787 0.0
H1239 H 0.66833 0.0101 0.95779 0.0
H1240 H 0.65987 0.05813 0.03922 0.0
H1241 H 0.65867 0.03851 0.01036 0.0
C1242 C 0.6686 0.62874 0.4372 0.0
C1243 C 0.66998 0.61298 0.44462 0.0
C1244 C 0.66684 0.6413 0.45071 0.0
C1245 C 0.66992 0.65456 0.50573 0.0
H1246 H 0.62862 0.6645 0.49152 0.0
C1247 C 0.62146 0.6628 0.56423 0.0
C1248 C 0.61509 0.67601 0.56048 0.0
C1249 C 0.63298 0.66027 0.55003 0.0
C1250 C 0.64049 0.66225 0.49557 0.0
H1251 H 0.67149 0.59852 0.47198 0.0
H1252 H 0.66787 0.62001 0.49548 0.0
H1253 H 0.64027 0.6505 0.46626 0.0
H1254 H 0.61649 0.69757 0.53935 0.0
H1255 H 0.63646 0.69289 0.51429 0.0
H1256 H 0.66924 0.66534 0.53549 0.0
C1257 C 0.6685 0.62296 0.47928 0.0
C1258 C 0.6472 0.65423 0.48107 0.0
C1259 C 0.6704 0.6105 0.46579 0.0
C1260 C 0.62112 0.68722 0.54261 0.0
C1261 C 0.6325 0.68453 0.52827 0.0
C1262 C 0.66309 0.66246 0.52028 0.0
C1263 C 0.66629 0.63827 0.47189 0.0
C1264 C 0.66158 0.64974 0.48618 0.0
C1265 C 0.63825 0.67079 0.5317 0.0
C1266 C 0.64792 0.66583 0.5155 0.0
H1267 H 0.66847 0.63117 0.42095 0.0
H1268 H 0.66548 0.65314 0.44453 0.0
H1269 H 0.68129 0.65165 0.51001 0.0
H1270 H 0.61716 0.65405 0.57794 0.0
H1271 H 0.63699 0.6494 0.55297 0.0
C1272 C 0.94122 0.6149 0.03198 0.0
C1273 C 0.94369 0.61434 0.05314 0.0
C1274 C 0.95636 0.62825 0.01983 0.0
C1275 C 0.00915 0.65568 0.01967 0.0
H1276 H 0.0013 0.67584 0.96896 0.0
C1277 C 0.06954 0.69077 0.96021 0.0
C1278 C 0.06368 0.68194 0.94098 0.0
C1279 C 0.05581 0.68819 0.97494 0.0
C1280 C 0.00373 0.67043 0.98316 0.0
H1281 H 0.96354 0.62806 0.07835 0.0
H1282 H 0.98987 0.65156 0.05715 0.0
H1283 H 0.975 0.66076 0.99369 0.0
H1284 H 0.03894 0.66464 0.92157 0.0
H1285 H 0.01507 0.66009 0.94722 0.0
H1286 H 0.03761 0.66471 0.00887 0.0
C1287 C 0.97638 0.64142 0.04989 0.0
C1288 C 0.98868 0.66174 -0.00273 0.0
C1289 C 0.96128 0.62798 0.06203 0.0
C1290 C 0.0439 0.67148 0.93633 0.0
C1291 C 0.03022 0.66904 0.95096 0.0
C1292 C 0.02421 0.66446 0.00564 0.0
C1293 C 0.97424 0.64141 0.0286 0.0
C1294 C 0.99102 0.65366 0.01535 0.0
C1295 C 0.03602 0.67691 0.97059 0.0
C1296 C 0.02143 0.67131 0.98695 0.0
H1297 H 0.92782 0.60461 0.02468 0.0
H1298 H 0.95428 0.62763 0.00346 0.0
H1299 H 0.01142 0.64942 0.03331 0.0
H1300 H 0.0847 0.69901 0.9642 0.0
H1301 H 0.06066 0.69453 0.98992 0.0
C1302 C 0.32535 0.93422 0.52768 0.0
C1303 C 0.32414 0.93594 0.54888 0.0
C1304 C 0.32637 0.9485 0.51462 0.0
C1305 C 0.34208 0.00016 0.51507 0.0
H1306 H 0.32267 0.98967 0.45956 0.0
C1307 C 0.36517 0.06132 0.45648 0.0
C1308 C 0.37305 0.05803 0.43879 0.0
C1309 C 0.35409 0.04612 0.46987 0.0
C1310 C 0.32805 0.9928 0.47508 0.0
H1311 H 0.3219 0.95336 0.57298 0.0
H1312 H 0.32336 0.97811 0.55015 0.0
H1313 H 0.31225 0.96301 0.48373 0.0
H1314 H 0.37447 0.03611 0.42055 0.0
H1315 H 0.35521 0.0097 0.44383 0.0
H1316 H 0.35835 0.02984 0.50625 0.0
C1317 C 0.32396 0.96597 0.54364 0.0
C1318 C 0.32217 0.97756 0.48888 0.0
C1319 C 0.32308 0.95176 0.55671 0.0
C1320 C 0.36874 0.03912 0.43416 0.0
C1321 C 0.35753 0.02395 0.44739 0.0
C1322 C 0.34786 0.01539 0.50131 0.0
C1323 C 0.32605 0.96473 0.52249 0.0
C1324 C 0.32963 0.98101 0.50883 0.0
C1325 C 0.3505 0.02736 0.46563 0.0
C1326 C 0.34141 0.01178 0.48101 0.0
H1327 H 0.32617 0.92219 0.52119 0.0
H1328 H 0.32825 0.94721 0.49844 0.0
H1329 H 0.34831 0.00334 0.53023 0.0
H1330 H 0.3682 0.07574 0.46039 0.0
H1331 H 0.34874 0.0491 0.48379 0.0
C1332 C 0.3831 0.33623 0.05017 0.0
C1333 C 0.38243 0.31841 0.05215 0.0
C1334 C 0.37256 0.339 0.03498 0.0
C1335 C 0.35281 0.32212 0.98422 0.0
H1336 H 0.33129 0.3555 0.9934 0.0
C1337 C 0.34749 0.36926 0.92147 0.0
C1338 C 0.33267 0.37381 0.92231 0.0
C1339 C 0.34912 0.35791 0.93666 0.0
C1340 C 0.33684 0.34583 0.99053 0.0
H1341 H 0.36969 0.28928 0.04011 0.0
H1342 H 0.35119 0.29419 0.01335 0.0
H1343 H 0.34137 0.3437 0.02236 0.0
H1344 H 0.3072 0.36901 0.93896 0.0
H1345 H 0.30986 0.34893 0.96527 0.0
H1346 H 0.34853 0.3245 0.95233 0.0
C1347 C 0.36 0.30601 0.02359 0.0
C1348 C 0.34283 0.33925 0.00715 0.0
C1349 C 0.37052 0.3032 0.03894 0.0
C1350 C 0.31894 0.36597 0.93805 0.0
C1351 C 0.32049 0.3545 0.95315 0.0
C1352 C 0.34675 0.32866 0.96756 0.0
C1353 C 0.36109 0.32403 0.02136 0.0
C1354 C 0.35151 0.32791 0.00413 0.0
C1355 C 0.33588 0.35074 0.95292 0.0
C1356 C 0.33929 0.34111 0.9705 0.0
H1357 H 0.39208 0.34824 0.06014 0.0
H1358 H 0.37397 0.35314 0.03347 0.0
H1359 H 0.35949 0.31343 0.98139 0.0
H1360 H 0.35827 0.37506 0.90952 0.0
H1361 H 0.3613 0.35553 0.93613 0.0
C1362 C 0.05738 0.3694 0.53747 0.0
C1363 C 0.05262 0.37559 0.55551 0.0
C1364 C 0.04292 0.35743 0.52375 0.0
C1365 C 0.99011 0.32572 0.51791 0.0
H1366 H -0.00139 0.34771 0.46359 0.0
C1367 C 0.92864 0.31726 0.46636 0.0
C1368 C 0.93077 0.31762 0.44507 0.0
C1369 C 0.94349 0.31926 0.47913 0.0
C1370 C -0.00393 0.341 0.47848 0.0
H1371 H 0.02898 0.37318 0.57394 0.0
H1372 H 0.00385 0.35236 0.55006 0.0
H1373 H 0.0252 0.36009 0.48771 0.0
H1374 H 0.94955 0.319 0.42043 0.0
H1375 H 0.97534 0.32213 0.44274 0.0
H1376 H 0.9608 0.30703 0.50888 0.0
C1377 C 0.01869 0.35669 0.5465 0.0
C1378 C 0.01135 0.34813 0.49233 0.0
C1379 C 0.03311 0.36879 0.56008 0.0
C1380 C 0.9476 0.31894 0.4368 0.0
C1381 C 0.96239 0.32078 0.44957 0.0
C1382 C 0.97484 0.31847 0.50401 0.0
C1383 C 0.02348 0.35126 0.52799 0.0
C1384 C 0.00835 0.34104 0.51238 0.0
C1385 C 0.96072 0.32149 0.47087 0.0
C1386 C 0.97749 0.32652 0.48437 0.0
H1387 H 0.07229 0.37435 0.53358 0.0
H1388 H 0.04697 0.35336 0.50961 0.0
H1389 H 0.9875 0.31982 0.53322 0.0
H1390 H 0.91583 0.31623 0.4732 0.0
H1391 H 0.9418 0.32 0.49544 0.0
C1392 C 0.49126 0.11351 0.11993 0.0
C1393 C 0.47558 0.10063 0.10779 0.0
C1394 C 0.50861 0.11331 0.11945 0.0
C1395 C 0.53688 0.09773 0.08841 0.0
H1396 H 0.56249 0.10111 0.13977 0.0
C1397 C 0.60102 0.08391 0.09492 0.0
C1398 C 0.61626 0.09612 0.10793 0.0
C1399 C 0.58399 0.08474 0.0945 0.0
C1400 C 0.55565 0.10039 0.12528 0.0
H1401 H 0.4659 0.07762 0.0854 0.0
H1402 H 0.49617 0.0772 0.08468 0.0
H1403 H 0.53259 0.10218 0.13965 0.0
H1404 H 0.62568 0.11895 0.1305 0.0
H1405 H 0.59607 0.12054 0.12959 0.0
H1406 H 0.55995 0.09592 0.07404 0.0
C1407 C 0.49509 0.08756 0.09444 0.0
C1408 C 0.53851 0.101 0.12521 0.0
C1409 C 0.47771 0.08773 0.09494 0.0
C1410 C 0.61417 0.10928 0.12038 0.0
C1411 C 0.59716 0.11012 0.11994 0.0
C1412 C 0.55404 0.09714 0.08847 0.0
C1413 C 0.51068 0.10026 0.1068 0.0
C1414 C 0.52894 0.09969 0.10678 0.0
C1415 C 0.58184 0.09781 0.10706 0.0
C1416 C 0.56362 0.09848 0.10691 0.0
H1417 H 0.49012 0.12369 0.12994 0.0
H1418 H 0.52045 0.12346 0.12894 0.0
H1419 H 0.52996 0.09694 0.07394 0.0
H1420 H 0.60216 0.07358 0.08516 0.0
H1421 H 0.57237 0.07491 0.08458 0.0
C1422 C 0.51132 0.60453 0.5978 0.0
C1423 C 0.51404 0.61914 0.61163 0.0
C1424 C 0.49345 0.58757 0.59636 0.0
C1425 C 0.44912 0.55771 0.62586 0.0
H1426 H 0.42765 0.53407 0.57349 0.0
C1427 C 0.37242 0.4925 0.61882 0.0
C1428 C 0.36994 0.47742 0.60584 0.0
C1429 C 0.38968 0.51014 0.61871 0.0
C1430 C 0.43355 0.5404 0.58824 0.0
H1431 H 0.50003 0.62754 0.63452 0.0
H1432 H 0.46885 0.59803 0.6319 0.0
H1433 H 0.45846 0.56429 0.5748 0.0
H1434 H 0.3835 0.46916 0.58229 0.0
H1435 H 0.41373 0.49994 0.58228 0.0
H1436 H 0.42435 0.53382 0.63933 0.0
C1437 C 0.4806 0.59957 0.62237 0.0
C1438 C 0.45118 0.55771 0.58899 0.0
C1439 C 0.49845 0.61653 0.62379 0.0
C1440 C 0.38496 0.4805 0.59247 0.0
C1441 C 0.40224 0.49817 0.59239 0.0
C1442 C 0.43152 0.54043 0.62511 0.0
C1443 C 0.47793 0.58485 0.60875 0.0
C1444 C 0.45915 0.56655 0.60782 0.0
C1445 C 0.40486 0.51312 0.60566 0.0
C1446 C 0.42352 0.53158 0.6063 0.0
H1447 H 0.52305 0.6061 0.58821 0.0
H1448 H 0.4919 0.57641 0.58586 0.0
H1449 H 0.45503 0.56396 0.64063 0.0
H1450 H 0.36109 0.49065 0.62921 0.0
H1451 H 0.39112 0.52148 0.62888 0.0
C1452 C 0.87629 0.37459 0.11399 0.0
C1453 C 0.88856 0.37075 0.10202 0.0
C1454 C 0.87643 0.39204 0.11197 0.0
C1455 C 0.90748 0.4422 0.09526 0.0
H1456 H 0.86013 0.44425 0.09855 0.0
C1457 C 0.90677 0.51392 0.08861 0.0
C1458 C 0.89536 0.51669 0.10302 0.0
C1459 C 0.90531 0.49584 0.08641 0.0
C1460 C 0.87348 0.44392 0.09773 0.0
H1461 H 0.91031 0.38206 0.0782 0.0
H1462 H 0.91045 0.41252 0.07459 0.0
H1463 H 0.85864 0.41301 0.09829 0.0
H1464 H 0.87324 0.50259 0.12618 0.0
H1465 H 0.87084 0.47116 0.12246 0.0
H1466 H 0.92234 0.4731 0.09503 0.0
C1467 C 0.90089 0.4021 0.08571 0.0
C1468 C 0.87263 0.42603 0.09758 0.0
C1469 C 0.90074 0.38461 0.08772 0.0
C1470 C 0.88225 0.50095 0.11493 0.0
C1471 C 0.88076 0.48288 0.11271 0.0
C1472 C 0.90833 0.46009 0.09541 0.0
C1473 C 0.88883 0.40606 0.09793 0.0
C1474 C 0.88963 0.42498 0.09662 0.0
C1475 C 0.89237 0.48015 0.09853 0.0
C1476 C 0.89136 0.46115 0.09692 0.0
H1477 H 0.86673 0.36423 0.12516 0.0
H1478 H 0.86714 0.39475 0.12179 0.0
H1479 H 0.92085 0.44189 0.09478 0.0
H1480 H 0.91696 0.52574 0.07914 0.0
H1481 H 0.91429 0.49412 0.0752 0.0
C1482 C 0.37768 0.88199 0.61879 0.0
C1483 C 0.37414 0.89386 0.6058 0.0
C1484 C 0.39479 0.88142 0.61717 0.0
C1485 C 0.44479 0.90996 0.59882 0.0
H1486 H 0.44477 0.86171 0.6052 0.0
C1487 C 0.5142 0.90519 0.59076 0.0
C1488 C 0.51703 0.89414 0.6056 0.0
C1489 C 0.49648 0.90459 0.58923 0.0
C1490 C 0.44502 0.87532 0.60353 0.0
H1491 H 0.38564 0.91421 0.58065 0.0
H1492 H 0.41548 0.9131 0.57774 0.0
H1493 H 0.41424 0.86162 0.6052 0.0
H1494 H 0.50342 0.87365 0.63032 0.0
H1495 H 0.47263 0.87276 0.62777 0.0
H1496 H 0.47558 0.92368 0.59739 0.0
C1497 C 0.40511 0.90441 0.58935 0.0
C1498 C 0.42754 0.87527 0.60353 0.0
C1499 C 0.38797 0.90497 0.59096 0.0
C1500 C 0.50172 0.88233 0.6187 0.0
C1501 C 0.48401 0.88171 0.61716 0.0
C1502 C 0.46227 0.91001 0.59881 0.0
C1503 C 0.40875 0.89271 0.60251 0.0
C1504 C 0.42723 0.89261 0.60139 0.0
C1505 C 0.48122 0.89291 0.60248 0.0
C1506 C 0.46259 0.89271 0.60138 0.0
H1507 H 0.36733 0.87327 0.6304 0.0
H1508 H 0.39726 0.87245 0.62771 0.0
H1509 H 0.44507 0.9236 0.59741 0.0
H1510 H 0.52569 0.91438 0.58037 0.0
H1511 H 0.49471 0.91322 0.57761 0.0
C1512 C 0.6163 0.51556 0.09488 0.0
C1513 C 0.61533 0.53083 0.10436 0.0
C1514 C 0.60022 0.49697 0.09462 0.0
C1515 C 0.55494 0.46595 0.12196 0.0
H1516 H 0.54097 0.4346 0.07292 0.0
C1517 C 0.48658 0.39164 0.08907 0.0
C1518 C 0.48283 0.37935 0.10591 0.0
C1519 C 0.50322 0.40981 0.08849 0.0
C1520 C 0.54466 0.44322 0.0867 0.0
H1521 H 0.59666 0.53862 0.12082 0.0
H1522 H 0.5686 0.50618 0.1203 0.0
H1523 H 0.5688 0.46728 0.07247 0.0
H1524 H 0.49382 0.37636 0.13514 0.0
H1525 H 0.52291 0.40807 0.13406 0.0
H1526 H 0.53066 0.44203 0.13612 0.0
C1527 C 0.58186 0.50856 0.11324 0.0
C1528 C 0.56068 0.46185 0.0865 0.0
C1529 C 0.5979 0.52716 0.11343 0.0
C1530 C 0.49624 0.3855 0.12198 0.0
C1531 C 0.51285 0.40371 0.12143 0.0
C1532 C 0.53899 0.4473 0.1222 0.0
C1533 C 0.58287 0.49325 0.10392 0.0
C1534 C 0.56594 0.47343 0.10411 0.0
C1535 C 0.51644 0.41611 0.10475 0.0
C1536 C 0.53365 0.43575 0.10456 0.0
H1537 H 0.62952 0.51791 0.08776 0.0
H1538 H 0.60149 0.48543 0.08748 0.0
H1539 H 0.55876 0.47446 0.13583 0.0
H1540 H 0.47653 0.38733 0.07643 0.0
H1541 H 0.5055 0.41912 0.07552 0.0
C1542 C 0.08551 0.48047 0.59138 0.0
C1543 C 0.09758 0.47775 0.60492 0.0
C1544 C 0.08616 0.49826 0.59041 0.0
C1545 C 0.10004 0.5418 0.62118 0.0
H1546 H 0.09712 0.56428 0.56978 0.0
C1547 C 0.11071 0.61832 0.61704 0.0
C1548 C 0.09794 0.621 0.60459 0.0
C1549 C 0.11124 0.60115 0.61616 0.0
C1550 C 0.09776 0.55808 0.58426 0.0
H1551 H 0.12015 0.49172 0.62765 0.0
H1552 H 0.12137 0.52273 0.62582 0.0
H1553 H 0.09706 0.53367 0.56985 0.0
H1554 H 0.07597 0.60789 0.58113 0.0
H1555 H 0.07675 0.57777 0.57977 0.0
H1556 H 0.10061 0.56605 0.63564 0.0
C1557 C 0.1112 0.51104 0.61619 0.0
C1558 C 0.09773 0.54057 0.5843 0.0
C1559 C 0.11057 0.49329 0.61715 0.0
C1560 C 0.08597 0.60627 0.59093 0.0
C1561 C 0.08649 0.58905 0.59007 0.0
C1562 C 0.10006 0.55926 0.62114 0.0
C1563 C 0.09886 0.51367 0.60297 0.0
C1564 C 0.09893 0.53227 0.60276 0.0
C1565 C 0.099 0.58623 0.60284 0.0
C1566 C 0.09897 0.56764 0.6027 0.0
H1567 H 0.07534 0.46878 0.58174 0.0
H1568 H 0.07635 0.49979 0.58019 0.0
H1569 H 0.10059 0.5356 0.63569 0.0
H1570 H 0.12023 0.62944 0.62763 0.0
H1571 H 0.12128 0.59956 0.62594 0.0
C1572 C 0.8737 0.49517 0.38325 0.0
C1573 C 0.88683 0.51126 0.39475 0.0
C1574 C 0.87303 0.47746 0.38534 0.0
C1575 C 0.90288 0.45669 0.40112 0.0
H1576 H 0.8543 0.40833 0.39922 0.0
C1577 C 0.89899 0.38275 0.40773 0.0
C1578 C 0.88689 0.36865 0.39357 0.0
C1579 C 0.89835 0.39981 0.41004 0.0
C1580 C 0.86798 0.42172 0.39966 0.0
H1581 H 0.90926 0.52127 0.41782 0.0
H1582 H 0.90798 0.49027 0.42155 0.0
H1583 H 0.85425 0.43884 0.39953 0.0
H1584 H 0.8644 0.36126 0.371 0.0
H1585 H 0.86342 0.39104 0.37492 0.0
H1586 H 0.91662 0.43959 0.40093 0.0
C1587 C 0.89837 0.49144 0.41074 0.0
C1588 C 0.86796 0.43918 0.39983 0.0
C1589 C 0.89904 0.50917 0.40867 0.0
C1590 C 0.87392 0.37182 0.38205 0.0
C1591 C 0.87326 0.38884 0.38439 0.0
C1592 C 0.90291 0.43923 0.40096 0.0
C1593 C 0.88546 0.47543 0.39897 0.0
C1594 C 0.88541 0.45687 0.40028 0.0
C1595 C 0.88556 0.40309 0.3983 0.0
C1596 C 0.88547 0.42156 0.39995 0.0
H1597 H 0.86411 0.4963 0.37238 0.0
H1598 H 0.86309 0.46549 0.37585 0.0
H1599 H 0.91659 0.47006 0.4012 0.0
H1600 H 0.90909 0.38071 0.4169 0.0
H1601 H 0.90787 0.41044 0.42104 0.0
C1602 C 0.51529 0.91196 0.8938 0.0
C1603 C 0.51768 0.89919 0.881 0.0
C1604 C 0.49764 0.91158 0.89452 0.0
C1605 C 0.45379 0.89693 0.8642 0.0
H1606 H 0.43216 0.90146 0.91548 0.0
C1607 C 0.37765 0.88721 0.86882 0.0
C1608 C 0.37524 0.90021 0.8812 0.0
C1609 C 0.39477 0.88659 0.8695 0.0
C1610 C 0.43811 0.90039 0.90102 0.0
H1611 H 0.50334 0.8758 0.85917 0.0
H1612 H 0.47257 0.87511 0.86051 0.0
H1613 H 0.4626 0.9013 0.91541 0.0
H1614 H 0.38881 0.92258 0.90422 0.0
H1615 H 0.41883 0.92168 0.90519 0.0
H1616 H 0.42947 0.89619 0.84975 0.0
C1617 C 0.4844 0.88556 0.86981 0.0
C1618 C 0.45553 0.90028 0.90099 0.0
C1619 C 0.50201 0.8859 0.86912 0.0
C1620 C 0.39021 0.91239 0.89449 0.0
C1621 C 0.40738 0.9118 0.89514 0.0
C1622 C 0.43642 0.89709 0.86422 0.0
C1623 C 0.48206 0.89848 0.88241 0.0
C1624 C 0.46353 0.89852 0.88257 0.0
C1625 C 0.4099 0.89899 0.88253 0.0
C1626 C 0.42836 0.89878 0.88263 0.0
H1627 H 0.52709 0.92237 0.90315 0.0
H1628 H 0.49634 0.92184 0.90423 0.0
H1629 H 0.45976 0.8959 0.84972 0.0
H1630 H 0.36634 0.87753 0.85852 0.0
H1631 H 0.39612 0.87633 0.85985 0.0
C1632 C 0.47961 0.39104 0.40136 0.0
C1633 C 0.47795 0.3763 0.38833 0.0
C1634 C 0.4971 0.40839 0.40303 0.0
C1635 C 0.54949 0.4307 0.39289 0.0
H1636 H 0.5481 0.47851 0.39231 0.0
C1637 C 0.61663 0.50459 0.37632 0.0
C1638 C 0.61926 0.52053 0.38791 0.0
C1639 C 0.59963 0.48681 0.37802 0.0
C1640 C 0.54873 0.46529 0.39278 0.0
H1641 H 0.49343 0.36813 0.36707 0.0
H1642 H 0.52381 0.39846 0.36978 0.0
H1643 H 0.51796 0.4477 0.39242 0.0
H1644 H 0.6062 0.53025 0.41057 0.0
H1645 H 0.5765 0.49914 0.41354 0.0
H1646 H 0.58028 0.44833 0.3929 0.0
C1647 C 0.51169 0.39652 0.37892 0.0
C1648 C 0.53146 0.44763 0.39286 0.0
C1649 C 0.49422 0.37917 0.37727 0.0
C1650 C 0.60459 0.51826 0.40137 0.0
C1651 C 0.58755 0.50048 0.40302 0.0
C1652 C 0.56676 0.44836 0.39277 0.0
C1653 C 0.51329 0.41139 0.39171 0.0
C1654 C 0.53165 0.43013 0.39272 0.0
C1655 C 0.58486 0.48458 0.39131 0.0
C1656 C 0.56656 0.46584 0.39252 0.0
H1657 H 0.46737 0.38924 0.41018 0.0
H1658 H 0.49794 0.41946 0.41322 0.0
H1659 H 0.55013 0.41748 0.39314 0.0
H1660 H 0.62764 0.50585 0.36581 0.0
H1661 H 0.59789 0.4749 0.3686 0.0
C1662 C 0.08726 0.48113 0.90527 0.0
C1663 C 0.09877 0.47817 0.89116 0.0
C1664 C 0.08841 0.49912 0.90677 0.0
C1665 C 0.1194 0.5508 0.89363 0.0
H1666 H 0.07154 0.55188 0.89683 0.0
C1667 C 0.11479 0.61909 0.87635 0.0
C1668 C 0.10267 0.62288 0.88864 0.0
C1669 C 0.115 0.60181 0.87844 0.0
C1670 C 0.08505 0.55184 0.89624 0.0
H1671 H 0.12073 0.49187 0.86778 0.0
H1672 H 0.12255 0.52313 0.87023 0.0
H1673 H 0.0707 0.52098 0.89738 0.0
H1674 H 0.08151 0.61165 0.91304 0.0
H1675 H 0.08195 0.5815 0.91674 0.0
H1676 H 0.13371 0.58167 0.89215 0.0
C1677 C 0.11281 0.51163 0.88032 0.0
C1678 C 0.08457 0.53413 0.89657 0.0
C1679 C 0.11167 0.49367 0.87883 0.0
C1680 C 0.09096 0.60913 0.90328 0.0
C1681 C 0.09114 0.59182 0.90534 0.0
C1682 C 0.11987 0.56851 0.89327 0.0
C1683 C 0.1011 0.51453 0.8942 0.0
C1684 C 0.10173 0.5334 0.89505 0.0
C1685 C 0.10307 0.58792 0.89285 0.0
C1686 C 0.10269 0.56921 0.89437 0.0
H1687 H 0.07724 0.4695 0.91507 0.0
H1688 H 0.07937 0.50096 0.9178 0.0
H1689 H 0.13289 0.55075 0.89277 0.0
H1690 H 0.12398 0.62937 0.86491 0.0
H1691 H 0.12418 0.59913 0.86842 0.0
C1692 C 0.61332 0.11334 0.37318 0.0
C1693 C 0.61526 0.09897 0.38346 0.0
C1694 C 0.5967 0.1147 0.37561 0.0
C1695 C 0.54559 0.08584 0.3903 0.0
H1696 H 0.54878 0.13576 0.39463 0.0
C1697 C 0.47822 0.09278 0.4044 0.0
C1698 C 0.47652 0.10641 0.39238 0.0
C1699 C 0.49552 0.09246 0.40487 0.0
C1700 C 0.54765 0.12172 0.39329 0.0
H1701 H 0.60137 0.07492 0.40458 0.0
H1702 H 0.57241 0.07739 0.4089 0.0
H1703 H 0.57834 0.13403 0.39247 0.0
H1704 H 0.49177 0.1307 0.3718 0.0
H1705 H 0.52187 0.13002 0.37248 0.0
H1706 H 0.51493 0.07352 0.39089 0.0
C1707 C 0.58366 0.08745 0.39877 0.0
C1708 C 0.56458 0.12073 0.39204 0.0
C1709 C 0.60029 0.0861 0.39636 0.0
C1710 C 0.49261 0.12 0.38122 0.0
C1711 C 0.5099 0.11969 0.3817 0.0
C1712 C 0.52868 0.08682 0.39155 0.0
C1713 C 0.58164 0.10171 0.38835 0.0
C1714 C 0.56372 0.10278 0.3904 0.0
C1715 C 0.51149 0.10578 0.39336 0.0
C1716 C 0.52951 0.10478 0.39292 0.0
H1717 H 0.62459 0.12348 0.36312 0.0
H1718 H 0.59548 0.1257 0.36717 0.0
H1719 H 0.54443 0.0718 0.38874 0.0
H1720 H 0.46612 0.08217 0.41327 0.0
H1721 H 0.49637 0.08175 0.41424 0.0
C1722 C 0.49988 0.60604 0.89943 0.0
C1723 C 0.50123 0.62086 0.88676 0.0
C1724 C 0.48273 0.58835 0.90059 0.0
C1725 C 0.43039 0.56459 0.89029 0.0
H1726 H 0.43401 0.51799 0.88897 0.0
C1727 C 0.36457 0.48888 0.87613 0.0
C1728 C 0.36335 0.47336 0.88742 0.0
C1729 C 0.38106 0.50714 0.87722 0.0
C1730 C 0.43275 0.53085 0.88964 0.0
H1731 H 0.48551 0.62885 0.86565 0.0
H1732 H 0.45558 0.59786 0.86754 0.0
H1733 H 0.46336 0.54942 0.88865 0.0
H1734 H 0.37832 0.46492 0.90907 0.0
H1735 H 0.40705 0.49685 0.91109 0.0
H1736 H 0.39973 0.54595 0.89109 0.0
C1737 C 0.46776 0.60001 0.87672 0.0
C1738 C 0.44957 0.54887 0.88944 0.0
C1739 C 0.48494 0.61773 0.87555 0.0
C1740 C 0.37884 0.47656 0.9001 0.0
C1741 C 0.39535 0.49482 0.90118 0.0
C1742 C 0.41354 0.54654 0.89047 0.0
C1743 C 0.46653 0.58507 0.88911 0.0
C1744 C 0.44859 0.56595 0.88971 0.0
C1745 C 0.3967 0.51028 0.88964 0.0
C1746 C 0.41454 0.52947 0.89008 0.0
H1747 H 0.51213 0.60801 0.90838 0.0
H1748 H 0.48216 0.57725 0.91052 0.0
H1749 H 0.42916 0.57748 0.89078 0.0
H1750 H 0.35289 0.4869 0.86621 0.0
H1751 H 0.38174 0.51869 0.86797 0.0
loop_
_geom_bond_atom_site_label_1
_geom_bond_atom_site_label_2
_geom_bond_distance
_geom_bond_site_symmetry_2
_ccdc_geom_bond_type
C0 O1 1.160 . S
C0 O7 1.185 . S
O1 C0 1.160 . S
O2 Zn3 1.899 . S
O2 C10 1.284 . S
Zn3 O2 1.899 . S
Zn3 O4 2.032 . S
Zn3 O7 2.086 . S
Zn3 O12 1.977 . S
O4 Zn3 2.032 . S
O4 C8 1.278 . S
C5 O6 1.203 . S
C5 O12 1.267 . S
O6 C5 1.203 . S
O7 C0 1.185 . S
O7 Zn3 2.086 . S
C8 O4 1.278 . S
C8 O9 1.211 . S
O9 C8 1.211 . S
C10 O2 1.284 . S
C10 O11 1.273 . S
O11 C10 1.273 . S
O12 Zn3 1.977 . S
O12 C5 1.267 . S
C13 O14 1.160 . S
C13 O20 1.185 . S
O14 C13 1.160 . S
O15 Zn16 1.899 . S
O15 C23 1.284 . S
Zn16 O15 1.899 . S
Zn16 O17 2.032 . S
Zn16 O20 2.086 . S
Zn16 O25 1.977 . S
O17 Zn16 2.032 . S
O17 C21 1.278 . S
C18 O19 1.203 . S
C18 O25 1.267 . S
O19 C18 1.203 . S
O20 C13 1.185 . S
O20 Zn16 2.086 . S
C21 O17 1.278 . S
C21 O22 1.211 . S
O22 C21 1.211 . S
C23 O15 1.284 . S
C23 O24 1.273 . S
O24 C23 1.273 . S
O25 Zn16 1.977 . S
O25 C18 1.267 . S
C26 O27 1.160 . S
C26 O33 1.185 . S
O27 C26 1.160 . S
O28 Zn29 1.899 . S
O28 C36 1.284 . S
Zn29 O28 1.899 . S
Zn29 O30 2.032 . S
Zn29 O33 2.086 . S
Zn29 O38 1.977 . S
O30 Zn29 2.032 . S
O30 C34 1.278 . S
C31 O32 1.203 . S
C31 O38 1.267 . S
O32 C31 1.203 . S
O33 C26 1.185 . S
O33 Zn29 2.086 . S
C34 O30 1.278 . S
C34 O35 1.211 . S
O35 C34 1.211 . S
C36 O28 1.284 . S
C36 O37 1.273 . S
O37 C36 1.273 . S
O38 Zn29 1.977 . S
O38 C31 1.267 . S
C39 O40 1.160 . S
C39 O46 1.185 . S
O40 C39 1.160 . S
O41 Zn42 1.899 . S
O41 C49 1.284 . S
Zn42 O41 1.899 . S
Zn42 O43 2.032 . S
Zn42 O46 2.086 . S
Zn42 O51 1.977 . S
O43 Zn42 2.032 . S
O43 C47 1.278 . S
C44 O45 1.203 . S
C44 O51 1.267 . S
O45 C44 1.203 . S
O46 C39 1.185 . S
O46 Zn42 2.086 . S
C47 O43 1.278 . S
C47 O48 1.211 . S
O48 C47 1.211 . S
C49 O41 1.284 . S
C49 O50 1.273 . S
O50 C49 1.273 . S
O51 Zn42 1.977 . S
O51 C44 1.267 . S
C52 O53 1.160 . S
C52 O59 1.185 . S
O53 C52 1.160 . S
O54 Zn55 1.899 . S
O54 C62 1.284 . S
Zn55 O54 1.899 . S
Zn55 O56 2.032 . S
Zn55 O59 2.086 . S
Zn55 O64 1.977 . S
O56 Zn55 2.032 . S
O56 C60 1.278 . S
C57 O58 1.203 . S
C57 O64 1.267 . S
O58 C57 1.203 . S
O59 C52 1.185 . S
O59 Zn55 2.086 . S
C60 O56 1.278 . S
C60 O61 1.211 . S
O61 C60 1.211 . S
C62 O54 1.284 . S
C62 O63 1.273 . S
O63 C62 1.273 . S
O64 Zn55 1.977 . S
O64 C57 1.267 . S
C65 O66 1.160 . S
C65 O72 1.185 . S
O66 C65 1.160 . S
O67 Zn68 1.899 . S
O67 C75 1.284 . S
Zn68 O67 1.899 . S
Zn68 O69 2.032 . S
Zn68 O72 2.086 . S
Zn68 O77 1.977 . S
O69 Zn68 2.032 . S
O69 C73 1.278 . S
C70 O71 1.203 . S
C70 O77 1.267 . S
O71 C70 1.203 . S
O72 C65 1.185 . S
O72 Zn68 2.086 . S
C73 O69 1.278 . S
C73 O74 1.211 . S
O74 C73 1.211 . S
C75 O67 1.284 . S
C75 O76 1.273 . S
O76 C75 1.273 . S
O77 Zn68 1.977 . S
O77 C70 1.267 . S
C78 O79 1.160 . S
C78 O85 1.185 . S
O79 C78 1.160 . S
O80 Zn81 1.899 . S
O80 C88 1.284 . S
Zn81 O80 1.899 . S
Zn81 O82 2.032 . S
Zn81 O85 2.086 . S
Zn81 O90 1.977 . S
O82 Zn81 2.032 . S
O82 C86 1.278 . S
C83 O84 1.203 . S
C83 O90 1.267 . S
O84 C83 1.203 . S
O85 C78 1.185 . S
O85 Zn81 2.086 . S
C86 O82 1.278 . S
C86 O87 1.211 . S
O87 C86 1.211 . S
C88 O80 1.284 . S
C88 O89 1.273 . S
O89 C88 1.273 . S
O90 Zn81 1.977 . S
O90 C83 1.267 . S
C91 O92 1.160 . S
C91 O98 1.185 . S
O92 C91 1.160 . S
O93 Zn94 1.899 . S
O93 C101 1.284 . S
Zn94 O93 1.899 . S
Zn94 O95 2.032 . S
Zn94 O98 2.086 . S
Zn94 O103 1.977 . S
O95 Zn94 2.032 . S
O95 C99 1.278 . S
C96 O97 1.203 . S
C96 O103 1.267 . S
O97 C96 1.203 . S
O98 C91 1.185 . S
O98 Zn94 2.086 . S
C99 O95 1.278 . S
C99 O100 1.211 . S
O100 C99 1.211 . S
C101 O93 1.284 . S
C101 O102 1.273 . S
O102 C101 1.273 . S
O103 Zn94 1.977 . S
O103 C96 1.267 . S
C104 O105 1.160 . S
C104 O111 1.185 . S
O105 C104 1.160 . S
O106 Zn107 1.899 . S
O106 C114 1.284 . S
Zn107 O106 1.899 . S
Zn107 O108 2.032 . S
Zn107 O111 2.086 . S
Zn107 O116 1.977 . S
O108 Zn107 2.032 . S
O108 C112 1.278 . S
C109 O110 1.203 . S
C109 O116 1.267 . S
O110 C109 1.203 . S
O111 C104 1.185 . S
O111 Zn107 2.086 . S
C112 O108 1.278 . S
C112 O113 1.211 . S
O113 C112 1.211 . S
C114 O106 1.284 . S
C114 O115 1.273 . S
O115 C114 1.273 . S
O116 Zn107 1.977 . S
O116 C109 1.267 . S
C117 O118 1.160 . S
C117 O124 1.185 . S
O118 C117 1.160 . S
O119 Zn120 1.899 . S
O119 C127 1.284 . S
Zn120 O119 1.899 . S
Zn120 O121 2.032 . S
Zn120 O124 2.086 . S
Zn120 O129 1.977 . S
O121 Zn120 2.032 . S
O121 C125 1.278 . S
C122 O123 1.203 . S
C122 O129 1.267 . S
O123 C122 1.203 . S
O124 C117 1.185 . S
O124 Zn120 2.086 . S
C125 O121 1.278 . S
C125 O126 1.211 . S
O126 C125 1.211 . S
C127 O119 1.284 . S
C127 O128 1.273 . S
O128 C127 1.273 . S
O129 Zn120 1.977 . S
O129 C122 1.267 . S
C130 O131 1.160 . S
C130 O137 1.185 . S
O131 C130 1.160 . S
O132 Zn133 1.899 . S
O132 C140 1.284 . S
Zn133 O132 1.899 . S
Zn133 O134 2.032 . S
Zn133 O137 2.086 . S
Zn133 O142 1.977 . S
O134 Zn133 2.032 . S
O134 C138 1.278 . S
C135 O136 1.203 . S
C135 O142 1.267 . S
O136 C135 1.203 . S
O137 C130 1.185 . S
O137 Zn133 2.086 . S
C138 O134 1.278 . S
C138 O139 1.211 . S
O139 C138 1.211 . S
C140 O132 1.284 . S
C140 O141 1.273 . S
O141 C140 1.273 . S
O142 Zn133 1.977 . S
O142 C135 1.267 . S
C143 O144 1.160 . S
C143 O150 1.185 . S
O144 C143 1.160 . S
O145 Zn146 1.899 . S
O145 C153 1.284 . S
Zn146 O145 1.899 . S
Zn146 O147 2.032 . S
Zn146 O150 2.086 . S
Zn146 O155 1.977 . S
O147 Zn146 2.032 . S
O147 C151 1.278 . S
C148 O149 1.203 . S
C148 O155 1.267 . S
O149 C148 1.203 . S
O150 C143 1.185 . S
O150 Zn146 2.086 . S
C151 O147 1.278 . S
C151 O152 1.211 . S
O152 C151 1.211 . S
C153 O145 1.284 . S
C153 O154 1.273 . S
O154 C153 1.273 . S
O155 Zn146 1.977 . S
O155 C148 1.267 . S
C156 O157 1.160 . S
C156 O163 1.185 . S
O157 C156 1.160 . S
O158 Zn159 1.899 . S
O158 C166 1.284 . S
Zn159 O158 1.899 . S
Zn159 O160 2.032 . S
Zn159 O163 2.086 . S
Zn159 O168 1.977 . S
O160 Zn159 2.032 . S
O160 C164 1.278 . S
C161 O162 1.203 . S
C161 O168 1.267 . S
O162 C161 1.203 . S
O163 C156 1.185 . S
O163 Zn159 2.086 . S
C164 O160 1.278 . S
C164 O165 1.211 . S
O165 C164 1.211 . S
C166 O158 1.284 . S
C166 O167 1.273 . S
O167 C166 1.273 . S
O168 Zn159 1.977 . S
O168 C161 1.267 . S
C169 O170 1.160 . S
C169 O176 1.185 . S
O170 C169 1.160 . S
O171 Zn172 1.899 . S
O171 C179 1.284 . S
Zn172 O171 1.899 . S
Zn172 O173 2.032 . S
Zn172 O176 2.086 . S
Zn172 O181 1.977 . S
O173 Zn172 2.032 . S
O173 C177 1.278 . S
C174 O175 1.203 . S
C174 O181 1.267 . S
O175 C174 1.203 . S
O176 C169 1.185 . S
O176 Zn172 2.086 . S
C177 O173 1.278 . S
C177 O178 1.211 . S
O178 C177 1.211 . S
C179 O171 1.284 . S
C179 O180 1.273 . S
O180 C179 1.273 . S
O181 Zn172 1.977 . S
O181 C174 1.267 . S
C182 O183 1.160 . S
C182 O189 1.185 . S
O183 C182 1.160 . S
O184 Zn185 1.899 . S
O184 C192 1.284 . S
Zn185 O184 1.899 . S
Zn185 O186 2.032 . S
Zn185 O189 2.086 . S
Zn185 O194 1.977 . S
O186 Zn185 2.032 . S
O186 C190 1.278 . S
C187 O188 1.203 . S
C187 O194 1.267 . S
O188 C187 1.203 . S
O189 C182 1.185 . S
O189 Zn185 2.086 . S
C190 O186 1.278 . S
C190 O191 1.211 . S
O191 C190 1.211 . S
C192 O184 1.284 . S
C192 O193 1.273 . S
O193 C192 1.273 . S
O194 Zn185 1.977 . S
O194 C187 1.267 . S
C195 O196 1.160 . S
C195 O202 1.185 . S
O196 C195 1.160 . S
O197 Zn198 1.899 . S
O197 C205 1.284 . S
Zn198 O197 1.899 . S
Zn198 O199 2.032 . S
Zn198 O202 2.086 . S
Zn198 O207 1.977 . S
O199 Zn198 2.032 . S
O199 C203 1.278 . S
C200 O201 1.203 . S
C200 O207 1.267 . S
O201 C200 1.203 . S
O202 C195 1.185 . S
O202 Zn198 2.086 . S
C203 O199 1.278 . S
C203 O204 1.211 . S
O204 C203 1.211 . S
C205 O197 1.284 . S
C205 O206 1.273 . S
O206 C205 1.273 . S
O207 Zn198 1.977 . S
O207 C200 1.267 . S
C208 O209 1.160 . S
C208 O215 1.185 . S
O209 C208 1.160 . S
O210 Zn211 1.899 . S
O210 C218 1.284 . S
Zn211 O210 1.899 . S
Zn211 O212 2.032 . S
Zn211 O215 2.086 . S
Zn211 O220 1.977 . S
O212 Zn211 2.032 . S
O212 C216 1.278 . S
C213 O214 1.203 . S
C213 O220 1.267 . S
O214 C213 1.203 . S
O215 C208 1.185 . S
O215 Zn211 2.086 . S
C216 O212 1.278 . S
C216 O217 1.211 . S
O217 C216 1.211 . S
C218 O210 1.284 . S
C218 O219 1.273 . S
O219 C218 1.273 . S
O220 Zn211 1.977 . S
O220 C213 1.267 . S
C221 O222 1.160 . S
C221 O228 1.185 . S
O222 C221 1.160 . S
O223 Zn224 1.899 . S
O223 C231 1.284 . S
Zn224 O223 1.899 . S
Zn224 O225 2.032 . S
Zn224 O228 2.086 . S
Zn224 O233 1.977 . S
O225 Zn224 2.032 . S
O225 C229 1.278 . S
C226 O227 1.203 . S
C226 O233 1.267 . S
O227 C226 1.203 . S
O228 C221 1.185 . S
O228 Zn224 2.086 . S
C229 O225 1.278 . S
C229 O230 1.211 . S
O230 C229 1.211 . S
C231 O223 1.284 . S
C231 O232 1.273 . S
O232 C231 1.273 . S
O233 Zn224 1.977 . S
O233 C226 1.267 . S
C234 O235 1.160 . S
C234 O241 1.185 . S
O235 C234 1.160 . S
O236 Zn237 1.899 . S
O236 C244 1.284 . S
Zn237 O236 1.899 . S
Zn237 O238 2.032 . S
Zn237 O241 2.086 . S
Zn237 O246 1.977 . S
O238 Zn237 2.032 . S
O238 C242 1.278 . S
C239 O240 1.203 . S
C239 O246 1.267 . S
O240 C239 1.203 . S
O241 C234 1.185 . S
O241 Zn237 2.086 . S
C242 O238 1.278 . S
C242 O243 1.211 . S
O243 C242 1.211 . S
C244 O236 1.284 . S
C244 O245 1.273 . S
O245 C244 1.273 . S
O246 Zn237 1.977 . S
O246 C239 1.267 . S
C247 O248 1.160 . S
C247 O254 1.185 . S
O248 C247 1.160 . S
O249 Zn250 1.899 . S
O249 C257 1.284 . S
Zn250 O249 1.899 . S
Zn250 O251 2.032 . S
Zn250 O254 2.086 . S
Zn250 O259 1.977 . S
O251 Zn250 2.032 . S
O251 C255 1.278 . S
C252 O253 1.203 . S
C252 O259 1.267 . S
O253 C252 1.203 . S
O254 C247 1.185 . S
O254 Zn250 2.086 . S
C255 O251 1.278 . S
C255 O256 1.211 . S
O256 C255 1.211 . S
C257 O249 1.284 . S
C257 O258 1.273 . S
O258 C257 1.273 . S
O259 Zn250 1.977 . S
O259 C252 1.267 . S
C260 O261 1.160 . S
C260 O267 1.185 . S
O261 C260 1.160 . S
O262 Zn263 1.899 . S
O262 C270 1.284 . S
Zn263 O262 1.899 . S
Zn263 O264 2.032 . S
Zn263 O267 2.086 . S
Zn263 O272 1.977 . S
O264 Zn263 2.032 . S
O264 C268 1.278 . S
C265 O266 1.203 . S
C265 O272 1.267 . S
O266 C265 1.203 . S
O267 C260 1.185 . S
O267 Zn263 2.086 . S
C268 O264 1.278 . S
C268 O269 1.211 . S
O269 C268 1.211 . S
C270 O262 1.284 . S
C270 O271 1.273 . S
O271 C270 1.273 . S
O272 Zn263 1.977 . S
O272 C265 1.267 . S
C273 O274 1.160 . S
C273 O280 1.185 . S
O274 C273 1.160 . S
O275 Zn276 1.899 . S
O275 C283 1.284 . S
Zn276 O275 1.899 . S
Zn276 O277 2.032 . S
Zn276 O280 2.086 . S
Zn276 O285 1.977 . S
O277 Zn276 2.032 . S
O277 C281 1.278 . S
C278 O279 1.203 . S
C278 O285 1.267 . S
O279 C278 1.203 . S
O280 C273 1.185 . S
O280 Zn276 2.086 . S
C281 O277 1.278 . S
C281 O282 1.211 . S
O282 C281 1.211 . S
C283 O275 1.284 . S
C283 O284 1.273 . S
O284 C283 1.273 . S
O285 Zn276 1.977 . S
O285 C278 1.267 . S
C286 O287 1.160 . S
C286 O293 1.185 . S
O287 C286 1.160 . S
O288 Zn289 1.899 . S
O288 C296 1.284 . S
Zn289 O288 1.899 . S
Zn289 O290 2.032 . S
Zn289 O293 2.086 . S
Zn289 O298 1.977 . S
O290 Zn289 2.032 . S
O290 C294 1.278 . S
C291 O292 1.203 . S
C291 O298 1.267 . S
O292 C291 1.203 . S
O293 C286 1.185 . S
O293 Zn289 2.086 . S
C294 O290 1.278 . S
C294 O295 1.211 . S
O295 C294 1.211 . S
C296 O288 1.284 . S
C296 O297 1.273 . S
O297 C296 1.273 . S
O298 Zn289 1.977 . S
O298 C291 1.267 . S
C299 O300 1.160 . S
C299 O306 1.185 . S
O300 C299 1.160 . S
O301 Zn302 1.899 . S
O301 C309 1.284 . S
Zn302 O301 1.899 . S
Zn302 O303 2.032 . S
Zn302 O306 2.086 . S
Zn302 O311 1.977 . S
O303 Zn302 2.032 . S
O303 C307 1.278 . S
C304 O305 1.203 . S
C304 O311 1.267 . S
O305 C304 1.203 . S
O306 C299 1.185 . S
O306 Zn302 2.086 . S
C307 O303 1.278 . S
C307 O308 1.211 . S
O308 C307 1.211 . S
C309 O301 1.284 . S
C309 O310 1.273 . S
O310 C309 1.273 . S
O311 Zn302 1.977 . S
O311 C304 1.267 . S
C312 C313 1.349 . S
C312 C314 1.327 . S
C312 H337 0.950 . S
C313 C312 1.349 . S
C313 C329 1.349 . S
C314 C312 1.327 . S
C314 C333 1.429 . S
C314 H338 0.950 . S
C315 C332 1.574 . S
C315 C334 1.368 . S
C315 H339 0.949 . S
H316 C320 0.949 . S
C317 C318 1.349 . S
C317 C319 1.327 . S
C317 H340 0.950 . S
C318 C317 1.349 . S
C318 C330 1.349 . S
C319 C317 1.327 . S
C319 C335 1.429 . S
C319 H341 0.950 . S
C320 H316 0.949 . S
C320 C328 1.574 . S
C320 C336 1.368 . S
H321 C329 0.950 . S
H322 C327 0.950 . S
H323 C328 0.949 . S
H324 C330 0.950 . S
H325 C331 0.950 . S
H326 C332 0.949 . S
C327 H322 0.950 . S
C327 C329 1.327 . S
C327 C333 1.429 . S
C328 C320 1.574 . S
C328 H323 0.949 . S
C328 C334 1.368 . S
C329 C313 1.349 . S
C329 H321 0.950 . S
C329 C327 1.327 . S
C330 C318 1.349 . S
C330 H324 0.950 . S
C330 C331 1.327 . S
C331 H325 0.950 . S
C331 C330 1.327 . S
C331 C335 1.429 . S
C332 C315 1.574 . S
C332 H326 0.949 . S
C332 C336 1.368 . S
C333 C314 1.429 . S
C333 C327 1.429 . S
C333 C334 1.523 . S
C334 C315 1.368 . S
C334 C328 1.368 . S
C334 C333 1.523 . S
C335 C319 1.429 . S
C335 C331 1.429 . S
C335 C336 1.523 . S
C336 C320 1.368 . S
C336 C332 1.368 . S
C336 C335 1.523 . S
H337 C312 0.950 . S
H338 C314 0.950 . S
H339 C315 0.949 . S
H340 C317 0.950 . S
H341 C319 0.950 . S
C342 C343 1.349 . S
C342 C344 1.327 . S
C342 H367 0.950 . S
C343 C342 1.349 . S
C343 C359 1.349 . S
C344 C342 1.327 . S
C344 C363 1.429 . S
C344 H368 0.950 . S
C345 C362 1.574 . S
C345 C364 1.368 . S
C345 H369 0.949 . S
H346 C350 0.949 . S
C347 C348 1.349 . S
C347 C349 1.327 . S
C347 H370 0.950 . S
C348 C347 1.349 . S
C348 C360 1.349 . S
C349 C347 1.327 . S
C349 C365 1.429 . S
C349 H371 0.950 . S
C350 H346 0.949 . S
C350 C358 1.574 . S
C350 C366 1.368 . S
H351 C359 0.950 . S
H352 C357 0.950 . S
H353 C358 0.949 . S
H354 C360 0.950 . S
H355 C361 0.950 . S
H356 C362 0.949 . S
C357 H352 0.950 . S
C357 C359 1.327 . S
C357 C363 1.429 . S
C358 C350 1.574 . S
C358 H353 0.949 . S
C358 C364 1.368 . S
C359 C343 1.349 . S
C359 H351 0.950 . S
C359 C357 1.327 . S
C360 C348 1.349 . S
C360 H354 0.950 . S
C360 C361 1.327 . S
C361 H355 0.950 . S
C361 C360 1.327 . S
C361 C365 1.429 . S
C362 C345 1.574 . S
C362 H356 0.949 . S
C362 C366 1.368 . S
C363 C344 1.429 . S
C363 C357 1.429 . S
C363 C364 1.523 . S
C364 C345 1.368 . S
C364 C358 1.368 . S
C364 C363 1.523 . S
C365 C349 1.429 . S
C365 C361 1.429 . S
C365 C366 1.523 . S
C366 C350 1.368 . S
C366 C362 1.368 . S
C366 C365 1.523 . S
H367 C342 0.950 . S
H368 C344 0.950 . S
H369 C345 0.949 . S
H370 C347 0.950 . S
H371 C349 0.950 . S
C372 C373 1.349 . S
C372 C374 1.327 . S
C372 H397 0.950 . S
C373 C372 1.349 . S
C373 C389 1.349 . S
C374 C372 1.327 . S
C374 C393 1.429 . S
C374 H398 0.950 . S
C375 C392 1.574 . S
C375 C394 1.368 . S
C375 H399 0.949 . S
H376 C380 0.949 . S
C377 C378 1.349 . S
C377 C379 1.327 . S
C377 H400 0.950 . S
C378 C377 1.349 . S
C378 C390 1.349 . S
C379 C377 1.327 . S
C379 C395 1.429 . S
C379 H401 0.950 . S
C380 H376 0.949 . S
C380 C388 1.574 . S
C380 C396 1.368 . S
H381 C389 0.950 . S
H382 C387 0.950 . S
H383 C388 0.949 . S
H384 C390 0.950 . S
H385 C391 0.950 . S
H386 C392 0.949 . S
C387 H382 0.950 . S
C387 C389 1.327 . S
C387 C393 1.429 . S
C388 C380 1.574 . S
C388 H383 0.949 . S
C388 C394 1.368 . S
C389 C373 1.349 . S
C389 H381 0.950 . S
C389 C387 1.327 . S
C390 C378 1.349 . S
C390 H384 0.950 . S
C390 C391 1.327 . S
C391 H385 0.950 . S
C391 C390 1.327 . S
C391 C395 1.429 . S
C392 C375 1.574 . S
C392 H386 0.949 . S
C392 C396 1.368 . S
C393 C374 1.429 . S
C393 C387 1.429 . S
C393 C394 1.523 . S
C394 C375 1.368 . S
C394 C388 1.368 . S
C394 C393 1.523 . S
C395 C379 1.429 . S
C395 C391 1.429 . S
C395 C396 1.523 . S
C396 C380 1.368 . S
C396 C392 1.368 . S
C396 C395 1.523 . S
H397 C372 0.950 . S
H398 C374 0.950 . S
H399 C375 0.949 . S
H400 C377 0.950 . S
H401 C379 0.950 . S
C402 C403 1.349 . S
C402 C404 1.327 . S
C402 H427 0.950 . S
C403 C402 1.349 . S
C403 C419 1.349 . S
C404 C402 1.327 . S
C404 C423 1.429 . S
C404 H428 0.950 . S
C405 C422 1.574 . S
C405 C424 1.368 . S
C405 H429 0.949 . S
H406 C410 0.949 . S
C407 C408 1.349 . S
C407 C409 1.327 . S
C407 H430 0.950 . S
C408 C407 1.349 . S
C408 C420 1.349 . S
C409 C407 1.327 . S
C409 C425 1.429 . S
C409 H431 0.950 . S
C410 H406 0.949 . S
C410 C418 1.574 . S
C410 C426 1.368 . S
H411 C419 0.950 . S
H412 C417 0.950 . S
H413 C418 0.949 . S
H414 C420 0.950 . S
H415 C421 0.950 . S
H416 C422 0.949 . S
C417 H412 0.950 . S
C417 C419 1.327 . S
C417 C423 1.429 . S
C418 C410 1.574 . S
C418 H413 0.949 . S
C418 C424 1.368 . S
C419 C403 1.349 . S
C419 H411 0.950 . S
C419 C417 1.327 . S
C420 C408 1.349 . S
C420 H414 0.950 . S
C420 C421 1.327 . S
C421 H415 0.950 . S
C421 C420 1.327 . S
C421 C425 1.429 . S
C422 C405 1.574 . S
C422 H416 0.949 . S
C422 C426 1.368 . S
C423 C404 1.429 . S
C423 C417 1.429 . S
C423 C424 1.523 . S
C424 C405 1.368 . S
C424 C418 1.368 . S
C424 C423 1.523 . S
C425 C409 1.429 . S
C425 C421 1.429 . S
C425 C426 1.523 . S
C426 C410 1.368 . S
C426 C422 1.368 . S
C426 C425 1.523 . S
H427 C402 0.950 . S
H428 C404 0.950 . S
H429 C405 0.949 . S
H430 C407 0.950 . S
H431 C409 0.950 . S
C432 C433 1.349 . S
C432 C434 1.327 . S
C432 H457 0.950 . S
C433 C432 1.349 . S
C433 C449 1.349 . S
C434 C432 1.327 . S
C434 C453 1.429 . S
C434 H458 0.950 . S
C435 C452 1.574 . S
C435 C454 1.368 . S
C435 H459 0.949 . S
H436 C440 0.949 . S
C437 C438 1.349 . S
C437 C439 1.327 . S
C437 H460 0.950 . S
C438 C437 1.349 . S
C438 C450 1.349 . S
C439 C437 1.327 . S
C439 C455 1.429 . S
C439 H461 0.950 . S
C440 H436 0.949 . S
C440 C448 1.574 . S
C440 C456 1.368 . S
H441 C449 0.950 . S
H442 C447 0.950 . S
H443 C448 0.949 . S
H444 C450 0.950 . S
H445 C451 0.950 . S
H446 C452 0.949 . S
C447 H442 0.950 . S
C447 C449 1.327 . S
C447 C453 1.429 . S
C448 C440 1.574 . S
C448 H443 0.949 . S
C448 C454 1.368 . S
C449 C433 1.349 . S
C449 H441 0.950 . S
C449 C447 1.327 . S
C450 C438 1.349 . S
C450 H444 0.950 . S
C450 C451 1.327 . S
C451 H445 0.950 . S
C451 C450 1.327 . S
C451 C455 1.429 . S
C452 C435 1.574 . S
C452 H446 0.949 . S
C452 C456 1.368 . S
C453 C434 1.429 . S
C453 C447 1.429 . S
C453 C454 1.523 . S
C454 C435 1.368 . S
C454 C448 1.368 . S
C454 C453 1.523 . S
C455 C439 1.429 . S
C455 C451 1.429 . S
C455 C456 1.523 . S
C456 C440 1.368 . S
C456 C452 1.368 . S
C456 C455 1.523 . S
H457 C432 0.950 . S
H458 C434 0.950 . S
H459 C435 0.949 . S
H460 C437 0.950 . S
H461 C439 0.950 . S
C462 C463 1.349 . S
C462 C464 1.327 . S
C462 H487 0.950 . S
C463 C462 1.349 . S
C463 C479 1.349 . S
C464 C462 1.327 . S
C464 C483 1.429 . S
C464 H488 0.950 . S
C465 C482 1.574 . S
C465 C484 1.368 . S
C465 H489 0.949 . S
H466 C470 0.949 . S
C467 C468 1.349 . S
C467 C469 1.327 . S
C467 H490 0.950 . S
C468 C467 1.349 . S
C468 C480 1.349 . S
C469 C467 1.327 . S
C469 C485 1.429 . S
C469 H491 0.950 . S
C470 H466 0.949 . S
C470 C478 1.574 . S
C470 C486 1.368 . S
H471 C479 0.950 . S
H472 C477 0.950 . S
H473 C478 0.949 . S
H474 C480 0.950 . S
H475 C481 0.950 . S
H476 C482 0.949 . S
C477 H472 0.950 . S
C477 C479 1.327 . S
C477 C483 1.429 . S
C478 C470 1.574 . S
C478 H473 0.949 . S
C478 C484 1.368 . S
C479 C463 1.349 . S
C479 H471 0.950 . S
C479 C477 1.327 . S
C480 C468 1.349 . S
C480 H474 0.950 . S
C480 C481 1.327 . S
C481 H475 0.950 . S
C481 C480 1.327 . S
C481 C485 1.429 . S
C482 C465 1.574 . S
C482 H476 0.949 . S
C482 C486 1.368 . S
C483 C464 1.429 . S
C483 C477 1.429 . S
C483 C484 1.523 . S
C484 C465 1.368 . S
C484 C478 1.368 . S
C484 C483 1.523 . S
C485 C469 1.429 . S
C485 C481 1.429 . S
C485 C486 1.523 . S
C486 C470 1.368 . S
C486 C482 1.368 . S
C486 C485 1.523 . S
H487 C462 0.950 . S
H488 C464 0.950 . S
H489 C465 0.949 . S
H490 C467 0.950 . S
H491 C469 0.950 . S
C492 C493 1.349 . S
C492 C494 1.327 . S
C492 H517 0.950 . S
C493 C492 1.349 . S
C493 C509 1.349 . S
C494 C492 1.327 . S
C494 C513 1.429 . S
C494 H518 0.950 . S
C495 C512 1.574 . S
C495 C514 1.368 . S
C495 H519 0.949 . S
H496 C500 0.949 . S
C497 C498 1.349 . S
C497 C499 1.327 . S
C497 H520 0.950 . S
C498 C497 1.349 . S
C498 C510 1.349 . S
C499 C497 1.327 . S
C499 C515 1.429 . S
C499 H521 0.950 . S
C500 H496 0.949 . S
C500 C508 1.574 . S
C500 C516 1.368 . S
H501 C509 0.950 . S
H502 C507 0.950 . S
H503 C508 0.949 . S
H504 C510 0.950 . S
H505 C511 0.950 . S
H506 C512 0.949 . S
C507 H502 0.950 . S
C507 C509 1.327 . S
C507 C513 1.429 . S
C508 C500 1.574 . S
C508 H503 0.949 . S
C508 C514 1.368 . S
C509 C493 1.349 . S
C509 H501 0.950 . S
C509 C507 1.327 . S
C510 C498 1.349 . S
C510 H504 0.950 . S
C510 C511 1.327 . S
C511 H505 0.950 . S
C511 C510 1.327 . S
C511 C515 1.429 . S
C512 C495 1.574 . S
C512 H506 0.949 . S
C512 C516 1.368 . S
C513 C494 1.429 . S
C513 C507 1.429 . S
C513 C514 1.523 . S
C514 C495 1.368 . S
C514 C508 1.368 . S
C514 C513 1.523 . S
C515 C499 1.429 . S
C515 C511 1.429 . S
C515 C516 1.523 . S
C516 C500 1.368 . S
C516 C512 1.368 . S
C516 C515 1.523 . S
H517 C492 0.950 . S
H518 C494 0.950 . S
H519 C495 0.949 . S
H520 C497 0.950 . S
H521 C499 0.950 . S
C522 C523 1.349 . S
C522 C524 1.327 . S
C522 H547 0.950 . S
C523 C522 1.349 . S
C523 C539 1.349 . S
C524 C522 1.327 . S
C524 C543 1.429 . S
C524 H548 0.950 . S
C525 C542 1.574 . S
C525 C544 1.368 . S
C525 H549 0.949 . S
H526 C530 0.949 . S
C527 C528 1.349 . S
C527 C529 1.327 . S
C527 H550 0.950 . S
C528 C527 1.349 . S
C528 C540 1.349 . S
C529 C527 1.327 . S
C529 C545 1.429 . S
C529 H551 0.950 . S
C530 H526 0.949 . S
C530 C538 1.574 . S
C530 C546 1.368 . S
H531 C539 0.950 . S
H532 C537 0.950 . S
H533 C538 0.949 . S
H534 C540 0.950 . S
H535 C541 0.950 . S
H536 C542 0.949 . S
C537 H532 0.950 . S
C537 C539 1.327 . S
C537 C543 1.429 . S
C538 C530 1.574 . S
C538 H533 0.949 . S
C538 C544 1.368 . S
C539 C523 1.349 . S
C539 H531 0.950 . S
C539 C537 1.327 . S
C540 C528 1.349 . S
C540 H534 0.950 . S
C540 C541 1.327 . S
C541 H535 0.950 . S
C541 C540 1.327 . S
C541 C545 1.429 . S
C542 C525 1.574 . S
C542 H536 0.949 . S
C542 C546 1.368 . S
C543 C524 1.429 . S
C543 C537 1.429 . S
C543 C544 1.523 . S
C544 C525 1.368 . S
C544 C538 1.368 . S
C544 C543 1.523 . S
C545 C529 1.429 . S
C545 C541 1.429 . S
C545 C546 1.523 . S
C546 C530 1.368 . S
C546 C542 1.368 . S
C546 C545 1.523 . S
H547 C522 0.950 . S
H548 C524 0.950 . S
H549 C525 0.949 . S
H550 C527 0.950 . S
H551 C529 0.950 . S
C552 C553 1.349 . S
C552 C554 1.327 . S
C552 H577 0.950 . S
C553 C552 1.349 . S
C553 C569 1.349 . S
C554 C552 1.327 . S
C554 C573 1.429 . S
C554 H578 0.950 . S
C555 C572 1.574 . S
C555 C574 1.368 . S
C555 H579 0.949 . S
H556 C560 0.949 . S
C557 C558 1.349 . S
C557 C559 1.327 . S
C557 H580 0.950 . S
C558 C557 1.349 . S
C558 C570 1.349 . S
C559 C557 1.327 . S
C559 C575 1.429 . S
C559 H581 0.950 . S
C560 H556 0.949 . S
C560 C568 1.574 . S
C560 C576 1.368 . S
H561 C569 0.950 . S
H562 C567 0.950 . S
H563 C568 0.949 . S
H564 C570 0.950 . S
H565 C571 0.950 . S
H566 C572 0.949 . S
C567 H562 0.950 . S
C567 C569 1.327 . S
C567 C573 1.429 . S
C568 C560 1.574 . S
C568 H563 0.949 . S
C568 C574 1.368 . S
C569 C553 1.349 . S
C569 H561 0.950 . S
C569 C567 1.327 . S
C570 C558 1.349 . S
C570 H564 0.950 . S
C570 C571 1.327 . S
C571 H565 0.950 . S
C571 C570 1.327 . S
C571 C575 1.429 . S
C572 C555 1.574 . S
C572 H566 0.949 . S
C572 C576 1.368 . S
C573 C554 1.429 . S
C573 C567 1.429 . S
C573 C574 1.523 . S
C574 C555 1.368 . S
C574 C568 1.368 . S
C574 C573 1.523 . S
C575 C559 1.429 . S
C575 C571 1.429 . S
C575 C576 1.523 . S
C576 C560 1.368 . S
C576 C572 1.368 . S
C576 C575 1.523 . S
H577 C552 0.950 . S
H578 C554 0.950 . S
H579 C555 0.949 . S
H580 C557 0.950 . S
H581 C559 0.950 . S
C582 C583 1.349 . S
C582 C584 1.327 . S
C582 H607 0.950 . S
C583 C582 1.349 . S
C583 C599 1.349 . S
C584 C582 1.327 . S
C584 C603 1.429 . S
C584 H608 0.950 . S
C585 C602 1.574 . S
C585 C604 1.368 . S
C585 H609 0.949 . S
H586 C590 0.949 . S
C587 C588 1.349 . S
C587 C589 1.327 . S
C587 H610 0.950 . S
C588 C587 1.349 . S
C588 C600 1.349 . S
C589 C587 1.327 . S
C589 C605 1.429 . S
C589 H611 0.950 . S
C590 H586 0.949 . S
C590 C598 1.574 . S
C590 C606 1.368 . S
H591 C599 0.950 . S
H592 C597 0.950 . S
H593 C598 0.949 . S
H594 C600 0.950 . S
H595 C601 0.950 . S
H596 C602 0.949 . S
C597 H592 0.950 . S
C597 C599 1.327 . S
C597 C603 1.429 . S
C598 C590 1.574 . S
C598 H593 0.949 . S
C598 C604 1.368 . S
C599 C583 1.349 . S
C599 H591 0.950 . S
C599 C597 1.327 . S
C600 C588 1.349 . S
C600 H594 0.950 . S
C600 C601 1.327 . S
C601 H595 0.950 . S
C601 C600 1.327 . S
C601 C605 1.429 . S
C602 C585 1.574 . S
C602 H596 0.949 . S
C602 C606 1.368 . S
C603 C584 1.429 . S
C603 C597 1.429 . S
C603 C604 1.523 . S
C604 C585 1.368 . S
C604 C598 1.368 . S
C604 C603 1.523 . S
C605 C589 1.429 . S
C605 C601 1.429 . S
C605 C606 1.523 . S
C606 C590 1.368 . S
C606 C602 1.368 . S
C606 C605 1.523 . S
H607 C582 0.950 . S
H608 C584 0.950 . S
H609 C585 0.949 . S
H610 C587 0.950 . S
H611 C589 0.950 . S
C612 C613 1.349 . S
C612 C614 1.327 . S
C612 H637 0.950 . S
C613 C612 1.349 . S
C613 C629 1.349 . S
C614 C612 1.327 . S
C614 C633 1.429 . S
C614 H638 0.950 . S
C615 C632 1.574 . S
C615 C634 1.368 . S
C615 H639 0.949 . S
H616 C620 0.949 . S
C617 C618 1.349 . S
C617 C619 1.327 . S
C617 H640 0.950 . S
C618 C617 1.349 . S
C618 C630 1.349 . S
C619 C617 1.327 . S
C619 C635 1.429 . S
C619 H641 0.950 . S
C620 H616 0.949 . S
C620 C628 1.574 . S
C620 C636 1.368 . S
H621 C629 0.950 . S
H622 C627 0.950 . S
H623 C628 0.949 . S
H624 C630 0.950 . S
H625 C631 0.950 . S
H626 C632 0.949 . S
C627 H622 0.950 . S
C627 C629 1.327 . S
C627 C633 1.429 . S
C628 C620 1.574 . S
C628 H623 0.949 . S
C628 C634 1.368 . S
C629 C613 1.349 . S
C629 H621 0.950 . S
C629 C627 1.327 . S
C630 C618 1.349 . S
C630 H624 0.950 . S
C630 C631 1.327 . S
C631 H625 0.950 . S
C631 C630 1.327 . S
C631 C635 1.429 . S
C632 C615 1.574 . S
C632 H626 0.949 . S
C632 C636 1.368 . S
C633 C614 1.429 . S
C633 C627 1.429 . S
C633 C634 1.523 . S
C634 C615 1.368 . S
C634 C628 1.368 . S
C634 C633 1.523 . S
C635 C619 1.429 . S
C635 C631 1.429 . S
C635 C636 1.523 . S
C636 C620 1.368 . S
C636 C632 1.368 . S
C636 C635 1.523 . S
H637 C612 0.950 . S
H638 C614 0.950 . S
H639 C615 0.949 . S
H640 C617 0.950 . S
H641 C619 0.950 . S
C642 C643 1.349 . S
C642 C644 1.327 . S
C642 H667 0.950 . S
C643 C642 1.349 . S
C643 C659 1.349 . S
C644 C642 1.327 . S
C644 C663 1.429 . S
C644 H668 0.950 . S
C645 C662 1.574 . S
C645 C664 1.368 . S
C645 H669 0.949 . S
H646 C650 0.949 . S
C647 C648 1.349 . S
C647 C649 1.327 . S
C647 H670 0.950 . S
C648 C647 1.349 . S
C648 C660 1.349 . S
C649 C647 1.327 . S
C649 C665 1.429 . S
C649 H671 0.950 . S
C650 H646 0.949 . S
C650 C658 1.574 . S
C650 C666 1.368 . S
H651 C659 0.950 . S
H652 C657 0.950 . S
H653 C658 0.949 . S
H654 C660 0.950 . S
H655 C661 0.950 . S
H656 C662 0.949 . S
C657 H652 0.950 . S
C657 C659 1.327 . S
C657 C663 1.429 . S
C658 C650 1.574 . S
C658 H653 0.949 . S
C658 C664 1.368 . S
C659 C643 1.349 . S
C659 H651 0.950 . S
C659 C657 1.327 . S
C660 C648 1.349 . S
C660 H654 0.950 . S
C660 C661 1.327 . S
C661 H655 0.950 . S
C661 C660 1.327 . S
C661 C665 1.429 . S
C662 C645 1.574 . S
C662 H656 0.949 . S
C662 C666 1.368 . S
C663 C644 1.429 . S
C663 C657 1.429 . S
C663 C664 1.523 . S
C664 C645 1.368 . S
C664 C658 1.368 . S
C664 C663 1.523 . S
C665 C649 1.429 . S
C665 C661 1.429 . S
C665 C666 1.523 . S
C666 C650 1.368 . S
C666 C662 1.368 . S
C666 C665 1.523 . S
H667 C642 0.950 . S
H668 C644 0.950 . S
H669 C645 0.949 . S
H670 C647 0.950 . S
H671 C649 0.950 . S
C672 C673 1.349 . S
C672 C674 1.327 . S
C672 H697 0.950 . S
C673 C672 1.349 . S
C673 C689 1.349 . S
C674 C672 1.327 . S
C674 C693 1.429 . S
C674 H698 0.950 . S
C675 C692 1.574 . S
C675 C694 1.368 . S
C675 H699 0.949 . S
H676 C680 0.949 . S
C677 C678 1.349 . S
C677 C679 1.327 . S
C677 H700 0.950 . S
C678 C677 1.349 . S
C678 C690 1.349 . S
C679 C677 1.327 . S
C679 C695 1.429 . S
C679 H701 0.950 . S
C680 H676 0.949 . S
C680 C688 1.574 . S
C680 C696 1.368 . S
H681 C689 0.950 . S
H682 C687 0.950 . S
H683 C688 0.949 . S
H684 C690 0.950 . S
H685 C691 0.950 . S
H686 C692 0.949 . S
C687 H682 0.950 . S
C687 C689 1.327 . S
C687 C693 1.429 . S
C688 C680 1.574 . S
C688 H683 0.949 . S
C688 C694 1.368 . S
C689 C673 1.349 . S
C689 H681 0.950 . S
C689 C687 1.327 . S
C690 C678 1.349 . S
C690 H684 0.950 . S
C690 C691 1.327 . S
C691 H685 0.950 . S
C691 C690 1.327 . S
C691 C695 1.429 . S
C692 C675 1.574 . S
C692 H686 0.949 . S
C692 C696 1.368 . S
C693 C674 1.429 . S
C693 C687 1.429 . S
C693 C694 1.523 . S
C694 C675 1.368 . S
C694 C688 1.368 . S
C694 C693 1.523 . S
C695 C679 1.429 . S
C695 C691 1.429 . S
C695 C696 1.523 . S
C696 C680 1.368 . S
C696 C692 1.368 . S
C696 C695 1.523 . S
H697 C672 0.950 . S
H698 C674 0.950 . S
H699 C675 0.949 . S
H700 C677 0.950 . S
H701 C679 0.950 . S
C702 C703 1.349 . S
C702 C704 1.327 . S
C702 H727 0.950 . S
C703 C702 1.349 . S
C703 C719 1.349 . S
C704 C702 1.327 . S
C704 C723 1.429 . S
C704 H728 0.950 . S
C705 C722 1.574 . S
C705 C724 1.368 . S
C705 H729 0.949 . S
H706 C710 0.949 . S
C707 C708 1.349 . S
C707 C709 1.327 . S
C707 H730 0.950 . S
C708 C707 1.349 . S
C708 C720 1.349 . S
C709 C707 1.327 . S
C709 C725 1.429 . S
C709 H731 0.950 . S
C710 H706 0.949 . S
C710 C718 1.574 . S
C710 C726 1.368 . S
H711 C719 0.950 . S
H712 C717 0.950 . S
H713 C718 0.949 . S
H714 C720 0.950 . S
H715 C721 0.950 . S
H716 C722 0.949 . S
C717 H712 0.950 . S
C717 C719 1.327 . S
C717 C723 1.429 . S
C718 C710 1.574 . S
C718 H713 0.949 . S
C718 C724 1.368 . S
C719 C703 1.349 . S
C719 H711 0.950 . S
C719 C717 1.327 . S
C720 C708 1.349 . S
C720 H714 0.950 . S
C720 C721 1.327 . S
C721 H715 0.950 . S
C721 C720 1.327 . S
C721 C725 1.429 . S
C722 C705 1.574 . S
C722 H716 0.949 . S
C722 C726 1.368 . S
C723 C704 1.429 . S
C723 C717 1.429 . S
C723 C724 1.523 . S
C724 C705 1.368 . S
C724 C718 1.368 . S
C724 C723 1.523 . S
C725 C709 1.429 . S
C725 C721 1.429 . S
C725 C726 1.523 . S
C726 C710 1.368 . S
C726 C722 1.368 . S
C726 C725 1.523 . S
H727 C702 0.950 . S
H728 C704 0.950 . S
H729 C705 0.949 . S
H730 C707 0.950 . S
H731 C709 0.950 . S
C732 C733 1.349 . S
C732 C734 1.327 . S
C732 H757 0.950 . S
C733 C732 1.349 . S
C733 C749 1.349 . S
C734 C732 1.327 . S
C734 C753 1.429 . S
C734 H758 0.950 . S
C735 C752 1.574 . S
C735 C754 1.368 . S
C735 H759 0.949 . S
H736 C740 0.949 . S
C737 C738 1.349 . S
C737 C739 1.327 . S
C737 H760 0.950 . S
C738 C737 1.349 . S
C738 C750 1.349 . S
C739 C737 1.327 . S
C739 C755 1.429 . S
C739 H761 0.950 . S
C740 H736 0.949 . S
C740 C748 1.574 . S
C740 C756 1.368 . S
H741 C749 0.950 . S
H742 C747 0.950 . S
H743 C748 0.949 . S
H744 C750 0.950 . S
H745 C751 0.950 . S
H746 C752 0.949 . S
C747 H742 0.950 . S
C747 C749 1.327 . S
C747 C753 1.429 . S
C748 C740 1.574 . S
C748 H743 0.949 . S
C748 C754 1.368 . S
C749 C733 1.349 . S
C749 H741 0.950 . S
C749 C747 1.327 . S
C750 C738 1.349 . S
C750 H744 0.950 . S
C750 C751 1.327 . S
C751 H745 0.950 . S
C751 C750 1.327 . S
C751 C755 1.429 . S
C752 C735 1.574 . S
C752 H746 0.949 . S
C752 C756 1.368 . S
C753 C734 1.429 . S
C753 C747 1.429 . S
C753 C754 1.523 . S
C754 C735 1.368 . S
C754 C748 1.368 . S
C754 C753 1.523 . S
C755 C739 1.429 . S
C755 C751 1.429 . S
C755 C756 1.523 . S
C756 C740 1.368 . S
C756 C752 1.368 . S
C756 C755 1.523 . S
H757 C732 0.950 . S
H758 C734 0.950 . S
H759 C735 0.949 . S
H760 C737 0.950 . S
H761 C739 0.950 . S
C762 C763 1.349 . S
C762 C764 1.327 . S
C762 H787 0.950 . S
C763 C762 1.349 . S
C763 C779 1.349 . S
C764 C762 1.327 . S
C764 C783 1.429 . S
C764 H788 0.950 . S
C765 C782 1.574 . S
C765 C784 1.368 . S
C765 H789 0.949 . S
H766 C770 0.949 . S
C767 C768 1.349 . S
C767 C769 1.327 . S
C767 H790 0.950 . S
C768 C767 1.349 . S
C768 C780 1.349 . S
C769 C767 1.327 . S
C769 C785 1.429 . S
C769 H791 0.950 . S
C770 H766 0.949 . S
C770 C778 1.574 . S
C770 C786 1.368 . S
H771 C779 0.950 . S
H772 C777 0.950 . S
H773 C778 0.949 . S
H774 C780 0.950 . S
H775 C781 0.950 . S
H776 C782 0.949 . S
C777 H772 0.950 . S
C777 C779 1.327 . S
C777 C783 1.429 . S
C778 C770 1.574 . S
C778 H773 0.949 . S
C778 C784 1.368 . S
C779 C763 1.349 . S
C779 H771 0.950 . S
C779 C777 1.327 . S
C780 C768 1.349 . S
C780 H774 0.950 . S
C780 C781 1.327 . S
C781 H775 0.950 . S
C781 C780 1.327 . S
C781 C785 1.429 . S
C782 C765 1.574 . S
C782 H776 0.949 . S
C782 C786 1.368 . S
C783 C764 1.429 . S
C783 C777 1.429 . S
C783 C784 1.523 . S
C784 C765 1.368 . S
C784 C778 1.368 . S
C784 C783 1.523 . S
C785 C769 1.429 . S
C785 C781 1.429 . S
C785 C786 1.523 . S
C786 C770 1.368 . S
C786 C782 1.368 . S
C786 C785 1.523 . S
H787 C762 0.950 . S
H788 C764 0.950 . S
H789 C765 0.949 . S
H790 C767 0.950 . S
H791 C769 0.950 . S
C792 C793 1.349 . S
C792 C794 1.327 . S
C792 H817 0.950 . S
C793 C792 1.349 . S
C793 C809 1.349 . S
C794 C792 1.327 . S
C794 C813 1.429 . S
C794 H818 0.950 . S
C795 C812 1.574 . S
C795 C814 1.368 . S
C795 H819 0.949 . S
H796 C800 0.949 . S
C797 C798 1.349 . S
C797 C799 1.327 . S
C797 H820 0.950 . S
C798 C797 1.349 . S
C798 C810 1.349 . S
C799 C797 1.327 . S
C799 C815 1.429 . S
C799 H821 0.950 . S
C800 H796 0.949 . S
C800 C808 1.574 . S
C800 C816 1.368 . S
H801 C809 0.950 . S
H802 C807 0.950 . S
H803 C808 0.949 . S
H804 C810 0.950 . S
H805 C811 0.950 . S
H806 C812 0.949 . S
C807 H802 0.950 . S
C807 C809 1.327 . S
C807 C813 1.429 . S
C808 C800 1.574 . S
C808 H803 0.949 . S
C808 C814 1.368 . S
C809 C793 1.349 . S
C809 H801 0.950 . S
C809 C807 1.327 . S
C810 C798 1.349 . S
C810 H804 0.950 . S
C810 C811 1.327 . S
C811 H805 0.950 . S
C811 C810 1.327 . S
C811 C815 1.429 . S
C812 C795 1.574 . S
C812 H806 0.949 . S
C812 C816 1.368 . S
C813 C794 1.429 . S
C813 C807 1.429 . S
C813 C814 1.523 . S
C814 C795 1.368 . S
C814 C808 1.368 . S
C814 C813 1.523 . S
C815 C799 1.429 . S
C815 C811 1.429 . S
C815 C816 1.523 . S
C816 C800 1.368 . S
C816 C812 1.368 . S
C816 C815 1.523 . S
H817 C792 0.950 . S
H818 C794 0.950 . S
H819 C795 0.949 . S
H820 C797 0.950 . S
H821 C799 0.950 . S
C822 C823 1.349 . S
C822 C824 1.327 . S
C822 H847 0.950 . S
C823 C822 1.349 . S
C823 C839 1.349 . S
C824 C822 1.327 . S
C824 C843 1.429 . S
C824 H848 0.950 . S
C825 C842 1.574 . S
C825 C844 1.368 . S
C825 H849 0.949 . S
H826 C830 0.949 . S
C827 C828 1.349 . S
C827 C829 1.327 . S
C827 H850 0.950 . S
C828 C827 1.349 . S
C828 C840 1.349 . S
C829 C827 1.327 . S
C829 C845 1.429 . S
C829 H851 0.950 . S
C830 H826 0.949 . S
C830 C838 1.574 . S
C830 C846 1.368 . S
H831 C839 0.950 . S
H832 C837 0.950 . S
H833 C838 0.949 . S
H834 C840 0.950 . S
H835 C841 0.950 . S
H836 C842 0.949 . S
C837 H832 0.950 . S
C837 C839 1.327 . S
C837 C843 1.429 . S
C838 C830 1.574 . S
C838 H833 0.949 . S
C838 C844 1.368 . S
C839 C823 1.349 . S
C839 H831 0.950 . S
C839 C837 1.327 . S
C840 C828 1.349 . S
C840 H834 0.950 . S
C840 C841 1.327 . S
C841 H835 0.950 . S
C841 C840 1.327 . S
C841 C845 1.429 . S
C842 C825 1.574 . S
C842 H836 0.949 . S
C842 C846 1.368 . S
C843 C824 1.429 . S
C843 C837 1.429 . S
C843 C844 1.523 . S
C844 C825 1.368 . S
C844 C838 1.368 . S
C844 C843 1.523 . S
C845 C829 1.429 . S
C845 C841 1.429 . S
C845 C846 1.523 . S
C846 C830 1.368 . S
C846 C842 1.368 . S
C846 C845 1.523 . S
H847 C822 0.950 . S
H848 C824 0.950 . S
H849 C825 0.949 . S
H850 C827 0.950 . S
H851 C829 0.950 . S
C852 C853 1.349 . S
C852 C854 1.327 . S
C852 H877 0.950 . S
C853 C852 1.349 . S
C853 C869 1.349 . S
C854 C852 1.327 . S
C854 C873 1.429 . S
C854 H878 0.950 . S
C855 C872 1.574 . S
C855 C874 1.368 . S
C855 H879 0.949 . S
H856 C860 0.949 . S
C857 C858 1.349 . S
C857 C859 1.327 . S
C857 H880 0.950 . S
C858 C857 1.349 . S
C858 C870 1.349 . S
C859 C857 1.327 . S
C859 C875 1.429 . S
C859 H881 0.950 . S
C860 H856 0.949 . S
C860 C868 1.574 . S
C860 C876 1.368 . S
H861 C869 0.950 . S
H862 C867 0.950 . S
H863 C868 0.949 . S
H864 C870 0.950 . S
H865 C871 0.950 . S
H866 C872 0.949 . S
C867 H862 0.950 . S
C867 C869 1.327 . S
C867 C873 1.429 . S
C868 C860 1.574 . S
C868 H863 0.949 . S
C868 C874 1.368 . S
C869 C853 1.349 . S
C869 H861 0.950 . S
C869 C867 1.327 . S
C870 C858 1.349 . S
C870 H864 0.950 . S
C870 C871 1.327 . S
C871 H865 0.950 . S
C871 C870 1.327 . S
C871 C875 1.429 . S
C872 C855 1.574 . S
C872 H866 0.949 . S
C872 C876 1.368 . S
C873 C854 1.429 . S
C873 C867 1.429 . S
C873 C874 1.523 . S
C874 C855 1.368 . S
C874 C868 1.368 . S
C874 C873 1.523 . S
C875 C859 1.429 . S
C875 C871 1.429 . S
C875 C876 1.523 . S
C876 C860 1.368 . S
C876 C872 1.368 . S
C876 C875 1.523 . S
H877 C852 0.950 . S
H878 C854 0.950 . S
H879 C855 0.949 . S
H880 C857 0.950 . S
H881 C859 0.950 . S
C882 C883 1.349 . S
C882 C884 1.327 . S
C882 H907 0.950 . S
C883 C882 1.349 . S
C883 C899 1.349 . S
C884 C882 1.327 . S
C884 C903 1.429 . S
C884 H908 0.950 . S
C885 C902 1.574 . S
C885 C904 1.368 . S
C885 H909 0.949 . S
H886 C890 0.949 . S
C887 C888 1.349 . S
C887 C889 1.327 . S
C887 H910 0.950 . S
C888 C887 1.349 . S
C888 C900 1.349 . S
C889 C887 1.327 . S
C889 C905 1.429 . S
C889 H911 0.950 . S
C890 H886 0.949 . S
C890 C898 1.574 . S
C890 C906 1.368 . S
H891 C899 0.950 . S
H892 C897 0.950 . S
H893 C898 0.949 . S
H894 C900 0.950 . S
H895 C901 0.950 . S
H896 C902 0.949 . S
C897 H892 0.950 . S
C897 C899 1.327 . S
C897 C903 1.429 . S
C898 C890 1.574 . S
C898 H893 0.949 . S
C898 C904 1.368 . S
C899 C883 1.349 . S
C899 H891 0.950 . S
C899 C897 1.327 . S
C900 C888 1.349 . S
C900 H894 0.950 . S
C900 C901 1.327 . S
C901 H895 0.950 . S
C901 C900 1.327 . S
C901 C905 1.429 . S
C902 C885 1.574 . S
C902 H896 0.949 . S
C902 C906 1.368 . S
C903 C884 1.429 . S
C903 C897 1.429 . S
C903 C904 1.523 . S
C904 C885 1.368 . S
C904 C898 1.368 . S
C904 C903 1.523 . S
C905 C889 1.429 . S
C905 C901 1.429 . S
C905 C906 1.523 . S
C906 C890 1.368 . S
C906 C902 1.368 . S
C906 C905 1.523 . S
H907 C882 0.950 . S
H908 C884 0.950 . S
H909 C885 0.949 . S
H910 C887 0.950 . S
H911 C889 0.950 . S
C912 C913 1.349 . S
C912 C914 1.327 . S
C912 H937 0.950 . S
C913 C912 1.349 . S
C913 C929 1.349 . S
C914 C912 1.327 . S
C914 C933 1.429 . S
C914 H938 0.950 . S
C915 C932 1.574 . S
C915 C934 1.368 . S
C915 H939 0.949 . S
H916 C920 0.949 . S
C917 C918 1.349 . S
C917 C919 1.327 . S
C917 H940 0.950 . S
C918 C917 1.349 . S
C918 C930 1.349 . S
C919 C917 1.327 . S
C919 C935 1.429 . S
C919 H941 0.950 . S
C920 H916 0.949 . S
C920 C928 1.574 . S
C920 C936 1.368 . S
H921 C929 0.950 . S
H922 C927 0.950 . S
H923 C928 0.949 . S
H924 C930 0.950 . S
H925 C931 0.950 . S
H926 C932 0.949 . S
C927 H922 0.950 . S
C927 C929 1.327 . S
C927 C933 1.429 . S
C928 C920 1.574 . S
C928 H923 0.949 . S
C928 C934 1.368 . S
C929 C913 1.349 . S
C929 H921 0.950 . S
C929 C927 1.327 . S
C930 C918 1.349 . S
C930 H924 0.950 . S
C930 C931 1.327 . S
C931 H925 0.950 . S
C931 C930 1.327 . S
C931 C935 1.429 . S
C932 C915 1.574 . S
C932 H926 0.949 . S
C932 C936 1.368 . S
C933 C914 1.429 . S
C933 C927 1.429 . S
C933 C934 1.523 . S
C934 C915 1.368 . S
C934 C928 1.368 . S
C934 C933 1.523 . S
C935 C919 1.429 . S
C935 C931 1.429 . S
C935 C936 1.523 . S
C936 C920 1.368 . S
C936 C932 1.368 . S
C936 C935 1.523 . S
H937 C912 0.950 . S
H938 C914 0.950 . S
H939 C915 0.949 . S
H940 C917 0.950 . S
H941 C919 0.950 . S
C942 C943 1.349 . S
C942 C944 1.327 . S
C942 H967 0.950 . S
C943 C942 1.349 . S
C943 C959 1.349 . S
C944 C942 1.327 . S
C944 C963 1.429 . S
C944 H968 0.950 . S
C945 C962 1.574 . S
C945 C964 1.368 . S
C945 H969 0.949 . S
H946 C950 0.949 . S
C947 C948 1.349 . S
C947 C949 1.327 . S
C947 H970 0.950 . S
C948 C947 1.349 . S
C948 C960 1.349 . S
C949 C947 1.327 . S
C949 C965 1.429 . S
C949 H971 0.950 . S
C950 H946 0.949 . S
C950 C958 1.574 . S
C950 C966 1.368 . S
H951 C959 0.950 . S
H952 C957 0.950 . S
H953 C958 0.949 . S
H954 C960 0.950 . S
H955 C961 0.950 . S
H956 C962 0.949 . S
C957 H952 0.950 . S
C957 C959 1.327 . S
C957 C963 1.429 . S
C958 C950 1.574 . S
C958 H953 0.949 . S
C958 C964 1.368 . S
C959 C943 1.349 . S
C959 H951 0.950 . S
C959 C957 1.327 . S
C960 C948 1.349 . S
C960 H954 0.950 . S
C960 C961 1.327 . S
C961 H955 0.950 . S
C961 C960 1.327 . S
C961 C965 1.429 . S
C962 C945 1.574 . S
C962 H956 0.949 . S
C962 C966 1.368 . S
C963 C944 1.429 . S
C963 C957 1.429 . S
C963 C964 1.523 . S
C964 C945 1.368 . S
C964 C958 1.368 . S
C964 C963 1.523 . S
C965 C949 1.429 . S
C965 C961 1.429 . S
C965 C966 1.523 . S
C966 C950 1.368 . S
C966 C962 1.368 . S
C966 C965 1.523 . S
H967 C942 0.950 . S
H968 C944 0.950 . S
H969 C945 0.949 . S
H970 C947 0.950 . S
H971 C949 0.950 . S
C972 C973 1.349 . S
C972 C974 1.327 . S
C972 H997 0.950 . S
C973 C972 1.349 . S
C973 C989 1.349 . S
C974 C972 1.327 . S
C974 C993 1.429 . S
C974 H998 0.950 . S
C975 C992 1.574 . S
C975 C994 1.368 . S
C975 H999 0.949 . S
H976 C980 0.949 . S
C977 C978 1.349 . S
C977 C979 1.327 . S
C977 H1000 0.950 . S
C978 C977 1.349 . S
C978 C990 1.349 . S
C979 C977 1.327 . S
C979 C995 1.429 . S
C979 H1001 0.950 . S
C980 H976 0.949 . S
C980 C988 1.574 . S
C980 C996 1.368 . S
H981 C989 0.950 . S
H982 C987 0.950 . S
H983 C988 0.949 . S
H984 C990 0.950 . S
H985 C991 0.950 . S
H986 C992 0.949 . S
C987 H982 0.950 . S
C987 C989 1.327 . S
C987 C993 1.429 . S
C988 C980 1.574 . S
C988 H983 0.949 . S
C988 C994 1.368 . S
C989 C973 1.349 . S
C989 H981 0.950 . S
C989 C987 1.327 . S
C990 C978 1.349 . S
C990 H984 0.950 . S
C990 C991 1.327 . S
C991 H985 0.950 . S
C991 C990 1.327 . S
C991 C995 1.429 . S
C992 C975 1.574 . S
C992 H986 0.949 . S
C992 C996 1.368 . S
C993 C974 1.429 . S
C993 C987 1.429 . S
C993 C994 1.523 . S
C994 C975 1.368 . S
C994 C988 1.368 . S
C994 C993 1.523 . S
C995 C979 1.429 . S
C995 C991 1.429 . S
C995 C996 1.523 . S
C996 C980 1.368 . S
C996 C992 1.368 . S
C996 C995 1.523 . S
H997 C972 0.950 . S
H998 C974 0.950 . S
H999 C975 0.949 . S
H1000 C977 0.950 . S
H1001 C979 0.950 . S
C1002 C1003 1.349 . S
C1002 C1004 1.327 . S
C1002 H1027 0.950 . S
C1003 C1002 1.349 . S
C1003 C1019 1.349 . S
C1004 C1002 1.327 . S
C1004 C1023 1.429 . S
C1004 H1028 0.950 . S
C1005 C1022 1.574 . S
C1005 C1024 1.368 . S
C1005 H1029 0.949 . S
H1006 C1010 0.949 . S
C1007 C1008 1.349 . S
C1007 C1009 1.327 . S
C1007 H1030 0.950 . S
C1008 C1007 1.349 . S
C1008 C1020 1.349 . S
C1009 C1007 1.327 . S
C1009 C1025 1.429 . S
C1009 H1031 0.950 . S
C1010 H1006 0.949 . S
C1010 C1018 1.574 . S
C1010 C1026 1.368 . S
H1011 C1019 0.950 . S
H1012 C1017 0.950 . S
H1013 C1018 0.949 . S
H1014 C1020 0.950 . S
H1015 C1021 0.950 . S
H1016 C1022 0.949 . S
C1017 H1012 0.950 . S
C1017 C1019 1.327 . S
C1017 C1023 1.429 . S
C1018 C1010 1.574 . S
C1018 H1013 0.949 . S
C1018 C1024 1.368 . S
C1019 C1003 1.349 . S
C1019 H1011 0.950 . S
C1019 C1017 1.327 . S
C1020 C1008 1.349 . S
C1020 H1014 0.950 . S
C1020 C1021 1.327 . S
C1021 H1015 0.950 . S
C1021 C1020 1.327 . S
C1021 C1025 1.429 . S
C1022 C1005 1.574 . S
C1022 H1016 0.949 . S
C1022 C1026 1.368 . S
C1023 C1004 1.429 . S
C1023 C1017 1.429 . S
C1023 C1024 1.523 . S
C1024 C1005 1.368 . S
C1024 C1018 1.368 . S
C1024 C1023 1.523 . S
C1025 C1009 1.429 . S
C1025 C1021 1.429 . S
C1025 C1026 1.523 . S
C1026 C1010 1.368 . S
C1026 C1022 1.368 . S
C1026 C1025 1.523 . S
H1027 C1002 0.950 . S
H1028 C1004 0.950 . S
H1029 C1005 0.949 . S
H1030 C1007 0.950 . S
H1031 C1009 0.950 . S
C1032 C1033 1.349 . S
C1032 C1034 1.327 . S
C1032 H1057 0.950 . S
C1033 C1032 1.349 . S
C1033 C1049 1.349 . S
C1034 C1032 1.327 . S
C1034 C1053 1.429 . S
C1034 H1058 0.950 . S
C1035 C1052 1.574 . S
C1035 C1054 1.368 1_554 S
C1035 H1059 0.949 . S
H1036 C1040 0.949 . S
C1037 C1038 1.349 . S
C1037 C1039 1.327 . S
C1037 H1060 0.950 . S
C1038 C1037 1.349 . S
C1038 C1050 1.349 . S
C1039 C1037 1.327 . S
C1039 C1055 1.429 . S
C1039 H1061 0.950 . S
C1040 H1036 0.949 . S
C1040 C1048 1.574 . S
C1040 C1056 1.368 1_556 S
H1041 C1049 0.950 . S
H1042 C1047 0.950 . S
H1043 C1048 0.949 . S
H1044 C1050 0.950 . S
H1045 C1051 0.950 . S
H1046 C1052 0.949 . S
C1047 H1042 0.950 . S
C1047 C1049 1.327 . S
C1047 C1053 1.429 . S
C1048 C1040 1.574 . S
C1048 H1043 0.949 . S
C1048 C1054 1.368 1_545 S
C1049 C1033 1.349 . S
C1049 H1041 0.950 . S
C1049 C1047 1.327 . S
C1050 C1038 1.349 . S
C1050 H1044 0.950 . S
C1050 C1051 1.327 . S
C1051 H1045 0.950 . S
C1051 C1050 1.327 . S
C1051 C1055 1.429 . S
C1052 C1035 1.574 . S
C1052 H1046 0.949 . S
C1052 C1056 1.368 1_565 S
C1053 C1034 1.429 . S
C1053 C1047 1.429 . S
C1053 C1054 1.523 . S
C1054 C1035 1.368 1_556 S
C1054 C1048 1.368 1_565 S
C1054 C1053 1.523 . S
C1055 C1039 1.429 . S
C1055 C1051 1.429 . S
C1055 C1056 1.523 . S
C1056 C1040 1.368 1_554 S
C1056 C1052 1.368 1_545 S
C1056 C1055 1.523 . S
H1057 C1032 0.950 . S
H1058 C1034 0.950 . S
H1059 C1035 0.949 . S
H1060 C1037 0.950 . S
H1061 C1039 0.950 . S
C1062 C1063 1.349 . S
C1062 C1064 1.327 . S
C1062 H1087 0.950 . S
C1063 C1062 1.349 . S
C1063 C1079 1.349 . S
C1064 C1062 1.327 . S
C1064 C1083 1.429 . S
C1064 H1088 0.950 . S
C1065 C1082 1.574 . S
C1065 C1084 1.368 . S
C1065 H1089 0.949 . S
H1066 C1070 0.949 . S
C1067 C1068 1.349 . S
C1067 C1069 1.327 . S
C1067 H1090 0.950 . S
C1068 C1067 1.349 . S
C1068 C1080 1.349 . S
C1069 C1067 1.327 . S
C1069 C1085 1.429 . S
C1069 H1091 0.950 . S
C1070 H1066 0.949 . S
C1070 C1078 1.574 . S
C1070 C1086 1.368 . S
H1071 C1079 0.950 . S
H1072 C1077 0.950 . S
H1073 C1078 0.949 . S
H1074 C1080 0.950 . S
H1075 C1081 0.950 . S
H1076 C1082 0.949 . S
C1077 H1072 0.950 . S
C1077 C1079 1.327 . S
C1077 C1083 1.429 . S
C1078 C1070 1.574 . S
C1078 H1073 0.949 . S
C1078 C1084 1.368 . S
C1079 C1063 1.349 . S
C1079 H1071 0.950 . S
C1079 C1077 1.327 . S
C1080 C1068 1.349 . S
C1080 H1074 0.950 . S
C1080 C1081 1.327 . S
C1081 H1075 0.950 . S
C1081 C1080 1.327 . S
C1081 C1085 1.429 . S
C1082 C1065 1.574 . S
C1082 H1076 0.949 . S
C1082 C1086 1.368 . S
C1083 C1064 1.429 . S
C1083 C1077 1.429 . S
C1083 C1084 1.523 . S
C1084 C1065 1.368 . S
C1084 C1078 1.368 . S
C1084 C1083 1.523 . S
C1085 C1069 1.429 . S
C1085 C1081 1.429 . S
C1085 C1086 1.523 . S
C1086 C1070 1.368 . S
C1086 C1082 1.368 . S
C1086 C1085 1.523 . S
H1087 C1062 0.950 . S
H1088 C1064 0.950 . S
H1089 C1065 0.949 . S
H1090 C1067 0.950 . S
H1091 C1069 0.950 . S
C1092 C1093 1.349 . S
C1092 C1094 1.327 . S
C1092 H1117 0.950 . S
C1093 C1092 1.349 . S
C1093 C1109 1.349 . S
C1094 C1092 1.327 . S
C1094 C1113 1.429 . S
C1094 H1118 0.950 . S
C1095 C1112 1.574 1_456 S
C1095 C1114 1.368 . S
C1095 H1119 0.949 . S
H1096 C1100 0.949 . S
C1097 C1098 1.349 . S
C1097 C1099 1.327 . S
C1097 H1120 0.950 . S
C1098 C1097 1.349 . S
C1098 C1110 1.349 . S
C1099 C1097 1.327 . S
C1099 C1115 1.429 . S
C1099 H1121 0.950 . S
C1100 H1096 0.949 . S
C1100 C1108 1.574 1_654 S
C1100 C1116 1.368 . S
H1101 C1109 0.950 . S
H1102 C1107 0.950 . S
H1103 C1108 0.949 . S
H1104 C1110 0.950 . S
H1105 C1111 0.950 . S
H1106 C1112 0.949 . S
C1107 H1102 0.950 . S
C1107 C1109 1.327 . S
C1107 C1113 1.429 . S
C1108 C1100 1.574 1_456 S
C1108 H1103 0.949 . S
C1108 C1114 1.368 . S
C1109 C1093 1.349 . S
C1109 H1101 0.950 . S
C1109 C1107 1.327 . S
C1110 C1098 1.349 . S
C1110 H1104 0.950 . S
C1110 C1111 1.327 . S
C1111 H1105 0.950 . S
C1111 C1110 1.327 . S
C1111 C1115 1.429 . S
C1112 C1095 1.574 1_654 S
C1112 H1106 0.949 . S
C1112 C1116 1.368 . S
C1113 C1094 1.429 . S
C1113 C1107 1.429 . S
C1113 C1114 1.523 . S
C1114 C1095 1.368 . S
C1114 C1108 1.368 . S
C1114 C1113 1.523 . S
C1115 C1099 1.429 . S
C1115 C1111 1.429 . S
C1115 C1116 1.523 . S
C1116 C1100 1.368 . S
C1116 C1112 1.368 . S
C1116 C1115 1.523 . S
H1117 C1092 0.950 . S
H1118 C1094 0.950 . S
H1119 C1095 0.949 . S
H1120 C1097 0.950 . S
H1121 C1099 0.950 . S
C1122 C1123 1.349 . S
C1122 C1124 1.327 . S
C1122 H1147 0.950 . S
C1123 C1122 1.349 . S
C1123 C1139 1.349 . S
C1124 C1122 1.327 . S
C1124 C1143 1.429 . S
C1124 H1148 0.950 . S
C1125 C1142 1.574 . S
C1125 C1144 1.368 1_565 S
C1125 H1149 0.949 . S
H1126 C1130 0.949 . S
C1127 C1128 1.349 . S
C1127 C1129 1.327 . S
C1127 H1150 0.950 . S
C1128 C1127 1.349 . S
C1128 C1140 1.349 . S
C1129 C1127 1.327 . S
C1129 C1145 1.429 . S
C1129 H1151 0.950 . S
C1130 H1126 0.949 . S
C1130 C1138 1.574 . S
C1130 C1146 1.368 1_545 S
H1131 C1139 0.950 . S
H1132 C1137 0.950 . S
H1133 C1138 0.949 . S
H1134 C1140 0.950 . S
H1135 C1141 0.950 . S
H1136 C1142 0.949 . S
C1137 H1132 0.950 . S
C1137 C1139 1.327 . S
C1137 C1143 1.429 . S
C1138 C1130 1.574 . S
C1138 H1133 0.949 . S
C1138 C1144 1.368 . S
C1139 C1123 1.349 . S
C1139 H1131 0.950 . S
C1139 C1137 1.327 . S
C1140 C1128 1.349 . S
C1140 H1134 0.950 . S
C1140 C1141 1.327 . S
C1141 H1135 0.950 . S
C1141 C1140 1.327 . S
C1141 C1145 1.429 . S
C1142 C1125 1.574 . S
C1142 H1136 0.949 . S
C1142 C1146 1.368 . S
C1143 C1124 1.429 . S
C1143 C1137 1.429 . S
C1143 C1144 1.523 . S
C1144 C1125 1.368 1_545 S
C1144 C1138 1.368 . S
C1144 C1143 1.523 . S
C1145 C1129 1.429 . S
C1145 C1141 1.429 . S
C1145 C1146 1.523 . S
C1146 C1130 1.368 1_565 S
C1146 C1142 1.368 . S
C1146 C1145 1.523 . S
H1147 C1122 0.950 . S
H1148 C1124 0.950 . S
H1149 C1125 0.949 . S
H1150 C1127 0.950 . S
H1151 C1129 0.950 . S
C1152 C1153 1.349 . S
C1152 C1154 1.327 . S
C1152 H1177 0.950 . S
C1153 C1152 1.349 . S
C1153 C1169 1.349 . S
C1154 C1152 1.327 . S
C1154 C1173 1.429 . S
C1154 H1178 0.950 . S
C1155 C1172 1.574 1_554 S
C1155 C1174 1.368 . S
C1155 H1179 0.949 . S
H1156 C1160 0.949 . S
C1157 C1158 1.349 . S
C1157 C1159 1.327 . S
C1157 H1180 0.950 . S
C1158 C1157 1.349 . S
C1158 C1170 1.349 . S
C1159 C1157 1.327 . S
C1159 C1175 1.429 . S
C1159 H1181 0.950 . S
C1160 H1156 0.949 . S
C1160 C1168 1.574 1_556 S
C1160 C1176 1.368 . S
H1161 C1169 0.950 . S
H1162 C1167 0.950 . S
H1163 C1168 0.949 . S
H1164 C1170 0.950 . S
H1165 C1171 0.950 . S
H1166 C1172 0.949 . S
C1167 H1162 0.950 . S
C1167 C1169 1.327 . S
C1167 C1173 1.429 . S
C1168 C1160 1.574 1_554 S
C1168 H1163 0.949 . S
C1168 C1174 1.368 . S
C1169 C1153 1.349 . S
C1169 H1161 0.950 . S
C1169 C1167 1.327 . S
C1170 C1158 1.349 . S
C1170 H1164 0.950 . S
C1170 C1171 1.327 . S
C1171 H1165 0.950 . S
C1171 C1170 1.327 . S
C1171 C1175 1.429 . S
C1172 C1155 1.574 1_556 S
C1172 H1166 0.949 . S
C1172 C1176 1.368 . S
C1173 C1154 1.429 . S
C1173 C1167 1.429 . S
C1173 C1174 1.523 . S
C1174 C1155 1.368 . S
C1174 C1168 1.368 . S
C1174 C1173 1.523 . S
C1175 C1159 1.429 . S
C1175 C1171 1.429 . S
C1175 C1176 1.523 . S
C1176 C1160 1.368 . S
C1176 C1172 1.368 . S
C1176 C1175 1.523 . S
H1177 C1152 0.950 . S
H1178 C1154 0.950 . S
H1179 C1155 0.949 . S
H1180 C1157 0.950 . S
H1181 C1159 0.950 . S
C1182 C1183 1.349 . S
C1182 C1184 1.327 . S
C1182 H1207 0.950 . S
C1183 C1182 1.349 . S
C1183 C1199 1.349 . S
C1184 C1182 1.327 . S
C1184 C1203 1.429 . S
C1184 H1208 0.950 . S
C1185 C1202 1.614 . S
C1185 C1204 1.368 . S
C1185 H1209 0.949 . S
H1186 C1190 0.949 . S
C1187 C1188 1.349 . S
C1187 C1189 1.327 . S
C1187 H1210 0.950 . S
C1188 C1187 1.349 . S
C1188 C1200 1.349 . S
C1189 C1187 1.327 . S
C1189 C1205 1.429 . S
C1189 H1211 0.950 . S
C1190 H1186 0.949 . S
C1190 C1198 1.615 . S
C1190 C1206 1.368 . S
H1191 C1199 0.950 . S
H1192 C1197 0.950 . S
H1193 C1198 0.933 . S
H1194 C1200 0.950 . S
H1195 C1201 0.950 . S
H1196 C1202 0.933 . S
C1197 H1192 0.950 . S
C1197 C1199 1.327 . S
C1197 C1203 1.429 . S
C1198 C1190 1.615 . S
C1198 H1193 0.933 . S
C1198 C1204 1.350 1_655 S
C1199 C1183 1.349 . S
C1199 H1191 0.950 . S
C1199 C1197 1.327 . S
C1200 C1188 1.349 . S
C1200 H1194 0.950 . S
C1200 C1201 1.327 . S
C1201 H1195 0.950 . S
C1201 C1200 1.327 . S
C1201 C1205 1.429 . S
C1202 C1185 1.614 . S
C1202 H1196 0.933 . S
C1202 C1206 1.351 1_455 S
C1203 C1184 1.429 . S
C1203 C1197 1.429 . S
C1203 C1204 1.523 . S
C1204 C1185 1.368 . S
C1204 C1198 1.350 1_455 S
C1204 C1203 1.523 . S
C1205 C1189 1.429 . S
C1205 C1201 1.429 . S
C1205 C1206 1.523 . S
C1206 C1190 1.368 . S
C1206 C1202 1.351 1_655 S
C1206 C1205 1.523 . S
H1207 C1182 0.950 . S
H1208 C1184 0.950 . S
H1209 C1185 0.949 . S
H1210 C1187 0.950 . S
H1211 C1189 0.950 . S
C1212 C1213 1.349 . S
C1212 C1214 1.327 . S
C1212 H1237 0.950 . S
C1213 C1212 1.349 . S
C1213 C1229 1.349 . S
C1214 C1212 1.327 . S
C1214 C1233 1.429 . S
C1214 H1238 0.950 . S
C1215 C1232 1.574 . S
C1215 C1234 1.368 1_545 S
C1215 H1239 0.949 . S
H1216 C1220 0.949 . S
C1217 C1218 1.349 . S
C1217 C1219 1.327 . S
C1217 H1240 0.950 . S
C1218 C1217 1.349 . S
C1218 C1230 1.349 . S
C1219 C1217 1.327 . S
C1219 C1235 1.429 . S
C1219 H1241 0.950 . S
C1220 H1216 0.949 . S
C1220 C1228 1.574 . S
C1220 C1236 1.368 1_565 S
H1221 C1229 0.950 . S
H1222 C1227 0.950 . S
H1223 C1228 0.949 . S
H1224 C1230 0.950 . S
H1225 C1231 0.950 . S
H1226 C1232 0.949 . S
C1227 H1222 0.950 . S
C1227 C1229 1.327 . S
C1227 C1233 1.429 . S
C1228 C1220 1.574 . S
C1228 H1223 0.949 . S
C1228 C1234 1.368 1_554 S
C1229 C1213 1.349 . S
C1229 H1221 0.950 . S
C1229 C1227 1.327 . S
C1230 C1218 1.349 . S
C1230 H1224 0.950 . S
C1230 C1231 1.327 . S
C1231 H1225 0.950 . S
C1231 C1230 1.327 . S
C1231 C1235 1.429 . S
C1232 C1215 1.574 . S
C1232 H1226 0.949 . S
C1232 C1236 1.368 1_556 S
C1233 C1214 1.429 . S
C1233 C1227 1.429 . S
C1233 C1234 1.523 . S
C1234 C1215 1.368 1_565 S
C1234 C1228 1.368 1_556 S
C1234 C1233 1.523 . S
C1235 C1219 1.429 . S
C1235 C1231 1.429 . S
C1235 C1236 1.523 . S
C1236 C1220 1.368 1_545 S
C1236 C1232 1.368 1_554 S
C1236 C1235 1.523 . S
H1237 C1212 0.950 . S
H1238 C1214 0.950 . S
H1239 C1215 0.949 . S
H1240 C1217 0.950 . S
H1241 C1219 0.950 . S
C1242 C1243 1.349 . S
C1242 C1244 1.327 . S
C1242 H1267 0.950 . S
C1243 C1242 1.349 . S
C1243 C1259 1.349 . S
C1244 C1242 1.327 . S
C1244 C1263 1.429 . S
C1244 H1268 0.950 . S
C1245 C1262 1.574 . S
C1245 C1264 1.368 . S
C1245 H1269 0.949 . S
H1246 C1250 0.949 . S
C1247 C1248 1.349 . S
C1247 C1249 1.327 . S
C1247 H1270 0.950 . S
C1248 C1247 1.349 . S
C1248 C1260 1.349 . S
C1249 C1247 1.327 . S
C1249 C1265 1.429 . S
C1249 H1271 0.950 . S
C1250 H1246 0.949 . S
C1250 C1258 1.574 . S
C1250 C1266 1.368 . S
H1251 C1259 0.950 . S
H1252 C1257 0.950 . S
H1253 C1258 0.949 . S
H1254 C1260 0.950 . S
H1255 C1261 0.950 . S
H1256 C1262 0.949 . S
C1257 H1252 0.950 . S
C1257 C1259 1.327 . S
C1257 C1263 1.429 . S
C1258 C1250 1.574 . S
C1258 H1253 0.949 . S
C1258 C1264 1.368 . S
C1259 C1243 1.349 . S
C1259 H1251 0.950 . S
C1259 C1257 1.327 . S
C1260 C1248 1.349 . S
C1260 H1254 0.950 . S
C1260 C1261 1.327 . S
C1261 H1255 0.950 . S
C1261 C1260 1.327 . S
C1261 C1265 1.429 . S
C1262 C1245 1.574 . S
C1262 H1256 0.949 . S
C1262 C1266 1.368 . S
C1263 C1244 1.429 . S
C1263 C1257 1.429 . S
C1263 C1264 1.523 . S
C1264 C1245 1.368 . S
C1264 C1258 1.368 . S
C1264 C1263 1.523 . S
C1265 C1249 1.429 . S
C1265 C1261 1.429 . S
C1265 C1266 1.523 . S
C1266 C1250 1.368 . S
C1266 C1262 1.368 . S
C1266 C1265 1.523 . S
H1267 C1242 0.950 . S
H1268 C1244 0.950 . S
H1269 C1245 0.949 . S
H1270 C1247 0.950 . S
H1271 C1249 0.950 . S
C1272 C1273 1.349 . S
C1272 C1274 1.327 . S
C1272 H1297 0.950 . S
C1273 C1272 1.349 . S
C1273 C1289 1.349 . S
C1274 C1272 1.327 . S
C1274 C1293 1.429 . S
C1274 H1298 0.950 . S
C1275 C1292 1.574 1_654 S
C1275 C1294 1.368 . S
C1275 H1299 0.949 . S
H1276 C1280 0.949 . S
C1277 C1278 1.349 . S
C1277 C1279 1.327 . S
C1277 H1300 0.950 . S
C1278 C1277 1.349 . S
C1278 C1290 1.349 . S
C1279 C1277 1.327 . S
C1279 C1295 1.429 . S
C1279 H1301 0.950 . S
C1280 H1276 0.949 . S
C1280 C1288 1.574 1_456 S
C1280 C1296 1.368 . S
H1281 C1289 0.950 . S
H1282 C1287 0.950 . S
H1283 C1288 0.949 . S
H1284 C1290 0.950 . S
H1285 C1291 0.950 . S
H1286 C1292 0.949 . S
C1287 H1282 0.950 . S
C1287 C1289 1.327 . S
C1287 C1293 1.429 . S
C1288 C1280 1.574 1_654 S
C1288 H1283 0.949 . S
C1288 C1294 1.368 . S
C1289 C1273 1.349 . S
C1289 H1281 0.950 . S
C1289 C1287 1.327 . S
C1290 C1278 1.349 . S
C1290 H1284 0.950 . S
C1290 C1291 1.327 . S
C1291 H1285 0.950 . S
C1291 C1290 1.327 . S
C1291 C1295 1.429 . S
C1292 C1275 1.574 1_456 S
C1292 H1286 0.949 . S
C1292 C1296 1.368 . S
C1293 C1274 1.429 . S
C1293 C1287 1.429 . S
C1293 C1294 1.523 . S
C1294 C1275 1.368 . S
C1294 C1288 1.368 . S
C1294 C1293 1.523 . S
C1295 C1279 1.429 . S
C1295 C1291 1.429 . S
C1295 C1296 1.523 . S
C1296 C1280 1.368 . S
C1296 C1292 1.368 . S
C1296 C1295 1.523 . S
H1297 C1272 0.950 . S
H1298 C1274 0.950 . S
H1299 C1275 0.949 . S
H1300 C1277 0.950 . S
H1301 C1279 0.950 . S
C1302 C1303 1.349 . S
C1302 C1304 1.327 . S
C1302 H1327 0.950 . S
C1303 C1302 1.349 . S
C1303 C1319 1.349 . S
C1304 C1302 1.327 . S
C1304 C1323 1.429 . S
C1304 H1328 0.950 . S
C1305 C1322 1.615 . S
C1305 C1324 1.350 1_545 S
C1305 H1329 0.932 . S
H1306 C1310 0.933 . S
C1307 C1308 1.349 . S
C1307 C1309 1.327 . S
C1307 H1330 0.950 . S
C1308 C1307 1.349 . S
C1308 C1320 1.349 . S
C1309 C1307 1.327 . S
C1309 C1325 1.429 . S
C1309 H1331 0.950 . S
C1310 H1306 0.933 . S
C1310 C1318 1.614 . S
C1310 C1326 1.350 1_565 S
H1311 C1319 0.950 . S
H1312 C1317 0.950 . S
H1313 C1318 0.949 . S
H1314 C1320 0.950 . S
H1315 C1321 0.950 . S
H1316 C1322 0.949 . S
C1317 H1312 0.950 . S
C1317 C1319 1.327 . S
C1317 C1323 1.429 . S
C1318 C1310 1.614 . S
C1318 H1313 0.949 . S
C1318 C1324 1.368 . S
C1319 C1303 1.349 . S
C1319 H1311 0.950 . S
C1319 C1317 1.327 . S
C1320 C1308 1.349 . S
C1320 H1314 0.950 . S
C1320 C1321 1.327 . S
C1321 H1315 0.950 . S
C1321 C1320 1.327 . S
C1321 C1325 1.429 . S
C1322 C1305 1.615 . S
C1322 H1316 0.949 . S
C1322 C1326 1.368 . S
C1323 C1304 1.429 . S
C1323 C1317 1.429 . S
C1323 C1324 1.523 . S
C1324 C1305 1.350 1_565 S
C1324 C1318 1.368 . S
C1324 C1323 1.523 . S
C1325 C1309 1.429 . S
C1325 C1321 1.429 . S
C1325 C1326 1.523 . S
C1326 C1310 1.350 1_545 S
C1326 C1322 1.368 . S
C1326 C1325 1.523 . S
H1327 C1302 0.950 . S
H1328 C1304 0.950 . S
H1329 C1305 0.932 . S
H1330 C1307 0.950 . S
H1331 C1309 0.950 . S
C1332 C1333 1.349 . S
C1332 C1334 1.327 . S
C1332 H1357 0.950 . S
C1333 C1332 1.349 . S
C1333 C1349 1.349 . S
C1334 C1332 1.327 . S
C1334 C1353 1.429 . S
C1334 H1358 0.950 . S
C1335 C1352 1.574 1_554 S
C1335 C1354 1.368 . S
C1335 H1359 0.949 . S
H1336 C1340 0.949 . S
C1337 C1338 1.349 . S
C1337 C1339 1.327 . S
C1337 H1360 0.950 . S
C1338 C1337 1.349 . S
C1338 C1350 1.349 . S
C1339 C1337 1.327 . S
C1339 C1355 1.429 . S
C1339 H1361 0.950 . S
C1340 H1336 0.949 . S
C1340 C1348 1.574 1_556 S
C1340 C1356 1.368 . S
H1341 C1349 0.950 . S
H1342 C1347 0.950 . S
H1343 C1348 0.949 . S
H1344 C1350 0.950 . S
H1345 C1351 0.950 . S
H1346 C1352 0.949 . S
C1347 H1342 0.950 . S
C1347 C1349 1.327 . S
C1347 C1353 1.429 . S
C1348 C1340 1.574 1_554 S
C1348 H1343 0.949 . S
C1348 C1354 1.368 . S
C1349 C1333 1.349 . S
C1349 H1341 0.950 . S
C1349 C1347 1.327 . S
C1350 C1338 1.349 . S
C1350 H1344 0.950 . S
C1350 C1351 1.327 . S
C1351 H1345 0.950 . S
C1351 C1350 1.327 . S
C1351 C1355 1.429 . S
C1352 C1335 1.574 1_556 S
C1352 H1346 0.949 . S
C1352 C1356 1.368 . S
C1353 C1334 1.429 . S
C1353 C1347 1.429 . S
C1353 C1354 1.523 . S
C1354 C1335 1.368 . S
C1354 C1348 1.368 . S
C1354 C1353 1.523 . S
C1355 C1339 1.429 . S
C1355 C1351 1.429 . S
C1355 C1356 1.523 . S
C1356 C1340 1.368 . S
C1356 C1352 1.368 . S
C1356 C1355 1.523 . S
H1357 C1332 0.950 . S
H1358 C1334 0.950 . S
H1359 C1335 0.949 . S
H1360 C1337 0.950 . S
H1361 C1339 0.950 . S
C1362 C1363 1.349 . S
C1362 C1364 1.327 . S
C1362 H1387 0.950 . S
C1363 C1362 1.349 . S
C1363 C1379 1.349 . S
C1364 C1362 1.327 . S
C1364 C1383 1.429 . S
C1364 H1388 0.950 . S
C1365 C1382 1.574 . S
C1365 C1384 1.368 1_655 S
C1365 H1389 0.949 . S
H1366 C1370 0.949 . S
C1367 C1368 1.349 . S
C1367 C1369 1.327 . S
C1367 H1390 0.950 . S
C1368 C1367 1.349 . S
C1368 C1380 1.349 . S
C1369 C1367 1.327 . S
C1369 C1385 1.429 . S
C1369 H1391 0.950 . S
C1370 H1366 0.949 . S
C1370 C1378 1.574 . S
C1370 C1386 1.368 1_455 S
H1371 C1379 0.950 . S
H1372 C1377 0.950 . S
H1373 C1378 0.949 . S
H1374 C1380 0.950 . S
H1375 C1381 0.950 . S
H1376 C1382 0.949 . S
C1377 H1372 0.950 . S
C1377 C1379 1.327 . S
C1377 C1383 1.429 . S
C1378 C1370 1.574 . S
C1378 H1373 0.949 . S
C1378 C1384 1.368 . S
C1379 C1363 1.349 . S
C1379 H1371 0.950 . S
C1379 C1377 1.327 . S
C1380 C1368 1.349 . S
C1380 H1374 0.950 . S
C1380 C1381 1.327 . S
C1381 H1375 0.950 . S
C1381 C1380 1.327 . S
C1381 C1385 1.429 . S
C1382 C1365 1.574 . S
C1382 H1376 0.949 . S
C1382 C1386 1.368 . S
C1383 C1364 1.429 . S
C1383 C1377 1.429 . S
C1383 C1384 1.523 . S
C1384 C1365 1.368 1_455 S
C1384 C1378 1.368 . S
C1384 C1383 1.523 . S
C1385 C1369 1.429 . S
C1385 C1381 1.429 . S
C1385 C1386 1.523 . S
C1386 C1370 1.368 1_655 S
C1386 C1382 1.368 . S
C1386 C1385 1.523 . S
H1387 C1362 0.950 . S
H1388 C1364 0.950 . S
H1389 C1365 0.949 . S
H1390 C1367 0.950 . S
H1391 C1369 0.950 . S
C1392 C1393 1.349 . S
C1392 C1394 1.327 . S
C1392 H1417 0.950 . S
C1393 C1392 1.349 . S
C1393 C1409 1.349 . S
C1394 C1392 1.327 . S
C1394 C1413 1.429 . S
C1394 H1418 0.950 . S
C1395 C1412 1.574 . S
C1395 C1414 1.368 . S
C1395 H1419 0.949 . S
H1396 C1400 0.949 . S
C1397 C1398 1.349 . S
C1397 C1399 1.327 . S
C1397 H1420 0.950 . S
C1398 C1397 1.349 . S
C1398 C1410 1.349 . S
C1399 C1397 1.327 . S
C1399 C1415 1.429 . S
C1399 H1421 0.950 . S
C1400 H1396 0.949 . S
C1400 C1408 1.574 . S
C1400 C1416 1.368 . S
H1401 C1409 0.950 . S
H1402 C1407 0.950 . S
H1403 C1408 0.949 . S
H1404 C1410 0.950 . S
H1405 C1411 0.950 . S
H1406 C1412 0.949 . S
C1407 H1402 0.950 . S
C1407 C1409 1.327 . S
C1407 C1413 1.429 . S
C1408 C1400 1.574 . S
C1408 H1403 0.949 . S
C1408 C1414 1.368 . S
C1409 C1393 1.349 . S
C1409 H1401 0.950 . S
C1409 C1407 1.327 . S
C1410 C1398 1.349 . S
C1410 H1404 0.950 . S
C1410 C1411 1.327 . S
C1411 H1405 0.950 . S
C1411 C1410 1.327 . S
C1411 C1415 1.429 . S
C1412 C1395 1.574 . S
C1412 H1406 0.949 . S
C1412 C1416 1.368 . S
C1413 C1394 1.429 . S
C1413 C1407 1.429 . S
C1413 C1414 1.523 . S
C1414 C1395 1.368 . S
C1414 C1408 1.368 . S
C1414 C1413 1.523 . S
C1415 C1399 1.429 . S
C1415 C1411 1.429 . S
C1415 C1416 1.523 . S
C1416 C1400 1.368 . S
C1416 C1412 1.368 . S
C1416 C1415 1.523 . S
H1417 C1392 0.950 . S
H1418 C1394 0.950 . S
H1419 C1395 0.949 . S
H1420 C1397 0.950 . S
H1421 C1399 0.950 . S
C1422 C1423 1.349 . S
C1422 C1424 1.327 . S
C1422 H1447 0.950 . S
C1423 C1422 1.349 . S
C1423 C1439 1.349 . S
C1424 C1422 1.327 . S
C1424 C1443 1.429 . S
C1424 H1448 0.950 . S
C1425 C1442 1.574 . S
C1425 C1444 1.368 . S
C1425 H1449 0.949 . S
H1426 C1430 0.949 . S
C1427 C1428 1.349 . S
C1427 C1429 1.327 . S
C1427 H1450 0.950 . S
C1428 C1427 1.349 . S
C1428 C1440 1.349 . S
C1429 C1427 1.327 . S
C1429 C1445 1.429 . S
C1429 H1451 0.950 . S
C1430 H1426 0.949 . S
C1430 C1438 1.574 . S
C1430 C1446 1.368 . S
H1431 C1439 0.950 . S
H1432 C1437 0.950 . S
H1433 C1438 0.949 . S
H1434 C1440 0.950 . S
H1435 C1441 0.950 . S
H1436 C1442 0.949 . S
C1437 H1432 0.950 . S
C1437 C1439 1.327 . S
C1437 C1443 1.429 . S
C1438 C1430 1.574 . S
C1438 H1433 0.949 . S
C1438 C1444 1.368 . S
C1439 C1423 1.349 . S
C1439 H1431 0.950 . S
C1439 C1437 1.327 . S
C1440 C1428 1.349 . S
C1440 H1434 0.950 . S
C1440 C1441 1.327 . S
C1441 H1435 0.950 . S
C1441 C1440 1.327 . S
C1441 C1445 1.429 . S
C1442 C1425 1.574 . S
C1442 H1436 0.949 . S
C1442 C1446 1.368 . S
C1443 C1424 1.429 . S
C1443 C1437 1.429 . S
C1443 C1444 1.523 . S
C1444 C1425 1.368 . S
C1444 C1438 1.368 . S
C1444 C1443 1.523 . S
C1445 C1429 1.429 . S
C1445 C1441 1.429 . S
C1445 C1446 1.523 . S
C1446 C1430 1.368 . S
C1446 C1442 1.368 . S
C1446 C1445 1.523 . S
H1447 C1422 0.950 . S
H1448 C1424 0.950 . S
H1449 C1425 0.949 . S
H1450 C1427 0.950 . S
H1451 C1429 0.950 . S
C1452 C1453 1.349 . S
C1452 C1454 1.327 . S
C1452 H1477 0.950 . S
C1453 C1452 1.349 . S
C1453 C1469 1.349 . S
C1454 C1452 1.327 . S
C1454 C1473 1.429 . S
C1454 H1478 0.950 . S
C1455 C1472 1.574 . S
C1455 C1474 1.368 . S
C1455 H1479 0.949 . S
H1456 C1460 0.949 . S
C1457 C1458 1.349 . S
C1457 C1459 1.327 . S
C1457 H1480 0.950 . S
C1458 C1457 1.349 . S
C1458 C1470 1.349 . S
C1459 C1457 1.327 . S
C1459 C1475 1.429 . S
C1459 H1481 0.950 . S
C1460 H1456 0.949 . S
C1460 C1468 1.574 . S
C1460 C1476 1.368 . S
H1461 C1469 0.950 . S
H1462 C1467 0.950 . S
H1463 C1468 0.949 . S
H1464 C1470 0.950 . S
H1465 C1471 0.950 . S
H1466 C1472 0.949 . S
C1467 H1462 0.950 . S
C1467 C1469 1.327 . S
C1467 C1473 1.429 . S
C1468 C1460 1.574 . S
C1468 H1463 0.949 . S
C1468 C1474 1.368 . S
C1469 C1453 1.349 . S
C1469 H1461 0.950 . S
C1469 C1467 1.327 . S
C1470 C1458 1.349 . S
C1470 H1464 0.950 . S
C1470 C1471 1.327 . S
C1471 H1465 0.950 . S
C1471 C1470 1.327 . S
C1471 C1475 1.429 . S
C1472 C1455 1.574 . S
C1472 H1466 0.949 . S
C1472 C1476 1.368 . S
C1473 C1454 1.429 . S
C1473 C1467 1.429 . S
C1473 C1474 1.523 . S
C1474 C1455 1.368 . S
C1474 C1468 1.368 . S
C1474 C1473 1.523 . S
C1475 C1459 1.429 . S
C1475 C1471 1.429 . S
C1475 C1476 1.523 . S
C1476 C1460 1.368 . S
C1476 C1472 1.368 . S
C1476 C1475 1.523 . S
H1477 C1452 0.950 . S
H1478 C1454 0.950 . S
H1479 C1455 0.949 . S
H1480 C1457 0.950 . S
H1481 C1459 0.950 . S
C1482 C1483 1.349 . S
C1482 C1484 1.327 . S
C1482 H1507 0.950 . S
C1483 C1482 1.349 . S
C1483 C1499 1.349 . S
C1484 C1482 1.327 . S
C1484 C1503 1.429 . S
C1484 H1508 0.950 . S
C1485 C1502 1.574 . S
C1485 C1504 1.368 . S
C1485 H1509 0.949 . S
H1486 C1490 0.949 . S
C1487 C1488 1.349 . S
C1487 C1489 1.327 . S
C1487 H1510 0.950 . S
C1488 C1487 1.349 . S
C1488 C1500 1.349 . S
C1489 C1487 1.327 . S
C1489 C1505 1.429 . S
C1489 H1511 0.950 . S
C1490 H1486 0.949 . S
C1490 C1498 1.574 . S
C1490 C1506 1.368 . S
H1491 C1499 0.950 . S
H1492 C1497 0.950 . S
H1493 C1498 0.949 . S
H1494 C1500 0.950 . S
H1495 C1501 0.950 . S
H1496 C1502 0.949 . S
C1497 H1492 0.950 . S
C1497 C1499 1.327 . S
C1497 C1503 1.429 . S
C1498 C1490 1.574 . S
C1498 H1493 0.949 . S
C1498 C1504 1.368 . S
C1499 C1483 1.349 . S
C1499 H1491 0.950 . S
C1499 C1497 1.327 . S
C1500 C1488 1.349 . S
C1500 H1494 0.950 . S
C1500 C1501 1.327 . S
C1501 H1495 0.950 . S
C1501 C1500 1.327 . S
C1501 C1505 1.429 . S
C1502 C1485 1.574 . S
C1502 H1496 0.949 . S
C1502 C1506 1.368 . S
C1503 C1484 1.429 . S
C1503 C1497 1.429 . S
C1503 C1504 1.523 . S
C1504 C1485 1.368 . S
C1504 C1498 1.368 . S
C1504 C1503 1.523 . S
C1505 C1489 1.429 . S
C1505 C1501 1.429 . S
C1505 C1506 1.523 . S
C1506 C1490 1.368 . S
C1506 C1502 1.368 . S
C1506 C1505 1.523 . S
H1507 C1482 0.950 . S
H1508 C1484 0.950 . S
H1509 C1485 0.949 . S
H1510 C1487 0.950 . S
H1511 C1489 0.950 . S
C1512 C1513 1.349 . S
C1512 C1514 1.327 . S
C1512 H1537 0.950 . S
C1513 C1512 1.349 . S
C1513 C1529 1.349 . S
C1514 C1512 1.327 . S
C1514 C1533 1.429 . S
C1514 H1538 0.950 . S
C1515 C1532 1.574 . S
C1515 C1534 1.368 . S
C1515 H1539 0.949 . S
H1516 C1520 0.949 . S
C1517 C1518 1.349 . S
C1517 C1519 1.327 . S
C1517 H1540 0.950 . S
C1518 C1517 1.349 . S
C1518 C1530 1.349 . S
C1519 C1517 1.327 . S
C1519 C1535 1.429 . S
C1519 H1541 0.950 . S
C1520 H1516 0.949 . S
C1520 C1528 1.574 . S
C1520 C1536 1.368 . S
H1521 C1529 0.950 . S
H1522 C1527 0.950 . S
H1523 C1528 0.949 . S
H1524 C1530 0.950 . S
H1525 C1531 0.950 . S
H1526 C1532 0.949 . S
C1527 H1522 0.950 . S
C1527 C1529 1.327 . S
C1527 C1533 1.429 . S
C1528 C1520 1.574 . S
C1528 H1523 0.949 . S
C1528 C1534 1.368 . S
C1529 C1513 1.349 . S
C1529 H1521 0.950 . S
C1529 C1527 1.327 . S
C1530 C1518 1.349 . S
C1530 H1524 0.950 . S
C1530 C1531 1.327 . S
C1531 H1525 0.950 . S
C1531 C1530 1.327 . S
C1531 C1535 1.429 . S
C1532 C1515 1.574 . S
C1532 H1526 0.949 . S
C1532 C1536 1.368 . S
C1533 C1514 1.429 . S
C1533 C1527 1.429 . S
C1533 C1534 1.523 . S
C1534 C1515 1.368 . S
C1534 C1528 1.368 . S
C1534 C1533 1.523 . S
C1535 C1519 1.429 . S
C1535 C1531 1.429 . S
C1535 C1536 1.523 . S
C1536 C1520 1.368 . S
C1536 C1532 1.368 . S
C1536 C1535 1.523 . S
H1537 C1512 0.950 . S
H1538 C1514 0.950 . S
H1539 C1515 0.949 . S
H1540 C1517 0.950 . S
H1541 C1519 0.950 . S
C1542 C1543 1.349 . S
C1542 C1544 1.327 . S
C1542 H1567 0.950 . S
C1543 C1542 1.349 . S
C1543 C1559 1.349 . S
C1544 C1542 1.327 . S
C1544 C1563 1.429 . S
C1544 H1568 0.950 . S
C1545 C1562 1.574 . S
C1545 C1564 1.368 . S
C1545 H1569 0.949 . S
H1546 C1550 0.949 . S
C1547 C1548 1.349 . S
C1547 C1549 1.327 . S
C1547 H1570 0.950 . S
C1548 C1547 1.349 . S
C1548 C1560 1.349 . S
C1549 C1547 1.327 . S
C1549 C1565 1.429 . S
C1549 H1571 0.950 . S
C1550 H1546 0.949 . S
C1550 C1558 1.574 . S
C1550 C1566 1.368 . S
H1551 C1559 0.950 . S
H1552 C1557 0.950 . S
H1553 C1558 0.949 . S
H1554 C1560 0.950 . S
H1555 C1561 0.950 . S
H1556 C1562 0.949 . S
C1557 H1552 0.950 . S
C1557 C1559 1.327 . S
C1557 C1563 1.429 . S
C1558 C1550 1.574 . S
C1558 H1553 0.949 . S
C1558 C1564 1.368 . S
C1559 C1543 1.349 . S
C1559 H1551 0.950 . S
C1559 C1557 1.327 . S
C1560 C1548 1.349 . S
C1560 H1554 0.950 . S
C1560 C1561 1.327 . S
C1561 H1555 0.950 . S
C1561 C1560 1.327 . S
C1561 C1565 1.429 . S
C1562 C1545 1.574 . S
C1562 H1556 0.949 . S
C1562 C1566 1.368 . S
C1563 C1544 1.429 . S
C1563 C1557 1.429 . S
C1563 C1564 1.523 . S
C1564 C1545 1.368 . S
C1564 C1558 1.368 . S
C1564 C1563 1.523 . S
C1565 C1549 1.429 . S
C1565 C1561 1.429 . S
C1565 C1566 1.523 . S
C1566 C1550 1.368 . S
C1566 C1562 1.368 . S
C1566 C1565 1.523 . S
H1567 C1542 0.950 . S
H1568 C1544 0.950 . S
H1569 C1545 0.949 . S
H1570 C1547 0.950 . S
H1571 C1549 0.950 . S
C1572 C1573 1.349 . S
C1572 C1574 1.327 . S
C1572 H1597 0.950 . S
C1573 C1572 1.349 . S
C1573 C1589 1.349 . S
C1574 C1572 1.327 . S
C1574 C1593 1.429 . S
C1574 H1598 0.950 . S
C1575 C1592 1.574 . S
C1575 C1594 1.368 . S
C1575 H1599 0.949 . S
H1576 C1580 0.949 . S
C1577 C1578 1.349 . S
C1577 C1579 1.327 . S
C1577 H1600 0.950 . S
C1578 C1577 1.349 . S
C1578 C1590 1.349 . S
C1579 C1577 1.327 . S
C1579 C1595 1.429 . S
C1579 H1601 0.950 . S
C1580 H1576 0.949 . S
C1580 C1588 1.574 . S
C1580 C1596 1.368 . S
H1581 C1589 0.950 . S
H1582 C1587 0.950 . S
H1583 C1588 0.949 . S
H1584 C1590 0.950 . S
H1585 C1591 0.950 . S
H1586 C1592 0.949 . S
C1587 H1582 0.950 . S
C1587 C1589 1.327 . S
C1587 C1593 1.429 . S
C1588 C1580 1.574 . S
C1588 H1583 0.949 . S
C1588 C1594 1.368 . S
C1589 C1573 1.349 . S
C1589 H1581 0.950 . S
C1589 C1587 1.327 . S
C1590 C1578 1.349 . S
C1590 H1584 0.950 . S
C1590 C1591 1.327 . S
C1591 H1585 0.950 . S
C1591 C1590 1.327 . S
C1591 C1595 1.429 . S
C1592 C1575 1.574 . S
C1592 H1586 0.949 . S
C1592 C1596 1.368 . S
C1593 C1574 1.429 . S
C1593 C1587 1.429 . S
C1593 C1594 1.523 . S
C1594 C1575 1.368 . S
C1594 C1588 1.368 . S
C1594 C1593 1.523 . S
C1595 C1579 1.429 . S
C1595 C1591 1.429 . S
C1595 C1596 1.523 . S
C1596 C1580 1.368 . S
C1596 C1592 1.368 . S
C1596 C1595 1.523 . S
H1597 C1572 0.950 . S
H1598 C1574 0.950 . S
H1599 C1575 0.949 . S
H1600 C1577 0.950 . S
H1601 C1579 0.950 . S
C1602 C1603 1.349 . S
C1602 C1604 1.327 . S
C1602 H1627 0.950 . S
C1603 C1602 1.349 . S
C1603 C1619 1.349 . S
C1604 C1602 1.327 . S
C1604 C1623 1.429 . S
C1604 H1628 0.950 . S
C1605 C1622 1.574 . S
C1605 C1624 1.368 . S
C1605 H1629 0.949 . S
H1606 C1610 0.949 . S
C1607 C1608 1.349 . S
C1607 C1609 1.327 . S
C1607 H1630 0.950 . S
C1608 C1607 1.349 . S
C1608 C1620 1.349 . S
C1609 C1607 1.327 . S
C1609 C1625 1.429 . S
C1609 H1631 0.950 . S
C1610 H1606 0.949 . S
C1610 C1618 1.574 . S
C1610 C1626 1.368 . S
H1611 C1619 0.950 . S
H1612 C1617 0.950 . S
H1613 C1618 0.949 . S
H1614 C1620 0.950 . S
H1615 C1621 0.950 . S
H1616 C1622 0.949 . S
C1617 H1612 0.950 . S
C1617 C1619 1.327 . S
C1617 C1623 1.429 . S
C1618 C1610 1.574 . S
C1618 H1613 0.949 . S
C1618 C1624 1.368 . S
C1619 C1603 1.349 . S
C1619 H1611 0.950 . S
C1619 C1617 1.327 . S
C1620 C1608 1.349 . S
C1620 H1614 0.950 . S
C1620 C1621 1.327 . S
C1621 H1615 0.950 . S
C1621 C1620 1.327 . S
C1621 C1625 1.429 . S
C1622 C1605 1.574 . S
C1622 H1616 0.949 . S
C1622 C1626 1.368 . S
C1623 C1604 1.429 . S
C1623 C1617 1.429 . S
C1623 C1624 1.523 . S
C1624 C1605 1.368 . S
C1624 C1618 1.368 . S
C1624 C1623 1.523 . S
C1625 C1609 1.429 . S
C1625 C1621 1.429 . S
C1625 C1626 1.523 . S
C1626 C1610 1.368 . S
C1626 C1622 1.368 . S
C1626 C1625 1.523 . S
H1627 C1602 0.950 . S
H1628 C1604 0.950 . S
H1629 C1605 0.949 . S
H1630 C1607 0.950 . S
H1631 C1609 0.950 . S
C1632 C1633 1.349 . S
C1632 C1634 1.327 . S
C1632 H1657 0.950 . S
C1633 C1632 1.349 . S
C1633 C1649 1.349 . S
C1634 C1632 1.327 . S
C1634 C1653 1.429 . S
C1634 H1658 0.950 . S
C1635 C1652 1.574 . S
C1635 C1654 1.368 . S
C1635 H1659 0.949 . S
H1636 C1640 0.949 . S
C1637 C1638 1.349 . S
C1637 C1639 1.327 . S
C1637 H1660 0.950 . S
C1638 C1637 1.349 . S
C1638 C1650 1.349 . S
C1639 C1637 1.327 . S
C1639 C1655 1.429 . S
C1639 H1661 0.950 . S
C1640 H1636 0.949 . S
C1640 C1648 1.574 . S
C1640 C1656 1.368 . S
H1641 C1649 0.950 . S
H1642 C1647 0.950 . S
H1643 C1648 0.949 . S
H1644 C1650 0.950 . S
H1645 C1651 0.950 . S
H1646 C1652 0.949 . S
C1647 H1642 0.950 . S
C1647 C1649 1.327 . S
C1647 C1653 1.429 . S
C1648 C1640 1.574 . S
C1648 H1643 0.949 . S
C1648 C1654 1.368 . S
C1649 C1633 1.349 . S
C1649 H1641 0.950 . S
C1649 C1647 1.327 . S
C1650 C1638 1.349 . S
C1650 H1644 0.950 . S
C1650 C1651 1.327 . S
C1651 H1645 0.950 . S
C1651 C1650 1.327 . S
C1651 C1655 1.429 . S
C1652 C1635 1.574 . S
C1652 H1646 0.949 . S
C1652 C1656 1.368 . S
C1653 C1634 1.429 . S
C1653 C1647 1.429 . S
C1653 C1654 1.523 . S
C1654 C1635 1.368 . S
C1654 C1648 1.368 . S
C1654 C1653 1.523 . S
C1655 C1639 1.429 . S
C1655 C1651 1.429 . S
C1655 C1656 1.523 . S
C1656 C1640 1.368 . S
C1656 C1652 1.368 . S
C1656 C1655 1.523 . S
H1657 C1632 0.950 . S
H1658 C1634 0.950 . S
H1659 C1635 0.949 . S
H1660 C1637 0.950 . S
H1661 C1639 0.950 . S
C1662 C1663 1.349 . S
C1662 C1664 1.327 . S
C1662 H1687 0.950 . S
C1663 C1662 1.349 . S
C1663 C1679 1.349 . S
C1664 C1662 1.327 . S
C1664 C1683 1.429 . S
C1664 H1688 0.950 . S
C1665 C1682 1.574 . S
C1665 C1684 1.368 . S
C1665 H1689 0.949 . S
H1666 C1670 0.949 . S
C1667 C1668 1.349 . S
C1667 C1669 1.327 . S
C1667 H1690 0.950 . S
C1668 C1667 1.349 . S
C1668 C1680 1.349 . S
C1669 C1667 1.327 . S
C1669 C1685 1.429 . S
C1669 H1691 0.950 . S
C1670 H1666 0.949 . S
C1670 C1678 1.574 . S
C1670 C1686 1.368 . S
H1671 C1679 0.950 . S
H1672 C1677 0.950 . S
H1673 C1678 0.949 . S
H1674 C1680 0.950 . S
H1675 C1681 0.950 . S
H1676 C1682 0.949 . S
C1677 H1672 0.950 . S
C1677 C1679 1.327 . S
C1677 C1683 1.429 . S
C1678 C1670 1.574 . S
C1678 H1673 0.949 . S
C1678 C1684 1.368 . S
C1679 C1663 1.349 . S
C1679 H1671 0.950 . S
C1679 C1677 1.327 . S
C1680 C1668 1.349 . S
C1680 H1674 0.950 . S
C1680 C1681 1.327 . S
C1681 H1675 0.950 . S
C1681 C1680 1.327 . S
C1681 C1685 1.429 . S
C1682 C1665 1.574 . S
C1682 H1676 0.949 . S
C1682 C1686 1.368 . S
C1683 C1664 1.429 . S
C1683 C1677 1.429 . S
C1683 C1684 1.523 . S
C1684 C1665 1.368 . S
C1684 C1678 1.368 . S
C1684 C1683 1.523 . S
C1685 C1669 1.429 . S
C1685 C1681 1.429 . S
C1685 C1686 1.523 . S
C1686 C1670 1.368 . S
C1686 C1682 1.368 . S
C1686 C1685 1.523 . S
H1687 C1662 0.950 . S
H1688 C1664 0.950 . S
H1689 C1665 0.949 . S
H1690 C1667 0.950 . S
H1691 C1669 0.950 . S
C1692 C1693 1.349 . S
C1692 C1694 1.327 . S
C1692 H1717 0.950 . S
C1693 C1692 1.349 . S
C1693 C1709 1.349 . S
C1694 C1692 1.327 . S
C1694 C1713 1.429 . S
C1694 H1718 0.950 . S
C1695 C1712 1.574 . S
C1695 C1714 1.368 . S
C1695 H1719 0.949 . S
H1696 C1700 0.949 . S
C1697 C1698 1.349 . S
C1697 C1699 1.327 . S
C1697 H1720 0.950 . S
C1698 C1697 1.349 . S
C1698 C1710 1.349 . S
C1699 C1697 1.327 . S
C1699 C1715 1.429 . S
C1699 H1721 0.950 . S
C1700 H1696 0.949 . S
C1700 C1708 1.574 . S
C1700 C1716 1.368 . S
H1701 C1709 0.950 . S
H1702 C1707 0.950 . S
H1703 C1708 0.949 . S
H1704 C1710 0.950 . S
H1705 C1711 0.950 . S
H1706 C1712 0.949 . S
C1707 H1702 0.950 . S
C1707 C1709 1.327 . S
C1707 C1713 1.429 . S
C1708 C1700 1.574 . S
C1708 H1703 0.949 . S
C1708 C1714 1.368 . S
C1709 C1693 1.349 . S
C1709 H1701 0.950 . S
C1709 C1707 1.327 . S
C1710 C1698 1.349 . S
C1710 H1704 0.950 . S
C1710 C1711 1.327 . S
C1711 H1705 0.950 . S
C1711 C1710 1.327 . S
C1711 C1715 1.429 . S
C1712 C1695 1.574 . S
C1712 H1706 0.949 . S
C1712 C1716 1.368 . S
C1713 C1694 1.429 . S
C1713 C1707 1.429 . S
C1713 C1714 1.523 . S
C1714 C1695 1.368 . S
C1714 C1708 1.368 . S
C1714 C1713 1.523 . S
C1715 C1699 1.429 . S
C1715 C1711 1.429 . S
C1715 C1716 1.523 . S
C1716 C1700 1.368 . S
C1716 C1712 1.368 . S
C1716 C1715 1.523 . S
H1717 C1692 0.950 . S
H1718 C1694 0.950 . S
H1719 C1695 0.949 . S
H1720 C1697 0.950 . S
H1721 C1699 0.950 . S
C1722 C1723 1.349 . S
C1722 C1724 1.327 . S
C1722 H1747 0.950 . S
C1723 C1722 1.349 . S
C1723 C1739 1.349 . S
C1724 C1722 1.327 . S
C1724 C1743 1.429 . S
C1724 H1748 0.950 . S
C1725 C1742 1.574 . S
C1725 C1744 1.368 . S
C1725 H1749 0.949 . S
H1726 C1730 0.949 . S
C1727 C1728 1.349 . S
C1727 C1729 1.327 . S
C1727 H1750 0.950 . S
C1728 C1727 1.349 . S
C1728 C1740 1.349 . S
C1729 C1727 1.327 . S
C1729 C1745 1.429 . S
C1729 H1751 0.950 . S
C1730 H1726 0.949 . S
C1730 C1738 1.574 . S
C1730 C1746 1.368 . S
H1731 C1739 0.950 . S
H1732 C1737 0.950 . S
H1733 C1738 0.949 . S
H1734 C1740 0.950 . S
H1735 C1741 0.950 . S
H1736 C1742 0.949 . S
C1737 H1732 0.950 . S
C1737 C1739 1.327 . S
C1737 C1743 1.429 . S
C1738 C1730 1.574 . S
C1738 H1733 0.949 . S
C1738 C1744 1.368 . S
C1739 C1723 1.349 . S
C1739 H1731 0.950 . S
C1739 C1737 1.327 . S
C1740 C1728 1.349 . S
C1740 H1734 0.950 . S
C1740 C1741 1.327 . S
C1741 H1735 0.950 . S
C1741 C1740 1.327 . S
C1741 C1745 1.429 . S
C1742 C1725 1.574 . S
C1742 H1736 0.949 . S
C1742 C1746 1.368 . S
C1743 C1724 1.429 . S
C1743 C1737 1.429 . S
C1743 C1744 1.523 . S
C1744 C1725 1.368 . S
C1744 C1738 1.368 . S
C1744 C1743 1.523 . S
C1745 C1729 1.429 . S
C1745 C1741 1.429 . S
C1745 C1746 1.523 . S
C1746 C1730 1.368 . S
C1746 C1742 1.368 . S
C1746 C1745 1.523 . S
H1747 C1722 0.950 . S
H1748 C1724 0.950 . S
H1749 C1725 0.949 . S
H1750 C1727 0.950 . S
H1751 C1729 0.950 . S
C313 C200 1.279 . S
C318 C5 1.279 . S
C343 C18 1.279 . S
C348 C213 1.279 . S
C373 C31 1.279 . S
C378 C226 1.279 . S
C403 C44 1.279 . S
C408 C161 1.279 . S
C433 C174 1.279 . S
C438 C57 1.279 . S
C463 C70 1.279 . S
C468 C187 1.279 . S
C493 C278 1.279 . S
C498 C83 1.279 . S
C523 C96 1.279 . S
C528 C291 1.279 . S
C553 C109 1.279 . S
C558 C304 1.279 . S
C583 C239 1.279 . S
C588 C122 1.279 . S
C613 C135 1.279 . S
C618 C252 1.279 . S
C643 C265 1.279 . S
C648 C148 1.279 . S
C673 C10 1.076 . S
C678 C309 1.076 . S
C703 C244 1.076 . S
C708 C23 1.076 . S
C733 C36 1.077 . S
C738 C257 1.077 . S
C763 C270 1.076 . S
C768 C49 1.076 . S
C793 C62 1.076 . S
C798 C283 1.076 . S
C823 C296 1.077 . S
C828 C75 1.077 . S
C853 C88 1.076 . S
C858 C179 1.076 . S
C883 C192 1.077 . S
C888 C101 1.077 . S
C913 C205 1.076 . S
C918 C114 1.076 . S
C943 C218 1.076 . S
C948 C127 1.076 . S
C973 C140 1.077 . S
C978 C231 1.077 . S
C1003 C153 1.076 . S
C1008 C166 1.076 . S
C1033 C91 1.024 . S
C1038 C0 1.024 . S
C1063 C104 1.024 . S
C1068 C13 1.024 . S
C1093 C117 1.024 . S
C1098 C26 1.024 . S
C1123 C130 1.024 . S
C1128 C39 1.024 . S
C1153 C52 1.024 . S
C1158 C143 1.024 . S
C1183 C65 1.024 . S
C1188 C78 1.024 . S
C1213 C156 1.024 . S
C1218 C247 1.024 . S
C1243 C169 1.024 . S
C1248 C260 1.024 . S
C1273 C273 1.024 . S
C1278 C182 1.024 . S
C1303 C286 1.024 . S
C1308 C195 1.024 . S
C1333 C299 1.024 . S
C1338 C208 1.024 . S
C1363 C234 1.024 . S
C1368 C221 1.024 . S
C1393 C8 1.376 . S
C1398 C255 1.376 . S
C1423 C268 1.376 . S
C1428 C21 1.376 . S
C1453 C34 1.376 . S
C1458 C281 1.376 . S
C1483 C294 1.376 . S
C1488 C47 1.376 . S
C1513 C60 1.376 . S
C1518 C307 1.376 . S
C1543 C242 1.376 . S
C1548 C73 1.376 . S
C1573 C86 1.376 . S
C1578 C229 1.376 . S
C1603 C164 1.376 . S
C1608 C99 1.376 . S
C1633 C112 1.376 . S
C1638 C177 1.376 . S
C1663 C125 1.376 . S
C1668 C190 1.376 . S
C1693 C138 1.376 . S
C1698 C203 1.376 . S
C1723 C151 1.376 . S
C1728 C216 1.376 . S
