# Generated by pormake.
# Topology mmt, (4)-cn, num edge types: 1
# Building blocks:
#     Node 0, Type 0, BuildingBlock: KUFVIS_clean_sbu_0, # of connection points: 4
#     Node 1, Type 0, BuildingBlock: KUFVIS_clean_sbu_0, # of connection points: 4
#     Node 2, Type 0, BuildingBlock: KUFVIS_clean_sbu_0, # of connection points: 4
#     Node 3, Type 0, BuildingBlock: KUFVIS_clean_sbu_0, # of connection points: 4
#     Node 4, Type 0, BuildingBlock: KUFVIS_clean_sbu_0, # of connection points: 4
#     Node 5, Type 0, BuildingBlock: KUFVIS_clean_sbu_0, # of connection points: 4
#     Node 6, Type 0, BuildingBlock: KUFVIS_clean_sbu_0, # of connection points: 4
#     Node 7, Type 0, BuildingBlock: KUFVIS_clean_sbu_0, # of connection points: 4
#     Edge 8, Type (0, 0), BuildingBlock: OJICUG_clean_linker_0, # of connection points: 2
#     Edge 9, Type (0, 0), BuildingBlock: OJICUG_clean_linker_0, # of connection points: 2
#     Edge 10, Type (0, 0), BuildingBlock: OJICUG_clean_linker_0, # of connection points: 2
#     Edge 11, Type (0, 0), BuildingBlock: OJICUG_clean_linker_0, # of connection points: 2
#     Edge 12, Type (0, 0), BuildingBlock: OJICUG_clean_linker_0, # of connection points: 2
#     Edge 13, Type (0, 0), BuildingBlock: OJICUG_clean_linker_0, # of connection points: 2
#     Edge 14, Type (0, 0), BuildingBlock: OJICUG_clean_linker_0, # of connection points: 2
#     Edge 15, Type (0, 0), BuildingBlock: OJICUG_clean_linker_0, # of connection points: 2
#     Edge 16, Type (0, 0), BuildingBlock: OJICUG_clean_linker_0, # of connection points: 2
#     Edge 17, Type (0, 0), BuildingBlock: OJICUG_clean_linker_0, # of connection points: 2
#     Edge 18, Type (0, 0), BuildingBlock: OJICUG_clean_linker_0, # of connection points: 2
#     Edge 19, Type (0, 0), BuildingBlock: OJICUG_clean_linker_0, # of connection points: 2
#     Edge 20, Type (0, 0), BuildingBlock: OJICUG_clean_linker_0, # of connection points: 2
#     Edge 21, Type (0, 0), BuildingBlock: OJICUG_clean_linker_0, # of connection points: 2
#     Edge 22, Type (0, 0), BuildingBlock: OJICUG_clean_linker_0, # of connection points: 2
#     Edge 23, Type (0, 0), BuildingBlock: OJICUG_clean_linker_0, # of connection points: 2
# Relax obj value: 0.033
# Max RMSD: 0.059
# Mean RMSD: 0.059
data_MOF--net-mmt--node1-KUFVIS_clean_sbu_0--edge1-OJICUG_clean_linker_0
_symmetry_space_group_name_H-M    P1
_symmetry_Int_Tables_number       1
_symmetry_cell_setting            triclinic
loop_
_symmetry_equiv_pos_as_xyz
'x, y, z'
_cell_length_a     16.140186
_cell_length_b     26.51025
_cell_length_c     32.187078
_cell_angle_alpha  89.962253
_cell_angle_beta   90.002921
_cell_angle_gamma 89.989817
loop_
_atom_site_label
_atom_site_type_symbol
_atom_site_fract_x
_atom_site_fract_y
_atom_site_fract_z
_atom_type_partial_charge
Mn0 Mn 0.10441 0.57217 0.35945 0.0
Mn1 Mn 0.07342 0.63585 0.26991 0.0
C2 C 0.01046 0.5424 0.31128 0.0
C3 C 0.0688 0.55668 0.4285 0.0
C4 C 0.223 0.56945 0.286 0.0
O5 O 0.15893 0.64051 0.37088 0.0
O6 O 0.12361 0.68178 0.31197 0.0
C7 C 0.9426 0.70536 0.29944 0.0
N8 N 0.96883 0.66953 0.27216 0.0
C9 C 0.83712 0.66951 0.23709 0.0
C10 C 0.80878 0.70647 0.26474 0.0
C11 C 0.86174 0.72452 0.29603 0.0
C12 C 0.91835 0.65194 0.24191 0.0
H13 H 0.98287 0.71883 0.32383 0.0
C14 C 0.15739 0.67998 0.34801 0.0
O15 O 0.14078 0.54362 0.41389 0.0
O16 O 0.02062 0.58194 0.4039 0.0
N17 N 0.0252 0.5961 0.22656 0.0
C18 C 0.05978 0.55759 0.20452 0.0
C19 C 0.01405 0.53445 0.17269 0.0
C20 C 0.93349 0.55127 0.1637 0.0
C21 C 0.89959 0.59133 0.18648 0.0
C22 C 0.94852 0.61337 0.21749 0.0
H23 H 0.12154 0.54438 0.21134 0.0
O24 O 0.04078 0.51255 0.33929 0.0
O25 O 0.03488 0.58912 0.31277 0.0
O26 O 0.20162 0.5534 0.32177 0.0
O27 O 0.18124 0.60101 0.26451 0.0
C28 C 0.81841 0.6094 0.18034 0.0
C29 C 0.78709 0.64833 0.20573 0.0
H30 H 0.74604 0.72064 0.26255 0.0
H31 H 0.84005 0.75284 0.31766 0.0
H32 H 0.04064 0.50351 0.15528 0.0
H33 H 0.89798 0.53287 0.13951 0.0
H34 H 0.77898 0.59292 0.15673 0.0
H35 H 0.724 0.6612 0.20128 0.0
Mn36 Mn 0.40765 0.96463 0.35888 0.0
Mn37 Mn 0.43775 0.90091 0.26938 0.0
C38 C 0.50156 0.9942 0.31059 0.0
C39 C 0.44371 0.97986 0.4279 0.0
C40 C 0.28863 0.96763 0.28564 0.0
O41 O 0.35267 0.89643 0.37039 0.0
O42 O 0.38785 0.855 0.31157 0.0
C43 C 0.5687 0.83132 0.2987 0.0
N44 N 0.54228 0.86715 0.27142 0.0
C45 C 0.67369 0.8671 0.23607 0.0
C46 C 0.70221 0.83012 0.26371 0.0
C47 C 0.6495 0.81213 0.29515 0.0
C48 C 0.59253 0.88472 0.24106 0.0
H49 H 0.52863 0.8179 0.32319 0.0
C50 C 0.35411 0.8569 0.34762 0.0
O51 O 0.37178 0.99319 0.41338 0.0
O52 O 0.49157 0.95453 0.40323 0.0
N53 N 0.48567 0.94066 0.2259 0.0
C54 C 0.45099 0.97922 0.20391 0.0
C55 C 0.49649 1.00235 0.17197 0.0
C56 C 0.57693 0.98548 0.16283 0.0
C57 C 0.61095 0.94537 0.18555 0.0
C58 C 0.56224 0.92333 0.21668 0.0
H59 H 0.38932 0.99247 0.21086 0.0
O60 O 0.47167 0.0241 0.33864 0.0
O61 O 0.47679 0.94755 0.31213 0.0
O62 O 0.31043 0.98375 0.3213 0.0
O63 O 0.32996 0.93585 0.26419 0.0
C64 C 0.69204 0.92724 0.17925 0.0
C65 C 0.7235 0.88826 0.2046 0.0
H66 H 0.7649 0.81589 0.26141 0.0
H67 H 0.67133 0.78382 0.31678 0.0
H68 H 0.46981 0.03333 0.15461 0.0
H69 H 0.61228 1.00387 0.13855 0.0
H70 H 0.7313 0.94371 0.15556 0.0
H71 H 0.78652 0.87536 0.20003 0.0
Mn72 Mn 0.6044 0.46471 0.15392 0.0
Mn73 Mn 0.57343 0.40125 0.24353 0.0
C74 C 0.51047 0.49464 0.20204 0.0
C75 C 0.56875 0.47989 0.08484 0.0
C76 C 0.72314 0.46748 0.22727 0.0
O77 O 0.65888 0.39631 0.14262 0.0
O78 O 0.62309 0.35509 0.20148 0.0
C79 C 0.442 0.33205 0.21424 0.0
N80 N 0.46863 0.36782 0.24148 0.0
C81 C 0.33709 0.36824 0.2767 0.0
C82 C 0.30837 0.3313 0.24912 0.0
C83 C 0.36104 0.31311 0.21775 0.0
C84 C 0.41841 0.38559 0.27176 0.0
H85 H 0.48203 0.31848 0.18979 0.0
C86 C 0.657 0.35682 0.16546 0.0
O87 O 0.64071 0.49304 0.0994 0.0
O88 O 0.52058 0.45477 0.10952 0.0
N89 N 0.52565 0.44124 0.28687 0.0
C90 C 0.56052 0.47975 0.30878 0.0
C91 C 0.51508 0.50309 0.34062 0.0
C92 C 0.43448 0.48647 0.34974 0.0
C93 C 0.40025 0.44641 0.32709 0.0
C94 C 0.44892 0.42416 0.29606 0.0
H95 H 0.62232 0.4928 0.30186 0.0
O96 O 0.54074 0.52441 0.17397 0.0
O97 O 0.53493 0.44792 0.20063 0.0
O98 O 0.7016 0.48359 0.19154 0.0
O99 O 0.68148 0.43587 0.24875 0.0
C100 C 0.31901 0.42854 0.33337 0.0
C101 C 0.28734 0.38961 0.30808 0.0
H102 H 0.24555 0.31728 0.25139 0.0
H103 H 0.33905 0.28486 0.19615 0.0
H104 H 0.54192 0.53403 0.35792 0.0
H105 H 0.39919 0.50502 0.37394 0.0
H106 H 0.27978 0.44518 0.35698 0.0
H107 H 0.22419 0.37692 0.31262 0.0
Mn108 Mn 0.90767 0.07219 0.15301 0.0
Mn109 Mn 0.93767 0.13572 0.24266 0.0
C110 C 1.00159 0.04256 0.20129 0.0
C111 C 0.94371 0.05682 0.084 0.0
C112 C 0.78881 0.06888 0.22637 0.0
O113 O 0.85272 0.14041 0.14152 0.0
O114 O 0.887 0.18153 0.20061 0.0
C115 C 0.06766 0.20593 0.2133 0.0
N116 N 0.04184 0.16986 0.2405 0.0
C117 C 0.17339 0.1704 0.27572 0.0
C118 C 0.20131 0.2076 0.24814 0.0
C119 C 0.14823 0.22549 0.21682 0.0
C120 C 0.09243 0.15244 0.27078 0.0
H121 H 0.02728 0.2193 0.1889 0.0
C122 C 0.85359 0.17976 0.16449 0.0
O123 O 0.87175 0.04361 0.09853 0.0
O124 O 0.9916 0.08218 0.10863 0.0
N125 N 0.98625 0.09608 0.28603 0.0
C126 C 0.95208 0.05737 0.30802 0.0
C127 C 0.99799 0.03437 0.33989 0.0
C128 C 0.0783 0.05154 0.34896 0.0
C129 C 0.11176 0.09181 0.32623 0.0
C130 C 0.06267 0.11368 0.29516 0.0
H131 H 0.89052 0.04389 0.30113 0.0
O132 O 0.9716 1.01269 0.17325 0.0
O133 O 0.97687 0.08923 0.19979 0.0
O134 O 0.81037 0.05311 0.19056 0.0
O135 O 0.83028 0.10042 0.24797 0.0
C136 C 0.19267 0.11025 0.33246 0.0
C137 C 0.22357 0.14939 0.30712 0.0
H138 H 0.26383 0.22209 0.25042 0.0
H139 H 0.16959 0.25401 0.19526 0.0
H140 H 0.97174 1.00327 0.35725 0.0
H141 H 0.11395 0.03326 0.37318 0.0
H142 H 0.23222 0.09391 0.3561 0.0
H143 H 0.28645 0.16256 0.31165 0.0
Mn144 Mn 0.90861 0.46367 0.65368 0.0
Mn145 Mn 0.9396 0.39993 0.74317 0.0
C146 C 1.00246 0.49346 0.70188 0.0
C147 C 0.94427 0.4792 0.58464 0.0
C148 C 0.78986 0.4662 0.72705 0.0
O149 O 0.8542 0.3953 0.64221 0.0
O150 O 0.88981 0.35394 0.70104 0.0
C151 C 0.07088 0.33069 0.71373 0.0
N152 N 0.04436 0.36643 0.74102 0.0
C153 C 0.17593 0.36666 0.77623 0.0
C154 C 0.20455 0.32977 0.74858 0.0
C155 C 0.15182 0.31167 0.71721 0.0
C156 C 0.09463 0.38409 0.77133 0.0
H157 H 0.03079 0.31719 0.68929 0.0
C158 C 0.85597 0.35577 0.66501 0.0
O159 O 0.87226 0.49222 0.59923 0.0
O160 O 0.99245 0.45396 0.60925 0.0
N161 N 0.98747 0.43975 0.78659 0.0
C162 C 0.95265 0.47821 0.80859 0.0
C163 C 0.99816 0.50142 0.84046 0.0
C164 C 0.07875 0.48473 0.84953 0.0
C165 C 0.11291 0.44472 0.82679 0.0
C166 C 0.06419 0.4226 0.79572 0.0
H167 H 0.89086 0.49132 0.80171 0.0
O168 O 0.97215 0.52331 0.67388 0.0
O169 O 0.97809 0.44673 0.70037 0.0
O170 O 0.81135 0.48238 0.69134 0.0
O171 O 0.83159 0.43458 0.7485 0.0
C172 C 0.19414 0.42678 0.83301 0.0
C173 C 0.22574 0.3879 0.80764 0.0
H174 H 0.26735 0.31569 0.75082 0.0
H175 H 0.17373 0.28343 0.69557 0.0
H176 H 0.97136 0.53232 0.85784 0.0
H177 H 0.11408 0.50318 0.87376 0.0
H178 H 0.23341 0.44332 0.85665 0.0
H179 H 0.28887 0.37515 0.81214 0.0
Mn180 Mn 0.60544 0.07118 0.65321 0.0
Mn181 Mn 0.57552 0.1347 0.74284 0.0
C182 C 0.51152 0.04156 0.70147 0.0
C183 C 0.56936 0.05606 0.58418 0.0
C184 C 0.72443 0.06787 0.72648 0.0
O185 O 0.66049 0.13938 0.64177 0.0
O186 O 0.62579 0.18061 0.70075 0.0
C187 C 0.44506 0.20469 0.7136 0.0
N188 N 0.47119 0.16869 0.7408 0.0
C189 C 0.33974 0.16897 0.77612 0.0
C190 C 0.31152 0.20612 0.74855 0.0
C191 C 0.36439 0.22409 0.71717 0.0
C192 C 0.42079 0.15116 0.77112 0.0
H193 H 0.48527 0.2181 0.68916 0.0
C194 C 0.65936 0.1788 0.66467 0.0
O195 O 0.64128 0.04271 0.59868 0.0
O196 O 0.52151 0.08137 0.60887 0.0
N197 N 0.52729 0.09496 0.78624 0.0
C198 C 0.56171 0.05628 0.80819 0.0
C199 C 0.51603 0.03318 0.84008 0.0
C200 C 0.43567 0.05022 0.84922 0.0
C201 C 0.40193 0.09046 0.82654 0.0
C202 C 0.45082 0.11244 0.79545 0.0
H203 H 0.62332 0.04291 0.80124 0.0
O204 O 0.5414 1.01171 0.67339 0.0
O205 O 0.53632 0.08821 0.7 0.0
O206 O 0.7027 0.05196 0.69074 0.0
O207 O 0.68309 0.09954 0.74803 0.0
C208 C 0.32095 0.10875 0.83284 0.0
C209 C 0.28977 0.14787 0.80755 0.0
H210 H 0.24892 0.22049 0.75087 0.0
H211 H 0.34279 0.25254 0.69561 0.0
H212 H 0.54249 1.00211 0.8574 0.0
H213 H 0.40019 0.03186 0.87346 0.0
H214 H 0.28156 0.09233 0.85651 0.0
H215 H 0.22683 0.16092 0.81212 0.0
Mn216 Mn 0.40868 0.57121 0.85916 0.0
Mn217 Mn 0.43959 0.6345 0.76946 0.0
C218 C 0.50252 0.54117 0.81105 0.0
C219 C 0.44437 0.5561 0.92825 0.0
C220 C 0.28985 0.56834 0.78585 0.0
O221 O 0.35429 0.63965 0.87041 0.0
O222 O 0.38996 0.68073 0.81147 0.0
C223 C 0.57103 0.70377 0.79863 0.0
N224 N 0.54439 0.66794 0.77145 0.0
C225 C 0.67587 0.6675 0.73617 0.0
C226 C 0.7046 0.70449 0.76369 0.0
C227 C 0.65198 0.72272 0.79506 0.0
C228 C 0.59457 0.65013 0.74117 0.0
H229 H 0.53103 0.71737 0.82308 0.0
C230 C 0.35613 0.67909 0.84751 0.0
O231 O 0.37238 0.54297 0.91371 0.0
O232 O 0.49256 0.58117 0.90353 0.0
N233 N 0.48734 0.59444 0.72616 0.0
C234 C 0.45246 0.55588 0.70431 0.0
C235 C 0.49787 0.53248 0.67249 0.0
C236 C 0.57844 0.54911 0.66331 0.0
C237 C 0.61267 0.58922 0.68589 0.0
C238 C 0.56404 0.61152 0.71691 0.0
H239 H 0.39068 0.54282 0.71128 0.0
O240 O 0.47224 0.51145 0.83915 0.0
O241 O 0.47811 0.5879 0.81241 0.0
O242 O 0.31139 0.55231 0.82159 0.0
O243 O 0.33154 0.59987 0.7643 0.0
C244 C 0.69389 0.6071 0.67956 0.0
C245 C 0.72558 0.64609 0.70479 0.0
H246 H 0.76741 0.71852 0.76138 0.0
H247 H 0.67398 0.75102 0.81661 0.0
H248 H 0.47102 0.5015 0.65524 0.0
H249 H 0.6137 0.53052 0.63913 0.0
H250 H 0.73309 0.59043 0.65595 0.0
H251 H 0.78871 0.65879 0.70021 0.0
Mn252 Mn 0.10556 0.96378 0.85917 0.0
Mn253 Mn 0.07562 0.89986 0.76971 0.0
C254 C 0.01161 0.99318 0.81081 0.0
C255 C 0.06951 0.97935 0.92815 0.0
C256 C 0.22446 0.96679 0.78583 0.0
O257 O 0.16062 0.89563 0.87083 0.0
O258 O 0.12614 0.8542 0.8119 0.0
C259 C 0.94547 0.82984 0.79921 0.0
N260 N 0.97139 0.86579 0.77192 0.0
C261 C 0.83986 0.86523 0.73668 0.0
C262 C 0.81184 0.82815 0.76434 0.0
C263 C 0.86487 0.81033 0.79573 0.0
C264 C 0.92085 0.88315 0.74159 0.0
H265 H 0.9858 0.81654 0.82365 0.0
C266 C 0.15963 0.85614 0.848 0.0
O267 O 0.14144 0.99257 0.91358 0.0
O268 O 0.02166 0.95389 0.90357 0.0
N269 N 0.02717 0.93936 0.72622 0.0
C270 C 0.06143 0.97796 0.70413 0.0
C271 C 0.0156 1.00087 0.67219 0.0
C272 C 0.93526 0.98373 0.66316 0.0
C273 C 0.90168 0.94358 0.68599 0.0
C274 C 0.95071 0.92179 0.71712 0.0
H275 H 0.12302 0.99141 0.71099 0.0
O276 O 0.04153 0.02317 0.83879 0.0
O277 O 0.0364 0.94653 0.81243 0.0
O278 O 0.2028 0.98279 0.82155 0.0
O279 O 0.18307 0.93508 0.76435 0.0
C280 C 0.82074 0.92519 0.67979 0.0
C281 C 0.78974 0.88616 0.70522 0.0
H282 H 0.74929 0.8137 0.7621 0.0
H283 H 0.84343 0.78191 0.81735 0.0
H284 H 0.04194 0.03187 0.65475 0.0
H285 H 0.89967 1.00195 0.63888 0.0
H286 H 0.78124 0.94147 0.6561 0.0
H287 H 0.72683 0.87302 0.70072 0.0
C288 C 0.37288 0.57552 0.26919 0.0
C289 C 0.2981 0.54877 0.2672 0.0
H290 H 0.50031 0.5785 0.25007 0.0
C291 C 0.29386 0.5037 0.24461 0.0
H292 H 0.37654 0.61083 0.28602 0.0
C293 C 0.36391 0.4855 0.22407 0.0
C294 C 0.43931 0.51159 0.22668 0.0
H295 H 0.23605 0.48312 0.24224 0.0
H296 H 0.35894 0.45144 0.20565 0.0
C297 C 0.44313 0.55715 0.24877 0.0
C298 C 0.06877 0.97992 0.24801 0.0
C299 C 0.07256 0.02567 0.22614 0.0
H300 H 0.13529 0.92601 0.28513 0.0
C301 C 0.14783 0.05196 0.22387 0.0
H302 H 0.01172 0.95842 0.24904 0.0
C303 C 0.21775 0.03374 0.24455 0.0
C304 C 0.21354 0.98844 0.26688 0.0
H305 H 0.15282 0.08615 0.20559 0.0
H306 H 0.27548 0.05444 0.24242 0.0
C307 C 0.13891 0.96151 0.26852 0.0
C308 C 0.87303 0.46146 0.24412 0.0
C309 C 0.79822 0.4882 0.24606 0.0
H310 H 1.00043 0.45852 0.26329 0.0
C311 C 0.79393 0.53332 0.26859 0.0
H312 H 0.87673 0.42611 0.22733 0.0
C313 C 0.86393 0.55155 0.28914 0.0
C314 C 0.93936 0.52546 0.28659 0.0
H315 H 0.73611 0.5539 0.27091 0.0
H316 H 0.85891 0.58562 0.30754 0.0
C317 C 0.94324 0.47987 0.26454 0.0
C318 C 0.71793 1.00296 0.26764 0.0
C319 C 0.71367 0.04806 0.24505 0.0
H320 H 0.65294 0.95074 0.30673 0.0
C321 C 0.63891 0.07485 0.24309 0.0
H322 H 0.77575 0.98237 0.27 0.0
C323 C 0.56873 0.05653 0.2636 0.0
C324 C 0.57257 1.01097 0.28574 0.0
H325 H 0.63525 0.11021 0.22628 0.0
H326 H 0.51159 0.07794 0.26236 0.0
C327 C 0.64794 0.9848 0.28827 0.0
C328 C 0.56982 0.4785 0.76444 0.0
C329 C 0.57364 0.52414 0.78641 0.0
H330 H 0.63637 0.4247 0.72727 0.0
C331 C 0.64903 0.55027 0.78891 0.0
H332 H 0.51266 0.45712 0.76322 0.0
C333 C 0.71903 0.53204 0.76835 0.0
C334 C 0.71478 0.48688 0.74588 0.0
H335 H 0.65401 0.58439 0.80725 0.0
H336 H 0.77681 0.55266 0.77062 0.0
C337 C 0.64003 0.46008 0.74401 0.0
C338 C 0.87427 0.07388 0.74332 0.0
C339 C 0.79957 0.04703 0.74516 0.0
H340 H 1.00152 0.077 0.76269 0.0
C341 C 0.79536 1.00186 0.76767 0.0
H342 H 0.87789 0.10928 0.72657 0.0
C343 C 0.86533 0.9837 0.78833 0.0
C344 C 0.94064 1.00993 0.78591 0.0
H345 H 0.73758 0.98122 0.76994 0.0
H346 H 0.86034 0.94961 0.80675 0.0
C347 C 0.94444 0.05554 0.76385 0.0
C348 C 0.13991 0.57433 0.7691 0.0
C349 C 0.21473 0.54761 0.7671 0.0
H350 H 0.01248 0.57726 0.74998 0.0
C351 C 0.21902 0.50253 0.74453 0.0
H352 H 0.13621 0.60965 0.78592 0.0
C353 C 0.149 0.4843 0.72398 0.0
C354 C 0.07356 0.51038 0.72658 0.0
H355 H 0.27685 0.48196 0.74216 0.0
H356 H 0.15402 0.45026 0.70555 0.0
C357 C 0.06968 0.55593 0.74868 0.0
C358 C 0.37422 0.96069 0.76882 0.0
C359 C 0.29954 0.98759 0.76708 0.0
H360 H 0.50144 0.95757 0.74939 0.0
C361 C 0.2953 0.03281 0.74464 0.0
H362 H 0.37785 0.92525 0.78551 0.0
C363 C 0.36524 0.05099 0.72397 0.0
C364 C 0.44055 0.02473 0.72632 0.0
H365 H 0.23754 0.05348 0.74243 0.0
H366 H 0.36025 0.08514 0.70563 0.0
C367 C 0.44436 0.97905 0.74829 0.0
C368 C 0.08712 0.50617 0.49378 0.0
C369 C 0.03847 0.53854 0.4693 0.0
H370 H 0.09498 0.46135 0.54896 0.0
C371 C 0.95754 0.55007 0.48251 0.0
H372 H 0.14935 0.49612 0.48429 0.0
C373 C 0.92596 0.52971 0.51937 0.0
C374 C 0.9746 0.49735 0.54384 0.0
H375 H 0.9181 0.57454 0.46418 0.0
H376 H 0.86373 0.53976 0.52886 0.0
C377 C 0.05554 0.48582 0.53064 0.0
C378 C 0.42604 0.03011 0.49331 0.0
C379 C 0.47432 0.99771 0.46872 0.0
H380 H 0.41872 0.07464 0.54863 0.0
C381 C 0.55518 0.98582 0.48186 0.0
H382 H 0.36388 0.04042 0.48388 0.0
C383 C 0.58702 1.00585 0.51876 0.0
C384 C 0.53874 0.03824 0.54335 0.0
H385 H 0.59434 0.96131 0.46345 0.0
H386 H 0.64918 0.99553 0.52818 0.0
C387 C 0.45789 0.05014 0.53021 0.0
C388 C 0.58711 0.5299 0.01931 0.0
C389 C 0.53845 0.49773 0.04394 0.0
H390 H 0.59502 0.57426 0.96388 0.0
C391 C 0.45755 0.48608 0.03077 0.0
H392 H 0.64932 0.54003 0.02877 0.0
C393 C 0.42602 0.50612 0.99378 0.0
C394 C 0.47467 0.53828 0.96915 0.0
H395 H 0.4181 0.46175 0.04921 0.0
H396 H 0.36381 0.49598 0.98432 0.0
C397 C 0.55558 0.54994 0.98232 0.0
C398 C 0.95793 0.98584 0.98201 0.0
C399 C 0.03885 0.99752 0.96887 0.0
H400 H 0.86383 0.99601 0.02823 0.0
C401 C 0.08715 0.03006 0.99333 0.0
H402 H 0.91874 0.96124 0.9637 0.0
C403 C 0.05526 0.05041 0.03011 0.0
C404 C 0.97435 0.03871 0.04325 0.0
H405 H 0.14936 0.04023 0.98389 0.0
H406 H 0.09445 0.075 0.04843 0.0
C407 C 0.92604 1.00619 0.01879 0.0
C408 C 0.29314 0.72083 0.36189 0.0
C409 C 0.20638 0.72453 0.36026 0.0
H410 H 0.4089 0.76067 0.3588 0.0
C411 C 0.16939 0.77247 0.3613 0.0
H412 H 0.32303 0.68428 0.36008 0.0
C413 C 0.21846 0.81607 0.36191 0.0
C414 C 0.3052 0.81236 0.36005 0.0
H415 H 0.10267 0.77621 0.35921 0.0
H416 H 0.18855 0.85262 0.36013 0.0
C417 C 0.34221 0.76443 0.36107 0.0
C418 C 0.71711 0.2204 0.15246 0.0
C419 C 0.80391 0.22408 0.15234 0.0
H420 H 0.60168 0.26036 0.15703 0.0
C421 C 0.84084 0.27195 0.14984 0.0
H422 H 0.68738 0.18393 0.15544 0.0
C423 C 0.79174 0.31558 0.14944 0.0
C424 C 0.70519 0.31197 0.15303 0.0
H425 H 0.90767 0.27567 0.15062 0.0
H426 H 0.82177 0.35213 0.15004 0.0
C427 C 0.66815 0.26403 0.15348 0.0
C428 C 0.79545 0.21952 0.65155 0.0
C429 C 0.70866 0.22322 0.6524 0.0
H430 H 0.91107 0.25941 0.65522 0.0
C431 C 0.67167 0.27113 0.6506 0.0
H432 H 0.82528 0.183 0.65396 0.0
C433 C 0.72074 0.31474 0.64998 0.0
C434 C 0.80742 0.31107 0.65263 0.0
H435 H 0.60489 0.27487 0.65209 0.0
H436 H 0.69076 0.35129 0.65116 0.0
C437 C 0.84446 0.26313 0.65237 0.0
C438 C 0.34497 0.77187 0.85947 0.0
C439 C 0.30789 0.72394 0.85986 0.0
H440 H 0.32581 0.85198 0.85744 0.0
C441 C 0.22132 0.72035 0.86328 0.0
H442 H 0.41148 0.77552 0.85605 0.0
C443 C 0.17225 0.76399 0.86276 0.0
C444 C 0.20922 0.81185 0.8603 0.0
H445 H 0.19128 0.6838 0.86263 0.0
H446 H 0.10543 0.76027 0.86184 0.0
C447 C 0.29603 0.81551 0.86038 0.0
loop_
_geom_bond_atom_site_label_1
_geom_bond_atom_site_label_2
_geom_bond_distance
_geom_bond_site_symmetry_2
_ccdc_geom_bond_type
Mn0 O5 2.095 . S
Mn0 O15 2.162 . S
Mn0 O16 2.297 . S
Mn0 O24 2.385 . S
Mn0 O25 2.209 . S
Mn0 O26 2.094 . S
Mn1 O6 2.121 . S
Mn1 N8 2.257 . S
Mn1 N17 2.282 . S
Mn1 O25 2.215 . S
Mn1 O27 2.117 . S
C2 O24 1.234 . S
C2 O25 1.283 . S
C3 O15 1.281 . S
C3 O16 1.236 . S
C4 O26 1.240 . S
C4 O27 1.264 . S
O5 Mn0 2.095 . S
O5 C14 1.250 . S
O6 Mn1 2.121 . S
O6 C14 1.258 . S
C7 N8 1.326 . S
C7 C11 1.460 1_455 S
C7 H13 0.929 . S
N8 Mn1 2.257 . S
N8 C7 1.326 . S
N8 C12 1.362 . S
C9 C10 1.258 . S
C9 C12 1.431 1_655 S
C9 C29 1.449 . S
C10 C9 1.258 . S
C10 C11 1.477 . S
C10 H30 0.931 . S
C11 C7 1.460 1_655 S
C11 C10 1.477 . S
C11 H31 0.930 . S
C12 N8 1.362 . S
C12 C9 1.431 1_455 S
C12 C22 1.476 . S
H13 C7 0.929 . S
C14 O5 1.250 . S
C14 O6 1.258 . S
O15 Mn0 2.162 . S
O15 C3 1.281 . S
O16 Mn0 2.297 . S
O16 C3 1.236 . S
N17 Mn1 2.282 . S
N17 C18 1.328 . S
N17 C22 1.318 . S
C18 N17 1.328 . S
C18 C19 1.457 . S
C18 H23 0.929 . S
C19 C18 1.457 . S
C19 C20 1.291 . S
C19 H32 0.931 . S
C20 C19 1.291 . S
C20 C21 1.373 . S
C20 H33 0.929 . S
C21 C20 1.373 . S
C21 C22 1.396 . S
C21 C28 1.403 1_455 S
C22 C12 1.476 . S
C22 N17 1.318 . S
C22 C21 1.396 . S
H23 C18 0.929 . S
O24 Mn0 2.385 . S
O24 C2 1.234 . S
O25 Mn0 2.209 . S
O25 Mn1 2.215 . S
O25 C2 1.283 . S
O26 Mn0 2.094 . S
O26 C4 1.240 . S
O27 Mn1 2.117 . S
O27 C4 1.264 . S
C28 C21 1.403 1_655 S
C28 C29 1.399 . S
C28 H34 0.929 . S
C29 C9 1.449 . S
C29 C28 1.399 . S
C29 H35 0.930 . S
H30 C10 0.931 . S
H31 C11 0.930 . S
H32 C19 0.931 . S
H33 C20 0.929 . S
H34 C28 0.929 . S
H35 C29 0.930 . S
Mn36 O41 2.095 . S
Mn36 O51 2.162 . S
Mn36 O52 2.297 . S
Mn36 O60 2.385 1_565 S
Mn36 O61 2.209 . S
Mn36 O62 2.094 . S
Mn37 O42 2.121 . S
Mn37 N44 2.257 . S
Mn37 N53 2.282 . S
Mn37 O61 2.215 . S
Mn37 O63 2.117 . S
C38 O60 1.234 1_565 S
C38 O61 1.283 . S
C39 O51 1.281 . S
C39 O52 1.236 . S
C40 O62 1.240 . S
C40 O63 1.264 . S
O41 Mn36 2.095 . S
O41 C50 1.250 . S
O42 Mn37 2.121 . S
O42 C50 1.258 . S
C43 N44 1.326 . S
C43 C47 1.460 . S
C43 H49 0.929 . S
N44 Mn37 2.257 . S
N44 C43 1.326 . S
N44 C48 1.362 . S
C45 C46 1.258 . S
C45 C48 1.431 . S
C45 C65 1.449 . S
C46 C45 1.258 . S
C46 C47 1.477 . S
C46 H66 0.931 . S
C47 C43 1.460 . S
C47 C46 1.477 . S
C47 H67 0.930 . S
C48 N44 1.362 . S
C48 C45 1.431 . S
C48 C58 1.476 . S
H49 C43 0.929 . S
C50 O41 1.250 . S
C50 O42 1.258 . S
O51 Mn36 2.162 . S
O51 C39 1.281 . S
O52 Mn36 2.297 . S
O52 C39 1.236 . S
N53 Mn37 2.282 . S
N53 C54 1.328 . S
N53 C58 1.318 . S
C54 N53 1.328 . S
C54 C55 1.457 1_565 S
C54 H59 0.929 1_565 S
C55 C54 1.457 1_545 S
C55 C56 1.291 1_545 S
C55 H68 0.931 . S
C56 C55 1.291 1_565 S
C56 C57 1.373 . S
C56 H69 0.929 1_565 S
C57 C56 1.373 . S
C57 C58 1.396 . S
C57 C64 1.403 . S
C58 C48 1.476 . S
C58 N53 1.318 . S
C58 C57 1.396 . S
H59 C54 0.929 1_545 S
O60 Mn36 2.385 1_545 S
O60 C38 1.234 1_545 S
O61 Mn36 2.209 . S
O61 Mn37 2.215 . S
O61 C38 1.283 . S
O62 Mn36 2.094 . S
O62 C40 1.240 . S
O63 Mn37 2.117 . S
O63 C40 1.264 . S
C64 C57 1.403 . S
C64 C65 1.399 . S
C64 H70 0.929 . S
C65 C45 1.449 . S
C65 C64 1.399 . S
C65 H71 0.930 . S
H66 C46 0.931 . S
H67 C47 0.930 . S
H68 C55 0.931 . S
H69 C56 0.929 1_545 S
H70 C64 0.929 . S
H71 C65 0.930 . S
Mn72 O77 2.095 . S
Mn72 O87 2.162 . S
Mn72 O88 2.297 . S
Mn72 O96 2.385 . S
Mn72 O97 2.209 . S
Mn72 O98 2.094 . S
Mn73 O78 2.121 . S
Mn73 N80 2.257 . S
Mn73 N89 2.282 . S
Mn73 O97 2.215 . S
Mn73 O99 2.117 . S
C74 O96 1.234 . S
C74 O97 1.283 . S
C75 O87 1.281 . S
C75 O88 1.236 . S
C76 O98 1.240 . S
C76 O99 1.264 . S
O77 Mn72 2.095 . S
O77 C86 1.250 . S
O78 Mn73 2.121 . S
O78 C86 1.258 . S
C79 N80 1.326 . S
C79 C83 1.460 . S
C79 H85 0.929 . S
N80 Mn73 2.257 . S
N80 C79 1.326 . S
N80 C84 1.362 . S
C81 C82 1.258 . S
C81 C84 1.431 . S
C81 C101 1.449 . S
C82 C81 1.258 . S
C82 C83 1.477 . S
C82 H102 0.931 . S
C83 C79 1.460 . S
C83 C82 1.477 . S
C83 H103 0.930 . S
C84 N80 1.362 . S
C84 C81 1.431 . S
C84 C94 1.476 . S
H85 C79 0.929 . S
C86 O77 1.250 . S
C86 O78 1.258 . S
O87 Mn72 2.162 . S
O87 C75 1.281 . S
O88 Mn72 2.297 . S
O88 C75 1.236 . S
N89 Mn73 2.282 . S
N89 C90 1.328 . S
N89 C94 1.318 . S
C90 N89 1.328 . S
C90 C91 1.457 . S
C90 H95 0.929 . S
C91 C90 1.457 . S
C91 C92 1.291 . S
C91 H104 0.931 . S
C92 C91 1.291 . S
C92 C93 1.373 . S
C92 H105 0.929 . S
C93 C92 1.373 . S
C93 C94 1.396 . S
C93 C100 1.403 . S
C94 C84 1.476 . S
C94 N89 1.318 . S
C94 C93 1.396 . S
H95 C90 0.929 . S
O96 Mn72 2.385 . S
O96 C74 1.234 . S
O97 Mn72 2.209 . S
O97 Mn73 2.215 . S
O97 C74 1.283 . S
O98 Mn72 2.094 . S
O98 C76 1.240 . S
O99 Mn73 2.117 . S
O99 C76 1.264 . S
C100 C93 1.403 . S
C100 C101 1.399 . S
C100 H106 0.929 . S
C101 C81 1.449 . S
C101 C100 1.399 . S
C101 H107 0.930 . S
H102 C82 0.931 . S
H103 C83 0.930 . S
H104 C91 0.931 . S
H105 C92 0.929 . S
H106 C100 0.929 . S
H107 C101 0.930 . S
Mn108 O113 2.095 . S
Mn108 O123 2.162 . S
Mn108 O124 2.297 . S
Mn108 O132 2.385 1_545 S
Mn108 O133 2.209 . S
Mn108 O134 2.094 . S
Mn109 O114 2.121 . S
Mn109 N116 2.257 . S
Mn109 N125 2.282 . S
Mn109 O133 2.215 . S
Mn109 O135 2.117 . S
C110 O132 1.234 1_545 S
C110 O133 1.283 . S
C111 O123 1.281 . S
C111 O124 1.236 . S
C112 O134 1.240 . S
C112 O135 1.264 . S
O113 Mn108 2.095 . S
O113 C122 1.250 . S
O114 Mn109 2.121 . S
O114 C122 1.258 . S
C115 N116 1.326 . S
C115 C119 1.460 1_655 S
C115 H121 0.929 . S
N116 Mn109 2.257 . S
N116 C115 1.326 . S
N116 C120 1.362 . S
C117 C118 1.258 . S
C117 C120 1.431 1_455 S
C117 C137 1.449 . S
C118 C117 1.258 . S
C118 C119 1.477 . S
C118 H138 0.931 . S
C119 C115 1.460 1_455 S
C119 C118 1.477 . S
C119 H139 0.930 . S
C120 N116 1.362 . S
C120 C117 1.431 1_655 S
C120 C130 1.476 . S
H121 C115 0.929 . S
C122 O113 1.250 . S
C122 O114 1.258 . S
O123 Mn108 2.162 . S
O123 C111 1.281 . S
O124 Mn108 2.297 . S
O124 C111 1.236 . S
N125 Mn109 2.282 . S
N125 C126 1.328 . S
N125 C130 1.318 . S
C126 N125 1.328 . S
C126 C127 1.457 1_545 S
C126 H131 0.929 1_545 S
C127 C126 1.457 1_565 S
C127 C128 1.291 1_565 S
C127 H140 0.931 . S
C128 C127 1.291 1_545 S
C128 C129 1.373 . S
C128 H141 0.929 1_545 S
C129 C128 1.373 . S
C129 C130 1.396 . S
C129 C136 1.403 1_655 S
C130 C120 1.476 . S
C130 N125 1.318 . S
C130 C129 1.396 . S
H131 C126 0.929 1_565 S
O132 Mn108 2.385 1_565 S
O132 C110 1.234 1_565 S
O133 Mn108 2.209 . S
O133 Mn109 2.215 . S
O133 C110 1.283 . S
O134 Mn108 2.094 . S
O134 C112 1.240 . S
O135 Mn109 2.117 . S
O135 C112 1.264 . S
C136 C129 1.403 1_455 S
C136 C137 1.399 . S
C136 H142 0.929 . S
C137 C117 1.449 . S
C137 C136 1.399 . S
C137 H143 0.930 . S
H138 C118 0.931 . S
H139 C119 0.930 . S
H140 C127 0.931 . S
H141 C128 0.929 1_565 S
H142 C136 0.929 . S
H143 C137 0.930 . S
Mn144 O149 2.095 . S
Mn144 O159 2.162 . S
Mn144 O160 2.297 . S
Mn144 O168 2.385 . S
Mn144 O169 2.209 . S
Mn144 O170 2.094 . S
Mn145 O150 2.121 . S
Mn145 N152 2.257 . S
Mn145 N161 2.282 . S
Mn145 O169 2.215 . S
Mn145 O171 2.117 . S
C146 O168 1.234 . S
C146 O169 1.283 . S
C147 O159 1.281 . S
C147 O160 1.236 . S
C148 O170 1.240 . S
C148 O171 1.264 . S
O149 Mn144 2.095 . S
O149 C158 1.250 . S
O150 Mn145 2.121 . S
O150 C158 1.258 . S
C151 N152 1.326 . S
C151 C155 1.460 1_655 S
C151 H157 0.929 . S
N152 Mn145 2.257 . S
N152 C151 1.326 . S
N152 C156 1.362 . S
C153 C154 1.258 . S
C153 C156 1.431 1_455 S
C153 C173 1.449 . S
C154 C153 1.258 . S
C154 C155 1.477 . S
C154 H174 0.931 . S
C155 C151 1.460 1_455 S
C155 C154 1.477 . S
C155 H175 0.930 . S
C156 N152 1.362 . S
C156 C153 1.431 1_655 S
C156 C166 1.476 . S
H157 C151 0.929 . S
C158 O149 1.250 . S
C158 O150 1.258 . S
O159 Mn144 2.162 . S
O159 C147 1.281 . S
O160 Mn144 2.297 . S
O160 C147 1.236 . S
N161 Mn145 2.282 . S
N161 C162 1.328 . S
N161 C166 1.318 . S
C162 N161 1.328 . S
C162 C163 1.457 . S
C162 H167 0.929 . S
C163 C162 1.457 . S
C163 C164 1.291 . S
C163 H176 0.931 . S
C164 C163 1.291 . S
C164 C165 1.373 . S
C164 H177 0.929 . S
C165 C164 1.373 . S
C165 C166 1.396 . S
C165 C172 1.403 1_655 S
C166 C156 1.476 . S
C166 N161 1.318 . S
C166 C165 1.396 . S
H167 C162 0.929 . S
O168 Mn144 2.385 . S
O168 C146 1.234 . S
O169 Mn144 2.209 . S
O169 Mn145 2.215 . S
O169 C146 1.283 . S
O170 Mn144 2.094 . S
O170 C148 1.240 . S
O171 Mn145 2.117 . S
O171 C148 1.264 . S
C172 C165 1.403 1_455 S
C172 C173 1.399 . S
C172 H178 0.929 . S
C173 C153 1.449 . S
C173 C172 1.399 . S
C173 H179 0.930 . S
H174 C154 0.931 . S
H175 C155 0.930 . S
H176 C163 0.931 . S
H177 C164 0.929 . S
H178 C172 0.929 . S
H179 C173 0.930 . S
Mn180 O185 2.095 . S
Mn180 O195 2.162 . S
Mn180 O196 2.297 . S
Mn180 O204 2.385 1_545 S
Mn180 O205 2.209 . S
Mn180 O206 2.094 . S
Mn181 O186 2.121 . S
Mn181 N188 2.257 . S
Mn181 N197 2.282 . S
Mn181 O205 2.215 . S
Mn181 O207 2.117 . S
C182 O204 1.234 1_545 S
C182 O205 1.283 . S
C183 O195 1.281 . S
C183 O196 1.236 . S
C184 O206 1.240 . S
C184 O207 1.264 . S
O185 Mn180 2.095 . S
O185 C194 1.250 . S
O186 Mn181 2.121 . S
O186 C194 1.258 . S
C187 N188 1.326 . S
C187 C191 1.460 . S
C187 H193 0.929 . S
N188 Mn181 2.257 . S
N188 C187 1.326 . S
N188 C192 1.362 . S
C189 C190 1.258 . S
C189 C192 1.431 . S
C189 C209 1.449 . S
C190 C189 1.258 . S
C190 C191 1.477 . S
C190 H210 0.931 . S
C191 C187 1.460 . S
C191 C190 1.477 . S
C191 H211 0.930 . S
C192 N188 1.362 . S
C192 C189 1.431 . S
C192 C202 1.476 . S
H193 C187 0.929 . S
C194 O185 1.250 . S
C194 O186 1.258 . S
O195 Mn180 2.162 . S
O195 C183 1.281 . S
O196 Mn180 2.297 . S
O196 C183 1.236 . S
N197 Mn181 2.282 . S
N197 C198 1.328 . S
N197 C202 1.318 . S
C198 N197 1.328 . S
C198 C199 1.457 1_545 S
C198 H203 0.929 1_545 S
C199 C198 1.457 1_565 S
C199 C200 1.291 1_565 S
C199 H212 0.931 . S
C200 C199 1.291 1_545 S
C200 C201 1.373 . S
C200 H213 0.929 1_545 S
C201 C200 1.373 . S
C201 C202 1.396 . S
C201 C208 1.403 . S
C202 C192 1.476 . S
C202 N197 1.318 . S
C202 C201 1.396 . S
H203 C198 0.929 1_565 S
O204 Mn180 2.385 1_565 S
O204 C182 1.234 1_565 S
O205 Mn180 2.209 . S
O205 Mn181 2.215 . S
O205 C182 1.283 . S
O206 Mn180 2.094 . S
O206 C184 1.240 . S
O207 Mn181 2.117 . S
O207 C184 1.264 . S
C208 C201 1.403 . S
C208 C209 1.399 . S
C208 H214 0.929 . S
C209 C189 1.449 . S
C209 C208 1.399 . S
C209 H215 0.930 . S
H210 C190 0.931 . S
H211 C191 0.930 . S
H212 C199 0.931 . S
H213 C200 0.929 1_565 S
H214 C208 0.929 . S
H215 C209 0.930 . S
Mn216 O221 2.095 . S
Mn216 O231 2.162 . S
Mn216 O232 2.297 . S
Mn216 O240 2.385 . S
Mn216 O241 2.209 . S
Mn216 O242 2.094 . S
Mn217 O222 2.121 . S
Mn217 N224 2.257 . S
Mn217 N233 2.282 . S
Mn217 O241 2.215 . S
Mn217 O243 2.117 . S
C218 O240 1.234 . S
C218 O241 1.283 . S
C219 O231 1.281 . S
C219 O232 1.236 . S
C220 O242 1.240 . S
C220 O243 1.264 . S
O221 Mn216 2.095 . S
O221 C230 1.250 . S
O222 Mn217 2.121 . S
O222 C230 1.258 . S
C223 N224 1.326 . S
C223 C227 1.460 . S
C223 H229 0.929 . S
N224 Mn217 2.257 . S
N224 C223 1.326 . S
N224 C228 1.362 . S
C225 C226 1.258 . S
C225 C228 1.431 . S
C225 C245 1.449 . S
C226 C225 1.258 . S
C226 C227 1.477 . S
C226 H246 0.931 . S
C227 C223 1.460 . S
C227 C226 1.477 . S
C227 H247 0.930 . S
C228 N224 1.362 . S
C228 C225 1.431 . S
C228 C238 1.476 . S
H229 C223 0.929 . S
C230 O221 1.250 . S
C230 O222 1.258 . S
O231 Mn216 2.162 . S
O231 C219 1.281 . S
O232 Mn216 2.297 . S
O232 C219 1.236 . S
N233 Mn217 2.282 . S
N233 C234 1.328 . S
N233 C238 1.318 . S
C234 N233 1.328 . S
C234 C235 1.457 . S
C234 H239 0.929 . S
C235 C234 1.457 . S
C235 C236 1.291 . S
C235 H248 0.931 . S
C236 C235 1.291 . S
C236 C237 1.373 . S
C236 H249 0.929 . S
C237 C236 1.373 . S
C237 C238 1.396 . S
C237 C244 1.403 . S
C238 C228 1.476 . S
C238 N233 1.318 . S
C238 C237 1.396 . S
H239 C234 0.929 . S
O240 Mn216 2.385 . S
O240 C218 1.234 . S
O241 Mn216 2.209 . S
O241 Mn217 2.215 . S
O241 C218 1.283 . S
O242 Mn216 2.094 . S
O242 C220 1.240 . S
O243 Mn217 2.117 . S
O243 C220 1.264 . S
C244 C237 1.403 . S
C244 C245 1.399 . S
C244 H250 0.929 . S
C245 C225 1.449 . S
C245 C244 1.399 . S
C245 H251 0.930 . S
H246 C226 0.931 . S
H247 C227 0.930 . S
H248 C235 0.931 . S
H249 C236 0.929 . S
H250 C244 0.929 . S
H251 C245 0.930 . S
Mn252 O257 2.095 . S
Mn252 O267 2.162 . S
Mn252 O268 2.297 . S
Mn252 O276 2.385 1_565 S
Mn252 O277 2.209 . S
Mn252 O278 2.094 . S
Mn253 O258 2.121 . S
Mn253 N260 2.257 . S
Mn253 N269 2.282 . S
Mn253 O277 2.215 . S
Mn253 O279 2.117 . S
C254 O276 1.234 1_565 S
C254 O277 1.283 . S
C255 O267 1.281 . S
C255 O268 1.236 . S
C256 O278 1.240 . S
C256 O279 1.264 . S
O257 Mn252 2.095 . S
O257 C266 1.250 . S
O258 Mn253 2.121 . S
O258 C266 1.258 . S
C259 N260 1.326 . S
C259 C263 1.460 1_455 S
C259 H265 0.929 . S
N260 Mn253 2.257 . S
N260 C259 1.326 . S
N260 C264 1.362 . S
C261 C262 1.258 . S
C261 C264 1.431 1_655 S
C261 C281 1.449 . S
C262 C261 1.258 . S
C262 C263 1.477 . S
C262 H282 0.931 . S
C263 C259 1.460 1_655 S
C263 C262 1.477 . S
C263 H283 0.930 . S
C264 N260 1.362 . S
C264 C261 1.431 1_455 S
C264 C274 1.476 . S
H265 C259 0.929 . S
C266 O257 1.250 . S
C266 O258 1.258 . S
O267 Mn252 2.162 . S
O267 C255 1.281 . S
O268 Mn252 2.297 . S
O268 C255 1.236 . S
N269 Mn253 2.282 . S
N269 C270 1.328 . S
N269 C274 1.318 . S
C270 N269 1.328 . S
C270 C271 1.457 1_565 S
C270 H275 0.929 1_565 S
C271 C270 1.457 1_545 S
C271 C272 1.291 1_545 S
C271 H284 0.931 . S
C272 C271 1.291 1_565 S
C272 C273 1.373 . S
C272 H285 0.929 1_565 S
C273 C272 1.373 . S
C273 C274 1.396 . S
C273 C280 1.403 1_455 S
C274 C264 1.476 . S
C274 N269 1.318 . S
C274 C273 1.396 . S
H275 C270 0.929 1_545 S
O276 Mn252 2.385 1_545 S
O276 C254 1.234 1_545 S
O277 Mn252 2.209 . S
O277 Mn253 2.215 . S
O277 C254 1.283 . S
O278 Mn252 2.094 . S
O278 C256 1.240 . S
O279 Mn253 2.117 . S
O279 C256 1.264 . S
C280 C273 1.403 1_655 S
C280 C281 1.399 . S
C280 H286 0.929 . S
C281 C261 1.449 . S
C281 C280 1.399 . S
C281 H287 0.930 . S
H282 C262 0.931 . S
H283 C263 0.930 . S
H284 C271 0.931 . S
H285 C272 0.929 1_545 S
H286 C280 0.929 . S
H287 C281 0.930 . S
C288 C289 1.387 . S
C288 H292 0.950 . S
C288 C297 1.390 . S
C289 C288 1.387 . S
C289 C291 1.387 . S
H290 C297 0.950 . S
C291 C289 1.387 . S
C291 C293 1.390 . S
C291 H295 0.950 . S
H292 C288 0.950 . S
C293 C291 1.390 . S
C293 C294 1.387 . S
C293 H296 0.950 . S
C294 C293 1.387 . S
C294 C297 1.387 . S
H295 C291 0.950 . S
H296 C293 0.950 . S
C297 C288 1.390 . S
C297 H290 0.950 . S
C297 C294 1.387 . S
C298 C299 1.387 1_565 S
C298 H302 0.950 . S
C298 C307 1.390 . S
C299 C298 1.387 1_545 S
C299 C301 1.387 . S
H300 C307 0.950 . S
C301 C299 1.387 . S
C301 C303 1.390 . S
C301 H305 0.950 . S
H302 C298 0.950 . S
C303 C301 1.390 . S
C303 C304 1.387 1_545 S
C303 H306 0.950 . S
C304 C303 1.387 1_565 S
C304 C307 1.387 . S
H305 C301 0.950 . S
H306 C303 0.950 . S
C307 C298 1.390 . S
C307 H300 0.950 . S
C307 C304 1.387 . S
C308 C309 1.387 . S
C308 H312 0.950 . S
C308 C317 1.390 . S
C309 C308 1.387 . S
C309 C311 1.387 . S
H310 C317 0.950 . S
C311 C309 1.387 . S
C311 C313 1.390 . S
C311 H315 0.950 . S
H312 C308 0.950 . S
C313 C311 1.390 . S
C313 C314 1.387 . S
C313 H316 0.950 . S
C314 C313 1.387 . S
C314 C317 1.387 . S
H315 C311 0.950 . S
H316 C313 0.950 . S
C317 C308 1.390 . S
C317 H310 0.950 . S
C317 C314 1.387 . S
C318 C319 1.387 1_565 S
C318 H322 0.950 . S
C318 C327 1.390 . S
C319 C318 1.387 1_545 S
C319 C321 1.387 . S
H320 C327 0.950 . S
C321 C319 1.387 . S
C321 C323 1.390 1_545 S
C321 H325 0.950 . S
H322 C318 0.950 . S
C323 C321 1.390 1_565 S
C323 C324 1.387 . S
C323 H326 0.950 . S
C324 C323 1.387 . S
C324 C327 1.387 . S
H325 C321 0.950 . S
H326 C323 0.950 . S
C327 C318 1.390 . S
C327 H320 0.950 . S
C327 C324 1.387 . S
C328 C329 1.387 . S
C328 H332 0.950 . S
C328 C337 1.390 . S
C329 C328 1.387 . S
C329 C331 1.387 . S
H330 C337 0.950 . S
C331 C329 1.387 . S
C331 C333 1.390 . S
C331 H335 0.950 . S
H332 C328 0.950 . S
C333 C331 1.390 . S
C333 C334 1.387 . S
C333 H336 0.950 . S
C334 C333 1.387 . S
C334 C337 1.387 . S
H335 C331 0.950 . S
H336 C333 0.950 . S
C337 C328 1.390 . S
C337 H330 0.950 . S
C337 C334 1.387 . S
C338 C339 1.387 . S
C338 H342 0.950 . S
C338 C347 1.390 . S
C339 C338 1.387 . S
C339 C341 1.387 1_545 S
H340 C347 0.950 . S
C341 C339 1.387 1_565 S
C341 C343 1.390 . S
C341 H345 0.950 . S
H342 C338 0.950 . S
C343 C341 1.390 . S
C343 C344 1.387 . S
C343 H346 0.950 1_655 S
C344 C343 1.387 . S
C344 C347 1.387 1_565 S
H345 C341 0.950 . S
H346 C343 0.950 1_455 S
C347 C338 1.390 . S
C347 H340 0.950 . S
C347 C344 1.387 1_545 S
C348 C349 1.387 . S
C348 H352 0.950 . S
C348 C357 1.390 . S
C349 C348 1.387 . S
C349 C351 1.387 . S
H350 C357 0.950 1_655 S
C351 C349 1.387 . S
C351 C353 1.390 . S
C351 H355 0.950 . S
H352 C348 0.950 . S
C353 C351 1.390 . S
C353 C354 1.387 . S
C353 H356 0.950 . S
C354 C353 1.387 . S
C354 C357 1.387 . S
H355 C351 0.950 . S
H356 C353 0.950 . S
C357 C348 1.390 . S
C357 H350 0.950 1_455 S
C357 C354 1.387 . S
C358 C359 1.387 . S
C358 H362 0.950 . S
C358 C367 1.390 . S
C359 C358 1.387 . S
C359 C361 1.387 1_565 S
H360 C367 0.950 . S
C361 C359 1.387 1_545 S
C361 C363 1.390 . S
C361 H365 0.950 . S
H362 C358 0.950 . S
C363 C361 1.390 . S
C363 C364 1.387 . S
C363 H366 0.950 . S
C364 C363 1.387 . S
C364 C367 1.387 1_545 S
H365 C361 0.950 . S
H366 C363 0.950 . S
C367 C358 1.390 . S
C367 H360 0.950 . S
C367 C364 1.387 1_565 S
C368 C369 1.387 . S
C368 H372 0.950 . S
C368 C377 1.390 1_455 S
C369 C368 1.387 . S
C369 C371 1.387 . S
H370 C377 0.950 . S
C371 C369 1.387 . S
C371 C373 1.390 1_455 S
C371 H375 0.950 . S
H372 C368 0.950 . S
C373 C371 1.390 1_655 S
C373 C374 1.387 . S
C373 H376 0.950 . S
C374 C373 1.387 . S
C374 C377 1.387 . S
H375 C371 0.950 . S
H376 C373 0.950 . S
C377 C368 1.390 1_655 S
C377 H370 0.950 . S
C377 C374 1.387 . S
C378 C379 1.387 . S
C378 H382 0.950 . S
C378 C387 1.390 1_565 S
C379 C378 1.387 . S
C379 C381 1.387 . S
H380 C387 0.950 . S
C381 C379 1.387 . S
C381 C383 1.390 1_565 S
C381 H385 0.950 . S
H382 C378 0.950 . S
C383 C381 1.390 1_545 S
C383 C384 1.387 . S
C383 H386 0.950 . S
C384 C383 1.387 . S
C384 C387 1.387 . S
H385 C381 0.950 . S
H386 C383 0.950 . S
C387 C378 1.390 1_545 S
C387 H380 0.950 . S
C387 C384 1.387 . S
C388 C389 1.387 1_556 S
C388 H392 0.950 . S
C388 C397 1.390 . S
C389 C388 1.387 1_554 S
C389 C391 1.387 . S
H390 C397 0.950 . S
C391 C389 1.387 . S
C391 C393 1.390 . S
C391 H395 0.950 . S
H392 C388 0.950 . S
C393 C391 1.390 . S
C393 C394 1.387 1_554 S
C393 H396 0.950 . S
C394 C393 1.387 1_556 S
C394 C397 1.387 . S
H395 C391 0.950 . S
H396 C393 0.950 . S
C397 C388 1.390 . S
C397 H390 0.950 . S
C397 C394 1.387 . S
C398 C399 1.387 1_655 S
C398 H402 0.950 . S
C398 C407 1.390 1_565 S
C399 C398 1.387 1_455 S
C399 C401 1.387 1_556 S
H400 C407 0.950 . S
C401 C399 1.387 1_554 S
C401 C403 1.390 1_565 S
C401 H405 0.950 . S
H402 C398 0.950 . S
C403 C401 1.390 1_545 S
C403 C404 1.387 1_455 S
C403 H406 0.950 . S
C404 C403 1.387 1_655 S
C404 C407 1.387 1_554 S
H405 C401 0.950 . S
H406 C403 0.950 . S
C407 C398 1.390 1_545 S
C407 H400 0.950 . S
C407 C404 1.387 1_556 S
C408 C409 1.387 . S
C408 H412 0.950 . S
C408 C417 1.390 . S
C409 C408 1.387 . S
C409 C411 1.387 . S
H410 C417 0.950 . S
C411 C409 1.387 . S
C411 C413 1.390 . S
C411 H415 0.950 . S
H412 C408 0.950 . S
C413 C411 1.390 . S
C413 C414 1.387 . S
C413 H416 0.950 . S
C414 C413 1.387 . S
C414 C417 1.387 . S
H415 C411 0.950 . S
H416 C413 0.950 . S
C417 C408 1.390 . S
C417 H410 0.950 . S
C417 C414 1.387 . S
C418 C419 1.387 . S
C418 H422 0.950 . S
C418 C427 1.390 . S
C419 C418 1.387 . S
C419 C421 1.387 . S
H420 C427 0.950 . S
C421 C419 1.387 . S
C421 C423 1.390 . S
C421 H425 0.950 . S
H422 C418 0.950 . S
C423 C421 1.390 . S
C423 C424 1.387 . S
C423 H426 0.950 . S
C424 C423 1.387 . S
C424 C427 1.387 . S
H425 C421 0.950 . S
H426 C423 0.950 . S
C427 C418 1.390 . S
C427 H420 0.950 . S
C427 C424 1.387 . S
C428 C429 1.387 . S
C428 H432 0.950 . S
C428 C437 1.390 . S
C429 C428 1.387 . S
C429 C431 1.387 . S
H430 C437 0.950 . S
C431 C429 1.387 . S
C431 C433 1.390 . S
C431 H435 0.950 . S
H432 C428 0.950 . S
C433 C431 1.390 . S
C433 C434 1.387 . S
C433 H436 0.950 . S
C434 C433 1.387 . S
C434 C437 1.387 . S
H435 C431 0.950 . S
H436 C433 0.950 . S
C437 C428 1.390 . S
C437 H430 0.950 . S
C437 C434 1.387 . S
C438 C439 1.387 . S
C438 H442 0.950 . S
C438 C447 1.390 . S
C439 C438 1.387 . S
C439 C441 1.387 . S
H440 C447 0.950 . S
C441 C439 1.387 . S
C441 C443 1.390 . S
C441 H445 0.950 . S
H442 C438 0.950 . S
C443 C441 1.390 . S
C443 C444 1.387 . S
C443 H446 0.950 . S
C444 C443 1.387 . S
C444 C447 1.387 . S
H445 C441 0.950 . S
H446 C443 0.950 . S
C447 C438 1.390 . S
C447 H440 0.950 . S
C447 C444 1.387 . S
C289 C4 1.375 . S
C294 C74 1.392 . S
C299 C110 1.392 1_455 S
C304 C40 1.375 . S
C309 C76 1.375 . S
C314 C2 1.392 1_655 S
C319 C112 1.376 . S
C324 C38 1.392 . S
C329 C218 1.392 . S
C334 C148 1.377 . S
C339 C184 1.376 . S
C344 C254 1.393 1_655 S
C349 C220 1.377 . S
C354 C146 1.392 1_455 S
C359 C256 1.376 . S
C364 C182 1.393 . S
C369 C3 1.528 . S
C374 C147 1.528 . S
C379 C39 1.528 . S
C384 C183 1.528 . S
C389 C75 1.528 . S
C394 C219 1.528 . S
C399 C255 1.528 . S
C404 C111 1.528 . S
C409 C14 1.447 . S
C414 C50 1.447 . S
C419 C122 1.447 . S
C424 C86 1.447 . S
C429 C194 1.448 . S
C434 C158 1.448 . S
C439 C230 1.448 . S
C444 C266 1.448 . S
