# Generated by pormake.
# Topology unm, (4)-cn, num edge types: 1
# Building blocks:
#     Node 0, Type 0, BuildingBlock: KUFVIS_clean_sbu_0, # of connection points: 4
#     Node 1, Type 0, BuildingBlock: KUFVIS_clean_sbu_0, # of connection points: 4
#     Node 2, Type 0, BuildingBlock: KUFVIS_clean_sbu_0, # of connection points: 4
#     Node 3, Type 0, BuildingBlock: KUFVIS_clean_sbu_0, # of connection points: 4
#     Node 4, Type 0, BuildingBlock: KUFVIS_clean_sbu_0, # of connection points: 4
#     Node 5, Type 0, BuildingBlock: KUFVIS_clean_sbu_0, # of connection points: 4
#     Node 6, Type 0, BuildingBlock: KUFVIS_clean_sbu_0, # of connection points: 4
#     Node 7, Type 0, BuildingBlock: KUFVIS_clean_sbu_0, # of connection points: 4
#     Edge 8, Type (0, 0), None
#     Edge 9, Type (0, 0), None
#     Edge 10, Type (0, 0), None
#     Edge 11, Type (0, 0), None
#     Edge 12, Type (0, 0), None
#     Edge 13, Type (0, 0), None
#     Edge 14, Type (0, 0), None
#     Edge 15, Type (0, 0), None
#     Edge 16, Type (0, 0), None
#     Edge 17, Type (0, 0), None
#     Edge 18, Type (0, 0), None
#     Edge 19, Type (0, 0), None
#     Edge 20, Type (0, 0), None
#     Edge 21, Type (0, 0), None
#     Edge 22, Type (0, 0), None
#     Edge 23, Type (0, 0), None
# Relax obj value: 0.113
# Max RMSD: 0.129
# Mean RMSD: 0.129
data_MOF--net-unm--node1-KUFVIS_clean_sbu_0--edge1-none
_symmetry_space_group_name_H-M    P1
_symmetry_Int_Tables_number       1
_symmetry_cell_setting            triclinic
loop_
_symmetry_equiv_pos_as_xyz
'x, y, z'
_cell_length_a     11.399539
_cell_length_b     11.386175
_cell_length_c     23.425681
_cell_angle_alpha  90.000405
_cell_angle_beta   90.001193
_cell_angle_gamma 88.084552
loop_
_atom_site_label
_atom_site_type_symbol
_atom_site_fract_x
_atom_site_fract_y
_atom_site_fract_z
_atom_type_partial_charge
Mn0 Mn 0.10721 0.25772 0.10055 0.0
Mn1 Mn 0.31863 0.44498 0.04819 0.0
C2 C 0.03457 0.44436 0.06227 0.0
C3 C 0.972 0.18489 0.18552 0.0
C4 C 0.22996 0.24772 -0.02134 0.0
O5 O 0.28574 0.19514 0.13449 0.0
O6 O 0.39296 0.35005 0.11594 0.0
C7 C 0.32885 0.58563 0.14804 0.0
N8 N 0.32942 0.58287 0.09185 0.0
C9 C 0.30061 0.81615 0.09348 0.0
C10 C 0.29395 0.8029 0.1506 0.0
C11 C 0.31342 0.68954 0.17619 0.0
C12 C 0.33417 0.68179 0.06249 0.0
H13 H 0.34497 0.50697 0.17201 0.0
C14 C 0.38129 0.25418 0.14457 0.0
O15 O 0.01133 0.1202 0.14354 0.0
O16 O 0.00872 0.28835 0.17834 0.0
N17 N 0.28703 0.54611 -0.01991 0.0
C18 C 0.21379 0.51394 0.9309 0.0
C19 C 0.17252 0.59841 0.88064 0.0
C20 C 0.21912 0.81501 0.88081 0.0
C21 C 0.29323 0.84842 0.93446 0.0
C22 C 0.33745 0.66067 -0.00708 0.0
H23 H 0.16262 0.43742 0.93421 0.0
O24 O 0.97061 0.35483 0.06966 0.0
O25 O 0.1465 0.42378 0.07647 0.0
O26 O 0.14913 0.20772 0.0123 0.0
O27 O 0.31195 0.30656 0.00013 0.0
C28 C 0.26273 0.96957 -0.01955 0.0
C29 C 0.26747 0.95247 0.05675 0.0
H30 H 0.28363 0.88327 0.17449 0.0
H31 H 0.32571 0.6728 0.22039 0.0
H32 H 0.11708 0.54831 0.85164 0.0
H33 H 0.18353 0.88961 0.85605 0.0
H34 H 0.20677 0.03569 -0.03697 0.0
H35 H 0.2341 0.02466 0.08212 0.0
Mn36 Mn 0.20606 0.62821 0.5975 0.0
Mn37 Mn 0.98254 0.8117 0.55577 0.0
C38 C 0.05152 0.54238 0.55746 0.0
C39 C 0.23067 0.46843 0.69081 0.0
C40 C 0.19108 0.77237 0.47568 0.0
O41 O 0.2258 0.80864 0.63279 0.0
O42 O 0.05226 0.8961 0.62552 0.0
C43 C 0.81097 0.79917 0.65437 0.0
N44 N 0.83668 0.80601 0.59893 0.0
C45 C 0.6029 0.82481 0.58673 0.0
C46 C 0.59066 0.82194 0.64283 0.0
C47 C 0.69026 0.804 0.67473 0.0
C48 C 0.74937 0.82922 0.56418 0.0
H49 H 0.88572 0.79845 0.68233 0.0
C50 C 0.15298 0.89062 0.64976 0.0
O51 O 0.30571 0.49423 0.65257 0.0
O52 O 0.1448 0.5376 0.67802 0.0
N53 N 0.90303 0.74921 0.49044 0.0
C54 C 0.94278 0.65687 0.44963 0.0
C55 C 0.86331 0.60298 0.40094 0.0
C56 C 0.65143 0.67665 0.38557 0.0
C57 C 0.6147 0.77321 0.43052 0.0
C58 C 0.78968 0.80968 0.49588 0.0
H59 H 0.03098 0.62095 0.45281 0.0
O60 O 0.15275 0.49024 0.55869 0.0
O61 O 0.04119 0.64755 0.58051 0.0
O62 O 0.24322 0.69155 0.5081 0.0
O63 O 0.11597 0.841 0.50085 0.0
C64 C 0.4831 0.77616 0.46919 0.0
C65 C 0.47943 0.80197 0.54316 0.0
H66 H 0.5045 0.83142 0.66171 0.0
H67 H 0.66654 0.81091 0.71867 0.0
H68 H 0.91369 0.53402 0.37855 0.0
H69 H 0.58063 0.64655 0.35802 0.0
H70 H 0.41227 0.73653 0.45161 0.0
H71 H 0.39653 0.79426 0.56453 0.0
Mn72 Mn 0.89906 0.75075 0.10054 0.0
Mn73 Mn 0.68765 0.56345 0.04818 0.0
C74 C 0.97174 0.56413 0.06233 0.0
C75 C 0.03427 0.82361 0.1855 0.0
C76 C 0.77631 0.7607 -0.02136 0.0
O77 O 0.7205 0.81333 0.13446 0.0
O78 O 0.61332 0.65838 0.11593 0.0
C79 C 0.67739 0.4228 0.14805 0.0
N80 N 0.67686 0.42556 0.09186 0.0
C81 C 0.7057 0.19229 0.09349 0.0
C82 C 0.71234 0.20554 0.15061 0.0
C83 C 0.69284 0.3189 0.1762 0.0
C84 C 0.67214 0.32664 0.0625 0.0
H85 H 0.66124 0.50146 0.17202 0.0
C86 C 0.62497 0.75427 0.14454 0.0
O87 O 0.99492 0.8883 0.14353 0.0
O88 O 0.99759 0.72014 0.17832 0.0
N89 N 0.71926 0.46232 -0.01991 0.0
C90 C 0.79249 0.49448 0.93091 0.0
C91 C 0.83376 0.41001 0.88064 0.0
C92 C 0.78717 0.19341 0.88081 0.0
C93 C 0.71306 0.16 0.93447 0.0
C94 C 0.66885 0.34776 -0.00708 0.0
H95 H 0.84366 0.571 0.93421 0.0
O96 O 0.0357 0.65366 0.06967 0.0
O97 O 0.85977 0.58468 0.07647 0.0
O98 O 0.85714 0.8007 0.01228 0.0
O99 O 0.69433 0.70185 0.00011 0.0
C100 C 0.74357 0.03885 -0.01954 0.0
C101 C 0.73885 0.05596 0.05677 0.0
H102 H 0.72266 0.12517 0.17451 0.0
H103 H 0.68055 0.33565 0.2204 0.0
H104 H 0.88919 0.4601 0.85164 0.0
H105 H 0.82276 0.11881 0.85606 0.0
H106 H 0.79952 0.97274 -0.03696 0.0
H107 H 0.77224 0.98379 0.08213 0.0
Mn108 Mn 0.80035 0.38017 0.59752 0.0
Mn109 Mn 0.02382 0.19659 0.55577 0.0
C110 C 0.95481 0.46591 0.55746 0.0
C111 C 0.77563 0.53994 0.69081 0.0
C112 C 0.81526 0.236 0.4757 0.0
O113 O 0.78059 0.19978 0.63282 0.0
O114 O 0.95405 0.1122 0.62552 0.0
C115 C 0.19534 0.20919 0.65439 0.0
N116 N 0.16967 0.20219 0.59895 0.0
C117 C 0.40345 0.1832 0.5868 0.0
C118 C 0.41565 0.18621 0.6429 0.0
C119 C 0.31604 0.20435 0.67477 0.0
C120 C 0.25698 0.17887 0.56423 0.0
H121 H 0.12056 0.21004 0.68233 0.0
C122 C 0.85336 0.11774 0.64977 0.0
O123 O 0.70061 0.5141 0.65257 0.0
O124 O 0.86155 0.47081 0.67803 0.0
N125 N 0.1034 0.25904 0.49047 0.0
C126 C 0.06373 0.35144 0.44967 0.0
C127 C 0.14327 0.40533 0.40101 0.0
C128 C 0.35512 0.33156 0.38567 0.0
C129 C 0.39177 0.23494 0.4306 0.0
C130 C 0.21672 0.19849 0.49592 0.0
H131 H 0.97553 0.38737 0.45283 0.0
O132 O 0.85362 0.51812 0.5587 0.0
O133 O 0.96522 0.36075 0.58053 0.0
O134 O 0.76313 0.3168 0.50814 0.0
O135 O 0.8904 0.16737 0.50085 0.0
C136 C 0.52333 0.2319 0.46929 0.0
C137 C 0.52695 0.20602 0.54325 0.0
H138 H 0.50179 0.17675 0.6618 0.0
H139 H 0.33974 0.19751 0.71871 0.0
H140 H 0.09296 0.47435 0.37863 0.0
H141 H 0.42597 0.36164 0.35814 0.0
H142 H 0.59415 0.27161 0.45175 0.0
H143 H 0.60984 0.21375 0.56464 0.0
Mn144 Mn 0.63104 0.20386 0.2908 0.0
Mn145 Mn 0.81938 0.98359 0.33484 0.0
C146 C 0.54438 0.0513 0.33545 0.0
C147 C 0.46604 0.23124 0.20054 0.0
C148 C 0.79045 0.20708 0.40789 0.0
O149 O 0.80966 0.22325 0.25503 0.0
O150 O 0.89557 0.04835 0.26157 0.0
C151 C 0.80353 0.80333 0.24053 0.0
N152 N 0.80473 0.83187 0.29596 0.0
C153 C 0.77216 0.60316 0.31134 0.0
C154 C 0.78582 0.58576 0.2556 0.0
C155 C 0.80055 0.68223 0.22145 0.0
C156 C 0.80899 0.74379 0.33237 0.0
H157 H 0.81388 0.87509 0.21148 0.0
C158 C 0.89079 0.15011 0.238 0.0
O159 O 0.4947 0.30624 0.23851 0.0
O160 O 0.53437 0.14341 0.21212 0.0
N161 N 0.76494 0.91236 0.40385 0.0
C162 C 0.68563 0.97187 0.4452 0.0
C163 C 0.62225 0.91085 0.49627 0.0
C164 C 0.64686 0.68936 0.51378 0.0
C165 C 0.73119 0.62988 0.4683 0.0
C166 C 0.80218 0.78885 0.39984 0.0
H167 H 0.65895 0.06051 0.43857 0.0
O168 O 0.49496 0.15297 0.33189 0.0
O169 O 0.65025 0.03892 0.31234 0.0
O170 O 0.70352 0.24904 0.3765 0.0
O171 O 0.85568 0.12564 0.38485 0.0
C172 C 0.70001 0.49989 0.43088 0.0
C173 C 0.72084 0.49001 0.35563 0.0
H174 H 0.7902 0.49761 0.2394 0.0
H175 H 0.81258 0.65719 0.17765 0.0
H176 H 0.58681 0.97948 0.52345 0.0
H177 H 0.60761 0.62991 0.54468 0.0
H178 H 0.63896 0.44426 0.45069 0.0
H179 H 0.68285 0.42041 0.33183 0.0
Mn180 Mn 0.25569 0.10911 0.79 0.0
Mn181 Mn 0.44362 0.31999 0.84229 0.0
C182 C 0.4431 0.03536 0.82787 0.0
C183 C 0.18568 0.97214 0.70309 0.0
C184 C 0.24588 0.23184 0.9119 0.0
O185 O 0.19124 0.29227 0.7594 0.0
O186 O 0.34983 0.39547 0.77482 0.0
C187 C 0.58239 0.32509 0.74191 0.0
N188 N 0.58066 0.32939 0.79818 0.0
C189 C 0.81356 0.3008 0.79623 0.0
C190 C 0.79954 0.2929 0.73906 0.0
C191 C 0.68597 0.31195 0.71357 0.0
C192 C 0.67975 0.33515 0.82737 0.0
H193 H 0.50306 0.33632 0.71775 0.0
C194 C 0.25189 0.38648 0.74791 0.0
O195 O 0.11956 0.01385 0.74407 0.0
O196 O 0.28892 0.00611 0.71259 0.0
N197 N 0.54455 0.28834 0.91005 0.0
C198 C 0.51217 0.21505 -0.04088 0.0
C199 C 0.59644 0.17314 0.00916 0.0
C200 C 0.81318 0.21878 0.00896 0.0
C201 C 0.84672 0.29313 -0.04469 0.0
C202 C 0.65906 0.33845 0.89706 0.0
H203 H 0.43545 0.16428 -0.04417 0.0
O204 O 0.35395 0.97142 0.81982 0.0
O205 O 0.42149 0.14765 0.81467 0.0
O206 O 0.20635 0.15045 0.87832 0.0
O207 O 0.30546 0.31364 0.89057 0.0
C208 C 0.96742 0.26212 0.90916 0.0
C209 C 0.94985 0.26696 0.83281 0.0
H210 H 0.87964 0.28231 0.71507 0.0
H211 H 0.66807 0.32597 0.66949 0.0
H212 H 0.54614 0.11781 0.03814 0.0
H213 H 0.88752 0.18315 0.03384 0.0
H214 H 0.03372 0.20634 0.92668 0.0
H215 H 0.02104 0.23185 0.8074 0.0
Mn216 Mn 0.37524 0.80451 0.29078 0.0
Mn217 Mn 0.18696 0.02479 0.33485 0.0
C218 C 0.46192 0.95692 0.33544 0.0
C219 C 0.54024 0.77719 0.20052 0.0
C220 C 0.21581 0.80127 0.40786 0.0
O221 O 0.19661 0.78521 0.25501 0.0
O222 O 0.11072 0.96012 0.26157 0.0
C223 C 0.20275 0.20513 0.24056 0.0
N224 N 0.20169 0.17652 0.29599 0.0
C225 C 0.23449 0.40518 0.31143 0.0
C226 C 0.22074 0.42266 0.25569 0.0
C227 C 0.20578 0.32625 0.22153 0.0
C228 C 0.19756 0.26456 0.33243 0.0
H229 H 0.19228 0.13342 0.2115 0.0
C230 C 0.11549 0.85837 0.23798 0.0
O231 O 0.51157 0.70217 0.23848 0.0
O232 O 0.47191 0.86501 0.21212 0.0
N233 N 0.24147 0.0959 0.40387 0.0
C234 C 0.32074 0.03631 0.44521 0.0
C235 C 0.38411 0.09724 0.49632 0.0
C236 C 0.35958 0.31873 0.51387 0.0
C237 C 0.27532 0.37829 0.46839 0.0
C238 C 0.2043 0.21943 0.39988 0.0
H239 H 0.34743 0.94768 0.43857 0.0
O240 O 0.51136 0.85526 0.33189 0.0
O241 O 0.35606 0.96944 0.31233 0.0
O242 O 0.30272 0.75931 0.37646 0.0
O243 O 0.15059 0.88272 0.38483 0.0
C244 C 0.30661 0.50829 0.43101 0.0
C245 C 0.28585 0.51825 0.35576 0.0
H246 H 0.21639 0.51083 0.23953 0.0
H247 H 0.1937 0.35134 0.17773 0.0
H248 H 0.41949 0.02858 0.52349 0.0
H249 H 0.39884 0.37814 0.5448 0.0
H250 H 0.36768 0.56385 0.45087 0.0
H251 H 0.324 0.5878 0.33199 0.0
Mn252 Mn 0.75059 0.8993 0.78999 0.0
Mn253 Mn 0.56266 0.68841 0.84228 0.0
C254 C 0.56322 0.97307 0.8278 0.0
C255 C 0.82064 0.03623 0.70309 0.0
C256 C 0.76039 0.77658 0.91189 0.0
O257 O 0.81504 0.71614 0.75939 0.0
O258 O 0.65645 0.61293 0.77481 0.0
C259 C 0.42386 0.68329 0.74191 0.0
N260 N 0.42561 0.67901 0.79818 0.0
C261 C 0.19271 0.70761 0.79622 0.0
C262 C 0.20671 0.7155 0.73906 0.0
C263 C 0.32028 0.69643 0.71357 0.0
C264 C 0.32652 0.67326 0.82736 0.0
H265 H 0.50319 0.67203 0.71775 0.0
C266 C 0.75438 0.62193 0.7479 0.0
O267 O 0.88674 0.99453 0.74408 0.0
O268 O 0.71739 1.00225 0.71257 0.0
N269 N 0.46173 0.72007 0.91004 0.0
C270 C 0.49412 0.79337 -0.04089 0.0
C271 C 0.40986 0.83529 0.00915 0.0
C272 C 0.19312 0.78965 0.00895 0.0
C273 C 0.15957 0.7153 -0.0447 0.0
C274 C 0.34722 0.66996 0.89706 0.0
H275 H 0.57083 0.84415 -0.04419 0.0
O276 O 0.65237 0.03702 0.81979 0.0
O277 O 0.5848 0.86074 0.81465 0.0
O278 O 0.79992 0.85797 0.87831 0.0
O279 O 0.70083 0.69477 0.89056 0.0
C280 C 0.03886 0.7463 0.90915 0.0
C281 C 0.05642 0.74146 0.83281 0.0
H282 H 0.12662 0.72609 0.71506 0.0
H283 H 0.33817 0.68237 0.66949 0.0
H284 H 0.46016 0.89061 0.03812 0.0
H285 H 0.11878 0.8253 0.03383 0.0
H286 H 0.97256 0.80209 0.92667 0.0
H287 H 0.98523 0.77657 0.8074 0.0
loop_
_geom_bond_atom_site_label_1
_geom_bond_atom_site_label_2
_geom_bond_distance
_geom_bond_site_symmetry_2
_ccdc_geom_bond_type
Mn0 O5 2.095 . S
Mn0 O15 2.162 1_455 S
Mn0 O16 2.297 1_455 S
Mn0 O24 2.385 1_455 S
Mn0 O25 2.209 . S
Mn0 O26 2.094 . S
Mn1 O6 2.121 . S
Mn1 N8 2.257 . S
Mn1 N17 2.282 . S
Mn1 O25 2.215 . S
Mn1 O27 2.117 . S
C2 O24 1.234 1_455 S
C2 O25 1.283 . S
C3 O15 1.281 . S
C3 O16 1.236 . S
C4 O26 1.240 . S
C4 O27 1.264 . S
O5 Mn0 2.095 . S
O5 C14 1.250 . S
O6 Mn1 2.121 . S
O6 C14 1.258 . S
C7 N8 1.326 . S
C7 C11 1.460 . S
C7 H13 0.929 . S
N8 Mn1 2.257 . S
N8 C7 1.326 . S
N8 C12 1.362 . S
C9 C10 1.258 . S
C9 C12 1.431 . S
C9 C29 1.449 . S
C10 C9 1.258 . S
C10 C11 1.477 . S
C10 H30 0.931 . S
C11 C7 1.460 . S
C11 C10 1.477 . S
C11 H31 0.930 . S
C12 N8 1.362 . S
C12 C9 1.431 . S
C12 C22 1.476 . S
H13 C7 0.929 . S
C14 O5 1.250 . S
C14 O6 1.258 . S
O15 Mn0 2.162 1_655 S
O15 C3 1.281 . S
O16 Mn0 2.297 1_655 S
O16 C3 1.236 . S
N17 Mn1 2.282 . S
N17 C18 1.328 1_554 S
N17 C22 1.318 . S
C18 N17 1.328 1_556 S
C18 C19 1.457 . S
C18 H23 0.929 . S
C19 C18 1.457 . S
C19 C20 1.291 . S
C19 H32 0.931 . S
C20 C19 1.291 . S
C20 C21 1.373 1_556 S
C20 H33 0.929 . S
C21 C20 1.373 1_554 S
C21 C22 1.396 . S
C21 C28 1.403 . S
C22 C12 1.476 . S
C22 N17 1.318 . S
C22 C21 1.396 . S
H23 C18 0.929 . S
O24 Mn0 2.385 1_655 S
O24 C2 1.234 1_655 S
O25 Mn0 2.209 . S
O25 Mn1 2.215 . S
O25 C2 1.283 . S
O26 Mn0 2.094 . S
O26 C4 1.240 . S
O27 Mn1 2.117 . S
O27 C4 1.264 . S
C28 C21 1.403 . S
C28 C29 1.399 . S
C28 H34 0.937 . S
C29 C9 1.449 . S
C29 C28 1.399 . S
C29 H35 0.930 . S
H30 C10 0.931 . S
H31 C11 0.930 . S
H32 C19 0.931 . S
H33 C20 0.929 . S
H34 C28 0.937 . S
H35 C29 0.930 . S
Mn36 O41 2.095 . S
Mn36 O51 2.162 . S
Mn36 O52 2.297 . S
Mn36 O60 2.385 . S
Mn36 O61 2.209 . S
Mn36 O62 2.094 . S
Mn37 O42 2.121 . S
Mn37 N44 2.257 1_455 S
Mn37 N53 2.282 1_455 S
Mn37 O61 2.215 . S
Mn37 O63 2.117 . S
C38 O60 1.234 . S
C38 O61 1.283 . S
C39 O51 1.281 . S
C39 O52 1.236 . S
C40 O62 1.240 . S
C40 O63 1.264 . S
O41 Mn36 2.095 . S
O41 C50 1.250 . S
O42 Mn37 2.121 . S
O42 C50 1.258 . S
C43 N44 1.326 . S
C43 C47 1.460 . S
C43 H49 0.929 . S
N44 Mn37 2.257 1_655 S
N44 C43 1.326 . S
N44 C48 1.362 . S
C45 C46 1.258 . S
C45 C48 1.431 . S
C45 C65 1.449 . S
C46 C45 1.258 . S
C46 C47 1.477 . S
C46 H66 0.931 . S
C47 C43 1.460 . S
C47 C46 1.477 . S
C47 H67 0.930 . S
C48 N44 1.362 . S
C48 C45 1.431 . S
C48 C58 1.476 . S
H49 C43 0.929 . S
C50 O41 1.250 . S
C50 O42 1.258 . S
O51 Mn36 2.162 . S
O51 C39 1.281 . S
O52 Mn36 2.297 . S
O52 C39 1.236 . S
N53 Mn37 2.282 1_655 S
N53 C54 1.328 . S
N53 C58 1.318 . S
C54 N53 1.328 . S
C54 C55 1.457 . S
C54 H59 0.929 1_655 S
C55 C54 1.457 . S
C55 C56 1.291 . S
C55 H68 0.931 . S
C56 C55 1.291 . S
C56 C57 1.373 . S
C56 H69 0.929 . S
C57 C56 1.373 . S
C57 C58 1.396 . S
C57 C64 1.403 . S
C58 C48 1.476 . S
C58 N53 1.318 . S
C58 C57 1.396 . S
H59 C54 0.929 1_455 S
O60 Mn36 2.385 . S
O60 C38 1.234 . S
O61 Mn36 2.209 . S
O61 Mn37 2.215 . S
O61 C38 1.283 . S
O62 Mn36 2.094 . S
O62 C40 1.240 . S
O63 Mn37 2.117 . S
O63 C40 1.264 . S
C64 C57 1.403 . S
C64 C65 1.399 . S
C64 H70 0.929 . S
C65 C45 1.449 . S
C65 C64 1.399 . S
C65 H71 0.930 . S
H66 C46 0.931 . S
H67 C47 0.930 . S
H68 C55 0.931 . S
H69 C56 0.929 . S
H70 C64 0.929 . S
H71 C65 0.930 . S
Mn72 O77 2.095 . S
Mn72 O87 2.162 1_655 S
Mn72 O88 2.297 1_655 S
Mn72 O96 2.385 1_655 S
Mn72 O97 2.209 . S
Mn72 O98 2.094 . S
Mn73 O78 2.121 . S
Mn73 N80 2.257 . S
Mn73 N89 2.282 . S
Mn73 O97 2.215 . S
Mn73 O99 2.117 . S
C74 O96 1.234 1_655 S
C74 O97 1.283 . S
C75 O87 1.281 . S
C75 O88 1.236 . S
C76 O98 1.240 . S
C76 O99 1.264 . S
O77 Mn72 2.095 . S
O77 C86 1.250 . S
O78 Mn73 2.121 . S
O78 C86 1.258 . S
C79 N80 1.326 . S
C79 C83 1.460 . S
C79 H85 0.929 . S
N80 Mn73 2.257 . S
N80 C79 1.326 . S
N80 C84 1.362 . S
C81 C82 1.258 . S
C81 C84 1.431 . S
C81 C101 1.449 . S
C82 C81 1.258 . S
C82 C83 1.477 . S
C82 H102 0.931 . S
C83 C79 1.460 . S
C83 C82 1.477 . S
C83 H103 0.930 . S
C84 N80 1.362 . S
C84 C81 1.431 . S
C84 C94 1.476 . S
H85 C79 0.929 . S
C86 O77 1.250 . S
C86 O78 1.258 . S
O87 Mn72 2.162 1_455 S
O87 C75 1.281 . S
O88 Mn72 2.297 1_455 S
O88 C75 1.236 . S
N89 Mn73 2.282 . S
N89 C90 1.328 1_554 S
N89 C94 1.318 . S
C90 N89 1.328 1_556 S
C90 C91 1.457 . S
C90 H95 0.929 . S
C91 C90 1.457 . S
C91 C92 1.291 . S
C91 H104 0.931 . S
C92 C91 1.291 . S
C92 C93 1.373 1_556 S
C92 H105 0.929 . S
C93 C92 1.373 1_554 S
C93 C94 1.396 . S
C93 C100 1.403 . S
C94 C84 1.476 . S
C94 N89 1.318 . S
C94 C93 1.396 . S
H95 C90 0.929 . S
O96 Mn72 2.385 1_455 S
O96 C74 1.234 1_455 S
O97 Mn72 2.209 . S
O97 Mn73 2.215 . S
O97 C74 1.283 . S
O98 Mn72 2.094 . S
O98 C76 1.240 . S
O99 Mn73 2.117 . S
O99 C76 1.264 . S
C100 C93 1.403 . S
C100 C101 1.399 . S
C100 H106 0.937 . S
C101 C81 1.449 . S
C101 C100 1.399 . S
C101 H107 0.930 . S
H102 C82 0.931 . S
H103 C83 0.930 . S
H104 C91 0.931 . S
H105 C92 0.929 . S
H106 C100 0.937 . S
H107 C101 0.930 . S
Mn108 O113 2.095 . S
Mn108 O123 2.162 . S
Mn108 O124 2.297 . S
Mn108 O132 2.385 . S
Mn108 O133 2.209 . S
Mn108 O134 2.094 . S
Mn109 O114 2.121 . S
Mn109 N116 2.257 1_655 S
Mn109 N125 2.282 1_655 S
Mn109 O133 2.215 . S
Mn109 O135 2.117 . S
C110 O132 1.234 . S
C110 O133 1.283 . S
C111 O123 1.281 . S
C111 O124 1.236 . S
C112 O134 1.240 . S
C112 O135 1.264 . S
O113 Mn108 2.095 . S
O113 C122 1.250 . S
O114 Mn109 2.121 . S
O114 C122 1.258 . S
C115 N116 1.326 . S
C115 C119 1.460 . S
C115 H121 0.929 . S
N116 Mn109 2.257 1_455 S
N116 C115 1.326 . S
N116 C120 1.362 . S
C117 C118 1.258 . S
C117 C120 1.431 . S
C117 C137 1.449 . S
C118 C117 1.258 . S
C118 C119 1.477 . S
C118 H138 0.931 . S
C119 C115 1.460 . S
C119 C118 1.477 . S
C119 H139 0.930 . S
C120 N116 1.362 . S
C120 C117 1.431 . S
C120 C130 1.476 . S
H121 C115 0.929 . S
C122 O113 1.250 . S
C122 O114 1.258 . S
O123 Mn108 2.162 . S
O123 C111 1.281 . S
O124 Mn108 2.297 . S
O124 C111 1.236 . S
N125 Mn109 2.282 1_455 S
N125 C126 1.328 . S
N125 C130 1.318 . S
C126 N125 1.328 . S
C126 C127 1.457 . S
C126 H131 0.929 1_455 S
C127 C126 1.457 . S
C127 C128 1.291 . S
C127 H140 0.931 . S
C128 C127 1.291 . S
C128 C129 1.373 . S
C128 H141 0.929 . S
C129 C128 1.373 . S
C129 C130 1.396 . S
C129 C136 1.403 . S
C130 C120 1.476 . S
C130 N125 1.318 . S
C130 C129 1.396 . S
H131 C126 0.929 1_655 S
O132 Mn108 2.385 . S
O132 C110 1.234 . S
O133 Mn108 2.209 . S
O133 Mn109 2.215 . S
O133 C110 1.283 . S
O134 Mn108 2.094 . S
O134 C112 1.240 . S
O135 Mn109 2.117 . S
O135 C112 1.264 . S
C136 C129 1.403 . S
C136 C137 1.399 . S
C136 H142 0.929 . S
C137 C117 1.449 . S
C137 C136 1.399 . S
C137 H143 0.930 . S
H138 C118 0.931 . S
H139 C119 0.930 . S
H140 C127 0.931 . S
H141 C128 0.929 . S
H142 C136 0.929 . S
H143 C137 0.930 . S
Mn144 O149 2.095 . S
Mn144 O159 2.162 . S
Mn144 O160 2.297 . S
Mn144 O168 2.385 . S
Mn144 O169 2.209 . S
Mn144 O170 2.094 . S
Mn145 O150 2.121 . S
Mn145 N152 2.257 1_545 S
Mn145 N161 2.282 1_545 S
Mn145 O169 2.215 . S
Mn145 O171 2.117 . S
C146 O168 1.234 . S
C146 O169 1.283 . S
C147 O159 1.281 . S
C147 O160 1.236 . S
C148 O170 1.240 . S
C148 O171 1.264 . S
O149 Mn144 2.095 . S
O149 C158 1.250 . S
O150 Mn145 2.121 . S
O150 C158 1.258 . S
C151 N152 1.326 . S
C151 C155 1.460 . S
C151 H157 0.929 . S
N152 Mn145 2.257 1_565 S
N152 C151 1.326 . S
N152 C156 1.362 . S
C153 C154 1.258 . S
C153 C156 1.431 . S
C153 C173 1.449 . S
C154 C153 1.258 . S
C154 C155 1.477 . S
C154 H174 0.931 . S
C155 C151 1.460 . S
C155 C154 1.477 . S
C155 H175 0.930 . S
C156 N152 1.362 . S
C156 C153 1.431 . S
C156 C166 1.476 . S
H157 C151 0.929 . S
C158 O149 1.250 . S
C158 O150 1.258 . S
O159 Mn144 2.162 . S
O159 C147 1.281 . S
O160 Mn144 2.297 . S
O160 C147 1.236 . S
N161 Mn145 2.282 1_565 S
N161 C162 1.328 . S
N161 C166 1.318 . S
C162 N161 1.328 . S
C162 C163 1.457 . S
C162 H167 0.929 1_565 S
C163 C162 1.457 . S
C163 C164 1.291 . S
C163 H176 0.931 . S
C164 C163 1.291 . S
C164 C165 1.373 . S
C164 H177 0.929 . S
C165 C164 1.373 . S
C165 C166 1.396 . S
C165 C172 1.403 . S
C166 C156 1.476 . S
C166 N161 1.318 . S
C166 C165 1.396 . S
H167 C162 0.929 1_545 S
O168 Mn144 2.385 . S
O168 C146 1.234 . S
O169 Mn144 2.209 . S
O169 Mn145 2.215 . S
O169 C146 1.283 . S
O170 Mn144 2.094 . S
O170 C148 1.240 . S
O171 Mn145 2.117 . S
O171 C148 1.264 . S
C172 C165 1.403 . S
C172 C173 1.399 . S
C172 H178 0.929 . S
C173 C153 1.449 . S
C173 C172 1.399 . S
C173 H179 0.930 . S
H174 C154 0.931 . S
H175 C155 0.930 . S
H176 C163 0.931 . S
H177 C164 0.929 . S
H178 C172 0.929 . S
H179 C173 0.930 . S
Mn180 O185 2.095 . S
Mn180 O195 2.162 1_545 S
Mn180 O196 2.297 1_545 S
Mn180 O204 2.385 1_545 S
Mn180 O205 2.209 . S
Mn180 O206 2.094 . S
Mn181 O186 2.121 . S
Mn181 N188 2.257 . S
Mn181 N197 2.282 . S
Mn181 O205 2.215 . S
Mn181 O207 2.117 . S
C182 O204 1.234 1_545 S
C182 O205 1.283 . S
C183 O195 1.281 . S
C183 O196 1.236 . S
C184 O206 1.240 . S
C184 O207 1.264 . S
O185 Mn180 2.095 . S
O185 C194 1.250 . S
O186 Mn181 2.121 . S
O186 C194 1.258 . S
C187 N188 1.326 . S
C187 C191 1.460 . S
C187 H193 0.929 . S
N188 Mn181 2.257 . S
N188 C187 1.326 . S
N188 C192 1.362 . S
C189 C190 1.258 . S
C189 C192 1.431 . S
C189 C209 1.449 . S
C190 C189 1.258 . S
C190 C191 1.477 . S
C190 H210 0.931 . S
C191 C187 1.460 . S
C191 C190 1.477 . S
C191 H211 0.930 . S
C192 N188 1.362 . S
C192 C189 1.431 . S
C192 C202 1.476 . S
H193 C187 0.929 . S
C194 O185 1.250 . S
C194 O186 1.258 . S
O195 Mn180 2.162 1_565 S
O195 C183 1.281 . S
O196 Mn180 2.297 1_565 S
O196 C183 1.236 . S
N197 Mn181 2.282 . S
N197 C198 1.328 1_556 S
N197 C202 1.318 . S
C198 N197 1.328 1_554 S
C198 C199 1.457 . S
C198 H203 0.929 . S
C199 C198 1.457 . S
C199 C200 1.291 . S
C199 H212 0.931 . S
C200 C199 1.291 . S
C200 C201 1.373 1_554 S
C200 H213 0.929 . S
C201 C200 1.373 1_556 S
C201 C202 1.396 . S
C201 C208 1.403 . S
C202 C192 1.476 . S
C202 N197 1.318 . S
C202 C201 1.396 . S
H203 C198 0.929 . S
O204 Mn180 2.385 1_565 S
O204 C182 1.234 1_565 S
O205 Mn180 2.209 . S
O205 Mn181 2.215 . S
O205 C182 1.283 . S
O206 Mn180 2.094 . S
O206 C184 1.240 . S
O207 Mn181 2.117 . S
O207 C184 1.264 . S
C208 C201 1.403 . S
C208 C209 1.399 . S
C208 H214 0.937 . S
C209 C189 1.449 . S
C209 C208 1.399 . S
C209 H215 0.930 . S
H210 C190 0.931 . S
H211 C191 0.930 . S
H212 C199 0.931 . S
H213 C200 0.929 . S
H214 C208 0.937 . S
H215 C209 0.930 . S
Mn216 O221 2.095 . S
Mn216 O231 2.162 . S
Mn216 O232 2.297 . S
Mn216 O240 2.385 . S
Mn216 O241 2.209 . S
Mn216 O242 2.094 . S
Mn217 O222 2.121 . S
Mn217 N224 2.257 1_565 S
Mn217 N233 2.282 1_565 S
Mn217 O241 2.215 . S
Mn217 O243 2.117 . S
C218 O240 1.234 . S
C218 O241 1.283 . S
C219 O231 1.281 . S
C219 O232 1.236 . S
C220 O242 1.240 . S
C220 O243 1.264 . S
O221 Mn216 2.095 . S
O221 C230 1.250 . S
O222 Mn217 2.121 . S
O222 C230 1.258 . S
C223 N224 1.326 . S
C223 C227 1.460 . S
C223 H229 0.929 . S
N224 Mn217 2.257 1_545 S
N224 C223 1.326 . S
N224 C228 1.362 . S
C225 C226 1.258 . S
C225 C228 1.431 . S
C225 C245 1.449 . S
C226 C225 1.258 . S
C226 C227 1.477 . S
C226 H246 0.931 . S
C227 C223 1.460 . S
C227 C226 1.477 . S
C227 H247 0.930 . S
C228 N224 1.362 . S
C228 C225 1.431 . S
C228 C238 1.476 . S
H229 C223 0.929 . S
C230 O221 1.250 . S
C230 O222 1.258 . S
O231 Mn216 2.162 . S
O231 C219 1.281 . S
O232 Mn216 2.297 . S
O232 C219 1.236 . S
N233 Mn217 2.282 1_545 S
N233 C234 1.328 . S
N233 C238 1.318 . S
C234 N233 1.328 . S
C234 C235 1.457 . S
C234 H239 0.929 1_545 S
C235 C234 1.457 . S
C235 C236 1.291 . S
C235 H248 0.931 . S
C236 C235 1.291 . S
C236 C237 1.373 . S
C236 H249 0.929 . S
C237 C236 1.373 . S
C237 C238 1.396 . S
C237 C244 1.403 . S
C238 C228 1.476 . S
C238 N233 1.318 . S
C238 C237 1.396 . S
H239 C234 0.929 1_565 S
O240 Mn216 2.385 . S
O240 C218 1.234 . S
O241 Mn216 2.209 . S
O241 Mn217 2.215 . S
O241 C218 1.283 . S
O242 Mn216 2.094 . S
O242 C220 1.240 . S
O243 Mn217 2.117 . S
O243 C220 1.264 . S
C244 C237 1.403 . S
C244 C245 1.399 . S
C244 H250 0.929 . S
C245 C225 1.449 . S
C245 C244 1.399 . S
C245 H251 0.930 . S
H246 C226 0.931 . S
H247 C227 0.930 . S
H248 C235 0.931 . S
H249 C236 0.929 . S
H250 C244 0.929 . S
H251 C245 0.930 . S
Mn252 O257 2.095 . S
Mn252 O267 2.162 1_565 S
Mn252 O268 2.297 1_565 S
Mn252 O276 2.385 1_565 S
Mn252 O277 2.209 . S
Mn252 O278 2.094 . S
Mn253 O258 2.121 . S
Mn253 N260 2.257 . S
Mn253 N269 2.282 . S
Mn253 O277 2.215 . S
Mn253 O279 2.117 . S
C254 O276 1.234 1_565 S
C254 O277 1.283 . S
C255 O267 1.281 . S
C255 O268 1.236 . S
C256 O278 1.240 . S
C256 O279 1.264 . S
O257 Mn252 2.095 . S
O257 C266 1.250 . S
O258 Mn253 2.121 . S
O258 C266 1.258 . S
C259 N260 1.326 . S
C259 C263 1.460 . S
C259 H265 0.929 . S
N260 Mn253 2.257 . S
N260 C259 1.326 . S
N260 C264 1.362 . S
C261 C262 1.258 . S
C261 C264 1.431 . S
C261 C281 1.449 . S
C262 C261 1.258 . S
C262 C263 1.477 . S
C262 H282 0.931 . S
C263 C259 1.460 . S
C263 C262 1.477 . S
C263 H283 0.930 . S
C264 N260 1.362 . S
C264 C261 1.431 . S
C264 C274 1.476 . S
H265 C259 0.929 . S
C266 O257 1.250 . S
C266 O258 1.258 . S
O267 Mn252 2.162 1_545 S
O267 C255 1.281 . S
O268 Mn252 2.297 1_545 S
O268 C255 1.236 . S
N269 Mn253 2.282 . S
N269 C270 1.328 1_556 S
N269 C274 1.318 . S
C270 N269 1.328 1_554 S
C270 C271 1.457 . S
C270 H275 0.929 . S
C271 C270 1.457 . S
C271 C272 1.291 . S
C271 H284 0.931 . S
C272 C271 1.291 . S
C272 C273 1.373 1_554 S
C272 H285 0.929 . S
C273 C272 1.373 1_556 S
C273 C274 1.396 . S
C273 C280 1.403 . S
C274 C264 1.476 . S
C274 N269 1.318 . S
C274 C273 1.396 . S
H275 C270 0.929 . S
O276 Mn252 2.385 1_545 S
O276 C254 1.234 1_545 S
O277 Mn252 2.209 . S
O277 Mn253 2.215 . S
O277 C254 1.283 . S
O278 Mn252 2.094 . S
O278 C256 1.240 . S
O279 Mn253 2.117 . S
O279 C256 1.264 . S
C280 C273 1.403 . S
C280 C281 1.399 . S
C280 H286 0.937 . S
C281 C261 1.449 . S
C281 C280 1.399 . S
C281 H287 0.930 . S
H282 C262 0.931 . S
H283 C263 0.930 . S
H284 C271 0.931 . S
H285 C272 0.929 . S
H286 C280 0.937 . S
H287 C281 0.930 . S
C4 C184 1.365 1_554 S
C40 C220 1.365 . S
C76 C256 1.365 1_554 S
C148 C112 1.365 . S
C14 C147 1.679 . S
C50 C183 1.679 . S
C219 C86 1.679 . S
C122 C255 1.679 . S
C158 C3 1.679 . S
C39 C194 1.679 . S
C230 C75 1.679 . S
C111 C266 1.679 . S
C74 C2 0.692 1_655 S
C110 C38 0.692 1_655 S
C146 C218 0.692 1_545 S
C182 C254 0.692 1_545 S
