# Generated by pormake.
# Topology whz, (6)-cn, num edge types: 1
# Building blocks:
#     Node 0, Type 0, BuildingBlock: PAMTOO_clean_sbu_0, # of connection points: 6
#     Node 1, Type 0, BuildingBlock: PAMTOO_clean_sbu_0, # of connection points: 6
#     Node 2, Type 0, BuildingBlock: PAMTOO_clean_sbu_0, # of connection points: 6
#     Node 3, Type 0, BuildingBlock: PAMTOO_clean_sbu_0, # of connection points: 6
#     Node 4, Type 0, BuildingBlock: PAMTOO_clean_sbu_0, # of connection points: 6
#     Node 5, Type 0, BuildingBlock: PAMTOO_clean_sbu_0, # of connection points: 6
#     Node 6, Type 0, BuildingBlock: PAMTOO_clean_sbu_0, # of connection points: 6
#     Node 7, Type 0, BuildingBlock: PAMTOO_clean_sbu_0, # of connection points: 6
#     Node 8, Type 0, BuildingBlock: PAMTOO_clean_sbu_0, # of connection points: 6
#     Node 9, Type 0, BuildingBlock: PAMTOO_clean_sbu_0, # of connection points: 6
#     Node 10, Type 0, BuildingBlock: PAMTOO_clean_sbu_0, # of connection points: 6
#     Node 11, Type 0, BuildingBlock: PAMTOO_clean_sbu_0, # of connection points: 6
#     Node 12, Type 0, BuildingBlock: PAMTOO_clean_sbu_0, # of connection points: 6
#     Node 13, Type 0, BuildingBlock: PAMTOO_clean_sbu_0, # of connection points: 6
#     Node 14, Type 0, BuildingBlock: PAMTOO_clean_sbu_0, # of connection points: 6
#     Node 15, Type 0, BuildingBlock: PAMTOO_clean_sbu_0, # of connection points: 6
#     Edge 16, Type (0, 0), BuildingBlock: XIVTED_clean_linker_0, # of connection points: 2
#     Edge 17, Type (0, 0), BuildingBlock: XIVTED_clean_linker_0, # of connection points: 2
#     Edge 18, Type (0, 0), BuildingBlock: XIVTED_clean_linker_0, # of connection points: 2
#     Edge 19, Type (0, 0), BuildingBlock: XIVTED_clean_linker_0, # of connection points: 2
#     Edge 20, Type (0, 0), BuildingBlock: XIVTED_clean_linker_0, # of connection points: 2
#     Edge 21, Type (0, 0), BuildingBlock: XIVTED_clean_linker_0, # of connection points: 2
#     Edge 22, Type (0, 0), BuildingBlock: XIVTED_clean_linker_0, # of connection points: 2
#     Edge 23, Type (0, 0), BuildingBlock: XIVTED_clean_linker_0, # of connection points: 2
#     Edge 24, Type (0, 0), BuildingBlock: XIVTED_clean_linker_0, # of connection points: 2
#     Edge 25, Type (0, 0), BuildingBlock: XIVTED_clean_linker_0, # of connection points: 2
#     Edge 26, Type (0, 0), BuildingBlock: XIVTED_clean_linker_0, # of connection points: 2
#     Edge 27, Type (0, 0), BuildingBlock: XIVTED_clean_linker_0, # of connection points: 2
#     Edge 28, Type (0, 0), BuildingBlock: XIVTED_clean_linker_0, # of connection points: 2
#     Edge 29, Type (0, 0), BuildingBlock: XIVTED_clean_linker_0, # of connection points: 2
#     Edge 30, Type (0, 0), BuildingBlock: XIVTED_clean_linker_0, # of connection points: 2
#     Edge 31, Type (0, 0), BuildingBlock: XIVTED_clean_linker_0, # of connection points: 2
#     Edge 32, Type (0, 0), BuildingBlock: XIVTED_clean_linker_0, # of connection points: 2
#     Edge 33, Type (0, 0), BuildingBlock: XIVTED_clean_linker_0, # of connection points: 2
#     Edge 34, Type (0, 0), BuildingBlock: XIVTED_clean_linker_0, # of connection points: 2
#     Edge 35, Type (0, 0), BuildingBlock: XIVTED_clean_linker_0, # of connection points: 2
#     Edge 36, Type (0, 0), BuildingBlock: XIVTED_clean_linker_0, # of connection points: 2
#     Edge 37, Type (0, 0), BuildingBlock: XIVTED_clean_linker_0, # of connection points: 2
#     Edge 38, Type (0, 0), BuildingBlock: XIVTED_clean_linker_0, # of connection points: 2
#     Edge 39, Type (0, 0), BuildingBlock: XIVTED_clean_linker_0, # of connection points: 2
#     Edge 40, Type (0, 0), BuildingBlock: XIVTED_clean_linker_0, # of connection points: 2
#     Edge 41, Type (0, 0), BuildingBlock: XIVTED_clean_linker_0, # of connection points: 2
#     Edge 42, Type (0, 0), BuildingBlock: XIVTED_clean_linker_0, # of connection points: 2
#     Edge 43, Type (0, 0), BuildingBlock: XIVTED_clean_linker_0, # of connection points: 2
#     Edge 44, Type (0, 0), BuildingBlock: XIVTED_clean_linker_0, # of connection points: 2
#     Edge 45, Type (0, 0), BuildingBlock: XIVTED_clean_linker_0, # of connection points: 2
#     Edge 46, Type (0, 0), BuildingBlock: XIVTED_clean_linker_0, # of connection points: 2
#     Edge 47, Type (0, 0), BuildingBlock: XIVTED_clean_linker_0, # of connection points: 2
#     Edge 48, Type (0, 0), BuildingBlock: XIVTED_clean_linker_0, # of connection points: 2
#     Edge 49, Type (0, 0), BuildingBlock: XIVTED_clean_linker_0, # of connection points: 2
#     Edge 50, Type (0, 0), BuildingBlock: XIVTED_clean_linker_0, # of connection points: 2
#     Edge 51, Type (0, 0), BuildingBlock: XIVTED_clean_linker_0, # of connection points: 2
#     Edge 52, Type (0, 0), BuildingBlock: XIVTED_clean_linker_0, # of connection points: 2
#     Edge 53, Type (0, 0), BuildingBlock: XIVTED_clean_linker_0, # of connection points: 2
#     Edge 54, Type (0, 0), BuildingBlock: XIVTED_clean_linker_0, # of connection points: 2
#     Edge 55, Type (0, 0), BuildingBlock: XIVTED_clean_linker_0, # of connection points: 2
#     Edge 56, Type (0, 0), BuildingBlock: XIVTED_clean_linker_0, # of connection points: 2
#     Edge 57, Type (0, 0), BuildingBlock: XIVTED_clean_linker_0, # of connection points: 2
#     Edge 58, Type (0, 0), BuildingBlock: XIVTED_clean_linker_0, # of connection points: 2
#     Edge 59, Type (0, 0), BuildingBlock: XIVTED_clean_linker_0, # of connection points: 2
#     Edge 60, Type (0, 0), BuildingBlock: XIVTED_clean_linker_0, # of connection points: 2
#     Edge 61, Type (0, 0), BuildingBlock: XIVTED_clean_linker_0, # of connection points: 2
#     Edge 62, Type (0, 0), BuildingBlock: XIVTED_clean_linker_0, # of connection points: 2
#     Edge 63, Type (0, 0), BuildingBlock: XIVTED_clean_linker_0, # of connection points: 2
# Relax obj value: 0.656
# Max RMSD: 0.306
# Mean RMSD: 0.306
data_MOF--net-whz--node1-PAMTOO_clean_sbu_0--edge1-XIVTED_clean_linker_0
_symmetry_space_group_name_H-M    P1
_symmetry_Int_Tables_number       1
_symmetry_cell_setting            triclinic
loop_
_symmetry_equiv_pos_as_xyz
'x, y, z'
_cell_length_a     35.298155
_cell_length_b     35.259848
_cell_length_c     71.803877
_cell_angle_alpha  89.975639
_cell_angle_beta   89.893336
_cell_angle_gamma 89.883843
loop_
_atom_site_label
_atom_site_type_symbol
_atom_site_fract_x
_atom_site_fract_y
_atom_site_fract_z
_atom_type_partial_charge
Dy0 Dy 0.30387 0.17478 0.14285 0.0
Dy1 Dy 0.29902 0.22913 0.17938 0.0
C2 C 0.25683 0.25245 0.14392 0.0
O3 O 0.36367 0.18961 0.15035 0.0
O4 O 0.34747 0.24774 0.16113 0.0
O5 O 0.33073 0.16557 0.11615 0.0
O6 O 0.28535 0.12865 0.12494 0.0
O7 O 0.3394 0.18375 0.18722 0.0
O8 O 0.31835 0.13687 0.16765 0.0
O9 O 0.25272 0.18645 0.18425 0.0
O10 O 0.2459 0.16391 0.15425 0.0
O11 O 0.29519 0.24142 0.20871 0.0
O12 O 0.30204 0.2872 0.18877 0.0
C13 C 0.37343 0.22417 0.15498 0.0
O14 O 0.28361 0.23397 0.13487 0.0
O15 O 0.25105 0.24524 0.16143 0.0
C16 C 0.2929 0.13823 0.09193 0.0
C17 C 0.2699 0.13244 0.05395 0.0
C18 C 0.29682 0.15957 0.05955 0.0
C19 C 0.3082 0.16236 0.07821 0.0
C20 C 0.26552 0.11155 0.08643 0.0
C21 C 0.25406 0.1088 0.06775 0.0
C22 C 0.30804 0.13813 0.11136 0.0
C23 C 0.33548 0.14776 0.18316 0.0
C24 C 0.23452 0.16608 0.17171 0.0
C25 C 0.33742 0.28968 0.21633 0.0
C26 C 0.40021 0.30046 0.23972 0.0
C27 C 0.40446 0.28118 0.22273 0.0
C28 C 0.37324 0.27581 0.21111 0.0
C29 C 0.33371 0.31169 0.2324 0.0
C30 C 0.36494 0.31724 0.24399 0.0
C31 C 0.30371 0.2771 0.20624 0.0
H32 H 0.3101 0.17799 0.0494 0.0
H33 H 0.32976 0.18291 0.08178 0.0
H34 H 0.25341 0.09223 0.09654 0.0
H35 H 0.23278 0.08801 0.06414 0.0
H36 H 0.43122 0.26806 0.21905 0.0
H37 H 0.37655 0.25878 0.19866 0.0
H38 H 0.30625 0.32254 0.23659 0.0
H39 H 0.36047 0.33177 0.2571 0.0
Dy40 Dy 0.60185 0.55348 0.39483 0.0
Dy41 Dy 0.55501 0.55384 0.43417 0.0
C42 C 0.52632 0.50436 0.40109 0.0
O43 O 0.58153 0.61341 0.39921 0.0
O44 O 0.52862 0.59701 0.41538 0.0
O45 O 0.60399 0.57216 0.36617 0.0
O46 O 0.64961 0.5379 0.3772 0.0
O47 O 0.59773 0.59943 0.43595 0.0
O48 O 0.64256 0.57084 0.41801 0.0
O49 O 0.60097 0.51006 0.4376 0.0
O50 O 0.6097 0.49515 0.40669 0.0
O51 O 0.55268 0.55499 0.46414 0.0
O52 O 0.50075 0.55709 0.448 0.0
C53 C 0.54796 0.62221 0.4059 0.0
O54 O 0.54376 0.52799 0.38972 0.0
O55 O 0.53349 0.50406 0.41891 0.0
C56 C 0.63779 0.53358 0.34416 0.0
C57 C 0.64877 0.50252 0.30783 0.0
C58 C 0.61789 0.52666 0.31166 0.0
C59 C 0.61257 0.54206 0.32953 0.0
C60 C 0.66807 0.5087 0.34046 0.0
C61 C 0.67338 0.49329 0.32261 0.0
C62 C 0.63524 0.5539 0.3624 0.0
C63 C 0.63332 0.59295 0.43219 0.0
C64 C 0.61402 0.48732 0.4245 0.0
C65 C 0.50535 0.59684 0.47401 0.0
C66 C 0.49352 0.6622 0.49567 0.0
C67 C 0.51436 0.66437 0.47902 0.0
C68 C 0.52018 0.63189 0.46825 0.0
C69 C 0.4822 0.59508 0.48977 0.0
C70 C 0.47618 0.62754 0.5005 0.0
C71 C 0.51633 0.56202 0.46428 0.0
H72 H 0.59853 0.53487 0.3007 0.0
H73 H 0.58924 0.56157 0.33169 0.0
H74 H 0.68831 0.50182 0.35127 0.0
H75 H 0.69713 0.47434 0.32039 0.0
H76 H 0.52795 0.6906 0.47491 0.0
H77 H 0.53786 0.63372 0.45593 0.0
H78 H 0.4704 0.56827 0.49431 0.0
H79 H 0.46047 0.62462 0.51339 0.0
Dy80 Dy 0.21698 0.85892 0.64337 0.0
Dy81 Dy 0.22281 0.81338 0.68313 0.0
C82 C 0.26825 0.78412 0.6487 0.0
O83 O 0.15846 0.83762 0.64926 0.0
O84 O 0.1769 0.78604 0.66617 0.0
O85 O 0.1958 0.86006 0.61518 0.0
O86 O 0.22966 0.9068 0.62522 0.0
O87 O 0.1764 0.8551 0.68601 0.0
O88 O 0.201 0.90002 0.66677 0.0
O89 O 0.26731 0.85931 0.68482 0.0
O90 O 0.27581 0.86867 0.65335 0.0
O91 O 0.22381 0.81192 0.71313 0.0
O92 O 0.22405 0.75941 0.69731 0.0
C93 C 0.15101 0.80432 0.65655 0.0
O94 O 0.24289 0.80083 0.63798 0.0
O95 O 0.2708 0.79221 0.66637 0.0
C96 C 0.23199 0.8938 0.59243 0.0
C97 C 0.26166 0.89939 0.55558 0.0
C98 C 0.257 0.86381 0.56427 0.0
C99 C 0.24235 0.86104 0.58244 0.0
C100 C 0.23731 0.9293 0.58396 0.0
C101 C 0.25198 0.93211 0.56583 0.0
C102 C 0.21278 0.89169 0.61089 0.0
C103 C 0.18094 0.89068 0.68164 0.0
C104 C 0.28657 0.87374 0.67071 0.0
C105 C 0.18573 0.76219 0.72392 0.0
C106 C 0.12216 0.74326 0.74574 0.0
C107 C 0.11797 0.76596 0.72978 0.0
C108 C 0.14954 0.77537 0.71897 0.0
C109 C 0.18977 0.73769 0.73907 0.0
C110 C 0.15826 0.72824 0.7499 0.0
C111 C 0.21914 0.77517 0.71358 0.0
H112 H 0.26373 0.8379 0.55687 0.0
H113 H 0.23845 0.83319 0.58851 0.0
H114 H 0.22948 0.95502 0.59129 0.0
H115 H 0.25576 0.96005 0.55987 0.0
H116 H 0.09065 0.77784 0.72615 0.0
H117 H 0.14594 0.7941 0.70714 0.0
H118 H 0.21748 0.72711 0.74298 0.0
H119 H 0.16278 0.71125 0.76227 0.0
Dy120 Dy 0.9217 0.47829 0.89378 0.0
Dy121 Dy 0.97271 0.48922 0.93029 0.0
C122 C 0.9924 0.52764 0.8949 0.0
O123 O 0.94547 0.41985 0.89571 0.0
O124 O 0.99033 0.4329 0.91802 0.0
O125 O 0.91048 0.51247 0.86954 0.0
O126 O 0.8888 0.45402 0.87083 0.0
O127 O 0.92982 0.44865 0.94044 0.0
O128 O 0.8839 0.45866 0.91787 0.0
O129 O 0.92611 0.52959 0.93713 0.0
O130 O 0.89554 0.52831 0.90871 0.0
O131 O 0.993 0.50176 0.95801 0.0
O132 O 0.0326 0.49203 0.93518 0.0
C133 C 0.97435 0.40954 0.90605 0.0
O134 O 0.98278 0.49458 0.88836 0.0
O135 O 0.97626 0.5368 0.91033 0.0
C136 C 0.87575 0.49116 0.84231 0.0
C137 C 0.85903 0.50731 0.80445 0.0
C138 C 0.85514 0.53548 0.81819 0.0
C139 C 0.86382 0.52761 0.83685 0.0
C140 C 0.8776 0.46244 0.82878 0.0
C141 C 0.86972 0.47052 0.81001 0.0
C142 C 0.89269 0.48514 0.86101 0.0
C143 C 0.89475 0.44571 0.93447 0.0
C144 C 0.89979 0.54207 0.92569 0.0
C145 C 0.04855 0.53884 0.9567 0.0
C146 C 0.08383 0.60735 0.96669 0.0
C147 C 0.09104 0.57374 0.97674 0.0
C148 C 0.07349 0.53979 0.97177 0.0
C149 C 0.04299 0.57163 0.94593 0.0
C150 C 0.06055 0.60564 0.95086 0.0
C151 C 0.02821 0.50378 0.9523 0.0
H152 H 0.84727 0.56415 0.81434 0.0
H153 H 0.8626 0.55045 0.84692 0.0
H154 H 0.88733 0.43429 0.83251 0.0
H155 H 0.87286 0.44821 0.79975 0.0
H156 H 0.10822 0.57409 0.98921 0.0
H157 H 0.07835 0.51461 0.9801 0.0
H158 H 0.02415 0.57123 0.93405 0.0
H159 H 0.05457 0.63094 0.94281 0.0
Dy160 Dy 0.73408 0.80393 0.90401 0.0
Dy161 Dy 0.71424 0.8569 0.93996 0.0
C162 C 0.68919 0.88061 0.89725 0.0
O163 O 0.77546 0.85211 0.90187 0.0
O164 O 0.77504 0.86755 0.9329 0.0
O165 O 0.73925 0.74479 0.8969 0.0
O166 O 0.75284 0.78823 0.87643 0.0
O167 O 0.72959 0.79686 0.9486 0.0
O168 O 0.77447 0.79286 0.92684 0.0
O169 O 0.65708 0.83855 0.93065 0.0
O170 O 0.67648 0.78557 0.9146 0.0
O171 O 0.68848 0.86185 0.96721 0.0
O172 O 0.7238 0.90718 0.95689 0.0
C173 C 0.79011 0.87022 0.91617 0.0
O174 O 0.69483 0.84562 0.89163 0.0
O175 O 0.6984 0.89231 0.91428 0.0
C176 C 0.79184 0.73293 0.87755 0.0
C177 C 0.86042 0.69453 0.86978 0.0
C178 C 0.82942 0.67492 0.87744 0.0
C179 C 0.79544 0.69393 0.88123 0.0
C180 C 0.82346 0.75296 0.87095 0.0
C181 C 0.85728 0.73398 0.86708 0.0
C182 C 0.7553 0.75231 0.88093 0.0
C183 C 0.76095 0.78118 0.94257 0.0
C184 C 0.64955 0.80619 0.92244 0.0
C185 C 0.7242 0.8962 0.98975 0.0
C186 C 0.7572 0.90187 1.02591 0.0
C187 C 0.75652 0.86702 1.01622 0.0
C188 C 0.74035 0.86426 0.9984 0.0
C189 C 0.72491 0.93098 0.99928 0.0
C190 C 0.74118 0.93382 1.01708 0.0
C191 C 0.70547 0.89362 0.9712 0.0
H192 H 0.83094 0.64463 0.87988 0.0
H193 H 0.77166 0.67796 0.88665 0.0
H194 H 0.82188 0.78314 0.86825 0.0
H195 H 0.88018 0.75006 0.8609 0.0
H196 H 0.76799 0.84158 1.02251 0.0
H197 H 0.7402 0.837 0.99144 0.0
H198 H 0.71271 0.95608 0.99295 0.0
H199 H 0.74159 0.9613 1.0238 0.0
Dy200 Dy 0.47778 0.4865 0.65329 0.0
Dy201 Dy 0.42149 0.47532 0.68871 0.0
C202 C 0.39278 0.45971 0.64631 0.0
O203 O 0.45074 0.54338 0.65884 0.0
O204 O 0.3967 0.525 0.67402 0.0
O205 O 0.53167 0.51273 0.64782 0.0
O206 O 0.50085 0.48551 0.62536 0.0
O207 O 0.4702 0.51524 0.69495 0.0
O208 O 0.50643 0.47478 0.67997 0.0
O209 O 0.45107 0.41892 0.68476 0.0
O210 O 0.47617 0.42331 0.65509 0.0
O211 O 0.41923 0.4537 0.71686 0.0
O212 O 0.37143 0.48477 0.7059 0.0
C213 C 0.41556 0.5498 0.66407 0.0
O214 O 0.4214 0.47997 0.64019 0.0
O215 O 0.38981 0.44908 0.66405 0.0
C216 C 0.52892 0.54562 0.61986 0.0
C217 C 0.52829 0.61986 0.60513 0.0
C218 C 0.49535 0.59741 0.60492 0.0
C219 C 0.49559 0.5609 0.61232 0.0
C220 C 0.56181 0.56789 0.6203 0.0
C221 C 0.56154 0.6047 0.61301 0.0
C222 C 0.52781 0.50926 0.62987 0.0
C223 C 0.50445 0.50281 0.69157 0.0
C224 C 0.46751 0.40345 0.67004 0.0
C225 C 0.38283 0.48937 0.739 0.0
C226 C 0.37153 0.5214 0.77519 0.0
C227 C 0.40334 0.49852 0.7713 0.0
C228 C 0.40883 0.48267 0.75353 0.0
C229 C 0.35139 0.51273 0.74277 0.0
C230 C 0.34591 0.52861 0.76053 0.0
C231 C 0.38665 0.46941 0.72066 0.0
H232 H 0.46941 0.60753 0.5986 0.0
H233 H 0.46947 0.5448 0.61229 0.0
H234 H 0.5875 0.55705 0.62663 0.0
H235 H 0.58733 0.62123 0.61354 0.0
H236 H 0.42352 0.49177 0.78215 0.0
H237 H 0.43312 0.4644 0.75134 0.0
H238 H 0.33056 0.51829 0.73204 0.0
H239 H 0.32137 0.54651 0.76276 0.0
Dy240 Dy 0.7887 0.22093 0.40133 0.0
Dy241 Dy 0.80584 0.17298 0.43933 0.0
C242 C 0.81911 0.1371 0.39882 0.0
O243 O 0.73286 0.19616 0.41031 0.0
O244 O 0.75384 0.14576 0.42763 0.0
O245 O 0.75341 0.2628 0.3878 0.0
O246 O 0.79873 0.23497 0.37251 0.0
O247 O 0.76474 0.2213 0.44458 0.0
O248 O 0.79441 0.26096 0.42489 0.0
O249 O 0.85823 0.20786 0.43431 0.0
O250 O 0.85197 0.22414 0.40344 0.0
O251 O 0.831 0.17479 0.46663 0.0
O252 O 0.80047 0.12463 0.45818 0.0
C253 C 0.72725 0.16264 0.41784 0.0
O254 O 0.79275 0.1605 0.39319 0.0
O255 O 0.83427 0.14045 0.4156 0.0
C256 C 0.73956 0.23808 0.3579 0.0
C257 C 0.69526 0.19135 0.33486 0.0
C258 C 0.73058 0.20479 0.32871 0.0
C259 C 0.75241 0.22815 0.34007 0.0
C260 C 0.70322 0.22622 0.36366 0.0
C261 C 0.68108 0.20326 0.35213 0.0
C262 C 0.76683 0.25371 0.37141 0.0
C263 C 0.7716 0.2561 0.43895 0.0
C264 C 0.87246 0.22133 0.41868 0.0
C265 C 0.80201 0.13892 0.49104 0.0
C266 C 0.77944 0.13171 0.52915 0.0
C267 C 0.78654 0.16757 0.52112 0.0
C268 C 0.79747 0.17112 0.5024 0.0
C269 C 0.79499 0.10312 0.4989 0.0
C270 C 0.78388 0.09953 0.51763 0.0
C271 C 0.81782 0.14191 0.47178 0.0
H272 H 0.74167 0.1965 0.31523 0.0
H273 H 0.78031 0.23666 0.33535 0.0
H274 H 0.69258 0.23305 0.37741 0.0
H275 H 0.65376 0.19343 0.35703 0.0
H276 H 0.78454 0.19319 0.52934 0.0
H277 H 0.80313 0.1992 0.49697 0.0
H278 H 0.79854 0.07773 0.49059 0.0
H279 H 0.77814 0.07138 0.52291 0.0
Dy280 Dy 0.06384 0.56419 0.1452 0.0
Dy281 Dy 0.1035 0.5595 0.18689 0.0
C282 C 0.14272 0.59784 0.15128 0.0
O283 O 0.10563 0.51583 0.14373 0.0
O284 O 0.11379 0.50201 0.17492 0.0
O285 O 0.07076 0.5613 0.11549 0.0
O286 O 1.01689 0.57904 0.12723 0.0
O287 O 0.04578 0.53112 0.1891 0.0
O288 O 0.03378 0.51632 0.15836 0.0
O289 O 0.08356 0.61986 0.18279 0.0
O290 O 0.03431 0.60643 0.16336 0.0
O291 O 0.0992 0.57352 0.2162 0.0
O292 O 0.14982 0.54623 0.20576 0.0
C293 C 0.11813 0.49359 0.15718 0.0
O294 O 0.10817 0.60801 0.14763 0.0
O295 O 0.14868 0.57392 0.1651 0.0
C296 C 0.03974 0.61151 0.10081 0.0
C297 C 0.05353 0.67069 0.07547 0.0
C298 C 0.07268 0.66965 0.09257 0.0
C299 C 0.06554 0.64044 0.10522 0.0
C300 C 1.01864 0.61393 0.0844 0.0
C301 C 0.02529 0.64347 0.07186 0.0
C302 C 0.03798 0.57715 0.11231 0.0
C303 C 0.02709 0.51209 0.17617 0.0
C304 C 0.05181 0.62998 0.17456 0.0
C305 C 0.13472 0.53668 0.23835 0.0
C306 C 0.14671 0.50327 0.27417 0.0
C307 C 0.11733 0.52971 0.27125 0.0
C308 C 0.11156 0.54625 0.25366 0.0
C309 C 0.16343 0.50951 0.24111 0.0
C310 C 0.16922 0.49298 0.2587 0.0
C311 C 0.13182 0.55849 0.22048 0.0
H312 H 0.09459 0.69016 0.09567 0.0
H313 H 0.08177 0.63927 0.11795 0.0
H314 H 0.99857 0.5919 0.08081 0.0
H315 H 1.01049 0.64317 0.05866 0.0
H316 H 0.09962 0.53884 0.28273 0.0
H317 H 0.08961 0.56755 0.25221 0.0
H318 H 0.18214 0.50164 0.22978 0.0
H319 H 0.19173 0.47231 0.26019 0.0
Dy320 Dy 0.80658 0.6712 0.64525 0.0
Dy321 Dy 0.81492 0.69975 0.68887 0.0
C322 C 0.76562 0.74891 0.66034 0.0
O323 O 0.86773 0.68764 0.64978 0.0
O324 O 0.85842 0.73156 0.67273 0.0
O325 O 0.81845 0.6806 0.61607 0.0
O326 O 0.79451 0.62704 0.62491 0.0
O327 O 0.85495 0.65313 0.68272 0.0
O328 O 0.81452 0.62104 0.66489 0.0
O329 O 0.76135 0.66499 0.68768 0.0
O330 O 0.74782 0.66487 0.6562 0.0
O331 O 0.81096 0.68365 0.71767 0.0
O332 O 0.83375 0.73879 0.71023 0.0
C333 C 0.87988 0.71641 0.65979 0.0
O334 O 0.7803 0.7302 0.64602 0.0
O335 O 0.77195 0.7392 0.67773 0.0
C336 C 0.78467 0.64504 0.59286 0.0
C337 C 0.75496 0.6378 0.55614 0.0
C338 C 0.7623 0.67378 0.5639 0.0
C339 C 0.77702 0.67736 0.58198 0.0
C340 C 0.77651 0.60919 0.58533 0.0
C341 C 0.7618 0.6056 0.56726 0.0
C342 C 0.80564 0.64761 0.61083 0.0
C343 C 0.84022 0.62085 0.67811 0.0
C344 C 0.73822 0.65821 0.67364 0.0
C345 C 0.86311 0.70541 0.73484 0.0
C346 C 0.92115 0.68539 0.75988 0.0
C347 C 0.91356 0.66247 0.74434 0.0
C348 C 0.88494 0.67255 0.73185 0.0
C349 C 0.87226 0.72959 0.74958 0.0
C350 C 0.90112 0.71978 0.76196 0.0
C351 C 0.82964 0.71341 0.72331 0.0
H352 H 0.75786 0.69929 0.55579 0.0
H353 H 0.78341 0.70544 0.58719 0.0
H354 H 0.78249 0.58372 0.59325 0.0
H355 H 0.75597 0.57744 0.562 0.0
H356 H 0.92847 0.63589 0.74236 0.0
H357 H 0.87874 0.65379 0.72034 0.0
H358 H 0.85594 0.75519 0.75201 0.0
H359 H 0.90575 0.73782 0.77394 0.0
Dy360 Dy 0.10785 0.06261 0.89597 0.0
Dy361 Dy 0.07913 0.0745 0.9392 0.0
C362 C 0.02833 0.026 0.91128 0.0
O363 O 0.09049 0.1242 0.89932 0.0
O364 O 0.04609 0.11525 0.92197 0.0
O365 O 0.10058 0.07469 0.86668 0.0
O366 O 0.15132 0.04575 0.87599 0.0
O367 O 0.12457 0.1155 0.93289 0.0
O368 O 0.15771 0.07474 0.91533 0.0
O369 O 0.11816 0.02379 0.93867 0.0
O370 O 0.11188 1.00436 0.9083 0.0
O371 O 0.09053 0.06624 0.96834 0.0
O372 O 0.04192 0.0995 0.95988 0.0
C373 C 0.0612 0.13655 0.909 0.0
O374 O 0.04827 0.03797 0.89675 0.0
O375 O 0.03876 0.03225 0.92855 0.0
C376 C 0.13432 0.03835 0.84358 0.0
C377 C 0.14118 1.0103 0.80646 0.0
C378 C 0.10545 1.01951 0.81406 0.0
C379 C 0.10207 0.03344 0.83234 0.0
C380 C 0.16983 0.02813 0.83621 0.0
C381 C 0.17323 1.01426 0.81796 0.0
C382 C 0.13249 0.05887 0.86174 0.0
C383 C 0.15719 0.10171 0.92802 0.0
C384 C 0.12189 0.99767 0.92565 0.0
C385 C 0.07609 0.11997 0.98618 0.0
C386 C 0.10468 0.16988 1.01324 0.0
C387 C 0.12513 0.16311 0.99677 0.0
C388 C 0.1108 0.13848 0.9833 0.0
C389 C 0.05436 0.12876 1.00189 0.0
C390 C 0.06846 0.15366 1.0153 0.0
C391 C 0.06391 0.08957 0.97359 0.0
H392 H 0.08009 1.01725 0.80568 0.0
H393 H 0.07429 0.04147 0.83742 0.0
H394 H 0.19527 0.03198 0.84441 0.0
H395 H 0.20115 1.0069 0.81283 0.0
H396 H 0.15304 0.1752 0.9948 0.0
H397 H 0.12767 0.13232 0.97109 0.0
H398 H 0.02741 0.11489 1.00426 0.0
H399 H 0.05222 0.15777 1.02796 0.0
Dy400 Dy 0.71879 0.35404 0.14204 0.0
Dy401 Dy 0.73174 0.29334 0.17593 0.0
C402 C 0.75121 0.27216 0.13707 0.0
O403 O 0.66207 0.32549 0.14565 0.0
O404 O 0.66886 0.29126 0.17287 0.0
O405 O 0.69578 0.3591 0.11436 0.0
O406 O 0.72877 0.40523 0.12569 0.0
O407 O 0.72297 0.34853 0.19021 0.0
O408 O 0.69275 0.3834 0.16724 0.0
O409 O 0.78803 0.32253 0.17138 0.0
O410 O 0.76798 0.37777 0.15743 0.0
O411 O 0.72707 0.26997 0.20347 0.0
O412 O 0.76055 0.24077 0.18244 0.0
C413 C 0.648 0.30415 0.15908 0.0
O414 O 0.76081 0.30768 0.13494 0.0
O415 O 0.72352 0.26603 0.14853 0.0
C416 C 0.73157 0.39515 0.09266 0.0
C417 C 0.76291 0.40136 0.05617 0.0
C418 C 0.76374 0.36665 0.06596 0.0
C419 C 0.7484 0.36362 0.08395 0.0
C420 C 0.73105 0.42989 0.08311 0.0
C421 C 0.74657 0.43302 0.06513 0.0
C422 C 0.71199 0.39158 0.11096 0.0
C423 C 0.70293 0.37804 0.18485 0.0
C424 C 0.79358 0.35826 0.16661 0.0
C425 C 0.72658 0.20366 0.20407 0.0
C426 C 0.6848 0.14557 0.22125 0.0
C427 C 0.66811 0.1681 0.20731 0.0
C428 C 0.68889 0.19706 0.1988 0.0
C429 C 0.74454 0.17858 0.21626 0.0
C430 C 0.72391 0.1496 0.22473 0.0
C431 C 0.74554 0.23913 0.19904 0.0
H432 H 0.77551 0.34142 0.05958 0.0
H433 H 0.74907 0.33635 0.09091 0.0
H434 H 0.71815 0.45462 0.08946 0.0
H435 H 0.74587 0.4604 0.05831 0.0
H436 H 0.63825 0.16543 0.20413 0.0
H437 H 0.6748 0.216 0.18915 0.0
H438 H 0.77371 0.18316 0.22034 0.0
H439 H 0.73787 0.13313 0.23545 0.0
Dy440 Dy 0.41895 0.96916 0.3921 0.0
Dy441 Dy 0.47481 0.97506 0.42751 0.0
C442 C 0.49939 1.00319 0.39018 0.0
O443 O 0.45159 0.91377 0.39426 0.0
O444 O 0.46571 0.9128 0.4254 0.0
O445 O 0.41514 0.94772 0.36401 0.0
O446 O 0.36968 0.98221 0.37497 0.0
O447 O 0.4224 0.95534 0.44132 0.0
O448 O 0.3848 0.94164 0.41554 0.0
O449 O 0.44789 0.03312 0.42408 0.0
O450 O 0.39359 1.01503 0.40916 0.0
O451 O 0.5313 0.96166 0.43684 0.0
O452 O 0.49623 1.00048 0.45273 0.0
C453 C 0.4621 0.89526 0.40939 0.0
O454 O 0.46442 1.01366 0.38718 0.0
O455 O 0.50329 0.97297 0.40016 0.0
C456 C 0.3808 0.98483 0.34206 0.0
C457 C 0.37542 1.01639 0.30563 0.0
C458 C 0.41036 1.01516 0.31514 0.0
C459 C 0.413 0.99965 0.33311 0.0
C460 C 0.34587 0.98648 0.33278 0.0
C461 C 0.34315 1.00208 0.31483 0.0
C462 C 0.38343 0.96513 0.36034 0.0
C463 C 0.39103 0.94231 0.43383 0.0
C464 C 0.41227 0.03937 0.41941 0.0
C465 C 0.56165 1.01545 0.44951 0.0
C466 C 0.6232 0.06631 0.45234 0.0
C467 C 0.62805 0.03052 0.444 0.0
C468 C 0.59766 1.00528 0.44271 0.0
C469 C 0.55605 0.0523 0.45635 0.0
C470 C 0.58635 0.07742 0.45768 0.0
C471 C 0.53042 0.98752 0.44979 0.0
H472 H 0.43598 0.02539 0.30856 0.0
H473 H 0.4404 0.99863 0.33987 0.0
H474 H 0.32062 0.97517 0.33933 0.0
H475 H 0.31563 1.00306 0.30823 0.0
H476 H 0.65576 1.02117 0.4394 0.0
H477 H 0.60272 0.97729 0.43701 0.0
H478 H 0.5286 0.0613 0.46147 0.0
H479 H 0.58113 0.10441 0.4644 0.0
Dy480 Dy 0.23266 0.28948 0.40457 0.0
Dy481 Dy 0.21846 0.34782 0.43892 0.0
C482 C 0.20443 0.3741 0.3961 0.0
O483 O 0.28814 0.31925 0.40967 0.0
O484 O 0.2681 0.37327 0.42455 0.0
O485 O 0.26361 0.23776 0.39949 0.0
O486 O 0.23096 0.26384 0.37725 0.0
O487 O 0.26074 0.30132 0.44554 0.0
O488 O 0.22229 0.26153 0.43162 0.0
O489 O 0.16236 0.31801 0.43439 0.0
O490 O 0.16955 0.28921 0.4057 0.0
O491 O 0.19721 0.34924 0.46716 0.0
O492 O 0.22473 0.39882 0.45578 0.0
C493 C 0.29354 0.35465 0.41484 0.0
O494 O 0.22522 0.34517 0.39065 0.0
O495 O 0.19311 0.3782 0.41368 0.0
C496 C 0.29264 0.24121 0.37045 0.0
C497 C 0.36372 0.24696 0.35262 0.0
C498 C 0.33957 0.27867 0.35404 0.0
C499 C 0.30466 0.2759 0.36297 0.0
C500 C 0.31667 0.20955 0.36938 0.0
C501 C 0.35193 0.21236 0.36053 0.0
C502 C 0.25772 0.23962 0.38159 0.0
C503 C 0.25004 0.26622 0.44316 0.0
C504 C 0.14829 0.29971 0.41988 0.0
C505 C 0.23064 0.38822 0.48898 0.0
C506 C 0.26262 0.40188 0.52498 0.0
C507 C 0.24033 0.36953 0.52155 0.0
C508 C 0.22453 0.36289 0.50389 0.0
C509 C 0.25333 0.42028 0.4923 0.0
C510 C 0.26916 0.42692 0.50997 0.0
C511 C 0.21074 0.38287 0.47071 0.0
H512 H 0.347 0.3056 0.34779 0.0
H513 H 0.28715 0.30109 0.36409 0.0
H514 H 0.30836 0.18283 0.37561 0.0
H515 H 0.36987 0.18746 0.35985 0.0
H516 H 0.23403 0.34976 0.53266 0.0
H517 H 0.20675 0.33818 0.50206 0.0
H518 H 0.25842 0.44066 0.48129 0.0
H519 H 0.28657 0.45187 0.51183 0.0
Dy520 Dy 0.977 0.98243 0.15142 0.0
Dy521 Dy 0.9219 0.97577 0.18767 0.0
C522 C 0.89717 0.94389 0.14622 0.0
O523 O 0.93011 0.02414 0.14611 0.0
O524 O 0.91453 0.03517 0.17671 0.0
O525 O 0.03523 0.9744 0.14362 0.0
O526 O 0.9956 0.99817 0.1237 0.0
O527 O 0.9814 0.99273 0.19635 0.0
O528 O 0.99 0.02877 0.17102 0.0
O529 O 0.93762 0.91541 0.18166 0.0
O530 O 0.9931 0.929 0.16663 0.0
O531 O 0.91289 0.95274 0.21522 0.0
O532 O 0.8732 0.99367 0.2042 0.0
C533 C 0.91312 0.04468 0.15897 0.0
O534 O 0.93298 0.94321 0.1412 0.0
O535 O 0.88597 0.95872 0.16238 0.0
C536 C 0.05798 0.0224 0.12432 0.0
C537 C 0.10865 0.08241 0.11741 0.0
C538 C 0.10629 0.05131 0.10511 0.0
C539 C 0.08119 1.0216 0.10856 0.0
C540 C 0.06125 0.05246 0.13707 0.0
C541 C 0.08639 0.08225 0.13365 0.0
C542 C 0.03112 0.99143 0.12765 0.0
C543 C 0.99904 1.02075 0.18802 0.0
C544 C 0.97053 0.90465 0.17494 0.0
C545 C 0.88115 0.99234 0.23749 0.0
C546 C 0.87213 1.02004 0.27462 0.0
C547 C 0.90673 1.00404 0.26866 0.0
C548 C 0.91116 0.99032 0.25038 0.0
C549 C 0.84701 1.00923 0.24326 0.0
C550 C 0.84258 0.02297 0.26149 0.0
C551 C 0.88351 0.97402 0.21875 0.0
H552 H 0.12235 0.05081 0.09224 0.0
H553 H 0.07928 0.99845 0.09869 0.0
H554 H 0.04392 0.05326 0.14949 0.0
H555 H 0.0876 0.10565 0.1434 0.0
H556 H 0.9301 1.00092 0.27828 0.0
H557 H 0.93785 0.97731 0.24652 0.0
H558 H 0.8233 1.01109 0.23374 0.0
H559 H 0.81575 0.03573 0.2653 0.0
Dy560 Dy 0.29021 0.73585 0.90508 0.0
Dy561 Dy 0.30557 0.67887 0.93985 0.0
C562 C 0.31916 0.65155 0.89722 0.0
O563 O 0.23523 0.70529 0.91056 0.0
O564 O 0.2553 0.65261 0.92655 0.0
O565 O 0.25925 0.78742 0.89972 0.0
O566 O 0.28996 0.75958 0.8773 0.0
O567 O 0.26243 0.72472 0.94629 0.0
O568 O 0.29938 0.76547 0.93185 0.0
O569 O 0.36005 0.71123 0.9354 0.0
O570 O 0.35352 0.73647 0.9059 0.0
O571 O 0.32627 0.67869 0.96813 0.0
O572 O 0.30257 0.6274 0.95655 0.0
C573 C 0.22984 0.67036 0.9165 0.0
O574 O 0.29737 0.67963 0.89173 0.0
O575 O 0.33144 0.64872 0.91466 0.0
C576 C 0.22711 0.78085 0.87165 0.0
C577 C 0.15386 0.77155 0.85651 0.0
C578 C 0.18066 0.74195 0.85574 0.0
C579 C 0.21666 0.74644 0.86332 0.0
C580 C 0.20044 0.81035 0.87273 0.0
C581 C 0.16414 0.80577 0.86524 0.0
C582 C 0.26325 0.78381 0.88176 0.0
C583 C 0.27215 0.7601 0.94367 0.0
C584 C 0.37437 0.72809 0.92054 0.0
C585 C 0.29753 0.63642 0.98958 0.0
C586 C 0.26676 0.62662 1.026 0.0
C587 C 0.24826 0.64948 1.01263 0.0
C588 C 0.26347 0.65436 0.99466 0.0
C589 C 0.31568 0.61314 1.00268 0.0
C590 C 0.30058 0.60827 1.02061 0.0
C591 C 0.31628 0.64374 0.97139 0.0
H592 H 0.17435 0.71547 0.84879 0.0
H593 H 0.2362 0.72272 0.86278 0.0
H594 H 0.20749 0.8367 0.87966 0.0
H595 H 0.14421 0.82906 0.86626 0.0
H596 H 0.22199 0.66374 1.01604 0.0
H597 H 0.24897 0.67262 0.98483 0.0
H598 H 0.34219 0.59931 0.99917 0.0
H599 H 0.31617 0.59095 1.03042 0.0
Dy600 Dy 0.57614 0.06556 0.64411 0.0
Dy601 Dy 0.6071 0.06302 0.68712 0.0
C602 C 0.65416 0.09774 0.65286 0.0
O603 O 0.61935 1.01849 0.64671 0.0
O604 O 0.6084 1.00335 0.67714 0.0
O605 O 0.57061 0.03914 0.61707 0.0
O606 O 0.5543 0.09783 0.62099 0.0
O607 O 0.54813 0.03712 0.68893 0.0
O608 O 0.53183 0.03144 0.65775 0.0
O609 O 0.58624 0.12243 0.68114 0.0
O610 O 0.54068 0.10659 0.66004 0.0
O611 O 0.60176 0.07899 0.7161 0.0
O612 O 0.6523 0.0498 0.70666 0.0
C613 C 0.62091 0.99402 0.66055 0.0
O614 O 0.6209 0.10847 0.64735 0.0
O615 O 0.65639 0.07374 0.66691 0.0
C616 C 0.58731 0.08221 0.5934 0.0
C617 C 0.63736 0.10017 0.56411 0.0
C618 C 0.633 0.12511 0.57917 0.0
C619 C 0.60851 0.11602 0.59382 0.0
C620 C 0.59148 0.05749 0.57829 0.0
C621 C 0.61634 0.06629 0.56383 0.0
C622 C 0.56251 0.0713 0.60902 0.0
C623 C 0.52483 0.02608 0.67552 0.0
C624 C 0.55543 0.13109 0.67168 0.0
C625 C 0.63647 0.04365 0.7391 0.0
C626 C 0.64266 1.01265 0.77567 0.0
C627 C 0.60718 1.01558 0.76674 0.0
C628 C 0.6041 0.03098 0.74871 0.0
C629 C 0.67189 0.04002 0.74781 0.0
C630 C 0.67499 0.02475 0.7658 0.0
C631 C 0.63409 0.06389 0.7209 0.0
H632 H 0.64864 0.15147 0.57968 0.0
H633 H 0.6063 0.13543 0.60546 0.0
H634 H 0.57561 0.03125 0.57772 0.0
H635 H 0.61848 0.04689 0.55218 0.0
H636 H 0.58156 1.00692 0.77386 0.0
H637 H 0.57631 0.03362 0.74247 0.0
H638 H 0.6973 0.04973 0.74081 0.0
H639 H 0.70288 0.0224 0.77195 0.0
H640 H 0.42556 0.35327 0.26504 0.0
H641 H 0.39409 0.19267 0.32948 0.0
H642 H 0.43864 0.23602 0.24919 0.0
H643 H 0.41349 0.30683 0.34892 0.0
H644 H 0.43509 0.2049 0.30312 0.0
H645 H 0.44664 0.33721 0.29637 0.0
C646 C 0.43424 0.32439 0.26796 0.0
C647 C 0.42847 0.29562 0.25479 0.0
C648 C 0.43131 0.22714 0.31336 0.0
C649 C 0.45142 0.27675 0.29067 0.0
C650 C 0.40785 0.22002 0.3286 0.0
C651 C 0.39844 0.24949 0.34091 0.0
C652 C 0.44417 0.26428 0.31009 0.0
C653 C 0.41803 0.28398 0.3391 0.0
C654 C 0.44631 0.31513 0.2859 0.0
C655 C 0.44144 0.25898 0.25909 0.0
N656 N 0.43882 0.29096 0.32355 0.0
N657 N 0.45099 0.25028 0.27687 0.0
H658 H 0.47165 0.67378 0.60281 0.0
H659 H 0.55678 0.70193 0.50553 0.0
H660 H 0.58575 0.65069 0.5842 0.0
H661 H 0.43822 0.69064 0.51899 0.0
H662 H 0.56863 0.72453 0.53692 0.0
H663 H 0.46398 0.71798 0.57688 0.0
C664 C 0.49549 0.67875 0.59361 0.0
C665 C 0.52856 0.65662 0.59496 0.0
C666 C 0.53971 0.71868 0.53281 0.0
C667 C 0.52013 0.70757 0.56561 0.0
C668 C 0.53281 0.7059 0.51477 0.0
C669 C 0.49673 0.69229 0.51 0.0
C670 C 0.51055 0.71683 0.54609 0.0
C671 C 0.46684 0.69899 0.52248 0.0
C672 C 0.49118 0.70434 0.57894 0.0
C673 C 0.55919 0.66595 0.58337 0.0
N674 N 0.47459 0.70949 0.54025 0.0
N675 N 0.55386 0.68992 0.56883 0.0
H676 H 0.07428 0.80008 0.75699 0.0
H677 H 0.10838 0.7084 0.8521 0.0
H678 H 0.10036 0.68242 0.76743 0.0
H679 H 0.11583 0.82662 0.83687 0.0
H680 H 0.06664 0.69782 0.82549 0.0
H681 H 0.04801 0.80514 0.78817 0.0
C682 C 0.07305 0.77474 0.76549 0.0
C683 C 0.0917 0.74131 0.76001 0.0
C684 C 0.0763 0.72634 0.82843 0.0
C685 C 0.06295 0.74756 0.79594 0.0
C686 C 0.10049 0.73238 0.8435 0.0
C687 C 0.11773 0.76796 0.846 0.0
C688 C 0.06964 0.75606 0.81584 0.0
C689 C 0.10455 0.79834 0.83515 0.0
C690 C 0.05809 0.77776 0.78341 0.0
C691 C 0.08822 0.70937 0.77155 0.0
N692 N 0.08218 0.79147 0.8202 0.0
N693 N 0.0755 0.71358 0.78929 0.0
H694 H 0.15086 0.62834 0.98339 0.0
H695 H 1.01296 0.71443 0.05092 0.0
H696 H 0.03978 0.67091 0.96959 0.0
H697 H 0.1268 0.67947 0.06427 0.0
H698 H 0.03344 0.72841 1.0192 0.0
H699 H 0.15474 0.67491 1.00841 0.0
C700 C 0.12784 0.64838 0.9852 0.0
C701 C 0.09406 0.64433 0.97512 0.0
C702 C 0.05437 0.71894 1.02919 0.0
C703 C 0.09785 0.69685 1.00395 0.0
C704 C 0.0426 0.71103 0.04733 0.0
C705 C 0.06784 0.69421 0.05992 0.0
C706 C 0.09114 0.70843 1.02356 0.0
C707 C 0.10612 0.69138 0.05479 0.0
C708 C 0.13005 0.67507 0.9995 0.0
C709 C 0.06585 0.67203 0.97747 0.0
N710 N 0.11637 0.69704 1.03678 0.0
N711 N 0.06777 0.69627 0.99211 0.0
H712 H 0.93616 0.71455 0.86882 0.0
H713 H 0.97314 0.72291 0.78165 0.0
H714 H 0.85942 0.62654 0.85125 0.0
H715 H 0.91958 0.61405 0.77478 0.0
H716 H 0.98456 0.70811 0.81411 0.0
H717 H 0.98015 0.69539 0.8443 0.0
C718 C 0.92888 0.69067 0.86005 0.0
C719 C 0.89291 0.67381 0.8613 0.0
C720 C 0.97162 0.68656 0.80553 0.0
C721 C 0.94227 0.65273 0.83279 0.0
C722 C 0.96503 0.69524 0.78685 0.0
C723 C 0.94346 0.67061 0.77581 0.0
C724 C 0.9556 0.65343 0.81318 0.0
C725 C 0.9351 0.63455 0.78297 0.0
C726 C 0.95394 0.67989 0.84592 0.0
C727 C 0.88607 0.64155 0.85039 0.0
N728 N 0.93997 0.62757 0.8014 0.0
N729 N 0.90996 0.63285 0.83621 0.0
H730 H 0.69812 0.07807 0.23975 0.0
H731 H 0.62372 0.19968 0.3209 0.0
H732 H 0.61699 0.16935 0.23584 0.0
H733 H 0.71879 0.12293 0.32186 0.0
H734 H 0.59798 0.16508 0.29416 0.0
H735 H 0.67987 0.06886 0.27223 0.0
C736 C 0.67537 0.09517 0.24546 0.0
C737 C 0.66098 0.12624 0.23546 0.0
C738 C 0.6238 0.15495 0.30062 0.0
C739 C 0.64049 0.11632 0.27252 0.0
C740 C 0.63844 0.17473 0.31585 0.0
C741 C 0.67399 0.16481 0.32298 0.0
C742 C 0.64528 0.1256 0.29249 0.0
C743 C 0.69183 0.13207 0.31622 0.0
C744 C 0.66498 0.08996 0.26405 0.0
C745 C 0.63025 0.14614 0.24324 0.0
N746 N 0.67774 0.11412 0.30106 0.0
N747 N 0.62205 0.14188 0.26158 0.0
H748 H 0.08559 0.15654 0.12046 0.0
H749 H 0.07627 0.22123 1.03857 0.0
H750 H 0.17858 0.08815 0.1006 0.0
H751 H 0.17575 0.15523 1.02589 0.0
H752 H 0.09657 0.22547 0.07072 0.0
H753 H 0.1041 0.20651 0.09922 0.0
C754 C 0.11067 0.15238 0.11198 0.0
C755 C 0.12906 0.11707 0.11137 0.0
C756 C 0.11488 0.2109 0.06101 0.0
C757 C 0.1487 0.17315 0.08589 0.0
C758 C 0.10316 0.2087 0.04249 0.0
C759 C 0.12354 0.18643 1.02977 0.0
C760 C 0.14654 0.18954 0.06684 0.0
C761 C 0.15878 0.17205 1.03534 0.0
C762 C 0.12092 0.1809 0.09948 0.0
C763 C 0.16217 0.11412 0.10066 0.0
N764 N 0.1686 0.17282 0.05358 0.0
N765 N 0.17015 0.14122 0.08784 0.0
H766 H 0.63245 0.1441 0.45665 0.0
H767 H 0.6422 0.16806 0.54548 0.0
H768 H 0.69158 0.03845 0.46502 0.0
H769 H 0.68809 0.05472 0.54609 0.0
H770 H 0.66823 0.1773 0.51436 0.0
H771 H 0.66289 0.16947 0.4842 0.0
C772 C 0.65276 0.12653 0.46397 0.0
C773 C 0.65625 0.08777 0.45974 0.0
C774 C 0.67307 0.15046 0.52122 0.0
C775 C 0.69106 0.11625 0.49136 0.0
C776 C 0.65843 0.14534 0.53916 0.0
C777 C 0.6615 0.10992 0.54795 0.0
C778 C 0.68989 0.11949 0.51196 0.0
C779 C 0.68356 0.08187 0.5394 0.0
C780 C 0.67019 0.14103 0.47989 0.0
C781 C 0.68554 0.06765 0.46854 0.0
N782 N 0.69598 0.08691 0.52172 0.0
N783 N 0.70073 0.0816 0.48444 0.0
H784 H 0.19748 0.04611 0.94586 0.0
H785 H 0.26094 0.18847 1.02739 0.0
H786 H 0.18288 0.16726 0.94334 0.0
H787 H 0.25425 0.06704 1.03422 0.0
H788 H 0.24266 0.18113 0.99476 0.0
H789 H 0.22989 0.0533 0.97591 0.0
C790 C 0.2025 0.07434 0.95125 0.0
C791 C 0.18779 0.10617 0.94199 0.0
C792 C 0.24542 0.15605 1.00336 0.0
C793 C 0.22391 0.11464 0.97663 0.0
C794 C 0.25607 0.16019 1.02205 0.0
C795 C 0.25904 0.12837 1.03381 0.0
C796 C 0.23788 0.11979 0.99615 0.0
C797 C 0.25166 0.09255 1.02593 0.0
C798 C 0.22042 0.07842 0.96858 0.0
C799 C 0.19421 0.14203 0.9499 0.0
N800 N 0.24143 0.08927 1.00769 0.0
N801 N 0.21145 0.14527 0.96678 0.0
H802 H 0.7174 0.49294 0.29021 0.0
H803 H 0.63337 0.4085 0.19472 0.0
H804 H 0.5974 0.48011 0.28074 0.0
H805 H 0.75152 0.40842 0.20962 0.0
H806 H 0.61896 0.44261 0.22396 0.0
H807 H 0.72966 0.46878 0.25901 0.0
C808 C 0.69352 0.48479 0.28167 0.0
C809 C 0.65625 0.48824 0.28842 0.0
C810 C 0.6481 0.43566 0.22065 0.0
C811 C 0.67026 0.46088 0.25209 0.0
C812 C 0.65633 0.41665 0.20386 0.0
C813 C 0.69372 0.40589 0.1997 0.0
C814 C 0.67753 0.44405 0.23324 0.0
C815 C 0.72231 0.41629 0.21226 0.0
C816 C 0.70058 0.47123 0.26369 0.0
C817 C 0.62662 0.47817 0.27624 0.0
N818 N 0.71365 0.43454 0.22839 0.0
N819 N 0.63424 0.46481 0.25876 0.0
H820 H 0.24028 0.94973 0.52798 0.0
H821 H 0.39837 0.87983 0.45538 0.0
H822 H 0.31635 0.85597 0.53802 0.0
H823 H 0.32321 0.97345 0.44446 0.0
H824 H 0.36315 0.86594 0.48397 0.0
H825 H 0.26594 0.95551 0.49644 0.0
C826 C 0.26244 0.93037 0.52365 0.0
C827 C 0.27625 0.90246 0.53594 0.0
C828 C 0.35368 0.88903 0.47518 0.0
C829 C 0.30549 0.90865 0.49942 0.0
C830 C 0.3735 0.89661 0.4587 0.0
C831 C 0.36309 0.92722 0.44731 0.0
C832 C 0.32358 0.91277 0.48062 0.0
C833 C 0.33149 0.94894 0.4526 0.0
C834 C 0.27686 0.93352 0.5055 0.0
C835 C 0.30444 0.87775 0.52916 0.0
N836 N 0.31311 0.94158 0.46896 0.0
N837 N 0.31817 0.88158 0.51149 0.0
H838 H 0.78034 0.58849 0.69635 0.0
H839 H 0.90864 0.49365 0.77587 0.0
H840 H 0.9023 0.58953 0.69447 0.0
H841 H 0.79965 0.54389 0.78727 0.0
H842 H 0.90305 0.51378 0.74322 0.0
H843 H 0.78328 0.55605 0.72665 0.0
C844 C 0.8077 0.5805 0.70193 0.0
C845 C 0.84116 0.59116 0.69273 0.0
C846 C 0.8802 0.52004 0.75283 0.0
C847 C 0.84473 0.55469 0.7275 0.0
C848 C 0.88328 0.50842 0.77143 0.0
C849 C 0.85454 0.51706 0.78432 0.0
C850 C 0.84777 0.53978 0.74691 0.0
C851 C 0.8225 0.53674 0.77782 0.0
C852 C 0.80936 0.56257 0.71937 0.0
C853 C 0.87587 0.58119 0.70094 0.0
N854 N 0.8199 0.5473 0.75958 0.0
N855 N 0.87678 0.56363 0.71785 0.0
H856 H 0.82567 0.97212 0.13829 0.0
H857 H 0.8199 0.86427 1.03963 0.0
H858 H 0.90719 0.88864 0.12027 0.0
H859 H 0.73547 0.94657 0.05596 0.0
H860 H 0.84887 0.86996 0.07025 0.0
H861 H 0.78855 0.95977 0.10986 0.0
C862 C 0.83521 0.95047 0.12866 0.0
C863 C 0.8696 0.93133 0.13175 0.0
C864 C 0.82391 0.88674 0.06722 0.0
C865 C 0.82779 0.91766 0.09895 0.0
C866 C 0.80708 0.88332 0.04965 0.0
C867 C 0.77494 0.90492 0.04494 0.0
C868 C 0.80884 0.91209 0.08044 0.0
C869 C 0.76047 0.92968 0.05868 0.0
C870 C 0.81426 0.94375 0.1123 0.0
C871 C 0.88094 0.90417 0.11851 0.0
N872 N 0.77751 0.93264 0.0757 0.0
N873 N 0.86037 0.8984 0.10276 0.0
H874 H 0.38924 0.62273 0.88684 0.0
H875 H 0.30337 0.53021 0.79348 0.0
H876 H 0.27045 0.61801 0.87347 0.0
H877 H 0.42333 0.54707 0.80141 0.0
H878 H 0.29182 0.55596 0.82445 0.0
H879 H 0.4033 0.58753 0.85787 0.0
C880 C 0.3661 0.61329 0.87813 0.0
C881 C 0.32859 0.62301 0.88266 0.0
C882 C 0.32074 0.55403 0.81948 0.0
C883 C 0.34437 0.5836 0.84934 0.0
C884 C 0.32739 0.53955 0.80162 0.0
C885 C 0.36443 0.53669 0.79449 0.0
C886 C 0.35125 0.56593 0.83061 0.0
C887 C 0.39427 0.54841 0.8062 0.0
C888 C 0.37412 0.59367 0.86146 0.0
C889 C 0.29976 0.61097 0.87057 0.0
N890 N 0.38705 0.56262 0.82357 0.0
N891 N 0.30822 0.59217 0.85455 0.0
H892 H 0.73854 0.18301 0.55045 0.0
H893 H 0.70561 0.04688 0.63809 0.0
H894 H 0.7902 0.07204 0.55417 0.0
H895 H 0.67016 0.16368 0.63538 0.0
H896 H 0.741 0.05571 0.60877 0.0
H897 H 0.71713 0.17671 0.58236 0.0
C898 C 0.74607 0.15744 0.55791 0.0
C899 C 0.76666 0.12815 0.54919 0.0
C900 C 0.72628 0.07966 0.61486 0.0
C901 C 0.74045 0.12019 0.58626 0.0
C902 C 0.70661 0.07477 0.63178 0.0
C903 C 0.68541 0.10479 0.63939 0.0
C904 C 0.72451 0.11474 0.60547 0.0
C905 C 0.68652 0.13992 0.63017 0.0
C906 C 0.73333 0.15373 0.57627 0.0
C907 C 0.77393 0.09529 0.55989 0.0
N908 N 0.70527 0.14378 0.61371 0.0
N909 N 0.76065 0.09212 0.57771 0.0
H910 H 0.13521 0.40722 0.38735 0.0
H911 H 0.21599 0.48764 0.29003 0.0
H912 H 0.25218 0.40267 0.37027 0.0
H913 H 0.09641 0.48391 0.30248 0.0
H914 H 0.2293 0.46196 0.32082 0.0
H915 H 0.12014 0.44196 0.35836 0.0
C916 C 0.15784 0.41445 0.37779 0.0
C917 C 0.19505 0.40221 0.38129 0.0
C918 C 0.20008 0.46673 0.31689 0.0
C919 C 0.17803 0.44113 0.34797 0.0
C920 C 0.19238 0.48117 0.29913 0.0
C921 C 0.1549 0.48771 0.29332 0.0
C922 C 0.17021 0.45854 0.32925 0.0
C923 C 0.12578 0.47961 0.30622 0.0
C924 C 0.14919 0.43384 0.36112 0.0
C925 C 0.22311 0.41158 0.36817 0.0
N926 N 0.13401 0.46534 0.32347 0.0
N927 N 0.21404 0.43018 0.35218 0.0
H928 H 0.70429 0.68341 0.5373 0.0
H929 H 0.69727 0.5556 0.44473 0.0
H930 H 0.77318 0.58326 0.52987 0.0
H931 H 0.62997 0.6561 0.45371 0.0
H932 H 0.73081 0.5684 0.47412 0.0
H933 H 0.6813 0.67642 0.50548 0.0
C934 C 0.7149 0.66008 0.52898 0.0
C935 C 0.74076 0.63387 0.5365 0.0
C936 C 0.70919 0.58803 0.46946 0.0
C937 C 0.71399 0.62539 0.49971 0.0
C938 C 0.69044 0.58101 0.45253 0.0
C939 C 0.6609 0.60494 0.44667 0.0
C940 C 0.6983 0.61917 0.48057 0.0
C941 C 0.65259 0.63692 0.45764 0.0
C942 C 0.70157 0.65599 0.51074 0.0
C943 C 0.75281 0.60388 0.52491 0.0
N944 N 0.67085 0.64287 0.47404 0.0
N945 N 0.73929 0.60042 0.50719 0.0
H946 H 0.19768 0.02718 0.78104 0.0
H947 H 0.11655 0.8889 0.7022 0.0
H948 H 0.09363 0.96395 0.78616 0.0
H949 H 0.21926 0.95308 0.69508 0.0
H950 H 0.10464 0.92187 0.73151 0.0
H951 H 0.20412 1.00462 0.74894 0.0
C952 C 0.1762 1.00845 0.77551 0.0
C953 C 0.14513 0.99735 0.78658 0.0
C954 C 0.12945 0.92943 0.72344 0.0
C955 C 0.15216 0.97179 0.74943 0.0
C956 C 0.13605 0.91086 0.70655 0.0
C957 C 0.16874 0.91851 0.69602 0.0
C958 C 0.15603 0.95562 0.7302 0.0
C959 C 0.19336 0.94678 0.70255 0.0
C960 C 0.17978 0.99586 0.75705 0.0
C961 C 0.11791 0.97367 0.77829 0.0
N962 N 0.1868 0.96392 0.71934 0.0
N963 N 0.12218 0.96162 0.76037 0.0
H964 H 0.82535 0.36489 0.04144 0.0
H965 H 0.8233 0.47281 0.94299 0.0
H966 H 0.73788 0.44492 1.02639 0.0
H967 H 0.90513 0.38802 0.9589 0.0
H968 H 0.78757 0.4594 0.97179 0.0
H969 H 0.85154 0.37016 1.01018 0.0
C970 C 0.8113 0.38335 1.03157 0.0
C971 C 0.77914 0.40444 1.03682 0.0
C972 C 0.81295 0.44321 0.96878 0.0
C973 C 0.8098 0.41115 1.00058 0.0
C974 C 0.83303 0.45048 0.95219 0.0
C975 C 0.86715 0.43134 0.94846 0.0
C976 C 0.82718 0.41666 0.9817 0.0
C977 C 0.87896 0.40342 0.96118 0.0
C978 C 0.8265 0.38651 1.01363 0.0
C979 C 0.763 0.42848 1.02325 0.0
N980 N 0.85931 0.39723 0.9772 0.0
N981 N 0.77852 0.43127 1.00586 0.0
H982 H 0.30424 0.07848 0.19276 0.0
H983 H 0.41427 0.07691 0.29057 0.0
H984 H 0.39304 0.15637 0.20781 0.0
H985 H 0.33019 0.99314 0.27625 0.0
H986 H 0.40916 0.10322 0.25931 0.0
H987 H 0.31626 0.04302 0.22177 0.0
C988 C 0.32695 0.08748 0.20186 0.0
C989 C 0.34766 0.12046 0.19781 0.0
C990 C 0.39189 0.07896 0.26292 0.0
C991 C 0.36093 0.08071 0.23123 0.0
C992 C 0.39494 0.0637 0.28085 0.0
C993 C 0.37265 0.03259 0.28629 0.0
C994 C 0.36619 0.06332 0.25011 0.0
C995 C 0.34759 1.01747 0.27294 0.0
C996 C 0.3335 0.06752 0.21855 0.0
C997 C 0.37624 0.13122 0.21035 0.0
N998 N 0.34495 0.033 0.25557 0.0
N999 N 0.38175 0.11171 0.22646 0.0
H1000 H 0.36421 0.38923 0.63673 0.0
H1001 H 0.2712 0.47107 0.54244 0.0
H1002 H 0.35855 0.50763 0.62225 0.0
H1003 H 0.28894 0.35144 0.55181 0.0
H1004 H 0.29691 0.4841 0.57326 0.0
H1005 H 0.32919 0.37401 0.60792 0.0
C1006 C 0.35453 0.41206 0.62782 0.0
C1007 C 0.3639 0.4498 0.63202 0.0
C1008 C 0.29517 0.45494 0.56863 0.0
C1009 C 0.32477 0.43265 0.59882 0.0
C1010 C 0.2807 0.44743 0.55086 0.0
C1011 C 0.27805 0.41002 0.54417 0.0
C1012 C 0.30725 0.42495 0.58013 0.0
C1013 C 0.29004 0.38074 0.55623 0.0
C1014 C 0.33503 0.40337 0.61124 0.0
C1015 C 0.35167 0.47817 0.61965 0.0
N1016 N 0.30419 0.38881 0.5735 0.0
N1017 N 0.33301 0.46906 0.60369 0.0
H1018 H 0.80789 1.01377 0.29622 0.0
H1019 H 0.89116 0.12307 0.3855 0.0
H1020 H 0.92304 0.05433 0.29879 0.0
H1021 H 0.77464 0.08982 0.37898 0.0
H1022 H 0.9065 0.09053 0.356 0.0
H1023 H 0.79788 0.0354 0.32807 0.0
C1024 C 0.83112 0.02743 0.30338 0.0
C1025 C 0.86629 0.03252 0.29449 0.0
C1026 C 0.87774 0.08962 0.36125 0.0
C1027 C 0.85506 0.05702 0.33158 0.0
C1028 C 0.86915 0.10765 0.37826 0.0
C1029 C 0.83168 0.1086 0.38487 0.0
C1030 C 0.84862 0.07251 0.35081 0.0
C1031 C 0.80398 0.08935 0.37453 0.0
C1032 C 0.82544 0.03953 0.32174 0.0
C1033 C 0.89546 0.04955 0.30495 0.0
N1034 N 0.81291 0.07244 0.35806 0.0
N1035 N 0.88914 0.06134 0.32283 0.0
H1036 H 0.14969 0.66252 0.13119 0.0
H1037 H 0.26906 0.56405 0.0494 0.0
H1038 H 0.19718 0.55037 0.13627 0.0
H1039 H 0.22971 0.68001 0.04767 0.0
H1040 H 0.24555 0.55893 0.08138 0.0
H1041 H 0.18223 0.67029 0.10142 0.0
C1042 C 0.16801 0.63991 0.12629 0.0
C1043 C 0.17109 0.60594 0.13643 0.0
C1044 C 0.24219 0.58553 0.07402 0.0
C1045 C 0.20775 0.61415 0.10176 0.0
C1046 C 0.25576 0.5886 0.05569 0.0
C1047 C 0.25158 0.62261 0.04555 0.0
C1048 C 0.22406 0.61661 0.08246 0.0
C1049 C 0.23326 0.65299 0.0546 0.0
C1050 C 0.18632 0.64422 0.10914 0.0
C1051 C 0.19461 0.57733 0.12916 0.0
N1052 N 0.22024 0.64923 0.0724 0.0
N1053 N 0.21165 0.58189 0.11217 0.0
H1054 H 0.69004 0.03616 0.80404 0.0
H1055 H 0.63248 0.8669 0.87282 0.0
H1056 H 0.60313 0.95387 0.79206 0.0
H1057 H 0.71358 0.95263 0.88787 0.0
H1058 H 0.61785 0.90203 0.84442 0.0
H1059 H 0.69683 1.00893 0.83525 0.0
C1060 C 0.67239 1.01233 0.80789 0.0
C1061 C 0.6461 0.99724 0.79515 0.0
C1062 C 0.63842 0.91367 0.85401 0.0
C1063 C 0.65353 0.96608 0.83124 0.0
C1064 C 0.64658 0.89372 0.87034 0.0
C1065 C 0.67408 0.90697 0.88285 0.0
C1066 C 0.65837 0.94703 0.84979 0.0
C1067 C 0.69176 0.94167 0.87878 0.0
C1068 C 0.67611 0.99699 0.82584 0.0
C1069 C 0.62357 0.96681 0.80128 0.0
N1070 N 0.684 0.96023 0.86248 0.0
N1071 N 0.62799 0.9522 0.81874 0.0
H1072 H 0.43639 0.17863 0.15628 0.0
H1073 H 0.58908 0.34235 0.14244 0.0
H1074 H 0.40309 0.29622 0.15342 0.0
H1075 H 0.61374 0.2411 0.17391 0.0
H1076 H 0.52212 0.32343 0.14119 0.0
H1077 H 0.503 0.19831 0.15743 0.0
C1078 C 0.44306 0.20857 0.15569 0.0
C1079 C 0.41401 0.23579 0.15467 0.0
C1080 C 0.54225 0.30544 0.14838 0.0
C1081 C 0.49038 0.25848 0.15583 0.0
C1082 C 0.58049 0.31612 0.14905 0.0
C1083 C 0.60718 0.29336 0.15834 0.0
C1084 C 0.53066 0.27122 0.15664 0.0
C1085 C 0.59423 0.25969 0.1667 0.0
C1086 C 0.48109 0.21977 0.15648 0.0
C1087 C 0.42449 0.27425 0.15419 0.0
N1088 N 0.55708 0.24948 0.1655 0.0
N1089 N 0.46177 0.28443 0.15461 0.0
H1090 H 0.56946 0.67964 0.38197 0.0
H1091 H 0.46064 0.84235 0.43729 0.0
H1092 H 0.49363 0.65563 0.42765 0.0
H1093 H 0.48743 0.85488 0.37899 0.0
H1094 H 0.47991 0.77562 0.43559 0.0
H1095 H 0.54687 0.74577 0.38199 0.0
C1096 C 0.54799 0.68816 0.39193 0.0
C1097 C 0.53337 0.66187 0.40477 0.0
C1098 C 0.48143 0.79293 0.42315 0.0
C1099 C 0.50805 0.73764 0.40512 0.0
C1100 C 0.47054 0.83107 0.42411 0.0
C1101 C 0.47231 0.8543 0.40824 0.0
C1102 C 0.49509 0.7779 0.40629 0.0
C1103 C 0.48533 0.83798 0.39154 0.0
C1104 C 0.53508 0.72586 0.3919 0.0
C1105 C 0.50562 0.67467 0.4174 0.0
N1106 N 0.49661 0.80093 0.39104 0.0
N1107 N 0.49423 0.71159 0.41738 0.0
H1108 H 0.92554 0.73901 0.68813 0.0
H1109 H 0.09691 0.81738 0.62974 0.0
H1110 H 0.92578 0.72163 0.62869 0.0
H1111 H 0.11572 0.75617 0.68092 0.0
H1112 H 0.03106 0.79426 0.62948 0.0
H1113 H 0.9922 0.75803 0.68648 0.0
C1114 C 0.93954 0.73952 0.67469 0.0
C1115 C 0.92002 0.72883 0.6585 0.0
C1116 C 0.04981 0.78579 0.64066 0.0
C1117 C 0.99623 0.75117 0.65653 0.0
C1118 C 0.08728 0.799 0.64087 0.0
C1119 C 0.11193 0.78869 0.65538 0.0
C1120 C 0.03656 0.76316 0.65538 0.0
C1121 C 0.09785 0.76479 0.66944 0.0
C1122 C 0.97762 0.75012 0.6738 0.0
C1123 C 0.9398 0.72962 0.6415 0.0
N1124 N 0.06102 0.75337 0.66925 0.0
N1125 N 0.97674 0.74109 0.6409 0.0
H1126 H 0.97136 0.3592 0.87654 0.0
H1127 H 0.02985 0.17992 0.93632 0.0
H1128 H 1.00956 0.36877 0.93336 0.0
H1129 H 0.06306 0.18505 0.87853 0.0
H1130 H 1.01008 0.24626 0.93474 0.0
H1131 H 0.9936 0.29278 0.87613 0.0
C1132 C 0.98445 0.34744 0.88889 0.0
C1133 C 0.9887 0.36974 0.90499 0.0
C1134 C 0.02158 0.23288 0.92238 0.0
C1135 C 1.0133 0.2937 0.90472 0.0
C1136 C 0.03267 0.19487 0.9232 0.0
C1137 C 0.04811 0.1767 0.9075 0.0
C1138 C 0.02496 0.25303 0.90561 0.0
C1139 C 0.0514 0.19791 0.89097 0.0
C1140 C 0.99724 0.30964 0.88861 0.0
C1141 C 1.00591 0.35289 0.92059 0.0
N1142 N 0.03956 0.23488 0.89039 0.0
N1143 N 1.01707 0.31591 0.92013 0.0
H1144 H 0.61505 0.76005 0.89663 0.0
H1145 H 0.41861 0.74369 0.95084 0.0
H1146 H 0.59255 0.82228 0.94715 0.0
H1147 H 0.42329 0.73734 0.8909 0.0
H1148 H 0.48557 0.76192 0.95123 0.0
H1149 H 0.54804 0.74082 0.89574 0.0
C1150 C 0.59614 0.76942 0.9076 0.0
C1151 C 0.60951 0.79284 0.92199 0.0
C1152 C 0.47193 0.75653 0.938 0.0
C1153 C 0.53299 0.77055 0.92116 0.0
C1154 C 0.43373 0.74597 0.93775 0.0
C1155 C 0.41515 0.73908 0.9208 0.0
C1156 C 0.49221 0.75938 0.92121 0.0
C1157 C 0.43633 0.74265 0.90428 0.0
C1158 C 0.55789 0.75864 0.90701 0.0
C1159 C 0.58355 0.80435 0.93576 0.0
N1160 N 0.47379 0.75221 0.90489 0.0
N1161 N 0.54674 0.79285 0.93509 0.0
H1162 H 0.48116 0.35982 0.70098 0.0
H1163 H 0.51094 0.16602 0.64564 0.0
H1164 H 0.47941 0.35413 0.64098 0.0
H1165 H 0.56478 0.1861 0.69862 0.0
H1166 H 0.48862 0.23174 0.64545 0.0
H1167 H 0.50153 0.29323 0.70199 0.0
C1168 C 0.48477 0.34453 0.68802 0.0
C1169 C 0.47856 0.36269 0.67085 0.0
C1170 C 0.50519 0.22172 0.65715 0.0
C1171 C 0.50149 0.28629 0.67197 0.0
C1172 C 0.51776 0.18409 0.65736 0.0
C1173 C 0.5398 0.17036 0.6722 0.0
C1174 C 0.51399 0.24586 0.67205 0.0
C1175 C 0.54795 0.19541 0.68688 0.0
C1176 C 0.49662 0.3066 0.68862 0.0
C1177 C 0.48401 0.34141 0.65452 0.0
N1178 N 0.53487 0.23187 0.68649 0.0
N1179 N 0.49486 0.30434 0.65548 0.0
H1180 H 0.09743 0.3017 0.449 0.0
H1181 H 0.91783 0.23729 0.38837 0.0
H1182 H 0.10499 0.27447 0.39053 0.0
H1183 H 0.91962 0.23431 0.44844 0.0
H1184 H 0.98441 0.25712 0.38848 0.0
H1185 H 0.03049 0.28353 0.44863 0.0
C1186 C 0.08507 0.29205 0.43605 0.0
C1187 C 0.10718 0.28956 0.41978 0.0
C1188 C 0.97021 0.25213 0.40164 0.0
C1189 C 0.03006 0.26881 0.41925 0.0
C1190 C 0.93209 0.24091 0.40159 0.0
C1191 C 0.91286 0.23399 0.41842 0.0
C1192 C 0.98934 0.25701 0.41863 0.0
C1193 C 0.93312 0.2391 0.4351 0.0
C1194 C 0.04679 0.28153 0.43587 0.0
C1195 C 0.08931 0.27671 0.40345 0.0
N1196 N 0.97004 0.25039 0.43478 0.0
N1197 N 0.05192 0.26698 0.40359 0.0
H1198 H 0.02125 0.67187 0.14649 0.0
H1199 H 0.95684 0.8527 0.20291 0.0
H1200 H 0.05245 0.67965 0.20438 0.0
H1201 H 1.01073 0.86402 0.14928 0.0
H1202 H 0.97692 0.78555 0.20382 0.0
H1203 H 1.00181 0.73869 0.14717 0.0
C1204 C 0.02357 0.6875 0.15943 0.0
C1205 C 0.0384 0.67006 0.17544 0.0
C1206 C 0.98433 0.8029 0.19191 0.0
C1207 C 1.01551 0.74651 0.17633 0.0
C1208 C 0.97278 0.84107 0.19133 0.0
C1209 C 0.98228 0.86407 0.17603 0.0
C1210 C 1.00432 0.78731 0.17679 0.0
C1211 C 1.00304 0.84748 0.16141 0.0
C1212 C 1.01269 0.72568 0.15975 0.0
C1213 C 0.0412 0.69199 0.19174 0.0
N1214 N 1.01287 0.8101 0.16203 0.0
N1215 N 0.02946 0.72898 0.19184 0.0
H1216 H 0.18784 0.26584 0.12786 0.0
H1217 H 0.17752 0.46299 0.17604 0.0
H1218 H 0.28851 0.32131 0.14769 0.0
H1219 H 0.10886 0.44571 0.12717 0.0
H1220 H 0.21439 0.40647 0.16797 0.0
H1221 H 0.15463 0.32746 0.12809 0.0
C1222 C 0.20338 0.29128 0.13144 0.0
C1223 C 0.24122 0.2888 0.13728 0.0
C1224 C 0.19136 0.41514 0.15896 0.0
C1225 C 0.20297 0.35846 0.13875 0.0
C1226 C 0.17009 0.44717 0.16364 0.0
C1227 C 0.14 0.45898 0.15229 0.0
C1228 C 0.18195 0.39399 0.14307 0.0
C1229 C 0.1319 0.43755 0.13627 0.0
C1230 C 0.18434 0.32626 0.13179 0.0
C1231 C 0.25963 0.32227 0.14262 0.0
N1232 N 0.15239 0.40568 0.13226 0.0
N1233 N 0.24015 0.35552 0.14361 0.0
H1234 H 0.36183 0.32384 0.40403 0.0
H1235 H 0.45892 0.52595 0.38595 0.0
H1236 H 0.30472 0.43098 0.41196 0.0
H1237 H 0.52188 0.42802 0.40416 0.0
H1238 H 0.40092 0.48735 0.38564 0.0
H1239 H 0.41959 0.35838 0.39518 0.0
C1240 C 0.36138 0.35456 0.40385 0.0
C1241 C 0.32863 0.37458 0.4091 0.0
C1242 C 0.42765 0.4741 0.3892 0.0
C1243 C 0.39407 0.41405 0.3985 0.0
C1244 C 0.46074 0.49594 0.3891 0.0
C1245 C 0.49508 0.47989 0.39488 0.0
C1246 C 0.4292 0.43599 0.39497 0.0
C1247 C 0.49587 0.44119 0.39942 0.0
C1248 C 0.39426 0.37419 0.39876 0.0
C1249 C 0.32953 0.41439 0.40839 0.0
N1250 N 0.46337 0.42056 0.39948 0.0
N1251 N 0.36168 0.43279 0.40321 0.0
H1252 H 0.24473 0.71596 0.63513 0.0
H1253 H 0.44674 0.61689 0.65166 0.0
H1254 H 0.34474 0.77896 0.64971 0.0
H1255 H 0.33939 0.5623 0.66196 0.0
H1256 H 0.41252 0.6746 0.64218 0.0
H1257 H 0.28261 0.65733 0.63515 0.0
C1258 C 0.27498 0.71761 0.6375 0.0
C1259 C 0.29183 0.75223 0.64221 0.0
C1260 C 0.39659 0.64983 0.64643 0.0
C1261 C 0.335 0.68556 0.64274 0.0
C1262 C 0.41605 0.61698 0.6519 0.0
C1263 C 0.39592 0.58496 0.65799 0.0
C1264 C 0.35675 0.65033 0.64666 0.0
C1265 C 0.35613 0.58654 0.65775 0.0
C1266 C 0.29645 0.68416 0.63782 0.0
C1267 C 0.33091 0.75276 0.64581 0.0
N1268 N 0.33791 0.6186 0.6522 0.0
N1269 N 0.35116 0.7199 0.64613 0.0
H1270 H 0.06323 0.49631 0.89296 0.0
H1271 H 0.166 0.69873 0.89943 0.0
H1272 H 1.00327 0.6026 0.88966 0.0
H1273 H 0.21435 0.59472 0.92057 0.0
H1274 H 0.10964 0.66331 0.88982 0.0
H1275 H 0.12301 0.53139 0.89616 0.0
C1276 C 0.06291 0.52699 0.89211 0.0
C1277 C 0.02852 0.54669 0.89073 0.0
C1278 C 0.13264 0.64831 0.89656 0.0
C1279 C 0.09625 0.58692 0.89493 0.0
C1280 C 0.16478 0.66852 0.90211 0.0
C1281 C 0.19486 0.64981 0.91105 0.0
C1282 C 0.13072 0.609 0.89972 0.0
C1283 C 0.19174 0.61049 0.91395 0.0
C1284 C 0.09685 0.54702 0.89428 0.0
C1285 C 0.02937 0.58647 0.89042 0.0
N1286 N 0.16033 0.59144 0.9083 0.0
N1287 N 0.06263 0.6053 0.8926 0.0
H1288 H 0.82709 0.76375 0.95979 0.0
H1289 H 0.83228 0.56509 0.91051 0.0
H1290 H 0.72687 0.71365 0.93635 0.0
H1291 H 0.91084 0.59214 0.95451 0.0
H1292 H 0.79391 0.62009 0.91939 0.0
H1293 H 0.85844 0.70159 0.95881 0.0
C1294 C 0.81116 0.73923 0.95524 0.0
C1295 C 0.77404 0.7435 0.94864 0.0
C1296 C 0.81927 0.61368 0.92727 0.0
C1297 C 0.81039 0.67294 0.94631 0.0
C1298 C 0.84136 0.58241 0.92213 0.0
C1299 C 0.87497 0.57394 0.93173 0.0
C1300 C 0.83111 0.63719 0.94193 0.0
C1301 C 0.88515 0.59746 0.94672 0.0
C1302 C 0.82919 0.70388 0.95443 0.0
C1303 C 0.75515 0.71122 0.94207 0.0
N1304 N 0.86361 0.62826 0.95119 0.0
N1305 N 0.77376 0.67746 0.94071 0.0
H1306 H 0.69732 0.614 0.64992 0.0
H1307 H 0.51072 0.57683 0.70473 0.0
H1308 H 0.6955 0.65846 0.70591 0.0
H1309 H 0.57666 0.48415 0.68234 0.0
H1310 H 0.56715 0.61804 0.7019 0.0
H1311 H 0.63982 0.57797 0.65686 0.0
C1312 C 0.68456 0.61668 0.66359 0.0
C1313 C 0.70141 0.63921 0.67738 0.0
C1314 C 0.56903 0.58849 0.69788 0.0
C1315 C 0.63526 0.59833 0.68525 0.0
C1316 C 0.53703 0.56496 0.69956 0.0
C1317 C 0.53875 0.527 0.69359 0.0
C1318 C 0.60234 0.57402 0.6898 0.0
C1319 C 0.57367 0.51325 0.68692 0.0
C1320 C 0.65189 0.59596 0.66754 0.0
C1321 C 0.68357 0.64125 0.69492 0.0
N1322 N 0.60368 0.53686 0.68483 0.0
N1323 N 0.65127 0.62114 0.69837 0.0
H1324 H 0.69459 0.25543 0.43676 0.0
H1325 H 0.66394 0.47702 0.45317 0.0
H1326 H 0.78903 0.32867 0.44868 0.0
H1327 H 0.61017 0.41773 0.4079 0.0
H1328 H 0.70027 0.41914 0.46047 0.0
H1329 H 0.6529 0.31144 0.4355 0.0
C1330 C 0.70623 0.28315 0.43982 0.0
C1331 C 0.74515 0.28753 0.44309 0.0
C1332 C 0.68018 0.41883 0.44908 0.0
C1333 C 0.69788 0.35135 0.44158 0.0
C1334 C 0.65942 0.45167 0.44495 0.0
C1335 C 0.63422 0.45211 0.42985 0.0
C1336 C 0.67473 0.38593 0.43841 0.0
C1337 C 0.62957 0.41861 0.41956 0.0
C1338 C 0.68258 0.31503 0.43885 0.0
C1339 C 0.75907 0.32418 0.44635 0.0
N1340 N 0.64945 0.38679 0.42409 0.0
N1341 N 0.73545 0.35474 0.44556 0.0
H1342 H 0.86497 0.3278 0.17082 0.0
H1343 H 0.96238 0.52686 0.19604 0.0
H1344 H 0.80318 0.43319 0.17442 0.0
H1345 H 1.02076 0.43835 0.16616 0.0
H1346 H 0.90534 0.48668 0.19704 0.0
H1347 H 0.92391 0.36255 0.17746 0.0
C1348 C 0.86376 0.35812 0.17321 0.0
C1349 C 0.82925 0.37773 0.17182 0.0
C1350 C 0.93095 0.4758 0.19064 0.0
C1351 C 0.89616 0.41736 0.17979 0.0
C1352 C 0.96353 0.4985 0.19027 0.0
C1353 C 0.99623 0.48569 0.18112 0.0
C1354 C 0.93143 0.43992 0.18204 0.0
C1355 C 0.99606 0.44908 0.17343 0.0
C1356 C 0.89733 0.3779 0.17696 0.0
C1357 C 0.82927 0.41705 0.17506 0.0
N1358 N 0.96417 0.4275 0.17402 0.0
N1359 N 0.86213 0.43554 0.17891 0.0
H1360 H 0.70863 0.7714 0.68296 0.0
H1361 H 0.665 0.96815 0.63123 0.0
H1362 H 0.76419 0.80182 0.63155 0.0
H1363 H 0.61849 0.93363 0.6842 0.0
H1364 H 0.69748 0.90641 0.62892 0.0
H1365 H 0.67095 0.82876 0.68121 0.0
C1366 C 0.71284 0.79019 0.6712 0.0
C1367 C 0.74004 0.78193 0.6575 0.0
C1368 C 0.67996 0.91238 0.64096 0.0
C1369 C 0.6967 0.84867 0.65546 0.0
C1370 C 0.66134 0.94756 0.64229 0.0
C1371 C 0.6391 0.95627 0.65801 0.0
C1372 C 0.67607 0.88571 0.65541 0.0
C1373 C 0.6355 0.92851 0.6719 0.0
C1374 C 0.69119 0.82311 0.6702 0.0
C1375 C 0.74359 0.80714 0.64243 0.0
N1376 N 0.65377 0.89476 0.67027 0.0
N1377 N 0.72245 0.8397 0.6419 0.0
H1378 H 0.82145 0.91739 0.94175 0.0
H1379 H 1.00304 0.98033 0.88202 0.0
H1380 H 0.83789 0.87724 0.88551 0.0
H1381 H 0.97004 0.02515 0.93558 0.0
H1382 H 0.94394 0.94254 0.88164 0.0
H1383 H 0.87743 0.95619 0.93874 0.0
C1384 C 0.83689 0.9166 0.9287 0.0
C1385 C 0.82478 0.89375 0.91389 0.0
C1386 C 0.94976 0.96091 0.89337 0.0
C1387 C 0.88989 0.93891 0.91026 0.0
C1388 C 0.98333 0.98255 0.89355 0.0
C1389 C 0.99183 1.00555 0.90897 0.0
C1390 C 0.92476 0.96262 0.90868 0.0
C1391 C 0.96528 1.00735 0.92353 0.0
C1392 C 0.86903 0.93905 0.92695 0.0
C1393 C 0.84617 0.89441 0.8973 0.0
N1394 N 0.93336 0.98618 0.92304 0.0
N1395 N 0.87784 0.91654 0.89594 0.0
H1396 H 0.87062 0.05595 0.12763 0.0
H1397 H 0.82672 0.27441 0.14552 0.0
H1398 H 0.9079 0.11223 0.17762 0.0
H1399 H 0.73933 0.19939 0.12579 0.0
H1400 H 0.869 0.21946 0.14947 0.0
H1401 H 0.8337 0.11285 0.11934 0.0
C1402 C 0.87138 0.08043 0.13673 0.0
C1403 C 0.89221 0.07939 0.15337 0.0
C1404 C 0.84082 0.21525 0.14389 0.0
C1405 C 0.851 0.14459 0.14373 0.0
C1406 C 0.81687 0.24657 0.14141 0.0
C1407 C 0.7796 0.24142 0.13511 0.0
C1408 C 0.82773 0.17872 0.13959 0.0
C1409 C 0.76799 0.20455 0.13048 0.0
C1410 C 0.85027 0.11272 0.13202 0.0
C1411 C 0.89201 0.1118 0.16474 0.0
N1412 N 0.79198 0.17458 0.13275 0.0
N1413 N 0.87197 0.1432 0.15964 0.0
H1414 H 0.57314 0.98336 0.38961 0.0
H1415 H 0.65919 0.19084 0.40479 0.0
H1416 H 0.50091 0.08211 0.39049 0.0
H1417 H 0.71468 0.08648 0.42043 0.0
H1418 H 0.60291 0.15415 0.39564 0.0
H1419 H 0.62765 0.02345 0.39574 0.0
C1420 C 0.56885 1.01372 0.39069 0.0
C1421 C 0.53233 0.02933 0.38947 0.0
C1422 C 0.62741 0.13943 0.40114 0.0
C1423 C 0.59508 0.07575 0.3969 0.0
C1424 C 0.65951 0.1603 0.4064 0.0
C1425 C 0.69173 0.14177 0.41353 0.0
C1426 C 0.62788 0.0997 0.40264 0.0
C1427 C 0.69055 0.10214 0.41518 0.0
C1428 C 0.60004 0.03661 0.39438 0.0
C1429 C 0.5286 0.06891 0.39111 0.0
N1430 N 0.65943 0.08257 0.40964 0.0
N1431 N 0.55961 0.09081 0.39489 0.0
H1432 H 0.2309 0.19249 0.44686 0.0
H1433 H 0.44052 0.10861 0.43173 0.0
H1434 H 0.32853 0.26552 0.4442 0.0
H1435 H 0.33617 0.04818 0.42223 0.0
H1436 H 0.40306 0.16471 0.44125 0.0
H1437 H 0.27226 0.13747 0.44388 0.0
C1438 C 0.26124 0.19687 0.44606 0.0
C1439 C 0.27621 0.23364 0.4458 0.0
C1440 C 0.38856 0.13902 0.43714 0.0
C1441 C 0.32411 0.17046 0.44181 0.0
C1442 C 0.40988 0.10703 0.43174 0.0
C1443 C 0.39151 0.0737 0.42596 0.0
C1444 C 0.3487 0.13727 0.43707 0.0
C1445 C 0.35172 0.07327 0.42628 0.0
C1446 C 0.2849 0.16542 0.44417 0.0
C1447 C 0.31582 0.23762 0.44463 0.0
N1448 N 0.33187 0.10435 0.43171 0.0
N1449 N 0.33843 0.20639 0.44244 0.0
H1450 H 0.06768 0.98877 0.1831 0.0
H1451 H 0.1855 0.17867 0.20107 0.0
H1452 H 1.0131 0.08928 0.20415 0.0
H1453 H 0.20664 0.10222 0.15529 0.0
H1454 H 0.12973 0.14044 0.20969 0.0
H1455 H 0.12768 0.02354 0.18134 0.0
C1456 C 0.06883 1.0176 0.18829 0.0
C1457 C 0.0357 0.03591 0.19429 0.0
C1458 C 0.14682 0.1321 0.19783 0.0
C1459 C 0.10384 0.07623 0.19172 0.0
C1460 C 0.17856 0.15382 0.1929 0.0
C1461 C 0.20065 0.1438 0.17735 0.0
C1462 C 0.13782 0.09956 0.18747 0.0
C1463 C 0.19031 0.11128 0.16727 0.0
C1464 C 0.10285 0.03764 0.18693 0.0
C1465 C 0.0383 0.07391 0.19997 0.0
N1466 N 0.15988 0.09025 0.17257 0.0
N1467 N 0.07177 0.09295 0.19848 0.0
H1468 H 0.16828 0.9823 0.95526 0.0
H1469 H 0.19745 0.76182 0.93348 0.0
H1470 H 0.11791 0.92918 0.90721 0.0
H1471 H 0.28563 0.83079 0.95719 0.0
H1472 H 0.15762 0.81887 0.9302 0.0
H1473 H 0.20142 0.92288 0.96226 0.0
C1474 C 0.16388 0.95809 0.94625 0.0
C1475 C 0.1404 0.96094 0.93052 0.0
C1476 C 0.18538 0.82129 0.93648 0.0
C1477 C 0.17784 0.89247 0.93874 0.0
C1478 C 0.20787 0.78873 0.93861 0.0
C1479 C 0.24464 0.79157 0.94592 0.0
C1480 C 0.19946 0.85676 0.94209 0.0
C1481 C 0.25724 0.82735 0.95176 0.0
C1482 C 0.18291 0.9242 0.95026 0.0
C1483 C 0.13592 0.92843 0.91939 0.0
N1484 N 0.2347 0.85849 0.94979 0.0
N1485 N 0.15433 0.89552 0.92375 0.0
H1486 H 0.31703 0.92475 0.64685 0.0
H1487 H 0.50647 0.97112 0.70198 0.0
H1488 H 0.33391 0.87757 0.70169 0.0
H1489 H 0.45895 0.03971 0.6581 0.0
H1490 H 0.44647 0.93475 0.70322 0.0
H1491 H 0.3726 0.9638 0.65096 0.0
C1492 C 0.33252 0.92247 0.65982 0.0
C1493 C 0.3207 0.89758 0.67391 0.0
C1494 C 0.44916 0.95821 0.69358 0.0
C1495 C 0.38527 0.94293 0.67879 0.0
C1496 C 0.48322 0.97905 0.69295 0.0
C1497 C 0.4878 1.00815 0.67975 0.0
C1498 C 0.41996 0.96668 0.68087 0.0
C1499 C 0.45695 1.01712 0.66828 0.0
C1500 C 0.36431 0.94512 0.66222 0.0
C1501 C 0.34199 0.89641 0.69047 0.0
N1502 N 0.42476 0.99634 0.66898 0.0
N1503 N 0.37356 0.91855 0.69242 0.0
loop_
_geom_bond_atom_site_label_1
_geom_bond_atom_site_label_2
_geom_bond_distance
_geom_bond_site_symmetry_2
_ccdc_geom_bond_type
Dy0 O3 2.307 . S
Dy0 O5 2.395 . S
Dy0 O6 2.379 . S
Dy0 O8 2.339 . S
Dy0 O10 2.298 . S
Dy0 O14 2.275 . S
Dy0 C22 2.738 . S
Dy1 O4 2.298 . S
Dy1 O7 2.275 . S
Dy1 O9 2.307 . S
Dy1 O11 2.395 . S
Dy1 O12 2.379 . S
Dy1 O15 2.339 . S
Dy1 C31 2.738 . S
C2 O14 1.254 . S
C2 O15 1.257 . S
O3 Dy0 2.307 . S
O3 C13 1.266 . S
O4 Dy1 2.298 . S
O4 C13 1.236 . S
O5 Dy0 2.395 . S
O5 C22 1.255 . S
O6 Dy0 2.379 . S
O6 C22 1.249 . S
O7 Dy1 2.275 . S
O7 C23 1.254 . S
O8 Dy0 2.339 . S
O8 C23 1.257 . S
O9 Dy1 2.307 . S
O9 C24 1.266 . S
O10 Dy0 2.298 . S
O10 C24 1.236 . S
O11 Dy1 2.395 . S
O11 C31 1.255 . S
O12 Dy1 2.379 . S
O12 C31 1.249 . S
C13 O3 1.266 . S
C13 O4 1.236 . S
O14 Dy0 2.275 . S
O14 C2 1.254 . S
O15 Dy1 2.339 . S
O15 C2 1.257 . S
C16 C19 1.344 . S
C16 C20 1.328 . S
C16 C22 1.516 . S
C17 C18 1.304 . S
C17 C21 1.323 . S
C18 C17 1.304 . S
C18 C19 1.371 . S
C18 H32 0.930 . S
C19 C16 1.344 . S
C19 C18 1.371 . S
C19 H33 0.931 . S
C20 C16 1.328 . S
C20 C21 1.433 . S
C20 H34 0.931 . S
C21 C17 1.323 . S
C21 C20 1.433 . S
C21 H35 0.933 . S
C22 Dy0 2.738 . S
C22 O5 1.255 . S
C22 O6 1.249 . S
C22 C16 1.516 . S
C23 O7 1.254 . S
C23 O8 1.257 . S
C24 O9 1.266 . S
C24 O10 1.236 . S
C25 C28 1.344 . S
C25 C29 1.328 . S
C25 C31 1.516 . S
C26 C27 1.304 . S
C26 C30 1.323 . S
C27 C26 1.304 . S
C27 C28 1.371 . S
C27 H36 0.930 . S
C28 C25 1.344 . S
C28 C27 1.371 . S
C28 H37 0.931 . S
C29 C25 1.328 . S
C29 C30 1.433 . S
C29 H38 0.931 . S
C30 C26 1.323 . S
C30 C29 1.433 . S
C30 H39 0.933 . S
C31 Dy1 2.738 . S
C31 O11 1.255 . S
C31 O12 1.249 . S
C31 C25 1.516 . S
H32 C18 0.930 . S
H33 C19 0.931 . S
H34 C20 0.931 . S
H35 C21 0.933 . S
H36 C27 0.930 . S
H37 C28 0.931 . S
H38 C29 0.931 . S
H39 C30 0.933 . S
Dy40 O43 2.307 . S
Dy40 O45 2.395 . S
Dy40 O46 2.379 . S
Dy40 O48 2.339 . S
Dy40 O50 2.298 . S
Dy40 O54 2.275 . S
Dy40 C62 2.738 . S
Dy41 O44 2.298 . S
Dy41 O47 2.275 . S
Dy41 O49 2.307 . S
Dy41 O51 2.395 . S
Dy41 O52 2.379 . S
Dy41 O55 2.339 . S
Dy41 C71 2.738 . S
C42 O54 1.254 . S
C42 O55 1.257 . S
O43 Dy40 2.307 . S
O43 C53 1.266 . S
O44 Dy41 2.298 . S
O44 C53 1.236 . S
O45 Dy40 2.395 . S
O45 C62 1.255 . S
O46 Dy40 2.379 . S
O46 C62 1.249 . S
O47 Dy41 2.275 . S
O47 C63 1.254 . S
O48 Dy40 2.339 . S
O48 C63 1.257 . S
O49 Dy41 2.307 . S
O49 C64 1.266 . S
O50 Dy40 2.298 . S
O50 C64 1.236 . S
O51 Dy41 2.395 . S
O51 C71 1.255 . S
O52 Dy41 2.379 . S
O52 C71 1.249 . S
C53 O43 1.266 . S
C53 O44 1.236 . S
O54 Dy40 2.275 . S
O54 C42 1.254 . S
O55 Dy41 2.339 . S
O55 C42 1.257 . S
C56 C59 1.344 . S
C56 C60 1.328 . S
C56 C62 1.516 . S
C57 C58 1.304 . S
C57 C61 1.323 . S
C58 C57 1.304 . S
C58 C59 1.371 . S
C58 H72 0.930 . S
C59 C56 1.344 . S
C59 C58 1.371 . S
C59 H73 0.931 . S
C60 C56 1.328 . S
C60 C61 1.433 . S
C60 H74 0.931 . S
C61 C57 1.323 . S
C61 C60 1.433 . S
C61 H75 0.933 . S
C62 Dy40 2.738 . S
C62 O45 1.255 . S
C62 O46 1.249 . S
C62 C56 1.516 . S
C63 O47 1.254 . S
C63 O48 1.257 . S
C64 O49 1.266 . S
C64 O50 1.236 . S
C65 C68 1.344 . S
C65 C69 1.328 . S
C65 C71 1.516 . S
C66 C67 1.304 . S
C66 C70 1.323 . S
C67 C66 1.304 . S
C67 C68 1.371 . S
C67 H76 0.930 . S
C68 C65 1.344 . S
C68 C67 1.371 . S
C68 H77 0.931 . S
C69 C65 1.328 . S
C69 C70 1.433 . S
C69 H78 0.931 . S
C70 C66 1.323 . S
C70 C69 1.433 . S
C70 H79 0.933 . S
C71 Dy41 2.738 . S
C71 O51 1.255 . S
C71 O52 1.249 . S
C71 C65 1.516 . S
H72 C58 0.930 . S
H73 C59 0.931 . S
H74 C60 0.931 . S
H75 C61 0.933 . S
H76 C67 0.930 . S
H77 C68 0.931 . S
H78 C69 0.931 . S
H79 C70 0.933 . S
Dy80 O83 2.307 . S
Dy80 O85 2.395 . S
Dy80 O86 2.379 . S
Dy80 O88 2.339 . S
Dy80 O90 2.298 . S
Dy80 O94 2.275 . S
Dy80 C102 2.738 . S
Dy81 O84 2.298 . S
Dy81 O87 2.275 . S
Dy81 O89 2.307 . S
Dy81 O91 2.395 . S
Dy81 O92 2.379 . S
Dy81 O95 2.339 . S
Dy81 C111 2.738 . S
C82 O94 1.254 . S
C82 O95 1.257 . S
O83 Dy80 2.307 . S
O83 C93 1.266 . S
O84 Dy81 2.298 . S
O84 C93 1.236 . S
O85 Dy80 2.395 . S
O85 C102 1.255 . S
O86 Dy80 2.379 . S
O86 C102 1.249 . S
O87 Dy81 2.275 . S
O87 C103 1.254 . S
O88 Dy80 2.339 . S
O88 C103 1.257 . S
O89 Dy81 2.307 . S
O89 C104 1.266 . S
O90 Dy80 2.298 . S
O90 C104 1.236 . S
O91 Dy81 2.395 . S
O91 C111 1.255 . S
O92 Dy81 2.379 . S
O92 C111 1.249 . S
C93 O83 1.266 . S
C93 O84 1.236 . S
O94 Dy80 2.275 . S
O94 C82 1.254 . S
O95 Dy81 2.339 . S
O95 C82 1.257 . S
C96 C99 1.344 . S
C96 C100 1.328 . S
C96 C102 1.516 . S
C97 C98 1.304 . S
C97 C101 1.323 . S
C98 C97 1.304 . S
C98 C99 1.371 . S
C98 H112 0.930 . S
C99 C96 1.344 . S
C99 C98 1.371 . S
C99 H113 0.931 . S
C100 C96 1.328 . S
C100 C101 1.433 . S
C100 H114 0.931 . S
C101 C97 1.323 . S
C101 C100 1.433 . S
C101 H115 0.933 . S
C102 Dy80 2.738 . S
C102 O85 1.255 . S
C102 O86 1.249 . S
C102 C96 1.516 . S
C103 O87 1.254 . S
C103 O88 1.257 . S
C104 O89 1.266 . S
C104 O90 1.236 . S
C105 C108 1.344 . S
C105 C109 1.328 . S
C105 C111 1.516 . S
C106 C107 1.304 . S
C106 C110 1.323 . S
C107 C106 1.304 . S
C107 C108 1.371 . S
C107 H116 0.930 . S
C108 C105 1.344 . S
C108 C107 1.371 . S
C108 H117 0.931 . S
C109 C105 1.328 . S
C109 C110 1.433 . S
C109 H118 0.931 . S
C110 C106 1.323 . S
C110 C109 1.433 . S
C110 H119 0.933 . S
C111 Dy81 2.738 . S
C111 O91 1.255 . S
C111 O92 1.249 . S
C111 C105 1.516 . S
H112 C98 0.930 . S
H113 C99 0.931 . S
H114 C100 0.931 . S
H115 C101 0.933 . S
H116 C107 0.930 . S
H117 C108 0.931 . S
H118 C109 0.931 . S
H119 C110 0.933 . S
Dy120 O123 2.307 . S
Dy120 O125 2.395 . S
Dy120 O126 2.379 . S
Dy120 O128 2.339 . S
Dy120 O130 2.298 . S
Dy120 O134 2.275 . S
Dy120 C142 2.738 . S
Dy121 O124 2.298 . S
Dy121 O127 2.275 . S
Dy121 O129 2.307 . S
Dy121 O131 2.395 . S
Dy121 O132 2.379 . S
Dy121 O135 2.339 . S
Dy121 C151 2.738 . S
C122 O134 1.254 . S
C122 O135 1.257 . S
O123 Dy120 2.307 . S
O123 C133 1.266 . S
O124 Dy121 2.298 . S
O124 C133 1.236 . S
O125 Dy120 2.395 . S
O125 C142 1.255 . S
O126 Dy120 2.379 . S
O126 C142 1.249 . S
O127 Dy121 2.275 . S
O127 C143 1.254 . S
O128 Dy120 2.339 . S
O128 C143 1.257 . S
O129 Dy121 2.307 . S
O129 C144 1.266 . S
O130 Dy120 2.298 . S
O130 C144 1.236 . S
O131 Dy121 2.395 . S
O131 C151 1.255 . S
O132 Dy121 2.379 . S
O132 C151 1.249 . S
C133 O123 1.266 . S
C133 O124 1.236 . S
O134 Dy120 2.275 . S
O134 C122 1.254 . S
O135 Dy121 2.339 . S
O135 C122 1.257 . S
C136 C139 1.344 . S
C136 C140 1.328 . S
C136 C142 1.516 . S
C137 C138 1.304 . S
C137 C141 1.323 . S
C138 C137 1.304 . S
C138 C139 1.371 . S
C138 H152 0.930 . S
C139 C136 1.344 . S
C139 C138 1.371 . S
C139 H153 0.931 . S
C140 C136 1.328 . S
C140 C141 1.433 . S
C140 H154 0.931 . S
C141 C137 1.323 . S
C141 C140 1.433 . S
C141 H155 0.933 . S
C142 Dy120 2.738 . S
C142 O125 1.255 . S
C142 O126 1.249 . S
C142 C136 1.516 . S
C143 O127 1.254 . S
C143 O128 1.257 . S
C144 O129 1.266 . S
C144 O130 1.236 . S
C145 C148 1.344 . S
C145 C149 1.328 1_655 S
C145 C151 1.516 . S
C146 C147 1.283 1_455 S
C146 C150 1.335 . S
C147 C146 1.283 1_655 S
C147 C148 1.371 . S
C147 H156 0.930 . S
C148 C145 1.344 . S
C148 C147 1.371 . S
C148 H157 0.931 . S
C149 C145 1.328 1_455 S
C149 C150 1.433 . S
C149 H158 0.931 . S
C150 C146 1.335 . S
C150 C149 1.433 . S
C150 H159 0.933 . S
C151 Dy121 2.738 . S
C151 O131 1.255 . S
C151 O132 1.249 . S
C151 C145 1.516 . S
H152 C138 0.930 . S
H153 C139 0.931 . S
H154 C140 0.931 . S
H155 C141 0.933 . S
H156 C147 0.930 . S
H157 C148 0.931 . S
H158 C149 0.931 . S
H159 C150 0.933 . S
Dy160 O163 2.307 . S
Dy160 O165 2.395 . S
Dy160 O166 2.379 . S
Dy160 O168 2.339 . S
Dy160 O170 2.298 . S
Dy160 O174 2.275 . S
Dy160 C182 2.738 . S
Dy161 O164 2.298 . S
Dy161 O167 2.275 . S
Dy161 O169 2.307 . S
Dy161 O171 2.395 . S
Dy161 O172 2.379 . S
Dy161 O175 2.339 . S
Dy161 C191 2.738 . S
C162 O174 1.254 . S
C162 O175 1.257 . S
O163 Dy160 2.307 . S
O163 C173 1.266 . S
O164 Dy161 2.298 . S
O164 C173 1.236 . S
O165 Dy160 2.395 . S
O165 C182 1.255 . S
O166 Dy160 2.379 . S
O166 C182 1.249 . S
O167 Dy161 2.275 . S
O167 C183 1.254 . S
O168 Dy160 2.339 . S
O168 C183 1.257 . S
O169 Dy161 2.307 . S
O169 C184 1.266 . S
O170 Dy160 2.298 . S
O170 C184 1.236 . S
O171 Dy161 2.395 . S
O171 C191 1.255 . S
O172 Dy161 2.379 . S
O172 C191 1.249 . S
C173 O163 1.266 . S
C173 O164 1.236 . S
O174 Dy160 2.275 . S
O174 C162 1.254 . S
O175 Dy161 2.339 . S
O175 C162 1.257 . S
C176 C179 1.344 . S
C176 C180 1.328 . S
C176 C182 1.516 . S
C177 C178 1.304 . S
C177 C181 1.323 . S
C178 C177 1.304 . S
C178 C179 1.371 . S
C178 H192 0.930 . S
C179 C176 1.344 . S
C179 C178 1.371 . S
C179 H193 0.931 . S
C180 C176 1.328 . S
C180 C181 1.433 . S
C180 H194 0.931 . S
C181 C177 1.323 . S
C181 C180 1.433 . S
C181 H195 0.933 . S
C182 Dy160 2.738 . S
C182 O165 1.255 . S
C182 O166 1.249 . S
C182 C176 1.516 . S
C183 O167 1.254 . S
C183 O168 1.257 . S
C184 O169 1.266 . S
C184 O170 1.236 . S
C185 C188 1.344 . S
C185 C189 1.328 . S
C185 C191 1.516 . S
C186 C187 1.304 . S
C186 C190 1.323 . S
C187 C186 1.304 . S
C187 C188 1.371 . S
C187 H196 0.930 . S
C188 C185 1.344 . S
C188 C187 1.371 . S
C188 H197 0.931 . S
C189 C185 1.328 . S
C189 C190 1.433 . S
C189 H198 0.931 . S
C190 C186 1.323 . S
C190 C189 1.433 . S
C190 H199 0.933 . S
C191 Dy161 2.738 . S
C191 O171 1.255 . S
C191 O172 1.249 . S
C191 C185 1.516 . S
H192 C178 0.930 . S
H193 C179 0.931 . S
H194 C180 0.931 . S
H195 C181 0.933 . S
H196 C187 0.930 . S
H197 C188 0.931 . S
H198 C189 0.931 . S
H199 C190 0.933 . S
Dy200 O203 2.307 . S
Dy200 O205 2.395 . S
Dy200 O206 2.379 . S
Dy200 O208 2.339 . S
Dy200 O210 2.298 . S
Dy200 O214 2.275 . S
Dy200 C222 2.738 . S
Dy201 O204 2.298 . S
Dy201 O207 2.275 . S
Dy201 O209 2.307 . S
Dy201 O211 2.395 . S
Dy201 O212 2.379 . S
Dy201 O215 2.339 . S
Dy201 C231 2.738 . S
C202 O214 1.254 . S
C202 O215 1.257 . S
O203 Dy200 2.307 . S
O203 C213 1.266 . S
O204 Dy201 2.298 . S
O204 C213 1.236 . S
O205 Dy200 2.395 . S
O205 C222 1.255 . S
O206 Dy200 2.379 . S
O206 C222 1.249 . S
O207 Dy201 2.275 . S
O207 C223 1.254 . S
O208 Dy200 2.339 . S
O208 C223 1.257 . S
O209 Dy201 2.307 . S
O209 C224 1.266 . S
O210 Dy200 2.298 . S
O210 C224 1.236 . S
O211 Dy201 2.395 . S
O211 C231 1.255 . S
O212 Dy201 2.379 . S
O212 C231 1.249 . S
C213 O203 1.266 . S
C213 O204 1.236 . S
O214 Dy200 2.275 . S
O214 C202 1.254 . S
O215 Dy201 2.339 . S
O215 C202 1.257 . S
C216 C219 1.344 . S
C216 C220 1.328 . S
C216 C222 1.516 . S
C217 C218 1.304 . S
C217 C221 1.323 . S
C218 C217 1.304 . S
C218 C219 1.371 . S
C218 H232 0.930 . S
C219 C216 1.344 . S
C219 C218 1.371 . S
C219 H233 0.931 . S
C220 C216 1.328 . S
C220 C221 1.433 . S
C220 H234 0.931 . S
C221 C217 1.323 . S
C221 C220 1.433 . S
C221 H235 0.933 . S
C222 Dy200 2.738 . S
C222 O205 1.255 . S
C222 O206 1.249 . S
C222 C216 1.516 . S
C223 O207 1.254 . S
C223 O208 1.257 . S
C224 O209 1.266 . S
C224 O210 1.236 . S
C225 C228 1.344 . S
C225 C229 1.328 . S
C225 C231 1.516 . S
C226 C227 1.304 . S
C226 C230 1.323 . S
C227 C226 1.304 . S
C227 C228 1.371 . S
C227 H236 0.930 . S
C228 C225 1.344 . S
C228 C227 1.371 . S
C228 H237 0.931 . S
C229 C225 1.328 . S
C229 C230 1.433 . S
C229 H238 0.931 . S
C230 C226 1.323 . S
C230 C229 1.433 . S
C230 H239 0.933 . S
C231 Dy201 2.738 . S
C231 O211 1.255 . S
C231 O212 1.249 . S
C231 C225 1.516 . S
H232 C218 0.930 . S
H233 C219 0.931 . S
H234 C220 0.931 . S
H235 C221 0.933 . S
H236 C227 0.930 . S
H237 C228 0.931 . S
H238 C229 0.931 . S
H239 C230 0.933 . S
Dy240 O243 2.307 . S
Dy240 O245 2.395 . S
Dy240 O246 2.379 . S
Dy240 O248 2.339 . S
Dy240 O250 2.298 . S
Dy240 O254 2.275 . S
Dy240 C262 2.738 . S
Dy241 O244 2.298 . S
Dy241 O247 2.275 . S
Dy241 O249 2.307 . S
Dy241 O251 2.395 . S
Dy241 O252 2.379 . S
Dy241 O255 2.339 . S
Dy241 C271 2.738 . S
C242 O254 1.254 . S
C242 O255 1.257 . S
O243 Dy240 2.307 . S
O243 C253 1.266 . S
O244 Dy241 2.298 . S
O244 C253 1.236 . S
O245 Dy240 2.395 . S
O245 C262 1.255 . S
O246 Dy240 2.379 . S
O246 C262 1.249 . S
O247 Dy241 2.275 . S
O247 C263 1.254 . S
O248 Dy240 2.339 . S
O248 C263 1.257 . S
O249 Dy241 2.307 . S
O249 C264 1.266 . S
O250 Dy240 2.298 . S
O250 C264 1.236 . S
O251 Dy241 2.395 . S
O251 C271 1.255 . S
O252 Dy241 2.379 . S
O252 C271 1.249 . S
C253 O243 1.266 . S
C253 O244 1.236 . S
O254 Dy240 2.275 . S
O254 C242 1.254 . S
O255 Dy241 2.339 . S
O255 C242 1.257 . S
C256 C259 1.344 . S
C256 C260 1.328 . S
C256 C262 1.516 . S
C257 C258 1.304 . S
C257 C261 1.323 . S
C258 C257 1.304 . S
C258 C259 1.371 . S
C258 H272 0.930 . S
C259 C256 1.344 . S
C259 C258 1.371 . S
C259 H273 0.931 . S
C260 C256 1.328 . S
C260 C261 1.433 . S
C260 H274 0.931 . S
C261 C257 1.323 . S
C261 C260 1.433 . S
C261 H275 0.933 . S
C262 Dy240 2.738 . S
C262 O245 1.255 . S
C262 O246 1.249 . S
C262 C256 1.516 . S
C263 O247 1.254 . S
C263 O248 1.257 . S
C264 O249 1.266 . S
C264 O250 1.236 . S
C265 C268 1.344 . S
C265 C269 1.328 . S
C265 C271 1.516 . S
C266 C267 1.304 . S
C266 C270 1.323 . S
C267 C266 1.304 . S
C267 C268 1.371 . S
C267 H276 0.930 . S
C268 C265 1.344 . S
C268 C267 1.371 . S
C268 H277 0.931 . S
C269 C265 1.328 . S
C269 C270 1.433 . S
C269 H278 0.931 . S
C270 C266 1.323 . S
C270 C269 1.433 . S
C270 H279 0.933 . S
C271 Dy241 2.738 . S
C271 O251 1.255 . S
C271 O252 1.249 . S
C271 C265 1.516 . S
H272 C258 0.930 . S
H273 C259 0.931 . S
H274 C260 0.931 . S
H275 C261 0.933 . S
H276 C267 0.930 . S
H277 C268 0.931 . S
H278 C269 0.931 . S
H279 C270 0.933 . S
Dy280 O283 2.307 . S
Dy280 O285 2.395 . S
Dy280 O286 2.379 . S
Dy280 O288 2.339 . S
Dy280 O290 2.298 . S
Dy280 O294 2.275 . S
Dy280 C302 2.738 . S
Dy281 O284 2.298 . S
Dy281 O287 2.275 . S
Dy281 O289 2.307 . S
Dy281 O291 2.395 . S
Dy281 O292 2.379 . S
Dy281 O295 2.339 . S
Dy281 C311 2.738 . S
C282 O294 1.254 . S
C282 O295 1.257 . S
O283 Dy280 2.307 . S
O283 C293 1.266 . S
O284 Dy281 2.298 . S
O284 C293 1.236 . S
O285 Dy280 2.395 . S
O285 C302 1.255 . S
O286 Dy280 2.379 . S
O286 C302 1.249 . S
O287 Dy281 2.275 . S
O287 C303 1.254 . S
O288 Dy280 2.339 . S
O288 C303 1.257 . S
O289 Dy281 2.307 . S
O289 C304 1.266 . S
O290 Dy280 2.298 . S
O290 C304 1.236 . S
O291 Dy281 2.395 . S
O291 C311 1.255 . S
O292 Dy281 2.379 . S
O292 C311 1.249 . S
C293 O283 1.266 . S
C293 O284 1.236 . S
O294 Dy280 2.275 . S
O294 C282 1.254 . S
O295 Dy281 2.339 . S
O295 C282 1.257 . S
C296 C299 1.344 . S
C296 C300 1.328 1_455 S
C296 C302 1.516 . S
C297 C298 1.283 1_655 S
C297 C301 1.335 . S
C298 C297 1.283 1_455 S
C298 C299 1.371 . S
C298 H312 0.930 . S
C299 C296 1.344 . S
C299 C298 1.371 . S
C299 H313 0.931 . S
C300 C296 1.328 1_655 S
C300 C301 1.433 . S
C300 H314 0.931 . S
C301 C297 1.335 . S
C301 C300 1.433 . S
C301 H315 0.933 . S
C302 Dy280 2.738 . S
C302 O285 1.255 . S
C302 O286 1.249 . S
C302 C296 1.516 . S
C303 O287 1.254 . S
C303 O288 1.257 . S
C304 O289 1.266 . S
C304 O290 1.236 . S
C305 C308 1.344 . S
C305 C309 1.328 . S
C305 C311 1.516 . S
C306 C307 1.304 . S
C306 C310 1.323 . S
C307 C306 1.304 . S
C307 C308 1.371 . S
C307 H316 0.930 . S
C308 C305 1.344 . S
C308 C307 1.371 . S
C308 H317 0.931 . S
C309 C305 1.328 . S
C309 C310 1.433 . S
C309 H318 0.931 . S
C310 C306 1.323 . S
C310 C309 1.433 . S
C310 H319 0.933 . S
C311 Dy281 2.738 . S
C311 O291 1.255 . S
C311 O292 1.249 . S
C311 C305 1.516 . S
H312 C298 0.930 . S
H313 C299 0.931 . S
H314 C300 0.931 . S
H315 C301 0.933 . S
H316 C307 0.930 . S
H317 C308 0.931 . S
H318 C309 0.931 . S
H319 C310 0.933 . S
Dy320 O323 2.307 . S
Dy320 O325 2.395 . S
Dy320 O326 2.379 . S
Dy320 O328 2.339 . S
Dy320 O330 2.298 . S
Dy320 O334 2.275 . S
Dy320 C342 2.738 . S
Dy321 O324 2.298 . S
Dy321 O327 2.275 . S
Dy321 O329 2.307 . S
Dy321 O331 2.395 . S
Dy321 O332 2.379 . S
Dy321 O335 2.339 . S
Dy321 C351 2.738 . S
C322 O334 1.254 . S
C322 O335 1.257 . S
O323 Dy320 2.307 . S
O323 C333 1.266 . S
O324 Dy321 2.298 . S
O324 C333 1.236 . S
O325 Dy320 2.395 . S
O325 C342 1.255 . S
O326 Dy320 2.379 . S
O326 C342 1.249 . S
O327 Dy321 2.275 . S
O327 C343 1.254 . S
O328 Dy320 2.339 . S
O328 C343 1.257 . S
O329 Dy321 2.307 . S
O329 C344 1.266 . S
O330 Dy320 2.298 . S
O330 C344 1.236 . S
O331 Dy321 2.395 . S
O331 C351 1.255 . S
O332 Dy321 2.379 . S
O332 C351 1.249 . S
C333 O323 1.266 . S
C333 O324 1.236 . S
O334 Dy320 2.275 . S
O334 C322 1.254 . S
O335 Dy321 2.339 . S
O335 C322 1.257 . S
C336 C339 1.344 . S
C336 C340 1.328 . S
C336 C342 1.516 . S
C337 C338 1.304 . S
C337 C341 1.323 . S
C338 C337 1.304 . S
C338 C339 1.371 . S
C338 H352 0.930 . S
C339 C336 1.344 . S
C339 C338 1.371 . S
C339 H353 0.931 . S
C340 C336 1.328 . S
C340 C341 1.433 . S
C340 H354 0.931 . S
C341 C337 1.323 . S
C341 C340 1.433 . S
C341 H355 0.933 . S
C342 Dy320 2.738 . S
C342 O325 1.255 . S
C342 O326 1.249 . S
C342 C336 1.516 . S
C343 O327 1.254 . S
C343 O328 1.257 . S
C344 O329 1.266 . S
C344 O330 1.236 . S
C345 C348 1.344 . S
C345 C349 1.328 . S
C345 C351 1.516 . S
C346 C347 1.304 . S
C346 C350 1.323 . S
C347 C346 1.304 . S
C347 C348 1.371 . S
C347 H356 0.930 . S
C348 C345 1.344 . S
C348 C347 1.371 . S
C348 H357 0.931 . S
C349 C345 1.328 . S
C349 C350 1.433 . S
C349 H358 0.931 . S
C350 C346 1.323 . S
C350 C349 1.433 . S
C350 H359 0.933 . S
C351 Dy321 2.738 . S
C351 O331 1.255 . S
C351 O332 1.249 . S
C351 C345 1.516 . S
H352 C338 0.930 . S
H353 C339 0.931 . S
H354 C340 0.931 . S
H355 C341 0.933 . S
H356 C347 0.930 . S
H357 C348 0.931 . S
H358 C349 0.931 . S
H359 C350 0.933 . S
Dy360 O363 2.307 . S
Dy360 O365 2.395 . S
Dy360 O366 2.379 . S
Dy360 O368 2.339 . S
Dy360 O370 2.298 1_545 S
Dy360 O374 2.275 . S
Dy360 C382 2.738 . S
Dy361 O364 2.298 . S
Dy361 O367 2.275 . S
Dy361 O369 2.307 1_545 S
Dy361 O371 2.395 . S
Dy361 O372 2.379 . S
Dy361 O375 2.339 1_545 S
Dy361 C391 2.738 . S
C362 O374 1.254 1_565 S
C362 O375 1.257 . S
O363 Dy360 2.307 . S
O363 C373 1.266 . S
O364 Dy361 2.298 . S
O364 C373 1.236 . S
O365 Dy360 2.395 . S
O365 C382 1.255 . S
O366 Dy360 2.379 . S
O366 C382 1.249 . S
O367 Dy361 2.275 . S
O367 C383 1.254 . S
O368 Dy360 2.339 . S
O368 C383 1.257 . S
O369 Dy361 2.307 1_565 S
O369 C384 1.266 . S
O370 Dy360 2.298 1_565 S
O370 C384 1.236 . S
O371 Dy361 2.395 . S
O371 C391 1.255 . S
O372 Dy361 2.379 . S
O372 C391 1.249 . S
C373 O363 1.266 . S
C373 O364 1.236 . S
O374 Dy360 2.275 . S
O374 C362 1.254 1_545 S
O375 Dy361 2.339 1_565 S
O375 C362 1.257 . S
C376 C379 1.344 1_545 S
C376 C380 1.328 . S
C376 C382 1.516 . S
C377 C378 1.304 . S
C377 C381 1.323 1_565 S
C378 C377 1.304 . S
C378 C379 1.371 . S
C378 H392 0.930 . S
C379 C376 1.344 1_565 S
C379 C378 1.371 . S
C379 H393 0.931 . S
C380 C376 1.328 . S
C380 C381 1.433 . S
C380 H394 0.931 . S
C381 C377 1.323 1_545 S
C381 C380 1.433 . S
C381 H395 0.933 . S
C382 Dy360 2.738 . S
C382 O365 1.255 . S
C382 O366 1.249 . S
C382 C376 1.516 . S
C383 O367 1.254 . S
C383 O368 1.257 . S
C384 O369 1.266 . S
C384 O370 1.236 . S
C385 C388 1.344 . S
C385 C389 1.328 1_455 S
C385 C391 1.516 . S
C386 C387 1.284 1_655 S
C386 C390 1.334 . S
C387 C386 1.284 1_455 S
C387 C388 1.371 . S
C387 H396 0.930 . S
C388 C385 1.344 . S
C388 C387 1.371 . S
C388 H397 0.931 . S
C389 C385 1.328 1_655 S
C389 C390 1.433 . S
C389 H398 0.931 . S
C390 C386 1.334 . S
C390 C389 1.433 . S
C390 H399 0.933 . S
C391 Dy361 2.738 . S
C391 O371 1.255 . S
C391 O372 1.249 . S
C391 C385 1.516 . S
H392 C378 0.930 . S
H393 C379 0.931 . S
H394 C380 0.931 . S
H395 C381 0.933 . S
H396 C387 0.930 . S
H397 C388 0.931 . S
H398 C389 0.931 . S
H399 C390 0.933 . S
Dy400 O403 2.307 . S
Dy400 O405 2.395 . S
Dy400 O406 2.379 . S
Dy400 O408 2.339 . S
Dy400 O410 2.298 . S
Dy400 O414 2.275 . S
Dy400 C422 2.738 . S
Dy401 O404 2.298 . S
Dy401 O407 2.275 . S
Dy401 O409 2.307 . S
Dy401 O411 2.395 . S
Dy401 O412 2.379 . S
Dy401 O415 2.339 . S
Dy401 C431 2.738 . S
C402 O414 1.254 . S
C402 O415 1.257 . S
O403 Dy400 2.307 . S
O403 C413 1.266 . S
O404 Dy401 2.298 . S
O404 C413 1.236 . S
O405 Dy400 2.395 . S
O405 C422 1.255 . S
O406 Dy400 2.379 . S
O406 C422 1.249 . S
O407 Dy401 2.275 . S
O407 C423 1.254 . S
O408 Dy400 2.339 . S
O408 C423 1.257 . S
O409 Dy401 2.307 . S
O409 C424 1.266 . S
O410 Dy400 2.298 . S
O410 C424 1.236 . S
O411 Dy401 2.395 . S
O411 C431 1.255 . S
O412 Dy401 2.379 . S
O412 C431 1.249 . S
C413 O403 1.266 . S
C413 O404 1.236 . S
O414 Dy400 2.275 . S
O414 C402 1.254 . S
O415 Dy401 2.339 . S
O415 C402 1.257 . S
C416 C419 1.344 . S
C416 C420 1.328 . S
C416 C422 1.516 . S
C417 C418 1.304 . S
C417 C421 1.323 . S
C418 C417 1.304 . S
C418 C419 1.371 . S
C418 H432 0.930 . S
C419 C416 1.344 . S
C419 C418 1.371 . S
C419 H433 0.931 . S
C420 C416 1.328 . S
C420 C421 1.433 . S
C420 H434 0.931 . S
C421 C417 1.323 . S
C421 C420 1.433 . S
C421 H435 0.933 . S
C422 Dy400 2.738 . S
C422 O405 1.255 . S
C422 O406 1.249 . S
C422 C416 1.516 . S
C423 O407 1.254 . S
C423 O408 1.257 . S
C424 O409 1.266 . S
C424 O410 1.236 . S
C425 C428 1.344 . S
C425 C429 1.328 . S
C425 C431 1.516 . S
C426 C427 1.304 . S
C426 C430 1.323 . S
C427 C426 1.304 . S
C427 C428 1.371 . S
C427 H436 0.930 . S
C428 C425 1.344 . S
C428 C427 1.371 . S
C428 H437 0.931 . S
C429 C425 1.328 . S
C429 C430 1.433 . S
C429 H438 0.931 . S
C430 C426 1.323 . S
C430 C429 1.433 . S
C430 H439 0.933 . S
C431 Dy401 2.738 . S
C431 O411 1.255 . S
C431 O412 1.249 . S
C431 C425 1.516 . S
H432 C418 0.930 . S
H433 C419 0.931 . S
H434 C420 0.931 . S
H435 C421 0.933 . S
H436 C427 0.930 . S
H437 C428 0.931 . S
H438 C429 0.931 . S
H439 C430 0.933 . S
Dy440 O443 2.307 . S
Dy440 O445 2.395 . S
Dy440 O446 2.379 . S
Dy440 O448 2.339 . S
Dy440 O450 2.298 1_565 S
Dy440 O454 2.275 . S
Dy440 C462 2.738 . S
Dy441 O444 2.298 . S
Dy441 O447 2.275 . S
Dy441 O449 2.307 1_565 S
Dy441 O451 2.395 . S
Dy441 O452 2.379 . S
Dy441 O455 2.339 1_565 S
Dy441 C471 2.738 . S
C442 O454 1.254 1_545 S
C442 O455 1.257 . S
O443 Dy440 2.307 . S
O443 C453 1.266 . S
O444 Dy441 2.298 . S
O444 C453 1.236 . S
O445 Dy440 2.395 . S
O445 C462 1.255 . S
O446 Dy440 2.379 . S
O446 C462 1.249 . S
O447 Dy441 2.275 . S
O447 C463 1.254 . S
O448 Dy440 2.339 . S
O448 C463 1.257 . S
O449 Dy441 2.307 1_545 S
O449 C464 1.266 . S
O450 Dy440 2.298 1_545 S
O450 C464 1.236 . S
O451 Dy441 2.395 . S
O451 C471 1.255 . S
O452 Dy441 2.379 . S
O452 C471 1.249 . S
C453 O443 1.266 . S
C453 O444 1.236 . S
O454 Dy440 2.275 . S
O454 C442 1.254 1_565 S
O455 Dy441 2.339 1_545 S
O455 C442 1.257 . S
C456 C459 1.344 1_565 S
C456 C460 1.328 . S
C456 C462 1.516 . S
C457 C458 1.304 . S
C457 C461 1.323 1_545 S
C458 C457 1.304 . S
C458 C459 1.371 . S
C458 H472 0.930 . S
C459 C456 1.344 1_545 S
C459 C458 1.371 . S
C459 H473 0.931 . S
C460 C456 1.328 . S
C460 C461 1.433 . S
C460 H474 0.931 . S
C461 C457 1.323 1_565 S
C461 C460 1.433 . S
C461 H475 0.933 . S
C462 Dy440 2.738 . S
C462 O445 1.255 . S
C462 O446 1.249 . S
C462 C456 1.516 . S
C463 O447 1.254 . S
C463 O448 1.257 . S
C464 O449 1.266 . S
C464 O450 1.236 . S
C465 C468 1.344 . S
C465 C469 1.328 . S
C465 C471 1.516 . S
C466 C467 1.304 . S
C466 C470 1.323 . S
C467 C466 1.304 . S
C467 C468 1.371 . S
C467 H476 0.930 . S
C468 C465 1.344 . S
C468 C467 1.371 . S
C468 H477 0.931 . S
C469 C465 1.328 . S
C469 C470 1.433 . S
C469 H478 0.931 . S
C470 C466 1.323 . S
C470 C469 1.433 . S
C470 H479 0.933 . S
C471 Dy441 2.738 . S
C471 O451 1.255 . S
C471 O452 1.249 . S
C471 C465 1.516 . S
H472 C458 0.930 . S
H473 C459 0.931 . S
H474 C460 0.931 . S
H475 C461 0.933 . S
H476 C467 0.930 . S
H477 C468 0.931 . S
H478 C469 0.931 . S
H479 C470 0.933 . S
Dy480 O483 2.307 . S
Dy480 O485 2.395 . S
Dy480 O486 2.379 . S
Dy480 O488 2.339 . S
Dy480 O490 2.298 . S
Dy480 O494 2.275 . S
Dy480 C502 2.738 . S
Dy481 O484 2.298 . S
Dy481 O487 2.275 . S
Dy481 O489 2.307 . S
Dy481 O491 2.395 . S
Dy481 O492 2.379 . S
Dy481 O495 2.339 . S
Dy481 C511 2.738 . S
C482 O494 1.254 . S
C482 O495 1.257 . S
O483 Dy480 2.307 . S
O483 C493 1.266 . S
O484 Dy481 2.298 . S
O484 C493 1.236 . S
O485 Dy480 2.395 . S
O485 C502 1.255 . S
O486 Dy480 2.379 . S
O486 C502 1.249 . S
O487 Dy481 2.275 . S
O487 C503 1.254 . S
O488 Dy480 2.339 . S
O488 C503 1.257 . S
O489 Dy481 2.307 . S
O489 C504 1.266 . S
O490 Dy480 2.298 . S
O490 C504 1.236 . S
O491 Dy481 2.395 . S
O491 C511 1.255 . S
O492 Dy481 2.379 . S
O492 C511 1.249 . S
C493 O483 1.266 . S
C493 O484 1.236 . S
O494 Dy480 2.275 . S
O494 C482 1.254 . S
O495 Dy481 2.339 . S
O495 C482 1.257 . S
C496 C499 1.344 . S
C496 C500 1.328 . S
C496 C502 1.516 . S
C497 C498 1.304 . S
C497 C501 1.323 . S
C498 C497 1.304 . S
C498 C499 1.371 . S
C498 H512 0.930 . S
C499 C496 1.344 . S
C499 C498 1.371 . S
C499 H513 0.931 . S
C500 C496 1.328 . S
C500 C501 1.433 . S
C500 H514 0.931 . S
C501 C497 1.323 . S
C501 C500 1.433 . S
C501 H515 0.933 . S
C502 Dy480 2.738 . S
C502 O485 1.255 . S
C502 O486 1.249 . S
C502 C496 1.516 . S
C503 O487 1.254 . S
C503 O488 1.257 . S
C504 O489 1.266 . S
C504 O490 1.236 . S
C505 C508 1.344 . S
C505 C509 1.328 . S
C505 C511 1.516 . S
C506 C507 1.304 . S
C506 C510 1.323 . S
C507 C506 1.304 . S
C507 C508 1.371 . S
C507 H516 0.930 . S
C508 C505 1.344 . S
C508 C507 1.371 . S
C508 H517 0.931 . S
C509 C505 1.328 . S
C509 C510 1.433 . S
C509 H518 0.931 . S
C510 C506 1.323 . S
C510 C509 1.433 . S
C510 H519 0.933 . S
C511 Dy481 2.738 . S
C511 O491 1.255 . S
C511 O492 1.249 . S
C511 C505 1.516 . S
H512 C498 0.930 . S
H513 C499 0.931 . S
H514 C500 0.931 . S
H515 C501 0.933 . S
H516 C507 0.930 . S
H517 C508 0.931 . S
H518 C509 0.931 . S
H519 C510 0.933 . S
Dy520 O523 2.307 1_565 S
Dy520 O525 2.395 . S
Dy520 O526 2.379 . S
Dy520 O528 2.339 1_565 S
Dy520 O530 2.298 . S
Dy520 O534 2.275 . S
Dy520 C542 2.738 . S
Dy521 O524 2.298 1_565 S
Dy521 O527 2.275 . S
Dy521 O529 2.307 . S
Dy521 O531 2.395 . S
Dy521 O532 2.379 . S
Dy521 O535 2.339 . S
Dy521 C551 2.738 . S
C522 O534 1.254 . S
C522 O535 1.257 . S
O523 Dy520 2.307 1_545 S
O523 C533 1.266 . S
O524 Dy521 2.298 1_545 S
O524 C533 1.236 . S
O525 Dy520 2.395 . S
O525 C542 1.255 . S
O526 Dy520 2.379 . S
O526 C542 1.249 . S
O527 Dy521 2.275 . S
O527 C543 1.254 1_565 S
O528 Dy520 2.339 1_545 S
O528 C543 1.257 . S
O529 Dy521 2.307 . S
O529 C544 1.266 . S
O530 Dy520 2.298 . S
O530 C544 1.236 . S
O531 Dy521 2.395 . S
O531 C551 1.255 . S
O532 Dy521 2.379 . S
O532 C551 1.249 . S
C533 O523 1.266 . S
C533 O524 1.236 . S
O534 Dy520 2.275 . S
O534 C522 1.254 . S
O535 Dy521 2.339 . S
O535 C522 1.257 . S
C536 C539 1.344 . S
C536 C540 1.328 1_655 S
C536 C542 1.516 . S
C537 C538 1.284 1_455 S
C537 C541 1.334 . S
C538 C537 1.284 1_655 S
C538 C539 1.371 . S
C538 H552 0.930 . S
C539 C536 1.344 . S
C539 C538 1.371 . S
C539 H553 0.931 . S
C540 C536 1.328 1_455 S
C540 C541 1.433 . S
C540 H554 0.931 . S
C541 C537 1.334 . S
C541 C540 1.433 . S
C541 H555 0.933 . S
C542 Dy520 2.738 . S
C542 O525 1.255 . S
C542 O526 1.249 . S
C542 C536 1.516 . S
C543 O527 1.254 1_545 S
C543 O528 1.257 . S
C544 O529 1.266 . S
C544 O530 1.236 . S
C545 C548 1.344 1_565 S
C545 C549 1.328 . S
C545 C551 1.516 . S
C546 C547 1.304 . S
C546 C550 1.323 1_545 S
C547 C546 1.304 . S
C547 C548 1.371 . S
C547 H556 0.930 . S
C548 C545 1.344 1_545 S
C548 C547 1.371 . S
C548 H557 0.931 . S
C549 C545 1.328 . S
C549 C550 1.433 . S
C549 H558 0.931 . S
C550 C546 1.323 1_565 S
C550 C549 1.433 . S
C550 H559 0.933 . S
C551 Dy521 2.738 . S
C551 O531 1.255 . S
C551 O532 1.249 . S
C551 C545 1.516 . S
H552 C538 0.930 . S
H553 C539 0.931 . S
H554 C540 0.931 . S
H555 C541 0.933 . S
H556 C547 0.930 . S
H557 C548 0.931 . S
H558 C549 0.931 . S
H559 C550 0.933 . S
Dy560 O563 2.307 . S
Dy560 O565 2.395 . S
Dy560 O566 2.379 . S
Dy560 O568 2.339 . S
Dy560 O570 2.298 . S
Dy560 O574 2.275 . S
Dy560 C582 2.738 . S
Dy561 O564 2.298 . S
Dy561 O567 2.275 . S
Dy561 O569 2.307 . S
Dy561 O571 2.395 . S
Dy561 O572 2.379 . S
Dy561 O575 2.339 . S
Dy561 C591 2.738 . S
C562 O574 1.254 . S
C562 O575 1.257 . S
O563 Dy560 2.307 . S
O563 C573 1.266 . S
O564 Dy561 2.298 . S
O564 C573 1.236 . S
O565 Dy560 2.395 . S
O565 C582 1.255 . S
O566 Dy560 2.379 . S
O566 C582 1.249 . S
O567 Dy561 2.275 . S
O567 C583 1.254 . S
O568 Dy560 2.339 . S
O568 C583 1.257 . S
O569 Dy561 2.307 . S
O569 C584 1.266 . S
O570 Dy560 2.298 . S
O570 C584 1.236 . S
O571 Dy561 2.395 . S
O571 C591 1.255 . S
O572 Dy561 2.379 . S
O572 C591 1.249 . S
C573 O563 1.266 . S
C573 O564 1.236 . S
O574 Dy560 2.275 . S
O574 C562 1.254 . S
O575 Dy561 2.339 . S
O575 C562 1.257 . S
C576 C579 1.344 . S
C576 C580 1.328 . S
C576 C582 1.516 . S
C577 C578 1.304 . S
C577 C581 1.323 . S
C578 C577 1.304 . S
C578 C579 1.371 . S
C578 H592 0.930 . S
C579 C576 1.344 . S
C579 C578 1.371 . S
C579 H593 0.931 . S
C580 C576 1.328 . S
C580 C581 1.433 . S
C580 H594 0.931 . S
C581 C577 1.323 . S
C581 C580 1.433 . S
C581 H595 0.933 . S
C582 Dy560 2.738 . S
C582 O565 1.255 . S
C582 O566 1.249 . S
C582 C576 1.516 . S
C583 O567 1.254 . S
C583 O568 1.257 . S
C584 O569 1.266 . S
C584 O570 1.236 . S
C585 C588 1.344 . S
C585 C589 1.328 . S
C585 C591 1.516 . S
C586 C587 1.304 . S
C586 C590 1.323 . S
C587 C586 1.304 . S
C587 C588 1.371 . S
C587 H596 0.930 . S
C588 C585 1.344 . S
C588 C587 1.371 . S
C588 H597 0.931 . S
C589 C585 1.328 . S
C589 C590 1.433 . S
C589 H598 0.931 . S
C590 C586 1.323 . S
C590 C589 1.433 . S
C590 H599 0.933 . S
C591 Dy561 2.738 . S
C591 O571 1.255 . S
C591 O572 1.249 . S
C591 C585 1.516 . S
H592 C578 0.930 . S
H593 C579 0.931 . S
H594 C580 0.931 . S
H595 C581 0.933 . S
H596 C587 0.930 . S
H597 C588 0.931 . S
H598 C589 0.931 . S
H599 C590 0.933 . S
Dy600 O603 2.307 1_545 S
Dy600 O605 2.395 . S
Dy600 O606 2.379 . S
Dy600 O608 2.339 1_545 S
Dy600 O610 2.298 . S
Dy600 O614 2.275 . S
Dy600 C622 2.738 . S
Dy601 O604 2.298 1_545 S
Dy601 O607 2.275 . S
Dy601 O609 2.307 . S
Dy601 O611 2.395 . S
Dy601 O612 2.379 . S
Dy601 O615 2.339 . S
Dy601 C631 2.738 . S
C602 O614 1.254 . S
C602 O615 1.257 . S
O603 Dy600 2.307 1_565 S
O603 C613 1.266 . S
O604 Dy601 2.298 1_565 S
O604 C613 1.236 . S
O605 Dy600 2.395 . S
O605 C622 1.255 . S
O606 Dy600 2.379 . S
O606 C622 1.249 . S
O607 Dy601 2.275 . S
O607 C623 1.254 1_545 S
O608 Dy600 2.339 1_565 S
O608 C623 1.257 . S
O609 Dy601 2.307 . S
O609 C624 1.266 . S
O610 Dy600 2.298 . S
O610 C624 1.236 . S
O611 Dy601 2.395 . S
O611 C631 1.255 . S
O612 Dy601 2.379 . S
O612 C631 1.249 . S
C613 O603 1.266 . S
C613 O604 1.236 . S
O614 Dy600 2.275 . S
O614 C602 1.254 . S
O615 Dy601 2.339 . S
O615 C602 1.257 . S
C616 C619 1.344 . S
C616 C620 1.328 . S
C616 C622 1.516 . S
C617 C618 1.304 . S
C617 C621 1.323 . S
C618 C617 1.304 . S
C618 C619 1.371 . S
C618 H632 0.930 . S
C619 C616 1.344 . S
C619 C618 1.371 . S
C619 H633 0.931 . S
C620 C616 1.328 . S
C620 C621 1.433 . S
C620 H634 0.931 . S
C621 C617 1.323 . S
C621 C620 1.433 . S
C621 H635 0.933 . S
C622 Dy600 2.738 . S
C622 O605 1.255 . S
C622 O606 1.249 . S
C622 C616 1.516 . S
C623 O607 1.254 1_565 S
C623 O608 1.257 . S
C624 O609 1.266 . S
C624 O610 1.236 . S
C625 C628 1.344 1_545 S
C625 C629 1.328 . S
C625 C631 1.516 . S
C626 C627 1.304 . S
C626 C630 1.323 1_565 S
C627 C626 1.304 . S
C627 C628 1.371 . S
C627 H636 0.930 . S
C628 C625 1.344 1_565 S
C628 C627 1.371 . S
C628 H637 0.931 . S
C629 C625 1.328 . S
C629 C630 1.433 . S
C629 H638 0.931 . S
C630 C626 1.323 1_545 S
C630 C629 1.433 . S
C630 H639 0.933 . S
C631 Dy601 2.738 . S
C631 O611 1.255 . S
C631 O612 1.249 . S
C631 C625 1.516 . S
H632 C618 0.930 . S
H633 C619 0.931 . S
H634 C620 0.931 . S
H635 C621 0.933 . S
H636 C627 0.930 . S
H637 C628 0.931 . S
H638 C629 0.931 . S
H639 C630 0.933 . S
H640 C646 0.930 . S
H641 C650 0.930 . S
H642 C655 0.929 . S
H643 C653 0.929 . S
H644 C648 0.929 . S
H645 C654 0.929 . S
C646 H640 0.930 . S
C646 C647 1.367 . S
C646 C654 1.378 . S
C647 C646 1.367 . S
C647 C655 1.433 . S
C648 H644 0.929 . S
C648 C650 1.378 . S
C648 C652 1.350 . S
C649 C652 1.463 . S
C649 C654 1.350 . S
C649 N657 1.427 . S
C650 H641 0.930 . S
C650 C648 1.378 . S
C650 C651 1.367 . S
C651 C650 1.367 . S
C651 C653 1.433 . S
C652 C648 1.350 . S
C652 C649 1.463 . S
C652 N656 1.427 . S
C653 H643 0.929 . S
C653 C651 1.433 . S
C653 N656 1.384 . S
C654 H645 0.929 . S
C654 C646 1.378 . S
C654 C649 1.350 . S
C655 H642 0.929 . S
C655 C647 1.433 . S
C655 N657 1.384 . S
N656 C652 1.427 . S
N656 C653 1.384 . S
N657 C649 1.427 . S
N657 C655 1.384 . S
H658 C664 0.930 . S
H659 C668 0.930 . S
H660 C673 0.929 . S
H661 C671 0.929 . S
H662 C666 0.929 . S
H663 C672 0.929 . S
C664 H658 0.930 . S
C664 C665 1.367 . S
C664 C672 1.378 . S
C665 C664 1.367 . S
C665 C673 1.433 . S
C666 H662 0.929 . S
C666 C668 1.378 . S
C666 C670 1.350 . S
C667 C670 1.463 . S
C667 C672 1.350 . S
C667 N675 1.427 . S
C668 H659 0.930 . S
C668 C666 1.378 . S
C668 C669 1.367 . S
C669 C668 1.367 . S
C669 C671 1.433 . S
C670 C666 1.350 . S
C670 C667 1.463 . S
C670 N674 1.427 . S
C671 H661 0.929 . S
C671 C669 1.433 . S
C671 N674 1.384 . S
C672 H663 0.929 . S
C672 C664 1.378 . S
C672 C667 1.350 . S
C673 H660 0.929 . S
C673 C665 1.433 . S
C673 N675 1.384 . S
N674 C670 1.427 . S
N674 C671 1.384 . S
N675 C667 1.427 . S
N675 C673 1.384 . S
H676 C682 0.930 . S
H677 C686 0.930 . S
H678 C691 0.929 . S
H679 C689 0.929 . S
H680 C684 0.929 . S
H681 C690 0.929 . S
C682 H676 0.930 . S
C682 C683 1.367 . S
C682 C690 1.378 . S
C683 C682 1.367 . S
C683 C691 1.433 . S
C684 H680 0.929 . S
C684 C686 1.378 . S
C684 C688 1.350 . S
C685 C688 1.463 . S
C685 C690 1.350 . S
C685 N693 1.427 . S
C686 H677 0.930 . S
C686 C684 1.378 . S
C686 C687 1.367 . S
C687 C686 1.367 . S
C687 C689 1.433 . S
C688 C684 1.350 . S
C688 C685 1.463 . S
C688 N692 1.427 . S
C689 H679 0.929 . S
C689 C687 1.433 . S
C689 N692 1.384 . S
C690 H681 0.929 . S
C690 C682 1.378 . S
C690 C685 1.350 . S
C691 H678 0.929 . S
C691 C683 1.433 . S
C691 N693 1.384 . S
N692 C688 1.427 . S
N692 C689 1.384 . S
N693 C685 1.427 . S
N693 C691 1.384 . S
H694 C700 0.930 . S
H695 C704 0.930 . S
H696 C709 0.929 . S
H697 C707 0.929 . S
H698 C702 0.929 . S
H699 C708 0.929 . S
C700 H694 0.930 . S
C700 C701 1.367 . S
C700 C708 1.378 . S
C701 C700 1.367 . S
C701 C709 1.433 1_455 S
C702 H698 0.929 . S
C702 C704 1.378 . S
C702 C706 1.350 . S
C703 C706 1.463 1_456 S
C703 C708 1.350 . S
C703 N711 1.427 1_455 S
C704 H695 0.930 . S
C704 C702 1.378 . S
C704 C705 1.367 . S
C705 C704 1.367 . S
C705 C707 1.433 1_655 S
C706 C702 1.350 . S
C706 C703 1.463 1_654 S
C706 N710 1.427 1_655 S
C707 H697 0.929 . S
C707 C705 1.433 1_455 S
C707 N710 1.384 . S
C708 H699 0.929 . S
C708 C700 1.378 . S
C708 C703 1.350 . S
C709 H696 0.929 . S
C709 C701 1.433 1_655 S
C709 N711 1.384 . S
N710 C706 1.427 1_455 S
N710 C707 1.384 . S
N711 C703 1.427 1_655 S
N711 C709 1.384 . S
H712 C718 0.930 . S
H713 C722 0.930 . S
H714 C727 0.929 . S
H715 C725 0.929 . S
H716 C720 0.929 . S
H717 C726 0.929 . S
C718 H712 0.930 . S
C718 C719 1.367 . S
C718 C726 1.378 . S
C719 C718 1.367 . S
C719 C727 1.433 . S
C720 H716 0.929 . S
C720 C722 1.378 . S
C720 C724 1.350 . S
C721 C724 1.463 . S
C721 C726 1.350 . S
C721 N729 1.427 . S
C722 H713 0.930 . S
C722 C720 1.378 . S
C722 C723 1.367 . S
C723 C722 1.367 . S
C723 C725 1.433 . S
C724 C720 1.350 . S
C724 C721 1.463 . S
C724 N728 1.427 . S
C725 H715 0.929 . S
C725 C723 1.433 . S
C725 N728 1.384 . S
C726 H717 0.929 . S
C726 C718 1.378 . S
C726 C721 1.350 . S
C727 H714 0.929 . S
C727 C719 1.433 . S
C727 N729 1.384 . S
N728 C724 1.427 . S
N728 C725 1.384 . S
N729 C721 1.427 . S
N729 C727 1.384 . S
H730 C736 0.930 . S
H731 C740 0.930 . S
H732 C745 0.929 . S
H733 C743 0.929 . S
H734 C738 0.929 . S
H735 C744 0.929 . S
C736 H730 0.930 . S
C736 C737 1.367 . S
C736 C744 1.378 . S
C737 C736 1.367 . S
C737 C745 1.433 . S
C738 H734 0.929 . S
C738 C740 1.378 . S
C738 C742 1.350 . S
C739 C742 1.463 . S
C739 C744 1.350 . S
C739 N747 1.427 . S
C740 H731 0.930 . S
C740 C738 1.378 . S
C740 C741 1.367 . S
C741 C740 1.367 . S
C741 C743 1.433 . S
C742 C738 1.350 . S
C742 C739 1.463 . S
C742 N746 1.427 . S
C743 H733 0.929 . S
C743 C741 1.433 . S
C743 N746 1.384 . S
C744 H735 0.929 . S
C744 C736 1.378 . S
C744 C739 1.350 . S
C745 H732 0.929 . S
C745 C737 1.433 . S
C745 N747 1.384 . S
N746 C742 1.427 . S
N746 C743 1.384 . S
N747 C739 1.427 . S
N747 C745 1.384 . S
H748 C754 0.930 . S
H749 C758 0.930 . S
H750 C763 0.928 1_656 S
H751 C761 0.928 1_454 S
H752 C756 0.929 1_565 S
H753 C762 0.929 1_545 S
C754 H748 0.930 . S
C754 C755 1.367 . S
C754 C762 1.378 . S
C755 C754 1.367 . S
C755 C763 1.435 . S
C756 H752 0.929 1_545 S
C756 C758 1.378 . S
C756 C760 1.350 . S
C757 C760 1.463 1_464 S
C757 C762 1.350 . S
C757 N765 1.427 1_454 S
C758 H749 0.930 . S
C758 C756 1.378 . S
C758 C759 1.367 . S
C759 C758 1.367 . S
C759 C761 1.435 . S
C760 C756 1.350 . S
C760 C757 1.463 1_646 S
C760 N764 1.427 1_656 S
C761 H751 0.928 1_656 S
C761 C759 1.435 . S
C761 N764 1.383 1_656 S
C762 H753 0.929 1_565 S
C762 C754 1.378 . S
C762 C757 1.350 . S
C763 H750 0.928 1_454 S
C763 C755 1.435 . S
C763 N765 1.383 1_454 S
N764 C760 1.427 1_454 S
N764 C761 1.383 1_454 S
N765 C757 1.427 1_656 S
N765 C763 1.383 1_656 S
H766 C772 0.930 . S
H767 C776 0.930 . S
H768 C781 0.929 . S
H769 C779 0.929 . S
H770 C774 0.929 . S
H771 C780 0.929 . S
C772 H766 0.930 . S
C772 C773 1.367 . S
C772 C780 1.378 . S
C773 C772 1.367 . S
C773 C781 1.433 . S
C774 H770 0.929 . S
C774 C776 1.378 . S
C774 C778 1.350 . S
C775 C778 1.463 1_565 S
C775 C780 1.350 . S
C775 N783 1.427 . S
C776 H767 0.930 . S
C776 C774 1.378 . S
C776 C777 1.367 . S
C777 C776 1.367 . S
C777 C779 1.433 . S
C778 C774 1.350 . S
C778 C775 1.463 1_545 S
C778 N782 1.427 . S
C779 H769 0.929 . S
C779 C777 1.433 . S
C779 N782 1.384 . S
C780 H771 0.929 . S
C780 C772 1.378 . S
C780 C775 1.350 . S
C781 H768 0.929 . S
C781 C773 1.433 . S
C781 N783 1.384 . S
N782 C778 1.427 . S
N782 C779 1.384 . S
N783 C775 1.427 . S
N783 C781 1.384 . S
H784 C790 0.930 . S
H785 C794 0.923 1_554 S
H786 C799 0.929 . S
H787 C797 0.929 . S
H788 C792 0.929 . S
H789 C798 0.929 . S
C790 H784 0.930 . S
C790 C791 1.367 . S
C790 C798 1.378 . S
C791 C790 1.367 . S
C791 C799 1.433 . S
C792 H788 0.929 . S
C792 C794 1.388 . S
C792 C796 1.350 . S
C793 C796 1.463 . S
C793 C798 1.350 . S
C793 N801 1.427 . S
C794 H785 0.923 1_556 S
C794 C792 1.388 . S
C794 C795 1.364 1_556 S
C795 C794 1.364 1_554 S
C795 C797 1.433 1_554 S
C796 C792 1.350 . S
C796 C793 1.463 . S
C796 N800 1.427 . S
C797 H787 0.929 . S
C797 C795 1.433 1_556 S
C797 N800 1.384 . S
C798 H789 0.929 . S
C798 C790 1.378 . S
C798 C793 1.350 . S
C799 H786 0.929 . S
C799 C791 1.433 . S
C799 N801 1.384 . S
N800 C796 1.427 . S
N800 C797 1.384 . S
N801 C793 1.427 . S
N801 C799 1.384 . S
H802 C808 0.930 . S
H803 C812 0.930 . S
H804 C817 0.929 . S
H805 C815 0.929 . S
H806 C810 0.929 . S
H807 C816 0.929 . S
C808 H802 0.930 . S
C808 C809 1.367 . S
C808 C816 1.378 . S
C809 C808 1.367 . S
C809 C817 1.433 . S
C810 H806 0.929 . S
C810 C812 1.378 . S
C810 C814 1.350 . S
C811 C814 1.463 . S
C811 C816 1.350 . S
C811 N819 1.427 . S
C812 H803 0.930 . S
C812 C810 1.378 . S
C812 C813 1.367 . S
C813 C812 1.367 . S
C813 C815 1.433 . S
C814 C810 1.350 . S
C814 C811 1.463 . S
C814 N818 1.427 . S
C815 H805 0.929 . S
C815 C813 1.433 . S
C815 N818 1.384 . S
C816 H807 0.929 . S
C816 C808 1.378 . S
C816 C811 1.350 . S
C817 H804 0.929 . S
C817 C809 1.433 . S
C817 N819 1.384 . S
N818 C814 1.427 . S
N818 C815 1.384 . S
N819 C811 1.427 . S
N819 C817 1.384 . S
H820 C826 0.930 . S
H821 C830 0.930 . S
H822 C835 0.929 . S
H823 C833 0.929 . S
H824 C828 0.929 . S
H825 C834 0.929 . S
C826 H820 0.930 . S
C826 C827 1.367 . S
C826 C834 1.378 . S
C827 C826 1.367 . S
C827 C835 1.433 . S
C828 H824 0.929 . S
C828 C830 1.378 . S
C828 C832 1.350 . S
C829 C832 1.463 . S
C829 C834 1.350 . S
C829 N837 1.427 . S
C830 H821 0.930 . S
C830 C828 1.378 . S
C830 C831 1.367 . S
C831 C830 1.367 . S
C831 C833 1.433 . S
C832 C828 1.350 . S
C832 C829 1.463 . S
C832 N836 1.427 . S
C833 H823 0.929 . S
C833 C831 1.433 . S
C833 N836 1.384 . S
C834 H825 0.929 . S
C834 C826 1.378 . S
C834 C829 1.350 . S
C835 H822 0.929 . S
C835 C827 1.433 . S
C835 N837 1.384 . S
N836 C832 1.427 . S
N836 C833 1.384 . S
N837 C829 1.427 . S
N837 C835 1.384 . S
H838 C844 0.930 . S
H839 C848 0.930 . S
H840 C853 0.929 . S
H841 C851 0.929 . S
H842 C846 0.929 . S
H843 C852 0.929 . S
C844 H838 0.930 . S
C844 C845 1.367 . S
C844 C852 1.378 . S
C845 C844 1.367 . S
C845 C853 1.433 . S
C846 H842 0.929 . S
C846 C848 1.378 . S
C846 C850 1.350 . S
C847 C850 1.463 . S
C847 C852 1.350 . S
C847 N855 1.427 . S
C848 H839 0.930 . S
C848 C846 1.378 . S
C848 C849 1.367 . S
C849 C848 1.367 . S
C849 C851 1.433 . S
C850 C846 1.350 . S
C850 C847 1.463 . S
C850 N854 1.427 . S
C851 H841 0.929 . S
C851 C849 1.433 . S
C851 N854 1.384 . S
C852 H843 0.929 . S
C852 C844 1.378 . S
C852 C847 1.350 . S
C853 H840 0.929 . S
C853 C845 1.433 . S
C853 N855 1.384 . S
N854 C850 1.427 . S
N854 C851 1.384 . S
N855 C847 1.427 . S
N855 C853 1.384 . S
H856 C862 0.930 . S
H857 C866 0.930 1_556 S
H858 C871 0.929 . S
H859 C869 0.929 1_546 S
H860 C864 0.929 . S
H861 C870 0.929 1_545 S
C862 H856 0.930 . S
C862 C863 1.367 . S
C862 C870 1.378 . S
C863 C862 1.367 . S
C863 C871 1.433 . S
C864 H860 0.929 . S
C864 C866 1.378 . S
C864 C868 1.350 . S
C865 C868 1.463 . S
C865 C870 1.350 . S
C865 N873 1.427 . S
C866 H857 0.930 1_554 S
C866 C864 1.378 . S
C866 C867 1.367 1_554 S
C867 C866 1.367 1_556 S
C867 C869 1.433 1_556 S
C868 C864 1.350 . S
C868 C865 1.463 . S
C868 N872 1.427 . S
C869 H859 0.929 1_564 S
C869 C867 1.433 1_554 S
C869 N872 1.384 . S
C870 H861 0.929 1_565 S
C870 C862 1.378 . S
C870 C865 1.350 . S
C871 H858 0.929 . S
C871 C863 1.433 . S
C871 N873 1.384 . S
N872 C868 1.427 . S
N872 C869 1.384 . S
N873 C865 1.427 . S
N873 C871 1.384 . S
H874 C880 0.930 . S
H875 C884 0.930 . S
H876 C889 0.929 . S
H877 C887 0.929 . S
H878 C882 0.929 . S
H879 C888 0.929 . S
C880 H874 0.930 . S
C880 C881 1.367 . S
C880 C888 1.378 . S
C881 C880 1.367 . S
C881 C889 1.433 . S
C882 H878 0.929 . S
C882 C884 1.378 . S
C882 C886 1.350 . S
C883 C886 1.463 . S
C883 C888 1.350 . S
C883 N891 1.427 . S
C884 H875 0.930 . S
C884 C882 1.378 . S
C884 C885 1.367 . S
C885 C884 1.367 . S
C885 C887 1.433 . S
C886 C882 1.350 . S
C886 C883 1.463 . S
C886 N890 1.427 . S
C887 H877 0.929 . S
C887 C885 1.433 . S
C887 N890 1.384 . S
C888 H879 0.929 . S
C888 C880 1.378 . S
C888 C883 1.350 . S
C889 H876 0.929 . S
C889 C881 1.433 . S
C889 N891 1.384 . S
N890 C886 1.427 . S
N890 C887 1.384 . S
N891 C883 1.427 . S
N891 C889 1.384 . S
H892 C898 0.930 . S
H893 C902 0.930 . S
H894 C907 0.929 . S
H895 C905 0.929 . S
H896 C900 0.929 . S
H897 C906 0.929 . S
C898 H892 0.930 . S
C898 C899 1.367 . S
C898 C906 1.378 . S
C899 C898 1.367 . S
C899 C907 1.433 . S
C900 H896 0.929 . S
C900 C902 1.378 . S
C900 C904 1.350 . S
C901 C904 1.463 . S
C901 C906 1.350 . S
C901 N909 1.427 . S
C902 H893 0.930 . S
C902 C900 1.378 . S
C902 C903 1.367 . S
C903 C902 1.367 . S
C903 C905 1.433 . S
C904 C900 1.350 . S
C904 C901 1.463 . S
C904 N908 1.427 . S
C905 H895 0.929 . S
C905 C903 1.433 . S
C905 N908 1.384 . S
C906 H897 0.929 . S
C906 C898 1.378 . S
C906 C901 1.350 . S
C907 H894 0.929 . S
C907 C899 1.433 . S
C907 N909 1.384 . S
N908 C904 1.427 . S
N908 C905 1.384 . S
N909 C901 1.427 . S
N909 C907 1.384 . S
H910 C916 0.930 . S
H911 C920 0.930 . S
H912 C925 0.929 . S
H913 C923 0.929 . S
H914 C918 0.929 . S
H915 C924 0.929 . S
C916 H910 0.930 . S
C916 C917 1.367 . S
C916 C924 1.378 . S
C917 C916 1.367 . S
C917 C925 1.433 . S
C918 H914 0.929 . S
C918 C920 1.378 . S
C918 C922 1.350 . S
C919 C922 1.463 . S
C919 C924 1.350 . S
C919 N927 1.427 . S
C920 H911 0.930 . S
C920 C918 1.378 . S
C920 C921 1.367 . S
C921 C920 1.367 . S
C921 C923 1.433 . S
C922 C918 1.350 . S
C922 C919 1.463 . S
C922 N926 1.427 . S
C923 H913 0.929 . S
C923 C921 1.433 . S
C923 N926 1.384 . S
C924 H915 0.929 . S
C924 C916 1.378 . S
C924 C919 1.350 . S
C925 H912 0.929 . S
C925 C917 1.433 . S
C925 N927 1.384 . S
N926 C922 1.427 . S
N926 C923 1.384 . S
N927 C919 1.427 . S
N927 C925 1.384 . S
H928 C934 0.930 . S
H929 C938 0.930 . S
H930 C943 0.929 . S
H931 C941 0.929 . S
H932 C936 0.929 . S
H933 C942 0.929 . S
C934 H928 0.930 . S
C934 C935 1.367 . S
C934 C942 1.378 . S
C935 C934 1.367 . S
C935 C943 1.433 . S
C936 H932 0.929 . S
C936 C938 1.378 . S
C936 C940 1.350 . S
C937 C940 1.463 . S
C937 C942 1.350 . S
C937 N945 1.427 . S
C938 H929 0.930 . S
C938 C936 1.378 . S
C938 C939 1.367 . S
C939 C938 1.367 . S
C939 C941 1.433 . S
C940 C936 1.350 . S
C940 C937 1.463 . S
C940 N944 1.427 . S
C941 H931 0.929 . S
C941 C939 1.433 . S
C941 N944 1.384 . S
C942 H933 0.929 . S
C942 C934 1.378 . S
C942 C937 1.350 . S
C943 H930 0.929 . S
C943 C935 1.433 . S
C943 N945 1.384 . S
N944 C940 1.427 . S
N944 C941 1.384 . S
N945 C937 1.427 . S
N945 C943 1.384 . S
H946 C952 0.916 1_545 S
H947 C956 0.930 . S
H948 C961 0.929 . S
H949 C959 0.929 . S
H950 C954 0.929 . S
H951 C960 0.929 1_545 S
C952 H946 0.916 1_565 S
C952 C953 1.377 . S
C952 C960 1.382 . S
C953 C952 1.377 . S
C953 C961 1.433 . S
C954 H950 0.929 . S
C954 C956 1.378 . S
C954 C958 1.350 . S
C955 C958 1.463 . S
C955 C960 1.350 . S
C955 N963 1.427 . S
C956 H947 0.930 . S
C956 C954 1.378 . S
C956 C957 1.367 . S
C957 C956 1.367 . S
C957 C959 1.433 . S
C958 C954 1.350 . S
C958 C955 1.463 . S
C958 N962 1.427 . S
C959 H949 0.929 . S
C959 C957 1.433 . S
C959 N962 1.384 . S
C960 H951 0.929 1_565 S
C960 C952 1.382 . S
C960 C955 1.350 . S
C961 H948 0.929 . S
C961 C953 1.433 . S
C961 N963 1.384 . S
N962 C958 1.427 . S
N962 C959 1.384 . S
N963 C955 1.427 . S
N963 C961 1.384 . S
H964 C970 0.934 . S
H965 C974 0.930 . S
H966 C979 0.929 1_554 S
H967 C977 0.929 . S
H968 C972 0.929 . S
H969 C978 0.929 . S
C970 H964 0.934 . S
C970 C971 1.367 1_556 S
C970 C978 1.378 . S
C971 C970 1.367 1_554 S
C971 C979 1.433 1_554 S
C972 H968 0.929 . S
C972 C974 1.378 . S
C972 C976 1.350 . S
C973 C976 1.463 . S
C973 C978 1.350 . S
C973 N981 1.427 . S
C974 H965 0.930 . S
C974 C972 1.378 . S
C974 C975 1.367 . S
C975 C974 1.367 . S
C975 C977 1.433 . S
C976 C972 1.350 . S
C976 C973 1.463 . S
C976 N980 1.427 . S
C977 H967 0.929 . S
C977 C975 1.433 . S
C977 N980 1.384 . S
C978 H969 0.929 . S
C978 C970 1.378 . S
C978 C973 1.350 . S
C979 H966 0.929 1_556 S
C979 C971 1.433 1_556 S
C979 N981 1.384 . S
N980 C976 1.427 . S
N980 C977 1.384 . S
N981 C973 1.427 . S
N981 C979 1.384 . S
H982 C988 0.930 . S
H983 C992 0.930 . S
H984 C997 0.929 . S
H985 C995 0.929 . S
H986 C990 0.929 . S
H987 C996 0.929 . S
C988 H982 0.930 . S
C988 C989 1.367 . S
C988 C996 1.378 . S
C989 C988 1.367 . S
C989 C997 1.433 . S
C990 H986 0.929 . S
C990 C992 1.378 . S
C990 C994 1.350 . S
C991 C994 1.463 . S
C991 C996 1.350 . S
C991 N999 1.427 . S
C992 H983 0.930 . S
C992 C990 1.378 . S
C992 C993 1.367 . S
C993 C992 1.367 . S
C993 C995 1.433 . S
C994 C990 1.350 . S
C994 C991 1.463 . S
C994 N998 1.427 . S
C995 H985 0.929 . S
C995 C993 1.433 . S
C995 N998 1.384 . S
C996 H987 0.929 . S
C996 C988 1.378 . S
C996 C991 1.350 . S
C997 H984 0.929 . S
C997 C989 1.433 . S
C997 N999 1.384 . S
N998 C994 1.427 . S
N998 C995 1.384 . S
N999 C991 1.427 . S
N999 C997 1.384 . S
H1000 C1006 0.930 . S
H1001 C1010 0.930 . S
H1002 C1015 0.929 . S
H1003 C1013 0.929 . S
H1004 C1008 0.929 . S
H1005 C1014 0.929 . S
C1006 H1000 0.930 . S
C1006 C1007 1.367 . S
C1006 C1014 1.378 . S
C1007 C1006 1.367 . S
C1007 C1015 1.433 . S
C1008 H1004 0.929 . S
C1008 C1010 1.378 . S
C1008 C1012 1.350 . S
C1009 C1012 1.463 . S
C1009 C1014 1.350 . S
C1009 N1017 1.427 . S
C1010 H1001 0.930 . S
C1010 C1008 1.378 . S
C1010 C1011 1.367 . S
C1011 C1010 1.367 . S
C1011 C1013 1.433 . S
C1012 C1008 1.350 . S
C1012 C1009 1.463 . S
C1012 N1016 1.427 . S
C1013 H1003 0.929 . S
C1013 C1011 1.433 . S
C1013 N1016 1.384 . S
C1014 H1005 0.929 . S
C1014 C1006 1.378 . S
C1014 C1009 1.350 . S
C1015 H1002 0.929 . S
C1015 C1007 1.433 . S
C1015 N1017 1.384 . S
N1016 C1012 1.427 . S
N1016 C1013 1.384 . S
N1017 C1009 1.427 . S
N1017 C1015 1.384 . S
H1018 C1024 0.930 . S
H1019 C1028 0.930 . S
H1020 C1033 0.929 1_565 S
H1021 C1031 0.929 . S
H1022 C1026 0.929 . S
H1023 C1032 0.929 . S
C1024 H1018 0.930 . S
C1024 C1025 1.367 . S
C1024 C1032 1.378 . S
C1025 C1024 1.367 . S
C1025 C1033 1.433 . S
C1026 H1022 0.929 . S
C1026 C1028 1.378 . S
C1026 C1030 1.350 . S
C1027 C1030 1.463 . S
C1027 C1032 1.350 . S
C1027 N1035 1.427 . S
C1028 H1019 0.930 . S
C1028 C1026 1.378 . S
C1028 C1029 1.367 . S
C1029 C1028 1.367 . S
C1029 C1031 1.433 . S
C1030 C1026 1.350 . S
C1030 C1027 1.463 . S
C1030 N1034 1.427 . S
C1031 H1021 0.929 . S
C1031 C1029 1.433 . S
C1031 N1034 1.384 . S
C1032 H1023 0.929 . S
C1032 C1024 1.378 . S
C1032 C1027 1.350 . S
C1033 H1020 0.929 1_545 S
C1033 C1025 1.433 . S
C1033 N1035 1.384 . S
N1034 C1030 1.427 . S
N1034 C1031 1.384 . S
N1035 C1027 1.427 . S
N1035 C1033 1.384 . S
H1036 C1042 0.930 . S
H1037 C1046 0.930 1_556 S
H1038 C1051 0.929 . S
H1039 C1049 0.932 1_556 S
H1040 C1044 0.929 . S
H1041 C1050 0.929 . S
C1042 H1036 0.930 . S
C1042 C1043 1.367 . S
C1042 C1050 1.378 . S
C1043 C1042 1.367 . S
C1043 C1051 1.433 . S
C1044 H1040 0.929 . S
C1044 C1046 1.378 . S
C1044 C1048 1.350 . S
C1045 C1048 1.463 . S
C1045 C1050 1.350 . S
C1045 N1053 1.427 . S
C1046 H1037 0.930 1_554 S
C1046 C1044 1.378 . S
C1046 C1047 1.367 1_554 S
C1047 C1046 1.367 1_556 S
C1047 C1049 1.433 1_556 S
C1048 C1044 1.350 . S
C1048 C1045 1.463 . S
C1048 N1052 1.427 . S
C1049 H1039 0.932 1_554 S
C1049 C1047 1.433 1_554 S
C1049 N1052 1.384 . S
C1050 H1041 0.929 . S
C1050 C1042 1.378 . S
C1050 C1045 1.350 . S
C1051 H1038 0.929 . S
C1051 C1043 1.433 . S
C1051 N1053 1.384 . S
N1052 C1048 1.427 . S
N1052 C1049 1.384 . S
N1053 C1045 1.427 . S
N1053 C1051 1.384 . S
H1054 C1060 0.930 . S
H1055 C1064 0.930 . S
H1056 C1069 0.929 1_545 S
H1057 C1067 0.929 . S
H1058 C1062 0.929 . S
H1059 C1068 0.929 . S
C1060 H1054 0.930 . S
C1060 C1061 1.367 . S
C1060 C1068 1.378 . S
C1061 C1060 1.367 . S
C1061 C1069 1.433 . S
C1062 H1058 0.929 . S
C1062 C1064 1.378 . S
C1062 C1066 1.350 . S
C1063 C1066 1.463 . S
C1063 C1068 1.350 . S
C1063 N1071 1.427 . S
C1064 H1055 0.930 . S
C1064 C1062 1.378 . S
C1064 C1065 1.367 . S
C1065 C1064 1.367 . S
C1065 C1067 1.433 . S
C1066 C1062 1.350 . S
C1066 C1063 1.463 . S
C1066 N1070 1.427 . S
C1067 H1057 0.929 . S
C1067 C1065 1.433 . S
C1067 N1070 1.384 . S
C1068 H1059 0.929 . S
C1068 C1060 1.378 . S
C1068 C1063 1.350 . S
C1069 H1056 0.929 1_565 S
C1069 C1061 1.433 . S
C1069 N1071 1.384 . S
N1070 C1066 1.427 . S
N1070 C1067 1.384 . S
N1071 C1063 1.427 . S
N1071 C1069 1.384 . S
H1072 C1078 0.930 . S
H1073 C1082 0.930 . S
H1074 C1087 0.929 . S
H1075 C1085 0.929 . S
H1076 C1080 0.929 . S
H1077 C1086 0.929 . S
C1078 H1072 0.930 . S
C1078 C1079 1.367 . S
C1078 C1086 1.378 . S
C1079 C1078 1.367 . S
C1079 C1087 1.433 . S
C1080 H1076 0.929 . S
C1080 C1082 1.378 . S
C1080 C1084 1.350 . S
C1081 C1084 1.463 . S
C1081 C1086 1.350 . S
C1081 N1089 1.427 . S
C1082 H1073 0.930 . S
C1082 C1080 1.378 . S
C1082 C1083 1.367 . S
C1083 C1082 1.367 . S
C1083 C1085 1.433 . S
C1084 C1080 1.350 . S
C1084 C1081 1.463 . S
C1084 N1088 1.427 . S
C1085 H1075 0.929 . S
C1085 C1083 1.433 . S
C1085 N1088 1.384 . S
C1086 H1077 0.929 . S
C1086 C1078 1.378 . S
C1086 C1081 1.350 . S
C1087 H1074 0.929 . S
C1087 C1079 1.433 . S
C1087 N1089 1.384 . S
N1088 C1084 1.427 . S
N1088 C1085 1.384 . S
N1089 C1081 1.427 . S
N1089 C1087 1.384 . S
H1090 C1096 0.930 . S
H1091 C1100 0.930 . S
H1092 C1105 0.929 . S
H1093 C1103 0.929 . S
H1094 C1098 0.929 . S
H1095 C1104 0.929 . S
C1096 H1090 0.930 . S
C1096 C1097 1.367 . S
C1096 C1104 1.378 . S
C1097 C1096 1.367 . S
C1097 C1105 1.433 . S
C1098 H1094 0.929 . S
C1098 C1100 1.378 . S
C1098 C1102 1.350 . S
C1099 C1102 1.463 . S
C1099 C1104 1.350 . S
C1099 N1107 1.427 . S
C1100 H1091 0.930 . S
C1100 C1098 1.378 . S
C1100 C1101 1.367 . S
C1101 C1100 1.367 . S
C1101 C1103 1.433 . S
C1102 C1098 1.350 . S
C1102 C1099 1.463 . S
C1102 N1106 1.427 . S
C1103 H1093 0.929 . S
C1103 C1101 1.433 . S
C1103 N1106 1.384 . S
C1104 H1095 0.929 . S
C1104 C1096 1.378 . S
C1104 C1099 1.350 . S
C1105 H1092 0.929 . S
C1105 C1097 1.433 . S
C1105 N1107 1.384 . S
N1106 C1102 1.427 . S
N1106 C1103 1.384 . S
N1107 C1099 1.427 . S
N1107 C1105 1.384 . S
H1108 C1114 0.930 . S
H1109 C1118 0.930 . S
H1110 C1123 0.929 . S
H1111 C1121 0.929 . S
H1112 C1116 0.929 . S
H1113 C1122 0.929 . S
C1114 H1108 0.930 . S
C1114 C1115 1.367 . S
C1114 C1122 1.378 . S
C1115 C1114 1.367 . S
C1115 C1123 1.433 . S
C1116 H1112 0.929 . S
C1116 C1118 1.378 . S
C1116 C1120 1.350 . S
C1117 C1120 1.463 1_655 S
C1117 C1122 1.350 . S
C1117 N1125 1.427 . S
C1118 H1109 0.930 . S
C1118 C1116 1.378 . S
C1118 C1119 1.367 . S
C1119 C1118 1.367 . S
C1119 C1121 1.433 . S
C1120 C1116 1.350 . S
C1120 C1117 1.463 1_455 S
C1120 N1124 1.427 . S
C1121 H1111 0.929 . S
C1121 C1119 1.433 . S
C1121 N1124 1.384 . S
C1122 H1113 0.929 . S
C1122 C1114 1.378 . S
C1122 C1117 1.350 . S
C1123 H1110 0.929 . S
C1123 C1115 1.433 . S
C1123 N1125 1.384 . S
N1124 C1120 1.427 . S
N1124 C1121 1.384 . S
N1125 C1117 1.427 . S
N1125 C1123 1.384 . S
H1126 C1132 0.930 . S
H1127 C1136 0.930 . S
H1128 C1141 0.929 . S
H1129 C1139 0.929 . S
H1130 C1134 0.935 . S
H1131 C1140 0.934 . S
C1132 H1126 0.930 . S
C1132 C1133 1.367 . S
C1132 C1140 1.378 . S
C1133 C1132 1.367 . S
C1133 C1141 1.433 . S
C1134 H1130 0.935 . S
C1134 C1136 1.378 . S
C1134 C1138 1.350 . S
C1135 C1138 1.463 1_655 S
C1135 C1140 1.350 . S
C1135 N1143 1.427 . S
C1136 H1127 0.930 . S
C1136 C1134 1.378 . S
C1136 C1137 1.367 . S
C1137 C1136 1.367 . S
C1137 C1139 1.433 . S
C1138 C1134 1.350 . S
C1138 C1135 1.463 1_455 S
C1138 N1142 1.427 . S
C1139 H1129 0.929 . S
C1139 C1137 1.433 . S
C1139 N1142 1.384 . S
C1140 H1131 0.934 . S
C1140 C1132 1.378 . S
C1140 C1135 1.350 . S
C1141 H1128 0.929 . S
C1141 C1133 1.433 . S
C1141 N1143 1.384 . S
N1142 C1138 1.427 . S
N1142 C1139 1.384 . S
N1143 C1135 1.427 . S
N1143 C1141 1.384 . S
H1144 C1150 0.930 . S
H1145 C1154 0.930 . S
H1146 C1159 0.929 . S
H1147 C1157 0.929 . S
H1148 C1152 0.929 . S
H1149 C1158 0.929 . S
C1150 H1144 0.930 . S
C1150 C1151 1.367 . S
C1150 C1158 1.378 . S
C1151 C1150 1.367 . S
C1151 C1159 1.433 . S
C1152 H1148 0.929 . S
C1152 C1154 1.378 . S
C1152 C1156 1.350 . S
C1153 C1156 1.463 . S
C1153 C1158 1.350 . S
C1153 N1161 1.427 . S
C1154 H1145 0.930 . S
C1154 C1152 1.378 . S
C1154 C1155 1.367 . S
C1155 C1154 1.367 . S
C1155 C1157 1.433 . S
C1156 C1152 1.350 . S
C1156 C1153 1.463 . S
C1156 N1160 1.427 . S
C1157 H1147 0.929 . S
C1157 C1155 1.433 . S
C1157 N1160 1.384 . S
C1158 H1149 0.929 . S
C1158 C1150 1.378 . S
C1158 C1153 1.350 . S
C1159 H1146 0.929 . S
C1159 C1151 1.433 . S
C1159 N1161 1.384 . S
N1160 C1156 1.427 . S
N1160 C1157 1.384 . S
N1161 C1153 1.427 . S
N1161 C1159 1.384 . S
H1162 C1168 0.930 . S
H1163 C1172 0.930 . S
H1164 C1177 0.929 . S
H1165 C1175 0.929 . S
H1166 C1170 0.929 . S
H1167 C1176 0.929 . S
C1168 H1162 0.930 . S
C1168 C1169 1.367 . S
C1168 C1176 1.378 . S
C1169 C1168 1.367 . S
C1169 C1177 1.433 . S
C1170 H1166 0.929 . S
C1170 C1172 1.378 . S
C1170 C1174 1.350 . S
C1171 C1174 1.463 . S
C1171 C1176 1.350 . S
C1171 N1179 1.427 . S
C1172 H1163 0.930 . S
C1172 C1170 1.378 . S
C1172 C1173 1.367 . S
C1173 C1172 1.367 . S
C1173 C1175 1.433 . S
C1174 C1170 1.350 . S
C1174 C1171 1.463 . S
C1174 N1178 1.427 . S
C1175 H1165 0.929 . S
C1175 C1173 1.433 . S
C1175 N1178 1.384 . S
C1176 H1167 0.929 . S
C1176 C1168 1.378 . S
C1176 C1171 1.350 . S
C1177 H1164 0.929 . S
C1177 C1169 1.433 . S
C1177 N1179 1.384 . S
N1178 C1174 1.427 . S
N1178 C1175 1.384 . S
N1179 C1171 1.427 . S
N1179 C1177 1.384 . S
H1180 C1186 0.930 . S
H1181 C1190 0.930 . S
H1182 C1195 0.929 . S
H1183 C1193 0.929 . S
H1184 C1188 0.929 . S
H1185 C1194 0.929 . S
C1186 H1180 0.930 . S
C1186 C1187 1.367 . S
C1186 C1194 1.378 . S
C1187 C1186 1.367 . S
C1187 C1195 1.433 . S
C1188 H1184 0.929 . S
C1188 C1190 1.378 . S
C1188 C1192 1.350 . S
C1189 C1192 1.463 1_455 S
C1189 C1194 1.350 . S
C1189 N1197 1.427 . S
C1190 H1181 0.930 . S
C1190 C1188 1.378 . S
C1190 C1191 1.367 . S
C1191 C1190 1.367 . S
C1191 C1193 1.433 . S
C1192 C1188 1.350 . S
C1192 C1189 1.463 1_655 S
C1192 N1196 1.427 . S
C1193 H1183 0.929 . S
C1193 C1191 1.433 . S
C1193 N1196 1.384 . S
C1194 H1185 0.929 . S
C1194 C1186 1.378 . S
C1194 C1189 1.350 . S
C1195 H1182 0.929 . S
C1195 C1187 1.433 . S
C1195 N1197 1.384 . S
N1196 C1192 1.427 . S
N1196 C1193 1.384 . S
N1197 C1189 1.427 . S
N1197 C1195 1.384 . S
H1198 C1204 0.930 . S
H1199 C1208 0.930 . S
H1200 C1213 0.929 . S
H1201 C1211 0.929 . S
H1202 C1206 0.929 . S
H1203 C1212 0.929 . S
C1204 H1198 0.930 . S
C1204 C1205 1.367 . S
C1204 C1212 1.378 . S
C1205 C1204 1.367 . S
C1205 C1213 1.433 . S
C1206 H1202 0.929 . S
C1206 C1208 1.378 . S
C1206 C1210 1.350 . S
C1207 C1210 1.463 1_455 S
C1207 C1212 1.350 . S
C1207 N1215 1.427 1_455 S
C1208 H1199 0.930 . S
C1208 C1206 1.378 . S
C1208 C1209 1.367 . S
C1209 C1208 1.367 . S
C1209 C1211 1.433 . S
C1210 C1206 1.350 . S
C1210 C1207 1.463 1_655 S
C1210 N1214 1.427 1_655 S
C1211 H1201 0.929 . S
C1211 C1209 1.433 . S
C1211 N1214 1.384 1_655 S
C1212 H1203 0.929 . S
C1212 C1204 1.378 . S
C1212 C1207 1.350 . S
C1213 H1200 0.929 . S
C1213 C1205 1.433 . S
C1213 N1215 1.384 1_455 S
N1214 C1210 1.427 1_455 S
N1214 C1211 1.384 1_455 S
N1215 C1207 1.427 1_655 S
N1215 C1213 1.384 1_655 S
H1216 C1222 0.930 . S
H1217 C1226 0.930 . S
H1218 C1231 0.929 . S
H1219 C1229 0.929 . S
H1220 C1224 0.929 . S
H1221 C1230 0.929 . S
C1222 H1216 0.930 . S
C1222 C1223 1.367 . S
C1222 C1230 1.378 . S
C1223 C1222 1.367 . S
C1223 C1231 1.433 . S
C1224 H1220 0.929 . S
C1224 C1226 1.378 . S
C1224 C1228 1.350 . S
C1225 C1228 1.463 . S
C1225 C1230 1.350 . S
C1225 N1233 1.427 . S
C1226 H1217 0.930 . S
C1226 C1224 1.378 . S
C1226 C1227 1.367 . S
C1227 C1226 1.367 . S
C1227 C1229 1.433 . S
C1228 C1224 1.350 . S
C1228 C1225 1.463 . S
C1228 N1232 1.427 . S
C1229 H1219 0.929 . S
C1229 C1227 1.433 . S
C1229 N1232 1.384 . S
C1230 H1221 0.929 . S
C1230 C1222 1.378 . S
C1230 C1225 1.350 . S
C1231 H1218 0.929 . S
C1231 C1223 1.433 . S
C1231 N1233 1.384 . S
N1232 C1228 1.427 . S
N1232 C1229 1.384 . S
N1233 C1225 1.427 . S
N1233 C1231 1.384 . S
H1234 C1240 0.930 . S
H1235 C1244 0.930 . S
H1236 C1249 0.929 . S
H1237 C1247 0.929 . S
H1238 C1242 0.929 . S
H1239 C1248 0.929 . S
C1240 H1234 0.930 . S
C1240 C1241 1.367 . S
C1240 C1248 1.378 . S
C1241 C1240 1.367 . S
C1241 C1249 1.433 . S
C1242 H1238 0.929 . S
C1242 C1244 1.378 . S
C1242 C1246 1.350 . S
C1243 C1246 1.463 . S
C1243 C1248 1.350 . S
C1243 N1251 1.427 . S
C1244 H1235 0.930 . S
C1244 C1242 1.378 . S
C1244 C1245 1.367 . S
C1245 C1244 1.367 . S
C1245 C1247 1.433 . S
C1246 C1242 1.350 . S
C1246 C1243 1.463 . S
C1246 N1250 1.427 . S
C1247 H1237 0.929 . S
C1247 C1245 1.433 . S
C1247 N1250 1.384 . S
C1248 H1239 0.929 . S
C1248 C1240 1.378 . S
C1248 C1243 1.350 . S
C1249 H1236 0.929 . S
C1249 C1241 1.433 . S
C1249 N1251 1.384 . S
N1250 C1246 1.427 . S
N1250 C1247 1.384 . S
N1251 C1243 1.427 . S
N1251 C1249 1.384 . S
H1252 C1258 0.930 . S
H1253 C1262 0.930 . S
H1254 C1267 0.929 . S
H1255 C1265 0.929 . S
H1256 C1260 0.929 . S
H1257 C1266 0.929 . S
C1258 H1252 0.930 . S
C1258 C1259 1.367 . S
C1258 C1266 1.378 . S
C1259 C1258 1.367 . S
C1259 C1267 1.433 . S
C1260 H1256 0.929 . S
C1260 C1262 1.378 . S
C1260 C1264 1.350 . S
C1261 C1264 1.463 . S
C1261 C1266 1.350 . S
C1261 N1269 1.427 . S
C1262 H1253 0.930 . S
C1262 C1260 1.378 . S
C1262 C1263 1.367 . S
C1263 C1262 1.367 . S
C1263 C1265 1.433 . S
C1264 C1260 1.350 . S
C1264 C1261 1.463 . S
C1264 N1268 1.427 . S
C1265 H1255 0.929 . S
C1265 C1263 1.433 . S
C1265 N1268 1.384 . S
C1266 H1257 0.929 . S
C1266 C1258 1.378 . S
C1266 C1261 1.350 . S
C1267 H1254 0.929 . S
C1267 C1259 1.433 . S
C1267 N1269 1.384 . S
N1268 C1264 1.427 . S
N1268 C1265 1.384 . S
N1269 C1261 1.427 . S
N1269 C1267 1.384 . S
H1270 C1276 0.930 . S
H1271 C1280 0.930 . S
H1272 C1285 0.919 1_655 S
H1273 C1283 0.929 . S
H1274 C1278 0.929 . S
H1275 C1284 0.929 . S
C1276 H1270 0.930 . S
C1276 C1277 1.367 1_455 S
C1276 C1284 1.378 . S
C1277 C1276 1.367 1_655 S
C1277 C1285 1.430 1_655 S
C1278 H1274 0.929 . S
C1278 C1280 1.378 . S
C1278 C1282 1.350 . S
C1279 C1282 1.463 . S
C1279 C1284 1.350 . S
C1279 N1287 1.427 . S
C1280 H1271 0.930 . S
C1280 C1278 1.378 . S
C1280 C1281 1.367 . S
C1281 C1280 1.367 . S
C1281 C1283 1.433 . S
C1282 C1278 1.350 . S
C1282 C1279 1.463 . S
C1282 N1286 1.427 . S
C1283 H1273 0.929 . S
C1283 C1281 1.433 . S
C1283 N1286 1.384 . S
C1284 H1275 0.929 . S
C1284 C1276 1.378 . S
C1284 C1279 1.350 . S
C1285 H1272 0.919 1_455 S
C1285 C1277 1.430 1_455 S
C1285 N1287 1.397 . S
N1286 C1282 1.427 . S
N1286 C1283 1.384 . S
N1287 C1279 1.427 . S
N1287 C1285 1.397 . S
H1288 C1294 0.930 . S
H1289 C1298 0.930 . S
H1290 C1303 0.929 . S
H1291 C1301 0.929 . S
H1292 C1296 0.929 . S
H1293 C1302 0.929 . S
C1294 H1288 0.930 . S
C1294 C1295 1.367 . S
C1294 C1302 1.378 . S
C1295 C1294 1.367 . S
C1295 C1303 1.433 . S
C1296 H1292 0.929 . S
C1296 C1298 1.378 . S
C1296 C1300 1.350 . S
C1297 C1300 1.463 . S
C1297 C1302 1.350 . S
C1297 N1305 1.427 . S
C1298 H1289 0.930 . S
C1298 C1296 1.378 . S
C1298 C1299 1.367 . S
C1299 C1298 1.367 . S
C1299 C1301 1.433 . S
C1300 C1296 1.350 . S
C1300 C1297 1.463 . S
C1300 N1304 1.427 . S
C1301 H1291 0.929 . S
C1301 C1299 1.433 . S
C1301 N1304 1.384 . S
C1302 H1293 0.929 . S
C1302 C1294 1.378 . S
C1302 C1297 1.350 . S
C1303 H1290 0.929 . S
C1303 C1295 1.433 . S
C1303 N1305 1.384 . S
N1304 C1300 1.427 . S
N1304 C1301 1.384 . S
N1305 C1297 1.427 . S
N1305 C1303 1.384 . S
H1306 C1312 0.930 . S
H1307 C1316 0.930 . S
H1308 C1321 0.929 . S
H1309 C1319 0.929 . S
H1310 C1314 0.929 . S
H1311 C1320 0.929 . S
C1312 H1306 0.930 . S
C1312 C1313 1.367 . S
C1312 C1320 1.378 . S
C1313 C1312 1.367 . S
C1313 C1321 1.433 . S
C1314 H1310 0.929 . S
C1314 C1316 1.378 . S
C1314 C1318 1.350 . S
C1315 C1318 1.463 . S
C1315 C1320 1.350 . S
C1315 N1323 1.427 . S
C1316 H1307 0.930 . S
C1316 C1314 1.378 . S
C1316 C1317 1.367 . S
C1317 C1316 1.367 . S
C1317 C1319 1.433 . S
C1318 C1314 1.350 . S
C1318 C1315 1.463 . S
C1318 N1322 1.427 . S
C1319 H1309 0.929 . S
C1319 C1317 1.433 . S
C1319 N1322 1.384 . S
C1320 H1311 0.929 . S
C1320 C1312 1.378 . S
C1320 C1315 1.350 . S
C1321 H1308 0.929 . S
C1321 C1313 1.433 . S
C1321 N1323 1.384 . S
N1322 C1318 1.427 . S
N1322 C1319 1.384 . S
N1323 C1315 1.427 . S
N1323 C1321 1.384 . S
H1324 C1330 0.930 . S
H1325 C1334 0.930 . S
H1326 C1339 0.929 . S
H1327 C1337 0.929 . S
H1328 C1332 0.929 . S
H1329 C1338 0.929 . S
C1330 H1324 0.930 . S
C1330 C1331 1.367 . S
C1330 C1338 1.378 . S
C1331 C1330 1.367 . S
C1331 C1339 1.433 . S
C1332 H1328 0.929 . S
C1332 C1334 1.378 . S
C1332 C1336 1.350 . S
C1333 C1336 1.463 . S
C1333 C1338 1.350 . S
C1333 N1341 1.427 . S
C1334 H1325 0.930 . S
C1334 C1332 1.378 . S
C1334 C1335 1.367 . S
C1335 C1334 1.367 . S
C1335 C1337 1.433 . S
C1336 C1332 1.350 . S
C1336 C1333 1.463 . S
C1336 N1340 1.427 . S
C1337 H1327 0.929 . S
C1337 C1335 1.433 . S
C1337 N1340 1.384 . S
C1338 H1329 0.929 . S
C1338 C1330 1.378 . S
C1338 C1333 1.350 . S
C1339 H1326 0.929 . S
C1339 C1331 1.433 . S
C1339 N1341 1.384 . S
N1340 C1336 1.427 . S
N1340 C1337 1.384 . S
N1341 C1333 1.427 . S
N1341 C1339 1.384 . S
H1342 C1348 0.930 . S
H1343 C1352 0.930 . S
H1344 C1357 0.929 . S
H1345 C1355 0.929 1_455 S
H1346 C1350 0.929 . S
H1347 C1356 0.929 . S
C1348 H1342 0.930 . S
C1348 C1349 1.367 . S
C1348 C1356 1.378 . S
C1349 C1348 1.367 . S
C1349 C1357 1.433 . S
C1350 H1346 0.929 . S
C1350 C1352 1.378 . S
C1350 C1354 1.350 . S
C1351 C1354 1.463 . S
C1351 C1356 1.350 . S
C1351 N1359 1.427 . S
C1352 H1343 0.930 . S
C1352 C1350 1.378 . S
C1352 C1353 1.367 1_655 S
C1353 C1352 1.367 1_455 S
C1353 C1355 1.433 1_455 S
C1354 C1350 1.350 . S
C1354 C1351 1.463 . S
C1354 N1358 1.427 . S
C1355 H1345 0.929 1_655 S
C1355 C1353 1.433 1_655 S
C1355 N1358 1.384 . S
C1356 H1347 0.929 . S
C1356 C1348 1.378 . S
C1356 C1351 1.350 . S
C1357 H1344 0.929 . S
C1357 C1349 1.433 . S
C1357 N1359 1.384 . S
N1358 C1354 1.427 . S
N1358 C1355 1.384 . S
N1359 C1351 1.427 . S
N1359 C1357 1.384 . S
H1360 C1366 0.930 . S
H1361 C1370 0.930 . S
H1362 C1375 0.929 . S
H1363 C1373 0.929 . S
H1364 C1368 0.929 . S
H1365 C1374 0.929 . S
C1366 H1360 0.930 . S
C1366 C1367 1.367 . S
C1366 C1374 1.378 . S
C1367 C1366 1.367 . S
C1367 C1375 1.433 . S
C1368 H1364 0.929 . S
C1368 C1370 1.378 . S
C1368 C1372 1.350 . S
C1369 C1372 1.463 . S
C1369 C1374 1.350 . S
C1369 N1377 1.427 . S
C1370 H1361 0.930 . S
C1370 C1368 1.378 . S
C1370 C1371 1.367 . S
C1371 C1370 1.367 . S
C1371 C1373 1.433 . S
C1372 C1368 1.350 . S
C1372 C1369 1.463 . S
C1372 N1376 1.427 . S
C1373 H1363 0.929 . S
C1373 C1371 1.433 . S
C1373 N1376 1.384 . S
C1374 H1365 0.929 . S
C1374 C1366 1.378 . S
C1374 C1369 1.350 . S
C1375 H1362 0.929 . S
C1375 C1367 1.433 . S
C1375 N1377 1.384 . S
N1376 C1372 1.427 . S
N1376 C1373 1.384 . S
N1377 C1369 1.427 . S
N1377 C1375 1.384 . S
H1378 C1384 0.930 . S
H1379 C1388 0.930 1_455 S
H1380 C1393 0.929 . S
H1381 C1391 0.929 1_545 S
H1382 C1386 0.929 . S
H1383 C1392 0.929 . S
C1384 H1378 0.930 . S
C1384 C1385 1.367 . S
C1384 C1392 1.378 . S
C1385 C1384 1.367 . S
C1385 C1393 1.433 . S
C1386 H1382 0.929 . S
C1386 C1388 1.378 . S
C1386 C1390 1.350 . S
C1387 C1390 1.463 . S
C1387 C1392 1.350 . S
C1387 N1395 1.427 . S
C1388 H1379 0.930 1_655 S
C1388 C1386 1.378 . S
C1388 C1389 1.367 1_655 S
C1389 C1388 1.367 1_455 S
C1389 C1391 1.433 1_455 S
C1390 C1386 1.350 . S
C1390 C1387 1.463 . S
C1390 N1394 1.427 . S
C1391 H1381 0.929 1_565 S
C1391 C1389 1.433 1_655 S
C1391 N1394 1.384 . S
C1392 H1383 0.929 . S
C1392 C1384 1.378 . S
C1392 C1387 1.350 . S
C1393 H1380 0.929 . S
C1393 C1385 1.433 . S
C1393 N1395 1.384 . S
N1394 C1390 1.427 . S
N1394 C1391 1.384 . S
N1395 C1387 1.427 . S
N1395 C1393 1.384 . S
H1396 C1402 0.930 . S
H1397 C1406 0.930 . S
H1398 C1411 0.929 . S
H1399 C1409 0.929 . S
H1400 C1404 0.929 . S
H1401 C1410 0.929 . S
C1402 H1396 0.930 . S
C1402 C1403 1.367 . S
C1402 C1410 1.378 . S
C1403 C1402 1.367 . S
C1403 C1411 1.433 . S
C1404 H1400 0.929 . S
C1404 C1406 1.378 . S
C1404 C1408 1.350 . S
C1405 C1408 1.463 . S
C1405 C1410 1.350 . S
C1405 N1413 1.427 . S
C1406 H1397 0.930 . S
C1406 C1404 1.378 . S
C1406 C1407 1.367 . S
C1407 C1406 1.367 . S
C1407 C1409 1.433 . S
C1408 C1404 1.350 . S
C1408 C1405 1.463 . S
C1408 N1412 1.427 . S
C1409 H1399 0.929 . S
C1409 C1407 1.433 . S
C1409 N1412 1.384 . S
C1410 H1401 0.929 . S
C1410 C1402 1.378 . S
C1410 C1405 1.350 . S
C1411 H1398 0.929 . S
C1411 C1403 1.433 . S
C1411 N1413 1.384 . S
N1412 C1408 1.427 . S
N1412 C1409 1.384 . S
N1413 C1405 1.427 . S
N1413 C1411 1.384 . S
H1414 C1420 0.925 1_565 S
H1415 C1424 0.930 . S
H1416 C1429 0.929 . S
H1417 C1427 0.929 . S
H1418 C1422 0.929 . S
H1419 C1428 0.915 1_565 S
C1420 H1414 0.925 1_545 S
C1420 C1421 1.370 . S
C1420 C1428 1.380 . S
C1421 C1420 1.370 . S
C1421 C1429 1.433 . S
C1422 H1418 0.929 . S
C1422 C1424 1.378 . S
C1422 C1426 1.350 . S
C1423 C1426 1.463 . S
C1423 C1428 1.350 . S
C1423 N1431 1.427 . S
C1424 H1415 0.930 . S
C1424 C1422 1.378 . S
C1424 C1425 1.367 . S
C1425 C1424 1.367 . S
C1425 C1427 1.433 . S
C1426 C1422 1.350 . S
C1426 C1423 1.463 . S
C1426 N1430 1.427 . S
C1427 H1417 0.929 . S
C1427 C1425 1.433 . S
C1427 N1430 1.384 . S
C1428 H1419 0.915 1_545 S
C1428 C1420 1.380 . S
C1428 C1423 1.350 . S
C1429 H1416 0.929 . S
C1429 C1421 1.433 . S
C1429 N1431 1.384 . S
N1430 C1426 1.427 . S
N1430 C1427 1.384 . S
N1431 C1423 1.427 . S
N1431 C1429 1.384 . S
H1432 C1438 0.930 . S
H1433 C1442 0.930 . S
H1434 C1447 0.929 . S
H1435 C1445 0.929 . S
H1436 C1440 0.929 . S
H1437 C1446 0.929 . S
C1438 H1432 0.930 . S
C1438 C1439 1.367 . S
C1438 C1446 1.378 . S
C1439 C1438 1.367 . S
C1439 C1447 1.433 . S
C1440 H1436 0.929 . S
C1440 C1442 1.378 . S
C1440 C1444 1.350 . S
C1441 C1444 1.463 . S
C1441 C1446 1.350 . S
C1441 N1449 1.427 . S
C1442 H1433 0.930 . S
C1442 C1440 1.378 . S
C1442 C1443 1.367 . S
C1443 C1442 1.367 . S
C1443 C1445 1.433 . S
C1444 C1440 1.350 . S
C1444 C1441 1.463 . S
C1444 N1448 1.427 . S
C1445 H1435 0.929 . S
C1445 C1443 1.433 . S
C1445 N1448 1.384 . S
C1446 H1437 0.929 . S
C1446 C1438 1.378 . S
C1446 C1441 1.350 . S
C1447 H1434 0.929 . S
C1447 C1439 1.433 . S
C1447 N1449 1.384 . S
N1448 C1444 1.427 . S
N1448 C1445 1.384 . S
N1449 C1441 1.427 . S
N1449 C1447 1.384 . S
H1450 C1456 0.930 1_565 S
H1451 C1460 0.930 . S
H1452 C1465 0.929 1_655 S
H1453 C1463 0.929 . S
H1454 C1458 0.929 . S
H1455 C1464 0.929 . S
C1456 H1450 0.930 1_545 S
C1456 C1457 1.367 1_455 S
C1456 C1464 1.378 . S
C1457 C1456 1.367 1_655 S
C1457 C1465 1.433 1_655 S
C1458 H1454 0.929 . S
C1458 C1460 1.378 . S
C1458 C1462 1.350 . S
C1459 C1462 1.463 . S
C1459 C1464 1.350 . S
C1459 N1467 1.427 . S
C1460 H1451 0.930 . S
C1460 C1458 1.378 . S
C1460 C1461 1.367 . S
C1461 C1460 1.367 . S
C1461 C1463 1.433 . S
C1462 C1458 1.350 . S
C1462 C1459 1.463 . S
C1462 N1466 1.427 . S
C1463 H1453 0.929 . S
C1463 C1461 1.433 . S
C1463 N1466 1.384 . S
C1464 H1455 0.929 . S
C1464 C1456 1.378 . S
C1464 C1459 1.350 . S
C1465 H1452 0.929 1_455 S
C1465 C1457 1.433 1_455 S
C1465 N1467 1.384 . S
N1466 C1462 1.427 . S
N1466 C1463 1.384 . S
N1467 C1459 1.427 . S
N1467 C1465 1.384 . S
H1468 C1474 0.930 . S
H1469 C1478 0.930 . S
H1470 C1483 0.929 . S
H1471 C1481 0.929 . S
H1472 C1476 0.929 . S
H1473 C1482 0.929 . S
C1474 H1468 0.930 . S
C1474 C1475 1.367 . S
C1474 C1482 1.378 . S
C1475 C1474 1.367 . S
C1475 C1483 1.433 . S
C1476 H1472 0.929 . S
C1476 C1478 1.378 . S
C1476 C1480 1.350 . S
C1477 C1480 1.463 . S
C1477 C1482 1.350 . S
C1477 N1485 1.427 . S
C1478 H1469 0.930 . S
C1478 C1476 1.378 . S
C1478 C1479 1.367 . S
C1479 C1478 1.367 . S
C1479 C1481 1.433 . S
C1480 C1476 1.350 . S
C1480 C1477 1.463 . S
C1480 N1484 1.427 . S
C1481 H1471 0.929 . S
C1481 C1479 1.433 . S
C1481 N1484 1.384 . S
C1482 H1473 0.929 . S
C1482 C1474 1.378 . S
C1482 C1477 1.350 . S
C1483 H1470 0.929 . S
C1483 C1475 1.433 . S
C1483 N1485 1.384 . S
N1484 C1480 1.427 . S
N1484 C1481 1.384 . S
N1485 C1477 1.427 . S
N1485 C1483 1.384 . S
H1486 C1492 0.930 . S
H1487 C1496 0.930 . S
H1488 C1501 0.929 . S
H1489 C1499 0.929 . S
H1490 C1494 0.929 . S
H1491 C1500 0.929 . S
C1492 H1486 0.930 . S
C1492 C1493 1.367 . S
C1492 C1500 1.378 . S
C1493 C1492 1.367 . S
C1493 C1501 1.433 . S
C1494 H1490 0.929 . S
C1494 C1496 1.378 . S
C1494 C1498 1.350 . S
C1495 C1498 1.463 . S
C1495 C1500 1.350 . S
C1495 N1503 1.427 . S
C1496 H1487 0.930 . S
C1496 C1494 1.378 . S
C1496 C1497 1.367 . S
C1497 C1496 1.367 . S
C1497 C1499 1.433 . S
C1498 C1494 1.350 . S
C1498 C1495 1.463 . S
C1498 N1502 1.427 . S
C1499 H1489 0.929 . S
C1499 C1497 1.433 . S
C1499 N1502 1.384 . S
C1500 H1491 0.929 . S
C1500 C1492 1.378 . S
C1500 C1495 1.350 . S
C1501 H1488 0.929 . S
C1501 C1493 1.433 . S
C1501 N1503 1.384 . S
N1502 C1498 1.427 . S
N1502 C1499 1.384 . S
N1503 C1495 1.427 . S
N1503 C1501 1.384 . S
C647 C26 0.985 . S
C651 C497 0.985 . S
C665 C217 0.990 . S
C669 C66 0.990 . S
C683 C106 0.981 . S
C687 C577 0.981 . S
C701 C146 0.991 . S
C705 C297 0.991 . S
C719 C177 0.993 . S
C723 C346 0.993 . S
C737 C426 0.980 . S
C741 C257 0.980 . S
C755 C537 0.973 . S
C759 C386 0.973 . S
C773 C466 0.993 . S
C777 C617 0.993 . S
C791 C383 2.167 . S
C795 C17 2.126 . S
C809 C57 2.134 . S
C813 C423 2.166 . S
C827 C97 2.129 . S
C831 C463 2.162 . S
C845 C343 2.161 . S
C849 C137 2.127 . S
C863 C522 2.160 . S
C867 C186 2.124 . S
C881 C562 2.166 . S
C885 C226 2.134 . S
C899 C266 2.124 . S
C903 C602 2.165 . S
C917 C482 2.167 . S
C921 C306 2.134 . S
C935 C337 2.125 . S
C939 C63 2.160 . S
C953 C377 2.132 . S
C957 C103 2.164 . S
C971 C417 2.125 . S
C975 C143 2.160 . S
C989 C23 2.160 . S
C993 C457 2.124 . S
C1007 C202 2.170 . S
C1011 C506 2.135 . S
C1025 C546 2.132 . S
C1029 C242 2.170 . S
C1043 C282 2.170 . S
C1047 C586 2.133 . S
C1061 C626 2.132 . S
C1065 C162 2.170 . S
C1079 C13 3.087 . S
C1083 C413 3.085 . S
C1097 C53 3.084 . S
C1101 C453 3.087 . S
C1115 C333 3.087 . S
C1119 C93 3.084 . S
C1133 C133 3.084 . S
C1137 C373 3.087 . S
C1151 C184 3.086 . S
C1155 C584 3.084 . S
C1169 C224 3.085 . S
C1173 C624 3.087 . S
C1187 C504 3.084 . S
C1191 C264 3.087 . S
C1205 C304 3.087 . S
C1209 C544 3.085 . S
C1223 C2 1.658 . S
C1227 C293 1.896 . S
C1241 C493 1.890 . S
C1245 C42 1.642 . S
C1259 C82 1.647 . S
C1263 C213 1.893 . S
C1277 C122 1.647 . S
C1281 C573 1.892 . S
C1295 C183 1.665 . S
C1299 C144 1.900 . S
C1313 C344 1.896 . S
C1317 C223 1.661 . S
C1331 C263 1.644 . S
C1335 C64 1.890 . S
C1349 C424 1.891 . S
C1353 C303 1.644 . S
C1367 C322 1.646 . S
C1371 C613 1.893 . S
C1385 C173 1.897 . S
C1389 C362 1.663 . S
C1403 C533 1.891 . S
C1407 C402 1.645 . S
C1421 C442 1.650 . S
C1425 C253 1.894 . S
C1439 C503 1.654 . S
C1443 C464 1.896 . S
C1457 C543 1.645 . S
C1461 C24 1.892 . S
C1475 C384 1.890 . S
C1479 C583 1.644 . S
C1493 C104 1.898 . S
C1497 C623 1.665 . S
