# Generated by pormake.
# Topology wme, (6)-cn, num edge types: 1
# Building blocks:
#     Node 0, Type 0, BuildingBlock: JUFBIX_clean_sbu_0, # of connection points: 6
#     Node 1, Type 0, BuildingBlock: JUFBIX_clean_sbu_0, # of connection points: 6
#     Node 2, Type 0, BuildingBlock: JUFBIX_clean_sbu_0, # of connection points: 6
#     Node 3, Type 0, BuildingBlock: JUFBIX_clean_sbu_0, # of connection points: 6
#     Node 4, Type 0, BuildingBlock: JUFBIX_clean_sbu_0, # of connection points: 6
#     Node 5, Type 0, BuildingBlock: JUFBIX_clean_sbu_0, # of connection points: 6
#     Node 6, Type 0, BuildingBlock: JUFBIX_clean_sbu_0, # of connection points: 6
#     Node 7, Type 0, BuildingBlock: JUFBIX_clean_sbu_0, # of connection points: 6
#     Node 8, Type 0, BuildingBlock: JUFBIX_clean_sbu_0, # of connection points: 6
#     Node 9, Type 0, BuildingBlock: JUFBIX_clean_sbu_0, # of connection points: 6
#     Node 10, Type 0, BuildingBlock: JUFBIX_clean_sbu_0, # of connection points: 6
#     Node 11, Type 0, BuildingBlock: JUFBIX_clean_sbu_0, # of connection points: 6
#     Edge 12, Type (0, 0), BuildingBlock: TEMPAE_clean_linker_10, # of connection points: 2
#     Edge 13, Type (0, 0), BuildingBlock: TEMPAE_clean_linker_10, # of connection points: 2
#     Edge 14, Type (0, 0), BuildingBlock: TEMPAE_clean_linker_10, # of connection points: 2
#     Edge 15, Type (0, 0), BuildingBlock: TEMPAE_clean_linker_10, # of connection points: 2
#     Edge 16, Type (0, 0), BuildingBlock: TEMPAE_clean_linker_10, # of connection points: 2
#     Edge 17, Type (0, 0), BuildingBlock: TEMPAE_clean_linker_10, # of connection points: 2
#     Edge 18, Type (0, 0), BuildingBlock: TEMPAE_clean_linker_10, # of connection points: 2
#     Edge 19, Type (0, 0), BuildingBlock: TEMPAE_clean_linker_10, # of connection points: 2
#     Edge 20, Type (0, 0), BuildingBlock: TEMPAE_clean_linker_10, # of connection points: 2
#     Edge 21, Type (0, 0), BuildingBlock: TEMPAE_clean_linker_10, # of connection points: 2
#     Edge 22, Type (0, 0), BuildingBlock: TEMPAE_clean_linker_10, # of connection points: 2
#     Edge 23, Type (0, 0), BuildingBlock: TEMPAE_clean_linker_10, # of connection points: 2
#     Edge 24, Type (0, 0), BuildingBlock: TEMPAE_clean_linker_10, # of connection points: 2
#     Edge 25, Type (0, 0), BuildingBlock: TEMPAE_clean_linker_10, # of connection points: 2
#     Edge 26, Type (0, 0), BuildingBlock: TEMPAE_clean_linker_10, # of connection points: 2
#     Edge 27, Type (0, 0), BuildingBlock: TEMPAE_clean_linker_10, # of connection points: 2
#     Edge 28, Type (0, 0), BuildingBlock: TEMPAE_clean_linker_10, # of connection points: 2
#     Edge 29, Type (0, 0), BuildingBlock: TEMPAE_clean_linker_10, # of connection points: 2
#     Edge 30, Type (0, 0), BuildingBlock: TEMPAE_clean_linker_10, # of connection points: 2
#     Edge 31, Type (0, 0), BuildingBlock: TEMPAE_clean_linker_10, # of connection points: 2
#     Edge 32, Type (0, 0), BuildingBlock: TEMPAE_clean_linker_10, # of connection points: 2
#     Edge 33, Type (0, 0), BuildingBlock: TEMPAE_clean_linker_10, # of connection points: 2
#     Edge 34, Type (0, 0), BuildingBlock: TEMPAE_clean_linker_10, # of connection points: 2
#     Edge 35, Type (0, 0), BuildingBlock: TEMPAE_clean_linker_10, # of connection points: 2
#     Edge 36, Type (0, 0), BuildingBlock: TEMPAE_clean_linker_10, # of connection points: 2
#     Edge 37, Type (0, 0), BuildingBlock: TEMPAE_clean_linker_10, # of connection points: 2
#     Edge 38, Type (0, 0), BuildingBlock: TEMPAE_clean_linker_10, # of connection points: 2
#     Edge 39, Type (0, 0), BuildingBlock: TEMPAE_clean_linker_10, # of connection points: 2
#     Edge 40, Type (0, 0), BuildingBlock: TEMPAE_clean_linker_10, # of connection points: 2
#     Edge 41, Type (0, 0), BuildingBlock: TEMPAE_clean_linker_10, # of connection points: 2
#     Edge 42, Type (0, 0), BuildingBlock: TEMPAE_clean_linker_10, # of connection points: 2
#     Edge 43, Type (0, 0), BuildingBlock: TEMPAE_clean_linker_10, # of connection points: 2
#     Edge 44, Type (0, 0), BuildingBlock: TEMPAE_clean_linker_10, # of connection points: 2
#     Edge 45, Type (0, 0), BuildingBlock: TEMPAE_clean_linker_10, # of connection points: 2
#     Edge 46, Type (0, 0), BuildingBlock: TEMPAE_clean_linker_10, # of connection points: 2
#     Edge 47, Type (0, 0), BuildingBlock: TEMPAE_clean_linker_10, # of connection points: 2
# Relax obj value: 0.306
# Max RMSD: 0.231
# Mean RMSD: 0.231
data_MOF--net-wme--node1-JUFBIX_clean_sbu_0--edge1-TEMPAE_clean_linker_10
_symmetry_space_group_name_H-M    P1
_symmetry_Int_Tables_number       1
_symmetry_cell_setting            triclinic
loop_
_symmetry_equiv_pos_as_xyz
'x, y, z'
_cell_length_a     33.44561
_cell_length_b     33.675712
_cell_length_c     55.895866
_cell_angle_alpha  89.925287
_cell_angle_beta   90.10888
_cell_angle_gamma 119.96438
loop_
_atom_site_label
_atom_site_type_symbol
_atom_site_fract_x
_atom_site_fract_y
_atom_site_fract_z
_atom_type_partial_charge
Co0 Co 0.16677 0.33254 0.11695 0.0
C1 C 0.18826 0.28374 0.08418 0.0
Co2 Co 0.19465 0.29243 0.13407 0.0
C3 C 0.14646 0.40609 0.1126 0.0
C4 C 0.11734 0.35784 0.08394 0.0
N5 N 0.14446 0.36804 0.10348 0.0
N6 N 0.12118 0.41972 0.09975 0.0
C7 C 0.10311 0.38956 0.08157 0.0
H8 H 0.16534 0.42291 0.12869 0.0
H9 H 0.10683 0.32804 0.07276 0.0
C10 C 0.17506 0.34014 0.16712 0.0
N11 N 0.21382 0.25459 0.14751 0.0
C12 C 0.19431 0.20983 0.14196 0.0
C13 C 0.24164 0.26055 0.16628 0.0
N14 N 0.20751 0.18695 0.15679 0.0
C15 C 0.23793 0.21886 0.17201 0.0
C16 C 0.26254 0.37926 0.12162 0.0
O17 O 0.16083 0.35218 0.14885 0.0
O18 O 0.19188 0.31409 0.16448 0.0
O19 O 0.25696 0.34211 0.13081 0.0
O20 O 0.22754 0.38165 0.11478 0.0
O21 O 0.19825 0.27073 0.10345 0.0
H22 H 0.26131 0.2924 0.17595 0.0
H23 H 0.16941 0.19404 0.12768 0.0
O24 O 0.17328 0.31186 0.08544 0.0
O25 O 0.10618 0.28411 0.1192 0.0
O26 O 0.13144 0.24364 0.13757 0.0
C27 C 0.09784 0.24768 0.12991 0.0
H28 H 0.07956 0.38914 0.06813 0.0
H29 H 0.25445 0.21223 0.18692 0.0
Co30 Co 0.88597 0.18188 0.63216 0.0
C31 C 0.87143 0.20044 0.6786 0.0
Co32 Co 0.91052 0.25528 0.63815 0.0
C33 C 0.86997 0.0884 0.63777 0.0
C34 C 0.84157 0.09964 0.60581 0.0
N35 N 0.86565 0.12087 0.62571 0.0
N36 N 0.84973 0.04797 0.62592 0.0
C37 C 0.83176 0.05507 0.60589 0.0
H38 H 0.88819 0.0945 0.6546 0.0
H39 H 0.8317 0.11567 0.59202 0.0
C40 C 0.92862 0.2376 0.59223 0.0
N41 N 0.92897 0.31676 0.64302 0.0
C42 C 0.90052 0.33429 0.64452 0.0
C43 C 0.97147 0.35366 0.64031 0.0
N44 N 0.92302 0.38011 0.64194 0.0
C45 C 0.96788 0.39274 0.63966 0.0
C46 C 0.97668 0.23148 0.6475 0.0
O47 O 0.9068 0.19646 0.59965 0.0
O48 O 0.93321 0.2694 0.60616 0.0
O49 O 0.96912 0.26494 0.64811 0.0
O50 O 0.94466 0.19218 0.64089 0.0
O51 O 0.88886 0.24104 0.67035 0.0
H52 H 0.00245 0.35205 0.63688 0.0
H53 H 0.86335 0.31384 0.64575 0.0
O54 O 0.86658 0.16832 0.66472 0.0
O55 O 0.82698 0.17146 0.6238 0.0
O56 O 0.85111 0.24422 0.62801 0.0
C57 C 0.81867 0.20416 0.62332 0.0
H58 H 0.81247 0.02966 0.59233 0.0
H59 H 0.99534 0.42707 0.63556 0.0
Co60 Co 0.62793 0.82136 0.12442 0.0
C61 C 0.66898 0.89276 0.09222 0.0
Co62 Co 0.66411 0.88851 0.14242 0.0
C63 C 0.55834 0.72536 0.12019 0.0
C64 C 0.60415 0.74941 0.09023 0.0
N65 N 0.59454 0.76339 0.11092 0.0
N66 N 0.54515 0.68808 0.10619 0.0
C67 C 0.57387 0.70337 0.08723 0.0
H68 H 0.54292 0.72485 0.13726 0.0
H69 H 0.63206 0.77108 0.07829 0.0
C70 C 0.6241 0.82012 0.17509 0.0
N71 N 0.70051 0.94634 0.15529 0.0
C72 C 0.74381 0.97442 0.14752 0.0
C73 C 0.69478 0.96891 0.17367 0.0
N74 N 0.76574 0.01361 0.16009 0.0
C75 C 0.73512 0.01043 0.17675 0.0
C76 C 0.57492 0.86328 0.13153 0.0
O77 O 0.61364 0.79493 0.15648 0.0
O78 O 0.64558 0.86333 0.17283 0.0
O79 O 0.61162 0.89656 0.14028 0.0
O80 O 0.57502 0.82741 0.12453 0.0
O81 O 0.68248 0.91442 0.11176 0.0
H82 H 0.66386 0.95568 0.18441 0.0
H83 H 0.7597 0.96529 0.13334 0.0
O84 O 0.64325 0.84936 0.09291 0.0
O85 O 0.68044 0.81519 0.12421 0.0
O86 O 0.71585 0.87878 0.14481 0.0
C87 C 0.71579 0.84441 0.13548 0.0
H88 H 0.57321 0.6829 0.07217 0.0
H89 H 0.74142 0.03599 0.19021 0.0
Co90 Co 0.85417 0.69077 0.6194 0.0
C91 C 0.83383 0.65262 0.66527 0.0
Co92 Co 0.77959 0.65149 0.62758 0.0
C93 C 0.95223 0.75631 0.62511 0.0
C94 C 0.93582 0.71821 0.59243 0.0
N95 N 0.9166 0.7234 0.61251 0.0
N96 N 0.99286 0.77194 0.61355 0.0
C97 C 0.98252 0.74785 0.59302 0.0
H98 H 0.94822 0.76936 0.64209 0.0
H99 H 0.91695 0.69453 0.57813 0.0
C100 C 0.7992 0.69235 0.58246 0.0
N101 N 0.71646 0.6166 0.63322 0.0
C102 C 0.69269 0.57105 0.63766 0.0
C103 C 0.68399 0.62744 0.62719 0.0
N104 N 0.64707 0.55285 0.6339 0.0
C105 C 0.64134 0.58812 0.62725 0.0
C106 C 0.8202 0.74296 0.63972 0.0
O107 O 0.84079 0.70546 0.58815 0.0
O108 O 0.76708 0.66674 0.59674 0.0
O109 O 0.78179 0.70545 0.63985 0.0
O110 O 0.85596 0.74363 0.63152 0.0
O111 O 0.79241 0.63756 0.65845 0.0
H112 H 0.6913 0.66071 0.62074 0.0
H113 H 0.70885 0.55063 0.64103 0.0
O114 O 0.86676 0.67672 0.65089 0.0
O115 O 0.85237 0.63762 0.60763 0.0
O116 O 0.77874 0.59794 0.61552 0.0
C117 C 0.81537 0.5994 0.60831 0.0
H118 H 0.00695 0.75146 0.57932 0.0
H119 H 0.60927 0.58497 0.62092 0.0
Co120 Co 0.13432 0.79339 0.12385 0.0
C121 C 0.06319 0.76562 0.0911 0.0
Co122 Co 0.06631 0.76015 0.14114 0.0
C123 C 0.22967 0.8183 0.12026 0.0
C124 C 0.20843 0.84316 0.09043 0.0
N125 N 0.19271 0.81851 0.11072 0.0
N126 N 0.26812 0.84211 0.1069 0.0
C127 C 0.25463 0.85756 0.08799 0.0
H128 H 0.22841 0.80183 0.13708 0.0
H129 H 0.18783 0.85081 0.07838 0.0
C130 C 0.13485 0.78696 0.17423 0.0
N131 N 0.00839 0.73773 0.15431 0.0
C132 C 0.98098 0.75453 0.14786 0.0
C133 C 0.9879 0.71161 0.17373 0.0
N134 N 0.94507 0.74165 0.16275 0.0
C135 C 0.94861 0.71384 0.17894 0.0
C136 C 0.09302 0.69823 0.12976 0.0
O137 O 0.16049 0.80412 0.15592 0.0
O138 O 0.09147 0.76456 0.17163 0.0
O139 O 0.05822 0.69997 0.13775 0.0
O140 O 0.12882 0.73507 0.12343 0.0
O141 O 0.0404 0.75504 0.11042 0.0
H142 H 0.00215 0.69469 0.18431 0.0
H143 H 0.98878 0.77807 0.13309 0.0
O144 O 0.10677 0.78251 0.09224 0.0
O145 O 0.14025 0.85141 0.12422 0.0
O146 O 0.0761 0.82151 0.14471 0.0
C147 C 0.11037 0.85643 0.13553 0.0
H148 H 0.27635 0.87779 0.07333 0.0
H149 H 0.92628 0.69874 0.19426 0.0
Co150 Co 0.32566 0.15208 0.61963 0.0
C151 C 0.3593 0.16912 0.66638 0.0
Co152 Co 0.37541 0.12896 0.62725 0.0
C153 C 0.27709 0.20303 0.62322 0.0
C154 C 0.24777 0.14925 0.59717 0.0
N155 N 0.28247 0.16954 0.61318 0.0
N156 N 0.24059 0.20451 0.6139 0.0
C157 C 0.22218 0.17072 0.59752 0.0
H158 H 0.2989 0.2253 0.63735 0.0
H159 H 0.24045 0.11968 0.58644 0.0
C160 C 0.33988 0.10821 0.58115 0.0
N161 N 0.41839 0.1105 0.63258 0.0
C162 C 0.46419 0.13714 0.63646 0.0
C163 C 0.41212 0.06838 0.62807 0.0
N164 N 0.48655 0.11344 0.63413 0.0
C165 C 0.45411 0.07024 0.62877 0.0
C166 C 0.28498 0.06266 0.63618 0.0
O167 O 0.31957 0.12982 0.58744 0.0
O168 O 0.36801 0.1061 0.5956 0.0
O169 O 0.32612 0.06991 0.63721 0.0
O170 O 0.27812 0.09448 0.62903 0.0
O171 O 0.38222 0.15071 0.65904 0.0
H172 H 0.37976 0.03912 0.62259 0.0
H173 H 0.48146 0.17392 0.6389 0.0
O174 O 0.33187 0.17305 0.652 0.0
O175 O 0.37289 0.21028 0.61052 0.0
O176 O 0.42385 0.18896 0.61742 0.0
C177 C 0.41473 0.22021 0.61169 0.0
H178 H 0.19084 0.16054 0.58745 0.0
H179 H 0.46082 0.04293 0.62407 0.0
Co180 Co 0.70353 0.82539 0.39162 0.0
C181 C 0.65714 0.77905 0.3491 0.0
Co182 Co 0.64786 0.75402 0.39581 0.0
C183 C 0.75616 0.9251 0.39232 0.0
C184 C 0.77891 0.89442 0.36604 0.0
N185 N 0.74937 0.88423 0.38451 0.0
N186 N 0.78795 0.9599 0.37896 0.0
C187 C 0.80255 0.94085 0.36258 0.0
H188 H 0.73659 0.9291 0.40658 0.0
H189 H 0.78144 0.86943 0.35498 0.0
C190 C 0.6957 0.79724 0.43817 0.0
N191 N 0.60197 0.69494 0.40242 0.0
C192 C 0.55636 0.67553 0.39803 0.0
C193 C 0.6064 0.664 0.41582 0.0
N194 N 0.53209 0.63404 0.40848 0.0
C195 C 0.56349 0.62653 0.41958 0.0
C196 C 0.73444 0.76356 0.38904 0.0
O197 O 0.71945 0.83279 0.42531 0.0
O198 O 0.66189 0.76247 0.42865 0.0
O199 O 0.69233 0.7335 0.39236 0.0
O200 O 0.74571 0.80525 0.38743 0.0
O201 O 0.63383 0.7449 0.36268 0.0
H202 H 0.63855 0.66919 0.42326 0.0
H203 H 0.541 0.69249 0.38839 0.0
O204 O 0.68807 0.81645 0.35826 0.0
O205 O 0.66112 0.84638 0.3959 0.0
O206 O 0.60447 0.77573 0.39939 0.0
C207 C 0.61831 0.81845 0.39837 0.0
H208 H 0.82809 0.95931 0.34888 0.0
H209 H 0.55593 0.59647 0.43001 0.0
Co210 Co 0.86701 0.68426 0.88809 0.0
C211 C 0.87334 0.64739 0.84341 0.0
Co212 Co 0.89481 0.63712 0.88906 0.0
C213 C 0.84139 0.75644 0.89428 0.0
C214 C 0.80088 0.70347 0.86911 0.0
N215 N 0.83756 0.71834 0.88395 0.0
N216 N 0.80801 0.765 0.8865 0.0
C217 C 0.78292 0.73186 0.87059 0.0
H218 H 0.86701 0.77653 0.90766 0.0
H219 H 0.78701 0.67288 0.85823 0.0
C220 C 0.89229 0.67624 0.93343 0.0
N221 N 0.92002 0.59968 0.89285 0.0
C222 C 0.89948 0.55487 0.88708 0.0
C223 C 0.95558 0.60716 0.90722 0.0
N224 N 0.91966 0.53374 0.89796 0.0
C225 C 0.95512 0.56643 0.9106 0.0
C226 C 0.96009 0.72975 0.88283 0.0
O227 O 0.87537 0.697 0.92178 0.0
O228 O 0.90008 0.64768 0.92256 0.0
O229 O 0.95487 0.68975 0.88514 0.0
O230 O 0.92497 0.73497 0.88283 0.0
O231 O 0.8902 0.62703 0.8553 0.0
H232 H 0.97764 0.63906 0.91641 0.0
H233 H 0.86744 0.53698 0.87715 0.0
O234 O 0.86091 0.67227 0.85451 0.0
O235 O 0.80868 0.63328 0.89349 0.0
O236 O 0.83422 0.58511 0.89318 0.0
C237 C 0.80068 0.59249 0.89455 0.0
H238 H 0.75355 0.72844 0.86063 0.0
H239 H 0.97698 0.56058 0.92269 0.0
Co240 Co 0.18282 0.85267 0.39708 0.0
C241 C 0.20794 0.84648 0.3492 0.0
Co242 Co 0.25742 0.89142 0.38842 0.0
C243 C 0.08452 0.82491 0.40464 0.0
C244 C 0.0969 0.76939 0.39825 0.0
N245 N 0.11896 0.81534 0.40131 0.0
N246 N 0.04228 0.78657 0.40403 0.0
C247 C 0.05034 0.75181 0.40007 0.0
H248 H 0.09022 0.8593 0.40675 0.0
H249 H 0.11324 0.74967 0.39368 0.0
C250 C 0.2341 0.90153 0.43566 0.0
N251 N 0.32138 0.92445 0.38413 0.0
C252 C 0.34797 0.90618 0.37804 0.0
C253 C 0.35129 0.9661 0.39312 0.0
N254 N 0.39274 0.93367 0.38388 0.0
C255 C 0.39507 0.97167 0.3932 0.0
C256 C 0.21067 0.93993 0.38177 0.0
O257 O 0.19206 0.87548 0.42947 0.0
O258 O 0.26593 0.90889 0.4209 0.0
O259 O 0.25088 0.94414 0.38124 0.0
O260 O 0.17598 0.90161 0.3873 0.0
O261 O 0.24873 0.87445 0.35602 0.0
H262 H 0.34132 0.98897 0.40128 0.0
H263 H 0.33412 0.87127 0.37186 0.0
O264 O 0.17498 0.83186 0.36426 0.0
O265 O 0.1903 0.8038 0.40727 0.0
O266 O 0.26191 0.83822 0.39554 0.0
C267 C 0.22728 0.8032 0.40413 0.0
H268 H 0.02428 0.71633 0.39725 0.0
H269 H 0.42558 -2e-05 0.40109 0.0
Co270 Co 0.2962 0.17409 0.88616 0.0
C271 C 0.34519 0.21324 0.84353 0.0
Co272 Co 0.34773 0.24719 0.88817 0.0
C273 C 0.24372 0.07471 0.89147 0.0
C274 C 0.22507 0.10028 0.86079 0.0
N275 N 0.25186 0.11391 0.88059 0.0
N276 N 0.21375 0.03758 0.87879 0.0
C277 C 0.20172 0.05348 0.85964 0.0
H278 H 0.26098 0.07343 0.90761 0.0
H279 H 0.22422 0.12302 0.84738 0.0
C280 C 0.2961 0.20898 0.93033 0.0
N281 N 0.39284 0.30725 0.89271 0.0
C282 C 0.43806 0.32559 0.88768 0.0
C283 C 0.38973 0.33971 0.90533 0.0
N284 N 0.46348 0.36771 0.89716 0.0
C285 C 0.43328 0.37695 0.90821 0.0
C286 C 0.26354 0.23363 0.87456 0.0
O287 O 0.27511 0.17203 0.91825 0.0
O288 O 0.33021 0.24382 0.92092 0.0
O289 O 0.30375 0.26575 0.87995 0.0
O290 O 0.25468 0.19248 0.87578 0.0
O291 O 0.36444 0.25063 0.85517 0.0
H292 H 0.35823 0.33552 0.91307 0.0
H293 H 0.45247 0.30717 0.87864 0.0
O294 O 0.31653 0.17682 0.85424 0.0
O295 O 0.33819 0.1555 0.89646 0.0
O296 O 0.39144 0.22791 0.89634 0.0
C297 C 0.38018 0.18609 0.89904 0.0
H298 H 0.17804 0.03257 0.84569 0.0
H299 H 0.44224 0.40776 0.91825 0.0
Co300 Co 0.13095 0.30999 0.38976 0.0
C301 C 0.13629 0.34931 0.34422 0.0
Co302 Co 0.10465 0.35843 0.38776 0.0
C303 C 0.14001 0.22658 0.39195 0.0
C304 C 0.19908 0.2873 0.37889 0.0
N305 N 0.1567 0.27199 0.3884 0.0
N306 N 0.17061 0.21379 0.38484 0.0
C307 C 0.20765 0.2519 0.37676 0.0
H308 H 0.10543 0.20306 0.39818 0.0
H309 H 0.22154 0.32168 0.37242 0.0
C310 C 0.09519 0.31729 0.4328 0.0
N311 N 0.0831 0.39928 0.3878 0.0
C312 C 0.10914 0.44344 0.38126 0.0
C313 C 0.04565 0.39666 0.3984 0.0
N314 N 0.09091 0.46916 0.38826 0.0
C315 C 0.05044 0.43987 0.39874 0.0
C316 C 0.03878 0.26826 0.37851 0.0
O317 O 0.11526 0.29729 0.42337 0.0
O318 O 0.08964 0.34587 0.42041 0.0
O319 O 0.04482 0.30868 0.37988 0.0
O320 O 0.07268 0.26173 0.3818 0.0
O321 O 0.11893 0.37045 0.35476 0.0
H322 H 0.01879 0.36637 0.40713 0.0
H323 H 0.14296 0.45741 0.37322 0.0
O324 O 0.14463 0.32223 0.35626 0.0
O325 O 0.18942 0.35883 0.39791 0.0
O326 O 0.16494 0.40772 0.39606 0.0
C327 C 0.19763 0.39962 0.39943 0.0
H328 H 0.23804 0.25351 0.36894 0.0
H329 H 0.02823 0.44967 0.40794 0.0
Co330 Co 0.81803 0.12723 0.90294 0.0
C331 C 0.80251 0.13921 0.85572 0.0
Co332 Co 0.74464 0.10468 0.896 0.0
C333 C 0.91613 0.15884 0.89677 0.0
C334 C 0.89719 0.15849 0.93335 0.0
N335 N 0.87935 0.1477 0.91101 0.0
N336 N 0.95569 0.17564 0.90944 0.0
C337 C 0.94385 0.17521 0.93244 0.0
H338 H 0.91413 0.15496 0.87752 0.0
H339 H 0.87797 0.1558 0.94937 0.0
C340 C 0.75847 0.08803 0.94237 0.0
N341 N 0.68364 0.08641 0.88868 0.0
C342 C 0.65747 0.10254 0.89829 0.0
C343 C 0.65769 0.05834 0.87088 0.0
N344 N 0.61651 0.0863 0.88698 0.0
C345 C 0.61648 0.05826 0.86976 0.0
C346 C 0.76868 0.03703 0.89072 0.0
O347 O 0.79967 0.10569 0.93484 0.0
O348 O 0.72789 0.0873 0.92855 0.0
O349 O 0.73456 0.04402 0.89008 0.0
O350 O 0.80894 0.06975 0.89516 0.0
O351 O 0.76115 0.12093 0.86323 0.0
H352 H 0.66873 0.04049 0.8589 0.0
H353 H 0.66925 0.12762 0.91254 0.0
O354 O 0.83447 0.1467 0.87054 0.0
O355 O 0.82773 0.18504 0.91081 0.0
O356 O 0.75657 0.16588 0.90217 0.0
C357 C 0.79704 0.19624 0.90843 0.0
H358 H 0.96754 0.18741 0.94744 0.0
H359 H 0.58906 0.03971 0.85694 0.0
C360 C 0.14497 0.93775 0.12298 0.0
C361 C 0.11782 0.90295 0.13925 0.0
C362 C 0.15674 0.98325 0.12727 0.0
C363 C 0.14184 0.99438 0.14863 0.0
C364 C 0.11367 0.95924 0.16495 0.0
C365 C 0.10152 0.9137 0.15992 0.0
C366 C 0.18577 0.01954 0.1091 0.0
C367 C 0.09775 0.96996 0.18806 0.0
C368 C 0.21563 0.11946 0.16607 0.0
C369 C 0.18938 0.13805 0.15704 0.0
C370 C 0.19943 0.07217 0.16463 0.0
C371 C 0.15622 0.043 0.15367 0.0
C372 C 0.12869 0.06125 0.14551 0.0
C373 C 0.14539 0.1084 0.14752 0.0
C374 C 0.22934 0.05369 0.17395 0.0
C375 C 0.08253 0.0314 0.13362 0.0
H376 H 0.15739 0.92939 0.10693 0.0
H377 H 0.0809 0.88683 0.17262 0.0
H378 H 0.16814 0.03855 0.1035 0.0
H379 H 0.21927 0.04472 0.11722 0.0
H380 H 0.19272 0.00483 0.09292 0.0
H381 H 0.07428 0.93852 0.19829 0.0
H382 H 0.12814 0.99203 0.1994 0.0
H383 H 0.07963 0.98937 0.18444 0.0
H384 H 0.24948 0.14203 0.17353 0.0
H385 H 0.12402 0.12204 0.14127 0.0
H386 H 0.24241 0.04231 0.15873 0.0
H387 H 0.20885 0.02337 0.18552 0.0
H388 H 0.25937 0.07976 0.18433 0.0
H389 H 0.08781 0.01848 0.11635 0.0
H390 H 0.0637 0.05022 0.13009 0.0
H391 H 0.0605 0.00111 0.14489 0.0
C392 C 0.19385 0.24049 0.60624 0.0
C393 C 0.21951 0.23005 0.62224 0.0
C394 C 0.16213 0.25277 0.61455 0.0
C395 C 0.15649 0.25507 0.63952 0.0
C396 C 0.18701 0.25104 0.65559 0.0
C397 C 0.21816 0.23817 0.64674 0.0
C398 C 0.13091 0.25768 0.59668 0.0
C399 C 0.18354 0.25553 0.68224 0.0
C400 C 0.06212 0.28287 0.65186 0.0
C401 C 0.02341 0.23862 0.65157 0.0
C402 C 0.10689 0.28925 0.65038 0.0
C403 C 0.11257 0.25049 0.64826 0.0
C404 C 0.0738 0.20587 0.65037 0.0
C405 C 0.02974 0.20056 0.65215 0.0
C406 C 0.14744 0.33737 0.64916 0.0
C407 C 0.0782 0.16343 0.64841 0.0
H408 H 0.19607 0.23557 0.58723 0.0
H409 H 0.23842 0.23071 0.65918 0.0
H410 H 0.09568 0.22739 0.5979 0.0
H411 H 0.12823 0.28849 0.60066 0.0
H412 H 0.14332 0.26026 0.578 0.0
H413 H 0.21629 0.26378 0.69142 0.0
H414 H 0.17478 0.28247 0.68648 0.0
H415 H 0.15574 0.2226 0.68954 0.0
H416 H 0.05749 0.31252 0.65176 0.0
H417 H -3e-05 0.16627 0.65247 0.0
H418 H 0.15453 0.34838 0.63019 0.0
H419 H 0.17904 0.33946 0.65686 0.0
H420 H 0.13999 0.36181 0.65877 0.0
H421 H 0.08926 0.16089 0.63003 0.0
H422 H 0.04517 0.13156 0.65226 0.0
H423 H 0.10479 0.16542 0.66099 0.0
C424 C 0.84026 0.07532 0.17591 0.0
C425 C 0.81302 0.04915 0.15662 0.0
C426 C 0.88736 0.10741 0.17275 0.0
C427 C 0.90752 0.11319 0.1498 0.0
C428 C 0.88 0.08728 0.13025 0.0
C429 C 0.83314 0.05599 0.13387 0.0
C430 C 0.91558 0.13498 0.19393 0.0
C431 C 0.90003 0.09256 0.10547 0.0
C432 C 0.01473 0.22424 0.13296 0.0
C433 C 0.04945 0.2126 0.135 0.0
C434 C 0.96872 0.19261 0.13843 0.0
C435 C 0.95685 0.14785 0.14577 0.0
C436 C 0.99169 0.13574 0.14791 0.0
C437 C 0.03776 0.16847 0.14269 0.0
C438 C 0.93274 0.20704 0.13614 0.0
C439 C 0.98017 0.08807 0.15532 0.0
H440 H 0.82505 0.06998 0.19354 0.0
H441 H 0.81212 0.0367 0.11875 0.0
H442 H 0.9447 0.12862 0.19699 0.0
H443 H 0.93072 0.17212 0.19022 0.0
H444 H 0.89476 0.12649 0.21056 0.0
H445 H 0.87426 0.06858 0.09237 0.0
H446 H 0.9133 0.12812 0.09899 0.0
H447 H 0.92963 0.08635 0.10595 0.0
H448 H 0.02355 0.25849 0.12733 0.0
H449 H 0.0645 0.15937 0.14435 0.0
H450 H 0.91355 0.20068 0.15319 0.0
H451 H 0.90731 0.1863 0.12213 0.0
H452 H 0.94808 0.24385 0.13142 0.0
H453 H 0.9623 0.07929 0.17285 0.0
H454 H 0.01136 0.08447 0.15669 0.0
H455 H 0.95617 0.06276 0.14211 0.0
C456 C 0.7837 0.79102 0.64693 0.0
C457 C 0.82321 0.78666 0.64663 0.0
C458 C 0.78755 0.83442 0.64838 0.0
C459 C 0.83191 0.87404 0.64962 0.0
C460 C 0.8715 0.86934 0.65166 0.0
C461 C 0.86667 0.82567 0.65009 0.0
C462 C 0.74448 0.83801 0.64631 0.0
C463 C 0.91939 0.91063 0.65316 0.0
C464 C 0.84748 0.97663 0.61444 0.0
C465 C 0.84781 0.00572 0.63242 0.0
C466 C 0.84233 0.93383 0.61992 0.0
C467 C 0.83758 0.91969 0.64411 0.0
C468 C 0.83884 0.94921 0.66249 0.0
C469 C 0.84407 0.99211 0.65641 0.0
C470 C 0.84165 0.90362 0.59973 0.0
C471 C 0.8338 0.93511 0.68844 0.0
H472 H 0.75001 0.76094 0.64438 0.0
H473 H 0.89732 0.8224 0.65028 0.0
H474 H 0.74574 0.86408 0.65887 0.0
H475 H 0.742 0.84903 0.62791 0.0
H476 H 0.71281 0.8047 0.64993 0.0
H477 H 0.94543 0.90114 0.65875 0.0
H478 H 0.92943 0.92729 0.63533 0.0
H479 H 0.92033 0.93626 0.66593 0.0
H480 H 0.8513 0.98744 0.59592 0.0
H481 H 0.84397 0.01444 0.67032 0.0
H482 H 0.80852 0.87065 0.5998 0.0
H483 H 0.86975 0.89557 0.60223 0.0
H484 H 0.8459 0.91992 0.58192 0.0
H485 H 0.79938 0.90446 0.69137 0.0
H486 H 0.83758 0.96281 0.70063 0.0
H487 H 0.85998 0.92543 0.6933 0.0
C488 C 0.86837 0.73298 0.1705 0.0
C489 C 0.91393 0.75952 0.16254 0.0
C490 C 0.83695 0.74898 0.16811 0.0
C491 C 0.85159 0.79222 0.15734 0.0
C492 C 0.89809 0.81999 0.15035 0.0
C493 C 0.92874 0.80352 0.1533 0.0
C494 C 0.78774 0.71892 0.17624 0.0
C495 C 0.91508 0.86623 0.13872 0.0
C496 C 0.76153 0.80767 0.12414 0.0
C497 C 0.75365 0.83509 0.14005 0.0
C498 C 0.79373 0.79393 0.12949 0.0
C499 C 0.81773 0.80705 0.15156 0.0
C500 C 0.8102 0.8351 0.16763 0.0
C501 C 0.77855 0.84929 0.16154 0.0
C502 C 0.8018 0.76508 0.1116 0.0
C503 C 0.83461 0.84905 0.19149 0.0
H504 H 0.85692 0.69916 0.17779 0.0
H505 H 0.96435 0.82503 0.14795 0.0
H506 H 0.7767 0.73882 0.18752 0.0
H507 H 0.76454 0.70658 0.16044 0.0
H508 H 0.78312 0.68869 0.18655 0.0
H509 H 0.95297 0.88473 0.13568 0.0
H510 H 0.89756 0.86165 0.12122 0.0
H511 H 0.90641 0.888 0.14994 0.0
H512 H 0.74217 0.79667 0.10754 0.0
H513 H 0.77185 0.86987 0.17404 0.0
H514 H 0.79273 0.73151 0.11967 0.0
H515 H 0.83888 0.78226 0.10669 0.0
H516 H 0.78115 0.75884 0.09501 0.0
H517 H 0.82584 0.81804 0.20224 0.0
H518 H 0.82511 0.87124 0.20187 0.0
H519 H 0.87254 0.8677 0.18886 0.0
C520 C 0.06904 0.83661 0.60281 0.0
C521 C 0.03745 0.80917 0.62042 0.0
C522 C 0.11156 0.87458 0.60894 0.0
C523 C 0.12301 0.88541 0.63337 0.0
C524 C 0.09221 0.85679 0.65131 0.0
C525 C 0.04954 0.81913 0.64461 0.0
C526 C 0.14316 0.90446 0.58919 0.0
C527 C 0.10363 0.86684 0.67752 0.0
C528 C 0.24835 0.97739 0.64134 0.0
C529 C 0.24448 0.01695 0.64074 0.0
C530 C 0.20867 0.93362 0.64094 0.0
C531 C 0.16451 0.92971 0.63967 0.0
C532 C 0.16054 0.96953 0.64096 0.0
C533 C 0.20052 0.01256 0.64163 0.0
C534 C 0.21416 0.89182 0.64015 0.0
C535 C 0.1142 0.96705 0.63955 0.0
H536 H 0.05976 0.82949 0.5841 0.0
H537 H 0.02554 0.79758 0.65828 0.0
H538 H 0.14613 0.93877 0.58987 0.0
H539 H 0.17832 0.90952 0.59165 0.0
H540 H 0.13048 0.88963 0.57115 0.0
H541 H 0.07942 0.83788 0.68906 0.0
H542 H 0.13935 0.8743 0.68115 0.0
H543 H 0.1018 0.89772 0.68262 0.0
H544 H 0.28222 0.98054 0.6408 0.0
H545 H 0.1972 0.04299 0.64155 0.0
H546 H 0.20863 0.87853 0.62157 0.0
H547 H 0.1881 0.86416 0.65166 0.0
H548 H 0.24917 0.89977 0.64599 0.0
H549 H 0.09937 0.95558 0.6214 0.0
H550 H 0.1168 0.0007 0.64314 0.0
H551 H 0.0897 0.94167 0.65252 0.0
C552 C 0.99022 0.8173 0.39541 0.0
C553 C 0.99719 0.78238 0.40445 0.0
C554 C 0.94549 0.81101 0.39335 0.0
C555 C 0.90691 0.76876 0.40044 0.0
C556 C 0.91389 0.73393 0.41016 0.0
C557 C 0.95886 0.74128 0.41218 0.0
C558 C 0.93946 0.8493 0.38326 0.0
C559 C 0.87378 0.68859 0.4181 0.0
C560 C 0.7963 0.76898 0.41469 0.0
C561 C 0.77198 0.75383 0.39311 0.0
C562 C 0.83989 0.77326 0.41745 0.0
C563 C 0.85929 0.76135 0.39822 0.0
C564 C 0.83369 0.74368 0.37676 0.0
C565 C 0.79034 0.74065 0.37433 0.0
C566 C 0.86617 0.79293 0.44044 0.0
C567 C 0.85306 0.7301 0.35599 0.0
H568 H 0.01954 0.84895 0.38923 0.0
H569 H 0.96404 0.71447 0.4196 0.0
H570 H 0.91876 0.83771 0.36657 0.0
H571 H 0.92021 0.85858 0.39611 0.0
H572 H 0.973 0.88047 0.37924 0.0
H573 H 0.88506 0.66478 0.42497 0.0
H574 H 0.85413 0.69421 0.43237 0.0
H575 H 0.84973 0.67192 0.4029 0.0
H576 H 0.78229 0.78017 0.42897 0.0
H577 H 0.77193 0.73017 0.35745 0.0
H578 H 0.89907 0.82488 0.43666 0.0
H579 H 0.87509 0.76842 0.44874 0.0
H580 H 0.84622 0.80094 0.45352 0.0
H581 H 0.8838 0.76089 0.34876 0.0
H582 H 0.8275 0.71375 0.34133 0.0
H583 H 0.86449 0.70595 0.36205 0.0
C584 C 0.04523 0.76925 0.8905 0.0
C585 C 0.00641 0.77066 0.88207 0.0
C586 C 0.0883 0.80958 0.89232 0.0
C587 C 0.0922 0.85188 0.88555 0.0
C588 C 0.0533 0.85306 0.87636 0.0
C589 C 0.01098 0.81247 0.87475 0.0
C590 C 0.12893 0.80701 0.90225 0.0
C591 C 0.05599 0.89739 0.86859 0.0
C592 C 0.17416 0.97164 0.90559 0.0
C593 C 0.19653 0.99016 0.88392 0.0
C594 C 0.14386 0.92429 0.90773 0.0
C595 C 0.13639 0.89564 0.88769 0.0
C596 C 0.16438 0.91365 0.86714 0.0
C597 C 0.19396 0.96099 0.86544 0.0
C598 C 0.11541 0.90606 0.93017 0.0
C599 C 0.1585 0.88408 0.84567 0.0
H600 H 0.04166 0.73696 0.89641 0.0
H601 H 0.98112 0.81365 0.8681 0.0
H602 H 0.16091 0.8296 0.89213 0.0
H603 H 0.1348 0.81892 0.92109 0.0
H604 H 0.1229 0.77144 0.90189 0.0
H605 H 0.02248 0.89211 0.86172 0.0
H606 H 0.06676 0.92157 0.88388 0.0
H607 H 0.08221 0.9139 0.8543 0.0
H608 H 0.1766 0.99449 0.91987 0.0
H609 H 0.21216 0.97571 0.84885 0.0
H610 H 0.11072 0.87202 0.93497 0.0
H611 H 0.08068 0.90177 0.92704 0.0
H612 H 0.13152 0.9298 0.94551 0.0
H613 H 0.15298 0.85008 0.85123 0.0
H614 H 0.18893 0.90059 0.83363 0.0
H615 H 0.12766 0.8784 0.83537 0.0
C616 C 0.17365 0.15467 0.36104 0.0
C617 C 0.16497 0.16886 0.383 0.0
C618 C 0.17855 0.11585 0.35946 0.0
C619 C 0.17519 0.09095 0.38047 0.0
C620 C 0.16411 0.10383 0.40256 0.0
C621 C 0.15889 0.14274 0.40353 0.0
C622 C 0.18957 0.10287 0.33552 0.0
C623 C 0.16018 0.07801 0.42533 0.0
C624 C 0.15846 0.97147 0.37472 0.0
C625 C 0.20342 0.97943 0.37852 0.0
C626 C 0.14885 0.00745 0.3751 0.0
C627 C 0.18507 0.05258 0.37941 0.0
C628 C 0.23081 0.06114 0.38251 0.0
C629 C 0.23951 0.02439 0.38194 0.0
C630 C 0.09976 0.99698 0.37142 0.0
C631 C 0.27034 0.10894 0.3871 0.0
H632 H 0.17846 0.17529 0.34524 0.0
H633 H 0.15288 0.1544 0.4205 0.0
H634 H 0.22498 0.10793 0.33591 0.0
H635 H 0.16553 0.06611 0.3317 0.0
H636 H 0.18739 0.12365 0.32065 0.0
H637 H 0.14847 0.09055 0.44067 0.0
H638 H 0.13564 0.04088 0.42286 0.0
H639 H 0.19425 0.0818 0.42984 0.0
H640 H 0.13035 0.93676 0.37198 0.0
H641 H 0.27417 0.03063 0.38512 0.0
H642 H 0.09808 0.01735 0.35623 0.0
H643 H 0.0876 0.00694 0.38756 0.0
H644 H 0.07571 0.96007 0.36777 0.0
H645 H 0.27287 0.13212 0.37233 0.0
H646 H 0.30393 0.10994 0.38878 0.0
H647 H 0.26393 0.12262 0.40381 0.0
C648 C 0.22162 0.27637 0.88219 0.0
C649 C 0.22468 0.24158 0.87013 0.0
C650 C 0.17875 0.27422 0.88468 0.0
C651 C 0.1386 0.23624 0.87507 0.0
C652 C 0.14283 0.20441 0.86036 0.0
C653 C 0.18598 0.20774 0.85793 0.0
C654 C 0.17581 0.30972 0.89981 0.0
C655 C 0.10111 0.16324 0.84982 0.0
C656 C 0.03152 0.18188 0.91357 0.0
C657 C 0.00154 0.19158 0.90067 0.0
C658 C 0.07656 0.19728 0.90566 0.0
C659 C 0.09232 0.22387 0.88447 0.0
C660 C 0.06257 0.23488 0.87166 0.0
C661 C 0.01714 0.21802 0.87978 0.0
C662 C 0.10683 0.18399 0.9197 0.0
C663 C 0.07872 0.2643 0.84947 0.0
H664 H 0.25157 0.30274 0.89155 0.0
H665 H 0.18855 0.18122 0.84822 0.0
H666 H 0.14926 0.31725 0.89278 0.0
H667 H 0.16583 0.29647 0.91831 0.0
H668 H 0.20952 0.3421 0.90064 0.0
H669 H 0.11084 0.14624 0.83582 0.0
H670 H 0.0825 0.13796 0.86424 0.0
H671 H 0.07681 0.17299 0.84192 0.0
H672 H 0.01921 0.16126 0.92965 0.0
H673 H 0.99403 0.22612 0.87008 0.0
H674 H 0.13874 0.21514 0.92562 0.0
H675 H 0.11737 0.164 0.90817 0.0
H676 H 0.08915 0.16312 0.93575 0.0
H677 H 0.11069 0.29708 0.85344 0.0
H678 H 0.05224 0.27199 0.84241 0.0
H679 H 0.0873 0.24681 0.83528 0.0
C680 C 0.95258 0.22996 0.38124 0.0
C681 C 0.99241 0.22802 0.37555 0.0
C682 C 0.90926 0.18972 0.38223 0.0
C683 C 0.90623 0.14698 0.37758 0.0
C684 C 0.94611 0.14535 0.37065 0.0
C685 C 0.98855 0.18587 0.36963 0.0
C686 C 0.86748 0.19292 0.38936 0.0
C687 C 0.94449 0.10056 0.36522 0.0
C688 C 0.82506 0.03074 0.40231 0.0
C689 C 0.80425 0.00789 0.38107 0.0
C690 C 0.85446 0.07843 0.40234 0.0
C691 C 0.86245 0.10308 0.38063 0.0
C692 C 0.83584 0.08076 0.36015 0.0
C693 C 0.8074 0.03309 0.36053 0.0
C694 C 0.88159 0.10121 0.42469 0.0
C695 C 0.84199 0.1061 0.33694 0.0
H696 H 0.9555 0.26253 0.38595 0.0
H697 H 0.0192 0.1843 0.36497 0.0
H698 H 0.83629 0.16779 0.37941 0.0
H699 H 0.86074 0.18511 0.40871 0.0
H700 H 0.87292 0.22786 0.38623 0.0
H701 H 0.97868 0.10555 0.35987 0.0
H702 H 0.93253 0.07803 0.38122 0.0
H703 H 0.91963 0.08233 0.35055 0.0
H704 H 0.8222 0.0109 0.41816 0.0
H705 H 0.79043 0.01502 0.34425 0.0
H706 H 0.8845 0.13519 0.4273 0.0
H707 H 0.91707 0.10673 0.42288 0.0
H708 H 0.86555 0.07988 0.44085 0.0
H709 H 0.84668 0.14067 0.34024 0.0
H710 H 0.81202 0.08692 0.3248 0.0
H711 H 0.87336 0.1106 0.32773 0.0
C712 C 0.83615 0.84619 0.89611 0.0
C713 C 0.79954 0.80148 0.89287 0.0
C714 C 0.82786 0.8831 0.89786 0.0
C715 C 0.78196 0.87477 0.89631 0.0
C716 C 0.74479 0.82934 0.89466 0.0
C717 C 0.75407 0.79328 0.89308 0.0
C718 C 0.86833 0.93117 0.90004 0.0
C719 C 0.6954 0.81898 0.8931 0.0
C720 C 0.75935 0.97066 0.91346 0.0
C721 C 0.76191 0.99076 0.89117 0.0
C722 C 0.76491 0.93223 0.91545 0.0
C723 C 0.77298 0.91361 0.89455 0.0
C724 C 0.77349 0.93275 0.87185 0.0
C725 C 0.76843 0.97162 0.87046 0.0
C726 C 0.76444 0.91308 0.93996 0.0
C727 C 0.78135 0.91339 0.84915 0.0
H728 H 0.87125 0.85252 0.89592 0.0
H729 H 0.72566 0.75852 0.8911 0.0
H730 H 0.87196 0.95029 0.88324 0.0
H731 H 0.86245 0.94976 0.91474 0.0
H732 H 0.90121 0.93147 0.90346 0.0
H733 H 0.67034 0.78162 0.89402 0.0
H734 H 0.68774 0.83634 0.90775 0.0
H735 H 0.69007 0.83237 0.87596 0.0
H736 H 0.75549 0.98659 0.92948 0.0
H737 H 0.77155 0.98821 0.85337 0.0
H738 H 0.7987 0.91679 0.94383 0.0
H739 H 0.73875 0.87594 0.94056 0.0
H740 H 0.7562 0.9307 0.95429 0.0
H741 H 0.81637 0.91742 0.84945 0.0
H742 H 0.77814 0.93062 0.83289 0.0
H743 H 0.75617 0.87617 0.84786 0.0
C744 C 0.05266 0.61194 0.12941 0.0
C745 C 0.09326 0.65452 0.12758 0.0
C746 C 0.05343 0.5709 0.12597 0.0
C747 C 0.09579 0.57272 0.12073 0.0
C748 C 0.13693 0.6156 0.11949 0.0
C749 C 0.13513 0.65582 0.12288 0.0
C750 C 0.00891 0.5257 0.12742 0.0
C751 C 0.18289 0.61914 0.11414 0.0
C752 C 0.11454 0.47129 0.12892 0.0
C753 C 0.11253 0.45663 0.10522 0.0
C754 C 0.10718 0.50781 0.13439 0.0
C755 C 0.09755 0.53025 0.11572 0.0
C756 C 0.09415 0.5148 0.09186 0.0
C757 C 0.10172 0.47824 0.08691 0.0
C758 C 0.11108 0.52327 0.16006 0.0
C759 C 0.08419 0.53798 0.07143 0.0
H760 H 0.02024 0.6107 0.13305 0.0
H761 H 0.16684 0.68853 0.12167 0.0
H762 H 0.00112 0.50836 0.10977 0.0
H763 H 0.01238 0.50276 0.14047 0.0
H764 H 0.9793 0.52997 0.13278 0.0
H765 H 0.21189 0.6551 0.11457 0.0
H766 H 0.19009 0.59885 0.12733 0.0
H767 H 0.18186 0.60464 0.09619 0.0
H768 H 0.12182 0.45417 0.14325 0.0
H769 H 0.10039 0.46737 0.06856 0.0
H770 H 0.08016 0.52534 0.16521 0.0
H771 H 0.14145 0.55813 0.16205 0.0
H772 H 0.11496 0.49989 0.17269 0.0
H773 H 0.05301 0.54047 0.07535 0.0
H774 H 0.07883 0.51946 0.05423 0.0
H775 H 0.11346 0.57344 0.06926 0.0
C776 C 0.73419 0.14918 0.6224 0.0
C777 C 0.77064 0.19452 0.6207 0.0
C778 C 0.68832 0.13926 0.62357 0.0
C779 C 0.67846 0.1755 0.62251 0.0
C780 C 0.71488 0.22122 0.61966 0.0
C781 C 0.76069 0.23026 0.61898 0.0
C782 C 0.65052 0.09007 0.6269 0.0
C783 C 0.70552 0.26059 0.61787 0.0
C784 C 0.55318 0.13495 0.60827 0.0
C785 C 0.53519 0.13265 0.63111 0.0
C786 C 0.60046 0.15154 0.60499 0.0
C787 C 0.62998 0.16504 0.62518 0.0
C788 C 0.61192 0.16395 0.64827 0.0
C789 C 0.56457 0.14813 0.65091 0.0
C790 C 0.61848 0.15304 0.58007 0.0
C791 C 0.64214 0.17736 0.67028 0.0
H792 H 0.74155 0.12135 0.62385 0.0
H793 H 0.78871 0.26536 0.61758 0.0
H794 H 0.63222 0.08657 0.64399 0.0
H795 H 0.62473 0.07983 0.6123 0.0
H796 H 0.66401 0.06588 0.62714 0.0
H797 H 0.73751 0.29388 0.61472 0.0
H798 H 0.68091 0.25436 0.60307 0.0
H799 H 0.68921 0.26317 0.63461 0.0
H800 H 0.52995 0.12326 0.59305 0.0
H801 H 0.55007 0.14625 0.66848 0.0
H802 H 0.62901 0.12672 0.57833 0.0
H803 H 0.6495 0.18688 0.57662 0.0
H804 H 0.59219 0.14655 0.56612 0.0
H805 H 0.65494 0.15295 0.67293 0.0
H806 H 0.6234 0.17739 0.68666 0.0
H807 H 0.67275 0.21193 0.66796 0.0
C808 C 0.50895 0.60448 0.09932 0.0
C809 C 0.50864 0.6416 0.1106 0.0
C810 C 0.47225 0.55945 0.10214 0.0
C811 C 0.4344 0.55111 0.11679 0.0
C812 C 0.4348 0.588 0.12914 0.0
C813 C 0.47173 0.63276 0.1258 0.0
C814 C 0.47309 0.5211 0.0886 0.0
C815 C 0.39519 0.5805 0.14506 0.0
C816 C 0.31525 0.45317 0.10172 0.0
C817 C 0.30864 0.42048 0.11916 0.0
C818 C 0.35656 0.49507 0.10036 0.0
C819 C 0.39216 0.50496 0.11708 0.0
C820 C 0.38636 0.47157 0.13432 0.0
C821 C 0.34464 0.42941 0.13506 0.0
C822 C 0.36152 0.52931 0.08142 0.0
C823 C 0.42342 0.48108 0.15255 0.0
H824 H 0.53768 0.61054 0.08801 0.0
H825 H 0.47081 0.66096 0.13453 0.0
H826 H 0.4657 0.49225 0.10081 0.0
H827 H 0.44571 0.50775 0.07469 0.0
H828 H 0.50681 0.5325 0.07973 0.0
H829 H 0.40298 0.61172 0.1554 0.0
H830 H 0.36403 0.57056 0.13398 0.0
H831 H 0.38669 0.55206 0.15779 0.0
H832 H 0.28764 0.44624 0.08925 0.0
H833 H 0.33948 0.40433 0.14867 0.0
H834 H 0.39336 0.54008 0.07084 0.0
H835 H 0.36477 0.56045 0.09004 0.0
H836 H 0.33161 0.51527 0.06897 0.0
H837 H 0.45703 0.49281 0.14356 0.0
H838 H 0.41507 0.45044 0.16358 0.0
H839 H 0.42771 0.5091 0.1646 0.0
C840 C 0.79309 0.52142 0.62281 0.0
C841 C 0.8183 0.55728 0.60667 0.0
C842 C 0.80564 0.48808 0.62729 0.0
C843 C 0.84344 0.49012 0.61482 0.0
C844 C 0.86582 0.5235 0.59673 0.0
C845 C 0.85342 0.55716 0.59312 0.0
C846 C 0.78129 0.45353 0.64696 0.0
C847 C 0.90511 0.52574 0.58241 0.0
C848 C 0.91904 0.45083 0.64561 0.0
C849 C 0.90212 0.4071 0.6359 0.0
C850 C 0.89932 0.47771 0.63935 0.0
C851 C 0.86282 0.46084 0.62241 0.0
C852 C 0.84585 0.41672 0.61243 0.0
C853 C 0.86537 0.39016 0.61954 0.0
C854 C 0.91763 0.52421 0.65081 0.0
C855 C 0.80779 0.39795 0.59395 0.0
H856 H 0.76633 0.52176 0.63357 0.0
H857 H 0.87293 0.58491 0.58064 0.0
H858 H 0.77302 0.41873 0.64125 0.0
H859 H 0.80446 0.46286 0.66274 0.0
H860 H 0.74887 0.45238 0.65257 0.0
H861 H 0.91399 0.54896 0.56674 0.0
H862 H 0.93615 0.5385 0.59394 0.0
H863 H 0.89627 0.49111 0.576 0.0
H864 H 0.94737 0.46363 0.65827 0.0
H865 H 0.85283 0.35652 0.61175 0.0
H866 H 0.88896 0.52675 0.65923 0.0
H867 H 0.93308 0.55137 0.63696 0.0
H868 H 0.94422 0.5311 0.66464 0.0
H869 H 0.77591 0.39502 0.60168 0.0
H870 H 0.79981 0.36369 0.58728 0.0
H871 H 0.81777 0.42183 0.57854 0.0
C872 C 0.52329 0.89458 0.14272 0.0
C873 C 0.53236 0.86575 0.12851 0.0
C874 C 0.48138 0.89456 0.14041 0.0
C875 C 0.44852 0.86571 0.12319 0.0
C876 C 0.45831 0.83766 0.10835 0.0
C877 C 0.49986 0.83775 0.11133 0.0
C878 C 0.4717 0.92437 0.15677 0.0
C879 C 0.42458 0.80698 0.08949 0.0
C880 C 0.3204 0.82224 0.12863 0.0
C881 C 0.31392 0.84998 0.11207 0.0
C882 C 0.36444 0.82875 0.1334 0.0
C883 C 0.40304 0.86321 0.12098 0.0
C884 C 0.39714 0.89201 0.10465 0.0
C885 C 0.35277 0.8853 0.10054 0.0
C886 C 0.36939 0.79752 0.1511 0.0
C887 C 0.43745 0.92879 0.09084 0.0
H888 H 0.54834 0.91615 0.15605 0.0
H889 H 0.50696 0.81579 0.10009 0.0
H890 H 0.46295 0.94682 0.14612 0.0
H891 H 0.44138 0.90249 0.16816 0.0
H892 H 0.50152 0.94617 0.16854 0.0
H893 H 0.43854 0.78906 0.07862 0.0
H894 H 0.39216 0.78081 0.09811 0.0
H895 H 0.41558 0.82739 0.07731 0.0
H896 H 0.291 0.79453 0.13752 0.0
H897 H 0.34867 0.90764 0.0881 0.0
H898 H 0.39749 0.8179 0.16403 0.0
H899 H 0.37883 0.77457 0.14149 0.0
H900 H 0.33702 0.77596 0.16121 0.0
H901 H 0.46581 0.95112 0.10321 0.0
H902 H 0.42771 0.95049 0.08014 0.0
H903 H 0.45116 0.91263 0.07853 0.0
C904 C 0.6038 0.4892 0.60608 0.0
C905 C 0.61537 0.50522 0.62958 0.0
C906 C 0.57414 0.44248 0.60133 0.0
C907 C 0.55486 0.41129 0.62064 0.0
C908 C 0.56684 0.4275 0.64447 0.0
C909 C 0.59755 0.47433 0.64863 0.0
C910 C 0.56313 0.42656 0.5757 0.0
C911 C 0.54636 0.39559 0.66556 0.0
C912 C 0.43931 0.30335 0.61108 0.0
C913 C 0.45157 0.26908 0.6105 0.0
C914 C 0.47264 0.34963 0.61409 0.0
C915 C 0.51974 0.36241 0.616 0.0
C916 C 0.53274 0.32837 0.61419 0.0
C917 C 0.49843 0.28198 0.61173 0.0
C918 C 0.45712 0.38462 0.61629 0.0
C919 C 0.58274 0.3408 0.61552 0.0
H920 H 0.61853 0.5134 0.59144 0.0
H921 H 0.60714 0.48711 0.66673 0.0
H922 H 0.57004 0.39802 0.57248 0.0
H923 H 0.52595 0.41324 0.5721 0.0
H924 H 0.5836 0.45454 0.56277 0.0
H925 H 0.55984 0.41344 0.68291 0.0
H926 H 0.50826 0.38008 0.66543 0.0
H927 H 0.55392 0.36714 0.66425 0.0
H928 H 0.40323 0.29388 0.61032 0.0
H929 H 0.50823 0.25579 0.61133 0.0
H930 H 0.47457 0.41191 0.60266 0.0
H931 H 0.467 0.40127 0.63412 0.0
H932 H 0.41921 0.36916 0.61407 0.0
H933 H 0.60357 0.36856 0.60259 0.0
H934 H 0.58746 0.31102 0.61172 0.0
H935 H 0.59656 0.35396 0.63364 0.0
C936 C 0.45378 0.92889 0.40642 0.0
C937 C 0.42694 0.9196 0.38565 0.0
C938 C 0.48423 0.91182 0.40936 0.0
C939 C 0.48877 0.88561 0.39086 0.0
C940 C 0.46232 0.87685 0.36965 0.0
C941 C 0.43131 0.89343 0.36746 0.0
C942 C 0.51098 0.92119 0.43245 0.0
C943 C 0.46688 0.85005 0.34925 0.0
C944 C 0.59969 0.8801 0.38912 0.0
C945 C 0.5852 0.83576 0.39776 0.0
C946 C 0.56866 0.8965 0.38666 0.0
C947 C 0.52199 0.86835 0.39348 0.0
C948 C 0.50726 0.82386 0.40268 0.0
C949 C 0.5389 0.80788 0.40445 0.0
C950 C 0.58572 0.94372 0.3763 0.0
C951 C 0.45803 0.79311 0.41062 0.0
H952 H 0.44977 0.94825 0.42075 0.0
H953 H 0.41048 0.88616 0.35144 0.0
H954 H 0.5033 0.88834 0.44097 0.0
H955 H 0.54857 0.94055 0.42876 0.0
H956 H 0.50267 0.94111 0.44533 0.0
H957 H 0.44467 0.84708 0.33377 0.0
H958 H 0.5033 0.86689 0.34316 0.0
H959 H 0.45738 0.81508 0.35536 0.0
H960 H 0.63526 0.90179 0.38364 0.0
H961 H 0.5274 0.7736 0.41111 0.0
H962 H 0.58035 0.96546 0.38931 0.0
H963 H 0.56564 0.94126 0.35999 0.0
H964 H 0.62292 0.96109 0.37156 0.0
H965 H 0.44859 0.81081 0.42432 0.0
H966 H 0.45243 0.7602 0.4182 0.0
H967 H 0.43427 0.78547 0.39524 0.0
C968 C 0.71712 0.56436 0.88987 0.0
C969 C 0.75233 0.55491 0.89569 0.0
C970 C 0.67081 0.53004 0.89028 0.0
C971 C 0.65914 0.48508 0.89707 0.0
C972 C 0.69439 0.47504 0.90299 0.0
C973 C 0.74085 0.51016 0.90202 0.0
C974 C 0.63435 0.54206 0.88344 0.0
C975 C 0.68296 0.42752 0.91062 0.0
C976 C 0.5357 0.41868 0.9184 0.0
C977 C 0.51293 0.39449 0.89771 0.0
C978 C 0.5839 0.44577 0.91902 0.0
C979 C 0.6097 0.44938 0.89827 0.0
C980 C 0.58696 0.42368 0.8776 0.0
C981 C 0.53875 0.39618 0.87765 0.0
C982 C 0.607 0.47209 0.94153 0.0
C983 C 0.6132 0.42729 0.85498 0.0
H984 H 0.72572 0.59875 0.88467 0.0
H985 H 0.76803 0.50278 0.90649 0.0
H986 H 0.6127 0.51961 0.86866 0.0
H987 H 0.61124 0.53621 0.89887 0.0
H988 H 0.64948 0.57833 0.87766 0.0
H989 H 0.7144 0.42505 0.91401 0.0
H990 H 0.66192 0.41776 0.92718 0.0
H991 H 0.66195 0.4022 0.89666 0.0
H992 H 0.51572 0.41643 0.9341 0.0
H993 H 0.52099 0.37732 0.8617 0.0
H994 H 0.62031 0.50918 0.9385 0.0
H995 H 0.63691 0.46785 0.94621 0.0
H996 H 0.5829 0.46088 0.95696 0.0
H997 H 0.62661 0.46189 0.84707 0.0
H998 H 0.5912 0.40133 0.84146 0.0
H999 H 0.64334 0.42305 0.85898 0.0
C1000 C 0.23376 0.74176 0.38401 0.0
C1001 C 0.22493 0.75871 0.40498 0.0
C1002 C 0.21613 0.69457 0.38106 0.0
C1003 C 0.19046 0.6643 0.39984 0.0
C1004 C 0.18592 0.682 0.42197 0.0
C1005 C 0.20237 0.72909 0.4241 0.0
C1006 C 0.22214 0.67684 0.35734 0.0
C1007 C 0.16129 0.65092 0.44287 0.0
C1008 C 0.09398 0.54368 0.3863 0.0
C1009 C 0.11591 0.51821 0.39033 0.0
C1010 C 0.11839 0.59159 0.38867 0.0
C1011 C 0.16541 0.6141 0.39581 0.0
C1012 C 0.1877 0.58841 0.39974 0.0
C1013 C 0.16264 0.5408 0.39696 0.0
C1014 C 0.09391 0.61814 0.38356 0.0
C1015 C 0.23741 0.61022 0.40766 0.0
H1016 H 0.25056 0.76481 0.3691 0.0
H1017 H 0.19538 0.74247 0.44022 0.0
H1018 H 0.23744 0.65457 0.36012 0.0
H1019 H 0.1879 0.65559 0.34879 0.0
H1020 H 0.24454 0.70499 0.3449 0.0
H1021 H 0.16557 0.67049 0.45958 0.0
H1022 H 0.12389 0.62998 0.43884 0.0
H1023 H 0.17454 0.62697 0.44593 0.0
H1024 H 0.05795 0.52606 0.38109 0.0
H1025 H 0.17946 0.52104 0.4006 0.0
H1026 H 0.11371 0.64548 0.37023 0.0
H1027 H 0.09188 0.63513 0.40013 0.0
H1028 H 0.05836 0.59586 0.37664 0.0
H1029 H 0.25796 0.64717 0.4032 0.0
H1030 H 0.25422 0.59241 0.3993 0.0
H1031 H 0.23842 0.60651 0.42736 0.0
C1032 C 0.57583 0.11312 0.91365 0.0
C1033 C 0.58239 0.1 0.89083 0.0
C1034 C 0.54352 0.12762 0.91747 0.0
C1035 C 0.5174 0.12944 0.89795 0.0
C1036 C 0.52392 0.11625 0.87488 0.0
C1037 C 0.55613 0.10156 0.87163 0.0
C1038 C 0.53725 0.14093 0.94237 0.0
C1039 C 0.49714 0.11809 0.85352 0.0
C1040 C 0.40323 0.12675 0.90613 0.0
C1041 C 0.41602 0.17279 0.90226 0.0
C1042 C 0.43621 0.11251 0.90588 0.0
C1043 C 0.48312 0.14499 0.90145 0.0
C1044 C 0.49655 0.19184 0.89858 0.0
C1045 C 0.46289 0.2052 0.89913 0.0
C1046 C 0.42049 0.06235 0.90931 0.0
C1047 C 0.54615 0.22756 0.89373 0.0
H1048 H 0.59568 0.1116 0.9286 0.0
H1049 H 0.5615 0.09226 0.85389 0.0
H1050 H 0.5449 0.177 0.94249 0.0
H1051 H 0.50083 0.11924 0.94807 0.0
H1052 H 0.55994 0.13728 0.95567 0.0
H1053 H 0.50642 0.10692 0.83676 0.0
H1054 H 0.45958 0.0958 0.85664 0.0
H1055 H 0.50374 0.15355 0.851 0.0
H1056 H 0.36715 0.10146 0.90866 0.0
H1057 H 0.47315 0.24083 0.89608 0.0
H1058 H 0.44205 0.05803 0.92302 0.0
H1059 H 0.42473 0.04783 0.89233 0.0
H1060 H 0.38374 0.04224 0.91484 0.0
H1061 H 0.56926 0.22538 0.90728 0.0
H1062 H 0.55157 0.26291 0.89382 0.0
H1063 H 0.55663 0.22108 0.87599 0.0
C1064 C 0.25554 0.47983 0.41182 0.0
C1065 C 0.24555 0.4369 0.40299 0.0
C1066 C 0.30153 0.51519 0.4146 0.0
C1067 C 0.33787 0.50766 0.40754 0.0
C1068 C 0.32778 0.46438 0.3986 0.0
C1069 C 0.28183 0.42944 0.39673 0.0
C1070 C 0.31125 0.56051 0.42494 0.0
C1071 C 0.36552 0.45507 0.39067 0.0
C1072 C 0.45587 0.60373 0.38945 0.0
C1073 C 0.48275 0.60517 0.40904 0.0
C1074 C 0.40803 0.57371 0.38921 0.0
C1075 C 0.38672 0.54476 0.40913 0.0
C1076 C 0.41336 0.54771 0.42944 0.0
C1077 C 0.46114 0.57775 0.42909 0.0
C1078 C 0.38071 0.57132 0.36719 0.0
C1079 C 0.3917 0.51787 0.45115 0.0
H1080 H 0.22752 0.48559 0.41677 0.0
H1081 H 0.27434 0.39644 0.38974 0.0
H1082 H 0.33833 0.57211 0.43895 0.0
H1083 H 0.32444 0.58691 0.41066 0.0
H1084 H 0.27989 0.55852 0.43288 0.0
H1085 H 0.35168 0.41955 0.38393 0.0
H1086 H 0.38623 0.47933 0.37626 0.0
H1087 H 0.38925 0.46057 0.4058 0.0
H1088 H 0.47252 0.62485 0.37392 0.0
H1089 H 0.48169 0.57963 0.44451 0.0
H1090 H 0.35033 0.57448 0.3722 0.0
H1091 H 0.36755 0.5375 0.35841 0.0
H1092 H 0.40174 0.5986 0.35403 0.0
H1093 H 0.36075 0.51944 0.45684 0.0
H1094 H 0.41612 0.52814 0.46646 0.0
H1095 H 0.38019 0.48166 0.44662 0.0
C1096 C 0.88432 0.45697 0.8802 0.0
C1097 C 0.89963 0.48511 0.90043 0.0
C1098 C 0.86371 0.40923 0.88239 0.0
C1099 C 0.85715 0.38937 0.90544 0.0
C1100 C 0.87099 0.41771 0.92599 0.0
C1101 C 0.89268 0.46539 0.9232 0.0
C1102 C 0.85053 0.38026 0.86003 0.0
C1103 C 0.86359 0.39772 0.95086 0.0
C1104 C 0.77849 0.26003 0.90961 0.0
C1105 C 0.81097 0.2453 0.90998 0.0
C1106 C 0.79288 0.30707 0.90889 0.0
C1107 C 0.84067 0.33967 0.9079 0.0
C1108 C 0.87343 0.32487 0.90861 0.0
C1109 C 0.85821 0.27803 0.90994 0.0
C1110 C 0.75709 0.32187 0.90877 0.0
C1111 C 0.92468 0.35841 0.90714 0.0
H1112 H 0.88948 0.47258 0.86268 0.0
H1113 H 0.90354 0.48735 0.93883 0.0
H1114 H 0.87144 0.36311 0.85873 0.0
H1115 H 0.81377 0.35295 0.86083 0.0
H1116 H 0.856 0.40083 0.84355 0.0
H1117 H 0.87182 0.42397 0.96494 0.0
H1118 H 0.82725 0.36998 0.95308 0.0
H1119 H 0.88579 0.38229 0.95366 0.0
H1120 H 0.74198 0.23488 0.90966 0.0
H1121 H 0.88367 0.26707 0.91006 0.0
H1122 H 0.758 0.33832 0.89142 0.0
H1123 H 0.76486 0.34775 0.92297 0.0
H1124 H 0.72164 0.29261 0.91158 0.0
H1125 H 0.93266 0.37829 0.89024 0.0
H1126 H 0.94559 0.34114 0.90777 0.0
H1127 H 0.93559 0.38325 0.92211 0.0
C1128 C 0.14297 0.31767 0.30501 0.0
C1129 C 0.14377 0.35365 0.31799 0.0
C1130 C 0.14732 0.31975 0.27999 0.0
C1131 C 0.15399 0.35939 0.26763 0.0
C1132 C 0.15563 0.39621 0.28069 0.0
C1133 C 0.14982 0.39262 0.30569 0.0
C1134 C 0.1444 0.27929 0.26677 0.0
C1135 C 0.16407 0.43956 0.26828 0.0
C1136 C 0.20924 0.37119 0.20688 0.0
C1137 C 0.171 0.35403 0.19158 0.0
C1138 C 0.20472 0.37636 0.23147 0.0
C1139 C 0.16051 0.36232 0.24112 0.0
C1140 C 0.12202 0.34672 0.22552 0.0
C1141 C 0.12788 0.34333 0.2008 0.0
C1142 C 0.24691 0.39442 0.24727 0.0
C1143 C 0.07413 0.33038 0.23509 0.0
H1144 H 0.13777 0.28724 0.31438 0.0
H1145 H 0.15058 0.42058 0.31567 0.0
H1146 H 0.11718 0.26737 0.25281 0.0
H1147 H 0.17755 0.28962 0.25759 0.0
H1148 H 0.1366 0.25011 0.27888 0.0
H1149 H 0.16467 0.46518 0.281 0.0
H1150 H 0.19753 0.45516 0.25866 0.0
H1151 H 0.13683 0.43154 0.25472 0.0
H1152 H 0.24256 0.37924 0.19968 0.0
H1153 H 0.09821 0.32928 0.18896 0.0
H1154 H 0.24511 0.36603 0.25817 0.0
H1155 H 0.24831 0.4206 0.25982 0.0
H1156 H 0.27935 0.40986 0.23671 0.0
H1157 H 0.06253 0.29829 0.24541 0.0
H1158 H 0.04878 0.32353 0.22055 0.0
H1159 H 0.07414 0.35605 0.2475 0.0
C1160 C 0.84533 0.148 0.7143 0.0
C1161 C 0.85913 0.19128 0.70439 0.0
C1162 C 0.83602 0.13965 0.7389 0.0
C1163 C 0.84037 0.17535 0.75403 0.0
C1164 C 0.85367 0.21892 0.74408 0.0
C1165 C 0.86296 0.22638 0.71945 0.0
C1166 C 0.82198 0.09271 0.74875 0.0
C1167 C 0.85843 0.25782 0.75952 0.0
C1168 C 0.77726 0.14247 0.8138 0.0
C1169 C 0.81274 0.15003 0.82986 0.0
C1170 C 0.78583 0.15085 0.78917 0.0
C1171 C 0.83098 0.1671 0.78025 0.0
C1172 C 0.86706 0.17518 0.79637 0.0
C1173 C 0.85754 0.16664 0.82095 0.0
C1174 C 0.74643 0.14199 0.77266 0.0
C1175 C 0.91567 0.19245 0.78761 0.0
H1176 H 0.8424 0.12067 0.70288 0.0
H1177 H 0.87356 0.25994 0.71202 0.0
H1178 H 0.84715 0.09543 0.76253 0.0
H1179 H 0.78784 0.07806 0.75761 0.0
H1180 H 0.81994 0.06858 0.73463 0.0
H1181 H 0.86846 0.28945 0.74901 0.0
H1182 H 0.82534 0.24763 0.76875 0.0
H1183 H 0.88485 0.26577 0.77357 0.0
H1184 H 0.74252 0.12967 0.82045 0.0
H1185 H 0.88519 0.17253 0.83316 0.0
H1186 H 0.7414 0.11565 0.75923 0.0
H1187 H 0.75468 0.17371 0.76272 0.0
H1188 H 0.71349 0.13009 0.78245 0.0
H1189 H 0.91609 0.16775 0.77464 0.0
H1190 H 0.93994 0.19748 0.80243 0.0
H1191 H 0.92837 0.22551 0.77807 0.0
C1192 C 0.62613 0.76673 0.20554 0.0
C1193 C 0.61556 0.80082 0.19948 0.0
C1194 C 0.6287 0.75616 0.22968 0.0
C1195 C 0.61953 0.77965 0.24799 0.0
C1196 C 0.60524 0.81142 0.24173 0.0
C1197 C 0.60405 0.82205 0.21758 0.0
C1198 C 0.64471 0.72259 0.23556 0.0
C1199 C 0.5942 0.83659 0.26059 0.0
C1200 C 0.60557 0.74332 0.31347 0.0
C1201 C 0.64829 0.77619 0.323 0.0
C1202 C 0.59597 0.74296 0.28891 0.0
C1203 C 0.63022 0.77568 0.27351 0.0
C1204 C 0.67408 0.80757 0.28294 0.0
C1205 C 0.68239 0.80774 0.30756 0.0
C1206 C 0.54862 0.70889 0.27964 0.0
C1207 C 0.71191 0.84258 0.26713 0.0
H1208 H 0.63567 0.75079 0.19153 0.0
H1209 H 0.59586 0.84844 0.21286 0.0
H1210 H 0.68065 0.7416 0.24241 0.0
H1211 H 0.62302 0.69855 0.24981 0.0
H1212 H 0.64394 0.70249 0.21964 0.0
H1213 H 0.57788 0.85545 0.25282 0.0
H1214 H 0.57072 0.81231 0.27429 0.0
H1215 H 0.62644 0.86162 0.26983 0.0
H1216 H 0.57904 0.71893 0.32535 0.0
H1217 H 0.71565 0.83291 0.31476 0.0
H1218 H 0.55139 0.69061 0.26379 0.0
H1219 H 0.53053 0.72732 0.27379 0.0
H1220 H 0.52721 0.68323 0.29341 0.0
H1221 H 0.71722 0.82551 0.25147 0.0
H1222 H 0.74521 0.86219 0.27682 0.0
H1223 H 0.70174 0.86715 0.26018 0.0
C1224 C 0.80702 0.61276 0.70471 0.0
C1225 C 0.84314 0.6448 0.69031 0.0
C1226 C 0.81354 0.60887 0.72924 0.0
C1227 C 0.85715 0.63802 0.73976 0.0
C1228 C 0.89441 0.66875 0.72509 0.0
C1229 C 0.88702 0.67163 0.70051 0.0
C1230 C 0.773 0.57529 0.74413 0.0
C1231 C 0.9414 0.70056 0.73558 0.0
C1232 C 0.85541 0.67142 0.80444 0.0
C1233 C 0.86922 0.64404 0.81691 0.0
C1234 C 0.85192 0.67 0.77942 0.0
C1235 C 0.86212 0.64018 0.76635 0.0
C1236 C 0.87595 0.61226 0.77876 0.0
C1237 C 0.87952 0.61464 0.80391 0.0
C1238 C 0.83721 0.70052 0.76698 0.0
C1239 C 0.88671 0.57976 0.76545 0.0
H1240 H 0.77311 0.59151 0.69694 0.0
H1241 H 0.91514 0.69644 0.68953 0.0
H1242 H 0.783 0.55495 0.75576 0.0
H1243 H 0.76181 0.59431 0.75599 0.0
H1244 H 0.74315 0.55139 0.7329 0.0
H1245 H 0.96788 0.71866 0.72153 0.0
H1246 H 0.9395 0.72657 0.74695 0.0
H1247 H 0.95275 0.68129 0.74719 0.0
H1248 H 0.84751 0.69441 0.81423 0.0
H1249 H 0.8902 0.59336 0.81338 0.0
H1250 H 0.80475 0.67928 0.75689 0.0
H1251 H 0.86387 0.72294 0.75386 0.0
H1252 H 0.83151 0.72252 0.77971 0.0
H1253 H 0.85595 0.55474 0.75519 0.0
H1254 H 0.89735 0.56063 0.77766 0.0
H1255 H 0.91477 0.59899 0.75235 0.0
C1256 C 0.18323 0.8388 0.20709 0.0
C1257 C 0.15405 0.79436 0.19861 0.0
C1258 C 0.19444 0.84675 0.23155 0.0
C1259 C 0.17718 0.80916 0.24764 0.0
C1260 C 0.15005 0.76399 0.23875 0.0
C1261 C 0.13802 0.75723 0.21442 0.0
C1262 C 0.22236 0.89549 0.24037 0.0
C1263 C 0.13226 0.72288 0.25508 0.0
C1264 C 0.23189 0.83083 0.3096 0.0
C1265 C 0.19877 0.83377 0.32365 0.0
C1266 C 0.2249 0.82173 0.28494 0.0
C1267 C 0.1846 0.81714 0.27395 0.0
C1268 C 0.15109 0.82013 0.28812 0.0
C1269 C 0.15823 0.82762 0.31288 0.0
C1270 C 0.26061 0.8171 0.27065 0.0
C1271 C 0.10818 0.81656 0.27706 0.0
H1272 H 0.19488 0.8675 0.19486 0.0
H1273 H 0.11528 0.72286 0.20778 0.0
H1274 H 0.20078 0.9033 0.25237 0.0
H1275 H 0.25239 0.89998 0.25097 0.0
H1276 H 0.23506 0.9207 0.22546 0.0
H1277 H 0.11665 0.69014 0.24494 0.0
H1278 H 0.16064 0.72518 0.2664 0.0
H1279 H 0.1057 0.72208 0.26723 0.0
H1280 H 0.2632 0.83541 0.31796 0.0
H1281 H 0.13286 0.83045 0.32367 0.0
H1282 H 0.27593 0.84453 0.25694 0.0
H1283 H 0.2441 0.78382 0.26104 0.0
H1284 H 0.28881 0.81922 0.28209 0.0
H1285 H 0.11791 0.84291 0.26288 0.0
H1286 H 0.08629 0.82118 0.29043 0.0
H1287 H 0.08731 0.78259 0.26846 0.0
C1288 C 0.32858 0.16954 0.80534 0.0
C1289 C 0.35299 0.21147 0.81751 0.0
C1290 C 0.3325 0.16679 0.78053 0.0
C1291 C 0.36181 0.2069 0.7674 0.0
C1292 C 0.38722 0.24929 0.77955 0.0
C1293 C 0.38244 0.25112 0.8045 0.0
C1294 C 0.30474 0.12086 0.76834 0.0
C1295 C 0.41904 0.2927 0.76614 0.0
C1296 C 0.39579 0.18217 0.70689 0.0
C1297 C 0.36322 0.18388 0.69169 0.0
C1298 C 0.39739 0.19208 0.73137 0.0
C1299 C 0.36549 0.20376 0.74098 0.0
C1300 C 0.33387 0.20754 0.72555 0.0
C1301 C 0.33318 0.19767 0.70108 0.0
C1302 C 0.43183 0.18791 0.74715 0.0
C1303 C 0.2992 0.21979 0.73509 0.0
H1304 H 0.30564 0.13864 0.81516 0.0
H1305 H 0.40135 0.28365 0.81374 0.0
H1306 H 0.28149 0.12269 0.75475 0.0
H1307 H 0.32815 0.11176 0.75883 0.0
H1308 H 0.2835 0.09293 0.78114 0.0
H1309 H 0.43723 0.32269 0.77825 0.0
H1310 H 0.44513 0.28824 0.75612 0.0
H1311 H 0.39905 0.30017 0.75282 0.0
H1312 H 0.41947 0.172 0.69977 0.0
H1313 H 0.30805 0.19931 0.68946 0.0
H1314 H 0.41336 0.15796 0.75922 0.0
H1315 H 0.45056 0.21876 0.75859 0.0
H1316 H 0.45741 0.18341 0.7366 0.0
H1317 H 0.27383 0.19153 0.74657 0.0
H1318 H 0.28018 0.2258 0.72052 0.0
H1319 H 0.31663 0.25099 0.74638 0.0
C1320 C 0.30617 0.25172 0.96854 0.0
C1321 C 0.27814 0.21427 0.95376 0.0
C1322 C 0.28859 0.26106 0.98928 0.0
C1323 C 0.24152 0.23263 0.9954 0.0
C1324 C 0.21305 0.19447 0.98068 0.0
C1325 C 0.23175 0.18557 0.96013 0.0
C1326 C 0.32043 0.30176 1.00454 0.0
C1327 C 0.16261 0.1636 0.98635 0.0
C1328 C 0.21264 0.23589 0.06094 0.0
C1329 C 0.19706 0.26773 0.06092 0.0
C1330 C 0.22563 0.22309 0.03971 0.0
C1331 C 0.2229 0.24228 0.01766 0.0
C1332 C 0.20547 0.27305 0.0173 0.0
C1333 C 0.19285 0.2855 0.03893 0.0
C1334 C 0.24399 0.19027 0.04106 0.0
C1335 C 0.20158 0.29397 0.99415 0.0
H1336 H 0.34198 0.27427 0.96372 0.0
H1337 H 0.20959 0.15708 0.9486 0.0
H1338 H 0.30712 0.32598 1.00568 0.0
H1339 H 0.32159 0.29029 0.02302 0.0
H1340 H 0.35616 0.32042 0.99738 0.0
H1341 H 0.14519 0.13511 0.97329 0.0
H1342 H 0.15871 0.14884 1.00453 0.0
H1343 H 0.14469 0.18383 0.98632 0.0
H1344 H 0.21583 0.22158 0.07774 0.0
H1345 H 0.1808 0.30999 0.03866 0.0
H1346 H 0.2808 0.20815 0.0356 0.0
H1347 H 0.2249 0.16132 0.02848 0.0
H1348 H 0.24129 0.17618 0.05934 0.0
H1349 H 0.23656 0.31701 0.98686 0.0
H1350 H 0.18374 0.31405 0.99653 0.0
H1351 H 0.18252 0.26681 0.98063 0.0
C1352 C 0.03641 0.31243 0.46176 0.0
C1353 C 0.07313 0.30463 0.45684 0.0
C1354 C 0.01319 0.30013 0.48374 0.0
C1355 C 0.02741 0.28026 0.50173 0.0
C1356 C 0.06467 0.27246 0.49705 0.0
C1357 C 0.08674 0.28417 0.47451 0.0
C1358 C 0.97313 0.30827 0.48761 0.0
C1359 C 0.08144 0.25216 0.51595 0.0
C1360 C 0.99126 0.29214 0.56476 0.0
C1361 C 0.95278 0.24863 0.56878 0.0
C1362 C 0.0169 0.30224 0.54347 0.0
C1363 C 0.00323 0.2684 0.5254 0.0
C1364 C 0.96424 0.22445 0.5293 0.0
C1365 C 0.93986 0.21493 0.55103 0.0
C1366 C 0.05859 0.34929 0.54027 0.0
C1367 C 0.94772 0.18772 0.51032 0.0
H1368 H 0.025 0.32753 0.44815 0.0
H1369 H 0.11495 0.27795 0.47085 0.0
H1370 H 0.94175 0.27564 0.49249 0.0
H1371 H 0.98083 0.33243 0.50269 0.0
H1372 H 0.96535 0.32256 0.4715 0.0
H1373 H 0.11115 0.24883 0.50971 0.0
H1374 H 0.09197 0.27398 0.53221 0.0
H1375 H 0.05308 0.2178 0.52125 0.0
H1376 H 0.00204 0.31815 0.57854 0.0
H1377 H 0.91034 0.18115 0.55404 0.0
H1378 H 0.05253 0.36735 0.52532 0.0
H1379 H 0.08917 0.34628 0.5355 0.0
H1380 H 0.06667 0.37063 0.55664 0.0
H1381 H 0.93777 0.19949 0.49398 0.0
H1382 H 0.91762 0.15496 0.51633 0.0
H1383 H 0.97597 0.18119 0.50524 0.0
C1384 C 0.70529 0.96764 0.07065 0.0
C1385 C 0.68161 0.91947 0.06952 0.0
C1386 C 0.71647 0.9946 0.04995 0.0
C1387 C 0.70429 0.97318 0.02728 0.0
C1388 C 0.68078 0.9246 0.02585 0.0
C1389 C 0.66945 0.89825 0.04702 0.0
C1390 C 0.74138 0.04618 0.05239 0.0
C1391 C 0.66792 0.90054 1.00196 0.0
C1392 C 0.70143 0.04514 0.97516 0.0
C1393 C 0.74529 0.06152 0.96508 0.0
C1394 C 0.68737 0.01598 0.99526 0.0
C1395 C 0.71752 0.00213 1.00522 0.0
C1396 C 0.76168 0.01834 0.99499 0.0
C1397 C 0.77516 0.04813 0.97528 0.0
C1398 C 0.64031 0.0001 1.00589 0.0
C1399 C 0.79468 0.00398 1.00479 0.0
H1400 H 0.71485 0.98465 0.08788 0.0
H1401 H 0.6512 0.86116 0.04594 0.0
H1402 H 0.77529 0.0615 0.04325 0.0
H1403 H 0.72114 0.06004 0.04361 0.0
H1404 H 0.7473 0.05746 0.07138 0.0
H1405 H 0.64926 0.86264 1.00385 0.0
H1406 H 0.64582 0.9106 0.99181 0.0
H1407 H 0.69949 0.91119 0.99118 0.0
H1408 H 0.67797 0.05493 0.96727 0.0
H1409 H 0.80881 0.0598 0.96738 0.0
H1410 H 0.64398 0.01174 0.02474 0.0
H1411 H 0.61996 0.96211 1.00604 0.0
H1412 H 0.62067 0.01332 0.99585 0.0
H1413 H 0.80388 0.01587 0.02354 0.0
H1414 H 0.82695 0.01801 0.99415 0.0
H1415 H 0.77792 0.96605 1.00496 0.0
C1416 C 0.80438 0.71268 0.53881 0.0
C1417 C 0.7885 0.71317 0.56188 0.0
C1418 C 0.7921 0.73105 0.51931 0.0
C1419 C 0.76531 0.75255 0.52324 0.0
C1420 C 0.75194 0.75565 0.5469 0.0
C1421 C 0.76272 0.73501 0.56578 0.0
C1422 C 0.80809 0.72716 0.49465 0.0
C1423 C 0.72558 0.7802 0.55226 0.0
C1424 C 0.7551 0.82198 0.47144 0.0
C1425 C 0.71134 0.7909 0.4622 0.0
C1426 C 0.77285 0.8107 0.49171 0.0
C1427 C 0.74671 0.76703 0.50265 0.0
C1428 C 0.70221 0.73613 0.49368 0.0
C1429 C 0.68486 0.74875 0.47403 0.0
C1430 C 0.82015 0.84483 0.50093 0.0
C1431 C 0.67372 0.68852 0.504 0.0
H1432 H 0.82507 0.69657 0.53589 0.0
H1433 H 0.75147 0.73647 0.58378 0.0
H1434 H 0.7841 0.72526 0.48038 0.0
H1435 H 0.84232 0.75779 0.49138 0.0
H1436 H 0.81232 0.69655 0.49324 0.0
H1437 H 0.72374 0.7854 0.57176 0.0
H1438 H 0.74206 0.8141 0.54324 0.0
H1439 H 0.68988 0.76 0.54523 0.0
H1440 H 0.77617 0.85432 0.46234 0.0
H1441 H 0.65107 0.72416 0.46715 0.0
H1442 H 0.84427 0.83189 0.49747 0.0
H1443 H 0.81908 0.84901 0.52057 0.0
H1444 H 0.83402 0.87889 0.49224 0.0
H1445 H 0.69347 0.67012 0.50304 0.0
H1446 H 0.64044 0.66794 0.49442 0.0
H1447 H 0.66622 0.69056 0.52313 0.0
C1448 C 0.91999 0.66011 0.97172 0.0
C1449 C 0.90986 0.68927 0.95829 0.0
C1450 C 0.94444 0.67448 0.99338 0.0
C1451 C 0.9596 0.71937 1.00191 0.0
C1452 C 0.94817 0.74853 0.98887 0.0
C1453 C 0.92326 0.73307 0.96726 0.0
C1454 C 0.95514 0.64192 1.0068 0.0
C1455 C 0.9637 0.79663 0.99732 0.0
C1456 C 0.98979 0.73832 0.06809 0.0
C1457 C 0.03795 0.75693 0.06796 0.0
C1458 C 0.9642 0.72736 0.04677 0.0
C1459 C 0.9871 0.73523 0.02455 0.0
C1460 C 0.03586 0.75527 0.02417 0.0
C1461 C 0.06073 0.76582 0.04587 0.0
C1462 C 0.91237 0.70596 0.04811 0.0
C1463 C 0.06163 0.7645 1.00083 0.0
H1464 H 0.9099 0.62623 0.96491 0.0
H1465 H 0.91624 0.75608 0.95683 0.0
H1466 H 0.94195 0.63733 0.02539 0.0
H1467 H 0.93976 0.60773 0.99812 0.0
H1468 H 0.99306 0.6565 1.00792 0.0
H1469 H 0.95022 0.81426 0.98583 0.0
H1470 H 0.95216 0.79605 0.01598 0.0
H1471 H 0.00197 0.81699 0.99732 0.0
H1472 H 0.97166 0.73149 0.08499 0.0
H1473 H 0.09785 0.78036 0.04554 0.0
H1474 H 0.89566 0.67048 0.041 0.0
H1475 H 0.90074 0.72543 0.03684 0.0
H1476 H 0.90008 0.70472 0.06669 0.0
H1477 H 0.05134 0.7316 0.99161 0.0
H1478 H 0.09965 0.78302 1.00344 0.0
H1479 H 0.05254 0.78506 0.98881 0.0
C1480 C 0.21627 0.919 0.47711 0.0
C1481 C 0.2473 0.92877 0.45817 0.0
C1482 C 0.2294 0.9472 0.49765 0.0
C1483 C 0.27406 0.98664 0.49891 0.0
C1484 C 0.30516 0.99669 0.47974 0.0
C1485 C 0.29166 0.96749 0.45988 0.0
C1486 C 0.19567 0.93478 0.51803 0.0
C1487 C 0.35276 0.03868 0.48003 0.0
C1488 C 0.29975 0.08552 0.54122 0.0
C1489 C 0.32516 0.07919 0.55931 0.0
C1490 C 0.28225 0.05531 0.52161 0.0
C1491 C 0.28932 0.01719 0.52037 0.0
C1492 C 0.31438 0.01034 0.53878 0.0
C1493 C 0.33242 0.04164 0.55781 0.0
C1494 C 0.25674 0.0645 0.50205 0.0
C1495 C 0.32215 0.96985 0.5384 0.0
H1496 H 0.18194 0.88935 0.47593 0.0
H1497 H 0.31591 0.9759 0.44531 0.0
H1498 H 0.21113 0.93064 0.53477 0.0
H1499 H 0.18802 0.96284 0.52112 0.0
H1500 H 0.16272 0.90258 0.51456 0.0
H1501 H 0.37214 0.04259 0.46325 0.0
H1502 H 0.35007 0.06992 0.48262 0.0
H1503 H 0.37304 0.03671 0.49525 0.0
H1504 H 0.29359 0.11416 0.54238 0.0
H1505 H 0.35119 0.03584 0.57194 0.0
H1506 H 0.22177 0.03436 0.49969 0.0
H1507 H 0.27525 0.07006 0.48482 0.0
H1508 H 0.25331 0.09502 0.50588 0.0
H1509 H 0.28872 0.93753 0.5364 0.0
H1510 H 0.33947 0.96758 0.55491 0.0
H1511 H 0.34379 0.97248 0.5228 0.0
loop_
_geom_bond_atom_site_label_1
_geom_bond_atom_site_label_2
_geom_bond_distance
_geom_bond_site_symmetry_2
_ccdc_geom_bond_type
Co0 N5 2.057 . S
Co0 O17 2.021 . S
Co0 O20 2.062 . S
Co0 O24 2.117 . S
Co0 O25 2.020 . S
C1 O21 1.259 . S
C1 O24 1.258 . S
Co2 N11 2.057 . S
Co2 O18 2.117 . S
Co2 O19 2.020 . S
Co2 O21 2.021 . S
Co2 O26 2.062 . S
C3 N5 1.316 . S
C3 N6 1.347 . S
C3 H8 0.931 . S
C4 N5 1.375 . S
C4 C7 1.350 . S
C4 H9 0.930 . S
N5 Co0 2.057 . S
N5 C3 1.316 . S
N5 C4 1.375 . S
N6 C3 1.347 . S
N6 C7 1.373 . S
C7 C4 1.350 . S
C7 N6 1.373 . S
C7 H28 0.931 . S
H8 C3 0.931 . S
H9 C4 0.930 . S
C10 O17 1.259 . S
C10 O18 1.258 . S
N11 Co2 2.057 . S
N11 C12 1.316 . S
N11 C13 1.375 . S
C12 N11 1.316 . S
C12 N14 1.347 . S
C12 H23 0.931 . S
C13 N11 1.375 . S
C13 C15 1.350 . S
C13 H22 0.930 . S
N14 C12 1.347 . S
N14 C15 1.373 . S
C15 C13 1.350 . S
C15 N14 1.373 . S
C15 H29 0.931 . S
C16 O19 1.256 . S
C16 O20 1.255 . S
O17 Co0 2.021 . S
O17 C10 1.259 . S
O18 Co2 2.117 . S
O18 C10 1.258 . S
O19 Co2 2.020 . S
O19 C16 1.256 . S
O20 Co0 2.062 . S
O20 C16 1.255 . S
O21 C1 1.259 . S
O21 Co2 2.021 . S
H22 C13 0.930 . S
H23 C12 0.931 . S
O24 Co0 2.117 . S
O24 C1 1.258 . S
O25 Co0 2.020 . S
O25 C27 1.256 . S
O26 Co2 2.062 . S
O26 C27 1.255 . S
C27 O25 1.256 . S
C27 O26 1.255 . S
H28 C7 0.931 . S
H29 C15 0.931 . S
Co30 N35 2.057 . S
Co30 O47 2.021 . S
Co30 O50 2.062 . S
Co30 O54 2.117 . S
Co30 O55 2.020 . S
C31 O51 1.259 . S
C31 O54 1.258 . S
Co32 N41 2.057 . S
Co32 O48 2.117 . S
Co32 O49 2.020 . S
Co32 O51 2.021 . S
Co32 O56 2.062 . S
C33 N35 1.316 . S
C33 N36 1.347 . S
C33 H38 0.931 . S
C34 N35 1.375 . S
C34 C37 1.350 . S
C34 H39 0.930 . S
N35 Co30 2.057 . S
N35 C33 1.316 . S
N35 C34 1.375 . S
N36 C33 1.347 . S
N36 C37 1.373 . S
C37 C34 1.350 . S
C37 N36 1.373 . S
C37 H58 0.931 1_545 S
H38 C33 0.931 . S
H39 C34 0.930 . S
C40 O47 1.259 . S
C40 O48 1.258 . S
N41 Co32 2.057 . S
N41 C42 1.316 . S
N41 C43 1.375 . S
C42 N41 1.316 . S
C42 N44 1.347 . S
C42 H53 0.931 . S
C43 N41 1.375 . S
C43 C45 1.350 . S
C43 H52 0.930 . S
N44 C42 1.347 . S
N44 C45 1.373 . S
C45 C43 1.350 . S
C45 N44 1.373 . S
C45 H59 0.931 . S
C46 O49 1.256 . S
C46 O50 1.255 . S
O47 Co30 2.021 . S
O47 C40 1.259 . S
O48 Co32 2.117 . S
O48 C40 1.258 . S
O49 Co32 2.020 . S
O49 C46 1.256 . S
O50 Co30 2.062 . S
O50 C46 1.255 . S
O51 C31 1.259 . S
O51 Co32 2.021 . S
H52 C43 0.930 . S
H53 C42 0.931 . S
O54 Co30 2.117 . S
O54 C31 1.258 . S
O55 Co30 2.020 . S
O55 C57 1.256 . S
O56 Co32 2.062 . S
O56 C57 1.255 . S
C57 O55 1.256 . S
C57 O56 1.255 . S
H58 C37 0.931 1_565 S
H59 C45 0.931 . S
Co60 N65 2.057 . S
Co60 O77 2.021 . S
Co60 O80 2.062 . S
Co60 O84 2.117 . S
Co60 O85 2.020 . S
C61 O81 1.259 . S
C61 O84 1.258 . S
Co62 N71 2.057 . S
Co62 O78 2.117 . S
Co62 O79 2.020 . S
Co62 O81 2.021 . S
Co62 O86 2.062 . S
C63 N65 1.316 . S
C63 N66 1.347 . S
C63 H68 0.931 . S
C64 N65 1.375 . S
C64 C67 1.350 . S
C64 H69 0.930 . S
N65 Co60 2.057 . S
N65 C63 1.316 . S
N65 C64 1.375 . S
N66 C63 1.347 . S
N66 C67 1.373 . S
C67 C64 1.350 . S
C67 N66 1.373 . S
C67 H88 0.931 . S
H68 C63 0.931 . S
H69 C64 0.930 . S
C70 O77 1.259 . S
C70 O78 1.258 . S
N71 Co62 2.057 . S
N71 C72 1.316 1_565 S
N71 C73 1.375 . S
C72 N71 1.316 1_545 S
C72 N74 1.347 . S
C72 H83 0.931 . S
C73 N71 1.375 . S
C73 C75 1.350 1_565 S
C73 H82 0.930 . S
N74 C72 1.347 . S
N74 C75 1.373 . S
C75 C73 1.350 1_545 S
C75 N74 1.373 . S
C75 H89 0.931 . S
C76 O79 1.256 . S
C76 O80 1.255 . S
O77 Co60 2.021 . S
O77 C70 1.259 . S
O78 Co62 2.117 . S
O78 C70 1.258 . S
O79 Co62 2.020 . S
O79 C76 1.256 . S
O80 Co60 2.062 . S
O80 C76 1.255 . S
O81 C61 1.259 . S
O81 Co62 2.021 . S
H82 C73 0.930 . S
H83 C72 0.931 . S
O84 Co60 2.117 . S
O84 C61 1.258 . S
O85 Co60 2.020 . S
O85 C87 1.256 . S
O86 Co62 2.062 . S
O86 C87 1.255 . S
C87 O85 1.256 . S
C87 O86 1.255 . S
H88 C67 0.931 . S
H89 C75 0.931 . S
Co90 N95 2.057 . S
Co90 O107 2.021 . S
Co90 O110 2.062 . S
Co90 O114 2.117 . S
Co90 O115 2.020 . S
C91 O111 1.259 . S
C91 O114 1.258 . S
Co92 N101 2.057 . S
Co92 O108 2.117 . S
Co92 O109 2.020 . S
Co92 O111 2.021 . S
Co92 O116 2.062 . S
C93 N95 1.316 . S
C93 N96 1.347 . S
C93 H98 0.931 . S
C94 N95 1.375 . S
C94 C97 1.350 . S
C94 H99 0.930 . S
N95 Co90 2.057 . S
N95 C93 1.316 . S
N95 C94 1.375 . S
N96 C93 1.347 . S
N96 C97 1.373 . S
C97 C94 1.350 . S
C97 N96 1.373 . S
C97 H118 0.931 1_655 S
H98 C93 0.931 . S
H99 C94 0.930 . S
C100 O107 1.259 . S
C100 O108 1.258 . S
N101 Co92 2.057 . S
N101 C102 1.316 . S
N101 C103 1.375 . S
C102 N101 1.316 . S
C102 N104 1.347 . S
C102 H113 0.931 . S
C103 N101 1.375 . S
C103 C105 1.350 . S
C103 H112 0.930 . S
N104 C102 1.347 . S
N104 C105 1.373 . S
C105 C103 1.350 . S
C105 N104 1.373 . S
C105 H119 0.931 . S
C106 O109 1.256 . S
C106 O110 1.255 . S
O107 Co90 2.021 . S
O107 C100 1.259 . S
O108 Co92 2.117 . S
O108 C100 1.258 . S
O109 Co92 2.020 . S
O109 C106 1.256 . S
O110 Co90 2.062 . S
O110 C106 1.255 . S
O111 C91 1.259 . S
O111 Co92 2.021 . S
H112 C103 0.930 . S
H113 C102 0.931 . S
O114 Co90 2.117 . S
O114 C91 1.258 . S
O115 Co90 2.020 . S
O115 C117 1.256 . S
O116 Co92 2.062 . S
O116 C117 1.255 . S
C117 O115 1.256 . S
C117 O116 1.255 . S
H118 C97 0.931 1_455 S
H119 C105 0.931 . S
Co120 N125 2.057 . S
Co120 O137 2.021 . S
Co120 O140 2.062 . S
Co120 O144 2.117 . S
Co120 O145 2.020 . S
C121 O141 1.259 . S
C121 O144 1.258 . S
Co122 N131 2.057 . S
Co122 O138 2.117 . S
Co122 O139 2.020 . S
Co122 O141 2.021 . S
Co122 O146 2.062 . S
C123 N125 1.316 . S
C123 N126 1.347 . S
C123 H128 0.931 . S
C124 N125 1.375 . S
C124 C127 1.350 . S
C124 H129 0.930 . S
N125 Co120 2.057 . S
N125 C123 1.316 . S
N125 C124 1.375 . S
N126 C123 1.347 . S
N126 C127 1.373 . S
C127 C124 1.350 . S
C127 N126 1.373 . S
C127 H148 0.931 . S
H128 C123 0.931 . S
H129 C124 0.930 . S
C130 O137 1.259 . S
C130 O138 1.258 . S
N131 Co122 2.057 . S
N131 C132 1.316 1_455 S
N131 C133 1.375 . S
C132 N131 1.316 1_655 S
C132 N134 1.347 . S
C132 H143 0.931 . S
C133 N131 1.375 . S
C133 C135 1.350 1_455 S
C133 H142 0.930 . S
N134 C132 1.347 . S
N134 C135 1.373 . S
C135 C133 1.350 1_655 S
C135 N134 1.373 . S
C135 H149 0.931 . S
C136 O139 1.256 . S
C136 O140 1.255 . S
O137 Co120 2.021 . S
O137 C130 1.259 . S
O138 Co122 2.117 . S
O138 C130 1.258 . S
O139 Co122 2.020 . S
O139 C136 1.256 . S
O140 Co120 2.062 . S
O140 C136 1.255 . S
O141 C121 1.259 . S
O141 Co122 2.021 . S
H142 C133 0.930 . S
H143 C132 0.931 . S
O144 Co120 2.117 . S
O144 C121 1.258 . S
O145 Co120 2.020 . S
O145 C147 1.256 . S
O146 Co122 2.062 . S
O146 C147 1.255 . S
C147 O145 1.256 . S
C147 O146 1.255 . S
H148 C127 0.931 . S
H149 C135 0.931 . S
Co150 N155 2.057 . S
Co150 O167 2.021 . S
Co150 O170 2.062 . S
Co150 O174 2.117 . S
Co150 O175 2.020 . S
C151 O171 1.259 . S
C151 O174 1.258 . S
Co152 N161 2.057 . S
Co152 O168 2.117 . S
Co152 O169 2.020 . S
Co152 O171 2.021 . S
Co152 O176 2.062 . S
C153 N155 1.316 . S
C153 N156 1.347 . S
C153 H158 0.931 . S
C154 N155 1.375 . S
C154 C157 1.350 . S
C154 H159 0.930 . S
N155 Co150 2.057 . S
N155 C153 1.316 . S
N155 C154 1.375 . S
N156 C153 1.347 . S
N156 C157 1.373 . S
C157 C154 1.350 . S
C157 N156 1.373 . S
C157 H178 0.931 . S
H158 C153 0.931 . S
H159 C154 0.930 . S
C160 O167 1.259 . S
C160 O168 1.258 . S
N161 Co152 2.057 . S
N161 C162 1.316 . S
N161 C163 1.375 . S
C162 N161 1.316 . S
C162 N164 1.347 . S
C162 H173 0.931 . S
C163 N161 1.375 . S
C163 C165 1.350 . S
C163 H172 0.930 . S
N164 C162 1.347 . S
N164 C165 1.373 . S
C165 C163 1.350 . S
C165 N164 1.373 . S
C165 H179 0.931 . S
C166 O169 1.256 . S
C166 O170 1.255 . S
O167 Co150 2.021 . S
O167 C160 1.259 . S
O168 Co152 2.117 . S
O168 C160 1.258 . S
O169 Co152 2.020 . S
O169 C166 1.256 . S
O170 Co150 2.062 . S
O170 C166 1.255 . S
O171 C151 1.259 . S
O171 Co152 2.021 . S
H172 C163 0.930 . S
H173 C162 0.931 . S
O174 Co150 2.117 . S
O174 C151 1.258 . S
O175 Co150 2.020 . S
O175 C177 1.256 . S
O176 Co152 2.062 . S
O176 C177 1.255 . S
C177 O175 1.256 . S
C177 O176 1.255 . S
H178 C157 0.931 . S
H179 C165 0.931 . S
Co180 N185 2.057 . S
Co180 O197 2.021 . S
Co180 O200 2.062 . S
Co180 O204 2.117 . S
Co180 O205 2.020 . S
C181 O201 1.259 . S
C181 O204 1.258 . S
Co182 N191 2.057 . S
Co182 O198 2.117 . S
Co182 O199 2.020 . S
Co182 O201 2.021 . S
Co182 O206 2.062 . S
C183 N185 1.316 . S
C183 N186 1.347 . S
C183 H188 0.931 . S
C184 N185 1.375 . S
C184 C187 1.350 . S
C184 H189 0.930 . S
N185 Co180 2.057 . S
N185 C183 1.316 . S
N185 C184 1.375 . S
N186 C183 1.347 . S
N186 C187 1.373 . S
C187 C184 1.350 . S
C187 N186 1.373 . S
C187 H208 0.931 1_565 S
H188 C183 0.931 . S
H189 C184 0.930 . S
C190 O197 1.259 . S
C190 O198 1.258 . S
N191 Co182 2.057 . S
N191 C192 1.316 . S
N191 C193 1.375 . S
C192 N191 1.316 . S
C192 N194 1.347 . S
C192 H203 0.931 . S
C193 N191 1.375 . S
C193 C195 1.350 . S
C193 H202 0.930 . S
N194 C192 1.347 . S
N194 C195 1.373 . S
C195 C193 1.350 . S
C195 N194 1.373 . S
C195 H209 0.931 . S
C196 O199 1.256 . S
C196 O200 1.255 . S
O197 Co180 2.021 . S
O197 C190 1.259 . S
O198 Co182 2.117 . S
O198 C190 1.258 . S
O199 Co182 2.020 . S
O199 C196 1.256 . S
O200 Co180 2.062 . S
O200 C196 1.255 . S
O201 C181 1.259 . S
O201 Co182 2.021 . S
H202 C193 0.930 . S
H203 C192 0.931 . S
O204 Co180 2.117 . S
O204 C181 1.258 . S
O205 Co180 2.020 . S
O205 C207 1.256 . S
O206 Co182 2.062 . S
O206 C207 1.255 . S
C207 O205 1.256 . S
C207 O206 1.255 . S
H208 C187 0.931 1_545 S
H209 C195 0.931 . S
Co210 N215 2.057 . S
Co210 O227 2.021 . S
Co210 O230 2.062 . S
Co210 O234 2.117 . S
Co210 O235 2.020 . S
C211 O231 1.259 . S
C211 O234 1.258 . S
Co212 N221 2.057 . S
Co212 O228 2.117 . S
Co212 O229 2.020 . S
Co212 O231 2.021 . S
Co212 O236 2.062 . S
C213 N215 1.316 . S
C213 N216 1.347 . S
C213 H218 0.931 . S
C214 N215 1.375 . S
C214 C217 1.350 . S
C214 H219 0.930 . S
N215 Co210 2.057 . S
N215 C213 1.316 . S
N215 C214 1.375 . S
N216 C213 1.347 . S
N216 C217 1.373 . S
C217 C214 1.350 . S
C217 N216 1.373 . S
C217 H238 0.931 . S
H218 C213 0.931 . S
H219 C214 0.930 . S
C220 O227 1.259 . S
C220 O228 1.258 . S
N221 Co212 2.057 . S
N221 C222 1.316 . S
N221 C223 1.375 . S
C222 N221 1.316 . S
C222 N224 1.347 . S
C222 H233 0.931 . S
C223 N221 1.375 . S
C223 C225 1.350 . S
C223 H232 0.930 . S
N224 C222 1.347 . S
N224 C225 1.373 . S
C225 C223 1.350 . S
C225 N224 1.373 . S
C225 H239 0.931 . S
C226 O229 1.256 . S
C226 O230 1.255 . S
O227 Co210 2.021 . S
O227 C220 1.259 . S
O228 Co212 2.117 . S
O228 C220 1.258 . S
O229 Co212 2.020 . S
O229 C226 1.256 . S
O230 Co210 2.062 . S
O230 C226 1.255 . S
O231 C211 1.259 . S
O231 Co212 2.021 . S
H232 C223 0.930 . S
H233 C222 0.931 . S
O234 Co210 2.117 . S
O234 C211 1.258 . S
O235 Co210 2.020 . S
O235 C237 1.256 . S
O236 Co212 2.062 . S
O236 C237 1.255 . S
C237 O235 1.256 . S
C237 O236 1.255 . S
H238 C217 0.931 . S
H239 C225 0.931 . S
Co240 N245 2.057 . S
Co240 O257 2.021 . S
Co240 O260 2.062 . S
Co240 O264 2.117 . S
Co240 O265 2.020 . S
C241 O261 1.259 . S
C241 O264 1.258 . S
Co242 N251 2.057 . S
Co242 O258 2.117 . S
Co242 O259 2.020 . S
Co242 O261 2.021 . S
Co242 O266 2.062 . S
C243 N245 1.316 . S
C243 N246 1.347 . S
C243 H248 0.931 . S
C244 N245 1.375 . S
C244 C247 1.350 . S
C244 H249 0.930 . S
N245 Co240 2.057 . S
N245 C243 1.316 . S
N245 C244 1.375 . S
N246 C243 1.347 . S
N246 C247 1.373 . S
C247 C244 1.350 . S
C247 N246 1.373 . S
C247 H268 0.931 1_455 S
H248 C243 0.931 . S
H249 C244 0.930 . S
C250 O257 1.259 . S
C250 O258 1.258 . S
N251 Co242 2.057 . S
N251 C252 1.316 . S
N251 C253 1.375 . S
C252 N251 1.316 . S
C252 N254 1.347 . S
C252 H263 0.931 . S
C253 N251 1.375 . S
C253 C255 1.350 . S
C253 H262 0.930 . S
N254 C252 1.347 . S
N254 C255 1.373 . S
C255 C253 1.350 . S
C255 N254 1.373 . S
C255 H269 0.931 . S
C256 O259 1.256 . S
C256 O260 1.255 . S
O257 Co240 2.021 . S
O257 C250 1.259 . S
O258 Co242 2.117 . S
O258 C250 1.258 . S
O259 Co242 2.020 . S
O259 C256 1.256 . S
O260 Co240 2.062 . S
O260 C256 1.255 . S
O261 C241 1.259 . S
O261 Co242 2.021 . S
H262 C253 0.930 . S
H263 C252 0.931 . S
O264 Co240 2.117 . S
O264 C241 1.258 . S
O265 Co240 2.020 . S
O265 C267 1.256 . S
O266 Co242 2.062 . S
O266 C267 1.255 . S
C267 O265 1.256 . S
C267 O266 1.255 . S
H268 C247 0.931 1_655 S
H269 C255 0.931 . S
Co270 N275 2.057 . S
Co270 O287 2.021 . S
Co270 O290 2.062 . S
Co270 O294 2.117 . S
Co270 O295 2.020 . S
C271 O291 1.259 . S
C271 O294 1.258 . S
Co272 N281 2.057 . S
Co272 O288 2.117 . S
Co272 O289 2.020 . S
Co272 O291 2.021 . S
Co272 O296 2.062 . S
C273 N275 1.316 . S
C273 N276 1.347 . S
C273 H278 0.931 . S
C274 N275 1.375 . S
C274 C277 1.350 . S
C274 H279 0.930 . S
N275 Co270 2.057 . S
N275 C273 1.316 . S
N275 C274 1.375 . S
N276 C273 1.347 . S
N276 C277 1.373 . S
C277 C274 1.350 . S
C277 N276 1.373 . S
C277 H298 0.931 1_545 S
H278 C273 0.931 . S
H279 C274 0.930 . S
C280 O287 1.259 . S
C280 O288 1.258 . S
N281 Co272 2.057 . S
N281 C282 1.316 . S
N281 C283 1.375 . S
C282 N281 1.316 . S
C282 N284 1.347 . S
C282 H293 0.931 . S
C283 N281 1.375 . S
C283 C285 1.350 . S
C283 H292 0.930 . S
N284 C282 1.347 . S
N284 C285 1.373 . S
C285 C283 1.350 . S
C285 N284 1.373 . S
C285 H299 0.931 . S
C286 O289 1.256 . S
C286 O290 1.255 . S
O287 Co270 2.021 . S
O287 C280 1.259 . S
O288 Co272 2.117 . S
O288 C280 1.258 . S
O289 Co272 2.020 . S
O289 C286 1.256 . S
O290 Co270 2.062 . S
O290 C286 1.255 . S
O291 C271 1.259 . S
O291 Co272 2.021 . S
H292 C283 0.930 . S
H293 C282 0.931 . S
O294 Co270 2.117 . S
O294 C271 1.258 . S
O295 Co270 2.020 . S
O295 C297 1.256 . S
O296 Co272 2.062 . S
O296 C297 1.255 . S
C297 O295 1.256 . S
C297 O296 1.255 . S
H298 C277 0.931 1_565 S
H299 C285 0.931 . S
Co300 N305 2.057 . S
Co300 O317 2.021 . S
Co300 O320 2.062 . S
Co300 O324 2.117 . S
Co300 O325 2.020 . S
C301 O321 1.259 . S
C301 O324 1.258 . S
Co302 N311 2.057 . S
Co302 O318 2.117 . S
Co302 O319 2.020 . S
Co302 O321 2.021 . S
Co302 O326 2.062 . S
C303 N305 1.316 . S
C303 N306 1.347 . S
C303 H308 0.931 . S
C304 N305 1.375 . S
C304 C307 1.350 . S
C304 H309 0.930 . S
N305 Co300 2.057 . S
N305 C303 1.316 . S
N305 C304 1.375 . S
N306 C303 1.347 . S
N306 C307 1.373 . S
C307 C304 1.350 . S
C307 N306 1.373 . S
C307 H328 0.931 . S
H308 C303 0.931 . S
H309 C304 0.930 . S
C310 O317 1.259 . S
C310 O318 1.258 . S
N311 Co302 2.057 . S
N311 C312 1.316 . S
N311 C313 1.375 . S
C312 N311 1.316 . S
C312 N314 1.347 . S
C312 H323 0.931 . S
C313 N311 1.375 . S
C313 C315 1.350 . S
C313 H322 0.930 . S
N314 C312 1.347 . S
N314 C315 1.373 . S
C315 C313 1.350 . S
C315 N314 1.373 . S
C315 H329 0.931 . S
C316 O319 1.256 . S
C316 O320 1.255 . S
O317 Co300 2.021 . S
O317 C310 1.259 . S
O318 Co302 2.117 . S
O318 C310 1.258 . S
O319 Co302 2.020 . S
O319 C316 1.256 . S
O320 Co300 2.062 . S
O320 C316 1.255 . S
O321 C301 1.259 . S
O321 Co302 2.021 . S
H322 C313 0.930 . S
H323 C312 0.931 . S
O324 Co300 2.117 . S
O324 C301 1.258 . S
O325 Co300 2.020 . S
O325 C327 1.256 . S
O326 Co302 2.062 . S
O326 C327 1.255 . S
C327 O325 1.256 . S
C327 O326 1.255 . S
H328 C307 0.931 . S
H329 C315 0.931 . S
Co330 N335 2.057 . S
Co330 O347 2.021 . S
Co330 O350 2.062 . S
Co330 O354 2.117 . S
Co330 O355 2.020 . S
C331 O351 1.259 . S
C331 O354 1.258 . S
Co332 N341 2.057 . S
Co332 O348 2.117 . S
Co332 O349 2.020 . S
Co332 O351 2.021 . S
Co332 O356 2.062 . S
C333 N335 1.316 . S
C333 N336 1.347 . S
C333 H338 0.931 . S
C334 N335 1.375 . S
C334 C337 1.350 . S
C334 H339 0.930 . S
N335 Co330 2.057 . S
N335 C333 1.316 . S
N335 C334 1.375 . S
N336 C333 1.347 . S
N336 C337 1.373 . S
C337 C334 1.350 . S
C337 N336 1.373 . S
C337 H358 0.931 1_655 S
H338 C333 0.931 . S
H339 C334 0.930 . S
C340 O347 1.259 . S
C340 O348 1.258 . S
N341 Co332 2.057 . S
N341 C342 1.316 . S
N341 C343 1.375 . S
C342 N341 1.316 . S
C342 N344 1.347 . S
C342 H353 0.931 . S
C343 N341 1.375 . S
C343 C345 1.350 . S
C343 H352 0.930 . S
N344 C342 1.347 . S
N344 C345 1.373 . S
C345 C343 1.350 . S
C345 N344 1.373 . S
C345 H359 0.931 . S
C346 O349 1.256 . S
C346 O350 1.255 . S
O347 Co330 2.021 . S
O347 C340 1.259 . S
O348 Co332 2.117 . S
O348 C340 1.258 . S
O349 Co332 2.020 . S
O349 C346 1.256 . S
O350 Co330 2.062 . S
O350 C346 1.255 . S
O351 C331 1.259 . S
O351 Co332 2.021 . S
H352 C343 0.930 . S
H353 C342 0.931 . S
O354 Co330 2.117 . S
O354 C331 1.258 . S
O355 Co330 2.020 . S
O355 C357 1.256 . S
O356 Co332 2.062 . S
O356 C357 1.255 . S
C357 O355 1.256 . S
C357 O356 1.255 . S
H358 C337 0.931 1_455 S
H359 C345 0.931 . S
C360 C361 1.391 . S
C360 C362 1.400 . S
C360 H376 0.931 . S
C361 C360 1.391 . S
C361 C365 1.376 . S
C362 C360 1.400 . S
C362 C363 1.366 1_565 S
C362 C366 1.527 1_565 S
C363 C362 1.366 1_545 S
C363 C364 1.410 1_545 S
C363 C371 1.503 . S
C364 C363 1.410 1_565 S
C364 C365 1.392 . S
C364 C367 1.511 . S
C365 C361 1.376 . S
C365 C364 1.392 . S
C365 H377 0.929 . S
C366 C362 1.527 1_545 S
C366 H378 0.960 . S
C366 H379 0.962 . S
C366 H380 0.960 . S
C367 C364 1.511 . S
C367 H381 0.961 . S
C367 H382 0.961 1_565 S
C367 H383 0.961 . S
C368 C369 1.370 . S
C368 C370 1.363 . S
C368 H384 0.931 . S
C369 C368 1.370 . S
C369 C373 1.408 . S
C370 C368 1.363 . S
C370 C371 1.370 . S
C370 C374 1.524 . S
C371 C363 1.503 . S
C371 C370 1.370 . S
C371 C372 1.403 . S
C372 C371 1.403 . S
C372 C373 1.404 . S
C372 C375 1.539 . S
C373 C369 1.408 . S
C373 C372 1.404 . S
C373 H385 0.930 . S
C374 C370 1.524 . S
C374 H386 0.956 . S
C374 H387 0.961 . S
C374 H388 0.961 . S
C375 C372 1.539 . S
C375 H389 0.958 . S
C375 H390 0.961 . S
C375 H391 0.960 . S
H376 C360 0.931 . S
H377 C365 0.929 . S
H378 C366 0.960 . S
H379 C366 0.962 . S
H380 C366 0.960 . S
H381 C367 0.961 . S
H382 C367 0.961 1_545 S
H383 C367 0.961 . S
H384 C368 0.931 . S
H385 C373 0.930 . S
H386 C374 0.956 . S
H387 C374 0.961 . S
H388 C374 0.961 . S
H389 C375 0.958 . S
H390 C375 0.961 . S
H391 C375 0.960 . S
C392 C393 1.391 . S
C392 C394 1.394 . S
C392 H408 0.931 . S
C393 C392 1.391 . S
C393 C397 1.376 . S
C394 C392 1.394 . S
C394 C395 1.369 . S
C394 C398 1.531 . S
C395 C394 1.369 . S
C395 C396 1.410 . S
C395 C403 1.503 . S
C396 C395 1.410 . S
C396 C397 1.392 . S
C396 C399 1.511 . S
C397 C393 1.376 . S
C397 C396 1.392 . S
C397 H409 0.929 . S
C398 C394 1.531 . S
C398 H410 0.960 . S
C398 H411 0.962 . S
C398 H412 0.960 . S
C399 C396 1.511 . S
C399 H413 0.961 . S
C399 H414 0.961 . S
C399 H415 0.961 . S
C400 C401 1.366 1_455 S
C400 C402 1.371 . S
C400 H416 0.927 1_455 S
C401 C400 1.366 1_655 S
C401 C405 1.408 . S
C402 C400 1.371 . S
C402 C403 1.370 . S
C402 C406 1.524 . S
C403 C395 1.503 . S
C403 C402 1.370 . S
C403 C404 1.403 . S
C404 C403 1.403 . S
C404 C405 1.404 1_455 S
C404 C407 1.539 . S
C405 C401 1.408 . S
C405 C404 1.404 1_655 S
C405 H417 0.930 . S
C406 C402 1.524 . S
C406 H418 0.956 . S
C406 H419 0.961 . S
C406 H420 0.961 . S
C407 C404 1.539 . S
C407 H421 0.958 . S
C407 H422 0.961 . S
C407 H423 0.960 . S
H408 C392 0.931 . S
H409 C397 0.929 . S
H410 C398 0.960 . S
H411 C398 0.962 . S
H412 C398 0.960 . S
H413 C399 0.961 . S
H414 C399 0.961 . S
H415 C399 0.961 . S
H416 C400 0.927 1_655 S
H417 C405 0.930 . S
H418 C406 0.956 . S
H419 C406 0.961 . S
H420 C406 0.961 . S
H421 C407 0.958 . S
H422 C407 0.961 . S
H423 C407 0.960 . S
C424 C425 1.391 . S
C424 C426 1.394 . S
C424 H440 0.931 . S
C425 C424 1.391 . S
C425 C429 1.376 . S
C426 C424 1.394 . S
C426 C427 1.369 . S
C426 C430 1.531 . S
C427 C426 1.369 . S
C427 C428 1.410 . S
C427 C435 1.503 . S
C428 C427 1.410 . S
C428 C429 1.392 . S
C428 C431 1.511 . S
C429 C425 1.376 . S
C429 C428 1.392 . S
C429 H441 0.929 . S
C430 C426 1.531 . S
C430 H442 0.960 . S
C430 H443 0.962 . S
C430 H444 0.960 . S
C431 C428 1.511 . S
C431 H445 0.961 . S
C431 H446 0.961 . S
C431 H447 0.961 . S
C432 C433 1.370 . S
C432 C434 1.363 1_455 S
C432 H448 0.931 . S
C433 C432 1.370 . S
C433 C437 1.408 . S
C434 C432 1.363 1_655 S
C434 C435 1.370 . S
C434 C438 1.524 . S
C435 C427 1.503 . S
C435 C434 1.370 . S
C435 C436 1.403 1_655 S
C436 C435 1.403 1_455 S
C436 C437 1.404 . S
C436 C439 1.539 . S
C437 C433 1.408 . S
C437 C436 1.404 . S
C437 H449 0.930 . S
C438 C434 1.524 . S
C438 H450 0.956 . S
C438 H451 0.961 . S
C438 H452 0.961 . S
C439 C436 1.539 . S
C439 H453 0.958 . S
C439 H454 0.961 . S
C439 H455 0.960 1_455 S
H440 C424 0.931 . S
H441 C429 0.929 . S
H442 C430 0.960 . S
H443 C430 0.962 . S
H444 C430 0.960 . S
H445 C431 0.961 . S
H446 C431 0.961 . S
H447 C431 0.961 . S
H448 C432 0.931 . S
H449 C437 0.930 . S
H450 C438 0.956 . S
H451 C438 0.961 . S
H452 C438 0.961 . S
H453 C439 0.958 . S
H454 C439 0.961 . S
H455 C439 0.960 1_655 S
C456 C457 1.391 . S
C456 C458 1.394 . S
C456 H472 0.931 . S
C457 C456 1.391 . S
C457 C461 1.376 . S
C458 C456 1.394 . S
C458 C459 1.369 . S
C458 C462 1.531 . S
C459 C458 1.369 . S
C459 C460 1.410 . S
C459 C467 1.503 . S
C460 C459 1.410 . S
C460 C461 1.392 . S
C460 C463 1.511 . S
C461 C457 1.376 . S
C461 C460 1.392 . S
C461 H473 0.929 . S
C462 C458 1.531 . S
C462 H474 0.960 . S
C462 H475 0.962 . S
C462 H476 0.960 . S
C463 C460 1.511 . S
C463 H477 0.961 . S
C463 H478 0.961 . S
C463 H479 0.961 . S
C464 C465 1.370 . S
C464 C466 1.363 . S
C464 H480 0.931 . S
C465 C464 1.370 . S
C465 C469 1.408 . S
C466 C464 1.363 . S
C466 C467 1.370 . S
C466 C470 1.524 . S
C467 C459 1.503 . S
C467 C466 1.370 . S
C467 C468 1.403 . S
C468 C467 1.403 . S
C468 C469 1.404 . S
C468 C471 1.539 . S
C469 C465 1.408 . S
C469 C468 1.404 . S
C469 H481 0.930 1_565 S
C470 C466 1.524 . S
C470 H482 0.956 . S
C470 H483 0.961 . S
C470 H484 0.961 . S
C471 C468 1.539 . S
C471 H485 0.958 . S
C471 H486 0.961 . S
C471 H487 0.960 . S
H472 C456 0.931 . S
H473 C461 0.929 . S
H474 C462 0.960 . S
H475 C462 0.962 . S
H476 C462 0.960 . S
H477 C463 0.961 . S
H478 C463 0.961 . S
H479 C463 0.961 . S
H480 C464 0.931 . S
H481 C469 0.930 1_545 S
H482 C470 0.956 . S
H483 C470 0.961 . S
H484 C470 0.961 . S
H485 C471 0.958 . S
H486 C471 0.961 . S
H487 C471 0.960 . S
C488 C489 1.391 . S
C488 C490 1.394 . S
C488 H504 0.931 . S
C489 C488 1.391 . S
C489 C493 1.376 . S
C490 C488 1.394 . S
C490 C491 1.369 . S
C490 C494 1.531 . S
C491 C490 1.369 . S
C491 C492 1.410 . S
C491 C499 1.503 . S
C492 C491 1.410 . S
C492 C493 1.392 . S
C492 C495 1.511 . S
C493 C489 1.376 . S
C493 C492 1.392 . S
C493 H505 0.929 . S
C494 C490 1.531 . S
C494 H506 0.960 . S
C494 H507 0.962 . S
C494 H508 0.960 . S
C495 C492 1.511 . S
C495 H509 0.961 . S
C495 H510 0.961 . S
C495 H511 0.961 . S
C496 C497 1.370 . S
C496 C498 1.363 . S
C496 H512 0.931 . S
C497 C496 1.370 . S
C497 C501 1.408 . S
C498 C496 1.363 . S
C498 C499 1.370 . S
C498 C502 1.524 . S
C499 C491 1.503 . S
C499 C498 1.370 . S
C499 C500 1.403 . S
C500 C499 1.403 . S
C500 C501 1.404 . S
C500 C503 1.539 . S
C501 C497 1.408 . S
C501 C500 1.404 . S
C501 H513 0.930 . S
C502 C498 1.524 . S
C502 H514 0.956 . S
C502 H515 0.961 . S
C502 H516 0.961 . S
C503 C500 1.539 . S
C503 H517 0.958 . S
C503 H518 0.961 . S
C503 H519 0.960 . S
H504 C488 0.931 . S
H505 C493 0.929 . S
H506 C494 0.960 . S
H507 C494 0.962 . S
H508 C494 0.960 . S
H509 C495 0.961 . S
H510 C495 0.961 . S
H511 C495 0.961 . S
H512 C496 0.931 . S
H513 C501 0.930 . S
H514 C502 0.956 . S
H515 C502 0.961 . S
H516 C502 0.961 . S
H517 C503 0.958 . S
H518 C503 0.961 . S
H519 C503 0.960 . S
C520 C521 1.391 . S
C520 C522 1.394 . S
C520 H536 0.931 . S
C521 C520 1.391 . S
C521 C525 1.376 . S
C522 C520 1.394 . S
C522 C523 1.369 . S
C522 C526 1.531 . S
C523 C522 1.369 . S
C523 C524 1.410 . S
C523 C531 1.503 . S
C524 C523 1.410 . S
C524 C525 1.392 . S
C524 C527 1.511 . S
C525 C521 1.376 . S
C525 C524 1.392 . S
C525 H537 0.929 1_455 S
C526 C522 1.531 . S
C526 H538 0.960 . S
C526 H539 0.962 . S
C526 H540 0.960 . S
C527 C524 1.511 . S
C527 H541 0.961 . S
C527 H542 0.961 . S
C527 H543 0.961 . S
C528 C529 1.370 1_565 S
C528 C530 1.363 . S
C528 H544 0.931 . S
C529 C528 1.370 1_545 S
C529 C533 1.408 . S
C530 C528 1.363 . S
C530 C531 1.370 . S
C530 C534 1.524 . S
C531 C523 1.503 . S
C531 C530 1.370 . S
C531 C532 1.403 . S
C532 C531 1.403 . S
C532 C533 1.404 1_565 S
C532 C535 1.539 1_565 S
C533 C529 1.408 . S
C533 C532 1.404 1_545 S
C533 H545 0.930 . S
C534 C530 1.524 . S
C534 H546 0.956 . S
C534 H547 0.961 . S
C534 H548 0.961 . S
C535 C532 1.539 1_545 S
C535 H549 0.958 1_545 S
C535 H550 0.961 . S
C535 H551 0.960 1_545 S
H536 C520 0.931 . S
H537 C525 0.929 1_655 S
H538 C526 0.960 . S
H539 C526 0.962 . S
H540 C526 0.960 . S
H541 C527 0.961 . S
H542 C527 0.961 . S
H543 C527 0.961 . S
H544 C528 0.931 . S
H545 C533 0.930 . S
H546 C534 0.956 . S
H547 C534 0.961 . S
H548 C534 0.961 . S
H549 C535 0.958 1_565 S
H550 C535 0.961 . S
H551 C535 0.960 1_565 S
C552 C553 1.391 . S
C552 C554 1.394 . S
C552 H568 0.931 1_655 S
C553 C552 1.391 . S
C553 C557 1.376 . S
C554 C552 1.394 . S
C554 C555 1.369 . S
C554 C558 1.531 . S
C555 C554 1.369 . S
C555 C556 1.410 . S
C555 C563 1.503 . S
C556 C555 1.410 . S
C556 C557 1.392 . S
C556 C559 1.511 . S
C557 C553 1.376 . S
C557 C556 1.392 . S
C557 H569 0.929 . S
C558 C554 1.531 . S
C558 H570 0.960 . S
C558 H571 0.962 . S
C558 H572 0.960 . S
C559 C556 1.511 . S
C559 H573 0.961 . S
C559 H574 0.961 . S
C559 H575 0.961 . S
C560 C561 1.370 . S
C560 C562 1.363 . S
C560 H576 0.931 . S
C561 C560 1.370 . S
C561 C565 1.408 . S
C562 C560 1.363 . S
C562 C563 1.370 . S
C562 C566 1.524 . S
C563 C555 1.503 . S
C563 C562 1.370 . S
C563 C564 1.403 . S
C564 C563 1.403 . S
C564 C565 1.404 . S
C564 C567 1.539 . S
C565 C561 1.408 . S
C565 C564 1.404 . S
C565 H577 0.930 . S
C566 C562 1.524 . S
C566 H578 0.956 . S
C566 H579 0.961 . S
C566 H580 0.961 . S
C567 C564 1.539 . S
C567 H581 0.958 . S
C567 H582 0.961 . S
C567 H583 0.960 . S
H568 C552 0.931 1_455 S
H569 C557 0.929 . S
H570 C558 0.960 . S
H571 C558 0.962 . S
H572 C558 0.960 . S
H573 C559 0.961 . S
H574 C559 0.961 . S
H575 C559 0.961 . S
H576 C560 0.931 . S
H577 C565 0.930 . S
H578 C566 0.956 . S
H579 C566 0.961 . S
H580 C566 0.961 . S
H581 C567 0.958 . S
H582 C567 0.961 . S
H583 C567 0.960 . S
C584 C585 1.391 1_455 S
C584 C586 1.394 . S
C584 H600 0.931 1_455 S
C585 C584 1.391 1_655 S
C585 C589 1.376 . S
C586 C584 1.394 . S
C586 C587 1.369 . S
C586 C590 1.531 . S
C587 C586 1.369 . S
C587 C588 1.410 . S
C587 C595 1.503 . S
C588 C587 1.410 . S
C588 C589 1.392 1_455 S
C588 C591 1.511 . S
C589 C585 1.376 . S
C589 C588 1.392 1_655 S
C589 H601 0.929 . S
C590 C586 1.531 . S
C590 H602 0.960 . S
C590 H603 0.962 . S
C590 H604 0.960 . S
C591 C588 1.511 . S
C591 H605 0.961 . S
C591 H606 0.961 . S
C591 H607 0.961 . S
C592 C593 1.370 . S
C592 C594 1.363 . S
C592 H608 0.931 . S
C593 C592 1.370 . S
C593 C597 1.408 . S
C594 C592 1.363 . S
C594 C595 1.370 . S
C594 C598 1.524 . S
C595 C587 1.503 . S
C595 C594 1.370 . S
C595 C596 1.403 . S
C596 C595 1.403 . S
C596 C597 1.404 . S
C596 C599 1.539 . S
C597 C593 1.408 . S
C597 C596 1.404 . S
C597 H609 0.930 . S
C598 C594 1.524 . S
C598 H610 0.956 . S
C598 H611 0.961 . S
C598 H612 0.961 . S
C599 C596 1.539 . S
C599 H613 0.958 . S
C599 H614 0.961 . S
C599 H615 0.960 . S
H600 C584 0.931 1_655 S
H601 C589 0.929 . S
H602 C590 0.960 . S
H603 C590 0.962 . S
H604 C590 0.960 . S
H605 C591 0.961 . S
H606 C591 0.961 . S
H607 C591 0.961 . S
H608 C592 0.931 . S
H609 C597 0.930 . S
H610 C598 0.956 . S
H611 C598 0.961 . S
H612 C598 0.961 . S
H613 C599 0.958 . S
H614 C599 0.961 . S
H615 C599 0.960 . S
C616 C617 1.391 . S
C616 C618 1.394 . S
C616 H632 0.931 . S
C617 C616 1.391 . S
C617 C621 1.376 . S
C618 C616 1.394 . S
C618 C619 1.369 . S
C618 C622 1.531 . S
C619 C618 1.369 . S
C619 C620 1.410 . S
C619 C627 1.503 . S
C620 C619 1.410 . S
C620 C621 1.392 . S
C620 C623 1.511 . S
C621 C617 1.376 . S
C621 C620 1.392 . S
C621 H633 0.929 . S
C622 C618 1.531 . S
C622 H634 0.960 . S
C622 H635 0.962 . S
C622 H636 0.960 . S
C623 C620 1.511 . S
C623 H637 0.961 . S
C623 H638 0.961 . S
C623 H639 0.961 . S
C624 C625 1.370 . S
C624 C626 1.363 1_565 S
C624 H640 0.931 . S
C625 C624 1.370 . S
C625 C629 1.408 . S
C626 C624 1.363 1_545 S
C626 C627 1.370 . S
C626 C630 1.524 . S
C627 C619 1.503 . S
C627 C626 1.370 . S
C627 C628 1.403 . S
C628 C627 1.403 . S
C628 C629 1.404 1_545 S
C628 C631 1.539 . S
C629 C625 1.408 . S
C629 C628 1.404 1_565 S
C629 H641 0.930 . S
C630 C626 1.524 . S
C630 H642 0.956 . S
C630 H643 0.961 . S
C630 H644 0.961 . S
C631 C628 1.539 . S
C631 H645 0.958 . S
C631 H646 0.961 . S
C631 H647 0.960 . S
H632 C616 0.931 . S
H633 C621 0.929 . S
H634 C622 0.960 . S
H635 C622 0.962 . S
H636 C622 0.960 . S
H637 C623 0.961 . S
H638 C623 0.961 . S
H639 C623 0.961 . S
H640 C624 0.931 . S
H641 C629 0.930 . S
H642 C630 0.956 . S
H643 C630 0.961 . S
H644 C630 0.961 . S
H645 C631 0.958 . S
H646 C631 0.961 . S
H647 C631 0.960 . S
C648 C649 1.391 . S
C648 C650 1.394 . S
C648 H664 0.931 . S
C649 C648 1.391 . S
C649 C653 1.376 . S
C650 C648 1.394 . S
C650 C651 1.369 . S
C650 C654 1.531 . S
C651 C650 1.369 . S
C651 C652 1.410 . S
C651 C659 1.503 . S
C652 C651 1.410 . S
C652 C653 1.392 . S
C652 C655 1.511 . S
C653 C649 1.376 . S
C653 C652 1.392 . S
C653 H665 0.929 . S
C654 C650 1.531 . S
C654 H666 0.960 . S
C654 H667 0.962 . S
C654 H668 0.960 . S
C655 C652 1.511 . S
C655 H669 0.961 . S
C655 H670 0.961 . S
C655 H671 0.961 . S
C656 C657 1.370 . S
C656 C658 1.363 . S
C656 H672 0.931 . S
C657 C656 1.370 . S
C657 C661 1.408 . S
C658 C656 1.363 . S
C658 C659 1.370 . S
C658 C662 1.524 . S
C659 C651 1.503 . S
C659 C658 1.370 . S
C659 C660 1.403 . S
C660 C659 1.403 . S
C660 C661 1.404 . S
C660 C663 1.539 . S
C661 C657 1.408 . S
C661 C660 1.404 . S
C661 H673 0.930 1_455 S
C662 C658 1.524 . S
C662 H674 0.956 . S
C662 H675 0.961 . S
C662 H676 0.961 . S
C663 C660 1.539 . S
C663 H677 0.958 . S
C663 H678 0.961 . S
C663 H679 0.960 . S
H664 C648 0.931 . S
H665 C653 0.929 . S
H666 C654 0.960 . S
H667 C654 0.962 . S
H668 C654 0.960 . S
H669 C655 0.961 . S
H670 C655 0.961 . S
H671 C655 0.961 . S
H672 C656 0.931 . S
H673 C661 0.930 1_655 S
H674 C662 0.956 . S
H675 C662 0.961 . S
H676 C662 0.961 . S
H677 C663 0.958 . S
H678 C663 0.961 . S
H679 C663 0.960 . S
C680 C681 1.391 1_655 S
C680 C682 1.394 . S
C680 H696 0.931 . S
C681 C680 1.391 1_455 S
C681 C685 1.376 . S
C682 C680 1.394 . S
C682 C683 1.369 . S
C682 C686 1.531 . S
C683 C682 1.369 . S
C683 C684 1.410 . S
C683 C691 1.503 . S
C684 C683 1.410 . S
C684 C685 1.392 1_655 S
C684 C687 1.511 . S
C685 C681 1.376 . S
C685 C684 1.392 1_455 S
C685 H697 0.929 . S
C686 C682 1.531 . S
C686 H698 0.960 . S
C686 H699 0.962 . S
C686 H700 0.960 . S
C687 C684 1.511 . S
C687 H701 0.961 1_655 S
C687 H702 0.961 . S
C687 H703 0.961 . S
C688 C689 1.370 . S
C688 C690 1.363 . S
C688 H704 0.931 . S
C689 C688 1.370 . S
C689 C693 1.408 . S
C690 C688 1.363 . S
C690 C691 1.370 . S
C690 C694 1.524 . S
C691 C683 1.503 . S
C691 C690 1.370 . S
C691 C692 1.403 . S
C692 C691 1.403 . S
C692 C693 1.404 . S
C692 C695 1.539 . S
C693 C689 1.408 . S
C693 C692 1.404 . S
C693 H705 0.930 . S
C694 C690 1.524 . S
C694 H706 0.956 . S
C694 H707 0.961 . S
C694 H708 0.961 . S
C695 C692 1.539 . S
C695 H709 0.958 . S
C695 H710 0.961 . S
C695 H711 0.960 . S
H696 C680 0.931 . S
H697 C685 0.929 . S
H698 C686 0.960 . S
H699 C686 0.962 . S
H700 C686 0.960 . S
H701 C687 0.961 1_455 S
H702 C687 0.961 . S
H703 C687 0.961 . S
H704 C688 0.931 . S
H705 C693 0.930 . S
H706 C694 0.956 . S
H707 C694 0.961 . S
H708 C694 0.961 . S
H709 C695 0.958 . S
H710 C695 0.961 . S
H711 C695 0.960 . S
C712 C713 1.391 . S
C712 C714 1.394 . S
C712 H728 0.931 . S
C713 C712 1.391 . S
C713 C717 1.376 . S
C714 C712 1.394 . S
C714 C715 1.369 . S
C714 C718 1.531 . S
C715 C714 1.369 . S
C715 C716 1.410 . S
C715 C723 1.503 . S
C716 C715 1.410 . S
C716 C717 1.392 . S
C716 C719 1.511 . S
C717 C713 1.376 . S
C717 C716 1.392 . S
C717 H729 0.929 . S
C718 C714 1.531 . S
C718 H730 0.960 . S
C718 H731 0.962 . S
C718 H732 0.960 . S
C719 C716 1.511 . S
C719 H733 0.961 . S
C719 H734 0.961 . S
C719 H735 0.961 . S
C720 C721 1.370 . S
C720 C722 1.363 1_545 S
C720 H736 0.931 . S
C721 C720 1.370 . S
C721 C725 1.408 1_545 S
C722 C720 1.363 1_565 S
C722 C723 1.370 . S
C722 C726 1.524 . S
C723 C715 1.503 . S
C723 C722 1.370 . S
C723 C724 1.403 . S
C724 C723 1.403 . S
C724 C725 1.404 . S
C724 C727 1.539 . S
C725 C721 1.408 1_565 S
C725 C724 1.404 . S
C725 H737 0.930 1_565 S
C726 C722 1.524 . S
C726 H738 0.956 . S
C726 H739 0.961 . S
C726 H740 0.961 . S
C727 C724 1.539 . S
C727 H741 0.958 . S
C727 H742 0.961 . S
C727 H743 0.960 . S
H728 C712 0.931 . S
H729 C717 0.929 . S
H730 C718 0.960 . S
H731 C718 0.962 . S
H732 C718 0.960 . S
H733 C719 0.961 . S
H734 C719 0.961 . S
H735 C719 0.961 . S
H736 C720 0.931 . S
H737 C725 0.930 1_545 S
H738 C726 0.956 . S
H739 C726 0.961 . S
H740 C726 0.961 . S
H741 C727 0.958 . S
H742 C727 0.961 . S
H743 C727 0.960 . S
C744 C745 1.391 . S
C744 C746 1.394 . S
C744 H760 0.931 . S
C745 C744 1.391 . S
C745 C749 1.376 . S
C746 C744 1.394 . S
C746 C747 1.369 . S
C746 C750 1.531 . S
C747 C746 1.369 . S
C747 C748 1.410 . S
C747 C755 1.503 . S
C748 C747 1.410 . S
C748 C749 1.392 . S
C748 C751 1.511 . S
C749 C745 1.376 . S
C749 C748 1.392 . S
C749 H761 0.929 . S
C750 C746 1.531 . S
C750 H762 0.960 . S
C750 H763 0.962 . S
C750 H764 0.960 . S
C751 C748 1.511 . S
C751 H765 0.961 . S
C751 H766 0.961 . S
C751 H767 0.961 . S
C752 C753 1.370 . S
C752 C754 1.363 . S
C752 H768 0.931 . S
C753 C752 1.370 . S
C753 C757 1.408 . S
C754 C752 1.363 . S
C754 C755 1.370 . S
C754 C758 1.524 . S
C755 C747 1.503 . S
C755 C754 1.370 . S
C755 C756 1.403 . S
C756 C755 1.403 . S
C756 C757 1.404 . S
C756 C759 1.539 . S
C757 C753 1.408 . S
C757 C756 1.404 . S
C757 H769 0.930 . S
C758 C754 1.524 . S
C758 H770 0.956 . S
C758 H771 0.961 . S
C758 H772 0.961 . S
C759 C756 1.539 . S
C759 H773 0.958 . S
C759 H774 0.961 . S
C759 H775 0.960 . S
H760 C744 0.931 . S
H761 C749 0.929 . S
H762 C750 0.960 . S
H763 C750 0.962 . S
H764 C750 0.960 . S
H765 C751 0.961 . S
H766 C751 0.961 . S
H767 C751 0.961 . S
H768 C752 0.931 . S
H769 C757 0.930 . S
H770 C758 0.956 . S
H771 C758 0.961 . S
H772 C758 0.961 . S
H773 C759 0.958 . S
H774 C759 0.961 . S
H775 C759 0.960 . S
C776 C777 1.391 . S
C776 C778 1.394 . S
C776 H792 0.931 . S
C777 C776 1.391 . S
C777 C781 1.376 . S
C778 C776 1.394 . S
C778 C779 1.369 . S
C778 C782 1.531 . S
C779 C778 1.369 . S
C779 C780 1.410 . S
C779 C787 1.503 . S
C780 C779 1.410 . S
C780 C781 1.392 . S
C780 C783 1.511 . S
C781 C777 1.376 . S
C781 C780 1.392 . S
C781 H793 0.929 . S
C782 C778 1.531 . S
C782 H794 0.960 . S
C782 H795 0.962 . S
C782 H796 0.960 . S
C783 C780 1.511 . S
C783 H797 0.961 . S
C783 H798 0.961 . S
C783 H799 0.961 . S
C784 C785 1.370 . S
C784 C786 1.363 . S
C784 H800 0.931 . S
C785 C784 1.370 . S
C785 C789 1.408 . S
C786 C784 1.363 . S
C786 C787 1.370 . S
C786 C790 1.524 . S
C787 C779 1.503 . S
C787 C786 1.370 . S
C787 C788 1.403 . S
C788 C787 1.403 . S
C788 C789 1.404 . S
C788 C791 1.539 . S
C789 C785 1.408 . S
C789 C788 1.404 . S
C789 H801 0.930 . S
C790 C786 1.524 . S
C790 H802 0.956 . S
C790 H803 0.961 . S
C790 H804 0.961 . S
C791 C788 1.539 . S
C791 H805 0.958 . S
C791 H806 0.961 . S
C791 H807 0.960 . S
H792 C776 0.931 . S
H793 C781 0.929 . S
H794 C782 0.960 . S
H795 C782 0.962 . S
H796 C782 0.960 . S
H797 C783 0.961 . S
H798 C783 0.961 . S
H799 C783 0.961 . S
H800 C784 0.931 . S
H801 C789 0.930 . S
H802 C790 0.956 . S
H803 C790 0.961 . S
H804 C790 0.961 . S
H805 C791 0.958 . S
H806 C791 0.961 . S
H807 C791 0.960 . S
C808 C809 1.391 . S
C808 C810 1.394 . S
C808 H824 0.931 . S
C809 C808 1.391 . S
C809 C813 1.376 . S
C810 C808 1.394 . S
C810 C811 1.369 . S
C810 C814 1.531 . S
C811 C810 1.369 . S
C811 C812 1.410 . S
C811 C819 1.503 . S
C812 C811 1.410 . S
C812 C813 1.392 . S
C812 C815 1.511 . S
C813 C809 1.376 . S
C813 C812 1.392 . S
C813 H825 0.929 . S
C814 C810 1.531 . S
C814 H826 0.960 . S
C814 H827 0.962 . S
C814 H828 0.960 . S
C815 C812 1.511 . S
C815 H829 0.961 . S
C815 H830 0.961 . S
C815 H831 0.961 . S
C816 C817 1.370 . S
C816 C818 1.363 . S
C816 H832 0.931 . S
C817 C816 1.370 . S
C817 C821 1.408 . S
C818 C816 1.363 . S
C818 C819 1.370 . S
C818 C822 1.524 . S
C819 C811 1.503 . S
C819 C818 1.370 . S
C819 C820 1.403 . S
C820 C819 1.403 . S
C820 C821 1.404 . S
C820 C823 1.539 . S
C821 C817 1.408 . S
C821 C820 1.404 . S
C821 H833 0.930 . S
C822 C818 1.524 . S
C822 H834 0.956 . S
C822 H835 0.961 . S
C822 H836 0.961 . S
C823 C820 1.539 . S
C823 H837 0.958 . S
C823 H838 0.961 . S
C823 H839 0.960 . S
H824 C808 0.931 . S
H825 C813 0.929 . S
H826 C814 0.960 . S
H827 C814 0.962 . S
H828 C814 0.960 . S
H829 C815 0.961 . S
H830 C815 0.961 . S
H831 C815 0.961 . S
H832 C816 0.931 . S
H833 C821 0.930 . S
H834 C822 0.956 . S
H835 C822 0.961 . S
H836 C822 0.961 . S
H837 C823 0.958 . S
H838 C823 0.961 . S
H839 C823 0.960 . S
C840 C841 1.391 . S
C840 C842 1.394 . S
C840 H856 0.931 . S
C841 C840 1.391 . S
C841 C845 1.376 . S
C842 C840 1.394 . S
C842 C843 1.369 . S
C842 C846 1.531 . S
C843 C842 1.369 . S
C843 C844 1.410 . S
C843 C851 1.503 . S
C844 C843 1.410 . S
C844 C845 1.392 . S
C844 C847 1.511 . S
C845 C841 1.376 . S
C845 C844 1.392 . S
C845 H857 0.929 . S
C846 C842 1.531 . S
C846 H858 0.960 . S
C846 H859 0.962 . S
C846 H860 0.960 . S
C847 C844 1.511 . S
C847 H861 0.961 . S
C847 H862 0.961 . S
C847 H863 0.961 . S
C848 C849 1.370 . S
C848 C850 1.363 . S
C848 H864 0.931 . S
C849 C848 1.370 . S
C849 C853 1.408 . S
C850 C848 1.363 . S
C850 C851 1.370 . S
C850 C854 1.524 . S
C851 C843 1.503 . S
C851 C850 1.370 . S
C851 C852 1.403 . S
C852 C851 1.403 . S
C852 C853 1.404 . S
C852 C855 1.539 . S
C853 C849 1.408 . S
C853 C852 1.404 . S
C853 H865 0.930 . S
C854 C850 1.524 . S
C854 H866 0.956 . S
C854 H867 0.961 . S
C854 H868 0.961 . S
C855 C852 1.539 . S
C855 H869 0.958 . S
C855 H870 0.961 . S
C855 H871 0.960 . S
H856 C840 0.931 . S
H857 C845 0.929 . S
H858 C846 0.960 . S
H859 C846 0.962 . S
H860 C846 0.960 . S
H861 C847 0.961 . S
H862 C847 0.961 . S
H863 C847 0.961 . S
H864 C848 0.931 . S
H865 C853 0.930 . S
H866 C854 0.956 . S
H867 C854 0.961 . S
H868 C854 0.961 . S
H869 C855 0.958 . S
H870 C855 0.961 . S
H871 C855 0.960 . S
C872 C873 1.391 . S
C872 C874 1.394 . S
C872 H888 0.931 . S
C873 C872 1.391 . S
C873 C877 1.376 . S
C874 C872 1.394 . S
C874 C875 1.369 . S
C874 C878 1.531 . S
C875 C874 1.369 . S
C875 C876 1.410 . S
C875 C883 1.503 . S
C876 C875 1.410 . S
C876 C877 1.392 . S
C876 C879 1.511 . S
C877 C873 1.376 . S
C877 C876 1.392 . S
C877 H889 0.929 . S
C878 C874 1.531 . S
C878 H890 0.960 . S
C878 H891 0.962 . S
C878 H892 0.960 . S
C879 C876 1.511 . S
C879 H893 0.961 . S
C879 H894 0.961 . S
C879 H895 0.961 . S
C880 C881 1.370 . S
C880 C882 1.363 . S
C880 H896 0.931 . S
C881 C880 1.370 . S
C881 C885 1.408 . S
C882 C880 1.363 . S
C882 C883 1.370 . S
C882 C886 1.524 . S
C883 C875 1.503 . S
C883 C882 1.370 . S
C883 C884 1.403 . S
C884 C883 1.403 . S
C884 C885 1.404 . S
C884 C887 1.539 . S
C885 C881 1.408 . S
C885 C884 1.404 . S
C885 H897 0.930 . S
C886 C882 1.524 . S
C886 H898 0.956 . S
C886 H899 0.961 . S
C886 H900 0.961 . S
C887 C884 1.539 . S
C887 H901 0.958 . S
C887 H902 0.961 . S
C887 H903 0.960 . S
H888 C872 0.931 . S
H889 C877 0.929 . S
H890 C878 0.960 . S
H891 C878 0.962 . S
H892 C878 0.960 . S
H893 C879 0.961 . S
H894 C879 0.961 . S
H895 C879 0.961 . S
H896 C880 0.931 . S
H897 C885 0.930 . S
H898 C886 0.956 . S
H899 C886 0.961 . S
H900 C886 0.961 . S
H901 C887 0.958 . S
H902 C887 0.961 . S
H903 C887 0.960 . S
C904 C905 1.391 . S
C904 C906 1.394 . S
C904 H920 0.931 . S
C905 C904 1.391 . S
C905 C909 1.376 . S
C906 C904 1.394 . S
C906 C907 1.369 . S
C906 C910 1.531 . S
C907 C906 1.369 . S
C907 C908 1.410 . S
C907 C915 1.503 . S
C908 C907 1.410 . S
C908 C909 1.392 . S
C908 C911 1.511 . S
C909 C905 1.376 . S
C909 C908 1.392 . S
C909 H921 0.929 . S
C910 C906 1.531 . S
C910 H922 0.960 . S
C910 H923 0.962 . S
C910 H924 0.960 . S
C911 C908 1.511 . S
C911 H925 0.961 . S
C911 H926 0.961 . S
C911 H927 0.961 . S
C912 C913 1.370 . S
C912 C914 1.363 . S
C912 H928 0.931 . S
C913 C912 1.370 . S
C913 C917 1.408 . S
C914 C912 1.363 . S
C914 C915 1.370 . S
C914 C918 1.524 . S
C915 C907 1.503 . S
C915 C914 1.370 . S
C915 C916 1.403 . S
C916 C915 1.403 . S
C916 C917 1.404 . S
C916 C919 1.539 . S
C917 C913 1.408 . S
C917 C916 1.404 . S
C917 H929 0.930 . S
C918 C914 1.524 . S
C918 H930 0.956 . S
C918 H931 0.961 . S
C918 H932 0.961 . S
C919 C916 1.539 . S
C919 H933 0.958 . S
C919 H934 0.961 . S
C919 H935 0.960 . S
H920 C904 0.931 . S
H921 C909 0.929 . S
H922 C910 0.960 . S
H923 C910 0.962 . S
H924 C910 0.960 . S
H925 C911 0.961 . S
H926 C911 0.961 . S
H927 C911 0.961 . S
H928 C912 0.931 . S
H929 C917 0.930 . S
H930 C918 0.956 . S
H931 C918 0.961 . S
H932 C918 0.961 . S
H933 C919 0.958 . S
H934 C919 0.961 . S
H935 C919 0.960 . S
C936 C937 1.391 . S
C936 C938 1.394 . S
C936 H952 0.931 . S
C937 C936 1.391 . S
C937 C941 1.376 . S
C938 C936 1.394 . S
C938 C939 1.369 . S
C938 C942 1.531 . S
C939 C938 1.369 . S
C939 C940 1.410 . S
C939 C947 1.503 . S
C940 C939 1.410 . S
C940 C941 1.392 . S
C940 C943 1.511 . S
C941 C937 1.376 . S
C941 C940 1.392 . S
C941 H953 0.929 . S
C942 C938 1.531 . S
C942 H954 0.960 . S
C942 H955 0.962 . S
C942 H956 0.960 . S
C943 C940 1.511 . S
C943 H957 0.961 . S
C943 H958 0.961 . S
C943 H959 0.961 . S
C944 C945 1.370 . S
C944 C946 1.363 . S
C944 H960 0.931 . S
C945 C944 1.370 . S
C945 C949 1.408 . S
C946 C944 1.363 . S
C946 C947 1.370 . S
C946 C950 1.524 . S
C947 C939 1.503 . S
C947 C946 1.370 . S
C947 C948 1.403 . S
C948 C947 1.403 . S
C948 C949 1.404 . S
C948 C951 1.539 . S
C949 C945 1.408 . S
C949 C948 1.404 . S
C949 H961 0.930 . S
C950 C946 1.524 . S
C950 H962 0.956 . S
C950 H963 0.961 . S
C950 H964 0.961 . S
C951 C948 1.539 . S
C951 H965 0.958 . S
C951 H966 0.961 . S
C951 H967 0.960 . S
H952 C936 0.931 . S
H953 C941 0.929 . S
H954 C942 0.960 . S
H955 C942 0.962 . S
H956 C942 0.960 . S
H957 C943 0.961 . S
H958 C943 0.961 . S
H959 C943 0.961 . S
H960 C944 0.931 . S
H961 C949 0.930 . S
H962 C950 0.956 . S
H963 C950 0.961 . S
H964 C950 0.961 . S
H965 C951 0.958 . S
H966 C951 0.961 . S
H967 C951 0.960 . S
C968 C969 1.391 . S
C968 C970 1.394 . S
C968 H984 0.931 . S
C969 C968 1.391 . S
C969 C973 1.376 . S
C970 C968 1.394 . S
C970 C971 1.369 . S
C970 C974 1.531 . S
C971 C970 1.369 . S
C971 C972 1.410 . S
C971 C979 1.503 . S
C972 C971 1.410 . S
C972 C973 1.392 . S
C972 C975 1.511 . S
C973 C969 1.376 . S
C973 C972 1.392 . S
C973 H985 0.929 . S
C974 C970 1.531 . S
C974 H986 0.960 . S
C974 H987 0.962 . S
C974 H988 0.960 . S
C975 C972 1.511 . S
C975 H989 0.961 . S
C975 H990 0.961 . S
C975 H991 0.961 . S
C976 C977 1.370 . S
C976 C978 1.363 . S
C976 H992 0.931 . S
C977 C976 1.370 . S
C977 C981 1.408 . S
C978 C976 1.363 . S
C978 C979 1.370 . S
C978 C982 1.524 . S
C979 C971 1.503 . S
C979 C978 1.370 . S
C979 C980 1.403 . S
C980 C979 1.403 . S
C980 C981 1.404 . S
C980 C983 1.539 . S
C981 C977 1.408 . S
C981 C980 1.404 . S
C981 H993 0.930 . S
C982 C978 1.524 . S
C982 H994 0.956 . S
C982 H995 0.961 . S
C982 H996 0.961 . S
C983 C980 1.539 . S
C983 H997 0.958 . S
C983 H998 0.961 . S
C983 H999 0.960 . S
H984 C968 0.931 . S
H985 C973 0.929 . S
H986 C974 0.960 . S
H987 C974 0.962 . S
H988 C974 0.960 . S
H989 C975 0.961 . S
H990 C975 0.961 . S
H991 C975 0.961 . S
H992 C976 0.931 . S
H993 C981 0.930 . S
H994 C982 0.956 . S
H995 C982 0.961 . S
H996 C982 0.961 . S
H997 C983 0.958 . S
H998 C983 0.961 . S
H999 C983 0.960 . S
C1000 C1001 1.391 . S
C1000 C1002 1.394 . S
C1000 H1016 0.931 . S
C1001 C1000 1.391 . S
C1001 C1005 1.376 . S
C1002 C1000 1.394 . S
C1002 C1003 1.369 . S
C1002 C1006 1.531 . S
C1003 C1002 1.369 . S
C1003 C1004 1.410 . S
C1003 C1011 1.503 . S
C1004 C1003 1.410 . S
C1004 C1005 1.392 . S
C1004 C1007 1.511 . S
C1005 C1001 1.376 . S
C1005 C1004 1.392 . S
C1005 H1017 0.929 . S
C1006 C1002 1.531 . S
C1006 H1018 0.960 . S
C1006 H1019 0.962 . S
C1006 H1020 0.960 . S
C1007 C1004 1.511 . S
C1007 H1021 0.961 . S
C1007 H1022 0.961 . S
C1007 H1023 0.961 . S
C1008 C1009 1.370 . S
C1008 C1010 1.363 . S
C1008 H1024 0.931 . S
C1009 C1008 1.370 . S
C1009 C1013 1.408 . S
C1010 C1008 1.363 . S
C1010 C1011 1.370 . S
C1010 C1014 1.524 . S
C1011 C1003 1.503 . S
C1011 C1010 1.370 . S
C1011 C1012 1.403 . S
C1012 C1011 1.403 . S
C1012 C1013 1.404 . S
C1012 C1015 1.539 . S
C1013 C1009 1.408 . S
C1013 C1012 1.404 . S
C1013 H1025 0.930 . S
C1014 C1010 1.524 . S
C1014 H1026 0.956 . S
C1014 H1027 0.961 . S
C1014 H1028 0.961 . S
C1015 C1012 1.539 . S
C1015 H1029 0.958 . S
C1015 H1030 0.961 . S
C1015 H1031 0.960 . S
H1016 C1000 0.931 . S
H1017 C1005 0.929 . S
H1018 C1006 0.960 . S
H1019 C1006 0.962 . S
H1020 C1006 0.960 . S
H1021 C1007 0.961 . S
H1022 C1007 0.961 . S
H1023 C1007 0.961 . S
H1024 C1008 0.931 . S
H1025 C1013 0.930 . S
H1026 C1014 0.956 . S
H1027 C1014 0.961 . S
H1028 C1014 0.961 . S
H1029 C1015 0.958 . S
H1030 C1015 0.961 . S
H1031 C1015 0.960 . S
C1032 C1033 1.391 . S
C1032 C1034 1.394 . S
C1032 H1048 0.931 . S
C1033 C1032 1.391 . S
C1033 C1037 1.376 . S
C1034 C1032 1.394 . S
C1034 C1035 1.369 . S
C1034 C1038 1.531 . S
C1035 C1034 1.369 . S
C1035 C1036 1.410 . S
C1035 C1043 1.503 . S
C1036 C1035 1.410 . S
C1036 C1037 1.392 . S
C1036 C1039 1.511 . S
C1037 C1033 1.376 . S
C1037 C1036 1.392 . S
C1037 H1049 0.929 . S
C1038 C1034 1.531 . S
C1038 H1050 0.960 . S
C1038 H1051 0.962 . S
C1038 H1052 0.960 . S
C1039 C1036 1.511 . S
C1039 H1053 0.961 . S
C1039 H1054 0.961 . S
C1039 H1055 0.961 . S
C1040 C1041 1.370 . S
C1040 C1042 1.363 . S
C1040 H1056 0.931 . S
C1041 C1040 1.370 . S
C1041 C1045 1.408 . S
C1042 C1040 1.363 . S
C1042 C1043 1.370 . S
C1042 C1046 1.524 . S
C1043 C1035 1.503 . S
C1043 C1042 1.370 . S
C1043 C1044 1.403 . S
C1044 C1043 1.403 . S
C1044 C1045 1.404 . S
C1044 C1047 1.539 . S
C1045 C1041 1.408 . S
C1045 C1044 1.404 . S
C1045 H1057 0.930 . S
C1046 C1042 1.524 . S
C1046 H1058 0.956 . S
C1046 H1059 0.961 . S
C1046 H1060 0.961 . S
C1047 C1044 1.539 . S
C1047 H1061 0.958 . S
C1047 H1062 0.961 . S
C1047 H1063 0.960 . S
H1048 C1032 0.931 . S
H1049 C1037 0.929 . S
H1050 C1038 0.960 . S
H1051 C1038 0.962 . S
H1052 C1038 0.960 . S
H1053 C1039 0.961 . S
H1054 C1039 0.961 . S
H1055 C1039 0.961 . S
H1056 C1040 0.931 . S
H1057 C1045 0.930 . S
H1058 C1046 0.956 . S
H1059 C1046 0.961 . S
H1060 C1046 0.961 . S
H1061 C1047 0.958 . S
H1062 C1047 0.961 . S
H1063 C1047 0.960 . S
C1064 C1065 1.391 . S
C1064 C1066 1.394 . S
C1064 H1080 0.931 . S
C1065 C1064 1.391 . S
C1065 C1069 1.376 . S
C1066 C1064 1.394 . S
C1066 C1067 1.369 . S
C1066 C1070 1.531 . S
C1067 C1066 1.369 . S
C1067 C1068 1.410 . S
C1067 C1075 1.503 . S
C1068 C1067 1.410 . S
C1068 C1069 1.392 . S
C1068 C1071 1.511 . S
C1069 C1065 1.376 . S
C1069 C1068 1.392 . S
C1069 H1081 0.929 . S
C1070 C1066 1.531 . S
C1070 H1082 0.960 . S
C1070 H1083 0.962 . S
C1070 H1084 0.960 . S
C1071 C1068 1.511 . S
C1071 H1085 0.961 . S
C1071 H1086 0.961 . S
C1071 H1087 0.961 . S
C1072 C1073 1.370 . S
C1072 C1074 1.363 . S
C1072 H1088 0.931 . S
C1073 C1072 1.370 . S
C1073 C1077 1.408 . S
C1074 C1072 1.363 . S
C1074 C1075 1.370 . S
C1074 C1078 1.524 . S
C1075 C1067 1.503 . S
C1075 C1074 1.370 . S
C1075 C1076 1.403 . S
C1076 C1075 1.403 . S
C1076 C1077 1.404 . S
C1076 C1079 1.539 . S
C1077 C1073 1.408 . S
C1077 C1076 1.404 . S
C1077 H1089 0.930 . S
C1078 C1074 1.524 . S
C1078 H1090 0.956 . S
C1078 H1091 0.961 . S
C1078 H1092 0.961 . S
C1079 C1076 1.539 . S
C1079 H1093 0.958 . S
C1079 H1094 0.961 . S
C1079 H1095 0.960 . S
H1080 C1064 0.931 . S
H1081 C1069 0.929 . S
H1082 C1070 0.960 . S
H1083 C1070 0.962 . S
H1084 C1070 0.960 . S
H1085 C1071 0.961 . S
H1086 C1071 0.961 . S
H1087 C1071 0.961 . S
H1088 C1072 0.931 . S
H1089 C1077 0.930 . S
H1090 C1078 0.956 . S
H1091 C1078 0.961 . S
H1092 C1078 0.961 . S
H1093 C1079 0.958 . S
H1094 C1079 0.961 . S
H1095 C1079 0.960 . S
C1096 C1097 1.391 . S
C1096 C1098 1.394 . S
C1096 H1112 0.931 . S
C1097 C1096 1.391 . S
C1097 C1101 1.376 . S
C1098 C1096 1.394 . S
C1098 C1099 1.369 . S
C1098 C1102 1.531 . S
C1099 C1098 1.369 . S
C1099 C1100 1.410 . S
C1099 C1107 1.503 . S
C1100 C1099 1.410 . S
C1100 C1101 1.392 . S
C1100 C1103 1.511 . S
C1101 C1097 1.376 . S
C1101 C1100 1.392 . S
C1101 H1113 0.929 . S
C1102 C1098 1.531 . S
C1102 H1114 0.960 . S
C1102 H1115 0.962 . S
C1102 H1116 0.960 . S
C1103 C1100 1.511 . S
C1103 H1117 0.961 . S
C1103 H1118 0.961 . S
C1103 H1119 0.961 . S
C1104 C1105 1.370 . S
C1104 C1106 1.363 . S
C1104 H1120 0.931 . S
C1105 C1104 1.370 . S
C1105 C1109 1.408 . S
C1106 C1104 1.363 . S
C1106 C1107 1.370 . S
C1106 C1110 1.524 . S
C1107 C1099 1.503 . S
C1107 C1106 1.370 . S
C1107 C1108 1.403 . S
C1108 C1107 1.403 . S
C1108 C1109 1.404 . S
C1108 C1111 1.539 . S
C1109 C1105 1.408 . S
C1109 C1108 1.404 . S
C1109 H1121 0.930 . S
C1110 C1106 1.524 . S
C1110 H1122 0.956 . S
C1110 H1123 0.961 . S
C1110 H1124 0.961 . S
C1111 C1108 1.539 . S
C1111 H1125 0.958 . S
C1111 H1126 0.961 . S
C1111 H1127 0.960 . S
H1112 C1096 0.931 . S
H1113 C1101 0.929 . S
H1114 C1102 0.960 . S
H1115 C1102 0.962 . S
H1116 C1102 0.960 . S
H1117 C1103 0.961 . S
H1118 C1103 0.961 . S
H1119 C1103 0.961 . S
H1120 C1104 0.931 . S
H1121 C1109 0.930 . S
H1122 C1110 0.956 . S
H1123 C1110 0.961 . S
H1124 C1110 0.961 . S
H1125 C1111 0.958 . S
H1126 C1111 0.961 . S
H1127 C1111 0.960 . S
C1128 C1129 1.391 . S
C1128 C1130 1.394 . S
C1128 H1144 0.931 . S
C1129 C1128 1.391 . S
C1129 C1133 1.376 . S
C1130 C1128 1.394 . S
C1130 C1131 1.369 . S
C1130 C1134 1.531 . S
C1131 C1130 1.369 . S
C1131 C1132 1.410 . S
C1131 C1139 1.503 . S
C1132 C1131 1.410 . S
C1132 C1133 1.392 . S
C1132 C1135 1.511 . S
C1133 C1129 1.376 . S
C1133 C1132 1.392 . S
C1133 H1145 0.929 . S
C1134 C1130 1.531 . S
C1134 H1146 0.960 . S
C1134 H1147 0.962 . S
C1134 H1148 0.960 . S
C1135 C1132 1.511 . S
C1135 H1149 0.961 . S
C1135 H1150 0.961 . S
C1135 H1151 0.961 . S
C1136 C1137 1.370 . S
C1136 C1138 1.363 . S
C1136 H1152 0.931 . S
C1137 C1136 1.370 . S
C1137 C1141 1.408 . S
C1138 C1136 1.363 . S
C1138 C1139 1.370 . S
C1138 C1142 1.524 . S
C1139 C1131 1.503 . S
C1139 C1138 1.370 . S
C1139 C1140 1.403 . S
C1140 C1139 1.403 . S
C1140 C1141 1.404 . S
C1140 C1143 1.539 . S
C1141 C1137 1.408 . S
C1141 C1140 1.404 . S
C1141 H1153 0.930 . S
C1142 C1138 1.524 . S
C1142 H1154 0.956 . S
C1142 H1155 0.961 . S
C1142 H1156 0.961 . S
C1143 C1140 1.539 . S
C1143 H1157 0.958 . S
C1143 H1158 0.961 . S
C1143 H1159 0.960 . S
H1144 C1128 0.931 . S
H1145 C1133 0.929 . S
H1146 C1134 0.960 . S
H1147 C1134 0.962 . S
H1148 C1134 0.960 . S
H1149 C1135 0.961 . S
H1150 C1135 0.961 . S
H1151 C1135 0.961 . S
H1152 C1136 0.931 . S
H1153 C1141 0.930 . S
H1154 C1142 0.956 . S
H1155 C1142 0.961 . S
H1156 C1142 0.961 . S
H1157 C1143 0.958 . S
H1158 C1143 0.961 . S
H1159 C1143 0.960 . S
C1160 C1161 1.391 . S
C1160 C1162 1.394 . S
C1160 H1176 0.931 . S
C1161 C1160 1.391 . S
C1161 C1165 1.376 . S
C1162 C1160 1.394 . S
C1162 C1163 1.369 . S
C1162 C1166 1.531 . S
C1163 C1162 1.369 . S
C1163 C1164 1.410 . S
C1163 C1171 1.503 . S
C1164 C1163 1.410 . S
C1164 C1165 1.392 . S
C1164 C1167 1.511 . S
C1165 C1161 1.376 . S
C1165 C1164 1.392 . S
C1165 H1177 0.929 . S
C1166 C1162 1.531 . S
C1166 H1178 0.960 . S
C1166 H1179 0.962 . S
C1166 H1180 0.960 . S
C1167 C1164 1.511 . S
C1167 H1181 0.961 . S
C1167 H1182 0.961 . S
C1167 H1183 0.961 . S
C1168 C1169 1.370 . S
C1168 C1170 1.363 . S
C1168 H1184 0.931 . S
C1169 C1168 1.370 . S
C1169 C1173 1.408 . S
C1170 C1168 1.363 . S
C1170 C1171 1.370 . S
C1170 C1174 1.524 . S
C1171 C1163 1.503 . S
C1171 C1170 1.370 . S
C1171 C1172 1.403 . S
C1172 C1171 1.403 . S
C1172 C1173 1.404 . S
C1172 C1175 1.539 . S
C1173 C1169 1.408 . S
C1173 C1172 1.404 . S
C1173 H1185 0.930 . S
C1174 C1170 1.524 . S
C1174 H1186 0.956 . S
C1174 H1187 0.961 . S
C1174 H1188 0.961 . S
C1175 C1172 1.539 . S
C1175 H1189 0.958 . S
C1175 H1190 0.961 . S
C1175 H1191 0.960 . S
H1176 C1160 0.931 . S
H1177 C1165 0.929 . S
H1178 C1166 0.960 . S
H1179 C1166 0.962 . S
H1180 C1166 0.960 . S
H1181 C1167 0.961 . S
H1182 C1167 0.961 . S
H1183 C1167 0.961 . S
H1184 C1168 0.931 . S
H1185 C1173 0.930 . S
H1186 C1174 0.956 . S
H1187 C1174 0.961 . S
H1188 C1174 0.961 . S
H1189 C1175 0.958 . S
H1190 C1175 0.961 . S
H1191 C1175 0.960 . S
C1192 C1193 1.391 . S
C1192 C1194 1.394 . S
C1192 H1208 0.931 . S
C1193 C1192 1.391 . S
C1193 C1197 1.376 . S
C1194 C1192 1.394 . S
C1194 C1195 1.369 . S
C1194 C1198 1.531 . S
C1195 C1194 1.369 . S
C1195 C1196 1.410 . S
C1195 C1203 1.503 . S
C1196 C1195 1.410 . S
C1196 C1197 1.392 . S
C1196 C1199 1.511 . S
C1197 C1193 1.376 . S
C1197 C1196 1.392 . S
C1197 H1209 0.929 . S
C1198 C1194 1.531 . S
C1198 H1210 0.960 . S
C1198 H1211 0.962 . S
C1198 H1212 0.960 . S
C1199 C1196 1.511 . S
C1199 H1213 0.961 . S
C1199 H1214 0.961 . S
C1199 H1215 0.961 . S
C1200 C1201 1.370 . S
C1200 C1202 1.363 . S
C1200 H1216 0.931 . S
C1201 C1200 1.370 . S
C1201 C1205 1.408 . S
C1202 C1200 1.363 . S
C1202 C1203 1.370 . S
C1202 C1206 1.524 . S
C1203 C1195 1.503 . S
C1203 C1202 1.370 . S
C1203 C1204 1.403 . S
C1204 C1203 1.403 . S
C1204 C1205 1.404 . S
C1204 C1207 1.539 . S
C1205 C1201 1.408 . S
C1205 C1204 1.404 . S
C1205 H1217 0.930 . S
C1206 C1202 1.524 . S
C1206 H1218 0.956 . S
C1206 H1219 0.961 . S
C1206 H1220 0.961 . S
C1207 C1204 1.539 . S
C1207 H1221 0.958 . S
C1207 H1222 0.961 . S
C1207 H1223 0.960 . S
H1208 C1192 0.931 . S
H1209 C1197 0.929 . S
H1210 C1198 0.960 . S
H1211 C1198 0.962 . S
H1212 C1198 0.960 . S
H1213 C1199 0.961 . S
H1214 C1199 0.961 . S
H1215 C1199 0.961 . S
H1216 C1200 0.931 . S
H1217 C1205 0.930 . S
H1218 C1206 0.956 . S
H1219 C1206 0.961 . S
H1220 C1206 0.961 . S
H1221 C1207 0.958 . S
H1222 C1207 0.961 . S
H1223 C1207 0.960 . S
C1224 C1225 1.391 . S
C1224 C1226 1.394 . S
C1224 H1240 0.931 . S
C1225 C1224 1.391 . S
C1225 C1229 1.376 . S
C1226 C1224 1.394 . S
C1226 C1227 1.369 . S
C1226 C1230 1.531 . S
C1227 C1226 1.369 . S
C1227 C1228 1.410 . S
C1227 C1235 1.503 . S
C1228 C1227 1.410 . S
C1228 C1229 1.392 . S
C1228 C1231 1.511 . S
C1229 C1225 1.376 . S
C1229 C1228 1.392 . S
C1229 H1241 0.929 . S
C1230 C1226 1.531 . S
C1230 H1242 0.960 . S
C1230 H1243 0.962 . S
C1230 H1244 0.960 . S
C1231 C1228 1.511 . S
C1231 H1245 0.961 . S
C1231 H1246 0.961 . S
C1231 H1247 0.961 . S
C1232 C1233 1.370 . S
C1232 C1234 1.363 . S
C1232 H1248 0.931 . S
C1233 C1232 1.370 . S
C1233 C1237 1.408 . S
C1234 C1232 1.363 . S
C1234 C1235 1.370 . S
C1234 C1238 1.524 . S
C1235 C1227 1.503 . S
C1235 C1234 1.370 . S
C1235 C1236 1.403 . S
C1236 C1235 1.403 . S
C1236 C1237 1.404 . S
C1236 C1239 1.539 . S
C1237 C1233 1.408 . S
C1237 C1236 1.404 . S
C1237 H1249 0.930 . S
C1238 C1234 1.524 . S
C1238 H1250 0.956 . S
C1238 H1251 0.961 . S
C1238 H1252 0.961 . S
C1239 C1236 1.539 . S
C1239 H1253 0.958 . S
C1239 H1254 0.961 . S
C1239 H1255 0.960 . S
H1240 C1224 0.931 . S
H1241 C1229 0.929 . S
H1242 C1230 0.960 . S
H1243 C1230 0.962 . S
H1244 C1230 0.960 . S
H1245 C1231 0.961 . S
H1246 C1231 0.961 . S
H1247 C1231 0.961 . S
H1248 C1232 0.931 . S
H1249 C1237 0.930 . S
H1250 C1238 0.956 . S
H1251 C1238 0.961 . S
H1252 C1238 0.961 . S
H1253 C1239 0.958 . S
H1254 C1239 0.961 . S
H1255 C1239 0.960 . S
C1256 C1257 1.391 . S
C1256 C1258 1.394 . S
C1256 H1272 0.931 . S
C1257 C1256 1.391 . S
C1257 C1261 1.376 . S
C1258 C1256 1.394 . S
C1258 C1259 1.369 . S
C1258 C1262 1.531 . S
C1259 C1258 1.369 . S
C1259 C1260 1.410 . S
C1259 C1267 1.503 . S
C1260 C1259 1.410 . S
C1260 C1261 1.392 . S
C1260 C1263 1.511 . S
C1261 C1257 1.376 . S
C1261 C1260 1.392 . S
C1261 H1273 0.929 . S
C1262 C1258 1.531 . S
C1262 H1274 0.960 . S
C1262 H1275 0.962 . S
C1262 H1276 0.960 . S
C1263 C1260 1.511 . S
C1263 H1277 0.961 . S
C1263 H1278 0.961 . S
C1263 H1279 0.961 . S
C1264 C1265 1.370 . S
C1264 C1266 1.363 . S
C1264 H1280 0.931 . S
C1265 C1264 1.370 . S
C1265 C1269 1.408 . S
C1266 C1264 1.363 . S
C1266 C1267 1.370 . S
C1266 C1270 1.524 . S
C1267 C1259 1.503 . S
C1267 C1266 1.370 . S
C1267 C1268 1.403 . S
C1268 C1267 1.403 . S
C1268 C1269 1.404 . S
C1268 C1271 1.539 . S
C1269 C1265 1.408 . S
C1269 C1268 1.404 . S
C1269 H1281 0.930 . S
C1270 C1266 1.524 . S
C1270 H1282 0.956 . S
C1270 H1283 0.961 . S
C1270 H1284 0.961 . S
C1271 C1268 1.539 . S
C1271 H1285 0.958 . S
C1271 H1286 0.961 . S
C1271 H1287 0.960 . S
H1272 C1256 0.931 . S
H1273 C1261 0.929 . S
H1274 C1262 0.960 . S
H1275 C1262 0.962 . S
H1276 C1262 0.960 . S
H1277 C1263 0.961 . S
H1278 C1263 0.961 . S
H1279 C1263 0.961 . S
H1280 C1264 0.931 . S
H1281 C1269 0.930 . S
H1282 C1270 0.956 . S
H1283 C1270 0.961 . S
H1284 C1270 0.961 . S
H1285 C1271 0.958 . S
H1286 C1271 0.961 . S
H1287 C1271 0.960 . S
C1288 C1289 1.391 . S
C1288 C1290 1.394 . S
C1288 H1304 0.931 . S
C1289 C1288 1.391 . S
C1289 C1293 1.376 . S
C1290 C1288 1.394 . S
C1290 C1291 1.369 . S
C1290 C1294 1.531 . S
C1291 C1290 1.369 . S
C1291 C1292 1.410 . S
C1291 C1299 1.503 . S
C1292 C1291 1.410 . S
C1292 C1293 1.392 . S
C1292 C1295 1.511 . S
C1293 C1289 1.376 . S
C1293 C1292 1.392 . S
C1293 H1305 0.929 . S
C1294 C1290 1.531 . S
C1294 H1306 0.960 . S
C1294 H1307 0.962 . S
C1294 H1308 0.960 . S
C1295 C1292 1.511 . S
C1295 H1309 0.961 . S
C1295 H1310 0.961 . S
C1295 H1311 0.961 . S
C1296 C1297 1.370 . S
C1296 C1298 1.363 . S
C1296 H1312 0.931 . S
C1297 C1296 1.370 . S
C1297 C1301 1.408 . S
C1298 C1296 1.363 . S
C1298 C1299 1.370 . S
C1298 C1302 1.524 . S
C1299 C1291 1.503 . S
C1299 C1298 1.370 . S
C1299 C1300 1.403 . S
C1300 C1299 1.403 . S
C1300 C1301 1.404 . S
C1300 C1303 1.539 . S
C1301 C1297 1.408 . S
C1301 C1300 1.404 . S
C1301 H1313 0.930 . S
C1302 C1298 1.524 . S
C1302 H1314 0.956 . S
C1302 H1315 0.961 . S
C1302 H1316 0.961 . S
C1303 C1300 1.539 . S
C1303 H1317 0.958 . S
C1303 H1318 0.961 . S
C1303 H1319 0.960 . S
H1304 C1288 0.931 . S
H1305 C1293 0.929 . S
H1306 C1294 0.960 . S
H1307 C1294 0.962 . S
H1308 C1294 0.960 . S
H1309 C1295 0.961 . S
H1310 C1295 0.961 . S
H1311 C1295 0.961 . S
H1312 C1296 0.931 . S
H1313 C1301 0.930 . S
H1314 C1302 0.956 . S
H1315 C1302 0.961 . S
H1316 C1302 0.961 . S
H1317 C1303 0.958 . S
H1318 C1303 0.961 . S
H1319 C1303 0.960 . S
C1320 C1321 1.391 . S
C1320 C1322 1.394 . S
C1320 H1336 0.931 . S
C1321 C1320 1.391 . S
C1321 C1325 1.376 . S
C1322 C1320 1.394 . S
C1322 C1323 1.369 . S
C1322 C1326 1.531 . S
C1323 C1322 1.369 . S
C1323 C1324 1.410 . S
C1323 C1331 1.503 1_556 S
C1324 C1323 1.410 . S
C1324 C1325 1.392 . S
C1324 C1327 1.511 1_556 S
C1325 C1321 1.376 . S
C1325 C1324 1.392 . S
C1325 H1337 0.929 . S
C1326 C1322 1.531 . S
C1326 H1338 0.960 . S
C1326 H1339 0.962 . S
C1326 H1340 0.960 . S
C1327 C1324 1.511 1_554 S
C1327 H1341 0.961 . S
C1327 H1342 0.961 . S
C1327 H1343 0.961 . S
C1328 C1329 1.370 . S
C1328 C1330 1.363 . S
C1328 H1344 0.931 . S
C1329 C1328 1.370 . S
C1329 C1333 1.408 . S
C1330 C1328 1.363 . S
C1330 C1331 1.370 . S
C1330 C1334 1.524 . S
C1331 C1323 1.503 1_554 S
C1331 C1330 1.370 . S
C1331 C1332 1.403 . S
C1332 C1331 1.403 . S
C1332 C1333 1.404 . S
C1332 C1335 1.539 1_554 S
C1333 C1329 1.408 . S
C1333 C1332 1.404 . S
C1333 H1345 0.930 . S
C1334 C1330 1.524 . S
C1334 H1346 0.956 . S
C1334 H1347 0.961 . S
C1334 H1348 0.961 . S
C1335 C1332 1.539 1_556 S
C1335 H1349 0.958 . S
C1335 H1350 0.961 . S
C1335 H1351 0.960 . S
H1336 C1320 0.931 . S
H1337 C1325 0.929 . S
H1338 C1326 0.960 . S
H1339 C1326 0.962 . S
H1340 C1326 0.960 . S
H1341 C1327 0.961 . S
H1342 C1327 0.961 . S
H1343 C1327 0.961 . S
H1344 C1328 0.931 . S
H1345 C1333 0.930 . S
H1346 C1334 0.956 . S
H1347 C1334 0.961 . S
H1348 C1334 0.961 . S
H1349 C1335 0.958 . S
H1350 C1335 0.961 . S
H1351 C1335 0.960 . S
C1352 C1353 1.391 . S
C1352 C1354 1.394 . S
C1352 H1368 0.931 . S
C1353 C1352 1.391 . S
C1353 C1357 1.376 . S
C1354 C1352 1.394 . S
C1354 C1355 1.369 . S
C1354 C1358 1.531 1_455 S
C1355 C1354 1.369 . S
C1355 C1356 1.410 . S
C1355 C1363 1.503 1_455 S
C1356 C1355 1.410 . S
C1356 C1357 1.392 . S
C1356 C1359 1.511 . S
C1357 C1353 1.376 . S
C1357 C1356 1.392 . S
C1357 H1369 0.929 . S
C1358 C1354 1.531 1_655 S
C1358 H1370 0.960 . S
C1358 H1371 0.962 . S
C1358 H1372 0.960 . S
C1359 C1356 1.511 . S
C1359 H1373 0.961 . S
C1359 H1374 0.961 . S
C1359 H1375 0.961 . S
C1360 C1361 1.370 . S
C1360 C1362 1.363 . S
C1360 H1376 0.931 . S
C1361 C1360 1.370 . S
C1361 C1365 1.408 . S
C1362 C1360 1.363 . S
C1362 C1363 1.370 . S
C1362 C1366 1.524 . S
C1363 C1355 1.503 1_655 S
C1363 C1362 1.370 . S
C1363 C1364 1.403 . S
C1364 C1363 1.403 . S
C1364 C1365 1.404 . S
C1364 C1367 1.539 . S
C1365 C1361 1.408 . S
C1365 C1364 1.404 . S
C1365 H1377 0.930 . S
C1366 C1362 1.524 . S
C1366 H1378 0.956 . S
C1366 H1379 0.961 1_655 S
C1366 H1380 0.961 . S
C1367 C1364 1.539 . S
C1367 H1381 0.958 . S
C1367 H1382 0.961 . S
C1367 H1383 0.960 1_655 S
H1368 C1352 0.931 . S
H1369 C1357 0.929 . S
H1370 C1358 0.960 . S
H1371 C1358 0.962 . S
H1372 C1358 0.960 . S
H1373 C1359 0.961 . S
H1374 C1359 0.961 . S
H1375 C1359 0.961 . S
H1376 C1360 0.931 . S
H1377 C1365 0.930 . S
H1378 C1366 0.956 . S
H1379 C1366 0.961 1_455 S
H1380 C1366 0.961 . S
H1381 C1367 0.958 . S
H1382 C1367 0.961 . S
H1383 C1367 0.960 1_455 S
C1384 C1385 1.391 . S
C1384 C1386 1.394 . S
C1384 H1400 0.931 . S
C1385 C1384 1.391 . S
C1385 C1389 1.376 . S
C1386 C1384 1.394 . S
C1386 C1387 1.369 . S
C1386 C1390 1.531 1_565 S
C1387 C1386 1.369 . S
C1387 C1388 1.410 . S
C1387 C1395 1.503 1_564 S
C1388 C1387 1.410 . S
C1388 C1389 1.392 . S
C1388 C1391 1.511 1_554 S
C1389 C1385 1.376 . S
C1389 C1388 1.392 . S
C1389 H1401 0.929 . S
C1390 C1386 1.531 1_545 S
C1390 H1402 0.960 . S
C1390 H1403 0.962 . S
C1390 H1404 0.960 . S
C1391 C1388 1.511 1_556 S
C1391 H1405 0.961 . S
C1391 H1406 0.961 . S
C1391 H1407 0.961 . S
C1392 C1393 1.370 . S
C1392 C1394 1.363 . S
C1392 H1408 0.931 . S
C1393 C1392 1.370 . S
C1393 C1397 1.408 . S
C1394 C1392 1.363 . S
C1394 C1395 1.370 . S
C1394 C1398 1.524 1_545 S
C1395 C1387 1.503 1_546 S
C1395 C1394 1.370 . S
C1395 C1396 1.403 . S
C1396 C1395 1.403 . S
C1396 C1397 1.404 . S
C1396 C1399 1.539 1_556 S
C1397 C1393 1.408 . S
C1397 C1396 1.404 . S
C1397 H1409 0.930 . S
C1398 C1394 1.524 1_565 S
C1398 H1410 0.956 . S
C1398 H1411 0.961 . S
C1398 H1412 0.961 . S
C1399 C1396 1.539 1_554 S
C1399 H1413 0.958 . S
C1399 H1414 0.965 . S
C1399 H1415 0.960 . S
H1400 C1384 0.931 . S
H1401 C1389 0.929 . S
H1402 C1390 0.960 . S
H1403 C1390 0.962 . S
H1404 C1390 0.960 . S
H1405 C1391 0.961 . S
H1406 C1391 0.961 . S
H1407 C1391 0.961 . S
H1408 C1392 0.931 . S
H1409 C1397 0.930 . S
H1410 C1398 0.956 . S
H1411 C1398 0.961 . S
H1412 C1398 0.961 . S
H1413 C1399 0.958 . S
H1414 C1399 0.965 . S
H1415 C1399 0.960 . S
C1416 C1417 1.391 . S
C1416 C1418 1.394 . S
C1416 H1432 0.931 . S
C1417 C1416 1.391 . S
C1417 C1421 1.376 . S
C1418 C1416 1.394 . S
C1418 C1419 1.369 . S
C1418 C1422 1.531 . S
C1419 C1418 1.369 . S
C1419 C1420 1.410 . S
C1419 C1427 1.503 . S
C1420 C1419 1.410 . S
C1420 C1421 1.392 . S
C1420 C1423 1.511 . S
C1421 C1417 1.376 . S
C1421 C1420 1.392 . S
C1421 H1433 0.929 . S
C1422 C1418 1.531 . S
C1422 H1434 0.960 . S
C1422 H1435 0.962 . S
C1422 H1436 0.960 . S
C1423 C1420 1.511 . S
C1423 H1437 0.961 . S
C1423 H1438 0.961 . S
C1423 H1439 0.961 . S
C1424 C1425 1.370 . S
C1424 C1426 1.363 . S
C1424 H1440 0.931 . S
C1425 C1424 1.370 . S
C1425 C1429 1.408 . S
C1426 C1424 1.363 . S
C1426 C1427 1.370 . S
C1426 C1430 1.524 . S
C1427 C1419 1.503 . S
C1427 C1426 1.370 . S
C1427 C1428 1.403 . S
C1428 C1427 1.403 . S
C1428 C1429 1.404 . S
C1428 C1431 1.539 . S
C1429 C1425 1.408 . S
C1429 C1428 1.404 . S
C1429 H1441 0.930 . S
C1430 C1426 1.524 . S
C1430 H1442 0.956 . S
C1430 H1443 0.961 . S
C1430 H1444 0.961 . S
C1431 C1428 1.539 . S
C1431 H1445 0.958 . S
C1431 H1446 0.961 . S
C1431 H1447 0.960 . S
H1432 C1416 0.931 . S
H1433 C1421 0.929 . S
H1434 C1422 0.960 . S
H1435 C1422 0.962 . S
H1436 C1422 0.960 . S
H1437 C1423 0.961 . S
H1438 C1423 0.961 . S
H1439 C1423 0.961 . S
H1440 C1424 0.931 . S
H1441 C1429 0.930 . S
H1442 C1430 0.956 . S
H1443 C1430 0.961 . S
H1444 C1430 0.961 . S
H1445 C1431 0.958 . S
H1446 C1431 0.961 . S
H1447 C1431 0.960 . S
C1448 C1449 1.391 . S
C1448 C1450 1.394 . S
C1448 H1464 0.931 . S
C1449 C1448 1.391 . S
C1449 C1453 1.376 . S
C1450 C1448 1.394 . S
C1450 C1451 1.369 . S
C1450 C1454 1.531 1_655 S
C1451 C1450 1.369 . S
C1451 C1452 1.410 . S
C1451 C1459 1.503 1_656 S
C1452 C1451 1.410 . S
C1452 C1453 1.392 . S
C1452 C1455 1.511 1_556 S
C1453 C1449 1.376 . S
C1453 C1452 1.392 . S
C1453 H1465 0.929 . S
C1454 C1450 1.531 1_455 S
C1454 H1466 0.960 . S
C1454 H1467 0.962 . S
C1454 H1468 0.960 . S
C1455 C1452 1.511 1_554 S
C1455 H1469 0.961 . S
C1455 H1470 0.961 . S
C1455 H1471 0.961 . S
C1456 C1457 1.370 . S
C1456 C1458 1.363 . S
C1456 H1472 0.931 . S
C1457 C1456 1.370 . S
C1457 C1461 1.408 . S
C1458 C1456 1.363 . S
C1458 C1459 1.370 . S
C1458 C1462 1.524 . S
C1459 C1451 1.503 1_454 S
C1459 C1458 1.370 . S
C1459 C1460 1.403 . S
C1460 C1459 1.403 . S
C1460 C1461 1.404 . S
C1460 C1463 1.539 . S
C1461 C1457 1.408 . S
C1461 C1460 1.404 . S
C1461 H1473 0.930 . S
C1462 C1458 1.524 . S
C1462 H1474 0.956 1_554 S
C1462 H1475 0.961 1_455 S
C1462 H1476 0.961 . S
C1463 C1460 1.539 . S
C1463 H1477 0.958 1_554 S
C1463 H1478 0.961 . S
C1463 H1479 0.960 1_455 S
H1464 C1448 0.931 . S
H1465 C1453 0.929 . S
H1466 C1454 0.960 . S
H1467 C1454 0.962 . S
H1468 C1454 0.960 . S
H1469 C1455 0.961 . S
H1470 C1455 0.961 . S
H1471 C1455 0.961 . S
H1472 C1456 0.931 . S
H1473 C1461 0.930 . S
H1474 C1462 0.956 1_556 S
H1475 C1462 0.961 1_655 S
H1476 C1462 0.961 . S
H1477 C1463 0.958 1_556 S
H1478 C1463 0.961 . S
H1479 C1463 0.960 1_655 S
C1480 C1481 1.391 . S
C1480 C1482 1.394 . S
C1480 H1496 0.931 . S
C1481 C1480 1.391 . S
C1481 C1485 1.376 . S
C1482 C1480 1.394 . S
C1482 C1483 1.369 . S
C1482 C1486 1.531 . S
C1483 C1482 1.369 . S
C1483 C1484 1.410 . S
C1483 C1491 1.503 1_565 S
C1484 C1483 1.410 . S
C1484 C1485 1.392 . S
C1484 C1487 1.511 1_565 S
C1485 C1481 1.376 . S
C1485 C1484 1.392 . S
C1485 H1497 0.929 . S
C1486 C1482 1.531 . S
C1486 H1498 0.960 . S
C1486 H1499 0.962 . S
C1486 H1500 0.960 . S
C1487 C1484 1.511 1_545 S
C1487 H1501 0.961 . S
C1487 H1502 0.961 . S
C1487 H1503 0.961 . S
C1488 C1489 1.370 . S
C1488 C1490 1.363 . S
C1488 H1504 0.931 . S
C1489 C1488 1.370 . S
C1489 C1493 1.408 . S
C1490 C1488 1.363 . S
C1490 C1491 1.370 . S
C1490 C1494 1.524 . S
C1491 C1483 1.503 1_545 S
C1491 C1490 1.370 . S
C1491 C1492 1.403 . S
C1492 C1491 1.403 . S
C1492 C1493 1.404 . S
C1492 C1495 1.539 . S
C1493 C1489 1.408 . S
C1493 C1492 1.404 . S
C1493 H1505 0.930 . S
C1494 C1490 1.524 . S
C1494 H1506 0.956 1_545 S
C1494 H1507 0.961 . S
C1494 H1508 0.961 . S
C1495 C1492 1.539 . S
C1495 H1509 0.958 1_545 S
C1495 H1510 0.961 . S
C1495 H1511 0.960 1_545 S
H1496 C1480 0.931 . S
H1497 C1485 0.929 . S
H1498 C1486 0.960 . S
H1499 C1486 0.962 . S
H1500 C1486 0.960 . S
H1501 C1487 0.961 . S
H1502 C1487 0.961 . S
H1503 C1487 0.961 . S
H1504 C1488 0.931 . S
H1505 C1493 0.930 . S
H1506 C1494 0.956 1_565 S
H1507 C1494 0.961 . S
H1508 C1494 0.961 . S
H1509 C1495 0.958 1_565 S
H1510 C1495 0.961 . S
H1511 C1495 0.960 1_565 S
C361 C147 0.946 . S
C369 N14 0.920 . S
C393 N156 0.763 . S
C401 C46 0.814 . S
C425 N74 0.901 . S
C433 C27 0.932 . S
C457 C106 0.782 . S
C465 N36 0.810 1_565 S
C489 N134 0.905 . S
C497 C87 0.928 . S
C521 N96 0.862 1_455 S
C529 C166 0.786 . S
C553 N246 0.735 1_655 S
C561 C196 0.824 . S
C585 C226 0.849 . S
C593 N276 0.776 1_565 S
C617 N306 0.756 . S
C625 C256 0.816 . S
C649 C286 0.819 . S
C657 N336 0.788 1_455 S
C681 C316 0.850 . S
C689 N186 0.774 1_545 S
C713 N216 0.735 . S
C721 C346 0.824 . S
C745 C136 1.122 . S
C753 N6 1.159 . S
C777 C57 1.232 . S
C785 N164 1.207 . S
C809 N66 1.169 . S
C817 C16 1.147 . S
C841 C117 1.254 . S
C849 N44 1.191 . S
C873 C76 1.157 . S
C881 N126 1.155 . S
C905 N104 1.165 . S
C913 C177 1.246 . S
C937 N254 1.239 . S
C945 C207 1.228 . S
C969 C237 1.215 . S
C977 N284 1.222 . S
C1001 C267 1.230 . S
C1009 N314 1.207 . S
C1033 N344 1.230 . S
C1041 C297 1.232 . S
C1065 C327 1.255 . S
C1073 N194 1.189 . S
C1097 N224 1.238 . S
C1105 C357 1.231 . S
C1129 C301 1.605 . S
C1137 C10 1.630 . S
C1161 C31 1.616 . S
C1169 C331 1.618 . S
C1193 C70 1.629 . S
C1201 C181 1.625 . S
C1225 C91 1.629 . S
C1233 C211 1.614 . S
C1257 C130 1.624 . S
C1265 C241 1.618 . S
C1289 C271 1.622 . S
C1297 C151 1.616 . S
C1321 C280 1.887 . S
C1329 C1 1.855 . S
C1353 C310 1.903 . S
C1361 C40 1.906 . S
C1385 C61 1.825 . S
C1393 C340 1.913 . S
C1417 C100 1.898 . S
C1425 C190 1.919 . S
C1449 C220 1.901 . S
C1457 C121 1.845 . S
C1481 C250 1.918 . S
C1489 C160 1.912 . S
