# Generated by pormake.
# Topology twf-e, (6)-cn, num edge types: 1
# Building blocks:
#     Node 0, Type 0, BuildingBlock: KUMBUR_clean_sbu_1, # of connection points: 6
#     Node 1, Type 0, BuildingBlock: KUMBUR_clean_sbu_1, # of connection points: 6
#     Node 2, Type 0, BuildingBlock: KUMBUR_clean_sbu_1, # of connection points: 6
#     Node 3, Type 0, BuildingBlock: KUMBUR_clean_sbu_1, # of connection points: 6
#     Node 4, Type 0, BuildingBlock: KUMBUR_clean_sbu_1, # of connection points: 6
#     Node 5, Type 0, BuildingBlock: KUMBUR_clean_sbu_1, # of connection points: 6
#     Node 6, Type 0, BuildingBlock: KUMBUR_clean_sbu_1, # of connection points: 6
#     Node 7, Type 0, BuildingBlock: KUMBUR_clean_sbu_1, # of connection points: 6
#     Node 8, Type 0, BuildingBlock: KUMBUR_clean_sbu_1, # of connection points: 6
#     Node 9, Type 0, BuildingBlock: KUMBUR_clean_sbu_1, # of connection points: 6
#     Node 10, Type 0, BuildingBlock: KUMBUR_clean_sbu_1, # of connection points: 6
#     Node 11, Type 0, BuildingBlock: KUMBUR_clean_sbu_1, # of connection points: 6
#     Node 12, Type 0, BuildingBlock: KUMBUR_clean_sbu_1, # of connection points: 6
#     Node 13, Type 0, BuildingBlock: KUMBUR_clean_sbu_1, # of connection points: 6
#     Node 14, Type 0, BuildingBlock: KUMBUR_clean_sbu_1, # of connection points: 6
#     Node 15, Type 0, BuildingBlock: KUMBUR_clean_sbu_1, # of connection points: 6
#     Node 16, Type 0, BuildingBlock: KUMBUR_clean_sbu_1, # of connection points: 6
#     Node 17, Type 0, BuildingBlock: KUMBUR_clean_sbu_1, # of connection points: 6
#     Node 18, Type 0, BuildingBlock: KUMBUR_clean_sbu_1, # of connection points: 6
#     Node 19, Type 0, BuildingBlock: KUMBUR_clean_sbu_1, # of connection points: 6
#     Node 20, Type 0, BuildingBlock: KUMBUR_clean_sbu_1, # of connection points: 6
#     Node 21, Type 0, BuildingBlock: KUMBUR_clean_sbu_1, # of connection points: 6
#     Node 22, Type 0, BuildingBlock: KUMBUR_clean_sbu_1, # of connection points: 6
#     Node 23, Type 0, BuildingBlock: KUMBUR_clean_sbu_1, # of connection points: 6
#     Node 24, Type 0, BuildingBlock: KUMBUR_clean_sbu_1, # of connection points: 6
#     Node 25, Type 0, BuildingBlock: KUMBUR_clean_sbu_1, # of connection points: 6
#     Node 26, Type 0, BuildingBlock: KUMBUR_clean_sbu_1, # of connection points: 6
#     Node 27, Type 0, BuildingBlock: KUMBUR_clean_sbu_1, # of connection points: 6
#     Node 28, Type 0, BuildingBlock: KUMBUR_clean_sbu_1, # of connection points: 6
#     Node 29, Type 0, BuildingBlock: KUMBUR_clean_sbu_1, # of connection points: 6
#     Node 30, Type 0, BuildingBlock: KUMBUR_clean_sbu_1, # of connection points: 6
#     Node 31, Type 0, BuildingBlock: KUMBUR_clean_sbu_1, # of connection points: 6
#     Node 32, Type 0, BuildingBlock: KUMBUR_clean_sbu_1, # of connection points: 6
#     Node 33, Type 0, BuildingBlock: KUMBUR_clean_sbu_1, # of connection points: 6
#     Node 34, Type 0, BuildingBlock: KUMBUR_clean_sbu_1, # of connection points: 6
#     Node 35, Type 0, BuildingBlock: KUMBUR_clean_sbu_1, # of connection points: 6
#     Node 36, Type 0, BuildingBlock: KUMBUR_clean_sbu_1, # of connection points: 6
#     Node 37, Type 0, BuildingBlock: KUMBUR_clean_sbu_1, # of connection points: 6
#     Node 38, Type 0, BuildingBlock: KUMBUR_clean_sbu_1, # of connection points: 6
#     Node 39, Type 0, BuildingBlock: KUMBUR_clean_sbu_1, # of connection points: 6
#     Node 40, Type 0, BuildingBlock: KUMBUR_clean_sbu_1, # of connection points: 6
#     Node 41, Type 0, BuildingBlock: KUMBUR_clean_sbu_1, # of connection points: 6
#     Node 42, Type 0, BuildingBlock: KUMBUR_clean_sbu_1, # of connection points: 6
#     Node 43, Type 0, BuildingBlock: KUMBUR_clean_sbu_1, # of connection points: 6
#     Node 44, Type 0, BuildingBlock: KUMBUR_clean_sbu_1, # of connection points: 6
#     Node 45, Type 0, BuildingBlock: KUMBUR_clean_sbu_1, # of connection points: 6
#     Node 46, Type 0, BuildingBlock: KUMBUR_clean_sbu_1, # of connection points: 6
#     Node 47, Type 0, BuildingBlock: KUMBUR_clean_sbu_1, # of connection points: 6
#     Edge 48, Type (0, 0), BuildingBlock: ZUJKAS_clean_linker_0, # of connection points: 2
#     Edge 49, Type (0, 0), BuildingBlock: ZUJKAS_clean_linker_0, # of connection points: 2
#     Edge 50, Type (0, 0), BuildingBlock: ZUJKAS_clean_linker_0, # of connection points: 2
#     Edge 51, Type (0, 0), BuildingBlock: ZUJKAS_clean_linker_0, # of connection points: 2
#     Edge 52, Type (0, 0), BuildingBlock: ZUJKAS_clean_linker_0, # of connection points: 2
#     Edge 53, Type (0, 0), BuildingBlock: ZUJKAS_clean_linker_0, # of connection points: 2
#     Edge 54, Type (0, 0), BuildingBlock: ZUJKAS_clean_linker_0, # of connection points: 2
#     Edge 55, Type (0, 0), BuildingBlock: ZUJKAS_clean_linker_0, # of connection points: 2
#     Edge 56, Type (0, 0), BuildingBlock: ZUJKAS_clean_linker_0, # of connection points: 2
#     Edge 57, Type (0, 0), BuildingBlock: ZUJKAS_clean_linker_0, # of connection points: 2
#     Edge 58, Type (0, 0), BuildingBlock: ZUJKAS_clean_linker_0, # of connection points: 2
#     Edge 59, Type (0, 0), BuildingBlock: ZUJKAS_clean_linker_0, # of connection points: 2
#     Edge 60, Type (0, 0), BuildingBlock: ZUJKAS_clean_linker_0, # of connection points: 2
#     Edge 61, Type (0, 0), BuildingBlock: ZUJKAS_clean_linker_0, # of connection points: 2
#     Edge 62, Type (0, 0), BuildingBlock: ZUJKAS_clean_linker_0, # of connection points: 2
#     Edge 63, Type (0, 0), BuildingBlock: ZUJKAS_clean_linker_0, # of connection points: 2
#     Edge 64, Type (0, 0), BuildingBlock: ZUJKAS_clean_linker_0, # of connection points: 2
#     Edge 65, Type (0, 0), BuildingBlock: ZUJKAS_clean_linker_0, # of connection points: 2
#     Edge 66, Type (0, 0), BuildingBlock: ZUJKAS_clean_linker_0, # of connection points: 2
#     Edge 67, Type (0, 0), BuildingBlock: ZUJKAS_clean_linker_0, # of connection points: 2
#     Edge 68, Type (0, 0), BuildingBlock: ZUJKAS_clean_linker_0, # of connection points: 2
#     Edge 69, Type (0, 0), BuildingBlock: ZUJKAS_clean_linker_0, # of connection points: 2
#     Edge 70, Type (0, 0), BuildingBlock: ZUJKAS_clean_linker_0, # of connection points: 2
#     Edge 71, Type (0, 0), BuildingBlock: ZUJKAS_clean_linker_0, # of connection points: 2
#     Edge 72, Type (0, 0), BuildingBlock: ZUJKAS_clean_linker_0, # of connection points: 2
#     Edge 73, Type (0, 0), BuildingBlock: ZUJKAS_clean_linker_0, # of connection points: 2
#     Edge 74, Type (0, 0), BuildingBlock: ZUJKAS_clean_linker_0, # of connection points: 2
#     Edge 75, Type (0, 0), BuildingBlock: ZUJKAS_clean_linker_0, # of connection points: 2
#     Edge 76, Type (0, 0), BuildingBlock: ZUJKAS_clean_linker_0, # of connection points: 2
#     Edge 77, Type (0, 0), BuildingBlock: ZUJKAS_clean_linker_0, # of connection points: 2
#     Edge 78, Type (0, 0), BuildingBlock: ZUJKAS_clean_linker_0, # of connection points: 2
#     Edge 79, Type (0, 0), BuildingBlock: ZUJKAS_clean_linker_0, # of connection points: 2
#     Edge 80, Type (0, 0), BuildingBlock: ZUJKAS_clean_linker_0, # of connection points: 2
#     Edge 81, Type (0, 0), BuildingBlock: ZUJKAS_clean_linker_0, # of connection points: 2
#     Edge 82, Type (0, 0), BuildingBlock: ZUJKAS_clean_linker_0, # of connection points: 2
#     Edge 83, Type (0, 0), BuildingBlock: ZUJKAS_clean_linker_0, # of connection points: 2
#     Edge 84, Type (0, 0), BuildingBlock: ZUJKAS_clean_linker_0, # of connection points: 2
#     Edge 85, Type (0, 0), BuildingBlock: ZUJKAS_clean_linker_0, # of connection points: 2
#     Edge 86, Type (0, 0), BuildingBlock: ZUJKAS_clean_linker_0, # of connection points: 2
#     Edge 87, Type (0, 0), BuildingBlock: ZUJKAS_clean_linker_0, # of connection points: 2
#     Edge 88, Type (0, 0), BuildingBlock: ZUJKAS_clean_linker_0, # of connection points: 2
#     Edge 89, Type (0, 0), BuildingBlock: ZUJKAS_clean_linker_0, # of connection points: 2
#     Edge 90, Type (0, 0), BuildingBlock: ZUJKAS_clean_linker_0, # of connection points: 2
#     Edge 91, Type (0, 0), BuildingBlock: ZUJKAS_clean_linker_0, # of connection points: 2
#     Edge 92, Type (0, 0), BuildingBlock: ZUJKAS_clean_linker_0, # of connection points: 2
#     Edge 93, Type (0, 0), BuildingBlock: ZUJKAS_clean_linker_0, # of connection points: 2
#     Edge 94, Type (0, 0), BuildingBlock: ZUJKAS_clean_linker_0, # of connection points: 2
#     Edge 95, Type (0, 0), BuildingBlock: ZUJKAS_clean_linker_0, # of connection points: 2
#     Edge 96, Type (0, 0), BuildingBlock: ZUJKAS_clean_linker_0, # of connection points: 2
#     Edge 97, Type (0, 0), BuildingBlock: ZUJKAS_clean_linker_0, # of connection points: 2
#     Edge 98, Type (0, 0), BuildingBlock: ZUJKAS_clean_linker_0, # of connection points: 2
#     Edge 99, Type (0, 0), BuildingBlock: ZUJKAS_clean_linker_0, # of connection points: 2
#     Edge 100, Type (0, 0), BuildingBlock: ZUJKAS_clean_linker_0, # of connection points: 2
#     Edge 101, Type (0, 0), BuildingBlock: ZUJKAS_clean_linker_0, # of connection points: 2
#     Edge 102, Type (0, 0), BuildingBlock: ZUJKAS_clean_linker_0, # of connection points: 2
#     Edge 103, Type (0, 0), BuildingBlock: ZUJKAS_clean_linker_0, # of connection points: 2
#     Edge 104, Type (0, 0), BuildingBlock: ZUJKAS_clean_linker_0, # of connection points: 2
#     Edge 105, Type (0, 0), BuildingBlock: ZUJKAS_clean_linker_0, # of connection points: 2
#     Edge 106, Type (0, 0), BuildingBlock: ZUJKAS_clean_linker_0, # of connection points: 2
#     Edge 107, Type (0, 0), BuildingBlock: ZUJKAS_clean_linker_0, # of connection points: 2
#     Edge 108, Type (0, 0), BuildingBlock: ZUJKAS_clean_linker_0, # of connection points: 2
#     Edge 109, Type (0, 0), BuildingBlock: ZUJKAS_clean_linker_0, # of connection points: 2
#     Edge 110, Type (0, 0), BuildingBlock: ZUJKAS_clean_linker_0, # of connection points: 2
#     Edge 111, Type (0, 0), BuildingBlock: ZUJKAS_clean_linker_0, # of connection points: 2
#     Edge 112, Type (0, 0), BuildingBlock: ZUJKAS_clean_linker_0, # of connection points: 2
#     Edge 113, Type (0, 0), BuildingBlock: ZUJKAS_clean_linker_0, # of connection points: 2
#     Edge 114, Type (0, 0), BuildingBlock: ZUJKAS_clean_linker_0, # of connection points: 2
#     Edge 115, Type (0, 0), BuildingBlock: ZUJKAS_clean_linker_0, # of connection points: 2
#     Edge 116, Type (0, 0), BuildingBlock: ZUJKAS_clean_linker_0, # of connection points: 2
#     Edge 117, Type (0, 0), BuildingBlock: ZUJKAS_clean_linker_0, # of connection points: 2
#     Edge 118, Type (0, 0), BuildingBlock: ZUJKAS_clean_linker_0, # of connection points: 2
#     Edge 119, Type (0, 0), BuildingBlock: ZUJKAS_clean_linker_0, # of connection points: 2
#     Edge 120, Type (0, 0), BuildingBlock: ZUJKAS_clean_linker_0, # of connection points: 2
#     Edge 121, Type (0, 0), BuildingBlock: ZUJKAS_clean_linker_0, # of connection points: 2
#     Edge 122, Type (0, 0), BuildingBlock: ZUJKAS_clean_linker_0, # of connection points: 2
#     Edge 123, Type (0, 0), BuildingBlock: ZUJKAS_clean_linker_0, # of connection points: 2
#     Edge 124, Type (0, 0), BuildingBlock: ZUJKAS_clean_linker_0, # of connection points: 2
#     Edge 125, Type (0, 0), BuildingBlock: ZUJKAS_clean_linker_0, # of connection points: 2
#     Edge 126, Type (0, 0), BuildingBlock: ZUJKAS_clean_linker_0, # of connection points: 2
#     Edge 127, Type (0, 0), BuildingBlock: ZUJKAS_clean_linker_0, # of connection points: 2
#     Edge 128, Type (0, 0), BuildingBlock: ZUJKAS_clean_linker_0, # of connection points: 2
#     Edge 129, Type (0, 0), BuildingBlock: ZUJKAS_clean_linker_0, # of connection points: 2
#     Edge 130, Type (0, 0), BuildingBlock: ZUJKAS_clean_linker_0, # of connection points: 2
#     Edge 131, Type (0, 0), BuildingBlock: ZUJKAS_clean_linker_0, # of connection points: 2
#     Edge 132, Type (0, 0), BuildingBlock: ZUJKAS_clean_linker_0, # of connection points: 2
#     Edge 133, Type (0, 0), BuildingBlock: ZUJKAS_clean_linker_0, # of connection points: 2
#     Edge 134, Type (0, 0), BuildingBlock: ZUJKAS_clean_linker_0, # of connection points: 2
#     Edge 135, Type (0, 0), BuildingBlock: ZUJKAS_clean_linker_0, # of connection points: 2
#     Edge 136, Type (0, 0), BuildingBlock: ZUJKAS_clean_linker_0, # of connection points: 2
#     Edge 137, Type (0, 0), BuildingBlock: ZUJKAS_clean_linker_0, # of connection points: 2
#     Edge 138, Type (0, 0), BuildingBlock: ZUJKAS_clean_linker_0, # of connection points: 2
#     Edge 139, Type (0, 0), BuildingBlock: ZUJKAS_clean_linker_0, # of connection points: 2
#     Edge 140, Type (0, 0), BuildingBlock: ZUJKAS_clean_linker_0, # of connection points: 2
#     Edge 141, Type (0, 0), BuildingBlock: ZUJKAS_clean_linker_0, # of connection points: 2
#     Edge 142, Type (0, 0), BuildingBlock: ZUJKAS_clean_linker_0, # of connection points: 2
#     Edge 143, Type (0, 0), BuildingBlock: ZUJKAS_clean_linker_0, # of connection points: 2
#     Edge 144, Type (0, 0), BuildingBlock: ZUJKAS_clean_linker_0, # of connection points: 2
#     Edge 145, Type (0, 0), BuildingBlock: ZUJKAS_clean_linker_0, # of connection points: 2
#     Edge 146, Type (0, 0), BuildingBlock: ZUJKAS_clean_linker_0, # of connection points: 2
#     Edge 147, Type (0, 0), BuildingBlock: ZUJKAS_clean_linker_0, # of connection points: 2
#     Edge 148, Type (0, 0), BuildingBlock: ZUJKAS_clean_linker_0, # of connection points: 2
#     Edge 149, Type (0, 0), BuildingBlock: ZUJKAS_clean_linker_0, # of connection points: 2
#     Edge 150, Type (0, 0), BuildingBlock: ZUJKAS_clean_linker_0, # of connection points: 2
#     Edge 151, Type (0, 0), BuildingBlock: ZUJKAS_clean_linker_0, # of connection points: 2
#     Edge 152, Type (0, 0), BuildingBlock: ZUJKAS_clean_linker_0, # of connection points: 2
#     Edge 153, Type (0, 0), BuildingBlock: ZUJKAS_clean_linker_0, # of connection points: 2
#     Edge 154, Type (0, 0), BuildingBlock: ZUJKAS_clean_linker_0, # of connection points: 2
#     Edge 155, Type (0, 0), BuildingBlock: ZUJKAS_clean_linker_0, # of connection points: 2
#     Edge 156, Type (0, 0), BuildingBlock: ZUJKAS_clean_linker_0, # of connection points: 2
#     Edge 157, Type (0, 0), BuildingBlock: ZUJKAS_clean_linker_0, # of connection points: 2
#     Edge 158, Type (0, 0), BuildingBlock: ZUJKAS_clean_linker_0, # of connection points: 2
#     Edge 159, Type (0, 0), BuildingBlock: ZUJKAS_clean_linker_0, # of connection points: 2
#     Edge 160, Type (0, 0), BuildingBlock: ZUJKAS_clean_linker_0, # of connection points: 2
#     Edge 161, Type (0, 0), BuildingBlock: ZUJKAS_clean_linker_0, # of connection points: 2
#     Edge 162, Type (0, 0), BuildingBlock: ZUJKAS_clean_linker_0, # of connection points: 2
#     Edge 163, Type (0, 0), BuildingBlock: ZUJKAS_clean_linker_0, # of connection points: 2
#     Edge 164, Type (0, 0), BuildingBlock: ZUJKAS_clean_linker_0, # of connection points: 2
#     Edge 165, Type (0, 0), BuildingBlock: ZUJKAS_clean_linker_0, # of connection points: 2
#     Edge 166, Type (0, 0), BuildingBlock: ZUJKAS_clean_linker_0, # of connection points: 2
#     Edge 167, Type (0, 0), BuildingBlock: ZUJKAS_clean_linker_0, # of connection points: 2
#     Edge 168, Type (0, 0), BuildingBlock: ZUJKAS_clean_linker_0, # of connection points: 2
#     Edge 169, Type (0, 0), BuildingBlock: ZUJKAS_clean_linker_0, # of connection points: 2
#     Edge 170, Type (0, 0), BuildingBlock: ZUJKAS_clean_linker_0, # of connection points: 2
#     Edge 171, Type (0, 0), BuildingBlock: ZUJKAS_clean_linker_0, # of connection points: 2
#     Edge 172, Type (0, 0), BuildingBlock: ZUJKAS_clean_linker_0, # of connection points: 2
#     Edge 173, Type (0, 0), BuildingBlock: ZUJKAS_clean_linker_0, # of connection points: 2
#     Edge 174, Type (0, 0), BuildingBlock: ZUJKAS_clean_linker_0, # of connection points: 2
#     Edge 175, Type (0, 0), BuildingBlock: ZUJKAS_clean_linker_0, # of connection points: 2
#     Edge 176, Type (0, 0), BuildingBlock: ZUJKAS_clean_linker_0, # of connection points: 2
#     Edge 177, Type (0, 0), BuildingBlock: ZUJKAS_clean_linker_0, # of connection points: 2
#     Edge 178, Type (0, 0), BuildingBlock: ZUJKAS_clean_linker_0, # of connection points: 2
#     Edge 179, Type (0, 0), BuildingBlock: ZUJKAS_clean_linker_0, # of connection points: 2
#     Edge 180, Type (0, 0), BuildingBlock: ZUJKAS_clean_linker_0, # of connection points: 2
#     Edge 181, Type (0, 0), BuildingBlock: ZUJKAS_clean_linker_0, # of connection points: 2
#     Edge 182, Type (0, 0), BuildingBlock: ZUJKAS_clean_linker_0, # of connection points: 2
#     Edge 183, Type (0, 0), BuildingBlock: ZUJKAS_clean_linker_0, # of connection points: 2
#     Edge 184, Type (0, 0), BuildingBlock: ZUJKAS_clean_linker_0, # of connection points: 2
#     Edge 185, Type (0, 0), BuildingBlock: ZUJKAS_clean_linker_0, # of connection points: 2
#     Edge 186, Type (0, 0), BuildingBlock: ZUJKAS_clean_linker_0, # of connection points: 2
#     Edge 187, Type (0, 0), BuildingBlock: ZUJKAS_clean_linker_0, # of connection points: 2
#     Edge 188, Type (0, 0), BuildingBlock: ZUJKAS_clean_linker_0, # of connection points: 2
#     Edge 189, Type (0, 0), BuildingBlock: ZUJKAS_clean_linker_0, # of connection points: 2
#     Edge 190, Type (0, 0), BuildingBlock: ZUJKAS_clean_linker_0, # of connection points: 2
#     Edge 191, Type (0, 0), BuildingBlock: ZUJKAS_clean_linker_0, # of connection points: 2
# Relax obj value: 0.718
# Max RMSD: 0.297
# Mean RMSD: 0.255
data_MOF--net-twf-e--node1-KUMBUR_clean_sbu_1--edge1-ZUJKAS_clean_linker_0
_symmetry_space_group_name_H-M    P1
_symmetry_Int_Tables_number       1
_symmetry_cell_setting            triclinic
loop_
_symmetry_equiv_pos_as_xyz
'x, y, z'
_cell_length_a     82.712077
_cell_length_b     82.567583
_cell_length_c     82.538195
_cell_angle_alpha  91.537808
_cell_angle_beta   88.686509
_cell_angle_gamma 93.989463
loop_
_atom_site_label
_atom_site_type_symbol
_atom_site_fract_x
_atom_site_fract_y
_atom_site_fract_z
_atom_type_partial_charge
Tb0 Tb 0.08918 0.24323 0.42042 0.0
C1 C 1.01376 0.23833 0.41491 0.0
N2 N 0.02687 0.24722 0.40898 0.0
C3 C 1.0166 0.24349 0.382 0.0
C4 C 1.00146 0.23173 0.40462 0.0
C5 C 0.02834 0.25002 0.3927 0.0
C6 C 1.00305 0.23438 0.38798 0.0
C7 C 0.99999 0.2256 0.43788 0.0
C8 C 1.01309 0.23532 0.43128 0.0
C9 C 0.9872 0.21985 0.4279 0.0
C10 C 0.98803 0.22272 0.41126 0.0
Tb11 Tb 0.04428 0.25901 0.42784 0.0
N12 N 0.02541 0.24164 0.44064 0.0
C13 C 1.00019 0.22185 0.45426 0.0
C14 C 0.02546 0.23816 0.45675 0.0
C15 C 1.01307 0.22803 0.46369 0.0
H16 H 0.0386 0.25712 0.38777 0.0
H17 H 1.01333 0.22525 0.47642 0.0
H18 H 0.08702 0.21057 0.44294 0.0
H19 H 0.14062 0.28015 0.39746 0.0
H20 H 0.03471 0.24324 0.46461 0.0
H21 H 0.9905 0.21419 0.45973 0.0
H22 H 0.11179 0.27041 0.39968 0.0
H23 H 1.01796 0.24562 0.36914 0.0
H24 H 0.97684 0.21274 0.43286 0.0
H25 H 0.97833 0.21775 0.40361 0.0
H26 H 0.10544 0.19549 0.459 0.0
H27 H 0.99391 0.22942 0.37967 0.0
H28 H 0.16089 0.26814 0.41422 0.0
N29 N 0.10519 0.22881 0.43615 0.0
C30 C 0.12116 0.2338 0.43652 0.0
C31 C 0.11001 0.20631 0.45281 0.0
C32 C 0.13225 0.22525 0.44511 0.0
C33 C 0.09957 0.21498 0.44376 0.0
C34 C 0.12641 0.21153 0.45357 0.0
N35 N 0.11546 0.25389 0.4184 0.0
C36 C 0.12044 0.26539 0.4074 0.0
C37 C 0.14315 0.25172 0.42615 0.0
C38 C 0.1265 0.24687 0.42732 0.0
C39 C 0.1482 0.26409 0.41553 0.0
C40 C 0.13679 0.27087 0.40602 0.0
H41 H 0.13452 0.20465 0.46037 0.0
H42 H 0.15753 0.22404 0.45109 0.0
H43 H 0.16711 0.2471 0.43428 0.0
O44 O 0.07907 0.22995 0.40033 0.0
O45 O 0.09342 0.26915 0.42634 0.0
O46 O 0.06896 0.26191 0.42971 0.0
O47 O 0.10429 0.22907 0.40595 0.0
O48 O 0.08208 0.26128 0.40067 0.0
O49 O 0.0564 0.27121 0.40628 0.0
O50 O 0.0319 0.2749 0.44316 0.0
O51 O 0.04767 0.2362 0.4151 0.0
O52 O 0.06805 0.22707 0.42958 0.0
O53 O 0.03512 0.27936 0.41772 0.0
O54 O 0.05721 0.25554 0.45224 0.0
O55 O 0.08211 0.24307 0.44809 0.0
C56 C 0.07961 0.27404 0.43074 0.0
C57 C 0.0921 0.20517 0.3942 0.0
C58 C 0.10613 0.18086 0.38587 0.0
C59 C 0.09239 0.17118 0.39108 0.0
C60 C 0.07859 0.19512 0.39894 0.0
C61 C 0.07873 0.17829 0.39743 0.0
C62 C 0.10577 0.19795 0.3874 0.0
C63 C 0.06989 0.27078 0.39701 0.0
C64 C 0.09258 0.22306 0.39694 0.0
C65 C 0.14881 0.2304 0.44454 0.0
C66 C 0.15426 0.24357 0.43501 0.0
C67 C 0.05378 0.22441 0.42261 0.0
C68 C 0.03589 0.30232 0.43502 0.0
C69 C 0.04314 0.3237 0.45499 0.0
C70 C 0.04668 0.33466 0.44249 0.0
C71 C 0.03954 0.31334 0.42253 0.0
C72 C 0.03732 0.30775 0.45103 0.0
C73 C 0.04486 0.32944 0.4263 0.0
C74 C 0.07043 0.24882 0.45828 0.0
C75 C 0.03048 0.28522 0.43163 0.0
H76 H 0.09228 0.15806 0.39069 0.0
H77 H 0.06798 0.20025 0.4039 0.0
H78 H 0.06829 0.17069 0.40146 0.0
H79 H 0.11616 0.2057 0.3835 0.0
H80 H 0.05046 0.34723 0.44525 0.0
H81 H 0.03821 0.30956 0.40993 0.0
H82 H 0.03354 0.29944 0.46056 0.0
H83 H 0.04742 0.33793 0.41665 0.0
Tb84 Tb 0.87787 0.04981 0.45156 0.0
C85 C 0.86573 0.97757 0.43915 0.0
N86 N 0.85912 0.99098 0.43377 0.0
C87 C 0.86036 0.9802 0.40641 0.0
C88 C 0.87019 0.96507 0.42825 0.0
C89 C 0.85605 0.99222 0.41761 0.0
C90 C 0.8675 0.96657 0.41173 0.0
C91 C 0.87547 0.96282 0.4615 0.0
C92 C 0.86825 0.97647 0.4556 0.0
C93 C 0.87979 0.95034 0.45073 0.0
C94 C 0.87719 0.95147 0.43414 0.0
Tb95 Tb 0.85112 1.0092 0.45339 0.0
N96 N 0.86347 0.98858 0.4658 0.0
C97 C 0.87798 0.96195 0.47809 0.0
C98 C 0.86551 0.98733 0.48216 0.0
C99 C 0.87296 0.97425 0.48845 0.0
H100 H 0.8505 1.00247 0.41306 0.0
H101 H 0.87459 0.97354 0.50138 0.0
H102 H 0.9104 0.04698 0.47348 0.0
H103 H 0.84679 0.1037 0.44014 0.0
H104 H 0.86131 0.996 0.49083 0.0
H105 H 0.88358 0.95174 0.48305 0.0
H106 H 0.85723 0.07695 0.43337 0.0
H107 H 0.85808 0.98143 0.39365 0.0
H108 H 0.8852 0.93975 0.45511 0.0
H109 H 0.88066 0.94177 0.42596 0.0
H110 H 0.92308 0.0611 0.49738 0.0
H111 H 0.87081 0.95727 0.40301 0.0
H112 H 0.85326 0.11742 0.46648 0.0
N113 N 0.89104 0.0626 0.47293 0.0
C114 C 0.88505 0.07652 0.47873 0.0
C115 C 0.91227 0.06547 0.49235 0.0
C116 C 0.8919 0.08511 0.49216 0.0
C117 C 0.90511 0.05753 0.47885 0.0
C118 C 0.90542 0.07913 0.49927 0.0
N119 N 0.86867 0.07514 0.45603 0.0
C120 C 0.85999 0.08277 0.44496 0.0
C121 C 0.86785 0.0984 0.47425 0.0
C122 C 0.87327 0.08303 0.46994 0.0
C123 C 0.8577 0.10562 0.46364 0.0
C124 C 0.8541 0.09794 0.44873 0.0
H125 H 0.91109 0.08537 0.50961 0.0
H126 H 0.89054 0.1065 0.50783 0.0
H127 H 0.86937 0.11815 0.49213 0.0
O128 O 0.89399 0.04487 0.43206 0.0
O129 O 0.85179 0.0509 0.45126 0.0
O130 O 0.84386 0.03002 0.46746 0.0
O131 O 0.89403 0.06875 0.44287 0.0
O132 O 0.86004 0.04641 0.42949 0.0
O133 O 0.84367 1.02247 0.43181 0.0
O134 O 0.83444 0.99012 0.46027 0.0
O135 O 0.87441 1.01159 0.43961 0.0
O136 O 0.88985 0.02715 0.45646 0.0
O137 O 0.82728 1.00875 0.4449 0.0
O138 O 0.85686 1.01938 0.47927 0.0
O139 O 0.87646 0.041 0.47815 0.0
C140 C 0.84179 0.04436 0.46199 0.0
C141 C 0.91954 0.06087 0.43285 0.0
C142 C 0.94575 0.07695 0.42914 0.0
C143 C 0.95374 0.06288 0.43212 0.0
C144 C 0.92811 0.04722 0.43594 0.0
C145 C 0.94501 0.04826 0.43557 0.0
C146 C 0.9285 0.07588 0.42965 0.0
C147 C 0.84792 0.03583 0.42371 0.0
C148 C 0.90139 0.0594 0.4327 0.0
C149 C 0.88563 0.09981 0.49738 0.0
C150 C 0.87358 0.10644 0.48844 0.0
C151 C 0.88822 1.01406 0.4471 0.0
C152 C 0.80812 0.99847 0.46396 0.0
C153 C 0.80131 1.00046 0.49247 0.0
C154 C 0.78579 0.9929 0.48929 0.0
C155 C 0.79319 0.9901 0.46084 0.0
C156 C 0.8105 1.00618 0.47904 0.0
C157 C 0.78157 0.98836 0.47337 0.0
C158 C 0.86744 0.03006 0.48702 0.0
C159 C 0.82234 0.99629 0.45337 0.0
H160 H 0.96686 0.06325 0.43205 0.0
H161 H 0.92176 0.03565 0.43859 0.0
H162 H 0.95142 0.03761 0.43797 0.0
H163 H 0.92209 0.08655 0.42732 0.0
H164 H 0.77746 0.98908 0.49893 0.0
H165 H 0.79082 0.98443 0.44907 0.0
H166 H 0.82143 1.01382 0.48071 0.0
H167 H 0.76995 0.98195 0.47107 0.0
Tb168 Tb 1.00105 0.85511 0.42207 0.0
C169 C 0.07496 0.88421 0.44115 0.0
N170 N 0.05995 0.88926 0.43896 0.0
C171 C 0.06516 0.91084 0.45873 0.0
C172 C 0.08561 0.89205 0.45245 0.0
C173 C 0.05514 0.90277 0.44722 0.0
C174 C 0.08041 0.90535 0.46149 0.0
C175 C 0.09594 0.86695 0.43204 0.0
C176 C 0.08 0.8719 0.43117 0.0
C177 C 0.10644 0.8742 0.4437 0.0
C178 C 0.10127 0.88674 0.45391 0.0
Tb179 Tb 0.04417 0.87528 0.4199 0.0
N180 N 0.06964 0.86564 0.41978 0.0
C181 C 0.10104 0.85532 0.42078 0.0
C182 C 0.07487 0.85478 0.40831 0.0
C183 C 0.09049 0.84933 0.40876 0.0
H184 H 0.04339 0.90718 0.44535 0.0
H185 H 0.09442 0.84062 0.39973 0.0
H186 H 1.00183 0.85928 0.38181 0.0
H187 H 0.9632 0.88046 0.46953 0.0
H188 H 0.06715 0.85018 0.39871 0.0
H189 H 0.1132 0.85123 0.42099 0.0
H190 H 0.98512 0.86447 0.45881 0.0
H191 H 0.06111 0.9213 0.46543 0.0
H192 H 0.1187 0.87052 0.44461 0.0
H193 H 0.10961 0.89254 0.46257 0.0
H194 H 0.9849 0.87078 0.36155 0.0
H195 H 0.08821 0.9117 0.47029 0.0
H196 H 0.94527 0.89326 0.45082 0.0
N197 N 0.98768 0.86715 0.40209 0.0
C198 C 0.9741 0.87445 0.40705 0.0
C199 C 0.98177 0.87196 0.37432 0.0
C200 C 0.96416 0.88136 0.39581 0.0
C201 C 0.99138 0.86544 0.3859 0.0
C202 C 0.96814 0.87999 0.37928 0.0
N203 N 0.98073 0.86909 0.43402 0.0
C204 C 0.97794 0.87046 0.45038 0.0
C205 C 0.95768 0.88464 0.42925 0.0
C206 C 0.9708 0.87587 0.42356 0.0
C207 C 0.95511 0.88646 0.44597 0.0
C208 C 0.96526 0.87932 0.45657 0.0
H209 H 0.96081 0.88514 0.37027 0.0
H210 H 0.94309 0.89515 0.39299 0.0
H211 H 0.93744 0.89807 0.42226 0.0
O212 O 0.98119 0.84046 0.43115 0.0
O213 O 1.00633 0.87947 0.41256 0.0
O214 O 0.02401 0.88946 0.43045 0.0
O215 O 0.99315 0.83429 0.40866 0.0
O216 O 1.01115 0.86038 0.44837 0.0
O217 O 0.03708 0.87373 0.44679 0.0
O218 O 0.06132 0.89094 0.40784 0.0
O219 O 0.04324 0.84894 0.42136 0.0
O220 O 1.01917 0.84404 0.43529 0.0
O221 O 0.03629 0.88978 0.40118 0.0
O222 O 0.03983 0.85626 0.3987 0.0
O223 O 1.01435 0.84294 0.40133 0.0
C224 C 1.01058 0.89124 0.42272 0.0
C225 C 0.98564 0.8128 0.42527 0.0
C226 C 0.99352 0.79508 0.44643 0.0
C227 C 0.99228 0.78179 0.43547 0.0
C228 C 0.98462 0.79949 0.41432 0.0
C229 C 0.98805 0.78407 0.4194 0.0
C230 C 0.99047 0.81054 0.44107 0.0
C231 C 0.02444 0.86774 0.45587 0.0
C232 C 0.98303 0.82923 0.41994 0.0
C233 C 0.95084 0.88973 0.40143 0.0
C234 C 0.94766 0.89142 0.4181 0.0
C235 C 0.03323 0.83964 0.43013 0.0
C236 C 0.0514 0.91566 0.40073 0.0
C237 C 0.06478 0.94231 0.39362 0.0
C238 C 0.0564 0.94925 0.40689 0.0
C239 C 0.04282 0.92333 0.41322 0.0
C240 C 0.06222 0.92526 0.39075 0.0
C241 C 0.04538 0.93992 0.41633 0.0
C242 C 0.02857 0.8447 0.39341 0.0
C243 C 0.05052 0.89761 0.3995 0.0
H244 H 0.99409 0.76967 0.43947 0.0
H245 H 0.98126 0.80105 0.40187 0.0
H246 H 0.98711 0.77382 0.41095 0.0
H247 H 0.99105 0.82083 0.44952 0.0
H248 H 0.05851 0.96192 0.41039 0.0
H249 H 0.03447 0.91649 0.421 0.0
H250 H 0.06869 0.91933 0.38098 0.0
H251 H 0.03903 0.94553 0.42638 0.0
Tb252 Tb 0.26526 0.07026 0.40981 0.0
C253 C 0.25517 0.14097 0.39673 0.0
N254 N 0.26582 0.13099 0.38984 0.0
C255 C 0.25654 0.13696 0.36342 0.0
C256 C 0.24413 0.14874 0.38732 0.0
C257 C 0.26712 0.12941 0.37333 0.0
C258 C 0.24482 0.1465 0.37046 0.0
C259 C 0.24513 0.15423 0.42099 0.0
C260 C 0.25573 0.14367 0.41323 0.0
C261 C 0.23346 0.16136 0.41187 0.0
C262 C 0.233 0.15865 0.39503 0.0
Tb263 Tb 0.28259 0.11884 0.40685 0.0
N264 N 0.26734 0.13671 0.42148 0.0
C265 C 0.24697 0.15773 0.43753 0.0
C266 C 0.27002 0.14121 0.43733 0.0
C267 C 0.25967 0.15144 0.44566 0.0
H268 H 0.27612 0.12203 0.36779 0.0
H269 H 0.26162 0.15461 0.45831 0.0
H270 H 0.23537 0.06964 0.43614 0.0
H271 H 0.29998 1.02077 0.38845 0.0
H272 H 0.28018 0.13696 0.44362 0.0
H273 H 0.23906 0.16576 0.44398 0.0
H274 H 0.28765 0.04687 0.38683 0.0
H275 H 0.25739 0.13538 0.35038 0.0
H276 H 0.22508 0.16934 0.41764 0.0
H277 H 0.22423 0.16453 0.38807 0.0
H278 H 0.22483 0.05318 0.45922 0.0
H279 H 0.23658 0.15226 0.36278 0.0
H280 H 0.29507 1.004 0.41273 0.0
N281 N 0.25539 0.05533 0.43129 0.0
C282 C 0.26231 0.04149 0.43447 0.0
C283 C 0.23552 0.04981 0.45247 0.0
C284 C 0.2566 0.03146 0.44722 0.0
C285 C 0.24154 0.05912 0.43945 0.0
C286 C 0.24331 0.03607 0.45661 0.0
N287 N 0.27695 0.04586 0.41053 0.0
C288 C 0.28586 0.04009 0.39775 0.0
C289 C 0.27996 1.02118 0.42483 0.0
C290 C 0.27361 0.03647 0.42352 0.0
C291 C 0.28999 1.01572 0.41226 0.0
C292 C 0.29275 1.02513 0.39854 0.0
H293 H 0.2385 0.02871 0.46651 0.0
H294 H 0.25957 1.00883 0.45919 0.0
H295 H 0.28017 0.99979 0.4395 0.0
O296 O 0.25693 0.05756 0.38856 0.0
O297 O 0.28476 0.08829 0.41058 0.0
O298 O 0.30096 0.1073 0.41954 0.0
O299 O 0.24113 0.07166 0.40253 0.0
O300 O 0.28494 0.07538 0.38938 0.0
O301 O 0.29089 0.10342 0.38519 0.0
O302 O 0.29505 0.14181 0.40984 0.0
O303 O 0.26246 0.1051 0.39562 0.0
O304 O 0.24891 0.08987 0.41386 0.0
O305 O 0.30133 0.12542 0.3904 0.0
O306 O 0.27619 0.10942 0.43363 0.0
O307 O 0.26707 0.08136 0.43533 0.0
C308 C 0.29807 0.09183 0.41861 0.0
C309 C 0.22919 0.04806 0.39094 0.0
C310 C 0.20177 0.03685 0.3847 0.0
C311 C 0.20356 1.02446 0.39571 0.0
C312 C 0.23068 0.0353 0.40157 0.0
C313 C 0.21792 1.02367 0.40401 0.0
C314 C 0.21464 0.04879 0.38233 0.0
C315 C 0.29234 0.08779 0.38069 0.0
C316 C 0.24205 0.06143 0.39057 0.0
C317 C 0.26364 1.01668 0.44938 0.0
C318 C 0.27534 1.01153 0.43817 0.0
C319 C 0.24941 0.10241 0.4045 0.0
C320 C 0.32259 0.14183 0.40088 0.0
C321 C 0.34404 0.14955 0.41951 0.0
C322 C 0.35519 0.15136 0.40654 0.0
C323 C 0.33374 0.1434 0.38783 0.0
C324 C 0.32805 0.14382 0.41665 0.0
C325 C 0.3501 0.14777 0.39072 0.0
C326 C 0.27066 0.09608 0.44249 0.0
C327 C 0.30523 0.139 0.39794 0.0
H328 H 0.19382 1.0152 0.39772 0.0
H329 H 0.24165 0.03447 0.40825 0.0
H330 H 0.21916 1.01401 0.41241 0.0
H331 H 0.21325 0.05863 0.37416 0.0
H332 H 0.36746 0.15635 0.40858 0.0
H333 H 0.32974 0.14163 0.37546 0.0
H334 H 0.31939 0.14286 0.42673 0.0
H335 H 0.35862 0.14929 0.38064 0.0
Tb336 Tb 0.07843 0.85613 0.67194 0.0
C337 C 1.00455 0.87877 0.66489 0.0
N338 N 1.01985 0.8856 0.66631 0.0
C339 C 1.01351 0.90722 0.64919 0.0
C340 C 0.9932 0.88557 0.65507 0.0
C341 C 0.02425 0.90009 0.65926 0.0
C342 C 0.99799 0.89979 0.64687 0.0
C343 C 0.98376 0.85916 0.67468 0.0
C344 C 0.99992 0.8658 0.6745 0.0
C345 C 0.97257 0.86522 0.66422 0.0
C346 C 0.97729 0.87841 0.65442 0.0
Tb347 Tb 0.03658 0.87323 0.68304 0.0
N348 N 1.01097 0.86074 0.68479 0.0
C349 C 0.97916 0.8472 0.6859 0.0
C350 C 1.00624 0.84991 0.69652 0.0
C351 C 0.9904 0.84275 0.69704 0.0
H352 H 0.03618 0.90592 0.66118 0.0
H353 H 0.98684 0.83395 0.70616 0.0
H354 H 0.09389 0.84816 0.708 0.0
H355 H 0.09805 0.90263 0.62774 0.0
H356 H 1.01468 0.84668 0.70548 0.0
H357 H 0.96684 0.84182 0.68649 0.0
H358 H 0.07963 0.88188 0.63853 0.0
H359 H 1.01717 0.91848 0.64329 0.0
H360 H 0.96012 0.86019 0.66407 0.0
H361 H 0.96841 0.88334 0.64683 0.0
H362 H 0.1176 0.85706 0.72358 0.0
H363 H 0.98964 0.90543 0.63922 0.0
H364 H 0.12389 0.91036 0.64104 0.0
N365 N 0.09953 0.86419 0.68836 0.0
C366 C 0.11069 0.87525 0.68203 0.0
C367 C 0.11578 0.86235 0.71195 0.0
C368 C 0.12492 0.88021 0.69051 0.0
C369 C 0.10209 0.85748 0.70301 0.0
C370 C 0.12726 0.87375 0.70569 0.0
N371 N 0.0939 0.8769 0.65915 0.0
C372 C 0.09043 0.88455 0.64518 0.0
C373 C 0.11918 0.89358 0.66054 0.0
C374 C 0.10783 0.88177 0.66707 0.0
C375 C 0.11561 0.90106 0.64624 0.0
C376 C 0.10106 0.8967 0.63871 0.0
H377 H 0.13798 0.87734 0.71257 0.0
H378 H 0.14757 0.89502 0.6898 0.0
H379 H 0.14271 0.90644 0.66338 0.0
O380 O 0.09951 0.8455 0.6621 0.0
O381 O 0.07501 0.87588 0.68934 0.0
O382 O 0.0578 0.88885 0.67495 0.0
O383 O 0.07915 0.83125 0.67244 0.0
O384 O 0.06489 0.86056 0.64852 0.0
O385 O 0.04091 0.87311 0.65509 0.0
O386 O 0.0451 0.88708 0.70338 0.0
O387 O 0.03622 0.84688 0.68225 0.0
O388 O 0.05601 0.84455 0.66336 0.0
O389 O 1.02044 0.88767 0.6962 0.0
O390 O 0.04413 0.85584 0.70257 0.0
O391 O 0.06932 0.84624 0.69569 0.0
C392 C 0.07112 0.88945 0.6833 0.0
C393 C 0.10356 0.8188 0.67238 0.0
C394 C 0.10106 0.7914 0.66194 0.0
C395 C 0.09657 0.78566 0.67732 0.0
C396 C 0.10067 0.81321 0.6882 0.0
C397 C 0.09751 0.79651 0.6907 0.0
C398 C 0.1072 0.80753 0.66037 0.0
C399 C 0.0515 0.86763 0.64377 0.0
C400 C 0.09356 0.83114 0.66611 0.0
C401 C 0.13648 0.89129 0.68357 0.0
C402 C 0.13371 0.89778 0.66853 0.0
C403 C 0.04507 0.8377 0.67302 0.0
C404 C 0.03228 0.91168 0.70844 0.0
C405 C 1.02179 0.93597 0.72145 0.0
C406 C 0.03413 0.94554 0.71352 0.0
C407 C 0.04389 0.92163 0.70012 0.0
C408 C 1.02112 0.91892 0.71904 0.0
C409 C 0.04505 0.93839 0.7029 0.0
C410 C 0.05666 0.84687 0.70588 0.0
C411 C 0.03148 0.89383 0.70591 0.0
H412 H 0.09176 0.77325 0.67882 0.0
H413 H 0.09881 0.82173 0.69811 0.0
H414 H 0.09411 0.79228 0.70269 0.0
H415 H 0.10992 0.81191 0.64833 0.0
H416 H 0.03486 0.95865 0.71488 0.0
H417 H 0.0519 0.91646 0.69131 0.0
H418 H 1.01179 0.91134 0.72516 0.0
H419 H 0.05418 0.94591 0.69646 0.0
Tb420 Tb 0.26568 0.1072 0.66652 0.0
C421 C 0.23303 0.03783 0.64033 0.0
N422 N 0.22782 0.0526 0.64457 0.0
C423 C 0.20746 0.04937 0.62424 0.0
C424 C 0.22598 0.02838 0.62753 0.0
C425 C 0.21465 0.05812 0.63727 0.0
C426 C 0.21333 0.03455 0.61916 0.0
C427 C 0.24849 1.0154 0.64755 0.0
C428 C 0.24417 0.03151 0.65008 0.0
C429 C 0.24232 1.00623 0.63421 0.0
C430 C 0.23112 1.01275 0.62414 0.0
Tb431 Tb 0.24038 0.06626 0.66582 0.0
N432 N 0.24927 0.04054 0.66317 0.0
C433 C 0.25813 1.00871 0.65899 0.0
C434 C 0.25791 0.0337 0.67484 0.0
C435 C 0.26273 1.01786 0.67278 0.0
H436 H 0.20995 0.06947 0.6413 0.0
H437 H 0.26979 1.01265 0.68195 0.0
H438 H 0.26443 0.10736 0.70744 0.0
H439 H 0.236 0.14505 0.62465 0.0
H440 H 0.26117 0.04035 0.68583 0.0
H441 H 0.26162 0.99633 0.65757 0.0
H442 H 0.24862 0.12076 0.63215 0.0
H443 H 0.19731 0.05399 0.61821 0.0
H444 H 0.24565 0.9939 0.63193 0.0
H445 H 0.22598 1.00534 0.61426 0.0
H446 H 0.25828 0.12661 0.72921 0.0
H447 H 0.20757 0.02768 0.60924 0.0
H448 H 0.23206 0.16707 0.6449 0.0
N449 N 0.25703 0.1221 0.68839 0.0
C450 C 0.25153 0.13665 0.6847 0.0
C451 C 0.25626 0.12958 0.71675 0.0
C452 C 0.24809 0.14821 0.69698 0.0
C453 C 0.25968 0.11857 0.7042 0.0
C454 C 0.25051 0.1445 0.71314 0.0
N455 N 0.25178 0.12809 0.65707 0.0
C456 C 0.24678 0.12973 0.64153 0.0
C457 C 0.24185 0.15417 0.6645 0.0
C458 C 0.24861 0.13965 0.66859 0.0
C459 C 0.23745 0.15616 0.64848 0.0
C460 C 0.23961 0.14374 0.63704 0.0
H461 H 0.24798 0.15305 0.7229 0.0
H462 H 0.2399 0.17222 0.70202 0.0
H463 H 0.23489 0.17763 0.67352 0.0
O464 O 0.28169 0.12805 0.6608 0.0
O465 O 0.24173 0.10333 0.67872 0.0
O466 O 0.2277 0.08842 0.66042 0.0
O467 O 0.28828 0.10907 0.67675 0.0
O468 O 0.26148 0.09879 0.63998 0.0
O469 O 0.2434 0.07563 0.63943 0.0
O470 O 0.22531 0.07165 0.68606 0.0
O471 O 0.26628 0.06536 0.66542 0.0
O472 O 0.27567 0.08783 0.65152 0.0
O473 O 0.22339 0.04803 0.67433 0.0
O474 O 0.25805 0.0689 0.68792 0.0
O475 O 0.27495 0.09229 0.68566 0.0
C476 C 0.2286 0.10131 0.67009 0.0
C477 C 0.30849 0.13095 0.67413 0.0
C478 C 0.33141 0.12827 0.65639 0.0
C479 C 0.33945 0.12055 0.66849 0.0
C480 C 0.31698 0.12496 0.68702 0.0
C481 C 0.33274 0.12013 0.68426 0.0
C482 C 0.31754 0.13637 0.66072 0.0
C483 C 0.25218 0.08754 0.63145 0.0
C484 C 0.29245 0.12294 0.67042 0.0
C485 C 0.24234 0.16308 0.69279 0.0
C486 C 0.23943 0.16612 0.67656 0.0
C487 C 0.27645 0.07256 0.65525 0.0
C488 C 0.19946 0.05599 0.68807 0.0
C489 C 0.17405 0.03925 0.6937 0.0
C490 C 0.16602 0.05363 0.69586 0.0
C491 C 0.1909 0.07002 0.69021 0.0
C492 C 0.19087 0.04055 0.68969 0.0
C493 C 0.17434 0.0688 0.69403 0.0
C494 C 0.27071 0.07883 0.6934 0.0
C495 C 0.21746 0.05732 0.68557 0.0
H496 H 0.35013 0.1141 0.66557 0.0
H497 H 0.31068 0.12184 0.69827 0.0
H498 H 0.33879 0.11422 0.69373 0.0
H499 H 0.31148 0.14243 0.6515 0.0
H500 H 0.15315 0.05316 0.69875 0.0
H501 H 0.19703 0.08199 0.68915 0.0
H502 H 0.19733 0.02962 0.68825 0.0
H503 H 0.16791 0.07973 0.69568 0.0
Tb504 Tb 0.07335 0.24291 0.68361 0.0
C505 C 0.14935 0.25494 0.69127 0.0
N506 N 0.13516 0.25983 0.69769 0.0
C507 C 0.14451 0.25551 0.7245 0.0
C508 C 0.16149 0.24966 0.7012 0.0
C509 C 0.13273 0.26045 0.71416 0.0
C510 C 0.15892 0.25 0.718 0.0
C511 C 0.16583 0.24963 0.66736 0.0
C512 C 0.15148 0.25496 0.67463 0.0
C513 C 0.17791 0.24413 0.67715 0.0
C514 C 0.17576 0.24419 0.69404 0.0
Tb515 Tb 0.11673 0.26755 0.67947 0.0
N516 N 0.13949 0.26026 0.66558 0.0
C517 C 0.16764 0.25005 0.65049 0.0
C518 C 0.14149 0.26126 0.64916 0.0
C519 C 0.15546 0.25602 0.64136 0.0
H520 H 0.12161 0.26436 0.71949 0.0
H521 H 0.1569 0.25674 0.62833 0.0
H522 H 0.07859 0.2113 0.65842 0.0
H523 H 1.01875 0.26926 0.70514 0.0
H524 H 0.13251 0.26645 0.64201 0.0
H525 H 0.17847 0.24604 0.64442 0.0
H526 H 0.04768 0.26393 0.7054 0.0
H527 H 0.14242 0.25586 0.7375 0.0
H528 H 0.18898 0.23991 0.67178 0.0
H529 H 0.1852 0.24 0.70145 0.0
H530 H 0.06236 0.19436 0.63898 0.0
H531 H 0.16796 0.24608 0.72606 0.0
H532 H 1.00093 0.25572 0.68444 0.0
N533 N 0.05936 0.2261 0.66537 0.0
C534 C 0.04351 0.22873 0.66356 0.0
C535 C 0.0569 0.20402 0.6458 0.0
C536 C 0.03373 0.21928 0.65261 0.0
C537 C 0.06604 0.21361 0.65696 0.0
C538 C 0.0407 0.20694 0.64351 0.0
N539 N 0.04656 0.24821 0.68456 0.0
C540 C 0.04014 0.25819 0.69614 0.0
C541 C 1.02018 0.24269 0.67305 0.0
C542 C 0.03686 0.24026 0.67353 0.0
C543 C 1.0137 0.25353 0.68436 0.0
C544 C 0.0237 0.26117 0.69608 0.0
H545 H 0.03361 0.1994 0.63496 0.0
H546 H 1.00953 0.21505 0.64311 0.0
H547 H 0.99763 0.23556 0.66109 0.0
O548 O 0.05828 0.22668 0.69714 0.0
O549 O 0.06807 0.26786 0.67852 0.0
O550 O 0.09264 0.26396 0.67596 0.0
O551 O 0.08351 0.23115 0.70305 0.0
O552 O 0.0772 0.26343 0.7038 0.0
O553 O 0.10357 0.27613 0.70232 0.0
O554 O 0.12716 0.28757 0.66703 0.0
O555 O 0.1174 0.24294 0.68877 0.0
O556 O 0.09584 0.23016 0.67532 0.0
O557 O 0.11671 0.2906 0.69093 0.0
O558 O 0.10636 0.25902 0.65397 0.0
O559 O 0.08087 0.24408 0.65623 0.0
C560 C 0.08192 0.27441 0.67439 0.0
C561 C 0.07068 0.20457 0.70691 0.0
C562 C 0.06038 0.17896 0.7192 0.0
C563 C 0.06725 0.17052 0.70592 0.0
C564 C 0.07727 0.19574 0.69395 0.0
C565 C 0.07578 0.17885 0.6936 0.0
C566 C 0.06248 0.19616 0.71963 0.0
C567 C 0.08874 0.27464 0.70943 0.0
C568 C 0.07 0.22234 0.70594 0.0
C569 C 1.01723 0.22211 0.65151 0.0
C570 C 1.01046 0.2338 0.66173 0.0
C571 C 0.11053 0.22983 0.68174 0.0
C572 C 0.13691 0.3103 0.68242 0.0
C573 C 0.15704 0.32671 0.66803 0.0
C574 C 0.16724 0.32707 0.68143 0.0
C575 C 0.14725 0.30957 0.69559 0.0
C576 C 0.14085 0.32114 0.67008 0.0
C577 C 0.16208 0.31886 0.69546 0.0
C578 C 0.09321 0.25081 0.64691 0.0
C579 C 0.12413 0.29777 0.67885 0.0
H580 H 0.06557 0.15746 0.70456 0.0
H581 H 0.08335 0.20189 0.68395 0.0
H582 H 0.0808 0.17218 0.68343 0.0
H583 H 0.05735 0.20313 0.72953 0.0
H584 H 0.17982 0.33159 0.68024 0.0
H585 H 0.14433 0.3013 0.70536 0.0
H586 H 0.13298 0.32108 0.6597 0.0
H587 H 0.17029 0.31819 0.70541 0.0
Tb588 Tb 0.84958 1.004 0.71254 0.0
C589 C 0.87337 0.08438 0.69182 0.0
N590 N 0.8786 0.06924 0.69087 0.0
C591 C 0.89482 0.07646 0.66726 0.0
C592 C 0.87839 0.09619 0.68038 0.0
C593 C 0.88988 0.06543 0.67927 0.0
C594 C 0.88887 0.09188 0.66769 0.0
C595 C 0.86072 0.10467 0.70831 0.0
C596 C 0.86474 0.08849 0.70546 0.0
C597 C 0.86482 0.11636 0.69658 0.0
C598 C 0.87364 0.11212 0.6826 0.0
Tb599 Tb 0.87134 0.05164 0.71126 0.0
N600 N 0.86199 0.077 0.7168 0.0
C601 C 0.85368 0.10882 0.72326 0.0
C602 C 0.85618 0.0814 0.73185 0.0
C603 C 0.85161 0.09716 0.73516 0.0
H604 H 0.89516 0.05382 0.67935 0.0
H605 H 0.84696 0.10042 0.74708 0.0
H606 H 0.85279 1.00347 0.75261 0.0
H607 H 0.87805 0.96901 0.66436 0.0
H608 H 0.85564 0.07318 0.74177 0.0
H609 H 0.85054 0.12113 0.72601 0.0
H610 H 0.85862 0.98746 0.67567 0.0
H611 H 0.90348 0.07319 0.65791 0.0
H612 H 0.86184 0.12885 0.69854 0.0
H613 H 0.87734 0.12138 0.67396 0.0
H614 H 0.86807 0.98933 0.77247 0.0
H615 H 0.89304 0.10059 0.65866 0.0
H616 H 0.89618 0.95563 0.68237 0.0
N617 N 0.86417 0.99257 0.732 0.0
C618 C 0.87455 0.98148 0.72668 0.0
C619 C 0.87007 0.98706 0.75962 0.0
C620 C 0.88341 0.97296 0.73767 0.0
C621 C 0.86148 0.99512 0.74828 0.0
C622 C 0.8811 0.97594 0.7543 0.0
N623 N 0.86676 0.98649 0.70002 0.0
C624 C 0.86698 0.98263 0.68378 0.0
C625 C 0.88698 0.96727 0.70415 0.0
C626 C 0.87616 0.9786 0.71015 0.0
C627 C 0.88798 0.96421 0.68745 0.0
C628 C 0.8778 0.97178 0.67725 0.0
H629 H 0.88764 0.96961 0.76313 0.0
H630 H 0.90082 0.95473 0.73993 0.0
H631 H 0.90438 0.95018 0.71061 0.0
O632 O 0.83639 0.98221 0.70584 0.0
O633 O 0.87087 1.01606 0.72427 0.0
O634 O 0.8854 0.03073 0.70602 0.0
O635 O 0.83143 0.99416 0.72837 0.0
O636 O 0.85529 1.0134 0.68578 0.0
O637 O 0.86735 0.0407 0.6853 0.0
O638 O 0.88217 0.05535 0.73427 0.0
O639 O 0.85268 0.03396 0.70831 0.0
O640 O 0.83169 1.01896 0.70313 0.0
O641 O 0.89665 0.05146 0.71306 0.0
O642 O 0.8518 0.04699 0.73196 0.0
O643 O 0.84009 1.01991 0.73294 0.0
C644 C 0.88438 1.01864 0.71593 0.0
C645 C 0.80914 0.98145 0.71556 0.0
C646 C 0.78697 0.98781 0.69831 0.0
C647 C 0.77615 0.97808 0.70792 0.0
C648 C 0.79831 0.97179 0.72508 0.0
C649 C 0.78177 0.97046 0.7215 0.0
C650 C 0.80315 0.99026 0.70313 0.0
C651 C 0.8619 0.02664 0.67745 0.0
C652 C 0.82668 0.98255 0.71845 0.0
C653 C 0.89411 0.96162 0.73172 0.0
C654 C 0.89608 0.95897 0.715 0.0
C655 C 0.83767 0.03361 0.70402 0.0
C656 C 0.9076 0.0705 0.73181 0.0
C657 C 0.93095 0.08482 0.74478 0.0
C658 C 0.92861 0.09847 0.73552 0.0
C659 C 0.9056 0.08444 0.72289 0.0
C660 C 0.92051 0.07063 0.74279 0.0
C661 C 0.91603 0.09825 0.72466 0.0
C662 C 0.84151 0.03526 0.7388 0.0
C663 C 0.89688 0.05578 0.72826 0.0
H664 H 0.76362 0.97579 0.70453 0.0
H665 H 0.80263 0.9652 0.73511 0.0
H666 H 0.77344 0.96288 0.7288 0.0
H667 H 0.81164 0.99769 0.69603 0.0
H668 H 0.9367 0.10934 0.7366 0.0
H669 H 0.89614 0.08453 0.71422 0.0
H670 H 0.92247 0.05989 0.74956 0.0
H671 H 0.91444 0.10878 0.71748 0.0
Tb672 Tb 0.44925 0.06809 0.21719 0.0
C673 C 0.42805 1.0002 0.22458 0.0
N674 N 0.42501 1.01494 0.23132 0.0
C675 C 0.39651 1.0094 0.22672 0.0
C676 C 0.41544 0.98974 0.21817 0.0
C677 C 0.40935 1.01933 0.23301 0.0
C678 C 0.39956 0.99457 0.2192 0.0
C679 C 0.44773 0.98125 0.21575 0.0
C680 C 0.44403 0.99603 0.22345 0.0
C681 C 0.43518 0.97067 0.20959 0.0
C682 C 0.41907 0.97488 0.21086 0.0
Tb683 Tb 0.44706 0.02923 0.24247 0.0
N684 N 0.45593 1.00651 0.22965 0.0
C685 C 0.46394 0.97751 0.21448 0.0
C686 C 0.47172 1.00262 0.2289 0.0
C687 C 0.47596 0.98822 0.22112 0.0
H688 H 0.40661 0.03047 0.2391 0.0
H689 H 0.4885 0.98527 0.22045 0.0
H690 H 0.48191 0.07 0.19334 0.0
H691 H 0.41601 0.11792 0.24093 0.0
H692 H 0.48115 1.01028 0.23457 0.0
H693 H 0.46727 0.96632 0.20857 0.0
H694 H 0.41965 0.09026 0.23103 0.0
H695 H 0.38423 1.01313 0.22781 0.0
H696 H 0.4378 0.95922 0.20373 0.0
H697 H 0.40954 0.96663 0.20596 0.0
H698 H 0.50467 0.08975 0.18638 0.0
H699 H 0.38956 0.98689 0.21434 0.0
H700 H 0.43886 0.13877 0.23954 0.0
N701 N 0.47087 0.08596 0.21028 0.0
C702 C 0.47108 0.1013 0.21659 0.0
C703 C 0.49535 0.09315 0.19498 0.0
C704 C 0.48343 0.11321 0.21237 0.0
C705 C 0.4825 0.08198 0.19904 0.0
C706 C 0.49596 0.10878 0.20188 0.0
N707 N 0.44516 0.09409 0.2267 0.0
C708 C 0.43016 0.09863 0.23165 0.0
C709 C 0.45572 0.12201 0.22961 0.0
C710 C 0.45763 0.10556 0.2253 0.0
C711 C 0.44081 0.12629 0.23608 0.0
C712 C 0.42789 0.11457 0.23687 0.0
H713 H 0.50569 0.11754 0.19839 0.0
H714 H 0.49152 0.13872 0.2145 0.0
H715 H 0.46694 0.14652 0.22919 0.0
O716 O 0.42723 0.06618 0.20398 0.0
O717 O 0.44919 0.07343 0.24259 0.0
O718 O 0.46034 0.05094 0.2527 0.0
O719 O 0.44926 0.0761 0.19333 0.0
O720 O 0.42562 0.06355 0.23364 0.0
O721 O 0.43019 0.0457 0.25384 0.0
O722 O 0.45592 1.01435 0.26026 0.0
O723 O 0.43705 0.03104 0.21789 0.0
O724 O 0.45669 0.04521 0.20523 0.0
O725 O 0.43148 1.02139 0.26145 0.0
O726 O 0.47396 0.03718 0.23771 0.0
O727 O 0.47503 0.06038 0.22201 0.0
C728 C 0.45728 0.06637 0.25335 0.0
C729 C 0.42621 0.08895 0.18627 0.0
C730 C 0.40845 0.1032 0.16892 0.0
C731 C 0.41433 0.11804 0.17601 0.0
C732 C 0.4328 0.10424 0.19171 0.0
C733 C 0.42657 0.11854 0.18716 0.0
C734 C 0.41422 0.08848 0.17423 0.0
C735 C 0.42146 0.05695 0.24827 0.0
C736 C 0.43374 0.07412 0.19171 0.0
C737 C 0.48218 0.1294 0.21762 0.0
C738 C 0.4682 0.13384 0.226 0.0
C739 C 0.44671 0.03227 0.20518 0.0
C740 C 0.44449 1.02216 0.28593 0.0
C741 C 0.45922 0.03985 0.30559 0.0
C742 C 0.44646 0.03725 0.31689 0.0
C743 C 0.43167 1.01987 0.29727 0.0
C744 C 0.45793 0.03258 0.29002 0.0
C745 C 0.43261 0.02751 0.31261 0.0
C746 C 0.48272 0.04908 0.22982 0.0
C747 C 0.44285 1.01531 0.2693 0.0
H748 H 0.41027 0.12944 0.17199 0.0
H749 H 0.4434 0.10533 0.19885 0.0
H750 H 0.43182 0.13011 0.19171 0.0
H751 H 0.40995 0.077 0.16865 0.0
H752 H 0.44733 0.04253 0.32902 0.0
H753 H 0.42086 1.01237 0.29417 0.0
H754 H 0.46766 0.03467 0.28118 0.0
H755 H 0.42268 1.02567 0.32128 0.0
Tb756 Tb 0.04013 0.42575 0.25749 0.0
C757 C 0.1164 0.44582 0.2333 0.0
N758 N 0.10134 0.44559 0.22719 0.0
C759 C 0.1097 0.46887 0.2113 0.0
C760 C 0.12869 0.45772 0.22895 0.0
C761 C 0.09811 0.45653 0.21568 0.0
C762 C 0.12503 0.4696 0.21812 0.0
C763 C 0.13574 0.43156 0.24784 0.0
C764 C 0.11977 0.43319 0.24274 0.0
C765 C 0.14793 0.44372 0.24428 0.0
C766 C 0.14438 0.45686 0.23489 0.0
Tb767 Tb 0.08254 0.42516 0.23514 0.0
N768 N 0.10779 0.42143 0.24515 0.0
C769 C 0.13917 0.41729 0.2554 0.0
C770 C 0.11145 0.40703 0.25153 0.0
C771 C 0.12701 0.40484 0.25698 0.0
H772 H 0.08645 0.45577 0.20993 0.0
H773 H 0.12971 0.39337 0.26198 0.0
H774 H 0.03777 0.38507 0.25779 0.0
H775 H 1.00091 0.46721 0.23069 0.0
H776 H 0.10273 0.39679 0.25169 0.0
H777 H 0.15131 0.41544 0.2593 0.0
H778 H 1.0214 0.45937 0.24949 0.0
H779 H 0.10688 0.47767 0.20248 0.0
H780 H 0.16024 0.44275 0.24816 0.0
H781 H 0.15399 0.46589 0.23173 0.0
H782 H 1.0218 0.3624 0.24493 0.0
H783 H 0.1341 0.47897 0.21447 0.0
H784 H 0.9855 0.44616 0.21429 0.0
N785 N 0.02574 0.40349 0.24619 0.0
C786 C 1.01314 0.40656 0.23674 0.0
C787 C 1.01933 0.37476 0.24238 0.0
C788 C 1.00372 0.39386 0.22897 0.0
C789 C 0.02848 0.38776 0.24961 0.0
C790 C 1.00702 0.37781 0.23184 0.0
N791 N 1.01927 0.43433 0.24259 0.0
C792 C 1.01548 0.45013 0.24187 0.0
C793 C 0.99772 0.42638 0.22407 0.0
C794 C 1.01011 0.42255 0.2345 0.0
C795 C 0.99479 0.44269 0.2223 0.0
C796 C 1.00352 0.45459 0.23147 0.0
H797 H 1.00006 0.36772 0.22611 0.0
H798 H 0.98428 0.38803 0.21218 0.0
H799 H 0.97913 0.41655 0.20773 0.0
O800 O 0.02422 0.43664 0.27427 0.0
O801 O 0.04588 0.41298 0.23461 0.0
O802 O 0.06127 0.43241 0.22303 0.0
O803 O 0.03106 0.41241 0.27733 0.0
O804 O 0.04833 0.4519 0.25001 0.0
O805 O 0.0738 0.4513 0.23716 0.0
O806 O 0.07813 0.40233 0.22273 0.0
O807 O 0.08322 0.4258 0.26094 0.0
O808 O 0.06108 0.44013 0.26735 0.0
O809 O 0.09239 0.42186 0.21187 0.0
O810 O 0.0759 0.40297 0.25213 0.0
O811 O 0.05441 0.40819 0.26966 0.0
C812 C 0.04914 0.42173 0.22191 0.0
C813 C 0.03036 0.42832 0.30082 0.0
C814 C 0.0443 0.44684 0.32027 0.0
C815 C 0.04089 0.43556 0.33251 0.0
C816 C 0.02714 0.41707 0.31312 0.0
C817 C 0.03272 0.42054 0.32881 0.0
C818 C 0.03989 0.4426 0.30429 0.0
C819 C 0.06116 0.45975 0.24245 0.0
C820 C 0.02461 0.42468 0.28423 0.0
C821 C 0.9915 0.39759 0.21844 0.0
C822 C 0.98859 0.41383 0.2159 0.0
C823 C 0.07582 0.43609 0.2701 0.0
C824 C 0.10068 0.39612 0.20532 0.0
C825 C 0.1116 0.37561 0.187 0.0
C826 C 0.12691 0.37889 0.19389 0.0
C827 C 0.1164 0.39967 0.21118 0.0
C828 C 0.09838 0.38421 0.19283 0.0
C829 C 0.12929 0.39094 0.20578 0.0
C830 C 0.06621 0.39892 0.26523 0.0
C831 C 0.08761 0.40665 0.21051 0.0
H832 H 0.04382 0.4387 0.34498 0.0
H833 H 1.02031 0.40564 0.31059 0.0
H834 H 0.03005 0.41188 0.33829 0.0
H835 H 0.04283 0.45099 0.29472 0.0
H836 H 0.13736 0.37284 0.1893 0.0
H837 H 0.11903 0.40975 0.21938 0.0
H838 H 0.08666 0.38217 0.18723 0.0
H839 H 0.14131 0.39398 0.21036 0.0
Tb840 Tb 0.70481 0.043 0.25101 0.0
C841 C 0.72134 0.11361 0.25271 0.0
N842 N 0.72461 0.10055 0.26148 0.0
C843 C 0.75322 0.10712 0.2574 0.0
C844 C 0.73391 0.12345 0.2453 0.0
C845 C 0.74041 0.09753 0.26429 0.0
C846 C 0.74998 0.12005 0.24777 0.0
C847 C 0.70135 0.12913 0.2403 0.0
C848 C 0.70527 0.1165 0.25037 0.0
C849 C 0.71381 0.13881 0.23272 0.0
C850 C 0.73004 0.13605 0.2353 0.0
Tb851 Tb 0.70227 0.08549 0.27168 0.0
N852 N 0.69349 0.10673 0.25769 0.0
C853 C 0.68502 0.1316 0.23803 0.0
C854 C 0.67753 0.1096 0.25606 0.0
C855 C 0.67307 0.1219 0.24608 0.0
H856 H 0.74345 0.08753 0.27142 0.0
H857 H 0.66041 0.12392 0.24464 0.0
H858 H 0.68538 0.04419 0.21648 0.0
H859 H 0.71309 0.99235 0.28981 0.0
H860 H 0.66811 0.1026 0.26257 0.0
H861 H 0.68151 0.14108 0.23027 0.0
H862 H 0.71847 1.01983 0.27975 0.0
H863 H 0.76563 0.10441 0.25943 0.0
H864 H 0.71101 0.14847 0.22484 0.0
H865 H 0.73952 0.14359 0.22935 0.0
H866 H 0.66639 0.02661 0.20026 0.0
H867 H 0.75995 0.12729 0.24225 0.0
H868 H 0.69295 0.97322 0.27643 0.0
N869 N 0.68744 0.02695 0.23495 0.0
C870 C 0.68336 1.01161 0.23965 0.0
C871 C 0.671 1.02224 0.21138 0.0
C872 C 0.67255 1.00105 0.23072 0.0
C873 C 0.68182 0.03219 0.22067 0.0
C874 C 0.6662 1.00664 0.21652 0.0
N875 N 0.70121 1.01701 0.26089 0.0
C876 C 0.70954 1.0119 0.27373 0.0
C877 C 0.68716 0.9904 0.25845 0.0
C878 C 0.69057 1.0064 0.25315 0.0
C879 C 0.69521 0.9854 0.27194 0.0
C880 C 0.70656 0.99617 0.27952 0.0
H881 H 0.65786 0.99892 0.2093 0.0
H882 H 0.66037 0.97693 0.2295 0.0
H883 H 0.67317 0.96759 0.25392 0.0
O884 O 0.72658 0.05291 0.24032 0.0
O885 O 0.70141 0.04484 0.27683 0.0
O886 O 0.6856 0.06597 0.28033 0.0
O887 O 0.71828 0.02797 0.23563 0.0
O888 O 0.72351 0.0471 0.27204 0.0
O889 O 0.72193 0.07285 0.28377 0.0
O890 O 0.69385 0.1047 0.28618 0.0
O891 O 0.71489 0.08122 0.24853 0.0
O892 O 0.69766 0.06336 0.23642 0.0
O893 O 0.71037 0.08776 0.29566 0.0
O894 O 0.67677 0.07595 0.26254 0.0
O895 O 0.6786 0.05091 0.24878 0.0
C896 C 0.68926 0.05139 0.2839 0.0
C897 C 0.73172 0.04179 0.21407 0.0
C898 C 0.74704 0.03595 0.18919 0.0
C899 C 0.73717 0.04587 0.1807 0.0
C900 C 0.72167 0.05105 0.20512 0.0
C901 C 0.72453 0.0533 0.18863 0.0
C902 C 0.74429 0.03399 0.20597 0.0
C903 C 0.72892 0.05878 0.283 0.0
C904 C 0.72875 0.03977 0.23164 0.0
C905 C 0.66873 0.98521 0.2361 0.0
C906 C 0.67603 0.97989 0.24998 0.0
C907 C 0.70613 0.07728 0.23591 0.0
C908 C 0.70158 0.10871 0.31428 0.0
C909 C 0.68335 0.11084 0.33754 0.0
C910 C 0.69642 0.11095 0.34804 0.0
C911 C 0.71474 0.10863 0.32473 0.0
C912 C 0.6863 0.11124 0.32075 0.0
C913 C 0.71221 0.11036 0.34155 0.0
C914 C 0.66965 0.06328 0.25382 0.0
C915 C 0.70183 0.10014 0.29855 0.0
H916 H 0.73882 0.04736 0.16775 0.0
H917 H 0.71144 0.0564 0.21072 0.0
H918 H 0.71673 0.06056 0.18191 0.0
H919 H 0.75179 0.02634 0.21264 0.0
H920 H 0.69439 0.11077 0.36104 0.0
H921 H 0.72669 0.10617 0.32001 0.0
H922 H 0.67611 0.1107 0.31265 0.0
H923 H 0.72235 0.11003 0.34957 0.0
Tb924 Tb 0.08989 0.68517 0.2514 0.0
C925 C 1.02198 0.6615 0.2167 0.0
N926 N 0.03763 0.66541 0.2124 0.0
C927 C 0.03555 0.64554 0.19055 0.0
C928 C 1.01254 0.6492 0.20839 0.0
C929 C 0.04428 0.65808 0.199 0.0
C930 C 1.01968 0.64089 0.19542 0.0
C931 C 0.99843 0.66858 0.23244 0.0
C932 C 1.01511 0.6709 0.22854 0.0
C933 C 0.98904 0.65589 0.22478 0.0
C934 C 0.99613 0.64612 0.21283 0.0
Tb935 Tb 0.0517 0.68491 0.22804 0.0
N936 N 0.02452 0.68331 0.23515 0.0
C937 C 0.99158 0.67948 0.2434 0.0
C938 C 1.01761 0.69458 0.24508 0.0
C939 C 1.00118 0.69268 0.24956 0.0
H940 H 0.05637 0.66169 0.19474 0.0
H941 H 0.99591 0.70149 0.25767 0.0
H942 H 0.08445 0.72445 0.24314 0.0
H943 H 0.13685 0.64664 0.23069 0.0
H944 H 0.02466 0.70505 0.24977 0.0
H945 H 0.97882 0.67812 0.24675 0.0
H946 H 0.10989 0.65221 0.2418 0.0
H947 H 0.04104 0.63957 0.18018 0.0
H948 H 0.97625 0.65379 0.22772 0.0
H949 H 0.98869 0.63663 0.20669 0.0
H950 H 0.10172 0.74817 0.23476 0.0
H951 H 1.01287 0.63133 0.18873 0.0
H952 H 0.15636 0.66936 0.22306 0.0
N953 N 0.10315 0.70797 0.24084 0.0
C954 C 0.11899 0.70617 0.23664 0.0
C955 C 0.10674 0.73644 0.23533 0.0
C956 C 0.12921 0.71946 0.23136 0.0
C957 C 0.09696 0.7229 0.24027 0.0
C958 C 0.12295 0.73476 0.23099 0.0
N959 N 0.11373 0.67786 0.23993 0.0
C960 C 0.11804 0.66223 0.23809 0.0
C961 C 0.13994 0.68788 0.2296 0.0
C962 C 0.1243 0.69053 0.23579 0.0
C963 C 0.14446 0.6719 0.22782 0.0
C964 C 0.13344 0.65904 0.23201 0.0
H965 H 0.13041 0.74525 0.22696 0.0
H966 H 0.1531 0.727 0.22185 0.0
H967 H 0.16248 0.69937 0.22026 0.0
O968 O 0.10435 0.67409 0.26686 0.0
O969 O 0.09121 0.69257 0.22586 0.0
O970 O 0.07309 0.67533 0.2142 0.0
O971 O 0.09834 0.69858 0.27245 0.0
O972 O 0.08182 0.6584 0.24414 0.0
O973 O 0.05741 0.65811 0.23036 0.0
O974 O 0.06332 0.70483 0.21588 0.0
O975 O 0.04765 0.68374 0.25375 0.0
O976 O 0.06931 0.67047 0.26137 0.0
O977 O 0.03812 0.69711 0.21173 0.0
O978 O 0.05338 0.70621 0.24782 0.0
O979 O 0.07526 0.70373 0.26422 0.0
C980 C 0.08776 0.68258 0.21375 0.0
C981 C 0.12134 0.68849 0.28597 0.0
C982 C 0.12513 0.6659 0.30217 0.0
C983 C 0.12442 0.67579 0.31637 0.0
C984 C 0.1211 0.69892 0.29968 0.0
C985 C 0.1236 0.69263 0.31498 0.0
C986 C 0.12892 0.67404 0.2877 0.0
C987 C 0.06935 0.64993 0.23654 0.0
C988 C 0.10616 0.68639 0.27686 0.0
C989 C 0.14505 0.71692 0.22589 0.0
C990 C 0.15039 0.70118 0.22496 0.0
C991 C 0.05411 0.67367 0.26307 0.0
C992 C 0.05232 0.70948 0.18979 0.0
C993 C 0.04101 0.7188 0.16472 0.0
C994 C 0.05524 0.71482 0.15633 0.0
C995 C 0.06636 0.70556 0.1811 0.0
C996 C 0.03967 0.71606 0.1815 0.0
C997 C 0.06777 0.70822 0.16448 0.0
C998 C 0.06223 0.71143 0.26093 0.0
C999 C 0.05042 0.70688 0.20742 0.0
H1000 H 0.12283 0.67067 0.32826 0.0
H1001 H 0.11657 0.71087 0.29894 0.0
H1002 H 0.12249 0.70026 0.32576 0.0
H1003 H 0.13163 0.66709 0.27678 0.0
H1004 H 0.05656 0.7165 0.14338 0.0
H1005 H 0.07622 0.70047 0.18711 0.0
H1006 H 0.02881 0.71914 0.18816 0.0
H1007 H 0.0786 0.70507 0.15785 0.0
Tb1008 Tb 0.42564 0.0289 0.83357 0.0
C1009 C 0.44271 0.10293 0.86439 0.0
N1010 N 0.43866 0.08793 0.87004 0.0
C1011 C 0.45541 0.09392 0.89315 0.0
C1012 C 0.45368 0.11394 0.87257 0.0
C1013 C 0.44432 0.08354 0.88462 0.0
C1014 C 0.46029 0.10913 0.88699 0.0
C1015 C 0.43795 0.12328 0.84494 0.0
C1016 C 0.435 0.10748 0.8509 0.0
C1017 C 0.4494 0.13416 0.85253 0.0
C1018 C 0.45727 0.12949 0.86635 0.0
Tb1019 Tb 0.42124 0.07105 0.85501 0.0
N1020 N 0.42393 0.09661 0.84416 0.0
C1021 C 0.42895 0.1278 0.83187 0.0
C1022 C 0.41448 0.10134 0.83197 0.0
C1023 C 0.417 0.11683 0.82551 0.0
H1024 H 0.44058 0.07182 0.88948 0.0
H1025 H 0.40963 0.12034 0.8157 0.0
H1026 H 0.3852 1.02065 0.83023 0.0
H1027 H 0.47083 0.99601 0.86332 0.0
H1028 H 0.40496 0.09327 0.82702 0.0
H1029 H 0.4308 0.13982 0.82692 0.0
H1030 H 0.46169 1.01563 0.84445 0.0
H1031 H 0.46015 0.09021 0.90448 0.0
H1032 H 0.45193 0.14632 0.84807 0.0
H1033 H 0.46577 0.13811 0.87236 0.0
H1034 H 0.36435 1.00187 0.84175 0.0
H1035 H 0.46878 0.11721 0.89365 0.0
H1036 H 0.45096 0.97724 0.87736 0.0
N1037 N 0.40474 1.01156 0.84293 0.0
C1038 C 0.4091 0.99962 0.85265 0.0
C1039 C 0.37687 1.00117 0.84503 0.0
C1040 C 0.39738 0.98834 0.85936 0.0
C1041 C 0.38889 1.01202 0.83859 0.0
C1042 C 0.3811 0.98936 0.85558 0.0
N1043 N 0.43642 1.00969 0.84903 0.0
C1044 C 0.45265 1.00828 0.85106 0.0
C1045 C 0.43027 0.98684 0.86637 0.0
C1046 C 0.42538 0.99885 0.85602 0.0
C1047 C 0.44676 0.98619 0.86937 0.0
C1048 C 0.45799 0.99682 0.86152 0.0
H1049 H 0.37174 0.98096 0.86055 0.0
H1050 H 0.39339 0.96753 0.87469 0.0
H1051 H 0.42215 0.96642 0.88116 0.0
O1052 O 0.43342 1.00803 0.82086 0.0
O1053 O 0.41152 0.03299 0.85588 0.0
O1054 O 0.42823 0.05051 0.86924 0.0
O1055 O 0.42201 0.02714 0.80876 0.0
O1056 O 0.45059 0.04031 0.84186 0.0
O1057 O 0.44733 0.06364 0.858 0.0
O1058 O 0.39952 0.06131 0.86585 0.0
O1059 O 0.42434 0.06954 0.82905 0.0
O1060 O 0.44116 0.04926 0.82511 0.0
O1061 O 0.40819 0.08615 0.87067 0.0
O1062 O 0.40232 0.06582 0.83483 0.0
O1063 O 0.40452 0.04031 0.82256 0.0
C1064 C 0.41962 0.03667 0.86903 0.0
C1065 C 0.42269 1.00221 0.7943 0.0
C1066 C 0.43089 0.9938 0.76719 0.0
C1067 C 0.41467 0.99222 0.76254 0.0
C1068 C 0.40637 1.00062 0.78982 0.0
C1069 C 0.40237 0.99506 0.77409 0.0
C1070 C 0.43459 0.99745 0.7834 0.0
C1071 C 0.45691 0.0524 0.85172 0.0
C1072 C 0.4286 1.01335 0.80723 0.0
C1073 C 0.40223 0.97635 0.86954 0.0
C1074 C 0.41861 0.97571 0.87319 0.0
C1075 C 0.43655 0.06348 0.82156 0.0
C1076 C 0.39431 0.07241 0.89198 0.0
C1077 C 0.37844 0.07868 0.91627 0.0
C1078 C 0.38756 0.06839 0.92514 0.0
C1079 C 0.40376 0.06276 0.90119 0.0
C1080 C 0.38179 0.08055 0.89964 0.0
C1081 C 0.40022 0.06055 0.91762 0.0
C1082 C 0.39694 0.05402 0.82413 0.0
C1083 C 0.39755 0.07446 0.87453 0.0
H1084 H 0.4116 0.98951 0.75003 0.0
H1085 H 0.39696 1.00457 0.79806 0.0
H1086 H 0.38983 0.99414 0.77051 0.0
H1087 H 0.44723 0.99917 0.78681 0.0
H1088 H 0.38531 0.06694 0.93802 0.0
H1089 H 0.41395 0.05706 0.8958 0.0
H1090 H 0.37478 0.08845 0.89272 0.0
H1091 H 0.40751 0.05298 0.92459 0.0
Tb1092 Tb 0.05882 0.43477 0.87238 0.0
C1093 C 0.99753 0.41558 0.86402 0.0
N1094 N 1.01383 0.41579 0.86089 0.0
C1095 C 1.01472 0.39058 0.87472 0.0
C1096 C 0.98922 0.40261 0.87224 0.0
C1097 C 1.02246 0.4037 0.86662 0.0
C1098 C 0.998 0.38987 0.87729 0.0
C1099 C 0.97268 0.42974 0.86409 0.0
C1100 C 0.98925 0.429 0.86003 0.0
C1101 C 0.96429 0.4165 0.87157 0.0
C1102 C 0.97253 0.40298 0.87562 0.0
Tb1103 Tb 0.02333 0.43724 0.84507 0.0
N1104 N 0.99775 0.44183 0.85323 0.0
C1105 C 0.96514 0.44397 0.86092 0.0
C1106 C 0.99064 0.4559 0.85046 0.0
C1107 C 0.97421 0.45717 0.85424 0.0
H1108 H 0.03531 0.40422 0.8658 0.0
H1109 H 0.96855 0.46829 0.85197 0.0
H1110 H 0.06286 0.46934 0.89539 0.0
H1111 H 0.10671 0.39457 0.85939 0.0
H1112 H 0.99766 0.4661 0.84527 0.0
H1113 H 0.95242 0.44501 0.86389 0.0
H1114 H 0.07893 0.40139 0.866 0.0
H1115 H 1.02174 0.3811 0.87916 0.0
H1116 H 0.9515 0.41678 0.87464 0.0
H1117 H 0.96597 0.39304 0.88177 0.0
H1118 H 0.08376 0.49158 0.90017 0.0
H1119 H 0.99208 0.37973 0.88367 0.0
H1120 H 0.12901 0.41611 0.85893 0.0
N1121 N 0.07784 0.45573 0.87948 0.0
C1122 C 0.09341 0.45379 0.87464 0.0
C1123 C 0.08659 0.48116 0.89268 0.0
C1124 C 0.10599 0.46585 0.87778 0.0
C1125 C 0.0747 0.4686 0.88969 0.0
C1126 C 0.10223 0.47999 0.88629 0.0
N1127 N 0.08484 0.42699 0.86806 0.0
C1128 C 0.08832 0.41113 0.86538 0.0
C1129 C 0.11331 0.43528 0.86544 0.0
C1130 C 0.09705 0.43875 0.86872 0.0
C1131 C 0.1167 0.41929 0.86148 0.0
C1132 C 0.10417 0.4071 0.86177 0.0
H1133 H 0.11151 0.48955 0.88892 0.0
H1134 H 0.13185 0.47207 0.87563 0.0
H1135 H 0.13824 0.44526 0.86457 0.0
O1136 O 0.05841 0.41303 0.88573 0.0
O1137 O 0.06666 0.43533 0.84751 0.0
O1138 O 0.04635 0.44816 0.83557 0.0
O1139 O 0.06247 0.43653 0.89729 0.0
O1140 O 0.05852 0.41411 0.85198 0.0
O1141 O 0.03637 0.41581 0.83571 0.0
O1142 O 1.01356 0.44898 0.82557 0.0
O1143 O 1.01755 0.44746 0.86974 0.0
O1144 O 0.03391 0.43224 0.88376 0.0
O1145 O 1.01085 0.4232 0.82709 0.0
O1146 O 0.03361 0.46316 0.84842 0.0
O1147 O 0.05163 0.46124 0.86938 0.0
C1148 C 0.06146 0.4445 0.83646 0.0
C1149 C 0.0773 0.41597 0.90744 0.0
C1150 C 0.09089 0.39621 0.92276 0.0
C1151 C 0.10413 0.40762 0.92486 0.0
C1152 C 0.09076 0.42718 0.90984 0.0
C1153 C 0.10403 0.423 0.91846 0.0
C1154 C 0.07736 0.40044 0.91414 0.0
C1155 C 0.04968 0.40856 0.83899 0.0
C1156 C 0.06296 0.42098 0.89892 0.0
C1157 C 0.12207 0.4629 0.87347 0.0
C1158 C 0.12572 0.44763 0.86722 0.0
C1159 C 1.02159 0.44164 0.88372 0.0
C1160 C 1.0156 0.4334 0.80106 0.0
C1161 C 0.03046 0.44453 0.77753 0.0
C1162 C 0.02657 0.43015 0.76864 0.0
C1163 C 1.01205 0.41889 0.79215 0.0
C1164 C 0.02512 0.44594 0.79374 0.0
C1165 C 1.01764 0.41725 0.77608 0.0
C1166 C 0.04361 0.47042 0.85935 0.0
C1167 C 1.00944 0.43543 0.81791 0.0
H1168 H 0.11448 0.40471 0.93179 0.0
H1169 H 0.09101 0.43936 0.90531 0.0
H1170 H 0.1142 0.43178 0.92034 0.0
H1171 H 0.06698 0.3918 0.91275 0.0
H1172 H 0.03027 0.42899 0.75601 0.0
H1173 H 1.00489 0.40888 0.79759 0.0
H1174 H 0.02795 0.45717 0.80049 0.0
H1175 H 1.01475 0.40607 0.76927 0.0
Tb1176 Tb 0.6777 0.0919 0.86222 0.0
C1177 C 0.65872 1.02051 0.89059 0.0
N1178 N 0.65663 0.03572 0.89643 0.0
C1179 C 0.63102 0.02614 0.90842 0.0
C1180 C 0.64677 1.00765 0.89269 0.0
C1181 C 0.64336 0.03842 0.90612 0.0
C1182 C 0.63256 1.01077 0.90135 0.0
C1183 C 0.67727 1.00165 0.87937 0.0
C1184 C 0.67363 1.01753 0.88418 0.0
C1185 C 0.66509 0.98895 0.88025 0.0
C1186 C 0.64982 0.99195 0.88692 0.0
Tb1187 Tb 0.67705 0.0556 0.89104 0.0
N1188 N 0.68505 0.03007 0.88407 0.0
C1189 C 0.69318 0.99891 0.87458 0.0
C1190 C 0.70085 0.0272 0.8804 0.0
C1191 C 0.70509 1.01171 0.87538 0.0
H1192 H 0.64214 0.05021 0.91187 0.0
H1193 H 0.71758 1.00963 0.87228 0.0
H1194 H 0.71806 0.0969 0.86097 0.0
H1195 H 0.63195 0.12912 0.88934 0.0
H1196 H 0.71035 0.03677 0.88132 0.0
H1197 H 0.69652 0.98688 0.87086 0.0
H1198 H 0.64126 0.10587 0.87398 0.0
H1199 H 0.62037 0.02854 0.91571 0.0
H1200 H 0.66755 0.97669 0.87642 0.0
H1201 H 0.64071 0.98195 0.88818 0.0
H1202 H 0.73905 0.11755 0.86972 0.0
H1203 H 0.62308 1.00124 0.90327 0.0
H1204 H 0.65155 0.15091 0.89915 0.0
N1205 N 0.69838 0.1098 0.87054 0.0
C1206 C 0.69383 0.12395 0.87748 0.0
C1207 C 0.72639 0.11945 0.8721 0.0
C1208 C 0.70552 0.13614 0.88266 0.0
C1209 C 0.7144 0.10763 0.86732 0.0
C1210 C 0.72195 0.13373 0.87988 0.0
N1211 N 0.66651 0.11333 0.87566 0.0
C1212 C 0.65028 0.11476 0.87844 0.0
C1213 C 0.6724 0.13942 0.8891 0.0
C1214 C 0.67742 0.12558 0.88051 0.0
C1215 C 0.65588 0.14053 0.89247 0.0
C1216 C 0.6448 0.12821 0.88703 0.0
H1217 H 0.73128 0.14278 0.88373 0.0
H1218 H 0.70928 0.15946 0.89516 0.0
H1219 H 0.68031 0.16228 0.90092 0.0
O1220 O 0.66778 0.10647 0.8449 0.0
O1221 O 0.68898 0.09313 0.88661 0.0
O1222 O 0.6694 0.07929 0.89983 0.0
O1223 O 0.69131 0.09758 0.84114 0.0
O1224 O 0.65153 0.08189 0.86582 0.0
O1225 O 0.65096 0.06155 0.88498 0.0
O1226 O 0.69793 0.05521 0.90562 0.0
O1227 O 0.6785 0.04786 0.86632 0.0
O1228 O 0.66649 0.06836 0.85363 0.0
O1229 O 0.67419 0.05379 0.91621 0.0
O1230 O 0.70151 0.06304 0.8773 0.0
O1231 O 0.69599 0.07553 0.85361 0.0
C1232 C 0.68 0.09166 0.89985 0.0
C1233 C 0.67527 0.09727 0.81859 0.0
C1234 C 0.65829 0.07764 0.80255 0.0
C1235 C 0.66692 0.08305 0.7885 0.0
C1236 C 0.68361 0.10244 0.80455 0.0
C1237 C 0.67962 0.09512 0.78959 0.0
C1238 C 0.66341 0.08437 0.8176 0.0
C1239 C 0.64309 0.07108 0.8752 0.0
C1240 C 0.67962 0.10441 0.83451 0.0
C1241 C 0.70049 0.15003 0.89096 0.0
C1242 C 0.68398 0.15162 0.89426 0.0
C1243 C 0.67078 0.05335 0.85434 0.0
C1244 C 0.69241 0.03658 0.92704 0.0
C1245 C 0.7101 1.01972 0.94152 0.0
C1246 C 0.69719 1.00787 0.94321 0.0
C1247 C 0.67968 1.02447 0.92913 0.0
C1248 C 0.70776 0.03414 0.93337 0.0
C1249 C 0.6821 1.01025 0.93706 0.0
C1250 C 0.70552 0.06676 0.86171 0.0
C1251 C 0.68929 0.05163 0.91853 0.0
H1252 H 0.66354 0.07865 0.77653 0.0
H1253 H 0.69322 0.11203 0.80516 0.0
H1254 H 0.68604 0.09919 0.7787 0.0
H1255 H 0.65785 0.08011 0.82873 0.0
H1256 H 0.6988 0.99673 0.94947 0.0
H1257 H 0.66768 0.02592 0.92477 0.0
H1258 H 0.71768 0.04333 0.93206 0.0
H1259 H 0.6722 1.00109 0.93855 0.0
Tb1260 Tb 0.0507 0.69284 0.86442 0.0
C1261 C 0.11967 0.70695 0.85973 0.0
N1262 N 0.10602 0.71141 0.85265 0.0
C1263 C 0.11372 0.7395 0.85874 0.0
C1264 C 0.13056 0.71862 0.86716 0.0
C1265 C 0.1033 0.72753 0.85146 0.0
C1266 C 0.12736 0.73503 0.86671 0.0
C1267 C 0.13601 0.68544 0.86786 0.0
C1268 C 0.12234 0.69052 0.86001 0.0
C1269 C 0.14699 0.69704 0.8751 0.0
C1270 C 0.14426 0.71358 0.8748 0.0
Tb1271 Tb 0.0911 0.69076 0.83958 0.0
N1272 N 0.11158 0.67958 0.85267 0.0
C1273 C 0.13832 0.66884 0.86812 0.0
C1274 C 0.11411 0.66339 0.85247 0.0
C1275 C 0.12735 0.65779 0.86036 0.0
H1276 H 0.09307 0.73122 0.84503 0.0
H1277 H 0.12922 0.64494 0.86023 0.0
H1278 H 0.04396 0.6606 0.88734 0.0
H1279 H 1.00644 0.73209 0.84326 0.0
H1280 H 0.10626 0.65465 0.84602 0.0
H1281 H 0.14863 0.66445 0.8741 0.0
H1282 H 0.03282 0.72534 0.853 0.0
H1283 H 0.11131 0.75218 0.85806 0.0
H1284 H 0.15763 0.69333 0.88106 0.0
H1285 H 0.15278 0.72236 0.88056 0.0
H1286 H 1.02201 0.63939 0.89239 0.0
H1287 H 0.13542 0.74434 0.87233 0.0
H1288 H 0.9834 0.71131 0.84309 0.0
N1289 N 0.03028 0.67353 0.87109 0.0
C1290 C 1.0154 0.67516 0.86513 0.0
C1291 C 1.02001 0.6493 0.88452 0.0
C1292 C 1.00229 0.66371 0.86812 0.0
C1293 C 0.03248 0.66124 0.88146 0.0
C1294 C 1.0049 0.65038 0.87758 0.0
N1295 N 0.02582 0.7003 0.85638 0.0
C1296 C 0.02336 0.71578 0.85197 0.0
C1297 C 0.99744 0.69266 0.85258 0.0
C1298 C 1.01305 0.68922 0.85744 0.0
C1299 C 0.99521 0.7081 0.84681 0.0
C1300 C 1.00819 0.71983 0.84684 0.0
H1301 H 0.99517 0.64128 0.88017 0.0
H1302 H 0.97668 0.65771 0.86433 0.0
H1303 H 0.97239 0.68325 0.85076 0.0
O1304 O 0.05753 0.71469 0.87757 0.0
O1305 O 0.04717 0.69143 0.83898 0.0
O1306 O 0.06952 0.6789 0.82822 0.0
O1307 O 0.04201 0.69565 0.88814 0.0
O1308 O 0.05791 0.71511 0.84802 0.0
O1309 O 0.07663 0.7083 0.82822 0.0
O1310 O 0.10687 0.68122 0.82173 0.0
O1311 O 0.08733 0.70124 0.86409 0.0
O1312 O 0.07113 0.68259 0.87569 0.0
O1313 O 0.10163 0.70631 0.82213 0.0
O1314 O 0.08063 0.6647 0.84371 0.0
O1315 O 0.05819 0.6666 0.8613 0.0
C1316 C 0.05419 0.68234 0.82815 0.0
C1317 C 0.03534 0.722 0.89483 0.0
C1318 C 0.02726 0.74629 0.90955 0.0
C1319 C 1.01105 0.74214 0.90543 0.0
C1320 C 1.01888 0.71784 0.89166 0.0
C1321 C 1.00692 0.72797 0.89662 0.0
C1322 C 0.03948 0.7362 0.90411 0.0
C1323 C 0.06594 0.7182 0.83378 0.0
C1324 C 0.04768 0.71065 0.88964 0.0
C1325 C 0.98689 0.66642 0.86229 0.0
C1326 C 0.98445 0.68094 0.85455 0.0
C1327 C 0.08459 0.6915 0.87616 0.0
C1328 C 0.10569 0.69493 0.7965 0.0
C1329 C 0.09725 0.6806 0.77161 0.0
C1330 C 0.10354 0.69382 0.76255 0.0
C1331 C 0.11177 0.70819 0.78734 0.0
C1332 C 0.09732 0.68184 0.78863 0.0
C1333 C 0.11028 0.70779 0.77047 0.0
C1334 C 0.06865 0.65754 0.85298 0.0
C1335 C 0.10845 0.69492 0.8141 0.0
H1336 H 1.00136 0.74939 0.90983 0.0
H1337 H 1.01505 0.70649 0.8857 0.0
H1338 H 0.99434 0.72456 0.89407 0.0
H1339 H 0.05195 0.73911 0.90747 0.0
H1340 H 0.10391 0.693 0.74943 0.0
H1341 H 0.11788 0.71872 0.79322 0.0
H1342 H 0.09203 0.67197 0.79573 0.0
H1343 H 0.11518 0.71797 0.76348 0.0
Tb1344 Tb 0.239 0.40901 0.04998 0.0
C1345 C 0.24698 0.38111 0.1162 0.0
N1346 N 0.23888 0.39395 0.11145 0.0
C1347 C 0.21639 0.38549 0.12904 0.0
C1348 C 0.23964 0.3695 0.12685 0.0
C1349 C 0.22438 0.39695 0.11896 0.0
C1350 C 0.22387 0.37146 0.13264 0.0
C1351 C 0.27262 0.36868 0.11839 0.0
C1352 C 0.26329 0.38056 0.11191 0.0
C1353 C 0.26508 0.35662 0.12818 0.0
C1354 C 0.2486 0.35695 0.13229 0.0
Tb1355 Tb 0.25368 0.41179 0.09474 0.0
N1356 N 0.27023 0.39218 0.10201 0.0
C1357 C 0.2893 0.36935 0.11491 0.0
C1358 C 0.28667 0.39338 0.09939 0.0
C1359 C 0.29635 0.38181 0.10545 0.0
H1360 H 0.21889 0.40826 0.11727 0.0
H1361 H 0.30927 0.38259 0.10293 0.0
H1362 H 0.26656 0.41517 1.02037 0.0
H1363 H 0.1849 0.43935 0.0677 0.0
H1364 H 0.29224 0.40333 0.09271 0.0
H1365 H 0.29685 0.36044 0.11962 0.0
H1366 H 0.20685 0.42195 0.07223 0.0
H1367 H 0.20466 0.38772 0.13437 0.0
H1368 H 0.27199 0.34722 0.13298 0.0
H1369 H 0.24309 0.34786 0.14031 0.0
H1370 H 0.26855 0.43091 0.9952 0.0
H1371 H 0.2178 0.36278 0.14075 0.0
H1372 H 0.18446 0.45473 0.04249 0.0
N1373 N 0.24427 0.42453 0.0281 0.0
C1374 C 0.2323 0.43443 1.02488 0.0
C1375 C 0.25837 0.43205 1.00351 0.0
C1376 C 0.23279 0.4433 1.01052 0.0
C1377 C 0.25731 0.42332 1.01783 0.0
C1378 C 0.24602 0.44198 0.99978 0.0
N1379 N 0.21961 0.42747 0.05014 0.0
C1380 C 0.20726 0.4286 0.06133 0.0
C1381 C 0.20691 0.44588 0.03295 0.0
C1382 C 0.21949 0.43577 0.03607 0.0
C1383 C 0.19437 0.44714 0.04448 0.0
C1384 C 0.1946 0.43852 0.05875 0.0
H1385 H 0.24681 0.44859 0.98859 0.0
H1386 H 0.2202 0.4599 0.99621 0.0
H1387 H 0.19755 0.46209 1.01579 0.0
O1388 O 0.21666 0.39614 0.04546 0.0
O1389 O 0.24217 0.43568 0.05975 0.0
O1390 O 0.24656 0.43687 0.0876 0.0
O1391 O 0.23587 0.39705 0.02725 0.0
O1392 O 0.23002 0.39335 0.0693 0.0
O1393 O 0.22791 0.41128 0.08957 0.0
O1394 O 0.27271 0.42559 0.10585 0.0
O1395 O 0.2607 0.38871 0.08075 0.0
O1396 O 0.25608 0.38889 0.05293 0.0
O1397 O 0.25054 0.41999 0.11902 0.0
O1398 O 0.26859 0.42307 0.07537 0.0
O1399 O 0.2652 0.41015 0.05058 0.0
C1400 C 0.24402 0.44446 0.07374 0.0
C1401 C 0.21727 0.37362 0.02739 0.0
C1402 C 0.19708 0.35231 1.01857 0.0
C1403 C 0.20882 0.34087 1.01927 0.0
C1404 C 0.22878 0.36198 0.02829 0.0
C1405 C 0.22452 0.34569 1.02426 0.0
C1406 C 0.2014 0.36866 1.02274 0.0
C1407 C 0.22157 0.39886 0.08127 0.0
C1408 C 0.22135 0.39099 0.03116 0.0
C1409 C 0.22011 0.45314 1.00729 0.0
C1410 C 0.2072 0.4544 1.01844 0.0
C1411 C 0.26212 0.38193 0.06582 0.0
C1412 C 0.27509 0.41616 0.13226 0.0
C1413 C 0.30171 0.40851 0.14024 0.0
C1414 C 0.29437 0.39761 0.15136 0.0
C1415 C 0.26777 0.40522 0.14348 0.0
C1416 C 0.29192 0.41776 0.13104 0.0
C1417 C 0.27741 0.39594 0.15288 0.0
C1418 C 0.27451 0.41585 0.06243 0.0
C1419 C 0.26582 0.4244 0.12014 0.0
H1420 H 0.20582 0.32824 1.01603 0.0
H1421 H 0.24103 0.36547 0.032 0.0
H1422 H 0.23347 0.33678 1.02488 0.0
H1423 H 0.19251 0.37765 1.02195 0.0
H1424 H 0.30169 0.39078 0.15906 0.0
H1425 H 0.2547 0.40353 0.14468 0.0
H1426 H 0.29757 0.42647 0.1228 0.0
H1427 H 0.2717 0.38747 0.16141 0.0
Tb1428 Tb 0.24238 0.67096 0.0567 0.0
C1429 C 0.24332 0.68459 0.1307 0.0
N1430 N 0.25174 0.69014 0.11741 0.0
C1431 C 0.25228 0.71737 0.12866 0.0
C1432 C 0.23916 0.69528 0.14355 0.0
C1433 C 0.25627 0.70636 0.1163 0.0
C1434 C 0.2438 0.7118 0.1424 0.0
C1435 C 0.22878 0.66232 0.14446 0.0
C1436 C 0.23827 0.66826 0.13114 0.0
C1437 C 0.22545 0.67274 0.15763 0.0
C1438 C 0.23048 0.68921 0.15712 0.0
Tb1439 Tb 0.26007 0.67065 0.09939 0.0
N1440 N 0.24224 0.65834 0.1184 0.0
C1441 C 0.22266 0.64616 0.14413 0.0
C1442 C 0.23587 0.64249 0.11809 0.0
C1443 C 0.22602 0.63631 0.13076 0.0
H1444 H 0.26292 0.71112 0.10598 0.0
H1445 H 0.22111 0.6238 0.13024 0.0
H1446 H 0.208 0.64783 0.05906 0.0
H1447 H 0.28289 0.68072 1.00511 0.0
H1448 H 0.23789 0.63406 0.10839 0.0
H1449 H 0.21513 0.64125 0.15399 0.0
H1450 H 0.26921 0.68815 0.03093 0.0
H1451 H 0.25589 0.73016 0.12761 0.0
H1452 H 0.21863 0.66823 0.16814 0.0
H1453 H 0.2274 0.69719 0.16719 0.0
H1454 H 0.19537 0.62355 0.04488 0.0
H1455 H 0.2408 0.72037 0.15199 0.0
H1456 H 0.27561 0.65423 0.99148 0.0
N1457 N 0.22929 0.64885 0.04403 0.0
C1458 C 0.23657 0.64298 0.03042 0.0
C1459 C 0.20705 0.6288 0.04078 0.0
C1460 C 0.22983 0.62923 1.02188 0.0
C1461 C 0.21421 0.64256 0.04877 0.0
C1462 C 0.21504 0.62191 0.02746 0.0
N1463 N 0.2549 0.66579 0.03225 0.0
C1464 C 0.26602 0.67652 0.02513 0.0
C1465 C 0.25735 0.647 1.00958 0.0
C1466 C 0.25005 0.65171 1.0244 0.0
C1467 C 0.26967 0.65737 1.00285 0.0
C1468 C 0.27376 0.67237 1.01048 0.0
H1469 H 0.20943 0.61132 1.02124 0.0
H1470 H 0.23291 0.61301 1.0011 0.0
H1471 H 0.2571 0.62861 0.9903 0.0
O1472 O 0.22577 0.68927 0.05971 0.0
O1473 O 0.26857 0.67198 0.05828 0.0
O1474 O 0.27099 0.65667 0.08023 0.0
O1475 O 0.23127 0.67954 0.03607 0.0
O1476 O 0.26166 0.69346 0.06102 0.0
O1477 O 0.27191 0.69271 0.08694 0.0
O1478 O 0.27212 0.66357 0.1199 0.0
O1479 O 0.23805 0.68343 0.09531 0.0
O1480 O 0.22557 0.6657 0.07817 0.0
O1481 O 0.28439 0.67917 0.1024 0.0
O1482 O 0.25442 0.64421 0.08929 0.0
O1483 O 0.2422 0.64412 0.0642 0.0
C1484 C 0.2761 0.66127 0.06594 0.0
C1485 C 0.20403 0.686 0.04057 0.0
C1486 C 0.1811 0.68703 1.02178 0.0
C1487 C 0.17073 0.68051 0.03406 0.0
C1488 C 0.19307 0.67955 0.05237 0.0
C1489 C 0.17666 0.67679 0.04909 0.0
C1490 C 0.19796 0.68956 0.02507 0.0
C1491 C 0.27177 0.70014 0.07278 0.0
C1492 C 0.22169 0.68849 0.04443 0.0
C1493 C 0.23772 0.62372 1.00772 0.0
C1494 C 0.2515 0.6326 1.00159 0.0
C1495 C 0.22465 0.67501 0.09137 0.0
C1496 C 0.29812 0.65755 0.11116 0.0
C1497 C 0.30225 0.62896 0.10695 0.0
C1498 C 0.319 0.63243 0.10942 0.0
C1499 C 0.31463 0.66098 0.11392 0.0
C1500 C 0.2926 0.64203 0.10578 0.0
C1501 C 0.32517 0.64847 0.11234 0.0
C1502 C 0.24721 0.63574 0.07672 0.0
C1503 C 0.2861 0.66951 0.11429 0.0
H1504 H 0.15789 0.6781 0.03198 0.0
H1505 H 0.19719 0.6765 0.06419 0.0
H1506 H 0.16842 0.67171 0.05831 0.0
H1507 H 0.20622 0.69447 1.01579 0.0
H1508 H 0.32715 0.62283 0.11037 0.0
H1509 H 0.31924 0.67312 0.1175 0.0
H1510 H 0.28001 0.63969 0.10289 0.0
H1511 H 0.33796 0.65099 0.11456 0.0
Tb1512 Tb 0.42408 0.24061 0.04026 0.0
C1513 C 0.41838 0.2419 0.1116 0.0
N1514 N 0.4124 0.25271 0.1017 0.0
C1515 C 0.38633 0.24888 0.11518 0.0
C1516 C 0.40838 0.23334 0.12302 0.0
C1517 C 0.39666 0.25671 0.10375 0.0
C1518 C 0.39214 0.23693 0.12469 0.0
C1519 C 0.44147 0.22827 0.12003 0.0
C1520 C 0.43462 0.23961 0.1102 0.0
C1521 C 0.43147 0.21898 0.13082 0.0
C1522 C 0.41495 0.2216 0.1324 0.0
Tb1523 Tb 0.42978 0.2647 0.08259 0.0
N1524 N 0.44379 0.24901 0.09971 0.0
C1525 C 0.45819 0.22695 0.11904 0.0
C1526 C 0.46032 0.24881 0.1 0.0
C1527 C 0.46769 0.23751 0.10925 0.0
H1528 H 0.39185 0.26578 0.09648 0.0
H1529 H 0.48075 0.23714 0.109 0.0
H1530 H 0.45725 0.22092 0.03051 0.0
H1531 H 0.37833 0.25479 0.9988 0.0
H1532 H 0.46813 0.25741 0.0934 0.0
H1533 H 0.46394 0.21831 0.12628 0.0
H1534 H 0.38898 0.24647 1.02457 0.0
H1535 H 0.37386 0.25199 0.11654 0.0
H1536 H 0.43648 0.21006 0.13831 0.0
H1537 H 0.40743 0.21467 0.14104 0.0
H1538 H 0.47708 0.22012 1.00782 0.0
H1539 H 0.38407 0.23073 0.1334 0.0
H1540 H 0.39682 0.25896 0.97507 0.0
N1541 N 0.44258 0.23743 1.01922 0.0
C1542 C 0.43894 0.24376 1.00484 0.0
C1543 C 0.46655 0.22709 1.0069 0.0
C1544 C 0.44921 0.24246 0.99105 0.0
C1545 C 0.45549 0.22796 1.01993 0.0
C1546 C 0.46358 0.23471 0.99249 0.0
N1547 N 0.41369 0.24825 1.01647 0.0
C1548 C 0.3974 0.24942 1.01475 0.0
C1549 C 0.41809 0.25327 0.98807 0.0
C1550 C 0.42374 0.24923 1.00335 0.0
C1551 C 0.40168 0.25603 0.98663 0.0
C1552 C 0.39121 0.25371 0.99998 0.0
H1553 H 0.47188 0.23357 0.98223 0.0
H1554 H 0.45189 0.24666 0.96529 0.0
H1555 H 0.42459 0.25626 0.9627 0.0
O1556 O 0.4034 0.22547 0.04687 0.0
O1557 O 0.42315 0.26642 0.03776 0.0
O1558 O 0.43906 0.27254 0.0591 0.0
O1559 O 0.41938 0.21882 0.02696 0.0
O1560 O 0.40221 0.25551 0.04846 0.0
O1561 O 0.40722 0.27161 0.07164 0.0
O1562 O 0.44089 0.28291 0.09821 0.0
O1563 O 0.41457 0.2425 0.07819 0.0
O1564 O 0.43158 0.22946 0.06225 0.0
O1565 O 0.41709 0.28471 0.08913 0.0
O1566 O 0.45474 0.26159 0.06997 0.0
O1567 O 0.45106 0.2426 0.04854 0.0
C1568 C 0.43006 0.27724 0.0476 0.0
C1569 C 0.40035 0.1981 0.03654 0.0
C1570 C 0.37958 0.17682 0.02968 0.0
C1571 C 0.38943 0.16523 0.03567 0.0
C1572 C 0.41032 0.18642 0.04195 0.0
C1573 C 0.40474 0.17004 0.04171 0.0
C1574 C 0.38502 0.19326 0.03051 0.0
C1575 C 0.39762 0.26673 0.05963 0.0
C1576 C 0.40598 0.21519 0.03502 0.0
C1577 C 0.4442 0.24768 0.97602 0.0
C1578 C 0.42864 0.2531 0.97452 0.0
C1579 C 0.42124 0.22905 0.0744 0.0
C1580 C 0.431 0.3095 0.09496 0.0
C1581 C 0.44676 0.33475 0.10077 0.0
C1582 C 0.43419 0.34369 0.09548 0.0
C1583 C 0.41834 0.31851 0.08957 0.0
C1584 C 0.44533 0.31773 0.09981 0.0
C1585 C 0.42014 0.33549 0.08947 0.0
C1586 C 0.46116 0.25143 0.05873 0.0
C1587 C 0.42854 0.29187 0.0975 0.0
H1588 H 0.38568 0.1524 0.03485 0.0
H1589 H 0.42248 0.18989 0.04591 0.0
H1590 H 0.41253 0.16098 0.04569 0.0
H1591 H 0.37764 0.20225 0.0256 0.0
H1592 H 0.43496 0.35681 0.09672 0.0
H1593 H 0.40695 0.3125 0.08578 0.0
H1594 H 0.45481 0.31089 0.10461 0.0
H1595 H 0.41029 0.3423 0.08552 0.0
Tb1596 Tb 0.85853 0.4527 1.01569 0.0
C1597 C 0.89239 0.46779 0.08566 0.0
N1598 N 0.89602 0.46671 0.06955 0.0
C1599 C 0.91748 0.48768 0.07297 0.0
C1600 C 0.90061 0.47937 0.09594 0.0
C1601 C 0.90901 0.47592 0.0633 0.0
C1602 C 0.91311 0.48957 0.08932 0.0
C1603 C 0.87695 0.45691 0.1087 0.0
C1604 C 0.881 0.45659 0.09201 0.0
C1605 C 0.8846 0.46884 0.11891 0.0
C1606 C 0.89646 0.48001 0.11255 0.0
Tb1607 Tb 0.88189 0.44633 0.05494 0.0
N1608 N 0.87402 0.44515 0.08174 0.0
C1609 C 0.86547 0.44515 0.1146 0.0
C1610 C 0.86312 0.43336 0.08754 0.0
C1611 C 0.85859 0.43328 0.10398 0.0
H1612 H 0.91248 0.47459 0.05067 0.0
H1613 H 0.84984 0.42402 0.10846 0.0
H1614 H 0.8516 0.41419 1.00381 0.0
H1615 H 0.90089 0.50013 0.99047 0.0
H1616 H 0.85787 0.42402 0.07947 0.0
H1617 H 0.86199 0.445 0.12733 0.0
H1618 H 0.88452 0.48765 1.01174 0.0
H1619 H 0.92741 0.49523 0.06782 0.0
H1620 H 0.88163 0.46934 0.13176 0.0
H1621 H 0.90255 0.4889 0.12063 0.0
H1622 H 0.85556 0.39774 0.97903 0.0
H1623 H 0.91975 0.49862 0.0968 0.0
H1624 H 0.90357 0.48636 0.96378 0.0
N1625 N 0.86396 0.4356 0.99449 0.0
C1626 C 0.87167 0.44259 0.98149 0.0
C1627 C 0.86019 0.41033 0.97956 0.0
C1628 C 0.87415 0.43355 0.96699 0.0
C1629 C 0.85809 0.41972 0.9937 0.0
C1630 C 0.86817 0.41729 0.96612 0.0
N1631 N 0.87638 0.46637 0.99776 0.0
C1632 C 0.88473 0.48114 1.00039 0.0
C1633 C 0.88804 0.46536 0.97058 0.0
C1634 C 0.87835 0.45838 0.98325 0.0
C1635 C 0.89594 0.48066 0.97316 0.0
C1636 C 0.89445 0.48846 0.9882 0.0
H1637 H 0.86988 0.40994 0.95522 0.0
H1638 H 0.88507 0.43404 0.94289 0.0
H1639 H 0.89736 0.46186 0.94607 0.0
O1640 O 0.8454 0.46547 0.9993 0.0
O1641 O 0.8807 0.43898 1.01492 0.0
O1642 O 0.89629 0.45365 0.03245 0.0
O1643 O 0.8353 0.44321 1.00939 0.0
O1644 O 0.86466 0.47753 0.02845 0.0
O1645 O 0.87982 0.47407 0.05157 0.0
O1646 O 0.89453 0.43364 0.07203 0.0
O1647 O 0.85563 0.44628 0.05751 0.0
O1648 O 0.84841 0.46304 0.03766 0.0
O1649 O 0.9001 0.43084 0.04688 0.0
O1650 O 0.86298 0.42396 0.04888 0.0
O1651 O 0.8468 0.43041 0.02763 0.0
C1652 C 0.89505 0.446 1.01821 0.0
C1653 C 0.81738 0.46336 1.00649 0.0
C1654 C 0.80385 0.48692 1.01679 0.0
C1655 C 0.78905 0.47754 1.01736 0.0
C1656 C 0.80256 0.45401 1.00727 0.0
C1657 C 0.78848 0.46107 1.01277 0.0
C1658 C 0.81794 0.47967 1.01149 0.0
C1659 C 0.87317 0.48405 0.04117 0.0
C1660 C 0.83235 0.45587 1.00132 0.0
C1661 C 0.88307 0.44078 0.95411 0.0
C1662 C 0.89006 0.45662 0.95593 0.0
C1663 C 0.84671 0.45748 0.05229 0.0
C1664 C 0.9223 0.43313 0.06559 0.0
C1665 C 0.94571 0.43346 0.08407 0.0
C1666 C 0.95315 0.44625 0.07495 0.0
C1667 C 0.93088 0.44508 0.05643 0.0
C1668 C 0.92987 0.42721 0.07947 0.0
C1669 C 0.94595 0.45175 0.06124 0.0
C1670 C 0.85001 0.42007 0.03908 0.0
C1671 C 0.90495 0.42852 0.06158 0.0
H1672 H 0.77796 0.483 1.02102 0.0
H1673 H 0.80189 0.44126 1.00367 0.0
H1674 H 0.77706 0.45383 1.01322 0.0
H1675 H 0.82932 0.48699 1.01065 0.0
H1676 H 0.96464 0.45226 0.0784 0.0
H1677 H 0.92567 0.44977 0.04579 0.0
H1678 H 0.92345 0.41786 0.08655 0.0
H1679 H 0.95205 0.46145 0.05438 0.0
Tb1680 Tb 0.69464 0.85675 1.01083 0.0
C1681 C 0.68146 0.87916 0.0908 0.0
N1682 N 0.68196 0.88563 0.07586 0.0
C1683 C 0.66301 0.90487 0.08466 0.0
C1684 C 0.67152 0.88519 0.10333 0.0
C1685 C 0.67331 0.89864 0.07272 0.0
C1686 C 0.66199 0.89802 0.09999 0.0
C1687 C 0.69312 0.86142 0.10959 0.0
C1688 C 0.69204 0.86743 0.09386 0.0
C1689 C 0.68274 0.86682 0.12199 0.0
C1690 C 0.67194 0.87867 0.11886 0.0
Tb1691 Tb 0.69918 0.87482 0.05734 0.0
N1692 N 0.70218 0.8629 0.08168 0.0
C1693 C 0.70507 0.85072 0.11253 0.0
C1694 C 0.71445 0.85317 0.08472 0.0
C1695 C 0.7159 0.84673 0.10007 0.0
H1696 H 0.67435 0.90412 0.06094 0.0
H1697 H 0.72547 0.83883 0.10231 0.0
H1698 H 0.73439 0.85792 1.00232 0.0
H1699 H 0.64562 0.88082 0.9783 0.0
H1700 H 0.7231 0.85016 0.07535 0.0
H1701 H 0.70635 0.84588 0.12447 0.0
H1702 H 0.65741 0.86275 0.99717 0.0
H1703 H 0.65597 0.91504 0.08208 0.0
H1704 H 0.6833 0.86228 0.13415 0.0
H1705 H 0.66433 0.88307 0.12865 0.0
H1706 H 0.75375 0.87237 0.9839 0.0
H1707 H 0.65418 0.90302 0.10929 0.0
H1708 H 0.66343 0.89876 0.96107 0.0
N1709 N 0.71388 0.86973 0.99442 0.0
C1710 C 0.70833 0.87988 0.9835 0.0
C1711 C 0.74104 0.87469 0.98373 0.0
C1712 C 0.71903 0.88806 0.97238 0.0
C1713 C 0.72996 0.86657 0.99425 0.0
C1714 C 0.73558 0.8856 0.97283 0.0
N1715 N 0.68177 0.8723 0.9931 0.0
C1716 C 0.6654 0.8714 0.99084 0.0
C1717 C 0.6855 0.89106 0.97107 0.0
C1718 C 0.69177 0.88135 0.98294 0.0
C1719 C 0.66871 0.89139 0.96995 0.0
C1720 C 0.65862 0.88132 0.9797 0.0
H1721 H 0.74416 0.89171 0.96453 0.0
H1722 H 0.72085 0.90433 0.95217 0.0
H1723 H 0.69149 0.90699 0.95101 0.0
O1724 O 0.6839 0.83295 1.00807 0.0
O1725 O 0.71026 0.87739 1.01844 0.0
O1726 O 0.6935 0.88928 0.03626 0.0
O1727 O 0.70136 0.84243 0.99073 0.0
O1728 O 0.66923 0.86197 1.02234 0.0
O1729 O 0.67228 0.87434 0.04862 0.0
O1730 O 0.72183 0.88647 0.05077 0.0
O1731 O 0.69303 0.84878 0.05973 0.0
O1732 O 0.69175 0.8556 0.03554 0.0
O1733 O 0.70898 0.89371 0.07251 0.0
O1734 O 0.72018 0.85943 0.04856 0.0
O1735 O 0.71624 0.84684 1.02275 0.0
C1736 C 0.70361 0.89039 1.02372 0.0
C1737 C 0.70355 0.81532 0.99812 0.0
C1738 C 0.70309 0.78594 1.00001 0.0
C1739 C 0.71985 0.78654 0.99677 0.0
C1740 C 0.72018 0.81574 0.99407 0.0
C1741 C 0.7284 0.80147 0.99412 0.0
C1742 C 0.69548 0.8006 1.00217 0.0
C1743 C 0.66261 0.86863 0.03618 0.0
C1744 C 0.69386 0.82949 0.99635 0.0
C1745 C 0.71283 0.89796 0.96081 0.0
C1746 C 0.69611 0.89949 0.96018 0.0
C1747 C 0.68969 0.84372 0.04534 0.0
C1748 C 0.72645 0.91375 0.06016 0.0
C1749 C 0.74516 0.93742 0.0654 0.0
C1750 C 0.73535 0.94684 0.05623 0.0
C1751 C 0.71621 0.92361 0.05222 0.0
C1752 C 0.74097 0.92066 0.06658 0.0
C1753 C 0.72097 0.93992 0.04967 0.0
C1754 C 0.72498 0.84959 0.03625 0.0
C1755 C 0.72168 0.89658 0.06317 0.0
H1756 H 0.72595 0.77544 0.99486 0.0
H1757 H 0.72685 0.82701 0.99094 0.0
H1758 H 0.74123 0.80188 0.99113 0.0
H1759 H 0.68255 0.80045 1.00466 0.0
H1760 H 0.7381 0.95978 0.05513 0.0
H1761 H 0.70444 0.91877 0.04828 0.0
H1762 H 0.74852 0.91315 0.07335 0.0
H1763 H 0.71313 0.94742 0.04328 0.0
Tb1764 Tb 0.88573 0.70876 0.03895 0.0
C1765 C 0.87721 0.7392 0.1064 0.0
N1766 N 0.88457 0.72545 0.10197 0.0
C1767 C 0.90807 0.735 0.11701 0.0
C1768 C 0.88556 0.75194 0.1152 0.0
C1769 C 0.89947 0.72283 0.10795 0.0
C1770 C 0.90133 0.74983 0.12014 0.0
C1771 C 0.85263 0.75371 0.10837 0.0
C1772 C 0.86083 0.73998 0.10328 0.0
C1773 C 0.86126 0.76693 0.11597 0.0
C1774 C 0.87768 0.76603 0.11944 0.0
Tb1775 Tb 0.86915 0.70755 0.0858 0.0
N1776 N 0.85281 0.72708 0.09563 0.0
C1777 C 0.83592 0.75359 0.10597 0.0
C1778 C 0.83625 0.72635 0.09455 0.0
C1779 C 0.82767 0.73974 0.09934 0.0
H1780 H 0.90472 0.71134 0.10557 0.0
H1781 H 0.8147 0.73944 0.09779 0.0
H1782 H 0.85855 0.68366 1.02006 0.0
H1783 H 0.95098 0.71846 0.03097 0.0
H1784 H 0.82978 0.71586 0.08915 0.0
H1785 H 0.82922 0.76395 0.10962 0.0
H1786 H 0.92432 0.72399 0.04275 0.0
H1787 H 0.91994 0.73296 0.12143 0.0
H1788 H 0.85523 0.7777 0.11971 0.0
H1789 H 0.88401 0.77608 0.12589 0.0
H1790 H 0.85828 0.66356 0.99786 0.0
H1791 H 0.90811 0.75928 0.12701 0.0
H1792 H 0.95319 0.69713 1.00959 0.0
N1793 N 0.88352 0.69105 1.01729 0.0
C1794 C 0.89789 0.68713 1.01035 0.0
C1795 C 0.86942 0.67057 1.00075 0.0
C1796 C 0.89842 0.6753 0.99771 0.0
C1797 C 0.86949 0.68245 1.01311 0.0
C1798 C 0.88389 0.66721 0.99276 0.0
N1799 N 0.91138 0.70529 0.02894 0.0
C1800 C 0.92503 0.71447 0.03359 0.0
C1801 C 0.9273 0.69101 1.00915 0.0
C1802 C 0.91221 0.69451 1.01632 0.0
C1803 C 0.9414 0.69947 1.01477 0.0
C1804 C 0.94022 0.71147 0.02686 0.0
H1805 H 0.8838 0.65788 0.98326 0.0
H1806 H 0.91404 0.66241 0.98114 0.0
H1807 H 0.93928 0.67642 0.99094 0.0
O1808 O 0.89501 0.73283 0.04187 0.0
O1809 O 0.87895 0.68265 0.04599 0.0
O1810 O 0.87978 0.68357 0.07465 0.0
O1811 O 0.88209 0.72396 1.01957 0.0
O1812 O 0.904 0.70512 0.05676 0.0
O1813 O 0.89155 0.71971 0.07583 0.0
O1814 O 0.87249 0.7033 0.11059 0.0
O1815 O 0.8593 0.72858 0.07223 0.0
O1816 O 0.86629 0.72701 0.04444 0.0
O1817 O 0.85595 0.68796 0.09674 0.0
O1818 O 0.84744 0.6998 0.07273 0.0
O1819 O 0.86657 0.70302 0.05565 0.0
C1820 C 0.87963 0.67492 0.06016 0.0
C1821 C 0.89838 0.74951 1.01824 0.0
C1822 C 0.9222 0.76799 1.01192 0.0
C1823 C 0.91251 0.77626 1.00149 0.0
C1824 C 0.88921 0.75811 1.00777 0.0
C1825 C 0.89621 0.77142 0.99955 0.0
C1826 C 0.91489 0.75463 1.02049 0.0
C1827 C 0.90447 0.7128 0.07068 0.0
C1828 C 0.8896 0.73639 0.02751 0.0
C1829 C 0.91342 0.6715 0.99081 0.0
C1830 C 0.92781 0.67939 0.99647 0.0
C1831 C 0.8587 0.73419 0.05715 0.0
C1832 C 0.84696 0.69699 0.12266 0.0
C1833 C 0.81812 0.70045 0.12716 0.0
C1834 C 0.82135 0.70781 0.14233 0.0
C1835 C 0.85016 0.70466 0.13777 0.0
C1836 C 0.83091 0.69478 0.11768 0.0
C1837 C 0.83738 0.70996 0.14757 0.0
C1838 C 0.85098 0.69968 0.05758 0.0
C1839 C 0.86018 0.69284 0.11126 0.0
H1840 H 0.9176 0.78621 0.99428 0.0
H1841 H 0.87647 0.75465 1.00611 0.0
H1842 H 0.88898 0.7779 0.99146 0.0
H1843 H 0.92198 0.74835 0.02883 0.0
H1844 H 0.81155 0.71169 0.15011 0.0
H1845 H 0.86249 0.70672 0.14189 0.0
H1846 H 0.82822 0.68854 0.10622 0.0
H1847 H 0.83992 0.71574 0.15924 0.0
Tb1848 Tb 0.43894 0.85772 0.08878 0.0
C1849 C 0.45897 0.88417 1.01738 0.0
N1850 N 0.45531 0.89003 0.03243 0.0
C1851 C 0.47487 0.91263 0.02863 0.0
C1852 C 0.47134 0.89181 1.00766 0.0
C1853 C 0.46245 0.90462 0.03777 0.0
C1854 C 0.47955 0.90603 1.01363 0.0
C1855 C 0.45209 0.8651 0.99547 0.0
C1856 C 0.44942 0.8712 1.01134 0.0
C1857 C 0.46501 0.87199 0.98601 0.0
C1858 C 0.47459 0.88538 0.99209 0.0
Tb1859 Tb 0.43464 0.87609 0.04646 0.0
N1860 N 0.43683 0.86521 1.02073 0.0
C1861 C 0.4414 0.85261 0.98944 0.0
C1862 C 0.42587 0.85361 1.01459 0.0
C1863 C 0.42812 0.84698 0.99899 0.0
H1864 H 0.45883 0.91 0.04921 0.0
H1865 H 0.41956 0.83761 0.9943 0.0
H1866 H 0.39951 0.85878 0.09875 0.0
H1867 H 0.49295 0.88256 0.1199 0.0
H1868 H 0.41542 0.84936 1.02178 0.0
H1869 H 0.44304 0.84756 0.97732 0.0
H1870 H 0.47836 0.86589 0.09953 0.0
H1871 H 0.48076 0.92393 0.03312 0.0
H1872 H 0.46736 0.8674 0.97382 0.0
H1873 H 0.48416 0.89094 0.98448 0.0
H1874 H 0.38319 0.86841 0.12164 0.0
H1875 H 0.4891 0.91231 1.00653 0.0
H1876 H 0.47798 0.896 0.14208 0.0
N1877 N 0.42217 0.86813 0.10834 0.0
C1878 C 0.42965 0.87586 0.12115 0.0
C1879 C 0.39625 0.87064 0.12164 0.0
C1880 C 0.4206 0.88175 0.13452 0.0
C1881 C 0.40566 0.86518 0.10859 0.0
C1882 C 0.40373 0.87899 0.13465 0.0
N1883 N 0.45474 0.87163 0.10802 0.0
C1884 C 0.47135 0.87254 0.10816 0.0
C1885 C 0.45445 0.88715 0.13332 0.0
C1886 C 0.44638 0.87831 0.12064 0.0
C1887 C 0.47135 0.88917 0.13267 0.0
C1888 C 0.47983 0.88167 0.12014 0.0
H1889 H 0.39638 0.88332 0.14468 0.0
H1890 H 0.42185 0.8953 0.15736 0.0
H1891 H 0.45149 0.90022 0.15622 0.0
O1892 O 0.44616 0.84383 0.10799 0.0
O1893 O 0.42723 0.88084 0.08679 0.0
O1894 O 0.44281 0.89255 0.06738 0.0
O1895 O 0.42811 0.83415 0.09142 0.0
O1896 O 0.46442 0.86345 0.0761 0.0
O1897 O 0.46218 0.87497 0.05082 0.0
O1898 O 0.41723 0.89318 0.05217 0.0
O1899 O 0.4334 0.84981 0.04668 0.0
O1900 O 0.45011 0.84682 0.06764 0.0
O1901 O 0.42342 0.88752 0.02746 0.0
O1902 O 0.41305 0.85605 0.05255 0.0
O1903 O 0.41554 0.84679 0.07868 0.0
C1904 C 0.43533 0.89396 0.08157 0.0
C1905 C 0.448 0.81745 0.09788 0.0
C1906 C 0.4744 0.81038 0.08832 0.0
C1907 C 0.4699 0.79388 0.09076 0.0
C1908 C 0.4433 0.8011 0.10049 0.0
C1909 C 0.45415 0.78924 0.09639 0.0
C1910 C 0.46281 0.82161 0.09035 0.0
C1911 C 0.47172 0.87001 0.06254 0.0
C1912 C 0.43808 0.83076 0.10251 0.0
C1913 C 0.42861 0.89054 0.14711 0.0
C1914 C 0.44547 0.89339 0.14642 0.0
C1915 C 0.44308 0.84113 0.05449 0.0
C1916 C 0.41927 0.91526 0.03318 0.0
C1917 C 0.41913 0.93849 1.01446 0.0
C1918 C 0.42661 0.94842 0.02665 0.0
C1919 C 0.42653 0.92591 0.04485 0.0
C1920 C 0.41569 0.92165 1.01776 0.0
C1921 C 0.43024 0.94221 0.04157 0.0
C1922 C 0.40737 0.84619 0.06497 0.0
C1923 C 0.41624 0.89754 0.03706 0.0
H1924 H 0.47872 0.78482 0.08937 0.0
H1925 H 0.4315 0.7976 0.10575 0.0
H1926 H 0.4507 0.77657 0.09848 0.0
H1927 H 0.4662 0.83421 0.08787 0.0
H1928 H 0.42987 0.96114 1.0246 0.0
H1929 H 0.42957 0.92161 0.05658 0.0
H1930 H 0.41014 0.91365 1.00854 0.0
H1931 H 0.43603 0.95014 0.05069 0.0
Tb1932 Tb 0.68826 0.24262 0.05956 0.0
C1933 C 0.69805 0.24203 0.98634 0.0
N1934 N 0.70408 0.25198 0.99848 0.0
C1935 C 0.73057 0.25245 0.98579 0.0
C1936 C 0.70827 0.23649 0.9737 0.0
C1937 C 0.72007 0.25755 0.99809 0.0
C1938 C 0.72467 0.24183 0.97357 0.0
C1939 C 0.67535 0.2258 0.97489 0.0
C1940 C 0.68169 0.23694 0.98684 0.0
C1941 C 0.6855 0.22023 0.96239 0.0
C1942 C 0.70188 0.22567 0.96172 0.0
Tb1943 Tb 0.68533 0.26126 1.01669 0.0
N1944 N 0.6721 0.24269 0.99908 0.0
C1945 C 0.65898 0.2205 0.97582 0.0
C1946 C 0.65585 0.23795 0.99945 0.0
C1947 C 0.64921 0.22666 0.98811 0.0
H1948 H 0.72497 0.26609 1.00704 0.0
H1949 H 0.63641 0.2229 0.98871 0.0
H1950 H 0.66308 0.2097 0.05533 0.0
H1951 H 0.70405 0.27816 0.11334 0.0
H1952 H 0.6475 0.24282 1.00802 0.0
H1953 H 0.65373 0.21185 0.96699 0.0
H1954 H 0.70785 0.26766 0.08527 0.0
H1955 H 0.74321 0.25683 0.98567 0.0
H1956 H 0.68079 0.2117 0.95316 0.0
H1957 H 0.70956 0.22126 0.95198 0.0
H1958 H 0.64056 0.19582 0.07075 0.0
H1959 H 0.73287 0.23788 0.96406 0.0
H1960 H 0.67978 0.26882 0.12951 0.0
N1961 N 0.66657 0.22928 0.07255 0.0
C1962 C 0.66263 0.23502 0.08759 0.0
C1963 C 0.64655 0.20695 0.07556 0.0
C1964 C 0.65004 0.2273 0.09699 0.0
C1965 C 0.6593 0.21488 0.06683 0.0
C1966 C 0.64171 0.21332 0.0906 0.0
N1967 N 0.68541 0.25342 0.0852 0.0
C1968 C 0.697 0.26385 0.0921 0.0
C1969 C 0.66987 0.25302 0.11029 0.0
C1970 C 0.67237 0.24767 0.09412 0.0
C1971 C 0.6812 0.26446 0.11709 0.0
C1972 C 0.69494 0.26973 0.10802 0.0
H1973 H 0.63198 0.20702 0.09744 0.0
H1974 H 0.63708 0.2276 0.12012 0.0
H1975 H 0.65448 0.25015 0.1318 0.0
O1976 O 0.698 0.23045 0.07908 0.0
O1977 O 0.68992 0.26902 0.06002 0.0
O1978 O 0.67463 0.2724 0.038 0.0
O1979 O 0.70538 0.22488 0.05485 0.0
O1980 O 0.71047 0.26197 0.05346 0.0
O1981 O 0.70784 0.27337 0.02805 0.0
O1982 O 0.67619 0.27165 0.99617 0.0
O1983 O 0.69838 0.23934 1.02045 0.0
O1984 O 0.68106 0.2271 0.03792 0.0
O1985 O 0.69371 0.28509 1.01087 0.0
O1986 O 0.65958 0.25648 0.02867 0.0
O1987 O 0.66108 0.24411 0.0537 0.0
C1988 C 0.68254 0.27847 0.05052 0.0
C1989 C 0.70188 0.20249 0.07356 0.0
C1990 C 0.70167 0.17841 0.09158 0.0
C1991 C 0.69277 0.16948 0.07955 0.0
C1992 C 0.69345 0.19259 0.06203 0.0
C1993 C 0.68888 0.1764 0.06507 0.0
C1994 C 0.70598 0.19527 0.08851 0.0
C1995 C 0.71615 0.27265 0.04165 0.0
C1996 C 0.70549 0.22031 0.06994 0.0
C1997 C 0.64679 0.23326 0.11275 0.0
C1998 C 0.6567 0.2461 0.1194 0.0
C1999 C 0.69003 0.22601 1.02465 0.0
C2000 C 0.67292 0.29918 1.00083 0.0
C2001 C 0.64648 0.30811 1.00889 0.0
C2002 C 0.65171 0.32402 1.00446 0.0
C2003 C 0.67813 0.315 0.99652 0.0
C2004 C 0.65754 0.29609 1.00774 0.0
C2005 C 0.66757 0.32745 0.99861 0.0
C2006 C 0.65196 0.24945 0.04181 0.0
C2007 C 0.68352 0.2858 0.99925 0.0
H2008 H 0.68847 0.15696 0.08135 0.0
H2009 H 0.69006 0.19743 0.05063 0.0
H2010 H 0.68208 0.16913 0.0561 0.0
H2011 H 0.71253 0.20267 0.09755 0.0
H2012 H 0.6435 0.33367 1.00492 0.0
H2013 H 0.69026 0.31769 0.99166 0.0
H2014 H 0.6542 0.28409 1.01225 0.0
H2015 H 0.67154 0.3397 0.99525 0.0
Tb2016 Tb 0.58743 0.74346 0.92144 0.0
C2017 C 0.51735 0.73207 0.91668 0.0
N2018 N 0.5293 0.74206 0.91002 0.0
C2019 C 0.52018 0.73412 0.88332 0.0
C2020 C 0.5068 0.72211 0.90686 0.0
C2021 C 0.53038 0.74373 0.89353 0.0
C2022 C 0.50841 0.72317 0.89 0.0
C2023 C 0.50453 0.72049 0.94079 0.0
C2024 C 0.51611 0.73147 0.93343 0.0
C2025 C 0.49416 0.71035 0.93107 0.0
C2026 C 0.49516 0.71132 0.91416 0.0
Tb2027 Tb 0.54414 0.75842 0.92799 0.0
N2028 N 0.52628 0.74156 0.94246 0.0
C2029 C 0.50362 0.72014 0.9577 0.0
C2030 C 0.52474 0.74187 0.95899 0.0
C2031 C 0.51366 0.73098 0.96683 0.0
H2032 H 0.5393 0.75225 0.8882 0.0
H2033 H 0.51268 0.73114 0.97993 0.0
H2034 H 0.58844 0.71147 0.9446 0.0
H2035 H 0.63595 0.78454 0.8988 0.0
H2036 H 0.53166 0.75072 0.96629 0.0
H2037 H 0.49496 0.71181 0.96383 0.0
H2038 H 0.60831 0.77159 0.89998 0.0
H2039 H 0.52137 0.7352 0.8703 0.0
H2040 H 0.48521 0.70183 0.93652 0.0
H2041 H 0.48693 0.70361 0.90682 0.0
H2042 H 0.60778 0.6994 0.9621 0.0
H2043 H 0.50059 0.71568 0.88205 0.0
H2044 H 0.6568 0.77591 0.91713 0.0
N2045 N 0.60466 0.7316 0.93818 0.0
C2046 C 0.62003 0.73833 0.93908 0.0
C2047 C 0.61136 0.71045 0.9558 0.0
C2048 C 0.63168 0.73158 0.94858 0.0
C2049 C 0.60036 0.71745 0.94594 0.0
C2050 C 0.62706 0.71764 0.95727 0.0
N2051 N 0.61283 0.75656 0.91976 0.0
C2052 C 0.61704 0.768 0.90845 0.0
C2053 C 0.64044 0.75803 0.92885 0.0
C2054 C 0.62429 0.75134 0.92947 0.0
C2055 C 0.64454 0.77042 0.91797 0.0
C2056 C 0.63281 0.7753 0.9076 0.0
H2057 H 0.63564 0.71206 0.96472 0.0
H2058 H 0.65682 0.73355 0.95574 0.0
H2059 H 0.66455 0.75654 0.93813 0.0
O2060 O 0.5783 0.72839 0.90211 0.0
O2061 O 0.58628 0.76968 0.92288 0.0
O2062 O 0.5635 0.77424 0.93855 0.0
O2063 O 0.6036 0.72954 0.90788 0.0
O2064 O 0.5804 0.76001 0.9008 0.0
O2065 O 0.55565 0.77087 0.90666 0.0
O2066 O 0.5244 0.77059 0.93769 0.0
O2067 O 0.5509 0.7361 0.91623 0.0
O2068 O 0.56849 0.72685 0.93251 0.0
O2069 O 0.5341 0.77569 0.91392 0.0
O2070 O 0.55665 0.75625 0.95298 0.0
O2071 O 0.58174 0.74485 0.94885 0.0
C2072 C 0.5771 0.77939 0.9313 0.0
C2073 C 0.59249 0.70433 0.8977 0.0
C2074 C 0.60557 0.68014 0.88756 0.0
C2075 C 0.5935 0.67038 0.8957 0.0
C2076 C 0.58125 0.69423 0.90632 0.0
C2077 C 0.58146 0.67741 0.90499 0.0
C2078 C 0.6047 0.6972 0.8883 0.0
C2079 C 0.56858 0.76971 0.89704 0.0
C2080 C 0.59224 0.72225 0.89919 0.0
C2081 C 0.64767 0.73853 0.94853 0.0
C2082 C 0.65206 0.75168 0.93858 0.0
C2083 C 0.55457 0.72457 0.92556 0.0
C2084 C 0.52367 0.79704 0.92815 0.0
C2085 C 0.53273 0.8185 0.94678 0.0
C2086 C 0.52029 0.8279 0.94138 0.0
C2087 C 0.51089 0.80586 0.9233 0.0
C2088 C 0.53586 0.80457 0.93755 0.0
C2089 C 0.50983 0.82177 0.92921 0.0
C2090 C 0.57019 0.75028 0.95909 0.0
C2091 C 0.52372 0.77963 0.92502 0.0
H2092 H 0.59387 0.65729 0.89573 0.0
H2093 H 0.57257 0.69931 0.91441 0.0
H2094 H 0.57262 0.66979 0.91169 0.0
H2095 H 0.61377 0.70495 0.88203 0.0
H2096 H 0.51764 0.8393 0.94719 0.0
H2097 H 0.50167 0.80039 0.91536 0.0
H2098 H 0.54641 0.79805 0.93964 0.0
H2099 H 0.50004 0.82877 0.92547 0.0
Tb2100 Tb 0.3772 0.55121 0.95084 0.0
C2101 C 0.36832 0.47867 0.93647 0.0
N2102 N 0.35951 0.49085 0.93164 0.0
C2103 C 0.36048 0.48012 0.90426 0.0
C2104 C 0.37429 0.4672 0.92525 0.0
C2105 C 0.35481 0.49113 0.91586 0.0
C2106 C 0.37051 0.46826 0.90892 0.0
C2107 C 0.37986 0.46486 0.95841 0.0
C2108 C 0.37094 0.4775 0.95276 0.0
C2109 C 0.38659 0.45393 0.94727 0.0
C2110 C 0.38372 0.45503 0.93071 0.0
Tb2111 Tb 0.35196 0.5094 0.95122 0.0
N2112 N 0.364 0.48819 0.96312 0.0
C2113 C 0.38132 0.46327 0.97509 0.0
C2114 C 0.36427 0.48559 0.9794 0.0
C2115 C 0.37319 0.47349 0.98563 0.0
H2116 H 0.3465 0.49961 0.91203 0.0
H2117 H 0.37359 0.47193 0.9986 0.0
H2118 H 0.4093 0.54728 0.97313 0.0
H2119 H 0.34462 0.60458 0.94158 0.0
H2120 H 0.35753 0.49258 0.98781 0.0
H2121 H 0.3881 0.45378 0.97992 0.0
H2122 H 0.35514 0.57808 0.93405 0.0
H2123 H 0.35697 0.4807 0.89175 0.0
H2124 H 0.39364 0.44431 0.95137 0.0
H2125 H 0.38864 0.4463 0.92225 0.0
H2126 H 0.42214 0.56097 0.99714 0.0
H2127 H 0.37489 0.45974 0.89992 0.0
H2128 H 0.3521 0.61821 0.96771 0.0
N2129 N 0.39038 0.56342 0.97251 0.0
C2130 C 0.38462 0.5774 0.97845 0.0
C2131 C 0.41148 0.56563 0.99209 0.0
C2132 C 0.39156 0.58572 0.99198 0.0
C2133 C 0.40423 0.55793 0.97851 0.0
C2134 C 0.40493 0.57942 0.99906 0.0
N2135 N 0.36775 0.5763 0.95605 0.0
C2136 C 0.35835 0.58381 0.94555 0.0
C2137 C 0.36725 0.5993 0.97465 0.0
C2138 C 0.37271 0.58405 0.96993 0.0
C2139 C 0.35661 0.6065 0.96453 0.0
C2140 C 0.35241 0.59887 0.94975 0.0
H2141 H 0.41065 0.58545 1.00948 0.0
H2142 H 0.39042 0.6069 1.00799 0.0
H2143 H 0.36904 0.6188 0.99278 0.0
O2144 O 0.39376 0.54668 0.93161 0.0
O2145 O 0.35109 0.55068 0.95 0.0
O2146 O 0.34468 0.52958 0.96619 0.0
O2147 O 0.39274 0.57062 0.94211 0.0
O2148 O 0.35923 0.54836 0.92905 0.0
O2149 O 0.34611 0.5225 0.92865 0.0
O2150 O 0.33419 0.49086 0.95697 0.0
O2151 O 0.3749 0.51313 0.93736 0.0
O2152 O 0.38949 0.52849 0.95513 0.0
O2153 O 0.32819 0.51128 0.94332 0.0
O2154 O 0.35981 0.51792 0.97736 0.0
O2155 O 0.37458 0.54304 0.97743 0.0
C2156 C 0.34182 0.54387 0.96115 0.0
C2157 C 0.4188 0.56317 0.93356 0.0
C2158 C 0.44502 0.57938 0.93065 0.0
C2159 C 0.45278 0.56605 0.93633 0.0
C2160 C 0.42715 0.55025 0.93916 0.0
C2161 C 0.44394 0.55172 0.94052 0.0
C2162 C 0.42784 0.57786 0.92943 0.0
C2163 C 0.34887 0.53689 0.92185 0.0
C2164 C 0.40075 0.56138 0.93236 0.0
C2165 C 0.38541 0.6004 0.99747 0.0
C2166 C 0.37324 0.60718 0.98881 0.0
C2167 C 0.38845 0.51572 0.94523 0.0
C2168 C 0.30859 0.50091 0.96181 0.0
C2169 C 0.30157 0.50251 0.99035 0.0
C2170 C 0.28573 0.49603 0.98683 0.0
C2171 C 0.29312 0.49397 0.9583 0.0
C2172 C 0.31146 0.5077 0.97721 0.0
C2173 C 0.28136 0.49249 0.97074 0.0
C2174 C 0.36815 0.53016 0.98567 0.0
C2175 C 0.32252 0.49848 0.95088 0.0
H2176 H 0.46579 0.56677 0.93782 0.0
H2177 H 0.42069 0.53897 0.9426 0.0
H2178 H 0.45018 0.54167 0.94495 0.0
H2179 H 0.42154 0.58795 0.92515 0.0
H2180 H 0.27717 0.49226 0.99633 0.0
H2181 H 0.29039 0.48914 0.94627 0.0
H2182 H 0.32294 0.5142 0.97937 0.0
H2183 H 0.26939 0.48703 0.96814 0.0
Tb2184 Tb 0.50023 0.35329 0.92093 0.0
C2185 C 0.5725 0.38441 0.94026 0.0
N2186 N 0.55802 0.38996 0.93673 0.0
C2187 C 0.56285 0.4123 0.95564 0.0
C2188 C 0.58259 0.39224 0.95201 0.0
C2189 C 0.55335 0.40413 0.94376 0.0
C2190 C 0.57742 0.40618 0.96 0.0
C2191 C 0.59327 0.36623 0.93306 0.0
C2192 C 0.5777 0.37172 0.93098 0.0
C2193 C 0.60308 0.37324 0.94541 0.0
C2194 C 0.59775 0.38627 0.95489 0.0
Tb2195 Tb 0.5424 0.37512 0.9183 0.0
N2196 N 0.568 0.36576 0.91892 0.0
C2197 C 0.59873 0.35439 0.92223 0.0
C2198 C 0.57379 0.35501 0.90765 0.0
C2199 C 0.58903 0.34895 0.9093 0.0
H2200 H 0.54222 0.4091 0.94039 0.0
H2201 H 0.59332 0.34017 0.90053 0.0
H2202 H 0.50005 0.35874 0.88098 0.0
H2203 H 0.46326 0.3766 0.97023 0.0
H2204 H 0.56666 0.35082 0.89744 0.0
H2205 H 0.61059 0.3498 0.9234 0.0
H2206 H 0.48521 0.36132 0.95841 0.0
H2207 H 0.55894 0.42334 0.9614 0.0
H2208 H 0.61501 0.36907 0.94734 0.0
H2209 H 0.60564 0.39198 0.96399 0.0
H2210 H 0.48237 0.37057 0.86156 0.0
H2211 H 0.58482 0.41258 0.96911 0.0
H2212 H 0.4446 0.38964 0.95249 0.0
N2213 N 0.48621 0.36575 0.9018 0.0
C2214 C 0.47255 0.37256 0.90736 0.0
C2215 C 0.47952 0.37129 0.87442 0.0
C2216 C 0.46222 0.37968 0.89665 0.0
C2217 C 0.48955 0.36459 0.8855 0.0
C2218 C 0.46584 0.3789 0.88001 0.0
N2219 N 0.48002 0.36654 0.93394 0.0
C2220 C 0.47767 0.3674 0.95039 0.0
C2221 C 0.45659 0.38188 0.93032 0.0
C2222 C 0.46966 0.37343 0.92399 0.0
C2223 C 0.45443 0.38315 0.94715 0.0
C2224 C 0.46499 0.37586 0.9572 0.0
H2225 H 0.45821 0.38424 0.87139 0.0
H2226 H 0.44096 0.3934 0.89489 0.0
H2227 H 0.43615 0.39553 0.92437 0.0
O2228 O 0.48086 0.33807 0.93006 0.0
O2229 O 0.50447 0.37818 0.91227 0.0
O2230 O 0.52233 0.38872 0.92969 0.0
O2231 O 0.49203 0.33304 0.90687 0.0
O2232 O 0.51092 0.35761 0.94697 0.0
O2233 O 0.53532 0.37378 0.94527 0.0
O2234 O 0.5335 0.38845 0.89931 0.0
O2235 O 0.54243 0.34904 0.91895 0.0
O2236 O 0.519 0.34218 0.93328 0.0
O2237 O 0.55872 0.39119 0.90576 0.0
O2238 O 0.53866 0.3557 0.89724 0.0
O2239 O 0.51343 0.34182 0.89968 0.0
C2240 C 0.50846 0.38989 0.92262 0.0
C2241 C 0.48374 0.31054 0.92196 0.0
C2242 C 0.48809 0.29018 0.94183 0.0
C2243 C 0.48649 0.27794 0.92976 0.0
C2244 C 0.48242 0.29828 0.90984 0.0
C2245 C 0.48396 0.28206 0.91372 0.0
C2246 C 0.48705 0.30643 0.93774 0.0
C2247 C 0.52358 0.36614 0.95439 0.0
C2248 C 0.48201 0.32757 0.91805 0.0
C2249 C 0.44897 0.38776 0.90291 0.0
C2250 C 0.44624 0.38897 0.91971 0.0
C2251 C 0.53343 0.33909 0.92788 0.0
C2252 C 0.54751 0.41471 0.8969 0.0
C2253 C 0.56082 0.4409 0.8889 0.0
C2254 C 0.549 0.44884 0.89804 0.0
C2255 C 0.53602 0.42305 0.90596 0.0
C2256 C 0.5599 0.42373 0.88835 0.0
C2257 C 0.53671 0.43996 0.90643 0.0
C2258 C 0.52763 0.34396 0.89178 0.0
C2259 C 0.54742 0.39676 0.89717 0.0
H2260 H 0.48671 0.26529 0.93283 0.0
H2261 H 0.4801 0.30125 0.89743 0.0
H2262 H 0.48272 0.27264 0.90438 0.0
H2263 H 0.4878 0.31585 0.94717 0.0
H2264 H 0.54949 0.46196 0.89914 0.0
H2265 H 0.52668 0.41655 0.91293 0.0
H2266 H 0.5689 0.41735 0.88145 0.0
H2267 H 0.52784 0.44622 0.9136 0.0
Tb2268 Tb 0.7633 0.56951 0.90996 0.0
C2269 C 0.75685 0.63742 0.89534 0.0
N2270 N 0.76668 0.62599 0.88956 0.0
C2271 C 0.76015 0.63199 0.86225 0.0
C2272 C 0.74752 0.64595 0.8848 0.0
C2273 C 0.76905 0.62374 0.8732 0.0
C2274 C 0.74925 0.64305 0.86808 0.0
C2275 C 0.74647 0.65259 0.91834 0.0
C2276 C 0.75654 0.64082 0.91184 0.0
C2277 C 0.73646 0.66052 0.90802 0.0
C2278 C 0.73714 0.65735 0.89127 0.0
Tb2279 Tb 0.78198 0.61434 0.9083 0.0
N2280 N 0.76677 0.63326 0.92135 0.0
C2281 C 0.7472 0.6565 0.9349 0.0
C2282 C 0.76856 0.6382 0.93722 0.0
C2283 C 0.75852 0.64949 0.94431 0.0
H2284 H 0.77763 0.61534 0.86865 0.0
H2285 H 0.75976 0.65303 0.95696 0.0
H2286 H 0.73275 0.57211 0.93653 0.0
H2287 H 0.79884 0.51925 0.89274 0.0
H2288 H 0.77796 0.63379 0.94444 0.0
H2289 H 0.73962 0.66543 0.94038 0.0
H2290 H 0.78837 0.54615 0.88993 0.0
H2291 H 0.7618 0.62992 0.84934 0.0
H2292 H 0.72858 0.66952 0.91282 0.0
H2293 H 0.7298 0.664 0.88342 0.0
H2294 H 0.71989 0.55581 0.95844 0.0
H2295 H 0.74252 0.64956 0.85954 0.0
H2296 H 0.78976 0.50218 0.91585 0.0
N2297 N 0.75093 0.55561 0.93106 0.0
C2298 C 0.7566 0.54107 0.93427 0.0
C2299 C 0.73026 0.55154 0.95179 0.0
C2300 C 0.74949 0.53122 0.94658 0.0
C2301 C 0.73755 0.56071 0.93928 0.0
C2302 C 0.73633 0.53678 0.95556 0.0
N2303 N 0.77411 0.54491 0.91177 0.0
C2304 C 0.78452 0.53907 0.90028 0.0
C2305 C 0.77408 0.51988 0.92615 0.0
C2306 C 0.76867 0.53551 0.92424 0.0
C2307 C 0.78533 0.51415 0.91486 0.0
C2308 C 0.79045 0.52373 0.90178 0.0
H2309 H 0.73052 0.52957 0.96511 0.0
H2310 H 0.75006 0.50818 0.95846 0.0
H2311 H 0.77163 0.49822 0.94054 0.0
O2312 O 0.7464 0.55078 0.902 0.0
O2313 O 0.78969 0.57224 0.91171 0.0
O2314 O 0.79555 0.59836 0.92242 0.0
O2315 O 0.74921 0.57312 0.88938 0.0
O2316 O 0.78075 0.57353 0.8879 0.0
O2317 O 0.79401 0.59935 0.8895 0.0
O2318 O 0.8013 0.62124 0.89254 0.0
O2319 O 0.76076 0.60337 0.8968 0.0
O2320 O 0.74903 0.59008 0.91689 0.0
O2321 O 0.79493 0.63692 0.91236 0.0
O2322 O 0.77699 0.60658 0.93523 0.0
O2323 O 0.7648 0.58005 0.93567 0.0
C2324 C 0.79907 0.58317 0.91968 0.0
C2325 C 0.72251 0.56037 0.89166 0.0
C2326 C 0.69524 0.55146 0.88237 0.0
C2327 C 0.68874 0.56291 0.89314 0.0
C2328 C 0.71536 0.57071 0.90309 0.0
C2329 C 0.69874 0.57236 0.90348 0.0
C2330 C 0.71227 0.55041 0.88147 0.0
C2331 C 0.79185 0.5849 0.8822 0.0
C2332 C 0.74044 0.5595 0.89104 0.0
C2333 C 0.75531 0.51592 0.94903 0.0
C2334 C 0.76759 0.51025 0.93883 0.0
C2335 C 0.74817 0.60123 0.90626 0.0
C2336 C 0.82157 0.63977 0.90186 0.0
C2337 C 0.84017 0.64227 0.92352 0.0
C2338 C 0.84832 0.65587 0.91607 0.0
C2339 C 0.82873 0.65379 0.89476 0.0
C2340 C 0.82958 0.63242 0.91393 0.0
C2341 C 0.84293 0.66117 0.90127 0.0
C2342 C 0.77003 0.59375 0.9436 0.0
C2343 C 0.80445 0.63516 0.89972 0.0
H2344 H 0.67577 0.56393 0.89426 0.0
H2345 H 0.72253 0.57748 0.91189 0.0
H2346 H 0.69355 0.58069 0.91218 0.0
H2347 H 0.71746 0.54172 0.87315 0.0
H2348 H 0.85746 0.66353 0.92227 0.0
H2349 H 0.82295 0.65941 0.88491 0.0
H2350 H 0.82432 0.62101 0.91828 0.0
H2351 H 0.84857 0.67206 0.89597 0.0
Tb2352 Tb 0.57599 0.35358 0.1718 0.0
C2353 C 0.49993 0.38116 0.16588 0.0
N2354 N 0.51596 0.38502 0.16316 0.0
C2355 C 0.50938 0.40274 0.14192 0.0
C2356 C 0.48799 0.38748 0.15639 0.0
C2357 C 0.52072 0.39641 0.15189 0.0
C2358 C 0.49295 0.39807 0.14401 0.0
C2359 C 0.47898 0.36867 0.18334 0.0
C2360 C 0.49549 0.37202 0.17915 0.0
C2361 C 0.46701 0.3743 0.17354 0.0
C2362 C 0.47151 0.38368 0.16006 0.0
Tb2363 Tb 0.53352 0.37509 0.18114 0.0
N2364 N 0.50739 0.36703 0.1884 0.0
C2365 C 0.47504 0.35994 0.19735 0.0
C2366 C 0.50361 0.35862 0.2022 0.0
C2367 C 0.48743 0.35492 0.20684 0.0
H2368 H 0.53334 0.40076 0.15073 0.0
H2369 H 0.48453 0.34826 0.21776 0.0
H2370 H 0.59342 0.33954 0.20326 0.0
H2371 H 0.59359 0.40528 0.13382 0.0
H2372 H 0.51305 0.35489 0.20978 0.0
H2373 H 0.46251 0.35712 0.201 0.0
H2374 H 0.57507 0.3839 0.14441 0.0
H2375 H 0.5133 0.41148 0.13285 0.0
H2376 H 0.45426 0.37175 0.17647 0.0
H2377 H 0.46216 0.38834 0.15286 0.0
H2378 H 0.6186 0.34518 0.21842 0.0
H2379 H 0.48416 0.40323 0.13649 0.0
H2380 H 0.62113 0.40996 0.14468 0.0
N2381 N 0.59933 0.35765 0.18584 0.0
C2382 C 0.61057 0.36898 0.18033 0.0
C2383 C 0.61648 0.35202 0.20776 0.0
C2384 C 0.62529 0.37242 0.18843 0.0
C2385 C 0.60211 0.34902 0.19927 0.0
C2386 C 0.62815 0.36379 0.20233 0.0
N2387 N 0.592 0.37464 0.1604 0.0
C2388 C 0.58713 0.38479 0.14888 0.0
C2389 C 0.61781 0.39037 0.16159 0.0
C2390 C 0.60683 0.37774 0.1671 0.0
C2391 C 0.61312 0.40005 0.14915 0.0
C2392 C 0.59761 0.3974 0.14297 0.0
H2393 H 0.63927 0.36613 0.20894 0.0
H2394 H 0.64796 0.38727 0.18854 0.0
H2395 H 0.64152 0.40281 0.1648 0.0
O2396 O 0.58927 0.33756 0.15732 0.0
O2397 O 0.57731 0.37296 0.19016 0.0
O2398 O 0.55873 0.38519 0.17665 0.0
O2399 O 0.57357 0.32896 0.17697 0.0
O2400 O 0.56282 0.35782 0.14781 0.0
O2401 O 0.53897 0.37191 0.15299 0.0
O2402 O 0.52657 0.38623 0.20352 0.0
O2403 O 0.52652 0.34919 0.17741 0.0
O2404 O 0.55128 0.35434 0.17203 0.0
O2405 O 0.538 0.40033 0.18477 0.0
O2406 O 0.5418 0.35875 0.20199 0.0
O2407 O 0.56627 0.34636 0.19615 0.0
C2408 C 0.56993 0.38614 0.18784 0.0
C2409 C 0.59447 0.31265 0.16952 0.0
C2410 C 0.60116 0.28707 0.15828 0.0
C2411 C 0.61671 0.28925 0.16517 0.0
C2412 C 0.61046 0.31614 0.17444 0.0
C2413 C 0.6212 0.30379 0.17359 0.0
C2414 C 0.58938 0.29677 0.16494 0.0
C2415 C 0.54965 0.36506 0.14237 0.0
C2416 C 0.58362 0.32507 0.16558 0.0
C2417 C 0.63652 0.3845 0.18257 0.0
C2418 C 0.63285 0.39335 0.16907 0.0
C2419 C 0.53964 0.34308 0.17252 0.0
C2420 C 0.51884 0.41339 0.2014 0.0
C2421 C 0.50642 0.43448 0.21793 0.0
C2422 C 0.49699 0.43793 0.20466 0.0
C2423 C 0.50947 0.41758 0.18837 0.0
C2424 C 0.51722 0.42194 0.21641 0.0
C2425 C 0.49854 0.42955 0.19001 0.0
C2426 C 0.5535 0.3487 0.20586 0.0
C2427 C 0.5308 0.40083 0.1989 0.0
H2428 H 0.62609 0.28113 0.16216 0.0
H2429 H 0.61483 0.32828 0.17811 0.0
H2430 H 0.63351 0.30615 0.17764 0.0
H2431 H 0.57677 0.29408 0.1619 0.0
H2432 H 0.48838 0.44725 0.20563 0.0
H2433 H 0.51068 0.4119 0.17671 0.0
H2434 H 0.52446 0.41912 0.2266 0.0
H2435 H 0.49138 0.43248 0.17981 0.0
Tb2436 Tb 0.76485 0.60761 0.16745 0.0
C2437 C 0.73337 0.53647 0.14048 0.0
N2438 N 0.72875 0.55163 0.14404 0.0
C2439 C 0.70908 0.54861 0.12298 0.0
C2440 C 0.72624 0.52685 0.12783 0.0
C2441 C 0.71625 0.55751 0.1359 0.0
C2442 C 0.7142 0.53327 0.11881 0.0
C2443 C 0.74842 0.51393 0.14829 0.0
C2444 C 0.74437 0.53017 0.15041 0.0
C2445 C 0.7418 0.50442 0.13539 0.0
C2446 C 0.73081 0.51091 0.12509 0.0
Tb2447 Tb 0.74054 0.56501 0.16603 0.0
N2448 N 0.75004 0.53959 0.16303 0.0
C2449 C 0.75848 0.50756 0.15956 0.0
C2450 C 0.75952 0.53325 0.17431 0.0
C2451 C 0.76407 0.51729 0.17262 0.0
H2452 H 0.71209 0.5693 0.1391 0.0
H2453 H 0.77164 0.51241 0.18156 0.0
H2454 H 0.76115 0.60698 0.20811 0.0
H2455 H 0.74098 0.64769 0.12412 0.0
H2456 H 0.76344 0.54039 0.18481 0.0
H2457 H 0.76179 0.49511 0.15842 0.0
H2458 H 0.75511 0.62436 0.13247 0.0
H2459 H 0.69948 0.55353 0.11635 0.0
H2460 H 0.74483 0.49194 0.13349 0.0
H2461 H 0.72551 0.50333 0.1154 0.0
H2462 H 0.75029 0.62389 0.22993 0.0
H2463 H 0.70843 0.52628 0.10896 0.0
H2464 H 0.73038 0.66662 0.14463 0.0
N2465 N 0.75365 0.62151 0.18899 0.0
C2466 C 0.74678 0.6354 0.18536 0.0
C2467 C 0.74915 0.62725 0.21744 0.0
C2468 C 0.7404 0.64553 0.19763 0.0
C2469 C 0.75529 0.6176 0.20489 0.0
C2470 C 0.74163 0.64126 0.2138 0.0
N2471 N 0.75155 0.62881 0.15776 0.0
C2472 C 0.75006 0.63192 0.14171 0.0
C2473 C 0.73764 0.65289 0.16489 0.0
C2474 C 0.74548 0.63904 0.16921 0.0
C2475 C 0.73618 0.65604 0.14847 0.0
C2476 C 0.74222 0.6454 0.13686 0.0
H2477 H 0.73682 0.64867 0.22356 0.0
H2478 H 0.72772 0.66727 0.20262 0.0
H2479 H 0.72529 0.67374 0.17392 0.0
O2480 O 0.78149 0.6261 0.15878 0.0
O2481 O 0.74071 0.6022 0.17847 0.0
O2482 O 0.72748 0.58676 0.16003 0.0
O2483 O 0.78524 0.61449 0.1812 0.0
O2484 O 0.75998 0.59933 0.14092 0.0
O2485 O 0.7446 0.57438 0.1399 0.0
O2486 O 0.72585 0.54549 0.17556 0.0
O2487 O 0.76654 0.56562 0.16695 0.0
O2488 O 0.77559 0.58819 0.15318 0.0
O2489 O 0.72224 0.56976 0.18371 0.0
O2490 O 0.75736 0.56912 0.18874 0.0
O2491 O 0.7744 0.59267 0.18653 0.0
C2492 C 0.72809 0.59994 0.16926 0.0
C2493 C 0.80815 0.61942 0.16509 0.0
C2494 C 0.8265 0.60885 0.14452 0.0
C2495 C 0.83885 0.6092 0.15592 0.0
C2496 C 0.82048 0.61944 0.17652 0.0
C2497 C 0.83572 0.61424 0.17196 0.0
C2498 C 0.81117 0.61375 0.14929 0.0
C2499 C 0.75203 0.58724 0.13223 0.0
C2500 C 0.79178 0.62373 0.17009 0.0
C2501 C 0.73275 0.6594 0.19337 0.0
C2502 C 0.73136 0.66307 0.17704 0.0
C2503 C 0.77661 0.57294 0.1568 0.0
C2504 C 0.69881 0.55079 0.18125 0.0
C2505 C 0.67364 0.53274 0.18419 0.0
C2506 C 0.66681 0.54177 0.17211 0.0
C2507 C 0.69108 0.55973 0.1699 0.0
C2508 C 0.69 0.53726 0.18849 0.0
C2509 C 0.67534 0.55512 0.16525 0.0
C2510 C 0.76978 0.57935 0.19446 0.0
C2511 C 0.71648 0.55458 0.18397 0.0
H2512 H 0.85092 0.606 0.15233 0.0
H2513 H 0.81827 0.62335 0.18896 0.0
H2514 H 0.84521 0.61441 0.18079 0.0
H2515 H 0.80172 0.61382 0.14039 0.0
H2516 H 0.65482 0.53841 0.16762 0.0
H2517 H 0.69739 0.57009 0.16424 0.0
H2518 H 0.69588 0.53032 0.19731 0.0
H2519 H 0.66974 0.56185 0.15607 0.0
Tb2520 Tb 0.57854 0.74534 0.18325 0.0
C2521 C 0.6494 0.74265 0.19457 0.0
N2522 N 0.63707 0.75138 0.20037 0.0
C2523 C 0.64286 0.74427 0.22757 0.0
C2524 C 0.65854 0.73383 0.20505 0.0
C2525 C 0.63404 0.75272 0.21671 0.0
C2526 C 0.65509 0.73471 0.22172 0.0
C2527 C 0.66449 0.73242 0.1714 0.0
C2528 C 0.65248 0.74215 0.17797 0.0
C2529 C 0.67341 0.72335 0.18176 0.0
C2530 C 0.67055 0.72418 0.19855 0.0
Tb2531 Tb 0.62467 0.76581 0.18151 0.0
N2532 N 0.6437 0.75118 0.16829 0.0
C2533 C 0.66726 0.73217 0.15462 0.0
C2534 C 0.64694 0.75158 0.15198 0.0
C2535 C 0.65855 0.7419 0.1449 0.0
H2536 H 0.62472 0.7601 0.22148 0.0
H2537 H 0.66092 0.74211 0.13196 0.0
H2538 H 0.57873 0.71419 0.15679 0.0
H2539 H 0.52816 0.77851 0.20562 0.0
H2540 H 0.6409 0.7596 0.14438 0.0
H2541 H 0.67629 0.72475 0.1491 0.0
H2542 H 0.55472 0.76739 0.20694 0.0
H2543 H 0.64022 0.74515 0.24045 0.0
H2544 H 0.68262 0.71574 0.17692 0.0
H2545 H 0.67755 0.71716 0.20639 0.0
H2546 H 0.5614 0.70219 0.13523 0.0
H2547 H 0.66181 0.72808 0.23016 0.0
H2548 H 0.51046 0.77125 0.18244 0.0
N2549 N 0.56318 0.73308 0.16302 0.0
C2550 C 0.54862 0.73908 0.16062 0.0
C2551 C 0.55769 0.71263 0.14221 0.0
C2552 C 0.53804 0.73221 0.14872 0.0
C2553 C 0.56751 0.71954 0.15448 0.0
C2554 C 0.54296 0.71911 0.13917 0.0
N2555 N 0.55375 0.75623 0.18332 0.0
C2556 C 0.54788 0.76512 0.1961 0.0
C2557 C 0.52783 0.75629 0.17045 0.0
C2558 C 0.5437 0.75108 0.17118 0.0
C2559 C 0.52253 0.76693 0.18258 0.0
C2560 C 0.53249 0.77109 0.19565 0.0
H2561 H 0.53522 0.71353 0.12987 0.0
H2562 H 0.51434 0.73296 0.1382 0.0
H2563 H 0.50529 0.75394 0.1574 0.0
O2564 O 0.56173 0.73082 0.197 0.0
O2565 O 0.59524 0.76488 0.18072 0.0
O2566 O 0.6106 0.78194 0.16853 0.0
O2567 O 0.58705 0.73146 0.20204 0.0
O2568 O 0.5823 0.76719 0.20183 0.0
O2569 O 0.61008 0.77594 0.20385 0.0
O2570 O 0.64719 0.77796 0.17586 0.0
O2571 O 0.61609 0.74171 0.19042 0.0
O2572 O 0.59727 0.72864 0.1749 0.0
O2573 O 0.63224 0.78667 0.1953 0.0
O2574 O 0.61392 0.7587 0.15512 0.0
O2575 O 0.58649 0.74756 0.1566 0.0
C2576 C 0.59593 0.7781 0.17256 0.0
C2577 C 0.57136 0.70676 0.20631 0.0
C2578 C 0.56056 0.68237 0.22011 0.0
C2579 C 0.56718 0.67283 0.20758 0.0
C2580 C 0.57772 0.69696 0.19391 0.0
C2581 C 0.57568 0.6801 0.1946 0.0
C2582 C 0.56269 0.69942 0.21936 0.0
C2583 C 0.59445 0.77655 0.20925 0.0
C2584 C 0.5728 0.72459 0.20531 0.0
C2585 C 0.52261 0.73804 0.1473 0.0
C2586 C 0.51746 0.74999 0.15822 0.0
C2587 C 0.6121 0.72936 0.18053 0.0
C2588 C 0.64867 0.80601 0.1811 0.0
C2589 C 0.64772 0.82131 0.15676 0.0
C2590 C 0.66124 0.83134 0.16185 0.0
C2591 C 0.66234 0.81563 0.18614 0.0
C2592 C 0.64011 0.81075 0.16792 0.0
C2593 C 0.66804 0.82893 0.17693 0.0
C2594 C 0.59989 0.75234 0.1477 0.0
C2595 C 0.6455 0.78941 0.18681 0.0
H2596 H 0.56538 0.65971 0.20756 0.0
H2597 H 0.58409 0.70226 0.18357 0.0
H2598 H 0.5805 0.67263 0.18491 0.0
H2599 H 0.55752 0.70695 0.22883 0.0
H2600 H 0.66742 0.83996 0.15378 0.0
H2601 H 0.669 0.81241 0.19659 0.0
H2602 H 0.62919 0.80385 0.16452 0.0
H2603 H 0.67872 0.83629 0.18064 0.0
Tb2604 Tb 0.3511 0.50434 0.20927 0.0
C2605 C 0.36896 0.58659 0.19779 0.0
N2606 N 0.37449 0.57203 0.19339 0.0
C2607 C 0.3863 0.58363 0.16901 0.0
C2608 C 0.37148 0.60018 0.18776 0.0
C2609 C 0.38399 0.57076 0.17965 0.0
C2610 C 0.37978 0.59836 0.17295 0.0
C2611 C 0.35854 0.60377 0.21917 0.0
C2612 C 0.36279 0.58839 0.21326 0.0
C2613 C 0.36006 0.61713 0.20894 0.0
C2614 C 0.36668 0.61536 0.19329 0.0
Tb2615 Tb 0.37195 0.55181 0.21208 0.0
N2616 N 0.36294 0.57556 0.22315 0.0
C2617 C 0.35407 0.60556 0.23551 0.0
C2618 C 0.36029 0.57785 0.23948 0.0
C2619 C 0.35522 0.59258 0.24577 0.0
H2620 H 0.39024 0.55993 0.1769 0.0
H2621 H 0.35274 0.59409 0.25864 0.0
H2622 H 0.35102 0.50857 0.25113 0.0
H2623 H 0.38546 0.46683 0.16867 0.0
H2624 H 0.3624 0.56844 0.24788 0.0
H2625 H 0.35068 0.61714 0.2405 0.0
H2626 H 0.36525 0.48641 0.17586 0.0
H2627 H 0.39355 0.58232 0.15803 0.0
H2628 H 0.35688 0.62902 0.21326 0.0
H2629 H 0.36849 0.62591 0.18575 0.0
H2630 H 0.36551 0.49799 0.27317 0.0
H2631 H 0.382 0.60849 0.16493 0.0
H2632 H 0.40056 0.45456 0.19018 0.0
N2633 N 0.36302 0.49522 0.23225 0.0
C2634 C 0.37381 0.48366 0.22923 0.0
C2635 C 0.368 0.49389 0.26085 0.0
C2636 C 0.38228 0.47708 0.24192 0.0
C2637 C 0.35984 0.50007 0.24798 0.0
C2638 C 0.37929 0.4824 0.25783 0.0
N2639 N 0.36924 0.48598 0.20119 0.0
C2640 C 0.37194 0.48151 0.18538 0.0
C2641 C 0.3886 0.46751 0.20965 0.0
C2642 C 0.37701 0.47894 0.21325 0.0
C2643 C 0.39173 0.46326 0.19343 0.0
C2644 C 0.38329 0.47022 0.18125 0.0
H2645 H 0.38564 0.47773 0.26785 0.0
H2646 H 0.40023 0.46045 0.24797 0.0
H2647 H 0.40576 0.45205 0.21973 0.0
O2648 O 0.33745 0.48604 0.19638 0.0
O2649 O 0.377 0.51296 0.20978 0.0
O2650 O 0.37754 0.5332 0.22876 0.0
O2651 O 0.33631 0.48741 0.22239 0.0
O2652 O 0.3583 0.51351 0.18324 0.0
O2653 O 0.3695 0.54099 0.18537 0.0
O2654 O 0.39093 0.55944 0.22765 0.0
O2655 O 0.35492 0.53372 0.2065 0.0
O2656 O 0.33333 0.52041 0.20027 0.0
O2657 O 0.39575 0.54649 0.20524 0.0
O2658 O 0.35177 0.54666 0.23174 0.0
O2659 O 0.33968 0.51966 0.22956 0.0
C2660 C 0.38372 0.52022 0.22257 0.0
C2661 C 0.31191 0.48097 0.20962 0.0
C2662 C 0.28768 0.48913 0.19674 0.0
C2663 C 0.27804 0.47941 0.20745 0.0
C2664 C 0.30227 0.47138 0.22035 0.0
C2665 C 0.28534 0.47101 0.21956 0.0
C2666 C 0.30444 0.4908 0.19899 0.0
C2667 C 0.36499 0.52732 0.17618 0.0
C2668 C 0.3297 0.48101 0.20946 0.0
C2669 C 0.39366 0.46559 0.23836 0.0
C2670 C 0.39681 0.46082 0.22228 0.0
C2671 C 0.34041 0.53461 0.20141 0.0
C2672 C 0.41692 0.56477 0.2156 0.0
C2673 C 0.43935 0.58174 0.22714 0.0
C2674 C 0.44607 0.58386 0.21152 0.0
C2675 C 0.42391 0.56703 0.20006 0.0
C2676 C 0.42481 0.57211 0.2292 0.0
C2677 C 0.43839 0.57653 0.19808 0.0
C2678 C 0.34097 0.53451 0.23687 0.0
C2679 C 0.40205 0.55404 0.21794 0.0
H2680 H 0.26507 0.47766 0.20588 0.0
H2681 H 0.30781 0.46411 0.22914 0.0
H2682 H 0.27791 0.46347 0.22774 0.0
H2683 H 0.31192 0.49861 0.19121 0.0
H2684 H 0.45731 0.59122 0.20974 0.0
H2685 H 0.41831 0.56135 0.18943 0.0
H2686 H 0.41971 0.57032 0.24129 0.0
H2687 H 0.44372 0.57819 0.18609 0.0
Tb2688 Tb 0.94682 0.56664 0.71874 0.0
C2689 C 0.92983 0.49774 0.72634 0.0
N2690 N 0.92585 0.51191 0.73365 0.0
C2691 C 0.89763 0.50467 0.72902 0.0
C2692 C 0.91788 0.48683 0.71939 0.0
C2693 C 0.90989 0.51522 0.73553 0.0
C2694 C 0.90163 0.49046 0.72083 0.0
C2695 C 0.95086 0.48106 0.71591 0.0
C2696 C 0.94611 0.49487 0.72474 0.0
C2697 C 0.93902 0.47016 0.70894 0.0
C2698 C 0.92257 0.47299 0.71076 0.0
Tb2699 Tb 0.94705 0.52803 0.7442 0.0
N2700 N 0.95728 0.5059 0.7313 0.0
C2701 C 0.96739 0.47871 0.71419 0.0
C2702 C 0.97341 0.5033 0.73012 0.0
C2703 C 0.97869 0.48981 0.72142 0.0
H2704 H 0.90643 0.52599 0.74188 0.0
H2705 H 0.99149 0.48793 0.7204 0.0
H2706 H 0.97233 0.56304 0.68769 0.0
H2707 H 0.92732 0.62129 0.74873 0.0
H2708 H 0.98234 0.51135 0.73604 0.0
H2709 H 0.97155 0.4683 0.70744 0.0
H2710 H 0.92513 0.59247 0.74022 0.0
H2711 H 0.88508 0.50755 0.7303 0.0
H2712 H 0.94247 0.45956 0.70202 0.0
H2713 H 0.91359 0.46456 0.70519 0.0
H2714 H 0.99499 0.57936 0.67474 0.0
H2715 H 0.89211 0.48244 0.71559 0.0
H2716 H 0.95093 0.63913 0.73984 0.0
N2717 N 0.96739 0.5813 0.70544 0.0
C2718 C 0.97078 0.59687 0.71056 0.0
C2719 C 0.98836 0.5844 0.68491 0.0
C2720 C 0.98338 0.60678 0.70337 0.0
C2721 C 0.97553 0.57517 0.6923 0.0
C2722 C 0.99247 0.6002 0.69063 0.0
N2723 N 0.9479 0.59344 0.72746 0.0
C2724 C 0.93576 0.59992 0.73657 0.0
C2725 C 0.96221 0.61989 0.7264 0.0
C2726 C 0.96053 0.60325 0.72198 0.0
C2727 C 0.95022 0.62636 0.73633 0.0
C2728 C 0.93687 0.61634 0.74135 0.0
H2729 H 1.00225 0.60739 0.68475 0.0
H2730 H 0.99565 0.63087 0.70333 0.0
H2731 H 0.97696 0.64243 0.72349 0.0
O2732 O 0.92723 0.55689 0.70466 0.0
O2733 O 0.94591 0.57037 0.74441 0.0
O2734 O 0.9604 0.55019 0.75338 0.0
O2735 O 0.93646 0.5819 0.70258 0.0
O2736 O 0.92458 0.56301 0.73669 0.0
O2737 O 0.92798 0.54281 0.75505 0.0
O2738 O 0.95735 0.51356 0.76145 0.0
O2739 O 0.93718 0.52876 0.71939 0.0
O2740 O 0.95483 0.54462 0.70545 0.0
O2741 O 0.93315 0.52103 0.7647 0.0
O2742 O 0.97324 0.53762 0.73881 0.0
O2743 O 0.97333 0.55951 0.72133 0.0
C2744 C 0.95609 0.56515 0.75429 0.0
C2745 C 0.92293 0.57044 0.67989 0.0
C2746 C 0.91158 0.58369 0.65688 0.0
C2747 C 0.91746 0.57147 0.64654 0.0
C2748 C 0.92875 0.5585 0.66935 0.0
C2749 C 0.92593 0.55901 0.65276 0.0
C2750 C 0.91432 0.58294 0.67363 0.0
C2751 C 0.91943 0.5545 0.74993 0.0
C2752 C 0.92594 0.57062 0.69742 0.0
C2753 C 0.98593 0.62309 0.70858 0.0
C2754 C 0.97531 0.62966 0.72006 0.0
C2755 C 0.94661 0.53053 0.70645 0.0
C2756 C 0.94941 0.52492 0.78707 0.0
C2757 C 0.96678 0.54579 0.80112 0.0
C2758 C 0.95452 0.54756 0.81294 0.0
C2759 C 0.93726 0.52691 0.79899 0.0
C2760 C 0.96414 0.53432 0.78835 0.0
C2761 C 0.93983 0.53815 0.81183 0.0
C2762 C 0.98151 0.54895 0.7298 0.0
C2763 C 0.94551 0.51584 0.77182 0.0
H2764 H 0.91596 0.57179 0.63356 0.0
H2765 H 0.93556 0.54891 0.6739 0.0
H2766 H 0.93053 0.54983 0.64462 0.0
H2767 H 0.90985 0.59215 0.68185 0.0
H2768 H 0.95633 0.55615 0.82299 0.0
H2769 H 0.92557 0.5202 0.79803 0.0
H2770 H 0.9736 0.53276 0.77926 0.0
H2771 H 0.93033 0.53969 0.82087 0.0
Tb2772 Tb 0.53999 0.92789 0.76198 0.0
C2773 C 0.61327 0.9456 0.73075 0.0
N2774 N 0.59811 0.94241 0.72515 0.0
C2775 C 0.60403 0.9609 0.70349 0.0
C2776 C 0.62442 0.95682 0.72317 0.0
C2777 C 0.59353 0.94944 0.71133 0.0
C2778 C 0.6195 0.96476 0.70955 0.0
C2779 C 0.63403 0.93816 0.74868 0.0
C2780 C 0.61793 0.93653 0.74327 0.0
C2781 C 0.64506 0.94987 0.74179 0.0
C2782 C 0.64025 0.95923 0.72904 0.0
Tb2783 Tb 0.58118 0.92436 0.73916 0.0
N2784 N 0.607 0.92507 0.74914 0.0
C2785 C 0.63871 0.92747 0.76028 0.0
C2786 C 0.61184 0.91397 0.75974 0.0
C2787 C 0.62761 0.91516 0.76565 0.0
H2788 H 0.58167 0.9464 0.70644 0.0
H2789 H 0.63123 0.9065 0.77425 0.0
H2790 H 0.53955 0.88658 0.75863 0.0
H2791 H 0.50028 0.96979 0.73718 0.0
H2792 H 0.60359 0.90419 0.76386 0.0
H2793 H 0.65097 0.92826 0.76473 0.0
H2794 H 0.52316 0.96197 0.753 0.0
H2795 H 0.60023 0.96665 0.69272 0.0
H2796 H 0.65745 0.95142 0.74586 0.0
H2797 H 0.64899 0.96788 0.72348 0.0
H2798 H 0.52238 0.86448 0.74691 0.0
H2799 H 0.62768 0.97347 0.70335 0.0
H2800 H 0.48109 0.94863 0.72535 0.0
N2801 N 0.52529 0.90552 0.75098 0.0
C2802 C 0.51134 0.90875 0.74364 0.0
C2803 C 0.51913 0.87688 0.74588 0.0
C2804 C 0.50098 0.89618 0.7368 0.0
C2805 C 0.52897 0.88968 0.75255 0.0
C2806 C 0.50509 0.88013 0.73794 0.0
N2807 N 0.5184 0.93664 0.74858 0.0
C2808 C 0.51554 0.95262 0.74714 0.0
C2809 C 0.49414 0.92875 0.73377 0.0
C2810 C 0.50797 0.92484 0.74215 0.0
C2811 C 0.49147 0.94512 0.73187 0.0
C2812 C 0.50227 0.95709 0.73851 0.0
H2813 H 0.49752 0.87016 0.73273 0.0
H2814 H 0.47889 0.89054 0.72358 0.0
H2815 H 0.47268 0.91905 0.72129 0.0
O2816 O 0.52238 0.9382 0.77716 0.0
O2817 O 0.54329 0.91669 0.73794 0.0
O2818 O 0.56131 0.93335 0.72541 0.0
O2819 O 0.5338 0.91697 0.78414 0.0
O2820 O 0.5501 0.95346 0.75428 0.0
O2821 O 0.57473 0.95131 0.73986 0.0
O2822 O 0.57045 0.90357 0.72726 0.0
O2823 O 0.58132 0.92623 0.765 0.0
O2824 O 0.56092 0.94258 0.77121 0.0
O2825 O 0.59545 0.9117 0.72234 0.0
O2826 O 0.57553 0.90364 0.7575 0.0
O2827 O 0.55299 0.90875 0.77366 0.0
C2828 C 0.54692 0.9259 0.72561 0.0
C2829 C 0.53072 0.93671 0.80436 0.0
C2830 C 0.54407 0.96024 0.81855 0.0
C2831 C 0.54259 0.95177 0.8331 0.0
C2832 C 0.52948 0.92837 0.81895 0.0
C2833 C 0.53553 0.93583 0.83321 0.0
C2834 C 0.53847 0.9523 0.80419 0.0
C2835 C 0.56288 0.96052 0.74585 0.0
C2836 C 0.52522 0.92877 0.78905 0.0
C2837 C 0.48701 0.90003 0.72883 0.0
C2838 C 0.48353 0.91627 0.72745 0.0
C2839 C 0.57554 0.93801 0.7734 0.0
C2840 C 0.58153 0.89715 0.70121 0.0
C2841 C 0.59034 0.88226 0.67698 0.0
C2842 C 0.57788 0.88856 0.66829 0.0
C2843 C 0.56971 0.90389 0.69211 0.0
C2844 C 0.59185 0.88635 0.69358 0.0
C2845 C 0.56767 0.89936 0.67584 0.0
C2846 C 0.56522 0.89966 0.76999 0.0
C2847 C 0.58351 0.90124 0.71858 0.0
H2848 H 0.54649 0.95761 0.84439 0.0
H2849 H 0.52393 0.9161 0.81928 0.0
H2850 H 0.53444 0.92937 0.84446 0.0
H2851 H 0.53922 0.95866 0.79286 0.0
H2852 H 0.5766 0.88585 0.65545 0.0
H2853 H 0.56223 0.91277 0.6975 0.0
H2854 H 0.60135 0.88148 0.70044 0.0
H2855 H 0.55845 0.9046 0.66894 0.0
Tb2856 Tb 0.2038 0.54317 0.74941 0.0
C2857 C 0.22428 0.61282 0.75178 0.0
N2858 N 0.22636 0.59871 0.75936 0.0
C2859 C 0.25528 0.60322 0.75591 0.0
C2860 C 0.23766 0.62245 0.74557 0.0
C2861 C 0.2417 0.59414 0.762 0.0
C2862 C 0.25327 0.61741 0.74763 0.0
C2863 C 0.20594 0.63136 0.74118 0.0
C2864 C 0.2086 0.6172 0.74961 0.0
C2865 C 0.21924 0.64122 0.7354 0.0
C2866 C 0.23505 0.63671 0.73744 0.0
Tb2867 Tb 0.20312 0.58609 0.77031 0.0
N2868 N 0.19599 0.60756 0.75568 0.0
C2869 C 0.18998 0.63524 0.73884 0.0
C2870 C 0.18038 0.61157 0.75381 0.0
C2871 C 0.17717 0.62529 0.74517 0.0
H2872 H 0.2436 0.58334 0.76846 0.0
H2873 H 0.16479 0.62836 0.74366 0.0
H2874 H 0.17655 0.54248 0.72113 0.0
H2875 H 0.23066 0.49267 0.77634 0.0
H2876 H 0.17033 0.60462 0.75937 0.0
H2877 H 0.18744 0.64595 0.73231 0.0
H2878 H 0.22881 0.52083 0.76855 0.0
H2879 H 0.26732 0.5993 0.75771 0.0
H2880 H 0.21743 0.65236 0.72924 0.0
H2881 H 0.24516 0.64431 0.73267 0.0
H2882 H 0.15577 0.52344 0.7088 0.0
H2883 H 0.26384 0.62442 0.74294 0.0
H2884 H 0.20965 0.47151 0.7679 0.0
N2885 N 0.18474 0.52521 0.73726 0.0
C2886 C 0.18369 0.50947 0.74136 0.0
C2887 C 0.16346 0.51932 0.71806 0.0
C2888 C 0.17232 0.49798 0.73439 0.0
C2889 C 0.17523 0.5301 0.72517 0.0
C2890 C 0.16186 0.50319 0.72284 0.0
N2891 N 0.20622 0.51649 0.75668 0.0
C2892 C 0.21913 0.5121 0.76524 0.0
C2893 C 0.19575 0.48838 0.7554 0.0
C2894 C 0.19503 0.50484 0.75157 0.0
C2895 C 0.20854 0.48404 0.76475 0.0
C2896 C 0.2204 0.49595 0.76953 0.0
H2897 H 0.15292 0.49479 0.71718 0.0
H2898 H 0.16363 0.47258 0.73355 0.0
H2899 H 0.18432 0.46409 0.75204 0.0
O2900 O 0.22867 0.5451 0.74187 0.0
O2901 O 0.20045 0.54503 0.77529 0.0
O2902 O 0.18669 0.56751 0.78105 0.0
O2903 O 0.21008 0.54236 0.72463 0.0
O2904 O 0.2237 0.54813 0.76963 0.0
O2905 O 0.22001 0.57198 0.78434 0.0
O2906 O 0.19319 0.60455 0.78478 0.0
O2907 O 0.21537 0.58087 0.74698 0.0
O2908 O 0.19652 0.56423 0.73614 0.0
O2909 O 0.21566 0.59489 0.7908 0.0
O2910 O 0.17717 0.57746 0.76131 0.0
O2911 O 0.17741 0.55068 0.75105 0.0
C2912 C 0.18876 0.5521 0.7828 0.0
C2913 C 0.23295 0.5286 0.71807 0.0
C2914 C 0.25059 0.51771 0.69685 0.0
C2915 C 0.24372 0.50201 0.6999 0.0
C2916 C 0.22616 0.51276 0.72044 0.0
C2917 C 0.23154 0.49959 0.71158 0.0
C2918 C 0.24512 0.53112 0.70591 0.0
C2919 C 0.228 0.55866 0.78216 0.0
C2920 C 0.22547 0.54229 0.72667 0.0
C2921 C 0.17231 0.48163 0.73868 0.0
C2922 C 0.18407 0.47681 0.74919 0.0
C2923 C 0.20652 0.57694 0.73449 0.0
C2924 C 0.19902 0.60151 0.81268 0.0
C2925 C 0.17778 0.59519 0.83286 0.0
C2926 C 0.18911 0.59726 0.84522 0.0
C2927 C 0.21039 0.60329 0.82511 0.0
C2928 C 0.18285 0.59701 0.81664 0.0
C2929 C 0.20546 0.60101 0.84128 0.0
C2930 C 0.1692 0.56395 0.75465 0.0
C2931 C 0.20427 0.60396 0.7957 0.0
H2932 H 0.2474 0.49162 0.69278 0.0
H2933 H 0.21614 0.51057 0.72865 0.0
H2934 H 0.22595 0.48753 0.71348 0.0
H2935 H 0.24996 0.54332 0.70327 0.0
H2936 H 0.18525 0.5964 0.85781 0.0
H2937 H 0.22305 0.60651 0.82231 0.0
H2938 H 0.17394 0.59574 0.80717 0.0
H2939 H 0.21426 0.60258 0.85079 0.0
Tb2940 Tb 0.59453 0.18543 0.75057 0.0
C2941 C 0.5248 0.15967 0.71752 0.0
N2942 N 0.54028 0.16391 0.71286 0.0
C2943 C 0.53788 0.14442 0.69067 0.0
C2944 C 0.51527 0.14744 0.70919 0.0
C2945 C 0.5467 0.15687 0.69918 0.0
C2946 C 0.52215 0.13954 0.69582 0.0
C2947 C 0.50163 0.16593 0.73424 0.0
C2948 C 0.51816 0.16865 0.72979 0.0
C2949 C 0.49219 0.15329 0.72658 0.0
C2950 C 0.49902 0.14402 0.71405 0.0
Tb2951 Tb 0.55446 0.18385 0.72791 0.0
N2952 N 0.52761 0.18106 0.73635 0.0
C2953 C 0.49495 0.17646 0.74568 0.0
C2954 C 0.52079 0.19195 0.74678 0.0
C2955 C 0.50453 0.18968 0.7518 0.0
H2956 H 0.55863 0.16073 0.69467 0.0
H2957 H 0.49936 0.19827 0.76022 0.0
H2958 H 0.5905 0.22531 0.74387 0.0
H2959 H 0.63654 0.14426 0.72396 0.0
H2960 H 0.52774 0.20254 0.75126 0.0
H2961 H 0.4823 0.17485 0.74939 0.0
H2962 H 0.61258 0.15147 0.73995 0.0
H2963 H 0.54317 0.13874 0.68003 0.0
H2964 H 0.4795 0.15094 0.72987 0.0
H2965 H 0.4915 0.13463 0.70786 0.0
H2966 H 0.60687 0.2478 0.73184 0.0
H2967 H 0.51526 0.13008 0.68907 0.0
H2968 H 0.6549 0.16577 0.71185 0.0
N2969 N 0.60744 0.20752 0.73807 0.0
C2970 C 0.62222 0.20483 0.73121 0.0
C2971 C 0.61133 0.23578 0.7316 0.0
C2972 C 0.63182 0.21747 0.72379 0.0
C2973 C 0.60207 0.22287 0.73856 0.0
C2974 C 0.62628 0.2331 0.72423 0.0
N2975 N 0.61665 0.17689 0.73642 0.0
C2976 C 0.62014 0.16101 0.73444 0.0
C2977 C 0.64081 0.18531 0.72099 0.0
C2978 C 0.62673 0.18892 0.72996 0.0
C2979 C 0.6443 0.16905 0.71881 0.0
C2980 C 0.6339 0.15687 0.72554 0.0
H2981 H 0.63328 0.24311 0.71862 0.0
H2982 H 0.65372 0.22352 0.70969 0.0
H2983 H 0.66152 0.19537 0.70711 0.0
O2984 O 0.61289 0.1769 0.76475 0.0
O2985 O 0.59265 0.19297 0.72523 0.0
O2986 O 0.57563 0.17452 0.71394 0.0
O2987 O 0.60217 0.19913 0.7711 0.0
O2988 O 0.58565 0.15851 0.74563 0.0
O2989 O 0.5625 0.15768 0.72963 0.0
O2990 O 0.565 0.20409 0.71538 0.0
O2991 O 0.55225 0.18386 0.75367 0.0
O2992 O 0.57404 0.17079 0.76152 0.0
O2993 O 0.53992 0.19562 0.71207 0.0
O2994 O 0.55635 0.20477 0.74815 0.0
O2995 O 0.58024 0.20497 0.76239 0.0
C2996 C 0.58992 0.18237 0.71341 0.0
C2997 C 0.60773 0.18294 0.79245 0.0
C2998 C 0.59248 0.16403 0.81022 0.0
C2999 C 0.59641 0.17428 0.82361 0.0
C3000 C 0.61139 0.19326 0.80583 0.0
C3001 C 0.60584 0.18885 0.82137 0.0
C3002 C 0.59849 0.16837 0.79479 0.0
C3003 C 0.57394 0.14984 0.73718 0.0
C3004 C 0.61143 0.18823 0.77585 0.0
C3005 C 0.64622 0.21398 0.71549 0.0
C3006 C 0.65065 0.19793 0.71401 0.0
C3007 C 0.55868 0.17378 0.76287 0.0
C3008 C 0.55291 0.20864 0.6898 0.0
C3009 C 0.54075 0.21855 0.66537 0.0
C3010 C 0.55453 0.21428 0.65635 0.0
C3011 C 0.56643 0.2044 0.68046 0.0
C3012 C 0.5401 0.21569 0.68217 0.0
C3013 C 0.56722 0.20726 0.66385 0.0
C3014 C 0.56622 0.21143 0.76 0.0
C3015 C 0.55172 0.20582 0.70743 0.0
H3016 H 0.59206 0.17113 0.83567 0.0
H3017 H 0.61822 0.2048 0.8042 0.0
H3018 H 0.60866 0.19687 0.83166 0.0
H3019 H 0.59582 0.16039 0.78441 0.0
H3020 H 0.55535 0.216 0.64339 0.0
H3021 H 0.57634 0.19886 0.68595 0.0
H3022 H 0.52964 0.21898 0.68936 0.0
H3023 H 0.57767 0.20389 0.65673 0.0
Tb3024 Tb 0.92256 0.52745 0.33547 0.0
C3025 C 0.9436 0.602 0.36292 0.0
N3026 N 0.93945 0.58718 0.36895 0.0
C3027 C 0.95781 0.59289 0.39086 0.0
C3028 C 0.95536 0.61278 0.37031 0.0
C3029 C 0.94589 0.58276 0.38317 0.0
C3030 C 0.96276 0.60788 0.38426 0.0
C3031 C 0.93738 0.62274 0.34444 0.0
C3032 C 0.93487 0.60683 0.35024 0.0
C3033 C 0.94972 0.6333 0.35103 0.0
C3034 C 0.95874 0.6283 0.36396 0.0
Tb3035 Tb 0.92082 0.5707 0.35491 0.0
N3036 N 0.92278 0.5964 0.34471 0.0
C3037 C 0.92688 0.62776 0.33282 0.0
C3038 C 0.91186 0.60164 0.33418 0.0
C3039 C 0.91387 0.61724 0.32789 0.0
H3040 H 0.94209 0.57128 0.38848 0.0
H3041 H 0.90531 0.62117 0.31935 0.0
H3042 H 0.88211 0.52537 0.33884 0.0
H3043 H 0.96721 0.49106 0.36105 0.0
H3044 H 0.90158 0.59387 0.33051 0.0
H3045 H 0.92832 0.6399 0.32808 0.0
H3046 H 0.95772 0.5116 0.3432 0.0
H3047 H 0.96311 0.58916 0.40191 0.0
H3048 H 0.95197 0.64551 0.34663 0.0
H3049 H 0.96783 0.63673 0.36934 0.0
H3050 H 0.86066 0.50831 0.35248 0.0
H3051 H 0.97186 0.61578 0.39032 0.0
H3052 H 0.94747 0.47413 0.37737 0.0
N3053 N 0.9015 0.51321 0.34858 0.0
C3054 C 0.90558 0.50046 0.35736 0.0
C3055 C 0.87326 0.50603 0.35403 0.0
C3056 C 0.89366 0.49048 0.36551 0.0
C3057 C 0.8855 0.51571 0.34631 0.0
C3058 C 0.87735 0.49343 0.36377 0.0
N3059 N 0.93292 0.50775 0.3505 0.0
C3060 C 0.94901 0.50498 0.35084 0.0
C3061 C 0.9267 0.48563 0.36869 0.0
C3062 C 0.92186 0.49799 0.35877 0.0
C3063 C 0.94324 0.48343 0.3698 0.0
C3064 C 0.95442 0.49303 0.36069 0.0
H3065 H 0.86783 0.48607 0.36987 0.0
H3066 H 0.88947 0.4705 0.38193 0.0
H3067 H 0.91842 0.46636 0.38487 0.0
O3068 O 0.9321 0.50896 0.32069 0.0
O3069 O 0.9112 0.53334 0.3587 0.0
O3070 O 0.92892 0.55115 0.36996 0.0
O3071 O 0.90884 0.51771 0.31617 0.0
O3072 O 0.94856 0.53806 0.34205 0.0
O3073 O 0.94707 0.56357 0.35505 0.0
O3074 O 0.89943 0.56119 0.36664 0.0
O3075 O 0.92397 0.56986 0.32887 0.0
O3076 O 0.93727 0.54661 0.32357 0.0
O3077 O 0.90852 0.58603 0.37098 0.0
O3078 O 0.90122 0.56564 0.33539 0.0
O3079 O 0.9034 0.54024 0.32308 0.0
C3080 C 0.92051 0.53727 0.37086 0.0
C3081 C 0.92324 0.50945 0.29335 0.0
C3082 C 0.94183 0.51441 0.27056 0.0
C3083 C 0.92924 0.51069 0.25973 0.0
C3084 C 0.91057 0.50599 0.28246 0.0
C3085 C 0.91355 0.50673 0.26573 0.0
C3086 C 0.93875 0.51399 0.28731 0.0
C3087 C 0.9559 0.55129 0.34977 0.0
C3088 C 0.91993 0.50849 0.31088 0.0
C3089 C 0.89843 0.47817 0.37541 0.0
C3090 C 0.91492 0.47584 0.3771 0.0
C3091 C 0.93397 0.56143 0.32016 0.0
C3092 C 0.89474 0.57286 0.39278 0.0
C3093 C 0.87998 0.58057 0.41737 0.0
C3094 C 0.88908 0.5704 0.42634 0.0
C3095 C 0.90428 0.56342 0.40211 0.0
C3096 C 0.88265 0.58157 0.40054 0.0
C3097 C 0.90119 0.56184 0.4187 0.0
C3098 C 0.89597 0.55399 0.32454 0.0
C3099 C 0.89781 0.57452 0.37521 0.0
H3100 H 0.9316 0.51057 0.24677 0.0
H3101 H 0.89839 0.50264 0.2869 0.0
H3102 H 0.90376 0.5039 0.25741 0.0
H3103 H 0.94865 0.51659 0.2956 0.0
H3104 H 0.88736 0.56973 0.43937 0.0
H3105 H 0.91438 0.55761 0.39672 0.0
H3106 H 0.87581 0.58964 0.39364 0.0
H3107 H 0.90856 0.55442 0.42574 0.0
Tb3108 Tb 0.56094 0.93427 0.3726 0.0
C3109 C 0.49981 0.91436 0.36652 0.0
N3110 N 0.51589 0.9149 0.3623 0.0
C3111 C 0.51825 0.88994 0.37632 0.0
C3112 C 0.49238 0.90144 0.37554 0.0
C3113 C 0.52511 0.90306 0.3676 0.0
C3114 C 0.50176 0.88898 0.3801 0.0
C3115 C 0.47478 0.92813 0.36856 0.0
C3116 C 0.49101 0.92751 0.36303 0.0
C3117 C 0.46723 0.91496 0.37687 0.0
C3118 C 0.476 0.90164 0.38032 0.0
Tb3119 Tb 0.52448 0.93665 0.34624 0.0
N3120 N 0.49879 0.94034 0.35554 0.0
C3121 C 0.46681 0.94224 0.36613 0.0
C3122 C 0.49128 0.95441 0.35374 0.0
C3123 C 0.47516 0.9555 0.35886 0.0
H3124 H 0.53783 0.90372 0.36592 0.0
H3125 H 0.46923 0.96662 0.35732 0.0
H3126 H 0.56218 0.96538 0.39962 0.0
H3127 H 0.61241 0.90139 0.3529 0.0
H3128 H 0.49778 0.96488 0.34847 0.0
H3129 H 0.45437 0.94319 0.37026 0.0
H3130 H 0.58432 0.90438 0.36213 0.0
H3131 H 0.5258 0.8807 0.38035 0.0
H3132 H 0.45475 0.91518 0.38109 0.0
H3133 H 0.47014 0.89176 0.38715 0.0
H3134 H 0.58175 0.98776 0.40833 0.0
H3135 H 0.49653 0.87889 0.38705 0.0
H3136 H 0.63234 0.92515 0.35345 0.0
N3137 N 0.57821 0.95573 0.38182 0.0
C3138 C 0.59371 0.95625 0.37599 0.0
C3139 C 0.58522 0.9791 0.39903 0.0
C3140 C 0.60528 0.96882 0.38055 0.0
C3141 C 0.57416 0.96644 0.39402 0.0
C3142 C 0.60067 0.98063 0.39185 0.0
N3143 N 0.58749 0.93006 0.36588 0.0
C3144 C 0.59255 0.91508 0.36154 0.0
C3145 C 0.61495 0.94161 0.36293 0.0
C3146 C 0.5985 0.94289 0.36739 0.0
C3147 C 0.61981 0.92668 0.3569 0.0
C3148 C 0.60861 0.91324 0.35661 0.0
H3149 H 0.60922 0.99041 0.39578 0.0
H3150 H 0.63036 0.97812 0.37789 0.0
H3151 H 0.63884 0.95419 0.36236 0.0
O3152 O 0.56041 0.91133 0.38389 0.0
O3153 O 0.5678 0.93479 0.34748 0.0
O3154 O 0.54721 0.94797 0.33659 0.0
O3155 O 0.56752 0.93331 0.39683 0.0
O3156 O 0.56042 0.91404 0.35185 0.0
O3157 O 0.53754 0.91524 0.33643 0.0
O3158 O 0.51237 0.94858 0.32842 0.0
O3159 O 0.5196 0.94719 0.37078 0.0
O3160 O 0.53641 0.93245 0.38496 0.0
O3161 O 0.51428 0.92307 0.32649 0.0
O3162 O 0.53493 0.96263 0.34972 0.0
O3163 O 0.55397 0.96095 0.3699 0.0
C3164 C 0.56224 0.94395 0.33665 0.0
C3165 C 0.58051 0.91047 0.40427 0.0
C3166 C 0.59167 0.89155 0.42248 0.0
C3167 C 0.60721 0.89905 0.41977 0.0
C3168 C 0.59614 0.91822 0.4024 0.0
C3169 C 0.6094 0.91234 0.40979 0.0
C3170 C 0.5783 0.8971 0.41454 0.0
C3171 C 0.55124 0.90833 0.33916 0.0
C3172 C 0.56639 0.91763 0.39728 0.0
C3173 C 0.62136 0.96844 0.37475 0.0
C3174 C 0.6262 0.95482 0.3659 0.0
C3175 C 0.52381 0.94148 0.3847 0.0
C3176 C 0.51998 0.93775 0.30289 0.0
C3177 C 0.54062 0.95304 0.28662 0.0
C3178 C 0.5406 0.94007 0.27527 0.0
C3179 C 0.52018 0.92481 0.29153 0.0
C3180 C 0.52989 0.95186 0.30004 0.0
C3181 C 0.53033 0.92607 0.27771 0.0
C3182 C 0.54539 0.97004 0.36021 0.0
C3183 C 0.51141 0.93596 0.31875 0.0
H3184 H 0.61759 0.89494 0.42588 0.0
H3185 H 0.59811 0.9292 0.39572 0.0
H3186 H 0.62133 0.91842 0.40819 0.0
H3187 H 0.56626 0.8915 0.41684 0.0
H3188 H 0.54849 0.94072 0.26463 0.0
H3189 H 0.51278 0.91367 0.2935 0.0
H3190 H 0.52931 0.96207 0.30848 0.0
H3191 H 0.53042 0.91604 0.26899 0.0
Tb3192 Tb 0.17711 0.59221 0.36347 0.0
C3193 C 0.15649 0.51982 0.39153 0.0
N3194 N 0.15483 0.53539 0.39652 0.0
C3195 C 0.12889 0.52721 0.4087 0.0
C3196 C 0.14422 0.50741 0.3943 0.0
C3197 C 0.14159 0.53899 0.40591 0.0
C3198 C 0.13007 0.5114 0.4026 0.0
C3199 C 0.1745 0.4999 0.38148 0.0
C3200 C 0.17127 0.51614 0.38532 0.0
C3201 C 0.16204 0.48756 0.38309 0.0
C3202 C 0.14688 0.49132 0.38951 0.0
Tb3203 Tb 0.17587 0.55444 0.39038 0.0
N3204 N 0.18298 0.52836 0.3846 0.0
C3205 C 0.19031 0.4965 0.37694 0.0
C3206 C 0.19866 0.52491 0.38109 0.0
C3207 C 0.20251 0.50905 0.37702 0.0
H3208 H 0.14065 0.55114 0.41091 0.0
H3209 H 0.21492 0.5065 0.37412 0.0
H3210 H 0.21796 0.59456 0.3635 0.0
H3211 H 0.13366 0.63315 0.38817 0.0
H3212 H 0.2084 0.53425 0.38159 0.0
H3213 H 0.19335 0.48419 0.37399 0.0
H3214 H 0.1419 0.60853 0.3743 0.0
H3215 H 0.11825 0.53032 0.41568 0.0
H3216 H 0.1642 0.47504 0.38005 0.0
H3217 H 0.13755 0.48162 0.39136 0.0
H3218 H 0.23972 0.61397 0.37251 0.0
H3219 H 0.12035 0.50224 0.40498 0.0
H3220 H 0.1543 0.65441 0.39703 0.0
N3221 N 0.1988 0.60868 0.37233 0.0
C3222 C 0.19503 0.62327 0.37889 0.0
C3223 C 0.22721 0.6167 0.37449 0.0
C3224 C 0.20729 0.63502 0.38378 0.0
C3225 C 0.21469 0.60553 0.36957 0.0
C3226 C 0.22351 0.63149 0.38166 0.0
N3227 N 0.16728 0.61437 0.37674 0.0
C3228 C 0.15122 0.61698 0.37887 0.0
C3229 C 0.17449 0.64088 0.38863 0.0
C3230 C 0.1788 0.62609 0.38136 0.0
C3231 C 0.15809 0.64327 0.39134 0.0
C3232 C 0.14641 0.63126 0.38645 0.0
H3233 H 0.23324 0.64016 0.38537 0.0
H3234 H 0.21222 0.65911 0.39434 0.0
H3235 H 0.18352 0.66448 0.39797 0.0
O3236 O 0.16686 0.60765 0.34714 0.0
O3237 O 0.18825 0.59217 0.38767 0.0
O3238 O 0.16829 0.57804 0.39996 0.0
O3239 O 0.19021 0.59874 0.34229 0.0
O3240 O 0.15057 0.58323 0.36828 0.0
O3241 O 0.15 0.55939 0.38288 0.0
O3242 O 0.19718 0.55474 0.40442 0.0
O3243 O 0.17771 0.54781 0.36548 0.0
O3244 O 0.16587 0.56906 0.35379 0.0
O3245 O 0.17366 0.55283 0.41562 0.0
O3246 O 0.20005 0.56006 0.37526 0.0
O3247 O 0.19535 0.57627 0.35367 0.0
C3248 C 0.179 0.59036 0.40062 0.0
C3249 C 0.17245 0.5964 0.32121 0.0
C3250 C 0.1561 0.57289 0.31011 0.0
C3251 C 0.16606 0.57373 0.29595 0.0
C3252 C 0.18213 0.59691 0.30711 0.0
C3253 C 0.17878 0.58573 0.29445 0.0
C3254 C 0.15936 0.58476 0.32237 0.0
C3255 C 0.14211 0.57065 0.37531 0.0
C3256 C 0.17794 0.60502 0.33609 0.0
C3257 C 0.203 0.64986 0.39067 0.0
C3258 C 0.18664 0.65286 0.39287 0.0
C3259 C 0.16976 0.55387 0.35399 0.0
C3260 C 0.19251 0.53597 0.42588 0.0
C3261 C 0.2104 0.51976 0.44088 0.0
C3262 C 0.19815 0.50711 0.44142 0.0
C3263 C 0.18036 0.52316 0.42706 0.0
C3264 C 0.20767 0.53423 0.43296 0.0
C3265 C 0.18324 0.50883 0.43459 0.0
C3266 C 0.20442 0.56594 0.3604 0.0
C3267 C 0.18891 0.55099 0.41755 0.0
H3268 H 0.16405 0.56547 0.28574 0.0
H3269 H 0.19258 0.60554 0.30615 0.0
H3270 H 0.18627 0.58616 0.28353 0.0
H3271 H 0.15205 0.58499 0.33329 0.0
H3272 H 0.20009 0.49591 0.44743 0.0
H3273 H 0.16843 0.52415 0.42235 0.0
H3274 H 0.2171 0.544 0.43249 0.0
H3275 H 0.17379 0.4991 0.43529 0.0
Tb3276 Tb 0.55001 0.1923 0.36257 0.0
C3277 C 0.62333 0.20626 0.35537 0.0
N3278 N 0.61126 0.21074 0.346 0.0
C3279 C 0.62345 0.23806 0.34582 0.0
C3280 C 0.63549 0.21773 0.36108 0.0
C3281 C 0.6118 0.22621 0.34037 0.0
C3282 C 0.63517 0.23388 0.35651 0.0
C3283 C 0.63641 0.18478 0.36803 0.0
C3284 C 0.62379 0.19003 0.35867 0.0
C3285 C 0.64837 0.19615 0.37403 0.0
C3286 C 0.64784 0.21262 0.37068 0.0
Tb3287 Tb 0.5919 0.19079 0.3386 0.0
N3288 N 0.6124 0.17933 0.35199 0.0
C3289 C 0.6369 0.16821 0.37072 0.0
C3290 C 0.61382 0.163 0.35343 0.0
C3291 C 0.62561 0.15728 0.3633 0.0
H3292 H 0.60368 0.22954 0.33129 0.0
H3293 H 0.62618 0.14438 0.36494 0.0
H3294 H 0.54305 0.15965 0.3855 0.0
H3295 H 0.50461 0.23064 0.34203 0.0
H3296 H 0.60621 0.15412 0.34686 0.0
H3297 H 0.64623 0.1637 0.37805 0.0
H3298 H 0.53092 0.22476 0.35263 0.0
H3299 H 0.62354 0.25034 0.34152 0.0
H3300 H 0.65832 0.19227 0.38093 0.0
H3301 H 0.65727 0.22122 0.37521 0.0
H3302 H 0.52164 0.13754 0.38892 0.0
H3303 H 0.64429 0.24304 0.36062 0.0
H3304 H 0.48276 0.20878 0.33945 0.0
N3305 N 0.53008 0.17202 0.36815 0.0
C3306 C 0.51553 0.17313 0.3612 0.0
C3307 C 0.51982 0.14739 0.38091 0.0
C3308 C 0.50273 0.1611 0.36324 0.0
C3309 C 0.53194 0.1599 0.37886 0.0
C3310 C 0.50525 0.14781 0.37277 0.0
N3311 N 0.52507 0.19921 0.35428 0.0
C3312 C 0.52198 0.21479 0.35068 0.0
C3313 C 0.49735 0.19035 0.34853 0.0
C3314 C 0.5129 0.1874 0.35395 0.0
C3315 C 0.49456 0.20595 0.34356 0.0
C3316 C 0.50686 0.21832 0.34499 0.0
H3317 H 0.49574 0.13829 0.37463 0.0
H3318 H 0.4776 0.15414 0.35789 0.0
H3319 H 0.47285 0.17991 0.34503 0.0
O3320 O 0.55638 0.21383 0.37634 0.0
O3321 O 0.54863 0.19303 0.33672 0.0
O3322 O 0.56983 0.17782 0.33028 0.0
O3323 O 0.5403 0.1947 0.38596 0.0
O3324 O 0.55515 0.21369 0.34518 0.0
O3325 O 0.58009 0.2131 0.33187 0.0
O3326 O 0.60875 0.18196 0.32139 0.0
O3327 O 0.58951 0.20362 0.36212 0.0
O3328 O 0.57233 0.1849 0.37328 0.0
O3329 O 0.59172 0.19987 0.31509 0.0
O3330 O 0.58166 0.165 0.34549 0.0
O3331 O 0.55672 0.16604 0.3592 0.0
C3332 C 0.55652 0.18425 0.32629 0.0
C3333 C 0.53423 0.22107 0.39352 0.0
C3334 C 0.52704 0.24504 0.40927 0.0
C3335 C 0.51076 0.24175 0.40494 0.0
C3336 C 0.51773 0.21773 0.38998 0.0
C3337 C 0.50617 0.22815 0.39542 0.0
C3338 C 0.53882 0.23467 0.40343 0.0
C3339 C 0.56643 0.2202 0.33474 0.0
C3340 C 0.54624 0.20954 0.38808 0.0
C3341 C 0.48755 0.16331 0.35663 0.0
C3342 C 0.48484 0.17797 0.3493 0.0
C3343 C 0.58504 0.1951 0.37479 0.0
C3344 C 0.60987 0.19155 0.29369 0.0
C3345 C 0.60886 0.17758 0.26736 0.0
C3346 C 0.61277 0.19233 0.25969 0.0
C3347 C 0.61323 0.20639 0.28599 0.0
C3348 C 0.60836 0.17726 0.28439 0.0
C3349 C 0.6151 0.2067 0.26906 0.0
C3350 C 0.56879 0.15743 0.35328 0.0
C3351 C 0.60323 0.19092 0.31025 0.0
H3352 H 0.50139 0.24924 0.40965 0.0
H3353 H 0.51361 0.20686 0.3833 0.0
H3354 H 0.49353 0.2254 0.39263 0.0
H3355 H 0.55133 0.23691 0.40697 0.0
H3356 H 0.61366 0.19276 0.2466 0.0
H3357 H 0.61384 0.2177 0.29298 0.0
H3358 H 0.6055 0.16588 0.29046 0.0
H3359 H 0.61772 0.21816 0.26317 0.0
Tb3360 Tb 0.73691 0.91068 0.55264 0.0
C3361 C 0.76269 0.88072 0.61319 0.0
N3362 N 0.75085 0.89106 0.6108 0.0
C3363 C 0.73271 0.87492 0.62819 0.0
C3364 C 0.75963 0.86662 0.6224 0.0
C3365 C 0.7363 0.8888 0.6191 0.0
C3366 C 0.74428 0.8636 0.62956 0.0
C3367 C 0.79088 0.87449 0.60965 0.0
C3368 C 0.7782 0.88459 0.60696 0.0
C3369 C 0.78768 0.86016 0.61828 0.0
C3370 C 0.77209 0.85621 0.62459 0.0
Tb3371 Tb 0.75856 0.91271 0.59436 0.0
N3372 N 0.78083 0.89836 0.59816 0.0
C3373 C 0.80637 0.87902 0.60343 0.0
C3374 C 0.79606 0.90317 0.59278 0.0
C3375 C 0.809 0.89351 0.59512 0.0
H3376 H 0.72727 0.89761 0.61858 0.0
H3377 H 0.82103 0.89736 0.59069 0.0
H3378 H 0.76409 0.91002 0.52192 0.0
H3379 H 0.67611 0.93027 0.5539 0.0
H3380 H 0.79822 0.91466 0.58716 0.0
H3381 H 0.81642 0.87155 0.60518 0.0
H3382 H 0.69841 0.91454 0.56257 0.0
H3383 H 0.72108 0.87306 0.63433 0.0
H3384 H 0.79721 0.85211 0.62025 0.0
H3385 H 0.76987 0.84523 0.63145 0.0
H3386 H 0.76968 0.92482 0.49666 0.0
H3387 H 0.74145 0.85289 0.63668 0.0
H3388 H 0.68011 0.94819 0.53038 0.0
N3389 N 0.74272 0.92205 0.52798 0.0
C3390 C 0.73178 0.93226 0.52282 0.0
C3391 C 0.75903 0.92712 0.50399 0.0
C3392 C 0.73414 0.94048 0.50812 0.0
C3393 C 0.75593 0.91892 0.51848 0.0
C3394 C 0.7482 0.9381 0.49888 0.0
N3395 N 0.71546 0.92454 0.5452 0.0
C3396 C 0.7006 0.92287 0.55281 0.0
C3397 C 0.70502 0.94238 0.52601 0.0
C3398 C 0.71755 0.93342 0.53169 0.0
C3399 C 0.6901 0.94161 0.53442 0.0
C3400 C 0.6878 0.93155 0.54772 0.0
H3401 H 0.75052 0.94425 0.48755 0.0
H3402 H 0.72378 0.95677 0.49164 0.0
H3403 H 0.69815 0.95825 0.50724 0.0
O3404 O 0.72459 0.88827 0.55873 0.0
O3405 O 0.73928 0.93734 0.56091 0.0
O3406 O 0.75114 0.93794 0.58638 0.0
O3407 O 0.72311 0.89811 0.53475 0.0
O3408 O 0.72446 0.91683 0.57548 0.0
O3409 O 0.73629 0.89901 0.5891 0.0
O3410 O 0.77393 0.92674 0.60947 0.0
O3411 O 0.76716 0.89205 0.5792 0.0
O3412 O 0.75559 0.89081 0.55363 0.0
O3413 O 0.74907 0.921 0.61705 0.0
O3414 O 0.77061 0.92632 0.57478 0.0
O3415 O 0.76306 0.91299 0.5509 0.0
C3416 C 0.7449 0.94583 0.57399 0.0
C3417 C 0.7146 0.87034 0.53732 0.0
C3418 C 0.69408 0.85118 0.52506 0.0
C3419 C 0.70675 0.84209 0.51877 0.0
C3420 C 0.72694 0.86119 0.53092 0.0
C3421 C 0.72297 0.84692 0.52194 0.0
C3422 C 0.69832 0.86495 0.53498 0.0
C3423 C 0.72328 0.90611 0.58666 0.0
C3424 C 0.71791 0.88665 0.54454 0.0
C3425 C 0.72214 0.95028 0.50286 0.0
C3426 C 0.70756 0.95116 0.51175 0.0
C3427 C 0.76519 0.88473 0.56483 0.0
C3428 C 0.76964 0.92236 0.63729 0.0
C3429 C 0.79632 0.91897 0.64733 0.0
C3430 C 0.79236 0.92735 0.6618 0.0
C3431 C 0.76558 0.93093 0.65153 0.0
C3432 C 0.78364 0.91377 0.6372 0.0
C3433 C 0.77659 0.93239 0.66428 0.0
C3434 C 0.77393 0.92071 0.56016 0.0
C3435 C 0.76338 0.92689 0.62147 0.0
H3436 H 0.70434 0.83162 0.51081 0.0
H3437 H 0.73955 0.86527 0.53249 0.0
H3438 H 0.73253 0.83994 0.51681 0.0
H3439 H 0.68902 0.87208 0.5404 0.0
H3440 H 0.80162 0.93137 0.67035 0.0
H3441 H 0.75465 0.93745 0.65231 0.0
H3442 H 0.78669 0.90674 0.62672 0.0
H3443 H 0.77364 0.93917 0.67522 0.0
Tb3444 Tb 0.74334 0.17121 0.55617 0.0
C3445 C 0.74235 0.18442 0.63025 0.0
N3446 N 0.75154 0.19033 0.61765 0.0
C3447 C 0.75233 0.21706 0.63003 0.0
C3448 C 0.73769 0.19469 0.64325 0.0
C3449 C 0.75664 0.20644 0.61745 0.0
C3450 C 0.74287 0.21115 0.64304 0.0
C3451 C 0.72673 0.16184 0.64233 0.0
C3452 C 0.73714 0.16815 0.62983 0.0
C3453 C 0.72247 0.17189 0.65551 0.0
C3454 C 0.72794 0.18828 0.65597 0.0
Tb3455 Tb 0.76051 0.17174 0.59912 0.0
N3456 N 0.74176 0.15871 0.61696 0.0
C3457 C 0.72064 0.1457 0.64115 0.0
C3458 C 0.73529 0.14291 0.61578 0.0
C3459 C 0.7247 0.13633 0.62768 0.0
H3460 H 0.76414 0.2113 0.60773 0.0
H3461 H 0.71977 0.12387 0.62647 0.0
H3462 H 0.70868 0.1487 0.55866 0.0
H3463 H 0.78412 0.17937 0.50457 0.0
H3464 H 0.73783 0.13476 0.60599 0.0
H3465 H 0.7126 0.14043 0.65044 0.0
H3466 H 0.77044 0.18748 0.53019 0.0
H3467 H 0.75644 0.22978 0.62974 0.0
H3468 H 0.71476 0.16715 0.66532 0.0
H3469 H 0.72437 0.19594 0.66611 0.0
H3470 H 0.69567 0.12443 0.54479 0.0
H3471 H 0.73958 0.2194 0.65281 0.0
H3472 H 0.77666 0.15263 0.49151 0.0
N3473 N 0.73016 0.14892 0.54393 0.0
C3474 C 0.73746 0.1426 0.53055 0.0
C3475 C 0.70752 0.12932 0.54076 0.0
C3476 C 0.73053 0.12881 0.52221 0.0
C3477 C 0.71493 0.14304 0.54861 0.0
C3478 C 0.7155 0.12196 0.5277 0.0
N3479 N 0.756 0.16524 0.53198 0.0
C3480 C 0.76721 0.17573 0.52465 0.0
C3481 C 0.75834 0.14594 0.50973 0.0
C3482 C 0.75106 0.15103 0.52443 0.0
C3483 C 0.77075 0.15606 0.50281 0.0
C3484 C 0.77494 0.1712 0.51011 0.0
H3485 H 0.70971 0.11139 0.5216 0.0
H3486 H 0.73346 0.11214 0.50176 0.0
H3487 H 0.75793 0.12716 0.49083 0.0
O3488 O 0.72677 0.18963 0.55866 0.0
O3489 O 0.76953 0.1725 0.55819 0.0
O3490 O 0.77275 0.15789 0.58061 0.0
O3491 O 0.73234 0.17939 0.53526 0.0
O3492 O 0.76282 0.19365 0.56016 0.0
O3493 O 0.7719 0.19396 0.58658 0.0
O3494 O 0.77255 0.1646 0.61955 0.0
O3495 O 0.73867 0.18447 0.59435 0.0
O3496 O 0.72651 0.1662 0.57759 0.0
O3497 O 0.78378 0.18242 0.60349 0.0
O3498 O 0.75674 0.14517 0.58895 0.0
O3499 O 0.74295 0.14466 0.56458 0.0
C3500 C 0.77733 0.16208 0.566 0.0
C3501 C 0.70513 0.18648 0.53928 0.0
C3502 C 0.68246 0.18787 0.52018 0.0
C3503 C 0.6717 0.18247 0.53261 0.0
C3504 C 0.6938 0.18096 0.55119 0.0
C3505 C 0.67732 0.17896 0.54784 0.0
C3506 C 0.69935 0.18974 0.52355 0.0
C3507 C 0.77236 0.20085 0.57214 0.0
C3508 C 0.72282 0.18862 0.54335 0.0
C3509 C 0.73841 0.12289 0.50822 0.0
C3510 C 0.75235 0.13144 0.502 0.0
C3511 C 0.72537 0.17588 0.59047 0.0
C3512 C 0.80013 0.16264 0.61205 0.0
C3513 C 0.81145 0.13637 0.61198 0.0
C3514 C 0.82641 0.1433 0.60638 0.0
C3515 C 0.81501 0.16959 0.60608 0.0
C3516 C 0.79838 0.14597 0.61441 0.0
C3517 C 0.82805 0.15988 0.60309 0.0
C3518 C 0.74899 0.13654 0.57677 0.0
C3519 C 0.78608 0.17237 0.6149 0.0
H3520 H 0.6588 0.18081 0.53046 0.0
H3521 H 0.69766 0.17814 0.56318 0.0
H3522 H 0.66879 0.17468 0.55719 0.0
H3523 H 0.70786 0.19391 0.51414 0.0
H3524 H 0.8368 0.13605 0.60505 0.0
H3525 H 0.81655 0.18247 0.60377 0.0
H3526 H 0.78702 0.14044 0.61918 0.0
H3527 H 0.83955 0.1653 0.59868 0.0
Tb3528 Tb 0.92429 0.74061 0.54178 0.0
C3529 C 0.91459 0.73818 0.61204 0.0
N3530 N 0.91014 0.74948 0.6016 0.0
C3531 C 0.88262 0.74566 0.61183 0.0
C3532 C 0.90302 0.7294 0.62188 0.0
C3533 C 0.89455 0.75411 0.60249 0.0
C3534 C 0.88679 0.73292 0.62125 0.0
C3535 C 0.93609 0.72455 0.62431 0.0
C3536 C 0.93092 0.73589 0.61338 0.0
C3537 C 0.92457 0.71532 0.63359 0.0
C3538 C 0.90808 0.71777 0.63242 0.0
Tb3539 Tb 0.93106 0.76092 0.58537 0.0
N3540 N 0.94175 0.74481 0.60398 0.0
C3541 C 0.9527 0.72288 0.62562 0.0
C3542 C 0.958 0.74381 0.60585 0.0
C3543 C 0.9637 0.73271 0.61652 0.0
H3544 H 0.89117 0.76474 0.59675 0.0
H3545 H 0.9766 0.73175 0.61773 0.0
H3546 H 0.95834 0.7295 0.52464 0.0
H3547 H 0.86656 0.74378 0.51254 0.0
H3548 H 0.96669 0.7515 0.59916 0.0
H3549 H 0.95716 0.71427 0.63383 0.0
H3550 H 0.88464 0.73881 0.53492 0.0
H3551 H 0.87028 0.74926 0.61206 0.0
H3552 H 0.92831 0.70644 0.64192 0.0
H3553 H 0.89937 0.7109 0.64 0.0
H3554 H 0.97213 0.7304 0.49803 0.0
H3555 H 0.87755 0.72647 0.62859 0.0
H3556 H 0.87807 0.74988 0.48526 0.0
N3557 N 0.93701 0.73962 0.51672 0.0
C3558 C 0.92879 0.74364 0.50365 0.0
C3559 C 0.96001 0.73448 0.49945 0.0
C3560 C 0.93592 0.74383 0.48797 0.0
C3561 C 0.95223 0.73432 0.51468 0.0
C3562 C 0.95193 0.73958 0.48605 0.0
N3563 N 0.90644 0.7437 0.52102 0.0
C3564 C 0.88992 0.74197 0.52321 0.0
C3565 C 0.90286 0.74818 0.49256 0.0
C3566 C 0.91271 0.74581 0.5059 0.0
C3567 C 0.8861 0.7481 0.49516 0.0
C3568 C 0.87957 0.74463 0.51051 0.0
H3569 H 0.95787 0.73946 0.47421 0.0
H3570 H 0.93182 0.74773 0.46255 0.0
H3571 H 0.90269 0.75155 0.46659 0.0
O3572 O 0.90877 0.71952 0.5418 0.0
O3573 O 0.93879 0.76337 0.5442 0.0
O3574 O 0.92821 0.77703 0.56577 0.0
O3575 O 0.93442 0.71787 0.54399 0.0
O3576 O 0.90462 0.7584 0.54706 0.0
O3577 O 0.90705 0.7668 0.57416 0.0
O3578 O 0.94612 0.78184 0.59088 0.0
O3579 O 0.93324 0.73553 0.5794 0.0
O3580 O 0.91159 0.73583 0.56459 0.0
O3581 O 0.92612 0.77412 0.60682 0.0
O3582 O 0.95609 0.75769 0.57357 0.0
O3583 O 0.95167 0.74302 0.54913 0.0
C3584 C 0.93313 0.77648 0.55068 0.0
C3585 C 0.91885 0.69521 0.53186 0.0
C3586 C 0.90148 0.67329 0.51947 0.0
C3587 C 0.91546 0.66636 0.51319 0.0
C3588 C 0.93259 0.688 0.52556 0.0
C3589 C 0.93086 0.67365 0.51627 0.0
C3590 C 0.90331 0.68771 0.52886 0.0
C3591 C 0.89877 0.76609 0.56027 0.0
C3592 C 0.92038 0.70983 0.54251 0.0
C3593 C 0.92655 0.74737 0.47469 0.0
C3594 C 0.90999 0.74955 0.47699 0.0
C3595 C 0.91976 0.72814 0.57479 0.0
C3596 C 0.92716 0.80111 0.59801 0.0
C3597 C 0.9293 0.83015 0.59335 0.0
C3598 C 0.9124 0.8301 0.59242 0.0
C3599 C 0.91019 0.80117 0.59707 0.0
C3600 C 0.93652 0.81532 0.59488 0.0
C3601 C 0.90292 0.8155 0.5938 0.0
C3602 C 0.96206 0.74969 0.5605 0.0
C3603 C 0.93537 0.7863 0.60162 0.0
H3604 H 0.91451 0.65543 0.50562 0.0
H3605 H 0.94466 0.69337 0.52789 0.0
H3606 H 0.94149 0.66818 0.51136 0.0
H3607 H 0.89264 0.69298 0.53401 0.0
H3608 H 0.90658 0.8414 0.59163 0.0
H3609 H 0.9025 0.79028 0.59902 0.0
H3610 H 0.94956 0.81507 0.59542 0.0
H3611 H 0.88985 0.81544 0.59323 0.0
Tb3612 Tb 0.35809 0.95292 0.51552 0.0
C3613 C 0.39033 0.9731 0.58066 0.0
N3614 N 0.39564 0.96836 0.56566 0.0
C3615 C 0.41903 0.98714 0.56801 0.0
C3616 C 0.39857 0.98589 0.58944 0.0
C3617 C 0.41038 0.97443 0.55973 0.0
C3618 C 0.4129 0.99317 0.58273 0.0
C3619 C 0.37288 0.96724 0.60409 0.0
C3620 C 0.37778 0.9638 0.58796 0.0
C3621 C 0.38 0.98095 0.61232 0.0
C3622 C 0.39288 0.99023 0.60503 0.0
Tb3623 Tb 0.38111 0.94671 0.55382 0.0
N3624 N 0.37189 0.95014 0.57996 0.0
C3625 C 0.36182 0.95622 0.61182 0.0
C3626 C 0.36203 0.93876 0.58784 0.0
C3627 C 0.35667 0.94174 0.60378 0.0
H3628 H 0.41507 0.9698 0.54832 0.0
H3629 H 0.34858 0.93286 0.60984 0.0
H3630 H 0.37592 0.91777 0.52192 0.0
H3631 H 0.37136 0.99583 0.46813 0.0
H3632 H 0.35812 0.92747 0.58173 0.0
H3633 H 0.35778 0.95841 0.62421 0.0
H3634 H 0.36271 0.98735 0.4957 0.0
H3635 H 0.43042 0.99228 0.56304 0.0
H3636 H 0.37623 0.98396 0.62464 0.0
H3637 H 0.39886 1.00022 0.61186 0.0
H3638 H 0.38844 0.89704 0.50499 0.0
H3639 H 0.41967 1.00295 0.58915 0.0
H3640 H 0.38087 0.97555 0.44813 0.0
N3641 N 0.37196 0.93316 0.50228 0.0
C3642 C 0.37529 0.93609 0.48632 0.0
C3643 C 0.38456 0.90786 0.49954 0.0
C3644 C 0.38311 0.9248 0.47631 0.0
C3645 C 0.37706 0.91954 0.50909 0.0
C3646 C 0.38735 0.91036 0.48303 0.0
N3647 N 0.3666 0.96243 0.49096 0.0
C3648 C 0.36671 0.97841 0.48694 0.0
C3649 C 0.37778 0.95561 0.46471 0.0
C3650 C 0.37255 0.95128 0.48049 0.0
C3651 C 0.37689 0.97173 0.46011 0.0
C3652 C 0.37159 0.98324 0.47138 0.0
H3653 H 0.39341 0.9014 0.47575 0.0
H3654 H 0.39314 0.92004 0.45229 0.0
H3655 H 0.38857 0.94706 0.44219 0.0
O3656 O 0.3408 0.96454 0.50259 0.0
O3657 O 0.38421 0.96031 0.51219 0.0
O3658 O 0.39589 0.94473 0.53056 0.0
O3659 O 0.33646 0.93971 0.5089 0.0
O3660 O 0.36354 0.97822 0.52681 0.0
O3661 O 0.3815 0.97446 0.54748 0.0
O3662 O 0.39803 0.92892 0.54922 0.0
O3663 O 0.35489 0.94593 0.55645 0.0
O3664 O 0.34904 0.96373 0.53754 0.0
O3665 O 0.39341 0.93727 0.5734 0.0
O3666 O 0.36086 0.92511 0.55027 0.0
O3667 O 0.34866 0.92865 0.52574 0.0
C3668 C 0.39684 0.95293 0.5169 0.0
C3669 C 0.31533 0.95678 0.51442 0.0
C3670 C 0.3001 0.97772 0.52777 0.0
C3671 C 0.29066 0.96592 0.53626 0.0
C3672 C 0.30593 0.94494 0.52314 0.0
C3673 C 0.29365 0.94953 0.53396 0.0
C3674 C 0.31212 0.97307 0.51674 0.0
C3675 C 0.37381 0.98469 0.53806 0.0
C3676 C 0.32985 0.95273 0.50475 0.0
C3677 C 0.38725 0.92863 0.46018 0.0
C3678 C 0.38464 0.94402 0.45441 0.0
C3679 C 0.3465 0.95765 0.55179 0.0
C3680 C 0.42067 0.93162 0.56731 0.0
C3681 C 0.4447 0.92971 0.58447 0.0
C3682 C 0.45438 0.9368 0.57201 0.0
C3683 C 0.43093 0.93893 0.5554 0.0
C3684 C 0.42766 0.92723 0.58211 0.0
C3685 C 0.44755 0.94146 0.55773 0.0
C3686 C 0.34972 0.91979 0.53893 0.0
C3687 C 0.40281 0.92898 0.56423 0.0
H3688 H 0.28105 0.96936 0.54451 0.0
H3689 H 0.30826 0.93222 0.52185 0.0
H3690 H 0.28649 0.94036 0.54062 0.0
H3691 H 0.31909 0.98235 0.50996 0.0
H3692 H 0.46735 0.93902 0.57345 0.0
H3693 H 0.42609 0.94286 0.54424 0.0
H3694 H 0.41998 0.92179 0.59158 0.0
H3695 H 0.45522 0.94713 0.54838 0.0
Tb3696 Tb 0.19313 0.35554 0.50673 0.0
C3697 C 0.18658 0.37728 0.5894 0.0
N3698 N 0.18191 0.38211 0.57481 0.0
C3699 C 0.15918 0.39427 0.58765 0.0
C3700 C 0.17735 0.38003 0.60368 0.0
C3701 C 0.16896 0.39145 0.57394 0.0
C3702 C 0.1632 0.38823 0.60255 0.0
C3703 C 0.20786 0.36752 0.60525 0.0
C3704 C 0.20151 0.37127 0.59017 0.0
C3705 C 0.19839 0.36926 0.61945 0.0
C3706 C 0.1831 0.37547 0.61866 0.0
Tb3707 Tb 0.19834 0.3776 0.5526 0.0
N3708 N 0.21043 0.3706 0.57625 0.0
C3709 C 0.22381 0.36302 0.60569 0.0
C3710 C 0.22652 0.36772 0.57699 0.0
C3711 C 0.23329 0.36344 0.59152 0.0
H3712 H 0.16609 0.3967 0.56258 0.0
H3713 H 0.24593 0.36088 0.59183 0.0
H3714 H 0.23345 0.35728 0.49853 0.0
H3715 H 0.14425 0.38195 0.47633 0.0
H3716 H 0.23454 0.36923 0.56663 0.0
H3717 H 0.22915 0.36002 0.617 0.0
H3718 H 0.15599 0.36307 0.49446 0.0
H3719 H 0.14868 0.4013 0.58674 0.0
H3720 H 0.20301 0.36641 0.63114 0.0
H3721 H 0.17614 0.37734 0.62976 0.0
H3722 H 0.25252 0.37186 0.48006 0.0
H3723 H 0.15579 0.39065 0.61322 0.0
H3724 H 0.16215 0.39983 0.45914 0.0
N3725 N 0.21268 0.3689 0.49081 0.0
C3726 C 0.20703 0.37938 0.48021 0.0
C3727 C 0.23978 0.37411 0.47999 0.0
C3728 C 0.2176 0.38738 0.46886 0.0
C3729 C 0.22885 0.36598 0.49063 0.0
C3730 C 0.23415 0.38486 0.46906 0.0
N3731 N 0.18037 0.37241 0.49036 0.0
C3732 C 0.16399 0.37184 0.48831 0.0
C3733 C 0.18418 0.39137 0.46853 0.0
C3734 C 0.19044 0.38131 0.4801 0.0
C3735 C 0.1674 0.3922 0.46781 0.0
C3736 C 0.15726 0.38217 0.47754 0.0
H3737 H 0.24263 0.39092 0.46062 0.0
H3738 H 0.2192 0.40321 0.44832 0.0
H3739 H 0.19007 0.40715 0.44833 0.0
O3740 O 0.18082 0.33423 0.49728 0.0
O3741 O 0.20879 0.37606 0.51557 0.0
O3742 O 0.19234 0.39027 0.53096 0.0
O3743 O 0.20141 0.34526 0.4848 0.0
O3744 O 0.16852 0.36277 0.51949 0.0
O3745 O 0.17116 0.37108 0.54736 0.0
O3746 O 0.22014 0.3932 0.55203 0.0
O3747 O 0.19159 0.35757 0.53751 0.0
O3748 O 0.18845 0.33604 0.52357 0.0
O3749 O 0.1966 0.40227 0.54968 0.0
O3750 O 0.21906 0.36123 0.54465 0.0
O3751 O 0.21552 0.34751 0.51918 0.0
C3752 C 0.2023 0.38976 0.51854 0.0
C3753 C 0.19989 0.317 0.48596 0.0
C3754 C 0.19725 0.28779 0.4817 0.0
C3755 C 0.21348 0.28665 0.48564 0.0
C3756 C 0.21626 0.31598 0.48988 0.0
C3757 C 0.22298 0.30082 0.48979 0.0
C3758 C 0.19061 0.30297 0.48199 0.0
C3759 C 0.16173 0.36725 0.5342 0.0
C3760 C 0.19194 0.33236 0.48615 0.0
C3761 C 0.21131 0.39724 0.45733 0.0
C3762 C 0.19471 0.3995 0.45736 0.0
C3763 C 0.18954 0.34182 0.53805 0.0
C3764 C 0.21643 0.42126 0.56025 0.0
C3765 C 0.23653 0.44198 0.57051 0.0
C3766 C 0.22397 0.45225 0.57406 0.0
C3767 C 0.2042 0.43193 0.56405 0.0
C3768 C 0.23271 0.42635 0.56363 0.0
C3769 C 0.20798 0.44723 0.57089 0.0
C3770 C 0.22409 0.3509 0.53271 0.0
C3771 C 0.21202 0.4061 0.55081 0.0
H3772 H 0.21874 0.27499 0.48543 0.0
H3773 H 0.22381 0.32678 0.49304 0.0
H3774 H 0.23555 0.30008 0.49287 0.0
H3775 H 0.17802 0.30389 0.47897 0.0
H3776 H 0.22648 0.46413 0.57972 0.0
H3777 H 0.19161 0.42867 0.56142 0.0
H3778 H 0.24231 0.41841 0.56071 0.0
H3779 H 0.19846 0.45527 0.57372 0.0
Tb3780 Tb 0.38527 0.21134 0.53909 0.0
C3781 C 0.36597 0.24172 0.59885 0.0
N3782 N 0.37733 0.23098 0.59483 0.0
C3783 C 0.39746 0.24842 0.60857 0.0
C3784 C 0.37035 0.25691 0.60638 0.0
C3785 C 0.39235 0.23345 0.6014 0.0
C3786 C 0.38653 0.26045 0.61055 0.0
C3787 C 0.33755 0.24753 0.60087 0.0
C3788 C 0.34969 0.23705 0.59641 0.0
C3789 C 0.34199 0.263 0.60755 0.0
C3790 C 0.35834 0.26768 0.61026 0.0
Tb3791 Tb 0.36714 0.20673 0.58321 0.0
N3792 N 0.3459 0.2224 0.58881 0.0
C3793 C 0.32132 0.24207 0.59859 0.0
C3794 C 0.3301 0.21698 0.58652 0.0
C3795 C 0.31756 0.22659 0.59177 0.0
H3796 H 0.39999 0.22357 0.60241 0.0
H3797 H 0.30505 0.22225 0.59011 0.0
H3798 H 0.35815 0.19789 0.51197 0.0
H3799 H 0.44945 0.20339 0.54271 0.0
H3800 H 0.32718 0.2051 0.58114 0.0
H3801 H 0.31161 0.2497 0.60208 0.0
H3802 H 0.42438 0.21697 0.54812 0.0
H3803 H 0.40959 0.25036 0.61324 0.0
H3804 H 0.33285 0.27133 0.61089 0.0
H3805 H 0.36153 0.27947 0.61585 0.0
H3806 H 0.35643 0.17731 0.4897 0.0
H3807 H 0.39039 0.27193 0.61641 0.0
H3808 H 0.44953 0.18043 0.52282 0.0
N3809 N 0.38249 0.19364 0.5175 0.0
C3810 C 0.3957 0.18536 0.51344 0.0
C3811 C 0.36757 0.17956 0.49623 0.0
C3812 C 0.3954 0.17389 0.50049 0.0
C3813 C 0.36854 0.19107 0.50901 0.0
C3814 C 0.38105 0.17097 0.49192 0.0
N3815 N 0.4095 0.19998 0.53438 0.0
C3816 C 0.4238 0.206 0.54087 0.0
C3817 C 0.42398 0.18105 0.51779 0.0
C3818 C 0.40969 0.18865 0.52217 0.0
C3819 C 0.43827 0.1859 0.52586 0.0
C3820 C 0.43825 0.19873 0.5372 0.0
H3821 H 0.38027 0.16219 0.48193 0.0
H3822 H 0.4094 0.15691 0.48657 0.0
H3823 H 0.4345 0.16336 0.5016 0.0
O3824 O 0.40082 0.23254 0.53769 0.0
O3825 O 0.38534 0.1847 0.54689 0.0
O3826 O 0.37214 0.18164 0.57215 0.0
O3827 O 0.38778 0.22262 0.51633 0.0
O3828 O 0.39554 0.22209 0.56131 0.0
O3829 O 0.39278 0.20301 0.5796 0.0
O3830 O 0.35216 0.19249 0.59854 0.0
O3831 O 0.35821 0.22754 0.5683 0.0
O3832 O 0.36553 0.22877 0.54119 0.0
O3833 O 0.37407 0.20393 0.60765 0.0
O3834 O 0.35182 0.19363 0.56572 0.0
O3835 O 0.35905 0.20551 0.5408 0.0
C3836 C 0.37918 0.17506 0.55881 0.0
C3837 C 0.40556 0.24742 0.51279 0.0
C3838 C 0.42778 0.26822 0.50817 0.0
C3839 C 0.4194 0.27337 0.49475 0.0
C3840 C 0.39766 0.25276 0.49929 0.0
C3841 C 0.40448 0.26575 0.49045 0.0
C3842 C 0.42054 0.25531 0.51732 0.0
C3843 C 0.4023 0.21324 0.57165 0.0
C3844 C 0.39783 0.23402 0.52237 0.0
C3845 C 0.40941 0.16579 0.49647 0.0
C3846 C 0.42368 0.1694 0.50508 0.0
C3847 C 0.35762 0.23477 0.55398 0.0
C3848 C 0.35189 0.19964 0.6266 0.0
C3849 C 0.32334 0.19699 0.63227 0.0
C3850 C 0.32595 0.1888 0.64659 0.0
C3851 C 0.35485 0.19113 0.6406 0.0
C3852 C 0.33669 0.20603 0.62563 0.0
C3853 C 0.3419 0.18672 0.65126 0.0
C3854 C 0.34898 0.19722 0.55071 0.0
C3855 C 0.3608 0.19554 0.61134 0.0
H3856 H 0.42463 0.28286 0.48706 0.0
H3857 H 0.38609 0.24699 0.49566 0.0
H3858 H 0.39832 0.26977 0.48001 0.0
H3859 H 0.42666 0.25118 0.52776 0.0
H3860 H 0.31597 0.18215 0.65273 0.0
H3861 H 0.3666 0.18649 0.64238 0.0
H3862 H 0.33449 0.2133 0.61564 0.0
H3863 H 0.34399 0.17968 0.66179 0.0
Tb3864 Tb 0.94103 0.3574 0.59252 0.0
C3865 C 0.95789 0.38173 0.5169 0.0
N3866 N 0.95584 0.38851 0.53187 0.0
C3867 C 0.97522 0.41048 0.5252 0.0
C3868 C 0.96924 0.38869 0.50566 0.0
C3869 C 0.96372 0.40315 0.53586 0.0
C3870 C 0.97817 0.40309 0.5101 0.0
C3871 C 0.94907 0.36125 0.49688 0.0
C3872 C 0.94785 0.36831 0.51256 0.0
C3873 C 0.9608 0.36771 0.4858 0.0
C3874 C 0.97086 0.38143 0.49018 0.0
Tb3875 Tb 0.93564 0.37665 0.54777 0.0
N3876 N 0.9365 0.36257 0.52354 0.0
C3877 C 0.93823 0.34814 0.4927 0.0
C3878 C 0.92566 0.34998 0.51935 0.0
C3879 C 0.92649 0.34249 0.50398 0.0
H3880 H 0.96136 0.40904 0.54743 0.0
H3881 H 0.91792 0.33247 0.50078 0.0
H3882 H 0.90214 0.35501 0.60431 0.0
H3883 H 0.99358 0.39303 0.61673 0.0
H3884 H 0.91627 0.34562 0.52767 0.0
H3885 H 0.93865 0.34246 0.48072 0.0
H3886 H 0.98033 0.37132 0.60031 0.0
H3887 H 0.98171 0.42186 0.52858 0.0
H3888 H 0.96197 0.3624 0.47372 0.0
H3889 H 0.97957 0.38653 0.48139 0.0
H3890 H 0.88524 0.36752 0.62523 0.0
H3891 H 0.98699 0.40885 0.50179 0.0
H3892 H 0.97771 0.40868 0.63656 0.0
N3893 N 0.92382 0.36898 0.6107 0.0
C3894 C 0.93086 0.3799 0.62146 0.0
C3895 C 0.89802 0.37124 0.6242 0.0
C3896 C 0.92153 0.38738 0.6337 0.0
C3897 C 0.90769 0.36426 0.61218 0.0
C3898 C 0.90493 0.38292 0.63494 0.0
N3899 N 0.95622 0.37584 0.60851 0.0
C3900 C 0.97276 0.37859 0.60787 0.0
C3901 C 0.95491 0.39572 0.63055 0.0
C3902 C 0.94744 0.3838 0.62004 0.0
C3903 C 0.97158 0.39943 0.62889 0.0
C3904 C 0.98055 0.39069 0.61764 0.0
H3905 H 0.89737 0.38835 0.6442 0.0
H3906 H 0.92198 0.40513 0.65353 0.0
H3907 H 0.95113 0.41267 0.65057 0.0
O3908 O 0.94976 0.34836 0.61393 0.0
O3909 O 0.92919 0.38009 0.5872 0.0
O3910 O 0.94288 0.39441 0.56775 0.0
O3911 O 0.9314 0.33461 0.6004 0.0
O3912 O 0.96578 0.36279 0.57831 0.0
O3913 O 0.96301 0.37624 0.55348 0.0
O3914 O 0.92231 0.38717 0.52959 0.0
O3915 O 0.93866 0.35774 0.5627 0.0
O3916 O 0.9496 0.33961 0.57484 0.0
O3917 O 0.91976 0.39485 0.55445 0.0
O3918 O 0.9149 0.35564 0.55438 0.0
O3919 O 0.91704 0.34678 0.58135 0.0
C3920 C 0.93744 0.3937 0.58293 0.0
C3921 C 0.95327 0.32089 0.6086 0.0
C3922 C 0.98038 0.31311 0.60191 0.0
C3923 C 0.97497 0.29666 0.60282 0.0
C3924 C 0.94776 0.30449 0.60958 0.0
C3925 C 0.95858 0.29239 0.60637 0.0
C3926 C 0.96928 0.32493 0.60377 0.0
C3927 C 0.9725 0.36992 0.56471 0.0
C3928 C 0.9425 0.33409 0.61119 0.0
C3929 C 0.92898 0.39916 0.64418 0.0
C3930 C 0.94558 0.40345 0.64248 0.0
C3931 C 0.94511 0.3439 0.56101 0.0
C3932 C 0.92142 0.41574 0.53439 0.0
C3933 C 0.92164 0.43826 0.51483 0.0
C3934 C 0.93151 0.44777 0.52563 0.0
C3935 C 0.93085 0.42612 0.54479 0.0
C3936 C 0.91685 0.42192 0.5192 0.0
C3937 C 0.93595 0.44181 0.54036 0.0
C3938 C 0.90923 0.34586 0.56707 0.0
C3939 C 0.9173 0.39845 0.53938 0.0
H3940 H 0.98345 0.28727 0.60155 0.0
H3941 H 0.93522 0.30111 0.6127 0.0
H3942 H 0.95438 0.27973 0.60718 0.0
H3943 H 0.97358 0.33755 0.60237 0.0
H3944 H 0.93599 0.45999 0.52264 0.0
H3945 H 0.93463 0.42208 0.55638 0.0
H3946 H 0.90954 0.41419 0.51101 0.0
H3947 H 0.94349 0.44944 0.54843 0.0
Tb3948 Tb 0.18798 0.74175 0.5594 0.0
C3949 C 0.19761 0.73769 0.48593 0.0
N3950 N 0.20395 0.74778 0.49781 0.0
C3951 C 0.23083 0.74412 0.48736 0.0
C3952 C 0.20776 0.7301 0.47448 0.0
C3953 C 0.22033 0.75137 0.49843 0.0
C3954 C 0.22454 0.73342 0.47535 0.0
C3955 C 0.17401 0.72364 0.47373 0.0
C3956 C 0.18089 0.73463 0.48547 0.0
C3957 C 0.18408 0.71606 0.46236 0.0
C3958 C 0.2009 0.71933 0.46269 0.0
Tb3959 Tb 0.18543 0.76043 0.5137 0.0
N3960 N 0.1714 0.74259 0.49634 0.0
C3961 C 0.15717 0.72076 0.47355 0.0
C3962 C 0.15486 0.74057 0.4954 0.0
C3963 C 0.14757 0.72935 0.48436 0.0
H3964 H 0.22548 0.75982 0.50736 0.0
H3965 H 0.13449 0.72765 0.48391 0.0
H3966 H 0.16336 0.70866 0.55897 0.0
H3967 H 0.20084 0.78824 0.60558 0.0
H3968 H 0.14703 0.74788 0.50262 0.0
H3969 H 0.15145 0.71227 0.46484 0.0
H3970 H 0.20378 0.77503 0.5788 0.0
H3971 H 0.24379 0.74689 0.48802 0.0
H3972 H 0.17895 0.70774 0.45317 0.0
H3973 H 0.2085 0.71337 0.45384 0.0
H3974 H 0.14318 0.69493 0.57733 0.0
H3975 H 0.23273 0.72782 0.4668 0.0
H3976 H 0.18084 0.77675 0.62565 0.0
N3977 N 0.16774 0.72927 0.57475 0.0
C3978 C 0.16516 0.73581 0.58971 0.0
C3979 C 0.14913 0.70652 0.58091 0.0
C3980 C 0.15398 0.72825 0.60076 0.0
C3981 C 0.16048 0.71442 0.57048 0.0
C3982 C 0.14573 0.71355 0.59607 0.0
N3983 N 0.18541 0.75619 0.58327 0.0
C3984 C 0.1949 0.76985 0.58723 0.0
C3985 C 0.17233 0.75687 0.60971 0.0
C3986 C 0.17435 0.74975 0.59417 0.0
C3987 C 0.18196 0.77091 0.6138 0.0
C3988 C 0.19327 0.77743 0.6025 0.0
H3989 H 0.13707 0.70733 0.60421 0.0
H3990 H 0.14325 0.72976 0.6249 0.0
H3991 H 0.15922 0.75493 0.63272 0.0
O3992 O 0.2003 0.73098 0.57822 0.0
O3993 O 0.1856 0.76149 0.54504 0.0
O3994 O 0.17597 0.77842 0.5304 0.0
O3995 O 0.20492 0.72431 0.55339 0.0
O3996 O 0.20917 0.7626 0.55345 0.0
O3997 O 0.20797 0.7717 0.52649 0.0
O3998 O 0.17737 0.76982 0.49215 0.0
O3999 O 0.19622 0.73779 0.52063 0.0
O4000 O 0.18122 0.724 0.53947 0.0
O4001 O 0.19709 0.78205 0.50495 0.0
O4002 O 0.1599 0.75471 0.52641 0.0
O4003 O 0.16116 0.74098 0.55132 0.0
C4004 C 0.17852 0.77505 0.54507 0.0
C4005 C 0.20366 0.70265 0.57283 0.0
C4006 C 0.20451 0.67951 0.59168 0.0
C4007 C 0.19785 0.6692 0.57937 0.0
C4008 C 0.19696 0.69161 0.56113 0.0
C4009 C 0.19406 0.67518 0.5644 0.0
C4010 C 0.20728 0.69646 0.58838 0.0
C4011 C 0.21526 0.77249 0.54098 0.0
C4012 C 0.20662 0.72037 0.5685 0.0
C4013 C 0.15179 0.73535 0.61623 0.0
C4014 C 0.16093 0.74966 0.6207 0.0
C4015 C 0.18731 0.72451 0.52458 0.0
C4016 C 0.17792 0.798 0.49441 0.0
C4017 C 0.15223 0.80935 0.50102 0.0
C4018 C 0.15749 0.82341 0.49252 0.0
C4019 C 0.18312 0.81184 0.48583 0.0
C4020 C 0.16328 0.79764 0.5031 0.0
C4021 C 0.17307 0.8248 0.48538 0.0
C4022 C 0.15236 0.74722 0.53946 0.0
C4023 C 0.18662 0.78316 0.49365 0.0
H4024 H 0.19541 0.65634 0.58141 0.0
H4025 H 0.19387 0.69562 0.54928 0.0
H4026 H 0.18885 0.66696 0.55519 0.0
H4027 H 0.2124 0.70466 0.59766 0.0
H4028 H 0.14937 0.83285 0.49049 0.0
H4029 H 0.19463 0.81248 0.47927 0.0
H4030 H 0.15962 0.78708 0.51001 0.0
H4031 H 0.17696 0.8355 0.47864 0.0
H4032 H 0.06561 0.24325 0.62724 0.0
H4033 H 0.06221 0.24264 0.59766 0.0
H4034 H 0.11302 0.25563 0.59093 0.0
H4035 H 0.11636 0.25651 0.62048 0.0
H4036 H 0.0644 0.26317 0.57235 0.0
H4037 H 0.11153 0.22166 0.55543 0.0
H4038 H 0.10501 0.22472 0.57624 0.0
H4039 H 0.119 0.23939 0.56673 0.0
C4040 C 0.07628 0.24596 0.61968 0.0
C4041 C 0.09141 0.24993 0.62746 0.0
C4042 C 0.07425 0.24563 0.6022 0.0
C4043 C 0.08723 0.24881 0.59069 0.0
C4044 C 0.1024 0.25268 0.59846 0.0
H4045 H 0.09577 0.23794 0.47808 0.0
H4046 H 0.0996 0.23931 0.50737 0.0
C4047 C 0.10437 0.25333 0.61597 0.0
C4048 C 0.08473 0.24853 0.57124 0.0
H4049 H 0.09926 0.23384 0.53391 0.0
C4050 C 0.07217 0.25668 0.56408 0.0
C4051 C 0.09447 0.2404 0.55927 0.0
C4052 C 0.10819 0.23091 0.56471 0.0
C4053 C 0.06953 0.25753 0.54667 0.0
C4054 C 0.07893 0.24895 0.53446 0.0
C4055 C 0.09145 0.2406 0.54184 0.0
C4056 C 0.07647 0.24862 0.51474 0.0
C4057 C 0.05683 0.26862 0.54194 0.0
C4058 C 0.06223 0.25306 0.50663 0.0
C4059 C 0.06059 0.25345 0.48915 0.0
C4060 C 0.0725 0.24837 0.47768 0.0
C4061 C 0.08629 0.24284 0.48554 0.0
C4062 C 0.08834 0.24331 0.50307 0.0
H4063 H 0.05401 0.27741 0.55185 0.0
H4064 H 0.06094 0.27577 0.53124 0.0
H4065 H 0.0454 0.26127 0.53933 0.0
H4066 H 0.05166 0.25603 0.51354 0.0
H4067 H 0.04948 0.25765 0.48465 0.0
H4068 H 0.83946 1.01411 0.65312 0.0
H4069 H 0.84075 1.01514 0.62319 0.0
H4070 H 0.88849 0.03892 0.62557 0.0
H4071 H 0.8869 0.03836 0.6553 0.0
H4072 H 0.84289 0.0381 0.59861 0.0
H4073 H 0.8995 1.00747 0.58953 0.0
H4074 H 0.88897 1.00784 0.60892 0.0
H4075 H 0.90177 1.02516 0.60264 0.0
C4076 C 0.85033 1.01962 0.64749 0.0
C4077 C 0.86294 0.02625 0.65784 0.0
C4078 C 0.85112 1.02026 0.62981 0.0
C4079 C 0.86486 0.02702 0.62069 0.0
C4080 C 0.87757 0.03334 0.63109 0.0
H4081 H 0.89322 0.03683 0.51031 0.0
H4082 H 0.89277 0.03642 0.54031 0.0
C4083 C 0.87656 0.03315 0.64873 0.0
C4084 C 0.86575 0.0277 0.601 0.0
H4085 H 0.88945 1.01935 0.56629 0.0
C4086 C 0.85317 0.0338 0.5918 0.0
C4087 C 0.87894 1.02256 0.59075 0.0
C4088 C 0.89302 1.01525 0.59836 0.0
C4089 C 0.85348 0.03519 0.57415 0.0
C4090 C 0.86649 0.02969 0.56378 0.0
C4091 C 0.87914 1.02365 0.57304 0.0
C4092 C 0.86706 0.03007 0.544 0.0
C4093 C 0.83981 0.04355 0.56695 0.0
C4094 C 0.85316 0.02668 0.53412 0.0
C4095 C 0.85345 0.02717 0.51655 0.0
C4096 C 0.86766 0.03054 0.5067 0.0
C4097 C 0.8817 0.03401 0.51644 0.0
C4098 C 0.88143 0.03365 0.5342 0.0
H4099 H 0.83452 0.05214 0.57586 0.0
H4100 H 0.84392 0.05044 0.55608 0.0
H4101 H 0.83002 0.03431 0.56352 0.0
H4102 H 0.84163 1.02335 0.53995 0.0
H4103 H 0.84204 1.02525 0.51065 0.0
H4104 H 0.06766 0.85415 0.61611 0.0
H4105 H 0.06237 0.8544 0.58703 0.0
H4106 H 1.02238 0.88401 0.59691 0.0
H4107 H 0.0272 0.88292 0.62598 0.0
H4108 H 0.06329 0.86696 0.56159 0.0
H4109 H 0.99666 0.86495 0.56385 0.0
H4110 H 1.00536 0.88213 0.57505 0.0
H4111 H 1.00796 0.86178 0.58169 0.0
C4112 C 0.05753 0.86066 0.61235 0.0
C4113 C 0.04799 0.86837 0.62461 0.0
C4114 C 0.05441 0.86088 0.59507 0.0
C4115 C 0.04142 0.86885 0.58813 0.0
C4116 C 0.0321 0.8769 0.60049 0.0
H4117 H 1.00368 0.85502 0.48214 0.0
H4118 H 1.00768 0.8553 0.51172 0.0
C4119 C 0.03512 0.87653 0.61781 0.0
C4120 C 0.03828 0.86887 0.56865 0.0
H4121 H 1.00907 0.87038 0.5385 0.0
C4122 C 0.05123 0.86765 0.55695 0.0
C4123 C 1.02278 0.8695 0.56089 0.0
C4124 C 1.00736 0.8695 0.57095 0.0
C4125 C 0.04945 0.86716 0.53934 0.0
C4126 C 0.03409 0.86851 0.53159 0.0
C4127 C 1.02108 0.86955 0.54324 0.0
C4128 C 0.03131 0.8685 0.51209 0.0
C4129 C 0.06446 0.86437 0.52926 0.0
C4130 C 0.04258 0.87594 0.50059 0.0
C4131 C 0.04027 0.87562 0.48318 0.0
C4132 C 0.02629 0.86816 0.47534 0.0
C4133 C 1.01475 0.86102 0.48675 0.0
C4134 C 1.01713 0.86123 0.50425 0.0
H4135 H 0.07339 0.85806 0.53619 0.0
H4136 H 0.06154 0.85695 0.51816 0.0
H4137 H 0.07037 0.87627 0.52573 0.0
H4138 H 0.05344 0.88247 0.50498 0.0
H4139 H 0.04979 0.88145 0.47574 0.0
H4140 H 0.2315 0.07301 0.60594 0.0
H4141 H 0.2341 0.07461 0.57605 0.0
H4142 H 0.27815 0.1048 0.58117 0.0
H4143 H 0.27578 0.10259 0.61051 0.0
H4144 H 0.23361 0.094 0.5509 0.0
H4145 H 0.29736 0.07986 0.54641 0.0
H4146 H 0.28602 0.078 0.56522 0.0
H4147 H 0.29526 0.09746 0.55924 0.0
C4148 C 0.2419 0.07997 0.6009 0.0
C4149 C 0.25331 0.08787 0.61187 0.0
C4150 C 0.24342 0.08097 0.58325 0.0
C4151 C 0.25665 0.08967 0.57491 0.0
C4152 C 0.2679 0.0975 0.58598 0.0
H4153 H 0.28997 0.11181 0.46835 0.0
H4154 H 0.28659 0.11043 0.49817 0.0
C4155 C 0.26632 0.09654 0.60346 0.0
C4156 C 0.25868 0.09082 0.55534 0.0
H4157 H 0.28689 0.09098 0.5229 0.0
C4158 C 0.24539 0.09315 0.54506 0.0
C4159 C 0.27377 0.08987 0.54627 0.0
C4160 C 0.28888 0.08599 0.55478 0.0
C4161 C 0.2467 0.09493 0.52747 0.0
C4162 C 0.26183 0.09412 0.51843 0.0
C4163 C 0.27509 0.09181 0.52873 0.0
C4164 C 0.26405 0.09534 0.49887 0.0
C4165 C 0.23151 0.09842 0.51885 0.0
C4166 C 0.25309 0.0874 0.48758 0.0
C4167 C 0.25516 0.08817 0.47011 0.0
C4168 C 0.26838 0.09687 0.46197 0.0
C4169 C 0.27941 0.10496 0.47317 0.0
C4170 C 0.27744 0.10405 0.49079 0.0
H4171 H 0.2228 0.10432 0.52716 0.0
H4172 H 0.23426 0.10645 0.50843 0.0
H4173 H 0.22546 0.08682 0.51433 0.0
H4174 H 0.24275 0.08007 0.49219 0.0
H4175 H 0.24593 0.08188 0.46286 0.0
H4176 H 0.64426 0.03937 0.26198 0.0
H4177 H 0.61486 0.03811 0.25781 0.0
H4178 H 0.6203 0.08333 0.23317 0.0
H4179 H 0.64974 0.085 0.23812 0.0
H4180 H 0.58799 0.05765 0.26715 0.0
H4181 H 0.59107 0.0578 0.20022 0.0
H4182 H 0.60857 0.05432 0.21201 0.0
H4183 H 0.60218 0.07453 0.21022 0.0
C4184 C 0.63949 0.04923 0.25569 0.0
C4185 C 0.65049 0.06236 0.25061 0.0
C4186 C 0.62212 0.04847 0.25322 0.0
C4187 C 0.61412 0.06045 0.24482 0.0
C4188 C 0.62514 0.07351 0.23952 0.0
H4189 H 0.50682 0.07342 0.21888 0.0
H4190 H 0.53647 0.0761 0.22159 0.0
C4191 C 0.64248 0.07454 0.2425 0.0
C4192 C 0.59482 0.05928 0.24194 0.0
H4193 H 0.56493 0.05853 0.21238 0.0
C4194 C 0.58327 0.05767 0.25502 0.0
C4195 C 0.58729 0.05975 0.22638 0.0
C4196 C 0.59782 0.06158 0.21133 0.0
C4197 C 0.56574 0.0568 0.25311 0.0
C4198 C 0.55819 0.05638 0.23759 0.0
C4199 C 0.56971 0.05829 0.22448 0.0
C4200 C 0.53883 0.05432 0.2351 0.0
C4201 C 0.55514 0.05765 0.26806 0.0
C4202 C 0.52864 0.04102 0.24119 0.0
C4203 C 0.51118 0.03927 0.23928 0.0
C4204 C 0.50217 0.05069 0.23119 0.0
C4205 C 0.51238 0.06394 0.225 0.0
C4206 C 0.5299 0.06558 0.2267 0.0
H4207 H 0.56227 0.05956 0.27925 0.0
H4208 H 0.54701 0.06773 0.26717 0.0
H4209 H 0.54732 0.04632 0.26883 0.0
H4210 H 0.53423 0.03155 0.24739 0.0
H4211 H 0.50467 0.02867 0.24424 0.0
H4212 H 0.04254 0.62625 0.23122 0.0
H4213 H 0.0408 0.59629 0.23119 0.0
H4214 H 0.09208 0.59753 0.23884 0.0
H4215 H 0.09345 0.62707 0.24016 0.0
H4216 H 0.04566 0.56898 0.21894 0.0
H4217 H 0.08785 0.56333 0.26763 0.0
H4218 H 0.08094 0.58285 0.26317 0.0
H4219 H 0.09774 0.57483 0.25165 0.0
C4220 C 0.05357 0.6203 0.23314 0.0
C4221 C 0.0682 0.6303 0.23592 0.0
C4222 C 0.05256 0.60256 0.23308 0.0
C4223 C 0.06609 0.59298 0.23563 0.0
C4224 C 0.08078 0.60314 0.23776 0.0
H4225 H 0.08758 0.4843 0.24208 0.0
H4226 H 0.08809 0.514 0.23964 0.0
C4227 C 0.08171 0.6208 0.23822 0.0
C4228 C 0.06494 0.57313 0.23595 0.0
H4229 H 0.08185 0.53984 0.25306 0.0
C4230 C 0.05369 0.56295 0.22661 0.0
C4231 C 0.07475 0.56358 0.2457 0.0
C4232 C 0.0859 0.57174 0.25775 0.0
C4233 C 0.05251 0.5451 0.22649 0.0
C4234 C 0.0627 0.53572 0.23615 0.0
C4235 C 0.07385 0.54588 0.24534 0.0
C4236 C 0.06224 0.51605 0.23716 0.0
C4237 C 0.04041 0.53653 0.2153 0.0
C4238 C 0.04779 0.50542 0.23678 0.0
C4239 C 0.04756 0.48788 0.23801 0.0
C4240 C 0.06165 0.47914 0.24027 0.0
C4241 C 0.07615 0.48966 0.24054 0.0
C4242 C 0.07641 0.50724 0.23918 0.0
H4243 H 0.03749 0.54435 0.20518 0.0
H4244 H 0.04498 0.52515 0.21009 0.0
H4245 H 0.02897 0.53351 0.22221 0.0
H4246 H 0.03624 0.51061 0.23584 0.0
H4247 H 0.03595 0.4811 0.23721 0.0
H4248 H 0.61805 0.05406 0.89425 0.0
H4249 H 0.5885 0.05077 0.89085 0.0
H4250 H 0.59317 0.08007 0.8486 0.0
H4251 H 0.62265 0.08338 0.85203 0.0
H4252 H 0.56223 0.07231 0.89044 0.0
H4253 H 0.56335 0.04321 0.82931 0.0
H4254 H 0.57926 0.04113 0.84362 0.0
H4255 H 0.57813 0.05978 0.83337 0.0
C4256 C 0.61308 0.05973 0.88404 0.0
C4257 C 0.62384 0.06886 0.87338 0.0
C4258 C 0.59566 0.05787 0.88209 0.0
C4259 C 0.58749 0.06474 0.86913 0.0
C4260 C 0.59824 0.07398 0.85855 0.0
H4261 H 0.48377 0.05645 0.82971 0.0
H4262 H 0.51308 0.05973 0.83432 0.0
C4263 C 0.61559 0.07601 0.86064 0.0
C4264 C 0.56825 0.06263 0.8669 0.0
H4265 H 0.53803 0.04936 0.83986 0.0
C4266 C 0.55711 0.06728 0.87927 0.0
C4267 C 0.56047 0.05605 0.85257 0.0
C4268 C 0.57074 0.0496 0.8389 0.0
C4269 C 0.53956 0.06626 0.87766 0.0
C4270 C 0.53159 0.05955 0.86327 0.0
C4271 C 0.54291 0.05468 0.85099 0.0
C4272 C 0.5122 0.05766 0.86051 0.0
C4273 C 0.52997 0.07324 0.89157 0.0
C4274 C 0.50009 0.05513 0.87312 0.0
C4275 C 0.48279 0.05386 0.87041 0.0
C4276 C 0.47593 0.05415 0.85476 0.0
C4277 C 0.48785 0.05606 0.84205 0.0
C4278 C 0.50515 0.05791 0.84481 0.0
H4279 H 0.53749 0.08226 0.89888 0.0
H4280 H 0.51941 0.07935 0.88723 0.0
H4281 H 0.52571 0.06333 0.89979 0.0
H4282 H 0.50379 0.05368 0.88539 0.0
H4283 H 0.47467 0.05218 0.8808 0.0
H4284 H 0.05871 0.63681 0.87908 0.0
H4285 H 0.05554 0.607 0.88035 0.0
H4286 H 0.0694 0.60333 0.82995 0.0
H4287 H 0.07219 0.63294 0.82886 0.0
H4288 H 0.0395 0.5816 0.87207 0.0
H4289 H 0.09575 0.56842 0.83927 0.0
H4290 H 0.09156 0.58886 0.84513 0.0
H4291 H 0.08351 0.57965 0.82665 0.0
C4292 C 0.06127 0.62981 0.86817 0.0
C4293 C 0.06654 0.63825 0.85392 0.0
C4294 C 0.05943 0.61225 0.86891 0.0
C4295 C 0.06271 0.60159 0.85546 0.0
C4296 C 0.06746 0.61015 0.8411 0.0
H4297 H 0.04085 0.49256 0.83413 0.0
H4298 H 0.04571 0.52232 0.83343 0.0
C4299 C 0.06928 0.62765 0.84041 0.0
C4300 C 0.06062 0.58213 0.8563 0.0
H4301 H 0.07629 0.54588 0.84234 0.0
C4302 C 0.04781 0.57407 0.86555 0.0
C4303 C 0.07112 0.57106 0.84825 0.0
C4304 C 0.08635 0.5774 0.83944 0.0
C4305 C 0.04509 0.55654 0.86653 0.0
C4306 C 0.05518 0.54556 0.858 0.0
C4307 C 0.06807 0.55352 0.84887 0.0
C4308 C 0.05245 0.52623 0.85847 0.0
C4309 C 0.03097 0.54971 0.87663 0.0
C4310 C 0.05449 0.51706 0.87263 0.0
C4311 C 0.05188 0.49953 0.87299 0.0
C4312 C 0.04674 0.48971 0.85929 0.0
C4313 C 0.04465 0.49894 0.84518 0.0
C4314 C 0.04757 0.51641 0.84473 0.0
H4315 H 1.02296 0.55925 0.88096 0.0
H4316 H 0.02371 0.54033 0.86951 0.0
H4317 H 0.03558 0.54375 0.88733 0.0
H4318 H 0.05825 0.5235 0.88365 0.0
H4319 H 0.05357 0.49372 0.88433 0.0
H4320 H 0.25329 0.61223 0.10061 0.0
H4321 H 0.25236 0.58245 0.09971 0.0
H4322 H 0.23884 0.58253 0.04978 0.0
H4323 H 0.23946 0.61223 0.05099 0.0
H4324 H 0.26398 0.55704 0.09091 0.0
H4325 H 0.20987 0.54519 0.05387 0.0
H4326 H 0.22517 0.55756 0.04344 0.0
H4327 H 0.21558 0.56527 0.06169 0.0
C4328 C 0.25001 0.60616 0.08933 0.0
C4329 C 0.24635 0.61598 0.07601 0.0
C4330 C 0.24943 0.58844 0.08875 0.0
C4331 C 0.24501 0.57852 0.07478 0.0
C4332 C 0.24163 0.58842 0.06131 0.0
H4333 H 0.23848 0.4671 0.0486 0.0
H4334 H 0.23872 0.497 0.04906 0.0
C4335 C 0.24216 0.60616 0.06194 0.0
C4336 C 0.24445 0.55863 0.0744 0.0
H4337 H 0.2251 0.52269 0.05812 0.0
C4338 C 0.25523 0.54986 0.08368 0.0
C4339 C 0.23339 0.54766 0.06527 0.0
C4340 C 0.22024 0.55432 0.05563 0.0
C4341 C 0.25561 0.53213 0.08381 0.0
C4342 C 0.2446 0.5212 0.07465 0.0
C4343 C 0.23382 0.52991 0.06535 0.0
C4344 C 0.24416 0.50136 0.07446 0.0
C4345 C 0.26863 0.52542 0.09361 0.0
C4346 C 0.24664 0.49181 0.08838 0.0
C4347 C 0.24651 0.47414 0.08809 0.0
C4348 C 0.2437 0.46406 0.07391 0.0
C4349 C 0.24083 0.47347 0.06003 0.0
C4350 C 0.24096 0.49119 0.06032 0.0
H4351 H 0.27907 0.53446 0.09533 0.0
H4352 H 0.2636 0.52235 0.10581 0.0
H4353 H 0.27319 0.51434 0.08771 0.0
H4354 H 0.24849 0.49796 0.09996 0.0
H4355 H 0.24866 0.46831 0.09936 0.0
H4356 H 0.62701 0.25795 1.02043 0.0
H4357 H 0.59721 0.25768 1.02351 0.0
H4358 H 0.59997 0.2381 0.07075 0.0
H4359 H 0.62976 0.2387 0.06781 0.0
H4360 H 0.57379 0.27287 0.04219 0.0
H4361 H 0.5615 0.20836 0.05638 0.0
H4362 H 0.57552 0.21906 0.06986 0.0
H4363 H 0.58109 0.2162 0.04885 0.0
C4364 C 0.6216 0.25374 0.03167 0.0
C4365 C 0.6322 0.24865 0.04377 0.0
C4366 C 0.60395 0.2536 0.03349 0.0
C4367 C 0.59485 0.24801 0.04748 0.0
C4368 C 0.6054 0.24253 0.05953 0.0
H4369 H 0.48181 0.22755 0.04429 0.0
H4370 H 0.51152 0.22686 0.04194 0.0
C4371 C 0.62311 0.24292 0.0578 0.0
C4372 C 0.57509 0.24816 0.04927 0.0
H4373 H 0.53911 0.22468 0.0588 0.0
C4374 C 0.5665 0.26215 0.04591 0.0
C4375 C 0.56409 0.2346 0.05393 0.0
C4376 C 0.57088 0.21862 0.05734 0.0
C4377 C 0.54884 0.26306 0.0473 0.0
C4378 C 0.53783 0.24959 0.0522 0.0
C4379 C 0.54639 0.23545 0.05519 0.0
C4380 C 0.51806 0.24995 0.05398 0.0
C4381 C 0.54208 0.27882 0.04302 0.0
C4382 C 0.50974 0.26282 0.06186 0.0
C4383 C 0.49212 0.26316 0.06337 0.0
C4384 C 0.48079 0.25077 0.057 0.0
C4385 C 0.48905 0.2378 0.04928 0.0
C4386 C 0.50671 0.23733 0.04799 0.0
H4387 H 0.55073 0.28639 0.03545 0.0
H4388 H 0.53055 0.27663 0.03643 0.0
H4389 H 0.53966 0.2859 0.05433 0.0
H4390 H 0.51692 0.27285 0.06735 0.0
H4391 H 0.48732 0.27353 0.06963 0.0
H4392 H 0.90277 0.65196 0.06914 0.0
H4393 H 0.90215 0.62224 0.06554 0.0
H4394 H 0.85408 0.62256 0.04671 0.0
H4395 H 0.85613 0.65191 0.04788 0.0
H4396 H 0.89716 0.59503 0.06926 0.0
H4397 H 0.85265 0.58682 1.02072 0.0
H4398 H 0.86204 0.60648 0.0255 0.0
H4399 H 0.84465 0.59824 0.03733 0.0
C4400 C 0.89202 0.64576 0.06404 0.0
C4401 C 0.87929 0.6554 0.05925 0.0
C4402 C 0.89158 0.62808 0.06189 0.0
C4403 C 0.87819 0.61816 0.05515 0.0
C4404 C 0.86539 0.62812 0.0509 0.0
H4405 H 0.86454 0.50954 1.02093 0.0
H4406 H 0.8667 0.53914 1.02427 0.0
C4407 C 0.86623 0.64572 0.05223 0.0
C4408 C 0.87766 0.59826 0.05301 0.0
H4409 H 0.85799 0.56376 0.0343 0.0
C4410 C 0.88847 0.58863 0.06138 0.0
C4411 C 0.86706 0.58805 0.04255 0.0
C4412 C 0.85607 0.59538 0.03089 0.0
C4413 C 0.88891 0.5709 0.05991 0.0
C4414 C 0.8775 0.56071 0.0504 0.0
C4415 C 0.86683 0.57029 0.04195 0.0
C4416 C 0.87664 0.54087 0.04841 0.0
C4417 C 0.90253 0.5635 0.06823 0.0
C4418 C 0.88124 0.52977 0.06041 0.0
C4419 C 0.88038 0.5121 0.0582 0.0
C4420 C 0.87441 0.50362 0.04395 0.0
C4421 C 0.86941 0.5146 0.03218 0.0
C4422 C 0.87057 0.53222 0.03424 0.0
H4423 H 0.91295 0.57251 0.07021 0.0
H4424 H 0.89818 0.55922 0.08029 0.0
H4425 H 0.90697 0.55313 0.06098 0.0
H4426 H 0.88533 0.53459 0.072 0.0
H4427 H 0.88426 0.50501 0.06806 0.0
H4428 H 0.64245 0.8819 0.06164 0.0
H4429 H 0.61292 0.88269 0.06509 0.0
H4430 H 0.60651 0.85668 1.01971 0.0
H4431 H 0.63592 0.85636 1.01612 0.0
H4432 H 0.58612 0.8698 0.07125 0.0
H4433 H 0.5706 0.87977 1.00831 0.0
H4434 H 0.58118 0.86166 1.00964 0.0
H4435 H 0.59133 0.8812 1.01462 0.0
C4436 C 0.635 0.87647 0.05207 0.0
C4437 C 0.64299 0.86934 0.03827 0.0
C4438 C 0.61739 0.87685 0.05416 0.0
C4439 C 0.60573 0.87019 0.04266 0.0
C4440 C 0.61381 0.8628 0.02898 0.0
H4441 H 0.49352 0.88344 0.03733 0.0
H4442 H 0.52314 0.88379 0.03332 0.0
C4443 C 0.63141 0.86246 0.02688 0.0
C4444 C 0.58595 0.87058 0.04528 0.0
H4445 H 0.54858 0.87185 0.02577 0.0
C4446 C 0.57824 0.87031 0.061 0.0
C4447 C 0.57406 0.87163 0.03274 0.0
C4448 C 0.57965 0.87377 1.0154 0.0
C4449 C 0.56073 0.8707 0.06432 0.0
C4450 C 0.54869 0.87076 0.05178 0.0
C4451 C 0.55645 0.87141 0.03603 0.0
C4452 C 0.52882 0.87057 0.05461 0.0
C4453 C 0.55558 0.8714 0.08185 0.0
C4454 C 0.51976 0.86295 0.06782 0.0
C4455 C 0.50219 0.86301 0.07032 0.0
C4456 C 0.49142 0.87035 0.05977 0.0
C4457 C 0.5003 0.87763 0.04631 0.0
C4458 C 0.51796 0.87775 0.04388 0.0
H4459 H 0.56552 0.87656 0.08967 0.0
H4460 H 0.54498 0.87879 0.08387 0.0
H4461 H 0.55248 0.8588 0.08562 0.0
H4462 H 0.52614 0.85626 0.07639 0.0
H4463 H 0.49693 0.85677 0.08067 0.0
H4464 H 0.55103 0.76036 0.9871 0.0
H4465 H 0.55595 0.75984 1.01646 0.0
H4466 H 0.60145 0.73924 1.00656 0.0
H4467 H 0.59615 0.73893 0.97744 0.0
H4468 H 0.55976 0.73841 0.04149 0.0
H4469 H 0.61978 0.77163 0.03935 0.0
H4470 H 0.60682 0.77026 1.022 0.0
H4471 H 0.61858 0.75355 0.02675 0.0
C4472 C 0.56218 0.75562 0.99086 0.0
C4473 C 0.57312 0.75 0.97853 0.0
C4474 C 0.56512 0.75535 1.00828 0.0
C4475 C 0.57951 0.74985 1.0152 0.0
C4476 C 0.59035 0.74412 1.00284 0.0
H4477 H 0.62262 0.7507 0.11982 0.0
H4478 H 0.61766 0.74869 0.09039 0.0
C4479 C 0.58722 0.74399 0.9855 0.0
C4480 C 0.5829 0.74985 0.03464 0.0
H4481 H 0.61163 0.76029 0.06449 0.0
C4482 C 0.57116 0.7435 0.04625 0.0
C4483 C 0.59774 0.75589 0.04232 0.0
C4484 C 0.61145 0.76335 0.03207 0.0
C4485 C 0.57366 0.74276 0.06377 0.0
C4486 C 0.58828 0.74943 0.07164 0.0
C4487 C 0.6001 0.75552 0.0599 0.0
C4488 C 0.59154 0.75008 0.09126 0.0
C4489 C 0.56051 0.73364 0.07345 0.0
C4490 C 0.57915 0.7514 0.10363 0.0
C4491 C 0.58202 0.75183 0.121 0.0
C4492 C 0.59767 0.75175 0.12813 0.0
C4493 C 0.61024 0.75091 0.11591 0.0
C4494 C 0.60727 0.74988 0.09842 0.0
H4495 H 0.55357 0.72447 0.06577 0.0
H4496 H 0.56558 0.72722 0.08361 0.0
H4497 H 0.55183 0.74229 0.07832 0.0
H4498 H 0.56682 0.75245 0.10006 0.0
H4499 H 0.57155 0.75264 0.12903 0.0
H4500 H 0.3701 0.50459 1.00879 0.0
H4501 H 0.36972 0.50484 0.03846 0.0
H4502 H 0.36761 0.55664 0.03924 0.0
H4503 H 0.36769 0.5563 1.0094 0.0
H4504 H 0.3863 0.51357 0.06423 0.0
H4505 H 0.33536 0.55225 0.07456 0.0
H4506 H 0.34043 0.54449 0.0546 0.0
H4507 H 0.35157 0.56219 0.06297 0.0
C4508 C 0.36914 0.51617 1.01491 0.0
C4509 C 0.36849 0.53034 1.00534 0.0
C4510 C 0.36914 0.51635 0.03258 0.0
C4511 C 0.36819 0.5307 0.04262 0.0
C4512 C 0.36782 0.54496 0.03304 0.0
H4513 H 0.36416 0.55379 0.15414 0.0
H4514 H 0.36514 0.55449 0.1243 0.0
C4515 C 0.36806 0.54479 1.01533 0.0
C4516 C 0.36796 0.5306 0.06238 0.0
H4517 H 0.34991 0.54646 0.09779 0.0
C4518 C 0.37812 0.52082 0.07127 0.0
C4519 C 0.3577 0.53982 0.07302 0.0
C4520 C 0.34552 0.55017 0.06588 0.0
C4521 C 0.37859 0.52029 0.08899 0.0
C4522 C 0.36818 0.52935 0.09964 0.0
C4523 C 0.35808 0.5392 0.09075 0.0
C4524 C 0.36765 0.52886 0.11938 0.0
C4525 C 0.3911 0.51028 0.09606 0.0
C4526 C 0.36855 0.5144 0.12852 0.0
C4527 C 0.36801 0.51401 0.14616 0.0
C4528 C 0.36629 0.52796 0.15658 0.0
C4529 C 0.36549 0.54246 0.14751 0.0
C4530 C 0.36597 0.54285 0.12983 0.0
H4531 H 0.40148 0.50885 0.08748 0.0
H4532 H 0.39586 0.51586 0.10754 0.0
H4533 H 0.38552 0.49797 0.09855 0.0
H4534 H 0.36943 0.50296 0.12202 0.0
H4535 H 0.36915 0.50243 0.15165 0.0
H4536 H 0.51158 0.34391 0.97902 0.0
H4537 H 0.51602 0.34397 1.00854 0.0
H4538 H 0.54416 0.38945 1.00534 0.0
H4539 H 0.54039 0.38904 0.97576 0.0
H4540 H 0.55212 0.34987 0.02828 0.0
H4541 H 0.50673 0.39334 0.04645 0.0
H4542 H 0.50435 0.38094 0.02813 0.0
H4543 H 0.51973 0.39729 0.02895 0.0
C4544 C 0.51877 0.35406 0.98434 0.0
C4545 C 0.5255 0.36645 0.97384 0.0
C4546 C 0.52139 0.35409 1.00176 0.0
C4547 C 0.53058 0.36673 1.01044 0.0
C4548 C 0.53703 0.37927 0.99999 0.0
H4549 H 0.53399 0.38717 0.12205 0.0
H4550 H 0.53059 0.38753 0.09271 0.0
C4551 C 0.53478 0.37903 0.98253 0.0
C4552 C 0.53357 0.36667 0.02976 0.0
H4553 H 0.52109 0.38272 0.06727 0.0
C4554 C 0.54518 0.35711 0.03669 0.0
C4555 C 0.52535 0.37621 0.04177 0.0
C4556 C 0.51329 0.38758 0.03617 0.0
C4557 C 0.54877 0.35691 0.05396 0.0
C4558 C 0.53983 0.36571 0.06637 0.0
C4559 C 0.52824 0.37542 0.05918 0.0
C4560 C 0.54233 0.36543 0.08607 0.0
C4561 C 0.56309 0.34769 0.05822 0.0
C4562 C 0.54997 0.35308 0.09456 0.0
C4563 C 0.55249 0.35326 0.11196 0.0
C4564 C 0.54687 0.3653 0.12304 0.0
C4565 C 0.53868 0.37735 0.11489 0.0
C4566 C 0.53667 0.37751 0.09735 0.0
H4567 H 0.57139 0.34606 0.04761 0.0
H4568 H 0.57025 0.35417 0.0679 0.0
H4569 H 0.55875 0.33537 0.06215 0.0
H4570 H 0.55387 0.34258 0.08801 0.0
H4571 H 0.55866 0.34338 0.11683 0.0
H4572 H 0.77121 0.56826 0.96584 0.0
H4573 H 0.76794 0.56754 0.99555 0.0
H4574 H 0.76028 0.61842 0.99711 0.0
H4575 H 0.76412 0.61929 0.96738 0.0
H4576 H 0.78527 0.58482 1.02357 0.0
H4577 H 0.72135 0.59997 0.02706 0.0
H4578 H 0.73055 0.59265 1.00844 0.0
H4579 H 0.73484 0.61329 1.01523 0.0
C4580 C 0.769 0.57951 0.97228 0.0
C4581 C 0.76833 0.59392 0.96308 0.0
C4582 C 0.76706 0.57907 0.98981 0.0
C4583 C 0.76369 0.59286 0.99984 0.0
C4584 C 0.76275 0.60725 0.99066 0.0
H4585 H 0.74059 0.6096 0.10973 0.0
H4586 H 0.74257 0.61042 0.07984 0.0
C4587 C 0.76516 0.60781 0.97311 0.0
C4588 C 0.76145 0.59215 1.01933 0.0
H4589 H 0.73441 0.59788 0.05196 0.0
C4590 C 0.77398 0.58753 0.02948 0.0
C4591 C 0.74704 0.59591 0.02839 0.0
C4592 C 0.73256 0.60063 1.01936 0.0
C4593 C 0.77282 0.58684 0.04711 0.0
C4594 C 0.75828 0.59023 0.05624 0.0
C4595 C 0.74572 0.59499 0.04606 0.0
C4596 C 0.75612 0.58914 0.07576 0.0
C4597 C 0.78789 0.58314 0.05581 0.0
C4598 C 0.76197 0.5765 0.08511 0.0
C4599 C 0.76034 0.57573 0.10263 0.0
C4600 C 0.75292 0.58762 0.11269 0.0
C4601 C 0.74672 0.60009 0.10336 0.0
C4602 C 0.74793 0.6006 0.08573 0.0
H4603 H 0.79901 0.58639 0.04845 0.0
H4604 H 0.78886 0.58986 0.06762 0.0
H4605 H 0.78757 0.56992 0.05798 0.0
H4606 H 0.76775 0.56673 0.07885 0.0
H4607 H 0.7653 0.56562 0.10822 0.0
H4608 H 1.00589 0.57255 0.71726 0.0
H4609 H 0.03559 0.57524 0.72062 0.0
H4610 H 0.03232 0.53273 0.74963 0.0
H4611 H 1.00299 0.53024 0.74659 0.0
H4612 H 0.05866 0.58147 0.74179 0.0
H4613 H 0.07025 0.51829 0.72609 0.0
H4614 H 0.05076 0.52609 0.72309 0.0
H4615 H 0.05605 0.51932 0.74271 0.0
C4616 C 1.01133 0.56353 0.72426 0.0
C4617 C 1.00094 0.55081 0.73118 0.0
C4618 C 0.02884 0.56515 0.72632 0.0
C4619 C 0.03763 0.55405 0.73522 0.0
C4620 C 0.02712 0.54152 0.74224 0.0
H4621 H 0.14459 0.5382 0.75832 0.0
H4622 H 0.11523 0.53671 0.75373 0.0
C4623 C 1.0097 0.54004 0.74042 0.0
C4624 C 0.05708 0.55571 0.73748 0.0
H4625 H 0.09197 0.53402 0.73808 0.0
C4626 C 0.06575 0.57092 0.74085 0.0
C4627 C 0.06761 0.54247 0.73648 0.0
C4628 C 0.06079 0.52566 0.73174 0.0
C4629 C 0.08315 0.57313 0.74366 0.0
C4630 C 0.09383 0.55988 0.74275 0.0
C4631 C 0.08505 0.54466 0.73917 0.0
C4632 C 0.11338 0.56123 0.74563 0.0
C4633 C 0.08958 0.58997 0.7485 0.0
C4634 C 0.12427 0.57524 0.7425 0.0
C4635 C 0.14161 0.57619 0.74549 0.0
C4636 C 0.14998 0.56315 0.75159 0.0
C4637 C 0.1394 0.54892 0.75401 0.0
C4638 C 0.12202 0.54806 0.75127 0.0
H4639 H 0.07987 0.59745 0.75348 0.0
H4640 H 0.09881 0.58937 0.75787 0.0
H4641 H 0.09499 0.59619 0.73772 0.0
H4642 H 0.11963 0.58572 0.73722 0.0
H4643 H 0.14859 0.58739 0.7427 0.0
H4644 H 0.53994 0.98454 0.75183 0.0
H4645 H 0.54212 1.01393 0.74946 0.0
H4646 H 0.59239 1.01222 0.73584 0.0
H4647 H 0.58978 0.98258 0.7369 0.0
H4648 H 0.54982 0.04041 0.75889 0.0
H4649 H 0.59262 0.04624 0.70708 0.0
H4650 H 0.58354 0.02675 0.71269 0.0
H4651 H 0.60121 0.03566 0.72305 0.0
C4652 C 0.5515 0.99011 0.74788 0.0
C4653 C 0.56446 0.97994 0.74423 0.0
C4654 C 0.55284 1.00764 0.74663 0.0
C4655 C 0.56733 1.01695 0.74184 0.0
C4656 C 0.5805 1.00671 0.73869 0.0
H4657 H 0.5971 0.12731 0.7456 0.0
H4658 H 0.59543 0.09743 0.74571 0.0
C4659 C 0.57906 0.98908 0.73957 0.0
C4660 C 0.56844 0.03666 0.74072 0.0
H4661 H 0.58823 0.0704 0.72185 0.0
C4662 C 0.55823 0.04656 0.75048 0.0
C4663 C 0.5791 0.0463 0.72999 0.0
C4664 C 0.58961 0.03823 0.71749 0.0
C4665 C 0.55851 0.06426 0.75007 0.0
C4666 C 0.56946 0.07376 0.73971 0.0
C4667 C 0.57973 0.06403 0.73004 0.0
C4668 C 0.57046 0.09332 0.73889 0.0
C4669 C 0.54707 0.07283 0.76124 0.0
C4670 C 0.55736 0.10259 0.73432 0.0
C4671 C 0.55855 0.12022 0.73338 0.0
C4672 C 0.57278 0.13028 0.73746 0.0
C4673 C 0.58578 0.12096 0.74218 0.0
C4674 C 0.58477 0.10333 0.74246 0.0
H4675 H 0.54149 0.06469 0.77063 0.0
H4676 H 0.55348 0.0835 0.76734 0.0
H4677 H 0.53722 0.07733 0.75403 0.0
H4678 H 0.546 0.09613 0.73111 0.0
H4679 H 0.54798 0.126 0.72955 0.0
H4680 H 0.97656 0.57744 0.36267 0.0
H4681 H 1.00598 0.58026 0.36691 0.0
H4682 H 1.01014 0.53185 0.34775 0.0
H4683 H 0.98075 0.52903 0.34356 0.0
H4684 H 0.02954 0.56927 0.38404 0.0
H4685 H 0.04725 0.55256 0.32235 0.0
H4686 H 0.02617 0.55082 0.32829 0.0
H4687 H 0.0391 0.53434 0.33144 0.0
C4688 C 0.98351 0.56721 0.35925 0.0
C4689 C 0.97515 0.55292 0.35247 0.0
C4690 C 1.00088 0.56889 0.36175 0.0
C4691 C 1.01162 0.55653 0.35749 0.0
C4692 C 1.00321 0.54214 0.351 0.0
H4693 H 0.12089 0.54236 0.36902 0.0
H4694 H 0.09142 0.53924 0.36467 0.0
C4695 C 0.98581 0.54042 0.34861 0.0
C4696 C 0.03097 0.55858 0.36003 0.0
H4697 H 0.06882 0.55185 0.34205 0.0
C4698 C 0.03787 0.56545 0.37461 0.0
C4699 C 0.04314 0.554 0.34827 0.0
C4700 C 0.03845 0.54769 0.33168 0.0
C4701 C 0.05521 0.56729 0.37769 0.0
C4702 C 0.06725 0.56245 0.36601 0.0
C4703 C 0.06043 0.55565 0.35146 0.0
C4704 C 0.08649 0.56447 0.36859 0.0
C4705 C 0.06054 0.57412 0.39396 0.0
C4706 C 0.09512 0.57969 0.37213 0.0
C4707 C 0.11252 0.5816 0.37414 0.0
C4708 C 0.12285 0.56842 0.37327 0.0
C4709 C 0.11418 0.55313 0.36996 0.0
C4710 C 0.09683 0.55129 0.3674 0.0
H4711 H 0.05046 0.57343 0.4031 0.0
H4712 H 0.07072 0.56755 0.3985 0.0
H4713 H 0.06482 0.58707 0.3927 0.0
H4714 H 0.08839 0.59046 0.37312 0.0
H4715 H 0.11782 0.59368 0.37672 0.0
H4716 H 0.59006 0.13466 0.36478 0.0
H4717 H 0.58647 0.10481 0.36669 0.0
H4718 H 0.53949 0.10534 0.34565 0.0
H4719 H 0.5428 0.13524 0.34455 0.0
H4720 H 0.56263 0.08134 0.38283 0.0
H4721 H 0.56183 0.07016 0.31702 0.0
H4722 H 0.56608 0.09013 0.32569 0.0
H4723 H 0.54543 0.08198 0.32383 0.0
C4724 C 0.57893 0.12859 0.36041 0.0
C4725 C 0.5669 0.13819 0.35418 0.0
C4726 C 0.57677 0.1111 0.36163 0.0
C4727 C 0.56265 0.10174 0.35624 0.0
C4728 C 0.55068 0.11138 0.34994 0.0
H4729 H 0.53135 0.99345 0.3411 0.0
H4730 H 0.53552 1.02321 0.34064 0.0
C4731 C 0.55262 0.12889 0.34924 0.0
C4732 C 0.56049 0.08238 0.35702 0.0
H4733 H 0.55434 0.04696 0.33345 0.0
C4734 C 0.56081 0.074 0.37186 0.0
C4735 C 0.55799 0.07179 0.34312 0.0
C4736 C 0.55793 0.0789 0.3265 0.0
C4737 C 0.55832 0.05645 0.37318 0.0
C4738 C 0.55592 0.04573 0.35921 0.0
C4739 C 0.55583 0.05424 0.3444 0.0
C4740 C 0.55334 0.02623 0.35955 0.0
C4741 C 0.55764 0.04976 0.39 0.0
C4742 C 0.56188 1.01626 0.36986 0.0
C4743 C 0.55934 0.99874 0.37014 0.0
C4744 C 0.54816 0.98945 0.36011 0.0
C4745 C 0.53993 0.99933 0.34945 0.0
C4746 C 0.54244 1.01688 0.34914 0.0
H4747 H 0.55412 0.05901 0.3992 0.0
H4748 H 0.54886 0.03902 0.39088 0.0
H4749 H 0.56985 0.04616 0.39311 0.0
H4750 H 0.57101 1.02194 0.37771 0.0
H4751 H 0.56646 0.99248 0.37832 0.0
H4752 H 0.76044 0.97048 0.59479 0.0
H4753 H 0.76062 1.00036 0.59488 0.0
H4754 H 0.72917 0.99729 0.55409 0.0
H4755 H 0.72904 0.96753 0.55399 0.0
H4756 H 0.77046 0.02632 0.5791 0.0
H4757 H 0.70482 0.03135 0.5746 0.0
H4758 H 0.71311 1.01218 0.57816 0.0
H4759 H 0.71272 1.01977 0.55791 0.0
C4760 C 0.75334 0.97593 0.5858 0.0
C4761 C 0.74461 0.96539 0.57448 0.0
C4762 C 0.75349 0.99361 0.58581 0.0
C4763 C 0.74465 1.00256 0.57472 0.0
C4764 C 0.73594 0.99195 0.56337 0.0
H4765 H 0.73269 0.11227 0.5558 0.0
H4766 H 0.73166 0.08234 0.55543 0.0
C4767 C 0.73597 0.97429 0.56322 0.0
C4768 C 0.74494 1.02232 0.57488 0.0
H4769 H 0.72129 0.05572 0.57102 0.0
C4770 C 0.75948 0.03244 0.57741 0.0
C4771 C 0.73112 0.03179 0.57267 0.0
C4772 C 0.71452 1.02329 0.57084 0.0
C4773 C 0.76064 0.05022 0.57743 0.0
C4774 C 0.74682 0.05971 0.57533 0.0
C4775 C 0.73227 0.0496 0.57273 0.0
C4776 C 0.74729 0.07951 0.57574 0.0
C4777 C 0.77727 0.05866 0.57906 0.0
C4778 C 0.75604 0.08982 0.5873 0.0
C4779 C 0.75646 0.10752 0.58763 0.0
C4780 C 0.74825 0.11683 0.57638 0.0
C4781 C 0.7394 0.10656 0.56488 0.0
C4782 C 0.73879 0.08883 0.56467 0.0
H4783 H 0.78689 0.0506 0.57507 0.0
H4784 H 0.7786 0.06982 0.57181 0.0
H4785 H 0.77929 0.06207 0.59199 0.0
H4786 H 0.76256 0.08419 0.59658 0.0
H4787 H 0.76341 0.114 0.597 0.0
H4788 H 0.12989 0.73176 0.56278 0.0
H4789 H 0.10008 0.73121 0.56588 0.0
H4790 H 0.09809 0.76086 0.52427 0.0
H4791 H 0.12786 0.76095 0.52092 0.0
H4792 H 0.0753 0.77191 0.55245 0.0
H4793 H 0.06095 0.70663 0.53918 0.0
H4794 H 0.0773 0.71191 0.55284 0.0
H4795 H 0.07956 0.71704 0.53191 0.0
C4796 C 0.12339 0.73815 0.554 0.0
C4797 C 0.13263 0.74644 0.54137 0.0
C4798 C 0.1057 0.73782 0.55585 0.0
C4799 C 0.09538 0.74601 0.54545 0.0
C4800 C 0.10461 0.75425 0.53284 0.0
H4801 H 0.98236 0.73224 0.53753 0.0
H4802 H 1.01196 0.73152 0.53443 0.0
C4803 C 0.12224 0.75433 0.53086 0.0
C4804 C 0.07572 0.74625 0.54775 0.0
H4805 H 0.03903 0.722 0.54695 0.0
C4806 C 0.06767 0.76079 0.55124 0.0
C4807 C 0.06431 0.73226 0.5463 0.0
C4808 C 0.07076 0.71601 0.54227 0.0
C4809 C 0.05009 0.76169 0.55339 0.0
C4810 C 0.0386 0.74767 0.5521 0.0
C4811 C 0.04666 0.73313 0.54828 0.0
C4812 C 1.01887 0.74796 0.55437 0.0
C4813 C 0.044 0.77825 0.55666 0.0
C4814 C 1.01076 0.75706 0.56683 0.0
C4815 C 0.99318 0.7575 0.56867 0.0
C4816 C 0.98166 0.74889 0.55827 0.0
C4817 C 0.98971 0.73952 0.54598 0.0
C4818 C 1.00733 0.73901 0.5442 0.0
H4819 H 0.05286 0.78804 0.5524 0.0
H4820 H 0.03231 0.77951 0.55064 0.0
H4821 H 0.04219 0.78011 0.56992 0.0
H4822 H 1.01808 0.7639 0.57567 0.0
H4823 H 0.98858 0.76484 0.57857 0.0
H4824 H 0.39508 1.00701 0.55739 0.0
H4825 H 0.39667 0.03687 0.56047 0.0
H4826 H 0.35611 0.03837 0.52912 0.0
H4827 H 0.35526 1.00897 0.52537 0.0
H4828 H 0.38668 0.06267 0.57102 0.0
H4829 H 0.37332 0.07577 0.50814 0.0
H4830 H 0.35703 0.06317 0.51672 0.0
H4831 H 0.37694 0.05554 0.51395 0.0
C4832 C 0.38656 1.01351 0.55083 0.0
C4833 C 0.3752 1.00429 0.54073 0.0
C4834 C 0.38743 0.03124 0.55268 0.0
C4835 C 0.37699 0.04161 0.54468 0.0
C4836 C 0.3653 0.0322 0.53508 0.0
H4837 H 0.38859 0.15419 0.53214 0.0
H4838 H 0.38854 0.12441 0.5293 0.0
C4839 C 0.36461 1.0146 0.53305 0.0
C4840 C 0.37802 0.06145 0.54659 0.0
H4841 H 0.37146 0.09763 0.52693 0.0
C4842 C 0.38323 0.06997 0.56113 0.0
C4843 C 0.37428 0.07262 0.53416 0.0
C4844 C 0.37026 0.06637 0.51732 0.0
C4845 C 0.38428 0.08768 0.56358 0.0
C4846 C 0.37956 0.09871 0.55148 0.0
C4847 C 0.37484 0.09026 0.53681 0.0
C4848 C 0.37978 0.11843 0.55352 0.0
C4849 C 0.39127 0.09439 0.57927 0.0
C4850 C 0.37478 0.12696 0.56798 0.0
C4851 C 0.37473 0.14458 0.56962 0.0
C4852 C 0.37971 0.15554 0.55701 0.0
C4853 C 0.38468 0.1471 0.54253 0.0
C4854 C 0.38459 0.12945 0.54084 0.0
H4855 H 0.39931 0.08581 0.58461 0.0
H4856 H 0.39837 0.10614 0.5775 0.0
H4857 H 0.38125 0.09629 0.58812 0.0
H4858 H 0.3704 0.11997 0.57826 0.0
H4859 H 0.37057 0.14964 0.58108 0.0
H4860 H 0.14165 0.37672 0.56127 0.0
H4861 H 0.1124 0.37804 0.5649 0.0
H4862 H 0.1057 0.35836 0.51663 0.0
H4863 H 0.13504 0.35797 0.51282 0.0
H4864 H 0.08609 0.36604 0.56976 0.0
H4865 H 0.06974 0.38225 0.50855 0.0
H4866 H 0.08017 0.36394 0.50795 0.0
H4867 H 0.09056 0.3829 0.5145 0.0
C4868 C 0.13426 0.37297 0.55108 0.0
C4869 C 0.14217 0.36766 0.53643 0.0
C4870 C 0.11677 0.37358 0.55328 0.0
C4871 C 0.10512 0.3688 0.54111 0.0
C4872 C 0.11305 0.36308 0.52655 0.0
H4873 H 0.99378 0.38544 0.5405 0.0
H4874 H 0.02323 0.38542 0.53549 0.0
C4875 C 0.1306 0.36265 0.5243 0.0
C4876 C 0.08549 0.36931 0.54406 0.0
H4877 H 0.04795 0.37323 0.52576 0.0
C4878 C 0.0781 0.36771 0.55983 0.0
C4879 C 0.07349 0.37183 0.53198 0.0
C4880 C 0.07883 0.37551 0.51483 0.0
C4881 C 0.06076 0.36827 0.56361 0.0
C4882 C 0.04859 0.36971 0.55148 0.0
C4883 C 0.056 0.37167 0.53568 0.0
C4884 C 0.02893 0.36968 0.55489 0.0
C4885 C 0.05597 0.36789 0.58121 0.0
C4886 C 1.02009 0.36079 0.56744 0.0
C4887 C 1.00266 0.36109 0.57062 0.0
C4888 C 0.99198 0.37 0.56137 0.0
C4889 C 1.00062 0.37847 0.54849 0.0
C4890 C 1.01812 0.37836 0.54545 0.0
H4891 H 0.06614 0.37261 0.58895 0.0
H4892 H 0.04551 0.37528 0.58398 0.0
H4893 H 0.05284 0.35507 0.58441 0.0
H4894 H 0.02654 0.35301 0.57493 0.0
H4895 H 0.99748 0.35388 0.58045 0.0
H4896 H 0.09651 0.28152 0.37564 0.0
H4897 H 0.09739 0.30161 0.35384 0.0
H4898 H 0.04663 0.30761 0.36194 0.0
H4899 H 0.0459 0.28837 0.38379 0.0
H4900 H 0.08687 0.30769 0.32483 0.0
H4901 H 0.05681 0.3539 0.36129 0.0
H4902 H 0.06297 0.33574 0.37022 0.0
H4903 H 0.04398 0.33559 0.35981 0.0
C4904 C 0.08546 0.28711 0.37295 0.0
C4905 C 0.07114 0.28284 0.3823 0.0
C4906 C 0.08596 0.29889 0.36016 0.0
C4907 C 0.07221 0.30732 0.3558 0.0
C4908 C 0.05787 0.30251 0.36481 0.0
H4909 H 0.0447 0.38522 0.28834 0.0
H4910 H 0.04702 0.3642 0.30797 0.0
C4911 C 0.05741 0.29097 0.37757 0.0
C4912 C 0.0726 0.32075 0.34217 0.0
H4913 H 0.05872 0.35827 0.33311 0.0
C4914 C 0.08069 0.31874 0.32688 0.0
C4915 C 0.06484 0.33577 0.34387 0.0
C4916 C 0.05681 0.3405 0.35972 0.0
C4917 C 0.08068 0.33025 0.31383 0.0
C4918 C 0.07264 0.34517 0.31547 0.0
C4919 C 0.06483 0.34722 0.33089 0.0
C4920 C 0.07157 0.35845 0.30179 0.0
C4921 C 0.08896 0.32573 0.29808 0.0
C4922 C 0.08433 0.36344 0.29053 0.0
C4923 C 0.08285 0.37577 0.27853 0.0
C4924 C 0.06859 0.38436 0.27704 0.0
C4925 C 0.05603 0.37942 0.28839 0.0
C4926 C 0.05742 0.36705 0.3001 0.0
H4927 H 0.09008 0.31242 0.29684 0.0
H4928 H 0.08225 0.32964 0.28754 0.0
H4929 H 0.10139 0.33171 0.29773 0.0
H4930 H 0.09587 0.35814 0.29114 0.0
H4931 H 0.09319 0.37877 0.27069 0.0
H4932 H 0.84263 0.06466 0.40503 0.0
H4933 H 0.82378 0.06815 0.38272 0.0
H4934 H 0.80919 1.01722 0.38361 0.0
H4935 H 0.82657 1.01413 0.40632 0.0
H4936 H 0.81543 0.06436 0.35433 0.0
H4937 H 0.7655 1.02338 0.37713 0.0
H4938 H 0.78284 0.02882 0.38932 0.0
H4939 H 0.78327 1.01242 0.37431 0.0
C4940 C 0.83537 0.05409 0.40068 0.0
C4941 C 0.8369 0.03895 0.40839 0.0
C4942 C 0.82421 0.05611 0.3875 0.0
C4943 C 0.81359 0.04321 0.38075 0.0
C4944 C 0.81574 0.02808 0.38817 0.0
H4945 H 0.74277 0.02976 0.29433 0.0
H4946 H 0.76189 0.02637 0.3164 0.0
C4947 C 0.82649 0.02615 0.40146 0.0
C4948 C 0.80098 0.04533 0.36624 0.0
H4949 H 0.7638 0.03067 0.34977 0.0
C4950 C 0.80415 0.05689 0.35375 0.0
C4951 C 0.78552 0.03617 0.36424 0.0
C4952 C 0.77897 1.02465 0.37703 0.0
C4953 C 0.79347 0.05911 0.34023 0.0
C4954 C 0.77831 0.04966 0.33808 0.0
C4955 C 0.7751 0.03811 0.35048 0.0
C4956 C 0.76582 0.05175 0.32361 0.0
C4957 C 0.799 0.07157 0.32793 0.0
C4958 C 0.76039 0.06705 0.3192 0.0
C4959 C 0.749 0.06901 0.30642 0.0
C4960 C 0.74202 0.05591 0.29658 0.0
C4961 C 0.74742 0.04053 0.30091 0.0
C4962 C 0.75866 0.03854 0.31397 0.0
H4963 H 0.81236 0.07416 0.32797 0.0
H4964 H 0.79539 0.06752 0.31552 0.0
H4965 H 0.79332 0.08309 0.33098 0.0
H4966 H 0.7647 0.07783 0.32597 0.0
H4967 H 0.7456 0.08118 0.30428 0.0
H4968 H 1.0089 0.81817 0.38007 0.0
H4969 H 1.01392 0.79798 0.35852 0.0
H4970 H 0.0621 0.81993 0.3515 0.0
H4971 H 0.05682 0.84048 0.37263 0.0
H4972 H 0.02773 0.77346 0.34981 0.0
H4973 H 0.05947 0.8137 0.30561 0.0
H4974 H 0.06974 0.81442 0.3245 0.0
H4975 H 0.04973 0.82177 0.3235 0.0
C4976 C 1.02063 0.81906 0.37395 0.0
C4977 C 0.0322 0.83187 0.37889 0.0
C4978 C 0.02363 0.80703 0.36123 0.0
C4979 C 0.03849 0.80659 0.35202 0.0
C4980 C 0.05016 0.81933 0.35712 0.0
H4981 H 0.04774 0.74228 0.25722 0.0
H4982 H 0.04235 0.76403 0.27754 0.0
C4983 C 0.04714 0.83143 0.36984 0.0
C4984 C 0.04159 0.79291 0.33791 0.0
H4985 H 0.06025 0.7855 0.3 0.0
C4986 C 0.03492 0.77649 0.33905 0.0
C4987 C 0.05067 0.79555 0.3229 0.0
C4988 C 0.05769 0.81232 0.31889 0.0
C4989 C 0.03723 0.7636 0.32689 0.0
C4990 C 0.04678 0.76612 0.31223 0.0
C4991 C 0.05309 0.78259 0.31082 0.0
C4992 C 0.05024 0.75208 0.29876 0.0
C4993 C 0.02878 0.74716 0.32979 0.0
C4994 C 0.05684 0.73713 0.30256 0.0
C4995 C 0.06034 0.72458 0.2906 0.0
C4996 C 0.05719 0.72543 0.27367 0.0
C4997 C 0.05037 0.74028 0.26977 0.0
C4998 C 0.04729 0.75313 0.28174 0.0
H4999 H 1.01839 0.74793 0.33849 0.0
H5000 H 0.02426 0.74141 0.31829 0.0
H5001 H 0.03749 0.73917 0.33496 0.0
H5002 H 0.05974 0.73514 0.31503 0.0
H5003 H 0.06563 0.71388 0.29483 0.0
H5004 H 0.41197 0.04398 0.27803 0.0
H5005 H 0.39086 0.04984 0.29762 0.0
H5006 H 0.37606 0.0876 0.26749 0.0
H5007 H 0.39705 0.0811 0.24715 0.0
H5008 H 0.38255 0.06845 0.31845 0.0
H5009 H 0.33156 0.07575 0.27796 0.0
H5010 H 0.35035 0.06842 0.27034 0.0
H5011 H 0.34848 0.08989 0.27386 0.0
C5012 C 0.40427 0.0535 0.27511 0.0
C5013 C 0.40697 0.06173 0.26015 0.0
C5014 C 0.39183 0.05702 0.28682 0.0
C5015 C 0.38074 0.06917 0.28485 0.0
C5016 C 0.38345 0.07771 0.26996 0.0
H5017 H 0.30337 0.10795 0.35506 0.0
H5018 H 0.32325 0.10387 0.33294 0.0
C5019 C 0.39599 0.07406 0.25802 0.0
C5020 C 0.36719 0.07263 0.29847 0.0
H5021 H 0.32707 0.08216 0.30569 0.0
C5022 C 0.37045 0.07125 0.31528 0.0
C5023 C 0.35083 0.07662 0.29554 0.0
C5024 C 0.34498 0.07762 0.27848 0.0
C5025 C 0.35876 0.07359 0.32832 0.0
C5026 C 0.34247 0.07744 0.32537 0.0
C5027 C 0.33919 0.07917 0.30867 0.0
C5028 C 0.3291 0.07974 0.33928 0.0
C5029 C 0.36424 0.07232 0.34549 0.0
C5030 C 0.32459 0.06773 0.35098 0.0
C5031 C 0.31267 0.06997 0.36378 0.0
C5032 C 0.30446 0.08449 0.36601 0.0
C5033 C 0.30895 0.09647 0.35427 0.0
C5034 C 0.32061 0.0941 0.3413 0.0
H5035 H 0.37766 0.07367 0.34628 0.0
H5036 H 0.35901 0.0817 0.35353 0.0
H5037 H 0.36006 0.0602 0.3501 0.0
H5038 H 0.33029 0.05632 0.35025 0.0
H5039 H 0.3102 0.06028 0.37223 0.0
H5040 H 0.04504 0.74526 0.8361 0.0
H5041 H 0.04166 0.76666 0.81625 0.0
H5042 H 0.07785 0.74648 0.78509 0.0
H5043 H 0.08081 0.7252 0.80413 0.0
H5044 H 0.05794 0.79213 0.80214 0.0
H5045 H 0.04725 0.74994 0.75034 0.0
H5046 H 0.04789 0.74278 0.77071 0.0
H5047 H 0.06638 0.74682 0.75903 0.0
C5048 C 0.05219 0.74511 0.82498 0.0
C5049 C 0.06312 0.73267 0.82225 0.0
C5050 C 0.05029 0.75768 0.81339 0.0
C5051 C 0.05907 0.75857 0.79827 0.0
C5052 C 0.07021 0.7464 0.7959 0.0
H5053 H 0.07334 0.81918 0.70957 0.0
H5054 H 0.07328 0.79981 0.73137 0.0
C5055 C 0.07206 0.73397 0.80729 0.0
C5056 C 0.05707 0.7719 0.78516 0.0
H5057 H 0.05445 0.77747 0.74371 0.0
C5058 C 0.05703 0.78871 0.78941 0.0
C5059 C 0.05573 0.76832 0.76811 0.0
C5060 C 0.05413 0.75099 0.76178 0.0
C5061 C 0.05642 0.80138 0.77768 0.0
C5062 C 0.05555 0.79777 0.76059 0.0
C5063 C 0.05529 0.78095 0.75643 0.0
C5064 C 0.05548 0.81083 0.74689 0.0
C5065 C 0.0574 0.81874 0.78388 0.0
C5066 C 0.0454 0.82423 0.74717 0.0
C5067 C 0.04553 0.83575 0.73428 0.0
C5068 C 0.05582 0.83471 0.72029 0.0
C5069 C 0.06558 0.82119 0.72 0.0
C5070 C 0.06539 0.8097 0.7327 0.0
H5071 H 0.06271 0.81995 0.79613 0.0
H5072 H 0.06479 0.82675 0.77556 0.0
H5073 H 0.04499 0.82304 0.7848 0.0
H5074 H 0.03707 0.82575 0.7573 0.0
H5075 H 0.03751 0.84556 0.73536 0.0
H5076 H 0.39401 0.07893 0.80134 0.0
H5077 H 0.37326 0.08223 0.78087 0.0
H5078 H 0.34685 0.03881 0.79709 0.0
H5079 H 0.36749 0.03551 0.81732 0.0
H5080 H 0.36152 0.06734 0.75393 0.0
H5081 H 0.30787 0.06374 0.79466 0.0
H5082 H 0.32815 0.06549 0.80236 0.0
H5083 H 0.31917 0.04604 0.79561 0.0
C5084 C 0.38372 0.0701 0.80086 0.0
C5085 C 0.38302 0.05693 0.81175 0.0
C5086 C 0.37159 0.07197 0.78877 0.0
C5087 C 0.35752 0.06106 0.78683 0.0
C5088 C 0.35684 0.04795 0.79782 0.0
H5089 H 0.26978 0.05357 0.71777 0.0
H5090 H 0.28953 0.04916 0.73916 0.0
C5091 C 0.36911 0.04591 0.80965 0.0
C5092 C 0.3442 0.06306 0.77338 0.0
H5093 H 0.30259 0.06239 0.76645 0.0
C5094 C 0.34869 0.06631 0.75697 0.0
C5095 C 0.32692 0.06175 0.77626 0.0
C5096 C 0.32017 0.05923 0.79318 0.0
C5097 C 0.33723 0.06782 0.74411 0.0
C5098 C 0.31993 0.06669 0.74698 0.0
C5099 C 0.31542 0.06338 0.76341 0.0
C5100 C 0.3068 0.06931 0.73346 0.0
C5101 C 0.34412 0.06995 0.72718 0.0
C5102 C 0.30862 0.08227 0.72243 0.0
C5103 C 0.29716 0.08481 0.71009 0.0
C5104 C 0.2826 0.0748 0.70752 0.0
C5105 C 0.28049 0.06183 0.71866 0.0
C5106 C 0.29208 0.05929 0.73123 0.0
H5107 H 0.35608 0.06468 0.72575 0.0
H5108 H 0.33589 0.06413 0.71796 0.0
H5109 H 0.34599 0.08311 0.72475 0.0
H5110 H 0.31902 0.0909 0.72341 0.0
H5111 H 0.29994 0.09499 0.70235 0.0
H5112 H 0.07968 0.39236 0.83323 0.0
H5113 H 0.08633 0.37116 0.81288 0.0
H5114 H 0.0373 0.36901 0.79644 0.0
H5115 H 0.0311 0.39055 0.81576 0.0
H5116 H 0.08414 0.34251 0.80225 0.0
H5117 H 0.05048 0.36595 0.7526 0.0
H5118 H 0.05311 0.37735 0.7713 0.0
H5119 H 0.03678 0.36169 0.76924 0.0
C5120 C 0.07019 0.38756 0.82527 0.0
C5121 C 0.05459 0.39405 0.82684 0.0
C5122 C 0.07409 0.37504 0.81322 0.0
C5123 C 0.06279 0.36786 0.80165 0.0
C5124 C 0.04713 0.37406 0.80379 0.0
H5125 H 0.05869 0.285 0.72334 0.0
H5126 H 0.05337 0.30601 0.74422 0.0
C5127 C 0.04333 0.38665 0.81553 0.0
C5128 C 0.067 0.35413 0.788 0.0
H5129 H 0.05779 0.33883 0.74894 0.0
C5130 C 0.07826 0.34208 0.79064 0.0
C5131 C 0.06015 0.35249 0.77201 0.0
C5132 C 0.04962 0.36515 0.76601 0.0
C5133 C 0.0821 0.32919 0.77895 0.0
C5134 C 0.07473 0.32726 0.76327 0.0
C5135 C 0.06362 0.33932 0.76058 0.0
C5136 C 0.07833 0.31333 0.74977 0.0
C5137 C 0.09397 0.31731 0.78392 0.0
C5138 C 0.09423 0.30934 0.74456 0.0
C5139 C 0.09735 0.29711 0.73211 0.0
C5140 C 0.08491 0.28745 0.72381 0.0
C5141 C 0.069 0.29138 0.72902 0.0
C5142 C 0.06587 0.30386 0.74128 0.0
H5143 H 0.09493 0.31701 0.79731 0.0
H5144 H 0.09045 0.30486 0.77926 0.0
H5145 H 0.10615 0.32108 0.77884 0.0
H5146 H 0.10458 0.31604 0.74987 0.0
H5147 H 0.10987 0.29527 0.72891 0.0
H5148 H 0.8095 1.0231 0.74282 0.0
H5149 H 0.78892 0.02843 0.76348 0.0
H5150 H 0.82379 0.06029 0.78886 0.0
H5151 H 0.84382 0.05624 0.76704 0.0
H5152 H 0.7784 1.02397 0.78928 0.0
H5153 H 0.79315 0.08911 0.80231 0.0
H5154 H 0.80242 0.07894 0.78537 0.0
H5155 H 0.81018 0.07751 0.80559 0.0
C5156 C 0.81284 0.03162 0.75257 0.0
C5157 C 0.82874 0.03941 0.75247 0.0
C5158 C 0.80078 0.03464 0.76486 0.0
C5159 C 0.80368 0.04534 0.77848 0.0
C5160 C 0.81991 0.05271 0.77865 0.0
H5161 H 0.73946 0.06613 0.86914 0.0
H5162 H 0.7626 0.06085 0.85051 0.0
C5163 C 0.83186 0.05015 0.76594 0.0
C5164 C 0.78999 0.04808 0.7921 0.0
H5165 H 0.77457 0.07572 0.82025 0.0
C5166 C 0.77779 0.03552 0.79569 0.0
C5167 C 0.78815 0.06288 0.80145 0.0
C5168 C 0.79905 0.07792 0.79841 0.0
C5169 C 0.76471 0.03718 0.80744 0.0
C5170 C 0.76306 0.05185 0.8168 0.0
C5171 C 0.77533 0.0643 0.81358 0.0
C5172 C 0.74848 0.05464 0.82914 0.0
C5173 C 0.75273 1.0228 0.80985 0.0
C5174 C 0.7321 0.05308 0.82425 0.0
C5175 C 0.71877 0.0563 0.83499 0.0
C5176 C 0.72058 0.06101 0.85163 0.0
C5177 C 0.73695 0.06225 0.85677 0.0
C5178 C 0.75045 0.05933 0.84583 0.0
H5179 H 0.75779 1.01126 0.80565 0.0
H5180 H 0.74896 1.02174 0.8228 0.0
H5181 H 0.74178 1.02442 0.80271 0.0
H5182 H 0.72951 0.0498 0.81175 0.0
H5183 H 0.70672 0.05532 0.83002 0.0
H5184 H 0.38473 0.28838 0.08199 0.0
H5185 H 0.36131 0.3043 0.08144 0.0
H5186 H 0.35028 0.28474 0.03381 0.0
H5187 H 0.3736 0.26789 0.03476 0.0
H5188 H 0.35184 0.32772 0.06968 0.0
H5189 H 0.30495 0.28352 0.04536 0.0
H5190 H 0.32438 0.27737 0.05128 0.0
H5191 H 0.32201 0.28596 0.03167 0.0
C5192 C 0.37734 0.28699 0.07135 0.0
C5193 C 0.38171 0.27611 0.05854 0.0
C5194 C 0.3636 0.29654 0.07098 0.0
C5195 C 0.353 0.29627 0.05769 0.0
C5196 C 0.35731 0.28542 0.04471 0.0
H5197 H 0.27697 0.36853 0.03728 0.0
H5198 H 0.29756 0.34828 0.03477 0.0
C5199 C 0.3711 0.2756 0.04517 0.0
C5200 C 0.33841 0.30778 0.05761 0.0
H5201 H 0.29823 0.31107 0.04689 0.0
C5202 C 0.34019 0.3237 0.06473 0.0
C5203 C 0.32255 0.30349 0.05133 0.0
C5204 C 0.31824 0.28662 0.04464 0.0
C5205 C 0.32749 0.3348 0.06563 0.0
C5206 C 0.31189 0.33066 0.05907 0.0
C5207 C 0.30995 0.31485 0.05185 0.0
C5208 C 0.29777 0.3425 0.06018 0.0
C5209 C 0.33092 0.35126 0.07362 0.0
C5210 C 0.28979 0.34622 0.07506 0.0
C5211 C 0.27775 0.35789 0.07643 0.0
C5212 C 0.27322 0.36723 0.06332 0.0
C5213 C 0.28032 0.36261 0.04813 0.0
C5214 C 0.29228 0.35073 0.04663 0.0
H5215 H 0.34396 0.35376 0.07631 0.0
H5216 H 0.32705 0.36092 0.06574 0.0
H5217 H 0.32382 0.35192 0.08517 0.0
H5218 H 0.29288 0.34004 0.08585 0.0
H5219 H 0.27173 0.35945 0.08794 0.0
H5220 H 0.39007 0.82841 0.03811 0.0
H5221 H 0.36871 0.80577 0.03849 0.0
H5222 H 0.36851 0.80738 0.09046 0.0
H5223 H 0.3895 0.82964 0.09007 0.0
H5224 H 0.36095 0.77445 0.0455 0.0
H5225 H 0.3216 0.80193 0.09133 0.0
H5226 H 0.33871 0.81341 0.08246 0.0
H5227 H 0.34144 0.80018 0.09909 0.0
C5228 C 0.38543 0.82435 0.04978 0.0
C5229 C 0.39228 0.83223 0.06407 0.0
C5230 C 0.37282 0.8108 0.05004 0.0
C5231 C 0.36548 0.80385 0.06457 0.0
C5232 C 0.3725 0.81175 0.07871 0.0
H5233 H 0.28926 0.72066 0.09587 0.0
H5234 H 0.30964 0.74353 0.09344 0.0
C5235 C 0.38514 0.82502 0.07846 0.0
C5236 C 0.35128 0.78877 0.06511 0.0
H5237 H 0.31567 0.77388 0.08568 0.0
C5238 C 0.3511 0.77476 0.05436 0.0
C5239 C 0.33749 0.78761 0.07632 0.0
C5240 C 0.33463 0.80161 0.08785 0.0
C5241 C 0.33901 0.76075 0.05478 0.0
C5242 C 0.3253 0.75957 0.06608 0.0
C5243 C 0.32547 0.77359 0.07678 0.0
C5244 C 0.3113 0.74436 0.06727 0.0
C5245 C 0.34162 0.74677 0.04317 0.0
C5246 C 0.30359 0.73567 0.05375 0.0
C5247 C 0.29103 0.72221 0.05519 0.0
C5248 C 0.2849 0.71578 0.07033 0.0
C5249 C 0.29266 0.72444 0.08375 0.0
C5250 C 0.30488 0.73805 0.08232 0.0
H5251 H 0.35449 0.74671 0.039 0.0
H5252 H 0.33807 0.73496 0.04882 0.0
H5253 H 0.33411 0.7479 0.03235 0.0
H5254 H 0.30708 0.73943 0.04165 0.0
H5255 H 0.28626 0.71663 0.04412 0.0
H5256 H 0.81844 0.4133 0.02637 0.0
H5257 H 0.79833 0.39013 0.02804 0.0
H5258 H 0.83018 0.36578 0.05801 0.0
H5259 H 0.85038 0.38918 0.05639 0.0
H5260 H 0.77721 0.37353 0.04509 0.0
H5261 H 0.81883 0.32496 0.03519 0.0
H5262 H 0.82389 0.33759 0.05262 0.0
H5263 H 0.82554 0.346 0.03267 0.0
C5264 C 0.82156 0.40313 0.03339 0.0
C5265 C 0.83708 0.40423 0.04107 0.0
C5266 C 0.80953 0.38932 0.0344 0.0
C5267 C 0.81167 0.37471 0.0429 0.0
C5268 C 0.82718 0.37582 0.05076 0.0
H5269 H 0.74741 0.27742 0.0255 0.0
H5270 H 0.7685 0.30004 0.02629 0.0
C5271 C 0.83919 0.38983 0.04997 0.0
C5272 C 0.79796 0.35921 0.04348 0.0
H5273 H 0.79179 0.31648 0.04212 0.0
C5274 C 0.78082 0.36117 0.04447 0.0
C5275 C 0.80108 0.34213 0.04251 0.0
C5276 C 0.81827 0.33741 0.04053 0.0
C5277 C 0.76795 0.3479 0.04477 0.0
C5278 C 0.77108 0.33082 0.04414 0.0
C5279 C 0.7882 0.32884 0.04285 0.0
C5280 C 0.75725 0.3154 0.04434 0.0
C5281 C 0.75071 0.35267 0.04523 0.0
C5282 C 0.7427 0.31445 0.05436 0.0
C5283 C 0.73033 0.3008 0.05417 0.0
C5284 C 0.7311 0.28648 0.04397 0.0
C5285 C 0.74561 0.28738 0.03399 0.0
C5286 C 0.75811 0.30089 0.03439 0.0
H5287 H 0.7498 0.3651 0.04066 0.0
H5288 H 0.74279 0.34408 0.03786 0.0
H5289 H 0.74609 0.35259 0.05796 0.0
H5290 H 0.74068 0.32443 0.06273 0.0
H5291 H 0.71972 0.30175 0.06197 0.0
H5292 H 0.82624 0.73089 0.04763 0.0
H5293 H 0.80662 0.75112 0.0439 0.0
H5294 H 0.84248 0.78895 0.05761 0.0
H5295 H 0.86238 0.76847 0.06072 0.0
H5296 H 0.79 0.76965 0.05906 0.0
H5297 H 0.82688 0.81542 1.02432 0.0
H5298 H 0.83413 0.79586 0.02821 0.0
H5299 H 0.8357 0.81196 0.04342 0.0
C5300 C 0.83028 0.74347 0.04951 0.0
C5301 C 0.84652 0.74751 0.05413 0.0
C5302 C 0.8187 0.75538 0.04751 0.0
C5303 C 0.82238 0.77235 0.05 0.0
C5304 C 0.83867 0.77642 0.05486 0.0
H5305 H 0.75366 0.85591 0.05489 0.0
H5306 H 0.777 0.83906 0.05798 0.0
C5307 C 0.85031 0.76442 0.05684 0.0
C5308 C 0.80904 0.78509 0.04817 0.0
H5309 H 0.80127 0.82325 0.03417 0.0
C5310 C 0.79276 0.78125 0.05345 0.0
C5311 C 0.81166 0.80078 0.04098 0.0
C5312 C 0.82797 0.80623 0.03375 0.0
C5313 C 0.77982 0.79192 0.05196 0.0
C5314 C 0.78242 0.80751 0.04488 0.0
C5315 C 0.79868 0.81158 0.03973 0.0
C5316 C 0.76829 0.81903 0.04229 0.0
C5317 C 0.7632 0.78635 0.05832 0.0
C5318 C 0.75501 0.8143 0.03225 0.0
C5319 C 0.74169 0.8242 0.03027 0.0
C5320 C 0.74032 0.83951 0.03828 0.0
C5321 C 0.75367 0.84438 0.04834 0.0
C5322 C 0.76731 0.83457 0.0501 0.0
H5323 H 0.76364 0.77618 0.0668 0.0
H5324 H 0.75732 0.7965 0.06466 0.0
H5325 H 0.75552 0.7821 0.04799 0.0
H5326 H 0.75482 0.80267 0.02586 0.0
H5327 H 0.73189 0.8194 1.02287 0.0
H5328 H 0.55783 0.80076 0.89581 0.0
H5329 H 0.55917 0.82055 0.87417 0.0
H5330 H 0.5844 0.78752 0.84326 0.0
H5331 H 0.58341 0.76767 0.86528 0.0
H5332 H 0.58266 0.83843 0.85774 0.0
H5333 H 0.55137 0.79973 0.81083 0.0
H5334 H 0.55164 0.7939 0.83174 0.0
H5335 H 0.56903 0.79145 0.81868 0.0
C5336 C 0.56375 0.79749 0.88447 0.0
C5337 C 0.57047 0.7821 0.88286 0.0
C5338 C 0.56453 0.8091 0.87182 0.0
C5339 C 0.57166 0.80608 0.85633 0.0
C5340 C 0.57847 0.79067 0.85462 0.0
H5341 H 0.58108 0.86984 0.7658 0.0
H5342 H 0.58321 0.8477 0.7852 0.0
C5343 C 0.57804 0.77913 0.86751 0.0
C5344 C 0.57206 0.81913 0.8426 0.0
H5345 H 0.56149 0.8259 0.80284 0.0
C5346 C 0.57795 0.83545 0.8458 0.0
C5347 C 0.56619 0.81607 0.82651 0.0
C5348 C 0.55906 0.79941 0.82166 0.0
C5349 C 0.57823 0.8481 0.83404 0.0
C5350 C 0.57195 0.84519 0.81811 0.0
C5351 C 0.56632 0.8288 0.81475 0.0
C5352 C 0.57067 0.85902 0.80539 0.0
C5353 C 0.58583 0.86459 0.83883 0.0
C5354 C 0.5628 0.87338 0.80933 0.0
C5355 C 0.56137 0.88606 0.79805 0.0
C5356 C 0.56789 0.88558 0.78194 0.0
C5357 C 0.57592 0.87126 0.77789 0.0
C5358 C 0.57707 0.85831 0.78918 0.0
H5359 H 0.59466 0.86378 0.84868 0.0
H5360 H 0.59218 0.87057 0.82835 0.0
H5361 H 0.57622 0.87238 0.84338 0.0
H5362 H 0.55735 0.87479 0.82128 0.0
H5363 H 0.55502 0.8965 0.80214 0.0
H5364 H 0.25152 0.53394 0.78577 0.0
H5365 H 0.27102 0.53054 0.80757 0.0
H5366 H 0.25488 0.57307 0.83228 0.0
H5367 H 0.23555 0.57629 0.811 0.0
H5368 H 0.29774 0.54315 0.82191 0.0
H5369 H 0.2544 0.54995 0.87254 0.0
H5370 H 0.2478 0.54818 0.8519 0.0
H5371 H 0.25546 0.56756 0.86026 0.0
C5372 C 0.25184 0.54261 0.79583 0.0
C5373 C 0.24104 0.55545 0.79581 0.0
C5374 C 0.26339 0.54065 0.8087 0.0
C5375 C 0.26503 0.55116 0.82285 0.0
C5376 C 0.25436 0.56403 0.82256 0.0
H5377 H 0.32793 0.56244 0.91539 0.0
H5378 H 0.30912 0.56552 0.89297 0.0
C5379 C 0.243 0.56604 0.80978 0.0
C5380 C 0.27761 0.54908 0.83737 0.0
H5381 H 0.28217 0.55181 0.87957 0.0
C5382 C 0.29397 0.54499 0.83444 0.0
C5383 C 0.27394 0.55126 0.85447 0.0
C5384 C 0.25693 0.55431 0.86006 0.0
C5385 C 0.30594 0.54362 0.84704 0.0
C5386 C 0.30228 0.54593 0.86412 0.0
C5387 C 0.28593 0.54997 0.86704 0.0
C5388 C 0.31483 0.54414 0.87871 0.0
C5389 C 0.3229 0.54024 0.84157 0.0
C5390 C 0.32522 0.53106 0.8797 0.0
C5391 C 0.33615 0.52919 0.89296 0.0
C5392 C 0.33805 0.54033 0.90648 0.0
C5393 C 0.32776 0.55351 0.90555 0.0
C5394 C 0.31654 0.55522 0.89238 0.0
H5395 H 0.32547 0.54414 0.82894 0.0
H5396 H 0.33207 0.54654 0.84957 0.0
H5397 H 0.32425 0.52698 0.84187 0.0
H5398 H 0.32469 0.52171 0.87027 0.0
H5399 H 0.34329 0.51871 0.89248 0.0
H5400 H 0.58573 0.2348 0.77784 0.0
H5401 H 0.57913 0.25598 0.79795 0.0
H5402 H 0.52845 0.24246 0.79261 0.0
H5403 H 0.53506 0.22147 0.77219 0.0
H5404 H 0.56417 0.28448 0.80068 0.0
H5405 H 0.5264 0.2448 0.84116 0.0
H5406 H 0.53838 0.23663 0.82473 0.0
H5407 H 0.51926 0.24473 0.82078 0.0
C5408 C 0.57305 0.23618 0.78069 0.0
C5409 C 0.5612 0.22568 0.77248 0.0
C5410 C 0.56917 0.24868 0.79259 0.0
C5411 C 0.55304 0.25161 0.79793 0.0
C5412 C 0.54111 0.24111 0.78972 0.0
H5413 H 0.50849 0.31724 0.87799 0.0
H5414 H 0.51428 0.29704 0.8567 0.0
C5415 C 0.545 0.22881 0.77748 0.0
C5416 C 0.54905 0.26538 0.81153 0.0
H5417 H 0.52754 0.27282 0.84773 0.0
C5418 C 0.55615 0.28163 0.81092 0.0
C5419 C 0.53844 0.26291 0.82548 0.0
C5420 C 0.53025 0.24633 0.82827 0.0
C5421 C 0.55293 0.29463 0.82268 0.0
C5422 C 0.54267 0.29211 0.83696 0.0
C5423 C 0.53552 0.2758 0.83749 0.0
C5424 C 0.53901 0.30578 0.85092 0.0
C5425 C 0.5602 0.31137 0.81891 0.0
C5426 C 0.55043 0.31861 0.85636 0.0
C5427 C 0.54691 0.33075 0.86885 0.0
C5428 C 0.53171 0.33114 0.87741 0.0
C5429 C 0.52039 0.31821 0.87221 0.0
C5430 C 0.52385 0.30616 0.85965 0.0
H5431 H 0.56261 0.31268 0.80569 0.0
H5432 H 0.55207 0.32087 0.823 0.0
H5433 H 0.57198 0.31346 0.82505 0.0
H5434 H 0.56256 0.31924 0.85122 0.0
H5435 H 0.55645 0.33988 0.87191 0.0
H5436 H 0.79056 0.56101 0.85619 0.0
H5437 H 0.81029 0.55688 0.83365 0.0
H5438 H 0.84132 0.59654 0.85241 0.0
H5439 H 0.82174 0.60091 0.87447 0.0
H5440 H 0.82606 0.58017 0.80751 0.0
H5441 H 0.87297 0.559 0.8471 0.0
H5442 H 0.85192 0.55885 0.85351 0.0
H5443 H 0.86423 0.57761 0.85321 0.0
C5444 C 0.80156 0.56891 0.85566 0.0
C5445 C 0.80405 0.58136 0.86779 0.0
C5446 C 0.81304 0.56656 0.84247 0.0
C5447 C 0.82795 0.57622 0.84076 0.0
C5448 C 0.83037 0.58858 0.85291 0.0
H5449 H 0.92119 0.56618 0.78189 0.0
H5450 H 0.89995 0.57218 0.8018 0.0
C5451 C 0.81884 0.59113 0.8658 0.0
C5452 C 0.84096 0.57344 0.82682 0.0
H5453 H 0.88021 0.56227 0.81975 0.0
C5454 C 0.83787 0.57616 0.8103 0.0
C5455 C 0.8569 0.56865 0.82971 0.0
C5456 C 0.86182 0.56574 0.84679 0.0
C5457 C 0.84977 0.57463 0.79728 0.0
C5458 C 0.86563 0.56909 0.80001 0.0
C5459 C 0.86855 0.56639 0.81667 0.0
C5460 C 0.87931 0.5663 0.7864 0.0
C5461 C 0.84515 0.58001 0.78081 0.0
C5462 C 0.87617 0.561 0.77002 0.0
C5463 C 0.88879 0.5582 0.75809 0.0
C5464 C 0.90553 0.55998 0.76173 0.0
C5465 C 0.90873 0.56491 0.77804 0.0
C5466 C 0.89619 0.56818 0.7898 0.0
H5467 H 0.83577 0.58902 0.78178 0.0
H5468 H 0.85578 0.58564 0.77408 0.0
H5469 H 0.83989 0.56938 0.77376 0.0
H5470 H 0.86384 0.55833 0.7663 0.0
H5471 H 0.88531 0.55391 0.74608 0.0
H5472 H 0.58605 0.24836 0.32679 0.0
H5473 H 0.58239 0.26938 0.30717 0.0
H5474 H 0.53556 0.24654 0.29577 0.0
H5475 H 0.53912 0.22576 0.31592 0.0
H5476 H 0.58161 0.27375 0.2779 0.0
H5477 H 0.51893 0.2885 0.29268 0.0
H5478 H 0.52969 0.27572 0.30543 0.0
H5479 H 0.52027 0.26751 0.28719 0.0
C5480 C 0.57485 0.24766 0.32029 0.0
C5481 C 0.56297 0.23479 0.3236 0.0
C5482 C 0.57267 0.26004 0.30873 0.0
C5483 C 0.55847 0.26058 0.29936 0.0
C5484 C 0.54653 0.24763 0.30268 0.0
H5485 H 0.52783 0.32812 0.22006 0.0
H5486 H 0.52927 0.30766 0.24107 0.0
C5487 C 0.54863 0.23533 0.31446 0.0
C5488 C 0.55682 0.27406 0.28609 0.0
H5489 H 0.5307 0.29993 0.26895 0.0
C5490 C 0.57036 0.27941 0.27622 0.0
C5491 C 0.54235 0.28206 0.28288 0.0
C5492 C 0.52702 0.2783 0.29267 0.0
C5493 C 0.56994 0.2914 0.26377 0.0
C5494 C 0.55557 0.29968 0.26072 0.0
C5495 C 0.54196 0.29429 0.27059 0.0
C5496 C 0.55434 0.31344 0.24756 0.0
C5497 C 0.58514 0.29426 0.25353 0.0
C5498 C 0.56738 0.32497 0.24356 0.0
C5499 C 0.56671 0.33647 0.23085 0.0
C5500 C 0.55265 0.33816 0.2216 0.0
C5501 C 0.5391 0.32763 0.22638 0.0
C5502 C 0.53997 0.31561 0.23874 0.0
H5503 H 0.59253 0.28352 0.25326 0.0
H5504 H 0.58234 0.29695 0.24085 0.0
H5505 H 0.59274 0.30456 0.25889 0.0
H5506 H 0.57844 0.32531 0.25027 0.0
H5507 H 0.5775 0.34422 0.22825 0.0
H5508 H 0.77549 0.54966 0.21097 0.0
H5509 H 0.79513 0.54514 0.23235 0.0
H5510 H 0.81033 0.59595 0.23308 0.0
H5511 H 0.79116 0.60043 0.21194 0.0
H5512 H 0.82896 0.54835 0.23586 0.0
H5513 H 0.80626 0.59181 0.28122 0.0
H5514 H 0.79494 0.58563 0.2634 0.0
H5515 H 0.81142 0.60101 0.26218 0.0
C5516 C 0.78279 0.56002 0.2157 0.0
C5517 C 0.78097 0.5756 0.20914 0.0
C5518 C 0.79438 0.55738 0.22817 0.0
C5519 C 0.80474 0.57013 0.23529 0.0
C5520 C 0.80276 0.5856 0.22875 0.0
H5521 H 0.88074 0.58261 0.31508 0.0
H5522 H 0.86021 0.58587 0.29455 0.0
C5523 C 0.79148 0.58818 0.21622 0.0
C5524 C 0.81764 0.56748 0.24891 0.0
H5525 H 0.83175 0.58181 0.28651 0.0
C5526 C 0.82932 0.5557 0.24694 0.0
C5527 C 0.81908 0.57685 0.2638 0.0
C5528 C 0.8072 0.58943 0.26793 0.0
C5529 C 0.84197 0.55346 0.25843 0.0
C5530 C 0.84332 0.56267 0.27352 0.0
C5531 C 0.8315 0.57441 0.27548 0.0
C5532 C 0.85661 0.56052 0.28702 0.0
C5533 C 0.85434 0.54161 0.25351 0.0
C5534 C 0.86227 0.54522 0.29108 0.0
C5535 C 0.87458 0.54338 0.30285 0.0
C5536 C 0.88203 0.55659 0.31209 0.0
C5537 C 0.87596 0.57185 0.30862 0.0
C5538 C 0.86381 0.57374 0.29655 0.0
H5539 H 0.85535 0.54013 0.24012 0.0
H5540 H 0.86653 0.54559 0.2581 0.0
H5541 H 0.8505 0.52952 0.25838 0.0
H5542 H 0.85701 0.53427 0.28531 0.0
H5543 H 0.87818 0.53124 0.30483 0.0
H5544 H 0.61339 0.79177 0.23484 0.0
H5545 H 0.60672 0.81199 0.25599 0.0
H5546 H 0.55942 0.8139 0.23592 0.0
H5547 H 0.5657 0.79305 0.21583 0.0
H5548 H 0.60206 0.83934 0.26478 0.0
H5549 H 0.53861 0.81798 0.27629 0.0
H5550 H 0.55173 0.80621 0.26382 0.0
H5551 H 0.54158 0.82273 0.2554 0.0
C5552 C 0.60135 0.79615 0.23499 0.0
C5553 C 0.59016 0.78966 0.22313 0.0
C5554 C 0.59741 0.80817 0.24743 0.0
C5555 C 0.58198 0.81507 0.24904 0.0
C5556 C 0.57109 0.80894 0.23669 0.0
H5557 H 0.53592 0.8949 0.31109 0.0
H5558 H 0.54355 0.87408 0.29119 0.0
C5559 C 0.57488 0.79667 0.22456 0.0
C5560 C 0.5777 0.82855 0.26287 0.0
H5561 H 0.54643 0.84408 0.28671 0.0
C5562 C 0.58978 0.83999 0.26945 0.0
C5563 C 0.56184 0.83051 0.27012 0.0
C5564 C 0.54774 0.81862 0.2662 0.0
C5565 C 0.58668 0.85261 0.28166 0.0
C5566 C 0.57074 0.85479 0.28851 0.0
C5567 C 0.55871 0.84334 0.28203 0.0
C5568 C 0.56614 0.86854 0.30183 0.0
C5569 C 0.60086 0.8639 0.2867 0.0
C5570 C 0.57559 0.87353 0.3157 0.0
C5571 C 0.57107 0.88591 0.32754 0.0
C5572 C 0.55659 0.89432 0.32668 0.0
C5573 C 0.54712 0.88922 0.31294 0.0
C5574 C 0.55162 0.8769 0.30116 0.0
H5575 H 0.61077 0.86423 0.27739 0.0
H5576 H 0.59718 0.87646 0.28891 0.0
H5577 H 0.6058 0.85952 0.29805 0.0
H5578 H 0.5866 0.86765 0.31776 0.0
H5579 H 0.5791 0.8888 0.3375 0.0
H5580 H 0.30787 0.54008 0.23496 0.0
H5581 H 0.28746 0.54484 0.2561 0.0
H5582 H 0.32273 0.53802 0.29242 0.0
H5583 H 0.34351 0.53513 0.27111 0.0
H5584 H 0.26967 0.53369 0.27586 0.0
H5585 H 0.30656 0.56935 0.32084 0.0
H5586 H 0.31448 0.56519 0.30082 0.0
H5587 H 0.31446 0.55009 0.31633 0.0
C5588 C 0.31162 0.54023 0.24744 0.0
C5589 C 0.3281 0.53792 0.25073 0.0
C5590 C 0.29954 0.54273 0.25993 0.0
C5591 C 0.30271 0.54254 0.27685 0.0
C5592 C 0.31915 0.53943 0.28009 0.0
H5593 H 0.23339 0.54904 0.36699 0.0
H5594 H 0.25625 0.54288 0.3483 0.0
C5595 C 0.3314 0.53748 0.26754 0.0
C5596 C 0.28884 0.54495 0.29041 0.0
H5597 H 0.28025 0.56026 0.32937 0.0
C5598 C 0.27236 0.53974 0.28738 0.0
C5599 C 0.29114 0.55257 0.30622 0.0
C5600 C 0.30756 0.55976 0.31124 0.0
C5601 C 0.25903 0.5418 0.29875 0.0
C5602 C 0.26133 0.54949 0.31441 0.0
C5603 C 0.27778 0.55436 0.31771 0.0
C5604 C 0.24693 0.55319 0.32679 0.0
C5605 C 0.24239 0.53518 0.29378 0.0
C5606 C 0.23335 0.5613 0.32194 0.0
C5607 C 0.22022 0.56494 0.33276 0.0
C5608 C 0.21935 0.56082 0.34947 0.0
C5609 C 0.23293 0.55259 0.35449 0.0
C5610 C 0.24633 0.54906 0.34355 0.0
H5611 H 0.24306 0.52512 0.28463 0.0
H5612 H 0.23502 0.53066 0.30434 0.0
H5613 H 0.23606 0.54499 0.2882 0.0
H5614 H 0.2329 0.56522 0.30957 0.0
H5615 H 0.21049 0.57121 0.32773 0.0
H5616 H 0.78366 0.87406 0.5366 0.0
H5617 H 0.8048 0.85447 0.53511 0.0
H5618 H 0.79246 0.8402 0.58377 0.0
H5619 H 0.77156 0.85976 0.58518 0.0
H5620 H 0.83356 0.85085 0.55092 0.0
H5621 H 0.79532 0.79552 0.56503 0.0
H5622 H 0.78669 0.81428 0.56038 0.0
H5623 H 0.79377 0.81109 0.58045 0.0
C5624 C 0.78551 0.86714 0.54721 0.0
C5625 C 0.77611 0.86995 0.56156 0.0
C5626 C 0.79781 0.85552 0.54629 0.0
C5627 C 0.80109 0.84535 0.55937 0.0
C5628 C 0.7909 0.84742 0.57324 0.0
H5629 H 0.8714 0.76934 0.5814 0.0
H5630 H 0.84964 0.78779 0.58093 0.0
C5631 C 0.77887 0.85915 0.57421 0.0
C5632 C 0.81503 0.83308 0.55871 0.0
H5633 H 0.82382 0.79331 0.56601 0.0
C5634 C 0.83119 0.83824 0.55411 0.0
C5635 C 0.81285 0.8163 0.56294 0.0
C5636 C 0.79622 0.80887 0.56733 0.0
C5637 C 0.8446 0.82789 0.55407 0.0
C5638 C 0.84245 0.81106 0.55817 0.0
C5639 C 0.82623 0.80588 0.56273 0.0
C5640 C 0.85663 0.79902 0.5582 0.0
C5641 C 0.86127 0.83556 0.55029 0.0
C5642 C 0.86858 0.7979 0.54553 0.0
C5643 C 0.8816 0.78716 0.54594 0.0
C5644 C 0.88372 0.77676 0.55908 0.0
C5645 C 0.8714 0.77742 0.57139 0.0
C5646 C 0.85837 0.78806 0.57095 0.0
H5647 H 0.86192 0.84889 0.5527 0.0
H5648 H 0.87062 0.83027 0.55758 0.0
H5649 H 0.86419 0.8335 0.53725 0.0
H5650 H 0.86788 0.80529 0.53499 0.0
H5651 H 0.89026 0.78726 0.53591 0.0
H5652 H 0.89543 0.32542 0.54019 0.0
H5653 H 0.87404 0.30286 0.54 0.0
H5654 H 0.86667 0.3098 0.59122 0.0
H5655 H 0.88793 0.33188 0.59143 0.0
H5656 H 0.86529 0.27213 0.54992 0.0
H5657 H 0.8199 0.30465 0.58471 0.0
H5658 H 0.83833 0.31503 0.57721 0.0
H5659 H 0.8382 0.30412 0.59586 0.0
C5660 C 0.88921 0.32258 0.55154 0.0
C5661 C 0.89417 0.33189 0.5658 0.0
C5662 C 0.87657 0.30906 0.55147 0.0
C5663 C 0.86725 0.3036 0.56555 0.0
C5664 C 0.87235 0.31294 0.5797 0.0
H5665 H 0.7862 0.22441 0.59491 0.0
H5666 H 0.80687 0.24699 0.59272 0.0
C5667 C 0.88511 0.32612 0.57983 0.0
C5668 C 0.85294 0.28863 0.56567 0.0
H5669 H 0.81438 0.27616 0.58188 0.0
C5670 C 0.85421 0.27344 0.55694 0.0
C5671 C 0.83758 0.28875 0.57452 0.0
C5672 C 0.83325 0.30402 0.58348 0.0
C5673 C 0.84199 0.25952 0.55719 0.0
C5674 C 0.8267 0.25964 0.56616 0.0
C5675 C 0.82543 0.27484 0.57481 0.0
C5676 C 0.81248 0.2446 0.56708 0.0
C5677 C 0.84612 0.24428 0.54808 0.0
C5678 C 0.80681 0.23426 0.55366 0.0
C5679 C 0.79401 0.22098 0.55487 0.0
C5680 C 0.78562 0.21639 0.56969 0.0
C5681 C 0.79138 0.22669 0.58299 0.0
C5682 C 0.8038 0.24015 0.58172 0.0
H5683 H 0.85942 0.24384 0.5461 0.0
H5684 H 0.84155 0.23329 0.55467 0.0
H5685 H 0.84042 0.24396 0.53602 0.0
H5686 H 0.81216 0.2365 0.54179 0.0
H5687 H 0.79094 0.21401 0.54394 0.0
H5688 H 0.23465 0.7871 0.56828 0.0
H5689 H 0.25589 0.80985 0.56885 0.0
H5690 H 0.25232 0.81397 0.51739 0.0
H5691 H 0.23117 0.79203 0.51691 0.0
H5692 H 0.28509 0.82182 0.56177 0.0
H5693 H 0.25508 0.86004 0.52006 0.0
H5694 H 0.24487 0.8418 0.52772 0.0
H5695 H 0.25878 0.84089 0.51055 0.0
C5696 C 0.23817 0.79272 0.55693 0.0
C5697 C 0.23008 0.78666 0.54251 0.0
C5698 C 0.25078 0.80628 0.55724 0.0
C5699 C 0.25652 0.81534 0.54324 0.0
C5700 C 0.24866 0.80885 0.52891 0.0
H5701 H 0.32741 0.90436 0.51652 0.0
H5702 H 0.30743 0.88119 0.51821 0.0
C5703 C 0.23617 0.79549 0.52861 0.0
C5704 C 0.27033 0.83078 0.54339 0.0
H5705 H 0.28222 0.86815 0.52556 0.0
C5706 C 0.28412 0.83184 0.55373 0.0
C5707 C 0.27046 0.84496 0.53335 0.0
C5708 C 0.25646 0.84703 0.52241 0.0
C5709 C 0.29711 0.84504 0.55391 0.0
C5710 C 0.29731 0.85919 0.54373 0.0
C5711 C 0.28338 0.85814 0.53356 0.0
C5712 C 0.31123 0.87459 0.54303 0.0
C5713 C 0.31099 0.84307 0.565 0.0
C5714 C 0.32161 0.88065 0.55607 0.0
C5715 C 0.33384 0.89441 0.55495 0.0
C5716 C 0.3369 0.9039 0.54074 0.0
C5717 C 0.32639 0.89809 0.52788 0.0
C5718 C 0.31436 0.8843 0.52894 0.0
H5719 H 0.3117 0.83023 0.56845 0.0
H5720 H 0.32272 0.84722 0.55918 0.0
H5721 H 0.30916 0.85033 0.57632 0.0
H5722 H 0.32017 0.87507 0.56772 0.0
H5723 H 0.34079 0.89778 0.56562 0.0
H5724 H 0.23024 0.31954 0.52146 0.0
H5725 H 0.25289 0.30287 0.5255 0.0
H5726 H 0.27744 0.34265 0.55184 0.0
H5727 H 0.25398 0.35873 0.54894 0.0
H5728 H 0.27951 0.29711 0.51847 0.0
H5729 H 0.29426 0.3152 0.58166 0.0
H5730 H 0.27621 0.32137 0.57256 0.0
H5731 H 0.29563 0.33217 0.56858 0.0
C5732 C 0.24025 0.32482 0.52841 0.0
C5733 C 0.23933 0.34077 0.53518 0.0
C5734 C 0.25368 0.31505 0.53071 0.0
C5735 C 0.26767 0.32054 0.5396 0.0
C5736 C 0.26707 0.33688 0.54576 0.0
H5737 H 0.36167 0.26495 0.53751 0.0
H5738 H 0.34211 0.28598 0.5339 0.0
C5739 C 0.25332 0.34648 0.5439 0.0
C5740 C 0.28241 0.30934 0.54177 0.0
H5741 H 0.3123 0.29861 0.56794 0.0
C5742 C 0.28643 0.2977 0.52947 0.0
C5743 C 0.29238 0.30921 0.55588 0.0
C5744 C 0.28935 0.32003 0.57048 0.0
C5745 C 0.29912 0.28665 0.5308 0.0
C5746 C 0.30899 0.28668 0.54475 0.0
C5747 C 0.30524 0.29828 0.55702 0.0
C5748 C 0.32203 0.27395 0.54722 0.0
C5749 C 0.3017 0.27448 0.51724 0.0
C5750 C 0.31818 0.25964 0.55591 0.0
C5751 C 0.32953 0.24759 0.55799 0.0
C5752 C 0.34566 0.24867 0.55168 0.0
C5753 C 0.34962 0.26306 0.54281 0.0
C5754 C 0.33821 0.27534 0.54073 0.0
H5755 H 0.29362 0.27595 0.5069 0.0
H5756 H 0.3145 0.27573 0.51284 0.0
H5757 H 0.29941 0.26201 0.52187 0.0
H5758 H 0.30604 0.2575 0.56096 0.0
H5759 H 0.32517 0.23684 0.56394 0.0
H5760 H 0.13793 0.19139 0.39095 0.0
H5761 H 0.16185 0.17626 0.38624 0.0
H5762 H 0.13255 0.13685 0.36415 0.0
H5763 H 0.10849 0.1522 0.36819 0.0
H5764 H 0.1493 0.12749 0.39031 0.0
H5765 H 0.19122 0.16175 0.34869 0.0
H5766 H 0.18322 0.17485 0.36415 0.0
H5767 H 0.16974 0.16453 0.34983 0.0
C5768 C 0.13654 0.17979 0.38452 0.0
C5769 C 0.1211 0.17297 0.38025 0.0
C5770 C 0.15033 0.17111 0.38182 0.0
C5771 C 0.14904 0.1554 0.37485 0.0
C5772 C 0.13385 0.14894 0.36959 0.0
H5773 H 0.23874 0.10358 0.37359 0.0
H5774 H 0.21373 0.1145 0.36452 0.0
C5775 C 0.12006 0.1577 0.37209 0.0
C5776 C 0.16295 0.14498 0.37558 0.0
H5777 H 0.2037 0.14491 0.36788 0.0
C5778 C 0.16114 0.13113 0.38514 0.0
C5779 C 0.17832 0.14947 0.36858 0.0
C5780 C 0.18072 0.16336 0.35709 0.0
C5781 C 0.17448 0.12239 0.38886 0.0
C5782 C 0.19014 0.12784 0.38319 0.0
C5783 C 0.19177 0.14095 0.37261 0.0
C5784 C 0.205 0.12057 0.38869 0.0
C5785 C 0.17165 0.10753 0.39907 0.0
C5786 C 0.20846 0.12033 0.40529 0.0
C5787 C 0.22267 0.11396 0.41049 0.0
C5788 C 0.23385 0.10808 0.39915 0.0
C5789 C 0.23035 0.10819 0.38256 0.0
C5790 C 0.21608 0.11441 0.37738 0.0
H5791 H 0.15912 0.10194 0.39774 0.0
H5792 H 0.18034 0.09826 0.39575 0.0
H5793 H 0.17322 0.1111 0.41202 0.0
H5794 H 0.20032 0.12537 0.41424 0.0
H5795 H 0.22519 0.11414 0.42332 0.0
H5796 H 0.03362 0.21186 0.39918 0.0
H5797 H 1.017 0.18634 0.39842 0.0
H5798 H 0.03543 0.17405 0.4446 0.0
H5799 H 0.05278 0.19965 0.44508 0.0
H5800 H 0.03129 0.14682 0.42482 0.0
H5801 H 0.97522 0.17957 0.42312 0.0
H5802 H 0.98962 0.18515 0.4073 0.0
H5803 H 0.99471 0.18922 0.42823 0.0
C5804 C 0.03413 0.20382 0.40928 0.0
C5805 C 0.04434 0.20812 0.4224 0.0
C5806 C 0.02452 0.18913 0.40884 0.0
C5807 C 0.02437 0.17828 0.42169 0.0
C5808 C 0.03507 0.18218 0.43455 0.0
H5809 H 0.94379 0.10718 0.44383 0.0
H5810 H 0.96311 0.131 0.4414 0.0
C5811 C 0.04499 0.19688 0.43487 0.0
C5812 C 1.01264 0.16333 0.42185 0.0
H5813 H 0.9722 0.15123 0.41917 0.0
C5814 C 1.01837 0.14782 0.42364 0.0
C5815 C 0.99565 0.16435 0.42041 0.0
C5816 C 0.98833 0.18046 0.41977 0.0
C5817 C 1.00773 0.13358 0.42403 0.0
C5818 C 0.99074 0.13468 0.42229 0.0
C5819 C 0.9851 0.15016 0.42042 0.0
C5820 C 0.97851 0.12019 0.42311 0.0
C5821 C 1.01483 0.11758 0.42681 0.0
C5822 C 0.9801 0.10618 0.41325 0.0
C5823 C 0.96909 0.09249 0.41475 0.0
C5824 C 0.95588 0.09245 0.42588 0.0
C5825 C 0.95371 0.10677 0.43507 0.0
C5826 C 0.96488 0.1204 0.43374 0.0
H5827 H 0.02688 0.11931 0.43254 0.0
H5828 H 1.0067 0.10972 0.43465 0.0
H5829 H 1.01652 0.11115 0.41498 0.0
H5830 H 0.98997 0.10572 0.40445 0.0
H5831 H 0.97105 0.08177 0.40732 0.0
H5832 H 0.9912 0.90473 0.40062 0.0
H5833 H 0.97215 0.926 0.40467 0.0
H5834 H 0.98818 0.93395 0.45365 0.0
H5835 H 1.00681 0.912 0.44979 0.0
H5836 H 0.94573 0.92725 0.4277 0.0
H5837 H 0.98853 0.98119 0.43653 0.0
H5838 H 0.99462 0.96247 0.42718 0.0
H5839 H 0.99196 0.96411 0.44879 0.0
C5840 C 0.99059 0.9108 0.41237 0.0
C5841 C 1.00039 0.90602 0.42498 0.0
C5842 C 0.97968 0.92323 0.41465 0.0
C5843 C 0.97838 0.93194 0.42952 0.0
C5844 C 0.98874 0.92774 0.44196 0.0
H5845 H 0.9149 1.00945 0.4662 0.0
H5846 H 0.93633 0.9904 0.46188 0.0
C5847 C 0.99951 0.91506 0.43974 0.0
C5848 C 0.96572 0.94466 0.43208 0.0
H5849 H 0.96066 0.98516 0.44095 0.0
C5850 C 0.94911 0.9399 0.43052 0.0
C5851 C 0.96969 0.96137 0.43587 0.0
C5852 C 0.98715 0.96773 0.43708 0.0
C5853 C 0.93668 0.9509 0.43296 0.0
C5854 C 0.94055 0.9677 0.43664 0.0
C5855 C 0.95724 0.97249 0.43817 0.0
C5856 C 0.92753 0.9802 0.43903 0.0
C5857 C 0.91935 0.94409 0.43236 0.0
C5858 C 0.91524 0.98171 0.4276 0.0
C5859 C 0.90288 0.99269 0.43012 0.0
C5860 C 0.9021 1.00281 0.44416 0.0
C5861 C 0.91474 1.00185 0.4553 0.0
C5862 C 0.92715 0.99083 0.45279 0.0
H5863 H 0.91825 0.9308 0.43436 0.0
H5864 H 0.91191 0.95013 0.44172 0.0
H5865 H 0.91442 0.94616 0.42026 0.0
H5866 H 0.91521 0.97443 0.41651 0.0
H5867 H 0.8939 0.99331 0.42087 0.0
H5868 H 0.17229 0.04523 0.396 0.0
H5869 H 0.14641 0.0325 0.38672 0.0
H5870 H 0.17061 1.01246 0.34481 0.0
H5871 H 0.19653 1.02529 0.35403 0.0
H5872 H 0.12709 1.02404 0.35211 0.0
H5873 H 0.15935 0.9763 0.38222 0.0
H5874 H 0.16485 0.99756 0.38607 0.0
H5875 H 0.16968 0.98835 0.36681 0.0
C5876 C 0.17191 0.03896 0.38429 0.0
C5877 C 0.1864 0.03623 0.37572 0.0
C5878 C 0.15711 0.03164 0.37901 0.0
C5879 C 0.1566 1.02137 0.36517 0.0
C5880 C 0.1707 1.02039 0.35547 0.0
H5881 H 0.09236 0.93409 0.37603 0.0
H5882 H 0.113 0.95229 0.36336 0.0
C5883 C 0.18552 0.02779 0.36072 0.0
C5884 C 0.14304 1.00864 0.36368 0.0
H5885 H 0.1321 0.97066 0.37699 0.0
C5886 C 0.12817 1.01224 0.35729 0.0
C5887 C 0.14456 0.99314 0.37012 0.0
C5888 C 0.16042 0.98848 0.37674 0.0
C5889 C 0.11461 1.00085 0.35767 0.0
C5890 C 0.11574 0.98579 0.36547 0.0
C5891 C 0.13094 0.98206 0.37107 0.0
C5892 C 0.10132 0.97441 0.36957 0.0
C5893 C 0.0994 1.00513 0.34952 0.0
C5894 C 0.08724 0.9804 0.37659 0.0
C5895 C 0.07492 0.96987 0.38306 0.0
C5896 C 0.07662 0.95299 0.38374 0.0
C5897 C 0.09038 0.94689 0.37597 0.0
C5898 C 0.10241 0.95742 0.36881 0.0
H5899 H 0.10244 1.01229 0.33852 0.0
H5900 H 0.09164 0.99417 0.34594 0.0
H5901 H 0.0924 1.01289 0.35789 0.0
H5902 H 0.08599 0.99332 0.37788 0.0
H5903 H 0.06429 0.97524 0.38809 0.0
H5904 H 0.17369 1.01237 0.67323 0.0
H5905 H 0.15568 0.98754 0.67451 0.0
H5906 H 0.13496 1.00465 0.71967 0.0
H5907 H 0.15255 0.02971 0.71812 0.0
H5908 H 0.15175 0.96348 0.69449 0.0
H5909 H 0.09393 0.99385 0.69635 0.0
H5910 H 0.1132 1.00483 0.69252 0.0
H5911 H 0.10707 0.99946 0.71285 0.0
C5912 C 0.16539 1.0108 0.6835 0.0
C5913 C 0.16452 1.02317 0.69547 0.0
C5914 C 0.15499 0.99658 0.6842 0.0
C5915 C 0.14347 0.99423 0.69695 0.0
C5916 C 0.14317 1.00626 0.70935 0.0
H5917 H 0.0919 0.89703 0.70822 0.0
H5918 H 0.10846 0.92235 0.71337 0.0
C5919 C 0.15341 1.02057 0.70853 0.0
C5920 C 0.1321 0.97913 0.69717 0.0
H5921 H 0.09195 0.96519 0.69765 0.0
C5922 C 0.13869 0.96394 0.69529 0.0
C5923 C 0.11493 0.97949 0.69821 0.0
C5924 C 0.10682 0.99527 0.69996 0.0
C5925 C 0.12881 0.94936 0.69398 0.0
C5926 C 0.11169 0.94968 0.69474 0.0
C5927 C 0.10503 0.96482 0.69703 0.0
C5928 C 0.10069 0.9345 0.69227 0.0
C5929 C 0.13677 0.93378 0.69064 0.0
C5930 C 0.09037 0.93278 0.67891 0.0
C5931 C 0.08084 0.91823 0.67593 0.0
C5932 C 0.08123 0.90502 0.68634 0.0
C5933 C 0.09137 0.90685 0.69985 0.0
C5934 C 0.10089 0.92138 0.70281 0.0
H5935 H 0.14992 0.93579 0.68772 0.0
H5936 H 0.1353 0.92593 0.70134 0.0
H5937 H 0.13075 0.92735 0.68026 0.0
H5938 H 0.08992 0.94262 0.67055 0.0
H5939 H 0.07319 0.91728 0.66542 0.0
H5940 H 0.13621 0.22462 0.66061 0.0
H5941 H 0.15443 0.2023 0.65942 0.0
H5942 H 0.12678 0.17879 0.698 0.0
H5943 H 0.10925 0.20166 0.69983 0.0
H5944 H 0.17464 0.19111 0.68241 0.0
H5945 H 0.13055 0.14023 0.66558 0.0
H5946 H 0.12617 0.16123 0.66376 0.0
H5947 H 0.12499 0.15199 0.68324 0.0
C5948 C 0.13384 0.21465 0.66875 0.0
C5949 C 0.1206 0.21492 0.67987 0.0
C5950 C 0.14437 0.20172 0.66807 0.0
C5951 C 0.14208 0.18823 0.67831 0.0
C5952 C 0.12885 0.18851 0.68949 0.0
H5953 H 0.22101 0.12158 0.69616 0.0
H5954 H 0.20035 0.1414 0.69873 0.0
C5955 C 0.11853 0.20165 0.69041 0.0
C5956 C 0.15398 0.17458 0.67778 0.0
H5957 H 0.15712 0.13332 0.67134 0.0
C5958 C 0.17066 0.17849 0.68006 0.0
C5959 C 0.14927 0.15787 0.67457 0.0
C5960 C 0.13181 0.15248 0.67151 0.0
C5961 C 0.18241 0.16661 0.67928 0.0
C5962 C 0.1778 0.14986 0.67618 0.0
C5963 C 0.16107 0.14592 0.67381 0.0
C5964 C 0.1902 0.13662 0.67498 0.0
C5965 C 0.19995 0.17233 0.68088 0.0
C5966 C 0.19152 0.12626 0.6611 0.0
C5967 C 0.20356 0.11471 0.65962 0.0
C5968 C 0.21487 0.11293 0.67194 0.0
C5969 C 0.21308 0.12278 0.68608 0.0
C5970 C 0.2011 0.1343 0.68756 0.0
H5971 H 0.20201 0.18568 0.67962 0.0
H5972 H 0.20424 0.1692 0.69297 0.0
H5973 H 0.20722 0.16622 0.67141 0.0
H5974 H 0.18342 0.12735 0.65113 0.0
H5975 H 0.20424 0.1074 0.64857 0.0
H5976 H 0.06227 0.14738 0.72923 0.0
H5977 H 0.04153 0.13081 0.74354 0.0
H5978 H 1.0152 0.1732 0.7542 0.0
H5979 H 0.03456 0.1895 0.73791 0.0
H5980 H 0.02705 0.12659 0.77095 0.0
H5981 H 0.98155 0.14848 0.72967 0.0
H5982 H 1.00282 0.15412 0.72724 0.0
H5983 H 0.99074 0.16432 0.74229 0.0
C5984 C 0.05193 0.15326 0.73425 0.0
C5985 C 0.04987 0.16978 0.73148 0.0
C5986 C 0.04017 0.14372 0.74281 0.0
C5987 C 0.02631 0.15054 0.74935 0.0
C5988 C 0.02533 0.16743 0.74856 0.0
H5989 H 0.93359 0.1024 0.77279 0.0
H5990 H 0.9589 0.11702 0.78093 0.0
C5991 C 0.03672 0.17687 0.73942 0.0
C5992 C 1.01231 0.13971 0.75529 0.0
H5993 H 0.97231 0.12925 0.74839 0.0
C5994 C 1.01505 0.12728 0.7661 0.0
C5995 C 0.99658 0.14043 0.74893 0.0
C5996 C 0.99275 0.15243 0.73629 0.0
C5997 C 1.0027 0.11537 0.77023 0.0
C5998 C 0.98719 0.11609 0.76365 0.0
C5999 C 0.98423 0.12888 0.75354 0.0
C6000 C 0.97411 0.10296 0.76518 0.0
C6001 C 1.00629 0.10186 0.78122 0.0
C6002 C 0.9744 0.08935 0.75462 0.0
C6003 C 0.95986 0.081 0.74987 0.0
C6004 C 0.94495 0.08621 0.7557 0.0
C6005 C 0.94494 0.09805 0.76826 0.0
C6006 C 0.95943 0.10648 0.77288 0.0
H6007 H 1.01796 0.10444 0.78751 0.0
H6008 H 0.99638 0.09988 0.7904 0.0
H6009 H 1.00698 0.09044 0.77391 0.0
H6010 H 0.98559 0.08653 0.74841 0.0
H6011 H 0.9602 0.07206 0.74004 0.0
H6012 H 0.98923 0.92859 0.71986 0.0
H6013 H 0.96771 0.94561 0.72894 0.0
H6014 H 1.00281 0.97905 0.75219 0.0
H6015 H 0.02457 0.96203 0.743 0.0
H6016 H 0.95594 0.96018 0.75822 0.0
H6017 H 0.98528 1.00621 0.7167 0.0
H6018 H 0.99184 0.98584 0.71694 0.0
H6019 H 0.9966 0.99985 0.73344 0.0
C6020 C 0.99237 0.93926 0.72736 0.0
C6021 C 1.00865 0.9441 0.73044 0.0
C6022 C 0.98003 0.94904 0.73252 0.0
C6023 C 0.98369 0.96382 0.74089 0.0
C6024 C 0.99975 0.9679 0.7454 0.0
H6025 H 0.89436 1.0183 0.74727 0.0
H6026 H 0.91932 1.00781 0.7572 0.0
C6027 C 1.01215 0.95815 0.74015 0.0
C6028 C 0.97095 0.97563 0.74262 0.0
H6029 H 0.95833 1.00897 0.72429 0.0
C6030 C 0.95651 0.97103 0.75104 0.0
C6031 C 0.97185 0.98999 0.73356 0.0
C6032 C 0.98717 0.99584 0.72458 0.0
C6033 C 0.94249 0.97955 0.74948 0.0
C6034 C 0.94293 0.99297 0.73904 0.0
C6035 C 0.95785 0.99845 0.73192 0.0
C6036 C 0.92802 1.00017 0.73346 0.0
C6037 C 0.9274 0.9735 0.75864 0.0
C6038 C 0.92482 0.99999 0.71677 0.0
C6039 C 0.91086 1.00638 0.71107 0.0
C6040 C 0.89959 1.01279 0.72196 0.0
C6041 C 0.90281 1.01323 0.73864 0.0
C6042 C 0.91703 1.0072 0.74433 0.0
H6043 H 0.92762 0.97903 0.77105 0.0
H6044 H 0.91624 0.97672 0.75285 0.0
H6045 H 0.92687 0.9601 0.75984 0.0
H6046 H 0.93308 0.99466 0.7081 0.0
H6047 H 0.9086 1.00586 0.69818 0.0
H6048 H 0.41876 0.09993 0.13784 0.0
H6049 H 0.41081 0.11811 0.11709 0.0
H6050 H 0.36886 0.12932 0.14612 0.0
H6051 H 0.37723 0.11157 0.16723 0.0
H6052 H 0.38614 0.12819 0.09822 0.0
H6053 H 0.39762 0.17083 0.15091 0.0
H6054 H 0.40132 0.14965 0.15176 0.0
H6055 H 0.38093 0.15591 0.15306 0.0
C6056 C 0.40728 0.10543 0.13935 0.0
C6057 C 0.39875 0.10452 0.15424 0.0
C6058 C 0.40283 0.11605 0.12754 0.0
C6059 C 0.38965 0.12568 0.13039 0.0
C6060 C 0.3794 0.12244 0.1439 0.0
H6061 H 0.39142 0.22322 0.08906 0.0
H6062 H 0.38008 0.19804 0.10108 0.0
C6063 C 0.38399 0.11199 0.15583 0.0
C6064 C 0.38891 0.14091 0.12121 0.0
H6065 H 0.39663 0.18206 0.1255 0.0
C6066 C 0.38814 0.13999 0.10422 0.0
C6067 C 0.3915 0.1564 0.12899 0.0
C6068 C 0.39301 0.15837 0.14716 0.0
C6069 C 0.39063 0.15398 0.09485 0.0
C6070 C 0.39429 0.16924 0.1026 0.0
C6071 C 0.39395 0.17032 0.11957 0.0
C6072 C 0.40015 0.18395 0.09356 0.0
C6073 C 0.38977 0.15226 0.0767 0.0
C6074 C 0.41528 0.18451 0.08541 0.0
C6075 C 0.42206 0.19907 0.07897 0.0
C6076 C 0.41373 0.21332 0.08032 0.0
C6077 C 0.3983 0.21255 0.08798 0.0
C6078 C 0.39169 0.1981 0.09471 0.0
H6079 H 0.38196 0.14137 0.07295 0.0
H6080 H 0.385 0.16317 0.07145 0.0
H6081 H 0.40215 0.15082 0.07167 0.0
H6082 H 0.42217 0.17382 0.0846 0.0
H6083 H 0.43398 0.19927 0.07325 0.0
H6084 H 0.03439 0.39417 0.20789 0.0
H6085 H 1.01614 0.3922 0.18467 0.0
H6086 H 1.02275 0.44403 0.17934 0.0
H6087 H 0.04093 0.44601 0.20252 0.0
H6088 H 0.98927 0.4309 0.18025 0.0
H6089 H 0.02667 0.39802 0.13515 0.0
H6090 H 0.02477 0.39007 0.15527 0.0
H6091 H 0.03544 0.40943 0.15215 0.0
C6092 C 0.03198 0.40513 0.2017 0.0
C6093 C 0.03893 0.42028 0.20718 0.0
C6094 C 1.02164 0.40398 0.18834 0.0
C6095 C 1.01802 0.41797 0.18014 0.0
C6096 C 0.02528 0.43305 0.18542 0.0
H6097 H 0.97873 0.4318 0.08671 0.0
H6098 H 0.9942 0.42681 0.11028 0.0
C6099 C 0.03573 0.43417 0.19865 0.0
C6100 C 1.00617 0.41714 0.16655 0.0
H6101 H 1.00075 0.40412 0.1272 0.0
C6102 C 0.99171 0.42499 0.16864 0.0
C6103 C 1.00933 0.40945 0.15139 0.0
C6104 C 0.02491 0.40132 0.14818 0.0
C6105 C 0.9806 0.42583 0.15598 0.0
C6106 C 0.98376 0.41829 0.14062 0.0
C6107 C 0.99809 0.40997 0.13878 0.0
C6108 C 0.9735 0.42033 0.12589 0.0
C6109 C 0.966 0.43552 0.15913 0.0
C6110 C 0.95639 0.41799 0.12614 0.0
C6111 C 0.94723 0.42167 0.11258 0.0
C6112 C 0.95492 0.42739 0.09819 0.0
C6113 C 0.97207 0.42829 0.09764 0.0
C6114 C 0.98111 0.4251 0.11121 0.0
H6115 H 0.9676 0.44385 0.16986 0.0
H6116 H 0.96351 0.44286 0.14852 0.0
H6117 H 0.95526 0.42707 0.16163 0.0
H6118 H 0.95001 0.41356 0.13689 0.0
H6119 H 0.93413 0.4205 0.1136 0.0
H6120 H 0.75041 1.00335 0.18949 0.0
H6121 H 0.76365 0.98737 0.16834 0.0
H6122 H 0.78318 0.03145 0.14623 0.0
H6123 H 0.7699 0.04748 0.16732 0.0
H6124 H 0.76077 1.01305 0.12792 0.0
H6125 H 0.80746 0.97405 0.14897 0.0
H6126 H 0.78976 0.97408 0.162 0.0
H6127 H 0.80242 0.99251 0.15966 0.0
C6128 C 0.75818 1.00961 0.18058 0.0
C6129 C 0.75898 0.02663 0.17989 0.0
C6130 C 0.76581 1.00046 0.16851 0.0
C6131 C 0.77444 1.00823 0.15571 0.0
C6132 C 0.77666 1.02523 0.15603 0.0
H6133 H 0.76734 0.96315 0.05883 0.0
H6134 H 0.78136 0.98092 0.07911 0.0
C6135 C 0.769 0.03436 0.16803 0.0
C6136 C 0.77736 0.99905 0.14038 0.0
H6137 H 0.79339 0.96488 0.12466 0.0
C6138 C 0.76829 1.0028 0.12701 0.0
C6139 C 0.78702 0.9856 0.13934 0.0
C6140 C 0.79735 0.98138 0.15322 0.0
C6141 C 0.76757 0.99277 0.11307 0.0
C6142 C 0.77668 0.97884 0.11223 0.0
C6143 C 0.78658 0.97564 0.12523 0.0
C6144 C 0.77348 0.96612 0.09946 0.0
C6145 C 0.75588 0.99642 0.10004 0.0
C6146 C 0.76573 0.95126 0.10401 0.0
C6147 C 0.75786 0.94108 0.0925 0.0
C6148 C 0.75756 0.94559 0.0762 0.0
C6149 C 0.76703 0.95953 0.07135 0.0
C6150 C 0.77506 0.96967 0.08292 0.0
H6151 H 0.74784 1.0061 0.10391 0.0
H6152 H 0.76279 1.00055 0.08906 0.0
H6153 H 0.74813 0.98537 0.09669 0.0
H6154 H 0.7644 0.94822 0.11668 0.0
H6155 H 0.75069 0.93051 0.09675 0.0
H6156 H 0.11307 0.70424 0.20431 0.0
H6157 H 0.13417 0.70174 0.18344 0.0
H6158 H 0.11118 0.65587 0.1676 0.0
H6159 H 0.09024 0.65811 0.18923 0.0
H6160 H 0.15728 0.681 0.17832 0.0
H6161 H 0.1198 0.67531 0.12358 0.0
H6162 H 0.11163 0.6813 0.14313 0.0
H6163 H 0.11447 0.66028 0.13846 0.0
C6164 C 0.11255 0.69337 0.19673 0.0
C6165 C 0.09988 0.68119 0.19924 0.0
C6166 C 0.12472 0.69203 0.1844 0.0
C6167 C 0.12477 0.67862 0.17339 0.0
C6168 C 0.11177 0.66658 0.17546 0.0
H6169 H 0.19672 0.6533 0.09311 0.0
H6170 H 0.17308 0.65375 0.11191 0.0
C6171 C 0.09964 0.66784 0.18805 0.0
C6172 C 0.13875 0.67724 0.16054 0.0
H6173 H 0.14793 0.67204 0.11959 0.0
C6174 C 0.15504 0.67913 0.16549 0.0
C6175 C 0.1365 0.67456 0.14352 0.0
C6176 C 0.11969 0.67288 0.13675 0.0
C6177 C 0.16859 0.67824 0.15448 0.0
C6178 C 0.16648 0.676 0.13741 0.0
C6179 C 0.15014 0.6739 0.13241 0.0
C6180 C 0.18098 0.67592 0.12492 0.0
C6181 C 0.18522 0.67878 0.16154 0.0
C6182 C 0.19374 0.68833 0.12498 0.0
C6183 C 0.20737 0.68807 0.11411 0.0
C6184 C 0.2092 0.67542 0.1024 0.0
C6185 C 0.19619 0.66327 0.10186 0.0
C6186 C 0.18246 0.66354 0.11278 0.0
H6187 H 0.18476 0.67553 0.17453 0.0
H6188 H 0.19274 0.6702 0.15476 0.0
H6189 H 0.19108 0.69124 0.1607 0.0
H6190 H 0.19316 0.69852 0.13343 0.0
H6191 H 0.21658 0.69801 0.11489 0.0
H6192 H 0.4437 0.02749 0.8884 0.0
H6193 H 0.4414 1.01001 0.91198 0.0
H6194 H 0.38934 1.00654 0.90798 0.0
H6195 H 0.39191 1.02269 0.88345 0.0
H6196 H 0.43125 1.0113 0.94002 0.0
H6197 H 0.39121 0.96098 0.91443 0.0
H6198 H 0.39915 0.97755 0.90232 0.0
H6199 H 0.38161 0.97978 0.9153 0.0
C6200 C 0.43177 1.0228 0.89245 0.0
C6201 C 0.41803 0.02629 0.8838 0.0
C6202 C 0.4304 1.01277 0.90608 0.0
C6203 C 0.41518 1.00625 0.91193 0.0
C6204 C 0.40136 1.01046 0.90361 0.0
H6205 H 0.40519 0.96729 1.01062 0.0
H6206 H 0.4036 0.98305 0.98615 0.0
C6207 C 0.4028 1.01996 0.88959 0.0
C6208 C 0.41401 0.99555 0.92683 0.0
H6209 H 0.3965 0.96001 0.94248 0.0
C6210 C 0.42369 1.00005 0.94032 0.0
C6211 C 0.40408 0.98073 0.92784 0.0
C6212 C 0.39351 0.97438 0.91415 0.0
C6213 C 0.42388 0.9904 0.95426 0.0
C6214 C 0.41396 0.9757 0.95519 0.0
C6215 C 0.40419 0.97118 0.94189 0.0
C6216 C 0.41354 0.96511 0.96995 0.0
C6217 C 0.43502 0.99591 0.96785 0.0
C6218 C 0.4189 0.94922 0.9692 0.0
C6219 C 0.41984 0.94003 0.98338 0.0
C6220 C 0.41536 0.94644 0.99872 0.0
C6221 C 0.40905 0.96194 0.99917 0.0
C6222 C 0.40818 0.97108 0.98511 0.0
H6223 H 0.44451 1.00524 0.96388 0.0
H6224 H 0.42782 1.0013 0.97787 0.0
H6225 H 0.44102 0.98549 0.97269 0.0
H6226 H 0.42298 0.94415 0.9577 0.0
H6227 H 0.42482 0.92824 0.98243 0.0
H6228 H 0.16798 0.35827 0.033 0.0
H6229 H 0.14121 0.35488 1.02081 0.0
H6230 H 0.16251 0.33325 0.97794 0.0
H6231 H 0.18908 0.33599 0.99041 0.0
H6232 H 0.13587 0.37151 0.99624 0.0
H6233 H 0.11972 0.30803 0.97789 0.0
H6234 H 0.13531 0.31344 0.99243 0.0
H6235 H 0.13996 0.31368 0.97096 0.0
C6236 C 0.16681 0.35234 1.02118 0.0
C6237 C 0.1806 0.34756 1.01255 0.0
C6238 C 0.15151 0.35032 1.01424 0.0
C6239 C 0.14972 0.34373 0.99844 0.0
C6240 C 0.16337 0.33797 0.99027 0.0
H6241 H 0.11218 0.37336 0.9164 0.0
H6242 H 0.12094 0.35464 0.93627 0.0
C6243 C 0.17864 0.33971 0.99734 0.0
C6244 C 0.13476 0.34612 0.98933 0.0
H6245 H 0.1096 0.32876 0.96042 0.0
C6246 C 0.12976 0.362 0.98887 0.0
C6247 C 0.12677 0.33378 0.97958 0.0
C6248 C 0.13064 0.31625 0.98039 0.0
C6249 C 0.11804 0.36618 0.97806 0.0
C6250 C 0.11088 0.3541 0.96748 0.0
C6251 C 0.11506 0.33798 0.96858 0.0
C6252 C 0.10153 0.35895 0.95352 0.0
C6253 C 0.11442 0.38383 0.97712 0.0
C6254 C 0.0869 0.36643 0.95603 0.0
C6255 C 0.08189 0.37722 0.94464 0.0
C6256 C 0.09145 0.38044 0.93067 0.0
C6257 C 0.10464 0.37103 0.92711 0.0
C6258 C 0.10963 0.3603 0.93845 0.0
H6259 H 0.12231 0.39189 0.98506 0.0
H6260 H 0.11608 0.38801 0.96447 0.0
H6261 H 0.10163 0.38525 0.98091 0.0
H6262 H 0.08045 0.36546 0.96758 0.0
H6263 H 0.07172 0.38441 0.94766 0.0
H6264 H 0.66586 0.20069 1.02179 0.0
H6265 H 0.66434 0.17735 1.00254 0.0
H6266 H 0.71082 0.19365 0.98208 0.0
H6267 H 0.71277 0.21616 1.00193 0.0
H6268 H 0.66187 0.17285 0.97177 0.0
H6269 H 0.72064 0.14843 0.98357 0.0
H6270 H 0.71277 0.16427 0.99625 0.0
H6271 H 0.72342 0.16909 0.97746 0.0
C6272 C 0.67592 0.19917 1.01339 0.0
C6273 C 0.68938 0.21074 1.01352 0.0
C6274 C 0.675 0.18573 1.00215 0.0
C6275 C 0.68755 0.18308 0.99057 0.0
C6276 C 0.70104 0.1946 0.9909 0.0
H6277 H 0.70535 0.1141 0.90811 0.0
H6278 H 0.70626 0.13555 0.92926 0.0
C6279 C 0.70205 0.20787 1.00224 0.0
C6280 C 0.68633 0.16878 0.978 0.0
H6281 H 0.70765 0.13861 0.95946 0.0
C6282 C 0.67192 0.16534 0.96927 0.0
C6283 C 0.69922 0.15855 0.97427 0.0
C6284 C 0.7148 0.16015 0.9835 0.0
C6285 C 0.67025 0.15284 0.95695 0.0
C6286 C 0.68325 0.14277 0.95305 0.0
C6287 C 0.69757 0.14608 0.96196 0.0
C6288 C 0.68248 0.12915 0.93974 0.0
C6289 C 0.65462 0.15112 0.94782 0.0
C6290 C 0.66908 0.11758 0.93815 0.0
C6291 C 0.66836 0.1055 0.9255 0.0
C6292 C 0.68111 0.10417 0.91395 0.0
C6293 C 0.6949 0.11505 0.91611 0.0
C6294 C 0.69551 0.12731 0.92855 0.0
H6295 H 0.64829 0.16256 0.94838 0.0
H6296 H 0.65673 0.14772 0.93488 0.0
H6297 H 0.64639 0.14157 0.95345 0.0
H6298 H 0.65907 0.11771 0.94679 0.0
H6299 H 0.65763 0.09724 0.92472 0.0
H6300 H 1.0185 0.7774 0.90813 0.0
H6301 H 1.00999 0.79285 0.93203 0.0
H6302 H 0.03314 0.76033 0.96263 0.0
H6303 H 0.04154 0.74473 0.93875 0.0
H6304 H 0.9904 0.76623 0.94811 0.0
H6305 H 0.02814 0.80486 0.99094 0.0
H6306 H 0.03171 0.80472 0.96922 0.0
H6307 H 0.0374 0.78809 0.98083 0.0
C6308 C 1.02272 0.77421 0.91989 0.0
C6309 C 0.03026 0.75963 0.92168 0.0
C6310 C 1.0179 0.78311 0.93356 0.0
C6311 C 1.0207 0.77757 0.94912 0.0
C6312 C 0.03091 0.76485 0.95074 0.0
H6313 H 0.94699 0.74767 1.01448 0.0
H6314 H 0.97465 0.75318 1.00444 0.0
C6315 C 0.0357 0.75589 0.93704 0.0
C6316 C 1.00841 0.78013 0.96207 0.0
H6317 H 1.00236 0.79388 1.00105 0.0
C6318 C 0.99297 0.77251 0.95959 0.0
C6319 C 1.01185 0.78824 0.977 0.0
C6320 C 0.02813 0.79707 0.97975 0.0
C6321 C 0.98099 0.77229 0.97175 0.0
C6322 C 0.98456 0.77962 0.98706 0.0
C6323 C 0.9998 0.78792 0.98944 0.0
C6324 C 0.97206 0.77857 1.0002 0.0
C6325 C 0.96459 0.76387 0.96816 0.0
C6326 C 0.96206 0.79144 1.00279 0.0
C6327 C 0.94624 0.7884 1.0089 0.0
C6328 C 0.94009 0.77237 1.01203 0.0
C6329 C 0.95107 0.7601 1.01195 0.0
C6330 C 0.96701 0.76324 1.00622 0.0
H6331 H 0.9628 0.76186 0.95494 0.0
H6332 H 0.96356 0.75184 0.97392 0.0
H6333 H 0.95467 0.77105 0.97314 0.0
H6334 H 0.96578 0.80341 0.9984 0.0
H6335 H 0.93838 0.79836 1.00959 0.0
H6336 H 0.21469 0.36599 0.07881 0.0
H6337 H 0.19183 0.35005 0.09158 0.0
H6338 H 0.17237 0.3943 0.10958 0.0
H6339 H 0.19518 0.41023 0.09713 0.0
H6340 H 0.18259 0.36494 0.13246 0.0
H6341 H 0.13743 0.35066 0.08442 0.0
H6342 H 0.15905 0.35064 0.08056 0.0
H6343 H 0.14978 0.36953 0.08331 0.0
C6344 C 0.20535 0.37231 0.08522 0.0
C6345 C 0.20678 0.38937 0.08713 0.0
C6346 C 0.19232 0.36319 0.09247 0.0
C6347 C 0.18041 0.37104 0.10141 0.0
C6348 C 0.1814 0.38806 0.10259 0.0
H6349 H 0.105 0.3853 0.15695 0.0
H6350 H 0.11942 0.3757 0.1329 0.0
C6351 C 0.19444 0.39715 0.09551 0.0
C6352 C 0.16795 0.36189 0.11134 0.0
H6353 H 0.12759 0.35 0.11177 0.0
C6354 C 0.17067 0.36115 0.12796 0.0
C6355 C 0.15255 0.3568 0.10529 0.0
C6356 C 0.14941 0.35681 0.0874 0.0
C6357 C 0.15793 0.35727 0.13898 0.0
C6358 C 0.14204 0.35364 0.1331 0.0
C6359 C 0.13971 0.35277 0.11627 0.0
C6360 C 0.12772 0.35453 0.14423 0.0
C6361 C 0.16137 0.35889 0.15689 0.0
C6362 C 0.12591 0.34474 0.1579 0.0
C6363 C 0.11771 0.35032 0.17175 0.0
C6364 C 0.11108 0.36557 0.17189 0.0
C6365 C 0.11007 0.37356 0.15719 0.0
C6366 C 0.11844 0.36809 0.14343 0.0
H6367 H 0.17407 0.36349 0.15925 0.0
H6368 H 0.15315 0.36734 0.16295 0.0
H6369 H 0.15931 0.34686 0.16254 0.0
H6370 H 0.13258 0.33396 0.15862 0.0
H6371 H 0.11854 0.34389 0.18294 0.0
H6372 H 0.15453 0.70421 1.01728 0.0
H6373 H 0.1392 0.70663 0.9926 0.0
H6374 H 0.17467 0.68068 0.96541 0.0
H6375 H 0.19023 0.67829 0.99028 0.0
H6376 H 0.16326 0.70665 0.94806 0.0
H6377 H 0.11121 0.66872 0.97316 0.0
H6378 H 0.11722 0.68617 0.9856 0.0
H6379 H 0.13083 0.67027 0.98242 0.0
C6380 C 0.15922 0.69914 1.00603 0.0
C6381 C 0.17363 0.69092 1.00591 0.0
C6382 C 0.15032 0.70044 0.99187 0.0
C6383 C 0.1554 0.69346 0.97706 0.0
C6384 C 0.1703 0.68606 0.97664 0.0
H6385 H 0.09127 0.6668 0.8959 0.0
H6386 H 0.10854 0.66791 0.91973 0.0
C6387 C 0.1793 0.68478 0.99089 0.0
C6388 C 0.14492 0.69351 0.96228 0.0
H6389 H 0.1072 0.68113 0.94821 0.0
C6390 C 0.15102 0.70103 0.9481 0.0
C6391 C 0.12889 0.68613 0.9621 0.0
C6392 C 0.12165 0.67723 0.97657 0.0
C6393 C 0.14166 0.70144 0.93396 0.0
C6394 C 0.1255 0.69425 0.93382 0.0
C6395 C 0.11946 0.6867 0.94806 0.0
C6396 C 0.11488 0.69379 0.91901 0.0
C6397 C 0.14949 0.70912 0.91914 0.0
C6398 C 0.11222 0.70792 0.91047 0.0
C6399 C 0.10248 0.70721 0.89662 0.0
C6400 C 0.09482 0.69241 0.89102 0.0
C6401 C 0.09701 0.67839 0.89981 0.0
C6402 C 0.10694 0.67905 0.9135 0.0
H6403 H 0.16293 0.70961 0.91957 0.0
H6404 H 0.14559 0.70224 0.90806 0.0
H6405 H 0.14586 0.72175 0.91836 0.0
H6406 H 0.11753 0.71961 0.91458 0.0
H6407 H 0.10076 0.71832 0.89041 0.0
H6408 H 0.3536 0.15603 0.03807 0.0
H6409 H 0.33537 0.14118 1.01901 0.0
H6410 H 0.3564 0.17001 0.98001 0.0
H6411 H 0.37379 0.18528 0.99902 0.0
H6412 H 0.35274 0.12414 1.00042 0.0
H6413 H 0.31499 0.15554 0.95932 0.0
H6414 H 0.33397 0.16717 0.96106 0.0
H6415 H 0.32092 0.1644 0.97876 0.0
C6416 C 0.35368 0.15968 0.02555 0.0
C6417 C 0.36531 0.17149 1.0199 0.0
C6418 C 0.34318 0.15131 1.01469 0.0
C6419 C 0.34463 0.15426 0.99798 0.0
C6420 C 0.35476 0.16756 0.99278 0.0
H6421 H 0.35291 0.06825 0.93577 0.0
H6422 H 0.33716 0.08514 0.95427 0.0
C6423 C 0.36494 0.17619 1.00369 0.0
C6424 C 0.34059 0.14085 0.98609 0.0
H6425 H 0.33121 0.13402 0.9463 0.0
C6426 C 0.3474 0.12608 0.98881 0.0
C6427 C 0.3338 0.14334 0.97085 0.0
C6428 C 0.32538 0.15846 0.96745 0.0
C6429 C 0.34945 0.11464 0.97628 0.0
C6430 C 0.34382 0.11769 0.96066 0.0
C6431 C 0.33555 0.13172 0.95827 0.0
C6432 C 0.34899 0.10789 0.94642 0.0
C6433 C 0.35921 0.1003 0.97958 0.0
C6434 C 0.35985 0.11518 0.93502 0.0
C6435 C 0.36854 0.10559 0.92424 0.0
C6436 C 0.3666 0.0886 0.92485 0.0
C6437 C 0.3547 0.08135 0.93525 0.0
C6438 C 0.34573 0.09097 0.94578 0.0
H6439 H 0.36507 0.1014 0.99158 0.0
H6440 H 0.35112 0.08902 0.97944 0.0
H6441 H 0.36885 0.09903 0.97014 0.0
H6442 H 0.36257 0.12821 0.93531 0.0
H6443 H 0.37769 0.11143 0.91633 0.0
H6444 H 0.99094 0.45414 0.88665 0.0
H6445 H 0.97186 0.45443 0.90988 0.0
H6446 H 1.0062 0.43236 0.93908 0.0
H6447 H 0.0252 0.43153 0.91563 0.0
H6448 H 0.96451 0.41948 0.93545 0.0
H6449 H 0.98391 0.48015 0.96147 0.0
H6450 H 0.98567 0.47647 0.93981 0.0
H6451 H 0.99836 0.46659 0.95315 0.0
C6452 C 0.99456 0.44919 0.89789 0.0
C6453 C 1.00989 0.44257 0.89869 0.0
C6454 C 0.98349 0.44947 0.91143 0.0
C6455 C 0.98719 0.44346 0.92671 0.0
C6456 C 1.00262 0.43711 0.9277 0.0
H6457 H 0.92681 0.46168 1.01824 0.0
H6458 H 0.94896 0.45988 0.99801 0.0
C6459 C 1.01364 0.43663 0.91407 0.0
C6460 C 0.9748 0.44339 0.94119 0.0
H6461 H 0.96061 0.46686 0.97305 0.0
C6462 C 0.9637 0.42989 0.94366 0.0
C6463 C 0.97373 0.45651 0.95263 0.0
C6464 C 0.98601 0.47082 0.95184 0.0
C6465 C 0.95187 0.42914 0.95667 0.0
C6466 C 0.94969 0.44288 0.96744 0.0
C6467 C 0.96127 0.45627 0.96511 0.0
C6468 C 0.93587 0.44361 0.98091 0.0
C6469 C 0.94265 0.41294 0.95898 0.0
C6470 C 0.9204 0.43521 0.97924 0.0
C6471 C 0.90812 0.43523 0.99161 0.0
C6472 C 0.90953 0.44505 1.00587 0.0
C6473 C 0.92475 0.45395 1.00758 0.0
C6474 C 0.93759 0.45305 0.99561 0.0
H6475 H 0.94995 0.4028 0.95469 0.0
H6476 H 0.93932 0.41091 0.9719 0.0
H6477 H 0.93158 0.41225 0.95157 0.0
H6478 H 0.91739 0.42855 0.96819 0.0
H6479 H 0.89727 0.42744 0.98981 0.0
H6480 H 0.71921 0.02666 0.9723 0.0
H6481 H 0.73181 1.00648 0.98776 0.0
H6482 H 0.74718 0.98309 0.94326 0.0
H6483 H 0.73427 1.0032 0.92781 0.0
H6484 H 0.72065 0.96785 0.95759 0.0
H6485 H 0.76759 0.97933 1.0038 0.0
H6486 H 0.75363 0.99504 1.00401 0.0
H6487 H 0.76636 0.99197 0.98637 0.0
C6488 C 0.7264 1.018 0.96583 0.0
C6489 C 0.7255 1.01623 0.9489 0.0
C6490 C 0.73362 1.00636 0.97472 0.0
C6491 C 0.74007 0.99297 0.96669 0.0
C6492 C 0.74216 0.99324 0.94973 0.0
H6493 H 0.73463 0.89872 1.01416 0.0
H6494 H 0.74527 0.9236 1.00107 0.0
C6495 C 0.73485 1.00483 0.94086 0.0
C6496 C 0.73847 0.97707 0.97481 0.0
H6497 H 0.7465 0.95793 1.00968 0.0
C6498 C 0.72667 0.96557 0.96877 0.0
C6499 C 0.74608 0.97407 0.98949 0.0
C6500 C 0.75924 0.98571 0.99622 0.0
C6501 C 0.72162 0.95169 0.97735 0.0
C6502 C 0.72845 0.94911 0.99253 0.0
C6503 C 0.741 0.96006 0.99819 0.0
C6504 C 0.72254 0.93505 1.00247 0.0
C6505 C 0.70857 0.94023 0.97016 0.0
C6506 C 0.70625 0.93329 1.00788 0.0
C6507 C 0.70007 0.91897 1.01524 0.0
C6508 C 0.71012 0.90624 1.01742 0.0
C6509 C 0.72656 0.9083 1.01254 0.0
C6510 C 0.73272 0.92257 1.0052 0.0
H6511 H 0.70941 0.93997 0.9567 0.0
H6512 H 0.70927 0.92776 0.97448 0.0
H6513 H 0.69654 0.94446 0.97381 0.0
H6514 H 0.6982 0.94281 1.00591 0.0
H6515 H 0.68738 0.91768 1.01882 0.0
H6516 H 0.04257 0.74231 0.14173 0.0
H6517 H 1.0206 0.75037 0.12491 0.0
H6518 H 0.98692 0.71719 0.15024 0.0
H6519 H 1.00871 0.70937 0.1672 0.0
H6520 H 1.00456 0.73201 0.10396 0.0
H6521 H 0.95949 0.75478 0.14722 0.0
H6522 H 0.98003 0.75207 0.153 0.0
H6523 H 0.96482 0.73532 0.15357 0.0
C6524 C 0.03041 0.73692 0.14385 0.0
C6525 C 0.0274 0.72513 0.15577 0.0
C6526 C 1.01784 0.74159 0.13427 0.0
C6527 C 1.00199 0.73457 0.13637 0.0
C6528 C 0.99889 0.72319 0.14863 0.0
H6529 H 0.9311 0.69598 0.07495 0.0
H6530 H 0.95626 0.70564 0.08831 0.0
C6531 C 1.01141 0.71862 0.1583 0.0
C6532 C 0.98914 0.73741 0.12456 0.0
H6533 H 0.94853 0.74189 0.12226 0.0
C6534 C 0.99239 0.7345 0.10797 0.0
C6535 C 0.97331 0.74124 0.12953 0.0
C6536 C 0.96929 0.74622 0.14679 0.0
C6537 C 0.97995 0.73368 0.09659 0.0
C6538 C 0.9638 0.73541 0.10195 0.0
C6539 C 0.96082 0.74001 0.11819 0.0
C6540 C 0.94975 0.73049 0.09152 0.0
C6541 C 0.98413 0.73044 0.07898 0.0
C6542 C 0.93785 0.7413 0.08854 0.0
C6543 C 0.92348 0.73576 0.08087 0.0
C6544 C 0.9206 0.71924 0.07641 0.0
C6545 C 0.93294 0.7087 0.07844 0.0
C6546 C 0.94734 0.71425 0.08601 0.0
H6547 H 0.99683 0.73487 0.07604 0.0
H6548 H 0.98296 0.71716 0.07641 0.0
H6549 H 0.97586 0.73637 0.07093 0.0
H6550 H 0.93943 0.75387 0.09265 0.0
H6551 H 0.91426 0.74423 0.07916 0.0
H6552 H 0.41937 1.0173 0.19085 0.0
H6553 H 0.41714 0.99728 0.16856 0.0
H6554 H 0.46923 0.99735 0.16529 0.0
H6555 H 0.47131 1.01874 0.18658 0.0
H6556 H 0.46227 0.99005 0.13797 0.0
H6557 H 0.41444 0.95158 0.16769 0.0
H6558 H 0.4068 0.97087 0.16405 0.0
H6559 H 0.42347 0.96937 0.17762 0.0
C6560 C 0.43041 1.01313 0.18537 0.0
C6561 C 0.44554 1.01984 0.19091 0.0
C6562 C 0.42915 1.00121 0.17258 0.0
C6563 C 0.44294 0.99455 0.16509 0.0
C6564 C 0.45812 1.00162 0.17047 0.0
H6565 H 0.41825 0.90172 0.10966 0.0
H6566 H 0.42258 0.9237 0.12885 0.0
C6567 C 0.45938 1.01404 0.18289 0.0
C6568 C 0.44164 0.9806 0.15183 0.0
H6569 H 0.41855 0.94642 0.13977 0.0
C6570 C 0.45295 0.98019 0.1387 0.0
C6571 C 0.42965 0.96729 0.15203 0.0
C6572 C 0.41801 0.96468 0.16618 0.0
C6573 C 0.45293 0.96732 0.12655 0.0
C6574 C 0.44038 0.95424 0.12629 0.0
C6575 C 0.42874 0.95528 0.13921 0.0
C6576 C 0.43903 0.93921 0.11385 0.0
C6577 C 0.46694 0.96814 0.11455 0.0
C6578 C 0.44674 0.93849 0.09815 0.0
C6579 C 0.44593 0.92413 0.0879 0.0
C6580 C 0.43627 0.90994 0.09201 0.0
C6581 C 0.4272 0.91128 0.10658 0.0
C6582 C 0.42915 0.92486 0.11747 0.0
H6583 H 0.47714 0.97658 0.11874 0.0
H6584 H 0.47175 0.95603 0.11255 0.0
H6585 H 0.4629 0.97285 0.10296 0.0
H6586 H 0.45331 0.94895 0.09319 0.0
H6587 H 0.45271 0.92435 0.07653 0.0
H6588 H 0.70916 0.1464 0.09447 0.0
H6589 H 0.71078 0.13054 0.11861 0.0
H6590 H 0.70691 0.1738 0.14839 0.0
H6591 H 0.70382 0.18967 0.12401 0.0
H6592 H 0.72878 0.12697 0.14189 0.0
H6593 H 0.67297 0.14778 0.17146 0.0
H6594 H 0.67888 0.15323 0.15109 0.0
H6595 H 0.68792 0.16418 0.1682 0.0
C6596 C 0.70831 0.15269 0.1061 0.0
C6597 C 0.70569 0.1695 0.10693 0.0
C6598 C 0.70946 0.14346 0.12011 0.0
C6599 C 0.70838 0.15053 0.13578 0.0
C6600 C 0.70704 0.16757 0.1367 0.0
H6601 H 0.73226 0.0955 0.2229 0.0
H6602 H 0.7333 0.11289 0.19919 0.0
C6603 C 0.70558 0.17684 0.12258 0.0
C6604 C 0.7085 0.13994 0.15078 0.0
H6605 H 0.68849 0.1311 0.18689 0.0
C6606 C 0.7199 0.128 0.15167 0.0
C6607 C 0.69686 0.14066 0.16374 0.0
C6608 C 0.68337 0.15202 0.16354 0.0
C6609 C 0.72005 0.11717 0.16479 0.0
C6610 C 0.70875 0.11832 0.17795 0.0
C6611 C 0.69732 0.13013 0.17706 0.0
C6612 C 0.70831 0.1073 0.19254 0.0
C6613 C 0.73202 0.10417 0.16409 0.0
C6614 C 0.69392 0.09827 0.1973 0.0
C6615 C 0.69329 0.0884 0.21109 0.0
C6616 C 0.70694 0.08742 0.22085 0.0
C6617 C 0.72138 0.09623 0.21599 0.0
C6618 C 0.72204 0.10604 0.20217 0.0
H6619 H 0.73639 0.10175 0.15149 0.0
H6620 H 0.74269 0.10825 0.17142 0.0
H6621 H 0.72658 0.09262 0.16908 0.0
H6622 H 0.68309 0.09882 0.19027 0.0
H6623 H 0.68198 0.08174 0.2143 0.0
H6624 H 0.60674 0.65101 0.87056 0.0
H6625 H 0.63055 0.63513 0.86695 0.0
H6626 H 0.66101 0.67583 0.88489 0.0
H6627 H 0.63737 0.6916 0.88904 0.0
H6628 H 0.67513 0.65423 0.8585 0.0
H6629 H 0.64843 0.62297 0.91284 0.0
H6630 H 0.63596 0.62387 0.89533 0.0
H6631 H 0.64185 0.64216 0.90654 0.0
C6632 C 0.61855 0.65671 0.87344 0.0
C6633 C 0.62005 0.67246 0.88055 0.0
C6634 C 0.63214 0.64763 0.87127 0.0
C6635 C 0.64745 0.65421 0.876 0.0
C6636 C 0.64926 0.67051 0.88126 0.0
H6637 H 0.72557 0.61606 0.92488 0.0
H6638 H 0.70106 0.62784 0.91566 0.0
C6639 C 0.63569 0.67956 0.88355 0.0
C6640 C 0.66098 0.64364 0.87813 0.0
H6641 H 0.67441 0.61654 0.90436 0.0
C6642 C 0.675 0.64584 0.8684 0.0
C6643 C 0.66071 0.63279 0.89111 0.0
C6644 C 0.646 0.63028 0.90216 0.0
C6645 C 0.68906 0.63793 0.87168 0.0
C6646 C 0.68904 0.62741 0.88507 0.0
C6647 C 0.67464 0.62472 0.89428 0.0
C6648 C 0.70389 0.6199 0.89054 0.0
C6649 C 0.70389 0.64161 0.86112 0.0
C6650 C 0.71364 0.61126 0.87968 0.0
C6651 C 0.72795 0.60514 0.88486 0.0
C6652 C 0.7324 0.60671 0.9012 0.0
C6653 C 0.72229 0.61455 0.91227 0.0
C6654 C 0.7083 0.62127 0.90695 0.0
H6655 H 0.7035 0.65344 0.85507 0.0
H6656 H 0.71503 0.64192 0.86825 0.0
H6657 H 0.70455 0.63202 0.85149 0.0
H6658 H 0.71032 0.60938 0.86714 0.0
H6659 H 0.73554 0.59909 0.87607 0.0
H6660 H 0.43932 0.61144 0.93804 0.0
H6661 H 0.45815 0.63554 0.93482 0.0
H6662 H 0.49298 0.60598 0.91105 0.0
H6663 H 0.47428 0.58199 0.91416 0.0
H6664 H 0.50726 0.62461 0.93452 0.0
H6665 H 0.47246 0.66343 0.89666 0.0
H6666 H 0.4613 0.65681 0.91447 0.0
H6667 H 0.46685 0.64212 0.89921 0.0
C6668 C 0.45082 0.61013 0.93179 0.0
C6669 C 0.45523 0.59464 0.92653 0.0
C6670 C 0.46165 0.62397 0.92996 0.0
C6671 C 0.47713 0.62273 0.92267 0.0
C6672 C 0.48125 0.60738 0.91683 0.0
H6673 H 0.54216 0.70833 0.89891 0.0
H6674 H 0.52471 0.68315 0.89765 0.0
C6675 C 0.47047 0.59361 0.91864 0.0
C6676 C 0.48942 0.6371 0.92206 0.0
H6677 H 0.49558 0.6763 0.90959 0.0
C6678 C 0.50466 0.63591 0.92906 0.0
C6679 C 0.48641 0.6518 0.91455 0.0
C6680 C 0.47095 0.65361 0.90563 0.0
C6681 C 0.51658 0.64904 0.92927 0.0
C6682 C 0.51317 0.6641 0.92268 0.0
C6683 C 0.49818 0.66505 0.9151 0.0
C6684 C 0.5249 0.67895 0.92342 0.0
C6685 C 0.53289 0.64645 0.9362 0.0
C6686 C 0.53121 0.68514 0.93827 0.0
C6687 C 0.54142 0.69954 0.93896 0.0
C6688 C 0.54524 0.70835 0.92489 0.0
C6689 C 0.53926 0.70197 0.91002 0.0
C6690 C 0.52925 0.68752 0.90929 0.0
H6691 H 0.53542 0.6334 0.9357 0.0
H6692 H 0.54281 0.65344 0.9296 0.0
H6693 H 0.53298 0.65053 0.94912 0.0
H6694 H 0.52785 0.67911 0.94945 0.0
H6695 H 0.54573 0.70417 0.95059 0.0
H6696 H 0.41274 0.50883 0.96647 0.0
H6697 H 0.43386 0.48934 0.96287 0.0
H6698 H 0.41642 0.47667 0.91511 0.0
H6699 H 0.39592 0.49654 0.91847 0.0
H6700 H 0.43423 0.45768 0.95931 0.0
H6701 H 0.46258 0.48086 0.90264 0.0
H6702 H 0.44788 0.49192 0.91401 0.0
H6703 H 0.4414 0.47551 0.90028 0.0
C6704 C 0.41352 0.50207 0.95509 0.0
C6705 C 0.40227 0.50436 0.94285 0.0
C6706 C 0.42567 0.49072 0.95303 0.0
C6707 C 0.42733 0.4813 0.93855 0.0
C6708 C 0.41614 0.48379 0.92629 0.0
H6709 H 0.48849 0.40345 0.90103 0.0
H6710 H 0.46952 0.42465 0.90556 0.0
C6711 C 0.40408 0.49514 0.92833 0.0
C6712 C 0.44025 0.46868 0.93646 0.0
H6713 H 0.4697 0.45475 0.91031 0.0
C6714 C 0.44204 0.45722 0.9486 0.0
C6715 C 0.45075 0.46759 0.92255 0.0
C6716 C 0.4507 0.47972 0.90922 0.0
C6717 C 0.45322 0.44478 0.94709 0.0
C6718 C 0.46364 0.44359 0.93313 0.0
C6719 C 0.46196 0.45519 0.92106 0.0
C6720 C 0.47587 0.4303 0.93049 0.0
C6721 C 0.45313 0.4326 0.96039 0.0
C6722 C 0.48663 0.42604 0.94261 0.0
C6723 C 0.49733 0.41334 0.94009 0.0
C6724 C 0.49793 0.4044 0.92528 0.0
C6725 C 0.48797 0.40934 0.91288 0.0
C6726 C 0.47715 0.42182 0.91544 0.0
H6727 H 0.44138 0.43183 0.96722 0.0
H6728 H 0.4554 0.42031 0.95548 0.0
H6729 H 0.46274 0.43647 0.96911 0.0
H6730 H 0.48687 0.43257 0.95413 0.0
H6731 H 0.50497 0.41036 0.9499 0.0
H6732 H 0.5598 0.46976 0.87322 0.0
H6733 H 0.58273 0.48803 0.86461 0.0
H6734 H 0.61581 0.45275 0.87777 0.0
H6735 H 0.59301 0.43455 0.88685 0.0
H6736 H 0.60632 0.4993 0.88731 0.0
H6737 H 0.6347 0.46978 0.83373 0.0
H6738 H 0.61389 0.46501 0.84007 0.0
H6739 H 0.63009 0.45656 0.85043 0.0
C6740 C 0.57194 0.46578 0.87416 0.0
C6741 C 0.57452 0.45072 0.88097 0.0
C6742 C 0.58503 0.4762 0.86908 0.0
C6743 C 0.60099 0.47173 0.87044 0.0
C6744 C 0.60359 0.45634 0.87633 0.0
H6745 H 0.69543 0.51841 0.88122 0.0
H6746 H 0.67244 0.49917 0.87472 0.0
C6747 C 0.5905 0.44593 0.88153 0.0
C6748 C 0.61485 0.48392 0.86795 0.0
H6749 H 0.65076 0.49115 0.84713 0.0
C6750 C 0.61591 0.49765 0.87835 0.0
C6751 C 0.62737 0.48171 0.8563 0.0
C6752 C 0.62646 0.46755 0.84437 0.0
C6753 C 0.62944 0.50887 0.87792 0.0
C6754 C 0.64219 0.50649 0.86654 0.0
C6755 C 0.64098 0.49297 0.85583 0.0
C6756 C 0.65723 0.51745 0.86653 0.0
C6757 C 0.63031 0.52282 0.89016 0.0
C6758 C 0.65665 0.53396 0.86315 0.0
C6759 C 0.66977 0.54496 0.86681 0.0
C6760 C 0.68374 0.53962 0.87387 0.0
C6761 C 0.6849 0.52287 0.87569 0.0
C6762 C 0.67173 0.51187 0.87207 0.0
H6763 H 0.62104 0.52113 0.90003 0.0
H6764 H 0.64248 0.52426 0.89565 0.0
H6765 H 0.62822 0.53424 0.88399 0.0
H6766 H 0.64566 0.53849 0.85866 0.0
H6767 H 0.66858 0.55779 0.86514 0.0
H6768 H 0.56617 0.41698 0.17642 0.0
H6769 H 0.58324 0.44202 0.18181 0.0
H6770 H 0.61196 0.41643 0.21416 0.0
H6771 H 0.5949 0.39148 0.20909 0.0
H6772 H 0.59472 0.45933 0.21524 0.0
H6773 H 0.64323 0.43475 0.17586 0.0
H6774 H 0.62225 0.42732 0.1742 0.0
H6775 H 0.63372 0.42211 0.19128 0.0
C6776 C 0.57589 0.4167 0.18495 0.0
C6777 C 0.57907 0.40203 0.19224 0.0
C6778 C 0.58569 0.43109 0.18802 0.0
C6779 C 0.59901 0.43121 0.19837 0.0
C6780 C 0.60185 0.41675 0.2061 0.0
H6781 H 0.68315 0.50323 0.19544 0.0
H6782 H 0.66571 0.47931 0.20311 0.0
C6783 C 0.59203 0.40242 0.20313 0.0
C6784 C 0.61073 0.44595 0.19994 0.0
H6785 H 0.64804 0.46105 0.18642 0.0
C6786 C 0.60641 0.45972 0.20898 0.0
C6787 C 0.62622 0.44643 0.19226 0.0
C6788 C 0.63175 0.43193 0.18278 0.0
C6789 C 0.61701 0.47393 0.21026 0.0
C6790 C 0.63214 0.47482 0.20156 0.0
C6791 C 0.63657 0.46075 0.19304 0.0
C6792 C 0.64298 0.49033 0.19992 0.0
C6793 C 0.61192 0.48758 0.22135 0.0
C6794 C 0.63639 0.50498 0.19616 0.0
C6795 C 0.64638 0.51886 0.19239 0.0
C6796 C 0.66345 0.51856 0.19138 0.0
C6797 C 0.67015 0.50413 0.1959 0.0
C6798 C 0.66008 0.49028 0.20017 0.0
H6799 H 0.60471 0.48274 0.2319 0.0
H6800 H 0.62251 0.49519 0.22597 0.0
H6801 H 0.60403 0.49532 0.21468 0.0
H6802 H 0.62342 0.50562 0.19536 0.0
H6803 H 0.64052 0.52975 0.18967 0.0
H6804 H 0.62024 0.71012 0.15394 0.0
H6805 H 0.63789 0.68731 0.15253 0.0
H6806 H 0.64468 0.69207 0.20408 0.0
H6807 H 0.6265 0.71428 0.20549 0.0
H6808 H 0.66795 0.6843 0.15684 0.0
H6809 H 0.63849 0.64478 0.2033 0.0
H6810 H 0.62917 0.66232 0.1963 0.0
H6811 H 0.64446 0.66449 0.2116 0.0
C6812 C 0.62524 0.70611 0.16503 0.0
C6813 C 0.62191 0.71434 0.17981 0.0
C6814 C 0.63554 0.69301 0.16423 0.0
C6815 C 0.64281 0.68736 0.1782 0.0
C6816 C 0.63915 0.69545 0.19303 0.0
H6817 H 0.71653 0.61642 0.19623 0.0
H6818 H 0.69635 0.63685 0.19805 0.0
C6819 C 0.62882 0.70849 0.19382 0.0
C6820 C 0.65463 0.6737 0.17705 0.0
H6821 H 0.66486 0.63819 0.19422 0.0
C6822 C 0.66703 0.67417 0.16497 0.0
C6823 C 0.65399 0.66021 0.18759 0.0
C6824 C 0.64072 0.6578 0.20031 0.0
C6825 C 0.67857 0.66216 0.1633 0.0
C6826 C 0.678 0.64872 0.17385 0.0
C6827 C 0.66565 0.64825 0.186 0.0
C6828 C 0.69016 0.63538 0.17269 0.0
C6829 C 0.69164 0.66441 0.15041 0.0
C6830 C 0.69356 0.62689 0.15797 0.0
C6831 C 0.70535 0.61513 0.15691 0.0
C6832 C 0.71427 0.61131 0.17051 0.0
C6833 C 0.71032 0.61919 0.18535 0.0
C6834 C 0.69856 0.63093 0.18642 0.0
H6835 H 0.69397 0.67739 0.14733 0.0
H6836 H 0.70311 0.6598 0.15437 0.0
H6837 H 0.68776 0.65759 0.13924 0.0
H6838 H 0.68713 0.62939 0.14716 0.0
H6839 H 0.70779 0.60932 0.14528 0.0
H6840 H 0.43745 0.61289 0.23745 0.0
H6841 H 0.4592 0.62919 0.25099 0.0
H6842 H 0.48294 0.58569 0.26055 0.0
H6843 H 0.46128 0.56937 0.24666 0.0
H6844 H 0.4816 0.63233 0.27853 0.0
H6845 H 0.507 0.60696 0.2208 0.0
H6846 H 0.48574 0.60449 0.22601 0.0
H6847 H 0.49988 0.59242 0.23559 0.0
C6848 C 0.44687 0.60677 0.24322 0.0
C6849 C 0.44788 0.58997 0.24089 0.0
C6850 C 0.45928 0.61608 0.25102 0.0
C6851 C 0.47287 0.60868 0.25641 0.0
C6852 C 0.47261 0.59163 0.25633 0.0
H6853 H 0.56737 0.656 0.23735 0.0
H6854 H 0.54804 0.63853 0.25291 0.0
C6855 C 0.46024 0.58231 0.24841 0.0
C6856 C 0.4885 0.61858 0.25721 0.0
H6857 H 0.52229 0.62764 0.23386 0.0
C6858 C 0.49071 0.63113 0.26899 0.0
C6859 C 0.50024 0.61717 0.24458 0.0
C6860 C 0.49814 0.60465 0.23094 0.0
C6861 C 0.50419 0.64254 0.26814 0.0
C6862 C 0.51553 0.64137 0.25516 0.0
C6863 C 0.51367 0.6284 0.24392 0.0
C6864 C 0.52833 0.65428 0.25139 0.0
C6865 C 0.50604 0.65593 0.28086 0.0
C6866 C 0.52391 0.66933 0.24605 0.0
C6867 C 0.53493 0.67931 0.23702 0.0
C6868 C 0.55048 0.67429 0.23311 0.0
C6869 C 0.55537 0.66004 0.23993 0.0
C6870 C 0.5444 0.65013 0.24898 0.0
H6871 H 0.49934 0.6526 0.29224 0.0
H6872 H 0.51901 0.65886 0.2836 0.0
H6873 H 0.50106 0.66703 0.27626 0.0
H6874 H 0.51151 0.67266 0.2475 0.0
H6875 H 0.53079 0.6902 0.2319 0.0
H6876 H 0.39598 0.52345 0.25328 0.0
H6877 H 0.41982 0.51095 0.26341 0.0
H6878 H 0.43049 0.49299 0.21505 0.0
H6879 H 0.40655 0.5048 0.20514 0.0
H6880 H 0.42868 0.46941 0.23617 0.0
H6881 H 0.46871 0.52056 0.26092 0.0
H6882 H 0.44821 0.51881 0.26873 0.0
H6883 H 0.45204 0.52372 0.24788 0.0
C6884 C 0.40363 0.51707 0.24481 0.0
C6885 C 0.3993 0.51492 0.22846 0.0
C6886 C 0.4173 0.51001 0.25059 0.0
C6887 C 0.42705 0.50103 0.24001 0.0
C6888 C 0.42316 0.49976 0.22351 0.0
H6889 H 0.51395 0.46666 0.22239 0.0
H6890 H 0.4952 0.48379 0.23645 0.0
C6891 C 0.40944 0.50652 0.21783 0.0
C6892 C 0.44029 0.49146 0.2459 0.0
H6893 H 0.47846 0.49445 0.26132 0.0
C6894 C 0.43945 0.47482 0.24194 0.0
C6895 C 0.45433 0.49854 0.25353 0.0
C6896 C 0.45603 0.51641 0.25795 0.0
C6897 C 0.4526 0.46532 0.24392 0.0
C6898 C 0.46703 0.47247 0.25091 0.0
C6899 C 0.46743 0.48889 0.25612 0.0
C6900 C 0.4825 0.46414 0.24946 0.0
C6901 C 0.45127 0.44816 0.23695 0.0
C6902 C 0.48326 0.44784 0.25384 0.0
C6903 C 0.49374 0.43784 0.24528 0.0
C6904 C 0.50398 0.44434 0.23293 0.0
C6905 C 0.50595 0.46132 0.23167 0.0
C6906 C 0.4951 0.47116 0.23971 0.0
H6907 H 0.44019 0.44559 0.22969 0.0
H6908 H 0.4619 0.44589 0.22897 0.0
H6909 H 0.4507 0.4394 0.24694 0.0
H6910 H 0.47425 0.44232 0.26208 0.0
H6911 H 0.49213 0.42481 0.24668 0.0
H6912 H 0.89019 0.58344 0.63176 0.0
H6913 H 0.88223 0.60689 0.61703 0.0
H6914 H 0.90709 0.63915 0.65158 0.0
H6915 H 0.91536 0.6159 0.6662 0.0
H6916 H 0.87614 0.65074 0.63655 0.0
H6917 H 0.92366 0.62947 0.59356 0.0
H6918 H 0.90708 0.61527 0.59904 0.0
H6919 H 0.92156 0.62226 0.61398 0.0
C6920 C 0.89377 0.59553 0.63639 0.0
C6921 C 0.9038 0.59772 0.64996 0.0
C6922 C 0.88903 0.60891 0.62804 0.0
C6923 C 0.89422 0.62475 0.63311 0.0
C6924 C 0.9029 0.62703 0.64749 0.0
H6925 H 0.93699 0.7072 0.5909 0.0
H6926 H 0.92718 0.68217 0.60386 0.0
C6927 C 0.90766 0.61367 0.65583 0.0
C6928 C 0.89368 0.63853 0.62196 0.0
H6929 H 0.9142 0.65486 0.58929 0.0
C6930 C 0.88426 0.65162 0.62606 0.0
C6931 C 0.9042 0.63955 0.60822 0.0
C6932 C 0.91479 0.62597 0.60338 0.0
C6933 C 0.88578 0.66607 0.61723 0.0
C6934 C 0.89713 0.66742 0.60412 0.0
C6935 C 0.90566 0.65389 0.59944 0.0
C6936 C 0.9023 0.68317 0.59655 0.0
C6937 C 0.87576 0.67997 0.62241 0.0
C6938 C 0.8916 0.69218 0.58805 0.0
C6939 C 0.89722 0.70676 0.58075 0.0
C6940 C 0.91363 0.71247 0.58179 0.0
C6941 C 0.92427 0.70324 0.59003 0.0
C6942 C 0.91866 0.68888 0.59741 0.0
H6943 H 0.87005 0.67819 0.6346 0.0
H6944 H 0.88324 0.69164 0.62252 0.0
H6945 H 0.86597 0.6809 0.61358 0.0
H6946 H 0.87899 0.68791 0.58695 0.0
H6947 H 0.88874 0.71362 0.57442 0.0
H6948 H 0.44044 0.94184 0.61559 0.0
H6949 H 0.45821 0.93935 0.63875 0.0
H6950 H 0.48603 0.90585 0.61075 0.0
H6951 H 0.4687 0.90887 0.58749 0.0
H6952 H 0.46624 0.91662 0.65771 0.0
H6953 H 0.52243 0.93671 0.62399 0.0
H6954 H 0.50264 0.93753 0.61547 0.0
H6955 H 0.51238 0.91868 0.61538 0.0
C6956 C 0.45015 0.9337 0.6145 0.0
C6957 C 0.45304 0.9255 0.59967 0.0
C6958 C 0.46045 0.93237 0.62773 0.0
C6959 C 0.47395 0.92279 0.62654 0.0
C6960 C 0.47621 0.91383 0.612 0.0
H6961 H 0.52802 0.89985 0.71362 0.0
H6962 H 0.51126 0.89821 0.68947 0.0
C6963 C 0.46606 0.91533 0.59874 0.0
C6964 C 0.48554 0.9223 0.64046 0.0
H6965 H 0.52563 0.92798 0.65081 0.0
C6966 C 0.47922 0.91909 0.6561 0.0
C6967 C 0.5026 0.92564 0.63866 0.0
C6968 C 0.51043 0.92999 0.62251 0.0
C6969 C 0.48922 0.91922 0.66977 0.0
C6970 C 0.50625 0.92232 0.66798 0.0
C6971 C 0.51265 0.92547 0.65234 0.0
C6972 C 0.51738 0.92295 0.68231 0.0
C6973 C 0.48133 0.91683 0.68623 0.0
C6974 C 0.52711 0.93715 0.68625 0.0
C6975 C 0.53671 0.93811 0.70021 0.0
C6976 C 0.5368 0.92492 0.71067 0.0
C6977 C 0.52761 0.91051 0.70635 0.0
C6978 C 0.51808 0.90953 0.6924 0.0
H6979 H 0.46805 0.91807 0.68607 0.0
H6980 H 0.48334 0.90449 0.69043 0.0
H6981 H 0.48677 0.92588 0.69506 0.0
H6982 H 0.52703 0.94766 0.67869 0.0
H6983 H 0.54387 0.94928 0.70296 0.0
H6984 H 0.25346 0.47051 0.56351 0.0
H6985 H 0.27119 0.48519 0.58271 0.0
H6986 H 0.27498 0.44114 0.60892 0.0
H6987 H 0.25637 0.42663 0.59014 0.0
H6988 H 0.25765 0.46088 0.6252 0.0
H6989 H 0.31226 0.49754 0.60536 0.0
H6990 H 0.29612 0.5003 0.59183 0.0
H6991 H 0.30383 0.4805 0.59336 0.0
C6992 C 0.25879 0.46375 0.57286 0.0
C6993 C 0.25306 0.44762 0.57576 0.0
C6994 C 0.2691 0.47217 0.58384 0.0
C6995 C 0.27413 0.46442 0.5976 0.0
C6996 C 0.27105 0.44747 0.59854 0.0
H6997 H 0.28034 0.50601 0.69416 0.0
H6998 H 0.29184 0.49593 0.66861 0.0
C6999 C 0.26044 0.43911 0.58772 0.0
C7000 C 0.27724 0.47432 0.61271 0.0
H7001 H 0.29626 0.50957 0.62773 0.0
C7002 C 0.26648 0.47121 0.62585 0.0
C7003 C 0.28849 0.48807 0.61359 0.0
C7004 C 0.30091 0.49167 0.6003 0.0
C7005 C 0.26605 0.48174 0.63935 0.0
C7006 C 0.27666 0.49591 0.63987 0.0
C7007 C 0.28799 0.4988 0.62717 0.0
C7008 C 0.27535 0.50768 0.65359 0.0
C7009 C 0.25371 0.478 0.65277 0.0
C7010 C 0.26315 0.5187 0.6535 0.0
C7011 C 0.25655 0.5245 0.66814 0.0
C7012 C 0.26213 0.51929 0.68294 0.0
C7013 C 0.27597 0.51033 0.68289 0.0
C7014 C 0.28255 0.50453 0.66828 0.0
H7015 H 0.24648 0.46633 0.65056 0.0
H7016 H 0.25991 0.47734 0.66449 0.0
H7017 H 0.24526 0.48785 0.65396 0.0
H7018 H 0.25735 0.52115 0.64227 0.0
H7019 H 0.24577 0.53121 0.66786 0.0
H7020 H 0.60929 0.20671 0.69869 0.0
H7021 H 0.63032 0.20486 0.6775 0.0
H7022 H 0.619 0.15328 0.67298 0.0
H7023 H 0.59817 0.15514 0.69473 0.0
H7024 H 0.65079 0.15783 0.67061 0.0
H7025 H 0.62918 0.20276 0.62971 0.0
H7026 H 0.63257 0.21176 0.64944 0.0
H7027 H 0.61715 0.19542 0.64681 0.0
C7028 C 0.61123 0.1949 0.69328 0.0
C7029 C 0.60188 0.18109 0.69888 0.0
C7030 C 0.62328 0.19386 0.68077 0.0
C7031 C 0.62659 0.17893 0.67295 0.0
C7032 C 0.61707 0.16508 0.67843 0.0
H7033 H 0.699 0.15268 0.5936 0.0
H7034 H 0.67541 0.15266 0.61248 0.0
C7035 C 0.60491 0.16616 0.69095 0.0
C7036 C 0.64016 0.1778 0.65968 0.0
H7037 H 0.6567 0.19591 0.62512 0.0
C7038 C 0.65183 0.16611 0.66061 0.0
C7039 C 0.64201 0.18831 0.64616 0.0
C7040 C 0.62947 0.20013 0.64283 0.0
C7041 C 0.66509 0.16508 0.64922 0.0
C7042 C 0.66734 0.17604 0.63618 0.0
C7043 C 0.65553 0.18753 0.63503 0.0
C7044 C 0.68194 0.17598 0.62402 0.0
C7045 C 0.67709 0.15251 0.65158 0.0
C7046 C 0.69388 0.18909 0.62348 0.0
C7047 C 0.70754 0.18907 0.61263 0.0
C7048 C 0.71002 0.176 0.60157 0.0
C7049 C 0.69786 0.16302 0.60179 0.0
C7050 C 0.68424 0.16297 0.6128 0.0
H7051 H 0.67501 0.14614 0.6632 0.0
H7052 H 0.67625 0.14339 0.64147 0.0
H7053 H 0.68953 0.1584 0.65133 0.0
H7054 H 0.69279 0.19941 0.63172 0.0
H7055 H 0.71628 0.19945 0.61296 0.0
H7056 H 0.92076 0.42582 0.48295 0.0
H7057 H 0.91773 0.44097 0.45803 0.0
H7058 H 0.91013 0.48424 0.4868 0.0
H7059 H 0.91188 0.46901 0.51137 0.0
H7060 H 0.89311 0.48612 0.46268 0.0
H7061 H 0.95205 0.46864 0.43715 0.0
H7062 H 0.93772 0.45154 0.43959 0.0
H7063 H 0.94508 0.46299 0.45716 0.0
C7064 C 0.91809 0.43846 0.48395 0.0
C7065 C 0.91697 0.44615 0.49936 0.0
C7066 C 0.91667 0.4473 0.46961 0.0
C7067 C 0.91439 0.46415 0.47022 0.0
C7068 C 0.91216 0.47144 0.48564 0.0
H7069 H 0.94434 0.53202 0.39263 0.0
H7070 H 0.94216 0.51499 0.41669 0.0
C7071 C 0.91329 0.46263 0.49984 0.0
C7072 C 0.91468 0.47449 0.45519 0.0
H7073 H 0.93686 0.48468 0.42079 0.0
C7074 C 0.90276 0.48575 0.45359 0.0
C7075 C 0.92731 0.4745 0.44319 0.0
C7076 C 0.94135 0.4639 0.4444 0.0
C7077 C 0.90319 0.49688 0.44078 0.0
C7078 C 0.91552 0.49649 0.4285 0.0
C7079 C 0.92733 0.48514 0.42999 0.0
C7080 C 0.91662 0.50776 0.41419 0.0
C7081 C 0.89073 0.50942 0.44109 0.0
C7082 C 0.90308 0.50983 0.40459 0.0
C7083 C 0.90428 0.5199 0.39106 0.0
C7084 C 0.91918 0.52777 0.3862 0.0
C7085 C 0.9327 0.52603 0.39589 0.0
C7086 C 0.93144 0.51615 0.40964 0.0
H7087 H 0.88614 0.51182 0.45362 0.0
H7088 H 0.89577 0.52109 0.43607 0.0
H7089 H 0.88021 0.5048 0.43379 0.0
H7090 H 0.89154 0.50337 0.40728 0.0
H7091 H 0.89351 0.5213 0.38418 0.0
H7092 H 0.58853 0.89655 0.4547 0.0
H7093 H 0.59752 0.87849 0.47509 0.0
H7094 H 0.60087 0.84038 0.43862 0.0
H7095 H 0.59253 0.85883 0.41801 0.0
H7096 H 0.59353 0.84838 0.48866 0.0
H7097 H 0.64788 0.8535 0.4474 0.0
H7098 H 0.63038 0.86474 0.44438 0.0
H7099 H 0.62999 0.8435 0.43882 0.0
C7100 C 0.59043 0.88406 0.45122 0.0
C7101 C 0.58994 0.87902 0.43487 0.0
C7102 C 0.5956 0.87373 0.46287 0.0
C7103 C 0.60035 0.85824 0.45828 0.0
C7104 C 0.59761 0.85242 0.44234 0.0
H7105 H 0.67863 0.82171 0.51471 0.0
H7106 H 0.65299 0.81784 0.50048 0.0
C7107 C 0.59268 0.86287 0.43061 0.0
C7108 C 0.61122 0.85011 0.46909 0.0
H7109 H 0.6512 0.8433 0.47285 0.0
C7110 C 0.60605 0.84685 0.4851 0.0
C7111 C 0.62765 0.84834 0.46451 0.0
C7112 C 0.63441 0.85281 0.44792 0.0
C7113 C 0.61709 0.84283 0.49682 0.0
C7114 C 0.63357 0.84187 0.49234 0.0
C7115 C 0.63847 0.84383 0.47613 0.0
C7116 C 0.64657 0.84257 0.5044 0.0
C7117 C 0.61136 0.84057 0.51412 0.0
C7118 C 0.65133 0.85769 0.51146 0.0
C7119 C 0.66632 0.86023 0.51884 0.0
C7120 C 0.67688 0.84757 0.51974 0.0
C7121 C 0.67128 0.83198 0.51389 0.0
C7122 C 0.65642 0.82959 0.50601 0.0
H7123 H 0.59799 0.83818 0.51503 0.0
H7124 H 0.61727 0.83037 0.51951 0.0
H7125 H 0.61479 0.85177 0.52134 0.0
H7126 H 0.64404 0.86795 0.51004 0.0
H7127 H 0.66992 0.87253 0.52272 0.0
H7128 H 0.1558 0.59698 0.4246 0.0
H7129 H 0.15732 0.61779 0.44662 0.0
H7130 H 0.2063 0.63217 0.4317 0.0
H7131 H 0.20483 0.61143 0.40991 0.0
H7132 H 0.17648 0.62512 0.47389 0.0
H7133 H 0.18717 0.67586 0.43169 0.0
H7134 H 0.17874 0.65598 0.42554 0.0
H7135 H 0.20029 0.65964 0.42806 0.0
C7136 C 0.16693 0.60455 0.42598 0.0
C7137 C 0.18003 0.6026 0.41493 0.0
C7138 C 0.16781 0.61657 0.43871 0.0
C7139 C 0.1818 0.62722 0.44094 0.0
C7140 C 0.19508 0.62477 0.43026 0.0
H7141 H 0.21155 0.71257 0.5046 0.0
H7142 H 0.21013 0.6891 0.48561 0.0
C7143 C 0.19422 0.61277 0.41762 0.0
C7144 C 0.18253 0.64095 0.45404 0.0
H7145 H 0.19068 0.68224 0.45935 0.0
C7146 C 0.17945 0.63761 0.47059 0.0
C7147 C 0.18634 0.65752 0.45026 0.0
C7148 C 0.18821 0.66261 0.43293 0.0
C7149 C 0.18043 0.65003 0.48307 0.0
C7150 C 0.18445 0.66659 0.4792 0.0
C7151 C 0.18757 0.66982 0.46269 0.0
C7152 C 0.18547 0.68072 0.49182 0.0
C7153 C 0.17761 0.64517 0.50042 0.0
C7154 C 0.1722 0.68438 0.50211 0.0
C7155 C 0.17294 0.69817 0.5129 0.0
C7156 C 0.18691 0.70903 0.51382 0.0
C7157 C 0.20036 0.70498 0.50402 0.0
C7158 C 0.19958 0.69133 0.49313 0.0
H7159 H 0.17917 0.63204 0.50195 0.0
H7160 H 0.18603 0.65233 0.5086 0.0
H7161 H 0.16502 0.64755 0.50423 0.0
H7162 H 0.161 0.67681 0.50151 0.0
H7163 H 0.16231 0.70059 0.52023 0.0
H7164 H 0.54155 0.24166 0.43807 0.0
H7165 H 0.53498 0.2572 0.46261 0.0
H7166 H 0.51316 0.29223 0.43382 0.0
H7167 H 0.51965 0.2767 0.40924 0.0
H7168 H 0.52844 0.29459 0.47717 0.0
H7169 H 0.47858 0.25306 0.45168 0.0
H7170 H 0.49946 0.25079 0.44602 0.0
H7171 H 0.48904 0.26717 0.43821 0.0
C7172 C 0.53635 0.25325 0.43687 0.0
C7173 C 0.53067 0.25778 0.42186 0.0
C7174 C 0.53266 0.26218 0.45094 0.0
C7175 C 0.5233 0.27565 0.45002 0.0
C7176 C 0.52041 0.28187 0.43477 0.0
H7177 H 0.44113 0.29954 0.50402 0.0
H7178 H 0.46938 0.30616 0.49621 0.0
C7179 C 0.52401 0.2729 0.42072 0.0
C7180 C 0.51174 0.27871 0.46347 0.0
H7181 H 0.47333 0.26673 0.47586 0.0
C7182 C 0.51636 0.28859 0.47696 0.0
C7183 C 0.49604 0.27076 0.4631 0.0
C7184 C 0.49042 0.25978 0.44906 0.0
C7185 C 0.50548 0.29061 0.49019 0.0
C7186 C 0.48994 0.28238 0.48979 0.0
C7187 C 0.48539 0.27282 0.47617 0.0
C7188 C 0.47757 0.28305 0.50294 0.0
C7189 C 0.51056 0.30123 0.50454 0.0
C7190 C 0.47311 0.2685 0.51083 0.0
C7191 C 0.45681 0.26432 0.51459 0.0
C7192 C 0.44484 0.27486 0.51085 0.0
C7193 C 0.44992 0.29079 0.50625 0.0
C7194 C 0.4662 0.2948 0.50215 0.0
H7195 H 0.52316 0.3067 0.50309 0.0
H7196 H 0.50219 0.31112 0.50619 0.0
H7197 H 0.50966 0.29398 0.5157 0.0
H7198 H 0.48174 0.25927 0.51159 0.0
H7199 H 0.45356 0.25207 0.5184 0.0
H7200 H 0.6227 0.8886 0.67928 0.0
H7201 H 0.64351 0.8801 0.66044 0.0
H7202 H 0.60823 0.84783 0.63581 0.0
H7203 H 0.58695 0.85706 0.65444 0.0
H7204 H 0.65735 0.85437 0.64917 0.0
H7205 H 0.62071 0.87727 0.59976 0.0
H7206 H 0.61431 0.87937 0.62066 0.0
H7207 H 0.6128 0.85976 0.61055 0.0
C7208 C 0.61939 0.87936 0.67016 0.0
C7209 C 0.60316 0.87373 0.66814 0.0
C7210 C 0.63134 0.87447 0.65933 0.0
C7211 C 0.62739 0.86371 0.64632 0.0
C7212 C 0.61148 0.85662 0.64535 0.0
H7213 H 0.71714 0.87327 0.5874 0.0
H7214 H 0.69288 0.85824 0.59788 0.0
C7215 C 0.59937 0.86179 0.65606 0.0
C7216 C 0.63962 0.86219 0.63299 0.0
H7217 H 0.64858 0.87762 0.59558 0.0
C7218 C 0.6554 0.85899 0.63724 0.0
C7219 C 0.637 0.86804 0.61732 0.0
C7220 C 0.62033 0.87137 0.61172 0.0
C7221 C 0.66882 0.86364 0.62731 0.0
C7222 C 0.6663 0.87102 0.61236 0.0
C7223 C 0.65043 0.87225 0.60718 0.0
C7224 C 0.67984 0.87962 0.60322 0.0
C7225 C 0.68559 0.86234 0.63379 0.0
C7226 C 0.68019 0.89659 0.60173 0.0
C7227 C 0.69396 0.90525 0.59536 0.0
C7228 C 0.7076 0.89706 0.59048 0.0
C7229 C 0.70683 0.87997 0.59114 0.0
C7230 C 0.69301 0.87133 0.59724 0.0
H7231 H 0.68532 0.85828 0.64652 0.0
H7232 H 0.69213 0.85349 0.62625 0.0
H7233 H 0.69252 0.87432 0.63326 0.0
H7234 H 0.67011 0.90323 0.60624 0.0
H7235 H 0.69427 0.91838 0.59507 0.0
H7236 H 0.60837 0.21856 0.38502 0.0
H7237 H 0.62528 0.21877 0.40908 0.0
H7238 H 0.60109 0.17337 0.42348 0.0
H7239 H 0.58428 0.17305 0.39935 0.0
H7240 H 0.60539 0.19465 0.44977 0.0
H7241 H 0.66388 0.19187 0.41599 0.0
H7242 H 0.6514 0.20748 0.40984 0.0
H7243 H 0.64453 0.18644 0.40697 0.0
C7244 C 0.60679 0.20847 0.39315 0.0
C7245 C 0.59513 0.19559 0.38988 0.0
C7246 C 0.61652 0.20861 0.40702 0.0
C7247 C 0.61487 0.19591 0.41816 0.0
C7248 C 0.60284 0.1833 0.41517 0.0
H7249 H 0.68572 0.17173 0.49064 0.0
H7250 H 0.66943 0.17411 0.46632 0.0
C7251 C 0.59317 0.18313 0.40127 0.0
C7252 C 0.62558 0.1957 0.43286 0.0
H7253 H 0.66527 0.19553 0.44429 0.0
C7254 C 0.61849 0.19488 0.44852 0.0
C7255 C 0.64273 0.1957 0.43152 0.0
C7256 C 0.65117 0.19529 0.4152 0.0
C7257 C 0.62791 0.19421 0.46262 0.0
C7258 C 0.64515 0.19469 0.46128 0.0
C7259 C 0.65218 0.19536 0.44559 0.0
C7260 C 0.65601 0.19401 0.47585 0.0
C7261 C 0.61914 0.19244 0.47878 0.0
C7262 C 0.65463 0.20474 0.48931 0.0
C7263 C 0.66393 0.20331 0.50324 0.0
C7264 C 0.6753 0.19141 0.50409 0.0
C7265 C 0.67735 0.18124 0.49034 0.0
C7266 C 0.66788 0.18253 0.47644 0.0
H7267 H 0.60649 0.18724 0.47733 0.0
H7268 H 0.62547 0.18453 0.48687 0.0
H7269 H 0.61859 0.20459 0.48475 0.0
H7270 H 0.64613 0.21412 0.48921 0.0
H7271 H 0.6619 0.21128 0.51362 0.0
H7272 H 0.84781 0.57693 0.42656 0.0
H7273 H 0.83287 0.59601 0.44381 0.0
H7274 H 0.87601 0.6286 0.44579 0.0
H7275 H 0.89043 0.61002 0.42837 0.0
H7276 H 0.8376 0.60492 0.47367 0.0
H7277 H 0.84405 0.66138 0.44117 0.0
H7278 H 0.84657 0.64212 0.4308 0.0
H7279 H 0.86371 0.65369 0.43964 0.0
C7280 C 0.8538 0.58844 0.43038 0.0
C7281 C 0.87011 0.59227 0.42606 0.0
C7282 C 0.84531 0.59929 0.44019 0.0
C7283 C 0.85311 0.61404 0.44571 0.0
C7284 C 0.86941 0.61774 0.44113 0.0
H7285 H 0.89141 0.64114 0.51898 0.0
H7286 H 0.86831 0.62855 0.50501 0.0
C7287 C 0.87775 0.60705 0.43133 0.0
C7288 C 0.84558 0.62468 0.45812 0.0
H7289 H 0.85295 0.66385 0.47074 0.0
C7290 C 0.84031 0.61792 0.47292 0.0
C7291 C 0.84769 0.64177 0.45716 0.0
C7292 C 0.85059 0.65008 0.44121 0.0
C7293 C 0.84066 0.62749 0.48726 0.0
C7294 C 0.84731 0.64374 0.4867 0.0
C7295 C 0.84883 0.65114 0.47153 0.0
C7296 C 0.85749 0.6511 0.50004 0.0
C7297 C 0.83533 0.61972 0.50298 0.0
C7298 C 0.85911 0.66805 0.50269 0.0
C7299 C 0.87287 0.67535 0.51025 0.0
C7300 C 0.88514 0.6658 0.51541 0.0
C7301 C 0.88242 0.64884 0.51468 0.0
C7302 C 0.86886 0.64158 0.50698 0.0
H7303 H 0.82331 0.61304 0.5015 0.0
H7304 H 0.84396 0.61065 0.50615 0.0
H7305 H 0.83447 0.62882 0.51307 0.0
H7306 H 0.85051 0.67573 0.49764 0.0
H7307 H 0.87451 0.68848 0.51078 0.0
H7308 H 0.42428 0.93417 0.5173 0.0
H7309 H 0.44672 0.93272 0.49734 0.0
H7310 H 0.42383 0.96594 0.46736 0.0
H7311 H 0.4028 0.96889 0.488 0.0
H7312 H 0.45312 0.92263 0.46945 0.0
H7313 H 0.46547 0.98801 0.4608 0.0
H7314 H 0.45175 0.98053 0.47653 0.0
H7315 H 0.44477 0.98263 0.45612 0.0
C7316 C 0.42427 0.94167 0.50677 0.0
C7317 C 0.41143 0.95195 0.50484 0.0
C7318 C 0.43719 0.94063 0.495 0.0
C7319 C 0.43787 0.9496 0.4805 0.0
C7320 C 0.4247 0.95939 0.47843 0.0
H7321 H 0.49543 0.95768 0.38832 0.0
H7322 H 0.47608 0.95853 0.41109 0.0
C7323 C 0.41217 0.96082 0.49036 0.0
C7324 C 0.45177 0.94844 0.46746 0.0
H7325 H 0.47551 0.97076 0.43978 0.0
C7326 C 0.458 0.93329 0.46315 0.0
C7327 C 0.45894 0.9621 0.45891 0.0
C7328 C 0.45502 0.97922 0.46347 0.0
C7329 C 0.47005 0.93137 0.45056 0.0
C7330 C 0.47656 0.94494 0.4415 0.0
C7331 C 0.47065 0.9601 0.4461 0.0
C7332 C 0.489 0.94387 0.4271 0.0
C7333 C 0.47525 0.91451 0.44682 0.0
C7334 C 0.50341 0.93552 0.42775 0.0
C7335 C 0.51458 0.93477 0.41431 0.0
C7336 C 0.51211 0.94253 0.39954 0.0
C7337 C 0.49796 0.95123 0.39909 0.0
C7338 C 0.48674 0.95182 0.4124 0.0
H7339 H 0.46613 0.90503 0.45122 0.0
H7340 H 0.47728 0.91248 0.4336 0.0
H7341 H 0.48676 0.91291 0.45307 0.0
H7342 H 0.50628 0.92967 0.43879 0.0
H7343 H 0.52526 0.92806 0.41555 0.0
H7344 H 0.21636 0.52558 0.47257 0.0
H7345 H 0.22945 0.50589 0.48817 0.0
H7346 H 0.25066 0.48656 0.44417 0.0
H7347 H 0.23702 0.50602 0.42852 0.0
H7348 H 0.22616 0.46753 0.45495 0.0
H7349 H 0.26548 0.48223 0.50698 0.0
H7350 H 0.24948 0.4958 0.50688 0.0
H7351 H 0.26415 0.49592 0.49039 0.0
C7352 C 0.22483 0.51798 0.46637 0.0
C7353 C 0.22545 0.51707 0.44936 0.0
C7354 C 0.23236 0.50661 0.47534 0.0
C7355 C 0.24073 0.49439 0.46734 0.0
C7356 C 0.24412 0.49576 0.45062 0.0
H7357 H 0.23404 0.39628 0.50883 0.0
H7358 H 0.24633 0.42143 0.4972 0.0
C7359 C 0.23641 0.507 0.44164 0.0
C7360 C 0.24023 0.47812 0.47475 0.0
H7361 H 0.24538 0.4589 0.51033 0.0
C7362 C 0.23084 0.46559 0.46686 0.0
C7363 C 0.24613 0.47544 0.49035 0.0
C7364 C 0.25701 0.48805 0.49905 0.0
C7365 C 0.22628 0.45104 0.47451 0.0
C7366 C 0.2311 0.44877 0.49053 0.0
C7367 C 0.24143 0.46076 0.49812 0.0
C7368 C 0.22451 0.43434 0.49954 0.0
C7369 C 0.21592 0.43825 0.46555 0.0
C7370 C 0.2082 0.43328 0.50477 0.0
C7371 C 0.2011 0.41888 0.51118 0.0
C7372 C 0.21013 0.40521 0.51237 0.0
C7373 C 0.22664 0.40647 0.50765 0.0
C7374 C 0.23376 0.42091 0.50126 0.0
H7375 H 0.21568 0.44042 0.45234 0.0
H7376 H 0.22074 0.42632 0.46745 0.0
H7377 H 0.20331 0.43792 0.47051 0.0
H7378 H 0.20081 0.44347 0.50341 0.0
H7379 H 0.1884 0.4183 0.51481 0.0
H7380 H 0.41928 0.24323 0.57034 0.0
H7381 H 0.44389 0.25236 0.58521 0.0
H7382 H 0.44604 0.20436 0.60389 0.0
H7383 H 0.42152 0.19519 0.58926 0.0
H7384 H 0.44673 0.24201 0.62595 0.0
H7385 H 0.49313 0.22738 0.579 0.0
H7386 H 0.47375 0.23461 0.57403 0.0
H7387 H 0.47491 0.21405 0.58013 0.0
C7388 C 0.42517 0.23456 0.5774 0.0
C7389 C 0.41842 0.21844 0.57864 0.0
C7390 C 0.43913 0.23984 0.58598 0.0
C7391 C 0.44668 0.22905 0.59574 0.0
C7392 C 0.44032 0.21288 0.59649 0.0
H7393 H 0.50829 0.21056 0.67003 0.0
H7394 H 0.48592 0.21836 0.65386 0.0
C7395 C 0.42636 0.20764 0.58807 0.0
C7396 C 0.4611 0.2343 0.60547 0.0
H7397 H 0.50177 0.22991 0.60618 0.0
C7398 C 0.45884 0.23971 0.62158 0.0
C7399 C 0.47692 0.23174 0.59965 0.0
C7400 C 0.47998 0.22672 0.58222 0.0
C7401 C 0.47186 0.2414 0.63234 0.0
C7402 C 0.48741 0.237 0.62698 0.0
C7403 C 0.48986 0.23301 0.61047 0.0
C7404 C 0.50071 0.23452 0.63844 0.0
C7405 C 0.46872 0.24755 0.64941 0.0
C7406 C 0.51663 0.24095 0.63529 0.0
C7407 C 0.52953 0.23633 0.64447 0.0
C7408 C 0.52685 0.22514 0.65701 0.0
C7409 C 0.51082 0.21934 0.66063 0.0
C7410 C 0.49795 0.22388 0.6514 0.0
H7411 H 0.45912 0.25633 0.6497 0.0
H7412 H 0.46436 0.2372 0.65703 0.0
H7413 H 0.47984 0.25355 0.65481 0.0
H7414 H 0.51915 0.24916 0.62539 0.0
H7415 H 0.54169 0.24125 0.64149 0.0
H7416 H 0.91354 0.40547 0.60374 0.0
H7417 H 0.91503 0.42896 0.62269 0.0
H7418 H 0.96408 0.44126 0.60661 0.0
H7419 H 0.96256 0.41767 0.5876 0.0
H7420 H 0.9622 0.4444 0.6399 0.0
H7421 H 0.91167 0.47695 0.61692 0.0
H7422 H 0.90585 0.45628 0.62178 0.0
H7423 H 0.92029 0.46055 0.60556 0.0
C7424 C 0.92467 0.41318 0.60408 0.0
C7425 C 0.93796 0.40919 0.59397 0.0
C7426 C 0.92549 0.42693 0.61498 0.0
C7427 C 0.93966 0.43751 0.61643 0.0
C7428 C 0.95289 0.43365 0.60613 0.0
H7429 H 0.97079 0.52171 0.68439 0.0
H7430 H 0.96956 0.50069 0.66268 0.0
C7431 C 0.95199 0.42002 0.59505 0.0
C7432 C 0.94083 0.45206 0.62885 0.0
H7433 H 0.92215 0.48635 0.6423 0.0
C7434 C 0.95344 0.45358 0.64023 0.0
C7435 C 0.92958 0.46444 0.62984 0.0
C7436 C 0.91617 0.46464 0.6178 0.0
C7437 C 0.95477 0.4663 0.65242 0.0
C7438 C 0.94349 0.47866 0.65346 0.0
C7439 C 0.93095 0.47721 0.64197 0.0
C7440 C 0.94424 0.49274 0.66645 0.0
C7441 C 0.96805 0.46584 0.66458 0.0
C7442 C 0.93038 0.49667 0.67578 0.0
C7443 C 0.93109 0.50901 0.68822 0.0
C7444 C 0.94566 0.51818 0.69207 0.0
C7445 C 0.95934 0.51491 0.68223 0.0
C7446 C 0.95866 0.50254 0.66977 0.0
H7447 H 0.97224 0.45341 0.66553 0.0
H7448 H 0.97859 0.47393 0.66062 0.0
H7449 H 0.96394 0.47001 0.67679 0.0
H7450 H 0.91891 0.48989 0.67372 0.0
H7451 H 0.92008 0.51134 0.69495 0.0
H7452 H 0.23235 0.59601 0.72206 0.0
H7453 H 0.23342 0.61345 0.69843 0.0
H7454 H 0.18405 0.59742 0.68783 0.0
H7455 H 0.18289 0.58014 0.71176 0.0
H7456 H 0.20382 0.59918 0.65951 0.0
H7457 H 0.21308 0.65689 0.69502 0.0
H7458 H 0.22676 0.64165 0.69933 0.0
H7459 H 0.20544 0.63809 0.70395 0.0
C7460 C 0.22159 0.59641 0.71493 0.0
C7461 C 0.20737 0.58696 0.7193 0.0
C7462 C 0.22223 0.60641 0.70125 0.0
C7463 C 0.2087 0.60726 0.69127 0.0
C7464 C 0.19468 0.59728 0.69523 0.0
H7465 H 0.1912 0.6844 0.62246 0.0
H7466 H 0.19271 0.66701 0.6461 0.0
C7467 C 0.19402 0.58733 0.70899 0.0
C7468 C 0.20914 0.61855 0.67689 0.0
H7469 H 0.21469 0.65873 0.66664 0.0
C7470 C 0.20622 0.61219 0.66113 0.0
C7471 C 0.21208 0.63567 0.67867 0.0
C7472 C 0.21441 0.64359 0.69514 0.0
C7473 C 0.20627 0.62226 0.64739 0.0
C7474 C 0.20952 0.6394 0.64917 0.0
C7475 C 0.21231 0.64572 0.66496 0.0
C7476 C 0.20964 0.65096 0.63501 0.0
C7477 C 0.20236 0.61434 0.63114 0.0
C7478 C 0.21915 0.64852 0.62087 0.0
C7479 C 0.21831 0.65853 0.60735 0.0
C7480 C 0.20819 0.67165 0.60747 0.0
C7481 C 0.19937 0.6747 0.62192 0.0
C7482 C 0.20012 0.66456 0.63545 0.0
H7483 H 0.19555 0.60235 0.63246 0.0
H7484 H 0.1951 0.62213 0.6238 0.0
H7485 H 0.21383 0.61228 0.62439 0.0
H7486 H 0.22709 0.63863 0.62011 0.0
H7487 H 0.22521 0.65565 0.59646 0.0
H7488 H 0.06348 0.28693 0.45678 0.0
H7489 H 0.0816 0.3047 0.47281 0.0
H7490 H 0.10961 0.31714 0.42995 0.0
H7491 H 0.09075 0.30054 0.41372 0.0
H7492 H 0.09948 0.27998 0.46315 0.0
H7493 H 0.14053 0.33555 0.46332 0.0
H7494 H 0.11907 0.33612 0.45985 0.0
H7495 H 0.13285 0.33156 0.44338 0.0
C7496 C 0.07248 0.2947 0.45048 0.0
C7497 C 0.07697 0.29113 0.43438 0.0
C7498 C 0.08294 0.30507 0.45975 0.0
C7499 C 0.09803 0.31027 0.4528 0.0
C7500 C 0.09872 0.31198 0.4359 0.0
H7501 H 0.19224 0.27612 0.45106 0.0
H7502 H 0.16462 0.28078 0.4437 0.0
C7503 C 0.08784 0.30229 0.4265 0.0
C7504 C 0.11247 0.30347 0.45969 0.0
H7505 H 0.15355 0.30959 0.46199 0.0
C7506 C 0.11116 0.28679 0.46329 0.0
C7507 C 0.12792 0.31188 0.4596 0.0
C7508 C 0.13013 0.32981 0.45647 0.0
C7509 C 0.12476 0.27825 0.46597 0.0
C7510 C 0.14015 0.28647 0.46519 0.0
C7511 C 0.14163 0.30323 0.46225 0.0
C7512 C 0.15488 0.27807 0.46809 0.0
C7513 C 0.12244 0.26036 0.46913 0.0
C7514 C 0.15795 0.2729 0.48371 0.0
C7515 C 0.17379 0.2701 0.48779 0.0
C7516 C 0.18644 0.27389 0.47658 0.0
C7517 C 0.18264 0.27413 0.4601 0.0
C7518 C 0.16693 0.27731 0.45594 0.0
H7519 H 0.11208 0.25483 0.46217 0.0
H7520 H 0.13331 0.25379 0.46585 0.0
H7521 H 0.11972 0.25872 0.48223 0.0
H7522 H 0.14863 0.27295 0.49315 0.0
H7523 H 0.17643 0.26899 0.5005 0.0
H7524 H 0.78291 0.13081 0.57246 0.0
H7525 H 0.79383 0.11112 0.55346 0.0
H7526 H 0.80606 0.14913 0.51953 0.0
H7527 H 0.79541 0.1691 0.53877 0.0
H7528 H 0.78003 0.10701 0.52075 0.0
H7529 H 0.84684 0.12169 0.52172 0.0
H7530 H 0.83343 0.12727 0.53822 0.0
H7531 H 0.83424 0.13844 0.51985 0.0
C7532 C 0.78812 0.13507 0.56107 0.0
C7533 C 0.78756 0.15132 0.55661 0.0
C7534 C 0.79432 0.12379 0.55025 0.0
C7535 C 0.80042 0.12874 0.5351 0.0
C7536 C 0.80125 0.14518 0.5312 0.0
H7537 H 0.82828 0.07104 0.45112 0.0
H7538 H 0.81635 0.09215 0.46812 0.0
C7539 C 0.79501 0.15647 0.54204 0.0
C7540 C 0.80487 0.11649 0.52301 0.0
H7541 H 0.83714 0.10145 0.50288 0.0
C7542 C 0.7925 0.10578 0.51678 0.0
C7543 C 0.82113 0.1151 0.51799 0.0
C7544 C 0.83475 0.12614 0.52483 0.0
C7545 C 0.79608 0.09343 0.50564 0.0
C7546 C 0.81233 0.09201 0.50073 0.0
C7547 C 0.82467 0.10285 0.50673 0.0
C7548 C 0.817 0.07864 0.49015 0.0
C7549 C 0.78268 0.08179 0.49933 0.0
C7550 C 0.8207 0.0641 0.49703 0.0
C7551 C 0.82768 0.05227 0.48747 0.0
C7552 C 0.83124 0.05502 0.47105 0.0
C7553 C 0.82624 0.06903 0.46393 0.0
C7554 C 0.81931 0.08093 0.47351 0.0
H7555 H 0.77051 0.08517 0.50362 0.0
H7556 H 0.78307 0.08146 0.48587 0.0
H7557 H 0.78455 0.06936 0.50338 0.0
H7558 H 0.81889 0.06225 0.50992 0.0
H7559 H 0.83113 0.04145 0.49311 0.0
H7560 H 1.01311 0.8117 0.46832 0.0
H7561 H 0.99946 0.82442 0.49115 0.0
H7562 H 0.96057 0.78694 0.48804 0.0
H7563 H 0.97393 0.77478 0.46466 0.0
H7564 H 0.95491 0.82084 0.47601 0.0
H7565 H 0.97953 0.82105 0.53837 0.0
H7566 H 0.99277 0.82323 0.52075 0.0
H7567 H 0.98245 0.80391 0.52484 0.0
C7568 C 1.00234 0.80545 0.4733 0.0
C7569 C 0.99399 0.79306 0.46411 0.0
C7570 C 0.99436 0.81295 0.48621 0.0
C7571 C 0.97869 0.80703 0.49063 0.0
C7572 C 0.9725 0.79194 0.48431 0.0
H7573 H 0.92907 0.77496 0.51803 0.0
H7574 H 0.92621 0.7975 0.50077 0.0
C7575 C 0.98033 0.78477 0.47113 0.0
C7576 C 0.96731 0.81785 0.49841 0.0
H7577 H 0.95271 0.82768 0.53565 0.0
C7578 C 0.9545 0.82261 0.48909 0.0
C7579 C 0.96739 0.82137 0.51516 0.0
C7580 C 0.98126 0.81724 0.52547 0.0
C7581 C 0.94022 0.82736 0.49667 0.0
C7582 C 0.93883 0.82641 0.51367 0.0
C7583 C 0.95328 0.82684 0.52252 0.0
C7584 C 0.92557 0.81549 0.52053 0.0
C7585 C 0.92566 0.82961 0.48657 0.0
C7586 C 0.92199 0.81731 0.53716 0.0
C7587 C 0.92374 0.80421 0.54717 0.0
C7588 C 0.92798 0.78924 0.54033 0.0
C7589 C 0.92696 0.78663 0.52358 0.0
C7590 C 0.92476 0.79961 0.51371 0.0
H7591 H 0.92902 0.83827 0.47679 0.0
H7592 H 0.92154 0.81787 0.48062 0.0
H7593 H 0.9155 0.83417 0.49402 0.0
H7594 H 0.9215 0.82932 0.54269 0.0
H7595 H 0.92331 0.80627 0.56018 0.0
H7596 H 0.31077 0.10233 0.44705 0.0
H7597 H 0.317 0.08573 0.46955 0.0
H7598 H 0.3077 0.04246 0.43969 0.0
H7599 H 0.30365 0.05973 0.4164 0.0
H7600 H 0.291 0.06767 0.48002 0.0
H7601 H 0.34238 0.02876 0.46866 0.0
H7602 H 0.33952 0.04633 0.45673 0.0
H7603 H 0.32788 0.02748 0.45276 0.0
C7604 C 0.31047 0.08928 0.44513 0.0
C7605 C 0.30502 0.08184 0.43058 0.0
C7606 C 0.31412 0.07985 0.45798 0.0
C7607 C 0.31225 0.06292 0.45642 0.0
C7608 C 0.3089 0.05555 0.44122 0.0
H7609 H 0.27404 0.99072 0.51607 0.0
H7610 H 0.27673 1.0162 0.50178 0.0
C7611 C 0.30577 0.06516 0.42818 0.0
C7612 C 0.3105 0.05347 0.4712 0.0
H7613 H 0.32353 1.02094 0.49021 0.0
C7614 C 0.29835 0.05764 0.48242 0.0
C7615 C 0.31999 0.04037 0.47411 0.0
C7616 C 0.33327 0.03555 0.46248 0.0
C7617 C 0.29518 0.04878 0.49641 0.0
C7618 C 0.3043 0.03542 0.49913 0.0
C7619 C 0.31673 0.03144 0.48812 0.0
C7620 C 0.29988 1.02409 0.51212 0.0
C7621 C 0.28195 0.05354 0.50807 0.0
C7622 C 0.3114 1.02084 0.52353 0.0
C7623 C 0.30974 1.00634 0.53181 0.0
C7624 C 0.2968 0.99492 0.52835 0.0
C7625 C 0.284 0.99944 0.51902 0.0
C7626 C 0.28563 1.01394 0.51073 0.0
H7627 H 0.27782 0.06564 0.5054 0.0
H7628 H 0.27136 0.04459 0.50711 0.0
H7629 H 0.28623 0.05364 0.52073 0.0
H7630 H 0.32247 0.02858 0.52468 0.0
H7631 H 0.31977 1.00301 0.53889 0.0
H7632 H 0.11762 0.77152 0.64196 0.0
H7633 H 0.11917 0.77822 0.6134 0.0
H7634 H 0.07505 0.80294 0.6188 0.0
H7635 H 0.07291 0.79515 0.64718 0.0
H7636 H 0.09174 0.78416 0.58286 0.0
H7637 H 0.12071 0.83685 0.6149 0.0
H7638 H 0.12487 0.81924 0.62578 0.0
H7639 H 0.10406 0.82464 0.62388 0.0
C7640 C 0.10749 0.77703 0.63674 0.0
C7641 C 0.09549 0.78333 0.64679 0.0
C7642 C 0.10855 0.78124 0.62049 0.0
C7643 C 0.09756 0.79163 0.61431 0.0
C7644 C 0.08373 0.79508 0.62345 0.0
H7645 H 0.17623 0.80713 0.54775 0.0
H7646 H 0.15346 0.82038 0.56074 0.0
C7647 C 0.08238 0.7903 0.63959 0.0
C7648 C 0.10292 0.80119 0.60014 0.0
H7649 H 0.13889 0.82293 0.59428 0.0
C7650 C 0.1014 0.79352 0.5849 0.0
C7651 C 0.11507 0.81398 0.60236 0.0
C7652 C 0.11606 0.82425 0.61765 0.0
C7653 C 0.11395 0.79569 0.57334 0.0
C7654 C 0.12832 0.80477 0.57781 0.0
C7655 C 0.12809 0.81533 0.59125 0.0
C7656 C 0.14393 0.7987 0.57271 0.0
C7657 C 0.11314 0.7858 0.55781 0.0
C7658 C 0.1467 0.78265 0.57633 0.0
C7659 C 0.15931 0.77507 0.56872 0.0
C7660 C 0.1698 0.78355 0.55798 0.0
C7661 C 0.16829 0.8003 0.55612 0.0
C7662 C 0.15528 0.80786 0.56336 0.0
H7663 H 0.10091 0.78586 0.55262 0.0
H7664 H 0.12229 0.79042 0.54868 0.0
H7665 H 0.11541 0.77311 0.56055 0.0
H7666 H 0.13818 0.77551 0.58391 0.0
H7667 H 0.15954 0.76229 0.57008 0.0
H7668 H 0.34535 0.14459 0.63075 0.0
H7669 H 0.33199 0.14395 0.60481 0.0
H7670 H 0.30299 0.1009 0.6183 0.0
H7671 H 0.31751 0.10058 0.64362 0.0
H7672 H 0.31501 0.12659 0.57718 0.0
H7673 H 0.27479 0.14035 0.63007 0.0
H7674 H 0.29587 0.1395 0.63199 0.0
H7675 H 0.28372 0.12091 0.62947 0.0
C7676 C 0.3371 0.13427 0.62762 0.0
C7677 C 0.33226 0.12282 0.63927 0.0
C7678 C 0.32907 0.1341 0.61289 0.0
C7679 C 0.31561 0.12307 0.61008 0.0
C7680 C 0.31297 0.10983 0.62033 0.0
H7681 H 0.2909 0.19972 0.62362 0.0
H7682 H 0.27624 0.18261 0.60273 0.0
C7683 C 0.32149 0.10956 0.63477 0.0
C7684 C 0.30224 0.12856 0.60021 0.0
H7685 H 0.27072 0.15273 0.60648 0.0
C7686 C 0.30526 0.13212 0.58381 0.0
C7687 C 0.2885 0.13512 0.608 0.0
C7688 C 0.28529 0.13371 0.62584 0.0
C7689 C 0.29765 0.14507 0.577 0.0
C7690 C 0.2887 0.15507 0.58759 0.0
C7691 C 0.28018 0.14668 0.59992 0.0
C7692 C 0.29739 0.17031 0.59431 0.0
C7693 C 0.30311 0.15083 0.56058 0.0
C7694 C 0.31414 0.16988 0.59633 0.0
C7695 C 0.32134 0.17706 0.60985 0.0
C7696 C 0.31336 0.18808 0.61978 0.0
C7697 C 0.29729 0.19102 0.61634 0.0
C7698 C 0.28915 0.18173 0.60398 0.0
H7699 H 0.29946 0.14138 0.5513 0.0
H7700 H 0.29782 0.16239 0.55769 0.0
H7701 H 0.31654 0.1525 0.56007 0.0
H7702 H 0.32141 0.16212 0.58891 0.0
H7703 H 0.33336 0.17379 0.61265 0.0
H7704 H 0.0662 0.3 0.68632 0.0
H7705 H 0.06092 0.32279 0.66944 0.0
H7706 H 0.09959 0.31049 0.63662 0.0
H7707 H 0.10301 0.28678 0.65148 0.0
H7708 H 0.07291 0.34652 0.64033 0.0
H7709 H 0.05428 0.28118 0.62686 0.0
H7710 H 0.06041 0.28812 0.64662 0.0
H7711 H 0.0753 0.28606 0.63054 0.0
C7712 C 0.07413 0.30269 0.67596 0.0
C7713 C 0.08491 0.29141 0.67015 0.0
C7714 C 0.07134 0.31593 0.66651 0.0
C7715 C 0.07943 0.31762 0.65145 0.0
C7716 C 0.09313 0.3091 0.64813 0.0
H7717 H 1.00566 0.30459 0.58178 0.0
H7718 H 0.0346 0.31217 0.58602 0.0
C7719 C 0.09519 0.29534 0.65687 0.0
C7720 C 0.0695 0.32058 0.63756 0.0
H7721 H 0.04392 0.30014 0.61136 0.0
C7722 C 0.06673 0.33648 0.63371 0.0
C7723 C 0.06149 0.30727 0.62908 0.0
C7724 C 0.06292 0.28972 0.63349 0.0
C7725 C 0.0551 0.33952 0.62233 0.0
C7726 C 0.04656 0.32622 0.61431 0.0
C7727 C 0.05067 0.31038 0.61711 0.0
C7728 C 0.03047 0.32742 0.60734 0.0
C7729 C 0.05137 0.35691 0.62016 0.0
C7730 C 1.01864 0.33399 0.61743 0.0
C7731 C 1.00243 0.3297 0.61504 0.0
C7732 C 0.99761 0.31864 0.60256 0.0
C7733 C 1.00921 0.31296 0.5916 0.0
C7734 C 0.02562 0.31756 0.59383 0.0
H7735 H 0.06272 0.36421 0.61695 0.0
H7736 H 0.04222 0.35833 0.61082 0.0
H7737 H 0.04685 0.362 0.63186 0.0
H7738 H 1.02187 0.34106 0.62827 0.0
H7739 H 0.9937 0.33419 0.62374 0.0
H7740 H 0.77135 0.96801 0.67568 0.0
H7741 H 0.78623 0.96398 0.65033 0.0
H7742 H 0.81083 1.01135 0.65644 0.0
H7743 H 0.79528 1.01562 0.68143 0.0
H7744 H 0.81019 0.98557 0.62016 0.0
H7745 H 0.83328 0.96688 0.67907 0.0
H7746 H 0.81244 0.97068 0.67712 0.0
H7747 H 0.82771 0.98751 0.67704 0.0
C7748 C 0.77894 0.97811 0.67103 0.0
C7749 C 0.78351 0.99148 0.68121 0.0
C7750 C 0.78758 0.97574 0.65647 0.0
C7751 C 0.80037 0.98695 0.65206 0.0
C7752 C 0.80138 1.00229 0.65985 0.0
H7753 H 0.82699 0.91849 0.66105 0.0
H7754 H 0.85091 0.93431 0.65052 0.0
C7755 C 0.79232 1.00479 0.67412 0.0
C7756 C 0.81526 0.9804 0.64489 0.0
H7757 H 0.84739 0.96014 0.65631 0.0
C7758 C 0.81785 0.97937 0.6281 0.0
C7759 C 0.82658 0.97387 0.65504 0.0
C7760 C 0.82491 0.97472 0.67313 0.0
C7761 C 0.8299 0.96968 0.62152 0.0
C7762 C 0.83837 0.9599 0.632 0.0
C7763 C 0.83911 0.96527 0.64823 0.0
C7764 C 0.83887 0.94171 0.62898 0.0
C7765 C 0.83358 0.9702 0.60362 0.0
C7766 C 0.82802 0.93477 0.61756 0.0
C7767 C 0.81424 0.92596 0.62327 0.0
C7768 C 0.81283 0.92142 0.63968 0.0
C7769 C 0.82698 0.92289 0.64881 0.0
C7770 C 0.84069 0.93194 0.64265 0.0
H7771 H 0.83628 0.98302 0.60012 0.0
H7772 H 0.84414 0.96318 0.60013 0.0
H7773 H 0.82274 0.96553 0.59679 0.0
H7774 H 0.82775 0.93917 0.6054 0.0
H7775 H 0.80409 0.92501 0.61535 0.0
H7776 H 0.44349 0.08321 0.27761 0.0
H7777 H 0.4566 0.10686 0.29217 0.0
H7778 H 0.50183 0.09848 0.26722 0.0
H7779 H 0.48893 0.07487 0.25306 0.0
H7780 H 0.49422 0.10759 0.3089 0.0
H7781 H 0.48081 0.14675 0.2578 0.0
H7782 H 0.46757 0.12945 0.26375 0.0
H7783 H 0.48617 0.12638 0.25279 0.0
C7784 C 0.45637 0.08618 0.27584 0.0
C7785 C 0.4655 0.07722 0.26477 0.0
C7786 C 0.46371 0.09961 0.28395 0.0
C7787 C 0.48001 0.10413 0.2806 0.0
C7788 C 0.48922 0.09485 0.26993 0.0
H7789 H 0.56289 0.15749 0.30781 0.0
H7790 H 0.54203 0.13967 0.29478 0.0
C7791 C 0.48196 0.08137 0.26202 0.0
C7792 C 0.48756 0.11914 0.28723 0.0
H7793 H 0.50294 0.15594 0.27435 0.0
C7794 C 0.49581 0.11841 0.3017 0.0
C7795 C 0.48936 0.13306 0.27767 0.0
C7796 C 0.48041 0.13411 0.26215 0.0
C7797 C 0.50698 0.13099 0.30626 0.0
C7798 C 0.51001 0.14417 0.29577 0.0
C7799 C 0.50071 0.14554 0.28205 0.0
C7800 C 0.52318 0.15636 0.29875 0.0
C7801 C 0.51592 0.12976 0.32187 0.0
C7802 C 0.51957 0.17208 0.30346 0.0
C7803 C 0.53146 0.18236 0.31056 0.0
C7804 C 0.54679 0.17669 0.31331 0.0
C7805 C 0.55101 0.16191 0.30623 0.0
C7806 C 0.53913 0.15171 0.29892 0.0
H7807 H 0.50917 0.12142 0.3304 0.0
H7808 H 0.52786 0.12485 0.31913 0.0
H7809 H 0.51801 0.14186 0.32795 0.0
H7810 H 0.50729 0.17583 0.30301 0.0
H7811 H 0.52809 0.194 0.31546 0.0
H7812 H 0.02536 0.46502 0.33893 0.0
H7813 H 1.01778 0.49039 0.32866 0.0
H7814 H 0.06241 0.49507 0.3005 0.0
H7815 H 0.06906 0.46848 0.3095 0.0
H7816 H 1.01984 0.51809 0.31956 0.0
H7817 H 0.03286 0.47962 0.2659 0.0
H7818 H 0.03711 0.47432 0.28579 0.0
H7819 H 0.05125 0.48803 0.27501 0.0
C7820 C 0.03405 0.47184 0.33127 0.0
C7821 C 0.04725 0.46434 0.32416 0.0
C7822 C 0.02963 0.48646 0.32525 0.0
C7823 C 0.0389 0.49399 0.31271 0.0
C7824 C 0.05452 0.48887 0.30935 0.0
H7825 H 0.96169 0.54208 0.26898 0.0
H7826 H 0.991 0.54266 0.27305 0.0
C7827 C 0.05853 0.47377 0.31477 0.0
C7828 C 0.0304 0.50349 0.30081 0.0
H7829 H 1.01762 0.50122 0.26163 0.0
C7830 C 1.0199 0.51498 0.30675 0.0
C7831 C 0.02963 0.49863 0.28417 0.0
C7832 C 0.03825 0.48442 0.27731 0.0
C7833 C 1.00793 0.52073 0.29706 0.0
C7834 C 1.00697 0.51549 0.28058 0.0
C7835 C 1.01858 0.50542 0.27416 0.0
C7836 C 0.99187 0.5165 0.2714 0.0
C7837 C 0.99536 0.5308 0.30517 0.0
C7838 C 0.98327 0.5019 0.26666 0.0
C7839 C 0.96685 0.50171 0.26337 0.0
C7840 C 0.95881 0.51603 0.26514 0.0
C7841 C 0.96779 0.53092 0.26749 0.0
C7842 C 0.98443 0.53119 0.27018 0.0
H7843 H 0.99694 0.53191 0.31842 0.0
H7844 H 0.99642 0.54324 0.30037 0.0
H7845 H 0.98294 0.5253 0.30295 0.0
H7846 H 0.98871 0.49038 0.2673 0.0
H7847 H 0.96004 0.4901 0.26172 0.0
H7848 H 0.67844 0.04805 0.31508 0.0
H7849 H 0.65828 0.02672 0.32465 0.0
H7850 H 0.65282 1.00835 0.27543 0.0
H7851 H 0.67224 0.02921 0.26627 0.0
H7852 H 0.62695 1.02481 0.31196 0.0
H7853 H 0.65618 0.96703 0.3002 0.0
H7854 H 0.66758 0.98652 0.30107 0.0
H7855 H 0.65692 0.97993 0.28305 0.0
C7856 C 0.67281 0.03937 0.30649 0.0
C7857 C 0.67668 0.04009 0.28996 0.0
C7858 C 0.66167 0.02716 0.3119 0.0
C7859 C 0.6547 1.01577 0.30071 0.0
C7860 C 0.65864 1.01664 0.28428 0.0
H7861 H 0.57431 0.94188 0.30566 0.0
H7862 H 0.59644 0.96011 0.29421 0.0
C7863 C 0.66956 0.02873 0.279 0.0
C7864 C 0.6412 1.00469 0.30539 0.0
H7865 H 0.62716 0.96505 0.30356 0.0
C7866 C 0.62701 1.01172 0.31039 0.0
C7867 C 0.64136 0.98779 0.30243 0.0
C7868 C 0.65639 0.97988 0.29649 0.0
C7869 C 0.61274 1.00218 0.31275 0.0
C7870 C 0.61299 0.98516 0.31056 0.0
C7871 C 0.62711 0.97813 0.30513 0.0
C7872 C 0.59956 0.97449 0.31645 0.0
C7873 C 0.59764 1.01051 0.31762 0.0
C7874 C 0.59455 0.97652 0.33259 0.0
C7875 C 0.58175 0.9669 0.33864 0.0
C7876 C 0.57439 0.95453 0.32897 0.0
C7877 C 0.57982 0.95173 0.31304 0.0
C7878 C 0.59236 0.96195 0.30664 0.0
H7879 H 0.59787 1.02277 0.31238 0.0
H7880 H 0.58655 1.00333 0.31369 0.0
H7881 H 0.59709 1.0122 0.331 0.0
H7882 H 0.60056 0.98555 0.34057 0.0
H7883 H 0.5779 0.96895 0.35104 0.0
H7884 H 0.11165 0.64933 0.27519 0.0
H7885 H 0.09387 0.62588 0.27411 0.0
H7886 H 0.10224 0.61765 0.3244 0.0
H7887 H 0.11781 0.64374 0.32672 0.0
H7888 H 0.11405 0.60447 0.2781 0.0
H7889 H 0.06002 0.58816 0.31593 0.0
H7890 H 0.06506 0.60852 0.30885 0.0
H7891 H 0.07433 0.60159 0.32668 0.0
C7892 C 0.10893 0.6438 0.28659 0.0
C7893 C 0.11608 0.64948 0.30128 0.0
C7894 C 0.09846 0.63002 0.28583 0.0
C7895 C 0.09655 0.62001 0.29914 0.0
C7896 C 0.10316 0.62544 0.31402 0.0
H7897 H 0.13246 0.56814 0.33578 0.0
H7898 H 0.10446 0.56449 0.32925 0.0
C7899 C 0.11261 0.64018 0.31516 0.0
C7900 C 0.09449 0.60244 0.29571 0.0
H7901 H 0.07978 0.56725 0.31264 0.0
C7902 C 0.10623 0.59624 0.28534 0.0
C7903 C 0.08378 0.59174 0.30442 0.0
C7904 C 0.06994 0.59783 0.31445 0.0
C7905 C 0.10956 0.58004 0.28542 0.0
C7906 C 0.10082 0.56955 0.2966 0.0
C7907 C 0.08693 0.57523 0.30459 0.0
C7908 C 0.10899 0.55637 0.30444 0.0
C7909 C 0.12297 0.57523 0.27382 0.0
C7910 C 0.12003 0.54764 0.29527 0.0
C7911 C 0.13658 0.55067 0.29835 0.0
C7912 C 0.1413 0.56121 0.3114 0.0
C7913 C 0.1296 0.56288 0.32402 0.0
C7914 C 0.11322 0.56003 0.32056 0.0
H7915 H 0.12466 0.58368 0.26356 0.0
H7916 H 0.13467 0.57602 0.28012 0.0
H7917 H 0.12034 0.56301 0.26829 0.0
H7918 H 0.1164 0.54161 0.284 0.0
H7919 H 0.14519 0.54643 0.28946 0.0
H7920 H 0.44517 1.02152 0.7559 0.0
H7921 H 0.47388 1.02553 0.76024 0.0
H7922 H 0.47779 0.97371 0.75637 0.0
H7923 H 0.44858 0.96975 0.75426 0.0
H7924 H 0.48083 0.98292 0.7852 0.0
H7925 H 0.52015 0.02893 0.75218 0.0
H7926 H 0.50047 0.03498 0.75745 0.0
H7927 H 0.50258 1.01839 0.74309 0.0
C7928 C 0.45234 1.01103 0.75469 0.0
C7929 C 0.44467 0.99531 0.7556 0.0
C7930 C 0.46898 1.01338 0.75724 0.0
C7931 C 0.47818 0.99992 0.7591 0.0
C7932 C 0.47098 0.98433 0.75526 0.0
H7933 H 0.56324 0.97812 0.79688 0.0
H7934 H 0.54847 0.99771 0.78302 0.0
C7935 C 0.45418 0.98199 0.75378 0.0
C7936 C 0.49238 1.0013 0.76998 0.0
H7937 H 0.52881 1.0217 0.77836 0.0
C7938 C 0.49144 0.99122 0.78342 0.0
C7939 C 0.50588 1.01272 0.76828 0.0
C7940 C 0.50742 1.02426 0.7544 0.0
C7941 C 0.50379 0.99139 0.79463 0.0
C7942 C 0.51746 1.0027 0.79297 0.0
C7943 C 0.51827 1.01325 0.77982 0.0
C7944 C 0.5319 1.00157 0.80323 0.0
C7945 C 0.50213 0.97868 0.80755 0.0
C7946 C 0.52989 0.99996 0.8201 0.0
C7947 C 0.5378 0.98785 0.82769 0.0
C7948 C 0.54789 0.97812 0.81827 0.0
C7949 C 0.55447 0.98463 0.8038 0.0
C7950 C 0.54591 0.9959 0.79579 0.0
H7951 H 0.49206 0.96935 0.80524 0.0
H7952 H 0.51337 0.97226 0.80817 0.0
H7953 H 0.49965 0.98452 0.81952 0.0
H7954 H 0.51992 1.00534 0.82648 0.0
H7955 H 0.53328 0.98397 0.83948 0.0
H7956 H 0.07552 0.44108 0.8065 0.0
H7957 H 0.09906 0.4581 0.79603 0.0
H7958 H 0.09864 0.48753 0.84009 0.0
H7959 H 0.07563 0.47093 0.85027 0.0
H7960 H 0.0996 0.49317 0.79289 0.0
H7961 H 0.14583 0.47404 0.83429 0.0
H7962 H 0.12648 0.46275 0.83183 0.0
H7963 H 0.12834 0.48029 0.84533 0.0
C7964 C 0.08046 0.45136 0.81368 0.0
C7965 C 0.07381 0.45508 0.82894 0.0
C7966 C 0.09385 0.46084 0.80787 0.0
C7967 C 0.10057 0.4737 0.81755 0.0
C7968 C 0.09371 0.47741 0.83268 0.0
H7969 H 0.16692 0.55917 0.80674 0.0
H7970 H 0.14382 0.54083 0.8163 0.0
C7971 C 0.08043 0.46811 0.83834 0.0
C7972 C 0.11401 0.48435 0.81175 0.0
H7973 H 0.15094 0.50093 0.8231 0.0
C7974 C 0.11094 0.49478 0.7993 0.0
C7975 C 0.12861 0.48631 0.82035 0.0
C7976 C 0.13254 0.47508 0.83359 0.0
C7977 C 0.12202 0.50767 0.79557 0.0
C7978 C 0.13628 0.50998 0.80458 0.0
C7979 C 0.13959 0.4993 0.81671 0.0
C7980 C 0.14932 0.52134 0.79939 0.0
C7981 C 0.11866 0.51857 0.78188 0.0
C7982 C 0.15963 0.5161 0.78711 0.0
C7983 C 0.17261 0.52619 0.78219 0.0
C7984 C 0.17544 0.54166 0.78926 0.0
C7985 C 0.16492 0.54711 0.80142 0.0
C7986 C 0.15188 0.53681 0.8067 0.0
H7987 H 0.1058 0.51712 0.7782 0.0
H7988 H 0.12171 0.53149 0.78537 0.0
H7989 H 0.12644 0.51547 0.77127 0.0
H7990 H 0.15764 0.50419 0.78136 0.0
H7991 H 0.18017 0.52203 0.77252 0.0
H7992 H 0.64605 0.05719 0.7772 0.0
H7993 H 0.61727 0.0545 0.77099 0.0
H7994 H 0.60561 0.07005 0.81981 0.0
H7995 H 0.6332 0.07427 0.82566 0.0
H7996 H 0.57811 0.05959 0.80418 0.0
H7997 H 0.61579 0.10327 0.76593 0.0
H7998 H 0.61631 0.08179 0.76208 0.0
H7999 H 0.62588 0.09128 0.77971 0.0
C8000 C 0.63739 0.05991 0.78672 0.0
C8001 C 0.6424 0.06771 0.8014 0.0
C8002 C 0.62084 0.05789 0.78323 0.0
C8003 C 0.60942 0.06351 0.79451 0.0
C8004 C 0.61422 0.06645 0.81053 0.0
H8005 H 0.59562 0.14014 0.8322 0.0
H8006 H 0.58832 0.11134 0.82669 0.0
C8007 C 0.63053 0.06906 0.81385 0.0
C8008 C 0.59591 0.073 0.78946 0.0
H8009 H 0.5945 0.11297 0.78078 0.0
C8010 C 0.5813 0.07111 0.79854 0.0
C8011 C 0.5998 0.08796 0.78164 0.0
C8012 C 0.61524 0.09126 0.77175 0.0
C8013 C 0.57275 0.08468 0.80314 0.0
C8014 C 0.57821 0.09999 0.79729 0.0
C8015 C 0.59058 0.10113 0.78544 0.0
C8016 C 0.57437 0.11539 0.80544 0.0
C8017 C 0.55907 0.08295 0.81542 0.0
C8018 C 0.56785 0.12714 0.79617 0.0
C8019 C 0.5719 0.14349 0.79944 0.0
C8020 C 0.5828 0.14834 0.81173 0.0
C8021 C 0.58722 0.13676 0.82261 0.0
C8022 C 0.58294 0.12027 0.8195 0.0
H8023 H 0.5534 0.07036 0.81542 0.0
H8024 H 0.56382 0.08601 0.82768 0.0
H8025 H 0.5497 0.09145 0.81294 0.0
H8026 H 0.5616 0.1237 0.78507 0.0
H8027 H 0.56854 0.15216 0.79087 0.0
H8028 H 0.02372 0.67097 0.83266 0.0
H8029 H 1.00584 0.65772 0.81315 0.0
H8030 H 0.0429 0.66448 0.77577 0.0
H8031 H 0.06122 0.6783 0.79582 0.0
H8032 H 0.99366 0.66142 0.78176 0.0
H8033 H 0.03989 0.61563 0.7874 0.0
H8034 H 0.04029 0.63371 0.80011 0.0
H8035 H 0.04614 0.63503 0.77907 0.0
C8036 C 0.02789 0.67023 0.82021 0.0
C8037 C 0.04375 0.67541 0.81565 0.0
C8038 C 1.01762 0.66279 0.80902 0.0
C8039 C 0.02321 0.66018 0.79316 0.0
C8040 C 0.03864 0.66646 0.78811 0.0
H8041 H 0.98272 0.57954 0.74059 0.0
H8042 H 0.99779 0.60368 0.74971 0.0
C8043 C 0.04906 0.67398 0.79949 0.0
C8044 C 1.01444 0.64732 0.784 0.0
H8045 H 1.01417 0.60632 0.77925 0.0
C8046 C 0.9982 0.64941 0.78061 0.0
C8047 C 1.02042 0.6317 0.78339 0.0
C8048 C 0.0376 0.62874 0.78775 0.0
C8049 C 0.98752 0.63603 0.77715 0.0
C8050 C 0.99348 0.62046 0.77693 0.0
C8051 C 1.00981 0.61844 0.7797 0.0
C8052 C 0.98365 0.60608 0.77191 0.0
C8053 C 0.96993 0.63859 0.77444 0.0
C8054 C 0.9708 0.59949 0.78157 0.0
C8055 C 0.96207 0.58535 0.77628 0.0
C8056 C 0.96657 0.5778 0.76163 0.0
C8057 C 0.9795 0.58451 0.75225 0.0
C8058 C 0.98796 0.59855 0.75731 0.0
H8059 H 0.96827 0.6511 0.77045 0.0
H8060 H 0.96471 0.62975 0.76536 0.0
H8061 H 0.96303 0.63668 0.78601 0.0
H8062 H 0.96752 0.60532 0.79297 0.0
H8063 H 0.95174 0.5805 0.78337 0.0
H8064 H 0.31861 0.42333 0.16458 0.0
H8065 H 0.32816 0.4503 0.15715 0.0
H8066 H 0.33627 0.43342 0.10779 0.0
H8067 H 0.32492 0.40649 0.11532 0.0
H8068 H 0.34658 0.47222 0.14224 0.0
H8069 H 0.30498 0.46316 0.09384 0.0
H8070 H 0.29724 0.44738 0.10649 0.0
H8071 H 0.31758 0.44712 0.09778 0.0
C8072 C 0.32329 0.42508 0.15232 0.0
C8073 C 0.31918 0.41358 0.14011 0.0
C8074 C 0.32851 0.44079 0.14788 0.0
C8075 C 0.33117 0.44447 0.13135 0.0
C8076 C 0.33249 0.43141 0.12024 0.0
H8077 H 0.29198 0.51784 0.18005 0.0
H8078 H 0.3036 0.5158 0.15265 0.0
C8079 C 0.32676 0.41574 0.12477 0.0
C8080 C 0.3286 0.46139 0.12631 0.0
H8081 H 0.29257 0.47734 0.11905 0.0
C8082 C 0.3351 0.47383 0.1366 0.0
C8083 C 0.31438 0.46449 0.11786 0.0
C8084 C 0.30845 0.45477 0.10327 0.0
C8085 C 0.32514 0.48561 0.14312 0.0
C8086 C 0.30893 0.48577 0.13781 0.0
C8087 C 0.30455 0.47653 0.12394 0.0
C8088 C 0.29569 0.49042 0.14919 0.0
C8089 C 0.33107 0.49547 0.15761 0.0
C8090 C 0.28494 0.47784 0.15505 0.0
C8091 C 0.27788 0.47921 0.17048 0.0
C8092 C 0.28217 0.49284 0.18037 0.0
C8093 C 0.28906 0.50691 0.17284 0.0
C8094 C 0.29609 0.50562 0.15728 0.0
H8095 H 0.34362 0.49314 0.16061 0.0
H8096 H 0.33044 0.50862 0.15552 0.0
H8097 H 0.32338 0.49205 0.16821 0.0
H8098 H 0.28392 0.46608 0.14887 0.0
H8099 H 0.27204 0.46833 0.17568 0.0
H8100 H 0.28184 0.63011 0.07262 0.0
H8101 H 0.29396 0.61057 0.05444 0.0
H8102 H 0.30494 0.64802 1.01956 0.0
H8103 H 0.29379 0.66802 0.03836 0.0
H8104 H 0.28143 0.60277 1.02479 0.0
H8105 H 0.34638 0.62464 1.01933 0.0
H8106 H 0.33306 0.63189 0.03515 0.0
H8107 H 0.33251 0.63968 1.01505 0.0
C8108 C 0.28718 0.63434 0.06127 0.0
C8109 C 0.28628 0.65047 0.05652 0.0
C8110 C 0.29402 0.62312 0.05088 0.0
C8111 C 0.30015 0.62787 0.03566 0.0
C8112 C 0.3003 0.64417 0.03132 0.0
H8113 H 0.3267 0.57 0.95178 0.0
H8114 H 0.31529 0.59066 0.96967 0.0
C8115 C 0.29366 0.65549 0.04188 0.0
C8116 C 0.30516 0.61543 1.02395 0.0
H8117 H 0.33718 0.60328 1.0012 0.0
C8118 C 0.29363 0.60284 1.01966 0.0
C8119 C 0.32106 0.61569 1.01732 0.0
C8120 C 0.33402 0.62862 1.02204 0.0
C8121 C 0.29769 0.59033 1.00893 0.0
C8122 C 0.31353 0.59066 1.00233 0.0
C8123 C 0.32501 0.6033 1.00637 0.0
C8124 C 0.31865 0.57761 0.99157 0.0
C8125 C 0.28519 0.57678 1.00474 0.0
C8126 C 0.32386 0.56349 0.99816 0.0
C8127 C 0.33053 0.55184 0.98807 0.0
C8128 C 0.33214 0.55439 0.97134 0.0
C8129 C 0.32594 0.56808 0.96471 0.0
C8130 C 0.31937 0.57977 0.97482 0.0
H8131 H 0.27302 0.57899 1.00997 0.0
H8132 H 0.28432 0.57529 0.99137 0.0
H8133 H 0.28903 0.56519 1.00943 0.0
H8134 H 0.32332 0.56179 1.01114 0.0
H8135 H 0.33514 0.54133 0.99346 0.0
H8136 H 0.44237 0.30378 0.06519 0.0
H8137 H 0.4432 0.33166 0.05619 0.0
H8138 H 0.41152 0.31725 1.01768 0.0
H8139 H 0.40852 0.28982 0.02743 0.0
H8140 H 0.46314 0.31862 0.03982 0.0
H8141 H 0.43578 0.34385 0.98875 0.0
H8142 H 0.42453 0.34337 1.00775 0.0
H8143 H 0.42119 0.32738 0.99241 0.0
C8144 C 0.43478 0.30666 0.05534 0.0
C8145 C 0.42665 0.29431 0.04605 0.0
C8146 C 0.43513 0.32269 0.0501 0.0
C8147 C 0.43136 0.32472 0.03376 0.0
C8148 C 0.41794 0.31467 0.02844 0.0
H8149 H 0.46365 0.27313 0.95679 0.0
H8150 H 0.45268 0.28302 0.98257 0.0
C8151 C 0.41636 0.29877 0.03385 0.0
C8152 C 0.44563 0.32502 1.02206 0.0
H8153 H 0.45105 0.31786 0.98149 0.0
C8154 C 0.46009 0.31853 0.02715 0.0
C8155 C 0.44345 0.32624 1.00518 0.0
C8156 C 0.43044 0.33581 0.99833 0.0
C8157 C 0.46957 0.30956 1.01649 0.0
C8158 C 0.46564 0.30862 1.00003 0.0
C8159 C 0.45333 0.31778 0.99438 0.0
C8160 C 0.47416 0.29834 0.98832 0.0
C8161 C 0.4828 0.30009 1.02316 0.0
C8162 C 0.49046 0.30227 0.98418 0.0
C8163 C 0.49694 0.29609 0.96976 0.0
C8164 C 0.48684 0.28665 0.95916 0.0
C8165 C 0.47163 0.28035 0.9648 0.0
C8166 C 0.46522 0.28635 0.97932 0.0
H8167 H 0.48176 0.29906 0.03654 0.0
H8168 H 0.48249 0.28764 1.01766 0.0
H8169 H 0.49477 0.30632 1.02015 0.0
H8170 H 0.49755 0.31149 0.99104 0.0
H8171 H 0.50875 0.30103 0.9656 0.0
H8172 H 0.82528 0.5063 0.03458 0.0
H8173 H 0.83608 0.53282 0.02518 0.0
H8174 H 0.79583 0.5341 0.99307 0.0
H8175 H 0.7853 0.50754 1.00198 0.0
H8176 H 0.84223 0.52847 0.98939 0.0
H8177 H 0.80869 0.58284 1.00486 0.0
H8178 H 0.81176 0.56727 1.01933 0.0
H8179 H 0.79654 0.56389 1.00422 0.0
C8180 C 0.81826 0.51272 0.02622 0.0
C8181 C 0.80476 0.50475 1.0186 0.0
C8182 C 0.8245 0.52779 1.02083 0.0
C8183 C 0.8169 0.53517 1.00828 0.0
C8184 C 0.80182 0.52857 1.00286 0.0
H8185 H 0.80767 0.55198 0.92258 0.0
H8186 H 0.82401 0.54279 0.94391 0.0
C8187 C 0.79572 0.51339 1.00804 0.0
C8188 C 0.82622 0.54665 0.99776 0.0
H8189 H 0.81965 0.58084 0.97797 0.0
C8190 C 0.8379 0.5403 0.98719 0.0
C8191 C 0.8208 0.56207 0.99512 0.0
C8192 C 0.80885 0.56955 1.00656 0.0
C8193 C 0.8424 0.54801 0.97269 0.0
C8194 C 0.83497 0.56226 0.96888 0.0
C8195 C 0.82532 0.56981 0.98072 0.0
C8196 C 0.83291 0.56696 0.95198 0.0
C8197 C 0.85382 0.54003 0.96097 0.0
C8198 C 0.83345 0.58349 0.94847 0.0
C8199 C 0.82336 0.58879 0.93677 0.0
C8200 C 0.81318 0.57761 0.92796 0.0
C8201 C 0.81505 0.56096 0.92939 0.0
C8202 C 0.82476 0.55564 0.94146 0.0
H8203 H 0.86368 0.53481 0.96762 0.0
H8204 H 0.84713 0.52985 0.9544 0.0
H8205 H 0.85926 0.54871 0.952 0.0
H8206 H 0.83973 0.59242 0.95636 0.0
H8207 H 0.82234 0.60166 0.93599 0.0
H8208 H 0.70427 0.77002 0.97087 0.0
H8209 H 0.67995 0.77437 0.95617 0.0
H8210 H 0.65224 0.7734 1.00109 0.0
H8211 H 0.67689 0.7697 1.01582 0.0
H8212 H 0.63495 0.76334 0.97342 0.0
H8213 H 0.66944 0.82276 0.96357 0.0
H8214 H 0.67936 0.80456 0.95816 0.0
H8215 H 0.67429 0.80895 0.97894 0.0
C8216 C 0.69284 0.76964 0.97758 0.0
C8217 C 0.69257 0.77174 0.99455 0.0
C8218 C 0.679 0.7726 0.96912 0.0
C8219 C 0.6647 0.77553 0.97776 0.0
C8220 C 0.66347 0.772 0.99432 0.0
H8221 H 0.57352 0.79764 0.95905 0.0
H8222 H 0.59767 0.80898 0.97191 0.0
C8223 C 0.6775 0.7693 1.00269 0.0
C8224 C 0.65181 0.78389 0.97018 0.0
H8225 H 0.64273 0.82007 0.9545 0.0
C8226 C 0.6366 0.77573 0.9693 0.0
C8227 C 0.65417 0.80012 0.96486 0.0
C8228 C 0.67018 0.80975 0.9664 0.0
C8229 C 0.62362 0.78314 0.96295 0.0
C8230 C 0.62579 0.79948 0.95785 0.0
C8231 C 0.64107 0.80771 0.95867 0.0
C8232 C 0.61251 0.80723 0.95018 0.0
C8233 C 0.60795 0.77297 0.96116 0.0
C8234 C 0.61235 0.80662 0.9332 0.0
C8235 C 0.59805 0.80116 0.92559 0.0
C8236 C 0.58469 0.7956 0.93526 0.0
C8237 C 0.58367 0.80139 0.95134 0.0
C8238 C 0.59775 0.80774 0.95881 0.0
H8239 H 0.60936 0.76004 0.96357 0.0
H8240 H 0.59863 0.77735 0.96975 0.0
H8241 H 0.60372 0.77361 0.94866 0.0
H8242 H 0.62359 0.80708 0.92617 0.0
H8243 H 0.59865 0.79787 0.9128 0.0
H8244 H 0.80303 0.71086 0.10043 0.0
H8245 H 0.79224 0.68944 0.08204 0.0
H8246 H 0.78541 0.65746 0.1226 0.0
H8247 H 0.7964 0.67867 0.1405 0.0
H8248 H 0.81281 0.66839 0.07788 0.0
H8249 H 0.75875 0.6322 0.0913 0.0
H8250 H 0.76038 0.65305 0.09826 0.0
H8251 H 0.7654 0.63701 0.11136 0.0
C8252 C 0.7981 0.69961 0.10552 0.0
C8253 C 0.80159 0.69589 0.12156 0.0
C8254 C 0.79204 0.68727 0.09493 0.0
C8255 C 0.78873 0.67151 0.10067 0.0
C8256 C 0.78805 0.66935 0.11759 0.0
H8257 H 0.84677 0.62846 0.12707 0.0
H8258 H 0.83752 0.6388 0.10248 0.0
C8259 C 0.79426 0.68166 0.12805 0.0
C8260 C 0.79163 0.65712 0.09002 0.0
H8261 H 0.78607 0.61714 0.09796 0.0
C8262 C 0.80657 0.65707 0.08157 0.0
C8263 C 0.78323 0.64208 0.09302 0.0
C8264 C 0.76591 0.64121 0.09881 0.0
C8265 C 0.81488 0.64284 0.08029 0.0
C8266 C 0.80853 0.62891 0.0885 0.0
C8267 C 0.79188 0.62804 0.09278 0.0
C8268 C 0.81941 0.61883 0.09767 0.0
C8269 C 0.83105 0.64336 0.07162 0.0
C8270 C 0.81392 0.6032 0.10271 0.0
C8271 C 0.81905 0.59752 0.11743 0.0
C8272 C 0.82985 0.60735 0.12698 0.0
C8273 C 0.83826 0.62077 0.11999 0.0
C8274 C 0.83281 0.62673 0.10564 0.0
H8275 H 0.82946 0.64709 0.05901 0.0
H8276 H 0.83952 0.65271 0.07741 0.0
H8277 H 0.83637 0.63139 0.07133 0.0
H8278 H 0.80404 0.59645 0.0966 0.0
H8279 H 0.8126 0.5869 0.12254 0.0
H8280 H 0.4863 0.83651 0.10584 0.0
H8281 H 0.51305 0.84158 0.11429 0.0
H8282 H 0.52911 0.80533 0.08003 0.0
H8283 H 0.50106 0.79915 0.07183 0.0
H8284 H 0.52284 0.79239 0.10709 0.0
H8285 H 0.558 0.84928 0.12111 0.0
H8286 H 0.53839 0.85234 0.1297 0.0
H8287 H 0.54083 0.84958 0.10811 0.0
C8288 C 0.49543 0.83003 0.09928 0.0
C8289 C 0.4914 0.81686 0.08855 0.0
C8290 C 0.51116 0.83336 0.10397 0.0
C8291 C 0.52296 0.82309 0.09856 0.0
C8292 C 0.51983 0.81288 0.08486 0.0
H8293 H 0.59578 0.78398 0.14102 0.0
H8294 H 0.57416 0.79486 0.12632 0.0
C8295 C 0.50381 0.80898 0.08051 0.0
C8296 C 0.5329 0.81718 0.11135 0.0
H8297 H 0.55604 0.82889 0.14375 0.0
C8298 C 0.53039 0.80053 0.11472 0.0
C8299 C 0.5418 0.82771 0.12227 0.0
C8300 C 0.54487 0.8457 0.11995 0.0
C8301 C 0.53732 0.79403 0.12794 0.0
C8302 C 0.54667 0.80446 0.13826 0.0
C8303 C 0.54842 0.82115 0.13578 0.0
C8304 C 0.55884 0.79781 0.14769 0.0
C8305 C 0.53561 0.77586 0.12991 0.0
C8306 C 0.55709 0.79624 0.16444 0.0
C8307 C 0.56933 0.7896 0.17276 0.0
C8308 C 0.58283 0.78433 0.16418 0.0
C8309 C 0.58483 0.78686 0.14759 0.0
C8310 C 0.5727 0.79327 0.13929 0.0
H8311 H 0.5229 0.77114 0.12783 0.0
H8312 H 0.5434 0.77001 0.12066 0.0
H8313 H 0.53926 0.77225 0.14204 0.0
H8314 H 0.54648 0.8002 0.17094 0.0
H8315 H 0.56855 0.78911 0.18581 0.0
H8316 H 0.68527 0.29143 0.08136 0.0
H8317 H 0.66579 0.30955 0.09203 0.0
H8318 H 0.65376 0.3217 0.04346 0.0
H8319 H 0.67439 0.30403 0.03296 0.0
H8320 H 0.64438 0.33441 0.09123 0.0
H8321 H 0.6222 0.28185 0.05208 0.0
H8322 H 0.6436 0.28368 0.05586 0.0
H8323 H 0.63458 0.29839 0.04388 0.0
C8324 C 0.67913 0.29854 0.07294 0.0
C8325 C 0.67949 0.29494 0.0563 0.0
C8326 C 0.66805 0.30916 0.07904 0.0
C8327 C 0.65726 0.31563 0.06841 0.0
C8328 C 0.66128 0.31591 0.05185 0.0
H8329 H 0.57855 0.29663 0.136 0.0
H8330 H 0.58705 0.30536 0.10958 0.0
C8331 C 0.67266 0.3055 0.04581 0.0
C8332 C 0.64017 0.31478 0.07391 0.0
H8333 H 0.61171 0.28312 0.07845 0.0
C8334 C 0.63659 0.32374 0.08803 0.0
C8335 C 0.62998 0.30077 0.06963 0.0
C8336 C 0.63271 0.29061 0.0545 0.0
C8337 C 0.6252 0.31742 0.0994 0.0
C8338 C 0.61681 0.30222 0.09603 0.0
C8339 C 0.61842 0.29468 0.08087 0.0
C8340 C 0.60898 0.29272 0.1091 0.0
C8341 C 0.62371 0.32594 0.11573 0.0
C8342 C 0.61767 0.28117 0.11669 0.0
C8343 C 0.61303 0.27613 0.13221 0.0
C8344 C 0.60007 0.28319 0.14043 0.0
C8345 C 0.58941 0.29171 0.131 0.0
C8346 C 0.59415 0.29687 0.11563 0.0
H8347 H 0.63122 0.33762 0.11639 0.0
H8348 H 0.61087 0.3284 0.11829 0.0
H8349 H 0.62756 0.318 0.12538 0.0
H8350 H 0.62893 0.27736 0.11136 0.0
H8351 H 0.62086 0.26847 0.13841 0.0
H8352 H 0.05287 0.81727 0.64761 0.0
H8353 H 0.02991 0.80636 0.6321 0.0
H8354 H 0.9991 0.80924 0.67471 0.0
H8355 H 1.02222 0.81931 0.69045 0.0
H8356 H 0.98425 0.79518 0.64249 0.0
H8357 H 1.01675 0.85649 0.64026 0.0
H8358 H 0.02855 0.83919 0.6373 0.0
H8359 H 1.01897 0.84339 0.65673 0.0
C8360 C 0.04153 0.81427 0.65403 0.0
C8361 C 0.03849 0.821 0.6695 0.0
C8362 C 0.02833 0.80796 0.6451 0.0
C8363 C 1.01274 0.80866 0.65204 0.0
C8364 C 1.01103 0.80959 0.66896 0.0
H8365 H 0.92515 0.84831 0.62082 0.0
H8366 H 0.94753 0.84348 0.63837 0.0
C8367 C 0.02429 0.81554 0.67794 0.0
C8368 C 1.00059 0.8165 0.64284 0.0
H8369 H 0.99238 0.85336 0.62823 0.0
C8370 C 0.98598 0.80788 0.63938 0.0
C8371 C 1.00284 0.8332 0.63901 0.0
C8372 C 1.01765 0.84366 0.64352 0.0
C8373 C 0.97363 0.81548 0.63188 0.0
C8374 C 0.97616 0.83206 0.62771 0.0
C8375 C 0.99064 0.84066 0.63137 0.0
C8376 C 0.96457 0.8405 0.61841 0.0
C8377 C 0.95874 0.80512 0.62741 0.0
C8378 C 0.96774 0.84342 0.60192 0.0
C8379 C 0.95489 0.84647 0.59198 0.0
C8380 C 0.93907 0.84486 0.59863 0.0
C8381 C 0.93717 0.84789 0.61539 0.0
C8382 C 0.9498 0.84459 0.62546 0.0
H8383 H 0.95614 0.79517 0.6361 0.0
H8384 H 0.94788 0.81214 0.62676 0.0
H8385 H 0.96137 0.79939 0.61546 0.0
H8386 H 0.97947 0.84132 0.59645 0.0
H8387 H 0.95681 0.84557 0.57897 0.0
H8388 H 0.28764 0.07432 0.62399 0.0
H8389 H 0.30182 0.05323 0.60901 0.0
H8390 H 0.30397 0.02615 0.65279 0.0
H8391 H 0.29036 0.04731 0.66787 0.0
H8392 H 0.33371 0.03729 0.61811 0.0
H8393 H 0.27639 0.99761 0.61689 0.0
H8394 H 0.27662 1.01916 0.62141 0.0
H8395 H 0.28318 1.00563 0.63622 0.0
C8396 C 0.29168 0.06416 0.63047 0.0
C8397 C 0.28791 0.06231 0.64698 0.0
C8398 C 0.29958 0.0521 0.62193 0.0
C8399 C 0.30366 0.03819 0.62988 0.0
C8400 C 0.30075 0.0368 0.64653 0.0
H8401 H 0.33256 0.94861 0.58102 0.0
H8402 H 0.32388 0.96719 0.60284 0.0
C8403 C 0.293 0.04885 0.65506 0.0
C8404 C 0.31018 1.02468 0.62061 0.0
H8405 H 0.29931 0.98744 0.60394 0.0
C8406 C 0.32629 0.02633 0.61507 0.0
C8407 C 0.30043 1.01036 0.61703 0.0
C8408 C 0.28313 1.00803 0.62308 0.0
C8409 C 0.33284 1.01408 0.60552 0.0
C8410 C 0.32278 1.00017 0.60112 0.0
C8411 C 0.3069 0.99819 0.60733 0.0
C8412 C 0.3278 0.98871 0.58843 0.0
C8413 C 0.35037 1.01629 0.60001 0.0
C8414 C 0.332 0.99463 0.57309 0.0
C8415 C 0.33734 0.98425 0.56101 0.0
C8416 C 0.33837 0.96769 0.56395 0.0
C8417 C 0.33279 0.96148 0.57886 0.0
C8418 C 0.32767 0.972 0.59117 0.0
H8419 H 0.35764 1.0239 0.60887 0.0
H8420 H 0.35587 1.00446 0.59828 0.0
H8421 H 0.35114 1.02263 0.58829 0.0
H8422 H 0.33141 1.00738 0.57053 0.0
H8423 H 0.34117 0.9894 0.54954 0.0
H8424 H 0.1777 0.34593 0.6487 0.0
H8425 H 0.19304 0.33616 0.62485 0.0
H8426 H 0.16911 0.28837 0.62977 0.0
H8427 H 0.15341 0.29801 0.65227 0.0
H8428 H 0.21446 0.31513 0.62492 0.0
H8429 H 0.16642 0.2899 0.58341 0.0
H8430 H 0.1616 0.30177 0.60118 0.0
H8431 H 0.165 0.28052 0.60274 0.0
C8432 C 0.17539 0.33356 0.64419 0.0
C8433 C 0.16424 0.32284 0.65211 0.0
C8434 C 0.18415 0.32795 0.63076 0.0
C8435 C 0.18209 0.31155 0.62554 0.0
C8436 C 0.17057 0.30111 0.63319 0.0
H8437 H 0.20371 0.31351 0.53327 0.0
H8438 H 0.21668 0.29801 0.55337 0.0
C8439 C 0.16159 0.30674 0.64615 0.0
C8440 C 0.19284 0.30508 0.61294 0.0
H8441 H 0.19317 0.28661 0.57573 0.0
C8442 C 0.2096 0.30913 0.61406 0.0
C8443 C 0.18687 0.2959 0.59929 0.0
C8444 C 0.169 0.29188 0.5965 0.0
C8445 C 0.21966 0.30755 0.60036 0.0
C8446 C 0.21241 0.3022 0.58579 0.0
C8447 C 0.19785 0.29249 0.58674 0.0
C8448 C 0.21137 0.31439 0.57332 0.0
C8449 C 0.23662 0.31533 0.60044 0.0
C8450 C 0.20391 0.32876 0.5779 0.0
C8451 C 0.19582 0.33715 0.56658 0.0
C8452 C 0.19584 0.33193 0.5505 0.0
C8453 C 0.20367 0.31789 0.54576 0.0
C8454 C 0.21157 0.3093 0.55705 0.0
H8455 H 0.24272 0.31245 0.61176 0.0
H8456 H 0.2438 0.31123 0.58975 0.0
H8457 H 0.23615 0.32872 0.60014 0.0
H8458 H 0.20284 0.33259 0.59051 0.0
H8459 H 0.18901 0.34732 0.57037 0.0
H8460 H 0.80694 0.03379 0.71492 0.0
H8461 H 0.78738 0.05234 0.70627 0.0
H8462 H 0.82631 0.08281 0.6851 0.0
H8463 H 0.84551 0.06325 0.69208 0.0
H8464 H 0.78448 0.09199 0.69469 0.0
H8465 H 0.80318 0.04258 0.6528 0.0
H8466 H 0.80487 0.04149 0.67445 0.0
H8467 H 0.81987 0.05322 0.66287 0.0
C8468 C 0.81134 0.04484 0.709 0.0
C8469 C 0.8276 0.04723 0.7038 0.0
C8470 C 0.8002 0.0556 0.70447 0.0
C8471 C 0.80548 0.06855 0.69474 0.0
C8472 C 0.82214 0.07272 0.69261 0.0
H8473 H 0.82487 0.12908 0.63953 0.0
H8474 H 0.81231 0.10987 0.65864 0.0
C8475 C 0.83318 0.06163 0.69658 0.0
C8476 C 0.79523 0.07247 0.68149 0.0
H8477 H 0.79687 0.0676 0.64055 0.0
C8478 C 0.78647 0.0863 0.68288 0.0
C8479 C 0.79735 0.06457 0.66619 0.0
C8480 C 0.80672 0.04955 0.66401 0.0
C8481 C 0.7823 0.09405 0.66887 0.0
C8482 C 0.78765 0.08794 0.65366 0.0
C8483 C 0.79311 0.07236 0.65234 0.0
C8484 C 0.79467 0.09925 0.64168 0.0
C8485 C 0.77454 0.10998 0.67044 0.0
C8486 C 0.78992 0.09838 0.6255 0.0
C8487 C 0.79737 0.10918 0.61445 0.0
C8488 C 0.80975 0.1206 0.61956 0.0
C8489 C 0.81561 0.12013 0.63528 0.0
C8490 C 0.80801 0.10963 0.64632 0.0
H8491 H 0.76546 0.10969 0.68058 0.0
H8492 H 0.78398 0.11982 0.67323 0.0
H8493 H 0.76857 0.11283 0.65904 0.0
H8494 H 0.7801 0.08988 0.62167 0.0
H8495 H 0.79259 0.10961 0.60238 0.0
H8496 H 0.02803 0.34939 0.46814 0.0
H8497 H 1.00814 0.3425 0.48936 0.0
H8498 H 0.03432 0.30097 0.50087 0.0
H8499 H 0.05512 0.30925 0.48133 0.0
H8500 H 0.99298 0.31528 0.47786 0.0
H8501 H 1.00961 0.30411 0.54146 0.0
H8502 H 1.02283 0.31627 0.52823 0.0
H8503 H 1.02142 0.29449 0.52596 0.0
C8504 C 0.03038 0.33974 0.47623 0.0
C8505 C 0.0422 0.32888 0.47223 0.0
C8506 C 1.01875 0.33551 0.48813 0.0
C8507 C 1.01918 0.32057 0.49588 0.0
C8508 C 0.03344 0.31237 0.4949 0.0
H8509 H 0.93443 0.31335 0.55316 0.0
H8510 H 0.94562 0.29595 0.53157 0.0
C8511 C 0.04555 0.31731 0.48372 0.0
C8512 C 1.00371 0.31211 0.50116 0.0
H8513 H 0.98264 0.29836 0.53438 0.0
C8514 C 0.99081 0.3115 0.49026 0.0
C8515 C 1.00102 0.30576 0.51679 0.0
C8516 C 1.01442 0.30522 0.52882 0.0
C8517 C 0.97486 0.30821 0.49573 0.0
C8518 C 0.97206 0.30535 0.5123 0.0
C8519 C 0.98503 0.30141 0.5218 0.0
C8520 C 0.96077 0.31548 0.52104 0.0
C8521 C 0.96121 0.31125 0.48469 0.0
C8522 C 0.96558 0.33209 0.52209 0.0
C8523 C 0.96023 0.34154 0.5349 0.0
C8524 C 0.94887 0.335 0.54609 0.0
C8525 C 0.94296 0.3187 0.54433 0.0
C8526 C 0.94907 0.30884 0.53194 0.0
H8527 H 0.96285 0.3047 0.47291 0.0
H8528 H 0.94919 0.30739 0.49011 0.0
H8529 H 0.96159 0.32441 0.48214 0.0
H8530 H 0.975 0.33736 0.51409 0.0
H8531 H 0.96564 0.35366 0.53618 0.0
H8532 H 0.83467 1.00224 0.49733 0.0
H8533 H 0.84816 0.98442 0.51336 0.0
H8534 H 0.80315 0.96861 0.53662 0.0
H8535 H 0.78921 0.98884 0.52243 0.0
H8536 H 0.85138 0.96436 0.54248 0.0
H8537 H 0.81302 0.93917 0.49235 0.0
H8538 H 0.81785 0.9607 0.49534 0.0
H8539 H 0.80186 0.95052 0.50711 0.0
C8540 C 0.82734 0.99633 0.50661 0.0
C8541 C 0.81022 0.99659 0.50744 0.0
C8542 C 0.83542 0.9858 0.51579 0.0
C8543 C 0.82649 0.97461 0.52513 0.0
C8544 C 0.81015 0.97698 0.52886 0.0
H8545 H 0.79949 0.94013 0.57103 0.0
H8546 H 0.82721 0.94012 0.56185 0.0
C8547 C 0.80211 0.98833 0.52034 0.0
C8548 C 0.83228 0.95826 0.5254 0.0
H8549 H 0.8233 0.92026 0.51007 0.0
C8550 C 0.84481 0.95473 0.53566 0.0
C8551 C 0.8258 0.94592 0.51464 0.0
C8552 C 0.81407 0.94924 0.50154 0.0
C8553 C 0.84767 0.93839 0.53814 0.0
C8554 C 0.83614 0.92648 0.53211 0.0
C8555 C 0.82952 0.92992 0.51717 0.0
C8556 C 0.82326 0.92039 0.54381 0.0
C8557 C 0.85973 0.93415 0.55037 0.0
C8558 C 0.81175 0.90821 0.53845 0.0
C8559 C 0.79562 0.90876 0.54344 0.0
C8560 C 0.79094 0.92048 0.55489 0.0
C8561 C 0.80274 0.9312 0.56187 0.0
C8562 C 0.81882 0.93081 0.55681 0.0
H8563 H 0.872 0.93909 0.54651 0.0
H8564 H 0.8569 0.9399 0.56232 0.0
H8565 H 0.85981 0.92079 0.55167 0.0
H8566 H 0.81473 0.89978 0.52873 0.0
H8567 H 0.78669 0.90053 0.53772 0.0
H8568 H 0.04603 0.81264 0.41696 0.0
H8569 H 0.0581 0.79135 0.43216 0.0
H8570 H 0.04733 0.81722 0.47696 0.0
H8571 H 0.03482 0.8374 0.46208 0.0
H8572 H 0.08364 0.79882 0.44699 0.0
H8573 H 0.04333 0.77339 0.49418 0.0
H8574 H 0.03538 0.78203 0.47634 0.0
H8575 H 0.03958 0.79444 0.49436 0.0
C8576 C 0.04598 0.81331 0.43009 0.0
C8577 C 0.03972 0.82649 0.43852 0.0
C8578 C 0.05255 0.80113 0.43874 0.0
C8579 C 0.05315 0.80236 0.45576 0.0
C8580 C 0.04638 0.81544 0.46397 0.0
H8581 H 0.12717 0.82919 0.50827 0.0
H8582 H 0.0987 0.82173 0.50251 0.0
C8583 C 0.03961 0.82729 0.45541 0.0
C8584 C 0.06461 0.7934 0.46474 0.0
H8585 H 0.07077 0.78629 0.50457 0.0
C8586 C 0.08079 0.79534 0.45937 0.0
C8587 C 0.06095 0.78848 0.48079 0.0
C8588 C 0.04379 0.78432 0.48658 0.0
C8589 C 0.0933 0.79549 0.47034 0.0
C8590 C 0.08939 0.79329 0.48695 0.0
C8591 C 0.07349 0.78878 0.49193 0.0
C8592 C 0.10209 0.79612 0.49888 0.0
C8593 C 0.11052 0.79935 0.46427 0.0
C8594 C 0.11276 0.78399 0.50009 0.0
C8595 C 0.12903 0.78827 0.50222 0.0
C8596 C 0.13476 0.80474 0.50424 0.0
C8597 C 0.12335 0.81651 0.50622 0.0
C8598 C 0.107 0.81221 0.50338 0.0
H8599 H 0.1113 0.80071 0.45092 0.0
H8600 H 0.1156 0.81081 0.47007 0.0
H8601 H 0.11825 0.78951 0.46747 0.0
H8602 H 0.10911 0.77157 0.49647 0.0
H8603 H 0.13705 0.77863 0.50002 0.0
H8604 H 0.32615 0.2177 0.54518 0.0
H8605 H 0.30378 0.21282 0.52697 0.0
H8606 H 0.31498 0.16259 0.52233 0.0
H8607 H 0.33628 0.16745 0.54189 0.0
H8608 H 0.32301 0.21011 0.5034 0.0
H8609 H 0.27804 0.16023 0.49297 0.0
H8610 H 0.28094 0.16902 0.5131 0.0
H8611 H 0.29198 0.15189 0.50615 0.0
C8612 C 0.32282 0.20542 0.54143 0.0
C8613 C 0.33282 0.193 0.54475 0.0
C8614 C 0.30989 0.20251 0.53104 0.0
C8615 C 0.30834 0.18762 0.52244 0.0
C8616 C 0.31617 0.1744 0.52834 0.0
H8617 H 0.34643 0.13742 0.44965 0.0
H8618 H 0.33444 0.15061 0.47353 0.0
C8619 C 0.32866 0.17719 0.53932 0.0
C8620 C 0.30717 0.18813 0.50462 0.0
H8621 H 0.30394 0.15931 0.47452 0.0
C8622 C 0.31837 0.19922 0.49693 0.0
C8623 C 0.30066 0.17452 0.4957 0.0
C8624 C 0.2871 0.1634 0.50247 0.0
C8625 C 0.32615 0.19505 0.48241 0.0
C8626 C 0.32155 0.17996 0.47481 0.0
C8627 C 0.30804 0.17047 0.48085 0.0
C8628 C 0.33132 0.17317 0.46148 0.0
C8629 C 0.34029 0.20612 0.47647 0.0
C8630 C 0.33475 0.18197 0.44741 0.0
C8631 C 0.3428 0.17494 0.43437 0.0
C8632 C 0.34635 0.15859 0.43477 0.0
C8633 C 0.34418 0.15018 0.44928 0.0
C8634 C 0.3368 0.15752 0.46265 0.0
H8635 H 0.34515 0.21448 0.48624 0.0
H8636 H 0.3504 0.19916 0.4716 0.0
H8637 H 0.33615 0.21369 0.46668 0.0
H8638 H 0.33034 0.19389 0.44607 0.0
H8639 H 0.34393 0.18144 0.42311 0.0
H8640 H 0.64292 0.05111 0.83815 0.0
H8641 H 0.63346 0.02885 0.81978 0.0
H8642 H 0.67842 1.00619 0.82536 0.0
H8643 H 0.68818 0.02881 0.84315 0.0
H8644 H 0.65221 1.01136 0.78961 0.0
H8645 H 0.6364 0.97789 0.84645 0.0
H8646 H 0.63824 0.99979 0.84671 0.0
H8647 H 0.65597 0.98867 0.84387 0.0
C8648 C 0.65103 0.04184 0.83467 0.0
C8649 C 0.66627 0.04171 0.84156 0.0
C8650 C 0.64563 0.02912 0.82443 0.0
C8651 C 0.65542 1.01617 0.82129 0.0
C8652 C 0.67094 1.01631 0.82761 0.0
H8653 H 0.60001 0.92812 0.79058 0.0
H8654 H 0.62366 0.94501 0.79971 0.0
C8655 C 0.67638 0.0291 0.83774 0.0
C8656 C 0.64828 1.00159 0.81341 0.0
H8657 H 0.62436 0.96787 0.82248 0.0
C8658 C 0.64646 1.00154 0.79662 0.0
C8659 C 0.64105 0.98893 0.82281 0.0
C8660 C 0.64293 0.98869 0.84097 0.0
C8661 C 0.63649 0.9895 0.78899 0.0
C8662 C 0.62796 0.97773 0.79863 0.0
C8663 C 0.63091 0.97705 0.81523 0.0
C8664 C 0.61435 0.96749 0.79235 0.0
C8665 C 0.63463 0.9899 0.77085 0.0
C8666 C 0.60125 0.97475 0.78574 0.0
C8667 C 0.58794 0.96515 0.78037 0.0
C8668 C 0.58743 0.94834 0.78206 0.0
C8669 C 0.60021 0.94117 0.78934 0.0
C8670 C 0.61371 0.9507 0.79437 0.0
H8671 H 0.64595 0.99504 0.76488 0.0
H8672 H 0.63152 0.97759 0.76557 0.0
H8673 H 0.62483 0.99786 0.76809 0.0
H8674 H 0.60137 0.9878 0.78465 0.0
H8675 H 0.5784 0.97082 0.77437 0.0
H8676 H 0.07073 0.65866 0.77217 0.0
H8677 H 0.07467 0.6306 0.77893 0.0
H8678 H 0.12484 0.63747 0.76392 0.0
H8679 H 0.1206 0.66487 0.75604 0.0
H8680 H 0.11821 0.60692 0.76844 0.0
H8681 H 0.09783 0.64306 0.82116 0.0
H8682 H 0.08394 0.64239 0.80468 0.0
H8683 H 0.10463 0.65058 0.80201 0.0
C8684 C 0.08217 0.6537 0.769 0.0
C8685 C 0.09557 0.66407 0.76438 0.0
C8686 C 0.0845 0.63772 0.77307 0.0
C8687 C 0.10028 0.63245 0.77301 0.0
C8688 C 0.11264 0.64146 0.76461 0.0
H8689 H 0.16111 0.62045 0.84215 0.0
H8690 H 0.13544 0.6246 0.8301 0.0
C8691 C 0.11015 0.65721 0.75998 0.0
C8692 C 0.1049 0.62113 0.78551 0.0
H8693 H 0.106 0.61781 0.82662 0.0
C8694 C 0.11502 0.60877 0.78113 0.0
C8695 C 0.10216 0.62475 0.80221 0.0
C8696 C 0.09668 0.64101 0.8079 0.0
C8697 C 0.12278 0.60031 0.79292 0.0
C8698 C 0.11933 0.60351 0.80961 0.0
C8699 C 0.10809 0.61488 0.81388 0.0
C8700 C 0.13061 0.59938 0.82234 0.0
C8701 C 0.13593 0.58953 0.7873 0.0
C8702 C 0.13549 0.58356 0.82387 0.0
C8703 C 0.15044 0.58128 0.83075 0.0
C8704 C 0.16028 0.59477 0.83623 0.0
C8705 C 0.15372 0.60989 0.8379 0.0
C8706 C 0.13904 0.61226 0.83078 0.0
H8707 H 0.13926 0.59128 0.77437 0.0
H8708 H 0.14712 0.59221 0.79429 0.0
H8709 H 0.1317 0.57661 0.7889 0.0
H8710 H 0.12881 0.57333 0.81807 0.0
H8711 H 0.15518 0.56941 0.82992 0.0
H8712 H 0.45567 0.08472 0.8382 0.0
H8713 H 0.4738 0.1063 0.82757 0.0
H8714 H 0.46274 0.08964 0.77874 0.0
H8715 H 0.44342 0.06827 0.78969 0.0
H8716 H 0.50011 0.09764 0.80763 0.0
H8717 H 0.46078 0.14068 0.77916 0.0
H8718 H 0.45315 0.1267 0.79449 0.0
H8719 H 0.45736 0.11932 0.77432 0.0
C8720 C 0.45691 0.08579 0.82525 0.0
C8721 C 0.44833 0.07509 0.81468 0.0
C8722 C 0.46717 0.09811 0.8192 0.0
C8723 C 0.46928 0.09954 0.80247 0.0
C8724 C 0.46084 0.08875 0.79172 0.0
H8725 H 0.54249 0.1482 0.74877 0.0
H8726 H 0.51998 0.13174 0.75982 0.0
C8727 C 0.45017 0.07652 0.79789 0.0
C8728 C 0.48196 0.1111 0.79674 0.0
H8729 H 0.48921 0.14702 0.77785 0.0
C8730 C 0.49775 0.10854 0.80125 0.0
C8731 C 0.47856 0.12512 0.78847 0.0
C8732 C 0.46154 0.12827 0.78386 0.0
C8733 C 0.51044 0.11987 0.79782 0.0
C8734 C 0.50716 0.13381 0.78941 0.0
C8735 C 0.49139 0.13637 0.78468 0.0
C8736 C 0.52043 0.14432 0.78312 0.0
C8737 C 0.52735 0.11649 0.80253 0.0
C8738 C 0.528 0.15671 0.79277 0.0
C8739 C 0.54122 0.16606 0.78645 0.0
C8740 C 0.54705 0.16257 0.77077 0.0
C8741 C 0.53913 0.15033 0.76123 0.0
C8742 C 0.52595 0.14119 0.76738 0.0
H8743 H 0.52721 0.1068 0.8116 0.0
H8744 H 0.53414 0.11248 0.79155 0.0
H8745 H 0.53386 0.12758 0.80768 0.0
H8746 H 0.52364 0.15912 0.80501 0.0
H8747 H 0.54681 0.176 0.79365 0.0
H8748 H 0.05857 0.46148 0.78554 0.0
H8749 H 0.05986 0.49103 0.7873 0.0
H8750 H 1.01962 0.49109 0.75503 0.0
H8751 H 1.01796 0.46147 0.75372 0.0
H8752 H 0.05534 0.52289 0.77176 0.0
H8753 H 1.00124 0.49326 0.8031 0.0
H8754 H 1.01692 0.48176 0.79405 0.0
H8755 H 1.00192 0.48966 0.78156 0.0
C8756 C 0.05078 0.46785 0.77789 0.0
C8757 C 0.03781 0.45932 0.76998 0.0
C8758 C 0.0515 0.48477 0.77894 0.0
C8759 C 0.03943 0.49311 0.77181 0.0
C8760 C 0.02889 0.48476 0.76082 0.0
H8761 H 0.98551 0.56059 0.77741 0.0
H8762 H 1.01425 0.55902 0.77563 0.0
C8763 C 0.02801 0.4678 0.75997 0.0
C8764 C 0.03441 0.50813 0.77998 0.0
H8765 H 1.00409 0.5215 0.80414 0.0
C8766 C 0.04416 0.5227 0.77887 0.0
C8767 C 1.02019 0.50763 0.78986 0.0
C8768 C 1.00951 0.49223 0.79237 0.0
C8769 C 0.03926 0.53715 0.78634 0.0
C8770 C 0.02465 0.53674 0.79557 0.0
C8771 C 1.01555 0.52188 0.79744 0.0
C8772 C 1.01626 0.55146 0.80031 0.0
C8773 C 0.04934 0.55282 0.78386 0.0
C8774 C 1.00862 0.55164 0.81575 0.0
C8775 C 0.9918 0.55263 0.81685 0.0
C8776 C 0.98311 0.55426 0.80263 0.0
C8777 C 0.99175 0.55915 0.78852 0.0
C8778 C 1.00848 0.55831 0.78754 0.0
H8779 H 0.06209 0.5506 0.78049 0.0
H8780 H 0.04422 0.55944 0.77386 0.0
H8781 H 0.04914 0.56071 0.79496 0.0
H8782 H 1.01468 0.54713 0.82604 0.0
H8783 H 0.98554 0.54931 0.82808 0.0
H8784 H 0.66436 0.08319 0.3332 0.0
H8785 H 0.64005 0.08663 0.31827 0.0
H8786 H 0.63729 0.13444 0.33985 0.0
H8787 H 0.66328 0.13199 0.35269 0.0
H8788 H 0.61273 0.09593 0.31083 0.0
H8789 H 0.6571 0.14835 0.29888 0.0
H8790 H 0.6608 0.13382 0.31375 0.0
H8791 H 0.64746 0.1498 0.31839 0.0
C8792 C 0.65804 0.09411 0.33561 0.0
C8793 C 0.66628 0.10785 0.34286 0.0
C8794 C 0.6441 0.09612 0.32686 0.0
C8795 C 0.63773 0.11143 0.32682 0.0
C8796 C 0.64282 0.12297 0.33884 0.0
H8797 H 0.58142 0.15733 0.26849 0.0
H8798 H 0.58605 0.13027 0.27676 0.0
C8799 C 0.65752 0.12144 0.34654 0.0
C8800 C 0.63016 0.11663 0.31179 0.0
H8801 H 0.63475 0.14524 0.28285 0.0
C8802 C 0.61761 0.10666 0.30461 0.0
C8803 C 0.63684 0.13036 0.30327 0.0
C8804 C 0.65136 0.14108 0.30887 0.0
C8805 C 0.61146 0.11017 0.28939 0.0
C8806 C 0.61776 0.12421 0.28134 0.0
C8807 C 0.63018 0.13413 0.28861 0.0
C8808 C 0.6105 0.13067 0.26672 0.0
C8809 C 0.59838 0.09881 0.28209 0.0
C8810 C 0.62117 0.13849 0.25535 0.0
C8811 C 0.619 0.15462 0.25164 0.0
C8812 C 0.60559 0.16202 0.2584 0.0
C8813 C 0.59229 0.15196 0.26396 0.0
C8814 C 0.59492 0.13626 0.26868 0.0
H8815 H 0.59966 0.08611 0.28573 0.0
H8816 H 0.58638 0.10237 0.28667 0.0
H8817 H 0.59862 0.09921 0.26865 0.0
H8818 H 0.63297 0.13393 0.25287 0.0
H8819 H 0.62917 0.16193 0.24658 0.0
H8820 H 0.05803 0.64246 0.27092 0.0
H8821 H 0.03638 0.6227 0.27942 0.0
H8822 H 1.00322 0.66074 0.28425 0.0
H8823 H 0.0248 0.68061 0.27568 0.0
H8824 H 1.0152 0.62144 0.30733 0.0
H8825 H 0.98296 0.62857 0.24972 0.0
H8826 H 1.00362 0.63652 0.25263 0.0
H8827 H 0.9871 0.64679 0.26173 0.0
C8828 C 0.04626 0.64668 0.27423 0.0
C8829 C 0.0429 0.66294 0.27238 0.0
C8830 C 0.03392 0.63539 0.27895 0.0
C8831 C 1.01825 0.64034 0.28198 0.0
C8832 C 1.01522 0.65677 0.28154 0.0
H8833 H 0.92851 0.59026 0.30692 0.0
H8834 H 0.94929 0.60888 0.29509 0.0
C8835 C 0.02752 0.66805 0.27676 0.0
C8836 C 1.00498 0.62811 0.28493 0.0
H8837 H 0.97044 0.61043 0.26859 0.0
C8838 C 1.00542 0.61894 0.29888 0.0
C8839 C 0.99231 0.62513 0.27381 0.0
C8840 C 0.99146 0.63467 0.25856 0.0
C8841 C 0.99331 0.6068 0.30217 0.0
C8842 C 0.98084 0.60355 0.29084 0.0
C8843 C 0.98029 0.61284 0.27697 0.0
C8844 C 0.96759 0.59134 0.29398 0.0
C8845 C 0.99371 0.59794 0.31793 0.0
C8846 C 0.97081 0.57511 0.29607 0.0
C8847 C 0.9591 0.56456 0.30325 0.0
C8848 C 0.94412 0.57026 0.30817 0.0
C8849 C 0.94022 0.58582 0.30384 0.0
C8850 C 0.95199 0.59641 0.29694 0.0
H8851 H 1.00191 0.60447 0.32678 0.0
H8852 H 0.9814 0.59635 0.32358 0.0
H8853 H 0.99818 0.58572 0.31553 0.0
H8854 H 0.98275 0.57099 0.29336 0.0
H8855 H 0.9623 0.55248 0.30614 0.0
H8856 H 0.47649 0.06527 0.2917 0.0
H8857 H 0.5057 0.06465 0.28716 0.0
H8858 H 0.50738 0.03048 0.32553 0.0
H8859 H 0.47818 0.03082 0.32961 0.0
H8860 H 0.54043 0.05024 0.31108 0.0
H8861 H 0.49888 1.01358 0.26986 0.0
H8862 H 0.49621 0.03482 0.27338 0.0
H8863 H 0.4918 1.02067 0.28933 0.0
C8864 C 0.4833 0.05854 0.29981 0.0
C8865 C 0.47514 0.04749 0.31032 0.0
C8866 C 0.50003 0.05826 0.29733 0.0
C8867 C 0.50849 0.04702 0.3056 0.0
C8868 C 0.50094 0.03906 0.31886 0.0
H8869 H 0.55582 0.9721 0.30989 0.0
H8870 H 0.55742 1.00088 0.30963 0.0
C8871 C 0.48418 0.03925 0.32121 0.0
C8872 C 0.52143 0.03872 0.29691 0.0
H8873 H 0.5251 1.00648 0.27105 0.0
C8874 C 0.53737 0.04072 0.30225 0.0
C8875 C 0.51726 0.02675 0.28487 0.0
C8876 C 0.50013 1.02372 0.27897 0.0
C8877 C 0.54908 0.03018 0.29672 0.0
C8878 C 0.54452 1.01729 0.2857 0.0
C8879 C 0.52887 1.01637 0.27933 0.0
C8880 C 0.5536 1.00244 0.28383 0.0
C8881 C 0.56614 0.03286 0.30271 0.0
C8882 C 0.55281 0.99332 0.26914 0.0
C8883 C 0.55084 0.97635 0.26946 0.0
C8884 C 0.5505 0.96858 0.28439 0.0
C8885 C 0.55564 0.97767 0.29822 0.0
C8886 C 0.55688 0.99448 0.29803 0.0
H8887 H 0.56979 0.04601 0.3038 0.0
H8888 H 0.56675 0.02782 0.31499 0.0
H8889 H 0.57492 0.02701 0.29447 0.0
H8890 H 0.55075 0.99924 0.25788 0.0
H8891 H 0.54733 0.96971 0.25846 0.0
H8892 H 0.0804 0.43828 0.30253 0.0
H8893 H 0.10135 0.45631 0.31605 0.0
H8894 H 0.11801 0.47414 0.26937 0.0
H8895 H 0.0962 0.458 0.25652 0.0
H8896 H 0.1351 0.46117 0.3131 0.0
H8897 H 0.10346 0.51391 0.29307 0.0
H8898 H 0.09486 0.49341 0.29075 0.0
H8899 H 0.10947 0.50161 0.27608 0.0
C8900 C 0.08837 0.44644 0.29542 0.0
C8901 C 0.08663 0.44738 0.27869 0.0
C8902 C 0.10045 0.45631 0.30298 0.0
C8903 C 0.11091 0.46655 0.29358 0.0
C8904 C 0.10976 0.46651 0.27675 0.0
H8905 H 0.17743 0.54814 0.3224 0.0
H8906 H 0.1666 0.52464 0.30586 0.0
C8907 C 0.09732 0.45738 0.26944 0.0
C8908 C 0.12177 0.47882 0.30122 0.0
H8909 H 0.12957 0.51947 0.30388 0.0
C8910 C 0.13404 0.47397 0.31105 0.0
C8911 C 0.12001 0.49541 0.29852 0.0
C8912 C 0.10613 0.50138 0.28918 0.0
C8913 C 0.14472 0.48559 0.31845 0.0
C8914 C 0.14307 0.50209 0.31546 0.0
C8915 C 0.13106 0.50678 0.30538 0.0
C8916 C 0.15105 0.5149 0.32526 0.0
C8917 C 0.1572 0.48032 0.32988 0.0
C8918 C 0.14514 0.51721 0.34106 0.0
C8919 C 0.15065 0.53073 0.35 0.0
C8920 C 0.16209 0.54197 0.34322 0.0
C8921 C 0.16816 0.5397 0.32745 0.0
C8922 C 0.16238 0.52622 0.31829 0.0
H8923 H 0.15966 0.46737 0.32776 0.0
H8924 H 0.16873 0.48798 0.32862 0.0
H8925 H 0.15262 0.48182 0.34254 0.0
H8926 H 0.13605 0.50871 0.34634 0.0
H8927 H 0.14628 0.53223 0.36235 0.0
H8928 H 0.81892 0.69354 0.06313 0.0
H8929 H 0.79836 0.68804 0.04268 0.0
H8930 H 0.8327 0.70488 1.00578 0.0
H8931 H 0.85317 0.70972 0.02562 0.0
H8932 H 0.80012 0.69804 0.99446 0.0
H8933 H 0.82337 0.64741 0.02903 0.0
H8934 H 0.81079 0.66164 0.03896 0.0
H8935 H 0.83158 0.66762 0.03349 0.0
C8936 C 0.82199 0.69634 0.05065 0.0
C8937 C 0.83813 0.70053 0.04573 0.0
C8938 C 0.81003 0.69375 0.03909 0.0
C8939 C 0.8145 0.69487 1.02271 0.0
C8940 C 0.82925 0.70322 1.01841 0.0
H8941 H 0.85856 0.65737 0.94808 0.0
H8942 H 0.84684 0.66813 0.97306 0.0
C8943 C 0.84122 0.70564 0.02986 0.0
C8944 C 0.80927 0.68169 1.01137 0.0
H8945 H 0.82465 0.64547 1.00104 0.0
C8946 C 0.8046 0.68614 0.99599 0.0
C8947 C 0.81524 0.66613 1.01346 0.0
C8948 C 0.82049 0.66036 0.02961 0.0
C8949 C 0.80812 0.67653 0.98232 0.0
C8950 C 0.81621 0.66227 0.9844 0.0
C8951 C 0.81869 0.65666 0.99979 0.0
C8952 C 0.82392 0.65411 0.97077 0.0
C8953 C 0.80468 0.68235 0.96566 0.0
C8954 C 0.81509 0.64214 0.96199 0.0
C8955 C 0.82139 0.63643 0.94743 0.0
C8956 C 0.83677 0.64265 0.94138 0.0
C8957 C 0.84647 0.65286 0.9517 0.0
C8958 C 0.83988 0.65892 0.96611 0.0
H8959 H 0.79739 0.69316 0.96617 0.0
H8960 H 0.8163 0.68552 0.9591 0.0
H8961 H 0.79807 0.67247 0.95857 0.0
H8962 H 0.80285 0.63814 0.96576 0.0
H8963 H 0.81313 0.62852 0.94044 0.0
H8964 H 0.81872 0.4723 0.04751 0.0
H8965 H 0.80684 0.49253 0.06591 0.0
H8966 H 0.84341 0.4854 0.10095 0.0
H8967 H 0.8549 0.46595 0.0828 0.0
H8968 H 0.79864 0.48661 0.10359 0.0
H8969 H 0.84576 0.53589 0.08885 0.0
H8970 H 0.84099 0.51891 0.07508 0.0
H8971 H 0.85247 0.51615 0.09284 0.0
C8972 C 0.82393 0.47487 0.05929 0.0
C8973 C 0.83761 0.46715 0.06401 0.0
C8974 C 0.81726 0.48642 0.06966 0.0
C8975 C 0.8245 0.49042 0.08458 0.0
C8976 C 0.83775 0.48242 0.08942 0.0
H8977 H 0.80857 0.56676 0.15769 0.0
H8978 H 0.82154 0.54531 0.14168 0.0
C8979 C 0.84418 0.47095 0.07918 0.0
C8980 C 0.8184 0.50287 0.09542 0.0
H8981 H 0.82733 0.54117 0.11039 0.0
C8982 C 0.80475 0.49861 0.10502 0.0
C8983 C 0.82705 0.51809 0.09764 0.0
C8984 C 0.84237 0.52264 0.08803 0.0
C8985 C 0.79924 0.50944 0.11679 0.0
C8986 C 0.80717 0.52516 0.11833 0.0
C8987 C 0.8212 0.52918 0.10905 0.0
C8988 C 0.8 0.53807 0.12806 0.0
C8989 C 0.78513 0.50379 0.12755 0.0
C8990 C 0.78392 0.54123 0.12536 0.0
C8991 C 0.77662 0.55291 0.13465 0.0
C8992 C 0.78545 0.56238 0.14605 0.0
C8993 C 0.80174 0.55978 0.14852 0.0
C8994 C 0.80904 0.54756 0.13953 0.0
H8995 H 0.78486 0.49049 0.12942 0.0
H8996 H 0.78565 0.51015 0.13955 0.0
H8997 H 0.77369 0.50623 0.1216 0.0
H8998 H 0.77686 0.53447 0.11622 0.0
H8999 H 0.76391 0.55425 0.13307 0.0
H9000 H 0.66158 0.82785 0.03629 0.0
H9001 H 0.65514 0.79923 0.04063 0.0
H9002 H 0.70533 0.79171 0.04618 0.0
H9003 H 0.71188 0.82066 0.04396 0.0
H9004 H 0.65308 0.77703 0.05854 0.0
H9005 H 0.70618 0.80243 0.09152 0.0
H9006 H 0.70588 0.81363 0.07352 0.0
H9007 H 0.7085 0.79186 0.07257 0.0
C9008 C 0.67134 0.82006 0.03821 0.0
C9009 C 0.68713 0.82661 0.04078 0.0
C9010 C 0.66782 0.80352 0.04047 0.0
C9011 C 0.67962 0.79463 0.04773 0.0
C9012 C 0.69573 0.79951 0.0438 0.0
H9013 H 0.63895 0.79153 0.14282 0.0
H9014 H 0.64314 0.78322 0.11537 0.0
C9015 C 0.69959 0.81609 0.04208 0.0
C9016 C 0.67549 0.79029 0.06492 0.0
H9017 H 0.68114 0.81147 0.10074 0.0
C9018 C 0.65937 0.7843 0.0679 0.0
C9019 C 0.6839 0.79856 0.07802 0.0
C9020 C 0.70211 0.80169 0.07876 0.0
C9021 C 0.65036 0.79041 0.08101 0.0
C9022 C 0.65819 0.80115 0.09234 0.0
C9023 C 0.67495 0.80438 0.09117 0.0
C9024 C 0.65001 0.80732 0.10697 0.0
C9025 C 0.63236 0.78627 0.0819 0.0
C9026 C 0.65165 0.82395 0.11127 0.0
C9027 C 0.6491 0.82904 0.12736 0.0
C9028 C 0.64509 0.81751 0.13925 0.0
C9029 C 0.64171 0.80109 0.13428 0.0
C9030 C 0.64412 0.79611 0.11834 0.0
H9031 H 0.62742 0.78403 0.0696 0.0
H9032 H 0.63007 0.77509 0.08891 0.0
H9033 H 0.62577 0.79608 0.08799 0.0
H9034 H 0.65623 0.83276 0.10251 0.0
H9035 H 0.6515 0.84175 0.13064 0.0
H9036 H 0.31375 0.59812 0.10354 0.0
H9037 H 0.30921 0.57943 0.12572 0.0
H9038 H 0.26718 0.60381 0.14161 0.0
H9039 H 0.27154 0.62252 0.12062 0.0
H9040 H 0.31329 0.60993 0.14718 0.0
H9041 H 0.26657 0.56485 0.17234 0.0
H9042 H 0.27128 0.5651 0.15084 0.0
H9043 H 0.26052 0.58112 0.16019 0.0
C9044 C 0.30304 0.59903 0.11121 0.0
C9045 C 0.2941 0.61288 0.11112 0.0
C9046 C 0.30021 0.58806 0.1237 0.0
C9047 C 0.28861 0.59124 0.13589 0.0
C9048 C 0.27661 0.60161 0.13265 0.0
H9049 H 0.32687 0.55731 0.22141 0.0
H9050 H 0.31467 0.58165 0.2132 0.0
C9051 C 0.27943 0.61263 0.12039 0.0
C9052 C 0.29403 0.59162 0.15266 0.0
H9053 H 0.28866 0.57316 0.18869 0.0
C9054 C 0.30781 0.60192 0.1563 0.0
C9055 C 0.28596 0.58258 0.16498 0.0
C9056 C 0.27023 0.57277 0.16203 0.0
C9057 C 0.31547 0.60083 0.17101 0.0
C9058 C 0.30936 0.58895 0.18179 0.0
C9059 C 0.29361 0.58176 0.17986 0.0
C9060 C 0.32072 0.578 0.18784 0.0
C9061 C 0.33158 0.61 0.17368 0.0
C9062 C 0.32815 0.56804 0.17622 0.0
C9063 C 0.3343 0.55374 0.18076 0.0
C9064 C 0.33373 0.5496 0.197 0.0
C9065 C 0.32736 0.56012 0.20879 0.0
C9066 C 0.32066 0.57423 0.2042 0.0
H9067 H 0.33244 0.62172 0.16731 0.0
H9068 H 0.3334 0.61232 0.18684 0.0
H9069 H 0.3414 0.60261 0.16883 0.0
H9070 H 0.32786 0.57058 0.16341 0.0
H9071 H 0.33896 0.5457 0.1715 0.0
H9072 H 0.44232 0.34209 0.13201 0.0
H9073 H 0.45903 0.32795 0.14964 0.0
H9074 H 0.49717 0.32895 0.11291 0.0
H9075 H 0.47911 0.34097 0.09433 0.0
H9076 H 0.49068 0.29911 0.12073 0.0
H9077 H 0.4939 0.33444 0.17859 0.0
H9078 H 0.4734 0.32904 0.17323 0.0
H9079 H 0.48602 0.34272 0.16076 0.0
C9080 C 0.45469 0.3403 0.12806 0.0
C9081 C 0.45919 0.34175 0.11166 0.0
C9082 C 0.46422 0.33189 0.13815 0.0
C9083 C 0.4793 0.32694 0.13253 0.0
C9084 C 0.48534 0.33213 0.11733 0.0
H9085 H 0.54809 0.32817 0.14414 0.0
H9086 H 0.53753 0.30108 0.13645 0.0
C9087 C 0.47531 0.33964 0.1069 0.0
C9088 C 0.48807 0.31518 0.14164 0.0
H9089 H 0.5032 0.30884 0.1785 0.0
C9090 C 0.49387 0.30157 0.13327 0.0
C9091 C 0.49102 0.31728 0.15836 0.0
C9092 C 0.48582 0.33172 0.1682 0.0
C9093 C 0.50476 0.29182 0.14053 0.0
C9094 C 0.50993 0.29587 0.1564 0.0
C9095 C 0.50073 0.3066 0.16578 0.0
C9096 C 0.5275 0.2957 0.16043 0.0
C9097 C 0.51172 0.27823 0.13072 0.0
C9098 C 0.53121 0.29859 0.17686 0.0
C9099 C 0.53657 0.31448 0.18148 0.0
C9100 C 0.54111 0.32572 0.16946 0.0
C9101 C 0.54365 0.32002 0.15355 0.0
C9102 C 0.53778 0.30426 0.14924 0.0
H9103 H 0.50171 0.2702 0.12552 0.0
H9104 H 0.51904 0.28331 0.12036 0.0
H9105 H 0.51937 0.27086 0.13812 0.0
H9106 H 0.5253 0.29097 0.18602 0.0
H9107 H 0.5353 0.31838 0.19398 0.0
H9108 H 0.28957 0.39394 0.04317 0.0
H9109 H 0.3182 0.3943 0.03649 0.0
H9110 H 0.3275 0.43278 0.07177 0.0
H9111 H 0.29895 0.43183 0.07926 0.0
H9112 H 0.30981 0.41981 1.02291 0.0
H9113 H 0.36748 0.44211 0.04618 0.0
H9114 H 0.35773 0.42329 0.0534 0.0
H9115 H 0.35512 0.44233 0.06423 0.0
C9116 C 0.29779 0.40191 0.05013 0.0
C9117 C 0.29194 0.41368 0.06097 0.0
C9118 C 0.31438 0.40184 0.04662 0.0
C9119 C 0.32428 0.41547 0.05163 0.0
C9120 C 0.31953 0.42347 0.06609 0.0
H9121 H 0.28806 0.49517 1.021 0.0
H9122 H 0.2989 0.47483 0.0379 0.0
C9123 C 0.30307 0.42342 0.07008 0.0
C9124 C 0.32987 0.42691 0.03873 0.0
H9125 H 0.3478 0.46528 0.04112 0.0
C9126 C 0.31839 0.42955 0.02687 0.0
C9127 C 0.34185 0.43946 0.04215 0.0
C9128 C 0.35634 0.43647 0.05205 0.0
C9129 C 0.3157 0.4452 1.02226 0.0
C9130 C 0.32551 0.45837 0.0288 0.0
C9131 C 0.33937 0.45529 0.03742 0.0
C9132 C 0.3221 0.47511 0.02519 0.0
C9133 C 0.30178 0.44749 1.01115 0.0
C9134 C 0.33239 0.48348 1.01429 0.0
C9135 C 0.32632 0.49519 1.00483 0.0
C9136 C 0.30966 0.49818 1.00559 0.0
C9137 C 0.30054 0.49234 1.01908 0.0
C9138 C 0.30679 0.48081 0.0289 0.0
H9139 H 0.29814 0.43614 1.00424 0.0
H9140 H 0.29109 0.45093 1.01852 0.0
H9141 H 0.30496 0.45723 1.00239 0.0
H9142 H 0.3444 0.47954 1.01159 0.0
H9143 H 0.33432 0.50002 0.99552 0.0
H9144 H 0.6225 0.3261 1.02303 0.0
H9145 H 0.59368 0.32085 1.01758 0.0
H9146 H 0.60255 0.27309 0.99888 0.0
H9147 H 0.63066 0.27862 1.00191 0.0
H9148 H 0.60465 0.31711 0.98373 0.0
H9149 H 0.55317 0.27303 0.99798 0.0
H9150 H 0.56817 0.27964 1.01276 0.0
H9151 H 0.57224 0.26392 0.99804 0.0
C9152 C 0.61823 0.31432 1.01813 0.0
C9153 C 0.62917 0.30318 1.01217 0.0
C9154 C 0.60166 0.31108 1.01567 0.0
C9155 C 0.59634 0.29693 1.00694 0.0
C9156 C 0.60652 0.28425 1.00528 0.0
H9157 H 0.55575 0.32006 0.91403 0.0
H9158 H 0.57303 0.30263 0.92888 0.0
C9159 C 0.62298 0.28763 1.00693 0.0
C9160 C 0.58681 0.29879 0.99251 0.0
H9161 H 0.55624 0.28109 0.97007 0.0
C9162 C 0.5938 0.30949 0.98091 0.0
C9163 C 0.57371 0.28779 0.98833 0.0
C9164 C 0.56636 0.2755 1.00001 0.0
C9165 C 0.58713 0.31045 0.9657 0.0
C9166 C 0.57299 0.30059 0.9622 0.0
C9167 C 0.56712 0.28861 0.97299 0.0
C9168 C 0.56103 0.30706 0.95202 0.0
C9169 C 0.59437 0.32304 0.95416 0.0
C9170 C 0.54841 0.31455 0.96017 0.0
C9171 C 0.53853 0.32397 0.95184 0.0
C9172 C 0.54144 0.32636 0.93534 0.0
C9173 C 0.5535 0.31823 0.92687 0.0
C9174 C 0.56327 0.30838 0.93523 0.0
H9175 H 0.60654 0.32811 0.95795 0.0
H9176 H 0.59556 0.31769 0.94175 0.0
H9177 H 0.58629 0.3332 0.95364 0.0
H9178 H 0.54685 0.31398 0.97323 0.0
H9179 H 0.52946 0.33035 0.95859 0.0
H9180 H 0.44756 0.81016 0.06311 0.0
H9181 H 0.47019 0.79457 0.05271 0.0
H9182 H 0.47868 0.8287 1.01424 0.0
H9183 H 0.45785 0.84479 0.02556 0.0
H9184 H 0.48255 0.78692 1.0124 0.0
H9185 H 0.51613 0.82949 0.05389 0.0
H9186 H 0.49422 0.82643 0.05505 0.0
H9187 H 0.5039 0.84021 0.04082 0.0
C9188 C 0.45422 0.81404 0.05232 0.0
C9189 C 0.45128 0.82878 0.04524 0.0
C9190 C 0.46685 0.80507 0.0463 0.0
C9191 C 0.47606 0.81074 0.03292 0.0
C9192 C 0.47156 0.8242 1.02458 0.0
H9193 H 0.5297 0.84334 0.97017 0.0
H9194 H 0.52245 0.83713 0.99797 0.0
C9195 C 0.45943 0.83331 0.03089 0.0
C9196 C 0.49212 0.80527 0.02907 0.0
H9197 H 0.52996 0.82417 0.02703 0.0
C9198 C 0.49329 0.79433 1.016 0.0
C9199 C 0.50585 0.8153 0.03384 0.0
C9200 C 0.50486 0.82843 0.04678 0.0
C9201 C 0.507 0.79521 1.00575 0.0
C9202 C 0.52014 0.80663 1.00959 0.0
C9203 C 0.51996 0.81539 1.02428 0.0
C9204 C 0.5312 0.81297 0.99673 0.0
C9205 C 0.50613 0.78581 0.98976 0.0
C9206 C 0.54035 0.8024 0.98765 0.0
C9207 C 0.54329 0.80531 0.97135 0.0
C9208 C 0.5379 0.81937 0.96413 0.0
C9209 C 0.53283 0.83182 0.97465 0.0
C9210 C 0.52899 0.82844 0.9908 0.0
H9211 H 0.4945 0.77836 0.98841 0.0
H9212 H 0.50741 0.79429 0.97951 0.0
H9213 H 0.51611 0.77751 0.98874 0.0
H9214 H 0.54275 0.79068 0.99233 0.0
H9215 H 0.54738 0.79507 0.9645 0.0
loop_
_geom_bond_atom_site_label_1
_geom_bond_atom_site_label_2
_geom_bond_distance
_geom_bond_site_symmetry_2
_ccdc_geom_bond_type
Tb0 N29 2.617 . S
Tb0 N35 2.572 . S
Tb0 O44 2.465 . S
Tb0 O45 2.387 . S
Tb0 O47 2.428 . S
Tb0 O48 2.308 . S
Tb0 O52 2.349 . S
Tb0 O55 2.393 . S
Tb0 C64 2.802 . S
C1 N2 1.379 1_655 S
C1 C4 1.416 . S
C1 C8 1.424 . S
N2 C1 1.379 1_455 S
N2 C5 1.334 . S
N2 Tb11 2.617 . S
C3 C5 1.390 1_655 S
C3 C6 1.339 . S
C3 H23 0.930 . S
C4 C1 1.416 . S
C4 C6 1.416 . S
C4 C10 1.448 . S
C5 N2 1.334 . S
C5 C3 1.390 1_455 S
C5 H16 0.930 . S
C6 C3 1.339 . S
C6 C4 1.416 . S
C6 H27 0.930 . S
C7 C8 1.413 . S
C7 C9 1.427 . S
C7 C13 1.416 . S
C8 C1 1.424 . S
C8 C7 1.413 . S
C8 N12 1.362 . S
C9 C7 1.427 . S
C9 C10 1.328 . S
C9 H24 0.929 . S
C10 C4 1.448 . S
C10 C9 1.328 . S
C10 H25 0.930 . S
Tb11 N2 2.617 . S
Tb11 N12 2.570 1_455 S
Tb11 O46 2.349 . S
Tb11 O49 2.393 . S
Tb11 O50 2.465 . S
Tb11 O51 2.387 . S
Tb11 O53 2.428 . S
Tb11 O54 2.308 . S
Tb11 C75 2.802 . S
N12 C8 1.362 . S
N12 Tb11 2.570 1_655 S
N12 C14 1.340 . S
C13 C7 1.416 . S
C13 C15 1.332 . S
C13 H21 0.931 . S
C14 N12 1.340 . S
C14 C15 1.407 . S
C14 H20 0.930 1_655 S
C15 C13 1.332 . S
C15 C14 1.407 . S
C15 H17 0.929 . S
H16 C5 0.930 . S
H17 C15 0.929 . S
H18 C33 0.930 . S
H19 C40 0.929 . S
H20 C14 0.930 1_455 S
H21 C13 0.931 . S
H22 C36 0.930 . S
H23 C3 0.930 . S
H24 C9 0.929 . S
H25 C10 0.930 . S
H26 C31 0.930 . S
H27 C6 0.930 . S
H28 C39 0.931 . S
N29 Tb0 2.617 . S
N29 C30 1.379 . S
N29 C33 1.334 . S
C30 N29 1.379 . S
C30 C32 1.416 . S
C30 C38 1.424 . S
C31 H26 0.930 . S
C31 C33 1.390 . S
C31 C34 1.339 . S
C32 C30 1.416 . S
C32 C34 1.416 . S
C32 C65 1.448 . S
C33 H18 0.930 . S
C33 N29 1.334 . S
C33 C31 1.390 . S
C34 C31 1.339 . S
C34 C32 1.416 . S
C34 H41 0.930 . S
N35 Tb0 2.572 . S
N35 C36 1.340 . S
N35 C38 1.361 . S
C36 H22 0.930 . S
C36 N35 1.340 . S
C36 C40 1.407 . S
C37 C38 1.413 . S
C37 C39 1.416 . S
C37 C66 1.427 . S
C38 C30 1.424 . S
C38 N35 1.361 . S
C38 C37 1.413 . S
C39 H28 0.931 . S
C39 C37 1.416 . S
C39 C40 1.332 . S
C40 H19 0.929 . S
C40 C36 1.407 . S
C40 C39 1.332 . S
H41 C34 0.930 . S
H42 C65 0.930 . S
H43 C66 0.929 . S
O44 Tb0 2.465 . S
O44 C64 1.264 . S
O45 Tb0 2.387 . S
O45 C56 1.264 . S
O46 Tb11 2.349 . S
O46 C56 1.243 . S
O47 Tb0 2.428 . S
O47 C64 1.256 . S
O48 Tb0 2.308 . S
O48 C63 1.266 . S
O49 Tb11 2.393 . S
O49 C63 1.248 . S
O50 Tb11 2.465 . S
O50 C75 1.264 . S
O51 Tb11 2.387 . S
O51 C67 1.264 . S
O52 Tb0 2.349 . S
O52 C67 1.243 . S
O53 Tb11 2.428 . S
O53 C75 1.256 . S
O54 Tb11 2.308 . S
O54 C74 1.266 . S
O55 Tb0 2.393 . S
O55 C74 1.248 . S
C56 O45 1.264 . S
C56 O46 1.243 . S
C57 C60 1.399 . S
C57 C62 1.383 . S
C57 C64 1.496 . S
C58 C59 1.399 . S
C58 C62 1.389 . S
C59 C58 1.399 . S
C59 C61 1.380 . S
C59 H76 0.929 . S
C60 C57 1.399 . S
C60 C61 1.392 . S
C60 H77 0.929 . S
C61 C59 1.380 . S
C61 C60 1.392 . S
C61 H78 0.929 . S
C62 C57 1.383 . S
C62 C58 1.389 . S
C62 H79 0.931 . S
C63 O48 1.266 . S
C63 O49 1.248 . S
C64 Tb0 2.802 . S
C64 O44 1.264 . S
C64 O47 1.256 . S
C64 C57 1.496 . S
C65 C32 1.448 . S
C65 H42 0.930 . S
C65 C66 1.328 . S
C66 C37 1.427 . S
C66 H43 0.929 . S
C66 C65 1.328 . S
C67 O51 1.264 . S
C67 O52 1.243 . S
C68 C71 1.399 . S
C68 C72 1.383 . S
C68 C75 1.496 . S
C69 C70 1.399 1_455 S
C69 C72 1.389 . S
C70 C69 1.399 1_655 S
C70 C73 1.380 . S
C70 H80 0.929 . S
C71 C68 1.399 . S
C71 C73 1.392 1_455 S
C71 H81 0.929 . S
C72 C68 1.383 . S
C72 C69 1.389 . S
C72 H82 0.931 . S
C73 C70 1.380 . S
C73 C71 1.392 1_655 S
C73 H83 0.929 . S
C74 O54 1.266 . S
C74 O55 1.248 . S
C75 Tb11 2.802 . S
C75 O50 1.264 . S
C75 O53 1.256 . S
C75 C68 1.496 . S
H76 C59 0.929 . S
H77 C60 0.929 . S
H78 C61 0.929 . S
H79 C62 0.931 . S
H80 C70 0.929 . S
H81 C71 0.929 . S
H82 C72 0.931 . S
H83 C73 0.929 . S
Tb84 N113 2.617 . S
Tb84 N119 2.572 . S
Tb84 O128 2.465 . S
Tb84 O129 2.387 . S
Tb84 O131 2.428 . S
Tb84 O132 2.308 . S
Tb84 O136 2.313 1_545 S
Tb84 O139 2.393 . S
Tb84 C148 2.802 . S
C85 N86 1.379 . S
C85 C88 1.416 . S
C85 C92 1.424 . S
N86 C85 1.379 . S
N86 C89 1.334 . S
N86 Tb95 2.617 . S
C87 C89 1.390 . S
C87 C90 1.339 . S
C87 H107 0.930 . S
C88 C85 1.416 . S
C88 C90 1.416 . S
C88 C94 1.448 . S
C89 N86 1.334 . S
C89 C87 1.390 . S
C89 H100 0.930 . S
C90 C87 1.339 . S
C90 C88 1.416 . S
C90 H111 0.930 . S
C91 C92 1.413 . S
C91 C93 1.427 . S
C91 C97 1.416 . S
C92 C85 1.424 . S
C92 C91 1.413 . S
C92 N96 1.361 . S
C93 C91 1.427 . S
C93 C94 1.328 . S
C93 H108 0.929 . S
C94 C88 1.448 . S
C94 C93 1.328 . S
C94 H109 0.930 . S
Tb95 N86 2.617 . S
Tb95 N96 2.572 . S
Tb95 O130 2.349 1_565 S
Tb95 O133 2.393 . S
Tb95 O134 2.465 . S
Tb95 O135 2.387 . S
Tb95 O137 2.428 . S
Tb95 O138 2.308 . S
Tb95 C159 2.802 . S
N96 C92 1.361 . S
N96 Tb95 2.572 . S
N96 C98 1.340 . S
C97 C91 1.416 . S
C97 C99 1.332 . S
C97 H105 0.931 . S
C98 N96 1.340 . S
C98 C99 1.407 . S
C98 H104 0.930 . S
C99 C97 1.332 . S
C99 C98 1.407 . S
C99 H101 0.929 . S
H100 C89 0.930 . S
H101 C99 0.929 . S
H102 C117 0.930 . S
H103 C124 0.929 . S
H104 C98 0.930 . S
H105 C97 0.931 . S
H106 C120 0.930 . S
H107 C87 0.930 . S
H108 C93 0.929 . S
H109 C94 0.930 . S
H110 C115 0.930 . S
H111 C90 0.930 . S
H112 C123 0.931 . S
N113 Tb84 2.617 . S
N113 C114 1.379 . S
N113 C117 1.334 . S
C114 N113 1.379 . S
C114 C116 1.416 . S
C114 C122 1.424 . S
C115 H110 0.930 . S
C115 C117 1.390 . S
C115 C118 1.339 . S
C116 C114 1.416 . S
C116 C118 1.416 . S
C116 C149 1.448 . S
C117 H102 0.930 . S
C117 N113 1.334 . S
C117 C115 1.390 . S
C118 C115 1.339 . S
C118 C116 1.416 . S
C118 H125 0.930 . S
N119 Tb84 2.572 . S
N119 C120 1.340 . S
N119 C122 1.361 . S
C120 H106 0.930 . S
C120 N119 1.340 . S
C120 C124 1.407 . S
C121 C122 1.413 . S
C121 C123 1.416 . S
C121 C150 1.427 . S
C122 C114 1.424 . S
C122 N119 1.361 . S
C122 C121 1.413 . S
C123 H112 0.931 . S
C123 C121 1.416 . S
C123 C124 1.332 . S
C124 H103 0.929 . S
C124 C120 1.407 . S
C124 C123 1.332 . S
H125 C118 0.930 . S
H126 C149 0.930 . S
H127 C150 0.929 . S
O128 Tb84 2.465 . S
O128 C148 1.264 . S
O129 Tb84 2.387 . S
O129 C140 1.264 . S
O130 Tb95 2.349 1_545 S
O130 C140 1.243 . S
O131 Tb84 2.428 . S
O131 C148 1.256 . S
O132 Tb84 2.308 . S
O132 C147 1.266 . S
O133 Tb95 2.393 . S
O133 C147 1.248 1_565 S
O134 Tb95 2.465 . S
O134 C159 1.264 . S
O135 Tb95 2.387 . S
O135 C151 1.264 . S
O136 Tb84 2.313 1_565 S
O136 C151 1.284 . S
O137 Tb95 2.428 . S
O137 C159 1.256 . S
O138 Tb95 2.308 . S
O138 C158 1.266 . S
O139 Tb84 2.393 . S
O139 C158 1.248 1_545 S
C140 O129 1.264 . S
C140 O130 1.243 . S
C141 C144 1.399 . S
C141 C146 1.383 . S
C141 C148 1.496 . S
C142 C143 1.399 . S
C142 C146 1.389 . S
C143 C142 1.399 . S
C143 C145 1.380 . S
C143 H160 0.929 . S
C144 C141 1.399 . S
C144 C145 1.392 . S
C144 H161 0.929 . S
C145 C143 1.380 . S
C145 C144 1.392 . S
C145 H162 0.929 . S
C146 C141 1.383 . S
C146 C142 1.389 . S
C146 H163 0.931 . S
C147 O132 1.266 . S
C147 O133 1.248 1_545 S
C148 Tb84 2.802 . S
C148 O128 1.264 . S
C148 O131 1.256 . S
C148 C141 1.496 . S
C149 C116 1.448 . S
C149 H126 0.930 . S
C149 C150 1.328 . S
C150 C121 1.427 . S
C150 H127 0.929 . S
C150 C149 1.328 . S
C151 O135 1.264 . S
C151 O136 1.284 . S
C152 C155 1.399 . S
C152 C156 1.383 . S
C152 C159 1.496 . S
C153 C154 1.399 . S
C153 C156 1.389 . S
C154 C153 1.399 . S
C154 C157 1.380 . S
C154 H164 0.929 . S
C155 C152 1.399 . S
C155 C157 1.392 . S
C155 H165 0.929 . S
C156 C152 1.383 . S
C156 C153 1.389 . S
C156 H166 0.931 . S
C157 C154 1.380 . S
C157 C155 1.392 . S
C157 H167 0.929 . S
C158 O138 1.266 . S
C158 O139 1.248 1_565 S
C159 Tb95 2.802 . S
C159 O134 1.264 . S
C159 O137 1.256 . S
C159 C152 1.496 . S
H160 C143 0.929 . S
H161 C144 0.929 . S
H162 C145 0.929 . S
H163 C146 0.931 . S
H164 C154 0.929 . S
H165 C155 0.929 . S
H166 C156 0.931 . S
H167 C157 0.929 . S
Tb168 N197 2.617 . S
Tb168 N203 2.572 . S
Tb168 O212 2.465 . S
Tb168 O213 2.387 . S
Tb168 O215 2.428 . S
Tb168 O216 2.308 . S
Tb168 O220 2.349 1_655 S
Tb168 O223 2.393 . S
Tb168 C232 2.802 . S
C169 N170 1.379 . S
C169 C172 1.416 . S
C169 C176 1.424 . S
N170 C169 1.379 . S
N170 C173 1.334 . S
N170 Tb179 2.617 . S
C171 C173 1.390 . S
C171 C174 1.339 . S
C171 H191 0.930 . S
C172 C169 1.416 . S
C172 C174 1.416 . S
C172 C178 1.448 . S
C173 N170 1.334 . S
C173 C171 1.390 . S
C173 H184 0.930 . S
C174 C171 1.339 . S
C174 C172 1.416 . S
C174 H195 0.930 . S
C175 C176 1.413 . S
C175 C177 1.427 . S
C175 C181 1.416 . S
C176 C169 1.424 . S
C176 C175 1.413 . S
C176 N180 1.361 . S
C177 C175 1.427 . S
C177 C178 1.328 . S
C177 H192 0.929 . S
C178 C172 1.448 . S
C178 C177 1.328 . S
C178 H193 0.930 . S
Tb179 N170 2.617 . S
Tb179 N180 2.572 . S
Tb179 O214 2.349 1_455 S
Tb179 O217 2.393 . S
Tb179 O218 2.465 . S
Tb179 O219 2.387 . S
Tb179 O221 2.428 . S
Tb179 O222 2.308 . S
Tb179 C243 2.802 . S
N180 C176 1.361 . S
N180 Tb179 2.572 . S
N180 C182 1.340 . S
C181 C175 1.416 . S
C181 C183 1.332 . S
C181 H189 0.931 . S
C182 N180 1.340 . S
C182 C183 1.407 . S
C182 H188 0.930 . S
C183 C181 1.332 . S
C183 C182 1.407 . S
C183 H185 0.929 . S
H184 C173 0.930 . S
H185 C183 0.929 . S
H186 C201 0.930 . S
H187 C208 0.929 . S
H188 C182 0.930 . S
H189 C181 0.931 . S
H190 C204 0.930 . S
H191 C171 0.930 . S
H192 C177 0.929 . S
H193 C178 0.930 . S
H194 C199 0.930 . S
H195 C174 0.930 . S
H196 C207 0.931 . S
N197 Tb168 2.617 . S
N197 C198 1.379 . S
N197 C201 1.334 . S
C198 N197 1.379 . S
C198 C200 1.416 . S
C198 C206 1.424 . S
C199 H194 0.930 . S
C199 C201 1.390 . S
C199 C202 1.339 . S
C200 C198 1.416 . S
C200 C202 1.416 . S
C200 C233 1.448 . S
C201 H186 0.930 . S
C201 N197 1.334 . S
C201 C199 1.390 . S
C202 C199 1.339 . S
C202 C200 1.416 . S
C202 H209 0.930 . S
N203 Tb168 2.572 . S
N203 C204 1.340 . S
N203 C206 1.361 . S
C204 H190 0.930 . S
C204 N203 1.340 . S
C204 C208 1.407 . S
C205 C206 1.413 . S
C205 C207 1.416 . S
C205 C234 1.427 . S
C206 C198 1.424 . S
C206 N203 1.361 . S
C206 C205 1.413 . S
C207 H196 0.931 . S
C207 C205 1.416 . S
C207 C208 1.332 . S
C208 H187 0.929 . S
C208 C204 1.407 . S
C208 C207 1.332 . S
H209 C202 0.930 . S
H210 C233 0.930 . S
H211 C234 0.929 . S
O212 Tb168 2.465 . S
O212 C232 1.264 . S
O213 Tb168 2.387 . S
O213 C224 1.264 . S
O214 Tb179 2.349 1_655 S
O214 C224 1.243 . S
O215 Tb168 2.428 . S
O215 C232 1.256 . S
O216 Tb168 2.308 . S
O216 C231 1.266 . S
O217 Tb179 2.393 . S
O217 C231 1.248 1_455 S
O218 Tb179 2.465 . S
O218 C243 1.264 . S
O219 Tb179 2.387 . S
O219 C235 1.264 . S
O220 Tb168 2.349 1_455 S
O220 C235 1.243 . S
O221 Tb179 2.428 . S
O221 C243 1.256 . S
O222 Tb179 2.308 . S
O222 C242 1.266 . S
O223 Tb168 2.393 . S
O223 C242 1.248 1_655 S
C224 O213 1.264 . S
C224 O214 1.243 . S
C225 C228 1.399 . S
C225 C230 1.383 . S
C225 C232 1.496 . S
C226 C227 1.399 . S
C226 C230 1.389 . S
C227 C226 1.399 . S
C227 C229 1.380 . S
C227 H244 0.929 . S
C228 C225 1.399 . S
C228 C229 1.392 . S
C228 H245 0.929 . S
C229 C227 1.380 . S
C229 C228 1.392 . S
C229 H246 0.929 . S
C230 C225 1.383 . S
C230 C226 1.389 . S
C230 H247 0.931 . S
C231 O216 1.266 . S
C231 O217 1.248 1_655 S
C232 Tb168 2.802 . S
C232 O212 1.264 . S
C232 O215 1.256 . S
C232 C225 1.496 . S
C233 C200 1.448 . S
C233 H210 0.930 . S
C233 C234 1.328 . S
C234 C205 1.427 . S
C234 H211 0.929 . S
C234 C233 1.328 . S
C235 O219 1.264 . S
C235 O220 1.243 . S
C236 C239 1.399 . S
C236 C240 1.383 . S
C236 C243 1.496 . S
C237 C238 1.399 . S
C237 C240 1.389 . S
C238 C237 1.399 . S
C238 C241 1.380 . S
C238 H248 0.929 . S
C239 C236 1.399 . S
C239 C241 1.392 . S
C239 H249 0.929 . S
C240 C236 1.383 . S
C240 C237 1.389 . S
C240 H250 0.931 . S
C241 C238 1.380 . S
C241 C239 1.392 . S
C241 H251 0.929 . S
C242 O222 1.266 . S
C242 O223 1.248 1_455 S
C243 Tb179 2.802 . S
C243 O218 1.264 . S
C243 O221 1.256 . S
C243 C236 1.496 . S
H244 C227 0.929 . S
H245 C228 0.929 . S
H246 C229 0.929 . S
H247 C230 0.931 . S
H248 C238 0.929 . S
H249 C239 0.929 . S
H250 C240 0.931 . S
H251 C241 0.929 . S
Tb252 N281 2.617 . S
Tb252 N287 2.572 . S
Tb252 O296 2.465 . S
Tb252 O297 2.387 . S
Tb252 O299 2.428 . S
Tb252 O300 2.308 . S
Tb252 O304 2.349 . S
Tb252 O307 2.393 . S
Tb252 C316 2.802 . S
C253 N254 1.379 . S
C253 C256 1.416 . S
C253 C260 1.424 . S
N254 C253 1.379 . S
N254 C257 1.334 . S
N254 Tb263 2.617 . S
C255 C257 1.390 . S
C255 C258 1.339 . S
C255 H275 0.930 . S
C256 C253 1.416 . S
C256 C258 1.416 . S
C256 C262 1.448 . S
C257 N254 1.334 . S
C257 C255 1.390 . S
C257 H268 0.930 . S
C258 C255 1.339 . S
C258 C256 1.416 . S
C258 H279 0.930 . S
C259 C260 1.413 . S
C259 C261 1.427 . S
C259 C265 1.416 . S
C260 C253 1.424 . S
C260 C259 1.413 . S
C260 N264 1.361 . S
C261 C259 1.427 . S
C261 C262 1.328 . S
C261 H276 0.929 . S
C262 C256 1.448 . S
C262 C261 1.328 . S
C262 H277 0.930 . S
Tb263 N254 2.617 . S
Tb263 N264 2.572 . S
Tb263 O298 2.349 . S
Tb263 O301 2.393 . S
Tb263 O302 2.465 . S
Tb263 O303 2.387 . S
Tb263 O305 2.428 . S
Tb263 O306 2.308 . S
Tb263 C327 2.802 . S
N264 C260 1.361 . S
N264 Tb263 2.572 . S
N264 C266 1.340 . S
C265 C259 1.416 . S
C265 C267 1.332 . S
C265 H273 0.931 . S
C266 N264 1.340 . S
C266 C267 1.407 . S
C266 H272 0.930 . S
C267 C265 1.332 . S
C267 C266 1.407 . S
C267 H269 0.929 . S
H268 C257 0.930 . S
H269 C267 0.929 . S
H270 C285 0.930 . S
H271 C292 0.929 . S
H272 C266 0.930 . S
H273 C265 0.931 . S
H274 C288 0.930 . S
H275 C255 0.930 . S
H276 C261 0.929 . S
H277 C262 0.930 . S
H278 C283 0.930 . S
H279 C258 0.930 . S
H280 C291 0.931 1_565 S
N281 Tb252 2.617 . S
N281 C282 1.379 . S
N281 C285 1.334 . S
C282 N281 1.379 . S
C282 C284 1.416 . S
C282 C290 1.424 . S
C283 H278 0.930 . S
C283 C285 1.390 . S
C283 C286 1.339 . S
C284 C282 1.416 . S
C284 C286 1.416 . S
C284 C317 1.448 1_545 S
C285 H270 0.930 . S
C285 N281 1.334 . S
C285 C283 1.390 . S
C286 C283 1.339 . S
C286 C284 1.416 . S
C286 H293 0.930 . S
N287 Tb252 2.572 . S
N287 C288 1.340 . S
N287 C290 1.361 . S
C288 H274 0.930 . S
C288 N287 1.340 . S
C288 C292 1.407 . S
C289 C290 1.413 . S
C289 C291 1.416 . S
C289 C318 1.427 1_545 S
C290 C282 1.424 . S
C290 N287 1.361 . S
C290 C289 1.413 . S
C291 H280 0.931 1_545 S
C291 C289 1.416 . S
C291 C292 1.332 . S
C292 H271 0.929 . S
C292 C288 1.407 . S
C292 C291 1.332 . S
H293 C286 0.930 . S
H294 C317 0.930 . S
H295 C318 0.929 . S
O296 Tb252 2.465 . S
O296 C316 1.264 . S
O297 Tb252 2.387 . S
O297 C308 1.264 . S
O298 Tb263 2.349 . S
O298 C308 1.243 . S
O299 Tb252 2.428 . S
O299 C316 1.256 . S
O300 Tb252 2.308 . S
O300 C315 1.266 . S
O301 Tb263 2.393 . S
O301 C315 1.248 . S
O302 Tb263 2.465 . S
O302 C327 1.264 . S
O303 Tb263 2.387 . S
O303 C319 1.264 . S
O304 Tb252 2.349 . S
O304 C319 1.243 . S
O305 Tb263 2.428 . S
O305 C327 1.256 . S
O306 Tb263 2.308 . S
O306 C326 1.266 . S
O307 Tb252 2.393 . S
O307 C326 1.248 . S
C308 O297 1.264 . S
C308 O298 1.243 . S
C309 C312 1.399 . S
C309 C314 1.383 . S
C309 C316 1.496 . S
C310 C311 1.399 . S
C310 C314 1.389 . S
C311 C310 1.399 . S
C311 C313 1.380 . S
C311 H328 0.929 . S
C312 C309 1.399 . S
C312 C313 1.392 . S
C312 H329 0.929 . S
C313 C311 1.380 . S
C313 C312 1.392 . S
C313 H330 0.929 . S
C314 C309 1.383 . S
C314 C310 1.389 . S
C314 H331 0.931 . S
C315 O300 1.266 . S
C315 O301 1.248 . S
C316 Tb252 2.802 . S
C316 O296 1.264 . S
C316 O299 1.256 . S
C316 C309 1.496 . S
C317 C284 1.448 1_565 S
C317 H294 0.930 . S
C317 C318 1.328 . S
C318 C289 1.427 1_565 S
C318 H295 0.929 . S
C318 C317 1.328 . S
C319 O303 1.264 . S
C319 O304 1.243 . S
C320 C323 1.399 . S
C320 C324 1.383 . S
C320 C327 1.496 . S
C321 C322 1.399 . S
C321 C324 1.389 . S
C322 C321 1.399 . S
C322 C325 1.380 . S
C322 H332 0.929 . S
C323 C320 1.399 . S
C323 C325 1.392 . S
C323 H333 0.929 . S
C324 C320 1.383 . S
C324 C321 1.389 . S
C324 H334 0.931 . S
C325 C322 1.380 . S
C325 C323 1.392 . S
C325 H335 0.929 . S
C326 O306 1.266 . S
C326 O307 1.248 . S
C327 Tb263 2.802 . S
C327 O302 1.264 . S
C327 O305 1.256 . S
C327 C320 1.496 . S
H328 C311 0.929 . S
H329 C312 0.929 . S
H330 C313 0.929 . S
H331 C314 0.931 . S
H332 C322 0.929 . S
H333 C323 0.929 . S
H334 C324 0.931 . S
H335 C325 0.929 . S
Tb336 N365 2.617 . S
Tb336 N371 2.572 . S
Tb336 O380 2.465 . S
Tb336 O381 2.387 . S
Tb336 O383 2.428 . S
Tb336 O384 2.308 . S
Tb336 O388 2.349 . S
Tb336 O391 2.393 . S
Tb336 C400 2.802 . S
C337 N338 1.379 . S
C337 C340 1.416 . S
C337 C344 1.424 . S
N338 C337 1.379 . S
N338 C341 1.334 . S
N338 Tb347 2.617 1_655 S
C339 C341 1.390 . S
C339 C342 1.339 . S
C339 H359 0.930 . S
C340 C337 1.416 . S
C340 C342 1.416 . S
C340 C346 1.448 . S
C341 N338 1.334 . S
C341 C339 1.390 . S
C341 H352 0.930 . S
C342 C339 1.339 . S
C342 C340 1.416 . S
C342 H363 0.930 . S
C343 C344 1.413 . S
C343 C345 1.427 . S
C343 C349 1.416 . S
C344 C337 1.424 . S
C344 C343 1.413 . S
C344 N348 1.361 . S
C345 C343 1.427 . S
C345 C346 1.328 . S
C345 H360 0.929 . S
C346 C340 1.448 . S
C346 C345 1.328 . S
C346 H361 0.930 . S
Tb347 N338 2.617 1_455 S
Tb347 N348 2.572 1_455 S
Tb347 O382 2.349 . S
Tb347 O385 2.393 . S
Tb347 O386 2.465 . S
Tb347 O387 2.387 . S
Tb347 O389 2.406 1_455 S
Tb347 O390 2.308 . S
Tb347 C411 2.802 1_455 S
N348 C344 1.361 . S
N348 Tb347 2.572 1_655 S
N348 C350 1.340 . S
C349 C343 1.416 . S
C349 C351 1.332 . S
C349 H357 0.931 . S
C350 N348 1.340 . S
C350 C351 1.407 . S
C350 H356 0.930 . S
C351 C349 1.332 . S
C351 C350 1.407 . S
C351 H353 0.929 . S
H352 C341 0.930 . S
H353 C351 0.929 . S
H354 C369 0.930 . S
H355 C376 0.929 . S
H356 C350 0.930 . S
H357 C349 0.931 . S
H358 C372 0.930 . S
H359 C339 0.930 . S
H360 C345 0.929 . S
H361 C346 0.930 . S
H362 C367 0.930 . S
H363 C342 0.930 . S
H364 C375 0.931 . S
N365 Tb336 2.617 . S
N365 C366 1.379 . S
N365 C369 1.334 . S
C366 N365 1.379 . S
C366 C368 1.416 . S
C366 C374 1.424 . S
C367 H362 0.930 . S
C367 C369 1.390 . S
C367 C370 1.339 . S
C368 C366 1.416 . S
C368 C370 1.416 . S
C368 C401 1.448 . S
C369 H354 0.930 . S
C369 N365 1.334 . S
C369 C367 1.390 . S
C370 C367 1.339 . S
C370 C368 1.416 . S
C370 H377 0.930 . S
N371 Tb336 2.572 . S
N371 C372 1.340 . S
N371 C374 1.361 . S
C372 H358 0.930 . S
C372 N371 1.340 . S
C372 C376 1.407 . S
C373 C374 1.413 . S
C373 C375 1.416 . S
C373 C402 1.427 . S
C374 C366 1.424 . S
C374 N371 1.361 . S
C374 C373 1.413 . S
C375 H364 0.931 . S
C375 C373 1.416 . S
C375 C376 1.332 . S
C376 H355 0.929 . S
C376 C372 1.407 . S
C376 C375 1.332 . S
H377 C370 0.930 . S
H378 C401 0.930 . S
H379 C402 0.929 . S
O380 Tb336 2.465 . S
O380 C400 1.264 . S
O381 Tb336 2.387 . S
O381 C392 1.264 . S
O382 Tb347 2.349 . S
O382 C392 1.243 . S
O383 Tb336 2.428 . S
O383 C400 1.256 . S
O384 Tb336 2.308 . S
O384 C399 1.266 . S
O385 Tb347 2.393 . S
O385 C399 1.248 . S
O386 Tb347 2.465 . S
O386 C411 1.264 1_455 S
O387 Tb347 2.387 . S
O387 C403 1.264 . S
O388 Tb336 2.349 . S
O388 C403 1.243 . S
O389 Tb347 2.406 1_655 S
O389 C411 1.263 . S
O390 Tb347 2.308 . S
O390 C410 1.266 . S
O391 Tb336 2.393 . S
O391 C410 1.248 . S
C392 O381 1.264 . S
C392 O382 1.243 . S
C393 C396 1.399 . S
C393 C398 1.383 . S
C393 C400 1.496 . S
C394 C395 1.399 . S
C394 C398 1.389 . S
C395 C394 1.399 . S
C395 C397 1.380 . S
C395 H412 0.929 . S
C396 C393 1.399 . S
C396 C397 1.392 . S
C396 H413 0.929 . S
C397 C395 1.380 . S
C397 C396 1.392 . S
C397 H414 0.929 . S
C398 C393 1.383 . S
C398 C394 1.389 . S
C398 H415 0.931 . S
C399 O384 1.266 . S
C399 O385 1.248 . S
C400 Tb336 2.802 . S
C400 O380 1.264 . S
C400 O383 1.256 . S
C400 C393 1.496 . S
C401 C368 1.448 . S
C401 H378 0.930 . S
C401 C402 1.328 . S
C402 C373 1.427 . S
C402 H379 0.929 . S
C402 C401 1.328 . S
C403 O387 1.264 . S
C403 O388 1.243 . S
C404 C407 1.399 . S
C404 C408 1.383 . S
C404 C411 1.496 . S
C405 C406 1.399 . S
C405 C408 1.389 . S
C406 C405 1.399 . S
C406 C409 1.380 . S
C406 H416 0.929 . S
C407 C404 1.399 . S
C407 C409 1.392 . S
C407 H417 0.929 . S
C408 C404 1.383 . S
C408 C405 1.389 . S
C408 H418 0.931 . S
C409 C406 1.380 . S
C409 C407 1.392 . S
C409 H419 0.929 . S
C410 O390 1.266 . S
C410 O391 1.248 . S
C411 Tb347 2.802 1_655 S
C411 O386 1.264 1_655 S
C411 O389 1.263 . S
C411 C404 1.496 . S
H412 C395 0.929 . S
H413 C396 0.929 . S
H414 C397 0.929 . S
H415 C398 0.931 . S
H416 C406 0.929 . S
H417 C407 0.929 . S
H418 C408 0.931 . S
H419 C409 0.929 . S
Tb420 N449 2.617 . S
Tb420 N455 2.572 . S
Tb420 O464 2.465 . S
Tb420 O465 2.387 . S
Tb420 O467 2.428 . S
Tb420 O468 2.308 . S
Tb420 O472 2.349 . S
Tb420 O475 2.393 . S
Tb420 C484 2.802 . S
C421 N422 1.379 1_565 S
C421 C424 1.416 . S
C421 C428 1.424 . S
N422 C421 1.379 1_545 S
N422 C425 1.334 . S
N422 Tb431 2.617 . S
C423 C425 1.390 . S
C423 C426 1.339 1_545 S
C423 H443 0.930 . S
C424 C421 1.416 . S
C424 C426 1.416 . S
C424 C430 1.448 . S
C425 N422 1.334 . S
C425 C423 1.390 . S
C425 H436 0.930 . S
C426 C423 1.339 1_565 S
C426 C424 1.416 . S
C426 H447 0.930 . S
C427 C428 1.413 . S
C427 C429 1.427 . S
C427 C433 1.416 . S
C428 C421 1.424 . S
C428 C427 1.413 . S
C428 N432 1.361 1_565 S
C429 C427 1.427 . S
C429 C430 1.328 . S
C429 H444 0.929 . S
C430 C424 1.448 . S
C430 C429 1.328 . S
C430 H445 0.930 . S
Tb431 N422 2.617 . S
Tb431 N432 2.572 . S
Tb431 O466 2.349 . S
Tb431 O469 2.393 . S
Tb431 O470 2.465 . S
Tb431 O471 2.387 . S
Tb431 O473 2.428 . S
Tb431 O474 2.308 . S
Tb431 C495 2.802 . S
N432 C428 1.361 1_545 S
N432 Tb431 2.572 . S
N432 C434 1.344 . S
C433 C427 1.416 . S
C433 C435 1.332 . S
C433 H441 0.931 . S
C434 N432 1.344 . S
C434 C435 1.395 1_545 S
C434 H440 0.939 . S
C435 C433 1.332 . S
C435 C434 1.395 1_565 S
C435 H437 0.929 . S
H436 C425 0.930 . S
H437 C435 0.929 . S
H438 C453 0.930 . S
H439 C460 0.929 . S
H440 C434 0.939 . S
H441 C433 0.931 . S
H442 C456 0.930 . S
H443 C423 0.930 . S
H444 C429 0.929 . S
H445 C430 0.930 . S
H446 C451 0.930 . S
H447 C426 0.930 . S
H448 C459 0.931 . S
N449 Tb420 2.617 . S
N449 C450 1.379 . S
N449 C453 1.334 . S
C450 N449 1.379 . S
C450 C452 1.416 . S
C450 C458 1.424 . S
C451 H446 0.930 . S
C451 C453 1.390 . S
C451 C454 1.339 . S
C452 C450 1.416 . S
C452 C454 1.416 . S
C452 C485 1.448 . S
C453 H438 0.930 . S
C453 N449 1.334 . S
C453 C451 1.390 . S
C454 C451 1.339 . S
C454 C452 1.416 . S
C454 H461 0.930 . S
N455 Tb420 2.572 . S
N455 C456 1.340 . S
N455 C458 1.361 . S
C456 H442 0.930 . S
C456 N455 1.340 . S
C456 C460 1.407 . S
C457 C458 1.413 . S
C457 C459 1.416 . S
C457 C486 1.427 . S
C458 C450 1.424 . S
C458 N455 1.361 . S
C458 C457 1.413 . S
C459 H448 0.931 . S
C459 C457 1.416 . S
C459 C460 1.332 . S
C460 H439 0.929 . S
C460 C456 1.407 . S
C460 C459 1.332 . S
H461 C454 0.930 . S
H462 C485 0.930 . S
H463 C486 0.929 . S
O464 Tb420 2.465 . S
O464 C484 1.264 . S
O465 Tb420 2.387 . S
O465 C476 1.264 . S
O466 Tb431 2.349 . S
O466 C476 1.243 . S
O467 Tb420 2.428 . S
O467 C484 1.256 . S
O468 Tb420 2.308 . S
O468 C483 1.266 . S
O469 Tb431 2.393 . S
O469 C483 1.248 . S
O470 Tb431 2.465 . S
O470 C495 1.264 . S
O471 Tb431 2.387 . S
O471 C487 1.264 . S
O472 Tb420 2.349 . S
O472 C487 1.243 . S
O473 Tb431 2.428 . S
O473 C495 1.256 . S
O474 Tb431 2.308 . S
O474 C494 1.266 . S
O475 Tb420 2.393 . S
O475 C494 1.248 . S
C476 O465 1.264 . S
C476 O466 1.243 . S
C477 C480 1.399 . S
C477 C482 1.383 . S
C477 C484 1.496 . S
C478 C479 1.399 . S
C478 C482 1.389 . S
C479 C478 1.399 . S
C479 C481 1.380 . S
C479 H496 0.929 . S
C480 C477 1.399 . S
C480 C481 1.392 . S
C480 H497 0.929 . S
C481 C479 1.380 . S
C481 C480 1.392 . S
C481 H498 0.929 . S
C482 C477 1.383 . S
C482 C478 1.389 . S
C482 H499 0.931 . S
C483 O468 1.266 . S
C483 O469 1.248 . S
C484 Tb420 2.802 . S
C484 O464 1.264 . S
C484 O467 1.256 . S
C484 C477 1.496 . S
C485 C452 1.448 . S
C485 H462 0.930 . S
C485 C486 1.328 . S
C486 C457 1.427 . S
C486 H463 0.929 . S
C486 C485 1.328 . S
C487 O471 1.264 . S
C487 O472 1.243 . S
C488 C491 1.399 . S
C488 C492 1.383 . S
C488 C495 1.496 . S
C489 C490 1.399 . S
C489 C492 1.389 1_565 S
C490 C489 1.399 . S
C490 C493 1.380 . S
C490 H500 0.929 . S
C491 C488 1.399 . S
C491 C493 1.392 1_545 S
C491 H501 0.929 . S
C492 C488 1.383 . S
C492 C489 1.389 1_545 S
C492 H502 0.931 . S
C493 C490 1.380 . S
C493 C491 1.392 1_565 S
C493 H503 0.929 . S
C494 O474 1.266 . S
C494 O475 1.248 . S
C495 Tb431 2.802 . S
C495 O470 1.264 . S
C495 O473 1.256 . S
C495 C488 1.496 . S
H496 C479 0.929 . S
H497 C480 0.929 . S
H498 C481 0.929 . S
H499 C482 0.931 . S
H500 C490 0.929 . S
H501 C491 0.929 . S
H502 C492 0.931 . S
H503 C493 0.929 . S
Tb504 N533 2.617 . S
Tb504 N539 2.572 . S
Tb504 O548 2.465 . S
Tb504 O549 2.387 . S
Tb504 O551 2.428 . S
Tb504 O552 2.308 . S
Tb504 O556 2.349 . S
Tb504 O559 2.393 . S
Tb504 C568 2.802 . S
C505 N506 1.379 . S
C505 C508 1.416 . S
C505 C512 1.424 . S
N506 C505 1.379 . S
N506 C509 1.334 . S
N506 Tb515 2.617 . S
C507 C509 1.390 . S
C507 C510 1.339 . S
C507 H527 0.930 . S
C508 C505 1.416 . S
C508 C510 1.416 . S
C508 C514 1.448 . S
C509 N506 1.334 . S
C509 C507 1.390 . S
C509 H520 0.930 . S
C510 C507 1.339 . S
C510 C508 1.416 . S
C510 H531 0.930 . S
C511 C512 1.413 . S
C511 C513 1.427 . S
C511 C517 1.416 . S
C512 C505 1.424 . S
C512 C511 1.413 . S
C512 N516 1.361 . S
C513 C511 1.427 . S
C513 C514 1.328 . S
C513 H528 0.929 . S
C514 C508 1.448 . S
C514 C513 1.328 . S
C514 H529 0.930 . S
Tb515 N506 2.617 . S
Tb515 N516 2.572 . S
Tb515 O550 2.349 . S
Tb515 O553 2.393 . S
Tb515 O554 2.465 . S
Tb515 O555 2.387 . S
Tb515 O557 2.428 . S
Tb515 O558 2.308 . S
Tb515 C579 2.802 . S
N516 C512 1.361 . S
N516 Tb515 2.572 . S
N516 C518 1.340 . S
C517 C511 1.416 . S
C517 C519 1.332 . S
C517 H525 0.931 . S
C518 N516 1.340 . S
C518 C519 1.407 . S
C518 H524 0.930 . S
C519 C517 1.332 . S
C519 C518 1.407 . S
C519 H521 0.929 . S
H520 C509 0.930 . S
H521 C519 0.929 . S
H522 C537 0.930 . S
H523 C544 0.929 . S
H524 C518 0.930 . S
H525 C517 0.931 . S
H526 C540 0.930 . S
H527 C507 0.930 . S
H528 C513 0.929 . S
H529 C514 0.930 . S
H530 C535 0.930 . S
H531 C510 0.930 . S
H532 C543 0.892 1_655 S
N533 Tb504 2.617 . S
N533 C534 1.379 . S
N533 C537 1.334 . S
C534 N533 1.379 . S
C534 C536 1.416 . S
C534 C542 1.424 . S
C535 H530 0.930 . S
C535 C537 1.390 . S
C535 C538 1.339 . S
C536 C534 1.416 . S
C536 C538 1.416 . S
C536 C569 1.500 . S
C537 H522 0.930 . S
C537 N533 1.334 . S
C537 C535 1.390 . S
C538 C535 1.339 . S
C538 C536 1.416 . S
C538 H545 0.930 . S
N539 Tb504 2.572 . S
N539 C540 1.340 . S
N539 C542 1.361 . S
C540 H526 0.930 . S
C540 N539 1.340 . S
C540 C544 1.407 . S
C541 C542 1.413 . S
C541 C543 1.416 . S
C541 C570 1.427 1_455 S
C542 C534 1.424 . S
C542 N539 1.361 . S
C542 C541 1.413 . S
C543 H532 0.892 1_455 S
C543 C541 1.416 . S
C543 C544 1.332 . S
C544 H523 0.929 . S
C544 C540 1.407 . S
C544 C543 1.332 . S
H545 C538 0.930 . S
H546 C569 0.888 1_655 S
H547 C570 0.929 . S
O548 Tb504 2.465 . S
O548 C568 1.264 . S
O549 Tb504 2.387 . S
O549 C560 1.264 . S
O550 Tb515 2.349 . S
O550 C560 1.243 . S
O551 Tb504 2.428 . S
O551 C568 1.256 . S
O552 Tb504 2.308 . S
O552 C567 1.266 . S
O553 Tb515 2.393 . S
O553 C567 1.248 . S
O554 Tb515 2.465 . S
O554 C579 1.264 . S
O555 Tb515 2.387 . S
O555 C571 1.264 . S
O556 Tb504 2.349 . S
O556 C571 1.243 . S
O557 Tb515 2.428 . S
O557 C579 1.256 . S
O558 Tb515 2.308 . S
O558 C578 1.266 . S
O559 Tb504 2.393 . S
O559 C578 1.248 . S
C560 O549 1.264 . S
C560 O550 1.243 . S
C561 C564 1.399 . S
C561 C566 1.383 . S
C561 C568 1.496 . S
C562 C563 1.399 . S
C562 C566 1.389 . S
C563 C562 1.399 . S
C563 C565 1.380 . S
C563 H580 0.929 . S
C564 C561 1.399 . S
C564 C565 1.392 . S
C564 H581 0.929 . S
C565 C563 1.380 . S
C565 C564 1.392 . S
C565 H582 0.929 . S
C566 C561 1.383 . S
C566 C562 1.389 . S
C566 H583 0.931 . S
C567 O552 1.266 . S
C567 O553 1.248 . S
C568 Tb504 2.802 . S
C568 O548 1.264 . S
C568 O551 1.256 . S
C568 C561 1.496 . S
C569 C536 1.500 . S
C569 H546 0.888 1_455 S
C569 C570 1.319 1_455 S
C570 C541 1.427 1_655 S
C570 H547 0.929 . S
C570 C569 1.319 1_655 S
C571 O555 1.264 . S
C571 O556 1.243 . S
C572 C575 1.399 . S
C572 C576 1.383 . S
C572 C579 1.496 . S
C573 C574 1.399 . S
C573 C576 1.389 . S
C574 C573 1.399 . S
C574 C577 1.380 . S
C574 H584 0.929 . S
C575 C572 1.399 . S
C575 C577 1.392 . S
C575 H585 0.929 . S
C576 C572 1.383 . S
C576 C573 1.389 . S
C576 H586 0.931 . S
C577 C574 1.380 . S
C577 C575 1.392 . S
C577 H587 0.929 . S
C578 O558 1.266 . S
C578 O559 1.248 . S
C579 Tb515 2.802 . S
C579 O554 1.264 . S
C579 O557 1.256 . S
C579 C572 1.496 . S
H580 C563 0.929 . S
H581 C564 0.929 . S
H582 C565 0.929 . S
H583 C566 0.931 . S
H584 C574 0.929 . S
H585 C575 0.929 . S
H586 C576 0.931 . S
H587 C577 0.929 . S
Tb588 N617 2.617 . S
Tb588 N623 2.572 . S
Tb588 O632 2.465 . S
Tb588 O633 2.387 . S
Tb588 O635 2.428 . S
Tb588 O636 2.308 . S
Tb588 O640 2.349 1_565 S
Tb588 O643 2.411 . S
Tb588 C652 2.802 . S
C589 N590 1.379 . S
C589 C592 1.416 . S
C589 C596 1.424 . S
N590 C589 1.379 . S
N590 C593 1.334 . S
N590 Tb599 2.617 . S
C591 C593 1.390 . S
C591 C594 1.339 . S
C591 H611 0.930 . S
C592 C589 1.416 . S
C592 C594 1.416 . S
C592 C598 1.448 . S
C593 N590 1.334 . S
C593 C591 1.390 . S
C593 H604 0.930 . S
C594 C591 1.339 . S
C594 C592 1.416 . S
C594 H615 0.930 . S
C595 C596 1.413 . S
C595 C597 1.427 . S
C595 C601 1.416 . S
C596 C589 1.424 . S
C596 C595 1.413 . S
C596 N600 1.361 . S
C597 C595 1.427 . S
C597 C598 1.328 . S
C597 H612 0.929 . S
C598 C592 1.448 . S
C598 C597 1.328 . S
C598 H613 0.930 . S
Tb599 N590 2.617 . S
Tb599 N600 2.572 . S
Tb599 O634 2.349 . S
Tb599 O637 2.393 . S
Tb599 O638 2.465 . S
Tb599 O639 2.387 . S
Tb599 O641 2.428 . S
Tb599 O642 2.308 . S
Tb599 C663 2.802 . S
N600 C596 1.361 . S
N600 Tb599 2.572 . S
N600 C602 1.340 . S
C601 C595 1.416 . S
C601 C603 1.332 . S
C601 H609 0.931 . S
C602 N600 1.340 . S
C602 C603 1.407 . S
C602 H608 0.930 . S
C603 C601 1.332 . S
C603 C602 1.407 . S
C603 H605 0.929 . S
H604 C593 0.930 . S
H605 C603 0.929 . S
H606 C621 0.930 . S
H607 C628 0.929 . S
H608 C602 0.930 . S
H609 C601 0.931 . S
H610 C624 0.930 . S
H611 C591 0.930 . S
H612 C597 0.929 . S
H613 C598 0.930 . S
H614 C619 0.930 . S
H615 C594 0.930 . S
H616 C627 0.931 . S
N617 Tb588 2.617 . S
N617 C618 1.379 . S
N617 C621 1.334 . S
C618 N617 1.379 . S
C618 C620 1.416 . S
C618 C626 1.424 . S
C619 H614 0.930 . S
C619 C621 1.390 . S
C619 C622 1.339 . S
C620 C618 1.416 . S
C620 C622 1.416 . S
C620 C653 1.448 . S
C621 H606 0.930 . S
C621 N617 1.334 . S
C621 C619 1.390 . S
C622 C619 1.339 . S
C622 C620 1.416 . S
C622 H629 0.930 . S
N623 Tb588 2.572 . S
N623 C624 1.340 . S
N623 C626 1.361 . S
C624 H610 0.930 . S
C624 N623 1.340 . S
C624 C628 1.407 . S
C625 C626 1.413 . S
C625 C627 1.416 . S
C625 C654 1.427 . S
C626 C618 1.424 . S
C626 N623 1.361 . S
C626 C625 1.413 . S
C627 H616 0.931 . S
C627 C625 1.416 . S
C627 C628 1.332 . S
C628 H607 0.929 . S
C628 C624 1.407 . S
C628 C627 1.332 . S
H629 C622 0.930 . S
H630 C653 0.930 . S
H631 C654 0.929 . S
O632 Tb588 2.465 . S
O632 C652 1.264 . S
O633 Tb588 2.387 . S
O633 C644 1.264 . S
O634 Tb599 2.349 . S
O634 C644 1.243 1_545 S
O635 Tb588 2.428 . S
O635 C652 1.256 . S
O636 Tb588 2.308 . S
O636 C651 1.270 . S
O637 Tb599 2.393 . S
O637 C651 1.243 1_545 S
O638 Tb599 2.465 . S
O638 C663 1.264 . S
O639 Tb599 2.387 . S
O639 C655 1.264 . S
O640 Tb588 2.349 1_545 S
O640 C655 1.243 . S
O641 Tb599 2.428 . S
O641 C663 1.256 . S
O642 Tb599 2.308 . S
O642 C662 1.266 . S
O643 Tb588 2.411 . S
O643 C662 1.221 1_565 S
C644 O633 1.264 . S
C644 O634 1.243 1_565 S
C645 C648 1.399 . S
C645 C650 1.383 . S
C645 C652 1.496 . S
C646 C647 1.399 . S
C646 C650 1.389 . S
C647 C646 1.399 . S
C647 C649 1.380 . S
C647 H664 0.929 . S
C648 C645 1.399 . S
C648 C649 1.392 . S
C648 H665 0.929 . S
C649 C647 1.380 . S
C649 C648 1.392 . S
C649 H666 0.929 . S
C650 C645 1.383 . S
C650 C646 1.389 . S
C650 H667 0.931 . S
C651 O636 1.270 . S
C651 O637 1.243 1_565 S
C652 Tb588 2.802 . S
C652 O632 1.264 . S
C652 O635 1.256 . S
C652 C645 1.496 . S
C653 C620 1.448 . S
C653 H630 0.930 . S
C653 C654 1.328 . S
C654 C625 1.427 . S
C654 H631 0.929 . S
C654 C653 1.328 . S
C655 O639 1.264 . S
C655 O640 1.243 . S
C656 C659 1.399 . S
C656 C660 1.383 . S
C656 C663 1.496 . S
C657 C658 1.399 . S
C657 C660 1.389 . S
C658 C657 1.399 . S
C658 C661 1.380 . S
C658 H668 0.929 . S
C659 C656 1.399 . S
C659 C661 1.392 . S
C659 H669 0.929 . S
C660 C656 1.383 . S
C660 C657 1.389 . S
C660 H670 0.931 . S
C661 C658 1.380 . S
C661 C659 1.392 . S
C661 H671 0.929 . S
C662 O642 1.266 . S
C662 O643 1.221 1_545 S
C663 Tb599 2.802 . S
C663 O638 1.264 . S
C663 O641 1.256 . S
C663 C656 1.496 . S
H664 C647 0.929 . S
H665 C648 0.929 . S
H666 C649 0.929 . S
H667 C650 0.931 . S
H668 C658 0.929 . S
H669 C659 0.929 . S
H670 C660 0.931 . S
H671 C661 0.929 . S
Tb672 N701 2.617 . S
Tb672 N707 2.572 . S
Tb672 O716 2.465 . S
Tb672 O717 2.387 . S
Tb672 O719 2.428 . S
Tb672 O720 2.308 . S
Tb672 O724 2.349 . S
Tb672 O727 2.393 . S
Tb672 C736 2.802 . S
C673 N674 1.379 1_565 S
C673 C676 1.416 . S
C673 C680 1.424 . S
N674 C673 1.379 1_545 S
N674 C677 1.334 . S
N674 Tb683 2.617 . S
C675 C677 1.390 1_565 S
C675 C678 1.339 . S
C675 H695 0.930 . S
C676 C673 1.416 . S
C676 C678 1.416 . S
C676 C682 1.448 . S
C677 N674 1.334 . S
C677 C675 1.390 1_545 S
C677 H688 0.930 . S
C678 C675 1.339 . S
C678 C676 1.416 . S
C678 H699 0.930 . S
C679 C680 1.413 . S
C679 C681 1.427 . S
C679 C685 1.416 . S
C680 C673 1.424 . S
C680 C679 1.413 . S
C680 N684 1.361 . S
C681 C679 1.427 . S
C681 C682 1.328 . S
C681 H696 0.929 . S
C682 C676 1.448 . S
C682 C681 1.328 . S
C682 H697 0.930 . S
Tb683 N674 2.617 . S
Tb683 N684 2.572 1_545 S
Tb683 O718 2.349 . S
Tb683 O721 2.393 . S
Tb683 O722 2.465 . S
Tb683 O723 2.387 . S
Tb683 O725 2.428 . S
Tb683 O726 2.308 . S
Tb683 C747 2.802 . S
N684 C680 1.361 . S
N684 Tb683 2.572 1_565 S
N684 C686 1.340 . S
C685 C679 1.416 . S
C685 C687 1.332 . S
C685 H693 0.931 . S
C686 N684 1.340 . S
C686 C687 1.407 . S
C686 H692 0.890 1_565 S
C687 C685 1.332 . S
C687 C686 1.407 . S
C687 H689 0.929 . S
H688 C677 0.930 . S
H689 C687 0.929 . S
H690 C705 0.930 . S
H691 C712 0.929 . S
H692 C686 0.890 1_545 S
H693 C685 0.931 . S
H694 C708 0.930 . S
H695 C675 0.930 . S
H696 C681 0.929 . S
H697 C682 0.930 . S
H698 C703 0.930 . S
H699 C678 0.930 . S
H700 C711 0.931 . S
N701 Tb672 2.617 . S
N701 C702 1.379 . S
N701 C705 1.334 . S
C702 N701 1.379 . S
C702 C704 1.416 . S
C702 C710 1.424 . S
C703 H698 0.930 . S
C703 C705 1.390 . S
C703 C706 1.339 . S
C704 C702 1.416 . S
C704 C706 1.416 . S
C704 C737 1.448 . S
C705 H690 0.930 . S
C705 N701 1.334 . S
C705 C703 1.390 . S
C706 C703 1.339 . S
C706 C704 1.416 . S
C706 H713 0.930 . S
N707 Tb672 2.572 . S
N707 C708 1.340 . S
N707 C710 1.361 . S
C708 H694 0.930 . S
C708 N707 1.340 . S
C708 C712 1.407 . S
C709 C710 1.413 . S
C709 C711 1.416 . S
C709 C738 1.427 . S
C710 C702 1.424 . S
C710 N707 1.361 . S
C710 C709 1.413 . S
C711 H700 0.931 . S
C711 C709 1.416 . S
C711 C712 1.332 . S
C712 H691 0.929 . S
C712 C708 1.407 . S
C712 C711 1.332 . S
H713 C706 0.930 . S
H714 C737 0.930 . S
H715 C738 0.929 . S
O716 Tb672 2.465 . S
O716 C736 1.264 . S
O717 Tb672 2.387 . S
O717 C728 1.264 . S
O718 Tb683 2.349 . S
O718 C728 1.243 . S
O719 Tb672 2.428 . S
O719 C736 1.256 . S
O720 Tb672 2.308 . S
O720 C735 1.266 . S
O721 Tb683 2.393 . S
O721 C735 1.248 . S
O722 Tb683 2.465 . S
O722 C747 1.264 . S
O723 Tb683 2.387 . S
O723 C739 1.264 . S
O724 Tb672 2.349 . S
O724 C739 1.243 . S
O725 Tb683 2.428 . S
O725 C747 1.256 . S
O726 Tb683 2.308 . S
O726 C746 1.266 . S
O727 Tb672 2.393 . S
O727 C746 1.248 . S
C728 O717 1.264 . S
C728 O718 1.243 . S
C729 C732 1.399 . S
C729 C734 1.383 . S
C729 C736 1.496 . S
C730 C731 1.399 . S
C730 C734 1.389 . S
C731 C730 1.399 . S
C731 C733 1.380 . S
C731 H748 0.929 . S
C732 C729 1.399 . S
C732 C733 1.392 . S
C732 H749 0.929 . S
C733 C731 1.380 . S
C733 C732 1.392 . S
C733 H750 0.929 . S
C734 C729 1.383 . S
C734 C730 1.389 . S
C734 H751 0.931 . S
C735 O720 1.266 . S
C735 O721 1.248 . S
C736 Tb672 2.802 . S
C736 O716 1.264 . S
C736 O719 1.256 . S
C736 C729 1.496 . S
C737 C704 1.448 . S
C737 H714 0.930 . S
C737 C738 1.328 . S
C738 C709 1.427 . S
C738 H715 0.929 . S
C738 C737 1.328 . S
C739 O723 1.264 . S
C739 O724 1.243 . S
C740 C743 1.399 . S
C740 C744 1.383 . S
C740 C747 1.496 . S
C741 C742 1.399 . S
C741 C744 1.389 1_565 S
C742 C741 1.399 . S
C742 C745 1.380 . S
C742 H752 0.929 . S
C743 C740 1.399 . S
C743 C745 1.392 1_545 S
C743 H753 0.929 . S
C744 C740 1.383 . S
C744 C741 1.389 1_545 S
C744 H754 0.931 . S
C745 C742 1.380 . S
C745 C743 1.392 1_565 S
C745 H755 0.929 . S
C746 O726 1.266 . S
C746 O727 1.248 . S
C747 Tb683 2.802 . S
C747 O722 1.264 . S
C747 O725 1.256 . S
C747 C740 1.496 . S
H748 C731 0.929 . S
H749 C732 0.929 . S
H750 C733 0.929 . S
H751 C734 0.931 . S
H752 C742 0.929 . S
H753 C743 0.929 . S
H754 C744 0.931 . S
H755 C745 0.929 . S
Tb756 N785 2.617 . S
Tb756 N791 2.572 . S
Tb756 O800 2.465 . S
Tb756 O801 2.387 . S
Tb756 O803 2.428 . S
Tb756 O804 2.308 . S
Tb756 O808 2.349 . S
Tb756 O811 2.393 . S
Tb756 C820 2.802 . S
C757 N758 1.379 . S
C757 C760 1.416 . S
C757 C764 1.424 . S
N758 C757 1.379 . S
N758 C761 1.334 . S
N758 Tb767 2.617 . S
C759 C761 1.390 . S
C759 C762 1.339 . S
C759 H779 0.930 . S
C760 C757 1.416 . S
C760 C762 1.416 . S
C760 C766 1.448 . S
C761 N758 1.334 . S
C761 C759 1.390 . S
C761 H772 0.930 . S
C762 C759 1.339 . S
C762 C760 1.416 . S
C762 H783 0.930 . S
C763 C764 1.413 . S
C763 C765 1.427 . S
C763 C769 1.416 . S
C764 C757 1.424 . S
C764 C763 1.413 . S
C764 N768 1.361 . S
C765 C763 1.427 . S
C765 C766 1.328 . S
C765 H780 0.929 . S
C766 C760 1.448 . S
C766 C765 1.328 . S
C766 H781 0.930 . S
Tb767 N758 2.617 . S
Tb767 N768 2.572 . S
Tb767 O802 2.349 . S
Tb767 O805 2.393 . S
Tb767 O806 2.465 . S
Tb767 O807 2.387 . S
Tb767 O809 2.428 . S
Tb767 O810 2.308 . S
Tb767 C831 2.802 . S
N768 C764 1.361 . S
N768 Tb767 2.572 . S
N768 C770 1.340 . S
C769 C763 1.416 . S
C769 C771 1.332 . S
C769 H777 0.931 . S
C770 N768 1.340 . S
C770 C771 1.407 . S
C770 H776 0.930 . S
C771 C769 1.332 . S
C771 C770 1.407 . S
C771 H773 0.929 . S
H772 C761 0.930 . S
H773 C771 0.929 . S
H774 C789 0.930 . S
H775 C796 0.929 . S
H776 C770 0.930 . S
H777 C769 0.931 . S
H778 C792 0.930 . S
H779 C759 0.930 . S
H780 C765 0.929 . S
H781 C766 0.930 . S
H782 C787 0.930 . S
H783 C762 0.930 . S
H784 C795 0.931 . S
N785 Tb756 2.617 . S
N785 C786 1.379 1_455 S
N785 C789 1.334 . S
C786 N785 1.379 1_655 S
C786 C788 1.416 . S
C786 C794 1.424 . S
C787 H782 0.930 . S
C787 C789 1.390 1_655 S
C787 C790 1.339 . S
C788 C786 1.416 . S
C788 C790 1.416 . S
C788 C821 1.448 . S
C789 H774 0.930 . S
C789 N785 1.334 . S
C789 C787 1.390 1_455 S
C790 C787 1.339 . S
C790 C788 1.416 . S
C790 H797 0.930 . S
N791 Tb756 2.572 . S
N791 C792 1.340 . S
N791 C794 1.361 1_455 S
C792 H778 0.930 . S
C792 N791 1.340 . S
C792 C796 1.407 1_455 S
C793 C794 1.413 . S
C793 C795 1.416 . S
C793 C822 1.427 . S
C794 C786 1.424 . S
C794 N791 1.361 1_655 S
C794 C793 1.413 . S
C795 H784 0.931 . S
C795 C793 1.416 . S
C795 C796 1.332 . S
C796 H775 0.929 . S
C796 C792 1.407 1_655 S
C796 C795 1.332 . S
H797 C790 0.930 . S
H798 C821 0.930 . S
H799 C822 0.929 . S
O800 Tb756 2.465 . S
O800 C820 1.264 . S
O801 Tb756 2.387 . S
O801 C812 1.264 . S
O802 Tb767 2.349 . S
O802 C812 1.243 . S
O803 Tb756 2.428 . S
O803 C820 1.256 . S
O804 Tb756 2.308 . S
O804 C819 1.266 . S
O805 Tb767 2.393 . S
O805 C819 1.248 . S
O806 Tb767 2.465 . S
O806 C831 1.264 . S
O807 Tb767 2.387 . S
O807 C823 1.264 . S
O808 Tb756 2.349 . S
O808 C823 1.243 . S
O809 Tb767 2.428 . S
O809 C831 1.256 . S
O810 Tb767 2.308 . S
O810 C830 1.266 . S
O811 Tb756 2.393 . S
O811 C830 1.248 . S
C812 O801 1.264 . S
C812 O802 1.243 . S
C813 C816 1.399 . S
C813 C818 1.383 . S
C813 C820 1.496 . S
C814 C815 1.386 1_455 S
C814 C818 1.412 . S
C815 C814 1.386 1_655 S
C815 C817 1.380 . S
C815 H832 0.929 . S
C816 C813 1.399 . S
C816 C817 1.392 1_455 S
C816 H833 0.929 . S
C817 C815 1.380 . S
C817 C816 1.392 1_655 S
C817 H834 0.929 . S
C818 C813 1.383 . S
C818 C814 1.412 . S
C818 H835 0.931 . S
C819 O804 1.266 . S
C819 O805 1.248 . S
C820 Tb756 2.802 . S
C820 O800 1.264 . S
C820 O803 1.256 . S
C820 C813 1.496 . S
C821 C788 1.448 . S
C821 H798 0.930 . S
C821 C822 1.328 . S
C822 C793 1.427 . S
C822 H799 0.929 . S
C822 C821 1.328 . S
C823 O807 1.264 . S
C823 O808 1.243 . S
C824 C827 1.399 . S
C824 C828 1.383 . S
C824 C831 1.496 . S
C825 C826 1.399 . S
C825 C828 1.389 . S
C826 C825 1.399 . S
C826 C829 1.380 . S
C826 H836 0.929 . S
C827 C824 1.399 . S
C827 C829 1.392 . S
C827 H837 0.929 . S
C828 C824 1.383 . S
C828 C825 1.389 . S
C828 H838 0.931 . S
C829 C826 1.380 . S
C829 C827 1.392 . S
C829 H839 0.929 . S
C830 O810 1.266 . S
C830 O811 1.248 . S
C831 Tb767 2.802 . S
C831 O806 1.264 . S
C831 O809 1.256 . S
C831 C824 1.496 . S
H832 C815 0.929 . S
H833 C816 0.929 . S
H834 C817 0.929 . S
H835 C818 0.931 . S
H836 C826 0.929 . S
H837 C827 0.929 . S
H838 C828 0.931 . S
H839 C829 0.929 . S
Tb840 N869 2.617 1_545 S
Tb840 N875 2.572 1_545 S
Tb840 O884 2.465 . S
Tb840 O885 2.387 . S
Tb840 O887 2.428 . S
Tb840 O888 2.308 . S
Tb840 O892 2.349 . S
Tb840 O895 2.393 . S
Tb840 C904 2.802 . S
C841 N842 1.379 . S
C841 C844 1.416 . S
C841 C848 1.424 . S
N842 C841 1.379 . S
N842 C845 1.334 . S
N842 Tb851 2.617 . S
C843 C845 1.390 . S
C843 C846 1.339 . S
C843 H863 0.930 . S
C844 C841 1.416 . S
C844 C846 1.416 . S
C844 C850 1.448 . S
C845 N842 1.334 . S
C845 C843 1.390 . S
C845 H856 0.930 . S
C846 C843 1.339 . S
C846 C844 1.416 . S
C846 H867 0.930 . S
C847 C848 1.413 . S
C847 C849 1.427 . S
C847 C853 1.416 . S
C848 C841 1.424 . S
C848 C847 1.413 . S
C848 N852 1.361 . S
C849 C847 1.427 . S
C849 C850 1.328 . S
C849 H864 0.929 . S
C850 C844 1.448 . S
C850 C849 1.328 . S
C850 H865 0.930 . S
Tb851 N842 2.617 . S
Tb851 N852 2.572 . S
Tb851 O886 2.349 . S
Tb851 O889 2.393 . S
Tb851 O890 2.465 . S
Tb851 O891 2.387 . S
Tb851 O893 2.428 . S
Tb851 O894 2.308 . S
Tb851 C915 2.802 . S
N852 C848 1.361 . S
N852 Tb851 2.572 . S
N852 C854 1.340 . S
C853 C847 1.416 . S
C853 C855 1.332 . S
C853 H861 0.931 . S
C854 N852 1.340 . S
C854 C855 1.407 . S
C854 H860 0.930 . S
C855 C853 1.332 . S
C855 C854 1.407 . S
C855 H857 0.929 . S
H856 C845 0.930 . S
H857 C855 0.929 . S
H858 C873 0.930 1_545 S
H859 C880 0.929 . S
H860 C854 0.930 . S
H861 C853 0.931 . S
H862 C876 0.930 . S
H863 C843 0.930 . S
H864 C849 0.929 . S
H865 C850 0.930 . S
H866 C871 0.930 . S
H867 C846 0.930 . S
H868 C879 0.931 . S
N869 Tb840 2.617 1_565 S
N869 C870 1.379 . S
N869 C873 1.334 . S
C870 N869 1.379 . S
C870 C872 1.416 . S
C870 C878 1.424 . S
C871 H866 0.930 . S
C871 C873 1.390 . S
C871 C874 1.339 . S
C872 C870 1.416 . S
C872 C874 1.416 . S
C872 C905 1.448 . S
C873 H858 0.930 1_565 S
C873 N869 1.334 . S
C873 C871 1.390 . S
C874 C871 1.339 . S
C874 C872 1.416 . S
C874 H881 0.930 . S
N875 Tb840 2.572 1_565 S
N875 C876 1.340 . S
N875 C878 1.361 . S
C876 H862 0.930 . S
C876 N875 1.340 . S
C876 C880 1.407 . S
C877 C878 1.413 . S
C877 C879 1.416 . S
C877 C906 1.427 . S
C878 C870 1.424 . S
C878 N875 1.361 . S
C878 C877 1.413 . S
C879 H868 0.931 . S
C879 C877 1.416 . S
C879 C880 1.332 . S
C880 H859 0.929 . S
C880 C876 1.407 . S
C880 C879 1.332 . S
H881 C874 0.930 . S
H882 C905 0.930 . S
H883 C906 0.929 . S
O884 Tb840 2.465 . S
O884 C904 1.264 . S
O885 Tb840 2.387 . S
O885 C896 1.264 . S
O886 Tb851 2.349 . S
O886 C896 1.243 . S
O887 Tb840 2.428 . S
O887 C904 1.256 . S
O888 Tb840 2.308 . S
O888 C903 1.266 . S
O889 Tb851 2.393 . S
O889 C903 1.248 . S
O890 Tb851 2.465 . S
O890 C915 1.264 . S
O891 Tb851 2.387 . S
O891 C907 1.264 . S
O892 Tb840 2.349 . S
O892 C907 1.243 . S
O893 Tb851 2.428 . S
O893 C915 1.256 . S
O894 Tb851 2.308 . S
O894 C914 1.266 . S
O895 Tb840 2.393 . S
O895 C914 1.248 . S
C896 O885 1.264 . S
C896 O886 1.243 . S
C897 C900 1.399 . S
C897 C902 1.383 . S
C897 C904 1.496 1_565 S
C898 C899 1.399 . S
C898 C902 1.389 . S
C899 C898 1.399 . S
C899 C901 1.380 . S
C899 H916 0.929 . S
C900 C897 1.399 . S
C900 C901 1.392 . S
C900 H917 0.929 . S
C901 C899 1.380 . S
C901 C900 1.392 . S
C901 H918 0.929 . S
C902 C897 1.383 . S
C902 C898 1.389 . S
C902 H919 0.931 . S
C903 O888 1.266 . S
C903 O889 1.248 . S
C904 Tb840 2.802 . S
C904 O884 1.264 . S
C904 O887 1.256 . S
C904 C897 1.496 1_545 S
C905 C872 1.448 . S
C905 H882 0.930 . S
C905 C906 1.328 . S
C906 C877 1.427 . S
C906 H883 0.929 . S
C906 C905 1.328 . S
C907 O891 1.264 . S
C907 O892 1.243 . S
C908 C911 1.399 . S
C908 C912 1.383 . S
C908 C915 1.496 . S
C909 C910 1.399 . S
C909 C912 1.389 . S
C910 C909 1.399 . S
C910 C913 1.380 . S
C910 H920 0.929 . S
C911 C908 1.399 . S
C911 C913 1.392 . S
C911 H921 0.929 . S
C912 C908 1.383 . S
C912 C909 1.389 . S
C912 H922 0.931 . S
C913 C910 1.380 . S
C913 C911 1.392 . S
C913 H923 0.929 . S
C914 O894 1.266 . S
C914 O895 1.248 . S
C915 Tb851 2.802 . S
C915 O890 1.264 . S
C915 O893 1.256 . S
C915 C908 1.496 . S
H916 C899 0.929 . S
H917 C900 0.929 . S
H918 C901 0.929 . S
H919 C902 0.931 . S
H920 C910 0.929 . S
H921 C911 0.929 . S
H922 C912 0.931 . S
H923 C913 0.929 . S
Tb924 N953 2.617 . S
Tb924 N959 2.572 . S
Tb924 O968 2.465 . S
Tb924 O969 2.387 . S
Tb924 O971 2.428 . S
Tb924 O972 2.308 . S
Tb924 O976 2.349 . S
Tb924 O979 2.393 . S
Tb924 C988 2.802 . S
C925 N926 1.379 . S
C925 C928 1.416 . S
C925 C932 1.424 . S
N926 C925 1.379 . S
N926 C929 1.334 . S
N926 Tb935 2.617 1_655 S
C927 C929 1.390 . S
C927 C930 1.339 . S
C927 H947 0.930 . S
C928 C925 1.416 . S
C928 C930 1.416 . S
C928 C934 1.448 . S
C929 N926 1.334 . S
C929 C927 1.390 . S
C929 H940 0.930 1_655 S
C930 C927 1.339 . S
C930 C928 1.416 . S
C930 H951 0.930 . S
C931 C932 1.413 . S
C931 C933 1.427 . S
C931 C937 1.416 . S
C932 C925 1.424 . S
C932 C931 1.413 . S
C932 N936 1.361 . S
C933 C931 1.427 . S
C933 C934 1.328 . S
C933 H948 0.929 . S
C934 C928 1.448 . S
C934 C933 1.328 . S
C934 H949 0.930 . S
Tb935 N926 2.617 1_455 S
Tb935 N936 2.572 1_455 S
Tb935 O970 2.349 . S
Tb935 O973 2.393 . S
Tb935 O974 2.465 . S
Tb935 O975 2.387 . S
Tb935 O977 2.428 . S
Tb935 O978 2.308 . S
Tb935 C999 2.802 . S
N936 C932 1.361 . S
N936 Tb935 2.572 1_655 S
N936 C938 1.340 . S
C937 C931 1.416 . S
C937 C939 1.332 . S
C937 H945 0.931 . S
C938 N936 1.340 . S
C938 C939 1.407 . S
C938 H944 0.930 . S
C939 C937 1.332 . S
C939 C938 1.407 . S
C939 H941 0.929 . S
H940 C929 0.930 1_455 S
H941 C939 0.929 . S
H942 C957 0.930 . S
H943 C964 0.929 . S
H944 C938 0.930 . S
H945 C937 0.931 . S
H946 C960 0.930 . S
H947 C927 0.930 . S
H948 C933 0.929 . S
H949 C934 0.930 . S
H950 C955 0.930 . S
H951 C930 0.930 . S
H952 C963 0.931 . S
N953 Tb924 2.617 . S
N953 C954 1.379 . S
N953 C957 1.334 . S
C954 N953 1.379 . S
C954 C956 1.416 . S
C954 C962 1.424 . S
C955 H950 0.930 . S
C955 C957 1.390 . S
C955 C958 1.339 . S
C956 C954 1.416 . S
C956 C958 1.416 . S
C956 C989 1.448 . S
C957 H942 0.930 . S
C957 N953 1.334 . S
C957 C955 1.390 . S
C958 C955 1.339 . S
C958 C956 1.416 . S
C958 H965 0.930 . S
N959 Tb924 2.572 . S
N959 C960 1.340 . S
N959 C962 1.361 . S
C960 H946 0.930 . S
C960 N959 1.340 . S
C960 C964 1.407 . S
C961 C962 1.413 . S
C961 C963 1.416 . S
C961 C990 1.427 . S
C962 C954 1.424 . S
C962 N959 1.361 . S
C962 C961 1.413 . S
C963 H952 0.931 . S
C963 C961 1.416 . S
C963 C964 1.332 . S
C964 H943 0.929 . S
C964 C960 1.407 . S
C964 C963 1.332 . S
H965 C958 0.930 . S
H966 C989 0.930 . S
H967 C990 0.929 . S
O968 Tb924 2.465 . S
O968 C988 1.264 . S
O969 Tb924 2.387 . S
O969 C980 1.264 . S
O970 Tb935 2.349 . S
O970 C980 1.243 . S
O971 Tb924 2.428 . S
O971 C988 1.256 . S
O972 Tb924 2.308 . S
O972 C987 1.266 . S
O973 Tb935 2.393 . S
O973 C987 1.248 . S
O974 Tb935 2.465 . S
O974 C999 1.264 . S
O975 Tb935 2.387 . S
O975 C991 1.264 . S
O976 Tb924 2.349 . S
O976 C991 1.243 . S
O977 Tb935 2.428 . S
O977 C999 1.256 . S
O978 Tb935 2.308 . S
O978 C998 1.266 . S
O979 Tb924 2.393 . S
O979 C998 1.248 . S
C980 O969 1.264 . S
C980 O970 1.243 . S
C981 C984 1.399 . S
C981 C986 1.383 . S
C981 C988 1.496 . S
C982 C983 1.399 . S
C982 C986 1.389 . S
C983 C982 1.399 . S
C983 C985 1.380 . S
C983 H1000 0.929 . S
C984 C981 1.399 . S
C984 C985 1.392 . S
C984 H1001 0.929 . S
C985 C983 1.380 . S
C985 C984 1.392 . S
C985 H1002 0.929 . S
C986 C981 1.383 . S
C986 C982 1.389 . S
C986 H1003 0.931 . S
C987 O972 1.266 . S
C987 O973 1.248 . S
C988 Tb924 2.802 . S
C988 O968 1.264 . S
C988 O971 1.256 . S
C988 C981 1.496 . S
C989 C956 1.448 . S
C989 H966 0.930 . S
C989 C990 1.328 . S
C990 C961 1.427 . S
C990 H967 0.929 . S
C990 C989 1.328 . S
C991 O975 1.264 . S
C991 O976 1.243 . S
C992 C995 1.391 1_455 S
C992 C996 1.376 1_455 S
C992 C999 1.512 . S
C993 C994 1.399 . S
C993 C996 1.389 . S
C994 C993 1.399 . S
C994 C997 1.380 . S
C994 H1004 0.929 . S
C995 C992 1.391 1_655 S
C995 C997 1.392 . S
C995 H1005 0.929 . S
C996 C992 1.376 1_655 S
C996 C993 1.389 . S
C996 H1006 0.931 1_655 S
C997 C994 1.380 . S
C997 C995 1.392 . S
C997 H1007 0.929 . S
C998 O978 1.266 . S
C998 O979 1.248 . S
C999 Tb935 2.802 . S
C999 O974 1.264 . S
C999 O977 1.256 . S
C999 C992 1.512 . S
H1000 C983 0.929 . S
H1001 C984 0.929 . S
H1002 C985 0.929 . S
H1003 C986 0.931 . S
H1004 C994 0.929 . S
H1005 C995 0.929 . S
H1006 C996 0.931 1_455 S
H1007 C997 0.929 . S
Tb1008 N1037 2.617 1_545 S
Tb1008 N1043 2.572 1_545 S
Tb1008 O1052 2.465 1_545 S
Tb1008 O1053 2.387 . S
Tb1008 O1055 2.428 1_545 S
Tb1008 O1056 2.308 . S
Tb1008 O1060 2.349 . S
Tb1008 O1063 2.393 . S
Tb1008 C1072 2.802 1_545 S
C1009 N1010 1.379 . S
C1009 C1012 1.416 . S
C1009 C1016 1.424 . S
N1010 C1009 1.379 . S
N1010 C1013 1.334 . S
N1010 Tb1019 2.617 . S
C1011 C1013 1.390 . S
C1011 C1014 1.339 . S
C1011 H1031 0.930 . S
C1012 C1009 1.416 . S
C1012 C1014 1.416 . S
C1012 C1018 1.448 . S
C1013 N1010 1.334 . S
C1013 C1011 1.390 . S
C1013 H1024 0.930 . S
C1014 C1011 1.339 . S
C1014 C1012 1.416 . S
C1014 H1035 0.930 . S
C1015 C1016 1.413 . S
C1015 C1017 1.427 . S
C1015 C1021 1.416 . S
C1016 C1009 1.424 . S
C1016 C1015 1.413 . S
C1016 N1020 1.361 . S
C1017 C1015 1.427 . S
C1017 C1018 1.328 . S
C1017 H1032 0.929 . S
C1018 C1012 1.448 . S
C1018 C1017 1.328 . S
C1018 H1033 0.930 . S
Tb1019 N1010 2.617 . S
Tb1019 N1020 2.572 . S
Tb1019 O1054 2.349 . S
Tb1019 O1057 2.393 . S
Tb1019 O1058 2.465 . S
Tb1019 O1059 2.387 . S
Tb1019 O1061 2.428 . S
Tb1019 O1062 2.308 . S
Tb1019 C1083 2.802 . S
N1020 C1016 1.361 . S
N1020 Tb1019 2.572 . S
N1020 C1022 1.340 . S
C1021 C1015 1.416 . S
C1021 C1023 1.332 . S
C1021 H1029 0.931 . S
C1022 N1020 1.340 . S
C1022 C1023 1.407 . S
C1022 H1028 0.930 . S
C1023 C1021 1.332 . S
C1023 C1022 1.407 . S
C1023 H1025 0.929 . S
H1024 C1013 0.930 . S
H1025 C1023 0.929 . S
H1026 C1041 0.930 . S
H1027 C1048 0.929 . S
H1028 C1022 0.930 . S
H1029 C1021 0.931 . S
H1030 C1044 0.930 . S
H1031 C1011 0.930 . S
H1032 C1017 0.929 . S
H1033 C1018 0.930 . S
H1034 C1039 0.930 . S
H1035 C1014 0.930 . S
H1036 C1047 0.931 . S
N1037 Tb1008 2.617 1_565 S
N1037 C1038 1.379 . S
N1037 C1041 1.334 . S
C1038 N1037 1.379 . S
C1038 C1040 1.416 . S
C1038 C1046 1.424 . S
C1039 H1034 0.930 . S
C1039 C1041 1.390 . S
C1039 C1042 1.339 . S
C1040 C1038 1.416 . S
C1040 C1042 1.416 . S
C1040 C1073 1.448 . S
C1041 H1026 0.930 . S
C1041 N1037 1.334 . S
C1041 C1039 1.390 . S
C1042 C1039 1.339 . S
C1042 C1040 1.416 . S
C1042 H1049 0.930 . S
N1043 Tb1008 2.572 1_565 S
N1043 C1044 1.340 . S
N1043 C1046 1.361 . S
C1044 H1030 0.930 . S
C1044 N1043 1.340 . S
C1044 C1048 1.407 . S
C1045 C1046 1.413 . S
C1045 C1047 1.416 . S
C1045 C1074 1.427 . S
C1046 C1038 1.424 . S
C1046 N1043 1.361 . S
C1046 C1045 1.413 . S
C1047 H1036 0.931 . S
C1047 C1045 1.416 . S
C1047 C1048 1.332 . S
C1048 H1027 0.929 . S
C1048 C1044 1.407 . S
C1048 C1047 1.332 . S
H1049 C1042 0.930 . S
H1050 C1073 0.930 . S
H1051 C1074 0.929 . S
O1052 Tb1008 2.465 1_565 S
O1052 C1072 1.264 . S
O1053 Tb1008 2.387 . S
O1053 C1064 1.264 . S
O1054 Tb1019 2.349 . S
O1054 C1064 1.243 . S
O1055 Tb1008 2.428 1_565 S
O1055 C1072 1.256 . S
O1056 Tb1008 2.308 . S
O1056 C1071 1.266 . S
O1057 Tb1019 2.393 . S
O1057 C1071 1.248 . S
O1058 Tb1019 2.465 . S
O1058 C1083 1.264 . S
O1059 Tb1019 2.387 . S
O1059 C1075 1.264 . S
O1060 Tb1008 2.349 . S
O1060 C1075 1.243 . S
O1061 Tb1019 2.428 . S
O1061 C1083 1.256 . S
O1062 Tb1019 2.308 . S
O1062 C1082 1.266 . S
O1063 Tb1008 2.393 . S
O1063 C1082 1.248 . S
C1064 O1053 1.264 . S
C1064 O1054 1.243 . S
C1065 C1068 1.399 . S
C1065 C1070 1.383 . S
C1065 C1072 1.496 . S
C1066 C1067 1.399 . S
C1066 C1070 1.389 . S
C1067 C1066 1.399 . S
C1067 C1069 1.380 . S
C1067 H1084 0.929 . S
C1068 C1065 1.399 . S
C1068 C1069 1.392 . S
C1068 H1085 0.929 . S
C1069 C1067 1.380 . S
C1069 C1068 1.392 . S
C1069 H1086 0.929 . S
C1070 C1065 1.383 . S
C1070 C1066 1.389 . S
C1070 H1087 0.931 . S
C1071 O1056 1.266 . S
C1071 O1057 1.248 . S
C1072 Tb1008 2.802 1_565 S
C1072 O1052 1.264 . S
C1072 O1055 1.256 . S
C1072 C1065 1.496 . S
C1073 C1040 1.448 . S
C1073 H1050 0.930 . S
C1073 C1074 1.328 . S
C1074 C1045 1.427 . S
C1074 H1051 0.929 . S
C1074 C1073 1.328 . S
C1075 O1059 1.264 . S
C1075 O1060 1.243 . S
C1076 C1079 1.399 . S
C1076 C1080 1.383 . S
C1076 C1083 1.496 . S
C1077 C1078 1.399 . S
C1077 C1080 1.389 . S
C1078 C1077 1.399 . S
C1078 C1081 1.380 . S
C1078 H1088 0.929 . S
C1079 C1076 1.399 . S
C1079 C1081 1.392 . S
C1079 H1089 0.929 . S
C1080 C1076 1.383 . S
C1080 C1077 1.389 . S
C1080 H1090 0.931 . S
C1081 C1078 1.380 . S
C1081 C1079 1.392 . S
C1081 H1091 0.929 . S
C1082 O1062 1.266 . S
C1082 O1063 1.248 . S
C1083 Tb1019 2.802 . S
C1083 O1058 1.264 . S
C1083 O1061 1.256 . S
C1083 C1076 1.496 . S
H1084 C1067 0.929 . S
H1085 C1068 0.929 . S
H1086 C1069 0.929 . S
H1087 C1070 0.931 . S
H1088 C1078 0.929 . S
H1089 C1079 0.929 . S
H1090 C1080 0.931 . S
H1091 C1081 0.929 . S
Tb1092 N1121 2.617 . S
Tb1092 N1127 2.572 . S
Tb1092 O1136 2.465 . S
Tb1092 O1137 2.387 . S
Tb1092 O1139 2.428 . S
Tb1092 O1140 2.308 . S
Tb1092 O1144 2.349 . S
Tb1092 O1147 2.393 . S
Tb1092 C1156 2.802 . S
C1093 N1094 1.379 . S
C1093 C1096 1.416 . S
C1093 C1100 1.424 . S
N1094 C1093 1.379 . S
N1094 C1097 1.334 . S
N1094 Tb1103 2.617 1_655 S
C1095 C1097 1.390 . S
C1095 C1098 1.339 . S
C1095 H1115 0.930 . S
C1096 C1093 1.416 . S
C1096 C1098 1.416 . S
C1096 C1102 1.448 . S
C1097 N1094 1.334 . S
C1097 C1095 1.390 . S
C1097 H1108 0.930 1_655 S
C1098 C1095 1.339 . S
C1098 C1096 1.416 . S
C1098 H1119 0.930 . S
C1099 C1100 1.413 . S
C1099 C1101 1.427 . S
C1099 C1105 1.416 . S
C1100 C1093 1.424 . S
C1100 C1099 1.413 . S
C1100 N1104 1.361 . S
C1101 C1099 1.427 . S
C1101 C1102 1.328 . S
C1101 H1116 0.929 . S
C1102 C1096 1.448 . S
C1102 C1101 1.328 . S
C1102 H1117 0.930 . S
Tb1103 N1094 2.617 1_455 S
Tb1103 N1104 2.572 1_455 S
Tb1103 O1138 2.349 . S
Tb1103 O1141 2.393 . S
Tb1103 O1142 2.465 . S
Tb1103 O1143 2.387 . S
Tb1103 O1145 2.428 . S
Tb1103 O1146 2.308 . S
Tb1103 C1167 2.802 . S
N1104 C1100 1.361 . S
N1104 Tb1103 2.572 1_655 S
N1104 C1106 1.340 . S
C1105 C1099 1.416 . S
C1105 C1107 1.332 . S
C1105 H1113 0.931 . S
C1106 N1104 1.340 . S
C1106 C1107 1.407 . S
C1106 H1112 0.930 . S
C1107 C1105 1.332 . S
C1107 C1106 1.407 . S
C1107 H1109 0.929 . S
H1108 C1097 0.930 1_455 S
H1109 C1107 0.929 . S
H1110 C1125 0.930 . S
H1111 C1132 0.929 . S
H1112 C1106 0.930 . S
H1113 C1105 0.931 . S
H1114 C1128 0.930 . S
H1115 C1095 0.930 . S
H1116 C1101 0.929 . S
H1117 C1102 0.930 . S
H1118 C1123 0.930 . S
H1119 C1098 0.930 . S
H1120 C1131 0.931 . S
N1121 Tb1092 2.617 . S
N1121 C1122 1.379 . S
N1121 C1125 1.334 . S
C1122 N1121 1.379 . S
C1122 C1124 1.416 . S
C1122 C1130 1.424 . S
C1123 H1118 0.930 . S
C1123 C1125 1.390 . S
C1123 C1126 1.339 . S
C1124 C1122 1.416 . S
C1124 C1126 1.416 . S
C1124 C1157 1.448 . S
C1125 H1110 0.930 . S
C1125 N1121 1.334 . S
C1125 C1123 1.390 . S
C1126 C1123 1.339 . S
C1126 C1124 1.416 . S
C1126 H1133 0.930 . S
N1127 Tb1092 2.572 . S
N1127 C1128 1.340 . S
N1127 C1130 1.361 . S
C1128 H1114 0.930 . S
C1128 N1127 1.340 . S
C1128 C1132 1.407 . S
C1129 C1130 1.413 . S
C1129 C1131 1.416 . S
C1129 C1158 1.427 . S
C1130 C1122 1.424 . S
C1130 N1127 1.361 . S
C1130 C1129 1.413 . S
C1131 H1120 0.931 . S
C1131 C1129 1.416 . S
C1131 C1132 1.332 . S
C1132 H1111 0.929 . S
C1132 C1128 1.407 . S
C1132 C1131 1.332 . S
H1133 C1126 0.930 . S
H1134 C1157 0.930 . S
H1135 C1158 0.929 . S
O1136 Tb1092 2.465 . S
O1136 C1156 1.264 . S
O1137 Tb1092 2.387 . S
O1137 C1148 1.264 . S
O1138 Tb1103 2.349 . S
O1138 C1148 1.243 . S
O1139 Tb1092 2.428 . S
O1139 C1156 1.256 . S
O1140 Tb1092 2.308 . S
O1140 C1155 1.266 . S
O1141 Tb1103 2.393 . S
O1141 C1155 1.248 . S
O1142 Tb1103 2.465 . S
O1142 C1167 1.264 . S
O1143 Tb1103 2.387 . S
O1143 C1159 1.264 . S
O1144 Tb1092 2.349 . S
O1144 C1159 1.243 . S
O1145 Tb1103 2.428 . S
O1145 C1167 1.256 . S
O1146 Tb1103 2.308 . S
O1146 C1166 1.266 . S
O1147 Tb1092 2.393 . S
O1147 C1166 1.248 . S
C1148 O1137 1.264 . S
C1148 O1138 1.243 . S
C1149 C1152 1.399 . S
C1149 C1154 1.383 . S
C1149 C1156 1.496 . S
C1150 C1151 1.399 . S
C1150 C1154 1.389 . S
C1151 C1150 1.399 . S
C1151 C1153 1.380 . S
C1151 H1168 0.929 . S
C1152 C1149 1.399 . S
C1152 C1153 1.392 . S
C1152 H1169 0.929 . S
C1153 C1151 1.380 . S
C1153 C1152 1.392 . S
C1153 H1170 0.929 . S
C1154 C1149 1.383 . S
C1154 C1150 1.389 . S
C1154 H1171 0.931 . S
C1155 O1140 1.266 . S
C1155 O1141 1.248 . S
C1156 Tb1092 2.802 . S
C1156 O1136 1.264 . S
C1156 O1139 1.256 . S
C1156 C1149 1.496 . S
C1157 C1124 1.448 . S
C1157 H1134 0.930 . S
C1157 C1158 1.328 . S
C1158 C1129 1.427 . S
C1158 H1135 0.929 . S
C1158 C1157 1.328 . S
C1159 O1143 1.264 . S
C1159 O1144 1.243 . S
C1160 C1163 1.389 1_455 S
C1160 C1164 1.369 1_455 S
C1160 C1167 1.516 . S
C1161 C1162 1.399 . S
C1161 C1164 1.411 . S
C1162 C1161 1.399 . S
C1162 C1165 1.380 . S
C1162 H1172 0.929 . S
C1163 C1160 1.389 1_655 S
C1163 C1165 1.392 . S
C1163 H1173 0.929 . S
C1164 C1160 1.369 1_655 S
C1164 C1161 1.411 . S
C1164 H1174 0.920 1_655 S
C1165 C1162 1.380 . S
C1165 C1163 1.392 . S
C1165 H1175 0.929 . S
C1166 O1146 1.266 . S
C1166 O1147 1.248 . S
C1167 Tb1103 2.802 . S
C1167 O1142 1.264 . S
C1167 O1145 1.256 . S
C1167 C1160 1.516 . S
H1168 C1151 0.929 . S
H1169 C1152 0.929 . S
H1170 C1153 0.929 . S
H1171 C1154 0.931 . S
H1172 C1162 0.929 . S
H1173 C1163 0.929 . S
H1174 C1164 0.920 1_455 S
H1175 C1165 0.929 . S
Tb1176 N1205 2.617 . S
Tb1176 N1211 2.572 . S
Tb1176 O1220 2.465 . S
Tb1176 O1221 2.387 . S
Tb1176 O1223 2.428 . S
Tb1176 O1224 2.308 . S
Tb1176 O1228 2.349 . S
Tb1176 O1231 2.393 . S
Tb1176 C1240 2.802 . S
C1177 N1178 1.379 . S
C1177 C1180 1.416 . S
C1177 C1184 1.424 . S
N1178 C1177 1.379 . S
N1178 C1181 1.334 . S
N1178 Tb1187 2.617 1_565 S
C1179 C1181 1.390 . S
C1179 C1182 1.339 . S
C1179 H1199 0.930 . S
C1180 C1177 1.416 . S
C1180 C1182 1.416 . S
C1180 C1186 1.448 . S
C1181 N1178 1.334 . S
C1181 C1179 1.390 . S
C1181 H1192 0.930 . S
C1182 C1179 1.339 . S
C1182 C1180 1.416 . S
C1182 H1203 0.930 . S
C1183 C1184 1.413 . S
C1183 C1185 1.427 . S
C1183 C1189 1.416 . S
C1184 C1177 1.424 . S
C1184 C1183 1.413 . S
C1184 N1188 1.361 . S
C1185 C1183 1.427 . S
C1185 C1186 1.328 . S
C1185 H1200 0.929 . S
C1186 C1180 1.448 . S
C1186 C1185 1.328 . S
C1186 H1201 0.930 . S
Tb1187 N1178 2.617 1_545 S
Tb1187 N1188 2.572 1_545 S
Tb1187 O1222 2.349 . S
Tb1187 O1225 2.393 . S
Tb1187 O1226 2.465 1_545 S
Tb1187 O1227 2.387 . S
Tb1187 O1229 2.428 1_545 S
Tb1187 O1230 2.308 . S
Tb1187 C1251 2.802 1_545 S
N1188 C1184 1.361 . S
N1188 Tb1187 2.572 1_565 S
N1188 C1190 1.340 . S
C1189 C1183 1.416 . S
C1189 C1191 1.332 . S
C1189 H1197 0.931 . S
C1190 N1188 1.340 . S
C1190 C1191 1.407 . S
C1190 H1196 0.930 . S
C1191 C1189 1.332 . S
C1191 C1190 1.407 . S
C1191 H1193 0.929 . S
H1192 C1181 0.930 . S
H1193 C1191 0.929 . S
H1194 C1209 0.930 . S
H1195 C1216 0.929 . S
H1196 C1190 0.930 . S
H1197 C1189 0.931 . S
H1198 C1212 0.930 . S
H1199 C1179 0.930 . S
H1200 C1185 0.929 . S
H1201 C1186 0.930 . S
H1202 C1207 0.930 . S
H1203 C1182 0.930 . S
H1204 C1215 0.931 . S
N1205 Tb1176 2.617 . S
N1205 C1206 1.379 . S
N1205 C1209 1.334 . S
C1206 N1205 1.379 . S
C1206 C1208 1.416 . S
C1206 C1214 1.424 . S
C1207 H1202 0.930 . S
C1207 C1209 1.390 . S
C1207 C1210 1.339 . S
C1208 C1206 1.416 . S
C1208 C1210 1.416 . S
C1208 C1241 1.448 . S
C1209 H1194 0.930 . S
C1209 N1205 1.334 . S
C1209 C1207 1.390 . S
C1210 C1207 1.339 . S
C1210 C1208 1.416 . S
C1210 H1217 0.930 . S
N1211 Tb1176 2.572 . S
N1211 C1212 1.340 . S
N1211 C1214 1.361 . S
C1212 H1198 0.930 . S
C1212 N1211 1.340 . S
C1212 C1216 1.407 . S
C1213 C1214 1.413 . S
C1213 C1215 1.416 . S
C1213 C1242 1.427 . S
C1214 C1206 1.424 . S
C1214 N1211 1.361 . S
C1214 C1213 1.413 . S
C1215 H1204 0.931 . S
C1215 C1213 1.416 . S
C1215 C1216 1.332 . S
C1216 H1195 0.929 . S
C1216 C1212 1.407 . S
C1216 C1215 1.332 . S
H1217 C1210 0.930 . S
H1218 C1241 0.930 . S
H1219 C1242 0.929 . S
O1220 Tb1176 2.465 . S
O1220 C1240 1.264 . S
O1221 Tb1176 2.387 . S
O1221 C1232 1.264 . S
O1222 Tb1187 2.349 . S
O1222 C1232 1.243 . S
O1223 Tb1176 2.428 . S
O1223 C1240 1.256 . S
O1224 Tb1176 2.308 . S
O1224 C1239 1.266 . S
O1225 Tb1187 2.393 . S
O1225 C1239 1.248 . S
O1226 Tb1187 2.465 1_565 S
O1226 C1251 1.264 . S
O1227 Tb1187 2.387 . S
O1227 C1243 1.264 . S
O1228 Tb1176 2.349 . S
O1228 C1243 1.243 . S
O1229 Tb1187 2.428 1_565 S
O1229 C1251 1.256 . S
O1230 Tb1187 2.308 . S
O1230 C1250 1.266 . S
O1231 Tb1176 2.393 . S
O1231 C1250 1.248 . S
C1232 O1221 1.264 . S
C1232 O1222 1.243 . S
C1233 C1236 1.399 . S
C1233 C1238 1.383 . S
C1233 C1240 1.496 . S
C1234 C1235 1.399 . S
C1234 C1238 1.389 . S
C1235 C1234 1.399 . S
C1235 C1237 1.380 . S
C1235 H1252 0.929 . S
C1236 C1233 1.399 . S
C1236 C1237 1.392 . S
C1236 H1253 0.929 . S
C1237 C1235 1.380 . S
C1237 C1236 1.392 . S
C1237 H1254 0.929 . S
C1238 C1233 1.383 . S
C1238 C1234 1.389 . S
C1238 H1255 0.931 . S
C1239 O1224 1.266 . S
C1239 O1225 1.248 . S
C1240 Tb1176 2.802 . S
C1240 O1220 1.264 . S
C1240 O1223 1.256 . S
C1240 C1233 1.496 . S
C1241 C1208 1.448 . S
C1241 H1218 0.930 . S
C1241 C1242 1.328 . S
C1242 C1213 1.427 . S
C1242 H1219 0.929 . S
C1242 C1241 1.328 . S
C1243 O1227 1.264 . S
C1243 O1228 1.243 . S
C1244 C1247 1.399 . S
C1244 C1248 1.383 . S
C1244 C1251 1.496 . S
C1245 C1246 1.399 . S
C1245 C1248 1.389 . S
C1246 C1245 1.399 . S
C1246 C1249 1.380 . S
C1246 H1256 0.929 . S
C1247 C1244 1.399 . S
C1247 C1249 1.392 . S
C1247 H1257 0.929 . S
C1248 C1244 1.383 . S
C1248 C1245 1.389 . S
C1248 H1258 0.931 . S
C1249 C1246 1.380 . S
C1249 C1247 1.392 . S
C1249 H1259 0.929 . S
C1250 O1230 1.266 . S
C1250 O1231 1.248 . S
C1251 Tb1187 2.802 1_565 S
C1251 O1226 1.264 . S
C1251 O1229 1.256 . S
C1251 C1244 1.496 . S
H1252 C1235 0.929 . S
H1253 C1236 0.929 . S
H1254 C1237 0.929 . S
H1255 C1238 0.931 . S
H1256 C1246 0.929 . S
H1257 C1247 0.929 . S
H1258 C1248 0.931 . S
H1259 C1249 0.929 . S
Tb1260 N1289 2.617 1_455 S
Tb1260 N1295 2.572 1_455 S
Tb1260 O1304 2.465 . S
Tb1260 O1305 2.387 . S
Tb1260 O1307 2.428 . S
Tb1260 O1308 2.308 . S
Tb1260 O1312 2.349 . S
Tb1260 O1315 2.393 . S
Tb1260 C1324 2.802 . S
C1261 N1262 1.379 . S
C1261 C1264 1.416 . S
C1261 C1268 1.424 . S
N1262 C1261 1.379 . S
N1262 C1265 1.334 . S
N1262 Tb1271 2.617 . S
C1263 C1265 1.390 . S
C1263 C1266 1.339 . S
C1263 H1283 0.930 . S
C1264 C1261 1.416 . S
C1264 C1266 1.416 . S
C1264 C1270 1.448 . S
C1265 N1262 1.334 . S
C1265 C1263 1.390 . S
C1265 H1276 0.930 . S
C1266 C1263 1.339 . S
C1266 C1264 1.416 . S
C1266 H1287 0.930 . S
C1267 C1268 1.413 . S
C1267 C1269 1.427 . S
C1267 C1273 1.416 . S
C1268 C1261 1.424 . S
C1268 C1267 1.413 . S
C1268 N1272 1.361 . S
C1269 C1267 1.427 . S
C1269 C1270 1.328 . S
C1269 H1284 0.929 . S
C1270 C1264 1.448 . S
C1270 C1269 1.328 . S
C1270 H1285 0.930 . S
Tb1271 N1262 2.617 . S
Tb1271 N1272 2.572 . S
Tb1271 O1306 2.349 . S
Tb1271 O1309 2.393 . S
Tb1271 O1310 2.465 . S
Tb1271 O1311 2.387 . S
Tb1271 O1313 2.428 . S
Tb1271 O1314 2.308 . S
Tb1271 C1335 2.802 . S
N1272 C1268 1.361 . S
N1272 Tb1271 2.572 . S
N1272 C1274 1.340 . S
C1273 C1267 1.416 . S
C1273 C1275 1.332 . S
C1273 H1281 0.931 . S
C1274 N1272 1.340 . S
C1274 C1275 1.407 . S
C1274 H1280 0.930 . S
C1275 C1273 1.332 . S
C1275 C1274 1.407 . S
C1275 H1277 0.929 . S
H1276 C1265 0.930 . S
H1277 C1275 0.929 . S
H1278 C1293 0.921 1_455 S
H1279 C1300 0.929 . S
H1280 C1274 0.930 . S
H1281 C1273 0.931 . S
H1282 C1296 0.930 1_455 S
H1283 C1263 0.930 . S
H1284 C1269 0.929 . S
H1285 C1270 0.930 . S
H1286 C1291 0.930 . S
H1287 C1266 0.930 . S
H1288 C1299 0.931 . S
N1289 Tb1260 2.617 1_655 S
N1289 C1290 1.379 . S
N1289 C1293 1.336 . S
C1290 N1289 1.379 . S
C1290 C1292 1.416 . S
C1290 C1298 1.424 . S
C1291 H1286 0.930 . S
C1291 C1293 1.397 . S
C1291 C1294 1.339 . S
C1292 C1290 1.416 . S
C1292 C1294 1.416 . S
C1292 C1325 1.448 . S
C1293 H1278 0.921 1_655 S
C1293 N1289 1.336 . S
C1293 C1291 1.397 . S
C1294 C1291 1.339 . S
C1294 C1292 1.416 . S
C1294 H1301 0.930 . S
N1295 Tb1260 2.572 1_655 S
N1295 C1296 1.340 . S
N1295 C1298 1.361 . S
C1296 H1282 0.930 1_655 S
C1296 N1295 1.340 . S
C1296 C1300 1.407 . S
C1297 C1298 1.413 . S
C1297 C1299 1.416 . S
C1297 C1326 1.427 . S
C1298 C1290 1.424 . S
C1298 N1295 1.361 . S
C1298 C1297 1.413 . S
C1299 H1288 0.931 . S
C1299 C1297 1.416 . S
C1299 C1300 1.332 . S
C1300 H1279 0.929 . S
C1300 C1296 1.407 . S
C1300 C1299 1.332 . S
H1301 C1294 0.930 . S
H1302 C1325 0.930 . S
H1303 C1326 0.929 . S
O1304 Tb1260 2.465 . S
O1304 C1324 1.264 . S
O1305 Tb1260 2.387 . S
O1305 C1316 1.264 . S
O1306 Tb1271 2.349 . S
O1306 C1316 1.243 . S
O1307 Tb1260 2.428 . S
O1307 C1324 1.256 . S
O1308 Tb1260 2.308 . S
O1308 C1323 1.266 . S
O1309 Tb1271 2.393 . S
O1309 C1323 1.248 . S
O1310 Tb1271 2.465 . S
O1310 C1335 1.264 . S
O1311 Tb1271 2.387 . S
O1311 C1327 1.264 . S
O1312 Tb1260 2.349 . S
O1312 C1327 1.243 . S
O1313 Tb1271 2.428 . S
O1313 C1335 1.256 . S
O1314 Tb1271 2.308 . S
O1314 C1334 1.266 . S
O1315 Tb1260 2.393 . S
O1315 C1334 1.248 . S
C1316 O1305 1.264 . S
C1316 O1306 1.243 . S
C1317 C1320 1.399 1_455 S
C1317 C1322 1.382 . S
C1317 C1324 1.496 . S
C1318 C1319 1.399 . S
C1318 C1322 1.392 1_655 S
C1319 C1318 1.399 . S
C1319 C1321 1.380 . S
C1319 H1336 0.929 . S
C1320 C1317 1.399 1_655 S
C1320 C1321 1.392 . S
C1320 H1337 0.929 . S
C1321 C1319 1.380 . S
C1321 C1320 1.392 . S
C1321 H1338 0.929 . S
C1322 C1317 1.382 . S
C1322 C1318 1.392 1_455 S
C1322 H1339 0.929 . S
C1323 O1308 1.266 . S
C1323 O1309 1.248 . S
C1324 Tb1260 2.802 . S
C1324 O1304 1.264 . S
C1324 O1307 1.256 . S
C1324 C1317 1.496 . S
C1325 C1292 1.448 . S
C1325 H1302 0.930 . S
C1325 C1326 1.328 . S
C1326 C1297 1.427 . S
C1326 H1303 0.929 . S
C1326 C1325 1.328 . S
C1327 O1311 1.264 . S
C1327 O1312 1.243 . S
C1328 C1331 1.399 . S
C1328 C1332 1.383 . S
C1328 C1335 1.496 . S
C1329 C1330 1.399 . S
C1329 C1332 1.389 . S
C1330 C1329 1.399 . S
C1330 C1333 1.380 . S
C1330 H1340 0.929 . S
C1331 C1328 1.399 . S
C1331 C1333 1.392 . S
C1331 H1341 0.929 . S
C1332 C1328 1.383 . S
C1332 C1329 1.389 . S
C1332 H1342 0.931 . S
C1333 C1330 1.380 . S
C1333 C1331 1.392 . S
C1333 H1343 0.929 . S
C1334 O1314 1.266 . S
C1334 O1315 1.248 . S
C1335 Tb1271 2.802 . S
C1335 O1310 1.264 . S
C1335 O1313 1.256 . S
C1335 C1328 1.496 . S
H1336 C1319 0.929 . S
H1337 C1320 0.929 . S
H1338 C1321 0.929 . S
H1339 C1322 0.929 . S
H1340 C1330 0.929 . S
H1341 C1331 0.929 . S
H1342 C1332 0.931 . S
H1343 C1333 0.929 . S
Tb1344 N1373 2.617 . S
Tb1344 N1379 2.572 . S
Tb1344 O1388 2.465 . S
Tb1344 O1389 2.387 . S
Tb1344 O1391 2.428 . S
Tb1344 O1392 2.308 . S
Tb1344 O1396 2.349 . S
Tb1344 O1399 2.393 . S
Tb1344 C1408 2.802 . S
C1345 N1346 1.379 . S
C1345 C1348 1.416 . S
C1345 C1352 1.424 . S
N1346 C1345 1.379 . S
N1346 C1349 1.334 . S
N1346 Tb1355 2.617 . S
C1347 C1349 1.390 . S
C1347 C1350 1.339 . S
C1347 H1367 0.930 . S
C1348 C1345 1.416 . S
C1348 C1350 1.416 . S
C1348 C1354 1.448 . S
C1349 N1346 1.334 . S
C1349 C1347 1.390 . S
C1349 H1360 0.930 . S
C1350 C1347 1.339 . S
C1350 C1348 1.416 . S
C1350 H1371 0.930 . S
C1351 C1352 1.413 . S
C1351 C1353 1.427 . S
C1351 C1357 1.416 . S
C1352 C1345 1.424 . S
C1352 C1351 1.413 . S
C1352 N1356 1.361 . S
C1353 C1351 1.427 . S
C1353 C1354 1.328 . S
C1353 H1368 0.929 . S
C1354 C1348 1.448 . S
C1354 C1353 1.328 . S
C1354 H1369 0.930 . S
Tb1355 N1346 2.617 . S
Tb1355 N1356 2.572 . S
Tb1355 O1390 2.349 . S
Tb1355 O1393 2.393 . S
Tb1355 O1394 2.465 . S
Tb1355 O1395 2.387 . S
Tb1355 O1397 2.428 . S
Tb1355 O1398 2.308 . S
Tb1355 C1419 2.802 . S
N1356 C1352 1.361 . S
N1356 Tb1355 2.572 . S
N1356 C1358 1.340 . S
C1357 C1351 1.416 . S
C1357 C1359 1.332 . S
C1357 H1365 0.931 . S
C1358 N1356 1.340 . S
C1358 C1359 1.407 . S
C1358 H1364 0.930 . S
C1359 C1357 1.332 . S
C1359 C1358 1.407 . S
C1359 H1361 0.929 . S
H1360 C1349 0.930 . S
H1361 C1359 0.929 . S
H1362 C1377 0.930 . S
H1363 C1384 0.929 . S
H1364 C1358 0.930 . S
H1365 C1357 0.931 . S
H1366 C1380 0.930 . S
H1367 C1347 0.930 . S
H1368 C1353 0.929 . S
H1369 C1354 0.930 . S
H1370 C1375 0.930 . S
H1371 C1350 0.930 . S
H1372 C1383 0.931 . S
N1373 Tb1344 2.617 . S
N1373 C1374 1.379 . S
N1373 C1377 1.334 1_554 S
C1374 N1373 1.379 . S
C1374 C1376 1.416 1_554 S
C1374 C1382 1.424 . S
C1375 H1370 0.930 . S
C1375 C1377 1.390 . S
C1375 C1378 1.339 . S
C1376 C1374 1.416 1_556 S
C1376 C1378 1.416 . S
C1376 C1409 1.448 . S
C1377 H1362 0.930 . S
C1377 N1373 1.334 1_556 S
C1377 C1375 1.390 . S
C1378 C1375 1.339 . S
C1378 C1376 1.416 . S
C1378 H1385 0.930 . S
N1379 Tb1344 2.572 . S
N1379 C1380 1.340 . S
N1379 C1382 1.361 . S
C1380 H1366 0.930 . S
C1380 N1379 1.340 . S
C1380 C1384 1.407 . S
C1381 C1382 1.413 . S
C1381 C1383 1.416 . S
C1381 C1410 1.427 . S
C1382 C1374 1.424 . S
C1382 N1379 1.361 . S
C1382 C1381 1.413 . S
C1383 H1372 0.931 . S
C1383 C1381 1.416 . S
C1383 C1384 1.332 . S
C1384 H1363 0.929 . S
C1384 C1380 1.407 . S
C1384 C1383 1.332 . S
H1385 C1378 0.930 . S
H1386 C1409 0.930 . S
H1387 C1410 0.929 . S
O1388 Tb1344 2.465 . S
O1388 C1408 1.264 . S
O1389 Tb1344 2.387 . S
O1389 C1400 1.264 . S
O1390 Tb1355 2.349 . S
O1390 C1400 1.243 . S
O1391 Tb1344 2.428 . S
O1391 C1408 1.256 . S
O1392 Tb1344 2.308 . S
O1392 C1407 1.266 . S
O1393 Tb1355 2.393 . S
O1393 C1407 1.248 . S
O1394 Tb1355 2.465 . S
O1394 C1419 1.264 . S
O1395 Tb1355 2.387 . S
O1395 C1411 1.264 . S
O1396 Tb1344 2.349 . S
O1396 C1411 1.243 . S
O1397 Tb1355 2.428 . S
O1397 C1419 1.256 . S
O1398 Tb1355 2.308 . S
O1398 C1418 1.266 . S
O1399 Tb1344 2.393 . S
O1399 C1418 1.248 . S
C1400 O1389 1.264 . S
C1400 O1390 1.243 . S
C1401 C1404 1.399 . S
C1401 C1406 1.382 1_556 S
C1401 C1408 1.496 1_556 S
C1402 C1403 1.399 . S
C1402 C1406 1.386 1_556 S
C1403 C1402 1.399 . S
C1403 C1405 1.380 . S
C1403 H1420 0.929 . S
C1404 C1401 1.399 . S
C1404 C1405 1.392 . S
C1404 H1421 0.929 . S
C1405 C1403 1.380 . S
C1405 C1404 1.392 . S
C1405 H1422 0.929 . S
C1406 C1401 1.382 1_554 S
C1406 C1402 1.386 1_554 S
C1406 H1423 0.936 . S
C1407 O1392 1.266 . S
C1407 O1393 1.248 . S
C1408 Tb1344 2.802 . S
C1408 O1388 1.264 . S
C1408 O1391 1.256 . S
C1408 C1401 1.496 1_554 S
C1409 C1376 1.448 . S
C1409 H1386 0.930 . S
C1409 C1410 1.328 1_556 S
C1410 C1381 1.427 . S
C1410 H1387 0.929 . S
C1410 C1409 1.328 1_554 S
C1411 O1395 1.264 . S
C1411 O1396 1.243 . S
C1412 C1415 1.399 . S
C1412 C1416 1.383 . S
C1412 C1419 1.496 . S
C1413 C1414 1.399 . S
C1413 C1416 1.389 . S
C1414 C1413 1.399 . S
C1414 C1417 1.380 . S
C1414 H1424 0.929 . S
C1415 C1412 1.399 . S
C1415 C1417 1.392 . S
C1415 H1425 0.929 . S
C1416 C1412 1.383 . S
C1416 C1413 1.389 . S
C1416 H1426 0.931 . S
C1417 C1414 1.380 . S
C1417 C1415 1.392 . S
C1417 H1427 0.929 . S
C1418 O1398 1.266 . S
C1418 O1399 1.248 . S
C1419 Tb1355 2.802 . S
C1419 O1394 1.264 . S
C1419 O1397 1.256 . S
C1419 C1412 1.496 . S
H1420 C1403 0.929 . S
H1421 C1404 0.929 . S
H1422 C1405 0.929 . S
H1423 C1406 0.936 . S
H1424 C1414 0.929 . S
H1425 C1415 0.929 . S
H1426 C1416 0.931 . S
H1427 C1417 0.929 . S
Tb1428 N1457 2.617 . S
Tb1428 N1463 2.572 . S
Tb1428 O1472 2.465 . S
Tb1428 O1473 2.387 . S
Tb1428 O1475 2.428 . S
Tb1428 O1476 2.308 . S
Tb1428 O1480 2.349 . S
Tb1428 O1483 2.393 . S
Tb1428 C1492 2.802 . S
C1429 N1430 1.379 . S
C1429 C1432 1.416 . S
C1429 C1436 1.424 . S
N1430 C1429 1.379 . S
N1430 C1433 1.334 . S
N1430 Tb1439 2.617 . S
C1431 C1433 1.390 . S
C1431 C1434 1.339 . S
C1431 H1451 0.930 . S
C1432 C1429 1.416 . S
C1432 C1434 1.416 . S
C1432 C1438 1.448 . S
C1433 N1430 1.334 . S
C1433 C1431 1.390 . S
C1433 H1444 0.930 . S
C1434 C1431 1.339 . S
C1434 C1432 1.416 . S
C1434 H1455 0.930 . S
C1435 C1436 1.413 . S
C1435 C1437 1.427 . S
C1435 C1441 1.416 . S
C1436 C1429 1.424 . S
C1436 C1435 1.413 . S
C1436 N1440 1.361 . S
C1437 C1435 1.427 . S
C1437 C1438 1.328 . S
C1437 H1452 0.929 . S
C1438 C1432 1.448 . S
C1438 C1437 1.328 . S
C1438 H1453 0.930 . S
Tb1439 N1430 2.617 . S
Tb1439 N1440 2.572 . S
Tb1439 O1474 2.349 . S
Tb1439 O1477 2.393 . S
Tb1439 O1478 2.465 . S
Tb1439 O1479 2.387 . S
Tb1439 O1481 2.428 . S
Tb1439 O1482 2.308 . S
Tb1439 C1503 2.802 . S
N1440 C1436 1.361 . S
N1440 Tb1439 2.572 . S
N1440 C1442 1.340 . S
C1441 C1435 1.416 . S
C1441 C1443 1.332 . S
C1441 H1449 0.931 . S
C1442 N1440 1.340 . S
C1442 C1443 1.407 . S
C1442 H1448 0.930 . S
C1443 C1441 1.332 . S
C1443 C1442 1.407 . S
C1443 H1445 0.929 . S
H1444 C1433 0.930 . S
H1445 C1443 0.929 . S
H1446 C1461 0.930 . S
H1447 C1468 0.929 . S
H1448 C1442 0.930 . S
H1449 C1441 0.931 . S
H1450 C1464 0.930 . S
H1451 C1431 0.930 . S
H1452 C1437 0.929 . S
H1453 C1438 0.930 . S
H1454 C1459 0.930 . S
H1455 C1434 0.930 . S
H1456 C1467 0.931 . S
N1457 Tb1428 2.617 . S
N1457 C1458 1.379 1_554 S
N1457 C1461 1.334 . S
C1458 N1457 1.379 1_556 S
C1458 C1460 1.416 . S
C1458 C1466 1.424 . S
C1459 H1454 0.930 . S
C1459 C1461 1.390 . S
C1459 C1462 1.339 1_554 S
C1460 C1458 1.416 . S
C1460 C1462 1.416 . S
C1460 C1493 1.448 . S
C1461 H1446 0.930 . S
C1461 N1457 1.334 . S
C1461 C1459 1.390 . S
C1462 C1459 1.339 1_556 S
C1462 C1460 1.416 . S
C1462 H1469 0.930 . S
N1463 Tb1428 2.572 . S
N1463 C1464 1.340 . S
N1463 C1466 1.361 1_554 S
C1464 H1450 0.930 . S
C1464 N1463 1.340 . S
C1464 C1468 1.407 1_554 S
C1465 C1466 1.413 . S
C1465 C1467 1.416 . S
C1465 C1494 1.427 . S
C1466 C1458 1.424 . S
C1466 N1463 1.361 1_556 S
C1466 C1465 1.413 . S
C1467 H1456 0.931 . S
C1467 C1465 1.416 . S
C1467 C1468 1.332 . S
C1468 H1447 0.929 . S
C1468 C1464 1.407 1_556 S
C1468 C1467 1.332 . S
H1469 C1462 0.930 . S
H1470 C1493 0.930 . S
H1471 C1494 0.929 . S
O1472 Tb1428 2.465 . S
O1472 C1492 1.264 . S
O1473 Tb1428 2.387 . S
O1473 C1484 1.264 . S
O1474 Tb1439 2.349 . S
O1474 C1484 1.243 . S
O1475 Tb1428 2.428 . S
O1475 C1492 1.256 . S
O1476 Tb1428 2.308 . S
O1476 C1491 1.266 . S
O1477 Tb1439 2.393 . S
O1477 C1491 1.248 . S
O1478 Tb1439 2.465 . S
O1478 C1503 1.264 . S
O1479 Tb1439 2.387 . S
O1479 C1495 1.264 . S
O1480 Tb1428 2.349 . S
O1480 C1495 1.243 . S
O1481 Tb1439 2.428 . S
O1481 C1503 1.256 . S
O1482 Tb1439 2.308 . S
O1482 C1502 1.266 . S
O1483 Tb1428 2.393 . S
O1483 C1502 1.248 . S
C1484 O1473 1.264 . S
C1484 O1474 1.243 . S
C1485 C1488 1.399 . S
C1485 C1490 1.383 . S
C1485 C1492 1.496 . S
C1486 C1487 1.399 . S
C1486 C1490 1.389 1_556 S
C1487 C1486 1.399 . S
C1487 C1489 1.380 . S
C1487 H1504 0.929 . S
C1488 C1485 1.399 . S
C1488 C1489 1.392 1_554 S
C1488 H1505 0.929 . S
C1489 C1487 1.380 . S
C1489 C1488 1.392 1_556 S
C1489 H1506 0.929 . S
C1490 C1485 1.383 . S
C1490 C1486 1.389 1_554 S
C1490 H1507 0.931 . S
C1491 O1476 1.266 . S
C1491 O1477 1.248 . S
C1492 Tb1428 2.802 . S
C1492 O1472 1.264 . S
C1492 O1475 1.256 . S
C1492 C1485 1.496 . S
C1493 C1460 1.448 . S
C1493 H1470 0.930 . S
C1493 C1494 1.328 . S
C1494 C1465 1.427 . S
C1494 H1471 0.929 . S
C1494 C1493 1.328 . S
C1495 O1479 1.264 . S
C1495 O1480 1.243 . S
C1496 C1499 1.399 . S
C1496 C1500 1.383 . S
C1496 C1503 1.496 . S
C1497 C1498 1.399 . S
C1497 C1500 1.389 . S
C1498 C1497 1.399 . S
C1498 C1501 1.380 . S
C1498 H1508 0.929 . S
C1499 C1496 1.399 . S
C1499 C1501 1.392 . S
C1499 H1509 0.929 . S
C1500 C1496 1.383 . S
C1500 C1497 1.389 . S
C1500 H1510 0.931 . S
C1501 C1498 1.380 . S
C1501 C1499 1.392 . S
C1501 H1511 0.929 . S
C1502 O1482 1.266 . S
C1502 O1483 1.248 . S
C1503 Tb1439 2.802 . S
C1503 O1478 1.264 . S
C1503 O1481 1.256 . S
C1503 C1496 1.496 . S
H1504 C1487 0.929 . S
H1505 C1488 0.929 . S
H1506 C1489 0.929 . S
H1507 C1490 0.931 . S
H1508 C1498 0.929 . S
H1509 C1499 0.929 . S
H1510 C1500 0.931 . S
H1511 C1501 0.929 . S
Tb1512 N1541 2.617 1_554 S
Tb1512 N1547 2.572 1_554 S
Tb1512 O1556 2.465 . S
Tb1512 O1557 2.387 . S
Tb1512 O1559 2.428 . S
Tb1512 O1560 2.308 . S
Tb1512 O1564 2.349 . S
Tb1512 O1567 2.393 . S
Tb1512 C1576 2.802 . S
C1513 N1514 1.379 . S
C1513 C1516 1.416 . S
C1513 C1520 1.424 . S
N1514 C1513 1.379 . S
N1514 C1517 1.334 . S
N1514 Tb1523 2.617 . S
C1515 C1517 1.390 . S
C1515 C1518 1.339 . S
C1515 H1535 0.930 . S
C1516 C1513 1.416 . S
C1516 C1518 1.416 . S
C1516 C1522 1.448 . S
C1517 N1514 1.334 . S
C1517 C1515 1.390 . S
C1517 H1528 0.930 . S
C1518 C1515 1.339 . S
C1518 C1516 1.416 . S
C1518 H1539 0.930 . S
C1519 C1520 1.413 . S
C1519 C1521 1.427 . S
C1519 C1525 1.416 . S
C1520 C1513 1.424 . S
C1520 C1519 1.413 . S
C1520 N1524 1.361 . S
C1521 C1519 1.427 . S
C1521 C1522 1.328 . S
C1521 H1536 0.929 . S
C1522 C1516 1.448 . S
C1522 C1521 1.328 . S
C1522 H1537 0.930 . S
Tb1523 N1514 2.617 . S
Tb1523 N1524 2.572 . S
Tb1523 O1558 2.349 . S
Tb1523 O1561 2.393 . S
Tb1523 O1562 2.465 . S
Tb1523 O1563 2.387 . S
Tb1523 O1565 2.428 . S
Tb1523 O1566 2.308 . S
Tb1523 C1587 2.802 . S
N1524 C1520 1.361 . S
N1524 Tb1523 2.572 . S
N1524 C1526 1.340 . S
C1525 C1519 1.416 . S
C1525 C1527 1.332 . S
C1525 H1533 0.931 . S
C1526 N1524 1.340 . S
C1526 C1527 1.407 . S
C1526 H1532 0.930 . S
C1527 C1525 1.332 . S
C1527 C1526 1.407 . S
C1527 H1529 0.929 . S
H1528 C1517 0.930 . S
H1529 C1527 0.929 . S
H1530 C1545 0.930 1_554 S
H1531 C1552 0.929 . S
H1532 C1526 0.930 . S
H1533 C1525 0.931 . S
H1534 C1548 0.930 . S
H1535 C1515 0.930 . S
H1536 C1521 0.929 . S
H1537 C1522 0.930 . S
H1538 C1543 0.930 . S
H1539 C1518 0.930 . S
H1540 C1551 0.931 . S
N1541 Tb1512 2.617 1_556 S
N1541 C1542 1.379 . S
N1541 C1545 1.334 . S
C1542 N1541 1.379 . S
C1542 C1544 1.416 . S
C1542 C1550 1.424 . S
C1543 H1538 0.930 . S
C1543 C1545 1.390 . S
C1543 C1546 1.339 . S
C1544 C1542 1.416 . S
C1544 C1546 1.416 . S
C1544 C1577 1.448 . S
C1545 H1530 0.930 1_556 S
C1545 N1541 1.334 . S
C1545 C1543 1.390 . S
C1546 C1543 1.339 . S
C1546 C1544 1.416 . S
C1546 H1553 0.930 . S
N1547 Tb1512 2.572 1_556 S
N1547 C1548 1.340 . S
N1547 C1550 1.361 . S
C1548 H1534 0.930 . S
C1548 N1547 1.340 . S
C1548 C1552 1.407 . S
C1549 C1550 1.413 . S
C1549 C1551 1.416 . S
C1549 C1578 1.427 . S
C1550 C1542 1.424 . S
C1550 N1547 1.361 . S
C1550 C1549 1.413 . S
C1551 H1540 0.931 . S
C1551 C1549 1.416 . S
C1551 C1552 1.332 . S
C1552 H1531 0.929 . S
C1552 C1548 1.407 . S
C1552 C1551 1.332 . S
H1553 C1546 0.930 . S
H1554 C1577 0.930 . S
H1555 C1578 0.929 . S
O1556 Tb1512 2.465 . S
O1556 C1576 1.264 . S
O1557 Tb1512 2.387 . S
O1557 C1568 1.264 . S
O1558 Tb1523 2.349 . S
O1558 C1568 1.243 . S
O1559 Tb1512 2.428 . S
O1559 C1576 1.256 . S
O1560 Tb1512 2.308 . S
O1560 C1575 1.266 . S
O1561 Tb1523 2.393 . S
O1561 C1575 1.248 . S
O1562 Tb1523 2.465 . S
O1562 C1587 1.264 . S
O1563 Tb1523 2.387 . S
O1563 C1579 1.264 . S
O1564 Tb1512 2.349 . S
O1564 C1579 1.243 . S
O1565 Tb1523 2.428 . S
O1565 C1587 1.256 . S
O1566 Tb1523 2.308 . S
O1566 C1586 1.266 . S
O1567 Tb1512 2.393 . S
O1567 C1586 1.248 . S
C1568 O1557 1.264 . S
C1568 O1558 1.243 . S
C1569 C1572 1.399 . S
C1569 C1574 1.383 . S
C1569 C1576 1.496 1_556 S
C1570 C1571 1.399 . S
C1570 C1574 1.389 . S
C1571 C1570 1.399 . S
C1571 C1573 1.380 . S
C1571 H1588 0.929 . S
C1572 C1569 1.399 . S
C1572 C1573 1.392 . S
C1572 H1589 0.929 . S
C1573 C1571 1.380 . S
C1573 C1572 1.392 . S
C1573 H1590 0.929 . S
C1574 C1569 1.383 . S
C1574 C1570 1.389 . S
C1574 H1591 0.916 1_556 S
C1575 O1560 1.266 . S
C1575 O1561 1.248 . S
C1576 Tb1512 2.802 . S
C1576 O1556 1.264 . S
C1576 O1559 1.256 . S
C1576 C1569 1.496 1_554 S
C1577 C1544 1.448 . S
C1577 H1554 0.930 . S
C1577 C1578 1.328 . S
C1578 C1549 1.427 . S
C1578 H1555 0.929 . S
C1578 C1577 1.328 . S
C1579 O1563 1.264 . S
C1579 O1564 1.243 . S
C1580 C1583 1.399 . S
C1580 C1584 1.383 . S
C1580 C1587 1.496 . S
C1581 C1582 1.399 . S
C1581 C1584 1.389 . S
C1582 C1581 1.399 . S
C1582 C1585 1.380 . S
C1582 H1592 0.929 . S
C1583 C1580 1.399 . S
C1583 C1585 1.392 . S
C1583 H1593 0.929 . S
C1584 C1580 1.383 . S
C1584 C1581 1.389 . S
C1584 H1594 0.931 . S
C1585 C1582 1.380 . S
C1585 C1583 1.392 . S
C1585 H1595 0.929 . S
C1586 O1566 1.266 . S
C1586 O1567 1.248 . S
C1587 Tb1523 2.802 . S
C1587 O1562 1.264 . S
C1587 O1565 1.256 . S
C1587 C1580 1.496 . S
H1588 C1571 0.929 . S
H1589 C1572 0.929 . S
H1590 C1573 0.929 . S
H1591 C1574 0.916 1_554 S
H1592 C1582 0.929 . S
H1593 C1583 0.929 . S
H1594 C1584 0.931 . S
H1595 C1585 0.929 . S
Tb1596 N1625 2.617 1_554 S
Tb1596 N1631 2.572 1_554 S
Tb1596 O1640 2.465 1_554 S
Tb1596 O1641 2.387 . S
Tb1596 O1643 2.428 1_554 S
Tb1596 O1644 2.308 . S
Tb1596 O1648 2.349 . S
Tb1596 O1651 2.393 . S
Tb1596 C1660 2.802 1_554 S
C1597 N1598 1.379 . S
C1597 C1600 1.416 . S
C1597 C1604 1.424 . S
N1598 C1597 1.379 . S
N1598 C1601 1.334 . S
N1598 Tb1607 2.617 . S
C1599 C1601 1.390 . S
C1599 C1602 1.339 . S
C1599 H1619 0.930 . S
C1600 C1597 1.416 . S
C1600 C1602 1.416 . S
C1600 C1606 1.448 . S
C1601 N1598 1.334 . S
C1601 C1599 1.390 . S
C1601 H1612 0.930 . S
C1602 C1599 1.339 . S
C1602 C1600 1.416 . S
C1602 H1623 0.930 . S
C1603 C1604 1.413 . S
C1603 C1605 1.427 . S
C1603 C1609 1.416 . S
C1604 C1597 1.424 . S
C1604 C1603 1.413 . S
C1604 N1608 1.361 . S
C1605 C1603 1.427 . S
C1605 C1606 1.328 . S
C1605 H1620 0.929 . S
C1606 C1600 1.448 . S
C1606 C1605 1.328 . S
C1606 H1621 0.930 . S
Tb1607 N1598 2.617 . S
Tb1607 N1608 2.572 . S
Tb1607 O1642 2.349 . S
Tb1607 O1645 2.393 . S
Tb1607 O1646 2.465 . S
Tb1607 O1647 2.387 . S
Tb1607 O1649 2.428 . S
Tb1607 O1650 2.308 . S
Tb1607 C1671 2.802 . S
N1608 C1604 1.361 . S
N1608 Tb1607 2.572 . S
N1608 C1610 1.340 . S
C1609 C1603 1.416 . S
C1609 C1611 1.332 . S
C1609 H1617 0.931 . S
C1610 N1608 1.340 . S
C1610 C1611 1.407 . S
C1610 H1616 0.930 . S
C1611 C1609 1.332 . S
C1611 C1610 1.407 . S
C1611 H1613 0.929 . S
H1612 C1601 0.930 . S
H1613 C1611 0.929 . S
H1614 C1629 0.930 . S
H1615 C1636 0.929 . S
H1616 C1610 0.930 . S
H1617 C1609 0.931 . S
H1618 C1632 0.930 . S
H1619 C1599 0.930 . S
H1620 C1605 0.929 . S
H1621 C1606 0.930 . S
H1622 C1627 0.930 . S
H1623 C1602 0.930 . S
H1624 C1635 0.931 . S
N1625 Tb1596 2.617 1_556 S
N1625 C1626 1.379 . S
N1625 C1629 1.334 . S
C1626 N1625 1.379 . S
C1626 C1628 1.416 . S
C1626 C1634 1.424 . S
C1627 H1622 0.930 . S
C1627 C1629 1.390 . S
C1627 C1630 1.339 . S
C1628 C1626 1.416 . S
C1628 C1630 1.416 . S
C1628 C1661 1.448 . S
C1629 H1614 0.930 . S
C1629 N1625 1.334 . S
C1629 C1627 1.390 . S
C1630 C1627 1.339 . S
C1630 C1628 1.416 . S
C1630 H1637 0.930 . S
N1631 Tb1596 2.572 1_556 S
N1631 C1632 1.340 . S
N1631 C1634 1.361 . S
C1632 H1618 0.930 . S
C1632 N1631 1.340 . S
C1632 C1636 1.407 . S
C1633 C1634 1.413 . S
C1633 C1635 1.416 . S
C1633 C1662 1.427 . S
C1634 C1626 1.424 . S
C1634 N1631 1.361 . S
C1634 C1633 1.413 . S
C1635 H1624 0.931 . S
C1635 C1633 1.416 . S
C1635 C1636 1.332 . S
C1636 H1615 0.929 . S
C1636 C1632 1.407 . S
C1636 C1635 1.332 . S
H1637 C1630 0.930 . S
H1638 C1661 0.930 . S
H1639 C1662 0.929 . S
O1640 Tb1596 2.465 1_556 S
O1640 C1660 1.264 . S
O1641 Tb1596 2.387 . S
O1641 C1652 1.264 . S
O1642 Tb1607 2.349 . S
O1642 C1652 1.243 . S
O1643 Tb1596 2.428 1_556 S
O1643 C1660 1.256 . S
O1644 Tb1596 2.308 . S
O1644 C1659 1.266 . S
O1645 Tb1607 2.393 . S
O1645 C1659 1.248 . S
O1646 Tb1607 2.465 . S
O1646 C1671 1.264 . S
O1647 Tb1607 2.387 . S
O1647 C1663 1.264 . S
O1648 Tb1596 2.349 . S
O1648 C1663 1.243 . S
O1649 Tb1607 2.428 . S
O1649 C1671 1.256 . S
O1650 Tb1607 2.308 . S
O1650 C1670 1.266 . S
O1651 Tb1596 2.393 . S
O1651 C1670 1.248 . S
C1652 O1641 1.264 . S
C1652 O1642 1.243 . S
C1653 C1656 1.399 . S
C1653 C1658 1.383 . S
C1653 C1660 1.496 . S
C1654 C1655 1.399 . S
C1654 C1658 1.389 . S
C1655 C1654 1.399 . S
C1655 C1657 1.380 . S
C1655 H1672 0.929 . S
C1656 C1653 1.399 . S
C1656 C1657 1.392 . S
C1656 H1673 0.929 . S
C1657 C1655 1.380 . S
C1657 C1656 1.392 . S
C1657 H1674 0.929 . S
C1658 C1653 1.383 . S
C1658 C1654 1.389 . S
C1658 H1675 0.931 . S
C1659 O1644 1.266 . S
C1659 O1645 1.248 . S
C1660 Tb1596 2.802 1_556 S
C1660 O1640 1.264 . S
C1660 O1643 1.256 . S
C1660 C1653 1.496 . S
C1661 C1628 1.448 . S
C1661 H1638 0.930 . S
C1661 C1662 1.328 . S
C1662 C1633 1.427 . S
C1662 H1639 0.929 . S
C1662 C1661 1.328 . S
C1663 O1647 1.264 . S
C1663 O1648 1.243 . S
C1664 C1667 1.399 . S
C1664 C1668 1.383 . S
C1664 C1671 1.496 . S
C1665 C1666 1.399 . S
C1665 C1668 1.389 . S
C1666 C1665 1.399 . S
C1666 C1669 1.380 . S
C1666 H1676 0.929 . S
C1667 C1664 1.399 . S
C1667 C1669 1.392 . S
C1667 H1677 0.929 . S
C1668 C1664 1.383 . S
C1668 C1665 1.389 . S
C1668 H1678 0.931 . S
C1669 C1666 1.380 . S
C1669 C1667 1.392 . S
C1669 H1679 0.929 . S
C1670 O1650 1.266 . S
C1670 O1651 1.248 . S
C1671 Tb1607 2.802 . S
C1671 O1646 1.264 . S
C1671 O1649 1.256 . S
C1671 C1664 1.496 . S
H1672 C1655 0.929 . S
H1673 C1656 0.929 . S
H1674 C1657 0.929 . S
H1675 C1658 0.931 . S
H1676 C1666 0.929 . S
H1677 C1667 0.929 . S
H1678 C1668 0.931 . S
H1679 C1669 0.929 . S
Tb1680 N1709 2.617 . S
Tb1680 N1715 2.572 . S
Tb1680 O1724 2.465 . S
Tb1680 O1725 2.387 . S
Tb1680 O1727 2.428 . S
Tb1680 O1728 2.308 . S
Tb1680 O1732 2.349 1_556 S
Tb1680 O1735 2.393 . S
Tb1680 C1744 2.802 . S
C1681 N1682 1.379 . S
C1681 C1684 1.416 . S
C1681 C1688 1.424 . S
N1682 C1681 1.379 . S
N1682 C1685 1.334 . S
N1682 Tb1691 2.617 . S
C1683 C1685 1.390 . S
C1683 C1686 1.339 . S
C1683 H1703 0.930 . S
C1684 C1681 1.416 . S
C1684 C1686 1.416 . S
C1684 C1690 1.448 . S
C1685 N1682 1.334 . S
C1685 C1683 1.390 . S
C1685 H1696 0.930 . S
C1686 C1683 1.339 . S
C1686 C1684 1.416 . S
C1686 H1707 0.930 . S
C1687 C1688 1.413 . S
C1687 C1689 1.427 . S
C1687 C1693 1.416 . S
C1688 C1681 1.424 . S
C1688 C1687 1.413 . S
C1688 N1692 1.361 . S
C1689 C1687 1.427 . S
C1689 C1690 1.328 . S
C1689 H1704 0.929 . S
C1690 C1684 1.448 . S
C1690 C1689 1.328 . S
C1690 H1705 0.930 . S
Tb1691 N1682 2.617 . S
Tb1691 N1692 2.572 . S
Tb1691 O1726 2.349 1_554 S
Tb1691 O1729 2.393 . S
Tb1691 O1730 2.465 . S
Tb1691 O1731 2.387 . S
Tb1691 O1733 2.428 . S
Tb1691 O1734 2.308 . S
Tb1691 C1755 2.802 . S
N1692 C1688 1.361 . S
N1692 Tb1691 2.572 . S
N1692 C1694 1.340 . S
C1693 C1687 1.416 . S
C1693 C1695 1.332 . S
C1693 H1701 0.931 . S
C1694 N1692 1.340 . S
C1694 C1695 1.407 . S
C1694 H1700 0.930 . S
C1695 C1693 1.332 . S
C1695 C1694 1.407 . S
C1695 H1697 0.929 . S
H1696 C1685 0.930 . S
H1697 C1695 0.929 . S
H1698 C1713 0.930 . S
H1699 C1720 0.929 . S
H1700 C1694 0.930 . S
H1701 C1693 0.931 . S
H1702 C1716 0.930 . S
H1703 C1683 0.930 . S
H1704 C1689 0.929 . S
H1705 C1690 0.930 . S
H1706 C1711 0.930 . S
H1707 C1686 0.930 . S
H1708 C1719 0.931 . S
N1709 Tb1680 2.617 . S
N1709 C1710 1.379 . S
N1709 C1713 1.334 . S
C1710 N1709 1.379 . S
C1710 C1712 1.416 . S
C1710 C1718 1.424 . S
C1711 H1706 0.930 . S
C1711 C1713 1.390 . S
C1711 C1714 1.339 . S
C1712 C1710 1.416 . S
C1712 C1714 1.416 . S
C1712 C1745 1.448 . S
C1713 H1698 0.930 . S
C1713 N1709 1.334 . S
C1713 C1711 1.390 . S
C1714 C1711 1.339 . S
C1714 C1712 1.416 . S
C1714 H1721 0.930 . S
N1715 Tb1680 2.572 . S
N1715 C1716 1.340 . S
N1715 C1718 1.361 . S
C1716 H1702 0.930 . S
C1716 N1715 1.340 . S
C1716 C1720 1.407 . S
C1717 C1718 1.413 . S
C1717 C1719 1.416 . S
C1717 C1746 1.427 . S
C1718 C1710 1.424 . S
C1718 N1715 1.361 . S
C1718 C1717 1.413 . S
C1719 H1708 0.931 . S
C1719 C1717 1.416 . S
C1719 C1720 1.332 . S
C1720 H1699 0.929 . S
C1720 C1716 1.407 . S
C1720 C1719 1.332 . S
H1721 C1714 0.930 . S
H1722 C1745 0.930 . S
H1723 C1746 0.929 . S
O1724 Tb1680 2.465 . S
O1724 C1744 1.264 . S
O1725 Tb1680 2.387 . S
O1725 C1736 1.264 . S
O1726 Tb1691 2.349 1_556 S
O1726 C1736 1.243 . S
O1727 Tb1680 2.428 . S
O1727 C1744 1.256 . S
O1728 Tb1680 2.308 . S
O1728 C1743 1.266 . S
O1729 Tb1691 2.393 . S
O1729 C1743 1.248 1_554 S
O1730 Tb1691 2.465 . S
O1730 C1755 1.264 . S
O1731 Tb1691 2.387 . S
O1731 C1747 1.264 . S
O1732 Tb1680 2.349 1_554 S
O1732 C1747 1.243 . S
O1733 Tb1691 2.428 . S
O1733 C1755 1.256 . S
O1734 Tb1691 2.308 . S
O1734 C1754 1.266 . S
O1735 Tb1680 2.393 . S
O1735 C1754 1.248 1_556 S
C1736 O1725 1.264 . S
C1736 O1726 1.243 . S
C1737 C1740 1.399 . S
C1737 C1742 1.383 . S
C1737 C1744 1.496 . S
C1738 C1739 1.399 . S
C1738 C1742 1.389 . S
C1739 C1738 1.399 . S
C1739 C1741 1.380 . S
C1739 H1756 0.929 . S
C1740 C1737 1.399 . S
C1740 C1741 1.392 . S
C1740 H1757 0.929 . S
C1741 C1739 1.380 . S
C1741 C1740 1.392 . S
C1741 H1758 0.929 . S
C1742 C1737 1.383 . S
C1742 C1738 1.389 . S
C1742 H1759 0.931 . S
C1743 O1728 1.266 . S
C1743 O1729 1.248 1_556 S
C1744 Tb1680 2.802 . S
C1744 O1724 1.264 . S
C1744 O1727 1.256 . S
C1744 C1737 1.496 . S
C1745 C1712 1.448 . S
C1745 H1722 0.930 . S
C1745 C1746 1.328 . S
C1746 C1717 1.427 . S
C1746 H1723 0.929 . S
C1746 C1745 1.328 . S
C1747 O1731 1.264 . S
C1747 O1732 1.243 . S
C1748 C1751 1.399 . S
C1748 C1752 1.383 . S
C1748 C1755 1.496 . S
C1749 C1750 1.399 . S
C1749 C1752 1.389 . S
C1750 C1749 1.399 . S
C1750 C1753 1.380 . S
C1750 H1760 0.929 . S
C1751 C1748 1.399 . S
C1751 C1753 1.392 . S
C1751 H1761 0.929 . S
C1752 C1748 1.383 . S
C1752 C1749 1.389 . S
C1752 H1762 0.931 . S
C1753 C1750 1.380 . S
C1753 C1751 1.392 . S
C1753 H1763 0.929 . S
C1754 O1734 1.266 . S
C1754 O1735 1.248 1_554 S
C1755 Tb1691 2.802 . S
C1755 O1730 1.264 . S
C1755 O1733 1.256 . S
C1755 C1748 1.496 . S
H1756 C1739 0.929 . S
H1757 C1740 0.929 . S
H1758 C1741 0.929 . S
H1759 C1742 0.931 . S
H1760 C1750 0.929 . S
H1761 C1751 0.929 . S
H1762 C1752 0.931 . S
H1763 C1753 0.929 . S
Tb1764 N1793 2.617 1_554 S
Tb1764 N1799 2.572 . S
Tb1764 O1808 2.465 . S
Tb1764 O1809 2.387 . S
Tb1764 O1811 2.428 1_554 S
Tb1764 O1812 2.308 . S
Tb1764 O1816 2.349 . S
Tb1764 O1819 2.393 . S
Tb1764 C1828 2.802 1_554 S
C1765 N1766 1.379 . S
C1765 C1768 1.416 . S
C1765 C1772 1.424 . S
N1766 C1765 1.379 . S
N1766 C1769 1.334 . S
N1766 Tb1775 2.617 . S
C1767 C1769 1.390 . S
C1767 C1770 1.339 . S
C1767 H1787 0.930 . S
C1768 C1765 1.416 . S
C1768 C1770 1.416 . S
C1768 C1774 1.448 . S
C1769 N1766 1.334 . S
C1769 C1767 1.390 . S
C1769 H1780 0.930 . S
C1770 C1767 1.339 . S
C1770 C1768 1.416 . S
C1770 H1791 0.930 . S
C1771 C1772 1.413 . S
C1771 C1773 1.427 . S
C1771 C1777 1.416 . S
C1772 C1765 1.424 . S
C1772 C1771 1.413 . S
C1772 N1776 1.361 . S
C1773 C1771 1.427 . S
C1773 C1774 1.328 . S
C1773 H1788 0.929 . S
C1774 C1768 1.448 . S
C1774 C1773 1.328 . S
C1774 H1789 0.930 . S
Tb1775 N1766 2.617 . S
Tb1775 N1776 2.572 . S
Tb1775 O1810 2.349 . S
Tb1775 O1813 2.393 . S
Tb1775 O1814 2.465 . S
Tb1775 O1815 2.387 . S
Tb1775 O1817 2.428 . S
Tb1775 O1818 2.308 . S
Tb1775 C1839 2.802 . S
N1776 C1772 1.361 . S
N1776 Tb1775 2.572 . S
N1776 C1778 1.340 . S
C1777 C1771 1.416 . S
C1777 C1779 1.332 . S
C1777 H1785 0.931 . S
C1778 N1776 1.340 . S
C1778 C1779 1.407 . S
C1778 H1784 0.930 . S
C1779 C1777 1.332 . S
C1779 C1778 1.407 . S
C1779 H1781 0.929 . S
H1780 C1769 0.930 . S
H1781 C1779 0.929 . S
H1782 C1797 0.930 . S
H1783 C1804 0.929 . S
H1784 C1778 0.930 . S
H1785 C1777 0.931 . S
H1786 C1800 0.930 . S
H1787 C1767 0.930 . S
H1788 C1773 0.929 . S
H1789 C1774 0.930 . S
H1790 C1795 0.930 . S
H1791 C1770 0.930 . S
H1792 C1803 0.931 . S
N1793 Tb1764 2.617 1_556 S
N1793 C1794 1.379 . S
N1793 C1797 1.334 . S
C1794 N1793 1.379 . S
C1794 C1796 1.416 . S
C1794 C1802 1.442 . S
C1795 H1790 0.930 . S
C1795 C1797 1.390 . S
C1795 C1798 1.339 . S
C1796 C1794 1.416 . S
C1796 C1798 1.416 . S
C1796 C1829 1.448 . S
C1797 H1782 0.930 . S
C1797 N1793 1.334 . S
C1797 C1795 1.390 . S
C1798 C1795 1.339 . S
C1798 C1796 1.416 . S
C1798 H1805 0.930 . S
N1799 Tb1764 2.572 . S
N1799 C1800 1.340 . S
N1799 C1802 1.344 1_554 S
C1800 H1786 0.930 . S
C1800 N1799 1.340 . S
C1800 C1804 1.407 . S
C1801 C1802 1.413 . S
C1801 C1803 1.381 1_556 S
C1801 C1830 1.461 . S
C1802 C1794 1.442 . S
C1802 N1799 1.344 1_556 S
C1802 C1801 1.413 . S
C1803 H1792 0.931 . S
C1803 C1801 1.381 1_554 S
C1803 C1804 1.332 . S
C1804 H1783 0.929 . S
C1804 C1800 1.407 . S
C1804 C1803 1.332 . S
H1805 C1798 0.930 . S
H1806 C1829 0.930 . S
H1807 C1830 0.929 . S
O1808 Tb1764 2.465 . S
O1808 C1828 1.264 1_554 S
O1809 Tb1764 2.387 . S
O1809 C1820 1.264 . S
O1810 Tb1775 2.349 . S
O1810 C1820 1.243 . S
O1811 Tb1764 2.428 1_556 S
O1811 C1828 1.256 . S
O1812 Tb1764 2.308 . S
O1812 C1827 1.266 . S
O1813 Tb1775 2.393 . S
O1813 C1827 1.248 . S
O1814 Tb1775 2.465 . S
O1814 C1839 1.264 . S
O1815 Tb1775 2.387 . S
O1815 C1831 1.264 . S
O1816 Tb1764 2.349 . S
O1816 C1831 1.243 . S
O1817 Tb1775 2.428 . S
O1817 C1839 1.256 . S
O1818 Tb1775 2.308 . S
O1818 C1838 1.266 . S
O1819 Tb1764 2.393 . S
O1819 C1838 1.248 . S
C1820 O1809 1.264 . S
C1820 O1810 1.243 . S
C1821 C1824 1.399 . S
C1821 C1826 1.383 . S
C1821 C1828 1.496 . S
C1822 C1823 1.399 . S
C1822 C1826 1.389 . S
C1823 C1822 1.399 . S
C1823 C1825 1.380 . S
C1823 H1840 0.929 . S
C1824 C1821 1.399 . S
C1824 C1825 1.392 . S
C1824 H1841 0.929 . S
C1825 C1823 1.380 . S
C1825 C1824 1.392 . S
C1825 H1842 0.929 . S
C1826 C1821 1.383 . S
C1826 C1822 1.389 . S
C1826 H1843 0.941 . S
C1827 O1812 1.266 . S
C1827 O1813 1.248 . S
C1828 Tb1764 2.802 1_556 S
C1828 O1808 1.264 1_556 S
C1828 O1811 1.256 . S
C1828 C1821 1.496 . S
C1829 C1796 1.448 . S
C1829 H1806 0.930 . S
C1829 C1830 1.328 . S
C1830 C1801 1.461 . S
C1830 H1807 0.929 . S
C1830 C1829 1.328 . S
C1831 O1815 1.264 . S
C1831 O1816 1.243 . S
C1832 C1835 1.399 . S
C1832 C1836 1.383 . S
C1832 C1839 1.496 . S
C1833 C1834 1.399 . S
C1833 C1836 1.389 . S
C1834 C1833 1.399 . S
C1834 C1837 1.380 . S
C1834 H1844 0.929 . S
C1835 C1832 1.399 . S
C1835 C1837 1.392 . S
C1835 H1845 0.929 . S
C1836 C1832 1.383 . S
C1836 C1833 1.389 . S
C1836 H1846 0.931 . S
C1837 C1834 1.380 . S
C1837 C1835 1.392 . S
C1837 H1847 0.929 . S
C1838 O1818 1.266 . S
C1838 O1819 1.248 . S
C1839 Tb1775 2.802 . S
C1839 O1814 1.264 . S
C1839 O1817 1.256 . S
C1839 C1832 1.496 . S
H1840 C1823 0.929 . S
H1841 C1824 0.929 . S
H1842 C1825 0.929 . S
H1843 C1826 0.941 . S
H1844 C1834 0.929 . S
H1845 C1835 0.929 . S
H1846 C1836 0.931 . S
H1847 C1837 0.929 . S
Tb1848 N1877 2.617 . S
Tb1848 N1883 2.572 . S
Tb1848 O1892 2.465 . S
Tb1848 O1893 2.387 . S
Tb1848 O1895 2.428 . S
Tb1848 O1896 2.308 . S
Tb1848 O1900 2.349 . S
Tb1848 O1903 2.393 . S
Tb1848 C1912 2.802 . S
C1849 N1850 1.379 . S
C1849 C1852 1.416 . S
C1849 C1856 1.424 . S
N1850 C1849 1.379 . S
N1850 C1853 1.334 . S
N1850 Tb1859 2.617 1_556 S
C1851 C1853 1.390 . S
C1851 C1854 1.339 . S
C1851 H1871 0.930 . S
C1852 C1849 1.416 . S
C1852 C1854 1.416 . S
C1852 C1858 1.448 . S
C1853 N1850 1.334 . S
C1853 C1851 1.390 . S
C1853 H1864 0.930 . S
C1854 C1851 1.339 . S
C1854 C1852 1.416 . S
C1854 H1875 0.930 . S
C1855 C1856 1.413 . S
C1855 C1857 1.427 . S
C1855 C1861 1.416 . S
C1856 C1849 1.424 . S
C1856 C1855 1.413 . S
C1856 N1860 1.361 . S
C1857 C1855 1.427 . S
C1857 C1858 1.328 . S
C1857 H1872 0.929 . S
C1858 C1852 1.448 . S
C1858 C1857 1.328 . S
C1858 H1873 0.930 . S
Tb1859 N1850 2.617 1_554 S
Tb1859 N1860 2.572 1_554 S
Tb1859 O1894 2.349 . S
Tb1859 O1897 2.393 . S
Tb1859 O1898 2.465 . S
Tb1859 O1899 2.387 . S
Tb1859 O1901 2.450 . S
Tb1859 O1902 2.308 . S
Tb1859 C1923 2.781 1_554 S
N1860 C1856 1.361 . S
N1860 Tb1859 2.572 1_556 S
N1860 C1862 1.340 . S
C1861 C1855 1.416 . S
C1861 C1863 1.332 . S
C1861 H1869 0.931 . S
C1862 N1860 1.340 . S
C1862 C1863 1.407 . S
C1862 H1868 0.930 . S
C1863 C1861 1.332 . S
C1863 C1862 1.407 . S
C1863 H1865 0.929 . S
H1864 C1853 0.930 . S
H1865 C1863 0.929 . S
H1866 C1881 0.930 . S
H1867 C1888 0.929 . S
H1868 C1862 0.930 . S
H1869 C1861 0.931 . S
H1870 C1884 0.930 . S
H1871 C1851 0.930 . S
H1872 C1857 0.929 . S
H1873 C1858 0.930 . S
H1874 C1879 0.930 . S
H1875 C1854 0.930 . S
H1876 C1887 0.931 . S
N1877 Tb1848 2.617 . S
N1877 C1878 1.379 . S
N1877 C1881 1.334 . S
C1878 N1877 1.379 . S
C1878 C1880 1.416 . S
C1878 C1886 1.424 . S
C1879 H1874 0.930 . S
C1879 C1881 1.390 . S
C1879 C1882 1.339 . S
C1880 C1878 1.416 . S
C1880 C1882 1.416 . S
C1880 C1913 1.448 . S
C1881 H1866 0.930 . S
C1881 N1877 1.334 . S
C1881 C1879 1.390 . S
C1882 C1879 1.339 . S
C1882 C1880 1.416 . S
C1882 H1889 0.930 . S
N1883 Tb1848 2.572 . S
N1883 C1884 1.340 . S
N1883 C1886 1.361 . S
C1884 H1870 0.930 . S
C1884 N1883 1.340 . S
C1884 C1888 1.407 . S
C1885 C1886 1.413 . S
C1885 C1887 1.416 . S
C1885 C1914 1.427 . S
C1886 C1878 1.424 . S
C1886 N1883 1.361 . S
C1886 C1885 1.413 . S
C1887 H1876 0.931 . S
C1887 C1885 1.416 . S
C1887 C1888 1.332 . S
C1888 H1867 0.929 . S
C1888 C1884 1.407 . S
C1888 C1887 1.332 . S
H1889 C1882 0.930 . S
H1890 C1913 0.930 . S
H1891 C1914 0.929 . S
O1892 Tb1848 2.465 . S
O1892 C1912 1.264 . S
O1893 Tb1848 2.387 . S
O1893 C1904 1.264 . S
O1894 Tb1859 2.349 . S
O1894 C1904 1.243 . S
O1895 Tb1848 2.428 . S
O1895 C1912 1.256 . S
O1896 Tb1848 2.308 . S
O1896 C1911 1.266 . S
O1897 Tb1859 2.393 . S
O1897 C1911 1.248 . S
O1898 Tb1859 2.465 . S
O1898 C1923 1.248 1_554 S
O1899 Tb1859 2.387 . S
O1899 C1915 1.264 . S
O1900 Tb1848 2.349 . S
O1900 C1915 1.243 . S
O1901 Tb1859 2.450 . S
O1901 C1923 1.248 1_554 S
O1902 Tb1859 2.308 . S
O1902 C1922 1.266 . S
O1903 Tb1848 2.393 . S
O1903 C1922 1.248 . S
C1904 O1893 1.264 . S
C1904 O1894 1.243 . S
C1905 C1908 1.399 . S
C1905 C1910 1.383 . S
C1905 C1912 1.496 . S
C1906 C1907 1.399 . S
C1906 C1910 1.389 . S
C1907 C1906 1.399 . S
C1907 C1909 1.380 . S
C1907 H1924 0.929 . S
C1908 C1905 1.399 . S
C1908 C1909 1.392 . S
C1908 H1925 0.929 . S
C1909 C1907 1.380 . S
C1909 C1908 1.392 . S
C1909 H1926 0.929 . S
C1910 C1905 1.383 . S
C1910 C1906 1.389 . S
C1910 H1927 0.931 . S
C1911 O1896 1.266 . S
C1911 O1897 1.248 . S
C1912 Tb1848 2.802 . S
C1912 O1892 1.264 . S
C1912 O1895 1.256 . S
C1912 C1905 1.496 . S
C1913 C1880 1.448 . S
C1913 H1890 0.930 . S
C1913 C1914 1.328 . S
C1914 C1885 1.427 . S
C1914 H1891 0.929 . S
C1914 C1913 1.328 . S
C1915 O1899 1.264 . S
C1915 O1900 1.243 . S
C1916 C1919 1.399 . S
C1916 C1920 1.383 . S
C1916 C1923 1.519 . S
C1917 C1918 1.399 . S
C1917 C1920 1.389 . S
C1918 C1917 1.399 . S
C1918 C1921 1.380 . S
C1918 H1928 0.929 . S
C1919 C1916 1.399 . S
C1919 C1921 1.392 . S
C1919 H1929 0.929 . S
C1920 C1916 1.383 . S
C1920 C1917 1.389 . S
C1920 H1930 0.931 . S
C1921 C1918 1.380 . S
C1921 C1919 1.392 . S
C1921 H1931 0.929 . S
C1922 O1902 1.266 . S
C1922 O1903 1.248 . S
C1923 Tb1859 2.781 1_556 S
C1923 O1898 1.248 1_556 S
C1923 O1901 1.248 1_556 S
C1923 C1916 1.519 . S
H1924 C1907 0.929 . S
H1925 C1908 0.929 . S
H1926 C1909 0.929 . S
H1927 C1910 0.931 . S
H1928 C1918 0.929 . S
H1929 C1919 0.929 . S
H1930 C1920 0.931 . S
H1931 C1921 0.929 . S
Tb1932 N1961 2.617 . S
Tb1932 N1967 2.572 . S
Tb1932 O1976 2.465 . S
Tb1932 O1977 2.387 . S
Tb1932 O1979 2.428 . S
Tb1932 O1980 2.308 . S
Tb1932 O1984 2.349 . S
Tb1932 O1987 2.393 . S
Tb1932 C1996 2.802 . S
C1933 N1934 1.379 . S
C1933 C1936 1.416 . S
C1933 C1940 1.424 . S
N1934 C1933 1.379 . S
N1934 C1937 1.334 . S
N1934 Tb1943 2.617 . S
C1935 C1937 1.390 . S
C1935 C1938 1.339 . S
C1935 H1955 0.930 . S
C1936 C1933 1.416 . S
C1936 C1938 1.416 . S
C1936 C1942 1.448 . S
C1937 N1934 1.334 . S
C1937 C1935 1.390 . S
C1937 H1948 0.930 . S
C1938 C1935 1.339 . S
C1938 C1936 1.416 . S
C1938 H1959 0.930 . S
C1939 C1940 1.413 . S
C1939 C1941 1.427 . S
C1939 C1945 1.416 . S
C1940 C1933 1.424 . S
C1940 C1939 1.413 . S
C1940 N1944 1.361 . S
C1941 C1939 1.427 . S
C1941 C1942 1.328 . S
C1941 H1956 0.929 . S
C1942 C1936 1.448 . S
C1942 C1941 1.328 . S
C1942 H1957 0.930 . S
Tb1943 N1934 2.617 . S
Tb1943 N1944 2.572 . S
Tb1943 O1978 2.349 1_556 S
Tb1943 O1981 2.393 1_556 S
Tb1943 O1982 2.465 . S
Tb1943 O1983 2.387 . S
Tb1943 O1985 2.428 . S
Tb1943 O1986 2.308 1_556 S
Tb1943 C2007 2.802 . S
N1944 C1940 1.361 . S
N1944 Tb1943 2.572 . S
N1944 C1946 1.340 . S
C1945 C1939 1.416 . S
C1945 C1947 1.332 . S
C1945 H1953 0.931 . S
C1946 N1944 1.340 . S
C1946 C1947 1.407 . S
C1946 H1952 0.930 . S
C1947 C1945 1.332 . S
C1947 C1946 1.407 . S
C1947 H1949 0.929 . S
H1948 C1937 0.930 . S
H1949 C1947 0.929 . S
H1950 C1965 0.930 . S
H1951 C1972 0.929 . S
H1952 C1946 0.930 . S
H1953 C1945 0.931 . S
H1954 C1968 0.930 . S
H1955 C1935 0.930 . S
H1956 C1941 0.929 . S
H1957 C1942 0.930 . S
H1958 C1963 0.930 . S
H1959 C1938 0.930 . S
H1960 C1971 0.931 . S
N1961 Tb1932 2.617 . S
N1961 C1962 1.379 . S
N1961 C1965 1.334 . S
C1962 N1961 1.379 . S
C1962 C1964 1.416 . S
C1962 C1970 1.424 . S
C1963 H1958 0.930 . S
C1963 C1965 1.390 . S
C1963 C1966 1.339 . S
C1964 C1962 1.416 . S
C1964 C1966 1.416 . S
C1964 C1997 1.448 . S
C1965 H1950 0.930 . S
C1965 N1961 1.334 . S
C1965 C1963 1.390 . S
C1966 C1963 1.339 . S
C1966 C1964 1.416 . S
C1966 H1973 0.930 . S
N1967 Tb1932 2.572 . S
N1967 C1968 1.340 . S
N1967 C1970 1.361 . S
C1968 H1954 0.930 . S
C1968 N1967 1.340 . S
C1968 C1972 1.407 . S
C1969 C1970 1.413 . S
C1969 C1971 1.416 . S
C1969 C1998 1.427 . S
C1970 C1962 1.424 . S
C1970 N1967 1.361 . S
C1970 C1969 1.413 . S
C1971 H1960 0.931 . S
C1971 C1969 1.416 . S
C1971 C1972 1.332 . S
C1972 H1951 0.929 . S
C1972 C1968 1.407 . S
C1972 C1971 1.332 . S
H1973 C1966 0.930 . S
H1974 C1997 0.930 . S
H1975 C1998 0.929 . S
O1976 Tb1932 2.465 . S
O1976 C1996 1.264 . S
O1977 Tb1932 2.387 . S
O1977 C1988 1.264 . S
O1978 Tb1943 2.349 1_554 S
O1978 C1988 1.243 . S
O1979 Tb1932 2.428 . S
O1979 C1996 1.256 . S
O1980 Tb1932 2.308 . S
O1980 C1995 1.266 . S
O1981 Tb1943 2.393 1_554 S
O1981 C1995 1.248 . S
O1982 Tb1943 2.465 . S
O1982 C2007 1.264 . S
O1983 Tb1943 2.387 . S
O1983 C1999 1.264 1_556 S
O1984 Tb1932 2.349 . S
O1984 C1999 1.243 . S
O1985 Tb1943 2.428 . S
O1985 C2007 1.256 . S
O1986 Tb1943 2.308 1_554 S
O1986 C2006 1.266 . S
O1987 Tb1932 2.393 . S
O1987 C2006 1.248 . S
C1988 O1977 1.264 . S
C1988 O1978 1.243 . S
C1989 C1992 1.399 . S
C1989 C1994 1.383 . S
C1989 C1996 1.496 . S
C1990 C1991 1.399 . S
C1990 C1994 1.389 . S
C1991 C1990 1.399 . S
C1991 C1993 1.380 . S
C1991 H2008 0.929 . S
C1992 C1989 1.399 . S
C1992 C1993 1.392 . S
C1992 H2009 0.929 . S
C1993 C1991 1.380 . S
C1993 C1992 1.392 . S
C1993 H2010 0.929 . S
C1994 C1989 1.383 . S
C1994 C1990 1.389 . S
C1994 H2011 0.931 . S
C1995 O1980 1.266 . S
C1995 O1981 1.248 . S
C1996 Tb1932 2.802 . S
C1996 O1976 1.264 . S
C1996 O1979 1.256 . S
C1996 C1989 1.496 . S
C1997 C1964 1.448 . S
C1997 H1974 0.930 . S
C1997 C1998 1.328 . S
C1998 C1969 1.427 . S
C1998 H1975 0.929 . S
C1998 C1997 1.328 . S
C1999 O1983 1.264 1_554 S
C1999 O1984 1.243 . S
C2000 C2003 1.399 . S
C2000 C2004 1.383 . S
C2000 C2007 1.496 . S
C2001 C2002 1.399 . S
C2001 C2004 1.389 . S
C2002 C2001 1.399 . S
C2002 C2005 1.380 . S
C2002 H2012 0.929 . S
C2003 C2000 1.399 . S
C2003 C2005 1.392 . S
C2003 H2013 0.929 . S
C2004 C2000 1.383 . S
C2004 C2001 1.389 . S
C2004 H2014 0.931 . S
C2005 C2002 1.380 . S
C2005 C2003 1.392 . S
C2005 H2015 0.929 . S
C2006 O1986 1.266 . S
C2006 O1987 1.248 . S
C2007 Tb1943 2.802 . S
C2007 O1982 1.264 . S
C2007 O1985 1.256 . S
C2007 C2000 1.496 . S
H2008 C1991 0.929 . S
H2009 C1992 0.929 . S
H2010 C1993 0.929 . S
H2011 C1994 0.931 . S
H2012 C2002 0.929 . S
H2013 C2003 0.929 . S
H2014 C2004 0.931 . S
H2015 C2005 0.929 . S
Tb2016 N2045 2.617 . S
Tb2016 N2051 2.572 . S
Tb2016 O2060 2.465 . S
Tb2016 O2061 2.387 . S
Tb2016 O2063 2.428 . S
Tb2016 O2064 2.308 . S
Tb2016 O2068 2.349 . S
Tb2016 O2071 2.393 . S
Tb2016 C2080 2.802 . S
C2017 N2018 1.379 . S
C2017 C2020 1.416 . S
C2017 C2024 1.424 . S
N2018 C2017 1.379 . S
N2018 C2021 1.334 . S
N2018 Tb2027 2.617 . S
C2019 C2021 1.390 . S
C2019 C2022 1.339 . S
C2019 H2039 0.930 . S
C2020 C2017 1.416 . S
C2020 C2022 1.416 . S
C2020 C2026 1.448 . S
C2021 N2018 1.334 . S
C2021 C2019 1.390 . S
C2021 H2032 0.930 . S
C2022 C2019 1.339 . S
C2022 C2020 1.416 . S
C2022 H2043 0.930 . S
C2023 C2024 1.413 . S
C2023 C2025 1.427 . S
C2023 C2029 1.416 . S
C2024 C2017 1.424 . S
C2024 C2023 1.413 . S
C2024 N2028 1.361 . S
C2025 C2023 1.427 . S
C2025 C2026 1.328 . S
C2025 H2040 0.929 . S
C2026 C2020 1.448 . S
C2026 C2025 1.328 . S
C2026 H2041 0.930 . S
Tb2027 N2018 2.617 . S
Tb2027 N2028 2.572 . S
Tb2027 O2062 2.349 . S
Tb2027 O2065 2.393 . S
Tb2027 O2066 2.465 . S
Tb2027 O2067 2.387 . S
Tb2027 O2069 2.428 . S
Tb2027 O2070 2.308 . S
Tb2027 C2091 2.802 . S
N2028 C2024 1.361 . S
N2028 Tb2027 2.572 . S
N2028 C2030 1.340 . S
C2029 C2023 1.416 . S
C2029 C2031 1.332 . S
C2029 H2037 0.931 . S
C2030 N2028 1.340 . S
C2030 C2031 1.407 . S
C2030 H2036 0.930 . S
C2031 C2029 1.332 . S
C2031 C2030 1.407 . S
C2031 H2033 0.929 . S
H2032 C2021 0.930 . S
H2033 C2031 0.929 . S
H2034 C2049 0.930 . S
H2035 C2056 0.929 . S
H2036 C2030 0.930 . S
H2037 C2029 0.931 . S
H2038 C2052 0.930 . S
H2039 C2019 0.930 . S
H2040 C2025 0.929 . S
H2041 C2026 0.930 . S
H2042 C2047 0.930 . S
H2043 C2022 0.930 . S
H2044 C2055 0.931 . S
N2045 Tb2016 2.617 . S
N2045 C2046 1.379 . S
N2045 C2049 1.334 . S
C2046 N2045 1.379 . S
C2046 C2048 1.416 . S
C2046 C2054 1.424 . S
C2047 H2042 0.930 . S
C2047 C2049 1.390 . S
C2047 C2050 1.339 . S
C2048 C2046 1.416 . S
C2048 C2050 1.416 . S
C2048 C2081 1.448 . S
C2049 H2034 0.930 . S
C2049 N2045 1.334 . S
C2049 C2047 1.390 . S
C2050 C2047 1.339 . S
C2050 C2048 1.416 . S
C2050 H2057 0.930 . S
N2051 Tb2016 2.572 . S
N2051 C2052 1.340 . S
N2051 C2054 1.361 . S
C2052 H2038 0.930 . S
C2052 N2051 1.340 . S
C2052 C2056 1.407 . S
C2053 C2054 1.413 . S
C2053 C2055 1.416 . S
C2053 C2082 1.427 . S
C2054 C2046 1.424 . S
C2054 N2051 1.361 . S
C2054 C2053 1.413 . S
C2055 H2044 0.931 . S
C2055 C2053 1.416 . S
C2055 C2056 1.332 . S
C2056 H2035 0.929 . S
C2056 C2052 1.407 . S
C2056 C2055 1.332 . S
H2057 C2050 0.930 . S
H2058 C2081 0.930 . S
H2059 C2082 0.929 . S
O2060 Tb2016 2.465 . S
O2060 C2080 1.264 . S
O2061 Tb2016 2.387 . S
O2061 C2072 1.264 . S
O2062 Tb2027 2.349 . S
O2062 C2072 1.243 . S
O2063 Tb2016 2.428 . S
O2063 C2080 1.256 . S
O2064 Tb2016 2.308 . S
O2064 C2079 1.266 . S
O2065 Tb2027 2.393 . S
O2065 C2079 1.248 . S
O2066 Tb2027 2.465 . S
O2066 C2091 1.264 . S
O2067 Tb2027 2.387 . S
O2067 C2083 1.264 . S
O2068 Tb2016 2.349 . S
O2068 C2083 1.243 . S
O2069 Tb2027 2.428 . S
O2069 C2091 1.256 . S
O2070 Tb2027 2.308 . S
O2070 C2090 1.266 . S
O2071 Tb2016 2.393 . S
O2071 C2090 1.248 . S
C2072 O2061 1.264 . S
C2072 O2062 1.243 . S
C2073 C2076 1.399 . S
C2073 C2078 1.383 . S
C2073 C2080 1.496 . S
C2074 C2075 1.399 . S
C2074 C2078 1.389 . S
C2075 C2074 1.399 . S
C2075 C2077 1.380 . S
C2075 H2092 0.929 . S
C2076 C2073 1.399 . S
C2076 C2077 1.392 . S
C2076 H2093 0.929 . S
C2077 C2075 1.380 . S
C2077 C2076 1.392 . S
C2077 H2094 0.929 . S
C2078 C2073 1.383 . S
C2078 C2074 1.389 . S
C2078 H2095 0.931 . S
C2079 O2064 1.266 . S
C2079 O2065 1.248 . S
C2080 Tb2016 2.802 . S
C2080 O2060 1.264 . S
C2080 O2063 1.256 . S
C2080 C2073 1.496 . S
C2081 C2048 1.448 . S
C2081 H2058 0.930 . S
C2081 C2082 1.328 . S
C2082 C2053 1.427 . S
C2082 H2059 0.929 . S
C2082 C2081 1.328 . S
C2083 O2067 1.264 . S
C2083 O2068 1.243 . S
C2084 C2087 1.399 . S
C2084 C2088 1.383 . S
C2084 C2091 1.496 . S
C2085 C2086 1.399 . S
C2085 C2088 1.389 . S
C2086 C2085 1.399 . S
C2086 C2089 1.380 . S
C2086 H2096 0.929 . S
C2087 C2084 1.399 . S
C2087 C2089 1.392 . S
C2087 H2097 0.929 . S
C2088 C2084 1.383 . S
C2088 C2085 1.389 . S
C2088 H2098 0.931 . S
C2089 C2086 1.380 . S
C2089 C2087 1.392 . S
C2089 H2099 0.929 . S
C2090 O2070 1.266 . S
C2090 O2071 1.248 . S
C2091 Tb2027 2.802 . S
C2091 O2066 1.264 . S
C2091 O2069 1.256 . S
C2091 C2084 1.496 . S
H2092 C2075 0.929 . S
H2093 C2076 0.929 . S
H2094 C2077 0.929 . S
H2095 C2078 0.931 . S
H2096 C2086 0.929 . S
H2097 C2087 0.929 . S
H2098 C2088 0.931 . S
H2099 C2089 0.929 . S
Tb2100 N2129 2.617 . S
Tb2100 N2135 2.572 . S
Tb2100 O2144 2.465 . S
Tb2100 O2145 2.387 . S
Tb2100 O2147 2.428 . S
Tb2100 O2148 2.308 . S
Tb2100 O2152 2.349 . S
Tb2100 O2155 2.393 . S
Tb2100 C2164 2.802 . S
C2101 N2102 1.379 . S
C2101 C2104 1.416 . S
C2101 C2108 1.424 . S
N2102 C2101 1.379 . S
N2102 C2105 1.334 . S
N2102 Tb2111 2.617 . S
C2103 C2105 1.390 . S
C2103 C2106 1.339 . S
C2103 H2123 0.930 . S
C2104 C2101 1.416 . S
C2104 C2106 1.416 . S
C2104 C2110 1.448 . S
C2105 N2102 1.334 . S
C2105 C2103 1.390 . S
C2105 H2116 0.930 . S
C2106 C2103 1.339 . S
C2106 C2104 1.416 . S
C2106 H2127 0.930 . S
C2107 C2108 1.413 . S
C2107 C2109 1.427 . S
C2107 C2113 1.416 . S
C2108 C2101 1.424 . S
C2108 C2107 1.413 . S
C2108 N2112 1.361 . S
C2109 C2107 1.427 . S
C2109 C2110 1.328 . S
C2109 H2124 0.929 . S
C2110 C2104 1.448 . S
C2110 C2109 1.328 . S
C2110 H2125 0.930 . S
Tb2111 N2102 2.617 . S
Tb2111 N2112 2.572 . S
Tb2111 O2146 2.349 . S
Tb2111 O2149 2.393 . S
Tb2111 O2150 2.465 . S
Tb2111 O2151 2.387 . S
Tb2111 O2153 2.428 . S
Tb2111 O2154 2.308 . S
Tb2111 C2175 2.802 . S
N2112 C2108 1.361 . S
N2112 Tb2111 2.572 . S
N2112 C2114 1.340 . S
C2113 C2107 1.416 . S
C2113 C2115 1.332 . S
C2113 H2121 0.931 . S
C2114 N2112 1.340 . S
C2114 C2115 1.407 . S
C2114 H2120 0.930 . S
C2115 C2113 1.332 . S
C2115 C2114 1.407 . S
C2115 H2117 0.929 . S
H2116 C2105 0.930 . S
H2117 C2115 0.929 . S
H2118 C2133 0.930 . S
H2119 C2140 0.929 . S
H2120 C2114 0.930 . S
H2121 C2113 0.931 . S
H2122 C2136 0.930 . S
H2123 C2103 0.930 . S
H2124 C2109 0.929 . S
H2125 C2110 0.930 . S
H2126 C2131 0.930 . S
H2127 C2106 0.930 . S
H2128 C2139 0.931 . S
N2129 Tb2100 2.617 . S
N2129 C2130 1.379 . S
N2129 C2133 1.334 . S
C2130 N2129 1.379 . S
C2130 C2132 1.416 . S
C2130 C2138 1.424 . S
C2131 H2126 0.930 . S
C2131 C2133 1.390 . S
C2131 C2134 1.339 . S
C2132 C2130 1.416 . S
C2132 C2134 1.416 . S
C2132 C2165 1.448 . S
C2133 H2118 0.930 . S
C2133 N2129 1.334 . S
C2133 C2131 1.390 . S
C2134 C2131 1.339 . S
C2134 C2132 1.416 . S
C2134 H2141 0.930 . S
N2135 Tb2100 2.572 . S
N2135 C2136 1.340 . S
N2135 C2138 1.361 . S
C2136 H2122 0.930 . S
C2136 N2135 1.340 . S
C2136 C2140 1.407 . S
C2137 C2138 1.413 . S
C2137 C2139 1.416 . S
C2137 C2166 1.427 . S
C2138 C2130 1.424 . S
C2138 N2135 1.361 . S
C2138 C2137 1.413 . S
C2139 H2128 0.931 . S
C2139 C2137 1.416 . S
C2139 C2140 1.332 . S
C2140 H2119 0.929 . S
C2140 C2136 1.407 . S
C2140 C2139 1.332 . S
H2141 C2134 0.930 . S
H2142 C2165 0.930 . S
H2143 C2166 0.929 . S
O2144 Tb2100 2.465 . S
O2144 C2164 1.264 . S
O2145 Tb2100 2.387 . S
O2145 C2156 1.264 . S
O2146 Tb2111 2.349 . S
O2146 C2156 1.243 . S
O2147 Tb2100 2.428 . S
O2147 C2164 1.256 . S
O2148 Tb2100 2.308 . S
O2148 C2163 1.266 . S
O2149 Tb2111 2.393 . S
O2149 C2163 1.248 . S
O2150 Tb2111 2.465 . S
O2150 C2175 1.264 . S
O2151 Tb2111 2.387 . S
O2151 C2167 1.264 . S
O2152 Tb2100 2.349 . S
O2152 C2167 1.243 . S
O2153 Tb2111 2.428 . S
O2153 C2175 1.256 . S
O2154 Tb2111 2.308 . S
O2154 C2174 1.266 . S
O2155 Tb2100 2.393 . S
O2155 C2174 1.248 . S
C2156 O2145 1.264 . S
C2156 O2146 1.243 . S
C2157 C2160 1.399 . S
C2157 C2162 1.383 . S
C2157 C2164 1.496 . S
C2158 C2159 1.399 . S
C2158 C2162 1.389 . S
C2159 C2158 1.399 . S
C2159 C2161 1.380 . S
C2159 H2176 0.929 . S
C2160 C2157 1.399 . S
C2160 C2161 1.392 . S
C2160 H2177 0.929 . S
C2161 C2159 1.380 . S
C2161 C2160 1.392 . S
C2161 H2178 0.929 . S
C2162 C2157 1.383 . S
C2162 C2158 1.389 . S
C2162 H2179 0.931 . S
C2163 O2148 1.266 . S
C2163 O2149 1.248 . S
C2164 Tb2100 2.802 . S
C2164 O2144 1.264 . S
C2164 O2147 1.256 . S
C2164 C2157 1.496 . S
C2165 C2132 1.448 . S
C2165 H2142 0.930 . S
C2165 C2166 1.328 . S
C2166 C2137 1.427 . S
C2166 H2143 0.929 . S
C2166 C2165 1.328 . S
C2167 O2151 1.264 . S
C2167 O2152 1.243 . S
C2168 C2171 1.399 . S
C2168 C2172 1.383 . S
C2168 C2175 1.496 . S
C2169 C2170 1.399 . S
C2169 C2172 1.389 . S
C2170 C2169 1.399 . S
C2170 C2173 1.380 . S
C2170 H2180 0.929 . S
C2171 C2168 1.399 . S
C2171 C2173 1.392 . S
C2171 H2181 0.929 . S
C2172 C2168 1.383 . S
C2172 C2169 1.389 . S
C2172 H2182 0.931 . S
C2173 C2170 1.380 . S
C2173 C2171 1.392 . S
C2173 H2183 0.929 . S
C2174 O2154 1.266 . S
C2174 O2155 1.248 . S
C2175 Tb2111 2.802 . S
C2175 O2150 1.264 . S
C2175 O2153 1.256 . S
C2175 C2168 1.496 . S
H2176 C2159 0.929 . S
H2177 C2160 0.929 . S
H2178 C2161 0.929 . S
H2179 C2162 0.931 . S
H2180 C2170 0.929 . S
H2181 C2171 0.929 . S
H2182 C2172 0.931 . S
H2183 C2173 0.929 . S
Tb2184 N2213 2.617 . S
Tb2184 N2219 2.572 . S
Tb2184 O2228 2.465 . S
Tb2184 O2229 2.387 . S
Tb2184 O2231 2.428 . S
Tb2184 O2232 2.308 . S
Tb2184 O2236 2.349 . S
Tb2184 O2239 2.393 . S
Tb2184 C2248 2.802 . S
C2185 N2186 1.379 . S
C2185 C2188 1.416 . S
C2185 C2192 1.424 . S
N2186 C2185 1.379 . S
N2186 C2189 1.334 . S
N2186 Tb2195 2.617 . S
C2187 C2189 1.390 . S
C2187 C2190 1.339 . S
C2187 H2207 0.930 . S
C2188 C2185 1.416 . S
C2188 C2190 1.416 . S
C2188 C2194 1.448 . S
C2189 N2186 1.334 . S
C2189 C2187 1.390 . S
C2189 H2200 0.930 . S
C2190 C2187 1.339 . S
C2190 C2188 1.416 . S
C2190 H2211 0.930 . S
C2191 C2192 1.413 . S
C2191 C2193 1.427 . S
C2191 C2197 1.416 . S
C2192 C2185 1.424 . S
C2192 C2191 1.413 . S
C2192 N2196 1.361 . S
C2193 C2191 1.427 . S
C2193 C2194 1.328 . S
C2193 H2208 0.929 . S
C2194 C2188 1.448 . S
C2194 C2193 1.328 . S
C2194 H2209 0.930 . S
Tb2195 N2186 2.617 . S
Tb2195 N2196 2.572 . S
Tb2195 O2230 2.349 . S
Tb2195 O2233 2.393 . S
Tb2195 O2234 2.465 . S
Tb2195 O2235 2.387 . S
Tb2195 O2237 2.428 . S
Tb2195 O2238 2.308 . S
Tb2195 C2259 2.802 . S
N2196 C2192 1.361 . S
N2196 Tb2195 2.572 . S
N2196 C2198 1.340 . S
C2197 C2191 1.416 . S
C2197 C2199 1.332 . S
C2197 H2205 0.931 . S
C2198 N2196 1.340 . S
C2198 C2199 1.407 . S
C2198 H2204 0.930 . S
C2199 C2197 1.332 . S
C2199 C2198 1.407 . S
C2199 H2201 0.929 . S
H2200 C2189 0.930 . S
H2201 C2199 0.929 . S
H2202 C2217 0.930 . S
H2203 C2224 0.929 . S
H2204 C2198 0.930 . S
H2205 C2197 0.931 . S
H2206 C2220 0.930 . S
H2207 C2187 0.930 . S
H2208 C2193 0.929 . S
H2209 C2194 0.930 . S
H2210 C2215 0.930 . S
H2211 C2190 0.930 . S
H2212 C2223 0.931 . S
N2213 Tb2184 2.617 . S
N2213 C2214 1.379 . S
N2213 C2217 1.334 . S
C2214 N2213 1.379 . S
C2214 C2216 1.416 . S
C2214 C2222 1.424 . S
C2215 H2210 0.930 . S
C2215 C2217 1.390 . S
C2215 C2218 1.339 . S
C2216 C2214 1.416 . S
C2216 C2218 1.416 . S
C2216 C2249 1.448 . S
C2217 H2202 0.930 . S
C2217 N2213 1.334 . S
C2217 C2215 1.390 . S
C2218 C2215 1.339 . S
C2218 C2216 1.416 . S
C2218 H2225 0.930 . S
N2219 Tb2184 2.572 . S
N2219 C2220 1.340 . S
N2219 C2222 1.361 . S
C2220 H2206 0.930 . S
C2220 N2219 1.340 . S
C2220 C2224 1.407 . S
C2221 C2222 1.413 . S
C2221 C2223 1.416 . S
C2221 C2250 1.427 . S
C2222 C2214 1.424 . S
C2222 N2219 1.361 . S
C2222 C2221 1.413 . S
C2223 H2212 0.931 . S
C2223 C2221 1.416 . S
C2223 C2224 1.332 . S
C2224 H2203 0.929 . S
C2224 C2220 1.407 . S
C2224 C2223 1.332 . S
H2225 C2218 0.930 . S
H2226 C2249 0.930 . S
H2227 C2250 0.929 . S
O2228 Tb2184 2.465 . S
O2228 C2248 1.264 . S
O2229 Tb2184 2.387 . S
O2229 C2240 1.264 . S
O2230 Tb2195 2.349 . S
O2230 C2240 1.243 . S
O2231 Tb2184 2.428 . S
O2231 C2248 1.256 . S
O2232 Tb2184 2.308 . S
O2232 C2247 1.266 . S
O2233 Tb2195 2.393 . S
O2233 C2247 1.248 . S
O2234 Tb2195 2.465 . S
O2234 C2259 1.264 . S
O2235 Tb2195 2.387 . S
O2235 C2251 1.264 . S
O2236 Tb2184 2.349 . S
O2236 C2251 1.243 . S
O2237 Tb2195 2.428 . S
O2237 C2259 1.256 . S
O2238 Tb2195 2.308 . S
O2238 C2258 1.266 . S
O2239 Tb2184 2.393 . S
O2239 C2258 1.248 . S
C2240 O2229 1.264 . S
C2240 O2230 1.243 . S
C2241 C2244 1.399 . S
C2241 C2246 1.383 . S
C2241 C2248 1.496 . S
C2242 C2243 1.399 . S
C2242 C2246 1.389 . S
C2243 C2242 1.399 . S
C2243 C2245 1.380 . S
C2243 H2260 0.929 . S
C2244 C2241 1.399 . S
C2244 C2245 1.392 . S
C2244 H2261 0.929 . S
C2245 C2243 1.380 . S
C2245 C2244 1.392 . S
C2245 H2262 0.929 . S
C2246 C2241 1.383 . S
C2246 C2242 1.389 . S
C2246 H2263 0.931 . S
C2247 O2232 1.266 . S
C2247 O2233 1.248 . S
C2248 Tb2184 2.802 . S
C2248 O2228 1.264 . S
C2248 O2231 1.256 . S
C2248 C2241 1.496 . S
C2249 C2216 1.448 . S
C2249 H2226 0.930 . S
C2249 C2250 1.328 . S
C2250 C2221 1.427 . S
C2250 H2227 0.929 . S
C2250 C2249 1.328 . S
C2251 O2235 1.264 . S
C2251 O2236 1.243 . S
C2252 C2255 1.399 . S
C2252 C2256 1.383 . S
C2252 C2259 1.496 . S
C2253 C2254 1.399 . S
C2253 C2256 1.389 . S
C2254 C2253 1.399 . S
C2254 C2257 1.380 . S
C2254 H2264 0.929 . S
C2255 C2252 1.399 . S
C2255 C2257 1.392 . S
C2255 H2265 0.929 . S
C2256 C2252 1.383 . S
C2256 C2253 1.389 . S
C2256 H2266 0.931 . S
C2257 C2254 1.380 . S
C2257 C2255 1.392 . S
C2257 H2267 0.929 . S
C2258 O2238 1.266 . S
C2258 O2239 1.248 . S
C2259 Tb2195 2.802 . S
C2259 O2234 1.264 . S
C2259 O2237 1.256 . S
C2259 C2252 1.496 . S
H2260 C2243 0.929 . S
H2261 C2244 0.929 . S
H2262 C2245 0.929 . S
H2263 C2246 0.931 . S
H2264 C2254 0.929 . S
H2265 C2255 0.929 . S
H2266 C2256 0.931 . S
H2267 C2257 0.929 . S
Tb2268 N2297 2.617 . S
Tb2268 N2303 2.572 . S
Tb2268 O2312 2.465 . S
Tb2268 O2313 2.387 . S
Tb2268 O2315 2.428 . S
Tb2268 O2316 2.308 . S
Tb2268 O2320 2.349 . S
Tb2268 O2323 2.393 . S
Tb2268 C2332 2.802 . S
C2269 N2270 1.379 . S
C2269 C2272 1.416 . S
C2269 C2276 1.424 . S
N2270 C2269 1.379 . S
N2270 C2273 1.334 . S
N2270 Tb2279 2.617 . S
C2271 C2273 1.390 . S
C2271 C2274 1.339 . S
C2271 H2291 0.930 . S
C2272 C2269 1.416 . S
C2272 C2274 1.416 . S
C2272 C2278 1.448 . S
C2273 N2270 1.334 . S
C2273 C2271 1.390 . S
C2273 H2284 0.930 . S
C2274 C2271 1.339 . S
C2274 C2272 1.416 . S
C2274 H2295 0.930 . S
C2275 C2276 1.413 . S
C2275 C2277 1.427 . S
C2275 C2281 1.416 . S
C2276 C2269 1.424 . S
C2276 C2275 1.413 . S
C2276 N2280 1.361 . S
C2277 C2275 1.427 . S
C2277 C2278 1.328 . S
C2277 H2292 0.929 . S
C2278 C2272 1.448 . S
C2278 C2277 1.328 . S
C2278 H2293 0.930 . S
Tb2279 N2270 2.617 . S
Tb2279 N2280 2.572 . S
Tb2279 O2314 2.349 . S
Tb2279 O2317 2.393 . S
Tb2279 O2318 2.465 . S
Tb2279 O2319 2.387 . S
Tb2279 O2321 2.428 . S
Tb2279 O2322 2.308 . S
Tb2279 C2343 2.802 . S
N2280 C2276 1.361 . S
N2280 Tb2279 2.572 . S
N2280 C2282 1.340 . S
C2281 C2275 1.416 . S
C2281 C2283 1.332 . S
C2281 H2289 0.931 . S
C2282 N2280 1.340 . S
C2282 C2283 1.407 . S
C2282 H2288 0.930 . S
C2283 C2281 1.332 . S
C2283 C2282 1.407 . S
C2283 H2285 0.929 . S
H2284 C2273 0.930 . S
H2285 C2283 0.929 . S
H2286 C2301 0.930 . S
H2287 C2308 0.929 . S
H2288 C2282 0.930 . S
H2289 C2281 0.931 . S
H2290 C2304 0.930 . S
H2291 C2271 0.930 . S
H2292 C2277 0.929 . S
H2293 C2278 0.930 . S
H2294 C2299 0.930 . S
H2295 C2274 0.930 . S
H2296 C2307 0.931 . S
N2297 Tb2268 2.617 . S
N2297 C2298 1.379 . S
N2297 C2301 1.334 . S
C2298 N2297 1.379 . S
C2298 C2300 1.416 . S
C2298 C2306 1.424 . S
C2299 H2294 0.930 . S
C2299 C2301 1.390 . S
C2299 C2302 1.339 . S
C2300 C2298 1.416 . S
C2300 C2302 1.416 . S
C2300 C2333 1.448 . S
C2301 H2286 0.930 . S
C2301 N2297 1.334 . S
C2301 C2299 1.390 . S
C2302 C2299 1.339 . S
C2302 C2300 1.416 . S
C2302 H2309 0.930 . S
N2303 Tb2268 2.572 . S
N2303 C2304 1.340 . S
N2303 C2306 1.361 . S
C2304 H2290 0.930 . S
C2304 N2303 1.340 . S
C2304 C2308 1.407 . S
C2305 C2306 1.413 . S
C2305 C2307 1.416 . S
C2305 C2334 1.427 . S
C2306 C2298 1.424 . S
C2306 N2303 1.361 . S
C2306 C2305 1.413 . S
C2307 H2296 0.931 . S
C2307 C2305 1.416 . S
C2307 C2308 1.332 . S
C2308 H2287 0.929 . S
C2308 C2304 1.407 . S
C2308 C2307 1.332 . S
H2309 C2302 0.930 . S
H2310 C2333 0.930 . S
H2311 C2334 0.929 . S
O2312 Tb2268 2.465 . S
O2312 C2332 1.264 . S
O2313 Tb2268 2.387 . S
O2313 C2324 1.264 . S
O2314 Tb2279 2.349 . S
O2314 C2324 1.243 . S
O2315 Tb2268 2.428 . S
O2315 C2332 1.256 . S
O2316 Tb2268 2.308 . S
O2316 C2331 1.266 . S
O2317 Tb2279 2.393 . S
O2317 C2331 1.248 . S
O2318 Tb2279 2.465 . S
O2318 C2343 1.264 . S
O2319 Tb2279 2.387 . S
O2319 C2335 1.264 . S
O2320 Tb2268 2.349 . S
O2320 C2335 1.243 . S
O2321 Tb2279 2.428 . S
O2321 C2343 1.256 . S
O2322 Tb2279 2.308 . S
O2322 C2342 1.266 . S
O2323 Tb2268 2.393 . S
O2323 C2342 1.248 . S
C2324 O2313 1.264 . S
C2324 O2314 1.243 . S
C2325 C2328 1.399 . S
C2325 C2330 1.383 . S
C2325 C2332 1.496 . S
C2326 C2327 1.399 . S
C2326 C2330 1.389 . S
C2327 C2326 1.399 . S
C2327 C2329 1.380 . S
C2327 H2344 0.929 . S
C2328 C2325 1.399 . S
C2328 C2329 1.392 . S
C2328 H2345 0.929 . S
C2329 C2327 1.380 . S
C2329 C2328 1.392 . S
C2329 H2346 0.929 . S
C2330 C2325 1.383 . S
C2330 C2326 1.389 . S
C2330 H2347 0.931 . S
C2331 O2316 1.266 . S
C2331 O2317 1.248 . S
C2332 Tb2268 2.802 . S
C2332 O2312 1.264 . S
C2332 O2315 1.256 . S
C2332 C2325 1.496 . S
C2333 C2300 1.448 . S
C2333 H2310 0.930 . S
C2333 C2334 1.328 . S
C2334 C2305 1.427 . S
C2334 H2311 0.929 . S
C2334 C2333 1.328 . S
C2335 O2319 1.264 . S
C2335 O2320 1.243 . S
C2336 C2339 1.399 . S
C2336 C2340 1.383 . S
C2336 C2343 1.496 . S
C2337 C2338 1.399 . S
C2337 C2340 1.389 . S
C2338 C2337 1.399 . S
C2338 C2341 1.380 . S
C2338 H2348 0.929 . S
C2339 C2336 1.399 . S
C2339 C2341 1.392 . S
C2339 H2349 0.929 . S
C2340 C2336 1.383 . S
C2340 C2337 1.389 . S
C2340 H2350 0.931 . S
C2341 C2338 1.380 . S
C2341 C2339 1.392 . S
C2341 H2351 0.929 . S
C2342 O2322 1.266 . S
C2342 O2323 1.248 . S
C2343 Tb2279 2.802 . S
C2343 O2318 1.264 . S
C2343 O2321 1.256 . S
C2343 C2336 1.496 . S
H2344 C2327 0.929 . S
H2345 C2328 0.929 . S
H2346 C2329 0.929 . S
H2347 C2330 0.931 . S
H2348 C2338 0.929 . S
H2349 C2339 0.929 . S
H2350 C2340 0.931 . S
H2351 C2341 0.929 . S
Tb2352 N2381 2.617 . S
Tb2352 N2387 2.572 . S
Tb2352 O2396 2.465 . S
Tb2352 O2397 2.387 . S
Tb2352 O2399 2.428 . S
Tb2352 O2400 2.308 . S
Tb2352 O2404 2.349 . S
Tb2352 O2407 2.393 . S
Tb2352 C2416 2.802 . S
C2353 N2354 1.379 . S
C2353 C2356 1.416 . S
C2353 C2360 1.424 . S
N2354 C2353 1.379 . S
N2354 C2357 1.334 . S
N2354 Tb2363 2.617 . S
C2355 C2357 1.390 . S
C2355 C2358 1.339 . S
C2355 H2375 0.930 . S
C2356 C2353 1.416 . S
C2356 C2358 1.416 . S
C2356 C2362 1.448 . S
C2357 N2354 1.334 . S
C2357 C2355 1.390 . S
C2357 H2368 0.930 . S
C2358 C2355 1.339 . S
C2358 C2356 1.416 . S
C2358 H2379 0.930 . S
C2359 C2360 1.413 . S
C2359 C2361 1.427 . S
C2359 C2365 1.416 . S
C2360 C2353 1.424 . S
C2360 C2359 1.413 . S
C2360 N2364 1.361 . S
C2361 C2359 1.427 . S
C2361 C2362 1.328 . S
C2361 H2376 0.929 . S
C2362 C2356 1.448 . S
C2362 C2361 1.328 . S
C2362 H2377 0.930 . S
Tb2363 N2354 2.617 . S
Tb2363 N2364 2.572 . S
Tb2363 O2398 2.349 . S
Tb2363 O2401 2.393 . S
Tb2363 O2402 2.465 . S
Tb2363 O2403 2.387 . S
Tb2363 O2405 2.428 . S
Tb2363 O2406 2.308 . S
Tb2363 C2427 2.802 . S
N2364 C2360 1.361 . S
N2364 Tb2363 2.572 . S
N2364 C2366 1.340 . S
C2365 C2359 1.416 . S
C2365 C2367 1.332 . S
C2365 H2373 0.931 . S
C2366 N2364 1.340 . S
C2366 C2367 1.407 . S
C2366 H2372 0.930 . S
C2367 C2365 1.332 . S
C2367 C2366 1.407 . S
C2367 H2369 0.929 . S
H2368 C2357 0.930 . S
H2369 C2367 0.929 . S
H2370 C2385 0.930 . S
H2371 C2392 0.929 . S
H2372 C2366 0.930 . S
H2373 C2365 0.931 . S
H2374 C2388 0.930 . S
H2375 C2355 0.930 . S
H2376 C2361 0.929 . S
H2377 C2362 0.930 . S
H2378 C2383 0.930 . S
H2379 C2358 0.930 . S
H2380 C2391 0.931 . S
N2381 Tb2352 2.617 . S
N2381 C2382 1.379 . S
N2381 C2385 1.334 . S
C2382 N2381 1.379 . S
C2382 C2384 1.416 . S
C2382 C2390 1.424 . S
C2383 H2378 0.930 . S
C2383 C2385 1.390 . S
C2383 C2386 1.339 . S
C2384 C2382 1.416 . S
C2384 C2386 1.416 . S
C2384 C2417 1.448 . S
C2385 H2370 0.930 . S
C2385 N2381 1.334 . S
C2385 C2383 1.390 . S
C2386 C2383 1.339 . S
C2386 C2384 1.416 . S
C2386 H2393 0.930 . S
N2387 Tb2352 2.572 . S
N2387 C2388 1.340 . S
N2387 C2390 1.361 . S
C2388 H2374 0.930 . S
C2388 N2387 1.340 . S
C2388 C2392 1.407 . S
C2389 C2390 1.413 . S
C2389 C2391 1.416 . S
C2389 C2418 1.427 . S
C2390 C2382 1.424 . S
C2390 N2387 1.361 . S
C2390 C2389 1.413 . S
C2391 H2380 0.931 . S
C2391 C2389 1.416 . S
C2391 C2392 1.332 . S
C2392 H2371 0.929 . S
C2392 C2388 1.407 . S
C2392 C2391 1.332 . S
H2393 C2386 0.930 . S
H2394 C2417 0.930 . S
H2395 C2418 0.929 . S
O2396 Tb2352 2.465 . S
O2396 C2416 1.264 . S
O2397 Tb2352 2.387 . S
O2397 C2408 1.264 . S
O2398 Tb2363 2.349 . S
O2398 C2408 1.243 . S
O2399 Tb2352 2.428 . S
O2399 C2416 1.256 . S
O2400 Tb2352 2.308 . S
O2400 C2415 1.266 . S
O2401 Tb2363 2.393 . S
O2401 C2415 1.248 . S
O2402 Tb2363 2.465 . S
O2402 C2427 1.264 . S
O2403 Tb2363 2.387 . S
O2403 C2419 1.264 . S
O2404 Tb2352 2.349 . S
O2404 C2419 1.243 . S
O2405 Tb2363 2.428 . S
O2405 C2427 1.256 . S
O2406 Tb2363 2.308 . S
O2406 C2426 1.266 . S
O2407 Tb2352 2.393 . S
O2407 C2426 1.248 . S
C2408 O2397 1.264 . S
C2408 O2398 1.243 . S
C2409 C2412 1.399 . S
C2409 C2414 1.383 . S
C2409 C2416 1.496 . S
C2410 C2411 1.399 . S
C2410 C2414 1.389 . S
C2411 C2410 1.399 . S
C2411 C2413 1.380 . S
C2411 H2428 0.929 . S
C2412 C2409 1.399 . S
C2412 C2413 1.392 . S
C2412 H2429 0.929 . S
C2413 C2411 1.380 . S
C2413 C2412 1.392 . S
C2413 H2430 0.929 . S
C2414 C2409 1.383 . S
C2414 C2410 1.389 . S
C2414 H2431 0.931 . S
C2415 O2400 1.266 . S
C2415 O2401 1.248 . S
C2416 Tb2352 2.802 . S
C2416 O2396 1.264 . S
C2416 O2399 1.256 . S
C2416 C2409 1.496 . S
C2417 C2384 1.448 . S
C2417 H2394 0.930 . S
C2417 C2418 1.328 . S
C2418 C2389 1.427 . S
C2418 H2395 0.929 . S
C2418 C2417 1.328 . S
C2419 O2403 1.264 . S
C2419 O2404 1.243 . S
C2420 C2423 1.399 . S
C2420 C2424 1.383 . S
C2420 C2427 1.496 . S
C2421 C2422 1.399 . S
C2421 C2424 1.389 . S
C2422 C2421 1.399 . S
C2422 C2425 1.380 . S
C2422 H2432 0.929 . S
C2423 C2420 1.399 . S
C2423 C2425 1.392 . S
C2423 H2433 0.929 . S
C2424 C2420 1.383 . S
C2424 C2421 1.389 . S
C2424 H2434 0.931 . S
C2425 C2422 1.380 . S
C2425 C2423 1.392 . S
C2425 H2435 0.929 . S
C2426 O2406 1.266 . S
C2426 O2407 1.248 . S
C2427 Tb2363 2.802 . S
C2427 O2402 1.264 . S
C2427 O2405 1.256 . S
C2427 C2420 1.496 . S
H2428 C2411 0.929 . S
H2429 C2412 0.929 . S
H2430 C2413 0.929 . S
H2431 C2414 0.931 . S
H2432 C2422 0.929 . S
H2433 C2423 0.929 . S
H2434 C2424 0.931 . S
H2435 C2425 0.929 . S
Tb2436 N2465 2.617 . S
Tb2436 N2471 2.572 . S
Tb2436 O2480 2.465 . S
Tb2436 O2481 2.387 . S
Tb2436 O2483 2.428 . S
Tb2436 O2484 2.308 . S
Tb2436 O2488 2.349 . S
Tb2436 O2491 2.393 . S
Tb2436 C2500 2.802 . S
C2437 N2438 1.379 . S
C2437 C2440 1.416 . S
C2437 C2444 1.424 . S
N2438 C2437 1.379 . S
N2438 C2441 1.334 . S
N2438 Tb2447 2.617 . S
C2439 C2441 1.390 . S
C2439 C2442 1.339 . S
C2439 H2459 0.930 . S
C2440 C2437 1.416 . S
C2440 C2442 1.416 . S
C2440 C2446 1.448 . S
C2441 N2438 1.334 . S
C2441 C2439 1.390 . S
C2441 H2452 0.930 . S
C2442 C2439 1.339 . S
C2442 C2440 1.416 . S
C2442 H2463 0.930 . S
C2443 C2444 1.413 . S
C2443 C2445 1.427 . S
C2443 C2449 1.416 . S
C2444 C2437 1.424 . S
C2444 C2443 1.413 . S
C2444 N2448 1.361 . S
C2445 C2443 1.427 . S
C2445 C2446 1.328 . S
C2445 H2460 0.929 . S
C2446 C2440 1.448 . S
C2446 C2445 1.328 . S
C2446 H2461 0.930 . S
Tb2447 N2438 2.617 . S
Tb2447 N2448 2.572 . S
Tb2447 O2482 2.349 . S
Tb2447 O2485 2.393 . S
Tb2447 O2486 2.465 . S
Tb2447 O2487 2.387 . S
Tb2447 O2489 2.428 . S
Tb2447 O2490 2.308 . S
Tb2447 C2511 2.802 . S
N2448 C2444 1.361 . S
N2448 Tb2447 2.572 . S
N2448 C2450 1.340 . S
C2449 C2443 1.416 . S
C2449 C2451 1.332 . S
C2449 H2457 0.931 . S
C2450 N2448 1.340 . S
C2450 C2451 1.407 . S
C2450 H2456 0.930 . S
C2451 C2449 1.332 . S
C2451 C2450 1.407 . S
C2451 H2453 0.929 . S
H2452 C2441 0.930 . S
H2453 C2451 0.929 . S
H2454 C2469 0.930 . S
H2455 C2476 0.929 . S
H2456 C2450 0.930 . S
H2457 C2449 0.931 . S
H2458 C2472 0.930 . S
H2459 C2439 0.930 . S
H2460 C2445 0.929 . S
H2461 C2446 0.930 . S
H2462 C2467 0.930 . S
H2463 C2442 0.930 . S
H2464 C2475 0.931 . S
N2465 Tb2436 2.617 . S
N2465 C2466 1.379 . S
N2465 C2469 1.334 . S
C2466 N2465 1.379 . S
C2466 C2468 1.416 . S
C2466 C2474 1.424 . S
C2467 H2462 0.930 . S
C2467 C2469 1.390 . S
C2467 C2470 1.339 . S
C2468 C2466 1.416 . S
C2468 C2470 1.416 . S
C2468 C2501 1.448 . S
C2469 H2454 0.930 . S
C2469 N2465 1.334 . S
C2469 C2467 1.390 . S
C2470 C2467 1.339 . S
C2470 C2468 1.416 . S
C2470 H2477 0.930 . S
N2471 Tb2436 2.572 . S
N2471 C2472 1.340 . S
N2471 C2474 1.361 . S
C2472 H2458 0.930 . S
C2472 N2471 1.340 . S
C2472 C2476 1.407 . S
C2473 C2474 1.413 . S
C2473 C2475 1.416 . S
C2473 C2502 1.427 . S
C2474 C2466 1.424 . S
C2474 N2471 1.361 . S
C2474 C2473 1.413 . S
C2475 H2464 0.931 . S
C2475 C2473 1.416 . S
C2475 C2476 1.332 . S
C2476 H2455 0.929 . S
C2476 C2472 1.407 . S
C2476 C2475 1.332 . S
H2477 C2470 0.930 . S
H2478 C2501 0.930 . S
H2479 C2502 0.929 . S
O2480 Tb2436 2.465 . S
O2480 C2500 1.264 . S
O2481 Tb2436 2.387 . S
O2481 C2492 1.264 . S
O2482 Tb2447 2.349 . S
O2482 C2492 1.243 . S
O2483 Tb2436 2.428 . S
O2483 C2500 1.256 . S
O2484 Tb2436 2.308 . S
O2484 C2499 1.266 . S
O2485 Tb2447 2.393 . S
O2485 C2499 1.248 . S
O2486 Tb2447 2.465 . S
O2486 C2511 1.264 . S
O2487 Tb2447 2.387 . S
O2487 C2503 1.264 . S
O2488 Tb2436 2.349 . S
O2488 C2503 1.243 . S
O2489 Tb2447 2.428 . S
O2489 C2511 1.256 . S
O2490 Tb2447 2.308 . S
O2490 C2510 1.266 . S
O2491 Tb2436 2.393 . S
O2491 C2510 1.248 . S
C2492 O2481 1.264 . S
C2492 O2482 1.243 . S
C2493 C2496 1.399 . S
C2493 C2498 1.383 . S
C2493 C2500 1.496 . S
C2494 C2495 1.399 . S
C2494 C2498 1.389 . S
C2495 C2494 1.399 . S
C2495 C2497 1.380 . S
C2495 H2512 0.929 . S
C2496 C2493 1.399 . S
C2496 C2497 1.392 . S
C2496 H2513 0.929 . S
C2497 C2495 1.380 . S
C2497 C2496 1.392 . S
C2497 H2514 0.929 . S
C2498 C2493 1.383 . S
C2498 C2494 1.389 . S
C2498 H2515 0.931 . S
C2499 O2484 1.266 . S
C2499 O2485 1.248 . S
C2500 Tb2436 2.802 . S
C2500 O2480 1.264 . S
C2500 O2483 1.256 . S
C2500 C2493 1.496 . S
C2501 C2468 1.448 . S
C2501 H2478 0.930 . S
C2501 C2502 1.328 . S
C2502 C2473 1.427 . S
C2502 H2479 0.929 . S
C2502 C2501 1.328 . S
C2503 O2487 1.264 . S
C2503 O2488 1.243 . S
C2504 C2507 1.399 . S
C2504 C2508 1.383 . S
C2504 C2511 1.496 . S
C2505 C2506 1.399 . S
C2505 C2508 1.389 . S
C2506 C2505 1.399 . S
C2506 C2509 1.380 . S
C2506 H2516 0.929 . S
C2507 C2504 1.399 . S
C2507 C2509 1.392 . S
C2507 H2517 0.929 . S
C2508 C2504 1.383 . S
C2508 C2505 1.389 . S
C2508 H2518 0.931 . S
C2509 C2506 1.380 . S
C2509 C2507 1.392 . S
C2509 H2519 0.929 . S
C2510 O2490 1.266 . S
C2510 O2491 1.248 . S
C2511 Tb2447 2.802 . S
C2511 O2486 1.264 . S
C2511 O2489 1.256 . S
C2511 C2504 1.496 . S
H2512 C2495 0.929 . S
H2513 C2496 0.929 . S
H2514 C2497 0.929 . S
H2515 C2498 0.931 . S
H2516 C2506 0.929 . S
H2517 C2507 0.929 . S
H2518 C2508 0.931 . S
H2519 C2509 0.929 . S
Tb2520 N2549 2.617 . S
Tb2520 N2555 2.572 . S
Tb2520 O2564 2.465 . S
Tb2520 O2565 2.387 . S
Tb2520 O2567 2.428 . S
Tb2520 O2568 2.308 . S
Tb2520 O2572 2.349 . S
Tb2520 O2575 2.393 . S
Tb2520 C2584 2.802 . S
C2521 N2522 1.379 . S
C2521 C2524 1.416 . S
C2521 C2528 1.424 . S
N2522 C2521 1.379 . S
N2522 C2525 1.334 . S
N2522 Tb2531 2.617 . S
C2523 C2525 1.390 . S
C2523 C2526 1.339 . S
C2523 H2543 0.930 . S
C2524 C2521 1.416 . S
C2524 C2526 1.416 . S
C2524 C2530 1.448 . S
C2525 N2522 1.334 . S
C2525 C2523 1.390 . S
C2525 H2536 0.930 . S
C2526 C2523 1.339 . S
C2526 C2524 1.416 . S
C2526 H2547 0.930 . S
C2527 C2528 1.413 . S
C2527 C2529 1.427 . S
C2527 C2533 1.416 . S
C2528 C2521 1.424 . S
C2528 C2527 1.413 . S
C2528 N2532 1.361 . S
C2529 C2527 1.427 . S
C2529 C2530 1.328 . S
C2529 H2544 0.929 . S
C2530 C2524 1.448 . S
C2530 C2529 1.328 . S
C2530 H2545 0.930 . S
Tb2531 N2522 2.617 . S
Tb2531 N2532 2.572 . S
Tb2531 O2566 2.349 . S
Tb2531 O2569 2.393 . S
Tb2531 O2570 2.465 . S
Tb2531 O2571 2.387 . S
Tb2531 O2573 2.428 . S
Tb2531 O2574 2.308 . S
Tb2531 C2595 2.802 . S
N2532 C2528 1.361 . S
N2532 Tb2531 2.572 . S
N2532 C2534 1.340 . S
C2533 C2527 1.416 . S
C2533 C2535 1.332 . S
C2533 H2541 0.931 . S
C2534 N2532 1.340 . S
C2534 C2535 1.407 . S
C2534 H2540 0.930 . S
C2535 C2533 1.332 . S
C2535 C2534 1.407 . S
C2535 H2537 0.929 . S
H2536 C2525 0.930 . S
H2537 C2535 0.929 . S
H2538 C2553 0.930 . S
H2539 C2560 0.929 . S
H2540 C2534 0.930 . S
H2541 C2533 0.931 . S
H2542 C2556 0.930 . S
H2543 C2523 0.930 . S
H2544 C2529 0.929 . S
H2545 C2530 0.930 . S
H2546 C2551 0.930 . S
H2547 C2526 0.930 . S
H2548 C2559 0.931 . S
N2549 Tb2520 2.617 . S
N2549 C2550 1.379 . S
N2549 C2553 1.334 . S
C2550 N2549 1.379 . S
C2550 C2552 1.416 . S
C2550 C2558 1.424 . S
C2551 H2546 0.930 . S
C2551 C2553 1.390 . S
C2551 C2554 1.339 . S
C2552 C2550 1.416 . S
C2552 C2554 1.416 . S
C2552 C2585 1.448 . S
C2553 H2538 0.930 . S
C2553 N2549 1.334 . S
C2553 C2551 1.390 . S
C2554 C2551 1.339 . S
C2554 C2552 1.416 . S
C2554 H2561 0.930 . S
N2555 Tb2520 2.572 . S
N2555 C2556 1.340 . S
N2555 C2558 1.361 . S
C2556 H2542 0.930 . S
C2556 N2555 1.340 . S
C2556 C2560 1.407 . S
C2557 C2558 1.413 . S
C2557 C2559 1.416 . S
C2557 C2586 1.427 . S
C2558 C2550 1.424 . S
C2558 N2555 1.361 . S
C2558 C2557 1.413 . S
C2559 H2548 0.931 . S
C2559 C2557 1.416 . S
C2559 C2560 1.332 . S
C2560 H2539 0.929 . S
C2560 C2556 1.407 . S
C2560 C2559 1.332 . S
H2561 C2554 0.930 . S
H2562 C2585 0.930 . S
H2563 C2586 0.929 . S
O2564 Tb2520 2.465 . S
O2564 C2584 1.264 . S
O2565 Tb2520 2.387 . S
O2565 C2576 1.264 . S
O2566 Tb2531 2.349 . S
O2566 C2576 1.243 . S
O2567 Tb2520 2.428 . S
O2567 C2584 1.256 . S
O2568 Tb2520 2.308 . S
O2568 C2583 1.266 . S
O2569 Tb2531 2.393 . S
O2569 C2583 1.248 . S
O2570 Tb2531 2.465 . S
O2570 C2595 1.264 . S
O2571 Tb2531 2.387 . S
O2571 C2587 1.264 . S
O2572 Tb2520 2.349 . S
O2572 C2587 1.243 . S
O2573 Tb2531 2.428 . S
O2573 C2595 1.256 . S
O2574 Tb2531 2.308 . S
O2574 C2594 1.266 . S
O2575 Tb2520 2.393 . S
O2575 C2594 1.248 . S
C2576 O2565 1.264 . S
C2576 O2566 1.243 . S
C2577 C2580 1.399 . S
C2577 C2582 1.383 . S
C2577 C2584 1.496 . S
C2578 C2579 1.399 . S
C2578 C2582 1.389 . S
C2579 C2578 1.399 . S
C2579 C2581 1.380 . S
C2579 H2596 0.929 . S
C2580 C2577 1.399 . S
C2580 C2581 1.392 . S
C2580 H2597 0.929 . S
C2581 C2579 1.380 . S
C2581 C2580 1.392 . S
C2581 H2598 0.929 . S
C2582 C2577 1.383 . S
C2582 C2578 1.389 . S
C2582 H2599 0.931 . S
C2583 O2568 1.266 . S
C2583 O2569 1.248 . S
C2584 Tb2520 2.802 . S
C2584 O2564 1.264 . S
C2584 O2567 1.256 . S
C2584 C2577 1.496 . S
C2585 C2552 1.448 . S
C2585 H2562 0.930 . S
C2585 C2586 1.328 . S
C2586 C2557 1.427 . S
C2586 H2563 0.929 . S
C2586 C2585 1.328 . S
C2587 O2571 1.264 . S
C2587 O2572 1.243 . S
C2588 C2591 1.399 . S
C2588 C2592 1.383 . S
C2588 C2595 1.496 . S
C2589 C2590 1.399 . S
C2589 C2592 1.389 . S
C2590 C2589 1.399 . S
C2590 C2593 1.380 . S
C2590 H2600 0.929 . S
C2591 C2588 1.399 . S
C2591 C2593 1.392 . S
C2591 H2601 0.929 . S
C2592 C2588 1.383 . S
C2592 C2589 1.389 . S
C2592 H2602 0.931 . S
C2593 C2590 1.380 . S
C2593 C2591 1.392 . S
C2593 H2603 0.929 . S
C2594 O2574 1.266 . S
C2594 O2575 1.248 . S
C2595 Tb2531 2.802 . S
C2595 O2570 1.264 . S
C2595 O2573 1.256 . S
C2595 C2588 1.496 . S
H2596 C2579 0.929 . S
H2597 C2580 0.929 . S
H2598 C2581 0.929 . S
H2599 C2582 0.931 . S
H2600 C2590 0.929 . S
H2601 C2591 0.929 . S
H2602 C2592 0.931 . S
H2603 C2593 0.929 . S
Tb2604 N2633 2.617 . S
Tb2604 N2639 2.572 . S
Tb2604 O2648 2.465 . S
Tb2604 O2649 2.387 . S
Tb2604 O2651 2.428 . S
Tb2604 O2652 2.308 . S
Tb2604 O2656 2.349 . S
Tb2604 O2659 2.393 . S
Tb2604 C2668 2.802 . S
C2605 N2606 1.379 . S
C2605 C2608 1.416 . S
C2605 C2612 1.424 . S
N2606 C2605 1.379 . S
N2606 C2609 1.334 . S
N2606 Tb2615 2.617 . S
C2607 C2609 1.390 . S
C2607 C2610 1.339 . S
C2607 H2627 0.930 . S
C2608 C2605 1.416 . S
C2608 C2610 1.416 . S
C2608 C2614 1.448 . S
C2609 N2606 1.334 . S
C2609 C2607 1.390 . S
C2609 H2620 0.930 . S
C2610 C2607 1.339 . S
C2610 C2608 1.416 . S
C2610 H2631 0.930 . S
C2611 C2612 1.413 . S
C2611 C2613 1.427 . S
C2611 C2617 1.416 . S
C2612 C2605 1.424 . S
C2612 C2611 1.413 . S
C2612 N2616 1.361 . S
C2613 C2611 1.427 . S
C2613 C2614 1.328 . S
C2613 H2628 0.929 . S
C2614 C2608 1.448 . S
C2614 C2613 1.328 . S
C2614 H2629 0.930 . S
Tb2615 N2606 2.617 . S
Tb2615 N2616 2.572 . S
Tb2615 O2650 2.349 . S
Tb2615 O2653 2.393 . S
Tb2615 O2654 2.465 . S
Tb2615 O2655 2.387 . S
Tb2615 O2657 2.428 . S
Tb2615 O2658 2.308 . S
Tb2615 C2679 2.802 . S
N2616 C2612 1.361 . S
N2616 Tb2615 2.572 . S
N2616 C2618 1.340 . S
C2617 C2611 1.416 . S
C2617 C2619 1.332 . S
C2617 H2625 0.931 . S
C2618 N2616 1.340 . S
C2618 C2619 1.407 . S
C2618 H2624 0.930 . S
C2619 C2617 1.332 . S
C2619 C2618 1.407 . S
C2619 H2621 0.929 . S
H2620 C2609 0.930 . S
H2621 C2619 0.929 . S
H2622 C2637 0.930 . S
H2623 C2644 0.929 . S
H2624 C2618 0.930 . S
H2625 C2617 0.931 . S
H2626 C2640 0.930 . S
H2627 C2607 0.930 . S
H2628 C2613 0.929 . S
H2629 C2614 0.930 . S
H2630 C2635 0.930 . S
H2631 C2610 0.930 . S
H2632 C2643 0.931 . S
N2633 Tb2604 2.617 . S
N2633 C2634 1.379 . S
N2633 C2637 1.334 . S
C2634 N2633 1.379 . S
C2634 C2636 1.416 . S
C2634 C2642 1.424 . S
C2635 H2630 0.930 . S
C2635 C2637 1.390 . S
C2635 C2638 1.339 . S
C2636 C2634 1.416 . S
C2636 C2638 1.416 . S
C2636 C2669 1.448 . S
C2637 H2622 0.930 . S
C2637 N2633 1.334 . S
C2637 C2635 1.390 . S
C2638 C2635 1.339 . S
C2638 C2636 1.416 . S
C2638 H2645 0.930 . S
N2639 Tb2604 2.572 . S
N2639 C2640 1.340 . S
N2639 C2642 1.361 . S
C2640 H2626 0.930 . S
C2640 N2639 1.340 . S
C2640 C2644 1.407 . S
C2641 C2642 1.413 . S
C2641 C2643 1.416 . S
C2641 C2670 1.427 . S
C2642 C2634 1.424 . S
C2642 N2639 1.361 . S
C2642 C2641 1.413 . S
C2643 H2632 0.931 . S
C2643 C2641 1.416 . S
C2643 C2644 1.332 . S
C2644 H2623 0.929 . S
C2644 C2640 1.407 . S
C2644 C2643 1.332 . S
H2645 C2638 0.930 . S
H2646 C2669 0.930 . S
H2647 C2670 0.929 . S
O2648 Tb2604 2.465 . S
O2648 C2668 1.264 . S
O2649 Tb2604 2.387 . S
O2649 C2660 1.264 . S
O2650 Tb2615 2.349 . S
O2650 C2660 1.243 . S
O2651 Tb2604 2.428 . S
O2651 C2668 1.256 . S
O2652 Tb2604 2.308 . S
O2652 C2667 1.266 . S
O2653 Tb2615 2.393 . S
O2653 C2667 1.248 . S
O2654 Tb2615 2.465 . S
O2654 C2679 1.264 . S
O2655 Tb2615 2.387 . S
O2655 C2671 1.264 . S
O2656 Tb2604 2.349 . S
O2656 C2671 1.243 . S
O2657 Tb2615 2.428 . S
O2657 C2679 1.256 . S
O2658 Tb2615 2.308 . S
O2658 C2678 1.266 . S
O2659 Tb2604 2.393 . S
O2659 C2678 1.248 . S
C2660 O2649 1.264 . S
C2660 O2650 1.243 . S
C2661 C2664 1.399 . S
C2661 C2666 1.383 . S
C2661 C2668 1.496 . S
C2662 C2663 1.399 . S
C2662 C2666 1.389 . S
C2663 C2662 1.399 . S
C2663 C2665 1.380 . S
C2663 H2680 0.929 . S
C2664 C2661 1.399 . S
C2664 C2665 1.392 . S
C2664 H2681 0.929 . S
C2665 C2663 1.380 . S
C2665 C2664 1.392 . S
C2665 H2682 0.929 . S
C2666 C2661 1.383 . S
C2666 C2662 1.389 . S
C2666 H2683 0.931 . S
C2667 O2652 1.266 . S
C2667 O2653 1.248 . S
C2668 Tb2604 2.802 . S
C2668 O2648 1.264 . S
C2668 O2651 1.256 . S
C2668 C2661 1.496 . S
C2669 C2636 1.448 . S
C2669 H2646 0.930 . S
C2669 C2670 1.328 . S
C2670 C2641 1.427 . S
C2670 H2647 0.929 . S
C2670 C2669 1.328 . S
C2671 O2655 1.264 . S
C2671 O2656 1.243 . S
C2672 C2675 1.399 . S
C2672 C2676 1.383 . S
C2672 C2679 1.496 . S
C2673 C2674 1.399 . S
C2673 C2676 1.389 . S
C2674 C2673 1.399 . S
C2674 C2677 1.380 . S
C2674 H2684 0.929 . S
C2675 C2672 1.399 . S
C2675 C2677 1.392 . S
C2675 H2685 0.929 . S
C2676 C2672 1.383 . S
C2676 C2673 1.389 . S
C2676 H2686 0.931 . S
C2677 C2674 1.380 . S
C2677 C2675 1.392 . S
C2677 H2687 0.929 . S
C2678 O2658 1.266 . S
C2678 O2659 1.248 . S
C2679 Tb2615 2.802 . S
C2679 O2654 1.264 . S
C2679 O2657 1.256 . S
C2679 C2672 1.496 . S
H2680 C2663 0.929 . S
H2681 C2664 0.929 . S
H2682 C2665 0.929 . S
H2683 C2666 0.931 . S
H2684 C2674 0.929 . S
H2685 C2675 0.929 . S
H2686 C2676 0.931 . S
H2687 C2677 0.929 . S
Tb2688 N2717 2.617 . S
Tb2688 N2723 2.572 . S
Tb2688 O2732 2.465 . S
Tb2688 O2733 2.387 . S
Tb2688 O2735 2.428 . S
Tb2688 O2736 2.308 . S
Tb2688 O2740 2.349 . S
Tb2688 O2743 2.393 . S
Tb2688 C2752 2.802 . S
C2689 N2690 1.379 . S
C2689 C2692 1.416 . S
C2689 C2696 1.424 . S
N2690 C2689 1.379 . S
N2690 C2693 1.334 . S
N2690 Tb2699 2.617 . S
C2691 C2693 1.390 . S
C2691 C2694 1.339 . S
C2691 H2711 0.930 . S
C2692 C2689 1.416 . S
C2692 C2694 1.416 . S
C2692 C2698 1.448 . S
C2693 N2690 1.334 . S
C2693 C2691 1.390 . S
C2693 H2704 0.930 . S
C2694 C2691 1.339 . S
C2694 C2692 1.416 . S
C2694 H2715 0.930 . S
C2695 C2696 1.413 . S
C2695 C2697 1.427 . S
C2695 C2701 1.416 . S
C2696 C2689 1.424 . S
C2696 C2695 1.413 . S
C2696 N2700 1.361 . S
C2697 C2695 1.427 . S
C2697 C2698 1.328 . S
C2697 H2712 0.929 . S
C2698 C2692 1.448 . S
C2698 C2697 1.328 . S
C2698 H2713 0.930 . S
Tb2699 N2690 2.617 . S
Tb2699 N2700 2.572 . S
Tb2699 O2734 2.349 . S
Tb2699 O2737 2.393 . S
Tb2699 O2738 2.465 . S
Tb2699 O2739 2.387 . S
Tb2699 O2741 2.428 . S
Tb2699 O2742 2.308 . S
Tb2699 C2763 2.802 . S
N2700 C2696 1.361 . S
N2700 Tb2699 2.572 . S
N2700 C2702 1.340 . S
C2701 C2695 1.416 . S
C2701 C2703 1.332 . S
C2701 H2709 0.931 . S
C2702 N2700 1.340 . S
C2702 C2703 1.407 . S
C2702 H2708 0.930 . S
C2703 C2701 1.332 . S
C2703 C2702 1.407 . S
C2703 H2705 0.929 . S
H2704 C2693 0.930 . S
H2705 C2703 0.929 . S
H2706 C2721 0.930 . S
H2707 C2728 0.929 . S
H2708 C2702 0.930 . S
H2709 C2701 0.931 . S
H2710 C2724 0.930 . S
H2711 C2691 0.930 . S
H2712 C2697 0.929 . S
H2713 C2698 0.930 . S
H2714 C2719 0.930 . S
H2715 C2694 0.930 . S
H2716 C2727 0.931 . S
N2717 Tb2688 2.617 . S
N2717 C2718 1.379 . S
N2717 C2721 1.334 . S
C2718 N2717 1.379 . S
C2718 C2720 1.416 . S
C2718 C2726 1.424 . S
C2719 H2714 0.930 . S
C2719 C2721 1.390 . S
C2719 C2722 1.339 . S
C2720 C2718 1.416 . S
C2720 C2722 1.416 . S
C2720 C2753 1.448 . S
C2721 H2706 0.930 . S
C2721 N2717 1.334 . S
C2721 C2719 1.390 . S
C2722 C2719 1.339 . S
C2722 C2720 1.416 . S
C2722 H2729 0.930 . S
N2723 Tb2688 2.572 . S
N2723 C2724 1.340 . S
N2723 C2726 1.361 . S
C2724 H2710 0.930 . S
C2724 N2723 1.340 . S
C2724 C2728 1.407 . S
C2725 C2726 1.413 . S
C2725 C2727 1.416 . S
C2725 C2754 1.427 . S
C2726 C2718 1.424 . S
C2726 N2723 1.361 . S
C2726 C2725 1.413 . S
C2727 H2716 0.931 . S
C2727 C2725 1.416 . S
C2727 C2728 1.332 . S
C2728 H2707 0.929 . S
C2728 C2724 1.407 . S
C2728 C2727 1.332 . S
H2729 C2722 0.930 . S
H2730 C2753 0.930 . S
H2731 C2754 0.929 . S
O2732 Tb2688 2.465 . S
O2732 C2752 1.264 . S
O2733 Tb2688 2.387 . S
O2733 C2744 1.264 . S
O2734 Tb2699 2.349 . S
O2734 C2744 1.243 . S
O2735 Tb2688 2.428 . S
O2735 C2752 1.256 . S
O2736 Tb2688 2.308 . S
O2736 C2751 1.266 . S
O2737 Tb2699 2.393 . S
O2737 C2751 1.248 . S
O2738 Tb2699 2.465 . S
O2738 C2763 1.264 . S
O2739 Tb2699 2.387 . S
O2739 C2755 1.264 . S
O2740 Tb2688 2.349 . S
O2740 C2755 1.243 . S
O2741 Tb2699 2.428 . S
O2741 C2763 1.256 . S
O2742 Tb2699 2.308 . S
O2742 C2762 1.266 . S
O2743 Tb2688 2.393 . S
O2743 C2762 1.248 . S
C2744 O2733 1.264 . S
C2744 O2734 1.243 . S
C2745 C2748 1.399 . S
C2745 C2750 1.383 . S
C2745 C2752 1.496 . S
C2746 C2747 1.399 . S
C2746 C2750 1.389 . S
C2747 C2746 1.399 . S
C2747 C2749 1.380 . S
C2747 H2764 0.929 . S
C2748 C2745 1.399 . S
C2748 C2749 1.392 . S
C2748 H2765 0.929 . S
C2749 C2747 1.380 . S
C2749 C2748 1.392 . S
C2749 H2766 0.929 . S
C2750 C2745 1.383 . S
C2750 C2746 1.389 . S
C2750 H2767 0.931 . S
C2751 O2736 1.266 . S
C2751 O2737 1.248 . S
C2752 Tb2688 2.802 . S
C2752 O2732 1.264 . S
C2752 O2735 1.256 . S
C2752 C2745 1.496 . S
C2753 C2720 1.448 . S
C2753 H2730 0.930 . S
C2753 C2754 1.328 . S
C2754 C2725 1.427 . S
C2754 H2731 0.929 . S
C2754 C2753 1.328 . S
C2755 O2739 1.264 . S
C2755 O2740 1.243 . S
C2756 C2759 1.399 . S
C2756 C2760 1.383 . S
C2756 C2763 1.496 . S
C2757 C2758 1.399 . S
C2757 C2760 1.389 . S
C2758 C2757 1.399 . S
C2758 C2761 1.380 . S
C2758 H2768 0.929 . S
C2759 C2756 1.399 . S
C2759 C2761 1.392 . S
C2759 H2769 0.929 . S
C2760 C2756 1.383 . S
C2760 C2757 1.389 . S
C2760 H2770 0.931 . S
C2761 C2758 1.380 . S
C2761 C2759 1.392 . S
C2761 H2771 0.929 . S
C2762 O2742 1.266 . S
C2762 O2743 1.248 . S
C2763 Tb2699 2.802 . S
C2763 O2738 1.264 . S
C2763 O2741 1.256 . S
C2763 C2756 1.496 . S
H2764 C2747 0.929 . S
H2765 C2748 0.929 . S
H2766 C2749 0.929 . S
H2767 C2750 0.931 . S
H2768 C2758 0.929 . S
H2769 C2759 0.929 . S
H2770 C2760 0.931 . S
H2771 C2761 0.929 . S
Tb2772 N2801 2.617 . S
Tb2772 N2807 2.572 . S
Tb2772 O2816 2.465 . S
Tb2772 O2817 2.387 . S
Tb2772 O2819 2.428 . S
Tb2772 O2820 2.308 . S
Tb2772 O2824 2.349 . S
Tb2772 O2827 2.393 . S
Tb2772 C2836 2.802 . S
C2773 N2774 1.379 . S
C2773 C2776 1.416 . S
C2773 C2780 1.424 . S
N2774 C2773 1.379 . S
N2774 C2777 1.334 . S
N2774 Tb2783 2.617 . S
C2775 C2777 1.390 . S
C2775 C2778 1.339 . S
C2775 H2795 0.930 . S
C2776 C2773 1.416 . S
C2776 C2778 1.416 . S
C2776 C2782 1.448 . S
C2777 N2774 1.334 . S
C2777 C2775 1.390 . S
C2777 H2788 0.930 . S
C2778 C2775 1.339 . S
C2778 C2776 1.416 . S
C2778 H2799 0.930 . S
C2779 C2780 1.413 . S
C2779 C2781 1.427 . S
C2779 C2785 1.416 . S
C2780 C2773 1.424 . S
C2780 C2779 1.413 . S
C2780 N2784 1.361 . S
C2781 C2779 1.427 . S
C2781 C2782 1.328 . S
C2781 H2796 0.929 . S
C2782 C2776 1.448 . S
C2782 C2781 1.328 . S
C2782 H2797 0.930 . S
Tb2783 N2774 2.617 . S
Tb2783 N2784 2.572 . S
Tb2783 O2818 2.349 . S
Tb2783 O2821 2.393 . S
Tb2783 O2822 2.465 . S
Tb2783 O2823 2.387 . S
Tb2783 O2825 2.428 . S
Tb2783 O2826 2.308 . S
Tb2783 C2847 2.802 . S
N2784 C2780 1.361 . S
N2784 Tb2783 2.572 . S
N2784 C2786 1.340 . S
C2785 C2779 1.416 . S
C2785 C2787 1.332 . S
C2785 H2793 0.931 . S
C2786 N2784 1.340 . S
C2786 C2787 1.407 . S
C2786 H2792 0.930 . S
C2787 C2785 1.332 . S
C2787 C2786 1.407 . S
C2787 H2789 0.929 . S
H2788 C2777 0.930 . S
H2789 C2787 0.929 . S
H2790 C2805 0.930 . S
H2791 C2812 0.929 . S
H2792 C2786 0.930 . S
H2793 C2785 0.931 . S
H2794 C2808 0.930 . S
H2795 C2775 0.930 . S
H2796 C2781 0.929 . S
H2797 C2782 0.930 . S
H2798 C2803 0.930 . S
H2799 C2778 0.930 . S
H2800 C2811 0.931 . S
N2801 Tb2772 2.617 . S
N2801 C2802 1.379 . S
N2801 C2805 1.334 . S
C2802 N2801 1.379 . S
C2802 C2804 1.416 . S
C2802 C2810 1.424 . S
C2803 H2798 0.930 . S
C2803 C2805 1.390 . S
C2803 C2806 1.339 . S
C2804 C2802 1.416 . S
C2804 C2806 1.416 . S
C2804 C2837 1.448 . S
C2805 H2790 0.930 . S
C2805 N2801 1.334 . S
C2805 C2803 1.390 . S
C2806 C2803 1.339 . S
C2806 C2804 1.416 . S
C2806 H2813 0.930 . S
N2807 Tb2772 2.572 . S
N2807 C2808 1.340 . S
N2807 C2810 1.361 . S
C2808 H2794 0.930 . S
C2808 N2807 1.340 . S
C2808 C2812 1.407 . S
C2809 C2810 1.413 . S
C2809 C2811 1.416 . S
C2809 C2838 1.427 . S
C2810 C2802 1.424 . S
C2810 N2807 1.361 . S
C2810 C2809 1.413 . S
C2811 H2800 0.931 . S
C2811 C2809 1.416 . S
C2811 C2812 1.332 . S
C2812 H2791 0.929 . S
C2812 C2808 1.407 . S
C2812 C2811 1.332 . S
H2813 C2806 0.930 . S
H2814 C2837 0.930 . S
H2815 C2838 0.929 . S
O2816 Tb2772 2.465 . S
O2816 C2836 1.264 . S
O2817 Tb2772 2.387 . S
O2817 C2828 1.264 . S
O2818 Tb2783 2.349 . S
O2818 C2828 1.243 . S
O2819 Tb2772 2.428 . S
O2819 C2836 1.256 . S
O2820 Tb2772 2.308 . S
O2820 C2835 1.266 . S
O2821 Tb2783 2.393 . S
O2821 C2835 1.248 . S
O2822 Tb2783 2.465 . S
O2822 C2847 1.264 . S
O2823 Tb2783 2.387 . S
O2823 C2839 1.264 . S
O2824 Tb2772 2.349 . S
O2824 C2839 1.243 . S
O2825 Tb2783 2.428 . S
O2825 C2847 1.256 . S
O2826 Tb2783 2.308 . S
O2826 C2846 1.266 . S
O2827 Tb2772 2.393 . S
O2827 C2846 1.248 . S
C2828 O2817 1.264 . S
C2828 O2818 1.243 . S
C2829 C2832 1.399 . S
C2829 C2834 1.383 . S
C2829 C2836 1.496 . S
C2830 C2831 1.399 . S
C2830 C2834 1.389 . S
C2831 C2830 1.399 . S
C2831 C2833 1.380 . S
C2831 H2848 0.929 . S
C2832 C2829 1.399 . S
C2832 C2833 1.392 . S
C2832 H2849 0.929 . S
C2833 C2831 1.380 . S
C2833 C2832 1.392 . S
C2833 H2850 0.929 . S
C2834 C2829 1.383 . S
C2834 C2830 1.389 . S
C2834 H2851 0.931 . S
C2835 O2820 1.266 . S
C2835 O2821 1.248 . S
C2836 Tb2772 2.802 . S
C2836 O2816 1.264 . S
C2836 O2819 1.256 . S
C2836 C2829 1.496 . S
C2837 C2804 1.448 . S
C2837 H2814 0.930 . S
C2837 C2838 1.328 . S
C2838 C2809 1.427 . S
C2838 H2815 0.929 . S
C2838 C2837 1.328 . S
C2839 O2823 1.264 . S
C2839 O2824 1.243 . S
C2840 C2843 1.399 . S
C2840 C2844 1.383 . S
C2840 C2847 1.496 . S
C2841 C2842 1.399 . S
C2841 C2844 1.389 . S
C2842 C2841 1.399 . S
C2842 C2845 1.380 . S
C2842 H2852 0.929 . S
C2843 C2840 1.399 . S
C2843 C2845 1.392 . S
C2843 H2853 0.929 . S
C2844 C2840 1.383 . S
C2844 C2841 1.389 . S
C2844 H2854 0.931 . S
C2845 C2842 1.380 . S
C2845 C2843 1.392 . S
C2845 H2855 0.929 . S
C2846 O2826 1.266 . S
C2846 O2827 1.248 . S
C2847 Tb2783 2.802 . S
C2847 O2822 1.264 . S
C2847 O2825 1.256 . S
C2847 C2840 1.496 . S
H2848 C2831 0.929 . S
H2849 C2832 0.929 . S
H2850 C2833 0.929 . S
H2851 C2834 0.931 . S
H2852 C2842 0.929 . S
H2853 C2843 0.929 . S
H2854 C2844 0.931 . S
H2855 C2845 0.929 . S
Tb2856 N2885 2.617 . S
Tb2856 N2891 2.572 . S
Tb2856 O2900 2.465 . S
Tb2856 O2901 2.387 . S
Tb2856 O2903 2.428 . S
Tb2856 O2904 2.308 . S
Tb2856 O2908 2.349 . S
Tb2856 O2911 2.393 . S
Tb2856 C2920 2.802 . S
C2857 N2858 1.379 . S
C2857 C2860 1.416 . S
C2857 C2864 1.424 . S
N2858 C2857 1.379 . S
N2858 C2861 1.334 . S
N2858 Tb2867 2.617 . S
C2859 C2861 1.390 . S
C2859 C2862 1.339 . S
C2859 H2879 0.930 . S
C2860 C2857 1.416 . S
C2860 C2862 1.416 . S
C2860 C2866 1.448 . S
C2861 N2858 1.334 . S
C2861 C2859 1.390 . S
C2861 H2872 0.930 . S
C2862 C2859 1.339 . S
C2862 C2860 1.416 . S
C2862 H2883 0.930 . S
C2863 C2864 1.413 . S
C2863 C2865 1.427 . S
C2863 C2869 1.416 . S
C2864 C2857 1.424 . S
C2864 C2863 1.413 . S
C2864 N2868 1.361 . S
C2865 C2863 1.427 . S
C2865 C2866 1.328 . S
C2865 H2880 0.929 . S
C2866 C2860 1.448 . S
C2866 C2865 1.328 . S
C2866 H2881 0.930 . S
Tb2867 N2858 2.617 . S
Tb2867 N2868 2.572 . S
Tb2867 O2902 2.349 . S
Tb2867 O2905 2.393 . S
Tb2867 O2906 2.465 . S
Tb2867 O2907 2.387 . S
Tb2867 O2909 2.428 . S
Tb2867 O2910 2.308 . S
Tb2867 C2931 2.802 . S
N2868 C2864 1.361 . S
N2868 Tb2867 2.572 . S
N2868 C2870 1.340 . S
C2869 C2863 1.416 . S
C2869 C2871 1.332 . S
C2869 H2877 0.931 . S
C2870 N2868 1.340 . S
C2870 C2871 1.407 . S
C2870 H2876 0.930 . S
C2871 C2869 1.332 . S
C2871 C2870 1.407 . S
C2871 H2873 0.929 . S
H2872 C2861 0.930 . S
H2873 C2871 0.929 . S
H2874 C2889 0.930 . S
H2875 C2896 0.929 . S
H2876 C2870 0.930 . S
H2877 C2869 0.931 . S
H2878 C2892 0.930 . S
H2879 C2859 0.930 . S
H2880 C2865 0.929 . S
H2881 C2866 0.930 . S
H2882 C2887 0.930 . S
H2883 C2862 0.930 . S
H2884 C2895 0.931 . S
N2885 Tb2856 2.617 . S
N2885 C2886 1.379 . S
N2885 C2889 1.334 . S
C2886 N2885 1.379 . S
C2886 C2888 1.416 . S
C2886 C2894 1.424 . S
C2887 H2882 0.930 . S
C2887 C2889 1.390 . S
C2887 C2890 1.339 . S
C2888 C2886 1.416 . S
C2888 C2890 1.416 . S
C2888 C2921 1.448 . S
C2889 H2874 0.930 . S
C2889 N2885 1.334 . S
C2889 C2887 1.390 . S
C2890 C2887 1.339 . S
C2890 C2888 1.416 . S
C2890 H2897 0.930 . S
N2891 Tb2856 2.572 . S
N2891 C2892 1.340 . S
N2891 C2894 1.361 . S
C2892 H2878 0.930 . S
C2892 N2891 1.340 . S
C2892 C2896 1.407 . S
C2893 C2894 1.413 . S
C2893 C2895 1.416 . S
C2893 C2922 1.427 . S
C2894 C2886 1.424 . S
C2894 N2891 1.361 . S
C2894 C2893 1.413 . S
C2895 H2884 0.931 . S
C2895 C2893 1.416 . S
C2895 C2896 1.332 . S
C2896 H2875 0.929 . S
C2896 C2892 1.407 . S
C2896 C2895 1.332 . S
H2897 C2890 0.930 . S
H2898 C2921 0.930 . S
H2899 C2922 0.929 . S
O2900 Tb2856 2.465 . S
O2900 C2920 1.264 . S
O2901 Tb2856 2.387 . S
O2901 C2912 1.264 . S
O2902 Tb2867 2.349 . S
O2902 C2912 1.243 . S
O2903 Tb2856 2.428 . S
O2903 C2920 1.256 . S
O2904 Tb2856 2.308 . S
O2904 C2919 1.266 . S
O2905 Tb2867 2.393 . S
O2905 C2919 1.248 . S
O2906 Tb2867 2.465 . S
O2906 C2931 1.264 . S
O2907 Tb2867 2.387 . S
O2907 C2923 1.264 . S
O2908 Tb2856 2.349 . S
O2908 C2923 1.243 . S
O2909 Tb2867 2.428 . S
O2909 C2931 1.256 . S
O2910 Tb2867 2.308 . S
O2910 C2930 1.266 . S
O2911 Tb2856 2.393 . S
O2911 C2930 1.248 . S
C2912 O2901 1.264 . S
C2912 O2902 1.243 . S
C2913 C2916 1.399 . S
C2913 C2918 1.383 . S
C2913 C2920 1.496 . S
C2914 C2915 1.399 . S
C2914 C2918 1.389 . S
C2915 C2914 1.399 . S
C2915 C2917 1.380 . S
C2915 H2932 0.929 . S
C2916 C2913 1.399 . S
C2916 C2917 1.392 . S
C2916 H2933 0.929 . S
C2917 C2915 1.380 . S
C2917 C2916 1.392 . S
C2917 H2934 0.929 . S
C2918 C2913 1.383 . S
C2918 C2914 1.389 . S
C2918 H2935 0.931 . S
C2919 O2904 1.266 . S
C2919 O2905 1.248 . S
C2920 Tb2856 2.802 . S
C2920 O2900 1.264 . S
C2920 O2903 1.256 . S
C2920 C2913 1.496 . S
C2921 C2888 1.448 . S
C2921 H2898 0.930 . S
C2921 C2922 1.328 . S
C2922 C2893 1.427 . S
C2922 H2899 0.929 . S
C2922 C2921 1.328 . S
C2923 O2907 1.264 . S
C2923 O2908 1.243 . S
C2924 C2927 1.399 . S
C2924 C2928 1.383 . S
C2924 C2931 1.496 . S
C2925 C2926 1.399 . S
C2925 C2928 1.389 . S
C2926 C2925 1.399 . S
C2926 C2929 1.380 . S
C2926 H2936 0.929 . S
C2927 C2924 1.399 . S
C2927 C2929 1.392 . S
C2927 H2937 0.929 . S
C2928 C2924 1.383 . S
C2928 C2925 1.389 . S
C2928 H2938 0.931 . S
C2929 C2926 1.380 . S
C2929 C2927 1.392 . S
C2929 H2939 0.929 . S
C2930 O2910 1.266 . S
C2930 O2911 1.248 . S
C2931 Tb2867 2.802 . S
C2931 O2906 1.264 . S
C2931 O2909 1.256 . S
C2931 C2924 1.496 . S
H2932 C2915 0.929 . S
H2933 C2916 0.929 . S
H2934 C2917 0.929 . S
H2935 C2918 0.931 . S
H2936 C2926 0.929 . S
H2937 C2927 0.929 . S
H2938 C2928 0.931 . S
H2939 C2929 0.929 . S
Tb2940 N2969 2.617 . S
Tb2940 N2975 2.572 . S
Tb2940 O2984 2.465 . S
Tb2940 O2985 2.387 . S
Tb2940 O2987 2.428 . S
Tb2940 O2988 2.308 . S
Tb2940 O2992 2.349 . S
Tb2940 O2995 2.393 . S
Tb2940 C3004 2.802 . S
C2941 N2942 1.379 . S
C2941 C2944 1.416 . S
C2941 C2948 1.424 . S
N2942 C2941 1.379 . S
N2942 C2945 1.334 . S
N2942 Tb2951 2.617 . S
C2943 C2945 1.390 . S
C2943 C2946 1.339 . S
C2943 H2963 0.930 . S
C2944 C2941 1.416 . S
C2944 C2946 1.416 . S
C2944 C2950 1.448 . S
C2945 N2942 1.334 . S
C2945 C2943 1.390 . S
C2945 H2956 0.930 . S
C2946 C2943 1.339 . S
C2946 C2944 1.416 . S
C2946 H2967 0.930 . S
C2947 C2948 1.413 . S
C2947 C2949 1.427 . S
C2947 C2953 1.416 . S
C2948 C2941 1.424 . S
C2948 C2947 1.413 . S
C2948 N2952 1.361 . S
C2949 C2947 1.427 . S
C2949 C2950 1.328 . S
C2949 H2964 0.929 . S
C2950 C2944 1.448 . S
C2950 C2949 1.328 . S
C2950 H2965 0.930 . S
Tb2951 N2942 2.617 . S
Tb2951 N2952 2.572 . S
Tb2951 O2986 2.349 . S
Tb2951 O2989 2.393 . S
Tb2951 O2990 2.465 . S
Tb2951 O2991 2.387 . S
Tb2951 O2993 2.428 . S
Tb2951 O2994 2.308 . S
Tb2951 C3015 2.802 . S
N2952 C2948 1.361 . S
N2952 Tb2951 2.572 . S
N2952 C2954 1.340 . S
C2953 C2947 1.416 . S
C2953 C2955 1.332 . S
C2953 H2961 0.931 . S
C2954 N2952 1.340 . S
C2954 C2955 1.407 . S
C2954 H2960 0.930 . S
C2955 C2953 1.332 . S
C2955 C2954 1.407 . S
C2955 H2957 0.929 . S
H2956 C2945 0.930 . S
H2957 C2955 0.929 . S
H2958 C2973 0.930 . S
H2959 C2980 0.929 . S
H2960 C2954 0.930 . S
H2961 C2953 0.931 . S
H2962 C2976 0.930 . S
H2963 C2943 0.930 . S
H2964 C2949 0.929 . S
H2965 C2950 0.930 . S
H2966 C2971 0.930 . S
H2967 C2946 0.930 . S
H2968 C2979 0.931 . S
N2969 Tb2940 2.617 . S
N2969 C2970 1.379 . S
N2969 C2973 1.334 . S
C2970 N2969 1.379 . S
C2970 C2972 1.416 . S
C2970 C2978 1.424 . S
C2971 H2966 0.930 . S
C2971 C2973 1.390 . S
C2971 C2974 1.339 . S
C2972 C2970 1.416 . S
C2972 C2974 1.416 . S
C2972 C3005 1.448 . S
C2973 H2958 0.930 . S
C2973 N2969 1.334 . S
C2973 C2971 1.390 . S
C2974 C2971 1.339 . S
C2974 C2972 1.416 . S
C2974 H2981 0.930 . S
N2975 Tb2940 2.572 . S
N2975 C2976 1.340 . S
N2975 C2978 1.361 . S
C2976 H2962 0.930 . S
C2976 N2975 1.340 . S
C2976 C2980 1.407 . S
C2977 C2978 1.413 . S
C2977 C2979 1.416 . S
C2977 C3006 1.427 . S
C2978 C2970 1.424 . S
C2978 N2975 1.361 . S
C2978 C2977 1.413 . S
C2979 H2968 0.931 . S
C2979 C2977 1.416 . S
C2979 C2980 1.332 . S
C2980 H2959 0.929 . S
C2980 C2976 1.407 . S
C2980 C2979 1.332 . S
H2981 C2974 0.930 . S
H2982 C3005 0.930 . S
H2983 C3006 0.929 . S
O2984 Tb2940 2.465 . S
O2984 C3004 1.264 . S
O2985 Tb2940 2.387 . S
O2985 C2996 1.264 . S
O2986 Tb2951 2.349 . S
O2986 C2996 1.243 . S
O2987 Tb2940 2.428 . S
O2987 C3004 1.256 . S
O2988 Tb2940 2.308 . S
O2988 C3003 1.266 . S
O2989 Tb2951 2.393 . S
O2989 C3003 1.248 . S
O2990 Tb2951 2.465 . S
O2990 C3015 1.264 . S
O2991 Tb2951 2.387 . S
O2991 C3007 1.264 . S
O2992 Tb2940 2.349 . S
O2992 C3007 1.243 . S
O2993 Tb2951 2.428 . S
O2993 C3015 1.256 . S
O2994 Tb2951 2.308 . S
O2994 C3014 1.266 . S
O2995 Tb2940 2.393 . S
O2995 C3014 1.248 . S
C2996 O2985 1.264 . S
C2996 O2986 1.243 . S
C2997 C3000 1.399 . S
C2997 C3002 1.383 . S
C2997 C3004 1.496 . S
C2998 C2999 1.399 . S
C2998 C3002 1.389 . S
C2999 C2998 1.399 . S
C2999 C3001 1.380 . S
C2999 H3016 0.929 . S
C3000 C2997 1.399 . S
C3000 C3001 1.392 . S
C3000 H3017 0.929 . S
C3001 C2999 1.380 . S
C3001 C3000 1.392 . S
C3001 H3018 0.929 . S
C3002 C2997 1.383 . S
C3002 C2998 1.389 . S
C3002 H3019 0.931 . S
C3003 O2988 1.266 . S
C3003 O2989 1.248 . S
C3004 Tb2940 2.802 . S
C3004 O2984 1.264 . S
C3004 O2987 1.256 . S
C3004 C2997 1.496 . S
C3005 C2972 1.448 . S
C3005 H2982 0.930 . S
C3005 C3006 1.328 . S
C3006 C2977 1.427 . S
C3006 H2983 0.929 . S
C3006 C3005 1.328 . S
C3007 O2991 1.264 . S
C3007 O2992 1.243 . S
C3008 C3011 1.399 . S
C3008 C3012 1.383 . S
C3008 C3015 1.496 . S
C3009 C3010 1.399 . S
C3009 C3012 1.389 . S
C3010 C3009 1.399 . S
C3010 C3013 1.380 . S
C3010 H3020 0.929 . S
C3011 C3008 1.399 . S
C3011 C3013 1.392 . S
C3011 H3021 0.929 . S
C3012 C3008 1.383 . S
C3012 C3009 1.389 . S
C3012 H3022 0.931 . S
C3013 C3010 1.380 . S
C3013 C3011 1.392 . S
C3013 H3023 0.929 . S
C3014 O2994 1.266 . S
C3014 O2995 1.248 . S
C3015 Tb2951 2.802 . S
C3015 O2990 1.264 . S
C3015 O2993 1.256 . S
C3015 C3008 1.496 . S
H3016 C2999 0.929 . S
H3017 C3000 0.929 . S
H3018 C3001 0.929 . S
H3019 C3002 0.931 . S
H3020 C3010 0.929 . S
H3021 C3011 0.929 . S
H3022 C3012 0.931 . S
H3023 C3013 0.929 . S
Tb3024 N3053 2.617 . S
Tb3024 N3059 2.572 . S
Tb3024 O3068 2.465 . S
Tb3024 O3069 2.387 . S
Tb3024 O3071 2.428 . S
Tb3024 O3072 2.308 . S
Tb3024 O3076 2.349 . S
Tb3024 O3079 2.393 . S
Tb3024 C3088 2.802 . S
C3025 N3026 1.379 . S
C3025 C3028 1.416 . S
C3025 C3032 1.424 . S
N3026 C3025 1.379 . S
N3026 C3029 1.334 . S
N3026 Tb3035 2.617 . S
C3027 C3029 1.390 . S
C3027 C3030 1.339 . S
C3027 H3047 0.930 . S
C3028 C3025 1.416 . S
C3028 C3030 1.416 . S
C3028 C3034 1.448 . S
C3029 N3026 1.334 . S
C3029 C3027 1.390 . S
C3029 H3040 0.930 . S
C3030 C3027 1.339 . S
C3030 C3028 1.416 . S
C3030 H3051 0.930 . S
C3031 C3032 1.413 . S
C3031 C3033 1.427 . S
C3031 C3037 1.416 . S
C3032 C3025 1.424 . S
C3032 C3031 1.413 . S
C3032 N3036 1.361 . S
C3033 C3031 1.427 . S
C3033 C3034 1.328 . S
C3033 H3048 0.929 . S
C3034 C3028 1.448 . S
C3034 C3033 1.328 . S
C3034 H3049 0.930 . S
Tb3035 N3026 2.617 . S
Tb3035 N3036 2.572 . S
Tb3035 O3070 2.349 . S
Tb3035 O3073 2.393 . S
Tb3035 O3074 2.465 . S
Tb3035 O3075 2.387 . S
Tb3035 O3077 2.428 . S
Tb3035 O3078 2.308 . S
Tb3035 C3099 2.802 . S
N3036 C3032 1.361 . S
N3036 Tb3035 2.572 . S
N3036 C3038 1.340 . S
C3037 C3031 1.416 . S
C3037 C3039 1.332 . S
C3037 H3045 0.931 . S
C3038 N3036 1.340 . S
C3038 C3039 1.407 . S
C3038 H3044 0.930 . S
C3039 C3037 1.332 . S
C3039 C3038 1.407 . S
C3039 H3041 0.929 . S
H3040 C3029 0.930 . S
H3041 C3039 0.929 . S
H3042 C3057 0.930 . S
H3043 C3064 0.929 . S
H3044 C3038 0.930 . S
H3045 C3037 0.931 . S
H3046 C3060 0.930 . S
H3047 C3027 0.930 . S
H3048 C3033 0.929 . S
H3049 C3034 0.930 . S
H3050 C3055 0.930 . S
H3051 C3030 0.930 . S
H3052 C3063 0.931 . S
N3053 Tb3024 2.617 . S
N3053 C3054 1.379 . S
N3053 C3057 1.334 . S
C3054 N3053 1.379 . S
C3054 C3056 1.416 . S
C3054 C3062 1.424 . S
C3055 H3050 0.930 . S
C3055 C3057 1.390 . S
C3055 C3058 1.339 . S
C3056 C3054 1.416 . S
C3056 C3058 1.416 . S
C3056 C3089 1.448 . S
C3057 H3042 0.930 . S
C3057 N3053 1.334 . S
C3057 C3055 1.390 . S
C3058 C3055 1.339 . S
C3058 C3056 1.416 . S
C3058 H3065 0.930 . S
N3059 Tb3024 2.572 . S
N3059 C3060 1.340 . S
N3059 C3062 1.361 . S
C3060 H3046 0.930 . S
C3060 N3059 1.340 . S
C3060 C3064 1.407 . S
C3061 C3062 1.413 . S
C3061 C3063 1.416 . S
C3061 C3090 1.427 . S
C3062 C3054 1.424 . S
C3062 N3059 1.361 . S
C3062 C3061 1.413 . S
C3063 H3052 0.931 . S
C3063 C3061 1.416 . S
C3063 C3064 1.332 . S
C3064 H3043 0.929 . S
C3064 C3060 1.407 . S
C3064 C3063 1.332 . S
H3065 C3058 0.930 . S
H3066 C3089 0.930 . S
H3067 C3090 0.929 . S
O3068 Tb3024 2.465 . S
O3068 C3088 1.264 . S
O3069 Tb3024 2.387 . S
O3069 C3080 1.264 . S
O3070 Tb3035 2.349 . S
O3070 C3080 1.243 . S
O3071 Tb3024 2.428 . S
O3071 C3088 1.256 . S
O3072 Tb3024 2.308 . S
O3072 C3087 1.266 . S
O3073 Tb3035 2.393 . S
O3073 C3087 1.248 . S
O3074 Tb3035 2.465 . S
O3074 C3099 1.264 . S
O3075 Tb3035 2.387 . S
O3075 C3091 1.264 . S
O3076 Tb3024 2.349 . S
O3076 C3091 1.243 . S
O3077 Tb3035 2.428 . S
O3077 C3099 1.256 . S
O3078 Tb3035 2.308 . S
O3078 C3098 1.266 . S
O3079 Tb3024 2.393 . S
O3079 C3098 1.248 . S
C3080 O3069 1.264 . S
C3080 O3070 1.243 . S
C3081 C3084 1.399 . S
C3081 C3086 1.383 . S
C3081 C3088 1.496 . S
C3082 C3083 1.399 . S
C3082 C3086 1.389 . S
C3083 C3082 1.399 . S
C3083 C3085 1.380 . S
C3083 H3100 0.929 . S
C3084 C3081 1.399 . S
C3084 C3085 1.392 . S
C3084 H3101 0.929 . S
C3085 C3083 1.380 . S
C3085 C3084 1.392 . S
C3085 H3102 0.929 . S
C3086 C3081 1.383 . S
C3086 C3082 1.389 . S
C3086 H3103 0.931 . S
C3087 O3072 1.266 . S
C3087 O3073 1.248 . S
C3088 Tb3024 2.802 . S
C3088 O3068 1.264 . S
C3088 O3071 1.256 . S
C3088 C3081 1.496 . S
C3089 C3056 1.448 . S
C3089 H3066 0.930 . S
C3089 C3090 1.328 . S
C3090 C3061 1.427 . S
C3090 H3067 0.929 . S
C3090 C3089 1.328 . S
C3091 O3075 1.264 . S
C3091 O3076 1.243 . S
C3092 C3095 1.399 . S
C3092 C3096 1.383 . S
C3092 C3099 1.496 . S
C3093 C3094 1.399 . S
C3093 C3096 1.389 . S
C3094 C3093 1.399 . S
C3094 C3097 1.380 . S
C3094 H3104 0.929 . S
C3095 C3092 1.399 . S
C3095 C3097 1.392 . S
C3095 H3105 0.929 . S
C3096 C3092 1.383 . S
C3096 C3093 1.389 . S
C3096 H3106 0.931 . S
C3097 C3094 1.380 . S
C3097 C3095 1.392 . S
C3097 H3107 0.929 . S
C3098 O3078 1.266 . S
C3098 O3079 1.248 . S
C3099 Tb3035 2.802 . S
C3099 O3074 1.264 . S
C3099 O3077 1.256 . S
C3099 C3092 1.496 . S
H3100 C3083 0.929 . S
H3101 C3084 0.929 . S
H3102 C3085 0.929 . S
H3103 C3086 0.931 . S
H3104 C3094 0.929 . S
H3105 C3095 0.929 . S
H3106 C3096 0.931 . S
H3107 C3097 0.929 . S
Tb3108 N3137 2.617 . S
Tb3108 N3143 2.572 . S
Tb3108 O3152 2.465 . S
Tb3108 O3153 2.387 . S
Tb3108 O3155 2.428 . S
Tb3108 O3156 2.308 . S
Tb3108 O3160 2.349 . S
Tb3108 O3163 2.393 . S
Tb3108 C3172 2.802 . S
C3109 N3110 1.379 . S
C3109 C3112 1.416 . S
C3109 C3116 1.424 . S
N3110 C3109 1.379 . S
N3110 C3113 1.334 . S
N3110 Tb3119 2.617 . S
C3111 C3113 1.390 . S
C3111 C3114 1.339 . S
C3111 H3131 0.930 . S
C3112 C3109 1.416 . S
C3112 C3114 1.416 . S
C3112 C3118 1.448 . S
C3113 N3110 1.334 . S
C3113 C3111 1.390 . S
C3113 H3124 0.930 . S
C3114 C3111 1.339 . S
C3114 C3112 1.416 . S
C3114 H3135 0.930 . S
C3115 C3116 1.413 . S
C3115 C3117 1.427 . S
C3115 C3121 1.416 . S
C3116 C3109 1.424 . S
C3116 C3115 1.413 . S
C3116 N3120 1.361 . S
C3117 C3115 1.427 . S
C3117 C3118 1.328 . S
C3117 H3132 0.929 . S
C3118 C3112 1.448 . S
C3118 C3117 1.328 . S
C3118 H3133 0.930 . S
Tb3119 N3110 2.617 . S
Tb3119 N3120 2.572 . S
Tb3119 O3154 2.349 . S
Tb3119 O3157 2.393 . S
Tb3119 O3158 2.465 . S
Tb3119 O3159 2.387 . S
Tb3119 O3161 2.428 . S
Tb3119 O3162 2.308 . S
Tb3119 C3183 2.802 . S
N3120 C3116 1.361 . S
N3120 Tb3119 2.572 . S
N3120 C3122 1.340 . S
C3121 C3115 1.416 . S
C3121 C3123 1.332 . S
C3121 H3129 0.931 . S
C3122 N3120 1.340 . S
C3122 C3123 1.407 . S
C3122 H3128 0.930 . S
C3123 C3121 1.332 . S
C3123 C3122 1.407 . S
C3123 H3125 0.929 . S
H3124 C3113 0.930 . S
H3125 C3123 0.929 . S
H3126 C3141 0.930 . S
H3127 C3148 0.929 . S
H3128 C3122 0.930 . S
H3129 C3121 0.931 . S
H3130 C3144 0.930 . S
H3131 C3111 0.930 . S
H3132 C3117 0.929 . S
H3133 C3118 0.930 . S
H3134 C3139 0.930 . S
H3135 C3114 0.930 . S
H3136 C3147 0.931 . S
N3137 Tb3108 2.617 . S
N3137 C3138 1.379 . S
N3137 C3141 1.334 . S
C3138 N3137 1.379 . S
C3138 C3140 1.416 . S
C3138 C3146 1.424 . S
C3139 H3134 0.930 . S
C3139 C3141 1.390 . S
C3139 C3142 1.339 . S
C3140 C3138 1.416 . S
C3140 C3142 1.416 . S
C3140 C3173 1.448 . S
C3141 H3126 0.930 . S
C3141 N3137 1.334 . S
C3141 C3139 1.390 . S
C3142 C3139 1.339 . S
C3142 C3140 1.416 . S
C3142 H3149 0.930 . S
N3143 Tb3108 2.572 . S
N3143 C3144 1.340 . S
N3143 C3146 1.361 . S
C3144 H3130 0.930 . S
C3144 N3143 1.340 . S
C3144 C3148 1.407 . S
C3145 C3146 1.413 . S
C3145 C3147 1.416 . S
C3145 C3174 1.427 . S
C3146 C3138 1.424 . S
C3146 N3143 1.361 . S
C3146 C3145 1.413 . S
C3147 H3136 0.931 . S
C3147 C3145 1.416 . S
C3147 C3148 1.332 . S
C3148 H3127 0.929 . S
C3148 C3144 1.407 . S
C3148 C3147 1.332 . S
H3149 C3142 0.930 . S
H3150 C3173 0.930 . S
H3151 C3174 0.929 . S
O3152 Tb3108 2.465 . S
O3152 C3172 1.264 . S
O3153 Tb3108 2.387 . S
O3153 C3164 1.264 . S
O3154 Tb3119 2.349 . S
O3154 C3164 1.243 . S
O3155 Tb3108 2.428 . S
O3155 C3172 1.256 . S
O3156 Tb3108 2.308 . S
O3156 C3171 1.266 . S
O3157 Tb3119 2.393 . S
O3157 C3171 1.248 . S
O3158 Tb3119 2.465 . S
O3158 C3183 1.264 . S
O3159 Tb3119 2.387 . S
O3159 C3175 1.264 . S
O3160 Tb3108 2.349 . S
O3160 C3175 1.243 . S
O3161 Tb3119 2.428 . S
O3161 C3183 1.256 . S
O3162 Tb3119 2.308 . S
O3162 C3182 1.266 . S
O3163 Tb3108 2.393 . S
O3163 C3182 1.248 . S
C3164 O3153 1.264 . S
C3164 O3154 1.243 . S
C3165 C3168 1.399 . S
C3165 C3170 1.383 . S
C3165 C3172 1.496 . S
C3166 C3167 1.399 . S
C3166 C3170 1.389 . S
C3167 C3166 1.399 . S
C3167 C3169 1.380 . S
C3167 H3184 0.929 . S
C3168 C3165 1.399 . S
C3168 C3169 1.392 . S
C3168 H3185 0.929 . S
C3169 C3167 1.380 . S
C3169 C3168 1.392 . S
C3169 H3186 0.929 . S
C3170 C3165 1.383 . S
C3170 C3166 1.389 . S
C3170 H3187 0.931 . S
C3171 O3156 1.266 . S
C3171 O3157 1.248 . S
C3172 Tb3108 2.802 . S
C3172 O3152 1.264 . S
C3172 O3155 1.256 . S
C3172 C3165 1.496 . S
C3173 C3140 1.448 . S
C3173 H3150 0.930 . S
C3173 C3174 1.328 . S
C3174 C3145 1.427 . S
C3174 H3151 0.929 . S
C3174 C3173 1.328 . S
C3175 O3159 1.264 . S
C3175 O3160 1.243 . S
C3176 C3179 1.399 . S
C3176 C3180 1.383 . S
C3176 C3183 1.496 . S
C3177 C3178 1.399 . S
C3177 C3180 1.389 . S
C3178 C3177 1.399 . S
C3178 C3181 1.380 . S
C3178 H3188 0.929 . S
C3179 C3176 1.399 . S
C3179 C3181 1.392 . S
C3179 H3189 0.929 . S
C3180 C3176 1.383 . S
C3180 C3177 1.389 . S
C3180 H3190 0.931 . S
C3181 C3178 1.380 . S
C3181 C3179 1.392 . S
C3181 H3191 0.929 . S
C3182 O3162 1.266 . S
C3182 O3163 1.248 . S
C3183 Tb3119 2.802 . S
C3183 O3158 1.264 . S
C3183 O3161 1.256 . S
C3183 C3176 1.496 . S
H3184 C3167 0.929 . S
H3185 C3168 0.929 . S
H3186 C3169 0.929 . S
H3187 C3170 0.931 . S
H3188 C3178 0.929 . S
H3189 C3179 0.929 . S
H3190 C3180 0.931 . S
H3191 C3181 0.929 . S
Tb3192 N3221 2.617 . S
Tb3192 N3227 2.572 . S
Tb3192 O3236 2.465 . S
Tb3192 O3237 2.387 . S
Tb3192 O3239 2.428 . S
Tb3192 O3240 2.308 . S
Tb3192 O3244 2.349 . S
Tb3192 O3247 2.393 . S
Tb3192 C3256 2.802 . S
C3193 N3194 1.379 . S
C3193 C3196 1.416 . S
C3193 C3200 1.424 . S
N3194 C3193 1.379 . S
N3194 C3197 1.334 . S
N3194 Tb3203 2.617 . S
C3195 C3197 1.390 . S
C3195 C3198 1.339 . S
C3195 H3215 0.930 . S
C3196 C3193 1.416 . S
C3196 C3198 1.416 . S
C3196 C3202 1.448 . S
C3197 N3194 1.334 . S
C3197 C3195 1.390 . S
C3197 H3208 0.930 . S
C3198 C3195 1.339 . S
C3198 C3196 1.416 . S
C3198 H3219 0.930 . S
C3199 C3200 1.413 . S
C3199 C3201 1.427 . S
C3199 C3205 1.416 . S
C3200 C3193 1.424 . S
C3200 C3199 1.413 . S
C3200 N3204 1.361 . S
C3201 C3199 1.427 . S
C3201 C3202 1.328 . S
C3201 H3216 0.929 . S
C3202 C3196 1.448 . S
C3202 C3201 1.328 . S
C3202 H3217 0.930 . S
Tb3203 N3194 2.617 . S
Tb3203 N3204 2.572 . S
Tb3203 O3238 2.349 . S
Tb3203 O3241 2.393 . S
Tb3203 O3242 2.465 . S
Tb3203 O3243 2.387 . S
Tb3203 O3245 2.428 . S
Tb3203 O3246 2.308 . S
Tb3203 C3267 2.802 . S
N3204 C3200 1.361 . S
N3204 Tb3203 2.572 . S
N3204 C3206 1.340 . S
C3205 C3199 1.416 . S
C3205 C3207 1.332 . S
C3205 H3213 0.931 . S
C3206 N3204 1.340 . S
C3206 C3207 1.407 . S
C3206 H3212 0.930 . S
C3207 C3205 1.332 . S
C3207 C3206 1.407 . S
C3207 H3209 0.929 . S
H3208 C3197 0.930 . S
H3209 C3207 0.929 . S
H3210 C3225 0.930 . S
H3211 C3232 0.929 . S
H3212 C3206 0.930 . S
H3213 C3205 0.931 . S
H3214 C3228 0.930 . S
H3215 C3195 0.930 . S
H3216 C3201 0.929 . S
H3217 C3202 0.930 . S
H3218 C3223 0.930 . S
H3219 C3198 0.930 . S
H3220 C3231 0.931 . S
N3221 Tb3192 2.617 . S
N3221 C3222 1.379 . S
N3221 C3225 1.334 . S
C3222 N3221 1.379 . S
C3222 C3224 1.416 . S
C3222 C3230 1.424 . S
C3223 H3218 0.930 . S
C3223 C3225 1.390 . S
C3223 C3226 1.339 . S
C3224 C3222 1.416 . S
C3224 C3226 1.416 . S
C3224 C3257 1.448 . S
C3225 H3210 0.930 . S
C3225 N3221 1.334 . S
C3225 C3223 1.390 . S
C3226 C3223 1.339 . S
C3226 C3224 1.416 . S
C3226 H3233 0.930 . S
N3227 Tb3192 2.572 . S
N3227 C3228 1.340 . S
N3227 C3230 1.361 . S
C3228 H3214 0.930 . S
C3228 N3227 1.340 . S
C3228 C3232 1.407 . S
C3229 C3230 1.413 . S
C3229 C3231 1.416 . S
C3229 C3258 1.427 . S
C3230 C3222 1.424 . S
C3230 N3227 1.361 . S
C3230 C3229 1.413 . S
C3231 H3220 0.931 . S
C3231 C3229 1.416 . S
C3231 C3232 1.332 . S
C3232 H3211 0.929 . S
C3232 C3228 1.407 . S
C3232 C3231 1.332 . S
H3233 C3226 0.930 . S
H3234 C3257 0.930 . S
H3235 C3258 0.929 . S
O3236 Tb3192 2.465 . S
O3236 C3256 1.264 . S
O3237 Tb3192 2.387 . S
O3237 C3248 1.264 . S
O3238 Tb3203 2.349 . S
O3238 C3248 1.243 . S
O3239 Tb3192 2.428 . S
O3239 C3256 1.256 . S
O3240 Tb3192 2.308 . S
O3240 C3255 1.266 . S
O3241 Tb3203 2.393 . S
O3241 C3255 1.248 . S
O3242 Tb3203 2.465 . S
O3242 C3267 1.264 . S
O3243 Tb3203 2.387 . S
O3243 C3259 1.264 . S
O3244 Tb3192 2.349 . S
O3244 C3259 1.243 . S
O3245 Tb3203 2.428 . S
O3245 C3267 1.256 . S
O3246 Tb3203 2.308 . S
O3246 C3266 1.266 . S
O3247 Tb3192 2.393 . S
O3247 C3266 1.248 . S
C3248 O3237 1.264 . S
C3248 O3238 1.243 . S
C3249 C3252 1.399 . S
C3249 C3254 1.383 . S
C3249 C3256 1.496 . S
C3250 C3251 1.399 . S
C3250 C3254 1.389 . S
C3251 C3250 1.399 . S
C3251 C3253 1.380 . S
C3251 H3268 0.929 . S
C3252 C3249 1.399 . S
C3252 C3253 1.392 . S
C3252 H3269 0.929 . S
C3253 C3251 1.380 . S
C3253 C3252 1.392 . S
C3253 H3270 0.929 . S
C3254 C3249 1.383 . S
C3254 C3250 1.389 . S
C3254 H3271 0.931 . S
C3255 O3240 1.266 . S
C3255 O3241 1.248 . S
C3256 Tb3192 2.802 . S
C3256 O3236 1.264 . S
C3256 O3239 1.256 . S
C3256 C3249 1.496 . S
C3257 C3224 1.448 . S
C3257 H3234 0.930 . S
C3257 C3258 1.328 . S
C3258 C3229 1.427 . S
C3258 H3235 0.929 . S
C3258 C3257 1.328 . S
C3259 O3243 1.264 . S
C3259 O3244 1.243 . S
C3260 C3263 1.399 . S
C3260 C3264 1.383 . S
C3260 C3267 1.496 . S
C3261 C3262 1.399 . S
C3261 C3264 1.389 . S
C3262 C3261 1.399 . S
C3262 C3265 1.380 . S
C3262 H3272 0.929 . S
C3263 C3260 1.399 . S
C3263 C3265 1.392 . S
C3263 H3273 0.929 . S
C3264 C3260 1.383 . S
C3264 C3261 1.389 . S
C3264 H3274 0.931 . S
C3265 C3262 1.380 . S
C3265 C3263 1.392 . S
C3265 H3275 0.929 . S
C3266 O3246 1.266 . S
C3266 O3247 1.248 . S
C3267 Tb3203 2.802 . S
C3267 O3242 1.264 . S
C3267 O3245 1.256 . S
C3267 C3260 1.496 . S
H3268 C3251 0.929 . S
H3269 C3252 0.929 . S
H3270 C3253 0.929 . S
H3271 C3254 0.931 . S
H3272 C3262 0.929 . S
H3273 C3263 0.929 . S
H3274 C3264 0.931 . S
H3275 C3265 0.929 . S
Tb3276 N3305 2.617 . S
Tb3276 N3311 2.572 . S
Tb3276 O3320 2.465 . S
Tb3276 O3321 2.387 . S
Tb3276 O3323 2.428 . S
Tb3276 O3324 2.308 . S
Tb3276 O3328 2.349 . S
Tb3276 O3331 2.393 . S
Tb3276 C3340 2.802 . S
C3277 N3278 1.379 . S
C3277 C3280 1.416 . S
C3277 C3284 1.424 . S
N3278 C3277 1.379 . S
N3278 C3281 1.334 . S
N3278 Tb3287 2.617 . S
C3279 C3281 1.390 . S
C3279 C3282 1.339 . S
C3279 H3299 0.930 . S
C3280 C3277 1.416 . S
C3280 C3282 1.416 . S
C3280 C3286 1.448 . S
C3281 N3278 1.334 . S
C3281 C3279 1.390 . S
C3281 H3292 0.930 . S
C3282 C3279 1.339 . S
C3282 C3280 1.416 . S
C3282 H3303 0.930 . S
C3283 C3284 1.413 . S
C3283 C3285 1.427 . S
C3283 C3289 1.416 . S
C3284 C3277 1.424 . S
C3284 C3283 1.413 . S
C3284 N3288 1.361 . S
C3285 C3283 1.427 . S
C3285 C3286 1.328 . S
C3285 H3300 0.929 . S
C3286 C3280 1.448 . S
C3286 C3285 1.328 . S
C3286 H3301 0.930 . S
Tb3287 N3278 2.617 . S
Tb3287 N3288 2.572 . S
Tb3287 O3322 2.349 . S
Tb3287 O3325 2.393 . S
Tb3287 O3326 2.465 . S
Tb3287 O3327 2.387 . S
Tb3287 O3329 2.428 . S
Tb3287 O3330 2.308 . S
Tb3287 C3351 2.802 . S
N3288 C3284 1.361 . S
N3288 Tb3287 2.572 . S
N3288 C3290 1.340 . S
C3289 C3283 1.416 . S
C3289 C3291 1.332 . S
C3289 H3297 0.931 . S
C3290 N3288 1.340 . S
C3290 C3291 1.407 . S
C3290 H3296 0.930 . S
C3291 C3289 1.332 . S
C3291 C3290 1.407 . S
C3291 H3293 0.929 . S
H3292 C3281 0.930 . S
H3293 C3291 0.929 . S
H3294 C3309 0.930 . S
H3295 C3316 0.929 . S
H3296 C3290 0.930 . S
H3297 C3289 0.931 . S
H3298 C3312 0.930 . S
H3299 C3279 0.930 . S
H3300 C3285 0.929 . S
H3301 C3286 0.930 . S
H3302 C3307 0.930 . S
H3303 C3282 0.930 . S
H3304 C3315 0.931 . S
N3305 Tb3276 2.617 . S
N3305 C3306 1.379 . S
N3305 C3309 1.334 . S
C3306 N3305 1.379 . S
C3306 C3308 1.416 . S
C3306 C3314 1.424 . S
C3307 H3302 0.930 . S
C3307 C3309 1.390 . S
C3307 C3310 1.339 . S
C3308 C3306 1.416 . S
C3308 C3310 1.416 . S
C3308 C3341 1.448 . S
C3309 H3294 0.930 . S
C3309 N3305 1.334 . S
C3309 C3307 1.390 . S
C3310 C3307 1.339 . S
C3310 C3308 1.416 . S
C3310 H3317 0.930 . S
N3311 Tb3276 2.572 . S
N3311 C3312 1.340 . S
N3311 C3314 1.361 . S
C3312 H3298 0.930 . S
C3312 N3311 1.340 . S
C3312 C3316 1.407 . S
C3313 C3314 1.413 . S
C3313 C3315 1.416 . S
C3313 C3342 1.427 . S
C3314 C3306 1.424 . S
C3314 N3311 1.361 . S
C3314 C3313 1.413 . S
C3315 H3304 0.931 . S
C3315 C3313 1.416 . S
C3315 C3316 1.332 . S
C3316 H3295 0.929 . S
C3316 C3312 1.407 . S
C3316 C3315 1.332 . S
H3317 C3310 0.930 . S
H3318 C3341 0.930 . S
H3319 C3342 0.929 . S
O3320 Tb3276 2.465 . S
O3320 C3340 1.264 . S
O3321 Tb3276 2.387 . S
O3321 C3332 1.264 . S
O3322 Tb3287 2.349 . S
O3322 C3332 1.243 . S
O3323 Tb3276 2.428 . S
O3323 C3340 1.256 . S
O3324 Tb3276 2.308 . S
O3324 C3339 1.266 . S
O3325 Tb3287 2.393 . S
O3325 C3339 1.248 . S
O3326 Tb3287 2.465 . S
O3326 C3351 1.264 . S
O3327 Tb3287 2.387 . S
O3327 C3343 1.264 . S
O3328 Tb3276 2.349 . S
O3328 C3343 1.243 . S
O3329 Tb3287 2.428 . S
O3329 C3351 1.256 . S
O3330 Tb3287 2.308 . S
O3330 C3350 1.266 . S
O3331 Tb3276 2.393 . S
O3331 C3350 1.248 . S
C3332 O3321 1.264 . S
C3332 O3322 1.243 . S
C3333 C3336 1.399 . S
C3333 C3338 1.383 . S
C3333 C3340 1.496 . S
C3334 C3335 1.399 . S
C3334 C3338 1.389 . S
C3335 C3334 1.399 . S
C3335 C3337 1.380 . S
C3335 H3352 0.929 . S
C3336 C3333 1.399 . S
C3336 C3337 1.392 . S
C3336 H3353 0.929 . S
C3337 C3335 1.380 . S
C3337 C3336 1.392 . S
C3337 H3354 0.929 . S
C3338 C3333 1.383 . S
C3338 C3334 1.389 . S
C3338 H3355 0.931 . S
C3339 O3324 1.266 . S
C3339 O3325 1.248 . S
C3340 Tb3276 2.802 . S
C3340 O3320 1.264 . S
C3340 O3323 1.256 . S
C3340 C3333 1.496 . S
C3341 C3308 1.448 . S
C3341 H3318 0.930 . S
C3341 C3342 1.328 . S
C3342 C3313 1.427 . S
C3342 H3319 0.929 . S
C3342 C3341 1.328 . S
C3343 O3327 1.264 . S
C3343 O3328 1.243 . S
C3344 C3347 1.399 . S
C3344 C3348 1.383 . S
C3344 C3351 1.496 . S
C3345 C3346 1.399 . S
C3345 C3348 1.389 . S
C3346 C3345 1.399 . S
C3346 C3349 1.380 . S
C3346 H3356 0.929 . S
C3347 C3344 1.399 . S
C3347 C3349 1.392 . S
C3347 H3357 0.929 . S
C3348 C3344 1.383 . S
C3348 C3345 1.389 . S
C3348 H3358 0.931 . S
C3349 C3346 1.380 . S
C3349 C3347 1.392 . S
C3349 H3359 0.929 . S
C3350 O3330 1.266 . S
C3350 O3331 1.248 . S
C3351 Tb3287 2.802 . S
C3351 O3326 1.264 . S
C3351 O3329 1.256 . S
C3351 C3344 1.496 . S
H3352 C3335 0.929 . S
H3353 C3336 0.929 . S
H3354 C3337 0.929 . S
H3355 C3338 0.931 . S
H3356 C3346 0.929 . S
H3357 C3347 0.929 . S
H3358 C3348 0.931 . S
H3359 C3349 0.929 . S
Tb3360 N3389 2.617 . S
Tb3360 N3395 2.572 . S
Tb3360 O3404 2.465 . S
Tb3360 O3405 2.387 . S
Tb3360 O3407 2.428 . S
Tb3360 O3408 2.308 . S
Tb3360 O3412 2.349 . S
Tb3360 O3415 2.393 . S
Tb3360 C3424 2.802 . S
C3361 N3362 1.379 . S
C3361 C3364 1.416 . S
C3361 C3368 1.424 . S
N3362 C3361 1.379 . S
N3362 C3365 1.334 . S
N3362 Tb3371 2.617 . S
C3363 C3365 1.390 . S
C3363 C3366 1.339 . S
C3363 H3383 0.930 . S
C3364 C3361 1.416 . S
C3364 C3366 1.416 . S
C3364 C3370 1.448 . S
C3365 N3362 1.334 . S
C3365 C3363 1.390 . S
C3365 H3376 0.930 . S
C3366 C3363 1.339 . S
C3366 C3364 1.416 . S
C3366 H3387 0.930 . S
C3367 C3368 1.413 . S
C3367 C3369 1.427 . S
C3367 C3373 1.416 . S
C3368 C3361 1.424 . S
C3368 C3367 1.413 . S
C3368 N3372 1.361 . S
C3369 C3367 1.427 . S
C3369 C3370 1.328 . S
C3369 H3384 0.929 . S
C3370 C3364 1.448 . S
C3370 C3369 1.328 . S
C3370 H3385 0.930 . S
Tb3371 N3362 2.617 . S
Tb3371 N3372 2.572 . S
Tb3371 O3406 2.349 . S
Tb3371 O3409 2.393 . S
Tb3371 O3410 2.465 . S
Tb3371 O3411 2.387 . S
Tb3371 O3413 2.428 . S
Tb3371 O3414 2.308 . S
Tb3371 C3435 2.802 . S
N3372 C3368 1.361 . S
N3372 Tb3371 2.572 . S
N3372 C3374 1.340 . S
C3373 C3367 1.416 . S
C3373 C3375 1.332 . S
C3373 H3381 0.931 . S
C3374 N3372 1.340 . S
C3374 C3375 1.407 . S
C3374 H3380 0.930 . S
C3375 C3373 1.332 . S
C3375 C3374 1.407 . S
C3375 H3377 0.929 . S
H3376 C3365 0.930 . S
H3377 C3375 0.929 . S
H3378 C3393 0.930 . S
H3379 C3400 0.929 . S
H3380 C3374 0.930 . S
H3381 C3373 0.931 . S
H3382 C3396 0.930 . S
H3383 C3363 0.930 . S
H3384 C3369 0.929 . S
H3385 C3370 0.930 . S
H3386 C3391 0.930 . S
H3387 C3366 0.930 . S
H3388 C3399 0.931 . S
N3389 Tb3360 2.617 . S
N3389 C3390 1.379 . S
N3389 C3393 1.334 . S
C3390 N3389 1.379 . S
C3390 C3392 1.416 . S
C3390 C3398 1.424 . S
C3391 H3386 0.930 . S
C3391 C3393 1.390 . S
C3391 C3394 1.339 . S
C3392 C3390 1.416 . S
C3392 C3394 1.416 . S
C3392 C3425 1.448 . S
C3393 H3378 0.930 . S
C3393 N3389 1.334 . S
C3393 C3391 1.390 . S
C3394 C3391 1.339 . S
C3394 C3392 1.416 . S
C3394 H3401 0.930 . S
N3395 Tb3360 2.572 . S
N3395 C3396 1.340 . S
N3395 C3398 1.361 . S
C3396 H3382 0.930 . S
C3396 N3395 1.340 . S
C3396 C3400 1.407 . S
C3397 C3398 1.413 . S
C3397 C3399 1.416 . S
C3397 C3426 1.427 . S
C3398 C3390 1.424 . S
C3398 N3395 1.361 . S
C3398 C3397 1.413 . S
C3399 H3388 0.931 . S
C3399 C3397 1.416 . S
C3399 C3400 1.332 . S
C3400 H3379 0.929 . S
C3400 C3396 1.407 . S
C3400 C3399 1.332 . S
H3401 C3394 0.930 . S
H3402 C3425 0.930 . S
H3403 C3426 0.929 . S
O3404 Tb3360 2.465 . S
O3404 C3424 1.264 . S
O3405 Tb3360 2.387 . S
O3405 C3416 1.264 . S
O3406 Tb3371 2.349 . S
O3406 C3416 1.243 . S
O3407 Tb3360 2.428 . S
O3407 C3424 1.256 . S
O3408 Tb3360 2.308 . S
O3408 C3423 1.266 . S
O3409 Tb3371 2.393 . S
O3409 C3423 1.248 . S
O3410 Tb3371 2.465 . S
O3410 C3435 1.264 . S
O3411 Tb3371 2.387 . S
O3411 C3427 1.264 . S
O3412 Tb3360 2.349 . S
O3412 C3427 1.243 . S
O3413 Tb3371 2.428 . S
O3413 C3435 1.256 . S
O3414 Tb3371 2.308 . S
O3414 C3434 1.266 . S
O3415 Tb3360 2.393 . S
O3415 C3434 1.248 . S
C3416 O3405 1.264 . S
C3416 O3406 1.243 . S
C3417 C3420 1.399 . S
C3417 C3422 1.383 . S
C3417 C3424 1.496 . S
C3418 C3419 1.399 . S
C3418 C3422 1.389 . S
C3419 C3418 1.399 . S
C3419 C3421 1.380 . S
C3419 H3436 0.929 . S
C3420 C3417 1.399 . S
C3420 C3421 1.392 . S
C3420 H3437 0.929 . S
C3421 C3419 1.380 . S
C3421 C3420 1.392 . S
C3421 H3438 0.929 . S
C3422 C3417 1.383 . S
C3422 C3418 1.389 . S
C3422 H3439 0.931 . S
C3423 O3408 1.266 . S
C3423 O3409 1.248 . S
C3424 Tb3360 2.802 . S
C3424 O3404 1.264 . S
C3424 O3407 1.256 . S
C3424 C3417 1.496 . S
C3425 C3392 1.448 . S
C3425 H3402 0.930 . S
C3425 C3426 1.328 . S
C3426 C3397 1.427 . S
C3426 H3403 0.929 . S
C3426 C3425 1.328 . S
C3427 O3411 1.264 . S
C3427 O3412 1.243 . S
C3428 C3431 1.399 . S
C3428 C3432 1.383 . S
C3428 C3435 1.496 . S
C3429 C3430 1.399 . S
C3429 C3432 1.389 . S
C3430 C3429 1.399 . S
C3430 C3433 1.380 . S
C3430 H3440 0.929 . S
C3431 C3428 1.399 . S
C3431 C3433 1.392 . S
C3431 H3441 0.929 . S
C3432 C3428 1.383 . S
C3432 C3429 1.389 . S
C3432 H3442 0.931 . S
C3433 C3430 1.380 . S
C3433 C3431 1.392 . S
C3433 H3443 0.929 . S
C3434 O3414 1.266 . S
C3434 O3415 1.248 . S
C3435 Tb3371 2.802 . S
C3435 O3410 1.264 . S
C3435 O3413 1.256 . S
C3435 C3428 1.496 . S
H3436 C3419 0.929 . S
H3437 C3420 0.929 . S
H3438 C3421 0.929 . S
H3439 C3422 0.931 . S
H3440 C3430 0.929 . S
H3441 C3431 0.929 . S
H3442 C3432 0.931 . S
H3443 C3433 0.929 . S
Tb3444 N3473 2.617 . S
Tb3444 N3479 2.572 . S
Tb3444 O3488 2.465 . S
Tb3444 O3489 2.387 . S
Tb3444 O3491 2.428 . S
Tb3444 O3492 2.308 . S
Tb3444 O3496 2.349 . S
Tb3444 O3499 2.393 . S
Tb3444 C3508 2.802 . S
C3445 N3446 1.379 . S
C3445 C3448 1.416 . S
C3445 C3452 1.424 . S
N3446 C3445 1.379 . S
N3446 C3449 1.334 . S
N3446 Tb3455 2.617 . S
C3447 C3449 1.390 . S
C3447 C3450 1.339 . S
C3447 H3467 0.930 . S
C3448 C3445 1.416 . S
C3448 C3450 1.416 . S
C3448 C3454 1.448 . S
C3449 N3446 1.334 . S
C3449 C3447 1.390 . S
C3449 H3460 0.930 . S
C3450 C3447 1.339 . S
C3450 C3448 1.416 . S
C3450 H3471 0.930 . S
C3451 C3452 1.413 . S
C3451 C3453 1.427 . S
C3451 C3457 1.416 . S
C3452 C3445 1.424 . S
C3452 C3451 1.413 . S
C3452 N3456 1.361 . S
C3453 C3451 1.427 . S
C3453 C3454 1.328 . S
C3453 H3468 0.929 . S
C3454 C3448 1.448 . S
C3454 C3453 1.328 . S
C3454 H3469 0.930 . S
Tb3455 N3446 2.617 . S
Tb3455 N3456 2.572 . S
Tb3455 O3490 2.349 . S
Tb3455 O3493 2.393 . S
Tb3455 O3494 2.465 . S
Tb3455 O3495 2.387 . S
Tb3455 O3497 2.428 . S
Tb3455 O3498 2.308 . S
Tb3455 C3519 2.802 . S
N3456 C3452 1.361 . S
N3456 Tb3455 2.572 . S
N3456 C3458 1.340 . S
C3457 C3451 1.416 . S
C3457 C3459 1.332 . S
C3457 H3465 0.931 . S
C3458 N3456 1.340 . S
C3458 C3459 1.407 . S
C3458 H3464 0.930 . S
C3459 C3457 1.332 . S
C3459 C3458 1.407 . S
C3459 H3461 0.929 . S
H3460 C3449 0.930 . S
H3461 C3459 0.929 . S
H3462 C3477 0.930 . S
H3463 C3484 0.929 . S
H3464 C3458 0.930 . S
H3465 C3457 0.931 . S
H3466 C3480 0.930 . S
H3467 C3447 0.930 . S
H3468 C3453 0.929 . S
H3469 C3454 0.930 . S
H3470 C3475 0.930 . S
H3471 C3450 0.930 . S
H3472 C3483 0.931 . S
N3473 Tb3444 2.617 . S
N3473 C3474 1.379 . S
N3473 C3477 1.334 . S
C3474 N3473 1.379 . S
C3474 C3476 1.416 . S
C3474 C3482 1.424 . S
C3475 H3470 0.930 . S
C3475 C3477 1.390 . S
C3475 C3478 1.339 . S
C3476 C3474 1.416 . S
C3476 C3478 1.416 . S
C3476 C3509 1.448 . S
C3477 H3462 0.930 . S
C3477 N3473 1.334 . S
C3477 C3475 1.390 . S
C3478 C3475 1.339 . S
C3478 C3476 1.416 . S
C3478 H3485 0.930 . S
N3479 Tb3444 2.572 . S
N3479 C3480 1.340 . S
N3479 C3482 1.361 . S
C3480 H3466 0.930 . S
C3480 N3479 1.340 . S
C3480 C3484 1.407 . S
C3481 C3482 1.413 . S
C3481 C3483 1.416 . S
C3481 C3510 1.427 . S
C3482 C3474 1.424 . S
C3482 N3479 1.361 . S
C3482 C3481 1.413 . S
C3483 H3472 0.931 . S
C3483 C3481 1.416 . S
C3483 C3484 1.332 . S
C3484 H3463 0.929 . S
C3484 C3480 1.407 . S
C3484 C3483 1.332 . S
H3485 C3478 0.930 . S
H3486 C3509 0.930 . S
H3487 C3510 0.929 . S
O3488 Tb3444 2.465 . S
O3488 C3508 1.264 . S
O3489 Tb3444 2.387 . S
O3489 C3500 1.264 . S
O3490 Tb3455 2.349 . S
O3490 C3500 1.243 . S
O3491 Tb3444 2.428 . S
O3491 C3508 1.256 . S
O3492 Tb3444 2.308 . S
O3492 C3507 1.266 . S
O3493 Tb3455 2.393 . S
O3493 C3507 1.248 . S
O3494 Tb3455 2.465 . S
O3494 C3519 1.264 . S
O3495 Tb3455 2.387 . S
O3495 C3511 1.264 . S
O3496 Tb3444 2.349 . S
O3496 C3511 1.243 . S
O3497 Tb3455 2.428 . S
O3497 C3519 1.256 . S
O3498 Tb3455 2.308 . S
O3498 C3518 1.266 . S
O3499 Tb3444 2.393 . S
O3499 C3518 1.248 . S
C3500 O3489 1.264 . S
C3500 O3490 1.243 . S
C3501 C3504 1.399 . S
C3501 C3506 1.383 . S
C3501 C3508 1.496 . S
C3502 C3503 1.399 . S
C3502 C3506 1.389 . S
C3503 C3502 1.399 . S
C3503 C3505 1.380 . S
C3503 H3520 0.929 . S
C3504 C3501 1.399 . S
C3504 C3505 1.392 . S
C3504 H3521 0.929 . S
C3505 C3503 1.380 . S
C3505 C3504 1.392 . S
C3505 H3522 0.929 . S
C3506 C3501 1.383 . S
C3506 C3502 1.389 . S
C3506 H3523 0.931 . S
C3507 O3492 1.266 . S
C3507 O3493 1.248 . S
C3508 Tb3444 2.802 . S
C3508 O3488 1.264 . S
C3508 O3491 1.256 . S
C3508 C3501 1.496 . S
C3509 C3476 1.448 . S
C3509 H3486 0.930 . S
C3509 C3510 1.328 . S
C3510 C3481 1.427 . S
C3510 H3487 0.929 . S
C3510 C3509 1.328 . S
C3511 O3495 1.264 . S
C3511 O3496 1.243 . S
C3512 C3515 1.399 . S
C3512 C3516 1.383 . S
C3512 C3519 1.496 . S
C3513 C3514 1.399 . S
C3513 C3516 1.389 . S
C3514 C3513 1.399 . S
C3514 C3517 1.380 . S
C3514 H3524 0.929 . S
C3515 C3512 1.399 . S
C3515 C3517 1.392 . S
C3515 H3525 0.929 . S
C3516 C3512 1.383 . S
C3516 C3513 1.389 . S
C3516 H3526 0.931 . S
C3517 C3514 1.380 . S
C3517 C3515 1.392 . S
C3517 H3527 0.929 . S
C3518 O3498 1.266 . S
C3518 O3499 1.248 . S
C3519 Tb3455 2.802 . S
C3519 O3494 1.264 . S
C3519 O3497 1.256 . S
C3519 C3512 1.496 . S
H3520 C3503 0.929 . S
H3521 C3504 0.929 . S
H3522 C3505 0.929 . S
H3523 C3506 0.931 . S
H3524 C3514 0.929 . S
H3525 C3515 0.929 . S
H3526 C3516 0.931 . S
H3527 C3517 0.929 . S
Tb3528 N3557 2.617 . S
Tb3528 N3563 2.572 . S
Tb3528 O3572 2.465 . S
Tb3528 O3573 2.387 . S
Tb3528 O3575 2.428 . S
Tb3528 O3576 2.308 . S
Tb3528 O3580 2.349 . S
Tb3528 O3583 2.393 . S
Tb3528 C3592 2.802 . S
C3529 N3530 1.379 . S
C3529 C3532 1.416 . S
C3529 C3536 1.424 . S
N3530 C3529 1.379 . S
N3530 C3533 1.334 . S
N3530 Tb3539 2.617 . S
C3531 C3533 1.390 . S
C3531 C3534 1.339 . S
C3531 H3551 0.930 . S
C3532 C3529 1.416 . S
C3532 C3534 1.416 . S
C3532 C3538 1.448 . S
C3533 N3530 1.334 . S
C3533 C3531 1.390 . S
C3533 H3544 0.930 . S
C3534 C3531 1.339 . S
C3534 C3532 1.416 . S
C3534 H3555 0.930 . S
C3535 C3536 1.413 . S
C3535 C3537 1.427 . S
C3535 C3541 1.416 . S
C3536 C3529 1.424 . S
C3536 C3535 1.413 . S
C3536 N3540 1.361 . S
C3537 C3535 1.427 . S
C3537 C3538 1.328 . S
C3537 H3552 0.929 . S
C3538 C3532 1.448 . S
C3538 C3537 1.328 . S
C3538 H3553 0.930 . S
Tb3539 N3530 2.617 . S
Tb3539 N3540 2.572 . S
Tb3539 O3574 2.349 . S
Tb3539 O3577 2.393 . S
Tb3539 O3578 2.465 . S
Tb3539 O3579 2.387 . S
Tb3539 O3581 2.428 . S
Tb3539 O3582 2.308 . S
Tb3539 C3603 2.802 . S
N3540 C3536 1.361 . S
N3540 Tb3539 2.572 . S
N3540 C3542 1.340 . S
C3541 C3535 1.416 . S
C3541 C3543 1.332 . S
C3541 H3549 0.931 . S
C3542 N3540 1.340 . S
C3542 C3543 1.407 . S
C3542 H3548 0.930 . S
C3543 C3541 1.332 . S
C3543 C3542 1.407 . S
C3543 H3545 0.929 . S
H3544 C3533 0.930 . S
H3545 C3543 0.929 . S
H3546 C3561 0.930 . S
H3547 C3568 0.929 . S
H3548 C3542 0.930 . S
H3549 C3541 0.931 . S
H3550 C3564 0.930 . S
H3551 C3531 0.930 . S
H3552 C3537 0.929 . S
H3553 C3538 0.930 . S
H3554 C3559 0.930 . S
H3555 C3534 0.930 . S
H3556 C3567 0.931 . S
N3557 Tb3528 2.617 . S
N3557 C3558 1.379 . S
N3557 C3561 1.334 . S
C3558 N3557 1.379 . S
C3558 C3560 1.416 . S
C3558 C3566 1.424 . S
C3559 H3554 0.930 . S
C3559 C3561 1.390 . S
C3559 C3562 1.339 . S
C3560 C3558 1.416 . S
C3560 C3562 1.416 . S
C3560 C3593 1.448 . S
C3561 H3546 0.930 . S
C3561 N3557 1.334 . S
C3561 C3559 1.390 . S
C3562 C3559 1.339 . S
C3562 C3560 1.416 . S
C3562 H3569 0.930 . S
N3563 Tb3528 2.572 . S
N3563 C3564 1.340 . S
N3563 C3566 1.361 . S
C3564 H3550 0.930 . S
C3564 N3563 1.340 . S
C3564 C3568 1.407 . S
C3565 C3566 1.413 . S
C3565 C3567 1.416 . S
C3565 C3594 1.427 . S
C3566 C3558 1.424 . S
C3566 N3563 1.361 . S
C3566 C3565 1.413 . S
C3567 H3556 0.931 . S
C3567 C3565 1.416 . S
C3567 C3568 1.332 . S
C3568 H3547 0.929 . S
C3568 C3564 1.407 . S
C3568 C3567 1.332 . S
H3569 C3562 0.930 . S
H3570 C3593 0.930 . S
H3571 C3594 0.929 . S
O3572 Tb3528 2.465 . S
O3572 C3592 1.264 . S
O3573 Tb3528 2.387 . S
O3573 C3584 1.264 . S
O3574 Tb3539 2.349 . S
O3574 C3584 1.243 . S
O3575 Tb3528 2.428 . S
O3575 C3592 1.256 . S
O3576 Tb3528 2.308 . S
O3576 C3591 1.266 . S
O3577 Tb3539 2.393 . S
O3577 C3591 1.248 . S
O3578 Tb3539 2.465 . S
O3578 C3603 1.264 . S
O3579 Tb3539 2.387 . S
O3579 C3595 1.264 . S
O3580 Tb3528 2.349 . S
O3580 C3595 1.243 . S
O3581 Tb3539 2.428 . S
O3581 C3603 1.256 . S
O3582 Tb3539 2.308 . S
O3582 C3602 1.266 . S
O3583 Tb3528 2.393 . S
O3583 C3602 1.248 . S
C3584 O3573 1.264 . S
C3584 O3574 1.243 . S
C3585 C3588 1.399 . S
C3585 C3590 1.383 . S
C3585 C3592 1.496 . S
C3586 C3587 1.399 . S
C3586 C3590 1.389 . S
C3587 C3586 1.399 . S
C3587 C3589 1.380 . S
C3587 H3604 0.929 . S
C3588 C3585 1.399 . S
C3588 C3589 1.392 . S
C3588 H3605 0.929 . S
C3589 C3587 1.380 . S
C3589 C3588 1.392 . S
C3589 H3606 0.929 . S
C3590 C3585 1.383 . S
C3590 C3586 1.389 . S
C3590 H3607 0.931 . S
C3591 O3576 1.266 . S
C3591 O3577 1.248 . S
C3592 Tb3528 2.802 . S
C3592 O3572 1.264 . S
C3592 O3575 1.256 . S
C3592 C3585 1.496 . S
C3593 C3560 1.448 . S
C3593 H3570 0.930 . S
C3593 C3594 1.328 . S
C3594 C3565 1.427 . S
C3594 H3571 0.929 . S
C3594 C3593 1.328 . S
C3595 O3579 1.264 . S
C3595 O3580 1.243 . S
C3596 C3599 1.399 . S
C3596 C3600 1.383 . S
C3596 C3603 1.496 . S
C3597 C3598 1.399 . S
C3597 C3600 1.389 . S
C3598 C3597 1.399 . S
C3598 C3601 1.380 . S
C3598 H3608 0.929 . S
C3599 C3596 1.399 . S
C3599 C3601 1.392 . S
C3599 H3609 0.929 . S
C3600 C3596 1.383 . S
C3600 C3597 1.389 . S
C3600 H3610 0.931 . S
C3601 C3598 1.380 . S
C3601 C3599 1.392 . S
C3601 H3611 0.929 . S
C3602 O3582 1.266 . S
C3602 O3583 1.248 . S
C3603 Tb3539 2.802 . S
C3603 O3578 1.264 . S
C3603 O3581 1.256 . S
C3603 C3596 1.496 . S
H3604 C3587 0.929 . S
H3605 C3588 0.929 . S
H3606 C3589 0.929 . S
H3607 C3590 0.931 . S
H3608 C3598 0.929 . S
H3609 C3599 0.929 . S
H3610 C3600 0.931 . S
H3611 C3601 0.929 . S
Tb3612 N3641 2.617 . S
Tb3612 N3647 2.572 . S
Tb3612 O3656 2.465 . S
Tb3612 O3657 2.387 . S
Tb3612 O3659 2.428 . S
Tb3612 O3660 2.308 . S
Tb3612 O3664 2.349 . S
Tb3612 O3667 2.393 . S
Tb3612 C3676 2.802 . S
C3613 N3614 1.379 . S
C3613 C3616 1.416 . S
C3613 C3620 1.424 . S
N3614 C3613 1.379 . S
N3614 C3617 1.334 . S
N3614 Tb3623 2.617 . S
C3615 C3617 1.390 . S
C3615 C3618 1.339 . S
C3615 H3635 0.930 . S
C3616 C3613 1.416 . S
C3616 C3618 1.416 . S
C3616 C3622 1.448 . S
C3617 N3614 1.334 . S
C3617 C3615 1.390 . S
C3617 H3628 0.930 . S
C3618 C3615 1.339 . S
C3618 C3616 1.416 . S
C3618 H3639 0.930 . S
C3619 C3620 1.413 . S
C3619 C3621 1.427 . S
C3619 C3625 1.416 . S
C3620 C3613 1.424 . S
C3620 C3619 1.413 . S
C3620 N3624 1.361 . S
C3621 C3619 1.427 . S
C3621 C3622 1.328 . S
C3621 H3636 0.929 . S
C3622 C3616 1.448 . S
C3622 C3621 1.328 . S
C3622 H3637 0.930 . S
Tb3623 N3614 2.617 . S
Tb3623 N3624 2.572 . S
Tb3623 O3658 2.349 . S
Tb3623 O3661 2.393 . S
Tb3623 O3662 2.465 . S
Tb3623 O3663 2.387 . S
Tb3623 O3665 2.428 . S
Tb3623 O3666 2.308 . S
Tb3623 C3687 2.802 . S
N3624 C3620 1.361 . S
N3624 Tb3623 2.572 . S
N3624 C3626 1.340 . S
C3625 C3619 1.416 . S
C3625 C3627 1.332 . S
C3625 H3633 0.931 . S
C3626 N3624 1.340 . S
C3626 C3627 1.407 . S
C3626 H3632 0.930 . S
C3627 C3625 1.332 . S
C3627 C3626 1.407 . S
C3627 H3629 0.929 . S
H3628 C3617 0.930 . S
H3629 C3627 0.929 . S
H3630 C3645 0.930 . S
H3631 C3652 0.929 . S
H3632 C3626 0.930 . S
H3633 C3625 0.931 . S
H3634 C3648 0.930 . S
H3635 C3615 0.930 . S
H3636 C3621 0.929 . S
H3637 C3622 0.930 . S
H3638 C3643 0.930 . S
H3639 C3618 0.930 . S
H3640 C3651 0.931 . S
N3641 Tb3612 2.617 . S
N3641 C3642 1.379 . S
N3641 C3645 1.334 . S
C3642 N3641 1.379 . S
C3642 C3644 1.416 . S
C3642 C3650 1.424 . S
C3643 H3638 0.930 . S
C3643 C3645 1.390 . S
C3643 C3646 1.339 . S
C3644 C3642 1.416 . S
C3644 C3646 1.416 . S
C3644 C3677 1.448 . S
C3645 H3630 0.930 . S
C3645 N3641 1.334 . S
C3645 C3643 1.390 . S
C3646 C3643 1.339 . S
C3646 C3644 1.416 . S
C3646 H3653 0.930 . S
N3647 Tb3612 2.572 . S
N3647 C3648 1.340 . S
N3647 C3650 1.361 . S
C3648 H3634 0.930 . S
C3648 N3647 1.340 . S
C3648 C3652 1.407 . S
C3649 C3650 1.413 . S
C3649 C3651 1.416 . S
C3649 C3678 1.427 . S
C3650 C3642 1.424 . S
C3650 N3647 1.361 . S
C3650 C3649 1.413 . S
C3651 H3640 0.931 . S
C3651 C3649 1.416 . S
C3651 C3652 1.332 . S
C3652 H3631 0.929 . S
C3652 C3648 1.407 . S
C3652 C3651 1.332 . S
H3653 C3646 0.930 . S
H3654 C3677 0.930 . S
H3655 C3678 0.929 . S
O3656 Tb3612 2.465 . S
O3656 C3676 1.264 . S
O3657 Tb3612 2.387 . S
O3657 C3668 1.264 . S
O3658 Tb3623 2.349 . S
O3658 C3668 1.243 . S
O3659 Tb3612 2.428 . S
O3659 C3676 1.256 . S
O3660 Tb3612 2.308 . S
O3660 C3675 1.266 . S
O3661 Tb3623 2.393 . S
O3661 C3675 1.248 . S
O3662 Tb3623 2.465 . S
O3662 C3687 1.264 . S
O3663 Tb3623 2.387 . S
O3663 C3679 1.264 . S
O3664 Tb3612 2.349 . S
O3664 C3679 1.243 . S
O3665 Tb3623 2.428 . S
O3665 C3687 1.256 . S
O3666 Tb3623 2.308 . S
O3666 C3686 1.266 . S
O3667 Tb3612 2.393 . S
O3667 C3686 1.248 . S
C3668 O3657 1.264 . S
C3668 O3658 1.243 . S
C3669 C3672 1.399 . S
C3669 C3674 1.383 . S
C3669 C3676 1.496 . S
C3670 C3671 1.399 . S
C3670 C3674 1.389 . S
C3671 C3670 1.399 . S
C3671 C3673 1.380 . S
C3671 H3688 0.929 . S
C3672 C3669 1.399 . S
C3672 C3673 1.392 . S
C3672 H3689 0.929 . S
C3673 C3671 1.380 . S
C3673 C3672 1.392 . S
C3673 H3690 0.929 . S
C3674 C3669 1.383 . S
C3674 C3670 1.389 . S
C3674 H3691 0.931 . S
C3675 O3660 1.266 . S
C3675 O3661 1.248 . S
C3676 Tb3612 2.802 . S
C3676 O3656 1.264 . S
C3676 O3659 1.256 . S
C3676 C3669 1.496 . S
C3677 C3644 1.448 . S
C3677 H3654 0.930 . S
C3677 C3678 1.328 . S
C3678 C3649 1.427 . S
C3678 H3655 0.929 . S
C3678 C3677 1.328 . S
C3679 O3663 1.264 . S
C3679 O3664 1.243 . S
C3680 C3683 1.399 . S
C3680 C3684 1.383 . S
C3680 C3687 1.496 . S
C3681 C3682 1.399 . S
C3681 C3684 1.389 . S
C3682 C3681 1.399 . S
C3682 C3685 1.380 . S
C3682 H3692 0.929 . S
C3683 C3680 1.399 . S
C3683 C3685 1.392 . S
C3683 H3693 0.929 . S
C3684 C3680 1.383 . S
C3684 C3681 1.389 . S
C3684 H3694 0.931 . S
C3685 C3682 1.380 . S
C3685 C3683 1.392 . S
C3685 H3695 0.929 . S
C3686 O3666 1.266 . S
C3686 O3667 1.248 . S
C3687 Tb3623 2.802 . S
C3687 O3662 1.264 . S
C3687 O3665 1.256 . S
C3687 C3680 1.496 . S
H3688 C3671 0.929 . S
H3689 C3672 0.929 . S
H3690 C3673 0.929 . S
H3691 C3674 0.931 . S
H3692 C3682 0.929 . S
H3693 C3683 0.929 . S
H3694 C3684 0.931 . S
H3695 C3685 0.929 . S
Tb3696 N3725 2.617 . S
Tb3696 N3731 2.572 . S
Tb3696 O3740 2.465 . S
Tb3696 O3741 2.387 . S
Tb3696 O3743 2.428 . S
Tb3696 O3744 2.308 . S
Tb3696 O3748 2.349 . S
Tb3696 O3751 2.393 . S
Tb3696 C3760 2.802 . S
C3697 N3698 1.379 . S
C3697 C3700 1.416 . S
C3697 C3704 1.424 . S
N3698 C3697 1.379 . S
N3698 C3701 1.334 . S
N3698 Tb3707 2.617 . S
C3699 C3701 1.390 . S
C3699 C3702 1.339 . S
C3699 H3719 0.930 . S
C3700 C3697 1.416 . S
C3700 C3702 1.416 . S
C3700 C3706 1.448 . S
C3701 N3698 1.334 . S
C3701 C3699 1.390 . S
C3701 H3712 0.930 . S
C3702 C3699 1.339 . S
C3702 C3700 1.416 . S
C3702 H3723 0.930 . S
C3703 C3704 1.413 . S
C3703 C3705 1.427 . S
C3703 C3709 1.416 . S
C3704 C3697 1.424 . S
C3704 C3703 1.413 . S
C3704 N3708 1.361 . S
C3705 C3703 1.427 . S
C3705 C3706 1.328 . S
C3705 H3720 0.929 . S
C3706 C3700 1.448 . S
C3706 C3705 1.328 . S
C3706 H3721 0.930 . S
Tb3707 N3698 2.617 . S
Tb3707 N3708 2.572 . S
Tb3707 O3742 2.349 . S
Tb3707 O3745 2.393 . S
Tb3707 O3746 2.465 . S
Tb3707 O3747 2.387 . S
Tb3707 O3749 2.428 . S
Tb3707 O3750 2.308 . S
Tb3707 C3771 2.802 . S
N3708 C3704 1.361 . S
N3708 Tb3707 2.572 . S
N3708 C3710 1.340 . S
C3709 C3703 1.416 . S
C3709 C3711 1.332 . S
C3709 H3717 0.931 . S
C3710 N3708 1.340 . S
C3710 C3711 1.407 . S
C3710 H3716 0.930 . S
C3711 C3709 1.332 . S
C3711 C3710 1.407 . S
C3711 H3713 0.929 . S
H3712 C3701 0.930 . S
H3713 C3711 0.929 . S
H3714 C3729 0.930 . S
H3715 C3736 0.929 . S
H3716 C3710 0.930 . S
H3717 C3709 0.931 . S
H3718 C3732 0.930 . S
H3719 C3699 0.930 . S
H3720 C3705 0.929 . S
H3721 C3706 0.930 . S
H3722 C3727 0.930 . S
H3723 C3702 0.930 . S
H3724 C3735 0.931 . S
N3725 Tb3696 2.617 . S
N3725 C3726 1.379 . S
N3725 C3729 1.334 . S
C3726 N3725 1.379 . S
C3726 C3728 1.416 . S
C3726 C3734 1.424 . S
C3727 H3722 0.930 . S
C3727 C3729 1.390 . S
C3727 C3730 1.339 . S
C3728 C3726 1.416 . S
C3728 C3730 1.416 . S
C3728 C3761 1.448 . S
C3729 H3714 0.930 . S
C3729 N3725 1.334 . S
C3729 C3727 1.390 . S
C3730 C3727 1.339 . S
C3730 C3728 1.416 . S
C3730 H3737 0.930 . S
N3731 Tb3696 2.572 . S
N3731 C3732 1.340 . S
N3731 C3734 1.361 . S
C3732 H3718 0.930 . S
C3732 N3731 1.340 . S
C3732 C3736 1.407 . S
C3733 C3734 1.413 . S
C3733 C3735 1.416 . S
C3733 C3762 1.427 . S
C3734 C3726 1.424 . S
C3734 N3731 1.361 . S
C3734 C3733 1.413 . S
C3735 H3724 0.931 . S
C3735 C3733 1.416 . S
C3735 C3736 1.332 . S
C3736 H3715 0.929 . S
C3736 C3732 1.407 . S
C3736 C3735 1.332 . S
H3737 C3730 0.930 . S
H3738 C3761 0.930 . S
H3739 C3762 0.929 . S
O3740 Tb3696 2.465 . S
O3740 C3760 1.264 . S
O3741 Tb3696 2.387 . S
O3741 C3752 1.264 . S
O3742 Tb3707 2.349 . S
O3742 C3752 1.243 . S
O3743 Tb3696 2.428 . S
O3743 C3760 1.256 . S
O3744 Tb3696 2.308 . S
O3744 C3759 1.266 . S
O3745 Tb3707 2.393 . S
O3745 C3759 1.248 . S
O3746 Tb3707 2.465 . S
O3746 C3771 1.264 . S
O3747 Tb3707 2.387 . S
O3747 C3763 1.264 . S
O3748 Tb3696 2.349 . S
O3748 C3763 1.243 . S
O3749 Tb3707 2.428 . S
O3749 C3771 1.256 . S
O3750 Tb3707 2.308 . S
O3750 C3770 1.266 . S
O3751 Tb3696 2.393 . S
O3751 C3770 1.248 . S
C3752 O3741 1.264 . S
C3752 O3742 1.243 . S
C3753 C3756 1.399 . S
C3753 C3758 1.383 . S
C3753 C3760 1.496 . S
C3754 C3755 1.399 . S
C3754 C3758 1.389 . S
C3755 C3754 1.399 . S
C3755 C3757 1.380 . S
C3755 H3772 0.929 . S
C3756 C3753 1.399 . S
C3756 C3757 1.392 . S
C3756 H3773 0.929 . S
C3757 C3755 1.380 . S
C3757 C3756 1.392 . S
C3757 H3774 0.929 . S
C3758 C3753 1.383 . S
C3758 C3754 1.389 . S
C3758 H3775 0.931 . S
C3759 O3744 1.266 . S
C3759 O3745 1.248 . S
C3760 Tb3696 2.802 . S
C3760 O3740 1.264 . S
C3760 O3743 1.256 . S
C3760 C3753 1.496 . S
C3761 C3728 1.448 . S
C3761 H3738 0.930 . S
C3761 C3762 1.328 . S
C3762 C3733 1.427 . S
C3762 H3739 0.929 . S
C3762 C3761 1.328 . S
C3763 O3747 1.264 . S
C3763 O3748 1.243 . S
C3764 C3767 1.399 . S
C3764 C3768 1.383 . S
C3764 C3771 1.496 . S
C3765 C3766 1.399 . S
C3765 C3768 1.389 . S
C3766 C3765 1.399 . S
C3766 C3769 1.380 . S
C3766 H3776 0.929 . S
C3767 C3764 1.399 . S
C3767 C3769 1.392 . S
C3767 H3777 0.929 . S
C3768 C3764 1.383 . S
C3768 C3765 1.389 . S
C3768 H3778 0.931 . S
C3769 C3766 1.380 . S
C3769 C3767 1.392 . S
C3769 H3779 0.929 . S
C3770 O3750 1.266 . S
C3770 O3751 1.248 . S
C3771 Tb3707 2.802 . S
C3771 O3746 1.264 . S
C3771 O3749 1.256 . S
C3771 C3764 1.496 . S
H3772 C3755 0.929 . S
H3773 C3756 0.929 . S
H3774 C3757 0.929 . S
H3775 C3758 0.931 . S
H3776 C3766 0.929 . S
H3777 C3767 0.929 . S
H3778 C3768 0.931 . S
H3779 C3769 0.929 . S
Tb3780 N3809 2.617 . S
Tb3780 N3815 2.572 . S
Tb3780 O3824 2.465 . S
Tb3780 O3825 2.387 . S
Tb3780 O3827 2.428 . S
Tb3780 O3828 2.308 . S
Tb3780 O3832 2.349 . S
Tb3780 O3835 2.393 . S
Tb3780 C3844 2.802 . S
C3781 N3782 1.379 . S
C3781 C3784 1.416 . S
C3781 C3788 1.424 . S
N3782 C3781 1.379 . S
N3782 C3785 1.334 . S
N3782 Tb3791 2.617 . S
C3783 C3785 1.390 . S
C3783 C3786 1.339 . S
C3783 H3803 0.930 . S
C3784 C3781 1.416 . S
C3784 C3786 1.416 . S
C3784 C3790 1.448 . S
C3785 N3782 1.334 . S
C3785 C3783 1.390 . S
C3785 H3796 0.930 . S
C3786 C3783 1.339 . S
C3786 C3784 1.416 . S
C3786 H3807 0.930 . S
C3787 C3788 1.413 . S
C3787 C3789 1.427 . S
C3787 C3793 1.416 . S
C3788 C3781 1.424 . S
C3788 C3787 1.413 . S
C3788 N3792 1.361 . S
C3789 C3787 1.427 . S
C3789 C3790 1.328 . S
C3789 H3804 0.929 . S
C3790 C3784 1.448 . S
C3790 C3789 1.328 . S
C3790 H3805 0.930 . S
Tb3791 N3782 2.617 . S
Tb3791 N3792 2.572 . S
Tb3791 O3826 2.349 . S
Tb3791 O3829 2.393 . S
Tb3791 O3830 2.465 . S
Tb3791 O3831 2.387 . S
Tb3791 O3833 2.428 . S
Tb3791 O3834 2.308 . S
Tb3791 C3855 2.802 . S
N3792 C3788 1.361 . S
N3792 Tb3791 2.572 . S
N3792 C3794 1.340 . S
C3793 C3787 1.416 . S
C3793 C3795 1.332 . S
C3793 H3801 0.931 . S
C3794 N3792 1.340 . S
C3794 C3795 1.407 . S
C3794 H3800 0.930 . S
C3795 C3793 1.332 . S
C3795 C3794 1.407 . S
C3795 H3797 0.929 . S
H3796 C3785 0.930 . S
H3797 C3795 0.929 . S
H3798 C3813 0.930 . S
H3799 C3820 0.929 . S
H3800 C3794 0.930 . S
H3801 C3793 0.931 . S
H3802 C3816 0.930 . S
H3803 C3783 0.930 . S
H3804 C3789 0.929 . S
H3805 C3790 0.930 . S
H3806 C3811 0.930 . S
H3807 C3786 0.930 . S
H3808 C3819 0.931 . S
N3809 Tb3780 2.617 . S
N3809 C3810 1.379 . S
N3809 C3813 1.334 . S
C3810 N3809 1.379 . S
C3810 C3812 1.416 . S
C3810 C3818 1.424 . S
C3811 H3806 0.930 . S
C3811 C3813 1.390 . S
C3811 C3814 1.339 . S
C3812 C3810 1.416 . S
C3812 C3814 1.416 . S
C3812 C3845 1.448 . S
C3813 H3798 0.930 . S
C3813 N3809 1.334 . S
C3813 C3811 1.390 . S
C3814 C3811 1.339 . S
C3814 C3812 1.416 . S
C3814 H3821 0.930 . S
N3815 Tb3780 2.572 . S
N3815 C3816 1.340 . S
N3815 C3818 1.361 . S
C3816 H3802 0.930 . S
C3816 N3815 1.340 . S
C3816 C3820 1.407 . S
C3817 C3818 1.413 . S
C3817 C3819 1.416 . S
C3817 C3846 1.427 . S
C3818 C3810 1.424 . S
C3818 N3815 1.361 . S
C3818 C3817 1.413 . S
C3819 H3808 0.931 . S
C3819 C3817 1.416 . S
C3819 C3820 1.332 . S
C3820 H3799 0.929 . S
C3820 C3816 1.407 . S
C3820 C3819 1.332 . S
H3821 C3814 0.930 . S
H3822 C3845 0.930 . S
H3823 C3846 0.929 . S
O3824 Tb3780 2.465 . S
O3824 C3844 1.264 . S
O3825 Tb3780 2.387 . S
O3825 C3836 1.264 . S
O3826 Tb3791 2.349 . S
O3826 C3836 1.243 . S
O3827 Tb3780 2.428 . S
O3827 C3844 1.256 . S
O3828 Tb3780 2.308 . S
O3828 C3843 1.266 . S
O3829 Tb3791 2.393 . S
O3829 C3843 1.248 . S
O3830 Tb3791 2.465 . S
O3830 C3855 1.264 . S
O3831 Tb3791 2.387 . S
O3831 C3847 1.264 . S
O3832 Tb3780 2.349 . S
O3832 C3847 1.243 . S
O3833 Tb3791 2.428 . S
O3833 C3855 1.256 . S
O3834 Tb3791 2.308 . S
O3834 C3854 1.266 . S
O3835 Tb3780 2.393 . S
O3835 C3854 1.248 . S
C3836 O3825 1.264 . S
C3836 O3826 1.243 . S
C3837 C3840 1.399 . S
C3837 C3842 1.383 . S
C3837 C3844 1.496 . S
C3838 C3839 1.399 . S
C3838 C3842 1.389 . S
C3839 C3838 1.399 . S
C3839 C3841 1.380 . S
C3839 H3856 0.929 . S
C3840 C3837 1.399 . S
C3840 C3841 1.392 . S
C3840 H3857 0.929 . S
C3841 C3839 1.380 . S
C3841 C3840 1.392 . S
C3841 H3858 0.929 . S
C3842 C3837 1.383 . S
C3842 C3838 1.389 . S
C3842 H3859 0.931 . S
C3843 O3828 1.266 . S
C3843 O3829 1.248 . S
C3844 Tb3780 2.802 . S
C3844 O3824 1.264 . S
C3844 O3827 1.256 . S
C3844 C3837 1.496 . S
C3845 C3812 1.448 . S
C3845 H3822 0.930 . S
C3845 C3846 1.328 . S
C3846 C3817 1.427 . S
C3846 H3823 0.929 . S
C3846 C3845 1.328 . S
C3847 O3831 1.264 . S
C3847 O3832 1.243 . S
C3848 C3851 1.399 . S
C3848 C3852 1.383 . S
C3848 C3855 1.496 . S
C3849 C3850 1.399 . S
C3849 C3852 1.389 . S
C3850 C3849 1.399 . S
C3850 C3853 1.380 . S
C3850 H3860 0.929 . S
C3851 C3848 1.399 . S
C3851 C3853 1.392 . S
C3851 H3861 0.929 . S
C3852 C3848 1.383 . S
C3852 C3849 1.389 . S
C3852 H3862 0.931 . S
C3853 C3850 1.380 . S
C3853 C3851 1.392 . S
C3853 H3863 0.929 . S
C3854 O3834 1.266 . S
C3854 O3835 1.248 . S
C3855 Tb3791 2.802 . S
C3855 O3830 1.264 . S
C3855 O3833 1.256 . S
C3855 C3848 1.496 . S
H3856 C3839 0.929 . S
H3857 C3840 0.929 . S
H3858 C3841 0.929 . S
H3859 C3842 0.931 . S
H3860 C3850 0.929 . S
H3861 C3851 0.929 . S
H3862 C3852 0.931 . S
H3863 C3853 0.929 . S
Tb3864 N3893 2.617 . S
Tb3864 N3899 2.572 . S
Tb3864 O3908 2.465 . S
Tb3864 O3909 2.387 . S
Tb3864 O3911 2.428 . S
Tb3864 O3912 2.308 . S
Tb3864 O3916 2.349 . S
Tb3864 O3919 2.393 . S
Tb3864 C3928 2.802 . S
C3865 N3866 1.379 . S
C3865 C3868 1.416 . S
C3865 C3872 1.424 . S
N3866 C3865 1.379 . S
N3866 C3869 1.334 . S
N3866 Tb3875 2.617 . S
C3867 C3869 1.390 . S
C3867 C3870 1.339 . S
C3867 H3887 0.930 . S
C3868 C3865 1.416 . S
C3868 C3870 1.416 . S
C3868 C3874 1.448 . S
C3869 N3866 1.334 . S
C3869 C3867 1.390 . S
C3869 H3880 0.930 . S
C3870 C3867 1.339 . S
C3870 C3868 1.416 . S
C3870 H3891 0.930 . S
C3871 C3872 1.413 . S
C3871 C3873 1.427 . S
C3871 C3877 1.416 . S
C3872 C3865 1.424 . S
C3872 C3871 1.413 . S
C3872 N3876 1.361 . S
C3873 C3871 1.427 . S
C3873 C3874 1.328 . S
C3873 H3888 0.929 . S
C3874 C3868 1.448 . S
C3874 C3873 1.328 . S
C3874 H3889 0.930 . S
Tb3875 N3866 2.617 . S
Tb3875 N3876 2.572 . S
Tb3875 O3910 2.349 . S
Tb3875 O3913 2.393 . S
Tb3875 O3914 2.465 . S
Tb3875 O3915 2.387 . S
Tb3875 O3917 2.428 . S
Tb3875 O3918 2.308 . S
Tb3875 C3939 2.802 . S
N3876 C3872 1.361 . S
N3876 Tb3875 2.572 . S
N3876 C3878 1.340 . S
C3877 C3871 1.416 . S
C3877 C3879 1.332 . S
C3877 H3885 0.931 . S
C3878 N3876 1.340 . S
C3878 C3879 1.407 . S
C3878 H3884 0.930 . S
C3879 C3877 1.332 . S
C3879 C3878 1.407 . S
C3879 H3881 0.929 . S
H3880 C3869 0.930 . S
H3881 C3879 0.929 . S
H3882 C3897 0.930 . S
H3883 C3904 0.929 . S
H3884 C3878 0.930 . S
H3885 C3877 0.931 . S
H3886 C3900 0.930 . S
H3887 C3867 0.930 . S
H3888 C3873 0.929 . S
H3889 C3874 0.930 . S
H3890 C3895 0.930 . S
H3891 C3870 0.930 . S
H3892 C3903 0.931 . S
N3893 Tb3864 2.617 . S
N3893 C3894 1.379 . S
N3893 C3897 1.334 . S
C3894 N3893 1.379 . S
C3894 C3896 1.416 . S
C3894 C3902 1.424 . S
C3895 H3890 0.930 . S
C3895 C3897 1.390 . S
C3895 C3898 1.339 . S
C3896 C3894 1.416 . S
C3896 C3898 1.416 . S
C3896 C3929 1.448 . S
C3897 H3882 0.930 . S
C3897 N3893 1.334 . S
C3897 C3895 1.390 . S
C3898 C3895 1.339 . S
C3898 C3896 1.416 . S
C3898 H3905 0.930 . S
N3899 Tb3864 2.572 . S
N3899 C3900 1.340 . S
N3899 C3902 1.361 . S
C3900 H3886 0.930 . S
C3900 N3899 1.340 . S
C3900 C3904 1.407 . S
C3901 C3902 1.413 . S
C3901 C3903 1.416 . S
C3901 C3930 1.427 . S
C3902 C3894 1.424 . S
C3902 N3899 1.361 . S
C3902 C3901 1.413 . S
C3903 H3892 0.931 . S
C3903 C3901 1.416 . S
C3903 C3904 1.332 . S
C3904 H3883 0.929 . S
C3904 C3900 1.407 . S
C3904 C3903 1.332 . S
H3905 C3898 0.930 . S
H3906 C3929 0.930 . S
H3907 C3930 0.929 . S
O3908 Tb3864 2.465 . S
O3908 C3928 1.264 . S
O3909 Tb3864 2.387 . S
O3909 C3920 1.264 . S
O3910 Tb3875 2.349 . S
O3910 C3920 1.243 . S
O3911 Tb3864 2.428 . S
O3911 C3928 1.256 . S
O3912 Tb3864 2.308 . S
O3912 C3927 1.266 . S
O3913 Tb3875 2.393 . S
O3913 C3927 1.248 . S
O3914 Tb3875 2.465 . S
O3914 C3939 1.264 . S
O3915 Tb3875 2.387 . S
O3915 C3931 1.264 . S
O3916 Tb3864 2.349 . S
O3916 C3931 1.243 . S
O3917 Tb3875 2.428 . S
O3917 C3939 1.256 . S
O3918 Tb3875 2.308 . S
O3918 C3938 1.266 . S
O3919 Tb3864 2.393 . S
O3919 C3938 1.248 . S
C3920 O3909 1.264 . S
C3920 O3910 1.243 . S
C3921 C3924 1.399 . S
C3921 C3926 1.383 . S
C3921 C3928 1.496 . S
C3922 C3923 1.399 . S
C3922 C3926 1.389 . S
C3923 C3922 1.399 . S
C3923 C3925 1.380 . S
C3923 H3940 0.929 . S
C3924 C3921 1.399 . S
C3924 C3925 1.392 . S
C3924 H3941 0.929 . S
C3925 C3923 1.380 . S
C3925 C3924 1.392 . S
C3925 H3942 0.929 . S
C3926 C3921 1.383 . S
C3926 C3922 1.389 . S
C3926 H3943 0.931 . S
C3927 O3912 1.266 . S
C3927 O3913 1.248 . S
C3928 Tb3864 2.802 . S
C3928 O3908 1.264 . S
C3928 O3911 1.256 . S
C3928 C3921 1.496 . S
C3929 C3896 1.448 . S
C3929 H3906 0.930 . S
C3929 C3930 1.328 . S
C3930 C3901 1.427 . S
C3930 H3907 0.929 . S
C3930 C3929 1.328 . S
C3931 O3915 1.264 . S
C3931 O3916 1.243 . S
C3932 C3935 1.399 . S
C3932 C3936 1.383 . S
C3932 C3939 1.496 . S
C3933 C3934 1.399 . S
C3933 C3936 1.389 . S
C3934 C3933 1.399 . S
C3934 C3937 1.380 . S
C3934 H3944 0.929 . S
C3935 C3932 1.399 . S
C3935 C3937 1.392 . S
C3935 H3945 0.929 . S
C3936 C3932 1.383 . S
C3936 C3933 1.389 . S
C3936 H3946 0.931 . S
C3937 C3934 1.380 . S
C3937 C3935 1.392 . S
C3937 H3947 0.929 . S
C3938 O3918 1.266 . S
C3938 O3919 1.248 . S
C3939 Tb3875 2.802 . S
C3939 O3914 1.264 . S
C3939 O3917 1.256 . S
C3939 C3932 1.496 . S
H3940 C3923 0.929 . S
H3941 C3924 0.929 . S
H3942 C3925 0.929 . S
H3943 C3926 0.931 . S
H3944 C3934 0.929 . S
H3945 C3935 0.929 . S
H3946 C3936 0.931 . S
H3947 C3937 0.929 . S
Tb3948 N3977 2.617 . S
Tb3948 N3983 2.572 . S
Tb3948 O3992 2.465 . S
Tb3948 O3993 2.387 . S
Tb3948 O3995 2.428 . S
Tb3948 O3996 2.308 . S
Tb3948 O4000 2.349 . S
Tb3948 O4003 2.393 . S
Tb3948 C4012 2.802 . S
C3949 N3950 1.379 . S
C3949 C3952 1.416 . S
C3949 C3956 1.424 . S
N3950 C3949 1.379 . S
N3950 C3953 1.334 . S
N3950 Tb3959 2.617 . S
C3951 C3953 1.390 . S
C3951 C3954 1.339 . S
C3951 H3971 0.930 . S
C3952 C3949 1.416 . S
C3952 C3954 1.416 . S
C3952 C3958 1.448 . S
C3953 N3950 1.334 . S
C3953 C3951 1.390 . S
C3953 H3964 0.930 . S
C3954 C3951 1.339 . S
C3954 C3952 1.416 . S
C3954 H3975 0.930 . S
C3955 C3956 1.413 . S
C3955 C3957 1.427 . S
C3955 C3961 1.416 . S
C3956 C3949 1.424 . S
C3956 C3955 1.413 . S
C3956 N3960 1.361 . S
C3957 C3955 1.427 . S
C3957 C3958 1.328 . S
C3957 H3972 0.929 . S
C3958 C3952 1.448 . S
C3958 C3957 1.328 . S
C3958 H3973 0.930 . S
Tb3959 N3950 2.617 . S
Tb3959 N3960 2.572 . S
Tb3959 O3994 2.349 . S
Tb3959 O3997 2.393 . S
Tb3959 O3998 2.465 . S
Tb3959 O3999 2.387 . S
Tb3959 O4001 2.428 . S
Tb3959 O4002 2.308 . S
Tb3959 C4023 2.802 . S
N3960 C3956 1.361 . S
N3960 Tb3959 2.572 . S
N3960 C3962 1.340 . S
C3961 C3955 1.416 . S
C3961 C3963 1.332 . S
C3961 H3969 0.931 . S
C3962 N3960 1.340 . S
C3962 C3963 1.407 . S
C3962 H3968 0.930 . S
C3963 C3961 1.332 . S
C3963 C3962 1.407 . S
C3963 H3965 0.929 . S
H3964 C3953 0.930 . S
H3965 C3963 0.929 . S
H3966 C3981 0.930 . S
H3967 C3988 0.929 . S
H3968 C3962 0.930 . S
H3969 C3961 0.931 . S
H3970 C3984 0.930 . S
H3971 C3951 0.930 . S
H3972 C3957 0.929 . S
H3973 C3958 0.930 . S
H3974 C3979 0.930 . S
H3975 C3954 0.930 . S
H3976 C3987 0.931 . S
N3977 Tb3948 2.617 . S
N3977 C3978 1.379 . S
N3977 C3981 1.334 . S
C3978 N3977 1.379 . S
C3978 C3980 1.416 . S
C3978 C3986 1.424 . S
C3979 H3974 0.930 . S
C3979 C3981 1.390 . S
C3979 C3982 1.339 . S
C3980 C3978 1.416 . S
C3980 C3982 1.416 . S
C3980 C4013 1.448 . S
C3981 H3966 0.930 . S
C3981 N3977 1.334 . S
C3981 C3979 1.390 . S
C3982 C3979 1.339 . S
C3982 C3980 1.416 . S
C3982 H3989 0.930 . S
N3983 Tb3948 2.572 . S
N3983 C3984 1.340 . S
N3983 C3986 1.361 . S
C3984 H3970 0.930 . S
C3984 N3983 1.340 . S
C3984 C3988 1.407 . S
C3985 C3986 1.413 . S
C3985 C3987 1.416 . S
C3985 C4014 1.427 . S
C3986 C3978 1.424 . S
C3986 N3983 1.361 . S
C3986 C3985 1.413 . S
C3987 H3976 0.931 . S
C3987 C3985 1.416 . S
C3987 C3988 1.332 . S
C3988 H3967 0.929 . S
C3988 C3984 1.407 . S
C3988 C3987 1.332 . S
H3989 C3982 0.930 . S
H3990 C4013 0.930 . S
H3991 C4014 0.929 . S
O3992 Tb3948 2.465 . S
O3992 C4012 1.264 . S
O3993 Tb3948 2.387 . S
O3993 C4004 1.264 . S
O3994 Tb3959 2.349 . S
O3994 C4004 1.243 . S
O3995 Tb3948 2.428 . S
O3995 C4012 1.256 . S
O3996 Tb3948 2.308 . S
O3996 C4011 1.266 . S
O3997 Tb3959 2.393 . S
O3997 C4011 1.248 . S
O3998 Tb3959 2.465 . S
O3998 C4023 1.264 . S
O3999 Tb3959 2.387 . S
O3999 C4015 1.264 . S
O4000 Tb3948 2.349 . S
O4000 C4015 1.243 . S
O4001 Tb3959 2.428 . S
O4001 C4023 1.256 . S
O4002 Tb3959 2.308 . S
O4002 C4022 1.266 . S
O4003 Tb3948 2.393 . S
O4003 C4022 1.248 . S
C4004 O3993 1.264 . S
C4004 O3994 1.243 . S
C4005 C4008 1.399 . S
C4005 C4010 1.383 . S
C4005 C4012 1.496 . S
C4006 C4007 1.399 . S
C4006 C4010 1.389 . S
C4007 C4006 1.399 . S
C4007 C4009 1.380 . S
C4007 H4024 0.929 . S
C4008 C4005 1.399 . S
C4008 C4009 1.392 . S
C4008 H4025 0.929 . S
C4009 C4007 1.380 . S
C4009 C4008 1.392 . S
C4009 H4026 0.929 . S
C4010 C4005 1.383 . S
C4010 C4006 1.389 . S
C4010 H4027 0.931 . S
C4011 O3996 1.266 . S
C4011 O3997 1.248 . S
C4012 Tb3948 2.802 . S
C4012 O3992 1.264 . S
C4012 O3995 1.256 . S
C4012 C4005 1.496 . S
C4013 C3980 1.448 . S
C4013 H3990 0.930 . S
C4013 C4014 1.328 . S
C4014 C3985 1.427 . S
C4014 H3991 0.929 . S
C4014 C4013 1.328 . S
C4015 O3999 1.264 . S
C4015 O4000 1.243 . S
C4016 C4019 1.399 . S
C4016 C4020 1.383 . S
C4016 C4023 1.496 . S
C4017 C4018 1.399 . S
C4017 C4020 1.389 . S
C4018 C4017 1.399 . S
C4018 C4021 1.380 . S
C4018 H4028 0.929 . S
C4019 C4016 1.399 . S
C4019 C4021 1.392 . S
C4019 H4029 0.929 . S
C4020 C4016 1.383 . S
C4020 C4017 1.389 . S
C4020 H4030 0.931 . S
C4021 C4018 1.380 . S
C4021 C4019 1.392 . S
C4021 H4031 0.929 . S
C4022 O4002 1.266 . S
C4022 O4003 1.248 . S
C4023 Tb3959 2.802 . S
C4023 O3998 1.264 . S
C4023 O4001 1.256 . S
C4023 C4016 1.496 . S
H4024 C4007 0.929 . S
H4025 C4008 0.929 . S
H4026 C4009 0.929 . S
H4027 C4010 0.931 . S
H4028 C4018 0.929 . S
H4029 C4019 0.929 . S
H4030 C4020 0.931 . S
H4031 C4021 0.929 . S
H4032 C4040 0.929 . S
H4033 C4042 0.930 . S
H4034 C4044 0.930 . S
H4035 C4047 0.929 . S
H4036 C4050 0.930 . S
H4037 C4052 0.960 . S
H4038 C4052 0.960 . S
H4039 C4052 0.960 . S
C4040 H4032 0.929 . S
C4040 C4041 1.377 . S
C4040 C4042 1.384 . S
C4041 C4040 1.377 . S
C4041 C4047 1.390 . S
C4042 H4033 0.930 . S
C4042 C4040 1.384 . S
C4042 C4043 1.372 . S
C4043 C4042 1.372 . S
C4043 C4044 1.400 . S
C4043 C4048 1.490 . S
C4044 H4034 0.930 . S
C4044 C4043 1.400 . S
C4044 C4047 1.386 . S
H4045 C4061 0.930 . S
H4046 C4062 0.931 . S
C4047 H4035 0.929 . S
C4047 C4041 1.390 . S
C4047 C4044 1.386 . S
C4048 C4043 1.490 . S
C4048 C4050 1.395 . S
C4048 C4051 1.403 . S
H4049 C4055 0.930 . S
C4050 H4036 0.930 . S
C4050 C4048 1.395 . S
C4050 C4053 1.403 . S
C4051 C4048 1.403 . S
C4051 C4052 1.524 . S
C4051 C4055 1.400 . S
C4052 H4037 0.960 . S
C4052 H4038 0.960 . S
C4052 H4039 0.960 . S
C4052 C4051 1.524 . S
C4053 C4050 1.403 . S
C4053 C4054 1.392 . S
C4053 C4057 1.495 . S
C4054 C4053 1.392 . S
C4054 C4055 1.385 . S
C4054 C4056 1.478 . S
C4055 H4049 0.930 . S
C4055 C4051 1.400 . S
C4055 C4054 1.385 . S
C4056 C4054 1.478 . S
C4056 C4058 1.381 . S
C4056 C4062 1.383 . S
C4057 C4053 1.495 . S
C4057 H4063 0.959 . S
C4057 H4064 0.961 . S
C4057 H4065 0.960 . S
C4058 C4056 1.381 . S
C4058 C4059 1.394 . S
C4058 H4066 0.930 . S
C4059 C4058 1.394 . S
C4059 C4060 1.383 . S
C4059 H4067 0.929 . S
C4060 C4059 1.383 . S
C4060 C4061 1.377 . S
C4061 H4045 0.930 . S
C4061 C4060 1.377 . S
C4061 C4062 1.379 . S
C4062 H4046 0.931 . S
C4062 C4056 1.383 . S
C4062 C4061 1.379 . S
H4063 C4057 0.959 . S
H4064 C4057 0.961 . S
H4065 C4057 0.960 . S
H4066 C4058 0.930 . S
H4067 C4059 0.929 . S
H4068 C4076 0.929 . S
H4069 C4078 0.930 . S
H4070 C4080 0.930 . S
H4071 C4083 0.929 . S
H4072 C4086 0.930 . S
H4073 C4088 0.960 . S
H4074 C4088 0.960 . S
H4075 C4088 0.960 . S
C4076 H4068 0.929 . S
C4076 C4077 1.377 . S
C4076 C4078 1.384 . S
C4077 C4076 1.377 . S
C4077 C4083 1.390 . S
C4078 H4069 0.930 . S
C4078 C4076 1.384 . S
C4078 C4079 1.372 . S
C4079 C4078 1.372 . S
C4079 C4080 1.400 . S
C4079 C4084 1.490 . S
C4080 H4070 0.930 . S
C4080 C4079 1.400 . S
C4080 C4083 1.386 . S
H4081 C4097 0.930 . S
H4082 C4098 0.927 1_545 S
C4083 H4071 0.929 . S
C4083 C4077 1.390 . S
C4083 C4080 1.386 . S
C4084 C4079 1.490 . S
C4084 C4086 1.395 1_565 S
C4084 C4087 1.403 . S
H4085 C4091 0.930 . S
C4086 H4072 0.930 . S
C4086 C4084 1.395 1_545 S
C4086 C4089 1.403 . S
C4087 C4084 1.403 . S
C4087 C4088 1.524 . S
C4087 C4091 1.400 . S
C4088 H4073 0.960 . S
C4088 H4074 0.960 . S
C4088 H4075 0.960 . S
C4088 C4087 1.524 . S
C4089 C4086 1.403 . S
C4089 C4090 1.392 1_545 S
C4089 C4093 1.495 . S
C4090 C4089 1.392 1_565 S
C4090 C4091 1.385 . S
C4090 C4092 1.478 . S
C4091 H4085 0.930 . S
C4091 C4087 1.400 . S
C4091 C4090 1.385 . S
C4092 C4090 1.478 . S
C4092 C4094 1.381 . S
C4092 C4098 1.383 . S
C4093 C4089 1.495 . S
C4093 H4099 0.959 . S
C4093 H4100 0.961 . S
C4093 H4101 0.960 . S
C4094 C4092 1.381 . S
C4094 C4095 1.394 . S
C4094 H4102 0.930 . S
C4095 C4094 1.394 . S
C4095 C4096 1.383 . S
C4095 H4103 0.929 . S
C4096 C4095 1.383 . S
C4096 C4097 1.377 . S
C4097 H4081 0.930 . S
C4097 C4096 1.377 . S
C4097 C4098 1.379 . S
C4098 H4082 0.927 1_565 S
C4098 C4092 1.383 . S
C4098 C4097 1.379 . S
H4099 C4093 0.959 . S
H4100 C4093 0.961 . S
H4101 C4093 0.960 . S
H4102 C4094 0.930 . S
H4103 C4095 0.929 . S
H4104 C4112 0.929 . S
H4105 C4114 0.930 . S
H4106 C4116 0.986 . S
H4107 C4119 0.929 . S
H4108 C4122 0.930 . S
H4109 C4124 0.960 . S
H4110 C4124 0.960 . S
H4111 C4124 0.960 . S
C4112 H4104 0.929 . S
C4112 C4113 1.377 . S
C4112 C4114 1.384 . S
C4113 C4112 1.377 . S
C4113 C4119 1.390 . S
C4114 H4105 0.930 . S
C4114 C4112 1.384 . S
C4114 C4115 1.372 . S
C4115 C4114 1.372 . S
C4115 C4116 1.400 . S
C4115 C4120 1.490 . S
C4116 H4106 0.986 . S
C4116 C4115 1.400 . S
C4116 C4119 1.386 . S
H4117 C4133 0.930 . S
H4118 C4134 0.931 . S
C4119 H4107 0.929 . S
C4119 C4113 1.390 . S
C4119 C4116 1.386 . S
C4120 C4115 1.490 . S
C4120 C4122 1.395 . S
C4120 C4123 1.403 . S
H4121 C4127 0.930 1_655 S
C4122 H4108 0.930 . S
C4122 C4120 1.395 . S
C4122 C4125 1.403 . S
C4123 C4120 1.403 . S
C4123 C4124 1.524 1_455 S
C4123 C4127 1.400 . S
C4124 H4109 0.960 . S
C4124 H4110 0.960 . S
C4124 H4111 0.960 . S
C4124 C4123 1.524 1_655 S
C4125 C4122 1.403 . S
C4125 C4126 1.392 . S
C4125 C4129 1.495 . S
C4126 C4125 1.392 . S
C4126 C4127 1.385 . S
C4126 C4128 1.478 . S
C4127 H4121 0.930 1_455 S
C4127 C4123 1.400 . S
C4127 C4126 1.385 . S
C4128 C4126 1.478 . S
C4128 C4130 1.381 . S
C4128 C4134 1.383 1_455 S
C4129 C4125 1.495 . S
C4129 H4135 0.959 . S
C4129 H4136 0.961 . S
C4129 H4137 0.960 . S
C4130 C4128 1.381 . S
C4130 C4131 1.394 . S
C4130 H4138 0.930 . S
C4131 C4130 1.394 . S
C4131 C4132 1.383 . S
C4131 H4139 0.929 . S
C4132 C4131 1.383 . S
C4132 C4133 1.377 1_455 S
C4133 H4117 0.930 . S
C4133 C4132 1.377 1_655 S
C4133 C4134 1.379 . S
C4134 H4118 0.931 . S
C4134 C4128 1.383 1_655 S
C4134 C4133 1.379 . S
H4135 C4129 0.959 . S
H4136 C4129 0.961 . S
H4137 C4129 0.960 . S
H4138 C4130 0.930 . S
H4139 C4131 0.929 . S
H4140 C4148 0.929 . S
H4141 C4150 0.930 . S
H4142 C4152 0.930 . S
H4143 C4155 0.929 . S
H4144 C4158 0.930 . S
H4145 C4160 0.960 . S
H4146 C4160 0.960 . S
H4147 C4160 0.960 . S
C4148 H4140 0.929 . S
C4148 C4149 1.377 . S
C4148 C4150 1.384 . S
C4149 C4148 1.377 . S
C4149 C4155 1.390 . S
C4150 H4141 0.930 . S
C4150 C4148 1.384 . S
C4150 C4151 1.372 . S
C4151 C4150 1.372 . S
C4151 C4152 1.400 . S
C4151 C4156 1.490 . S
C4152 H4142 0.930 . S
C4152 C4151 1.400 . S
C4152 C4155 1.386 . S
H4153 C4169 0.930 . S
H4154 C4170 0.931 . S
C4155 H4143 0.929 . S
C4155 C4149 1.390 . S
C4155 C4152 1.386 . S
C4156 C4151 1.490 . S
C4156 C4158 1.395 . S
C4156 C4159 1.403 . S
H4157 C4163 0.930 . S
C4158 H4144 0.930 . S
C4158 C4156 1.395 . S
C4158 C4161 1.403 . S
C4159 C4156 1.403 . S
C4159 C4160 1.524 . S
C4159 C4163 1.400 . S
C4160 H4145 0.960 . S
C4160 H4146 0.960 . S
C4160 H4147 0.960 . S
C4160 C4159 1.524 . S
C4161 C4158 1.403 . S
C4161 C4162 1.392 . S
C4161 C4165 1.495 . S
C4162 C4161 1.392 . S
C4162 C4163 1.385 . S
C4162 C4164 1.478 . S
C4163 H4157 0.930 . S
C4163 C4159 1.400 . S
C4163 C4162 1.385 . S
C4164 C4162 1.478 . S
C4164 C4166 1.381 . S
C4164 C4170 1.383 . S
C4165 C4161 1.495 . S
C4165 H4171 0.959 . S
C4165 H4172 0.961 . S
C4165 H4173 0.960 . S
C4166 C4164 1.381 . S
C4166 C4167 1.394 . S
C4166 H4174 0.930 . S
C4167 C4166 1.394 . S
C4167 C4168 1.383 . S
C4167 H4175 0.929 . S
C4168 C4167 1.383 . S
C4168 C4169 1.377 . S
C4169 H4153 0.930 . S
C4169 C4168 1.377 . S
C4169 C4170 1.379 . S
C4170 H4154 0.931 . S
C4170 C4164 1.383 . S
C4170 C4169 1.379 . S
H4171 C4165 0.959 . S
H4172 C4165 0.961 . S
H4173 C4165 0.960 . S
H4174 C4166 0.930 . S
H4175 C4167 0.929 . S
H4176 C4184 0.929 . S
H4177 C4186 0.930 . S
H4178 C4188 0.930 . S
H4179 C4191 0.929 . S
H4180 C4194 0.930 . S
H4181 C4196 0.960 . S
H4182 C4196 0.960 . S
H4183 C4196 0.960 . S
C4184 H4176 0.929 . S
C4184 C4185 1.377 . S
C4184 C4186 1.384 . S
C4185 C4184 1.377 . S
C4185 C4191 1.390 . S
C4186 H4177 0.930 . S
C4186 C4184 1.384 . S
C4186 C4187 1.372 . S
C4187 C4186 1.372 . S
C4187 C4188 1.400 . S
C4187 C4192 1.490 . S
C4188 H4178 0.930 . S
C4188 C4187 1.400 . S
C4188 C4191 1.386 . S
H4189 C4205 0.930 . S
H4190 C4206 0.931 . S
C4191 H4179 0.929 . S
C4191 C4185 1.390 . S
C4191 C4188 1.386 . S
C4192 C4187 1.490 . S
C4192 C4194 1.395 . S
C4192 C4195 1.403 . S
H4193 C4199 0.930 . S
C4194 H4180 0.930 . S
C4194 C4192 1.395 . S
C4194 C4197 1.403 . S
C4195 C4192 1.403 . S
C4195 C4196 1.524 . S
C4195 C4199 1.400 . S
C4196 H4181 0.960 . S
C4196 H4182 0.960 . S
C4196 H4183 0.960 . S
C4196 C4195 1.524 . S
C4197 C4194 1.403 . S
C4197 C4198 1.392 . S
C4197 C4201 1.495 . S
C4198 C4197 1.392 . S
C4198 C4199 1.385 . S
C4198 C4200 1.478 . S
C4199 H4193 0.930 . S
C4199 C4195 1.400 . S
C4199 C4198 1.385 . S
C4200 C4198 1.478 . S
C4200 C4202 1.381 . S
C4200 C4206 1.383 . S
C4201 C4197 1.495 . S
C4201 H4207 0.959 . S
C4201 H4208 0.961 . S
C4201 H4209 0.960 . S
C4202 C4200 1.381 . S
C4202 C4203 1.394 . S
C4202 H4210 0.930 . S
C4203 C4202 1.394 . S
C4203 C4204 1.383 . S
C4203 H4211 0.929 . S
C4204 C4203 1.383 . S
C4204 C4205 1.377 . S
C4205 H4189 0.930 . S
C4205 C4204 1.377 . S
C4205 C4206 1.379 . S
C4206 H4190 0.931 . S
C4206 C4200 1.383 . S
C4206 C4205 1.379 . S
H4207 C4201 0.959 . S
H4208 C4201 0.961 . S
H4209 C4201 0.960 . S
H4210 C4202 0.930 . S
H4211 C4203 0.929 . S
H4212 C4220 0.929 . S
H4213 C4222 0.930 . S
H4214 C4224 0.930 . S
H4215 C4227 0.929 . S
H4216 C4230 0.930 . S
H4217 C4232 0.960 . S
H4218 C4232 0.960 . S
H4219 C4232 0.960 . S
C4220 H4212 0.929 . S
C4220 C4221 1.377 . S
C4220 C4222 1.384 . S
C4221 C4220 1.377 . S
C4221 C4227 1.390 . S
C4222 H4213 0.930 . S
C4222 C4220 1.384 . S
C4222 C4223 1.372 . S
C4223 C4222 1.372 . S
C4223 C4224 1.400 . S
C4223 C4228 1.490 . S
C4224 H4214 0.930 . S
C4224 C4223 1.400 . S
C4224 C4227 1.386 . S
H4225 C4241 0.930 . S
H4226 C4242 0.931 . S
C4227 H4215 0.929 . S
C4227 C4221 1.390 . S
C4227 C4224 1.386 . S
C4228 C4223 1.490 . S
C4228 C4230 1.395 . S
C4228 C4231 1.403 . S
H4229 C4235 0.930 . S
C4230 H4216 0.930 . S
C4230 C4228 1.395 . S
C4230 C4233 1.403 . S
C4231 C4228 1.403 . S
C4231 C4232 1.524 . S
C4231 C4235 1.400 . S
C4232 H4217 0.960 . S
C4232 H4218 0.960 . S
C4232 H4219 0.960 . S
C4232 C4231 1.524 . S
C4233 C4230 1.403 . S
C4233 C4234 1.392 . S
C4233 C4237 1.495 . S
C4234 C4233 1.392 . S
C4234 C4235 1.385 . S
C4234 C4236 1.478 . S
C4235 H4229 0.930 . S
C4235 C4231 1.400 . S
C4235 C4234 1.385 . S
C4236 C4234 1.478 . S
C4236 C4238 1.381 . S
C4236 C4242 1.383 . S
C4237 C4233 1.495 . S
C4237 H4243 0.959 . S
C4237 H4244 0.961 . S
C4237 H4245 0.960 . S
C4238 C4236 1.381 . S
C4238 C4239 1.394 . S
C4238 H4246 0.930 . S
C4239 C4238 1.394 . S
C4239 C4240 1.383 . S
C4239 H4247 0.929 . S
C4240 C4239 1.383 . S
C4240 C4241 1.377 . S
C4241 H4225 0.930 . S
C4241 C4240 1.377 . S
C4241 C4242 1.379 . S
C4242 H4226 0.931 . S
C4242 C4236 1.383 . S
C4242 C4241 1.379 . S
H4243 C4237 0.959 . S
H4244 C4237 0.961 . S
H4245 C4237 0.960 . S
H4246 C4238 0.930 . S
H4247 C4239 0.929 . S
H4248 C4256 0.929 . S
H4249 C4258 0.930 . S
H4250 C4260 0.930 . S
H4251 C4263 0.929 . S
H4252 C4266 0.930 . S
H4253 C4268 0.960 . S
H4254 C4268 0.960 . S
H4255 C4268 0.960 . S
C4256 H4248 0.929 . S
C4256 C4257 1.377 . S
C4256 C4258 1.384 . S
C4257 C4256 1.377 . S
C4257 C4263 1.390 . S
C4258 H4249 0.930 . S
C4258 C4256 1.384 . S
C4258 C4259 1.372 . S
C4259 C4258 1.372 . S
C4259 C4260 1.400 . S
C4259 C4264 1.490 . S
C4260 H4250 0.930 . S
C4260 C4259 1.400 . S
C4260 C4263 1.386 . S
H4261 C4277 0.930 . S
H4262 C4278 0.931 . S
C4263 H4251 0.929 . S
C4263 C4257 1.390 . S
C4263 C4260 1.386 . S
C4264 C4259 1.490 . S
C4264 C4266 1.395 . S
C4264 C4267 1.403 . S
H4265 C4271 0.930 . S
C4266 H4252 0.930 . S
C4266 C4264 1.395 . S
C4266 C4269 1.403 . S
C4267 C4264 1.403 . S
C4267 C4268 1.524 . S
C4267 C4271 1.400 . S
C4268 H4253 0.960 . S
C4268 H4254 0.960 . S
C4268 H4255 0.960 . S
C4268 C4267 1.524 . S
C4269 C4266 1.403 . S
C4269 C4270 1.392 . S
C4269 C4273 1.495 . S
C4270 C4269 1.392 . S
C4270 C4271 1.385 . S
C4270 C4272 1.478 . S
C4271 H4265 0.930 . S
C4271 C4267 1.400 . S
C4271 C4270 1.385 . S
C4272 C4270 1.478 . S
C4272 C4274 1.381 . S
C4272 C4278 1.383 . S
C4273 C4269 1.495 . S
C4273 H4279 0.959 . S
C4273 H4280 0.961 . S
C4273 H4281 0.960 . S
C4274 C4272 1.381 . S
C4274 C4275 1.394 . S
C4274 H4282 0.930 . S
C4275 C4274 1.394 . S
C4275 C4276 1.383 . S
C4275 H4283 0.929 . S
C4276 C4275 1.383 . S
C4276 C4277 1.377 . S
C4277 H4261 0.930 . S
C4277 C4276 1.377 . S
C4277 C4278 1.379 . S
C4278 H4262 0.931 . S
C4278 C4272 1.383 . S
C4278 C4277 1.379 . S
H4279 C4273 0.959 . S
H4280 C4273 0.961 . S
H4281 C4273 0.960 . S
H4282 C4274 0.930 . S
H4283 C4275 0.929 . S
H4284 C4292 0.929 . S
H4285 C4294 0.930 . S
H4286 C4296 0.930 . S
H4287 C4299 0.929 . S
H4288 C4302 0.930 . S
H4289 C4304 0.960 . S
H4290 C4304 0.960 . S
H4291 C4304 0.960 . S
C4292 H4284 0.929 . S
C4292 C4293 1.377 . S
C4292 C4294 1.384 . S
C4293 C4292 1.377 . S
C4293 C4299 1.390 . S
C4294 H4285 0.930 . S
C4294 C4292 1.384 . S
C4294 C4295 1.372 . S
C4295 C4294 1.372 . S
C4295 C4296 1.400 . S
C4295 C4300 1.490 . S
C4296 H4286 0.930 . S
C4296 C4295 1.400 . S
C4296 C4299 1.386 . S
H4297 C4313 0.930 . S
H4298 C4314 0.931 . S
C4299 H4287 0.929 . S
C4299 C4293 1.390 . S
C4299 C4296 1.386 . S
C4300 C4295 1.490 . S
C4300 C4302 1.395 . S
C4300 C4303 1.403 . S
H4301 C4307 0.930 . S
C4302 H4288 0.930 . S
C4302 C4300 1.395 . S
C4302 C4305 1.403 . S
C4303 C4300 1.403 . S
C4303 C4304 1.524 . S
C4303 C4307 1.400 . S
C4304 H4289 0.960 . S
C4304 H4290 0.960 . S
C4304 H4291 0.960 . S
C4304 C4303 1.524 . S
C4305 C4302 1.403 . S
C4305 C4306 1.392 . S
C4305 C4309 1.495 . S
C4306 C4305 1.392 . S
C4306 C4307 1.385 . S
C4306 C4308 1.478 . S
C4307 H4301 0.930 . S
C4307 C4303 1.400 . S
C4307 C4306 1.385 . S
C4308 C4306 1.478 . S
C4308 C4310 1.381 . S
C4308 C4314 1.383 . S
C4309 C4305 1.495 . S
C4309 H4315 0.959 . S
C4309 H4316 0.961 . S
C4309 H4317 0.960 . S
C4310 C4308 1.381 . S
C4310 C4311 1.394 . S
C4310 H4318 0.930 . S
C4311 C4310 1.394 . S
C4311 C4312 1.383 . S
C4311 H4319 0.929 . S
C4312 C4311 1.383 . S
C4312 C4313 1.377 . S
C4313 H4297 0.930 . S
C4313 C4312 1.377 . S
C4313 C4314 1.379 . S
C4314 H4298 0.931 . S
C4314 C4308 1.383 . S
C4314 C4313 1.379 . S
H4315 C4309 0.959 . S
H4316 C4309 0.961 . S
H4317 C4309 0.960 . S
H4318 C4310 0.930 . S
H4319 C4311 0.929 . S
H4320 C4328 0.929 . S
H4321 C4330 0.930 . S
H4322 C4332 0.930 . S
H4323 C4335 0.929 . S
H4324 C4338 0.930 . S
H4325 C4340 0.960 . S
H4326 C4340 0.960 . S
H4327 C4340 0.960 . S
C4328 H4320 0.929 . S
C4328 C4329 1.377 . S
C4328 C4330 1.384 . S
C4329 C4328 1.377 . S
C4329 C4335 1.390 . S
C4330 H4321 0.930 . S
C4330 C4328 1.384 . S
C4330 C4331 1.372 . S
C4331 C4330 1.372 . S
C4331 C4332 1.400 . S
C4331 C4336 1.490 . S
C4332 H4322 0.930 . S
C4332 C4331 1.400 . S
C4332 C4335 1.386 . S
H4333 C4349 0.930 . S
H4334 C4350 0.931 . S
C4335 H4323 0.929 . S
C4335 C4329 1.390 . S
C4335 C4332 1.386 . S
C4336 C4331 1.490 . S
C4336 C4338 1.395 . S
C4336 C4339 1.403 . S
H4337 C4343 0.930 . S
C4338 H4324 0.930 . S
C4338 C4336 1.395 . S
C4338 C4341 1.403 . S
C4339 C4336 1.403 . S
C4339 C4340 1.524 . S
C4339 C4343 1.400 . S
C4340 H4325 0.960 . S
C4340 H4326 0.960 . S
C4340 H4327 0.960 . S
C4340 C4339 1.524 . S
C4341 C4338 1.403 . S
C4341 C4342 1.392 . S
C4341 C4345 1.495 . S
C4342 C4341 1.392 . S
C4342 C4343 1.385 . S
C4342 C4344 1.478 . S
C4343 H4337 0.930 . S
C4343 C4339 1.400 . S
C4343 C4342 1.385 . S
C4344 C4342 1.478 . S
C4344 C4346 1.381 . S
C4344 C4350 1.383 . S
C4345 C4341 1.495 . S
C4345 H4351 0.959 . S
C4345 H4352 0.961 . S
C4345 H4353 0.960 . S
C4346 C4344 1.381 . S
C4346 C4347 1.394 . S
C4346 H4354 0.930 . S
C4347 C4346 1.394 . S
C4347 C4348 1.383 . S
C4347 H4355 0.929 . S
C4348 C4347 1.383 . S
C4348 C4349 1.377 . S
C4349 H4333 0.930 . S
C4349 C4348 1.377 . S
C4349 C4350 1.379 . S
C4350 H4334 0.931 . S
C4350 C4344 1.383 . S
C4350 C4349 1.379 . S
H4351 C4345 0.959 . S
H4352 C4345 0.961 . S
H4353 C4345 0.960 . S
H4354 C4346 0.930 . S
H4355 C4347 0.929 . S
H4356 C4364 0.929 . S
H4357 C4366 0.930 . S
H4358 C4368 0.930 . S
H4359 C4371 0.929 . S
H4360 C4374 0.930 . S
H4361 C4376 0.960 . S
H4362 C4376 0.960 . S
H4363 C4376 0.960 . S
C4364 H4356 0.929 . S
C4364 C4365 1.377 . S
C4364 C4366 1.384 . S
C4365 C4364 1.377 . S
C4365 C4371 1.390 . S
C4366 H4357 0.930 . S
C4366 C4364 1.384 . S
C4366 C4367 1.372 . S
C4367 C4366 1.372 . S
C4367 C4368 1.400 . S
C4367 C4372 1.490 . S
C4368 H4358 0.930 . S
C4368 C4367 1.400 . S
C4368 C4371 1.386 . S
H4369 C4385 0.930 . S
H4370 C4386 0.931 . S
C4371 H4359 0.929 . S
C4371 C4365 1.390 . S
C4371 C4368 1.386 . S
C4372 C4367 1.490 . S
C4372 C4374 1.395 . S
C4372 C4375 1.403 . S
H4373 C4379 0.930 . S
C4374 H4360 0.930 . S
C4374 C4372 1.395 . S
C4374 C4377 1.403 . S
C4375 C4372 1.403 . S
C4375 C4376 1.524 . S
C4375 C4379 1.400 . S
C4376 H4361 0.960 . S
C4376 H4362 0.960 . S
C4376 H4363 0.960 . S
C4376 C4375 1.524 . S
C4377 C4374 1.403 . S
C4377 C4378 1.392 . S
C4377 C4381 1.495 . S
C4378 C4377 1.392 . S
C4378 C4379 1.385 . S
C4378 C4380 1.478 . S
C4379 H4373 0.930 . S
C4379 C4375 1.400 . S
C4379 C4378 1.385 . S
C4380 C4378 1.478 . S
C4380 C4382 1.381 . S
C4380 C4386 1.383 . S
C4381 C4377 1.495 . S
C4381 H4387 0.959 . S
C4381 H4388 0.961 . S
C4381 H4389 0.960 . S
C4382 C4380 1.381 . S
C4382 C4383 1.394 . S
C4382 H4390 0.930 . S
C4383 C4382 1.394 . S
C4383 C4384 1.383 . S
C4383 H4391 0.929 . S
C4384 C4383 1.383 . S
C4384 C4385 1.377 . S
C4385 H4369 0.930 . S
C4385 C4384 1.377 . S
C4385 C4386 1.379 . S
C4386 H4370 0.931 . S
C4386 C4380 1.383 . S
C4386 C4385 1.379 . S
H4387 C4381 0.959 . S
H4388 C4381 0.961 . S
H4389 C4381 0.960 . S
H4390 C4382 0.930 . S
H4391 C4383 0.929 . S
H4392 C4400 0.929 . S
H4393 C4402 0.930 . S
H4394 C4404 0.930 . S
H4395 C4407 0.929 . S
H4396 C4410 0.930 . S
H4397 C4412 0.957 . S
H4398 C4412 0.960 . S
H4399 C4412 0.960 . S
C4400 H4392 0.929 . S
C4400 C4401 1.377 . S
C4400 C4402 1.384 . S
C4401 C4400 1.377 . S
C4401 C4407 1.390 . S
C4402 H4393 0.930 . S
C4402 C4400 1.384 . S
C4402 C4403 1.372 . S
C4403 C4402 1.372 . S
C4403 C4404 1.400 . S
C4403 C4408 1.490 . S
C4404 H4394 0.930 . S
C4404 C4403 1.400 . S
C4404 C4407 1.386 . S
H4405 C4421 0.930 . S
H4406 C4422 0.931 . S
C4407 H4395 0.929 . S
C4407 C4401 1.390 . S
C4407 C4404 1.386 . S
C4408 C4403 1.490 . S
C4408 C4410 1.395 . S
C4408 C4411 1.403 . S
H4409 C4415 0.930 . S
C4410 H4396 0.930 . S
C4410 C4408 1.395 . S
C4410 C4413 1.403 . S
C4411 C4408 1.403 . S
C4411 C4412 1.524 . S
C4411 C4415 1.400 . S
C4412 H4397 0.957 . S
C4412 H4398 0.960 . S
C4412 H4399 0.960 . S
C4412 C4411 1.524 . S
C4413 C4410 1.403 . S
C4413 C4414 1.392 . S
C4413 C4417 1.495 . S
C4414 C4413 1.392 . S
C4414 C4415 1.385 . S
C4414 C4416 1.478 . S
C4415 H4409 0.930 . S
C4415 C4411 1.400 . S
C4415 C4414 1.385 . S
C4416 C4414 1.478 . S
C4416 C4418 1.381 . S
C4416 C4422 1.383 . S
C4417 C4413 1.495 . S
C4417 H4423 0.959 . S
C4417 H4424 0.961 . S
C4417 H4425 0.960 . S
C4418 C4416 1.381 . S
C4418 C4419 1.394 . S
C4418 H4426 0.930 . S
C4419 C4418 1.394 . S
C4419 C4420 1.383 . S
C4419 H4427 0.929 . S
C4420 C4419 1.383 . S
C4420 C4421 1.377 . S
C4421 H4405 0.930 . S
C4421 C4420 1.377 . S
C4421 C4422 1.379 . S
C4422 H4406 0.931 . S
C4422 C4416 1.383 . S
C4422 C4421 1.379 . S
H4423 C4417 0.959 . S
H4424 C4417 0.961 . S
H4425 C4417 0.960 . S
H4426 C4418 0.930 . S
H4427 C4419 0.929 . S
H4428 C4436 0.929 . S
H4429 C4438 0.930 . S
H4430 C4440 0.954 . S
H4431 C4443 0.929 . S
H4432 C4446 0.930 . S
H4433 C4448 0.960 . S
H4434 C4448 0.960 . S
H4435 C4448 0.960 . S
C4436 H4428 0.929 . S
C4436 C4437 1.377 . S
C4436 C4438 1.384 . S
C4437 C4436 1.377 . S
C4437 C4443 1.390 1_554 S
C4438 H4429 0.930 . S
C4438 C4436 1.384 . S
C4438 C4439 1.372 . S
C4439 C4438 1.372 . S
C4439 C4440 1.369 1_554 S
C4439 C4444 1.490 . S
C4440 H4430 0.954 . S
C4440 C4439 1.369 1_556 S
C4440 C4443 1.395 . S
H4441 C4457 0.930 . S
H4442 C4458 0.931 . S
C4443 H4431 0.929 . S
C4443 C4437 1.390 1_556 S
C4443 C4440 1.395 . S
C4444 C4439 1.490 . S
C4444 C4446 1.395 . S
C4444 C4447 1.403 . S
H4445 C4451 0.930 1_556 S
C4446 H4432 0.930 . S
C4446 C4444 1.395 . S
C4446 C4449 1.403 . S
C4447 C4444 1.403 . S
C4447 C4448 1.524 1_554 S
C4447 C4451 1.400 . S
C4448 H4433 0.960 . S
C4448 H4434 0.960 . S
C4448 H4435 0.960 . S
C4448 C4447 1.524 1_556 S
C4449 C4446 1.403 . S
C4449 C4450 1.392 . S
C4449 C4453 1.495 . S
C4450 C4449 1.392 . S
C4450 C4451 1.385 . S
C4450 C4452 1.478 . S
C4451 H4445 0.930 1_554 S
C4451 C4447 1.400 . S
C4451 C4450 1.385 . S
C4452 C4450 1.478 . S
C4452 C4454 1.381 . S
C4452 C4458 1.383 . S
C4453 C4449 1.495 . S
C4453 H4459 0.959 . S
C4453 H4460 0.961 . S
C4453 H4461 0.960 . S
C4454 C4452 1.381 . S
C4454 C4455 1.394 . S
C4454 H4462 0.930 . S
C4455 C4454 1.394 . S
C4455 C4456 1.383 . S
C4455 H4463 0.929 . S
C4456 C4455 1.383 . S
C4456 C4457 1.377 . S
C4457 H4441 0.930 . S
C4457 C4456 1.377 . S
C4457 C4458 1.379 . S
C4458 H4442 0.931 . S
C4458 C4452 1.383 . S
C4458 C4457 1.379 . S
H4459 C4453 0.959 . S
H4460 C4453 0.961 . S
H4461 C4453 0.960 . S
H4462 C4454 0.930 . S
H4463 C4455 0.929 . S
H4464 C4472 0.929 . S
H4465 C4474 0.930 . S
H4466 C4476 0.930 . S
H4467 C4479 0.929 . S
H4468 C4482 0.930 . S
H4469 C4484 0.960 . S
H4470 C4484 0.960 . S
H4471 C4484 0.954 1_556 S
C4472 H4464 0.929 . S
C4472 C4473 1.377 . S
C4472 C4474 1.384 . S
C4473 C4472 1.377 . S
C4473 C4479 1.390 . S
C4474 H4465 0.930 . S
C4474 C4472 1.384 . S
C4474 C4475 1.372 . S
C4475 C4474 1.372 . S
C4475 C4476 1.400 . S
C4475 C4480 1.490 1_556 S
C4476 H4466 0.930 . S
C4476 C4475 1.400 . S
C4476 C4479 1.386 . S
H4477 C4493 0.930 . S
H4478 C4494 0.931 . S
C4479 H4467 0.929 . S
C4479 C4473 1.390 . S
C4479 C4476 1.386 . S
C4480 C4475 1.490 1_554 S
C4480 C4482 1.395 . S
C4480 C4483 1.403 . S
H4481 C4487 0.930 . S
C4482 H4468 0.930 . S
C4482 C4480 1.395 . S
C4482 C4485 1.403 . S
C4483 C4480 1.403 . S
C4483 C4484 1.524 . S
C4483 C4487 1.400 . S
C4484 H4469 0.960 . S
C4484 H4470 0.960 . S
C4484 H4471 0.954 1_554 S
C4484 C4483 1.524 . S
C4485 C4482 1.403 . S
C4485 C4486 1.392 . S
C4485 C4489 1.495 . S
C4486 C4485 1.392 . S
C4486 C4487 1.385 . S
C4486 C4488 1.478 . S
C4487 H4481 0.930 . S
C4487 C4483 1.400 . S
C4487 C4486 1.385 . S
C4488 C4486 1.478 . S
C4488 C4490 1.381 . S
C4488 C4494 1.383 . S
C4489 C4485 1.495 . S
C4489 H4495 0.959 . S
C4489 H4496 0.961 . S
C4489 H4497 0.960 . S
C4490 C4488 1.381 . S
C4490 C4491 1.394 . S
C4490 H4498 0.930 . S
C4491 C4490 1.394 . S
C4491 C4492 1.383 . S
C4491 H4499 0.929 . S
C4492 C4491 1.383 . S
C4492 C4493 1.377 . S
C4493 H4477 0.930 . S
C4493 C4492 1.377 . S
C4493 C4494 1.379 . S
C4494 H4478 0.931 . S
C4494 C4488 1.383 . S
C4494 C4493 1.379 . S
H4495 C4489 0.959 . S
H4496 C4489 0.961 . S
H4497 C4489 0.960 . S
H4498 C4490 0.930 . S
H4499 C4491 0.929 . S
H4500 C4508 0.929 . S
H4501 C4510 0.930 . S
H4502 C4512 0.930 . S
H4503 C4515 0.929 . S
H4504 C4518 0.930 . S
H4505 C4520 0.960 . S
H4506 C4520 0.960 . S
H4507 C4520 0.960 . S
C4508 H4500 0.929 . S
C4508 C4509 1.415 . S
C4508 C4510 1.384 . S
C4509 C4508 1.415 . S
C4509 C4515 1.427 . S
C4510 H4501 0.930 . S
C4510 C4508 1.384 . S
C4510 C4511 1.372 . S
C4511 C4510 1.372 . S
C4511 C4512 1.400 . S
C4511 C4516 1.490 . S
C4512 H4502 0.930 . S
C4512 C4511 1.400 . S
C4512 C4515 1.386 . S
H4513 C4529 0.930 . S
H4514 C4530 0.931 . S
C4515 H4503 0.929 . S
C4515 C4509 1.427 . S
C4515 C4512 1.386 . S
C4516 C4511 1.490 . S
C4516 C4518 1.395 . S
C4516 C4519 1.403 . S
H4517 C4523 0.930 . S
C4518 H4504 0.930 . S
C4518 C4516 1.395 . S
C4518 C4521 1.403 . S
C4519 C4516 1.403 . S
C4519 C4520 1.524 . S
C4519 C4523 1.400 . S
C4520 H4505 0.960 . S
C4520 H4506 0.960 . S
C4520 H4507 0.960 . S
C4520 C4519 1.524 . S
C4521 C4518 1.403 . S
C4521 C4522 1.392 . S
C4521 C4525 1.495 . S
C4522 C4521 1.392 . S
C4522 C4523 1.385 . S
C4522 C4524 1.478 . S
C4523 H4517 0.930 . S
C4523 C4519 1.400 . S
C4523 C4522 1.385 . S
C4524 C4522 1.478 . S
C4524 C4526 1.381 . S
C4524 C4530 1.383 . S
C4525 C4521 1.495 . S
C4525 H4531 0.959 . S
C4525 H4532 0.961 . S
C4525 H4533 0.960 . S
C4526 C4524 1.381 . S
C4526 C4527 1.394 . S
C4526 H4534 0.930 . S
C4527 C4526 1.394 . S
C4527 C4528 1.383 . S
C4527 H4535 0.929 . S
C4528 C4527 1.383 . S
C4528 C4529 1.377 . S
C4529 H4513 0.930 . S
C4529 C4528 1.377 . S
C4529 C4530 1.379 . S
C4530 H4514 0.931 . S
C4530 C4524 1.383 . S
C4530 C4529 1.379 . S
H4531 C4525 0.959 . S
H4532 C4525 0.961 . S
H4533 C4525 0.960 . S
H4534 C4526 0.930 . S
H4535 C4527 0.929 . S
H4536 C4544 0.929 . S
H4537 C4546 0.930 . S
H4538 C4548 0.930 . S
H4539 C4551 0.929 . S
H4540 C4554 0.930 . S
H4541 C4556 0.960 . S
H4542 C4556 0.960 . S
H4543 C4556 0.960 . S
C4544 H4536 0.929 . S
C4544 C4545 1.377 . S
C4544 C4546 1.384 . S
C4545 C4544 1.377 . S
C4545 C4551 1.390 . S
C4546 H4537 0.930 . S
C4546 C4544 1.384 . S
C4546 C4547 1.372 . S
C4547 C4546 1.372 . S
C4547 C4548 1.400 . S
C4547 C4552 1.490 1_556 S
C4548 H4538 0.930 . S
C4548 C4547 1.400 . S
C4548 C4551 1.386 . S
H4549 C4565 0.930 . S
H4550 C4566 0.931 . S
C4551 H4539 0.929 . S
C4551 C4545 1.390 . S
C4551 C4548 1.386 . S
C4552 C4547 1.490 1_554 S
C4552 C4554 1.395 . S
C4552 C4555 1.403 . S
H4553 C4559 0.930 . S
C4554 H4540 0.930 . S
C4554 C4552 1.395 . S
C4554 C4557 1.403 . S
C4555 C4552 1.403 . S
C4555 C4556 1.524 . S
C4555 C4559 1.400 . S
C4556 H4541 0.960 . S
C4556 H4542 0.960 . S
C4556 H4543 0.960 . S
C4556 C4555 1.524 . S
C4557 C4554 1.403 . S
C4557 C4558 1.392 . S
C4557 C4561 1.495 . S
C4558 C4557 1.392 . S
C4558 C4559 1.385 . S
C4558 C4560 1.478 . S
C4559 H4553 0.930 . S
C4559 C4555 1.400 . S
C4559 C4558 1.385 . S
C4560 C4558 1.478 . S
C4560 C4562 1.381 . S
C4560 C4566 1.383 . S
C4561 C4557 1.495 . S
C4561 H4567 0.959 . S
C4561 H4568 0.961 . S
C4561 H4569 0.960 . S
C4562 C4560 1.381 . S
C4562 C4563 1.394 . S
C4562 H4570 0.930 . S
C4563 C4562 1.394 . S
C4563 C4564 1.383 . S
C4563 H4571 0.929 . S
C4564 C4563 1.383 . S
C4564 C4565 1.377 . S
C4565 H4549 0.930 . S
C4565 C4564 1.377 . S
C4565 C4566 1.379 . S
C4566 H4550 0.931 . S
C4566 C4560 1.383 . S
C4566 C4565 1.379 . S
H4567 C4561 0.959 . S
H4568 C4561 0.961 . S
H4569 C4561 0.960 . S
H4570 C4562 0.930 . S
H4571 C4563 0.929 . S
H4572 C4580 0.929 . S
H4573 C4582 0.930 . S
H4574 C4584 0.930 . S
H4575 C4587 0.929 . S
H4576 C4590 0.930 . S
H4577 C4592 0.960 . S
H4578 C4592 0.960 1_556 S
H4579 C4592 0.960 1_556 S
C4580 H4572 0.929 . S
C4580 C4581 1.377 . S
C4580 C4582 1.384 . S
C4581 C4580 1.377 . S
C4581 C4587 1.390 . S
C4582 H4573 0.930 . S
C4582 C4580 1.384 . S
C4582 C4583 1.372 . S
C4583 C4582 1.372 . S
C4583 C4584 1.400 . S
C4583 C4588 1.490 1_556 S
C4584 H4574 0.930 . S
C4584 C4583 1.400 . S
C4584 C4587 1.386 . S
H4585 C4601 0.930 . S
H4586 C4602 0.931 . S
C4587 H4575 0.929 . S
C4587 C4581 1.390 . S
C4587 C4584 1.386 . S
C4588 C4583 1.490 1_554 S
C4588 C4590 1.395 . S
C4588 C4591 1.403 . S
H4589 C4595 0.930 . S
C4590 H4576 0.930 . S
C4590 C4588 1.395 . S
C4590 C4593 1.403 . S
C4591 C4588 1.403 . S
C4591 C4592 1.524 . S
C4591 C4595 1.400 . S
C4592 H4577 0.960 . S
C4592 H4578 0.960 1_554 S
C4592 H4579 0.960 1_554 S
C4592 C4591 1.524 . S
C4593 C4590 1.403 . S
C4593 C4594 1.392 . S
C4593 C4597 1.495 . S
C4594 C4593 1.392 . S
C4594 C4595 1.385 . S
C4594 C4596 1.478 . S
C4595 H4589 0.930 . S
C4595 C4591 1.400 . S
C4595 C4594 1.385 . S
C4596 C4594 1.478 . S
C4596 C4598 1.381 . S
C4596 C4602 1.383 . S
C4597 C4593 1.495 . S
C4597 H4603 0.959 . S
C4597 H4604 0.961 . S
C4597 H4605 0.960 . S
C4598 C4596 1.381 . S
C4598 C4599 1.394 . S
C4598 H4606 0.930 . S
C4599 C4598 1.394 . S
C4599 C4600 1.383 . S
C4599 H4607 0.929 . S
C4600 C4599 1.383 . S
C4600 C4601 1.377 . S
C4601 H4585 0.930 . S
C4601 C4600 1.377 . S
C4601 C4602 1.379 . S
C4602 H4586 0.931 . S
C4602 C4596 1.383 . S
C4602 C4601 1.379 . S
H4603 C4597 0.959 . S
H4604 C4597 0.961 . S
H4605 C4597 0.960 . S
H4606 C4598 0.930 . S
H4607 C4599 0.929 . S
H4608 C4616 0.929 . S
H4609 C4618 0.930 . S
H4610 C4620 0.930 . S
H4611 C4623 0.929 . S
H4612 C4626 0.930 . S
H4613 C4628 0.960 . S
H4614 C4628 0.960 . S
H4615 C4628 0.960 . S
C4616 H4608 0.929 . S
C4616 C4617 1.377 . S
C4616 C4618 1.384 1_655 S
C4617 C4616 1.377 . S
C4617 C4623 1.390 . S
C4618 H4609 0.930 . S
C4618 C4616 1.384 1_455 S
C4618 C4619 1.372 . S
C4619 C4618 1.372 . S
C4619 C4620 1.400 . S
C4619 C4624 1.490 . S
C4620 H4610 0.930 . S
C4620 C4619 1.400 . S
C4620 C4623 1.386 1_455 S
H4621 C4637 0.930 . S
H4622 C4638 0.931 . S
C4623 H4611 0.929 . S
C4623 C4617 1.390 . S
C4623 C4620 1.386 1_655 S
C4624 C4619 1.490 . S
C4624 C4626 1.395 . S
C4624 C4627 1.403 . S
H4625 C4631 0.930 . S
C4626 H4612 0.930 . S
C4626 C4624 1.395 . S
C4626 C4629 1.403 . S
C4627 C4624 1.403 . S
C4627 C4628 1.524 . S
C4627 C4631 1.400 . S
C4628 H4613 0.960 . S
C4628 H4614 0.960 . S
C4628 H4615 0.960 . S
C4628 C4627 1.524 . S
C4629 C4626 1.403 . S
C4629 C4630 1.392 . S
C4629 C4633 1.495 . S
C4630 C4629 1.392 . S
C4630 C4631 1.385 . S
C4630 C4632 1.478 . S
C4631 H4625 0.930 . S
C4631 C4627 1.400 . S
C4631 C4630 1.385 . S
C4632 C4630 1.478 . S
C4632 C4634 1.381 . S
C4632 C4638 1.383 . S
C4633 C4629 1.495 . S
C4633 H4639 0.959 . S
C4633 H4640 0.961 . S
C4633 H4641 0.960 . S
C4634 C4632 1.381 . S
C4634 C4635 1.394 . S
C4634 H4642 0.930 . S
C4635 C4634 1.394 . S
C4635 C4636 1.383 . S
C4635 H4643 0.929 . S
C4636 C4635 1.383 . S
C4636 C4637 1.377 . S
C4637 H4621 0.930 . S
C4637 C4636 1.377 . S
C4637 C4638 1.379 . S
C4638 H4622 0.931 . S
C4638 C4632 1.383 . S
C4638 C4637 1.379 . S
H4639 C4633 0.959 . S
H4640 C4633 0.961 . S
H4641 C4633 0.960 . S
H4642 C4634 0.930 . S
H4643 C4635 0.929 . S
H4644 C4652 0.929 . S
H4645 C4654 0.930 . S
H4646 C4656 0.930 . S
H4647 C4659 0.929 . S
H4648 C4662 0.930 . S
H4649 C4664 0.960 . S
H4650 C4664 0.960 . S
H4651 C4664 0.960 . S
C4652 H4644 0.929 . S
C4652 C4653 1.377 . S
C4652 C4654 1.384 . S
C4653 C4652 1.377 . S
C4653 C4659 1.390 . S
C4654 H4645 0.930 . S
C4654 C4652 1.384 . S
C4654 C4655 1.372 . S
C4655 C4654 1.372 . S
C4655 C4656 1.400 . S
C4655 C4660 1.490 1_565 S
C4656 H4646 0.930 . S
C4656 C4655 1.400 . S
C4656 C4659 1.386 . S
H4657 C4673 0.930 . S
H4658 C4674 0.931 . S
C4659 H4647 0.929 . S
C4659 C4653 1.390 . S
C4659 C4656 1.386 . S
C4660 C4655 1.490 1_545 S
C4660 C4662 1.395 . S
C4660 C4663 1.403 . S
H4661 C4667 0.930 . S
C4662 H4648 0.930 . S
C4662 C4660 1.395 . S
C4662 C4665 1.403 . S
C4663 C4660 1.403 . S
C4663 C4664 1.524 . S
C4663 C4667 1.400 . S
C4664 H4649 0.960 . S
C4664 H4650 0.960 . S
C4664 H4651 0.960 . S
C4664 C4663 1.524 . S
C4665 C4662 1.403 . S
C4665 C4666 1.392 . S
C4665 C4669 1.495 . S
C4666 C4665 1.392 . S
C4666 C4667 1.385 . S
C4666 C4668 1.478 . S
C4667 H4661 0.930 . S
C4667 C4663 1.400 . S
C4667 C4666 1.385 . S
C4668 C4666 1.478 . S
C4668 C4670 1.381 . S
C4668 C4674 1.383 . S
C4669 C4665 1.495 . S
C4669 H4675 0.959 . S
C4669 H4676 0.961 . S
C4669 H4677 0.960 . S
C4670 C4668 1.381 . S
C4670 C4671 1.394 . S
C4670 H4678 0.930 . S
C4671 C4670 1.394 . S
C4671 C4672 1.383 . S
C4671 H4679 0.929 . S
C4672 C4671 1.383 . S
C4672 C4673 1.377 . S
C4673 H4657 0.930 . S
C4673 C4672 1.377 . S
C4673 C4674 1.379 . S
C4674 H4658 0.931 . S
C4674 C4668 1.383 . S
C4674 C4673 1.379 . S
H4675 C4669 0.959 . S
H4676 C4669 0.961 . S
H4677 C4669 0.960 . S
H4678 C4670 0.930 . S
H4679 C4671 0.929 . S
H4680 C4688 0.929 . S
H4681 C4690 0.930 . S
H4682 C4692 0.930 . S
H4683 C4695 0.929 . S
H4684 C4698 0.930 . S
H4685 C4700 0.960 . S
H4686 C4700 0.960 . S
H4687 C4700 0.960 . S
C4688 H4680 0.929 . S
C4688 C4689 1.377 . S
C4688 C4690 1.384 . S
C4689 C4688 1.377 . S
C4689 C4695 1.390 . S
C4690 H4681 0.930 . S
C4690 C4688 1.384 . S
C4690 C4691 1.372 . S
C4691 C4690 1.372 . S
C4691 C4692 1.400 . S
C4691 C4696 1.490 1_655 S
C4692 H4682 0.930 . S
C4692 C4691 1.400 . S
C4692 C4695 1.386 . S
H4693 C4709 0.930 . S
H4694 C4710 0.931 . S
C4695 H4683 0.929 . S
C4695 C4689 1.390 . S
C4695 C4692 1.386 . S
C4696 C4691 1.490 1_455 S
C4696 C4698 1.395 . S
C4696 C4699 1.403 . S
H4697 C4703 0.930 . S
C4698 H4684 0.930 . S
C4698 C4696 1.395 . S
C4698 C4701 1.403 . S
C4699 C4696 1.403 . S
C4699 C4700 1.524 . S
C4699 C4703 1.400 . S
C4700 H4685 0.960 . S
C4700 H4686 0.960 . S
C4700 H4687 0.960 . S
C4700 C4699 1.524 . S
C4701 C4698 1.403 . S
C4701 C4702 1.392 . S
C4701 C4705 1.495 . S
C4702 C4701 1.392 . S
C4702 C4703 1.385 . S
C4702 C4704 1.478 . S
C4703 H4697 0.930 . S
C4703 C4699 1.400 . S
C4703 C4702 1.385 . S
C4704 C4702 1.478 . S
C4704 C4706 1.381 . S
C4704 C4710 1.383 . S
C4705 C4701 1.495 . S
C4705 H4711 0.959 . S
C4705 H4712 0.961 . S
C4705 H4713 0.960 . S
C4706 C4704 1.381 . S
C4706 C4707 1.394 . S
C4706 H4714 0.930 . S
C4707 C4706 1.394 . S
C4707 C4708 1.383 . S
C4707 H4715 0.929 . S
C4708 C4707 1.383 . S
C4708 C4709 1.377 . S
C4709 H4693 0.930 . S
C4709 C4708 1.377 . S
C4709 C4710 1.379 . S
C4710 H4694 0.931 . S
C4710 C4704 1.383 . S
C4710 C4709 1.379 . S
H4711 C4705 0.959 . S
H4712 C4705 0.961 . S
H4713 C4705 0.960 . S
H4714 C4706 0.930 . S
H4715 C4707 0.929 . S
H4716 C4724 0.929 . S
H4717 C4726 0.930 . S
H4718 C4728 0.930 . S
H4719 C4731 0.929 . S
H4720 C4734 0.930 . S
H4721 C4736 0.960 . S
H4722 C4736 0.960 . S
H4723 C4736 0.960 . S
C4724 H4716 0.929 . S
C4724 C4725 1.377 . S
C4724 C4726 1.384 . S
C4725 C4724 1.377 . S
C4725 C4731 1.390 . S
C4726 H4717 0.930 . S
C4726 C4724 1.384 . S
C4726 C4727 1.372 . S
C4727 C4726 1.372 . S
C4727 C4728 1.400 . S
C4727 C4732 1.490 . S
C4728 H4718 0.930 . S
C4728 C4727 1.400 . S
C4728 C4731 1.386 . S
H4729 C4745 0.930 . S
H4730 C4746 0.905 1_545 S
C4731 H4719 0.929 . S
C4731 C4725 1.390 . S
C4731 C4728 1.386 . S
C4732 C4727 1.490 . S
C4732 C4734 1.395 . S
C4732 C4735 1.403 . S
H4733 C4739 0.930 . S
C4734 H4720 0.930 . S
C4734 C4732 1.395 . S
C4734 C4737 1.403 . S
C4735 C4732 1.403 . S
C4735 C4736 1.524 . S
C4735 C4739 1.400 . S
C4736 H4721 0.960 . S
C4736 H4722 0.960 . S
C4736 H4723 0.960 . S
C4736 C4735 1.524 . S
C4737 C4734 1.403 . S
C4737 C4738 1.392 . S
C4737 C4741 1.495 . S
C4738 C4737 1.392 . S
C4738 C4739 1.385 . S
C4738 C4740 1.478 . S
C4739 H4733 0.930 . S
C4739 C4735 1.400 . S
C4739 C4738 1.385 . S
C4740 C4738 1.478 . S
C4740 C4742 1.360 1_545 S
C4740 C4746 1.361 1_545 S
C4741 C4737 1.495 . S
C4741 H4747 0.959 . S
C4741 H4748 0.961 . S
C4741 H4749 0.960 . S
C4742 C4740 1.360 1_565 S
C4742 C4743 1.432 . S
C4742 H4750 0.914 1_565 S
C4743 C4742 1.432 . S
C4743 C4744 1.383 . S
C4743 H4751 0.929 . S
C4744 C4743 1.383 . S
C4744 C4745 1.377 . S
C4745 H4729 0.930 . S
C4745 C4744 1.377 . S
C4745 C4746 1.428 . S
C4746 H4730 0.905 1_565 S
C4746 C4740 1.361 1_565 S
C4746 C4745 1.428 . S
H4747 C4741 0.959 . S
H4748 C4741 0.961 . S
H4749 C4741 0.960 . S
H4750 C4742 0.914 1_545 S
H4751 C4743 0.929 . S
H4752 C4760 0.929 . S
H4753 C4762 0.930 . S
H4754 C4764 0.930 . S
H4755 C4767 0.929 . S
H4756 C4770 0.930 . S
H4757 C4772 0.960 . S
H4758 C4772 0.960 . S
H4759 C4772 0.960 . S
C4760 H4752 0.929 . S
C4760 C4761 1.377 . S
C4760 C4762 1.384 . S
C4761 C4760 1.377 . S
C4761 C4767 1.390 . S
C4762 H4753 0.930 . S
C4762 C4760 1.384 . S
C4762 C4763 1.372 . S
C4763 C4762 1.372 . S
C4763 C4764 1.400 . S
C4763 C4768 1.490 . S
C4764 H4754 0.930 . S
C4764 C4763 1.400 . S
C4764 C4767 1.386 . S
H4765 C4781 0.930 . S
H4766 C4782 0.931 . S
C4767 H4755 0.929 . S
C4767 C4761 1.390 . S
C4767 C4764 1.386 . S
C4768 C4763 1.490 . S
C4768 C4770 1.395 . S
C4768 C4771 1.403 . S
H4769 C4775 0.930 . S
C4770 H4756 0.930 . S
C4770 C4768 1.395 . S
C4770 C4773 1.403 1_565 S
C4771 C4768 1.403 . S
C4771 C4772 1.524 . S
C4771 C4775 1.400 1_565 S
C4772 H4757 0.960 . S
C4772 H4758 0.960 . S
C4772 H4759 0.960 . S
C4772 C4771 1.524 . S
C4773 C4770 1.403 1_545 S
C4773 C4774 1.392 . S
C4773 C4777 1.495 . S
C4774 C4773 1.392 . S
C4774 C4775 1.385 . S
C4774 C4776 1.478 . S
C4775 H4769 0.930 . S
C4775 C4771 1.400 1_545 S
C4775 C4774 1.385 . S
C4776 C4774 1.478 . S
C4776 C4778 1.381 . S
C4776 C4782 1.383 . S
C4777 C4773 1.495 . S
C4777 H4783 0.959 . S
C4777 H4784 0.961 . S
C4777 H4785 0.960 . S
C4778 C4776 1.381 . S
C4778 C4779 1.394 . S
C4778 H4786 0.930 . S
C4779 C4778 1.394 . S
C4779 C4780 1.383 . S
C4779 H4787 0.929 . S
C4780 C4779 1.383 . S
C4780 C4781 1.377 . S
C4781 H4765 0.930 . S
C4781 C4780 1.377 . S
C4781 C4782 1.379 . S
C4782 H4766 0.931 . S
C4782 C4776 1.383 . S
C4782 C4781 1.379 . S
H4783 C4777 0.959 . S
H4784 C4777 0.961 . S
H4785 C4777 0.960 . S
H4786 C4778 0.930 . S
H4787 C4779 0.929 . S
H4788 C4796 0.929 . S
H4789 C4798 0.930 . S
H4790 C4800 0.930 . S
H4791 C4803 0.929 . S
H4792 C4806 0.930 . S
H4793 C4808 0.960 . S
H4794 C4808 0.960 . S
H4795 C4808 0.960 . S
C4796 H4788 0.929 . S
C4796 C4797 1.377 . S
C4796 C4798 1.384 . S
C4797 C4796 1.377 . S
C4797 C4803 1.390 . S
C4798 H4789 0.930 . S
C4798 C4796 1.384 . S
C4798 C4799 1.372 . S
C4799 C4798 1.372 . S
C4799 C4800 1.400 . S
C4799 C4804 1.490 . S
C4800 H4790 0.930 . S
C4800 C4799 1.400 . S
C4800 C4803 1.386 . S
H4801 C4817 0.930 . S
H4802 C4818 0.931 . S
C4803 H4791 0.929 . S
C4803 C4797 1.390 . S
C4803 C4800 1.386 . S
C4804 C4799 1.490 . S
C4804 C4806 1.395 . S
C4804 C4807 1.403 . S
H4805 C4811 0.930 1_655 S
C4806 H4792 0.930 . S
C4806 C4804 1.395 . S
C4806 C4809 1.403 . S
C4807 C4804 1.403 . S
C4807 C4808 1.524 . S
C4807 C4811 1.400 . S
C4808 H4793 0.960 . S
C4808 H4794 0.960 . S
C4808 H4795 0.960 . S
C4808 C4807 1.524 . S
C4809 C4806 1.403 . S
C4809 C4810 1.415 . S
C4809 C4813 1.495 . S
C4810 C4809 1.415 . S
C4810 C4811 1.401 . S
C4810 C4812 1.440 1_455 S
C4811 H4805 0.930 1_455 S
C4811 C4807 1.400 . S
C4811 C4810 1.401 . S
C4812 C4810 1.440 1_655 S
C4812 C4814 1.381 . S
C4812 C4818 1.383 . S
C4813 C4809 1.495 . S
C4813 H4819 0.959 . S
C4813 H4820 0.930 1_455 S
C4813 H4821 0.985 . S
C4814 C4812 1.381 . S
C4814 C4815 1.394 . S
C4814 H4822 0.930 . S
C4815 C4814 1.394 . S
C4815 C4816 1.383 . S
C4815 H4823 0.929 . S
C4816 C4815 1.383 . S
C4816 C4817 1.377 . S
C4817 H4801 0.930 . S
C4817 C4816 1.377 . S
C4817 C4818 1.379 . S
C4818 H4802 0.931 . S
C4818 C4812 1.383 . S
C4818 C4817 1.379 . S
H4819 C4813 0.959 . S
H4820 C4813 0.930 1_655 S
H4821 C4813 0.985 . S
H4822 C4814 0.930 . S
H4823 C4815 0.929 . S
H4824 C4832 0.929 . S
H4825 C4834 0.930 . S
H4826 C4836 0.930 . S
H4827 C4839 0.929 . S
H4828 C4842 0.930 . S
H4829 C4844 0.960 . S
H4830 C4844 0.960 . S
H4831 C4844 0.960 . S
C4832 H4824 0.929 . S
C4832 C4833 1.377 . S
C4832 C4834 1.384 . S
C4833 C4832 1.377 . S
C4833 C4839 1.390 . S
C4834 H4825 0.930 . S
C4834 C4832 1.384 . S
C4834 C4835 1.372 . S
C4835 C4834 1.372 . S
C4835 C4836 1.400 . S
C4835 C4840 1.490 . S
C4836 H4826 0.930 . S
C4836 C4835 1.400 . S
C4836 C4839 1.386 . S
H4837 C4853 0.930 . S
H4838 C4854 0.931 . S
C4839 H4827 0.929 . S
C4839 C4833 1.390 . S
C4839 C4836 1.386 . S
C4840 C4835 1.490 . S
C4840 C4842 1.395 . S
C4840 C4843 1.403 . S
H4841 C4847 0.930 . S
C4842 H4828 0.930 . S
C4842 C4840 1.395 . S
C4842 C4845 1.403 . S
C4843 C4840 1.403 . S
C4843 C4844 1.524 . S
C4843 C4847 1.400 . S
C4844 H4829 0.960 . S
C4844 H4830 0.960 . S
C4844 H4831 0.960 . S
C4844 C4843 1.524 . S
C4845 C4842 1.403 . S
C4845 C4846 1.392 . S
C4845 C4849 1.495 . S
C4846 C4845 1.392 . S
C4846 C4847 1.385 . S
C4846 C4848 1.478 . S
C4847 H4841 0.930 . S
C4847 C4843 1.400 . S
C4847 C4846 1.385 . S
C4848 C4846 1.478 . S
C4848 C4850 1.381 . S
C4848 C4854 1.383 . S
C4849 C4845 1.495 . S
C4849 H4855 0.959 . S
C4849 H4856 0.961 . S
C4849 H4857 0.960 . S
C4850 C4848 1.381 . S
C4850 C4851 1.394 . S
C4850 H4858 0.930 . S
C4851 C4850 1.394 . S
C4851 C4852 1.383 . S
C4851 H4859 0.929 . S
C4852 C4851 1.383 . S
C4852 C4853 1.377 . S
C4853 H4837 0.930 . S
C4853 C4852 1.377 . S
C4853 C4854 1.379 . S
C4854 H4838 0.931 . S
C4854 C4848 1.383 . S
C4854 C4853 1.379 . S
H4855 C4849 0.959 . S
H4856 C4849 0.961 . S
H4857 C4849 0.960 . S
H4858 C4850 0.930 . S
H4859 C4851 0.929 . S
H4860 C4868 0.929 . S
H4861 C4870 0.930 . S
H4862 C4872 0.930 . S
H4863 C4875 0.929 . S
H4864 C4878 0.930 . S
H4865 C4880 0.960 . S
H4866 C4880 0.960 . S
H4867 C4880 0.960 . S
C4868 H4860 0.929 . S
C4868 C4869 1.377 . S
C4868 C4870 1.384 . S
C4869 C4868 1.377 . S
C4869 C4875 1.390 . S
C4870 H4861 0.930 . S
C4870 C4868 1.384 . S
C4870 C4871 1.372 . S
C4871 C4870 1.372 . S
C4871 C4872 1.400 . S
C4871 C4876 1.490 . S
C4872 H4862 0.930 . S
C4872 C4871 1.400 . S
C4872 C4875 1.386 . S
H4873 C4889 0.930 . S
H4874 C4890 0.931 . S
C4875 H4863 0.929 . S
C4875 C4869 1.390 . S
C4875 C4872 1.386 . S
C4876 C4871 1.490 . S
C4876 C4878 1.395 . S
C4876 C4879 1.403 . S
H4877 C4883 0.930 . S
C4878 H4864 0.930 . S
C4878 C4876 1.395 . S
C4878 C4881 1.403 . S
C4879 C4876 1.403 . S
C4879 C4880 1.524 . S
C4879 C4883 1.400 . S
C4880 H4865 0.960 . S
C4880 H4866 0.960 . S
C4880 H4867 0.960 . S
C4880 C4879 1.524 . S
C4881 C4878 1.403 . S
C4881 C4882 1.392 . S
C4881 C4885 1.495 . S
C4882 C4881 1.392 . S
C4882 C4883 1.385 . S
C4882 C4884 1.478 . S
C4883 H4877 0.930 . S
C4883 C4879 1.400 . S
C4883 C4882 1.385 . S
C4884 C4882 1.478 . S
C4884 C4886 1.381 . S
C4884 C4890 1.383 . S
C4885 C4881 1.495 . S
C4885 H4891 0.959 . S
C4885 H4892 0.961 . S
C4885 H4893 0.960 . S
C4886 C4884 1.381 . S
C4886 C4887 1.394 . S
C4886 H4894 0.930 . S
C4887 C4886 1.394 . S
C4887 C4888 1.383 1_455 S
C4887 H4895 0.897 1_455 S
C4888 C4887 1.383 1_655 S
C4888 C4889 1.377 1_655 S
C4889 H4873 0.930 . S
C4889 C4888 1.377 1_455 S
C4889 C4890 1.379 . S
C4890 H4874 0.931 . S
C4890 C4884 1.383 . S
C4890 C4889 1.379 . S
H4891 C4885 0.959 . S
H4892 C4885 0.961 . S
H4893 C4885 0.960 . S
H4894 C4886 0.930 . S
H4895 C4887 0.897 1_655 S
H4896 C4904 0.929 . S
H4897 C4906 0.930 . S
H4898 C4908 0.930 . S
H4899 C4911 0.929 . S
H4900 C4914 0.930 . S
H4901 C4916 0.960 . S
H4902 C4916 0.960 . S
H4903 C4916 0.960 . S
C4904 H4896 0.929 . S
C4904 C4905 1.377 . S
C4904 C4906 1.384 . S
C4905 C4904 1.377 . S
C4905 C4911 1.390 . S
C4906 H4897 0.930 . S
C4906 C4904 1.384 . S
C4906 C4907 1.372 . S
C4907 C4906 1.372 . S
C4907 C4908 1.400 . S
C4907 C4912 1.490 . S
C4908 H4898 0.930 . S
C4908 C4907 1.400 . S
C4908 C4911 1.386 . S
H4909 C4925 0.930 . S
H4910 C4926 0.931 . S
C4911 H4899 0.929 . S
C4911 C4905 1.390 . S
C4911 C4908 1.386 . S
C4912 C4907 1.490 . S
C4912 C4914 1.395 . S
C4912 C4915 1.403 . S
H4913 C4919 0.930 . S
C4914 H4900 0.930 . S
C4914 C4912 1.395 . S
C4914 C4917 1.403 . S
C4915 C4912 1.403 . S
C4915 C4916 1.524 . S
C4915 C4919 1.400 . S
C4916 H4901 0.960 . S
C4916 H4902 0.960 . S
C4916 H4903 0.960 . S
C4916 C4915 1.524 . S
C4917 C4914 1.403 . S
C4917 C4918 1.392 . S
C4917 C4921 1.495 . S
C4918 C4917 1.392 . S
C4918 C4919 1.385 . S
C4918 C4920 1.478 . S
C4919 H4913 0.930 . S
C4919 C4915 1.400 . S
C4919 C4918 1.385 . S
C4920 C4918 1.478 . S
C4920 C4922 1.381 . S
C4920 C4926 1.383 . S
C4921 C4917 1.495 . S
C4921 H4927 0.959 . S
C4921 H4928 0.961 . S
C4921 H4929 0.960 . S
C4922 C4920 1.381 . S
C4922 C4923 1.394 . S
C4922 H4930 0.930 . S
C4923 C4922 1.394 . S
C4923 C4924 1.383 . S
C4923 H4931 0.929 . S
C4924 C4923 1.383 . S
C4924 C4925 1.377 . S
C4925 H4909 0.930 . S
C4925 C4924 1.377 . S
C4925 C4926 1.379 . S
C4926 H4910 0.931 . S
C4926 C4920 1.383 . S
C4926 C4925 1.379 . S
H4927 C4921 0.959 . S
H4928 C4921 0.961 . S
H4929 C4921 0.960 . S
H4930 C4922 0.930 . S
H4931 C4923 0.929 . S
H4932 C4940 0.929 . S
H4933 C4942 0.930 . S
H4934 C4944 0.930 1_565 S
H4935 C4947 0.968 . S
H4936 C4950 0.930 . S
H4937 C4952 0.955 1_565 S
H4938 C4952 0.960 . S
H4939 C4952 0.960 1_565 S
C4940 H4932 0.929 . S
C4940 C4941 1.377 . S
C4940 C4942 1.384 . S
C4941 C4940 1.377 . S
C4941 C4947 1.359 1_545 S
C4942 H4933 0.930 . S
C4942 C4940 1.384 . S
C4942 C4943 1.372 . S
C4943 C4942 1.372 . S
C4943 C4944 1.400 . S
C4943 C4948 1.490 . S
C4944 H4934 0.930 1_545 S
C4944 C4943 1.400 . S
C4944 C4947 1.378 1_545 S
H4945 C4961 0.930 . S
H4946 C4962 0.931 . S
C4947 H4935 0.968 . S
C4947 C4941 1.359 1_565 S
C4947 C4944 1.378 1_565 S
C4948 C4943 1.490 . S
C4948 C4950 1.395 . S
C4948 C4951 1.403 . S
H4949 C4955 0.930 . S
C4950 H4936 0.930 . S
C4950 C4948 1.395 . S
C4950 C4953 1.403 . S
C4951 C4948 1.403 . S
C4951 C4952 1.524 . S
C4951 C4955 1.400 . S
C4952 H4937 0.955 1_545 S
C4952 H4938 0.960 . S
C4952 H4939 0.960 1_545 S
C4952 C4951 1.524 . S
C4953 C4950 1.403 . S
C4953 C4954 1.392 . S
C4953 C4957 1.495 . S
C4954 C4953 1.392 . S
C4954 C4955 1.385 . S
C4954 C4956 1.478 . S
C4955 H4949 0.930 . S
C4955 C4951 1.400 . S
C4955 C4954 1.385 . S
C4956 C4954 1.478 . S
C4956 C4958 1.381 . S
C4956 C4962 1.383 . S
C4957 C4953 1.495 . S
C4957 H4963 0.959 . S
C4957 H4964 0.961 . S
C4957 H4965 0.960 . S
C4958 C4956 1.381 . S
C4958 C4959 1.394 . S
C4958 H4966 0.930 . S
C4959 C4958 1.394 . S
C4959 C4960 1.383 . S
C4959 H4967 0.929 . S
C4960 C4959 1.383 . S
C4960 C4961 1.377 . S
C4961 H4945 0.930 . S
C4961 C4960 1.377 . S
C4961 C4962 1.379 . S
C4962 H4946 0.931 . S
C4962 C4956 1.383 . S
C4962 C4961 1.379 . S
H4963 C4957 0.959 . S
H4964 C4957 0.961 . S
H4965 C4957 0.960 . S
H4966 C4958 0.930 . S
H4967 C4959 0.929 . S
H4968 C4976 0.929 . S
H4969 C4978 0.930 . S
H4970 C4980 0.930 . S
H4971 C4983 0.929 . S
H4972 C4986 0.930 1_655 S
H4973 C4988 0.960 . S
H4974 C4988 0.960 . S
H4975 C4988 0.960 . S
C4976 H4968 0.929 . S
C4976 C4977 1.377 . S
C4976 C4978 1.384 . S
C4977 C4976 1.377 . S
C4977 C4983 1.390 . S
C4978 H4969 0.930 . S
C4978 C4976 1.384 . S
C4978 C4979 1.372 . S
C4979 C4978 1.372 . S
C4979 C4980 1.400 . S
C4979 C4984 1.490 . S
C4980 H4970 0.930 . S
C4980 C4979 1.400 . S
C4980 C4983 1.386 . S
H4981 C4997 0.930 . S
H4982 C4998 0.931 . S
C4983 H4971 0.929 . S
C4983 C4977 1.390 . S
C4983 C4980 1.386 . S
C4984 C4979 1.490 . S
C4984 C4986 1.395 . S
C4984 C4987 1.403 . S
H4985 C4991 0.930 . S
C4986 H4972 0.930 1_455 S
C4986 C4984 1.395 . S
C4986 C4989 1.403 . S
C4987 C4984 1.403 . S
C4987 C4988 1.524 . S
C4987 C4991 1.400 . S
C4988 H4973 0.960 . S
C4988 H4974 0.960 . S
C4988 H4975 0.960 . S
C4988 C4987 1.524 . S
C4989 C4986 1.403 . S
C4989 C4990 1.392 . S
C4989 C4993 1.495 1_455 S
C4990 C4989 1.392 . S
C4990 C4991 1.385 . S
C4990 C4992 1.478 . S
C4991 H4985 0.930 . S
C4991 C4987 1.400 . S
C4991 C4990 1.385 . S
C4992 C4990 1.478 . S
C4992 C4994 1.381 . S
C4992 C4998 1.383 . S
C4993 C4989 1.495 1_655 S
C4993 H4999 0.959 . S
C4993 H5000 0.961 . S
C4993 H5001 0.960 . S
C4994 C4992 1.381 . S
C4994 C4995 1.394 . S
C4994 H5002 0.930 . S
C4995 C4994 1.394 . S
C4995 C4996 1.383 . S
C4995 H5003 0.929 . S
C4996 C4995 1.383 . S
C4996 C4997 1.377 . S
C4997 H4981 0.930 . S
C4997 C4996 1.377 . S
C4997 C4998 1.379 . S
C4998 H4982 0.931 . S
C4998 C4992 1.383 . S
C4998 C4997 1.379 . S
H4999 C4993 0.959 . S
H5000 C4993 0.961 . S
H5001 C4993 0.960 . S
H5002 C4994 0.930 . S
H5003 C4995 0.929 . S
H5004 C5012 0.929 . S
H5005 C5014 0.930 . S
H5006 C5016 0.930 . S
H5007 C5019 0.929 . S
H5008 C5022 0.930 . S
H5009 C5024 0.960 . S
H5010 C5024 0.960 . S
H5011 C5024 0.960 . S
C5012 H5004 0.929 . S
C5012 C5013 1.377 . S
C5012 C5014 1.384 . S
C5013 C5012 1.377 . S
C5013 C5019 1.390 . S
C5014 H5005 0.930 . S
C5014 C5012 1.384 . S
C5014 C5015 1.372 . S
C5015 C5014 1.372 . S
C5015 C5016 1.400 . S
C5015 C5020 1.490 . S
C5016 H5006 0.930 . S
C5016 C5015 1.400 . S
C5016 C5019 1.386 . S
H5017 C5033 0.930 . S
H5018 C5034 0.931 . S
C5019 H5007 0.929 . S
C5019 C5013 1.390 . S
C5019 C5016 1.386 . S
C5020 C5015 1.490 . S
C5020 C5022 1.395 . S
C5020 C5023 1.403 . S
H5021 C5027 0.930 . S
C5022 H5008 0.930 . S
C5022 C5020 1.395 . S
C5022 C5025 1.403 . S
C5023 C5020 1.403 . S
C5023 C5024 1.524 . S
C5023 C5027 1.400 . S
C5024 H5009 0.960 . S
C5024 H5010 0.960 . S
C5024 H5011 0.960 . S
C5024 C5023 1.524 . S
C5025 C5022 1.403 . S
C5025 C5026 1.392 . S
C5025 C5029 1.495 . S
C5026 C5025 1.392 . S
C5026 C5027 1.385 . S
C5026 C5028 1.478 . S
C5027 H5021 0.930 . S
C5027 C5023 1.400 . S
C5027 C5026 1.385 . S
C5028 C5026 1.478 . S
C5028 C5030 1.381 . S
C5028 C5034 1.383 . S
C5029 C5025 1.495 . S
C5029 H5035 0.959 . S
C5029 H5036 0.961 . S
C5029 H5037 0.960 . S
C5030 C5028 1.381 . S
C5030 C5031 1.394 . S
C5030 H5038 0.930 . S
C5031 C5030 1.394 . S
C5031 C5032 1.383 . S
C5031 H5039 0.929 . S
C5032 C5031 1.383 . S
C5032 C5033 1.377 . S
C5033 H5017 0.930 . S
C5033 C5032 1.377 . S
C5033 C5034 1.379 . S
C5034 H5018 0.931 . S
C5034 C5028 1.383 . S
C5034 C5033 1.379 . S
H5035 C5029 0.959 . S
H5036 C5029 0.961 . S
H5037 C5029 0.960 . S
H5038 C5030 0.930 . S
H5039 C5031 0.929 . S
H5040 C5048 0.929 . S
H5041 C5050 0.930 . S
H5042 C5052 0.930 . S
H5043 C5055 0.929 . S
H5044 C5058 0.930 . S
H5045 C5060 0.960 . S
H5046 C5060 0.960 . S
H5047 C5060 0.960 . S
C5048 H5040 0.929 . S
C5048 C5049 1.377 . S
C5048 C5050 1.384 . S
C5049 C5048 1.377 . S
C5049 C5055 1.390 . S
C5050 H5041 0.930 . S
C5050 C5048 1.384 . S
C5050 C5051 1.372 . S
C5051 C5050 1.372 . S
C5051 C5052 1.400 . S
C5051 C5056 1.490 . S
C5052 H5042 0.930 . S
C5052 C5051 1.400 . S
C5052 C5055 1.386 . S
H5053 C5069 0.930 . S
H5054 C5070 0.931 . S
C5055 H5043 0.929 . S
C5055 C5049 1.390 . S
C5055 C5052 1.386 . S
C5056 C5051 1.490 . S
C5056 C5058 1.395 . S
C5056 C5059 1.403 . S
H5057 C5063 0.930 . S
C5058 H5044 0.930 . S
C5058 C5056 1.395 . S
C5058 C5061 1.403 . S
C5059 C5056 1.403 . S
C5059 C5060 1.524 . S
C5059 C5063 1.400 . S
C5060 H5045 0.960 . S
C5060 H5046 0.960 . S
C5060 H5047 0.960 . S
C5060 C5059 1.524 . S
C5061 C5058 1.403 . S
C5061 C5062 1.392 . S
C5061 C5065 1.495 . S
C5062 C5061 1.392 . S
C5062 C5063 1.385 . S
C5062 C5064 1.478 . S
C5063 H5057 0.930 . S
C5063 C5059 1.400 . S
C5063 C5062 1.385 . S
C5064 C5062 1.478 . S
C5064 C5066 1.381 . S
C5064 C5070 1.383 . S
C5065 C5061 1.495 . S
C5065 H5071 0.959 . S
C5065 H5072 0.961 . S
C5065 H5073 0.960 . S
C5066 C5064 1.381 . S
C5066 C5067 1.394 . S
C5066 H5074 0.930 . S
C5067 C5066 1.394 . S
C5067 C5068 1.383 . S
C5067 H5075 0.929 . S
C5068 C5067 1.383 . S
C5068 C5069 1.377 . S
C5069 H5053 0.930 . S
C5069 C5068 1.377 . S
C5069 C5070 1.379 . S
C5070 H5054 0.931 . S
C5070 C5064 1.383 . S
C5070 C5069 1.379 . S
H5071 C5065 0.959 . S
H5072 C5065 0.961 . S
H5073 C5065 0.960 . S
H5074 C5066 0.930 . S
H5075 C5067 0.929 . S
H5076 C5084 0.929 . S
H5077 C5086 0.930 . S
H5078 C5088 0.930 . S
H5079 C5091 0.929 . S
H5080 C5094 0.930 . S
H5081 C5096 0.960 . S
H5082 C5096 0.960 . S
H5083 C5096 0.960 . S
C5084 H5076 0.929 . S
C5084 C5085 1.377 . S
C5084 C5086 1.384 . S
C5085 C5084 1.377 . S
C5085 C5091 1.390 . S
C5086 H5077 0.930 . S
C5086 C5084 1.384 . S
C5086 C5087 1.372 . S
C5087 C5086 1.372 . S
C5087 C5088 1.400 . S
C5087 C5092 1.490 . S
C5088 H5078 0.930 . S
C5088 C5087 1.400 . S
C5088 C5091 1.386 . S
H5089 C5105 0.930 . S
H5090 C5106 0.931 . S
C5091 H5079 0.929 . S
C5091 C5085 1.390 . S
C5091 C5088 1.386 . S
C5092 C5087 1.490 . S
C5092 C5094 1.395 . S
C5092 C5095 1.403 . S
H5093 C5099 0.930 . S
C5094 H5080 0.930 . S
C5094 C5092 1.395 . S
C5094 C5097 1.403 . S
C5095 C5092 1.403 . S
C5095 C5096 1.524 . S
C5095 C5099 1.400 . S
C5096 H5081 0.960 . S
C5096 H5082 0.960 . S
C5096 H5083 0.960 . S
C5096 C5095 1.524 . S
C5097 C5094 1.403 . S
C5097 C5098 1.392 . S
C5097 C5101 1.495 . S
C5098 C5097 1.392 . S
C5098 C5099 1.385 . S
C5098 C5100 1.478 . S
C5099 H5093 0.930 . S
C5099 C5095 1.400 . S
C5099 C5098 1.385 . S
C5100 C5098 1.478 . S
C5100 C5102 1.381 . S
C5100 C5106 1.383 . S
C5101 C5097 1.495 . S
C5101 H5107 0.959 . S
C5101 H5108 0.961 . S
C5101 H5109 0.960 . S
C5102 C5100 1.381 . S
C5102 C5103 1.394 . S
C5102 H5110 0.930 . S
C5103 C5102 1.394 . S
C5103 C5104 1.383 . S
C5103 H5111 0.929 . S
C5104 C5103 1.383 . S
C5104 C5105 1.377 . S
C5105 H5089 0.930 . S
C5105 C5104 1.377 . S
C5105 C5106 1.379 . S
C5106 H5090 0.931 . S
C5106 C5100 1.383 . S
C5106 C5105 1.379 . S
H5107 C5101 0.959 . S
H5108 C5101 0.961 . S
H5109 C5101 0.960 . S
H5110 C5102 0.930 . S
H5111 C5103 0.929 . S
H5112 C5120 0.929 . S
H5113 C5122 0.930 . S
H5114 C5124 0.930 . S
H5115 C5127 0.929 . S
H5116 C5130 0.930 . S
H5117 C5132 0.960 . S
H5118 C5132 0.960 . S
H5119 C5132 0.960 . S
C5120 H5112 0.929 . S
C5120 C5121 1.377 . S
C5120 C5122 1.384 . S
C5121 C5120 1.377 . S
C5121 C5127 1.390 . S
C5122 H5113 0.930 . S
C5122 C5120 1.384 . S
C5122 C5123 1.372 . S
C5123 C5122 1.372 . S
C5123 C5124 1.400 . S
C5123 C5128 1.490 . S
C5124 H5114 0.930 . S
C5124 C5123 1.400 . S
C5124 C5127 1.386 . S
H5125 C5141 0.930 . S
H5126 C5142 0.931 . S
C5127 H5115 0.929 . S
C5127 C5121 1.390 . S
C5127 C5124 1.386 . S
C5128 C5123 1.490 . S
C5128 C5130 1.395 . S
C5128 C5131 1.403 . S
H5129 C5135 0.930 . S
C5130 H5116 0.930 . S
C5130 C5128 1.395 . S
C5130 C5133 1.403 . S
C5131 C5128 1.403 . S
C5131 C5132 1.524 . S
C5131 C5135 1.400 . S
C5132 H5117 0.960 . S
C5132 H5118 0.960 . S
C5132 H5119 0.960 . S
C5132 C5131 1.524 . S
C5133 C5130 1.403 . S
C5133 C5134 1.392 . S
C5133 C5137 1.495 . S
C5134 C5133 1.392 . S
C5134 C5135 1.385 . S
C5134 C5136 1.478 . S
C5135 H5129 0.930 . S
C5135 C5131 1.400 . S
C5135 C5134 1.385 . S
C5136 C5134 1.478 . S
C5136 C5138 1.381 . S
C5136 C5142 1.383 . S
C5137 C5133 1.495 . S
C5137 H5143 0.959 . S
C5137 H5144 0.961 . S
C5137 H5145 0.960 . S
C5138 C5136 1.381 . S
C5138 C5139 1.394 . S
C5138 H5146 0.930 . S
C5139 C5138 1.394 . S
C5139 C5140 1.383 . S
C5139 H5147 0.929 . S
C5140 C5139 1.383 . S
C5140 C5141 1.377 . S
C5141 H5125 0.930 . S
C5141 C5140 1.377 . S
C5141 C5142 1.379 . S
C5142 H5126 0.931 . S
C5142 C5136 1.383 . S
C5142 C5141 1.379 . S
H5143 C5137 0.959 . S
H5144 C5137 0.961 . S
H5145 C5137 0.960 . S
H5146 C5138 0.930 . S
H5147 C5139 0.929 . S
H5148 C5156 0.929 . S
H5149 C5158 0.930 . S
H5150 C5160 0.930 . S
H5151 C5163 0.929 . S
H5152 C5166 0.930 1_565 S
H5153 C5168 0.960 . S
H5154 C5168 0.960 . S
H5155 C5168 0.960 . S
C5156 H5148 0.929 . S
C5156 C5157 1.377 . S
C5156 C5158 1.384 . S
C5157 C5156 1.377 . S
C5157 C5163 1.390 . S
C5158 H5149 0.930 . S
C5158 C5156 1.384 . S
C5158 C5159 1.372 . S
C5159 C5158 1.372 . S
C5159 C5160 1.400 . S
C5159 C5164 1.490 . S
C5160 H5150 0.930 . S
C5160 C5159 1.400 . S
C5160 C5163 1.386 . S
H5161 C5177 0.930 . S
H5162 C5178 0.931 . S
C5163 H5151 0.929 . S
C5163 C5157 1.390 . S
C5163 C5160 1.386 . S
C5164 C5159 1.490 . S
C5164 C5166 1.395 . S
C5164 C5167 1.403 . S
H5165 C5171 0.930 . S
C5166 H5152 0.930 1_545 S
C5166 C5164 1.395 . S
C5166 C5169 1.403 . S
C5167 C5164 1.403 . S
C5167 C5168 1.524 . S
C5167 C5171 1.400 . S
C5168 H5153 0.960 . S
C5168 H5154 0.960 . S
C5168 H5155 0.960 . S
C5168 C5167 1.524 . S
C5169 C5166 1.403 . S
C5169 C5170 1.392 . S
C5169 C5173 1.495 1_545 S
C5170 C5169 1.392 . S
C5170 C5171 1.385 . S
C5170 C5172 1.478 . S
C5171 H5165 0.930 . S
C5171 C5167 1.400 . S
C5171 C5170 1.385 . S
C5172 C5170 1.478 . S
C5172 C5174 1.381 . S
C5172 C5178 1.383 . S
C5173 C5169 1.495 1_565 S
C5173 H5179 0.959 . S
C5173 H5180 0.961 . S
C5173 H5181 0.960 . S
C5174 C5172 1.381 . S
C5174 C5175 1.394 . S
C5174 H5182 0.930 . S
C5175 C5174 1.394 . S
C5175 C5176 1.383 . S
C5175 H5183 0.929 . S
C5176 C5175 1.383 . S
C5176 C5177 1.377 . S
C5177 H5161 0.930 . S
C5177 C5176 1.377 . S
C5177 C5178 1.379 . S
C5178 H5162 0.931 . S
C5178 C5172 1.383 . S
C5178 C5177 1.379 . S
H5179 C5173 0.959 . S
H5180 C5173 0.961 . S
H5181 C5173 0.960 . S
H5182 C5174 0.930 . S
H5183 C5175 0.929 . S
H5184 C5192 0.929 . S
H5185 C5194 0.930 . S
H5186 C5196 0.930 . S
H5187 C5199 0.929 . S
H5188 C5202 0.930 . S
H5189 C5204 0.960 . S
H5190 C5204 0.960 . S
H5191 C5204 0.960 . S
C5192 H5184 0.929 . S
C5192 C5193 1.377 . S
C5192 C5194 1.384 . S
C5193 C5192 1.377 . S
C5193 C5199 1.390 . S
C5194 H5185 0.930 . S
C5194 C5192 1.384 . S
C5194 C5195 1.372 . S
C5195 C5194 1.372 . S
C5195 C5196 1.400 . S
C5195 C5200 1.490 . S
C5196 H5186 0.930 . S
C5196 C5195 1.400 . S
C5196 C5199 1.386 . S
H5197 C5213 0.930 . S
H5198 C5214 0.931 . S
C5199 H5187 0.929 . S
C5199 C5193 1.390 . S
C5199 C5196 1.386 . S
C5200 C5195 1.490 . S
C5200 C5202 1.395 . S
C5200 C5203 1.403 . S
H5201 C5207 0.930 . S
C5202 H5188 0.930 . S
C5202 C5200 1.395 . S
C5202 C5205 1.403 . S
C5203 C5200 1.403 . S
C5203 C5204 1.524 . S
C5203 C5207 1.400 . S
C5204 H5189 0.960 . S
C5204 H5190 0.960 . S
C5204 H5191 0.960 . S
C5204 C5203 1.524 . S
C5205 C5202 1.403 . S
C5205 C5206 1.392 . S
C5205 C5209 1.495 . S
C5206 C5205 1.392 . S
C5206 C5207 1.385 . S
C5206 C5208 1.478 . S
C5207 H5201 0.930 . S
C5207 C5203 1.400 . S
C5207 C5206 1.385 . S
C5208 C5206 1.478 . S
C5208 C5210 1.381 . S
C5208 C5214 1.383 . S
C5209 C5205 1.495 . S
C5209 H5215 0.959 . S
C5209 H5216 0.961 . S
C5209 H5217 0.960 . S
C5210 C5208 1.381 . S
C5210 C5211 1.394 . S
C5210 H5218 0.930 . S
C5211 C5210 1.394 . S
C5211 C5212 1.383 . S
C5211 H5219 0.929 . S
C5212 C5211 1.383 . S
C5212 C5213 1.377 . S
C5213 H5197 0.930 . S
C5213 C5212 1.377 . S
C5213 C5214 1.379 . S
C5214 H5198 0.931 . S
C5214 C5208 1.383 . S
C5214 C5213 1.379 . S
H5215 C5209 0.959 . S
H5216 C5209 0.961 . S
H5217 C5209 0.960 . S
H5218 C5210 0.930 . S
H5219 C5211 0.929 . S
H5220 C5228 0.929 . S
H5221 C5230 0.930 . S
H5222 C5232 0.930 . S
H5223 C5235 0.929 . S
H5224 C5238 0.930 . S
H5225 C5240 0.960 . S
H5226 C5240 0.960 . S
H5227 C5240 0.960 . S
C5228 H5220 0.929 . S
C5228 C5229 1.377 . S
C5228 C5230 1.384 . S
C5229 C5228 1.377 . S
C5229 C5235 1.390 . S
C5230 H5221 0.930 . S
C5230 C5228 1.384 . S
C5230 C5231 1.372 . S
C5231 C5230 1.372 . S
C5231 C5232 1.400 . S
C5231 C5236 1.490 . S
C5232 H5222 0.930 . S
C5232 C5231 1.400 . S
C5232 C5235 1.386 . S
H5233 C5249 0.930 . S
H5234 C5250 0.931 . S
C5235 H5223 0.929 . S
C5235 C5229 1.390 . S
C5235 C5232 1.386 . S
C5236 C5231 1.490 . S
C5236 C5238 1.395 . S
C5236 C5239 1.403 . S
H5237 C5243 0.930 . S
C5238 H5224 0.930 . S
C5238 C5236 1.395 . S
C5238 C5241 1.403 . S
C5239 C5236 1.403 . S
C5239 C5240 1.524 . S
C5239 C5243 1.400 . S
C5240 H5225 0.960 . S
C5240 H5226 0.960 . S
C5240 H5227 0.960 . S
C5240 C5239 1.524 . S
C5241 C5238 1.403 . S
C5241 C5242 1.392 . S
C5241 C5245 1.495 . S
C5242 C5241 1.392 . S
C5242 C5243 1.385 . S
C5242 C5244 1.478 . S
C5243 H5237 0.930 . S
C5243 C5239 1.400 . S
C5243 C5242 1.385 . S
C5244 C5242 1.478 . S
C5244 C5246 1.381 . S
C5244 C5250 1.383 . S
C5245 C5241 1.495 . S
C5245 H5251 0.959 . S
C5245 H5252 0.961 . S
C5245 H5253 0.960 . S
C5246 C5244 1.381 . S
C5246 C5247 1.394 . S
C5246 H5254 0.930 . S
C5247 C5246 1.394 . S
C5247 C5248 1.383 . S
C5247 H5255 0.929 . S
C5248 C5247 1.383 . S
C5248 C5249 1.377 . S
C5249 H5233 0.930 . S
C5249 C5248 1.377 . S
C5249 C5250 1.379 . S
C5250 H5234 0.931 . S
C5250 C5244 1.383 . S
C5250 C5249 1.379 . S
H5251 C5245 0.959 . S
H5252 C5245 0.961 . S
H5253 C5245 0.960 . S
H5254 C5246 0.930 . S
H5255 C5247 0.929 . S
H5256 C5264 0.929 . S
H5257 C5266 0.930 . S
H5258 C5268 0.930 . S
H5259 C5271 0.929 . S
H5260 C5274 0.930 . S
H5261 C5276 0.960 . S
H5262 C5276 0.960 . S
H5263 C5276 0.960 . S
C5264 H5256 0.929 . S
C5264 C5265 1.377 . S
C5264 C5266 1.384 . S
C5265 C5264 1.377 . S
C5265 C5271 1.390 . S
C5266 H5257 0.930 . S
C5266 C5264 1.384 . S
C5266 C5267 1.372 . S
C5267 C5266 1.372 . S
C5267 C5268 1.400 . S
C5267 C5272 1.490 . S
C5268 H5258 0.930 . S
C5268 C5267 1.400 . S
C5268 C5271 1.386 . S
H5269 C5285 0.930 . S
H5270 C5286 0.931 . S
C5271 H5259 0.929 . S
C5271 C5265 1.390 . S
C5271 C5268 1.386 . S
C5272 C5267 1.490 . S
C5272 C5274 1.395 . S
C5272 C5275 1.403 . S
H5273 C5279 0.930 . S
C5274 H5260 0.930 . S
C5274 C5272 1.395 . S
C5274 C5277 1.403 . S
C5275 C5272 1.403 . S
C5275 C5276 1.524 . S
C5275 C5279 1.400 . S
C5276 H5261 0.960 . S
C5276 H5262 0.960 . S
C5276 H5263 0.960 . S
C5276 C5275 1.524 . S
C5277 C5274 1.403 . S
C5277 C5278 1.392 . S
C5277 C5281 1.495 . S
C5278 C5277 1.392 . S
C5278 C5279 1.385 . S
C5278 C5280 1.478 . S
C5279 H5273 0.930 . S
C5279 C5275 1.400 . S
C5279 C5278 1.385 . S
C5280 C5278 1.478 . S
C5280 C5282 1.381 . S
C5280 C5286 1.383 . S
C5281 C5277 1.495 . S
C5281 H5287 0.959 . S
C5281 H5288 0.961 . S
C5281 H5289 0.960 . S
C5282 C5280 1.381 . S
C5282 C5283 1.394 . S
C5282 H5290 0.930 . S
C5283 C5282 1.394 . S
C5283 C5284 1.383 . S
C5283 H5291 0.929 . S
C5284 C5283 1.383 . S
C5284 C5285 1.377 . S
C5285 H5269 0.930 . S
C5285 C5284 1.377 . S
C5285 C5286 1.379 . S
C5286 H5270 0.931 . S
C5286 C5280 1.383 . S
C5286 C5285 1.379 . S
H5287 C5281 0.959 . S
H5288 C5281 0.961 . S
H5289 C5281 0.960 . S
H5290 C5282 0.930 . S
H5291 C5283 0.929 . S
H5292 C5300 0.929 . S
H5293 C5302 0.930 . S
H5294 C5304 0.930 . S
H5295 C5307 0.929 . S
H5296 C5310 0.930 . S
H5297 C5312 0.960 . S
H5298 C5312 0.960 . S
H5299 C5312 0.960 1_554 S
C5300 H5292 0.929 . S
C5300 C5301 1.377 . S
C5300 C5302 1.384 . S
C5301 C5300 1.377 . S
C5301 C5307 1.390 . S
C5302 H5293 0.930 . S
C5302 C5300 1.384 . S
C5302 C5303 1.372 . S
C5303 C5302 1.372 . S
C5303 C5304 1.400 . S
C5303 C5308 1.490 . S
C5304 H5294 0.930 . S
C5304 C5303 1.400 . S
C5304 C5307 1.386 . S
H5305 C5321 0.930 . S
H5306 C5322 0.931 . S
C5307 H5295 0.929 . S
C5307 C5301 1.390 . S
C5307 C5304 1.386 . S
C5308 C5303 1.490 . S
C5308 C5310 1.395 . S
C5308 C5311 1.403 . S
H5309 C5315 0.910 1_556 S
C5310 H5296 0.930 . S
C5310 C5308 1.395 . S
C5310 C5313 1.403 . S
C5311 C5308 1.403 . S
C5311 C5312 1.524 1_554 S
C5311 C5315 1.400 . S
C5312 H5297 0.960 . S
C5312 H5298 0.960 . S
C5312 H5299 0.960 1_556 S
C5312 C5311 1.524 1_556 S
C5313 C5310 1.403 . S
C5313 C5314 1.392 . S
C5313 C5317 1.495 . S
C5314 C5313 1.392 . S
C5314 C5315 1.385 . S
C5314 C5316 1.478 . S
C5315 H5309 0.910 1_554 S
C5315 C5311 1.400 . S
C5315 C5314 1.385 . S
C5316 C5314 1.478 . S
C5316 C5318 1.381 . S
C5316 C5322 1.383 . S
C5317 C5313 1.495 . S
C5317 H5323 0.959 . S
C5317 H5324 0.961 . S
C5317 H5325 0.960 . S
C5318 C5316 1.381 . S
C5318 C5319 1.394 . S
C5318 H5326 0.930 . S
C5319 C5318 1.394 . S
C5319 C5320 1.383 . S
C5319 H5327 0.929 1_554 S
C5320 C5319 1.383 . S
C5320 C5321 1.377 . S
C5321 H5305 0.930 . S
C5321 C5320 1.377 . S
C5321 C5322 1.379 . S
C5322 H5306 0.931 . S
C5322 C5316 1.383 . S
C5322 C5321 1.379 . S
H5323 C5317 0.959 . S
H5324 C5317 0.961 . S
H5325 C5317 0.960 . S
H5326 C5318 0.930 . S
H5327 C5319 0.929 1_556 S
H5328 C5336 0.929 . S
H5329 C5338 0.930 . S
H5330 C5340 0.930 . S
H5331 C5343 0.929 . S
H5332 C5346 0.930 . S
H5333 C5348 0.960 . S
H5334 C5348 0.960 . S
H5335 C5348 0.960 . S
C5336 H5328 0.929 . S
C5336 C5337 1.377 . S
C5336 C5338 1.384 . S
C5337 C5336 1.377 . S
C5337 C5343 1.390 . S
C5338 H5329 0.930 . S
C5338 C5336 1.384 . S
C5338 C5339 1.372 . S
C5339 C5338 1.372 . S
C5339 C5340 1.400 . S
C5339 C5344 1.490 . S
C5340 H5330 0.930 . S
C5340 C5339 1.400 . S
C5340 C5343 1.386 . S
H5341 C5357 0.930 . S
H5342 C5358 0.931 . S
C5343 H5331 0.929 . S
C5343 C5337 1.390 . S
C5343 C5340 1.386 . S
C5344 C5339 1.490 . S
C5344 C5346 1.395 . S
C5344 C5347 1.403 . S
H5345 C5351 0.930 . S
C5346 H5332 0.930 . S
C5346 C5344 1.395 . S
C5346 C5349 1.403 . S
C5347 C5344 1.403 . S
C5347 C5348 1.524 . S
C5347 C5351 1.400 . S
C5348 H5333 0.960 . S
C5348 H5334 0.960 . S
C5348 H5335 0.960 . S
C5348 C5347 1.524 . S
C5349 C5346 1.403 . S
C5349 C5350 1.392 . S
C5349 C5353 1.495 . S
C5350 C5349 1.392 . S
C5350 C5351 1.385 . S
C5350 C5352 1.478 . S
C5351 H5345 0.930 . S
C5351 C5347 1.400 . S
C5351 C5350 1.385 . S
C5352 C5350 1.478 . S
C5352 C5354 1.381 . S
C5352 C5358 1.383 . S
C5353 C5349 1.495 . S
C5353 H5359 0.959 . S
C5353 H5360 0.961 . S
C5353 H5361 0.960 . S
C5354 C5352 1.381 . S
C5354 C5355 1.394 . S
C5354 H5362 0.930 . S
C5355 C5354 1.394 . S
C5355 C5356 1.383 . S
C5355 H5363 0.929 . S
C5356 C5355 1.383 . S
C5356 C5357 1.377 . S
C5357 H5341 0.930 . S
C5357 C5356 1.377 . S
C5357 C5358 1.379 . S
C5358 H5342 0.931 . S
C5358 C5352 1.383 . S
C5358 C5357 1.379 . S
H5359 C5353 0.959 . S
H5360 C5353 0.961 . S
H5361 C5353 0.960 . S
H5362 C5354 0.930 . S
H5363 C5355 0.929 . S
H5364 C5372 0.929 . S
H5365 C5374 0.930 . S
H5366 C5376 0.930 . S
H5367 C5379 0.929 . S
H5368 C5382 0.930 . S
H5369 C5384 0.960 . S
H5370 C5384 0.960 . S
H5371 C5384 0.960 . S
C5372 H5364 0.929 . S
C5372 C5373 1.377 . S
C5372 C5374 1.384 . S
C5373 C5372 1.377 . S
C5373 C5379 1.390 . S
C5374 H5365 0.930 . S
C5374 C5372 1.384 . S
C5374 C5375 1.372 . S
C5375 C5374 1.372 . S
C5375 C5376 1.400 . S
C5375 C5380 1.490 . S
C5376 H5366 0.930 . S
C5376 C5375 1.400 . S
C5376 C5379 1.386 . S
H5377 C5393 0.930 . S
H5378 C5394 0.931 . S
C5379 H5367 0.929 . S
C5379 C5373 1.390 . S
C5379 C5376 1.386 . S
C5380 C5375 1.490 . S
C5380 C5382 1.395 . S
C5380 C5383 1.403 . S
H5381 C5387 0.930 . S
C5382 H5368 0.930 . S
C5382 C5380 1.395 . S
C5382 C5385 1.403 . S
C5383 C5380 1.403 . S
C5383 C5384 1.524 . S
C5383 C5387 1.400 . S
C5384 H5369 0.960 . S
C5384 H5370 0.960 . S
C5384 H5371 0.960 . S
C5384 C5383 1.524 . S
C5385 C5382 1.403 . S
C5385 C5386 1.392 . S
C5385 C5389 1.495 . S
C5386 C5385 1.392 . S
C5386 C5387 1.385 . S
C5386 C5388 1.478 . S
C5387 H5381 0.930 . S
C5387 C5383 1.400 . S
C5387 C5386 1.385 . S
C5388 C5386 1.478 . S
C5388 C5390 1.381 . S
C5388 C5394 1.383 . S
C5389 C5385 1.495 . S
C5389 H5395 0.959 . S
C5389 H5396 0.961 . S
C5389 H5397 0.960 . S
C5390 C5388 1.381 . S
C5390 C5391 1.394 . S
C5390 H5398 0.930 . S
C5391 C5390 1.394 . S
C5391 C5392 1.383 . S
C5391 H5399 0.929 . S
C5392 C5391 1.383 . S
C5392 C5393 1.377 . S
C5393 H5377 0.930 . S
C5393 C5392 1.377 . S
C5393 C5394 1.379 . S
C5394 H5378 0.931 . S
C5394 C5388 1.383 . S
C5394 C5393 1.379 . S
H5395 C5389 0.959 . S
H5396 C5389 0.961 . S
H5397 C5389 0.960 . S
H5398 C5390 0.930 . S
H5399 C5391 0.929 . S
H5400 C5408 0.929 . S
H5401 C5410 0.930 . S
H5402 C5412 0.930 . S
H5403 C5415 0.929 . S
H5404 C5418 0.930 . S
H5405 C5420 0.960 . S
H5406 C5420 0.960 . S
H5407 C5420 0.960 . S
C5408 H5400 0.929 . S
C5408 C5409 1.377 . S
C5408 C5410 1.384 . S
C5409 C5408 1.377 . S
C5409 C5415 1.390 . S
C5410 H5401 0.930 . S
C5410 C5408 1.384 . S
C5410 C5411 1.372 . S
C5411 C5410 1.372 . S
C5411 C5412 1.400 . S
C5411 C5416 1.490 . S
C5412 H5402 0.930 . S
C5412 C5411 1.400 . S
C5412 C5415 1.386 . S
H5413 C5429 0.930 . S
H5414 C5430 0.931 . S
C5415 H5403 0.929 . S
C5415 C5409 1.390 . S
C5415 C5412 1.386 . S
C5416 C5411 1.490 . S
C5416 C5418 1.395 . S
C5416 C5419 1.403 . S
H5417 C5423 0.930 . S
C5418 H5404 0.930 . S
C5418 C5416 1.395 . S
C5418 C5421 1.403 . S
C5419 C5416 1.403 . S
C5419 C5420 1.524 . S
C5419 C5423 1.400 . S
C5420 H5405 0.960 . S
C5420 H5406 0.960 . S
C5420 H5407 0.960 . S
C5420 C5419 1.524 . S
C5421 C5418 1.403 . S
C5421 C5422 1.392 . S
C5421 C5425 1.495 . S
C5422 C5421 1.392 . S
C5422 C5423 1.385 . S
C5422 C5424 1.478 . S
C5423 H5417 0.930 . S
C5423 C5419 1.400 . S
C5423 C5422 1.385 . S
C5424 C5422 1.478 . S
C5424 C5426 1.381 . S
C5424 C5430 1.383 . S
C5425 C5421 1.495 . S
C5425 H5431 0.959 . S
C5425 H5432 0.961 . S
C5425 H5433 0.960 . S
C5426 C5424 1.381 . S
C5426 C5427 1.394 . S
C5426 H5434 0.930 . S
C5427 C5426 1.394 . S
C5427 C5428 1.383 . S
C5427 H5435 0.929 . S
C5428 C5427 1.383 . S
C5428 C5429 1.377 . S
C5429 H5413 0.930 . S
C5429 C5428 1.377 . S
C5429 C5430 1.379 . S
C5430 H5414 0.931 . S
C5430 C5424 1.383 . S
C5430 C5429 1.379 . S
H5431 C5425 0.959 . S
H5432 C5425 0.961 . S
H5433 C5425 0.960 . S
H5434 C5426 0.930 . S
H5435 C5427 0.929 . S
H5436 C5444 0.929 . S
H5437 C5446 0.930 . S
H5438 C5448 0.930 . S
H5439 C5451 0.929 . S
H5440 C5454 0.930 . S
H5441 C5456 0.960 . S
H5442 C5456 0.960 . S
H5443 C5456 0.960 . S
C5444 H5436 0.929 . S
C5444 C5445 1.377 . S
C5444 C5446 1.384 . S
C5445 C5444 1.377 . S
C5445 C5451 1.390 . S
C5446 H5437 0.930 . S
C5446 C5444 1.384 . S
C5446 C5447 1.372 . S
C5447 C5446 1.372 . S
C5447 C5448 1.400 . S
C5447 C5452 1.490 . S
C5448 H5438 0.930 . S
C5448 C5447 1.400 . S
C5448 C5451 1.386 . S
H5449 C5465 0.930 . S
H5450 C5466 0.931 . S
C5451 H5439 0.929 . S
C5451 C5445 1.390 . S
C5451 C5448 1.386 . S
C5452 C5447 1.490 . S
C5452 C5454 1.395 . S
C5452 C5455 1.403 . S
H5453 C5459 0.930 . S
C5454 H5440 0.930 . S
C5454 C5452 1.395 . S
C5454 C5457 1.403 . S
C5455 C5452 1.403 . S
C5455 C5456 1.524 . S
C5455 C5459 1.400 . S
C5456 H5441 0.960 . S
C5456 H5442 0.960 . S
C5456 H5443 0.960 . S
C5456 C5455 1.524 . S
C5457 C5454 1.403 . S
C5457 C5458 1.392 . S
C5457 C5461 1.495 . S
C5458 C5457 1.392 . S
C5458 C5459 1.385 . S
C5458 C5460 1.478 . S
C5459 H5453 0.930 . S
C5459 C5455 1.400 . S
C5459 C5458 1.385 . S
C5460 C5458 1.478 . S
C5460 C5462 1.381 . S
C5460 C5466 1.383 . S
C5461 C5457 1.495 . S
C5461 H5467 0.959 . S
C5461 H5468 0.961 . S
C5461 H5469 0.960 . S
C5462 C5460 1.381 . S
C5462 C5463 1.394 . S
C5462 H5470 0.930 . S
C5463 C5462 1.394 . S
C5463 C5464 1.383 . S
C5463 H5471 0.929 . S
C5464 C5463 1.383 . S
C5464 C5465 1.377 . S
C5465 H5449 0.930 . S
C5465 C5464 1.377 . S
C5465 C5466 1.379 . S
C5466 H5450 0.931 . S
C5466 C5460 1.383 . S
C5466 C5465 1.379 . S
H5467 C5461 0.959 . S
H5468 C5461 0.961 . S
H5469 C5461 0.960 . S
H5470 C5462 0.930 . S
H5471 C5463 0.929 . S
H5472 C5480 0.929 . S
H5473 C5482 0.930 . S
H5474 C5484 0.930 . S
H5475 C5487 0.929 . S
H5476 C5490 0.930 . S
H5477 C5492 0.960 . S
H5478 C5492 0.960 . S
H5479 C5492 0.960 . S
C5480 H5472 0.929 . S
C5480 C5481 1.377 . S
C5480 C5482 1.384 . S
C5481 C5480 1.377 . S
C5481 C5487 1.390 . S
C5482 H5473 0.930 . S
C5482 C5480 1.384 . S
C5482 C5483 1.372 . S
C5483 C5482 1.372 . S
C5483 C5484 1.400 . S
C5483 C5488 1.490 . S
C5484 H5474 0.930 . S
C5484 C5483 1.400 . S
C5484 C5487 1.386 . S
H5485 C5501 0.930 . S
H5486 C5502 0.931 . S
C5487 H5475 0.929 . S
C5487 C5481 1.390 . S
C5487 C5484 1.386 . S
C5488 C5483 1.490 . S
C5488 C5490 1.395 . S
C5488 C5491 1.403 . S
H5489 C5495 0.930 . S
C5490 H5476 0.930 . S
C5490 C5488 1.395 . S
C5490 C5493 1.403 . S
C5491 C5488 1.403 . S
C5491 C5492 1.524 . S
C5491 C5495 1.400 . S
C5492 H5477 0.960 . S
C5492 H5478 0.960 . S
C5492 H5479 0.960 . S
C5492 C5491 1.524 . S
C5493 C5490 1.403 . S
C5493 C5494 1.392 . S
C5493 C5497 1.495 . S
C5494 C5493 1.392 . S
C5494 C5495 1.385 . S
C5494 C5496 1.478 . S
C5495 H5489 0.930 . S
C5495 C5491 1.400 . S
C5495 C5494 1.385 . S
C5496 C5494 1.478 . S
C5496 C5498 1.381 . S
C5496 C5502 1.383 . S
C5497 C5493 1.495 . S
C5497 H5503 0.959 . S
C5497 H5504 0.961 . S
C5497 H5505 0.960 . S
C5498 C5496 1.381 . S
C5498 C5499 1.394 . S
C5498 H5506 0.930 . S
C5499 C5498 1.394 . S
C5499 C5500 1.383 . S
C5499 H5507 0.929 . S
C5500 C5499 1.383 . S
C5500 C5501 1.377 . S
C5501 H5485 0.930 . S
C5501 C5500 1.377 . S
C5501 C5502 1.379 . S
C5502 H5486 0.931 . S
C5502 C5496 1.383 . S
C5502 C5501 1.379 . S
H5503 C5497 0.959 . S
H5504 C5497 0.961 . S
H5505 C5497 0.960 . S
H5506 C5498 0.930 . S
H5507 C5499 0.929 . S
H5508 C5516 0.929 . S
H5509 C5518 0.930 . S
H5510 C5520 0.930 . S
H5511 C5523 0.929 . S
H5512 C5526 0.930 . S
H5513 C5528 0.960 . S
H5514 C5528 0.960 . S
H5515 C5528 0.960 . S
C5516 H5508 0.929 . S
C5516 C5517 1.377 . S
C5516 C5518 1.384 . S
C5517 C5516 1.377 . S
C5517 C5523 1.390 . S
C5518 H5509 0.930 . S
C5518 C5516 1.384 . S
C5518 C5519 1.372 . S
C5519 C5518 1.372 . S
C5519 C5520 1.400 . S
C5519 C5524 1.490 . S
C5520 H5510 0.930 . S
C5520 C5519 1.400 . S
C5520 C5523 1.386 . S
H5521 C5537 0.930 . S
H5522 C5538 0.931 . S
C5523 H5511 0.929 . S
C5523 C5517 1.390 . S
C5523 C5520 1.386 . S
C5524 C5519 1.490 . S
C5524 C5526 1.395 . S
C5524 C5527 1.403 . S
H5525 C5531 0.930 . S
C5526 H5512 0.930 . S
C5526 C5524 1.395 . S
C5526 C5529 1.403 . S
C5527 C5524 1.403 . S
C5527 C5528 1.524 . S
C5527 C5531 1.400 . S
C5528 H5513 0.960 . S
C5528 H5514 0.960 . S
C5528 H5515 0.960 . S
C5528 C5527 1.524 . S
C5529 C5526 1.403 . S
C5529 C5530 1.392 . S
C5529 C5533 1.495 . S
C5530 C5529 1.392 . S
C5530 C5531 1.385 . S
C5530 C5532 1.478 . S
C5531 H5525 0.930 . S
C5531 C5527 1.400 . S
C5531 C5530 1.385 . S
C5532 C5530 1.478 . S
C5532 C5534 1.381 . S
C5532 C5538 1.383 . S
C5533 C5529 1.495 . S
C5533 H5539 0.959 . S
C5533 H5540 0.961 . S
C5533 H5541 0.960 . S
C5534 C5532 1.381 . S
C5534 C5535 1.394 . S
C5534 H5542 0.930 . S
C5535 C5534 1.394 . S
C5535 C5536 1.383 . S
C5535 H5543 0.929 . S
C5536 C5535 1.383 . S
C5536 C5537 1.377 . S
C5537 H5521 0.930 . S
C5537 C5536 1.377 . S
C5537 C5538 1.379 . S
C5538 H5522 0.931 . S
C5538 C5532 1.383 . S
C5538 C5537 1.379 . S
H5539 C5533 0.959 . S
H5540 C5533 0.961 . S
H5541 C5533 0.960 . S
H5542 C5534 0.930 . S
H5543 C5535 0.929 . S
H5544 C5552 0.929 . S
H5545 C5554 0.930 . S
H5546 C5556 0.930 . S
H5547 C5559 0.929 . S
H5548 C5562 0.930 . S
H5549 C5564 0.960 . S
H5550 C5564 0.960 . S
H5551 C5564 0.960 . S
C5552 H5544 0.929 . S
C5552 C5553 1.377 . S
C5552 C5554 1.384 . S
C5553 C5552 1.377 . S
C5553 C5559 1.390 . S
C5554 H5545 0.930 . S
C5554 C5552 1.384 . S
C5554 C5555 1.372 . S
C5555 C5554 1.372 . S
C5555 C5556 1.400 . S
C5555 C5560 1.490 . S
C5556 H5546 0.930 . S
C5556 C5555 1.400 . S
C5556 C5559 1.386 . S
H5557 C5573 0.930 . S
H5558 C5574 0.931 . S
C5559 H5547 0.929 . S
C5559 C5553 1.390 . S
C5559 C5556 1.386 . S
C5560 C5555 1.490 . S
C5560 C5562 1.395 . S
C5560 C5563 1.403 . S
H5561 C5567 0.930 . S
C5562 H5548 0.930 . S
C5562 C5560 1.395 . S
C5562 C5565 1.403 . S
C5563 C5560 1.403 . S
C5563 C5564 1.524 . S
C5563 C5567 1.400 . S
C5564 H5549 0.960 . S
C5564 H5550 0.960 . S
C5564 H5551 0.960 . S
C5564 C5563 1.524 . S
C5565 C5562 1.403 . S
C5565 C5566 1.392 . S
C5565 C5569 1.495 . S
C5566 C5565 1.392 . S
C5566 C5567 1.385 . S
C5566 C5568 1.478 . S
C5567 H5561 0.930 . S
C5567 C5563 1.400 . S
C5567 C5566 1.385 . S
C5568 C5566 1.478 . S
C5568 C5570 1.381 . S
C5568 C5574 1.383 . S
C5569 C5565 1.495 . S
C5569 H5575 0.959 . S
C5569 H5576 0.961 . S
C5569 H5577 0.960 . S
C5570 C5568 1.381 . S
C5570 C5571 1.394 . S
C5570 H5578 0.930 . S
C5571 C5570 1.394 . S
C5571 C5572 1.383 . S
C5571 H5579 0.929 . S
C5572 C5571 1.383 . S
C5572 C5573 1.377 . S
C5573 H5557 0.930 . S
C5573 C5572 1.377 . S
C5573 C5574 1.379 . S
C5574 H5558 0.931 . S
C5574 C5568 1.383 . S
C5574 C5573 1.379 . S
H5575 C5569 0.959 . S
H5576 C5569 0.961 . S
H5577 C5569 0.960 . S
H5578 C5570 0.930 . S
H5579 C5571 0.929 . S
H5580 C5588 0.929 . S
H5581 C5590 0.930 . S
H5582 C5592 0.930 . S
H5583 C5595 0.929 . S
H5584 C5598 0.930 . S
H5585 C5600 0.960 . S
H5586 C5600 0.960 . S
H5587 C5600 0.960 . S
C5588 H5580 0.929 . S
C5588 C5589 1.377 . S
C5588 C5590 1.384 . S
C5589 C5588 1.377 . S
C5589 C5595 1.390 . S
C5590 H5581 0.930 . S
C5590 C5588 1.384 . S
C5590 C5591 1.372 . S
C5591 C5590 1.372 . S
C5591 C5592 1.400 . S
C5591 C5596 1.490 . S
C5592 H5582 0.930 . S
C5592 C5591 1.400 . S
C5592 C5595 1.386 . S
H5593 C5609 0.930 . S
H5594 C5610 0.931 . S
C5595 H5583 0.929 . S
C5595 C5589 1.390 . S
C5595 C5592 1.386 . S
C5596 C5591 1.490 . S
C5596 C5598 1.395 . S
C5596 C5599 1.403 . S
H5597 C5603 0.930 . S
C5598 H5584 0.930 . S
C5598 C5596 1.395 . S
C5598 C5601 1.403 . S
C5599 C5596 1.403 . S
C5599 C5600 1.524 . S
C5599 C5603 1.400 . S
C5600 H5585 0.960 . S
C5600 H5586 0.960 . S
C5600 H5587 0.960 . S
C5600 C5599 1.524 . S
C5601 C5598 1.403 . S
C5601 C5602 1.392 . S
C5601 C5605 1.495 . S
C5602 C5601 1.392 . S
C5602 C5603 1.385 . S
C5602 C5604 1.478 . S
C5603 H5597 0.930 . S
C5603 C5599 1.400 . S
C5603 C5602 1.385 . S
C5604 C5602 1.478 . S
C5604 C5606 1.381 . S
C5604 C5610 1.383 . S
C5605 C5601 1.495 . S
C5605 H5611 0.959 . S
C5605 H5612 0.961 . S
C5605 H5613 0.960 . S
C5606 C5604 1.381 . S
C5606 C5607 1.394 . S
C5606 H5614 0.930 . S
C5607 C5606 1.394 . S
C5607 C5608 1.383 . S
C5607 H5615 0.929 . S
C5608 C5607 1.383 . S
C5608 C5609 1.377 . S
C5609 H5593 0.930 . S
C5609 C5608 1.377 . S
C5609 C5610 1.379 . S
C5610 H5594 0.931 . S
C5610 C5604 1.383 . S
C5610 C5609 1.379 . S
H5611 C5605 0.959 . S
H5612 C5605 0.961 . S
H5613 C5605 0.960 . S
H5614 C5606 0.930 . S
H5615 C5607 0.929 . S
H5616 C5624 0.929 . S
H5617 C5626 0.930 . S
H5618 C5628 0.930 . S
H5619 C5631 0.929 . S
H5620 C5634 0.930 . S
H5621 C5636 0.960 . S
H5622 C5636 0.960 . S
H5623 C5636 0.960 . S
C5624 H5616 0.929 . S
C5624 C5625 1.377 . S
C5624 C5626 1.384 . S
C5625 C5624 1.377 . S
C5625 C5631 1.390 . S
C5626 H5617 0.930 . S
C5626 C5624 1.384 . S
C5626 C5627 1.372 . S
C5627 C5626 1.372 . S
C5627 C5628 1.400 . S
C5627 C5632 1.490 . S
C5628 H5618 0.930 . S
C5628 C5627 1.400 . S
C5628 C5631 1.386 . S
H5629 C5645 0.930 . S
H5630 C5646 0.931 . S
C5631 H5619 0.929 . S
C5631 C5625 1.390 . S
C5631 C5628 1.386 . S
C5632 C5627 1.490 . S
C5632 C5634 1.395 . S
C5632 C5635 1.403 . S
H5633 C5639 0.930 . S
C5634 H5620 0.930 . S
C5634 C5632 1.395 . S
C5634 C5637 1.403 . S
C5635 C5632 1.403 . S
C5635 C5636 1.524 . S
C5635 C5639 1.400 . S
C5636 H5621 0.960 . S
C5636 H5622 0.960 . S
C5636 H5623 0.960 . S
C5636 C5635 1.524 . S
C5637 C5634 1.403 . S
C5637 C5638 1.392 . S
C5637 C5641 1.495 . S
C5638 C5637 1.392 . S
C5638 C5639 1.385 . S
C5638 C5640 1.478 . S
C5639 H5633 0.930 . S
C5639 C5635 1.400 . S
C5639 C5638 1.385 . S
C5640 C5638 1.478 . S
C5640 C5642 1.381 . S
C5640 C5646 1.383 . S
C5641 C5637 1.495 . S
C5641 H5647 0.959 . S
C5641 H5648 0.961 . S
C5641 H5649 0.960 . S
C5642 C5640 1.381 . S
C5642 C5643 1.394 . S
C5642 H5650 0.930 . S
C5643 C5642 1.394 . S
C5643 C5644 1.383 . S
C5643 H5651 0.929 . S
C5644 C5643 1.383 . S
C5644 C5645 1.377 . S
C5645 H5629 0.930 . S
C5645 C5644 1.377 . S
C5645 C5646 1.379 . S
C5646 H5630 0.931 . S
C5646 C5640 1.383 . S
C5646 C5645 1.379 . S
H5647 C5641 0.959 . S
H5648 C5641 0.961 . S
H5649 C5641 0.960 . S
H5650 C5642 0.930 . S
H5651 C5643 0.929 . S
H5652 C5660 0.929 . S
H5653 C5662 0.930 . S
H5654 C5664 0.930 . S
H5655 C5667 0.929 . S
H5656 C5670 0.930 . S
H5657 C5672 0.960 . S
H5658 C5672 0.960 . S
H5659 C5672 0.960 . S
C5660 H5652 0.929 . S
C5660 C5661 1.377 . S
C5660 C5662 1.384 . S
C5661 C5660 1.377 . S
C5661 C5667 1.390 . S
C5662 H5653 0.930 . S
C5662 C5660 1.384 . S
C5662 C5663 1.372 . S
C5663 C5662 1.372 . S
C5663 C5664 1.400 . S
C5663 C5668 1.490 . S
C5664 H5654 0.930 . S
C5664 C5663 1.400 . S
C5664 C5667 1.386 . S
H5665 C5681 0.930 . S
H5666 C5682 0.931 . S
C5667 H5655 0.929 . S
C5667 C5661 1.390 . S
C5667 C5664 1.386 . S
C5668 C5663 1.490 . S
C5668 C5670 1.395 . S
C5668 C5671 1.403 . S
H5669 C5675 0.930 . S
C5670 H5656 0.930 . S
C5670 C5668 1.395 . S
C5670 C5673 1.403 . S
C5671 C5668 1.403 . S
C5671 C5672 1.524 . S
C5671 C5675 1.400 . S
C5672 H5657 0.960 . S
C5672 H5658 0.960 . S
C5672 H5659 0.960 . S
C5672 C5671 1.524 . S
C5673 C5670 1.403 . S
C5673 C5674 1.392 . S
C5673 C5677 1.495 . S
C5674 C5673 1.392 . S
C5674 C5675 1.385 . S
C5674 C5676 1.478 . S
C5675 H5669 0.930 . S
C5675 C5671 1.400 . S
C5675 C5674 1.385 . S
C5676 C5674 1.478 . S
C5676 C5678 1.381 . S
C5676 C5682 1.383 . S
C5677 C5673 1.495 . S
C5677 H5683 0.959 . S
C5677 H5684 0.961 . S
C5677 H5685 0.960 . S
C5678 C5676 1.381 . S
C5678 C5679 1.394 . S
C5678 H5686 0.930 . S
C5679 C5678 1.394 . S
C5679 C5680 1.383 . S
C5679 H5687 0.929 . S
C5680 C5679 1.383 . S
C5680 C5681 1.377 . S
C5681 H5665 0.930 . S
C5681 C5680 1.377 . S
C5681 C5682 1.379 . S
C5682 H5666 0.931 . S
C5682 C5676 1.383 . S
C5682 C5681 1.379 . S
H5683 C5677 0.959 . S
H5684 C5677 0.961 . S
H5685 C5677 0.960 . S
H5686 C5678 0.930 . S
H5687 C5679 0.929 . S
H5688 C5696 0.929 . S
H5689 C5698 0.930 . S
H5690 C5700 0.930 . S
H5691 C5703 0.929 . S
H5692 C5706 0.930 . S
H5693 C5708 0.960 . S
H5694 C5708 0.960 . S
H5695 C5708 0.960 . S
C5696 H5688 0.929 . S
C5696 C5697 1.377 . S
C5696 C5698 1.384 . S
C5697 C5696 1.377 . S
C5697 C5703 1.390 . S
C5698 H5689 0.930 . S
C5698 C5696 1.384 . S
C5698 C5699 1.372 . S
C5699 C5698 1.372 . S
C5699 C5700 1.400 . S
C5699 C5704 1.490 . S
C5700 H5690 0.930 . S
C5700 C5699 1.400 . S
C5700 C5703 1.386 . S
H5701 C5717 0.930 . S
H5702 C5718 0.931 . S
C5703 H5691 0.929 . S
C5703 C5697 1.390 . S
C5703 C5700 1.386 . S
C5704 C5699 1.490 . S
C5704 C5706 1.395 . S
C5704 C5707 1.403 . S
H5705 C5711 0.930 . S
C5706 H5692 0.930 . S
C5706 C5704 1.395 . S
C5706 C5709 1.403 . S
C5707 C5704 1.403 . S
C5707 C5708 1.524 . S
C5707 C5711 1.400 . S
C5708 H5693 0.960 . S
C5708 H5694 0.960 . S
C5708 H5695 0.960 . S
C5708 C5707 1.524 . S
C5709 C5706 1.403 . S
C5709 C5710 1.392 . S
C5709 C5713 1.495 . S
C5710 C5709 1.392 . S
C5710 C5711 1.385 . S
C5710 C5712 1.478 . S
C5711 H5705 0.930 . S
C5711 C5707 1.400 . S
C5711 C5710 1.385 . S
C5712 C5710 1.478 . S
C5712 C5714 1.381 . S
C5712 C5718 1.383 . S
C5713 C5709 1.495 . S
C5713 H5719 0.959 . S
C5713 H5720 0.961 . S
C5713 H5721 0.960 . S
C5714 C5712 1.381 . S
C5714 C5715 1.394 . S
C5714 H5722 0.930 . S
C5715 C5714 1.394 . S
C5715 C5716 1.383 . S
C5715 H5723 0.929 . S
C5716 C5715 1.383 . S
C5716 C5717 1.377 . S
C5717 H5701 0.930 . S
C5717 C5716 1.377 . S
C5717 C5718 1.379 . S
C5718 H5702 0.931 . S
C5718 C5712 1.383 . S
C5718 C5717 1.379 . S
H5719 C5713 0.959 . S
H5720 C5713 0.961 . S
H5721 C5713 0.960 . S
H5722 C5714 0.930 . S
H5723 C5715 0.929 . S
H5724 C5732 0.929 . S
H5725 C5734 0.930 . S
H5726 C5736 0.930 . S
H5727 C5739 0.929 . S
H5728 C5742 0.930 . S
H5729 C5744 0.960 . S
H5730 C5744 0.960 . S
H5731 C5744 0.960 . S
C5732 H5724 0.929 . S
C5732 C5733 1.377 . S
C5732 C5734 1.384 . S
C5733 C5732 1.377 . S
C5733 C5739 1.390 . S
C5734 H5725 0.930 . S
C5734 C5732 1.384 . S
C5734 C5735 1.372 . S
C5735 C5734 1.372 . S
C5735 C5736 1.400 . S
C5735 C5740 1.490 . S
C5736 H5726 0.930 . S
C5736 C5735 1.400 . S
C5736 C5739 1.386 . S
H5737 C5753 0.930 . S
H5738 C5754 0.931 . S
C5739 H5727 0.929 . S
C5739 C5733 1.390 . S
C5739 C5736 1.386 . S
C5740 C5735 1.490 . S
C5740 C5742 1.395 . S
C5740 C5743 1.403 . S
H5741 C5747 0.930 . S
C5742 H5728 0.930 . S
C5742 C5740 1.395 . S
C5742 C5745 1.403 . S
C5743 C5740 1.403 . S
C5743 C5744 1.524 . S
C5743 C5747 1.400 . S
C5744 H5729 0.960 . S
C5744 H5730 0.960 . S
C5744 H5731 0.960 . S
C5744 C5743 1.524 . S
C5745 C5742 1.403 . S
C5745 C5746 1.392 . S
C5745 C5749 1.495 . S
C5746 C5745 1.392 . S
C5746 C5747 1.385 . S
C5746 C5748 1.478 . S
C5747 H5741 0.930 . S
C5747 C5743 1.400 . S
C5747 C5746 1.385 . S
C5748 C5746 1.478 . S
C5748 C5750 1.381 . S
C5748 C5754 1.383 . S
C5749 C5745 1.495 . S
C5749 H5755 0.959 . S
C5749 H5756 0.961 . S
C5749 H5757 0.960 . S
C5750 C5748 1.381 . S
C5750 C5751 1.394 . S
C5750 H5758 0.930 . S
C5751 C5750 1.394 . S
C5751 C5752 1.383 . S
C5751 H5759 0.929 . S
C5752 C5751 1.383 . S
C5752 C5753 1.377 . S
C5753 H5737 0.930 . S
C5753 C5752 1.377 . S
C5753 C5754 1.379 . S
C5754 H5738 0.931 . S
C5754 C5748 1.383 . S
C5754 C5753 1.379 . S
H5755 C5749 0.959 . S
H5756 C5749 0.961 . S
H5757 C5749 0.960 . S
H5758 C5750 0.930 . S
H5759 C5751 0.929 . S
H5760 C5768 0.929 . S
H5761 C5770 0.930 . S
H5762 C5772 0.930 . S
H5763 C5775 0.929 . S
H5764 C5778 0.930 . S
H5765 C5780 0.960 . S
H5766 C5780 0.960 . S
H5767 C5780 0.960 . S
C5768 H5760 0.929 . S
C5768 C5769 1.377 . S
C5768 C5770 1.384 . S
C5769 C5768 1.377 . S
C5769 C5775 1.390 . S
C5770 H5761 0.930 . S
C5770 C5768 1.384 . S
C5770 C5771 1.372 . S
C5771 C5770 1.372 . S
C5771 C5772 1.400 . S
C5771 C5776 1.490 . S
C5772 H5762 0.930 . S
C5772 C5771 1.400 . S
C5772 C5775 1.386 . S
H5773 C5789 0.930 . S
H5774 C5790 0.931 . S
C5775 H5763 0.929 . S
C5775 C5769 1.390 . S
C5775 C5772 1.386 . S
C5776 C5771 1.490 . S
C5776 C5778 1.395 . S
C5776 C5779 1.403 . S
H5777 C5783 0.930 . S
C5778 H5764 0.930 . S
C5778 C5776 1.395 . S
C5778 C5781 1.403 . S
C5779 C5776 1.403 . S
C5779 C5780 1.524 . S
C5779 C5783 1.400 . S
C5780 H5765 0.960 . S
C5780 H5766 0.960 . S
C5780 H5767 0.960 . S
C5780 C5779 1.524 . S
C5781 C5778 1.403 . S
C5781 C5782 1.392 . S
C5781 C5785 1.495 . S
C5782 C5781 1.392 . S
C5782 C5783 1.385 . S
C5782 C5784 1.478 . S
C5783 H5777 0.930 . S
C5783 C5779 1.400 . S
C5783 C5782 1.385 . S
C5784 C5782 1.478 . S
C5784 C5786 1.381 . S
C5784 C5790 1.383 . S
C5785 C5781 1.495 . S
C5785 H5791 0.959 . S
C5785 H5792 0.961 . S
C5785 H5793 0.960 . S
C5786 C5784 1.381 . S
C5786 C5787 1.394 . S
C5786 H5794 0.930 . S
C5787 C5786 1.394 . S
C5787 C5788 1.383 . S
C5787 H5795 0.929 . S
C5788 C5787 1.383 . S
C5788 C5789 1.377 . S
C5789 H5773 0.930 . S
C5789 C5788 1.377 . S
C5789 C5790 1.379 . S
C5790 H5774 0.931 . S
C5790 C5784 1.383 . S
C5790 C5789 1.379 . S
H5791 C5785 0.959 . S
H5792 C5785 0.961 . S
H5793 C5785 0.960 . S
H5794 C5786 0.930 . S
H5795 C5787 0.929 . S
H5796 C5804 0.929 . S
H5797 C5806 0.930 . S
H5798 C5808 0.930 1_655 S
H5799 C5811 0.929 . S
H5800 C5814 0.930 1_455 S
H5801 C5816 0.960 . S
H5802 C5816 0.960 . S
H5803 C5816 0.960 . S
C5804 H5796 0.929 . S
C5804 C5805 1.377 . S
C5804 C5806 1.384 . S
C5805 C5804 1.377 . S
C5805 C5811 1.390 . S
C5806 H5797 0.930 . S
C5806 C5804 1.384 . S
C5806 C5807 1.410 . S
C5807 C5806 1.410 . S
C5807 C5808 1.400 . S
C5807 C5812 1.456 1_455 S
C5808 H5798 0.930 1_455 S
C5808 C5807 1.400 . S
C5808 C5811 1.386 . S
H5809 C5825 0.930 . S
H5810 C5826 0.931 . S
C5811 H5799 0.929 . S
C5811 C5805 1.390 . S
C5811 C5808 1.386 . S
C5812 C5807 1.456 1_655 S
C5812 C5814 1.395 . S
C5812 C5815 1.403 . S
H5813 C5819 0.930 . S
C5814 H5800 0.930 1_655 S
C5814 C5812 1.395 . S
C5814 C5817 1.403 . S
C5815 C5812 1.403 . S
C5815 C5816 1.524 . S
C5815 C5819 1.400 . S
C5816 H5801 0.960 . S
C5816 H5802 0.960 . S
C5816 H5803 0.960 . S
C5816 C5815 1.524 . S
C5817 C5814 1.403 . S
C5817 C5818 1.392 . S
C5817 C5821 1.495 . S
C5818 C5817 1.392 . S
C5818 C5819 1.385 . S
C5818 C5820 1.478 . S
C5819 H5813 0.930 . S
C5819 C5815 1.400 . S
C5819 C5818 1.385 . S
C5820 C5818 1.478 . S
C5820 C5822 1.381 . S
C5820 C5826 1.383 . S
C5821 C5817 1.495 . S
C5821 H5827 0.959 1_655 S
C5821 H5828 0.961 . S
C5821 H5829 0.960 . S
C5822 C5820 1.381 . S
C5822 C5823 1.394 . S
C5822 H5830 0.930 . S
C5823 C5822 1.394 . S
C5823 C5824 1.383 . S
C5823 H5831 0.929 . S
C5824 C5823 1.383 . S
C5824 C5825 1.377 . S
C5825 H5809 0.930 . S
C5825 C5824 1.377 . S
C5825 C5826 1.379 . S
C5826 H5810 0.931 . S
C5826 C5820 1.383 . S
C5826 C5825 1.379 . S
H5827 C5821 0.959 1_455 S
H5828 C5821 0.961 . S
H5829 C5821 0.960 . S
H5830 C5822 0.930 . S
H5831 C5823 0.929 . S
H5832 C5840 0.929 . S
H5833 C5842 0.930 . S
H5834 C5844 0.930 . S
H5835 C5847 0.929 . S
H5836 C5850 0.930 . S
H5837 C5852 0.960 . S
H5838 C5852 0.960 . S
H5839 C5852 0.960 . S
C5840 H5832 0.929 . S
C5840 C5841 1.377 . S
C5840 C5842 1.384 . S
C5841 C5840 1.377 . S
C5841 C5847 1.390 . S
C5842 H5833 0.930 . S
C5842 C5840 1.384 . S
C5842 C5843 1.372 . S
C5843 C5842 1.372 . S
C5843 C5844 1.400 . S
C5843 C5848 1.490 . S
C5844 H5834 0.930 . S
C5844 C5843 1.400 . S
C5844 C5847 1.386 . S
H5845 C5861 0.930 . S
H5846 C5862 0.931 . S
C5847 H5835 0.929 . S
C5847 C5841 1.390 . S
C5847 C5844 1.386 . S
C5848 C5843 1.490 . S
C5848 C5850 1.395 . S
C5848 C5851 1.403 . S
H5849 C5855 0.930 . S
C5850 H5836 0.930 . S
C5850 C5848 1.395 . S
C5850 C5853 1.403 . S
C5851 C5848 1.403 . S
C5851 C5852 1.524 . S
C5851 C5855 1.400 . S
C5852 H5837 0.960 . S
C5852 H5838 0.960 . S
C5852 H5839 0.960 . S
C5852 C5851 1.524 . S
C5853 C5850 1.403 . S
C5853 C5854 1.392 . S
C5853 C5857 1.495 . S
C5854 C5853 1.392 . S
C5854 C5855 1.385 . S
C5854 C5856 1.478 . S
C5855 H5849 0.930 . S
C5855 C5851 1.400 . S
C5855 C5854 1.385 . S
C5856 C5854 1.478 . S
C5856 C5858 1.381 . S
C5856 C5862 1.383 . S
C5857 C5853 1.495 . S
C5857 H5863 0.959 . S
C5857 H5864 0.961 . S
C5857 H5865 0.960 . S
C5858 C5856 1.381 . S
C5858 C5859 1.394 . S
C5858 H5866 0.930 . S
C5859 C5858 1.394 . S
C5859 C5860 1.383 . S
C5859 H5867 0.929 . S
C5860 C5859 1.383 . S
C5860 C5861 1.377 . S
C5861 H5845 0.930 . S
C5861 C5860 1.377 . S
C5861 C5862 1.379 . S
C5862 H5846 0.931 . S
C5862 C5856 1.383 . S
C5862 C5861 1.379 . S
H5863 C5857 0.959 . S
H5864 C5857 0.961 . S
H5865 C5857 0.960 . S
H5866 C5858 0.930 . S
H5867 C5859 0.929 . S
H5868 C5876 0.929 . S
H5869 C5878 0.930 . S
H5870 C5880 0.970 . S
H5871 C5883 0.929 . S
H5872 C5886 0.930 1_545 S
H5873 C5888 0.960 . S
H5874 C5888 0.960 . S
H5875 C5888 0.960 . S
C5876 H5868 0.929 . S
C5876 C5877 1.377 . S
C5876 C5878 1.384 . S
C5877 C5876 1.377 . S
C5877 C5883 1.390 . S
C5878 H5869 0.930 . S
C5878 C5876 1.384 . S
C5878 C5879 1.358 1_545 S
C5879 C5878 1.358 1_565 S
C5879 C5880 1.398 . S
C5879 C5884 1.502 . S
C5880 H5870 0.970 . S
C5880 C5879 1.398 . S
C5880 C5883 1.351 1_565 S
H5881 C5897 0.930 . S
H5882 C5898 0.931 . S
C5883 H5871 0.929 . S
C5883 C5877 1.390 . S
C5883 C5880 1.351 1_545 S
C5884 C5879 1.502 . S
C5884 C5886 1.395 . S
C5884 C5887 1.403 . S
H5885 C5891 0.930 . S
C5886 H5872 0.930 1_565 S
C5886 C5884 1.395 . S
C5886 C5889 1.403 . S
C5887 C5884 1.403 . S
C5887 C5888 1.524 . S
C5887 C5891 1.400 . S
C5888 H5873 0.960 . S
C5888 H5874 0.960 . S
C5888 H5875 0.960 . S
C5888 C5887 1.524 . S
C5889 C5886 1.403 . S
C5889 C5890 1.392 . S
C5889 C5893 1.495 . S
C5890 C5889 1.392 . S
C5890 C5891 1.385 . S
C5890 C5892 1.478 . S
C5891 H5885 0.930 . S
C5891 C5887 1.400 . S
C5891 C5890 1.385 . S
C5892 C5890 1.478 . S
C5892 C5894 1.381 . S
C5892 C5898 1.383 . S
C5893 C5889 1.495 . S
C5893 H5899 0.959 1_565 S
C5893 H5900 0.961 . S
C5893 H5901 0.960 . S
C5894 C5892 1.381 . S
C5894 C5895 1.394 . S
C5894 H5902 0.930 . S
C5895 C5894 1.394 . S
C5895 C5896 1.383 . S
C5895 H5903 0.929 . S
C5896 C5895 1.383 . S
C5896 C5897 1.377 . S
C5897 H5881 0.930 . S
C5897 C5896 1.377 . S
C5897 C5898 1.379 . S
C5898 H5882 0.931 . S
C5898 C5892 1.383 . S
C5898 C5897 1.379 . S
H5899 C5893 0.959 1_545 S
H5900 C5893 0.961 . S
H5901 C5893 0.960 . S
H5902 C5894 0.930 . S
H5903 C5895 0.929 . S
H5904 C5912 0.929 . S
H5905 C5914 0.930 . S
H5906 C5916 0.930 . S
H5907 C5919 0.929 . S
H5908 C5922 0.930 . S
H5909 C5924 0.960 . S
H5910 C5924 0.960 . S
H5911 C5924 0.960 . S
C5912 H5904 0.929 . S
C5912 C5913 1.377 . S
C5912 C5914 1.384 . S
C5913 C5912 1.377 . S
C5913 C5919 1.390 . S
C5914 H5905 0.930 . S
C5914 C5912 1.384 . S
C5914 C5915 1.372 . S
C5915 C5914 1.372 . S
C5915 C5916 1.400 . S
C5915 C5920 1.490 . S
C5916 H5906 0.930 . S
C5916 C5915 1.400 . S
C5916 C5919 1.386 . S
H5917 C5933 0.930 . S
H5918 C5934 0.931 . S
C5919 H5907 0.929 . S
C5919 C5913 1.390 . S
C5919 C5916 1.386 . S
C5920 C5915 1.490 . S
C5920 C5922 1.395 . S
C5920 C5923 1.403 . S
H5921 C5927 0.930 . S
C5922 H5908 0.930 . S
C5922 C5920 1.395 . S
C5922 C5925 1.403 . S
C5923 C5920 1.403 . S
C5923 C5924 1.524 . S
C5923 C5927 1.400 . S
C5924 H5909 0.960 . S
C5924 H5910 0.960 . S
C5924 H5911 0.960 . S
C5924 C5923 1.524 . S
C5925 C5922 1.403 . S
C5925 C5926 1.392 . S
C5925 C5929 1.495 . S
C5926 C5925 1.392 . S
C5926 C5927 1.385 . S
C5926 C5928 1.478 . S
C5927 H5921 0.930 . S
C5927 C5923 1.400 . S
C5927 C5926 1.385 . S
C5928 C5926 1.478 . S
C5928 C5930 1.381 . S
C5928 C5934 1.383 . S
C5929 C5925 1.495 . S
C5929 H5935 0.959 . S
C5929 H5936 0.961 . S
C5929 H5937 0.960 . S
C5930 C5928 1.381 . S
C5930 C5931 1.394 . S
C5930 H5938 0.930 . S
C5931 C5930 1.394 . S
C5931 C5932 1.383 . S
C5931 H5939 0.929 . S
C5932 C5931 1.383 . S
C5932 C5933 1.377 . S
C5933 H5917 0.930 . S
C5933 C5932 1.377 . S
C5933 C5934 1.379 . S
C5934 H5918 0.931 . S
C5934 C5928 1.383 . S
C5934 C5933 1.379 . S
H5935 C5929 0.959 . S
H5936 C5929 0.961 . S
H5937 C5929 0.960 . S
H5938 C5930 0.930 . S
H5939 C5931 0.929 . S
H5940 C5948 0.929 . S
H5941 C5950 0.930 . S
H5942 C5952 0.930 . S
H5943 C5955 0.929 . S
H5944 C5958 0.930 . S
H5945 C5960 0.960 . S
H5946 C5960 0.960 . S
H5947 C5960 0.960 . S
C5948 H5940 0.929 . S
C5948 C5949 1.377 . S
C5948 C5950 1.384 . S
C5949 C5948 1.377 . S
C5949 C5955 1.390 . S
C5950 H5941 0.930 . S
C5950 C5948 1.384 . S
C5950 C5951 1.372 . S
C5951 C5950 1.372 . S
C5951 C5952 1.400 . S
C5951 C5956 1.490 . S
C5952 H5942 0.930 . S
C5952 C5951 1.400 . S
C5952 C5955 1.386 . S
H5953 C5969 0.930 . S
H5954 C5970 0.931 . S
C5955 H5943 0.929 . S
C5955 C5949 1.390 . S
C5955 C5952 1.386 . S
C5956 C5951 1.490 . S
C5956 C5958 1.395 . S
C5956 C5959 1.403 . S
H5957 C5963 0.930 . S
C5958 H5944 0.930 . S
C5958 C5956 1.395 . S
C5958 C5961 1.403 . S
C5959 C5956 1.403 . S
C5959 C5960 1.524 . S
C5959 C5963 1.400 . S
C5960 H5945 0.960 . S
C5960 H5946 0.960 . S
C5960 H5947 0.960 . S
C5960 C5959 1.524 . S
C5961 C5958 1.403 . S
C5961 C5962 1.392 . S
C5961 C5965 1.495 . S
C5962 C5961 1.392 . S
C5962 C5963 1.385 . S
C5962 C5964 1.478 . S
C5963 H5957 0.930 . S
C5963 C5959 1.400 . S
C5963 C5962 1.385 . S
C5964 C5962 1.478 . S
C5964 C5966 1.381 . S
C5964 C5970 1.383 . S
C5965 C5961 1.495 . S
C5965 H5971 0.959 . S
C5965 H5972 0.961 . S
C5965 H5973 0.960 . S
C5966 C5964 1.381 . S
C5966 C5967 1.394 . S
C5966 H5974 0.930 . S
C5967 C5966 1.394 . S
C5967 C5968 1.383 . S
C5967 H5975 0.929 . S
C5968 C5967 1.383 . S
C5968 C5969 1.377 . S
C5969 H5953 0.930 . S
C5969 C5968 1.377 . S
C5969 C5970 1.379 . S
C5970 H5954 0.931 . S
C5970 C5964 1.383 . S
C5970 C5969 1.379 . S
H5971 C5965 0.959 . S
H5972 C5965 0.961 . S
H5973 C5965 0.960 . S
H5974 C5966 0.930 . S
H5975 C5967 0.929 . S
H5976 C5984 0.929 . S
H5977 C5986 0.930 . S
H5978 C5988 0.930 1_655 S
H5979 C5991 0.929 . S
H5980 C5994 0.930 1_455 S
H5981 C5996 0.960 . S
H5982 C5996 0.960 . S
H5983 C5996 0.960 . S
C5984 H5976 0.929 . S
C5984 C5985 1.377 . S
C5984 C5986 1.384 . S
C5985 C5984 1.377 . S
C5985 C5991 1.390 . S
C5986 H5977 0.930 . S
C5986 C5984 1.384 . S
C5986 C5987 1.372 . S
C5987 C5986 1.372 . S
C5987 C5988 1.400 . S
C5987 C5992 1.490 1_455 S
C5988 H5978 0.930 1_455 S
C5988 C5987 1.400 . S
C5988 C5991 1.386 . S
H5989 C6005 0.930 . S
H5990 C6006 0.931 . S
C5991 H5979 0.929 . S
C5991 C5985 1.390 . S
C5991 C5988 1.386 . S
C5992 C5987 1.490 1_655 S
C5992 C5994 1.395 . S
C5992 C5995 1.403 . S
H5993 C5999 0.930 . S
C5994 H5980 0.930 1_655 S
C5994 C5992 1.395 . S
C5994 C5997 1.403 . S
C5995 C5992 1.403 . S
C5995 C5996 1.524 . S
C5995 C5999 1.400 . S
C5996 H5981 0.960 . S
C5996 H5982 0.960 . S
C5996 H5983 0.960 . S
C5996 C5995 1.524 . S
C5997 C5994 1.403 . S
C5997 C5998 1.392 . S
C5997 C6001 1.495 . S
C5998 C5997 1.392 . S
C5998 C5999 1.385 . S
C5998 C6000 1.478 . S
C5999 H5993 0.930 . S
C5999 C5995 1.400 . S
C5999 C5998 1.385 . S
C6000 C5998 1.478 . S
C6000 C6002 1.381 . S
C6000 C6006 1.383 . S
C6001 C5997 1.495 . S
C6001 H6007 0.959 1_655 S
C6001 H6008 0.961 . S
C6001 H6009 0.960 . S
C6002 C6000 1.381 . S
C6002 C6003 1.394 . S
C6002 H6010 0.930 . S
C6003 C6002 1.394 . S
C6003 C6004 1.383 . S
C6003 H6011 0.929 . S
C6004 C6003 1.383 . S
C6004 C6005 1.377 . S
C6005 H5989 0.930 . S
C6005 C6004 1.377 . S
C6005 C6006 1.379 . S
C6006 H5990 0.931 . S
C6006 C6000 1.383 . S
C6006 C6005 1.379 . S
H6007 C6001 0.959 1_455 S
H6008 C6001 0.961 . S
H6009 C6001 0.960 . S
H6010 C6002 0.930 . S
H6011 C6003 0.929 . S
H6012 C6020 0.929 . S
H6013 C6022 0.930 . S
H6014 C6024 0.930 . S
H6015 C6027 0.929 . S
H6016 C6030 0.930 . S
H6017 C6032 0.960 . S
H6018 C6032 0.960 . S
H6019 C6032 0.960 . S
C6020 H6012 0.929 . S
C6020 C6021 1.377 . S
C6020 C6022 1.384 . S
C6021 C6020 1.377 . S
C6021 C6027 1.390 . S
C6022 H6013 0.930 . S
C6022 C6020 1.384 . S
C6022 C6023 1.372 . S
C6023 C6022 1.372 . S
C6023 C6024 1.400 . S
C6023 C6028 1.490 . S
C6024 H6014 0.930 . S
C6024 C6023 1.400 . S
C6024 C6027 1.386 . S
H6025 C6041 0.930 1_545 S
H6026 C6042 0.931 . S
C6027 H6015 0.929 . S
C6027 C6021 1.390 . S
C6027 C6024 1.386 . S
C6028 C6023 1.490 . S
C6028 C6030 1.395 . S
C6028 C6031 1.403 . S
H6029 C6035 0.930 . S
C6030 H6016 0.930 . S
C6030 C6028 1.395 . S
C6030 C6033 1.403 . S
C6031 C6028 1.403 . S
C6031 C6032 1.524 . S
C6031 C6035 1.400 . S
C6032 H6017 0.960 . S
C6032 H6018 0.960 . S
C6032 H6019 0.960 . S
C6032 C6031 1.524 . S
C6033 C6030 1.403 . S
C6033 C6034 1.392 . S
C6033 C6037 1.495 . S
C6034 C6033 1.392 . S
C6034 C6035 1.385 . S
C6034 C6036 1.478 . S
C6035 H6029 0.930 . S
C6035 C6031 1.400 . S
C6035 C6034 1.385 . S
C6036 C6034 1.478 . S
C6036 C6038 1.381 . S
C6036 C6042 1.383 . S
C6037 C6033 1.495 . S
C6037 H6043 0.959 . S
C6037 H6044 0.961 . S
C6037 H6045 0.960 . S
C6038 C6036 1.381 . S
C6038 C6039 1.394 . S
C6038 H6046 0.930 . S
C6039 C6038 1.394 . S
C6039 C6040 1.383 . S
C6039 H6047 0.929 . S
C6040 C6039 1.383 . S
C6040 C6041 1.377 . S
C6041 H6025 0.930 1_565 S
C6041 C6040 1.377 . S
C6041 C6042 1.379 . S
C6042 H6026 0.931 . S
C6042 C6036 1.383 . S
C6042 C6041 1.379 . S
H6043 C6037 0.959 . S
H6044 C6037 0.961 . S
H6045 C6037 0.960 . S
H6046 C6038 0.930 . S
H6047 C6039 0.929 . S
H6048 C6056 0.929 . S
H6049 C6058 0.930 . S
H6050 C6060 0.930 . S
H6051 C6063 0.929 . S
H6052 C6066 0.930 . S
H6053 C6068 0.960 . S
H6054 C6068 0.960 . S
H6055 C6068 0.960 . S
C6056 H6048 0.929 . S
C6056 C6057 1.377 . S
C6056 C6058 1.384 . S
C6057 C6056 1.377 . S
C6057 C6063 1.390 . S
C6058 H6049 0.930 . S
C6058 C6056 1.384 . S
C6058 C6059 1.372 . S
C6059 C6058 1.372 . S
C6059 C6060 1.400 . S
C6059 C6064 1.490 . S
C6060 H6050 0.930 . S
C6060 C6059 1.400 . S
C6060 C6063 1.386 . S
H6061 C6077 0.930 . S
H6062 C6078 0.931 . S
C6063 H6051 0.929 . S
C6063 C6057 1.390 . S
C6063 C6060 1.386 . S
C6064 C6059 1.490 . S
C6064 C6066 1.395 . S
C6064 C6067 1.403 . S
H6065 C6071 0.930 . S
C6066 H6052 0.930 . S
C6066 C6064 1.395 . S
C6066 C6069 1.403 . S
C6067 C6064 1.403 . S
C6067 C6068 1.524 . S
C6067 C6071 1.400 . S
C6068 H6053 0.960 . S
C6068 H6054 0.960 . S
C6068 H6055 0.960 . S
C6068 C6067 1.524 . S
C6069 C6066 1.403 . S
C6069 C6070 1.392 . S
C6069 C6073 1.495 . S
C6070 C6069 1.392 . S
C6070 C6071 1.385 . S
C6070 C6072 1.478 . S
C6071 H6065 0.930 . S
C6071 C6067 1.400 . S
C6071 C6070 1.385 . S
C6072 C6070 1.478 . S
C6072 C6074 1.381 . S
C6072 C6078 1.383 . S
C6073 C6069 1.495 . S
C6073 H6079 0.959 . S
C6073 H6080 0.961 . S
C6073 H6081 0.960 . S
C6074 C6072 1.381 . S
C6074 C6075 1.394 . S
C6074 H6082 0.930 . S
C6075 C6074 1.394 . S
C6075 C6076 1.383 . S
C6075 H6083 0.929 . S
C6076 C6075 1.383 . S
C6076 C6077 1.377 . S
C6077 H6061 0.930 . S
C6077 C6076 1.377 . S
C6077 C6078 1.379 . S
C6078 H6062 0.931 . S
C6078 C6072 1.383 . S
C6078 C6077 1.379 . S
H6079 C6073 0.959 . S
H6080 C6073 0.961 . S
H6081 C6073 0.960 . S
H6082 C6074 0.930 . S
H6083 C6075 0.929 . S
H6084 C6092 0.929 . S
H6085 C6094 0.930 1_655 S
H6086 C6096 0.930 . S
H6087 C6099 0.929 . S
H6088 C6102 0.930 . S
H6089 C6104 0.960 . S
H6090 C6104 0.960 . S
H6091 C6104 0.960 . S
C6092 H6084 0.929 . S
C6092 C6093 1.377 . S
C6092 C6094 1.384 . S
C6093 C6092 1.377 . S
C6093 C6099 1.390 . S
C6094 H6085 0.930 1_455 S
C6094 C6092 1.384 . S
C6094 C6095 1.372 . S
C6095 C6094 1.372 . S
C6095 C6096 1.400 . S
C6095 C6100 1.490 1_455 S
C6096 H6086 0.930 . S
C6096 C6095 1.400 . S
C6096 C6099 1.386 . S
H6097 C6113 0.930 . S
H6098 C6114 0.931 . S
C6099 H6087 0.929 . S
C6099 C6093 1.390 . S
C6099 C6096 1.386 . S
C6100 C6095 1.490 1_655 S
C6100 C6102 1.395 . S
C6100 C6103 1.403 . S
H6101 C6107 0.930 . S
C6102 H6088 0.930 . S
C6102 C6100 1.395 . S
C6102 C6105 1.403 . S
C6103 C6100 1.403 . S
C6103 C6104 1.524 1_655 S
C6103 C6107 1.400 . S
C6104 H6089 0.960 . S
C6104 H6090 0.960 . S
C6104 H6091 0.960 . S
C6104 C6103 1.524 1_455 S
C6105 C6102 1.403 . S
C6105 C6106 1.392 . S
C6105 C6109 1.495 . S
C6106 C6105 1.392 . S
C6106 C6107 1.385 . S
C6106 C6108 1.478 . S
C6107 H6101 0.930 . S
C6107 C6103 1.400 . S
C6107 C6106 1.385 . S
C6108 C6106 1.478 . S
C6108 C6110 1.381 . S
C6108 C6114 1.383 . S
C6109 C6105 1.495 . S
C6109 H6115 0.959 . S
C6109 H6116 0.961 . S
C6109 H6117 0.960 . S
C6110 C6108 1.381 . S
C6110 C6111 1.394 . S
C6110 H6118 0.930 . S
C6111 C6110 1.394 . S
C6111 C6112 1.383 . S
C6111 H6119 0.929 . S
C6112 C6111 1.383 . S
C6112 C6113 1.377 . S
C6113 H6097 0.930 . S
C6113 C6112 1.377 . S
C6113 C6114 1.379 . S
C6114 H6098 0.931 . S
C6114 C6108 1.383 . S
C6114 C6113 1.379 . S
H6115 C6109 0.959 . S
H6116 C6109 0.961 . S
H6117 C6109 0.960 . S
H6118 C6110 0.930 . S
H6119 C6111 0.929 . S
H6120 C6128 0.929 . S
H6121 C6130 0.930 . S
H6122 C6132 0.930 . S
H6123 C6135 0.929 1_545 S
H6124 C6138 0.930 . S
H6125 C6140 0.960 . S
H6126 C6140 0.960 . S
H6127 C6140 0.960 . S
C6128 H6120 0.929 . S
C6128 C6129 1.377 . S
C6128 C6130 1.384 . S
C6129 C6128 1.377 . S
C6129 C6135 1.390 . S
C6130 H6121 0.930 . S
C6130 C6128 1.384 . S
C6130 C6131 1.372 . S
C6131 C6130 1.372 . S
C6131 C6132 1.400 . S
C6131 C6136 1.490 . S
C6132 H6122 0.930 . S
C6132 C6131 1.400 . S
C6132 C6135 1.386 . S
H6133 C6149 0.930 . S
H6134 C6150 0.931 . S
C6135 H6123 0.929 1_565 S
C6135 C6129 1.390 . S
C6135 C6132 1.386 . S
C6136 C6131 1.490 . S
C6136 C6138 1.395 . S
C6136 C6139 1.403 . S
H6137 C6143 0.930 . S
C6138 H6124 0.930 . S
C6138 C6136 1.395 . S
C6138 C6141 1.403 . S
C6139 C6136 1.403 . S
C6139 C6140 1.524 . S
C6139 C6143 1.400 . S
C6140 H6125 0.960 . S
C6140 H6126 0.960 . S
C6140 H6127 0.960 . S
C6140 C6139 1.524 . S
C6141 C6138 1.403 . S
C6141 C6142 1.392 . S
C6141 C6145 1.495 . S
C6142 C6141 1.392 . S
C6142 C6143 1.385 . S
C6142 C6144 1.478 . S
C6143 H6137 0.930 . S
C6143 C6139 1.400 . S
C6143 C6142 1.385 . S
C6144 C6142 1.478 . S
C6144 C6146 1.381 . S
C6144 C6150 1.383 . S
C6145 C6141 1.495 . S
C6145 H6151 0.959 . S
C6145 H6152 0.961 . S
C6145 H6153 0.960 . S
C6146 C6144 1.381 . S
C6146 C6147 1.394 . S
C6146 H6154 0.930 . S
C6147 C6146 1.394 . S
C6147 C6148 1.383 . S
C6147 H6155 0.929 . S
C6148 C6147 1.383 . S
C6148 C6149 1.377 . S
C6149 H6133 0.930 . S
C6149 C6148 1.377 . S
C6149 C6150 1.379 . S
C6150 H6134 0.931 . S
C6150 C6144 1.383 . S
C6150 C6149 1.379 . S
H6151 C6145 0.959 . S
H6152 C6145 0.961 . S
H6153 C6145 0.960 . S
H6154 C6146 0.930 . S
H6155 C6147 0.929 . S
H6156 C6164 0.929 . S
H6157 C6166 0.930 . S
H6158 C6168 0.930 . S
H6159 C6171 0.929 . S
H6160 C6174 0.930 . S
H6161 C6176 0.960 . S
H6162 C6176 0.960 . S
H6163 C6176 0.960 . S
C6164 H6156 0.929 . S
C6164 C6165 1.377 . S
C6164 C6166 1.384 . S
C6165 C6164 1.377 . S
C6165 C6171 1.390 . S
C6166 H6157 0.930 . S
C6166 C6164 1.384 . S
C6166 C6167 1.372 . S
C6167 C6166 1.372 . S
C6167 C6168 1.400 . S
C6167 C6172 1.490 . S
C6168 H6158 0.930 . S
C6168 C6167 1.400 . S
C6168 C6171 1.386 . S
H6169 C6185 0.930 . S
H6170 C6186 0.931 . S
C6171 H6159 0.929 . S
C6171 C6165 1.390 . S
C6171 C6168 1.386 . S
C6172 C6167 1.490 . S
C6172 C6174 1.395 . S
C6172 C6175 1.403 . S
H6173 C6179 0.930 . S
C6174 H6160 0.930 . S
C6174 C6172 1.395 . S
C6174 C6177 1.403 . S
C6175 C6172 1.403 . S
C6175 C6176 1.524 . S
C6175 C6179 1.400 . S
C6176 H6161 0.960 . S
C6176 H6162 0.960 . S
C6176 H6163 0.960 . S
C6176 C6175 1.524 . S
C6177 C6174 1.403 . S
C6177 C6178 1.392 . S
C6177 C6181 1.495 . S
C6178 C6177 1.392 . S
C6178 C6179 1.385 . S
C6178 C6180 1.478 . S
C6179 H6173 0.930 . S
C6179 C6175 1.400 . S
C6179 C6178 1.385 . S
C6180 C6178 1.478 . S
C6180 C6182 1.381 . S
C6180 C6186 1.383 . S
C6181 C6177 1.495 . S
C6181 H6187 0.959 . S
C6181 H6188 0.961 . S
C6181 H6189 0.960 . S
C6182 C6180 1.381 . S
C6182 C6183 1.394 . S
C6182 H6190 0.930 . S
C6183 C6182 1.394 . S
C6183 C6184 1.383 . S
C6183 H6191 0.929 . S
C6184 C6183 1.383 . S
C6184 C6185 1.377 . S
C6185 H6169 0.930 . S
C6185 C6184 1.377 . S
C6185 C6186 1.379 . S
C6186 H6170 0.931 . S
C6186 C6180 1.383 . S
C6186 C6185 1.379 . S
H6187 C6181 0.959 . S
H6188 C6181 0.961 . S
H6189 C6181 0.960 . S
H6190 C6182 0.930 . S
H6191 C6183 0.929 . S
H6192 C6200 0.929 . S
H6193 C6202 0.930 . S
H6194 C6204 0.930 . S
H6195 C6207 0.929 . S
H6196 C6210 0.930 . S
H6197 C6212 0.960 . S
H6198 C6212 0.960 . S
H6199 C6212 0.960 . S
C6200 H6192 0.929 . S
C6200 C6201 1.362 1_565 S
C6200 C6202 1.384 . S
C6201 C6200 1.362 1_545 S
C6201 C6207 1.392 . S
C6202 H6193 0.930 . S
C6202 C6200 1.384 . S
C6202 C6203 1.372 . S
C6203 C6202 1.372 . S
C6203 C6204 1.400 . S
C6203 C6208 1.490 . S
C6204 H6194 0.930 . S
C6204 C6203 1.400 . S
C6204 C6207 1.386 1_565 S
H6205 C6221 0.930 . S
H6206 C6222 0.931 . S
C6207 H6195 0.929 . S
C6207 C6201 1.392 . S
C6207 C6204 1.386 1_545 S
C6208 C6203 1.490 . S
C6208 C6210 1.395 . S
C6208 C6211 1.403 . S
H6209 C6215 0.930 . S
C6210 H6196 0.930 . S
C6210 C6208 1.395 . S
C6210 C6213 1.403 . S
C6211 C6208 1.403 . S
C6211 C6212 1.524 . S
C6211 C6215 1.400 . S
C6212 H6197 0.960 . S
C6212 H6198 0.960 . S
C6212 H6199 0.960 . S
C6212 C6211 1.524 . S
C6213 C6210 1.403 . S
C6213 C6214 1.392 . S
C6213 C6217 1.495 . S
C6214 C6213 1.392 . S
C6214 C6215 1.385 . S
C6214 C6216 1.478 . S
C6215 H6209 0.930 . S
C6215 C6211 1.400 . S
C6215 C6214 1.385 . S
C6216 C6214 1.478 . S
C6216 C6218 1.381 . S
C6216 C6222 1.383 . S
C6217 C6213 1.495 . S
C6217 H6223 0.959 . S
C6217 H6224 0.961 . S
C6217 H6225 0.960 . S
C6218 C6216 1.381 . S
C6218 C6219 1.394 . S
C6218 H6226 0.930 . S
C6219 C6218 1.394 . S
C6219 C6220 1.383 . S
C6219 H6227 0.929 . S
C6220 C6219 1.383 . S
C6220 C6221 1.377 . S
C6221 H6205 0.930 . S
C6221 C6220 1.377 . S
C6221 C6222 1.379 . S
C6222 H6206 0.931 . S
C6222 C6216 1.383 . S
C6222 C6221 1.379 . S
H6223 C6217 0.959 . S
H6224 C6217 0.961 . S
H6225 C6217 0.960 . S
H6226 C6218 0.930 . S
H6227 C6219 0.929 . S
H6228 C6236 0.929 . S
H6229 C6238 0.930 . S
H6230 C6240 0.930 . S
H6231 C6243 0.929 . S
H6232 C6246 0.930 . S
H6233 C6248 0.960 . S
H6234 C6248 0.960 . S
H6235 C6248 0.960 . S
C6236 H6228 0.929 . S
C6236 C6237 1.370 1_554 S
C6236 C6238 1.384 1_554 S
C6237 C6236 1.370 1_556 S
C6237 C6243 1.428 . S
C6238 H6229 0.930 . S
C6238 C6236 1.384 1_556 S
C6238 C6239 1.372 . S
C6239 C6238 1.372 . S
C6239 C6240 1.400 . S
C6239 C6244 1.490 . S
C6240 H6230 0.930 . S
C6240 C6239 1.400 . S
C6240 C6243 1.386 . S
H6241 C6257 0.930 . S
H6242 C6258 0.931 . S
C6243 H6231 0.929 . S
C6243 C6237 1.428 . S
C6243 C6240 1.386 . S
C6244 C6239 1.490 . S
C6244 C6246 1.395 . S
C6244 C6247 1.403 . S
H6245 C6251 0.930 . S
C6246 H6232 0.930 . S
C6246 C6244 1.395 . S
C6246 C6249 1.403 . S
C6247 C6244 1.403 . S
C6247 C6248 1.524 . S
C6247 C6251 1.400 . S
C6248 H6233 0.960 . S
C6248 H6234 0.960 . S
C6248 H6235 0.960 . S
C6248 C6247 1.524 . S
C6249 C6246 1.403 . S
C6249 C6250 1.392 . S
C6249 C6253 1.495 . S
C6250 C6249 1.392 . S
C6250 C6251 1.385 . S
C6250 C6252 1.478 . S
C6251 H6245 0.930 . S
C6251 C6247 1.400 . S
C6251 C6250 1.385 . S
C6252 C6250 1.478 . S
C6252 C6254 1.381 . S
C6252 C6258 1.383 . S
C6253 C6249 1.495 . S
C6253 H6259 0.959 . S
C6253 H6260 0.961 . S
C6253 H6261 0.960 . S
C6254 C6252 1.381 . S
C6254 C6255 1.394 . S
C6254 H6262 0.930 . S
C6255 C6254 1.394 . S
C6255 C6256 1.383 . S
C6255 H6263 0.929 . S
C6256 C6255 1.383 . S
C6256 C6257 1.377 . S
C6257 H6241 0.930 . S
C6257 C6256 1.377 . S
C6257 C6258 1.379 . S
C6258 H6242 0.931 . S
C6258 C6252 1.383 . S
C6258 C6257 1.379 . S
H6259 C6253 0.959 . S
H6260 C6253 0.961 . S
H6261 C6253 0.960 . S
H6262 C6254 0.930 . S
H6263 C6255 0.929 . S
H6264 C6272 0.967 . S
H6265 C6274 0.930 . S
H6266 C6276 0.930 . S
H6267 C6279 0.929 . S
H6268 C6282 0.930 . S
H6269 C6284 0.960 . S
H6270 C6284 0.960 . S
H6271 C6284 0.960 . S
C6272 H6264 0.967 . S
C6272 C6273 1.377 . S
C6272 C6274 1.384 . S
C6273 C6272 1.377 . S
C6273 C6279 1.390 . S
C6274 H6265 0.930 . S
C6274 C6272 1.384 . S
C6274 C6275 1.372 . S
C6275 C6274 1.372 . S
C6275 C6276 1.400 . S
C6275 C6280 1.490 . S
C6276 H6266 0.930 . S
C6276 C6275 1.400 . S
C6276 C6279 1.386 . S
H6277 C6293 0.930 . S
H6278 C6294 0.931 . S
C6279 H6267 0.929 . S
C6279 C6273 1.390 . S
C6279 C6276 1.386 . S
C6280 C6275 1.490 . S
C6280 C6282 1.395 . S
C6280 C6283 1.403 . S
H6281 C6287 0.930 . S
C6282 H6268 0.930 . S
C6282 C6280 1.395 . S
C6282 C6285 1.403 . S
C6283 C6280 1.403 . S
C6283 C6284 1.524 . S
C6283 C6287 1.400 . S
C6284 H6269 0.960 . S
C6284 H6270 0.960 . S
C6284 H6271 0.960 . S
C6284 C6283 1.524 . S
C6285 C6282 1.403 . S
C6285 C6286 1.392 . S
C6285 C6289 1.495 . S
C6286 C6285 1.392 . S
C6286 C6287 1.385 . S
C6286 C6288 1.478 . S
C6287 H6281 0.930 . S
C6287 C6283 1.400 . S
C6287 C6286 1.385 . S
C6288 C6286 1.478 . S
C6288 C6290 1.381 . S
C6288 C6294 1.383 . S
C6289 C6285 1.495 . S
C6289 H6295 0.959 . S
C6289 H6296 0.961 . S
C6289 H6297 0.960 . S
C6290 C6288 1.381 . S
C6290 C6291 1.394 . S
C6290 H6298 0.930 . S
C6291 C6290 1.394 . S
C6291 C6292 1.383 . S
C6291 H6299 0.929 . S
C6292 C6291 1.383 . S
C6292 C6293 1.377 . S
C6293 H6277 0.930 . S
C6293 C6292 1.377 . S
C6293 C6294 1.379 . S
C6294 H6278 0.931 . S
C6294 C6288 1.383 . S
C6294 C6293 1.379 . S
H6295 C6289 0.959 . S
H6296 C6289 0.961 . S
H6297 C6289 0.960 . S
H6298 C6290 0.930 . S
H6299 C6291 0.929 . S
H6300 C6308 0.929 . S
H6301 C6310 0.930 . S
H6302 C6312 0.910 1_455 S
H6303 C6315 0.929 . S
H6304 C6318 0.930 . S
H6305 C6320 0.953 1_455 S
H6306 C6320 0.960 . S
H6307 C6320 0.960 1_455 S
C6308 H6300 0.929 . S
C6308 C6309 1.377 1_655 S
C6308 C6310 1.384 . S
C6309 C6308 1.377 1_455 S
C6309 C6315 1.390 . S
C6310 H6301 0.930 . S
C6310 C6308 1.384 . S
C6310 C6311 1.372 . S
C6311 C6310 1.372 . S
C6311 C6312 1.448 . S
C6311 C6316 1.490 . S
C6312 H6302 0.910 1_655 S
C6312 C6311 1.448 . S
C6312 C6315 1.360 1_655 S
H6313 C6329 0.886 1_554 S
H6314 C6330 0.931 . S
C6315 H6303 0.929 . S
C6315 C6309 1.390 . S
C6315 C6312 1.360 1_455 S
C6316 C6311 1.490 . S
C6316 C6318 1.395 . S
C6316 C6319 1.403 . S
H6317 C6323 0.930 . S
C6318 H6304 0.930 . S
C6318 C6316 1.395 . S
C6318 C6321 1.403 . S
C6319 C6316 1.403 . S
C6319 C6320 1.524 . S
C6319 C6323 1.400 . S
C6320 H6305 0.953 1_655 S
C6320 H6306 0.960 . S
C6320 H6307 0.960 1_655 S
C6320 C6319 1.524 . S
C6321 C6318 1.403 . S
C6321 C6322 1.392 . S
C6321 C6325 1.495 . S
C6322 C6321 1.392 . S
C6322 C6323 1.385 . S
C6322 C6324 1.478 . S
C6323 H6317 0.930 . S
C6323 C6319 1.400 . S
C6323 C6322 1.385 . S
C6324 C6322 1.478 . S
C6324 C6326 1.381 . S
C6324 C6330 1.383 . S
C6325 C6321 1.495 . S
C6325 H6331 0.959 . S
C6325 H6332 0.961 . S
C6325 H6333 0.960 . S
C6326 C6324 1.381 . S
C6326 C6327 1.394 . S
C6326 H6334 0.930 . S
C6327 C6326 1.394 . S
C6327 C6328 1.383 . S
C6327 H6335 0.929 . S
C6328 C6327 1.383 . S
C6328 C6329 1.383 . S
C6329 H6313 0.886 1_556 S
C6329 C6328 1.383 . S
C6329 C6330 1.418 . S
C6330 H6314 0.931 . S
C6330 C6324 1.383 . S
C6330 C6329 1.418 . S
H6331 C6325 0.959 . S
H6332 C6325 0.961 . S
H6333 C6325 0.960 . S
H6334 C6326 0.930 . S
H6335 C6327 0.929 . S
H6336 C6344 0.929 . S
H6337 C6346 0.930 . S
H6338 C6348 0.930 . S
H6339 C6351 0.929 . S
H6340 C6354 0.930 . S
H6341 C6356 0.960 . S
H6342 C6356 0.960 . S
H6343 C6356 0.960 . S
C6344 H6336 0.929 . S
C6344 C6345 1.377 . S
C6344 C6346 1.384 . S
C6345 C6344 1.377 . S
C6345 C6351 1.390 . S
C6346 H6337 0.930 . S
C6346 C6344 1.384 . S
C6346 C6347 1.372 . S
C6347 C6346 1.372 . S
C6347 C6348 1.400 . S
C6347 C6352 1.490 . S
C6348 H6338 0.930 . S
C6348 C6347 1.400 . S
C6348 C6351 1.386 . S
H6349 C6365 0.930 . S
H6350 C6366 0.931 . S
C6351 H6339 0.929 . S
C6351 C6345 1.390 . S
C6351 C6348 1.386 . S
C6352 C6347 1.490 . S
C6352 C6354 1.395 . S
C6352 C6355 1.403 . S
H6353 C6359 0.930 . S
C6354 H6340 0.930 . S
C6354 C6352 1.395 . S
C6354 C6357 1.403 . S
C6355 C6352 1.403 . S
C6355 C6356 1.524 . S
C6355 C6359 1.400 . S
C6356 H6341 0.960 . S
C6356 H6342 0.960 . S
C6356 H6343 0.960 . S
C6356 C6355 1.524 . S
C6357 C6354 1.403 . S
C6357 C6358 1.392 . S
C6357 C6361 1.495 . S
C6358 C6357 1.392 . S
C6358 C6359 1.385 . S
C6358 C6360 1.478 . S
C6359 H6353 0.930 . S
C6359 C6355 1.400 . S
C6359 C6358 1.385 . S
C6360 C6358 1.478 . S
C6360 C6362 1.381 . S
C6360 C6366 1.383 . S
C6361 C6357 1.495 . S
C6361 H6367 0.959 . S
C6361 H6368 0.961 . S
C6361 H6369 0.960 . S
C6362 C6360 1.381 . S
C6362 C6363 1.394 . S
C6362 H6370 0.930 . S
C6363 C6362 1.394 . S
C6363 C6364 1.383 . S
C6363 H6371 0.929 . S
C6364 C6363 1.383 . S
C6364 C6365 1.377 . S
C6365 H6349 0.930 . S
C6365 C6364 1.377 . S
C6365 C6366 1.379 . S
C6366 H6350 0.931 . S
C6366 C6360 1.383 . S
C6366 C6365 1.379 . S
H6367 C6361 0.959 . S
H6368 C6361 0.961 . S
H6369 C6361 0.960 . S
H6370 C6362 0.930 . S
H6371 C6363 0.929 . S
H6372 C6380 0.929 . S
H6373 C6382 0.930 . S
H6374 C6384 0.930 . S
H6375 C6387 0.929 . S
H6376 C6390 0.930 . S
H6377 C6392 0.960 . S
H6378 C6392 0.960 . S
H6379 C6392 0.960 . S
C6380 H6372 0.929 . S
C6380 C6381 1.377 . S
C6380 C6382 1.384 . S
C6381 C6380 1.377 . S
C6381 C6387 1.390 . S
C6382 H6373 0.930 . S
C6382 C6380 1.384 . S
C6382 C6383 1.372 . S
C6383 C6382 1.372 . S
C6383 C6384 1.400 . S
C6383 C6388 1.490 . S
C6384 H6374 0.930 . S
C6384 C6383 1.400 . S
C6384 C6387 1.386 . S
H6385 C6401 0.930 . S
H6386 C6402 0.931 . S
C6387 H6375 0.929 . S
C6387 C6381 1.390 . S
C6387 C6384 1.386 . S
C6388 C6383 1.490 . S
C6388 C6390 1.395 . S
C6388 C6391 1.403 . S
H6389 C6395 0.930 . S
C6390 H6376 0.930 . S
C6390 C6388 1.395 . S
C6390 C6393 1.403 . S
C6391 C6388 1.403 . S
C6391 C6392 1.524 . S
C6391 C6395 1.400 . S
C6392 H6377 0.960 . S
C6392 H6378 0.960 . S
C6392 H6379 0.960 . S
C6392 C6391 1.524 . S
C6393 C6390 1.403 . S
C6393 C6394 1.392 . S
C6393 C6397 1.495 . S
C6394 C6393 1.392 . S
C6394 C6395 1.385 . S
C6394 C6396 1.478 . S
C6395 H6389 0.930 . S
C6395 C6391 1.400 . S
C6395 C6394 1.385 . S
C6396 C6394 1.478 . S
C6396 C6398 1.381 . S
C6396 C6402 1.383 . S
C6397 C6393 1.495 . S
C6397 H6403 0.959 . S
C6397 H6404 0.961 . S
C6397 H6405 0.960 . S
C6398 C6396 1.381 . S
C6398 C6399 1.394 . S
C6398 H6406 0.930 . S
C6399 C6398 1.394 . S
C6399 C6400 1.383 . S
C6399 H6407 0.929 . S
C6400 C6399 1.383 . S
C6400 C6401 1.377 . S
C6401 H6385 0.930 . S
C6401 C6400 1.377 . S
C6401 C6402 1.379 . S
C6402 H6386 0.931 . S
C6402 C6396 1.383 . S
C6402 C6401 1.379 . S
H6403 C6397 0.959 . S
H6404 C6397 0.961 . S
H6405 C6397 0.960 . S
H6406 C6398 0.930 . S
H6407 C6399 0.929 . S
H6408 C6416 0.931 1_554 S
H6409 C6418 0.930 . S
H6410 C6420 0.930 . S
H6411 C6423 0.929 . S
H6412 C6426 0.930 . S
H6413 C6428 0.960 . S
H6414 C6428 0.960 . S
H6415 C6428 0.960 . S
C6416 H6408 0.931 1_556 S
C6416 C6417 1.372 1_556 S
C6416 C6418 1.384 . S
C6417 C6416 1.372 1_554 S
C6417 C6423 1.381 1_554 S
C6418 H6409 0.930 . S
C6418 C6416 1.384 . S
C6418 C6419 1.372 . S
C6419 C6418 1.372 . S
C6419 C6420 1.400 . S
C6419 C6424 1.490 . S
C6420 H6410 0.930 . S
C6420 C6419 1.400 . S
C6420 C6423 1.386 . S
H6421 C6437 0.930 . S
H6422 C6438 0.931 . S
C6423 H6411 0.929 . S
C6423 C6417 1.381 1_556 S
C6423 C6420 1.386 . S
C6424 C6419 1.490 . S
C6424 C6426 1.395 . S
C6424 C6427 1.403 . S
H6425 C6431 0.930 . S
C6426 H6412 0.930 . S
C6426 C6424 1.395 . S
C6426 C6429 1.403 . S
C6427 C6424 1.403 . S
C6427 C6428 1.524 . S
C6427 C6431 1.400 . S
C6428 H6413 0.960 . S
C6428 H6414 0.960 . S
C6428 H6415 0.960 . S
C6428 C6427 1.524 . S
C6429 C6426 1.403 . S
C6429 C6430 1.392 . S
C6429 C6433 1.495 . S
C6430 C6429 1.392 . S
C6430 C6431 1.385 . S
C6430 C6432 1.478 . S
C6431 H6425 0.930 . S
C6431 C6427 1.400 . S
C6431 C6430 1.385 . S
C6432 C6430 1.478 . S
C6432 C6434 1.381 . S
C6432 C6438 1.383 . S
C6433 C6429 1.495 . S
C6433 H6439 0.959 . S
C6433 H6440 0.961 . S
C6433 H6441 0.960 . S
C6434 C6432 1.381 . S
C6434 C6435 1.394 . S
C6434 H6442 0.930 . S
C6435 C6434 1.394 . S
C6435 C6436 1.383 . S
C6435 H6443 0.929 . S
C6436 C6435 1.383 . S
C6436 C6437 1.377 . S
C6437 H6421 0.930 . S
C6437 C6436 1.377 . S
C6437 C6438 1.379 . S
C6438 H6422 0.931 . S
C6438 C6432 1.383 . S
C6438 C6437 1.379 . S
H6439 C6433 0.959 . S
H6440 C6433 0.961 . S
H6441 C6433 0.960 . S
H6442 C6434 0.930 . S
H6443 C6435 0.929 . S
H6444 C6452 0.929 . S
H6445 C6454 0.930 . S
H6446 C6456 0.930 . S
H6447 C6459 0.929 . S
H6448 C6462 0.930 . S
H6449 C6464 0.960 . S
H6450 C6464 0.960 . S
H6451 C6464 0.960 . S
C6452 H6444 0.929 . S
C6452 C6453 1.377 . S
C6452 C6454 1.384 . S
C6453 C6452 1.377 . S
C6453 C6459 1.390 1_655 S
C6454 H6445 0.930 . S
C6454 C6452 1.384 . S
C6454 C6455 1.372 . S
C6455 C6454 1.372 . S
C6455 C6456 1.400 . S
C6455 C6460 1.490 . S
C6456 H6446 0.930 . S
C6456 C6455 1.400 . S
C6456 C6459 1.386 1_655 S
H6457 C6473 0.889 1_554 S
H6458 C6474 0.931 . S
C6459 H6447 0.929 . S
C6459 C6453 1.390 1_455 S
C6459 C6456 1.386 1_455 S
C6460 C6455 1.490 . S
C6460 C6462 1.395 . S
C6460 C6463 1.403 . S
H6461 C6467 0.930 . S
C6462 H6448 0.930 . S
C6462 C6460 1.395 . S
C6462 C6465 1.403 . S
C6463 C6460 1.403 . S
C6463 C6464 1.524 . S
C6463 C6467 1.400 . S
C6464 H6449 0.960 . S
C6464 H6450 0.960 . S
C6464 H6451 0.960 . S
C6464 C6463 1.524 . S
C6465 C6462 1.403 . S
C6465 C6466 1.392 . S
C6465 C6469 1.495 . S
C6466 C6465 1.392 . S
C6466 C6467 1.385 . S
C6466 C6468 1.478 . S
C6467 H6461 0.930 . S
C6467 C6463 1.400 . S
C6467 C6466 1.385 . S
C6468 C6466 1.478 . S
C6468 C6470 1.381 . S
C6468 C6474 1.383 . S
C6469 C6465 1.495 . S
C6469 H6475 0.959 . S
C6469 H6476 0.961 . S
C6469 H6477 0.960 . S
C6470 C6468 1.381 . S
C6470 C6471 1.394 . S
C6470 H6478 0.930 . S
C6471 C6470 1.394 . S
C6471 C6472 1.383 . S
C6471 H6479 0.929 . S
C6472 C6471 1.383 . S
C6472 C6473 1.377 . S
C6473 H6457 0.889 1_556 S
C6473 C6472 1.377 . S
C6473 C6474 1.379 . S
C6474 H6458 0.931 . S
C6474 C6468 1.383 . S
C6474 C6473 1.379 . S
H6475 C6469 0.959 . S
H6476 C6469 0.961 . S
H6477 C6469 0.960 . S
H6478 C6470 0.930 . S
H6479 C6471 0.929 . S
H6480 C6488 0.929 . S
H6481 C6490 0.930 . S
H6482 C6492 0.930 . S
H6483 C6495 0.929 . S
H6484 C6498 0.930 . S
H6485 C6500 0.960 . S
H6486 C6500 0.960 . S
H6487 C6500 0.960 . S
C6488 H6480 0.929 . S
C6488 C6489 1.377 . S
C6488 C6490 1.384 . S
C6489 C6488 1.377 . S
C6489 C6495 1.390 . S
C6490 H6481 0.930 . S
C6490 C6488 1.384 . S
C6490 C6491 1.372 . S
C6491 C6490 1.372 . S
C6491 C6492 1.400 . S
C6491 C6496 1.490 . S
C6492 H6482 0.930 . S
C6492 C6491 1.400 . S
C6492 C6495 1.386 . S
H6493 C6509 0.930 . S
H6494 C6510 0.931 . S
C6495 H6483 0.929 . S
C6495 C6489 1.390 . S
C6495 C6492 1.386 . S
C6496 C6491 1.490 . S
C6496 C6498 1.395 . S
C6496 C6499 1.403 . S
H6497 C6503 0.930 . S
C6498 H6484 0.930 . S
C6498 C6496 1.395 . S
C6498 C6501 1.403 . S
C6499 C6496 1.403 . S
C6499 C6500 1.524 . S
C6499 C6503 1.400 . S
C6500 H6485 0.960 . S
C6500 H6486 0.960 . S
C6500 H6487 0.960 . S
C6500 C6499 1.524 . S
C6501 C6498 1.403 . S
C6501 C6502 1.392 . S
C6501 C6505 1.495 . S
C6502 C6501 1.392 . S
C6502 C6503 1.385 . S
C6502 C6504 1.478 . S
C6503 H6497 0.930 . S
C6503 C6499 1.400 . S
C6503 C6502 1.385 . S
C6504 C6502 1.478 . S
C6504 C6506 1.381 . S
C6504 C6510 1.383 . S
C6505 C6501 1.495 . S
C6505 H6511 0.959 . S
C6505 H6512 0.961 . S
C6505 H6513 0.960 . S
C6506 C6504 1.381 . S
C6506 C6507 1.394 . S
C6506 H6514 0.930 . S
C6507 C6506 1.394 . S
C6507 C6508 1.383 . S
C6507 H6515 0.929 . S
C6508 C6507 1.383 . S
C6508 C6509 1.377 . S
C6509 H6493 0.930 . S
C6509 C6508 1.377 . S
C6509 C6510 1.379 . S
C6510 H6494 0.931 . S
C6510 C6504 1.383 . S
C6510 C6509 1.379 . S
H6511 C6505 0.959 . S
H6512 C6505 0.961 . S
H6513 C6505 0.960 . S
H6514 C6506 0.930 . S
H6515 C6507 0.929 . S
H6516 C6524 0.929 1_455 S
H6517 C6526 0.930 . S
H6518 C6528 0.930 . S
H6519 C6531 0.929 . S
H6520 C6534 0.930 . S
H6521 C6536 0.960 . S
H6522 C6536 0.960 . S
H6523 C6536 0.960 . S
C6524 H6516 0.929 1_655 S
C6524 C6525 1.385 . S
C6524 C6526 1.384 . S
C6525 C6524 1.385 . S
C6525 C6531 1.411 . S
C6526 H6517 0.930 . S
C6526 C6524 1.384 . S
C6526 C6527 1.372 . S
C6527 C6526 1.372 . S
C6527 C6528 1.400 . S
C6527 C6532 1.490 . S
C6528 H6518 0.930 . S
C6528 C6527 1.400 . S
C6528 C6531 1.386 . S
H6529 C6545 0.930 . S
H6530 C6546 0.931 . S
C6531 H6519 0.929 . S
C6531 C6525 1.411 . S
C6531 C6528 1.386 . S
C6532 C6527 1.490 . S
C6532 C6534 1.395 . S
C6532 C6535 1.403 . S
H6533 C6539 0.930 . S
C6534 H6520 0.930 . S
C6534 C6532 1.395 . S
C6534 C6537 1.403 . S
C6535 C6532 1.403 . S
C6535 C6536 1.524 . S
C6535 C6539 1.400 . S
C6536 H6521 0.960 . S
C6536 H6522 0.960 . S
C6536 H6523 0.960 . S
C6536 C6535 1.524 . S
C6537 C6534 1.403 . S
C6537 C6538 1.392 . S
C6537 C6541 1.495 . S
C6538 C6537 1.392 . S
C6538 C6539 1.385 . S
C6538 C6540 1.478 . S
C6539 H6533 0.930 . S
C6539 C6535 1.400 . S
C6539 C6538 1.385 . S
C6540 C6538 1.478 . S
C6540 C6542 1.381 . S
C6540 C6546 1.383 . S
C6541 C6537 1.495 . S
C6541 H6547 0.959 . S
C6541 H6548 0.961 . S
C6541 H6549 0.960 . S
C6542 C6540 1.381 . S
C6542 C6543 1.394 . S
C6542 H6550 0.930 . S
C6543 C6542 1.394 . S
C6543 C6544 1.383 . S
C6543 H6551 0.929 . S
C6544 C6543 1.383 . S
C6544 C6545 1.377 . S
C6545 H6529 0.930 . S
C6545 C6544 1.377 . S
C6545 C6546 1.379 . S
C6546 H6530 0.931 . S
C6546 C6540 1.383 . S
C6546 C6545 1.379 . S
H6547 C6541 0.959 . S
H6548 C6541 0.961 . S
H6549 C6541 0.960 . S
H6550 C6542 0.930 . S
H6551 C6543 0.929 . S
H6552 C6560 0.929 . S
H6553 C6562 0.930 . S
H6554 C6564 0.930 . S
H6555 C6567 0.929 . S
H6556 C6570 0.930 . S
H6557 C6572 0.960 . S
H6558 C6572 0.960 . S
H6559 C6572 0.960 . S
C6560 H6552 0.929 . S
C6560 C6561 1.377 . S
C6560 C6562 1.384 1_545 S
C6561 C6560 1.377 . S
C6561 C6567 1.390 1_545 S
C6562 H6553 0.930 . S
C6562 C6560 1.384 1_565 S
C6562 C6563 1.372 . S
C6563 C6562 1.372 . S
C6563 C6564 1.400 . S
C6563 C6568 1.490 . S
C6564 H6554 0.930 . S
C6564 C6563 1.400 . S
C6564 C6567 1.386 . S
H6565 C6581 0.930 . S
H6566 C6582 0.931 . S
C6567 H6555 0.929 . S
C6567 C6561 1.390 1_565 S
C6567 C6564 1.386 . S
C6568 C6563 1.490 . S
C6568 C6570 1.395 . S
C6568 C6571 1.403 . S
H6569 C6575 0.930 . S
C6570 H6556 0.930 . S
C6570 C6568 1.395 . S
C6570 C6573 1.403 . S
C6571 C6568 1.403 . S
C6571 C6572 1.524 . S
C6571 C6575 1.400 . S
C6572 H6557 0.960 . S
C6572 H6558 0.960 . S
C6572 H6559 0.960 . S
C6572 C6571 1.524 . S
C6573 C6570 1.403 . S
C6573 C6574 1.392 . S
C6573 C6577 1.495 . S
C6574 C6573 1.392 . S
C6574 C6575 1.385 . S
C6574 C6576 1.478 . S
C6575 H6569 0.930 . S
C6575 C6571 1.400 . S
C6575 C6574 1.385 . S
C6576 C6574 1.478 . S
C6576 C6578 1.381 . S
C6576 C6582 1.383 . S
C6577 C6573 1.495 . S
C6577 H6583 0.959 . S
C6577 H6584 0.961 . S
C6577 H6585 0.960 . S
C6578 C6576 1.381 . S
C6578 C6579 1.394 . S
C6578 H6586 0.930 . S
C6579 C6578 1.394 . S
C6579 C6580 1.383 . S
C6579 H6587 0.929 . S
C6580 C6579 1.383 . S
C6580 C6581 1.377 . S
C6581 H6565 0.930 . S
C6581 C6580 1.377 . S
C6581 C6582 1.379 . S
C6582 H6566 0.931 . S
C6582 C6576 1.383 . S
C6582 C6581 1.379 . S
H6583 C6577 0.959 . S
H6584 C6577 0.961 . S
H6585 C6577 0.960 . S
H6586 C6578 0.930 . S
H6587 C6579 0.929 . S
H6588 C6596 0.929 . S
H6589 C6598 0.930 . S
H6590 C6600 0.930 . S
H6591 C6603 0.929 . S
H6592 C6606 0.930 . S
H6593 C6608 0.960 . S
H6594 C6608 0.960 . S
H6595 C6608 0.960 . S
C6596 H6588 0.929 . S
C6596 C6597 1.377 . S
C6596 C6598 1.384 . S
C6597 C6596 1.377 . S
C6597 C6603 1.390 . S
C6598 H6589 0.930 . S
C6598 C6596 1.384 . S
C6598 C6599 1.372 . S
C6599 C6598 1.372 . S
C6599 C6600 1.400 . S
C6599 C6604 1.490 . S
C6600 H6590 0.930 . S
C6600 C6599 1.400 . S
C6600 C6603 1.386 . S
H6601 C6617 0.930 . S
H6602 C6618 0.931 . S
C6603 H6591 0.929 . S
C6603 C6597 1.390 . S
C6603 C6600 1.386 . S
C6604 C6599 1.490 . S
C6604 C6606 1.395 . S
C6604 C6607 1.403 . S
H6605 C6611 0.930 . S
C6606 H6592 0.930 . S
C6606 C6604 1.395 . S
C6606 C6609 1.403 . S
C6607 C6604 1.403 . S
C6607 C6608 1.524 . S
C6607 C6611 1.400 . S
C6608 H6593 0.960 . S
C6608 H6594 0.960 . S
C6608 H6595 0.960 . S
C6608 C6607 1.524 . S
C6609 C6606 1.403 . S
C6609 C6610 1.392 . S
C6609 C6613 1.495 . S
C6610 C6609 1.392 . S
C6610 C6611 1.385 . S
C6610 C6612 1.478 . S
C6611 H6605 0.930 . S
C6611 C6607 1.400 . S
C6611 C6610 1.385 . S
C6612 C6610 1.478 . S
C6612 C6614 1.381 . S
C6612 C6618 1.383 . S
C6613 C6609 1.495 . S
C6613 H6619 0.959 . S
C6613 H6620 0.961 . S
C6613 H6621 0.960 . S
C6614 C6612 1.381 . S
C6614 C6615 1.394 . S
C6614 H6622 0.930 . S
C6615 C6614 1.394 . S
C6615 C6616 1.383 . S
C6615 H6623 0.929 . S
C6616 C6615 1.383 . S
C6616 C6617 1.377 . S
C6617 H6601 0.930 . S
C6617 C6616 1.377 . S
C6617 C6618 1.379 . S
C6618 H6602 0.931 . S
C6618 C6612 1.383 . S
C6618 C6617 1.379 . S
H6619 C6613 0.959 . S
H6620 C6613 0.961 . S
H6621 C6613 0.960 . S
H6622 C6614 0.930 . S
H6623 C6615 0.929 . S
H6624 C6632 0.929 . S
H6625 C6634 0.930 . S
H6626 C6636 0.930 . S
H6627 C6639 0.929 . S
H6628 C6642 0.930 . S
H6629 C6644 0.960 . S
H6630 C6644 0.960 . S
H6631 C6644 0.960 . S
C6632 H6624 0.929 . S
C6632 C6633 1.377 . S
C6632 C6634 1.384 . S
C6633 C6632 1.377 . S
C6633 C6639 1.390 . S
C6634 H6625 0.930 . S
C6634 C6632 1.384 . S
C6634 C6635 1.372 . S
C6635 C6634 1.372 . S
C6635 C6636 1.400 . S
C6635 C6640 1.490 . S
C6636 H6626 0.930 . S
C6636 C6635 1.400 . S
C6636 C6639 1.386 . S
H6637 C6653 0.930 . S
H6638 C6654 0.931 . S
C6639 H6627 0.929 . S
C6639 C6633 1.390 . S
C6639 C6636 1.386 . S
C6640 C6635 1.490 . S
C6640 C6642 1.395 . S
C6640 C6643 1.403 . S
H6641 C6647 0.930 . S
C6642 H6628 0.930 . S
C6642 C6640 1.395 . S
C6642 C6645 1.403 . S
C6643 C6640 1.403 . S
C6643 C6644 1.524 . S
C6643 C6647 1.400 . S
C6644 H6629 0.960 . S
C6644 H6630 0.960 . S
C6644 H6631 0.960 . S
C6644 C6643 1.524 . S
C6645 C6642 1.403 . S
C6645 C6646 1.392 . S
C6645 C6649 1.495 . S
C6646 C6645 1.392 . S
C6646 C6647 1.385 . S
C6646 C6648 1.478 . S
C6647 H6641 0.930 . S
C6647 C6643 1.400 . S
C6647 C6646 1.385 . S
C6648 C6646 1.478 . S
C6648 C6650 1.381 . S
C6648 C6654 1.383 . S
C6649 C6645 1.495 . S
C6649 H6655 0.959 . S
C6649 H6656 0.961 . S
C6649 H6657 0.960 . S
C6650 C6648 1.381 . S
C6650 C6651 1.394 . S
C6650 H6658 0.930 . S
C6651 C6650 1.394 . S
C6651 C6652 1.383 . S
C6651 H6659 0.929 . S
C6652 C6651 1.383 . S
C6652 C6653 1.377 . S
C6653 H6637 0.930 . S
C6653 C6652 1.377 . S
C6653 C6654 1.379 . S
C6654 H6638 0.931 . S
C6654 C6648 1.383 . S
C6654 C6653 1.379 . S
H6655 C6649 0.959 . S
H6656 C6649 0.961 . S
H6657 C6649 0.960 . S
H6658 C6650 0.930 . S
H6659 C6651 0.929 . S
H6660 C6668 0.929 . S
H6661 C6670 0.930 . S
H6662 C6672 0.930 . S
H6663 C6675 0.929 . S
H6664 C6678 0.930 . S
H6665 C6680 0.960 . S
H6666 C6680 0.960 . S
H6667 C6680 0.960 . S
C6668 H6660 0.929 . S
C6668 C6669 1.377 . S
C6668 C6670 1.384 . S
C6669 C6668 1.377 . S
C6669 C6675 1.390 . S
C6670 H6661 0.930 . S
C6670 C6668 1.384 . S
C6670 C6671 1.372 . S
C6671 C6670 1.372 . S
C6671 C6672 1.400 . S
C6671 C6676 1.490 . S
C6672 H6662 0.930 . S
C6672 C6671 1.400 . S
C6672 C6675 1.386 . S
H6673 C6689 0.930 . S
H6674 C6690 0.931 . S
C6675 H6663 0.929 . S
C6675 C6669 1.390 . S
C6675 C6672 1.386 . S
C6676 C6671 1.490 . S
C6676 C6678 1.395 . S
C6676 C6679 1.403 . S
H6677 C6683 0.930 . S
C6678 H6664 0.930 . S
C6678 C6676 1.395 . S
C6678 C6681 1.403 . S
C6679 C6676 1.403 . S
C6679 C6680 1.524 . S
C6679 C6683 1.400 . S
C6680 H6665 0.960 . S
C6680 H6666 0.960 . S
C6680 H6667 0.960 . S
C6680 C6679 1.524 . S
C6681 C6678 1.403 . S
C6681 C6682 1.392 . S
C6681 C6685 1.495 . S
C6682 C6681 1.392 . S
C6682 C6683 1.385 . S
C6682 C6684 1.478 . S
C6683 H6677 0.930 . S
C6683 C6679 1.400 . S
C6683 C6682 1.385 . S
C6684 C6682 1.478 . S
C6684 C6686 1.381 . S
C6684 C6690 1.383 . S
C6685 C6681 1.495 . S
C6685 H6691 0.959 . S
C6685 H6692 0.961 . S
C6685 H6693 0.960 . S
C6686 C6684 1.381 . S
C6686 C6687 1.394 . S
C6686 H6694 0.930 . S
C6687 C6686 1.394 . S
C6687 C6688 1.383 . S
C6687 H6695 0.929 . S
C6688 C6687 1.383 . S
C6688 C6689 1.377 . S
C6689 H6673 0.930 . S
C6689 C6688 1.377 . S
C6689 C6690 1.379 . S
C6690 H6674 0.931 . S
C6690 C6684 1.383 . S
C6690 C6689 1.379 . S
H6691 C6685 0.959 . S
H6692 C6685 0.961 . S
H6693 C6685 0.960 . S
H6694 C6686 0.930 . S
H6695 C6687 0.929 . S
H6696 C6704 0.929 . S
H6697 C6706 0.930 . S
H6698 C6708 0.930 . S
H6699 C6711 0.929 . S
H6700 C6714 0.930 . S
H6701 C6716 0.960 . S
H6702 C6716 0.960 . S
H6703 C6716 0.960 . S
C6704 H6696 0.929 . S
C6704 C6705 1.377 . S
C6704 C6706 1.384 . S
C6705 C6704 1.377 . S
C6705 C6711 1.390 . S
C6706 H6697 0.930 . S
C6706 C6704 1.384 . S
C6706 C6707 1.372 . S
C6707 C6706 1.372 . S
C6707 C6708 1.400 . S
C6707 C6712 1.490 . S
C6708 H6698 0.930 . S
C6708 C6707 1.400 . S
C6708 C6711 1.386 . S
H6709 C6725 0.930 . S
H6710 C6726 0.931 . S
C6711 H6699 0.929 . S
C6711 C6705 1.390 . S
C6711 C6708 1.386 . S
C6712 C6707 1.490 . S
C6712 C6714 1.395 . S
C6712 C6715 1.403 . S
H6713 C6719 0.930 . S
C6714 H6700 0.930 . S
C6714 C6712 1.395 . S
C6714 C6717 1.403 . S
C6715 C6712 1.403 . S
C6715 C6716 1.524 . S
C6715 C6719 1.400 . S
C6716 H6701 0.960 . S
C6716 H6702 0.960 . S
C6716 H6703 0.960 . S
C6716 C6715 1.524 . S
C6717 C6714 1.403 . S
C6717 C6718 1.392 . S
C6717 C6721 1.495 . S
C6718 C6717 1.392 . S
C6718 C6719 1.385 . S
C6718 C6720 1.478 . S
C6719 H6713 0.930 . S
C6719 C6715 1.400 . S
C6719 C6718 1.385 . S
C6720 C6718 1.478 . S
C6720 C6722 1.381 . S
C6720 C6726 1.383 . S
C6721 C6717 1.495 . S
C6721 H6727 0.959 . S
C6721 H6728 0.961 . S
C6721 H6729 0.960 . S
C6722 C6720 1.381 . S
C6722 C6723 1.394 . S
C6722 H6730 0.930 . S
C6723 C6722 1.394 . S
C6723 C6724 1.383 . S
C6723 H6731 0.929 . S
C6724 C6723 1.383 . S
C6724 C6725 1.377 . S
C6725 H6709 0.930 . S
C6725 C6724 1.377 . S
C6725 C6726 1.379 . S
C6726 H6710 0.931 . S
C6726 C6720 1.383 . S
C6726 C6725 1.379 . S
H6727 C6721 0.959 . S
H6728 C6721 0.961 . S
H6729 C6721 0.960 . S
H6730 C6722 0.930 . S
H6731 C6723 0.929 . S
H6732 C6740 0.929 . S
H6733 C6742 0.930 . S
H6734 C6744 0.930 . S
H6735 C6747 0.929 . S
H6736 C6750 0.930 . S
H6737 C6752 0.960 . S
H6738 C6752 0.960 . S
H6739 C6752 0.960 . S
C6740 H6732 0.929 . S
C6740 C6741 1.377 . S
C6740 C6742 1.384 . S
C6741 C6740 1.377 . S
C6741 C6747 1.390 . S
C6742 H6733 0.930 . S
C6742 C6740 1.384 . S
C6742 C6743 1.372 . S
C6743 C6742 1.372 . S
C6743 C6744 1.400 . S
C6743 C6748 1.490 . S
C6744 H6734 0.930 . S
C6744 C6743 1.400 . S
C6744 C6747 1.386 . S
H6745 C6761 0.930 . S
H6746 C6762 0.931 . S
C6747 H6735 0.929 . S
C6747 C6741 1.390 . S
C6747 C6744 1.386 . S
C6748 C6743 1.490 . S
C6748 C6750 1.395 . S
C6748 C6751 1.403 . S
H6749 C6755 0.930 . S
C6750 H6736 0.930 . S
C6750 C6748 1.395 . S
C6750 C6753 1.403 . S
C6751 C6748 1.403 . S
C6751 C6752 1.524 . S
C6751 C6755 1.400 . S
C6752 H6737 0.960 . S
C6752 H6738 0.960 . S
C6752 H6739 0.960 . S
C6752 C6751 1.524 . S
C6753 C6750 1.403 . S
C6753 C6754 1.392 . S
C6753 C6757 1.495 . S
C6754 C6753 1.392 . S
C6754 C6755 1.385 . S
C6754 C6756 1.478 . S
C6755 H6749 0.930 . S
C6755 C6751 1.400 . S
C6755 C6754 1.385 . S
C6756 C6754 1.478 . S
C6756 C6758 1.381 . S
C6756 C6762 1.383 . S
C6757 C6753 1.495 . S
C6757 H6763 0.959 . S
C6757 H6764 0.961 . S
C6757 H6765 0.960 . S
C6758 C6756 1.381 . S
C6758 C6759 1.394 . S
C6758 H6766 0.930 . S
C6759 C6758 1.394 . S
C6759 C6760 1.383 . S
C6759 H6767 0.929 . S
C6760 C6759 1.383 . S
C6760 C6761 1.377 . S
C6761 H6745 0.930 . S
C6761 C6760 1.377 . S
C6761 C6762 1.379 . S
C6762 H6746 0.931 . S
C6762 C6756 1.383 . S
C6762 C6761 1.379 . S
H6763 C6757 0.959 . S
H6764 C6757 0.961 . S
H6765 C6757 0.960 . S
H6766 C6758 0.930 . S
H6767 C6759 0.929 . S
H6768 C6776 0.929 . S
H6769 C6778 0.930 . S
H6770 C6780 0.930 . S
H6771 C6783 0.929 . S
H6772 C6786 0.930 . S
H6773 C6788 0.960 . S
H6774 C6788 0.960 . S
H6775 C6788 0.960 . S
C6776 H6768 0.929 . S
C6776 C6777 1.377 . S
C6776 C6778 1.384 . S
C6777 C6776 1.377 . S
C6777 C6783 1.390 . S
C6778 H6769 0.930 . S
C6778 C6776 1.384 . S
C6778 C6779 1.372 . S
C6779 C6778 1.372 . S
C6779 C6780 1.400 . S
C6779 C6784 1.490 . S
C6780 H6770 0.930 . S
C6780 C6779 1.400 . S
C6780 C6783 1.386 . S
H6781 C6797 0.930 . S
H6782 C6798 0.931 . S
C6783 H6771 0.929 . S
C6783 C6777 1.390 . S
C6783 C6780 1.386 . S
C6784 C6779 1.490 . S
C6784 C6786 1.395 . S
C6784 C6787 1.403 . S
H6785 C6791 0.930 . S
C6786 H6772 0.930 . S
C6786 C6784 1.395 . S
C6786 C6789 1.403 . S
C6787 C6784 1.403 . S
C6787 C6788 1.524 . S
C6787 C6791 1.400 . S
C6788 H6773 0.960 . S
C6788 H6774 0.960 . S
C6788 H6775 0.960 . S
C6788 C6787 1.524 . S
C6789 C6786 1.403 . S
C6789 C6790 1.392 . S
C6789 C6793 1.495 . S
C6790 C6789 1.392 . S
C6790 C6791 1.385 . S
C6790 C6792 1.478 . S
C6791 H6785 0.930 . S
C6791 C6787 1.400 . S
C6791 C6790 1.385 . S
C6792 C6790 1.478 . S
C6792 C6794 1.381 . S
C6792 C6798 1.383 . S
C6793 C6789 1.495 . S
C6793 H6799 0.959 . S
C6793 H6800 0.961 . S
C6793 H6801 0.960 . S
C6794 C6792 1.381 . S
C6794 C6795 1.394 . S
C6794 H6802 0.930 . S
C6795 C6794 1.394 . S
C6795 C6796 1.383 . S
C6795 H6803 0.929 . S
C6796 C6795 1.383 . S
C6796 C6797 1.377 . S
C6797 H6781 0.930 . S
C6797 C6796 1.377 . S
C6797 C6798 1.379 . S
C6798 H6782 0.931 . S
C6798 C6792 1.383 . S
C6798 C6797 1.379 . S
H6799 C6793 0.959 . S
H6800 C6793 0.961 . S
H6801 C6793 0.960 . S
H6802 C6794 0.930 . S
H6803 C6795 0.929 . S
H6804 C6812 0.929 . S
H6805 C6814 0.930 . S
H6806 C6816 0.930 . S
H6807 C6819 0.929 . S
H6808 C6822 0.930 . S
H6809 C6824 0.960 . S
H6810 C6824 0.960 . S
H6811 C6824 0.960 . S
C6812 H6804 0.929 . S
C6812 C6813 1.377 . S
C6812 C6814 1.384 . S
C6813 C6812 1.377 . S
C6813 C6819 1.390 . S
C6814 H6805 0.930 . S
C6814 C6812 1.384 . S
C6814 C6815 1.372 . S
C6815 C6814 1.372 . S
C6815 C6816 1.400 . S
C6815 C6820 1.490 . S
C6816 H6806 0.930 . S
C6816 C6815 1.400 . S
C6816 C6819 1.386 . S
H6817 C6833 0.930 . S
H6818 C6834 0.931 . S
C6819 H6807 0.929 . S
C6819 C6813 1.390 . S
C6819 C6816 1.386 . S
C6820 C6815 1.490 . S
C6820 C6822 1.395 . S
C6820 C6823 1.403 . S
H6821 C6827 0.930 . S
C6822 H6808 0.930 . S
C6822 C6820 1.395 . S
C6822 C6825 1.403 . S
C6823 C6820 1.403 . S
C6823 C6824 1.524 . S
C6823 C6827 1.400 . S
C6824 H6809 0.960 . S
C6824 H6810 0.960 . S
C6824 H6811 0.960 . S
C6824 C6823 1.524 . S
C6825 C6822 1.403 . S
C6825 C6826 1.392 . S
C6825 C6829 1.495 . S
C6826 C6825 1.392 . S
C6826 C6827 1.385 . S
C6826 C6828 1.478 . S
C6827 H6821 0.930 . S
C6827 C6823 1.400 . S
C6827 C6826 1.385 . S
C6828 C6826 1.478 . S
C6828 C6830 1.381 . S
C6828 C6834 1.383 . S
C6829 C6825 1.495 . S
C6829 H6835 0.959 . S
C6829 H6836 0.961 . S
C6829 H6837 0.960 . S
C6830 C6828 1.381 . S
C6830 C6831 1.394 . S
C6830 H6838 0.930 . S
C6831 C6830 1.394 . S
C6831 C6832 1.383 . S
C6831 H6839 0.929 . S
C6832 C6831 1.383 . S
C6832 C6833 1.377 . S
C6833 H6817 0.930 . S
C6833 C6832 1.377 . S
C6833 C6834 1.379 . S
C6834 H6818 0.931 . S
C6834 C6828 1.383 . S
C6834 C6833 1.379 . S
H6835 C6829 0.959 . S
H6836 C6829 0.961 . S
H6837 C6829 0.960 . S
H6838 C6830 0.930 . S
H6839 C6831 0.929 . S
H6840 C6848 0.929 . S
H6841 C6850 0.930 . S
H6842 C6852 0.930 . S
H6843 C6855 0.929 . S
H6844 C6858 0.930 . S
H6845 C6860 0.960 . S
H6846 C6860 0.960 . S
H6847 C6860 0.960 . S
C6848 H6840 0.929 . S
C6848 C6849 1.377 . S
C6848 C6850 1.384 . S
C6849 C6848 1.377 . S
C6849 C6855 1.390 . S
C6850 H6841 0.930 . S
C6850 C6848 1.384 . S
C6850 C6851 1.372 . S
C6851 C6850 1.372 . S
C6851 C6852 1.400 . S
C6851 C6856 1.490 . S
C6852 H6842 0.930 . S
C6852 C6851 1.400 . S
C6852 C6855 1.386 . S
H6853 C6869 0.930 . S
H6854 C6870 0.931 . S
C6855 H6843 0.929 . S
C6855 C6849 1.390 . S
C6855 C6852 1.386 . S
C6856 C6851 1.490 . S
C6856 C6858 1.395 . S
C6856 C6859 1.403 . S
H6857 C6863 0.930 . S
C6858 H6844 0.930 . S
C6858 C6856 1.395 . S
C6858 C6861 1.403 . S
C6859 C6856 1.403 . S
C6859 C6860 1.524 . S
C6859 C6863 1.400 . S
C6860 H6845 0.960 . S
C6860 H6846 0.960 . S
C6860 H6847 0.960 . S
C6860 C6859 1.524 . S
C6861 C6858 1.403 . S
C6861 C6862 1.392 . S
C6861 C6865 1.495 . S
C6862 C6861 1.392 . S
C6862 C6863 1.385 . S
C6862 C6864 1.478 . S
C6863 H6857 0.930 . S
C6863 C6859 1.400 . S
C6863 C6862 1.385 . S
C6864 C6862 1.478 . S
C6864 C6866 1.381 . S
C6864 C6870 1.383 . S
C6865 C6861 1.495 . S
C6865 H6871 0.959 . S
C6865 H6872 0.961 . S
C6865 H6873 0.960 . S
C6866 C6864 1.381 . S
C6866 C6867 1.394 . S
C6866 H6874 0.930 . S
C6867 C6866 1.394 . S
C6867 C6868 1.383 . S
C6867 H6875 0.929 . S
C6868 C6867 1.383 . S
C6868 C6869 1.377 . S
C6869 H6853 0.930 . S
C6869 C6868 1.377 . S
C6869 C6870 1.379 . S
C6870 H6854 0.931 . S
C6870 C6864 1.383 . S
C6870 C6869 1.379 . S
H6871 C6865 0.959 . S
H6872 C6865 0.961 . S
H6873 C6865 0.960 . S
H6874 C6866 0.930 . S
H6875 C6867 0.929 . S
H6876 C6884 0.929 . S
H6877 C6886 0.930 . S
H6878 C6888 0.930 . S
H6879 C6891 0.929 . S
H6880 C6894 0.930 . S
H6881 C6896 0.960 . S
H6882 C6896 0.960 . S
H6883 C6896 0.960 . S
C6884 H6876 0.929 . S
C6884 C6885 1.377 . S
C6884 C6886 1.384 . S
C6885 C6884 1.377 . S
C6885 C6891 1.390 . S
C6886 H6877 0.930 . S
C6886 C6884 1.384 . S
C6886 C6887 1.372 . S
C6887 C6886 1.372 . S
C6887 C6888 1.400 . S
C6887 C6892 1.490 . S
C6888 H6878 0.930 . S
C6888 C6887 1.400 . S
C6888 C6891 1.386 . S
H6889 C6905 0.930 . S
H6890 C6906 0.931 . S
C6891 H6879 0.929 . S
C6891 C6885 1.390 . S
C6891 C6888 1.386 . S
C6892 C6887 1.490 . S
C6892 C6894 1.395 . S
C6892 C6895 1.403 . S
H6893 C6899 0.930 . S
C6894 H6880 0.930 . S
C6894 C6892 1.395 . S
C6894 C6897 1.403 . S
C6895 C6892 1.403 . S
C6895 C6896 1.524 . S
C6895 C6899 1.400 . S
C6896 H6881 0.960 . S
C6896 H6882 0.960 . S
C6896 H6883 0.960 . S
C6896 C6895 1.524 . S
C6897 C6894 1.403 . S
C6897 C6898 1.392 . S
C6897 C6901 1.495 . S
C6898 C6897 1.392 . S
C6898 C6899 1.385 . S
C6898 C6900 1.478 . S
C6899 H6893 0.930 . S
C6899 C6895 1.400 . S
C6899 C6898 1.385 . S
C6900 C6898 1.478 . S
C6900 C6902 1.381 . S
C6900 C6906 1.383 . S
C6901 C6897 1.495 . S
C6901 H6907 0.959 . S
C6901 H6908 0.961 . S
C6901 H6909 0.960 . S
C6902 C6900 1.381 . S
C6902 C6903 1.394 . S
C6902 H6910 0.930 . S
C6903 C6902 1.394 . S
C6903 C6904 1.383 . S
C6903 H6911 0.929 . S
C6904 C6903 1.383 . S
C6904 C6905 1.377 . S
C6905 H6889 0.930 . S
C6905 C6904 1.377 . S
C6905 C6906 1.379 . S
C6906 H6890 0.931 . S
C6906 C6900 1.383 . S
C6906 C6905 1.379 . S
H6907 C6901 0.959 . S
H6908 C6901 0.961 . S
H6909 C6901 0.960 . S
H6910 C6902 0.930 . S
H6911 C6903 0.929 . S
H6912 C6920 0.929 . S
H6913 C6922 0.930 . S
H6914 C6924 0.930 . S
H6915 C6927 0.929 . S
H6916 C6930 0.930 . S
H6917 C6932 0.960 . S
H6918 C6932 0.960 . S
H6919 C6932 0.960 . S
C6920 H6912 0.929 . S
C6920 C6921 1.377 . S
C6920 C6922 1.384 . S
C6921 C6920 1.377 . S
C6921 C6927 1.390 . S
C6922 H6913 0.930 . S
C6922 C6920 1.384 . S
C6922 C6923 1.372 . S
C6923 C6922 1.372 . S
C6923 C6924 1.400 . S
C6923 C6928 1.490 . S
C6924 H6914 0.930 . S
C6924 C6923 1.400 . S
C6924 C6927 1.386 . S
H6925 C6941 0.930 . S
H6926 C6942 0.931 . S
C6927 H6915 0.929 . S
C6927 C6921 1.390 . S
C6927 C6924 1.386 . S
C6928 C6923 1.490 . S
C6928 C6930 1.395 . S
C6928 C6931 1.403 . S
H6929 C6935 0.930 . S
C6930 H6916 0.930 . S
C6930 C6928 1.395 . S
C6930 C6933 1.403 . S
C6931 C6928 1.403 . S
C6931 C6932 1.524 . S
C6931 C6935 1.400 . S
C6932 H6917 0.960 . S
C6932 H6918 0.960 . S
C6932 H6919 0.960 . S
C6932 C6931 1.524 . S
C6933 C6930 1.403 . S
C6933 C6934 1.392 . S
C6933 C6937 1.495 . S
C6934 C6933 1.392 . S
C6934 C6935 1.385 . S
C6934 C6936 1.478 . S
C6935 H6929 0.930 . S
C6935 C6931 1.400 . S
C6935 C6934 1.385 . S
C6936 C6934 1.478 . S
C6936 C6938 1.381 . S
C6936 C6942 1.383 . S
C6937 C6933 1.495 . S
C6937 H6943 0.959 . S
C6937 H6944 0.961 . S
C6937 H6945 0.960 . S
C6938 C6936 1.381 . S
C6938 C6939 1.394 . S
C6938 H6946 0.930 . S
C6939 C6938 1.394 . S
C6939 C6940 1.383 . S
C6939 H6947 0.929 . S
C6940 C6939 1.383 . S
C6940 C6941 1.377 . S
C6941 H6925 0.930 . S
C6941 C6940 1.377 . S
C6941 C6942 1.379 . S
C6942 H6926 0.931 . S
C6942 C6936 1.383 . S
C6942 C6941 1.379 . S
H6943 C6937 0.959 . S
H6944 C6937 0.961 . S
H6945 C6937 0.960 . S
H6946 C6938 0.930 . S
H6947 C6939 0.929 . S
H6948 C6956 0.929 . S
H6949 C6958 0.930 . S
H6950 C6960 0.930 . S
H6951 C6963 0.929 . S
H6952 C6966 0.930 . S
H6953 C6968 0.960 . S
H6954 C6968 0.960 . S
H6955 C6968 0.960 . S
C6956 H6948 0.929 . S
C6956 C6957 1.377 . S
C6956 C6958 1.384 . S
C6957 C6956 1.377 . S
C6957 C6963 1.390 . S
C6958 H6949 0.930 . S
C6958 C6956 1.384 . S
C6958 C6959 1.372 . S
C6959 C6958 1.372 . S
C6959 C6960 1.400 . S
C6959 C6964 1.490 . S
C6960 H6950 0.930 . S
C6960 C6959 1.400 . S
C6960 C6963 1.386 . S
H6961 C6977 0.930 . S
H6962 C6978 0.931 . S
C6963 H6951 0.929 . S
C6963 C6957 1.390 . S
C6963 C6960 1.386 . S
C6964 C6959 1.490 . S
C6964 C6966 1.395 . S
C6964 C6967 1.403 . S
H6965 C6971 0.930 . S
C6966 H6952 0.930 . S
C6966 C6964 1.395 . S
C6966 C6969 1.403 . S
C6967 C6964 1.403 . S
C6967 C6968 1.524 . S
C6967 C6971 1.400 . S
C6968 H6953 0.960 . S
C6968 H6954 0.960 . S
C6968 H6955 0.960 . S
C6968 C6967 1.524 . S
C6969 C6966 1.403 . S
C6969 C6970 1.392 . S
C6969 C6973 1.495 . S
C6970 C6969 1.392 . S
C6970 C6971 1.385 . S
C6970 C6972 1.478 . S
C6971 H6965 0.930 . S
C6971 C6967 1.400 . S
C6971 C6970 1.385 . S
C6972 C6970 1.478 . S
C6972 C6974 1.381 . S
C6972 C6978 1.383 . S
C6973 C6969 1.495 . S
C6973 H6979 0.959 . S
C6973 H6980 0.961 . S
C6973 H6981 0.960 . S
C6974 C6972 1.381 . S
C6974 C6975 1.394 . S
C6974 H6982 0.930 . S
C6975 C6974 1.394 . S
C6975 C6976 1.383 . S
C6975 H6983 0.929 . S
C6976 C6975 1.383 . S
C6976 C6977 1.377 . S
C6977 H6961 0.930 . S
C6977 C6976 1.377 . S
C6977 C6978 1.379 . S
C6978 H6962 0.931 . S
C6978 C6972 1.383 . S
C6978 C6977 1.379 . S
H6979 C6973 0.959 . S
H6980 C6973 0.961 . S
H6981 C6973 0.960 . S
H6982 C6974 0.930 . S
H6983 C6975 0.929 . S
H6984 C6992 0.929 . S
H6985 C6994 0.930 . S
H6986 C6996 0.930 . S
H6987 C6999 0.929 . S
H6988 C7002 0.930 . S
H6989 C7004 0.960 . S
H6990 C7004 0.960 . S
H6991 C7004 0.960 . S
C6992 H6984 0.929 . S
C6992 C6993 1.377 . S
C6992 C6994 1.384 . S
C6993 C6992 1.377 . S
C6993 C6999 1.390 . S
C6994 H6985 0.930 . S
C6994 C6992 1.384 . S
C6994 C6995 1.372 . S
C6995 C6994 1.372 . S
C6995 C6996 1.400 . S
C6995 C7000 1.490 . S
C6996 H6986 0.930 . S
C6996 C6995 1.400 . S
C6996 C6999 1.386 . S
H6997 C7013 0.930 . S
H6998 C7014 0.931 . S
C6999 H6987 0.929 . S
C6999 C6993 1.390 . S
C6999 C6996 1.386 . S
C7000 C6995 1.490 . S
C7000 C7002 1.395 . S
C7000 C7003 1.403 . S
H7001 C7007 0.930 . S
C7002 H6988 0.930 . S
C7002 C7000 1.395 . S
C7002 C7005 1.403 . S
C7003 C7000 1.403 . S
C7003 C7004 1.524 . S
C7003 C7007 1.400 . S
C7004 H6989 0.960 . S
C7004 H6990 0.960 . S
C7004 H6991 0.960 . S
C7004 C7003 1.524 . S
C7005 C7002 1.403 . S
C7005 C7006 1.392 . S
C7005 C7009 1.495 . S
C7006 C7005 1.392 . S
C7006 C7007 1.385 . S
C7006 C7008 1.478 . S
C7007 H7001 0.930 . S
C7007 C7003 1.400 . S
C7007 C7006 1.385 . S
C7008 C7006 1.478 . S
C7008 C7010 1.381 . S
C7008 C7014 1.383 . S
C7009 C7005 1.495 . S
C7009 H7015 0.959 . S
C7009 H7016 0.961 . S
C7009 H7017 0.960 . S
C7010 C7008 1.381 . S
C7010 C7011 1.394 . S
C7010 H7018 0.930 . S
C7011 C7010 1.394 . S
C7011 C7012 1.383 . S
C7011 H7019 0.929 . S
C7012 C7011 1.383 . S
C7012 C7013 1.377 . S
C7013 H6997 0.930 . S
C7013 C7012 1.377 . S
C7013 C7014 1.379 . S
C7014 H6998 0.931 . S
C7014 C7008 1.383 . S
C7014 C7013 1.379 . S
H7015 C7009 0.959 . S
H7016 C7009 0.961 . S
H7017 C7009 0.960 . S
H7018 C7010 0.930 . S
H7019 C7011 0.929 . S
H7020 C7028 0.929 . S
H7021 C7030 0.930 . S
H7022 C7032 0.930 . S
H7023 C7035 0.929 . S
H7024 C7038 0.930 . S
H7025 C7040 0.960 . S
H7026 C7040 0.960 . S
H7027 C7040 0.960 . S
C7028 H7020 0.929 . S
C7028 C7029 1.377 . S
C7028 C7030 1.384 . S
C7029 C7028 1.377 . S
C7029 C7035 1.390 . S
C7030 H7021 0.930 . S
C7030 C7028 1.384 . S
C7030 C7031 1.372 . S
C7031 C7030 1.372 . S
C7031 C7032 1.400 . S
C7031 C7036 1.490 . S
C7032 H7022 0.930 . S
C7032 C7031 1.400 . S
C7032 C7035 1.386 . S
H7033 C7049 0.930 . S
H7034 C7050 0.931 . S
C7035 H7023 0.929 . S
C7035 C7029 1.390 . S
C7035 C7032 1.386 . S
C7036 C7031 1.490 . S
C7036 C7038 1.395 . S
C7036 C7039 1.403 . S
H7037 C7043 0.930 . S
C7038 H7024 0.930 . S
C7038 C7036 1.395 . S
C7038 C7041 1.403 . S
C7039 C7036 1.403 . S
C7039 C7040 1.524 . S
C7039 C7043 1.400 . S
C7040 H7025 0.960 . S
C7040 H7026 0.960 . S
C7040 H7027 0.960 . S
C7040 C7039 1.524 . S
C7041 C7038 1.403 . S
C7041 C7042 1.392 . S
C7041 C7045 1.495 . S
C7042 C7041 1.392 . S
C7042 C7043 1.385 . S
C7042 C7044 1.478 . S
C7043 H7037 0.930 . S
C7043 C7039 1.400 . S
C7043 C7042 1.385 . S
C7044 C7042 1.478 . S
C7044 C7046 1.381 . S
C7044 C7050 1.383 . S
C7045 C7041 1.495 . S
C7045 H7051 0.959 . S
C7045 H7052 0.961 . S
C7045 H7053 0.960 . S
C7046 C7044 1.381 . S
C7046 C7047 1.394 . S
C7046 H7054 0.930 . S
C7047 C7046 1.394 . S
C7047 C7048 1.383 . S
C7047 H7055 0.929 . S
C7048 C7047 1.383 . S
C7048 C7049 1.377 . S
C7049 H7033 0.930 . S
C7049 C7048 1.377 . S
C7049 C7050 1.379 . S
C7050 H7034 0.931 . S
C7050 C7044 1.383 . S
C7050 C7049 1.379 . S
H7051 C7045 0.959 . S
H7052 C7045 0.961 . S
H7053 C7045 0.960 . S
H7054 C7046 0.930 . S
H7055 C7047 0.929 . S
H7056 C7064 0.929 . S
H7057 C7066 0.930 . S
H7058 C7068 0.930 . S
H7059 C7071 0.929 . S
H7060 C7074 0.930 . S
H7061 C7076 0.960 . S
H7062 C7076 0.960 . S
H7063 C7076 0.960 . S
C7064 H7056 0.929 . S
C7064 C7065 1.377 . S
C7064 C7066 1.384 . S
C7065 C7064 1.377 . S
C7065 C7071 1.390 . S
C7066 H7057 0.930 . S
C7066 C7064 1.384 . S
C7066 C7067 1.372 . S
C7067 C7066 1.372 . S
C7067 C7068 1.400 . S
C7067 C7072 1.490 . S
C7068 H7058 0.930 . S
C7068 C7067 1.400 . S
C7068 C7071 1.386 . S
H7069 C7085 0.930 . S
H7070 C7086 0.931 . S
C7071 H7059 0.929 . S
C7071 C7065 1.390 . S
C7071 C7068 1.386 . S
C7072 C7067 1.490 . S
C7072 C7074 1.395 . S
C7072 C7075 1.403 . S
H7073 C7079 0.930 . S
C7074 H7060 0.930 . S
C7074 C7072 1.395 . S
C7074 C7077 1.403 . S
C7075 C7072 1.403 . S
C7075 C7076 1.524 . S
C7075 C7079 1.400 . S
C7076 H7061 0.960 . S
C7076 H7062 0.960 . S
C7076 H7063 0.960 . S
C7076 C7075 1.524 . S
C7077 C7074 1.403 . S
C7077 C7078 1.392 . S
C7077 C7081 1.495 . S
C7078 C7077 1.392 . S
C7078 C7079 1.385 . S
C7078 C7080 1.478 . S
C7079 H7073 0.930 . S
C7079 C7075 1.400 . S
C7079 C7078 1.385 . S
C7080 C7078 1.478 . S
C7080 C7082 1.381 . S
C7080 C7086 1.383 . S
C7081 C7077 1.495 . S
C7081 H7087 0.959 . S
C7081 H7088 0.961 . S
C7081 H7089 0.960 . S
C7082 C7080 1.381 . S
C7082 C7083 1.394 . S
C7082 H7090 0.930 . S
C7083 C7082 1.394 . S
C7083 C7084 1.383 . S
C7083 H7091 0.929 . S
C7084 C7083 1.383 . S
C7084 C7085 1.377 . S
C7085 H7069 0.930 . S
C7085 C7084 1.377 . S
C7085 C7086 1.379 . S
C7086 H7070 0.931 . S
C7086 C7080 1.383 . S
C7086 C7085 1.379 . S
H7087 C7081 0.959 . S
H7088 C7081 0.961 . S
H7089 C7081 0.960 . S
H7090 C7082 0.930 . S
H7091 C7083 0.929 . S
H7092 C7100 0.929 . S
H7093 C7102 0.930 . S
H7094 C7104 0.930 . S
H7095 C7107 0.929 . S
H7096 C7110 0.930 . S
H7097 C7112 0.960 . S
H7098 C7112 0.960 . S
H7099 C7112 0.960 . S
C7100 H7092 0.929 . S
C7100 C7101 1.377 . S
C7100 C7102 1.384 . S
C7101 C7100 1.377 . S
C7101 C7107 1.390 . S
C7102 H7093 0.930 . S
C7102 C7100 1.384 . S
C7102 C7103 1.372 . S
C7103 C7102 1.372 . S
C7103 C7104 1.400 . S
C7103 C7108 1.490 . S
C7104 H7094 0.930 . S
C7104 C7103 1.400 . S
C7104 C7107 1.386 . S
H7105 C7121 0.930 . S
H7106 C7122 0.931 . S
C7107 H7095 0.929 . S
C7107 C7101 1.390 . S
C7107 C7104 1.386 . S
C7108 C7103 1.490 . S
C7108 C7110 1.395 . S
C7108 C7111 1.403 . S
H7109 C7115 0.930 . S
C7110 H7096 0.930 . S
C7110 C7108 1.395 . S
C7110 C7113 1.403 . S
C7111 C7108 1.403 . S
C7111 C7112 1.524 . S
C7111 C7115 1.400 . S
C7112 H7097 0.960 . S
C7112 H7098 0.960 . S
C7112 H7099 0.960 . S
C7112 C7111 1.524 . S
C7113 C7110 1.403 . S
C7113 C7114 1.392 . S
C7113 C7117 1.495 . S
C7114 C7113 1.392 . S
C7114 C7115 1.385 . S
C7114 C7116 1.478 . S
C7115 H7109 0.930 . S
C7115 C7111 1.400 . S
C7115 C7114 1.385 . S
C7116 C7114 1.478 . S
C7116 C7118 1.381 . S
C7116 C7122 1.383 . S
C7117 C7113 1.495 . S
C7117 H7123 0.959 . S
C7117 H7124 0.961 . S
C7117 H7125 0.960 . S
C7118 C7116 1.381 . S
C7118 C7119 1.394 . S
C7118 H7126 0.930 . S
C7119 C7118 1.394 . S
C7119 C7120 1.383 . S
C7119 H7127 0.929 . S
C7120 C7119 1.383 . S
C7120 C7121 1.377 . S
C7121 H7105 0.930 . S
C7121 C7120 1.377 . S
C7121 C7122 1.379 . S
C7122 H7106 0.931 . S
C7122 C7116 1.383 . S
C7122 C7121 1.379 . S
H7123 C7117 0.959 . S
H7124 C7117 0.961 . S
H7125 C7117 0.960 . S
H7126 C7118 0.930 . S
H7127 C7119 0.929 . S
H7128 C7136 0.929 . S
H7129 C7138 0.930 . S
H7130 C7140 0.930 . S
H7131 C7143 0.929 . S
H7132 C7146 0.930 . S
H7133 C7148 0.960 . S
H7134 C7148 0.960 . S
H7135 C7148 0.960 . S
C7136 H7128 0.929 . S
C7136 C7137 1.377 . S
C7136 C7138 1.384 . S
C7137 C7136 1.377 . S
C7137 C7143 1.390 . S
C7138 H7129 0.930 . S
C7138 C7136 1.384 . S
C7138 C7139 1.372 . S
C7139 C7138 1.372 . S
C7139 C7140 1.400 . S
C7139 C7144 1.490 . S
C7140 H7130 0.930 . S
C7140 C7139 1.400 . S
C7140 C7143 1.386 . S
H7141 C7157 0.930 . S
H7142 C7158 0.931 . S
C7143 H7131 0.929 . S
C7143 C7137 1.390 . S
C7143 C7140 1.386 . S
C7144 C7139 1.490 . S
C7144 C7146 1.395 . S
C7144 C7147 1.403 . S
H7145 C7151 0.930 . S
C7146 H7132 0.930 . S
C7146 C7144 1.395 . S
C7146 C7149 1.403 . S
C7147 C7144 1.403 . S
C7147 C7148 1.524 . S
C7147 C7151 1.400 . S
C7148 H7133 0.960 . S
C7148 H7134 0.960 . S
C7148 H7135 0.960 . S
C7148 C7147 1.524 . S
C7149 C7146 1.403 . S
C7149 C7150 1.392 . S
C7149 C7153 1.495 . S
C7150 C7149 1.392 . S
C7150 C7151 1.385 . S
C7150 C7152 1.478 . S
C7151 H7145 0.930 . S
C7151 C7147 1.400 . S
C7151 C7150 1.385 . S
C7152 C7150 1.478 . S
C7152 C7154 1.381 . S
C7152 C7158 1.383 . S
C7153 C7149 1.495 . S
C7153 H7159 0.959 . S
C7153 H7160 0.961 . S
C7153 H7161 0.960 . S
C7154 C7152 1.381 . S
C7154 C7155 1.394 . S
C7154 H7162 0.930 . S
C7155 C7154 1.394 . S
C7155 C7156 1.383 . S
C7155 H7163 0.929 . S
C7156 C7155 1.383 . S
C7156 C7157 1.377 . S
C7157 H7141 0.930 . S
C7157 C7156 1.377 . S
C7157 C7158 1.379 . S
C7158 H7142 0.931 . S
C7158 C7152 1.383 . S
C7158 C7157 1.379 . S
H7159 C7153 0.959 . S
H7160 C7153 0.961 . S
H7161 C7153 0.960 . S
H7162 C7154 0.930 . S
H7163 C7155 0.929 . S
H7164 C7172 0.929 . S
H7165 C7174 0.930 . S
H7166 C7176 0.930 . S
H7167 C7179 0.929 . S
H7168 C7182 0.930 . S
H7169 C7184 0.960 . S
H7170 C7184 0.960 . S
H7171 C7184 0.960 . S
C7172 H7164 0.929 . S
C7172 C7173 1.377 . S
C7172 C7174 1.384 . S
C7173 C7172 1.377 . S
C7173 C7179 1.390 . S
C7174 H7165 0.930 . S
C7174 C7172 1.384 . S
C7174 C7175 1.372 . S
C7175 C7174 1.372 . S
C7175 C7176 1.400 . S
C7175 C7180 1.490 . S
C7176 H7166 0.930 . S
C7176 C7175 1.400 . S
C7176 C7179 1.386 . S
H7177 C7193 0.930 . S
H7178 C7194 0.931 . S
C7179 H7167 0.929 . S
C7179 C7173 1.390 . S
C7179 C7176 1.386 . S
C7180 C7175 1.490 . S
C7180 C7182 1.395 . S
C7180 C7183 1.403 . S
H7181 C7187 0.930 . S
C7182 H7168 0.930 . S
C7182 C7180 1.395 . S
C7182 C7185 1.403 . S
C7183 C7180 1.403 . S
C7183 C7184 1.524 . S
C7183 C7187 1.400 . S
C7184 H7169 0.960 . S
C7184 H7170 0.960 . S
C7184 H7171 0.960 . S
C7184 C7183 1.524 . S
C7185 C7182 1.403 . S
C7185 C7186 1.392 . S
C7185 C7189 1.495 . S
C7186 C7185 1.392 . S
C7186 C7187 1.385 . S
C7186 C7188 1.478 . S
C7187 H7181 0.930 . S
C7187 C7183 1.400 . S
C7187 C7186 1.385 . S
C7188 C7186 1.478 . S
C7188 C7190 1.381 . S
C7188 C7194 1.383 . S
C7189 C7185 1.495 . S
C7189 H7195 0.959 . S
C7189 H7196 0.961 . S
C7189 H7197 0.960 . S
C7190 C7188 1.381 . S
C7190 C7191 1.394 . S
C7190 H7198 0.930 . S
C7191 C7190 1.394 . S
C7191 C7192 1.383 . S
C7191 H7199 0.929 . S
C7192 C7191 1.383 . S
C7192 C7193 1.377 . S
C7193 H7177 0.930 . S
C7193 C7192 1.377 . S
C7193 C7194 1.379 . S
C7194 H7178 0.931 . S
C7194 C7188 1.383 . S
C7194 C7193 1.379 . S
H7195 C7189 0.959 . S
H7196 C7189 0.961 . S
H7197 C7189 0.960 . S
H7198 C7190 0.930 . S
H7199 C7191 0.929 . S
H7200 C7208 0.929 . S
H7201 C7210 0.930 . S
H7202 C7212 0.930 . S
H7203 C7215 0.929 . S
H7204 C7218 0.930 . S
H7205 C7220 0.960 . S
H7206 C7220 0.960 . S
H7207 C7220 0.960 . S
C7208 H7200 0.929 . S
C7208 C7209 1.377 . S
C7208 C7210 1.384 . S
C7209 C7208 1.377 . S
C7209 C7215 1.390 . S
C7210 H7201 0.930 . S
C7210 C7208 1.384 . S
C7210 C7211 1.372 . S
C7211 C7210 1.372 . S
C7211 C7212 1.400 . S
C7211 C7216 1.490 . S
C7212 H7202 0.930 . S
C7212 C7211 1.400 . S
C7212 C7215 1.386 . S
H7213 C7229 0.930 . S
H7214 C7230 0.931 . S
C7215 H7203 0.929 . S
C7215 C7209 1.390 . S
C7215 C7212 1.386 . S
C7216 C7211 1.490 . S
C7216 C7218 1.395 . S
C7216 C7219 1.403 . S
H7217 C7223 0.930 . S
C7218 H7204 0.930 . S
C7218 C7216 1.395 . S
C7218 C7221 1.403 . S
C7219 C7216 1.403 . S
C7219 C7220 1.524 . S
C7219 C7223 1.400 . S
C7220 H7205 0.960 . S
C7220 H7206 0.960 . S
C7220 H7207 0.960 . S
C7220 C7219 1.524 . S
C7221 C7218 1.403 . S
C7221 C7222 1.392 . S
C7221 C7225 1.495 . S
C7222 C7221 1.392 . S
C7222 C7223 1.385 . S
C7222 C7224 1.478 . S
C7223 H7217 0.930 . S
C7223 C7219 1.400 . S
C7223 C7222 1.385 . S
C7224 C7222 1.478 . S
C7224 C7226 1.381 . S
C7224 C7230 1.383 . S
C7225 C7221 1.495 . S
C7225 H7231 0.959 . S
C7225 H7232 0.961 . S
C7225 H7233 0.960 . S
C7226 C7224 1.381 . S
C7226 C7227 1.394 . S
C7226 H7234 0.930 . S
C7227 C7226 1.394 . S
C7227 C7228 1.383 . S
C7227 H7235 0.929 . S
C7228 C7227 1.383 . S
C7228 C7229 1.377 . S
C7229 H7213 0.930 . S
C7229 C7228 1.377 . S
C7229 C7230 1.379 . S
C7230 H7214 0.931 . S
C7230 C7224 1.383 . S
C7230 C7229 1.379 . S
H7231 C7225 0.959 . S
H7232 C7225 0.961 . S
H7233 C7225 0.960 . S
H7234 C7226 0.930 . S
H7235 C7227 0.929 . S
H7236 C7244 0.929 . S
H7237 C7246 0.930 . S
H7238 C7248 0.930 . S
H7239 C7251 0.929 . S
H7240 C7254 0.930 . S
H7241 C7256 0.960 . S
H7242 C7256 0.960 . S
H7243 C7256 0.960 . S
C7244 H7236 0.929 . S
C7244 C7245 1.377 . S
C7244 C7246 1.384 . S
C7245 C7244 1.377 . S
C7245 C7251 1.390 . S
C7246 H7237 0.930 . S
C7246 C7244 1.384 . S
C7246 C7247 1.372 . S
C7247 C7246 1.372 . S
C7247 C7248 1.400 . S
C7247 C7252 1.490 . S
C7248 H7238 0.930 . S
C7248 C7247 1.400 . S
C7248 C7251 1.386 . S
H7249 C7265 0.930 . S
H7250 C7266 0.931 . S
C7251 H7239 0.929 . S
C7251 C7245 1.390 . S
C7251 C7248 1.386 . S
C7252 C7247 1.490 . S
C7252 C7254 1.395 . S
C7252 C7255 1.403 . S
H7253 C7259 0.930 . S
C7254 H7240 0.930 . S
C7254 C7252 1.395 . S
C7254 C7257 1.403 . S
C7255 C7252 1.403 . S
C7255 C7256 1.524 . S
C7255 C7259 1.400 . S
C7256 H7241 0.960 . S
C7256 H7242 0.960 . S
C7256 H7243 0.960 . S
C7256 C7255 1.524 . S
C7257 C7254 1.403 . S
C7257 C7258 1.392 . S
C7257 C7261 1.495 . S
C7258 C7257 1.392 . S
C7258 C7259 1.385 . S
C7258 C7260 1.478 . S
C7259 H7253 0.930 . S
C7259 C7255 1.400 . S
C7259 C7258 1.385 . S
C7260 C7258 1.478 . S
C7260 C7262 1.381 . S
C7260 C7266 1.383 . S
C7261 C7257 1.495 . S
C7261 H7267 0.959 . S
C7261 H7268 0.961 . S
C7261 H7269 0.960 . S
C7262 C7260 1.381 . S
C7262 C7263 1.394 . S
C7262 H7270 0.930 . S
C7263 C7262 1.394 . S
C7263 C7264 1.383 . S
C7263 H7271 0.929 . S
C7264 C7263 1.383 . S
C7264 C7265 1.377 . S
C7265 H7249 0.930 . S
C7265 C7264 1.377 . S
C7265 C7266 1.379 . S
C7266 H7250 0.931 . S
C7266 C7260 1.383 . S
C7266 C7265 1.379 . S
H7267 C7261 0.959 . S
H7268 C7261 0.961 . S
H7269 C7261 0.960 . S
H7270 C7262 0.930 . S
H7271 C7263 0.929 . S
H7272 C7280 0.929 . S
H7273 C7282 0.930 . S
H7274 C7284 0.930 . S
H7275 C7287 0.929 . S
H7276 C7290 0.930 . S
H7277 C7292 0.960 . S
H7278 C7292 0.960 . S
H7279 C7292 0.960 . S
C7280 H7272 0.929 . S
C7280 C7281 1.377 . S
C7280 C7282 1.384 . S
C7281 C7280 1.377 . S
C7281 C7287 1.390 . S
C7282 H7273 0.930 . S
C7282 C7280 1.384 . S
C7282 C7283 1.372 . S
C7283 C7282 1.372 . S
C7283 C7284 1.400 . S
C7283 C7288 1.490 . S
C7284 H7274 0.930 . S
C7284 C7283 1.400 . S
C7284 C7287 1.386 . S
H7285 C7301 0.930 . S
H7286 C7302 0.931 . S
C7287 H7275 0.929 . S
C7287 C7281 1.390 . S
C7287 C7284 1.386 . S
C7288 C7283 1.490 . S
C7288 C7290 1.395 . S
C7288 C7291 1.403 . S
H7289 C7295 0.930 . S
C7290 H7276 0.930 . S
C7290 C7288 1.395 . S
C7290 C7293 1.403 . S
C7291 C7288 1.403 . S
C7291 C7292 1.524 . S
C7291 C7295 1.400 . S
C7292 H7277 0.960 . S
C7292 H7278 0.960 . S
C7292 H7279 0.960 . S
C7292 C7291 1.524 . S
C7293 C7290 1.403 . S
C7293 C7294 1.392 . S
C7293 C7297 1.495 . S
C7294 C7293 1.392 . S
C7294 C7295 1.385 . S
C7294 C7296 1.478 . S
C7295 H7289 0.930 . S
C7295 C7291 1.400 . S
C7295 C7294 1.385 . S
C7296 C7294 1.478 . S
C7296 C7298 1.381 . S
C7296 C7302 1.383 . S
C7297 C7293 1.495 . S
C7297 H7303 0.959 . S
C7297 H7304 0.961 . S
C7297 H7305 0.960 . S
C7298 C7296 1.381 . S
C7298 C7299 1.394 . S
C7298 H7306 0.930 . S
C7299 C7298 1.394 . S
C7299 C7300 1.383 . S
C7299 H7307 0.929 . S
C7300 C7299 1.383 . S
C7300 C7301 1.377 . S
C7301 H7285 0.930 . S
C7301 C7300 1.377 . S
C7301 C7302 1.379 . S
C7302 H7286 0.931 . S
C7302 C7296 1.383 . S
C7302 C7301 1.379 . S
H7303 C7297 0.959 . S
H7304 C7297 0.961 . S
H7305 C7297 0.960 . S
H7306 C7298 0.930 . S
H7307 C7299 0.929 . S
H7308 C7316 0.929 . S
H7309 C7318 0.930 . S
H7310 C7320 0.930 . S
H7311 C7323 0.929 . S
H7312 C7326 0.930 . S
H7313 C7328 0.960 . S
H7314 C7328 0.960 . S
H7315 C7328 0.960 . S
C7316 H7308 0.929 . S
C7316 C7317 1.377 . S
C7316 C7318 1.384 . S
C7317 C7316 1.377 . S
C7317 C7323 1.390 . S
C7318 H7309 0.930 . S
C7318 C7316 1.384 . S
C7318 C7319 1.372 . S
C7319 C7318 1.372 . S
C7319 C7320 1.400 . S
C7319 C7324 1.490 . S
C7320 H7310 0.930 . S
C7320 C7319 1.400 . S
C7320 C7323 1.386 . S
H7321 C7337 0.930 . S
H7322 C7338 0.931 . S
C7323 H7311 0.929 . S
C7323 C7317 1.390 . S
C7323 C7320 1.386 . S
C7324 C7319 1.490 . S
C7324 C7326 1.395 . S
C7324 C7327 1.403 . S
H7325 C7331 0.930 . S
C7326 H7312 0.930 . S
C7326 C7324 1.395 . S
C7326 C7329 1.403 . S
C7327 C7324 1.403 . S
C7327 C7328 1.524 . S
C7327 C7331 1.400 . S
C7328 H7313 0.960 . S
C7328 H7314 0.960 . S
C7328 H7315 0.960 . S
C7328 C7327 1.524 . S
C7329 C7326 1.403 . S
C7329 C7330 1.392 . S
C7329 C7333 1.495 . S
C7330 C7329 1.392 . S
C7330 C7331 1.385 . S
C7330 C7332 1.478 . S
C7331 H7325 0.930 . S
C7331 C7327 1.400 . S
C7331 C7330 1.385 . S
C7332 C7330 1.478 . S
C7332 C7334 1.381 . S
C7332 C7338 1.383 . S
C7333 C7329 1.495 . S
C7333 H7339 0.959 . S
C7333 H7340 0.961 . S
C7333 H7341 0.960 . S
C7334 C7332 1.381 . S
C7334 C7335 1.394 . S
C7334 H7342 0.930 . S
C7335 C7334 1.394 . S
C7335 C7336 1.383 . S
C7335 H7343 0.929 . S
C7336 C7335 1.383 . S
C7336 C7337 1.377 . S
C7337 H7321 0.930 . S
C7337 C7336 1.377 . S
C7337 C7338 1.379 . S
C7338 H7322 0.931 . S
C7338 C7332 1.383 . S
C7338 C7337 1.379 . S
H7339 C7333 0.959 . S
H7340 C7333 0.961 . S
H7341 C7333 0.960 . S
H7342 C7334 0.930 . S
H7343 C7335 0.929 . S
H7344 C7352 0.929 . S
H7345 C7354 0.930 . S
H7346 C7356 0.930 . S
H7347 C7359 0.929 . S
H7348 C7362 0.930 . S
H7349 C7364 0.960 . S
H7350 C7364 0.960 . S
H7351 C7364 0.960 . S
C7352 H7344 0.929 . S
C7352 C7353 1.377 . S
C7352 C7354 1.384 . S
C7353 C7352 1.377 . S
C7353 C7359 1.390 . S
C7354 H7345 0.930 . S
C7354 C7352 1.384 . S
C7354 C7355 1.372 . S
C7355 C7354 1.372 . S
C7355 C7356 1.400 . S
C7355 C7360 1.490 . S
C7356 H7346 0.930 . S
C7356 C7355 1.400 . S
C7356 C7359 1.386 . S
H7357 C7373 0.930 . S
H7358 C7374 0.931 . S
C7359 H7347 0.929 . S
C7359 C7353 1.390 . S
C7359 C7356 1.386 . S
C7360 C7355 1.490 . S
C7360 C7362 1.395 . S
C7360 C7363 1.403 . S
H7361 C7367 0.930 . S
C7362 H7348 0.930 . S
C7362 C7360 1.395 . S
C7362 C7365 1.403 . S
C7363 C7360 1.403 . S
C7363 C7364 1.524 . S
C7363 C7367 1.400 . S
C7364 H7349 0.960 . S
C7364 H7350 0.960 . S
C7364 H7351 0.960 . S
C7364 C7363 1.524 . S
C7365 C7362 1.403 . S
C7365 C7366 1.392 . S
C7365 C7369 1.495 . S
C7366 C7365 1.392 . S
C7366 C7367 1.385 . S
C7366 C7368 1.478 . S
C7367 H7361 0.930 . S
C7367 C7363 1.400 . S
C7367 C7366 1.385 . S
C7368 C7366 1.478 . S
C7368 C7370 1.381 . S
C7368 C7374 1.383 . S
C7369 C7365 1.495 . S
C7369 H7375 0.959 . S
C7369 H7376 0.961 . S
C7369 H7377 0.960 . S
C7370 C7368 1.381 . S
C7370 C7371 1.394 . S
C7370 H7378 0.930 . S
C7371 C7370 1.394 . S
C7371 C7372 1.383 . S
C7371 H7379 0.929 . S
C7372 C7371 1.383 . S
C7372 C7373 1.377 . S
C7373 H7357 0.930 . S
C7373 C7372 1.377 . S
C7373 C7374 1.379 . S
C7374 H7358 0.931 . S
C7374 C7368 1.383 . S
C7374 C7373 1.379 . S
H7375 C7369 0.959 . S
H7376 C7369 0.961 . S
H7377 C7369 0.960 . S
H7378 C7370 0.930 . S
H7379 C7371 0.929 . S
H7380 C7388 0.929 . S
H7381 C7390 0.930 . S
H7382 C7392 0.930 . S
H7383 C7395 0.929 . S
H7384 C7398 0.930 . S
H7385 C7400 0.960 . S
H7386 C7400 0.960 . S
H7387 C7400 0.960 . S
C7388 H7380 0.929 . S
C7388 C7389 1.377 . S
C7388 C7390 1.384 . S
C7389 C7388 1.377 . S
C7389 C7395 1.390 . S
C7390 H7381 0.930 . S
C7390 C7388 1.384 . S
C7390 C7391 1.372 . S
C7391 C7390 1.372 . S
C7391 C7392 1.400 . S
C7391 C7396 1.490 . S
C7392 H7382 0.930 . S
C7392 C7391 1.400 . S
C7392 C7395 1.386 . S
H7393 C7409 0.930 . S
H7394 C7410 0.931 . S
C7395 H7383 0.929 . S
C7395 C7389 1.390 . S
C7395 C7392 1.386 . S
C7396 C7391 1.490 . S
C7396 C7398 1.395 . S
C7396 C7399 1.403 . S
H7397 C7403 0.930 . S
C7398 H7384 0.930 . S
C7398 C7396 1.395 . S
C7398 C7401 1.403 . S
C7399 C7396 1.403 . S
C7399 C7400 1.524 . S
C7399 C7403 1.400 . S
C7400 H7385 0.960 . S
C7400 H7386 0.960 . S
C7400 H7387 0.960 . S
C7400 C7399 1.524 . S
C7401 C7398 1.403 . S
C7401 C7402 1.392 . S
C7401 C7405 1.495 . S
C7402 C7401 1.392 . S
C7402 C7403 1.385 . S
C7402 C7404 1.478 . S
C7403 H7397 0.930 . S
C7403 C7399 1.400 . S
C7403 C7402 1.385 . S
C7404 C7402 1.478 . S
C7404 C7406 1.381 . S
C7404 C7410 1.383 . S
C7405 C7401 1.495 . S
C7405 H7411 0.959 . S
C7405 H7412 0.961 . S
C7405 H7413 0.960 . S
C7406 C7404 1.381 . S
C7406 C7407 1.394 . S
C7406 H7414 0.930 . S
C7407 C7406 1.394 . S
C7407 C7408 1.383 . S
C7407 H7415 0.929 . S
C7408 C7407 1.383 . S
C7408 C7409 1.377 . S
C7409 H7393 0.930 . S
C7409 C7408 1.377 . S
C7409 C7410 1.379 . S
C7410 H7394 0.931 . S
C7410 C7404 1.383 . S
C7410 C7409 1.379 . S
H7411 C7405 0.959 . S
H7412 C7405 0.961 . S
H7413 C7405 0.960 . S
H7414 C7406 0.930 . S
H7415 C7407 0.929 . S
H7416 C7424 0.929 . S
H7417 C7426 0.930 . S
H7418 C7428 0.930 . S
H7419 C7431 0.929 . S
H7420 C7434 0.930 . S
H7421 C7436 0.960 . S
H7422 C7436 0.960 . S
H7423 C7436 0.960 . S
C7424 H7416 0.929 . S
C7424 C7425 1.377 . S
C7424 C7426 1.384 . S
C7425 C7424 1.377 . S
C7425 C7431 1.390 . S
C7426 H7417 0.930 . S
C7426 C7424 1.384 . S
C7426 C7427 1.372 . S
C7427 C7426 1.372 . S
C7427 C7428 1.400 . S
C7427 C7432 1.490 . S
C7428 H7418 0.930 . S
C7428 C7427 1.400 . S
C7428 C7431 1.386 . S
H7429 C7445 0.930 . S
H7430 C7446 0.931 . S
C7431 H7419 0.929 . S
C7431 C7425 1.390 . S
C7431 C7428 1.386 . S
C7432 C7427 1.490 . S
C7432 C7434 1.395 . S
C7432 C7435 1.403 . S
H7433 C7439 0.930 . S
C7434 H7420 0.930 . S
C7434 C7432 1.395 . S
C7434 C7437 1.403 . S
C7435 C7432 1.403 . S
C7435 C7436 1.524 . S
C7435 C7439 1.400 . S
C7436 H7421 0.960 . S
C7436 H7422 0.960 . S
C7436 H7423 0.960 . S
C7436 C7435 1.524 . S
C7437 C7434 1.403 . S
C7437 C7438 1.392 . S
C7437 C7441 1.495 . S
C7438 C7437 1.392 . S
C7438 C7439 1.385 . S
C7438 C7440 1.478 . S
C7439 H7433 0.930 . S
C7439 C7435 1.400 . S
C7439 C7438 1.385 . S
C7440 C7438 1.478 . S
C7440 C7442 1.381 . S
C7440 C7446 1.383 . S
C7441 C7437 1.495 . S
C7441 H7447 0.959 . S
C7441 H7448 0.961 . S
C7441 H7449 0.960 . S
C7442 C7440 1.381 . S
C7442 C7443 1.394 . S
C7442 H7450 0.930 . S
C7443 C7442 1.394 . S
C7443 C7444 1.383 . S
C7443 H7451 0.929 . S
C7444 C7443 1.383 . S
C7444 C7445 1.377 . S
C7445 H7429 0.930 . S
C7445 C7444 1.377 . S
C7445 C7446 1.379 . S
C7446 H7430 0.931 . S
C7446 C7440 1.383 . S
C7446 C7445 1.379 . S
H7447 C7441 0.959 . S
H7448 C7441 0.961 . S
H7449 C7441 0.960 . S
H7450 C7442 0.930 . S
H7451 C7443 0.929 . S
H7452 C7460 0.929 . S
H7453 C7462 0.930 . S
H7454 C7464 0.930 . S
H7455 C7467 0.929 . S
H7456 C7470 0.930 . S
H7457 C7472 0.960 . S
H7458 C7472 0.960 . S
H7459 C7472 0.960 . S
C7460 H7452 0.929 . S
C7460 C7461 1.377 . S
C7460 C7462 1.384 . S
C7461 C7460 1.377 . S
C7461 C7467 1.390 . S
C7462 H7453 0.930 . S
C7462 C7460 1.384 . S
C7462 C7463 1.372 . S
C7463 C7462 1.372 . S
C7463 C7464 1.400 . S
C7463 C7468 1.490 . S
C7464 H7454 0.930 . S
C7464 C7463 1.400 . S
C7464 C7467 1.386 . S
H7465 C7481 0.930 . S
H7466 C7482 0.931 . S
C7467 H7455 0.929 . S
C7467 C7461 1.390 . S
C7467 C7464 1.386 . S
C7468 C7463 1.490 . S
C7468 C7470 1.395 . S
C7468 C7471 1.403 . S
H7469 C7475 0.930 . S
C7470 H7456 0.930 . S
C7470 C7468 1.395 . S
C7470 C7473 1.403 . S
C7471 C7468 1.403 . S
C7471 C7472 1.524 . S
C7471 C7475 1.400 . S
C7472 H7457 0.960 . S
C7472 H7458 0.960 . S
C7472 H7459 0.960 . S
C7472 C7471 1.524 . S
C7473 C7470 1.403 . S
C7473 C7474 1.392 . S
C7473 C7477 1.495 . S
C7474 C7473 1.392 . S
C7474 C7475 1.385 . S
C7474 C7476 1.478 . S
C7475 H7469 0.930 . S
C7475 C7471 1.400 . S
C7475 C7474 1.385 . S
C7476 C7474 1.478 . S
C7476 C7478 1.381 . S
C7476 C7482 1.383 . S
C7477 C7473 1.495 . S
C7477 H7483 0.959 . S
C7477 H7484 0.961 . S
C7477 H7485 0.960 . S
C7478 C7476 1.381 . S
C7478 C7479 1.394 . S
C7478 H7486 0.930 . S
C7479 C7478 1.394 . S
C7479 C7480 1.383 . S
C7479 H7487 0.929 . S
C7480 C7479 1.383 . S
C7480 C7481 1.377 . S
C7481 H7465 0.930 . S
C7481 C7480 1.377 . S
C7481 C7482 1.379 . S
C7482 H7466 0.931 . S
C7482 C7476 1.383 . S
C7482 C7481 1.379 . S
H7483 C7477 0.959 . S
H7484 C7477 0.961 . S
H7485 C7477 0.960 . S
H7486 C7478 0.930 . S
H7487 C7479 0.929 . S
H7488 C7496 0.929 . S
H7489 C7498 0.930 . S
H7490 C7500 0.930 . S
H7491 C7503 0.929 . S
H7492 C7506 0.930 . S
H7493 C7508 0.960 . S
H7494 C7508 0.960 . S
H7495 C7508 0.960 . S
C7496 H7488 0.929 . S
C7496 C7497 1.377 . S
C7496 C7498 1.384 . S
C7497 C7496 1.377 . S
C7497 C7503 1.390 . S
C7498 H7489 0.930 . S
C7498 C7496 1.384 . S
C7498 C7499 1.372 . S
C7499 C7498 1.372 . S
C7499 C7500 1.400 . S
C7499 C7504 1.490 . S
C7500 H7490 0.930 . S
C7500 C7499 1.400 . S
C7500 C7503 1.386 . S
H7501 C7517 0.930 . S
H7502 C7518 0.931 . S
C7503 H7491 0.929 . S
C7503 C7497 1.390 . S
C7503 C7500 1.386 . S
C7504 C7499 1.490 . S
C7504 C7506 1.395 . S
C7504 C7507 1.403 . S
H7505 C7511 0.930 . S
C7506 H7492 0.930 . S
C7506 C7504 1.395 . S
C7506 C7509 1.403 . S
C7507 C7504 1.403 . S
C7507 C7508 1.524 . S
C7507 C7511 1.400 . S
C7508 H7493 0.960 . S
C7508 H7494 0.960 . S
C7508 H7495 0.960 . S
C7508 C7507 1.524 . S
C7509 C7506 1.403 . S
C7509 C7510 1.392 . S
C7509 C7513 1.495 . S
C7510 C7509 1.392 . S
C7510 C7511 1.385 . S
C7510 C7512 1.478 . S
C7511 H7505 0.930 . S
C7511 C7507 1.400 . S
C7511 C7510 1.385 . S
C7512 C7510 1.478 . S
C7512 C7514 1.381 . S
C7512 C7518 1.383 . S
C7513 C7509 1.495 . S
C7513 H7519 0.959 . S
C7513 H7520 0.961 . S
C7513 H7521 0.960 . S
C7514 C7512 1.381 . S
C7514 C7515 1.394 . S
C7514 H7522 0.930 . S
C7515 C7514 1.394 . S
C7515 C7516 1.383 . S
C7515 H7523 0.929 . S
C7516 C7515 1.383 . S
C7516 C7517 1.377 . S
C7517 H7501 0.930 . S
C7517 C7516 1.377 . S
C7517 C7518 1.379 . S
C7518 H7502 0.931 . S
C7518 C7512 1.383 . S
C7518 C7517 1.379 . S
H7519 C7513 0.959 . S
H7520 C7513 0.961 . S
H7521 C7513 0.960 . S
H7522 C7514 0.930 . S
H7523 C7515 0.929 . S
H7524 C7532 0.929 . S
H7525 C7534 0.930 . S
H7526 C7536 0.930 . S
H7527 C7539 0.929 . S
H7528 C7542 0.930 . S
H7529 C7544 0.960 . S
H7530 C7544 0.960 . S
H7531 C7544 0.960 . S
C7532 H7524 0.929 . S
C7532 C7533 1.377 . S
C7532 C7534 1.384 . S
C7533 C7532 1.377 . S
C7533 C7539 1.390 . S
C7534 H7525 0.930 . S
C7534 C7532 1.384 . S
C7534 C7535 1.372 . S
C7535 C7534 1.372 . S
C7535 C7536 1.400 . S
C7535 C7540 1.490 . S
C7536 H7526 0.930 . S
C7536 C7535 1.400 . S
C7536 C7539 1.386 . S
H7537 C7553 0.930 . S
H7538 C7554 0.931 . S
C7539 H7527 0.929 . S
C7539 C7533 1.390 . S
C7539 C7536 1.386 . S
C7540 C7535 1.490 . S
C7540 C7542 1.395 . S
C7540 C7543 1.403 . S
H7541 C7547 0.930 . S
C7542 H7528 0.930 . S
C7542 C7540 1.395 . S
C7542 C7545 1.403 . S
C7543 C7540 1.403 . S
C7543 C7544 1.524 . S
C7543 C7547 1.400 . S
C7544 H7529 0.960 . S
C7544 H7530 0.960 . S
C7544 H7531 0.960 . S
C7544 C7543 1.524 . S
C7545 C7542 1.403 . S
C7545 C7546 1.392 . S
C7545 C7549 1.495 . S
C7546 C7545 1.392 . S
C7546 C7547 1.385 . S
C7546 C7548 1.478 . S
C7547 H7541 0.930 . S
C7547 C7543 1.400 . S
C7547 C7546 1.385 . S
C7548 C7546 1.478 . S
C7548 C7550 1.381 . S
C7548 C7554 1.383 . S
C7549 C7545 1.495 . S
C7549 H7555 0.959 . S
C7549 H7556 0.961 . S
C7549 H7557 0.960 . S
C7550 C7548 1.381 . S
C7550 C7551 1.394 . S
C7550 H7558 0.930 . S
C7551 C7550 1.394 . S
C7551 C7552 1.383 . S
C7551 H7559 0.929 . S
C7552 C7551 1.383 . S
C7552 C7553 1.377 . S
C7553 H7537 0.930 . S
C7553 C7552 1.377 . S
C7553 C7554 1.379 . S
C7554 H7538 0.931 . S
C7554 C7548 1.383 . S
C7554 C7553 1.379 . S
H7555 C7549 0.959 . S
H7556 C7549 0.961 . S
H7557 C7549 0.960 . S
H7558 C7550 0.930 . S
H7559 C7551 0.929 . S
H7560 C7568 0.929 . S
H7561 C7570 0.930 . S
H7562 C7572 0.930 . S
H7563 C7575 0.929 . S
H7564 C7578 0.930 . S
H7565 C7580 0.960 . S
H7566 C7580 0.960 . S
H7567 C7580 0.960 . S
C7568 H7560 0.929 . S
C7568 C7569 1.377 . S
C7568 C7570 1.384 . S
C7569 C7568 1.377 . S
C7569 C7575 1.390 . S
C7570 H7561 0.930 . S
C7570 C7568 1.384 . S
C7570 C7571 1.372 . S
C7571 C7570 1.372 . S
C7571 C7572 1.400 . S
C7571 C7576 1.490 . S
C7572 H7562 0.930 . S
C7572 C7571 1.400 . S
C7572 C7575 1.386 . S
H7573 C7589 0.930 . S
H7574 C7590 0.931 . S
C7575 H7563 0.929 . S
C7575 C7569 1.390 . S
C7575 C7572 1.386 . S
C7576 C7571 1.490 . S
C7576 C7578 1.395 . S
C7576 C7579 1.403 . S
H7577 C7583 0.930 . S
C7578 H7564 0.930 . S
C7578 C7576 1.395 . S
C7578 C7581 1.403 . S
C7579 C7576 1.403 . S
C7579 C7580 1.524 . S
C7579 C7583 1.400 . S
C7580 H7565 0.960 . S
C7580 H7566 0.960 . S
C7580 H7567 0.960 . S
C7580 C7579 1.524 . S
C7581 C7578 1.403 . S
C7581 C7582 1.392 . S
C7581 C7585 1.495 . S
C7582 C7581 1.392 . S
C7582 C7583 1.385 . S
C7582 C7584 1.478 . S
C7583 H7577 0.930 . S
C7583 C7579 1.400 . S
C7583 C7582 1.385 . S
C7584 C7582 1.478 . S
C7584 C7586 1.381 . S
C7584 C7590 1.383 . S
C7585 C7581 1.495 . S
C7585 H7591 0.959 . S
C7585 H7592 0.961 . S
C7585 H7593 0.960 . S
C7586 C7584 1.381 . S
C7586 C7587 1.394 . S
C7586 H7594 0.930 . S
C7587 C7586 1.394 . S
C7587 C7588 1.383 . S
C7587 H7595 0.929 . S
C7588 C7587 1.383 . S
C7588 C7589 1.377 . S
C7589 H7573 0.930 . S
C7589 C7588 1.377 . S
C7589 C7590 1.379 . S
C7590 H7574 0.931 . S
C7590 C7584 1.383 . S
C7590 C7589 1.379 . S
H7591 C7585 0.959 . S
H7592 C7585 0.961 . S
H7593 C7585 0.960 . S
H7594 C7586 0.930 . S
H7595 C7587 0.929 . S
H7596 C7604 0.929 . S
H7597 C7606 0.930 . S
H7598 C7608 0.930 . S
H7599 C7611 0.929 . S
H7600 C7614 0.930 . S
H7601 C7616 0.960 . S
H7602 C7616 0.960 . S
H7603 C7616 0.960 . S
C7604 H7596 0.929 . S
C7604 C7605 1.377 . S
C7604 C7606 1.384 . S
C7605 C7604 1.377 . S
C7605 C7611 1.390 . S
C7606 H7597 0.930 . S
C7606 C7604 1.384 . S
C7606 C7607 1.372 . S
C7607 C7606 1.372 . S
C7607 C7608 1.400 . S
C7607 C7612 1.490 . S
C7608 H7598 0.930 . S
C7608 C7607 1.400 . S
C7608 C7611 1.386 . S
H7609 C7625 0.930 . S
H7610 C7626 0.931 . S
C7611 H7599 0.929 . S
C7611 C7605 1.390 . S
C7611 C7608 1.386 . S
C7612 C7607 1.490 . S
C7612 C7614 1.395 . S
C7612 C7615 1.403 . S
H7613 C7619 0.930 . S
C7614 H7600 0.930 . S
C7614 C7612 1.395 . S
C7614 C7617 1.403 . S
C7615 C7612 1.403 . S
C7615 C7616 1.524 . S
C7615 C7619 1.400 . S
C7616 H7601 0.960 . S
C7616 H7602 0.960 . S
C7616 H7603 0.960 . S
C7616 C7615 1.524 . S
C7617 C7614 1.403 . S
C7617 C7618 1.392 . S
C7617 C7621 1.495 . S
C7618 C7617 1.392 . S
C7618 C7619 1.385 . S
C7618 C7620 1.478 . S
C7619 H7613 0.930 . S
C7619 C7615 1.400 . S
C7619 C7618 1.385 . S
C7620 C7618 1.478 . S
C7620 C7622 1.381 . S
C7620 C7626 1.383 1_545 S
C7621 C7617 1.495 . S
C7621 H7627 0.959 . S
C7621 H7628 0.961 . S
C7621 H7629 0.960 . S
C7622 C7620 1.381 . S
C7622 C7623 1.377 1_545 S
C7622 H7630 0.930 . S
C7623 C7622 1.377 1_565 S
C7623 C7624 1.409 . S
C7623 H7631 0.921 1_565 S
C7624 C7623 1.409 . S
C7624 C7625 1.377 . S
C7625 H7609 0.930 . S
C7625 C7624 1.377 . S
C7625 C7626 1.379 . S
C7626 H7610 0.931 . S
C7626 C7620 1.383 1_565 S
C7626 C7625 1.379 . S
H7627 C7621 0.959 . S
H7628 C7621 0.961 . S
H7629 C7621 0.960 . S
H7630 C7622 0.930 . S
H7631 C7623 0.921 1_545 S
H7632 C7640 0.929 . S
H7633 C7642 0.930 . S
H7634 C7644 0.930 . S
H7635 C7647 0.929 . S
H7636 C7650 0.930 . S
H7637 C7652 0.960 . S
H7638 C7652 0.960 . S
H7639 C7652 0.960 . S
C7640 H7632 0.929 . S
C7640 C7641 1.377 . S
C7640 C7642 1.384 . S
C7641 C7640 1.377 . S
C7641 C7647 1.390 . S
C7642 H7633 0.930 . S
C7642 C7640 1.384 . S
C7642 C7643 1.372 . S
C7643 C7642 1.372 . S
C7643 C7644 1.400 . S
C7643 C7648 1.490 . S
C7644 H7634 0.930 . S
C7644 C7643 1.400 . S
C7644 C7647 1.386 . S
H7645 C7661 0.930 . S
H7646 C7662 0.931 . S
C7647 H7635 0.929 . S
C7647 C7641 1.390 . S
C7647 C7644 1.386 . S
C7648 C7643 1.490 . S
C7648 C7650 1.395 . S
C7648 C7651 1.403 . S
H7649 C7655 0.930 . S
C7650 H7636 0.930 . S
C7650 C7648 1.395 . S
C7650 C7653 1.403 . S
C7651 C7648 1.403 . S
C7651 C7652 1.524 . S
C7651 C7655 1.400 . S
C7652 H7637 0.960 . S
C7652 H7638 0.960 . S
C7652 H7639 0.960 . S
C7652 C7651 1.524 . S
C7653 C7650 1.403 . S
C7653 C7654 1.392 . S
C7653 C7657 1.495 . S
C7654 C7653 1.392 . S
C7654 C7655 1.385 . S
C7654 C7656 1.478 . S
C7655 H7649 0.930 . S
C7655 C7651 1.400 . S
C7655 C7654 1.385 . S
C7656 C7654 1.478 . S
C7656 C7658 1.381 . S
C7656 C7662 1.383 . S
C7657 C7653 1.495 . S
C7657 H7663 0.959 . S
C7657 H7664 0.961 . S
C7657 H7665 0.960 . S
C7658 C7656 1.381 . S
C7658 C7659 1.394 . S
C7658 H7666 0.930 . S
C7659 C7658 1.394 . S
C7659 C7660 1.383 . S
C7659 H7667 0.929 . S
C7660 C7659 1.383 . S
C7660 C7661 1.377 . S
C7661 H7645 0.930 . S
C7661 C7660 1.377 . S
C7661 C7662 1.379 . S
C7662 H7646 0.931 . S
C7662 C7656 1.383 . S
C7662 C7661 1.379 . S
H7663 C7657 0.959 . S
H7664 C7657 0.961 . S
H7665 C7657 0.960 . S
H7666 C7658 0.930 . S
H7667 C7659 0.929 . S
H7668 C7676 0.929 . S
H7669 C7678 0.930 . S
H7670 C7680 0.930 . S
H7671 C7683 0.929 . S
H7672 C7686 0.930 . S
H7673 C7688 0.960 . S
H7674 C7688 0.960 . S
H7675 C7688 0.960 . S
C7676 H7668 0.929 . S
C7676 C7677 1.377 . S
C7676 C7678 1.384 . S
C7677 C7676 1.377 . S
C7677 C7683 1.390 . S
C7678 H7669 0.930 . S
C7678 C7676 1.384 . S
C7678 C7679 1.372 . S
C7679 C7678 1.372 . S
C7679 C7680 1.400 . S
C7679 C7684 1.490 . S
C7680 H7670 0.930 . S
C7680 C7679 1.400 . S
C7680 C7683 1.386 . S
H7681 C7697 0.930 . S
H7682 C7698 0.931 . S
C7683 H7671 0.929 . S
C7683 C7677 1.390 . S
C7683 C7680 1.386 . S
C7684 C7679 1.490 . S
C7684 C7686 1.395 . S
C7684 C7687 1.403 . S
H7685 C7691 0.930 . S
C7686 H7672 0.930 . S
C7686 C7684 1.395 . S
C7686 C7689 1.403 . S
C7687 C7684 1.403 . S
C7687 C7688 1.524 . S
C7687 C7691 1.400 . S
C7688 H7673 0.960 . S
C7688 H7674 0.960 . S
C7688 H7675 0.960 . S
C7688 C7687 1.524 . S
C7689 C7686 1.403 . S
C7689 C7690 1.392 . S
C7689 C7693 1.495 . S
C7690 C7689 1.392 . S
C7690 C7691 1.385 . S
C7690 C7692 1.478 . S
C7691 H7685 0.930 . S
C7691 C7687 1.400 . S
C7691 C7690 1.385 . S
C7692 C7690 1.478 . S
C7692 C7694 1.381 . S
C7692 C7698 1.383 . S
C7693 C7689 1.495 . S
C7693 H7699 0.959 . S
C7693 H7700 0.961 . S
C7693 H7701 0.960 . S
C7694 C7692 1.381 . S
C7694 C7695 1.394 . S
C7694 H7702 0.930 . S
C7695 C7694 1.394 . S
C7695 C7696 1.383 . S
C7695 H7703 0.929 . S
C7696 C7695 1.383 . S
C7696 C7697 1.377 . S
C7697 H7681 0.930 . S
C7697 C7696 1.377 . S
C7697 C7698 1.379 . S
C7698 H7682 0.931 . S
C7698 C7692 1.383 . S
C7698 C7697 1.379 . S
H7699 C7693 0.959 . S
H7700 C7693 0.961 . S
H7701 C7693 0.960 . S
H7702 C7694 0.930 . S
H7703 C7695 0.929 . S
H7704 C7712 0.929 . S
H7705 C7714 0.930 . S
H7706 C7716 0.930 . S
H7707 C7719 0.929 . S
H7708 C7722 0.930 . S
H7709 C7724 0.960 . S
H7710 C7724 0.960 . S
H7711 C7724 0.960 . S
C7712 H7704 0.929 . S
C7712 C7713 1.377 . S
C7712 C7714 1.384 . S
C7713 C7712 1.377 . S
C7713 C7719 1.390 . S
C7714 H7705 0.930 . S
C7714 C7712 1.384 . S
C7714 C7715 1.372 . S
C7715 C7714 1.372 . S
C7715 C7716 1.400 . S
C7715 C7720 1.490 . S
C7716 H7706 0.930 . S
C7716 C7715 1.400 . S
C7716 C7719 1.386 . S
H7717 C7733 0.930 . S
H7718 C7734 0.898 1_455 S
C7719 H7707 0.929 . S
C7719 C7713 1.390 . S
C7719 C7716 1.386 . S
C7720 C7715 1.490 . S
C7720 C7722 1.395 . S
C7720 C7723 1.403 . S
H7721 C7727 0.924 . S
C7722 H7708 0.930 . S
C7722 C7720 1.395 . S
C7722 C7725 1.403 . S
C7723 C7720 1.403 . S
C7723 C7724 1.524 . S
C7723 C7727 1.400 . S
C7724 H7709 0.960 . S
C7724 H7710 0.960 . S
C7724 H7711 0.960 . S
C7724 C7723 1.524 . S
C7725 C7722 1.403 . S
C7725 C7726 1.392 . S
C7725 C7729 1.495 . S
C7726 C7725 1.392 . S
C7726 C7727 1.385 . S
C7726 C7728 1.495 . S
C7727 H7721 0.924 . S
C7727 C7723 1.400 . S
C7727 C7726 1.385 . S
C7728 C7726 1.495 . S
C7728 C7730 1.364 1_455 S
C7728 C7734 1.380 1_455 S
C7729 C7725 1.495 . S
C7729 H7735 0.959 . S
C7729 H7736 0.961 . S
C7729 H7737 0.960 . S
C7730 C7728 1.364 1_655 S
C7730 C7731 1.394 . S
C7730 H7738 0.930 . S
C7731 C7730 1.394 . S
C7731 C7732 1.383 . S
C7731 H7739 0.929 . S
C7732 C7731 1.383 . S
C7732 C7733 1.377 . S
C7733 H7717 0.930 . S
C7733 C7732 1.377 . S
C7733 C7734 1.417 . S
C7734 H7718 0.898 1_655 S
C7734 C7728 1.380 1_655 S
C7734 C7733 1.417 . S
H7735 C7729 0.959 . S
H7736 C7729 0.961 . S
H7737 C7729 0.960 . S
H7738 C7730 0.930 . S
H7739 C7731 0.929 . S
H7740 C7748 0.929 . S
H7741 C7750 0.930 . S
H7742 C7752 0.930 . S
H7743 C7755 0.929 . S
H7744 C7758 0.930 . S
H7745 C7760 0.960 . S
H7746 C7760 0.960 . S
H7747 C7760 0.960 . S
C7748 H7740 0.929 . S
C7748 C7749 1.377 . S
C7748 C7750 1.384 . S
C7749 C7748 1.377 . S
C7749 C7755 1.390 . S
C7750 H7741 0.930 . S
C7750 C7748 1.384 . S
C7750 C7751 1.372 . S
C7751 C7750 1.372 . S
C7751 C7752 1.400 . S
C7751 C7756 1.490 . S
C7752 H7742 0.930 . S
C7752 C7751 1.400 . S
C7752 C7755 1.386 . S
H7753 C7769 0.930 . S
H7754 C7770 0.931 . S
C7755 H7743 0.929 . S
C7755 C7749 1.390 . S
C7755 C7752 1.386 . S
C7756 C7751 1.490 . S
C7756 C7758 1.395 . S
C7756 C7759 1.403 . S
H7757 C7763 0.930 . S
C7758 H7744 0.930 . S
C7758 C7756 1.395 . S
C7758 C7761 1.403 . S
C7759 C7756 1.403 . S
C7759 C7760 1.524 . S
C7759 C7763 1.400 . S
C7760 H7745 0.960 . S
C7760 H7746 0.960 . S
C7760 H7747 0.960 . S
C7760 C7759 1.524 . S
C7761 C7758 1.403 . S
C7761 C7762 1.392 . S
C7761 C7765 1.495 . S
C7762 C7761 1.392 . S
C7762 C7763 1.385 . S
C7762 C7764 1.478 . S
C7763 H7757 0.930 . S
C7763 C7759 1.400 . S
C7763 C7762 1.385 . S
C7764 C7762 1.478 . S
C7764 C7766 1.381 . S
C7764 C7770 1.383 . S
C7765 C7761 1.495 . S
C7765 H7771 0.959 . S
C7765 H7772 0.961 . S
C7765 H7773 0.960 . S
C7766 C7764 1.381 . S
C7766 C7767 1.394 . S
C7766 H7774 0.930 . S
C7767 C7766 1.394 . S
C7767 C7768 1.383 . S
C7767 H7775 0.929 . S
C7768 C7767 1.383 . S
C7768 C7769 1.377 . S
C7769 H7753 0.930 . S
C7769 C7768 1.377 . S
C7769 C7770 1.379 . S
C7770 H7754 0.931 . S
C7770 C7764 1.383 . S
C7770 C7769 1.379 . S
H7771 C7765 0.959 . S
H7772 C7765 0.961 . S
H7773 C7765 0.960 . S
H7774 C7766 0.930 . S
H7775 C7767 0.929 . S
H7776 C7784 0.929 . S
H7777 C7786 0.930 . S
H7778 C7788 0.930 . S
H7779 C7791 0.929 . S
H7780 C7794 0.930 . S
H7781 C7796 0.960 . S
H7782 C7796 0.960 . S
H7783 C7796 0.960 . S
C7784 H7776 0.929 . S
C7784 C7785 1.377 . S
C7784 C7786 1.384 . S
C7785 C7784 1.377 . S
C7785 C7791 1.390 . S
C7786 H7777 0.930 . S
C7786 C7784 1.384 . S
C7786 C7787 1.372 . S
C7787 C7786 1.372 . S
C7787 C7788 1.400 . S
C7787 C7792 1.490 . S
C7788 H7778 0.930 . S
C7788 C7787 1.400 . S
C7788 C7791 1.386 . S
H7789 C7805 0.930 . S
H7790 C7806 0.931 . S
C7791 H7779 0.929 . S
C7791 C7785 1.390 . S
C7791 C7788 1.386 . S
C7792 C7787 1.490 . S
C7792 C7794 1.395 . S
C7792 C7795 1.403 . S
H7793 C7799 0.930 . S
C7794 H7780 0.930 . S
C7794 C7792 1.395 . S
C7794 C7797 1.403 . S
C7795 C7792 1.403 . S
C7795 C7796 1.524 . S
C7795 C7799 1.400 . S
C7796 H7781 0.960 . S
C7796 H7782 0.960 . S
C7796 H7783 0.960 . S
C7796 C7795 1.524 . S
C7797 C7794 1.403 . S
C7797 C7798 1.392 . S
C7797 C7801 1.495 . S
C7798 C7797 1.392 . S
C7798 C7799 1.385 . S
C7798 C7800 1.478 . S
C7799 H7793 0.930 . S
C7799 C7795 1.400 . S
C7799 C7798 1.385 . S
C7800 C7798 1.478 . S
C7800 C7802 1.381 . S
C7800 C7806 1.383 . S
C7801 C7797 1.495 . S
C7801 H7807 0.959 . S
C7801 H7808 0.961 . S
C7801 H7809 0.960 . S
C7802 C7800 1.381 . S
C7802 C7803 1.394 . S
C7802 H7810 0.930 . S
C7803 C7802 1.394 . S
C7803 C7804 1.383 . S
C7803 H7811 0.929 . S
C7804 C7803 1.383 . S
C7804 C7805 1.377 . S
C7805 H7789 0.930 . S
C7805 C7804 1.377 . S
C7805 C7806 1.379 . S
C7806 H7790 0.931 . S
C7806 C7800 1.383 . S
C7806 C7805 1.379 . S
H7807 C7801 0.959 . S
H7808 C7801 0.961 . S
H7809 C7801 0.960 . S
H7810 C7802 0.930 . S
H7811 C7803 0.929 . S
H7812 C7820 0.929 . S
H7813 C7822 0.930 . S
H7814 C7824 0.930 . S
H7815 C7827 0.929 . S
H7816 C7830 0.930 . S
H7817 C7832 0.960 . S
H7818 C7832 0.960 . S
H7819 C7832 0.960 . S
C7820 H7812 0.929 . S
C7820 C7821 1.377 . S
C7820 C7822 1.384 1_455 S
C7821 C7820 1.377 . S
C7821 C7827 1.390 . S
C7822 H7813 0.930 . S
C7822 C7820 1.384 1_655 S
C7822 C7823 1.372 . S
C7823 C7822 1.372 . S
C7823 C7824 1.400 1_655 S
C7823 C7828 1.490 . S
C7824 H7814 0.930 . S
C7824 C7823 1.400 1_455 S
C7824 C7827 1.386 . S
H7825 C7841 0.930 . S
H7826 C7842 0.931 . S
C7827 H7815 0.929 . S
C7827 C7821 1.390 . S
C7827 C7824 1.386 . S
C7828 C7823 1.490 . S
C7828 C7830 1.395 . S
C7828 C7831 1.403 . S
H7829 C7835 0.930 . S
C7830 H7816 0.930 . S
C7830 C7828 1.395 . S
C7830 C7833 1.403 . S
C7831 C7828 1.403 . S
C7831 C7832 1.524 . S
C7831 C7835 1.400 . S
C7832 H7817 0.960 . S
C7832 H7818 0.960 . S
C7832 H7819 0.960 . S
C7832 C7831 1.524 . S
C7833 C7830 1.403 . S
C7833 C7834 1.392 . S
C7833 C7837 1.495 . S
C7834 C7833 1.392 . S
C7834 C7835 1.385 . S
C7834 C7836 1.478 . S
C7835 H7829 0.930 . S
C7835 C7831 1.400 . S
C7835 C7834 1.385 . S
C7836 C7834 1.478 . S
C7836 C7838 1.381 . S
C7836 C7842 1.383 . S
C7837 C7833 1.495 . S
C7837 H7843 0.959 . S
C7837 H7844 0.961 . S
C7837 H7845 0.960 . S
C7838 C7836 1.381 . S
C7838 C7839 1.394 . S
C7838 H7846 0.930 . S
C7839 C7838 1.394 . S
C7839 C7840 1.383 . S
C7839 H7847 0.929 . S
C7840 C7839 1.383 . S
C7840 C7841 1.377 . S
C7841 H7825 0.930 . S
C7841 C7840 1.377 . S
C7841 C7842 1.379 . S
C7842 H7826 0.931 . S
C7842 C7836 1.383 . S
C7842 C7841 1.379 . S
H7843 C7837 0.959 . S
H7844 C7837 0.961 . S
H7845 C7837 0.960 . S
H7846 C7838 0.930 . S
H7847 C7839 0.929 . S
H7848 C7856 0.929 . S
H7849 C7858 0.930 . S
H7850 C7860 0.930 . S
H7851 C7863 0.929 . S
H7852 C7866 0.930 . S
H7853 C7868 0.960 . S
H7854 C7868 0.960 . S
H7855 C7868 0.960 . S
C7856 H7848 0.929 . S
C7856 C7857 1.377 . S
C7856 C7858 1.384 1_545 S
C7857 C7856 1.377 . S
C7857 C7863 1.390 1_545 S
C7858 H7849 0.930 . S
C7858 C7856 1.384 1_565 S
C7858 C7859 1.372 . S
C7859 C7858 1.372 . S
C7859 C7860 1.400 . S
C7859 C7864 1.490 . S
C7860 H7850 0.930 . S
C7860 C7859 1.400 . S
C7860 C7863 1.386 . S
H7861 C7877 0.930 . S
H7862 C7878 0.931 . S
C7863 H7851 0.929 . S
C7863 C7857 1.390 1_565 S
C7863 C7860 1.386 . S
C7864 C7859 1.490 . S
C7864 C7866 1.395 . S
C7864 C7867 1.403 . S
H7865 C7871 0.930 . S
C7866 H7852 0.930 . S
C7866 C7864 1.395 . S
C7866 C7869 1.403 . S
C7867 C7864 1.403 . S
C7867 C7868 1.524 . S
C7867 C7871 1.400 . S
C7868 H7853 0.960 . S
C7868 H7854 0.960 . S
C7868 H7855 0.960 . S
C7868 C7867 1.524 . S
C7869 C7866 1.403 . S
C7869 C7870 1.392 . S
C7869 C7873 1.495 . S
C7870 C7869 1.392 . S
C7870 C7871 1.385 . S
C7870 C7872 1.478 . S
C7871 H7865 0.930 . S
C7871 C7867 1.400 . S
C7871 C7870 1.385 . S
C7872 C7870 1.478 . S
C7872 C7874 1.381 . S
C7872 C7878 1.383 . S
C7873 C7869 1.495 . S
C7873 H7879 0.959 . S
C7873 H7880 0.961 . S
C7873 H7881 0.960 . S
C7874 C7872 1.381 . S
C7874 C7875 1.394 . S
C7874 H7882 0.930 . S
C7875 C7874 1.394 . S
C7875 C7876 1.383 . S
C7875 H7883 0.929 . S
C7876 C7875 1.383 . S
C7876 C7877 1.377 . S
C7877 H7861 0.930 . S
C7877 C7876 1.377 . S
C7877 C7878 1.379 . S
C7878 H7862 0.931 . S
C7878 C7872 1.383 . S
C7878 C7877 1.379 . S
H7879 C7873 0.959 . S
H7880 C7873 0.961 . S
H7881 C7873 0.960 . S
H7882 C7874 0.930 . S
H7883 C7875 0.929 . S
H7884 C7892 0.929 . S
H7885 C7894 0.930 . S
H7886 C7896 0.930 . S
H7887 C7899 0.929 . S
H7888 C7902 0.930 . S
H7889 C7904 0.960 . S
H7890 C7904 0.960 . S
H7891 C7904 0.960 . S
C7892 H7884 0.929 . S
C7892 C7893 1.377 . S
C7892 C7894 1.384 . S
C7893 C7892 1.377 . S
C7893 C7899 1.390 . S
C7894 H7885 0.930 . S
C7894 C7892 1.384 . S
C7894 C7895 1.372 . S
C7895 C7894 1.372 . S
C7895 C7896 1.400 . S
C7895 C7900 1.490 . S
C7896 H7886 0.930 . S
C7896 C7895 1.400 . S
C7896 C7899 1.386 . S
H7897 C7913 0.930 . S
H7898 C7914 0.931 . S
C7899 H7887 0.929 . S
C7899 C7893 1.390 . S
C7899 C7896 1.386 . S
C7900 C7895 1.490 . S
C7900 C7902 1.395 . S
C7900 C7903 1.403 . S
H7901 C7907 0.930 . S
C7902 H7888 0.930 . S
C7902 C7900 1.395 . S
C7902 C7905 1.403 . S
C7903 C7900 1.403 . S
C7903 C7904 1.524 . S
C7903 C7907 1.400 . S
C7904 H7889 0.960 . S
C7904 H7890 0.960 . S
C7904 H7891 0.960 . S
C7904 C7903 1.524 . S
C7905 C7902 1.403 . S
C7905 C7906 1.392 . S
C7905 C7909 1.495 . S
C7906 C7905 1.392 . S
C7906 C7907 1.385 . S
C7906 C7908 1.478 . S
C7907 H7901 0.930 . S
C7907 C7903 1.400 . S
C7907 C7906 1.385 . S
C7908 C7906 1.478 . S
C7908 C7910 1.381 . S
C7908 C7914 1.383 . S
C7909 C7905 1.495 . S
C7909 H7915 0.959 . S
C7909 H7916 0.961 . S
C7909 H7917 0.960 . S
C7910 C7908 1.381 . S
C7910 C7911 1.394 . S
C7910 H7918 0.930 . S
C7911 C7910 1.394 . S
C7911 C7912 1.383 . S
C7911 H7919 0.929 . S
C7912 C7911 1.383 . S
C7912 C7913 1.377 . S
C7913 H7897 0.930 . S
C7913 C7912 1.377 . S
C7913 C7914 1.379 . S
C7914 H7898 0.931 . S
C7914 C7908 1.383 . S
C7914 C7913 1.379 . S
H7915 C7909 0.959 . S
H7916 C7909 0.961 . S
H7917 C7909 0.960 . S
H7918 C7910 0.930 . S
H7919 C7911 0.929 . S
H7920 C7928 0.929 . S
H7921 C7930 0.930 . S
H7922 C7932 0.930 . S
H7923 C7935 0.929 . S
H7924 C7938 0.930 . S
H7925 C7940 0.960 . S
H7926 C7940 0.960 . S
H7927 C7940 0.960 . S
C7928 H7920 0.929 . S
C7928 C7929 1.377 . S
C7928 C7930 1.384 . S
C7929 C7928 1.377 . S
C7929 C7935 1.390 . S
C7930 H7921 0.930 . S
C7930 C7928 1.384 . S
C7930 C7931 1.372 . S
C7931 C7930 1.372 . S
C7931 C7932 1.400 . S
C7931 C7936 1.490 . S
C7932 H7922 0.930 . S
C7932 C7931 1.400 . S
C7932 C7935 1.386 . S
H7933 C7949 0.930 . S
H7934 C7950 0.931 . S
C7935 H7923 0.929 . S
C7935 C7929 1.390 . S
C7935 C7932 1.386 . S
C7936 C7931 1.490 . S
C7936 C7938 1.395 . S
C7936 C7939 1.403 . S
H7937 C7943 0.930 . S
C7938 H7924 0.930 . S
C7938 C7936 1.395 . S
C7938 C7941 1.403 . S
C7939 C7936 1.403 . S
C7939 C7940 1.524 . S
C7939 C7943 1.400 . S
C7940 H7925 0.960 . S
C7940 H7926 0.960 . S
C7940 H7927 0.960 . S
C7940 C7939 1.524 . S
C7941 C7938 1.403 . S
C7941 C7942 1.392 . S
C7941 C7945 1.495 . S
C7942 C7941 1.392 . S
C7942 C7943 1.385 . S
C7942 C7944 1.478 . S
C7943 H7937 0.930 . S
C7943 C7939 1.400 . S
C7943 C7942 1.385 . S
C7944 C7942 1.478 . S
C7944 C7946 1.381 . S
C7944 C7950 1.383 . S
C7945 C7941 1.495 . S
C7945 H7951 0.959 . S
C7945 H7952 0.961 . S
C7945 H7953 0.960 . S
C7946 C7944 1.381 . S
C7946 C7947 1.394 . S
C7946 H7954 0.930 . S
C7947 C7946 1.394 . S
C7947 C7948 1.383 . S
C7947 H7955 0.929 . S
C7948 C7947 1.383 . S
C7948 C7949 1.377 . S
C7949 H7933 0.930 . S
C7949 C7948 1.377 . S
C7949 C7950 1.379 . S
C7950 H7934 0.931 . S
C7950 C7944 1.383 . S
C7950 C7949 1.379 . S
H7951 C7945 0.959 . S
H7952 C7945 0.961 . S
H7953 C7945 0.960 . S
H7954 C7946 0.930 . S
H7955 C7947 0.929 . S
H7956 C7964 0.929 . S
H7957 C7966 0.930 . S
H7958 C7968 0.930 . S
H7959 C7971 0.929 . S
H7960 C7974 0.930 . S
H7961 C7976 0.960 . S
H7962 C7976 0.960 . S
H7963 C7976 0.960 . S
C7964 H7956 0.929 . S
C7964 C7965 1.377 . S
C7964 C7966 1.384 . S
C7965 C7964 1.377 . S
C7965 C7971 1.390 . S
C7966 H7957 0.930 . S
C7966 C7964 1.384 . S
C7966 C7967 1.372 . S
C7967 C7966 1.372 . S
C7967 C7968 1.400 . S
C7967 C7972 1.490 . S
C7968 H7958 0.930 . S
C7968 C7967 1.400 . S
C7968 C7971 1.386 . S
H7969 C7985 0.930 . S
H7970 C7986 0.931 . S
C7971 H7959 0.929 . S
C7971 C7965 1.390 . S
C7971 C7968 1.386 . S
C7972 C7967 1.490 . S
C7972 C7974 1.395 . S
C7972 C7975 1.403 . S
H7973 C7979 0.930 . S
C7974 H7960 0.930 . S
C7974 C7972 1.395 . S
C7974 C7977 1.403 . S
C7975 C7972 1.403 . S
C7975 C7976 1.524 . S
C7975 C7979 1.400 . S
C7976 H7961 0.960 . S
C7976 H7962 0.960 . S
C7976 H7963 0.960 . S
C7976 C7975 1.524 . S
C7977 C7974 1.403 . S
C7977 C7978 1.392 . S
C7977 C7981 1.495 . S
C7978 C7977 1.392 . S
C7978 C7979 1.385 . S
C7978 C7980 1.478 . S
C7979 H7973 0.930 . S
C7979 C7975 1.400 . S
C7979 C7978 1.385 . S
C7980 C7978 1.478 . S
C7980 C7982 1.381 . S
C7980 C7986 1.383 . S
C7981 C7977 1.495 . S
C7981 H7987 0.959 . S
C7981 H7988 0.961 . S
C7981 H7989 0.960 . S
C7982 C7980 1.381 . S
C7982 C7983 1.394 . S
C7982 H7990 0.930 . S
C7983 C7982 1.394 . S
C7983 C7984 1.383 . S
C7983 H7991 0.929 . S
C7984 C7983 1.383 . S
C7984 C7985 1.377 . S
C7985 H7969 0.930 . S
C7985 C7984 1.377 . S
C7985 C7986 1.379 . S
C7986 H7970 0.931 . S
C7986 C7980 1.383 . S
C7986 C7985 1.379 . S
H7987 C7981 0.959 . S
H7988 C7981 0.961 . S
H7989 C7981 0.960 . S
H7990 C7982 0.930 . S
H7991 C7983 0.929 . S
H7992 C8000 0.929 . S
H7993 C8002 0.930 . S
H7994 C8004 0.930 . S
H7995 C8007 0.929 . S
H7996 C8010 0.930 . S
H7997 C8012 0.960 . S
H7998 C8012 0.960 . S
H7999 C8012 0.960 . S
C8000 H7992 0.929 . S
C8000 C8001 1.377 . S
C8000 C8002 1.384 . S
C8001 C8000 1.377 . S
C8001 C8007 1.390 . S
C8002 H7993 0.930 . S
C8002 C8000 1.384 . S
C8002 C8003 1.372 . S
C8003 C8002 1.372 . S
C8003 C8004 1.400 . S
C8003 C8008 1.490 . S
C8004 H7994 0.930 . S
C8004 C8003 1.400 . S
C8004 C8007 1.386 . S
H8005 C8021 0.930 . S
H8006 C8022 0.931 . S
C8007 H7995 0.929 . S
C8007 C8001 1.390 . S
C8007 C8004 1.386 . S
C8008 C8003 1.490 . S
C8008 C8010 1.395 . S
C8008 C8011 1.403 . S
H8009 C8015 0.930 . S
C8010 H7996 0.930 . S
C8010 C8008 1.395 . S
C8010 C8013 1.403 . S
C8011 C8008 1.403 . S
C8011 C8012 1.524 . S
C8011 C8015 1.400 . S
C8012 H7997 0.960 . S
C8012 H7998 0.960 . S
C8012 H7999 0.960 . S
C8012 C8011 1.524 . S
C8013 C8010 1.403 . S
C8013 C8014 1.392 . S
C8013 C8017 1.495 . S
C8014 C8013 1.392 . S
C8014 C8015 1.385 . S
C8014 C8016 1.478 . S
C8015 H8009 0.930 . S
C8015 C8011 1.400 . S
C8015 C8014 1.385 . S
C8016 C8014 1.478 . S
C8016 C8018 1.381 . S
C8016 C8022 1.383 . S
C8017 C8013 1.495 . S
C8017 H8023 0.959 . S
C8017 H8024 0.961 . S
C8017 H8025 0.960 . S
C8018 C8016 1.381 . S
C8018 C8019 1.394 . S
C8018 H8026 0.930 . S
C8019 C8018 1.394 . S
C8019 C8020 1.383 . S
C8019 H8027 0.929 . S
C8020 C8019 1.383 . S
C8020 C8021 1.377 . S
C8021 H8005 0.930 . S
C8021 C8020 1.377 . S
C8021 C8022 1.379 . S
C8022 H8006 0.931 . S
C8022 C8016 1.383 . S
C8022 C8021 1.379 . S
H8023 C8017 0.959 . S
H8024 C8017 0.961 . S
H8025 C8017 0.960 . S
H8026 C8018 0.930 . S
H8027 C8019 0.929 . S
H8028 C8036 0.929 . S
H8029 C8038 0.930 . S
H8030 C8040 0.930 . S
H8031 C8043 0.929 . S
H8032 C8046 0.930 . S
H8033 C8048 0.960 . S
H8034 C8048 0.960 . S
H8035 C8048 0.960 . S
C8036 H8028 0.929 . S
C8036 C8037 1.377 1_655 S
C8036 C8038 1.384 . S
C8037 C8036 1.377 1_455 S
C8037 C8043 1.390 . S
C8038 H8029 0.930 . S
C8038 C8036 1.384 . S
C8038 C8039 1.372 . S
C8039 C8038 1.372 . S
C8039 C8040 1.400 1_655 S
C8039 C8044 1.490 . S
C8040 H8030 0.930 . S
C8040 C8039 1.400 1_455 S
C8040 C8043 1.386 . S
H8041 C8057 0.930 . S
H8042 C8058 0.931 . S
C8043 H8031 0.929 . S
C8043 C8037 1.390 . S
C8043 C8040 1.386 . S
C8044 C8039 1.490 . S
C8044 C8046 1.395 . S
C8044 C8047 1.403 . S
H8045 C8051 0.930 . S
C8046 H8032 0.930 . S
C8046 C8044 1.395 . S
C8046 C8049 1.403 . S
C8047 C8044 1.403 . S
C8047 C8048 1.524 1_655 S
C8047 C8051 1.400 . S
C8048 H8033 0.960 . S
C8048 H8034 0.960 . S
C8048 H8035 0.960 . S
C8048 C8047 1.524 1_455 S
C8049 C8046 1.403 . S
C8049 C8050 1.392 . S
C8049 C8053 1.495 . S
C8050 C8049 1.392 . S
C8050 C8051 1.385 . S
C8050 C8052 1.478 . S
C8051 H8045 0.930 . S
C8051 C8047 1.400 . S
C8051 C8050 1.385 . S
C8052 C8050 1.478 . S
C8052 C8054 1.381 . S
C8052 C8058 1.383 . S
C8053 C8049 1.495 . S
C8053 H8059 0.959 . S
C8053 H8060 0.961 . S
C8053 H8061 0.960 . S
C8054 C8052 1.381 . S
C8054 C8055 1.394 . S
C8054 H8062 0.930 . S
C8055 C8054 1.394 . S
C8055 C8056 1.383 . S
C8055 H8063 0.929 . S
C8056 C8055 1.383 . S
C8056 C8057 1.377 . S
C8057 H8041 0.930 . S
C8057 C8056 1.377 . S
C8057 C8058 1.379 . S
C8058 H8042 0.931 . S
C8058 C8052 1.383 . S
C8058 C8057 1.379 . S
H8059 C8053 0.959 . S
H8060 C8053 0.961 . S
H8061 C8053 0.960 . S
H8062 C8054 0.930 . S
H8063 C8055 0.929 . S
H8064 C8072 0.929 . S
H8065 C8074 0.930 . S
H8066 C8076 0.930 . S
H8067 C8079 0.929 . S
H8068 C8082 0.930 . S
H8069 C8084 0.960 . S
H8070 C8084 0.960 . S
H8071 C8084 0.960 . S
C8072 H8064 0.929 . S
C8072 C8073 1.377 . S
C8072 C8074 1.384 . S
C8073 C8072 1.377 . S
C8073 C8079 1.390 . S
C8074 H8065 0.930 . S
C8074 C8072 1.384 . S
C8074 C8075 1.372 . S
C8075 C8074 1.372 . S
C8075 C8076 1.400 . S
C8075 C8080 1.490 . S
C8076 H8066 0.930 . S
C8076 C8075 1.400 . S
C8076 C8079 1.386 . S
H8077 C8093 0.930 . S
H8078 C8094 0.931 . S
C8079 H8067 0.929 . S
C8079 C8073 1.390 . S
C8079 C8076 1.386 . S
C8080 C8075 1.490 . S
C8080 C8082 1.395 . S
C8080 C8083 1.403 . S
H8081 C8087 0.930 . S
C8082 H8068 0.930 . S
C8082 C8080 1.395 . S
C8082 C8085 1.403 . S
C8083 C8080 1.403 . S
C8083 C8084 1.524 . S
C8083 C8087 1.400 . S
C8084 H8069 0.960 . S
C8084 H8070 0.960 . S
C8084 H8071 0.960 . S
C8084 C8083 1.524 . S
C8085 C8082 1.403 . S
C8085 C8086 1.392 . S
C8085 C8089 1.495 . S
C8086 C8085 1.392 . S
C8086 C8087 1.385 . S
C8086 C8088 1.478 . S
C8087 H8081 0.930 . S
C8087 C8083 1.400 . S
C8087 C8086 1.385 . S
C8088 C8086 1.478 . S
C8088 C8090 1.381 . S
C8088 C8094 1.383 . S
C8089 C8085 1.495 . S
C8089 H8095 0.959 . S
C8089 H8096 0.961 . S
C8089 H8097 0.960 . S
C8090 C8088 1.381 . S
C8090 C8091 1.394 . S
C8090 H8098 0.930 . S
C8091 C8090 1.394 . S
C8091 C8092 1.383 . S
C8091 H8099 0.929 . S
C8092 C8091 1.383 . S
C8092 C8093 1.377 . S
C8093 H8077 0.930 . S
C8093 C8092 1.377 . S
C8093 C8094 1.379 . S
C8094 H8078 0.931 . S
C8094 C8088 1.383 . S
C8094 C8093 1.379 . S
H8095 C8089 0.959 . S
H8096 C8089 0.961 . S
H8097 C8089 0.960 . S
H8098 C8090 0.930 . S
H8099 C8091 0.929 . S
H8100 C8108 0.929 . S
H8101 C8110 0.930 . S
H8102 C8112 0.930 1_556 S
H8103 C8115 0.929 . S
H8104 C8118 0.930 . S
H8105 C8120 0.960 1_556 S
H8106 C8120 0.960 . S
H8107 C8120 0.960 1_556 S
C8108 H8100 0.929 . S
C8108 C8109 1.377 . S
C8108 C8110 1.384 . S
C8109 C8108 1.377 . S
C8109 C8115 1.390 . S
C8110 H8101 0.930 . S
C8110 C8108 1.384 . S
C8110 C8111 1.372 . S
C8111 C8110 1.372 . S
C8111 C8112 1.400 . S
C8111 C8116 1.490 1_554 S
C8112 H8102 0.930 1_554 S
C8112 C8111 1.400 . S
C8112 C8115 1.386 . S
H8113 C8129 0.930 . S
H8114 C8130 0.931 . S
C8115 H8103 0.929 . S
C8115 C8109 1.390 . S
C8115 C8112 1.386 . S
C8116 C8111 1.490 1_556 S
C8116 C8118 1.395 . S
C8116 C8119 1.403 . S
H8117 C8123 0.930 . S
C8118 H8104 0.930 . S
C8118 C8116 1.395 . S
C8118 C8121 1.403 . S
C8119 C8116 1.403 . S
C8119 C8120 1.524 1_556 S
C8119 C8123 1.400 . S
C8120 H8105 0.960 1_554 S
C8120 H8106 0.960 . S
C8120 H8107 0.960 1_554 S
C8120 C8119 1.524 1_554 S
C8121 C8118 1.403 . S
C8121 C8122 1.392 . S
C8121 C8125 1.495 . S
C8122 C8121 1.392 . S
C8122 C8123 1.385 . S
C8122 C8124 1.478 . S
C8123 H8117 0.930 . S
C8123 C8119 1.400 . S
C8123 C8122 1.385 . S
C8124 C8122 1.478 . S
C8124 C8126 1.381 . S
C8124 C8130 1.383 . S
C8125 C8121 1.495 . S
C8125 H8131 0.959 . S
C8125 H8132 0.961 . S
C8125 H8133 0.960 . S
C8126 C8124 1.381 . S
C8126 C8127 1.394 . S
C8126 H8134 0.930 . S
C8127 C8126 1.394 . S
C8127 C8128 1.383 . S
C8127 H8135 0.929 . S
C8128 C8127 1.383 . S
C8128 C8129 1.377 . S
C8129 H8113 0.930 . S
C8129 C8128 1.377 . S
C8129 C8130 1.379 . S
C8130 H8114 0.931 . S
C8130 C8124 1.383 . S
C8130 C8129 1.379 . S
H8131 C8125 0.959 . S
H8132 C8125 0.961 . S
H8133 C8125 0.960 . S
H8134 C8126 0.930 . S
H8135 C8127 0.929 . S
H8136 C8144 0.929 . S
H8137 C8146 0.930 . S
H8138 C8148 0.917 1_556 S
H8139 C8151 0.929 . S
H8140 C8154 0.930 1_554 S
H8141 C8156 0.960 . S
H8142 C8156 0.960 . S
H8143 C8156 0.960 . S
C8144 H8136 0.929 . S
C8144 C8145 1.377 . S
C8144 C8146 1.384 . S
C8145 C8144 1.377 . S
C8145 C8151 1.390 . S
C8146 H8137 0.930 . S
C8146 C8144 1.384 . S
C8146 C8147 1.372 . S
C8147 C8146 1.372 . S
C8147 C8148 1.402 . S
C8147 C8152 1.490 1_554 S
C8148 H8138 0.917 1_554 S
C8148 C8147 1.402 . S
C8148 C8151 1.396 . S
H8149 C8165 0.930 . S
H8150 C8166 0.931 . S
C8151 H8139 0.929 . S
C8151 C8145 1.390 . S
C8151 C8148 1.396 . S
C8152 C8147 1.490 1_556 S
C8152 C8154 1.395 . S
C8152 C8155 1.403 . S
H8153 C8159 0.930 . S
C8154 H8140 0.930 1_556 S
C8154 C8152 1.395 . S
C8154 C8157 1.403 . S
C8155 C8152 1.403 . S
C8155 C8156 1.524 . S
C8155 C8159 1.400 . S
C8156 H8141 0.960 . S
C8156 H8142 0.960 . S
C8156 H8143 0.960 . S
C8156 C8155 1.524 . S
C8157 C8154 1.403 . S
C8157 C8158 1.392 . S
C8157 C8161 1.495 . S
C8158 C8157 1.392 . S
C8158 C8159 1.385 . S
C8158 C8160 1.478 . S
C8159 H8153 0.930 . S
C8159 C8155 1.400 . S
C8159 C8158 1.385 . S
C8160 C8158 1.478 . S
C8160 C8162 1.381 . S
C8160 C8166 1.383 . S
C8161 C8157 1.495 . S
C8161 H8167 0.959 . S
C8161 H8168 0.961 . S
C8161 H8169 0.960 . S
C8162 C8160 1.381 . S
C8162 C8163 1.394 . S
C8162 H8170 0.930 . S
C8163 C8162 1.394 . S
C8163 C8164 1.383 . S
C8163 H8171 0.929 . S
C8164 C8163 1.383 . S
C8164 C8165 1.377 . S
C8165 H8149 0.930 . S
C8165 C8164 1.377 . S
C8165 C8166 1.379 . S
C8166 H8150 0.931 . S
C8166 C8160 1.383 . S
C8166 C8165 1.379 . S
H8167 C8161 0.959 . S
H8168 C8161 0.961 . S
H8169 C8161 0.960 . S
H8170 C8162 0.930 . S
H8171 C8163 0.929 . S
H8172 C8180 0.929 . S
H8173 C8182 0.930 . S
H8174 C8184 0.930 . S
H8175 C8187 0.929 . S
H8176 C8190 0.930 . S
H8177 C8192 0.960 . S
H8178 C8192 0.960 . S
H8179 C8192 0.960 . S
C8180 H8172 0.929 . S
C8180 C8181 1.377 . S
C8180 C8182 1.384 . S
C8181 C8180 1.377 . S
C8181 C8187 1.390 . S
C8182 H8173 0.930 . S
C8182 C8180 1.384 . S
C8182 C8183 1.372 . S
C8183 C8182 1.372 . S
C8183 C8184 1.400 . S
C8183 C8188 1.490 . S
C8184 H8174 0.930 . S
C8184 C8183 1.400 . S
C8184 C8187 1.386 . S
H8185 C8201 0.930 . S
H8186 C8202 0.931 . S
C8187 H8175 0.929 . S
C8187 C8181 1.390 . S
C8187 C8184 1.386 . S
C8188 C8183 1.490 . S
C8188 C8190 1.395 . S
C8188 C8191 1.403 . S
H8189 C8195 0.930 . S
C8190 H8176 0.930 . S
C8190 C8188 1.395 . S
C8190 C8193 1.403 . S
C8191 C8188 1.403 . S
C8191 C8192 1.524 . S
C8191 C8195 1.400 . S
C8192 H8177 0.960 . S
C8192 H8178 0.960 . S
C8192 H8179 0.960 . S
C8192 C8191 1.524 . S
C8193 C8190 1.403 . S
C8193 C8194 1.392 . S
C8193 C8197 1.495 . S
C8194 C8193 1.392 . S
C8194 C8195 1.385 . S
C8194 C8196 1.478 . S
C8195 H8189 0.930 . S
C8195 C8191 1.400 . S
C8195 C8194 1.385 . S
C8196 C8194 1.478 . S
C8196 C8198 1.381 . S
C8196 C8202 1.383 . S
C8197 C8193 1.495 . S
C8197 H8203 0.959 . S
C8197 H8204 0.961 . S
C8197 H8205 0.960 . S
C8198 C8196 1.381 . S
C8198 C8199 1.394 . S
C8198 H8206 0.930 . S
C8199 C8198 1.394 . S
C8199 C8200 1.383 . S
C8199 H8207 0.929 . S
C8200 C8199 1.383 . S
C8200 C8201 1.377 . S
C8201 H8185 0.930 . S
C8201 C8200 1.377 . S
C8201 C8202 1.379 . S
C8202 H8186 0.931 . S
C8202 C8196 1.383 . S
C8202 C8201 1.379 . S
H8203 C8197 0.959 . S
H8204 C8197 0.961 . S
H8205 C8197 0.960 . S
H8206 C8198 0.930 . S
H8207 C8199 0.929 . S
H8208 C8216 0.929 . S
H8209 C8218 0.930 . S
H8210 C8220 0.930 . S
H8211 C8223 0.929 . S
H8212 C8226 0.930 . S
H8213 C8228 0.960 . S
H8214 C8228 0.960 . S
H8215 C8228 0.960 . S
C8216 H8208 0.929 . S
C8216 C8217 1.377 . S
C8216 C8218 1.384 . S
C8217 C8216 1.377 . S
C8217 C8223 1.390 . S
C8218 H8209 0.930 . S
C8218 C8216 1.384 . S
C8218 C8219 1.372 . S
C8219 C8218 1.372 . S
C8219 C8220 1.400 . S
C8219 C8224 1.490 . S
C8220 H8210 0.930 . S
C8220 C8219 1.400 . S
C8220 C8223 1.386 . S
H8221 C8237 0.930 . S
H8222 C8238 0.931 . S
C8223 H8211 0.929 . S
C8223 C8217 1.390 . S
C8223 C8220 1.386 . S
C8224 C8219 1.490 . S
C8224 C8226 1.395 . S
C8224 C8227 1.403 . S
H8225 C8231 0.930 . S
C8226 H8212 0.930 . S
C8226 C8224 1.395 . S
C8226 C8229 1.403 . S
C8227 C8224 1.403 . S
C8227 C8228 1.524 . S
C8227 C8231 1.400 . S
C8228 H8213 0.960 . S
C8228 H8214 0.960 . S
C8228 H8215 0.960 . S
C8228 C8227 1.524 . S
C8229 C8226 1.403 . S
C8229 C8230 1.392 . S
C8229 C8233 1.495 . S
C8230 C8229 1.392 . S
C8230 C8231 1.385 . S
C8230 C8232 1.478 . S
C8231 H8225 0.930 . S
C8231 C8227 1.400 . S
C8231 C8230 1.385 . S
C8232 C8230 1.478 . S
C8232 C8234 1.381 . S
C8232 C8238 1.383 . S
C8233 C8229 1.495 . S
C8233 H8239 0.959 . S
C8233 H8240 0.961 . S
C8233 H8241 0.960 . S
C8234 C8232 1.381 . S
C8234 C8235 1.394 . S
C8234 H8242 0.930 . S
C8235 C8234 1.394 . S
C8235 C8236 1.383 . S
C8235 H8243 0.929 . S
C8236 C8235 1.383 . S
C8236 C8237 1.377 . S
C8237 H8221 0.930 . S
C8237 C8236 1.377 . S
C8237 C8238 1.379 . S
C8238 H8222 0.931 . S
C8238 C8232 1.383 . S
C8238 C8237 1.379 . S
H8239 C8233 0.959 . S
H8240 C8233 0.961 . S
H8241 C8233 0.960 . S
H8242 C8234 0.930 . S
H8243 C8235 0.929 . S
H8244 C8252 0.929 . S
H8245 C8254 0.930 . S
H8246 C8256 0.930 . S
H8247 C8259 0.929 . S
H8248 C8262 0.930 . S
H8249 C8264 0.960 . S
H8250 C8264 0.960 . S
H8251 C8264 0.960 . S
C8252 H8244 0.929 . S
C8252 C8253 1.377 . S
C8252 C8254 1.384 . S
C8253 C8252 1.377 . S
C8253 C8259 1.390 . S
C8254 H8245 0.930 . S
C8254 C8252 1.384 . S
C8254 C8255 1.372 . S
C8255 C8254 1.372 . S
C8255 C8256 1.400 . S
C8255 C8260 1.490 . S
C8256 H8246 0.930 . S
C8256 C8255 1.400 . S
C8256 C8259 1.386 . S
H8257 C8273 0.930 . S
H8258 C8274 0.931 . S
C8259 H8247 0.929 . S
C8259 C8253 1.390 . S
C8259 C8256 1.386 . S
C8260 C8255 1.490 . S
C8260 C8262 1.395 . S
C8260 C8263 1.403 . S
H8261 C8267 0.930 . S
C8262 H8248 0.930 . S
C8262 C8260 1.395 . S
C8262 C8265 1.403 . S
C8263 C8260 1.403 . S
C8263 C8264 1.524 . S
C8263 C8267 1.400 . S
C8264 H8249 0.960 . S
C8264 H8250 0.960 . S
C8264 H8251 0.960 . S
C8264 C8263 1.524 . S
C8265 C8262 1.403 . S
C8265 C8266 1.392 . S
C8265 C8269 1.495 . S
C8266 C8265 1.392 . S
C8266 C8267 1.385 . S
C8266 C8268 1.478 . S
C8267 H8261 0.930 . S
C8267 C8263 1.400 . S
C8267 C8266 1.385 . S
C8268 C8266 1.478 . S
C8268 C8270 1.381 . S
C8268 C8274 1.383 . S
C8269 C8265 1.495 . S
C8269 H8275 0.959 . S
C8269 H8276 0.961 . S
C8269 H8277 0.960 . S
C8270 C8268 1.381 . S
C8270 C8271 1.394 . S
C8270 H8278 0.930 . S
C8271 C8270 1.394 . S
C8271 C8272 1.383 . S
C8271 H8279 0.929 . S
C8272 C8271 1.383 . S
C8272 C8273 1.377 . S
C8273 H8257 0.930 . S
C8273 C8272 1.377 . S
C8273 C8274 1.379 . S
C8274 H8258 0.931 . S
C8274 C8268 1.383 . S
C8274 C8273 1.379 . S
H8275 C8269 0.959 . S
H8276 C8269 0.961 . S
H8277 C8269 0.960 . S
H8278 C8270 0.930 . S
H8279 C8271 0.929 . S
H8280 C8288 0.929 . S
H8281 C8290 0.930 . S
H8282 C8292 0.930 . S
H8283 C8295 0.929 . S
H8284 C8298 0.930 . S
H8285 C8300 0.960 . S
H8286 C8300 0.960 . S
H8287 C8300 0.960 . S
C8288 H8280 0.929 . S
C8288 C8289 1.377 . S
C8288 C8290 1.384 . S
C8289 C8288 1.377 . S
C8289 C8295 1.390 . S
C8290 H8281 0.930 . S
C8290 C8288 1.384 . S
C8290 C8291 1.372 . S
C8291 C8290 1.372 . S
C8291 C8292 1.400 . S
C8291 C8296 1.490 . S
C8292 H8282 0.930 . S
C8292 C8291 1.400 . S
C8292 C8295 1.386 . S
H8293 C8309 0.930 . S
H8294 C8310 0.931 . S
C8295 H8283 0.929 . S
C8295 C8289 1.390 . S
C8295 C8292 1.386 . S
C8296 C8291 1.490 . S
C8296 C8298 1.395 . S
C8296 C8299 1.403 . S
H8297 C8303 0.930 . S
C8298 H8284 0.930 . S
C8298 C8296 1.395 . S
C8298 C8301 1.403 . S
C8299 C8296 1.403 . S
C8299 C8300 1.524 . S
C8299 C8303 1.400 . S
C8300 H8285 0.960 . S
C8300 H8286 0.960 . S
C8300 H8287 0.960 . S
C8300 C8299 1.524 . S
C8301 C8298 1.403 . S
C8301 C8302 1.392 . S
C8301 C8305 1.495 . S
C8302 C8301 1.392 . S
C8302 C8303 1.385 . S
C8302 C8304 1.478 . S
C8303 H8297 0.930 . S
C8303 C8299 1.400 . S
C8303 C8302 1.385 . S
C8304 C8302 1.478 . S
C8304 C8306 1.381 . S
C8304 C8310 1.383 . S
C8305 C8301 1.495 . S
C8305 H8311 0.959 . S
C8305 H8312 0.961 . S
C8305 H8313 0.960 . S
C8306 C8304 1.381 . S
C8306 C8307 1.394 . S
C8306 H8314 0.930 . S
C8307 C8306 1.394 . S
C8307 C8308 1.383 . S
C8307 H8315 0.929 . S
C8308 C8307 1.383 . S
C8308 C8309 1.377 . S
C8309 H8293 0.930 . S
C8309 C8308 1.377 . S
C8309 C8310 1.379 . S
C8310 H8294 0.931 . S
C8310 C8304 1.383 . S
C8310 C8309 1.379 . S
H8311 C8305 0.959 . S
H8312 C8305 0.961 . S
H8313 C8305 0.960 . S
H8314 C8306 0.930 . S
H8315 C8307 0.929 . S
H8316 C8324 0.929 . S
H8317 C8326 0.930 . S
H8318 C8328 0.930 . S
H8319 C8331 0.929 . S
H8320 C8334 0.930 . S
H8321 C8336 0.960 . S
H8322 C8336 0.960 . S
H8323 C8336 0.960 . S
C8324 H8316 0.929 . S
C8324 C8325 1.377 . S
C8324 C8326 1.384 . S
C8325 C8324 1.377 . S
C8325 C8331 1.390 . S
C8326 H8317 0.930 . S
C8326 C8324 1.384 . S
C8326 C8327 1.372 . S
C8327 C8326 1.372 . S
C8327 C8328 1.400 . S
C8327 C8332 1.490 . S
C8328 H8318 0.930 . S
C8328 C8327 1.400 . S
C8328 C8331 1.386 . S
H8329 C8345 0.930 . S
H8330 C8346 0.931 . S
C8331 H8319 0.929 . S
C8331 C8325 1.390 . S
C8331 C8328 1.386 . S
C8332 C8327 1.490 . S
C8332 C8334 1.395 . S
C8332 C8335 1.403 . S
H8333 C8339 0.930 . S
C8334 H8320 0.930 . S
C8334 C8332 1.395 . S
C8334 C8337 1.403 . S
C8335 C8332 1.403 . S
C8335 C8336 1.524 . S
C8335 C8339 1.400 . S
C8336 H8321 0.960 . S
C8336 H8322 0.960 . S
C8336 H8323 0.960 . S
C8336 C8335 1.524 . S
C8337 C8334 1.403 . S
C8337 C8338 1.392 . S
C8337 C8341 1.495 . S
C8338 C8337 1.392 . S
C8338 C8339 1.385 . S
C8338 C8340 1.478 . S
C8339 H8333 0.930 . S
C8339 C8335 1.400 . S
C8339 C8338 1.385 . S
C8340 C8338 1.478 . S
C8340 C8342 1.381 . S
C8340 C8346 1.383 . S
C8341 C8337 1.495 . S
C8341 H8347 0.959 . S
C8341 H8348 0.961 . S
C8341 H8349 0.960 . S
C8342 C8340 1.381 . S
C8342 C8343 1.394 . S
C8342 H8350 0.930 . S
C8343 C8342 1.394 . S
C8343 C8344 1.383 . S
C8343 H8351 0.929 . S
C8344 C8343 1.383 . S
C8344 C8345 1.377 . S
C8345 H8329 0.930 . S
C8345 C8344 1.377 . S
C8345 C8346 1.379 . S
C8346 H8330 0.931 . S
C8346 C8340 1.383 . S
C8346 C8345 1.379 . S
H8347 C8341 0.959 . S
H8348 C8341 0.961 . S
H8349 C8341 0.960 . S
H8350 C8342 0.930 . S
H8351 C8343 0.929 . S
H8352 C8360 0.929 . S
H8353 C8362 0.930 . S
H8354 C8364 0.930 . S
H8355 C8367 0.929 . S
H8356 C8370 0.930 . S
H8357 C8372 0.960 . S
H8358 C8372 0.960 . S
H8359 C8372 0.960 . S
C8360 H8352 0.929 . S
C8360 C8361 1.377 . S
C8360 C8362 1.384 . S
C8361 C8360 1.377 . S
C8361 C8367 1.390 1_455 S
C8362 H8353 0.930 . S
C8362 C8360 1.384 . S
C8362 C8363 1.372 1_455 S
C8363 C8362 1.372 1_655 S
C8363 C8364 1.400 . S
C8363 C8368 1.490 . S
C8364 H8354 0.930 . S
C8364 C8363 1.400 . S
C8364 C8367 1.386 . S
H8365 C8381 0.930 . S
H8366 C8382 0.931 . S
C8367 H8355 0.929 . S
C8367 C8361 1.390 1_655 S
C8367 C8364 1.386 . S
C8368 C8363 1.490 . S
C8368 C8370 1.395 . S
C8368 C8371 1.403 . S
H8369 C8375 0.930 . S
C8370 H8356 0.930 . S
C8370 C8368 1.395 . S
C8370 C8373 1.403 . S
C8371 C8368 1.403 . S
C8371 C8372 1.524 . S
C8371 C8375 1.400 . S
C8372 H8357 0.960 . S
C8372 H8358 0.960 . S
C8372 H8359 0.960 . S
C8372 C8371 1.524 . S
C8373 C8370 1.403 . S
C8373 C8374 1.392 . S
C8373 C8377 1.495 . S
C8374 C8373 1.392 . S
C8374 C8375 1.385 . S
C8374 C8376 1.478 . S
C8375 H8369 0.930 . S
C8375 C8371 1.400 . S
C8375 C8374 1.385 . S
C8376 C8374 1.478 . S
C8376 C8378 1.381 . S
C8376 C8382 1.383 . S
C8377 C8373 1.495 . S
C8377 H8383 0.959 . S
C8377 H8384 0.961 . S
C8377 H8385 0.960 . S
C8378 C8376 1.381 . S
C8378 C8379 1.394 . S
C8378 H8386 0.930 . S
C8379 C8378 1.394 . S
C8379 C8380 1.383 . S
C8379 H8387 0.929 . S
C8380 C8379 1.383 . S
C8380 C8381 1.377 . S
C8381 H8365 0.930 . S
C8381 C8380 1.377 . S
C8381 C8382 1.379 . S
C8382 H8366 0.931 . S
C8382 C8376 1.383 . S
C8382 C8381 1.379 . S
H8383 C8377 0.959 . S
H8384 C8377 0.961 . S
H8385 C8377 0.960 . S
H8386 C8378 0.930 . S
H8387 C8379 0.929 . S
H8388 C8396 0.929 . S
H8389 C8398 0.930 . S
H8390 C8400 0.888 1_565 S
H8391 C8403 0.929 . S
H8392 C8406 0.930 . S
H8393 C8408 0.960 . S
H8394 C8408 0.960 . S
H8395 C8408 0.960 . S
C8396 H8388 0.929 . S
C8396 C8397 1.377 . S
C8396 C8398 1.384 . S
C8397 C8396 1.377 . S
C8397 C8403 1.390 . S
C8398 H8389 0.930 . S
C8398 C8396 1.384 . S
C8398 C8399 1.372 . S
C8399 C8398 1.372 . S
C8399 C8400 1.415 . S
C8399 C8404 1.490 1_545 S
C8400 H8390 0.888 1_545 S
C8400 C8399 1.415 . S
C8400 C8403 1.413 . S
H8401 C8417 0.930 . S
H8402 C8418 0.931 . S
C8403 H8391 0.929 . S
C8403 C8397 1.390 . S
C8403 C8400 1.413 . S
C8404 C8399 1.490 1_565 S
C8404 C8406 1.395 1_565 S
C8404 C8407 1.403 . S
H8405 C8411 0.930 . S
C8406 H8392 0.930 . S
C8406 C8404 1.395 1_545 S
C8406 C8409 1.403 1_545 S
C8407 C8404 1.403 . S
C8407 C8408 1.524 . S
C8407 C8411 1.400 . S
C8408 H8393 0.960 . S
C8408 H8394 0.960 . S
C8408 H8395 0.960 . S
C8408 C8407 1.524 . S
C8409 C8406 1.403 1_565 S
C8409 C8410 1.392 . S
C8409 C8413 1.495 1_565 S
C8410 C8409 1.392 . S
C8410 C8411 1.385 . S
C8410 C8412 1.478 . S
C8411 H8405 0.930 . S
C8411 C8407 1.400 . S
C8411 C8410 1.385 . S
C8412 C8410 1.478 . S
C8412 C8414 1.381 . S
C8412 C8418 1.383 . S
C8413 C8409 1.495 1_545 S
C8413 H8419 0.959 . S
C8413 H8420 0.956 1_545 S
C8413 H8421 0.960 . S
C8414 C8412 1.381 . S
C8414 C8415 1.394 . S
C8414 H8422 0.930 . S
C8415 C8414 1.394 . S
C8415 C8416 1.383 . S
C8415 H8423 0.929 . S
C8416 C8415 1.383 . S
C8416 C8417 1.377 . S
C8417 H8401 0.930 . S
C8417 C8416 1.377 . S
C8417 C8418 1.379 . S
C8418 H8402 0.931 . S
C8418 C8412 1.383 . S
C8418 C8417 1.379 . S
H8419 C8413 0.959 . S
H8420 C8413 0.956 1_565 S
H8421 C8413 0.960 . S
H8422 C8414 0.930 . S
H8423 C8415 0.929 . S
H8424 C8432 0.929 . S
H8425 C8434 0.930 . S
H8426 C8436 0.930 . S
H8427 C8439 0.929 . S
H8428 C8442 0.930 . S
H8429 C8444 0.960 . S
H8430 C8444 0.960 . S
H8431 C8444 0.960 . S
C8432 H8424 0.929 . S
C8432 C8433 1.377 . S
C8432 C8434 1.384 . S
C8433 C8432 1.377 . S
C8433 C8439 1.390 . S
C8434 H8425 0.930 . S
C8434 C8432 1.384 . S
C8434 C8435 1.372 . S
C8435 C8434 1.372 . S
C8435 C8436 1.400 . S
C8435 C8440 1.490 . S
C8436 H8426 0.930 . S
C8436 C8435 1.400 . S
C8436 C8439 1.386 . S
H8437 C8453 0.930 . S
H8438 C8454 0.931 . S
C8439 H8427 0.929 . S
C8439 C8433 1.390 . S
C8439 C8436 1.386 . S
C8440 C8435 1.490 . S
C8440 C8442 1.395 . S
C8440 C8443 1.403 . S
H8441 C8447 0.930 . S
C8442 H8428 0.930 . S
C8442 C8440 1.395 . S
C8442 C8445 1.403 . S
C8443 C8440 1.403 . S
C8443 C8444 1.524 . S
C8443 C8447 1.400 . S
C8444 H8429 0.960 . S
C8444 H8430 0.960 . S
C8444 H8431 0.960 . S
C8444 C8443 1.524 . S
C8445 C8442 1.403 . S
C8445 C8446 1.392 . S
C8445 C8449 1.495 . S
C8446 C8445 1.392 . S
C8446 C8447 1.385 . S
C8446 C8448 1.478 . S
C8447 H8441 0.930 . S
C8447 C8443 1.400 . S
C8447 C8446 1.385 . S
C8448 C8446 1.478 . S
C8448 C8450 1.381 . S
C8448 C8454 1.383 . S
C8449 C8445 1.495 . S
C8449 H8455 0.959 . S
C8449 H8456 0.961 . S
C8449 H8457 0.960 . S
C8450 C8448 1.381 . S
C8450 C8451 1.394 . S
C8450 H8458 0.930 . S
C8451 C8450 1.394 . S
C8451 C8452 1.383 . S
C8451 H8459 0.929 . S
C8452 C8451 1.383 . S
C8452 C8453 1.377 . S
C8453 H8437 0.930 . S
C8453 C8452 1.377 . S
C8453 C8454 1.379 . S
C8454 H8438 0.931 . S
C8454 C8448 1.383 . S
C8454 C8453 1.379 . S
H8455 C8449 0.959 . S
H8456 C8449 0.961 . S
H8457 C8449 0.960 . S
H8458 C8450 0.930 . S
H8459 C8451 0.929 . S
H8460 C8468 0.929 . S
H8461 C8470 0.930 . S
H8462 C8472 0.930 . S
H8463 C8475 0.929 . S
H8464 C8478 0.930 . S
H8465 C8480 0.960 . S
H8466 C8480 0.960 . S
H8467 C8480 0.960 . S
C8468 H8460 0.929 . S
C8468 C8469 1.377 . S
C8468 C8470 1.384 . S
C8469 C8468 1.377 . S
C8469 C8475 1.390 . S
C8470 H8461 0.930 . S
C8470 C8468 1.384 . S
C8470 C8471 1.372 . S
C8471 C8470 1.372 . S
C8471 C8472 1.400 . S
C8471 C8476 1.490 . S
C8472 H8462 0.930 . S
C8472 C8471 1.400 . S
C8472 C8475 1.386 . S
H8473 C8489 0.930 . S
H8474 C8490 0.931 . S
C8475 H8463 0.929 . S
C8475 C8469 1.390 . S
C8475 C8472 1.386 . S
C8476 C8471 1.490 . S
C8476 C8478 1.395 . S
C8476 C8479 1.403 . S
H8477 C8483 0.930 . S
C8478 H8464 0.930 . S
C8478 C8476 1.395 . S
C8478 C8481 1.403 . S
C8479 C8476 1.403 . S
C8479 C8480 1.524 . S
C8479 C8483 1.400 . S
C8480 H8465 0.960 . S
C8480 H8466 0.960 . S
C8480 H8467 0.960 . S
C8480 C8479 1.524 . S
C8481 C8478 1.403 . S
C8481 C8482 1.392 . S
C8481 C8485 1.495 . S
C8482 C8481 1.392 . S
C8482 C8483 1.385 . S
C8482 C8484 1.478 . S
C8483 H8477 0.930 . S
C8483 C8479 1.400 . S
C8483 C8482 1.385 . S
C8484 C8482 1.478 . S
C8484 C8486 1.381 . S
C8484 C8490 1.383 . S
C8485 C8481 1.495 . S
C8485 H8491 0.959 . S
C8485 H8492 0.961 . S
C8485 H8493 0.960 . S
C8486 C8484 1.381 . S
C8486 C8487 1.394 . S
C8486 H8494 0.930 . S
C8487 C8486 1.394 . S
C8487 C8488 1.383 . S
C8487 H8495 0.929 . S
C8488 C8487 1.383 . S
C8488 C8489 1.377 . S
C8489 H8473 0.930 . S
C8489 C8488 1.377 . S
C8489 C8490 1.379 . S
C8490 H8474 0.931 . S
C8490 C8484 1.383 . S
C8490 C8489 1.379 . S
H8491 C8485 0.959 . S
H8492 C8485 0.961 . S
H8493 C8485 0.960 . S
H8494 C8486 0.930 . S
H8495 C8487 0.929 . S
H8496 C8504 0.929 . S
H8497 C8506 0.930 . S
H8498 C8508 0.930 . S
H8499 C8511 0.929 . S
H8500 C8514 0.930 . S
H8501 C8516 0.960 . S
H8502 C8516 0.960 1_455 S
H8503 C8516 0.960 . S
C8504 H8496 0.929 . S
C8504 C8505 1.377 . S
C8504 C8506 1.384 1_455 S
C8505 C8504 1.377 . S
C8505 C8511 1.390 1_455 S
C8506 H8497 0.930 . S
C8506 C8504 1.384 1_655 S
C8506 C8507 1.372 . S
C8507 C8506 1.372 . S
C8507 C8508 1.400 . S
C8507 C8512 1.490 . S
C8508 H8498 0.930 . S
C8508 C8507 1.400 . S
C8508 C8511 1.386 . S
H8509 C8525 0.930 . S
H8510 C8526 0.931 . S
C8511 H8499 0.929 . S
C8511 C8505 1.390 1_655 S
C8511 C8508 1.386 . S
C8512 C8507 1.490 . S
C8512 C8514 1.395 . S
C8512 C8515 1.403 . S
H8513 C8519 0.930 . S
C8514 H8500 0.930 . S
C8514 C8512 1.395 . S
C8514 C8517 1.403 . S
C8515 C8512 1.403 . S
C8515 C8516 1.524 . S
C8515 C8519 1.400 . S
C8516 H8501 0.960 . S
C8516 H8502 0.960 1_655 S
C8516 H8503 0.960 . S
C8516 C8515 1.524 . S
C8517 C8514 1.403 . S
C8517 C8518 1.392 . S
C8517 C8521 1.495 . S
C8518 C8517 1.392 . S
C8518 C8519 1.385 . S
C8518 C8520 1.478 . S
C8519 H8513 0.930 . S
C8519 C8515 1.400 . S
C8519 C8518 1.385 . S
C8520 C8518 1.478 . S
C8520 C8522 1.381 . S
C8520 C8526 1.383 . S
C8521 C8517 1.495 . S
C8521 H8527 0.959 . S
C8521 H8528 0.961 . S
C8521 H8529 0.960 . S
C8522 C8520 1.381 . S
C8522 C8523 1.394 . S
C8522 H8530 0.930 . S
C8523 C8522 1.394 . S
C8523 C8524 1.383 . S
C8523 H8531 0.929 . S
C8524 C8523 1.383 . S
C8524 C8525 1.377 . S
C8525 H8509 0.930 . S
C8525 C8524 1.377 . S
C8525 C8526 1.379 . S
C8526 H8510 0.931 . S
C8526 C8520 1.383 . S
C8526 C8525 1.379 . S
H8527 C8521 0.959 . S
H8528 C8521 0.961 . S
H8529 C8521 0.960 . S
H8530 C8522 0.930 . S
H8531 C8523 0.929 . S
H8532 C8540 0.929 . S
H8533 C8542 0.930 . S
H8534 C8544 0.930 . S
H8535 C8547 0.929 . S
H8536 C8550 0.930 . S
H8537 C8552 0.960 . S
H8538 C8552 0.960 . S
H8539 C8552 0.960 . S
C8540 H8532 0.929 . S
C8540 C8541 1.377 . S
C8540 C8542 1.384 . S
C8541 C8540 1.377 . S
C8541 C8547 1.390 . S
C8542 H8533 0.930 . S
C8542 C8540 1.384 . S
C8542 C8543 1.372 . S
C8543 C8542 1.372 . S
C8543 C8544 1.400 . S
C8543 C8548 1.490 . S
C8544 H8534 0.930 . S
C8544 C8543 1.400 . S
C8544 C8547 1.386 . S
H8545 C8561 0.930 . S
H8546 C8562 0.931 . S
C8547 H8535 0.929 . S
C8547 C8541 1.390 . S
C8547 C8544 1.386 . S
C8548 C8543 1.490 . S
C8548 C8550 1.395 . S
C8548 C8551 1.403 . S
H8549 C8555 0.930 . S
C8550 H8536 0.930 . S
C8550 C8548 1.395 . S
C8550 C8553 1.403 . S
C8551 C8548 1.403 . S
C8551 C8552 1.524 . S
C8551 C8555 1.400 . S
C8552 H8537 0.960 . S
C8552 H8538 0.960 . S
C8552 H8539 0.960 . S
C8552 C8551 1.524 . S
C8553 C8550 1.403 . S
C8553 C8554 1.392 . S
C8553 C8557 1.495 . S
C8554 C8553 1.392 . S
C8554 C8555 1.385 . S
C8554 C8556 1.478 . S
C8555 H8549 0.930 . S
C8555 C8551 1.400 . S
C8555 C8554 1.385 . S
C8556 C8554 1.478 . S
C8556 C8558 1.381 . S
C8556 C8562 1.383 . S
C8557 C8553 1.495 . S
C8557 H8563 0.959 . S
C8557 H8564 0.961 . S
C8557 H8565 0.960 . S
C8558 C8556 1.381 . S
C8558 C8559 1.394 . S
C8558 H8566 0.930 . S
C8559 C8558 1.394 . S
C8559 C8560 1.383 . S
C8559 H8567 0.929 . S
C8560 C8559 1.383 . S
C8560 C8561 1.377 . S
C8561 H8545 0.930 . S
C8561 C8560 1.377 . S
C8561 C8562 1.379 . S
C8562 H8546 0.931 . S
C8562 C8556 1.383 . S
C8562 C8561 1.379 . S
H8563 C8557 0.959 . S
H8564 C8557 0.961 . S
H8565 C8557 0.960 . S
H8566 C8558 0.930 . S
H8567 C8559 0.929 . S
H8568 C8576 0.929 . S
H8569 C8578 0.930 . S
H8570 C8580 0.930 . S
H8571 C8583 0.929 . S
H8572 C8586 0.930 . S
H8573 C8588 0.960 . S
H8574 C8588 0.960 . S
H8575 C8588 0.960 . S
C8576 H8568 0.929 . S
C8576 C8577 1.377 . S
C8576 C8578 1.384 . S
C8577 C8576 1.377 . S
C8577 C8583 1.390 . S
C8578 H8569 0.930 . S
C8578 C8576 1.384 . S
C8578 C8579 1.372 . S
C8579 C8578 1.372 . S
C8579 C8580 1.400 . S
C8579 C8584 1.490 . S
C8580 H8570 0.930 . S
C8580 C8579 1.400 . S
C8580 C8583 1.386 . S
H8581 C8597 0.930 . S
H8582 C8598 0.931 . S
C8583 H8571 0.929 . S
C8583 C8577 1.390 . S
C8583 C8580 1.386 . S
C8584 C8579 1.490 . S
C8584 C8586 1.395 . S
C8584 C8587 1.403 . S
H8585 C8591 0.930 . S
C8586 H8572 0.930 . S
C8586 C8584 1.395 . S
C8586 C8589 1.403 . S
C8587 C8584 1.403 . S
C8587 C8588 1.524 . S
C8587 C8591 1.400 . S
C8588 H8573 0.960 . S
C8588 H8574 0.960 . S
C8588 H8575 0.960 . S
C8588 C8587 1.524 . S
C8589 C8586 1.403 . S
C8589 C8590 1.392 . S
C8589 C8593 1.495 . S
C8590 C8589 1.392 . S
C8590 C8591 1.385 . S
C8590 C8592 1.478 . S
C8591 H8585 0.930 . S
C8591 C8587 1.400 . S
C8591 C8590 1.385 . S
C8592 C8590 1.478 . S
C8592 C8594 1.381 . S
C8592 C8598 1.383 . S
C8593 C8589 1.495 . S
C8593 H8599 0.959 . S
C8593 H8600 0.961 . S
C8593 H8601 0.960 . S
C8594 C8592 1.381 . S
C8594 C8595 1.394 . S
C8594 H8602 0.930 . S
C8595 C8594 1.394 . S
C8595 C8596 1.383 . S
C8595 H8603 0.929 . S
C8596 C8595 1.383 . S
C8596 C8597 1.377 . S
C8597 H8581 0.930 . S
C8597 C8596 1.377 . S
C8597 C8598 1.379 . S
C8598 H8582 0.931 . S
C8598 C8592 1.383 . S
C8598 C8597 1.379 . S
H8599 C8593 0.959 . S
H8600 C8593 0.961 . S
H8601 C8593 0.960 . S
H8602 C8594 0.930 . S
H8603 C8595 0.929 . S
H8604 C8612 0.929 . S
H8605 C8614 0.930 . S
H8606 C8616 0.930 . S
H8607 C8619 0.929 . S
H8608 C8622 0.930 . S
H8609 C8624 0.960 . S
H8610 C8624 0.960 . S
H8611 C8624 0.960 . S
C8612 H8604 0.929 . S
C8612 C8613 1.377 . S
C8612 C8614 1.384 . S
C8613 C8612 1.377 . S
C8613 C8619 1.390 . S
C8614 H8605 0.930 . S
C8614 C8612 1.384 . S
C8614 C8615 1.372 . S
C8615 C8614 1.372 . S
C8615 C8616 1.400 . S
C8615 C8620 1.490 . S
C8616 H8606 0.930 . S
C8616 C8615 1.400 . S
C8616 C8619 1.386 . S
H8617 C8633 0.930 . S
H8618 C8634 0.931 . S
C8619 H8607 0.929 . S
C8619 C8613 1.390 . S
C8619 C8616 1.386 . S
C8620 C8615 1.490 . S
C8620 C8622 1.395 . S
C8620 C8623 1.403 . S
H8621 C8627 0.930 . S
C8622 H8608 0.930 . S
C8622 C8620 1.395 . S
C8622 C8625 1.403 . S
C8623 C8620 1.403 . S
C8623 C8624 1.524 . S
C8623 C8627 1.400 . S
C8624 H8609 0.960 . S
C8624 H8610 0.960 . S
C8624 H8611 0.960 . S
C8624 C8623 1.524 . S
C8625 C8622 1.403 . S
C8625 C8626 1.392 . S
C8625 C8629 1.495 . S
C8626 C8625 1.392 . S
C8626 C8627 1.385 . S
C8626 C8628 1.478 . S
C8627 H8621 0.930 . S
C8627 C8623 1.400 . S
C8627 C8626 1.385 . S
C8628 C8626 1.478 . S
C8628 C8630 1.381 . S
C8628 C8634 1.383 . S
C8629 C8625 1.495 . S
C8629 H8635 0.959 . S
C8629 H8636 0.961 . S
C8629 H8637 0.960 . S
C8630 C8628 1.381 . S
C8630 C8631 1.394 . S
C8630 H8638 0.930 . S
C8631 C8630 1.394 . S
C8631 C8632 1.383 . S
C8631 H8639 0.929 . S
C8632 C8631 1.383 . S
C8632 C8633 1.377 . S
C8633 H8617 0.930 . S
C8633 C8632 1.377 . S
C8633 C8634 1.379 . S
C8634 H8618 0.931 . S
C8634 C8628 1.383 . S
C8634 C8633 1.379 . S
H8635 C8629 0.959 . S
H8636 C8629 0.961 . S
H8637 C8629 0.960 . S
H8638 C8630 0.930 . S
H8639 C8631 0.929 . S
H8640 C8648 0.929 1_545 S
H8641 C8650 0.930 . S
H8642 C8652 0.930 . S
H8643 C8655 0.929 . S
H8644 C8658 0.930 . S
H8645 C8660 0.960 . S
H8646 C8660 0.960 . S
H8647 C8660 0.960 . S
C8648 H8640 0.929 1_565 S
C8648 C8649 1.377 . S
C8648 C8650 1.384 . S
C8649 C8648 1.377 . S
C8649 C8655 1.390 . S
C8650 H8641 0.930 . S
C8650 C8648 1.384 . S
C8650 C8651 1.372 . S
C8651 C8650 1.372 . S
C8651 C8652 1.400 . S
C8651 C8656 1.490 . S
C8652 H8642 0.930 . S
C8652 C8651 1.400 . S
C8652 C8655 1.386 . S
H8653 C8669 0.930 . S
H8654 C8670 0.931 . S
C8655 H8643 0.929 . S
C8655 C8649 1.390 . S
C8655 C8652 1.386 . S
C8656 C8651 1.490 . S
C8656 C8658 1.395 . S
C8656 C8659 1.403 . S
H8657 C8663 0.930 . S
C8658 H8644 0.930 . S
C8658 C8656 1.395 . S
C8658 C8661 1.403 . S
C8659 C8656 1.403 . S
C8659 C8660 1.524 . S
C8659 C8663 1.400 . S
C8660 H8645 0.960 . S
C8660 H8646 0.960 . S
C8660 H8647 0.960 . S
C8660 C8659 1.524 . S
C8661 C8658 1.403 . S
C8661 C8662 1.392 . S
C8661 C8665 1.495 . S
C8662 C8661 1.392 . S
C8662 C8663 1.385 . S
C8662 C8664 1.478 . S
C8663 H8657 0.930 . S
C8663 C8659 1.400 . S
C8663 C8662 1.385 . S
C8664 C8662 1.478 . S
C8664 C8666 1.381 . S
C8664 C8670 1.383 . S
C8665 C8661 1.495 . S
C8665 H8671 0.959 . S
C8665 H8672 0.961 . S
C8665 H8673 0.960 . S
C8666 C8664 1.381 . S
C8666 C8667 1.394 . S
C8666 H8674 0.930 . S
C8667 C8666 1.394 . S
C8667 C8668 1.383 . S
C8667 H8675 0.929 . S
C8668 C8667 1.383 . S
C8668 C8669 1.377 . S
C8669 H8653 0.930 . S
C8669 C8668 1.377 . S
C8669 C8670 1.379 . S
C8670 H8654 0.931 . S
C8670 C8664 1.383 . S
C8670 C8669 1.379 . S
H8671 C8665 0.959 . S
H8672 C8665 0.961 . S
H8673 C8665 0.960 . S
H8674 C8666 0.930 . S
H8675 C8667 0.929 . S
H8676 C8684 0.929 . S
H8677 C8686 0.930 . S
H8678 C8688 0.930 . S
H8679 C8691 0.929 . S
H8680 C8694 0.930 . S
H8681 C8696 0.960 . S
H8682 C8696 0.960 . S
H8683 C8696 0.960 . S
C8684 H8676 0.929 . S
C8684 C8685 1.377 . S
C8684 C8686 1.384 . S
C8685 C8684 1.377 . S
C8685 C8691 1.390 . S
C8686 H8677 0.930 . S
C8686 C8684 1.384 . S
C8686 C8687 1.372 . S
C8687 C8686 1.372 . S
C8687 C8688 1.400 . S
C8687 C8692 1.490 . S
C8688 H8678 0.930 . S
C8688 C8687 1.400 . S
C8688 C8691 1.386 . S
H8689 C8705 0.930 . S
H8690 C8706 0.931 . S
C8691 H8679 0.929 . S
C8691 C8685 1.390 . S
C8691 C8688 1.386 . S
C8692 C8687 1.490 . S
C8692 C8694 1.395 . S
C8692 C8695 1.403 . S
H8693 C8699 0.930 . S
C8694 H8680 0.930 . S
C8694 C8692 1.395 . S
C8694 C8697 1.403 . S
C8695 C8692 1.403 . S
C8695 C8696 1.524 . S
C8695 C8699 1.400 . S
C8696 H8681 0.960 . S
C8696 H8682 0.960 . S
C8696 H8683 0.960 . S
C8696 C8695 1.524 . S
C8697 C8694 1.403 . S
C8697 C8698 1.392 . S
C8697 C8701 1.495 . S
C8698 C8697 1.392 . S
C8698 C8699 1.385 . S
C8698 C8700 1.478 . S
C8699 H8693 0.930 . S
C8699 C8695 1.400 . S
C8699 C8698 1.385 . S
C8700 C8698 1.478 . S
C8700 C8702 1.381 . S
C8700 C8706 1.383 . S
C8701 C8697 1.495 . S
C8701 H8707 0.959 . S
C8701 H8708 0.961 . S
C8701 H8709 0.960 . S
C8702 C8700 1.381 . S
C8702 C8703 1.394 . S
C8702 H8710 0.930 . S
C8703 C8702 1.394 . S
C8703 C8704 1.383 . S
C8703 H8711 0.929 . S
C8704 C8703 1.383 . S
C8704 C8705 1.377 . S
C8705 H8689 0.930 . S
C8705 C8704 1.377 . S
C8705 C8706 1.379 . S
C8706 H8690 0.931 . S
C8706 C8700 1.383 . S
C8706 C8705 1.379 . S
H8707 C8701 0.959 . S
H8708 C8701 0.961 . S
H8709 C8701 0.960 . S
H8710 C8702 0.930 . S
H8711 C8703 0.929 . S
H8712 C8720 0.929 . S
H8713 C8722 0.930 . S
H8714 C8724 0.930 . S
H8715 C8727 0.929 . S
H8716 C8730 0.930 . S
H8717 C8732 0.960 . S
H8718 C8732 0.960 . S
H8719 C8732 0.960 . S
C8720 H8712 0.929 . S
C8720 C8721 1.377 . S
C8720 C8722 1.384 . S
C8721 C8720 1.377 . S
C8721 C8727 1.390 . S
C8722 H8713 0.930 . S
C8722 C8720 1.384 . S
C8722 C8723 1.372 . S
C8723 C8722 1.372 . S
C8723 C8724 1.400 . S
C8723 C8728 1.490 . S
C8724 H8714 0.930 . S
C8724 C8723 1.400 . S
C8724 C8727 1.386 . S
H8725 C8741 0.930 . S
H8726 C8742 0.931 . S
C8727 H8715 0.929 . S
C8727 C8721 1.390 . S
C8727 C8724 1.386 . S
C8728 C8723 1.490 . S
C8728 C8730 1.395 . S
C8728 C8731 1.403 . S
H8729 C8735 0.930 . S
C8730 H8716 0.930 . S
C8730 C8728 1.395 . S
C8730 C8733 1.403 . S
C8731 C8728 1.403 . S
C8731 C8732 1.524 . S
C8731 C8735 1.400 . S
C8732 H8717 0.960 . S
C8732 H8718 0.960 . S
C8732 H8719 0.960 . S
C8732 C8731 1.524 . S
C8733 C8730 1.403 . S
C8733 C8734 1.392 . S
C8733 C8737 1.495 . S
C8734 C8733 1.392 . S
C8734 C8735 1.385 . S
C8734 C8736 1.478 . S
C8735 H8729 0.930 . S
C8735 C8731 1.400 . S
C8735 C8734 1.385 . S
C8736 C8734 1.478 . S
C8736 C8738 1.381 . S
C8736 C8742 1.383 . S
C8737 C8733 1.495 . S
C8737 H8743 0.959 . S
C8737 H8744 0.961 . S
C8737 H8745 0.960 . S
C8738 C8736 1.381 . S
C8738 C8739 1.394 . S
C8738 H8746 0.930 . S
C8739 C8738 1.394 . S
C8739 C8740 1.383 . S
C8739 H8747 0.929 . S
C8740 C8739 1.383 . S
C8740 C8741 1.377 . S
C8741 H8725 0.930 . S
C8741 C8740 1.377 . S
C8741 C8742 1.379 . S
C8742 H8726 0.931 . S
C8742 C8736 1.383 . S
C8742 C8741 1.379 . S
H8743 C8737 0.959 . S
H8744 C8737 0.961 . S
H8745 C8737 0.960 . S
H8746 C8738 0.930 . S
H8747 C8739 0.929 . S
H8748 C8756 0.929 . S
H8749 C8758 0.930 . S
H8750 C8760 0.930 . S
H8751 C8763 0.930 . S
H8752 C8766 0.930 1_455 S
H8753 C8768 0.960 . S
H8754 C8768 0.960 . S
H8755 C8768 0.960 . S
C8756 H8748 0.929 . S
C8756 C8757 1.377 . S
C8756 C8758 1.384 . S
C8757 C8756 1.377 . S
C8757 C8763 1.431 . S
C8758 H8749 0.930 . S
C8758 C8756 1.384 . S
C8758 C8759 1.372 1_455 S
C8759 C8758 1.372 1_655 S
C8759 C8760 1.400 . S
C8759 C8764 1.490 . S
C8760 H8750 0.930 . S
C8760 C8759 1.400 . S
C8760 C8763 1.344 1_655 S
H8761 C8777 0.930 . S
H8762 C8778 0.931 . S
C8763 H8751 0.930 . S
C8763 C8757 1.431 . S
C8763 C8760 1.344 1_455 S
C8764 C8759 1.490 . S
C8764 C8766 1.395 . S
C8764 C8767 1.403 . S
H8765 C8771 0.930 . S
C8766 H8752 0.930 1_655 S
C8766 C8764 1.395 . S
C8766 C8769 1.403 . S
C8767 C8764 1.403 . S
C8767 C8768 1.524 . S
C8767 C8771 1.400 . S
C8768 H8753 0.960 . S
C8768 H8754 0.960 . S
C8768 H8755 0.960 . S
C8768 C8767 1.524 . S
C8769 C8766 1.403 . S
C8769 C8770 1.392 . S
C8769 C8773 1.495 . S
C8770 C8769 1.392 . S
C8770 C8771 1.385 . S
C8770 C8772 1.478 . S
C8771 H8765 0.930 . S
C8771 C8767 1.400 . S
C8771 C8770 1.385 . S
C8772 C8770 1.478 . S
C8772 C8774 1.381 . S
C8772 C8778 1.383 . S
C8773 C8769 1.495 . S
C8773 H8779 0.959 1_655 S
C8773 H8780 0.961 . S
C8773 H8781 0.960 . S
C8774 C8772 1.381 . S
C8774 C8775 1.394 . S
C8774 H8782 0.930 . S
C8775 C8774 1.394 . S
C8775 C8776 1.383 . S
C8775 H8783 0.929 . S
C8776 C8775 1.383 . S
C8776 C8777 1.377 . S
C8777 H8761 0.930 . S
C8777 C8776 1.377 . S
C8777 C8778 1.379 . S
C8778 H8762 0.931 . S
C8778 C8772 1.383 . S
C8778 C8777 1.379 . S
H8779 C8773 0.959 1_455 S
H8780 C8773 0.961 . S
H8781 C8773 0.960 . S
H8782 C8774 0.930 . S
H8783 C8775 0.929 . S
H8784 C8792 0.929 . S
H8785 C8794 0.930 . S
H8786 C8796 0.930 . S
H8787 C8799 0.929 . S
H8788 C8802 0.930 . S
H8789 C8804 0.960 . S
H8790 C8804 0.960 . S
H8791 C8804 0.960 . S
C8792 H8784 0.929 . S
C8792 C8793 1.377 . S
C8792 C8794 1.384 . S
C8793 C8792 1.377 . S
C8793 C8799 1.390 . S
C8794 H8785 0.930 . S
C8794 C8792 1.384 . S
C8794 C8795 1.372 . S
C8795 C8794 1.372 . S
C8795 C8796 1.400 . S
C8795 C8800 1.490 . S
C8796 H8786 0.930 . S
C8796 C8795 1.400 . S
C8796 C8799 1.386 . S
H8797 C8813 0.930 . S
H8798 C8814 0.931 . S
C8799 H8787 0.929 . S
C8799 C8793 1.390 . S
C8799 C8796 1.386 . S
C8800 C8795 1.490 . S
C8800 C8802 1.395 . S
C8800 C8803 1.403 . S
H8801 C8807 0.930 . S
C8802 H8788 0.930 . S
C8802 C8800 1.395 . S
C8802 C8805 1.403 . S
C8803 C8800 1.403 . S
C8803 C8804 1.524 . S
C8803 C8807 1.400 . S
C8804 H8789 0.960 . S
C8804 H8790 0.960 . S
C8804 H8791 0.960 . S
C8804 C8803 1.524 . S
C8805 C8802 1.403 . S
C8805 C8806 1.392 . S
C8805 C8809 1.495 . S
C8806 C8805 1.392 . S
C8806 C8807 1.385 . S
C8806 C8808 1.478 . S
C8807 H8801 0.930 . S
C8807 C8803 1.400 . S
C8807 C8806 1.385 . S
C8808 C8806 1.478 . S
C8808 C8810 1.381 . S
C8808 C8814 1.383 . S
C8809 C8805 1.495 . S
C8809 H8815 0.959 . S
C8809 H8816 0.961 . S
C8809 H8817 0.960 . S
C8810 C8808 1.381 . S
C8810 C8811 1.394 . S
C8810 H8818 0.930 . S
C8811 C8810 1.394 . S
C8811 C8812 1.383 . S
C8811 H8819 0.929 . S
C8812 C8811 1.383 . S
C8812 C8813 1.377 . S
C8813 H8797 0.930 . S
C8813 C8812 1.377 . S
C8813 C8814 1.379 . S
C8814 H8798 0.931 . S
C8814 C8808 1.383 . S
C8814 C8813 1.379 . S
H8815 C8809 0.959 . S
H8816 C8809 0.961 . S
H8817 C8809 0.960 . S
H8818 C8810 0.930 . S
H8819 C8811 0.929 . S
H8820 C8828 0.874 1_455 S
H8821 C8830 0.930 . S
H8822 C8832 0.930 . S
H8823 C8835 0.929 . S
H8824 C8838 0.930 . S
H8825 C8840 0.960 . S
H8826 C8840 0.960 . S
H8827 C8840 0.960 . S
C8828 H8820 0.874 1_655 S
C8828 C8829 1.393 . S
C8828 C8830 1.427 . S
C8829 C8828 1.393 . S
C8829 C8835 1.390 . S
C8830 H8821 0.930 . S
C8830 C8828 1.427 . S
C8830 C8831 1.372 . S
C8831 C8830 1.372 . S
C8831 C8832 1.400 . S
C8831 C8836 1.490 . S
C8832 H8822 0.930 . S
C8832 C8831 1.400 . S
C8832 C8835 1.386 . S
H8833 C8849 0.930 . S
H8834 C8850 0.931 . S
C8835 H8823 0.929 . S
C8835 C8829 1.390 . S
C8835 C8832 1.386 . S
C8836 C8831 1.490 . S
C8836 C8838 1.395 . S
C8836 C8839 1.403 . S
H8837 C8843 0.930 . S
C8838 H8824 0.930 . S
C8838 C8836 1.395 . S
C8838 C8841 1.403 . S
C8839 C8836 1.403 . S
C8839 C8840 1.524 . S
C8839 C8843 1.400 . S
C8840 H8825 0.960 . S
C8840 H8826 0.960 . S
C8840 H8827 0.960 . S
C8840 C8839 1.524 . S
C8841 C8838 1.403 . S
C8841 C8842 1.392 . S
C8841 C8845 1.495 . S
C8842 C8841 1.392 . S
C8842 C8843 1.385 . S
C8842 C8844 1.478 . S
C8843 H8837 0.930 . S
C8843 C8839 1.400 . S
C8843 C8842 1.385 . S
C8844 C8842 1.478 . S
C8844 C8846 1.381 . S
C8844 C8850 1.383 . S
C8845 C8841 1.495 . S
C8845 H8851 0.959 . S
C8845 H8852 0.961 . S
C8845 H8853 0.960 . S
C8846 C8844 1.381 . S
C8846 C8847 1.394 . S
C8846 H8854 0.930 . S
C8847 C8846 1.394 . S
C8847 C8848 1.383 . S
C8847 H8855 0.929 . S
C8848 C8847 1.383 . S
C8848 C8849 1.377 . S
C8849 H8833 0.930 . S
C8849 C8848 1.377 . S
C8849 C8850 1.379 . S
C8850 H8834 0.931 . S
C8850 C8844 1.383 . S
C8850 C8849 1.379 . S
H8851 C8845 0.959 . S
H8852 C8845 0.961 . S
H8853 C8845 0.960 . S
H8854 C8846 0.930 . S
H8855 C8847 0.929 . S
H8856 C8864 0.929 . S
H8857 C8866 0.930 . S
H8858 C8868 0.894 1_565 S
H8859 C8871 0.929 . S
H8860 C8874 0.930 . S
H8861 C8876 0.960 . S
H8862 C8876 0.960 . S
H8863 C8876 0.960 . S
C8864 H8856 0.929 . S
C8864 C8865 1.377 . S
C8864 C8866 1.384 . S
C8865 C8864 1.377 . S
C8865 C8871 1.390 . S
C8866 H8857 0.930 . S
C8866 C8864 1.384 . S
C8866 C8867 1.372 1_545 S
C8867 C8866 1.372 1_565 S
C8867 C8868 1.381 1_565 S
C8867 C8872 1.490 . S
C8868 H8858 0.894 1_545 S
C8868 C8867 1.381 1_545 S
C8868 C8871 1.445 . S
H8869 C8885 0.930 . S
H8870 C8886 0.931 . S
C8871 H8859 0.929 . S
C8871 C8865 1.390 . S
C8871 C8868 1.445 . S
C8872 C8867 1.490 . S
C8872 C8874 1.395 . S
C8872 C8875 1.403 . S
H8873 C8879 0.930 . S
C8874 H8860 0.930 . S
C8874 C8872 1.395 . S
C8874 C8877 1.403 . S
C8875 C8872 1.403 . S
C8875 C8876 1.524 . S
C8875 C8879 1.400 . S
C8876 H8861 0.960 . S
C8876 H8862 0.960 . S
C8876 H8863 0.960 . S
C8876 C8875 1.524 . S
C8877 C8874 1.403 . S
C8877 C8878 1.392 . S
C8877 C8881 1.495 . S
C8878 C8877 1.392 . S
C8878 C8879 1.385 . S
C8878 C8880 1.478 . S
C8879 H8873 0.930 . S
C8879 C8875 1.400 . S
C8879 C8878 1.385 . S
C8880 C8878 1.478 . S
C8880 C8882 1.381 . S
C8880 C8886 1.383 . S
C8881 C8877 1.495 . S
C8881 H8887 0.959 . S
C8881 H8888 0.961 . S
C8881 H8889 0.960 . S
C8882 C8880 1.381 . S
C8882 C8883 1.394 . S
C8882 H8890 0.930 . S
C8883 C8882 1.394 . S
C8883 C8884 1.383 . S
C8883 H8891 0.929 . S
C8884 C8883 1.383 . S
C8884 C8885 1.377 . S
C8885 H8869 0.930 . S
C8885 C8884 1.377 . S
C8885 C8886 1.379 . S
C8886 H8870 0.931 . S
C8886 C8880 1.383 . S
C8886 C8885 1.379 . S
H8887 C8881 0.959 . S
H8888 C8881 0.961 . S
H8889 C8881 0.960 . S
H8890 C8882 0.930 . S
H8891 C8883 0.929 . S
H8892 C8900 0.929 . S
H8893 C8902 0.930 . S
H8894 C8904 0.930 . S
H8895 C8907 0.929 . S
H8896 C8910 0.930 . S
H8897 C8912 0.960 . S
H8898 C8912 0.960 . S
H8899 C8912 0.960 . S
C8900 H8892 0.929 . S
C8900 C8901 1.377 . S
C8900 C8902 1.384 . S
C8901 C8900 1.377 . S
C8901 C8907 1.390 . S
C8902 H8893 0.930 . S
C8902 C8900 1.384 . S
C8902 C8903 1.372 . S
C8903 C8902 1.372 . S
C8903 C8904 1.400 . S
C8903 C8908 1.490 . S
C8904 H8894 0.930 . S
C8904 C8903 1.400 . S
C8904 C8907 1.386 . S
H8905 C8921 0.930 . S
H8906 C8922 0.931 . S
C8907 H8895 0.929 . S
C8907 C8901 1.390 . S
C8907 C8904 1.386 . S
C8908 C8903 1.490 . S
C8908 C8910 1.395 . S
C8908 C8911 1.403 . S
H8909 C8915 0.930 . S
C8910 H8896 0.930 . S
C8910 C8908 1.395 . S
C8910 C8913 1.403 . S
C8911 C8908 1.403 . S
C8911 C8912 1.524 . S
C8911 C8915 1.400 . S
C8912 H8897 0.960 . S
C8912 H8898 0.960 . S
C8912 H8899 0.960 . S
C8912 C8911 1.524 . S
C8913 C8910 1.403 . S
C8913 C8914 1.392 . S
C8913 C8917 1.495 . S
C8914 C8913 1.392 . S
C8914 C8915 1.385 . S
C8914 C8916 1.478 . S
C8915 H8909 0.930 . S
C8915 C8911 1.400 . S
C8915 C8914 1.385 . S
C8916 C8914 1.478 . S
C8916 C8918 1.381 . S
C8916 C8922 1.383 . S
C8917 C8913 1.495 . S
C8917 H8923 0.959 . S
C8917 H8924 0.961 . S
C8917 H8925 0.960 . S
C8918 C8916 1.381 . S
C8918 C8919 1.394 . S
C8918 H8926 0.930 . S
C8919 C8918 1.394 . S
C8919 C8920 1.383 . S
C8919 H8927 0.929 . S
C8920 C8919 1.383 . S
C8920 C8921 1.377 . S
C8921 H8905 0.930 . S
C8921 C8920 1.377 . S
C8921 C8922 1.379 . S
C8922 H8906 0.931 . S
C8922 C8916 1.383 . S
C8922 C8921 1.379 . S
H8923 C8917 0.959 . S
H8924 C8917 0.961 . S
H8925 C8917 0.960 . S
H8926 C8918 0.930 . S
H8927 C8919 0.929 . S
H8928 C8936 0.929 . S
H8929 C8938 0.930 . S
H8930 C8940 0.930 . S
H8931 C8943 0.929 . S
H8932 C8946 0.930 . S
H8933 C8948 0.960 . S
H8934 C8948 0.960 . S
H8935 C8948 0.960 . S
C8936 H8928 0.929 . S
C8936 C8937 1.377 . S
C8936 C8938 1.384 . S
C8937 C8936 1.377 . S
C8937 C8943 1.390 . S
C8938 H8929 0.930 . S
C8938 C8936 1.384 . S
C8938 C8939 1.372 1_554 S
C8939 C8938 1.372 1_556 S
C8939 C8940 1.400 . S
C8939 C8944 1.490 . S
C8940 H8930 0.930 . S
C8940 C8939 1.400 . S
C8940 C8943 1.386 1_556 S
H8941 C8957 0.930 . S
H8942 C8958 0.931 . S
C8943 H8931 0.929 . S
C8943 C8937 1.390 . S
C8943 C8940 1.386 1_554 S
C8944 C8939 1.490 . S
C8944 C8946 1.395 . S
C8944 C8947 1.403 . S
H8945 C8951 0.930 . S
C8946 H8932 0.930 . S
C8946 C8944 1.395 . S
C8946 C8949 1.403 . S
C8947 C8944 1.403 . S
C8947 C8948 1.524 . S
C8947 C8951 1.400 . S
C8948 H8933 0.960 . S
C8948 H8934 0.960 . S
C8948 H8935 0.960 . S
C8948 C8947 1.524 . S
C8949 C8946 1.403 . S
C8949 C8950 1.392 . S
C8949 C8953 1.495 . S
C8950 C8949 1.392 . S
C8950 C8951 1.385 . S
C8950 C8952 1.478 . S
C8951 H8945 0.930 . S
C8951 C8947 1.400 . S
C8951 C8950 1.385 . S
C8952 C8950 1.478 . S
C8952 C8954 1.381 . S
C8952 C8958 1.383 . S
C8953 C8949 1.495 . S
C8953 H8959 0.959 . S
C8953 H8960 0.961 . S
C8953 H8961 0.960 . S
C8954 C8952 1.381 . S
C8954 C8955 1.394 . S
C8954 H8962 0.930 . S
C8955 C8954 1.394 . S
C8955 C8956 1.383 . S
C8955 H8963 0.929 . S
C8956 C8955 1.383 . S
C8956 C8957 1.377 . S
C8957 H8941 0.930 . S
C8957 C8956 1.377 . S
C8957 C8958 1.379 . S
C8958 H8942 0.931 . S
C8958 C8952 1.383 . S
C8958 C8957 1.379 . S
H8959 C8953 0.959 . S
H8960 C8953 0.961 . S
H8961 C8953 0.960 . S
H8962 C8954 0.930 . S
H8963 C8955 0.929 . S
H8964 C8972 0.929 . S
H8965 C8974 0.930 . S
H8966 C8976 0.930 . S
H8967 C8979 0.929 . S
H8968 C8982 0.930 . S
H8969 C8984 0.960 . S
H8970 C8984 0.960 . S
H8971 C8984 0.960 . S
C8972 H8964 0.929 . S
C8972 C8973 1.377 . S
C8972 C8974 1.384 . S
C8973 C8972 1.377 . S
C8973 C8979 1.390 . S
C8974 H8965 0.930 . S
C8974 C8972 1.384 . S
C8974 C8975 1.372 . S
C8975 C8974 1.372 . S
C8975 C8976 1.400 . S
C8975 C8980 1.490 . S
C8976 H8966 0.930 . S
C8976 C8975 1.400 . S
C8976 C8979 1.386 . S
H8977 C8993 0.930 . S
H8978 C8994 0.931 . S
C8979 H8967 0.929 . S
C8979 C8973 1.390 . S
C8979 C8976 1.386 . S
C8980 C8975 1.490 . S
C8980 C8982 1.395 . S
C8980 C8983 1.403 . S
H8981 C8987 0.930 . S
C8982 H8968 0.930 . S
C8982 C8980 1.395 . S
C8982 C8985 1.403 . S
C8983 C8980 1.403 . S
C8983 C8984 1.524 . S
C8983 C8987 1.400 . S
C8984 H8969 0.960 . S
C8984 H8970 0.960 . S
C8984 H8971 0.960 . S
C8984 C8983 1.524 . S
C8985 C8982 1.403 . S
C8985 C8986 1.392 . S
C8985 C8989 1.495 . S
C8986 C8985 1.392 . S
C8986 C8987 1.385 . S
C8986 C8988 1.478 . S
C8987 H8981 0.930 . S
C8987 C8983 1.400 . S
C8987 C8986 1.385 . S
C8988 C8986 1.478 . S
C8988 C8990 1.381 . S
C8988 C8994 1.383 . S
C8989 C8985 1.495 . S
C8989 H8995 0.959 . S
C8989 H8996 0.961 . S
C8989 H8997 0.960 . S
C8990 C8988 1.381 . S
C8990 C8991 1.394 . S
C8990 H8998 0.930 . S
C8991 C8990 1.394 . S
C8991 C8992 1.383 . S
C8991 H8999 0.929 . S
C8992 C8991 1.383 . S
C8992 C8993 1.377 . S
C8993 H8977 0.930 . S
C8993 C8992 1.377 . S
C8993 C8994 1.379 . S
C8994 H8978 0.931 . S
C8994 C8988 1.383 . S
C8994 C8993 1.379 . S
H8995 C8989 0.959 . S
H8996 C8989 0.961 . S
H8997 C8989 0.960 . S
H8998 C8990 0.930 . S
H8999 C8991 0.929 . S
H9000 C9008 0.929 . S
H9001 C9010 0.930 . S
H9002 C9012 0.930 . S
H9003 C9015 0.929 . S
H9004 C9018 0.930 . S
H9005 C9020 0.960 . S
H9006 C9020 0.960 . S
H9007 C9020 0.960 . S
C9008 H9000 0.929 . S
C9008 C9009 1.377 . S
C9008 C9010 1.384 . S
C9009 C9008 1.377 . S
C9009 C9015 1.390 . S
C9010 H9001 0.930 . S
C9010 C9008 1.384 . S
C9010 C9011 1.372 . S
C9011 C9010 1.372 . S
C9011 C9012 1.400 . S
C9011 C9016 1.490 . S
C9012 H9002 0.930 . S
C9012 C9011 1.400 . S
C9012 C9015 1.386 . S
H9013 C9029 0.930 . S
H9014 C9030 0.931 . S
C9015 H9003 0.929 . S
C9015 C9009 1.390 . S
C9015 C9012 1.386 . S
C9016 C9011 1.490 . S
C9016 C9018 1.395 . S
C9016 C9019 1.403 . S
H9017 C9023 0.930 . S
C9018 H9004 0.930 . S
C9018 C9016 1.395 . S
C9018 C9021 1.403 . S
C9019 C9016 1.403 . S
C9019 C9020 1.524 . S
C9019 C9023 1.400 . S
C9020 H9005 0.960 . S
C9020 H9006 0.960 . S
C9020 H9007 0.960 . S
C9020 C9019 1.524 . S
C9021 C9018 1.403 . S
C9021 C9022 1.392 . S
C9021 C9025 1.495 . S
C9022 C9021 1.392 . S
C9022 C9023 1.385 . S
C9022 C9024 1.478 . S
C9023 H9017 0.930 . S
C9023 C9019 1.400 . S
C9023 C9022 1.385 . S
C9024 C9022 1.478 . S
C9024 C9026 1.381 . S
C9024 C9030 1.383 . S
C9025 C9021 1.495 . S
C9025 H9031 0.959 . S
C9025 H9032 0.961 . S
C9025 H9033 0.960 . S
C9026 C9024 1.381 . S
C9026 C9027 1.394 . S
C9026 H9034 0.930 . S
C9027 C9026 1.394 . S
C9027 C9028 1.383 . S
C9027 H9035 0.929 . S
C9028 C9027 1.383 . S
C9028 C9029 1.377 . S
C9029 H9013 0.930 . S
C9029 C9028 1.377 . S
C9029 C9030 1.379 . S
C9030 H9014 0.931 . S
C9030 C9024 1.383 . S
C9030 C9029 1.379 . S
H9031 C9025 0.959 . S
H9032 C9025 0.961 . S
H9033 C9025 0.960 . S
H9034 C9026 0.930 . S
H9035 C9027 0.929 . S
H9036 C9044 0.929 . S
H9037 C9046 0.930 . S
H9038 C9048 0.930 . S
H9039 C9051 0.929 . S
H9040 C9054 0.930 . S
H9041 C9056 0.960 . S
H9042 C9056 0.960 . S
H9043 C9056 0.960 . S
C9044 H9036 0.929 . S
C9044 C9045 1.377 . S
C9044 C9046 1.384 . S
C9045 C9044 1.377 . S
C9045 C9051 1.390 . S
C9046 H9037 0.930 . S
C9046 C9044 1.384 . S
C9046 C9047 1.372 . S
C9047 C9046 1.372 . S
C9047 C9048 1.400 . S
C9047 C9052 1.490 . S
C9048 H9038 0.930 . S
C9048 C9047 1.400 . S
C9048 C9051 1.386 . S
H9049 C9065 0.930 . S
H9050 C9066 0.931 . S
C9051 H9039 0.929 . S
C9051 C9045 1.390 . S
C9051 C9048 1.386 . S
C9052 C9047 1.490 . S
C9052 C9054 1.395 . S
C9052 C9055 1.403 . S
H9053 C9059 0.930 . S
C9054 H9040 0.930 . S
C9054 C9052 1.395 . S
C9054 C9057 1.403 . S
C9055 C9052 1.403 . S
C9055 C9056 1.524 . S
C9055 C9059 1.400 . S
C9056 H9041 0.960 . S
C9056 H9042 0.960 . S
C9056 H9043 0.960 . S
C9056 C9055 1.524 . S
C9057 C9054 1.403 . S
C9057 C9058 1.392 . S
C9057 C9061 1.495 . S
C9058 C9057 1.392 . S
C9058 C9059 1.385 . S
C9058 C9060 1.478 . S
C9059 H9053 0.930 . S
C9059 C9055 1.400 . S
C9059 C9058 1.385 . S
C9060 C9058 1.478 . S
C9060 C9062 1.381 . S
C9060 C9066 1.383 . S
C9061 C9057 1.495 . S
C9061 H9067 0.959 . S
C9061 H9068 0.961 . S
C9061 H9069 0.960 . S
C9062 C9060 1.381 . S
C9062 C9063 1.394 . S
C9062 H9070 0.930 . S
C9063 C9062 1.394 . S
C9063 C9064 1.383 . S
C9063 H9071 0.929 . S
C9064 C9063 1.383 . S
C9064 C9065 1.377 . S
C9065 H9049 0.930 . S
C9065 C9064 1.377 . S
C9065 C9066 1.379 . S
C9066 H9050 0.931 . S
C9066 C9060 1.383 . S
C9066 C9065 1.379 . S
H9067 C9061 0.959 . S
H9068 C9061 0.961 . S
H9069 C9061 0.960 . S
H9070 C9062 0.930 . S
H9071 C9063 0.929 . S
H9072 C9080 0.929 . S
H9073 C9082 0.930 . S
H9074 C9084 0.930 . S
H9075 C9087 0.929 . S
H9076 C9090 0.930 . S
H9077 C9092 0.960 . S
H9078 C9092 0.960 . S
H9079 C9092 0.960 . S
C9080 H9072 0.929 . S
C9080 C9081 1.377 . S
C9080 C9082 1.384 . S
C9081 C9080 1.377 . S
C9081 C9087 1.390 . S
C9082 H9073 0.930 . S
C9082 C9080 1.384 . S
C9082 C9083 1.372 . S
C9083 C9082 1.372 . S
C9083 C9084 1.400 . S
C9083 C9088 1.490 . S
C9084 H9074 0.930 . S
C9084 C9083 1.400 . S
C9084 C9087 1.386 . S
H9085 C9101 0.930 . S
H9086 C9102 0.931 . S
C9087 H9075 0.929 . S
C9087 C9081 1.390 . S
C9087 C9084 1.386 . S
C9088 C9083 1.490 . S
C9088 C9090 1.395 . S
C9088 C9091 1.403 . S
H9089 C9095 0.930 . S
C9090 H9076 0.930 . S
C9090 C9088 1.395 . S
C9090 C9093 1.403 . S
C9091 C9088 1.403 . S
C9091 C9092 1.524 . S
C9091 C9095 1.400 . S
C9092 H9077 0.960 . S
C9092 H9078 0.960 . S
C9092 H9079 0.960 . S
C9092 C9091 1.524 . S
C9093 C9090 1.403 . S
C9093 C9094 1.392 . S
C9093 C9097 1.495 . S
C9094 C9093 1.392 . S
C9094 C9095 1.385 . S
C9094 C9096 1.478 . S
C9095 H9089 0.930 . S
C9095 C9091 1.400 . S
C9095 C9094 1.385 . S
C9096 C9094 1.478 . S
C9096 C9098 1.381 . S
C9096 C9102 1.383 . S
C9097 C9093 1.495 . S
C9097 H9103 0.959 . S
C9097 H9104 0.961 . S
C9097 H9105 0.960 . S
C9098 C9096 1.381 . S
C9098 C9099 1.394 . S
C9098 H9106 0.930 . S
C9099 C9098 1.394 . S
C9099 C9100 1.383 . S
C9099 H9107 0.929 . S
C9100 C9099 1.383 . S
C9100 C9101 1.377 . S
C9101 H9085 0.930 . S
C9101 C9100 1.377 . S
C9101 C9102 1.379 . S
C9102 H9086 0.931 . S
C9102 C9096 1.383 . S
C9102 C9101 1.379 . S
H9103 C9097 0.959 . S
H9104 C9097 0.961 . S
H9105 C9097 0.960 . S
H9106 C9098 0.930 . S
H9107 C9099 0.929 . S
H9108 C9116 0.929 . S
H9109 C9118 1.003 . S
H9110 C9120 0.930 . S
H9111 C9123 0.929 . S
H9112 C9126 0.930 . S
H9113 C9128 0.960 . S
H9114 C9128 0.960 . S
H9115 C9128 0.960 . S
C9116 H9108 0.929 . S
C9116 C9117 1.377 . S
C9116 C9118 1.384 . S
C9117 C9116 1.377 . S
C9117 C9123 1.390 . S
C9118 H9109 1.003 . S
C9118 C9116 1.384 . S
C9118 C9119 1.372 . S
C9119 C9118 1.372 . S
C9119 C9120 1.400 . S
C9119 C9124 1.490 . S
C9120 H9110 0.930 . S
C9120 C9119 1.400 . S
C9120 C9123 1.386 . S
H9121 C9137 0.930 . S
H9122 C9138 0.931 1_554 S
C9123 H9111 0.929 . S
C9123 C9117 1.390 . S
C9123 C9120 1.386 . S
C9124 C9119 1.490 . S
C9124 C9126 1.395 . S
C9124 C9127 1.403 . S
H9125 C9131 0.928 1_556 S
C9126 H9112 0.930 . S
C9126 C9124 1.395 . S
C9126 C9129 1.403 1_554 S
C9127 C9124 1.403 . S
C9127 C9128 1.524 . S
C9127 C9131 1.401 . S
C9128 H9113 0.960 . S
C9128 H9114 0.960 . S
C9128 H9115 0.960 . S
C9128 C9127 1.524 . S
C9129 C9126 1.403 1_556 S
C9129 C9130 1.392 . S
C9129 C9133 1.495 . S
C9130 C9129 1.392 . S
C9130 C9131 1.385 1_556 S
C9130 C9132 1.478 . S
C9131 H9125 0.928 1_554 S
C9131 C9127 1.401 . S
C9131 C9130 1.385 1_554 S
C9132 C9130 1.478 . S
C9132 C9134 1.381 . S
C9132 C9138 1.383 . S
C9133 C9129 1.495 . S
C9133 H9139 0.959 . S
C9133 H9140 0.961 . S
C9133 H9141 0.960 . S
C9134 C9132 1.381 . S
C9134 C9135 1.394 . S
C9134 H9142 0.930 . S
C9135 C9134 1.394 . S
C9135 C9136 1.383 . S
C9135 H9143 0.929 . S
C9136 C9135 1.383 . S
C9136 C9137 1.377 . S
C9137 H9121 0.930 . S
C9137 C9136 1.377 . S
C9137 C9138 1.379 . S
C9138 H9122 0.931 1_556 S
C9138 C9132 1.383 . S
C9138 C9137 1.379 . S
H9139 C9133 0.959 . S
H9140 C9133 0.961 . S
H9141 C9133 0.960 . S
H9142 C9134 0.930 . S
H9143 C9135 0.929 . S
H9144 C9152 0.929 . S
H9145 C9154 0.930 . S
H9146 C9156 0.930 . S
H9147 C9159 0.929 . S
H9148 C9162 0.930 . S
H9149 C9164 0.960 . S
H9150 C9164 0.960 . S
H9151 C9164 0.960 . S
C9152 H9144 0.929 . S
C9152 C9153 1.377 . S
C9152 C9154 1.384 . S
C9153 C9152 1.377 . S
C9153 C9159 1.390 . S
C9154 H9145 0.930 . S
C9154 C9152 1.384 . S
C9154 C9155 1.372 . S
C9155 C9154 1.372 . S
C9155 C9156 1.400 . S
C9155 C9160 1.490 . S
C9156 H9146 0.930 . S
C9156 C9155 1.400 . S
C9156 C9159 1.386 . S
H9157 C9173 0.930 . S
H9158 C9174 0.931 . S
C9159 H9147 0.929 . S
C9159 C9153 1.390 . S
C9159 C9156 1.386 . S
C9160 C9155 1.490 . S
C9160 C9162 1.395 . S
C9160 C9163 1.403 . S
H9161 C9167 0.930 . S
C9162 H9148 0.930 . S
C9162 C9160 1.395 . S
C9162 C9165 1.403 . S
C9163 C9160 1.403 . S
C9163 C9164 1.524 . S
C9163 C9167 1.400 . S
C9164 H9149 0.960 . S
C9164 H9150 0.960 . S
C9164 H9151 0.960 . S
C9164 C9163 1.524 . S
C9165 C9162 1.403 . S
C9165 C9166 1.392 . S
C9165 C9169 1.495 . S
C9166 C9165 1.392 . S
C9166 C9167 1.385 . S
C9166 C9168 1.478 . S
C9167 H9161 0.930 . S
C9167 C9163 1.400 . S
C9167 C9166 1.385 . S
C9168 C9166 1.478 . S
C9168 C9170 1.381 . S
C9168 C9174 1.383 . S
C9169 C9165 1.495 . S
C9169 H9175 0.959 . S
C9169 H9176 0.961 . S
C9169 H9177 0.960 . S
C9170 C9168 1.381 . S
C9170 C9171 1.394 . S
C9170 H9178 0.930 . S
C9171 C9170 1.394 . S
C9171 C9172 1.383 . S
C9171 H9179 0.929 . S
C9172 C9171 1.383 . S
C9172 C9173 1.377 . S
C9173 H9157 0.930 . S
C9173 C9172 1.377 . S
C9173 C9174 1.379 . S
C9174 H9158 0.931 . S
C9174 C9168 1.383 . S
C9174 C9173 1.379 . S
H9175 C9169 0.959 . S
H9176 C9169 0.961 . S
H9177 C9169 0.960 . S
H9178 C9170 0.930 . S
H9179 C9171 0.929 . S
H9180 C9188 0.929 . S
H9181 C9190 0.930 . S
H9182 C9192 0.930 . S
H9183 C9195 0.929 . S
H9184 C9198 0.930 . S
H9185 C9200 0.957 1_556 S
H9186 C9200 1.026 . S
H9187 C9200 0.959 . S
C9188 H9180 0.929 . S
C9188 C9189 1.377 . S
C9188 C9190 1.384 . S
C9189 C9188 1.377 . S
C9189 C9195 1.390 . S
C9190 H9181 0.930 . S
C9190 C9188 1.384 . S
C9190 C9191 1.372 1_554 S
C9191 C9190 1.372 1_556 S
C9191 C9192 1.400 . S
C9191 C9196 1.490 . S
C9192 H9182 0.930 . S
C9192 C9191 1.400 . S
C9192 C9195 1.386 1_556 S
H9193 C9209 0.930 . S
H9194 C9210 0.931 . S
C9195 H9183 0.929 . S
C9195 C9189 1.390 . S
C9195 C9192 1.386 1_554 S
C9196 C9191 1.490 . S
C9196 C9198 1.395 . S
C9196 C9199 1.403 . S
H9197 C9203 0.930 . S
C9198 H9184 0.930 . S
C9198 C9196 1.395 . S
C9198 C9201 1.403 . S
C9199 C9196 1.403 . S
C9199 C9200 1.469 1_556 S
C9199 C9203 1.400 . S
C9200 H9185 0.957 1_554 S
C9200 H9186 1.026 . S
C9200 H9187 0.959 . S
C9200 C9199 1.469 1_554 S
C9201 C9198 1.403 . S
C9201 C9202 1.392 . S
C9201 C9205 1.495 . S
C9202 C9201 1.392 . S
C9202 C9203 1.385 . S
C9202 C9204 1.478 . S
C9203 H9197 0.930 . S
C9203 C9199 1.400 . S
C9203 C9202 1.385 . S
C9204 C9202 1.478 . S
C9204 C9206 1.381 . S
C9204 C9210 1.383 . S
C9205 C9201 1.495 . S
C9205 H9211 0.959 . S
C9205 H9212 0.961 . S
C9205 H9213 0.960 . S
C9206 C9204 1.381 . S
C9206 C9207 1.394 . S
C9206 H9214 0.930 . S
C9207 C9206 1.394 . S
C9207 C9208 1.383 . S
C9207 H9215 0.929 . S
C9208 C9207 1.383 . S
C9208 C9209 1.377 . S
C9209 H9193 0.930 . S
C9209 C9208 1.377 . S
C9209 C9210 1.379 . S
C9210 H9194 0.931 . S
C9210 C9204 1.383 . S
C9210 C9209 1.379 . S
H9211 C9205 0.959 . S
H9212 C9205 0.961 . S
H9213 C9205 0.960 . S
H9214 C9206 0.930 . S
H9215 C9207 0.929 . S
C4041 C578 4.105 . S
C4060 C74 4.118 . S
C4077 C651 4.207 . S
C4096 C158 4.196 . S
C4113 C399 4.088 . S
C4132 C231 4.059 1_455 S
C4149 C483 4.171 . S
C4168 C326 4.129 . S
C4185 C914 4.218 . S
C4204 C746 4.222 . S
C4221 C987 4.040 . S
C4240 C819 4.033 . S
C4257 C1239 4.109 . S
C4276 C1071 4.086 . S
C4293 C1334 4.132 . S
C4312 C1166 4.133 . S
C4329 C1502 4.240 . S
C4348 C1400 4.208 . S
C4365 C2006 4.117 . S
C4384 C1586 4.099 . S
C4401 C1820 4.197 . S
C4420 C1659 4.223 . S
C4437 C1743 4.139 1_554 S
C4456 C1911 4.166 . S
C4473 C2090 4.119 . S
C4492 C2594 4.095 . S
C4509 C2174 4.136 1_554 S
C4528 C2667 4.199 . S
C4545 C2247 4.071 . S
C4564 C2415 4.089 . S
C4581 C2342 4.130 . S
C4600 C2499 4.169 . S
C4617 C2762 4.229 . S
C4636 C2930 4.218 . S
C4653 C2835 4.039 . S
C4672 C3003 4.034 . S
C4689 C3087 4.096 . S
C4708 C3255 4.103 . S
C4725 C3350 4.133 . S
C4744 C3182 4.130 . S
C4761 C3416 4.213 . S
C4780 C3518 4.232 . S
C4797 C4022 4.118 . S
C4816 C3602 4.102 . S
C4833 C3675 4.232 1_545 S
C4852 C3836 4.199 . S
C4869 C3759 4.139 . S
C4888 C3927 4.167 . S
C4905 C63 3.769 . S
C4924 C830 3.790 . S
C4941 C147 4.246 . S
C4960 C903 4.108 . S
C4977 C242 4.137 . S
C4996 C998 4.140 . S
C5013 C735 3.667 . S
C5032 C315 3.680 . S
C5049 C1323 2.890 . S
C5068 C410 2.896 . S
C5085 C1082 3.279 . S
C5104 C494 3.239 . S
C5121 C1155 3.405 . S
C5140 C567 3.431 . S
C5157 C662 2.728 . S
C5176 C1250 2.873 . S
C5193 C1575 2.224 . S
C5212 C1411 2.283 . S
C5229 C1922 4.740 . S
C5248 C1491 4.779 . S
C5265 C1670 4.787 . S
C5284 C1995 4.725 . S
C5301 C1831 2.275 . S
C5320 C1754 2.186 . S
C5337 C2079 3.769 . S
C5356 C2846 3.772 . S
C5373 C2919 4.102 . S
C5392 C2163 4.253 . S
C5409 C3014 4.147 . S
C5428 C2258 4.147 . S
C5445 C2331 3.701 . S
C5464 C2751 3.678 . S
C5481 C3339 2.893 . S
C5500 C2426 2.871 . S
C5517 C2510 3.265 . S
C5536 C3098 3.255 . S
C5553 C2583 3.425 . S
C5572 C3171 3.400 . S
C5589 C2678 2.732 . S
C5608 C3266 2.859 . S
C5625 C3427 2.308 . S
C5644 C3591 2.192 . S
C5661 C3938 4.739 . S
C5680 C3507 4.779 . S
C5697 C4011 4.741 . S
C5716 C3686 4.792 . S
C5733 C3770 2.203 . S
C5752 C3847 2.268 . S
C5769 C58 1.071 . S
C5788 C319 0.215 . S
C5805 C67 1.159 . S
C5824 C142 0.909 . S
C5841 C224 0.878 . S
C5860 C151 0.858 . S
C5877 C310 0.748 . S
C5896 C237 0.789 . S
C5913 C489 0.737 . S
C5932 C392 0.763 . S
C5949 C571 1.044 . S
C5968 C476 1.007 . S
C5985 C562 0.676 . S
C6004 C657 0.850 . S
C6021 C405 1.043 . S
C6040 C644 0.101 . S
C6057 C730 1.211 . S
C6076 C1579 0.414 . S
C6093 C812 0.946 . S
C6112 C1665 0.798 . S
C6129 C898 1.169 . S
C6148 C1749 1.237 . S
C6165 C980 1.617 . S
C6184 C1495 1.647 . S
C6201 C1064 1.203 . S
C6220 C1917 0.813 . S
C6237 C1402 1.234 . S
C6256 C1150 0.714 . S
C6273 C1999 2.072 1_556 S
C6292 C1232 2.031 . S
C6309 C1318 1.467 1_455 S
C6328 C1822 1.845 . S
C6345 C1407 1.273 . S
C6364 C825 1.855 . S
C6381 C1486 1.384 . S
C6400 C1327 1.732 . S
C6417 C1570 1.447 1_554 S
C6436 C1077 1.260 . S
C6453 C1159 2.586 1_655 S
C6472 C1652 2.592 1_556 S
C6489 C1245 1.204 . S
C6508 C1736 0.418 . S
C6525 C993 0.982 . S
C6544 C1827 0.603 . S
C6561 C739 2.153 . S
C6580 C1904 2.186 . S
C6597 C1990 0.901 . S
C6616 C907 1.201 . S
C6633 C2074 1.071 . S
C6652 C2335 0.167 . S
C6669 C2158 0.915 . S
C6688 C2083 1.160 . S
C6705 C2167 0.880 . S
C6724 C2240 0.839 . S
C6741 C2253 0.794 . S
C6760 C2326 0.671 . S
C6777 C2408 0.767 . S
C6796 C2505 0.793 . S
C6813 C2587 1.045 . S
C6832 C2492 0.998 . S
C6849 C2673 0.778 . S
C6868 C2578 0.796 . S
C6885 C2660 0.082 . S
C6904 C2421 1.062 . S
C6921 C2746 1.215 . S
C6940 C3595 0.423 . S
C6957 C3681 0.786 . S
C6976 C2828 0.918 . S
C6993 C3765 1.265 . S
C7012 C2914 1.136 . S
C7029 C2996 1.615 . S
C7048 C3511 1.649 . S
C7065 C3933 0.894 . S
C7084 C3080 1.198 . S
C7101 C3166 0.768 . S
C7120 C3418 1.252 . S
C7137 C3248 2.043 . S
C7156 C4015 2.071 . S
C7173 C3334 1.449 . S
C7192 C3838 1.923 . S
C7209 C2841 1.852 . S
C7228 C3423 1.249 . S
C7245 C3343 1.735 . S
C7264 C3502 1.379 . S
C7281 C3093 1.290 . S
C7300 C3586 1.494 . S
C7317 C3668 2.603 . S
C7336 C3175 2.593 . S
C7353 C3261 1.202 . S
C7372 C3752 0.426 . S
C7389 C3843 0.559 . S
C7408 C3009 0.986 . S
C7425 C3920 2.187 . S
C7444 C2755 2.133 . S
C7461 C2923 1.193 . S
C7480 C4006 0.909 . S
C7497 C56 0.610 . S
C7516 C3754 0.459 . S
C7533 C3500 2.336 . S
C7552 C140 2.361 . S
C7569 C226 0.579 . S
C7588 C3584 0.709 . S
C7605 C308 0.685 . S
C7624 C3670 0.716 . S
C7641 C394 0.560 . S
C7660 C4004 0.316 . S
C7677 C478 2.235 . S
C7696 C3849 2.443 . S
C7713 C560 0.720 . S
C7732 C3922 0.780 . S
C7749 C646 1.757 . S
C7768 C3429 2.297 . S
C7785 C728 2.227 . S
C7804 C3332 2.172 . S
C7821 C814 2.052 . S
C7840 C3082 1.752 . S
C7857 C896 2.429 . S
C7876 C3164 2.416 . S
C7893 C982 2.092 . S
C7912 C3250 2.023 . S
C7929 C1066 1.742 . S
C7948 C2830 2.004 . S
C7965 C1148 2.439 . S
C7984 C2912 2.405 . S
C8001 C1234 2.032 . S
C8020 C2998 2.108 . S
C8037 C1316 2.191 . S
C8056 C2744 2.229 . S
C8073 C1413 2.270 . S
C8092 C2662 1.785 . S
C8109 C1484 2.337 . S
C8128 C2156 2.360 . S
C8145 C1568 0.653 . S
C8164 C2242 0.628 . S
C8181 C1654 0.696 . S
C8200 C2324 0.745 . S
C8217 C1738 0.476 . S
C8236 C2072 0.534 . S
C8253 C1833 2.432 . S
C8272 C2494 2.248 . S
C8289 C1906 0.715 . S
C8308 C2576 0.667 . S
C8325 C1988 0.388 . S
C8344 C2410 0.516 . S
C8361 C403 0.529 . S
C8380 C3597 0.506 . S
C8397 C487 2.361 . S
C8416 C3679 2.347 . S
C8433 C573 0.408 . S
C8452 C3763 0.546 . S
C8469 C655 0.717 . S
C8488 C3513 0.741 . S
C8505 C69 0.547 . S
C8524 C3931 0.446 . S
C8541 C153 0.641 . S
C8560 C3434 0.552 . S
C8577 C235 0.707 . S
C8596 C4017 0.640 . S
C8613 C3854 0.466 . S
C8632 C321 0.326 . S
C8649 C1243 2.328 1_565 S
C8668 C2839 2.296 . S
C8685 C1329 2.088 . S
C8704 C2925 2.017 . S
C8721 C1075 2.536 . S
C8740 C3007 2.549 . S
C8757 C1161 2.211 1_455 S
C8776 C2757 2.388 . S
C8793 C909 1.998 . S
C8812 C3345 2.118 . S
C8829 C991 2.553 1_655 S
C8848 C3091 2.515 . S
C8865 C741 2.358 1_545 S
C8884 C3177 2.235 . S
C8901 C823 2.314 . S
C8920 C3259 2.328 . S
C8937 C1838 0.459 . S
C8956 C2337 0.422 . S
C8973 C1663 2.364 . S
C8992 C2503 2.356 . S
C9009 C1747 0.483 . S
C9028 C2589 0.503 . S
C9045 C1497 0.746 . S
C9064 C2671 0.679 . S
C9081 C1581 0.467 . S
C9100 C2419 0.590 . S
C9117 C1418 0.463 . S
C9136 C2169 0.646 . S
C9153 C2001 0.716 . S
C9172 C2251 0.682 . S
C9189 C1915 0.412 . S
C9208 C2085 0.474 . S
