# Generated by pormake.
# Topology whd, (6)-cn, num edge types: 1
# Building blocks:
#     Node 0, Type 0, BuildingBlock: OJICUG_clean_sbu_0, # of connection points: 6
#     Node 1, Type 0, BuildingBlock: OJICUG_clean_sbu_0, # of connection points: 6
#     Node 2, Type 0, BuildingBlock: OJICUG_clean_sbu_0, # of connection points: 6
#     Node 3, Type 0, BuildingBlock: OJICUG_clean_sbu_0, # of connection points: 6
#     Node 4, Type 0, BuildingBlock: OJICUG_clean_sbu_0, # of connection points: 6
#     Node 5, Type 0, BuildingBlock: OJICUG_clean_sbu_0, # of connection points: 6
#     Node 6, Type 0, BuildingBlock: OJICUG_clean_sbu_0, # of connection points: 6
#     Node 7, Type 0, BuildingBlock: OJICUG_clean_sbu_0, # of connection points: 6
#     Node 8, Type 0, BuildingBlock: OJICUG_clean_sbu_0, # of connection points: 6
#     Node 9, Type 0, BuildingBlock: OJICUG_clean_sbu_0, # of connection points: 6
#     Node 10, Type 0, BuildingBlock: OJICUG_clean_sbu_0, # of connection points: 6
#     Node 11, Type 0, BuildingBlock: OJICUG_clean_sbu_0, # of connection points: 6
#     Node 12, Type 0, BuildingBlock: OJICUG_clean_sbu_0, # of connection points: 6
#     Node 13, Type 0, BuildingBlock: OJICUG_clean_sbu_0, # of connection points: 6
#     Node 14, Type 0, BuildingBlock: OJICUG_clean_sbu_0, # of connection points: 6
#     Node 15, Type 0, BuildingBlock: OJICUG_clean_sbu_0, # of connection points: 6
#     Edge 16, Type (0, 0), BuildingBlock: CIFDUS_clean_linker_0, # of connection points: 2
#     Edge 17, Type (0, 0), BuildingBlock: CIFDUS_clean_linker_0, # of connection points: 2
#     Edge 18, Type (0, 0), BuildingBlock: CIFDUS_clean_linker_0, # of connection points: 2
#     Edge 19, Type (0, 0), BuildingBlock: CIFDUS_clean_linker_0, # of connection points: 2
#     Edge 20, Type (0, 0), BuildingBlock: CIFDUS_clean_linker_0, # of connection points: 2
#     Edge 21, Type (0, 0), BuildingBlock: CIFDUS_clean_linker_0, # of connection points: 2
#     Edge 22, Type (0, 0), BuildingBlock: CIFDUS_clean_linker_0, # of connection points: 2
#     Edge 23, Type (0, 0), BuildingBlock: CIFDUS_clean_linker_0, # of connection points: 2
#     Edge 24, Type (0, 0), BuildingBlock: CIFDUS_clean_linker_0, # of connection points: 2
#     Edge 25, Type (0, 0), BuildingBlock: CIFDUS_clean_linker_0, # of connection points: 2
#     Edge 26, Type (0, 0), BuildingBlock: CIFDUS_clean_linker_0, # of connection points: 2
#     Edge 27, Type (0, 0), BuildingBlock: CIFDUS_clean_linker_0, # of connection points: 2
#     Edge 28, Type (0, 0), BuildingBlock: CIFDUS_clean_linker_0, # of connection points: 2
#     Edge 29, Type (0, 0), BuildingBlock: CIFDUS_clean_linker_0, # of connection points: 2
#     Edge 30, Type (0, 0), BuildingBlock: CIFDUS_clean_linker_0, # of connection points: 2
#     Edge 31, Type (0, 0), BuildingBlock: CIFDUS_clean_linker_0, # of connection points: 2
#     Edge 32, Type (0, 0), BuildingBlock: CIFDUS_clean_linker_0, # of connection points: 2
#     Edge 33, Type (0, 0), BuildingBlock: CIFDUS_clean_linker_0, # of connection points: 2
#     Edge 34, Type (0, 0), BuildingBlock: CIFDUS_clean_linker_0, # of connection points: 2
#     Edge 35, Type (0, 0), BuildingBlock: CIFDUS_clean_linker_0, # of connection points: 2
#     Edge 36, Type (0, 0), BuildingBlock: CIFDUS_clean_linker_0, # of connection points: 2
#     Edge 37, Type (0, 0), BuildingBlock: CIFDUS_clean_linker_0, # of connection points: 2
#     Edge 38, Type (0, 0), BuildingBlock: CIFDUS_clean_linker_0, # of connection points: 2
#     Edge 39, Type (0, 0), BuildingBlock: CIFDUS_clean_linker_0, # of connection points: 2
#     Edge 40, Type (0, 0), BuildingBlock: CIFDUS_clean_linker_0, # of connection points: 2
#     Edge 41, Type (0, 0), BuildingBlock: CIFDUS_clean_linker_0, # of connection points: 2
#     Edge 42, Type (0, 0), BuildingBlock: CIFDUS_clean_linker_0, # of connection points: 2
#     Edge 43, Type (0, 0), BuildingBlock: CIFDUS_clean_linker_0, # of connection points: 2
#     Edge 44, Type (0, 0), BuildingBlock: CIFDUS_clean_linker_0, # of connection points: 2
#     Edge 45, Type (0, 0), BuildingBlock: CIFDUS_clean_linker_0, # of connection points: 2
#     Edge 46, Type (0, 0), BuildingBlock: CIFDUS_clean_linker_0, # of connection points: 2
#     Edge 47, Type (0, 0), BuildingBlock: CIFDUS_clean_linker_0, # of connection points: 2
#     Edge 48, Type (0, 0), BuildingBlock: CIFDUS_clean_linker_0, # of connection points: 2
#     Edge 49, Type (0, 0), BuildingBlock: CIFDUS_clean_linker_0, # of connection points: 2
#     Edge 50, Type (0, 0), BuildingBlock: CIFDUS_clean_linker_0, # of connection points: 2
#     Edge 51, Type (0, 0), BuildingBlock: CIFDUS_clean_linker_0, # of connection points: 2
#     Edge 52, Type (0, 0), BuildingBlock: CIFDUS_clean_linker_0, # of connection points: 2
#     Edge 53, Type (0, 0), BuildingBlock: CIFDUS_clean_linker_0, # of connection points: 2
#     Edge 54, Type (0, 0), BuildingBlock: CIFDUS_clean_linker_0, # of connection points: 2
#     Edge 55, Type (0, 0), BuildingBlock: CIFDUS_clean_linker_0, # of connection points: 2
#     Edge 56, Type (0, 0), BuildingBlock: CIFDUS_clean_linker_0, # of connection points: 2
#     Edge 57, Type (0, 0), BuildingBlock: CIFDUS_clean_linker_0, # of connection points: 2
#     Edge 58, Type (0, 0), BuildingBlock: CIFDUS_clean_linker_0, # of connection points: 2
#     Edge 59, Type (0, 0), BuildingBlock: CIFDUS_clean_linker_0, # of connection points: 2
#     Edge 60, Type (0, 0), BuildingBlock: CIFDUS_clean_linker_0, # of connection points: 2
#     Edge 61, Type (0, 0), BuildingBlock: CIFDUS_clean_linker_0, # of connection points: 2
#     Edge 62, Type (0, 0), BuildingBlock: CIFDUS_clean_linker_0, # of connection points: 2
#     Edge 63, Type (0, 0), BuildingBlock: CIFDUS_clean_linker_0, # of connection points: 2
# Relax obj value: 0.256
# Max RMSD: 0.229
# Mean RMSD: 0.229
data_MOF--net-whd--node1-OJICUG_clean_sbu_0--edge1-CIFDUS_clean_linker_0
_symmetry_space_group_name_H-M    P1
_symmetry_Int_Tables_number       1
_symmetry_cell_setting            triclinic
loop_
_symmetry_equiv_pos_as_xyz
'x, y, z'
_cell_length_a     46.326659
_cell_length_b     46.393638
_cell_length_c     27.221405
_cell_angle_alpha  89.662875
_cell_angle_beta   89.962846
_cell_angle_gamma 89.892307
loop_
_atom_site_label
_atom_site_type_symbol
_atom_site_fract_x
_atom_site_fract_y
_atom_site_fract_z
_atom_type_partial_charge
Sc0 Sc 0.1489 0.34199 0.36516 0.0
Sc1 Sc 0.19684 0.3991 0.33892 0.0
Sc2 Sc 0.13954 0.4085 0.42239 0.0
O3 O 0.16188 0.38322 0.37544 0.0
C4 C 0.08875 0.37565 0.37019 0.0
C5 C 0.1647 0.36195 0.25684 0.0
C6 C 0.15508 0.4531 0.33659 0.0
C7 C 0.21766 0.3357 0.36348 0.0
C8 C 0.14051 0.34784 0.47923 0.0
C9 C 0.20428 0.42466 0.44701 0.0
O10 O 0.10396 0.35314 0.36432 0.0
O11 O 0.1839 0.37979 0.27044 0.0
O12 O 0.14237 0.44624 0.37628 0.0
O13 O 0.19216 0.32578 0.36495 0.0
O14 O 0.13485 0.3746 0.47619 0.0
O15 O 0.21363 0.4206 0.40357 0.0
O16 O 0.1475 0.33265 0.44247 0.0
O17 O 0.22327 0.36224 0.35677 0.0
O18 O 0.17838 0.4198 0.45995 0.0
O19 O 0.14913 0.34771 0.2868 0.0
O20 O 0.09876 0.39899 0.38743 0.0
O21 O 0.17401 0.4374 0.31613 0.0
Sc22 Sc 0.33904 0.84263 0.63881 0.0
Sc23 Sc 0.3894 0.79405 0.68815 0.0
Sc24 Sc 0.40871 0.84027 0.59332 0.0
O25 O 0.37888 0.82566 0.64025 0.0
C26 C 0.35226 0.84139 0.52637 0.0
C27 C 0.32812 0.77493 0.65357 0.0
C28 C 0.4233 0.77584 0.59048 0.0
C29 C 0.34817 0.83443 0.75226 0.0
C30 C 0.38004 0.89752 0.62744 0.0
C31 C 0.44547 0.82916 0.69093 0.0
O32 O 0.33454 0.83642 0.56096 0.0
O33 O 0.3542 0.76807 0.66279 0.0
O34 O 0.41471 0.79762 0.56612 0.0
O35 O 0.34032 0.85034 0.71653 0.0
O36 O 0.40321 0.88345 0.62011 0.0
O37 O 0.42491 0.81866 0.71615 0.0
O38 O 0.35514 0.88587 0.62816 0.0
O39 O 0.3628 0.81142 0.74655 0.0
O40 O 0.44344 0.83442 0.64518 0.0
O41 O 0.31953 0.80094 0.64926 0.0
O42 O 0.37872 0.84699 0.5339 0.0
O43 O 0.41877 0.77314 0.6365 0.0
Sc44 Sc 0.81612 0.64098 0.35092 0.0
Sc45 Sc 0.78278 0.57566 0.31654 0.0
Sc46 Sc 0.83982 0.5756 0.40231 0.0
O47 O 0.81277 0.5974 0.35676 0.0
C48 C 0.88241 0.62254 0.35821 0.0
C49 C 0.80825 0.62136 0.23965 0.0
C50 C 0.83608 0.53236 0.31206 0.0
C51 C 0.74767 0.63174 0.34377 0.0
C52 C 0.82456 0.63198 0.46511 0.0
C53 C 0.77958 0.54378 0.4205 0.0
O54 O 0.86241 0.64075 0.35064 0.0
O55 O 0.79401 0.59873 0.25026 0.0
O56 O 0.84837 0.5416 0.35055 0.0
O57 O 0.77009 0.64689 0.35081 0.0
O58 O 0.83451 0.60662 0.46002 0.0
O59 O 0.76896 0.54979 0.37856 0.0
O60 O 0.81568 0.64734 0.42933 0.0
O61 O 0.74858 0.60538 0.332 0.0
O62 O 0.80445 0.55201 0.43435 0.0
O63 O 0.8181 0.63851 0.27183 0.0
O64 O 0.87773 0.59716 0.37417 0.0
O65 O 0.81285 0.54308 0.2954 0.0
Sc66 Sc 0.64893 0.14311 0.61916 0.0
Sc67 Sc 0.59032 0.18975 0.64422 0.0
Sc68 Sc 0.58185 0.13082 0.56423 0.0
O69 O 0.607 0.15462 0.60926 0.0
C70 C 0.64132 0.13594 0.5051 0.0
C71 C 0.65325 0.2117 0.61978 0.0
C72 C 0.56254 0.19537 0.53801 0.0
C73 C 0.62805 0.15809 0.72718 0.0
C74 C 0.61942 0.08133 0.61219 0.0
C75 C 0.53843 0.14479 0.65134 0.0
O76 O 0.65717 0.14171 0.54176 0.0
O77 O 0.62673 0.21668 0.62768 0.0
O78 O 0.56554 0.16877 0.52853 0.0
O79 O 0.64349 0.14355 0.69756 0.0
O80 O 0.59556 0.09008 0.59478 0.0
O81 O 0.55183 0.16714 0.66536 0.0
O82 O 0.6405 0.09786 0.62076 0.0
O83 O 0.6092 0.17643 0.71329 0.0
O84 O 0.54664 0.12946 0.61545 0.0
O85 O 0.66378 0.18653 0.61786 0.0
O86 O 0.61455 0.13025 0.50839 0.0
O87 O 0.56964 0.20657 0.57875 0.0
Sc88 Sc 0.14606 0.56727 0.61722 0.0
Sc89 Sc 0.19719 0.58171 0.7085 0.0
Sc90 Sc 0.15235 0.63686 0.66182 0.0
O91 O 0.16537 0.5953 0.66262 0.0
C92 C 0.15081 0.62343 0.54971 0.0
C93 C 0.21115 0.54928 0.6077 0.0
C94 C 0.22076 0.64235 0.6753 0.0
C95 C 0.15608 0.52834 0.71252 0.0
C96 C 0.0928 0.6028 0.65377 0.0
C97 C 0.15976 0.6244 0.77537 0.0
O98 O 0.14302 0.59763 0.55773 0.0
O99 O 0.217 0.55465 0.65251 0.0
O100 O 0.19556 0.65257 0.66902 0.0
O101 O 0.14748 0.53222 0.66879 0.0
O102 O 0.10741 0.62598 0.65447 0.0
O103 O 0.18037 0.60651 0.76942 0.0
O104 O 0.104 0.57828 0.64536 0.0
O105 O 0.17197 0.54606 0.73522 0.0
O106 O 0.14621 0.63602 0.73981 0.0
O107 O 0.18698 0.55507 0.58792 0.0
O108 O 0.15739 0.64082 0.58367 0.0
O109 O 0.22549 0.61616 0.68664 0.0
Sc110 Sc 0.56408 0.83777 0.37346 0.0
Sc111 Sc 0.57141 0.77777 0.29465 0.0
Sc112 Sc 0.63178 0.82093 0.32468 0.0
O113 O 0.589 0.81213 0.33081 0.0
C114 C 0.60556 0.88409 0.3226 0.0
C115 C 0.52411 0.8272 0.2798 0.0
C116 C 0.61631 0.80216 0.21573 0.0
C117 C 0.53701 0.77576 0.39579 0.0
C118 C 0.62098 0.83213 0.43793 0.0
C119 C 0.63052 0.75246 0.3356 0.0
O120 O 0.58219 0.87725 0.34415 0.0
O121 O 0.53618 0.80379 0.26647 0.0
O122 O 0.63124 0.81597 0.24669 0.0
O123 O 0.54273 0.80163 0.40721 0.0
O124 O 0.63743 0.82712 0.40177 0.0
O125 O 0.60483 0.74858 0.32045 0.0
O126 O 0.59399 0.83627 0.43375 0.0
O127 O 0.54512 0.76428 0.3559 0.0
O128 O 0.64257 0.77695 0.33708 0.0
O129 O 0.53177 0.84132 0.31746 0.0
O130 O 0.62533 0.86604 0.31298 0.0
O131 O 0.5947 0.78682 0.22769 0.0
Sc132 Sc 0.83966 0.41454 0.63813 0.0
Sc133 Sc 0.78392 0.39641 0.7213 0.0
Sc134 Sc 0.82961 0.34258 0.67273 0.0
O135 O 0.8176 0.38457 0.67725 0.0
C136 C 0.83358 0.36265 0.56167 0.0
C137 C 0.77506 0.43718 0.62772 0.0
C138 C 0.76068 0.33837 0.67687 0.0
C139 C 0.82903 0.44626 0.74034 0.0
C140 C 0.89089 0.37374 0.6706 0.0
C141 C 0.81867 0.35027 0.78712 0.0
O142 O 0.83872 0.38885 0.57222 0.0
O143 O 0.76538 0.42571 0.667 0.0
O144 O 0.78577 0.32807 0.66998 0.0
O145 O 0.84244 0.44327 0.69988 0.0
O146 O 0.875 0.3516 0.67442 0.0
O147 O 0.79934 0.36964 0.78168 0.0
O148 O 0.88111 0.39844 0.65958 0.0
O149 O 0.80774 0.43078 0.75294 0.0
O150 O 0.8318 0.33881 0.75118 0.0
O151 O 0.80086 0.43431 0.61304 0.0
O152 O 0.82916 0.34328 0.59399 0.0
O153 O 0.75623 0.3633 0.69409 0.0
Sc154 Sc 0.42193 0.14682 0.34877 0.0
Sc155 Sc 0.40473 0.20386 0.26722 0.0
Sc156 Sc 0.35009 0.15809 0.31396 0.0
O157 O 0.39229 0.16972 0.31007 0.0
C158 C 0.38089 0.0965 0.3147 0.0
C159 C 0.45569 0.15885 0.24885 0.0
C160 C 0.35981 0.16961 0.19963 0.0
C161 C 0.44327 0.21175 0.36261 0.0
C162 C 0.36944 0.15269 0.42515 0.0
C163 C 0.34525 0.22684 0.30947 0.0
O164 O 0.4057 0.10567 0.3262 0.0
O165 O 0.44107 0.18109 0.23757 0.0
O166 O 0.34708 0.15714 0.23527 0.0
O167 O 0.44173 0.18532 0.37457 0.0
O168 O 0.35018 0.15747 0.39286 0.0
O169 O 0.37013 0.2312 0.29151 0.0
O170 O 0.39572 0.14754 0.41451 0.0
O171 O 0.43135 0.22245 0.32454 0.0
O172 O 0.33537 0.2018 0.31785 0.0
O173 O 0.45115 0.14407 0.28752 0.0
O174 O 0.35895 0.11275 0.31112 0.0
O175 O 0.37991 0.18802 0.20544 0.0
Sc176 Sc 0.654 0.83473 0.8339 0.0
Sc177 Sc 0.6918 0.89228 0.77795 0.0
Sc178 Sc 0.63782 0.90604 0.86639 0.0
O179 O 0.66127 0.8777 0.82615 0.0
C180 C 0.5903 0.86024 0.83559 0.0
C181 C 0.66263 0.84145 0.71838 0.0
C182 C 0.64125 0.93832 0.76297 0.0
C183 C 0.72245 0.83749 0.82561 0.0
C184 C 0.64857 0.85595 0.94444 0.0
C185 C 0.70125 0.93316 0.86848 0.0
O186 O 0.60841 0.84023 0.82786 0.0
O187 O 0.67661 0.86487 0.72088 0.0
O188 O 0.62937 0.93355 0.80426 0.0
O189 O 0.69919 0.82561 0.83995 0.0
O190 O 0.64364 0.88205 0.93313 0.0
O191 O 0.71041 0.92165 0.82939 0.0
O192 O 0.65226 0.83628 0.91282 0.0
O193 O 0.72307 0.86101 0.80159 0.0
O194 O 0.67595 0.9296 0.88551 0.0
O195 O 0.65369 0.82778 0.7559 0.0
O196 O 0.59729 0.88508 0.85094 0.0
O197 O 0.66395 0.92531 0.74896 0.0
Sc198 Sc 0.83855 0.31554 0.1829 0.0
Sc199 Sc 0.89863 0.27442 0.22163 0.0
Sc200 Sc 0.90821 0.33617 0.14676 0.0
O201 O 0.88184 0.30869 0.18364 0.0
C202 C 0.85446 0.33049 0.07254 0.0
C203 C 0.84308 0.24697 0.17403 0.0
C204 C 0.93676 0.27508 0.12479 0.0
C205 C 0.85001 0.29787 0.29422 0.0
C206 C 0.86245 0.37976 0.19063 0.0
C207 C 0.94429 0.3235 0.24518 0.0
O208 O 0.83689 0.32144 0.1049 0.0
O209 O 0.86836 0.24467 0.19139 0.0
O210 O 0.93082 0.30102 0.11354 0.0
O211 O 0.83606 0.31154 0.26137 0.0
O212 O 0.88797 0.37401 0.17671 0.0
O213 O 0.93087 0.30041 0.25545 0.0
O214 O 0.84251 0.36108 0.1931 0.0
O215 O 0.87193 0.28233 0.28494 0.0
O216 O 0.93905 0.33843 0.20676 0.0
O217 O 0.82959 0.27077 0.17092 0.0
O218 O 0.88055 0.3371 0.08216 0.0
O219 O 0.92793 0.26265 0.16361 0.0
Sc220 Sc 0.32452 0.15023 0.80469 0.0
Sc221 Sc 0.28492 0.0888 0.76957 0.0
Sc222 Sc 0.34811 0.08139 0.84091 0.0
O223 O 0.31913 0.10677 0.80528 0.0
C224 C 0.38917 0.12826 0.79221 0.0
C225 C 0.30525 0.13783 0.69463 0.0
C226 C 0.3354 0.04532 0.74317 0.0
C227 C 0.25631 0.14312 0.8187 0.0
C228 C 0.34189 0.13505 0.91436 0.0
C229 C 0.28878 0.05049 0.8668 0.0
O230 O 0.36995 0.14776 0.79062 0.0
O231 O 0.29048 0.11561 0.70529 0.0
O232 O 0.3505 0.05065 0.78114 0.0
O233 O 0.27963 0.1575 0.81989 0.0
O234 O 0.34896 0.10912 0.90486 0.0
O235 O 0.27552 0.05895 0.82852 0.0
O236 O 0.33204 0.15239 0.88222 0.0
O237 O 0.25462 0.11783 0.80169 0.0
O238 O 0.31458 0.05747 0.87689 0.0
O239 O 0.31892 0.15229 0.72647 0.0
O240 O 0.38443 0.10287 0.80794 0.0
O241 O 0.3117 0.05796 0.73411 0.0
Sc242 Sc 0.13864 0.65747 0.1716 0.0
Sc243 Sc 0.0778 0.69944 0.2035 0.0
Sc244 Sc 0.07027 0.63696 0.13067 0.0
O245 O 0.09548 0.66465 0.16872 0.0
C246 C 0.12471 0.64033 0.06067 0.0
C247 C 0.13438 0.72497 0.15275 0.0
C248 C 0.0413 0.69807 0.10562 0.0
C249 C 0.12579 0.68035 0.27994 0.0
C250 C 0.1145 0.5943 0.18497 0.0
C251 C 0.03244 0.64921 0.22636 0.0
O252 O 0.14218 0.64567 0.09534 0.0
O253 O 0.11009 0.72832 0.1739 0.0
O254 O 0.04621 0.67162 0.09689 0.0
O255 O 0.14136 0.66776 0.24824 0.0
O256 O 0.09172 0.59895 0.15998 0.0
O257 O 0.04358 0.67372 0.23533 0.0
O258 O 0.133 0.61366 0.1942 0.0
O259 O 0.10199 0.6924 0.2695 0.0
O260 O 0.04016 0.63357 0.19043 0.0
O261 O 0.14705 0.70076 0.14917 0.0
O262 O 0.0977 0.63791 0.06722 0.0
O263 O 0.05094 0.71116 0.14277 0.0
Sc264 Sc 0.64563 0.05476 0.08777 0.0
Sc265 Sc 0.70476 0.07589 0.16065 0.0
Sc266 Sc 0.65799 0.12815 0.10866 0.0
O267 O 0.66956 0.08626 0.11897 0.0
C268 C 0.64777 0.10236 0.00242 0.0
C269 C 0.71083 0.03335 0.0719 0.0
C270 C 0.72631 0.13319 0.10706 0.0
C271 C 0.6609 0.02566 0.19049 0.0
C272 C 0.59657 0.09811 0.12151 0.0
C273 C 0.67404 0.12518 0.22244 0.0
O274 O 0.6441 0.07668 0.01775 0.0
O275 O 0.72242 0.04765 0.10615 0.0
O276 O 0.70128 0.14206 0.09572 0.0
O277 O 0.64452 0.02912 0.15359 0.0
O278 O 0.61317 0.11981 0.12067 0.0
O279 O 0.69022 0.10312 0.2189 0.0
O280 O 0.60503 0.0728 0.11128 0.0
O281 O 0.68372 0.04027 0.19698 0.0
O282 O 0.66131 0.1368 0.18595 0.0
O283 O 0.68395 0.03358 0.0624 0.0
O284 O 0.65319 0.1233 0.03078 0.0
O285 O 0.73071 0.10994 0.13067 0.0
Sc286 Sc 0.06471 0.34118 0.89613 0.0
Sc287 Sc 0.08484 0.2799 0.82835 0.0
Sc288 Sc 0.13788 0.3264 0.87543 0.0
O289 O 0.09581 0.31572 0.8669 0.0
C290 C 0.10981 0.38807 0.8594 0.0
C291 C 0.0361 0.32477 0.79515 0.0
C292 C 0.13367 0.30841 0.76229 0.0
C293 C 0.0407 0.27705 0.91497 0.0
C294 C 0.11135 0.33897 0.98157 0.0
C295 C 0.14188 0.25861 0.8833 0.0
O296 O 0.08495 0.38137 0.87534 0.0
O297 O 0.04871 0.30048 0.79324 0.0
O298 O 0.14673 0.31994 0.79833 0.0
O299 O 0.04032 0.30429 0.91978 0.0
O300 O 0.13261 0.33475 0.95282 0.0
O301 O 0.11938 0.25432 0.85786 0.0
O302 O 0.0854 0.34103 0.96674 0.0
O303 O 0.05735 0.26375 0.88581 0.0
O304 O 0.15052 0.28358 0.89469 0.0
O305 O 0.04127 0.34325 0.82825 0.0
O306 O 0.13044 0.37026 0.85643 0.0
O307 O 0.1108 0.29356 0.76721 0.0
Sc308 Sc 0.33404 0.91195 0.11395 0.0
Sc309 Sc 0.26915 0.90929 0.18239 0.0
Sc310 Sc 0.30505 0.8452 0.14811 0.0
O311 O 0.30264 0.88887 0.14798 0.0
C312 C 0.32275 0.86021 0.03851 0.0
C313 C 0.27665 0.9466 0.08529 0.0
C314 C 0.23683 0.8553 0.13925 0.0
C315 C 0.32224 0.95012 0.20877 0.0
C316 C 0.37171 0.86109 0.15883 0.0
C317 C 0.2876 0.85998 0.25857 0.0
O318 O 0.33256 0.88496 0.0496 0.0
O319 O 0.26115 0.93792 0.12097 0.0
O320 O 0.25972 0.84038 0.13606 0.0
O321 O 0.33861 0.94174 0.17413 0.0
O322 O 0.35077 0.84355 0.15988 0.0
O323 O 0.27448 0.88329 0.24775 0.0
O324 O 0.36889 0.88722 0.14548 0.0
O325 O 0.29698 0.94033 0.21527 0.0
O326 O 0.29994 0.84413 0.22676 0.0
O327 O 0.30276 0.93913 0.07886 0.0
O328 O 0.31122 0.84328 0.06978 0.0
O329 O 0.23653 0.88099 0.15469 0.0
Sc330 Sc 0.92197 0.64285 0.88813 0.0
Sc331 Sc 0.89844 0.6982 0.80749 0.0
Sc332 Sc 0.84839 0.65028 0.86212 0.0
O333 O 0.88964 0.66389 0.85262 0.0
C334 C 0.88239 0.59065 0.8578 0.0
C335 C 0.95 0.65518 0.78269 0.0
C336 C 0.85034 0.66379 0.74731 0.0
C337 C 0.94141 0.70847 0.89622 0.0
C338 C 0.87272 0.64471 0.97082 0.0
C339 C 0.84078 0.71854 0.86004 0.0
O340 O 0.90692 0.60092 0.86821 0.0
O341 O 0.93355 0.67625 0.7721 0.0
O342 O 0.84045 0.65039 0.78448 0.0
O343 O 0.94075 0.68241 0.91046 0.0
O344 O 0.85224 0.64822 0.94041 0.0
O345 O 0.86429 0.72393 0.83779 0.0
O346 O 0.89898 0.64209 0.95765 0.0
O347 O 0.92786 0.71801 0.85896 0.0
O348 O 0.83237 0.69318 0.8701 0.0
O349 O 0.94843 0.64132 0.82304 0.0
O350 O 0.85959 0.60577 0.85553 0.0
O351 O 0.87056 0.68225 0.75009 0.0
H352 H 0.13561 0.46423 0.24463 0.0
H353 H 0.1595 0.50473 0.38071 0.0
H354 H 0.14942 0.55232 0.34528 0.0
H355 H 0.13421 0.58222 0.27549 0.0
H356 H 0.10578 0.54208 0.14161 0.0
H357 H 0.11693 0.49434 0.17616 0.0
C358 C 0.13858 0.48358 0.26622 0.0
C359 C 0.14849 0.48133 0.31481 0.0
C360 C 0.13183 0.51072 0.24609 0.0
C361 C 0.1519 0.50624 0.34313 0.0
C362 C 0.14618 0.53334 0.32292 0.0
C363 C 0.13046 0.56297 0.25396 0.0
C364 C 0.11953 0.56546 0.20604 0.0
C365 C 0.1362 0.53581 0.27446 0.0
C366 C 0.11421 0.5405 0.17865 0.0
C367 C 0.12067 0.51331 0.1983 0.0
H368 H 0.45824 0.852 0.78023 0.0
H369 H 0.4962 0.81343 0.65154 0.0
H370 H 0.54419 0.81784 0.68724 0.0
H371 H 0.57529 0.83369 0.75329 0.0
H372 H 0.53946 0.87729 0.87873 0.0
H373 H 0.49046 0.87002 0.84624 0.0
C374 C 0.47711 0.84453 0.76039 0.0
C375 C 0.47393 0.83229 0.71365 0.0
C376 C 0.5048 0.84806 0.78046 0.0
C377 C 0.49833 0.82297 0.6876 0.0
C378 C 0.5257 0.82542 0.70795 0.0
C379 C 0.55671 0.84128 0.77382 0.0
C380 C 0.56067 0.85549 0.81857 0.0
C381 C 0.52914 0.83802 0.75415 0.0
C382 C 0.53666 0.86607 0.84427 0.0
C383 C 0.50879 0.86194 0.82571 0.0
H384 H 0.89617 0.41802 0.23935 0.0
H385 H 0.81216 0.40745 0.17353 0.0
H386 H 0.79781 0.4552 0.20148 0.0
H387 H 0.8077 0.49799 0.24905 0.0
H388 H 0.88999 0.50801 0.32129 0.0
H389 H 0.9066 0.4624 0.28611 0.0
C390 C 0.87489 0.42644 0.23073 0.0
C391 C 0.85518 0.40941 0.2046 0.0
C392 C 0.86646 0.4536 0.24823 0.0
C393 C 0.82755 0.42022 0.19397 0.0
C394 C 0.81936 0.44747 0.20984 0.0
C395 C 0.82945 0.4905 0.2567 0.0
C396 C 0.84758 0.50638 0.28775 0.0
C397 C 0.83845 0.46408 0.23769 0.0
C398 C 0.87557 0.49611 0.2976 0.0
C399 C 0.88505 0.47005 0.27755 0.0
H400 H 0.42628 0.09204 0.74685 0.0
H401 H 0.41584 0.18036 0.79249 0.0
H402 H 0.46199 0.19295 0.75469 0.0
H403 H 0.50407 0.17931 0.70583 0.0
H404 H 0.5132 0.09169 0.65549 0.0
H405 H 0.46865 0.07833 0.69794 0.0
C406 C 0.43435 0.11393 0.74901 0.0
C407 C 0.41789 0.13523 0.77253 0.0
C408 C 0.46044 0.12117 0.72605 0.0
C409 C 0.42821 0.16365 0.77443 0.0
C410 C 0.45453 0.17085 0.75284 0.0
C411 C 0.49643 0.15724 0.70444 0.0
C412 C 0.51187 0.13652 0.67764 0.0
C413 C 0.47063 0.14986 0.72809 0.0
C414 C 0.50155 0.10808 0.67567 0.0
C415 C 0.47617 0.1004 0.70003 0.0
H416 H 0.12679 0.51825 0.79724 0.0
H417 H 0.17104 0.47666 0.67754 0.0
H418 H 0.16068 0.42936 0.71321 0.0
H419 H 0.13914 0.40013 0.77779 0.0
H420 H 0.09126 0.44019 0.89486 0.0
H421 H 0.10253 0.48809 0.86073 0.0
C422 C 0.13416 0.49871 0.77942 0.0
C423 C 0.14982 0.50053 0.73539 0.0
C424 C 0.12735 0.47159 0.7994 0.0
C425 C 0.159 0.47541 0.71165 0.0
C426 C 0.15309 0.4485 0.73193 0.0
C427 C 0.13126 0.41939 0.79591 0.0
C428 C 0.11481 0.41694 0.83894 0.0
C429 C 0.13731 0.44639 0.77568 0.0
C430 C 0.10405 0.44181 0.86163 0.0
C431 C 0.11058 0.46907 0.84227 0.0
H432 H 0.48337 0.79605 0.23239 0.0
H433 H 0.50855 0.88314 0.26636 0.0
H434 H 0.4644 0.90163 0.22854 0.0
H435 H 0.4171 0.89279 0.19118 0.0
H436 H 0.39047 0.80541 0.16225 0.0
H437 H 0.43664 0.78732 0.19263 0.0
C438 C 0.47935 0.81908 0.23073 0.0
C439 C 0.49909 0.83821 0.25201 0.0
C440 C 0.45352 0.8295 0.21031 0.0
C441 C 0.49352 0.868 0.25034 0.0
C442 C 0.46829 0.87858 0.2288 0.0
C443 C 0.42153 0.86982 0.19106 0.0
C444 C 0.40035 0.8505 0.17467 0.0
C445 C 0.44788 0.85949 0.20954 0.0
C446 C 0.40632 0.82076 0.17509 0.0
C447 C 0.43274 0.81037 0.19233 0.0
H448 H 0.83752 0.55529 0.87321 0.0
H449 H 0.92243 0.55891 0.80847 0.0
H450 H 0.91432 0.51242 0.76874 0.0
H451 H 0.8805 0.47418 0.7444 0.0
H452 H 0.79562 0.47127 0.81012 0.0
H453 H 0.80641 0.51405 0.8578 0.0
C454 C 0.8544 0.54559 0.85107 0.0
C455 C 0.88027 0.56044 0.84301 0.0
C456 C 0.84947 0.51926 0.8281 0.0
C457 C 0.90229 0.54768 0.81506 0.0
C458 C 0.89757 0.5213 0.79203 0.0
C459 C 0.86451 0.48281 0.7695 0.0
C460 C 0.83717 0.46997 0.77305 0.0
C461 C 0.87083 0.50745 0.79692 0.0
C462 C 0.8168 0.48091 0.80646 0.0
C463 C 0.82289 0.5054 0.8337 0.0
H464 H 0.5652 0.14693 0.11457 0.0
H465 H 0.56186 0.05964 0.16975 0.0
H466 H 0.51662 0.07035 0.21249 0.0
H467 H 0.48079 0.10602 0.24049 0.0
H468 H 0.48453 0.19315 0.18411 0.0
H469 H 0.52693 0.18095 0.13544 0.0
C470 C 0.55435 0.13014 0.13544 0.0
C471 C 0.56693 0.10267 0.13953 0.0
C472 C 0.52866 0.13651 0.16013 0.0
C473 C 0.55251 0.08096 0.166 0.0
C474 C 0.52681 0.08714 0.19078 0.0
C475 C 0.49083 0.12227 0.21734 0.0
C476 C 0.47981 0.15054 0.21646 0.0
C477 C 0.51515 0.11509 0.18919 0.0
C478 C 0.49266 0.17125 0.1856 0.0
C479 C 0.51693 0.16433 0.15781 0.0
H480 H 0.66641 0.96247 0.68287 0.0
H481 H 0.58954 0.96659 0.77243 0.0
H482 H 0.57341 0.00927 0.72717 0.0
H483 H 0.58437 0.04896 0.66941 0.0
H484 H 0.66347 0.04667 0.58615 0.0
H485 H 0.67528 -0.00059 0.62089 0.0
C486 C 0.64589 0.97237 0.69209 0.0
C487 C 0.62944 0.96157 0.73144 0.0
C488 C 0.63718 -0.00269 0.66699 0.0
C489 C 0.60285 0.97469 0.74269 0.0
C490 C 0.59358 -0.00091 0.71683 0.0
C491 C 0.60374 0.03762 0.65807 0.0
C492 C 0.62306 0.05092 0.62542 0.0
C493 C 0.61101 0.01111 0.67994 0.0
C494 C 0.6484 0.03657 0.61135 0.0
C495 C 0.65519 0.00971 0.63134 0.0
H496 H 0.05205 0.33192 0.38399 0.0
H497 H 0.05883 0.41586 0.3166 0.0
H498 H 0.01303 0.40807 0.27324 0.0
H499 H 0.97408 0.37468 0.24776 0.0
H500 H 0.96837 0.29094 0.31766 0.0
H501 H 0.01058 0.30147 0.36683 0.0
C502 C 0.04315 0.34872 0.36054 0.0
C503 C 0.05867 0.37427 0.35306 0.0
C504 C 0.01721 0.34396 0.33565 0.0
C505 C 0.04701 0.39606 0.32302 0.0
C506 C 0.02103 0.39147 0.29789 0.0
C507 C 0.98194 0.35887 0.27405 0.0
C508 C 0.96824 0.33187 0.27821 0.0
C509 C 0.00641 0.36507 0.30275 0.0
C510 C 0.97848 0.31182 0.31316 0.0
C511 C 0.00271 0.31777 0.34144 0.0
H512 H 0.34278 0.93943 0.60241 0.0
H513 H 0.42022 0.92321 0.68575 0.0
H514 H 0.41506 0.96991 0.72649 0.0
H515 H 0.38417 0.01168 0.74691 0.0
H516 H 0.30659 0.02678 0.6622 0.0
H517 H 0.31637 0.98439 0.6134 0.0
C518 C 0.35889 0.9465 0.62864 0.0
C519 C 0.38158 0.92799 0.64162 0.0
C520 C 0.3555 0.97295 0.65231 0.0
C521 C 0.40258 0.93729 0.67516 0.0
C522 C 0.39945 0.96381 0.69883 0.0
C523 C 0.36963 0.00592 0.71735 0.0
C524 C 0.34429 0.02206 0.70931 0.0
C525 C 0.37529 0.98127 0.68913 0.0
C526 C 0.32599 0.01456 0.6701 0.0
C527 C 0.33154 -0.00973 0.64194 0.0
H528 H -0.00422 0.68147 0.28126 0.0
H529 H 0.01446 0.59376 0.23971 0.0
H530 H 0.97115 0.57717 0.28237 0.0
H531 H 0.92551 0.5882 0.32444 0.0
H532 H 0.90528 0.67639 0.36047 0.0
H533 H 0.95174 0.6921 0.32763 0.0
C534 C -0.00937 0.65867 0.28223 0.0
C535 C 0.0082 0.63893 0.2571 0.0
C536 C 0.96528 0.64937 0.30563 0.0
C537 C 0.00111 0.60946 0.25839 0.0
C538 C 0.97636 0.59993 0.28279 0.0
C539 C 0.93156 0.61076 0.32591 0.0
C540 C 0.91203 0.63111 0.34464 0.0
C541 C 0.95791 0.61978 0.30551 0.0
C542 C 0.91993 0.66034 0.34586 0.0
C543 C 0.94646 0.66935 0.32706 0.0
H544 H 0.60826 0.00279 0.21107 0.0
H545 H 0.69866 -0.00454 0.24755 0.0
H546 H 0.6889 0.95203 0.2957 0.0
H547 H 0.65559 0.91353 0.32003 0.0
H548 H 0.565 0.9211 0.28596 0.0
H549 H 0.57381 0.96735 0.24469 0.0
C550 C 0.62574 -0.00817 0.23004 0.0
C551 C 0.65419 0.00203 0.22518 0.0
C552 C 0.61996 0.96693 0.25783 0.0
C553 C 0.67659 0.98799 0.25063 0.0
C554 C 0.67105 0.96308 0.27797 0.0
C555 C 0.63774 0.92555 0.30412 0.0
C556 C 0.60979 0.91391 0.30533 0.0
C557 C 0.64298 0.95198 0.28069 0.0
C558 C 0.58671 0.92975 0.2854 0.0
C559 C 0.59178 0.95604 0.26156 0.0
H560 H 0.92354 0.32543 0.66839 0.0
H561 H 0.92663 0.41586 0.7044 0.0
H562 H 0.97408 0.40923 0.74184 0.0
H563 H 0.0114 0.37651 0.77365 0.0
H564 H 0.00786 0.28599 0.73779 0.0
H565 H 0.96401 0.29404 0.69042 0.0
C566 C 0.93481 0.34376 0.68382 0.0
C567 C 0.92146 0.37093 0.68448 0.0
C568 C 0.96184 0.33976 0.70566 0.0
C569 C 0.93645 0.39465 0.70365 0.0
C570 C 0.96349 0.39086 0.72534 0.0
C571 C 0.00123 0.35862 0.75497 0.0
C572 C 0.01253 0.33063 0.7601 0.0
C573 C 0.97588 0.36331 0.72806 0.0
C574 C -0.00052 0.30775 0.73482 0.0
C575 C 0.97432 0.31227 0.70785 0.0
H576 H 0.33431 0.06337 0.33106 0.0
H577 H 0.41963 0.06182 0.26782 0.0
H578 H 0.41009 0.01429 0.23265 0.0
H579 H 0.37519 0.97614 0.21201 0.0
H580 H 0.29006 0.97835 0.27716 0.0
H581 H 0.30206 0.02244 0.3199 0.0
C582 C 0.35094 0.05238 0.31017 0.0
C583 C 0.37739 0.06606 0.30133 0.0
C584 C 0.34528 0.02532 0.29008 0.0
C585 C 0.39904 0.05157 0.27499 0.0
C586 C 0.39353 0.02454 0.25463 0.0
C587 C 0.3594 0.98605 0.23605 0.0
C588 C 0.33157 0.9742 0.24039 0.0
C589 C 0.36637 0.01163 0.26068 0.0
C590 C 0.31155 0.98709 0.27246 0.0
C591 C 0.31833 0.01241 0.29697 0.0
H592 H 0.05673 0.64798 0.64145 0.0
H593 H 0.06126 0.56222 0.70303 0.0
H594 H 0.01555 0.57009 0.74604 0.0
H595 H 0.9779 0.60374 0.77436 0.0
H596 H 0.97379 0.68948 0.71207 0.0
H597 H 0.01572 0.67916 0.66095 0.0
C598 C 0.04739 0.63082 0.66354 0.0
C599 C 0.06244 0.60473 0.66964 0.0
C600 C 0.02145 0.63565 0.6886 0.0
C601 C 0.05 0.58249 0.69773 0.0
C602 C 0.02404 0.58709 0.72272 0.0
C603 C 0.98605 0.62006 0.74925 0.0
C604 C 0.9731 0.64751 0.74768 0.0
C605 C 0.01017 0.61397 0.71983 0.0
C606 C 0.98347 0.66824 0.71423 0.0
C607 C 0.00749 0.66239 0.68505 0.0
H608 H 0.22542 0.49511 0.63063 0.0
H609 H 0.23576 0.56052 0.51932 0.0
H610 H 0.24425 0.52362 0.45729 0.0
H611 H 0.2329 0.47427 0.43215 0.0
H612 H 0.21348 0.41016 0.54228 0.0
H613 H 0.22501 0.4443 0.6073 0.0
C614 C 0.23122 0.50116 0.59332 0.0
C615 C 0.22996 0.53025 0.5792 0.0
C616 C 0.23355 0.47978 0.55731 0.0
C617 C 0.23683 0.53813 0.53074 0.0
C618 C 0.2412 0.517 0.49519 0.0
C619 C 0.23268 0.46747 0.47037 0.0
C620 C 0.2222 0.44003 0.48275 0.0
C621 C 0.23728 0.48786 0.50743 0.0
C622 C 0.22146 0.43134 0.53223 0.0
C623 C 0.22778 0.45094 0.56935 0.0
H624 H 0.42235 0.7519 0.50026 0.0
H625 H 0.47613 0.764 0.62746 0.0
H626 H 0.51936 0.75969 0.57673 0.0
H627 H 0.54016 0.76601 0.49374 0.0
H628 H 0.48645 0.7528 0.36674 0.0
H629 H 0.44484 0.7434 0.41967 0.0
C630 C 0.44357 0.75199 0.51712 0.0
C631 C 0.44622 0.75885 0.56706 0.0
C632 C 0.46828 0.75005 0.48751 0.0
C633 C 0.47367 0.75882 0.58893 0.0
C634 C 0.4984 0.75682 0.55977 0.0
C635 C 0.51958 0.75986 0.47794 0.0
C636 C 0.51601 0.76051 0.42676 0.0
C637 C 0.4958 0.75453 0.50861 0.0
C638 C 0.4895 0.7524 0.40621 0.0
C639 C 0.46568 0.74727 0.43643 0.0
H640 H 0.75403 0.43229 0.53609 0.0
H641 H 0.76155 0.49071 0.65761 0.0
H642 H 0.75868 0.53191 0.60146 0.0
H643 H 0.76721 0.54973 0.51705 0.0
H644 H 0.75934 0.49129 0.3954 0.0
H645 H 0.74872 0.45157 0.45204 0.0
C646 C 0.75326 0.45408 0.55034 0.0
C647 C 0.75805 0.45864 0.60062 0.0
C648 C 0.75248 0.47756 0.51761 0.0
C649 C 0.7575 0.48683 0.619 0.0
C650 C 0.75645 0.51036 0.58677 0.0
C651 C 0.76204 0.5285 0.50306 0.0
C652 C 0.76444 0.52313 0.45251 0.0
C653 C 0.75597 0.50584 0.53585 0.0
C654 C 0.7576 0.49575 0.43433 0.0
C655 C 0.75173 0.47303 0.46671 0.0
H656 H 0.49901 0.22149 0.34617 0.0
H657 H 0.43047 0.23699 0.44933 0.0
H658 H 0.46547 0.24113 0.51611 0.0
H659 H 0.51306 0.22566 0.54701 0.0
H660 H 0.57964 0.20245 0.44402 0.0
H661 H 0.54863 0.21645 0.37538 0.0
C662 C 0.49205 0.2275 0.38281 0.0
C663 C 0.46245 0.22911 0.39311 0.0
C664 C 0.5121 0.22749 0.42137 0.0
C665 C 0.4533 0.23612 0.44072 0.0
C666 C 0.47329 0.2379 0.47901 0.0
C667 C 0.52108 0.225 0.50957 0.0
C668 C 0.54833 0.213 0.50016 0.0
C669 C 0.50245 0.23144 0.47027 0.0
C670 C 0.5586 0.21164 0.45173 0.0
C671 C 0.54081 0.21945 0.41255 0.0
H672 H 0.72764 0.04223 0.97932 0.0
H673 H 0.73057 0.98092 0.09846 0.0
H674 H 0.73632 0.94141 0.04028 0.0
H675 H 0.72437 0.92483 0.9573 0.0
H676 H 0.71767 0.98616 0.83856 0.0
H677 H 0.73028 0.02541 0.89416 0.0
C678 C 0.73127 0.02034 0.9923 0.0
C679 C 0.72844 0.01407 0.04242 0.0
C680 C 0.73312 -0.00217 0.95855 0.0
C681 C 0.73284 0.98591 0.0597 0.0
C682 C 0.73567 0.96336 0.02643 0.0
C683 C 0.72717 0.94664 0.94343 0.0
C684 C 0.71984 0.95307 0.89472 0.0
C685 C 0.73342 0.96899 0.97591 0.0
C686 C 0.7233 0.98109 0.87628 0.0
C687 C 0.73021 0.00347 0.90811 0.0
H688 H 0.92917 0.26396 0.02937 0.0
H689 H 0.98962 0.25439 0.14842 0.0
H690 H 0.0289 0.24624 0.08983 0.0
H691 H 0.04684 0.25483 0.00568 0.0
H692 H 0.9862 0.26657 0.88744 0.0
H693 H 0.94588 0.25991 0.94425 0.0
C694 C 0.95076 0.25882 0.04224 0.0
C695 C 0.9569 0.26005 0.09252 0.0
C696 C 0.97312 0.25484 0.00841 0.0
C697 C 0.98469 0.25343 0.10955 0.0
C698 C 0.00712 0.24908 0.0761 0.0
C699 C 0.02478 0.25436 0.99227 0.0
C700 C 0.01914 0.26111 0.94298 0.0
C701 C 0.00182 0.25155 0.02549 0.0
C702 C -0.00928 0.26109 0.92544 0.0
C703 C 0.96774 0.25766 0.95797 0.0
H704 H 0.27476 0.0579 0.96179 0.0
H705 H 0.27343 -0.00393 0.84443 0.0
H706 H 0.26353 0.9572 0.90332 0.0
H707 H 0.26523 0.94037 0.98928 0.0
H708 H 0.26587 0.00223 0.10655 0.0
H709 H 0.26522 0.04188 0.04679 0.0
C710 C 0.27125 0.03603 0.94922 0.0
C711 C 0.27494 0.02951 0.8994 0.0
C712 C 0.26562 0.01395 0.98324 0.0
C713 C 0.27049 0.00132 0.88286 0.0
C714 C 0.26506 0.97915 0.91649 0.0
C715 C 0.2639 0.96257 0.00147 0.0
C716 C 0.26554 0.96867 0.05176 0.0
C717 C 0.26394 0.98508 0.96693 0.0
C718 C 0.26424 -0.0027 0.06778 0.0
C719 C 0.26425 0.01989 0.03367 0.0
H720 H 0.9338 0.73114 0.98534 0.0
H721 H -0.00501 0.72302 0.8673 0.0
H722 H 0.0349 0.72355 0.92583 0.0
H723 H 0.05002 0.71174 0.01052 0.0
H724 H 0.98851 0.71832 0.12863 0.0
H725 H 0.95085 0.73299 0.07056 0.0
C726 C 0.95599 0.73141 0.97247 0.0
C727 C 0.96169 0.7267 0.9226 0.0
C728 C 0.97856 0.73013 0.00657 0.0
C729 C 0.9903 0.72681 0.90574 0.0
C730 C 0.01306 0.7264 0.93932 0.0
C731 C 0.02856 0.71735 0.02339 0.0
C732 C 0.02152 0.7135 0.07303 0.0
C733 C 0.00716 0.72569 0.98984 0.0
C734 C -0.006 0.721 0.09017 0.0
C735 C 0.97256 0.72932 0.05706 0.0
H736 H 0.11552 0.34414 0.21273 0.0
H737 H 0.20259 0.37184 0.1818 0.0
H738 H 0.19396 0.36644 0.09377 0.0
H739 H 0.16149 0.35444 0.02569 0.0
H740 H 0.07371 0.32906 0.05676 0.0
H741 H 0.08284 0.33299 0.14477 0.0
C742 C 0.13268 0.3488 0.18674 0.0
C743 C 0.1597 0.3582 0.20372 0.0
C744 C 0.12742 0.34617 0.13627 0.0
C745 C 0.18158 0.3646 0.16959 0.0
C746 C 0.17668 0.36149 0.1193 0.0
C747 C 0.1444 0.34966 0.05175 0.0
C748 C 0.117 0.34143 0.03475 0.0
C749 C 0.14966 0.35238 0.10224 0.0
C750 C 0.09496 0.33561 0.06891 0.0
C751 C 0.10018 0.33776 0.11923 0.0
H752 H 0.32477 0.89364 0.95648 0.0
H753 H 0.32686 0.805 0.00526 0.0
H754 H 0.33446 0.78909 0.92077 0.0
H755 H 0.34235 0.80054 0.83346 0.0
H756 H 0.33798 0.88906 0.78432 0.0
H757 H 0.32929 0.90483 0.8685 0.0
C758 C 0.32686 0.87084 0.94857 0.0
C759 C 0.32556 0.85054 0.98708 0.0
C760 C 0.33084 0.86183 0.89989 0.0
C761 C 0.32778 0.82104 0.97623 0.0
C762 C 0.33223 0.81194 0.92797 0.0
C763 C 0.33942 0.82326 0.8412 0.0
C764 C 0.34102 0.8436 0.80278 0.0
C765 C 0.33408 0.83216 0.88959 0.0
C766 C 0.33677 0.87295 0.81323 0.0
C767 C 0.33192 0.88201 0.86137 0.0
H768 H 0.82142 0.62904 0.00996 0.0
H769 H 0.90716 0.65636 0.05017 0.0
H770 H 0.89399 0.65367 0.13728 0.0
H771 H 0.85826 0.6423 0.20195 0.0
H772 H 0.77392 0.61157 0.1607 0.0
H773 H 0.78626 0.61717 0.07383 0.0
C774 C 0.83722 0.63458 0.03773 0.0
C775 C 0.8652 0.643 0.02362 0.0
C776 C 0.82967 0.63247 0.08749 0.0
C777 C 0.88552 0.64969 0.0601 0.0
C778 C 0.87796 0.64826 0.10986 0.0
C779 C 0.84251 0.63722 0.17383 0.0
C780 C 0.81512 0.62683 0.1875 0.0
C781 C 0.85011 0.63958 0.12397 0.0
C782 C 0.79508 0.61968 0.15091 0.0
C783 C 0.80215 0.62282 0.10133 0.0
H784 H 0.63349 0.15286 0.95828 0.0
H785 H 0.65733 0.06483 0.92731 0.0
H786 H 0.65447 0.07472 0.83915 0.0
H787 H 0.64476 0.10828 0.77106 0.0
H788 H 0.61822 0.19551 0.8022 0.0
H789 H 0.62268 0.18605 0.89032 0.0
C790 C 0.63816 0.13587 0.93221 0.0
C791 C 0.64569 0.1082 0.9492 0.0
C792 C 0.63603 0.14158 0.88173 0.0
C793 C 0.65133 0.08628 0.91508 0.0
C794 C 0.6498 0.09194 0.86471 0.0
C795 C 0.64019 0.12528 0.79717 0.0
C796 C 0.63141 0.15261 0.78028 0.0
C797 C 0.64215 0.1195 0.84766 0.0
C798 C 0.62501 0.17429 0.81442 0.0
C799 C 0.62757 0.16891 0.86473 0.0
H800 H 0.18966 0.61735 0.86081 0.0
H801 H 0.10731 0.64527 0.80318 0.0
H802 H 0.08933 0.6526 0.88628 0.0
H803 H 0.09635 0.64979 0.97524 0.0
H804 H 0.17903 0.62377 0.03357 0.0
H805 H 0.19752 0.61703 0.95023 0.0
C806 C 0.16782 0.62514 0.86647 0.0
C807 C 0.14986 0.63065 0.82584 0.0
C808 C 0.15762 0.62954 0.91443 0.0
C809 C 0.12169 0.641 0.83376 0.0
C810 C 0.11129 0.64507 0.88129 0.0
C811 C 0.1184 0.64257 0.96971 0.0
C812 C 0.1362 0.63698 0.01043 0.0
C813 C 0.12897 0.63916 0.92185 0.0
C814 C 0.16489 0.62817 0.00274 0.0
C815 C 0.17545 0.62427 0.95514 0.0
H816 H 0.64513 0.84652 0.17415 0.0
H817 H 0.60272 0.7664 0.13951 0.0
H818 H 0.61172 0.77473 0.05196 0.0
H819 H 0.62878 0.80647 0.98524 0.0
H820 H 0.66743 0.8883 0.02061 0.0
H821 H 0.66305 0.87747 0.10824 0.0
C822 C 0.63818 0.83065 0.14754 0.0
C823 C 0.62334 0.80586 0.16322 0.0
C824 C 0.64269 0.83596 0.0975 0.0
C825 C 0.6141 0.78572 0.12825 0.0
C826 C 0.61925 0.79046 0.07827 0.0
C827 C 0.63662 0.82167 0.01225 0.0
C828 C 0.64844 0.84807 -0.00319 0.0
C829 C 0.63313 0.81572 0.06247 0.0
C830 C 0.65814 0.86788 0.03189 0.0
C831 C 0.65564 0.86171 0.08187 0.0
H832 H 0.78908 0.3558 0.87337 0.0
H833 H 0.871 0.32844 0.81389 0.0
H834 H 0.88962 0.32042 0.89658 0.0
H835 H 0.8833 0.32265 0.98639 0.0
H836 H 0.80052 0.34709 0.04571 0.0
H837 H 0.78171 0.35483 0.96288 0.0
C838 C 0.81092 0.34788 0.87853 0.0
C839 C 0.82855 0.3428 0.83743 0.0
C840 C 0.82148 0.34298 0.92629 0.0
C841 C 0.85679 0.33234 0.8448 0.0
C842 C 0.86759 0.32791 0.89214 0.0
C843 C 0.86117 0.3297 0.98104 0.0
C844 C 0.84341 0.33453 0.02202 0.0
C845 C 0.85024 0.33344 0.93321 0.0
C846 C 0.81462 0.3432 0.01467 0.0
C847 C 0.80384 0.34768 0.96733 0.0
H848 H 0.33356 0.10609 0.00014 0.0
H849 H 0.35864 0.18877 0.94108 0.0
H850 H 0.36603 0.20719 0.02408 0.0
H851 H 0.36635 0.19943 0.11365 0.0
H852 H 0.33808 0.11765 0.1726 0.0
H853 H 0.33066 0.09942 0.08977 0.0
C854 C 0.34069 0.1281 0.0056 0.0
C855 C 0.34584 0.14597 0.96473 0.0
C856 C 0.34416 0.13879 0.05343 0.0
C857 C 0.35457 0.17462 0.97211 0.0
C858 C 0.35882 0.18516 0.01951 0.0
C859 C 0.35838 0.17771 0.10831 0.0
C860 C 0.35283 0.15997 0.14926 0.0
C861 C 0.35378 0.16741 0.06048 0.0
C862 C 0.3423 0.1319 0.14175 0.0
C863 C 0.33823 0.12134 0.09435 0.0
H864 H 0.59703 0.81408 0.52323 0.0
H865 H 0.6743 0.85153 0.46171 0.0
H866 H 0.6955 0.85489 0.5436 0.0
H867 H 0.6905 0.85046 0.63273 0.0
H868 H 0.61395 0.81175 0.69459 0.0
H869 H 0.59422 0.8049 0.61225 0.0
C870 C 0.6185 0.82296 0.52795 0.0
C871 C 0.63395 0.83305 0.487 0.0
C872 C 0.63072 0.82434 0.57491 0.0
C873 C 0.66201 0.84384 0.49301 0.0
C874 C 0.67412 0.84574 0.53969 0.0
C875 C 0.6697 0.84011 0.62807 0.0
C876 C 0.65355 0.8319 0.66942 0.0
C877 C 0.65848 0.83645 0.58088 0.0
C878 C 0.62681 0.81817 0.66314 0.0
C879 C 0.6154 0.81451 0.61616 0.0
H880 H 0.84299 0.3095 0.52374 0.0
H881 H 0.82222 0.39712 0.48254 0.0
H882 H 0.82195 0.38362 0.39597 0.0
H883 H 0.8306 0.34776 0.33203 0.0
H884 H 0.85555 0.26121 0.3725 0.0
H885 H 0.85069 0.27329 0.45959 0.0
C886 C 0.83818 0.32559 0.49582 0.0
C887 C 0.83276 0.35429 0.50946 0.0
C888 C 0.83869 0.31782 0.44612 0.0
C889 C 0.82677 0.37495 0.4729 0.0
C890 C 0.82648 0.36723 0.42345 0.0
C891 C 0.83437 0.33138 0.35993 0.0
C892 C 0.84312 0.30357 0.34608 0.0
C893 C 0.83275 0.33882 0.40965 0.0
C894 C 0.84865 0.28273 0.38248 0.0
C895 C 0.84602 0.28967 0.43215 0.0
H896 H 0.3546 0.15769 0.6549 0.0
H897 H 0.26848 0.13057 0.61708 0.0
H898 H 0.28035 0.13456 0.52954 0.0
H899 H 0.31639 0.14236 0.46424 0.0
H900 H 0.40367 0.16512 0.50342 0.0
H901 H 0.39023 0.16605 0.59012 0.0
C902 C 0.33823 0.15326 0.62748 0.0
C903 C 0.3106 0.14422 0.64226 0.0
C904 C 0.3456 0.15434 0.57756 0.0
C905 C 0.28983 0.13778 0.60643 0.0
C906 C 0.29667 0.1399 0.55649 0.0
C907 C 0.33239 0.1477 0.49178 0.0
C908 C 0.361 0.15354 0.47748 0.0
C909 C 0.32467 0.14758 0.54167 0.0
C910 C 0.38158 0.16022 0.51354 0.0
C911 C 0.37389 0.16091 0.56308 0.0
H912 H 0.13372 0.67457 0.51033 0.0
H913 H 0.17235 0.59269 0.47445 0.0
H914 H 0.17184 0.60524 0.3873 0.0
H915 H 0.15596 0.63706 0.32134 0.0
H916 H 0.11248 0.7168 0.35531 0.0
H917 H 0.11964 0.70784 0.44324 0.0
C918 C 0.14239 0.6598 0.4833 0.0
C919 C 0.1529 0.63278 0.4983 0.0
C920 C 0.14106 0.66673 0.43308 0.0
C921 C 0.16389 0.61353 0.46332 0.0
C922 C 0.16366 0.62069 0.41363 0.0
C923 C 0.14862 0.6528 0.34792 0.0
C924 C 0.13381 0.67756 0.33206 0.0
C925 C 0.15166 0.64691 0.39806 0.0
C926 C 0.12392 0.69754 0.36687 0.0
C927 C 0.12793 0.69238 0.41704 0.0
H928 H 0.61647 0.15602 0.42283 0.0
H929 H 0.69491 0.11759 0.4781 0.0
H930 H 0.7138 0.11397 0.39423 0.0
H931 H 0.70546 0.11714 0.30533 0.0
H932 H 0.62696 0.1562 0.25078 0.0
H933 H 0.61086 0.16488 0.33468 0.0
C934 C 0.63778 0.14702 0.41638 0.0
C935 C 0.65413 0.13647 0.45593 0.0
C936 C 0.64844 0.14524 0.3685 0.0
C937 C 0.68197 0.12558 0.44778 0.0
C938 C 0.69269 0.12348 0.40001 0.0
C939 C 0.68502 0.12793 0.31184 0.0
C940 C 0.6672 0.13556 0.27206 0.0
C941 C 0.67576 0.13257 0.36007 0.0
C942 C 0.64104 0.15003 0.28084 0.0
C943 C 0.6317 0.1548 0.32876 0.0
H944 H 0.12166 0.28001 0.67745 0.0
H945 H 0.16558 0.35488 0.73389 0.0
H946 H 0.17218 0.37327 0.65064 0.0
H947 H 0.16141 0.3704 0.56261 0.0
H948 H 0.11945 0.29498 0.50495 0.0
H949 H 0.11605 0.27442 0.588 0.0
C950 C 0.13312 0.3001 0.67145 0.0
C951 C 0.14285 0.31615 0.71189 0.0
C952 C 0.13678 0.31064 0.62341 0.0
C953 C 0.15793 0.34201 0.7035 0.0
C954 C 0.1615 0.3527 0.65589 0.0
C955 C 0.15161 0.34941 0.56836 0.0
C956 C 0.14014 0.33438 0.52827 0.0
C957 C 0.15028 0.3376 0.61579 0.0
C958 C 0.12817 0.30694 0.5356 0.0
C959 C 0.12624 0.29524 0.58295 0.0
H960 H 0.29973 0.85666 0.48916 0.0
H961 H 0.38298 0.82236 0.44857 0.0
H962 H 0.36854 0.82142 0.36249 0.0
H963 H 0.334 0.83379 0.29827 0.0
H964 H 0.25246 0.87266 0.3365 0.0
H965 H 0.26421 0.86801 0.42397 0.0
C966 C 0.31452 0.84876 0.46139 0.0
C967 C 0.3424 0.83977 0.47499 0.0
C968 C 0.30637 0.84907 0.41163 0.0
C969 C 0.36151 0.82973 0.4388 0.0
C970 C 0.35325 0.82907 0.38963 0.0
C971 C 0.31851 0.84067 0.32575 0.0
C972 C 0.29232 0.85332 0.31106 0.0
C973 C 0.32595 0.83912 0.37556 0.0
C974 C 0.27274 0.86276 0.34704 0.0
C975 C 0.27951 0.86023 0.39697 0.0
H976 H 0.85025 0.69606 0.66314 0.0
H977 H 0.82653 0.61264 0.72144 0.0
H978 H 0.81423 0.59619 0.6393 0.0
H979 H 0.81441 0.60393 0.55028 0.0
H980 H 0.83619 0.6875 0.4911 0.0
H981 H 0.84467 0.70563 0.57423 0.0
C982 C 0.8421 0.6744 0.65783 0.0
C983 C 0.83963 0.65552 0.69825 0.0
C984 C 0.83481 0.66508 0.6104 0.0
C985 C 0.82864 0.62763 0.69099 0.0
C986 C 0.82171 0.61812 0.64398 0.0
C987 C 0.82066 0.62622 0.55573 0.0
C988 C 0.82503 0.6443 0.51488 0.0
C989 C 0.82533 0.63644 0.60338 0.0
C990 C 0.83267 0.67324 0.52217 0.0
C991 C 0.83771 0.68352 0.56961 0.0
H992 H 0.29721 0.22677 0.36572 0.0
H993 H 0.35165 0.28304 0.27938 0.0
H994 H 0.31835 0.32311 0.29357 0.0
H995 H 0.27147 0.34075 0.32424 0.0
H996 H 0.21691 0.2833 0.40807 0.0
H997 H 0.25285 0.24514 0.40155 0.0
C998 C 0.30191 0.2478 0.35005 0.0
C999 C 0.32661 0.25178 0.32085 0.0
C1000 C 0.28267 0.27054 0.35795 0.0
C1001 C 0.33264 0.27934 0.30171 0.0
C1002 C 0.31361 0.30225 0.30976 0.0
C1003 C 0.26776 0.32005 0.34187 0.0
C1004 C 0.24151 0.31472 0.36617 0.0
C1005 C 0.28825 0.29793 0.337 0.0
C1006 C 0.23685 0.28779 0.38867 0.0
C1007 C 0.25734 0.26595 0.3849 0.0
H1008 H 0.21933 0.69576 0.63584 0.0
H1009 H 0.27736 0.63382 0.7021 0.0
H1010 H 0.31661 0.669 0.69811 0.0
H1011 H 0.33327 0.71845 0.68075 0.0
H1012 H 0.27393 0.77993 0.61627 0.0
H1013 H 0.23628 0.74357 0.61473 0.0
C1014 C 0.24055 0.68981 0.64941 0.0
C1015 C 0.2453 0.66234 0.66983 0.0
C1016 C 0.26274 0.71007 0.64751 0.0
C1017 C 0.27309 0.6549 0.6864 0.0
C1018 C 0.29551 0.67501 0.68424 0.0
C1019 C 0.31219 0.7238 0.66592 0.0
C1020 C 0.30636 0.75195 0.64916 0.0
C1021 C 0.29041 0.70283 0.6656 0.0
C1022 C 0.27893 0.75853 0.62999 0.0
C1023 C 0.25736 0.73776 0.629 0.0
H1024 H 0.63303 0.69812 0.29783 0.0
H1025 H 0.66762 0.75253 0.41145 0.0
H1026 H 0.70517 0.71726 0.4291 0.0
H1027 H 0.73267 0.67529 0.40315 0.0
H1028 H 0.69977 0.62071 0.28856 0.0
H1029 H 0.65687 0.65134 0.2808 0.0
C1030 C 0.64834 0.70174 0.32728 0.0
C1031 C 0.64807 0.72799 0.35263 0.0
C1032 C 0.67041 0.6816 0.33654 0.0
C1033 C 0.66788 0.73261 0.39085 0.0
C1034 C 0.68937 0.71252 0.40094 0.0
C1035 C 0.71583 0.66986 0.3771 0.0
C1036 C 0.71948 0.64628 0.34584 0.0
C1037 C 0.69161 0.68764 0.37249 0.0
C1038 C 0.69738 0.63897 0.31286 0.0
C1039 C 0.67296 0.65654 0.30822 0.0
H1040 H 0.7607 0.29226 0.61723 0.0
H1041 H 0.70468 0.34415 0.70777 0.0
H1042 H 0.66469 0.3111 0.69228 0.0
H1043 H 0.64748 0.26471 0.66024 0.0
H1044 H 0.70474 0.21247 0.57251 0.0
H1045 H 0.74242 0.24877 0.57918 0.0
C1046 C 0.73973 0.29644 0.6335 0.0
C1047 C 0.73577 0.32022 0.66437 0.0
C1048 C 0.7171 0.27733 0.6249 0.0
C1049 C 0.7083 0.32577 0.68419 0.0
C1050 C 0.68546 0.30689 0.67541 0.0
C1051 C 0.66799 0.26162 0.64175 0.0
C1052 C 0.67354 0.2359 0.61649 0.0
C1053 C 0.68984 0.28223 0.64679 0.0
C1054 C 0.70018 0.23201 0.59274 0.0
C1055 C 0.72173 0.25268 0.59659 0.0
H1056 H 0.73174 0.79471 0.89154 0.0
H1057 H 0.77473 0.84652 0.78142 0.0
H1058 H 0.81783 0.81648 0.78879 0.0
H1059 H 0.8402 0.77155 0.81749 0.0
H1060 H 0.79591 0.71868 0.92463 0.0
H1061 H 0.75654 0.75349 0.92799 0.0
C1062 C 0.75062 0.79962 0.86945 0.0
C1063 C 0.74982 0.82231 0.83515 0.0
C1064 C 0.77503 0.78204 0.87319 0.0
C1065 C 0.7747 0.8289 0.80772 0.0
C1066 C 0.79933 0.81171 0.8118 0.0
C1067 C 0.82226 0.76797 0.84241 0.0
C1068 C 0.82063 0.74234 0.86996 0.0
C1069 C 0.79931 0.78763 0.84312 0.0
C1070 C 0.79736 0.73805 0.90234 0.0
C1071 C 0.77482 0.75788 0.90423 0.0
H1072 H 0.77972 0.12941 0.14759 0.0
H1073 H 0.72736 0.18247 0.05164 0.0
H1074 H 0.76154 0.22197 0.05991 0.0
H1075 H 0.80122 0.24379 0.10554 0.0
H1076 H 0.85256 0.19151 0.20396 0.0
H1077 H 0.82376 0.14919 0.18338 0.0
C1078 C 0.77611 0.14933 0.12743 0.0
C1079 C 0.75062 0.15328 0.10018 0.0
C1080 C 0.79528 0.17227 0.13367 0.0
C1081 C 0.74654 0.17908 0.0737 0.0
C1082 C 0.76597 0.20175 0.07862 0.0
C1083 C 0.80623 0.22306 0.12218 0.0
C1084 C 0.82836 0.22082 0.15717 0.0
C1085 C 0.78952 0.19902 0.11054 0.0
C1086 C 0.8353 0.19376 0.17738 0.0
C1087 C 0.81886 0.1696 0.16566 0.0
H1088 H 0.13791 0.20455 0.84646 0.0
H1089 H 0.19054 0.25795 0.94005 0.0
H1090 H 0.23023 0.22373 0.93325 0.0
H1091 H 0.25263 0.18431 0.88775 0.0
H1092 H 0.20084 0.13216 0.79118 0.0
H1093 H 0.15802 0.16028 0.81234 0.0
C1094 C 0.15776 0.20838 0.86647 0.0
C1095 C 0.16163 0.23423 0.89228 0.0
C1096 C 0.18084 0.18922 0.86093 0.0
C1097 C 0.18726 0.23852 0.91889 0.0
C1098 C 0.21005 0.21908 0.91481 0.0
C1099 C 0.23188 0.17895 0.87177 0.0
C1100 C 0.22991 0.15691 0.8369 0.0
C1101 C 0.20757 0.19533 0.88361 0.0
C1102 C 0.20286 0.14942 0.81758 0.0
C1103 C 0.17842 0.16547 0.82962 0.0
H1104 H 0.12876 0.78106 0.18042 0.0
H1105 H 0.17403 0.72543 0.07957 0.0
H1106 H 0.20643 0.76457 0.05735 0.0
H1107 H 0.2275 0.81077 0.07872 0.0
H1108 H 0.18488 0.86572 0.18351 0.0
H1109 H 0.14524 0.83121 0.19065 0.0
C1110 C 0.14529 0.77777 0.15277 0.0
C1111 C 0.14962 0.75025 0.1328 0.0
C1112 C 0.1644 0.80021 0.14104 0.0
C1113 C 0.17085 0.74627 0.09652 0.0
C1114 C 0.18933 0.76864 0.08363 0.0
C1115 C 0.20913 0.81552 0.10212 0.0
C1116 C 0.20935 0.84022 0.13147 0.0
C1117 C 0.18721 0.79515 0.10755 0.0
C1118 C 0.18523 0.84662 0.16082 0.0
C1119 C 0.16274 0.82675 0.16534 0.0
loop_
_geom_bond_atom_site_label_1
_geom_bond_atom_site_label_2
_geom_bond_distance
_geom_bond_site_symmetry_2
_ccdc_geom_bond_type
Sc0 O3 2.025 . S
Sc0 O10 2.105 . S
Sc0 O13 2.105 . S
Sc0 O16 2.105 . S
Sc0 O19 2.105 . S
Sc1 O3 2.025 . S
Sc1 O11 2.105 . S
Sc1 O15 2.105 . S
Sc1 O17 2.105 . S
Sc1 O21 2.105 . S
Sc2 O3 2.025 . S
Sc2 O12 2.105 . S
Sc2 O14 2.105 . S
Sc2 O18 2.105 . S
Sc2 O20 2.105 . S
O3 Sc0 2.025 . S
O3 Sc1 2.025 . S
O3 Sc2 2.025 . S
C4 O10 1.268 . S
C4 O20 1.268 . S
C5 O11 1.268 . S
C5 O19 1.268 . S
C6 O12 1.268 . S
C6 O21 1.268 . S
C7 O13 1.268 . S
C7 O17 1.268 . S
C8 O14 1.268 . S
C8 O16 1.268 . S
C9 O15 1.268 . S
C9 O18 1.268 . S
O10 Sc0 2.105 . S
O10 C4 1.268 . S
O11 Sc1 2.105 . S
O11 C5 1.268 . S
O12 Sc2 2.105 . S
O12 C6 1.268 . S
O13 Sc0 2.105 . S
O13 C7 1.268 . S
O14 Sc2 2.105 . S
O14 C8 1.268 . S
O15 Sc1 2.105 . S
O15 C9 1.268 . S
O16 Sc0 2.105 . S
O16 C8 1.268 . S
O17 Sc1 2.105 . S
O17 C7 1.268 . S
O18 Sc2 2.105 . S
O18 C9 1.268 . S
O19 Sc0 2.105 . S
O19 C5 1.268 . S
O20 Sc2 2.105 . S
O20 C4 1.268 . S
O21 Sc1 2.105 . S
O21 C6 1.268 . S
Sc22 O25 2.025 . S
Sc22 O32 2.105 . S
Sc22 O35 2.105 . S
Sc22 O38 2.105 . S
Sc22 O41 2.105 . S
Sc23 O25 2.025 . S
Sc23 O33 2.105 . S
Sc23 O37 2.105 . S
Sc23 O39 2.105 . S
Sc23 O43 2.105 . S
Sc24 O25 2.025 . S
Sc24 O34 2.105 . S
Sc24 O36 2.105 . S
Sc24 O40 2.105 . S
Sc24 O42 2.105 . S
O25 Sc22 2.025 . S
O25 Sc23 2.025 . S
O25 Sc24 2.025 . S
C26 O32 1.268 . S
C26 O42 1.268 . S
C27 O33 1.268 . S
C27 O41 1.268 . S
C28 O34 1.268 . S
C28 O43 1.268 . S
C29 O35 1.268 . S
C29 O39 1.268 . S
C30 O36 1.268 . S
C30 O38 1.268 . S
C31 O37 1.268 . S
C31 O40 1.268 . S
O32 Sc22 2.105 . S
O32 C26 1.268 . S
O33 Sc23 2.105 . S
O33 C27 1.268 . S
O34 Sc24 2.105 . S
O34 C28 1.268 . S
O35 Sc22 2.105 . S
O35 C29 1.268 . S
O36 Sc24 2.105 . S
O36 C30 1.268 . S
O37 Sc23 2.105 . S
O37 C31 1.268 . S
O38 Sc22 2.105 . S
O38 C30 1.268 . S
O39 Sc23 2.105 . S
O39 C29 1.268 . S
O40 Sc24 2.105 . S
O40 C31 1.268 . S
O41 Sc22 2.105 . S
O41 C27 1.268 . S
O42 Sc24 2.105 . S
O42 C26 1.268 . S
O43 Sc23 2.105 . S
O43 C28 1.268 . S
Sc44 O47 2.025 . S
Sc44 O54 2.105 . S
Sc44 O57 2.105 . S
Sc44 O60 2.105 . S
Sc44 O63 2.105 . S
Sc45 O47 2.025 . S
Sc45 O55 2.105 . S
Sc45 O59 2.105 . S
Sc45 O61 2.105 . S
Sc45 O65 2.105 . S
Sc46 O47 2.025 . S
Sc46 O56 2.105 . S
Sc46 O58 2.105 . S
Sc46 O62 2.105 . S
Sc46 O64 2.105 . S
O47 Sc44 2.025 . S
O47 Sc45 2.025 . S
O47 Sc46 2.025 . S
C48 O54 1.268 . S
C48 O64 1.268 . S
C49 O55 1.268 . S
C49 O63 1.268 . S
C50 O56 1.268 . S
C50 O65 1.268 . S
C51 O57 1.268 . S
C51 O61 1.268 . S
C52 O58 1.268 . S
C52 O60 1.268 . S
C53 O59 1.268 . S
C53 O62 1.268 . S
O54 Sc44 2.105 . S
O54 C48 1.268 . S
O55 Sc45 2.105 . S
O55 C49 1.268 . S
O56 Sc46 2.105 . S
O56 C50 1.268 . S
O57 Sc44 2.105 . S
O57 C51 1.268 . S
O58 Sc46 2.105 . S
O58 C52 1.268 . S
O59 Sc45 2.105 . S
O59 C53 1.268 . S
O60 Sc44 2.105 . S
O60 C52 1.268 . S
O61 Sc45 2.105 . S
O61 C51 1.268 . S
O62 Sc46 2.105 . S
O62 C53 1.268 . S
O63 Sc44 2.105 . S
O63 C49 1.268 . S
O64 Sc46 2.105 . S
O64 C48 1.268 . S
O65 Sc45 2.105 . S
O65 C50 1.268 . S
Sc66 O69 2.025 . S
Sc66 O76 2.105 . S
Sc66 O79 2.105 . S
Sc66 O82 2.105 . S
Sc66 O85 2.105 . S
Sc67 O69 2.025 . S
Sc67 O77 2.105 . S
Sc67 O81 2.105 . S
Sc67 O83 2.105 . S
Sc67 O87 2.105 . S
Sc68 O69 2.025 . S
Sc68 O78 2.105 . S
Sc68 O80 2.105 . S
Sc68 O84 2.105 . S
Sc68 O86 2.105 . S
O69 Sc66 2.025 . S
O69 Sc67 2.025 . S
O69 Sc68 2.025 . S
C70 O76 1.268 . S
C70 O86 1.268 . S
C71 O77 1.268 . S
C71 O85 1.268 . S
C72 O78 1.268 . S
C72 O87 1.268 . S
C73 O79 1.268 . S
C73 O83 1.268 . S
C74 O80 1.268 . S
C74 O82 1.268 . S
C75 O81 1.268 . S
C75 O84 1.268 . S
O76 Sc66 2.105 . S
O76 C70 1.268 . S
O77 Sc67 2.105 . S
O77 C71 1.268 . S
O78 Sc68 2.105 . S
O78 C72 1.268 . S
O79 Sc66 2.105 . S
O79 C73 1.268 . S
O80 Sc68 2.105 . S
O80 C74 1.268 . S
O81 Sc67 2.105 . S
O81 C75 1.268 . S
O82 Sc66 2.105 . S
O82 C74 1.268 . S
O83 Sc67 2.105 . S
O83 C73 1.268 . S
O84 Sc68 2.105 . S
O84 C75 1.268 . S
O85 Sc66 2.105 . S
O85 C71 1.268 . S
O86 Sc68 2.105 . S
O86 C70 1.268 . S
O87 Sc67 2.105 . S
O87 C72 1.268 . S
Sc88 O91 2.025 . S
Sc88 O98 2.105 . S
Sc88 O101 2.105 . S
Sc88 O104 2.105 . S
Sc88 O107 2.105 . S
Sc89 O91 2.025 . S
Sc89 O99 2.105 . S
Sc89 O103 2.105 . S
Sc89 O105 2.105 . S
Sc89 O109 2.105 . S
Sc90 O91 2.025 . S
Sc90 O100 2.105 . S
Sc90 O102 2.105 . S
Sc90 O106 2.105 . S
Sc90 O108 2.105 . S
O91 Sc88 2.025 . S
O91 Sc89 2.025 . S
O91 Sc90 2.025 . S
C92 O98 1.268 . S
C92 O108 1.268 . S
C93 O99 1.268 . S
C93 O107 1.268 . S
C94 O100 1.268 . S
C94 O109 1.268 . S
C95 O101 1.268 . S
C95 O105 1.268 . S
C96 O102 1.268 . S
C96 O104 1.268 . S
C97 O103 1.268 . S
C97 O106 1.268 . S
O98 Sc88 2.105 . S
O98 C92 1.268 . S
O99 Sc89 2.105 . S
O99 C93 1.268 . S
O100 Sc90 2.105 . S
O100 C94 1.268 . S
O101 Sc88 2.105 . S
O101 C95 1.268 . S
O102 Sc90 2.105 . S
O102 C96 1.268 . S
O103 Sc89 2.105 . S
O103 C97 1.268 . S
O104 Sc88 2.105 . S
O104 C96 1.268 . S
O105 Sc89 2.105 . S
O105 C95 1.268 . S
O106 Sc90 2.105 . S
O106 C97 1.268 . S
O107 Sc88 2.105 . S
O107 C93 1.268 . S
O108 Sc90 2.105 . S
O108 C92 1.268 . S
O109 Sc89 2.105 . S
O109 C94 1.268 . S
Sc110 O113 2.025 . S
Sc110 O120 2.105 . S
Sc110 O123 2.105 . S
Sc110 O126 2.105 . S
Sc110 O129 2.105 . S
Sc111 O113 2.025 . S
Sc111 O121 2.105 . S
Sc111 O125 2.105 . S
Sc111 O127 2.105 . S
Sc111 O131 2.105 . S
Sc112 O113 2.025 . S
Sc112 O122 2.105 . S
Sc112 O124 2.105 . S
Sc112 O128 2.105 . S
Sc112 O130 2.105 . S
O113 Sc110 2.025 . S
O113 Sc111 2.025 . S
O113 Sc112 2.025 . S
C114 O120 1.268 . S
C114 O130 1.268 . S
C115 O121 1.268 . S
C115 O129 1.268 . S
C116 O122 1.268 . S
C116 O131 1.268 . S
C117 O123 1.268 . S
C117 O127 1.268 . S
C118 O124 1.268 . S
C118 O126 1.268 . S
C119 O125 1.268 . S
C119 O128 1.268 . S
O120 Sc110 2.105 . S
O120 C114 1.268 . S
O121 Sc111 2.105 . S
O121 C115 1.268 . S
O122 Sc112 2.105 . S
O122 C116 1.268 . S
O123 Sc110 2.105 . S
O123 C117 1.268 . S
O124 Sc112 2.105 . S
O124 C118 1.268 . S
O125 Sc111 2.105 . S
O125 C119 1.268 . S
O126 Sc110 2.105 . S
O126 C118 1.268 . S
O127 Sc111 2.105 . S
O127 C117 1.268 . S
O128 Sc112 2.105 . S
O128 C119 1.268 . S
O129 Sc110 2.105 . S
O129 C115 1.268 . S
O130 Sc112 2.105 . S
O130 C114 1.268 . S
O131 Sc111 2.105 . S
O131 C116 1.268 . S
Sc132 O135 2.025 . S
Sc132 O142 2.105 . S
Sc132 O145 2.105 . S
Sc132 O148 2.105 . S
Sc132 O151 2.105 . S
Sc133 O135 2.025 . S
Sc133 O143 2.105 . S
Sc133 O147 2.105 . S
Sc133 O149 2.105 . S
Sc133 O153 2.105 . S
Sc134 O135 2.025 . S
Sc134 O144 2.105 . S
Sc134 O146 2.105 . S
Sc134 O150 2.105 . S
Sc134 O152 2.105 . S
O135 Sc132 2.025 . S
O135 Sc133 2.025 . S
O135 Sc134 2.025 . S
C136 O142 1.268 . S
C136 O152 1.268 . S
C137 O143 1.268 . S
C137 O151 1.268 . S
C138 O144 1.268 . S
C138 O153 1.268 . S
C139 O145 1.268 . S
C139 O149 1.268 . S
C140 O146 1.268 . S
C140 O148 1.268 . S
C141 O147 1.268 . S
C141 O150 1.268 . S
O142 Sc132 2.105 . S
O142 C136 1.268 . S
O143 Sc133 2.105 . S
O143 C137 1.268 . S
O144 Sc134 2.105 . S
O144 C138 1.268 . S
O145 Sc132 2.105 . S
O145 C139 1.268 . S
O146 Sc134 2.105 . S
O146 C140 1.268 . S
O147 Sc133 2.105 . S
O147 C141 1.268 . S
O148 Sc132 2.105 . S
O148 C140 1.268 . S
O149 Sc133 2.105 . S
O149 C139 1.268 . S
O150 Sc134 2.105 . S
O150 C141 1.268 . S
O151 Sc132 2.105 . S
O151 C137 1.268 . S
O152 Sc134 2.105 . S
O152 C136 1.268 . S
O153 Sc133 2.105 . S
O153 C138 1.268 . S
Sc154 O157 2.025 . S
Sc154 O164 2.105 . S
Sc154 O167 2.105 . S
Sc154 O170 2.105 . S
Sc154 O173 2.105 . S
Sc155 O157 2.025 . S
Sc155 O165 2.105 . S
Sc155 O169 2.105 . S
Sc155 O171 2.105 . S
Sc155 O175 2.105 . S
Sc156 O157 2.025 . S
Sc156 O166 2.105 . S
Sc156 O168 2.105 . S
Sc156 O172 2.105 . S
Sc156 O174 2.105 . S
O157 Sc154 2.025 . S
O157 Sc155 2.025 . S
O157 Sc156 2.025 . S
C158 O164 1.268 . S
C158 O174 1.268 . S
C159 O165 1.268 . S
C159 O173 1.268 . S
C160 O166 1.268 . S
C160 O175 1.268 . S
C161 O167 1.268 . S
C161 O171 1.268 . S
C162 O168 1.268 . S
C162 O170 1.268 . S
C163 O169 1.268 . S
C163 O172 1.268 . S
O164 Sc154 2.105 . S
O164 C158 1.268 . S
O165 Sc155 2.105 . S
O165 C159 1.268 . S
O166 Sc156 2.105 . S
O166 C160 1.268 . S
O167 Sc154 2.105 . S
O167 C161 1.268 . S
O168 Sc156 2.105 . S
O168 C162 1.268 . S
O169 Sc155 2.105 . S
O169 C163 1.268 . S
O170 Sc154 2.105 . S
O170 C162 1.268 . S
O171 Sc155 2.105 . S
O171 C161 1.268 . S
O172 Sc156 2.105 . S
O172 C163 1.268 . S
O173 Sc154 2.105 . S
O173 C159 1.268 . S
O174 Sc156 2.105 . S
O174 C158 1.268 . S
O175 Sc155 2.105 . S
O175 C160 1.268 . S
Sc176 O179 2.025 . S
Sc176 O186 2.105 . S
Sc176 O189 2.105 . S
Sc176 O192 2.105 . S
Sc176 O195 2.105 . S
Sc177 O179 2.025 . S
Sc177 O187 2.105 . S
Sc177 O191 2.105 . S
Sc177 O193 2.105 . S
Sc177 O197 2.105 . S
Sc178 O179 2.025 . S
Sc178 O188 2.105 . S
Sc178 O190 2.105 . S
Sc178 O194 2.105 . S
Sc178 O196 2.105 . S
O179 Sc176 2.025 . S
O179 Sc177 2.025 . S
O179 Sc178 2.025 . S
C180 O186 1.268 . S
C180 O196 1.268 . S
C181 O187 1.268 . S
C181 O195 1.268 . S
C182 O188 1.268 . S
C182 O197 1.268 . S
C183 O189 1.268 . S
C183 O193 1.268 . S
C184 O190 1.268 . S
C184 O192 1.268 . S
C185 O191 1.268 . S
C185 O194 1.268 . S
O186 Sc176 2.105 . S
O186 C180 1.268 . S
O187 Sc177 2.105 . S
O187 C181 1.268 . S
O188 Sc178 2.105 . S
O188 C182 1.268 . S
O189 Sc176 2.105 . S
O189 C183 1.268 . S
O190 Sc178 2.105 . S
O190 C184 1.268 . S
O191 Sc177 2.105 . S
O191 C185 1.268 . S
O192 Sc176 2.105 . S
O192 C184 1.268 . S
O193 Sc177 2.105 . S
O193 C183 1.268 . S
O194 Sc178 2.105 . S
O194 C185 1.268 . S
O195 Sc176 2.105 . S
O195 C181 1.268 . S
O196 Sc178 2.105 . S
O196 C180 1.268 . S
O197 Sc177 2.105 . S
O197 C182 1.268 . S
Sc198 O201 2.025 . S
Sc198 O208 2.105 . S
Sc198 O211 2.105 . S
Sc198 O214 2.105 . S
Sc198 O217 2.105 . S
Sc199 O201 2.025 . S
Sc199 O209 2.105 . S
Sc199 O213 2.105 . S
Sc199 O215 2.105 . S
Sc199 O219 2.105 . S
Sc200 O201 2.025 . S
Sc200 O210 2.105 . S
Sc200 O212 2.105 . S
Sc200 O216 2.105 . S
Sc200 O218 2.105 . S
O201 Sc198 2.025 . S
O201 Sc199 2.025 . S
O201 Sc200 2.025 . S
C202 O208 1.268 . S
C202 O218 1.268 . S
C203 O209 1.268 . S
C203 O217 1.268 . S
C204 O210 1.268 . S
C204 O219 1.268 . S
C205 O211 1.268 . S
C205 O215 1.268 . S
C206 O212 1.268 . S
C206 O214 1.268 . S
C207 O213 1.268 . S
C207 O216 1.268 . S
O208 Sc198 2.105 . S
O208 C202 1.268 . S
O209 Sc199 2.105 . S
O209 C203 1.268 . S
O210 Sc200 2.105 . S
O210 C204 1.268 . S
O211 Sc198 2.105 . S
O211 C205 1.268 . S
O212 Sc200 2.105 . S
O212 C206 1.268 . S
O213 Sc199 2.105 . S
O213 C207 1.268 . S
O214 Sc198 2.105 . S
O214 C206 1.268 . S
O215 Sc199 2.105 . S
O215 C205 1.268 . S
O216 Sc200 2.105 . S
O216 C207 1.268 . S
O217 Sc198 2.105 . S
O217 C203 1.268 . S
O218 Sc200 2.105 . S
O218 C202 1.268 . S
O219 Sc199 2.105 . S
O219 C204 1.268 . S
Sc220 O223 2.025 . S
Sc220 O230 2.105 . S
Sc220 O233 2.105 . S
Sc220 O236 2.105 . S
Sc220 O239 2.105 . S
Sc221 O223 2.025 . S
Sc221 O231 2.105 . S
Sc221 O235 2.105 . S
Sc221 O237 2.105 . S
Sc221 O241 2.105 . S
Sc222 O223 2.025 . S
Sc222 O232 2.105 . S
Sc222 O234 2.105 . S
Sc222 O238 2.105 . S
Sc222 O240 2.105 . S
O223 Sc220 2.025 . S
O223 Sc221 2.025 . S
O223 Sc222 2.025 . S
C224 O230 1.268 . S
C224 O240 1.268 . S
C225 O231 1.268 . S
C225 O239 1.268 . S
C226 O232 1.268 . S
C226 O241 1.268 . S
C227 O233 1.268 . S
C227 O237 1.268 . S
C228 O234 1.268 . S
C228 O236 1.268 . S
C229 O235 1.268 . S
C229 O238 1.268 . S
O230 Sc220 2.105 . S
O230 C224 1.268 . S
O231 Sc221 2.105 . S
O231 C225 1.268 . S
O232 Sc222 2.105 . S
O232 C226 1.268 . S
O233 Sc220 2.105 . S
O233 C227 1.268 . S
O234 Sc222 2.105 . S
O234 C228 1.268 . S
O235 Sc221 2.105 . S
O235 C229 1.268 . S
O236 Sc220 2.105 . S
O236 C228 1.268 . S
O237 Sc221 2.105 . S
O237 C227 1.268 . S
O238 Sc222 2.105 . S
O238 C229 1.268 . S
O239 Sc220 2.105 . S
O239 C225 1.268 . S
O240 Sc222 2.105 . S
O240 C224 1.268 . S
O241 Sc221 2.105 . S
O241 C226 1.268 . S
Sc242 O245 2.025 . S
Sc242 O252 2.105 . S
Sc242 O255 2.105 . S
Sc242 O258 2.105 . S
Sc242 O261 2.105 . S
Sc243 O245 2.025 . S
Sc243 O253 2.105 . S
Sc243 O257 2.105 . S
Sc243 O259 2.105 . S
Sc243 O263 2.105 . S
Sc244 O245 2.025 . S
Sc244 O254 2.105 . S
Sc244 O256 2.105 . S
Sc244 O260 2.105 . S
Sc244 O262 2.105 . S
O245 Sc242 2.025 . S
O245 Sc243 2.025 . S
O245 Sc244 2.025 . S
C246 O252 1.268 . S
C246 O262 1.268 . S
C247 O253 1.268 . S
C247 O261 1.268 . S
C248 O254 1.268 . S
C248 O263 1.268 . S
C249 O255 1.268 . S
C249 O259 1.268 . S
C250 O256 1.268 . S
C250 O258 1.268 . S
C251 O257 1.268 . S
C251 O260 1.268 . S
O252 Sc242 2.105 . S
O252 C246 1.268 . S
O253 Sc243 2.105 . S
O253 C247 1.268 . S
O254 Sc244 2.105 . S
O254 C248 1.268 . S
O255 Sc242 2.105 . S
O255 C249 1.268 . S
O256 Sc244 2.105 . S
O256 C250 1.268 . S
O257 Sc243 2.105 . S
O257 C251 1.268 . S
O258 Sc242 2.105 . S
O258 C250 1.268 . S
O259 Sc243 2.105 . S
O259 C249 1.268 . S
O260 Sc244 2.105 . S
O260 C251 1.268 . S
O261 Sc242 2.105 . S
O261 C247 1.268 . S
O262 Sc244 2.105 . S
O262 C246 1.268 . S
O263 Sc243 2.105 . S
O263 C248 1.268 . S
Sc264 O267 2.025 . S
Sc264 O274 2.105 . S
Sc264 O277 2.105 . S
Sc264 O280 2.105 . S
Sc264 O283 2.105 . S
Sc265 O267 2.025 . S
Sc265 O275 2.105 . S
Sc265 O279 2.105 . S
Sc265 O281 2.105 . S
Sc265 O285 2.105 . S
Sc266 O267 2.025 . S
Sc266 O276 2.105 . S
Sc266 O278 2.105 . S
Sc266 O282 2.105 . S
Sc266 O284 2.105 . S
O267 Sc264 2.025 . S
O267 Sc265 2.025 . S
O267 Sc266 2.025 . S
C268 O274 1.268 . S
C268 O284 1.268 . S
C269 O275 1.268 . S
C269 O283 1.268 . S
C270 O276 1.268 . S
C270 O285 1.268 . S
C271 O277 1.268 . S
C271 O281 1.268 . S
C272 O278 1.268 . S
C272 O280 1.268 . S
C273 O279 1.268 . S
C273 O282 1.268 . S
O274 Sc264 2.105 . S
O274 C268 1.268 . S
O275 Sc265 2.105 . S
O275 C269 1.268 . S
O276 Sc266 2.105 . S
O276 C270 1.268 . S
O277 Sc264 2.105 . S
O277 C271 1.268 . S
O278 Sc266 2.105 . S
O278 C272 1.268 . S
O279 Sc265 2.105 . S
O279 C273 1.268 . S
O280 Sc264 2.105 . S
O280 C272 1.268 . S
O281 Sc265 2.105 . S
O281 C271 1.268 . S
O282 Sc266 2.105 . S
O282 C273 1.268 . S
O283 Sc264 2.105 . S
O283 C269 1.268 . S
O284 Sc266 2.105 . S
O284 C268 1.268 . S
O285 Sc265 2.105 . S
O285 C270 1.268 . S
Sc286 O289 2.025 . S
Sc286 O296 2.105 . S
Sc286 O299 2.105 . S
Sc286 O302 2.105 . S
Sc286 O305 2.105 . S
Sc287 O289 2.025 . S
Sc287 O297 2.105 . S
Sc287 O301 2.105 . S
Sc287 O303 2.105 . S
Sc287 O307 2.105 . S
Sc288 O289 2.025 . S
Sc288 O298 2.105 . S
Sc288 O300 2.105 . S
Sc288 O304 2.105 . S
Sc288 O306 2.105 . S
O289 Sc286 2.025 . S
O289 Sc287 2.025 . S
O289 Sc288 2.025 . S
C290 O296 1.268 . S
C290 O306 1.268 . S
C291 O297 1.268 . S
C291 O305 1.268 . S
C292 O298 1.268 . S
C292 O307 1.268 . S
C293 O299 1.268 . S
C293 O303 1.268 . S
C294 O300 1.268 . S
C294 O302 1.268 . S
C295 O301 1.268 . S
C295 O304 1.268 . S
O296 Sc286 2.105 . S
O296 C290 1.268 . S
O297 Sc287 2.105 . S
O297 C291 1.268 . S
O298 Sc288 2.105 . S
O298 C292 1.268 . S
O299 Sc286 2.105 . S
O299 C293 1.268 . S
O300 Sc288 2.105 . S
O300 C294 1.268 . S
O301 Sc287 2.105 . S
O301 C295 1.268 . S
O302 Sc286 2.105 . S
O302 C294 1.268 . S
O303 Sc287 2.105 . S
O303 C293 1.268 . S
O304 Sc288 2.105 . S
O304 C295 1.268 . S
O305 Sc286 2.105 . S
O305 C291 1.268 . S
O306 Sc288 2.105 . S
O306 C290 1.268 . S
O307 Sc287 2.105 . S
O307 C292 1.268 . S
Sc308 O311 2.025 . S
Sc308 O318 2.105 . S
Sc308 O321 2.105 . S
Sc308 O324 2.105 . S
Sc308 O327 2.105 . S
Sc309 O311 2.025 . S
Sc309 O319 2.105 . S
Sc309 O323 2.105 . S
Sc309 O325 2.105 . S
Sc309 O329 2.105 . S
Sc310 O311 2.025 . S
Sc310 O320 2.105 . S
Sc310 O322 2.105 . S
Sc310 O326 2.105 . S
Sc310 O328 2.105 . S
O311 Sc308 2.025 . S
O311 Sc309 2.025 . S
O311 Sc310 2.025 . S
C312 O318 1.268 . S
C312 O328 1.268 . S
C313 O319 1.268 . S
C313 O327 1.268 . S
C314 O320 1.268 . S
C314 O329 1.268 . S
C315 O321 1.268 . S
C315 O325 1.268 . S
C316 O322 1.268 . S
C316 O324 1.268 . S
C317 O323 1.268 . S
C317 O326 1.268 . S
O318 Sc308 2.105 . S
O318 C312 1.268 . S
O319 Sc309 2.105 . S
O319 C313 1.268 . S
O320 Sc310 2.105 . S
O320 C314 1.268 . S
O321 Sc308 2.105 . S
O321 C315 1.268 . S
O322 Sc310 2.105 . S
O322 C316 1.268 . S
O323 Sc309 2.105 . S
O323 C317 1.268 . S
O324 Sc308 2.105 . S
O324 C316 1.268 . S
O325 Sc309 2.105 . S
O325 C315 1.268 . S
O326 Sc310 2.105 . S
O326 C317 1.268 . S
O327 Sc308 2.105 . S
O327 C313 1.268 . S
O328 Sc310 2.105 . S
O328 C312 1.268 . S
O329 Sc309 2.105 . S
O329 C314 1.268 . S
Sc330 O333 2.025 . S
Sc330 O340 2.105 . S
Sc330 O343 2.105 . S
Sc330 O346 2.105 . S
Sc330 O349 2.105 . S
Sc331 O333 2.025 . S
Sc331 O341 2.105 . S
Sc331 O345 2.105 . S
Sc331 O347 2.105 . S
Sc331 O351 2.105 . S
Sc332 O333 2.025 . S
Sc332 O342 2.105 . S
Sc332 O344 2.105 . S
Sc332 O348 2.105 . S
Sc332 O350 2.105 . S
O333 Sc330 2.025 . S
O333 Sc331 2.025 . S
O333 Sc332 2.025 . S
C334 O340 1.268 . S
C334 O350 1.268 . S
C335 O341 1.268 . S
C335 O349 1.268 . S
C336 O342 1.268 . S
C336 O351 1.268 . S
C337 O343 1.268 . S
C337 O347 1.268 . S
C338 O344 1.268 . S
C338 O346 1.268 . S
C339 O345 1.268 . S
C339 O348 1.268 . S
O340 Sc330 2.105 . S
O340 C334 1.268 . S
O341 Sc331 2.105 . S
O341 C335 1.268 . S
O342 Sc332 2.105 . S
O342 C336 1.268 . S
O343 Sc330 2.105 . S
O343 C337 1.268 . S
O344 Sc332 2.105 . S
O344 C338 1.268 . S
O345 Sc331 2.105 . S
O345 C339 1.268 . S
O346 Sc330 2.105 . S
O346 C338 1.268 . S
O347 Sc331 2.105 . S
O347 C337 1.268 . S
O348 Sc332 2.105 . S
O348 C339 1.268 . S
O349 Sc330 2.105 . S
O349 C335 1.268 . S
O350 Sc332 2.105 . S
O350 C334 1.268 . S
O351 Sc331 2.105 . S
O351 C336 1.268 . S
H352 C358 0.930 . S
H353 C361 0.930 . S
H354 C362 0.930 . S
H355 C363 0.930 . S
H356 C366 0.930 . S
H357 C367 0.930 . S
C358 H352 0.930 . S
C358 C359 1.355 . S
C358 C360 1.415 . S
C359 C358 1.355 . S
C359 C361 1.419 . S
C360 C358 1.415 . S
C360 C365 1.425 . S
C360 C367 1.409 . S
C361 H353 0.930 . S
C361 C359 1.419 . S
C361 C362 1.362 . S
C362 H354 0.930 . S
C362 C361 1.362 . S
C362 C365 1.409 . S
C363 H355 0.930 . S
C363 C364 1.355 . S
C363 C365 1.415 . S
C364 C363 1.355 . S
C364 C366 1.419 . S
C365 C360 1.425 . S
C365 C362 1.409 . S
C365 C363 1.415 . S
C366 H356 0.930 . S
C366 C364 1.419 . S
C366 C367 1.362 . S
C367 H357 0.930 . S
C367 C360 1.409 . S
C367 C366 1.362 . S
H368 C374 0.930 . S
H369 C377 0.930 . S
H370 C378 0.930 . S
H371 C379 0.930 . S
H372 C382 0.930 . S
H373 C383 0.930 . S
C374 H368 0.930 . S
C374 C375 1.355 . S
C374 C376 1.415 . S
C375 C374 1.355 . S
C375 C377 1.419 . S
C376 C374 1.415 . S
C376 C381 1.425 . S
C376 C383 1.409 . S
C377 H369 0.930 . S
C377 C375 1.419 . S
C377 C378 1.362 . S
C378 H370 0.930 . S
C378 C377 1.362 . S
C378 C381 1.409 . S
C379 H371 0.930 . S
C379 C380 1.355 . S
C379 C381 1.415 . S
C380 C379 1.355 . S
C380 C382 1.419 . S
C381 C376 1.425 . S
C381 C378 1.409 . S
C381 C379 1.415 . S
C382 H372 0.930 . S
C382 C380 1.419 . S
C382 C383 1.362 . S
C383 H373 0.930 . S
C383 C376 1.409 . S
C383 C382 1.362 . S
H384 C390 0.930 . S
H385 C393 0.930 . S
H386 C394 0.930 . S
H387 C395 0.930 . S
H388 C398 0.930 . S
H389 C399 0.930 . S
C390 H384 0.930 . S
C390 C391 1.355 . S
C390 C392 1.415 . S
C391 C390 1.355 . S
C391 C393 1.419 . S
C392 C390 1.415 . S
C392 C397 1.425 . S
C392 C399 1.409 . S
C393 H385 0.930 . S
C393 C391 1.419 . S
C393 C394 1.362 . S
C394 H386 0.930 . S
C394 C393 1.362 . S
C394 C397 1.409 . S
C395 H387 0.930 . S
C395 C396 1.355 . S
C395 C397 1.415 . S
C396 C395 1.355 . S
C396 C398 1.419 . S
C397 C392 1.425 . S
C397 C394 1.409 . S
C397 C395 1.415 . S
C398 H388 0.930 . S
C398 C396 1.419 . S
C398 C399 1.362 . S
C399 H389 0.930 . S
C399 C392 1.409 . S
C399 C398 1.362 . S
H400 C406 0.930 . S
H401 C409 0.930 . S
H402 C410 0.930 . S
H403 C411 0.930 . S
H404 C414 0.930 . S
H405 C415 0.930 . S
C406 H400 0.930 . S
C406 C407 1.355 . S
C406 C408 1.415 . S
C407 C406 1.355 . S
C407 C409 1.419 . S
C408 C406 1.415 . S
C408 C413 1.425 . S
C408 C415 1.409 . S
C409 H401 0.930 . S
C409 C407 1.419 . S
C409 C410 1.362 . S
C410 H402 0.930 . S
C410 C409 1.362 . S
C410 C413 1.409 . S
C411 H403 0.930 . S
C411 C412 1.355 . S
C411 C413 1.415 . S
C412 C411 1.355 . S
C412 C414 1.419 . S
C413 C408 1.425 . S
C413 C410 1.409 . S
C413 C411 1.415 . S
C414 H404 0.930 . S
C414 C412 1.419 . S
C414 C415 1.362 . S
C415 H405 0.930 . S
C415 C408 1.409 . S
C415 C414 1.362 . S
H416 C422 0.930 . S
H417 C425 0.930 . S
H418 C426 0.930 . S
H419 C427 0.930 . S
H420 C430 0.930 . S
H421 C431 0.930 . S
C422 H416 0.930 . S
C422 C423 1.355 . S
C422 C424 1.415 . S
C423 C422 1.355 . S
C423 C425 1.419 . S
C424 C422 1.415 . S
C424 C429 1.425 . S
C424 C431 1.409 . S
C425 H417 0.930 . S
C425 C423 1.419 . S
C425 C426 1.362 . S
C426 H418 0.930 . S
C426 C425 1.362 . S
C426 C429 1.409 . S
C427 H419 0.930 . S
C427 C428 1.355 . S
C427 C429 1.415 . S
C428 C427 1.355 . S
C428 C430 1.419 . S
C429 C424 1.425 . S
C429 C426 1.409 . S
C429 C427 1.415 . S
C430 H420 0.930 . S
C430 C428 1.419 . S
C430 C431 1.362 . S
C431 H421 0.930 . S
C431 C424 1.409 . S
C431 C430 1.362 . S
H432 C438 0.930 . S
H433 C441 0.930 . S
H434 C442 0.930 . S
H435 C443 0.930 . S
H436 C446 0.930 . S
H437 C447 0.930 . S
C438 H432 0.930 . S
C438 C439 1.355 . S
C438 C440 1.415 . S
C439 C438 1.355 . S
C439 C441 1.419 . S
C440 C438 1.415 . S
C440 C445 1.425 . S
C440 C447 1.409 . S
C441 H433 0.930 . S
C441 C439 1.419 . S
C441 C442 1.362 . S
C442 H434 0.930 . S
C442 C441 1.362 . S
C442 C445 1.409 . S
C443 H435 0.930 . S
C443 C444 1.355 . S
C443 C445 1.415 . S
C444 C443 1.355 . S
C444 C446 1.419 . S
C445 C440 1.425 . S
C445 C442 1.409 . S
C445 C443 1.415 . S
C446 H436 0.930 . S
C446 C444 1.419 . S
C446 C447 1.362 . S
C447 H437 0.930 . S
C447 C440 1.409 . S
C447 C446 1.362 . S
H448 C454 0.930 . S
H449 C457 0.930 . S
H450 C458 0.930 . S
H451 C459 0.930 . S
H452 C462 0.930 . S
H453 C463 0.930 . S
C454 H448 0.930 . S
C454 C455 1.355 . S
C454 C456 1.415 . S
C455 C454 1.355 . S
C455 C457 1.419 . S
C456 C454 1.415 . S
C456 C461 1.425 . S
C456 C463 1.409 . S
C457 H449 0.930 . S
C457 C455 1.419 . S
C457 C458 1.362 . S
C458 H450 0.930 . S
C458 C457 1.362 . S
C458 C461 1.409 . S
C459 H451 0.930 . S
C459 C460 1.355 . S
C459 C461 1.415 . S
C460 C459 1.355 . S
C460 C462 1.419 . S
C461 C456 1.425 . S
C461 C458 1.409 . S
C461 C459 1.415 . S
C462 H452 0.930 . S
C462 C460 1.419 . S
C462 C463 1.362 . S
C463 H453 0.930 . S
C463 C456 1.409 . S
C463 C462 1.362 . S
H464 C470 0.930 . S
H465 C473 0.930 . S
H466 C474 0.930 . S
H467 C475 0.930 . S
H468 C478 0.930 . S
H469 C479 0.930 . S
C470 H464 0.930 . S
C470 C471 1.355 . S
C470 C472 1.415 . S
C471 C470 1.355 . S
C471 C473 1.419 . S
C472 C470 1.415 . S
C472 C477 1.425 . S
C472 C479 1.409 . S
C473 H465 0.930 . S
C473 C471 1.419 . S
C473 C474 1.362 . S
C474 H466 0.930 . S
C474 C473 1.362 . S
C474 C477 1.409 . S
C475 H467 0.930 . S
C475 C476 1.355 . S
C475 C477 1.415 . S
C476 C475 1.355 . S
C476 C478 1.419 . S
C477 C472 1.425 . S
C477 C474 1.409 . S
C477 C475 1.415 . S
C478 H468 0.930 . S
C478 C476 1.419 . S
C478 C479 1.362 . S
C479 H469 0.930 . S
C479 C472 1.409 . S
C479 C478 1.362 . S
H480 C486 0.930 . S
H481 C489 0.930 . S
H482 C490 0.930 . S
H483 C491 0.930 . S
H484 C494 0.930 . S
H485 C495 0.930 . S
C486 H480 0.930 . S
C486 C487 1.355 . S
C486 C488 1.415 1_565 S
C487 C486 1.355 . S
C487 C489 1.419 1_565 S
C488 C486 1.415 1_545 S
C488 C493 1.425 . S
C488 C495 1.409 . S
C489 H481 0.930 . S
C489 C487 1.419 1_545 S
C489 C490 1.362 . S
C490 H482 0.930 . S
C490 C489 1.362 . S
C490 C493 1.409 . S
C491 H483 0.930 . S
C491 C492 1.355 . S
C491 C493 1.415 . S
C492 C491 1.355 . S
C492 C494 1.419 . S
C493 C488 1.425 . S
C493 C490 1.409 . S
C493 C491 1.415 . S
C494 H484 0.930 . S
C494 C492 1.419 . S
C494 C495 1.362 . S
C495 H485 0.930 . S
C495 C488 1.409 . S
C495 C494 1.362 . S
H496 C502 0.930 . S
H497 C505 0.930 . S
H498 C506 0.930 . S
H499 C507 0.930 . S
H500 C510 0.930 . S
H501 C511 0.930 . S
C502 H496 0.930 . S
C502 C503 1.355 . S
C502 C504 1.415 . S
C503 C502 1.355 . S
C503 C505 1.419 . S
C504 C502 1.415 . S
C504 C509 1.425 . S
C504 C511 1.409 . S
C505 H497 0.930 . S
C505 C503 1.419 . S
C505 C506 1.362 . S
C506 H498 0.930 . S
C506 C505 1.362 . S
C506 C509 1.409 . S
C507 H499 0.930 . S
C507 C508 1.355 . S
C507 C509 1.415 1_655 S
C508 C507 1.355 . S
C508 C510 1.419 1_655 S
C509 C504 1.425 . S
C509 C506 1.409 . S
C509 C507 1.415 1_455 S
C510 H500 0.930 . S
C510 C508 1.419 1_455 S
C510 C511 1.362 . S
C511 H501 0.930 . S
C511 C504 1.409 . S
C511 C510 1.362 . S
H512 C518 0.930 . S
H513 C521 0.930 . S
H514 C522 0.930 . S
H515 C523 0.953 . S
H516 C526 0.932 . S
H517 C527 0.930 . S
C518 H512 0.930 . S
C518 C519 1.355 . S
C518 C520 1.415 . S
C519 C518 1.355 . S
C519 C521 1.419 . S
C520 C518 1.415 . S
C520 C525 1.425 . S
C520 C527 1.409 . S
C521 H513 0.930 . S
C521 C519 1.419 . S
C521 C522 1.362 . S
C522 H514 0.930 . S
C522 C521 1.362 . S
C522 C525 1.409 . S
C523 H515 0.953 . S
C523 C524 1.368 . S
C523 C525 1.379 1_545 S
C524 C523 1.368 . S
C524 C526 1.419 1_545 S
C525 C520 1.425 . S
C525 C522 1.409 . S
C525 C523 1.379 1_565 S
C526 H516 0.932 . S
C526 C524 1.419 1_565 S
C526 C527 1.362 . S
C527 H517 0.930 . S
C527 C520 1.409 . S
C527 C526 1.362 . S
H528 C534 0.930 1_455 S
H529 C537 0.930 . S
H530 C538 0.930 . S
H531 C539 0.930 . S
H532 C542 0.930 . S
H533 C543 0.930 . S
C534 H528 0.930 1_655 S
C534 C535 1.355 1_655 S
C534 C536 1.415 . S
C535 C534 1.355 1_455 S
C535 C537 1.419 . S
C536 C534 1.415 . S
C536 C541 1.425 . S
C536 C543 1.409 . S
C537 H529 0.930 . S
C537 C535 1.419 . S
C537 C538 1.362 1_455 S
C538 H530 0.930 . S
C538 C537 1.362 1_655 S
C538 C541 1.409 . S
C539 H531 0.930 . S
C539 C540 1.355 . S
C539 C541 1.415 . S
C540 C539 1.355 . S
C540 C542 1.419 . S
C541 C536 1.425 . S
C541 C538 1.409 . S
C541 C539 1.415 . S
C542 H532 0.930 . S
C542 C540 1.419 . S
C542 C543 1.362 . S
C543 H533 0.930 . S
C543 C536 1.409 . S
C543 C542 1.362 . S
H544 C550 0.921 1_545 S
H545 C553 0.930 1_545 S
H546 C554 0.930 . S
H547 C555 0.930 . S
H548 C558 0.930 . S
H549 C559 0.930 . S
C550 H544 0.921 1_565 S
C550 C551 1.348 1_565 S
C550 C552 1.429 . S
C551 C550 1.348 1_545 S
C551 C553 1.419 1_545 S
C552 C550 1.429 . S
C552 C557 1.425 . S
C552 C559 1.409 . S
C553 H545 0.930 1_565 S
C553 C551 1.419 1_565 S
C553 C554 1.362 . S
C554 H546 0.930 . S
C554 C553 1.362 . S
C554 C557 1.409 . S
C555 H547 0.930 . S
C555 C556 1.355 . S
C555 C557 1.415 . S
C556 C555 1.355 . S
C556 C558 1.419 . S
C557 C552 1.425 . S
C557 C554 1.409 . S
C557 C555 1.415 . S
C558 H548 0.930 . S
C558 C556 1.419 . S
C558 C559 1.362 . S
C559 H549 0.930 . S
C559 C552 1.409 . S
C559 C558 1.362 . S
H560 C566 0.930 . S
H561 C569 0.930 . S
H562 C570 0.930 . S
H563 C571 0.930 . S
H564 C574 0.930 . S
H565 C575 0.930 . S
C566 H560 0.930 . S
C566 C567 1.355 . S
C566 C568 1.415 . S
C567 C566 1.355 . S
C567 C569 1.419 . S
C568 C566 1.415 . S
C568 C573 1.425 . S
C568 C575 1.409 . S
C569 H561 0.930 . S
C569 C567 1.419 . S
C569 C570 1.362 . S
C570 H562 0.930 . S
C570 C569 1.362 . S
C570 C573 1.409 . S
C571 H563 0.930 . S
C571 C572 1.355 . S
C571 C573 1.415 1_455 S
C572 C571 1.355 . S
C572 C574 1.419 1_455 S
C573 C568 1.425 . S
C573 C570 1.409 . S
C573 C571 1.415 1_655 S
C574 H564 0.930 . S
C574 C572 1.419 1_655 S
C574 C575 1.362 . S
C575 H565 0.930 . S
C575 C568 1.409 . S
C575 C574 1.362 . S
H576 C582 0.930 . S
H577 C585 0.930 . S
H578 C586 0.930 . S
H579 C587 0.930 1_565 S
H580 C590 0.914 1_565 S
H581 C591 0.930 . S
C582 H576 0.930 . S
C582 C583 1.355 . S
C582 C584 1.415 . S
C583 C582 1.355 . S
C583 C585 1.419 . S
C584 C582 1.415 . S
C584 C589 1.425 . S
C584 C591 1.409 . S
C585 H577 0.930 . S
C585 C583 1.419 . S
C585 C586 1.362 . S
C586 H578 0.930 . S
C586 C585 1.362 . S
C586 C589 1.409 . S
C587 H579 0.930 1_545 S
C587 C588 1.355 1_545 S
C587 C589 1.415 . S
C588 C587 1.355 1_565 S
C588 C590 1.407 1_565 S
C589 C584 1.425 . S
C589 C586 1.409 . S
C589 C587 1.415 . S
C590 H580 0.914 1_545 S
C590 C588 1.407 1_545 S
C590 C591 1.391 . S
C591 H581 0.930 . S
C591 C584 1.409 . S
C591 C590 1.391 . S
H592 C598 0.930 . S
H593 C601 0.930 . S
H594 C602 0.930 . S
H595 C603 0.930 1_655 S
H596 C606 0.930 . S
H597 C607 0.930 . S
C598 H592 0.930 . S
C598 C599 1.355 . S
C598 C600 1.415 . S
C599 C598 1.355 . S
C599 C601 1.419 . S
C600 C598 1.415 . S
C600 C605 1.425 . S
C600 C607 1.409 . S
C601 H593 0.930 . S
C601 C599 1.419 . S
C601 C602 1.362 . S
C602 H594 0.930 . S
C602 C601 1.362 . S
C602 C605 1.409 . S
C603 H595 0.930 1_455 S
C603 C604 1.355 1_455 S
C603 C605 1.415 . S
C604 C603 1.355 1_655 S
C604 C606 1.419 . S
C605 C600 1.425 . S
C605 C602 1.409 . S
C605 C603 1.415 . S
C606 H596 0.930 . S
C606 C604 1.419 . S
C606 C607 1.362 1_655 S
C607 H597 0.930 . S
C607 C600 1.409 . S
C607 C606 1.362 1_455 S
H608 C614 0.930 . S
H609 C617 0.930 . S
H610 C618 0.930 . S
H611 C619 0.930 . S
H612 C622 0.930 . S
H613 C623 0.930 . S
C614 H608 0.930 . S
C614 C615 1.355 . S
C614 C616 1.415 . S
C615 C614 1.355 . S
C615 C617 1.419 . S
C616 C614 1.415 . S
C616 C621 1.425 . S
C616 C623 1.409 . S
C617 H609 0.930 . S
C617 C615 1.419 . S
C617 C618 1.362 . S
C618 H610 0.930 . S
C618 C617 1.362 . S
C618 C621 1.409 . S
C619 H611 0.930 . S
C619 C620 1.355 . S
C619 C621 1.415 . S
C620 C619 1.355 . S
C620 C622 1.419 . S
C621 C616 1.425 . S
C621 C618 1.409 . S
C621 C619 1.415 . S
C622 H612 0.930 . S
C622 C620 1.419 . S
C622 C623 1.362 . S
C623 H613 0.930 . S
C623 C616 1.409 . S
C623 C622 1.362 . S
H624 C630 0.930 . S
H625 C633 0.930 . S
H626 C634 0.930 . S
H627 C635 0.930 . S
H628 C638 0.930 . S
H629 C639 0.930 . S
C630 H624 0.930 . S
C630 C631 1.355 . S
C630 C632 1.415 . S
C631 C630 1.355 . S
C631 C633 1.419 . S
C632 C630 1.415 . S
C632 C637 1.425 . S
C632 C639 1.409 . S
C633 H625 0.930 . S
C633 C631 1.419 . S
C633 C634 1.362 . S
C634 H626 0.930 . S
C634 C633 1.362 . S
C634 C637 1.409 . S
C635 H627 0.930 . S
C635 C636 1.355 . S
C635 C637 1.415 . S
C636 C635 1.355 . S
C636 C638 1.419 . S
C637 C632 1.425 . S
C637 C634 1.409 . S
C637 C635 1.415 . S
C638 H628 0.930 . S
C638 C636 1.419 . S
C638 C639 1.362 . S
C639 H629 0.930 . S
C639 C632 1.409 . S
C639 C638 1.362 . S
H640 C646 0.930 . S
H641 C649 0.930 . S
H642 C650 0.930 . S
H643 C651 0.930 . S
H644 C654 0.930 . S
H645 C655 0.930 . S
C646 H640 0.930 . S
C646 C647 1.355 . S
C646 C648 1.415 . S
C647 C646 1.355 . S
C647 C649 1.419 . S
C648 C646 1.415 . S
C648 C653 1.425 . S
C648 C655 1.409 . S
C649 H641 0.930 . S
C649 C647 1.419 . S
C649 C650 1.362 . S
C650 H642 0.930 . S
C650 C649 1.362 . S
C650 C653 1.409 . S
C651 H643 0.930 . S
C651 C652 1.355 . S
C651 C653 1.415 . S
C652 C651 1.355 . S
C652 C654 1.419 . S
C653 C648 1.425 . S
C653 C650 1.409 . S
C653 C651 1.415 . S
C654 H644 0.930 . S
C654 C652 1.419 . S
C654 C655 1.362 . S
C655 H645 0.930 . S
C655 C648 1.409 . S
C655 C654 1.362 . S
H656 C662 0.930 . S
H657 C665 0.930 . S
H658 C666 0.930 . S
H659 C667 0.930 . S
H660 C670 0.930 . S
H661 C671 0.930 . S
C662 H656 0.930 . S
C662 C663 1.355 . S
C662 C664 1.415 . S
C663 C662 1.355 . S
C663 C665 1.419 . S
C664 C662 1.415 . S
C664 C669 1.425 . S
C664 C671 1.409 . S
C665 H657 0.930 . S
C665 C663 1.419 . S
C665 C666 1.362 . S
C666 H658 0.930 . S
C666 C665 1.362 . S
C666 C669 1.409 . S
C667 H659 0.930 . S
C667 C668 1.355 . S
C667 C669 1.415 . S
C668 C667 1.355 . S
C668 C670 1.419 . S
C669 C664 1.425 . S
C669 C666 1.409 . S
C669 C667 1.415 . S
C670 H660 0.930 . S
C670 C668 1.419 . S
C670 C671 1.362 . S
C671 H661 0.930 . S
C671 C664 1.409 . S
C671 C670 1.362 . S
H672 C678 0.930 . S
H673 C681 0.930 . S
H674 C682 0.930 . S
H675 C683 0.930 . S
H676 C686 0.930 . S
H677 C687 0.930 . S
C678 H672 0.930 . S
C678 C679 1.355 . S
C678 C680 1.415 1_554 S
C679 C678 1.355 . S
C679 C681 1.419 . S
C680 C678 1.415 1_556 S
C680 C685 1.425 1_546 S
C680 C687 1.409 . S
C681 H673 0.930 . S
C681 C679 1.419 . S
C681 C682 1.362 1_545 S
C682 H674 0.930 . S
C682 C681 1.362 1_565 S
C682 C685 1.409 . S
C683 H675 0.930 . S
C683 C684 1.355 . S
C683 C685 1.415 1_556 S
C684 C683 1.355 . S
C684 C686 1.419 . S
C685 C680 1.425 1_564 S
C685 C682 1.409 . S
C685 C683 1.415 1_554 S
C686 H676 0.930 . S
C686 C684 1.419 . S
C686 C687 1.362 1_565 S
C687 H677 0.930 . S
C687 C680 1.409 . S
C687 C686 1.362 1_545 S
H688 C694 0.930 . S
H689 C697 0.930 . S
H690 C698 0.930 . S
H691 C699 0.930 . S
H692 C702 0.930 . S
H693 C703 0.930 . S
C694 H688 0.930 . S
C694 C695 1.355 . S
C694 C696 1.415 1_554 S
C695 C694 1.355 . S
C695 C697 1.419 . S
C696 C694 1.415 1_556 S
C696 C701 1.425 1_656 S
C696 C703 1.409 . S
C697 H689 0.930 . S
C697 C695 1.419 . S
C697 C698 1.362 1_655 S
C698 H690 0.930 . S
C698 C697 1.362 1_455 S
C698 C701 1.409 . S
C699 H691 0.930 . S
C699 C700 1.355 . S
C699 C701 1.415 1_556 S
C700 C699 1.355 . S
C700 C702 1.419 . S
C701 C696 1.425 1_454 S
C701 C698 1.409 . S
C701 C699 1.415 1_554 S
C702 H692 0.930 . S
C702 C700 1.419 . S
C702 C703 1.362 1_455 S
C703 H693 0.930 . S
C703 C696 1.409 . S
C703 C702 1.362 1_655 S
H704 C710 0.930 . S
H705 C713 0.930 . S
H706 C714 0.930 1_565 S
H707 C715 0.930 . S
H708 C718 0.930 . S
H709 C719 0.930 1_545 S
C710 H704 0.930 . S
C710 C711 1.355 . S
C710 C712 1.428 . S
C711 C710 1.355 . S
C711 C713 1.419 . S
C712 C710 1.428 . S
C712 C717 1.424 1_546 S
C712 C719 1.397 1_546 S
C713 H705 0.930 . S
C713 C711 1.419 . S
C713 C714 1.362 . S
C714 H706 0.930 1_545 S
C714 C713 1.362 . S
C714 C717 1.397 1_546 S
C715 H707 0.930 . S
C715 C716 1.355 . S
C715 C717 1.428 . S
C716 C715 1.355 . S
C716 C718 1.419 . S
C717 C712 1.424 1_564 S
C717 C714 1.397 1_564 S
C717 C715 1.428 . S
C718 H708 0.930 . S
C718 C716 1.419 . S
C718 C719 1.362 . S
C719 H709 0.930 1_565 S
C719 C712 1.397 1_564 S
C719 C718 1.362 . S
H720 C726 0.930 . S
H721 C729 0.930 . S
H722 C730 0.930 . S
H723 C731 0.930 . S
H724 C734 0.930 . S
H725 C735 0.930 . S
C726 H720 0.930 . S
C726 C727 1.355 . S
C726 C728 1.415 1_556 S
C727 C726 1.355 . S
C727 C729 1.419 . S
C728 C726 1.415 1_554 S
C728 C733 1.425 1_654 S
C728 C735 1.409 . S
C729 H721 0.930 . S
C729 C727 1.419 . S
C729 C730 1.362 1_655 S
C730 H722 0.930 . S
C730 C729 1.362 1_455 S
C730 C733 1.409 . S
C731 H723 0.930 . S
C731 C732 1.355 . S
C731 C733 1.415 1_554 S
C732 C731 1.355 . S
C732 C734 1.419 . S
C733 C728 1.425 1_456 S
C733 C730 1.409 . S
C733 C731 1.415 1_556 S
C734 H724 0.930 . S
C734 C732 1.419 . S
C734 C735 1.362 1_455 S
C735 H725 0.930 . S
C735 C728 1.409 . S
C735 C734 1.362 1_655 S
H736 C742 0.930 . S
H737 C745 0.930 . S
H738 C746 0.930 . S
H739 C747 0.930 1_556 S
H740 C750 0.930 . S
H741 C751 0.930 . S
C742 H736 0.930 . S
C742 C743 1.355 . S
C742 C744 1.415 . S
C743 C742 1.355 . S
C743 C745 1.419 . S
C744 C742 1.415 . S
C744 C749 1.425 . S
C744 C751 1.409 . S
C745 H737 0.930 . S
C745 C743 1.419 . S
C745 C746 1.362 . S
C746 H738 0.930 . S
C746 C745 1.362 . S
C746 C749 1.409 . S
C747 H739 0.930 1_554 S
C747 C748 1.355 1_554 S
C747 C749 1.415 . S
C748 C747 1.355 1_556 S
C748 C750 1.419 1_556 S
C749 C744 1.425 . S
C749 C746 1.409 . S
C749 C747 1.415 . S
C750 H740 0.930 . S
C750 C748 1.419 1_554 S
C750 C751 1.362 . S
C751 H741 0.930 . S
C751 C744 1.409 . S
C751 C750 1.362 . S
H752 C758 0.930 . S
H753 C761 0.930 . S
H754 C762 0.930 . S
H755 C763 0.930 . S
H756 C766 0.930 . S
H757 C767 0.930 . S
C758 H752 0.930 . S
C758 C759 1.355 1_556 S
C758 C760 1.415 . S
C759 C758 1.355 1_554 S
C759 C761 1.419 . S
C760 C758 1.415 . S
C760 C765 1.425 . S
C760 C767 1.409 . S
C761 H753 0.930 . S
C761 C759 1.419 . S
C761 C762 1.362 1_554 S
C762 H754 0.930 . S
C762 C761 1.362 1_556 S
C762 C765 1.409 . S
C763 H755 0.930 . S
C763 C764 1.355 . S
C763 C765 1.415 . S
C764 C763 1.355 . S
C764 C766 1.419 . S
C765 C760 1.425 . S
C765 C762 1.409 . S
C765 C763 1.415 . S
C766 H756 0.930 . S
C766 C764 1.419 . S
C766 C767 1.362 . S
C767 H757 0.930 . S
C767 C760 1.409 . S
C767 C766 1.362 . S
H768 C774 0.930 . S
H769 C777 0.930 . S
H770 C778 0.930 . S
H771 C779 0.930 . S
H772 C782 0.930 . S
H773 C783 0.930 . S
C774 H768 0.930 . S
C774 C775 1.355 1_554 S
C774 C776 1.415 . S
C775 C774 1.355 1_556 S
C775 C777 1.419 . S
C776 C774 1.415 . S
C776 C781 1.425 . S
C776 C783 1.409 . S
C777 H769 0.930 . S
C777 C775 1.419 . S
C777 C778 1.362 1_556 S
C778 H770 0.930 . S
C778 C777 1.362 1_554 S
C778 C781 1.409 . S
C779 H771 0.930 . S
C779 C780 1.355 . S
C779 C781 1.415 . S
C780 C779 1.355 . S
C780 C782 1.419 . S
C781 C776 1.425 . S
C781 C778 1.409 . S
C781 C779 1.415 . S
C782 H772 0.930 . S
C782 C780 1.419 . S
C782 C783 1.362 . S
C783 H773 0.930 . S
C783 C776 1.409 . S
C783 C782 1.362 . S
H784 C790 0.930 1_554 S
H785 C793 0.930 . S
H786 C794 0.930 . S
H787 C795 0.930 . S
H788 C798 0.930 . S
H789 C799 0.930 . S
C790 H784 0.930 1_556 S
C790 C791 1.355 1_556 S
C790 C792 1.415 . S
C791 C790 1.355 1_554 S
C791 C793 1.419 1_554 S
C792 C790 1.415 . S
C792 C797 1.425 . S
C792 C799 1.409 . S
C793 H785 0.930 . S
C793 C791 1.419 1_556 S
C793 C794 1.362 . S
C794 H786 0.930 . S
C794 C793 1.362 . S
C794 C797 1.409 . S
C795 H787 0.930 . S
C795 C796 1.355 . S
C795 C797 1.415 . S
C796 C795 1.355 . S
C796 C798 1.419 . S
C797 C792 1.425 . S
C797 C794 1.409 . S
C797 C795 1.415 . S
C798 H788 0.930 . S
C798 C796 1.419 . S
C798 C799 1.362 . S
C799 H789 0.930 . S
C799 C792 1.409 . S
C799 C798 1.362 . S
H800 C806 0.930 . S
H801 C809 0.930 . S
H802 C810 0.930 . S
H803 C811 0.930 . S
H804 C814 0.930 . S
H805 C815 0.930 . S
C806 H800 0.930 . S
C806 C807 1.355 . S
C806 C808 1.415 . S
C807 C806 1.355 . S
C807 C809 1.419 . S
C808 C806 1.415 . S
C808 C813 1.425 . S
C808 C815 1.409 . S
C809 H801 0.930 . S
C809 C807 1.419 . S
C809 C810 1.362 . S
C810 H802 0.930 . S
C810 C809 1.362 . S
C810 C813 1.409 . S
C811 H803 0.930 . S
C811 C812 1.355 1_556 S
C811 C813 1.415 . S
C812 C811 1.355 1_554 S
C812 C814 1.419 . S
C813 C808 1.425 . S
C813 C810 1.409 . S
C813 C811 1.415 . S
C814 H804 0.930 . S
C814 C812 1.419 . S
C814 C815 1.362 1_554 S
C815 H805 0.930 . S
C815 C808 1.409 . S
C815 C814 1.362 1_556 S
H816 C822 0.930 . S
H817 C825 0.930 . S
H818 C826 0.930 . S
H819 C827 0.930 1_556 S
H820 C830 0.930 . S
H821 C831 0.930 . S
C822 H816 0.930 . S
C822 C823 1.355 . S
C822 C824 1.415 . S
C823 C822 1.355 . S
C823 C825 1.419 . S
C824 C822 1.415 . S
C824 C829 1.425 . S
C824 C831 1.409 . S
C825 H817 0.930 . S
C825 C823 1.419 . S
C825 C826 1.362 . S
C826 H818 0.930 . S
C826 C825 1.362 . S
C826 C829 1.409 . S
C827 H819 0.930 1_554 S
C827 C828 1.355 1_554 S
C827 C829 1.415 . S
C828 C827 1.355 1_556 S
C828 C830 1.419 1_556 S
C829 C824 1.425 . S
C829 C826 1.409 . S
C829 C827 1.415 . S
C830 H820 0.930 . S
C830 C828 1.419 1_554 S
C830 C831 1.362 . S
C831 H821 0.930 . S
C831 C824 1.409 . S
C831 C830 1.362 . S
H832 C838 0.930 . S
H833 C841 0.930 . S
H834 C842 0.930 . S
H835 C843 0.930 . S
H836 C846 0.930 . S
H837 C847 0.930 . S
C838 H832 0.930 . S
C838 C839 1.355 . S
C838 C840 1.415 . S
C839 C838 1.355 . S
C839 C841 1.419 . S
C840 C838 1.415 . S
C840 C845 1.425 . S
C840 C847 1.409 . S
C841 H833 0.930 . S
C841 C839 1.419 . S
C841 C842 1.362 . S
C842 H834 0.930 . S
C842 C841 1.362 . S
C842 C845 1.409 . S
C843 H835 0.930 . S
C843 C844 1.355 1_556 S
C843 C845 1.415 . S
C844 C843 1.355 1_554 S
C844 C846 1.419 1_554 S
C845 C840 1.425 . S
C845 C842 1.409 . S
C845 C843 1.415 . S
C846 H836 0.930 . S
C846 C844 1.419 1_556 S
C846 C847 1.362 . S
C847 H837 0.930 . S
C847 C840 1.409 . S
C847 C846 1.362 . S
H848 C854 0.930 1_556 S
H849 C857 0.930 . S
H850 C858 0.930 . S
H851 C859 0.930 . S
H852 C862 0.930 . S
H853 C863 0.930 . S
C854 H848 0.930 1_554 S
C854 C855 1.355 1_554 S
C854 C856 1.415 . S
C855 C854 1.355 1_556 S
C855 C857 1.419 1_556 S
C856 C854 1.415 . S
C856 C861 1.425 . S
C856 C863 1.409 . S
C857 H849 0.930 . S
C857 C855 1.419 1_554 S
C857 C858 1.362 . S
C858 H850 0.930 . S
C858 C857 1.362 . S
C858 C861 1.409 . S
C859 H851 0.930 . S
C859 C860 1.355 . S
C859 C861 1.415 . S
C860 C859 1.355 . S
C860 C862 1.419 . S
C861 C856 1.425 . S
C861 C858 1.409 . S
C861 C859 1.415 . S
C862 H852 0.930 . S
C862 C860 1.419 . S
C862 C863 1.362 . S
C863 H853 0.930 . S
C863 C856 1.409 . S
C863 C862 1.362 . S
H864 C870 0.930 . S
H865 C873 0.930 . S
H866 C874 0.930 . S
H867 C875 0.930 . S
H868 C878 0.930 . S
H869 C879 0.930 . S
C870 H864 0.930 . S
C870 C871 1.355 . S
C870 C872 1.415 . S
C871 C870 1.355 . S
C871 C873 1.419 . S
C872 C870 1.415 . S
C872 C877 1.425 . S
C872 C879 1.409 . S
C873 H865 0.930 . S
C873 C871 1.419 . S
C873 C874 1.362 . S
C874 H866 0.930 . S
C874 C873 1.362 . S
C874 C877 1.409 . S
C875 H867 0.930 . S
C875 C876 1.355 . S
C875 C877 1.415 . S
C876 C875 1.355 . S
C876 C878 1.419 . S
C877 C872 1.425 . S
C877 C874 1.409 . S
C877 C875 1.415 . S
C878 H868 0.930 . S
C878 C876 1.419 . S
C878 C879 1.362 . S
C879 H869 0.930 . S
C879 C872 1.409 . S
C879 C878 1.362 . S
H880 C886 0.930 . S
H881 C889 0.930 . S
H882 C890 0.930 . S
H883 C891 0.930 . S
H884 C894 0.930 . S
H885 C895 0.930 . S
C886 H880 0.930 . S
C886 C887 1.355 . S
C886 C888 1.415 . S
C887 C886 1.355 . S
C887 C889 1.419 . S
C888 C886 1.415 . S
C888 C893 1.425 . S
C888 C895 1.409 . S
C889 H881 0.930 . S
C889 C887 1.419 . S
C889 C890 1.362 . S
C890 H882 0.930 . S
C890 C889 1.362 . S
C890 C893 1.409 . S
C891 H883 0.930 . S
C891 C892 1.355 . S
C891 C893 1.415 . S
C892 C891 1.355 . S
C892 C894 1.419 . S
C893 C888 1.425 . S
C893 C890 1.409 . S
C893 C891 1.415 . S
C894 H884 0.930 . S
C894 C892 1.419 . S
C894 C895 1.362 . S
C895 H885 0.930 . S
C895 C888 1.409 . S
C895 C894 1.362 . S
H896 C902 0.930 . S
H897 C905 0.930 . S
H898 C906 0.930 . S
H899 C907 0.930 . S
H900 C910 0.930 . S
H901 C911 0.930 . S
C902 H896 0.930 . S
C902 C903 1.355 . S
C902 C904 1.415 . S
C903 C902 1.355 . S
C903 C905 1.419 . S
C904 C902 1.415 . S
C904 C909 1.425 . S
C904 C911 1.409 . S
C905 H897 0.930 . S
C905 C903 1.419 . S
C905 C906 1.362 . S
C906 H898 0.930 . S
C906 C905 1.362 . S
C906 C909 1.409 . S
C907 H899 0.930 . S
C907 C908 1.355 . S
C907 C909 1.415 . S
C908 C907 1.355 . S
C908 C910 1.419 . S
C909 C904 1.425 . S
C909 C906 1.409 . S
C909 C907 1.415 . S
C910 H900 0.930 . S
C910 C908 1.419 . S
C910 C911 1.362 . S
C911 H901 0.930 . S
C911 C904 1.409 . S
C911 C910 1.362 . S
H912 C918 0.930 . S
H913 C921 0.930 . S
H914 C922 0.930 . S
H915 C923 0.930 . S
H916 C926 0.930 . S
H917 C927 0.930 . S
C918 H912 0.930 . S
C918 C919 1.355 . S
C918 C920 1.415 . S
C919 C918 1.355 . S
C919 C921 1.419 . S
C920 C918 1.415 . S
C920 C925 1.425 . S
C920 C927 1.409 . S
C921 H913 0.930 . S
C921 C919 1.419 . S
C921 C922 1.362 . S
C922 H914 0.930 . S
C922 C921 1.362 . S
C922 C925 1.409 . S
C923 H915 0.930 . S
C923 C924 1.355 . S
C923 C925 1.415 . S
C924 C923 1.355 . S
C924 C926 1.419 . S
C925 C920 1.425 . S
C925 C922 1.409 . S
C925 C923 1.415 . S
C926 H916 0.930 . S
C926 C924 1.419 . S
C926 C927 1.362 . S
C927 H917 0.930 . S
C927 C920 1.409 . S
C927 C926 1.362 . S
H928 C934 0.930 . S
H929 C937 0.930 . S
H930 C938 0.930 . S
H931 C939 0.930 . S
H932 C942 0.930 . S
H933 C943 0.930 . S
C934 H928 0.930 . S
C934 C935 1.355 . S
C934 C936 1.415 . S
C935 C934 1.355 . S
C935 C937 1.419 . S
C936 C934 1.415 . S
C936 C941 1.425 . S
C936 C943 1.409 . S
C937 H929 0.930 . S
C937 C935 1.419 . S
C937 C938 1.362 . S
C938 H930 0.930 . S
C938 C937 1.362 . S
C938 C941 1.409 . S
C939 H931 0.930 . S
C939 C940 1.355 . S
C939 C941 1.415 . S
C940 C939 1.355 . S
C940 C942 1.419 . S
C941 C936 1.425 . S
C941 C938 1.409 . S
C941 C939 1.415 . S
C942 H932 0.930 . S
C942 C940 1.419 . S
C942 C943 1.362 . S
C943 H933 0.930 . S
C943 C936 1.409 . S
C943 C942 1.362 . S
H944 C950 0.930 . S
H945 C953 0.930 . S
H946 C954 0.930 . S
H947 C955 0.930 . S
H948 C958 0.930 . S
H949 C959 0.930 . S
C950 H944 0.930 . S
C950 C951 1.355 . S
C950 C952 1.415 . S
C951 C950 1.355 . S
C951 C953 1.419 . S
C952 C950 1.415 . S
C952 C957 1.425 . S
C952 C959 1.409 . S
C953 H945 0.930 . S
C953 C951 1.419 . S
C953 C954 1.362 . S
C954 H946 0.930 . S
C954 C953 1.362 . S
C954 C957 1.409 . S
C955 H947 0.930 . S
C955 C956 1.355 . S
C955 C957 1.415 . S
C956 C955 1.355 . S
C956 C958 1.419 . S
C957 C952 1.425 . S
C957 C954 1.409 . S
C957 C955 1.415 . S
C958 H948 0.930 . S
C958 C956 1.419 . S
C958 C959 1.362 . S
C959 H949 0.930 . S
C959 C952 1.409 . S
C959 C958 1.362 . S
H960 C966 0.930 . S
H961 C969 0.930 . S
H962 C970 0.930 . S
H963 C971 0.930 . S
H964 C974 0.930 . S
H965 C975 0.930 . S
C966 H960 0.930 . S
C966 C967 1.355 . S
C966 C968 1.415 . S
C967 C966 1.355 . S
C967 C969 1.419 . S
C968 C966 1.415 . S
C968 C973 1.425 . S
C968 C975 1.409 . S
C969 H961 0.930 . S
C969 C967 1.419 . S
C969 C970 1.362 . S
C970 H962 0.930 . S
C970 C969 1.362 . S
C970 C973 1.409 . S
C971 H963 0.930 . S
C971 C972 1.355 . S
C971 C973 1.415 . S
C972 C971 1.355 . S
C972 C974 1.419 . S
C973 C968 1.425 . S
C973 C970 1.409 . S
C973 C971 1.415 . S
C974 H964 0.930 . S
C974 C972 1.419 . S
C974 C975 1.362 . S
C975 H965 0.930 . S
C975 C968 1.409 . S
C975 C974 1.362 . S
H976 C982 0.930 . S
H977 C985 0.930 . S
H978 C986 0.930 . S
H979 C987 0.930 . S
H980 C990 0.930 . S
H981 C991 0.930 . S
C982 H976 0.930 . S
C982 C983 1.355 . S
C982 C984 1.415 . S
C983 C982 1.355 . S
C983 C985 1.419 . S
C984 C982 1.415 . S
C984 C989 1.425 . S
C984 C991 1.409 . S
C985 H977 0.930 . S
C985 C983 1.419 . S
C985 C986 1.362 . S
C986 H978 0.930 . S
C986 C985 1.362 . S
C986 C989 1.409 . S
C987 H979 0.930 . S
C987 C988 1.355 . S
C987 C989 1.415 . S
C988 C987 1.355 . S
C988 C990 1.419 . S
C989 C984 1.425 . S
C989 C986 1.409 . S
C989 C987 1.415 . S
C990 H980 0.930 . S
C990 C988 1.419 . S
C990 C991 1.362 . S
C991 H981 0.930 . S
C991 C984 1.409 . S
C991 C990 1.362 . S
H992 C998 0.930 . S
H993 C1001 0.930 . S
H994 C1002 0.930 . S
H995 C1003 0.930 . S
H996 C1006 0.930 . S
H997 C1007 0.930 . S
C998 H992 0.930 . S
C998 C999 1.355 . S
C998 C1000 1.415 . S
C999 C998 1.355 . S
C999 C1001 1.419 . S
C1000 C998 1.415 . S
C1000 C1005 1.425 . S
C1000 C1007 1.409 . S
C1001 H993 0.930 . S
C1001 C999 1.419 . S
C1001 C1002 1.362 . S
C1002 H994 0.930 . S
C1002 C1001 1.362 . S
C1002 C1005 1.409 . S
C1003 H995 0.930 . S
C1003 C1004 1.355 . S
C1003 C1005 1.415 . S
C1004 C1003 1.355 . S
C1004 C1006 1.419 . S
C1005 C1000 1.425 . S
C1005 C1002 1.409 . S
C1005 C1003 1.415 . S
C1006 H996 0.930 . S
C1006 C1004 1.419 . S
C1006 C1007 1.362 . S
C1007 H997 0.930 . S
C1007 C1000 1.409 . S
C1007 C1006 1.362 . S
H1008 C1014 0.930 . S
H1009 C1017 0.930 . S
H1010 C1018 0.930 . S
H1011 C1019 0.930 . S
H1012 C1022 0.930 . S
H1013 C1023 0.930 . S
C1014 H1008 0.930 . S
C1014 C1015 1.355 . S
C1014 C1016 1.415 . S
C1015 C1014 1.355 . S
C1015 C1017 1.419 . S
C1016 C1014 1.415 . S
C1016 C1021 1.425 . S
C1016 C1023 1.409 . S
C1017 H1009 0.930 . S
C1017 C1015 1.419 . S
C1017 C1018 1.362 . S
C1018 H1010 0.930 . S
C1018 C1017 1.362 . S
C1018 C1021 1.409 . S
C1019 H1011 0.930 . S
C1019 C1020 1.355 . S
C1019 C1021 1.415 . S
C1020 C1019 1.355 . S
C1020 C1022 1.419 . S
C1021 C1016 1.425 . S
C1021 C1018 1.409 . S
C1021 C1019 1.415 . S
C1022 H1012 0.930 . S
C1022 C1020 1.419 . S
C1022 C1023 1.362 . S
C1023 H1013 0.930 . S
C1023 C1016 1.409 . S
C1023 C1022 1.362 . S
H1024 C1030 0.930 . S
H1025 C1033 0.930 . S
H1026 C1034 0.930 . S
H1027 C1035 0.930 . S
H1028 C1038 0.930 . S
H1029 C1039 0.930 . S
C1030 H1024 0.930 . S
C1030 C1031 1.355 . S
C1030 C1032 1.415 . S
C1031 C1030 1.355 . S
C1031 C1033 1.419 . S
C1032 C1030 1.415 . S
C1032 C1037 1.425 . S
C1032 C1039 1.409 . S
C1033 H1025 0.930 . S
C1033 C1031 1.419 . S
C1033 C1034 1.362 . S
C1034 H1026 0.930 . S
C1034 C1033 1.362 . S
C1034 C1037 1.409 . S
C1035 H1027 0.930 . S
C1035 C1036 1.355 . S
C1035 C1037 1.415 . S
C1036 C1035 1.355 . S
C1036 C1038 1.419 . S
C1037 C1032 1.425 . S
C1037 C1034 1.409 . S
C1037 C1035 1.415 . S
C1038 H1028 0.930 . S
C1038 C1036 1.419 . S
C1038 C1039 1.362 . S
C1039 H1029 0.930 . S
C1039 C1032 1.409 . S
C1039 C1038 1.362 . S
H1040 C1046 0.930 . S
H1041 C1049 0.930 . S
H1042 C1050 0.930 . S
H1043 C1051 0.930 . S
H1044 C1054 0.930 . S
H1045 C1055 0.930 . S
C1046 H1040 0.930 . S
C1046 C1047 1.355 . S
C1046 C1048 1.415 . S
C1047 C1046 1.355 . S
C1047 C1049 1.419 . S
C1048 C1046 1.415 . S
C1048 C1053 1.425 . S
C1048 C1055 1.409 . S
C1049 H1041 0.930 . S
C1049 C1047 1.419 . S
C1049 C1050 1.362 . S
C1050 H1042 0.930 . S
C1050 C1049 1.362 . S
C1050 C1053 1.409 . S
C1051 H1043 0.930 . S
C1051 C1052 1.355 . S
C1051 C1053 1.415 . S
C1052 C1051 1.355 . S
C1052 C1054 1.419 . S
C1053 C1048 1.425 . S
C1053 C1050 1.409 . S
C1053 C1051 1.415 . S
C1054 H1044 0.930 . S
C1054 C1052 1.419 . S
C1054 C1055 1.362 . S
C1055 H1045 0.930 . S
C1055 C1048 1.409 . S
C1055 C1054 1.362 . S
H1056 C1062 0.930 . S
H1057 C1065 0.930 . S
H1058 C1066 0.930 . S
H1059 C1067 0.930 . S
H1060 C1070 0.930 . S
H1061 C1071 0.930 . S
C1062 H1056 0.930 . S
C1062 C1063 1.355 . S
C1062 C1064 1.415 . S
C1063 C1062 1.355 . S
C1063 C1065 1.419 . S
C1064 C1062 1.415 . S
C1064 C1069 1.425 . S
C1064 C1071 1.409 . S
C1065 H1057 0.930 . S
C1065 C1063 1.419 . S
C1065 C1066 1.362 . S
C1066 H1058 0.930 . S
C1066 C1065 1.362 . S
C1066 C1069 1.409 . S
C1067 H1059 0.930 . S
C1067 C1068 1.355 . S
C1067 C1069 1.415 . S
C1068 C1067 1.355 . S
C1068 C1070 1.419 . S
C1069 C1064 1.425 . S
C1069 C1066 1.409 . S
C1069 C1067 1.415 . S
C1070 H1060 0.930 . S
C1070 C1068 1.419 . S
C1070 C1071 1.362 . S
C1071 H1061 0.930 . S
C1071 C1064 1.409 . S
C1071 C1070 1.362 . S
H1072 C1078 0.930 . S
H1073 C1081 0.930 . S
H1074 C1082 0.930 . S
H1075 C1083 0.930 . S
H1076 C1086 0.930 . S
H1077 C1087 0.930 . S
C1078 H1072 0.930 . S
C1078 C1079 1.355 . S
C1078 C1080 1.415 . S
C1079 C1078 1.355 . S
C1079 C1081 1.419 . S
C1080 C1078 1.415 . S
C1080 C1085 1.425 . S
C1080 C1087 1.409 . S
C1081 H1073 0.930 . S
C1081 C1079 1.419 . S
C1081 C1082 1.362 . S
C1082 H1074 0.930 . S
C1082 C1081 1.362 . S
C1082 C1085 1.409 . S
C1083 H1075 0.930 . S
C1083 C1084 1.355 . S
C1083 C1085 1.415 . S
C1084 C1083 1.355 . S
C1084 C1086 1.419 . S
C1085 C1080 1.425 . S
C1085 C1082 1.409 . S
C1085 C1083 1.415 . S
C1086 H1076 0.930 . S
C1086 C1084 1.419 . S
C1086 C1087 1.362 . S
C1087 H1077 0.930 . S
C1087 C1080 1.409 . S
C1087 C1086 1.362 . S
H1088 C1094 0.930 . S
H1089 C1097 0.930 . S
H1090 C1098 0.930 . S
H1091 C1099 0.930 . S
H1092 C1102 0.930 . S
H1093 C1103 0.930 . S
C1094 H1088 0.930 . S
C1094 C1095 1.355 . S
C1094 C1096 1.415 . S
C1095 C1094 1.355 . S
C1095 C1097 1.419 . S
C1096 C1094 1.415 . S
C1096 C1101 1.425 . S
C1096 C1103 1.409 . S
C1097 H1089 0.930 . S
C1097 C1095 1.419 . S
C1097 C1098 1.362 . S
C1098 H1090 0.930 . S
C1098 C1097 1.362 . S
C1098 C1101 1.409 . S
C1099 H1091 0.930 . S
C1099 C1100 1.355 . S
C1099 C1101 1.415 . S
C1100 C1099 1.355 . S
C1100 C1102 1.419 . S
C1101 C1096 1.425 . S
C1101 C1098 1.409 . S
C1101 C1099 1.415 . S
C1102 H1092 0.930 . S
C1102 C1100 1.419 . S
C1102 C1103 1.362 . S
C1103 H1093 0.930 . S
C1103 C1096 1.409 . S
C1103 C1102 1.362 . S
H1104 C1110 0.930 . S
H1105 C1113 0.930 . S
H1106 C1114 0.930 . S
H1107 C1115 0.930 . S
H1108 C1118 0.930 . S
H1109 C1119 0.930 . S
C1110 H1104 0.930 . S
C1110 C1111 1.355 . S
C1110 C1112 1.415 . S
C1111 C1110 1.355 . S
C1111 C1113 1.419 . S
C1112 C1110 1.415 . S
C1112 C1117 1.425 . S
C1112 C1119 1.409 . S
C1113 H1105 0.930 . S
C1113 C1111 1.419 . S
C1113 C1114 1.362 . S
C1114 H1106 0.930 . S
C1114 C1113 1.362 . S
C1114 C1117 1.409 . S
C1115 H1107 0.930 . S
C1115 C1116 1.355 . S
C1115 C1117 1.415 . S
C1116 C1115 1.355 . S
C1116 C1118 1.419 . S
C1117 C1112 1.425 . S
C1117 C1114 1.409 . S
C1117 C1115 1.415 . S
C1118 H1108 0.930 . S
C1118 C1116 1.419 . S
C1118 C1119 1.362 . S
C1119 H1109 0.930 . S
C1119 C1112 1.409 . S
C1119 C1118 1.362 . S
C359 C6 1.292 . S
C364 C250 1.340 . S
C375 C31 1.301 . S
C380 C180 1.321 . S
C391 C206 1.320 . S
C396 C50 1.325 . S
C407 C224 1.324 . S
C412 C75 1.336 . S
C423 C95 1.296 . S
C428 C290 1.346 . S
C439 C115 1.356 . S
C444 C316 1.345 . S
C455 C334 1.359 . S
C460 C139 1.314 . S
C471 C272 1.354 . S
C476 C159 1.305 . S
C487 C182 1.304 . S
C492 C74 1.353 . S
C503 C4 1.350 . S
C508 C207 1.300 . S
C519 C30 1.351 . S
C524 C226 1.300 . S
C535 C251 1.324 . S
C540 C48 1.320 . S
C551 C271 1.292 . S
C556 C114 1.329 . S
C567 C140 1.355 . S
C572 C291 1.306 . S
C583 C158 1.360 . S
C588 C315 1.317 . S
C599 C96 1.362 . S
C604 C335 1.344 . S
C615 C93 1.085 . S
C620 C9 0.993 . S
C631 C28 0.961 . S
C636 C117 1.026 . S
C647 C137 1.024 . S
C652 C53 0.961 . S
C663 C161 0.968 . S
C668 C72 1.077 . S
C679 C269 0.956 . S
C684 C185 1.057 . S
C695 C204 0.959 . S
C700 C293 1.030 . S
C711 C229 0.968 . S
C716 C313 1.077 . S
C727 C337 1.020 . S
C732 C248 0.963 . S
C743 C5 1.676 . S
C748 C294 1.646 . S
C759 C312 1.654 . S
C764 C29 1.654 . S
C775 C338 1.636 . S
C780 C49 1.653 . S
C791 C268 1.659 . S
C796 C73 1.681 . S
C807 C97 1.651 . S
C812 C246 1.642 . S
C823 C116 1.676 . S
C828 C184 1.676 . S
C839 C141 1.678 . S
C844 C202 1.675 . S
C855 C228 1.666 . S
C860 C160 1.682 . S
C871 C118 1.672 . S
C876 C181 1.667 . S
C887 C136 1.671 . S
C892 C205 1.682 . S
C903 C225 1.673 . S
C908 C162 1.643 . S
C919 C92 1.672 . S
C924 C249 1.666 . S
C935 C70 1.639 . S
C940 C273 1.652 . S
C951 C292 1.653 . S
C956 C8 1.653 . S
C967 C26 1.656 . S
C972 C317 1.654 . S
C983 C336 1.658 . S
C988 C52 1.633 . S
C999 C163 1.225 . S
C1004 C7 1.294 . S
C1015 C94 1.280 . S
C1020 C27 1.239 . S
C1031 C119 1.287 . S
C1036 C51 1.232 . S
C1047 C138 1.274 . S
C1052 C71 1.245 . S
C1063 C183 1.272 . S
C1068 C339 1.247 . S
C1079 C270 1.224 . S
C1084 C203 1.295 . S
C1095 C295 1.243 . S
C1100 C227 1.277 . S
C1111 C247 1.293 . S
C1116 C314 1.226 . S
