# Generated by pormake.
# Topology utg, (3)-cn, num edge types: 1
# Building blocks:
#     Node 0, Type 0, BuildingBlock: OLANEW_clean_sbu_2, # of connection points: 3
#     Node 1, Type 0, BuildingBlock: OLANEW_clean_sbu_2, # of connection points: 3
#     Node 2, Type 0, BuildingBlock: OLANEW_clean_sbu_2, # of connection points: 3
#     Node 3, Type 0, BuildingBlock: OLANEW_clean_sbu_2, # of connection points: 3
#     Node 4, Type 0, BuildingBlock: OLANEW_clean_sbu_2, # of connection points: 3
#     Node 5, Type 0, BuildingBlock: OLANEW_clean_sbu_2, # of connection points: 3
#     Node 6, Type 0, BuildingBlock: OLANEW_clean_sbu_2, # of connection points: 3
#     Node 7, Type 0, BuildingBlock: OLANEW_clean_sbu_2, # of connection points: 3
#     Node 8, Type 0, BuildingBlock: OLANEW_clean_sbu_2, # of connection points: 3
#     Node 9, Type 0, BuildingBlock: OLANEW_clean_sbu_2, # of connection points: 3
#     Node 10, Type 0, BuildingBlock: OLANEW_clean_sbu_2, # of connection points: 3
#     Node 11, Type 0, BuildingBlock: OLANEW_clean_sbu_2, # of connection points: 3
#     Node 12, Type 0, BuildingBlock: OLANEW_clean_sbu_2, # of connection points: 3
#     Node 13, Type 0, BuildingBlock: OLANEW_clean_sbu_2, # of connection points: 3
#     Node 14, Type 0, BuildingBlock: OLANEW_clean_sbu_2, # of connection points: 3
#     Node 15, Type 0, BuildingBlock: OLANEW_clean_sbu_2, # of connection points: 3
#     Edge 16, Type (0, 0), BuildingBlock: ZUJKAS_clean_linker_0, # of connection points: 2
#     Edge 17, Type (0, 0), BuildingBlock: ZUJKAS_clean_linker_0, # of connection points: 2
#     Edge 18, Type (0, 0), BuildingBlock: ZUJKAS_clean_linker_0, # of connection points: 2
#     Edge 19, Type (0, 0), BuildingBlock: ZUJKAS_clean_linker_0, # of connection points: 2
#     Edge 20, Type (0, 0), BuildingBlock: ZUJKAS_clean_linker_0, # of connection points: 2
#     Edge 21, Type (0, 0), BuildingBlock: ZUJKAS_clean_linker_0, # of connection points: 2
#     Edge 22, Type (0, 0), BuildingBlock: ZUJKAS_clean_linker_0, # of connection points: 2
#     Edge 23, Type (0, 0), BuildingBlock: ZUJKAS_clean_linker_0, # of connection points: 2
#     Edge 24, Type (0, 0), BuildingBlock: ZUJKAS_clean_linker_0, # of connection points: 2
#     Edge 25, Type (0, 0), BuildingBlock: ZUJKAS_clean_linker_0, # of connection points: 2
#     Edge 26, Type (0, 0), BuildingBlock: ZUJKAS_clean_linker_0, # of connection points: 2
#     Edge 27, Type (0, 0), BuildingBlock: ZUJKAS_clean_linker_0, # of connection points: 2
#     Edge 28, Type (0, 0), BuildingBlock: ZUJKAS_clean_linker_0, # of connection points: 2
#     Edge 29, Type (0, 0), BuildingBlock: ZUJKAS_clean_linker_0, # of connection points: 2
#     Edge 30, Type (0, 0), BuildingBlock: ZUJKAS_clean_linker_0, # of connection points: 2
#     Edge 31, Type (0, 0), BuildingBlock: ZUJKAS_clean_linker_0, # of connection points: 2
#     Edge 32, Type (0, 0), BuildingBlock: ZUJKAS_clean_linker_0, # of connection points: 2
#     Edge 33, Type (0, 0), BuildingBlock: ZUJKAS_clean_linker_0, # of connection points: 2
#     Edge 34, Type (0, 0), BuildingBlock: ZUJKAS_clean_linker_0, # of connection points: 2
#     Edge 35, Type (0, 0), BuildingBlock: ZUJKAS_clean_linker_0, # of connection points: 2
#     Edge 36, Type (0, 0), BuildingBlock: ZUJKAS_clean_linker_0, # of connection points: 2
#     Edge 37, Type (0, 0), BuildingBlock: ZUJKAS_clean_linker_0, # of connection points: 2
#     Edge 38, Type (0, 0), BuildingBlock: ZUJKAS_clean_linker_0, # of connection points: 2
#     Edge 39, Type (0, 0), BuildingBlock: ZUJKAS_clean_linker_0, # of connection points: 2
# Relax obj value: 0.003
# Max RMSD: 0.051
# Mean RMSD: 0.051
data_MOF--net-utg--node1-OLANEW_clean_sbu_2--edge1-ZUJKAS_clean_linker_0
_symmetry_space_group_name_H-M    P1
_symmetry_Int_Tables_number       1
_symmetry_cell_setting            triclinic
loop_
_symmetry_equiv_pos_as_xyz
'x, y, z'
_cell_length_a     54.424931
_cell_length_b     54.428126
_cell_length_c     109.04918
_cell_angle_alpha  89.996259
_cell_angle_beta   89.986478
_cell_angle_gamma 89.924959
loop_
_atom_site_label
_atom_site_type_symbol
_atom_site_fract_x
_atom_site_fract_y
_atom_site_fract_z
_atom_type_partial_charge
O0 O 0.10582 0.16712 0.18173 0.0
Cd1 Cd 0.11397 0.14333 0.20032 0.0
O2 O 0.14383 0.16383 0.17504 0.0
Cd3 Cd 0.15882 0.15029 0.19233 0.0
O4 O 0.1843 0.15875 0.20722 0.0
C5 C 0.20676 0.16177 0.2044 0.0
O6 O 0.21364 0.1578 0.19302 0.0
C7 C 0.12176 0.17082 0.17341 0.0
C8 C 0.08367 0.10197 0.20132 0.0
O9 O 0.07691 0.12245 0.20605 0.0
O10 O 0.10486 0.101 0.1962 0.0
O11 O 0.84368 0.61998 0.42813 0.0
Cd12 Cd 0.87089 0.62732 0.4456 0.0
O13 O 0.84626 0.65849 0.42213 0.0
Cd14 Cd 0.86365 0.67186 0.43885 0.0
O15 O 0.8565 0.6949 0.45484 0.0
C16 C 0.83497 0.69262 0.4592 0.0
O17 O 0.82022 0.67623 0.45431 0.0
C18 C 0.8386 0.6367 0.42038 0.0
C19 C 0.90733 0.59136 0.44736 0.0
O20 O 0.88729 0.58953 0.45347 0.0
O21 O 0.91014 0.61019 0.44045 0.0
O22 O 0.39223 0.32132 0.68122 0.0
Cd23 Cd 0.38243 0.3447 0.69974 0.0
O24 O 0.36233 0.33805 0.6705 0.0
Cd25 Cd 0.34536 0.35448 0.68666 0.0
O26 O 0.31947 0.35118 0.70186 0.0
C27 C 0.29938 0.34036 0.69939 0.0
O28 O 0.29527 0.33337 0.68804 0.0
C29 C 0.38095 0.32394 0.67109 0.0
C30 C 0.41024 0.38767 0.7009 0.0
O31 O 0.41796 0.36766 0.70577 0.0
O32 O 0.38927 0.38737 0.69555 0.0
O33 O 0.65899 0.8603 0.91529 0.0
Cd34 Cd 0.6317 0.85237 0.93269 0.0
O35 O 0.66611 0.82093 0.91234 0.0
Cd36 Cd 0.64955 0.80831 0.92943 0.0
O37 O 0.6568 0.78787 0.94628 0.0
C38 C 0.67817 0.79106 0.9507 0.0
O39 O 0.69292 0.80678 0.94528 0.0
C40 C 0.66882 0.84317 0.90904 0.0
C41 C 0.59919 0.89126 0.93686 0.0
O42 O 0.61954 0.88974 0.94273 0.0
O43 O 0.59425 0.87443 0.92902 0.0
O44 O 0.10579 0.33387 0.06329 0.0
Cd45 Cd 0.11449 0.35797 0.04486 0.0
O46 O 0.13936 0.34599 0.07274 0.0
Cd47 Cd 0.15592 0.36044 0.05602 0.0
O48 O 0.18168 0.35155 0.04131 0.0
C49 C 0.17722 0.33191 0.03542 0.0
O50 O 0.15702 0.31972 0.03795 0.0
C51 C 0.11911 0.33434 0.07287 0.0
C52 C 0.08297 0.39841 0.04338 0.0
O53 O 0.07722 0.37778 0.0385 0.0
O54 O 0.10373 0.39998 0.04887 0.0
O55 O 0.66526 0.61403 0.31324 0.0
Cd56 Cd 0.64082 0.61859 0.29457 0.0
O57 O 0.67016 0.65393 0.31542 0.0
Cd58 Cd 0.6547 0.66518 0.29783 0.0
O59 O 0.66094 0.69026 0.28251 0.0
C60 C 0.66697 0.71207 0.2854 0.0
O61 O 0.66733 0.71815 0.29706 0.0
C62 C 0.67341 0.63217 0.31935 0.0
C63 C 0.60189 0.5852 0.29425 0.0
O64 O 0.62283 0.57962 0.28963 0.0
O65 O 0.59932 0.60663 0.29895 0.0
O66 O 0.39412 0.15932 0.56141 0.0
Cd67 Cd 0.38631 0.13607 0.54264 0.0
O68 O 0.35623 0.15535 0.56817 0.0
Cd69 Cd 0.34133 0.142 0.55083 0.0
O70 O 0.31541 0.15011 0.53609 0.0
C71 C 0.29288 0.15232 0.53897 0.0
O72 O 0.28624 0.14777 0.55034 0.0
C73 C 0.37821 0.16256 0.5698 0.0
C74 C 0.41858 0.09625 0.54114 0.0
O75 O 0.4242 0.11717 0.53652 0.0
O76 O 0.39756 0.09409 0.54633 0.0
O77 O 0.87613 0.89169 0.82214 0.0
Cd78 Cd 0.91051 0.89078 0.80773 0.0
O79 O 0.86455 0.85802 0.81288 0.0
Cd80 Cd 0.83939 0.82809 0.80833 0.0
O81 O 0.81446 0.79998 0.80144 0.0
C82 C 0.79193 0.79983 0.80451 0.0
O83 O 0.78381 0.8166 0.81218 0.0
C84 C 0.86086 0.87418 0.82111 0.0
C85 C 0.94075 0.93201 0.80864 0.0
O86 O 0.92166 0.9316 0.80176 0.0
O87 O 0.94529 0.91305 0.81524 0.0
O88 O 0.58469 0.67028 0.68302 0.0
Cd89 Cd 0.5875 0.64851 0.70257 0.0
O90 O 0.62347 0.66347 0.67846 0.0
Cd91 Cd 0.6327 0.64983 0.69672 0.0
O92 O 0.65071 0.65491 0.71443 0.0
C93 C 0.6394 0.66572 0.72309 0.0
O94 O 0.61631 0.672 0.72149 0.0
C95 C 0.60251 0.67196 0.67552 0.0
C96 C 0.55877 0.6061 0.70254 0.0
O97 O 0.54999 0.62671 0.70619 0.0
O98 O 0.5812 0.60554 0.69895 0.0
O99 O 0.36428 0.12177 0.93557 0.0
Cd100 Cd 0.39128 0.12646 0.95332 0.0
O101 O 0.37039 0.15982 0.92952 0.0
Cd102 Cd 0.38397 0.17216 0.94729 0.0
O103 O 0.3686 0.19454 0.96205 0.0
C104 C 0.34625 0.18979 0.96445 0.0
O105 O 0.33563 0.17147 0.95867 0.0
C106 C 0.36151 0.13858 0.92759 0.0
C107 C 0.42741 0.08997 0.95286 0.0
O108 O 0.40765 0.08714 0.9591 0.0
O109 O 0.43023 0.11017 0.94699 0.0
O110 O 0.89479 0.8297 0.18124 0.0
Cd111 Cd 0.88761 0.85468 0.19956 0.0
O112 O 0.86907 0.85103 0.16989 0.0
Cd113 Cd 0.85237 0.86768 0.18607 0.0
O114 O 0.82517 0.86005 0.20029 0.0
C115 C 0.81148 0.84178 0.19786 0.0
O116 O 0.81459 0.83031 0.18737 0.0
C117 C 0.88521 0.83422 0.17084 0.0
C118 C 0.91961 0.89474 0.20031 0.0
O119 O 0.92544 0.87415 0.20523 0.0
O120 O 0.89858 0.89642 0.19509 0.0
O121 O 0.16131 0.3822 0.43091 0.0
Cd122 Cd 0.13428 0.37193 0.44808 0.0
O123 O 0.15256 0.34794 0.42115 0.0
Cd124 Cd 0.13592 0.33078 0.4372 0.0
O125 O 0.1418 0.30599 0.45266 0.0
C126 C 0.1606 0.31048 0.45919 0.0
O127 O 0.17374 0.3301 0.45669 0.0
C128 C 0.16314 0.36876 0.42141 0.0
C129 C 0.09588 0.40582 0.44972 0.0
O130 O 0.11545 0.40841 0.45613 0.0
O131 O 0.09438 0.38708 0.44264 0.0
O132 O 0.60904 0.82841 0.56212 0.0
Cd133 Cd 0.61879 0.85217 0.54372 0.0
O134 O 0.64125 0.84173 0.57231 0.0
Cd135 Cd 0.65859 0.85666 0.55589 0.0
O136 O 0.68466 0.84944 0.54111 0.0
C137 C 0.7068 0.84502 0.54411 0.0
O138 O 0.71311 0.84695 0.55571 0.0
C139 C 0.62139 0.82945 0.57201 0.0
C140 C 0.58788 0.89298 0.54186 0.0
O141 O 0.58201 0.87236 0.53701 0.0
O142 O 0.60849 0.89435 0.5475 0.0
O143 O 0.19308 0.13938 0.81918 0.0
Cd144 Cd 0.16771 0.14845 0.80126 0.0
O145 O 0.17685 0.16868 0.83048 0.0
Cd146 Cd 0.15906 0.18527 0.81459 0.0
O147 O 0.16254 0.2087 0.79844 0.0
C148 C 0.17691 0.22692 0.79969 0.0
O149 O 0.18713 0.23071 0.81045 0.0
C150 C 0.19122 0.15034 0.82944 0.0
C151 C 0.12712 0.11726 0.80102 0.0
O152 O 0.14732 0.11111 0.79581 0.0
O153 O 0.12598 0.13838 0.80619 0.0
O154 O 0.89649 0.67174 0.05985 0.0
Cd155 Cd 0.88958 0.64819 0.04106 0.0
O156 O 0.86789 0.65201 0.07013 0.0
Cd157 Cd 0.8518 0.63724 0.05336 0.0
O158 O 0.82604 0.64435 0.03841 0.0
C159 C 0.80468 0.65156 0.04149 0.0
O160 O 0.79913 0.65264 0.05321 0.0
C161 C 0.88537 0.66749 0.06989 0.0
C162 C 0.91978 0.60666 0.04043 0.0
O163 O 0.92691 0.62715 0.03587 0.0
O164 O 0.89827 0.60576 0.04521 0.0
O165 O 0.33585 0.39082 0.3156 0.0
Cd166 Cd 0.35997 0.3828 0.29709 0.0
O167 O 0.34583 0.3556 0.32416 0.0
Cd168 Cd 0.36117 0.3404 0.30731 0.0
O169 O 0.35499 0.31623 0.29164 0.0
C170 C 0.33558 0.32036 0.28549 0.0
O171 O 0.3219 0.33938 0.28844 0.0
C172 C 0.33516 0.37637 0.32476 0.0
C173 C 0.40026 0.41439 0.29574 0.0
O174 O 0.37958 0.42024 0.29094 0.0
O175 O 0.40194 0.39351 0.30111 0.0
H176 H 0.35617 0.27617 0.279 0.0
H177 H 0.33987 0.246 0.26443 0.0
H178 H 0.2793 0.29446 0.25629 0.0
H179 H 0.29547 0.32471 0.27067 0.0
H180 H 0.29395 0.22309 0.26565 0.0
H181 H 0.304 0.27491 0.22224 0.0
H182 H 0.32001 0.28337 0.23611 0.0
H183 H 0.28843 0.29217 0.23392 0.0
C184 C 0.33957 0.28055 0.27397 0.0
C185 C 0.32714 0.30288 0.27598 0.0
C186 C 0.33026 0.26326 0.26569 0.0
C187 C 0.30855 0.26812 0.25919 0.0
C188 C 0.29634 0.29054 0.26103 0.0
H189 H 0.19727 0.1776 0.22777 0.0
H190 H 0.22478 0.20044 0.24129 0.0
C191 C 0.30557 0.30777 0.26931 0.0
C192 C 0.2977 0.24934 0.25098 0.0
H193 H 0.27605 0.24089 0.22194 0.0
C194 C 0.29033 0.22681 0.25604 0.0
C195 C 0.29331 0.25409 0.23843 0.0
C196 C 0.30208 0.27735 0.23231 0.0
C197 C 0.27761 0.20935 0.249 0.0
C198 C 0.27184 0.21479 0.23665 0.0
C199 C 0.28026 0.23683 0.23145 0.0
C200 C 0.2561 0.19855 0.22907 0.0
C201 C 0.27036 0.18534 0.25488 0.0
C202 C 0.2645 0.18993 0.2177 0.0
C203 C 0.24874 0.17703 0.2099 0.0
C204 C 0.2242 0.17265 0.2133 0.0
C205 C 0.21607 0.18057 0.22489 0.0
C206 C 0.23184 0.19351 0.23267 0.0
H207 H 0.28249 0.18081 0.26276 0.0
H208 H 0.25128 0.18685 0.25839 0.0
H209 H 0.27108 0.17 0.24818 0.0
H210 H 0.28312 0.19369 0.21472 0.0
H211 H 0.25562 0.17117 0.20104 0.0
H212 H 0.69831 0.83402 0.51998 0.0
H213 H 0.72533 0.81134 0.50607 0.0
H214 H 0.7817 0.80957 0.53383 0.0
H215 H 0.75475 0.83199 0.54787 0.0
H216 H 0.77402 0.81959 0.49704 0.0
H217 H 0.76727 0.73647 0.52657 0.0
H218 H 0.74702 0.76252 0.52832 0.0
H219 H 0.77793 0.76389 0.53404 0.0
C220 C 0.71657 0.8291 0.52308 0.0
C221 C 0.72424 0.83452 0.5351 0.0
C222 C 0.73199 0.81618 0.51511 0.0
C223 C 0.75531 0.80842 0.51901 0.0
C224 C 0.76358 0.81502 0.53073 0.0
H225 H 0.85857 0.73189 0.46977 0.0
H226 H 0.84169 0.76085 0.48482 0.0
C227 C 0.74817 0.82792 0.53872 0.0
C228 C 0.77019 0.79208 0.51108 0.0
H229 H 0.79147 0.73322 0.50877 0.0
C230 C 0.77806 0.80077 0.49962 0.0
C231 C 0.77516 0.76747 0.51447 0.0
C232 C 0.76628 0.75686 0.52647 0.0
C233 C 0.79053 0.78535 0.49136 0.0
C234 C 0.7954 0.76072 0.49474 0.0
C235 C 0.78787 0.75218 0.50628 0.0
C236 C 0.80633 0.74289 0.48605 0.0
C237 C 0.79752 0.7952 0.47891 0.0
C238 C 0.7923 0.72285 0.48206 0.0
C239 C 0.80187 0.70627 0.47355 0.0
C240 C 0.82576 0.70933 0.46888 0.0
C241 C 0.84008 0.72907 0.47315 0.0
C242 C 0.83043 0.74572 0.48168 0.0
H243 H 0.78854 0.81311 0.47693 0.0
H244 H 0.81771 0.7979 0.47854 0.0
H245 H 0.79244 0.78194 0.4716 0.0
H246 H 0.77369 0.7203 0.48536 0.0
H247 H 0.79036 0.69125 0.47049 0.0
H248 H 0.25657 0.31469 0.69713 0.0
H249 H 0.23018 0.29941 0.71356 0.0
H250 H 0.27663 0.33437 0.7404 0.0
H251 H 0.30312 0.3499 0.72401 0.0
H252 H 0.24735 0.26799 0.73208 0.0
H253 H 0.2067 0.35281 0.75175 0.0
H254 H 0.22039 0.35187 0.73666 0.0
H255 H 0.23952 0.35368 0.75006 0.0
C256 C 0.26099 0.31949 0.70651 0.0
C257 C 0.28202 0.33344 0.70926 0.0
C258 C 0.24586 0.31074 0.71588 0.0
C259 C 0.25132 0.31595 0.72817 0.0
C260 C 0.27184 0.33052 0.73095 0.0
H261 H 0.20962 0.26484 0.79929 0.0
H262 H 0.2249 0.28706 0.78142 0.0
C263 C 0.28704 0.33925 0.72158 0.0
C264 C 0.23698 0.3042 0.73811 0.0
H265 H 0.20259 0.31617 0.7636 0.0
C266 C 0.23729 0.27847 0.73889 0.0
C267 C 0.22401 0.31798 0.74698 0.0
C268 C 0.22239 0.34561 0.7463 0.0
C269 C 0.22571 0.26614 0.74859 0.0
C270 C 0.21299 0.27993 0.75759 0.0
C271 C 0.21227 0.30566 0.75666 0.0
C272 C 0.20174 0.26799 0.76843 0.0
C273 C 0.22812 0.23855 0.74939 0.0
C274 C 0.1831 0.25038 0.76709 0.0
C275 C 0.17441 0.23747 0.7773 0.0
C276 C 0.18408 0.24214 0.78903 0.0
C277 C 0.20187 0.26066 0.79039 0.0
C278 C 0.2106 0.27345 0.78019 0.0
H279 H 0.24306 0.23146 0.74341 0.0
H280 H 0.23183 0.23266 0.75896 0.0
H281 H 0.21065 0.22994 0.7464 0.0
H282 H 0.17565 0.24625 0.75812 0.0
H283 H 0.16054 0.22347 0.77596 0.0
H284 H 0.65454 0.75349 0.96267 0.0
H285 H 0.67093 0.7276 0.97919 0.0
H286 H 0.73856 0.76878 0.97859 0.0
H287 H 0.72238 0.79475 0.96226 0.0
H288 H 0.71365 0.69814 0.97835 0.0
H289 H 0.71994 0.76827 0.01503 0.0
H290 H 0.70164 0.77265 0.00139 0.0
H291 H 0.73429 0.7777 0.00097 0.0
C292 C 0.67279 0.7572 0.96616 0.0
C293 C 0.68713 0.77623 0.96117 0.0
C294 C 0.68214 0.74236 0.97556 0.0
C295 C 0.70583 0.74649 0.9802 0.0
C296 C 0.72005 0.76558 0.97531 0.0
H297 H 0.8119 0.65645 0.01673 0.0
H298 H 0.78499 0.67701 0.00199 0.0
C299 C 0.71079 0.78034 0.96592 0.0
C300 C 0.71631 0.73028 0.98979 0.0
H301 H 0.74326 0.73143 0.01802 0.0
C302 C 0.71985 0.7053 0.98709 0.0
C303 C 0.72409 0.73962 0.00124 0.0
C304 C 0.71959 0.76598 0.0049 0.0
C305 C 0.73197 0.68964 0.99536 0.0
C306 C 0.74103 0.69934 0.00651 0.0
C307 C 0.73652 0.72406 0.00941 0.0
C308 C 0.75609 0.68456 0.01511 0.0
C309 C 0.73505 0.6629 0.99206 0.0
C310 C 0.74883 0.68201 0.02739 0.0
C311 C 0.76423 0.67042 0.03585 0.0
C312 C 0.78731 0.66128 0.03222 0.0
C313 C 0.79422 0.66319 0.01983 0.0
C314 C 0.77879 0.67482 0.01137 0.0
H315 H 0.72108 0.65692 0.98527 0.0
H316 H 0.75347 0.66012 0.98792 0.0
H317 H 0.73365 0.65101 0.00031 0.0
H318 H 0.73144 0.68949 0.03048 0.0
H319 H 0.75832 0.66925 0.04532 0.0
H320 H 0.22377 0.3486 0.03048 0.0
H321 H 0.25501 0.32875 0.01764 0.0
H322 H 0.20358 0.27143 0.00848 0.0
H323 H 0.1723 0.29112 0.02114 0.0
H324 H 0.27357 0.28089 0.0209 0.0
H325 H 0.23122 0.29133 0.97502 0.0
H326 H 0.22169 0.30936 0.98809 0.0
H327 H 0.21059 0.27849 0.98614 0.0
C328 C 0.219 0.33197 0.02558 0.0
C329 C 0.19552 0.32145 0.02682 0.0
C330 C 0.23689 0.32064 0.01828 0.0
C331 C 0.23151 0.29879 0.012 0.0
C332 C 0.20797 0.28853 0.01305 0.0
H333 H 0.29864 0.1835 0.97147 0.0
H334 H 0.27304 0.21156 0.98335 0.0
C335 C 0.19014 0.29977 0.02035 0.0
C336 C 0.25078 0.28572 0.00494 0.0
H337 H 0.26281 0.26085 0.97686 0.0
C338 C 0.27148 0.27681 0.01122 0.0
C339 C 0.24797 0.28049 0.99233 0.0
C340 C 0.22679 0.29062 0.98496 0.0
C341 C 0.28881 0.26169 0.00535 0.0
C342 C 0.28545 0.25567 0.99285 0.0
C343 C 0.26524 0.26536 0.98647 0.0
C344 C 0.30182 0.23826 0.98634 0.0
C345 C 0.30996 0.25139 0.01268 0.0
C346 C 0.32662 0.24387 0.98418 0.0
C347 C 0.34141 0.22776 0.97739 0.0
C348 C 0.33156 0.20589 0.97259 0.0
C349 C 0.30684 0.20018 0.97501 0.0
C350 C 0.29213 0.21622 0.98178 0.0
H351 H 0.30731 0.25396 0.0227 0.0
H352 H 0.31236 0.23149 0.01078 0.0
H353 H 0.32715 0.26089 0.00997 0.0
H354 H 0.33436 0.26095 0.98747 0.0
H355 H 0.36035 0.23276 0.97564 0.0
H356 H 0.6833 0.75893 0.28898 0.0
H357 H 0.70325 0.78582 0.27407 0.0
H358 H 0.69253 0.73135 0.24587 0.0
H359 H 0.67235 0.70435 0.2607 0.0
H360 H 0.74609 0.7729 0.26165 0.0
H361 H 0.6715 0.79532 0.22887 0.0
H362 H 0.66558 0.78339 0.24404 0.0
H363 H 0.6748 0.76304 0.23189 0.0
C364 C 0.68478 0.7528 0.27956 0.0
C365 C 0.67631 0.72943 0.27604 0.0
C366 C 0.6962 0.76821 0.27105 0.0
C367 C 0.69918 0.76068 0.25885 0.0
C368 C 0.69001 0.73772 0.25519 0.0
H369 H 0.78169 0.80185 0.19552 0.0
H370 H 0.7536 0.78477 0.2107 0.0
C371 C 0.6786 0.72225 0.2637 0.0
C372 C 0.71393 0.77573 0.25026 0.0
H373 H 0.71249 0.80403 0.22233 0.0
C374 C 0.73869 0.78001 0.25312 0.0
C375 C 0.70421 0.78488 0.23914 0.0
C376 C 0.6775 0.78165 0.23582 0.0
C377 C 0.7543 0.79235 0.24495 0.0
C378 C 0.74471 0.80111 0.23371 0.0
C379 C 0.71978 0.79733 0.23096 0.0
C380 C 0.76065 0.81274 0.22434 0.0
C381 C 0.78114 0.79492 0.24819 0.0
C382 C 0.77359 0.83446 0.22688 0.0
C383 C 0.78986 0.84424 0.21822 0.0
C384 C 0.79328 0.83254 0.20684 0.0
C385 C 0.77961 0.81128 0.2042 0.0
C386 C 0.76347 0.8015 0.21286 0.0
H387 H 0.78657 0.78241 0.25577 0.0
H388 H 0.79295 0.79098 0.24012 0.0
H389 H 0.78477 0.81405 0.25118 0.0
H390 H 0.7713 0.8437 0.2356 0.0
H391 H 0.79996 0.86075 0.22049 0.0
H392 H 0.24375 0.16004 0.54248 0.0
H393 H 0.2154 0.18217 0.52904 0.0
H394 H 0.27332 0.19171 0.50247 0.0
H395 H 0.30167 0.16927 0.51574 0.0
H396 H 0.22068 0.22973 0.52228 0.0
H397 H 0.21632 0.17125 0.48085 0.0
H398 H 0.2282 0.16021 0.4953 0.0
H399 H 0.24734 0.17808 0.48522 0.0
C400 C 0.25036 0.16643 0.53368 0.0
C401 C 0.27501 0.16294 0.5302 0.0
C402 C 0.23412 0.1791 0.52601 0.0
C403 C 0.24216 0.18839 0.5147 0.0
C404 C 0.26655 0.18425 0.51104 0.0
H405 H 0.19981 0.31526 0.47455 0.0
H406 H 0.21627 0.28479 0.48874 0.0
C407 C 0.28279 0.17153 0.51868 0.0
C408 C 0.22586 0.20443 0.50729 0.0
H409 H 0.20382 0.21341 0.47833 0.0
C410 C 0.21668 0.22597 0.51272 0.0
C411 C 0.22034 0.19937 0.49487 0.0
C412 C 0.22836 0.17583 0.48875 0.0
C413 C 0.20318 0.24316 0.5059 0.0
C414 C 0.19911 0.23889 0.49327 0.0
C415 C 0.20719 0.21679 0.48799 0.0
C416 C 0.18797 0.2578 0.48522 0.0
C417 C 0.19362 0.26587 0.51225 0.0
C418 C 0.1667 0.25266 0.47842 0.0
C419 C 0.15725 0.27007 0.47022 0.0
C420 C 0.16908 0.29281 0.46862 0.0
C421 C 0.19017 0.29799 0.47559 0.0
C422 C 0.19955 0.28063 0.48377 0.0
H423 H 0.19142 0.2628 0.52226 0.0
H424 H 0.20695 0.28107 0.51098 0.0
H425 H 0.17567 0.27173 0.50838 0.0
H426 H 0.15758 0.23508 0.47936 0.0
H427 H 0.14103 0.26548 0.46495 0.0
H428 H 0.74199 0.7972 0.80726 0.0
H429 H 0.71353 0.77004 0.79639 0.0
H430 H 0.77451 0.7357 0.77782 0.0
H431 H 0.80307 0.76254 0.78867 0.0
H432 H 0.70896 0.7688 0.77093 0.0
H433 H 0.7334 0.67668 0.78887 0.0
H434 H 0.74197 0.70476 0.79658 0.0
H435 H 0.75938 0.69404 0.78361 0.0
C436 C 0.74938 0.78362 0.801 0.0
C437 C 0.7748 0.78209 0.7988 0.0
C438 C 0.73309 0.76811 0.79481 0.0
C439 C 0.74194 0.75065 0.78643 0.0
C440 C 0.76733 0.74868 0.78444 0.0
H441 H 0.68859 0.66128 0.72783 0.0
H442 H 0.71166 0.6805 0.74449 0.0
C443 C 0.78362 0.76419 0.79059 0.0
C444 C 0.72463 0.73614 0.77886 0.0
H445 H 0.70978 0.67764 0.77033 0.0
C446 C 0.70883 0.74887 0.77092 0.0
C447 C 0.72467 0.71016 0.77884 0.0
C448 C 0.7406 0.69558 0.78751 0.0
C449 C 0.69376 0.73633 0.76259 0.0
C450 C 0.69412 0.71033 0.76239 0.0
C451 C 0.70951 0.69757 0.77053 0.0
C452 C 0.67968 0.69625 0.75328 0.0
C453 C 0.67843 0.75107 0.75369 0.0
C454 C 0.65396 0.69799 0.75297 0.0
C455 C 0.64071 0.68714 0.74342 0.0
C456 C 0.65296 0.6742 0.73407 0.0
C457 C 0.6786 0.67123 0.73484 0.0
C458 C 0.69182 0.68217 0.74436 0.0
H459 H 0.68442 0.77056 0.75321 0.0
H460 H 0.67937 0.74306 0.74434 0.0
H461 H 0.65896 0.7508 0.75671 0.0
H462 H 0.64421 0.70835 0.75992 0.0
H463 H 0.62096 0.68956 0.74318 0.0
H464 H 0.07827 0.19403 0.1681 0.0
H465 H 0.06939 0.22055 0.15048 0.0
H466 H 0.14179 0.2063 0.13604 0.0
H467 H 0.15076 0.17972 0.15347 0.0
H468 H 0.09528 0.26297 0.14452 0.0
H469 H 0.09789 0.19679 0.10602 0.0
H470 H 0.09458 0.18724 0.1218 0.0
H471 H 0.12444 0.19449 0.11571 0.0
C472 C 0.09215 0.1962 0.16106 0.0
C473 C 0.11524 0.18476 0.1622 0.0
C474 C 0.08705 0.21139 0.15102 0.0
C475 C 0.10482 0.21515 0.14189 0.0
C476 C 0.12762 0.20327 0.14285 0.0
H477 H 0.14283 0.33224 0.09492 0.0
H478 H 0.13455 0.30446 0.11197 0.0
C479 C 0.13277 0.18818 0.15288 0.0
C480 C 0.10053 0.23301 0.13187 0.0
H481 H 0.10393 0.23934 0.10079 0.0
C482 C 0.09673 0.25777 0.13494 0.0
C483 C 0.10208 0.22615 0.11938 0.0
C484 C 0.10472 0.19967 0.11551 0.0
C485 C 0.09589 0.27605 0.12587 0.0
C486 C 0.09927 0.26939 0.11345 0.0
C487 C 0.10159 0.24447 0.11033 0.0
C488 C 0.10243 0.28798 0.10366 0.0
C489 C 0.09183 0.30238 0.12969 0.0
C490 C 0.08716 0.28792 0.0933 0.0
C491 C 0.09191 0.30375 0.08348 0.0
C492 C 0.11221 0.31974 0.08381 0.0
C493 C 0.12702 0.32022 0.09437 0.0
C494 C 0.12222 0.30445 0.10417 0.0
H495 H 0.08191 0.30351 0.13858 0.0
H496 H 0.1099 0.3115 0.13087 0.0
H497 H 0.08123 0.31266 0.12266 0.0
H498 H 0.07189 0.27523 0.0927 0.0
H499 H 0.08017 0.30287 0.07547 0.0
H500 H 0.69341 0.66709 0.33422 0.0
H501 H 0.71974 0.66098 0.35201 0.0
H502 H 0.7125 0.58245 0.34823 0.0
H503 H 0.68628 0.58836 0.33018 0.0
H504 H 0.7106 0.63701 0.37412 0.0
H505 H 0.78728 0.59288 0.34838 0.0
H506 H 0.76254 0.60887 0.34076 0.0
H507 H 0.75757 0.57875 0.34698 0.0
C508 C 0.69728 0.64848 0.33716 0.0
C509 C 0.68785 0.62821 0.3307 0.0
C510 C 0.71234 0.64503 0.34735 0.0
C511 C 0.71836 0.62128 0.35133 0.0
C512 C 0.70844 0.60094 0.34516 0.0
H513 H 0.8184 0.59249 0.41353 0.0
H514 H 0.7886 0.58526 0.39701 0.0
C515 C 0.69334 0.60437 0.3349 0.0
C516 C 0.73531 0.61825 0.36185 0.0
H517 H 0.79361 0.60037 0.36939 0.0
C518 C 0.72862 0.62871 0.37313 0.0
C519 C 0.75882 0.60738 0.36052 0.0
C520 C 0.76718 0.59645 0.34851 0.0
C521 C 0.74511 0.62935 0.38299 0.0
C522 C 0.76892 0.61943 0.3815 0.0
C523 C 0.77529 0.60793 0.37044 0.0
C524 C 0.78803 0.62306 0.39093 0.0
C525 C 0.73728 0.64127 0.39486 0.0
C526 C 0.7979 0.64655 0.39271 0.0
C527 C 0.81492 0.65073 0.40202 0.0
C528 C 0.82238 0.63148 0.40979 0.0
C529 C 0.813 0.60773 0.40773 0.0
C530 C 0.796 0.60354 0.39832 0.0
H531 H 0.71699 0.64325 0.39546 0.0
H532 H 0.74383 0.63041 0.40284 0.0
H533 H 0.74556 0.65985 0.39547 0.0
H534 H 0.79208 0.66177 0.38699 0.0
H535 H 0.82177 0.66923 0.40331 0.0
H536 H 0.42216 0.18423 0.57566 0.0
H537 H 0.4312 0.20991 0.59355 0.0
H538 H 0.35775 0.198 0.60713 0.0
H539 H 0.34865 0.17216 0.58946 0.0
H540 H 0.40754 0.25288 0.59961 0.0
H541 H 0.39914 0.18609 0.63757 0.0
H542 H 0.40254 0.17671 0.62177 0.0
H543 H 0.37286 0.18543 0.62765 0.0
C544 C 0.40807 0.18674 0.58256 0.0
C545 C 0.38467 0.17613 0.58112 0.0
C546 C 0.41326 0.20145 0.59276 0.0
C547 C 0.39526 0.20559 0.60174 0.0
C548 C 0.3721 0.1946 0.60045 0.0
H549 H 0.35992 0.32413 0.64833 0.0
H550 H 0.36838 0.29629 0.63134 0.0
C551 C 0.36688 0.17995 0.59029 0.0
C552 C 0.39975 0.22296 0.61195 0.0
H553 H 0.39421 0.2288 0.64297 0.0
C554 C 0.40507 0.24755 0.60911 0.0
C555 C 0.39694 0.21593 0.62436 0.0
C556 C 0.39282 0.18953 0.62803 0.0
C557 C 0.40615 0.26557 0.6183 0.0
C558 C 0.40137 0.25884 0.6306 0.0
C559 C 0.39758 0.23401 0.63352 0.0
C560 C 0.39827 0.27738 0.64044 0.0
C561 C 0.41199 0.29168 0.61472 0.0
C562 C 0.41216 0.27593 0.65125 0.0
C563 C 0.40724 0.29175 0.66106 0.0
C564 C 0.38817 0.30916 0.66025 0.0
C565 C 0.37479 0.31102 0.64926 0.0
C566 C 0.37972 0.29521 0.63948 0.0
H567 H 0.42304 0.29234 0.60616 0.0
H568 H 0.39458 0.30175 0.61301 0.0
H569 H 0.4222 0.30133 0.6221 0.0
H570 H 0.42646 0.26219 0.6522 0.0
H571 H 0.41788 0.2898 0.6694 0.0
H572 H 0.69303 0.81081 0.89419 0.0
H573 H 0.7225 0.82011 0.87802 0.0
H574 H 0.71025 0.89765 0.8834 0.0
H575 H 0.6809 0.88855 0.89982 0.0
H576 H 0.71843 0.84633 0.85608 0.0
H577 H 0.78458 0.89035 0.88816 0.0
H578 H 0.75877 0.87248 0.89345 0.0
H579 H 0.75421 0.90331 0.88802 0.0
C580 C 0.69642 0.82988 0.89192 0.0
C581 C 0.68477 0.84895 0.89841 0.0
C582 C 0.71327 0.83514 0.88264 0.0
C583 C 0.71887 0.85956 0.87966 0.0
C584 C 0.70654 0.87868 0.88573 0.0
H585 H 0.83572 0.91257 0.83113 0.0
H586 H 0.79962 0.91075 0.84458 0.0
C587 C 0.68967 0.87343 0.89506 0.0
C588 C 0.73827 0.86471 0.87048 0.0
H589 H 0.79601 0.8884 0.86738 0.0
C590 C 0.73533 0.85568 0.85851 0.0
C591 C 0.7603 0.8769 0.8737 0.0
C592 C 0.76487 0.88618 0.88654 0.0
C593 C 0.75396 0.85826 0.8497 0.0
C594 C 0.77623 0.86986 0.85302 0.0
C595 C 0.77889 0.87953 0.86487 0.0
C596 C 0.79748 0.87106 0.84455 0.0
C597 C 0.74965 0.84849 0.83693 0.0
C598 C 0.80849 0.84935 0.8403 0.0
C599 C 0.8291 0.85035 0.83268 0.0
C600 C 0.83903 0.87308 0.82915 0.0
C601 C 0.82828 0.8948 0.83362 0.0
C602 C 0.80766 0.89379 0.84126 0.0
H603 H 0.72972 0.84695 0.83486 0.0
H604 H 0.75838 0.86043 0.82992 0.0
H605 H 0.75781 0.82985 0.83618 0.0
H606 H 0.80146 0.83159 0.84308 0.0
H607 H 0.83765 0.8333 0.82988 0.0
H608 H 0.56179 0.6966 0.66723 0.0
H609 H 0.55841 0.722 0.64878 0.0
H610 H 0.63298 0.70358 0.63902 0.0
H611 H 0.63649 0.67803 0.65732 0.0
H612 H 0.58738 0.76274 0.64371 0.0
H613 H 0.59605 0.69343 0.60678 0.0
H614 H 0.5888 0.68529 0.62243 0.0
H615 H 0.62009 0.6912 0.618 0.0
C616 C 0.57734 0.69761 0.66106 0.0
C617 C 0.59943 0.68528 0.66377 0.0
C618 C 0.57538 0.71217 0.65053 0.0
C619 C 0.59534 0.71445 0.64247 0.0
C620 C 0.61718 0.70169 0.64499 0.0
H621 H 0.64321 0.82802 0.59458 0.0
H622 H 0.63315 0.80107 0.61174 0.0
C623 C 0.61919 0.6872 0.6555 0.0
C624 C 0.59419 0.73165 0.63196 0.0
H625 H 0.6036 0.73536 0.60107 0.0
C626 C 0.59056 0.75673 0.63435 0.0
C627 C 0.59805 0.72374 0.61976 0.0
C628 C 0.60072 0.69691 0.61655 0.0
C629 C 0.59188 0.77426 0.62494 0.0
C630 C 0.59728 0.76649 0.61287 0.0
C631 C 0.5997 0.7413 0.61037 0.0
C632 C 0.60191 0.78421 0.60282 0.0
C633 C 0.58775 0.80097 0.62803 0.0
C634 C 0.58776 0.78358 0.59208 0.0
C635 C 0.59351 0.79894 0.58221 0.0
C636 C 0.6137 0.81502 0.58287 0.0
C637 C 0.6275 0.81593 0.59376 0.0
C638 C 0.6217 0.80063 0.60362 0.0
H639 H 0.57677 0.80308 0.63656 0.0
H640 H 0.60578 0.80998 0.62953 0.0
H641 H 0.5782 0.81068 0.62045 0.0
H642 H 0.57249 0.77093 0.59127 0.0
H643 H 0.58254 0.79771 0.57395 0.0
H644 H 0.33613 0.09688 0.92135 0.0
H645 H 0.30832 0.09132 0.90391 0.0
H646 H 0.32451 0.16481 0.89156 0.0
H647 H 0.35247 0.17044 0.90878 0.0
H648 H 0.26671 0.11876 0.89928 0.0
H649 H 0.33102 0.12508 0.86012 0.0
H650 H 0.3413 0.11968 0.87564 0.0
H651 H 0.33434 0.15037 0.87054 0.0
C652 C 0.33409 0.11171 0.91481 0.0
C653 C 0.34654 0.13411 0.91646 0.0
C654 C 0.31816 0.10851 0.90487 0.0
C655 C 0.3146 0.12754 0.89637 0.0
C656 C 0.32739 0.14969 0.89786 0.0
H657 H 0.19421 0.17166 0.8521 0.0
H658 H 0.22311 0.16193 0.8685 0.0
C659 C 0.34327 0.15292 0.90777 0.0
C660 C 0.29615 0.12517 0.88646 0.0
H661 H 0.28839 0.13283 0.85566 0.0
C662 C 0.27147 0.12143 0.88971 0.0
C663 C 0.30243 0.12828 0.87397 0.0
C664 C 0.32876 0.13082 0.86984 0.0
C665 C 0.25275 0.12207 0.88087 0.0
C666 C 0.25887 0.12699 0.8685 0.0
C667 C 0.28367 0.12936 0.86516 0.0
C668 C 0.23988 0.13126 0.85901 0.0
C669 C 0.22658 0.11776 0.88488 0.0
C670 C 0.23983 0.1174 0.84816 0.0
C671 C 0.22345 0.12306 0.8387 0.0
C672 C 0.2069 0.14281 0.83989 0.0
C673 C 0.20661 0.15627 0.8509 0.0
C674 C 0.22302 0.15062 0.86033 0.0
H675 H 0.2258 0.10661 0.89341 0.0
H676 H 0.2177 0.13571 0.88681 0.0
H677 H 0.21584 0.10829 0.87763 0.0
H678 H 0.2528 0.10248 0.84693 0.0
H679 H 0.22417 0.11232 0.83035 0.0
H680 H 0.87148 0.84106 0.14695 0.0
H681 H 0.87643 0.81229 0.12992 0.0
H682 H 0.91616 0.76261 0.15351 0.0
H683 H 0.91183 0.79152 0.17054 0.0
H684 H 0.93584 0.76469 0.13015 0.0
H685 H 0.83504 0.75014 0.12856 0.0
H686 H 0.84377 0.78168 0.12662 0.0
H687 H 0.84987 0.76636 0.14092 0.0
C688 C 0.88155 0.82416 0.14849 0.0
C689 C 0.89099 0.81845 0.16015 0.0
C690 C 0.88424 0.80768 0.13876 0.0
C691 C 0.89612 0.78506 0.14054 0.0
C692 C 0.90676 0.77989 0.15197 0.0
H693 H 0.86936 0.65965 0.09333 0.0
H694 H 0.87488 0.68649 0.11107 0.0
C695 C 0.90425 0.79645 0.1617 0.0
C696 C 0.89632 0.76628 0.1307 0.0
H697 H 0.85838 0.7323 0.1125 0.0
C698 C 0.91893 0.75752 0.1263 0.0
C699 C 0.87422 0.75656 0.1259 0.0
C700 C 0.84935 0.76395 0.13081 0.0
C701 C 0.92003 0.73968 0.11699 0.0
C702 C 0.89791 0.73078 0.11182 0.0
C703 C 0.87534 0.73923 0.11641 0.0
C704 C 0.89747 0.713 0.1015 0.0
C705 C 0.94483 0.7303 0.11294 0.0
C706 C 0.9087 0.71873 0.09027 0.0
C707 C 0.90578 0.70328 0.08014 0.0
C708 C 0.89122 0.68201 0.08099 0.0
C709 C 0.88062 0.67593 0.09235 0.0
C710 C 0.88375 0.69126 0.1025 0.0
H711 H 0.95893 0.73293 0.12018 0.0
H712 H 0.94406 0.71049 0.11053 0.0
H713 H 0.95084 0.74069 0.10471 0.0
H714 H 0.91888 0.73567 0.08919 0.0
H715 H 0.91405 0.7086 0.0715 0.0
H716 H 0.19159 0.41017 0.41949 0.0
H717 H 0.2204 0.42053 0.40302 0.0
H718 H 0.19965 0.35473 0.3836 0.0
H719 H 0.1707 0.34442 0.39984 0.0
H720 H 0.26014 0.39287 0.39597 0.0
H721 H 0.1976 0.40603 0.35658 0.0
H722 H 0.18686 0.40599 0.37226 0.0
H723 H 0.19198 0.37746 0.36428 0.0
C724 C 0.19286 0.39812 0.41161 0.0
C725 C 0.17883 0.37645 0.41099 0.0
C726 C 0.20935 0.40406 0.40222 0.0
C727 C 0.21192 0.38858 0.39201 0.0
C728 C 0.19757 0.36724 0.39126 0.0
H729 H 0.32943 0.3494 0.34569 0.0
H730 H 0.30112 0.35721 0.36256 0.0
C731 C 0.18112 0.36129 0.40061 0.0
C732 C 0.23097 0.39341 0.38261 0.0
H733 H 0.23975 0.39624 0.35167 0.0
C734 C 0.25568 0.39407 0.3863 0.0
C735 C 0.22514 0.3954 0.37001 0.0
C736 C 0.19892 0.39645 0.36556 0.0
C737 C 0.27476 0.3951 0.37765 0.0
C738 C 0.26894 0.39505 0.36501 0.0
C739 C 0.24422 0.39598 0.36136 0.0
C740 C 0.28801 0.39195 0.35543 0.0
C741 C 0.30096 0.3958 0.38214 0.0
C742 C 0.28999 0.40882 0.34575 0.0
C743 C 0.30609 0.40432 0.336 0.0
C744 C 0.32034 0.38272 0.33572 0.0
C745 C 0.31881 0.36625 0.34562 0.0
C746 C 0.30274 0.37077 0.35534 0.0
H747 H 0.30216 0.40406 0.39144 0.0
H748 H 0.30817 0.37675 0.38274 0.0
H749 H 0.3129 0.40642 0.37581 0.0
H750 H 0.27866 0.4252 0.3456 0.0
H751 H 0.30678 0.41737 0.32851 0.0
H752 H 0.03756 0.09857 0.21116 0.0
H753 H 0.01039 0.06283 0.21126 0.0
H754 H 0.06559 0.02038 0.19236 0.0
H755 H 0.0928 0.05613 0.19207 0.0
H756 H 0.01904 0.01575 0.18217 0.0
H757 H 0.01622 0.0011 0.2325 0.0
H758 H 0.00822 0.03172 0.22784 0.0
H759 H 0.03883 0.02045 0.22521 0.0
C760 C 0.04399 0.08161 0.20708 0.0
C761 C 0.06739 0.08018 0.20164 0.0
C762 C 0.02848 0.06115 0.20721 0.0
C763 C 0.03612 0.03885 0.20198 0.0
C764 C 0.0594 0.03739 0.1965 0.0
H765 H 0.96551 0.89665 0.21048 0.0
H766 H 0.99399 0.9314 0.21062 0.0
C767 C 0.07493 0.05783 0.19636 0.0
C768 C 0.01953 0.01725 0.2019 0.0
H769 H 0.98781 0.97813 0.22056 0.0
C770 C 0.01227 0.00746 0.19056 0.0
C771 C 0.01097 0.00629 0.21286 0.0
C772 C 0.01911 0.01525 0.2253 0.0
C773 C 0.99632 0.98725 0.18987 0.0
C774 C 0.9871 0.97682 0.20083 0.0
C775 C 0.99471 0.98632 0.21217 0.0
C776 C 0.96971 0.95587 0.20072 0.0
C777 C 0.98978 0.97702 0.17744 0.0
C778 C 0.94649 0.95821 0.19524 0.0
C779 C 0.93018 0.93838 0.19513 0.0
C780 C 0.93675 0.91587 0.20056 0.0
C781 C 0.95991 0.9137 0.20619 0.0
C782 C 0.9762 0.93354 0.20629 0.0
H783 H 0.00315 0.9828 0.1703 0.0
H784 H 0.98906 0.95664 0.17764 0.0
H785 H 0.97138 0.98393 0.17472 0.0
H786 H 0.94092 0.97543 0.19111 0.0
H787 H 0.91244 0.94071 0.19078 0.0
H788 H 0.08947 0.44231 0.46665 0.0
H789 H 0.05655 0.47293 0.46742 0.0
H790 H 0.02477 0.44213 0.43461 0.0
H791 H 0.05708 0.41095 0.43405 0.0
H792 H 0.04511 0.50808 0.45184 0.0
H793 H 0.96523 0.44592 0.45601 0.0
H794 H 0.99641 0.43527 0.45783 0.0
H795 H 0.98341 0.43896 0.44275 0.0
C796 C 0.07533 0.44193 0.45967 0.0
C797 C 0.07578 0.42411 0.45034 0.0
C798 C 0.05654 0.45945 0.46011 0.0
C799 C 0.0379 0.45959 0.4512 0.0
C800 C 0.03849 0.44197 0.4418 0.0
H801 H 0.94711 0.58506 0.43241 0.0
H802 H 0.97873 0.55326 0.43372 0.0
C803 C 0.05709 0.42425 0.44144 0.0
C804 C 0.0185 0.47882 0.45145 0.0
H805 H 0.95639 0.48758 0.45055 0.0
C806 C 0.0257 0.50359 0.45166 0.0
C807 C 0.99315 0.47299 0.45142 0.0
C808 C 0.98408 0.44684 0.45212 0.0
C809 C 0.00831 0.52266 0.45157 0.0
C810 C 0.98301 0.51683 0.45085 0.0
C811 C 0.97578 0.49207 0.45093 0.0
C812 C 0.96372 0.5361 0.45 0.0
C813 C 0.0173 0.54882 0.45246 0.0
C814 C 0.94421 0.53653 0.45843 0.0
C815 C 0.92582 0.55442 0.45755 0.0
C816 C 0.92666 0.57229 0.44825 0.0
C817 C 0.9461 0.57172 0.43977 0.0
C818 C 0.9643 0.55365 0.44056 0.0
H819 H 0.03569 0.54979 0.45686 0.0
H820 H 0.01901 0.55662 0.4431 0.0
H821 H 0.00435 0.56043 0.45779 0.0
H822 H 0.94329 0.5231 0.46575 0.0
H823 H 0.91108 0.55435 0.46422 0.0
H824 H 0.57169 0.56007 0.69474 0.0
H825 H 0.54614 0.52311 0.6945 0.0
H826 H 0.4857 0.56428 0.70977 0.0
H827 H 0.51115 0.6013 0.71015 0.0
H828 H 0.49434 0.51873 0.7214 0.0
H829 H 0.48885 0.50915 0.67076 0.0
H830 H 0.5195 0.51152 0.67675 0.0
H831 H 0.4988 0.53711 0.67814 0.0
C832 C 0.55295 0.56129 0.69803 0.0
C833 C 0.54342 0.58366 0.70243 0.0
C834 C 0.53834 0.54018 0.69782 0.0
C835 C 0.51394 0.54107 0.70196 0.0
C836 C 0.50447 0.56327 0.70648 0.0
H837 H 0.3995 0.43241 0.6908 0.0
H838 H 0.42445 0.46977 0.6914 0.0
C839 C 0.51903 0.58439 0.70668 0.0
C840 C 0.49838 0.51877 0.70176 0.0
H841 H 0.47274 0.47633 0.6826 0.0
C842 C 0.48956 0.50946 0.71292 0.0
C843 C 0.49198 0.50692 0.69067 0.0
C844 C 0.50006 0.51675 0.67838 0.0
C845 C 0.47477 0.48836 0.71331 0.0
C846 C 0.46892 0.47613 0.70225 0.0
C847 C 0.47743 0.48565 0.69107 0.0
C848 C 0.45379 0.45353 0.70206 0.0
C849 C 0.46523 0.47954 0.72553 0.0
C850 C 0.46215 0.43198 0.70777 0.0
C851 C 0.44796 0.4106 0.70744 0.0
C852 C 0.42517 0.41037 0.70135 0.0
C853 C 0.41692 0.43199 0.6956 0.0
C854 C 0.43115 0.45334 0.69591 0.0
H855 H 0.46631 0.4941 0.73265 0.0
H856 H 0.44587 0.47332 0.72476 0.0
H857 H 0.47648 0.46372 0.72866 0.0
H858 H 0.47978 0.43163 0.71237 0.0
H859 H 0.4549 0.39424 0.71191 0.0
H860 H 0.43135 0.04922 0.9674 0.0
H861 H 0.46173 0.01618 0.96594 0.0
H862 H 0.49522 0.05242 0.93498 0.0
H863 H 0.46552 0.08592 0.93669 0.0
H864 H 0.46975 0.98448 0.94823 0.0
H865 H 0.55482 0.03818 0.95512 0.0
H866 H 0.52474 0.0509 0.95796 0.0
H867 H 0.53696 0.04991 0.94261 0.0
C868 C 0.44536 0.05027 0.96036 0.0
C869 C 0.44614 0.07026 0.95221 0.0
C870 C 0.4627 0.03136 0.95953 0.0
C871 C 0.48107 0.03198 0.95048 0.0
C872 C 0.48173 0.05185 0.94227 0.0
H873 H 0.55974 0.90479 0.92292 0.0
H874 H 0.53124 0.93874 0.92655 0.0
C875 C 0.46461 0.07093 0.9432 0.0
C876 C 0.49877 0.01129 0.94928 0.0
H877 H 0.55986 0.99766 0.94694 0.0
C878 C 0.48947 0.98736 0.94806 0.0
C879 C 0.52452 0.01493 0.94925 0.0
C880 C 0.53586 0.03984 0.95144 0.0
C881 C 0.50513 0.96707 0.94654 0.0
C882 C 0.53082 0.97089 0.94581 0.0
C883 C 0.54016 0.99475 0.94732 0.0
C884 C 0.54834 0.95044 0.9435 0.0
C885 C 0.49394 0.94174 0.94595 0.0
C886 C 0.56806 0.94625 0.95154 0.0
C887 C 0.58469 0.92714 0.94935 0.0
C888 C 0.58186 0.91176 0.93909 0.0
C889 C 0.56226 0.91613 0.93098 0.0
C890 C 0.54583 0.93543 0.93309 0.0
H891 H 0.47571 0.94122 0.95054 0.0
H892 H 0.49118 0.93653 0.93621 0.0
H893 H 0.50604 0.92783 0.95033 0.0
H894 H 0.57047 0.95767 0.95959 0.0
H895 H 0.59962 0.92427 0.95576 0.0
H896 H 0.96637 0.60303 0.03119 0.0
H897 H 0.99338 0.56709 0.03135 0.0
H898 H 0.93706 0.52487 0.04947 0.0
H899 H 0.90999 0.56081 0.04949 0.0
H900 H 0.98313 0.51992 0.06024 0.0
H901 H 0.98831 0.50551 0.00993 0.0
H902 H 0.99614 0.53607 0.01473 0.0
H903 H 0.96539 0.52492 0.01698 0.0
C904 C 0.95966 0.58607 0.03515 0.0
C905 C 0.93598 0.58477 0.04029 0.0
C906 C 0.97508 0.56551 0.03518 0.0
C907 C 0.96709 0.54322 0.04026 0.0
C908 C 0.94353 0.54187 0.04544 0.0
H909 H 0.03764 0.4006 0.03259 0.0
H910 H 0.00932 0.43553 0.03205 0.0
C911 C 0.92808 0.56242 0.04543 0.0
C912 C 0.98358 0.52151 0.04051 0.0
H913 H 0.01608 0.48232 0.02218 0.0
C914 C 0.99027 0.51163 0.05192 0.0
C915 C 0.99263 0.51056 0.02964 0.0
C916 C 0.9851 0.51963 0.01711 0.0
C917 C 0.00615 0.49134 0.05277 0.0
C918 C 0.01586 0.48092 0.04191 0.0
C919 C 0.0088 0.49051 0.03049 0.0
C920 C 0.0332 0.4599 0.04221 0.0
C921 C 0.01209 0.48103 0.06527 0.0
C922 C 0.05617 0.46213 0.04794 0.0
C923 C 0.0724 0.44221 0.04828 0.0
C924 C 0.06601 0.41969 0.04281 0.0
C925 C 0.04312 0.41764 0.03691 0.0
C926 C 0.02691 0.43759 0.03658 0.0
H927 H 0.99842 0.48685 0.07226 0.0
H928 H 0.01274 0.46064 0.06504 0.0
H929 H 0.03038 0.48782 0.0682 0.0
H930 H 0.0616 0.47934 0.05212 0.0
H931 H 0.08993 0.44445 0.05283 0.0
H932 H 0.55548 0.59158 0.30337 0.0
H933 H 0.52178 0.5619 0.30349 0.0
H934 H 0.56805 0.50878 0.28535 0.0
H935 H 0.6018 0.53843 0.28505 0.0
H936 H 0.52122 0.51264 0.27507 0.0
H937 H 0.51627 0.50115 0.32558 0.0
H938 H 0.51422 0.53249 0.32051 0.0
H939 H 0.54209 0.51544 0.31804 0.0
C940 C 0.55852 0.57357 0.29942 0.0
C941 C 0.58137 0.56734 0.29424 0.0
C942 C 0.53927 0.55659 0.29956 0.0
C943 C 0.54254 0.53302 0.2946 0.0
C944 C 0.5652 0.52684 0.28929 0.0
H945 H 0.44628 0.40738 0.30523 0.0
H946 H 0.48115 0.43569 0.30453 0.0
C947 C 0.58447 0.5438 0.28914 0.0
C948 C 0.5222 0.51493 0.29477 0.0
H949 H 0.48407 0.4832 0.31393 0.0
C950 C 0.51313 0.50612 0.28356 0.0
C951 C 0.51192 0.50623 0.30587 0.0
C952 C 0.52174 0.51411 0.31819 0.0
C953 C 0.49371 0.48919 0.28313 0.0
C954 C 0.48288 0.48113 0.29422 0.0
C955 C 0.49227 0.48958 0.30544 0.0
C956 C 0.46182 0.46388 0.29439 0.0
C957 C 0.48518 0.4798 0.27083 0.0
C958 C 0.43934 0.47045 0.28901 0.0
C959 C 0.41938 0.45431 0.28937 0.0
C960 C 0.42151 0.43134 0.2952 0.0
C961 C 0.44404 0.42488 0.30064 0.0
C962 C 0.46398 0.44104 0.30027 0.0
H963 H 0.4993 0.48265 0.2636 0.0
H964 H 0.48067 0.45993 0.27128 0.0
H965 H 0.46836 0.48991 0.26806 0.0
H966 H 0.43713 0.48818 0.28464 0.0
H967 H 0.40226 0.45991 0.28516 0.0
H968 H 0.41192 0.04972 0.55003 0.0
H969 H 0.44124 0.01563 0.54975 0.0
H970 H 0.49406 0.06137 0.53114 0.0
H971 H 0.46476 0.0955 0.53123 0.0
H972 H 0.4899 0.01455 0.52099 0.0
H973 H 0.50243 0.00991 0.57144 0.0
H974 H 0.47098 0.00791 0.56657 0.0
H975 H 0.48799 0.03572 0.56394 0.0
C976 C 0.42977 0.05255 0.54587 0.0
C977 C 0.43605 0.07538 0.5407 0.0
C978 C 0.44655 0.03308 0.54578 0.0
C979 C 0.46996 0.03611 0.54061 0.0
C980 C 0.47613 0.05871 0.53524 0.0
H981 H 0.59521 0.93906 0.55119 0.0
H982 H 0.56716 0.97419 0.55035 0.0
C983 C 0.45936 0.07819 0.53531 0.0
C984 C 0.48798 0.01565 0.5407 0.0
H985 H 0.52001 0.97751 0.55976 0.0
C986 C 0.49656 0.00648 0.52946 0.0
C987 C 0.49688 0.00542 0.55177 0.0
C988 C 0.48931 0.01536 0.56412 0.0
C989 C 0.51347 0.987 0.52898 0.0
C990 C 0.52172 0.9762 0.54004 0.0
C991 C 0.51349 0.98568 0.55128 0.0
C992 C 0.53893 0.95506 0.54018 0.0
C993 C 0.52264 0.97839 0.51664 0.0
C994 C 0.53229 0.93261 0.5348 0.0
C995 C 0.54829 0.91251 0.53523 0.0
C996 C 0.57118 0.91445 0.54114 0.0
C997 C 0.57775 0.93696 0.54654 0.0
C998 C 0.56174 0.95705 0.54609 0.0
H999 H 0.5198 0.99255 0.50943 0.0
H1000 H 0.54248 0.97368 0.51702 0.0
H1001 H 0.51236 0.96168 0.51389 0.0
H1002 H 0.51456 0.93051 0.53041 0.0
H1003 H 0.5426 0.8954 0.53104 0.0
H1004 H 0.98474 0.93653 0.8205 0.0
H1005 H 0.0136 0.97079 0.81943 0.0
H1006 H 0.96368 0.01017 0.7958 0.0
H1007 H 0.9349 0.97572 0.7966 0.0
H1008 H 0.01001 0.01005 0.78687 0.0
H1009 H 0.01147 0.0375 0.83574 0.0
H1010 H 0.0182 0.00551 0.83364 0.0
H1011 H 0.98838 0.01724 0.82953 0.0
C1012 C 0.97976 0.95258 0.81518 0.0
C1013 C 0.95751 0.95341 0.80865 0.0
C1014 C 0.99623 0.97222 0.81464 0.0
C1015 C 0.99063 0.99321 0.80769 0.0
C1016 C 0.96831 0.99421 0.80127 0.0
H1017 H 0.08115 0.12573 0.81031 0.0
H1018 H 0.04668 0.09694 0.81131 0.0
C1019 C 0.95187 0.97451 0.80175 0.0
C1020 C 0.00871 0.01343 0.80654 0.0
H1021 H 0.04405 0.05305 0.82318 0.0
C1022 C 0.01728 0.01963 0.7948 0.0
C1023 C 0.01792 0.02617 0.81687 0.0
C1024 C 0.00834 0.02146 0.82964 0.0
C1025 C 0.03539 0.03764 0.79313 0.0
C1026 C 0.04559 0.0494 0.80352 0.0
C1027 C 0.03643 0.04381 0.81523 0.0
C1028 C 0.06616 0.06711 0.80248 0.0
C1029 C 0.04332 0.04399 0.78026 0.0
C1030 C 0.08858 0.05984 0.79725 0.0
C1031 C 0.10824 0.07626 0.7966 0.0
C1032 C 0.10595 0.10021 0.8013 0.0
C1033 C 0.08349 0.10743 0.80658 0.0
C1034 C 0.06379 0.09101 0.80717 0.0
H1035 H 0.0289 0.03924 0.77345 0.0
H1036 H 0.04765 0.06385 0.77939 0.0
H1037 H 0.06007 0.03332 0.77792 0.0
H1038 H 0.09103 0.04131 0.79385 0.0
H1039 H 0.12535 0.07005 0.79258 0.0
loop_
_geom_bond_atom_site_label_1
_geom_bond_atom_site_label_2
_geom_bond_distance
_geom_bond_site_symmetry_2
_ccdc_geom_bond_type
O0 Cd1 2.300 . S
O0 C7 1.275 . S
Cd1 O0 2.300 . S
Cd1 O9 2.381 . S
Cd1 O10 2.378 . S
O2 Cd3 2.385 . S
O2 C7 1.255 . S
Cd3 O2 2.385 . S
Cd3 O4 2.317 . S
O4 Cd3 2.317 . S
O4 C5 1.232 . S
C5 O4 1.232 . S
C5 O6 1.218 . S
O6 C5 1.218 . S
C7 O0 1.275 . S
C7 O2 1.255 . S
C8 O9 1.258 . S
C8 O10 1.256 . S
O9 Cd1 2.381 . S
O9 C8 1.258 . S
O10 Cd1 2.378 . S
O10 C8 1.256 . S
O11 Cd12 2.300 . S
O11 C18 1.275 . S
Cd12 O11 2.300 . S
Cd12 O20 2.381 . S
Cd12 O21 2.378 . S
O13 Cd14 2.385 . S
O13 C18 1.255 . S
Cd14 O13 2.385 . S
Cd14 O15 2.317 . S
O15 Cd14 2.317 . S
O15 C16 1.232 . S
C16 O15 1.232 . S
C16 O17 1.218 . S
O17 C16 1.218 . S
C18 O11 1.275 . S
C18 O13 1.255 . S
C19 O20 1.258 . S
C19 O21 1.256 . S
O20 Cd12 2.381 . S
O20 C19 1.258 . S
O21 Cd12 2.378 . S
O21 C19 1.256 . S
O22 Cd23 2.300 . S
O22 C29 1.275 . S
Cd23 O22 2.300 . S
Cd23 O31 2.381 . S
Cd23 O32 2.378 . S
O24 Cd25 2.385 . S
O24 C29 1.255 . S
Cd25 O24 2.385 . S
Cd25 O26 2.317 . S
O26 Cd25 2.317 . S
O26 C27 1.232 . S
C27 O26 1.232 . S
C27 O28 1.218 . S
O28 C27 1.218 . S
C29 O22 1.275 . S
C29 O24 1.255 . S
C30 O31 1.258 . S
C30 O32 1.256 . S
O31 Cd23 2.381 . S
O31 C30 1.258 . S
O32 Cd23 2.378 . S
O32 C30 1.256 . S
O33 Cd34 2.300 . S
O33 C40 1.275 . S
Cd34 O33 2.300 . S
Cd34 O42 2.381 . S
Cd34 O43 2.378 . S
O35 Cd36 2.385 . S
O35 C40 1.255 . S
Cd36 O35 2.385 . S
Cd36 O37 2.317 . S
O37 Cd36 2.317 . S
O37 C38 1.232 . S
C38 O37 1.232 . S
C38 O39 1.218 . S
O39 C38 1.218 . S
C40 O33 1.275 . S
C40 O35 1.255 . S
C41 O42 1.258 . S
C41 O43 1.256 . S
O42 Cd34 2.381 . S
O42 C41 1.258 . S
O43 Cd34 2.378 . S
O43 C41 1.256 . S
O44 Cd45 2.300 . S
O44 C51 1.275 . S
Cd45 O44 2.300 . S
Cd45 O53 2.381 . S
Cd45 O54 2.378 . S
O46 Cd47 2.385 . S
O46 C51 1.255 . S
Cd47 O46 2.385 . S
Cd47 O48 2.317 . S
O48 Cd47 2.317 . S
O48 C49 1.232 . S
C49 O48 1.232 . S
C49 O50 1.218 . S
O50 C49 1.218 . S
C51 O44 1.275 . S
C51 O46 1.255 . S
C52 O53 1.258 . S
C52 O54 1.256 . S
O53 Cd45 2.381 . S
O53 C52 1.258 . S
O54 Cd45 2.378 . S
O54 C52 1.256 . S
O55 Cd56 2.300 . S
O55 C62 1.275 . S
Cd56 O55 2.300 . S
Cd56 O64 2.381 . S
Cd56 O65 2.378 . S
O57 Cd58 2.385 . S
O57 C62 1.255 . S
Cd58 O57 2.385 . S
Cd58 O59 2.317 . S
O59 Cd58 2.317 . S
O59 C60 1.232 . S
C60 O59 1.232 . S
C60 O61 1.218 . S
O61 C60 1.218 . S
C62 O55 1.275 . S
C62 O57 1.255 . S
C63 O64 1.258 . S
C63 O65 1.256 . S
O64 Cd56 2.381 . S
O64 C63 1.258 . S
O65 Cd56 2.378 . S
O65 C63 1.256 . S
O66 Cd67 2.300 . S
O66 C73 1.275 . S
Cd67 O66 2.300 . S
Cd67 O75 2.381 . S
Cd67 O76 2.378 . S
O68 Cd69 2.385 . S
O68 C73 1.255 . S
Cd69 O68 2.385 . S
Cd69 O70 2.317 . S
O70 Cd69 2.317 . S
O70 C71 1.232 . S
C71 O70 1.232 . S
C71 O72 1.218 . S
O72 C71 1.218 . S
C73 O66 1.275 . S
C73 O68 1.255 . S
C74 O75 1.258 . S
C74 O76 1.256 . S
O75 Cd67 2.381 . S
O75 C74 1.258 . S
O76 Cd67 2.378 . S
O76 C74 1.256 . S
O77 Cd78 2.300 . S
O77 C84 1.275 . S
Cd78 O77 2.300 . S
Cd78 O86 2.381 . S
Cd78 O87 2.378 . S
O79 Cd80 2.385 . S
O79 C84 1.255 . S
Cd80 O79 2.385 . S
Cd80 O81 2.317 . S
O81 Cd80 2.317 . S
O81 C82 1.232 . S
C82 O81 1.232 . S
C82 O83 1.218 . S
O83 C82 1.218 . S
C84 O77 1.275 . S
C84 O79 1.255 . S
C85 O86 1.258 . S
C85 O87 1.256 . S
O86 Cd78 2.381 . S
O86 C85 1.258 . S
O87 Cd78 2.378 . S
O87 C85 1.256 . S
O88 Cd89 2.300 . S
O88 C95 1.275 . S
Cd89 O88 2.300 . S
Cd89 O97 2.381 . S
Cd89 O98 2.378 . S
O90 Cd91 2.385 . S
O90 C95 1.255 . S
Cd91 O90 2.385 . S
Cd91 O92 2.317 . S
O92 Cd91 2.317 . S
O92 C93 1.232 . S
C93 O92 1.232 . S
C93 O94 1.218 . S
O94 C93 1.218 . S
C95 O88 1.275 . S
C95 O90 1.255 . S
C96 O97 1.258 . S
C96 O98 1.256 . S
O97 Cd89 2.381 . S
O97 C96 1.258 . S
O98 Cd89 2.378 . S
O98 C96 1.256 . S
O99 Cd100 2.300 . S
O99 C106 1.275 . S
Cd100 O99 2.300 . S
Cd100 O108 2.381 . S
Cd100 O109 2.378 . S
O101 Cd102 2.385 . S
O101 C106 1.255 . S
Cd102 O101 2.385 . S
Cd102 O103 2.317 . S
O103 Cd102 2.317 . S
O103 C104 1.232 . S
C104 O103 1.232 . S
C104 O105 1.218 . S
O105 C104 1.218 . S
C106 O99 1.275 . S
C106 O101 1.255 . S
C107 O108 1.258 . S
C107 O109 1.256 . S
O108 Cd100 2.381 . S
O108 C107 1.258 . S
O109 Cd100 2.378 . S
O109 C107 1.256 . S
O110 Cd111 2.300 . S
O110 C117 1.275 . S
Cd111 O110 2.300 . S
Cd111 O119 2.381 . S
Cd111 O120 2.378 . S
O112 Cd113 2.385 . S
O112 C117 1.255 . S
Cd113 O112 2.385 . S
Cd113 O114 2.317 . S
O114 Cd113 2.317 . S
O114 C115 1.232 . S
C115 O114 1.232 . S
C115 O116 1.218 . S
O116 C115 1.218 . S
C117 O110 1.275 . S
C117 O112 1.255 . S
C118 O119 1.258 . S
C118 O120 1.256 . S
O119 Cd111 2.381 . S
O119 C118 1.258 . S
O120 Cd111 2.378 . S
O120 C118 1.256 . S
O121 Cd122 2.300 . S
O121 C128 1.275 . S
Cd122 O121 2.300 . S
Cd122 O130 2.381 . S
Cd122 O131 2.378 . S
O123 Cd124 2.385 . S
O123 C128 1.255 . S
Cd124 O123 2.385 . S
Cd124 O125 2.317 . S
O125 Cd124 2.317 . S
O125 C126 1.232 . S
C126 O125 1.232 . S
C126 O127 1.218 . S
O127 C126 1.218 . S
C128 O121 1.275 . S
C128 O123 1.255 . S
C129 O130 1.258 . S
C129 O131 1.256 . S
O130 Cd122 2.381 . S
O130 C129 1.258 . S
O131 Cd122 2.378 . S
O131 C129 1.256 . S
O132 Cd133 2.300 . S
O132 C139 1.275 . S
Cd133 O132 2.300 . S
Cd133 O141 2.381 . S
Cd133 O142 2.378 . S
O134 Cd135 2.385 . S
O134 C139 1.255 . S
Cd135 O134 2.385 . S
Cd135 O136 2.317 . S
O136 Cd135 2.317 . S
O136 C137 1.232 . S
C137 O136 1.232 . S
C137 O138 1.218 . S
O138 C137 1.218 . S
C139 O132 1.275 . S
C139 O134 1.255 . S
C140 O141 1.258 . S
C140 O142 1.256 . S
O141 Cd133 2.381 . S
O141 C140 1.258 . S
O142 Cd133 2.378 . S
O142 C140 1.256 . S
O143 Cd144 2.300 . S
O143 C150 1.275 . S
Cd144 O143 2.300 . S
Cd144 O152 2.381 . S
Cd144 O153 2.378 . S
O145 Cd146 2.385 . S
O145 C150 1.255 . S
Cd146 O145 2.385 . S
Cd146 O147 2.317 . S
O147 Cd146 2.317 . S
O147 C148 1.232 . S
C148 O147 1.232 . S
C148 O149 1.218 . S
O149 C148 1.218 . S
C150 O143 1.275 . S
C150 O145 1.255 . S
C151 O152 1.258 . S
C151 O153 1.256 . S
O152 Cd144 2.381 . S
O152 C151 1.258 . S
O153 Cd144 2.378 . S
O153 C151 1.256 . S
O154 Cd155 2.300 . S
O154 C161 1.275 . S
Cd155 O154 2.300 . S
Cd155 O163 2.381 . S
Cd155 O164 2.378 . S
O156 Cd157 2.385 . S
O156 C161 1.255 . S
Cd157 O156 2.385 . S
Cd157 O158 2.317 . S
O158 Cd157 2.317 . S
O158 C159 1.232 . S
C159 O158 1.232 . S
C159 O160 1.218 . S
O160 C159 1.218 . S
C161 O154 1.275 . S
C161 O156 1.255 . S
C162 O163 1.258 . S
C162 O164 1.256 . S
O163 Cd155 2.381 . S
O163 C162 1.258 . S
O164 Cd155 2.378 . S
O164 C162 1.256 . S
O165 Cd166 2.300 . S
O165 C172 1.275 . S
Cd166 O165 2.300 . S
Cd166 O174 2.381 . S
Cd166 O175 2.378 . S
O167 Cd168 2.385 . S
O167 C172 1.255 . S
Cd168 O167 2.385 . S
Cd168 O169 2.317 . S
O169 Cd168 2.317 . S
O169 C170 1.232 . S
C170 O169 1.232 . S
C170 O171 1.218 . S
O171 C170 1.218 . S
C172 O165 1.275 . S
C172 O167 1.255 . S
C173 O174 1.258 . S
C173 O175 1.256 . S
O174 Cd166 2.381 . S
O174 C173 1.258 . S
O175 Cd166 2.378 . S
O175 C173 1.256 . S
H176 C184 0.929 . S
H177 C186 0.930 . S
H178 C188 0.930 . S
H179 C191 0.929 . S
H180 C194 0.930 . S
H181 C196 0.960 . S
H182 C196 0.960 . S
H183 C196 0.960 . S
C184 H176 0.929 . S
C184 C185 1.377 . S
C184 C186 1.384 . S
C185 C184 1.377 . S
C185 C191 1.390 . S
C186 H177 0.930 . S
C186 C184 1.384 . S
C186 C187 1.372 . S
C187 C186 1.372 . S
C187 C188 1.400 . S
C187 C192 1.490 . S
C188 H178 0.930 . S
C188 C187 1.400 . S
C188 C191 1.386 . S
H189 C205 0.930 . S
H190 C206 0.931 . S
C191 H179 0.929 . S
C191 C185 1.390 . S
C191 C188 1.386 . S
C192 C187 1.490 . S
C192 C194 1.395 . S
C192 C195 1.403 . S
H193 C199 0.930 . S
C194 H180 0.930 . S
C194 C192 1.395 . S
C194 C197 1.403 . S
C195 C192 1.403 . S
C195 C196 1.524 . S
C195 C199 1.400 . S
C196 H181 0.960 . S
C196 H182 0.960 . S
C196 H183 0.960 . S
C196 C195 1.524 . S
C197 C194 1.403 . S
C197 C198 1.392 . S
C197 C201 1.495 . S
C198 C197 1.392 . S
C198 C199 1.385 . S
C198 C200 1.478 . S
C199 H193 0.930 . S
C199 C195 1.400 . S
C199 C198 1.385 . S
C200 C198 1.478 . S
C200 C202 1.381 . S
C200 C206 1.383 . S
C201 C197 1.495 . S
C201 H207 0.959 . S
C201 H208 0.961 . S
C201 H209 0.960 . S
C202 C200 1.381 . S
C202 C203 1.394 . S
C202 H210 0.930 . S
C203 C202 1.394 . S
C203 C204 1.383 . S
C203 H211 0.929 . S
C204 C203 1.383 . S
C204 C205 1.377 . S
C205 H189 0.930 . S
C205 C204 1.377 . S
C205 C206 1.379 . S
C206 H190 0.931 . S
C206 C200 1.383 . S
C206 C205 1.379 . S
H207 C201 0.959 . S
H208 C201 0.961 . S
H209 C201 0.960 . S
H210 C202 0.930 . S
H211 C203 0.929 . S
H212 C220 0.929 . S
H213 C222 0.930 . S
H214 C224 0.930 . S
H215 C227 0.929 . S
H216 C230 0.930 . S
H217 C232 0.960 . S
H218 C232 0.960 . S
H219 C232 0.960 . S
C220 H212 0.929 . S
C220 C221 1.377 . S
C220 C222 1.384 . S
C221 C220 1.377 . S
C221 C227 1.390 . S
C222 H213 0.930 . S
C222 C220 1.384 . S
C222 C223 1.372 . S
C223 C222 1.372 . S
C223 C224 1.400 . S
C223 C228 1.490 . S
C224 H214 0.930 . S
C224 C223 1.400 . S
C224 C227 1.386 . S
H225 C241 0.930 . S
H226 C242 0.931 . S
C227 H215 0.929 . S
C227 C221 1.390 . S
C227 C224 1.386 . S
C228 C223 1.490 . S
C228 C230 1.395 . S
C228 C231 1.403 . S
H229 C235 0.930 . S
C230 H216 0.930 . S
C230 C228 1.395 . S
C230 C233 1.403 . S
C231 C228 1.403 . S
C231 C232 1.524 . S
C231 C235 1.400 . S
C232 H217 0.960 . S
C232 H218 0.960 . S
C232 H219 0.960 . S
C232 C231 1.524 . S
C233 C230 1.403 . S
C233 C234 1.392 . S
C233 C237 1.495 . S
C234 C233 1.392 . S
C234 C235 1.385 . S
C234 C236 1.478 . S
C235 H229 0.930 . S
C235 C231 1.400 . S
C235 C234 1.385 . S
C236 C234 1.478 . S
C236 C238 1.381 . S
C236 C242 1.383 . S
C237 C233 1.495 . S
C237 H243 0.959 . S
C237 H244 0.961 . S
C237 H245 0.960 . S
C238 C236 1.381 . S
C238 C239 1.394 . S
C238 H246 0.930 . S
C239 C238 1.394 . S
C239 C240 1.383 . S
C239 H247 0.929 . S
C240 C239 1.383 . S
C240 C241 1.377 . S
C241 H225 0.930 . S
C241 C240 1.377 . S
C241 C242 1.379 . S
C242 H226 0.931 . S
C242 C236 1.383 . S
C242 C241 1.379 . S
H243 C237 0.959 . S
H244 C237 0.961 . S
H245 C237 0.960 . S
H246 C238 0.930 . S
H247 C239 0.929 . S
H248 C256 0.929 . S
H249 C258 0.930 . S
H250 C260 0.930 . S
H251 C263 0.929 . S
H252 C266 0.930 . S
H253 C268 0.960 . S
H254 C268 0.960 . S
H255 C268 0.960 . S
C256 H248 0.929 . S
C256 C257 1.377 . S
C256 C258 1.384 . S
C257 C256 1.377 . S
C257 C263 1.390 . S
C258 H249 0.930 . S
C258 C256 1.384 . S
C258 C259 1.372 . S
C259 C258 1.372 . S
C259 C260 1.400 . S
C259 C264 1.490 . S
C260 H250 0.930 . S
C260 C259 1.400 . S
C260 C263 1.386 . S
H261 C277 0.930 . S
H262 C278 0.931 . S
C263 H251 0.929 . S
C263 C257 1.390 . S
C263 C260 1.386 . S
C264 C259 1.490 . S
C264 C266 1.395 . S
C264 C267 1.403 . S
H265 C271 0.930 . S
C266 H252 0.930 . S
C266 C264 1.395 . S
C266 C269 1.403 . S
C267 C264 1.403 . S
C267 C268 1.524 . S
C267 C271 1.400 . S
C268 H253 0.960 . S
C268 H254 0.960 . S
C268 H255 0.960 . S
C268 C267 1.524 . S
C269 C266 1.403 . S
C269 C270 1.392 . S
C269 C273 1.495 . S
C270 C269 1.392 . S
C270 C271 1.385 . S
C270 C272 1.478 . S
C271 H265 0.930 . S
C271 C267 1.400 . S
C271 C270 1.385 . S
C272 C270 1.478 . S
C272 C274 1.381 . S
C272 C278 1.383 . S
C273 C269 1.495 . S
C273 H279 0.959 . S
C273 H280 0.961 . S
C273 H281 0.960 . S
C274 C272 1.381 . S
C274 C275 1.394 . S
C274 H282 0.930 . S
C275 C274 1.394 . S
C275 C276 1.383 . S
C275 H283 0.929 . S
C276 C275 1.383 . S
C276 C277 1.377 . S
C277 H261 0.930 . S
C277 C276 1.377 . S
C277 C278 1.379 . S
C278 H262 0.931 . S
C278 C272 1.383 . S
C278 C277 1.379 . S
H279 C273 0.959 . S
H280 C273 0.961 . S
H281 C273 0.960 . S
H282 C274 0.930 . S
H283 C275 0.929 . S
H284 C292 0.929 . S
H285 C294 0.930 . S
H286 C296 0.930 . S
H287 C299 0.929 . S
H288 C302 0.930 . S
H289 C304 0.960 . S
H290 C304 0.960 . S
H291 C304 0.960 . S
C292 H284 0.929 . S
C292 C293 1.377 . S
C292 C294 1.384 . S
C293 C292 1.377 . S
C293 C299 1.390 . S
C294 H285 0.930 . S
C294 C292 1.384 . S
C294 C295 1.372 . S
C295 C294 1.372 . S
C295 C296 1.400 . S
C295 C300 1.490 . S
C296 H286 0.930 . S
C296 C295 1.400 . S
C296 C299 1.386 . S
H297 C313 0.930 . S
H298 C314 0.931 . S
C299 H287 0.929 . S
C299 C293 1.390 . S
C299 C296 1.386 . S
C300 C295 1.490 . S
C300 C302 1.395 . S
C300 C303 1.403 . S
H301 C307 0.930 . S
C302 H288 0.930 . S
C302 C300 1.395 . S
C302 C305 1.403 1_556 S
C303 C300 1.403 . S
C303 C304 1.524 . S
C303 C307 1.400 1_556 S
C304 H289 0.960 . S
C304 H290 0.960 . S
C304 H291 0.960 . S
C304 C303 1.524 . S
C305 C302 1.403 1_554 S
C305 C306 1.392 . S
C305 C309 1.495 . S
C306 C305 1.392 . S
C306 C307 1.385 . S
C306 C308 1.478 . S
C307 H301 0.930 . S
C307 C303 1.400 1_554 S
C307 C306 1.385 . S
C308 C306 1.478 . S
C308 C310 1.381 . S
C308 C314 1.383 . S
C309 C305 1.495 . S
C309 H315 0.959 . S
C309 H316 0.961 . S
C309 H317 0.960 . S
C310 C308 1.381 . S
C310 C311 1.394 . S
C310 H318 0.930 . S
C311 C310 1.394 . S
C311 C312 1.383 . S
C311 H319 0.929 . S
C312 C311 1.383 . S
C312 C313 1.377 . S
C313 H297 0.930 . S
C313 C312 1.377 . S
C313 C314 1.379 . S
C314 H298 0.931 . S
C314 C308 1.383 . S
C314 C313 1.379 . S
H315 C309 0.959 . S
H316 C309 0.961 . S
H317 C309 0.960 . S
H318 C310 0.930 . S
H319 C311 0.929 . S
H320 C328 0.929 . S
H321 C330 0.930 . S
H322 C332 0.930 . S
H323 C335 0.929 . S
H324 C338 0.930 . S
H325 C340 0.953 1_556 S
H326 C340 0.956 1_556 S
H327 C340 0.971 . S
C328 H320 0.929 . S
C328 C329 1.377 . S
C328 C330 1.384 . S
C329 C328 1.377 . S
C329 C335 1.390 . S
C330 H321 0.930 . S
C330 C328 1.384 . S
C330 C331 1.372 . S
C331 C330 1.372 . S
C331 C332 1.400 . S
C331 C336 1.490 . S
C332 H322 0.930 . S
C332 C331 1.400 . S
C332 C335 1.386 . S
H333 C349 0.930 . S
H334 C350 0.931 . S
C335 H323 0.929 . S
C335 C329 1.390 . S
C335 C332 1.386 . S
C336 C331 1.490 . S
C336 C338 1.395 . S
C336 C339 1.424 . S
H337 C343 0.930 . S
C338 H324 0.930 . S
C338 C336 1.395 . S
C338 C341 1.361 1_554 S
C339 C336 1.424 . S
C339 C340 1.523 . S
C339 C343 1.379 1_554 S
C340 H325 0.953 1_554 S
C340 H326 0.956 1_554 S
C340 H327 0.971 . S
C340 C339 1.523 . S
C341 C338 1.361 1_556 S
C341 C342 1.434 . S
C341 C345 1.499 . S
C342 C341 1.434 . S
C342 C343 1.385 . S
C342 C344 1.478 . S
C343 H337 0.930 . S
C343 C339 1.379 1_556 S
C343 C342 1.385 . S
C344 C342 1.478 . S
C344 C346 1.381 . S
C344 C350 1.383 . S
C345 C341 1.499 . S
C345 H351 0.959 1_556 S
C345 H352 0.961 1_556 S
C345 H353 0.960 . S
C346 C344 1.381 . S
C346 C347 1.394 . S
C346 H354 0.930 . S
C347 C346 1.394 . S
C347 C348 1.383 . S
C347 H355 0.929 . S
C348 C347 1.383 . S
C348 C349 1.377 . S
C349 H333 0.930 . S
C349 C348 1.377 . S
C349 C350 1.379 . S
C350 H334 0.931 . S
C350 C344 1.383 . S
C350 C349 1.379 . S
H351 C345 0.959 1_554 S
H352 C345 0.961 1_554 S
H353 C345 0.960 . S
H354 C346 0.930 . S
H355 C347 0.929 . S
H356 C364 0.929 . S
H357 C366 0.930 . S
H358 C368 0.930 . S
H359 C371 0.929 . S
H360 C374 0.930 . S
H361 C376 0.960 . S
H362 C376 0.960 . S
H363 C376 0.960 . S
C364 H356 0.929 . S
C364 C365 1.377 . S
C364 C366 1.384 . S
C365 C364 1.377 . S
C365 C371 1.390 . S
C366 H357 0.930 . S
C366 C364 1.384 . S
C366 C367 1.372 . S
C367 C366 1.372 . S
C367 C368 1.400 . S
C367 C372 1.490 . S
C368 H358 0.930 . S
C368 C367 1.400 . S
C368 C371 1.386 . S
H369 C385 0.930 . S
H370 C386 0.931 . S
C371 H359 0.929 . S
C371 C365 1.390 . S
C371 C368 1.386 . S
C372 C367 1.490 . S
C372 C374 1.395 . S
C372 C375 1.403 . S
H373 C379 0.930 . S
C374 H360 0.930 . S
C374 C372 1.395 . S
C374 C377 1.403 . S
C375 C372 1.403 . S
C375 C376 1.524 . S
C375 C379 1.400 . S
C376 H361 0.960 . S
C376 H362 0.960 . S
C376 H363 0.960 . S
C376 C375 1.524 . S
C377 C374 1.403 . S
C377 C378 1.392 . S
C377 C381 1.495 . S
C378 C377 1.392 . S
C378 C379 1.385 . S
C378 C380 1.478 . S
C379 H373 0.930 . S
C379 C375 1.400 . S
C379 C378 1.385 . S
C380 C378 1.478 . S
C380 C382 1.381 . S
C380 C386 1.383 . S
C381 C377 1.495 . S
C381 H387 0.959 . S
C381 H388 0.961 . S
C381 H389 0.960 . S
C382 C380 1.381 . S
C382 C383 1.394 . S
C382 H390 0.930 . S
C383 C382 1.394 . S
C383 C384 1.383 . S
C383 H391 0.929 . S
C384 C383 1.383 . S
C384 C385 1.377 . S
C385 H369 0.930 . S
C385 C384 1.377 . S
C385 C386 1.379 . S
C386 H370 0.931 . S
C386 C380 1.383 . S
C386 C385 1.379 . S
H387 C381 0.959 . S
H388 C381 0.961 . S
H389 C381 0.960 . S
H390 C382 0.930 . S
H391 C383 0.929 . S
H392 C400 0.929 . S
H393 C402 0.930 . S
H394 C404 0.930 . S
H395 C407 0.929 . S
H396 C410 0.930 . S
H397 C412 0.960 . S
H398 C412 0.960 . S
H399 C412 0.960 . S
C400 H392 0.929 . S
C400 C401 1.377 . S
C400 C402 1.384 . S
C401 C400 1.377 . S
C401 C407 1.390 . S
C402 H393 0.930 . S
C402 C400 1.384 . S
C402 C403 1.372 . S
C403 C402 1.372 . S
C403 C404 1.400 . S
C403 C408 1.490 . S
C404 H394 0.930 . S
C404 C403 1.400 . S
C404 C407 1.386 . S
H405 C421 0.930 . S
H406 C422 0.931 . S
C407 H395 0.929 . S
C407 C401 1.390 . S
C407 C404 1.386 . S
C408 C403 1.490 . S
C408 C410 1.395 . S
C408 C411 1.403 . S
H409 C415 0.930 . S
C410 H396 0.930 . S
C410 C408 1.395 . S
C410 C413 1.403 . S
C411 C408 1.403 . S
C411 C412 1.524 . S
C411 C415 1.400 . S
C412 H397 0.960 . S
C412 H398 0.960 . S
C412 H399 0.960 . S
C412 C411 1.524 . S
C413 C410 1.403 . S
C413 C414 1.392 . S
C413 C417 1.495 . S
C414 C413 1.392 . S
C414 C415 1.385 . S
C414 C416 1.478 . S
C415 H409 0.930 . S
C415 C411 1.400 . S
C415 C414 1.385 . S
C416 C414 1.478 . S
C416 C418 1.381 . S
C416 C422 1.383 . S
C417 C413 1.495 . S
C417 H423 0.959 . S
C417 H424 0.961 . S
C417 H425 0.960 . S
C418 C416 1.381 . S
C418 C419 1.394 . S
C418 H426 0.930 . S
C419 C418 1.394 . S
C419 C420 1.383 . S
C419 H427 0.929 . S
C420 C419 1.383 . S
C420 C421 1.377 . S
C421 H405 0.930 . S
C421 C420 1.377 . S
C421 C422 1.379 . S
C422 H406 0.931 . S
C422 C416 1.383 . S
C422 C421 1.379 . S
H423 C417 0.959 . S
H424 C417 0.961 . S
H425 C417 0.960 . S
H426 C418 0.930 . S
H427 C419 0.929 . S
H428 C436 0.929 . S
H429 C438 0.930 . S
H430 C440 0.930 . S
H431 C443 0.929 . S
H432 C446 0.930 . S
H433 C448 0.960 . S
H434 C448 0.960 . S
H435 C448 0.960 . S
C436 H428 0.929 . S
C436 C437 1.377 . S
C436 C438 1.384 . S
C437 C436 1.377 . S
C437 C443 1.390 . S
C438 H429 0.930 . S
C438 C436 1.384 . S
C438 C439 1.372 . S
C439 C438 1.372 . S
C439 C440 1.400 . S
C439 C444 1.490 . S
C440 H430 0.930 . S
C440 C439 1.400 . S
C440 C443 1.386 . S
H441 C457 0.930 . S
H442 C458 0.931 . S
C443 H431 0.929 . S
C443 C437 1.390 . S
C443 C440 1.386 . S
C444 C439 1.490 . S
C444 C446 1.395 . S
C444 C447 1.403 . S
H445 C451 0.930 . S
C446 H432 0.930 . S
C446 C444 1.395 . S
C446 C449 1.403 . S
C447 C444 1.403 . S
C447 C448 1.524 . S
C447 C451 1.400 . S
C448 H433 0.960 . S
C448 H434 0.960 . S
C448 H435 0.960 . S
C448 C447 1.524 . S
C449 C446 1.403 . S
C449 C450 1.392 . S
C449 C453 1.495 . S
C450 C449 1.392 . S
C450 C451 1.385 . S
C450 C452 1.478 . S
C451 H445 0.930 . S
C451 C447 1.400 . S
C451 C450 1.385 . S
C452 C450 1.478 . S
C452 C454 1.381 . S
C452 C458 1.383 . S
C453 C449 1.495 . S
C453 H459 0.959 . S
C453 H460 0.961 . S
C453 H461 0.960 . S
C454 C452 1.381 . S
C454 C455 1.394 . S
C454 H462 0.930 . S
C455 C454 1.394 . S
C455 C456 1.383 . S
C455 H463 0.929 . S
C456 C455 1.383 . S
C456 C457 1.377 . S
C457 H441 0.930 . S
C457 C456 1.377 . S
C457 C458 1.379 . S
C458 H442 0.931 . S
C458 C452 1.383 . S
C458 C457 1.379 . S
H459 C453 0.959 . S
H460 C453 0.961 . S
H461 C453 0.960 . S
H462 C454 0.930 . S
H463 C455 0.929 . S
H464 C472 0.929 . S
H465 C474 0.930 . S
H466 C476 0.930 . S
H467 C479 0.929 . S
H468 C482 0.930 . S
H469 C484 0.960 . S
H470 C484 0.960 . S
H471 C484 0.960 . S
C472 H464 0.929 . S
C472 C473 1.377 . S
C472 C474 1.384 . S
C473 C472 1.377 . S
C473 C479 1.390 . S
C474 H465 0.930 . S
C474 C472 1.384 . S
C474 C475 1.372 . S
C475 C474 1.372 . S
C475 C476 1.400 . S
C475 C480 1.490 . S
C476 H466 0.930 . S
C476 C475 1.400 . S
C476 C479 1.386 . S
H477 C493 0.930 . S
H478 C494 0.931 . S
C479 H467 0.929 . S
C479 C473 1.390 . S
C479 C476 1.386 . S
C480 C475 1.490 . S
C480 C482 1.395 . S
C480 C483 1.403 . S
H481 C487 0.930 . S
C482 H468 0.930 . S
C482 C480 1.395 . S
C482 C485 1.403 . S
C483 C480 1.403 . S
C483 C484 1.524 . S
C483 C487 1.400 . S
C484 H469 0.960 . S
C484 H470 0.960 . S
C484 H471 0.960 . S
C484 C483 1.524 . S
C485 C482 1.403 . S
C485 C486 1.392 . S
C485 C489 1.495 . S
C486 C485 1.392 . S
C486 C487 1.385 . S
C486 C488 1.478 . S
C487 H481 0.930 . S
C487 C483 1.400 . S
C487 C486 1.385 . S
C488 C486 1.478 . S
C488 C490 1.381 . S
C488 C494 1.383 . S
C489 C485 1.495 . S
C489 H495 0.959 . S
C489 H496 0.961 . S
C489 H497 0.960 . S
C490 C488 1.381 . S
C490 C491 1.394 . S
C490 H498 0.930 . S
C491 C490 1.394 . S
C491 C492 1.383 . S
C491 H499 0.929 . S
C492 C491 1.383 . S
C492 C493 1.377 . S
C493 H477 0.930 . S
C493 C492 1.377 . S
C493 C494 1.379 . S
C494 H478 0.931 . S
C494 C488 1.383 . S
C494 C493 1.379 . S
H495 C489 0.959 . S
H496 C489 0.961 . S
H497 C489 0.960 . S
H498 C490 0.930 . S
H499 C491 0.929 . S
H500 C508 0.929 . S
H501 C510 0.930 . S
H502 C512 0.930 . S
H503 C515 0.929 . S
H504 C518 0.930 . S
H505 C520 0.960 . S
H506 C520 0.960 . S
H507 C520 0.960 . S
C508 H500 0.929 . S
C508 C509 1.377 . S
C508 C510 1.384 . S
C509 C508 1.377 . S
C509 C515 1.390 . S
C510 H501 0.930 . S
C510 C508 1.384 . S
C510 C511 1.372 . S
C511 C510 1.372 . S
C511 C512 1.400 . S
C511 C516 1.490 . S
C512 H502 0.930 . S
C512 C511 1.400 . S
C512 C515 1.386 . S
H513 C529 0.930 . S
H514 C530 0.931 . S
C515 H503 0.929 . S
C515 C509 1.390 . S
C515 C512 1.386 . S
C516 C511 1.490 . S
C516 C518 1.395 . S
C516 C519 1.403 . S
H517 C523 0.930 . S
C518 H504 0.930 . S
C518 C516 1.395 . S
C518 C521 1.403 . S
C519 C516 1.403 . S
C519 C520 1.524 . S
C519 C523 1.400 . S
C520 H505 0.960 . S
C520 H506 0.960 . S
C520 H507 0.960 . S
C520 C519 1.524 . S
C521 C518 1.403 . S
C521 C522 1.392 . S
C521 C525 1.495 . S
C522 C521 1.392 . S
C522 C523 1.385 . S
C522 C524 1.478 . S
C523 H517 0.930 . S
C523 C519 1.400 . S
C523 C522 1.385 . S
C524 C522 1.478 . S
C524 C526 1.381 . S
C524 C530 1.383 . S
C525 C521 1.495 . S
C525 H531 0.959 . S
C525 H532 0.961 . S
C525 H533 0.960 . S
C526 C524 1.381 . S
C526 C527 1.394 . S
C526 H534 0.930 . S
C527 C526 1.394 . S
C527 C528 1.383 . S
C527 H535 0.929 . S
C528 C527 1.383 . S
C528 C529 1.377 . S
C529 H513 0.930 . S
C529 C528 1.377 . S
C529 C530 1.379 . S
C530 H514 0.931 . S
C530 C524 1.383 . S
C530 C529 1.379 . S
H531 C525 0.959 . S
H532 C525 0.961 . S
H533 C525 0.960 . S
H534 C526 0.930 . S
H535 C527 0.929 . S
H536 C544 0.929 . S
H537 C546 0.930 . S
H538 C548 0.930 . S
H539 C551 0.929 . S
H540 C554 0.930 . S
H541 C556 0.960 . S
H542 C556 0.960 . S
H543 C556 0.960 . S
C544 H536 0.929 . S
C544 C545 1.377 . S
C544 C546 1.384 . S
C545 C544 1.377 . S
C545 C551 1.390 . S
C546 H537 0.930 . S
C546 C544 1.384 . S
C546 C547 1.372 . S
C547 C546 1.372 . S
C547 C548 1.400 . S
C547 C552 1.490 . S
C548 H538 0.930 . S
C548 C547 1.400 . S
C548 C551 1.386 . S
H549 C565 0.930 . S
H550 C566 0.931 . S
C551 H539 0.929 . S
C551 C545 1.390 . S
C551 C548 1.386 . S
C552 C547 1.490 . S
C552 C554 1.395 . S
C552 C555 1.403 . S
H553 C559 0.930 . S
C554 H540 0.930 . S
C554 C552 1.395 . S
C554 C557 1.403 . S
C555 C552 1.403 . S
C555 C556 1.524 . S
C555 C559 1.400 . S
C556 H541 0.960 . S
C556 H542 0.960 . S
C556 H543 0.960 . S
C556 C555 1.524 . S
C557 C554 1.403 . S
C557 C558 1.392 . S
C557 C561 1.495 . S
C558 C557 1.392 . S
C558 C559 1.385 . S
C558 C560 1.478 . S
C559 H553 0.930 . S
C559 C555 1.400 . S
C559 C558 1.385 . S
C560 C558 1.478 . S
C560 C562 1.381 . S
C560 C566 1.383 . S
C561 C557 1.495 . S
C561 H567 0.959 . S
C561 H568 0.961 . S
C561 H569 0.960 . S
C562 C560 1.381 . S
C562 C563 1.394 . S
C562 H570 0.930 . S
C563 C562 1.394 . S
C563 C564 1.383 . S
C563 H571 0.929 . S
C564 C563 1.383 . S
C564 C565 1.377 . S
C565 H549 0.930 . S
C565 C564 1.377 . S
C565 C566 1.379 . S
C566 H550 0.931 . S
C566 C560 1.383 . S
C566 C565 1.379 . S
H567 C561 0.959 . S
H568 C561 0.961 . S
H569 C561 0.960 . S
H570 C562 0.930 . S
H571 C563 0.929 . S
H572 C580 0.929 . S
H573 C582 0.930 . S
H574 C584 0.930 . S
H575 C587 0.929 . S
H576 C590 0.930 . S
H577 C592 0.960 . S
H578 C592 0.960 . S
H579 C592 0.960 . S
C580 H572 0.929 . S
C580 C581 1.377 . S
C580 C582 1.384 . S
C581 C580 1.377 . S
C581 C587 1.390 . S
C582 H573 0.930 . S
C582 C580 1.384 . S
C582 C583 1.372 . S
C583 C582 1.372 . S
C583 C584 1.400 . S
C583 C588 1.490 . S
C584 H574 0.930 . S
C584 C583 1.400 . S
C584 C587 1.386 . S
H585 C601 0.930 . S
H586 C602 0.931 . S
C587 H575 0.929 . S
C587 C581 1.390 . S
C587 C584 1.386 . S
C588 C583 1.490 . S
C588 C590 1.395 . S
C588 C591 1.403 . S
H589 C595 0.930 . S
C590 H576 0.930 . S
C590 C588 1.395 . S
C590 C593 1.403 . S
C591 C588 1.403 . S
C591 C592 1.524 . S
C591 C595 1.400 . S
C592 H577 0.960 . S
C592 H578 0.960 . S
C592 H579 0.960 . S
C592 C591 1.524 . S
C593 C590 1.403 . S
C593 C594 1.392 . S
C593 C597 1.495 . S
C594 C593 1.392 . S
C594 C595 1.385 . S
C594 C596 1.478 . S
C595 H589 0.930 . S
C595 C591 1.400 . S
C595 C594 1.385 . S
C596 C594 1.478 . S
C596 C598 1.381 . S
C596 C602 1.383 . S
C597 C593 1.495 . S
C597 H603 0.959 . S
C597 H604 0.961 . S
C597 H605 0.960 . S
C598 C596 1.381 . S
C598 C599 1.394 . S
C598 H606 0.930 . S
C599 C598 1.394 . S
C599 C600 1.383 . S
C599 H607 0.929 . S
C600 C599 1.383 . S
C600 C601 1.377 . S
C601 H585 0.930 . S
C601 C600 1.377 . S
C601 C602 1.379 . S
C602 H586 0.931 . S
C602 C596 1.383 . S
C602 C601 1.379 . S
H603 C597 0.959 . S
H604 C597 0.961 . S
H605 C597 0.960 . S
H606 C598 0.930 . S
H607 C599 0.929 . S
H608 C616 0.929 . S
H609 C618 0.930 . S
H610 C620 0.930 . S
H611 C623 0.929 . S
H612 C626 0.930 . S
H613 C628 0.960 . S
H614 C628 0.960 . S
H615 C628 0.960 . S
C616 H608 0.929 . S
C616 C617 1.377 . S
C616 C618 1.384 . S
C617 C616 1.377 . S
C617 C623 1.390 . S
C618 H609 0.930 . S
C618 C616 1.384 . S
C618 C619 1.372 . S
C619 C618 1.372 . S
C619 C620 1.400 . S
C619 C624 1.490 . S
C620 H610 0.930 . S
C620 C619 1.400 . S
C620 C623 1.386 . S
H621 C637 0.930 . S
H622 C638 0.931 . S
C623 H611 0.929 . S
C623 C617 1.390 . S
C623 C620 1.386 . S
C624 C619 1.490 . S
C624 C626 1.395 . S
C624 C627 1.403 . S
H625 C631 0.930 . S
C626 H612 0.930 . S
C626 C624 1.395 . S
C626 C629 1.403 . S
C627 C624 1.403 . S
C627 C628 1.524 . S
C627 C631 1.400 . S
C628 H613 0.960 . S
C628 H614 0.960 . S
C628 H615 0.960 . S
C628 C627 1.524 . S
C629 C626 1.403 . S
C629 C630 1.392 . S
C629 C633 1.495 . S
C630 C629 1.392 . S
C630 C631 1.385 . S
C630 C632 1.478 . S
C631 H625 0.930 . S
C631 C627 1.400 . S
C631 C630 1.385 . S
C632 C630 1.478 . S
C632 C634 1.381 . S
C632 C638 1.383 . S
C633 C629 1.495 . S
C633 H639 0.959 . S
C633 H640 0.961 . S
C633 H641 0.960 . S
C634 C632 1.381 . S
C634 C635 1.394 . S
C634 H642 0.930 . S
C635 C634 1.394 . S
C635 C636 1.383 . S
C635 H643 0.929 . S
C636 C635 1.383 . S
C636 C637 1.377 . S
C637 H621 0.930 . S
C637 C636 1.377 . S
C637 C638 1.379 . S
C638 H622 0.931 . S
C638 C632 1.383 . S
C638 C637 1.379 . S
H639 C633 0.959 . S
H640 C633 0.961 . S
H641 C633 0.960 . S
H642 C634 0.930 . S
H643 C635 0.929 . S
H644 C652 0.929 . S
H645 C654 0.930 . S
H646 C656 0.930 . S
H647 C659 0.929 . S
H648 C662 0.930 . S
H649 C664 0.960 . S
H650 C664 0.960 . S
H651 C664 0.960 . S
C652 H644 0.929 . S
C652 C653 1.377 . S
C652 C654 1.384 . S
C653 C652 1.377 . S
C653 C659 1.390 . S
C654 H645 0.930 . S
C654 C652 1.384 . S
C654 C655 1.372 . S
C655 C654 1.372 . S
C655 C656 1.400 . S
C655 C660 1.490 . S
C656 H646 0.930 . S
C656 C655 1.400 . S
C656 C659 1.386 . S
H657 C673 0.930 . S
H658 C674 0.931 . S
C659 H647 0.929 . S
C659 C653 1.390 . S
C659 C656 1.386 . S
C660 C655 1.490 . S
C660 C662 1.395 . S
C660 C663 1.403 . S
H661 C667 0.930 . S
C662 H648 0.930 . S
C662 C660 1.395 . S
C662 C665 1.403 . S
C663 C660 1.403 . S
C663 C664 1.524 . S
C663 C667 1.400 . S
C664 H649 0.960 . S
C664 H650 0.960 . S
C664 H651 0.960 . S
C664 C663 1.524 . S
C665 C662 1.403 . S
C665 C666 1.392 . S
C665 C669 1.495 . S
C666 C665 1.392 . S
C666 C667 1.385 . S
C666 C668 1.478 . S
C667 H661 0.930 . S
C667 C663 1.400 . S
C667 C666 1.385 . S
C668 C666 1.478 . S
C668 C670 1.381 . S
C668 C674 1.383 . S
C669 C665 1.495 . S
C669 H675 0.959 . S
C669 H676 0.961 . S
C669 H677 0.960 . S
C670 C668 1.381 . S
C670 C671 1.394 . S
C670 H678 0.930 . S
C671 C670 1.394 . S
C671 C672 1.383 . S
C671 H679 0.929 . S
C672 C671 1.383 . S
C672 C673 1.377 . S
C673 H657 0.930 . S
C673 C672 1.377 . S
C673 C674 1.379 . S
C674 H658 0.931 . S
C674 C668 1.383 . S
C674 C673 1.379 . S
H675 C669 0.959 . S
H676 C669 0.961 . S
H677 C669 0.960 . S
H678 C670 0.930 . S
H679 C671 0.929 . S
H680 C688 0.929 . S
H681 C690 0.930 . S
H682 C692 0.930 . S
H683 C695 0.929 . S
H684 C698 0.930 . S
H685 C700 0.960 . S
H686 C700 0.960 . S
H687 C700 0.960 . S
C688 H680 0.929 . S
C688 C689 1.377 . S
C688 C690 1.384 . S
C689 C688 1.377 . S
C689 C695 1.390 . S
C690 H681 0.930 . S
C690 C688 1.384 . S
C690 C691 1.372 . S
C691 C690 1.372 . S
C691 C692 1.400 . S
C691 C696 1.490 . S
C692 H682 0.930 . S
C692 C691 1.400 . S
C692 C695 1.386 . S
H693 C709 0.930 . S
H694 C710 0.931 . S
C695 H683 0.929 . S
C695 C689 1.390 . S
C695 C692 1.386 . S
C696 C691 1.490 . S
C696 C698 1.395 . S
C696 C699 1.403 . S
H697 C703 0.930 . S
C698 H684 0.930 . S
C698 C696 1.395 . S
C698 C701 1.403 . S
C699 C696 1.403 . S
C699 C700 1.524 . S
C699 C703 1.400 . S
C700 H685 0.960 . S
C700 H686 0.960 . S
C700 H687 0.960 . S
C700 C699 1.524 . S
C701 C698 1.403 . S
C701 C702 1.392 . S
C701 C705 1.495 . S
C702 C701 1.392 . S
C702 C703 1.385 . S
C702 C704 1.478 . S
C703 H697 0.930 . S
C703 C699 1.400 . S
C703 C702 1.385 . S
C704 C702 1.478 . S
C704 C706 1.381 . S
C704 C710 1.383 . S
C705 C701 1.495 . S
C705 H711 0.959 . S
C705 H712 0.961 . S
C705 H713 0.960 . S
C706 C704 1.381 . S
C706 C707 1.394 . S
C706 H714 0.930 . S
C707 C706 1.394 . S
C707 C708 1.383 . S
C707 H715 0.929 . S
C708 C707 1.383 . S
C708 C709 1.377 . S
C709 H693 0.930 . S
C709 C708 1.377 . S
C709 C710 1.379 . S
C710 H694 0.931 . S
C710 C704 1.383 . S
C710 C709 1.379 . S
H711 C705 0.959 . S
H712 C705 0.961 . S
H713 C705 0.960 . S
H714 C706 0.930 . S
H715 C707 0.929 . S
H716 C724 0.929 . S
H717 C726 0.930 . S
H718 C728 0.930 . S
H719 C731 0.929 . S
H720 C734 0.930 . S
H721 C736 0.960 . S
H722 C736 0.960 . S
H723 C736 0.960 . S
C724 H716 0.929 . S
C724 C725 1.377 . S
C724 C726 1.384 . S
C725 C724 1.377 . S
C725 C731 1.390 . S
C726 H717 0.930 . S
C726 C724 1.384 . S
C726 C727 1.372 . S
C727 C726 1.372 . S
C727 C728 1.400 . S
C727 C732 1.490 . S
C728 H718 0.930 . S
C728 C727 1.400 . S
C728 C731 1.386 . S
H729 C745 0.930 . S
H730 C746 0.931 . S
C731 H719 0.929 . S
C731 C725 1.390 . S
C731 C728 1.386 . S
C732 C727 1.490 . S
C732 C734 1.395 . S
C732 C735 1.403 . S
H733 C739 0.930 . S
C734 H720 0.930 . S
C734 C732 1.395 . S
C734 C737 1.403 . S
C735 C732 1.403 . S
C735 C736 1.524 . S
C735 C739 1.400 . S
C736 H721 0.960 . S
C736 H722 0.960 . S
C736 H723 0.960 . S
C736 C735 1.524 . S
C737 C734 1.403 . S
C737 C738 1.392 . S
C737 C741 1.495 . S
C738 C737 1.392 . S
C738 C739 1.385 . S
C738 C740 1.478 . S
C739 H733 0.930 . S
C739 C735 1.400 . S
C739 C738 1.385 . S
C740 C738 1.478 . S
C740 C742 1.381 . S
C740 C746 1.383 . S
C741 C737 1.495 . S
C741 H747 0.959 . S
C741 H748 0.961 . S
C741 H749 0.960 . S
C742 C740 1.381 . S
C742 C743 1.394 . S
C742 H750 0.930 . S
C743 C742 1.394 . S
C743 C744 1.383 . S
C743 H751 0.929 . S
C744 C743 1.383 . S
C744 C745 1.377 . S
C745 H729 0.930 . S
C745 C744 1.377 . S
C745 C746 1.379 . S
C746 H730 0.931 . S
C746 C740 1.383 . S
C746 C745 1.379 . S
H747 C741 0.959 . S
H748 C741 0.961 . S
H749 C741 0.960 . S
H750 C742 0.930 . S
H751 C743 0.929 . S
H752 C760 0.929 . S
H753 C762 0.930 . S
H754 C764 0.930 . S
H755 C767 0.929 . S
H756 C770 0.930 . S
H757 C772 0.960 . S
H758 C772 0.960 . S
H759 C772 0.960 . S
C760 H752 0.929 . S
C760 C761 1.377 . S
C760 C762 1.384 . S
C761 C760 1.377 . S
C761 C767 1.390 . S
C762 H753 0.930 . S
C762 C760 1.384 . S
C762 C763 1.372 . S
C763 C762 1.372 . S
C763 C764 1.400 . S
C763 C768 1.490 . S
C764 H754 0.930 . S
C764 C763 1.400 . S
C764 C767 1.386 . S
H765 C781 0.930 . S
H766 C782 0.931 . S
C767 H755 0.929 . S
C767 C761 1.390 . S
C767 C764 1.386 . S
C768 C763 1.490 . S
C768 C770 1.395 1_455 S
C768 C771 1.403 1_545 S
H769 C775 0.930 . S
C770 H756 0.930 . S
C770 C768 1.395 1_655 S
C770 C773 1.403 . S
C771 C768 1.403 1_565 S
C771 C772 1.524 . S
C771 C775 1.400 1_455 S
C772 H757 0.960 . S
C772 H758 0.960 . S
C772 H759 0.960 . S
C772 C771 1.524 . S
C773 C770 1.403 . S
C773 C774 1.392 1_545 S
C773 C777 1.495 . S
C774 C773 1.392 1_565 S
C774 C775 1.385 . S
C774 C776 1.478 . S
C775 H769 0.930 . S
C775 C771 1.400 1_655 S
C775 C774 1.385 . S
C776 C774 1.478 . S
C776 C778 1.381 . S
C776 C782 1.383 . S
C777 C773 1.495 . S
C777 H783 0.959 . S
C777 H784 0.961 . S
C777 H785 0.960 . S
C778 C776 1.381 . S
C778 C779 1.394 . S
C778 H786 0.930 . S
C779 C778 1.394 . S
C779 C780 1.383 . S
C779 H787 0.929 . S
C780 C779 1.383 . S
C780 C781 1.377 . S
C781 H765 0.930 . S
C781 C780 1.377 . S
C781 C782 1.379 . S
C782 H766 0.931 . S
C782 C776 1.383 . S
C782 C781 1.379 . S
H783 C777 0.959 . S
H784 C777 0.961 . S
H785 C777 0.960 . S
H786 C778 0.930 . S
H787 C779 0.929 . S
H788 C796 0.929 . S
H789 C798 0.930 . S
H790 C800 0.930 . S
H791 C803 0.929 . S
H792 C806 0.930 . S
H793 C808 0.960 . S
H794 C808 0.960 . S
H795 C808 0.960 . S
C796 H788 0.929 . S
C796 C797 1.377 . S
C796 C798 1.384 . S
C797 C796 1.377 . S
C797 C803 1.390 . S
C798 H789 0.930 . S
C798 C796 1.384 . S
C798 C799 1.372 . S
C799 C798 1.372 . S
C799 C800 1.400 . S
C799 C804 1.490 . S
C800 H790 0.930 . S
C800 C799 1.400 . S
C800 C803 1.386 . S
H801 C817 0.930 . S
H802 C818 0.931 . S
C803 H791 0.929 . S
C803 C797 1.390 . S
C803 C800 1.386 . S
C804 C799 1.490 . S
C804 C806 1.395 . S
C804 C807 1.403 1_455 S
H805 C811 0.930 . S
C806 H792 0.930 . S
C806 C804 1.395 . S
C806 C809 1.403 . S
C807 C804 1.403 1_655 S
C807 C808 1.524 . S
C807 C811 1.400 . S
C808 H793 0.960 . S
C808 H794 0.960 . S
C808 H795 0.960 . S
C808 C807 1.524 . S
C809 C806 1.403 . S
C809 C810 1.392 1_455 S
C809 C813 1.495 . S
C810 C809 1.392 1_655 S
C810 C811 1.385 . S
C810 C812 1.478 . S
C811 H805 0.930 . S
C811 C807 1.400 . S
C811 C810 1.385 . S
C812 C810 1.478 . S
C812 C814 1.381 . S
C812 C818 1.383 . S
C813 C809 1.495 . S
C813 H819 0.959 . S
C813 H820 0.961 . S
C813 H821 0.960 . S
C814 C812 1.381 . S
C814 C815 1.394 . S
C814 H822 0.930 . S
C815 C814 1.394 . S
C815 C816 1.383 . S
C815 H823 0.929 . S
C816 C815 1.383 . S
C816 C817 1.377 . S
C817 H801 0.930 . S
C817 C816 1.377 . S
C817 C818 1.379 . S
C818 H802 0.931 . S
C818 C812 1.383 . S
C818 C817 1.379 . S
H819 C813 0.959 . S
H820 C813 0.961 . S
H821 C813 0.960 . S
H822 C814 0.930 . S
H823 C815 0.929 . S
H824 C832 0.929 . S
H825 C834 0.930 . S
H826 C836 0.930 . S
H827 C839 0.929 . S
H828 C842 0.930 . S
H829 C844 0.960 . S
H830 C844 0.960 . S
H831 C844 0.960 . S
C832 H824 0.929 . S
C832 C833 1.377 . S
C832 C834 1.384 . S
C833 C832 1.377 . S
C833 C839 1.390 . S
C834 H825 0.930 . S
C834 C832 1.384 . S
C834 C835 1.372 . S
C835 C834 1.372 . S
C835 C836 1.400 . S
C835 C840 1.490 . S
C836 H826 0.930 . S
C836 C835 1.400 . S
C836 C839 1.386 . S
H837 C853 0.930 . S
H838 C854 0.931 . S
C839 H827 0.929 . S
C839 C833 1.390 . S
C839 C836 1.386 . S
C840 C835 1.490 . S
C840 C842 1.395 . S
C840 C843 1.403 . S
H841 C847 0.930 . S
C842 H828 0.930 . S
C842 C840 1.395 . S
C842 C845 1.403 . S
C843 C840 1.403 . S
C843 C844 1.524 . S
C843 C847 1.400 . S
C844 H829 0.960 . S
C844 H830 0.960 . S
C844 H831 0.960 . S
C844 C843 1.524 . S
C845 C842 1.403 . S
C845 C846 1.392 . S
C845 C849 1.495 . S
C846 C845 1.392 . S
C846 C847 1.385 . S
C846 C848 1.478 . S
C847 H841 0.930 . S
C847 C843 1.400 . S
C847 C846 1.385 . S
C848 C846 1.478 . S
C848 C850 1.381 . S
C848 C854 1.383 . S
C849 C845 1.495 . S
C849 H855 0.959 . S
C849 H856 0.961 . S
C849 H857 0.960 . S
C850 C848 1.381 . S
C850 C851 1.394 . S
C850 H858 0.930 . S
C851 C850 1.394 . S
C851 C852 1.383 . S
C851 H859 0.929 . S
C852 C851 1.383 . S
C852 C853 1.377 . S
C853 H837 0.930 . S
C853 C852 1.377 . S
C853 C854 1.379 . S
C854 H838 0.931 . S
C854 C848 1.383 . S
C854 C853 1.379 . S
H855 C849 0.959 . S
H856 C849 0.961 . S
H857 C849 0.960 . S
H858 C850 0.930 . S
H859 C851 0.929 . S
H860 C868 0.929 . S
H861 C870 0.930 . S
H862 C872 0.930 . S
H863 C875 0.929 . S
H864 C878 0.930 . S
H865 C880 0.960 . S
H866 C880 0.960 . S
H867 C880 0.960 . S
C868 H860 0.929 . S
C868 C869 1.377 . S
C868 C870 1.384 . S
C869 C868 1.377 . S
C869 C875 1.390 . S
C870 H861 0.930 . S
C870 C868 1.384 . S
C870 C871 1.372 . S
C871 C870 1.372 . S
C871 C872 1.400 . S
C871 C876 1.490 . S
C872 H862 0.930 . S
C872 C871 1.400 . S
C872 C875 1.386 . S
H873 C889 0.930 . S
H874 C890 0.931 . S
C875 H863 0.929 . S
C875 C869 1.390 . S
C875 C872 1.386 . S
C876 C871 1.490 . S
C876 C878 1.395 1_545 S
C876 C879 1.403 . S
H877 C883 0.930 . S
C878 H864 0.930 . S
C878 C876 1.395 1_565 S
C878 C881 1.403 . S
C879 C876 1.403 . S
C879 C880 1.524 . S
C879 C883 1.397 . S
C880 H865 0.960 . S
C880 H866 0.960 . S
C880 H867 0.960 . S
C880 C879 1.524 . S
C881 C878 1.403 . S
C881 C882 1.392 . S
C881 C885 1.495 . S
C882 C881 1.392 . S
C882 C883 1.388 1_565 S
C882 C884 1.478 . S
C883 H877 0.930 . S
C883 C879 1.397 . S
C883 C882 1.388 1_545 S
C884 C882 1.478 . S
C884 C886 1.381 . S
C884 C890 1.383 . S
C885 C881 1.495 . S
C885 H891 0.959 . S
C885 H892 0.961 . S
C885 H893 0.960 . S
C886 C884 1.381 . S
C886 C887 1.394 . S
C886 H894 0.930 . S
C887 C886 1.394 . S
C887 C888 1.383 . S
C887 H895 0.929 . S
C888 C887 1.383 . S
C888 C889 1.377 . S
C889 H873 0.930 . S
C889 C888 1.377 . S
C889 C890 1.379 . S
C890 H874 0.931 . S
C890 C884 1.383 . S
C890 C889 1.379 . S
H891 C885 0.959 . S
H892 C885 0.961 . S
H893 C885 0.960 . S
H894 C886 0.930 . S
H895 C887 0.929 . S
H896 C904 0.929 . S
H897 C906 0.930 . S
H898 C908 0.930 . S
H899 C911 0.929 . S
H900 C914 0.930 . S
H901 C916 0.960 1_455 S
H902 C916 0.960 . S
H903 C916 0.960 . S
C904 H896 0.929 . S
C904 C905 1.377 . S
C904 C906 1.384 . S
C905 C904 1.377 . S
C905 C911 1.390 . S
C906 H897 0.930 . S
C906 C904 1.384 . S
C906 C907 1.372 . S
C907 C906 1.372 . S
C907 C908 1.400 . S
C907 C912 1.490 . S
C908 H898 0.930 . S
C908 C907 1.400 . S
C908 C911 1.386 . S
H909 C925 0.930 . S
H910 C926 0.931 . S
C911 H899 0.929 . S
C911 C905 1.390 . S
C911 C908 1.386 . S
C912 C907 1.490 . S
C912 C914 1.395 . S
C912 C915 1.403 . S
H913 C919 0.930 . S
C914 H900 0.930 . S
C914 C912 1.395 . S
C914 C917 1.403 1_655 S
C915 C912 1.403 . S
C915 C916 1.524 . S
C915 C919 1.400 1_655 S
C916 H901 0.960 1_655 S
C916 H902 0.960 . S
C916 H903 0.960 . S
C916 C915 1.524 . S
C917 C914 1.403 1_455 S
C917 C918 1.392 . S
C917 C921 1.495 . S
C918 C917 1.392 . S
C918 C919 1.385 . S
C918 C920 1.478 . S
C919 H913 0.930 . S
C919 C915 1.400 1_455 S
C919 C918 1.385 . S
C920 C918 1.478 . S
C920 C922 1.381 . S
C920 C926 1.383 . S
C921 C917 1.495 . S
C921 H927 0.959 1_455 S
C921 H928 0.961 . S
C921 H929 0.960 . S
C922 C920 1.381 . S
C922 C923 1.394 . S
C922 H930 0.930 . S
C923 C922 1.394 . S
C923 C924 1.383 . S
C923 H931 0.929 . S
C924 C923 1.383 . S
C924 C925 1.377 . S
C925 H909 0.930 . S
C925 C924 1.377 . S
C925 C926 1.379 . S
C926 H910 0.931 . S
C926 C920 1.383 . S
C926 C925 1.379 . S
H927 C921 0.959 1_655 S
H928 C921 0.961 . S
H929 C921 0.960 . S
H930 C922 0.930 . S
H931 C923 0.929 . S
H932 C940 0.929 . S
H933 C942 0.930 . S
H934 C944 0.930 . S
H935 C947 0.929 . S
H936 C950 0.930 . S
H937 C952 0.960 . S
H938 C952 0.960 . S
H939 C952 0.960 . S
C940 H932 0.929 . S
C940 C941 1.377 . S
C940 C942 1.384 . S
C941 C940 1.377 . S
C941 C947 1.390 . S
C942 H933 0.930 . S
C942 C940 1.384 . S
C942 C943 1.372 . S
C943 C942 1.372 . S
C943 C944 1.400 . S
C943 C948 1.490 . S
C944 H934 0.930 . S
C944 C943 1.400 . S
C944 C947 1.386 . S
H945 C961 0.930 . S
H946 C962 0.931 . S
C947 H935 0.929 . S
C947 C941 1.390 . S
C947 C944 1.386 . S
C948 C943 1.490 . S
C948 C950 1.395 . S
C948 C951 1.403 . S
H949 C955 0.930 . S
C950 H936 0.930 . S
C950 C948 1.395 . S
C950 C953 1.403 . S
C951 C948 1.403 . S
C951 C952 1.524 . S
C951 C955 1.400 . S
C952 H937 0.960 . S
C952 H938 0.960 . S
C952 H939 0.960 . S
C952 C951 1.524 . S
C953 C950 1.403 . S
C953 C954 1.392 . S
C953 C957 1.495 . S
C954 C953 1.392 . S
C954 C955 1.385 . S
C954 C956 1.478 . S
C955 H949 0.930 . S
C955 C951 1.400 . S
C955 C954 1.385 . S
C956 C954 1.478 . S
C956 C958 1.381 . S
C956 C962 1.383 . S
C957 C953 1.495 . S
C957 H963 0.959 . S
C957 H964 0.961 . S
C957 H965 0.960 . S
C958 C956 1.381 . S
C958 C959 1.394 . S
C958 H966 0.930 . S
C959 C958 1.394 . S
C959 C960 1.383 . S
C959 H967 0.929 . S
C960 C959 1.383 . S
C960 C961 1.377 . S
C961 H945 0.930 . S
C961 C960 1.377 . S
C961 C962 1.379 . S
C962 H946 0.931 . S
C962 C956 1.383 . S
C962 C961 1.379 . S
H963 C957 0.959 . S
H964 C957 0.961 . S
H965 C957 0.960 . S
H966 C958 0.930 . S
H967 C959 0.929 . S
H968 C976 0.929 . S
H969 C978 0.930 . S
H970 C980 0.930 . S
H971 C983 0.929 . S
H972 C986 0.930 . S
H973 C988 0.960 . S
H974 C988 0.960 . S
H975 C988 0.960 . S
C976 H968 0.929 . S
C976 C977 1.377 . S
C976 C978 1.384 . S
C977 C976 1.377 . S
C977 C983 1.390 . S
C978 H969 0.930 . S
C978 C976 1.384 . S
C978 C979 1.372 . S
C979 C978 1.372 . S
C979 C980 1.400 . S
C979 C984 1.490 . S
C980 H970 0.930 . S
C980 C979 1.400 . S
C980 C983 1.386 . S
H981 C997 0.930 . S
H982 C998 0.931 . S
C983 H971 0.929 . S
C983 C977 1.390 . S
C983 C980 1.386 . S
C984 C979 1.490 . S
C984 C986 1.395 1_545 S
C984 C987 1.403 . S
H985 C991 0.930 . S
C986 H972 0.930 . S
C986 C984 1.395 1_565 S
C986 C989 1.403 . S
C987 C984 1.403 . S
C987 C988 1.524 . S
C987 C991 1.400 1_545 S
C988 H973 0.960 . S
C988 H974 0.960 . S
C988 H975 0.960 . S
C988 C987 1.524 . S
C989 C986 1.403 . S
C989 C990 1.392 . S
C989 C993 1.495 . S
C990 C989 1.392 . S
C990 C991 1.385 . S
C990 C992 1.478 . S
C991 H985 0.930 . S
C991 C987 1.400 1_565 S
C991 C990 1.385 . S
C992 C990 1.478 . S
C992 C994 1.381 . S
C992 C998 1.383 . S
C993 C989 1.495 . S
C993 H999 0.959 . S
C993 H1000 0.961 . S
C993 H1001 0.960 . S
C994 C992 1.381 . S
C994 C995 1.394 . S
C994 H1002 0.930 . S
C995 C994 1.394 . S
C995 C996 1.383 . S
C995 H1003 0.929 . S
C996 C995 1.383 . S
C996 C997 1.377 . S
C997 H981 0.930 . S
C997 C996 1.377 . S
C997 C998 1.379 . S
C998 H982 0.931 . S
C998 C992 1.383 . S
C998 C997 1.379 . S
H999 C993 0.959 . S
H1000 C993 0.961 . S
H1001 C993 0.960 . S
H1002 C994 0.930 . S
H1003 C995 0.929 . S
H1004 C1012 0.929 . S
H1005 C1014 0.930 . S
H1006 C1016 0.930 . S
H1007 C1019 0.929 . S
H1008 C1022 0.930 . S
H1009 C1024 0.960 . S
H1010 C1024 0.960 1_565 S
H1011 C1024 0.961 . S
C1012 H1004 0.929 . S
C1012 C1013 1.377 . S
C1012 C1014 1.384 . S
C1013 C1012 1.377 . S
C1013 C1019 1.390 . S
C1014 H1005 0.930 . S
C1014 C1012 1.384 . S
C1014 C1015 1.372 . S
C1015 C1014 1.372 . S
C1015 C1016 1.400 . S
C1015 C1020 1.490 . S
C1016 H1006 0.930 . S
C1016 C1015 1.400 . S
C1016 C1019 1.386 . S
H1017 C1033 0.930 . S
H1018 C1034 0.931 . S
C1019 H1007 0.929 . S
C1019 C1013 1.390 . S
C1019 C1016 1.386 . S
C1020 C1015 1.490 . S
C1020 C1022 1.395 1_655 S
C1020 C1023 1.423 . S
H1021 C1027 0.931 1_655 S
C1022 H1008 0.930 . S
C1022 C1020 1.395 1_455 S
C1022 C1025 1.403 . S
C1023 C1020 1.423 . S
C1023 C1024 1.522 1_565 S
C1023 C1027 1.384 1_665 S
C1024 H1009 0.960 . S
C1024 H1010 0.960 1_545 S
C1024 H1011 0.961 . S
C1024 C1023 1.522 1_545 S
C1025 C1022 1.403 . S
C1025 C1026 1.392 1_565 S
C1025 C1029 1.495 . S
C1026 C1025 1.392 1_545 S
C1026 C1027 1.382 . S
C1026 C1028 1.478 . S
C1027 H1021 0.931 1_455 S
C1027 C1023 1.384 1_445 S
C1027 C1026 1.382 . S
C1028 C1026 1.478 . S
C1028 C1030 1.381 . S
C1028 C1034 1.383 . S
C1029 C1025 1.495 . S
C1029 H1035 0.959 . S
C1029 H1036 0.961 1_565 S
C1029 H1037 0.960 . S
C1030 C1028 1.381 . S
C1030 C1031 1.394 . S
C1030 H1038 0.930 . S
C1031 C1030 1.394 . S
C1031 C1032 1.383 . S
C1031 H1039 0.929 . S
C1032 C1031 1.383 . S
C1032 C1033 1.377 . S
C1033 H1017 0.930 . S
C1033 C1032 1.377 . S
C1033 C1034 1.379 . S
C1034 H1018 0.931 . S
C1034 C1028 1.383 . S
C1034 C1033 1.379 . S
H1035 C1029 0.959 . S
H1036 C1029 0.961 1_545 S
H1037 C1029 0.960 . S
H1038 C1030 0.930 . S
H1039 C1031 0.929 . S
C185 C170 1.400 . S
C204 C5 1.364 . S
C221 C137 1.401 . S
C240 C16 1.345 . S
C257 C27 1.385 . S
C276 C148 1.413 . S
C293 C38 1.401 . S
C312 C159 1.352 . S
C329 C49 1.399 . S
C348 C104 1.371 . S
C365 C60 1.384 . S
C384 C115 1.432 . S
C401 C71 1.383 . S
C420 C126 1.433 . S
C437 C82 1.396 . S
C456 C93 1.360 . S
C473 C7 1.527 . S
C492 C51 1.525 . S
C509 C62 1.534 . S
C528 C18 1.535 . S
C545 C73 1.527 . S
C564 C29 1.511 . S
C581 C40 1.534 . S
C600 C84 1.539 . S
C617 C95 1.526 . S
C636 C139 1.518 . S
C653 C106 1.528 . S
C672 C150 1.510 . S
C689 C117 1.528 . S
C708 C161 1.526 . S
C725 C128 1.526 . S
C744 C172 1.515 . S
C761 C8 1.592 . S
C780 C118 1.584 . S
C797 C129 1.592 . S
C816 C19 1.589 . S
C833 C96 1.590 . S
C852 C30 1.594 . S
C869 C107 1.592 . S
C888 C41 1.588 . S
C905 C162 1.590 . S
C924 C52 1.580 . S
C941 C63 1.590 . S
C960 C173 1.593 . S
C977 C74 1.589 . S
C996 C140 1.593 . S
C1013 C85 1.589 . S
C1032 C151 1.592 . S
