# Generated by pormake.
# Topology unf, (4)-cn, num edge types: 1
# Building blocks:
#     Node 0, Type 0, BuildingBlock: KUFVIS_clean_sbu_0, # of connection points: 4
#     Node 1, Type 0, BuildingBlock: KUFVIS_clean_sbu_0, # of connection points: 4
#     Node 2, Type 0, BuildingBlock: KUFVIS_clean_sbu_0, # of connection points: 4
#     Node 3, Type 0, BuildingBlock: KUFVIS_clean_sbu_0, # of connection points: 4
#     Node 4, Type 0, BuildingBlock: KUFVIS_clean_sbu_0, # of connection points: 4
#     Node 5, Type 0, BuildingBlock: KUFVIS_clean_sbu_0, # of connection points: 4
#     Node 6, Type 0, BuildingBlock: KUFVIS_clean_sbu_0, # of connection points: 4
#     Node 7, Type 0, BuildingBlock: KUFVIS_clean_sbu_0, # of connection points: 4
#     Node 8, Type 0, BuildingBlock: KUFVIS_clean_sbu_0, # of connection points: 4
#     Node 9, Type 0, BuildingBlock: KUFVIS_clean_sbu_0, # of connection points: 4
#     Node 10, Type 0, BuildingBlock: KUFVIS_clean_sbu_0, # of connection points: 4
#     Node 11, Type 0, BuildingBlock: KUFVIS_clean_sbu_0, # of connection points: 4
#     Edge 12, Type (0, 0), BuildingBlock: XUDNAN_clean_linker_2, # of connection points: 2
#     Edge 13, Type (0, 0), BuildingBlock: XUDNAN_clean_linker_2, # of connection points: 2
#     Edge 14, Type (0, 0), BuildingBlock: XUDNAN_clean_linker_2, # of connection points: 2
#     Edge 15, Type (0, 0), BuildingBlock: XUDNAN_clean_linker_2, # of connection points: 2
#     Edge 16, Type (0, 0), BuildingBlock: XUDNAN_clean_linker_2, # of connection points: 2
#     Edge 17, Type (0, 0), BuildingBlock: XUDNAN_clean_linker_2, # of connection points: 2
#     Edge 18, Type (0, 0), BuildingBlock: XUDNAN_clean_linker_2, # of connection points: 2
#     Edge 19, Type (0, 0), BuildingBlock: XUDNAN_clean_linker_2, # of connection points: 2
#     Edge 20, Type (0, 0), BuildingBlock: XUDNAN_clean_linker_2, # of connection points: 2
#     Edge 21, Type (0, 0), BuildingBlock: XUDNAN_clean_linker_2, # of connection points: 2
#     Edge 22, Type (0, 0), BuildingBlock: XUDNAN_clean_linker_2, # of connection points: 2
#     Edge 23, Type (0, 0), BuildingBlock: XUDNAN_clean_linker_2, # of connection points: 2
#     Edge 24, Type (0, 0), BuildingBlock: XUDNAN_clean_linker_2, # of connection points: 2
#     Edge 25, Type (0, 0), BuildingBlock: XUDNAN_clean_linker_2, # of connection points: 2
#     Edge 26, Type (0, 0), BuildingBlock: XUDNAN_clean_linker_2, # of connection points: 2
#     Edge 27, Type (0, 0), BuildingBlock: XUDNAN_clean_linker_2, # of connection points: 2
#     Edge 28, Type (0, 0), BuildingBlock: XUDNAN_clean_linker_2, # of connection points: 2
#     Edge 29, Type (0, 0), BuildingBlock: XUDNAN_clean_linker_2, # of connection points: 2
#     Edge 30, Type (0, 0), BuildingBlock: XUDNAN_clean_linker_2, # of connection points: 2
#     Edge 31, Type (0, 0), BuildingBlock: XUDNAN_clean_linker_2, # of connection points: 2
#     Edge 32, Type (0, 0), BuildingBlock: XUDNAN_clean_linker_2, # of connection points: 2
#     Edge 33, Type (0, 0), BuildingBlock: XUDNAN_clean_linker_2, # of connection points: 2
#     Edge 34, Type (0, 0), BuildingBlock: XUDNAN_clean_linker_2, # of connection points: 2
#     Edge 35, Type (0, 0), BuildingBlock: XUDNAN_clean_linker_2, # of connection points: 2
# Relax obj value: 0.237
# Max RMSD: 0.188
# Mean RMSD: 0.183
data_MOF--net-unf--node1-KUFVIS_clean_sbu_0--edge1-XUDNAN_clean_linker_2
_symmetry_space_group_name_H-M    P1
_symmetry_Int_Tables_number       1
_symmetry_cell_setting            triclinic
loop_
_symmetry_equiv_pos_as_xyz
'x, y, z'
_cell_length_a     37.831793
_cell_length_b     38.576124
_cell_length_c     35.496524
_cell_angle_alpha  90.105918
_cell_angle_beta   89.806221
_cell_angle_gamma 119.48103
loop_
_atom_site_label
_atom_site_type_symbol
_atom_site_fract_x
_atom_site_fract_y
_atom_site_fract_z
_atom_type_partial_charge
Mn0 Mn 0.07312 0.38368 0.08922 0.0
Mn1 Mn 0.03515 0.30207 0.1449 0.0
C2 C 0.02003 0.32473 0.06816 0.0
C3 C 0.07281 0.44059 0.06819 0.0
C4 C 0.10863 0.32721 0.0955 0.0
O5 O 0.10063 0.40748 0.1393 0.0
O6 O 0.07441 0.35063 0.17246 0.0
C7 C 0.98867 0.3277 0.19372 0.0
N8 N 0.98957 0.30024 0.17016 0.0
C9 C 0.9176 0.25683 0.17706 0.0
C10 C 0.9159 0.28459 0.20147 0.0
C11 C 0.95158 0.32025 0.20973 0.0
C12 C 0.95532 0.26619 0.16148 0.0
H13 H 0.01603 0.35509 0.20024 0.0
C14 C 0.09793 0.3882 0.16928 0.0
O15 O 0.10423 0.43589 0.06294 0.0
O16 O 0.04362 0.41421 0.08876 0.0
N17 N 0.9968 0.25204 0.1234 0.0
C18 C 0.00437 0.22666 0.1026 0.0
C19 C 0.97201 0.18935 0.09226 0.0
C20 C 0.93251 0.17778 0.10486 0.0
C21 C 0.92588 0.20337 0.12825 0.0
C22 C 0.95921 0.24046 0.13707 0.0
H23 H 0.03484 0.23512 0.09351 0.0
O24 O 0.04131 0.35341 0.04506 0.0
O25 O 0.02835 0.33214 0.10394 0.0
O26 O 0.11026 0.35911 0.08294 0.0
O27 O 0.08133 0.3029 0.11827 0.0
C28 C 0.88769 0.19314 0.14389 0.0
C29 C 0.88346 0.22002 0.16796 0.0
H30 H 0.88741 0.27878 0.21415 0.0
H31 H 0.95053 0.34185 0.22853 0.0
H32 H 0.97755 0.16943 0.07487 0.0
H33 H 0.90766 0.14887 0.09704 0.0
H34 H 0.86136 0.16462 0.13766 0.0
H35 H 0.85392 0.21186 0.17969 0.0
Mn36 Mn 0.6146 0.69336 0.07143 0.0
Mn37 Mn 0.70154 0.75788 0.11544 0.0
C38 C 0.67544 0.6971 0.05486 0.0
C39 C 0.55793 0.63142 0.0599 0.0
C40 C 0.66494 0.78253 0.05311 0.0
O41 O 0.59269 0.7073 0.11881 0.0
O42 O 0.65319 0.75238 0.14268 0.0
C43 C 0.68871 0.70835 0.18324 0.0
N44 N 0.71203 0.72875 0.15311 0.0
C45 C 0.76326 0.71176 0.16971 0.0
C46 C 0.73986 0.69071 0.20101 0.0
C47 C 0.7024 0.68895 0.20776 0.0
C48 C 0.74802 0.73045 0.14626 0.0
H49 H 0.65985 0.70683 0.1885 0.0
C50 C 0.6143 0.73371 0.14329 0.0
O51 O 0.56024 0.66418 0.04779 0.0
O52 O 0.58637 0.63498 0.08264 0.0
N53 N 0.7511 0.76649 0.09269 0.0
C54 C 0.7704 0.78889 0.06183 0.0
C55 C 0.80865 0.79432 0.05158 0.0
C56 C 0.82667 0.77668 0.0731 0.0
C57 C 0.80671 0.75466 0.10531 0.0
C58 C 0.76897 0.75092 0.11456 0.0
H59 H 0.75677 0.8026 0.0452 0.0
O60 O 0.64556 0.68374 0.03128 0.0
O61 O 0.66912 0.70786 0.08784 0.0
O62 O 0.63309 0.74868 0.04996 0.0
O63 O 0.69341 0.78967 0.07637 0.0
C64 C 0.82275 0.73627 0.12862 0.0
C65 C 0.80096 0.7147 0.16072 0.0
H66 H 0.7503 0.67568 0.21997 0.0
H67 H 0.68412 0.67267 0.2318 0.0
H68 H 0.82423 0.81218 0.02721 0.0
H69 H 0.85598 0.78054 0.06481 0.0
H70 H 0.85174 0.73842 0.12206 0.0
H71 H 0.8135 0.70053 0.17832 0.0
Mn72 Mn 0.33119 0.92283 0.09007 0.0
Mn73 Mn 0.34348 0.84585 0.06464 0.0
C74 C 0.39609 0.9312 0.084 0.0
C75 C 0.33033 0.98043 0.07329 0.0
C76 C 0.30305 0.84912 0.13794 0.0
O77 O 0.27826 0.88538 0.06317 0.0
O78 O 0.29476 0.84085 0.03804 0.0
C79 C 0.36323 0.86049 0.98335 0.0
N80 N 0.37454 0.85765 0.01908 0.0
C81 C 0.44206 0.87555 0.99834 0.0
C82 C 0.43117 0.87895 0.96138 0.0
C83 C 0.39152 0.8712 0.95384 0.0
C84 C 0.41239 0.86424 0.02651 0.0
H85 H 0.33308 0.85523 0.97754 0.0
C86 C 0.27129 0.8561 0.04143 0.0
O87 O 0.31291 0.96182 0.10424 0.0
O88 O 0.3454 0.96424 0.05134 0.0
N89 N 0.39099 0.85101 0.08896 0.0
C90 C 0.39708 0.8477 0.12629 0.0
C91 C 0.43532 0.85478 0.13858 0.0
C92 C 0.46697 0.86547 0.11244 0.0
C93 C 0.46002 0.86875 0.07418 0.0
C94 C 0.42114 0.86084 0.06352 0.0
H95 H 0.37307 0.83998 0.1466 0.0
O96 O 0.38965 0.95347 0.10737 0.0
O97 O 0.36324 0.90209 0.07046 0.0
O98 O 0.31272 0.88572 0.13552 0.0
O99 O 0.31175 0.831 0.11247 0.0
C100 C 0.49033 0.88015 0.0463 0.0
C101 C 0.48136 0.88356 0.00841 0.0
H102 H 0.45306 0.88769 0.93862 0.0
H103 H 0.3829 0.87387 0.92541 0.0
H104 H 0.44047 0.8523 0.16818 0.0
H105 H 0.49653 0.8713 0.12208 0.0
H106 H 0.52073 0.88666 0.05374 0.0
H107 H 0.505 0.89264 0.98727 0.0
Mn108 Mn 0.6041 0.91643 0.42012 0.0
Mn109 Mn 0.50613 0.84822 0.43373 0.0
C110 C 0.55482 0.93534 0.41994 0.0
C111 C 0.66697 0.96547 0.44264 0.0
C112 C 0.5534 0.85242 0.36264 0.0
O113 O 0.60722 0.87081 0.4455 0.0
O114 O 0.54076 0.82996 0.45969 0.0
C115 C 0.49388 0.84935 0.51602 0.0
N116 N 0.48521 0.85564 0.48033 0.0
C117 C 0.43145 0.86674 0.5027 0.0
C118 C 0.43905 0.85919 0.53956 0.0
C119 C 0.47072 0.85092 0.54628 0.0
C120 C 0.45509 0.86409 0.47362 0.0
H121 H 0.51799 0.84278 0.5213 0.0
C122 C 0.57854 0.83983 0.46127 0.0
O123 O 0.66375 0.94759 0.41076 0.0
O124 O 0.63406 0.95326 0.46238 0.0
N125 N 0.47132 0.86474 0.41029 0.0
C126 C 0.46767 0.87086 0.37306 0.0
C127 C 0.43928 0.88222 0.3618 0.0
C128 C 0.41472 0.88681 0.38887 0.0
C129 C 0.41902 0.88032 0.42702 0.0
C130 C 0.44828 0.86967 0.4366 0.0
H131 H 0.48637 0.86723 0.35213 0.0
O132 O 0.58854 0.95588 0.40148 0.0
O133 O 0.55033 0.90319 0.43588 0.0
O134 O 0.58563 0.88441 0.3711 0.0
O135 O 0.52261 0.83632 0.38446 0.0
C136 C 0.39538 0.88392 0.4559 0.0
C137 C 0.40128 0.87668 0.49367 0.0
H138 H 0.42134 0.86053 0.56299 0.0
H139 H 0.47719 0.84568 0.57472 0.0
H140 H 0.4362 0.88724 0.3323 0.0
H141 H 0.39266 0.89531 0.38005 0.0
H142 H 0.37239 0.89195 0.44936 0.0
H143 H 0.38266 0.87917 0.51561 0.0
Mn144 Mn 0.06373 0.70118 0.41476 0.0
Mn145 Mn 0.04466 0.76585 0.36724 0.0
C146 C 0.01565 0.71633 0.43715 0.0
C147 C 0.04536 0.63385 0.42287 0.0
C148 C 0.11478 0.79242 0.42191 0.0
O149 O 0.094 0.70732 0.36518 0.0
O150 O 0.07903 0.75055 0.33709 0.0
C151 C 0.9926 0.70776 0.30961 0.0
N152 N 0.99773 0.73442 0.33719 0.0
C153 C 0.92982 0.72314 0.32869 0.0
C154 C 0.92383 0.69568 0.30007 0.0
C155 C 0.95532 0.68785 0.2906 0.0
C156 C 0.9674 0.74159 0.34703 0.0
H157 H 0.01677 0.70174 0.30221 0.0
C158 C 0.09728 0.73011 0.33779 0.0
O159 O 0.07964 0.66199 0.43608 0.0
O160 O 0.02413 0.64512 0.4034 0.0
N161 N 0.01229 0.78463 0.39192 0.0
C162 C 0.0243 0.8146 0.41762 0.0
C163 C 0.99659 0.82655 0.42986 0.0
C164 C 0.95736 0.80866 0.41447 0.0
C165 C 0.94651 0.77955 0.38642 0.0
C166 C 0.97526 0.76854 0.37569 0.0
H167 H 0.05467 0.8289 0.42904 0.0
O168 O 0.03018 0.69943 0.45862 0.0
O169 O 0.02771 0.72175 0.40219 0.0
O170 O 0.10918 0.75771 0.43099 0.0
O171 O 0.09195 0.79806 0.39901 0.0
C172 C 0.90866 0.76174 0.36804 0.0
C173 C 0.90016 0.73326 0.33945 0.0
H174 H 0.89524 0.68053 0.28513 0.0
H175 H 0.95091 0.66665 0.26859 0.0
H176 H 0.00551 0.84964 0.45095 0.0
H177 H 0.93612 0.81806 0.42386 0.0
H178 H 0.88586 0.76976 0.37565 0.0
H179 H 0.87086 0.71963 0.32567 0.0
Mn180 Mn 0.31067 0.36993 0.42431 0.0
Mn181 Mn 0.23643 0.28683 0.38355 0.0
C182 C 0.30054 0.30807 0.44126 0.0
C183 C 0.37823 0.42006 0.42813 0.0
C184 C 0.22068 0.32942 0.44693 0.0
O185 O 0.29603 0.39327 0.37909 0.0
O186 O 0.24515 0.33544 0.35686 0.0
C187 C 0.28181 0.2933 0.31344 0.0
N188 N 0.2611 0.27202 0.34432 0.0
C189 C 0.2708 0.21707 0.32644 0.0
C190 C 0.29204 0.23829 0.2943 0.0
C191 C 0.29762 0.2766 0.28782 0.0
C192 C 0.25575 0.23524 0.35093 0.0
H193 H 0.28628 0.3228 0.30847 0.0
C194 C 0.26664 0.37345 0.35647 0.0
O195 O 0.34963 0.42351 0.44516 0.0
O196 O 0.36696 0.38961 0.40613 0.0
N197 N 0.2237 0.23713 0.40631 0.0
C198 C 0.2019 0.22044 0.43829 0.0
C199 C 0.19337 0.18201 0.44877 0.0
C200 C 0.20697 0.16101 0.42612 0.0
C201 C 0.22826 0.17833 0.39273 0.0
C202 C 0.23542 0.21653 0.3835 0.0
H203 H 0.1913 0.23645 0.45574 0.0
O204 O 0.31955 0.33829 0.46343 0.0
O205 O 0.28881 0.31487 0.40903 0.0
O206 O 0.25708 0.35822 0.44991 0.0
O207 O 0.20984 0.30032 0.42404 0.0
C208 C 0.24289 0.15933 0.36836 0.0
C209 C 0.26426 0.17874 0.3353 0.0
H210 H 0.30435 0.22555 0.27451 0.0
H211 H 0.31412 0.29323 0.26316 0.0
H212 H 0.1763 0.16863 0.47424 0.0
H213 H 0.20071 0.13154 0.43453 0.0
H214 H 0.23806 0.12989 0.37487 0.0
H215 H 0.27558 0.16394 0.3169 0.0
Mn216 Mn 0.94871 0.63399 0.9211 0.0
Mn217 Mn 0.96258 0.71921 0.88175 0.0
C218 C 0.00305 0.69455 0.93844 0.0
C219 C 0.96325 0.58209 0.92435 0.0
C220 C 0.89948 0.67434 0.9421 0.0
O221 O 0.91192 0.61364 0.87464 0.0
O222 O 0.92676 0.67312 0.84942 0.0
C223 C 0.00948 0.72027 0.81442 0.0
N224 N 0.0065 0.73807 0.84652 0.0
C225 C 0.07337 0.79403 0.83718 0.0
C226 C 0.07695 0.77652 0.80379 0.0
C227 C 0.04488 0.73945 0.7924 0.0
C228 C 0.03716 0.77376 0.85773 0.0
H229 H 0.98515 0.69155 0.80584 0.0
C230 C 0.9083 0.6349 0.84887 0.0
O231 O 0.93131 0.57951 0.94088 0.0
O232 O 0.9838 0.61269 0.90282 0.0
N233 N 0.99719 0.76574 0.9105 0.0
C234 C 0.99001 0.77726 0.94468 0.0
C235 C 0.0198 0.813 0.96084 0.0
C236 C 0.05654 0.83653 0.94168 0.0
C237 C 0.06316 0.82414 0.90649 0.0
C238 C 0.0322 0.78845 0.89159 0.0
H239 H 0.96194 0.75913 0.95965 0.0
O240 O 0.98987 0.66418 0.96077 0.0
O241 O 0.98393 0.68856 0.90673 0.0
O242 O 0.90817 0.64666 0.94691 0.0
O243 O 0.91746 0.70251 0.91822 0.0
C244 C 0.0996 0.84536 0.88599 0.0
C245 C 0.1047 0.83033 0.85135 0.0
H246 H 0.10437 0.79102 0.78691 0.0
H247 H 0.04755 0.72557 0.76683 0.0
H248 H 0.01456 0.82227 0.98811 0.0
H249 H 0.07959 0.8639 0.9544 0.0
H250 H 0.12412 0.87299 0.89686 0.0
H251 H 0.13307 0.84664 0.83611 0.0
Mn252 Mn 0.37699 0.30388 0.93851 0.0
Mn253 Mn 0.28598 0.22588 0.91578 0.0
C254 C 0.31916 0.29292 0.97024 0.0
C255 C 0.4252 0.37135 0.9345 0.0
C256 C 0.3438 0.21834 0.96829 0.0
O257 O 0.39048 0.2873 0.88789 0.0
O258 O 0.32965 0.23264 0.88048 0.0
C259 C 0.27761 0.26274 0.8457 0.0
N260 N 0.26274 0.24574 0.87991 0.0
C261 C 0.20234 0.25067 0.87111 0.0
C262 C 0.21698 0.26816 0.83578 0.0
C263 C 0.25488 0.2744 0.82311 0.0
C264 C 0.22673 0.24041 0.89271 0.0
H265 H 0.30656 0.26732 0.83568 0.0
C266 C 0.36668 0.25502 0.87066 0.0
O267 O 0.4347 0.3458 0.94832 0.0
O268 O 0.38964 0.35692 0.91936 0.0
N269 N 0.23997 0.21457 0.94665 0.0
C270 C 0.22856 0.19417 0.97982 0.0
C271 C 0.1912 0.18519 0.99627 0.0
C272 C 0.16516 0.19571 0.97766 0.0
C273 C 0.17648 0.21458 0.94248 0.0
C274 C 0.21446 0.2235 0.92785 0.0
H275 H 0.24813 0.18534 0.9939 0.0
O276 O 0.3546 0.31442 0.98491 0.0
O277 O 0.31805 0.27942 0.93635 0.0
O278 O 0.37328 0.25382 0.96325 0.0
O279 O 0.30866 0.205 0.95347 0.0
C280 C 0.15112 0.22395 0.92093 0.0
C281 C 0.16423 0.24243 0.88547 0.0
H282 H 0.19931 0.27676 0.81808 0.0
H283 H 0.2664 0.28788 0.79587 0.0
H284 H 0.18237 0.1699 0.02308 0.0
H285 H 0.13622 0.18845 0.99027 0.0
H286 H 0.12147 0.21717 0.93141 0.0
H287 H 0.14457 0.24977 0.86931 0.0
Mn288 Mn 0.70483 0.08277 0.91886 0.0
Mn289 Mn 0.75994 0.05717 0.8621 0.0
C290 C 0.70826 0.0258 0.93073 0.0
C291 C 0.64316 0.07774 0.93522 0.0
C292 C 0.79699 0.12017 0.92312 0.0
O293 O 0.71491 0.11871 0.87317 0.0
O294 O 0.74866 0.09663 0.83661 0.0
C295 C 0.69727 0.01512 0.80382 0.0
N296 N 0.72376 0.01504 0.82966 0.0
C297 C 0.70338 0.94662 0.81593 0.0
C298 C 0.67628 0.94615 0.78881 0.0
C299 C 0.67315 0.98053 0.78281 0.0
C300 C 0.72684 0.98205 0.83582 0.0
H301 H 0.69437 0.04128 0.79947 0.0
C302 C 0.73277 0.11885 0.84248 0.0
O303 O 0.67694 0.10653 0.94838 0.0
O304 O 0.64561 0.05438 0.91041 0.0
N305 N 0.77281 0.01896 0.88287 0.0
C306 C 0.7996 0.024 0.91077 0.0
C307 C 0.80569 0.99214 0.92078 0.0
C308 C 0.78441 0.95555 0.90189 0.0
C309 C 0.75758 0.9513 0.87281 0.0
C310 C 0.75308 0.98424 0.86377 0.0
H311 H 0.8159 0.05198 0.92554 0.0
O312 O 0.6978 0.04225 0.95701 0.0
O313 O 0.71543 0.04252 0.8977 0.0
O314 O 0.76383 0.11741 0.93503 0.0
O315 O 0.79898 0.09964 0.89567 0.0
C316 C 0.73466 0.91549 0.85281 0.0
C317 C 0.70754 0.91314 0.82444 0.0
H318 H 0.65744 0.91945 0.77271 0.0
H319 H 0.65205 0.9803 0.76217 0.0
H320 H 0.82658 0.99572 0.94316 0.0
H321 H 0.78883 0.9309 0.91001 0.0
H322 H 0.73736 0.88947 0.8593 0.0
H323 H 0.68978 0.88533 0.80953 0.0
Mn324 Mn 0.38951 0.07154 0.58367 0.0
Mn325 Mn 0.29717 0.03499 0.62516 0.0
C326 C 0.33458 0.0146 0.55994 0.0
C327 C 0.45192 0.07647 0.57121 0.0
C328 C 0.3281 0.10008 0.56749 0.0
O329 O 0.40466 0.10269 0.63326 0.0
O330 O 0.341 0.07825 0.65491 0.0
C331 C 0.31794 0.99898 0.68899 0.0
N332 N 0.29323 0.99511 0.65955 0.0
C333 C 0.25007 0.92542 0.67261 0.0
C334 C 0.27496 0.92871 0.70314 0.0
C335 C 0.30915 0.96563 0.71125 0.0
C336 C 0.26084 0.95951 0.65095 0.0
H337 H 0.34419 0.02728 0.69547 0.0
C338 C 0.37927 0.1017 0.65758 0.0
O339 O 0.44449 0.10491 0.56274 0.0
O340 O 0.42535 0.04794 0.59236 0.0
N341 N 0.25055 0.99279 0.60124 0.0
C342 C 0.22665 0.99588 0.57428 0.0
C343 C 0.19046 0.96194 0.5636 0.0
C344 C 0.1781 0.92561 0.58206 0.0
C345 C 0.20176 0.92371 0.61145 0.0
C346 C 0.23789 0.9584 0.62043 0.0
H347 H 0.23536 0.02403 0.56078 0.0
O348 O 0.36672 0.03559 0.53989 0.0
O349 O 0.33575 0.02611 0.59481 0.0
O350 O 0.36327 0.10343 0.56515 0.0
O351 O 0.29965 0.07503 0.58877 0.0
C352 C 0.19022 0.8891 0.63299 0.0
C353 C 0.21462 0.88981 0.66325 0.0
H354 H 0.26799 0.90315 0.72066 0.0
H355 H 0.32854 0.96842 0.73474 0.0
H356 H 0.17188 0.9639 0.5415 0.0
H357 H 0.14989 0.8996 0.57406 0.0
H358 H 0.16247 0.86181 0.62667 0.0
H359 H 0.20542 0.863 0.67958 0.0
Mn360 Mn 0.9116 0.30896 0.5595 0.0
Mn361 Mn 0.9347 0.25074 0.61361 0.0
C362 C 0.97029 0.30632 0.54876 0.0
C363 C 0.91677 0.36998 0.54311 0.0
C364 C 0.87429 0.21824 0.55012 0.0
O365 O 0.87326 0.29723 0.60462 0.0
O366 O 0.89104 0.25772 0.63685 0.0
C367 C 0.97042 0.30741 0.67699 0.0
N368 N 0.97392 0.28422 0.64991 0.0
C369 C 0.04236 0.30421 0.66878 0.0
C370 C 0.03941 0.32814 0.69702 0.0
C371 C 0.00331 0.32979 0.70109 0.0
C372 C 0.00857 0.28255 0.64564 0.0
H373 H 0.94276 0.30885 0.6801 0.0
C374 C 0.86948 0.27459 0.63243 0.0
O375 O 0.88746 0.33642 0.53068 0.0
O376 O 0.94035 0.36778 0.56829 0.0
N377 N 0.97639 0.24103 0.59464 0.0
C378 C 0.97413 0.21635 0.56611 0.0
C379 C 0.00761 0.2111 0.55846 0.0
C380 C 0.04302 0.23121 0.58019 0.0
C381 C 0.04426 0.25572 0.60997 0.0
C382 C 0.00968 0.25926 0.61668 0.0
H383 H 0.947 0.20082 0.5493 0.0
O384 O 0.95442 0.31732 0.52236 0.0
O385 O 0.95164 0.29737 0.58112 0.0
O386 O 0.87674 0.25133 0.54082 0.0
O387 O 0.8949 0.21438 0.57654 0.0
C388 C 0.07851 0.27697 0.63312 0.0
C389 C 0.0776 0.3013 0.66242 0.0
H390 H 0.06474 0.34552 0.71561 0.0
H391 H 0.00086 0.34831 0.72272 0.0
H392 H 0.00607 0.19156 0.53586 0.0
H393 H 0.06898 0.22746 0.57387 0.0
H394 H 0.10579 0.27501 0.62848 0.0
H395 H 0.10423 0.31772 0.67985 0.0
Mn396 Mn 0.69222 0.62197 0.57931 0.0
Mn397 Mn 0.73604 0.70319 0.63493 0.0
C398 C 0.68194 0.67515 0.56859 0.0
C399 C 0.63741 0.56152 0.56089 0.0
C400 C 0.78073 0.68933 0.57177 0.0
O401 O 0.70903 0.60057 0.62448 0.0
O402 O 0.74181 0.65867 0.65617 0.0
C403 C 0.67741 0.66811 0.69787 0.0
N404 N 0.69619 0.69718 0.6715 0.0
C405 C 0.65835 0.72928 0.6909 0.0
C406 C 0.63875 0.69979 0.7184 0.0
C407 C 0.64831 0.66906 0.72188 0.0
C408 C 0.68712 0.72681 0.66784 0.0
H409 H 0.68449 0.64431 0.70051 0.0
C410 C 0.73124 0.62188 0.65163 0.0
O411 O 0.67402 0.57231 0.54929 0.0
O412 O 0.63368 0.58358 0.58643 0.0
N413 N 0.73308 0.74871 0.61796 0.0
C414 C 0.75546 0.77533 0.59061 0.0
C415 C 0.74991 0.80816 0.58376 0.0
C416 C 0.7216 0.81339 0.6052 0.0
C417 C 0.69975 0.78619 0.63389 0.0
C418 C 0.707 0.75435 0.63978 0.0
H419 H 0.7772 0.77139 0.57401 0.0
O420 O 0.6772 0.65053 0.54176 0.0
O421 O 0.69223 0.66788 0.60133 0.0
O422 O 0.75191 0.65467 0.56324 0.0
O423 O 0.77782 0.71128 0.59725 0.0
C424 C 0.67101 0.78935 0.65684 0.0
C425 C 0.65025 0.76086 0.68526 0.0
H426 H 0.61621 0.70036 0.73691 0.0
H427 H 0.63321 0.64611 0.74295 0.0
H428 H 0.76736 0.82933 0.56195 0.0
H429 H 0.71708 0.83852 0.59954 0.0
H430 H 0.66457 0.81352 0.65282 0.0
H431 H 0.6281 0.76352 0.70263 0.0
H432 H 0.15161 0.34939 0.02939 0.0
H433 H 0.13462 0.28167 0.13195 0.0
H434 H 0.18478 0.26299 0.10946 0.0
H435 H 0.15707 0.28178 0.96931 0.0
H436 H 0.19681 0.31592 0.93806 0.0
H437 H 0.16387 0.33063 0.96137 0.0
H438 H 0.22153 0.39081 0.99377 0.0
H439 H 0.25688 0.38108 0.96812 0.0
H440 H 0.26004 0.38554 0.01872 0.0
H441 H 0.24081 0.25692 0.07863 0.0
H442 H 0.29444 0.25769 0.03794 0.0
H443 H 0.26852 0.32145 0.95197 0.0
C444 C 0.15878 0.33097 0.04727 0.0
C445 C 0.1395 0.31717 0.0825 0.0
C446 C 0.14906 0.29252 0.10483 0.0
C447 C 0.17754 0.28184 0.09237 0.0
C448 C 0.19571 0.29565 0.05735 0.0
C449 C 0.18667 0.31954 0.03505 0.0
C450 C 0.2096 0.32928 0.99806 0.0
C451 C 0.18014 0.31344 0.96465 0.0
C452 C 0.23874 0.37435 0.99448 0.0
C453 C 0.23268 0.30678 0.00293 0.0
C454 C 0.22494 0.28844 0.03778 0.0
C455 C 0.24628 0.27004 0.05082 0.0
C456 C 0.2765 0.27054 0.02764 0.0
C457 C 0.28369 0.28772 0.99135 0.0
C458 C 0.26167 0.30614 0.97882 0.0
H459 H 0.71521 0.86316 0.0609 0.0
H460 H 0.6249 0.77407 0.98686 0.0
H461 H 0.632 0.827 0.94357 0.0
H462 H 0.68094 0.93262 0.05173 0.0
H463 H 0.73089 0.97579 0.05312 0.0
H464 H 0.72153 0.93062 0.07631 0.0
H465 H 0.78012 0.93117 0.0382 0.0
H466 H 0.78926 0.97576 0.01375 0.0
H467 H 0.77904 0.93175 0.98749 0.0
H468 H 0.6452 0.88941 0.9105 0.0
H469 H 0.6612 0.95755 0.89218 0.0
H470 H 0.74189 0.00574 0.98775 0.0
C471 C 0.69728 0.85476 0.03538 0.0
C472 C 0.66956 0.81449 0.02727 0.0
C473 C 0.64621 0.80476 0.9938 0.0
C474 C 0.65024 0.83457 0.96885 0.0
C475 C 0.67768 0.87397 0.97776 0.0
C476 C 0.7006 0.88416 0.01033 0.0
C477 C 0.72555 0.92887 0.01473 0.0
C478 C 0.71401 0.94278 0.05112 0.0
C479 C 0.77121 0.94271 0.01345 0.0
C480 C 0.71231 0.94216 0.98005 0.0
C481 C 0.6852 0.91005 0.95873 0.0
C482 C 0.66698 0.91483 0.92654 0.0
C483 C 0.67639 0.95348 0.91618 0.0
C484 C 0.7039 0.98655 0.93781 0.0
C485 C 0.72183 0.9808 0.97016 0.0
H486 H 0.1938 0.83539 0.06276 0.0
H487 H 0.26662 0.83848 0.96696 0.0
H488 H 0.20539 0.8068 0.9274 0.0
H489 H 0.11525 0.74034 0.04611 0.0
H490 H 0.0747 0.74916 0.06084 0.0
H491 H 0.1248 0.77895 0.07988 0.0
H492 H 0.12461 0.8427 0.05784 0.0
H493 H 0.0747 0.8133 0.03783 0.0
H494 H 0.11607 0.84847 0.00891 0.0
H495 H 0.13703 0.76825 0.90033 0.0
H496 H 0.06479 0.72054 0.88861 0.0
H497 H 0.03455 0.73938 0.00179 0.0
C498 C 0.19676 0.83025 0.0332 0.0
C499 C 0.2348 0.83955 0.01769 0.0
C500 C 0.2377 0.83147 0.97929 0.0
C501 C 0.20314 0.81387 0.95652 0.0
C502 C 0.16588 0.8043 0.97269 0.0
C503 C 0.1623 0.81191 0.0102 0.0
C504 C 0.1181 0.79388 0.02167 0.0
C505 C 0.10762 0.76379 0.05402 0.0
C506 C 0.10776 0.82654 0.03218 0.0
C507 C 0.09756 0.77344 0.98527 0.0
C508 C 0.12574 0.78089 0.9571 0.0
C509 C 0.11456 0.76295 0.92181 0.0
C510 C 0.07353 0.73611 0.91532 0.0
C511 C 0.0443 0.72773 0.94385 0.0
C512 C 0.0564 0.74656 0.97922 0.0
H513 H 0.70371 0.7305 0.51345 0.0
H514 H 0.62337 0.67914 0.60925 0.0
H515 H 0.5896 0.71836 0.59379 0.0
H516 H 0.71302 0.83189 0.52015 0.0
H517 H 0.71469 0.83631 0.46963 0.0
H518 H 0.73445 0.8076 0.4922 0.0
H519 H 0.68649 0.74759 0.44966 0.0
H520 H 0.66563 0.77616 0.429 0.0
H521 H 0.63252 0.72927 0.45152 0.0
H522 H 0.55916 0.75563 0.5628 0.0
H523 H 0.53905 0.79541 0.52322 0.0
H524 H 0.64249 0.82659 0.44994 0.0
C525 C 0.67973 0.72852 0.53163 0.0
C526 C 0.66668 0.70298 0.56309 0.0
C527 C 0.6344 0.6997 0.58574 0.0
C528 C 0.615 0.7216 0.57703 0.0
C529 C 0.62847 0.74654 0.54566 0.0
C530 C 0.6606 0.75073 0.52371 0.0
C531 C 0.66805 0.77829 0.49069 0.0
C532 C 0.71006 0.81573 0.49336 0.0
C533 C 0.66285 0.75651 0.453 0.0
C534 C 0.63447 0.78817 0.49696 0.0
C535 C 0.61181 0.76933 0.52864 0.0
C536 C 0.57726 0.77137 0.53848 0.0
C537 C 0.56598 0.79391 0.51571 0.0
C538 C 0.58967 0.81469 0.48394 0.0
C539 C 0.62432 0.81168 0.47453 0.0
H540 H 0.16888 0.80065 0.47958 0.0
H541 H 0.13787 0.86843 0.40147 0.0
H542 H 0.18896 0.93028 0.4299 0.0
H543 H 0.18364 0.85756 0.55768 0.0
H544 H 0.22948 0.8609 0.57674 0.0
H545 H 0.19527 0.81845 0.54895 0.0
H546 H 0.24865 0.82773 0.50028 0.0
H547 H 0.28594 0.86773 0.5287 0.0
H548 H 0.2804 0.87603 0.47965 0.0
H549 H 0.24216 0.9849 0.46435 0.0
H550 H 0.29687 0.03156 0.506 0.0
H551 H 0.29432 0.93239 0.56572 0.0
C552 C 0.17324 0.82852 0.46823 0.0
C553 C 0.14873 0.82918 0.43839 0.0
C554 C 0.15559 0.86652 0.42446 0.0
C555 C 0.18478 0.90217 0.44033 0.0
C556 C 0.20758 0.90052 0.47002 0.0
C557 C 0.2029 0.86499 0.48368 0.0
C558 C 0.23194 0.8727 0.51625 0.0
C559 C 0.20875 0.85121 0.55209 0.0
C560 C 0.2636 0.86032 0.50557 0.0
C561 C 0.25169 0.91784 0.51977 0.0
C562 C 0.2377 0.93296 0.4919 0.0
C563 C 0.25303 0.9736 0.48673 0.0
C564 C 0.28387 0.99982 0.51057 0.0
C565 C 0.2981 0.9854 0.54002 0.0
C566 C 0.28221 0.94389 0.54459 0.0
H567 H 0.99419 0.27784 0.49036 0.0
H568 H 0.03751 0.3488 0.59183 0.0
H569 H 0.10731 0.3616 0.57828 0.0
H570 H 0.06123 0.23339 0.49218 0.0
H571 H 0.06545 0.23643 0.44171 0.0
H572 H 0.0202 0.23085 0.46425 0.0
H573 H 0.03276 0.29485 0.42699 0.0
H574 H 0.07955 0.3008 0.40784 0.0
H575 H 0.07959 0.3407 0.43432 0.0
H576 H 0.17283 0.36834 0.55157 0.0
H577 H 0.22827 0.3681 0.51425 0.0
H578 H 0.14033 0.29284 0.4306 0.0
C579 C 0.01837 0.29542 0.50999 0.0
C580 C 0.0107 0.31104 0.54287 0.0
C581 C 0.04295 0.33534 0.5673 0.0
C582 C 0.08255 0.34296 0.55966 0.0
C583 C 0.08911 0.32646 0.52721 0.0
C584 C 0.05784 0.30318 0.5028 0.0
C585 C 0.073 0.29067 0.46886 0.0
C586 C 0.05376 0.24512 0.46667 0.0
C587 C 0.0658 0.30779 0.43237 0.0
C588 C 0.11758 0.31009 0.47817 0.0
C589 C 0.12651 0.33079 0.51176 0.0
C590 C 0.16614 0.35199 0.52534 0.0
C591 C 0.19738 0.35177 0.50399 0.0
C592 C 0.18848 0.33013 0.46981 0.0
C593 C 0.14804 0.30915 0.45694 0.0
H594 H 0.72151 0.72121 0.99135 0.0
H595 H 0.70612 0.65962 0.0972 0.0
H596 H 0.76284 0.64762 0.08043 0.0
H597 H 0.7422 0.65593 0.93653 0.0
H598 H 0.77894 0.69428 0.90627 0.0
H599 H 0.73883 0.70017 0.92732 0.0
H600 H 0.79185 0.76768 0.95921 0.0
H601 H 0.83007 0.76178 0.93418 0.0
H602 H 0.83383 0.76875 0.98433 0.0
H603 H 0.81982 0.64092 0.05108 0.0
H604 H 0.87369 0.64059 0.01168 0.0
H605 H 0.85177 0.70707 0.92513 0.0
C606 C 0.73066 0.70575 0.01112 0.0
C607 C 0.71082 0.69254 0.04609 0.0
C608 C 0.72221 0.67113 0.07087 0.0
C609 C 0.75409 0.664 0.06146 0.0
C610 C 0.77373 0.67813 0.027 0.0
C611 C 0.76254 0.69864 0.00223 0.0
C612 C 0.78742 0.70922 0.96635 0.0
C613 C 0.76022 0.68866 0.9321 0.0
C614 C 0.81219 0.75456 0.96074 0.0
C615 C 0.81471 0.69195 0.975 0.0
C616 C 0.80619 0.67392 0.00999 0.0
C617 C 0.82691 0.65513 0.02371 0.0
C618 C 0.85734 0.655 1.00113 0.0
C619 C 0.86699 0.67398 0.96548 0.0
C620 C 0.84534 0.69268 0.95242 0.0
H621 H 0.28623 0.14914 1.00101 0.0
H622 H 0.41657 0.22381 0.98718 0.0
H623 H 0.4271 0.17322 0.01991 0.0
H624 H 0.29042 0.10823 0.09519 0.0
H625 H 0.24808 0.06003 0.08407 0.0
H626 H 0.25113 0.10433 0.06397 0.0
H627 H 0.24516 0.07501 0.99707 0.0
H628 H 0.24239 0.03085 0.01682 0.0
H629 H 0.28086 0.05944 0.98229 0.0
H630 H 0.42293 0.11109 0.0443 0.0
H631 H 0.4047 0.04272 0.06316 0.0
H632 H 0.27733 0.00934 0.06499 0.0
C633 C 0.31707 0.1553 0.0055 0.0
C634 C 0.35061 0.19044 0.99148 0.0
C635 C 0.39044 0.19724 0.99786 0.0
C636 C 0.39671 0.1687 0.01644 0.0
C637 C 0.36288 0.13398 0.02907 0.0
C638 C 0.32386 0.12742 0.0244 0.0
C639 C 0.29262 0.08657 0.03853 0.0
C640 C 0.26918 0.09001 0.07246 0.0
C641 C 0.26357 0.06151 0.00678 0.0
C642 C 0.3201 0.07035 0.05022 0.0
C643 C 0.36056 0.09839 0.04474 0.0
C644 C 0.39153 0.08928 0.0497 0.0
C645 C 0.3809 0.05046 0.06023 0.0
C646 C 0.3398 0.02145 0.06605 0.0
C647 C 0.30901 0.03154 0.06167 0.0
H648 H 0.93732 0.28798 0.07114 0.0
H649 H 0.03855 0.27918 0.02456 0.0
H650 H 0.99145 0.22239 0.98512 0.0
H651 H 0.85794 0.17936 0.06706 0.0
H652 H 0.8199 0.19163 0.05258 0.0
H653 H 0.861 0.2255 0.08231 0.0
H654 H 0.87746 0.28114 0.03286 0.0
H655 H 0.83761 0.24638 0.00263 0.0
H656 H 0.88889 0.27404 0.98505 0.0
H657 H 0.9352 0.17148 0.94687 0.0
H658 H 0.87254 0.12861 0.9118 0.0
H659 H 0.80757 0.17277 0.98022 0.0
C660 C 0.94906 0.27273 0.05386 0.0
C661 C 0.99106 0.28625 0.05203 0.0
C662 C 0.00614 0.26789 0.02717 0.0
C663 C 0.97971 0.23581 0.00468 0.0
C664 C 0.93842 0.22332 0.00663 0.0
C665 C 0.92303 0.2411 0.03053 0.0
C666 C 0.87818 0.22528 0.02346 0.0
C667 C 0.85278 0.2042 0.05849 0.0
C668 C 0.87009 0.2587 0.01021 0.0
C669 C 0.87092 0.1959 0.99207 0.0
C670 C 0.90603 0.19515 0.98295 0.0
C671 C 0.90734 0.17143 0.95399 0.0
C672 C 0.87157 0.14733 0.9341 0.0
C673 C 0.83497 0.14715 0.94323 0.0
C674 C 0.8349 0.17197 0.97259 0.0
H675 H 0.28889 0.1428 0.5815 0.0
H676 H 0.34941 0.1123 0.49426 0.0
H677 H 0.34154 0.15703 0.44982 0.0
H678 H 0.21797 0.15491 0.51949 0.0
H679 H 0.22247 0.19802 0.54379 0.0
H680 H 0.22794 0.16056 0.5693 0.0
H681 H 0.29861 0.21195 0.59345 0.0
H682 H 0.29371 0.2507 0.57007 0.0
H683 H 0.33698 0.24432 0.56042 0.0
H684 H 0.33498 0.21014 0.4174 0.0
H685 H 0.32923 0.26893 0.39872 0.0
H686 H 0.27399 0.26649 0.50647 0.0
C687 C 0.29952 0.14497 0.55277 0.0
C688 C 0.31957 0.12421 0.54106 0.0
C689 C 0.33405 0.12822 0.5036 0.0
C690 C 0.32952 0.15331 0.47814 0.0
C691 C 0.31062 0.1743 0.49067 0.0
C692 C 0.29586 0.17053 0.52705 0.0
C693 C 0.28033 0.19939 0.5342 0.0
C694 C 0.23444 0.17691 0.54215 0.0
C695 C 0.30383 0.2283 0.56643 0.0
C696 C 0.28979 0.22062 0.49657 0.0
C697 C 0.30675 0.20527 0.47171 0.0
C698 C 0.32082 0.22184 0.43621 0.0
C699 C 0.31733 0.25499 0.42576 0.0
C700 C 0.29963 0.27075 0.45063 0.0
C701 C 0.28625 0.25378 0.48658 0.0
H702 H 0.80858 0.14989 0.57498 0.0
H703 H 0.88077 0.20679 0.47567 0.0
H704 H 0.83877 0.14559 0.43851 0.0
H705 H 0.78909 0.04976 0.55676 0.0
H706 H 0.73722 0.02629 0.57304 0.0
H707 H 0.7743 0.07353 0.59242 0.0
H708 H 0.72945 0.1043 0.57412 0.0
H709 H 0.69202 0.05712 0.55506 0.0
H710 H 0.71301 0.10109 0.52599 0.0
H711 H 0.78997 0.0779 0.41282 0.0
H712 H 0.73154 0.01221 0.39743 0.0
H713 H 0.68743 0.00109 0.51225 0.0
C714 C 0.81539 0.14922 0.54541 0.0
C715 C 0.84779 0.18262 0.52794 0.0
C716 C 0.85586 0.18129 0.48924 0.0
C717 C 0.83241 0.14666 0.4681 0.0
C718 C 0.80069 0.11399 0.48609 0.0
C719 C 0.79162 0.11521 0.52368 0.0
C720 C 0.75411 0.07705 0.53548 0.0
C721 C 0.76431 0.05538 0.56625 0.0
C722 C 0.72014 0.0854 0.54841 0.0
C723 C 0.74349 0.05418 0.49865 0.0
C724 C 0.77123 0.07573 0.47075 0.0
C725 C 0.76796 0.0608 0.43438 0.0
C726 C 0.73481 0.02333 0.42597 0.0
C727 C 0.70497 0.00155 0.45362 0.0
C728 C 0.70982 0.01702 0.49056 0.0
H729 H 0.93462 0.68027 0.42363 0.0
H730 H 0.03095 0.77113 0.49086 0.0
H731 H 0.98052 0.78029 0.52761 0.0
H732 H 0.85842 0.71767 0.4285 0.0
H733 H 0.8178 0.66726 0.43336 0.0
H734 H 0.86259 0.6774 0.40683 0.0
H735 H 0.86889 0.62608 0.45041 0.0
H736 H 0.82586 0.61908 0.4779 0.0
H737 H 0.87398 0.63482 0.50053 0.0
H738 H 0.92023 0.77548 0.56042 0.0
H739 H 0.85405 0.75287 0.59136 0.0
H740 H 0.79628 0.65982 0.50714 0.0
C741 C 0.9449 0.70334 0.44492 0.0
C742 C 0.98649 0.72672 0.45327 0.0
C743 C -0.00086 0.75434 0.48326 0.0
C744 C 0.97078 0.7597 0.50416 0.0
C745 C 0.92981 0.73606 0.49554 0.0
C746 C 0.91675 0.70807 0.4669 0.0
C747 C 0.87103 0.68164 0.46796 0.0
C748 C 0.85135 0.68629 0.43197 0.0
C749 C 0.85928 0.63783 0.47461 0.0
C750 C 0.86061 0.69896 0.50172 0.0
C751 C 0.89484 0.73082 0.51669 0.0
C752 C 0.8931 0.75081 0.54874 0.0
C753 C 0.85534 0.7377 0.56613 0.0
C754 C 0.81993 0.70451 0.55175 0.0
C755 C 0.82274 0.68525 0.51887 0.0
H756 H 0.1892 0.35606 0.35146 0.0
H757 H 0.30861 0.43568 0.3062 0.0
H758 H 0.27741 0.46016 0.25901 0.0
H759 H 0.14127 0.32391 0.26892 0.0
H760 H 0.09374 0.31994 0.28355 0.0
H761 H 0.12637 0.3162 0.31784 0.0
H762 H 0.12713 0.37385 0.35599 0.0
H763 H 0.09446 0.37797 0.32157 0.0
H764 H 0.14232 0.42094 0.33334 0.0
H765 H 0.23099 0.46579 0.20989 0.0
H766 H 0.17623 0.45007 0.16377 0.0
H767 H 0.08798 0.36719 0.24307 0.0
C768 C 0.20892 0.37952 0.33225 0.0
C769 C 0.25119 0.39409 0.33225 0.0
C770 C 0.27616 0.42452 0.30675 0.0
C771 C 0.25862 0.43853 0.27999 0.0
C772 C 0.21634 0.42232 0.27988 0.0
C773 C 0.19201 0.39375 0.30585 0.0
C774 C 0.14738 0.37712 0.29759 0.0
C775 C 0.12599 0.33164 0.29159 0.0
C776 C 0.12661 0.38815 0.32899 0.0
C777 C 0.15004 0.39895 0.26149 0.0
C778 C 0.18991 0.42567 0.25203 0.0
C779 C 0.1997 0.44573 0.21755 0.0
C780 C 0.16831 0.43683 0.19156 0.0
C781 C 0.12778 0.40762 0.19998 0.0
C782 C 0.11857 0.3901 0.2361 0.0
H783 H 0.65187 0.7971 0.19098 0.0
H784 H 0.53304 0.69748 0.16475 0.0
H785 H 0.50319 0.71858 0.21633 0.0
H786 H 0.64134 0.79316 0.29006 0.0
H787 H 0.6691 0.84649 0.29577 0.0
H788 H 0.67994 0.82374 0.25639 0.0
H789 H 0.66654 0.86817 0.21047 0.0
H790 H 0.65547 0.89096 0.24973 0.0
H791 H 0.61875 0.86782 0.21263 0.0
H792 H 0.48761 0.75041 0.27353 0.0
H793 H 0.48765 0.78877 0.32947 0.0
H794 H 0.61723 0.86761 0.31555 0.0
C795 C 0.61948 0.77944 0.19582 0.0
C796 C 0.59486 0.74533 0.17372 0.0
C797 C 0.5526 0.72363 0.18121 0.0
C798 C 0.53541 0.73547 0.21044 0.0
C799 C 0.56084 0.76925 0.23166 0.0
C800 C 0.60198 0.7909 0.22444 0.0
C801 C 0.62322 0.82576 0.25118 0.0
C802 C 0.65527 0.82204 0.27475 0.0
C803 C 0.6421 0.86553 0.22971 0.0
C804 C 0.58778 0.82026 0.2752 0.0
C805 C 0.55195 0.78763 0.26359 0.0
C806 C 0.5155 0.77612 0.28258 0.0
C807 C 0.51585 0.79816 0.31438 0.0
C808 C 0.55242 0.83146 0.32699 0.0
C809 C 0.58862 0.84271 0.3066 0.0
H810 H 0.25028 0.86406 0.17758 0.0
H811 H 0.29474 0.77998 0.16907 0.0
H812 H 0.24619 0.73858 0.21898 0.0
H813 H 0.23223 0.85735 0.27765 0.0
H814 H 0.18662 0.8608 0.27308 0.0
H815 H 0.22657 0.88408 0.23865 0.0
H816 H 0.17518 0.84482 0.18564 0.0
H817 H 0.1352 0.82099 0.21997 0.0
H818 H 0.14637 0.79125 0.18805 0.0
H819 H 0.19179 0.70689 0.27166 0.0
H820 H 0.13718 0.68813 0.31942 0.0
H821 H 0.12703 0.79152 0.28774 0.0
C822 C 0.25043 0.83733 0.18662 0.0
C823 C 0.2768 0.8256 0.16986 0.0
C824 C 0.27504 0.78972 0.18179 0.0
C825 C 0.24752 0.76601 0.21005 0.0
C826 C 0.22149 0.77825 0.22561 0.0
C827 C 0.22273 0.81306 0.21404 0.0
C828 C 0.19067 0.81912 0.2336 0.0
C829 C 0.2102 0.85761 0.25714 0.0
C830 C 0.16005 0.81902 0.20511 0.0
C831 C 0.17133 0.78256 0.25839 0.0
C832 C 0.18945 0.7593 0.25379 0.0
C833 C 0.17722 0.7248 0.27517 0.0
C834 C 0.1461 0.71428 0.30216 0.0
C835 C 0.12726 0.73792 0.30715 0.0
C836 C 0.14003 0.77217 0.28443 0.0
H837 H 0.91587 0.66333 0.77798 0.0
H838 H 0.83504 0.56477 0.8493 0.0
H839 H 0.7815 0.54266 0.80034 0.0
H840 H 0.84787 0.68964 0.75055 0.0
H841 H 0.86638 0.7036 0.70303 0.0
H842 H 0.90024 0.70577 0.73937 0.0
H843 H 0.9179 0.65925 0.70065 0.0
H844 H 0.88424 0.65722 0.66382 0.0
H845 H 0.87772 0.61182 0.68456 0.0
H846 H 0.73303 0.53937 0.74749 0.0
H847 H 0.69694 0.55513 0.69755 0.0
H848 H 0.81108 0.65595 0.66307 0.0
C849 C 0.88743 0.63623 0.78281 0.0
C850 C 0.87967 0.61562 0.8173 0.0
C851 C 0.84183 0.58063 0.82277 0.0
C852 C 0.81123 0.56798 0.79514 0.0
C853 C 0.81933 0.59026 0.76203 0.0
C854 C 0.85696 0.62332 0.75567 0.0
C855 C 0.85733 0.64513 0.72027 0.0
C856 C 0.86858 0.68856 0.72885 0.0
C857 C 0.88599 0.64322 0.69056 0.0
C858 C 0.81353 0.62055 0.70851 0.0
C859 C 0.79194 0.58848 0.73227 0.0
C860 C 0.74994 0.56386 0.72829 0.0
C861 C 0.72964 0.57286 0.69989 0.0
C862 C 0.75147 0.60651 0.67653 0.0
C863 C 0.79388 0.62978 0.68042 0.0
H864 H 0.33207 0.1791 0.84532 0.0
H865 H 0.43464 0.2965 0.82439 0.0
H866 H 0.45483 0.26897 0.77007 0.0
H867 H 0.38166 0.122 0.82078 0.0
H868 H 0.33607 0.08261 0.80008 0.0
H869 H 0.33263 0.11157 0.83834 0.0
H870 H 0.28719 0.12962 0.79758 0.0
H871 H 0.29024 0.10055 0.7594 0.0
H872 H 0.30517 0.15218 0.75202 0.0
H873 H 0.45929 0.2269 0.71377 0.0
H874 H 0.44628 0.17739 0.66311 0.0
H875 H 0.34134 0.08962 0.72496 0.0
C876 C 0.35898 0.19933 0.8296 0.0
C877 C 0.38155 0.24016 0.83901 0.0
C878 C 0.41681 0.26512 0.81773 0.0
C879 C 0.42849 0.24966 0.78689 0.0
C880 C 0.40492 0.20914 0.77818 0.0
C881 C 0.37101 0.1845 0.79934 0.0
C882 C 0.34919 0.14258 0.78404 0.0
C883 C 0.34996 0.11295 0.81251 0.0
C884 C 0.30539 0.13056 0.77257 0.0
C885 C 0.37531 0.1473 0.75015 0.0
C886 C 0.40765 0.18561 0.74709 0.0
C887 C 0.4343 0.19678 0.71635 0.0
C888 C 0.42687 0.16842 0.68779 0.0
C889 C 0.39285 0.12959 0.69009 0.0
C890 C 0.3677 0.11897 0.7223 0.0
H891 H 0.73082 0.10663 0.76709 0.0
H892 H 0.75018 0.19653 0.85018 0.0
H893 H 0.77538 0.24786 0.79997 0.0
H894 H 0.81652 0.15827 0.71918 0.0
H895 H 0.79642 0.14041 0.67281 0.0
H896 H 0.77145 0.11053 0.71328 0.0
H897 H 0.70423 0.10788 0.69355 0.0
H898 H 0.7293 0.13794 0.65279 0.0
H899 H 0.70334 0.15357 0.68552 0.0
H900 H 0.81359 0.29068 0.74336 0.0
H901 H 0.8576 0.31885 0.68688 0.0
H902 H 0.80892 0.20035 0.64069 0.0
C903 C 0.7388 0.13685 0.77447 0.0
C904 C 0.73833 0.14763 0.81238 0.0
C905 C 0.74968 0.18757 0.82116 0.0
C906 C 0.7641 0.2169 0.79279 0.0
C907 C 0.76588 0.20554 0.75572 0.0
C908 C 0.75255 0.16613 0.7465 0.0
C909 C 0.76168 0.16177 0.70581 0.0
C910 C 0.7881 0.14161 0.70263 0.0
C911 C 0.72228 0.13895 0.68308 0.0
C912 C 0.78482 0.20504 0.69417 0.0
C913 C 0.78643 0.23005 0.72293 0.0
C914 C 0.81125 0.2714 0.72018 0.0
C915 C 0.83596 0.28729 0.68795 0.0
C916 C 0.83553 0.26173 0.65919 0.0
C917 C 0.80851 0.22048 0.66182 0.0
H918 H 0.00859 0.45446 0.07222 0.0
H919 H 0.12099 0.48936 0.01156 0.0
H920 H 0.10256 0.52567 0.96542 0.0
H921 H 0.9464 0.43664 0.99297 0.0
H922 H 0.91629 0.45639 0.01336 0.0
H923 H 0.93924 0.43536 0.04329 0.0
H924 H 0.97575 0.50099 0.08155 0.0
H925 H 0.95195 0.52179 0.05245 0.0
H926 H 0.00643 0.54735 0.05716 0.0
H927 H 0.06955 0.55414 0.92354 0.0
H928 H 0.02986 0.58208 0.89455 0.0
H929 H 0.9389 0.52839 0.98264 0.0
C930 C 0.02981 0.47047 0.04973 0.0
C931 C 0.06633 0.46916 0.04557 0.0
C932 C 0.09304 0.49022 0.01553 0.0
C933 C 0.08262 0.51059 0.98896 0.0
C934 C 0.04552 0.50972 0.99297 0.0
C935 C 0.01992 0.49093 0.02303 0.0
C936 C 0.98182 0.49446 0.02091 0.0
C937 C 0.94369 0.45325 0.01742 0.0
C938 C 0.97883 0.51753 0.05503 0.0
C939 C 0.98987 0.5181 0.98483 0.0
C940 C 0.0266 0.52626 0.96897 0.0
C941 C 0.04083 0.54808 0.9358 0.0
C942 C 0.01786 0.56354 0.91936 0.0
C943 C 0.98115 0.55731 0.9362 0.0
C944 C 0.96649 0.53324 0.96875 0.0
H945 H 0.55567 0.55906 0.06753 0.0
H946 H 0.49891 0.61742 0.00859 0.0
H947 H 0.46369 0.5591 0.96706 0.0
H948 H 0.57258 0.51373 0.98819 0.0
H949 H 0.56034 0.46753 0.01121 0.0
H950 H 0.5799 0.51281 0.03826 0.0
H951 H 0.51722 0.48055 0.08246 0.0
H952 H 0.49808 0.43483 0.05623 0.0
H953 H 0.467 0.45788 0.06246 0.0
H954 H 0.43895 0.49746 0.92867 0.0
H955 H 0.41501 0.43012 0.90332 0.0
H956 H 0.48551 0.40953 0.98763 0.0
C957 C 0.53502 0.55916 0.04654 0.0
C958 C 0.5301 0.59296 0.04141 0.0
C959 C 0.50314 0.59196 0.01325 0.0
C960 C 0.48325 0.55907 0.98923 0.0
C961 C 0.49025 0.52712 0.99385 0.0
C962 C 0.51459 0.52632 0.02236 0.0
C963 C 0.5163 0.48778 0.02134 0.0
C964 C 0.55988 0.49597 0.01433 0.0
C965 C 0.49858 0.46384 0.05778 0.0
C966 C 0.48926 0.46722 0.98769 0.0
C967 C 0.4751 0.49083 0.97202 0.0
C968 C 0.44957 0.47856 0.94085 0.0
C969 C 0.43641 0.44031 0.92644 0.0
C970 C 0.44843 0.41449 0.94334 0.0
C971 C 0.47627 0.42871 0.97367 0.0
H972 H 0.47937 0.97274 0.09803 0.0
H973 H 0.38922 0.93935 0.00974 0.0
H974 H 0.44242 0.97849 0.96396 0.0
H975 H 0.54433 0.07361 0.06642 0.0
H976 H 0.59131 0.07428 0.07656 0.0
H977 H 0.54635 0.04288 0.10362 0.0
H978 H 0.55254 0.98055 0.0865 0.0
H979 H 0.59827 0.01222 0.06057 0.0
H980 H 0.55685 0.97019 0.03768 0.0
H981 H 0.5037 0.01934 0.92691 0.0
H982 H 0.57249 0.05649 0.89934 0.0
H983 H 0.62496 0.06759 0.01006 0.0
C984 C 0.47115 0.97348 0.06898 0.0
C985 C 0.43023 0.95205 0.05731 0.0
C986 C 0.42044 0.95435 0.01918 0.0
C987 C 0.45041 0.977 0.99292 0.0
C988 C 0.49031 0.99784 0.0051 0.0
C989 C 0.50106 0.99615 0.04199 0.0
C990 C 0.54674 0.02091 0.04677 0.0
C991 C 0.55782 0.05494 0.07503 0.0
C992 C 0.56466 0.99439 0.05858 0.0
C993 C 0.55955 0.03676 0.00694 0.0
C994 C 0.52629 0.023 0.9835 0.0
C995 C 0.53008 0.03093 0.94497 0.0
C996 C 0.56913 0.0523 0.92958 0.0
C997 C 0.60368 0.06595 0.95278 0.0
C998 C 0.59886 0.05896 0.99207 0.0
H999 H 0.53851 0.94029 0.49381 0.0
H1000 H 0.53152 0.98224 0.38238 0.0
H1001 H 0.51289 0.0298 0.41089 0.0
H1002 H 0.45693 0.94527 0.53843 0.0
H1003 H 0.48288 0.96506 0.58233 0.0
H1004 H 0.49646 0.93497 0.55392 0.0
H1005 H 0.57068 0.98938 0.55223 0.0
H1006 H 0.55851 0.0206 0.58111 0.0
H1007 H 0.58375 0.03865 0.53646 0.0
H1008 H 0.49858 0.07462 0.45157 0.0
H1009 H 0.47448 0.10365 0.49998 0.0
H1010 H 0.488 0.03069 0.58537 0.0
C1011 C 0.53164 0.95853 0.47538 0.0
C1012 C 0.53519 0.95694 0.4358 0.0
C1013 C 0.52804 0.98258 0.41266 0.0
C1014 C 0.51803 0.00994 0.42865 0.0
C1015 C 0.51612 0.0117 0.46783 0.0
C1016 C 0.52213 0.9863 0.49091 0.0
C1017 C 0.51888 0.99483 0.53218 0.0
C1018 C 0.48672 0.95774 0.55286 0.0
C1019 C 0.56042 0.01188 0.55163 0.0
C1020 C 0.50634 0.02635 0.52858 0.0
C1021 C 0.50713 0.03712 0.49132 0.0
C1022 C 0.49756 0.06619 0.48079 0.0
C1023 C 0.48426 0.08282 0.50871 0.0
C1024 C 0.47917 0.06924 0.54653 0.0
C1025 C 0.49178 0.04169 0.55677 0.0
H1026 H 0.98079 0.44521 0.5584 0.0
H1027 H 0.87922 0.38068 0.4824 0.0
H1028 H 0.90471 0.44004 0.44203 0.0
H1029 H 0.98334 0.54177 0.54907 0.0
H1030 H 0.03795 0.57005 0.55164 0.0
H1031 H 0.01084 0.52284 0.57547 0.0
H1032 H 0.05436 0.4984 0.53986 0.0
H1033 H 0.08092 0.5452 0.51524 0.0
H1034 H 0.05547 0.49927 0.48908 0.0
H1035 H 0.94326 0.50335 0.40714 0.0
H1036 H 0.98565 0.57208 0.38511 0.0
H1037 H 0.06181 0.59897 0.48418 0.0
C1038 C 0.96342 0.44385 0.5337 0.0
C1039 C 0.92787 0.4081 0.52364 0.0
C1040 C 0.90632 0.40759 0.49091 0.0
C1041 C 0.92078 0.44111 0.46755 0.0
C1042 C 0.95666 0.47522 0.47742 0.0
C1043 C 0.97724 0.47736 0.51014 0.0
C1044 C 0.01473 0.51824 0.51424 0.0
C1045 C 0.01151 0.53949 0.54971 0.0
C1046 C 0.05367 0.51507 0.51463 0.0
C1047 C 0.01206 0.53856 0.47853 0.0
C1048 C 0.97853 0.51276 0.45761 0.0
C1049 C 0.96934 0.52397 0.42345 0.0
C1050 C 0.99386 0.56312 0.41107 0.0
C1051 C 0.02712 0.59106 0.43285 0.0
C1052 C 0.03698 0.57825 0.46663 0.0
H1053 H 0.40977 0.46971 0.48918 0.0
H1054 H 0.44382 0.42245 0.39327 0.0
H1055 H 0.51314 0.45023 0.41877 0.0
H1056 H 0.50797 0.56187 0.49908 0.0
H1057 H 0.50477 0.56053 0.54978 0.0
H1058 H 0.45909 0.53958 0.52204 0.0
H1059 H 0.43308 0.47264 0.55747 0.0
H1060 H 0.47921 0.49304 0.58452 0.0
H1061 H 0.46337 0.44832 0.5573 0.0
H1062 H 0.57769 0.47952 0.45684 0.0
H1063 H 0.63521 0.51607 0.50042 0.0
H1064 H 0.55834 0.54265 0.57203 0.0
C1065 C 0.43211 0.46619 0.47298 0.0
C1066 C 0.42142 0.44413 0.43907 0.0
C1067 C 0.45137 0.43947 0.41917 0.0
C1068 C 0.49077 0.45488 0.43358 0.0
C1069 C 0.49978 0.47488 0.46793 0.0
C1070 C 0.47154 0.4812 0.48706 0.0
C1071 C 0.48879 0.50312 0.52375 0.0
C1072 C 0.49025 0.54368 0.52364 0.0
C1073 C 0.46466 0.47775 0.55775 0.0
C1074 C 0.53103 0.50797 0.52231 0.0
C1075 C 0.53674 0.49133 0.49 0.0
C1076 C 0.57359 0.49274 0.48222 0.0
C1077 C 0.60601 0.51324 0.50734 0.0
C1078 C 0.60131 0.53203 0.53979 0.0
C1079 C 0.56288 0.52823 0.54776 0.0
loop_
_geom_bond_atom_site_label_1
_geom_bond_atom_site_label_2
_geom_bond_distance
_geom_bond_site_symmetry_2
_ccdc_geom_bond_type
Mn0 O5 2.095 . S
Mn0 O15 2.162 . S
Mn0 O16 2.297 . S
Mn0 O24 2.385 . S
Mn0 O25 2.209 . S
Mn0 O26 2.094 . S
Mn1 O6 2.121 . S
Mn1 N8 2.257 . S
Mn1 N17 2.282 . S
Mn1 O25 2.215 . S
Mn1 O27 2.117 . S
C2 O24 1.234 . S
C2 O25 1.283 . S
C3 O15 1.281 . S
C3 O16 1.236 . S
C4 O26 1.240 . S
C4 O27 1.264 . S
O5 Mn0 2.095 . S
O5 C14 1.250 . S
O6 Mn1 2.121 . S
O6 C14 1.258 . S
C7 N8 1.326 . S
C7 C11 1.460 1_455 S
C7 H13 0.929 . S
N8 Mn1 2.257 . S
N8 C7 1.326 . S
N8 C12 1.362 1_455 S
C9 C10 1.258 . S
C9 C12 1.431 . S
C9 C29 1.449 . S
C10 C9 1.258 . S
C10 C11 1.477 . S
C10 H30 0.931 . S
C11 C7 1.460 1_655 S
C11 C10 1.477 . S
C11 H31 0.930 . S
C12 N8 1.362 1_655 S
C12 C9 1.431 . S
C12 C22 1.476 1_655 S
H13 C7 0.929 . S
C14 O5 1.250 . S
C14 O6 1.258 . S
O15 Mn0 2.162 . S
O15 C3 1.281 . S
O16 Mn0 2.297 . S
O16 C3 1.236 . S
N17 Mn1 2.282 . S
N17 C18 1.328 . S
N17 C22 1.318 . S
C18 N17 1.328 . S
C18 C19 1.457 1_554 S
C18 H23 0.929 . S
C19 C18 1.457 1_556 S
C19 C20 1.291 1_456 S
C19 H32 0.931 . S
C20 C19 1.291 1_654 S
C20 C21 1.373 . S
C20 H33 0.929 1_554 S
C21 C20 1.373 . S
C21 C22 1.396 1_655 S
C21 C28 1.403 . S
C22 C12 1.476 1_455 S
C22 N17 1.318 . S
C22 C21 1.396 1_455 S
H23 C18 0.929 . S
O24 Mn0 2.385 . S
O24 C2 1.234 . S
O25 Mn0 2.209 . S
O25 Mn1 2.215 . S
O25 C2 1.283 . S
O26 Mn0 2.094 . S
O26 C4 1.240 . S
O27 Mn1 2.117 . S
O27 C4 1.264 . S
C28 C21 1.403 . S
C28 C29 1.399 . S
C28 H34 0.929 . S
C29 C9 1.449 . S
C29 C28 1.399 . S
C29 H35 0.930 . S
H30 C10 0.931 . S
H31 C11 0.930 . S
H32 C19 0.931 . S
H33 C20 0.929 1_556 S
H34 C28 0.929 . S
H35 C29 0.930 . S
Mn36 O41 2.095 . S
Mn36 O51 2.162 . S
Mn36 O52 2.297 . S
Mn36 O60 2.385 . S
Mn36 O61 2.209 . S
Mn36 O62 2.094 . S
Mn37 O42 2.121 . S
Mn37 N44 2.257 . S
Mn37 N53 2.282 . S
Mn37 O61 2.215 . S
Mn37 O63 2.117 . S
C38 O60 1.234 . S
C38 O61 1.283 . S
C39 O51 1.281 . S
C39 O52 1.236 . S
C40 O62 1.240 . S
C40 O63 1.264 . S
O41 Mn36 2.095 . S
O41 C50 1.250 . S
O42 Mn37 2.121 . S
O42 C50 1.258 . S
C43 N44 1.326 . S
C43 C47 1.460 . S
C43 H49 0.929 . S
N44 Mn37 2.257 . S
N44 C43 1.326 . S
N44 C48 1.362 . S
C45 C46 1.258 . S
C45 C48 1.431 . S
C45 C65 1.449 . S
C46 C45 1.258 . S
C46 C47 1.477 . S
C46 H66 0.931 . S
C47 C43 1.460 . S
C47 C46 1.477 . S
C47 H67 0.930 . S
C48 N44 1.362 . S
C48 C45 1.431 . S
C48 C58 1.476 . S
H49 C43 0.929 . S
C50 O41 1.250 . S
C50 O42 1.258 . S
O51 Mn36 2.162 . S
O51 C39 1.281 . S
O52 Mn36 2.297 . S
O52 C39 1.236 . S
N53 Mn37 2.282 . S
N53 C54 1.328 . S
N53 C58 1.318 . S
C54 N53 1.328 . S
C54 C55 1.457 1_554 S
C54 H59 0.929 1_554 S
C55 C54 1.457 1_556 S
C55 C56 1.281 1_556 S
C55 H68 0.931 . S
C56 C55 1.281 1_554 S
C56 C57 1.399 . S
C56 H69 0.914 1_554 S
C57 C56 1.399 . S
C57 C58 1.396 . S
C57 C64 1.403 . S
C58 C48 1.476 . S
C58 N53 1.318 . S
C58 C57 1.396 . S
H59 C54 0.929 1_556 S
O60 Mn36 2.385 . S
O60 C38 1.234 . S
O61 Mn36 2.209 . S
O61 Mn37 2.215 . S
O61 C38 1.283 . S
O62 Mn36 2.094 . S
O62 C40 1.240 . S
O63 Mn37 2.117 . S
O63 C40 1.264 . S
C64 C57 1.403 . S
C64 C65 1.399 . S
C64 H70 0.929 . S
C65 C45 1.449 . S
C65 C64 1.399 . S
C65 H71 0.930 . S
H66 C46 0.931 . S
H67 C47 0.930 . S
H68 C55 0.931 . S
H69 C56 0.914 1_556 S
H70 C64 0.929 . S
H71 C65 0.930 . S
Mn72 O77 2.095 . S
Mn72 O87 2.162 . S
Mn72 O88 2.297 . S
Mn72 O96 2.385 . S
Mn72 O97 2.209 . S
Mn72 O98 2.094 . S
Mn73 O78 2.121 . S
Mn73 N80 2.257 . S
Mn73 N89 2.282 . S
Mn73 O97 2.215 . S
Mn73 O99 2.117 . S
C74 O96 1.234 . S
C74 O97 1.283 . S
C75 O87 1.281 . S
C75 O88 1.236 . S
C76 O98 1.240 . S
C76 O99 1.264 . S
O77 Mn72 2.095 . S
O77 C86 1.250 . S
O78 Mn73 2.121 . S
O78 C86 1.258 . S
C79 N80 1.326 1_556 S
C79 C83 1.460 . S
C79 H85 0.929 . S
N80 Mn73 2.257 . S
N80 C79 1.326 1_554 S
N80 C84 1.362 . S
C81 C82 1.258 1_554 S
C81 C84 1.431 . S
C81 C101 1.449 . S
C82 C81 1.258 1_556 S
C82 C83 1.477 . S
C82 H102 0.931 . S
C83 C79 1.460 . S
C83 C82 1.477 . S
C83 H103 0.930 . S
C84 N80 1.362 . S
C84 C81 1.431 . S
C84 C94 1.476 . S
H85 C79 0.929 . S
C86 O77 1.250 . S
C86 O78 1.258 . S
O87 Mn72 2.162 . S
O87 C75 1.281 . S
O88 Mn72 2.297 . S
O88 C75 1.236 . S
N89 Mn73 2.282 . S
N89 C90 1.328 . S
N89 C94 1.318 . S
C90 N89 1.328 . S
C90 C91 1.457 . S
C90 H95 0.929 . S
C91 C90 1.457 . S
C91 C92 1.291 . S
C91 H104 0.931 . S
C92 C91 1.291 . S
C92 C93 1.373 . S
C92 H105 0.929 . S
C93 C92 1.373 . S
C93 C94 1.396 . S
C93 C100 1.403 . S
C94 C84 1.476 . S
C94 N89 1.318 . S
C94 C93 1.396 . S
H95 C90 0.929 . S
O96 Mn72 2.385 . S
O96 C74 1.234 . S
O97 Mn72 2.209 . S
O97 Mn73 2.215 . S
O97 C74 1.283 . S
O98 Mn72 2.094 . S
O98 C76 1.240 . S
O99 Mn73 2.117 . S
O99 C76 1.264 . S
C100 C93 1.403 . S
C100 C101 1.399 . S
C100 H106 0.929 . S
C101 C81 1.449 . S
C101 C100 1.399 . S
C101 H107 0.930 . S
H102 C82 0.931 . S
H103 C83 0.930 . S
H104 C91 0.931 . S
H105 C92 0.929 . S
H106 C100 0.929 . S
H107 C101 0.930 . S
Mn108 O113 2.095 . S
Mn108 O123 2.162 . S
Mn108 O124 2.297 . S
Mn108 O132 2.385 . S
Mn108 O133 2.209 . S
Mn108 O134 2.094 . S
Mn109 O114 2.121 . S
Mn109 N116 2.257 . S
Mn109 N125 2.282 . S
Mn109 O133 2.215 . S
Mn109 O135 2.117 . S
C110 O132 1.234 . S
C110 O133 1.283 . S
C111 O123 1.281 . S
C111 O124 1.236 . S
C112 O134 1.240 . S
C112 O135 1.264 . S
O113 Mn108 2.095 . S
O113 C122 1.250 . S
O114 Mn109 2.121 . S
O114 C122 1.258 . S
C115 N116 1.326 . S
C115 C119 1.460 . S
C115 H121 0.929 . S
N116 Mn109 2.257 . S
N116 C115 1.326 . S
N116 C120 1.362 . S
C117 C118 1.258 . S
C117 C120 1.431 . S
C117 C137 1.449 . S
C118 C117 1.258 . S
C118 C119 1.477 . S
C118 H138 0.931 . S
C119 C115 1.460 . S
C119 C118 1.477 . S
C119 H139 0.930 . S
C120 N116 1.362 . S
C120 C117 1.431 . S
C120 C130 1.476 . S
H121 C115 0.929 . S
C122 O113 1.250 . S
C122 O114 1.258 . S
O123 Mn108 2.162 . S
O123 C111 1.281 . S
O124 Mn108 2.297 . S
O124 C111 1.236 . S
N125 Mn109 2.282 . S
N125 C126 1.328 . S
N125 C130 1.318 . S
C126 N125 1.328 . S
C126 C127 1.457 . S
C126 H131 0.929 . S
C127 C126 1.457 . S
C127 C128 1.291 . S
C127 H140 0.931 . S
C128 C127 1.291 . S
C128 C129 1.373 . S
C128 H141 0.929 . S
C129 C128 1.373 . S
C129 C130 1.396 . S
C129 C136 1.403 . S
C130 C120 1.476 . S
C130 N125 1.318 . S
C130 C129 1.396 . S
H131 C126 0.929 . S
O132 Mn108 2.385 . S
O132 C110 1.234 . S
O133 Mn108 2.209 . S
O133 Mn109 2.215 . S
O133 C110 1.283 . S
O134 Mn108 2.094 . S
O134 C112 1.240 . S
O135 Mn109 2.117 . S
O135 C112 1.264 . S
C136 C129 1.403 . S
C136 C137 1.399 . S
C136 H142 0.929 . S
C137 C117 1.449 . S
C137 C136 1.399 . S
C137 H143 0.930 . S
H138 C118 0.931 . S
H139 C119 0.930 . S
H140 C127 0.931 . S
H141 C128 0.929 . S
H142 C136 0.929 . S
H143 C137 0.930 . S
Mn144 O149 2.095 . S
Mn144 O159 2.162 . S
Mn144 O160 2.297 . S
Mn144 O168 2.385 . S
Mn144 O169 2.209 . S
Mn144 O170 2.094 . S
Mn145 O150 2.121 . S
Mn145 N152 2.257 . S
Mn145 N161 2.282 . S
Mn145 O169 2.215 . S
Mn145 O171 2.117 . S
C146 O168 1.234 . S
C146 O169 1.283 . S
C147 O159 1.281 . S
C147 O160 1.236 . S
C148 O170 1.240 . S
C148 O171 1.264 . S
O149 Mn144 2.095 . S
O149 C158 1.250 . S
O150 Mn145 2.121 . S
O150 C158 1.258 . S
C151 N152 1.326 . S
C151 C155 1.460 1_455 S
C151 H157 0.929 . S
N152 Mn145 2.257 . S
N152 C151 1.326 . S
N152 C156 1.362 1_455 S
C153 C154 1.258 . S
C153 C156 1.431 . S
C153 C173 1.449 . S
C154 C153 1.258 . S
C154 C155 1.477 . S
C154 H174 0.931 . S
C155 C151 1.460 1_655 S
C155 C154 1.477 . S
C155 H175 0.930 . S
C156 N152 1.362 1_655 S
C156 C153 1.431 . S
C156 C166 1.476 1_655 S
H157 C151 0.929 . S
C158 O149 1.250 . S
C158 O150 1.258 . S
O159 Mn144 2.162 . S
O159 C147 1.281 . S
O160 Mn144 2.297 . S
O160 C147 1.236 . S
N161 Mn145 2.282 . S
N161 C162 1.328 . S
N161 C166 1.318 . S
C162 N161 1.328 . S
C162 C163 1.457 . S
C162 H167 0.929 . S
C163 C162 1.457 . S
C163 C164 1.291 1_455 S
C163 H176 0.931 . S
C164 C163 1.291 1_655 S
C164 C165 1.373 . S
C164 H177 0.929 . S
C165 C164 1.373 . S
C165 C166 1.396 1_655 S
C165 C172 1.403 . S
C166 C156 1.476 1_455 S
C166 N161 1.318 . S
C166 C165 1.396 1_455 S
H167 C162 0.929 . S
O168 Mn144 2.385 . S
O168 C146 1.234 . S
O169 Mn144 2.209 . S
O169 Mn145 2.215 . S
O169 C146 1.283 . S
O170 Mn144 2.094 . S
O170 C148 1.240 . S
O171 Mn145 2.117 . S
O171 C148 1.264 . S
C172 C165 1.403 . S
C172 C173 1.399 . S
C172 H178 0.929 . S
C173 C153 1.449 . S
C173 C172 1.399 . S
C173 H179 0.930 . S
H174 C154 0.931 . S
H175 C155 0.930 . S
H176 C163 0.931 . S
H177 C164 0.929 . S
H178 C172 0.929 . S
H179 C173 0.930 . S
Mn180 O185 2.095 . S
Mn180 O195 2.162 . S
Mn180 O196 2.297 . S
Mn180 O204 2.385 . S
Mn180 O205 2.209 . S
Mn180 O206 2.094 . S
Mn181 O186 2.121 . S
Mn181 N188 2.257 . S
Mn181 N197 2.282 . S
Mn181 O205 2.215 . S
Mn181 O207 2.117 . S
C182 O204 1.234 . S
C182 O205 1.283 . S
C183 O195 1.281 . S
C183 O196 1.236 . S
C184 O206 1.240 . S
C184 O207 1.264 . S
O185 Mn180 2.095 . S
O185 C194 1.250 . S
O186 Mn181 2.121 . S
O186 C194 1.258 . S
C187 N188 1.326 . S
C187 C191 1.460 . S
C187 H193 0.929 . S
N188 Mn181 2.257 . S
N188 C187 1.326 . S
N188 C192 1.362 . S
C189 C190 1.258 . S
C189 C192 1.431 . S
C189 C209 1.449 . S
C190 C189 1.258 . S
C190 C191 1.477 . S
C190 H210 0.931 . S
C191 C187 1.460 . S
C191 C190 1.477 . S
C191 H211 0.930 . S
C192 N188 1.362 . S
C192 C189 1.431 . S
C192 C202 1.476 . S
H193 C187 0.929 . S
C194 O185 1.250 . S
C194 O186 1.258 . S
O195 Mn180 2.162 . S
O195 C183 1.281 . S
O196 Mn180 2.297 . S
O196 C183 1.236 . S
N197 Mn181 2.282 . S
N197 C198 1.328 . S
N197 C202 1.318 . S
C198 N197 1.328 . S
C198 C199 1.457 . S
C198 H203 0.929 . S
C199 C198 1.457 . S
C199 C200 1.291 . S
C199 H212 0.931 . S
C200 C199 1.291 . S
C200 C201 1.373 . S
C200 H213 0.929 . S
C201 C200 1.373 . S
C201 C202 1.396 . S
C201 C208 1.403 . S
C202 C192 1.476 . S
C202 N197 1.318 . S
C202 C201 1.396 . S
H203 C198 0.929 . S
O204 Mn180 2.385 . S
O204 C182 1.234 . S
O205 Mn180 2.209 . S
O205 Mn181 2.215 . S
O205 C182 1.283 . S
O206 Mn180 2.094 . S
O206 C184 1.240 . S
O207 Mn181 2.117 . S
O207 C184 1.264 . S
C208 C201 1.403 . S
C208 C209 1.399 . S
C208 H214 0.929 . S
C209 C189 1.449 . S
C209 C208 1.399 . S
C209 H215 0.930 . S
H210 C190 0.931 . S
H211 C191 0.930 . S
H212 C199 0.931 . S
H213 C200 0.929 . S
H214 C208 0.929 . S
H215 C209 0.930 . S
Mn216 O221 2.095 . S
Mn216 O231 2.162 . S
Mn216 O232 2.297 . S
Mn216 O240 2.385 . S
Mn216 O241 2.209 . S
Mn216 O242 2.094 . S
Mn217 O222 2.121 . S
Mn217 N224 2.257 . S
Mn217 N233 2.282 . S
Mn217 O241 2.215 . S
Mn217 O243 2.117 . S
C218 O240 1.234 . S
C218 O241 1.283 . S
C219 O231 1.281 . S
C219 O232 1.236 . S
C220 O242 1.240 . S
C220 O243 1.264 . S
O221 Mn216 2.095 . S
O221 C230 1.250 . S
O222 Mn217 2.121 . S
O222 C230 1.258 . S
C223 N224 1.326 . S
C223 C227 1.460 1_655 S
C223 H229 0.929 . S
N224 Mn217 2.257 . S
N224 C223 1.326 . S
N224 C228 1.362 1_655 S
C225 C226 1.258 . S
C225 C228 1.431 . S
C225 C245 1.449 . S
C226 C225 1.258 . S
C226 C227 1.477 . S
C226 H246 0.931 . S
C227 C223 1.460 1_455 S
C227 C226 1.477 . S
C227 H247 0.930 . S
C228 N224 1.362 1_455 S
C228 C225 1.431 . S
C228 C238 1.476 . S
H229 C223 0.929 . S
C230 O221 1.250 . S
C230 O222 1.258 . S
O231 Mn216 2.162 . S
O231 C219 1.281 . S
O232 Mn216 2.297 . S
O232 C219 1.236 . S
N233 Mn217 2.282 . S
N233 C234 1.328 . S
N233 C238 1.318 1_655 S
C234 N233 1.328 . S
C234 C235 1.457 1_556 S
C234 H239 0.929 . S
C235 C234 1.457 1_554 S
C235 C236 1.291 1_654 S
C235 H248 0.931 . S
C236 C235 1.291 1_456 S
C236 C237 1.373 . S
C236 H249 0.929 1_556 S
C237 C236 1.373 . S
C237 C238 1.396 . S
C237 C244 1.403 . S
C238 C228 1.476 . S
C238 N233 1.318 1_455 S
C238 C237 1.396 . S
H239 C234 0.929 . S
O240 Mn216 2.385 . S
O240 C218 1.234 . S
O241 Mn216 2.209 . S
O241 Mn217 2.215 . S
O241 C218 1.283 . S
O242 Mn216 2.094 . S
O242 C220 1.240 . S
O243 Mn217 2.117 . S
O243 C220 1.264 . S
C244 C237 1.403 . S
C244 C245 1.399 . S
C244 H250 0.929 . S
C245 C225 1.449 . S
C245 C244 1.399 . S
C245 H251 0.930 . S
H246 C226 0.931 . S
H247 C227 0.930 . S
H248 C235 0.931 . S
H249 C236 0.929 1_554 S
H250 C244 0.929 . S
H251 C245 0.930 . S
Mn252 O257 2.095 . S
Mn252 O267 2.162 . S
Mn252 O268 2.297 . S
Mn252 O276 2.385 . S
Mn252 O277 2.209 . S
Mn252 O278 2.094 . S
Mn253 O258 2.121 . S
Mn253 N260 2.257 . S
Mn253 N269 2.282 . S
Mn253 O277 2.215 . S
Mn253 O279 2.117 . S
C254 O276 1.234 . S
C254 O277 1.283 . S
C255 O267 1.281 . S
C255 O268 1.236 . S
C256 O278 1.240 . S
C256 O279 1.264 . S
O257 Mn252 2.095 . S
O257 C266 1.250 . S
O258 Mn253 2.121 . S
O258 C266 1.258 . S
C259 N260 1.326 . S
C259 C263 1.460 . S
C259 H265 0.929 . S
N260 Mn253 2.257 . S
N260 C259 1.326 . S
N260 C264 1.362 . S
C261 C262 1.258 . S
C261 C264 1.431 . S
C261 C281 1.449 . S
C262 C261 1.258 . S
C262 C263 1.477 . S
C262 H282 0.931 . S
C263 C259 1.460 . S
C263 C262 1.477 . S
C263 H283 0.930 . S
C264 N260 1.362 . S
C264 C261 1.431 . S
C264 C274 1.476 . S
H265 C259 0.929 . S
C266 O257 1.250 . S
C266 O258 1.258 . S
O267 Mn252 2.162 . S
O267 C255 1.281 . S
O268 Mn252 2.297 . S
O268 C255 1.236 . S
N269 Mn253 2.282 . S
N269 C270 1.328 . S
N269 C274 1.318 . S
C270 N269 1.328 . S
C270 C271 1.457 . S
C270 H275 0.929 . S
C271 C270 1.457 . S
C271 C272 1.291 . S
C271 H284 0.931 1_556 S
C272 C271 1.291 . S
C272 C273 1.373 . S
C272 H285 0.929 . S
C273 C272 1.373 . S
C273 C274 1.396 . S
C273 C280 1.403 . S
C274 C264 1.476 . S
C274 N269 1.318 . S
C274 C273 1.396 . S
H275 C270 0.929 . S
O276 Mn252 2.385 . S
O276 C254 1.234 . S
O277 Mn252 2.209 . S
O277 Mn253 2.215 . S
O277 C254 1.283 . S
O278 Mn252 2.094 . S
O278 C256 1.240 . S
O279 Mn253 2.117 . S
O279 C256 1.264 . S
C280 C273 1.403 . S
C280 C281 1.399 . S
C280 H286 0.929 . S
C281 C261 1.449 . S
C281 C280 1.399 . S
C281 H287 0.930 . S
H282 C262 0.931 . S
H283 C263 0.930 . S
H284 C271 0.931 1_554 S
H285 C272 0.929 . S
H286 C280 0.929 . S
H287 C281 0.930 . S
Mn288 O293 2.095 . S
Mn288 O303 2.162 . S
Mn288 O304 2.297 . S
Mn288 O312 2.385 . S
Mn288 O313 2.209 . S
Mn288 O314 2.094 . S
Mn289 O294 2.121 . S
Mn289 N296 2.257 . S
Mn289 N305 2.282 . S
Mn289 O313 2.215 . S
Mn289 O315 2.117 . S
C290 O312 1.234 . S
C290 O313 1.283 . S
C291 O303 1.281 . S
C291 O304 1.236 . S
C292 O314 1.240 . S
C292 O315 1.264 . S
O293 Mn288 2.095 . S
O293 C302 1.250 . S
O294 Mn289 2.121 . S
O294 C302 1.258 . S
C295 N296 1.326 . S
C295 C299 1.460 1_545 S
C295 H301 0.929 . S
N296 Mn289 2.257 . S
N296 C295 1.326 . S
N296 C300 1.362 1_545 S
C297 C298 1.258 . S
C297 C300 1.431 . S
C297 C317 1.449 . S
C298 C297 1.258 . S
C298 C299 1.477 . S
C298 H318 0.931 . S
C299 C295 1.460 1_565 S
C299 C298 1.477 . S
C299 H319 0.930 . S
C300 N296 1.362 1_565 S
C300 C297 1.431 . S
C300 C310 1.476 1_565 S
H301 C295 0.929 . S
C302 O293 1.250 . S
C302 O294 1.258 . S
O303 Mn288 2.162 . S
O303 C291 1.281 . S
O304 Mn288 2.297 . S
O304 C291 1.236 . S
N305 Mn289 2.282 . S
N305 C306 1.328 . S
N305 C310 1.318 . S
C306 N305 1.328 . S
C306 C307 1.457 1_556 S
C306 H311 0.929 . S
C307 C306 1.457 1_554 S
C307 C308 1.291 1_544 S
C307 H320 0.931 . S
C308 C307 1.291 1_566 S
C308 C309 1.373 . S
C308 H321 0.929 1_556 S
C309 C308 1.373 . S
C309 C310 1.396 1_565 S
C309 C316 1.403 . S
C310 C300 1.476 1_545 S
C310 N305 1.318 . S
C310 C309 1.396 1_545 S
H311 C306 0.929 . S
O312 Mn288 2.385 . S
O312 C290 1.234 . S
O313 Mn288 2.209 . S
O313 Mn289 2.215 . S
O313 C290 1.283 . S
O314 Mn288 2.094 . S
O314 C292 1.240 . S
O315 Mn289 2.117 . S
O315 C292 1.264 . S
C316 C309 1.403 . S
C316 C317 1.399 . S
C316 H322 0.929 . S
C317 C297 1.449 . S
C317 C316 1.399 . S
C317 H323 0.930 . S
H318 C298 0.931 . S
H319 C299 0.930 . S
H320 C307 0.931 . S
H321 C308 0.929 1_554 S
H322 C316 0.929 . S
H323 C317 0.930 . S
Mn324 O329 2.095 . S
Mn324 O339 2.162 . S
Mn324 O340 2.297 . S
Mn324 O348 2.385 . S
Mn324 O349 2.209 . S
Mn324 O350 2.094 . S
Mn325 O330 2.121 . S
Mn325 N332 2.257 . S
Mn325 N341 2.282 . S
Mn325 O349 2.215 . S
Mn325 O351 2.117 . S
C326 O348 1.234 . S
C326 O349 1.283 . S
C327 O339 1.281 . S
C327 O340 1.236 . S
C328 O350 1.240 . S
C328 O351 1.264 . S
O329 Mn324 2.095 . S
O329 C338 1.250 . S
O330 Mn325 2.121 . S
O330 C338 1.258 . S
C331 N332 1.326 . S
C331 C335 1.460 1_545 S
C331 H337 0.929 . S
N332 Mn325 2.257 . S
N332 C331 1.326 . S
N332 C336 1.362 1_545 S
C333 C334 1.258 . S
C333 C336 1.431 . S
C333 C353 1.449 . S
C334 C333 1.258 . S
C334 C335 1.477 . S
C334 H354 0.931 . S
C335 C331 1.460 1_565 S
C335 C334 1.477 . S
C335 H355 0.930 . S
C336 N332 1.362 1_565 S
C336 C333 1.431 . S
C336 C346 1.476 1_565 S
H337 C331 0.929 . S
C338 O329 1.250 . S
C338 O330 1.258 . S
O339 Mn324 2.162 . S
O339 C327 1.281 . S
O340 Mn324 2.297 . S
O340 C327 1.236 . S
N341 Mn325 2.282 . S
N341 C342 1.328 . S
N341 C346 1.318 . S
C342 N341 1.328 . S
C342 C343 1.457 . S
C342 H347 0.929 . S
C343 C342 1.457 . S
C343 C344 1.291 1_545 S
C343 H356 0.931 . S
C344 C343 1.291 1_565 S
C344 C345 1.373 . S
C344 H357 0.929 . S
C345 C344 1.373 . S
C345 C346 1.396 1_565 S
C345 C352 1.403 . S
C346 C336 1.476 1_545 S
C346 N341 1.318 . S
C346 C345 1.396 1_545 S
H347 C342 0.929 . S
O348 Mn324 2.385 . S
O348 C326 1.234 . S
O349 Mn324 2.209 . S
O349 Mn325 2.215 . S
O349 C326 1.283 . S
O350 Mn324 2.094 . S
O350 C328 1.240 . S
O351 Mn325 2.117 . S
O351 C328 1.264 . S
C352 C345 1.403 . S
C352 C353 1.399 . S
C352 H358 0.929 . S
C353 C333 1.449 . S
C353 C352 1.399 . S
C353 H359 0.930 . S
H354 C334 0.931 . S
H355 C335 0.930 . S
H356 C343 0.931 . S
H357 C344 0.929 . S
H358 C352 0.929 . S
H359 C353 0.930 . S
Mn360 O365 2.095 . S
Mn360 O375 2.162 . S
Mn360 O376 2.297 . S
Mn360 O384 2.385 . S
Mn360 O385 2.209 . S
Mn360 O386 2.094 . S
Mn361 O366 2.121 . S
Mn361 N368 2.257 . S
Mn361 N377 2.282 . S
Mn361 O385 2.215 . S
Mn361 O387 2.117 . S
C362 O384 1.234 . S
C362 O385 1.283 . S
C363 O375 1.281 . S
C363 O376 1.236 . S
C364 O386 1.240 . S
C364 O387 1.264 . S
O365 Mn360 2.095 . S
O365 C374 1.250 . S
O366 Mn361 2.121 . S
O366 C374 1.258 . S
C367 N368 1.326 . S
C367 C371 1.460 1_655 S
C367 H373 0.929 . S
N368 Mn361 2.257 . S
N368 C367 1.326 . S
N368 C372 1.362 1_655 S
C369 C370 1.258 . S
C369 C372 1.431 . S
C369 C389 1.449 . S
C370 C369 1.258 . S
C370 C371 1.477 . S
C370 H390 0.931 . S
C371 C367 1.460 1_455 S
C371 C370 1.477 . S
C371 H391 0.930 . S
C372 N368 1.362 1_455 S
C372 C369 1.431 . S
C372 C382 1.476 1_455 S
H373 C367 0.929 . S
C374 O365 1.250 . S
C374 O366 1.258 . S
O375 Mn360 2.162 . S
O375 C363 1.281 . S
O376 Mn360 2.297 . S
O376 C363 1.236 . S
N377 Mn361 2.282 . S
N377 C378 1.328 . S
N377 C382 1.318 . S
C378 N377 1.328 . S
C378 C379 1.457 . S
C378 H383 0.929 . S
C379 C378 1.457 . S
C379 C380 1.291 1_655 S
C379 H392 0.931 . S
C380 C379 1.291 1_455 S
C380 C381 1.373 . S
C380 H393 0.929 . S
C381 C380 1.373 . S
C381 C382 1.396 1_455 S
C381 C388 1.403 . S
C382 C372 1.476 1_655 S
C382 N377 1.318 . S
C382 C381 1.396 1_655 S
H383 C378 0.929 . S
O384 Mn360 2.385 . S
O384 C362 1.234 . S
O385 Mn360 2.209 . S
O385 Mn361 2.215 . S
O385 C362 1.283 . S
O386 Mn360 2.094 . S
O386 C364 1.240 . S
O387 Mn361 2.117 . S
O387 C364 1.264 . S
C388 C381 1.403 . S
C388 C389 1.399 . S
C388 H394 0.929 . S
C389 C369 1.449 . S
C389 C388 1.399 . S
C389 H395 0.930 . S
H390 C370 0.931 . S
H391 C371 0.930 . S
H392 C379 0.931 . S
H393 C380 0.929 . S
H394 C388 0.929 . S
H395 C389 0.930 . S
Mn396 O401 2.095 . S
Mn396 O411 2.162 . S
Mn396 O412 2.297 . S
Mn396 O420 2.385 . S
Mn396 O421 2.209 . S
Mn396 O422 2.094 . S
Mn397 O402 2.121 . S
Mn397 N404 2.257 . S
Mn397 N413 2.282 . S
Mn397 O421 2.215 . S
Mn397 O423 2.117 . S
C398 O420 1.234 . S
C398 O421 1.283 . S
C399 O411 1.281 . S
C399 O412 1.236 . S
C400 O422 1.240 . S
C400 O423 1.264 . S
O401 Mn396 2.095 . S
O401 C410 1.250 . S
O402 Mn397 2.121 . S
O402 C410 1.258 . S
C403 N404 1.326 . S
C403 C407 1.460 . S
C403 H409 0.929 . S
N404 Mn397 2.257 . S
N404 C403 1.326 . S
N404 C408 1.362 . S
C405 C406 1.258 . S
C405 C408 1.431 . S
C405 C425 1.449 . S
C406 C405 1.258 . S
C406 C407 1.477 . S
C406 H426 0.931 . S
C407 C403 1.460 . S
C407 C406 1.477 . S
C407 H427 0.930 . S
C408 N404 1.362 . S
C408 C405 1.431 . S
C408 C418 1.476 . S
H409 C403 0.929 . S
C410 O401 1.250 . S
C410 O402 1.258 . S
O411 Mn396 2.162 . S
O411 C399 1.281 . S
O412 Mn396 2.297 . S
O412 C399 1.236 . S
N413 Mn397 2.282 . S
N413 C414 1.328 . S
N413 C418 1.318 . S
C414 N413 1.328 . S
C414 C415 1.457 . S
C414 H419 0.929 . S
C415 C414 1.457 . S
C415 C416 1.291 . S
C415 H428 0.931 . S
C416 C415 1.291 . S
C416 C417 1.373 . S
C416 H429 0.929 . S
C417 C416 1.373 . S
C417 C418 1.396 . S
C417 C424 1.403 . S
C418 C408 1.476 . S
C418 N413 1.318 . S
C418 C417 1.396 . S
H419 C414 0.929 . S
O420 Mn396 2.385 . S
O420 C398 1.234 . S
O421 Mn396 2.209 . S
O421 Mn397 2.215 . S
O421 C398 1.283 . S
O422 Mn396 2.094 . S
O422 C400 1.240 . S
O423 Mn397 2.117 . S
O423 C400 1.264 . S
C424 C417 1.403 . S
C424 C425 1.399 . S
C424 H430 0.929 . S
C425 C405 1.449 . S
C425 C424 1.399 . S
C425 H431 0.930 . S
H426 C406 0.931 . S
H427 C407 0.930 . S
H428 C415 0.931 . S
H429 C416 0.929 . S
H430 C424 0.929 . S
H431 C425 0.930 . S
H432 C444 0.930 . S
H433 C446 0.930 . S
H434 C447 0.930 . S
H435 C451 0.959 . S
H436 C451 0.959 . S
H437 C451 0.961 . S
H438 C452 0.960 . S
H439 C452 0.961 . S
H440 C452 0.959 . S
H441 C455 0.929 1_554 S
H442 C456 0.931 . S
H443 C458 0.930 . S
C444 H432 0.930 . S
C444 C445 1.399 1_556 S
C444 C449 1.399 . S
C445 C444 1.399 1_554 S
C445 C446 1.376 . S
C446 H433 0.930 . S
C446 C445 1.376 . S
C446 C447 1.388 . S
C447 H434 0.930 . S
C447 C446 1.388 . S
C447 C448 1.390 . S
C448 C447 1.390 . S
C448 C449 1.394 1_554 S
C448 C454 1.465 1_554 S
C449 C444 1.399 . S
C449 C448 1.394 1_556 S
C449 C450 1.516 . S
C450 C449 1.516 . S
C450 C451 1.502 . S
C450 C452 1.561 . S
C450 C453 1.526 . S
C451 H435 0.959 . S
C451 H436 0.959 . S
C451 H437 0.961 . S
C451 C450 1.502 . S
C452 H438 0.960 . S
C452 H439 0.961 . S
C452 H440 0.959 . S
C452 C450 1.561 . S
C453 C450 1.526 . S
C453 C454 1.396 . S
C453 C458 1.390 . S
C454 C448 1.465 1_556 S
C454 C453 1.396 . S
C454 C455 1.399 . S
C455 H441 0.929 1_556 S
C455 C454 1.399 . S
C455 C456 1.385 . S
C456 H442 0.931 . S
C456 C455 1.385 . S
C456 C457 1.389 . S
C457 C456 1.389 . S
C457 C458 1.387 . S
C458 H443 0.930 . S
C458 C453 1.390 . S
C458 C457 1.387 . S
H459 C471 0.930 . S
H460 C473 0.930 . S
H461 C474 0.930 . S
H462 C478 0.959 . S
H463 C478 0.959 . S
H464 C478 0.961 . S
H465 C479 0.960 . S
H466 C479 0.961 . S
H467 C479 0.959 . S
H468 C482 0.929 . S
H469 C483 0.931 . S
H470 C485 0.930 1_554 S
C471 H459 0.930 . S
C471 C472 1.399 . S
C471 C476 1.399 . S
C472 C471 1.399 . S
C472 C473 1.376 1_554 S
C473 H460 0.930 . S
C473 C472 1.376 1_556 S
C473 C474 1.388 . S
C474 H461 0.930 . S
C474 C473 1.388 . S
C474 C475 1.390 . S
C475 C474 1.390 . S
C475 C476 1.394 1_556 S
C475 C481 1.465 . S
C476 C471 1.399 . S
C476 C475 1.394 1_554 S
C476 C477 1.516 . S
C477 C476 1.516 . S
C477 C478 1.502 . S
C477 C479 1.561 . S
C477 C480 1.526 1_554 S
C478 H462 0.959 . S
C478 H463 0.959 . S
C478 H464 0.961 . S
C478 C477 1.502 . S
C479 H465 0.960 . S
C479 H466 0.961 . S
C479 H467 0.959 . S
C479 C477 1.561 . S
C480 C477 1.526 1_556 S
C480 C481 1.396 . S
C480 C485 1.390 . S
C481 C475 1.465 . S
C481 C480 1.396 . S
C481 C482 1.399 . S
C482 H468 0.929 . S
C482 C481 1.399 . S
C482 C483 1.385 . S
C483 H469 0.931 . S
C483 C482 1.385 . S
C483 C484 1.389 . S
C484 C483 1.389 . S
C484 C485 1.387 . S
C485 H470 0.930 1_556 S
C485 C480 1.390 . S
C485 C484 1.387 . S
H486 C498 0.930 . S
H487 C500 0.930 . S
H488 C501 0.930 . S
H489 C505 0.959 . S
H490 C505 0.959 . S
H491 C505 0.961 . S
H492 C506 0.960 . S
H493 C506 0.961 . S
H494 C506 0.959 . S
H495 C509 0.929 . S
H496 C510 0.931 . S
H497 C512 0.930 1_554 S
C498 H486 0.930 . S
C498 C499 1.399 . S
C498 C503 1.399 . S
C499 C498 1.399 . S
C499 C500 1.376 1_554 S
C500 H487 0.930 . S
C500 C499 1.376 1_556 S
C500 C501 1.388 . S
C501 H488 0.930 . S
C501 C500 1.388 . S
C501 C502 1.390 . S
C502 C501 1.390 . S
C502 C503 1.394 1_556 S
C502 C508 1.465 . S
C503 C498 1.399 . S
C503 C502 1.394 1_554 S
C503 C504 1.516 . S
C504 C503 1.516 . S
C504 C505 1.502 . S
C504 C506 1.561 . S
C504 C507 1.526 1_554 S
C505 H489 0.959 . S
C505 H490 0.959 . S
C505 H491 0.961 . S
C505 C504 1.502 . S
C506 H492 0.960 . S
C506 H493 0.961 . S
C506 H494 0.959 . S
C506 C504 1.561 . S
C507 C504 1.526 1_556 S
C507 C508 1.396 . S
C507 C512 1.390 . S
C508 C502 1.465 . S
C508 C507 1.396 . S
C508 C509 1.399 . S
C509 H495 0.929 . S
C509 C508 1.399 . S
C509 C510 1.385 . S
C510 H496 0.931 . S
C510 C509 1.385 . S
C510 C511 1.389 . S
C511 C510 1.389 . S
C511 C512 1.387 . S
C512 H497 0.930 1_556 S
C512 C507 1.390 . S
C512 C511 1.387 . S
H513 C525 0.930 . S
H514 C527 0.930 . S
H515 C528 0.930 . S
H516 C532 0.959 . S
H517 C532 0.959 . S
H518 C532 0.961 . S
H519 C533 0.960 . S
H520 C533 0.961 . S
H521 C533 0.959 . S
H522 C536 0.929 . S
H523 C537 0.931 . S
H524 C539 0.930 . S
C525 H513 0.930 . S
C525 C526 1.399 . S
C525 C530 1.399 . S
C526 C525 1.399 . S
C526 C527 1.376 . S
C527 H514 0.930 . S
C527 C526 1.376 . S
C527 C528 1.388 . S
C528 H515 0.930 . S
C528 C527 1.388 . S
C528 C529 1.390 . S
C529 C528 1.390 . S
C529 C530 1.394 . S
C529 C535 1.465 . S
C530 C525 1.399 . S
C530 C529 1.394 . S
C530 C531 1.516 . S
C531 C530 1.516 . S
C531 C532 1.502 . S
C531 C533 1.561 . S
C531 C534 1.526 . S
C532 H516 0.959 . S
C532 H517 0.959 . S
C532 H518 0.961 . S
C532 C531 1.502 . S
C533 H519 0.960 . S
C533 H520 0.961 . S
C533 H521 0.959 . S
C533 C531 1.561 . S
C534 C531 1.526 . S
C534 C535 1.396 . S
C534 C539 1.390 . S
C535 C529 1.465 . S
C535 C534 1.396 . S
C535 C536 1.399 . S
C536 H522 0.929 . S
C536 C535 1.399 . S
C536 C537 1.385 . S
C537 H523 0.931 . S
C537 C536 1.385 . S
C537 C538 1.389 . S
C538 C537 1.389 . S
C538 C539 1.387 . S
C539 H524 0.930 . S
C539 C534 1.390 . S
C539 C538 1.387 . S
H540 C552 0.930 . S
H541 C554 0.930 . S
H542 C555 0.930 . S
H543 C559 0.959 . S
H544 C559 0.959 . S
H545 C559 0.961 . S
H546 C560 0.960 . S
H547 C560 0.961 . S
H548 C560 0.959 . S
H549 C563 0.929 . S
H550 C564 0.931 1_545 S
H551 C566 0.930 . S
C552 H540 0.930 . S
C552 C553 1.399 . S
C552 C557 1.399 . S
C553 C552 1.399 . S
C553 C554 1.376 . S
C554 H541 0.930 . S
C554 C553 1.376 . S
C554 C555 1.388 . S
C555 H542 0.930 . S
C555 C554 1.388 . S
C555 C556 1.390 . S
C556 C555 1.390 . S
C556 C557 1.394 . S
C556 C562 1.465 . S
C557 C552 1.399 . S
C557 C556 1.394 . S
C557 C558 1.516 . S
C558 C557 1.516 . S
C558 C559 1.502 . S
C558 C560 1.561 . S
C558 C561 1.526 . S
C559 H543 0.959 . S
C559 H544 0.959 . S
C559 H545 0.961 . S
C559 C558 1.502 . S
C560 H546 0.960 . S
C560 H547 0.961 . S
C560 H548 0.959 . S
C560 C558 1.561 . S
C561 C558 1.526 . S
C561 C562 1.396 . S
C561 C566 1.390 . S
C562 C556 1.465 . S
C562 C561 1.396 . S
C562 C563 1.399 . S
C563 H549 0.929 . S
C563 C562 1.399 . S
C563 C564 1.385 . S
C564 H550 0.931 1_565 S
C564 C563 1.385 . S
C564 C565 1.389 . S
C565 C564 1.389 . S
C565 C566 1.387 . S
C566 H551 0.930 . S
C566 C561 1.390 . S
C566 C565 1.387 . S
H567 C579 0.930 . S
H568 C581 0.930 . S
H569 C582 0.930 . S
H570 C586 0.959 . S
H571 C586 0.959 . S
H572 C586 0.961 . S
H573 C587 0.960 . S
H574 C587 0.961 . S
H575 C587 0.959 . S
H576 C590 0.929 . S
H577 C591 0.931 . S
H578 C593 0.930 . S
C579 H567 0.930 . S
C579 C580 1.399 1_455 S
C579 C584 1.399 . S
C580 C579 1.399 1_655 S
C580 C581 1.376 1_655 S
C581 H568 0.930 . S
C581 C580 1.376 1_455 S
C581 C582 1.388 . S
C582 H569 0.930 . S
C582 C581 1.388 . S
C582 C583 1.390 . S
C583 C582 1.390 . S
C583 C584 1.394 . S
C583 C589 1.465 . S
C584 C579 1.399 . S
C584 C583 1.394 . S
C584 C585 1.516 . S
C585 C584 1.516 . S
C585 C586 1.502 . S
C585 C587 1.561 . S
C585 C588 1.526 . S
C586 H570 0.959 . S
C586 H571 0.959 . S
C586 H572 0.961 . S
C586 C585 1.502 . S
C587 H573 0.960 . S
C587 H574 0.961 . S
C587 H575 0.959 . S
C587 C585 1.561 . S
C588 C585 1.526 . S
C588 C589 1.396 . S
C588 C593 1.390 . S
C589 C583 1.465 . S
C589 C588 1.396 . S
C589 C590 1.399 . S
C590 H576 0.929 . S
C590 C589 1.399 . S
C590 C591 1.385 . S
C591 H577 0.931 . S
C591 C590 1.385 . S
C591 C592 1.389 . S
C592 C591 1.389 . S
C592 C593 1.387 . S
C593 H578 0.930 . S
C593 C588 1.390 . S
C593 C592 1.387 . S
H594 C606 0.920 1_556 S
H595 C608 0.930 . S
H596 C609 0.930 . S
H597 C613 0.959 1_554 S
H598 C613 0.959 . S
H599 C613 0.961 . S
H600 C614 0.960 . S
H601 C614 0.961 . S
H602 C614 0.959 . S
H603 C617 0.929 . S
H604 C618 0.928 1_554 S
H605 C620 0.930 . S
C606 H594 0.920 1_554 S
C606 C607 1.399 . S
C606 C611 1.405 . S
C607 C606 1.399 . S
C607 C608 1.376 . S
C608 H595 0.930 . S
C608 C607 1.376 . S
C608 C609 1.388 . S
C609 H596 0.930 . S
C609 C608 1.388 . S
C609 C610 1.390 . S
C610 C609 1.390 . S
C610 C611 1.404 . S
C610 C616 1.465 . S
C611 C606 1.405 . S
C611 C610 1.404 . S
C611 C612 1.501 1_554 S
C612 C611 1.501 1_556 S
C612 C613 1.502 . S
C612 C614 1.561 . S
C612 C615 1.526 . S
C613 H597 0.959 1_556 S
C613 H598 0.959 . S
C613 H599 0.961 . S
C613 C612 1.502 . S
C614 H600 0.960 . S
C614 H601 0.961 . S
C614 H602 0.959 . S
C614 C612 1.561 . S
C615 C612 1.526 . S
C615 C616 1.396 1_556 S
C615 C620 1.390 . S
C616 C610 1.465 . S
C616 C615 1.396 1_554 S
C616 C617 1.399 . S
C617 H603 0.929 . S
C617 C616 1.399 . S
C617 C618 1.381 1_554 S
C618 H604 0.928 1_556 S
C618 C617 1.381 1_556 S
C618 C619 1.397 . S
C619 C618 1.397 . S
C619 C620 1.387 . S
C620 H605 0.930 . S
C620 C615 1.390 . S
C620 C619 1.387 . S
H621 C633 0.930 . S
H622 C635 0.930 . S
H623 C636 0.930 . S
H624 C640 0.959 . S
H625 C640 0.959 . S
H626 C640 0.961 . S
H627 C641 0.960 . S
H628 C641 0.961 . S
H629 C641 0.959 . S
H630 C644 0.929 . S
H631 C645 0.931 1_565 S
H632 C647 0.930 . S
C633 H621 0.930 . S
C633 C634 1.399 1_554 S
C633 C638 1.399 . S
C634 C633 1.399 1_556 S
C634 C635 1.376 . S
C635 H622 0.930 . S
C635 C634 1.376 . S
C635 C636 1.388 . S
C636 H623 0.930 . S
C636 C635 1.388 . S
C636 C637 1.390 . S
C637 C636 1.390 . S
C637 C638 1.394 1_556 S
C637 C643 1.465 . S
C638 C633 1.399 . S
C638 C637 1.394 1_554 S
C638 C639 1.516 . S
C639 C638 1.516 . S
C639 C640 1.502 . S
C639 C641 1.561 . S
C639 C642 1.526 . S
C640 H624 0.959 . S
C640 H625 0.959 . S
C640 H626 0.961 . S
C640 C639 1.502 . S
C641 H627 0.960 . S
C641 H628 0.961 . S
C641 H629 0.959 . S
C641 C639 1.561 . S
C642 C639 1.526 . S
C642 C643 1.396 1_554 S
C642 C647 1.390 . S
C643 C637 1.465 . S
C643 C642 1.396 1_556 S
C643 C644 1.399 . S
C644 H630 0.929 . S
C644 C643 1.399 . S
C644 C645 1.385 . S
C645 H631 0.931 1_545 S
C645 C644 1.385 . S
C645 C646 1.389 1_556 S
C646 C645 1.389 1_554 S
C646 C647 1.387 . S
C647 H632 0.930 . S
C647 C642 1.390 . S
C647 C646 1.387 . S
H648 C660 0.930 . S
H649 C662 0.930 1_455 S
H650 C663 0.930 . S
H651 C667 0.959 . S
H652 C667 0.959 . S
H653 C667 0.961 . S
H654 C668 0.960 . S
H655 C668 0.961 . S
H656 C668 0.959 . S
H657 C671 0.929 . S
H658 C672 0.931 . S
H659 C674 0.930 . S
C660 H648 0.930 . S
C660 C661 1.399 . S
C660 C665 1.399 . S
C661 C660 1.399 . S
C661 C662 1.376 . S
C662 H649 0.930 1_655 S
C662 C661 1.376 . S
C662 C663 1.388 1_554 S
C663 H650 0.930 . S
C663 C662 1.388 1_556 S
C663 C664 1.390 1_556 S
C664 C663 1.390 1_554 S
C664 C665 1.394 . S
C664 C670 1.465 1_554 S
C665 C660 1.399 . S
C665 C664 1.394 . S
C665 C666 1.516 . S
C666 C665 1.516 . S
C666 C667 1.502 . S
C666 C668 1.561 . S
C666 C669 1.526 . S
C667 H651 0.959 . S
C667 H652 0.959 . S
C667 H653 0.961 . S
C667 C666 1.502 . S
C668 H654 0.960 . S
C668 H655 0.961 . S
C668 H656 0.959 . S
C668 C666 1.561 . S
C669 C666 1.526 . S
C669 C670 1.396 1_554 S
C669 C674 1.390 . S
C670 C664 1.465 1_556 S
C670 C669 1.396 1_556 S
C670 C671 1.399 . S
C671 H657 0.929 . S
C671 C670 1.399 . S
C671 C672 1.385 . S
C672 H658 0.931 . S
C672 C671 1.385 . S
C672 C673 1.389 . S
C673 C672 1.389 . S
C673 C674 1.387 1_556 S
C674 H659 0.930 . S
C674 C669 1.390 . S
C674 C673 1.387 1_554 S
H675 C687 0.930 . S
H676 C689 0.930 . S
H677 C690 0.930 . S
H678 C694 0.959 . S
H679 C694 0.959 . S
H680 C694 0.961 . S
H681 C695 0.960 . S
H682 C695 0.961 . S
H683 C695 0.959 . S
H684 C698 0.929 . S
H685 C699 0.931 . S
H686 C701 0.930 . S
C687 H675 0.930 . S
C687 C688 1.399 . S
C687 C692 1.399 . S
C688 C687 1.399 . S
C688 C689 1.376 . S
C689 H676 0.930 . S
C689 C688 1.376 . S
C689 C690 1.388 . S
C690 H677 0.930 . S
C690 C689 1.388 . S
C690 C691 1.390 . S
C691 C690 1.390 . S
C691 C692 1.394 . S
C691 C697 1.465 . S
C692 C687 1.399 . S
C692 C691 1.394 . S
C692 C693 1.516 . S
C693 C692 1.516 . S
C693 C694 1.502 . S
C693 C695 1.561 . S
C693 C696 1.526 . S
C694 H678 0.959 . S
C694 H679 0.959 . S
C694 H680 0.961 . S
C694 C693 1.502 . S
C695 H681 0.960 . S
C695 H682 0.961 . S
C695 H683 0.959 . S
C695 C693 1.561 . S
C696 C693 1.526 . S
C696 C697 1.396 . S
C696 C701 1.390 . S
C697 C691 1.465 . S
C697 C696 1.396 . S
C697 C698 1.399 . S
C698 H684 0.929 . S
C698 C697 1.399 . S
C698 C699 1.385 . S
C699 H685 0.931 . S
C699 C698 1.385 . S
C699 C700 1.389 . S
C700 C699 1.389 . S
C700 C701 1.387 . S
C701 H686 0.930 . S
C701 C696 1.390 . S
C701 C700 1.387 . S
H702 C714 0.930 . S
H703 C716 0.930 . S
H704 C717 0.930 . S
H705 C721 0.959 . S
H706 C721 0.959 . S
H707 C721 0.961 . S
H708 C722 0.960 . S
H709 C722 0.961 . S
H710 C722 0.959 . S
H711 C725 0.929 . S
H712 C726 0.931 . S
H713 C728 0.930 . S
C714 H702 0.930 . S
C714 C715 1.399 . S
C714 C719 1.399 . S
C715 C714 1.399 . S
C715 C716 1.376 . S
C716 H703 0.930 . S
C716 C715 1.376 . S
C716 C717 1.388 . S
C717 H704 0.930 . S
C717 C716 1.388 . S
C717 C718 1.390 . S
C718 C717 1.390 . S
C718 C719 1.394 . S
C718 C724 1.465 . S
C719 C714 1.399 . S
C719 C718 1.394 . S
C719 C720 1.516 . S
C720 C719 1.516 . S
C720 C721 1.502 . S
C720 C722 1.561 . S
C720 C723 1.526 . S
C721 H705 0.959 . S
C721 H706 0.959 . S
C721 H707 0.961 . S
C721 C720 1.502 . S
C722 H708 0.960 . S
C722 H709 0.961 . S
C722 H710 0.959 . S
C722 C720 1.561 . S
C723 C720 1.526 . S
C723 C724 1.396 . S
C723 C728 1.390 . S
C724 C718 1.465 . S
C724 C723 1.396 . S
C724 C725 1.399 . S
C725 H711 0.929 . S
C725 C724 1.399 . S
C725 C726 1.385 . S
C726 H712 0.931 . S
C726 C725 1.385 . S
C726 C727 1.389 . S
C727 C726 1.389 . S
C727 C728 1.387 . S
C728 H713 0.930 . S
C728 C723 1.390 . S
C728 C727 1.387 . S
H729 C741 0.930 . S
H730 C743 0.930 . S
H731 C744 0.930 . S
H732 C748 0.959 . S
H733 C748 0.959 . S
H734 C748 0.961 . S
H735 C749 0.960 . S
H736 C749 0.961 . S
H737 C749 0.959 . S
H738 C752 0.929 . S
H739 C753 0.931 . S
H740 C755 0.930 . S
C741 H729 0.930 . S
C741 C742 1.399 1_655 S
C741 C746 1.399 . S
C742 C741 1.399 1_455 S
C742 C743 1.376 . S
C743 H730 0.930 . S
C743 C742 1.376 . S
C743 C744 1.388 1_455 S
C744 H731 0.930 . S
C744 C743 1.388 1_655 S
C744 C745 1.390 . S
C745 C744 1.390 . S
C745 C746 1.394 . S
C745 C751 1.465 . S
C746 C741 1.399 . S
C746 C745 1.394 . S
C746 C747 1.516 . S
C747 C746 1.516 . S
C747 C748 1.502 . S
C747 C749 1.561 . S
C747 C750 1.526 . S
C748 H732 0.959 . S
C748 H733 0.959 . S
C748 H734 0.961 . S
C748 C747 1.502 . S
C749 H735 0.960 . S
C749 H736 0.961 . S
C749 H737 0.959 . S
C749 C747 1.561 . S
C750 C747 1.526 . S
C750 C751 1.396 . S
C750 C755 1.390 . S
C751 C745 1.465 . S
C751 C750 1.396 . S
C751 C752 1.399 . S
C752 H738 0.929 . S
C752 C751 1.399 . S
C752 C753 1.385 . S
C753 H739 0.931 . S
C753 C752 1.385 . S
C753 C754 1.389 . S
C754 C753 1.389 . S
C754 C755 1.387 . S
C755 H740 0.930 . S
C755 C750 1.390 . S
C755 C754 1.387 . S
H756 C768 0.930 . S
H757 C770 0.930 . S
H758 C771 0.930 . S
H759 C775 0.959 . S
H760 C775 0.959 . S
H761 C775 0.961 . S
H762 C776 0.960 . S
H763 C776 0.961 . S
H764 C776 0.959 . S
H765 C779 0.929 . S
H766 C780 0.931 . S
H767 C782 0.930 . S
C768 H756 0.930 . S
C768 C769 1.399 . S
C768 C773 1.399 . S
C769 C768 1.399 . S
C769 C770 1.376 . S
C770 H757 0.930 . S
C770 C769 1.376 . S
C770 C771 1.388 . S
C771 H758 0.930 . S
C771 C770 1.388 . S
C771 C772 1.390 . S
C772 C771 1.390 . S
C772 C773 1.394 . S
C772 C778 1.465 . S
C773 C768 1.399 . S
C773 C772 1.394 . S
C773 C774 1.516 . S
C774 C773 1.516 . S
C774 C775 1.502 . S
C774 C776 1.561 . S
C774 C777 1.526 . S
C775 H759 0.959 . S
C775 H760 0.959 . S
C775 H761 0.961 . S
C775 C774 1.502 . S
C776 H762 0.960 . S
C776 H763 0.961 . S
C776 H764 0.959 . S
C776 C774 1.561 . S
C777 C774 1.526 . S
C777 C778 1.396 . S
C777 C782 1.390 . S
C778 C772 1.465 . S
C778 C777 1.396 . S
C778 C779 1.399 . S
C779 H765 0.929 . S
C779 C778 1.399 . S
C779 C780 1.385 . S
C780 H766 0.931 . S
C780 C779 1.385 . S
C780 C781 1.389 . S
C781 C780 1.389 . S
C781 C782 1.387 . S
C782 H767 0.930 . S
C782 C777 1.390 . S
C782 C781 1.387 . S
H783 C795 0.930 . S
H784 C797 0.930 . S
H785 C798 0.930 . S
H786 C802 0.959 . S
H787 C802 0.959 . S
H788 C802 0.961 . S
H789 C803 0.960 . S
H790 C803 0.961 . S
H791 C803 0.959 . S
H792 C806 0.929 . S
H793 C807 0.931 . S
H794 C809 0.930 . S
C795 H783 0.930 . S
C795 C796 1.399 . S
C795 C800 1.399 . S
C796 C795 1.399 . S
C796 C797 1.376 . S
C797 H784 0.930 . S
C797 C796 1.376 . S
C797 C798 1.388 . S
C798 H785 0.930 . S
C798 C797 1.388 . S
C798 C799 1.390 . S
C799 C798 1.390 . S
C799 C800 1.394 . S
C799 C805 1.465 . S
C800 C795 1.399 . S
C800 C799 1.394 . S
C800 C801 1.516 . S
C801 C800 1.516 . S
C801 C802 1.502 . S
C801 C803 1.561 . S
C801 C804 1.526 . S
C802 H786 0.959 . S
C802 H787 0.959 . S
C802 H788 0.961 . S
C802 C801 1.502 . S
C803 H789 0.960 . S
C803 H790 0.961 . S
C803 H791 0.959 . S
C803 C801 1.561 . S
C804 C801 1.526 . S
C804 C805 1.396 . S
C804 C809 1.390 . S
C805 C799 1.465 . S
C805 C804 1.396 . S
C805 C806 1.399 . S
C806 H792 0.929 . S
C806 C805 1.399 . S
C806 C807 1.385 . S
C807 H793 0.931 . S
C807 C806 1.385 . S
C807 C808 1.389 . S
C808 C807 1.389 . S
C808 C809 1.387 . S
C809 H794 0.930 . S
C809 C804 1.390 . S
C809 C808 1.387 . S
H810 C822 0.930 . S
H811 C824 0.930 . S
H812 C825 0.930 . S
H813 C829 0.959 . S
H814 C829 0.959 . S
H815 C829 0.961 . S
H816 C830 0.960 . S
H817 C830 0.961 . S
H818 C830 0.959 . S
H819 C833 0.929 . S
H820 C834 0.931 . S
H821 C836 0.930 . S
C822 H810 0.930 . S
C822 C823 1.399 . S
C822 C827 1.399 . S
C823 C822 1.399 . S
C823 C824 1.376 . S
C824 H811 0.930 . S
C824 C823 1.376 . S
C824 C825 1.388 . S
C825 H812 0.930 . S
C825 C824 1.388 . S
C825 C826 1.390 . S
C826 C825 1.390 . S
C826 C827 1.394 . S
C826 C832 1.465 . S
C827 C822 1.399 . S
C827 C826 1.394 . S
C827 C828 1.516 . S
C828 C827 1.516 . S
C828 C829 1.502 . S
C828 C830 1.561 . S
C828 C831 1.526 . S
C829 H813 0.959 . S
C829 H814 0.959 . S
C829 H815 0.961 . S
C829 C828 1.502 . S
C830 H816 0.960 . S
C830 H817 0.961 . S
C830 H818 0.959 . S
C830 C828 1.561 . S
C831 C828 1.526 . S
C831 C832 1.396 . S
C831 C836 1.390 . S
C832 C826 1.465 . S
C832 C831 1.396 . S
C832 C833 1.399 . S
C833 H819 0.929 . S
C833 C832 1.399 . S
C833 C834 1.385 . S
C834 H820 0.931 . S
C834 C833 1.385 . S
C834 C835 1.389 . S
C835 C834 1.389 . S
C835 C836 1.387 . S
C836 H821 0.930 . S
C836 C831 1.390 . S
C836 C835 1.387 . S
H837 C849 0.930 . S
H838 C851 0.930 . S
H839 C852 0.930 . S
H840 C856 0.959 . S
H841 C856 0.959 . S
H842 C856 0.961 . S
H843 C857 0.960 . S
H844 C857 0.961 . S
H845 C857 0.959 . S
H846 C860 0.929 . S
H847 C861 0.931 . S
H848 C863 0.930 . S
C849 H837 0.930 . S
C849 C850 1.399 . S
C849 C854 1.399 . S
C850 C849 1.399 . S
C850 C851 1.376 . S
C851 H838 0.930 . S
C851 C850 1.376 . S
C851 C852 1.388 . S
C852 H839 0.930 . S
C852 C851 1.388 . S
C852 C853 1.390 . S
C853 C852 1.390 . S
C853 C854 1.394 . S
C853 C859 1.465 . S
C854 C849 1.399 . S
C854 C853 1.394 . S
C854 C855 1.516 . S
C855 C854 1.516 . S
C855 C856 1.502 . S
C855 C857 1.561 . S
C855 C858 1.526 . S
C856 H840 0.959 . S
C856 H841 0.959 . S
C856 H842 0.961 . S
C856 C855 1.502 . S
C857 H843 0.960 . S
C857 H844 0.961 . S
C857 H845 0.959 . S
C857 C855 1.561 . S
C858 C855 1.526 . S
C858 C859 1.396 . S
C858 C863 1.390 . S
C859 C853 1.465 . S
C859 C858 1.396 . S
C859 C860 1.399 . S
C860 H846 0.929 . S
C860 C859 1.399 . S
C860 C861 1.385 . S
C861 H847 0.931 . S
C861 C860 1.385 . S
C861 C862 1.389 . S
C862 C861 1.389 . S
C862 C863 1.387 . S
C863 H848 0.930 . S
C863 C858 1.390 . S
C863 C862 1.387 . S
H864 C876 0.930 . S
H865 C878 0.930 . S
H866 C879 0.930 . S
H867 C883 0.959 . S
H868 C883 0.959 . S
H869 C883 0.961 . S
H870 C884 0.960 . S
H871 C884 0.961 . S
H872 C884 0.959 . S
H873 C887 0.929 . S
H874 C888 0.931 . S
H875 C890 0.930 . S
C876 H864 0.930 . S
C876 C877 1.399 . S
C876 C881 1.399 . S
C877 C876 1.399 . S
C877 C878 1.376 . S
C878 H865 0.930 . S
C878 C877 1.376 . S
C878 C879 1.388 . S
C879 H866 0.930 . S
C879 C878 1.388 . S
C879 C880 1.390 . S
C880 C879 1.390 . S
C880 C881 1.394 . S
C880 C886 1.465 . S
C881 C876 1.399 . S
C881 C880 1.394 . S
C881 C882 1.516 . S
C882 C881 1.516 . S
C882 C883 1.502 . S
C882 C884 1.561 . S
C882 C885 1.526 . S
C883 H867 0.959 . S
C883 H868 0.959 . S
C883 H869 0.961 . S
C883 C882 1.502 . S
C884 H870 0.960 . S
C884 H871 0.961 . S
C884 H872 0.959 . S
C884 C882 1.561 . S
C885 C882 1.526 . S
C885 C886 1.396 . S
C885 C890 1.390 . S
C886 C880 1.465 . S
C886 C885 1.396 . S
C886 C887 1.399 . S
C887 H873 0.929 . S
C887 C886 1.399 . S
C887 C888 1.385 . S
C888 H874 0.931 . S
C888 C887 1.385 . S
C888 C889 1.389 . S
C889 C888 1.389 . S
C889 C890 1.387 . S
C890 H875 0.930 . S
C890 C885 1.390 . S
C890 C889 1.387 . S
H891 C903 0.930 . S
H892 C905 0.930 . S
H893 C906 0.930 . S
H894 C910 0.959 . S
H895 C910 0.959 . S
H896 C910 0.961 . S
H897 C911 0.960 . S
H898 C911 0.961 . S
H899 C911 0.959 . S
H900 C914 0.929 . S
H901 C915 0.931 . S
H902 C917 0.930 . S
C903 H891 0.930 . S
C903 C904 1.399 . S
C903 C908 1.399 . S
C904 C903 1.399 . S
C904 C905 1.376 . S
C905 H892 0.930 . S
C905 C904 1.376 . S
C905 C906 1.388 . S
C906 H893 0.930 . S
C906 C905 1.388 . S
C906 C907 1.390 . S
C907 C906 1.390 . S
C907 C908 1.394 . S
C907 C913 1.465 . S
C908 C903 1.399 . S
C908 C907 1.394 . S
C908 C909 1.516 . S
C909 C908 1.516 . S
C909 C910 1.502 . S
C909 C911 1.561 . S
C909 C912 1.526 . S
C910 H894 0.959 . S
C910 H895 0.959 . S
C910 H896 0.961 . S
C910 C909 1.502 . S
C911 H897 0.960 . S
C911 H898 0.961 . S
C911 H899 0.959 . S
C911 C909 1.561 . S
C912 C909 1.526 . S
C912 C913 1.396 . S
C912 C917 1.390 . S
C913 C907 1.465 . S
C913 C912 1.396 . S
C913 C914 1.399 . S
C914 H900 0.929 . S
C914 C913 1.399 . S
C914 C915 1.385 . S
C915 H901 0.931 . S
C915 C914 1.385 . S
C915 C916 1.389 . S
C916 C915 1.389 . S
C916 C917 1.387 . S
C917 H902 0.930 . S
C917 C912 1.390 . S
C917 C916 1.387 . S
H918 C930 0.930 1_655 S
H919 C932 0.930 . S
H920 C933 0.930 . S
H921 C937 0.959 . S
H922 C937 0.959 . S
H923 C937 0.961 . S
H924 C938 0.960 . S
H925 C938 0.961 . S
H926 C938 0.959 . S
H927 C941 0.929 1_554 S
H928 C942 0.931 1_455 S
H929 C944 0.930 . S
C930 H918 0.930 1_455 S
C930 C931 1.399 . S
C930 C935 1.416 . S
C931 C930 1.399 . S
C931 C932 1.376 . S
C932 H919 0.930 . S
C932 C931 1.376 . S
C932 C933 1.388 . S
C933 H920 0.930 . S
C933 C932 1.388 . S
C933 C934 1.390 . S
C934 C933 1.390 . S
C934 C935 1.397 . S
C934 C940 1.465 1_554 S
C935 C930 1.416 . S
C935 C934 1.397 . S
C935 C936 1.495 1_454 S
C936 C935 1.495 1_656 S
C936 C937 1.502 . S
C936 C938 1.561 1_556 S
C936 C939 1.526 . S
C937 H921 0.959 . S
C937 H922 0.959 . S
C937 H923 0.961 . S
C937 C936 1.502 . S
C938 H924 0.960 . S
C938 H925 0.961 . S
C938 H926 0.959 . S
C938 C936 1.561 1_554 S
C939 C936 1.526 . S
C939 C940 1.396 1_655 S
C939 C944 1.390 . S
C940 C934 1.465 1_556 S
C940 C939 1.396 1_455 S
C940 C941 1.399 . S
C941 H927 0.929 1_556 S
C941 C940 1.399 . S
C941 C942 1.385 1_455 S
C942 H928 0.931 1_655 S
C942 C941 1.385 1_655 S
C942 C943 1.389 . S
C943 C942 1.389 . S
C943 C944 1.387 . S
C944 H929 0.930 . S
C944 C939 1.390 . S
C944 C943 1.387 . S
H945 C957 0.930 . S
H946 C959 0.930 1_556 S
H947 C960 0.930 . S
H948 C964 0.959 . S
H949 C964 0.959 . S
H950 C964 0.961 . S
H951 C965 0.960 . S
H952 C965 0.961 . S
H953 C965 0.959 . S
H954 C968 0.929 . S
H955 C969 0.931 . S
H956 C971 0.930 . S
C957 H945 0.930 . S
C957 C958 1.399 . S
C957 C962 1.399 . S
C958 C957 1.399 . S
C958 C959 1.376 . S
C959 H946 0.930 1_554 S
C959 C958 1.376 . S
C959 C960 1.388 1_554 S
C960 H947 0.930 . S
C960 C959 1.388 1_556 S
C960 C961 1.390 . S
C961 C960 1.390 . S
C961 C962 1.394 1_556 S
C961 C967 1.465 . S
C962 C957 1.399 . S
C962 C961 1.394 1_554 S
C962 C963 1.516 . S
C963 C962 1.516 . S
C963 C964 1.502 . S
C963 C965 1.561 . S
C963 C966 1.526 1_554 S
C964 H948 0.959 . S
C964 H949 0.959 . S
C964 H950 0.961 . S
C964 C963 1.502 . S
C965 H951 0.960 . S
C965 H952 0.961 . S
C965 H953 0.959 . S
C965 C963 1.561 . S
C966 C963 1.526 1_556 S
C966 C967 1.396 . S
C966 C971 1.390 . S
C967 C961 1.465 . S
C967 C966 1.396 . S
C967 C968 1.399 . S
C968 H954 0.929 . S
C968 C967 1.399 . S
C968 C969 1.385 . S
C969 H955 0.931 . S
C969 C968 1.385 . S
C969 C970 1.389 . S
C970 C969 1.389 . S
C970 C971 1.387 . S
C971 H956 0.930 . S
C971 C966 1.390 . S
C971 C970 1.387 . S
H972 C984 0.930 . S
H973 C986 0.930 . S
H974 C987 0.930 . S
H975 C991 0.959 . S
H976 C991 0.959 . S
H977 C991 0.961 . S
H978 C992 0.960 . S
H979 C992 0.961 . S
H980 C992 0.959 . S
H981 C995 0.929 . S
H982 C996 0.931 1_565 S
H983 C998 0.928 1_554 S
C984 H972 0.930 . S
C984 C985 1.399 . S
C984 C989 1.399 . S
C985 C984 1.399 . S
C985 C986 1.376 . S
C986 H973 0.930 . S
C986 C985 1.376 . S
C986 C987 1.388 1_554 S
C987 H974 0.930 . S
C987 C986 1.388 1_556 S
C987 C988 1.390 1_556 S
C988 C987 1.390 1_554 S
C988 C989 1.394 . S
C988 C994 1.465 1_554 S
C989 C984 1.399 . S
C989 C988 1.394 . S
C989 C990 1.516 1_565 S
C990 C989 1.516 1_545 S
C990 C991 1.502 . S
C990 C992 1.561 . S
C990 C993 1.526 . S
C991 H975 0.959 . S
C991 H976 0.959 . S
C991 H977 0.961 . S
C991 C990 1.502 . S
C992 H978 0.960 . S
C992 H979 0.961 . S
C992 H980 0.959 . S
C992 C990 1.561 . S
C993 C990 1.526 . S
C993 C994 1.396 1_544 S
C993 C998 1.390 1_554 S
C994 C988 1.465 1_556 S
C994 C993 1.396 1_566 S
C994 C995 1.399 . S
C995 H981 0.929 . S
C995 C994 1.399 . S
C995 C996 1.385 1_565 S
C996 H982 0.931 1_545 S
C996 C995 1.385 1_545 S
C996 C997 1.389 . S
C997 C996 1.389 . S
C997 C998 1.387 . S
C998 H983 0.928 1_556 S
C998 C993 1.390 1_556 S
C998 C997 1.387 . S
H999 C1011 0.930 . S
H1000 C1013 0.930 . S
H1001 C1014 0.930 1_545 S
H1002 C1018 0.959 . S
H1003 C1018 0.959 . S
H1004 C1018 0.961 . S
H1005 C1019 0.960 1_565 S
H1006 C1019 0.961 . S
H1007 C1019 0.959 . S
H1008 C1022 0.929 . S
H1009 C1023 0.931 . S
H1010 C1025 0.930 . S
C1011 H999 0.930 . S
C1011 C1012 1.399 . S
C1011 C1016 1.399 . S
C1012 C1011 1.399 . S
C1012 C1013 1.376 . S
C1013 H1000 0.930 . S
C1013 C1012 1.376 . S
C1013 C1014 1.388 . S
C1014 H1001 0.930 1_565 S
C1014 C1013 1.388 . S
C1014 C1015 1.390 . S
C1015 C1014 1.390 . S
C1015 C1016 1.394 . S
C1015 C1021 1.465 1_565 S
C1016 C1011 1.399 . S
C1016 C1015 1.394 . S
C1016 C1017 1.516 . S
C1017 C1016 1.516 . S
C1017 C1018 1.502 . S
C1017 C1019 1.561 1_565 S
C1017 C1020 1.526 1_565 S
C1018 H1002 0.959 . S
C1018 H1003 0.959 . S
C1018 H1004 0.961 . S
C1018 C1017 1.502 . S
C1019 H1005 0.960 1_545 S
C1019 H1006 0.961 . S
C1019 H1007 0.959 . S
C1019 C1017 1.561 1_545 S
C1020 C1017 1.526 1_545 S
C1020 C1021 1.396 . S
C1020 C1025 1.390 . S
C1021 C1015 1.465 1_545 S
C1021 C1020 1.396 . S
C1021 C1022 1.399 . S
C1022 H1008 0.929 . S
C1022 C1021 1.399 . S
C1022 C1023 1.385 . S
C1023 H1009 0.931 . S
C1023 C1022 1.385 . S
C1023 C1024 1.389 . S
C1024 C1023 1.389 . S
C1024 C1025 1.387 . S
C1025 H1010 0.930 . S
C1025 C1020 1.390 . S
C1025 C1024 1.387 . S
H1026 C1038 0.930 . S
H1027 C1040 0.930 . S
H1028 C1041 0.930 . S
H1029 C1045 0.959 . S
H1030 C1045 0.959 . S
H1031 C1045 0.961 . S
H1032 C1046 0.960 . S
H1033 C1046 0.961 1_455 S
H1034 C1046 0.959 . S
H1035 C1049 0.925 1_655 S
H1036 C1050 0.931 . S
H1037 C1052 0.930 . S
C1038 H1026 0.930 . S
C1038 C1039 1.399 . S
C1038 C1043 1.399 . S
C1039 C1038 1.399 . S
C1039 C1040 1.376 . S
C1040 H1027 0.930 . S
C1040 C1039 1.376 . S
C1040 C1041 1.388 . S
C1041 H1028 0.930 . S
C1041 C1040 1.388 . S
C1041 C1042 1.390 . S
C1042 C1041 1.390 . S
C1042 C1043 1.394 . S
C1042 C1048 1.467 . S
C1043 C1038 1.399 . S
C1043 C1042 1.394 . S
C1043 C1044 1.516 1_655 S
C1044 C1043 1.516 1_455 S
C1044 C1045 1.502 . S
C1044 C1046 1.561 1_455 S
C1044 C1047 1.526 . S
C1045 H1029 0.959 . S
C1045 H1030 0.959 . S
C1045 H1031 0.961 . S
C1045 C1044 1.502 . S
C1046 H1032 0.960 . S
C1046 H1033 0.961 1_655 S
C1046 H1034 0.959 . S
C1046 C1044 1.561 1_655 S
C1047 C1044 1.526 . S
C1047 C1048 1.377 1_455 S
C1047 C1052 1.390 . S
C1048 C1042 1.467 . S
C1048 C1047 1.377 1_655 S
C1048 C1049 1.416 1_655 S
C1049 H1035 0.925 1_455 S
C1049 C1048 1.416 1_455 S
C1049 C1050 1.386 . S
C1050 H1036 0.931 . S
C1050 C1049 1.386 . S
C1050 C1051 1.389 . S
C1051 C1050 1.389 . S
C1051 C1052 1.387 . S
C1052 H1037 0.930 . S
C1052 C1047 1.390 . S
C1052 C1051 1.387 . S
H1053 C1065 0.930 . S
H1054 C1067 0.930 . S
H1055 C1068 0.930 . S
H1056 C1072 0.959 . S
H1057 C1072 0.959 . S
H1058 C1072 0.961 . S
H1059 C1073 0.960 . S
H1060 C1073 0.961 . S
H1061 C1073 0.959 . S
H1062 C1076 0.929 . S
H1063 C1077 0.931 . S
H1064 C1079 0.930 . S
C1065 H1053 0.930 . S
C1065 C1066 1.399 . S
C1065 C1070 1.399 . S
C1066 C1065 1.399 . S
C1066 C1067 1.376 . S
C1067 H1054 0.930 . S
C1067 C1066 1.376 . S
C1067 C1068 1.388 . S
C1068 H1055 0.930 . S
C1068 C1067 1.388 . S
C1068 C1069 1.390 . S
C1069 C1068 1.390 . S
C1069 C1070 1.394 . S
C1069 C1075 1.465 . S
C1070 C1065 1.399 . S
C1070 C1069 1.394 . S
C1070 C1071 1.516 . S
C1071 C1070 1.516 . S
C1071 C1072 1.502 . S
C1071 C1073 1.561 . S
C1071 C1074 1.526 . S
C1072 H1056 0.959 . S
C1072 H1057 0.959 . S
C1072 H1058 0.961 . S
C1072 C1071 1.502 . S
C1073 H1059 0.960 . S
C1073 H1060 0.961 . S
C1073 H1061 0.959 . S
C1073 C1071 1.561 . S
C1074 C1071 1.526 . S
C1074 C1075 1.396 . S
C1074 C1079 1.390 . S
C1075 C1069 1.465 . S
C1075 C1074 1.396 . S
C1075 C1076 1.399 . S
C1076 H1062 0.929 . S
C1076 C1075 1.399 . S
C1076 C1077 1.385 . S
C1077 H1063 0.931 . S
C1077 C1076 1.385 . S
C1077 C1078 1.389 . S
C1078 C1077 1.389 . S
C1078 C1079 1.387 . S
C1079 H1064 0.930 . S
C1079 C1074 1.390 . S
C1079 C1078 1.387 . S
C445 C4 0.713 . S
C457 C254 0.645 . S
C472 C40 0.683 . S
C484 C290 0.718 1_565 S
C499 C86 0.800 . S
C511 C218 0.777 1_455 S
C526 C398 0.779 . S
C538 C122 0.800 . S
C553 C148 0.696 . S
C565 C326 0.625 1_565 S
C580 C362 0.644 . S
C592 C184 0.713 . S
C607 C38 0.684 . S
C619 C220 0.636 . S
C634 C256 0.586 . S
C646 C75 0.637 1_545 S
C661 C2 0.703 1_655 S
C673 C292 0.746 . S
C688 C328 0.781 . S
C700 C182 0.778 . S
C715 C364 0.695 . S
C727 C111 0.613 1_545 S
C742 C146 0.607 . S
C754 C400 0.605 . S
C769 C194 1.487 . S
C781 C14 1.451 . S
C796 C50 1.500 . S
C808 C112 1.537 . S
C823 C76 1.541 . S
C835 C158 1.495 . S
C850 C230 1.523 . S
C862 C410 1.489 . S
C877 C266 1.493 . S
C889 C338 1.426 . S
C904 C302 1.424 . S
C916 C374 1.493 . S
C931 C3 1.666 . S
C943 C219 1.620 . S
C958 C39 1.633 . S
C970 C255 1.622 . S
C985 C74 1.673 . S
C997 C291 1.666 . S
C1012 C110 1.624 . S
C1024 C327 1.660 . S
C1039 C363 1.648 . S
C1051 C147 1.597 . S
C1066 C183 1.636 . S
C1078 C399 1.639 . S
