# Generated by pormake.
# Topology uoy, (4)-cn, num edge types: 1
# Building blocks:
#     Node 0, Type 0, BuildingBlock: NAHDIM_clean_sbu_0, # of connection points: 4
#     Node 1, Type 0, BuildingBlock: NAHDIM_clean_sbu_0, # of connection points: 4
#     Node 2, Type 0, BuildingBlock: NAHDIM_clean_sbu_0, # of connection points: 4
#     Node 3, Type 0, BuildingBlock: NAHDIM_clean_sbu_0, # of connection points: 4
#     Node 4, Type 0, BuildingBlock: NAHDIM_clean_sbu_0, # of connection points: 4
#     Node 5, Type 0, BuildingBlock: NAHDIM_clean_sbu_0, # of connection points: 4
#     Node 6, Type 0, BuildingBlock: NAHDIM_clean_sbu_0, # of connection points: 4
#     Node 7, Type 0, BuildingBlock: NAHDIM_clean_sbu_0, # of connection points: 4
#     Node 8, Type 0, BuildingBlock: NAHDIM_clean_sbu_0, # of connection points: 4
#     Node 9, Type 0, BuildingBlock: NAHDIM_clean_sbu_0, # of connection points: 4
#     Node 10, Type 0, BuildingBlock: NAHDIM_clean_sbu_0, # of connection points: 4
#     Node 11, Type 0, BuildingBlock: NAHDIM_clean_sbu_0, # of connection points: 4
#     Node 12, Type 0, BuildingBlock: NAHDIM_clean_sbu_0, # of connection points: 4
#     Node 13, Type 0, BuildingBlock: NAHDIM_clean_sbu_0, # of connection points: 4
#     Node 14, Type 0, BuildingBlock: NAHDIM_clean_sbu_0, # of connection points: 4
#     Node 15, Type 0, BuildingBlock: NAHDIM_clean_sbu_0, # of connection points: 4
#     Edge 16, Type (0, 0), BuildingBlock: KIFKEQ_clean_linker_1, # of connection points: 2
#     Edge 17, Type (0, 0), BuildingBlock: KIFKEQ_clean_linker_1, # of connection points: 2
#     Edge 18, Type (0, 0), BuildingBlock: KIFKEQ_clean_linker_1, # of connection points: 2
#     Edge 19, Type (0, 0), BuildingBlock: KIFKEQ_clean_linker_1, # of connection points: 2
#     Edge 20, Type (0, 0), BuildingBlock: KIFKEQ_clean_linker_1, # of connection points: 2
#     Edge 21, Type (0, 0), BuildingBlock: KIFKEQ_clean_linker_1, # of connection points: 2
#     Edge 22, Type (0, 0), BuildingBlock: KIFKEQ_clean_linker_1, # of connection points: 2
#     Edge 23, Type (0, 0), BuildingBlock: KIFKEQ_clean_linker_1, # of connection points: 2
#     Edge 24, Type (0, 0), BuildingBlock: KIFKEQ_clean_linker_1, # of connection points: 2
#     Edge 25, Type (0, 0), BuildingBlock: KIFKEQ_clean_linker_1, # of connection points: 2
#     Edge 26, Type (0, 0), BuildingBlock: KIFKEQ_clean_linker_1, # of connection points: 2
#     Edge 27, Type (0, 0), BuildingBlock: KIFKEQ_clean_linker_1, # of connection points: 2
#     Edge 28, Type (0, 0), BuildingBlock: KIFKEQ_clean_linker_1, # of connection points: 2
#     Edge 29, Type (0, 0), BuildingBlock: KIFKEQ_clean_linker_1, # of connection points: 2
#     Edge 30, Type (0, 0), BuildingBlock: KIFKEQ_clean_linker_1, # of connection points: 2
#     Edge 31, Type (0, 0), BuildingBlock: KIFKEQ_clean_linker_1, # of connection points: 2
#     Edge 32, Type (0, 0), BuildingBlock: KIFKEQ_clean_linker_1, # of connection points: 2
#     Edge 33, Type (0, 0), BuildingBlock: KIFKEQ_clean_linker_1, # of connection points: 2
#     Edge 34, Type (0, 0), BuildingBlock: KIFKEQ_clean_linker_1, # of connection points: 2
#     Edge 35, Type (0, 0), BuildingBlock: KIFKEQ_clean_linker_1, # of connection points: 2
#     Edge 36, Type (0, 0), BuildingBlock: KIFKEQ_clean_linker_1, # of connection points: 2
#     Edge 37, Type (0, 0), BuildingBlock: KIFKEQ_clean_linker_1, # of connection points: 2
#     Edge 38, Type (0, 0), BuildingBlock: KIFKEQ_clean_linker_1, # of connection points: 2
#     Edge 39, Type (0, 0), BuildingBlock: KIFKEQ_clean_linker_1, # of connection points: 2
#     Edge 40, Type (0, 0), BuildingBlock: KIFKEQ_clean_linker_1, # of connection points: 2
#     Edge 41, Type (0, 0), BuildingBlock: KIFKEQ_clean_linker_1, # of connection points: 2
#     Edge 42, Type (0, 0), BuildingBlock: KIFKEQ_clean_linker_1, # of connection points: 2
#     Edge 43, Type (0, 0), BuildingBlock: KIFKEQ_clean_linker_1, # of connection points: 2
#     Edge 44, Type (0, 0), BuildingBlock: KIFKEQ_clean_linker_1, # of connection points: 2
#     Edge 45, Type (0, 0), BuildingBlock: KIFKEQ_clean_linker_1, # of connection points: 2
#     Edge 46, Type (0, 0), BuildingBlock: KIFKEQ_clean_linker_1, # of connection points: 2
#     Edge 47, Type (0, 0), BuildingBlock: KIFKEQ_clean_linker_1, # of connection points: 2
# Relax obj value: 0.108
# Max RMSD: 0.148
# Mean RMSD: 0.148
data_MOF--net-uoy--node1-NAHDIM_clean_sbu_0--edge1-KIFKEQ_clean_linker_1
_symmetry_space_group_name_H-M    P1
_symmetry_Int_Tables_number       1
_symmetry_cell_setting            triclinic
loop_
_symmetry_equiv_pos_as_xyz
'x, y, z'
_cell_length_a     28.74719
_cell_length_b     28.706982
_cell_length_c     103.43838
_cell_angle_alpha  90.045039
_cell_angle_beta   90.007031
_cell_angle_gamma 90.002833
loop_
_atom_site_label
_atom_site_type_symbol
_atom_site_fract_x
_atom_site_fract_y
_atom_site_fract_z
_atom_type_partial_charge
C0 C 0.15231 0.0738 0.18124 0.0
O1 O 0.15379 0.11911 0.183 0.0
O2 O 0.24148 0.12883 0.19761 0.0
Zn3 Zn 0.24758 0.09105 0.18134 0.0
O4 O 0.24968 0.13132 0.16553 0.0
C5 C 0.34032 0.06689 0.18889 0.0
O6 O 0.33612 0.10616 0.19531 0.0
O7 O 0.19029 0.05152 0.18007 0.0
C8 C 0.28642 0.15142 0.16161 0.0
O9 O 0.32489 0.14757 0.16837 0.0
C10 C 0.24258 0.17295 0.19851 0.0
O11 O 0.24843 0.19827 0.18807 0.0
O12 O 0.30611 0.05224 0.18222 0.0
C13 C 0.91987 0.65364 0.42786 0.0
O14 O 0.87436 0.65534 0.42895 0.0
O15 O 0.86519 0.7415 0.44529 0.0
Zn16 Zn 0.90338 0.74897 0.42914 0.0
O17 O 0.86486 0.75407 0.41304 0.0
C18 C 0.92358 0.84195 0.43665 0.0
O19 O 0.88172 0.83743 0.44157 0.0
O20 O 0.94265 0.69158 0.42753 0.0
C21 C 0.83292 0.78396 0.41127 0.0
O22 O 0.822 0.81294 0.42061 0.0
C23 C 0.82188 0.73374 0.44645 0.0
O24 O 0.7957 0.72981 0.4361 0.0
O25 O 0.94195 0.80739 0.43087 0.0
C26 C 0.35584 0.42076 0.67918 0.0
O27 O 0.35466 0.37601 0.68182 0.0
O28 O 0.26593 0.37039 0.69717 0.0
Zn29 Zn 0.26013 0.40415 0.68022 0.0
O30 O 0.25609 0.3601 0.66519 0.0
C31 C 0.16794 0.43121 0.68756 0.0
O32 O 0.17228 0.39403 0.69486 0.0
O33 O 0.3177 0.44268 0.6779 0.0
C34 C 0.21928 0.33764 0.66248 0.0
O35 O 0.18284 0.34146 0.67006 0.0
C36 C 0.26753 0.32652 0.69869 0.0
O37 O 0.266 0.29904 0.68854 0.0
O38 O 0.20197 0.44369 0.6805 0.0
C39 C 0.57214 0.83863 0.92681 0.0
O40 O 0.6171 0.83747 0.92457 0.0
O41 O 0.62191 0.73809 0.94692 0.0
Zn42 Zn 0.58872 0.74183 0.92985 0.0
O43 O 0.63285 0.74045 0.91478 0.0
C44 C 0.57068 0.64613 0.92998 0.0
O45 O 0.61603 0.64745 0.9315 0.0
O46 O 0.55087 0.80076 0.92918 0.0
C47 C 0.67526 0.72823 0.9154 0.0
O48 O 0.69319 0.71612 0.92658 0.0
C49 C 0.65499 0.76267 0.9514 0.0
O50 O 0.67268 0.79646 0.94441 0.0
O51 O 0.54864 0.68433 0.9288 0.0
C52 C 0.14859 0.41226 0.06416 0.0
O53 O 0.15034 0.36673 0.06537 0.0
O54 O 0.23483 0.36079 0.04222 0.0
Zn55 Zn 0.24244 0.3944 0.05912 0.0
O56 O 0.24582 0.35056 0.07423 0.0
C57 C 0.33573 0.41807 0.05206 0.0
O58 O 0.33125 0.37956 0.04531 0.0
O59 O 0.18575 0.43425 0.06148 0.0
C60 C 0.28242 0.32883 0.07754 0.0
O61 O 0.32025 0.33298 0.07053 0.0
C62 C 0.23669 0.31703 0.04046 0.0
O63 O 0.24377 0.28933 0.05037 0.0
O64 O 0.30134 0.43268 0.05866 0.0
C65 C 0.57154 0.66607 0.31148 0.0
O66 O 0.61718 0.66724 0.31103 0.0
O67 O 0.62424 0.75311 0.29225 0.0
Zn68 Zn 0.58928 0.76091 0.30896 0.0
O69 O 0.63033 0.76538 0.3246 0.0
C70 C 0.57233 0.85554 0.30329 0.0
O71 O 0.61576 0.8515 0.29951 0.0
O72 O 0.54913 0.7042 0.31099 0.0
C73 C 0.66841 0.78757 0.32551 0.0
O74 O 0.68523 0.80935 0.31538 0.0
C75 C 0.66519 0.73815 0.29021 0.0
O76 O 0.69183 0.72611 0.29997 0.0
O77 O 0.55153 0.8199 0.30775 0.0
C78 C 0.33142 0.07979 0.55869 0.0
O79 O 0.32968 0.12539 0.55769 0.0
O80 O 0.24496 0.13578 0.54229 0.0
Zn81 Zn 0.237 0.09795 0.55845 0.0
O82 O 0.23629 0.13793 0.5744 0.0
C83 C 0.14318 0.0798 0.55112 0.0
O84 O 0.14845 0.12153 0.54613 0.0
O85 O 0.29351 0.05713 0.55949 0.0
C86 C 0.20034 0.15811 0.57883 0.0
O87 O 0.16071 0.15448 0.5726 0.0
C88 C 0.24387 0.17981 0.54117 0.0
O89 O 0.23617 0.20587 0.55139 0.0
O90 O 0.17725 0.06106 0.55702 0.0
C91 C 0.95758 0.81241 0.80024 0.0
O92 O 0.95618 0.78991 0.78918 0.0
O93 O 0.8605 0.74276 0.79202 0.0
Zn94 Zn 0.89696 0.73829 0.80848 0.0
O95 O 0.8549 0.73664 0.82393 0.0
C96 C 0.90978 0.6415 0.80662 0.0
O97 O 0.8642 0.64488 0.80647 0.0
O98 O 0.93671 0.79545 0.80998 0.0
C99 C 0.86881 0.71679 0.8342 0.0
O100 O 0.91002 0.69703 0.83437 0.0
C101 C 0.81701 0.73608 0.7909 0.0
O102 O 0.7921 0.72703 0.80124 0.0
O103 O 0.93384 0.67855 0.80758 0.0
C104 C 0.66423 0.58763 0.6762 0.0
O105 O 0.66554 0.63288 0.67807 0.0
O106 O 0.75489 0.64377 0.69296 0.0
Zn107 Zn 0.76037 0.60392 0.67705 0.0
O108 O 0.76763 0.64254 0.6611 0.0
C109 C 0.85538 0.58888 0.68004 0.0
O110 O 0.8526 0.63457 0.67989 0.0
O111 O 0.70231 0.56537 0.67527 0.0
C112 C 0.75459 0.68463 0.66012 0.0
O113 O 0.73533 0.70538 0.6701 0.0
C114 C 0.73948 0.62429 0.70311 0.0
O115 O 0.72725 0.58022 0.70259 0.0
O116 O 0.81818 0.56522 0.67893 0.0
C117 C 0.40285 0.14619 0.93196 0.0
O118 O 0.35995 0.14687 0.93633 0.0
O119 O 0.34794 0.23812 0.94692 0.0
Zn120 Zn 0.38163 0.24152 0.92989 0.0
O121 O 0.33798 0.24136 0.91472 0.0
C122 C 0.40613 0.33615 0.93564 0.0
O123 O 0.36812 0.33297 0.94263 0.0
O124 O 0.4216 0.18423 0.92841 0.0
C125 C 0.31638 0.27748 0.91093 0.0
O126 O 0.3204 0.31638 0.91753 0.0
C127 C 0.30444 0.24232 0.94875 0.0
O128 O 0.27678 0.24958 0.93885 0.0
O129 O 0.42 0.30061 0.92936 0.0
C130 C 0.84316 0.90791 0.18265 0.0
O131 O 0.84187 0.8627 0.1846 0.0
O132 O 0.75382 0.85149 0.19882 0.0
Zn133 Zn 0.74798 0.8903 0.18279 0.0
O134 O 0.74467 0.85047 0.16689 0.0
C135 C 0.65161 0.90489 0.18523 0.0
O136 O 0.65376 0.85917 0.18518 0.0
O137 O 0.80508 0.92999 0.18144 0.0
C138 C 0.72409 0.86602 0.15691 0.0
O139 O 0.70482 0.90749 0.15732 0.0
C140 C 0.74401 0.80845 0.19962 0.0
O141 O 0.7294 0.78606 0.18931 0.0
O142 O 0.68916 0.92807 0.18429 0.0
C143 C 0.08411 0.34368 0.43103 0.0
O144 O 0.1291 0.34261 0.43327 0.0
O145 O 0.13763 0.25681 0.44848 0.0
Zn146 Zn 0.10261 0.249 0.43184 0.0
O147 O 0.14461 0.24753 0.41636 0.0
C148 C 0.08245 0.15499 0.43872 0.0
O149 O 0.12298 0.1597 0.44444 0.0
O150 O 0.06221 0.30542 0.4299 0.0
C151 C 0.16507 0.21132 0.41217 0.0
O152 O 0.16121 0.172 0.41855 0.0
C153 C 0.18139 0.2552 0.4501 0.0
O154 O 0.20872 0.24749 0.44015 0.0
O155 O 0.06526 0.18952 0.43267 0.0
C156 C 0.64136 0.91678 0.55229 0.0
O157 O 0.64257 0.87172 0.55008 0.0
O158 O 0.73116 0.86028 0.53634 0.0
Zn159 Zn 0.73664 0.89896 0.55247 0.0
O160 O 0.73751 0.85966 0.56851 0.0
C161 C 0.83097 0.92029 0.54599 0.0
O162 O 0.82762 0.87909 0.54054 0.0
O163 O 0.67948 0.93873 0.55364 0.0
C164 C 0.7742 0.84245 0.57341 0.0
O165 O 0.8142 0.84823 0.5675 0.0
C166 C 0.73615 0.81638 0.53565 0.0
O167 O 0.7456 0.79256 0.54616 0.0
O168 O 0.79552 0.9374 0.55163 0.0
C169 C 0.08558 0.13919 0.80332 0.0
O170 O 0.13057 0.14598 0.80208 0.0
O171 O 0.13375 0.23448 0.78857 0.0
Zn172 Zn 0.09394 0.23523 0.80457 0.0
O173 O 0.13239 0.2376 0.82077 0.0
C174 C 0.06558 0.3277 0.79794 0.0
O175 O 0.10485 0.3254 0.79149 0.0
O176 O 0.05916 0.17438 0.80475 0.0
C177 C 0.15002 0.27507 0.82511 0.0
O178 O 0.14497 0.31386 0.81854 0.0
C179 C 0.17736 0.24127 0.78795 0.0
O180 O 0.20094 0.24979 0.79856 0.0
O181 O 0.0519 0.29205 0.8042 0.0
C182 C 0.83836 0.57579 0.06534 0.0
O183 O 0.83599 0.62051 0.06797 0.0
O184 O 0.74579 0.62456 0.04247 0.0
Zn185 Zn 0.74382 0.59304 0.05974 0.0
O186 O 0.73971 0.63775 0.07465 0.0
C187 C 0.64864 0.5762 0.05724 0.0
O188 O 0.65153 0.62103 0.05485 0.0
O189 O 0.80181 0.55467 0.06165 0.0
C190 C 0.72511 0.6795 0.07432 0.0
O191 O 0.71133 0.6976 0.06331 0.0
C192 C 0.7669 0.66107 0.03876 0.0
O193 O 0.79224 0.68508 0.04696 0.0
O194 O 0.68568 0.55387 0.05985 0.0
C195 C 0.40632 0.35677 0.30724 0.0
O196 O 0.36176 0.35552 0.30442 0.0
O197 O 0.35373 0.2676 0.29004 0.0
Zn198 Zn 0.38918 0.26118 0.30668 0.0
O199 O 0.34734 0.25766 0.32217 0.0
C200 C 0.41298 0.1682 0.29943 0.0
O201 O 0.37341 0.17233 0.29319 0.0
O202 O 0.42809 0.31863 0.30877 0.0
C203 C 0.32705 0.22061 0.3258 0.0
O204 O 0.331 0.18264 0.31881 0.0
C205 C 0.31 0.26422 0.28857 0.0
O206 O 0.28339 0.25638 0.29865 0.0
O207 O 0.42828 0.20275 0.30588 0.0
H208 H 0.35318 0.27526 0.08712 0.0
H209 H 0.21268 0.32026 0.09525 0.0
H210 H 0.35428 0.23167 0.10735 0.0
H211 H 0.21428 0.27789 0.11558 0.0
H212 H 0.215 0.15873 0.14437 0.0
H213 H 0.21455 0.19976 0.12382 0.0
H214 H 0.35595 0.24495 0.13051 0.0
H215 H 0.35687 0.2027 0.15096 0.0
C216 C 0.32257 0.27589 0.09322 0.0
C217 C 0.28283 0.30116 0.08957 0.0
C218 C 0.32333 0.2512 0.10486 0.0
C219 C 0.28441 0.25138 0.11309 0.0
C220 C 0.24461 0.27646 0.10938 0.0
C221 C 0.24378 0.30095 0.09774 0.0
C222 C 0.24601 0.17746 0.14148 0.0
C223 C 0.28597 0.17751 0.14931 0.0
C224 C 0.24567 0.20116 0.12972 0.0
C225 C 0.28519 0.22569 0.12553 0.0
C226 C 0.32515 0.22584 0.13337 0.0
C227 C 0.32557 0.20193 0.14513 0.0
H228 H 0.86095 0.74554 0.38847 0.0
H229 H 0.75128 0.82813 0.40558 0.0
H230 H 0.8216 0.74923 0.36759 0.0
H231 H 0.71175 0.83134 0.38464 0.0
H232 H 0.63304 0.76715 0.34925 0.0
H233 H 0.67332 0.76893 0.36999 0.0
H234 H 0.79933 0.81311 0.3509 0.0
H235 H 0.75893 0.81183 0.33006 0.0
C236 C 0.82843 0.76444 0.38777 0.0
C237 C 0.80906 0.78644 0.39866 0.0
C238 C 0.80616 0.7668 0.37581 0.0
C239 C 0.76379 0.7906 0.37455 0.0
C240 C 0.74435 0.8126 0.38541 0.0
C241 C 0.76699 0.81085 0.39735 0.0
C242 C 0.66932 0.77733 0.34946 0.0
C243 C 0.69293 0.78924 0.33803 0.0
C244 C 0.6922 0.77864 0.36134 0.0
C245 C 0.73929 0.7912 0.362 0.0
C246 C 0.763 0.80311 0.3506 0.0
C247 C 0.73989 0.80252 0.33871 0.0
H248 H 0.13199 0.20955 0.59044 0.0
H249 H 0.27482 0.16547 0.59506 0.0
H250 H 0.13669 0.25213 0.61081 0.0
H251 H 0.27908 0.20691 0.61554 0.0
H252 H 0.28591 0.32854 0.64386 0.0
H253 H 0.28082 0.28538 0.62368 0.0
H254 H 0.1426 0.23913 0.63393 0.0
H255 H 0.14719 0.28341 0.65402 0.0
C256 C 0.16431 0.2088 0.59582 0.0
C257 C 0.20306 0.18426 0.59112 0.0
C258 C 0.1669 0.23292 0.60754 0.0
C259 C 0.20825 0.23287 0.6148 0.0
C260 C 0.24692 0.20821 0.61009 0.0
C261 C 0.2444 0.18428 0.59837 0.0
C262 C 0.25447 0.30904 0.64185 0.0
C263 C 0.21691 0.30945 0.65054 0.0
C264 C 0.25165 0.28411 0.63029 0.0
C265 C 0.21129 0.25883 0.62719 0.0
C266 C 0.17391 0.25881 0.63595 0.0
C267 C 0.17668 0.2839 0.64751 0.0
H268 H 0.79139 0.76925 0.83877 0.0
H269 H 0.88073 0.6658 0.85619 0.0
H270 H 0.74527 0.77251 0.85847 0.0
H271 H 0.83353 0.66763 0.87573 0.0
H272 H 0.76955 0.71856 0.91348 0.0
H273 H 0.81615 0.71592 0.89381 0.0
H274 H 0.69115 0.72916 0.87084 0.0
H275 H 0.64494 0.73363 0.89048 0.0
C276 C 0.80087 0.74683 0.84677 0.0
C277 C 0.83974 0.71735 0.84595 0.0
C278 C 0.77429 0.74851 0.85805 0.0
C279 C 0.78566 0.72034 0.86871 0.0
C280 C 0.82426 0.69042 0.8678 0.0
C281 C 0.85114 0.68912 0.85657 0.0
C282 C 0.7521 0.72099 0.90422 0.0
C283 C 0.70363 0.72645 0.90352 0.0
C284 C 0.77875 0.71917 0.89294 0.0
C285 C 0.75742 0.72229 0.88072 0.0
C286 C 0.70885 0.72748 0.88007 0.0
C287 C 0.6823 0.72979 0.89134 0.0
H288 H 0.69869 0.83261 0.58917 0.0
H289 H 0.84485 0.79858 0.58624 0.0
H290 H 0.69556 0.7955 0.61032 0.0
H291 H 0.84163 0.76178 0.60749 0.0
H292 H 0.79975 0.65397 0.63855 0.0
H293 H 0.80522 0.69235 0.61762 0.0
H294 H 0.72671 0.80897 0.63248 0.0
H295 H 0.72075 0.77039 0.65346 0.0
C296 C 0.73015 0.81717 0.59302 0.0
C297 C 0.77204 0.81851 0.58602 0.0
C298 C 0.72839 0.79626 0.60518 0.0
C299 C 0.7684 0.77601 0.61057 0.0
C300 C 0.81019 0.77688 0.60352 0.0
C301 C 0.81203 0.79804 0.59138 0.0
C302 C 0.78376 0.68788 0.63739 0.0
C303 C 0.75963 0.70909 0.64765 0.0
C304 C 0.78715 0.70993 0.62542 0.0
C305 C 0.76629 0.75354 0.62343 0.0
C306 C 0.74266 0.77507 0.63372 0.0
C307 C 0.73949 0.75312 0.64574 0.0
H308 H 0.3104 0.20611 0.89357 0.0
H309 H 0.26225 0.34647 0.90066 0.0
H310 H 0.27046 0.20582 0.87285 0.0
H311 H 0.22102 0.34565 0.88006 0.0
H312 H 0.19807 0.34671 0.8363 0.0
H313 H 0.23721 0.34692 0.85721 0.0
H314 H 0.19447 0.20433 0.86345 0.0
H315 H 0.15665 0.20366 0.84241 0.0
C316 C 0.29083 0.23673 0.89078 0.0
C317 C 0.28958 0.27637 0.89875 0.0
C318 C 0.26774 0.23648 0.87891 0.0
C319 C 0.2426 0.27574 0.87478 0.0
C320 C 0.24071 0.31511 0.88286 0.0
C321 C 0.26404 0.31546 0.89471 0.0
C322 C 0.19717 0.31538 0.84212 0.0
C323 C 0.17439 0.27514 0.83769 0.0
C324 C 0.21929 0.31561 0.85415 0.0
C325 C 0.21889 0.27568 0.86202 0.0
C326 C 0.19604 0.23547 0.85756 0.0
C327 C 0.17418 0.23515 0.84551 0.0
H328 H 0.71377 0.77365 0.07688 0.0
H329 H 0.73252 0.64737 0.09898 0.0
H330 H 0.71331 0.81888 0.09685 0.0
H331 H 0.73015 0.6921 0.11891 0.0
H332 H 0.77569 0.78917 0.15106 0.0
H333 H 0.77569 0.74501 0.13098 0.0
H334 H 0.66864 0.83532 0.11568 0.0
H335 H 0.6701 0.88064 0.1356 0.0
C336 C 0.71736 0.75554 0.086 0.0
C337 C 0.72345 0.70704 0.08636 0.0
C338 C 0.71682 0.7814 0.09746 0.0
C339 C 0.72185 0.75917 0.1095 0.0
C340 C 0.72717 0.71051 0.10981 0.0
C341 C 0.72825 0.6848 0.09838 0.0
C342 C 0.75211 0.79953 0.14341 0.0
C343 C 0.72293 0.83838 0.14489 0.0
C344 C 0.7519 0.77406 0.13192 0.0
C345 C 0.72207 0.78651 0.1217 0.0
C346 C 0.69259 0.8252 0.12326 0.0
C347 C 0.6932 0.851 0.13471 0.0
H348 H 0.21597 0.14207 0.40075 0.0
H349 H 0.17056 0.28432 0.39539 0.0
H350 H 0.25501 0.14443 0.37982 0.0
H351 H 0.20827 0.28618 0.37438 0.0
H352 H 0.32171 0.28987 0.3438 0.0
H353 H 0.28407 0.28719 0.36482 0.0
H354 H 0.23715 0.14694 0.35697 0.0
H355 H 0.27611 0.1491 0.33603 0.0
C356 C 0.21429 0.1738 0.39511 0.0
C357 C 0.19026 0.21302 0.39974 0.0
C358 C 0.23633 0.17503 0.38308 0.0
C359 C 0.23463 0.21545 0.37542 0.0
C360 C 0.21081 0.25471 0.38011 0.0
C361 C 0.18902 0.25357 0.39215 0.0
C362 C 0.30322 0.2585 0.34652 0.0
C363 C 0.3019 0.21967 0.33825 0.0
C364 C 0.28147 0.25704 0.35856 0.0
C365 C 0.25763 0.21684 0.36258 0.0
C366 C 0.25585 0.17817 0.35424 0.0
C367 C 0.27785 0.17954 0.3422 0.0
H368 H 0.21753 0.13214 0.2212 0.0
H369 H 0.26416 0.26291 0.20507 0.0
H370 H 0.2246 0.16415 0.24285 0.0
H371 H 0.2708 0.29523 0.22688 0.0
H372 H 0.35313 0.29052 0.26632 0.0
H373 H 0.32697 0.27698 0.2443 0.0
H374 H 0.19694 0.22238 0.25873 0.0
H375 H 0.22341 0.23547 0.2809 0.0
C376 C 0.22858 0.16802 0.22227 0.0
C377 C 0.24098 0.19479 0.21144 0.0
C378 C 0.23215 0.18652 0.23469 0.0
C379 C 0.24842 0.23215 0.23657 0.0
C380 C 0.25853 0.2598 0.22571 0.0
C381 C 0.25463 0.24134 0.21323 0.0
C382 C 0.31862 0.27636 0.26481 0.0
C383 C 0.29063 0.26331 0.27535 0.0
C384 C 0.30345 0.26902 0.25217 0.0
C385 C 0.26005 0.24827 0.24979 0.0
C386 C 0.2308 0.23795 0.2603 0.0
C387 C 0.24588 0.2456 0.27298 0.0
H388 H 0.7309 0.74798 0.45328 0.0
H389 H 0.86667 0.71778 0.46911 0.0
H390 H 0.70019 0.75755 0.47522 0.0
H391 H 0.8362 0.72734 0.49086 0.0
H392 H 0.76896 0.72972 0.52941 0.0
H393 H 0.781 0.69826 0.50769 0.0
H394 H 0.71707 0.82089 0.4913 0.0
H395 H 0.70481 0.85215 0.5129 0.0
C396 C 0.75389 0.74246 0.46143 0.0
C397 C 0.80128 0.73279 0.45951 0.0
C398 C 0.73638 0.74804 0.47396 0.0
C399 C 0.76586 0.74334 0.48473 0.0
C400 C 0.81251 0.7307 0.48277 0.0
C401 C 0.83007 0.72569 0.4703 0.0
C402 C 0.75659 0.74946 0.52118 0.0
C403 C 0.73667 0.79374 0.52283 0.0
C404 C 0.76357 0.73149 0.50876 0.0
C405 C 0.75028 0.75729 0.49782 0.0
C406 C 0.72733 0.80002 0.49954 0.0
C407 C 0.72073 0.81813 0.51192 0.0
H408 H 0.28218 0.37284 0.72131 0.0
H409 H 0.2499 0.23652 0.70596 0.0
H410 H 0.26952 0.34413 0.74313 0.0
H411 H 0.23757 0.20765 0.72793 0.0
H412 H 0.14225 0.21199 0.76491 0.0
H413 H 0.17409 0.22556 0.74347 0.0
H414 H 0.29543 0.28991 0.76046 0.0
H415 H 0.26328 0.27661 0.78204 0.0
C416 C 0.27315 0.3365 0.72261 0.0
C417 C 0.26637 0.3071 0.71191 0.0
C418 C 0.26632 0.31995 0.73514 0.0
C419 C 0.25232 0.27371 0.73723 0.0
C420 C 0.24794 0.24359 0.72657 0.0
C421 C 0.25513 0.26009 0.71401 0.0
C422 C 0.17604 0.22844 0.7641 0.0
C423 C 0.19997 0.24384 0.77515 0.0
C424 C 0.19449 0.2358 0.75181 0.0
C425 C 0.23716 0.25898 0.75029 0.0
C426 C 0.26226 0.2723 0.76136 0.0
C427 C 0.24393 0.26456 0.7737 0.0
H428 H 0.77511 0.74995 0.02922 0.0
H429 H 0.74191 0.60867 0.01816 0.0
H430 H 0.75138 0.77707 0.00773 0.0
H431 H 0.71973 0.63528 -0.00323 0.0
H432 H 0.62033 0.70096 0.96878 0.0
H433 H 0.6527 0.67871 0.98948 0.0
H434 H 0.76648 0.77501 0.98396 0.0
H435 H 0.73322 0.79836 0.96311 0.0
C436 C 0.76367 0.72467 0.02212 0.0
C437 C 0.75955 0.67736 0.0254 0.0
C438 C 0.7502 0.74014 0.00983 0.0
C439 C 0.73276 0.7084 0.00066 0.0
C440 C 0.73173 0.66077 0.00374 0.0
C441 C 0.74464 0.64548 0.01598 0.0
C442 C 0.65223 0.71757 0.97193 0.0
C443 C 0.6744 0.75118 0.96424 0.0
C444 C 0.67098 0.70454 0.98378 0.0
C445 C 0.71261 0.72449 0.98825 0.0
C446 C 0.73434 0.75905 0.98075 0.0
C447 C 0.71537 0.77229 0.96882 0.0
H448 H 0.25978 0.2293 0.03224 0.0
H449 H 0.21155 0.36306 0.01854 0.0
H450 H 0.26773 0.20268 0.00988 0.0
H451 H 0.21988 0.33664 -0.00368 0.0
H452 H 0.21863 0.27117 0.95703 0.0
H453 H 0.19301 0.28139 0.9794 0.0
H454 H 0.32407 0.22617 0.9929 0.0
H455 H 0.34945 0.21561 0.97067 0.0
C456 C 0.25017 0.25273 0.02448 0.0
C457 C 0.23564 0.29847 0.02714 0.0
C458 C 0.25487 0.23754 0.0117 0.0
C459 C 0.24469 0.26767 0.00136 0.0
C460 C 0.22758 0.31245 0.00407 0.0
C461 C 0.22322 0.32772 0.01681 0.0
C462 C 0.2416 0.26048 0.96478 0.0
C463 C 0.28628 0.24316 0.9621 0.0
C464 C 0.22699 0.26646 0.97757 0.0
C465 C 0.25663 0.25479 0.98789 0.0
C466 C 0.30024 0.23506 0.98517 0.0
C467 C 0.31495 0.22942 0.97242 0.0
H468 H 0.61369 0.73411 0.26827 0.0
H469 H 0.75572 0.73765 0.28191 0.0
H470 H 0.6409 0.73953 0.24608 0.0
H471 H 0.7831 0.74335 0.25951 0.0
H472 H 0.78618 0.83865 0.22165 0.0
H473 H 0.77373 0.80998 0.24353 0.0
H474 H 0.68729 0.6993 0.2286 0.0
H475 H 0.69969 0.72802 0.20661 0.0
C476 C 0.65081 0.73544 0.2665 0.0
C477 C 0.68259 0.73603 0.27682 0.0
C478 C 0.6664 0.73803 0.25378 0.0
C479 C 0.7141 0.74182 0.25108 0.0
C480 C 0.74612 0.74055 0.26136 0.0
C481 C 0.73048 0.73724 0.27414 0.0
C482 C 0.76528 0.80763 0.223 0.0
C483 C 0.74325 0.78603 0.21245 0.0
C484 C 0.75851 0.79099 0.23553 0.0
C485 C 0.72925 0.75268 0.23775 0.0
C486 C 0.70972 0.72917 0.22713 0.0
C487 C 0.7169 0.74554 0.21456 0.0
H488 H 0.1364 0.28361 0.47184 0.0
H489 H 0.2687 0.23104 0.45837 0.0
H490 H 0.16207 0.27509 0.49407 0.0
H491 H 0.29474 0.22307 0.48077 0.0
H492 H 0.2743 0.13771 0.5192 0.0
H493 H 0.26886 0.16673 0.49722 0.0
H494 H 0.21595 0.29789 0.51151 0.0
H495 H 0.22085 0.26845 0.53367 0.0
C496 C 0.17136 0.27106 0.47363 0.0
C497 C 0.20024 0.25716 0.46336 0.0
C498 C 0.18625 0.26666 0.48639 0.0
C499 C 0.23031 0.24809 0.48918 0.0
C500 C 0.26039 0.23702 0.4789 0.0
C501 C 0.24554 0.24169 0.46609 0.0
C502 C 0.26216 0.17302 0.5177 0.0
C503 C 0.24719 0.20053 0.52814 0.0
C504 C 0.25955 0.18985 0.50509 0.0
C505 C 0.24172 0.2345 0.50263 0.0
C506 C 0.22941 0.26314 0.51313 0.0
C507 C 0.23232 0.24635 0.5258 0.0
H508 H 0.71202 0.59096 0.72657 0.0
H509 H 0.76702 0.71394 0.70795 0.0
H510 H 0.72213 0.6276 0.74755 0.0
H511 H 0.77613 0.75116 0.72902 0.0
H512 H 0.85864 0.75579 0.76789 0.0
H513 H 0.8306 0.73686 0.74641 0.0
H514 H 0.7007 0.68882 0.76266 0.0
H515 H 0.72933 0.70688 0.78433 0.0
C516 C 0.72546 0.62619 0.72693 0.0
C517 C 0.7395 0.64923 0.71561 0.0
C518 C 0.73083 0.64741 0.73898 0.0
C519 C 0.75027 0.69219 0.73997 0.0
C520 C 0.7617 0.71634 0.72858 0.0
C521 C 0.75638 0.69506 0.71651 0.0
C522 C 0.82378 0.74188 0.7669 0.0
C523 C 0.79651 0.73207 0.77784 0.0
C524 C 0.80751 0.7314 0.75454 0.0
C525 C 0.76355 0.71093 0.75283 0.0
C526 C 0.73502 0.70392 0.7637 0.0
C527 C 0.75133 0.71447 0.7761 0.0
H528 H 0.13501 0.9835 0.17425 0.0
H529 H 0.06738 0.10916 0.18752 0.0
H530 H 0.06008 0.94371 0.17384 0.0
H531 H 0.99291 0.06908 0.18759 0.0
H532 H 0.92849 0.87337 0.18886 0.0
H533 H 0.00293 0.91346 0.18821 0.0
H534 H 0.93472 0.03724 0.17382 0.0
H535 H 0.85987 -0.0025 0.17494 0.0
C536 C 0.10418 0.00253 0.17714 0.0
C537 C 0.10709 0.04943 0.18092 0.0
C538 C 0.06125 0.97969 0.17698 0.0
C539 C 0.0204 0.00316 0.1807 0.0
C540 C 0.02347 0.05013 0.18445 0.0
C541 C 0.06627 0.07305 0.18449 0.0
C542 C 0.92937 0.90914 0.18555 0.0
C543 C 0.8883 0.93234 0.18199 0.0
C544 C 0.97214 0.93205 0.18509 0.0
C545 C 0.97491 0.97858 0.18094 0.0
C546 C 0.93379 0.00163 0.17725 0.0
C547 C 0.8909 0.97882 0.17783 0.0
H548 H 0.99593 0.3602 0.42219 0.0
H549 H 0.11759 0.42918 0.43754 0.0
H550 H 0.95657 0.43519 0.42041 0.0
H551 H 0.07782 0.50369 0.43628 0.0
H552 H 0.01082 0.63607 0.4218 0.0
H553 H 0.05019 0.56084 0.42164 0.0
H554 H 0.92254 0.49373 0.43355 0.0
H555 H 0.88295 0.56849 0.4332 0.0
C556 C 0.01412 0.39134 0.42526 0.0
C557 C 0.05981 0.38882 0.43 0.0
C558 C 0.99153 0.43431 0.4243 0.0
C559 C 0.014 0.47557 0.4282 0.0
C560 C 0.05973 0.47283 0.43295 0.0
C561 C 0.08244 0.43 0.43377 0.0
C562 C 0.9912 0.60517 0.42433 0.0
C563 C 0.94385 0.60819 0.42753 0.0
C564 C 0.01378 0.56207 0.42431 0.0
C565 C 0.9896 0.52116 0.42763 0.0
C566 C 0.9421 0.52431 0.43074 0.0
C567 C 0.91945 0.56728 0.43062 0.0
H568 H 0.37195 0.5091 0.67034 0.0
H569 H 0.44169 0.38716 0.68528 0.0
H570 H 0.44657 0.54894 0.66855 0.0
H571 H 0.51593 0.42741 0.68396 0.0
H572 H 0.64753 0.4968 0.6696 0.0
H573 H 0.57281 0.45655 0.66931 0.0
H574 H 0.50458 0.58276 0.68201 0.0
H575 H 0.5788 0.62323 0.68184 0.0
C576 C 0.40319 0.4909 0.6733 0.0
C577 C 0.40093 0.44504 0.67797 0.0
C578 C 0.44595 0.51378 0.67234 0.0
C579 C 0.48733 0.49144 0.67614 0.0
C580 C 0.48494 0.44544 0.68074 0.0
C581 C 0.44228 0.42245 0.68159 0.0
C582 C 0.6165 0.51593 0.67226 0.0
C583 C 0.61906 0.56315 0.67575 0.0
C584 C 0.57369 0.49283 0.67217 0.0
C585 C 0.53262 0.51636 0.67566 0.0
C586 C 0.53531 0.56371 0.67905 0.0
C587 C 0.57799 0.58687 0.67904 0.0
H588 H 0.48335 0.12792 0.91876 0.0
H589 H 0.37969 0.06362 0.94315 0.0
H590 H 0.5236 0.05345 0.91687 0.0
H591 H 0.42076 0.98981 0.94173 0.0
H592 H 0.47817 0.85342 0.92679 0.0
H593 H 0.4375 0.92783 0.92748 0.0
H594 H 0.56953 -8e-05 0.92863 0.0
H595 H 0.60999 0.92566 0.92739 0.0
C596 C 0.46942 0.09797 0.92381 0.0
C597 C 0.42831 0.10159 0.93108 0.0
C598 C 0.49259 0.05529 0.92278 0.0
C599 C 0.47543 0.01545 0.92912 0.0
C600 C 0.43452 0.01941 0.9365 0.0
C601 C 0.41111 0.06188 0.93739 0.0
C602 C 0.49844 0.8852 0.92714 0.0
C603 C 0.54726 0.88367 0.92703 0.0
C604 C 0.47516 0.9279 0.92762 0.0
C605 C 0.50018 0.97003 0.92817 0.0
C606 C 0.54906 0.96834 0.928 0.0
C607 C 0.57231 0.92568 0.92737 0.0
H608 H 0.06527 0.37587 0.07165 0.0
H609 H 0.1302 0.50417 0.05934 0.0
H610 H 0.99042 0.41524 0.07286 0.0
H611 H 0.05499 0.5433 0.06021 0.0
H612 H 0.92091 0.60979 0.07434 0.0
H613 H 0.99588 0.57038 0.07497 0.0
H614 H 0.93307 0.44725 0.05841 0.0
H615 H 0.85782 0.48624 0.05809 0.0
C616 C 0.06357 0.41249 0.06919 0.0
C617 C 0.10365 0.43688 0.06536 0.0
C618 C 0.02058 0.43499 0.06981 0.0
C619 C 0.01663 0.48234 0.06656 0.0
C620 C 0.0569 0.50692 0.06293 0.0
C621 C 0.09998 0.48445 0.06236 0.0
C622 C 0.92303 0.57422 0.07089 0.0
C623 C 0.88342 0.55115 0.06614 0.0
C624 C 0.96609 0.55174 0.07118 0.0
C625 C 0.97055 0.50574 0.06669 0.0
C626 C 0.93076 0.48249 0.0621 0.0
C627 C 0.88764 0.50491 0.06185 0.0
H628 H 0.47921 0.64984 0.31615 0.0
H629 H 0.60878 0.58009 0.30757 0.0
H630 H 0.43915 0.57493 0.31616 0.0
H631 H 0.56867 0.50569 0.30704 0.0
H632 H 0.49219 0.37366 0.3176 0.0
H633 H 0.5313 0.4486 0.31979 0.0
H634 H 0.41426 0.51653 0.30152 0.0
H635 H 0.37456 0.44201 0.29984 0.0
C636 C 0.49907 0.61853 0.31423 0.0
C637 C 0.5471 0.62085 0.31185 0.0
C638 C 0.47611 0.5756 0.31415 0.0
C639 C 0.50062 0.53418 0.31155 0.0
C640 C 0.54877 0.53667 0.3093 0.0
C641 C 0.57176 0.57945 0.30952 0.0
C642 C 0.47485 0.40466 0.31409 0.0
C643 C 0.43037 0.40196 0.30854 0.0
C644 C 0.49732 0.44762 0.31529 0.0
C645 C 0.476 0.4887 0.31081 0.0
C646 C 0.43141 0.48582 0.30528 0.0
C647 C 0.40876 0.443 0.30423 0.0
H648 H 0.55584 0.88331 0.5458 0.0
H649 H 0.62483 0.00466 0.56142 0.0
H650 H 0.48118 0.92257 0.54765 0.0
H651 H 0.54987 0.04342 0.56376 0.0
H652 H 0.41555 0.11723 0.55263 0.0
H653 H 0.49013 0.07789 0.5512 0.0
H654 H 0.4251 0.94882 0.56291 0.0
H655 H 0.34987 0.98805 0.56385 0.0
C656 C 0.55501 0.9183 0.54972 0.0
C657 C 0.59622 0.94097 0.55342 0.0
C658 C 0.51212 0.94069 0.55088 0.0
C659 C 0.5094 0.98614 0.55589 0.0
C660 C 0.55071 0.0087 0.55967 0.0
C661 C 0.59368 0.98644 0.55838 0.0
C662 C 0.41713 0.08047 0.55494 0.0
C663 C 0.37679 0.0557 0.55833 0.0
C664 C 0.46003 0.05794 0.5542 0.0
C665 C 0.46375 0.01016 0.55696 0.0
C666 C 0.4234 0.9855 0.56052 0.0
C667 C 0.38032 0.00799 0.56113 0.0
H668 H 0.1314 0.06004 0.79642 0.0
H669 H -0.00266 0.10997 0.8093 0.0
H670 H 0.10141 0.98072 0.79585 0.0
H671 H 0.96734 0.03019 0.80872 0.0
H672 H 0.95068 0.87525 0.82 0.0
H673 H 0.9814 0.95444 0.82072 0.0
H674 H 0.0426 0.93511 0.78298 0.0
H675 H 0.01188 0.85582 0.7822 0.0
C676 C 0.0955 0.05411 0.79913 0.0
C677 C 0.06672 0.0913 0.80292 0.0
C678 C 0.07832 0.00867 0.79874 0.0
C679 C 0.0321 -0.00067 0.80224 0.0
C680 C 0.00326 0.03642 0.80608 0.0
C681 C 0.02034 0.08205 0.80634 0.0
C682 C 0.97096 0.88773 0.81188 0.0
C683 C 0.97888 0.85923 0.80104 0.0
C684 C 0.98819 0.93321 0.81227 0.0
C685 C 0.01414 0.95095 0.80188 0.0
C686 C 0.02289 0.9222 0.79115 0.0
C687 C 0.00523 0.87686 0.7907 0.0
H688 H 0.56606 0.86457 0.18742 0.0
H689 H 0.63393 -0.00136 0.18497 0.0
H690 H 0.49072 0.90302 0.1887 0.0
H691 H 0.55831 0.03709 0.18602 0.0
H692 H 0.41976 0.09029 0.2018 0.0
H693 H 0.49471 0.05085 0.2012 0.0
H694 H 0.43813 0.94801 0.17505 0.0
H695 H 0.36278 0.98701 0.17581 0.0
C696 C 0.56492 0.90227 0.18712 0.0
C697 C 0.60602 0.92856 0.18609 0.0
C698 C 0.52168 0.92428 0.18778 0.0
C699 C 0.5185 0.97309 0.18744 0.0
C700 C 0.55963 -0.00058 0.18647 0.0
C701 C 0.60293 0.97739 0.1858 0.0
C702 C 0.42319 0.05916 0.19596 0.0
C703 C 0.38528 0.0418 0.18884 0.0
C704 C 0.46628 0.03674 0.19555 0.0
C705 C 0.47245 0.99643 0.18804 0.0
C706 C 0.43438 0.97874 0.18104 0.0
C707 C 0.39125 0.00119 0.18143 0.0
H708 H 0.88813 0.92451 0.44514 0.0
H709 H 0.01322 0.86235 0.42962 0.0
H710 H 0.92652 0.00013 0.44579 0.0
H711 H 0.05158 0.93834 0.43026 0.0
H712 H 0.11678 0.07203 0.4473 0.0
H713 H 0.07874 0.99614 0.44694 0.0
H714 H 0.95679 0.05831 0.42974 0.0
H715 H 0.99475 0.13446 0.4301 0.0
C716 C 0.92387 0.92692 0.4419 0.0
C717 C 0.94765 0.8874 0.43732 0.0
C718 C 0.94571 0.97033 0.44219 0.0
C719 C 0.99194 0.97512 0.43804 0.0
C720 C 0.01599 0.93555 0.43361 0.0
C721 C 0.99398 0.89213 0.4332 0.0
C722 C 0.0818 0.06961 0.44347 0.0
C723 C 0.05874 0.10929 0.43874 0.0
C724 C 0.06018 0.02606 0.44319 0.0
C725 C 0.01489 0.02133 0.43829 0.0
C726 C 0.99162 0.06104 0.43367 0.0
C727 C 0.01341 0.10457 0.43383 0.0
H728 H 0.08812 0.41029 0.7006 0.0
H729 H 0.14552 0.50776 0.67305 0.0
H730 H 0.01282 0.44867 0.69897 0.0
H731 H 0.06984 0.54574 0.67129 0.0
H732 H 0.94037 0.63049 0.68196 0.0
H733 H 0.01603 0.59321 0.68412 0.0
H734 H 0.95006 0.45804 0.68309 0.0
H735 H 0.87408 0.49537 0.68112 0.0
C736 C 0.08473 0.43996 0.6942 0.0
C737 C 0.12285 0.45596 0.68694 0.0
C738 C 0.04144 0.46173 0.69321 0.0
C739 C 0.0353 0.50008 0.68496 0.0
C740 C 0.07358 0.51652 0.67783 0.0
C741 C 0.1169 0.49466 0.6788 0.0
C742 C 0.94192 0.5928 0.6822 0.0
C743 C 0.90117 0.56587 0.68137 0.0
C744 C 0.98536 0.57146 0.68337 0.0
C745 C 0.98906 0.5227 0.68376 0.0
C746 C 0.9483 0.49573 0.68297 0.0
C747 C 0.9048 0.51709 0.68177 0.0
H748 H 0.48474 0.35615 0.92172 0.0
H749 H 0.38283 0.4185 0.94712 0.0
H750 H 0.52368 0.43136 0.91966 0.0
H751 H 0.42213 0.49328 0.94522 0.0
H752 H 0.47677 0.62999 0.92847 0.0
H753 H 0.43693 0.55487 0.92935 0.0
H754 H 0.56939 0.48496 0.93291 0.0
H755 H 0.60915 0.55964 0.93182 0.0
C756 C 0.47077 0.3858 0.92691 0.0
C757 C 0.43072 0.38129 0.93459 0.0
C758 C 0.49315 0.42886 0.92576 0.0
C759 C 0.47591 0.46833 0.93225 0.0
C760 C 0.43589 0.46374 0.93994 0.0
C761 C 0.41359 0.42073 0.94111 0.0
C762 C 0.49736 0.59856 0.92937 0.0
C763 C 0.54611 0.60082 0.9301 0.0
C764 C 0.47454 0.55556 0.92995 0.0
C765 C 0.50002 0.51395 0.93122 0.0
C766 C 0.54877 0.51628 0.93177 0.0
C767 C 0.57154 0.55918 0.93123 0.0
H768 H 0.6298 0.48304 0.05995 0.0
H769 H 0.56393 0.61628 0.05334 0.0
H770 H 0.55384 0.44496 0.05881 0.0
H771 H 0.48846 0.57821 0.05206 0.0
H772 H 0.35718 0.49928 0.06461 0.0
H773 H 0.43311 0.53691 0.06618 0.0
H774 H 0.49307 0.42864 0.04243 0.0
H775 H 0.41743 0.39073 0.04096 0.0
C776 C 0.59918 0.50417 0.05826 0.0
C777 C 0.60291 0.55266 0.05673 0.0
C778 C 0.55574 0.48235 0.05754 0.0
C779 C 0.51519 0.50863 0.05535 0.0
C780 C 0.51898 0.5571 0.05391 0.0
C781 C 0.56232 0.57885 0.05457 0.0
C782 C 0.38652 0.48358 0.0597 0.0
C783 C 0.38123 0.44205 0.05265 0.0
C784 C 0.42998 0.5052 0.06057 0.0
C785 C 0.46908 0.48564 0.05446 0.0
C786 C 0.46373 0.44421 0.04738 0.0
C787 C 0.42027 0.42272 0.04646 0.0
H788 H 0.49787 0.14793 0.31008 0.0
H789 H 0.38296 0.08571 0.28936 0.0
H790 H 0.53628 0.07207 0.31103 0.0
H791 H 0.42148 0.01021 0.29027 0.0
H792 H 0.4807 0.87539 0.30807 0.0
H793 H 0.44266 0.95143 0.30707 0.0
H794 H 0.57277 0.01492 0.2959 0.0
H795 H 0.61088 0.93922 0.29696 0.0
C796 C 0.48092 0.11817 0.30569 0.0
C797 C 0.43738 0.12285 0.29965 0.0
C798 C 0.50297 0.0748 0.30619 0.0
C799 C 0.48176 0.03522 0.30076 0.0
C800 C 0.43837 0.03998 0.29468 0.0
C801 C 0.4165 0.08334 0.29408 0.0
C802 C 0.50116 0.90557 0.3054 0.0
C803 C 0.54878 0.90126 0.30259 0.0
C804 C 0.47935 0.94904 0.30477 0.0
C805 C 0.5048 0.98908 0.30142 0.0
C806 C 0.5524 0.98476 0.29865 0.0
C807 C 0.57412 0.94131 0.29917 0.0
H808 H 0.84969 0.00838 0.55478 0.0
H809 H 0.91515 0.88669 0.53818 0.0
H810 H 0.92544 0.04677 0.55604 0.0
H811 H 0.9906 0.92515 0.53942 0.0
H812 H 0.12159 0.9902 0.55802 0.0
H813 H 0.04572 0.95199 0.55668 0.0
H814 H 0.986 0.07777 0.54093 0.0
H815 H 0.0615 0.11601 0.54228 0.0
C816 C 0.88015 0.98991 0.55136 0.0
C817 C 0.87638 0.94451 0.54637 0.0
C818 C 0.92347 0.01194 0.55204 0.0
C819 C 0.96392 0.98885 0.54787 0.0
C820 C 0.9601 0.94356 0.54285 0.0
C821 C 0.9168 0.92171 0.54206 0.0
C822 C 0.09227 0.00966 0.55426 0.0
C823 C 0.09758 0.0561 0.55025 0.0
C824 C 0.04892 0.98773 0.55345 0.0
C825 C 0.00996 0.01196 0.54871 0.0
C826 C 0.01529 0.0584 0.54474 0.0
C827 C 0.05864 0.08017 0.54545 0.0
H828 H 0.86726 0.55684 0.80451 0.0
H829 H 0.00294 0.62138 0.80629 0.0
H830 H 0.90364 0.48067 0.80222 0.0
H831 H 0.03935 0.54494 0.80422 0.0
H832 H 0.08716 0.40904 0.78578 0.0
H833 H 0.04907 0.48425 0.78795 0.0
H834 H 0.9496 0.42403 0.81441 0.0
H835 H 0.98738 0.34824 0.81207 0.0
C836 C 0.90488 0.55478 0.80448 0.0
C837 C 0.93222 0.59524 0.80555 0.0
C838 C 0.92571 0.51103 0.80324 0.0
C839 C 0.97437 0.5067 0.80302 0.0
C840 C 0.00174 0.54715 0.80418 0.0
C841 C 0.98089 0.59094 0.80544 0.0
C842 C 0.05701 0.41166 0.79202 0.0
C843 C 0.04036 0.37258 0.79877 0.0
C844 C 0.0354 0.45494 0.79334 0.0
C845 C -0.00345 0.46027 0.80144 0.0
C846 C 0.97928 0.42101 0.80801 0.0
C847 C 0.00098 0.37761 0.8067 0.0
loop_
_geom_bond_atom_site_label_1
_geom_bond_atom_site_label_2
_geom_bond_distance
_geom_bond_site_symmetry_2
_ccdc_geom_bond_type
C0 O1 1.160 . S
C0 O7 1.185 . S
O1 C0 1.160 . S
O2 Zn3 1.899 . S
O2 C10 1.284 . S
Zn3 O2 1.899 . S
Zn3 O4 2.032 . S
Zn3 O7 2.086 . S
Zn3 O12 1.977 . S
O4 Zn3 2.032 . S
O4 C8 1.278 . S
C5 O6 1.203 . S
C5 O12 1.267 . S
O6 C5 1.203 . S
O7 C0 1.185 . S
O7 Zn3 2.086 . S
C8 O4 1.278 . S
C8 O9 1.211 . S
O9 C8 1.211 . S
C10 O2 1.284 . S
C10 O11 1.273 . S
O11 C10 1.273 . S
O12 Zn3 1.977 . S
O12 C5 1.267 . S
C13 O14 1.160 . S
C13 O20 1.185 . S
O14 C13 1.160 . S
O15 Zn16 1.899 . S
O15 C23 1.284 . S
Zn16 O15 1.899 . S
Zn16 O17 2.032 . S
Zn16 O20 2.086 . S
Zn16 O25 1.977 . S
O17 Zn16 2.032 . S
O17 C21 1.278 . S
C18 O19 1.203 . S
C18 O25 1.267 . S
O19 C18 1.203 . S
O20 C13 1.185 . S
O20 Zn16 2.086 . S
C21 O17 1.278 . S
C21 O22 1.211 . S
O22 C21 1.211 . S
C23 O15 1.284 . S
C23 O24 1.273 . S
O24 C23 1.273 . S
O25 Zn16 1.977 . S
O25 C18 1.267 . S
C26 O27 1.160 . S
C26 O33 1.185 . S
O27 C26 1.160 . S
O28 Zn29 1.899 . S
O28 C36 1.284 . S
Zn29 O28 1.899 . S
Zn29 O30 2.032 . S
Zn29 O33 2.086 . S
Zn29 O38 1.977 . S
O30 Zn29 2.032 . S
O30 C34 1.278 . S
C31 O32 1.203 . S
C31 O38 1.267 . S
O32 C31 1.203 . S
O33 C26 1.185 . S
O33 Zn29 2.086 . S
C34 O30 1.278 . S
C34 O35 1.211 . S
O35 C34 1.211 . S
C36 O28 1.284 . S
C36 O37 1.273 . S
O37 C36 1.273 . S
O38 Zn29 1.977 . S
O38 C31 1.267 . S
C39 O40 1.160 . S
C39 O46 1.185 . S
O40 C39 1.160 . S
O41 Zn42 1.899 . S
O41 C49 1.284 . S
Zn42 O41 1.899 . S
Zn42 O43 2.032 . S
Zn42 O46 2.086 . S
Zn42 O51 1.977 . S
O43 Zn42 2.032 . S
O43 C47 1.278 . S
C44 O45 1.203 . S
C44 O51 1.267 . S
O45 C44 1.203 . S
O46 C39 1.185 . S
O46 Zn42 2.086 . S
C47 O43 1.278 . S
C47 O48 1.211 . S
O48 C47 1.211 . S
C49 O41 1.284 . S
C49 O50 1.273 . S
O50 C49 1.273 . S
O51 Zn42 1.977 . S
O51 C44 1.267 . S
C52 O53 1.160 . S
C52 O59 1.185 . S
O53 C52 1.160 . S
O54 Zn55 1.899 . S
O54 C62 1.284 . S
Zn55 O54 1.899 . S
Zn55 O56 2.032 . S
Zn55 O59 2.086 . S
Zn55 O64 1.977 . S
O56 Zn55 2.032 . S
O56 C60 1.278 . S
C57 O58 1.203 . S
C57 O64 1.267 . S
O58 C57 1.203 . S
O59 C52 1.185 . S
O59 Zn55 2.086 . S
C60 O56 1.278 . S
C60 O61 1.211 . S
O61 C60 1.211 . S
C62 O54 1.284 . S
C62 O63 1.273 . S
O63 C62 1.273 . S
O64 Zn55 1.977 . S
O64 C57 1.267 . S
C65 O66 1.160 . S
C65 O72 1.185 . S
O66 C65 1.160 . S
O67 Zn68 1.899 . S
O67 C75 1.284 . S
Zn68 O67 1.899 . S
Zn68 O69 2.032 . S
Zn68 O72 2.086 . S
Zn68 O77 1.977 . S
O69 Zn68 2.032 . S
O69 C73 1.278 . S
C70 O71 1.203 . S
C70 O77 1.267 . S
O71 C70 1.203 . S
O72 C65 1.185 . S
O72 Zn68 2.086 . S
C73 O69 1.278 . S
C73 O74 1.211 . S
O74 C73 1.211 . S
C75 O67 1.284 . S
C75 O76 1.273 . S
O76 C75 1.273 . S
O77 Zn68 1.977 . S
O77 C70 1.267 . S
C78 O79 1.160 . S
C78 O85 1.185 . S
O79 C78 1.160 . S
O80 Zn81 1.899 . S
O80 C88 1.284 . S
Zn81 O80 1.899 . S
Zn81 O82 2.032 . S
Zn81 O85 2.086 . S
Zn81 O90 1.977 . S
O82 Zn81 2.032 . S
O82 C86 1.278 . S
C83 O84 1.203 . S
C83 O90 1.267 . S
O84 C83 1.203 . S
O85 C78 1.185 . S
O85 Zn81 2.086 . S
C86 O82 1.278 . S
C86 O87 1.211 . S
O87 C86 1.211 . S
C88 O80 1.284 . S
C88 O89 1.273 . S
O89 C88 1.273 . S
O90 Zn81 1.977 . S
O90 C83 1.267 . S
C91 O92 1.160 . S
C91 O98 1.185 . S
O92 C91 1.160 . S
O93 Zn94 1.899 . S
O93 C101 1.284 . S
Zn94 O93 1.899 . S
Zn94 O95 2.032 . S
Zn94 O98 2.086 . S
Zn94 O103 1.977 . S
O95 Zn94 2.032 . S
O95 C99 1.278 . S
C96 O97 1.203 . S
C96 O103 1.267 . S
O97 C96 1.203 . S
O98 C91 1.185 . S
O98 Zn94 2.086 . S
C99 O95 1.278 . S
C99 O100 1.211 . S
O100 C99 1.211 . S
C101 O93 1.284 . S
C101 O102 1.273 . S
O102 C101 1.273 . S
O103 Zn94 1.977 . S
O103 C96 1.267 . S
C104 O105 1.160 . S
C104 O111 1.185 . S
O105 C104 1.160 . S
O106 Zn107 1.899 . S
O106 C114 1.284 . S
Zn107 O106 1.899 . S
Zn107 O108 2.032 . S
Zn107 O111 2.086 . S
Zn107 O116 1.977 . S
O108 Zn107 2.032 . S
O108 C112 1.278 . S
C109 O110 1.203 . S
C109 O116 1.267 . S
O110 C109 1.203 . S
O111 C104 1.185 . S
O111 Zn107 2.086 . S
C112 O108 1.278 . S
C112 O113 1.211 . S
O113 C112 1.211 . S
C114 O106 1.284 . S
C114 O115 1.273 . S
O115 C114 1.273 . S
O116 Zn107 1.977 . S
O116 C109 1.267 . S
C117 O118 1.160 . S
C117 O124 1.185 . S
O118 C117 1.160 . S
O119 Zn120 1.899 . S
O119 C127 1.284 . S
Zn120 O119 1.899 . S
Zn120 O121 2.032 . S
Zn120 O124 2.086 . S
Zn120 O129 1.977 . S
O121 Zn120 2.032 . S
O121 C125 1.278 . S
C122 O123 1.203 . S
C122 O129 1.267 . S
O123 C122 1.203 . S
O124 C117 1.185 . S
O124 Zn120 2.086 . S
C125 O121 1.278 . S
C125 O126 1.211 . S
O126 C125 1.211 . S
C127 O119 1.284 . S
C127 O128 1.273 . S
O128 C127 1.273 . S
O129 Zn120 1.977 . S
O129 C122 1.267 . S
C130 O131 1.160 . S
C130 O137 1.185 . S
O131 C130 1.160 . S
O132 Zn133 1.899 . S
O132 C140 1.284 . S
Zn133 O132 1.899 . S
Zn133 O134 2.032 . S
Zn133 O137 2.086 . S
Zn133 O142 1.977 . S
O134 Zn133 2.032 . S
O134 C138 1.278 . S
C135 O136 1.203 . S
C135 O142 1.267 . S
O136 C135 1.203 . S
O137 C130 1.185 . S
O137 Zn133 2.086 . S
C138 O134 1.278 . S
C138 O139 1.211 . S
O139 C138 1.211 . S
C140 O132 1.284 . S
C140 O141 1.273 . S
O141 C140 1.273 . S
O142 Zn133 1.977 . S
O142 C135 1.267 . S
C143 O144 1.160 . S
C143 O150 1.185 . S
O144 C143 1.160 . S
O145 Zn146 1.899 . S
O145 C153 1.284 . S
Zn146 O145 1.899 . S
Zn146 O147 2.032 . S
Zn146 O150 2.086 . S
Zn146 O155 1.977 . S
O147 Zn146 2.032 . S
O147 C151 1.278 . S
C148 O149 1.203 . S
C148 O155 1.267 . S
O149 C148 1.203 . S
O150 C143 1.185 . S
O150 Zn146 2.086 . S
C151 O147 1.278 . S
C151 O152 1.211 . S
O152 C151 1.211 . S
C153 O145 1.284 . S
C153 O154 1.273 . S
O154 C153 1.273 . S
O155 Zn146 1.977 . S
O155 C148 1.267 . S
C156 O157 1.160 . S
C156 O163 1.185 . S
O157 C156 1.160 . S
O158 Zn159 1.899 . S
O158 C166 1.284 . S
Zn159 O158 1.899 . S
Zn159 O160 2.032 . S
Zn159 O163 2.086 . S
Zn159 O168 1.977 . S
O160 Zn159 2.032 . S
O160 C164 1.278 . S
C161 O162 1.203 . S
C161 O168 1.267 . S
O162 C161 1.203 . S
O163 C156 1.185 . S
O163 Zn159 2.086 . S
C164 O160 1.278 . S
C164 O165 1.211 . S
O165 C164 1.211 . S
C166 O158 1.284 . S
C166 O167 1.273 . S
O167 C166 1.273 . S
O168 Zn159 1.977 . S
O168 C161 1.267 . S
C169 O170 1.160 . S
C169 O176 1.185 . S
O170 C169 1.160 . S
O171 Zn172 1.899 . S
O171 C179 1.284 . S
Zn172 O171 1.899 . S
Zn172 O173 2.032 . S
Zn172 O176 2.086 . S
Zn172 O181 1.977 . S
O173 Zn172 2.032 . S
O173 C177 1.278 . S
C174 O175 1.203 . S
C174 O181 1.267 . S
O175 C174 1.203 . S
O176 C169 1.185 . S
O176 Zn172 2.086 . S
C177 O173 1.278 . S
C177 O178 1.211 . S
O178 C177 1.211 . S
C179 O171 1.284 . S
C179 O180 1.273 . S
O180 C179 1.273 . S
O181 Zn172 1.977 . S
O181 C174 1.267 . S
C182 O183 1.160 . S
C182 O189 1.185 . S
O183 C182 1.160 . S
O184 Zn185 1.899 . S
O184 C192 1.284 . S
Zn185 O184 1.899 . S
Zn185 O186 2.032 . S
Zn185 O189 2.086 . S
Zn185 O194 1.977 . S
O186 Zn185 2.032 . S
O186 C190 1.278 . S
C187 O188 1.203 . S
C187 O194 1.267 . S
O188 C187 1.203 . S
O189 C182 1.185 . S
O189 Zn185 2.086 . S
C190 O186 1.278 . S
C190 O191 1.211 . S
O191 C190 1.211 . S
C192 O184 1.284 . S
C192 O193 1.273 . S
O193 C192 1.273 . S
O194 Zn185 1.977 . S
O194 C187 1.267 . S
C195 O196 1.160 . S
C195 O202 1.185 . S
O196 C195 1.160 . S
O197 Zn198 1.899 . S
O197 C205 1.284 . S
Zn198 O197 1.899 . S
Zn198 O199 2.032 . S
Zn198 O202 2.086 . S
Zn198 O207 1.977 . S
O199 Zn198 2.032 . S
O199 C203 1.278 . S
C200 O201 1.203 . S
C200 O207 1.267 . S
O201 C200 1.203 . S
O202 C195 1.185 . S
O202 Zn198 2.086 . S
C203 O199 1.278 . S
C203 O204 1.211 . S
O204 C203 1.211 . S
C205 O197 1.284 . S
C205 O206 1.273 . S
O206 C205 1.273 . S
O207 Zn198 1.977 . S
O207 C200 1.267 . S
H208 C216 0.950 . S
H209 C221 0.950 . S
H210 C218 0.950 . S
H211 C220 0.950 . S
H212 C222 0.950 . S
H213 C224 0.950 . S
H214 C226 0.950 . S
H215 C227 0.950 . S
C216 H208 0.950 . S
C216 C217 1.386 . S
C216 C218 1.391 . S
C217 C216 1.386 . S
C217 C221 1.393 . S
C218 H210 0.950 . S
C218 C216 1.391 . S
C218 C219 1.400 . S
C219 C218 1.400 . S
C219 C220 1.398 . S
C219 C225 1.491 . S
C220 H211 0.950 . S
C220 C219 1.398 . S
C220 C221 1.391 . S
C221 H209 0.950 . S
C221 C217 1.393 . S
C221 C220 1.391 . S
C222 H212 0.950 . S
C222 C223 1.386 . S
C222 C224 1.391 . S
C223 C222 1.386 . S
C223 C227 1.393 . S
C224 H213 0.950 . S
C224 C222 1.391 . S
C224 C225 1.400 . S
C225 C219 1.491 . S
C225 C224 1.400 . S
C225 C226 1.398 . S
C226 H214 0.950 . S
C226 C225 1.398 . S
C226 C227 1.391 . S
C227 H215 0.950 . S
C227 C223 1.393 . S
C227 C226 1.391 . S
H228 C236 0.950 . S
H229 C241 0.950 . S
H230 C238 0.950 . S
H231 C240 0.950 . S
H232 C242 0.950 . S
H233 C244 0.950 . S
H234 C246 0.950 . S
H235 C247 0.950 . S
C236 H228 0.950 . S
C236 C237 1.386 . S
C236 C238 1.391 . S
C237 C236 1.386 . S
C237 C241 1.393 . S
C238 H230 0.950 . S
C238 C236 1.391 . S
C238 C239 1.400 . S
C239 C238 1.400 . S
C239 C240 1.398 . S
C239 C245 1.491 . S
C240 H231 0.950 . S
C240 C239 1.398 . S
C240 C241 1.391 . S
C241 H229 0.950 . S
C241 C237 1.393 . S
C241 C240 1.391 . S
C242 H232 0.950 . S
C242 C243 1.386 . S
C242 C244 1.391 . S
C243 C242 1.386 . S
C243 C247 1.393 . S
C244 H233 0.950 . S
C244 C242 1.391 . S
C244 C245 1.400 . S
C245 C239 1.491 . S
C245 C244 1.400 . S
C245 C246 1.398 . S
C246 H234 0.950 . S
C246 C245 1.398 . S
C246 C247 1.391 . S
C247 H235 0.950 . S
C247 C243 1.393 . S
C247 C246 1.391 . S
H248 C256 0.950 . S
H249 C261 0.950 . S
H250 C258 0.950 . S
H251 C260 0.950 . S
H252 C262 0.950 . S
H253 C264 0.950 . S
H254 C266 0.950 . S
H255 C267 0.950 . S
C256 H248 0.950 . S
C256 C257 1.386 . S
C256 C258 1.391 . S
C257 C256 1.386 . S
C257 C261 1.393 . S
C258 H250 0.950 . S
C258 C256 1.391 . S
C258 C259 1.400 . S
C259 C258 1.400 . S
C259 C260 1.398 . S
C259 C265 1.491 . S
C260 H251 0.950 . S
C260 C259 1.398 . S
C260 C261 1.391 . S
C261 H249 0.950 . S
C261 C257 1.393 . S
C261 C260 1.391 . S
C262 H252 0.950 . S
C262 C263 1.386 . S
C262 C264 1.391 . S
C263 C262 1.386 . S
C263 C267 1.393 . S
C264 H253 0.950 . S
C264 C262 1.391 . S
C264 C265 1.400 . S
C265 C259 1.491 . S
C265 C264 1.400 . S
C265 C266 1.398 . S
C266 H254 0.950 . S
C266 C265 1.398 . S
C266 C267 1.391 . S
C267 H255 0.950 . S
C267 C263 1.393 . S
C267 C266 1.391 . S
H268 C276 0.950 . S
H269 C281 0.950 . S
H270 C278 0.950 . S
H271 C280 0.950 . S
H272 C282 0.950 . S
H273 C284 0.950 . S
H274 C286 0.950 . S
H275 C287 0.950 . S
C276 H268 0.950 . S
C276 C277 1.386 . S
C276 C278 1.391 . S
C277 C276 1.386 . S
C277 C281 1.393 . S
C278 H270 0.950 . S
C278 C276 1.391 . S
C278 C279 1.400 . S
C279 C278 1.400 . S
C279 C280 1.398 . S
C279 C285 1.491 . S
C280 H271 0.950 . S
C280 C279 1.398 . S
C280 C281 1.391 . S
C281 H269 0.950 . S
C281 C277 1.393 . S
C281 C280 1.391 . S
C282 H272 0.950 . S
C282 C283 1.386 . S
C282 C284 1.391 . S
C283 C282 1.386 . S
C283 C287 1.393 . S
C284 H273 0.950 . S
C284 C282 1.391 . S
C284 C285 1.400 . S
C285 C279 1.491 . S
C285 C284 1.400 . S
C285 C286 1.398 . S
C286 H274 0.950 . S
C286 C285 1.398 . S
C286 C287 1.391 . S
C287 H275 0.950 . S
C287 C283 1.393 . S
C287 C286 1.391 . S
H288 C296 0.950 . S
H289 C301 0.950 . S
H290 C298 0.950 . S
H291 C300 0.950 . S
H292 C302 0.950 . S
H293 C304 0.950 . S
H294 C306 0.950 . S
H295 C307 0.950 . S
C296 H288 0.950 . S
C296 C297 1.386 . S
C296 C298 1.391 . S
C297 C296 1.386 . S
C297 C301 1.393 . S
C298 H290 0.950 . S
C298 C296 1.391 . S
C298 C299 1.400 . S
C299 C298 1.400 . S
C299 C300 1.398 . S
C299 C305 1.491 . S
C300 H291 0.950 . S
C300 C299 1.398 . S
C300 C301 1.391 . S
C301 H289 0.950 . S
C301 C297 1.393 . S
C301 C300 1.391 . S
C302 H292 0.950 . S
C302 C303 1.386 . S
C302 C304 1.391 . S
C303 C302 1.386 . S
C303 C307 1.393 . S
C304 H293 0.950 . S
C304 C302 1.391 . S
C304 C305 1.400 . S
C305 C299 1.491 . S
C305 C304 1.400 . S
C305 C306 1.398 . S
C306 H294 0.950 . S
C306 C305 1.398 . S
C306 C307 1.391 . S
C307 H295 0.950 . S
C307 C303 1.393 . S
C307 C306 1.391 . S
H308 C316 0.950 . S
H309 C321 0.950 . S
H310 C318 0.950 . S
H311 C320 0.950 . S
H312 C322 0.950 . S
H313 C324 0.950 . S
H314 C326 0.950 . S
H315 C327 0.950 . S
C316 H308 0.950 . S
C316 C317 1.386 . S
C316 C318 1.391 . S
C317 C316 1.386 . S
C317 C321 1.393 . S
C318 H310 0.950 . S
C318 C316 1.391 . S
C318 C319 1.400 . S
C319 C318 1.400 . S
C319 C320 1.398 . S
C319 C325 1.491 . S
C320 H311 0.950 . S
C320 C319 1.398 . S
C320 C321 1.391 . S
C321 H309 0.950 . S
C321 C317 1.393 . S
C321 C320 1.391 . S
C322 H312 0.950 . S
C322 C323 1.386 . S
C322 C324 1.391 . S
C323 C322 1.386 . S
C323 C327 1.393 . S
C324 H313 0.950 . S
C324 C322 1.391 . S
C324 C325 1.400 . S
C325 C319 1.491 . S
C325 C324 1.400 . S
C325 C326 1.398 . S
C326 H314 0.950 . S
C326 C325 1.398 . S
C326 C327 1.391 . S
C327 H315 0.950 . S
C327 C323 1.393 . S
C327 C326 1.391 . S
H328 C336 0.950 . S
H329 C341 0.950 . S
H330 C338 0.950 . S
H331 C340 0.950 . S
H332 C342 0.950 . S
H333 C344 0.950 . S
H334 C346 0.950 . S
H335 C347 0.950 . S
C336 H328 0.950 . S
C336 C337 1.386 . S
C336 C338 1.391 . S
C337 C336 1.386 . S
C337 C341 1.393 . S
C338 H330 0.950 . S
C338 C336 1.391 . S
C338 C339 1.400 . S
C339 C338 1.400 . S
C339 C340 1.398 . S
C339 C345 1.491 . S
C340 H331 0.950 . S
C340 C339 1.398 . S
C340 C341 1.391 . S
C341 H329 0.950 . S
C341 C337 1.393 . S
C341 C340 1.391 . S
C342 H332 0.950 . S
C342 C343 1.386 . S
C342 C344 1.391 . S
C343 C342 1.386 . S
C343 C347 1.393 . S
C344 H333 0.950 . S
C344 C342 1.391 . S
C344 C345 1.400 . S
C345 C339 1.491 . S
C345 C344 1.400 . S
C345 C346 1.398 . S
C346 H334 0.950 . S
C346 C345 1.398 . S
C346 C347 1.391 . S
C347 H335 0.950 . S
C347 C343 1.393 . S
C347 C346 1.391 . S
H348 C356 0.950 . S
H349 C361 0.950 . S
H350 C358 0.950 . S
H351 C360 0.950 . S
H352 C362 0.950 . S
H353 C364 0.950 . S
H354 C366 0.950 . S
H355 C367 0.950 . S
C356 H348 0.950 . S
C356 C357 1.386 . S
C356 C358 1.391 . S
C357 C356 1.386 . S
C357 C361 1.393 . S
C358 H350 0.950 . S
C358 C356 1.391 . S
C358 C359 1.400 . S
C359 C358 1.400 . S
C359 C360 1.398 . S
C359 C365 1.491 . S
C360 H351 0.950 . S
C360 C359 1.398 . S
C360 C361 1.391 . S
C361 H349 0.950 . S
C361 C357 1.393 . S
C361 C360 1.391 . S
C362 H352 0.950 . S
C362 C363 1.386 . S
C362 C364 1.391 . S
C363 C362 1.386 . S
C363 C367 1.393 . S
C364 H353 0.950 . S
C364 C362 1.391 . S
C364 C365 1.400 . S
C365 C359 1.491 . S
C365 C364 1.400 . S
C365 C366 1.398 . S
C366 H354 0.950 . S
C366 C365 1.398 . S
C366 C367 1.391 . S
C367 H355 0.950 . S
C367 C363 1.393 . S
C367 C366 1.391 . S
H368 C376 0.950 . S
H369 C381 0.950 . S
H370 C378 0.950 . S
H371 C380 0.950 . S
H372 C382 0.950 . S
H373 C384 0.950 . S
H374 C386 0.950 . S
H375 C387 0.950 . S
C376 H368 0.950 . S
C376 C377 1.386 . S
C376 C378 1.391 . S
C377 C376 1.386 . S
C377 C381 1.393 . S
C378 H370 0.950 . S
C378 C376 1.391 . S
C378 C379 1.400 . S
C379 C378 1.400 . S
C379 C380 1.398 . S
C379 C385 1.491 . S
C380 H371 0.950 . S
C380 C379 1.398 . S
C380 C381 1.391 . S
C381 H369 0.950 . S
C381 C377 1.393 . S
C381 C380 1.391 . S
C382 H372 0.950 . S
C382 C383 1.386 . S
C382 C384 1.391 . S
C383 C382 1.386 . S
C383 C387 1.393 . S
C384 H373 0.950 . S
C384 C382 1.391 . S
C384 C385 1.400 . S
C385 C379 1.491 . S
C385 C384 1.400 . S
C385 C386 1.398 . S
C386 H374 0.950 . S
C386 C385 1.398 . S
C386 C387 1.391 . S
C387 H375 0.950 . S
C387 C383 1.393 . S
C387 C386 1.391 . S
H388 C396 0.950 . S
H389 C401 0.950 . S
H390 C398 0.950 . S
H391 C400 0.950 . S
H392 C402 0.950 . S
H393 C404 0.950 . S
H394 C406 0.950 . S
H395 C407 0.950 . S
C396 H388 0.950 . S
C396 C397 1.386 . S
C396 C398 1.391 . S
C397 C396 1.386 . S
C397 C401 1.393 . S
C398 H390 0.950 . S
C398 C396 1.391 . S
C398 C399 1.400 . S
C399 C398 1.400 . S
C399 C400 1.398 . S
C399 C405 1.491 . S
C400 H391 0.950 . S
C400 C399 1.398 . S
C400 C401 1.391 . S
C401 H389 0.950 . S
C401 C397 1.393 . S
C401 C400 1.391 . S
C402 H392 0.950 . S
C402 C403 1.386 . S
C402 C404 1.391 . S
C403 C402 1.386 . S
C403 C407 1.393 . S
C404 H393 0.950 . S
C404 C402 1.391 . S
C404 C405 1.400 . S
C405 C399 1.491 . S
C405 C404 1.400 . S
C405 C406 1.398 . S
C406 H394 0.950 . S
C406 C405 1.398 . S
C406 C407 1.391 . S
C407 H395 0.950 . S
C407 C403 1.393 . S
C407 C406 1.391 . S
H408 C416 0.950 . S
H409 C421 0.950 . S
H410 C418 0.950 . S
H411 C420 0.950 . S
H412 C422 0.950 . S
H413 C424 0.950 . S
H414 C426 0.950 . S
H415 C427 0.950 . S
C416 H408 0.950 . S
C416 C417 1.386 . S
C416 C418 1.391 . S
C417 C416 1.386 . S
C417 C421 1.393 . S
C418 H410 0.950 . S
C418 C416 1.391 . S
C418 C419 1.400 . S
C419 C418 1.400 . S
C419 C420 1.398 . S
C419 C425 1.491 . S
C420 H411 0.950 . S
C420 C419 1.398 . S
C420 C421 1.391 . S
C421 H409 0.950 . S
C421 C417 1.393 . S
C421 C420 1.391 . S
C422 H412 0.950 . S
C422 C423 1.386 . S
C422 C424 1.391 . S
C423 C422 1.386 . S
C423 C427 1.393 . S
C424 H413 0.950 . S
C424 C422 1.391 . S
C424 C425 1.400 . S
C425 C419 1.491 . S
C425 C424 1.400 . S
C425 C426 1.398 . S
C426 H414 0.950 . S
C426 C425 1.398 . S
C426 C427 1.391 . S
C427 H415 0.950 . S
C427 C423 1.393 . S
C427 C426 1.391 . S
H428 C436 0.950 . S
H429 C441 0.950 . S
H430 C438 0.950 . S
H431 C440 0.950 . S
H432 C442 0.950 . S
H433 C444 0.950 . S
H434 C446 0.950 . S
H435 C447 0.950 . S
C436 H428 0.950 . S
C436 C437 1.386 . S
C436 C438 1.391 . S
C437 C436 1.386 . S
C437 C441 1.393 . S
C438 H430 0.950 . S
C438 C436 1.391 . S
C438 C439 1.400 . S
C439 C438 1.400 . S
C439 C440 1.398 . S
C439 C445 1.491 1_554 S
C440 H431 0.950 . S
C440 C439 1.398 . S
C440 C441 1.391 . S
C441 H429 0.950 . S
C441 C437 1.393 . S
C441 C440 1.391 . S
C442 H432 0.950 . S
C442 C443 1.386 . S
C442 C444 1.391 . S
C443 C442 1.386 . S
C443 C447 1.393 . S
C444 H433 0.950 . S
C444 C442 1.391 . S
C444 C445 1.400 . S
C445 C439 1.491 1_556 S
C445 C444 1.400 . S
C445 C446 1.398 . S
C446 H434 0.950 . S
C446 C445 1.398 . S
C446 C447 1.391 . S
C447 H435 0.950 . S
C447 C443 1.393 . S
C447 C446 1.391 . S
H448 C456 0.950 . S
H449 C461 0.950 . S
H450 C458 0.950 . S
H451 C460 0.950 . S
H452 C462 0.950 . S
H453 C464 0.950 . S
H454 C466 0.950 . S
H455 C467 0.950 . S
C456 H448 0.950 . S
C456 C457 1.386 . S
C456 C458 1.391 . S
C457 C456 1.386 . S
C457 C461 1.393 . S
C458 H450 0.950 . S
C458 C456 1.391 . S
C458 C459 1.400 . S
C459 C458 1.400 . S
C459 C460 1.398 . S
C459 C465 1.491 1_554 S
C460 H451 0.950 . S
C460 C459 1.398 . S
C460 C461 1.391 . S
C461 H449 0.950 . S
C461 C457 1.393 . S
C461 C460 1.391 . S
C462 H452 0.950 . S
C462 C463 1.386 . S
C462 C464 1.391 . S
C463 C462 1.386 . S
C463 C467 1.393 . S
C464 H453 0.950 . S
C464 C462 1.391 . S
C464 C465 1.400 . S
C465 C459 1.491 1_556 S
C465 C464 1.400 . S
C465 C466 1.398 . S
C466 H454 0.950 . S
C466 C465 1.398 . S
C466 C467 1.391 . S
C467 H455 0.950 . S
C467 C463 1.393 . S
C467 C466 1.391 . S
H468 C476 0.950 . S
H469 C481 0.950 . S
H470 C478 0.950 . S
H471 C480 0.950 . S
H472 C482 0.950 . S
H473 C484 0.950 . S
H474 C486 0.950 . S
H475 C487 0.950 . S
C476 H468 0.950 . S
C476 C477 1.386 . S
C476 C478 1.391 . S
C477 C476 1.386 . S
C477 C481 1.393 . S
C478 H470 0.950 . S
C478 C476 1.391 . S
C478 C479 1.400 . S
C479 C478 1.400 . S
C479 C480 1.398 . S
C479 C485 1.491 . S
C480 H471 0.950 . S
C480 C479 1.398 . S
C480 C481 1.391 . S
C481 H469 0.950 . S
C481 C477 1.393 . S
C481 C480 1.391 . S
C482 H472 0.950 . S
C482 C483 1.386 . S
C482 C484 1.391 . S
C483 C482 1.386 . S
C483 C487 1.393 . S
C484 H473 0.950 . S
C484 C482 1.391 . S
C484 C485 1.400 . S
C485 C479 1.491 . S
C485 C484 1.400 . S
C485 C486 1.398 . S
C486 H474 0.950 . S
C486 C485 1.398 . S
C486 C487 1.391 . S
C487 H475 0.950 . S
C487 C483 1.393 . S
C487 C486 1.391 . S
H488 C496 0.950 . S
H489 C501 0.950 . S
H490 C498 0.950 . S
H491 C500 0.950 . S
H492 C502 0.950 . S
H493 C504 0.950 . S
H494 C506 0.950 . S
H495 C507 0.950 . S
C496 H488 0.950 . S
C496 C497 1.386 . S
C496 C498 1.391 . S
C497 C496 1.386 . S
C497 C501 1.393 . S
C498 H490 0.950 . S
C498 C496 1.391 . S
C498 C499 1.400 . S
C499 C498 1.400 . S
C499 C500 1.398 . S
C499 C505 1.491 . S
C500 H491 0.950 . S
C500 C499 1.398 . S
C500 C501 1.391 . S
C501 H489 0.950 . S
C501 C497 1.393 . S
C501 C500 1.391 . S
C502 H492 0.950 . S
C502 C503 1.386 . S
C502 C504 1.391 . S
C503 C502 1.386 . S
C503 C507 1.393 . S
C504 H493 0.950 . S
C504 C502 1.391 . S
C504 C505 1.400 . S
C505 C499 1.491 . S
C505 C504 1.400 . S
C505 C506 1.398 . S
C506 H494 0.950 . S
C506 C505 1.398 . S
C506 C507 1.391 . S
C507 H495 0.950 . S
C507 C503 1.393 . S
C507 C506 1.391 . S
H508 C516 0.950 . S
H509 C521 0.950 . S
H510 C518 0.950 . S
H511 C520 0.950 . S
H512 C522 0.950 . S
H513 C524 0.950 . S
H514 C526 0.950 . S
H515 C527 0.950 . S
C516 H508 0.950 . S
C516 C517 1.386 . S
C516 C518 1.391 . S
C517 C516 1.386 . S
C517 C521 1.393 . S
C518 H510 0.950 . S
C518 C516 1.391 . S
C518 C519 1.400 . S
C519 C518 1.400 . S
C519 C520 1.398 . S
C519 C525 1.491 . S
C520 H511 0.950 . S
C520 C519 1.398 . S
C520 C521 1.391 . S
C521 H509 0.950 . S
C521 C517 1.393 . S
C521 C520 1.391 . S
C522 H512 0.950 . S
C522 C523 1.386 . S
C522 C524 1.391 . S
C523 C522 1.386 . S
C523 C527 1.393 . S
C524 H513 0.950 . S
C524 C522 1.391 . S
C524 C525 1.400 . S
C525 C519 1.491 . S
C525 C524 1.400 . S
C525 C526 1.398 . S
C526 H514 0.950 . S
C526 C525 1.398 . S
C526 C527 1.391 . S
C527 H515 0.950 . S
C527 C523 1.393 . S
C527 C526 1.391 . S
H528 C536 0.950 . S
H529 C541 0.950 . S
H530 C538 0.950 . S
H531 C540 0.950 . S
H532 C542 0.950 . S
H533 C544 0.950 . S
H534 C546 0.950 . S
H535 C547 0.950 . S
C536 H528 0.950 . S
C536 C537 1.386 . S
C536 C538 1.391 . S
C537 C536 1.386 . S
C537 C541 1.393 . S
C538 H530 0.950 . S
C538 C536 1.391 . S
C538 C539 1.400 . S
C539 C538 1.400 . S
C539 C540 1.398 . S
C539 C545 1.491 1_445 S
C540 H531 0.950 . S
C540 C539 1.398 . S
C540 C541 1.391 . S
C541 H529 0.950 . S
C541 C537 1.393 . S
C541 C540 1.391 . S
C542 H532 0.950 . S
C542 C543 1.386 . S
C542 C544 1.391 . S
C543 C542 1.386 . S
C543 C547 1.393 . S
C544 H533 0.950 . S
C544 C542 1.391 . S
C544 C545 1.400 . S
C545 C539 1.491 1_665 S
C545 C544 1.400 . S
C545 C546 1.398 . S
C546 H534 0.950 . S
C546 C545 1.398 . S
C546 C547 1.391 . S
C547 H535 0.950 . S
C547 C543 1.393 . S
C547 C546 1.391 . S
H548 C556 0.950 1_655 S
H549 C561 0.950 . S
H550 C558 0.950 . S
H551 C560 0.950 . S
H552 C562 0.950 1_455 S
H553 C564 0.950 . S
H554 C566 0.950 . S
H555 C567 0.950 . S
C556 H548 0.950 1_455 S
C556 C557 1.386 . S
C556 C558 1.391 1_455 S
C557 C556 1.386 . S
C557 C561 1.393 . S
C558 H550 0.950 . S
C558 C556 1.391 1_655 S
C558 C559 1.400 1_655 S
C559 C558 1.400 1_455 S
C559 C560 1.398 . S
C559 C565 1.491 1_455 S
C560 H551 0.950 . S
C560 C559 1.398 . S
C560 C561 1.391 . S
C561 H549 0.950 . S
C561 C557 1.393 . S
C561 C560 1.391 . S
C562 H552 0.950 1_655 S
C562 C563 1.386 . S
C562 C564 1.391 1_655 S
C563 C562 1.386 . S
C563 C567 1.393 . S
C564 H553 0.950 . S
C564 C562 1.391 1_455 S
C564 C565 1.400 1_455 S
C565 C559 1.491 1_655 S
C565 C564 1.400 1_655 S
C565 C566 1.398 . S
C566 H554 0.950 . S
C566 C565 1.398 . S
C566 C567 1.391 . S
C567 H555 0.950 . S
C567 C563 1.393 . S
C567 C566 1.391 . S
H568 C576 0.950 . S
H569 C581 0.950 . S
H570 C578 0.950 . S
H571 C580 0.950 . S
H572 C582 0.950 . S
H573 C584 0.950 . S
H574 C586 0.950 . S
H575 C587 0.950 . S
C576 H568 0.950 . S
C576 C577 1.386 . S
C576 C578 1.391 . S
C577 C576 1.386 . S
C577 C581 1.393 . S
C578 H570 0.950 . S
C578 C576 1.391 . S
C578 C579 1.400 . S
C579 C578 1.400 . S
C579 C580 1.398 . S
C579 C585 1.491 . S
C580 H571 0.950 . S
C580 C579 1.398 . S
C580 C581 1.391 . S
C581 H569 0.950 . S
C581 C577 1.393 . S
C581 C580 1.391 . S
C582 H572 0.950 . S
C582 C583 1.386 . S
C582 C584 1.391 . S
C583 C582 1.386 . S
C583 C587 1.393 . S
C584 H573 0.950 . S
C584 C582 1.391 . S
C584 C585 1.400 . S
C585 C579 1.491 . S
C585 C584 1.400 . S
C585 C586 1.398 . S
C586 H574 0.950 . S
C586 C585 1.398 . S
C586 C587 1.391 . S
C587 H575 0.950 . S
C587 C583 1.393 . S
C587 C586 1.391 . S
H588 C596 0.950 . S
H589 C601 0.950 . S
H590 C598 0.950 . S
H591 C600 0.950 . S
H592 C602 0.950 . S
H593 C604 0.950 . S
H594 C606 0.950 . S
H595 C607 0.950 . S
C596 H588 0.950 . S
C596 C597 1.386 . S
C596 C598 1.391 . S
C597 C596 1.386 . S
C597 C601 1.393 . S
C598 H590 0.950 . S
C598 C596 1.391 . S
C598 C599 1.400 . S
C599 C598 1.400 . S
C599 C600 1.398 . S
C599 C605 1.491 1_545 S
C600 H591 0.950 . S
C600 C599 1.398 . S
C600 C601 1.391 . S
C601 H589 0.950 . S
C601 C597 1.393 . S
C601 C600 1.391 . S
C602 H592 0.950 . S
C602 C603 1.386 . S
C602 C604 1.391 . S
C603 C602 1.386 . S
C603 C607 1.393 . S
C604 H593 0.950 . S
C604 C602 1.391 . S
C604 C605 1.400 . S
C605 C599 1.491 1_565 S
C605 C604 1.400 . S
C605 C606 1.398 . S
C606 H594 0.950 . S
C606 C605 1.398 . S
C606 C607 1.391 . S
C607 H595 0.950 . S
C607 C603 1.393 . S
C607 C606 1.391 . S
H608 C616 0.950 . S
H609 C621 0.950 . S
H610 C618 0.950 . S
H611 C620 0.950 . S
H612 C622 0.950 . S
H613 C624 0.950 . S
H614 C626 0.950 . S
H615 C627 0.950 . S
C616 H608 0.950 . S
C616 C617 1.386 . S
C616 C618 1.391 . S
C617 C616 1.386 . S
C617 C621 1.393 . S
C618 H610 0.950 . S
C618 C616 1.391 . S
C618 C619 1.400 . S
C619 C618 1.400 . S
C619 C620 1.398 . S
C619 C625 1.491 1_455 S
C620 H611 0.950 . S
C620 C619 1.398 . S
C620 C621 1.391 . S
C621 H609 0.950 . S
C621 C617 1.393 . S
C621 C620 1.391 . S
C622 H612 0.950 . S
C622 C623 1.386 . S
C622 C624 1.391 . S
C623 C622 1.386 . S
C623 C627 1.393 . S
C624 H613 0.950 . S
C624 C622 1.391 . S
C624 C625 1.400 . S
C625 C619 1.491 1_655 S
C625 C624 1.400 . S
C625 C626 1.398 . S
C626 H614 0.950 . S
C626 C625 1.398 . S
C626 C627 1.391 . S
C627 H615 0.950 . S
C627 C623 1.393 . S
C627 C626 1.391 . S
H628 C636 0.950 . S
H629 C641 0.950 . S
H630 C638 0.950 . S
H631 C640 0.950 . S
H632 C642 0.950 . S
H633 C644 0.950 . S
H634 C646 0.950 . S
H635 C647 0.950 . S
C636 H628 0.950 . S
C636 C637 1.386 . S
C636 C638 1.391 . S
C637 C636 1.386 . S
C637 C641 1.393 . S
C638 H630 0.950 . S
C638 C636 1.391 . S
C638 C639 1.400 . S
C639 C638 1.400 . S
C639 C640 1.398 . S
C639 C645 1.491 . S
C640 H631 0.950 . S
C640 C639 1.398 . S
C640 C641 1.391 . S
C641 H629 0.950 . S
C641 C637 1.393 . S
C641 C640 1.391 . S
C642 H632 0.950 . S
C642 C643 1.386 . S
C642 C644 1.391 . S
C643 C642 1.386 . S
C643 C647 1.393 . S
C644 H633 0.950 . S
C644 C642 1.391 . S
C644 C645 1.400 . S
C645 C639 1.491 . S
C645 C644 1.400 . S
C645 C646 1.398 . S
C646 H634 0.950 . S
C646 C645 1.398 . S
C646 C647 1.391 . S
C647 H635 0.950 . S
C647 C643 1.393 . S
C647 C646 1.391 . S
H648 C656 0.950 . S
H649 C661 0.950 1_545 S
H650 C658 0.950 . S
H651 C660 0.950 . S
H652 C662 0.950 . S
H653 C664 0.950 . S
H654 C666 0.950 . S
H655 C667 0.950 1_565 S
C656 H648 0.950 . S
C656 C657 1.386 . S
C656 C658 1.391 . S
C657 C656 1.386 . S
C657 C661 1.393 . S
C658 H650 0.950 . S
C658 C656 1.391 . S
C658 C659 1.400 . S
C659 C658 1.400 . S
C659 C660 1.398 1_565 S
C659 C665 1.491 1_565 S
C660 H651 0.950 . S
C660 C659 1.398 1_545 S
C660 C661 1.391 1_545 S
C661 H649 0.950 1_565 S
C661 C657 1.393 . S
C661 C660 1.391 1_565 S
C662 H652 0.950 . S
C662 C663 1.386 . S
C662 C664 1.391 . S
C663 C662 1.386 . S
C663 C667 1.393 . S
C664 H653 0.950 . S
C664 C662 1.391 . S
C664 C665 1.400 . S
C665 C659 1.491 1_545 S
C665 C664 1.400 . S
C665 C666 1.398 1_545 S
C666 H654 0.950 . S
C666 C665 1.398 1_565 S
C666 C667 1.391 1_565 S
C667 H655 0.950 1_545 S
C667 C663 1.393 . S
C667 C666 1.391 1_545 S
H668 C676 0.950 . S
H669 C681 0.950 . S
H670 C678 0.950 . S
H671 C680 0.948 1_655 S
H672 C682 0.950 . S
H673 C684 0.950 . S
H674 C686 0.948 1_455 S
H675 C687 0.950 . S
C676 H668 0.950 . S
C676 C677 1.386 . S
C676 C678 1.391 . S
C677 C676 1.386 . S
C677 C681 1.393 . S
C678 H670 0.950 . S
C678 C676 1.391 . S
C678 C679 1.400 . S
C679 C678 1.400 . S
C679 C680 1.398 . S
C679 C685 1.491 1_445 S
C680 H671 0.948 1_455 S
C680 C679 1.398 . S
C680 C681 1.391 . S
C681 H669 0.950 . S
C681 C677 1.393 . S
C681 C680 1.391 . S
C682 H672 0.950 . S
C682 C683 1.386 . S
C682 C684 1.391 . S
C683 C682 1.386 . S
C683 C687 1.393 . S
C684 H673 0.950 . S
C684 C682 1.391 . S
C684 C685 1.400 . S
C685 C679 1.491 1_665 S
C685 C684 1.400 . S
C685 C686 1.398 . S
C686 H674 0.948 1_655 S
C686 C685 1.398 . S
C686 C687 1.391 . S
C687 H675 0.950 . S
C687 C683 1.393 . S
C687 C686 1.391 . S
H688 C696 0.950 . S
H689 C701 0.950 . S
H690 C698 0.950 . S
H691 C700 0.950 . S
H692 C702 0.950 . S
H693 C704 0.950 . S
H694 C706 0.950 . S
H695 C707 0.950 . S
C696 H688 0.950 . S
C696 C697 1.386 . S
C696 C698 1.391 . S
C697 C696 1.386 . S
C697 C701 1.393 1_565 S
C698 H690 0.950 . S
C698 C696 1.391 . S
C698 C699 1.400 . S
C699 C698 1.400 . S
C699 C700 1.398 1_565 S
C699 C705 1.491 1_565 S
C700 H691 0.950 . S
C700 C699 1.398 1_545 S
C700 C701 1.391 . S
C701 H689 0.950 . S
C701 C697 1.393 1_545 S
C701 C700 1.391 . S
C702 H692 0.950 . S
C702 C703 1.386 . S
C702 C704 1.391 . S
C703 C702 1.386 . S
C703 C707 1.393 1_545 S
C704 H693 0.950 . S
C704 C702 1.391 . S
C704 C705 1.400 . S
C705 C699 1.491 1_545 S
C705 C704 1.400 . S
C705 C706 1.398 1_545 S
C706 H694 0.950 . S
C706 C705 1.398 1_565 S
C706 C707 1.391 . S
C707 H695 0.950 . S
C707 C703 1.393 1_565 S
C707 C706 1.391 . S
H708 C716 0.950 . S
H709 C721 0.950 . S
H710 C718 0.950 . S
H711 C720 0.950 1_455 S
H712 C722 0.950 . S
H713 C724 0.950 . S
H714 C726 0.950 1_655 S
H715 C727 0.950 . S
C716 H708 0.950 . S
C716 C717 1.386 . S
C716 C718 1.391 . S
C717 C716 1.386 . S
C717 C721 1.393 . S
C718 H710 0.950 . S
C718 C716 1.391 . S
C718 C719 1.400 . S
C719 C718 1.400 . S
C719 C720 1.398 . S
C719 C725 1.491 1_665 S
C720 H711 0.950 1_655 S
C720 C719 1.398 . S
C720 C721 1.391 . S
C721 H709 0.950 . S
C721 C717 1.393 . S
C721 C720 1.391 . S
C722 H712 0.950 . S
C722 C723 1.386 . S
C722 C724 1.391 . S
C723 C722 1.386 . S
C723 C727 1.393 . S
C724 H713 0.950 . S
C724 C722 1.391 . S
C724 C725 1.400 . S
C725 C719 1.491 1_445 S
C725 C724 1.400 . S
C725 C726 1.398 . S
C726 H714 0.950 1_455 S
C726 C725 1.398 . S
C726 C727 1.391 . S
C727 H715 0.950 . S
C727 C723 1.393 . S
C727 C726 1.391 . S
H728 C736 0.950 . S
H729 C741 0.950 . S
H730 C738 0.950 . S
H731 C740 0.950 . S
H732 C742 0.950 . S
H733 C744 0.950 . S
H734 C746 0.950 . S
H735 C747 0.950 . S
C736 H728 0.950 . S
C736 C737 1.386 . S
C736 C738 1.391 . S
C737 C736 1.386 . S
C737 C741 1.393 . S
C738 H730 0.950 . S
C738 C736 1.391 . S
C738 C739 1.400 . S
C739 C738 1.400 . S
C739 C740 1.398 . S
C739 C745 1.491 1_455 S
C740 H731 0.950 . S
C740 C739 1.398 . S
C740 C741 1.391 . S
C741 H729 0.950 . S
C741 C737 1.393 . S
C741 C740 1.391 . S
C742 H732 0.950 . S
C742 C743 1.386 . S
C742 C744 1.391 . S
C743 C742 1.386 . S
C743 C747 1.393 . S
C744 H733 0.950 . S
C744 C742 1.391 . S
C744 C745 1.400 . S
C745 C739 1.491 1_655 S
C745 C744 1.400 . S
C745 C746 1.398 . S
C746 H734 0.950 . S
C746 C745 1.398 . S
C746 C747 1.391 . S
C747 H735 0.950 . S
C747 C743 1.393 . S
C747 C746 1.391 . S
H748 C756 0.950 . S
H749 C761 0.950 . S
H750 C758 0.950 . S
H751 C760 0.950 . S
H752 C762 0.950 . S
H753 C764 0.950 . S
H754 C766 0.950 . S
H755 C767 0.950 . S
C756 H748 0.950 . S
C756 C757 1.386 . S
C756 C758 1.391 . S
C757 C756 1.386 . S
C757 C761 1.393 . S
C758 H750 0.950 . S
C758 C756 1.391 . S
C758 C759 1.400 . S
C759 C758 1.400 . S
C759 C760 1.398 . S
C759 C765 1.491 . S
C760 H751 0.950 . S
C760 C759 1.398 . S
C760 C761 1.391 . S
C761 H749 0.950 . S
C761 C757 1.393 . S
C761 C760 1.391 . S
C762 H752 0.950 . S
C762 C763 1.386 . S
C762 C764 1.391 . S
C763 C762 1.386 . S
C763 C767 1.393 . S
C764 H753 0.950 . S
C764 C762 1.391 . S
C764 C765 1.400 . S
C765 C759 1.491 . S
C765 C764 1.400 . S
C765 C766 1.398 . S
C766 H754 0.950 . S
C766 C765 1.398 . S
C766 C767 1.391 . S
C767 H755 0.950 . S
C767 C763 1.393 . S
C767 C766 1.391 . S
H768 C776 0.950 . S
H769 C781 0.950 . S
H770 C778 0.950 . S
H771 C780 0.950 . S
H772 C782 0.950 . S
H773 C784 0.950 . S
H774 C786 0.950 . S
H775 C787 0.950 . S
C776 H768 0.950 . S
C776 C777 1.386 . S
C776 C778 1.391 . S
C777 C776 1.386 . S
C777 C781 1.393 . S
C778 H770 0.950 . S
C778 C776 1.391 . S
C778 C779 1.400 . S
C779 C778 1.400 . S
C779 C780 1.398 . S
C779 C785 1.491 . S
C780 H771 0.950 . S
C780 C779 1.398 . S
C780 C781 1.391 . S
C781 H769 0.950 . S
C781 C777 1.393 . S
C781 C780 1.391 . S
C782 H772 0.950 . S
C782 C783 1.386 . S
C782 C784 1.391 . S
C783 C782 1.386 . S
C783 C787 1.393 . S
C784 H773 0.950 . S
C784 C782 1.391 . S
C784 C785 1.400 . S
C785 C779 1.491 . S
C785 C784 1.400 . S
C785 C786 1.398 . S
C786 H774 0.950 . S
C786 C785 1.398 . S
C786 C787 1.391 . S
C787 H775 0.950 . S
C787 C783 1.393 . S
C787 C786 1.391 . S
H788 C796 0.950 . S
H789 C801 0.950 . S
H790 C798 0.950 . S
H791 C800 0.950 . S
H792 C802 0.950 . S
H793 C804 0.950 . S
H794 C806 0.950 . S
H795 C807 0.950 . S
C796 H788 0.950 . S
C796 C797 1.386 . S
C796 C798 1.391 . S
C797 C796 1.386 . S
C797 C801 1.393 . S
C798 H790 0.950 . S
C798 C796 1.391 . S
C798 C799 1.400 . S
C799 C798 1.400 . S
C799 C800 1.398 . S
C799 C805 1.491 1_545 S
C800 H791 0.950 . S
C800 C799 1.398 . S
C800 C801 1.391 . S
C801 H789 0.950 . S
C801 C797 1.393 . S
C801 C800 1.391 . S
C802 H792 0.950 . S
C802 C803 1.386 . S
C802 C804 1.391 . S
C803 C802 1.386 . S
C803 C807 1.393 . S
C804 H793 0.950 . S
C804 C802 1.391 . S
C804 C805 1.400 . S
C805 C799 1.491 1_565 S
C805 C804 1.400 . S
C805 C806 1.398 . S
C806 H794 0.950 . S
C806 C805 1.398 . S
C806 C807 1.391 . S
C807 H795 0.950 . S
C807 C803 1.393 . S
C807 C806 1.391 . S
H808 C816 0.950 . S
H809 C821 0.950 . S
H810 C818 0.950 . S
H811 C820 0.950 . S
H812 C822 0.950 . S
H813 C824 0.950 . S
H814 C826 0.950 . S
H815 C827 0.950 . S
C816 H808 0.950 . S
C816 C817 1.386 . S
C816 C818 1.391 . S
C817 C816 1.386 . S
C817 C821 1.393 . S
C818 H810 0.950 . S
C818 C816 1.391 . S
C818 C819 1.400 . S
C819 C818 1.400 . S
C819 C820 1.398 . S
C819 C825 1.491 1_665 S
C820 H811 0.950 . S
C820 C819 1.398 . S
C820 C821 1.391 . S
C821 H809 0.950 . S
C821 C817 1.393 . S
C821 C820 1.391 . S
C822 H812 0.950 . S
C822 C823 1.386 . S
C822 C824 1.391 . S
C823 C822 1.386 . S
C823 C827 1.393 . S
C824 H813 0.950 . S
C824 C822 1.391 . S
C824 C825 1.400 . S
C825 C819 1.491 1_445 S
C825 C824 1.400 . S
C825 C826 1.398 . S
C826 H814 0.950 . S
C826 C825 1.398 . S
C826 C827 1.391 . S
C827 H815 0.950 . S
C827 C823 1.393 . S
C827 C826 1.391 . S
H828 C836 0.950 . S
H829 C841 0.950 . S
H830 C838 0.950 . S
H831 C840 0.950 1_455 S
H832 C842 0.950 . S
H833 C844 0.950 . S
H834 C846 0.950 1_655 S
H835 C847 0.950 . S
C836 H828 0.950 . S
C836 C837 1.386 . S
C836 C838 1.391 . S
C837 C836 1.386 . S
C837 C841 1.393 . S
C838 H830 0.950 . S
C838 C836 1.391 . S
C838 C839 1.400 . S
C839 C838 1.400 . S
C839 C840 1.398 . S
C839 C845 1.491 1_655 S
C840 H831 0.950 1_655 S
C840 C839 1.398 . S
C840 C841 1.391 . S
C841 H829 0.950 . S
C841 C837 1.393 . S
C841 C840 1.391 . S
C842 H832 0.950 . S
C842 C843 1.386 . S
C842 C844 1.391 . S
C843 C842 1.386 . S
C843 C847 1.393 . S
C844 H833 0.950 . S
C844 C842 1.391 . S
C844 C845 1.400 . S
C845 C839 1.491 1_455 S
C845 C844 1.400 . S
C845 C846 1.398 . S
C846 H834 0.950 1_455 S
C846 C845 1.398 . S
C846 C847 1.391 . S
C847 H835 0.950 . S
C847 C843 1.393 . S
C847 C846 1.391 . S
C217 C60 1.013 . S
C223 C8 1.012 . S
C237 C21 1.043 . S
C243 C73 1.016 . S
C257 C86 1.010 . S
C263 C34 1.016 . S
C277 C99 1.035 . S
C283 C47 1.045 . S
C297 C164 1.044 . S
C303 C112 1.019 . S
C317 C125 1.047 . S
C323 C177 1.032 . S
C337 C190 1.008 . S
C343 C138 1.023 . S
C357 C151 1.017 . S
C363 C203 1.009 . S
C377 C10 1.212 . S
C383 C205 1.214 . S
C397 C23 1.217 . S
C403 C166 1.212 . S
C417 C36 1.211 . S
C423 C179 1.216 . S
C437 C192 1.216 . S
C443 C49 1.215 . S
C457 C62 1.217 . S
C463 C127 1.214 . S
C477 C75 1.211 . S
C483 C140 1.215 . S
C497 C153 1.211 . S
C503 C88 1.216 . S
C517 C114 1.213 . S
C523 C101 1.217 . S
C537 C0 1.478 . S
C543 C130 1.481 . S
C557 C143 1.464 . S
C563 C13 1.478 . S
C577 C26 1.473 . S
C583 C104 1.484 . S
C597 C117 1.466 . S
C603 C39 1.485 . S
C617 C52 1.477 . S
C623 C182 1.464 . S
C637 C65 1.465 . S
C643 C195 1.477 . S
C657 C156 1.481 . S
C663 C78 1.464 . S
C677 C169 1.473 . S
C683 C91 1.466 . S
C697 C135 1.422 . S
C703 C5 1.437 . S
C717 C18 1.439 . S
C723 C148 1.440 . S
C737 C31 1.431 . S
C743 C109 1.441 . S
C757 C122 1.427 . S
C763 C44 1.414 . S
C777 C187 1.422 . S
C783 C57 1.412 . S
C797 C200 1.422 . S
C803 C70 1.412 . S
C817 C161 1.414 . S
C823 C83 1.414 . S
C837 C96 1.412 . S
C843 C174 1.419 . S
