# Generated by pormake.
# Topology unb, (4)-cn, num edge types: 1
# Building blocks:
#     Node 0, Type 0, BuildingBlock: QUQFOY_clean_sbu_1, # of connection points: 4
#     Node 1, Type 0, BuildingBlock: QUQFOY_clean_sbu_1, # of connection points: 4
#     Node 2, Type 0, BuildingBlock: QUQFOY_clean_sbu_1, # of connection points: 4
#     Node 3, Type 0, BuildingBlock: QUQFOY_clean_sbu_1, # of connection points: 4
#     Node 4, Type 0, BuildingBlock: QUQFOY_clean_sbu_1, # of connection points: 4
#     Node 5, Type 0, BuildingBlock: QUQFOY_clean_sbu_1, # of connection points: 4
#     Node 6, Type 0, BuildingBlock: QUQFOY_clean_sbu_1, # of connection points: 4
#     Node 7, Type 0, BuildingBlock: QUQFOY_clean_sbu_1, # of connection points: 4
#     Node 8, Type 0, BuildingBlock: QUQFOY_clean_sbu_1, # of connection points: 4
#     Node 9, Type 0, BuildingBlock: QUQFOY_clean_sbu_1, # of connection points: 4
#     Node 10, Type 0, BuildingBlock: QUQFOY_clean_sbu_1, # of connection points: 4
#     Node 11, Type 0, BuildingBlock: QUQFOY_clean_sbu_1, # of connection points: 4
#     Node 12, Type 0, BuildingBlock: QUQFOY_clean_sbu_1, # of connection points: 4
#     Node 13, Type 0, BuildingBlock: QUQFOY_clean_sbu_1, # of connection points: 4
#     Node 14, Type 0, BuildingBlock: QUQFOY_clean_sbu_1, # of connection points: 4
#     Node 15, Type 0, BuildingBlock: QUQFOY_clean_sbu_1, # of connection points: 4
#     Node 16, Type 0, BuildingBlock: QUQFOY_clean_sbu_1, # of connection points: 4
#     Node 17, Type 0, BuildingBlock: QUQFOY_clean_sbu_1, # of connection points: 4
#     Edge 18, Type (0, 0), BuildingBlock: KIFKEQ_clean_linker_1, # of connection points: 2
#     Edge 19, Type (0, 0), BuildingBlock: KIFKEQ_clean_linker_1, # of connection points: 2
#     Edge 20, Type (0, 0), BuildingBlock: KIFKEQ_clean_linker_1, # of connection points: 2
#     Edge 21, Type (0, 0), BuildingBlock: KIFKEQ_clean_linker_1, # of connection points: 2
#     Edge 22, Type (0, 0), BuildingBlock: KIFKEQ_clean_linker_1, # of connection points: 2
#     Edge 23, Type (0, 0), BuildingBlock: KIFKEQ_clean_linker_1, # of connection points: 2
#     Edge 24, Type (0, 0), BuildingBlock: KIFKEQ_clean_linker_1, # of connection points: 2
#     Edge 25, Type (0, 0), BuildingBlock: KIFKEQ_clean_linker_1, # of connection points: 2
#     Edge 26, Type (0, 0), BuildingBlock: KIFKEQ_clean_linker_1, # of connection points: 2
#     Edge 27, Type (0, 0), BuildingBlock: KIFKEQ_clean_linker_1, # of connection points: 2
#     Edge 28, Type (0, 0), BuildingBlock: KIFKEQ_clean_linker_1, # of connection points: 2
#     Edge 29, Type (0, 0), BuildingBlock: KIFKEQ_clean_linker_1, # of connection points: 2
#     Edge 30, Type (0, 0), BuildingBlock: KIFKEQ_clean_linker_1, # of connection points: 2
#     Edge 31, Type (0, 0), BuildingBlock: KIFKEQ_clean_linker_1, # of connection points: 2
#     Edge 32, Type (0, 0), BuildingBlock: KIFKEQ_clean_linker_1, # of connection points: 2
#     Edge 33, Type (0, 0), BuildingBlock: KIFKEQ_clean_linker_1, # of connection points: 2
#     Edge 34, Type (0, 0), BuildingBlock: KIFKEQ_clean_linker_1, # of connection points: 2
#     Edge 35, Type (0, 0), BuildingBlock: KIFKEQ_clean_linker_1, # of connection points: 2
#     Edge 36, Type (0, 0), BuildingBlock: KIFKEQ_clean_linker_1, # of connection points: 2
#     Edge 37, Type (0, 0), BuildingBlock: KIFKEQ_clean_linker_1, # of connection points: 2
#     Edge 38, Type (0, 0), BuildingBlock: KIFKEQ_clean_linker_1, # of connection points: 2
#     Edge 39, Type (0, 0), BuildingBlock: KIFKEQ_clean_linker_1, # of connection points: 2
#     Edge 40, Type (0, 0), BuildingBlock: KIFKEQ_clean_linker_1, # of connection points: 2
#     Edge 41, Type (0, 0), BuildingBlock: KIFKEQ_clean_linker_1, # of connection points: 2
#     Edge 42, Type (0, 0), BuildingBlock: KIFKEQ_clean_linker_1, # of connection points: 2
#     Edge 43, Type (0, 0), BuildingBlock: KIFKEQ_clean_linker_1, # of connection points: 2
#     Edge 44, Type (0, 0), BuildingBlock: KIFKEQ_clean_linker_1, # of connection points: 2
#     Edge 45, Type (0, 0), BuildingBlock: KIFKEQ_clean_linker_1, # of connection points: 2
#     Edge 46, Type (0, 0), BuildingBlock: KIFKEQ_clean_linker_1, # of connection points: 2
#     Edge 47, Type (0, 0), BuildingBlock: KIFKEQ_clean_linker_1, # of connection points: 2
#     Edge 48, Type (0, 0), BuildingBlock: KIFKEQ_clean_linker_1, # of connection points: 2
#     Edge 49, Type (0, 0), BuildingBlock: KIFKEQ_clean_linker_1, # of connection points: 2
#     Edge 50, Type (0, 0), BuildingBlock: KIFKEQ_clean_linker_1, # of connection points: 2
#     Edge 51, Type (0, 0), BuildingBlock: KIFKEQ_clean_linker_1, # of connection points: 2
#     Edge 52, Type (0, 0), BuildingBlock: KIFKEQ_clean_linker_1, # of connection points: 2
#     Edge 53, Type (0, 0), BuildingBlock: KIFKEQ_clean_linker_1, # of connection points: 2
# Relax obj value: 0.083
# Max RMSD: 0.097
# Mean RMSD: 0.097
data_MOF--net-unb--node1-QUQFOY_clean_sbu_1--edge1-KIFKEQ_clean_linker_1
_symmetry_space_group_name_H-M    P1
_symmetry_Int_Tables_number       1
_symmetry_cell_setting            triclinic
loop_
_symmetry_equiv_pos_as_xyz
'x, y, z'
_cell_length_a     65.485063
_cell_length_b     65.60013
_cell_length_c     28.60967
_cell_angle_alpha  89.982834
_cell_angle_beta   89.921387
_cell_angle_gamma 120.06817
loop_
_atom_site_label
_atom_site_type_symbol
_atom_site_fract_x
_atom_site_fract_y
_atom_site_fract_z
_atom_type_partial_charge
O0 O 0.17131 0.25932 0.09309 0.0
Cd1 Cd 0.16421 0.28618 0.10173 0.0
Cd2 Cd 0.12136 0.25474 0.05617 0.0
O3 O 0.1382 0.2353 0.0564 0.0
O4 O 0.18589 0.30686 0.15149 0.0
O5 O 0.14701 0.28813 0.1585 0.0
C6 C 0.16754 0.30184 0.17649 0.0
C7 C 0.08031 0.2321 0.04594 0.0
C8 C 0.15831 0.24009 0.0718 0.0
C9 C 0.1553 0.30163 1.01044 0.0
O10 O 0.1351 0.28329 1.01235 0.0
O11 O 0.17043 0.3063 0.04243 0.0
O12 O 0.09492 0.2336 0.01442 0.0
O13 O 0.08889 0.24303 0.08477 0.0
O14 O 0.72646 0.90745 0.09483 0.0
Cd15 Cd 0.70273 0.87222 0.10683 0.0
Cd16 Cd 0.74146 0.86877 0.06782 0.0
O17 O 0.75772 0.90446 0.07746 0.0
O18 O 0.68031 0.87114 0.15549 0.0
O19 O 0.70375 0.85633 0.16651 0.0
C20 C 0.688 0.86083 0.18284 0.0
C21 C 0.76707 0.85406 0.05428 0.0
C22 C 0.74822 0.91698 0.0843 0.0
C23 C 0.6943 0.84968 0.0146 0.0
O24 O 0.71566 0.85488 0.01805 0.0
O25 O 0.68412 0.8537 0.0483 0.0
O26 O 0.76586 0.86874 0.02651 0.0
O27 O 0.75453 0.8484 0.0919 0.0
O28 O 0.08162 0.8098 0.08637 0.0
Cd29 Cd 0.11713 0.82312 0.09925 0.0
Cd30 Cd 0.11906 0.86481 0.06976 0.0
O31 O 0.0834 0.84411 0.07842 0.0
O32 O 0.11995 0.80267 0.14733 0.0
O33 O 0.13179 0.84038 0.15907 0.0
C34 C 0.12886 0.82063 0.17502 0.0
C35 C 0.13298 0.90541 0.06423 0.0
C36 C 0.07148 0.82178 0.07977 0.0
C37 C 0.13967 0.84092 1.00848 0.0
O38 O 0.13315 0.8559 0.01514 0.0
O39 O 0.13686 0.82621 0.04033 0.0
O40 O 0.11804 0.89055 0.03529 0.0
O41 O 0.13931 0.89722 0.09878 0.0
O42 O 0.26033 0.16954 0.92695 0.0
Cd43 Cd 0.2846 0.15885 0.91427 0.0
Cd44 Cd 0.24746 0.1163 0.95667 0.0
O45 O 0.23055 0.13529 0.94954 0.0
O46 O 0.30594 0.17994 0.86414 0.0
O47 O 0.28328 0.14141 0.85527 0.0
C48 C 0.2984 0.16162 0.83774 0.0
C49 C 0.22199 0.07609 0.97167 0.0
C50 C 0.23904 0.15699 0.94037 0.0
C51 C 0.29579 0.1457 1.0052 0.0
O52 O 0.27475 0.12867 1.00328 0.0
O53 O 0.30448 0.16026 0.97154 0.0
O54 O 0.22426 0.09216 1.00015 0.0
O55 O 0.23357 0.08272 0.93288 0.0
O56 O 0.81456 0.0863 0.92547 0.0
Cd57 Cd 0.82355 0.12072 0.91485 0.0
Cd58 Cd 0.86591 0.13182 0.96037 0.0
O59 O 0.84752 0.09548 0.96291 0.0
O60 O 0.80458 0.12273 0.86265 0.0
O61 O 0.84351 0.13875 0.8598 0.0
C62 C 0.82409 0.1346 0.83977 0.0
C63 C 0.90679 0.14847 0.97074 0.0
C64 C 0.82725 0.08013 0.94816 0.0
C65 C 0.83366 0.14725 1.00383 0.0
O66 O 0.85371 0.1488 1.00216 0.0
O67 O 0.81824 0.1361 0.97271 0.0
O68 O 0.89189 0.13645 1.0028 0.0
O69 O 0.89857 0.15068 0.93132 0.0
O70 O 0.89672 0.71764 0.94047 0.0
Cd71 Cd 0.86092 0.69701 0.9279 0.0
Cd72 Cd 0.86173 0.73835 0.95385 0.0
O73 O 0.89686 0.75134 0.94124 0.0
O74 O 0.85499 0.67267 0.87963 0.0
O75 O 0.84815 0.70216 0.86806 0.0
C76 C 0.84832 0.68381 0.85195 0.0
C77 C 0.84982 0.76661 0.95896 0.0
C78 C 0.90787 0.74 0.94299 0.0
C79 C 0.84002 0.69534 0.019 0.0
O80 O 0.84826 0.71707 1.01112 0.0
O81 O 0.84074 0.6821 0.98737 0.0
O82 O 0.86525 0.76664 0.98646 0.0
O83 O 0.84193 0.75126 0.92579 0.0
O84 O 0.84384 0.60528 0.41771 0.0
Cd85 Cd 0.83019 0.62683 0.43406 0.0
Cd86 Cd 0.78766 0.58834 0.39806 0.0
O87 O 0.80991 0.57486 0.39537 0.0
O88 O 0.84858 0.64886 0.48577 0.0
O89 O 0.81117 0.62078 0.49295 0.0
C90 C 0.8299 0.63798 0.51149 0.0
C91 C 0.74745 0.56057 0.38953 0.0
C92 C 0.832 0.58438 0.40198 0.0
C93 C 0.81134 0.63637 0.34823 0.0
O94 O 0.79502 0.61517 0.35274 0.0
O95 O 0.82782 0.64565 0.37821 0.0
O96 O 0.76252 0.56458 0.35715 0.0
O97 O 0.75522 0.57129 0.42884 0.0
O98 O 0.38696 0.23671 0.4173 0.0
Cd99 Cd 0.36518 0.20076 0.42507 0.0
Cd100 Cd 0.40538 0.20171 0.3947 0.0
O101 O 0.42032 0.23625 0.41433 0.0
O102 O 0.34043 0.19621 0.47131 0.0
O103 O 0.36651 0.18475 0.48415 0.0
C104 C 0.34912 0.18702 0.49919 0.0
C105 C 0.43044 0.18593 0.39051 0.0
C106 C 0.40937 0.24763 0.41576 0.0
C107 C 0.36307 0.18397 0.32966 0.0
O108 O 0.38501 0.19231 0.33572 0.0
O109 O 0.35001 0.18287 0.36366 0.0
O110 O 0.43384 0.20364 0.36566 0.0
O111 O 0.41331 0.17763 0.42023 0.0
O112 O 0.75183 0.1533 0.42144 0.0
Cd113 Cd 0.78675 0.16347 0.43052 0.0
Cd114 Cd 0.79521 0.20552 0.38535 0.0
O115 O 0.75892 0.18692 0.38971 0.0
O116 O 0.78938 0.14411 0.4812 0.0
O117 O 0.80439 0.18275 0.48647 0.0
C118 C 0.80067 0.16323 0.50524 0.0
C119 C 0.81113 0.24614 0.37317 0.0
C120 C 0.74448 0.16602 0.40285 0.0
C121 C 0.81039 0.17374 0.33797 0.0
O122 O 0.80969 0.19268 0.33873 0.0
O123 O 0.80219 0.15913 0.37151 0.0
O124 O 0.7968 0.23074 0.34423 0.0
O125 O 0.81626 0.23867 0.41054 0.0
O126 O 0.93734 0.5121 0.27551 0.0
Cd127 Cd 0.95698 0.49572 0.26529 0.0
Cd128 Cd 0.91685 0.4575 0.29148 0.0
O129 O 0.90327 0.47891 0.27658 0.0
O130 O 0.98173 0.51287 0.21688 0.0
O131 O 0.95134 0.47684 0.20671 0.0
C132 C 0.97017 0.49478 0.19009 0.0
C133 C 0.89232 0.41677 0.28521 0.0
C134 C 0.91492 0.50127 0.27719 0.0
C135 C 0.95797 0.4777 0.35837 0.0
O136 O 0.93593 0.46505 0.35191 0.0
O137 O 0.97129 0.49037 0.32531 0.0
O138 O 0.88753 0.42915 0.31303 0.0
O139 O 0.91049 0.42764 0.25827 0.0
O140 O 0.48011 0.42181 0.2754 0.0
Cd141 Cd 0.49074 0.45656 0.26036 0.0
Cd142 Cd 0.53367 0.464 0.30361 0.0
O143 O 0.51361 0.42803 0.30649 0.0
O144 O 0.4699 0.45627 0.20907 0.0
O145 O 0.50855 0.47224 0.20115 0.0
C146 C 0.48842 0.46697 0.18295 0.0
C147 C 0.57414 0.4784 0.3145 0.0
C148 C 0.4923 0.4141 0.29513 0.0
C149 C 0.50494 0.48429 0.34825 0.0
O150 O 0.52301 0.482 0.34595 0.0
O151 O 0.48918 0.47562 0.31668 0.0
O152 O 0.55902 0.46789 0.34711 0.0
O153 O 0.56642 0.48027 0.27423 0.0
O154 O 0.56916 0.06052 0.273 0.0
Cd155 Cd 0.53326 0.03833 0.26421 0.0
Cd156 Cd 0.53354 0.07825 0.29168 0.0
O157 O 0.56818 0.09356 0.27207 0.0
O158 O 0.52917 0.01368 0.21831 0.0
O159 O 0.51754 0.03954 0.20465 0.0
C160 C 0.52003 0.02225 0.19001 0.0
C161 C 0.51696 0.10261 0.29411 0.0
C162 C 0.57985 0.0829 0.27308 0.0
C163 C 0.5163 0.03691 0.35901 0.0
O164 O 0.52468 0.05874 0.35184 0.0
O165 O 0.515 0.02349 0.32566 0.0
O166 O 0.53491 0.10672 0.31891 0.0
O167 O 0.50886 0.08515 0.26535 0.0
O168 O 0.50493 0.93612 0.75871 0.0
Cd169 Cd 0.4937 0.95973 0.77375 0.0
Cd170 Cd 0.4508 0.9232 0.73147 0.0
O171 O 0.47087 0.90725 0.73294 0.0
O172 O 0.51455 0.9806 0.82457 0.0
O173 O 0.47601 0.9573 0.83322 0.0
C174 C 0.49613 0.97246 0.85104 0.0
C175 C 0.41046 0.8968 0.71856 0.0
C176 C 0.49255 0.91546 0.74224 0.0
C177 C 0.4792 0.97203 0.68509 0.0
O178 O 0.46185 0.95118 0.68699 0.0
O179 O 0.49449 0.98 0.71756 0.0
O180 O 0.4263 0.90026 0.68829 0.0
O181 O 0.41742 0.90783 0.75779 0.0
O182 O 0.05093 0.56719 0.76054 0.0
Cd183 Cd 0.02935 0.53169 0.77421 0.0
Cd184 Cd 0.06756 0.52888 0.7407 0.0
O185 O 0.08272 0.56474 0.74585 0.0
O186 O 0.00653 0.52715 0.82491 0.0
O187 O 0.03468 0.51799 0.83261 0.0
C188 C 0.01718 0.51918 0.85068 0.0
C189 C 0.09355 0.51408 0.73946 0.0
C190 C 0.07273 0.57697 0.75027 0.0
C191 C 0.02185 0.50709 0.68435 0.0
O192 O 0.04345 0.5132 0.68828 0.0
O193 O 0.01139 0.51143 0.71696 0.0
O194 O 0.09403 0.52827 0.70809 0.0
O195 O 0.07898 0.50904 0.77376 0.0
O196 O 0.4162 0.48595 0.76349 0.0
Cd197 Cd 0.45207 0.49883 0.77065 0.0
Cd198 Cd 0.45175 0.53892 0.73929 0.0
O199 O 0.41715 0.51996 0.75923 0.0
O200 O 0.4554 0.4776 0.81624 0.0
O201 O 0.46865 0.51537 0.83009 0.0
C202 C 0.46533 0.49524 0.84456 0.0
C203 C 0.46796 0.57968 0.73117 0.0
C204 C 0.40552 0.49764 0.76156 0.0
C205 C 0.46845 0.51278 0.6748 0.0
O206 O 0.46084 0.52691 0.68142 0.0
O207 O 0.4694 0.50068 0.7086 0.0
O208 O 0.45066 0.5649 0.70601 0.0
O209 O 0.47539 0.5714 0.76368 0.0
O210 O 0.59768 0.84545 0.60698 0.0
Cd211 Cd 0.62098 0.83326 0.59649 0.0
Cd212 Cd 0.58162 0.79149 0.63115 0.0
O213 O 0.56569 0.81107 0.61969 0.0
O214 O 0.64418 0.85411 0.54837 0.0
O215 O 0.61979 0.816 0.53731 0.0
C216 C 0.63613 0.83603 0.52114 0.0
C217 C 0.55594 0.75089 0.64093 0.0
C218 C 0.57562 0.83326 0.61479 0.0
C219 C 0.62705 0.81825 0.6895 0.0
O220 O 0.60559 0.80262 0.68435 0.0
O221 O 0.63835 0.83231 0.65622 0.0
O222 O 0.55593 0.76618 0.66878 0.0
O223 O 0.56976 0.75858 0.60513 0.0
O224 O 0.14307 0.75071 0.60598 0.0
Cd225 Cd 0.15541 0.78586 0.5916 0.0
Cd226 Cd 0.19788 0.78987 0.62609 0.0
O227 O 0.17755 0.75395 0.62187 0.0
O228 O 0.13466 0.78725 0.54226 0.0
O229 O 0.17282 0.8006 0.53173 0.0
C230 C 0.15283 0.7967 0.51499 0.0
C231 C 0.23864 0.80454 0.63294 0.0
C232 C 0.15535 0.74137 0.61711 0.0
C233 C 0.17223 0.81087 0.68091 0.0
O234 O 0.18827 0.80559 0.67631 0.0
O235 O 0.15695 0.8058 0.64896 0.0
O236 O 0.22383 0.79068 0.6634 0.0
O237 O 0.23032 0.80936 0.59642 0.0
O238 O 0.23743 0.39877 0.59936 0.0
Cd239 Cd 0.20431 0.37073 0.58843 0.0
Cd240 Cd 0.18905 0.39719 0.64165 0.0
O241 O 0.22526 0.41588 0.64968 0.0
O242 O 0.20761 0.35203 0.53723 0.0
O243 O 0.18498 0.36808 0.5315 0.0
C244 C 0.19343 0.35595 0.51263 0.0
C245 C 0.17176 0.42027 0.65855 0.0
C246 C 0.2419 0.4146 0.62963 0.0
C247 C 0.17692 0.34927 0.67557 0.0
O248 O 0.17105 0.36495 0.67379 0.0
O249 O 0.19129 0.34905 0.64604 0.0
O250 O 0.18187 0.4145 0.68996 0.0
O251 O 0.17146 0.41308 0.61648 0.0
H252 H 0.21168 0.33339 0.46296 0.0
H253 H 0.16261 0.35901 0.45168 0.0
H254 H 0.20431 0.32072 0.38187 0.0
H255 H 0.15527 0.34628 0.36983 0.0
H256 H 0.13286 0.29598 0.23851 0.0
H257 H 0.13791 0.30906 0.32009 0.0
H258 H 0.21344 0.34113 0.30512 0.0
H259 H 0.2085 0.32811 0.22427 0.0
C260 C 0.19924 0.33627 0.44324 0.0
C261 C 0.18782 0.34734 0.4638 0.0
C262 C 0.19512 0.32911 0.39661 0.0
C263 C 0.17938 0.3327 0.36931 0.0
C264 C 0.16744 0.34321 0.39007 0.0
C265 C 0.17172 0.35058 0.43684 0.0
C266 C 0.15053 0.30595 0.25262 0.0
C267 C 0.17026 0.31087 0.22494 0.0
C268 C 0.15342 0.31351 0.29924 0.0
C269 C 0.17606 0.32591 0.31913 0.0
C270 C 0.19574 0.33127 0.29105 0.0
C271 C 0.19289 0.3239 0.24457 0.0
H272 H 0.62908 0.80121 0.45872 0.0
H273 H 0.66236 0.87679 0.47257 0.0
H274 H 0.64172 0.80605 0.37665 0.0
H275 H 0.67457 0.88148 0.39089 0.0
H276 H 0.66339 0.87718 0.23157 0.0
H277 H 0.65135 0.87026 0.31339 0.0
H278 H 0.6814 0.82519 0.32773 0.0
H279 H 0.69388 0.83238 0.24552 0.0
C280 C 0.63916 0.81882 0.44437 0.0
C281 C 0.64467 0.83861 0.47219 0.0
C282 C 0.64644 0.82157 0.3975 0.0
C283 C 0.65898 0.84413 0.37735 0.0
C284 C 0.66473 0.86387 0.40535 0.0
C285 C 0.65782 0.86116 0.45224 0.0
C286 C 0.66737 0.86569 0.25197 0.0
C287 C 0.67967 0.85538 0.23199 0.0
C288 C 0.66056 0.86184 0.29893 0.0
C289 C 0.66555 0.8473 0.32699 0.0
C290 C 0.67727 0.83643 0.30684 0.0
C291 C 0.68447 0.84061 0.25989 0.0
H292 H 0.11226 0.78023 0.46494 0.0
H293 H 0.18786 0.82475 0.45295 0.0
H294 H 0.10792 0.78689 0.38258 0.0
H295 H 0.18335 0.83174 0.37026 0.0
H296 H 0.15548 0.85561 0.23801 0.0
H297 H 0.16259 0.85093 0.32052 0.0
H298 H 0.12132 0.77541 0.30575 0.0
H299 H 0.11455 0.77995 0.22357 0.0
C300 C 0.12795 0.79161 0.44485 0.0
C301 C 0.15042 0.80192 0.4655 0.0
C302 C 0.12545 0.79532 0.39762 0.0
C303 C 0.1453 0.80974 0.37004 0.0
C304 C 0.16776 0.8206 0.39082 0.0
C305 C 0.17032 0.81652 0.43803 0.0
C306 C 0.1481 0.83803 0.25233 0.0
C307 C 0.13442 0.81816 0.22424 0.0
C308 C 0.15224 0.83537 0.29944 0.0
C309 C 0.14238 0.81282 0.31951 0.0
C310 C 0.12896 0.793 0.29127 0.0
C311 C 0.12519 0.79563 0.24414 0.0
H312 H 0.32036 0.19903 0.54567 0.0
H313 H 0.35802 0.1611 0.56307 0.0
H314 H 0.30816 0.19171 0.62738 0.0
H315 H 0.34537 0.15347 0.64515 0.0
H316 H 0.29356 0.12694 0.77715 0.0
H317 H 0.30545 0.13149 0.69461 0.0
H318 H 0.3323 0.20631 0.70433 0.0
H319 H 0.32088 0.20195 0.78646 0.0
C320 C 0.32582 0.18889 0.56676 0.0
C321 C 0.34024 0.18071 0.54784 0.0
C322 C 0.31892 0.18481 0.61364 0.0
C323 C 0.32594 0.17216 0.64263 0.0
C324 C 0.33966 0.16323 0.62349 0.0
C325 C 0.34694 0.16766 0.57661 0.0
C326 C 0.30212 0.14436 0.76167 0.0
C327 C 0.30624 0.16408 0.78835 0.0
C328 C 0.30898 0.14695 0.71455 0.0
C329 C 0.31965 0.16923 0.69307 0.0
C330 C 0.32391 0.18891 0.71987 0.0
C331 C 0.31746 0.1864 0.767 0.0
H332 H 0.80786 0.19365 0.57695 0.0
H333 H 0.81007 0.13067 0.54268 0.0
H334 H 0.81626 0.18962 0.65895 0.0
H335 H 0.81913 0.12711 0.62419 0.0
H336 H 0.85612 0.14359 0.77 0.0
H337 H 0.85352 0.1533 0.68814 0.0
H338 H 0.78921 0.15363 0.7193 0.0
H339 H 0.79136 0.14327 0.80058 0.0
C340 C 0.81058 0.17923 0.58676 0.0
C341 C 0.80822 0.16241 0.55354 0.0
C342 C 0.8153 0.17691 0.63358 0.0
C343 C 0.81837 0.15809 0.64766 0.0
C344 C 0.81701 0.14187 0.61408 0.0
C345 C 0.81172 0.14385 0.56757 0.0
C346 C 0.84159 0.14598 0.75941 0.0
C347 C 0.82388 0.14257 0.79153 0.0
C348 C 0.84008 0.15147 0.71268 0.0
C349 C 0.8212 0.15425 0.69766 0.0
C350 C 0.80403 0.15175 0.73017 0.0
C351 C 0.80521 0.1457 0.77653 0.0
H352 H 0.83743 0.64147 0.81319 0.0
H353 H 0.84595 0.70942 0.77875 0.0
H354 H 0.83072 0.63032 0.73072 0.0
H355 H 0.83956 0.69831 0.6961 0.0
H356 H 0.86181 0.67907 0.5536 0.0
H357 H 0.8637 0.68984 0.63586 0.0
H358 H 0.80113 0.62312 0.6642 0.0
H359 H 0.79899 0.6124 0.58155 0.0
C360 C 0.83767 0.65396 0.78808 0.0
C361 C 0.84227 0.67636 0.80253 0.0
C362 C 0.83373 0.64751 0.74088 0.0
C363 C 0.83469 0.66347 0.70696 0.0
C364 C 0.83886 0.68571 0.72147 0.0
C365 C 0.84239 0.69201 0.7688 0.0
C366 C 0.84834 0.66675 0.57727 0.0
C367 C 0.83027 0.64486 0.56104 0.0
C368 C 0.84936 0.67299 0.62433 0.0
C369 C 0.83256 0.65733 0.65645 0.0
C370 C 0.81437 0.63549 0.64024 0.0
C371 C 0.8131 0.62941 0.59293 0.0
H372 H 0.01293 0.52501 0.15087 0.0
H373 H 0.94431 0.4659 0.11814 0.0
H374 H 0.02421 0.52818 0.06861 0.0
H375 H 0.95559 0.46929 0.03566 0.0
H376 H 0.97573 0.50977 0.89175 0.0
H377 H 0.96457 0.50114 0.97393 0.0
H378 H 0.03106 0.50509 1.00365 0.0
H379 H 0.04219 0.51347 0.9211 0.0
C380 C 0.00033 0.51255 0.1262 0.0
C381 C 0.97769 0.49525 0.14101 0.0
C382 C 0.00685 0.5143 0.07913 0.0
C383 C -0.00924 0.49903 0.04571 0.0
C384 C 0.96829 0.48139 0.06064 0.0
C385 C 0.9619 0.47938 0.10787 0.0
C386 C 0.98789 0.50858 0.91569 0.0
C387 C 0.00987 0.51237 0.89994 0.0
C388 C 0.98143 0.5035 0.9627 0.0
C389 C -0.00305 0.50246 0.9952 0.0
C390 C 0.0188 0.5059 0.97939 0.0
C391 C 0.02511 0.51059 0.93214 0.0
H392 H 0.52361 0.49683 0.12286 0.0
H393 H 0.4484 0.44905 0.13056 0.0
H394 H 0.51964 0.50458 0.04037 0.0
H395 H 0.44458 0.45654 0.04847 0.0
H396 H 0.45188 0.45378 0.88963 0.0
H397 H 0.45865 0.44785 0.97101 0.0
H398 H 0.49894 0.52308 0.99128 0.0
H399 H 0.49191 0.52915 0.90956 0.0
C400 C 0.50627 0.488 0.10702 0.0
C401 C 0.48633 0.47231 0.1333 0.0
C402 C 0.504 0.49252 0.0599 0.0
C403 C 0.48182 0.48106 0.03794 0.0
C404 C 0.46193 0.46545 0.0643 0.0
C405 C 0.46413 0.46126 0.11143 0.0
C406 C 0.46236 0.46911 0.9112 0.0
C407 C 0.47129 0.49196 0.89305 0.0
C408 C 0.46612 0.46568 0.95793 0.0
C409 C 0.4792 0.48499 0.98759 0.0
C410 C 0.48886 0.50787 0.96917 0.0
C411 C 0.48477 0.51133 0.92245 0.0
H412 H 0.49403 0.03072 0.12558 0.0
H413 H 0.53267 -0.00615 0.14409 0.0
H414 H 0.48676 0.01805 0.04361 0.0
H415 H 0.5257 0.98162 0.06243 0.0
H416 H 0.53628 -0.00549 0.90294 0.0
H417 H 0.54029 0.0055 0.98524 0.0
H418 H 0.46525 0.97839 0.99432 0.0
H419 H 0.46107 0.96693 0.91163 0.0
C420 C 0.50082 0.01981 0.11231 0.0
C421 C 0.51397 0.01334 0.14137 0.0
C422 C 0.49659 0.01251 0.06548 0.0
C423 C 0.50581 -0.00101 0.04663 0.0
C424 C 0.51857 -0.00779 0.07591 0.0
C425 C 0.52245 -0.00087 0.12277 0.0
C426 C 0.5206 0.99092 0.92232 0.0
C427 C 0.49834 0.9798 0.90072 0.0
C428 C 0.52291 -0.00289 0.96955 0.0
C429 C 0.50307 -0.00729 0.99621 0.0
C430 C 0.48084 0.98205 0.97451 0.0
C431 C 0.47845 0.97543 0.9273 0.0
H432 H 0.13422 0.32153 0.96148 0.0
H433 H 0.19089 0.30616 0.95649 0.0
H434 H 0.13979 0.33165 0.87874 0.0
H435 H 0.1951 0.31372 0.87312 0.0
H436 H 0.20912 0.34572 0.72777 0.0
H437 H 0.20621 0.33728 0.81058 0.0
H438 H 0.13184 0.31536 0.80682 0.0
H439 H 0.13576 0.32631 0.72458 0.0
C440 C 0.14819 0.3208 0.94258 0.0
C441 C 0.16249 0.31364 0.9652 0.0
C442 C 0.15103 0.32594 0.89482 0.0
C443 C 0.16752 0.32295 0.86826 0.0
C444 C 0.18242 0.31663 0.89184 0.0
C445 C 0.18015 0.31238 0.93989 0.0
C446 C 0.192 0.33842 0.74449 0.0
C447 C 0.1726 0.33647 0.71989 0.0
C448 C 0.19029 0.33365 0.79232 0.0
C449 C 0.16887 0.32606 0.81637 0.0
C450 C 0.14892 0.3221 0.79037 0.0
C451 C 0.1509 0.32774 0.74287 0.0
H452 H 0.6051 0.79345 0.76797 0.0
H453 H 0.67256 0.84913 0.71788 0.0
H454 H 0.62052 0.79945 0.84692 0.0
H455 H 0.68803 0.85494 0.79772 0.0
H456 H 0.71242 0.84015 0.93749 0.0
H457 H 0.69645 0.83177 0.85886 0.0
H458 H 0.63424 0.83222 0.90744 0.0
H459 H 0.65032 0.8409 0.98689 0.0
C460 C 0.62332 0.80688 0.77362 0.0
C461 C 0.63762 0.82087 0.73642 0.0
C462 C 0.63204 0.81038 0.81906 0.0
C463 C 0.65535 0.82774 0.82845 0.0
C464 C 0.66996 0.84134 0.79128 0.0
C465 C 0.66113 0.83803 0.74565 0.0
C466 C 0.69521 0.83829 0.93178 0.0
C467 C 0.68268 0.84135 0.96862 0.0
C468 C 0.68621 0.83366 0.88653 0.0
C469 C 0.66432 0.83167 0.877 0.0
C470 C 0.65122 0.83368 0.91397 0.0
C471 C 0.66037 0.83858 0.95941 0.0
H472 H 0.15574 0.81174 0.97715 0.0
H473 H 0.14224 0.86688 0.93219 0.0
H474 H 0.16544 0.80735 0.89637 0.0
H475 H 0.1516 0.86219 0.85222 0.0
H476 H 0.1373 0.81931 0.71179 0.0
H477 H 0.13156 0.8287 0.7919 0.0
H478 H 0.19649 0.83209 0.83375 0.0
H479 H 0.2025 0.82312 0.75433 0.0
C480 C 0.1551 0.82306 0.95033 0.0
C481 C 0.14816 0.83958 0.96122 0.0
C482 C 0.16063 0.82056 0.90417 0.0
C483 C 0.15903 0.83432 0.86816 0.0
C484 C 0.15268 0.85119 0.87923 0.0
C485 C 0.14748 0.85391 0.92522 0.0
C486 C 0.15056 0.82252 0.73786 0.0
C487 C 0.17022 0.82026 0.72665 0.0
C488 C 0.14726 0.82782 0.78367 0.0
C489 C 0.16344 0.83073 0.81899 0.0
C490 C 0.18356 0.82951 0.80734 0.0
C491 C 0.18701 0.82451 0.76167 0.0
H492 H 0.31682 0.16265 0.3009 0.0
H493 H 0.38796 0.18935 0.24985 0.0
H494 H 0.30208 0.15254 0.22075 0.0
H495 H 0.37321 0.17925 0.17044 0.0
H496 H 0.33739 0.18449 0.03262 0.0
H497 H 0.35414 0.19293 0.11144 0.0
H498 H 0.29935 0.12446 0.15776 0.0
H499 H 0.2827 0.11592 0.07963 0.0
C500 C 0.32926 0.16624 0.27277 0.0
C501 C 0.35352 0.17678 0.28186 0.0
C502 C 0.32085 0.1604 0.22695 0.0
C503 C 0.33656 0.16519 0.18943 0.0
C504 C 0.36075 0.1756 0.19858 0.0
C505 C 0.36912 0.18122 0.24423 0.0
C506 C 0.32923 0.17108 0.05939 0.0
C507 C 0.30861 0.14964 0.04986 0.0
C508 C 0.33875 0.17593 0.10452 0.0
C509 C 0.32775 0.15947 0.14083 0.0
C510 C 0.30787 0.13764 0.1307 0.0
C511 C 0.29848 0.13274 0.08574 0.0
H512 H 0.79663 0.11808 0.05687 0.0
H513 H 0.8566 0.18839 0.05228 0.0
H514 H 0.79182 0.12229 0.13946 0.0
H515 H 0.85049 0.194 0.13424 0.0
H516 H 0.85188 0.19198 0.29007 0.0
H517 H 0.85633 0.18554 0.20758 0.0
H518 H 0.78116 0.13603 0.19994 0.0
H519 H 0.77777 0.1408 0.2829 0.0
C520 C 0.80803 0.13494 0.0733 0.0
C521 C 0.82676 0.15304 0.04838 0.0
C522 C 0.80538 0.13742 0.12095 0.0
C523 C 0.82095 0.15844 0.14449 0.0
C524 C 0.83864 0.17721 0.11822 0.0
C525 C 0.84184 0.17432 0.07089 0.0
C526 C 0.83667 0.17903 0.27073 0.0
C527 C 0.81467 0.16636 0.29261 0.0
C528 C 0.83897 0.17573 0.22314 0.0
C529 C 0.81903 0.16052 0.19613 0.0
C530 C 0.79712 0.14751 0.219 0.0
C531 C 0.79508 0.15015 0.2668 0.0
H532 H 0.82043 0.65001 0.05284 0.0
H533 H 0.84187 0.72133 0.09464 0.0
H534 H 0.81134 0.63745 0.13462 0.0
H535 H 0.8331 0.70878 0.1756 0.0
H536 H 0.84739 0.67847 0.31473 0.0
H537 H 0.85193 0.69316 0.23449 0.0
H538 H 0.7829 0.63535 0.20004 0.0
H539 H 0.77806 0.62086 0.27978 0.0
C540 C 0.82294 0.66291 0.0792 0.0
C541 C 0.83193 0.68664 0.0671 0.0
C542 C 0.81773 0.65575 0.12592 0.0
C543 C 0.82172 0.67225 0.1613 0.0
C544 C 0.83012 0.69579 0.14907 0.0
C545 C 0.835 0.70287 0.10253 0.0
C546 C 0.83295 0.66926 0.2904 0.0
C547 C 0.8125 0.64838 0.30364 0.0
C548 C 0.83558 0.67759 0.24446 0.0
C549 C 0.8179 0.66507 0.21102 0.0
C550 C 0.79695 0.64504 0.22494 0.0
C551 C 0.79419 0.63689 0.27079 0.0
H552 H 0.00373 0.5041 0.38891 0.0
H553 H 0.93333 0.45331 0.4354 0.0
H554 H 0.01792 0.5078 0.46917 0.0
H555 H 0.94757 0.45701 0.5151 0.0
H556 H 0.97835 0.49855 0.65484 0.0
H557 H 0.9626 0.4888 0.57546 0.0
H558 H 0.02349 0.48449 0.53188 0.0
H559 H 0.03925 0.4942 0.6107 0.0
C560 C -0.00863 0.49354 0.41602 0.0
C561 C 0.9674 0.47854 0.40573 0.0
C562 C -0.00052 0.49559 0.46194 0.0
C563 C 0.98377 0.48277 0.49837 0.0
C564 C 0.95999 0.46732 0.48784 0.0
C565 C 0.95191 0.46515 0.44205 0.0
C566 C 0.98813 0.49507 0.62855 0.0
C567 C 0.01014 0.49738 0.63904 0.0
C568 C 0.97914 0.4895 0.58311 0.0
C569 C -0.00797 0.48623 0.54742 0.0
C570 C 0.01341 0.48736 0.5585 0.0
C571 C 0.02233 0.49279 0.6038 0.0
H572 H 0.45943 0.52952 0.59529 0.0
H573 H 0.49164 0.48985 0.64447 0.0
H574 H 0.46884 0.52505 0.51522 0.0
H575 H 0.50117 0.48549 0.56344 0.0
H576 H 0.53612 0.50523 0.4195 0.0
H577 H 0.52762 0.51269 0.49831 0.0
H578 H 0.45631 0.49151 0.4573 0.0
H579 H 0.46463 0.48367 0.37795 0.0
C580 C 0.46863 0.5199 0.58911 0.0
C581 C 0.47487 0.51008 0.62645 0.0
C582 C 0.47386 0.51725 0.54307 0.0
C583 C 0.4857 0.50495 0.53314 0.0
C584 C 0.49217 0.49525 0.57028 0.0
C585 C 0.48665 0.49765 0.61657 0.0
C586 C 0.51867 0.50246 0.42687 0.0
C587 C 0.50096 0.49363 0.39236 0.0
C588 C 0.5138 0.50654 0.47224 0.0
C589 C 0.49122 0.50223 0.48409 0.0
C590 C 0.47389 0.49489 0.44904 0.0
C591 C 0.47869 0.49055 0.40356 0.0
H592 H 0.44812 0.96067 0.61332 0.0
H593 H 0.51869 0.01266 0.65606 0.0
H594 H 0.45635 0.97691 0.53472 0.0
H595 H 0.52678 0.02904 0.57688 0.0
H596 H 0.52374 0.06286 0.43788 0.0
H597 H 0.51381 0.04908 0.518 0.0
H598 H 0.48337 0.97719 0.47068 0.0
H599 H 0.49337 0.99095 0.38979 0.0
C600 C 0.4653 0.97583 0.60623 0.0
C601 C 0.48287 0.98523 0.64097 0.0
C602 C 0.47002 0.98497 0.56101 0.0
C603 C 0.49231 0.00389 0.54955 0.0
C604 C 0.50943 0.01436 0.58486 0.0
C605 C 0.50477 0.00507 0.63022 0.0
C606 C 0.51483 0.04406 0.4443 0.0
C607 C 0.50931 0.02795 0.4073 0.0
C608 C 0.50929 0.03624 0.49034 0.0
C609 C 0.49786 0.01213 0.50052 0.0
C610 C 0.49202 -0.00408 0.46365 0.0
C611 C 0.49781 0.00377 0.41743 0.0
H612 H 0.13652 0.19904 0.02192 0.0
H613 H 0.20254 0.24731 0.08896 0.0
H614 H 0.15496 0.17852 0.9864 0.0
H615 H 0.22079 0.22648 0.05398 0.0
H616 H 0.25341 0.20402 0.94039 0.0
H617 H 0.23259 0.22263 0.97402 0.0
H618 H 0.17258 0.15413 1.0038 0.0
H619 H 0.19312 0.13546 0.9695 0.0
C620 C 0.15483 0.205 0.02988 0.0
C621 C 0.1681 0.22495 0.05803 0.0
C622 C 0.16539 0.19324 1.00942 0.0
C623 C 0.18943 0.20118 0.01668 0.0
C624 C 0.20237 0.22032 0.04682 0.0
C625 C 0.19181 0.23207 0.06735 0.0
C626 C 0.23561 0.19291 0.95327 0.0
C627 C 0.22502 0.16825 0.95253 0.0
C628 C 0.2238 0.20358 0.97308 0.0
C629 C 0.20115 0.18982 0.9924 0.0
C630 C 0.19003 0.16519 0.98926 0.0
C631 C 0.20184 0.15451 0.96955 0.0
H632 H 0.78262 0.04309 0.9335 0.0
H633 H 0.84898 0.06143 0.99968 0.0
H634 H 0.76455 0.00429 0.96996 0.0
H635 H 0.83076 0.02295 0.03689 0.0
H636 H 0.73255 0.94865 0.08274 0.0
H637 H 0.75263 0.98802 0.04865 0.0
H638 H 0.81401 0.98147 0.02151 0.0
H639 H 0.79427 0.94246 0.05652 0.0
C640 C 0.79344 0.03877 0.95532 0.0
C641 C 0.81723 0.05542 0.96375 0.0
C642 C 0.783 0.01665 0.97673 0.0
C643 C 0.79612 0.0107 1.00697 0.0
C644 C 0.82017 0.02695 0.01372 0.0
C645 C 0.83061 0.04904 0.99231 0.0
C646 C 0.7505 0.95578 0.07038 0.0
C647 C 0.76173 0.94231 0.07213 0.0
C648 C 0.76188 0.97822 0.05026 0.0
C649 C 0.78473 0.98767 0.03155 0.0
C650 C 0.79642 0.97473 0.03564 0.0
C651 C 0.78507 0.95233 0.05578 0.0
H652 H 0.93279 0.78487 0.97512 0.0
H653 H 0.93938 0.72387 0.94474 0.0
H654 H 0.97102 0.80381 1.01177 0.0
H655 H 0.97883 0.74367 0.9791 0.0
H656 H 0.03799 0.77484 0.08645 0.0
H657 H -0.00128 0.75519 0.05134 0.0
H658 H 0.01085 0.82238 0.99977 0.0
H659 H 0.04896 0.84188 0.03706 0.0
C660 C 0.94272 0.77572 0.97501 0.0
C661 C 0.93299 0.75282 0.95687 0.0
C662 C 0.96482 0.78668 0.9961 0.0
C663 C 0.97816 0.77533 0.99869 0.0
C664 C 0.96887 0.75277 0.97872 0.0
C665 C 0.94642 0.74155 0.95834 0.0
C666 C 0.03195 0.78538 0.06846 0.0
C667 C 0.04653 0.80993 0.06493 0.0
C668 C 0.0096 0.7741 0.04768 0.0
C669 C 0.00156 0.78712 0.02228 0.0
C670 C 0.01608 0.81172 0.01967 0.0
C671 C 0.03809 0.82297 0.04116 0.0
H672 H 0.81664 0.77143 0.90914 0.0
H673 H 0.86052 0.79642 0.03246 0.0
H674 H 0.7975 0.79381 0.93237 0.0
H675 H 0.8413 0.81838 0.05551 0.0
H676 H 0.77776 0.82585 0.10748 0.0
H677 H 0.7991 0.80596 0.08221 0.0
H678 H 0.80868 0.83707 0.94517 0.0
H679 H 0.78767 0.85705 0.97019 0.0
C680 C 0.82239 0.78189 0.94075 0.0
C681 C 0.84004 0.78212 0.96894 0.0
C682 C 0.81145 0.79464 0.95406 0.0
C683 C 0.8178 0.80756 0.996 0.0
C684 C 0.83586 0.80829 0.0234 0.0
C685 C 0.84696 0.79583 1.00989 0.0
C686 C 0.7846 0.82858 0.07215 0.0
C687 C 0.78111 0.84305 0.04093 0.0
C688 C 0.79681 0.81724 0.05771 0.0
C689 C 0.8054 0.81996 1.01168 0.0
C690 C 0.80203 0.83453 0.98066 0.0
C691 C 0.79016 0.84608 0.99521 0.0
H692 H 0.16683 0.94236 0.11521 0.0
H693 H 0.12409 0.92594 0.99066 0.0
H694 H 0.1878 0.98404 0.09283 0.0
H695 H 0.14503 0.96728 0.96854 0.0
H696 H 0.20967 0.03704 0.9178 0.0
H697 H 0.18703 -0.00422 0.94246 0.0
H698 H 0.17951 0.01767 0.08066 0.0
H699 H 0.20194 0.0587 0.0563 0.0
C700 C 0.16172 0.94766 0.08351 0.0
C701 C 0.14388 0.93087 0.05469 0.0
C702 C 0.1737 0.97145 0.07068 0.0
C703 C 0.16817 0.97874 0.02866 0.0
C704 C 0.14989 0.96206 1.00068 0.0
C705 C 0.1378 0.93841 0.01365 0.0
C706 C 0.20306 0.033 0.9533 0.0
C707 C 0.20752 0.05108 0.98501 0.0
C708 C 0.19009 0.00944 0.96739 0.0
C709 C 0.18162 0.00362 0.01352 0.0
C710 C 0.18604 0.0217 0.04508 0.0
C711 C 0.19874 0.04517 0.03092 0.0
H712 H 0.94369 0.17705 0.91298 0.0
H713 H 0.92756 0.14602 0.05104 0.0
H714 H 0.98576 0.19742 0.93199 0.0
H715 H 0.96935 0.16602 0.06961 0.0
H716 H 0.04405 0.22654 0.10273 0.0
H717 H 0.00199 0.20633 0.08369 0.0
H718 H 0.01702 0.18795 0.94804 0.0
H719 H 0.05882 0.20826 0.96663 0.0
C720 C 0.94912 0.17444 0.94716 0.0
C721 C 0.93232 0.15995 0.98045 0.0
C722 C 0.97317 0.18605 0.95804 0.0
C723 C 0.98081 0.18339 1.00242 0.0
C724 C 0.96399 0.16871 0.03543 0.0
C725 C 0.94004 0.15711 0.02457 0.0
C726 C 0.03832 0.21809 0.06898 0.0
C727 C 0.05474 0.21899 0.03624 0.0
C728 C 0.01427 0.20649 0.05809 0.0
C729 C 0.00625 0.19567 0.01424 0.0
C730 C 0.02269 0.19643 0.98178 0.0
C731 C 0.04663 0.20793 0.99267 0.0
H732 H 0.87799 0.59551 0.41676 0.0
H733 H 0.81354 0.54526 0.34753 0.0
H734 H 0.89808 0.576 0.38306 0.0
H735 H 0.83367 0.52676 0.31225 0.0
H736 H 0.8684 0.48254 0.2983 0.0
H737 H 0.84902 0.50262 0.32973 0.0
H738 H 0.91316 0.56959 0.31195 0.0
H739 H 0.93309 0.54915 0.2824 0.0
C740 C 0.86812 0.5803 0.39452 0.0
C741 C 0.84412 0.57181 0.3853 0.0
C742 C 0.87968 0.5693 0.37469 0.0
C743 C 0.86754 0.54979 0.34478 0.0
C744 C 0.84354 0.5414 0.33578 0.0
C745 C 0.83196 0.5521 0.35607 0.0
C746 C 0.87837 0.50158 0.30035 0.0
C747 C 0.90235 0.51421 0.28786 0.0
C748 C 0.86718 0.51317 0.31839 0.0
C749 C 0.87951 0.53779 0.3237 0.0
C750 C 0.90325 0.55058 0.30927 0.0
C751 C 0.91459 0.5389 0.2917 0.0
H752 H 0.51155 0.39399 0.3495 0.0
H753 H 0.44727 0.37821 0.27746 0.0
H754 H 0.49188 0.35504 0.38412 0.0
H755 H 0.42775 0.33863 0.31082 0.0
H756 H 0.39226 0.27815 0.41274 0.0
H757 H 0.41279 0.31861 0.384 0.0
H758 H 0.47645 0.31492 0.36661 0.0
H759 H 0.45633 0.27506 0.39689 0.0
C760 C 0.49331 0.38205 0.34029 0.0
C761 C 0.48099 0.38927 0.31065 0.0
C762 C 0.48201 0.35964 0.36021 0.0
C763 C 0.45816 0.34372 0.3506 0.0
C764 C 0.446 0.35064 0.3198 0.0
C765 C 0.45727 0.37322 0.30015 0.0
C766 C 0.41078 0.28618 0.40373 0.0
C767 C 0.4226 0.27331 0.40697 0.0
C768 C 0.42246 0.30926 0.38664 0.0
C769 C 0.44617 0.3199 0.37222 0.0
C770 C 0.45825 0.30739 0.37765 0.0
C771 C 0.44666 0.28445 0.39506 0.0
H772 H 0.61092 0.06659 0.28045 0.0
H773 H 0.60627 0.12985 0.29213 0.0
H774 H 0.65061 0.08752 0.31308 0.0
H775 H 0.64532 0.15036 0.32638 0.0
H776 H 0.72461 0.186 0.34974 0.0
H777 H 0.68597 0.16648 0.31368 0.0
H778 H 0.66866 0.10228 0.38753 0.0
H779 H 0.70792 0.12163 0.42227 0.0
C780 C 0.61846 0.08502 0.28938 0.0
C781 C 0.60536 0.09649 0.28382 0.0
C782 C 0.64108 0.09693 0.30875 0.0
C783 C 0.651 0.1205 0.32326 0.0
C784 C 0.63834 0.13227 0.31544 0.0
C785 C 0.61587 0.12045 0.29569 0.0
C786 C 0.71249 0.16781 0.35895 0.0
C787 C 0.71945 0.15536 0.38879 0.0
C788 C 0.69026 0.15659 0.33815 0.0
C789 C 0.67428 0.13269 0.34712 0.0
C790 C 0.68077 0.12054 0.37887 0.0
C791 C 0.70315 0.13173 0.39937 0.0
H792 H 0.47096 0.0896 0.27644 0.0
H793 H 0.536 0.14604 0.33275 0.0
H794 H 0.45021 0.11004 0.30241 0.0
H795 H 0.51538 0.16633 0.35842 0.0
H796 H 0.47333 0.20556 0.34871 0.0
H797 H 0.49433 0.18574 0.3225 0.0
H798 H 0.44014 0.1206 0.38315 0.0
H799 H 0.41899 0.14053 0.40965 0.0
C800 C 0.48087 0.10654 0.29352 0.0
C801 C 0.50506 0.11628 0.30252 0.0
C802 C 0.46897 0.11805 0.3089 0.0
C803 C 0.48119 0.13961 0.33283 0.0
C804 C 0.50556 0.14975 0.34002 0.0
C805 C 0.51734 0.13815 0.32526 0.0
C806 C 0.46604 0.18708 0.35705 0.0
C807 C 0.44456 0.17457 0.3813 0.0
C808 C 0.47805 0.17575 0.34198 0.0
C809 C 0.4687 0.15162 0.35039 0.0
C810 C 0.44752 0.13918 0.3757 0.0
C811 C 0.43562 0.15062 0.39138 0.0
H812 H 0.85357 0.28245 0.40279 0.0
H813 H 0.79331 0.26643 0.31637 0.0
H814 H 0.873 0.32353 0.37591 0.0
H815 H 0.8125 0.30736 0.29036 0.0
H816 H 0.84664 0.38961 0.31164 0.0
H817 H 0.82647 0.34789 0.33258 0.0
H818 H 0.88803 0.34422 0.29185 0.0
H819 H 0.90815 0.386 0.2699 0.0
C820 C 0.84439 0.28779 0.37865 0.0
C821 C 0.82196 0.27135 0.3617 0.0
C822 C 0.85557 0.31114 0.36292 0.0
C823 C 0.84426 0.31841 0.33079 0.0
C824 C 0.82156 0.30213 0.31505 0.0
C825 C 0.81061 0.27877 0.33001 0.0
C826 C 0.85565 0.37975 0.30616 0.0
C827 C 0.87888 0.39093 0.28898 0.0
C828 C 0.84416 0.35596 0.31828 0.0
C829 C 0.85587 0.34305 0.31433 0.0
C830 C 0.87879 0.35396 0.29562 0.0
C831 C 0.89014 0.3777 0.28253 0.0
H832 H 0.60932 0.48305 0.25602 0.0
H833 H 0.59569 0.49734 0.39626 0.0
H834 H 0.65099 0.49969 0.27516 0.0
H835 H 0.63729 0.51571 0.41464 0.0
H836 H 0.7111 0.53439 0.45029 0.0
H837 H 0.6691 0.51178 0.43168 0.0
H838 H 0.68518 0.53401 0.2872 0.0
H839 H 0.72679 0.55467 0.30542 0.0
C840 C 0.61539 0.49006 0.29073 0.0
C841 C 0.59943 0.48894 0.32467 0.0
C842 C 0.63928 0.49975 0.30181 0.0
C843 C 0.64779 0.50921 0.34662 0.0
C844 C 0.63158 0.50814 0.38023 0.0
C845 C 0.60768 0.49783 0.36956 0.0
C846 C 0.70549 0.53407 0.41457 0.0
C847 C 0.7221 0.54612 0.3793 0.0
C848 C 0.68141 0.52132 0.40379 0.0
C849 C 0.67347 0.52105 0.35778 0.0
C850 C 0.69036 0.53315 0.32272 0.0
C851 C 0.71433 0.54523 0.33325 0.0
H852 H 0.5908 0.88057 0.61329 0.0
H853 H 0.52984 0.8127 0.64378 0.0
H854 H 0.57024 0.89995 0.64479 0.0
H855 H 0.50982 0.83197 0.67673 0.0
H856 H 0.4723 0.87371 0.69532 0.0
H857 H 0.49179 0.85443 0.66001 0.0
H858 H 0.55816 0.9069 0.71971 0.0
H859 H 0.53872 0.92689 0.75373 0.0
C860 C 0.57294 0.86978 0.62616 0.0
C861 C 0.56202 0.84508 0.62608 0.0
C862 C 0.56128 0.88089 0.64483 0.0
C863 C 0.53851 0.86754 0.66399 0.0
C864 C 0.52725 0.84284 0.662 0.0
C865 C 0.5388 0.83176 0.64306 0.0
C866 C 0.49101 0.88106 0.70148 0.0
C867 C 0.50395 0.90192 0.72736 0.0
C868 C 0.50221 0.86994 0.68116 0.0
C869 C 0.5266 0.8792 0.6866 0.0
C870 C 0.53943 0.89958 0.71394 0.0
C871 C 0.52823 0.91086 0.734 0.0
H872 H 0.17562 0.71867 0.65911 0.0
H873 H 0.10842 0.70783 0.61041 0.0
H874 H 0.15606 0.68007 0.69497 0.0
H875 H 0.0888 0.66842 0.64468 0.0
H876 H 0.05792 0.60946 0.75248 0.0
H877 H 0.07807 0.64904 0.71894 0.0
H878 H 0.13668 0.63981 0.67945 0.0
H879 H 0.11724 0.60108 0.7146 0.0
C880 C 0.15668 0.70782 0.65506 0.0
C881 C 0.14359 0.71639 0.63181 0.0
C882 C 0.14542 0.68558 0.6757 0.0
C883 C 0.12079 0.6711 0.67305 0.0
C884 C 0.10775 0.6793 0.64829 0.0
C885 C 0.11902 0.70175 0.62805 0.0
C886 C 0.07531 0.61611 0.73742 0.0
C887 C 0.08595 0.60209 0.73634 0.0
C888 C 0.08672 0.63867 0.71759 0.0
C889 C 0.10892 0.64757 0.69598 0.0
C890 C 0.11977 0.63374 0.69622 0.0
C891 C 0.10853 0.6114 0.71642 0.0
H892 H 0.37745 0.51718 0.75075 0.0
H893 H 0.37555 0.45032 0.75078 0.0
H894 H 0.33774 0.49817 0.71856 0.0
H895 H 0.33565 0.4313 0.71931 0.0
H896 H 0.28126 0.41274 0.6045 0.0
H897 H 0.31981 0.43283 0.64194 0.0
H898 H 0.29606 0.46936 0.73289 0.0
H899 H 0.25761 0.44961 0.69504 0.0
C900 C 0.36837 0.49833 0.74497 0.0
C901 C 0.37981 0.48532 0.75283 0.0
C902 C 0.3456 0.48745 0.72646 0.0
C903 C 0.33381 0.46336 0.71546 0.0
C904 C 0.34458 0.45004 0.72634 0.0
C905 C 0.36733 0.46089 0.74493 0.0
C906 C 0.28434 0.42532 0.63195 0.0
C907 C 0.2663 0.42947 0.64687 0.0
C908 C 0.30634 0.4366 0.65382 0.0
C909 C 0.31079 0.45231 0.69096 0.0
C910 C 0.29314 0.45731 0.70442 0.0
C911 C 0.27112 0.446 0.68263 0.0
H912 H 0.151 0.43797 0.60074 0.0
H913 H 0.16798 0.43475 0.74554 0.0
H914 H 0.13319 0.46158 0.62321 0.0
H915 H 0.15049 0.45846 0.76771 0.0
H916 H 0.09179 0.47778 0.79029 0.0
H917 H 0.11118 0.45519 0.77128 0.0
H918 H 0.14621 0.50144 0.65433 0.0
H919 H 0.12682 0.52378 0.67289 0.0
C920 C 0.15097 0.44233 0.63725 0.0
C921 C 0.1609 0.43453 0.67129 0.0
C922 C 0.14091 0.45593 0.65011 0.0
C923 C 0.14052 0.46189 0.69725 0.0
C924 C 0.15034 0.45396 0.73123 0.0
C925 C 0.16046 0.44048 0.71839 0.0
C926 C 0.10392 0.48331 0.76102 0.0
C927 C 0.10767 0.50245 0.73297 0.0
C928 C 0.11499 0.47038 0.75007 0.0
C929 C 0.12993 0.47637 0.71088 0.0
C930 C 0.1344 0.49611 0.68411 0.0
C931 C 0.12343 0.50902 0.69507 0.0
H932 H 0.5018 0.61678 0.78174 0.0
H933 H 0.46132 0.59972 0.65399 0.0
H934 H 0.52296 0.65841 0.75884 0.0
H935 H 0.48257 0.64103 0.63122 0.0
H936 H 0.54754 0.71297 0.58657 0.0
H937 H 0.52587 0.6713 0.60931 0.0
H938 H 0.51161 0.69046 0.74474 0.0
H939 H 0.53285 0.73178 0.72223 0.0
C940 C 0.49734 0.62191 0.74904 0.0
C941 C 0.47985 0.60502 0.71982 0.0
C942 C 0.50942 0.64566 0.73595 0.0
C943 C 0.50444 0.65279 0.69313 0.0
C944 C 0.4869 0.63592 0.66412 0.0
C945 C 0.47462 0.61232 0.67747 0.0
C946 C 0.53961 0.70822 0.62099 0.0
C947 C 0.54182 0.72561 0.65249 0.0
C948 C 0.52725 0.68445 0.63399 0.0
C949 C 0.51727 0.6778 0.67889 0.0
C950 C 0.51939 0.69517 0.71016 0.0
C951 C 0.53139 0.7188 0.69701 0.0
H952 H 0.2754 0.83683 0.57906 0.0
H953 H 0.25957 0.79819 0.70911 0.0
H954 H 0.31723 0.8584 0.60022 0.0
H955 H 0.30113 0.81962 0.72993 0.0
H956 H 0.37182 0.88475 0.77407 0.0
H957 H 0.33026 0.86128 0.75169 0.0
H958 H 0.35093 0.85132 0.61399 0.0
H959 H 0.39222 0.8747 0.63601 0.0
C960 C 0.28086 0.83273 0.61177 0.0
C961 C 0.26419 0.81587 0.6424 0.0
C962 C 0.30477 0.84506 0.6239 0.0
C963 C 0.31234 0.84081 0.66696 0.0
C964 C 0.29574 0.82352 0.69691 0.0
C965 C 0.27195 0.81112 0.6847 0.0
C966 C 0.36745 0.87741 0.73918 0.0
C967 C 0.38528 0.88158 0.70687 0.0
C968 C 0.34371 0.86395 0.72639 0.0
C969 C 0.33743 0.85458 0.681 0.0
C970 C 0.35526 0.85856 0.64896 0.0
C971 C 0.37892 0.87183 0.66179 0.0
loop_
_geom_bond_atom_site_label_1
_geom_bond_atom_site_label_2
_geom_bond_distance
_geom_bond_site_symmetry_2
_ccdc_geom_bond_type
O0 Cd1 2.223 . S
O0 C8 1.315 . S
Cd1 O0 2.223 . S
Cd1 O4 2.297 . S
Cd1 O5 2.439 . S
Cd1 O11 2.240 . S
Cd2 O3 2.240 . S
Cd2 O10 2.223 1_554 S
Cd2 O12 2.297 1_554 S
Cd2 O13 2.439 . S
O3 Cd2 2.240 . S
O3 C8 1.279 . S
O4 Cd1 2.297 . S
O4 C6 1.247 . S
O5 Cd1 2.439 . S
O5 C6 1.208 . S
C6 O4 1.247 . S
C6 O5 1.208 . S
C7 O12 1.247 1_554 S
C7 O13 1.208 . S
C8 O0 1.315 . S
C8 O3 1.279 . S
C9 O10 1.315 . S
C9 O11 1.279 1_556 S
O10 Cd2 2.223 1_556 S
O10 C9 1.315 . S
O11 Cd1 2.240 . S
O11 C9 1.279 1_554 S
O12 Cd2 2.297 1_556 S
O12 C7 1.247 1_556 S
O13 Cd2 2.439 . S
O13 C7 1.208 . S
O14 Cd15 2.223 . S
O14 C22 1.315 . S
Cd15 O14 2.223 . S
Cd15 O18 2.297 . S
Cd15 O19 2.439 . S
Cd15 O25 2.240 . S
Cd16 O17 2.240 . S
Cd16 O24 2.223 1_554 S
Cd16 O26 2.297 1_554 S
Cd16 O27 2.439 . S
O17 Cd16 2.240 . S
O17 C22 1.279 . S
O18 Cd15 2.297 . S
O18 C20 1.247 . S
O19 Cd15 2.439 . S
O19 C20 1.208 . S
C20 O18 1.247 . S
C20 O19 1.208 . S
C21 O26 1.247 1_554 S
C21 O27 1.208 . S
C22 O14 1.315 . S
C22 O17 1.279 . S
C23 O24 1.315 . S
C23 O25 1.279 1_556 S
O24 Cd16 2.223 1_556 S
O24 C23 1.315 . S
O25 Cd15 2.240 . S
O25 C23 1.279 1_554 S
O26 Cd16 2.297 1_556 S
O26 C21 1.247 1_556 S
O27 Cd16 2.439 . S
O27 C21 1.208 . S
O28 Cd29 2.223 . S
O28 C36 1.315 . S
Cd29 O28 2.223 . S
Cd29 O32 2.297 . S
Cd29 O33 2.439 . S
Cd29 O39 2.240 . S
Cd30 O31 2.240 . S
Cd30 O38 2.223 1_554 S
Cd30 O40 2.297 1_554 S
Cd30 O41 2.439 . S
O31 Cd30 2.240 . S
O31 C36 1.279 . S
O32 Cd29 2.297 . S
O32 C34 1.247 . S
O33 Cd29 2.439 . S
O33 C34 1.208 . S
C34 O32 1.247 . S
C34 O33 1.208 . S
C35 O40 1.247 1_554 S
C35 O41 1.208 . S
C36 O28 1.315 . S
C36 O31 1.279 . S
C37 O38 1.315 . S
C37 O39 1.279 1_556 S
O38 Cd30 2.223 1_556 S
O38 C37 1.315 . S
O39 Cd29 2.240 . S
O39 C37 1.279 1_554 S
O40 Cd30 2.297 1_556 S
O40 C35 1.247 1_556 S
O41 Cd30 2.439 . S
O41 C35 1.208 . S
O42 Cd43 2.223 . S
O42 C50 1.315 . S
Cd43 O42 2.223 . S
Cd43 O46 2.297 . S
Cd43 O47 2.439 . S
Cd43 O53 2.240 . S
Cd44 O45 2.240 . S
Cd44 O52 2.223 1_556 S
Cd44 O54 2.297 1_556 S
Cd44 O55 2.439 . S
O45 Cd44 2.240 . S
O45 C50 1.279 . S
O46 Cd43 2.297 . S
O46 C48 1.247 . S
O47 Cd43 2.439 . S
O47 C48 1.208 . S
C48 O46 1.247 . S
C48 O47 1.208 . S
C49 O54 1.247 1_556 S
C49 O55 1.208 . S
C50 O42 1.315 . S
C50 O45 1.279 . S
C51 O52 1.315 . S
C51 O53 1.279 1_554 S
O52 Cd44 2.223 1_554 S
O52 C51 1.315 . S
O53 Cd43 2.240 . S
O53 C51 1.279 1_556 S
O54 Cd44 2.297 1_554 S
O54 C49 1.247 1_554 S
O55 Cd44 2.439 . S
O55 C49 1.208 . S
O56 Cd57 2.223 . S
O56 C64 1.315 . S
Cd57 O56 2.223 . S
Cd57 O60 2.297 . S
Cd57 O61 2.439 . S
Cd57 O67 2.240 . S
Cd58 O59 2.240 . S
Cd58 O66 2.223 1_556 S
Cd58 O68 2.297 1_556 S
Cd58 O69 2.439 . S
O59 Cd58 2.240 . S
O59 C64 1.279 . S
O60 Cd57 2.297 . S
O60 C62 1.247 . S
O61 Cd57 2.439 . S
O61 C62 1.208 . S
C62 O60 1.247 . S
C62 O61 1.208 . S
C63 O68 1.247 1_556 S
C63 O69 1.208 . S
C64 O56 1.315 . S
C64 O59 1.279 . S
C65 O66 1.315 . S
C65 O67 1.279 1_554 S
O66 Cd58 2.223 1_554 S
O66 C65 1.315 . S
O67 Cd57 2.240 . S
O67 C65 1.279 1_556 S
O68 Cd58 2.297 1_554 S
O68 C63 1.247 1_554 S
O69 Cd58 2.439 . S
O69 C63 1.208 . S
O70 Cd71 2.223 . S
O70 C78 1.315 . S
Cd71 O70 2.223 . S
Cd71 O74 2.297 . S
Cd71 O75 2.439 . S
Cd71 O81 2.240 . S
Cd72 O73 2.240 . S
Cd72 O80 2.223 1_556 S
Cd72 O82 2.297 1_556 S
Cd72 O83 2.439 . S
O73 Cd72 2.240 . S
O73 C78 1.279 . S
O74 Cd71 2.297 . S
O74 C76 1.247 . S
O75 Cd71 2.439 . S
O75 C76 1.208 . S
C76 O74 1.247 . S
C76 O75 1.208 . S
C77 O82 1.247 1_556 S
C77 O83 1.208 . S
C78 O70 1.315 . S
C78 O73 1.279 . S
C79 O80 1.315 . S
C79 O81 1.279 1_554 S
O80 Cd72 2.223 1_554 S
O80 C79 1.315 . S
O81 Cd71 2.240 . S
O81 C79 1.279 1_556 S
O82 Cd72 2.297 1_554 S
O82 C77 1.247 1_554 S
O83 Cd72 2.439 . S
O83 C77 1.208 . S
O84 Cd85 2.223 . S
O84 C92 1.315 . S
Cd85 O84 2.223 . S
Cd85 O88 2.297 . S
Cd85 O89 2.439 . S
Cd85 O95 2.240 . S
Cd86 O87 2.240 . S
Cd86 O94 2.223 . S
Cd86 O96 2.297 . S
Cd86 O97 2.439 . S
O87 Cd86 2.240 . S
O87 C92 1.279 . S
O88 Cd85 2.297 . S
O88 C90 1.247 . S
O89 Cd85 2.439 . S
O89 C90 1.208 . S
C90 O88 1.247 . S
C90 O89 1.208 . S
C91 O96 1.247 . S
C91 O97 1.208 . S
C92 O84 1.315 . S
C92 O87 1.279 . S
C93 O94 1.315 . S
C93 O95 1.279 . S
O94 Cd86 2.223 . S
O94 C93 1.315 . S
O95 Cd85 2.240 . S
O95 C93 1.279 . S
O96 Cd86 2.297 . S
O96 C91 1.247 . S
O97 Cd86 2.439 . S
O97 C91 1.208 . S
O98 Cd99 2.223 . S
O98 C106 1.315 . S
Cd99 O98 2.223 . S
Cd99 O102 2.297 . S
Cd99 O103 2.439 . S
Cd99 O109 2.240 . S
Cd100 O101 2.240 . S
Cd100 O108 2.223 . S
Cd100 O110 2.297 . S
Cd100 O111 2.439 . S
O101 Cd100 2.240 . S
O101 C106 1.279 . S
O102 Cd99 2.297 . S
O102 C104 1.247 . S
O103 Cd99 2.439 . S
O103 C104 1.208 . S
C104 O102 1.247 . S
C104 O103 1.208 . S
C105 O110 1.247 . S
C105 O111 1.208 . S
C106 O98 1.315 . S
C106 O101 1.279 . S
C107 O108 1.315 . S
C107 O109 1.279 . S
O108 Cd100 2.223 . S
O108 C107 1.315 . S
O109 Cd99 2.240 . S
O109 C107 1.279 . S
O110 Cd100 2.297 . S
O110 C105 1.247 . S
O111 Cd100 2.439 . S
O111 C105 1.208 . S
O112 Cd113 2.223 . S
O112 C120 1.315 . S
Cd113 O112 2.223 . S
Cd113 O116 2.297 . S
Cd113 O117 2.439 . S
Cd113 O123 2.240 . S
Cd114 O115 2.240 . S
Cd114 O122 2.223 . S
Cd114 O124 2.297 . S
Cd114 O125 2.439 . S
O115 Cd114 2.240 . S
O115 C120 1.279 . S
O116 Cd113 2.297 . S
O116 C118 1.247 . S
O117 Cd113 2.439 . S
O117 C118 1.208 . S
C118 O116 1.247 . S
C118 O117 1.208 . S
C119 O124 1.247 . S
C119 O125 1.208 . S
C120 O112 1.315 . S
C120 O115 1.279 . S
C121 O122 1.315 . S
C121 O123 1.279 . S
O122 Cd114 2.223 . S
O122 C121 1.315 . S
O123 Cd113 2.240 . S
O123 C121 1.279 . S
O124 Cd114 2.297 . S
O124 C119 1.247 . S
O125 Cd114 2.439 . S
O125 C119 1.208 . S
O126 Cd127 2.223 . S
O126 C134 1.315 . S
Cd127 O126 2.223 . S
Cd127 O130 2.297 . S
Cd127 O131 2.439 . S
Cd127 O137 2.240 . S
Cd128 O129 2.240 . S
Cd128 O136 2.223 . S
Cd128 O138 2.297 . S
Cd128 O139 2.439 . S
O129 Cd128 2.240 . S
O129 C134 1.279 . S
O130 Cd127 2.297 . S
O130 C132 1.247 . S
O131 Cd127 2.439 . S
O131 C132 1.208 . S
C132 O130 1.247 . S
C132 O131 1.208 . S
C133 O138 1.247 . S
C133 O139 1.208 . S
C134 O126 1.315 . S
C134 O129 1.279 . S
C135 O136 1.315 . S
C135 O137 1.279 . S
O136 Cd128 2.223 . S
O136 C135 1.315 . S
O137 Cd127 2.240 . S
O137 C135 1.279 . S
O138 Cd128 2.297 . S
O138 C133 1.247 . S
O139 Cd128 2.439 . S
O139 C133 1.208 . S
O140 Cd141 2.223 . S
O140 C148 1.315 . S
Cd141 O140 2.223 . S
Cd141 O144 2.297 . S
Cd141 O145 2.439 . S
Cd141 O151 2.240 . S
Cd142 O143 2.240 . S
Cd142 O150 2.223 . S
Cd142 O152 2.297 . S
Cd142 O153 2.439 . S
O143 Cd142 2.240 . S
O143 C148 1.279 . S
O144 Cd141 2.297 . S
O144 C146 1.247 . S
O145 Cd141 2.439 . S
O145 C146 1.208 . S
C146 O144 1.247 . S
C146 O145 1.208 . S
C147 O152 1.247 . S
C147 O153 1.208 . S
C148 O140 1.315 . S
C148 O143 1.279 . S
C149 O150 1.315 . S
C149 O151 1.279 . S
O150 Cd142 2.223 . S
O150 C149 1.315 . S
O151 Cd141 2.240 . S
O151 C149 1.279 . S
O152 Cd142 2.297 . S
O152 C147 1.247 . S
O153 Cd142 2.439 . S
O153 C147 1.208 . S
O154 Cd155 2.223 . S
O154 C162 1.315 . S
Cd155 O154 2.223 . S
Cd155 O158 2.297 . S
Cd155 O159 2.439 . S
Cd155 O165 2.240 . S
Cd156 O157 2.240 . S
Cd156 O164 2.223 . S
Cd156 O166 2.297 . S
Cd156 O167 2.439 . S
O157 Cd156 2.240 . S
O157 C162 1.279 . S
O158 Cd155 2.297 . S
O158 C160 1.247 . S
O159 Cd155 2.439 . S
O159 C160 1.208 . S
C160 O158 1.247 . S
C160 O159 1.208 . S
C161 O166 1.247 . S
C161 O167 1.208 . S
C162 O154 1.315 . S
C162 O157 1.279 . S
C163 O164 1.315 . S
C163 O165 1.279 . S
O164 Cd156 2.223 . S
O164 C163 1.315 . S
O165 Cd155 2.240 . S
O165 C163 1.279 . S
O166 Cd156 2.297 . S
O166 C161 1.247 . S
O167 Cd156 2.439 . S
O167 C161 1.208 . S
O168 Cd169 2.223 . S
O168 C176 1.315 . S
Cd169 O168 2.223 . S
Cd169 O172 2.297 . S
Cd169 O173 2.439 . S
Cd169 O179 2.240 . S
Cd170 O171 2.240 . S
Cd170 O178 2.223 . S
Cd170 O180 2.297 . S
Cd170 O181 2.439 . S
O171 Cd170 2.240 . S
O171 C176 1.279 . S
O172 Cd169 2.297 . S
O172 C174 1.247 . S
O173 Cd169 2.439 . S
O173 C174 1.208 . S
C174 O172 1.247 . S
C174 O173 1.208 . S
C175 O180 1.247 . S
C175 O181 1.208 . S
C176 O168 1.315 . S
C176 O171 1.279 . S
C177 O178 1.315 . S
C177 O179 1.279 . S
O178 Cd170 2.223 . S
O178 C177 1.315 . S
O179 Cd169 2.240 . S
O179 C177 1.279 . S
O180 Cd170 2.297 . S
O180 C175 1.247 . S
O181 Cd170 2.439 . S
O181 C175 1.208 . S
O182 Cd183 2.223 . S
O182 C190 1.315 . S
Cd183 O182 2.223 . S
Cd183 O186 2.297 . S
Cd183 O187 2.439 . S
Cd183 O193 2.240 . S
Cd184 O185 2.240 . S
Cd184 O192 2.223 . S
Cd184 O194 2.297 . S
Cd184 O195 2.439 . S
O185 Cd184 2.240 . S
O185 C190 1.279 . S
O186 Cd183 2.297 . S
O186 C188 1.247 . S
O187 Cd183 2.439 . S
O187 C188 1.208 . S
C188 O186 1.247 . S
C188 O187 1.208 . S
C189 O194 1.247 . S
C189 O195 1.208 . S
C190 O182 1.315 . S
C190 O185 1.279 . S
C191 O192 1.315 . S
C191 O193 1.279 . S
O192 Cd184 2.223 . S
O192 C191 1.315 . S
O193 Cd183 2.240 . S
O193 C191 1.279 . S
O194 Cd184 2.297 . S
O194 C189 1.247 . S
O195 Cd184 2.439 . S
O195 C189 1.208 . S
O196 Cd197 2.223 . S
O196 C204 1.315 . S
Cd197 O196 2.223 . S
Cd197 O200 2.297 . S
Cd197 O201 2.439 . S
Cd197 O207 2.240 . S
Cd198 O199 2.240 . S
Cd198 O206 2.223 . S
Cd198 O208 2.297 . S
Cd198 O209 2.439 . S
O199 Cd198 2.240 . S
O199 C204 1.279 . S
O200 Cd197 2.297 . S
O200 C202 1.247 . S
O201 Cd197 2.439 . S
O201 C202 1.208 . S
C202 O200 1.247 . S
C202 O201 1.208 . S
C203 O208 1.247 . S
C203 O209 1.208 . S
C204 O196 1.315 . S
C204 O199 1.279 . S
C205 O206 1.315 . S
C205 O207 1.279 . S
O206 Cd198 2.223 . S
O206 C205 1.315 . S
O207 Cd197 2.240 . S
O207 C205 1.279 . S
O208 Cd198 2.297 . S
O208 C203 1.247 . S
O209 Cd198 2.439 . S
O209 C203 1.208 . S
O210 Cd211 2.223 . S
O210 C218 1.315 . S
Cd211 O210 2.223 . S
Cd211 O214 2.297 . S
Cd211 O215 2.439 . S
Cd211 O221 2.240 . S
Cd212 O213 2.240 . S
Cd212 O220 2.223 . S
Cd212 O222 2.297 . S
Cd212 O223 2.439 . S
O213 Cd212 2.240 . S
O213 C218 1.279 . S
O214 Cd211 2.297 . S
O214 C216 1.247 . S
O215 Cd211 2.439 . S
O215 C216 1.208 . S
C216 O214 1.247 . S
C216 O215 1.208 . S
C217 O222 1.247 . S
C217 O223 1.208 . S
C218 O210 1.315 . S
C218 O213 1.279 . S
C219 O220 1.315 . S
C219 O221 1.279 . S
O220 Cd212 2.223 . S
O220 C219 1.315 . S
O221 Cd211 2.240 . S
O221 C219 1.279 . S
O222 Cd212 2.297 . S
O222 C217 1.247 . S
O223 Cd212 2.439 . S
O223 C217 1.208 . S
O224 Cd225 2.223 . S
O224 C232 1.315 . S
Cd225 O224 2.223 . S
Cd225 O228 2.297 . S
Cd225 O229 2.439 . S
Cd225 O235 2.240 . S
Cd226 O227 2.240 . S
Cd226 O234 2.223 . S
Cd226 O236 2.297 . S
Cd226 O237 2.439 . S
O227 Cd226 2.240 . S
O227 C232 1.279 . S
O228 Cd225 2.297 . S
O228 C230 1.247 . S
O229 Cd225 2.439 . S
O229 C230 1.208 . S
C230 O228 1.247 . S
C230 O229 1.208 . S
C231 O236 1.247 . S
C231 O237 1.208 . S
C232 O224 1.315 . S
C232 O227 1.279 . S
C233 O234 1.315 . S
C233 O235 1.279 . S
O234 Cd226 2.223 . S
O234 C233 1.315 . S
O235 Cd225 2.240 . S
O235 C233 1.279 . S
O236 Cd226 2.297 . S
O236 C231 1.247 . S
O237 Cd226 2.439 . S
O237 C231 1.208 . S
O238 Cd239 2.223 . S
O238 C246 1.315 . S
Cd239 O238 2.223 . S
Cd239 O242 2.297 . S
Cd239 O243 2.439 . S
Cd239 O249 2.240 . S
Cd240 O241 2.240 . S
Cd240 O248 2.223 . S
Cd240 O250 2.297 . S
Cd240 O251 2.439 . S
O241 Cd240 2.240 . S
O241 C246 1.279 . S
O242 Cd239 2.297 . S
O242 C244 1.247 . S
O243 Cd239 2.439 . S
O243 C244 1.208 . S
C244 O242 1.247 . S
C244 O243 1.208 . S
C245 O250 1.247 . S
C245 O251 1.208 . S
C246 O238 1.315 . S
C246 O241 1.279 . S
C247 O248 1.315 . S
C247 O249 1.279 . S
O248 Cd240 2.223 . S
O248 C247 1.315 . S
O249 Cd239 2.240 . S
O249 C247 1.279 . S
O250 Cd240 2.297 . S
O250 C245 1.247 . S
O251 Cd240 2.439 . S
O251 C245 1.208 . S
H252 C260 0.950 . S
H253 C265 0.950 . S
H254 C262 0.950 . S
H255 C264 0.950 . S
H256 C266 0.950 . S
H257 C268 0.950 . S
H258 C270 0.950 . S
H259 C271 0.950 . S
C260 H252 0.950 . S
C260 C261 1.386 . S
C260 C262 1.391 . S
C261 C260 1.386 . S
C261 C265 1.393 . S
C262 H254 0.950 . S
C262 C260 1.391 . S
C262 C263 1.400 . S
C263 C262 1.400 . S
C263 C264 1.398 . S
C263 C269 1.491 . S
C264 H255 0.950 . S
C264 C263 1.398 . S
C264 C265 1.391 . S
C265 H253 0.950 . S
C265 C261 1.393 . S
C265 C264 1.391 . S
C266 H256 0.950 . S
C266 C267 1.386 . S
C266 C268 1.391 . S
C267 C266 1.386 . S
C267 C271 1.393 . S
C268 H257 0.950 . S
C268 C266 1.391 . S
C268 C269 1.400 . S
C269 C263 1.491 . S
C269 C268 1.400 . S
C269 C270 1.398 . S
C270 H258 0.950 . S
C270 C269 1.398 . S
C270 C271 1.391 . S
C271 H259 0.950 . S
C271 C267 1.393 . S
C271 C270 1.391 . S
H272 C280 0.950 . S
H273 C285 0.950 . S
H274 C282 0.950 . S
H275 C284 0.950 . S
H276 C286 0.950 . S
H277 C288 0.950 . S
H278 C290 0.950 . S
H279 C291 0.950 . S
C280 H272 0.950 . S
C280 C281 1.386 . S
C280 C282 1.391 . S
C281 C280 1.386 . S
C281 C285 1.393 . S
C282 H274 0.950 . S
C282 C280 1.391 . S
C282 C283 1.400 . S
C283 C282 1.400 . S
C283 C284 1.398 . S
C283 C289 1.491 . S
C284 H275 0.950 . S
C284 C283 1.398 . S
C284 C285 1.391 . S
C285 H273 0.950 . S
C285 C281 1.393 . S
C285 C284 1.391 . S
C286 H276 0.950 . S
C286 C287 1.386 . S
C286 C288 1.391 . S
C287 C286 1.386 . S
C287 C291 1.393 . S
C288 H277 0.950 . S
C288 C286 1.391 . S
C288 C289 1.400 . S
C289 C283 1.491 . S
C289 C288 1.400 . S
C289 C290 1.398 . S
C290 H278 0.950 . S
C290 C289 1.398 . S
C290 C291 1.391 . S
C291 H279 0.950 . S
C291 C287 1.393 . S
C291 C290 1.391 . S
H292 C300 0.950 . S
H293 C305 0.950 . S
H294 C302 0.950 . S
H295 C304 0.950 . S
H296 C306 0.950 . S
H297 C308 0.950 . S
H298 C310 0.950 . S
H299 C311 0.950 . S
C300 H292 0.950 . S
C300 C301 1.386 . S
C300 C302 1.391 . S
C301 C300 1.386 . S
C301 C305 1.393 . S
C302 H294 0.950 . S
C302 C300 1.391 . S
C302 C303 1.400 . S
C303 C302 1.400 . S
C303 C304 1.398 . S
C303 C309 1.491 . S
C304 H295 0.950 . S
C304 C303 1.398 . S
C304 C305 1.391 . S
C305 H293 0.950 . S
C305 C301 1.393 . S
C305 C304 1.391 . S
C306 H296 0.950 . S
C306 C307 1.386 . S
C306 C308 1.391 . S
C307 C306 1.386 . S
C307 C311 1.393 . S
C308 H297 0.950 . S
C308 C306 1.391 . S
C308 C309 1.400 . S
C309 C303 1.491 . S
C309 C308 1.400 . S
C309 C310 1.398 . S
C310 H298 0.950 . S
C310 C309 1.398 . S
C310 C311 1.391 . S
C311 H299 0.950 . S
C311 C307 1.393 . S
C311 C310 1.391 . S
H312 C320 0.950 . S
H313 C325 0.950 . S
H314 C322 0.950 . S
H315 C324 0.950 . S
H316 C326 0.950 . S
H317 C328 0.950 . S
H318 C330 0.950 . S
H319 C331 0.950 . S
C320 H312 0.950 . S
C320 C321 1.386 . S
C320 C322 1.391 . S
C321 C320 1.386 . S
C321 C325 1.393 . S
C322 H314 0.950 . S
C322 C320 1.391 . S
C322 C323 1.400 . S
C323 C322 1.400 . S
C323 C324 1.398 . S
C323 C329 1.491 . S
C324 H315 0.950 . S
C324 C323 1.398 . S
C324 C325 1.391 . S
C325 H313 0.950 . S
C325 C321 1.393 . S
C325 C324 1.391 . S
C326 H316 0.950 . S
C326 C327 1.386 . S
C326 C328 1.391 . S
C327 C326 1.386 . S
C327 C331 1.393 . S
C328 H317 0.950 . S
C328 C326 1.391 . S
C328 C329 1.400 . S
C329 C323 1.491 . S
C329 C328 1.400 . S
C329 C330 1.398 . S
C330 H318 0.950 . S
C330 C329 1.398 . S
C330 C331 1.391 . S
C331 H319 0.950 . S
C331 C327 1.393 . S
C331 C330 1.391 . S
H332 C340 0.950 . S
H333 C345 0.950 . S
H334 C342 0.950 . S
H335 C344 0.950 . S
H336 C346 0.950 . S
H337 C348 0.950 . S
H338 C350 0.950 . S
H339 C351 0.950 . S
C340 H332 0.950 . S
C340 C341 1.386 . S
C340 C342 1.391 . S
C341 C340 1.386 . S
C341 C345 1.393 . S
C342 H334 0.950 . S
C342 C340 1.391 . S
C342 C343 1.400 . S
C343 C342 1.400 . S
C343 C344 1.398 . S
C343 C349 1.491 . S
C344 H335 0.950 . S
C344 C343 1.398 . S
C344 C345 1.391 . S
C345 H333 0.950 . S
C345 C341 1.393 . S
C345 C344 1.391 . S
C346 H336 0.950 . S
C346 C347 1.386 . S
C346 C348 1.391 . S
C347 C346 1.386 . S
C347 C351 1.393 . S
C348 H337 0.950 . S
C348 C346 1.391 . S
C348 C349 1.400 . S
C349 C343 1.491 . S
C349 C348 1.400 . S
C349 C350 1.398 . S
C350 H338 0.950 . S
C350 C349 1.398 . S
C350 C351 1.391 . S
C351 H339 0.950 . S
C351 C347 1.393 . S
C351 C350 1.391 . S
H352 C360 0.950 . S
H353 C365 0.950 . S
H354 C362 0.950 . S
H355 C364 0.950 . S
H356 C366 0.950 . S
H357 C368 0.950 . S
H358 C370 0.950 . S
H359 C371 0.950 . S
C360 H352 0.950 . S
C360 C361 1.386 . S
C360 C362 1.391 . S
C361 C360 1.386 . S
C361 C365 1.393 . S
C362 H354 0.950 . S
C362 C360 1.391 . S
C362 C363 1.400 . S
C363 C362 1.400 . S
C363 C364 1.398 . S
C363 C369 1.491 . S
C364 H355 0.950 . S
C364 C363 1.398 . S
C364 C365 1.391 . S
C365 H353 0.950 . S
C365 C361 1.393 . S
C365 C364 1.391 . S
C366 H356 0.950 . S
C366 C367 1.386 . S
C366 C368 1.391 . S
C367 C366 1.386 . S
C367 C371 1.393 . S
C368 H357 0.950 . S
C368 C366 1.391 . S
C368 C369 1.400 . S
C369 C363 1.491 . S
C369 C368 1.400 . S
C369 C370 1.398 . S
C370 H358 0.950 . S
C370 C369 1.398 . S
C370 C371 1.391 . S
C371 H359 0.950 . S
C371 C367 1.393 . S
C371 C370 1.391 . S
H372 C380 0.950 . S
H373 C385 0.950 . S
H374 C382 0.950 . S
H375 C384 0.950 . S
H376 C386 0.950 . S
H377 C388 0.950 . S
H378 C390 0.950 . S
H379 C391 0.950 . S
C380 H372 0.950 . S
C380 C381 1.386 1_455 S
C380 C382 1.391 . S
C381 C380 1.386 1_655 S
C381 C385 1.393 . S
C382 H374 0.950 . S
C382 C380 1.391 . S
C382 C383 1.414 . S
C383 C382 1.414 . S
C383 C384 1.379 1_455 S
C383 C389 1.497 1_554 S
C384 H375 0.950 . S
C384 C383 1.379 1_655 S
C384 C385 1.391 . S
C385 H373 0.950 . S
C385 C381 1.393 . S
C385 C384 1.391 . S
C386 H376 0.950 . S
C386 C387 1.386 1_655 S
C386 C388 1.391 . S
C387 C386 1.386 1_455 S
C387 C391 1.393 . S
C388 H377 0.950 . S
C388 C386 1.391 . S
C388 C389 1.400 1_655 S
C389 C383 1.497 1_556 S
C389 C388 1.400 1_455 S
C389 C390 1.398 . S
C390 H378 0.950 . S
C390 C389 1.398 . S
C390 C391 1.391 . S
C391 H379 0.950 . S
C391 C387 1.393 . S
C391 C390 1.391 . S
H392 C400 0.950 . S
H393 C405 0.950 . S
H394 C402 0.950 . S
H395 C404 0.950 . S
H396 C406 0.950 . S
H397 C408 0.950 . S
H398 C410 0.950 . S
H399 C411 0.950 . S
C400 H392 0.950 . S
C400 C401 1.386 . S
C400 C402 1.391 . S
C401 C400 1.386 . S
C401 C405 1.393 . S
C402 H394 0.950 . S
C402 C400 1.391 . S
C402 C403 1.400 . S
C403 C402 1.400 . S
C403 C404 1.398 . S
C403 C409 1.491 1_554 S
C404 H395 0.950 . S
C404 C403 1.398 . S
C404 C405 1.391 . S
C405 H393 0.950 . S
C405 C401 1.393 . S
C405 C404 1.391 . S
C406 H396 0.950 . S
C406 C407 1.386 . S
C406 C408 1.391 . S
C407 C406 1.386 . S
C407 C411 1.393 . S
C408 H397 0.950 . S
C408 C406 1.391 . S
C408 C409 1.400 . S
C409 C403 1.491 1_556 S
C409 C408 1.400 . S
C409 C410 1.398 . S
C410 H398 0.950 . S
C410 C409 1.398 . S
C410 C411 1.391 . S
C411 H399 0.950 . S
C411 C407 1.393 . S
C411 C410 1.391 . S
H412 C420 0.950 . S
H413 C425 0.950 . S
H414 C422 0.950 . S
H415 C424 0.948 1_565 S
H416 C426 0.950 . S
H417 C428 0.950 . S
H418 C430 0.950 . S
H419 C431 0.950 . S
C420 H412 0.950 . S
C420 C421 1.386 . S
C420 C422 1.391 . S
C421 C420 1.386 . S
C421 C425 1.393 . S
C422 H414 0.950 . S
C422 C420 1.391 . S
C422 C423 1.400 . S
C423 C422 1.400 . S
C423 C424 1.398 . S
C423 C429 1.490 1_554 S
C424 H415 0.948 1_545 S
C424 C423 1.398 . S
C424 C425 1.391 . S
C425 H413 0.950 . S
C425 C421 1.393 . S
C425 C424 1.391 . S
C426 H416 0.950 . S
C426 C427 1.386 . S
C426 C428 1.391 . S
C427 C426 1.386 . S
C427 C431 1.393 . S
C428 H417 0.950 . S
C428 C426 1.391 . S
C428 C429 1.402 1_565 S
C429 C423 1.490 1_556 S
C429 C428 1.402 1_545 S
C429 C430 1.397 . S
C430 H418 0.950 . S
C430 C429 1.397 . S
C430 C431 1.391 1_545 S
C431 H419 0.950 . S
C431 C427 1.393 . S
C431 C430 1.391 1_565 S
H432 C440 0.950 . S
H433 C445 0.950 . S
H434 C442 0.950 . S
H435 C444 0.950 . S
H436 C446 0.950 . S
H437 C448 0.950 . S
H438 C450 0.950 . S
H439 C451 0.950 . S
C440 H432 0.950 . S
C440 C441 1.386 . S
C440 C442 1.391 . S
C441 C440 1.386 . S
C441 C445 1.393 . S
C442 H434 0.950 . S
C442 C440 1.391 . S
C442 C443 1.400 . S
C443 C442 1.400 . S
C443 C444 1.398 . S
C443 C449 1.491 . S
C444 H435 0.950 . S
C444 C443 1.398 . S
C444 C445 1.391 . S
C445 H433 0.950 . S
C445 C441 1.393 . S
C445 C444 1.391 . S
C446 H436 0.950 . S
C446 C447 1.386 . S
C446 C448 1.391 . S
C447 C446 1.386 . S
C447 C451 1.393 . S
C448 H437 0.950 . S
C448 C446 1.391 . S
C448 C449 1.400 . S
C449 C443 1.491 . S
C449 C448 1.400 . S
C449 C450 1.398 . S
C450 H438 0.950 . S
C450 C449 1.398 . S
C450 C451 1.391 . S
C451 H439 0.950 . S
C451 C447 1.393 . S
C451 C450 1.391 . S
H452 C460 0.950 . S
H453 C465 0.950 . S
H454 C462 0.950 . S
H455 C464 0.950 . S
H456 C466 0.950 . S
H457 C468 0.950 . S
H458 C470 0.950 . S
H459 C471 0.950 . S
C460 H452 0.950 . S
C460 C461 1.386 . S
C460 C462 1.391 . S
C461 C460 1.386 . S
C461 C465 1.393 . S
C462 H454 0.950 . S
C462 C460 1.391 . S
C462 C463 1.400 . S
C463 C462 1.400 . S
C463 C464 1.398 . S
C463 C469 1.491 . S
C464 H455 0.950 . S
C464 C463 1.398 . S
C464 C465 1.391 . S
C465 H453 0.950 . S
C465 C461 1.393 . S
C465 C464 1.391 . S
C466 H456 0.950 . S
C466 C467 1.386 . S
C466 C468 1.391 . S
C467 C466 1.386 . S
C467 C471 1.393 . S
C468 H457 0.950 . S
C468 C466 1.391 . S
C468 C469 1.400 . S
C469 C463 1.491 . S
C469 C468 1.400 . S
C469 C470 1.398 . S
C470 H458 0.950 . S
C470 C469 1.398 . S
C470 C471 1.391 . S
C471 H459 0.950 . S
C471 C467 1.393 . S
C471 C470 1.391 . S
H472 C480 0.950 . S
H473 C485 0.950 . S
H474 C482 0.950 . S
H475 C484 0.950 . S
H476 C486 0.950 . S
H477 C488 0.950 . S
H478 C490 0.950 . S
H479 C491 0.950 . S
C480 H472 0.950 . S
C480 C481 1.386 . S
C480 C482 1.391 . S
C481 C480 1.386 . S
C481 C485 1.393 . S
C482 H474 0.950 . S
C482 C480 1.391 . S
C482 C483 1.400 . S
C483 C482 1.400 . S
C483 C484 1.398 . S
C483 C489 1.491 . S
C484 H475 0.950 . S
C484 C483 1.398 . S
C484 C485 1.391 . S
C485 H473 0.950 . S
C485 C481 1.393 . S
C485 C484 1.391 . S
C486 H476 0.950 . S
C486 C487 1.386 . S
C486 C488 1.391 . S
C487 C486 1.386 . S
C487 C491 1.393 . S
C488 H477 0.950 . S
C488 C486 1.391 . S
C488 C489 1.400 . S
C489 C483 1.491 . S
C489 C488 1.400 . S
C489 C490 1.398 . S
C490 H478 0.950 . S
C490 C489 1.398 . S
C490 C491 1.391 . S
C491 H479 0.950 . S
C491 C487 1.393 . S
C491 C490 1.391 . S
H492 C500 0.950 . S
H493 C505 0.950 . S
H494 C502 0.950 . S
H495 C504 0.950 . S
H496 C506 0.950 . S
H497 C508 0.950 . S
H498 C510 0.950 . S
H499 C511 0.950 . S
C500 H492 0.950 . S
C500 C501 1.386 . S
C500 C502 1.391 . S
C501 C500 1.386 . S
C501 C505 1.393 . S
C502 H494 0.950 . S
C502 C500 1.391 . S
C502 C503 1.400 . S
C503 C502 1.400 . S
C503 C504 1.398 . S
C503 C509 1.491 . S
C504 H495 0.950 . S
C504 C503 1.398 . S
C504 C505 1.391 . S
C505 H493 0.950 . S
C505 C501 1.393 . S
C505 C504 1.391 . S
C506 H496 0.950 . S
C506 C507 1.386 . S
C506 C508 1.391 . S
C507 C506 1.386 . S
C507 C511 1.393 . S
C508 H497 0.950 . S
C508 C506 1.391 . S
C508 C509 1.400 . S
C509 C503 1.491 . S
C509 C508 1.400 . S
C509 C510 1.398 . S
C510 H498 0.950 . S
C510 C509 1.398 . S
C510 C511 1.391 . S
C511 H499 0.950 . S
C511 C507 1.393 . S
C511 C510 1.391 . S
H512 C520 0.950 . S
H513 C525 0.950 . S
H514 C522 0.950 . S
H515 C524 0.950 . S
H516 C526 0.950 . S
H517 C528 0.950 . S
H518 C530 0.950 . S
H519 C531 0.950 . S
C520 H512 0.950 . S
C520 C521 1.386 . S
C520 C522 1.391 . S
C521 C520 1.386 . S
C521 C525 1.393 . S
C522 H514 0.950 . S
C522 C520 1.391 . S
C522 C523 1.400 . S
C523 C522 1.400 . S
C523 C524 1.398 . S
C523 C529 1.491 . S
C524 H515 0.950 . S
C524 C523 1.398 . S
C524 C525 1.391 . S
C525 H513 0.950 . S
C525 C521 1.393 . S
C525 C524 1.391 . S
C526 H516 0.950 . S
C526 C527 1.386 . S
C526 C528 1.391 . S
C527 C526 1.386 . S
C527 C531 1.393 . S
C528 H517 0.950 . S
C528 C526 1.391 . S
C528 C529 1.400 . S
C529 C523 1.491 . S
C529 C528 1.400 . S
C529 C530 1.398 . S
C530 H518 0.950 . S
C530 C529 1.398 . S
C530 C531 1.391 . S
C531 H519 0.950 . S
C531 C527 1.393 . S
C531 C530 1.391 . S
H532 C540 0.950 . S
H533 C545 0.950 . S
H534 C542 0.950 . S
H535 C544 0.950 . S
H536 C546 0.950 . S
H537 C548 0.950 . S
H538 C550 0.950 . S
H539 C551 0.950 . S
C540 H532 0.950 . S
C540 C541 1.386 . S
C540 C542 1.391 . S
C541 C540 1.386 . S
C541 C545 1.393 . S
C542 H534 0.950 . S
C542 C540 1.391 . S
C542 C543 1.400 . S
C543 C542 1.400 . S
C543 C544 1.398 . S
C543 C549 1.491 . S
C544 H535 0.950 . S
C544 C543 1.398 . S
C544 C545 1.391 . S
C545 H533 0.950 . S
C545 C541 1.393 . S
C545 C544 1.391 . S
C546 H536 0.950 . S
C546 C547 1.386 . S
C546 C548 1.391 . S
C547 C546 1.386 . S
C547 C551 1.393 . S
C548 H537 0.950 . S
C548 C546 1.391 . S
C548 C549 1.400 . S
C549 C543 1.491 . S
C549 C548 1.400 . S
C549 C550 1.398 . S
C550 H538 0.950 . S
C550 C549 1.398 . S
C550 C551 1.391 . S
C551 H539 0.950 . S
C551 C547 1.393 . S
C551 C550 1.391 . S
H552 C560 0.950 . S
H553 C565 0.950 . S
H554 C562 0.950 . S
H555 C564 0.950 . S
H556 C566 0.950 1_655 S
H557 C568 0.950 . S
H558 C570 0.950 . S
H559 C571 0.950 . S
C560 H552 0.950 . S
C560 C561 1.386 1_455 S
C560 C562 1.391 . S
C561 C560 1.386 1_655 S
C561 C565 1.393 . S
C562 H554 0.950 . S
C562 C560 1.391 . S
C562 C563 1.398 1_455 S
C563 C562 1.398 1_655 S
C563 C564 1.408 . S
C563 C569 1.484 1_655 S
C564 H555 0.950 . S
C564 C563 1.408 . S
C564 C565 1.391 . S
C565 H553 0.950 . S
C565 C561 1.393 . S
C565 C564 1.391 . S
C566 H556 0.950 1_455 S
C566 C567 1.386 . S
C566 C568 1.391 1_455 S
C567 C566 1.386 . S
C567 C571 1.393 . S
C568 H557 0.950 . S
C568 C566 1.391 1_655 S
C568 C569 1.400 1_655 S
C569 C563 1.484 1_455 S
C569 C568 1.400 1_455 S
C569 C570 1.398 . S
C570 H558 0.950 . S
C570 C569 1.398 . S
C570 C571 1.391 . S
C571 H559 0.950 . S
C571 C567 1.393 . S
C571 C570 1.391 . S
H572 C580 0.950 . S
H573 C585 0.950 . S
H574 C582 0.950 . S
H575 C584 0.950 . S
H576 C586 0.950 . S
H577 C588 0.950 . S
H578 C590 0.950 . S
H579 C591 0.950 . S
C580 H572 0.950 . S
C580 C581 1.386 . S
C580 C582 1.391 . S
C581 C580 1.386 . S
C581 C585 1.393 . S
C582 H574 0.950 . S
C582 C580 1.391 . S
C582 C583 1.400 . S
C583 C582 1.400 . S
C583 C584 1.398 . S
C583 C589 1.491 . S
C584 H575 0.950 . S
C584 C583 1.398 . S
C584 C585 1.391 . S
C585 H573 0.950 . S
C585 C581 1.393 . S
C585 C584 1.391 . S
C586 H576 0.950 . S
C586 C587 1.386 . S
C586 C588 1.391 . S
C587 C586 1.386 . S
C587 C591 1.393 . S
C588 H577 0.950 . S
C588 C586 1.391 . S
C588 C589 1.400 . S
C589 C583 1.491 . S
C589 C588 1.400 . S
C589 C590 1.398 . S
C590 H578 0.950 . S
C590 C589 1.398 . S
C590 C591 1.391 . S
C591 H579 0.950 . S
C591 C587 1.393 . S
C591 C590 1.391 . S
H592 C600 0.950 . S
H593 C605 0.950 . S
H594 C602 0.950 . S
H595 C604 0.950 . S
H596 C606 0.950 . S
H597 C608 0.950 . S
H598 C610 0.950 . S
H599 C611 0.950 1_565 S
C600 H592 0.950 . S
C600 C601 1.386 . S
C600 C602 1.391 . S
C601 C600 1.386 . S
C601 C605 1.393 1_565 S
C602 H594 0.950 . S
C602 C600 1.391 . S
C602 C603 1.399 1_565 S
C603 C602 1.399 1_545 S
C603 C604 1.399 . S
C603 C609 1.491 . S
C604 H595 0.950 . S
C604 C603 1.399 . S
C604 C605 1.391 . S
C605 H593 0.950 . S
C605 C601 1.393 1_545 S
C605 C604 1.391 . S
C606 H596 0.950 . S
C606 C607 1.386 . S
C606 C608 1.391 . S
C607 C606 1.386 . S
C607 C611 1.393 . S
C608 H597 0.950 . S
C608 C606 1.391 . S
C608 C609 1.400 . S
C609 C603 1.491 . S
C609 C608 1.400 . S
C609 C610 1.398 1_545 S
C610 H598 0.950 . S
C610 C609 1.398 1_565 S
C610 C611 1.391 1_565 S
C611 H599 0.950 1_545 S
C611 C607 1.393 . S
C611 C610 1.391 1_545 S
H612 C620 0.950 . S
H613 C625 0.950 . S
H614 C622 0.950 . S
H615 C624 0.950 . S
H616 C626 0.950 . S
H617 C628 0.950 . S
H618 C630 0.950 . S
H619 C631 0.950 . S
C620 H612 0.950 . S
C620 C621 1.386 1_556 S
C620 C622 1.391 . S
C621 C620 1.386 1_554 S
C621 C625 1.393 . S
C622 H614 0.950 . S
C622 C620 1.391 . S
C622 C623 1.400 1_556 S
C623 C622 1.400 1_554 S
C623 C624 1.398 . S
C623 C629 1.491 1_554 S
C624 H615 0.950 . S
C624 C623 1.398 . S
C624 C625 1.391 . S
C625 H613 0.950 . S
C625 C621 1.393 . S
C625 C624 1.391 . S
C626 H616 0.950 . S
C626 C627 1.386 1_554 S
C626 C628 1.391 . S
C627 C626 1.386 1_556 S
C627 C631 1.393 . S
C628 H617 0.950 . S
C628 C626 1.391 . S
C628 C629 1.400 1_554 S
C629 C623 1.491 1_556 S
C629 C628 1.400 1_556 S
C629 C630 1.398 . S
C630 H618 0.950 . S
C630 C629 1.398 . S
C630 C631 1.391 . S
C631 H619 0.950 . S
C631 C627 1.393 . S
C631 C630 1.391 . S
H632 C640 0.950 . S
H633 C645 0.950 . S
H634 C642 0.950 . S
H635 C644 0.950 . S
H636 C646 0.950 . S
H637 C648 0.950 . S
H638 C650 0.950 . S
H639 C651 0.950 . S
C640 H632 0.950 . S
C640 C641 1.386 . S
C640 C642 1.391 . S
C641 C640 1.386 . S
C641 C645 1.393 1_556 S
C642 H634 0.950 . S
C642 C640 1.391 . S
C642 C643 1.400 . S
C643 C642 1.400 . S
C643 C644 1.398 1_556 S
C643 C649 1.491 1_546 S
C644 H635 0.950 . S
C644 C643 1.398 1_554 S
C644 C645 1.391 . S
C645 H633 0.950 . S
C645 C641 1.393 1_554 S
C645 C644 1.391 . S
C646 H636 0.950 . S
C646 C647 1.386 . S
C646 C648 1.391 . S
C647 C646 1.386 . S
C647 C651 1.393 1_554 S
C648 H637 0.950 . S
C648 C646 1.391 . S
C648 C649 1.400 . S
C649 C643 1.491 1_564 S
C649 C648 1.400 . S
C649 C650 1.398 1_554 S
C650 H638 0.950 . S
C650 C649 1.398 1_556 S
C650 C651 1.391 . S
C651 H639 0.950 . S
C651 C647 1.393 1_556 S
C651 C650 1.391 . S
H652 C660 0.950 . S
H653 C665 0.950 . S
H654 C662 0.950 . S
H655 C664 0.950 . S
H656 C666 0.950 . S
H657 C668 0.950 . S
H658 C670 0.950 . S
H659 C671 0.950 . S
C660 H652 0.950 . S
C660 C661 1.386 . S
C660 C662 1.391 . S
C661 C660 1.386 . S
C661 C665 1.393 1_556 S
C662 H654 0.950 . S
C662 C660 1.391 . S
C662 C663 1.400 . S
C663 C662 1.400 . S
C663 C664 1.398 1_556 S
C663 C669 1.491 1_656 S
C664 H655 0.950 . S
C664 C663 1.398 1_554 S
C664 C665 1.391 . S
C665 H653 0.950 . S
C665 C661 1.393 1_554 S
C665 C664 1.391 . S
C666 H656 0.950 . S
C666 C667 1.386 . S
C666 C668 1.391 . S
C667 C666 1.386 . S
C667 C671 1.393 1_554 S
C668 H657 0.950 . S
C668 C666 1.391 . S
C668 C669 1.400 . S
C669 C663 1.491 1_454 S
C669 C668 1.400 . S
C669 C670 1.398 1_554 S
C670 H658 0.950 . S
C670 C669 1.398 1_556 S
C670 C671 1.391 . S
C671 H659 0.950 . S
C671 C667 1.393 1_556 S
C671 C670 1.391 . S
H672 C680 0.950 . S
H673 C685 0.950 . S
H674 C682 0.950 . S
H675 C684 0.950 . S
H676 C686 0.950 . S
H677 C688 0.950 . S
H678 C690 0.950 . S
H679 C691 0.950 . S
C680 H672 0.950 . S
C680 C681 1.386 . S
C680 C682 1.391 . S
C681 C680 1.386 . S
C681 C685 1.393 1_556 S
C682 H674 0.950 . S
C682 C680 1.391 . S
C682 C683 1.400 . S
C683 C682 1.400 . S
C683 C684 1.398 1_556 S
C683 C689 1.491 1_556 S
C684 H675 0.950 . S
C684 C683 1.398 1_554 S
C684 C685 1.391 . S
C685 H673 0.950 . S
C685 C681 1.393 1_554 S
C685 C684 1.391 . S
C686 H676 0.950 . S
C686 C687 1.386 . S
C686 C688 1.391 . S
C687 C686 1.386 . S
C687 C691 1.393 1_554 S
C688 H677 0.950 . S
C688 C686 1.391 . S
C688 C689 1.400 . S
C689 C683 1.491 1_554 S
C689 C688 1.400 . S
C689 C690 1.398 1_554 S
C690 H678 0.950 . S
C690 C689 1.398 1_556 S
C690 C691 1.391 . S
C691 H679 0.950 . S
C691 C687 1.393 1_556 S
C691 C690 1.391 . S
H692 C700 0.950 . S
H693 C705 0.950 . S
H694 C702 0.950 . S
H695 C704 0.950 . S
H696 C706 0.950 . S
H697 C708 0.950 . S
H698 C710 0.950 . S
H699 C711 0.950 . S
C700 H692 0.950 . S
C700 C701 1.386 . S
C700 C702 1.391 . S
C701 C700 1.386 . S
C701 C705 1.393 1_554 S
C702 H694 0.950 . S
C702 C700 1.391 . S
C702 C703 1.400 . S
C703 C702 1.400 . S
C703 C704 1.398 1_554 S
C703 C709 1.491 1_564 S
C704 H695 0.950 . S
C704 C703 1.398 1_556 S
C704 C705 1.391 . S
C705 H693 0.950 . S
C705 C701 1.393 1_556 S
C705 C704 1.391 . S
C706 H696 0.950 . S
C706 C707 1.386 . S
C706 C708 1.391 . S
C707 C706 1.386 . S
C707 C711 1.393 1_556 S
C708 H697 0.950 . S
C708 C706 1.391 . S
C708 C709 1.400 . S
C709 C703 1.491 1_546 S
C709 C708 1.400 . S
C709 C710 1.398 1_556 S
C710 H698 0.950 . S
C710 C709 1.398 1_554 S
C710 C711 1.391 . S
C711 H699 0.950 . S
C711 C707 1.393 1_554 S
C711 C710 1.391 . S
H712 C720 0.950 . S
H713 C725 0.950 1_554 S
H714 C722 0.950 . S
H715 C724 0.950 . S
H716 C726 0.950 . S
H717 C728 0.950 . S
H718 C730 0.950 . S
H719 C731 0.950 1_556 S
C720 H712 0.950 . S
C720 C721 1.386 . S
C720 C722 1.391 . S
C721 C720 1.386 . S
C721 C725 1.393 . S
C722 H714 0.950 . S
C722 C720 1.391 . S
C722 C723 1.400 . S
C723 C722 1.400 . S
C723 C724 1.398 1_556 S
C723 C729 1.491 1_656 S
C724 H715 0.950 . S
C724 C723 1.398 1_554 S
C724 C725 1.391 1_554 S
C725 H713 0.950 1_556 S
C725 C721 1.393 . S
C725 C724 1.391 1_556 S
C726 H716 0.950 . S
C726 C727 1.386 . S
C726 C728 1.391 . S
C727 C726 1.386 . S
C727 C731 1.393 . S
C728 H717 0.950 . S
C728 C726 1.391 . S
C728 C729 1.400 . S
C729 C723 1.491 1_454 S
C729 C728 1.400 . S
C729 C730 1.398 1_554 S
C730 H718 0.950 . S
C730 C729 1.398 1_556 S
C730 C731 1.391 1_556 S
C731 H719 0.950 1_554 S
C731 C727 1.393 . S
C731 C730 1.391 1_554 S
H732 C740 0.950 . S
H733 C745 0.950 . S
H734 C742 0.950 . S
H735 C744 0.950 . S
H736 C746 0.950 . S
H737 C748 0.950 . S
H738 C750 0.950 . S
H739 C751 0.950 . S
C740 H732 0.950 . S
C740 C741 1.386 . S
C740 C742 1.391 . S
C741 C740 1.386 . S
C741 C745 1.393 . S
C742 H734 0.950 . S
C742 C740 1.391 . S
C742 C743 1.400 . S
C743 C742 1.400 . S
C743 C744 1.398 . S
C743 C749 1.491 . S
C744 H735 0.950 . S
C744 C743 1.398 . S
C744 C745 1.391 . S
C745 H733 0.950 . S
C745 C741 1.393 . S
C745 C744 1.391 . S
C746 H736 0.950 . S
C746 C747 1.386 . S
C746 C748 1.391 . S
C747 C746 1.386 . S
C747 C751 1.393 . S
C748 H737 0.950 . S
C748 C746 1.391 . S
C748 C749 1.400 . S
C749 C743 1.491 . S
C749 C748 1.400 . S
C749 C750 1.398 . S
C750 H738 0.950 . S
C750 C749 1.398 . S
C750 C751 1.391 . S
C751 H739 0.950 . S
C751 C747 1.393 . S
C751 C750 1.391 . S
H752 C760 0.950 . S
H753 C765 0.950 . S
H754 C762 0.950 . S
H755 C764 0.950 . S
H756 C766 0.950 . S
H757 C768 0.950 . S
H758 C770 0.950 . S
H759 C771 0.950 . S
C760 H752 0.950 . S
C760 C761 1.386 . S
C760 C762 1.391 . S
C761 C760 1.386 . S
C761 C765 1.393 . S
C762 H754 0.950 . S
C762 C760 1.391 . S
C762 C763 1.400 . S
C763 C762 1.400 . S
C763 C764 1.398 . S
C763 C769 1.491 . S
C764 H755 0.950 . S
C764 C763 1.398 . S
C764 C765 1.391 . S
C765 H753 0.950 . S
C765 C761 1.393 . S
C765 C764 1.391 . S
C766 H756 0.950 . S
C766 C767 1.386 . S
C766 C768 1.391 . S
C767 C766 1.386 . S
C767 C771 1.393 . S
C768 H757 0.950 . S
C768 C766 1.391 . S
C768 C769 1.400 . S
C769 C763 1.491 . S
C769 C768 1.400 . S
C769 C770 1.398 . S
C770 H758 0.950 . S
C770 C769 1.398 . S
C770 C771 1.391 . S
C771 H759 0.950 . S
C771 C767 1.393 . S
C771 C770 1.391 . S
H772 C780 0.950 . S
H773 C785 0.950 . S
H774 C782 0.950 . S
H775 C784 0.950 . S
H776 C786 0.950 . S
H777 C788 0.950 . S
H778 C790 0.950 . S
H779 C791 0.950 . S
C780 H772 0.950 . S
C780 C781 1.386 . S
C780 C782 1.391 . S
C781 C780 1.386 . S
C781 C785 1.393 . S
C782 H774 0.950 . S
C782 C780 1.391 . S
C782 C783 1.400 . S
C783 C782 1.400 . S
C783 C784 1.398 . S
C783 C789 1.491 . S
C784 H775 0.950 . S
C784 C783 1.398 . S
C784 C785 1.391 . S
C785 H773 0.950 . S
C785 C781 1.393 . S
C785 C784 1.391 . S
C786 H776 0.950 . S
C786 C787 1.386 . S
C786 C788 1.391 . S
C787 C786 1.386 . S
C787 C791 1.393 . S
C788 H777 0.950 . S
C788 C786 1.391 . S
C788 C789 1.400 . S
C789 C783 1.491 . S
C789 C788 1.400 . S
C789 C790 1.398 . S
C790 H778 0.950 . S
C790 C789 1.398 . S
C790 C791 1.391 . S
C791 H779 0.950 . S
C791 C787 1.393 . S
C791 C790 1.391 . S
H792 C800 0.950 . S
H793 C805 0.950 . S
H794 C802 0.950 . S
H795 C804 0.950 . S
H796 C806 0.950 . S
H797 C808 0.950 . S
H798 C810 0.950 . S
H799 C811 0.950 . S
C800 H792 0.950 . S
C800 C801 1.386 . S
C800 C802 1.391 . S
C801 C800 1.386 . S
C801 C805 1.393 . S
C802 H794 0.950 . S
C802 C800 1.391 . S
C802 C803 1.400 . S
C803 C802 1.400 . S
C803 C804 1.398 . S
C803 C809 1.491 . S
C804 H795 0.950 . S
C804 C803 1.398 . S
C804 C805 1.391 . S
C805 H793 0.950 . S
C805 C801 1.393 . S
C805 C804 1.391 . S
C806 H796 0.950 . S
C806 C807 1.386 . S
C806 C808 1.391 . S
C807 C806 1.386 . S
C807 C811 1.393 . S
C808 H797 0.950 . S
C808 C806 1.391 . S
C808 C809 1.400 . S
C809 C803 1.491 . S
C809 C808 1.400 . S
C809 C810 1.398 . S
C810 H798 0.950 . S
C810 C809 1.398 . S
C810 C811 1.391 . S
C811 H799 0.950 . S
C811 C807 1.393 . S
C811 C810 1.391 . S
H812 C820 0.950 . S
H813 C825 0.950 . S
H814 C822 0.950 . S
H815 C824 0.950 . S
H816 C826 0.950 . S
H817 C828 0.950 . S
H818 C830 0.950 . S
H819 C831 0.950 . S
C820 H812 0.950 . S
C820 C821 1.386 . S
C820 C822 1.391 . S
C821 C820 1.386 . S
C821 C825 1.393 . S
C822 H814 0.950 . S
C822 C820 1.391 . S
C822 C823 1.400 . S
C823 C822 1.400 . S
C823 C824 1.398 . S
C823 C829 1.491 . S
C824 H815 0.950 . S
C824 C823 1.398 . S
C824 C825 1.391 . S
C825 H813 0.950 . S
C825 C821 1.393 . S
C825 C824 1.391 . S
C826 H816 0.950 . S
C826 C827 1.386 . S
C826 C828 1.391 . S
C827 C826 1.386 . S
C827 C831 1.393 . S
C828 H817 0.950 . S
C828 C826 1.391 . S
C828 C829 1.400 . S
C829 C823 1.491 . S
C829 C828 1.400 . S
C829 C830 1.398 . S
C830 H818 0.950 . S
C830 C829 1.398 . S
C830 C831 1.391 . S
C831 H819 0.950 . S
C831 C827 1.393 . S
C831 C830 1.391 . S
H832 C840 0.950 . S
H833 C845 0.950 . S
H834 C842 0.950 . S
H835 C844 0.950 . S
H836 C846 0.950 . S
H837 C848 0.950 . S
H838 C850 0.950 . S
H839 C851 0.950 . S
C840 H832 0.950 . S
C840 C841 1.386 . S
C840 C842 1.391 . S
C841 C840 1.386 . S
C841 C845 1.393 . S
C842 H834 0.950 . S
C842 C840 1.391 . S
C842 C843 1.400 . S
C843 C842 1.400 . S
C843 C844 1.398 . S
C843 C849 1.491 . S
C844 H835 0.950 . S
C844 C843 1.398 . S
C844 C845 1.391 . S
C845 H833 0.950 . S
C845 C841 1.393 . S
C845 C844 1.391 . S
C846 H836 0.950 . S
C846 C847 1.386 . S
C846 C848 1.391 . S
C847 C846 1.386 . S
C847 C851 1.393 . S
C848 H837 0.950 . S
C848 C846 1.391 . S
C848 C849 1.400 . S
C849 C843 1.491 . S
C849 C848 1.400 . S
C849 C850 1.398 . S
C850 H838 0.950 . S
C850 C849 1.398 . S
C850 C851 1.391 . S
C851 H839 0.950 . S
C851 C847 1.393 . S
C851 C850 1.391 . S
H852 C860 0.950 . S
H853 C865 0.950 . S
H854 C862 0.950 . S
H855 C864 0.950 . S
H856 C866 0.950 . S
H857 C868 0.950 . S
H858 C870 0.950 . S
H859 C871 0.950 . S
C860 H852 0.950 . S
C860 C861 1.386 . S
C860 C862 1.391 . S
C861 C860 1.386 . S
C861 C865 1.393 . S
C862 H854 0.950 . S
C862 C860 1.391 . S
C862 C863 1.400 . S
C863 C862 1.400 . S
C863 C864 1.398 . S
C863 C869 1.491 . S
C864 H855 0.950 . S
C864 C863 1.398 . S
C864 C865 1.391 . S
C865 H853 0.950 . S
C865 C861 1.393 . S
C865 C864 1.391 . S
C866 H856 0.950 . S
C866 C867 1.386 . S
C866 C868 1.391 . S
C867 C866 1.386 . S
C867 C871 1.393 . S
C868 H857 0.950 . S
C868 C866 1.391 . S
C868 C869 1.400 . S
C869 C863 1.491 . S
C869 C868 1.400 . S
C869 C870 1.398 . S
C870 H858 0.950 . S
C870 C869 1.398 . S
C870 C871 1.391 . S
C871 H859 0.950 . S
C871 C867 1.393 . S
C871 C870 1.391 . S
H872 C880 0.950 . S
H873 C885 0.950 . S
H874 C882 0.950 . S
H875 C884 0.950 . S
H876 C886 0.950 . S
H877 C888 0.950 . S
H878 C890 0.950 . S
H879 C891 0.950 . S
C880 H872 0.950 . S
C880 C881 1.386 . S
C880 C882 1.391 . S
C881 C880 1.386 . S
C881 C885 1.393 . S
C882 H874 0.950 . S
C882 C880 1.391 . S
C882 C883 1.400 . S
C883 C882 1.400 . S
C883 C884 1.398 . S
C883 C889 1.491 . S
C884 H875 0.950 . S
C884 C883 1.398 . S
C884 C885 1.391 . S
C885 H873 0.950 . S
C885 C881 1.393 . S
C885 C884 1.391 . S
C886 H876 0.950 . S
C886 C887 1.386 . S
C886 C888 1.391 . S
C887 C886 1.386 . S
C887 C891 1.393 . S
C888 H877 0.950 . S
C888 C886 1.391 . S
C888 C889 1.400 . S
C889 C883 1.491 . S
C889 C888 1.400 . S
C889 C890 1.398 . S
C890 H878 0.950 . S
C890 C889 1.398 . S
C890 C891 1.391 . S
C891 H879 0.950 . S
C891 C887 1.393 . S
C891 C890 1.391 . S
H892 C900 0.950 . S
H893 C905 0.950 . S
H894 C902 0.950 . S
H895 C904 0.950 . S
H896 C906 0.950 . S
H897 C908 0.950 . S
H898 C910 0.950 . S
H899 C911 0.950 . S
C900 H892 0.950 . S
C900 C901 1.386 . S
C900 C902 1.391 . S
C901 C900 1.386 . S
C901 C905 1.393 . S
C902 H894 0.950 . S
C902 C900 1.391 . S
C902 C903 1.400 . S
C903 C902 1.400 . S
C903 C904 1.398 . S
C903 C909 1.491 . S
C904 H895 0.950 . S
C904 C903 1.398 . S
C904 C905 1.391 . S
C905 H893 0.950 . S
C905 C901 1.393 . S
C905 C904 1.391 . S
C906 H896 0.950 . S
C906 C907 1.386 . S
C906 C908 1.391 . S
C907 C906 1.386 . S
C907 C911 1.393 . S
C908 H897 0.950 . S
C908 C906 1.391 . S
C908 C909 1.400 . S
C909 C903 1.491 . S
C909 C908 1.400 . S
C909 C910 1.398 . S
C910 H898 0.950 . S
C910 C909 1.398 . S
C910 C911 1.391 . S
C911 H899 0.950 . S
C911 C907 1.393 . S
C911 C910 1.391 . S
H912 C920 0.950 . S
H913 C925 0.950 . S
H914 C922 0.950 . S
H915 C924 0.950 . S
H916 C926 0.950 . S
H917 C928 0.950 . S
H918 C930 0.950 . S
H919 C931 0.950 . S
C920 H912 0.950 . S
C920 C921 1.386 . S
C920 C922 1.391 . S
C921 C920 1.386 . S
C921 C925 1.393 . S
C922 H914 0.950 . S
C922 C920 1.391 . S
C922 C923 1.400 . S
C923 C922 1.400 . S
C923 C924 1.398 . S
C923 C929 1.491 . S
C924 H915 0.950 . S
C924 C923 1.398 . S
C924 C925 1.391 . S
C925 H913 0.950 . S
C925 C921 1.393 . S
C925 C924 1.391 . S
C926 H916 0.950 . S
C926 C927 1.386 . S
C926 C928 1.391 . S
C927 C926 1.386 . S
C927 C931 1.393 . S
C928 H917 0.950 . S
C928 C926 1.391 . S
C928 C929 1.400 . S
C929 C923 1.491 . S
C929 C928 1.400 . S
C929 C930 1.398 . S
C930 H918 0.950 . S
C930 C929 1.398 . S
C930 C931 1.391 . S
C931 H919 0.950 . S
C931 C927 1.393 . S
C931 C930 1.391 . S
H932 C940 0.950 . S
H933 C945 0.950 . S
H934 C942 0.950 . S
H935 C944 0.950 . S
H936 C946 0.950 . S
H937 C948 0.950 . S
H938 C950 0.950 . S
H939 C951 0.950 . S
C940 H932 0.950 . S
C940 C941 1.386 . S
C940 C942 1.391 . S
C941 C940 1.386 . S
C941 C945 1.393 . S
C942 H934 0.950 . S
C942 C940 1.391 . S
C942 C943 1.400 . S
C943 C942 1.400 . S
C943 C944 1.398 . S
C943 C949 1.491 . S
C944 H935 0.950 . S
C944 C943 1.398 . S
C944 C945 1.391 . S
C945 H933 0.950 . S
C945 C941 1.393 . S
C945 C944 1.391 . S
C946 H936 0.950 . S
C946 C947 1.386 . S
C946 C948 1.391 . S
C947 C946 1.386 . S
C947 C951 1.393 . S
C948 H937 0.950 . S
C948 C946 1.391 . S
C948 C949 1.400 . S
C949 C943 1.491 . S
C949 C948 1.400 . S
C949 C950 1.398 . S
C950 H938 0.950 . S
C950 C949 1.398 . S
C950 C951 1.391 . S
C951 H939 0.950 . S
C951 C947 1.393 . S
C951 C950 1.391 . S
H952 C960 0.950 . S
H953 C965 0.950 . S
H954 C962 0.950 . S
H955 C964 0.950 . S
H956 C966 0.950 . S
H957 C968 0.950 . S
H958 C970 0.950 . S
H959 C971 0.950 . S
C960 H952 0.950 . S
C960 C961 1.386 . S
C960 C962 1.391 . S
C961 C960 1.386 . S
C961 C965 1.393 . S
C962 H954 0.950 . S
C962 C960 1.391 . S
C962 C963 1.400 . S
C963 C962 1.400 . S
C963 C964 1.398 . S
C963 C969 1.491 . S
C964 H955 0.950 . S
C964 C963 1.398 . S
C964 C965 1.391 . S
C965 H953 0.950 . S
C965 C961 1.393 . S
C965 C964 1.391 . S
C966 H956 0.950 . S
C966 C967 1.386 . S
C966 C968 1.391 . S
C967 C966 1.386 . S
C967 C971 1.393 . S
C968 H957 0.950 . S
C968 C966 1.391 . S
C968 C969 1.400 . S
C969 C963 1.491 . S
C969 C968 1.400 . S
C969 C970 1.398 . S
C970 H958 0.950 . S
C970 C969 1.398 . S
C970 C971 1.391 . S
C971 H959 0.950 . S
C971 C967 1.393 . S
C971 C970 1.391 . S
C261 C244 1.646 . S
C267 C6 1.646 . S
C281 C216 1.659 . S
C287 C20 1.658 . S
C301 C230 1.646 . S
C307 C34 1.646 . S
C321 C104 1.648 . S
C327 C48 1.646 . S
C341 C118 1.649 . S
C347 C62 1.652 . S
C361 C76 1.655 . S
C367 C90 1.651 . S
C381 C132 1.653 . S
C387 C188 1.650 . S
C401 C146 1.658 . S
C407 C202 1.658 . S
C421 C160 1.657 . S
C427 C174 1.659 . S
C441 C9 0.859 . S
C447 C247 0.860 . S
C461 C219 0.822 . S
C467 C23 0.836 . S
C481 C37 0.861 . S
C487 C233 0.849 . S
C501 C107 0.858 . S
C507 C51 0.843 . S
C521 C65 0.821 . S
C527 C121 0.832 . S
C541 C79 0.859 . S
C547 C93 0.845 . S
C561 C135 0.833 . S
C567 C191 0.821 . S
C581 C205 0.829 . S
C587 C149 0.846 . S
C601 C177 0.847 . S
C607 C163 0.860 . S
C621 C8 1.789 . S
C627 C50 1.793 . S
C641 C64 1.793 . S
C647 C22 1.789 . S
C661 C78 1.792 . S
C667 C36 1.790 . S
C681 C77 1.732 . S
C687 C21 1.717 . S
C701 C35 1.724 . S
C707 C49 1.713 . S
C721 C63 1.731 . S
C727 C7 1.723 . S
C741 C92 1.792 . S
C747 C134 1.788 . S
C761 C148 1.792 . S
C767 C106 1.789 . S
C781 C162 1.789 . S
C787 C120 1.791 . S
C801 C161 1.714 . S
C807 C105 1.721 . S
C821 C119 1.722 . S
C827 C133 1.713 . S
C841 C147 1.723 . S
C847 C91 1.713 . S
C861 C218 1.789 . S
C867 C176 1.791 . S
C881 C232 1.790 . S
C887 C190 1.792 . S
C901 C204 1.790 . S
C907 C246 1.791 . S
C921 C245 1.729 . S
C927 C189 1.726 . S
C941 C203 1.725 . S
C947 C217 1.713 . S
C961 C231 1.732 . S
C967 C175 1.720 . S
