# Generated by pormake.
# Topology ung, (4)-cn, num edge types: 1
# Building blocks:
#     Node 0, Type 0, BuildingBlock: ESEHIV_clean_sbu_0, # of connection points: 4
#     Node 1, Type 0, BuildingBlock: ESEHIV_clean_sbu_0, # of connection points: 4
#     Node 2, Type 0, BuildingBlock: ESEHIV_clean_sbu_0, # of connection points: 4
#     Node 3, Type 0, BuildingBlock: ESEHIV_clean_sbu_0, # of connection points: 4
#     Node 4, Type 0, BuildingBlock: ESEHIV_clean_sbu_0, # of connection points: 4
#     Node 5, Type 0, BuildingBlock: ESEHIV_clean_sbu_0, # of connection points: 4
#     Node 6, Type 0, BuildingBlock: ESEHIV_clean_sbu_0, # of connection points: 4
#     Node 7, Type 0, BuildingBlock: ESEHIV_clean_sbu_0, # of connection points: 4
#     Node 8, Type 0, BuildingBlock: ESEHIV_clean_sbu_0, # of connection points: 4
#     Node 9, Type 0, BuildingBlock: ESEHIV_clean_sbu_0, # of connection points: 4
#     Node 10, Type 0, BuildingBlock: ESEHIV_clean_sbu_0, # of connection points: 4
#     Node 11, Type 0, BuildingBlock: ESEHIV_clean_sbu_0, # of connection points: 4
#     Node 12, Type 0, BuildingBlock: ESEHIV_clean_sbu_0, # of connection points: 4
#     Node 13, Type 0, BuildingBlock: ESEHIV_clean_sbu_0, # of connection points: 4
#     Node 14, Type 0, BuildingBlock: ESEHIV_clean_sbu_0, # of connection points: 4
#     Node 15, Type 0, BuildingBlock: ESEHIV_clean_sbu_0, # of connection points: 4
#     Node 16, Type 0, BuildingBlock: ESEHIV_clean_sbu_0, # of connection points: 4
#     Node 17, Type 0, BuildingBlock: ESEHIV_clean_sbu_0, # of connection points: 4
#     Edge 18, Type (0, 0), BuildingBlock: AJUNOK_clean_linker_0, # of connection points: 2
#     Edge 19, Type (0, 0), BuildingBlock: AJUNOK_clean_linker_0, # of connection points: 2
#     Edge 20, Type (0, 0), BuildingBlock: AJUNOK_clean_linker_0, # of connection points: 2
#     Edge 21, Type (0, 0), BuildingBlock: AJUNOK_clean_linker_0, # of connection points: 2
#     Edge 22, Type (0, 0), BuildingBlock: AJUNOK_clean_linker_0, # of connection points: 2
#     Edge 23, Type (0, 0), BuildingBlock: AJUNOK_clean_linker_0, # of connection points: 2
#     Edge 24, Type (0, 0), BuildingBlock: AJUNOK_clean_linker_0, # of connection points: 2
#     Edge 25, Type (0, 0), BuildingBlock: AJUNOK_clean_linker_0, # of connection points: 2
#     Edge 26, Type (0, 0), BuildingBlock: AJUNOK_clean_linker_0, # of connection points: 2
#     Edge 27, Type (0, 0), BuildingBlock: AJUNOK_clean_linker_0, # of connection points: 2
#     Edge 28, Type (0, 0), BuildingBlock: AJUNOK_clean_linker_0, # of connection points: 2
#     Edge 29, Type (0, 0), BuildingBlock: AJUNOK_clean_linker_0, # of connection points: 2
#     Edge 30, Type (0, 0), BuildingBlock: AJUNOK_clean_linker_0, # of connection points: 2
#     Edge 31, Type (0, 0), BuildingBlock: AJUNOK_clean_linker_0, # of connection points: 2
#     Edge 32, Type (0, 0), BuildingBlock: AJUNOK_clean_linker_0, # of connection points: 2
#     Edge 33, Type (0, 0), BuildingBlock: AJUNOK_clean_linker_0, # of connection points: 2
#     Edge 34, Type (0, 0), BuildingBlock: AJUNOK_clean_linker_0, # of connection points: 2
#     Edge 35, Type (0, 0), BuildingBlock: AJUNOK_clean_linker_0, # of connection points: 2
#     Edge 36, Type (0, 0), BuildingBlock: AJUNOK_clean_linker_0, # of connection points: 2
#     Edge 37, Type (0, 0), BuildingBlock: AJUNOK_clean_linker_0, # of connection points: 2
#     Edge 38, Type (0, 0), BuildingBlock: AJUNOK_clean_linker_0, # of connection points: 2
#     Edge 39, Type (0, 0), BuildingBlock: AJUNOK_clean_linker_0, # of connection points: 2
#     Edge 40, Type (0, 0), BuildingBlock: AJUNOK_clean_linker_0, # of connection points: 2
#     Edge 41, Type (0, 0), BuildingBlock: AJUNOK_clean_linker_0, # of connection points: 2
#     Edge 42, Type (0, 0), BuildingBlock: AJUNOK_clean_linker_0, # of connection points: 2
#     Edge 43, Type (0, 0), BuildingBlock: AJUNOK_clean_linker_0, # of connection points: 2
#     Edge 44, Type (0, 0), BuildingBlock: AJUNOK_clean_linker_0, # of connection points: 2
#     Edge 45, Type (0, 0), BuildingBlock: AJUNOK_clean_linker_0, # of connection points: 2
#     Edge 46, Type (0, 0), BuildingBlock: AJUNOK_clean_linker_0, # of connection points: 2
#     Edge 47, Type (0, 0), BuildingBlock: AJUNOK_clean_linker_0, # of connection points: 2
#     Edge 48, Type (0, 0), BuildingBlock: AJUNOK_clean_linker_0, # of connection points: 2
#     Edge 49, Type (0, 0), BuildingBlock: AJUNOK_clean_linker_0, # of connection points: 2
#     Edge 50, Type (0, 0), BuildingBlock: AJUNOK_clean_linker_0, # of connection points: 2
#     Edge 51, Type (0, 0), BuildingBlock: AJUNOK_clean_linker_0, # of connection points: 2
#     Edge 52, Type (0, 0), BuildingBlock: AJUNOK_clean_linker_0, # of connection points: 2
#     Edge 53, Type (0, 0), BuildingBlock: AJUNOK_clean_linker_0, # of connection points: 2
# Relax obj value: 0.013
# Max RMSD: 0.199
# Mean RMSD: 0.160
data_MOF--net-ung--node1-ESEHIV_clean_sbu_0--edge1-AJUNOK_clean_linker_0
_symmetry_space_group_name_H-M    P1
_symmetry_Int_Tables_number       1
_symmetry_cell_setting            triclinic
loop_
_symmetry_equiv_pos_as_xyz
'x, y, z'
_cell_length_a     68.509697
_cell_length_b     66.931961
_cell_length_c     16.194634
_cell_angle_alpha  98.457451
_cell_angle_beta   86.315849
_cell_angle_gamma 122.77293
loop_
_atom_site_label
_atom_site_type_symbol
_atom_site_fract_x
_atom_site_fract_y
_atom_site_fract_z
_atom_type_partial_charge
Cu0 Cu 0.06212 0.60416 0.19816 0.0
N1 N 0.05338 0.58607 0.28785 0.0
N2 N 0.05435 0.56439 0.37927 0.0
C3 C 0.06267 0.57392 0.30718 0.0
C4 C 0.03889 0.57048 0.4053 0.0
C5 C 0.03842 0.58392 0.34917 0.0
O6 O 0.07163 0.58794 0.10798 0.0
C7 C 0.09744 0.64464 0.30702 0.0
O8 O 0.09589 0.62827 0.3477 0.0
H9 H 0.07538 0.57227 0.2689 0.0
H10 H 0.0283 0.59203 0.35375 0.0
N11 N 0.0371 0.60464 0.15837 0.0
N12 N 1.01684 0.61686 0.10104 0.0
C13 C 0.03803 0.62278 0.12679 0.0
C14 C 1.01462 0.58673 0.15306 0.0
C15 C 1.00218 0.59414 0.1179 0.0
C16 C 0.05742 0.5655 0.08476 0.0
O17 O 0.03712 0.5547 0.1206 0.0
H18 H 0.05393 0.64003 0.12408 0.0
H19 H 1.00775 0.5694 0.17286 0.0
O20 O 0.08591 0.63796 0.23867 0.0
H21 H 0.02911 0.56615 0.46221 0.0
H22 H 0.9837 0.58333 0.10443 0.0
Cu23 Cu 0.50743 0.48073 0.17339 0.0
N24 N 0.52013 0.50097 0.08905 0.0
N25 N 0.54465 0.52279 0.99277 0.0
C26 C 0.5404 0.50796 0.04945 0.0
C27 C 0.52617 0.52503 0.99647 0.0
C28 C 0.51108 0.51149 0.05511 0.0
O29 O 0.53002 0.49684 0.26807 0.0
C30 C 0.48692 0.4282 0.14282 0.0
O31 O 0.48239 0.42738 0.22274 0.0
H32 H 0.55193 0.50249 0.06262 0.0
H33 H 0.49461 0.50945 0.07156 0.0
N34 N 0.48083 0.48008 0.21707 0.0
N35 N 0.44743 0.47002 0.28329 0.0
C36 C 0.46072 0.4621 0.24529 0.0
C37 C 0.48015 0.49987 0.23867 0.0
C38 C 0.45967 0.49376 0.27845 0.0
C39 C 0.55191 0.5059 0.26797 0.0
O40 O 0.56117 0.50019 0.20274 0.0
H41 H 0.45604 0.44373 0.23919 0.0
H42 H 0.49411 0.51779 0.2292 0.0
O43 O 0.49842 0.44857 0.11624 0.0
H44 H 0.52362 0.53559 0.959 0.0
H45 H 0.45461 0.50609 0.30513 0.0
Cu46 Cu 0.6291 0.03829 0.32324 0.0
N47 N 0.61097 0.02908 0.22628 0.0
N48 N 0.59025 0.03039 0.12789 0.0
C49 C 0.60109 0.04028 0.20331 0.0
C50 C 0.59331 1.01212 0.10281 0.0
C51 C 0.60616 1.01142 0.16341 0.0
O52 O 0.61396 0.04858 0.41257 0.0
C53 C 0.67251 0.05684 0.24508 0.0
O54 O 0.66335 0.03388 0.21988 0.0
H55 H 0.60226 0.05573 0.24051 0.0
H56 H 0.61177 0.99905 0.16143 0.0
N57 N 0.62946 1.01236 0.35446 0.0
N58 N 0.63951 0.99071 0.41303 0.0
C59 C 0.64619 1.0128 0.3966 0.0
C60 C 0.61185 0.98921 0.34347 0.0
C61 C 0.61796 0.97588 0.37944 0.0
C62 C 0.59218 0.03438 0.42412 0.0
O63 O 0.5811 1.01347 0.37706 0.0
H64 H 0.6626 0.02903 0.41689 0.0
H65 H 0.5955 0.98252 0.31256 0.0
O66 O 0.66087 0.0632 0.29444 0.0
H67 H 0.58655 0.99994 0.04524 0.0
H68 H 0.60732 0.95672 0.38118 0.0
Cu69 Cu 0.0699 0.46712 0.71645 0.0
N70 N 0.07818 0.4856 0.62794 0.0
N71 N 0.07817 0.50882 0.54092 0.0
C72 C 0.07116 0.50034 0.61524 0.0
C73 C 0.08966 0.49872 0.50494 0.0
C74 C 0.08944 0.48429 0.55815 0.0
O75 O 0.0617 0.48379 0.80944 0.0
C76 C 0.0393 0.41445 0.68421 0.0
O77 O 0.04878 0.41366 0.75053 0.0
H78 H 0.06063 0.5043 0.65867 0.0
H79 H 0.09606 0.47273 0.54494 0.0
N80 N 0.09524 0.46585 0.75045 0.0
N81 N 0.1172 0.45705 0.81569 0.0
C82 C 0.09664 0.45547 0.81393 0.0
C83 C 0.11596 0.47486 0.71308 0.0
C84 C 0.12939 0.46942 0.75263 0.0
C85 C 0.07742 0.50564 0.83482 0.0
O86 O 0.09789 0.51471 0.80031 0.0
H87 H 0.08274 0.44654 0.85698 0.0
H88 H 0.12113 0.48484 0.66067 0.0
O89 O 0.04471 0.43481 0.66634 0.0
H90 H 0.09671 0.50065 0.44276 0.0
H91 H 0.14692 0.4744 0.73671 0.0
Cu92 Cu 0.65988 0.61393 0.60932 0.0
N93 N 0.64984 0.59555 0.69887 0.0
N94 N 0.62622 0.57298 0.79496 0.0
C95 C 0.62859 0.58563 0.73317 0.0
C96 C 0.64694 0.57536 0.80115 0.0
C97 C 0.66149 0.58939 0.74232 0.0
O98 O 0.63666 0.5938 0.51823 0.0
C99 C 0.68212 0.66006 0.70071 0.0
O100 O 0.6975 0.65456 0.71004 0.0
H101 H 0.61499 0.58751 0.7133 0.0
H102 H 0.67941 0.59493 0.73297 0.0
N103 N 0.68862 0.61937 0.56644 0.0
N104 N 0.72285 0.63501 0.50088 0.0
C105 C 0.70486 0.6375 0.52507 0.0
C106 C 0.69644 0.60473 0.56608 0.0
C107 C 0.71749 0.61436 0.52655 0.0
C108 C 0.61515 0.5865 0.51826 0.0
O109 O 0.60747 0.59585 0.57819 0.0
H110 H 0.70351 0.65218 0.51279 0.0
H111 H 0.68716 0.58779 0.59064 0.0
O112 O 0.66387 0.645 0.656 0.0
H113 H 0.65141 0.56792 0.84611 0.0
H114 H 0.7277 0.60635 0.51499 0.0
Cu115 Cu 0.49993 0.05211 0.76864 0.0
N116 N 0.5182 0.06097 0.86495 0.0
N117 N 0.54023 0.05986 0.95858 0.0
C118 C 0.52902 0.05029 0.88371 0.0
C119 C 0.536 0.07707 0.98847 0.0
C120 C 0.52245 0.07774 0.93061 0.0
O121 O 0.51531 0.04212 0.67906 0.0
C122 C 0.45629 0.034 0.84577 0.0
O123 O 0.46512 0.05706 0.86677 0.0
H124 H 0.52807 0.03528 0.84401 0.0
H125 H 0.51592 0.0894 0.93647 0.0
N126 N 0.50004 0.07841 0.73825 0.0
N127 N 0.49166 0.1007 0.67537 0.0
C128 C 0.48466 0.0783 0.68921 0.0
C129 C 0.51713 0.10166 0.75595 0.0
C130 C 0.51207 0.11537 0.71712 0.0
C131 C 0.53701 0.05717 0.66898 0.0
O132 O 0.54697 0.078 0.7165 0.0
H133 H 0.46915 0.06214 0.66179 0.0
H134 H 0.53257 0.10815 0.79266 0.0
O135 O 0.4681 0.02736 0.79868 0.0
H136 H 0.54227 0.08839 0.04792 0.0
H137 H 0.52277 0.13463 0.71809 0.0
Cu138 Cu 0.73866 0.95035 0.64658 0.0
N139 N 0.73213 0.93106 0.73053 0.0
N140 N 0.73622 0.90985 0.81521 0.0
C141 C 0.74087 0.91755 0.73944 0.0
C142 C 0.72419 0.91886 0.85532 0.0
C143 C 0.72165 0.93185 0.80301 0.0
O144 O 0.74885 0.93599 0.55167 0.0
C145 C 0.76913 1.00366 0.68478 0.0
O146 O 0.7654 1.0058 0.60898 0.0
H147 H 0.75165 0.91474 0.69361 0.0
H148 H 0.71383 0.94225 0.81834 0.0
N149 N 0.71107 0.94794 0.61742 0.0
N150 N 0.68496 0.9547 0.57267 0.0
C151 C 0.70771 0.96395 0.58894 0.0
C152 C 0.68979 0.92794 0.6181 0.0
C153 C 0.67378 0.93196 0.59044 0.0
C154 C 0.73984 0.92924 0.47812 0.0
O155 O 0.726 0.93586 0.45906 0.0
H156 H 0.72154 0.98192 0.57985 0.0
H157 H 0.68625 0.91133 0.6359 0.0
O158 O 0.76092 0.98277 0.70445 0.0
H159 H 0.7183 0.9168 0.91896 0.0
H160 H 0.65537 0.9188 0.58151 0.0
Cu161 Cu 0.164 0.80897 0.5788 0.0
N162 N 0.1835 0.82352 0.67544 0.0
N163 N 0.20831 0.85073 0.77699 0.0
C164 C 0.19369 0.84632 0.71471 0.0
C165 C 0.20701 0.82997 0.77818 0.0
C166 C 0.19166 0.81326 0.71618 0.0
O167 O 0.18059 0.82975 0.49069 0.0
C168 C 0.12409 0.7959 0.68066 0.0
O169 O 0.13823 0.79846 0.73812 0.0
H170 H 0.19098 0.8596 0.69716 0.0
H171 H 0.187 0.7949 0.70128 0.0
N172 N 0.16222 0.78013 0.5364 0.0
N173 N 0.15047 0.74319 0.47142 0.0
C174 C 0.14415 0.75899 0.49971 0.0
C175 C 0.18047 0.77759 0.52962 0.0
C176 C 0.17326 0.75489 0.49081 0.0
C177 C 0.18881 0.85209 0.49205 0.0
O178 O 0.18292 0.86306 0.5526 0.0
H179 H 0.1268 0.75529 0.49388 0.0
H180 H 0.19799 0.79152 0.55011 0.0
O181 O 0.13191 0.80054 0.60714 0.0
H182 H 0.21661 0.82716 0.82073 0.0
H183 H 0.1841 0.74768 0.47619 0.0
Cu184 Cu 0.30471 0.37732 0.57957 0.0
N185 N 0.29395 0.38554 0.68068 0.0
N186 N 0.26952 0.38445 0.78177 0.0
C187 C 0.27198 0.37334 0.70874 0.0
C188 C 0.29075 0.40439 0.80015 0.0
C189 C 0.30577 0.40494 0.73814 0.0
O190 O 0.27913 0.36625 0.49931 0.0
C191 C 0.33004 0.36289 0.65238 0.0
O192 O 0.34059 0.38568 0.68296 0.0
H193 H 0.25795 0.35702 0.67497 0.0
H194 H 0.32398 0.41868 0.73477 0.0
N195 N 0.3316 0.4046 0.54492 0.0
N196 N 0.36421 0.42817 0.47746 0.0
C197 C 0.34905 0.40576 0.49697 0.0
C198 C 0.33595 0.42697 0.55601 0.0
C199 C 0.35594 0.44147 0.51481 0.0
C200 C 0.28191 0.37394 0.42899 0.0
O201 O 0.30296 0.38615 0.39973 0.0
H202 H 0.34994 0.39028 0.47362 0.0
H203 H 0.32489 0.43221 0.58949 0.0
O204 O 0.3129 0.35439 0.60164 0.0
H205 H 0.29509 0.41762 0.85471 0.0
H206 H 0.36362 0.46034 0.51151 0.0
Cu207 Cu 0.74275 0.81187 0.05177 0.0
N208 N 0.73438 0.82314 0.15415 0.0
N209 N 0.73334 0.84821 0.2614 0.0
C210 C 0.73995 0.8458 0.18176 0.0
C211 C 0.7231 0.82616 0.28469 0.0
C212 C 0.72366 0.81082 0.21875 0.0
O213 O 0.74767 0.83322 0.97061 0.0
C214 C 0.76535 0.79281 0.11601 0.0
O215 O 0.744 0.77857 0.13995 0.0
H216 H 0.74929 0.86047 0.1454 0.0
H217 H 0.71705 0.79204 0.21867 0.0
N218 N 0.71844 0.7812 1.00378 0.0
N219 N 0.70022 0.7461 0.91781 0.0
C220 C 0.72069 0.76443 0.95425 0.0
C221 C 0.69578 0.7732 0.99916 0.0
C222 C 0.68455 0.75165 0.94698 0.0
C223 C 0.76233 0.85575 0.97649 0.0
O224 O 0.77838 0.86622 0.03579 0.0
H225 H 0.73718 0.76597 0.94499 0.0
H226 H 0.68813 0.78289 0.02884 0.0
O227 O 0.76935 0.8094 0.07408 0.0
H228 H 0.71573 0.82144 0.34527 0.0
H229 H 0.66633 0.74138 0.92939 0.0
Cu230 Cu 0.30863 0.95553 0.1221 0.0
N231 N 0.29415 0.93217 0.19681 0.0
N232 N 0.26769 0.90639 0.28071 0.0
C233 C 0.27441 0.9255 0.24038 0.0
C234 C 0.28404 0.9011 0.26241 0.0
C235 C 0.30022 0.91694 0.21137 0.0
O236 O 0.28771 0.94286 0.02443 0.0
C237 C 0.32587 1.00655 0.15393 0.0
O238 O 0.32817 1.00617 0.07267 0.0
H239 H 0.26475 0.93399 0.24024 0.0
H240 H 0.31516 0.91697 0.18535 0.0
N241 N 0.33566 0.95743 0.07552 0.0
N242 N 0.36932 0.97042 1.00629 0.0
C243 C 0.35626 0.97674 0.05651 0.0
C244 C 0.33568 0.93839 0.03505 0.0
C245 C 0.35616 0.94622 0.99284 0.0
C246 C 0.26565 0.93214 0.02284 0.0
O247 O 0.25492 0.93394 0.09089 0.0
H248 H 0.36114 0.99504 0.076 0.0
H249 H 0.321 0.92007 0.03137 0.0
O250 O 0.31701 0.9869 0.18439 0.0
H251 H 0.28423 0.88666 0.28405 0.0
H252 H 0.36011 0.93485 0.95048 0.0
Cu253 Cu 0.16918 0.38004 0.11676 0.0
N254 N 0.18821 0.38686 0.20991 0.0
N255 N 0.21246 0.38531 0.29259 0.0
C256 C 0.20333 0.37994 0.21467 0.0
C257 C 0.20261 0.39598 0.33862 0.0
C258 C 0.18775 0.39691 0.28778 0.0
O259 O 0.18539 0.37618 0.01733 0.0
C260 C 0.12579 0.35844 0.18963 0.0
O261 O 0.13548 0.38073 0.22519 0.0
H262 H 0.20688 0.37028 0.16281 0.0
H263 H 0.17692 0.40389 0.30702 0.0
N264 N 0.166 0.40559 0.10042 0.0
N265 N 0.15405 0.42576 0.04189 0.0
C266 C 0.15451 0.40561 0.03557 0.0
C267 C 0.1731 0.42651 0.14946 0.0
C268 C 0.16564 0.43888 0.11384 0.0
C269 C 0.18996 0.36013 0.99393 0.0
O270 O 0.18047 0.34113 0.03281 0.0
H271 H 0.14618 0.39082 0.98566 0.0
H272 H 0.18278 0.43229 0.20748 0.0
O273 O 0.13764 0.35306 0.1375 0.0
H274 H 0.20582 0.40257 0.40462 0.0
H275 H 0.16873 0.45631 0.1385 0.0
Cu276 Cu 0.39824 0.28705 0.88417 0.0
N277 N 0.38742 0.26689 0.96801 0.0
N278 N 0.38629 0.2433 0.05598 0.0
C279 C 0.39676 0.25499 0.98937 0.0
C280 C 0.36986 0.24829 0.07777 0.0
C281 C 0.37063 0.26284 0.02363 0.0
O282 O 0.40795 0.27128 0.79322 0.0
C283 C 0.43653 0.33819 0.91106 0.0
O284 O 0.43652 0.33815 0.82994 0.0
H285 H 0.41118 0.25515 0.95713 0.0
H286 H 0.36016 0.27053 0.02628 0.0
N287 N 0.37432 0.28954 0.84383 0.0
N288 N 0.35538 0.30317 0.78569 0.0
C289 C 0.37633 0.30738 0.80646 0.0
C290 C 0.35133 0.27339 0.84581 0.0
C291 C 0.33969 0.28168 0.81027 0.0
C292 C 0.39309 0.2493 0.7657 0.0
O293 O 0.37215 0.23909 0.79681 0.0
H294 H 0.39287 0.32291 0.79356 0.0
H295 H 0.3435 0.2567 0.87159 0.0
O296 O 0.4227 0.31866 0.94112 0.0
H297 H 0.3587 0.2427 0.13111 0.0
H298 H 0.32103 0.27273 0.80453 0.0
Cu299 Cu 0.82251 0.14016 0.98212 0.0
N300 N 0.83338 0.16217 0.90444 0.0
N301 N 0.85676 0.18493 0.80842 0.0
C302 C 0.84906 0.16503 0.84472 0.0
C303 C 0.84511 0.19474 0.84579 0.0
C304 C 0.83074 0.1807 0.90483 0.0
O305 O 0.84651 0.15537 0.07213 0.0
C306 C 0.80613 0.08894 0.93927 0.0
O307 O 0.80135 0.08671 0.0185 0.0
H308 H 0.85574 0.15349 0.83173 0.0
H309 H 0.82018 0.18456 0.94825 0.0
N310 N 0.79575 0.13696 0.03603 0.0
N311 N 0.7617 0.12281 0.10291 0.0
C312 C 0.77459 0.11735 0.04807 0.0
C313 C 0.79624 0.15521 0.0856 0.0
C314 C 0.77554 0.14666 0.12659 0.0
C315 C 0.86796 0.17138 0.06367 0.0
O316 O 0.87637 0.17452 0.98831 0.0
H317 H 0.76905 0.09938 0.01945 0.0
H318 H 0.81127 0.17335 0.09514 0.0
O319 O 0.81563 0.10965 0.91619 0.0
H320 H 0.84791 0.21171 0.83537 0.0
H321 H 0.77171 0.15711 0.17434 0.0
Cu322 Cu 0.98228 0.71762 0.84526 0.0
N323 N 0.96527 0.7105 0.74656 0.0
N324 N 0.94355 0.71177 0.65217 0.0
C325 C 0.95577 0.72223 0.72493 0.0
C326 C 0.94571 0.69296 0.62655 0.0
C327 C 0.95903 0.69219 0.6848 0.0
O328 O 0.96648 0.72722 0.93451 0.0
C329 C 1.02463 0.74105 0.75565 0.0
O330 O 1.0114 0.72406 0.69596 0.0
H331 H 0.95732 0.73778 0.76283 0.0
H332 H 0.96387 0.67918 0.68221 0.0
N333 N 0.97994 0.68975 0.87161 0.0
N334 N 0.98567 0.66472 0.92948 0.0
C335 C 0.99451 0.68777 0.91777 0.0
C336 C 0.96149 0.66721 0.85365 0.0
C337 C 0.96492 0.65187 0.8892 0.0
C338 C 0.94449 0.71279 0.94084 0.0
O339 O 0.93416 0.69281 0.88866 0.0
H340 H 1.01076 0.70295 0.94488 0.0
H341 H 0.94621 0.66226 0.81886 0.0
O342 O 1.01552 0.742 0.82674 0.0
H343 H 0.93841 0.68076 0.56929 0.0
H344 H 0.95291 0.63268 0.8865 0.0
Cu345 Cu 0.40647 0.15056 0.40117 0.0
N346 N 0.41459 0.16933 0.31397 0.0
N347 N 0.41284 0.191 0.22457 0.0
C348 C 0.40387 0.18 0.29359 0.0
C349 C 0.42996 0.18719 0.20109 0.0
C350 C 0.43087 0.17369 0.25578 0.0
O351 O 0.39778 0.16682 0.49448 0.0
C352 C 0.37155 0.09808 0.3785 0.0
O353 O 0.37423 0.09779 0.45779 0.0
H354 H 0.38983 0.17974 0.32916 0.0
H355 H 0.44232 0.16715 0.25242 0.0
N356 N 0.43236 0.15032 0.43482 0.0
N357 N 0.45524 0.14048 0.48766 0.0
C358 C 0.43315 0.13371 0.47093 0.0
C359 C 0.45468 0.1682 0.4297 0.0
C360 C 0.4687 0.16231 0.46234 0.0
C361 C 0.41284 0.18916 0.51632 0.0
O362 O 0.43263 0.19898 0.47708 0.0
H363 H 0.41794 0.11704 0.48487 0.0
H364 H 0.46043 0.18469 0.4052 0.0
O365 O 0.38232 0.11811 0.34965 0.0
H366 H 0.44068 0.19321 0.14694 0.0
H367 H 0.48739 0.17373 0.46937 0.0
Cu368 Cu 0.9725 0.27301 0.4204 0.0
N369 N 0.96035 0.25122 0.49931 0.0
N370 N 0.93519 0.22842 0.59192 0.0
C371 C 0.94415 0.24869 0.55637 0.0
C372 C 0.94683 0.21826 0.55796 0.0
C373 C 0.96219 0.23224 0.50065 0.0
O374 O 0.94916 0.25799 0.32829 0.0
C375 C 0.99019 0.3245 0.45331 0.0
O376 O 0.99327 0.32483 0.3725 0.0
H377 H 0.93826 0.26092 0.56844 0.0
H378 H 0.97294 0.22809 0.45948 0.0
N379 N 0.99943 0.27564 0.37124 0.0
N380 N 0.03408 0.29105 0.30868 0.0
C381 C 1.0204 0.29566 0.36193 0.0
C382 C 0.99999 0.25778 0.3231 0.0
C383 C 1.02126 0.26713 0.28517 0.0
C384 C 0.92727 0.24461 0.33842 0.0
O385 O 0.91909 0.24498 0.41362 0.0
H386 H 0.02527 0.31326 0.3923 0.0
H387 H 0.98543 0.2394 0.31259 0.0
O388 O 0.98063 0.30446 0.48179 0.0
H389 H 0.94347 0.20118 0.56991 0.0
H390 H 0.02637 0.25722 0.24008 0.0
Cu391 Cu 0.85285 0.7312 0.28977 0.0
N392 N 0.87333 0.7425 0.38119 0.0
N393 N 0.89507 0.7418 0.47715 0.0
C394 C 0.88219 0.73058 0.40602 0.0
C395 C 0.89449 0.76178 0.49726 0.0
C396 C 0.88092 0.76207 0.43835 0.0
O397 O 0.86744 0.72109 0.19758 0.0
C398 C 0.80281 0.69299 0.30043 0.0
O399 O 0.79944 0.69461 0.22343 0.0
H400 H 0.87922 0.71396 0.37205 0.0
H401 H 0.87652 0.77534 0.43827 0.0
N402 N 0.84951 0.75571 0.2608 0.0
N403 N 0.83449 0.7752 0.21691 0.0
C404 C 0.83034 0.75389 0.23278 0.0
C405 C 0.86632 0.77908 0.26317 0.0
C406 C 0.85716 0.7911 0.23667 0.0
C407 C 0.88898 0.73568 0.18339 0.0
O408 O 0.89986 0.75699 0.22794 0.0
H409 H 0.81362 0.73731 0.22379 0.0
H410 H 0.88404 0.78696 0.28367 0.0
O411 O 0.8233 0.70558 0.33219 0.0
H412 H 0.90274 0.7749 0.55189 0.0
H413 H 0.86641 0.81021 0.23468 0.0
C414 C 0.05096 0.51204 0.93591 0.0
C415 C 0.07285 0.52123 0.899 0.0
C416 C 0.04628 0.52653 0.99509 0.0
C417 C 0.06322 0.55099 0.02034 0.0
H418 H 0.03723 0.49346 0.91898 0.0
H419 H 0.02909 0.51834 0.02121 0.0
S420 S 0.12349 0.58411 0.94319 0.0
N421 N 0.11183 0.55672 0.8928 0.0
N422 N 0.1029 0.58364 1.00329 0.0
C423 C 0.08519 0.56045 0.98396 0.0
C424 C 0.09002 0.5457 0.92374 0.0
C425 C 0.59278 0.57009 0.87361 0.0
C426 C 0.60586 0.56008 0.84455 0.0
C427 C 0.5729 0.55784 0.92175 0.0
C428 C 0.5651 0.53491 0.94225 0.0
H429 H 0.59818 0.58774 0.86007 0.0
H430 H 0.56377 0.56659 0.94411 0.0
S431 S 0.59193 0.49976 0.87311 0.0
N432 N 0.60892 0.52537 0.8352 0.0
N433 N 0.57135 0.50204 0.92364 0.0
C434 C 0.57781 0.52448 0.91178 0.0
C435 C 0.5982 0.53712 0.86349 0.0
C436 C 0.56466 0.04598 0.12851 0.0
C437 C 0.57797 0.03785 0.08411 0.0
C438 C 0.55247 0.05318 0.08726 0.0
C439 C 0.55313 0.05261 0.99985 0.0
H440 H 0.56335 0.0464 0.19565 0.0
H441 H 0.54215 0.05888 0.12402 0.0
S442 S 0.58753 0.0354 0.85558 0.0
N443 N 0.59239 0.03132 0.94836 0.0
N444 N 0.56967 0.04494 0.87109 0.0
C445 C 0.56679 0.04502 0.95489 0.0
C446 C 0.57915 0.03763 0.99689 0.0
C447 C 0.55471 0.02435 0.49648 0.0
C448 C 0.57879 0.04081 0.48771 0.0
C449 C 0.54136 0.02965 0.55458 0.0
C450 C 0.55139 0.05171 0.60694 0.0
H451 H 0.54592 1.00707 0.45791 0.0
H452 H 0.52301 0.0163 0.55827 0.0
S453 S 0.61381 0.10115 0.61013 0.0
N454 N 0.61203 0.08015 0.53746 0.0
N455 N 0.5873 0.09023 0.64608 0.0
C456 C 0.57551 0.06835 0.59902 0.0
C457 C 0.58908 0.0629 0.5398 0.0
C458 C 0.04445 0.5329 0.46797 0.0
C459 C 0.06085 0.55102 0.42125 0.0
C460 C 0.05029 0.51953 0.50844 0.0
C461 C 0.07274 0.52363 0.50346 0.0
H462 H 0.0268 0.52869 0.472 0.0
H463 H 0.03699 0.50546 0.54209 0.0
S464 S 0.12288 0.57078 0.39841 0.0
N465 N 0.1012 0.57369 0.37956 0.0
N466 N 0.11188 0.54826 0.4538 0.0
C467 C 0.08944 0.54204 0.45893 0.0
C468 C 0.08359 0.55579 0.41831 0.0
C469 C 0.60691 0.55638 0.38965 0.0
C470 C 0.59856 0.566 0.45524 0.0
C471 C 0.59174 0.53668 0.33131 0.0
C472 C 0.56741 0.52546 0.33563 0.0
H473 H 0.6254 0.56416 0.38286 0.0
H474 H 0.59929 0.53039 0.2817 0.0
S475 S 0.5363 0.543 0.49678 0.0
N476 N 0.56401 0.56219 0.52175 0.0
N477 N 0.53572 0.52538 0.41289 0.0
C478 C 0.55877 0.53467 0.4016 0.0
C479 C 0.57424 0.55482 0.4609 0.0
C480 C 0.74224 0.8739 0.39877 0.0
C481 C 0.737 0.86974 0.31272 0.0
C482 C 0.74451 0.89391 0.45088 0.0
C483 C 0.74122 0.91049 0.41957 0.0
H484 H 0.74442 0.86142 0.42631 0.0
H485 H 0.74789 0.89581 0.51691 0.0
S486 S 0.72817 0.90845 0.19811 0.0
N487 N 0.72946 0.88452 0.19824 0.0
N488 N 0.73341 0.9218 0.29556 0.0
C489 C 0.73658 0.90687 0.33316 0.0
C490 C 0.73458 0.88666 0.27997 0.0
C491 C 0.21665 0.855 0.3771 0.0
C492 C 0.20753 0.86619 0.43236 0.0
C493 C 0.23589 0.86815 0.3271 0.0
C494 C 0.24694 0.89315 0.32919 0.0
H495 H 0.20927 0.83592 0.37371 0.0
H496 H 0.24226 0.85859 0.28661 0.0
S497 S 0.22971 0.9313 0.46041 0.0
N498 N 0.21089 0.90403 0.48365 0.0
N499 N 0.24696 0.92853 0.3902 0.0
C500 C 0.23767 0.90453 0.38217 0.0
C501 C 0.21807 0.89115 0.43351 0.0
C502 C 0.24346 0.37088 0.43591 0.0
C503 C 0.26256 0.37352 0.38869 0.0
C504 C 0.22702 0.37431 0.4036 0.0
C505 C 0.2287 0.38021 0.32224 0.0
H506 H 0.24167 0.36711 0.49971 0.0
H507 H 0.21297 0.37256 0.44314 0.0
S508 S 0.27445 0.3877 0.17056 0.0
N509 N 0.28139 0.38124 0.25423 0.0
N510 N 0.25061 0.38763 0.19413 0.0
C511 C 0.24715 0.38195 0.27315 0.0
C512 C 0.26401 0.37864 0.3062 0.0
C513 C 0.22446 0.38882 0.91513 0.0
C514 C 0.20895 0.36517 0.93286 0.0
C515 C 0.24394 0.39484 0.86514 0.0
C516 C 0.24863 0.37745 0.82923 0.0
H517 H 0.222 0.40309 0.94212 0.0
H518 H 0.25554 0.41334 0.85469 0.0
S519 S 0.21331 0.31281 0.85273 0.0
N520 N 0.19954 0.3241 0.90808 0.0
N521 N 0.23597 0.33547 0.81324 0.0
C522 C 0.233 0.35363 0.84412 0.0
C523 C 0.21327 0.3475 0.89614 0.0
C524 C 0.7617 0.89253 0.9691 0.0
C525 C 0.75794 0.8705 0.92937 0.0
C526 C 0.75486 0.90541 0.93094 0.0
C527 C 0.74451 0.89711 0.85068 0.0
H528 H 0.76909 0.89941 0.03175 0.0
H529 H 0.75748 0.92192 0.96475 0.0
S530 S 0.73186 0.84124 0.71797 0.0
N531 N 0.7436 0.8413 0.80412 0.0
N532 N 0.73154 0.86602 0.73153 0.0
C533 C 0.74143 0.87563 0.80892 0.0
C534 C 0.74789 0.86219 0.84853 0.0
C535 C 0.22793 0.90429 0.94172 0.0
C536 C 0.2519 0.91375 0.95041 0.0
C537 C 0.2139 0.88444 0.88177 0.0
C538 C 0.22322 0.87303 0.82955 0.0
H539 H 0.21978 0.91182 0.98316 0.0
H540 H 0.19546 0.87725 0.87888 0.0
S541 S 0.28483 0.89131 0.82171 0.0
N542 N 0.28437 0.91072 0.89631 0.0
N543 N 0.25782 0.87327 0.78616 0.0
C544 C 0.24715 0.88275 0.83519 0.0
C545 C 0.26154 0.90315 0.8948 0.0
C546 C 0.38151 0.21042 0.67419 0.0
C547 C 0.39883 0.23458 0.70208 0.0
C548 C 0.38613 0.19579 0.61546 0.0
C549 C 0.40831 0.20457 0.5815 0.0
H550 H 0.36405 0.2026 0.69778 0.0
H551 H 0.3721 0.1775 0.59603 0.0
S552 S 0.46012 0.26633 0.63491 0.0
N553 N 0.43925 0.26635 0.69174 0.0
N554 N 0.44808 0.23918 0.58218 0.0
C555 C 0.42588 0.22867 0.60938 0.0
C556 C 0.42113 0.24355 0.66921 0.0
C557 C 0.89571 0.19436 0.76137 0.0
C558 C 0.87608 0.1956 0.75244 0.0
C559 C 0.91496 0.20528 0.70933 0.0
C560 C 0.91545 0.21797 0.64637 0.0
H561 H 0.89638 0.18522 0.80994 0.0
H562 H 0.92972 0.204 0.71896 0.0
S563 S 0.86744 0.22437 0.59157 0.0
N564 N 0.85773 0.20918 0.67219 0.0
N565 N 0.89373 0.22959 0.57446 0.0
C566 C 0.89575 0.21899 0.63587 0.0
C567 C 0.87615 0.20785 0.68884 0.0
C568 C 0.93999 0.7435 0.60686 0.0
C569 C 0.93081 0.71908 0.61043 0.0
C570 C 0.92819 0.75081 0.56377 0.0
C571 C 0.9067 0.73398 0.52284 0.0
H572 H 0.95668 0.75701 0.63605 0.0
H573 H 0.93616 0.76975 0.5611 0.0
S574 S 0.87371 0.66808 0.52383 0.0
N575 N 0.898 0.67825 0.5758 0.0
N576 N 0.87574 0.69189 0.496 0.0
C577 C 0.89698 0.70955 0.52852 0.0
C578 C 0.90904 0.70213 0.57198 0.0
C579 C 0.92628 0.74612 0.10893 0.0
C580 C 0.90246 0.72916 0.1206 0.0
C581 C 0.93977 0.74074 0.05191 0.0
C582 C 0.93014 0.71813 1.00338 0.0
H583 H 0.93474 0.76387 0.14428 0.0
H584 H 0.95787 0.75453 0.04551 0.0
S585 S 0.86873 0.66698 1.01076 0.0
N586 N 0.87003 0.68859 0.07898 0.0
N587 N 0.89504 0.67836 0.97239 0.0
C588 C 0.90634 0.70092 1.0147 0.0
C589 C 0.89263 0.70644 0.07291 0.0
C590 C 0.42235 0.22417 0.14564 0.0
C591 C 0.40574 0.20393 0.18324 0.0
C592 C 0.41589 0.23684 0.10412 0.0
C593 C 0.39252 0.22981 0.09827 0.0
H594 H 0.44057 0.23046 0.14924 0.0
H595 H 0.42937 0.25249 0.07745 0.0
S596 S 0.34201 0.17667 0.1787 0.0
N597 N 0.36468 0.17658 0.20699 0.0
N598 N 0.35257 0.2003 0.12921 0.0
C599 C 0.37569 0.20938 0.13444 0.0
C600 C 0.38228 0.19649 0.17679 0.0
C601 C 0.92058 0.22399 0.18979 0.0
C602 C 0.91157 0.22619 0.26887 0.0
C603 C 0.90651 0.20588 0.12521 0.0
C604 C 0.88274 0.18895 0.13644 0.0
H605 H 0.93874 0.23629 0.17745 0.0
H606 H 0.91444 0.20531 0.06558 0.0
S607 S 0.85032 0.1866 0.3315 0.0
N608 N 0.87702 0.20958 0.35443 0.0
N609 N 0.85084 0.17574 0.23362 0.0
C610 C 0.87349 0.19083 0.21532 0.0
C611 C 0.88778 0.20936 0.28109 0.0
C612 C 0.12716 0.67743 0.41074 0.0
C613 C 0.11123 0.6704 0.34514 0.0
C614 C 0.1396 0.70105 0.4517 0.0
C615 C 0.13649 0.71877 0.43015 0.0
H616 H 0.13014 0.66455 0.43092 0.0
H617 H 0.15168 0.70548 0.50147 0.0
S618 S 0.09716 0.71022 0.26265 0.0
N619 N 0.09325 0.68351 0.26011 0.0
N620 N 0.11655 0.72785 0.33793 0.0
C621 C 0.12061 0.71214 0.36498 0.0
C622 C 0.10809 0.68804 0.32221 0.0
C623 C 0.40931 0.46383 0.32377 0.0
C624 C 0.42548 0.45706 0.32533 0.0
C625 C 0.38914 0.45379 0.37149 0.0
C626 C 0.38408 0.43644 0.42318 0.0
H627 H 0.41247 0.47735 0.28608 0.0
H628 H 0.37747 0.45989 0.36852 0.0
S629 S 0.42044 0.41215 0.4498 0.0
N630 N 0.43481 0.43153 0.38261 0.0
N631 N 0.39678 0.41257 0.47201 0.0
C632 C 0.39966 0.42886 0.42354 0.0
C633 C 0.42035 0.43917 0.37478 0.0
C634 C 0.68586 0.98151 0.47843 0.0
C635 C 0.67452 0.96586 0.53919 0.0
C636 C 0.67476 0.99044 0.43947 0.0
C637 C 0.65191 0.98393 0.45958 0.0
H638 H 0.70305 0.98616 0.45862 0.0
H639 H 0.6837 1.00171 0.391 0.0
S640 S 0.61612 0.94689 0.6236 0.0
N641 N 0.64021 0.9469 0.6245 0.0
N642 N 0.61941 0.96313 0.55019 0.0
C643 C 0.64092 0.96934 0.52291 0.0
C644 C 0.65219 0.96046 0.56295 0.0
C645 C 0.71089 0.06729 0.18141 0.0
C646 C 0.6956 0.07456 0.21196 0.0
C647 C 0.73219 0.08293 0.14527 0.0
C648 C 0.73917 0.10657 0.13718 0.0
H649 H 0.70643 0.04929 0.18578 0.0
H650 H 0.74341 0.07649 0.12463 0.0
S651 S 0.70449 0.13385 0.19988 0.0
N652 N 0.68854 0.10675 0.22799 0.0
N653 N 0.72801 0.13585 0.15801 0.0
C654 C 0.7238 0.11393 0.16603 0.0
C655 C 0.70223 0.09806 0.20388 0.0
C656 C 0.98014 0.63794 0.03081 0.0
C657 C 0.99492 0.65519 0.97883 0.0
C658 C 0.98774 0.6263 0.07244 0.0
C659 C 1.01044 0.63104 0.0633 0.0
H660 H 0.96237 0.63319 0.0386 0.0
H661 H 0.97551 0.61321 0.11153 0.0
S662 S 0.05608 0.67498 0.93384 0.0
N663 N 0.03347 0.67699 0.92162 0.0
N664 N 0.04777 0.65475 0.99773 0.0
C665 C 0.02564 0.64878 1.01286 0.0
C666 C 1.01789 0.6609 0.97118 0.0
C667 C 0.4492 0.3615 0.05594 0.0
C668 C 0.45117 0.3612 0.96853 0.0
C669 C 0.46134 0.383 0.11135 0.0
C670 C 0.47616 0.40537 0.0824 0.0
H671 H 0.43774 0.34501 0.08221 0.0
H672 H 0.45861 0.38205 0.17763 0.0
S673 S 0.4888 0.4146 0.85953 0.0
N674 N 0.47019 0.38542 0.85605 0.0
N675 N 0.4929 0.42556 0.95949 0.0
C676 C 0.47889 0.40527 0.99518 0.0
C677 C 0.46648 0.38334 0.93867 0.0
C678 C 1.00326 0.34772 0.5979 0.0
C679 C 1.00049 0.34756 0.51217 0.0
C680 C 1.0151 0.36929 0.6531 0.0
C681 C 1.0245 0.3918 0.62578 0.0
H682 H 0.99691 0.33106 0.62244 0.0
H683 H 1.01726 0.36827 0.71771 0.0
S684 S 1.02088 0.40151 0.40862 0.0
N685 N 1.00741 0.37212 0.40358 0.0
N686 N 0.02927 0.4124 0.50707 0.0
C687 C 1.02107 0.39189 0.5409 0.0
C688 C 1.00923 0.36991 0.48436 0.0
C689 C 0.74073 0.65842 0.38185 0.0
C690 C 0.74302 0.65017 0.45345 0.0
C691 C 0.76 0.67181 0.33207 0.0
C692 C 0.78249 0.67794 0.35271 0.0
H693 H 0.7238 0.65402 0.3632 0.0
H694 H 0.75725 0.67763 0.27742 0.0
S695 S 0.79788 0.66149 0.53645 0.0
N696 N 0.76959 0.64952 0.54357 0.0
N697 N 0.80574 0.67493 0.45171 0.0
C698 C 0.78501 0.6701 0.42519 0.0
C699 C 0.76533 0.65617 0.47496 0.0
C700 C 0.45035 0.11434 0.59268 0.0
C701 C 0.46317 0.12805 0.5282 0.0
C702 C 0.4592 0.1044 0.63847 0.0
C703 C 0.48118 0.10792 0.62158 0.0
H704 H 0.43382 0.11209 0.6101 0.0
H705 H 0.44928 0.09479 0.68961 0.0
S706 S 0.52005 0.13893 0.45191 0.0
N707 N 0.49779 0.14179 0.44392 0.0
N708 N 0.51446 0.12389 0.53158 0.0
C709 C 0.49358 0.1205 0.55508 0.0
C710 C 0.48458 0.13035 0.508 0.0
C711 C 0.39704 1.00854 0.94864 0.0
C712 C 0.39117 0.98593 0.96625 0.0
C713 C 0.41777 0.02353 0.90809 0.0
C714 C 0.43358 0.0166 0.88219 0.0
H715 H 0.38544 0.0147 0.96549 0.0
H716 H 0.42142 0.04079 0.89686 0.0
S717 S 0.4276 0.96008 0.91804 0.0
N718 N 0.40396 0.95811 0.95848 0.0
N719 N 0.4423 0.9859 0.88011 0.0
C720 C 0.42801 0.99409 0.89921 0.0
C721 C 0.40704 0.97892 0.94168 0.0
C722 C 0.12256 0.45114 0.95862 0.0
C723 C 0.12492 0.44753 0.87164 0.0
C724 C 0.13198 0.44388 1.01384 0.0
C725 C 0.14367 0.43225 0.98416 0.0
H726 H 0.11403 0.46031 0.98413 0.0
H727 H 0.13013 0.4474 0.08035 0.0
S728 S 0.15348 0.41758 0.76163 0.0
N729 N 0.13913 0.43087 0.75849 0.0
N730 N 0.15657 0.41715 0.86154 0.0
C731 C 0.14554 0.42798 0.8972 0.0
C732 C 0.13627 0.43566 0.84124 0.0
C733 C 0.66851 0.68329 0.79657 0.0
C734 C 0.68599 0.6829 0.74734 0.0
C735 C 0.67327 0.70395 0.8514 0.0
C736 C 0.69565 0.72525 0.85871 0.0
H737 H 0.65129 0.6672 0.79563 0.0
H738 H 0.65936 0.70291 0.89012 0.0
S739 S 0.74663 0.73417 0.73359 0.0
N740 N 0.72604 0.70592 0.70448 0.0
N741 N 0.73476 0.74489 0.80331 0.0
C742 C 0.71295 0.72528 0.80629 0.0
C743 C 0.70817 0.70412 0.75179 0.0
C744 C 0.78982 0.04847 0.72856 0.0
C745 C 0.78056 0.02534 0.75027 0.0
C746 C 0.79867 0.06887 0.78947 0.0
C747 C 0.79855 0.0672 0.8754 0.0
H748 H 0.78986 0.05088 0.66386 0.0
H749 H 0.80509 0.08605 0.76885 0.0
S750 S 0.77762 1.01113 0.96609 0.0
N751 N 0.77297 1.00232 0.86471 0.0
N752 N 0.78934 0.04039 0.97834 0.0
C753 C 0.78997 0.04429 0.89791 0.0
C754 C 0.78109 0.02351 0.8358 0.0
C755 C 0.08168 0.77183 0.63694 0.0
C756 C 0.09882 0.78488 0.70039 0.0
C757 C 0.05788 0.75846 0.65572 0.0
C758 C 0.04997 0.75765 0.73881 0.0
H759 H 0.08668 0.77108 0.57228 0.0
H760 H 0.04557 0.7482 0.60423 0.0
S761 S 0.08762 0.79066 0.92788 0.0
N762 N 0.10601 0.79752 0.85002 0.0
N763 N 0.06147 0.77264 0.88468 0.0
C764 C 0.06686 0.77159 0.8026 0.0
C765 C 0.09115 0.78506 0.78358 0.0
C766 C 0.324 0.32251 0.66468 0.0
C767 C 0.33761 0.34771 0.68141 0.0
C768 C 0.33014 0.30817 0.69747 0.0
C769 C 0.35025 0.31835 0.74811 0.0
H770 H 0.30819 0.3137 0.62741 0.0
H771 H 0.31893 0.28889 0.68324 0.0
S772 S 0.39229 0.3835 0.80918 0.0
N773 N 0.37276 0.38221 0.75034 0.0
N774 N 0.38378 0.35539 0.81258 0.0
C775 C 0.36425 0.34352 0.76381 0.0
C776 C 0.35806 0.35812 0.73048 0.0
C777 C 0.07257 0.30092 0.25214 0.0
C778 C 0.05669 0.30789 0.27678 0.0
C779 C 0.09456 0.31688 0.22057 0.0
C780 C 0.10163 0.34054 0.21298 0.0
H781 H 0.06816 0.28308 0.25881 0.0
H782 H 0.10636 0.3109 0.20472 0.0
S783 S 0.06581 0.36705 0.25835 0.0
N784 N 0.04909 0.3396 0.28287 0.0
N785 N 0.09034 0.3696 0.22648 0.0
C786 C 0.08571 0.34752 0.23495 0.0
C787 C 0.06331 0.33126 0.26618 0.0
C788 C 0.79449 0.7666 0.21387 0.0
C789 C 0.81777 0.77999 0.18955 0.0
C790 C 0.77799 0.77101 0.1896 0.0
C791 C 0.78384 0.78902 0.13947 0.0
H792 H 0.78898 0.75279 0.25334 0.0
H793 H 0.76041 0.76013 0.21107 0.0
S794 S 0.84221 0.82841 0.05458 0.0
N795 N 0.84566 0.81148 0.109 0.0
N796 N 0.8147 0.81993 0.06435 0.0
C797 C 0.80703 0.80245 0.11386 0.0
C798 C 0.82394 0.79793 0.13866 0.0
C799 C 0.33719 0.03083 0.29753 0.0
C800 C 0.33565 0.02996 0.21047 0.0
C801 C 0.34812 0.05274 0.35124 0.0
C802 C 0.35802 0.07493 0.32076 0.0
H803 H 0.33043 0.01445 0.32458 0.0
H804 H 0.34926 0.05223 0.4172 0.0
S805 S 0.35711 0.08272 0.09862 0.0
N806 N 0.3439 0.05346 0.09706 0.0
N807 N 0.36424 0.09436 0.19733 0.0
C808 C 0.35586 0.07428 0.23414 0.0
C809 C 0.34477 0.05195 0.17938 0.0
loop_
_geom_bond_atom_site_label_1
_geom_bond_atom_site_label_2
_geom_bond_distance
_geom_bond_site_symmetry_2
_ccdc_geom_bond_type
Cu0 N1 1.999 . S
Cu0 O6 1.974 . S
Cu0 N11 1.985 . S
Cu0 O20 1.959 . S
N1 Cu0 1.999 . S
N1 C3 1.263 . S
N1 C5 1.389 . S
N2 C3 1.358 . S
N2 C4 1.400 . S
C3 N1 1.263 . S
C3 N2 1.358 . S
C3 H9 0.930 . S
C4 N2 1.400 . S
C4 C5 1.351 . S
C4 H21 0.930 . S
C5 N1 1.389 . S
C5 C4 1.351 . S
C5 H10 0.930 . S
O6 Cu0 1.974 . S
O6 C16 1.282 . S
C7 O8 1.261 . S
C7 O20 1.251 . S
O8 C7 1.261 . S
H9 C3 0.930 . S
H10 C5 0.930 . S
N11 Cu0 1.985 . S
N11 C13 1.335 . S
N11 C14 1.390 . S
N12 C13 1.345 . S
N12 C15 1.336 1_554 S
C13 N11 1.335 . S
C13 N12 1.345 . S
C13 H18 0.930 . S
C14 N11 1.390 . S
C14 C15 1.346 1_554 S
C14 H19 0.930 . S
C15 N12 1.336 1_556 S
C15 C14 1.346 1_556 S
C15 H22 0.929 . S
C16 O6 1.282 . S
C16 O17 1.216 . S
O17 C16 1.216 . S
H18 C13 0.930 . S
H19 C14 0.930 . S
O20 Cu0 1.959 . S
O20 C7 1.251 . S
H21 C4 0.930 . S
H22 C15 0.929 . S
Cu23 N24 1.999 . S
Cu23 O29 1.974 . S
Cu23 N34 1.985 . S
Cu23 O43 1.959 . S
N24 Cu23 1.999 . S
N24 C26 1.263 . S
N24 C28 1.389 1_554 S
N25 C26 1.358 1_556 S
N25 C27 1.400 . S
C26 N24 1.263 . S
C26 N25 1.358 1_554 S
C26 H32 0.930 . S
C27 N25 1.400 . S
C27 C28 1.351 . S
C27 H44 0.930 . S
C28 N24 1.389 1_556 S
C28 C27 1.351 . S
C28 H33 0.930 . S
O29 Cu23 1.974 . S
O29 C39 1.282 . S
C30 O31 1.261 . S
C30 O43 1.251 . S
O31 C30 1.261 . S
H32 C26 0.930 . S
H33 C28 0.930 . S
N34 Cu23 1.985 . S
N34 C36 1.335 . S
N34 C37 1.390 . S
N35 C36 1.345 . S
N35 C38 1.336 . S
C36 N34 1.335 . S
C36 N35 1.345 . S
C36 H41 0.930 . S
C37 N34 1.390 . S
C37 C38 1.346 . S
C37 H42 0.930 . S
C38 N35 1.336 . S
C38 C37 1.346 . S
C38 H45 0.929 . S
C39 O29 1.282 . S
C39 O40 1.216 . S
O40 C39 1.216 . S
H41 C36 0.930 . S
H42 C37 0.930 . S
O43 Cu23 1.959 . S
O43 C30 1.251 . S
H44 C27 0.930 . S
H45 C38 0.929 . S
Cu46 N47 1.999 . S
Cu46 O52 1.974 . S
Cu46 N57 1.985 . S
Cu46 O66 1.959 . S
N47 Cu46 1.999 . S
N47 C49 1.263 . S
N47 C51 1.389 . S
N48 C49 1.358 . S
N48 C50 1.400 . S
C49 N47 1.263 . S
C49 N48 1.358 . S
C49 H55 0.930 . S
C50 N48 1.400 . S
C50 C51 1.351 . S
C50 H67 0.930 . S
C51 N47 1.389 . S
C51 C50 1.351 . S
C51 H56 0.930 . S
O52 Cu46 1.974 . S
O52 C62 1.282 . S
C53 O54 1.261 . S
C53 O66 1.251 . S
O54 C53 1.261 . S
H55 C49 0.930 . S
H56 C51 0.930 . S
N57 Cu46 1.985 . S
N57 C59 1.335 . S
N57 C60 1.390 . S
N58 C59 1.345 . S
N58 C61 1.336 . S
C59 N57 1.335 . S
C59 N58 1.345 . S
C59 H64 0.930 . S
C60 N57 1.390 . S
C60 C61 1.346 . S
C60 H65 0.930 . S
C61 N58 1.336 . S
C61 C60 1.346 . S
C61 H68 0.929 . S
C62 O52 1.282 . S
C62 O63 1.216 . S
O63 C62 1.216 . S
H64 C59 0.930 . S
H65 C60 0.930 . S
O66 Cu46 1.959 . S
O66 C53 1.251 . S
H67 C50 0.930 . S
H68 C61 0.929 . S
Cu69 N70 1.999 . S
Cu69 O75 1.974 . S
Cu69 N80 1.985 . S
Cu69 O89 1.959 . S
N70 Cu69 1.999 . S
N70 C72 1.263 . S
N70 C74 1.389 . S
N71 C72 1.358 . S
N71 C73 1.400 . S
C72 N70 1.263 . S
C72 N71 1.358 . S
C72 H78 0.930 . S
C73 N71 1.400 . S
C73 C74 1.351 . S
C73 H90 0.930 . S
C74 N70 1.389 . S
C74 C73 1.351 . S
C74 H79 0.930 . S
O75 Cu69 1.974 . S
O75 C85 1.282 . S
C76 O77 1.261 . S
C76 O89 1.251 . S
O77 C76 1.261 . S
H78 C72 0.930 . S
H79 C74 0.930 . S
N80 Cu69 1.985 . S
N80 C82 1.335 . S
N80 C83 1.390 . S
N81 C82 1.345 . S
N81 C84 1.336 . S
C82 N80 1.335 . S
C82 N81 1.345 . S
C82 H87 0.930 . S
C83 N80 1.390 . S
C83 C84 1.346 . S
C83 H88 0.930 . S
C84 N81 1.336 . S
C84 C83 1.346 . S
C84 H91 0.929 . S
C85 O75 1.282 . S
C85 O86 1.216 . S
O86 C85 1.216 . S
H87 C82 0.930 . S
H88 C83 0.930 . S
O89 Cu69 1.959 . S
O89 C76 1.251 . S
H90 C73 0.930 . S
H91 C84 0.929 . S
Cu92 N93 1.999 . S
Cu92 O98 1.974 . S
Cu92 N103 1.985 . S
Cu92 O112 1.959 . S
N93 Cu92 1.999 . S
N93 C95 1.263 . S
N93 C97 1.389 . S
N94 C95 1.358 . S
N94 C96 1.400 . S
C95 N93 1.263 . S
C95 N94 1.358 . S
C95 H101 0.930 . S
C96 N94 1.400 . S
C96 C97 1.351 . S
C96 H113 0.930 . S
C97 N93 1.389 . S
C97 C96 1.351 . S
C97 H102 0.930 . S
O98 Cu92 1.974 . S
O98 C108 1.282 . S
C99 O100 1.261 . S
C99 O112 1.251 . S
O100 C99 1.261 . S
H101 C95 0.930 . S
H102 C97 0.930 . S
N103 Cu92 1.985 . S
N103 C105 1.335 . S
N103 C106 1.390 . S
N104 C105 1.345 . S
N104 C107 1.336 . S
C105 N103 1.335 . S
C105 N104 1.345 . S
C105 H110 0.930 . S
C106 N103 1.390 . S
C106 C107 1.346 . S
C106 H111 0.930 . S
C107 N104 1.336 . S
C107 C106 1.346 . S
C107 H114 0.929 . S
C108 O98 1.282 . S
C108 O109 1.216 . S
O109 C108 1.216 . S
H110 C105 0.930 . S
H111 C106 0.930 . S
O112 Cu92 1.959 . S
O112 C99 1.251 . S
H113 C96 0.930 . S
H114 C107 0.929 . S
Cu115 N116 1.999 . S
Cu115 O121 1.974 . S
Cu115 N126 1.985 . S
Cu115 O135 1.959 . S
N116 Cu115 1.999 . S
N116 C118 1.263 . S
N116 C120 1.389 . S
N117 C118 1.358 . S
N117 C119 1.400 . S
C118 N116 1.263 . S
C118 N117 1.358 . S
C118 H124 0.930 . S
C119 N117 1.400 . S
C119 C120 1.351 . S
C119 H136 0.930 1_556 S
C120 N116 1.389 . S
C120 C119 1.351 . S
C120 H125 0.930 . S
O121 Cu115 1.974 . S
O121 C131 1.282 . S
C122 O123 1.261 . S
C122 O135 1.251 . S
O123 C122 1.261 . S
H124 C118 0.930 . S
H125 C120 0.930 . S
N126 Cu115 1.985 . S
N126 C128 1.335 . S
N126 C129 1.390 . S
N127 C128 1.345 . S
N127 C130 1.336 . S
C128 N126 1.335 . S
C128 N127 1.345 . S
C128 H133 0.930 . S
C129 N126 1.390 . S
C129 C130 1.346 . S
C129 H134 0.930 . S
C130 N127 1.336 . S
C130 C129 1.346 . S
C130 H137 0.929 . S
C131 O121 1.282 . S
C131 O132 1.216 . S
O132 C131 1.216 . S
H133 C128 0.930 . S
H134 C129 0.930 . S
O135 Cu115 1.959 . S
O135 C122 1.251 . S
H136 C119 0.930 1_554 S
H137 C130 0.929 . S
Cu138 N139 1.999 . S
Cu138 O144 1.974 . S
Cu138 N149 1.985 . S
Cu138 O158 1.959 . S
N139 Cu138 1.999 . S
N139 C141 1.263 . S
N139 C143 1.389 . S
N140 C141 1.358 . S
N140 C142 1.400 . S
C141 N139 1.263 . S
C141 N140 1.358 . S
C141 H147 0.930 . S
C142 N140 1.400 . S
C142 C143 1.351 . S
C142 H159 0.930 . S
C143 N139 1.389 . S
C143 C142 1.351 . S
C143 H148 0.930 . S
O144 Cu138 1.974 . S
O144 C154 1.282 . S
C145 O146 1.261 . S
C145 O158 1.251 . S
O146 C145 1.261 . S
H147 C141 0.930 . S
H148 C143 0.930 . S
N149 Cu138 1.985 . S
N149 C151 1.335 . S
N149 C152 1.390 . S
N150 C151 1.345 . S
N150 C153 1.336 . S
C151 N149 1.335 . S
C151 N150 1.345 . S
C151 H156 0.930 . S
C152 N149 1.390 . S
C152 C153 1.346 . S
C152 H157 0.930 . S
C153 N150 1.336 . S
C153 C152 1.346 . S
C153 H160 0.929 . S
C154 O144 1.282 . S
C154 O155 1.216 . S
O155 C154 1.216 . S
H156 C151 0.930 . S
H157 C152 0.930 . S
O158 Cu138 1.959 . S
O158 C145 1.251 . S
H159 C142 0.930 . S
H160 C153 0.929 . S
Cu161 N162 1.999 . S
Cu161 O167 1.974 . S
Cu161 N172 1.985 . S
Cu161 O181 1.959 . S
N162 Cu161 1.999 . S
N162 C164 1.263 . S
N162 C166 1.389 . S
N163 C164 1.358 . S
N163 C165 1.400 . S
C164 N162 1.263 . S
C164 N163 1.358 . S
C164 H170 0.930 . S
C165 N163 1.400 . S
C165 C166 1.351 . S
C165 H182 0.930 . S
C166 N162 1.389 . S
C166 C165 1.351 . S
C166 H171 0.930 . S
O167 Cu161 1.974 . S
O167 C177 1.282 . S
C168 O169 1.261 . S
C168 O181 1.251 . S
O169 C168 1.261 . S
H170 C164 0.930 . S
H171 C166 0.930 . S
N172 Cu161 1.985 . S
N172 C174 1.335 . S
N172 C175 1.390 . S
N173 C174 1.345 . S
N173 C176 1.336 . S
C174 N172 1.335 . S
C174 N173 1.345 . S
C174 H179 0.930 . S
C175 N172 1.390 . S
C175 C176 1.346 . S
C175 H180 0.930 . S
C176 N173 1.336 . S
C176 C175 1.346 . S
C176 H183 0.929 . S
C177 O167 1.282 . S
C177 O178 1.216 . S
O178 C177 1.216 . S
H179 C174 0.930 . S
H180 C175 0.930 . S
O181 Cu161 1.959 . S
O181 C168 1.251 . S
H182 C165 0.930 . S
H183 C176 0.929 . S
Cu184 N185 1.999 . S
Cu184 O190 1.974 . S
Cu184 N195 1.985 . S
Cu184 O204 1.959 . S
N185 Cu184 1.999 . S
N185 C187 1.263 . S
N185 C189 1.389 . S
N186 C187 1.358 . S
N186 C188 1.400 . S
C187 N185 1.263 . S
C187 N186 1.358 . S
C187 H193 0.930 . S
C188 N186 1.400 . S
C188 C189 1.351 . S
C188 H205 0.930 . S
C189 N185 1.389 . S
C189 C188 1.351 . S
C189 H194 0.930 . S
O190 Cu184 1.974 . S
O190 C200 1.282 . S
C191 O192 1.261 . S
C191 O204 1.251 . S
O192 C191 1.261 . S
H193 C187 0.930 . S
H194 C189 0.930 . S
N195 Cu184 1.985 . S
N195 C197 1.335 . S
N195 C198 1.390 . S
N196 C197 1.345 . S
N196 C199 1.336 . S
C197 N195 1.335 . S
C197 N196 1.345 . S
C197 H202 0.930 . S
C198 N195 1.390 . S
C198 C199 1.346 . S
C198 H203 0.930 . S
C199 N196 1.336 . S
C199 C198 1.346 . S
C199 H206 0.929 . S
C200 O190 1.282 . S
C200 O201 1.216 . S
O201 C200 1.216 . S
H202 C197 0.930 . S
H203 C198 0.930 . S
O204 Cu184 1.959 . S
O204 C191 1.251 . S
H205 C188 0.930 . S
H206 C199 0.929 . S
Cu207 N208 1.999 . S
Cu207 O213 1.974 1_554 S
Cu207 N218 1.985 1_554 S
Cu207 O227 1.959 . S
N208 Cu207 1.999 . S
N208 C210 1.263 . S
N208 C212 1.389 . S
N209 C210 1.358 . S
N209 C211 1.400 . S
C210 N208 1.263 . S
C210 N209 1.358 . S
C210 H216 0.930 . S
C211 N209 1.400 . S
C211 C212 1.351 . S
C211 H228 0.930 . S
C212 N208 1.389 . S
C212 C211 1.351 . S
C212 H217 0.930 . S
O213 Cu207 1.974 1_556 S
O213 C223 1.282 . S
C214 O215 1.261 . S
C214 O227 1.251 . S
O215 C214 1.261 . S
H216 C210 0.930 . S
H217 C212 0.930 . S
N218 Cu207 1.985 1_556 S
N218 C220 1.335 . S
N218 C221 1.390 . S
N219 C220 1.345 . S
N219 C222 1.336 . S
C220 N218 1.335 . S
C220 N219 1.345 . S
C220 H225 0.930 . S
C221 N218 1.390 . S
C221 C222 1.346 . S
C221 H226 0.930 . S
C222 N219 1.336 . S
C222 C221 1.346 . S
C222 H229 0.929 . S
C223 O213 1.282 . S
C223 O224 1.216 . S
O224 C223 1.216 . S
H225 C220 0.930 . S
H226 C221 0.930 . S
O227 Cu207 1.959 . S
O227 C214 1.251 . S
H228 C211 0.930 . S
H229 C222 0.929 . S
Cu230 N231 1.999 . S
Cu230 O236 1.974 . S
Cu230 N241 1.985 . S
Cu230 O250 1.959 . S
N231 Cu230 1.999 . S
N231 C233 1.263 . S
N231 C235 1.389 . S
N232 C233 1.358 . S
N232 C234 1.400 . S
C233 N231 1.263 . S
C233 N232 1.358 . S
C233 H239 0.930 . S
C234 N232 1.400 . S
C234 C235 1.351 . S
C234 H251 0.930 . S
C235 N231 1.389 . S
C235 C234 1.351 . S
C235 H240 0.930 . S
O236 Cu230 1.974 . S
O236 C246 1.282 1_554 S
C237 O238 1.261 . S
C237 O250 1.251 . S
O238 C237 1.261 . S
H239 C233 0.930 . S
H240 C235 0.930 . S
N241 Cu230 1.985 . S
N241 C243 1.335 . S
N241 C244 1.390 1_554 S
N242 C243 1.345 1_556 S
N242 C245 1.336 . S
C243 N241 1.335 . S
C243 N242 1.345 1_554 S
C243 H248 0.930 . S
C244 N241 1.390 1_556 S
C244 C245 1.346 . S
C244 H249 0.930 . S
C245 N242 1.336 . S
C245 C244 1.346 . S
C245 H252 0.929 . S
C246 O236 1.282 1_556 S
C246 O247 1.216 . S
O247 C246 1.216 . S
H248 C243 0.930 . S
H249 C244 0.930 . S
O250 Cu230 1.959 . S
O250 C237 1.251 . S
H251 C234 0.930 . S
H252 C245 0.929 . S
Cu253 N254 1.999 . S
Cu253 O259 1.974 . S
Cu253 N264 1.985 . S
Cu253 O273 1.959 . S
N254 Cu253 1.999 . S
N254 C256 1.263 . S
N254 C258 1.389 . S
N255 C256 1.358 . S
N255 C257 1.400 . S
C256 N254 1.263 . S
C256 N255 1.358 . S
C256 H262 0.930 . S
C257 N255 1.400 . S
C257 C258 1.351 . S
C257 H274 0.930 . S
C258 N254 1.389 . S
C258 C257 1.351 . S
C258 H263 0.930 . S
O259 Cu253 1.974 . S
O259 C269 1.282 1_554 S
C260 O261 1.261 . S
C260 O273 1.251 . S
O261 C260 1.261 . S
H262 C256 0.930 . S
H263 C258 0.930 . S
N264 Cu253 1.985 . S
N264 C266 1.335 . S
N264 C267 1.390 1_554 S
N265 C266 1.345 1_556 S
N265 C268 1.336 . S
C266 N264 1.335 . S
C266 N265 1.345 1_554 S
C266 H271 0.930 . S
C267 N264 1.390 1_556 S
C267 C268 1.346 . S
C267 H272 0.930 . S
C268 N265 1.336 . S
C268 C267 1.346 . S
C268 H275 0.929 . S
C269 O259 1.282 1_556 S
C269 O270 1.216 . S
O270 C269 1.216 . S
H271 C266 0.930 . S
H272 C267 0.930 . S
O273 Cu253 1.959 . S
O273 C260 1.251 . S
H274 C257 0.930 . S
H275 C268 0.929 . S
Cu276 N277 1.999 . S
Cu276 O282 1.974 . S
Cu276 N287 1.985 . S
Cu276 O296 1.959 . S
N277 Cu276 1.999 . S
N277 C279 1.263 . S
N277 C281 1.389 1_556 S
N278 C279 1.358 1_554 S
N278 C280 1.400 . S
C279 N277 1.263 . S
C279 N278 1.358 1_556 S
C279 H285 0.930 . S
C280 N278 1.400 . S
C280 C281 1.351 . S
C280 H297 0.930 . S
C281 N277 1.389 1_554 S
C281 C280 1.351 . S
C281 H286 0.930 . S
O282 Cu276 1.974 . S
O282 C292 1.282 . S
C283 O284 1.261 . S
C283 O296 1.251 . S
O284 C283 1.261 . S
H285 C279 0.930 . S
H286 C281 0.930 . S
N287 Cu276 1.985 . S
N287 C289 1.335 . S
N287 C290 1.390 . S
N288 C289 1.345 . S
N288 C291 1.336 . S
C289 N287 1.335 . S
C289 N288 1.345 . S
C289 H294 0.930 . S
C290 N287 1.390 . S
C290 C291 1.346 . S
C290 H295 0.930 . S
C291 N288 1.336 . S
C291 C290 1.346 . S
C291 H298 0.929 . S
C292 O282 1.282 . S
C292 O293 1.216 . S
O293 C292 1.216 . S
H294 C289 0.930 . S
H295 C290 0.930 . S
O296 Cu276 1.959 . S
O296 C283 1.251 . S
H297 C280 0.930 . S
H298 C291 0.929 . S
Cu299 N300 1.999 . S
Cu299 O305 1.974 1_556 S
Cu299 N310 1.985 1_556 S
Cu299 O319 1.959 . S
N300 Cu299 1.999 . S
N300 C302 1.263 . S
N300 C304 1.389 . S
N301 C302 1.358 . S
N301 C303 1.400 . S
C302 N300 1.263 . S
C302 N301 1.358 . S
C302 H308 0.930 . S
C303 N301 1.400 . S
C303 C304 1.351 . S
C303 H320 0.930 . S
C304 N300 1.389 . S
C304 C303 1.351 . S
C304 H309 0.930 . S
O305 Cu299 1.974 1_554 S
O305 C315 1.282 . S
C306 O307 1.261 . S
C306 O319 1.251 . S
O307 C306 1.261 . S
H308 C302 0.930 . S
H309 C304 0.930 . S
N310 Cu299 1.985 1_554 S
N310 C312 1.335 . S
N310 C313 1.390 . S
N311 C312 1.345 . S
N311 C314 1.336 . S
C312 N310 1.335 . S
C312 N311 1.345 . S
C312 H317 0.930 . S
C313 N310 1.390 . S
C313 C314 1.346 . S
C313 H318 0.930 . S
C314 N311 1.336 . S
C314 C313 1.346 . S
C314 H321 0.929 . S
C315 O305 1.282 . S
C315 O316 1.216 . S
O316 C315 1.216 . S
H317 C312 0.930 . S
H318 C313 0.930 . S
O319 Cu299 1.959 . S
O319 C306 1.251 . S
H320 C303 0.930 . S
H321 C314 0.929 . S
Cu322 N323 1.999 . S
Cu322 O328 1.974 . S
Cu322 N333 1.985 . S
Cu322 O342 1.959 . S
N323 Cu322 1.999 . S
N323 C325 1.263 . S
N323 C327 1.389 . S
N324 C325 1.358 . S
N324 C326 1.400 . S
C325 N323 1.263 . S
C325 N324 1.358 . S
C325 H331 0.930 . S
C326 N324 1.400 . S
C326 C327 1.351 . S
C326 H343 0.930 . S
C327 N323 1.389 . S
C327 C326 1.351 . S
C327 H332 0.930 . S
O328 Cu322 1.974 . S
O328 C338 1.282 . S
C329 O330 1.261 . S
C329 O342 1.251 . S
O330 C329 1.261 . S
H331 C325 0.930 . S
H332 C327 0.930 . S
N333 Cu322 1.985 . S
N333 C335 1.335 . S
N333 C336 1.390 . S
N334 C335 1.345 . S
N334 C337 1.336 1_556 S
C335 N333 1.335 . S
C335 N334 1.345 . S
C335 H340 0.930 . S
C336 N333 1.390 . S
C336 C337 1.346 1_556 S
C336 H341 0.930 1_556 S
C337 N334 1.336 1_554 S
C337 C336 1.346 1_554 S
C337 H344 0.929 . S
C338 O328 1.282 . S
C338 O339 1.216 . S
O339 C338 1.216 . S
H340 C335 0.930 . S
H341 C336 0.930 1_554 S
O342 Cu322 1.959 . S
O342 C329 1.251 . S
H343 C326 0.930 . S
H344 C337 0.929 . S
Cu345 N346 1.999 . S
Cu345 O351 1.974 . S
Cu345 N356 1.985 . S
Cu345 O365 1.959 . S
N346 Cu345 1.999 . S
N346 C348 1.263 . S
N346 C350 1.389 . S
N347 C348 1.358 . S
N347 C349 1.400 . S
C348 N346 1.263 . S
C348 N347 1.358 . S
C348 H354 0.930 . S
C349 N347 1.400 . S
C349 C350 1.351 . S
C349 H366 0.930 . S
C350 N346 1.389 . S
C350 C349 1.351 . S
C350 H355 0.930 . S
O351 Cu345 1.974 . S
O351 C361 1.282 . S
C352 O353 1.261 . S
C352 O365 1.251 . S
O353 C352 1.261 . S
H354 C348 0.930 . S
H355 C350 0.930 . S
N356 Cu345 1.985 . S
N356 C358 1.335 . S
N356 C359 1.390 . S
N357 C358 1.345 . S
N357 C360 1.336 . S
C358 N356 1.335 . S
C358 N357 1.345 . S
C358 H363 0.930 . S
C359 N356 1.390 . S
C359 C360 1.346 . S
C359 H364 0.930 . S
C360 N357 1.336 . S
C360 C359 1.346 . S
C360 H367 0.929 . S
C361 O351 1.282 . S
C361 O362 1.216 . S
O362 C361 1.216 . S
H363 C358 0.930 . S
H364 C359 0.930 . S
O365 Cu345 1.959 . S
O365 C352 1.251 . S
H366 C349 0.930 . S
H367 C360 0.929 . S
Cu368 N369 1.999 . S
Cu368 O374 1.974 . S
Cu368 N379 1.985 . S
Cu368 O388 1.959 . S
N369 Cu368 1.999 . S
N369 C371 1.263 . S
N369 C373 1.389 . S
N370 C371 1.358 . S
N370 C372 1.400 . S
C371 N369 1.263 . S
C371 N370 1.358 . S
C371 H377 0.930 . S
C372 N370 1.400 . S
C372 C373 1.351 . S
C372 H389 0.930 . S
C373 N369 1.389 . S
C373 C372 1.351 . S
C373 H378 0.930 . S
O374 Cu368 1.974 . S
O374 C384 1.282 . S
C375 O376 1.261 . S
C375 O388 1.251 . S
O376 C375 1.261 . S
H377 C371 0.930 . S
H378 C373 0.930 . S
N379 Cu368 1.985 . S
N379 C381 1.335 . S
N379 C382 1.390 . S
N380 C381 1.345 1_455 S
N380 C383 1.336 1_455 S
C381 N379 1.335 . S
C381 N380 1.345 1_655 S
C381 H386 0.930 1_655 S
C382 N379 1.390 . S
C382 C383 1.346 . S
C382 H387 0.930 . S
C383 N380 1.336 1_655 S
C383 C382 1.346 . S
C383 H390 0.929 . S
C384 O374 1.282 . S
C384 O385 1.216 . S
O385 C384 1.216 . S
H386 C381 0.930 1_455 S
H387 C382 0.930 . S
O388 Cu368 1.959 . S
O388 C375 1.251 . S
H389 C372 0.930 . S
H390 C383 0.929 . S
Cu391 N392 1.999 . S
Cu391 O397 1.974 . S
Cu391 N402 1.985 . S
Cu391 O411 1.959 . S
N392 Cu391 1.999 . S
N392 C394 1.263 . S
N392 C396 1.389 . S
N393 C394 1.358 . S
N393 C395 1.400 . S
C394 N392 1.263 . S
C394 N393 1.358 . S
C394 H400 0.930 . S
C395 N393 1.400 . S
C395 C396 1.351 . S
C395 H412 0.930 . S
C396 N392 1.389 . S
C396 C395 1.351 . S
C396 H401 0.930 . S
O397 Cu391 1.974 . S
O397 C407 1.282 . S
C398 O399 1.261 . S
C398 O411 1.251 . S
O399 C398 1.261 . S
H400 C394 0.930 . S
H401 C396 0.930 . S
N402 Cu391 1.985 . S
N402 C404 1.335 . S
N402 C405 1.390 . S
N403 C404 1.345 . S
N403 C406 1.336 . S
C404 N402 1.335 . S
C404 N403 1.345 . S
C404 H409 0.930 . S
C405 N402 1.390 . S
C405 C406 1.346 . S
C405 H410 0.930 . S
C406 N403 1.336 . S
C406 C405 1.346 . S
C406 H413 0.929 . S
C407 O397 1.282 . S
C407 O408 1.216 . S
O408 C407 1.216 . S
H409 C404 0.930 . S
H410 C405 0.930 . S
O411 Cu391 1.959 . S
O411 C398 1.251 . S
H412 C395 0.930 . S
H413 C406 0.929 . S
C414 C415 1.369 . S
C414 C416 1.419 . S
C414 H418 0.930 . S
C415 C414 1.369 . S
C415 C424 1.429 . S
C416 C414 1.419 . S
C416 C417 1.363 1_556 S
C416 H419 0.929 . S
C417 C416 1.363 1_554 S
C417 C423 1.429 . S
H418 C414 0.930 . S
H419 C416 0.929 . S
S420 N421 1.613 1_655 S
S420 N422 1.610 1_556 S
N421 S420 1.613 1_455 S
N421 C424 1.350 . S
N422 S420 1.610 1_554 S
N422 C423 1.353 1_655 S
C423 C417 1.429 . S
C423 N422 1.353 1_455 S
C423 C424 1.432 1_554 S
C424 C415 1.429 . S
C424 N421 1.350 . S
C424 C423 1.432 1_556 S
C425 C426 1.369 . S
C425 C427 1.419 . S
C425 H429 0.930 . S
C426 C425 1.369 . S
C426 C435 1.429 . S
C427 C425 1.419 . S
C427 C428 1.363 . S
C427 H430 0.929 . S
C428 C427 1.363 . S
C428 C434 1.428 . S
H429 C425 0.930 . S
H430 C427 0.929 . S
S431 N432 1.613 . S
S431 N433 1.610 . S
N432 S431 1.613 . S
N432 C435 1.350 . S
N433 S431 1.610 . S
N433 C434 1.351 . S
C434 C428 1.428 . S
C434 N433 1.351 . S
C434 C435 1.434 . S
C435 C426 1.429 . S
C435 N432 1.350 . S
C435 C434 1.434 . S
C436 C437 1.369 . S
C436 C438 1.419 . S
C436 H440 0.930 . S
C437 C436 1.369 . S
C437 C446 1.429 . S
C438 C436 1.419 . S
C438 C439 1.363 1_554 S
C438 H441 0.929 . S
C439 C438 1.363 1_556 S
C439 C445 1.428 . S
H440 C436 0.930 . S
H441 C438 0.929 . S
S442 N443 1.613 1_556 S
S442 N444 1.610 . S
N443 S442 1.613 1_554 S
N443 C446 1.350 . S
N444 S442 1.610 . S
N444 C445 1.351 . S
C445 C439 1.428 . S
C445 N444 1.351 . S
C445 C446 1.434 1_556 S
C446 C437 1.429 . S
C446 N443 1.350 . S
C446 C445 1.434 1_554 S
C447 C448 1.369 . S
C447 C449 1.419 . S
C447 H451 0.930 . S
C448 C447 1.369 . S
C448 C457 1.429 . S
C449 C447 1.419 . S
C449 C450 1.363 . S
C449 H452 0.929 . S
C450 C449 1.363 . S
C450 C456 1.428 . S
H451 C447 0.930 . S
H452 C449 0.929 . S
S453 N454 1.613 . S
S453 N455 1.610 . S
N454 S453 1.613 . S
N454 C457 1.350 . S
N455 S453 1.610 . S
N455 C456 1.351 . S
C456 C450 1.428 . S
C456 N455 1.351 . S
C456 C457 1.434 . S
C457 C448 1.429 . S
C457 N454 1.350 . S
C457 C456 1.434 . S
C458 C459 1.369 . S
C458 C460 1.419 . S
C458 H462 0.930 . S
C459 C458 1.369 . S
C459 C468 1.429 . S
C460 C458 1.419 . S
C460 C461 1.363 . S
C460 H463 0.929 . S
C461 C460 1.363 . S
C461 C467 1.428 . S
H462 C458 0.930 . S
H463 C460 0.929 . S
S464 N465 1.613 . S
S464 N466 1.610 . S
N465 S464 1.613 . S
N465 C468 1.350 . S
N466 S464 1.610 . S
N466 C467 1.351 . S
C467 C461 1.428 . S
C467 N466 1.351 . S
C467 C468 1.434 . S
C468 C459 1.429 . S
C468 N465 1.350 . S
C468 C467 1.434 . S
C469 C470 1.369 . S
C469 C471 1.419 . S
C469 H473 0.930 . S
C470 C469 1.369 . S
C470 C479 1.429 . S
C471 C469 1.419 . S
C471 C472 1.363 . S
C471 H474 0.929 . S
C472 C471 1.363 . S
C472 C478 1.428 . S
H473 C469 0.930 . S
H474 C471 0.929 . S
S475 N476 1.613 . S
S475 N477 1.610 . S
N476 S475 1.613 . S
N476 C479 1.350 . S
N477 S475 1.610 . S
N477 C478 1.351 . S
C478 C472 1.428 . S
C478 N477 1.351 . S
C478 C479 1.434 . S
C479 C470 1.429 . S
C479 N476 1.350 . S
C479 C478 1.434 . S
C480 C481 1.369 . S
C480 C482 1.419 . S
C480 H484 0.930 . S
C481 C480 1.369 . S
C481 C490 1.429 . S
C482 C480 1.419 . S
C482 C483 1.363 . S
C482 H485 0.929 . S
C483 C482 1.363 . S
C483 C489 1.428 . S
H484 C480 0.930 . S
H485 C482 0.929 . S
S486 N487 1.613 . S
S486 N488 1.610 . S
N487 S486 1.613 . S
N487 C490 1.350 . S
N488 S486 1.610 . S
N488 C489 1.351 . S
C489 C483 1.428 . S
C489 N488 1.351 . S
C489 C490 1.434 . S
C490 C481 1.429 . S
C490 N487 1.350 . S
C490 C489 1.434 . S
C491 C492 1.369 . S
C491 C493 1.419 . S
C491 H495 0.930 . S
C492 C491 1.369 . S
C492 C501 1.429 . S
C493 C491 1.419 . S
C493 C494 1.363 . S
C493 H496 0.929 . S
C494 C493 1.363 . S
C494 C500 1.428 . S
H495 C491 0.930 . S
H496 C493 0.929 . S
S497 N498 1.613 . S
S497 N499 1.610 . S
N498 S497 1.613 . S
N498 C501 1.350 . S
N499 S497 1.610 . S
N499 C500 1.351 . S
C500 C494 1.428 . S
C500 N499 1.351 . S
C500 C501 1.434 . S
C501 C492 1.429 . S
C501 N498 1.350 . S
C501 C500 1.434 . S
C502 C503 1.369 . S
C502 C504 1.419 . S
C502 H506 0.930 . S
C503 C502 1.369 . S
C503 C512 1.429 . S
C504 C502 1.419 . S
C504 C505 1.363 . S
C504 H507 0.929 . S
C505 C504 1.363 . S
C505 C511 1.428 . S
H506 C502 0.930 . S
H507 C504 0.929 . S
S508 N509 1.613 . S
S508 N510 1.610 . S
N509 S508 1.613 . S
N509 C512 1.350 . S
N510 S508 1.610 . S
N510 C511 1.351 . S
C511 C505 1.428 . S
C511 N510 1.351 . S
C511 C512 1.434 . S
C512 C503 1.429 . S
C512 N509 1.350 . S
C512 C511 1.434 . S
C513 C514 1.369 . S
C513 C515 1.419 . S
C513 H517 0.930 . S
C514 C513 1.369 . S
C514 C523 1.429 . S
C515 C513 1.419 . S
C515 C516 1.363 . S
C515 H518 0.929 . S
C516 C515 1.363 . S
C516 C522 1.428 . S
H517 C513 0.930 . S
H518 C515 0.929 . S
S519 N520 1.613 . S
S519 N521 1.610 . S
N520 S519 1.613 . S
N520 C523 1.350 . S
N521 S519 1.610 . S
N521 C522 1.351 . S
C522 C516 1.428 . S
C522 N521 1.351 . S
C522 C523 1.434 . S
C523 C514 1.429 . S
C523 N520 1.350 . S
C523 C522 1.434 . S
C524 C525 1.369 . S
C524 C526 1.419 . S
C524 H528 0.930 . S
C525 C524 1.369 . S
C525 C534 1.429 . S
C526 C524 1.419 . S
C526 C527 1.363 . S
C526 H529 0.929 . S
C527 C526 1.363 . S
C527 C533 1.428 . S
H528 C524 0.930 . S
H529 C526 0.929 . S
S530 N531 1.613 . S
S530 N532 1.610 . S
N531 S530 1.613 . S
N531 C534 1.350 . S
N532 S530 1.610 . S
N532 C533 1.351 . S
C533 C527 1.428 . S
C533 N532 1.351 . S
C533 C534 1.434 . S
C534 C525 1.429 . S
C534 N531 1.350 . S
C534 C533 1.434 . S
C535 C536 1.369 . S
C535 C537 1.419 . S
C535 H539 0.930 . S
C536 C535 1.369 . S
C536 C545 1.429 . S
C537 C535 1.419 . S
C537 C538 1.363 . S
C537 H540 0.929 . S
C538 C537 1.363 . S
C538 C544 1.428 . S
H539 C535 0.930 . S
H540 C537 0.929 . S
S541 N542 1.613 . S
S541 N543 1.610 . S
N542 S541 1.613 . S
N542 C545 1.350 . S
N543 S541 1.610 . S
N543 C544 1.351 . S
C544 C538 1.428 . S
C544 N543 1.351 . S
C544 C545 1.434 . S
C545 C536 1.429 . S
C545 N542 1.350 . S
C545 C544 1.434 . S
C546 C547 1.369 . S
C546 C548 1.419 . S
C546 H550 0.930 . S
C547 C546 1.369 . S
C547 C556 1.429 . S
C548 C546 1.419 . S
C548 C549 1.363 . S
C548 H551 0.929 . S
C549 C548 1.363 . S
C549 C555 1.428 . S
H550 C546 0.930 . S
H551 C548 0.929 . S
S552 N553 1.613 . S
S552 N554 1.610 . S
N553 S552 1.613 . S
N553 C556 1.350 . S
N554 S552 1.610 . S
N554 C555 1.351 . S
C555 C549 1.428 . S
C555 N554 1.351 . S
C555 C556 1.434 . S
C556 C547 1.429 . S
C556 N553 1.350 . S
C556 C555 1.434 . S
C557 C558 1.369 . S
C557 C559 1.419 . S
C557 H561 0.930 . S
C558 C557 1.369 . S
C558 C567 1.429 . S
C559 C557 1.419 . S
C559 C560 1.363 . S
C559 H562 0.929 . S
C560 C559 1.363 . S
C560 C566 1.428 . S
H561 C557 0.930 . S
H562 C559 0.929 . S
S563 N564 1.613 . S
S563 N565 1.610 . S
N564 S563 1.613 . S
N564 C567 1.350 . S
N565 S563 1.610 . S
N565 C566 1.351 . S
C566 C560 1.428 . S
C566 N565 1.351 . S
C566 C567 1.434 . S
C567 C558 1.429 . S
C567 N564 1.350 . S
C567 C566 1.434 . S
C568 C569 1.369 . S
C568 C570 1.419 . S
C568 H572 0.930 . S
C569 C568 1.369 . S
C569 C578 1.429 . S
C570 C568 1.419 . S
C570 C571 1.363 . S
C570 H573 0.929 . S
C571 C570 1.363 . S
C571 C577 1.428 . S
H572 C568 0.930 . S
H573 C570 0.929 . S
S574 N575 1.613 . S
S574 N576 1.610 . S
N575 S574 1.613 . S
N575 C578 1.350 . S
N576 S574 1.610 . S
N576 C577 1.351 . S
C577 C571 1.428 . S
C577 N576 1.351 . S
C577 C578 1.434 . S
C578 C569 1.429 . S
C578 N575 1.350 . S
C578 C577 1.434 . S
C579 C580 1.369 . S
C579 C581 1.419 1_554 S
C579 H583 0.930 . S
C580 C579 1.369 . S
C580 C589 1.429 . S
C581 C579 1.419 1_556 S
C581 C582 1.363 . S
C581 H584 0.929 . S
C582 C581 1.363 . S
C582 C588 1.428 1_556 S
H583 C579 0.930 . S
H584 C581 0.929 . S
S585 N586 1.613 . S
S585 N587 1.610 . S
N586 S585 1.613 . S
N586 C589 1.350 . S
N587 S585 1.610 . S
N587 C588 1.351 . S
C588 C582 1.428 1_554 S
C588 N587 1.351 . S
C588 C589 1.434 . S
C589 C580 1.429 . S
C589 N586 1.350 . S
C589 C588 1.434 . S
C590 C591 1.369 . S
C590 C592 1.419 . S
C590 H594 0.930 . S
C591 C590 1.369 . S
C591 C600 1.429 . S
C592 C590 1.419 . S
C592 C593 1.363 . S
C592 H595 0.930 . S
C593 C592 1.363 . S
C593 C599 1.428 . S
H594 C590 0.930 . S
H595 C592 0.930 . S
S596 N597 1.613 . S
S596 N598 1.610 . S
N597 S596 1.613 . S
N597 C600 1.350 . S
N598 S596 1.610 . S
N598 C599 1.351 . S
C599 C593 1.428 . S
C599 N598 1.351 . S
C599 C600 1.434 . S
C600 C591 1.429 . S
C600 N597 1.350 . S
C600 C599 1.434 . S
C601 C602 1.369 . S
C601 C603 1.419 . S
C601 H605 0.930 . S
C602 C601 1.369 . S
C602 C611 1.429 . S
C603 C601 1.419 . S
C603 C604 1.363 . S
C603 H606 0.929 . S
C604 C603 1.363 . S
C604 C610 1.428 . S
H605 C601 0.930 . S
H606 C603 0.929 . S
S607 N608 1.613 . S
S607 N609 1.610 . S
N608 S607 1.613 . S
N608 C611 1.350 . S
N609 S607 1.610 . S
N609 C610 1.351 . S
C610 C604 1.428 . S
C610 N609 1.351 . S
C610 C611 1.434 . S
C611 C602 1.429 . S
C611 N608 1.350 . S
C611 C610 1.434 . S
C612 C613 1.369 . S
C612 C614 1.419 . S
C612 H616 0.930 . S
C613 C612 1.369 . S
C613 C622 1.429 . S
C614 C612 1.419 . S
C614 C615 1.363 . S
C614 H617 0.929 . S
C615 C614 1.363 . S
C615 C621 1.428 . S
H616 C612 0.930 . S
H617 C614 0.929 . S
S618 N619 1.613 . S
S618 N620 1.610 . S
N619 S618 1.613 . S
N619 C622 1.350 . S
N620 S618 1.610 . S
N620 C621 1.351 . S
C621 C615 1.428 . S
C621 N620 1.351 . S
C621 C622 1.434 . S
C622 C613 1.429 . S
C622 N619 1.350 . S
C622 C621 1.434 . S
C623 C624 1.369 . S
C623 C625 1.419 . S
C623 H627 0.930 . S
C624 C623 1.369 . S
C624 C633 1.429 . S
C625 C623 1.419 . S
C625 C626 1.363 . S
C625 H628 0.929 . S
C626 C625 1.363 . S
C626 C632 1.428 . S
H627 C623 0.930 . S
H628 C625 0.929 . S
S629 N630 1.613 . S
S629 N631 1.610 . S
N630 S629 1.613 . S
N630 C633 1.350 . S
N631 S629 1.610 . S
N631 C632 1.351 . S
C632 C626 1.428 . S
C632 N631 1.351 . S
C632 C633 1.434 . S
C633 C624 1.429 . S
C633 N630 1.350 . S
C633 C632 1.434 . S
C634 C635 1.369 1_545 S
C634 C636 1.419 . S
C634 H638 0.930 . S
C635 C634 1.369 1_565 S
C635 C644 1.429 . S
C636 C634 1.419 . S
C636 C637 1.363 . S
C636 H639 0.929 . S
C637 C636 1.363 . S
C637 C643 1.428 1_545 S
H638 C634 0.930 . S
H639 C636 0.929 . S
S640 N641 1.613 . S
S640 N642 1.610 . S
N641 S640 1.613 . S
N641 C644 1.350 . S
N642 S640 1.610 . S
N642 C643 1.351 . S
C643 C637 1.428 1_565 S
C643 N642 1.351 . S
C643 C644 1.434 . S
C644 C635 1.429 . S
C644 N641 1.350 . S
C644 C643 1.434 . S
C645 C646 1.369 . S
C645 C647 1.419 . S
C645 H649 0.930 . S
C646 C645 1.369 . S
C646 C655 1.429 . S
C647 C645 1.419 . S
C647 C648 1.363 . S
C647 H650 0.929 . S
C648 C647 1.363 . S
C648 C654 1.428 . S
H649 C645 0.930 . S
H650 C647 0.929 . S
S651 N652 1.613 . S
S651 N653 1.610 . S
N652 S651 1.613 . S
N652 C655 1.350 . S
N653 S651 1.610 . S
N653 C654 1.351 . S
C654 C648 1.428 . S
C654 N653 1.351 . S
C654 C655 1.434 . S
C655 C646 1.429 . S
C655 N652 1.350 . S
C655 C654 1.434 . S
C656 C657 1.369 1_654 S
C656 C658 1.419 . S
C656 H660 0.930 . S
C657 C656 1.369 1_456 S
C657 C666 1.429 . S
C658 C656 1.419 . S
C658 C659 1.363 1_655 S
C658 H661 0.929 . S
C659 C658 1.363 1_455 S
C659 C665 1.428 1_554 S
H660 C656 0.930 . S
H661 C658 0.929 . S
S662 N663 1.613 . S
S662 N664 1.610 . S
N663 S662 1.613 . S
N663 C666 1.350 . S
N664 S662 1.610 . S
N664 C665 1.351 . S
C665 C659 1.428 1_556 S
C665 N664 1.351 . S
C665 C666 1.434 . S
C666 C657 1.429 . S
C666 N663 1.350 . S
C666 C665 1.434 . S
C667 C668 1.369 1_554 S
C667 C669 1.419 . S
C667 H671 0.930 . S
C668 C667 1.369 1_556 S
C668 C677 1.429 . S
C669 C667 1.419 . S
C669 C670 1.363 . S
C669 H672 0.929 . S
C670 C669 1.363 . S
C670 C676 1.428 . S
H671 C667 0.930 . S
H672 C669 0.929 . S
S673 N674 1.613 . S
S673 N675 1.610 1_556 S
N674 S673 1.613 . S
N674 C677 1.350 . S
N675 S673 1.610 1_554 S
N675 C676 1.351 . S
C676 C670 1.428 . S
C676 N675 1.351 . S
C676 C677 1.434 1_554 S
C677 C668 1.429 . S
C677 N674 1.350 . S
C677 C676 1.434 1_556 S
C678 C679 1.369 . S
C678 C680 1.419 . S
C678 H682 0.930 . S
C679 C678 1.369 . S
C679 C688 1.429 1_655 S
C680 C678 1.419 . S
C680 C681 1.363 1_655 S
C680 H683 0.929 . S
C681 C680 1.363 1_455 S
C681 C687 1.428 . S
H682 C678 0.930 . S
H683 C680 0.929 . S
S684 N685 1.613 . S
S684 N686 1.610 . S
N685 S684 1.613 . S
N685 C688 1.350 . S
N686 S684 1.610 . S
N686 C687 1.351 . S
C687 C681 1.428 . S
C687 N686 1.351 . S
C687 C688 1.434 . S
C688 C679 1.429 1_455 S
C688 N685 1.350 . S
C688 C687 1.434 . S
C689 C690 1.369 . S
C689 C691 1.419 . S
C689 H693 0.930 . S
C690 C689 1.369 . S
C690 C699 1.429 . S
C691 C689 1.419 . S
C691 C692 1.363 . S
C691 H694 0.929 . S
C692 C691 1.363 . S
C692 C698 1.428 . S
H693 C689 0.930 . S
H694 C691 0.929 . S
S695 N696 1.613 . S
S695 N697 1.610 . S
N696 S695 1.613 . S
N696 C699 1.350 . S
N697 S695 1.610 . S
N697 C698 1.351 . S
C698 C692 1.428 . S
C698 N697 1.351 . S
C698 C699 1.434 . S
C699 C690 1.429 . S
C699 N696 1.350 . S
C699 C698 1.434 . S
C700 C701 1.369 . S
C700 C702 1.419 . S
C700 H704 0.930 . S
C701 C700 1.369 . S
C701 C710 1.429 . S
C702 C700 1.419 . S
C702 C703 1.363 . S
C702 H705 0.929 . S
C703 C702 1.363 . S
C703 C709 1.428 . S
H704 C700 0.930 . S
H705 C702 0.929 . S
S706 N707 1.613 . S
S706 N708 1.610 . S
N707 S706 1.613 . S
N707 C710 1.350 . S
N708 S706 1.610 . S
N708 C709 1.351 . S
C709 C703 1.428 . S
C709 N708 1.351 . S
C709 C710 1.434 . S
C710 C701 1.429 . S
C710 N707 1.350 . S
C710 C709 1.434 . S
C711 C712 1.369 1_545 S
C711 C713 1.419 . S
C711 H715 0.930 . S
C712 C711 1.369 1_565 S
C712 C721 1.429 . S
C713 C711 1.419 . S
C713 C714 1.363 . S
C713 H716 0.929 . S
C714 C713 1.363 . S
C714 C720 1.428 1_545 S
H715 C711 0.930 . S
H716 C713 0.929 . S
S717 N718 1.613 . S
S717 N719 1.610 . S
N718 S717 1.613 . S
N718 C721 1.350 . S
N719 S717 1.610 . S
N719 C720 1.351 . S
C720 C714 1.428 1_565 S
C720 N719 1.351 . S
C720 C721 1.434 . S
C721 C712 1.429 . S
C721 N718 1.350 . S
C721 C720 1.434 . S
C722 C723 1.369 . S
C722 C724 1.419 . S
C722 H726 0.930 1_556 S
C723 C722 1.369 . S
C723 C732 1.429 . S
C724 C722 1.419 . S
C724 C725 1.363 . S
C724 H727 0.929 1_556 S
C725 C724 1.363 . S
C725 C731 1.428 . S
H726 C722 0.930 1_554 S
H727 C724 0.929 1_554 S
S728 N729 1.613 . S
S728 N730 1.610 . S
N729 S728 1.613 . S
N729 C732 1.350 . S
N730 S728 1.610 . S
N730 C731 1.351 . S
C731 C725 1.428 . S
C731 N730 1.351 . S
C731 C732 1.434 . S
C732 C723 1.429 . S
C732 N729 1.350 . S
C732 C731 1.434 . S
C733 C734 1.369 . S
C733 C735 1.419 . S
C733 H737 0.930 . S
C734 C733 1.369 . S
C734 C743 1.429 . S
C735 C733 1.419 . S
C735 C736 1.363 . S
C735 H738 0.929 . S
C736 C735 1.363 . S
C736 C742 1.428 . S
H737 C733 0.930 . S
H738 C735 0.929 . S
S739 N740 1.613 . S
S739 N741 1.610 . S
N740 S739 1.613 . S
N740 C743 1.350 . S
N741 S739 1.610 . S
N741 C742 1.351 . S
C742 C736 1.428 . S
C742 N741 1.351 . S
C742 C743 1.434 . S
C743 C734 1.429 . S
C743 N740 1.350 . S
C743 C742 1.434 . S
C744 C745 1.369 . S
C744 C746 1.419 . S
C744 H748 0.930 . S
C745 C744 1.369 . S
C745 C754 1.429 . S
C746 C744 1.419 . S
C746 C747 1.363 . S
C746 H749 0.929 . S
C747 C746 1.363 . S
C747 C753 1.428 . S
H748 C744 0.930 . S
H749 C746 0.929 . S
S750 N751 1.613 . S
S750 N752 1.610 . S
N751 S750 1.613 . S
N751 C754 1.350 . S
N752 S750 1.610 . S
N752 C753 1.351 . S
C753 C747 1.428 . S
C753 N752 1.351 . S
C753 C754 1.434 . S
C754 C745 1.429 . S
C754 N751 1.350 . S
C754 C753 1.434 . S
C755 C756 1.369 . S
C755 C757 1.419 . S
C755 H759 0.930 . S
C756 C755 1.369 . S
C756 C765 1.429 . S
C757 C755 1.419 . S
C757 C758 1.363 . S
C757 H760 0.929 . S
C758 C757 1.363 . S
C758 C764 1.428 . S
H759 C755 0.930 . S
H760 C757 0.929 . S
S761 N762 1.613 . S
S761 N763 1.610 . S
N762 S761 1.613 . S
N762 C765 1.350 . S
N763 S761 1.610 . S
N763 C764 1.351 . S
C764 C758 1.428 . S
C764 N763 1.351 . S
C764 C765 1.434 . S
C765 C756 1.429 . S
C765 N762 1.350 . S
C765 C764 1.434 . S
C766 C767 1.369 . S
C766 C768 1.419 . S
C766 H770 0.930 . S
C767 C766 1.369 . S
C767 C776 1.429 . S
C768 C766 1.419 . S
C768 C769 1.363 . S
C768 H771 0.929 . S
C769 C768 1.363 . S
C769 C775 1.428 . S
H770 C766 0.930 . S
H771 C768 0.929 . S
S772 N773 1.613 . S
S772 N774 1.610 . S
N773 S772 1.613 . S
N773 C776 1.350 . S
N774 S772 1.610 . S
N774 C775 1.351 . S
C775 C769 1.428 . S
C775 N774 1.351 . S
C775 C776 1.434 . S
C776 C767 1.429 . S
C776 N773 1.350 . S
C776 C775 1.434 . S
C777 C778 1.369 . S
C777 C779 1.419 . S
C777 H781 0.930 . S
C778 C777 1.369 . S
C778 C787 1.429 . S
C779 C777 1.419 . S
C779 C780 1.363 . S
C779 H782 0.929 . S
C780 C779 1.363 . S
C780 C786 1.428 . S
H781 C777 0.930 . S
H782 C779 0.929 . S
S783 N784 1.613 . S
S783 N785 1.610 . S
N784 S783 1.613 . S
N784 C787 1.350 . S
N785 S783 1.610 . S
N785 C786 1.351 . S
C786 C780 1.428 . S
C786 N785 1.351 . S
C786 C787 1.434 . S
C787 C778 1.429 . S
C787 N784 1.350 . S
C787 C786 1.434 . S
C788 C789 1.369 . S
C788 C790 1.419 . S
C788 H792 0.930 . S
C789 C788 1.369 . S
C789 C798 1.429 . S
C790 C788 1.419 . S
C790 C791 1.363 . S
C790 H793 0.929 . S
C791 C790 1.363 . S
C791 C797 1.428 . S
H792 C788 0.930 . S
H793 C790 0.929 . S
S794 N795 1.613 . S
S794 N796 1.610 . S
N795 S794 1.613 . S
N795 C798 1.350 1_556 S
N796 S794 1.610 . S
N796 C797 1.351 1_556 S
C797 C791 1.428 . S
C797 N796 1.351 1_554 S
C797 C798 1.434 . S
C798 C789 1.429 . S
C798 N795 1.350 1_554 S
C798 C797 1.434 . S
C799 C800 1.369 . S
C799 C801 1.419 . S
C799 H803 0.930 . S
C800 C799 1.369 . S
C800 C809 1.429 . S
C801 C799 1.419 . S
C801 C802 1.363 . S
C801 H804 0.929 . S
C802 C801 1.363 . S
C802 C808 1.428 . S
H803 C799 0.930 . S
H804 C801 0.929 . S
S805 N806 1.613 . S
S805 N807 1.610 . S
N806 S805 1.613 . S
N806 C809 1.350 . S
N807 S805 1.610 . S
N807 C808 1.351 . S
C808 C802 1.428 . S
C808 N807 1.351 . S
C808 C809 1.434 . S
C809 C800 1.429 . S
C809 N806 1.350 . S
C809 C808 1.434 . S
C415 C85 1.566 . S
C417 C16 1.576 . S
C426 N94 1.578 . S
C428 N25 1.587 . S
C437 N48 1.545 . S
C439 N117 1.557 . S
C448 C62 1.695 . S
C450 C131 1.691 . S
C459 N2 1.668 . S
C461 N71 1.647 . S
C470 C108 1.704 . S
C472 C39 1.711 . S
C481 N209 1.782 . S
C483 C154 1.850 . S
C492 C177 1.821 . S
C494 N232 1.762 . S
C503 C200 1.747 . S
C505 N255 1.694 . S
C514 C269 1.555 . S
C516 N186 1.505 . S
C525 C223 1.538 . S
C527 N140 1.490 . S
C536 C246 1.637 . S
C538 N163 1.560 . S
C547 C292 1.610 . S
C549 C361 1.610 . S
C558 N301 1.625 . S
C560 N370 1.633 . S
C569 N324 1.592 . S
C571 N393 1.598 . S
C580 C407 1.736 . S
C582 C338 1.733 . S
C591 N347 1.716 . S
C593 N278 1.700 . S
C602 C384 1.740 . S
C604 C315 1.746 . S
C613 C7 1.578 . S
C615 N173 1.558 . S
C624 N35 1.558 . S
C626 N196 1.562 . S
C635 N150 1.545 . S
C637 N58 1.551 . S
C646 C53 1.677 . S
C648 N311 1.641 . S
C657 N334 1.628 1_455 S
C659 N12 1.655 . S
C668 C283 1.593 . S
C670 C30 1.614 . S
C679 C375 1.591 . S
C681 C76 1.604 . S
C690 N104 1.637 . S
C692 C398 1.634 . S
C701 N357 1.626 . S
C703 N127 1.637 . S
C712 N242 1.624 . S
C714 C122 1.658 . S
C723 N81 1.613 . S
C725 N265 1.615 . S
C734 C99 1.675 . S
C736 N219 1.648 . S
C745 C145 1.707 1_545 S
C747 C306 1.707 . S
C756 C168 1.683 . S
C758 C329 1.693 1_455 S
C767 C191 1.725 . S
C769 N288 1.695 . S
C778 N380 1.634 . S
C780 C260 1.645 . S
C789 N403 1.627 . S
C791 C214 1.633 . S
C800 C237 1.587 1_545 S
C802 C352 1.603 . S
