# Generated by pormake.
# Topology dia, (4)-cn, num edge types: 1
# Building blocks:
#     Node 0, Type 0, BuildingBlock: UXUYUI_clean_sbu_0, # of connection points: 4
#     Node 1, Type 0, BuildingBlock: UXUYUI_clean_sbu_0, # of connection points: 4
#     Node 2, Type 0, BuildingBlock: UXUYUI_clean_sbu_0, # of connection points: 4
#     Node 3, Type 0, BuildingBlock: UXUYUI_clean_sbu_0, # of connection points: 4
#     Node 4, Type 0, BuildingBlock: UXUYUI_clean_sbu_0, # of connection points: 4
#     Node 5, Type 0, BuildingBlock: UXUYUI_clean_sbu_0, # of connection points: 4
#     Node 6, Type 0, BuildingBlock: UXUYUI_clean_sbu_0, # of connection points: 4
#     Node 7, Type 0, BuildingBlock: UXUYUI_clean_sbu_0, # of connection points: 4
#     Edge 8, Type (0, 0), BuildingBlock: AJUNOK_clean_linker_0, # of connection points: 2
#     Edge 9, Type (0, 0), BuildingBlock: AJUNOK_clean_linker_0, # of connection points: 2
#     Edge 10, Type (0, 0), BuildingBlock: AJUNOK_clean_linker_0, # of connection points: 2
#     Edge 11, Type (0, 0), BuildingBlock: AJUNOK_clean_linker_0, # of connection points: 2
#     Edge 12, Type (0, 0), BuildingBlock: AJUNOK_clean_linker_0, # of connection points: 2
#     Edge 13, Type (0, 0), BuildingBlock: AJUNOK_clean_linker_0, # of connection points: 2
#     Edge 14, Type (0, 0), BuildingBlock: AJUNOK_clean_linker_0, # of connection points: 2
#     Edge 15, Type (0, 0), BuildingBlock: AJUNOK_clean_linker_0, # of connection points: 2
#     Edge 16, Type (0, 0), BuildingBlock: AJUNOK_clean_linker_0, # of connection points: 2
#     Edge 17, Type (0, 0), BuildingBlock: AJUNOK_clean_linker_0, # of connection points: 2
#     Edge 18, Type (0, 0), BuildingBlock: AJUNOK_clean_linker_0, # of connection points: 2
#     Edge 19, Type (0, 0), BuildingBlock: AJUNOK_clean_linker_0, # of connection points: 2
#     Edge 20, Type (0, 0), BuildingBlock: AJUNOK_clean_linker_0, # of connection points: 2
#     Edge 21, Type (0, 0), BuildingBlock: AJUNOK_clean_linker_0, # of connection points: 2
#     Edge 22, Type (0, 0), BuildingBlock: AJUNOK_clean_linker_0, # of connection points: 2
#     Edge 23, Type (0, 0), BuildingBlock: AJUNOK_clean_linker_0, # of connection points: 2
# Relax obj value: 0.000
# Max RMSD: 0.003
# Mean RMSD: 0.003
data_MOF--net-dia--node1-UXUYUI_clean_sbu_0--edge1-AJUNOK_clean_linker_0
_symmetry_space_group_name_H-M    P1
_symmetry_Int_Tables_number       1
_symmetry_cell_setting            triclinic
loop_
_symmetry_equiv_pos_as_xyz
'x, y, z'
_cell_length_a     41.854074
_cell_length_b     42.146474
_cell_length_c     42.123803
_cell_angle_alpha  90.108156
_cell_angle_beta   90.08212
_cell_angle_gamma 89.978533
loop_
_atom_site_label
_atom_site_type_symbol
_atom_site_fract_x
_atom_site_fract_y
_atom_site_fract_z
_atom_type_partial_charge
Li0 Li 0.12382 0.16036 0.66236 0.0
Li1 Li 0.16509 0.11704 0.65924 0.0
Li2 Li 0.16315 0.15857 0.61978 0.0
Li3 Li 0.12393 0.11778 0.6197 0.0
C4 C 0.19795 0.18068 0.66733 0.0
N5 N 0.25346 0.21611 0.66645 0.0
C6 C 0.22744 0.16579 0.66285 0.0
C7 C 0.19667 0.21358 0.67139 0.0
C8 C 0.25524 0.18412 0.66248 0.0
C9 C 0.225 0.23107 0.67086 0.0
C10 C 0.11701 0.09441 0.69275 0.0
C11 C 0.12234 0.04311 0.71752 0.0
N12 N 0.11713 0.0567 0.74636 0.0
C13 C 0.11154 0.10784 0.72262 0.0
C14 C 0.12226 0.06175 0.69013 0.0
C15 C 0.11173 0.08838 0.74943 0.0
C16 C 0.06617 0.18538 0.68601 0.0
N17 N 0.09847 0.18616 0.68932 0.0
C18 C 0.09444 0.22467 0.73081 0.0
C19 C 0.1128 0.20495 0.71139 0.0
C20 C 0.06105 0.22471 0.72762 0.0
C21 C 0.04685 0.2045 0.70515 0.0
H22 H 0.05548 0.17004 0.66832 0.0
H23 H 0.13849 0.20455 0.71397 0.0
C24 C 0.20985 0.06791 0.67229 0.0
N25 N 0.19232 0.09174 0.68534 0.0
C26 C 0.22968 0.04927 0.69131 0.0
C27 C 0.21367 0.08048 0.73678 0.0
C28 C 0.19416 0.09855 0.71686 0.0
C29 C 0.23183 0.05554 0.724 0.0
H30 H 0.20861 0.06345 0.64708 0.0
H31 H 0.18045 0.11806 0.7265 0.0
C32 C 0.11184 0.1887 0.59535 0.0
N33 N 0.10382 0.23869 0.55372 0.0
C34 C 0.12091 0.18553 0.56356 0.0
C35 C 0.09853 0.21725 0.60591 0.0
C36 C 0.11674 0.21111 0.54292 0.0
C37 C 0.09468 0.24225 0.58449 0.0
C38 C 0.1696 0.09032 0.58943 0.0
C39 C 0.17378 0.09892 0.55765 0.0
C40 C 0.16309 0.05867 0.59698 0.0
C41 C 0.17143 0.07572 0.53402 0.0
C42 C 0.16082 0.03621 0.57266 0.0
N43 N 0.16501 0.04512 0.54194 0.0
C44 C 0.21472 0.17323 0.57875 0.0
C45 C 0.18431 0.21795 0.59452 0.0
C46 C 0.23412 0.19226 0.55973 0.0
N47 N 0.18979 0.18613 0.59492 0.0
C48 C 0.20312 0.23787 0.57587 0.0
C49 C 0.22802 0.22495 0.55768 0.0
H50 H 0.21955 0.14812 0.58061 0.0
H51 H 0.16535 0.22794 0.60874 0.0
C52 C 0.07825 0.06902 0.60882 0.0
N53 N 0.09592 0.09198 0.5945 0.0
C54 C 0.05898 0.04883 0.59069 0.0
C55 C 0.07612 0.07652 0.54351 0.0
C56 C 0.09463 0.09643 0.56255 0.0
C57 C 0.05827 0.05221 0.55758 0.0
H58 H 0.07932 0.0662 0.63428 0.0
H59 H 0.10847 0.11503 0.55171 0.0
O60 O 0.17042 0.16321 0.66684 0.0
O61 O 0.11755 0.11318 0.66628 0.0
O62 O 0.11579 0.16403 0.61605 0.0
O63 O 0.17125 0.11278 0.61295 0.0
H64 H 0.22883 0.1404 0.65928 0.0
H65 H 0.174 0.22557 0.6743 0.0
H66 H 0.27822 0.17293 0.65891 0.0
H67 H 0.22436 0.25657 0.67377 0.0
H68 H 0.1266 0.01785 0.71585 0.0
H69 H 0.10748 0.13305 0.72515 0.0
H70 H 0.12653 0.05092 0.66725 0.0
H71 H 0.10769 0.09849 0.77271 0.0
H72 H 0.10614 0.23954 0.74831 0.0
H73 H 0.02116 0.20392 0.7021 0.0
H74 H 0.24297 0.02998 0.6806 0.0
H75 H 0.21487 0.08619 0.76184 0.0
H76 H 0.13187 0.16392 0.55511 0.0
H77 H 0.0914 0.22016 0.63041 0.0
H78 H 0.12398 0.20909 0.51835 0.0
H79 H 0.08449 0.2645 0.59237 0.0
H80 H 0.17811 0.12331 0.55113 0.0
H81 H 0.15931 0.05159 0.62132 0.0
H82 H 0.17444 0.08211 0.50934 0.0
H83 H 0.15557 1.01171 0.5782 0.0
H84 H 0.25339 0.18146 0.54639 0.0
H85 H 0.19836 0.26313 0.57583 0.0
H86 H 0.04529 0.03039 0.60229 0.0
H87 H 0.0757 0.08009 0.51805 0.0
Li88 Li 0.87408 0.40917 0.8719 0.0
Li89 Li 0.91343 0.41152 0.91285 0.0
Li90 Li 0.91398 0.36887 0.86912 0.0
Li91 Li 0.87157 0.37006 0.91185 0.0
C92 C 0.92372 0.44006 0.84631 0.0
N93 N 0.92823 0.49061 0.80497 0.0
C94 C 0.91529 0.47055 0.85636 0.0
C95 C 0.93478 0.43528 0.81539 0.0
C96 C 0.91762 0.49579 0.83504 0.0
C97 C 0.93682 0.46116 0.79481 0.0
C98 C 0.86048 0.42365 0.94909 0.0
C99 C 0.86919 0.41291 1.00468 0.0
N100 N 0.84946 0.43738 1.01236 0.0
C101 C 0.84033 0.44874 0.95756 0.0
C102 C 0.87508 0.40566 0.97286 0.0
C103 C 0.83505 0.45529 0.98965 0.0
C104 C 0.8257 0.45402 0.85842 0.0
N105 N 0.84832 0.43533 0.84478 0.0
C106 C 0.83326 0.45338 0.79309 0.0
C107 C 0.8524 0.43468 0.81275 0.0
C108 C 0.80959 0.47278 0.80653 0.0
C109 C 0.80604 0.47311 0.83967 0.0
H110 H 0.82285 0.45399 0.88388 0.0
H111 H 0.87033 0.41938 0.80241 0.0
C112 C 0.96966 0.42663 0.94711 0.0
N113 N 0.94017 0.43726 0.93874 0.0
C114 C 0.98955 0.44531 0.96616 0.0
C115 C 0.9484 0.48556 0.9674 0.0
C116 C 0.92936 0.46615 0.94831 0.0
C117 C 0.97901 0.47528 0.9764 0.0
H118 H 0.97775 0.40367 0.93887 0.0
H119 H 0.9059 0.47414 0.94113 0.0
C120 C 0.84027 0.36308 0.84752 0.0
N121 N 0.78572 0.36606 0.81062 0.0
C122 C 0.81075 0.36976 0.86149 0.0
C123 C 0.84204 0.35777 0.8148 0.0
C124 C 0.78345 0.37122 0.84242 0.0
C125 C 0.81418 0.3594 0.79656 0.0
C126 C 0.93165 0.3396 0.93239 0.0
C127 C 0.93368 0.3099 0.9177 0.0
C128 C 0.94361 0.34351 0.96317 0.0
C129 C 0.94705 0.28446 0.93426 0.0
C130 C 0.95682 0.31748 0.97894 0.0
N131 N 0.95823 0.28873 0.96429 0.0
C132 C 0.97299 0.34766 0.845 0.0
C133 C 0.92784 0.32008 0.82509 0.0
C134 C 0.99343 0.32895 0.82663 0.0
N135 N 0.94089 0.343 0.84376 0.0
C136 C 0.94735 0.30105 0.80609 0.0
C137 C 0.98062 0.30549 0.80653 0.0
H138 H 0.98266 0.36583 0.86043 0.0
H139 H 0.90229 0.31647 0.82508 0.0
C140 C 0.81902 0.35507 0.95268 0.0
N141 N 0.84471 0.34291 0.93703 0.0
C142 C 0.79959 0.33545 0.97106 0.0
C143 C 0.83232 0.29078 0.95576 0.0
C144 C 0.85119 0.3113 0.93778 0.0
C145 C 0.80619 0.30286 0.97277 0.0
H146 H 0.81329 0.37996 0.95072 0.0
H147 H 0.87078 0.30188 0.92414 0.0
O148 O 0.92127 0.415 0.86668 0.0
O149 O 0.86629 0.41741 0.91768 0.0
O150 O 0.86734 0.36241 0.86576 0.0
O151 O 0.91922 0.36499 0.91628 0.0
H152 H 0.90661 0.47457 0.88022 0.0
H153 H 0.94147 0.41179 0.80735 0.0
H154 H 0.91093 0.51948 0.84239 0.0
H155 H 0.94518 0.45782 0.77074 0.0
H156 H 0.88028 0.39905 0.02327 0.0
H157 H 0.82901 0.46317 0.93956 0.0
H158 H 0.8905 0.38611 0.96685 0.0
H159 H 0.81953 0.47465 0.99651 0.0
H160 H 0.83663 0.45235 0.76762 0.0
H161 H 0.78845 0.48818 0.85101 0.0
H162 H 1.01307 0.43662 0.9725 0.0
H163 H 0.93915 0.50825 0.97526 0.0
H164 H 0.80901 0.37429 0.8867 0.0
H165 H 0.86473 0.35307 0.80349 0.0
H166 H 0.76049 0.37659 0.85288 0.0
H167 H 0.81523 0.35557 0.77118 0.0
H168 H 0.92459 0.30638 0.89392 0.0
H169 H 0.94287 0.36641 0.97479 0.0
H170 H 0.94851 0.2613 0.92324 0.0
H171 H 0.96605 0.32017 1.00279 0.0
H172 H 1.01898 0.33258 0.82841 0.0
H173 H 0.93648 0.28322 0.791 0.0
H174 H 0.77931 0.34555 0.98343 0.0
H175 H 0.83824 0.26577 0.95654 0.0
Li176 Li 0.62421 0.15979 0.16076 0.0
Li177 Li 0.6672 0.11749 0.15846 0.0
Li178 Li 0.66266 0.15788 0.11744 0.0
Li179 Li 0.62488 0.11609 0.11882 0.0
C180 C 0.69801 0.18267 0.16291 0.0
N181 N 0.75222 0.21977 0.15802 0.0
C182 C 0.72783 0.16854 0.15814 0.0
C183 C 0.69576 0.2157 0.1652 0.0
C184 C 0.75495 0.18769 0.15573 0.0
C185 C 0.72345 0.23403 0.16268 0.0
C186 C 0.61478 0.09 0.18793 0.0
C187 C 0.62092 0.03643 0.20707 0.0
N188 N 0.60441 0.0443 0.23373 0.0
C189 C 0.59801 0.09761 0.21559 0.0
C190 C 0.62639 0.05919 0.18364 0.0
C191 C 0.59295 0.07415 0.23843 0.0
C192 C 0.5662 0.17998 0.1882 0.0
N193 N 0.59834 0.18451 0.18833 0.0
C194 C 0.59349 0.2256 0.22716 0.0
C195 C 0.61222 0.20653 0.20746 0.0
C196 C 0.56018 0.22136 0.22785 0.0
C197 C 0.54658 0.19813 0.20799 0.0
H198 H 0.55585 0.16219 0.17276 0.0
H199 H 0.63784 0.20941 0.20733 0.0
C200 C 0.7197 0.07705 0.17138 0.0
N201 N 0.69486 0.09291 0.1848 0.0
C202 C 0.73942 0.0578 0.18994 0.0
C203 C 0.70817 0.07224 0.23595 0.0
C204 C 0.6893 0.09151 0.21657 0.0
C205 C 0.73335 0.0547 0.22258 0.0
H206 H 0.72425 0.07941 0.14624 0.0
H207 H 0.66982 0.10493 0.22677 0.0
C208 C 0.61005 0.18777 0.09525 0.0
N209 N 0.59941 0.23955 0.05647 0.0
C210 C 0.61452 0.18523 0.06246 0.0
C211 C 0.59978 0.21656 0.10827 0.0
C212 C 0.60915 0.21171 0.04328 0.0
C213 C 0.59461 0.24248 0.08827 0.0
C214 C 0.67196 0.08995 0.08849 0.0
C215 C 0.666 0.099 0.05714 0.0
C216 C 0.67725 0.05797 0.09554 0.0
C217 C 0.66505 0.07585 0.03338 0.0
C218 C 0.67617 0.03553 0.0711 0.0
N219 N 0.6701 0.04486 0.04079 0.0
C220 C 0.71179 0.17072 0.07323 0.0
C221 C 0.68308 0.21645 0.08924 0.0
C222 C 0.73132 0.18901 0.0536 0.0
N223 N 0.68796 0.18455 0.09026 0.0
C224 C 0.70194 0.23561 0.06985 0.0
C225 C 0.72629 0.22188 0.05153 0.0
H226 H 0.71593 0.14549 0.07519 0.0
H227 H 0.66481 0.22717 0.10378 0.0
C228 C 0.57832 0.10247 0.07188 0.0
N229 N 0.59756 0.08901 0.09414 0.0
C230 C 0.55921 0.08353 0.05231 0.0
C231 C 0.57948 0.03721 0.07936 0.0
C232 C 0.59807 0.05704 0.09846 0.0
C233 C 0.56001 0.05042 0.05569 0.0
H234 H 0.57793 0.12792 0.06912 0.0
H235 H 0.61326 0.04678 0.11638 0.0
O236 O 0.67111 0.16428 0.1644 0.0
O237 O 0.61998 0.11275 0.16539 0.0
O238 O 0.61511 0.16213 0.1145 0.0
O239 O 0.6722 0.11224 0.11217 0.0
H240 H 0.72998 0.14308 0.15586 0.0
H241 H 0.67284 0.22716 0.16813 0.0
H242 H 0.77816 0.17706 0.15189 0.0
H243 H 0.72202 0.25962 0.16417 0.0
H244 H 0.62998 1.01256 0.20414 0.0
H245 H 0.58901 0.12137 0.2194 0.0
H246 H 0.64027 0.05314 0.1629 0.0
H247 H 0.57995 0.07968 0.25992 0.0
H248 H 0.605 0.24376 0.24133 0.0
H249 H 0.52106 0.1939 0.20786 0.0
H250 H 0.75929 0.04564 0.17886 0.0
H251 H 0.70278 0.07068 0.26104 0.0
H252 H 0.62223 0.16313 0.05193 0.0
H253 H 0.59607 0.21899 0.13355 0.0
H254 H 0.61273 0.21012 0.0179 0.0
H255 H 0.58684 0.26494 0.09804 0.0
H256 H 0.662 0.12362 0.05123 0.0
H257 H 0.68158 0.05041 0.11967 0.0
H258 H 0.66029 0.08253 1.00904 0.0
H259 H 0.67997 1.01068 0.07625 0.0
H260 H 0.75046 0.17762 0.0406 0.0
H261 H 0.69744 0.26091 0.06912 0.0
H262 H 0.54439 0.0946 0.03437 0.0
H263 H 0.58025 1.0118 0.08315 0.0
Li264 Li 0.91504 0.9085 0.41206 0.0
Li265 Li 0.87493 0.90951 0.36925 0.0
Li266 Li 0.87481 0.86676 0.41143 0.0
Li267 Li 0.91493 0.86646 0.3689 0.0
C268 C 0.86201 0.93587 0.43834 0.0
N269 N 0.851 0.98182 0.4839 0.0
C270 C 0.85072 0.96579 0.42948 0.0
C271 C 0.86725 0.92918 0.47041 0.0
C272 C 0.8454 0.98874 0.45286 0.0
C273 C 0.86169 0.95277 0.49307 0.0
C274 C 0.9312 0.93334 0.34206 0.0
C275 C 0.93819 0.94516 0.2865 0.0
N276 N 0.94905 0.97456 0.29433 0.0
C277 C 0.94284 0.96352 0.34958 0.0
C278 C 0.9292 0.92393 0.31029 0.0
C279 C 0.95158 0.98408 0.3251 0.0
C280 C 0.9662 0.92037 0.45423 0.0
N281 N 0.94148 0.93426 0.43854 0.0
C282 C 0.95448 0.98475 0.46106 0.0
C283 C 0.9356 0.96589 0.44126 0.0
C284 C 0.98008 0.97101 0.47757 0.0
C285 C 0.98598 0.93844 0.47396 0.0
H286 H 0.97063 0.89526 0.45136 0.0
H287 H 0.91638 0.97656 0.4279 0.0
C288 C 0.82184 0.92377 0.33035 0.0
N289 N 0.84901 0.93609 0.34309 0.0
C290 C 0.80255 0.94222 0.31058 0.0
C291 C 0.8391 0.98598 0.31798 0.0
C292 C 0.85756 0.96674 0.33777 0.0
C293 C 0.81136 0.97365 0.30381 0.0
H294 H 0.81508 0.8996 0.33564 0.0
H295 H 0.87858 0.97639 0.34905 0.0
C296 C 0.92716 0.83878 0.43751 0.0
N297 N 0.93679 0.79181 0.48218 0.0
C298 C 0.93652 0.80839 0.42799 0.0
C299 C 0.9232 0.84542 0.46978 0.0
C300 C 0.94114 0.78493 0.45093 0.0
C301 C 0.92803 0.82132 0.49199 0.0
C302 C 0.85904 0.84386 0.3401 0.0
C303 C 0.84655 0.81365 0.3458 0.0
C304 C 0.86236 0.85452 0.3089 0.0
C305 C 0.83824 0.79432 0.3201 0.0
C306 C 0.85378 0.8345 0.28384 0.0
N307 N 0.84204 0.80505 0.2899 0.0
C308 C 0.82512 0.85438 0.45497 0.0
C309 C 0.85292 0.80855 0.43758 0.0
C310 C 0.80549 0.83597 0.47436 0.0
N311 N 0.84841 0.8405 0.43726 0.0
C312 C 0.83398 0.78924 0.45679 0.0
C313 C 0.80984 0.80296 0.47537 0.0
H314 H 0.82171 0.87977 0.45399 0.0
H315 H 0.8711 0.79799 0.42276 0.0
C316 C 0.96842 0.85303 0.3305 0.0
N317 N 0.941 0.84048 0.34232 0.0
C318 C 0.98798 0.83504 0.31054 0.0
C319 C 0.9511 0.79128 0.3158 0.0
C320 C 0.93237 0.81005 0.3358 0.0
C321 C 0.97918 0.80384 0.30264 0.0
H322 H 0.97519 0.87701 0.3367 0.0
H323 H 0.91107 0.80021 0.3463 0.0
O324 O 0.86755 0.91318 0.41573 0.0
O325 O 0.92236 0.91299 0.36575 0.0
O326 O 0.92229 0.86199 0.41536 0.0
O327 O 0.86753 0.86299 0.36501 0.0
H328 H 0.84625 0.97129 0.40481 0.0
H329 H 0.87552 0.90603 0.47771 0.0
H330 H 0.83684 1.01205 0.44632 0.0
H331 H 0.86582 0.94796 0.51796 0.0
H332 H 0.93664 0.93821 0.26181 0.0
H333 H 0.94488 0.97109 0.37402 0.0
H334 H 0.92108 0.90041 0.30406 0.0
H335 H 0.96038 1.00759 0.33058 0.0
H336 H 0.94948 1.0099 0.46306 0.0
H337 H 1.00549 0.92707 0.48647 0.0
H338 H 0.78079 0.9321 0.301 0.0
H339 H 0.84659 1.01017 0.31361 0.0
H340 H 0.93996 0.80291 0.40315 0.0
H341 H 0.91653 0.86893 0.47759 0.0
H342 H 0.94817 0.76124 0.44388 0.0
H343 H 0.92487 0.82609 0.51703 0.0
H344 H 0.84348 0.80513 0.36978 0.0
H345 H 0.87119 0.87809 0.30407 0.0
H346 H 0.82877 0.7708 0.32416 0.0
H347 H 0.85634 0.84243 0.25956 0.0
H348 H 0.7873 0.84742 0.48861 0.0
H349 H 0.83784 0.76383 0.45677 0.0
H350 H 1.00995 0.84532 0.30173 0.0
H351 H 0.94358 0.76726 0.31051 0.0
Li352 Li 0.12558 0.65997 0.16006 0.0
Li353 Li 0.16619 0.61962 0.16127 0.0
Li354 Li 0.16555 0.65854 0.11882 0.0
Li355 Li 0.12547 0.61757 0.12094 0.0
C356 C 0.18083 0.67386 0.19522 0.0
N357 N 0.198 0.68904 0.25676 0.0
C358 C 0.16273 0.66271 0.22073 0.0
C359 C 0.20763 0.69277 0.20101 0.0
C360 C 0.17181 0.67063 0.25166 0.0
C361 C 0.21593 0.70018 0.23229 0.0
C362 C 0.11224 0.58311 0.17488 0.0
C363 C 0.12296 0.52704 0.17037 0.0
N364 N 0.09763 0.52091 0.18958 0.0
C365 C 0.08635 0.57626 0.19461 0.0
C366 C 0.13074 0.55831 0.16267 0.0
C367 C 0.07933 0.54466 0.20176 0.0
C368 C 0.06981 0.67605 0.19383 0.0
N369 N 0.09904 0.68699 0.18508 0.0
C370 C 0.09001 0.73592 0.21241 0.0
C371 C 0.10945 0.71625 0.19403 0.0
C372 C 0.05971 0.72525 0.22179 0.0
C373 C 0.04969 0.69485 0.21247 0.0
H374 H 0.06218 0.6527 0.18633 0.0
H375 H 0.13293 0.72428 0.18707 0.0
C376 C 0.22278 0.58712 0.17798 0.0
N377 N 0.19314 0.59517 0.1884 0.0
C378 C 0.24297 0.56881 0.19703 0.0
C379 C 0.2018 0.56764 0.23721 0.0
C380 C 0.1824 0.58584 0.21738 0.0
C381 C 0.23255 0.559 0.22712 0.0
H382 H 0.23067 0.59489 0.15482 0.0
H383 H 0.15864 0.59231 0.22504 0.0
C384 C 0.11015 0.69408 0.10641 0.0
N385 N 0.09299 0.75577 0.09219 0.0
C386 C 0.08297 0.70011 0.08809 0.0
C387 C 0.12864 0.71943 0.11745 0.0
C388 C 0.07468 0.73146 0.08116 0.0
C389 C 0.11956 0.75044 0.11002 0.0
C390 C 0.1796 0.60466 0.08437 0.0
C391 C 0.16111 0.61678 0.05953 0.0
C392 C 0.20564 0.58505 0.07757 0.0
C393 C 0.16904 0.6091 0.02824 0.0
C394 C 0.21279 0.57791 0.04596 0.0
N395 N 0.1945 0.58999 0.02216 0.0
C396 C 0.22232 0.6894 0.1003 0.0
C397 C 0.17985 0.69435 0.06335 0.0
C398 C 0.24225 0.70763 0.08096 0.0
N399 N 0.19177 0.68322 0.09124 0.0
C400 C 0.19884 0.71281 0.04342 0.0
C401 C 0.23055 0.7195 0.05204 0.0
H402 H 0.23118 0.68013 0.12256 0.0
H403 H 0.15549 0.68913 0.05662 0.0
C404 C 0.06894 0.60102 0.08883 0.0
N405 N 0.09874 0.59049 0.09613 0.0
C406 C 0.04882 0.58279 0.06961 0.0
C407 C 0.0902 0.54289 0.06634 0.0
C408 C 0.10955 0.56192 0.08554 0.0
C409 C 0.05957 0.55347 0.05785 0.0
H410 H 0.0609 0.62371 0.09781 0.0
H411 H 0.13336 0.55406 0.09164 0.0
O412 O 0.17258 0.66638 0.16467 0.0
O413 O 0.11928 0.61399 0.16774 0.0
O414 O 0.11838 0.66345 0.11345 0.0
O415 O 0.17249 0.61186 0.11526 0.0
H416 H 0.14187 0.64811 0.21675 0.0
H417 H 0.22187 0.70162 0.1815 0.0
H418 H 0.15802 0.66213 0.27162 0.0
H419 H 0.23663 0.71479 0.23712 0.0
H420 H 0.13709 0.50764 0.16108 0.0
H421 H 0.07183 0.59517 0.20433 0.0
H422 H 0.15098 0.56308 0.14751 0.0
H423 H 0.05935 0.53902 0.21699 0.0
H424 H 0.09873 0.75904 0.2196 0.0
H425 H 0.02645 0.68588 0.21928 0.0
H426 H 0.26654 0.56257 0.18846 0.0
H427 H 0.19267 0.55997 0.25998 0.0
H428 H 0.06843 0.68076 0.0793 0.0
H429 H 0.14983 0.71528 0.13154 0.0
H430 H 0.05369 0.73647 0.06702 0.0
H431 H 0.13365 0.77026 0.11843 0.0
H432 H 0.14079 0.63188 0.06427 0.0
H433 H 0.22016 0.57543 0.09654 0.0
H434 H 0.15492 0.61833 1.0088 0.0
H435 H 0.23288 0.56276 0.04036 0.0
H436 H 0.26659 0.71221 0.08842 0.0
H437 H 0.18862 0.72211 0.02171 0.0
H438 H 0.0251 0.59147 0.06407 0.0
H439 H 0.09932 0.52043 0.0577 0.0
Li440 Li 0.37333 0.40928 0.36929 0.0
Li441 Li 0.41354 0.40814 0.41175 0.0
Li442 Li 0.41259 0.36554 0.36899 0.0
Li443 Li 0.3724 0.3669 0.41172 0.0
C444 C 0.42889 0.43207 0.34132 0.0
N445 N 0.44536 0.47287 0.29277 0.0
C446 C 0.43766 0.46334 0.34811 0.0
C447 C 0.42913 0.42135 0.30991 0.0
C448 C 0.44571 0.48367 0.32322 0.0
C449 C 0.43736 0.44239 0.28568 0.0
C450 C 0.36065 0.43414 0.44022 0.0
C451 C 0.36224 0.44685 0.49604 0.0
N452 N 0.3499 0.47601 0.48962 0.0
C453 C 0.34771 0.4641 0.43418 0.0
C454 C 0.36772 0.42531 0.4714 0.0
C455 C 0.34255 0.48498 0.45948 0.0
C456 C 0.32319 0.42495 0.32651 0.0
N457 N 0.34807 0.43688 0.34354 0.0
C458 C 0.33702 0.48921 0.32459 0.0
C459 C 0.355 0.4684 0.34319 0.0
C460 C 0.31144 0.47748 0.30648 0.0
C461 C 0.30463 0.44489 0.30751 0.0
H462 H 0.31749 0.40001 0.32789 0.0
H463 H 0.37429 0.47746 0.35763 0.0
C464 C 0.46633 0.4203 0.4518 0.0
N465 N 0.44044 0.43382 0.43778 0.0
C466 C 0.4863 0.43833 0.47138 0.0
C467 C 0.4526 0.48386 0.4617 0.0
C468 C 0.43366 0.46511 0.44185 0.0
C469 C 0.47925 0.47048 0.47698 0.0
H470 H 0.47159 0.39552 0.44759 0.0
H471 H 0.41351 0.47556 0.42972 0.0
C472 C 0.35535 0.34385 0.3408 0.0
N473 N 0.33601 0.30508 0.29142 0.0
C474 C 0.33958 0.31533 0.3471 0.0
C475 C 0.36098 0.35281 0.30937 0.0
C476 C 0.33007 0.29601 0.32181 0.0
C477 C 0.3511 0.33285 0.28474 0.0
C478 C 0.4256 0.33766 0.43669 0.0
C479 C 0.43276 0.30715 0.42576 0.0
C480 C 0.42502 0.34373 0.46931 0.0
C481 C 0.43854 0.28301 0.44771 0.0
C482 C 0.43093 0.31895 0.49051 0.0
N483 N 0.43747 0.28935 0.47936 0.0
C484 C 0.46858 0.34937 0.33595 0.0
C485 C 0.42819 0.31005 0.33281 0.0
C486 C 0.48908 0.33075 0.31754 0.0
N487 N 0.43872 0.33885 0.34307 0.0
C488 C 0.44767 0.29095 0.31386 0.0
C489 C 0.47852 0.30127 0.30621 0.0
H490 H 0.47649 0.37219 0.34474 0.0
H491 H 0.4049 0.30159 0.33967 0.0
C492 C 0.3225 0.35526 0.45544 0.0
N493 N 0.34568 0.34114 0.43779 0.0
C494 C 0.30278 0.33707 0.47496 0.0
C495 C 0.3308 0.29006 0.45744 0.0
C496 C 0.34986 0.30915 0.43814 0.0
C497 C 0.30686 0.30403 0.47609 0.0
H498 H 0.31919 0.38064 0.45432 0.0
H499 H 0.36777 0.29837 0.42317 0.0
O500 O 0.42085 0.41187 0.3654 0.0
O501 O 0.36625 0.41354 0.4157 0.0
O502 O 0.3651 0.36287 0.36532 0.0
O503 O 0.41981 0.36157 0.41552 0.0
H504 H 0.43794 0.47191 0.37233 0.0
H505 H 0.42329 0.39701 0.3043 0.0
H506 H 0.45226 0.50802 0.32811 0.0
H507 H 0.43751 0.43445 0.26124 0.0
H508 H 0.36776 0.44038 0.52028 0.0
H509 H 0.34182 0.47122 0.41024 0.0
H510 H 0.37732 0.40209 0.4765 0.0
H511 H 0.33271 0.50831 0.45514 0.0
H512 H 0.34318 0.51416 0.32424 0.0
H513 H 0.28484 0.43504 0.29414 0.0
H514 H 0.50724 0.42726 0.48163 0.0
H515 H 0.44631 0.50855 0.46518 0.0
H516 H 0.33481 0.30813 0.37126 0.0
H517 H 0.37264 0.37502 0.30406 0.0
H518 H 0.31796 0.27381 0.32635 0.0
H519 H 0.35537 0.33947 0.26031 0.0
H520 H 0.43355 0.30208 0.40061 0.0
H521 H 0.42024 0.36732 0.47818 0.0
H522 H 0.44387 0.25922 0.43958 0.0
H523 H 0.4304 0.32328 0.51582 0.0
H524 H 0.51283 0.33933 0.31203 0.0
H525 H 0.439 0.2681 0.30579 0.0
H526 H 0.28472 0.34872 0.48922 0.0
H527 H 0.3344 0.26461 0.45743 0.0
Li528 Li 0.37432 0.91026 0.86915 0.0
Li529 Li 0.41498 0.90717 0.91073 0.0
Li530 Li 0.41382 0.86617 0.86712 0.0
Li531 Li 0.37419 0.86689 0.91038 0.0
C532 C 0.43281 0.92751 0.8378 0.0
N533 N 0.45587 0.9572 0.78404 0.0
C534 C 0.44808 0.95691 0.8402 0.0
C535 C 0.42981 0.91297 0.80811 0.0
C536 C 0.4594 0.97162 0.81274 0.0
C537 C 0.44148 0.9284 0.7812 0.0
C538 C 0.36675 0.93713 0.93785 0.0
C539 C 0.37304 0.95563 0.99171 0.0
N540 N 0.3661 0.98563 0.98205 0.0
C541 C 0.35944 0.96808 0.92848 0.0
C542 C 0.37335 0.93076 0.96975 0.0
C543 C 0.35931 0.9923 0.95118 0.0
C544 C 0.3184 0.9287 0.83628 0.0
N545 N 0.34847 0.93802 0.84423 0.0
C546 C 0.34184 0.98661 0.81579 0.0
C547 C 0.36017 0.96662 0.83493 0.0
C548 C 0.31117 0.97707 0.80618 0.0
C549 C 0.29928 0.94791 0.81706 0.0
H550 H 0.30941 0.90614 0.84456 0.0
H551 H 0.38363 0.97404 0.84255 0.0
C552 C 0.46149 0.91857 0.95851 0.0
N553 N 0.44227 0.9326 0.93662 0.0
C554 C 0.48126 0.93701 0.9779 0.0
C555 C 0.46118 0.98398 0.95174 0.0
C556 C 0.44189 0.96463 0.93281 0.0
C557 C 0.48129 0.97016 0.97455 0.0
H558 H 0.46145 0.89306 0.96097 0.0
H559 H 0.42646 0.97517 0.91514 0.0
C560 C 0.35223 0.84929 0.83859 0.0
N561 N 0.32339 0.81971 0.78739 0.0
C562 C 0.33648 0.82034 0.8426 0.0
C563 C 0.35299 0.86334 0.80855 0.0
C564 C 0.32215 0.80571 0.81642 0.0
C565 C 0.33835 0.84799 0.78297 0.0
C566 C 0.42457 0.83492 0.93288 0.0
C567 C 0.43314 0.80546 0.92019 0.0
C568 C 0.419 0.83784 0.96546 0.0
C569 C 0.43562 0.77926 0.94034 0.0
C570 C 0.42166 0.81107 0.9848 0.0
N571 N 0.42983 0.78258 0.97194 0.0
C572 C 0.4719 0.84482 0.84219 0.0
C573 C 0.42719 0.81759 0.82096 0.0
C574 C 0.49269 0.82668 0.82363 0.0
N575 N 0.43982 0.84009 0.84045 0.0
C576 C 0.44705 0.79921 0.8017 0.0
C577 C 0.48028 0.80371 0.80276 0.0
H578 H 0.48131 0.86262 0.85821 0.0
H579 H 0.40178 0.81371 0.82026 0.0
C580 C 0.32748 0.853 0.95715 0.0
N581 N 0.34785 0.84 0.93563 0.0
C582 C 0.30828 0.83352 0.97597 0.0
C583 C 0.33148 0.7877 0.95024 0.0
C584 C 0.35001 0.80804 0.93177 0.0
C585 C 0.31005 0.8004 0.97252 0.0
H586 H 0.32604 0.87849 0.95959 0.0
H587 H 0.36627 0.7983 0.91439 0.0
O588 O 0.42164 0.9128 0.86453 0.0
O589 O 0.36757 0.91321 0.91588 0.0
O590 O 0.36644 0.86385 0.86403 0.0
O591 O 0.42172 0.86076 0.91348 0.0
H592 H 0.45102 0.96837 0.863 0.0
H593 H 0.41891 0.88988 0.80582 0.0
H594 H 0.47105 0.99449 0.81424 0.0
H595 H 0.43922 0.91742 0.75807 0.0
H596 H 0.37835 0.95109 0.01643 0.0
H597 H 0.35416 0.9734 0.90393 0.0
H598 H 0.37894 0.90692 0.97739 0.0
H599 H 0.35387 0.01641 0.94424 0.0
H600 H 0.35148 1.00938 0.80876 0.0
H601 H 0.27566 0.9398 0.81033 0.0
H602 H 0.49606 0.9255 0.99557 0.0
H603 H 0.46062 1.00944 0.94839 0.0
H604 H 0.33536 0.8092 0.86565 0.0
H605 H 0.3644 0.88603 0.80502 0.0
H606 H 0.31 0.78323 0.8192 0.0
H607 H 0.33879 0.85863 0.75962 0.0
H608 H 0.43759 0.80276 0.89505 0.0
H609 H 0.41239 0.86046 0.97567 0.0
H610 H 0.44207 0.75628 0.93083 0.0
H611 H 0.41719 0.81294 1.01002 0.0
H612 H 0.51819 0.83034 0.82592 0.0
H613 H 0.43646 0.78177 0.78598 0.0
H614 H 0.29196 0.84425 0.9928 0.0
H615 H 0.33415 0.76231 0.94731 0.0
Li616 Li 0.62621 0.65971 0.66026 0.0
Li617 Li 0.66758 0.61608 0.65907 0.0
Li618 Li 0.66657 0.65727 0.61913 0.0
Li619 Li 0.62723 0.6164 0.61775 0.0
C620 C 0.70001 0.6802 0.66691 0.0
N621 N 0.75505 0.71633 0.66614 0.0
C622 C 0.72975 0.66562 0.66303 0.0
C623 C 0.69825 0.71313 0.67048 0.0
C624 C 0.75731 0.68431 0.66269 0.0
C625 C 0.72636 0.73099 0.67001 0.0
C626 C 0.61517 0.59352 0.69 0.0
C627 C 0.61239 0.54147 0.71355 0.0
N628 N 0.60619 0.55498 0.74224 0.0
C629 C 0.60844 0.60687 0.71965 0.0
C630 C 0.61684 0.56054 0.68683 0.0
C631 C 0.60408 0.58699 0.74579 0.0
C632 C 0.56806 0.68582 0.68158 0.0
N633 N 0.60021 0.68582 0.68622 0.0
C634 C 0.59531 0.72369 0.72822 0.0
C635 C 0.61404 0.70397 0.70914 0.0
C636 C 0.56208 0.72438 0.7238 0.0
C637 C 0.54839 0.70494 0.70036 0.0
H638 H 0.55778 0.67098 0.66324 0.0
H639 H 0.63959 0.70298 0.71271 0.0
C640 C 0.71559 0.57045 0.67287 0.0
N641 N 0.6937 0.59041 0.68594 0.0
C642 C 0.73451 0.55119 0.69221 0.0
C643 C 0.70882 0.57414 0.73819 0.0
C644 C 0.6906 0.59314 0.71796 0.0
C645 C 0.73087 0.55261 0.72529 0.0
H646 H 0.71853 0.56956 0.64742 0.0
H647 H 0.67405 0.61018 0.72781 0.0
C648 C 0.61596 0.68506 0.59069 0.0
N649 N 0.60947 0.73077 0.54421 0.0
C650 C 0.62601 0.67879 0.55968 0.0
C651 C 0.60238 0.71447 0.59803 0.0
C652 C 0.62263 0.70226 0.53654 0.0
C653 C 0.59933 0.73728 0.57419 0.0
C654 C 0.67631 0.58611 0.59268 0.0
C655 C 0.6843 0.59053 0.56076 0.0
C656 C 0.66974 0.55556 0.60374 0.0
C657 C 0.68547 0.5643 0.54046 0.0
C658 C 0.67113 0.52995 0.5827 0.0
N659 N 0.67889 0.53481 0.55175 0.0
C660 C 0.71849 0.67178 0.57841 0.0
C661 C 0.68737 0.71631 0.59332 0.0
C662 C 0.73779 0.6908 0.55927 0.0
N663 N 0.69334 0.6846 0.59428 0.0
C664 C 0.70607 0.73622 0.57456 0.0
C665 C 0.73129 0.72338 0.55675 0.0
H666 H 0.72362 0.64676 0.58065 0.0
H667 H 0.66809 0.72621 0.6072 0.0
C668 C 0.57646 0.57344 0.60689 0.0
N669 N 0.59984 0.59031 0.59224 0.0
C670 C 0.55628 0.55369 0.58928 0.0
C671 C 0.58453 0.56907 0.54179 0.0
C672 C 0.60368 0.58899 0.56022 0.0
C673 C 0.56054 0.55087 0.55629 0.0
H674 H 0.5733 0.5755 0.63227 0.0
H675 H 0.62177 0.60319 0.54889 0.0
O676 O 0.67274 0.66235 0.66639 0.0
O677 O 0.61977 0.61263 0.66418 0.0
O678 O 0.61938 0.6626 0.61381 0.0
O679 O 0.6747 0.61153 0.61293 0.0
H680 H 0.7315 0.6402 0.65991 0.0
H681 H 0.67539 0.72486 0.67301 0.0
H682 H 0.78048 0.67338 0.65955 0.0
H683 H 0.72534 0.75651 0.67254 0.0
H684 H 0.61379 0.51592 0.71147 0.0
H685 H 0.60696 0.63232 0.72256 0.0
H686 H 0.62142 0.54975 0.664 0.0
H687 H 0.5991 0.59702 0.76891 0.0
H688 H 0.6066 0.73797 0.74646 0.0
H689 H 0.52281 0.70488 0.69637 0.0
H690 H 0.75155 0.53511 0.68143 0.0
H691 H 0.706 0.57652 0.76364 0.0
H692 H 0.63701 0.65635 0.55374 0.0
H693 H 0.59448 0.71968 0.62194 0.0
H694 H 0.63062 0.69786 0.51251 0.0
H695 H 0.58898 0.76019 0.57955 0.0
H696 H 0.68887 0.614 0.55153 0.0
H697 H 0.6636 0.55168 0.62831 0.0
H698 H 0.69141 0.56742 0.51568 0.0
H699 H 0.66601 0.50621 0.59097 0.0
H700 H 0.75729 0.68007 0.54621 0.0
H701 H 0.70097 0.7614 0.57415 0.0
H702 H 0.53733 0.54111 0.60136 0.0
H703 H 0.58864 0.56778 0.51644 0.0
C704 C 0.30015 0.26223 0.51768 0.0
C705 C 0.28627 0.28416 0.49664 0.0
C706 C 0.28118 0.24323 0.5374 0.0
C707 C 0.24763 0.24543 0.53672 0.0
H708 H 0.3259 0.26 0.51917 0.0
H709 H 0.29288 0.22695 0.55354 0.0
S710 S 0.19957 0.29719 0.48385 0.0
N711 N 0.23701 0.30581 0.47507 0.0
N712 N 0.20132 0.26996 0.51194 0.0
C713 C 0.23346 0.26694 0.51544 0.0
C714 C 0.25278 0.28633 0.49545 0.0
C715 C 0.78378 0.53095 0.74262 0.0
C716 C 0.75039 0.53202 0.74622 0.0
C717 C 0.80272 0.51172 0.7622 0.0
C718 C 0.78895 0.49278 0.78602 0.0
H719 H 0.79538 0.54541 0.7248 0.0
H720 H 0.82838 0.51198 0.75892 0.0
S721 S 0.70237 0.485 0.80312 0.0
N722 N 0.70417 0.51127 0.77415 0.0
N723 N 0.73971 0.47489 0.81079 0.0
C724 C 0.75553 0.49325 0.78949 0.0
C725 C 0.73627 0.51292 0.76963 0.0
C726 C 0.50781 0.03615 0.03025 0.0
C727 C 0.54051 0.02978 0.03468 0.0
C728 C 0.48886 0.01678 1.01074 0.0
C729 C 0.50193 0.99036 0.99493 0.0
H730 H 0.49669 0.056 0.04231 0.0
H731 H 0.46369 0.02229 1.00834 0.0
S732 S 0.58686 0.96522 0.99638 0.0
N733 N 0.58555 0.99636 0.0202 0.0
N734 N 0.54995 0.95997 0.98352 0.0
C735 C 0.5347 0.98405 0.99875 0.0
C736 C 0.55398 1.00375 0.01861 0.0
C737 C 1.00696 0.75271 0.28973 0.0
C738 C 0.99947 0.78418 0.28136 0.0
C739 C 0.02622 0.73372 0.27021 0.0
C740 C 0.03885 0.74556 0.24168 0.0
H741 H 0.99824 0.74279 0.31179 0.0
H742 H 0.03171 0.70976 0.27774 0.0
S743 S 0.02431 0.82529 0.20757 0.0
N744 N 1.00462 0.82557 0.24152 0.0
N745 N 0.04124 0.78998 0.20512 0.0
C746 C 0.03124 0.77677 0.23278 0.0
C747 C 1.01147 0.79605 0.25255 0.0
C748 C 0.25951 1.00404 0.79272 0.0
C749 C 0.29154 0.99743 0.78502 0.0
C750 C 0.24049 0.0231 0.77303 0.0
C751 C 0.25269 0.03601 0.74476 0.0
H752 H 0.24913 0.9946 0.81427 0.0
H753 H 0.21589 0.02741 0.77978 0.0
S754 S 0.33503 0.02587 0.71384 0.0
N755 N 0.33453 1.00509 0.74703 0.0
N756 N 0.29896 0.04136 0.71035 0.0
C757 C 0.28469 0.02967 0.73683 0.0
C758 C 0.30408 1.01033 0.75689 0.0
C759 C 1.01487 0.48278 0.02353 0.0
C760 C 0.99975 0.4956 0.99659 0.0
C761 C 0.03418 0.50162 0.04321 0.0
C762 C 0.03903 0.53399 0.03669 0.0
H763 H 1.01138 0.45808 0.02971 0.0
H764 H 0.04507 0.49088 0.06391 0.0
S765 S 1.00725 0.57831 0.96752 0.0
N766 N 0.99258 0.54218 0.96335 0.0
N767 N 0.02875 0.57759 1.00041 0.0
C768 C 0.02449 0.54698 1.00957 0.0
C769 C 1.00489 0.5278 0.98951 0.0
C770 C 0.49105 0.27325 0.25546 0.0
C771 C 0.49969 0.28105 0.28673 0.0
C772 C 0.51075 0.254 0.23662 0.0
C773 C 0.53961 0.24149 0.24855 0.0
H774 H 0.46908 0.28243 0.24539 0.0
H775 H 0.50348 0.24922 0.2124 0.0
S776 S 0.57115 0.25288 0.33027 0.0
N777 N 0.53795 0.27404 0.32943 0.0
N778 N 0.57453 0.23685 0.29463 0.0
C779 C 0.54806 0.24868 0.28016 0.0
C780 C 0.5282 0.26868 0.2991 0.0
C781 C 0.80331 0.76116 0.51698 0.0
C782 C 0.78934 0.78287 0.49578 0.0
C783 C 0.7844 0.74204 0.53664 0.0
C784 C 0.75083 0.74387 0.53572 0.0
H785 H 0.82907 0.75923 0.51867 0.0
H786 H 0.79616 0.72597 0.55295 0.0
S787 S 0.70261 0.79488 0.48226 0.0
N788 N 0.74002 0.8039 0.47375 0.0
N789 N 0.70444 0.76777 0.51045 0.0
C790 C 0.73659 0.76512 0.51422 0.0
C791 C 0.75584 0.78465 0.49431 0.0
C792 C 0.2673 0.51136 0.23533 0.0
C793 C 0.25333 0.53914 0.2476 0.0
C794 C 0.28604 0.49155 0.25454 0.0
C795 C 0.29179 0.49902 0.28661 0.0
H796 H 0.26326 0.50458 0.21083 0.0
H797 H 0.29623 0.4703 0.24417 0.0
S798 S 0.26119 0.5694 0.32999 0.0
N799 N 0.24703 0.57346 0.29361 0.0
N800 N 0.28202 0.53611 0.32979 0.0
C801 C 0.27824 0.52691 0.29908 0.0
C802 C 0.25902 0.54696 0.27957 0.0
C803 C 0.77906 0.28981 0.02399 0.0
C804 C 0.78588 0.28171 0.99231 0.0
C805 C 0.75988 0.27029 0.04297 0.0
C806 C 0.74672 0.24198 0.03094 0.0
H807 H 0.78892 0.31125 0.0343 0.0
H808 H 0.7556 0.27727 0.06736 0.0
S809 S 0.75539 0.21139 0.94875 0.0
N810 N 0.77682 0.24428 0.94928 0.0
N811 N 0.74057 0.20767 0.98486 0.0
C812 C 0.75308 0.23379 0.99918 0.0
C813 C 0.77269 0.25363 0.97989 0.0
C814 C 0.78352 0.02492 0.29176 0.0
C815 C 0.79149 0.99379 0.28258 0.0
C816 C 0.76474 0.04438 0.27226 0.0
C817 C 0.75327 0.03354 0.24275 0.0
H818 H 0.7916 0.03425 0.31436 0.0
H819 H 0.7594 0.06824 0.28027 0.0
S820 S 0.76744 0.95392 0.20765 0.0
N821 N 0.78695 0.95319 0.24173 0.0
N822 N 0.75081 0.98938 0.20556 0.0
C823 C 0.76103 1.00243 0.2333 0.0
C824 C 0.78025 0.98264 0.25311 0.0
C825 C 0.9869 1.00874 0.52296 0.0
C826 C 1.0006 0.99079 0.4983 0.0
C827 C 1.00581 0.02808 0.54254 0.0
C828 C 0.03894 0.03055 0.53767 0.0
H829 H 0.96139 1.0077 0.52719 0.0
H830 H 0.99439 0.04167 0.5612 0.0
S831 S 0.08634 0.98839 0.47646 0.0
N832 N 0.04924 0.97648 0.47027 0.0
N833 N 0.08474 1.01317 0.50684 0.0
C834 C 0.05292 1.01267 0.51318 0.0
C835 C 0.03376 0.99267 0.49356 0.0
C836 C 0.9966 0.25239 0.78465 0.0
C837 C 1.0017 0.28539 0.78639 0.0
C838 C 1.01584 0.23294 0.76555 0.0
C839 C 0.04106 0.24572 0.74768 0.0
H840 H 0.97775 0.24143 0.79839 0.0
H841 H 1.01118 0.20766 0.76504 0.0
S842 S 0.06314 0.33068 0.74199 0.0
N843 N 0.03285 0.33009 0.76706 0.0
N844 N 0.06937 0.29335 0.73173 0.0
C845 C 0.04637 0.2786 0.749 0.0
C846 C 0.02663 0.29847 0.76822 0.0
C847 C 0.51598 0.73202 0.76072 0.0
C848 C 0.54171 0.74506 0.74379 0.0
C849 C 0.49644 0.75111 0.77986 0.0
C850 C 0.50172 0.78402 0.78257 0.0
H851 H 0.51116 0.70679 0.75944 0.0
H852 H 0.47722 0.73991 0.79288 0.0
S853 S 0.5646 0.82995 0.74089 0.0
N854 N 0.5708 0.79285 0.72982 0.0
N855 N 0.53366 0.82897 0.76516 0.0
C856 C 0.52717 0.79738 0.76534 0.0
C857 C 0.54724 0.77785 0.7461 0.0
C858 C 0.2687 0.76467 0.04439 0.0
C859 C 0.25113 0.73935 0.03131 0.0
C860 C 0.28758 0.78431 0.02522 0.0
C861 C 0.28978 0.77927 0.99226 0.0
H862 H 0.26749 0.76965 0.0696 0.0
H863 H 0.30077 0.80345 0.03636 0.0
S864 S 0.24878 0.71596 0.94636 0.0
N865 N 0.23772 0.70984 0.98345 0.0
N866 N 0.27247 0.74726 0.94732 0.0
C867 C 0.27242 0.75396 0.97889 0.0
C868 C 0.25324 0.73394 0.99842 0.0
C869 C 0.50837 0.52124 0.4884 0.0
C870 C 0.49991 0.49036 0.49788 0.0
C871 C 0.52775 0.54055 0.50746 0.0
C872 C 0.53972 0.52978 0.53678 0.0
H873 H 0.50019 0.53055 0.46585 0.0
H874 H 0.5332 0.56426 0.4992 0.0
S875 S 0.52471 0.45076 0.57264 0.0
N876 N 0.50438 0.45017 0.53904 0.0
N877 N 0.5422 0.48583 0.57409 0.0
C878 C 0.53159 0.49888 0.54653 0.0
C879 C 0.51148 0.47932 0.52726 0.0
loop_
_geom_bond_atom_site_label_1
_geom_bond_atom_site_label_2
_geom_bond_distance
_geom_bond_site_symmetry_2
_ccdc_geom_bond_type
Li0 N17 1.990 . S
Li0 O60 1.956 . S
Li0 O61 1.970 . S
Li0 O62 1.961 . S
Li1 N25 1.990 . S
Li1 O60 1.970 . S
Li1 O61 1.956 . S
Li1 O63 1.961 . S
Li2 N47 1.990 . S
Li2 O60 1.961 . S
Li2 O62 1.956 . S
Li2 O63 1.970 . S
Li3 N53 1.990 . S
Li3 O61 1.961 . S
Li3 O62 1.970 . S
Li3 O63 1.956 . S
C4 C6 1.348 . S
C4 C7 1.356 . S
C4 O60 1.325 . S
N5 C8 1.314 . S
N5 C9 1.279 . S
C6 C4 1.348 . S
C6 C8 1.353 . S
C6 H64 0.929 . S
C7 C4 1.356 . S
C7 C9 1.358 . S
C7 H65 0.930 . S
C8 N5 1.314 . S
C8 C6 1.353 . S
C8 H66 0.930 . S
C9 N5 1.279 . S
C9 C7 1.358 . S
C9 H67 0.930 . S
C10 C13 1.348 . S
C10 C14 1.356 . S
C10 O61 1.325 . S
C11 N12 1.279 . S
C11 C14 1.358 . S
C11 H68 0.930 . S
N12 C11 1.279 . S
N12 C15 1.314 . S
C13 C10 1.348 . S
C13 C15 1.353 . S
C13 H69 0.929 . S
C14 C10 1.356 . S
C14 C11 1.358 . S
C14 H70 0.930 . S
C15 N12 1.314 . S
C15 C13 1.353 . S
C15 H71 0.930 . S
C16 N17 1.314 . S
C16 C21 1.353 . S
C16 H22 0.930 . S
N17 Li0 1.990 . S
N17 C16 1.314 . S
N17 C19 1.279 . S
C18 C19 1.358 . S
C18 C20 1.356 . S
C18 H72 0.930 . S
C19 N17 1.279 . S
C19 C18 1.358 . S
C19 H23 0.930 . S
C20 C18 1.356 . S
C20 C21 1.348 . S
C21 C16 1.353 . S
C21 C20 1.348 . S
C21 H73 0.929 . S
H22 C16 0.930 . S
H23 C19 0.930 . S
C24 N25 1.314 . S
C24 C26 1.353 . S
C24 H30 0.930 . S
N25 Li1 1.990 . S
N25 C24 1.314 . S
N25 C28 1.279 . S
C26 C24 1.353 . S
C26 C29 1.348 . S
C26 H74 0.929 . S
C27 C28 1.358 . S
C27 C29 1.356 . S
C27 H75 0.930 . S
C28 N25 1.279 . S
C28 C27 1.358 . S
C28 H31 0.930 . S
C29 C26 1.348 . S
C29 C27 1.356 . S
H30 C24 0.930 . S
H31 C28 0.930 . S
C32 C34 1.348 . S
C32 C35 1.356 . S
C32 O62 1.325 . S
N33 C36 1.314 . S
N33 C37 1.279 . S
C34 C32 1.348 . S
C34 C36 1.353 . S
C34 H76 0.929 . S
C35 C32 1.356 . S
C35 C37 1.358 . S
C35 H77 0.930 . S
C36 N33 1.314 . S
C36 C34 1.353 . S
C36 H78 0.930 . S
C37 N33 1.279 . S
C37 C35 1.358 . S
C37 H79 0.930 . S
C38 C39 1.348 . S
C38 C40 1.356 . S
C38 O63 1.325 . S
C39 C38 1.348 . S
C39 C41 1.353 . S
C39 H80 0.929 . S
C40 C38 1.356 . S
C40 C42 1.358 . S
C40 H81 0.930 . S
C41 C39 1.353 . S
C41 N43 1.314 . S
C41 H82 0.930 . S
C42 C40 1.358 . S
C42 N43 1.279 . S
C42 H83 0.930 . S
N43 C41 1.314 . S
N43 C42 1.279 . S
C44 C46 1.353 . S
C44 N47 1.314 . S
C44 H50 0.930 . S
C45 N47 1.279 . S
C45 C48 1.358 . S
C45 H51 0.930 . S
C46 C44 1.353 . S
C46 C49 1.348 . S
C46 H84 0.929 . S
N47 Li2 1.990 . S
N47 C44 1.314 . S
N47 C45 1.279 . S
C48 C45 1.358 . S
C48 C49 1.356 . S
C48 H85 0.930 . S
C49 C46 1.348 . S
C49 C48 1.356 . S
H50 C44 0.930 . S
H51 C45 0.930 . S
C52 N53 1.314 . S
C52 C54 1.353 . S
C52 H58 0.930 . S
N53 Li3 1.990 . S
N53 C52 1.314 . S
N53 C56 1.279 . S
C54 C52 1.353 . S
C54 C57 1.348 . S
C54 H86 0.929 . S
C55 C56 1.358 . S
C55 C57 1.356 . S
C55 H87 0.930 . S
C56 N53 1.279 . S
C56 C55 1.358 . S
C56 H59 0.930 . S
C57 C54 1.348 . S
C57 C55 1.356 . S
H58 C52 0.930 . S
H59 C56 0.930 . S
O60 Li0 1.956 . S
O60 Li1 1.970 . S
O60 Li2 1.961 . S
O60 C4 1.325 . S
O61 Li0 1.970 . S
O61 Li1 1.956 . S
O61 Li3 1.961 . S
O61 C10 1.325 . S
O62 Li0 1.961 . S
O62 Li2 1.956 . S
O62 Li3 1.970 . S
O62 C32 1.325 . S
O63 Li1 1.961 . S
O63 Li2 1.970 . S
O63 Li3 1.956 . S
O63 C38 1.325 . S
H64 C6 0.929 . S
H65 C7 0.930 . S
H66 C8 0.930 . S
H67 C9 0.930 . S
H68 C11 0.930 . S
H69 C13 0.929 . S
H70 C14 0.930 . S
H71 C15 0.930 . S
H72 C18 0.930 . S
H73 C21 0.929 . S
H74 C26 0.929 . S
H75 C27 0.930 . S
H76 C34 0.929 . S
H77 C35 0.930 . S
H78 C36 0.930 . S
H79 C37 0.930 . S
H80 C39 0.929 . S
H81 C40 0.930 . S
H82 C41 0.930 . S
H83 C42 0.930 . S
H84 C46 0.929 . S
H85 C48 0.930 . S
H86 C54 0.929 . S
H87 C55 0.930 . S
Li88 N105 1.990 . S
Li88 O148 1.956 . S
Li88 O149 1.970 . S
Li88 O150 1.961 . S
Li89 N113 1.990 . S
Li89 O148 1.970 . S
Li89 O149 1.956 . S
Li89 O151 1.961 . S
Li90 N135 1.990 . S
Li90 O148 1.961 . S
Li90 O150 1.956 . S
Li90 O151 1.970 . S
Li91 N141 1.990 . S
Li91 O149 1.961 . S
Li91 O150 1.970 . S
Li91 O151 1.956 . S
C92 C94 1.348 . S
C92 C95 1.356 . S
C92 O148 1.325 . S
N93 C96 1.314 . S
N93 C97 1.279 . S
C94 C92 1.348 . S
C94 C96 1.353 . S
C94 H152 0.929 . S
C95 C92 1.356 . S
C95 C97 1.358 . S
C95 H153 0.930 . S
C96 N93 1.314 . S
C96 C94 1.353 . S
C96 H154 0.930 . S
C97 N93 1.279 . S
C97 C95 1.358 . S
C97 H155 0.930 . S
C98 C101 1.348 . S
C98 C102 1.356 . S
C98 O149 1.325 . S
C99 N100 1.279 . S
C99 C102 1.358 . S
C99 H156 0.930 . S
N100 C99 1.279 . S
N100 C103 1.314 . S
C101 C98 1.348 . S
C101 C103 1.353 . S
C101 H157 0.929 . S
C102 C98 1.356 . S
C102 C99 1.358 . S
C102 H158 0.930 . S
C103 N100 1.314 . S
C103 C101 1.353 . S
C103 H159 0.930 . S
C104 N105 1.314 . S
C104 C109 1.353 . S
C104 H110 0.930 . S
N105 Li88 1.990 . S
N105 C104 1.314 . S
N105 C107 1.279 . S
C106 C107 1.358 . S
C106 C108 1.356 . S
C106 H160 0.930 . S
C107 N105 1.279 . S
C107 C106 1.358 . S
C107 H111 0.930 . S
C108 C106 1.356 . S
C108 C109 1.348 . S
C109 C104 1.353 . S
C109 C108 1.348 . S
C109 H161 0.929 . S
H110 C104 0.930 . S
H111 C107 0.930 . S
C112 N113 1.314 . S
C112 C114 1.353 . S
C112 H118 0.930 . S
N113 Li89 1.990 . S
N113 C112 1.314 . S
N113 C116 1.279 . S
C114 C112 1.353 . S
C114 C117 1.348 . S
C114 H162 0.929 . S
C115 C116 1.358 . S
C115 C117 1.356 . S
C115 H163 0.930 . S
C116 N113 1.279 . S
C116 C115 1.358 . S
C116 H119 0.930 . S
C117 C114 1.348 . S
C117 C115 1.356 . S
H118 C112 0.930 . S
H119 C116 0.930 . S
C120 C122 1.348 . S
C120 C123 1.356 . S
C120 O150 1.325 . S
N121 C124 1.314 . S
N121 C125 1.279 . S
C122 C120 1.348 . S
C122 C124 1.353 . S
C122 H164 0.929 . S
C123 C120 1.356 . S
C123 C125 1.358 . S
C123 H165 0.930 . S
C124 N121 1.314 . S
C124 C122 1.353 . S
C124 H166 0.930 . S
C125 N121 1.279 . S
C125 C123 1.358 . S
C125 H167 0.930 . S
C126 C127 1.348 . S
C126 C128 1.356 . S
C126 O151 1.325 . S
C127 C126 1.348 . S
C127 C129 1.353 . S
C127 H168 0.929 . S
C128 C126 1.356 . S
C128 C130 1.358 . S
C128 H169 0.930 . S
C129 C127 1.353 . S
C129 N131 1.314 . S
C129 H170 0.930 . S
C130 C128 1.358 . S
C130 N131 1.279 . S
C130 H171 0.930 . S
N131 C129 1.314 . S
N131 C130 1.279 . S
C132 C134 1.353 . S
C132 N135 1.314 . S
C132 H138 0.930 . S
C133 N135 1.279 . S
C133 C136 1.358 . S
C133 H139 0.930 . S
C134 C132 1.353 . S
C134 C137 1.348 . S
C134 H172 0.929 . S
N135 Li90 1.990 . S
N135 C132 1.314 . S
N135 C133 1.279 . S
C136 C133 1.358 . S
C136 C137 1.356 . S
C136 H173 0.930 . S
C137 C134 1.348 . S
C137 C136 1.356 . S
H138 C132 0.930 . S
H139 C133 0.930 . S
C140 N141 1.314 . S
C140 C142 1.353 . S
C140 H146 0.930 . S
N141 Li91 1.990 . S
N141 C140 1.314 . S
N141 C144 1.279 . S
C142 C140 1.353 . S
C142 C145 1.348 . S
C142 H174 0.929 . S
C143 C144 1.358 . S
C143 C145 1.356 . S
C143 H175 0.930 . S
C144 N141 1.279 . S
C144 C143 1.358 . S
C144 H147 0.930 . S
C145 C142 1.348 . S
C145 C143 1.356 . S
H146 C140 0.930 . S
H147 C144 0.930 . S
O148 Li88 1.956 . S
O148 Li89 1.970 . S
O148 Li90 1.961 . S
O148 C92 1.325 . S
O149 Li88 1.970 . S
O149 Li89 1.956 . S
O149 Li91 1.961 . S
O149 C98 1.325 . S
O150 Li88 1.961 . S
O150 Li90 1.956 . S
O150 Li91 1.970 . S
O150 C120 1.325 . S
O151 Li89 1.961 . S
O151 Li90 1.970 . S
O151 Li91 1.956 . S
O151 C126 1.325 . S
H152 C94 0.929 . S
H153 C95 0.930 . S
H154 C96 0.930 . S
H155 C97 0.930 . S
H156 C99 0.930 . S
H157 C101 0.929 . S
H158 C102 0.930 . S
H159 C103 0.930 . S
H160 C106 0.930 . S
H161 C109 0.929 . S
H162 C114 0.929 . S
H163 C115 0.930 . S
H164 C122 0.929 . S
H165 C123 0.930 . S
H166 C124 0.930 . S
H167 C125 0.930 . S
H168 C127 0.929 . S
H169 C128 0.930 . S
H170 C129 0.930 . S
H171 C130 0.930 . S
H172 C134 0.929 . S
H173 C136 0.930 . S
H174 C142 0.929 . S
H175 C143 0.930 . S
Li176 N193 1.990 . S
Li176 O236 1.956 . S
Li176 O237 1.970 . S
Li176 O238 1.961 . S
Li177 N201 1.990 . S
Li177 O236 1.970 . S
Li177 O237 1.956 . S
Li177 O239 1.961 . S
Li178 N223 1.990 . S
Li178 O236 1.961 . S
Li178 O238 1.956 . S
Li178 O239 1.970 . S
Li179 N229 1.990 . S
Li179 O237 1.961 . S
Li179 O238 1.970 . S
Li179 O239 1.956 . S
C180 C182 1.348 . S
C180 C183 1.356 . S
C180 O236 1.325 . S
N181 C184 1.314 . S
N181 C185 1.279 . S
C182 C180 1.348 . S
C182 C184 1.353 . S
C182 H240 0.929 . S
C183 C180 1.356 . S
C183 C185 1.358 . S
C183 H241 0.930 . S
C184 N181 1.314 . S
C184 C182 1.353 . S
C184 H242 0.930 . S
C185 N181 1.279 . S
C185 C183 1.358 . S
C185 H243 0.930 . S
C186 C189 1.348 . S
C186 C190 1.356 . S
C186 O237 1.325 . S
C187 N188 1.279 . S
C187 C190 1.358 . S
C187 H244 0.930 . S
N188 C187 1.279 . S
N188 C191 1.314 . S
C189 C186 1.348 . S
C189 C191 1.353 . S
C189 H245 0.929 . S
C190 C186 1.356 . S
C190 C187 1.358 . S
C190 H246 0.930 . S
C191 N188 1.314 . S
C191 C189 1.353 . S
C191 H247 0.930 . S
C192 N193 1.314 . S
C192 C197 1.353 . S
C192 H198 0.930 . S
N193 Li176 1.990 . S
N193 C192 1.314 . S
N193 C195 1.279 . S
C194 C195 1.358 . S
C194 C196 1.356 . S
C194 H248 0.930 . S
C195 N193 1.279 . S
C195 C194 1.358 . S
C195 H199 0.930 . S
C196 C194 1.356 . S
C196 C197 1.348 . S
C197 C192 1.353 . S
C197 C196 1.348 . S
C197 H249 0.929 . S
H198 C192 0.930 . S
H199 C195 0.930 . S
C200 N201 1.314 . S
C200 C202 1.353 . S
C200 H206 0.930 . S
N201 Li177 1.990 . S
N201 C200 1.314 . S
N201 C204 1.279 . S
C202 C200 1.353 . S
C202 C205 1.348 . S
C202 H250 0.929 . S
C203 C204 1.358 . S
C203 C205 1.356 . S
C203 H251 0.930 . S
C204 N201 1.279 . S
C204 C203 1.358 . S
C204 H207 0.930 . S
C205 C202 1.348 . S
C205 C203 1.356 . S
H206 C200 0.930 . S
H207 C204 0.930 . S
C208 C210 1.348 . S
C208 C211 1.356 . S
C208 O238 1.325 . S
N209 C212 1.314 . S
N209 C213 1.279 . S
C210 C208 1.348 . S
C210 C212 1.353 . S
C210 H252 0.929 . S
C211 C208 1.356 . S
C211 C213 1.358 . S
C211 H253 0.930 . S
C212 N209 1.314 . S
C212 C210 1.353 . S
C212 H254 0.930 . S
C213 N209 1.279 . S
C213 C211 1.358 . S
C213 H255 0.930 . S
C214 C215 1.348 . S
C214 C216 1.356 . S
C214 O239 1.325 . S
C215 C214 1.348 . S
C215 C217 1.353 . S
C215 H256 0.929 . S
C216 C214 1.356 . S
C216 C218 1.358 . S
C216 H257 0.930 . S
C217 C215 1.353 . S
C217 N219 1.314 . S
C217 H258 0.930 . S
C218 C216 1.358 . S
C218 N219 1.279 . S
C218 H259 0.930 . S
N219 C217 1.314 . S
N219 C218 1.279 . S
C220 C222 1.353 . S
C220 N223 1.314 . S
C220 H226 0.930 . S
C221 N223 1.279 . S
C221 C224 1.358 . S
C221 H227 0.930 . S
C222 C220 1.353 . S
C222 C225 1.348 . S
C222 H260 0.929 . S
N223 Li178 1.990 . S
N223 C220 1.314 . S
N223 C221 1.279 . S
C224 C221 1.358 . S
C224 C225 1.356 . S
C224 H261 0.930 . S
C225 C222 1.348 . S
C225 C224 1.356 . S
H226 C220 0.930 . S
H227 C221 0.930 . S
C228 N229 1.314 . S
C228 C230 1.353 . S
C228 H234 0.930 . S
N229 Li179 1.990 . S
N229 C228 1.314 . S
N229 C232 1.279 . S
C230 C228 1.353 . S
C230 C233 1.348 . S
C230 H262 0.929 . S
C231 C232 1.358 . S
C231 C233 1.356 . S
C231 H263 0.930 . S
C232 N229 1.279 . S
C232 C231 1.358 . S
C232 H235 0.930 . S
C233 C230 1.348 . S
C233 C231 1.356 . S
H234 C228 0.930 . S
H235 C232 0.930 . S
O236 Li176 1.956 . S
O236 Li177 1.970 . S
O236 Li178 1.961 . S
O236 C180 1.325 . S
O237 Li176 1.970 . S
O237 Li177 1.956 . S
O237 Li179 1.961 . S
O237 C186 1.325 . S
O238 Li176 1.961 . S
O238 Li178 1.956 . S
O238 Li179 1.970 . S
O238 C208 1.325 . S
O239 Li177 1.961 . S
O239 Li178 1.970 . S
O239 Li179 1.956 . S
O239 C214 1.325 . S
H240 C182 0.929 . S
H241 C183 0.930 . S
H242 C184 0.930 . S
H243 C185 0.930 . S
H244 C187 0.930 . S
H245 C189 0.929 . S
H246 C190 0.930 . S
H247 C191 0.930 . S
H248 C194 0.930 . S
H249 C197 0.929 . S
H250 C202 0.929 . S
H251 C203 0.930 . S
H252 C210 0.929 . S
H253 C211 0.930 . S
H254 C212 0.930 . S
H255 C213 0.930 . S
H256 C215 0.929 . S
H257 C216 0.930 . S
H258 C217 0.930 . S
H259 C218 0.930 . S
H260 C222 0.929 . S
H261 C224 0.930 . S
H262 C230 0.929 . S
H263 C231 0.930 . S
Li264 N281 1.990 . S
Li264 O324 1.956 . S
Li264 O325 1.970 . S
Li264 O326 1.961 . S
Li265 N289 1.990 . S
Li265 O324 1.970 . S
Li265 O325 1.956 . S
Li265 O327 1.961 . S
Li266 N311 1.990 . S
Li266 O324 1.961 . S
Li266 O326 1.956 . S
Li266 O327 1.970 . S
Li267 N317 1.990 . S
Li267 O325 1.961 . S
Li267 O326 1.970 . S
Li267 O327 1.956 . S
C268 C270 1.348 . S
C268 C271 1.356 . S
C268 O324 1.325 . S
N269 C272 1.314 . S
N269 C273 1.279 . S
C270 C268 1.348 . S
C270 C272 1.353 . S
C270 H328 0.929 . S
C271 C268 1.356 . S
C271 C273 1.358 . S
C271 H329 0.930 . S
C272 N269 1.314 . S
C272 C270 1.353 . S
C272 H330 0.930 . S
C273 N269 1.279 . S
C273 C271 1.358 . S
C273 H331 0.930 . S
C274 C277 1.348 . S
C274 C278 1.356 . S
C274 O325 1.325 . S
C275 N276 1.279 . S
C275 C278 1.358 . S
C275 H332 0.930 . S
N276 C275 1.279 . S
N276 C279 1.314 . S
C277 C274 1.348 . S
C277 C279 1.353 . S
C277 H333 0.929 . S
C278 C274 1.356 . S
C278 C275 1.358 . S
C278 H334 0.930 . S
C279 N276 1.314 . S
C279 C277 1.353 . S
C279 H335 0.930 . S
C280 N281 1.314 . S
C280 C285 1.353 . S
C280 H286 0.930 . S
N281 Li264 1.990 . S
N281 C280 1.314 . S
N281 C283 1.279 . S
C282 C283 1.358 . S
C282 C284 1.356 . S
C282 H336 0.930 . S
C283 N281 1.279 . S
C283 C282 1.358 . S
C283 H287 0.930 . S
C284 C282 1.356 . S
C284 C285 1.348 . S
C285 C280 1.353 . S
C285 C284 1.348 . S
C285 H337 0.929 . S
H286 C280 0.930 . S
H287 C283 0.930 . S
C288 N289 1.314 . S
C288 C290 1.353 . S
C288 H294 0.930 . S
N289 Li265 1.990 . S
N289 C288 1.314 . S
N289 C292 1.279 . S
C290 C288 1.353 . S
C290 C293 1.348 . S
C290 H338 0.929 . S
C291 C292 1.358 . S
C291 C293 1.356 . S
C291 H339 0.930 . S
C292 N289 1.279 . S
C292 C291 1.358 . S
C292 H295 0.930 . S
C293 C290 1.348 . S
C293 C291 1.356 . S
H294 C288 0.930 . S
H295 C292 0.930 . S
C296 C298 1.348 . S
C296 C299 1.356 . S
C296 O326 1.325 . S
N297 C300 1.314 . S
N297 C301 1.279 . S
C298 C296 1.348 . S
C298 C300 1.353 . S
C298 H340 0.929 . S
C299 C296 1.356 . S
C299 C301 1.358 . S
C299 H341 0.930 . S
C300 N297 1.314 . S
C300 C298 1.353 . S
C300 H342 0.930 . S
C301 N297 1.279 . S
C301 C299 1.358 . S
C301 H343 0.930 . S
C302 C303 1.348 . S
C302 C304 1.356 . S
C302 O327 1.325 . S
C303 C302 1.348 . S
C303 C305 1.353 . S
C303 H344 0.929 . S
C304 C302 1.356 . S
C304 C306 1.358 . S
C304 H345 0.930 . S
C305 C303 1.353 . S
C305 N307 1.314 . S
C305 H346 0.930 . S
C306 C304 1.358 . S
C306 N307 1.279 . S
C306 H347 0.930 . S
N307 C305 1.314 . S
N307 C306 1.279 . S
C308 C310 1.353 . S
C308 N311 1.314 . S
C308 H314 0.930 . S
C309 N311 1.279 . S
C309 C312 1.358 . S
C309 H315 0.930 . S
C310 C308 1.353 . S
C310 C313 1.348 . S
C310 H348 0.929 . S
N311 Li266 1.990 . S
N311 C308 1.314 . S
N311 C309 1.279 . S
C312 C309 1.358 . S
C312 C313 1.356 . S
C312 H349 0.930 . S
C313 C310 1.348 . S
C313 C312 1.356 . S
H314 C308 0.930 . S
H315 C309 0.930 . S
C316 N317 1.314 . S
C316 C318 1.353 . S
C316 H322 0.930 . S
N317 Li267 1.990 . S
N317 C316 1.314 . S
N317 C320 1.279 . S
C318 C316 1.353 . S
C318 C321 1.348 . S
C318 H350 0.929 . S
C319 C320 1.358 . S
C319 C321 1.356 . S
C319 H351 0.930 . S
C320 N317 1.279 . S
C320 C319 1.358 . S
C320 H323 0.930 . S
C321 C318 1.348 . S
C321 C319 1.356 . S
H322 C316 0.930 . S
H323 C320 0.930 . S
O324 Li264 1.956 . S
O324 Li265 1.970 . S
O324 Li266 1.961 . S
O324 C268 1.325 . S
O325 Li264 1.970 . S
O325 Li265 1.956 . S
O325 Li267 1.961 . S
O325 C274 1.325 . S
O326 Li264 1.961 . S
O326 Li266 1.956 . S
O326 Li267 1.970 . S
O326 C296 1.325 . S
O327 Li265 1.961 . S
O327 Li266 1.970 . S
O327 Li267 1.956 . S
O327 C302 1.325 . S
H328 C270 0.929 . S
H329 C271 0.930 . S
H330 C272 0.930 . S
H331 C273 0.930 . S
H332 C275 0.930 . S
H333 C277 0.929 . S
H334 C278 0.930 . S
H335 C279 0.930 . S
H336 C282 0.930 . S
H337 C285 0.929 . S
H338 C290 0.929 . S
H339 C291 0.930 . S
H340 C298 0.929 . S
H341 C299 0.930 . S
H342 C300 0.930 . S
H343 C301 0.930 . S
H344 C303 0.929 . S
H345 C304 0.930 . S
H346 C305 0.930 . S
H347 C306 0.930 . S
H348 C310 0.929 . S
H349 C312 0.930 . S
H350 C318 0.929 . S
H351 C319 0.930 . S
Li352 N369 1.990 . S
Li352 O412 1.956 . S
Li352 O413 1.970 . S
Li352 O414 1.961 . S
Li353 N377 1.990 . S
Li353 O412 1.970 . S
Li353 O413 1.956 . S
Li353 O415 1.961 . S
Li354 N399 1.990 . S
Li354 O412 1.961 . S
Li354 O414 1.956 . S
Li354 O415 1.970 . S
Li355 N405 1.990 . S
Li355 O413 1.961 . S
Li355 O414 1.970 . S
Li355 O415 1.956 . S
C356 C358 1.348 . S
C356 C359 1.356 . S
C356 O412 1.325 . S
N357 C360 1.314 . S
N357 C361 1.279 . S
C358 C356 1.348 . S
C358 C360 1.353 . S
C358 H416 0.929 . S
C359 C356 1.356 . S
C359 C361 1.358 . S
C359 H417 0.930 . S
C360 N357 1.314 . S
C360 C358 1.353 . S
C360 H418 0.930 . S
C361 N357 1.279 . S
C361 C359 1.358 . S
C361 H419 0.930 . S
C362 C365 1.348 . S
C362 C366 1.356 . S
C362 O413 1.325 . S
C363 N364 1.279 . S
C363 C366 1.358 . S
C363 H420 0.930 . S
N364 C363 1.279 . S
N364 C367 1.314 . S
C365 C362 1.348 . S
C365 C367 1.353 . S
C365 H421 0.929 . S
C366 C362 1.356 . S
C366 C363 1.358 . S
C366 H422 0.930 . S
C367 N364 1.314 . S
C367 C365 1.353 . S
C367 H423 0.930 . S
C368 N369 1.314 . S
C368 C373 1.353 . S
C368 H374 0.930 . S
N369 Li352 1.990 . S
N369 C368 1.314 . S
N369 C371 1.279 . S
C370 C371 1.358 . S
C370 C372 1.356 . S
C370 H424 0.930 . S
C371 N369 1.279 . S
C371 C370 1.358 . S
C371 H375 0.930 . S
C372 C370 1.356 . S
C372 C373 1.348 . S
C373 C368 1.353 . S
C373 C372 1.348 . S
C373 H425 0.929 . S
H374 C368 0.930 . S
H375 C371 0.930 . S
C376 N377 1.314 . S
C376 C378 1.353 . S
C376 H382 0.930 . S
N377 Li353 1.990 . S
N377 C376 1.314 . S
N377 C380 1.279 . S
C378 C376 1.353 . S
C378 C381 1.348 . S
C378 H426 0.929 . S
C379 C380 1.358 . S
C379 C381 1.356 . S
C379 H427 0.930 . S
C380 N377 1.279 . S
C380 C379 1.358 . S
C380 H383 0.930 . S
C381 C378 1.348 . S
C381 C379 1.356 . S
H382 C376 0.930 . S
H383 C380 0.930 . S
C384 C386 1.348 . S
C384 C387 1.356 . S
C384 O414 1.325 . S
N385 C388 1.314 . S
N385 C389 1.279 . S
C386 C384 1.348 . S
C386 C388 1.353 . S
C386 H428 0.929 . S
C387 C384 1.356 . S
C387 C389 1.358 . S
C387 H429 0.930 . S
C388 N385 1.314 . S
C388 C386 1.353 . S
C388 H430 0.930 . S
C389 N385 1.279 . S
C389 C387 1.358 . S
C389 H431 0.930 . S
C390 C391 1.348 . S
C390 C392 1.356 . S
C390 O415 1.325 . S
C391 C390 1.348 . S
C391 C393 1.353 . S
C391 H432 0.929 . S
C392 C390 1.356 . S
C392 C394 1.358 . S
C392 H433 0.930 . S
C393 C391 1.353 . S
C393 N395 1.314 . S
C393 H434 0.930 . S
C394 C392 1.358 . S
C394 N395 1.279 . S
C394 H435 0.930 . S
N395 C393 1.314 . S
N395 C394 1.279 . S
C396 C398 1.353 . S
C396 N399 1.314 . S
C396 H402 0.930 . S
C397 N399 1.279 . S
C397 C400 1.358 . S
C397 H403 0.930 . S
C398 C396 1.353 . S
C398 C401 1.348 . S
C398 H436 0.929 . S
N399 Li354 1.990 . S
N399 C396 1.314 . S
N399 C397 1.279 . S
C400 C397 1.358 . S
C400 C401 1.356 . S
C400 H437 0.930 . S
C401 C398 1.348 . S
C401 C400 1.356 . S
H402 C396 0.930 . S
H403 C397 0.930 . S
C404 N405 1.314 . S
C404 C406 1.353 . S
C404 H410 0.930 . S
N405 Li355 1.990 . S
N405 C404 1.314 . S
N405 C408 1.279 . S
C406 C404 1.353 . S
C406 C409 1.348 . S
C406 H438 0.929 . S
C407 C408 1.358 . S
C407 C409 1.356 . S
C407 H439 0.930 . S
C408 N405 1.279 . S
C408 C407 1.358 . S
C408 H411 0.930 . S
C409 C406 1.348 . S
C409 C407 1.356 . S
H410 C404 0.930 . S
H411 C408 0.930 . S
O412 Li352 1.956 . S
O412 Li353 1.970 . S
O412 Li354 1.961 . S
O412 C356 1.325 . S
O413 Li352 1.970 . S
O413 Li353 1.956 . S
O413 Li355 1.961 . S
O413 C362 1.325 . S
O414 Li352 1.961 . S
O414 Li354 1.956 . S
O414 Li355 1.970 . S
O414 C384 1.325 . S
O415 Li353 1.961 . S
O415 Li354 1.970 . S
O415 Li355 1.956 . S
O415 C390 1.325 . S
H416 C358 0.929 . S
H417 C359 0.930 . S
H418 C360 0.930 . S
H419 C361 0.930 . S
H420 C363 0.930 . S
H421 C365 0.929 . S
H422 C366 0.930 . S
H423 C367 0.930 . S
H424 C370 0.930 . S
H425 C373 0.929 . S
H426 C378 0.929 . S
H427 C379 0.930 . S
H428 C386 0.929 . S
H429 C387 0.930 . S
H430 C388 0.930 . S
H431 C389 0.930 . S
H432 C391 0.929 . S
H433 C392 0.930 . S
H434 C393 0.930 . S
H435 C394 0.930 . S
H436 C398 0.929 . S
H437 C400 0.930 . S
H438 C406 0.929 . S
H439 C407 0.930 . S
Li440 N457 1.990 . S
Li440 O500 1.956 . S
Li440 O501 1.970 . S
Li440 O502 1.961 . S
Li441 N465 1.990 . S
Li441 O500 1.970 . S
Li441 O501 1.956 . S
Li441 O503 1.961 . S
Li442 N487 1.990 . S
Li442 O500 1.961 . S
Li442 O502 1.956 . S
Li442 O503 1.970 . S
Li443 N493 1.990 . S
Li443 O501 1.961 . S
Li443 O502 1.970 . S
Li443 O503 1.956 . S
C444 C446 1.348 . S
C444 C447 1.356 . S
C444 O500 1.325 . S
N445 C448 1.314 . S
N445 C449 1.279 . S
C446 C444 1.348 . S
C446 C448 1.353 . S
C446 H504 0.929 . S
C447 C444 1.356 . S
C447 C449 1.358 . S
C447 H505 0.930 . S
C448 N445 1.314 . S
C448 C446 1.353 . S
C448 H506 0.930 . S
C449 N445 1.279 . S
C449 C447 1.358 . S
C449 H507 0.930 . S
C450 C453 1.348 . S
C450 C454 1.356 . S
C450 O501 1.325 . S
C451 N452 1.279 . S
C451 C454 1.358 . S
C451 H508 0.930 . S
N452 C451 1.279 . S
N452 C455 1.314 . S
C453 C450 1.348 . S
C453 C455 1.353 . S
C453 H509 0.929 . S
C454 C450 1.356 . S
C454 C451 1.358 . S
C454 H510 0.930 . S
C455 N452 1.314 . S
C455 C453 1.353 . S
C455 H511 0.930 . S
C456 N457 1.314 . S
C456 C461 1.353 . S
C456 H462 0.930 . S
N457 Li440 1.990 . S
N457 C456 1.314 . S
N457 C459 1.279 . S
C458 C459 1.358 . S
C458 C460 1.356 . S
C458 H512 0.930 . S
C459 N457 1.279 . S
C459 C458 1.358 . S
C459 H463 0.930 . S
C460 C458 1.356 . S
C460 C461 1.348 . S
C461 C456 1.353 . S
C461 C460 1.348 . S
C461 H513 0.929 . S
H462 C456 0.930 . S
H463 C459 0.930 . S
C464 N465 1.314 . S
C464 C466 1.353 . S
C464 H470 0.930 . S
N465 Li441 1.990 . S
N465 C464 1.314 . S
N465 C468 1.279 . S
C466 C464 1.353 . S
C466 C469 1.348 . S
C466 H514 0.929 . S
C467 C468 1.358 . S
C467 C469 1.356 . S
C467 H515 0.930 . S
C468 N465 1.279 . S
C468 C467 1.358 . S
C468 H471 0.930 . S
C469 C466 1.348 . S
C469 C467 1.356 . S
H470 C464 0.930 . S
H471 C468 0.930 . S
C472 C474 1.348 . S
C472 C475 1.356 . S
C472 O502 1.325 . S
N473 C476 1.314 . S
N473 C477 1.279 . S
C474 C472 1.348 . S
C474 C476 1.353 . S
C474 H516 0.929 . S
C475 C472 1.356 . S
C475 C477 1.358 . S
C475 H517 0.930 . S
C476 N473 1.314 . S
C476 C474 1.353 . S
C476 H518 0.930 . S
C477 N473 1.279 . S
C477 C475 1.358 . S
C477 H519 0.930 . S
C478 C479 1.348 . S
C478 C480 1.356 . S
C478 O503 1.325 . S
C479 C478 1.348 . S
C479 C481 1.353 . S
C479 H520 0.929 . S
C480 C478 1.356 . S
C480 C482 1.358 . S
C480 H521 0.930 . S
C481 C479 1.353 . S
C481 N483 1.314 . S
C481 H522 0.930 . S
C482 C480 1.358 . S
C482 N483 1.279 . S
C482 H523 0.930 . S
N483 C481 1.314 . S
N483 C482 1.279 . S
C484 C486 1.353 . S
C484 N487 1.314 . S
C484 H490 0.930 . S
C485 N487 1.279 . S
C485 C488 1.358 . S
C485 H491 0.930 . S
C486 C484 1.353 . S
C486 C489 1.348 . S
C486 H524 0.929 . S
N487 Li442 1.990 . S
N487 C484 1.314 . S
N487 C485 1.279 . S
C488 C485 1.358 . S
C488 C489 1.356 . S
C488 H525 0.930 . S
C489 C486 1.348 . S
C489 C488 1.356 . S
H490 C484 0.930 . S
H491 C485 0.930 . S
C492 N493 1.314 . S
C492 C494 1.353 . S
C492 H498 0.930 . S
N493 Li443 1.990 . S
N493 C492 1.314 . S
N493 C496 1.279 . S
C494 C492 1.353 . S
C494 C497 1.348 . S
C494 H526 0.929 . S
C495 C496 1.358 . S
C495 C497 1.356 . S
C495 H527 0.930 . S
C496 N493 1.279 . S
C496 C495 1.358 . S
C496 H499 0.930 . S
C497 C494 1.348 . S
C497 C495 1.356 . S
H498 C492 0.930 . S
H499 C496 0.930 . S
O500 Li440 1.956 . S
O500 Li441 1.970 . S
O500 Li442 1.961 . S
O500 C444 1.325 . S
O501 Li440 1.970 . S
O501 Li441 1.956 . S
O501 Li443 1.961 . S
O501 C450 1.325 . S
O502 Li440 1.961 . S
O502 Li442 1.956 . S
O502 Li443 1.970 . S
O502 C472 1.325 . S
O503 Li441 1.961 . S
O503 Li442 1.970 . S
O503 Li443 1.956 . S
O503 C478 1.325 . S
H504 C446 0.929 . S
H505 C447 0.930 . S
H506 C448 0.930 . S
H507 C449 0.930 . S
H508 C451 0.930 . S
H509 C453 0.929 . S
H510 C454 0.930 . S
H511 C455 0.930 . S
H512 C458 0.930 . S
H513 C461 0.929 . S
H514 C466 0.929 . S
H515 C467 0.930 . S
H516 C474 0.929 . S
H517 C475 0.930 . S
H518 C476 0.930 . S
H519 C477 0.930 . S
H520 C479 0.929 . S
H521 C480 0.930 . S
H522 C481 0.930 . S
H523 C482 0.930 . S
H524 C486 0.929 . S
H525 C488 0.930 . S
H526 C494 0.929 . S
H527 C495 0.930 . S
Li528 N545 1.990 . S
Li528 O588 1.956 . S
Li528 O589 1.970 . S
Li528 O590 1.961 . S
Li529 N553 1.990 . S
Li529 O588 1.970 . S
Li529 O589 1.956 . S
Li529 O591 1.961 . S
Li530 N575 1.990 . S
Li530 O588 1.961 . S
Li530 O590 1.956 . S
Li530 O591 1.970 . S
Li531 N581 1.990 . S
Li531 O589 1.961 . S
Li531 O590 1.970 . S
Li531 O591 1.956 . S
C532 C534 1.348 . S
C532 C535 1.356 . S
C532 O588 1.325 . S
N533 C536 1.314 . S
N533 C537 1.279 . S
C534 C532 1.348 . S
C534 C536 1.353 . S
C534 H592 0.929 . S
C535 C532 1.356 . S
C535 C537 1.358 . S
C535 H593 0.930 . S
C536 N533 1.314 . S
C536 C534 1.353 . S
C536 H594 0.930 . S
C537 N533 1.279 . S
C537 C535 1.358 . S
C537 H595 0.930 . S
C538 C541 1.348 . S
C538 C542 1.356 . S
C538 O589 1.325 . S
C539 N540 1.279 . S
C539 C542 1.358 . S
C539 H596 0.930 . S
N540 C539 1.279 . S
N540 C543 1.314 . S
C541 C538 1.348 . S
C541 C543 1.353 . S
C541 H597 0.929 . S
C542 C538 1.356 . S
C542 C539 1.358 . S
C542 H598 0.930 . S
C543 N540 1.314 . S
C543 C541 1.353 . S
C543 H599 0.930 . S
C544 N545 1.314 . S
C544 C549 1.353 . S
C544 H550 0.930 . S
N545 Li528 1.990 . S
N545 C544 1.314 . S
N545 C547 1.279 . S
C546 C547 1.358 . S
C546 C548 1.356 . S
C546 H600 0.930 . S
C547 N545 1.279 . S
C547 C546 1.358 . S
C547 H551 0.930 . S
C548 C546 1.356 . S
C548 C549 1.348 . S
C549 C544 1.353 . S
C549 C548 1.348 . S
C549 H601 0.929 . S
H550 C544 0.930 . S
H551 C547 0.930 . S
C552 N553 1.314 . S
C552 C554 1.353 . S
C552 H558 0.930 . S
N553 Li529 1.990 . S
N553 C552 1.314 . S
N553 C556 1.279 . S
C554 C552 1.353 . S
C554 C557 1.348 . S
C554 H602 0.929 . S
C555 C556 1.358 . S
C555 C557 1.356 . S
C555 H603 0.930 . S
C556 N553 1.279 . S
C556 C555 1.358 . S
C556 H559 0.930 . S
C557 C554 1.348 . S
C557 C555 1.356 . S
H558 C552 0.930 . S
H559 C556 0.930 . S
C560 C562 1.348 . S
C560 C563 1.356 . S
C560 O590 1.325 . S
N561 C564 1.314 . S
N561 C565 1.279 . S
C562 C560 1.348 . S
C562 C564 1.353 . S
C562 H604 0.929 . S
C563 C560 1.356 . S
C563 C565 1.358 . S
C563 H605 0.930 . S
C564 N561 1.314 . S
C564 C562 1.353 . S
C564 H606 0.930 . S
C565 N561 1.279 . S
C565 C563 1.358 . S
C565 H607 0.930 . S
C566 C567 1.348 . S
C566 C568 1.356 . S
C566 O591 1.325 . S
C567 C566 1.348 . S
C567 C569 1.353 . S
C567 H608 0.929 . S
C568 C566 1.356 . S
C568 C570 1.358 . S
C568 H609 0.930 . S
C569 C567 1.353 . S
C569 N571 1.314 . S
C569 H610 0.930 . S
C570 C568 1.358 . S
C570 N571 1.279 . S
C570 H611 0.930 . S
N571 C569 1.314 . S
N571 C570 1.279 . S
C572 C574 1.353 . S
C572 N575 1.314 . S
C572 H578 0.930 . S
C573 N575 1.279 . S
C573 C576 1.358 . S
C573 H579 0.930 . S
C574 C572 1.353 . S
C574 C577 1.348 . S
C574 H612 0.929 . S
N575 Li530 1.990 . S
N575 C572 1.314 . S
N575 C573 1.279 . S
C576 C573 1.358 . S
C576 C577 1.356 . S
C576 H613 0.930 . S
C577 C574 1.348 . S
C577 C576 1.356 . S
H578 C572 0.930 . S
H579 C573 0.930 . S
C580 N581 1.314 . S
C580 C582 1.353 . S
C580 H586 0.930 . S
N581 Li531 1.990 . S
N581 C580 1.314 . S
N581 C584 1.279 . S
C582 C580 1.353 . S
C582 C585 1.348 . S
C582 H614 0.929 . S
C583 C584 1.358 . S
C583 C585 1.356 . S
C583 H615 0.930 . S
C584 N581 1.279 . S
C584 C583 1.358 . S
C584 H587 0.930 . S
C585 C582 1.348 . S
C585 C583 1.356 . S
H586 C580 0.930 . S
H587 C584 0.930 . S
O588 Li528 1.956 . S
O588 Li529 1.970 . S
O588 Li530 1.961 . S
O588 C532 1.325 . S
O589 Li528 1.970 . S
O589 Li529 1.956 . S
O589 Li531 1.961 . S
O589 C538 1.325 . S
O590 Li528 1.961 . S
O590 Li530 1.956 . S
O590 Li531 1.970 . S
O590 C560 1.325 . S
O591 Li529 1.961 . S
O591 Li530 1.970 . S
O591 Li531 1.956 . S
O591 C566 1.325 . S
H592 C534 0.929 . S
H593 C535 0.930 . S
H594 C536 0.930 . S
H595 C537 0.930 . S
H596 C539 0.930 . S
H597 C541 0.929 . S
H598 C542 0.930 . S
H599 C543 0.930 . S
H600 C546 0.930 . S
H601 C549 0.929 . S
H602 C554 0.929 . S
H603 C555 0.930 . S
H604 C562 0.929 . S
H605 C563 0.930 . S
H606 C564 0.930 . S
H607 C565 0.930 . S
H608 C567 0.929 . S
H609 C568 0.930 . S
H610 C569 0.930 . S
H611 C570 0.930 . S
H612 C574 0.929 . S
H613 C576 0.930 . S
H614 C582 0.929 . S
H615 C583 0.930 . S
Li616 N633 1.990 . S
Li616 O676 1.956 . S
Li616 O677 1.970 . S
Li616 O678 1.961 . S
Li617 N641 1.990 . S
Li617 O676 1.970 . S
Li617 O677 1.956 . S
Li617 O679 1.961 . S
Li618 N663 1.990 . S
Li618 O676 1.961 . S
Li618 O678 1.956 . S
Li618 O679 1.970 . S
Li619 N669 1.990 . S
Li619 O677 1.961 . S
Li619 O678 1.970 . S
Li619 O679 1.956 . S
C620 C622 1.348 . S
C620 C623 1.356 . S
C620 O676 1.325 . S
N621 C624 1.314 . S
N621 C625 1.279 . S
C622 C620 1.348 . S
C622 C624 1.353 . S
C622 H680 0.929 . S
C623 C620 1.356 . S
C623 C625 1.358 . S
C623 H681 0.930 . S
C624 N621 1.314 . S
C624 C622 1.353 . S
C624 H682 0.930 . S
C625 N621 1.279 . S
C625 C623 1.358 . S
C625 H683 0.930 . S
C626 C629 1.348 . S
C626 C630 1.356 . S
C626 O677 1.325 . S
C627 N628 1.279 . S
C627 C630 1.358 . S
C627 H684 0.930 . S
N628 C627 1.279 . S
N628 C631 1.314 . S
C629 C626 1.348 . S
C629 C631 1.353 . S
C629 H685 0.929 . S
C630 C626 1.356 . S
C630 C627 1.358 . S
C630 H686 0.930 . S
C631 N628 1.314 . S
C631 C629 1.353 . S
C631 H687 0.930 . S
C632 N633 1.314 . S
C632 C637 1.353 . S
C632 H638 0.930 . S
N633 Li616 1.990 . S
N633 C632 1.314 . S
N633 C635 1.279 . S
C634 C635 1.358 . S
C634 C636 1.356 . S
C634 H688 0.930 . S
C635 N633 1.279 . S
C635 C634 1.358 . S
C635 H639 0.930 . S
C636 C634 1.356 . S
C636 C637 1.348 . S
C637 C632 1.353 . S
C637 C636 1.348 . S
C637 H689 0.929 . S
H638 C632 0.930 . S
H639 C635 0.930 . S
C640 N641 1.314 . S
C640 C642 1.353 . S
C640 H646 0.930 . S
N641 Li617 1.990 . S
N641 C640 1.314 . S
N641 C644 1.279 . S
C642 C640 1.353 . S
C642 C645 1.348 . S
C642 H690 0.929 . S
C643 C644 1.358 . S
C643 C645 1.356 . S
C643 H691 0.930 . S
C644 N641 1.279 . S
C644 C643 1.358 . S
C644 H647 0.930 . S
C645 C642 1.348 . S
C645 C643 1.356 . S
H646 C640 0.930 . S
H647 C644 0.930 . S
C648 C650 1.348 . S
C648 C651 1.356 . S
C648 O678 1.325 . S
N649 C652 1.314 . S
N649 C653 1.279 . S
C650 C648 1.348 . S
C650 C652 1.353 . S
C650 H692 0.929 . S
C651 C648 1.356 . S
C651 C653 1.358 . S
C651 H693 0.930 . S
C652 N649 1.314 . S
C652 C650 1.353 . S
C652 H694 0.930 . S
C653 N649 1.279 . S
C653 C651 1.358 . S
C653 H695 0.930 . S
C654 C655 1.348 . S
C654 C656 1.356 . S
C654 O679 1.325 . S
C655 C654 1.348 . S
C655 C657 1.353 . S
C655 H696 0.929 . S
C656 C654 1.356 . S
C656 C658 1.358 . S
C656 H697 0.930 . S
C657 C655 1.353 . S
C657 N659 1.314 . S
C657 H698 0.930 . S
C658 C656 1.358 . S
C658 N659 1.279 . S
C658 H699 0.930 . S
N659 C657 1.314 . S
N659 C658 1.279 . S
C660 C662 1.353 . S
C660 N663 1.314 . S
C660 H666 0.930 . S
C661 N663 1.279 . S
C661 C664 1.358 . S
C661 H667 0.930 . S
C662 C660 1.353 . S
C662 C665 1.348 . S
C662 H700 0.929 . S
N663 Li618 1.990 . S
N663 C660 1.314 . S
N663 C661 1.279 . S
C664 C661 1.358 . S
C664 C665 1.356 . S
C664 H701 0.930 . S
C665 C662 1.348 . S
C665 C664 1.356 . S
H666 C660 0.930 . S
H667 C661 0.930 . S
C668 N669 1.314 . S
C668 C670 1.353 . S
C668 H674 0.930 . S
N669 Li619 1.990 . S
N669 C668 1.314 . S
N669 C672 1.279 . S
C670 C668 1.353 . S
C670 C673 1.348 . S
C670 H702 0.929 . S
C671 C672 1.358 . S
C671 C673 1.356 . S
C671 H703 0.930 . S
C672 N669 1.279 . S
C672 C671 1.358 . S
C672 H675 0.930 . S
C673 C670 1.348 . S
C673 C671 1.356 . S
H674 C668 0.930 . S
H675 C672 0.930 . S
O676 Li616 1.956 . S
O676 Li617 1.970 . S
O676 Li618 1.961 . S
O676 C620 1.325 . S
O677 Li616 1.970 . S
O677 Li617 1.956 . S
O677 Li619 1.961 . S
O677 C626 1.325 . S
O678 Li616 1.961 . S
O678 Li618 1.956 . S
O678 Li619 1.970 . S
O678 C648 1.325 . S
O679 Li617 1.961 . S
O679 Li618 1.970 . S
O679 Li619 1.956 . S
O679 C654 1.325 . S
H680 C622 0.929 . S
H681 C623 0.930 . S
H682 C624 0.930 . S
H683 C625 0.930 . S
H684 C627 0.930 . S
H685 C629 0.929 . S
H686 C630 0.930 . S
H687 C631 0.930 . S
H688 C634 0.930 . S
H689 C637 0.929 . S
H690 C642 0.929 . S
H691 C643 0.930 . S
H692 C650 0.929 . S
H693 C651 0.930 . S
H694 C652 0.930 . S
H695 C653 0.930 . S
H696 C655 0.929 . S
H697 C656 0.930 . S
H698 C657 0.930 . S
H699 C658 0.930 . S
H700 C662 0.929 . S
H701 C664 0.930 . S
H702 C670 0.929 . S
H703 C671 0.930 . S
C704 C705 1.369 . S
C704 C706 1.419 . S
C704 H708 0.930 . S
C705 C704 1.369 . S
C705 C714 1.429 . S
C706 C704 1.419 . S
C706 C707 1.363 . S
C706 H709 0.929 . S
C707 C706 1.363 . S
C707 C713 1.428 . S
H708 C704 0.930 . S
H709 C706 0.929 . S
S710 N711 1.613 . S
S710 N712 1.610 . S
N711 S710 1.613 . S
N711 C714 1.350 . S
N712 S710 1.610 . S
N712 C713 1.351 . S
C713 C707 1.428 . S
C713 N712 1.351 . S
C713 C714 1.434 . S
C714 C705 1.429 . S
C714 N711 1.350 . S
C714 C713 1.434 . S
C715 C716 1.369 . S
C715 C717 1.419 . S
C715 H719 0.930 . S
C716 C715 1.369 . S
C716 C725 1.429 . S
C717 C715 1.419 . S
C717 C718 1.363 . S
C717 H720 0.929 . S
C718 C717 1.363 . S
C718 C724 1.428 . S
H719 C715 0.930 . S
H720 C717 0.929 . S
S721 N722 1.613 . S
S721 N723 1.610 . S
N722 S721 1.613 . S
N722 C725 1.350 . S
N723 S721 1.610 . S
N723 C724 1.351 . S
C724 C718 1.428 . S
C724 N723 1.351 . S
C724 C725 1.434 . S
C725 C716 1.429 . S
C725 N722 1.350 . S
C725 C724 1.434 . S
C726 C727 1.369 . S
C726 C728 1.419 1_545 S
C726 H730 0.930 . S
C727 C726 1.369 . S
C727 C736 1.429 1_554 S
C728 C726 1.419 1_565 S
C728 C729 1.363 1_554 S
C728 H731 0.929 . S
C729 C728 1.363 1_556 S
C729 C735 1.428 . S
H730 C726 0.930 . S
H731 C728 0.929 . S
S732 N733 1.613 1_565 S
S732 N734 1.610 . S
N733 S732 1.613 1_545 S
N733 C736 1.350 . S
N734 S732 1.610 . S
N734 C735 1.351 . S
C735 C729 1.428 . S
C735 N734 1.351 . S
C735 C736 1.434 1_565 S
C736 C727 1.429 1_556 S
C736 N733 1.350 . S
C736 C735 1.434 1_545 S
C737 C738 1.369 . S
C737 C739 1.415 1_655 S
C737 H741 0.930 . S
C738 C737 1.369 . S
C738 C747 1.429 . S
C739 C737 1.415 1_455 S
C739 C740 1.367 . S
C739 H742 0.928 1_455 S
C740 C739 1.367 . S
C740 C746 1.428 . S
H741 C737 0.930 . S
H742 C739 0.928 1_655 S
S743 N744 1.613 . S
S743 N745 1.610 . S
N744 S743 1.613 . S
N744 C747 1.350 1_455 S
N745 S743 1.610 . S
N745 C746 1.351 . S
C746 C740 1.428 . S
C746 N745 1.351 . S
C746 C747 1.434 1_455 S
C747 C738 1.429 . S
C747 N744 1.350 1_655 S
C747 C746 1.434 1_655 S
C748 C749 1.369 . S
C748 C750 1.435 . S
C748 H752 0.930 . S
C749 C748 1.369 . S
C749 C758 1.429 1_565 S
C750 C748 1.435 . S
C750 C751 1.345 1_565 S
C750 H753 0.932 . S
C751 C750 1.345 1_545 S
C751 C757 1.428 . S
H752 C748 0.930 . S
H753 C750 0.932 . S
S754 N755 1.613 . S
S754 N756 1.610 . S
N755 S754 1.613 . S
N755 C758 1.350 . S
N756 S754 1.610 . S
N756 C757 1.351 . S
C757 C751 1.428 . S
C757 N756 1.351 . S
C757 C758 1.434 . S
C758 C749 1.429 1_545 S
C758 N755 1.350 . S
C758 C757 1.434 . S
C759 C760 1.364 1_454 S
C759 C761 1.423 . S
C759 H763 0.930 . S
C760 C759 1.364 1_656 S
C760 C769 1.429 . S
C761 C759 1.423 . S
C761 C762 1.363 . S
C761 H764 0.929 . S
C762 C761 1.363 . S
C762 C768 1.414 1_454 S
H763 C759 0.930 . S
H764 C761 0.929 . S
S765 N766 1.613 . S
S765 N767 1.610 . S
N766 S765 1.613 . S
N766 C769 1.350 . S
N767 S765 1.610 . S
N767 C768 1.353 . S
C768 C762 1.414 1_656 S
C768 N767 1.353 . S
C768 C769 1.448 . S
C769 C760 1.429 . S
C769 N766 1.350 . S
C769 C768 1.448 . S
C770 C771 1.369 . S
C770 C772 1.419 . S
C770 H774 0.930 . S
C771 C770 1.369 . S
C771 C780 1.429 . S
C772 C770 1.419 . S
C772 C773 1.363 . S
C772 H775 0.929 . S
C773 C772 1.363 . S
C773 C779 1.428 . S
H774 C770 0.930 . S
H775 C772 0.929 . S
S776 N777 1.613 . S
S776 N778 1.610 . S
N777 S776 1.613 . S
N777 C780 1.350 . S
N778 S776 1.610 . S
N778 C779 1.351 . S
C779 C773 1.428 . S
C779 N778 1.351 . S
C779 C780 1.434 . S
C780 C771 1.429 . S
C780 N777 1.350 . S
C780 C779 1.434 . S
C781 C782 1.369 . S
C781 C783 1.419 . S
C781 H785 0.930 . S
C782 C781 1.369 . S
C782 C791 1.429 . S
C783 C781 1.419 . S
C783 C784 1.363 . S
C783 H786 0.929 . S
C784 C783 1.363 . S
C784 C790 1.428 . S
H785 C781 0.930 . S
H786 C783 0.929 . S
S787 N788 1.613 . S
S787 N789 1.610 . S
N788 S787 1.613 . S
N788 C791 1.350 . S
N789 S787 1.610 . S
N789 C790 1.351 . S
C790 C784 1.428 . S
C790 N789 1.351 . S
C790 C791 1.434 . S
C791 C782 1.429 . S
C791 N788 1.350 . S
C791 C790 1.434 . S
C792 C793 1.369 . S
C792 C794 1.419 . S
C792 H796 0.930 . S
C793 C792 1.369 . S
C793 C802 1.429 . S
C794 C792 1.419 . S
C794 C795 1.363 . S
C794 H797 0.929 . S
C795 C794 1.363 . S
C795 C801 1.428 . S
H796 C792 0.930 . S
H797 C794 0.929 . S
S798 N799 1.613 . S
S798 N800 1.610 . S
N799 S798 1.613 . S
N799 C802 1.350 . S
N800 S798 1.610 . S
N800 C801 1.351 . S
C801 C795 1.428 . S
C801 N800 1.351 . S
C801 C802 1.434 . S
C802 C793 1.429 . S
C802 N799 1.350 . S
C802 C801 1.434 . S
C803 C804 1.351 1_554 S
C803 C805 1.435 . S
C803 H807 0.933 . S
C804 C803 1.351 1_556 S
C804 C813 1.429 . S
C805 C803 1.435 . S
C805 C806 1.363 . S
C805 H808 0.929 . S
C806 C805 1.363 . S
C806 C812 1.428 1_554 S
H807 C803 0.933 . S
H808 C805 0.929 . S
S809 N810 1.613 . S
S809 N811 1.610 . S
N810 S809 1.613 . S
N810 C813 1.350 . S
N811 S809 1.610 . S
N811 C812 1.351 . S
C812 C806 1.428 1_556 S
C812 N811 1.351 . S
C812 C813 1.434 . S
C813 C804 1.429 . S
C813 N810 1.350 . S
C813 C812 1.434 . S
C814 C815 1.369 1_545 S
C814 C816 1.419 . S
C814 H818 0.930 . S
C815 C814 1.369 1_565 S
C815 C824 1.429 . S
C816 C814 1.419 . S
C816 C817 1.363 . S
C816 H819 0.929 . S
C817 C816 1.363 . S
C817 C823 1.428 1_545 S
H818 C814 0.930 . S
H819 C816 0.929 . S
S820 N821 1.613 . S
S820 N822 1.610 . S
N821 S820 1.613 . S
N821 C824 1.350 . S
N822 S820 1.610 . S
N822 C823 1.351 . S
C823 C817 1.428 1_565 S
C823 N822 1.351 . S
C823 C824 1.434 . S
C824 C815 1.429 . S
C824 N821 1.350 . S
C824 C823 1.434 . S
C825 C826 1.369 1_545 S
C825 C827 1.419 . S
C825 H829 0.930 . S
C826 C825 1.369 1_565 S
C826 C835 1.429 1_655 S
C827 C825 1.419 . S
C827 C828 1.363 1_655 S
C827 H830 0.929 . S
C828 C827 1.363 1_455 S
C828 C834 1.428 1_545 S
H829 C825 0.930 . S
H830 C827 0.929 . S
S831 N832 1.613 . S
S831 N833 1.610 . S
N832 S831 1.613 . S
N832 C835 1.350 . S
N833 S831 1.610 . S
N833 C834 1.351 . S
C834 C828 1.428 1_565 S
C834 N833 1.351 . S
C834 C835 1.434 . S
C835 C826 1.429 1_455 S
C835 N832 1.350 . S
C835 C834 1.434 . S
C836 C837 1.369 . S
C836 C838 1.419 . S
C836 H840 0.930 . S
C837 C836 1.369 . S
C837 C846 1.429 1_655 S
C838 C836 1.419 . S
C838 C839 1.363 1_655 S
C838 H841 0.929 . S
C839 C838 1.363 1_455 S
C839 C845 1.428 . S
H840 C836 0.930 . S
H841 C838 0.929 . S
S842 N843 1.613 . S
S842 N844 1.610 . S
N843 S842 1.613 . S
N843 C846 1.350 . S
N844 S842 1.610 . S
N844 C845 1.351 . S
C845 C839 1.428 . S
C845 N844 1.351 . S
C845 C846 1.434 . S
C846 C837 1.429 1_455 S
C846 N843 1.350 . S
C846 C845 1.434 . S
C847 C848 1.369 . S
C847 C849 1.419 . S
C847 H851 0.930 . S
C848 C847 1.369 . S
C848 C857 1.429 . S
C849 C847 1.419 . S
C849 C850 1.363 . S
C849 H852 0.929 . S
C850 C849 1.363 . S
C850 C856 1.428 . S
H851 C847 0.930 . S
H852 C849 0.929 . S
S853 N854 1.613 . S
S853 N855 1.610 . S
N854 S853 1.613 . S
N854 C857 1.350 . S
N855 S853 1.610 . S
N855 C856 1.351 . S
C856 C850 1.428 . S
C856 N855 1.351 . S
C856 C857 1.434 . S
C857 C848 1.429 . S
C857 N854 1.350 . S
C857 C856 1.434 . S
C858 C859 1.369 . S
C858 C860 1.419 . S
C858 H862 0.930 . S
C859 C858 1.369 . S
C859 C868 1.429 1_554 S
C860 C858 1.419 . S
C860 C861 1.363 1_554 S
C860 H863 0.929 . S
C861 C860 1.363 1_556 S
C861 C867 1.428 . S
H862 C858 0.930 . S
H863 C860 0.929 . S
S864 N865 1.613 . S
S864 N866 1.610 . S
N865 S864 1.613 . S
N865 C868 1.350 . S
N866 S864 1.610 . S
N866 C867 1.351 . S
C867 C861 1.428 . S
C867 N866 1.351 . S
C867 C868 1.434 . S
C868 C859 1.429 1_556 S
C868 N865 1.350 . S
C868 C867 1.434 . S
C869 C870 1.369 . S
C869 C871 1.419 . S
C869 H873 0.930 . S
C870 C869 1.369 . S
C870 C879 1.429 . S
C871 C869 1.419 . S
C871 C872 1.363 . S
C871 H874 0.929 . S
C872 C871 1.363 . S
C872 C878 1.428 . S
H873 C869 0.930 . S
H874 C871 0.929 . S
S875 N876 1.613 . S
S875 N877 1.610 . S
N876 S875 1.613 . S
N876 C879 1.350 . S
N877 S875 1.610 . S
N877 C878 1.351 . S
C878 C872 1.428 . S
C878 N877 1.351 . S
C878 C879 1.434 . S
C879 C870 1.429 . S
C879 N876 1.350 . S
C879 C878 1.434 . S
C705 C497 1.500 . S
C707 C49 1.500 . S
C716 C645 1.499 . S
C718 C108 1.500 . S
C727 C233 1.500 . S
C729 C557 1.500 . S
C738 C321 1.499 . S
C740 C372 1.500 . S
C749 C548 1.500 . S
C751 C29 1.500 . S
C760 C117 1.500 . S
C762 C409 1.500 . S
C771 C489 1.500 . S
C773 C196 1.500 . S
C782 C313 1.500 . S
C784 C665 1.500 . S
C793 C381 1.500 . S
C795 C460 1.500 . S
C804 C145 1.500 . S
C806 C225 1.500 . S
C815 C293 1.499 . S
C817 C205 1.500 . S
C826 C284 1.500 . S
C828 C57 1.499 . S
C837 C137 1.500 . S
C839 C20 1.499 . S
C848 C636 1.499 . S
C850 C577 1.500 . S
C859 C401 1.500 . S
C861 C585 1.500 . S
C870 C469 1.499 . S
C872 C673 1.500 . S
