# Generated by pormake.
# Topology upa, (4)-cn, num edge types: 1
# Building blocks:
#     Node 0, Type 0, BuildingBlock: QUQFOY_clean_sbu_1, # of connection points: 4
#     Node 1, Type 0, BuildingBlock: QUQFOY_clean_sbu_1, # of connection points: 4
#     Node 2, Type 0, BuildingBlock: QUQFOY_clean_sbu_1, # of connection points: 4
#     Node 3, Type 0, BuildingBlock: QUQFOY_clean_sbu_1, # of connection points: 4
#     Node 4, Type 0, BuildingBlock: QUQFOY_clean_sbu_1, # of connection points: 4
#     Node 5, Type 0, BuildingBlock: QUQFOY_clean_sbu_1, # of connection points: 4
#     Node 6, Type 0, BuildingBlock: QUQFOY_clean_sbu_1, # of connection points: 4
#     Node 7, Type 0, BuildingBlock: QUQFOY_clean_sbu_1, # of connection points: 4
#     Edge 8, Type (0, 0), BuildingBlock: ZUJKAS_clean_linker_0, # of connection points: 2
#     Edge 9, Type (0, 0), BuildingBlock: ZUJKAS_clean_linker_0, # of connection points: 2
#     Edge 10, Type (0, 0), BuildingBlock: ZUJKAS_clean_linker_0, # of connection points: 2
#     Edge 11, Type (0, 0), BuildingBlock: ZUJKAS_clean_linker_0, # of connection points: 2
#     Edge 12, Type (0, 0), BuildingBlock: ZUJKAS_clean_linker_0, # of connection points: 2
#     Edge 13, Type (0, 0), BuildingBlock: ZUJKAS_clean_linker_0, # of connection points: 2
#     Edge 14, Type (0, 0), BuildingBlock: ZUJKAS_clean_linker_0, # of connection points: 2
#     Edge 15, Type (0, 0), BuildingBlock: ZUJKAS_clean_linker_0, # of connection points: 2
#     Edge 16, Type (0, 0), BuildingBlock: ZUJKAS_clean_linker_0, # of connection points: 2
#     Edge 17, Type (0, 0), BuildingBlock: ZUJKAS_clean_linker_0, # of connection points: 2
#     Edge 18, Type (0, 0), BuildingBlock: ZUJKAS_clean_linker_0, # of connection points: 2
#     Edge 19, Type (0, 0), BuildingBlock: ZUJKAS_clean_linker_0, # of connection points: 2
#     Edge 20, Type (0, 0), BuildingBlock: ZUJKAS_clean_linker_0, # of connection points: 2
#     Edge 21, Type (0, 0), BuildingBlock: ZUJKAS_clean_linker_0, # of connection points: 2
#     Edge 22, Type (0, 0), BuildingBlock: ZUJKAS_clean_linker_0, # of connection points: 2
#     Edge 23, Type (0, 0), BuildingBlock: ZUJKAS_clean_linker_0, # of connection points: 2
# Relax obj value: 0.129
# Max RMSD: 0.095
# Mean RMSD: 0.095
data_MOF--net-upa--node1-QUQFOY_clean_sbu_1--edge1-ZUJKAS_clean_linker_0
_symmetry_space_group_name_H-M    P1
_symmetry_Int_Tables_number       1
_symmetry_cell_setting            triclinic
loop_
_symmetry_equiv_pos_as_xyz
'x, y, z'
_cell_length_a     37.560819
_cell_length_b     37.565774
_cell_length_c     54.94281
_cell_angle_alpha  89.934858
_cell_angle_beta   90.092285
_cell_angle_gamma 89.982278
loop_
_atom_site_label
_atom_site_type_symbol
_atom_site_fract_x
_atom_site_fract_y
_atom_site_fract_z
_atom_type_partial_charge
O0 O 0.20094 0.20742 0.36608 0.0
Cd1 Cd 0.19465 0.18948 0.33046 0.0
Cd2 Cd 0.12477 0.22446 0.34162 0.0
O3 O 0.15207 0.23921 0.37246 0.0
O4 O 0.24241 0.16844 0.32309 0.0
O5 O 0.22098 0.21483 0.30329 0.0
C6 C 0.24665 0.19246 0.30663 0.0
C7 C 0.07833 0.2591 0.32532 0.0
C8 C 0.1821 0.22748 0.37959 0.0
C9 C 0.12754 0.14535 0.33014 0.0
O10 O 0.11158 0.17192 0.33923 0.0
O11 O 0.15982 0.14759 0.32334 0.0
O12 O 0.07629 0.24511 0.34665 0.0
O13 O 0.1081 0.2559 0.3138 0.0
O14 O 0.30226 0.69446 0.86877 0.0
Cd15 Cd 0.31683 0.69076 0.83256 0.0
Cd16 Cd 0.27649 0.62221 0.84124 0.0
O17 O 0.26589 0.64856 0.87357 0.0
O18 O 0.33844 0.73834 0.82555 0.0
O19 O 0.28998 0.71904 0.80706 0.0
C20 C 0.31324 0.74398 0.8101 0.0
C21 C 0.23867 0.57748 0.82623 0.0
C22 C 0.28098 0.67638 0.88189 0.0
C23 C 0.35559 0.62147 0.82663 0.0
O24 O 0.32777 0.6063 0.83459 0.0
O25 O 0.35639 0.65495 0.8233 0.0
O26 O 0.25487 0.57427 0.84675 0.0
O27 O 0.2412 0.60766 0.81509 0.0
O28 O 0.80945 0.80219 0.36409 0.0
Cd29 Cd 0.8187 0.81307 0.32748 0.0
Cd30 Cd 0.88079 0.77489 0.34243 0.0
O31 O 0.84891 0.75972 0.37106 0.0
O32 O 0.77409 0.83791 0.31684 0.0
O33 O 0.79001 0.78537 0.30261 0.0
C34 C 0.76717 0.81107 0.30308 0.0
C35 C 0.92427 0.73906 0.32426 0.0
C36 C 0.82242 0.77825 0.37796 0.0
C37 C 0.88825 0.8512 0.32926 0.0
O38 O 0.89849 0.82635 0.34324 0.0
O39 O 0.85873 0.84881 0.318 0.0
O40 O 0.92641 0.74822 0.34679 0.0
O41 O 0.8956 0.74739 0.31253 0.0
O42 O 0.70562 0.31226 0.86275 0.0
Cd43 Cd 0.69159 0.31738 0.8265 0.0
Cd44 Cd 0.73466 0.38288 0.83548 0.0
O45 O 0.74567 0.35504 0.86722 0.0
O46 O 0.66829 0.27097 0.81826 0.0
O47 O 0.71877 0.28853 0.80158 0.0
C48 C 0.69434 0.26453 0.80369 0.0
C49 C 0.77326 0.42585 0.81917 0.0
C50 C 0.72867 0.32843 0.87567 0.0
C51 C 0.65564 0.38831 0.82223 0.0
O52 O 0.68396 0.4017 0.83086 0.0
O53 O 0.65365 0.35525 0.81749 0.0
O54 O 0.75992 0.42917 0.84059 0.0
O55 O 0.76762 0.39633 0.80778 0.0
O56 O 0.69679 0.30733 0.14565 0.0
Cd57 Cd 0.6901 0.31785 0.18248 0.0
Cd58 Cd 0.6236 0.28223 0.16832 0.0
O59 O 0.6527 0.2701 0.13761 0.0
O60 O 0.73678 0.33993 0.19143 0.0
O61 O 0.71821 0.28927 0.20724 0.0
C62 C 0.74261 0.31339 0.20573 0.0
C63 C 0.57907 0.24508 0.1842 0.0
C64 C 0.6808 0.28641 0.13105 0.0
C65 C 0.62185 0.35889 0.18483 0.0
O66 O 0.60804 0.33414 0.17229 0.0
O67 O 0.65333 0.35597 0.19311 0.0
O68 O 0.5762 0.25934 0.16298 0.0
O69 O 0.60884 0.24925 0.19567 0.0
O70 O 0.21158 0.19833 0.64456 0.0
Cd71 Cd 0.19238 0.19233 0.67987 0.0
Cd72 Cd 0.22762 0.12245 0.66967 0.0
O73 O 0.24321 0.14919 0.6388 0.0
O74 O 0.17072 0.24 0.68659 0.0
O75 O 0.21628 0.21902 0.70749 0.0
C76 C 0.19385 0.24448 0.70361 0.0
C77 C 0.26226 0.07716 0.68739 0.0
C78 C 0.23187 0.17922 0.63139 0.0
C79 C 0.14821 0.12518 0.67975 0.0
O80 O 0.17507 0.10898 0.67127 0.0
O81 O 0.15027 0.15757 0.68632 0.0
O82 O 0.24915 0.0741 0.66585 0.0
O83 O 0.25811 0.10728 0.69835 0.0
O84 O 0.31105 0.70039 0.15176 0.0
Cd85 Cd 0.31917 0.69215 0.18878 0.0
Cd86 Cd 0.38189 0.72968 0.17349 0.0
O87 O 0.35029 0.74274 0.14409 0.0
O88 O 0.27434 0.66777 0.19929 0.0
O89 O 0.2895 0.72124 0.21225 0.0
C90 C 0.2668 0.69542 0.2121 0.0
C91 C 0.42557 0.76681 0.19034 0.0
C92 C 0.32415 0.72355 0.13738 0.0
C93 C 0.38872 0.65415 0.18935 0.0
O94 O 0.39944 0.67816 0.17487 0.0
O95 O 0.35882 0.65714 0.19996 0.0
O96 O 0.42771 0.75567 0.16823 0.0
O97 O 0.39684 0.75965 0.20229 0.0
O98 O 0.8011 0.81161 0.64513 0.0
Cd99 Cd 0.81302 0.81966 0.68172 0.0
Cd100 Cd 0.77382 0.88157 0.66871 0.0
O101 O 0.75719 0.85009 0.64021 0.0
O102 O 0.8384 0.77497 0.69152 0.0
O103 O 0.78604 0.79016 0.70645 0.0
C104 C 0.81189 0.76753 0.70545 0.0
C105 C 0.73859 0.92416 0.68836 0.0
C106 C 0.77597 0.82445 0.63222 0.0
C107 C 0.8505 0.88936 0.68025 0.0
O108 O 0.8251 0.89971 0.66676 0.0
O109 O 0.84864 0.85966 0.6913 0.0
O110 O 0.74639 0.92697 0.66562 0.0
O111 O 0.748 0.89536 0.69952 0.0
H112 H 0.0712 0.12396 0.35698 0.0
H113 H 0.03338 0.07227 0.35061 0.0
H114 H 0.09817 0.04049 0.28958 0.0
H115 H 0.13721 0.09207 0.29647 0.0
H116 H 0.99337 0.05799 0.3114 0.0
H117 H 0.09024 0.94824 0.32714 0.0
H118 H 0.1 0.99382 0.33495 0.0
H119 H 0.10208 0.97955 0.30379 0.0
C120 C 0.07772 0.10578 0.34235 0.0
C121 C 0.10717 0.11202 0.32721 0.0
C122 C 0.05598 0.07629 0.33869 0.0
C123 C 0.06291 0.05246 0.31965 0.0
C124 C 0.09265 0.05821 0.30464 0.0
H125 H 0.88966 0.8981 0.2909 0.0
H126 H 0.93249 0.94645 0.28421 0.0
C127 C 0.11489 0.08765 0.30855 0.0
C128 C 0.03796 0.02246 0.31559 0.0
H129 H 0.03124 0.93198 0.31822 0.0
C130 C 1.00164 0.03038 0.31267 0.0
C131 C 0.04889 0.98652 0.31724 0.0
C132 C 0.08735 0.97635 0.32114 0.0
C133 C 0.97571 1.00352 0.31271 0.0
C134 C 0.98654 0.9676 0.31492 0.0
C135 C 0.02303 0.95956 0.31653 0.0
C136 C 0.96055 0.93829 0.31824 0.0
C137 C 0.93694 0.01409 0.31185 0.0
C138 C 0.96248 0.91727 0.33931 0.0
C139 C 0.93856 0.88945 0.34295 0.0
C140 C 0.9119 0.88217 0.32569 0.0
C141 C 0.90963 0.90342 0.30466 0.0
C142 C 0.93404 0.93106 0.30084 0.0
H143 H 0.93311 0.04285 0.31579 0.0
H144 H 0.92622 0.0088 0.29338 0.0
H145 H 0.92112 0.99844 0.32514 0.0
H146 H 0.98256 0.92244 0.35304 0.0
H147 H 0.94099 0.8736 0.35936 0.0
H148 H 0.42448 0.64305 0.8184 0.0
H149 H 0.47675 0.60479 0.81234 0.0
H150 H 0.41007 0.51166 0.81715 0.0
H151 H 0.35802 0.54927 0.82314 0.0
H152 H 0.49845 0.55125 0.84703 0.0
H153 H 0.47161 0.49344 0.75588 0.0
H154 H 0.45078 0.53399 0.76636 0.0
H155 H 0.43478 0.49151 0.77668 0.0
C156 C 0.42093 0.61445 0.81785 0.0
C157 C 0.38714 0.59921 0.82137 0.0
C158 C 0.45076 0.59268 0.81438 0.0
C159 C 0.44709 0.55549 0.81398 0.0
C160 C 0.41333 0.54032 0.81695 0.0
H161 H 0.58505 0.37056 0.81675 0.0
H162 H 0.53447 0.4118 0.81341 0.0
C163 C 0.38366 0.56192 0.82059 0.0
C164 C 0.47871 0.53218 0.81266 0.0
H165 H 0.51676 0.46531 0.77965 0.0
C166 C 0.50277 0.53275 0.83217 0.0
C167 C 0.4838 0.50778 0.79341 0.0
C168 C 0.45906 0.50672 0.77177 0.0
C169 C 0.53141 0.5089 0.83329 0.0
C170 C 0.53659 0.48445 0.81402 0.0
C171 C 0.51267 0.48406 0.79438 0.0
C172 C 0.56698 0.45937 0.81399 0.0
C173 C 0.55516 0.50935 0.85549 0.0
C174 C 0.60186 0.47249 0.81462 0.0
C175 C 0.63054 0.44919 0.81678 0.0
C176 C 0.62498 0.41219 0.81796 0.0
C177 C 0.59012 0.39892 0.816 0.0
C178 C 0.56127 0.42241 0.81409 0.0
H179 H 0.54193 0.52231 0.87124 0.0
H180 H 0.56306 0.48196 0.86087 0.0
H181 H 0.57967 0.52466 0.85132 0.0
H182 H 0.60688 0.50087 0.8139 0.0
H183 H 0.65713 0.46028 0.81778 0.0
H184 H 0.63245 0.4092 0.22043 0.0
H185 H 0.59312 0.45926 0.23062 0.0
H186 H 0.52352 0.43047 0.17129 0.0
H187 H 0.56173 0.38028 0.16152 0.0
H188 H 0.57356 0.51646 0.20548 0.0
H189 H 0.45296 0.43855 0.22555 0.0
H190 H 0.49625 0.41808 0.22274 0.0
H191 H 0.46949 0.42672 0.19609 0.0
C192 C 0.60872 0.41361 0.20961 0.0
C193 C 0.6 0.39061 0.19032 0.0
C194 C 0.58623 0.44207 0.21551 0.0
C195 C 0.5548 0.44791 0.20219 0.0
C196 C 0.54686 0.42569 0.18242 0.0
H197 H 0.44449 0.63181 0.16195 0.0
H198 H 0.48515 0.58289 0.1702 0.0
C199 C 0.56898 0.39718 0.1767 0.0
C200 C 0.53093 0.47822 0.20778 0.0
H201 H 0.4429 0.49962 0.21208 0.0
C202 C 0.54506 0.51277 0.20746 0.0
C203 C 0.49386 0.4735 0.21115 0.0
C204 C 0.47738 0.43714 0.2142 0.0
C205 C 0.52278 0.5427 0.20832 0.0
C206 C 0.48539 0.53785 0.20872 0.0
C207 C 0.4715 0.50338 0.21118 0.0
C208 C 0.46039 0.56769 0.20423 0.0
C209 C 0.53959 0.57918 0.20828 0.0
C210 C 0.4317 0.57433 0.21997 0.0
C211 C 0.40773 0.60197 0.21498 0.0
C212 C 0.41222 0.62339 0.1942 0.0
C213 C 0.44055 0.61612 0.17829 0.0
C214 C 0.46411 0.58837 0.18312 0.0
H215 H 0.56606 0.57864 0.21734 0.0
H216 H 0.54378 0.58794 0.1892 0.0
H217 H 0.52254 0.59905 0.21763 0.0
H218 H 0.42804 0.55834 0.23619 0.0
H219 H 0.38616 0.60698 0.22758 0.0
H220 H 0.12728 0.06882 0.65273 0.0
H221 H 0.07484 0.03171 0.65824 0.0
H222 H 0.04172 0.09718 0.71861 0.0
H223 H 0.09396 0.13554 0.71252 0.0
H224 H 0.05864 0.992 0.69678 0.0
H225 H 0.95062 0.09035 0.68007 0.0
H226 H 0.99658 0.09966 0.67306 0.0
H227 H 0.98116 0.10183 0.70398 0.0
C228 C 0.10864 0.07563 0.66702 0.0
C229 C 0.11466 0.10508 0.6822 0.0
C230 C 0.07872 0.05431 0.67019 0.0
C231 C 0.05427 0.06166 0.68879 0.0
C232 C 0.05988 0.09136 0.70386 0.0
H233 H 0.89816 0.89072 0.71811 0.0
H234 H 0.94704 0.9331 0.72418 0.0
C235 C 0.08972 0.1132 0.70041 0.0
C236 C 0.02382 0.03713 0.69244 0.0
H237 H 0.93325 0.03182 0.68963 0.0
C238 C 0.03117 1.0007 0.69538 0.0
C239 C 0.98806 0.04859 0.69059 0.0
C240 C 0.97848 0.08717 0.68656 0.0
C241 C 0.00392 0.97519 0.69529 0.0
C242 C 0.96816 0.98658 0.69309 0.0
C243 C 0.9607 0.02317 0.69133 0.0
C244 C 0.93837 0.96103 0.69017 0.0
C245 C 0.01393 0.93628 0.69618 0.0
C246 C 0.91678 0.96313 0.66935 0.0
C247 C 0.8886 0.93951 0.6661 0.0
C248 C 0.88157 0.91296 0.68347 0.0
C249 C 0.90331 0.91059 0.70426 0.0
C250 C 0.93126 0.93474 0.70772 0.0
H251 H 0.04251 0.93201 0.69187 0.0
H252 H 0.00907 0.92583 0.71477 0.0
H253 H 0.99769 0.92054 0.68316 0.0
H254 H 0.92182 0.98309 0.65552 0.0
H255 H 0.87233 0.942 0.64988 0.0
H256 H 0.13971 0.23218 0.41934 0.0
H257 H 0.15786 0.23341 0.46185 0.0
H258 H 0.26812 0.23922 0.44003 0.0
H259 H 0.24987 0.23498 0.39727 0.0
H260 H 0.26545 0.19547 0.47332 0.0
H261 H 0.18597 0.30725 0.50733 0.0
H262 H 0.15589 0.27629 0.49364 0.0
H263 H 0.18932 0.29805 0.47523 0.0
C264 C 0.16779 0.23443 0.4236 0.0
C265 C 0.19338 0.23375 0.40501 0.0
C266 C 0.17821 0.23548 0.448 0.0
C267 C 0.21443 0.2374 0.45442 0.0
C268 C 0.24001 0.23791 0.43572 0.0
H269 H 0.24024 0.24667 0.61337 0.0
H270 H 0.24465 0.26433 0.57051 0.0
C271 C 0.2296 0.23565 0.41127 0.0
C272 C 0.2254 0.2353 0.48052 0.0
H273 H 0.20062 0.26152 0.53746 0.0
C274 C 0.25176 0.21058 0.48727 0.0
C275 C 0.20869 0.25564 0.49898 0.0
C276 C 0.18376 0.28607 0.49331 0.0
C277 C 0.26011 0.20406 0.5118 0.0
C278 C 0.24012 0.22114 0.53028 0.0
C279 C 0.21547 0.24756 0.52352 0.0
C280 C 0.24243 0.21047 0.55643 0.0
C281 C 0.29044 0.179 0.51744 0.0
C282 C 0.24033 0.17435 0.56306 0.0
C283 C 0.23921 0.16427 0.58752 0.0
C284 C 0.23863 0.1901 0.60595 0.0
C285 C 0.24083 0.22622 0.59949 0.0
C286 C 0.24318 0.23628 0.57499 0.0
H287 H 0.31149 0.18093 0.50331 0.0
H288 H 0.30266 0.18467 0.53543 0.0
H289 H 0.28049 0.15119 0.51728 0.0
H290 H 0.23809 0.15384 0.54933 0.0
H291 H 0.23672 0.13626 0.59194 0.0
H292 H 0.3137 0.73038 0.90671 0.0
H293 H 0.31237 0.74174 0.95041 0.0
H294 H 0.2364 0.65685 0.95987 0.0
H295 H 0.23814 0.64464 0.91613 0.0
H296 H 0.25977 0.75898 0.98349 0.0
H297 H 0.31781 0.62619 1.00404 0.0
H298 H 0.3159 0.64403 0.97358 0.0
H299 H 0.27686 0.62481 0.98719 0.0
C300 C 0.2964 0.71426 0.91799 0.0
C301 C 0.27637 0.68623 0.90788 0.0
C302 C 0.29565 0.72088 0.94301 0.0
C303 C 0.27488 0.69968 0.95848 0.0
C304 C 0.25329 0.673 0.94833 0.0
H305 H 0.27042 0.68489 0.11658 0.0
H306 H 0.25431 0.68197 0.07356 0.0
C307 C 0.25415 0.6662 0.92329 0.0
C308 C 0.27738 0.70447 0.98527 0.0
H309 H 0.30301 0.6623 0.03754 0.0
C310 C 0.26909 0.73782 0.99534 0.0
C311 C 0.28977 0.67689 1.00069 0.0
C312 C 0.30093 0.64106 0.99087 0.0
C313 C 0.27274 0.74426 0.02044 0.0
C314 C 0.28536 0.71674 0.03577 0.0
C315 C 0.29315 0.6833 0.02575 0.0
C316 C 0.29201 0.72213 0.06215 0.0
C317 C 0.26288 0.78034 0.03037 0.0
C318 C 0.31824 0.74608 0.07009 0.0
C319 C 0.32761 0.74783 0.09474 0.0
C320 C 0.31105 0.72546 0.11189 0.0
C321 C 0.2838 0.70249 0.10393 0.0
C322 C 0.27453 0.70074 0.07932 0.0
H323 H 0.2451 0.79511 0.01771 0.0
H324 H 0.24947 0.77786 0.04828 0.0
H325 H 0.28745 0.79631 0.03294 0.0
H326 H 0.33253 0.76239 0.0571 0.0
H327 H 0.34877 0.76572 0.10017 0.0
H328 H 0.72918 0.84945 0.59781 0.0
H329 H 0.72767 0.83466 0.55448 0.0
H330 H 0.81142 0.75772 0.56537 0.0
H331 H 0.81281 0.77189 0.60869 0.0
H332 H 0.78476 0.84494 0.52425 0.0
H333 H 0.7436 0.70342 0.52114 0.0
H334 H 0.73719 0.73095 0.54771 0.0
H335 H 0.78003 0.71154 0.54157 0.0
C336 C 0.74675 0.82881 0.59112 0.0
C337 C 0.77123 0.81198 0.60677 0.0
C338 C 0.74586 0.82041 0.56632 0.0
C339 C 0.76919 0.79484 0.55669 0.0
C340 C 0.79264 0.77699 0.57243 0.0
H341 H 0.85058 0.73877 0.41539 0.0
H342 H 0.83381 0.741 0.45839 0.0
C343 C 0.79356 0.78534 0.59722 0.0
C344 C 0.77185 0.78974 0.52994 0.0
H345 H 0.77013 0.72703 0.48491 0.0
C346 C 0.78105 0.81926 0.5156 0.0
C347 C 0.76735 0.75614 0.51872 0.0
C348 C 0.75617 0.72376 0.53304 0.0
C349 C 0.78695 0.81596 0.4905 0.0
C350 C 0.78283 0.7823 0.47928 0.0
C351 C 0.77318 0.7528 0.49354 0.0
C352 C 0.78978 0.77728 0.45292 0.0
C353 C 0.79888 0.84832 0.47637 0.0
C354 C 0.76971 0.79582 0.43547 0.0
C355 C 0.77929 0.79476 0.4109 0.0
C356 C 0.809 0.77486 0.40326 0.0
C357 C 0.82764 0.75447 0.42061 0.0
C358 C 0.8181 0.75569 0.44522 0.0
H359 H 0.80881 0.86975 0.48854 0.0
H360 H 0.82029 0.84132 0.4633 0.0
H361 H 0.77602 0.85909 0.46588 0.0
H362 H 0.74729 0.81206 0.44096 0.0
H363 H 0.76409 0.8105 0.39803 0.0
H364 H 0.76996 0.36053 0.91063 0.0
H365 H 0.77073 0.34783 0.95432 0.0
H366 H 0.69712 0.26126 0.9433 0.0
H367 H 0.6966 0.27327 0.8997 0.0
H368 H 0.71232 0.35247 0.9835 0.0
H369 H 0.76825 0.21633 0.98958 0.0
H370 H 0.77238 0.24349 0.96259 0.0
H371 H 0.73183 0.21952 0.96852 0.0
C372 C 0.75453 0.33829 0.9174 0.0
C373 C 0.73314 0.318 0.90159 0.0
C374 C 0.75496 0.3311 0.94241 0.0
C375 C 0.73428 0.30335 0.95209 0.0
C376 C 0.71391 0.2823 0.93625 0.0
H377 H 0.65176 0.24757 0.09359 0.0
H378 H 0.66801 0.25004 0.05045 0.0
C379 C 0.71346 0.28942 0.91127 0.0
C380 C 0.73105 0.29873 0.97885 0.0
H381 H 0.73729 0.23763 0.02486 0.0
C382 C 0.71827 0.32751 0.99258 0.0
C383 C 0.73854 0.26604 0.99067 0.0
C384 C 0.75383 0.23469 0.97712 0.0
C385 C 0.71184 0.32424 0.01763 0.0
C386 C 0.71878 0.29143 0.02936 0.0
C387 C 0.73194 0.26272 0.01577 0.0
C388 C 0.7118 0.28661 0.0557 0.0
C389 C 0.69662 0.3556 0.03127 0.0
C390 C 0.73178 0.30546 0.07298 0.0
C391 C 0.72266 0.30409 0.09761 0.0
C392 C 0.6933 0.28382 0.10547 0.0
C393 C 0.67443 0.26354 0.08821 0.0
C394 C 0.68368 0.26488 0.06354 0.0
H395 H 0.68638 0.37651 0.01877 0.0
H396 H 0.67464 0.34695 0.04341 0.0
H397 H 0.71773 0.36759 0.04279 0.0
H398 H 0.75385 0.32205 0.06729 0.0
H399 H 0.73796 0.31989 0.11036 0.0
H400 H 0.571 0.22597 0.23207 0.0
H401 H 0.5153 0.21051 0.25272 0.0
H402 H 0.45953 0.21439 0.18413 0.0
H403 H 0.51492 0.2295 0.16338 0.0
H404 H 0.45586 0.25523 0.25299 0.0
H405 H 0.42065 0.12313 0.215 0.0
H406 H 0.46501 0.14145 0.21304 0.0
H407 H 0.43089 0.15599 0.19231 0.0
C408 C 0.54709 0.22256 0.22129 0.0
C409 C 0.54746 0.22896 0.19606 0.0
C410 C 0.51522 0.21393 0.23314 0.0
C411 C 0.48325 0.21111 0.21997 0.0
C412 C 0.4839 0.21583 0.19464 0.0
H413 H 0.26727 0.24337 0.27358 0.0
H414 H 0.32446 0.24757 0.25224 0.0
C415 C 0.51566 0.22459 0.1828 0.0
C416 C 0.44875 0.2066 0.23285 0.0
H417 H 0.37474 0.15394 0.23634 0.0
C418 C 0.43823 0.23295 0.24947 0.0
C419 C 0.42579 0.1775 0.2283 0.0
C420 C 0.43622 0.14771 0.21136 0.0
C421 C 0.40515 0.23132 0.26134 0.0
C422 C 0.38174 0.20278 0.25624 0.0
C423 C 0.39253 0.17604 0.23999 0.0
C424 C 0.34644 0.19967 0.26824 0.0
C425 C 0.39571 0.25993 0.27947 0.0
C426 C 0.33946 0.1709 0.28379 0.0
C427 C 0.30688 0.16841 0.29595 0.0
C428 C 0.28041 0.19453 0.29267 0.0
C429 C 0.2871 0.22289 0.27658 0.0
C430 C 0.31983 0.22542 0.26447 0.0
H431 H 0.41951 0.27522 0.28539 0.0
H432 H 0.37669 0.27882 0.27096 0.0
H433 H 0.38276 0.24826 0.29579 0.0
H434 H 0.35953 0.15066 0.28689 0.0
H435 H 0.3026 0.14613 0.30812 0.0
H436 H 0.36007 0.79948 0.81196 0.0
H437 H 0.35561 0.85711 0.79152 0.0
H438 H 0.25739 0.82425 0.75763 0.0
H439 H 0.26145 0.76643 0.77823 0.0
H440 H 0.35208 0.8736 0.74175 0.0
H441 H 0.23121 0.91891 0.79083 0.0
H442 H 0.25748 0.88139 0.80086 0.0
H443 H 0.22666 0.87653 0.77603 0.0
C444 C 0.33748 0.80443 0.80016 0.0
C445 C 0.31098 0.77837 0.79684 0.0
C446 C 0.33503 0.83741 0.78846 0.0
C447 C 0.30594 0.8452 0.77333 0.0
C448 C 0.27976 0.81904 0.76958 0.0
H449 H 0.27782 0.01246 0.66758 0.0
H450 H 0.29244 0.95751 0.68909 0.0
C451 C 0.28222 0.78594 0.78125 0.0
C452 C 0.30314 0.88071 0.76152 0.0
H453 H 0.2508 0.95492 0.75796 0.0
C454 C 0.33001 0.89145 0.74534 0.0
C455 C 0.27467 0.90423 0.76655 0.0
C456 C 0.24599 0.89494 0.78468 0.0
C457 C 0.32867 0.92469 0.73359 0.0
C458 C 0.2995 0.94766 0.73794 0.0
C459 C 0.27311 0.93727 0.75457 0.0
C460 C 0.29489 0.9819 0.7247 0.0
C461 C 0.35863 0.93504 0.71675 0.0
C462 C 0.29161 0.01409 0.73751 0.0
C463 C 0.2832 0.04572 0.72522 0.0
C464 C 0.27751 0.04561 0.69992 0.0
C465 C 0.28217 0.01357 0.68706 0.0
C466 C 0.29069 0.98207 0.69933 0.0
H467 H 0.3833 0.9198 0.7208 0.0
H468 H 0.35073 0.92915 0.69771 0.0
H469 H 0.36458 0.96393 0.7181 0.0
H470 H 0.29461 0.01455 0.75713 0.0
H471 H 0.27955 0.06986 0.73569 0.0
H472 H 0.73327 0.75227 0.28487 0.0
H473 H 0.6749 0.74984 0.26507 0.0
H474 H 0.66664 0.86422 0.26958 0.0
H475 H 0.72409 0.86653 0.29045 0.0
H476 H 0.60677 0.83683 0.28249 0.0
H477 H 0.64649 0.77033 0.19708 0.0
H478 H 0.65812 0.74393 0.22308 0.0
H479 H 0.67875 0.78677 0.21863 0.0
C480 C 0.71917 0.77691 0.28137 0.0
C481 C 0.73336 0.80959 0.28913 0.0
C482 C 0.68584 0.77554 0.2699 0.0
C483 C 0.66644 0.80692 0.26534 0.0
C484 C 0.68095 0.83961 0.27281 0.0
H485 H 0.48171 0.80046 0.16884 0.0
H486 H 0.53893 0.81544 0.18749 0.0
C487 C 0.7139 0.84092 0.28468 0.0
C488 C 0.63043 0.80568 0.25382 0.0
H489 H 0.5841 0.77175 0.20561 0.0
C490 C 0.60193 0.82288 0.26553 0.0
C491 C 0.62396 0.78809 0.23145 0.0
C492 C 0.65355 0.7716 0.21671 0.0
C493 C 0.56725 0.82235 0.25584 0.0
C494 C 0.56041 0.80296 0.23423 0.0
C495 C 0.58904 0.78638 0.22228 0.0
C496 C 0.5239 0.79881 0.2238 0.0
C497 C 0.53857 0.84324 0.26868 0.0
C498 C 0.49578 0.78549 0.23803 0.0
C499 C 0.46267 0.77782 0.22748 0.0
C500 C 0.45729 0.78238 0.20235 0.0
C501 C 0.48499 0.79681 0.18828 0.0
C502 C 0.51782 0.80514 0.19891 0.0
H503 H 0.55003 0.86594 0.27901 0.0
H504 H 0.51852 0.85378 0.25566 0.0
H505 H 0.5249 0.82565 0.28193 0.0
H506 H 0.49985 0.77934 0.25708 0.0
H507 H 0.4421 0.76611 0.23873 0.0
H508 H 0.64013 0.21837 0.79403 0.0
H509 H 0.64369 0.16016 0.7744 0.0
H510 H 0.757 0.17356 0.7654 0.0
H511 H 0.7532 0.23271 0.78397 0.0
H512 H 0.73093 0.14519 0.72648 0.0
H513 H 0.67625 0.0699 0.80444 0.0
H514 H 0.64551 0.10291 0.79377 0.0
H515 H 0.68761 0.1164 0.80656 0.0
C516 C 0.6658 0.20895 0.78779 0.0
C517 C 0.69643 0.23005 0.79067 0.0
C518 C 0.66787 0.17545 0.77679 0.0
C519 C 0.70078 0.16181 0.76903 0.0
C520 C 0.7313 0.18325 0.77139 0.0
H521 H 0.74624 0.93976 0.73661 0.0
H522 H 0.73513 0.99716 0.7562 0.0
C523 C 0.72913 0.21711 0.78198 0.0
C524 C 0.70333 0.12555 0.75808 0.0
H525 H 0.6814 0.03814 0.76704 0.0
C526 C 0.72022 0.12179 0.73544 0.0
C527 C 0.68997 0.09474 0.76988 0.0
C528 C 0.67419 0.09609 0.79511 0.0
C529 C 0.72387 0.08838 0.72422 0.0
C530 C 0.70887 0.05784 0.73542 0.0
C531 C 0.69231 0.06152 0.75819 0.0
C532 C 0.71156 0.0217 0.72432 0.0
C533 C 0.74489 0.08618 0.70086 0.0
C534 C 0.70041 0.0156 0.70025 0.0
C535 C 0.70726 0.98298 0.68892 0.0
C536 C 0.72441 0.95537 0.70166 0.0
C537 C 0.7328 0.96043 0.72635 0.0
C538 C 0.72661 0.99335 0.73754 0.0
H539 H 0.76339 0.10908 0.69889 0.0
H540 H 0.76069 0.06123 0.69998 0.0
H541 H 0.72628 0.08679 0.68517 0.0
H542 H 0.68749 0.0365 0.68992 0.0
H543 H 0.70024 0.97978 0.66992 0.0
H544 H 0.01389 0.27201 0.34636 0.0
H545 H 0.95782 0.28581 0.3259 0.0
H546 H 0.01276 0.29326 0.25725 0.0
H547 H 0.06917 0.27897 0.27759 0.0
H548 H 0.93367 0.34213 0.29681 0.0
H549 H 0.93823 0.21473 0.24561 0.0
H550 H 0.96752 0.224 0.27088 0.0
H551 H 0.97628 0.24308 0.24149 0.0
C552 C 0.01425 0.27713 0.32696 0.0
C553 C 0.04602 0.27407 0.31358 0.0
C554 C 0.9821 0.285 0.31529 0.0
C555 C 0.98096 0.2898 0.28999 0.0
C556 C 0.01293 0.28892 0.27674 0.0
H557 H 0.79775 0.36068 0.20575 0.0
H558 H 0.85489 0.35555 0.22668 0.0
C559 C 0.04521 0.28109 0.28843 0.0
C560 C 0.94605 0.29387 0.27751 0.0
H561 H 0.89011 0.25328 0.23703 0.0
C562 C 0.92417 0.32279 0.28367 0.0
C563 C 0.93339 0.2682 0.26075 0.0
C564 C 0.95485 0.23555 0.25439 0.0
C565 C 0.89017 0.32697 0.27331 0.0
C566 C 0.8779 0.30177 0.25608 0.0
C567 C 0.89962 0.27266 0.25013 0.0
C568 C 0.84269 0.3052 0.2439 0.0
C569 C 0.86739 0.35791 0.28128 0.0
C570 C 0.81697 0.27825 0.24622 0.0
C571 C 0.78419 0.281 0.23413 0.0
C572 C 0.77666 0.31067 0.21935 0.0
C573 C 0.80253 0.33757 0.21709 0.0
C574 C 0.83521 0.3348 0.22917 0.0
H575 H 0.8764 0.36892 0.29901 0.0
H576 H 0.86916 0.37945 0.2675 0.0
H577 H 0.83903 0.3499 0.28293 0.0
H578 H 0.82228 0.25506 0.25739 0.0
H579 H 0.76493 0.25977 0.23619 0.0
H580 H 0.24258 0.26539 0.73808 0.0
H581 H 0.2446 0.32224 0.76 0.0
H582 H 0.14961 0.35666 0.72263 0.0
H583 H 0.14725 0.30011 0.70081 0.0
H584 H 0.24938 0.39103 0.73915 0.0
H585 H 0.12686 0.37663 0.79468 0.0
H586 H 0.14832 0.33929 0.7801 0.0
H587 H 0.12073 0.36898 0.76267 0.0
C588 C 0.22196 0.28494 0.73469 0.0
C589 C 0.19472 0.27814 0.71773 0.0
C590 C 0.22317 0.31742 0.7472 0.0
C591 C 0.19699 0.34351 0.74317 0.0
C592 C 0.16971 0.3367 0.72636 0.0
H593 H 0.21826 0.56935 0.77858 0.0
H594 H 0.20446 0.5132 0.75789 0.0
C595 C 0.16855 0.30437 0.7138 0.0
C596 C 0.19903 0.37849 0.7557 0.0
H597 H 0.15439 0.43357 0.79466 0.0
C598 C 0.22864 0.40033 0.7513 0.0
C599 C 0.17202 0.39048 0.77166 0.0
C600 C 0.1403 0.36756 0.77779 0.0
C601 C 0.23183 0.43396 0.76225 0.0
C602 C 0.20446 0.4463 0.77779 0.0
C603 C 0.17504 0.4243 0.78244 0.0
C604 C 0.20726 0.48104 0.79054 0.0
C605 C 0.26488 0.45573 0.75752 0.0
C606 C 0.2115 0.48183 0.81589 0.0
C607 C 0.21922 0.51382 0.82775 0.0
C608 C 0.22263 0.54573 0.8145 0.0
C609 C 0.21578 0.54529 0.78933 0.0
C610 C 0.20821 0.51317 0.77744 0.0
H611 H 0.28642 0.43958 0.74918 0.0
H612 H 0.25828 0.47779 0.74484 0.0
H613 H 0.27505 0.46761 0.77467 0.0
H614 H 0.21064 0.45739 0.82636 0.0
H615 H 0.22422 0.51322 0.84717 0.0
H616 H 0.22318 0.64068 0.22522 0.0
H617 H 0.16478 0.6442 0.24456 0.0
H618 H 0.17325 0.75869 0.24688 0.0
H619 H 0.23256 0.75514 0.22853 0.0
H620 H 0.14564 0.73588 0.28733 0.0
H621 H 0.07365 0.66953 0.21214 0.0
H622 H 0.10787 0.64162 0.22455 0.0
H623 H 0.11963 0.68269 0.20961 0.0
C624 C 0.21266 0.66662 0.22994 0.0
C625 C 0.2324 0.69767 0.22521 0.0
C626 C 0.17905 0.66862 0.24078 0.0
C627 C 0.16397 0.70177 0.24655 0.0
C628 C 0.18409 0.73278 0.24243 0.0
H629 H 0.94014 0.74272 0.27581 0.0
H630 H 0.9981 0.73165 0.25699 0.0
C631 C 0.21804 0.73075 0.23197 0.0
C632 C 0.12751 0.70412 0.25718 0.0
H633 H 0.04113 0.67785 0.24893 0.0
C634 C 0.12279 0.7233 0.27885 0.0
C635 C 0.09741 0.68826 0.24595 0.0
C636 C 0.09978 0.66972 0.22165 0.0
C637 C 0.08912 0.7268 0.28971 0.0
C638 C 0.05934 0.70944 0.27915 0.0
C639 C 0.06396 0.6906 0.25732 0.0
C640 C 0.023 0.71189 0.28992 0.0
C641 C 0.08576 0.75011 0.31196 0.0
C642 C 0.01699 0.70278 0.31439 0.0
C643 C 0.98401 0.70955 0.32525 0.0
C644 C 0.95603 0.72463 0.3117 0.0
C645 C 0.9611 0.7309 0.28671 0.0
C646 C 0.99433 0.72475 0.27596 0.0
H647 H 0.10796 0.76956 0.3132 0.0
H648 H 0.06025 0.76505 0.31189 0.0
H649 H 0.0867 0.73321 0.32853 0.0
H650 H 0.0382 0.69157 0.32535 0.0
H651 H 0.98083 0.70417 0.3445 0.0
H652 H 0.80628 0.48276 0.84021 0.0
H653 H 0.81941 0.54013 0.82111 0.0
H654 H 0.78505 0.4987 0.75174 0.0
H655 H 0.77378 0.44073 0.77054 0.0
H656 H 0.83711 0.54317 0.74474 0.0
H657 H 0.74094 0.60788 0.8068 0.0
H658 H 0.77723 0.58788 0.82303 0.0
H659 H 0.74691 0.56032 0.80594 0.0
C660 C 0.80242 0.48565 0.82076 0.0
C661 C 0.78884 0.4573 0.80689 0.0
C662 C 0.80944 0.51863 0.80991 0.0
C663 C 0.80188 0.5243 0.78514 0.0
C664 C 0.79072 0.49523 0.77094 0.0
H665 H 0.75345 0.73179 0.72237 0.0
H666 H 0.75184 0.67268 0.7412 0.0
C667 C 0.78447 0.46198 0.78168 0.0
C668 C 0.80389 0.56069 0.77429 0.0
H669 H 0.77459 0.64623 0.78144 0.0
C670 C 0.82337 0.56568 0.75275 0.0
C671 C 0.78526 0.59005 0.78434 0.0
C672 C 0.7611 0.58624 0.80613 0.0
C673 C 0.825 0.59905 0.74114 0.0
C674 C 0.80783 0.62878 0.75187 0.0
C675 C 0.78817 0.6237 0.77332 0.0
C676 C 0.80904 0.66514 0.74089 0.0
C677 C 0.84409 0.6016 0.71705 0.0
C678 C 0.84168 0.68119 0.73492 0.0
C679 C 0.84255 0.71464 0.72371 0.0
C680 C 0.81087 0.73332 0.7189 0.0
C681 C 0.7783 0.71808 0.72589 0.0
C682 C 0.77739 0.68424 0.73663 0.0
H683 H 0.84528 0.57535 0.70777 0.0
H684 H 0.83086 0.62089 0.70466 0.0
H685 H 0.87188 0.61049 0.72021 0.0
H686 H 0.86657 0.6678 0.73882 0.0
H687 H 0.8681 0.7259 0.7188 0.0
loop_
_geom_bond_atom_site_label_1
_geom_bond_atom_site_label_2
_geom_bond_distance
_geom_bond_site_symmetry_2
_ccdc_geom_bond_type
O0 Cd1 2.223 . S
O0 C8 1.315 . S
Cd1 O0 2.223 . S
Cd1 O4 2.297 . S
Cd1 O5 2.439 . S
Cd1 O11 2.240 . S
Cd2 O3 2.240 . S
Cd2 O10 2.223 . S
Cd2 O12 2.297 . S
Cd2 O13 2.439 . S
O3 Cd2 2.240 . S
O3 C8 1.279 . S
O4 Cd1 2.297 . S
O4 C6 1.247 . S
O5 Cd1 2.439 . S
O5 C6 1.208 . S
C6 O4 1.247 . S
C6 O5 1.208 . S
C7 O12 1.247 . S
C7 O13 1.208 . S
C8 O0 1.315 . S
C8 O3 1.279 . S
C9 O10 1.315 . S
C9 O11 1.279 . S
O10 Cd2 2.223 . S
O10 C9 1.315 . S
O11 Cd1 2.240 . S
O11 C9 1.279 . S
O12 Cd2 2.297 . S
O12 C7 1.247 . S
O13 Cd2 2.439 . S
O13 C7 1.208 . S
O14 Cd15 2.223 . S
O14 C22 1.315 . S
Cd15 O14 2.223 . S
Cd15 O18 2.297 . S
Cd15 O19 2.439 . S
Cd15 O25 2.240 . S
Cd16 O17 2.240 . S
Cd16 O24 2.223 . S
Cd16 O26 2.297 . S
Cd16 O27 2.439 . S
O17 Cd16 2.240 . S
O17 C22 1.279 . S
O18 Cd15 2.297 . S
O18 C20 1.247 . S
O19 Cd15 2.439 . S
O19 C20 1.208 . S
C20 O18 1.247 . S
C20 O19 1.208 . S
C21 O26 1.247 . S
C21 O27 1.208 . S
C22 O14 1.315 . S
C22 O17 1.279 . S
C23 O24 1.315 . S
C23 O25 1.279 . S
O24 Cd16 2.223 . S
O24 C23 1.315 . S
O25 Cd15 2.240 . S
O25 C23 1.279 . S
O26 Cd16 2.297 . S
O26 C21 1.247 . S
O27 Cd16 2.439 . S
O27 C21 1.208 . S
O28 Cd29 2.223 . S
O28 C36 1.315 . S
Cd29 O28 2.223 . S
Cd29 O32 2.297 . S
Cd29 O33 2.439 . S
Cd29 O39 2.240 . S
Cd30 O31 2.240 . S
Cd30 O38 2.223 . S
Cd30 O40 2.297 . S
Cd30 O41 2.439 . S
O31 Cd30 2.240 . S
O31 C36 1.279 . S
O32 Cd29 2.297 . S
O32 C34 1.247 . S
O33 Cd29 2.439 . S
O33 C34 1.208 . S
C34 O32 1.247 . S
C34 O33 1.208 . S
C35 O40 1.247 . S
C35 O41 1.208 . S
C36 O28 1.315 . S
C36 O31 1.279 . S
C37 O38 1.315 . S
C37 O39 1.279 . S
O38 Cd30 2.223 . S
O38 C37 1.315 . S
O39 Cd29 2.240 . S
O39 C37 1.279 . S
O40 Cd30 2.297 . S
O40 C35 1.247 . S
O41 Cd30 2.439 . S
O41 C35 1.208 . S
O42 Cd43 2.223 . S
O42 C50 1.315 . S
Cd43 O42 2.223 . S
Cd43 O46 2.297 . S
Cd43 O47 2.439 . S
Cd43 O53 2.240 . S
Cd44 O45 2.240 . S
Cd44 O52 2.223 . S
Cd44 O54 2.297 . S
Cd44 O55 2.439 . S
O45 Cd44 2.240 . S
O45 C50 1.279 . S
O46 Cd43 2.297 . S
O46 C48 1.247 . S
O47 Cd43 2.439 . S
O47 C48 1.208 . S
C48 O46 1.247 . S
C48 O47 1.208 . S
C49 O54 1.247 . S
C49 O55 1.208 . S
C50 O42 1.315 . S
C50 O45 1.279 . S
C51 O52 1.315 . S
C51 O53 1.279 . S
O52 Cd44 2.223 . S
O52 C51 1.315 . S
O53 Cd43 2.240 . S
O53 C51 1.279 . S
O54 Cd44 2.297 . S
O54 C49 1.247 . S
O55 Cd44 2.439 . S
O55 C49 1.208 . S
O56 Cd57 2.223 . S
O56 C64 1.315 . S
Cd57 O56 2.223 . S
Cd57 O60 2.297 . S
Cd57 O61 2.439 . S
Cd57 O67 2.240 . S
Cd58 O59 2.240 . S
Cd58 O66 2.223 . S
Cd58 O68 2.297 . S
Cd58 O69 2.439 . S
O59 Cd58 2.240 . S
O59 C64 1.279 . S
O60 Cd57 2.297 . S
O60 C62 1.247 . S
O61 Cd57 2.439 . S
O61 C62 1.208 . S
C62 O60 1.247 . S
C62 O61 1.208 . S
C63 O68 1.247 . S
C63 O69 1.208 . S
C64 O56 1.315 . S
C64 O59 1.279 . S
C65 O66 1.315 . S
C65 O67 1.279 . S
O66 Cd58 2.223 . S
O66 C65 1.315 . S
O67 Cd57 2.240 . S
O67 C65 1.279 . S
O68 Cd58 2.297 . S
O68 C63 1.247 . S
O69 Cd58 2.439 . S
O69 C63 1.208 . S
O70 Cd71 2.223 . S
O70 C78 1.315 . S
Cd71 O70 2.223 . S
Cd71 O74 2.297 . S
Cd71 O75 2.439 . S
Cd71 O81 2.240 . S
Cd72 O73 2.240 . S
Cd72 O80 2.223 . S
Cd72 O82 2.297 . S
Cd72 O83 2.439 . S
O73 Cd72 2.240 . S
O73 C78 1.279 . S
O74 Cd71 2.297 . S
O74 C76 1.247 . S
O75 Cd71 2.439 . S
O75 C76 1.208 . S
C76 O74 1.247 . S
C76 O75 1.208 . S
C77 O82 1.247 . S
C77 O83 1.208 . S
C78 O70 1.315 . S
C78 O73 1.279 . S
C79 O80 1.315 . S
C79 O81 1.279 . S
O80 Cd72 2.223 . S
O80 C79 1.315 . S
O81 Cd71 2.240 . S
O81 C79 1.279 . S
O82 Cd72 2.297 . S
O82 C77 1.247 . S
O83 Cd72 2.439 . S
O83 C77 1.208 . S
O84 Cd85 2.223 . S
O84 C92 1.315 . S
Cd85 O84 2.223 . S
Cd85 O88 2.297 . S
Cd85 O89 2.439 . S
Cd85 O95 2.240 . S
Cd86 O87 2.240 . S
Cd86 O94 2.223 . S
Cd86 O96 2.297 . S
Cd86 O97 2.439 . S
O87 Cd86 2.240 . S
O87 C92 1.279 . S
O88 Cd85 2.297 . S
O88 C90 1.247 . S
O89 Cd85 2.439 . S
O89 C90 1.208 . S
C90 O88 1.247 . S
C90 O89 1.208 . S
C91 O96 1.247 . S
C91 O97 1.208 . S
C92 O84 1.315 . S
C92 O87 1.279 . S
C93 O94 1.315 . S
C93 O95 1.279 . S
O94 Cd86 2.223 . S
O94 C93 1.315 . S
O95 Cd85 2.240 . S
O95 C93 1.279 . S
O96 Cd86 2.297 . S
O96 C91 1.247 . S
O97 Cd86 2.439 . S
O97 C91 1.208 . S
O98 Cd99 2.223 . S
O98 C106 1.315 . S
Cd99 O98 2.223 . S
Cd99 O102 2.297 . S
Cd99 O103 2.439 . S
Cd99 O109 2.240 . S
Cd100 O101 2.240 . S
Cd100 O108 2.223 . S
Cd100 O110 2.297 . S
Cd100 O111 2.439 . S
O101 Cd100 2.240 . S
O101 C106 1.279 . S
O102 Cd99 2.297 . S
O102 C104 1.247 . S
O103 Cd99 2.439 . S
O103 C104 1.208 . S
C104 O102 1.247 . S
C104 O103 1.208 . S
C105 O110 1.247 . S
C105 O111 1.208 . S
C106 O98 1.315 . S
C106 O101 1.279 . S
C107 O108 1.315 . S
C107 O109 1.279 . S
O108 Cd100 2.223 . S
O108 C107 1.315 . S
O109 Cd99 2.240 . S
O109 C107 1.279 . S
O110 Cd100 2.297 . S
O110 C105 1.247 . S
O111 Cd100 2.439 . S
O111 C105 1.208 . S
H112 C120 0.929 . S
H113 C122 0.930 . S
H114 C124 0.930 . S
H115 C127 0.929 . S
H116 C130 0.930 . S
H117 C132 0.960 1_565 S
H118 C132 0.960 . S
H119 C132 0.960 . S
C120 H112 0.929 . S
C120 C121 1.377 . S
C120 C122 1.384 . S
C121 C120 1.377 . S
C121 C127 1.390 . S
C122 H113 0.930 . S
C122 C120 1.384 . S
C122 C123 1.372 . S
C123 C122 1.372 . S
C123 C124 1.400 . S
C123 C128 1.490 . S
C124 H114 0.930 . S
C124 C123 1.400 . S
C124 C127 1.386 . S
H125 C141 0.930 . S
H126 C142 0.931 . S
C127 H115 0.929 . S
C127 C121 1.390 . S
C127 C124 1.386 . S
C128 C123 1.490 . S
C128 C130 1.395 1_455 S
C128 C131 1.403 . S
H129 C135 0.930 . S
C130 H116 0.930 . S
C130 C128 1.395 1_655 S
C130 C133 1.403 1_545 S
C131 C128 1.403 . S
C131 C132 1.524 . S
C131 C135 1.400 1_545 S
C132 H117 0.960 1_545 S
C132 H118 0.960 . S
C132 H119 0.960 . S
C132 C131 1.524 . S
C133 C130 1.403 1_565 S
C133 C134 1.392 . S
C133 C137 1.495 . S
C134 C133 1.392 . S
C134 C135 1.385 1_655 S
C134 C136 1.478 . S
C135 H129 0.930 . S
C135 C131 1.400 1_565 S
C135 C134 1.385 1_455 S
C136 C134 1.478 . S
C136 C138 1.381 . S
C136 C142 1.383 . S
C137 C133 1.495 . S
C137 H143 0.959 1_565 S
C137 H144 0.961 . S
C137 H145 0.960 . S
C138 C136 1.381 . S
C138 C139 1.394 . S
C138 H146 0.930 . S
C139 C138 1.394 . S
C139 C140 1.383 . S
C139 H147 0.929 . S
C140 C139 1.383 . S
C140 C141 1.377 . S
C141 H125 0.930 . S
C141 C140 1.377 . S
C141 C142 1.379 . S
C142 H126 0.931 . S
C142 C136 1.383 . S
C142 C141 1.379 . S
H143 C137 0.959 1_545 S
H144 C137 0.961 . S
H145 C137 0.960 . S
H146 C138 0.930 . S
H147 C139 0.929 . S
H148 C156 0.929 . S
H149 C158 0.930 . S
H150 C160 0.930 . S
H151 C163 0.929 . S
H152 C166 0.930 . S
H153 C168 0.960 . S
H154 C168 0.960 . S
H155 C168 0.960 . S
C156 H148 0.929 . S
C156 C157 1.377 . S
C156 C158 1.384 . S
C157 C156 1.377 . S
C157 C163 1.390 . S
C158 H149 0.930 . S
C158 C156 1.384 . S
C158 C159 1.372 . S
C159 C158 1.372 . S
C159 C160 1.400 . S
C159 C164 1.490 . S
C160 H150 0.930 . S
C160 C159 1.400 . S
C160 C163 1.386 . S
H161 C177 0.930 . S
H162 C178 0.931 . S
C163 H151 0.929 . S
C163 C157 1.390 . S
C163 C160 1.386 . S
C164 C159 1.490 . S
C164 C166 1.395 . S
C164 C167 1.403 . S
H165 C171 0.930 . S
C166 H152 0.930 . S
C166 C164 1.395 . S
C166 C169 1.403 . S
C167 C164 1.403 . S
C167 C168 1.524 . S
C167 C171 1.400 . S
C168 H153 0.960 . S
C168 H154 0.960 . S
C168 H155 0.960 . S
C168 C167 1.524 . S
C169 C166 1.403 . S
C169 C170 1.392 . S
C169 C173 1.495 . S
C170 C169 1.392 . S
C170 C171 1.385 . S
C170 C172 1.478 . S
C171 H165 0.930 . S
C171 C167 1.400 . S
C171 C170 1.385 . S
C172 C170 1.478 . S
C172 C174 1.381 . S
C172 C178 1.383 . S
C173 C169 1.495 . S
C173 H179 0.959 . S
C173 H180 0.961 . S
C173 H181 0.960 . S
C174 C172 1.381 . S
C174 C175 1.394 . S
C174 H182 0.930 . S
C175 C174 1.394 . S
C175 C176 1.383 . S
C175 H183 0.929 . S
C176 C175 1.383 . S
C176 C177 1.377 . S
C177 H161 0.930 . S
C177 C176 1.377 . S
C177 C178 1.379 . S
C178 H162 0.931 . S
C178 C172 1.383 . S
C178 C177 1.379 . S
H179 C173 0.959 . S
H180 C173 0.961 . S
H181 C173 0.960 . S
H182 C174 0.930 . S
H183 C175 0.929 . S
H184 C192 0.929 . S
H185 C194 0.930 . S
H186 C196 0.930 . S
H187 C199 0.929 . S
H188 C202 0.930 . S
H189 C204 0.960 . S
H190 C204 0.960 . S
H191 C204 0.960 . S
C192 H184 0.929 . S
C192 C193 1.377 . S
C192 C194 1.384 . S
C193 C192 1.377 . S
C193 C199 1.390 . S
C194 H185 0.930 . S
C194 C192 1.384 . S
C194 C195 1.372 . S
C195 C194 1.372 . S
C195 C196 1.400 . S
C195 C200 1.490 . S
C196 H186 0.930 . S
C196 C195 1.400 . S
C196 C199 1.386 . S
H197 C213 0.930 . S
H198 C214 0.931 . S
C199 H187 0.929 . S
C199 C193 1.390 . S
C199 C196 1.386 . S
C200 C195 1.490 . S
C200 C202 1.395 . S
C200 C203 1.403 . S
H201 C207 0.930 . S
C202 H188 0.930 . S
C202 C200 1.395 . S
C202 C205 1.403 . S
C203 C200 1.403 . S
C203 C204 1.524 . S
C203 C207 1.400 . S
C204 H189 0.960 . S
C204 H190 0.960 . S
C204 H191 0.960 . S
C204 C203 1.524 . S
C205 C202 1.403 . S
C205 C206 1.392 . S
C205 C209 1.495 . S
C206 C205 1.392 . S
C206 C207 1.385 . S
C206 C208 1.478 . S
C207 H201 0.930 . S
C207 C203 1.400 . S
C207 C206 1.385 . S
C208 C206 1.478 . S
C208 C210 1.381 . S
C208 C214 1.383 . S
C209 C205 1.495 . S
C209 H215 0.959 . S
C209 H216 0.961 . S
C209 H217 0.960 . S
C210 C208 1.381 . S
C210 C211 1.394 . S
C210 H218 0.930 . S
C211 C210 1.394 . S
C211 C212 1.383 . S
C211 H219 0.929 . S
C212 C211 1.383 . S
C212 C213 1.377 . S
C213 H197 0.930 . S
C213 C212 1.377 . S
C213 C214 1.379 . S
C214 H198 0.931 . S
C214 C208 1.383 . S
C214 C213 1.379 . S
H215 C209 0.959 . S
H216 C209 0.961 . S
H217 C209 0.960 . S
H218 C210 0.930 . S
H219 C211 0.929 . S
H220 C228 0.929 . S
H221 C230 0.930 . S
H222 C232 0.930 . S
H223 C235 0.929 . S
H224 C238 0.930 . S
H225 C240 0.960 1_655 S
H226 C240 0.960 . S
H227 C240 0.960 . S
C228 H220 0.929 . S
C228 C229 1.377 . S
C228 C230 1.384 . S
C229 C228 1.377 . S
C229 C235 1.390 . S
C230 H221 0.930 . S
C230 C228 1.384 . S
C230 C231 1.372 . S
C231 C230 1.372 . S
C231 C232 1.400 . S
C231 C236 1.490 . S
C232 H222 0.930 . S
C232 C231 1.400 . S
C232 C235 1.386 . S
H233 C249 0.930 . S
H234 C250 0.931 . S
C235 H223 0.929 . S
C235 C229 1.390 . S
C235 C232 1.386 . S
C236 C231 1.490 . S
C236 C238 1.395 1_545 S
C236 C239 1.403 . S
H237 C243 0.930 . S
C238 H224 0.930 . S
C238 C236 1.395 1_565 S
C238 C241 1.388 1_455 S
C239 C236 1.403 . S
C239 C240 1.524 . S
C239 C243 1.400 1_455 S
C240 H225 0.960 1_455 S
C240 H226 0.960 . S
C240 H227 0.960 . S
C240 C239 1.524 . S
C241 C238 1.388 1_655 S
C241 C242 1.407 . S
C241 C245 1.496 . S
C242 C241 1.407 . S
C242 C243 1.385 1_565 S
C242 C244 1.478 . S
C243 H237 0.930 . S
C243 C239 1.400 1_655 S
C243 C242 1.385 1_545 S
C244 C242 1.478 . S
C244 C246 1.381 . S
C244 C250 1.383 . S
C245 C241 1.496 . S
C245 H251 0.959 1_655 S
C245 H252 0.961 . S
C245 H253 0.960 . S
C246 C244 1.381 . S
C246 C247 1.394 . S
C246 H254 0.930 . S
C247 C246 1.394 . S
C247 C248 1.383 . S
C247 H255 0.929 . S
C248 C247 1.383 . S
C248 C249 1.377 . S
C249 H233 0.930 . S
C249 C248 1.377 . S
C249 C250 1.379 . S
C250 H234 0.931 . S
C250 C244 1.383 . S
C250 C249 1.379 . S
H251 C245 0.959 1_455 S
H252 C245 0.961 . S
H253 C245 0.960 . S
H254 C246 0.930 . S
H255 C247 0.929 . S
H256 C264 0.929 . S
H257 C266 0.930 . S
H258 C268 0.930 . S
H259 C271 0.929 . S
H260 C274 0.930 . S
H261 C276 0.960 . S
H262 C276 0.960 . S
H263 C276 0.960 . S
C264 H256 0.929 . S
C264 C265 1.377 . S
C264 C266 1.384 . S
C265 C264 1.377 . S
C265 C271 1.390 . S
C266 H257 0.930 . S
C266 C264 1.384 . S
C266 C267 1.372 . S
C267 C266 1.372 . S
C267 C268 1.400 . S
C267 C272 1.490 . S
C268 H258 0.930 . S
C268 C267 1.400 . S
C268 C271 1.386 . S
H269 C285 0.930 . S
H270 C286 0.931 . S
C271 H259 0.929 . S
C271 C265 1.390 . S
C271 C268 1.386 . S
C272 C267 1.490 . S
C272 C274 1.395 . S
C272 C275 1.403 . S
H273 C279 0.930 . S
C274 H260 0.930 . S
C274 C272 1.395 . S
C274 C277 1.403 . S
C275 C272 1.403 . S
C275 C276 1.524 . S
C275 C279 1.400 . S
C276 H261 0.960 . S
C276 H262 0.960 . S
C276 H263 0.960 . S
C276 C275 1.524 . S
C277 C274 1.403 . S
C277 C278 1.392 . S
C277 C281 1.495 . S
C278 C277 1.392 . S
C278 C279 1.385 . S
C278 C280 1.478 . S
C279 H273 0.930 . S
C279 C275 1.400 . S
C279 C278 1.385 . S
C280 C278 1.478 . S
C280 C282 1.381 . S
C280 C286 1.383 . S
C281 C277 1.495 . S
C281 H287 0.959 . S
C281 H288 0.961 . S
C281 H289 0.960 . S
C282 C280 1.381 . S
C282 C283 1.394 . S
C282 H290 0.930 . S
C283 C282 1.394 . S
C283 C284 1.383 . S
C283 H291 0.929 . S
C284 C283 1.383 . S
C284 C285 1.377 . S
C285 H269 0.930 . S
C285 C284 1.377 . S
C285 C286 1.379 . S
C286 H270 0.931 . S
C286 C280 1.383 . S
C286 C285 1.379 . S
H287 C281 0.959 . S
H288 C281 0.961 . S
H289 C281 0.960 . S
H290 C282 0.930 . S
H291 C283 0.929 . S
H292 C300 0.929 . S
H293 C302 0.930 . S
H294 C304 0.930 . S
H295 C307 0.929 . S
H296 C310 0.930 . S
H297 C312 0.941 1_554 S
H298 C312 0.960 . S
H299 C312 0.960 . S
C300 H292 0.929 . S
C300 C301 1.377 . S
C300 C302 1.384 . S
C301 C300 1.377 . S
C301 C307 1.390 . S
C302 H293 0.930 . S
C302 C300 1.384 . S
C302 C303 1.372 . S
C303 C302 1.372 . S
C303 C304 1.400 . S
C303 C308 1.490 . S
C304 H294 0.930 . S
C304 C303 1.400 . S
C304 C307 1.386 . S
H305 C321 0.930 . S
H306 C322 0.931 . S
C307 H295 0.929 . S
C307 C301 1.390 . S
C307 C304 1.386 . S
C308 C303 1.490 . S
C308 C310 1.395 . S
C308 C311 1.403 . S
H309 C315 0.930 . S
C310 H296 0.930 . S
C310 C308 1.395 . S
C310 C313 1.403 1_556 S
C311 C308 1.403 . S
C311 C312 1.524 . S
C311 C315 1.400 1_556 S
C312 H297 0.941 1_556 S
C312 H298 0.960 . S
C312 H299 0.960 . S
C312 C311 1.524 . S
C313 C310 1.403 1_554 S
C313 C314 1.392 . S
C313 C317 1.495 . S
C314 C313 1.392 . S
C314 C315 1.385 . S
C314 C316 1.478 . S
C315 H309 0.930 . S
C315 C311 1.400 1_554 S
C315 C314 1.385 . S
C316 C314 1.478 . S
C316 C318 1.381 . S
C316 C322 1.383 . S
C317 C313 1.495 . S
C317 H323 0.959 1_554 S
C317 H324 0.961 . S
C317 H325 0.960 . S
C318 C316 1.381 . S
C318 C319 1.394 . S
C318 H326 0.930 . S
C319 C318 1.394 . S
C319 C320 1.383 . S
C319 H327 0.929 . S
C320 C319 1.383 . S
C320 C321 1.377 . S
C321 H305 0.930 . S
C321 C320 1.377 . S
C321 C322 1.379 . S
C322 H306 0.931 . S
C322 C316 1.383 . S
C322 C321 1.379 . S
H323 C317 0.959 1_556 S
H324 C317 0.961 . S
H325 C317 0.960 . S
H326 C318 0.930 . S
H327 C319 0.929 . S
H328 C336 0.929 . S
H329 C338 0.930 . S
H330 C340 0.930 . S
H331 C343 0.929 . S
H332 C346 0.930 . S
H333 C348 0.960 . S
H334 C348 0.960 . S
H335 C348 0.960 . S
C336 H328 0.929 . S
C336 C337 1.377 . S
C336 C338 1.384 . S
C337 C336 1.377 . S
C337 C343 1.390 . S
C338 H329 0.930 . S
C338 C336 1.384 . S
C338 C339 1.372 . S
C339 C338 1.372 . S
C339 C340 1.400 . S
C339 C344 1.490 . S
C340 H330 0.930 . S
C340 C339 1.400 . S
C340 C343 1.386 . S
H341 C357 0.930 . S
H342 C358 0.931 . S
C343 H331 0.929 . S
C343 C337 1.390 . S
C343 C340 1.386 . S
C344 C339 1.490 . S
C344 C346 1.395 . S
C344 C347 1.403 . S
H345 C351 0.930 . S
C346 H332 0.930 . S
C346 C344 1.395 . S
C346 C349 1.403 . S
C347 C344 1.403 . S
C347 C348 1.524 . S
C347 C351 1.400 . S
C348 H333 0.960 . S
C348 H334 0.960 . S
C348 H335 0.960 . S
C348 C347 1.524 . S
C349 C346 1.403 . S
C349 C350 1.392 . S
C349 C353 1.495 . S
C350 C349 1.392 . S
C350 C351 1.385 . S
C350 C352 1.478 . S
C351 H345 0.930 . S
C351 C347 1.400 . S
C351 C350 1.385 . S
C352 C350 1.478 . S
C352 C354 1.381 . S
C352 C358 1.383 . S
C353 C349 1.495 . S
C353 H359 0.959 . S
C353 H360 0.961 . S
C353 H361 0.960 . S
C354 C352 1.381 . S
C354 C355 1.394 . S
C354 H362 0.930 . S
C355 C354 1.394 . S
C355 C356 1.383 . S
C355 H363 0.929 . S
C356 C355 1.383 . S
C356 C357 1.377 . S
C357 H341 0.930 . S
C357 C356 1.377 . S
C357 C358 1.379 . S
C358 H342 0.931 . S
C358 C352 1.383 . S
C358 C357 1.379 . S
H359 C353 0.959 . S
H360 C353 0.961 . S
H361 C353 0.960 . S
H362 C354 0.930 . S
H363 C355 0.929 . S
H364 C372 0.929 . S
H365 C374 0.930 . S
H366 C376 0.930 . S
H367 C379 0.929 . S
H368 C382 0.930 . S
H369 C384 0.960 . S
H370 C384 0.960 . S
H371 C384 0.960 . S
C372 H364 0.929 . S
C372 C373 1.377 . S
C372 C374 1.384 . S
C373 C372 1.377 . S
C373 C379 1.390 . S
C374 H365 0.930 . S
C374 C372 1.384 . S
C374 C375 1.372 . S
C375 C374 1.372 . S
C375 C376 1.400 . S
C375 C380 1.490 . S
C376 H366 0.930 . S
C376 C375 1.400 . S
C376 C379 1.386 . S
H377 C393 0.930 . S
H378 C394 0.931 . S
C379 H367 0.929 . S
C379 C373 1.390 . S
C379 C376 1.386 . S
C380 C375 1.490 . S
C380 C382 1.395 . S
C380 C383 1.403 . S
H381 C387 0.930 . S
C382 H368 0.930 . S
C382 C380 1.395 . S
C382 C385 1.403 1_556 S
C383 C380 1.403 . S
C383 C384 1.524 . S
C383 C387 1.400 1_556 S
C384 H369 0.960 . S
C384 H370 0.960 . S
C384 H371 0.960 . S
C384 C383 1.524 . S
C385 C382 1.403 1_554 S
C385 C386 1.392 . S
C385 C389 1.495 . S
C386 C385 1.392 . S
C386 C387 1.385 . S
C386 C388 1.478 . S
C387 H381 0.930 . S
C387 C383 1.400 1_554 S
C387 C386 1.385 . S
C388 C386 1.478 . S
C388 C390 1.381 . S
C388 C394 1.383 . S
C389 C385 1.495 . S
C389 H395 0.959 . S
C389 H396 0.961 . S
C389 H397 0.960 . S
C390 C388 1.381 . S
C390 C391 1.394 . S
C390 H398 0.930 . S
C391 C390 1.394 . S
C391 C392 1.383 . S
C391 H399 0.929 . S
C392 C391 1.383 . S
C392 C393 1.377 . S
C393 H377 0.930 . S
C393 C392 1.377 . S
C393 C394 1.379 . S
C394 H378 0.931 . S
C394 C388 1.383 . S
C394 C393 1.379 . S
H395 C389 0.959 . S
H396 C389 0.961 . S
H397 C389 0.960 . S
H398 C390 0.930 . S
H399 C391 0.929 . S
H400 C408 0.929 . S
H401 C410 0.930 . S
H402 C412 0.930 . S
H403 C415 0.929 . S
H404 C418 0.930 . S
H405 C420 0.960 . S
H406 C420 0.960 . S
H407 C420 0.960 . S
C408 H400 0.929 . S
C408 C409 1.377 . S
C408 C410 1.384 . S
C409 C408 1.377 . S
C409 C415 1.390 . S
C410 H401 0.930 . S
C410 C408 1.384 . S
C410 C411 1.372 . S
C411 C410 1.372 . S
C411 C412 1.400 . S
C411 C416 1.490 . S
C412 H402 0.930 . S
C412 C411 1.400 . S
C412 C415 1.386 . S
H413 C429 0.930 . S
H414 C430 0.931 . S
C415 H403 0.929 . S
C415 C409 1.390 . S
C415 C412 1.386 . S
C416 C411 1.490 . S
C416 C418 1.395 . S
C416 C419 1.403 . S
H417 C423 0.930 . S
C418 H404 0.930 . S
C418 C416 1.395 . S
C418 C421 1.403 . S
C419 C416 1.403 . S
C419 C420 1.524 . S
C419 C423 1.400 . S
C420 H405 0.960 . S
C420 H406 0.960 . S
C420 H407 0.960 . S
C420 C419 1.524 . S
C421 C418 1.403 . S
C421 C422 1.392 . S
C421 C425 1.495 . S
C422 C421 1.392 . S
C422 C423 1.385 . S
C422 C424 1.478 . S
C423 H417 0.930 . S
C423 C419 1.400 . S
C423 C422 1.385 . S
C424 C422 1.478 . S
C424 C426 1.381 . S
C424 C430 1.383 . S
C425 C421 1.495 . S
C425 H431 0.959 . S
C425 H432 0.961 . S
C425 H433 0.960 . S
C426 C424 1.381 . S
C426 C427 1.394 . S
C426 H434 0.930 . S
C427 C426 1.394 . S
C427 C428 1.383 . S
C427 H435 0.929 . S
C428 C427 1.383 . S
C428 C429 1.377 . S
C429 H413 0.930 . S
C429 C428 1.377 . S
C429 C430 1.379 . S
C430 H414 0.931 . S
C430 C424 1.383 . S
C430 C429 1.379 . S
H431 C425 0.959 . S
H432 C425 0.961 . S
H433 C425 0.960 . S
H434 C426 0.930 . S
H435 C427 0.929 . S
H436 C444 0.929 . S
H437 C446 0.930 . S
H438 C448 0.930 . S
H439 C451 0.929 . S
H440 C454 0.930 . S
H441 C456 0.960 . S
H442 C456 0.960 . S
H443 C456 0.960 . S
C444 H436 0.929 . S
C444 C445 1.377 . S
C444 C446 1.384 . S
C445 C444 1.377 . S
C445 C451 1.390 . S
C446 H437 0.930 . S
C446 C444 1.384 . S
C446 C447 1.372 . S
C447 C446 1.372 . S
C447 C448 1.400 . S
C447 C452 1.490 . S
C448 H438 0.930 . S
C448 C447 1.400 . S
C448 C451 1.386 . S
H449 C465 0.930 . S
H450 C466 0.931 . S
C451 H439 0.929 . S
C451 C445 1.390 . S
C451 C448 1.386 . S
C452 C447 1.490 . S
C452 C454 1.395 . S
C452 C455 1.403 . S
H453 C459 0.930 . S
C454 H440 0.930 . S
C454 C452 1.395 . S
C454 C457 1.403 . S
C455 C452 1.403 . S
C455 C456 1.524 . S
C455 C459 1.400 . S
C456 H441 0.960 . S
C456 H442 0.960 . S
C456 H443 0.960 . S
C456 C455 1.524 . S
C457 C454 1.403 . S
C457 C458 1.392 . S
C457 C461 1.495 . S
C458 C457 1.392 . S
C458 C459 1.385 . S
C458 C460 1.478 . S
C459 H453 0.930 . S
C459 C455 1.400 . S
C459 C458 1.385 . S
C460 C458 1.478 . S
C460 C462 1.381 . S
C460 C466 1.383 . S
C461 C457 1.495 . S
C461 H467 0.959 . S
C461 H468 0.961 . S
C461 H469 0.960 . S
C462 C460 1.381 . S
C462 C463 1.394 . S
C462 H470 0.930 . S
C463 C462 1.394 . S
C463 C464 1.383 . S
C463 H471 0.929 . S
C464 C463 1.383 . S
C464 C465 1.377 . S
C465 H449 0.930 . S
C465 C464 1.377 . S
C465 C466 1.379 . S
C466 H450 0.931 . S
C466 C460 1.383 . S
C466 C465 1.379 . S
H467 C461 0.959 . S
H468 C461 0.961 . S
H469 C461 0.960 . S
H470 C462 0.930 . S
H471 C463 0.929 . S
H472 C480 0.929 . S
H473 C482 0.930 . S
H474 C484 0.930 . S
H475 C487 0.929 . S
H476 C490 0.930 . S
H477 C492 0.960 . S
H478 C492 0.960 . S
H479 C492 0.960 . S
C480 H472 0.929 . S
C480 C481 1.377 . S
C480 C482 1.384 . S
C481 C480 1.377 . S
C481 C487 1.390 . S
C482 H473 0.930 . S
C482 C480 1.384 . S
C482 C483 1.372 . S
C483 C482 1.372 . S
C483 C484 1.400 . S
C483 C488 1.490 . S
C484 H474 0.930 . S
C484 C483 1.400 . S
C484 C487 1.386 . S
H485 C501 0.930 . S
H486 C502 0.931 . S
C487 H475 0.929 . S
C487 C481 1.390 . S
C487 C484 1.386 . S
C488 C483 1.490 . S
C488 C490 1.395 . S
C488 C491 1.403 . S
H489 C495 0.930 . S
C490 H476 0.930 . S
C490 C488 1.395 . S
C490 C493 1.403 . S
C491 C488 1.403 . S
C491 C492 1.524 . S
C491 C495 1.400 . S
C492 H477 0.960 . S
C492 H478 0.960 . S
C492 H479 0.960 . S
C492 C491 1.524 . S
C493 C490 1.403 . S
C493 C494 1.392 . S
C493 C497 1.495 . S
C494 C493 1.392 . S
C494 C495 1.385 . S
C494 C496 1.478 . S
C495 H489 0.930 . S
C495 C491 1.400 . S
C495 C494 1.385 . S
C496 C494 1.478 . S
C496 C498 1.381 . S
C496 C502 1.383 . S
C497 C493 1.495 . S
C497 H503 0.959 . S
C497 H504 0.961 . S
C497 H505 0.960 . S
C498 C496 1.381 . S
C498 C499 1.394 . S
C498 H506 0.930 . S
C499 C498 1.394 . S
C499 C500 1.383 . S
C499 H507 0.929 . S
C500 C499 1.383 . S
C500 C501 1.377 . S
C501 H485 0.930 . S
C501 C500 1.377 . S
C501 C502 1.379 . S
C502 H486 0.931 . S
C502 C496 1.383 . S
C502 C501 1.379 . S
H503 C497 0.959 . S
H504 C497 0.961 . S
H505 C497 0.960 . S
H506 C498 0.930 . S
H507 C499 0.929 . S
H508 C516 0.929 . S
H509 C518 0.930 . S
H510 C520 0.930 . S
H511 C523 0.929 . S
H512 C526 0.930 . S
H513 C528 0.960 . S
H514 C528 0.960 . S
H515 C528 0.960 . S
C516 H508 0.929 . S
C516 C517 1.377 . S
C516 C518 1.384 . S
C517 C516 1.377 . S
C517 C523 1.390 . S
C518 H509 0.930 . S
C518 C516 1.384 . S
C518 C519 1.372 . S
C519 C518 1.372 . S
C519 C520 1.400 . S
C519 C524 1.490 . S
C520 H510 0.930 . S
C520 C519 1.400 . S
C520 C523 1.386 . S
H521 C537 0.930 . S
H522 C538 0.931 . S
C523 H511 0.929 . S
C523 C517 1.390 . S
C523 C520 1.386 . S
C524 C519 1.490 . S
C524 C526 1.395 . S
C524 C527 1.403 . S
H525 C531 0.930 . S
C526 H512 0.930 . S
C526 C524 1.395 . S
C526 C529 1.403 . S
C527 C524 1.403 . S
C527 C528 1.524 . S
C527 C531 1.400 . S
C528 H513 0.960 . S
C528 H514 0.960 . S
C528 H515 0.960 . S
C528 C527 1.524 . S
C529 C526 1.403 . S
C529 C530 1.392 . S
C529 C533 1.495 . S
C530 C529 1.392 . S
C530 C531 1.385 . S
C530 C532 1.478 . S
C531 H525 0.930 . S
C531 C527 1.400 . S
C531 C530 1.385 . S
C532 C530 1.478 . S
C532 C534 1.381 . S
C532 C538 1.383 . S
C533 C529 1.495 . S
C533 H539 0.959 . S
C533 H540 0.961 . S
C533 H541 0.960 . S
C534 C532 1.381 . S
C534 C535 1.394 . S
C534 H542 0.930 . S
C535 C534 1.394 . S
C535 C536 1.383 . S
C535 H543 0.929 . S
C536 C535 1.383 . S
C536 C537 1.377 . S
C537 H521 0.930 . S
C537 C536 1.377 . S
C537 C538 1.379 . S
C538 H522 0.931 . S
C538 C532 1.383 . S
C538 C537 1.379 . S
H539 C533 0.959 . S
H540 C533 0.961 . S
H541 C533 0.960 . S
H542 C534 0.930 . S
H543 C535 0.929 . S
H544 C552 0.929 . S
H545 C554 0.930 . S
H546 C556 0.930 . S
H547 C559 0.929 . S
H548 C562 0.930 . S
H549 C564 0.960 . S
H550 C564 0.960 . S
H551 C564 0.960 . S
C552 H544 0.929 . S
C552 C553 1.377 . S
C552 C554 1.384 . S
C553 C552 1.377 . S
C553 C559 1.390 . S
C554 H545 0.930 . S
C554 C552 1.384 . S
C554 C555 1.372 . S
C555 C554 1.372 . S
C555 C556 1.400 . S
C555 C560 1.490 . S
C556 H546 0.930 . S
C556 C555 1.400 . S
C556 C559 1.386 . S
H557 C573 0.930 . S
H558 C574 0.931 . S
C559 H547 0.929 . S
C559 C553 1.390 . S
C559 C556 1.386 . S
C560 C555 1.490 . S
C560 C562 1.395 . S
C560 C563 1.403 . S
H561 C567 0.930 . S
C562 H548 0.930 . S
C562 C560 1.395 . S
C562 C565 1.403 . S
C563 C560 1.403 . S
C563 C564 1.524 . S
C563 C567 1.400 . S
C564 H549 0.960 . S
C564 H550 0.960 . S
C564 H551 0.960 . S
C564 C563 1.524 . S
C565 C562 1.403 . S
C565 C566 1.392 . S
C565 C569 1.495 . S
C566 C565 1.392 . S
C566 C567 1.385 . S
C566 C568 1.478 . S
C567 H561 0.930 . S
C567 C563 1.400 . S
C567 C566 1.385 . S
C568 C566 1.478 . S
C568 C570 1.381 . S
C568 C574 1.383 . S
C569 C565 1.495 . S
C569 H575 0.959 . S
C569 H576 0.961 . S
C569 H577 0.960 . S
C570 C568 1.381 . S
C570 C571 1.394 . S
C570 H578 0.930 . S
C571 C570 1.394 . S
C571 C572 1.383 . S
C571 H579 0.929 . S
C572 C571 1.383 . S
C572 C573 1.377 . S
C573 H557 0.930 . S
C573 C572 1.377 . S
C573 C574 1.379 . S
C574 H558 0.931 . S
C574 C568 1.383 . S
C574 C573 1.379 . S
H575 C569 0.959 . S
H576 C569 0.961 . S
H577 C569 0.960 . S
H578 C570 0.930 . S
H579 C571 0.929 . S
H580 C588 0.929 . S
H581 C590 0.930 . S
H582 C592 0.930 . S
H583 C595 0.929 . S
H584 C598 0.930 . S
H585 C600 0.960 . S
H586 C600 0.960 . S
H587 C600 0.960 . S
C588 H580 0.929 . S
C588 C589 1.377 . S
C588 C590 1.384 . S
C589 C588 1.377 . S
C589 C595 1.390 . S
C590 H581 0.930 . S
C590 C588 1.384 . S
C590 C591 1.372 . S
C591 C590 1.372 . S
C591 C592 1.400 . S
C591 C596 1.490 . S
C592 H582 0.930 . S
C592 C591 1.400 . S
C592 C595 1.386 . S
H593 C609 0.930 . S
H594 C610 0.931 . S
C595 H583 0.929 . S
C595 C589 1.390 . S
C595 C592 1.386 . S
C596 C591 1.490 . S
C596 C598 1.395 . S
C596 C599 1.403 . S
H597 C603 0.930 . S
C598 H584 0.930 . S
C598 C596 1.395 . S
C598 C601 1.403 . S
C599 C596 1.403 . S
C599 C600 1.524 . S
C599 C603 1.400 . S
C600 H585 0.960 . S
C600 H586 0.960 . S
C600 H587 0.960 . S
C600 C599 1.524 . S
C601 C598 1.403 . S
C601 C602 1.392 . S
C601 C605 1.495 . S
C602 C601 1.392 . S
C602 C603 1.385 . S
C602 C604 1.478 . S
C603 H597 0.930 . S
C603 C599 1.400 . S
C603 C602 1.385 . S
C604 C602 1.478 . S
C604 C606 1.381 . S
C604 C610 1.383 . S
C605 C601 1.495 . S
C605 H611 0.959 . S
C605 H612 0.961 . S
C605 H613 0.960 . S
C606 C604 1.381 . S
C606 C607 1.394 . S
C606 H614 0.930 . S
C607 C606 1.394 . S
C607 C608 1.383 . S
C607 H615 0.929 . S
C608 C607 1.383 . S
C608 C609 1.377 . S
C609 H593 0.930 . S
C609 C608 1.377 . S
C609 C610 1.379 . S
C610 H594 0.931 . S
C610 C604 1.383 . S
C610 C609 1.379 . S
H611 C605 0.959 . S
H612 C605 0.961 . S
H613 C605 0.960 . S
H614 C606 0.930 . S
H615 C607 0.929 . S
H616 C624 0.929 . S
H617 C626 0.930 . S
H618 C628 0.930 . S
H619 C631 0.929 . S
H620 C634 0.930 . S
H621 C636 0.960 . S
H622 C636 0.960 . S
H623 C636 0.960 . S
C624 H616 0.929 . S
C624 C625 1.377 . S
C624 C626 1.384 . S
C625 C624 1.377 . S
C625 C631 1.390 . S
C626 H617 0.930 . S
C626 C624 1.384 . S
C626 C627 1.372 . S
C627 C626 1.372 . S
C627 C628 1.400 . S
C627 C632 1.490 . S
C628 H618 0.930 . S
C628 C627 1.400 . S
C628 C631 1.386 . S
H629 C645 0.930 . S
H630 C646 0.931 . S
C631 H619 0.929 . S
C631 C625 1.390 . S
C631 C628 1.386 . S
C632 C627 1.490 . S
C632 C634 1.395 . S
C632 C635 1.403 . S
H633 C639 0.930 . S
C634 H620 0.930 . S
C634 C632 1.395 . S
C634 C637 1.403 . S
C635 C632 1.403 . S
C635 C636 1.524 . S
C635 C639 1.400 . S
C636 H621 0.960 . S
C636 H622 0.960 . S
C636 H623 0.960 . S
C636 C635 1.524 . S
C637 C634 1.403 . S
C637 C638 1.392 . S
C637 C641 1.495 . S
C638 C637 1.392 . S
C638 C639 1.385 . S
C638 C640 1.478 . S
C639 H633 0.930 . S
C639 C635 1.400 . S
C639 C638 1.385 . S
C640 C638 1.478 . S
C640 C642 1.381 . S
C640 C646 1.383 . S
C641 C637 1.495 . S
C641 H647 0.959 . S
C641 H648 0.961 . S
C641 H649 0.960 . S
C642 C640 1.381 . S
C642 C643 1.394 . S
C642 H650 0.930 . S
C643 C642 1.394 . S
C643 C644 1.383 . S
C643 H651 0.929 . S
C644 C643 1.383 . S
C644 C645 1.377 . S
C645 H629 0.930 . S
C645 C644 1.377 . S
C645 C646 1.379 . S
C646 H630 0.931 . S
C646 C640 1.383 . S
C646 C645 1.379 . S
H647 C641 0.959 . S
H648 C641 0.961 . S
H649 C641 0.960 . S
H650 C642 0.930 . S
H651 C643 0.929 . S
H652 C660 0.929 . S
H653 C662 0.930 . S
H654 C664 0.930 . S
H655 C667 0.929 . S
H656 C670 0.930 . S
H657 C672 0.960 . S
H658 C672 0.960 . S
H659 C672 0.960 . S
C660 H652 0.929 . S
C660 C661 1.377 . S
C660 C662 1.384 . S
C661 C660 1.377 . S
C661 C667 1.390 . S
C662 H653 0.930 . S
C662 C660 1.384 . S
C662 C663 1.372 . S
C663 C662 1.372 . S
C663 C664 1.400 . S
C663 C668 1.490 . S
C664 H654 0.930 . S
C664 C663 1.400 . S
C664 C667 1.386 . S
H665 C681 0.930 . S
H666 C682 0.931 . S
C667 H655 0.929 . S
C667 C661 1.390 . S
C667 C664 1.386 . S
C668 C663 1.490 . S
C668 C670 1.395 . S
C668 C671 1.403 . S
H669 C675 0.930 . S
C670 H656 0.930 . S
C670 C668 1.395 . S
C670 C673 1.403 . S
C671 C668 1.403 . S
C671 C672 1.524 . S
C671 C675 1.400 . S
C672 H657 0.960 . S
C672 H658 0.960 . S
C672 H659 0.960 . S
C672 C671 1.524 . S
C673 C670 1.403 . S
C673 C674 1.392 . S
C673 C677 1.495 . S
C674 C673 1.392 . S
C674 C675 1.385 . S
C674 C676 1.478 . S
C675 H669 0.930 . S
C675 C671 1.400 . S
C675 C674 1.385 . S
C676 C674 1.478 . S
C676 C678 1.381 . S
C676 C682 1.383 . S
C677 C673 1.495 . S
C677 H683 0.959 . S
C677 H684 0.961 . S
C677 H685 0.960 . S
C678 C676 1.381 . S
C678 C679 1.394 . S
C678 H686 0.930 . S
C679 C678 1.394 . S
C679 C680 1.383 . S
C679 H687 0.929 . S
C680 C679 1.383 . S
C680 C681 1.377 . S
C681 H665 0.930 . S
C681 C680 1.377 . S
C681 C682 1.379 . S
C682 H666 0.931 . S
C682 C676 1.383 . S
C682 C681 1.379 . S
H683 C677 0.959 . S
H684 C677 0.961 . S
H685 C677 0.960 . S
H686 C678 0.930 . S
H687 C679 0.929 . S
C121 C9 0.621 . S
C140 C37 0.654 . S
C157 C23 0.614 . S
C176 C51 0.582 . S
C193 C65 0.608 . S
C212 C93 0.577 . S
C229 C79 0.617 . S
C248 C107 0.652 . S
C265 C8 1.344 . S
C284 C78 1.353 . S
C301 C22 1.337 . S
C320 C92 1.350 . S
C337 C106 1.345 . S
C356 C36 1.342 . S
C373 C50 1.345 . S
C392 C64 1.343 . S
C409 C63 1.812 . S
C428 C6 1.757 . S
C445 C20 1.767 . S
C464 C77 1.809 1_565 S
C481 C34 1.774 . S
C500 C91 1.830 . S
C517 C48 1.763 . S
C536 C105 1.789 1_545 S
C553 C7 1.808 1_655 S
C572 C62 1.744 . S
C589 C76 1.764 . S
C608 C21 1.788 . S
C625 C90 1.764 . S
C644 C35 1.793 1_455 S
C661 C49 1.809 . S
C680 C104 1.744 . S
