# Generated by pormake.
# Topology uka, (4)-cn, num edge types: 1
# Building blocks:
#     Node 0, Type 0, BuildingBlock: ICAMEG_clean_sbu_1, # of connection points: 4
#     Node 1, Type 0, BuildingBlock: ICAMEG_clean_sbu_1, # of connection points: 4
#     Node 2, Type 0, BuildingBlock: ICAMEG_clean_sbu_1, # of connection points: 4
#     Node 3, Type 0, BuildingBlock: ICAMEG_clean_sbu_1, # of connection points: 4
#     Node 4, Type 0, BuildingBlock: ICAMEG_clean_sbu_1, # of connection points: 4
#     Node 5, Type 0, BuildingBlock: ICAMEG_clean_sbu_1, # of connection points: 4
#     Node 6, Type 0, BuildingBlock: ICAMEG_clean_sbu_1, # of connection points: 4
#     Node 7, Type 0, BuildingBlock: ICAMEG_clean_sbu_1, # of connection points: 4
#     Node 8, Type 0, BuildingBlock: ICAMEG_clean_sbu_1, # of connection points: 4
#     Node 9, Type 0, BuildingBlock: ICAMEG_clean_sbu_1, # of connection points: 4
#     Node 10, Type 0, BuildingBlock: ICAMEG_clean_sbu_1, # of connection points: 4
#     Node 11, Type 0, BuildingBlock: ICAMEG_clean_sbu_1, # of connection points: 4
#     Node 12, Type 0, BuildingBlock: ICAMEG_clean_sbu_1, # of connection points: 4
#     Node 13, Type 0, BuildingBlock: ICAMEG_clean_sbu_1, # of connection points: 4
#     Node 14, Type 0, BuildingBlock: ICAMEG_clean_sbu_1, # of connection points: 4
#     Node 15, Type 0, BuildingBlock: ICAMEG_clean_sbu_1, # of connection points: 4
#     Node 16, Type 0, BuildingBlock: ICAMEG_clean_sbu_1, # of connection points: 4
#     Node 17, Type 0, BuildingBlock: ICAMEG_clean_sbu_1, # of connection points: 4
#     Node 18, Type 0, BuildingBlock: ICAMEG_clean_sbu_1, # of connection points: 4
#     Node 19, Type 0, BuildingBlock: ICAMEG_clean_sbu_1, # of connection points: 4
#     Node 20, Type 0, BuildingBlock: ICAMEG_clean_sbu_1, # of connection points: 4
#     Node 21, Type 0, BuildingBlock: ICAMEG_clean_sbu_1, # of connection points: 4
#     Node 22, Type 0, BuildingBlock: ICAMEG_clean_sbu_1, # of connection points: 4
#     Node 23, Type 0, BuildingBlock: ICAMEG_clean_sbu_1, # of connection points: 4
#     Node 24, Type 0, BuildingBlock: ICAMEG_clean_sbu_1, # of connection points: 4
#     Node 25, Type 0, BuildingBlock: ICAMEG_clean_sbu_1, # of connection points: 4
#     Node 26, Type 0, BuildingBlock: ICAMEG_clean_sbu_1, # of connection points: 4
#     Node 27, Type 0, BuildingBlock: ICAMEG_clean_sbu_1, # of connection points: 4
#     Node 28, Type 0, BuildingBlock: ICAMEG_clean_sbu_1, # of connection points: 4
#     Node 29, Type 0, BuildingBlock: ICAMEG_clean_sbu_1, # of connection points: 4
#     Node 30, Type 0, BuildingBlock: ICAMEG_clean_sbu_1, # of connection points: 4
#     Node 31, Type 0, BuildingBlock: ICAMEG_clean_sbu_1, # of connection points: 4
#     Edge 32, Type (0, 0), None
#     Edge 33, Type (0, 0), None
#     Edge 34, Type (0, 0), None
#     Edge 35, Type (0, 0), None
#     Edge 36, Type (0, 0), None
#     Edge 37, Type (0, 0), None
#     Edge 38, Type (0, 0), None
#     Edge 39, Type (0, 0), None
#     Edge 40, Type (0, 0), None
#     Edge 41, Type (0, 0), None
#     Edge 42, Type (0, 0), None
#     Edge 43, Type (0, 0), None
#     Edge 44, Type (0, 0), None
#     Edge 45, Type (0, 0), None
#     Edge 46, Type (0, 0), None
#     Edge 47, Type (0, 0), None
#     Edge 48, Type (0, 0), None
#     Edge 49, Type (0, 0), None
#     Edge 50, Type (0, 0), None
#     Edge 51, Type (0, 0), None
#     Edge 52, Type (0, 0), None
#     Edge 53, Type (0, 0), None
#     Edge 54, Type (0, 0), None
#     Edge 55, Type (0, 0), None
#     Edge 56, Type (0, 0), None
#     Edge 57, Type (0, 0), None
#     Edge 58, Type (0, 0), None
#     Edge 59, Type (0, 0), None
#     Edge 60, Type (0, 0), None
#     Edge 61, Type (0, 0), None
#     Edge 62, Type (0, 0), None
#     Edge 63, Type (0, 0), None
#     Edge 64, Type (0, 0), None
#     Edge 65, Type (0, 0), None
#     Edge 66, Type (0, 0), None
#     Edge 67, Type (0, 0), None
#     Edge 68, Type (0, 0), None
#     Edge 69, Type (0, 0), None
#     Edge 70, Type (0, 0), None
#     Edge 71, Type (0, 0), None
#     Edge 72, Type (0, 0), None
#     Edge 73, Type (0, 0), None
#     Edge 74, Type (0, 0), None
#     Edge 75, Type (0, 0), None
#     Edge 76, Type (0, 0), None
#     Edge 77, Type (0, 0), None
#     Edge 78, Type (0, 0), None
#     Edge 79, Type (0, 0), None
#     Edge 80, Type (0, 0), None
#     Edge 81, Type (0, 0), None
#     Edge 82, Type (0, 0), None
#     Edge 83, Type (0, 0), None
#     Edge 84, Type (0, 0), None
#     Edge 85, Type (0, 0), None
#     Edge 86, Type (0, 0), None
#     Edge 87, Type (0, 0), None
#     Edge 88, Type (0, 0), None
#     Edge 89, Type (0, 0), None
#     Edge 90, Type (0, 0), None
#     Edge 91, Type (0, 0), None
#     Edge 92, Type (0, 0), None
#     Edge 93, Type (0, 0), None
#     Edge 94, Type (0, 0), None
#     Edge 95, Type (0, 0), None
# Relax obj value: 0.039
# Max RMSD: 0.072
# Mean RMSD: 0.072
data_MOF--net-uka--node1-ICAMEG_clean_sbu_1--edge1-none
_symmetry_space_group_name_H-M    P1
_symmetry_Int_Tables_number       1
_symmetry_cell_setting            triclinic
loop_
_symmetry_equiv_pos_as_xyz
'x, y, z'
_cell_length_a     30.256141
_cell_length_b     30.256129
_cell_length_c     23.566577
_cell_angle_alpha  90.000095
_cell_angle_beta   89.999851
_cell_angle_gamma 89.99999
loop_
_atom_site_label
_atom_site_type_symbol
_atom_site_fract_x
_atom_site_fract_y
_atom_site_fract_z
_atom_type_partial_charge
Co0 Co 0.10716 0.3022 0.24443 0.0
Co1 Co 0.17331 0.31659 0.32983 0.0
O2 O 0.15981 0.32816 0.25364 0.0
C3 C 0.12667 0.36118 0.13537 0.0
O4 O 0.16758 0.3691 0.15075 0.0
C5 C 0.23944 0.27342 0.23923 0.0
O6 O 0.22455 0.29875 0.19829 0.0
O7 O 0.12684 0.26217 0.33155 0.0
O8 O 0.11992 0.26185 0.3257 0.0
H9 H 0.18564 0.39442 0.52903 0.0
H10 H 0.12018 0.27876 0.11566 0.0
O11 O 0.10053 0.33989 0.16922 0.0
H12 H 0.17945 0.1522 0.21917 0.0
H13 H 0.97912 0.31768 0.1344 0.0
H14 H 0.03513 0.28795 0.32318 0.0
H15 H 0.17574 0.22344 0.25924 0.0
H16 H 0.0508 0.28224 0.14723 0.0
O17 O 0.22493 0.27842 0.29164 0.0
H18 H 0.14706 0.35654 0.44533 0.0
H19 H 0.25254 0.25681 0.37816 0.0
H20 H 0.9648 0.3238 0.31093 0.0
H21 H 0.14484 0.21389 0.06409 0.0
H22 H 0.93544 0.34133 0.2161 0.0
H23 H 0.16911 0.14727 0.11558 0.0
O24 O 0.07768 0.35491 0.28638 0.0
H25 H 0.29145 0.42019 0.25172 0.0
H26 H 0.15781 0.41172 0.36847 0.0
H27 H 0.19016 0.48268 0.34858 0.0
H28 H 0.25784 0.48802 0.28984 0.0
H29 H 0.25957 0.34811 0.27465 0.0
H30 H 0.31726 0.27479 0.45906 0.0
H31 H 0.26886 0.37613 0.55813 0.0
O32 O 0.11659 0.35047 0.36256 0.0
C33 C 0.13619 0.22146 0.33987 0.0
C34 C 0.20317 0.36849 0.50707 0.0
C35 C 0.28652 0.29355 0.4585 0.0
N36 N 0.1991 0.30776 0.40879 0.0
C37 C 0.17918 0.34333 0.45144 0.0
C38 C 0.24531 0.28184 0.40924 0.0
C39 C 0.25497 0.35569 0.52685 0.0
C40 C 0.13247 0.25178 0.14015 0.0
N41 N 0.13367 0.25265 0.19831 0.0
C42 C 0.14653 0.2145 0.10948 0.0
C43 C 0.16006 0.17695 0.13794 0.0
C44 C 0.16524 0.17924 0.19571 0.0
C45 C 0.15645 0.21873 0.223 0.0
C46 C 0.99173 0.31312 0.17552 0.0
C47 C 0.02313 0.29488 0.2813 0.0
C48 C 0.03209 0.29235 0.18303 0.0
N49 N 0.04832 0.28435 0.2355 0.0
C50 C 0.98307 0.31625 0.2749 0.0
C51 C 0.9671 0.32581 0.22173 0.0
C52 C 0.07896 0.36059 0.33963 0.0
C53 C 0.26235 0.41777 0.27801 0.0
C54 C 0.18654 0.41168 0.34193 0.0
C55 C 0.20528 0.45308 0.33153 0.0
C56 C 0.24326 0.45611 0.29891 0.0
N57 N 0.20551 0.37324 0.32191 0.0
C58 C 0.2434 0.37664 0.29049 0.0
Co59 Co 0.95918 0.85715 0.49441 0.0
Co60 Co 0.94477 0.92328 0.57986 0.0
O61 O 0.93319 0.90978 0.50367 0.0
C62 C 0.90009 0.87659 0.38541 0.0
O63 O 0.89205 0.91746 0.40086 0.0
C64 C 0.98785 0.98945 0.4893 0.0
O65 O 0.96257 0.97454 0.44833 0.0
O66 O 0.99923 0.87684 0.58153 0.0
O67 O 0.99956 0.86993 0.57566 0.0
H68 H 0.86697 0.93564 0.77911 0.0
H69 H 0.98254 0.87029 0.36564 0.0
O70 O 0.92148 0.85049 0.41922 0.0
H71 H 0.10916 0.92953 0.46905 0.0
H72 H 0.94373 0.72915 0.38428 0.0
H73 H 0.97344 0.78511 0.5731 0.0
H74 H 0.03792 0.9258 0.50919 0.0
H75 H 0.97919 0.80085 0.39716 0.0
O76 O 0.98287 0.97493 0.54169 0.0
H77 H 0.90479 0.89707 0.69534 0.0
H78 H 1.00456 1.0025 0.62818 0.0
H79 H 0.93756 0.71482 0.56079 0.0
H80 H 0.04736 0.89498 0.31403 0.0
H81 H 0.92015 0.68541 0.46593 0.0
H82 H 0.114 0.91926 0.36548 0.0
O83 O 0.9065 0.82765 0.53639 0.0
H84 H 0.84109 0.04145 0.50199 0.0
H85 H 0.84965 0.90767 0.61845 0.0
H86 H 0.77867 0.94 0.59863 0.0
H87 H 0.77329 0.00775 0.54001 0.0
H88 H 0.91319 0.0096 0.52483 0.0
H89 H 0.98655 0.06727 0.70899 0.0
H90 H 0.88521 0.01891 0.80809 0.0
O91 O 0.91095 0.86653 0.6126 0.0
C92 C 0.03994 0.88622 0.58979 0.0
C93 C 0.89288 0.95318 0.75711 0.0
C94 C 0.96781 0.03651 0.70848 0.0
N95 N 0.95361 0.94908 0.65882 0.0
C96 C 0.91804 0.92917 0.70148 0.0
C97 C 0.97952 0.99529 0.65925 0.0
C98 C 0.90567 1.00499 0.77685 0.0
C99 C 0.00953 0.88257 0.39012 0.0
N100 N 0.0087 0.88372 0.44828 0.0
C101 C 0.04678 0.89666 0.35943 0.0
C102 C 0.08434 0.9102 0.38785 0.0
C103 C 0.08209 0.91534 0.44562 0.0
C104 C 0.04262 0.90652 0.47295 0.0
C105 C 0.94834 0.74173 0.4254 0.0
C106 C 0.96653 0.77312 0.5312 0.0
C107 C 0.9691 0.78211 0.43294 0.0
N108 N 0.97707 0.79833 0.48543 0.0
C109 C 0.94517 0.73305 0.52476 0.0
C110 C 0.93565 0.71708 0.47159 0.0
C111 C 0.90086 0.8289 0.58965 0.0
C112 C 0.84353 0.01231 0.5282 0.0
C113 C 0.84967 0.93643 0.59197 0.0
C114 C 0.80826 0.95516 0.5816 0.0
C115 C 0.8052 0.99317 0.54906 0.0
N116 N 0.8881 0.95545 0.57198 0.0
C117 C 0.88467 0.99338 0.54063 0.0
Co118 Co 0.40444 0.7094 0.74443 0.0
Co119 Co 0.33829 0.69501 0.82983 0.0
O120 O 0.35179 0.68344 0.75364 0.0
C121 C 0.38492 0.65042 0.63537 0.0
O122 O 0.34402 0.64249 0.65075 0.0
C123 C 0.27216 0.73817 0.73923 0.0
O124 O 0.28704 0.71285 0.69829 0.0
O125 O 0.38476 0.74943 0.83155 0.0
O126 O 0.39167 0.74975 0.8257 0.0
H127 H 0.32596 0.61718 0.02903 0.0
H128 H 0.39141 0.73284 0.61566 0.0
O129 O 0.41107 0.67171 0.66922 0.0
H130 H 0.33215 0.85939 0.71917 0.0
H131 H 0.53248 0.69392 0.6344 0.0
H132 H 0.47647 0.72365 0.82318 0.0
H133 H 0.33586 0.78815 0.75924 0.0
H134 H 0.46079 0.72936 0.64723 0.0
O135 O 0.28667 0.73318 0.79164 0.0
H136 H 0.36454 0.65506 0.94533 0.0
H137 H 0.25906 0.75478 0.87816 0.0
H138 H 0.54679 0.6878 0.81093 0.0
H139 H 0.36676 0.79771 0.56409 0.0
H140 H 0.57616 0.67027 0.7161 0.0
H141 H 0.34249 0.86432 0.61559 0.0
O142 O 0.43392 0.65669 0.78638 0.0
H143 H 0.22015 0.59141 0.75172 0.0
H144 H 0.35379 0.59988 0.86846 0.0
H145 H 0.32144 0.52892 0.84857 0.0
H146 H 0.25376 0.52358 0.78983 0.0
H147 H 0.25202 0.66349 0.77465 0.0
H148 H 0.19434 0.73681 0.95906 0.0
H149 H 0.24273 0.63547 0.05813 0.0
O150 O 0.39501 0.66113 0.86256 0.0
C151 C 0.37541 0.79014 0.83988 0.0
C152 C 0.30843 0.64311 0.00707 0.0
C153 C 0.22508 0.71805 0.9585 0.0
N154 N 0.31249 0.70384 0.90879 0.0
C155 C 0.33242 0.66827 0.95144 0.0
C156 C 0.26628 0.72975 0.90924 0.0
C157 C 0.25663 0.6559 0.02685 0.0
C158 C 0.37913 0.75982 0.64016 0.0
N159 N 0.37793 0.75895 0.69831 0.0
C160 C 0.36507 0.7971 0.60949 0.0
C161 C 0.35153 0.83465 0.63794 0.0
C162 C 0.34636 0.83236 0.69571 0.0
C163 C 0.35514 0.79286 0.72301 0.0
C164 C 0.51987 0.69848 0.67552 0.0
C165 C 0.48847 0.71672 0.7813 0.0
C166 C 0.4795 0.71925 0.68303 0.0
N167 N 0.46327 0.72724 0.7355 0.0
C168 C 0.52853 0.69535 0.7749 0.0
C169 C 0.5445 0.68578 0.72173 0.0
C170 C 0.43264 0.65101 0.83963 0.0
C171 C 0.24925 0.59383 0.77801 0.0
C172 C 0.32506 0.59992 0.84193 0.0
C173 C 0.30632 0.55851 0.83153 0.0
C174 C 0.26834 0.55548 0.79891 0.0
N175 N 0.30608 0.63836 0.82191 0.0
C176 C 0.26819 0.63495 0.79049 0.0
Co177 Co 0.55241 0.15445 -0.00559 0.0
Co178 Co 0.56682 0.08832 0.07986 0.0
O179 O 0.57841 0.10182 0.00367 0.0
C180 C 0.6115 0.13501 0.88541 0.0
O181 O 0.61955 0.09414 0.90086 0.0
C182 C 0.52374 0.02215 -0.0107 0.0
O183 O 0.54903 0.03705 0.94833 0.0
O184 O 0.51237 0.13475 0.08153 0.0
O185 O 0.51204 0.14167 0.07567 0.0
H186 H 0.64463 0.07595 0.27911 0.0
H187 H 0.52906 0.14131 0.86564 0.0
O188 O 0.59011 0.16111 0.91922 0.0
H189 H 0.40244 0.08207 0.96905 0.0
H190 H 0.56787 0.28245 0.88428 0.0
H191 H 0.53815 0.22649 0.0731 0.0
H192 H 0.47368 0.08579 0.00919 0.0
H193 H 0.53241 0.21075 0.89716 0.0
O194 O 0.52873 0.03667 0.04169 0.0
H195 H 0.60681 0.11453 0.19534 0.0
H196 H 0.50704 0.0091 0.12818 0.0
H197 H 0.57403 0.29678 0.06079 0.0
H198 H 0.46424 0.11661 0.81403 0.0
H199 H 0.59144 0.32619 0.96594 0.0
H200 H 0.3976 0.09233 0.86548 0.0
O201 O 0.60509 0.18395 0.03639 0.0
H202 H 0.67051 0.97015 0.00199 0.0
H203 H 0.66195 0.10393 0.11845 0.0
H204 H 0.73292 0.0716 0.09863 0.0
H205 H 0.73831 1.00385 0.04001 0.0
H206 H 0.5984 1.002 0.02483 0.0
H207 H 0.52505 0.94433 0.20899 0.0
H208 H 0.62639 0.99269 0.30809 0.0
O209 O 0.60065 0.14506 0.1126 0.0
C210 C 0.47165 0.12538 0.08979 0.0
C211 C 0.61872 0.05842 0.25711 0.0
C212 C 0.54378 0.97508 0.20848 0.0
N213 N 0.55799 0.06252 0.15882 0.0
C214 C 0.59356 0.08243 0.20148 0.0
C215 C 0.53207 0.01631 0.15925 0.0
C216 C 0.60593 0.00661 0.27685 0.0
C217 C 0.50207 0.12903 0.89012 0.0
N218 N 0.5029 0.12788 0.94828 0.0
C219 C 0.46482 0.11494 0.85943 0.0
C220 C 0.42726 0.1014 0.88785 0.0
C221 C 0.4295 0.09626 0.94562 0.0
C222 C 0.46898 0.10508 0.97295 0.0
C223 C 0.56326 0.26986 0.9254 0.0
C224 C 0.54506 0.23848 0.0312 0.0
C225 C 0.5425 0.22949 0.93294 0.0
N226 N 0.53453 0.21327 -0.01457 0.0
C227 C 0.56642 0.27854 0.02476 0.0
C228 C 0.57595 0.29451 0.97159 0.0
C229 C 0.61074 0.18269 0.08965 0.0
C230 C 0.66807 0.99929 0.0282 0.0
C231 C 0.66193 0.07517 0.09197 0.0
C232 C 0.70334 0.05644 0.0816 0.0
C233 C 0.7064 0.01843 0.04906 0.0
N234 N 0.6235 0.05615 0.07198 0.0
C235 C 0.62693 0.01822 0.04063 0.0
Co236 Co 0.10716 0.70939 0.21804 0.0
Co237 Co 0.17331 0.69501 0.13264 0.0
O238 O 0.15981 0.68344 0.20883 0.0
C239 C 0.12667 0.65042 0.3271 0.0
O240 O 0.16758 0.64249 0.31171 0.0
C241 C 0.23944 0.73817 0.22324 0.0
O242 O 0.22455 0.71285 0.26418 0.0
O243 O 0.12684 0.74943 0.13091 0.0
O244 O 0.11992 0.74975 0.13676 0.0
H245 H 0.18564 0.61718 0.93343 0.0
H246 H 0.12019 0.73284 0.34681 0.0
O247 O 0.10053 0.67171 0.29324 0.0
H248 H 0.17945 0.85939 0.2433 0.0
H249 H 0.97912 0.69392 0.32806 0.0
H250 H 0.03513 0.72365 0.13929 0.0
H251 H 0.17574 0.78815 0.20322 0.0
H252 H 0.0508 0.72936 0.31523 0.0
O253 O 0.22493 0.73318 0.17083 0.0
H254 H 0.14706 0.65506 0.01713 0.0
H255 H 0.25253 0.75478 0.0843 0.0
H256 H 0.9648 0.6878 0.15154 0.0
H257 H 0.14484 0.79771 0.39838 0.0
H258 H 0.93544 0.67026 0.24636 0.0
H259 H 0.16911 0.86432 0.34688 0.0
O260 O 0.07768 0.65669 0.17609 0.0
H261 H 0.29145 0.59141 0.21074 0.0
H262 H 0.1578 0.59988 0.094 0.0
H263 H 0.19016 0.52892 0.11389 0.0
H264 H 0.25784 0.52358 0.17263 0.0
H265 H 0.25958 0.66349 0.18781 0.0
H266 H 0.31726 0.73681 0.00341 0.0
H267 H 0.26887 0.63547 0.90433 0.0
O268 O 0.11659 0.66113 0.0999 0.0
C269 C 0.13619 0.79014 0.12259 0.0
C270 C 0.20317 0.64311 0.9554 0.0
C271 C 0.28652 0.71805 0.00397 0.0
N272 N 0.1991 0.70384 0.05368 0.0
C273 C 0.17918 0.66827 0.01103 0.0
C274 C 0.24531 0.72975 0.05323 0.0
C275 C 0.25497 0.6559 0.93562 0.0
C276 C 0.13247 0.75982 0.32231 0.0
N277 N 0.13367 0.75895 0.26416 0.0
C278 C 0.14653 0.7971 0.35298 0.0
C279 C 0.16006 0.83465 0.32452 0.0
C280 C 0.16524 0.83236 0.26675 0.0
C281 C 0.15645 0.79286 0.23946 0.0
C282 C 0.99173 0.69848 0.28694 0.0
C283 C 0.02313 0.71672 0.18117 0.0
C284 C 0.03209 0.71925 0.27943 0.0
N285 N 0.04832 0.72724 0.22696 0.0
C286 C 0.98307 0.69535 0.18757 0.0
C287 C 0.9671 0.68578 0.24073 0.0
C288 C 0.07895 0.65101 0.12283 0.0
C289 C 0.26235 0.59382 0.18445 0.0
C290 C 0.18654 0.59992 0.12054 0.0
C291 C 0.20528 0.55851 0.13094 0.0
C292 C 0.24326 0.55548 0.16355 0.0
N293 N 0.20551 0.63836 0.14055 0.0
C294 C 0.2434 0.63495 0.17197 0.0
Co295 Co 0.55241 0.85715 0.46806 0.0
Co296 Co 0.56682 0.92328 0.3826 0.0
O297 O 0.57841 0.90978 0.4588 0.0
C298 C 0.6115 0.87659 0.57705 0.0
O299 O 0.61955 0.91746 0.56161 0.0
C300 C 0.52374 0.98945 0.47316 0.0
O301 O 0.54903 0.97454 0.51413 0.0
O302 O 0.51237 0.87684 0.38093 0.0
O303 O 0.51204 0.86993 0.3868 0.0
H304 H 0.64463 0.93564 0.18336 0.0
H305 H 0.52906 0.87029 0.59683 0.0
O306 O 0.59011 0.85049 0.54325 0.0
H307 H 0.40244 0.92953 0.49341 0.0
H308 H 0.56787 0.72915 0.57819 0.0
H309 H 0.53815 0.78511 0.38936 0.0
H310 H 0.47368 0.9258 0.45327 0.0
H311 H 0.53241 0.80085 0.5653 0.0
O312 O 0.52873 0.97493 0.42077 0.0
H313 H 0.60681 0.89707 0.26712 0.0
H314 H 0.50704 1.0025 0.33429 0.0
H315 H 0.57403 0.71482 0.40168 0.0
H316 H 0.46424 0.89499 0.64843 0.0
H317 H 0.59144 0.68541 0.49653 0.0
H318 H 0.39759 0.91926 0.59699 0.0
O319 O 0.60509 0.82765 0.42608 0.0
H320 H 0.6705 0.04145 0.46048 0.0
H321 H 0.66195 0.90767 0.34402 0.0
H322 H 0.73292 0.94 0.36384 0.0
H323 H 0.73831 0.00775 0.42245 0.0
H324 H 0.5984 0.0096 0.43763 0.0
H325 H 0.52505 0.06727 0.25348 0.0
H326 H 0.62639 0.01891 0.15437 0.0
O327 O 0.60065 0.86653 0.34986 0.0
C328 C 0.47165 0.88622 0.37267 0.0
C329 C 0.61872 0.95318 0.20536 0.0
C330 C 0.54378 0.03651 0.25398 0.0
N331 N 0.55799 0.94908 0.30364 0.0
C332 C 0.59356 0.92917 0.26099 0.0
C333 C 0.53207 0.99529 0.30322 0.0
C334 C 0.60593 1.00499 0.18562 0.0
C335 C 0.50207 0.88257 0.57234 0.0
N336 N 0.5029 0.88372 0.51419 0.0
C337 C 0.46482 0.89666 0.60304 0.0
C338 C 0.42725 0.9102 0.57461 0.0
C339 C 0.4295 0.91534 0.51684 0.0
C340 C 0.46898 0.90652 0.48951 0.0
C341 C 0.56326 0.74173 0.53706 0.0
C342 C 0.54506 0.77312 0.43126 0.0
C343 C 0.5425 0.78211 0.52952 0.0
N344 N 0.53453 0.79833 0.47703 0.0
C345 C 0.56642 0.73305 0.4377 0.0
C346 C 0.57595 0.71709 0.49087 0.0
C347 C 0.61074 0.8289 0.37282 0.0
C348 C 0.66807 0.01231 0.43426 0.0
C349 C 0.66193 0.93643 0.37049 0.0
C350 C 0.70334 0.95516 0.38086 0.0
C351 C 0.70639 0.99317 0.4134 0.0
N352 N 0.6235 0.95545 0.39048 0.0
C353 C 0.62693 0.99337 0.42183 0.0
Co354 Co 0.40444 0.3022 0.71804 0.0
Co355 Co 0.33829 0.31659 0.63264 0.0
O356 O 0.35179 0.32816 0.70883 0.0
C357 C 0.38492 0.36118 0.8271 0.0
O358 O 0.34401 0.3691 0.81172 0.0
C359 C 0.27216 0.27342 0.72324 0.0
O360 O 0.28704 0.29875 0.76418 0.0
O361 O 0.38476 0.26217 0.63091 0.0
O362 O 0.39167 0.26185 0.63676 0.0
H363 H 0.32596 0.39442 0.43343 0.0
H364 H 0.39141 0.27876 0.84681 0.0
O365 O 0.41107 0.33989 0.79324 0.0
H366 H 0.33215 0.1522 0.7433 0.0
H367 H 0.53248 0.31768 0.82806 0.0
H368 H 0.47647 0.28795 0.63929 0.0
H369 H 0.33586 0.22344 0.70322 0.0
H370 H 0.46079 0.28223 0.81523 0.0
O371 O 0.28666 0.27842 0.67083 0.0
H372 H 0.36454 0.35654 0.51714 0.0
H373 H 0.25906 0.25681 0.5843 0.0
H374 H 0.54679 0.3238 0.65154 0.0
H375 H 0.36676 0.21388 0.89838 0.0
H376 H 0.57616 0.34133 0.74636 0.0
H377 H 0.34249 0.14727 0.84688 0.0
O378 O 0.43392 0.35491 0.67609 0.0
H379 H 0.22015 0.42019 0.71074 0.0
H380 H 0.35379 0.41172 0.594 0.0
H381 H 0.32144 0.48268 0.61389 0.0
H382 H 0.25375 0.48802 0.67263 0.0
H383 H 0.25202 0.34811 0.68782 0.0
H384 H 0.19434 0.27479 0.50341 0.0
H385 H 0.24273 0.37613 0.40433 0.0
O386 O 0.39501 0.35047 0.5999 0.0
C387 C 0.37541 0.22146 0.62259 0.0
C388 C 0.30843 0.36849 0.4554 0.0
C389 C 0.22508 0.29355 0.50397 0.0
N390 N 0.31249 0.30776 0.55368 0.0
C391 C 0.33242 0.34333 0.51103 0.0
C392 C 0.26628 0.28184 0.55323 0.0
C393 C 0.25663 0.3557 0.43562 0.0
C394 C 0.37913 0.25178 0.82231 0.0
N395 N 0.37793 0.25265 0.76416 0.0
C396 C 0.36507 0.2145 0.85298 0.0
C397 C 0.35153 0.17695 0.82452 0.0
C398 C 0.34635 0.17924 0.76675 0.0
C399 C 0.35514 0.21873 0.73946 0.0
C400 C 0.51987 0.31312 0.78694 0.0
C401 C 0.48847 0.29488 0.68117 0.0
C402 C 0.4795 0.29235 0.77943 0.0
N403 N 0.46327 0.28435 0.72696 0.0
C404 C 0.52853 0.31625 0.68757 0.0
C405 C 0.5445 0.32581 0.74073 0.0
C406 C 0.43264 0.36058 0.62283 0.0
C407 C 0.24925 0.41777 0.68445 0.0
C408 C 0.32506 0.41168 0.62054 0.0
C409 C 0.30632 0.45308 0.63094 0.0
C410 C 0.26834 0.45611 0.66355 0.0
N411 N 0.30608 0.37324 0.64055 0.0
C412 C 0.26819 0.37664 0.67197 0.0
Co413 Co 0.95918 0.15445 0.96806 0.0
Co414 Co 0.94477 0.08832 0.8826 0.0
O415 O 0.93319 0.10182 0.9588 0.0
C416 C 0.90009 0.13501 0.07705 0.0
O417 O 0.89205 0.09414 0.06161 0.0
C418 C 0.98785 0.02215 0.97316 0.0
O419 O 0.96256 0.03705 0.01413 0.0
O420 O 0.99923 0.13475 0.88093 0.0
O421 O 0.99956 0.14167 0.8868 0.0
H422 H 0.86697 0.07595 0.68336 0.0
H423 H 0.98254 0.14131 0.09683 0.0
O424 O 0.92148 0.16111 0.04325 0.0
H425 H 0.10915 0.08207 -0.00659 0.0
H426 H 0.94373 0.28245 0.07819 0.0
H427 H 0.97344 0.22649 0.88936 0.0
H428 H 0.03791 0.08579 0.95327 0.0
H429 H 0.97919 0.21075 0.0653 0.0
O430 O 0.98287 0.03667 0.92077 0.0
H431 H 0.90479 0.11453 0.76712 0.0
H432 H 1.00456 0.0091 0.83429 0.0
H433 H 0.93756 0.29678 0.90168 0.0
H434 H 0.04736 0.11661 0.14843 0.0
H435 H 0.92015 0.32619 -0.00347 0.0
H436 H 0.114 0.09233 0.09699 0.0
O437 O 0.9065 0.18395 0.92608 0.0
H438 H 0.84109 0.97015 0.96048 0.0
H439 H 0.84965 0.10393 0.84402 0.0
H440 H 0.77867 0.0716 0.86384 0.0
H441 H 0.77329 1.00385 0.92245 0.0
H442 H 0.91319 1.002 0.93763 0.0
H443 H 0.98655 0.94433 0.75348 0.0
H444 H 0.88521 0.99269 0.65437 0.0
O445 O 0.91095 0.14506 0.84986 0.0
C446 C 0.03994 0.12538 0.87267 0.0
C447 C 0.89288 0.05842 0.70536 0.0
C448 C 0.96782 0.97508 0.75398 0.0
N449 N 0.95361 0.06252 0.80364 0.0
C450 C 0.91804 0.08243 0.76099 0.0
C451 C 0.97952 0.01631 0.80322 0.0
C452 C 0.90567 0.00661 0.68562 0.0
C453 C 0.00952 0.12903 0.07234 0.0
N454 N 0.0087 0.12788 0.01419 0.0
C455 C 0.04678 0.11494 0.10304 0.0
C456 C 0.08434 0.1014 0.07461 0.0
C457 C 0.08209 0.09626 0.01684 0.0
C458 C 0.04262 0.10508 -0.01049 0.0
C459 C 0.94834 0.26986 0.03707 0.0
C460 C 0.96653 0.23848 0.93126 0.0
C461 C 0.9691 0.22949 0.02952 0.0
N462 N 0.97707 0.21327 0.97703 0.0
C463 C 0.94517 0.27854 0.9377 0.0
C464 C 0.93565 0.29451 -0.00912 0.0
C465 C 0.90086 0.18269 0.87282 0.0
C466 C 0.84353 0.99929 0.93426 0.0
C467 C 0.84967 0.07517 0.87049 0.0
C468 C 0.80826 0.05644 0.88086 0.0
C469 C 0.8052 0.01843 0.9134 0.0
N470 N 0.8881 0.05615 0.89048 0.0
C471 C 0.88467 0.01822 0.92183 0.0
Co472 Co 0.90447 0.70926 0.71813 0.0
Co473 Co 0.83835 0.69487 0.63248 0.0
O474 O 0.85185 0.68329 0.70876 0.0
C475 C 0.88509 0.65019 0.82707 0.0
O476 O 0.84415 0.64234 0.81175 0.0
C477 C 0.77204 0.73781 0.72305 0.0
O478 O 0.78682 0.71238 0.76394 0.0
O479 O 0.88482 0.74935 0.63049 0.0
O480 O 0.8915 0.74965 0.63706 0.0
H481 H 0.82592 0.61696 0.43329 0.0
H482 H 0.89155 0.73253 0.84701 0.0
O483 O 0.91122 0.67148 0.79321 0.0
H484 H 0.83202 0.85911 0.74381 0.0
H485 H 0.03261 0.69386 0.82801 0.0
H486 H 0.9764 0.72368 0.63936 0.0
H487 H 0.83557 0.78782 0.7037 0.0
H488 H 0.96086 0.72925 0.81532 0.0
O489 O 0.78668 0.73297 0.67068 0.0
H490 H 0.86455 0.65479 0.51704 0.0
H491 H 0.75916 0.7546 0.58422 0.0
H492 H 0.04671 0.68781 0.65146 0.0
H493 H 0.86682 0.79731 0.89872 0.0
H494 H 0.07626 0.67034 0.74622 0.0
H495 H 0.84251 0.86398 0.84733 0.0
O496 O 0.93399 0.65664 0.67601 0.0
H497 H 0.71993 0.5913 0.71007 0.0
H498 H 0.85412 0.59965 0.59438 0.0
H499 H 0.82179 0.52871 0.61436 0.0
H500 H 0.75385 0.52342 0.67261 0.0
H501 H 0.75174 0.66338 0.68695 0.0
H502 H 0.69433 0.73652 0.50359 0.0
H503 H 0.74258 0.63513 0.40449 0.0
O504 O 0.89508 0.66103 0.59979 0.0
C505 C 0.87572 0.79033 0.62364 0.0
C506 C 0.8084 0.64288 0.4553 0.0
C507 C 0.7251 0.71781 0.50403 0.0
N508 N 0.81255 0.70363 0.55356 0.0
C509 C 0.83245 0.66804 0.5109 0.0
C510 C 0.76634 0.72953 0.55319 0.0
C511 C 0.75657 0.65566 0.43562 0.0
C512 C 0.87917 0.7595 0.82258 0.0
N513 N 0.87788 0.75868 0.76443 0.0
C514 C 0.86508 0.79673 0.85333 0.0
C515 C 0.8515 0.8343 0.82495 0.0
C516 C 0.84622 0.83204 0.76721 0.0
C517 C 0.85492 0.79254 0.73989 0.0
C518 C 0.01996 0.69847 0.78692 0.0
C519 C 0.98844 0.71674 0.68122 0.0
C520 C 0.97956 0.71919 0.77949 0.0
N521 N 0.96328 0.7272 0.72705 0.0
C522 C 0.02851 0.69538 0.68753 0.0
C523 C 0.04456 0.68582 0.74066 0.0
C524 C 0.93272 0.65096 0.62275 0.0
C525 C 0.74917 0.5937 0.68405 0.0
C526 C 0.82527 0.59973 0.62071 0.0
C527 C 0.80655 0.55833 0.63116 0.0
C528 C 0.76843 0.55533 0.66351 0.0
N529 N 0.80617 0.63819 0.64044 0.0
C530 C 0.76811 0.63482 0.67153 0.0
Co531 Co 0.05226 0.15433 0.46809 0.0
Co532 Co 0.06674 0.08833 0.38257 0.0
O533 O 0.07823 0.10173 0.45882 0.0
C534 C 0.11133 0.13481 0.57708 0.0
O535 O 0.1195 0.09399 0.56151 0.0
C536 C 0.0236 0.02214 0.47309 0.0
O537 O 0.0489 0.03701 0.51407 0.0
O538 O 0.01228 0.13476 0.38089 0.0
O539 O 0.01195 0.14165 0.38676 0.0
H540 H 0.14456 0.07595 0.18333 0.0
H541 H 0.02879 0.14124 0.5968 0.0
O542 O 0.08988 0.16091 0.54335 0.0
H543 H 0.90221 0.08205 0.49325 0.0
H544 H 0.06777 0.28237 0.57816 0.0
H545 H 0.03812 0.2264 0.38934 0.0
H546 H 0.97347 0.08576 0.45317 0.0
H547 H 0.03231 0.21068 0.56527 0.0
O548 O 0.0286 0.03668 0.42071 0.0
H549 H 0.10674 0.11454 0.26713 0.0
H550 H 0.00695 0.00913 0.33424 0.0
H551 H 0.07404 0.29671 0.40167 0.0
H552 H 0.9639 0.11662 0.64835 0.0
H553 H 0.0914 0.3261 0.49652 0.0
H554 H 0.89729 0.09234 0.59683 0.0
O555 O 0.10501 0.18372 0.42633 0.0
H556 H 0.17032 0.97013 0.46056 0.0
H557 H 0.16189 0.1039 0.34406 0.0
H558 H 0.23285 0.07156 0.36399 0.0
H559 H 0.23817 1.00382 0.42261 0.0
H560 H 0.09825 1.00198 0.43757 0.0
H561 H 0.02496 0.94435 0.25345 0.0
H562 H 0.12633 0.99268 0.15438 0.0
O563 O 0.10066 0.14513 0.34987 0.0
C564 C 0.97156 0.1254 0.3726 0.0
C565 C 0.11866 0.05842 0.20535 0.0
C566 C 0.04372 0.97509 0.25399 0.0
N567 N 0.05793 0.06254 0.30362 0.0
C568 C 0.0935 0.08244 0.26097 0.0
C569 C 0.03201 0.01632 0.30321 0.0
C570 C 0.10587 0.0066 0.18562 0.0
C571 C 1.0018 0.12899 0.57229 0.0
N572 N 1.00267 0.12782 0.51414 0.0
C573 C 0.96451 0.11494 0.60295 0.0
C574 C 0.92697 0.10139 0.57449 0.0
C575 C 0.92926 0.09623 0.51671 0.0
C576 C 0.96876 0.10503 0.48942 0.0
C577 C 0.06321 0.26977 0.53704 0.0
C578 C 0.04504 0.23839 0.43124 0.0
C579 C 0.04245 0.22941 0.5295 0.0
N580 N 0.03446 0.21319 0.47701 0.0
C581 C 0.06642 0.27845 0.43768 0.0
C582 C 0.07592 0.29442 0.49086 0.0
C583 C 0.11072 0.18269 0.37308 0.0
C584 C 0.16792 0.99927 0.43433 0.0
C585 C 0.16185 0.07515 0.37055 0.0
C586 C 0.20325 0.05641 0.38097 0.0
C587 C 0.20627 0.0184 0.41352 0.0
N588 N 0.1234 0.05614 0.39049 0.0
C589 C 0.12679 0.01821 0.42183 0.0
Co590 Co 0.60712 0.30234 0.21813 0.0
Co591 Co 0.67325 0.31673 0.13248 0.0
O592 O 0.65974 0.3283 0.20876 0.0
C593 C 0.62651 0.36141 0.32707 0.0
O594 O 0.66745 0.36926 0.31175 0.0
C595 C 0.73956 0.27378 0.22305 0.0
O596 O 0.72478 0.29922 0.26393 0.0
O597 O 0.62677 0.26224 0.1305 0.0
O598 O 0.6201 0.26194 0.13706 0.0
H599 H 0.68568 0.39464 0.93329 0.0
H600 H 0.62005 0.27907 0.34701 0.0
O601 O 0.60038 0.34011 0.29321 0.0
H602 H 0.67958 0.15249 0.24381 0.0
H603 H 0.47898 0.31773 0.32801 0.0
H604 H 0.5352 0.28792 0.13936 0.0
H605 H 0.67603 0.22378 0.2037 0.0
H606 H 0.55074 0.28235 0.31532 0.0
O607 O 0.72491 0.27863 0.17068 0.0
H608 H 0.64705 0.35681 0.01704 0.0
H609 H 0.75244 0.25699 0.08422 0.0
H610 H 0.46489 0.32378 0.15146 0.0
H611 H 0.64478 0.21428 0.39872 0.0
H612 H 0.43534 0.34126 0.24622 0.0
H613 H 0.66908 0.14762 0.34733 0.0
O614 O 0.5776 0.35496 0.17601 0.0
H615 H 0.79167 0.4203 0.21006 0.0
H616 H 0.65748 0.41195 0.09439 0.0
H617 H 0.6898 0.48289 0.11436 0.0
H618 H 0.75774 0.48817 0.17261 0.0
H619 H 0.75986 0.34821 0.18695 0.0
H620 H 0.81726 0.27507 0.00358 0.0
H621 H 0.76902 0.37647 0.90449 0.0
O622 O 0.61651 0.35056 0.09979 0.0
C623 C 0.63588 0.22126 0.12364 0.0
C624 C 0.70319 0.36872 0.9553 0.0
C625 C 0.7865 0.29379 0.00402 0.0
N626 N 0.69904 0.30797 0.05356 0.0
C627 C 0.67914 0.34355 0.0109 0.0
C628 C 0.74525 0.28206 0.05319 0.0
C629 C 0.75502 0.35593 0.93562 0.0
C630 C 0.63243 0.2521 0.32258 0.0
N631 N 0.63371 0.25292 0.26443 0.0
C632 C 0.64652 0.21486 0.35333 0.0
C633 C 0.6601 0.1773 0.32495 0.0
C634 C 0.66538 0.17956 0.26721 0.0
C635 C 0.65668 0.21906 0.23989 0.0
C636 C 0.49163 0.31313 0.28692 0.0
C637 C 0.52316 0.29486 0.18122 0.0
C638 C 0.53203 0.2924 0.27949 0.0
N639 N 0.54832 0.28439 0.22705 0.0
C640 C 0.48308 0.31622 0.18753 0.0
C641 C 0.46704 0.32578 0.24066 0.0
C642 C 0.57888 0.36064 0.12275 0.0
C643 C 0.76242 0.4179 0.18404 0.0
C644 C 0.68632 0.41187 0.12071 0.0
C645 C 0.70505 0.45327 0.13116 0.0
C646 C 0.74316 0.45627 0.1635 0.0
N647 N 0.70542 0.3734 0.14044 0.0
C648 C 0.74349 0.37677 0.17152 0.0
Co649 Co 0.45934 0.85726 0.96809 0.0
Co650 Co 0.44486 0.92327 0.88257 0.0
O651 O 0.43336 0.90987 0.95882 0.0
C652 C 0.40026 0.87679 0.07708 0.0
O653 O 0.39209 0.9176 0.06151 0.0
C654 C 0.488 0.98945 0.97309 0.0
O655 O 0.4627 0.97459 0.01408 0.0
O656 O 0.49932 0.87684 0.88089 0.0
O657 O 0.49964 0.86994 0.88676 0.0
H658 H 0.36704 0.93565 0.68333 0.0
H659 H 0.48281 0.87036 0.0968 0.0
O660 O 0.42171 0.85068 0.04335 0.0
H661 H 0.60939 0.92955 -0.00675 0.0
H662 H 0.44383 0.72923 0.07816 0.0
H663 H 0.47348 0.7852 0.88934 0.0
H664 H 0.53813 0.92584 0.95317 0.0
H665 H 0.47929 0.80092 0.06527 0.0
O666 O 0.483 0.97491 0.92071 0.0
H667 H 0.40485 0.89706 0.76713 0.0
H668 H 0.50465 1.00247 0.83425 0.0
H669 H 0.43755 0.71489 0.90167 0.0
H670 H 0.5477 0.89498 0.14835 0.0
H671 H 0.4202 0.68549 -0.00348 0.0
H672 H 0.61431 0.91926 0.09683 0.0
O673 O 0.40659 0.82788 0.92633 0.0
H674 H 0.34127 0.04146 0.96056 0.0
H675 H 0.34971 0.90769 0.84406 0.0
H676 H 0.27875 0.94004 0.86399 0.0
H677 H 0.27342 0.00778 0.92262 0.0
H678 H 0.41334 0.00962 0.93758 0.0
H679 H 0.48664 0.06724 0.75345 0.0
H680 H 0.38527 0.01892 0.65438 0.0
O681 O 0.41094 0.86646 0.84988 0.0
C682 C 0.54003 0.8862 0.8726 0.0
C683 C 0.39294 0.95318 0.70535 0.0
C684 C 0.46787 0.03651 0.75399 0.0
N685 N 0.45367 0.94906 0.80362 0.0
C686 C 0.41809 0.92916 0.76097 0.0
C687 C 0.47958 0.99528 0.80321 0.0
C688 C 0.40573 1.005 0.68562 0.0
C689 C 0.5098 0.88261 0.07229 0.0
N690 N 0.50893 0.88378 0.01414 0.0
C691 C 0.54709 0.89666 0.10295 0.0
C692 C 0.58463 0.9102 0.07448 0.0
C693 C 0.58234 0.91536 0.01671 0.0
C694 C 0.54284 0.90657 -0.01058 0.0
C695 C 0.44839 0.74182 0.03704 0.0
C696 C 0.46656 0.77321 0.93124 0.0
C697 C 0.46915 0.78219 0.0295 0.0
N698 N 0.47714 0.79841 0.97701 0.0
C699 C 0.44518 0.73315 0.93768 0.0
C700 C 0.43568 0.71718 -0.00915 0.0
C701 C 0.40087 0.82891 0.87308 0.0
C702 C 0.34368 0.01233 0.93433 0.0
C703 C 0.34975 0.93645 0.87055 0.0
C704 C 0.30835 0.95519 0.88097 0.0
C705 C 0.30533 0.9932 0.91353 0.0
N706 N 0.3882 0.95546 0.89049 0.0
C707 C 0.3848 0.99339 0.92183 0.0
Co708 Co 0.90447 0.30234 0.74434 0.0
Co709 Co 0.83835 0.31673 0.82999 0.0
O710 O 0.85185 0.3283 0.7537 0.0
C711 C 0.88509 0.36141 0.6354 0.0
O712 O 0.84415 0.36926 0.65071 0.0
C713 C 0.77204 0.27378 0.73942 0.0
O714 O 0.78682 0.29922 0.69853 0.0
O715 O 0.88482 0.26224 0.83197 0.0
O716 O 0.8915 0.26194 0.8254 0.0
H717 H 0.82592 0.39464 0.02918 0.0
H718 H 0.89155 0.27907 0.61545 0.0
O719 O 0.91122 0.34011 0.66925 0.0
H720 H 0.83202 0.15249 0.71866 0.0
H721 H 0.03261 0.31773 0.63446 0.0
H722 H 0.9764 0.28792 0.82311 0.0
H723 H 0.83557 0.22378 0.75876 0.0
H724 H 0.96086 0.28235 0.64715 0.0
O725 O 0.78668 0.27863 0.79179 0.0
H726 H 0.86455 0.35681 0.94543 0.0
H727 H 0.75916 0.25699 0.87824 0.0
H728 H 0.04671 0.32378 0.81101 0.0
H729 H 0.86682 0.21428 0.56375 0.0
H730 H 0.07626 0.34126 0.71624 0.0
H731 H 0.84251 0.14762 0.61513 0.0
O732 O 0.93399 0.35496 0.78646 0.0
H733 H 0.71993 0.4203 0.7524 0.0
H734 H 0.85412 0.41195 0.86808 0.0
H735 H 0.82179 0.48289 0.8481 0.0
H736 H 0.75385 0.48817 0.78985 0.0
H737 H 0.75174 0.34821 0.77551 0.0
H738 H 0.69433 0.27507 0.95888 0.0
H739 H 0.74258 0.37647 0.05797 0.0
O740 O 0.89508 0.35056 0.86268 0.0
C741 C 0.87572 0.22126 0.83882 0.0
C742 C 0.8084 0.36872 0.00717 0.0
C743 C 0.7251 0.29379 0.95844 0.0
N744 N 0.81255 0.30797 0.9089 0.0
C745 C 0.83245 0.34355 0.95156 0.0
C746 C 0.76634 0.28206 0.90928 0.0
C747 C 0.75657 0.35593 0.02685 0.0
C748 C 0.87917 0.2521 0.63988 0.0
N749 N 0.87788 0.25292 0.69804 0.0
C750 C 0.86508 0.21486 0.60913 0.0
C751 C 0.8515 0.1773 0.63752 0.0
C752 C 0.84622 0.17956 0.69526 0.0
C753 C 0.85492 0.21906 0.72258 0.0
C754 C 0.01996 0.31313 0.67555 0.0
C755 C 0.98844 0.29486 0.78125 0.0
C756 C 0.97956 0.2924 0.68297 0.0
N757 N 0.96328 0.28439 0.73541 0.0
C758 C 0.02851 0.31622 0.77493 0.0
C759 C 0.04456 0.32578 0.7218 0.0
C760 C 0.93272 0.36064 0.83972 0.0
C761 C 0.74917 0.4179 0.77842 0.0
C762 C 0.82527 0.41187 0.84175 0.0
C763 C 0.80655 0.45327 0.8313 0.0
C764 C 0.76843 0.45627 0.79896 0.0
N765 N 0.80617 0.3734 0.82202 0.0
C766 C 0.76811 0.37677 0.79094 0.0
Co767 Co 0.45934 0.15433 0.49437 0.0
Co768 Co 0.44486 0.08833 0.57989 0.0
O769 O 0.43336 0.10173 0.50364 0.0
C770 C 0.40026 0.13481 0.38539 0.0
O771 O 0.39209 0.09399 0.40095 0.0
C772 C 0.488 0.02214 0.48937 0.0
O773 O 0.4627 0.03701 0.44839 0.0
O774 O 0.49932 0.13476 0.58158 0.0
O775 O 0.49964 0.14165 0.5757 0.0
H776 H 0.36704 0.07595 0.77914 0.0
H777 H 0.48281 0.14123 0.36566 0.0
O778 O 0.42171 0.16091 0.41912 0.0
H779 H 0.60939 0.08205 0.46921 0.0
H780 H 0.44383 0.28237 0.3843 0.0
H781 H 0.47348 0.2264 0.57313 0.0
H782 H 0.53813 0.08576 0.5093 0.0
H783 H 0.47929 0.21068 0.3972 0.0
O784 O 0.483 0.03668 0.54176 0.0
H785 H 0.40485 0.11454 0.69533 0.0
H786 H 0.50465 0.00913 0.62822 0.0
H787 H 0.43755 0.29671 0.5608 0.0
H788 H 0.5477 0.11662 0.31411 0.0
H789 H 0.4202 0.3261 0.46595 0.0
H790 H 0.61431 0.09234 0.36563 0.0
O791 O 0.40659 0.18372 0.53613 0.0
H792 H 0.34127 0.97013 0.5019 0.0
H793 H 0.34971 0.1039 0.61841 0.0
H794 H 0.27875 0.07156 0.59848 0.0
H795 H 0.27342 1.00382 0.53985 0.0
H796 H 0.41334 1.00198 0.52489 0.0
H797 H 0.48664 0.94435 0.70901 0.0
H798 H 0.38527 0.99268 0.80809 0.0
O799 O 0.41094 0.14513 0.61259 0.0
C800 C 0.54003 0.12539 0.58987 0.0
C801 C 0.39294 0.05842 0.75712 0.0
C802 C 0.46787 0.97509 0.70847 0.0
N803 N 0.45367 0.06254 0.65884 0.0
C804 C 0.41809 0.08244 0.7015 0.0
C805 C 0.47958 0.01632 0.65926 0.0
C806 C 0.40573 0.0066 0.77685 0.0
C807 C 0.5098 0.12899 0.39017 0.0
N808 N 0.50893 0.12782 0.44833 0.0
C809 C 0.54709 0.11494 0.35951 0.0
C810 C 0.58463 0.10139 0.38798 0.0
C811 C 0.58234 0.09623 0.44575 0.0
C812 C 0.54284 0.10503 0.47304 0.0
C813 C 0.44839 0.26977 0.42543 0.0
C814 C 0.46656 0.23839 0.53123 0.0
C815 C 0.46915 0.2294 0.43297 0.0
N816 N 0.47714 0.21319 0.48545 0.0
C817 C 0.44518 0.27845 0.52479 0.0
C818 C 0.43568 0.29442 0.47161 0.0
C819 C 0.40087 0.18269 0.58938 0.0
C820 C 0.34368 0.99927 0.52813 0.0
C821 C 0.34975 0.07514 0.59192 0.0
C822 C 0.30835 0.05641 0.58149 0.0
C823 C 0.30533 0.0184 0.54894 0.0
N824 N 0.38819 0.05614 0.57197 0.0
C825 C 0.3848 0.01821 0.54063 0.0
Co826 Co 0.60712 0.70926 0.24434 0.0
Co827 Co 0.67325 0.69487 0.32999 0.0
O828 O 0.65974 0.68329 0.2537 0.0
C829 C 0.62651 0.65019 0.13539 0.0
O830 O 0.66745 0.64234 0.15071 0.0
C831 C 0.73956 0.73781 0.23942 0.0
O832 O 0.72478 0.71237 0.19853 0.0
O833 O 0.62677 0.74935 0.33197 0.0
O834 O 0.6201 0.74965 0.3254 0.0
H835 H 0.68568 0.61696 0.52918 0.0
H836 H 0.62005 0.73253 0.11545 0.0
O837 O 0.60038 0.67148 0.16925 0.0
H838 H 0.67958 0.85911 0.21866 0.0
H839 H 0.47898 0.69386 0.13446 0.0
H840 H 0.5352 0.72368 0.32311 0.0
H841 H 0.67603 0.78782 0.25876 0.0
H842 H 0.55074 0.72925 0.14715 0.0
O843 O 0.72491 0.73297 0.29179 0.0
H844 H 0.64705 0.65479 0.44543 0.0
H845 H 0.75244 0.7546 0.37824 0.0
H846 H 0.46489 0.68781 0.31101 0.0
H847 H 0.64478 0.79732 0.06375 0.0
H848 H 0.43534 0.67034 0.21624 0.0
H849 H 0.66909 0.86398 0.11514 0.0
O850 O 0.5776 0.65664 0.28646 0.0
H851 H 0.79167 0.5913 0.2524 0.0
H852 H 0.65747 0.59965 0.36808 0.0
H853 H 0.6898 0.52871 0.3481 0.0
H854 H 0.75774 0.52342 0.28986 0.0
H855 H 0.75986 0.66338 0.27552 0.0
H856 H 0.81726 0.73653 0.45888 0.0
H857 H 0.76902 0.63513 0.55797 0.0
O858 O 0.61651 0.66103 0.36268 0.0
C859 C 0.63588 0.79033 0.33882 0.0
C860 C 0.70319 0.64288 0.50717 0.0
C861 C 0.7865 0.71781 0.45844 0.0
N862 N 0.69904 0.70363 0.40891 0.0
C863 C 0.67914 0.66804 0.45157 0.0
C864 C 0.74525 0.72953 0.40928 0.0
C865 C 0.75502 0.65566 0.52685 0.0
C866 C 0.63243 0.7595 0.13989 0.0
N867 N 0.63372 0.75868 0.19804 0.0
C868 C 0.64652 0.79674 0.10914 0.0
C869 C 0.6601 0.8343 0.13752 0.0
C870 C 0.66538 0.83204 0.19526 0.0
C871 C 0.65668 0.79254 0.22258 0.0
C872 C 0.49163 0.69846 0.17555 0.0
C873 C 0.52316 0.71674 0.28125 0.0
C874 C 0.53203 0.71919 0.18297 0.0
N875 N 0.54832 0.7272 0.23541 0.0
C876 C 0.48308 0.69538 0.27493 0.0
C877 C 0.46704 0.68582 0.2218 0.0
C878 C 0.57888 0.65096 0.33972 0.0
C879 C 0.76242 0.5937 0.27842 0.0
C880 C 0.68632 0.59973 0.34175 0.0
C881 C 0.70504 0.55833 0.3313 0.0
C882 C 0.74316 0.55533 0.29896 0.0
N883 N 0.70542 0.63819 0.32202 0.0
C884 C 0.74349 0.63482 0.29094 0.0
Co885 Co 0.05226 0.85726 -0.00563 0.0
Co886 Co 0.06674 0.92327 0.07989 0.0
O887 O 0.07823 0.90987 0.00364 0.0
C888 C 0.11133 0.87679 0.88539 0.0
O889 O 0.11951 0.9176 0.90095 0.0
C890 C 0.0236 0.98945 -0.01063 0.0
O891 O 0.0489 0.97459 0.94839 0.0
O892 O 0.01228 0.87684 0.08158 0.0
O893 O 0.01195 0.86994 0.0757 0.0
H894 H 0.14456 0.93565 0.27913 0.0
H895 H 0.02879 0.87036 0.86566 0.0
O896 O 0.08988 0.85068 0.91912 0.0
H897 H 0.90221 0.92955 0.96921 0.0
H898 H 0.06776 0.72923 0.8843 0.0
H899 H 0.03812 0.78519 0.07313 0.0
H900 H 0.97347 0.92584 0.0093 0.0
H901 H 0.0323 0.80092 0.8972 0.0
O902 O 0.0286 0.97491 0.04175 0.0
H903 H 0.10674 0.89706 0.19533 0.0
H904 H 0.00695 1.00247 0.12822 0.0
H905 H 0.07404 0.71488 0.0608 0.0
H906 H 0.9639 0.89498 0.81411 0.0
H907 H 0.0914 0.68549 0.96595 0.0
H908 H 0.89729 0.91926 0.86563 0.0
O909 O 0.10501 0.82788 0.03613 0.0
H910 H 0.17032 0.04146 0.0019 0.0
H911 H 0.16189 0.90769 0.11841 0.0
H912 H 0.23285 0.94004 0.09848 0.0
H913 H 0.23817 0.00778 0.03985 0.0
H914 H 0.09825 0.00962 0.02489 0.0
H915 H 0.02496 0.06724 0.20901 0.0
H916 H 0.12633 0.01892 0.30809 0.0
O917 O 0.10066 0.86646 0.11259 0.0
C918 C 0.97156 0.8862 0.08987 0.0
C919 C 0.11866 0.95318 0.25712 0.0
C920 C 0.04372 0.03651 0.20847 0.0
N921 N 0.05793 0.94906 0.15884 0.0
C922 C 0.0935 0.92916 0.20149 0.0
C923 C 0.03201 0.99528 0.15926 0.0
C924 C 0.10587 1.005 0.27685 0.0
C925 C 1.0018 0.88261 0.89017 0.0
N926 N 1.00267 0.88378 0.94833 0.0
C927 C 0.96451 0.89666 0.85951 0.0
C928 C 0.92697 0.9102 0.88798 0.0
C929 C 0.92926 0.91536 0.94575 0.0
C930 C 0.96875 0.90657 0.97304 0.0
C931 C 0.06321 0.74182 0.92543 0.0
C932 C 0.04503 0.77321 0.03123 0.0
C933 C 0.04244 0.78219 0.93297 0.0
N934 N 0.03446 0.79841 -0.01455 0.0
C935 C 0.06642 0.73315 0.02479 0.0
C936 C 0.07592 0.71718 0.97161 0.0
C937 C 0.11072 0.82891 0.08938 0.0
C938 C 0.16792 0.01233 0.02813 0.0
C939 C 0.16185 0.93645 0.09192 0.0
C940 C 0.20325 0.95519 0.08149 0.0
C941 C 0.20627 0.9932 0.04894 0.0
N942 N 0.1234 0.95546 0.07197 0.0
C943 C 0.12679 0.99339 0.04063 0.0
Co944 Co 0.60716 0.80234 0.74432 0.0
Co945 Co 0.67321 0.81674 0.82989 0.0
O946 O 0.6598 0.82825 0.75364 0.0
C947 C 0.62678 0.8613 0.63524 0.0
O948 O 0.66768 0.86924 0.65065 0.0
C949 C 0.73941 0.77361 0.73933 0.0
O950 O 0.72459 0.79898 0.69839 0.0
O951 O 0.62674 0.76231 0.83154 0.0
O952 O 0.61982 0.76198 0.82564 0.0
H953 H 0.68568 0.89464 0.02908 0.0
H954 H 0.62015 0.77884 0.61557 0.0
O955 O 0.60063 0.84001 0.66909 0.0
H956 H 0.67943 0.65233 0.71915 0.0
H957 H 0.47919 0.81802 0.63411 0.0
H958 H 0.53499 0.78825 0.82299 0.0
H959 H 0.67571 0.7236 0.7592 0.0
H960 H 0.55081 0.78251 0.64705 0.0
O961 O 0.72485 0.77858 0.79172 0.0
H962 H 0.64706 0.85679 0.94532 0.0
H963 H 0.75245 0.75698 0.87821 0.0
H964 H 0.46464 0.82408 0.81062 0.0
H965 H 0.64478 0.71395 0.56403 0.0
H966 H 0.43541 0.84163 0.71572 0.0
H967 H 0.66911 0.64737 0.61557 0.0
O968 O 0.57783 0.85509 0.78614 0.0
H969 H 0.79149 0.92031 0.75207 0.0
H970 H 0.65759 0.9119 0.86834 0.0
H971 H 0.68996 0.98285 0.84846 0.0
H972 H 0.75776 0.98816 0.78993 0.0
H973 H 0.7596 0.84824 0.775 0.0
H974 H 0.81724 0.77498 0.95901 0.0
H975 H 0.76894 0.87636 0.05808 0.0
O976 O 0.61638 0.85065 0.86263 0.0
C977 C 0.63609 0.72158 0.83978 0.0
C978 C 0.70318 0.86869 0.00712 0.0
C979 C 0.78651 0.79375 0.95847 0.0
N980 N 0.69904 0.80794 0.90885 0.0
C981 C 0.67915 0.84352 0.9515 0.0
C982 C 0.74526 0.78203 0.90926 0.0
C983 C 0.755 0.85589 0.02685 0.0
C984 C 0.63242 0.75186 0.64008 0.0
N985 N 0.63363 0.75276 0.69824 0.0
C986 C 0.64647 0.71457 0.60943 0.0
C987 C 0.66004 0.67705 0.63791 0.0
C988 C 0.66523 0.67936 0.69568 0.0
C989 C 0.65644 0.71886 0.72295 0.0
C990 C 0.49174 0.81344 0.67526 0.0
C991 C 0.52305 0.79522 0.78108 0.0
C992 C 0.53209 0.79265 0.68283 0.0
N993 N 0.54827 0.78463 0.73533 0.0
C994 C 0.48298 0.81657 0.77462 0.0
C995 C 0.46707 0.82613 0.72142 0.0
C996 C 0.57883 0.86075 0.8394 0.0
C997 C 0.76232 0.91791 0.77824 0.0
C998 C 0.68638 0.91185 0.8419 0.0
C999 C 0.70513 0.95325 0.8315 0.0
C1000 C 0.74317 0.95626 0.79901 0.0
N1001 N 0.7054 0.8734 0.82199 0.0
C1002 C 0.74336 0.87678 0.79071 0.0
Co1003 Co 0.45917 0.35702 -0.00572 0.0
Co1004 Co 0.44486 0.42319 0.07999 0.0
O1005 O 0.43328 0.40968 0.0037 0.0
C1006 C 0.40022 0.3765 0.88525 0.0
O1007 O 0.3926 0.41752 0.90042 0.0
C1008 C 0.4878 0.48951 -0.01062 0.0
O1009 O 0.46229 0.47478 0.94853 0.0
O1010 O 0.49932 0.37668 0.08194 0.0
O1011 O 0.49962 0.36998 0.07534 0.0
H1012 H 0.36688 0.43571 0.27912 0.0
H1013 H 0.48248 0.36984 0.86536 0.0
O1014 O 0.42135 0.35032 0.91922 0.0
H1015 H 0.60899 0.42946 0.9686 0.0
H1016 H 0.44361 0.22894 0.88426 0.0
H1017 H 0.47354 0.28499 0.07297 0.0
H1018 H 0.53769 0.4259 0.00866 0.0
H1019 H 0.47904 0.30064 0.897 0.0
O1020 O 0.48298 0.47485 0.04175 0.0
H1021 H 0.40474 0.39705 0.19541 0.0
H1022 H 0.50457 0.50242 0.12823 0.0
H1023 H 0.43778 0.21464 0.06083 0.0
H1024 H 0.54726 0.39458 0.81367 0.0
H1025 H 0.4201 0.18525 0.96601 0.0
H1026 H 0.6139 0.41893 0.86508 0.0
O1027 O 0.40656 0.32756 0.03646 0.0
H1028 H 0.34131 0.54169 0.00256 0.0
H1029 H 0.34964 0.40738 0.11801 0.0
H1030 H 0.27871 0.43973 0.09808 0.0
H1031 H 0.27343 0.50772 0.03994 0.0
H1032 H 0.4134 0.50984 0.02563 0.0
H1033 H 0.48651 0.56726 0.20887 0.0
H1034 H 0.3851 0.51904 0.30796 0.0
O1035 O 0.41105 0.36643 0.11271 0.0
C1036 C 0.54031 0.38576 0.08873 0.0
C1037 C 0.39285 0.4532 0.25717 0.0
C1038 C 0.46779 0.53649 0.20844 0.0
N1039 N 0.45361 0.44902 0.15891 0.0
C1040 C 0.41802 0.42914 0.20157 0.0
C1041 C 0.47951 0.49524 0.15928 0.0
C1042 C 0.40564 0.50503 0.27685 0.0
C1043 C 0.50943 0.38224 0.8898 0.0
N1044 N 0.50859 0.38357 0.94794 0.0
C1045 C 0.54667 0.39633 0.85905 0.0
C1046 C 0.58422 0.40993 0.88745 0.0
C1047 C 0.58194 0.41524 0.94519 0.0
C1048 C 0.54243 0.40655 0.97248 0.0
C1049 C 0.44823 0.24155 0.92537 0.0
C1050 C 0.46655 0.273 0.0311 0.0
C1051 C 0.46899 0.28193 0.93283 0.0
N1052 N 0.47703 0.29819 -0.01471 0.0
C1053 C 0.44522 0.23291 0.02476 0.0
C1054 C 0.4356 0.21693 0.97161 0.0
C1055 C 0.40093 0.3288 0.08973 0.0
C1056 C 0.34371 0.51241 0.02853 0.0
C1057 C 0.34973 0.43625 0.09174 0.0
C1058 C 0.30833 0.45499 0.08131 0.0
C1059 C 0.30533 0.49313 0.04903 0.0
N1060 N 0.38819 0.45537 0.07204 0.0
C1061 C 0.38483 0.49346 0.04102 0.0
Co1062 Co 0.90443 0.20925 0.24432 0.0
Co1063 Co 0.83839 0.19485 0.32989 0.0
O1064 O 0.85179 0.18335 0.25364 0.0
C1065 C 0.88482 0.1503 0.13524 0.0
O1066 O 0.84392 0.14235 0.15066 0.0
C1067 C 0.77219 0.23798 0.23933 0.0
O1068 O 0.78701 0.21262 0.19839 0.0
O1069 O 0.88485 0.24929 0.33154 0.0
O1070 O 0.89177 0.24961 0.32564 0.0
H1071 H 0.82592 0.11696 0.52908 0.0
H1072 H 0.89144 0.23276 0.11557 0.0
O1073 O 0.91097 0.17158 0.16909 0.0
H1074 H 0.83217 0.35927 0.21915 0.0
H1075 H 0.03241 0.19357 0.13411 0.0
H1076 H 0.97661 0.22335 0.32299 0.0
H1077 H 0.83589 0.288 0.2592 0.0
H1078 H 0.96078 0.22909 0.14706 0.0
O1079 O 0.78675 0.23302 0.29172 0.0
H1080 H 0.86453 0.15481 0.44532 0.0
H1081 H 0.75914 0.25462 0.3782 0.0
H1082 H 0.04695 0.18752 0.31063 0.0
H1083 H 0.86681 0.29764 0.06403 0.0
H1084 H 0.07619 0.16996 0.21572 0.0
H1085 H 0.84249 0.36423 0.11557 0.0
O1086 O 0.93376 0.15651 0.28614 0.0
H1087 H 0.72011 0.09129 0.25207 0.0
H1088 H 0.854 0.0997 0.36834 0.0
H1089 H 0.82163 0.02875 0.34845 0.0
H1090 H 0.75384 0.02343 0.28993 0.0
H1091 H 0.752 0.16336 0.275 0.0
H1092 H 0.69436 0.23662 0.459 0.0
H1093 H 0.74265 0.13524 0.55808 0.0
O1094 O 0.89522 0.16095 0.36263 0.0
C1095 C 0.87551 0.29001 0.33978 0.0
C1096 C 0.80841 0.14291 0.50712 0.0
C1097 C 0.72509 0.21785 0.45847 0.0
N1098 N 0.81256 0.20365 0.40885 0.0
C1099 C 0.83245 0.16807 0.4515 0.0
C1100 C 0.76634 0.22956 0.40925 0.0
C1101 C 0.75659 0.15571 0.52685 0.0
C1102 C 0.87918 0.25973 0.14009 0.0
N1103 N 0.87796 0.25884 0.19824 0.0
C1104 C 0.86513 0.29703 0.10943 0.0
C1105 C 0.85156 0.33455 0.13791 0.0
C1106 C 0.84637 0.33224 0.19568 0.0
C1107 C 0.85515 0.29273 0.22295 0.0
C1108 C 0.01985 0.19816 0.17526 0.0
C1109 C 0.98854 0.21638 0.28108 0.0
C1110 C 0.97951 0.21895 0.18283 0.0
N1111 N 0.96332 0.22696 0.23533 0.0
C1112 C 0.02862 0.19503 0.27462 0.0
C1113 C 0.04453 0.18546 0.22142 0.0
C1114 C 0.93276 0.15085 0.3394 0.0
C1115 C 0.74928 0.09369 0.27824 0.0
C1116 C 0.82522 0.09975 0.3419 0.0
C1117 C 0.80647 0.05835 0.3315 0.0
C1118 C 0.76843 0.05534 0.299 0.0
N1119 N 0.8062 0.1382 0.32199 0.0
C1120 C 0.76823 0.13481 0.29071 0.0
Co1121 Co 0.05243 0.65457 0.49428 0.0
Co1122 Co 0.06673 0.58841 0.57999 0.0
O1123 O 0.07832 0.60192 0.5037 0.0
C1124 C 0.11137 0.63509 0.38525 0.0
O1125 O 0.11899 0.59408 0.40042 0.0
C1126 C 0.0238 0.52209 0.48938 0.0
O1127 O 0.04931 0.53682 0.44853 0.0
O1128 O 0.01227 0.63492 0.58194 0.0
O1129 O 0.01197 0.64162 0.57534 0.0
H1130 H 0.14471 0.57589 0.77912 0.0
H1131 H 0.02912 0.64175 0.36536 0.0
O1132 O 0.09025 0.66127 0.41922 0.0
H1133 H 0.90261 0.58214 0.4686 0.0
H1134 H 0.06799 0.78266 0.38426 0.0
H1135 H 0.03805 0.7266 0.57296 0.0
H1136 H 0.97391 0.5857 0.50866 0.0
H1137 H 0.03256 0.71096 0.397 0.0
O1138 O 0.02861 0.53675 0.54175 0.0
H1139 H 0.10686 0.61454 0.69541 0.0
H1140 H 0.00703 0.50917 0.62823 0.0
H1141 H 0.07382 0.79695 0.56083 0.0
H1142 H 0.96433 0.61701 0.31367 0.0
H1143 H 0.09149 0.82634 0.46601 0.0
H1144 H 0.8977 0.59266 0.36508 0.0
O1145 O 0.10504 0.68404 0.53646 0.0
H1146 H 0.17029 0.46991 0.50256 0.0
H1147 H 0.16195 0.60422 0.61801 0.0
H1148 H 0.23289 0.57187 0.59808 0.0
H1149 H 0.23817 0.50387 0.53994 0.0
H1150 H 0.0982 0.50176 0.52563 0.0
H1151 H 0.02509 0.44434 0.70887 0.0
H1152 H 0.1265 0.49256 0.80796 0.0
O1153 O 0.10055 0.64517 0.61271 0.0
C1154 C 0.97128 0.62584 0.58873 0.0
C1155 C 0.11874 0.5584 0.75717 0.0
C1156 C 0.04381 0.4751 0.70844 0.0
N1157 N 0.05798 0.56257 0.65891 0.0
C1158 C 0.09357 0.58246 0.70157 0.0
C1159 C 0.03208 0.51636 0.65928 0.0
C1160 C 0.10595 0.50656 0.77685 0.0
C1161 C 1.00217 0.62935 0.3898 0.0
N1162 N 1.00301 0.62803 0.44794 0.0
C1163 C 0.96492 0.61527 0.35905 0.0
C1164 C 0.92738 0.60166 0.38745 0.0
C1165 C 0.92966 0.59635 0.44519 0.0
C1166 C 0.96917 0.60504 0.47248 0.0
C1167 C 0.06337 0.77004 0.42537 0.0
C1168 C 0.04504 0.7386 0.5311 0.0
C1169 C 0.04261 0.72966 0.43283 0.0
N1170 N 0.03457 0.71341 0.48529 0.0
C1171 C 0.06638 0.77869 0.52476 0.0
C1172 C 0.076 0.79467 0.47161 0.0
C1173 C 0.11066 0.68279 0.58973 0.0
C1174 C 0.16789 0.49918 0.52853 0.0
C1175 C 0.16187 0.57535 0.59174 0.0
C1176 C 0.20327 0.55661 0.58131 0.0
C1177 C 0.20626 0.51846 0.54903 0.0
N1178 N 0.1234 0.55623 0.57204 0.0
C1179 C 0.12677 0.51814 0.54101 0.0
Co1180 Co 0.60716 0.20925 0.71815 0.0
Co1181 Co 0.67321 0.19485 0.63257 0.0
O1182 O 0.6598 0.18335 0.70883 0.0
C1183 C 0.62678 0.1503 0.82722 0.0
O1184 O 0.66768 0.14235 0.81181 0.0
C1185 C 0.7394 0.23798 0.72314 0.0
O1186 O 0.72459 0.21262 0.76407 0.0
O1187 O 0.62674 0.24929 0.63092 0.0
O1188 O 0.61982 0.24961 0.63683 0.0
H1189 H 0.68568 0.11696 0.43339 0.0
H1190 H 0.62015 0.23276 0.84689 0.0
O1191 O 0.60063 0.17158 0.79338 0.0
H1192 H 0.67943 0.35927 0.74331 0.0
H1193 H 0.47919 0.19357 0.82835 0.0
H1194 H 0.53499 0.22335 0.63948 0.0
H1195 H 0.67571 0.288 0.70327 0.0
H1196 H 0.55081 0.22909 0.81541 0.0
O1197 O 0.72485 0.23301 0.67074 0.0
H1198 H 0.64706 0.15481 0.51714 0.0
H1199 H 0.75245 0.25462 0.58426 0.0
H1200 H 0.46464 0.18752 0.65184 0.0
H1201 H 0.64478 0.29765 0.89843 0.0
H1202 H 0.43541 0.16996 0.74675 0.0
H1203 H 0.66911 0.36423 0.84689 0.0
O1204 O 0.57783 0.15651 0.67633 0.0
H1205 H 0.79149 0.09129 0.7104 0.0
H1206 H 0.65759 0.0997 0.59413 0.0
H1207 H 0.68996 0.02875 0.61401 0.0
H1208 H 0.75776 0.02343 0.67253 0.0
H1209 H 0.7596 0.16336 0.68746 0.0
H1210 H 0.81724 0.23662 0.50346 0.0
H1211 H 0.76894 0.13524 0.40439 0.0
O1212 O 0.61638 0.16095 0.59984 0.0
C1213 C 0.63608 0.29001 0.62269 0.0
C1214 C 0.70318 0.14291 0.45535 0.0
C1215 C 0.78651 0.21785 0.504 0.0
N1216 N 0.69904 0.20365 0.55361 0.0
C1217 C 0.67915 0.16807 0.51096 0.0
C1218 C 0.74526 0.22956 0.55321 0.0
C1219 C 0.75501 0.15571 0.43562 0.0
C1220 C 0.63242 0.25973 0.82238 0.0
N1221 N 0.63363 0.25884 0.76423 0.0
C1222 C 0.64647 0.29703 0.85303 0.0
C1223 C 0.66004 0.33455 0.82455 0.0
C1224 C 0.66523 0.33224 0.76679 0.0
C1225 C 0.65644 0.29273 0.73952 0.0
C1226 C 0.49174 0.19816 0.78721 0.0
C1227 C 0.52305 0.21638 0.68139 0.0
C1228 C 0.53209 0.21895 0.77964 0.0
N1229 N 0.54827 0.22696 0.72714 0.0
C1230 C 0.48298 0.19502 0.68785 0.0
C1231 C 0.46707 0.18546 0.74104 0.0
C1232 C 0.57883 0.15085 0.62306 0.0
C1233 C 0.76232 0.09369 0.68422 0.0
C1234 C 0.68638 0.09975 0.62056 0.0
C1235 C 0.70513 0.05835 0.63097 0.0
C1236 C 0.74317 0.05534 0.66346 0.0
N1237 N 0.7054 0.1382 0.64047 0.0
C1238 C 0.74336 0.13481 0.67176 0.0
Co1239 Co 0.05242 0.35702 0.96818 0.0
Co1240 Co 0.06673 0.42319 0.88248 0.0
O1241 O 0.07832 0.40968 0.95877 0.0
C1242 C 0.11137 0.3765 0.07721 0.0
O1243 O 0.11899 0.41752 0.06204 0.0
C1244 C 0.0238 0.48951 0.97309 0.0
O1245 O 0.04931 0.47478 0.01393 0.0
O1246 O 0.01227 0.37668 0.88053 0.0
O1247 O 0.01197 0.36998 0.88713 0.0
H1248 H 0.14471 0.43571 0.68334 0.0
H1249 H 0.02912 0.36985 0.0971 0.0
O1250 O 0.09025 0.35032 0.04324 0.0
H1251 H 0.90261 0.42946 -0.00614 0.0
H1252 H 0.06799 0.22894 0.0782 0.0
H1253 H 0.03805 0.28499 0.8895 0.0
H1254 H 0.9739 0.4259 0.9538 0.0
H1255 H 0.03255 0.30064 0.06546 0.0
O1256 O 0.02861 0.47485 0.92072 0.0
H1257 H 0.10686 0.39705 0.76705 0.0
H1258 H 0.00703 0.50242 0.83424 0.0
H1259 H 0.07382 0.21464 0.90164 0.0
H1260 H 0.96433 0.39459 0.1488 0.0
H1261 H 0.09149 0.18525 -0.00354 0.0
H1262 H 0.8977 0.41893 0.09739 0.0
O1263 O 0.10504 0.32756 0.926 0.0
H1264 H 0.17029 0.54169 0.9599 0.0
H1265 H 0.16195 0.40738 0.84445 0.0
H1266 H 0.23289 0.43973 0.86438 0.0
H1267 H 0.23816 0.50772 0.92252 0.0
H1268 H 0.0982 0.50984 0.93684 0.0
H1269 H 0.02509 0.56726 0.75359 0.0
H1270 H 0.1265 0.51904 0.6545 0.0
O1271 O 0.10055 0.36643 0.84975 0.0
C1272 C 0.97128 0.38576 0.87373 0.0
C1273 C 0.11874 0.4532 0.70529 0.0
C1274 C 0.04381 0.53649 0.75403 0.0
N1275 N 0.05798 0.44902 0.80355 0.0
C1276 C 0.09357 0.42914 0.76089 0.0
C1277 C 0.03208 0.49524 0.80319 0.0
C1278 C 0.10595 0.50503 0.68562 0.0
C1279 C 1.00216 0.38224 0.07267 0.0
N1280 N 1.00301 0.38357 0.01452 0.0
C1281 C 0.96492 0.39633 0.10341 0.0
C1282 C 0.92737 0.40994 0.07502 0.0
C1283 C 0.92966 0.41524 0.01728 0.0
C1284 C 0.96917 0.40655 -0.01002 0.0
C1285 C 0.06336 0.24155 0.03709 0.0
C1286 C 0.04504 0.273 0.93137 0.0
C1287 C 0.04261 0.28193 0.02964 0.0
N1288 N 0.03457 0.29819 0.97718 0.0
C1289 C 0.06638 0.23291 0.93771 0.0
C1290 C 0.076 0.21693 -0.00915 0.0
C1291 C 0.11066 0.3288 0.87273 0.0
C1292 C 0.16789 0.51241 0.93394 0.0
C1293 C 0.16187 0.43625 0.87072 0.0
C1294 C 0.20327 0.45499 0.88115 0.0
C1295 C 0.20626 0.49313 0.91344 0.0
N1296 N 0.1234 0.45537 0.89043 0.0
C1297 C 0.12677 0.49346 0.92145 0.0
Co1298 Co 0.90443 0.80234 0.21815 0.0
Co1299 Co 0.83839 0.81674 0.13257 0.0
O1300 O 0.85179 0.82825 0.20883 0.0
C1301 C 0.88482 0.8613 0.32722 0.0
O1302 O 0.84392 0.86924 0.31181 0.0
C1303 C 0.77219 0.77361 0.22314 0.0
O1304 O 0.78701 0.79898 0.26408 0.0
O1305 O 0.88485 0.76231 0.13092 0.0
O1306 O 0.89177 0.76198 0.13683 0.0
H1307 H 0.82592 0.89464 0.93339 0.0
H1308 H 0.89144 0.77884 0.34689 0.0
O1309 O 0.91097 0.84001 0.29338 0.0
H1310 H 0.83217 0.65233 0.24332 0.0
H1311 H 0.03241 0.81802 0.32835 0.0
H1312 H 0.97661 0.78825 0.13948 0.0
H1313 H 0.83589 0.72359 0.20327 0.0
H1314 H 0.96078 0.78251 0.31541 0.0
O1315 O 0.78674 0.77858 0.17075 0.0
H1316 H 0.86453 0.85679 0.01715 0.0
H1317 H 0.75914 0.75698 0.08426 0.0
H1318 H 0.04695 0.82408 0.15184 0.0
H1319 H 0.86681 0.71395 0.39843 0.0
H1320 H 0.07619 0.84163 0.24674 0.0
H1321 H 0.84249 0.64737 0.34689 0.0
O1322 O 0.93376 0.85509 0.17633 0.0
H1323 H 0.72011 0.92031 0.2104 0.0
H1324 H 0.854 0.9119 0.09413 0.0
H1325 H 0.82163 0.98285 0.11401 0.0
H1326 H 0.75383 0.98816 0.17254 0.0
H1327 H 0.752 0.84824 0.18747 0.0
H1328 H 0.69436 0.77498 0.00346 0.0
H1329 H 0.74265 0.87636 0.90439 0.0
O1330 O 0.89522 0.85065 0.09984 0.0
C1331 C 0.87551 0.72158 0.12269 0.0
C1332 C 0.80841 0.86869 0.95535 0.0
C1333 C 0.72509 0.79375 0.004 0.0
N1334 N 0.81255 0.80794 0.05362 0.0
C1335 C 0.83245 0.84352 0.01096 0.0
C1336 C 0.76633 0.78203 0.05321 0.0
C1337 C 0.75659 0.85589 0.93562 0.0
C1338 C 0.87918 0.75186 0.32238 0.0
N1339 N 0.87796 0.75276 0.26423 0.0
C1340 C 0.86513 0.71457 0.35303 0.0
C1341 C 0.85156 0.67705 0.32455 0.0
C1342 C 0.84637 0.67936 0.26679 0.0
C1343 C 0.85515 0.71886 0.23952 0.0
C1344 C 0.01985 0.81344 0.28721 0.0
C1345 C 0.98854 0.79521 0.18138 0.0
C1346 C 0.97951 0.79265 0.27964 0.0
N1347 N 0.96332 0.78463 0.22714 0.0
C1348 C 0.02862 0.81657 0.18784 0.0
C1349 C 0.04453 0.82613 0.24104 0.0
C1350 C 0.93276 0.86075 0.12306 0.0
C1351 C 0.74928 0.91791 0.18423 0.0
C1352 C 0.82521 0.91185 0.12056 0.0
C1353 C 0.80647 0.95325 0.13097 0.0
C1354 C 0.76843 0.95626 0.16346 0.0
N1355 N 0.8062 0.8734 0.14048 0.0
C1356 C 0.76824 0.87678 0.17176 0.0
Co1357 Co 0.45917 0.65457 0.46818 0.0
Co1358 Co 0.44486 0.58841 0.38248 0.0
O1359 O 0.43328 0.60192 0.45877 0.0
C1360 C 0.40022 0.63509 0.57722 0.0
O1361 O 0.3926 0.59408 0.56205 0.0
C1362 C 0.4878 0.52209 0.47309 0.0
O1363 O 0.46229 0.53682 0.51393 0.0
O1364 O 0.49932 0.63492 0.38053 0.0
O1365 O 0.49962 0.64162 0.38713 0.0
H1366 H 0.36688 0.57589 0.18334 0.0
H1367 H 0.48248 0.64175 0.59711 0.0
O1368 O 0.42135 0.66127 0.54324 0.0
H1369 H 0.60898 0.58214 0.49386 0.0
H1370 H 0.4436 0.78266 0.5782 0.0
H1371 H 0.47354 0.7266 0.3895 0.0
H1372 H 0.53769 0.5857 0.4538 0.0
H1373 H 0.47904 0.71096 0.56546 0.0
O1374 O 0.48298 0.53675 0.42072 0.0
H1375 H 0.40474 0.61454 0.26705 0.0
H1376 H 0.50457 0.50917 0.33424 0.0
H1377 H 0.43778 0.79696 0.40164 0.0
H1378 H 0.54726 0.61701 0.6488 0.0
H1379 H 0.4201 0.82634 0.49646 0.0
H1380 H 0.6139 0.59266 0.59739 0.0
O1381 O 0.40656 0.68404 0.426 0.0
H1382 H 0.34131 0.46991 0.4599 0.0
H1383 H 0.34964 0.60422 0.34445 0.0
H1384 H 0.27871 0.57187 0.36438 0.0
H1385 H 0.27343 0.50387 0.42253 0.0
H1386 H 0.4134 0.50176 0.43684 0.0
H1387 H 0.48651 0.44434 0.25359 0.0
H1388 H 0.3851 0.49256 0.1545 0.0
O1389 O 0.41105 0.64517 0.34975 0.0
C1390 C 0.54031 0.62584 0.37373 0.0
C1391 C 0.39285 0.5584 0.20529 0.0
C1392 C 0.46779 0.4751 0.25403 0.0
N1393 N 0.45361 0.56257 0.30355 0.0
C1394 C 0.41802 0.58246 0.26089 0.0
C1395 C 0.47951 0.51636 0.30319 0.0
C1396 C 0.40564 0.50656 0.18562 0.0
C1397 C 0.50943 0.62935 0.57267 0.0
N1398 N 0.50858 0.62803 0.51452 0.0
C1399 C 0.54667 0.61527 0.60341 0.0
C1400 C 0.58422 0.60166 0.57502 0.0
C1401 C 0.58194 0.59635 0.51728 0.0
C1402 C 0.54243 0.60504 0.48998 0.0
C1403 C 0.44823 0.77004 0.53709 0.0
C1404 C 0.46655 0.7386 0.43137 0.0
C1405 C 0.46899 0.72966 0.52964 0.0
N1406 N 0.47703 0.71341 0.47718 0.0
C1407 C 0.44522 0.77869 0.43771 0.0
C1408 C 0.4356 0.79467 0.49085 0.0
C1409 C 0.40093 0.68279 0.37273 0.0
C1410 C 0.34371 0.49918 0.43394 0.0
C1411 C 0.34973 0.57535 0.37072 0.0
C1412 C 0.30833 0.55661 0.38116 0.0
C1413 C 0.30533 0.51846 0.41344 0.0
N1414 N 0.38819 0.55623 0.39043 0.0
C1415 C 0.38483 0.51814 0.42145 0.0
Co1416 Co 0.40446 0.20912 0.21824 0.0
Co1417 Co 0.33845 0.19471 0.13241 0.0
O1418 O 0.35185 0.1832 0.20876 0.0
C1419 C 0.38498 0.15007 0.3272 0.0
O1420 O 0.34405 0.1422 0.31184 0.0
C1421 C 0.27207 0.23762 0.22295 0.0
O1422 O 0.28678 0.21214 0.26383 0.0
O1423 O 0.38491 0.24922 0.1305 0.0
O1424 O 0.3916 0.24952 0.13712 0.0
H1425 H 0.32588 0.11674 0.93324 0.0
H1426 H 0.39157 0.23245 0.34709 0.0
O1427 O 0.41111 0.17136 0.29335 0.0
H1428 H 0.33203 0.35898 0.24382 0.0
H1429 H 0.53254 0.19352 0.3283 0.0
H1430 H 0.47653 0.22337 0.13955 0.0
H1431 H 0.33559 0.28767 0.20374 0.0
H1432 H 0.46085 0.22897 0.31549 0.0
O1433 O 0.28676 0.23281 0.1706 0.0
H1434 H 0.36455 0.15454 0.01705 0.0
H1435 H 0.25924 0.25444 0.08418 0.0
H1436 H 0.54687 0.18753 0.15177 0.0
H1437 H 0.36687 0.29725 0.39877 0.0
H1438 H 0.57628 0.17004 0.24661 0.0
H1439 H 0.34251 0.36388 0.34734 0.0
O1440 O 0.43384 0.15646 0.17625 0.0
H1441 H 0.21989 0.09118 0.20972 0.0
H1442 H 0.35433 0.09947 0.09452 0.0
H1443 H 0.32199 0.02854 0.11449 0.0
H1444 H 0.25393 0.02328 0.17252 0.0
H1445 H 0.25172 0.16326 0.18659 0.0
H1446 H 0.19435 0.23633 0.00364 0.0
H1447 H 0.2425 0.1349 0.90455 0.0
O1448 O 0.39529 0.16086 0.09972 0.0
C1449 C 0.37582 0.29021 0.12373 0.0
C1450 C 0.30839 0.14268 0.95524 0.0
C1451 C 0.22511 0.21761 0.00406 0.0
N1452 N 0.31261 0.20344 0.0535 0.0
C1453 C 0.33248 0.16785 0.01083 0.0
C1454 C 0.2664 0.22934 0.05317 0.0
C1455 C 0.25654 0.15547 0.93561 0.0
C1456 C 0.37921 0.25942 0.32265 0.0
N1457 N 0.37791 0.25857 0.2645 0.0
C1458 C 0.36513 0.29667 0.35338 0.0
C1459 C 0.35152 0.33421 0.32497 0.0
C1460 C 0.34623 0.33192 0.26723 0.0
C1461 C 0.35493 0.29241 0.23994 0.0
C1462 C 0.51994 0.19814 0.28719 0.0
C1463 C 0.48852 0.2164 0.18143 0.0
C1464 C 0.47956 0.2189 0.27969 0.0
N1465 N 0.46332 0.22692 0.22723 0.0
C1466 C 0.5286 0.19505 0.18781 0.0
C1467 C 0.54459 0.1855 0.24097 0.0
C1468 C 0.43284 0.15079 0.12298 0.0
C1469 C 0.2492 0.09356 0.18382 0.0
C1470 C 0.32543 0.09956 0.12074 0.0
C1471 C 0.3067 0.05816 0.1312 0.0
C1472 C 0.26852 0.05518 0.16341 0.0
N1473 N 0.30629 0.13803 0.14037 0.0
C1474 C 0.26815 0.13468 0.17131 0.0
Co1475 Co 0.55227 0.65446 0.96822 0.0
Co1476 Co 0.56665 0.58842 0.88245 0.0
O1477 O 0.57814 0.60183 0.95879 0.0
C1478 C 0.6112 0.63489 0.07724 0.0
O1479 O 0.61895 0.59393 0.06195 0.0
C1480 C 0.52365 0.52208 0.97302 0.0
O1481 O 0.54917 0.53677 0.01388 0.0
O1482 O 0.51218 0.63492 0.88048 0.0
O1483 O 0.51188 0.6416 0.88709 0.0
H1484 H 0.64465 0.57588 0.68332 0.0
H1485 H 0.52885 0.64168 0.09708 0.0
O1486 O 0.59001 0.66108 0.04334 0.0
H1487 H 0.40238 0.58211 -0.00629 0.0
H1488 H 0.56789 0.78258 0.07817 0.0
H1489 H 0.53802 0.72651 0.88947 0.0
H1490 H 0.47369 0.58566 0.9537 0.0
H1491 H 0.53245 0.71089 0.06542 0.0
O1492 O 0.52848 0.53676 0.92065 0.0
H1493 H 0.60679 0.61455 0.76706 0.0
H1494 H 0.50694 0.5092 0.83419 0.0
H1495 H 0.57383 0.79688 0.90162 0.0
H1496 H 0.46399 0.61702 0.14872 0.0
H1497 H 0.59144 0.82626 -0.00356 0.0
H1498 H 0.39739 0.59266 0.09723 0.0
O1499 O 0.60495 0.68381 0.92626 0.0
H1500 H 0.6701 0.46989 0.95998 0.0
H1501 H 0.6619 0.60419 0.8445 0.0
H1502 H 0.73281 0.57183 0.86454 0.0
H1503 H 0.73802 0.50384 0.9227 0.0
H1504 H 0.59804 0.50174 0.93677 0.0
H1505 H 0.52501 0.44436 0.75357 0.0
H1506 H 0.62644 0.49254 0.65451 0.0
O1507 O 0.60056 0.64524 0.84976 0.0
C1508 C 0.47119 0.62585 0.87365 0.0
C1509 C 0.61868 0.5584 0.70528 0.0
C1510 C 0.54375 0.47511 0.75404 0.0
N1511 N 0.55792 0.56259 0.80353 0.0
C1512 C 0.59351 0.58247 0.76088 0.0
C1513 C 0.53202 0.51637 0.80318 0.0
C1514 C 0.60589 0.50655 0.68562 0.0
C1515 C 0.50189 0.62931 0.07261 0.0
N1516 N 0.50277 0.62797 0.01447 0.0
C1517 C 0.46461 0.61527 0.10332 0.0
C1518 C 0.42709 0.60165 0.07489 0.0
C1519 C 0.42941 0.59633 0.01715 0.0
C1520 C 0.46894 0.60499 -0.01011 0.0
C1521 C 0.56331 0.76995 0.03706 0.0
C1522 C 0.54501 0.73851 0.93134 0.0
C1523 C 0.54255 0.72958 0.02961 0.0
N1524 N 0.5345 0.71333 0.97715 0.0
C1525 C 0.56637 0.77859 0.93768 0.0
C1526 C 0.57596 0.79457 -0.00917 0.0
C1527 C 0.61065 0.68279 0.873 0.0
C1528 C 0.66774 0.49916 0.93401 0.0
C1529 C 0.66179 0.57533 0.87078 0.0
C1530 C 0.70318 0.55658 0.88127 0.0
C1531 C 0.70613 0.51843 0.91356 0.0
N1532 N 0.6233 0.55622 0.89044 0.0
C1533 C 0.62663 0.51812 0.92145 0.0
Co1534 Co 0.10713 0.80248 0.71824 0.0
Co1535 Co 0.17315 0.81689 0.63241 0.0
O1536 O 0.15974 0.8284 0.70876 0.0
C1537 C 0.12662 0.86153 0.8272 0.0
O1538 O 0.16755 0.8694 0.81184 0.0
C1539 C 0.23953 0.77397 0.72295 0.0
O1540 O 0.22481 0.79945 0.76383 0.0
O1541 O 0.12668 0.76238 0.6305 0.0
O1542 O 0.12 0.76208 0.63712 0.0
H1543 H 0.18572 0.89486 0.43324 0.0
H1544 H 0.12002 0.77915 0.84709 0.0
O1545 O 0.10048 0.84024 0.79335 0.0
H1546 H 0.17956 0.65261 0.74382 0.0
H1547 H 0.97905 0.81807 0.8283 0.0
H1548 H 0.03507 0.78822 0.63955 0.0
H1549 H 0.176 0.72393 0.70374 0.0
H1550 H 0.05075 0.78262 0.81549 0.0
O1551 O 0.22483 0.77879 0.6706 0.0
H1552 H 0.14705 0.85706 0.51705 0.0
H1553 H 0.25236 0.75716 0.58418 0.0
H1554 H 0.96473 0.82407 0.65177 0.0
H1555 H 0.14473 0.71434 0.89877 0.0
H1556 H 0.93531 0.84156 0.74661 0.0
H1557 H 0.16909 0.64771 0.84734 0.0
O1558 O 0.07776 0.85514 0.67625 0.0
H1559 H 0.2917 0.92042 0.70972 0.0
H1560 H 0.15727 0.91213 0.59451 0.0
H1561 H 0.18961 0.98306 0.61449 0.0
H1562 H 0.25766 0.98832 0.67252 0.0
H1563 H 0.25988 0.84834 0.6866 0.0
H1564 H 0.31724 0.77526 0.50364 0.0
H1565 H 0.2691 0.8767 0.40455 0.0
O1566 O 0.1163 0.85074 0.59973 0.0
C1567 C 0.13578 0.72139 0.62373 0.0
C1568 C 0.20321 0.86891 0.45524 0.0
C1569 C 0.28648 0.79399 0.50406 0.0
N1570 N 0.19898 0.80815 0.5535 0.0
C1571 C 0.17912 0.84375 0.51084 0.0
C1572 C 0.2452 0.78225 0.55317 0.0
C1573 C 0.25506 0.85613 0.43562 0.0
C1574 C 0.13238 0.75218 0.82265 0.0
N1575 N 0.13368 0.75302 0.7645 0.0
C1576 C 0.14646 0.71493 0.85338 0.0
C1577 C 0.16008 0.67739 0.82497 0.0
C1578 C 0.16537 0.67968 0.76723 0.0
C1579 C 0.15667 0.71919 0.73994 0.0
C1580 C 0.99165 0.81345 0.78719 0.0
C1581 C 0.02308 0.7952 0.68143 0.0
C1582 C 0.03203 0.7927 0.77969 0.0
N1583 N 0.04827 0.78467 0.72723 0.0
C1584 C 0.983 0.81655 0.68781 0.0
C1585 C 0.96701 0.8261 0.74097 0.0
C1586 C 0.07876 0.8608 0.62298 0.0
C1587 C 0.2624 0.91803 0.68382 0.0
C1588 C 0.18617 0.91204 0.62074 0.0
C1589 C 0.2049 0.95343 0.63119 0.0
C1590 C 0.24308 0.95642 0.66341 0.0
N1591 N 0.20531 0.87356 0.64037 0.0
C1592 C 0.24345 0.87691 0.67131 0.0
Co1593 Co 0.95933 0.35714 0.46822 0.0
Co1594 Co 0.94495 0.42318 0.38245 0.0
O1595 O 0.93345 0.40977 0.45879 0.0
C1596 C 0.9004 0.37671 0.57724 0.0
O1597 O 0.89265 0.41767 0.56195 0.0
C1598 C 0.98794 0.48952 0.47302 0.0
O1599 O 0.96243 0.47483 0.51388 0.0
O1600 O 0.99941 0.37667 0.38048 0.0
O1601 O 0.99971 0.37 0.38709 0.0
H1602 H 0.86695 0.43572 0.18332 0.0
H1603 H 0.98275 0.36992 0.59708 0.0
O1604 O 0.92158 0.35052 0.54334 0.0
H1605 H 0.10922 0.42948 0.49371 0.0
H1606 H 0.94371 0.22902 0.57817 0.0
H1607 H 0.97358 0.28508 0.38947 0.0
H1608 H 0.03791 0.42594 0.4537 0.0
H1609 H 0.97915 0.3007 0.56542 0.0
O1610 O 0.98312 0.47484 0.42065 0.0
H1611 H 0.90481 0.39705 0.26706 0.0
H1612 H 1.00466 0.50239 0.33419 0.0
H1613 H 0.93777 0.21471 0.40162 0.0
H1614 H 0.0476 0.39458 0.64872 0.0
H1615 H 0.92015 0.18534 0.49644 0.0
H1616 H 0.11421 0.41894 0.59723 0.0
O1617 O 0.90665 0.32779 0.42626 0.0
H1618 H 0.8415 0.54171 0.45999 0.0
H1619 H 0.8497 0.4074 0.3445 0.0
H1620 H 0.77879 0.43977 0.36454 0.0
H1621 H 0.77357 0.50776 0.4227 0.0
H1622 H 0.91355 0.50986 0.43678 0.0
H1623 H 0.98659 0.56723 0.25357 0.0
H1624 H 0.88516 0.51905 0.15451 0.0
O1625 O 0.91104 0.36636 0.34976 0.0
C1626 C 0.04041 0.38574 0.37365 0.0
C1627 C 0.89291 0.4532 0.20528 0.0
C1628 C 0.96784 0.53649 0.25404 0.0
N1629 N 0.95368 0.44901 0.30353 0.0
C1630 C 0.91808 0.42913 0.26088 0.0
C1631 C 0.97957 0.49523 0.30318 0.0
C1632 C 0.9057 0.50504 0.18562 0.0
C1633 C 0.00971 0.38228 0.57262 0.0
N1634 N 0.00882 0.38363 0.51447 0.0
C1635 C 0.04698 0.39633 0.60332 0.0
C1636 C 0.08451 0.40994 0.57489 0.0
C1637 C 0.08219 0.41527 0.51715 0.0
C1638 C 0.04266 0.4066 0.48989 0.0
C1639 C 0.94829 0.24164 0.53706 0.0
C1640 C 0.96659 0.27309 0.43134 0.0
C1641 C 0.96905 0.28202 0.52961 0.0
N1642 N 0.9771 0.29827 0.47716 0.0
C1643 C 0.94523 0.23301 0.43768 0.0
C1644 C 0.93563 0.21702 0.49083 0.0
C1645 C 0.90095 0.32881 0.373 0.0
C1646 C 0.84386 0.51243 0.43401 0.0
C1647 C 0.84981 0.43627 0.37078 0.0
C1648 C 0.80842 0.45502 0.38128 0.0
C1649 C 0.80547 0.49316 0.41356 0.0
N1650 N 0.8883 0.45538 0.39044 0.0
C1651 C 0.88497 0.49348 0.42145 0.0
Co1652 Co 0.40446 0.80248 0.24423 0.0
Co1653 Co 0.33845 0.81688 0.33005 0.0
O1654 O 0.35185 0.82839 0.2537 0.0
C1655 C 0.38498 0.86153 0.13527 0.0
O1656 O 0.34405 0.8694 0.15062 0.0
C1657 C 0.27207 0.77397 0.23952 0.0
O1658 O 0.28678 0.79945 0.19863 0.0
O1659 O 0.38491 0.76238 0.33196 0.0
O1660 O 0.3916 0.76208 0.32534 0.0
H1661 H 0.32587 0.89486 0.52922 0.0
H1662 H 0.39157 0.77915 0.11537 0.0
O1663 O 0.41112 0.84024 0.16912 0.0
H1664 H 0.33203 0.65261 0.21864 0.0
H1665 H 0.53254 0.81807 0.13416 0.0
H1666 H 0.47653 0.78822 0.32292 0.0
H1667 H 0.33559 0.72392 0.25872 0.0
H1668 H 0.46085 0.78262 0.14697 0.0
O1669 O 0.28676 0.77879 0.29187 0.0
H1670 H 0.36455 0.85706 0.44541 0.0
H1671 H 0.25924 0.75716 0.37829 0.0
H1672 H 0.54687 0.82407 0.3107 0.0
H1673 H 0.36687 0.71434 0.06369 0.0
H1674 H 0.57628 0.84156 0.21586 0.0
H1675 H 0.34251 0.64771 0.11513 0.0
O1676 O 0.43384 0.85514 0.28622 0.0
H1677 H 0.21989 0.92042 0.25274 0.0
H1678 H 0.35433 0.91213 0.36795 0.0
H1679 H 0.32199 0.98306 0.34797 0.0
H1680 H 0.25393 0.98832 0.28994 0.0
H1681 H 0.25172 0.84834 0.27587 0.0
H1682 H 0.19435 0.77526 0.45883 0.0
H1683 H 0.2425 0.8767 0.55792 0.0
O1684 O 0.39529 0.85074 0.36274 0.0
C1685 C 0.37582 0.72139 0.33873 0.0
C1686 C 0.30839 0.86891 0.50722 0.0
C1687 C 0.22511 0.79399 0.45841 0.0
N1688 N 0.31261 0.80815 0.40897 0.0
C1689 C 0.33248 0.84375 0.45163 0.0
C1690 C 0.2664 0.78225 0.4093 0.0
C1691 C 0.25654 0.85613 0.52685 0.0
C1692 C 0.37921 0.75218 0.13982 0.0
N1693 N 0.37791 0.75302 0.19797 0.0
C1694 C 0.36513 0.71493 0.10908 0.0
C1695 C 0.35152 0.67739 0.13749 0.0
C1696 C 0.34623 0.67967 0.19523 0.0
C1697 C 0.35493 0.71918 0.22252 0.0
C1698 C 0.51994 0.81345 0.17528 0.0
C1699 C 0.48852 0.7952 0.28103 0.0
C1700 C 0.47956 0.7927 0.18277 0.0
N1701 N 0.46332 0.78467 0.23524 0.0
C1702 C 0.5286 0.81655 0.27465 0.0
C1703 C 0.54459 0.8261 0.22149 0.0
C1704 C 0.43284 0.8608 0.33948 0.0
C1705 C 0.2492 0.91803 0.27864 0.0
C1706 C 0.32543 0.91204 0.34172 0.0
C1707 C 0.3067 0.95343 0.33127 0.0
C1708 C 0.26852 0.95642 0.29905 0.0
N1709 N 0.30629 0.87356 0.3221 0.0
C1710 C 0.26815 0.87691 0.29115 0.0
Co1711 Co 0.95933 0.65446 -0.00575 0.0
Co1712 Co 0.94495 0.58842 0.08002 0.0
O1713 O 0.93345 0.60183 0.00367 0.0
C1714 C 0.9004 0.63489 0.88522 0.0
O1715 O 0.89265 0.59393 0.90051 0.0
C1716 C 0.98794 0.52208 -0.01055 0.0
O1717 O 0.96243 0.53677 0.94859 0.0
O1718 O 0.99941 0.63492 0.08198 0.0
O1719 O 0.99971 0.6416 0.07538 0.0
H1720 H 0.86695 0.57588 0.27915 0.0
H1721 H 0.98275 0.64168 0.86539 0.0
O1722 O 0.92158 0.66108 0.91912 0.0
H1723 H 0.10922 0.58211 0.96876 0.0
H1724 H 0.94371 0.78258 0.88429 0.0
H1725 H 0.97358 0.72651 0.07299 0.0
H1726 H 0.03791 0.58566 0.00877 0.0
H1727 H 0.97915 0.71089 0.89704 0.0
O1728 O 0.98311 0.53676 0.04181 0.0
H1729 H 0.90481 0.61455 0.1954 0.0
H1730 H 1.00466 0.5092 0.12827 0.0
H1731 H 0.93777 0.79688 0.06084 0.0
H1732 H 0.0476 0.61702 0.81375 0.0
H1733 H 0.92015 0.82626 0.96602 0.0
H1734 H 0.1142 0.59266 0.86523 0.0
O1735 O 0.90664 0.68381 0.03621 0.0
H1736 H 0.8415 0.46989 0.00248 0.0
H1737 H 0.8497 0.60419 0.11797 0.0
H1738 H 0.77879 0.57183 0.09792 0.0
H1739 H 0.77357 0.50384 0.03977 0.0
H1740 H 0.91355 0.50174 0.02569 0.0
H1741 H 0.98659 0.44436 0.2089 0.0
H1742 H 0.88516 0.49254 0.30796 0.0
O1743 O 0.91104 0.64524 0.1127 0.0
C1744 C 0.0404 0.62585 0.08881 0.0
C1745 C 0.89291 0.5584 0.25718 0.0
C1746 C 0.96784 0.47511 0.20843 0.0
N1747 N 0.95368 0.56259 0.15893 0.0
C1748 C 0.91808 0.58247 0.20159 0.0
C1749 C 0.97957 0.51637 0.15929 0.0
C1750 C 0.9057 0.50656 0.27685 0.0
C1751 C 0.00971 0.62931 0.88985 0.0
N1752 N 0.00882 0.62797 0.948 0.0
C1753 C 0.04698 0.61527 0.85914 0.0
C1754 C 0.08451 0.60165 0.88758 0.0
C1755 C 0.08219 0.59633 0.94532 0.0
C1756 C 0.04266 0.60499 0.97257 0.0
C1757 C 0.94829 0.76995 0.9254 0.0
C1758 C 0.96659 0.73851 0.03112 0.0
C1759 C 0.96905 0.72958 0.93286 0.0
N1760 N 0.9771 0.71333 -0.01469 0.0
C1761 C 0.94523 0.77859 0.02478 0.0
C1762 C 0.93563 0.79457 0.97164 0.0
C1763 C 0.90095 0.68279 0.08947 0.0
C1764 C 0.84386 0.49916 0.02846 0.0
C1765 C 0.84981 0.57533 0.09168 0.0
C1766 C 0.80842 0.55658 0.08119 0.0
C1767 C 0.80546 0.51843 0.0489 0.0
N1768 N 0.88829 0.55622 0.07203 0.0
C1769 C 0.88497 0.51812 0.04102 0.0
Co1770 Co 0.10713 0.20912 0.74423 0.0
Co1771 Co 0.17315 0.19471 0.83005 0.0
O1772 O 0.15974 0.1832 0.7537 0.0
C1773 C 0.12662 0.15007 0.63527 0.0
O1774 O 0.16754 0.1422 0.65062 0.0
C1775 C 0.23953 0.23762 0.73952 0.0
O1776 O 0.22481 0.21215 0.69863 0.0
O1777 O 0.12668 0.24921 0.83196 0.0
O1778 O 0.12 0.24952 0.82534 0.0
H1779 H 0.18572 0.11674 0.02922 0.0
H1780 H 0.12003 0.23245 0.61537 0.0
O1781 O 0.10048 0.17136 0.66912 0.0
H1782 H 0.17956 0.35898 0.71865 0.0
H1783 H 0.97905 0.19352 0.63416 0.0
H1784 H 0.03507 0.22337 0.82292 0.0
H1785 H 0.176 0.28767 0.75872 0.0
H1786 H 0.05075 0.22898 0.64697 0.0
O1787 O 0.22483 0.23281 0.79187 0.0
H1788 H 0.14705 0.15454 0.94542 0.0
H1789 H 0.25236 0.25444 0.87829 0.0
H1790 H 0.96473 0.18753 0.8107 0.0
H1791 H 0.14473 0.29725 0.5637 0.0
H1792 H 0.93531 0.17004 0.71586 0.0
H1793 H 0.16909 0.36388 0.61513 0.0
O1794 O 0.07776 0.15646 0.78622 0.0
H1795 H 0.2917 0.09118 0.75274 0.0
H1796 H 0.15727 0.09947 0.86795 0.0
H1797 H 0.18961 0.02854 0.84798 0.0
H1798 H 0.25766 0.02328 0.78994 0.0
H1799 H 0.25987 0.16326 0.77586 0.0
H1800 H 0.31724 0.23633 0.95883 0.0
H1801 H 0.2691 0.13489 0.05791 0.0
O1802 O 0.1163 0.16086 0.86274 0.0
C1803 C 0.13578 0.29021 0.83873 0.0
C1804 C 0.20321 0.14268 0.00722 0.0
C1805 C 0.28648 0.21761 0.95841 0.0
N1806 N 0.19898 0.20344 0.90897 0.0
C1807 C 0.17912 0.16785 0.95163 0.0
C1808 C 0.2452 0.22934 0.9093 0.0
C1809 C 0.25506 0.15547 0.02685 0.0
C1810 C 0.13239 0.25942 0.63982 0.0
N1811 N 0.13368 0.25857 0.69797 0.0
C1812 C 0.14646 0.29666 0.60908 0.0
C1813 C 0.16008 0.33421 0.63749 0.0
C1814 C 0.16537 0.33192 0.69523 0.0
C1815 C 0.15667 0.29241 0.72252 0.0
C1816 C 0.99165 0.19814 0.67528 0.0
C1817 C 0.02308 0.2164 0.78103 0.0
C1818 C 0.03203 0.2189 0.68277 0.0
N1819 N 0.04827 0.22692 0.73524 0.0
C1820 C 0.983 0.19505 0.77465 0.0
C1821 C 0.96701 0.1855 0.72149 0.0
C1822 C 0.07876 0.15079 0.83949 0.0
C1823 C 0.2624 0.09356 0.77864 0.0
C1824 C 0.18617 0.09956 0.84173 0.0
C1825 C 0.2049 0.05816 0.83127 0.0
C1826 C 0.24308 0.05518 0.79905 0.0
N1827 N 0.20531 0.13803 0.8221 0.0
C1828 C 0.24345 0.13468 0.79115 0.0
Co1829 Co 0.55226 0.35714 0.49425 0.0
Co1830 Co 0.56665 0.42318 0.58002 0.0
O1831 O 0.57814 0.40977 0.50367 0.0
C1832 C 0.6112 0.3767 0.38522 0.0
O1833 O 0.61895 0.41767 0.40052 0.0
C1834 C 0.52365 0.48952 0.48945 0.0
O1835 O 0.54917 0.47483 0.44859 0.0
O1836 O 0.51218 0.37667 0.58198 0.0
O1837 O 0.51188 0.37 0.57538 0.0
H1838 H 0.64464 0.43572 0.77915 0.0
H1839 H 0.52884 0.36992 0.36539 0.0
O1840 O 0.59001 0.35052 0.41912 0.0
H1841 H 0.40237 0.42948 0.46876 0.0
H1842 H 0.56789 0.22902 0.38429 0.0
H1843 H 0.53801 0.28508 0.57299 0.0
H1844 H 0.47369 0.42594 0.50877 0.0
H1845 H 0.53245 0.3007 0.39704 0.0
O1846 O 0.52848 0.47484 0.54181 0.0
H1847 H 0.60679 0.39704 0.6954 0.0
H1848 H 0.50694 0.50239 0.62827 0.0
H1849 H 0.57383 0.21471 0.56084 0.0
H1850 H 0.46399 0.39458 0.31375 0.0
H1851 H 0.59144 0.18534 0.46603 0.0
H1852 H 0.39739 0.41894 0.36524 0.0
O1853 O 0.60495 0.32778 0.53621 0.0
H1854 H 0.6701 0.54171 0.50248 0.0
H1855 H 0.6619 0.4074 0.61796 0.0
H1856 H 0.73281 0.43976 0.59792 0.0
H1857 H 0.73802 0.50776 0.53976 0.0
H1858 H 0.59804 0.50986 0.52569 0.0
H1859 H 0.52501 0.56723 0.7089 0.0
H1860 H 0.62644 0.51905 0.80796 0.0
O1861 O 0.60056 0.36636 0.6127 0.0
C1862 C 0.47119 0.38574 0.58881 0.0
C1863 C 0.61868 0.4532 0.75718 0.0
C1864 C 0.54375 0.53649 0.70843 0.0
N1865 N 0.55792 0.44901 0.65893 0.0
C1866 C 0.59351 0.42913 0.70159 0.0
C1867 C 0.53202 0.49523 0.65929 0.0
C1868 C 0.60589 0.50504 0.77685 0.0
C1869 C 0.50189 0.38228 0.38985 0.0
N1870 N 0.50277 0.38363 0.448 0.0
C1871 C 0.46461 0.39633 0.35914 0.0
C1872 C 0.42708 0.40994 0.38758 0.0
C1873 C 0.42941 0.41527 0.44532 0.0
C1874 C 0.46894 0.4066 0.47257 0.0
C1875 C 0.56331 0.24164 0.4254 0.0
C1876 C 0.54501 0.27309 0.53113 0.0
C1877 C 0.54255 0.28202 0.43286 0.0
N1878 N 0.5345 0.29827 0.48531 0.0
C1879 C 0.56637 0.23301 0.52478 0.0
C1880 C 0.57596 0.21702 0.47164 0.0
C1881 C 0.61065 0.32881 0.58947 0.0
C1882 C 0.66773 0.51244 0.52846 0.0
C1883 C 0.66179 0.43627 0.59168 0.0
C1884 C 0.70317 0.45501 0.58119 0.0
C1885 C 0.70613 0.49316 0.5489 0.0
N1886 N 0.6233 0.45538 0.57203 0.0
C1887 C 0.62663 0.49348 0.54102 0.0
loop_
_geom_bond_atom_site_label_1
_geom_bond_atom_site_label_2
_geom_bond_distance
_geom_bond_site_symmetry_2
_ccdc_geom_bond_type
Co0 O2 2.143 . S
Co0 O8 2.074 . S
Co0 O11 2.093 . S
Co0 O24 2.097 . S
Co0 N41 2.151 . S
Co0 N49 2.214 1_455 S
Co1 O2 2.160 . S
Co1 O7 2.058 . S
Co1 O17 2.057 . S
Co1 O32 2.037 . S
Co1 N36 2.145 . S
Co1 N57 2.257 . S
O2 Co0 2.143 . S
O2 Co1 2.160 . S
C3 O4 1.278 . S
C3 O11 1.224 . S
O4 C3 1.278 . S
C5 O6 1.245 . S
C5 O17 1.232 . S
O6 C5 1.245 . S
O7 Co1 2.058 . S
O7 C33 1.269 . S
O8 Co0 2.074 . S
O8 C33 1.257 . S
H9 C34 0.930 . S
H10 C40 0.930 . S
O11 Co0 2.093 . S
O11 C3 1.224 . S
H12 C44 0.929 . S
H13 C46 0.930 . S
H14 C47 0.930 . S
H15 C45 0.929 . S
H16 C48 0.928 . S
O17 Co1 2.057 . S
O17 C5 1.232 . S
H18 C37 0.929 . S
H19 C38 0.929 . S
H20 C50 0.931 . S
H21 C42 0.929 . S
H22 C51 0.930 . S
H23 C43 0.931 . S
O24 Co0 2.097 . S
O24 C52 1.214 . S
H25 C53 0.929 . S
H26 C54 0.929 . S
H27 C55 0.930 . S
H28 C56 0.929 . S
H29 C58 0.930 . S
H30 C35 0.930 . S
H31 C39 0.930 . S
O32 Co1 2.037 . S
O32 C52 1.234 . S
C33 O7 1.269 . S
C33 O8 1.257 . S
C34 H9 0.930 . S
C34 C37 1.388 . S
C34 C39 1.418 . S
C35 H30 0.930 . S
C35 C38 1.404 . S
C35 C39 1.353 . S
N36 Co1 2.145 . S
N36 C37 1.397 . S
N36 C38 1.334 . S
C37 H18 0.929 . S
C37 C34 1.388 . S
C37 N36 1.397 . S
C38 H19 0.929 . S
C38 C35 1.404 . S
C38 N36 1.334 . S
C39 H31 0.930 . S
C39 C34 1.418 . S
C39 C35 1.353 . S
C40 H10 0.930 . S
C40 N41 1.330 . S
C40 C42 1.446 . S
N41 Co0 2.151 . S
N41 C40 1.330 . S
N41 C45 1.418 . S
C42 H21 0.929 . S
C42 C40 1.446 . S
C42 C43 1.332 . S
C43 H23 0.931 . S
C43 C42 1.332 . S
C43 C44 1.267 . S
C44 H12 0.929 . S
C44 C43 1.267 . S
C44 C45 1.251 . S
C45 H15 0.929 . S
C45 N41 1.418 . S
C45 C44 1.251 . S
C46 H13 0.930 . S
C46 C48 1.406 . S
C46 C51 1.261 . S
C47 H14 0.930 . S
C47 N49 1.325 . S
C47 C50 1.357 . S
C48 H16 0.928 . S
C48 C46 1.406 . S
C48 N49 1.261 . S
N49 Co0 2.214 1_655 S
N49 C47 1.325 . S
N49 C48 1.261 . S
C50 H20 0.931 . S
C50 C47 1.357 . S
C50 C51 1.312 . S
C51 H22 0.930 . S
C51 C46 1.261 . S
C51 C50 1.312 . S
C52 O24 1.214 . S
C52 O32 1.234 . S
C53 H25 0.929 . S
C53 C56 1.391 . S
C53 C58 1.391 . S
C54 H26 0.929 . S
C54 C55 1.390 . S
C54 N57 1.391 . S
C55 H27 0.930 . S
C55 C54 1.390 . S
C55 C56 1.392 . S
C56 H28 0.929 . S
C56 C53 1.391 . S
C56 C55 1.392 . S
N57 Co1 2.257 . S
N57 C54 1.391 . S
N57 C58 1.388 . S
C58 H29 0.930 . S
C58 C53 1.391 . S
C58 N57 1.388 . S
Co59 O61 2.143 . S
Co59 O67 2.074 1_655 S
Co59 O70 2.093 . S
Co59 O83 2.097 . S
Co59 N100 2.151 1_655 S
Co59 N108 2.214 . S
Co60 O61 2.160 . S
Co60 O66 2.058 1_655 S
Co60 O76 2.057 . S
Co60 O91 2.037 . S
Co60 N95 2.145 . S
Co60 N116 2.257 . S
O61 Co59 2.143 . S
O61 Co60 2.160 . S
C62 O63 1.278 . S
C62 O70 1.224 . S
O63 C62 1.278 . S
C64 O65 1.245 . S
C64 O76 1.232 . S
O65 C64 1.245 . S
O66 Co60 2.058 1_455 S
O66 C92 1.269 . S
O67 Co59 2.074 1_455 S
O67 C92 1.257 . S
H68 C93 0.930 . S
H69 C99 0.930 1_655 S
O70 Co59 2.093 . S
O70 C62 1.224 . S
H71 C103 0.929 . S
H72 C105 0.928 1_455 S
H73 C106 0.930 . S
H74 C104 0.929 . S
H75 C107 0.928 . S
O76 Co60 2.057 . S
O76 C64 1.232 . S
H77 C96 0.929 . S
H78 C97 0.929 1_545 S
H79 C109 0.931 . S
H80 C101 0.929 . S
H81 C110 0.927 1_455 S
H82 C102 0.931 . S
O83 Co59 2.097 . S
O83 C111 1.214 . S
H84 C112 0.929 . S
H85 C113 0.929 . S
H86 C114 0.930 . S
H87 C115 0.929 . S
H88 C117 0.930 . S
H89 C94 0.930 . S
H90 C98 0.930 . S
O91 Co60 2.037 . S
O91 C111 1.234 . S
C92 O66 1.269 . S
C92 O67 1.257 . S
C93 H68 0.930 . S
C93 C96 1.388 . S
C93 C98 1.418 . S
C94 H89 0.930 . S
C94 C97 1.404 1_545 S
C94 C98 1.353 1_545 S
N95 Co60 2.145 . S
N95 C96 1.397 . S
N95 C97 1.334 . S
C96 H77 0.929 . S
C96 C93 1.388 . S
C96 N95 1.397 . S
C97 H78 0.929 1_565 S
C97 C94 1.404 1_565 S
C97 N95 1.334 . S
C98 H90 0.930 . S
C98 C93 1.418 . S
C98 C94 1.353 1_565 S
C99 H69 0.930 1_455 S
C99 N100 1.330 . S
C99 C101 1.446 . S
N100 Co59 2.151 1_455 S
N100 C99 1.330 . S
N100 C104 1.418 . S
C101 H80 0.929 . S
C101 C99 1.446 . S
C101 C102 1.332 . S
C102 H82 0.931 . S
C102 C101 1.332 . S
C102 C103 1.267 . S
C103 H71 0.929 . S
C103 C102 1.267 . S
C103 C104 1.251 . S
C104 H74 0.929 . S
C104 N100 1.418 . S
C104 C103 1.251 . S
C105 H72 0.928 1_655 S
C105 C107 1.407 . S
C105 C110 1.260 . S
C106 H73 0.930 . S
C106 N108 1.325 . S
C106 C109 1.357 . S
C107 H75 0.928 . S
C107 C105 1.407 . S
C107 N108 1.261 . S
N108 Co59 2.214 . S
N108 C106 1.325 . S
N108 C107 1.261 . S
C109 H79 0.931 . S
C109 C106 1.357 . S
C109 C110 1.316 . S
C110 H81 0.927 1_655 S
C110 C105 1.260 . S
C110 C109 1.316 . S
C111 O83 1.214 . S
C111 O91 1.234 . S
C112 H84 0.929 . S
C112 C115 1.391 . S
C112 C117 1.391 . S
C113 H85 0.929 . S
C113 C114 1.390 . S
C113 N116 1.391 . S
C114 H86 0.930 . S
C114 C113 1.390 . S
C114 C115 1.392 . S
C115 H87 0.929 . S
C115 C112 1.391 . S
C115 C114 1.392 . S
N116 Co60 2.257 . S
N116 C113 1.391 . S
N116 C117 1.388 . S
C117 H88 0.930 . S
C117 C112 1.391 . S
C117 N116 1.388 . S
Co118 O120 2.143 . S
Co118 O126 2.074 . S
Co118 O129 2.093 . S
Co118 O142 2.097 . S
Co118 N159 2.151 . S
Co118 N167 2.214 . S
Co119 O120 2.160 . S
Co119 O125 2.058 . S
Co119 O135 2.057 . S
Co119 O150 2.037 . S
Co119 N154 2.145 . S
Co119 N175 2.257 . S
O120 Co118 2.143 . S
O120 Co119 2.160 . S
C121 O122 1.278 . S
C121 O129 1.224 . S
O122 C121 1.278 . S
C123 O124 1.245 . S
C123 O135 1.232 . S
O124 C123 1.245 . S
O125 Co119 2.058 . S
O125 C151 1.269 . S
O126 Co118 2.074 . S
O126 C151 1.257 . S
H127 C152 0.930 . S
H128 C158 0.930 . S
O129 Co118 2.093 . S
O129 C121 1.224 . S
H130 C162 0.929 . S
H131 C164 0.930 . S
H132 C165 0.930 . S
H133 C163 0.929 . S
H134 C166 0.928 . S
O135 Co119 2.057 . S
O135 C123 1.232 . S
H136 C155 0.929 . S
H137 C156 0.929 . S
H138 C168 0.931 . S
H139 C160 0.929 . S
H140 C169 0.930 . S
H141 C161 0.931 . S
O142 Co118 2.097 . S
O142 C170 1.214 . S
H143 C171 0.929 . S
H144 C172 0.929 . S
H145 C173 0.930 . S
H146 C174 0.929 . S
H147 C176 0.930 . S
H148 C153 0.930 1_554 S
H149 C157 0.930 . S
O150 Co119 2.037 . S
O150 C170 1.234 . S
C151 O125 1.269 . S
C151 O126 1.257 . S
C152 H127 0.930 . S
C152 C155 1.388 1_554 S
C152 C157 1.418 . S
C153 H148 0.930 1_556 S
C153 C156 1.404 . S
C153 C157 1.353 1_556 S
N154 Co119 2.145 . S
N154 C155 1.397 . S
N154 C156 1.334 . S
C155 H136 0.929 . S
C155 C152 1.388 1_556 S
C155 N154 1.397 . S
C156 H137 0.929 . S
C156 C153 1.404 . S
C156 N154 1.334 . S
C157 H149 0.930 . S
C157 C152 1.418 . S
C157 C153 1.353 1_554 S
C158 H128 0.930 . S
C158 N159 1.330 . S
C158 C160 1.446 . S
N159 Co118 2.151 . S
N159 C158 1.330 . S
N159 C163 1.418 . S
C160 H139 0.929 . S
C160 C158 1.446 . S
C160 C161 1.332 . S
C161 H141 0.931 . S
C161 C160 1.332 . S
C161 C162 1.267 . S
C162 H130 0.929 . S
C162 C161 1.267 . S
C162 C163 1.251 . S
C163 H133 0.929 . S
C163 N159 1.418 . S
C163 C162 1.251 . S
C164 H131 0.930 . S
C164 C166 1.406 . S
C164 C169 1.261 . S
C165 H132 0.930 . S
C165 N167 1.325 . S
C165 C168 1.357 . S
C166 H134 0.928 . S
C166 C164 1.406 . S
C166 N167 1.261 . S
N167 Co118 2.214 . S
N167 C165 1.325 . S
N167 C166 1.261 . S
C168 H138 0.931 . S
C168 C165 1.357 . S
C168 C169 1.312 . S
C169 H140 0.930 . S
C169 C164 1.261 . S
C169 C168 1.312 . S
C170 O142 1.214 . S
C170 O150 1.234 . S
C171 H143 0.929 . S
C171 C174 1.391 . S
C171 C176 1.391 . S
C172 H144 0.929 . S
C172 C173 1.390 . S
C172 N175 1.391 . S
C173 H145 0.930 . S
C173 C172 1.390 . S
C173 C174 1.392 . S
C174 H146 0.929 . S
C174 C171 1.391 . S
C174 C173 1.392 . S
N175 Co119 2.257 . S
N175 C172 1.391 . S
N175 C176 1.388 . S
C176 H147 0.930 . S
C176 C171 1.391 . S
C176 N175 1.388 . S
Co177 O179 2.143 . S
Co177 O185 2.074 . S
Co177 O188 2.093 1_554 S
Co177 O201 2.097 . S
Co177 N218 2.151 1_554 S
Co177 N226 2.214 . S
Co178 O179 2.160 . S
Co178 O184 2.058 . S
Co178 O194 2.057 . S
Co178 O209 2.037 . S
Co178 N213 2.145 . S
Co178 N234 2.257 . S
O179 Co177 2.143 . S
O179 Co178 2.160 . S
C180 O181 1.278 . S
C180 O188 1.224 . S
O181 C180 1.278 . S
C182 O183 1.245 1_554 S
C182 O194 1.232 . S
O183 C182 1.245 1_556 S
O184 Co178 2.058 . S
O184 C210 1.269 . S
O185 Co177 2.074 . S
O185 C210 1.257 . S
H186 C211 0.930 . S
H187 C217 0.930 . S
O188 Co177 2.093 1_556 S
O188 C180 1.224 . S
H189 C221 0.929 . S
H190 C223 0.930 . S
H191 C224 0.930 . S
H192 C222 0.929 . S
H193 C225 0.928 . S
O194 Co178 2.057 . S
O194 C182 1.232 . S
H195 C214 0.929 . S
H196 C215 0.929 1_565 S
H197 C227 0.931 . S
H198 C219 0.929 . S
H199 C228 0.930 . S
H200 C220 0.931 . S
O201 Co177 2.097 . S
O201 C229 1.214 . S
H202 C230 0.929 1_556 S
H203 C231 0.929 . S
H204 C232 0.930 . S
H205 C233 0.929 . S
H206 C235 0.919 1_556 S
H207 C212 0.930 . S
H208 C216 0.930 . S
O209 Co178 2.037 . S
O209 C229 1.234 . S
C210 O184 1.269 . S
C210 O185 1.257 . S
C211 H186 0.930 . S
C211 C214 1.388 . S
C211 C216 1.418 . S
C212 H207 0.930 . S
C212 C215 1.404 1_565 S
C212 C216 1.353 1_565 S
N213 Co178 2.145 . S
N213 C214 1.397 . S
N213 C215 1.334 . S
C214 H195 0.929 . S
C214 C211 1.388 . S
C214 N213 1.397 . S
C215 H196 0.929 1_545 S
C215 C212 1.404 1_545 S
C215 N213 1.334 . S
C216 H208 0.930 . S
C216 C211 1.418 . S
C216 C212 1.353 1_545 S
C217 H187 0.930 . S
C217 N218 1.330 . S
C217 C219 1.446 . S
N218 Co177 2.151 1_556 S
N218 C217 1.330 . S
N218 C222 1.418 . S
C219 H198 0.929 . S
C219 C217 1.446 . S
C219 C220 1.332 . S
C220 H200 0.931 . S
C220 C219 1.332 . S
C220 C221 1.267 . S
C221 H189 0.929 . S
C221 C220 1.267 . S
C221 C222 1.251 . S
C222 H192 0.929 . S
C222 N218 1.418 . S
C222 C221 1.251 . S
C223 H190 0.930 . S
C223 C225 1.406 . S
C223 C228 1.261 1_556 S
C224 H191 0.930 . S
C224 N226 1.325 . S
C224 C227 1.357 . S
C225 H193 0.928 . S
C225 C223 1.406 . S
C225 N226 1.261 1_556 S
N226 Co177 2.214 . S
N226 C224 1.325 . S
N226 C225 1.261 1_554 S
C227 H197 0.931 . S
C227 C224 1.357 . S
C227 C228 1.312 . S
C228 H199 0.930 . S
C228 C223 1.261 1_554 S
C228 C227 1.312 . S
C229 O201 1.214 . S
C229 O209 1.234 . S
C230 H202 0.929 1_554 S
C230 C233 1.391 . S
C230 C235 1.391 . S
C231 H203 0.929 . S
C231 C232 1.390 . S
C231 N234 1.391 . S
C232 H204 0.930 . S
C232 C231 1.390 . S
C232 C233 1.392 . S
C233 H205 0.929 . S
C233 C230 1.391 . S
C233 C232 1.392 . S
N234 Co178 2.257 . S
N234 C231 1.391 . S
N234 C235 1.388 . S
C235 H206 0.919 1_554 S
C235 C230 1.391 . S
C235 N234 1.388 . S
Co236 O238 2.143 . S
Co236 O244 2.074 . S
Co236 O247 2.093 . S
Co236 O260 2.097 . S
Co236 N277 2.151 . S
Co236 N285 2.214 1_455 S
Co237 O238 2.160 . S
Co237 O243 2.058 . S
Co237 O253 2.057 . S
Co237 O268 2.037 . S
Co237 N272 2.145 . S
Co237 N293 2.257 . S
O238 Co236 2.143 . S
O238 Co237 2.160 . S
C239 O240 1.278 . S
C239 O247 1.224 . S
O240 C239 1.278 . S
C241 O242 1.245 . S
C241 O253 1.232 . S
O242 C241 1.245 . S
O243 Co237 2.058 . S
O243 C269 1.269 . S
O244 Co236 2.074 . S
O244 C269 1.257 . S
H245 C270 0.930 . S
H246 C276 0.930 . S
O247 Co236 2.093 . S
O247 C239 1.224 . S
H248 C280 0.929 . S
H249 C282 0.930 . S
H250 C283 0.930 . S
H251 C281 0.929 . S
H252 C284 0.928 . S
O253 Co237 2.057 . S
O253 C241 1.232 . S
H254 C273 0.929 . S
H255 C274 0.929 . S
H256 C286 0.931 . S
H257 C278 0.929 . S
H258 C287 0.930 . S
H259 C279 0.931 . S
O260 Co236 2.097 . S
O260 C288 1.214 . S
H261 C289 0.929 . S
H262 C290 0.929 . S
H263 C291 0.930 . S
H264 C292 0.929 . S
H265 C294 0.930 . S
H266 C271 0.930 1_556 S
H267 C275 0.930 . S
O268 Co237 2.037 . S
O268 C288 1.234 . S
C269 O243 1.269 . S
C269 O244 1.257 . S
C270 H245 0.930 . S
C270 C273 1.388 1_556 S
C270 C275 1.418 . S
C271 H266 0.930 1_554 S
C271 C274 1.404 . S
C271 C275 1.353 1_554 S
N272 Co237 2.145 . S
N272 C273 1.397 . S
N272 C274 1.334 . S
C273 H254 0.929 . S
C273 C270 1.388 1_554 S
C273 N272 1.397 . S
C274 H255 0.929 . S
C274 C271 1.404 . S
C274 N272 1.334 . S
C275 H267 0.930 . S
C275 C270 1.418 . S
C275 C271 1.353 1_556 S
C276 H246 0.930 . S
C276 N277 1.330 . S
C276 C278 1.446 . S
N277 Co236 2.151 . S
N277 C276 1.330 . S
N277 C281 1.418 . S
C278 H257 0.929 . S
C278 C276 1.446 . S
C278 C279 1.332 . S
C279 H259 0.931 . S
C279 C278 1.332 . S
C279 C280 1.267 . S
C280 H248 0.929 . S
C280 C279 1.267 . S
C280 C281 1.251 . S
C281 H251 0.929 . S
C281 N277 1.418 . S
C281 C280 1.251 . S
C282 H249 0.930 . S
C282 C284 1.406 . S
C282 C287 1.261 . S
C283 H250 0.930 . S
C283 N285 1.325 . S
C283 C286 1.357 . S
C284 H252 0.928 . S
C284 C282 1.406 . S
C284 N285 1.261 . S
N285 Co236 2.214 1_655 S
N285 C283 1.325 . S
N285 C284 1.261 . S
C286 H256 0.931 . S
C286 C283 1.357 . S
C286 C287 1.312 . S
C287 H258 0.930 . S
C287 C282 1.261 . S
C287 C286 1.312 . S
C288 O260 1.214 . S
C288 O268 1.234 . S
C289 H261 0.929 . S
C289 C292 1.391 . S
C289 C294 1.391 . S
C290 H262 0.929 . S
C290 C291 1.390 . S
C290 N293 1.391 . S
C291 H263 0.930 . S
C291 C290 1.390 . S
C291 C292 1.392 . S
C292 H264 0.929 . S
C292 C289 1.391 . S
C292 C291 1.392 . S
N293 Co237 2.257 . S
N293 C290 1.391 . S
N293 C294 1.388 . S
C294 H265 0.930 . S
C294 C289 1.391 . S
C294 N293 1.388 . S
Co295 O297 2.143 . S
Co295 O303 2.074 . S
Co295 O306 2.093 . S
Co295 O319 2.097 . S
Co295 N336 2.151 . S
Co295 N344 2.214 . S
Co296 O297 2.160 . S
Co296 O302 2.058 . S
Co296 O312 2.057 . S
Co296 O327 2.037 . S
Co296 N331 2.145 . S
Co296 N352 2.257 . S
O297 Co295 2.143 . S
O297 Co296 2.160 . S
C298 O299 1.278 . S
C298 O306 1.224 . S
O299 C298 1.278 . S
C300 O301 1.245 . S
C300 O312 1.232 . S
O301 C300 1.245 . S
O302 Co296 2.058 . S
O302 C328 1.269 . S
O303 Co295 2.074 . S
O303 C328 1.257 . S
H304 C329 0.930 . S
H305 C335 0.930 . S
O306 Co295 2.093 . S
O306 C298 1.224 . S
H307 C339 0.929 . S
H308 C341 0.930 . S
H309 C342 0.930 . S
H310 C340 0.929 . S
H311 C343 0.928 . S
O312 Co296 2.057 . S
O312 C300 1.232 . S
H313 C332 0.929 . S
H314 C333 0.929 1_545 S
H315 C345 0.931 . S
H316 C337 0.929 . S
H317 C346 0.930 . S
H318 C338 0.931 . S
O319 Co295 2.097 . S
O319 C347 1.214 . S
H320 C348 0.929 . S
H321 C349 0.929 . S
H322 C350 0.930 . S
H323 C351 0.929 . S
H324 C353 0.930 . S
H325 C330 0.930 . S
H326 C334 0.930 . S
O327 Co296 2.037 . S
O327 C347 1.234 . S
C328 O302 1.269 . S
C328 O303 1.257 . S
C329 H304 0.930 . S
C329 C332 1.388 . S
C329 C334 1.418 . S
C330 H325 0.930 . S
C330 C333 1.404 1_545 S
C330 C334 1.353 1_545 S
N331 Co296 2.145 . S
N331 C332 1.397 . S
N331 C333 1.334 . S
C332 H313 0.929 . S
C332 C329 1.388 . S
C332 N331 1.397 . S
C333 H314 0.929 1_565 S
C333 C330 1.404 1_565 S
C333 N331 1.334 . S
C334 H326 0.930 . S
C334 C329 1.418 . S
C334 C330 1.353 1_565 S
C335 H305 0.930 . S
C335 N336 1.330 . S
C335 C337 1.446 . S
N336 Co295 2.151 . S
N336 C335 1.330 . S
N336 C340 1.418 . S
C337 H316 0.929 . S
C337 C335 1.446 . S
C337 C338 1.332 . S
C338 H318 0.931 . S
C338 C337 1.332 . S
C338 C339 1.267 . S
C339 H307 0.929 . S
C339 C338 1.267 . S
C339 C340 1.251 . S
C340 H310 0.929 . S
C340 N336 1.418 . S
C340 C339 1.251 . S
C341 H308 0.930 . S
C341 C343 1.406 . S
C341 C346 1.261 . S
C342 H309 0.930 . S
C342 N344 1.325 . S
C342 C345 1.357 . S
C343 H311 0.928 . S
C343 C341 1.406 . S
C343 N344 1.261 . S
N344 Co295 2.214 . S
N344 C342 1.325 . S
N344 C343 1.261 . S
C345 H315 0.931 . S
C345 C342 1.357 . S
C345 C346 1.312 . S
C346 H317 0.930 . S
C346 C341 1.261 . S
C346 C345 1.312 . S
C347 O319 1.214 . S
C347 O327 1.234 . S
C348 H320 0.929 . S
C348 C351 1.391 . S
C348 C353 1.391 . S
C349 H321 0.929 . S
C349 C350 1.390 . S
C349 N352 1.391 . S
C350 H322 0.930 . S
C350 C349 1.390 . S
C350 C351 1.392 . S
C351 H323 0.929 . S
C351 C348 1.391 . S
C351 C350 1.392 . S
N352 Co296 2.257 . S
N352 C349 1.391 . S
N352 C353 1.388 . S
C353 H324 0.930 . S
C353 C348 1.391 . S
C353 N352 1.388 . S
Co354 O356 2.143 . S
Co354 O362 2.074 . S
Co354 O365 2.093 . S
Co354 O378 2.097 . S
Co354 N395 2.151 . S
Co354 N403 2.214 . S
Co355 O356 2.160 . S
Co355 O361 2.058 . S
Co355 O371 2.057 . S
Co355 O386 2.037 . S
Co355 N390 2.145 . S
Co355 N411 2.257 . S
O356 Co354 2.143 . S
O356 Co355 2.160 . S
C357 O358 1.278 . S
C357 O365 1.224 . S
O358 C357 1.278 . S
C359 O360 1.245 . S
C359 O371 1.232 . S
O360 C359 1.245 . S
O361 Co355 2.058 . S
O361 C387 1.269 . S
O362 Co354 2.074 . S
O362 C387 1.257 . S
H363 C388 0.930 . S
H364 C394 0.930 . S
O365 Co354 2.093 . S
O365 C357 1.224 . S
H366 C398 0.929 . S
H367 C400 0.930 . S
H368 C401 0.930 . S
H369 C399 0.929 . S
H370 C402 0.928 . S
O371 Co355 2.057 . S
O371 C359 1.232 . S
H372 C391 0.929 . S
H373 C392 0.929 . S
H374 C404 0.931 . S
H375 C396 0.929 . S
H376 C405 0.930 . S
H377 C397 0.931 . S
O378 Co354 2.097 . S
O378 C406 1.214 . S
H379 C407 0.929 . S
H380 C408 0.929 . S
H381 C409 0.930 . S
H382 C410 0.929 . S
H383 C412 0.930 . S
H384 C389 0.930 . S
H385 C393 0.930 . S
O386 Co355 2.037 . S
O386 C406 1.234 . S
C387 O361 1.269 . S
C387 O362 1.257 . S
C388 H363 0.930 . S
C388 C391 1.388 . S
C388 C393 1.418 . S
C389 H384 0.930 . S
C389 C392 1.404 . S
C389 C393 1.353 . S
N390 Co355 2.145 . S
N390 C391 1.397 . S
N390 C392 1.334 . S
C391 H372 0.929 . S
C391 C388 1.388 . S
C391 N390 1.397 . S
C392 H373 0.929 . S
C392 C389 1.404 . S
C392 N390 1.334 . S
C393 H385 0.930 . S
C393 C388 1.418 . S
C393 C389 1.353 . S
C394 H364 0.930 . S
C394 N395 1.330 . S
C394 C396 1.446 . S
N395 Co354 2.151 . S
N395 C394 1.330 . S
N395 C399 1.418 . S
C396 H375 0.929 . S
C396 C394 1.446 . S
C396 C397 1.332 . S
C397 H377 0.931 . S
C397 C396 1.332 . S
C397 C398 1.267 . S
C398 H366 0.929 . S
C398 C397 1.267 . S
C398 C399 1.251 . S
C399 H369 0.929 . S
C399 N395 1.418 . S
C399 C398 1.251 . S
C400 H367 0.930 . S
C400 C402 1.406 . S
C400 C405 1.261 . S
C401 H368 0.930 . S
C401 N403 1.325 . S
C401 C404 1.357 . S
C402 H370 0.928 . S
C402 C400 1.406 . S
C402 N403 1.261 . S
N403 Co354 2.214 . S
N403 C401 1.325 . S
N403 C402 1.261 . S
C404 H374 0.931 . S
C404 C401 1.357 . S
C404 C405 1.312 . S
C405 H376 0.930 . S
C405 C400 1.261 . S
C405 C404 1.312 . S
C406 O378 1.214 . S
C406 O386 1.234 . S
C407 H379 0.929 . S
C407 C410 1.391 . S
C407 C412 1.391 . S
C408 H380 0.929 . S
C408 C409 1.390 . S
C408 N411 1.391 . S
C409 H381 0.930 . S
C409 C408 1.390 . S
C409 C410 1.392 . S
C410 H382 0.929 . S
C410 C407 1.391 . S
C410 C409 1.392 . S
N411 Co355 2.257 . S
N411 C408 1.391 . S
N411 C412 1.388 . S
C412 H383 0.930 . S
C412 C407 1.391 . S
C412 N411 1.388 . S
Co413 O415 2.143 . S
Co413 O421 2.074 1_655 S
Co413 O424 2.093 1_556 S
Co413 O437 2.097 . S
Co413 N454 2.151 1_656 S
Co413 N462 2.214 . S
Co414 O415 2.160 . S
Co414 O420 2.058 1_655 S
Co414 O430 2.057 . S
Co414 O445 2.037 . S
Co414 N449 2.145 . S
Co414 N470 2.257 . S
O415 Co413 2.143 . S
O415 Co414 2.160 . S
C416 O417 1.278 . S
C416 O424 1.224 . S
O417 C416 1.278 . S
C418 O419 1.245 1_556 S
C418 O430 1.232 . S
O419 C418 1.245 1_554 S
O420 Co414 2.058 1_455 S
O420 C446 1.269 . S
O421 Co413 2.074 1_455 S
O421 C446 1.257 . S
H422 C447 0.930 . S
H423 C453 0.930 1_655 S
O424 Co413 2.093 1_554 S
O424 C416 1.224 . S
H425 C457 0.929 . S
H426 C459 0.928 1_455 S
H427 C460 0.930 . S
H428 C458 0.929 . S
H429 C461 0.928 . S
O430 Co414 2.057 . S
O430 C418 1.232 . S
H431 C450 0.929 . S
H432 C451 0.929 1_565 S
H433 C463 0.931 . S
H434 C455 0.929 . S
H435 C464 0.927 1_455 S
H436 C456 0.931 . S
O437 Co413 2.097 . S
O437 C465 1.214 . S
H438 C466 0.929 1_554 S
H439 C467 0.929 . S
H440 C468 0.930 . S
H441 C469 0.929 . S
H442 C471 0.919 1_554 S
H443 C448 0.930 . S
H444 C452 0.930 . S
O445 Co414 2.037 . S
O445 C465 1.234 . S
C446 O420 1.269 . S
C446 O421 1.257 . S
C447 H422 0.930 . S
C447 C450 1.388 . S
C447 C452 1.418 . S
C448 H443 0.930 . S
C448 C451 1.404 1_565 S
C448 C452 1.353 1_565 S
N449 Co414 2.145 . S
N449 C450 1.397 . S
N449 C451 1.334 . S
C450 H431 0.929 . S
C450 C447 1.388 . S
C450 N449 1.397 . S
C451 H432 0.929 1_545 S
C451 C448 1.404 1_545 S
C451 N449 1.334 . S
C452 H444 0.930 . S
C452 C447 1.418 . S
C452 C448 1.353 1_545 S
C453 H423 0.930 1_455 S
C453 N454 1.330 . S
C453 C455 1.446 . S
N454 Co413 2.151 1_454 S
N454 C453 1.330 . S
N454 C458 1.418 . S
C455 H434 0.929 . S
C455 C453 1.446 . S
C455 C456 1.332 . S
C456 H436 0.931 . S
C456 C455 1.332 . S
C456 C457 1.267 . S
C457 H425 0.929 . S
C457 C456 1.267 . S
C457 C458 1.251 . S
C458 H428 0.929 . S
C458 N454 1.418 . S
C458 C457 1.251 . S
C459 H426 0.928 1_655 S
C459 C461 1.407 . S
C459 C464 1.260 1_554 S
C460 H427 0.930 . S
C460 N462 1.325 . S
C460 C463 1.357 . S
C461 H429 0.928 . S
C461 C459 1.407 . S
C461 N462 1.261 1_554 S
N462 Co413 2.214 . S
N462 C460 1.325 . S
N462 C461 1.261 1_556 S
C463 H433 0.931 . S
C463 C460 1.357 . S
C463 C464 1.316 . S
C464 H435 0.927 1_655 S
C464 C459 1.260 1_556 S
C464 C463 1.316 . S
C465 O437 1.214 . S
C465 O445 1.234 . S
C466 H438 0.929 1_556 S
C466 C469 1.391 . S
C466 C471 1.391 . S
C467 H439 0.929 . S
C467 C468 1.390 . S
C467 N470 1.391 . S
C468 H440 0.930 . S
C468 C467 1.390 . S
C468 C469 1.392 . S
C469 H441 0.929 . S
C469 C466 1.391 . S
C469 C468 1.392 . S
N470 Co414 2.257 . S
N470 C467 1.391 . S
N470 C471 1.388 . S
C471 H442 0.919 1_556 S
C471 C466 1.391 . S
C471 N470 1.388 . S
Co472 O474 2.143 . S
Co472 O480 2.074 . S
Co472 O483 2.093 . S
Co472 O496 2.097 . S
Co472 N513 2.151 . S
Co472 N521 2.214 1_655 S
Co473 O474 2.160 . S
Co473 O479 2.058 . S
Co473 O489 2.057 . S
Co473 O504 2.037 . S
Co473 N508 2.145 . S
Co473 N529 2.257 . S
O474 Co472 2.143 . S
O474 Co473 2.160 . S
C475 O476 1.278 . S
C475 O483 1.224 . S
O476 C475 1.278 . S
C477 O478 1.245 . S
C477 O489 1.232 . S
O478 C477 1.245 . S
O479 Co473 2.058 . S
O479 C505 1.269 . S
O480 Co472 2.074 . S
O480 C505 1.257 . S
H481 C506 0.930 . S
H482 C512 0.930 . S
O483 Co472 2.093 . S
O483 C475 1.224 . S
H484 C516 0.929 . S
H485 C518 0.930 . S
H486 C519 0.930 . S
H487 C517 0.929 . S
H488 C520 0.928 . S
O489 Co473 2.057 . S
O489 C477 1.232 . S
H490 C509 0.929 . S
H491 C510 0.929 . S
H492 C522 0.931 . S
H493 C514 0.929 . S
H494 C523 0.930 . S
H495 C515 0.931 . S
O496 Co472 2.097 . S
O496 C524 1.214 . S
H497 C525 0.929 . S
H498 C526 0.929 . S
H499 C527 0.930 . S
H500 C528 0.929 . S
H501 C530 0.930 . S
H502 C507 0.930 . S
H503 C511 0.930 . S
O504 Co473 2.037 . S
O504 C524 1.234 . S
C505 O479 1.269 . S
C505 O480 1.257 . S
C506 H481 0.930 . S
C506 C509 1.388 . S
C506 C511 1.418 . S
C507 H502 0.930 . S
C507 C510 1.404 . S
C507 C511 1.353 . S
N508 Co473 2.145 . S
N508 C509 1.397 . S
N508 C510 1.334 . S
C509 H490 0.929 . S
C509 C506 1.388 . S
C509 N508 1.397 . S
C510 H491 0.929 . S
C510 C507 1.404 . S
C510 N508 1.334 . S
C511 H503 0.930 . S
C511 C506 1.418 . S
C511 C507 1.353 . S
C512 H482 0.930 . S
C512 N513 1.330 . S
C512 C514 1.446 . S
N513 Co472 2.151 . S
N513 C512 1.330 . S
N513 C517 1.418 . S
C514 H493 0.929 . S
C514 C512 1.446 . S
C514 C515 1.332 . S
C515 H495 0.931 . S
C515 C514 1.332 . S
C515 C516 1.267 . S
C516 H484 0.929 . S
C516 C515 1.267 . S
C516 C517 1.251 . S
C517 H487 0.929 . S
C517 N513 1.418 . S
C517 C516 1.251 . S
C518 H485 0.930 . S
C518 C520 1.406 . S
C518 C523 1.261 . S
C519 H486 0.930 . S
C519 N521 1.325 . S
C519 C522 1.357 . S
C520 H488 0.928 . S
C520 C518 1.406 . S
C520 N521 1.261 . S
N521 Co472 2.214 1_455 S
N521 C519 1.325 . S
N521 C520 1.261 . S
C522 H492 0.931 . S
C522 C519 1.357 . S
C522 C523 1.312 . S
C523 H494 0.930 . S
C523 C518 1.261 . S
C523 C522 1.312 . S
C524 O496 1.214 . S
C524 O504 1.234 . S
C525 H497 0.929 . S
C525 C528 1.391 . S
C525 C530 1.391 . S
C526 H498 0.929 . S
C526 C527 1.390 . S
C526 N529 1.391 . S
C527 H499 0.930 . S
C527 C526 1.390 . S
C527 C528 1.392 . S
C528 H500 0.929 . S
C528 C525 1.391 . S
C528 C527 1.392 . S
N529 Co473 2.257 . S
N529 C526 1.391 . S
N529 C530 1.388 . S
C530 H501 0.930 . S
C530 C525 1.391 . S
C530 N529 1.388 . S
Co531 O533 2.143 . S
Co531 O539 2.074 1_455 S
Co531 O542 2.093 . S
Co531 O555 2.097 . S
Co531 N572 2.151 1_455 S
Co531 N580 2.214 . S
Co532 O533 2.160 . S
Co532 O538 2.058 1_455 S
Co532 O548 2.057 . S
Co532 O563 2.037 . S
Co532 N567 2.145 . S
Co532 N588 2.257 . S
O533 Co531 2.143 . S
O533 Co532 2.160 . S
C534 O535 1.278 . S
C534 O542 1.224 . S
O535 C534 1.278 . S
C536 O537 1.245 . S
C536 O548 1.232 . S
O537 C536 1.245 . S
O538 Co532 2.058 1_655 S
O538 C564 1.269 . S
O539 Co531 2.074 1_655 S
O539 C564 1.257 . S
H540 C565 0.930 . S
H541 C571 0.930 1_455 S
O542 Co531 2.093 . S
O542 C534 1.224 . S
H543 C575 0.929 . S
H544 C577 0.928 1_655 S
H545 C578 0.930 . S
H546 C576 0.929 . S
H547 C579 0.928 . S
O548 Co532 2.057 . S
O548 C536 1.232 . S
H549 C568 0.929 . S
H550 C569 0.929 1_565 S
H551 C581 0.931 . S
H552 C573 0.929 . S
H553 C582 0.927 1_655 S
H554 C574 0.931 . S
O555 Co531 2.097 . S
O555 C583 1.214 . S
H556 C584 0.929 . S
H557 C585 0.929 . S
H558 C586 0.930 . S
H559 C587 0.929 . S
H560 C589 0.930 . S
H561 C566 0.930 . S
H562 C570 0.930 . S
O563 Co532 2.037 . S
O563 C583 1.234 . S
C564 O538 1.269 . S
C564 O539 1.257 . S
C565 H540 0.930 . S
C565 C568 1.388 . S
C565 C570 1.418 . S
C566 H561 0.930 . S
C566 C569 1.404 1_565 S
C566 C570 1.353 1_565 S
N567 Co532 2.145 . S
N567 C568 1.397 . S
N567 C569 1.334 . S
C568 H549 0.929 . S
C568 C565 1.388 . S
C568 N567 1.397 . S
C569 H550 0.929 1_545 S
C569 C566 1.404 1_545 S
C569 N567 1.334 . S
C570 H562 0.930 . S
C570 C565 1.418 . S
C570 C566 1.353 1_545 S
C571 H541 0.930 1_655 S
C571 N572 1.330 . S
C571 C573 1.446 . S
N572 Co531 2.151 1_655 S
N572 C571 1.330 . S
N572 C576 1.418 . S
C573 H552 0.929 . S
C573 C571 1.446 . S
C573 C574 1.332 . S
C574 H554 0.931 . S
C574 C573 1.332 . S
C574 C575 1.267 . S
C575 H543 0.929 . S
C575 C574 1.267 . S
C575 C576 1.251 . S
C576 H546 0.929 . S
C576 N572 1.418 . S
C576 C575 1.251 . S
C577 H544 0.928 1_455 S
C577 C579 1.407 . S
C577 C582 1.260 . S
C578 H545 0.930 . S
C578 N580 1.325 . S
C578 C581 1.357 . S
C579 H547 0.928 . S
C579 C577 1.407 . S
C579 N580 1.261 . S
N580 Co531 2.214 . S
N580 C578 1.325 . S
N580 C579 1.261 . S
C581 H551 0.931 . S
C581 C578 1.357 . S
C581 C582 1.316 . S
C582 H553 0.927 1_455 S
C582 C577 1.260 . S
C582 C581 1.316 . S
C583 O555 1.214 . S
C583 O563 1.234 . S
C584 H556 0.929 . S
C584 C587 1.391 . S
C584 C589 1.391 . S
C585 H557 0.929 . S
C585 C586 1.390 . S
C585 N588 1.391 . S
C586 H558 0.930 . S
C586 C585 1.390 . S
C586 C587 1.392 . S
C587 H559 0.929 . S
C587 C584 1.391 . S
C587 C586 1.392 . S
N588 Co532 2.257 . S
N588 C585 1.391 . S
N588 C589 1.388 . S
C589 H560 0.930 . S
C589 C584 1.391 . S
C589 N588 1.388 . S
Co590 O592 2.143 . S
Co590 O598 2.074 . S
Co590 O601 2.093 . S
Co590 O614 2.097 . S
Co590 N631 2.151 . S
Co590 N639 2.214 . S
Co591 O592 2.160 . S
Co591 O597 2.058 . S
Co591 O607 2.057 . S
Co591 O622 2.037 . S
Co591 N626 2.145 . S
Co591 N647 2.257 . S
O592 Co590 2.143 . S
O592 Co591 2.160 . S
C593 O594 1.278 . S
C593 O601 1.224 . S
O594 C593 1.278 . S
C595 O596 1.245 . S
C595 O607 1.232 . S
O596 C595 1.245 . S
O597 Co591 2.058 . S
O597 C623 1.269 . S
O598 Co590 2.074 . S
O598 C623 1.257 . S
H599 C624 0.930 . S
H600 C630 0.930 . S
O601 Co590 2.093 . S
O601 C593 1.224 . S
H602 C634 0.929 . S
H603 C636 0.930 . S
H604 C637 0.930 . S
H605 C635 0.929 . S
H606 C638 0.928 . S
O607 Co591 2.057 . S
O607 C595 1.232 . S
H608 C627 0.929 . S
H609 C628 0.929 . S
H610 C640 0.931 . S
H611 C632 0.929 . S
H612 C641 0.930 . S
H613 C633 0.931 . S
O614 Co590 2.097 . S
O614 C642 1.214 . S
H615 C643 0.929 . S
H616 C644 0.929 . S
H617 C645 0.930 . S
H618 C646 0.929 . S
H619 C648 0.930 . S
H620 C625 0.930 1_556 S
H621 C629 0.930 . S
O622 Co591 2.037 . S
O622 C642 1.234 . S
C623 O597 1.269 . S
C623 O598 1.257 . S
C624 H599 0.930 . S
C624 C627 1.388 1_556 S
C624 C629 1.418 . S
C625 H620 0.930 1_554 S
C625 C628 1.404 . S
C625 C629 1.353 1_554 S
N626 Co591 2.145 . S
N626 C627 1.397 . S
N626 C628 1.334 . S
C627 H608 0.929 . S
C627 C624 1.388 1_554 S
C627 N626 1.397 . S
C628 H609 0.929 . S
C628 C625 1.404 . S
C628 N626 1.334 . S
C629 H621 0.930 . S
C629 C624 1.418 . S
C629 C625 1.353 1_556 S
C630 H600 0.930 . S
C630 N631 1.330 . S
C630 C632 1.446 . S
N631 Co590 2.151 . S
N631 C630 1.330 . S
N631 C635 1.418 . S
C632 H611 0.929 . S
C632 C630 1.446 . S
C632 C633 1.332 . S
C633 H613 0.931 . S
C633 C632 1.332 . S
C633 C634 1.267 . S
C634 H602 0.929 . S
C634 C633 1.267 . S
C634 C635 1.251 . S
C635 H605 0.929 . S
C635 N631 1.418 . S
C635 C634 1.251 . S
C636 H603 0.930 . S
C636 C638 1.406 . S
C636 C641 1.261 . S
C637 H604 0.930 . S
C637 N639 1.325 . S
C637 C640 1.357 . S
C638 H606 0.928 . S
C638 C636 1.406 . S
C638 N639 1.261 . S
N639 Co590 2.214 . S
N639 C637 1.325 . S
N639 C638 1.261 . S
C640 H610 0.931 . S
C640 C637 1.357 . S
C640 C641 1.312 . S
C641 H612 0.930 . S
C641 C636 1.261 . S
C641 C640 1.312 . S
C642 O614 1.214 . S
C642 O622 1.234 . S
C643 H615 0.929 . S
C643 C646 1.391 . S
C643 C648 1.391 . S
C644 H616 0.929 . S
C644 C645 1.390 . S
C644 N647 1.391 . S
C645 H617 0.930 . S
C645 C644 1.390 . S
C645 C646 1.392 . S
C646 H618 0.929 . S
C646 C643 1.391 . S
C646 C645 1.392 . S
N647 Co591 2.257 . S
N647 C644 1.391 . S
N647 C648 1.388 . S
C648 H619 0.930 . S
C648 C643 1.391 . S
C648 N647 1.388 . S
Co649 O651 2.143 . S
Co649 O657 2.074 . S
Co649 O660 2.093 1_556 S
Co649 O673 2.097 . S
Co649 N690 2.151 1_556 S
Co649 N698 2.214 . S
Co650 O651 2.160 . S
Co650 O656 2.058 . S
Co650 O666 2.057 . S
Co650 O681 2.037 . S
Co650 N685 2.145 . S
Co650 N706 2.257 . S
O651 Co649 2.143 . S
O651 Co650 2.160 . S
C652 O653 1.278 . S
C652 O660 1.224 . S
O653 C652 1.278 . S
C654 O655 1.245 1_556 S
C654 O666 1.232 . S
O655 C654 1.245 1_554 S
O656 Co650 2.058 . S
O656 C682 1.269 . S
O657 Co649 2.074 . S
O657 C682 1.257 . S
H658 C683 0.930 . S
H659 C689 0.930 . S
O660 Co649 2.093 1_554 S
O660 C652 1.224 . S
H661 C693 0.929 . S
H662 C695 0.930 . S
H663 C696 0.930 . S
H664 C694 0.929 . S
H665 C697 0.928 . S
O666 Co650 2.057 . S
O666 C654 1.232 . S
H667 C686 0.929 . S
H668 C687 0.929 1_545 S
H669 C699 0.931 . S
H670 C691 0.929 . S
H671 C700 0.930 . S
H672 C692 0.931 . S
O673 Co649 2.097 . S
O673 C701 1.214 . S
H674 C702 0.929 1_554 S
H675 C703 0.929 . S
H676 C704 0.930 . S
H677 C705 0.929 . S
H678 C707 0.919 1_554 S
H679 C684 0.930 . S
H680 C688 0.930 . S
O681 Co650 2.037 . S
O681 C701 1.234 . S
C682 O656 1.269 . S
C682 O657 1.257 . S
C683 H658 0.930 . S
C683 C686 1.388 . S
C683 C688 1.418 . S
C684 H679 0.930 . S
C684 C687 1.404 1_545 S
C684 C688 1.353 1_545 S
N685 Co650 2.145 . S
N685 C686 1.397 . S
N685 C687 1.334 . S
C686 H667 0.929 . S
C686 C683 1.388 . S
C686 N685 1.397 . S
C687 H668 0.929 1_565 S
C687 C684 1.404 1_565 S
C687 N685 1.334 . S
C688 H680 0.930 . S
C688 C683 1.418 . S
C688 C684 1.353 1_565 S
C689 H659 0.930 . S
C689 N690 1.330 . S
C689 C691 1.446 . S
N690 Co649 2.151 1_554 S
N690 C689 1.330 . S
N690 C694 1.418 . S
C691 H670 0.929 . S
C691 C689 1.446 . S
C691 C692 1.332 . S
C692 H672 0.931 . S
C692 C691 1.332 . S
C692 C693 1.267 . S
C693 H661 0.929 . S
C693 C692 1.267 . S
C693 C694 1.251 . S
C694 H664 0.929 . S
C694 N690 1.418 . S
C694 C693 1.251 . S
C695 H662 0.930 . S
C695 C697 1.406 . S
C695 C700 1.261 1_554 S
C696 H663 0.930 . S
C696 N698 1.325 . S
C696 C699 1.357 . S
C697 H665 0.928 . S
C697 C695 1.406 . S
C697 N698 1.261 1_554 S
N698 Co649 2.214 . S
N698 C696 1.325 . S
N698 C697 1.261 1_556 S
C699 H669 0.931 . S
C699 C696 1.357 . S
C699 C700 1.312 . S
C700 H671 0.930 . S
C700 C695 1.261 1_556 S
C700 C699 1.312 . S
C701 O673 1.214 . S
C701 O681 1.234 . S
C702 H674 0.929 1_556 S
C702 C705 1.391 . S
C702 C707 1.391 . S
C703 H675 0.929 . S
C703 C704 1.390 . S
C703 N706 1.391 . S
C704 H676 0.930 . S
C704 C703 1.390 . S
C704 C705 1.392 . S
C705 H677 0.929 . S
C705 C702 1.391 . S
C705 C704 1.392 . S
N706 Co650 2.257 . S
N706 C703 1.391 . S
N706 C707 1.388 . S
C707 H678 0.919 1_556 S
C707 C702 1.391 . S
C707 N706 1.388 . S
Co708 O710 2.143 . S
Co708 O716 2.074 . S
Co708 O719 2.093 . S
Co708 O732 2.097 . S
Co708 N749 2.151 . S
Co708 N757 2.214 1_655 S
Co709 O710 2.160 . S
Co709 O715 2.058 . S
Co709 O725 2.057 . S
Co709 O740 2.037 . S
Co709 N744 2.145 . S
Co709 N765 2.257 . S
O710 Co708 2.143 . S
O710 Co709 2.160 . S
C711 O712 1.278 . S
C711 O719 1.224 . S
O712 C711 1.278 . S
C713 O714 1.245 . S
C713 O725 1.232 . S
O714 C713 1.245 . S
O715 Co709 2.058 . S
O715 C741 1.269 . S
O716 Co708 2.074 . S
O716 C741 1.257 . S
H717 C742 0.930 . S
H718 C748 0.930 . S
O719 Co708 2.093 . S
O719 C711 1.224 . S
H720 C752 0.929 . S
H721 C754 0.930 . S
H722 C755 0.930 . S
H723 C753 0.929 . S
H724 C756 0.928 . S
O725 Co709 2.057 . S
O725 C713 1.232 . S
H726 C745 0.929 . S
H727 C746 0.929 . S
H728 C758 0.931 . S
H729 C750 0.929 . S
H730 C759 0.930 . S
H731 C751 0.931 . S
O732 Co708 2.097 . S
O732 C760 1.214 . S
H733 C761 0.929 . S
H734 C762 0.929 . S
H735 C763 0.930 . S
H736 C764 0.929 . S
H737 C766 0.930 . S
H738 C743 0.930 1_554 S
H739 C747 0.930 . S
O740 Co709 2.037 . S
O740 C760 1.234 . S
C741 O715 1.269 . S
C741 O716 1.257 . S
C742 H717 0.930 . S
C742 C745 1.388 1_554 S
C742 C747 1.418 . S
C743 H738 0.930 1_556 S
C743 C746 1.404 . S
C743 C747 1.353 1_556 S
N744 Co709 2.145 . S
N744 C745 1.397 . S
N744 C746 1.334 . S
C745 H726 0.929 . S
C745 C742 1.388 1_556 S
C745 N744 1.397 . S
C746 H727 0.929 . S
C746 C743 1.404 . S
C746 N744 1.334 . S
C747 H739 0.930 . S
C747 C742 1.418 . S
C747 C743 1.353 1_554 S
C748 H718 0.930 . S
C748 N749 1.330 . S
C748 C750 1.446 . S
N749 Co708 2.151 . S
N749 C748 1.330 . S
N749 C753 1.418 . S
C750 H729 0.929 . S
C750 C748 1.446 . S
C750 C751 1.332 . S
C751 H731 0.931 . S
C751 C750 1.332 . S
C751 C752 1.267 . S
C752 H720 0.929 . S
C752 C751 1.267 . S
C752 C753 1.251 . S
C753 H723 0.929 . S
C753 N749 1.418 . S
C753 C752 1.251 . S
C754 H721 0.930 . S
C754 C756 1.406 . S
C754 C759 1.261 . S
C755 H722 0.930 . S
C755 N757 1.325 . S
C755 C758 1.357 . S
C756 H724 0.928 . S
C756 C754 1.406 . S
C756 N757 1.261 . S
N757 Co708 2.214 1_455 S
N757 C755 1.325 . S
N757 C756 1.261 . S
C758 H728 0.931 . S
C758 C755 1.357 . S
C758 C759 1.312 . S
C759 H730 0.930 . S
C759 C754 1.261 . S
C759 C758 1.312 . S
C760 O732 1.214 . S
C760 O740 1.234 . S
C761 H733 0.929 . S
C761 C764 1.391 . S
C761 C766 1.391 . S
C762 H734 0.929 . S
C762 C763 1.390 . S
C762 N765 1.391 . S
C763 H735 0.930 . S
C763 C762 1.390 . S
C763 C764 1.392 . S
C764 H736 0.929 . S
C764 C761 1.391 . S
C764 C763 1.392 . S
N765 Co709 2.257 . S
N765 C762 1.391 . S
N765 C766 1.388 . S
C766 H737 0.930 . S
C766 C761 1.391 . S
C766 N765 1.388 . S
Co767 O769 2.143 . S
Co767 O775 2.074 . S
Co767 O778 2.093 . S
Co767 O791 2.097 . S
Co767 N808 2.151 . S
Co767 N816 2.214 . S
Co768 O769 2.160 . S
Co768 O774 2.058 . S
Co768 O784 2.057 . S
Co768 O799 2.037 . S
Co768 N803 2.145 . S
Co768 N824 2.257 . S
O769 Co767 2.143 . S
O769 Co768 2.160 . S
C770 O771 1.278 . S
C770 O778 1.224 . S
O771 C770 1.278 . S
C772 O773 1.245 . S
C772 O784 1.232 . S
O773 C772 1.245 . S
O774 Co768 2.058 . S
O774 C800 1.269 . S
O775 Co767 2.074 . S
O775 C800 1.257 . S
H776 C801 0.930 . S
H777 C807 0.930 . S
O778 Co767 2.093 . S
O778 C770 1.224 . S
H779 C811 0.929 . S
H780 C813 0.930 . S
H781 C814 0.930 . S
H782 C812 0.929 . S
H783 C815 0.928 . S
O784 Co768 2.057 . S
O784 C772 1.232 . S
H785 C804 0.929 . S
H786 C805 0.929 1_565 S
H787 C817 0.931 . S
H788 C809 0.929 . S
H789 C818 0.930 . S
H790 C810 0.931 . S
O791 Co767 2.097 . S
O791 C819 1.214 . S
H792 C820 0.929 . S
H793 C821 0.929 . S
H794 C822 0.930 . S
H795 C823 0.929 . S
H796 C825 0.930 . S
H797 C802 0.930 . S
H798 C806 0.930 . S
O799 Co768 2.037 . S
O799 C819 1.234 . S
C800 O774 1.269 . S
C800 O775 1.257 . S
C801 H776 0.930 . S
C801 C804 1.388 . S
C801 C806 1.418 . S
C802 H797 0.930 . S
C802 C805 1.404 1_565 S
C802 C806 1.353 1_565 S
N803 Co768 2.145 . S
N803 C804 1.397 . S
N803 C805 1.334 . S
C804 H785 0.929 . S
C804 C801 1.388 . S
C804 N803 1.397 . S
C805 H786 0.929 1_545 S
C805 C802 1.404 1_545 S
C805 N803 1.334 . S
C806 H798 0.930 . S
C806 C801 1.418 . S
C806 C802 1.353 1_545 S
C807 H777 0.930 . S
C807 N808 1.330 . S
C807 C809 1.446 . S
N808 Co767 2.151 . S
N808 C807 1.330 . S
N808 C812 1.418 . S
C809 H788 0.929 . S
C809 C807 1.446 . S
C809 C810 1.332 . S
C810 H790 0.931 . S
C810 C809 1.332 . S
C810 C811 1.267 . S
C811 H779 0.929 . S
C811 C810 1.267 . S
C811 C812 1.251 . S
C812 H782 0.929 . S
C812 N808 1.418 . S
C812 C811 1.251 . S
C813 H780 0.930 . S
C813 C815 1.406 . S
C813 C818 1.261 . S
C814 H781 0.930 . S
C814 N816 1.325 . S
C814 C817 1.357 . S
C815 H783 0.928 . S
C815 C813 1.406 . S
C815 N816 1.261 . S
N816 Co767 2.214 . S
N816 C814 1.325 . S
N816 C815 1.261 . S
C817 H787 0.931 . S
C817 C814 1.357 . S
C817 C818 1.312 . S
C818 H789 0.930 . S
C818 C813 1.261 . S
C818 C817 1.312 . S
C819 O791 1.214 . S
C819 O799 1.234 . S
C820 H792 0.929 . S
C820 C823 1.391 . S
C820 C825 1.391 . S
C821 H793 0.929 . S
C821 C822 1.390 . S
C821 N824 1.391 . S
C822 H794 0.930 . S
C822 C821 1.390 . S
C822 C823 1.392 . S
C823 H795 0.929 . S
C823 C820 1.391 . S
C823 C822 1.392 . S
N824 Co768 2.257 . S
N824 C821 1.391 . S
N824 C825 1.388 . S
C825 H796 0.930 . S
C825 C820 1.391 . S
C825 N824 1.388 . S
Co826 O828 2.143 . S
Co826 O834 2.074 . S
Co826 O837 2.093 . S
Co826 O850 2.097 . S
Co826 N867 2.151 . S
Co826 N875 2.214 . S
Co827 O828 2.160 . S
Co827 O833 2.058 . S
Co827 O843 2.057 . S
Co827 O858 2.037 . S
Co827 N862 2.145 . S
Co827 N883 2.257 . S
O828 Co826 2.143 . S
O828 Co827 2.160 . S
C829 O830 1.278 . S
C829 O837 1.224 . S
O830 C829 1.278 . S
C831 O832 1.245 . S
C831 O843 1.232 . S
O832 C831 1.245 . S
O833 Co827 2.058 . S
O833 C859 1.269 . S
O834 Co826 2.074 . S
O834 C859 1.257 . S
H835 C860 0.930 . S
H836 C866 0.930 . S
O837 Co826 2.093 . S
O837 C829 1.224 . S
H838 C870 0.929 . S
H839 C872 0.930 . S
H840 C873 0.930 . S
H841 C871 0.929 . S
H842 C874 0.928 . S
O843 Co827 2.057 . S
O843 C831 1.232 . S
H844 C863 0.929 . S
H845 C864 0.929 . S
H846 C876 0.931 . S
H847 C868 0.929 . S
H848 C877 0.930 . S
H849 C869 0.931 . S
O850 Co826 2.097 . S
O850 C878 1.214 . S
H851 C879 0.929 . S
H852 C880 0.929 . S
H853 C881 0.930 . S
H854 C882 0.929 . S
H855 C884 0.930 . S
H856 C861 0.930 . S
H857 C865 0.930 . S
O858 Co827 2.037 . S
O858 C878 1.234 . S
C859 O833 1.269 . S
C859 O834 1.257 . S
C860 H835 0.930 . S
C860 C863 1.388 . S
C860 C865 1.418 . S
C861 H856 0.930 . S
C861 C864 1.404 . S
C861 C865 1.353 . S
N862 Co827 2.145 . S
N862 C863 1.397 . S
N862 C864 1.334 . S
C863 H844 0.929 . S
C863 C860 1.388 . S
C863 N862 1.397 . S
C864 H845 0.929 . S
C864 C861 1.404 . S
C864 N862 1.334 . S
C865 H857 0.930 . S
C865 C860 1.418 . S
C865 C861 1.353 . S
C866 H836 0.930 . S
C866 N867 1.330 . S
C866 C868 1.446 . S
N867 Co826 2.151 . S
N867 C866 1.330 . S
N867 C871 1.418 . S
C868 H847 0.929 . S
C868 C866 1.446 . S
C868 C869 1.332 . S
C869 H849 0.931 . S
C869 C868 1.332 . S
C869 C870 1.267 . S
C870 H838 0.929 . S
C870 C869 1.267 . S
C870 C871 1.251 . S
C871 H841 0.929 . S
C871 N867 1.418 . S
C871 C870 1.251 . S
C872 H839 0.930 . S
C872 C874 1.406 . S
C872 C877 1.261 . S
C873 H840 0.930 . S
C873 N875 1.325 . S
C873 C876 1.357 . S
C874 H842 0.928 . S
C874 C872 1.406 . S
C874 N875 1.261 . S
N875 Co826 2.214 . S
N875 C873 1.325 . S
N875 C874 1.261 . S
C876 H846 0.931 . S
C876 C873 1.357 . S
C876 C877 1.312 . S
C877 H848 0.930 . S
C877 C872 1.261 . S
C877 C876 1.312 . S
C878 O850 1.214 . S
C878 O858 1.234 . S
C879 H851 0.929 . S
C879 C882 1.391 . S
C879 C884 1.391 . S
C880 H852 0.929 . S
C880 C881 1.390 . S
C880 N883 1.391 . S
C881 H853 0.930 . S
C881 C880 1.390 . S
C881 C882 1.392 . S
C882 H854 0.929 . S
C882 C879 1.391 . S
C882 C881 1.392 . S
N883 Co827 2.257 . S
N883 C880 1.391 . S
N883 C884 1.388 . S
C884 H855 0.930 . S
C884 C879 1.391 . S
C884 N883 1.388 . S
Co885 O887 2.143 . S
Co885 O893 2.074 1_455 S
Co885 O896 2.093 1_554 S
Co885 O909 2.097 . S
Co885 N926 2.151 1_454 S
Co885 N934 2.214 . S
Co886 O887 2.160 . S
Co886 O892 2.058 1_455 S
Co886 O902 2.057 . S
Co886 O917 2.037 . S
Co886 N921 2.145 . S
Co886 N942 2.257 . S
O887 Co885 2.143 . S
O887 Co886 2.160 . S
C888 O889 1.278 . S
C888 O896 1.224 . S
O889 C888 1.278 . S
C890 O891 1.245 1_554 S
C890 O902 1.232 . S
O891 C890 1.245 1_556 S
O892 Co886 2.058 1_655 S
O892 C918 1.269 . S
O893 Co885 2.074 1_655 S
O893 C918 1.257 . S
H894 C919 0.930 . S
H895 C925 0.930 1_455 S
O896 Co885 2.093 1_556 S
O896 C888 1.224 . S
H897 C929 0.929 . S
H898 C931 0.928 1_655 S
H899 C932 0.930 . S
H900 C930 0.929 . S
H901 C933 0.928 . S
O902 Co886 2.057 . S
O902 C890 1.232 . S
H903 C922 0.929 . S
H904 C923 0.929 1_545 S
H905 C935 0.931 . S
H906 C927 0.929 . S
H907 C936 0.927 1_655 S
H908 C928 0.931 . S
O909 Co885 2.097 . S
O909 C937 1.214 . S
H910 C938 0.929 1_556 S
H911 C939 0.929 . S
H912 C940 0.930 . S
H913 C941 0.929 . S
H914 C943 0.919 1_556 S
H915 C920 0.930 . S
H916 C924 0.930 . S
O917 Co886 2.037 . S
O917 C937 1.234 . S
C918 O892 1.269 . S
C918 O893 1.257 . S
C919 H894 0.930 . S
C919 C922 1.388 . S
C919 C924 1.418 . S
C920 H915 0.930 . S
C920 C923 1.404 1_545 S
C920 C924 1.353 1_545 S
N921 Co886 2.145 . S
N921 C922 1.397 . S
N921 C923 1.334 . S
C922 H903 0.929 . S
C922 C919 1.388 . S
C922 N921 1.397 . S
C923 H904 0.929 1_565 S
C923 C920 1.404 1_565 S
C923 N921 1.334 . S
C924 H916 0.930 . S
C924 C919 1.418 . S
C924 C920 1.353 1_565 S
C925 H895 0.930 1_655 S
C925 N926 1.330 . S
C925 C927 1.446 . S
N926 Co885 2.151 1_656 S
N926 C925 1.330 . S
N926 C930 1.418 . S
C927 H906 0.929 . S
C927 C925 1.446 . S
C927 C928 1.332 . S
C928 H908 0.931 . S
C928 C927 1.332 . S
C928 C929 1.267 . S
C929 H897 0.929 . S
C929 C928 1.267 . S
C929 C930 1.251 . S
C930 H900 0.929 . S
C930 N926 1.418 . S
C930 C929 1.251 . S
C931 H898 0.928 1_455 S
C931 C933 1.407 . S
C931 C936 1.260 1_556 S
C932 H899 0.930 . S
C932 N934 1.325 . S
C932 C935 1.357 . S
C933 H901 0.928 . S
C933 C931 1.407 . S
C933 N934 1.261 1_556 S
N934 Co885 2.214 . S
N934 C932 1.325 . S
N934 C933 1.261 1_554 S
C935 H905 0.931 . S
C935 C932 1.357 . S
C935 C936 1.316 . S
C936 H907 0.927 1_455 S
C936 C931 1.260 1_554 S
C936 C935 1.316 . S
C937 O909 1.214 . S
C937 O917 1.234 . S
C938 H910 0.929 1_554 S
C938 C941 1.391 . S
C938 C943 1.391 . S
C939 H911 0.929 . S
C939 C940 1.390 . S
C939 N942 1.391 . S
C940 H912 0.930 . S
C940 C939 1.390 . S
C940 C941 1.392 . S
C941 H913 0.929 . S
C941 C938 1.391 . S
C941 C940 1.392 . S
N942 Co886 2.257 . S
N942 C939 1.391 . S
N942 C943 1.388 . S
C943 H914 0.919 1_554 S
C943 C938 1.391 . S
C943 N942 1.388 . S
Co944 O946 2.143 . S
Co944 O952 2.074 . S
Co944 O955 2.093 . S
Co944 O968 2.097 . S
Co944 N985 2.151 . S
Co944 N993 2.214 . S
Co945 O946 2.160 . S
Co945 O951 2.058 . S
Co945 O961 2.057 . S
Co945 O976 2.037 . S
Co945 N980 2.145 . S
Co945 N1001 2.257 . S
O946 Co944 2.143 . S
O946 Co945 2.160 . S
C947 O948 1.278 . S
C947 O955 1.224 . S
O948 C947 1.278 . S
C949 O950 1.245 . S
C949 O961 1.232 . S
O950 C949 1.245 . S
O951 Co945 2.058 . S
O951 C977 1.269 . S
O952 Co944 2.074 . S
O952 C977 1.257 . S
H953 C978 0.930 . S
H954 C984 0.930 . S
O955 Co944 2.093 . S
O955 C947 1.224 . S
H956 C988 0.929 . S
H957 C990 0.930 . S
H958 C991 0.930 . S
H959 C989 0.929 . S
H960 C992 0.928 . S
O961 Co945 2.057 . S
O961 C949 1.232 . S
H962 C981 0.929 . S
H963 C982 0.929 . S
H964 C994 0.931 . S
H965 C986 0.929 . S
H966 C995 0.930 . S
H967 C987 0.931 . S
O968 Co944 2.097 . S
O968 C996 1.214 . S
H969 C997 0.929 . S
H970 C998 0.929 . S
H971 C999 0.930 . S
H972 C1000 0.929 . S
H973 C1002 0.930 . S
H974 C979 0.930 1_554 S
H975 C983 0.930 . S
O976 Co945 2.037 . S
O976 C996 1.234 . S
C977 O951 1.269 . S
C977 O952 1.257 . S
C978 H953 0.930 . S
C978 C981 1.388 1_554 S
C978 C983 1.418 . S
C979 H974 0.930 1_556 S
C979 C982 1.404 . S
C979 C983 1.353 1_556 S
N980 Co945 2.145 . S
N980 C981 1.397 . S
N980 C982 1.334 . S
C981 H962 0.929 . S
C981 C978 1.388 1_556 S
C981 N980 1.397 . S
C982 H963 0.929 . S
C982 C979 1.404 . S
C982 N980 1.334 . S
C983 H975 0.930 . S
C983 C978 1.418 . S
C983 C979 1.353 1_554 S
C984 H954 0.930 . S
C984 N985 1.330 . S
C984 C986 1.446 . S
N985 Co944 2.151 . S
N985 C984 1.330 . S
N985 C989 1.418 . S
C986 H965 0.929 . S
C986 C984 1.446 . S
C986 C987 1.332 . S
C987 H967 0.931 . S
C987 C986 1.332 . S
C987 C988 1.267 . S
C988 H956 0.929 . S
C988 C987 1.267 . S
C988 C989 1.251 . S
C989 H959 0.929 . S
C989 N985 1.418 . S
C989 C988 1.251 . S
C990 H957 0.930 . S
C990 C992 1.406 . S
C990 C995 1.261 . S
C991 H958 0.930 . S
C991 N993 1.325 . S
C991 C994 1.357 . S
C992 H960 0.928 . S
C992 C990 1.406 . S
C992 N993 1.261 . S
N993 Co944 2.214 . S
N993 C991 1.325 . S
N993 C992 1.261 . S
C994 H964 0.931 . S
C994 C991 1.357 . S
C994 C995 1.312 . S
C995 H966 0.930 . S
C995 C990 1.261 . S
C995 C994 1.312 . S
C996 O968 1.214 . S
C996 O976 1.234 . S
C997 H969 0.929 . S
C997 C1000 1.391 . S
C997 C1002 1.391 . S
C998 H970 0.929 . S
C998 C999 1.390 . S
C998 N1001 1.391 . S
C999 H971 0.930 . S
C999 C998 1.390 . S
C999 C1000 1.392 . S
C1000 H972 0.929 . S
C1000 C997 1.391 . S
C1000 C999 1.392 . S
N1001 Co945 2.257 . S
N1001 C998 1.391 . S
N1001 C1002 1.388 . S
C1002 H973 0.930 . S
C1002 C997 1.391 . S
C1002 N1001 1.388 . S
Co1003 O1005 2.143 . S
Co1003 O1011 2.074 . S
Co1003 O1014 2.093 1_554 S
Co1003 O1027 2.097 . S
Co1003 N1044 2.151 1_554 S
Co1003 N1052 2.214 . S
Co1004 O1005 2.160 . S
Co1004 O1010 2.058 . S
Co1004 O1020 2.057 . S
Co1004 O1035 2.037 . S
Co1004 N1039 2.145 . S
Co1004 N1060 2.257 . S
O1005 Co1003 2.143 . S
O1005 Co1004 2.160 . S
C1006 O1007 1.278 . S
C1006 O1014 1.224 . S
O1007 C1006 1.278 . S
C1008 O1009 1.245 1_554 S
C1008 O1020 1.232 . S
O1009 C1008 1.245 1_556 S
O1010 Co1004 2.058 . S
O1010 C1036 1.269 . S
O1011 Co1003 2.074 . S
O1011 C1036 1.257 . S
H1012 C1037 0.930 . S
H1013 C1043 0.930 . S
O1014 Co1003 2.093 1_556 S
O1014 C1006 1.224 . S
H1015 C1047 0.929 . S
H1016 C1049 0.930 . S
H1017 C1050 0.930 . S
H1018 C1048 0.929 . S
H1019 C1051 0.928 . S
O1020 Co1004 2.057 . S
O1020 C1008 1.232 . S
H1021 C1040 0.929 . S
H1022 C1041 0.929 . S
H1023 C1053 0.931 . S
H1024 C1045 0.929 . S
H1025 C1054 0.930 . S
H1026 C1046 0.931 . S
O1027 Co1003 2.097 . S
O1027 C1055 1.214 . S
H1028 C1056 0.929 1_556 S
H1029 C1057 0.929 . S
H1030 C1058 0.930 . S
H1031 C1059 0.929 . S
H1032 C1061 0.919 1_556 S
H1033 C1038 0.930 . S
H1034 C1042 0.930 . S
O1035 Co1004 2.037 . S
O1035 C1055 1.234 . S
C1036 O1010 1.269 . S
C1036 O1011 1.257 . S
C1037 H1012 0.930 . S
C1037 C1040 1.388 . S
C1037 C1042 1.418 . S
C1038 H1033 0.930 . S
C1038 C1041 1.404 . S
C1038 C1042 1.353 . S
N1039 Co1004 2.145 . S
N1039 C1040 1.397 . S
N1039 C1041 1.334 . S
C1040 H1021 0.929 . S
C1040 C1037 1.388 . S
C1040 N1039 1.397 . S
C1041 H1022 0.929 . S
C1041 C1038 1.404 . S
C1041 N1039 1.334 . S
C1042 H1034 0.930 . S
C1042 C1037 1.418 . S
C1042 C1038 1.353 . S
C1043 H1013 0.930 . S
C1043 N1044 1.330 . S
C1043 C1045 1.446 . S
N1044 Co1003 2.151 1_556 S
N1044 C1043 1.330 . S
N1044 C1048 1.418 . S
C1045 H1024 0.929 . S
C1045 C1043 1.446 . S
C1045 C1046 1.332 . S
C1046 H1026 0.931 . S
C1046 C1045 1.332 . S
C1046 C1047 1.267 . S
C1047 H1015 0.929 . S
C1047 C1046 1.267 . S
C1047 C1048 1.251 . S
C1048 H1018 0.929 . S
C1048 N1044 1.418 . S
C1048 C1047 1.251 . S
C1049 H1016 0.930 . S
C1049 C1051 1.406 . S
C1049 C1054 1.261 1_556 S
C1050 H1017 0.930 . S
C1050 N1052 1.325 . S
C1050 C1053 1.357 . S
C1051 H1019 0.928 . S
C1051 C1049 1.406 . S
C1051 N1052 1.261 1_556 S
N1052 Co1003 2.214 . S
N1052 C1050 1.325 . S
N1052 C1051 1.261 1_554 S
C1053 H1023 0.931 . S
C1053 C1050 1.357 . S
C1053 C1054 1.312 . S
C1054 H1025 0.930 . S
C1054 C1049 1.261 1_554 S
C1054 C1053 1.312 . S
C1055 O1027 1.214 . S
C1055 O1035 1.234 . S
C1056 H1028 0.929 1_554 S
C1056 C1059 1.391 . S
C1056 C1061 1.391 . S
C1057 H1029 0.929 . S
C1057 C1058 1.390 . S
C1057 N1060 1.391 . S
C1058 H1030 0.930 . S
C1058 C1057 1.390 . S
C1058 C1059 1.392 . S
C1059 H1031 0.929 . S
C1059 C1056 1.391 . S
C1059 C1058 1.392 . S
N1060 Co1004 2.257 . S
N1060 C1057 1.391 . S
N1060 C1061 1.388 . S
C1061 H1032 0.919 1_554 S
C1061 C1056 1.391 . S
C1061 N1060 1.388 . S
Co1062 O1064 2.143 . S
Co1062 O1070 2.074 . S
Co1062 O1073 2.093 . S
Co1062 O1086 2.097 . S
Co1062 N1103 2.151 . S
Co1062 N1111 2.214 1_655 S
Co1063 O1064 2.160 . S
Co1063 O1069 2.058 . S
Co1063 O1079 2.057 . S
Co1063 O1094 2.037 . S
Co1063 N1098 2.145 . S
Co1063 N1119 2.257 . S
O1064 Co1062 2.143 . S
O1064 Co1063 2.160 . S
C1065 O1066 1.278 . S
C1065 O1073 1.224 . S
O1066 C1065 1.278 . S
C1067 O1068 1.245 . S
C1067 O1079 1.232 . S
O1068 C1067 1.245 . S
O1069 Co1063 2.058 . S
O1069 C1095 1.269 . S
O1070 Co1062 2.074 . S
O1070 C1095 1.257 . S
H1071 C1096 0.930 . S
H1072 C1102 0.930 . S
O1073 Co1062 2.093 . S
O1073 C1065 1.224 . S
H1074 C1106 0.929 . S
H1075 C1108 0.930 . S
H1076 C1109 0.930 . S
H1077 C1107 0.929 . S
H1078 C1110 0.928 . S
O1079 Co1063 2.057 . S
O1079 C1067 1.232 . S
H1080 C1099 0.929 . S
H1081 C1100 0.929 . S
H1082 C1112 0.931 . S
H1083 C1104 0.929 . S
H1084 C1113 0.930 . S
H1085 C1105 0.931 . S
O1086 Co1062 2.097 . S
O1086 C1114 1.214 . S
H1087 C1115 0.929 . S
H1088 C1116 0.929 . S
H1089 C1117 0.930 . S
H1090 C1118 0.929 . S
H1091 C1120 0.930 . S
H1092 C1097 0.930 . S
H1093 C1101 0.930 . S
O1094 Co1063 2.037 . S
O1094 C1114 1.234 . S
C1095 O1069 1.269 . S
C1095 O1070 1.257 . S
C1096 H1071 0.930 . S
C1096 C1099 1.388 . S
C1096 C1101 1.418 . S
C1097 H1092 0.930 . S
C1097 C1100 1.404 . S
C1097 C1101 1.353 . S
N1098 Co1063 2.145 . S
N1098 C1099 1.397 . S
N1098 C1100 1.334 . S
C1099 H1080 0.929 . S
C1099 C1096 1.388 . S
C1099 N1098 1.397 . S
C1100 H1081 0.929 . S
C1100 C1097 1.404 . S
C1100 N1098 1.334 . S
C1101 H1093 0.930 . S
C1101 C1096 1.418 . S
C1101 C1097 1.353 . S
C1102 H1072 0.930 . S
C1102 N1103 1.330 . S
C1102 C1104 1.446 . S
N1103 Co1062 2.151 . S
N1103 C1102 1.330 . S
N1103 C1107 1.418 . S
C1104 H1083 0.929 . S
C1104 C1102 1.446 . S
C1104 C1105 1.332 . S
C1105 H1085 0.931 . S
C1105 C1104 1.332 . S
C1105 C1106 1.267 . S
C1106 H1074 0.929 . S
C1106 C1105 1.267 . S
C1106 C1107 1.251 . S
C1107 H1077 0.929 . S
C1107 N1103 1.418 . S
C1107 C1106 1.251 . S
C1108 H1075 0.930 . S
C1108 C1110 1.406 . S
C1108 C1113 1.261 . S
C1109 H1076 0.930 . S
C1109 N1111 1.325 . S
C1109 C1112 1.357 . S
C1110 H1078 0.928 . S
C1110 C1108 1.406 . S
C1110 N1111 1.261 . S
N1111 Co1062 2.214 1_455 S
N1111 C1109 1.325 . S
N1111 C1110 1.261 . S
C1112 H1082 0.931 . S
C1112 C1109 1.357 . S
C1112 C1113 1.312 . S
C1113 H1084 0.930 . S
C1113 C1108 1.261 . S
C1113 C1112 1.312 . S
C1114 O1086 1.214 . S
C1114 O1094 1.234 . S
C1115 H1087 0.929 . S
C1115 C1118 1.391 . S
C1115 C1120 1.391 . S
C1116 H1088 0.929 . S
C1116 C1117 1.390 . S
C1116 N1119 1.391 . S
C1117 H1089 0.930 . S
C1117 C1116 1.390 . S
C1117 C1118 1.392 . S
C1118 H1090 0.929 . S
C1118 C1115 1.391 . S
C1118 C1117 1.392 . S
N1119 Co1063 2.257 . S
N1119 C1116 1.391 . S
N1119 C1120 1.388 . S
C1120 H1091 0.930 . S
C1120 C1115 1.391 . S
C1120 N1119 1.388 . S
Co1121 O1123 2.143 . S
Co1121 O1129 2.074 1_455 S
Co1121 O1132 2.093 . S
Co1121 O1145 2.097 . S
Co1121 N1162 2.151 1_455 S
Co1121 N1170 2.214 . S
Co1122 O1123 2.160 . S
Co1122 O1128 2.058 1_455 S
Co1122 O1138 2.057 . S
Co1122 O1153 2.037 . S
Co1122 N1157 2.145 . S
Co1122 N1178 2.257 . S
O1123 Co1121 2.143 . S
O1123 Co1122 2.160 . S
C1124 O1125 1.278 . S
C1124 O1132 1.224 . S
O1125 C1124 1.278 . S
C1126 O1127 1.245 . S
C1126 O1138 1.232 . S
O1127 C1126 1.245 . S
O1128 Co1122 2.058 1_655 S
O1128 C1154 1.269 . S
O1129 Co1121 2.074 1_655 S
O1129 C1154 1.257 . S
H1130 C1155 0.930 . S
H1131 C1161 0.930 1_455 S
O1132 Co1121 2.093 . S
O1132 C1124 1.224 . S
H1133 C1165 0.929 . S
H1134 C1167 0.928 1_655 S
H1135 C1168 0.930 . S
H1136 C1166 0.929 . S
H1137 C1169 0.928 . S
O1138 Co1122 2.057 . S
O1138 C1126 1.232 . S
H1139 C1158 0.929 . S
H1140 C1159 0.929 . S
H1141 C1171 0.931 . S
H1142 C1163 0.929 . S
H1143 C1172 0.927 1_655 S
H1144 C1164 0.931 . S
O1145 Co1121 2.097 . S
O1145 C1173 1.214 . S
H1146 C1174 0.929 . S
H1147 C1175 0.929 . S
H1148 C1176 0.930 . S
H1149 C1177 0.929 . S
H1150 C1179 0.930 . S
H1151 C1156 0.930 . S
H1152 C1160 0.930 . S
O1153 Co1122 2.037 . S
O1153 C1173 1.234 . S
C1154 O1128 1.269 . S
C1154 O1129 1.257 . S
C1155 H1130 0.930 . S
C1155 C1158 1.388 . S
C1155 C1160 1.418 . S
C1156 H1151 0.930 . S
C1156 C1159 1.404 . S
C1156 C1160 1.353 . S
N1157 Co1122 2.145 . S
N1157 C1158 1.397 . S
N1157 C1159 1.334 . S
C1158 H1139 0.929 . S
C1158 C1155 1.388 . S
C1158 N1157 1.397 . S
C1159 H1140 0.929 . S
C1159 C1156 1.404 . S
C1159 N1157 1.334 . S
C1160 H1152 0.930 . S
C1160 C1155 1.418 . S
C1160 C1156 1.353 . S
C1161 H1131 0.930 1_655 S
C1161 N1162 1.330 . S
C1161 C1163 1.446 . S
N1162 Co1121 2.151 1_655 S
N1162 C1161 1.330 . S
N1162 C1166 1.418 . S
C1163 H1142 0.929 . S
C1163 C1161 1.446 . S
C1163 C1164 1.332 . S
C1164 H1144 0.931 . S
C1164 C1163 1.332 . S
C1164 C1165 1.267 . S
C1165 H1133 0.929 . S
C1165 C1164 1.267 . S
C1165 C1166 1.251 . S
C1166 H1136 0.929 . S
C1166 N1162 1.418 . S
C1166 C1165 1.251 . S
C1167 H1134 0.928 1_455 S
C1167 C1169 1.407 . S
C1167 C1172 1.260 . S
C1168 H1135 0.930 . S
C1168 N1170 1.325 . S
C1168 C1171 1.357 . S
C1169 H1137 0.928 . S
C1169 C1167 1.407 . S
C1169 N1170 1.261 . S
N1170 Co1121 2.214 . S
N1170 C1168 1.325 . S
N1170 C1169 1.261 . S
C1171 H1141 0.931 . S
C1171 C1168 1.357 . S
C1171 C1172 1.316 . S
C1172 H1143 0.927 1_455 S
C1172 C1167 1.260 . S
C1172 C1171 1.316 . S
C1173 O1145 1.214 . S
C1173 O1153 1.234 . S
C1174 H1146 0.929 . S
C1174 C1177 1.391 . S
C1174 C1179 1.391 . S
C1175 H1147 0.929 . S
C1175 C1176 1.390 . S
C1175 N1178 1.391 . S
C1176 H1148 0.930 . S
C1176 C1175 1.390 . S
C1176 C1177 1.392 . S
C1177 H1149 0.929 . S
C1177 C1174 1.391 . S
C1177 C1176 1.392 . S
N1178 Co1122 2.257 . S
N1178 C1175 1.391 . S
N1178 C1179 1.388 . S
C1179 H1150 0.930 . S
C1179 C1174 1.391 . S
C1179 N1178 1.388 . S
Co1180 O1182 2.143 . S
Co1180 O1188 2.074 . S
Co1180 O1191 2.093 . S
Co1180 O1204 2.097 . S
Co1180 N1221 2.151 . S
Co1180 N1229 2.214 . S
Co1181 O1182 2.160 . S
Co1181 O1187 2.058 . S
Co1181 O1197 2.057 . S
Co1181 O1212 2.037 . S
Co1181 N1216 2.145 . S
Co1181 N1237 2.257 . S
O1182 Co1180 2.143 . S
O1182 Co1181 2.160 . S
C1183 O1184 1.278 . S
C1183 O1191 1.224 . S
O1184 C1183 1.278 . S
C1185 O1186 1.245 . S
C1185 O1197 1.232 . S
O1186 C1185 1.245 . S
O1187 Co1181 2.058 . S
O1187 C1213 1.269 . S
O1188 Co1180 2.074 . S
O1188 C1213 1.257 . S
H1189 C1214 0.930 . S
H1190 C1220 0.930 . S
O1191 Co1180 2.093 . S
O1191 C1183 1.224 . S
H1192 C1224 0.929 . S
H1193 C1226 0.930 . S
H1194 C1227 0.930 . S
H1195 C1225 0.929 . S
H1196 C1228 0.928 . S
O1197 Co1181 2.057 . S
O1197 C1185 1.232 . S
H1198 C1217 0.929 . S
H1199 C1218 0.929 . S
H1200 C1230 0.931 . S
H1201 C1222 0.929 . S
H1202 C1231 0.930 . S
H1203 C1223 0.931 . S
O1204 Co1180 2.097 . S
O1204 C1232 1.214 . S
H1205 C1233 0.929 . S
H1206 C1234 0.929 . S
H1207 C1235 0.930 . S
H1208 C1236 0.929 . S
H1209 C1238 0.930 . S
H1210 C1215 0.930 . S
H1211 C1219 0.930 . S
O1212 Co1181 2.037 . S
O1212 C1232 1.234 . S
C1213 O1187 1.269 . S
C1213 O1188 1.257 . S
C1214 H1189 0.930 . S
C1214 C1217 1.388 . S
C1214 C1219 1.418 . S
C1215 H1210 0.930 . S
C1215 C1218 1.404 . S
C1215 C1219 1.353 . S
N1216 Co1181 2.145 . S
N1216 C1217 1.397 . S
N1216 C1218 1.334 . S
C1217 H1198 0.929 . S
C1217 C1214 1.388 . S
C1217 N1216 1.397 . S
C1218 H1199 0.929 . S
C1218 C1215 1.404 . S
C1218 N1216 1.334 . S
C1219 H1211 0.930 . S
C1219 C1214 1.418 . S
C1219 C1215 1.353 . S
C1220 H1190 0.930 . S
C1220 N1221 1.330 . S
C1220 C1222 1.446 . S
N1221 Co1180 2.151 . S
N1221 C1220 1.330 . S
N1221 C1225 1.418 . S
C1222 H1201 0.929 . S
C1222 C1220 1.446 . S
C1222 C1223 1.332 . S
C1223 H1203 0.931 . S
C1223 C1222 1.332 . S
C1223 C1224 1.267 . S
C1224 H1192 0.929 . S
C1224 C1223 1.267 . S
C1224 C1225 1.251 . S
C1225 H1195 0.929 . S
C1225 N1221 1.418 . S
C1225 C1224 1.251 . S
C1226 H1193 0.930 . S
C1226 C1228 1.406 . S
C1226 C1231 1.261 . S
C1227 H1194 0.930 . S
C1227 N1229 1.325 . S
C1227 C1230 1.357 . S
C1228 H1196 0.928 . S
C1228 C1226 1.406 . S
C1228 N1229 1.261 . S
N1229 Co1180 2.214 . S
N1229 C1227 1.325 . S
N1229 C1228 1.261 . S
C1230 H1200 0.931 . S
C1230 C1227 1.357 . S
C1230 C1231 1.312 . S
C1231 H1202 0.930 . S
C1231 C1226 1.261 . S
C1231 C1230 1.312 . S
C1232 O1204 1.214 . S
C1232 O1212 1.234 . S
C1233 H1205 0.929 . S
C1233 C1236 1.391 . S
C1233 C1238 1.391 . S
C1234 H1206 0.929 . S
C1234 C1235 1.390 . S
C1234 N1237 1.391 . S
C1235 H1207 0.930 . S
C1235 C1234 1.390 . S
C1235 C1236 1.392 . S
C1236 H1208 0.929 . S
C1236 C1233 1.391 . S
C1236 C1235 1.392 . S
N1237 Co1181 2.257 . S
N1237 C1234 1.391 . S
N1237 C1238 1.388 . S
C1238 H1209 0.930 . S
C1238 C1233 1.391 . S
C1238 N1237 1.388 . S
Co1239 O1241 2.143 . S
Co1239 O1247 2.074 1_455 S
Co1239 O1250 2.093 1_556 S
Co1239 O1263 2.097 . S
Co1239 N1280 2.151 1_456 S
Co1239 N1288 2.214 . S
Co1240 O1241 2.160 . S
Co1240 O1246 2.058 1_455 S
Co1240 O1256 2.057 . S
Co1240 O1271 2.037 . S
Co1240 N1275 2.145 . S
Co1240 N1296 2.257 . S
O1241 Co1239 2.143 . S
O1241 Co1240 2.160 . S
C1242 O1243 1.278 . S
C1242 O1250 1.224 . S
O1243 C1242 1.278 . S
C1244 O1245 1.245 1_556 S
C1244 O1256 1.232 . S
O1245 C1244 1.245 1_554 S
O1246 Co1240 2.058 1_655 S
O1246 C1272 1.269 . S
O1247 Co1239 2.074 1_655 S
O1247 C1272 1.257 . S
H1248 C1273 0.930 . S
H1249 C1279 0.930 1_455 S
O1250 Co1239 2.093 1_554 S
O1250 C1242 1.224 . S
H1251 C1283 0.929 . S
H1252 C1285 0.928 1_655 S
H1253 C1286 0.930 . S
H1254 C1284 0.929 . S
H1255 C1287 0.928 . S
O1256 Co1240 2.057 . S
O1256 C1244 1.232 . S
H1257 C1276 0.929 . S
H1258 C1277 0.929 . S
H1259 C1289 0.931 . S
H1260 C1281 0.929 . S
H1261 C1290 0.927 1_655 S
H1262 C1282 0.931 . S
O1263 Co1239 2.097 . S
O1263 C1291 1.214 . S
H1264 C1292 0.929 1_554 S
H1265 C1293 0.929 . S
H1266 C1294 0.930 . S
H1267 C1295 0.929 . S
H1268 C1297 0.919 1_554 S
H1269 C1274 0.930 . S
H1270 C1278 0.930 . S
O1271 Co1240 2.037 . S
O1271 C1291 1.234 . S
C1272 O1246 1.269 . S
C1272 O1247 1.257 . S
C1273 H1248 0.930 . S
C1273 C1276 1.388 . S
C1273 C1278 1.418 . S
C1274 H1269 0.930 . S
C1274 C1277 1.404 . S
C1274 C1278 1.353 . S
N1275 Co1240 2.145 . S
N1275 C1276 1.397 . S
N1275 C1277 1.334 . S
C1276 H1257 0.929 . S
C1276 C1273 1.388 . S
C1276 N1275 1.397 . S
C1277 H1258 0.929 . S
C1277 C1274 1.404 . S
C1277 N1275 1.334 . S
C1278 H1270 0.930 . S
C1278 C1273 1.418 . S
C1278 C1274 1.353 . S
C1279 H1249 0.930 1_655 S
C1279 N1280 1.330 . S
C1279 C1281 1.446 . S
N1280 Co1239 2.151 1_654 S
N1280 C1279 1.330 . S
N1280 C1284 1.418 . S
C1281 H1260 0.929 . S
C1281 C1279 1.446 . S
C1281 C1282 1.332 . S
C1282 H1262 0.931 . S
C1282 C1281 1.332 . S
C1282 C1283 1.267 . S
C1283 H1251 0.929 . S
C1283 C1282 1.267 . S
C1283 C1284 1.251 . S
C1284 H1254 0.929 . S
C1284 N1280 1.418 . S
C1284 C1283 1.251 . S
C1285 H1252 0.928 1_455 S
C1285 C1287 1.407 . S
C1285 C1290 1.260 1_554 S
C1286 H1253 0.930 . S
C1286 N1288 1.325 . S
C1286 C1289 1.357 . S
C1287 H1255 0.928 . S
C1287 C1285 1.407 . S
C1287 N1288 1.261 1_554 S
N1288 Co1239 2.214 . S
N1288 C1286 1.325 . S
N1288 C1287 1.261 1_556 S
C1289 H1259 0.931 . S
C1289 C1286 1.357 . S
C1289 C1290 1.316 . S
C1290 H1261 0.927 1_455 S
C1290 C1285 1.260 1_556 S
C1290 C1289 1.316 . S
C1291 O1263 1.214 . S
C1291 O1271 1.234 . S
C1292 H1264 0.929 1_556 S
C1292 C1295 1.391 . S
C1292 C1297 1.391 . S
C1293 H1265 0.929 . S
C1293 C1294 1.390 . S
C1293 N1296 1.391 . S
C1294 H1266 0.930 . S
C1294 C1293 1.390 . S
C1294 C1295 1.392 . S
C1295 H1267 0.929 . S
C1295 C1292 1.391 . S
C1295 C1294 1.392 . S
N1296 Co1240 2.257 . S
N1296 C1293 1.391 . S
N1296 C1297 1.388 . S
C1297 H1268 0.919 1_556 S
C1297 C1292 1.391 . S
C1297 N1296 1.388 . S
Co1298 O1300 2.143 . S
Co1298 O1306 2.074 . S
Co1298 O1309 2.093 . S
Co1298 O1322 2.097 . S
Co1298 N1339 2.151 . S
Co1298 N1347 2.214 1_655 S
Co1299 O1300 2.160 . S
Co1299 O1305 2.058 . S
Co1299 O1315 2.057 . S
Co1299 O1330 2.037 . S
Co1299 N1334 2.145 . S
Co1299 N1355 2.257 . S
O1300 Co1298 2.143 . S
O1300 Co1299 2.160 . S
C1301 O1302 1.278 . S
C1301 O1309 1.224 . S
O1302 C1301 1.278 . S
C1303 O1304 1.245 . S
C1303 O1315 1.232 . S
O1304 C1303 1.245 . S
O1305 Co1299 2.058 . S
O1305 C1331 1.269 . S
O1306 Co1298 2.074 . S
O1306 C1331 1.257 . S
H1307 C1332 0.930 . S
H1308 C1338 0.930 . S
O1309 Co1298 2.093 . S
O1309 C1301 1.224 . S
H1310 C1342 0.929 . S
H1311 C1344 0.930 . S
H1312 C1345 0.930 . S
H1313 C1343 0.929 . S
H1314 C1346 0.928 . S
O1315 Co1299 2.057 . S
O1315 C1303 1.232 . S
H1316 C1335 0.929 . S
H1317 C1336 0.929 . S
H1318 C1348 0.931 . S
H1319 C1340 0.929 . S
H1320 C1349 0.930 . S
H1321 C1341 0.931 . S
O1322 Co1298 2.097 . S
O1322 C1350 1.214 . S
H1323 C1351 0.929 . S
H1324 C1352 0.929 . S
H1325 C1353 0.930 . S
H1326 C1354 0.929 . S
H1327 C1356 0.930 . S
H1328 C1333 0.930 1_556 S
H1329 C1337 0.930 . S
O1330 Co1299 2.037 . S
O1330 C1350 1.234 . S
C1331 O1305 1.269 . S
C1331 O1306 1.257 . S
C1332 H1307 0.930 . S
C1332 C1335 1.388 1_556 S
C1332 C1337 1.418 . S
C1333 H1328 0.930 1_554 S
C1333 C1336 1.404 . S
C1333 C1337 1.353 1_554 S
N1334 Co1299 2.145 . S
N1334 C1335 1.397 . S
N1334 C1336 1.334 . S
C1335 H1316 0.929 . S
C1335 C1332 1.388 1_554 S
C1335 N1334 1.397 . S
C1336 H1317 0.929 . S
C1336 C1333 1.404 . S
C1336 N1334 1.334 . S
C1337 H1329 0.930 . S
C1337 C1332 1.418 . S
C1337 C1333 1.353 1_556 S
C1338 H1308 0.930 . S
C1338 N1339 1.330 . S
C1338 C1340 1.446 . S
N1339 Co1298 2.151 . S
N1339 C1338 1.330 . S
N1339 C1343 1.418 . S
C1340 H1319 0.929 . S
C1340 C1338 1.446 . S
C1340 C1341 1.332 . S
C1341 H1321 0.931 . S
C1341 C1340 1.332 . S
C1341 C1342 1.267 . S
C1342 H1310 0.929 . S
C1342 C1341 1.267 . S
C1342 C1343 1.251 . S
C1343 H1313 0.929 . S
C1343 N1339 1.418 . S
C1343 C1342 1.251 . S
C1344 H1311 0.930 . S
C1344 C1346 1.406 . S
C1344 C1349 1.261 . S
C1345 H1312 0.930 . S
C1345 N1347 1.325 . S
C1345 C1348 1.357 . S
C1346 H1314 0.928 . S
C1346 C1344 1.406 . S
C1346 N1347 1.261 . S
N1347 Co1298 2.214 1_455 S
N1347 C1345 1.325 . S
N1347 C1346 1.261 . S
C1348 H1318 0.931 . S
C1348 C1345 1.357 . S
C1348 C1349 1.312 . S
C1349 H1320 0.930 . S
C1349 C1344 1.261 . S
C1349 C1348 1.312 . S
C1350 O1322 1.214 . S
C1350 O1330 1.234 . S
C1351 H1323 0.929 . S
C1351 C1354 1.391 . S
C1351 C1356 1.391 . S
C1352 H1324 0.929 . S
C1352 C1353 1.390 . S
C1352 N1355 1.391 . S
C1353 H1325 0.930 . S
C1353 C1352 1.390 . S
C1353 C1354 1.392 . S
C1354 H1326 0.929 . S
C1354 C1351 1.391 . S
C1354 C1353 1.392 . S
N1355 Co1299 2.257 . S
N1355 C1352 1.391 . S
N1355 C1356 1.388 . S
C1356 H1327 0.930 . S
C1356 C1351 1.391 . S
C1356 N1355 1.388 . S
Co1357 O1359 2.143 . S
Co1357 O1365 2.074 . S
Co1357 O1368 2.093 . S
Co1357 O1381 2.097 . S
Co1357 N1398 2.151 . S
Co1357 N1406 2.214 . S
Co1358 O1359 2.160 . S
Co1358 O1364 2.058 . S
Co1358 O1374 2.057 . S
Co1358 O1389 2.037 . S
Co1358 N1393 2.145 . S
Co1358 N1414 2.257 . S
O1359 Co1357 2.143 . S
O1359 Co1358 2.160 . S
C1360 O1361 1.278 . S
C1360 O1368 1.224 . S
O1361 C1360 1.278 . S
C1362 O1363 1.245 . S
C1362 O1374 1.232 . S
O1363 C1362 1.245 . S
O1364 Co1358 2.058 . S
O1364 C1390 1.269 . S
O1365 Co1357 2.074 . S
O1365 C1390 1.257 . S
H1366 C1391 0.930 . S
H1367 C1397 0.930 . S
O1368 Co1357 2.093 . S
O1368 C1360 1.224 . S
H1369 C1401 0.929 . S
H1370 C1403 0.930 . S
H1371 C1404 0.930 . S
H1372 C1402 0.929 . S
H1373 C1405 0.928 . S
O1374 Co1358 2.057 . S
O1374 C1362 1.232 . S
H1375 C1394 0.929 . S
H1376 C1395 0.929 . S
H1377 C1407 0.931 . S
H1378 C1399 0.929 . S
H1379 C1408 0.930 . S
H1380 C1400 0.931 . S
O1381 Co1357 2.097 . S
O1381 C1409 1.214 . S
H1382 C1410 0.929 . S
H1383 C1411 0.929 . S
H1384 C1412 0.930 . S
H1385 C1413 0.929 . S
H1386 C1415 0.930 . S
H1387 C1392 0.930 . S
H1388 C1396 0.930 . S
O1389 Co1358 2.037 . S
O1389 C1409 1.234 . S
C1390 O1364 1.269 . S
C1390 O1365 1.257 . S
C1391 H1366 0.930 . S
C1391 C1394 1.388 . S
C1391 C1396 1.418 . S
C1392 H1387 0.930 . S
C1392 C1395 1.404 . S
C1392 C1396 1.353 . S
N1393 Co1358 2.145 . S
N1393 C1394 1.397 . S
N1393 C1395 1.334 . S
C1394 H1375 0.929 . S
C1394 C1391 1.388 . S
C1394 N1393 1.397 . S
C1395 H1376 0.929 . S
C1395 C1392 1.404 . S
C1395 N1393 1.334 . S
C1396 H1388 0.930 . S
C1396 C1391 1.418 . S
C1396 C1392 1.353 . S
C1397 H1367 0.930 . S
C1397 N1398 1.330 . S
C1397 C1399 1.446 . S
N1398 Co1357 2.151 . S
N1398 C1397 1.330 . S
N1398 C1402 1.418 . S
C1399 H1378 0.929 . S
C1399 C1397 1.446 . S
C1399 C1400 1.332 . S
C1400 H1380 0.931 . S
C1400 C1399 1.332 . S
C1400 C1401 1.267 . S
C1401 H1369 0.929 . S
C1401 C1400 1.267 . S
C1401 C1402 1.251 . S
C1402 H1372 0.929 . S
C1402 N1398 1.418 . S
C1402 C1401 1.251 . S
C1403 H1370 0.930 . S
C1403 C1405 1.406 . S
C1403 C1408 1.261 . S
C1404 H1371 0.930 . S
C1404 N1406 1.325 . S
C1404 C1407 1.357 . S
C1405 H1373 0.928 . S
C1405 C1403 1.406 . S
C1405 N1406 1.261 . S
N1406 Co1357 2.214 . S
N1406 C1404 1.325 . S
N1406 C1405 1.261 . S
C1407 H1377 0.931 . S
C1407 C1404 1.357 . S
C1407 C1408 1.312 . S
C1408 H1379 0.930 . S
C1408 C1403 1.261 . S
C1408 C1407 1.312 . S
C1409 O1381 1.214 . S
C1409 O1389 1.234 . S
C1410 H1382 0.929 . S
C1410 C1413 1.391 . S
C1410 C1415 1.391 . S
C1411 H1383 0.929 . S
C1411 C1412 1.390 . S
C1411 N1414 1.391 . S
C1412 H1384 0.930 . S
C1412 C1411 1.390 . S
C1412 C1413 1.392 . S
C1413 H1385 0.929 . S
C1413 C1410 1.391 . S
C1413 C1412 1.392 . S
N1414 Co1358 2.257 . S
N1414 C1411 1.391 . S
N1414 C1415 1.388 . S
C1415 H1386 0.930 . S
C1415 C1410 1.391 . S
C1415 N1414 1.388 . S
Co1416 O1418 2.143 . S
Co1416 O1424 2.074 . S
Co1416 O1427 2.093 . S
Co1416 O1440 2.097 . S
Co1416 N1457 2.151 . S
Co1416 N1465 2.214 . S
Co1417 O1418 2.160 . S
Co1417 O1423 2.058 . S
Co1417 O1433 2.057 . S
Co1417 O1448 2.037 . S
Co1417 N1452 2.145 . S
Co1417 N1473 2.257 . S
O1418 Co1416 2.143 . S
O1418 Co1417 2.160 . S
C1419 O1420 1.278 . S
C1419 O1427 1.224 . S
O1420 C1419 1.278 . S
C1421 O1422 1.245 . S
C1421 O1433 1.232 . S
O1422 C1421 1.245 . S
O1423 Co1417 2.058 . S
O1423 C1449 1.269 . S
O1424 Co1416 2.074 . S
O1424 C1449 1.257 . S
H1425 C1450 0.930 . S
H1426 C1456 0.930 . S
O1427 Co1416 2.093 . S
O1427 C1419 1.224 . S
H1428 C1460 0.929 . S
H1429 C1462 0.930 . S
H1430 C1463 0.930 . S
H1431 C1461 0.929 . S
H1432 C1464 0.928 . S
O1433 Co1417 2.057 . S
O1433 C1421 1.232 . S
H1434 C1453 0.929 . S
H1435 C1454 0.929 . S
H1436 C1466 0.931 . S
H1437 C1458 0.929 . S
H1438 C1467 0.930 . S
H1439 C1459 0.931 . S
O1440 Co1416 2.097 . S
O1440 C1468 1.214 . S
H1441 C1469 0.929 . S
H1442 C1470 0.929 . S
H1443 C1471 0.930 . S
H1444 C1472 0.929 . S
H1445 C1474 0.930 . S
H1446 C1451 0.930 1_556 S
H1447 C1455 0.930 . S
O1448 Co1417 2.037 . S
O1448 C1468 1.234 . S
C1449 O1423 1.269 . S
C1449 O1424 1.257 . S
C1450 H1425 0.930 . S
C1450 C1453 1.388 1_556 S
C1450 C1455 1.418 . S
C1451 H1446 0.930 1_554 S
C1451 C1454 1.404 . S
C1451 C1455 1.353 1_554 S
N1452 Co1417 2.145 . S
N1452 C1453 1.397 . S
N1452 C1454 1.334 . S
C1453 H1434 0.929 . S
C1453 C1450 1.388 1_554 S
C1453 N1452 1.397 . S
C1454 H1435 0.929 . S
C1454 C1451 1.404 . S
C1454 N1452 1.334 . S
C1455 H1447 0.930 . S
C1455 C1450 1.418 . S
C1455 C1451 1.353 1_556 S
C1456 H1426 0.930 . S
C1456 N1457 1.330 . S
C1456 C1458 1.446 . S
N1457 Co1416 2.151 . S
N1457 C1456 1.330 . S
N1457 C1461 1.418 . S
C1458 H1437 0.929 . S
C1458 C1456 1.446 . S
C1458 C1459 1.332 . S
C1459 H1439 0.931 . S
C1459 C1458 1.332 . S
C1459 C1460 1.267 . S
C1460 H1428 0.929 . S
C1460 C1459 1.267 . S
C1460 C1461 1.251 . S
C1461 H1431 0.929 . S
C1461 N1457 1.418 . S
C1461 C1460 1.251 . S
C1462 H1429 0.930 . S
C1462 C1464 1.406 . S
C1462 C1467 1.261 . S
C1463 H1430 0.930 . S
C1463 N1465 1.325 . S
C1463 C1466 1.357 . S
C1464 H1432 0.928 . S
C1464 C1462 1.406 . S
C1464 N1465 1.261 . S
N1465 Co1416 2.214 . S
N1465 C1463 1.325 . S
N1465 C1464 1.261 . S
C1466 H1436 0.931 . S
C1466 C1463 1.357 . S
C1466 C1467 1.312 . S
C1467 H1438 0.930 . S
C1467 C1462 1.261 . S
C1467 C1466 1.312 . S
C1468 O1440 1.214 . S
C1468 O1448 1.234 . S
C1469 H1441 0.929 . S
C1469 C1472 1.391 . S
C1469 C1474 1.391 . S
C1470 H1442 0.929 . S
C1470 C1471 1.390 . S
C1470 N1473 1.391 . S
C1471 H1443 0.930 . S
C1471 C1470 1.390 . S
C1471 C1472 1.392 . S
C1472 H1444 0.929 . S
C1472 C1469 1.391 . S
C1472 C1471 1.392 . S
N1473 Co1417 2.257 . S
N1473 C1470 1.391 . S
N1473 C1474 1.388 . S
C1474 H1445 0.930 . S
C1474 C1469 1.391 . S
C1474 N1473 1.388 . S
Co1475 O1477 2.143 . S
Co1475 O1483 2.074 . S
Co1475 O1486 2.093 1_556 S
Co1475 O1499 2.097 . S
Co1475 N1516 2.151 1_556 S
Co1475 N1524 2.214 . S
Co1476 O1477 2.160 . S
Co1476 O1482 2.058 . S
Co1476 O1492 2.057 . S
Co1476 O1507 2.037 . S
Co1476 N1511 2.145 . S
Co1476 N1532 2.257 . S
O1477 Co1475 2.143 . S
O1477 Co1476 2.160 . S
C1478 O1479 1.278 . S
C1478 O1486 1.224 . S
O1479 C1478 1.278 . S
C1480 O1481 1.245 1_556 S
C1480 O1492 1.232 . S
O1481 C1480 1.245 1_554 S
O1482 Co1476 2.058 . S
O1482 C1508 1.269 . S
O1483 Co1475 2.074 . S
O1483 C1508 1.257 . S
H1484 C1509 0.930 . S
H1485 C1515 0.930 . S
O1486 Co1475 2.093 1_554 S
O1486 C1478 1.224 . S
H1487 C1519 0.929 . S
H1488 C1521 0.930 . S
H1489 C1522 0.930 . S
H1490 C1520 0.929 . S
H1491 C1523 0.928 . S
O1492 Co1476 2.057 . S
O1492 C1480 1.232 . S
H1493 C1512 0.929 . S
H1494 C1513 0.929 . S
H1495 C1525 0.931 . S
H1496 C1517 0.929 . S
H1497 C1526 0.930 . S
H1498 C1518 0.931 . S
O1499 Co1475 2.097 . S
O1499 C1527 1.214 . S
H1500 C1528 0.929 1_554 S
H1501 C1529 0.929 . S
H1502 C1530 0.930 . S
H1503 C1531 0.929 . S
H1504 C1533 0.919 1_554 S
H1505 C1510 0.930 . S
H1506 C1514 0.930 . S
O1507 Co1476 2.037 . S
O1507 C1527 1.234 . S
C1508 O1482 1.269 . S
C1508 O1483 1.257 . S
C1509 H1484 0.930 . S
C1509 C1512 1.388 . S
C1509 C1514 1.418 . S
C1510 H1505 0.930 . S
C1510 C1513 1.404 . S
C1510 C1514 1.353 . S
N1511 Co1476 2.145 . S
N1511 C1512 1.397 . S
N1511 C1513 1.334 . S
C1512 H1493 0.929 . S
C1512 C1509 1.388 . S
C1512 N1511 1.397 . S
C1513 H1494 0.929 . S
C1513 C1510 1.404 . S
C1513 N1511 1.334 . S
C1514 H1506 0.930 . S
C1514 C1509 1.418 . S
C1514 C1510 1.353 . S
C1515 H1485 0.930 . S
C1515 N1516 1.330 . S
C1515 C1517 1.446 . S
N1516 Co1475 2.151 1_554 S
N1516 C1515 1.330 . S
N1516 C1520 1.418 . S
C1517 H1496 0.929 . S
C1517 C1515 1.446 . S
C1517 C1518 1.332 . S
C1518 H1498 0.931 . S
C1518 C1517 1.332 . S
C1518 C1519 1.267 . S
C1519 H1487 0.929 . S
C1519 C1518 1.267 . S
C1519 C1520 1.251 . S
C1520 H1490 0.929 . S
C1520 N1516 1.418 . S
C1520 C1519 1.251 . S
C1521 H1488 0.930 . S
C1521 C1523 1.406 . S
C1521 C1526 1.261 1_554 S
C1522 H1489 0.930 . S
C1522 N1524 1.325 . S
C1522 C1525 1.357 . S
C1523 H1491 0.928 . S
C1523 C1521 1.406 . S
C1523 N1524 1.261 1_554 S
N1524 Co1475 2.214 . S
N1524 C1522 1.325 . S
N1524 C1523 1.261 1_556 S
C1525 H1495 0.931 . S
C1525 C1522 1.357 . S
C1525 C1526 1.312 . S
C1526 H1497 0.930 . S
C1526 C1521 1.261 1_556 S
C1526 C1525 1.312 . S
C1527 O1499 1.214 . S
C1527 O1507 1.234 . S
C1528 H1500 0.929 1_556 S
C1528 C1531 1.391 . S
C1528 C1533 1.391 . S
C1529 H1501 0.929 . S
C1529 C1530 1.390 . S
C1529 N1532 1.391 . S
C1530 H1502 0.930 . S
C1530 C1529 1.390 . S
C1530 C1531 1.392 . S
C1531 H1503 0.929 . S
C1531 C1528 1.391 . S
C1531 C1530 1.392 . S
N1532 Co1476 2.257 . S
N1532 C1529 1.391 . S
N1532 C1533 1.388 . S
C1533 H1504 0.919 1_556 S
C1533 C1528 1.391 . S
C1533 N1532 1.388 . S
Co1534 O1536 2.143 . S
Co1534 O1542 2.074 . S
Co1534 O1545 2.093 . S
Co1534 O1558 2.097 . S
Co1534 N1575 2.151 . S
Co1534 N1583 2.214 1_455 S
Co1535 O1536 2.160 . S
Co1535 O1541 2.058 . S
Co1535 O1551 2.057 . S
Co1535 O1566 2.037 . S
Co1535 N1570 2.145 . S
Co1535 N1591 2.257 . S
O1536 Co1534 2.143 . S
O1536 Co1535 2.160 . S
C1537 O1538 1.278 . S
C1537 O1545 1.224 . S
O1538 C1537 1.278 . S
C1539 O1540 1.245 . S
C1539 O1551 1.232 . S
O1540 C1539 1.245 . S
O1541 Co1535 2.058 . S
O1541 C1567 1.269 . S
O1542 Co1534 2.074 . S
O1542 C1567 1.257 . S
H1543 C1568 0.930 . S
H1544 C1574 0.930 . S
O1545 Co1534 2.093 . S
O1545 C1537 1.224 . S
H1546 C1578 0.929 . S
H1547 C1580 0.930 . S
H1548 C1581 0.930 . S
H1549 C1579 0.929 . S
H1550 C1582 0.928 . S
O1551 Co1535 2.057 . S
O1551 C1539 1.232 . S
H1552 C1571 0.929 . S
H1553 C1572 0.929 . S
H1554 C1584 0.931 . S
H1555 C1576 0.929 . S
H1556 C1585 0.930 . S
H1557 C1577 0.931 . S
O1558 Co1534 2.097 . S
O1558 C1586 1.214 . S
H1559 C1587 0.929 . S
H1560 C1588 0.929 . S
H1561 C1589 0.930 . S
H1562 C1590 0.929 . S
H1563 C1592 0.930 . S
H1564 C1569 0.930 . S
H1565 C1573 0.930 . S
O1566 Co1535 2.037 . S
O1566 C1586 1.234 . S
C1567 O1541 1.269 . S
C1567 O1542 1.257 . S
C1568 H1543 0.930 . S
C1568 C1571 1.388 . S
C1568 C1573 1.418 . S
C1569 H1564 0.930 . S
C1569 C1572 1.404 . S
C1569 C1573 1.353 . S
N1570 Co1535 2.145 . S
N1570 C1571 1.397 . S
N1570 C1572 1.334 . S
C1571 H1552 0.929 . S
C1571 C1568 1.388 . S
C1571 N1570 1.397 . S
C1572 H1553 0.929 . S
C1572 C1569 1.404 . S
C1572 N1570 1.334 . S
C1573 H1565 0.930 . S
C1573 C1568 1.418 . S
C1573 C1569 1.353 . S
C1574 H1544 0.930 . S
C1574 N1575 1.330 . S
C1574 C1576 1.446 . S
N1575 Co1534 2.151 . S
N1575 C1574 1.330 . S
N1575 C1579 1.418 . S
C1576 H1555 0.929 . S
C1576 C1574 1.446 . S
C1576 C1577 1.332 . S
C1577 H1557 0.931 . S
C1577 C1576 1.332 . S
C1577 C1578 1.267 . S
C1578 H1546 0.929 . S
C1578 C1577 1.267 . S
C1578 C1579 1.251 . S
C1579 H1549 0.929 . S
C1579 N1575 1.418 . S
C1579 C1578 1.251 . S
C1580 H1547 0.930 . S
C1580 C1582 1.406 . S
C1580 C1585 1.261 . S
C1581 H1548 0.930 . S
C1581 N1583 1.325 . S
C1581 C1584 1.357 . S
C1582 H1550 0.928 . S
C1582 C1580 1.406 . S
C1582 N1583 1.261 . S
N1583 Co1534 2.214 1_655 S
N1583 C1581 1.325 . S
N1583 C1582 1.261 . S
C1584 H1554 0.931 . S
C1584 C1581 1.357 . S
C1584 C1585 1.312 . S
C1585 H1556 0.930 . S
C1585 C1580 1.261 . S
C1585 C1584 1.312 . S
C1586 O1558 1.214 . S
C1586 O1566 1.234 . S
C1587 H1559 0.929 . S
C1587 C1590 1.391 . S
C1587 C1592 1.391 . S
C1588 H1560 0.929 . S
C1588 C1589 1.390 . S
C1588 N1591 1.391 . S
C1589 H1561 0.930 . S
C1589 C1588 1.390 . S
C1589 C1590 1.392 . S
C1590 H1562 0.929 . S
C1590 C1587 1.391 . S
C1590 C1589 1.392 . S
N1591 Co1535 2.257 . S
N1591 C1588 1.391 . S
N1591 C1592 1.388 . S
C1592 H1563 0.930 . S
C1592 C1587 1.391 . S
C1592 N1591 1.388 . S
Co1593 O1595 2.143 . S
Co1593 O1601 2.074 1_655 S
Co1593 O1604 2.093 . S
Co1593 O1617 2.097 . S
Co1593 N1634 2.151 1_655 S
Co1593 N1642 2.214 . S
Co1594 O1595 2.160 . S
Co1594 O1600 2.058 1_655 S
Co1594 O1610 2.057 . S
Co1594 O1625 2.037 . S
Co1594 N1629 2.145 . S
Co1594 N1650 2.257 . S
O1595 Co1593 2.143 . S
O1595 Co1594 2.160 . S
C1596 O1597 1.278 . S
C1596 O1604 1.224 . S
O1597 C1596 1.278 . S
C1598 O1599 1.245 . S
C1598 O1610 1.232 . S
O1599 C1598 1.245 . S
O1600 Co1594 2.058 1_455 S
O1600 C1626 1.269 . S
O1601 Co1593 2.074 1_455 S
O1601 C1626 1.257 . S
H1602 C1627 0.930 . S
H1603 C1633 0.930 1_655 S
O1604 Co1593 2.093 . S
O1604 C1596 1.224 . S
H1605 C1637 0.929 . S
H1606 C1639 0.928 1_455 S
H1607 C1640 0.930 . S
H1608 C1638 0.929 . S
H1609 C1641 0.928 . S
O1610 Co1594 2.057 . S
O1610 C1598 1.232 . S
H1611 C1630 0.929 . S
H1612 C1631 0.929 . S
H1613 C1643 0.931 . S
H1614 C1635 0.929 . S
H1615 C1644 0.927 1_455 S
H1616 C1636 0.931 . S
O1617 Co1593 2.097 . S
O1617 C1645 1.214 . S
H1618 C1646 0.929 . S
H1619 C1647 0.929 . S
H1620 C1648 0.930 . S
H1621 C1649 0.929 . S
H1622 C1651 0.930 . S
H1623 C1628 0.930 . S
H1624 C1632 0.930 . S
O1625 Co1594 2.037 . S
O1625 C1645 1.234 . S
C1626 O1600 1.269 . S
C1626 O1601 1.257 . S
C1627 H1602 0.930 . S
C1627 C1630 1.388 . S
C1627 C1632 1.418 . S
C1628 H1623 0.930 . S
C1628 C1631 1.404 . S
C1628 C1632 1.353 . S
N1629 Co1594 2.145 . S
N1629 C1630 1.397 . S
N1629 C1631 1.334 . S
C1630 H1611 0.929 . S
C1630 C1627 1.388 . S
C1630 N1629 1.397 . S
C1631 H1612 0.929 . S
C1631 C1628 1.404 . S
C1631 N1629 1.334 . S
C1632 H1624 0.930 . S
C1632 C1627 1.418 . S
C1632 C1628 1.353 . S
C1633 H1603 0.930 1_455 S
C1633 N1634 1.330 . S
C1633 C1635 1.446 . S
N1634 Co1593 2.151 1_455 S
N1634 C1633 1.330 . S
N1634 C1638 1.418 . S
C1635 H1614 0.929 . S
C1635 C1633 1.446 . S
C1635 C1636 1.332 . S
C1636 H1616 0.931 . S
C1636 C1635 1.332 . S
C1636 C1637 1.267 . S
C1637 H1605 0.929 . S
C1637 C1636 1.267 . S
C1637 C1638 1.251 . S
C1638 H1608 0.929 . S
C1638 N1634 1.418 . S
C1638 C1637 1.251 . S
C1639 H1606 0.928 1_655 S
C1639 C1641 1.407 . S
C1639 C1644 1.260 . S
C1640 H1607 0.930 . S
C1640 N1642 1.325 . S
C1640 C1643 1.357 . S
C1641 H1609 0.928 . S
C1641 C1639 1.407 . S
C1641 N1642 1.261 . S
N1642 Co1593 2.214 . S
N1642 C1640 1.325 . S
N1642 C1641 1.261 . S
C1643 H1613 0.931 . S
C1643 C1640 1.357 . S
C1643 C1644 1.316 . S
C1644 H1615 0.927 1_655 S
C1644 C1639 1.260 . S
C1644 C1643 1.316 . S
C1645 O1617 1.214 . S
C1645 O1625 1.234 . S
C1646 H1618 0.929 . S
C1646 C1649 1.391 . S
C1646 C1651 1.391 . S
C1647 H1619 0.929 . S
C1647 C1648 1.390 . S
C1647 N1650 1.391 . S
C1648 H1620 0.930 . S
C1648 C1647 1.390 . S
C1648 C1649 1.392 . S
C1649 H1621 0.929 . S
C1649 C1646 1.391 . S
C1649 C1648 1.392 . S
N1650 Co1594 2.257 . S
N1650 C1647 1.391 . S
N1650 C1651 1.388 . S
C1651 H1622 0.930 . S
C1651 C1646 1.391 . S
C1651 N1650 1.388 . S
Co1652 O1654 2.143 . S
Co1652 O1660 2.074 . S
Co1652 O1663 2.093 . S
Co1652 O1676 2.097 . S
Co1652 N1693 2.151 . S
Co1652 N1701 2.214 . S
Co1653 O1654 2.160 . S
Co1653 O1659 2.058 . S
Co1653 O1669 2.057 . S
Co1653 O1684 2.037 . S
Co1653 N1688 2.145 . S
Co1653 N1709 2.257 . S
O1654 Co1652 2.143 . S
O1654 Co1653 2.160 . S
C1655 O1656 1.278 . S
C1655 O1663 1.224 . S
O1656 C1655 1.278 . S
C1657 O1658 1.245 . S
C1657 O1669 1.232 . S
O1658 C1657 1.245 . S
O1659 Co1653 2.058 . S
O1659 C1685 1.269 . S
O1660 Co1652 2.074 . S
O1660 C1685 1.257 . S
H1661 C1686 0.930 . S
H1662 C1692 0.930 . S
O1663 Co1652 2.093 . S
O1663 C1655 1.224 . S
H1664 C1696 0.929 . S
H1665 C1698 0.930 . S
H1666 C1699 0.930 . S
H1667 C1697 0.929 . S
H1668 C1700 0.928 . S
O1669 Co1653 2.057 . S
O1669 C1657 1.232 . S
H1670 C1689 0.929 . S
H1671 C1690 0.929 . S
H1672 C1702 0.931 . S
H1673 C1694 0.929 . S
H1674 C1703 0.930 . S
H1675 C1695 0.931 . S
O1676 Co1652 2.097 . S
O1676 C1704 1.214 . S
H1677 C1705 0.929 . S
H1678 C1706 0.929 . S
H1679 C1707 0.930 . S
H1680 C1708 0.929 . S
H1681 C1710 0.930 . S
H1682 C1687 0.930 . S
H1683 C1691 0.930 . S
O1684 Co1653 2.037 . S
O1684 C1704 1.234 . S
C1685 O1659 1.269 . S
C1685 O1660 1.257 . S
C1686 H1661 0.930 . S
C1686 C1689 1.388 . S
C1686 C1691 1.418 . S
C1687 H1682 0.930 . S
C1687 C1690 1.404 . S
C1687 C1691 1.353 . S
N1688 Co1653 2.145 . S
N1688 C1689 1.397 . S
N1688 C1690 1.334 . S
C1689 H1670 0.929 . S
C1689 C1686 1.388 . S
C1689 N1688 1.397 . S
C1690 H1671 0.929 . S
C1690 C1687 1.404 . S
C1690 N1688 1.334 . S
C1691 H1683 0.930 . S
C1691 C1686 1.418 . S
C1691 C1687 1.353 . S
C1692 H1662 0.930 . S
C1692 N1693 1.330 . S
C1692 C1694 1.446 . S
N1693 Co1652 2.151 . S
N1693 C1692 1.330 . S
N1693 C1697 1.418 . S
C1694 H1673 0.929 . S
C1694 C1692 1.446 . S
C1694 C1695 1.332 . S
C1695 H1675 0.931 . S
C1695 C1694 1.332 . S
C1695 C1696 1.267 . S
C1696 H1664 0.929 . S
C1696 C1695 1.267 . S
C1696 C1697 1.251 . S
C1697 H1667 0.929 . S
C1697 N1693 1.418 . S
C1697 C1696 1.251 . S
C1698 H1665 0.930 . S
C1698 C1700 1.406 . S
C1698 C1703 1.261 . S
C1699 H1666 0.930 . S
C1699 N1701 1.325 . S
C1699 C1702 1.357 . S
C1700 H1668 0.928 . S
C1700 C1698 1.406 . S
C1700 N1701 1.261 . S
N1701 Co1652 2.214 . S
N1701 C1699 1.325 . S
N1701 C1700 1.261 . S
C1702 H1672 0.931 . S
C1702 C1699 1.357 . S
C1702 C1703 1.312 . S
C1703 H1674 0.930 . S
C1703 C1698 1.261 . S
C1703 C1702 1.312 . S
C1704 O1676 1.214 . S
C1704 O1684 1.234 . S
C1705 H1677 0.929 . S
C1705 C1708 1.391 . S
C1705 C1710 1.391 . S
C1706 H1678 0.929 . S
C1706 C1707 1.390 . S
C1706 N1709 1.391 . S
C1707 H1679 0.930 . S
C1707 C1706 1.390 . S
C1707 C1708 1.392 . S
C1708 H1680 0.929 . S
C1708 C1705 1.391 . S
C1708 C1707 1.392 . S
N1709 Co1653 2.257 . S
N1709 C1706 1.391 . S
N1709 C1710 1.388 . S
C1710 H1681 0.930 . S
C1710 C1705 1.391 . S
C1710 N1709 1.388 . S
Co1711 O1713 2.143 . S
Co1711 O1719 2.074 1_655 S
Co1711 O1722 2.093 1_554 S
Co1711 O1735 2.097 . S
Co1711 N1752 2.151 1_654 S
Co1711 N1760 2.214 . S
Co1712 O1713 2.160 . S
Co1712 O1718 2.058 1_655 S
Co1712 O1728 2.057 . S
Co1712 O1743 2.037 . S
Co1712 N1747 2.145 . S
Co1712 N1768 2.257 . S
O1713 Co1711 2.143 . S
O1713 Co1712 2.160 . S
C1714 O1715 1.278 . S
C1714 O1722 1.224 . S
O1715 C1714 1.278 . S
C1716 O1717 1.245 1_554 S
C1716 O1728 1.232 . S
O1717 C1716 1.245 1_556 S
O1718 Co1712 2.058 1_455 S
O1718 C1744 1.269 . S
O1719 Co1711 2.074 1_455 S
O1719 C1744 1.257 . S
H1720 C1745 0.930 . S
H1721 C1751 0.930 1_655 S
O1722 Co1711 2.093 1_556 S
O1722 C1714 1.224 . S
H1723 C1755 0.929 . S
H1724 C1757 0.928 1_455 S
H1725 C1758 0.930 . S
H1726 C1756 0.929 . S
H1727 C1759 0.928 . S
O1728 Co1712 2.057 . S
O1728 C1716 1.232 . S
H1729 C1748 0.929 . S
H1730 C1749 0.929 . S
H1731 C1761 0.931 . S
H1732 C1753 0.929 . S
H1733 C1762 0.927 1_455 S
H1734 C1754 0.931 . S
O1735 Co1711 2.097 . S
O1735 C1763 1.214 . S
H1736 C1764 0.929 1_556 S
H1737 C1765 0.929 . S
H1738 C1766 0.930 . S
H1739 C1767 0.929 . S
H1740 C1769 0.919 1_556 S
H1741 C1746 0.930 . S
H1742 C1750 0.930 . S
O1743 Co1712 2.037 . S
O1743 C1763 1.234 . S
C1744 O1718 1.269 . S
C1744 O1719 1.257 . S
C1745 H1720 0.930 . S
C1745 C1748 1.388 . S
C1745 C1750 1.418 . S
C1746 H1741 0.930 . S
C1746 C1749 1.404 . S
C1746 C1750 1.353 . S
N1747 Co1712 2.145 . S
N1747 C1748 1.397 . S
N1747 C1749 1.334 . S
C1748 H1729 0.929 . S
C1748 C1745 1.388 . S
C1748 N1747 1.397 . S
C1749 H1730 0.929 . S
C1749 C1746 1.404 . S
C1749 N1747 1.334 . S
C1750 H1742 0.930 . S
C1750 C1745 1.418 . S
C1750 C1746 1.353 . S
C1751 H1721 0.930 1_455 S
C1751 N1752 1.330 . S
C1751 C1753 1.446 . S
N1752 Co1711 2.151 1_456 S
N1752 C1751 1.330 . S
N1752 C1756 1.418 . S
C1753 H1732 0.929 . S
C1753 C1751 1.446 . S
C1753 C1754 1.332 . S
C1754 H1734 0.931 . S
C1754 C1753 1.332 . S
C1754 C1755 1.267 . S
C1755 H1723 0.929 . S
C1755 C1754 1.267 . S
C1755 C1756 1.251 . S
C1756 H1726 0.929 . S
C1756 N1752 1.418 . S
C1756 C1755 1.251 . S
C1757 H1724 0.928 1_655 S
C1757 C1759 1.407 . S
C1757 C1762 1.260 1_556 S
C1758 H1725 0.930 . S
C1758 N1760 1.325 . S
C1758 C1761 1.357 . S
C1759 H1727 0.928 . S
C1759 C1757 1.407 . S
C1759 N1760 1.261 1_556 S
N1760 Co1711 2.214 . S
N1760 C1758 1.325 . S
N1760 C1759 1.261 1_554 S
C1761 H1731 0.931 . S
C1761 C1758 1.357 . S
C1761 C1762 1.316 . S
C1762 H1733 0.927 1_655 S
C1762 C1757 1.260 1_554 S
C1762 C1761 1.316 . S
C1763 O1735 1.214 . S
C1763 O1743 1.234 . S
C1764 H1736 0.929 1_554 S
C1764 C1767 1.391 . S
C1764 C1769 1.391 . S
C1765 H1737 0.929 . S
C1765 C1766 1.390 . S
C1765 N1768 1.391 . S
C1766 H1738 0.930 . S
C1766 C1765 1.390 . S
C1766 C1767 1.392 . S
C1767 H1739 0.929 . S
C1767 C1764 1.391 . S
C1767 C1766 1.392 . S
N1768 Co1712 2.257 . S
N1768 C1765 1.391 . S
N1768 C1769 1.388 . S
C1769 H1740 0.919 1_554 S
C1769 C1764 1.391 . S
C1769 N1768 1.388 . S
Co1770 O1772 2.143 . S
Co1770 O1778 2.074 . S
Co1770 O1781 2.093 . S
Co1770 O1794 2.097 . S
Co1770 N1811 2.151 . S
Co1770 N1819 2.214 1_455 S
Co1771 O1772 2.160 . S
Co1771 O1777 2.058 . S
Co1771 O1787 2.057 . S
Co1771 O1802 2.037 . S
Co1771 N1806 2.145 . S
Co1771 N1827 2.257 . S
O1772 Co1770 2.143 . S
O1772 Co1771 2.160 . S
C1773 O1774 1.278 . S
C1773 O1781 1.224 . S
O1774 C1773 1.278 . S
C1775 O1776 1.245 . S
C1775 O1787 1.232 . S
O1776 C1775 1.245 . S
O1777 Co1771 2.058 . S
O1777 C1803 1.269 . S
O1778 Co1770 2.074 . S
O1778 C1803 1.257 . S
H1779 C1804 0.930 . S
H1780 C1810 0.930 . S
O1781 Co1770 2.093 . S
O1781 C1773 1.224 . S
H1782 C1814 0.929 . S
H1783 C1816 0.930 . S
H1784 C1817 0.930 . S
H1785 C1815 0.929 . S
H1786 C1818 0.928 . S
O1787 Co1771 2.057 . S
O1787 C1775 1.232 . S
H1788 C1807 0.929 . S
H1789 C1808 0.929 . S
H1790 C1820 0.931 . S
H1791 C1812 0.929 . S
H1792 C1821 0.930 . S
H1793 C1813 0.931 . S
O1794 Co1770 2.097 . S
O1794 C1822 1.214 . S
H1795 C1823 0.929 . S
H1796 C1824 0.929 . S
H1797 C1825 0.930 . S
H1798 C1826 0.929 . S
H1799 C1828 0.930 . S
H1800 C1805 0.930 1_554 S
H1801 C1809 0.930 . S
O1802 Co1771 2.037 . S
O1802 C1822 1.234 . S
C1803 O1777 1.269 . S
C1803 O1778 1.257 . S
C1804 H1779 0.930 . S
C1804 C1807 1.388 1_554 S
C1804 C1809 1.418 . S
C1805 H1800 0.930 1_556 S
C1805 C1808 1.404 . S
C1805 C1809 1.353 1_556 S
N1806 Co1771 2.145 . S
N1806 C1807 1.397 . S
N1806 C1808 1.334 . S
C1807 H1788 0.929 . S
C1807 C1804 1.388 1_556 S
C1807 N1806 1.397 . S
C1808 H1789 0.929 . S
C1808 C1805 1.404 . S
C1808 N1806 1.334 . S
C1809 H1801 0.930 . S
C1809 C1804 1.418 . S
C1809 C1805 1.353 1_554 S
C1810 H1780 0.930 . S
C1810 N1811 1.330 . S
C1810 C1812 1.446 . S
N1811 Co1770 2.151 . S
N1811 C1810 1.330 . S
N1811 C1815 1.418 . S
C1812 H1791 0.929 . S
C1812 C1810 1.446 . S
C1812 C1813 1.332 . S
C1813 H1793 0.931 . S
C1813 C1812 1.332 . S
C1813 C1814 1.267 . S
C1814 H1782 0.929 . S
C1814 C1813 1.267 . S
C1814 C1815 1.251 . S
C1815 H1785 0.929 . S
C1815 N1811 1.418 . S
C1815 C1814 1.251 . S
C1816 H1783 0.930 . S
C1816 C1818 1.406 . S
C1816 C1821 1.261 . S
C1817 H1784 0.930 . S
C1817 N1819 1.325 . S
C1817 C1820 1.357 . S
C1818 H1786 0.928 . S
C1818 C1816 1.406 . S
C1818 N1819 1.261 . S
N1819 Co1770 2.214 1_655 S
N1819 C1817 1.325 . S
N1819 C1818 1.261 . S
C1820 H1790 0.931 . S
C1820 C1817 1.357 . S
C1820 C1821 1.312 . S
C1821 H1792 0.930 . S
C1821 C1816 1.261 . S
C1821 C1820 1.312 . S
C1822 O1794 1.214 . S
C1822 O1802 1.234 . S
C1823 H1795 0.929 . S
C1823 C1826 1.391 . S
C1823 C1828 1.391 . S
C1824 H1796 0.929 . S
C1824 C1825 1.390 . S
C1824 N1827 1.391 . S
C1825 H1797 0.930 . S
C1825 C1824 1.390 . S
C1825 C1826 1.392 . S
C1826 H1798 0.929 . S
C1826 C1823 1.391 . S
C1826 C1825 1.392 . S
N1827 Co1771 2.257 . S
N1827 C1824 1.391 . S
N1827 C1828 1.388 . S
C1828 H1799 0.930 . S
C1828 C1823 1.391 . S
C1828 N1827 1.388 . S
Co1829 O1831 2.143 . S
Co1829 O1837 2.074 . S
Co1829 O1840 2.093 . S
Co1829 O1853 2.097 . S
Co1829 N1870 2.151 . S
Co1829 N1878 2.214 . S
Co1830 O1831 2.160 . S
Co1830 O1836 2.058 . S
Co1830 O1846 2.057 . S
Co1830 O1861 2.037 . S
Co1830 N1865 2.145 . S
Co1830 N1886 2.257 . S
O1831 Co1829 2.143 . S
O1831 Co1830 2.160 . S
C1832 O1833 1.278 . S
C1832 O1840 1.224 . S
O1833 C1832 1.278 . S
C1834 O1835 1.245 . S
C1834 O1846 1.232 . S
O1835 C1834 1.245 . S
O1836 Co1830 2.058 . S
O1836 C1862 1.269 . S
O1837 Co1829 2.074 . S
O1837 C1862 1.257 . S
H1838 C1863 0.930 . S
H1839 C1869 0.930 . S
O1840 Co1829 2.093 . S
O1840 C1832 1.224 . S
H1841 C1873 0.929 . S
H1842 C1875 0.930 . S
H1843 C1876 0.930 . S
H1844 C1874 0.929 . S
H1845 C1877 0.928 . S
O1846 Co1830 2.057 . S
O1846 C1834 1.232 . S
H1847 C1866 0.929 . S
H1848 C1867 0.929 . S
H1849 C1879 0.931 . S
H1850 C1871 0.929 . S
H1851 C1880 0.930 . S
H1852 C1872 0.931 . S
O1853 Co1829 2.097 . S
O1853 C1881 1.214 . S
H1854 C1882 0.929 . S
H1855 C1883 0.929 . S
H1856 C1884 0.930 . S
H1857 C1885 0.929 . S
H1858 C1887 0.930 . S
H1859 C1864 0.930 . S
H1860 C1868 0.930 . S
O1861 Co1830 2.037 . S
O1861 C1881 1.234 . S
C1862 O1836 1.269 . S
C1862 O1837 1.257 . S
C1863 H1838 0.930 . S
C1863 C1866 1.388 . S
C1863 C1868 1.418 . S
C1864 H1859 0.930 . S
C1864 C1867 1.404 . S
C1864 C1868 1.353 . S
N1865 Co1830 2.145 . S
N1865 C1866 1.397 . S
N1865 C1867 1.334 . S
C1866 H1847 0.929 . S
C1866 C1863 1.388 . S
C1866 N1865 1.397 . S
C1867 H1848 0.929 . S
C1867 C1864 1.404 . S
C1867 N1865 1.334 . S
C1868 H1860 0.930 . S
C1868 C1863 1.418 . S
C1868 C1864 1.353 . S
C1869 H1839 0.930 . S
C1869 N1870 1.330 . S
C1869 C1871 1.446 . S
N1870 Co1829 2.151 . S
N1870 C1869 1.330 . S
N1870 C1874 1.418 . S
C1871 H1850 0.929 . S
C1871 C1869 1.446 . S
C1871 C1872 1.332 . S
C1872 H1852 0.931 . S
C1872 C1871 1.332 . S
C1872 C1873 1.267 . S
C1873 H1841 0.929 . S
C1873 C1872 1.267 . S
C1873 C1874 1.251 . S
C1874 H1844 0.929 . S
C1874 N1870 1.418 . S
C1874 C1873 1.251 . S
C1875 H1842 0.930 . S
C1875 C1877 1.406 . S
C1875 C1880 1.261 . S
C1876 H1843 0.930 . S
C1876 N1878 1.325 . S
C1876 C1879 1.357 . S
C1877 H1845 0.928 . S
C1877 C1875 1.406 . S
C1877 N1878 1.261 . S
N1878 Co1829 2.214 . S
N1878 C1876 1.325 . S
N1878 C1877 1.261 . S
C1879 H1849 0.931 . S
C1879 C1876 1.357 . S
C1879 C1880 1.312 . S
C1880 H1851 0.930 . S
C1880 C1875 1.261 . S
C1880 C1879 1.312 . S
C1881 O1853 1.214 . S
C1881 O1861 1.234 . S
C1882 H1854 0.929 . S
C1882 C1885 1.391 . S
C1882 C1887 1.391 . S
C1883 H1855 0.929 . S
C1883 C1884 1.390 . S
C1883 N1886 1.391 . S
C1884 H1856 0.930 . S
C1884 C1883 1.390 . S
C1884 C1885 1.392 . S
C1885 H1857 0.929 . S
C1885 C1882 1.391 . S
C1885 C1884 1.392 . S
N1886 Co1830 2.257 . S
N1886 C1883 1.391 . S
N1886 C1887 1.388 . S
C1887 H1858 0.930 . S
C1887 C1882 1.391 . S
C1887 N1886 1.388 . S
C583 C33 1.664 . S
C92 C1586 1.664 . S
C701 C151 1.664 . S
C1468 C210 1.664 . S
C269 C937 1.664 . S
C1704 C328 1.664 . S
C387 C819 1.664 . S
C1822 C446 1.664 . S
C111 C505 1.664 . S
C564 C1114 1.664 . S
C229 C623 1.664 . S
C682 C996 1.664 . S
C741 C465 1.664 . S
C1232 C800 1.664 . S
C859 C347 1.664 . S
C1350 C918 1.664 . S
C1527 C977 1.664 . S
C642 C1036 1.664 . S
C1095 C1645 1.664 . S
C524 C1154 1.664 . S
C1881 C1213 1.664 . S
C1272 C760 1.664 . S
C1763 C1331 1.664 . S
C878 C1390 1.664 . S
C1055 C1449 1.664 . S
C1508 C170 1.664 . S
C1567 C1173 1.664 . S
C1626 C52 1.664 . S
C1409 C1685 1.664 . S
C1744 C288 1.664 . S
C1803 C1291 1.664 . S
C1862 C406 1.664 . S
C1421 C5 1.799 . S
C64 C536 1.799 1_665 S
C123 C1539 1.799 . S
C182 C654 1.799 1_544 S
C241 C1657 1.799 . S
C300 C772 1.799 1_565 S
C1775 C359 1.799 . S
C418 C890 1.799 1_646 S
C477 C949 1.799 . S
C595 C1067 1.799 . S
C1185 C713 1.799 . S
C1303 C831 1.799 . S
C1008 C1480 1.799 1_554 S
C1598 C1126 1.799 1_655 S
C1244 C1716 1.799 1_456 S
C1834 C1362 1.799 . S
C1242 C3 1.595 . S
C1301 C62 1.595 . S
C121 C1360 1.595 . S
C1183 C180 1.595 . S
C1124 C239 1.595 . S
C947 C298 1.595 . S
C357 C1006 1.595 . S
C1065 C416 1.595 . S
C1714 C475 1.595 . S
C1773 C534 1.595 . S
C1832 C593 1.595 . S
C652 C1655 1.595 . S
C1596 C711 1.595 . S
C1419 C770 1.595 . S
C1478 C829 1.595 . S
C1537 C888 1.595 . S
