# Generated by pormake.
# Topology uoc, (4)-cn, num edge types: 1
# Building blocks:
#     Node 0, Type 0, BuildingBlock: ESEHIV_clean_sbu_0, # of connection points: 4
#     Node 1, Type 0, BuildingBlock: ESEHIV_clean_sbu_0, # of connection points: 4
#     Node 2, Type 0, BuildingBlock: ESEHIV_clean_sbu_0, # of connection points: 4
#     Node 3, Type 0, BuildingBlock: ESEHIV_clean_sbu_0, # of connection points: 4
#     Node 4, Type 0, BuildingBlock: ESEHIV_clean_sbu_0, # of connection points: 4
#     Node 5, Type 0, BuildingBlock: ESEHIV_clean_sbu_0, # of connection points: 4
#     Node 6, Type 0, BuildingBlock: ESEHIV_clean_sbu_0, # of connection points: 4
#     Node 7, Type 0, BuildingBlock: ESEHIV_clean_sbu_0, # of connection points: 4
#     Edge 8, Type (0, 0), BuildingBlock: XIVTED_clean_linker_0, # of connection points: 2
#     Edge 9, Type (0, 0), BuildingBlock: XIVTED_clean_linker_0, # of connection points: 2
#     Edge 10, Type (0, 0), BuildingBlock: XIVTED_clean_linker_0, # of connection points: 2
#     Edge 11, Type (0, 0), BuildingBlock: XIVTED_clean_linker_0, # of connection points: 2
#     Edge 12, Type (0, 0), BuildingBlock: XIVTED_clean_linker_0, # of connection points: 2
#     Edge 13, Type (0, 0), BuildingBlock: XIVTED_clean_linker_0, # of connection points: 2
#     Edge 14, Type (0, 0), BuildingBlock: XIVTED_clean_linker_0, # of connection points: 2
#     Edge 15, Type (0, 0), BuildingBlock: XIVTED_clean_linker_0, # of connection points: 2
#     Edge 16, Type (0, 0), BuildingBlock: XIVTED_clean_linker_0, # of connection points: 2
#     Edge 17, Type (0, 0), BuildingBlock: XIVTED_clean_linker_0, # of connection points: 2
#     Edge 18, Type (0, 0), BuildingBlock: XIVTED_clean_linker_0, # of connection points: 2
#     Edge 19, Type (0, 0), BuildingBlock: XIVTED_clean_linker_0, # of connection points: 2
#     Edge 20, Type (0, 0), BuildingBlock: XIVTED_clean_linker_0, # of connection points: 2
#     Edge 21, Type (0, 0), BuildingBlock: XIVTED_clean_linker_0, # of connection points: 2
#     Edge 22, Type (0, 0), BuildingBlock: XIVTED_clean_linker_0, # of connection points: 2
#     Edge 23, Type (0, 0), BuildingBlock: XIVTED_clean_linker_0, # of connection points: 2
# Relax obj value: 0.054
# Max RMSD: 0.264
# Mean RMSD: 0.264
data_MOF--net-uoc--node1-ESEHIV_clean_sbu_0--edge1-XIVTED_clean_linker_0
_symmetry_space_group_name_H-M    P1
_symmetry_Int_Tables_number       1
_symmetry_cell_setting            triclinic
loop_
_symmetry_equiv_pos_as_xyz
'x, y, z'
_cell_length_a     33.319972
_cell_length_b     33.241562
_cell_length_c     51.742762
_cell_angle_alpha  89.975663
_cell_angle_beta   90.154685
_cell_angle_gamma 90.865208
loop_
_atom_site_label
_atom_site_type_symbol
_atom_site_fract_x
_atom_site_fract_y
_atom_site_fract_z
_atom_type_partial_charge
Cu0 Cu 0.09032 0.26069 0.15418 0.0
N1 N 0.04936 0.22329 0.16034 0.0
N2 N 0.01657 0.16467 0.16486 0.0
C3 C 0.05014 0.18335 0.15609 0.0
C4 C 0.99384 0.19404 0.1749 0.0
C5 C 0.01412 0.2302 0.17201 0.0
O6 O 0.1263 0.23772 0.1288 0.0
C7 C 0.14361 0.29819 0.19114 0.0
O8 O 0.15779 0.31907 0.17155 0.0
H9 H 0.0755 0.16814 0.14773 0.0
H10 H 1.0044 0.25938 0.17854 0.0
N11 N 0.06789 0.30675 0.13996 0.0
N12 N 0.05012 0.3702 0.13255 0.0
C13 C 0.06593 0.34423 0.14977 0.0
C14 C 0.05246 0.30905 0.11598 0.0
C15 C 0.04159 0.34814 0.11131 0.0
C16 C 0.14865 0.25926 0.11425 0.0
O17 O 0.15045 0.29835 0.11784 0.0
H18 H 0.07709 0.35257 0.16872 0.0
H19 H 0.05018 0.28408 0.10263 0.0
O20 O 0.11593 0.27209 0.18727 0.0
H21 H 0.96484 0.18964 0.18395 0.0
H22 H 0.02862 0.35951 0.0936 0.0
Cu23 Cu 0.76263 0.58606 0.40739 0.0
N24 N 0.71664 0.55816 0.39648 0.0
N25 N 0.65298 0.53913 0.38991 0.0
C26 C 0.67808 0.56388 0.40318 0.0
C27 C 0.67652 0.51692 0.37454 0.0
C28 C 0.71572 0.52856 0.37873 0.0
O29 O 0.75266 0.61308 0.44002 0.0
C30 C 0.79402 0.60565 0.3592 0.0
O31 O 0.79865 0.5665 0.359 0.0
H32 H 0.66852 0.5863 0.41692 0.0
H33 H 0.74178 0.51628 0.36939 0.0
N34 N 0.80247 0.54855 0.41356 0.0
N35 N 0.86246 0.52014 0.41715 0.0
C36 C 0.84247 0.55443 0.41242 0.0
C37 C 0.79692 0.50946 0.41944 0.0
C38 C 0.83388 0.49179 0.42159 0.0
C39 C 0.73124 0.64406 0.44298 0.0
O40 O 0.715 0.66105 0.42262 0.0
H41 H 0.85649 0.58303 0.40761 0.0
H42 H 0.76796 0.49481 0.42186 0.0
O43 O 0.77946 0.62195 0.37935 0.0
H44 H 0.66607 0.49377 0.36132 0.0
H45 H 0.83928 0.46061 0.42631 0.0
Cu46 Cu 0.42493 0.25956 0.65897 0.0
N47 N 0.45744 0.30127 0.67106 0.0
N48 N 0.48356 0.3629 0.67631 0.0
C49 C 0.45444 0.3404 0.66495 0.0
C50 C 0.50571 0.33676 0.69009 0.0
C51 C 0.48944 0.29871 0.68682 0.0
O52 O 0.39151 0.28055 0.63155 0.0
C53 C 0.37036 0.25747 0.70073 0.0
O54 O 0.36253 0.29439 0.69341 0.0
H55 H 0.43181 0.35189 0.65197 0.0
H56 H 0.50027 0.27105 0.69516 0.0
N57 N 0.45768 0.22074 0.64479 0.0
N58 N 0.48672 0.16226 0.63633 0.0
C59 C 0.46132 0.18205 0.65195 0.0
C60 C 0.48161 0.22571 0.62413 0.0
C61 C 0.49953 0.18963 0.6188 0.0
C62 C 0.36963 0.25831 0.61711 0.0
O63 O 0.36622 0.2197 0.62224 0.0
H64 H 0.44475 0.16846 0.66775 0.0
H65 H 0.48523 0.25355 0.6135 0.0
O66 O 0.39509 0.23693 0.68774 0.0
H67 H 0.53157 0.34455 0.70186 0.0
H68 H 0.52027 0.18395 0.6032 0.0
Cu69 Cu 0.76552 0.93662 0.90439 0.0
N70 N 0.80998 0.96879 0.8964 0.0
N71 N 0.87258 0.99168 0.8906 0.0
C72 C 0.84893 0.96418 0.90265 0.0
C73 C 0.84757 0.01448 0.87647 0.0
C74 C 0.80903 1.00031 0.88012 0.0
O75 O 0.77538 0.905 0.93532 0.0
C76 C 0.72619 0.87919 0.87005 0.0
O77 O 0.70446 0.86729 0.88986 0.0
H78 H 0.85991 0.94026 0.91482 0.0
H79 H 0.78215 1.01142 0.87097 0.0
N80 N 0.72379 0.97106 0.91233 0.0
N81 N 0.66306 0.99611 0.9194 0.0
C82 C 0.68401 0.96615 0.90842 0.0
C83 C 0.72805 1.00527 0.926 0.0
C84 C 0.69066 0.02078 0.93042 0.0
C85 C 0.80129 0.87768 0.9383 0.0
O86 O 0.82314 0.86658 0.91852 0.0
H87 H 0.67061 0.94041 0.89874 0.0
H88 H 0.75641 0.01744 0.93287 0.0
O89 O 0.75314 0.90624 0.87322 0.0
H90 H 0.85659 0.03926 0.8641 0.0
H91 H 0.68423 0.04784 0.94118 0.0
Cu92 Cu 0.58943 0.76323 0.65355 0.0
N93 N 0.55375 0.72068 0.65959 0.0
N94 N 0.52643 0.65933 0.66385 0.0
C95 C 0.5595 0.68087 0.6571 0.0
C96 C 0.49901 0.68671 0.67085 0.0
C97 C 0.51599 0.72444 0.66826 0.0
O98 O 0.62348 0.75125 0.62419 0.0
C99 C 0.64519 0.80003 0.68957 0.0
O100 O 0.65939 0.82058 0.66983 0.0
H101 H 0.58719 0.668 0.65039 0.0
H102 H 0.50196 0.75276 0.67265 0.0
N103 N 0.55862 0.80657 0.64322 0.0
N104 N 0.53536 0.86802 0.63573 0.0
C105 C 0.56133 0.8458 0.64964 0.0
C106 C 0.53 0.80399 0.6249 0.0
C107 C 0.51558 0.84179 0.62024 0.0
C108 C 0.65004 0.72435 0.62232 0.0
O109 O 0.65911 0.70252 0.64262 0.0
H110 H 0.58281 0.85799 0.66339 0.0
H111 H 0.52095 0.77648 0.61521 0.0
O112 O 0.617 0.77443 0.68596 0.0
H113 H 0.46912 0.67998 0.67792 0.0
H114 H 0.49257 0.84945 0.60635 0.0
Cu115 Cu 0.26773 0.09073 0.91059 0.0
N116 N 0.22864 0.05648 0.89687 0.0
N117 N 0.16915 0.02782 0.88831 0.0
C118 C 0.18981 0.05347 0.90379 0.0
C119 C 0.19608 0.01416 0.87109 0.0
C120 C 0.23281 0.03185 0.87648 0.0
O121 O 0.24433 0.12231 0.93799 0.0
C122 C 0.26812 0.14637 0.86921 0.0
O123 O 0.23035 0.15121 0.87557 0.0
H124 H 0.17668 0.07098 0.91915 0.0
H125 H 0.26044 0.02786 0.86593 0.0
N126 N 0.3083 0.06018 0.92498 0.0
N127 N 0.36848 0.03441 0.93293 0.0
C128 C 0.34616 0.05631 0.91645 0.0
C129 C 0.30647 0.03994 0.94746 0.0
C130 C 0.34363 0.02405 0.95246 0.0
C131 C 0.26465 0.14833 0.95066 0.0
O132 O 0.30179 0.15648 0.94371 0.0
H133 H 0.3575 0.07064 0.89909 0.0
H134 H 0.28018 0.0378 0.95963 0.0
O135 O 0.2897 0.12303 0.88267 0.0
H136 H 0.18958 0.99324 0.85555 0.0
H137 H 0.35185 1.00662 0.96929 0.0
Cu138 Cu 0.93116 0.75844 0.15521 0.0
N139 N 0.95407 0.80484 0.16958 0.0
N140 N 0.97191 0.86865 0.17745 0.0
C141 C 0.95437 0.84287 0.16052 0.0
C142 C 0.98328 0.84593 0.19772 0.0
C143 C 0.97242 0.8066 0.19275 0.0
O144 O 0.90593 0.76977 0.12211 0.0
C145 C 0.87726 0.75301 0.19797 0.0
O146 O 0.87889 0.79251 0.19775 0.0
H147 H 0.94099 0.85163 0.14233 0.0
H148 H 0.9768 0.78105 0.20534 0.0
N149 N 0.97211 0.72239 0.14878 0.0
N150 N 1.00516 0.66499 0.14386 0.0
C151 C 0.97123 0.68226 0.15237 0.0
C152 C 1.00778 0.73087 0.13781 0.0
C153 C 0.02824 0.69549 0.13468 0.0
C154 C 0.87707 0.79372 0.11841 0.0
O155 O 0.86105 0.81205 0.13828 0.0
H156 H 0.94563 0.66594 0.16015 0.0
H157 H 0.01777 0.76064 0.13201 0.0
O158 O 0.89526 0.73349 0.18038 0.0
H159 H 0.99834 0.857 0.21493 0.0
H160 H 0.05764 0.69241 0.12613 0.0
Cu161 Cu 0.26229 0.42374 0.40908 0.0
N162 N 0.3 0.46347 0.40106 0.0
N163 N 0.35789 0.49705 0.39619 0.0
C164 C 0.3393 0.46495 0.40712 0.0
C165 C 0.32918 0.51646 0.38289 0.0
C166 C 0.29346 0.49572 0.38602 0.0
O167 O 0.28408 0.38934 0.43591 0.0
C168 C 0.22222 0.36966 0.37328 0.0
O169 O 0.20049 0.35723 0.39293 0.0
H170 H 0.35424 0.44213 0.41838 0.0
H171 H 0.26483 0.503 0.37743 0.0
N172 N 0.2177 0.44962 0.42222 0.0
N173 N 0.15612 0.47352 0.42763 0.0
C174 C 0.17997 0.45039 0.41291 0.0
C175 C 0.21777 0.47297 0.44342 0.0
C176 C 0.17983 0.4878 0.44682 0.0
C177 C 0.26159 0.36797 0.45048 0.0
O178 O 0.22278 0.36647 0.44603 0.0
H179 H 0.17039 0.43492 0.39551 0.0
H180 H 0.24375 0.47878 0.45552 0.0
O181 O 0.24965 0.39613 0.37685 0.0
H182 H 0.33382 0.54341 0.37146 0.0
H183 H 0.17031 0.50708 0.46243 0.0
H184 H 0.13623 0.18418 0.0936 0.0
H185 H 0.29428 0.21217 0.97879 0.0
H186 H 0.20572 0.29352 0.08279 0.0
H187 H 0.19727 0.12466 0.97709 0.0
H188 H 0.26782 0.23864 1.01942 0.0
H189 H 0.16488 0.1574 0.05381 0.0
C190 C 0.15782 0.20241 0.08302 0.0
C191 C 0.16851 0.24123 0.09153 0.0
C192 C 0.2523 0.21374 1.01007 0.0
C193 C 0.20131 0.21073 0.0459 0.0
C194 C 0.26736 0.19862 0.98689 0.0
C195 C 0.24791 0.16621 0.97446 0.0
C196 C 0.21789 0.19594 1.02111 0.0
C197 C 0.21314 0.14981 0.98589 0.0
C198 C 0.17394 0.1872 0.0602 0.0
C199 C 0.19651 0.26352 0.07691 0.0
N200 N 0.19941 0.16468 1.00863 0.0
N201 N 0.21197 0.24795 0.05483 0.0
H202 H 0.78872 0.68765 0.35088 0.0
H203 H 0.87096 0.67161 0.20557 0.0
H204 H 0.8225 0.57705 0.31363 0.0
H205 H 0.8442 0.78494 0.24191 0.0
H206 H 0.84861 0.63665 0.24448 0.0
H207 H 0.80536 0.72423 0.3109 0.0
C208 C 0.79964 0.67108 0.33438 0.0
C209 C 0.80431 0.62921 0.3357 0.0
C210 C 0.84738 0.66917 0.24395 0.0
C211 C 0.82309 0.67071 0.28994 0.0
C212 C 0.86003 0.68918 0.22164 0.0
C213 C 0.85965 0.73134 0.22043 0.0
C214 C 0.83429 0.69134 0.26539 0.0
C215 C 0.84509 0.7524 0.24195 0.0
C216 C 0.80905 0.69194 0.31155 0.0
C217 C 0.81847 0.6093 0.31365 0.0
N218 N 0.83322 0.73221 0.2636 0.0
N219 N 0.8273 0.63017 0.29181 0.0
H220 H 0.38793 0.33007 0.59378 0.0
H221 H 0.22691 0.30912 0.48042 0.0
H222 H 0.31203 0.22445 0.5855 0.0
H223 H 0.33355 0.3838 0.47438 0.0
H224 H 0.25251 0.28181 0.52118 0.0
H225 H 0.36232 0.35525 0.55263 0.0
C226 C 0.36561 0.3123 0.58343 0.0
C227 C 0.35211 0.27504 0.59312 0.0
C228 C 0.27037 0.30397 0.51081 0.0
C229 C 0.3227 0.3038 0.54596 0.0
C230 C 0.2558 0.31959 0.48758 0.0
C231 C 0.27815 0.34876 0.47396 0.0
C232 C 0.30717 0.3182 0.52074 0.0
C233 C 0.3154 0.36122 0.48414 0.0
C234 C 0.35125 0.32659 0.55984 0.0
C235 C 0.32333 0.25327 0.57874 0.0
N236 N 0.32855 0.34617 0.50704 0.0
N237 N 0.30944 0.26804 0.55591 0.0
H238 H 0.76357 0.90044 0.82488 0.0
H239 H 0.61858 0.76624 0.73486 0.0
H240 H 0.66882 0.82364 0.85465 0.0
H241 H 0.70484 0.85271 0.70528 0.0
H242 H 0.6403 0.78259 0.77877 0.0
H243 H 0.74626 0.87887 0.78114 0.0
C244 C 0.73925 0.87882 0.82228 0.0
C245 C 0.71752 0.86397 0.84359 0.0
C246 C 0.6546 0.7979 0.76269 0.0
C247 C 0.69743 0.83918 0.79327 0.0
C248 C 0.64226 0.78854 0.73755 0.0
C249 C 0.65979 0.80823 0.71624 0.0
C250 C 0.68481 0.82714 0.7667 0.0
C251 C 0.69037 0.83681 0.72105 0.0
C252 C 0.72933 0.86658 0.79722 0.0
C253 C 0.68636 0.83597 0.83888 0.0
N254 N 0.70181 0.84546 0.74574 0.0
N255 N 0.67718 0.8246 0.81424 0.0
H256 H 0.1653 0.31396 0.35787 0.0
H257 H 0.20324 0.3507 0.20673 0.0
H258 H 0.25773 0.3934 0.32792 0.0
H259 H 0.11685 0.26448 0.23645 0.0
H260 H 0.2245 0.3657 0.25099 0.0
H261 H 0.14809 0.29428 0.31361 0.0
C262 C 0.18215 0.32711 0.34203 0.0
C263 C 0.21295 0.35549 0.34669 0.0
C264 C 0.20101 0.34337 0.24783 0.0
C265 C 0.19321 0.33323 0.29587 0.0
C266 C 0.18883 0.33479 0.22253 0.0
C267 C 0.15811 0.30635 0.2178 0.0
C268 C 0.18224 0.32353 0.26865 0.0
C269 C 0.14061 0.28667 0.23912 0.0
C270 C 0.17227 0.31587 0.31673 0.0
C271 C 0.23372 0.37147 0.32532 0.0
N272 N 0.15279 0.29575 0.26357 0.0
N273 N 0.22335 0.36028 0.3009 0.0
H274 H 0.70283 0.66486 0.60912 0.0
H275 H 0.68621 0.709 0.45706 0.0
H276 H 0.63604 0.76299 0.5765 0.0
H277 H 0.75695 0.61341 0.4893 0.0
H278 H 0.6701 0.73102 0.50085 0.0
H279 H 0.72584 0.64749 0.56567 0.0
C280 C 0.69326 0.68298 0.5929 0.0
C281 C 0.66727 0.71533 0.59654 0.0
C282 C 0.68931 0.70533 0.49836 0.0
C283 C 0.69329 0.69542 0.54665 0.0
C284 C 0.69854 0.69273 0.47332 0.0
C285 C 0.72286 0.65918 0.46941 0.0
C286 C 0.70437 0.68418 0.51976 0.0
C287 C 0.73799 0.63938 0.49131 0.0
C288 C 0.70635 0.67299 0.56806 0.0
C289 C 0.6559 0.73769 0.5747 0.0
N290 N 0.72835 0.65204 0.51549 0.0
N291 N 0.66877 0.72718 0.55076 0.0
H292 H 0.31037 0.28866 0.73059 0.0
H293 H 0.33883 0.12974 0.84492 0.0
H294 H 0.39218 0.1894 0.72671 0.0
H295 H 0.23422 0.20418 0.83855 0.0
H296 H 0.36306 0.1568 0.80383 0.0
H297 H 0.28558 0.26284 0.77205 0.0
C298 C 0.32301 0.26138 0.73838 0.0
C299 C 0.35338 0.24115 0.7251 0.0
C300 C 0.33483 0.16726 0.81143 0.0
C301 C 0.32552 0.2118 0.77268 0.0
C302 C 0.32107 0.15202 0.83499 0.0
C303 C 0.28435 0.16465 0.84521 0.0
C304 C 0.31199 0.19571 0.79804 0.0
C305 C 0.26261 0.19349 0.83137 0.0
C306 C 0.30884 0.24667 0.76203 0.0
C307 C 0.36865 0.20593 0.73617 0.0
N308 N 0.27678 0.2081 0.80852 0.0
N309 N 0.35474 0.19255 0.75935 0.0
H310 H 0.90638 0.76382 0.07292 0.0
H311 H 0.76267 0.89603 0.98337 0.0
H312 H 0.81681 0.84384 0.10275 0.0
H313 H 0.85773 0.82272 0.95341 0.0
H314 H 0.77874 0.87313 1.02693 0.0
H315 H 0.88579 0.78109 1.02899 0.0
C316 C 0.88223 0.78489 0.07028 0.0
C317 C 0.86342 0.80251 0.09166 0.0
C318 C 0.796 0.86187 1.01084 0.0
C319 C 0.8397 0.82248 0.04121 0.0
C320 C 0.78679 0.87488 0.98588 0.0
C321 C 0.80899 0.86144 0.96459 0.0
C322 C 0.8277 0.83515 1.0147 0.0
C323 C 0.83984 0.83398 0.96919 0.0
C324 C 0.87053 0.79477 0.04513 0.0
C325 C 0.83228 0.82957 0.08692 0.0
N326 N 0.84838 0.82189 0.99372 0.0
N327 N 0.8215 0.83879 0.06225 0.0
H328 H 0.03862 0.10913 0.12943 0.0
H329 H 0.96741 0.92339 0.21588 0.0
H330 H 0.97603 0.12286 0.20164 0.0
H331 H 0.98633 0.9119 0.13386 0.0
H332 H 0.97683 0.99622 0.2121 0.0
H333 H 0.02597 0.03622 0.13159 0.0
C334 C 0.02223 0.09676 0.14571 0.0
C335 C 1.00831 0.12202 0.16538 0.0
C336 C 0.97878 0.97783 0.19489 0.0
C337 C 0.994 0.03894 0.16806 0.0
C338 C 0.97368 0.93627 0.19708 0.0
C339 C 0.97625 0.91165 0.17516 0.0
C340 C 0.98717 0.99495 0.17066 0.0
C341 C 0.98388 0.92993 0.15117 0.0
C342 C 0.01482 0.05529 0.14685 0.0
C343 C 0.98691 0.10455 0.18594 0.0
N344 N 0.98945 0.97052 0.14957 0.0
N345 N 0.98072 0.06409 0.18686 0.0
H346 H 0.10058 0.42396 0.40537 0.0
H347 H 0.92007 0.57591 0.42865 0.0
H348 H 0.11548 0.54 0.44173 0.0
H349 H 0.90266 0.45209 0.40573 0.0
H350 H 0.99256 0.56568 0.42938 0.0
H351 H 0.02867 0.43621 0.40107 0.0
C352 C 0.08878 0.45214 0.41225 0.0
C353 C 0.11401 0.48092 0.42405 0.0
C354 C 0.97287 0.54075 0.42417 0.0
C355 C 0.0318 0.49506 0.41935 0.0
C356 C 0.9315 0.54665 0.42361 0.0
C357 C 0.90525 0.51476 0.41723 0.0
C358 C 0.98814 0.50275 0.41814 0.0
C359 C 0.92174 0.47733 0.41113 0.0
C360 C 0.0477 0.45902 0.40995 0.0
C361 C 0.09702 0.51676 0.43288 0.0
N362 N 0.96213 0.47237 0.41172 0.0
N363 N 0.05699 0.52281 0.43035 0.0
H364 H 0.42748 0.4189 0.66565 0.0
H365 H 0.58448 0.60347 0.67002 0.0
H366 H 0.55373 0.40498 0.68153 0.0
H367 H 0.45696 0.61652 0.65878 0.0
H368 H 0.57468 0.53049 0.67224 0.0
H369 H 0.43848 0.4912 0.66126 0.0
C370 C 0.45758 0.43099 0.66807 0.0
C371 C 0.48973 0.40574 0.67394 0.0
C372 C 0.54886 0.54935 0.66926 0.0
C373 C 0.50254 0.48879 0.66916 0.0
C374 C 0.55448 0.59101 0.66782 0.0
C375 C 0.52146 0.61621 0.66432 0.0
C376 C 0.50997 0.53276 0.66709 0.0
C377 C 0.48319 0.59836 0.6619 0.0
C378 C 0.46383 0.47237 0.66569 0.0
C379 C 0.52799 0.42331 0.67729 0.0
N380 N 0.47851 0.55779 0.66335 0.0
N381 N 0.53335 0.46375 0.67481 0.0
H382 H 0.60807 0.97471 0.88297 0.0
H383 H 0.42149 0.0285 0.97241 0.0
H384 H 0.62029 0.02532 0.95933 0.0
H385 H 0.41188 0.02266 0.88937 0.0
H386 H 0.49357 0.01705 0.96902 0.0
H387 H 0.53491 0.9822 0.88596 0.0
C388 C 0.59529 0.9872 0.90036 0.0
C389 C 0.62015 0.99966 0.92087 0.0
C390 C 0.47568 0.01821 0.95153 0.0
C391 C 0.53699 1.00801 0.92451 0.0
C392 C 0.43453 0.02444 0.95347 0.0
C393 C 0.41074 0.02656 0.93113 0.0
C394 C 0.49317 0.01353 0.92708 0.0
C395 C 0.4293 0.02162 0.90703 0.0
C396 C 0.55371 0.99167 0.90201 0.0
C397 C 0.60222 0.01589 0.94295 0.0
N398 N 0.46946 0.01517 0.90562 0.0
N399 N 0.56175 0.01943 0.94424 0.0
H400 H 0.04841 0.62603 0.10768 0.0
H401 H 0.03128 0.41095 0.17623 0.0
H402 H 0.9813 0.60729 0.17791 0.0
H403 H 0.05813 0.42691 0.09539 0.0
H404 H 0.02155 0.48389 0.18007 0.0
H405 H 0.0613 0.55392 0.10579 0.0
C406 C 0.03669 0.60677 0.12283 0.0
C407 C 0.01372 0.62266 0.14297 0.0
C408 C 0.02956 0.47132 0.16152 0.0
C409 C 0.02827 0.54003 0.14092 0.0
C410 C 0.03533 0.42985 0.15937 0.0
C411 C 0.04527 0.41293 0.13542 0.0
C412 C 0.03448 0.496 0.13966 0.0
C413 C 0.04993 0.43866 0.1141 0.0
C414 C 0.04379 0.56557 0.12165 0.0
C415 C 0.9988 0.59616 0.16192 0.0
N416 N 0.04466 0.47887 0.11674 0.0
N417 N 1.00645 0.55612 0.1605 0.0
H418 H 0.40997 0.48679 0.4359 0.0
H419 H 0.60209 0.52918 0.34984 0.0
H420 H 0.40207 0.52835 0.35714 0.0
H421 H 0.60618 0.54413 0.43252 0.0
H422 H 0.52901 0.52188 0.35202 0.0
H423 H 0.48265 0.50076 0.43524 0.0
C424 C 0.42358 0.4989 0.41853 0.0
C425 C 0.40014 0.50646 0.39654 0.0
C426 C 0.54583 0.52702 0.36968 0.0
C427 C 0.48273 0.52209 0.39556 0.0
C428 C 0.58744 0.53095 0.36845 0.0
C429 C 0.60995 0.53713 0.39104 0.0
C430 C 0.52665 0.52846 0.39376 0.0
C431 C 0.58967 0.53962 0.41469 0.0
C432 C 0.46484 0.5071 0.41821 0.0
C433 C 0.41903 0.52247 0.37456 0.0
N434 N 0.54905 0.53478 0.41551 0.0
N435 N 0.45929 0.52935 0.37453 0.0
H436 H 0.4906 0.11407 0.67862 0.0
H437 H 0.51855 0.91546 0.59489 0.0
H438 H 0.50415 0.11434 0.59575 0.0
H439 H 0.54237 0.91847 0.67681 0.0
H440 H 0.5085 0.98795 0.59542 0.0
H441 H 0.50494 0.04186 0.67908 0.0
C442 C 0.49657 0.09892 0.66055 0.0
C443 C 0.49619 0.12018 0.6371 0.0
C444 C 0.51608 0.97288 0.6133 0.0
C445 C 0.5125 0.03791 0.63747 0.0
C446 C 0.52154 0.93146 0.61303 0.0
C447 C 0.53104 0.91099 0.63588 0.0
C448 C 0.51965 0.99407 0.63666 0.0
C449 C 0.53525 0.93327 0.65878 0.0
C450 C 0.505 0.05786 0.66084 0.0
C451 C 0.50456 0.09924 0.61426 0.0
N452 N 0.52918 0.97368 0.65866 0.0
N453 N 0.51208 0.05925 0.615 0.0
H454 H 0.92235 0.97726 0.93102 0.0
H455 H 0.12082 0.01251 0.84725 0.0
H456 H 0.921 0.01192 0.85073 0.0
H457 H 0.12049 0.02445 0.93023 0.0
H458 H 0.04821 1.00097 0.84806 0.0
H459 H 0.99601 0.98368 0.93099 0.0
C460 C 0.93762 0.986 0.9134 0.0
C461 C 0.9157 0.99437 0.8909 0.0
C462 C 0.06404 1.00602 0.8661 0.0
C463 C 0.99939 1.0014 0.89063 0.0
C464 C 0.10549 0.0123 0.86566 0.0
C465 C 0.12664 0.01951 0.88871 0.0
C466 C 0.04359 1.00644 0.88979 0.0
C467 C 0.10518 0.01943 0.91202 0.0
C468 C 0.97948 0.98986 0.91342 0.0
C469 C 0.93677 1.00579 0.86857 0.0
N470 N 0.06477 0.01287 0.912 0.0
N471 N 0.97743 1.00881 0.86897 0.0
loop_
_geom_bond_atom_site_label_1
_geom_bond_atom_site_label_2
_geom_bond_distance
_geom_bond_site_symmetry_2
_ccdc_geom_bond_type
Cu0 N1 1.999 . S
Cu0 O6 1.974 . S
Cu0 N11 1.985 . S
Cu0 O20 1.959 . S
N1 Cu0 1.999 . S
N1 C3 1.263 . S
N1 C5 1.389 . S
N2 C3 1.358 . S
N2 C4 1.400 . S
C3 N1 1.263 . S
C3 N2 1.358 . S
C3 H9 0.930 . S
C4 N2 1.400 . S
C4 C5 1.351 . S
C4 H21 0.930 . S
C5 N1 1.389 . S
C5 C4 1.351 . S
C5 H10 0.930 . S
O6 Cu0 1.974 . S
O6 C16 1.282 . S
C7 O8 1.261 . S
C7 O20 1.251 . S
O8 C7 1.261 . S
H9 C3 0.930 . S
H10 C5 0.930 . S
N11 Cu0 1.985 . S
N11 C13 1.335 . S
N11 C14 1.390 . S
N12 C13 1.345 . S
N12 C15 1.336 . S
C13 N11 1.335 . S
C13 N12 1.345 . S
C13 H18 0.930 . S
C14 N11 1.390 . S
C14 C15 1.346 . S
C14 H19 0.930 . S
C15 N12 1.336 . S
C15 C14 1.346 . S
C15 H22 0.929 . S
C16 O6 1.282 . S
C16 O17 1.216 . S
O17 C16 1.216 . S
H18 C13 0.930 . S
H19 C14 0.930 . S
O20 Cu0 1.959 . S
O20 C7 1.251 . S
H21 C4 0.930 . S
H22 C15 0.929 . S
Cu23 N24 1.999 . S
Cu23 O29 1.974 . S
Cu23 N34 1.985 . S
Cu23 O43 1.959 . S
N24 Cu23 1.999 . S
N24 C26 1.263 . S
N24 C28 1.389 . S
N25 C26 1.358 . S
N25 C27 1.400 . S
C26 N24 1.263 . S
C26 N25 1.358 . S
C26 H32 0.930 . S
C27 N25 1.400 . S
C27 C28 1.351 . S
C27 H44 0.930 . S
C28 N24 1.389 . S
C28 C27 1.351 . S
C28 H33 0.930 . S
O29 Cu23 1.974 . S
O29 C39 1.282 . S
C30 O31 1.261 . S
C30 O43 1.251 . S
O31 C30 1.261 . S
H32 C26 0.930 . S
H33 C28 0.930 . S
N34 Cu23 1.985 . S
N34 C36 1.335 . S
N34 C37 1.390 . S
N35 C36 1.345 . S
N35 C38 1.336 . S
C36 N34 1.335 . S
C36 N35 1.345 . S
C36 H41 0.930 . S
C37 N34 1.390 . S
C37 C38 1.346 . S
C37 H42 0.930 . S
C38 N35 1.336 . S
C38 C37 1.346 . S
C38 H45 0.929 . S
C39 O29 1.282 . S
C39 O40 1.216 . S
O40 C39 1.216 . S
H41 C36 0.930 . S
H42 C37 0.930 . S
O43 Cu23 1.959 . S
O43 C30 1.251 . S
H44 C27 0.930 . S
H45 C38 0.929 . S
Cu46 N47 1.999 . S
Cu46 O52 1.974 . S
Cu46 N57 1.985 . S
Cu46 O66 1.959 . S
N47 Cu46 1.999 . S
N47 C49 1.263 . S
N47 C51 1.389 . S
N48 C49 1.358 . S
N48 C50 1.400 . S
C49 N47 1.263 . S
C49 N48 1.358 . S
C49 H55 0.930 . S
C50 N48 1.400 . S
C50 C51 1.351 . S
C50 H67 0.930 . S
C51 N47 1.389 . S
C51 C50 1.351 . S
C51 H56 0.930 . S
O52 Cu46 1.974 . S
O52 C62 1.282 . S
C53 O54 1.261 . S
C53 O66 1.251 . S
O54 C53 1.261 . S
H55 C49 0.930 . S
H56 C51 0.930 . S
N57 Cu46 1.985 . S
N57 C59 1.335 . S
N57 C60 1.390 . S
N58 C59 1.345 . S
N58 C61 1.336 . S
C59 N57 1.335 . S
C59 N58 1.345 . S
C59 H64 0.930 . S
C60 N57 1.390 . S
C60 C61 1.346 . S
C60 H65 0.930 . S
C61 N58 1.336 . S
C61 C60 1.346 . S
C61 H68 0.929 . S
C62 O52 1.282 . S
C62 O63 1.216 . S
O63 C62 1.216 . S
H64 C59 0.930 . S
H65 C60 0.930 . S
O66 Cu46 1.959 . S
O66 C53 1.251 . S
H67 C50 0.930 . S
H68 C61 0.929 . S
Cu69 N70 1.999 . S
Cu69 O75 1.974 . S
Cu69 N80 1.985 . S
Cu69 O89 1.959 . S
N70 Cu69 1.999 . S
N70 C72 1.263 . S
N70 C74 1.389 . S
N71 C72 1.358 . S
N71 C73 1.400 . S
C72 N70 1.263 . S
C72 N71 1.358 . S
C72 H78 0.930 . S
C73 N71 1.400 . S
C73 C74 1.351 . S
C73 H90 0.930 . S
C74 N70 1.389 . S
C74 C73 1.351 . S
C74 H79 0.930 . S
O75 Cu69 1.974 . S
O75 C85 1.282 . S
C76 O77 1.261 . S
C76 O89 1.251 . S
O77 C76 1.261 . S
H78 C72 0.930 . S
H79 C74 0.930 . S
N80 Cu69 1.985 . S
N80 C82 1.335 . S
N80 C83 1.390 . S
N81 C82 1.345 . S
N81 C84 1.336 . S
C82 N80 1.335 . S
C82 N81 1.345 . S
C82 H87 0.930 . S
C83 N80 1.390 . S
C83 C84 1.346 . S
C83 H88 0.930 . S
C84 N81 1.336 . S
C84 C83 1.346 . S
C84 H91 0.929 . S
C85 O75 1.282 . S
C85 O86 1.216 . S
O86 C85 1.216 . S
H87 C82 0.930 . S
H88 C83 0.930 . S
O89 Cu69 1.959 . S
O89 C76 1.251 . S
H90 C73 0.930 . S
H91 C84 0.929 . S
Cu92 N93 1.999 . S
Cu92 O98 1.974 . S
Cu92 N103 1.985 . S
Cu92 O112 1.959 . S
N93 Cu92 1.999 . S
N93 C95 1.263 . S
N93 C97 1.389 . S
N94 C95 1.358 . S
N94 C96 1.400 . S
C95 N93 1.263 . S
C95 N94 1.358 . S
C95 H101 0.930 . S
C96 N94 1.400 . S
C96 C97 1.351 . S
C96 H113 0.930 . S
C97 N93 1.389 . S
C97 C96 1.351 . S
C97 H102 0.930 . S
O98 Cu92 1.974 . S
O98 C108 1.282 . S
C99 O100 1.261 . S
C99 O112 1.251 . S
O100 C99 1.261 . S
H101 C95 0.930 . S
H102 C97 0.930 . S
N103 Cu92 1.985 . S
N103 C105 1.335 . S
N103 C106 1.390 . S
N104 C105 1.345 . S
N104 C107 1.336 . S
C105 N103 1.335 . S
C105 N104 1.345 . S
C105 H110 0.930 . S
C106 N103 1.390 . S
C106 C107 1.346 . S
C106 H111 0.930 . S
C107 N104 1.336 . S
C107 C106 1.346 . S
C107 H114 0.929 . S
C108 O98 1.282 . S
C108 O109 1.216 . S
O109 C108 1.216 . S
H110 C105 0.930 . S
H111 C106 0.930 . S
O112 Cu92 1.959 . S
O112 C99 1.251 . S
H113 C96 0.930 . S
H114 C107 0.929 . S
Cu115 N116 1.999 . S
Cu115 O121 1.974 . S
Cu115 N126 1.985 . S
Cu115 O135 1.959 . S
N116 Cu115 1.999 . S
N116 C118 1.263 . S
N116 C120 1.389 . S
N117 C118 1.358 . S
N117 C119 1.400 . S
C118 N116 1.263 . S
C118 N117 1.358 . S
C118 H124 0.930 . S
C119 N117 1.400 . S
C119 C120 1.351 . S
C119 H136 0.930 . S
C120 N116 1.389 . S
C120 C119 1.351 . S
C120 H125 0.930 . S
O121 Cu115 1.974 . S
O121 C131 1.282 . S
C122 O123 1.261 . S
C122 O135 1.251 . S
O123 C122 1.261 . S
H124 C118 0.930 . S
H125 C120 0.930 . S
N126 Cu115 1.985 . S
N126 C128 1.335 . S
N126 C129 1.390 . S
N127 C128 1.345 . S
N127 C130 1.336 . S
C128 N126 1.335 . S
C128 N127 1.345 . S
C128 H133 0.930 . S
C129 N126 1.390 . S
C129 C130 1.346 . S
C129 H134 0.930 . S
C130 N127 1.336 . S
C130 C129 1.346 . S
C130 H137 0.929 . S
C131 O121 1.282 . S
C131 O132 1.216 . S
O132 C131 1.216 . S
H133 C128 0.930 . S
H134 C129 0.930 . S
O135 Cu115 1.959 . S
O135 C122 1.251 . S
H136 C119 0.930 . S
H137 C130 0.929 . S
Cu138 N139 1.999 . S
Cu138 O144 1.974 . S
Cu138 N149 1.985 . S
Cu138 O158 1.959 . S
N139 Cu138 1.999 . S
N139 C141 1.263 . S
N139 C143 1.389 . S
N140 C141 1.358 . S
N140 C142 1.400 . S
C141 N139 1.263 . S
C141 N140 1.358 . S
C141 H147 0.930 . S
C142 N140 1.400 . S
C142 C143 1.351 . S
C142 H159 0.930 . S
C143 N139 1.389 . S
C143 C142 1.351 . S
C143 H148 0.930 . S
O144 Cu138 1.974 . S
O144 C154 1.282 . S
C145 O146 1.261 . S
C145 O158 1.251 . S
O146 C145 1.261 . S
H147 C141 0.930 . S
H148 C143 0.930 . S
N149 Cu138 1.985 . S
N149 C151 1.335 . S
N149 C152 1.390 . S
N150 C151 1.345 . S
N150 C153 1.336 . S
C151 N149 1.335 . S
C151 N150 1.345 . S
C151 H156 0.930 . S
C152 N149 1.390 . S
C152 C153 1.346 . S
C152 H157 0.930 . S
C153 N150 1.336 . S
C153 C152 1.346 . S
C153 H160 0.929 . S
C154 O144 1.282 . S
C154 O155 1.216 . S
O155 C154 1.216 . S
H156 C151 0.930 . S
H157 C152 0.930 . S
O158 Cu138 1.959 . S
O158 C145 1.251 . S
H159 C142 0.930 . S
H160 C153 0.929 . S
Cu161 N162 1.999 . S
Cu161 O167 1.974 . S
Cu161 N172 1.985 . S
Cu161 O181 1.959 . S
N162 Cu161 1.999 . S
N162 C164 1.263 . S
N162 C166 1.389 . S
N163 C164 1.358 . S
N163 C165 1.400 . S
C164 N162 1.263 . S
C164 N163 1.358 . S
C164 H170 0.930 . S
C165 N163 1.400 . S
C165 C166 1.351 . S
C165 H182 0.930 . S
C166 N162 1.389 . S
C166 C165 1.351 . S
C166 H171 0.930 . S
O167 Cu161 1.974 . S
O167 C177 1.282 . S
C168 O169 1.261 . S
C168 O181 1.251 . S
O169 C168 1.261 . S
H170 C164 0.930 . S
H171 C166 0.930 . S
N172 Cu161 1.985 . S
N172 C174 1.335 . S
N172 C175 1.390 . S
N173 C174 1.345 . S
N173 C176 1.336 . S
C174 N172 1.335 . S
C174 N173 1.345 . S
C174 H179 0.930 . S
C175 N172 1.390 . S
C175 C176 1.346 . S
C175 H180 0.930 . S
C176 N173 1.336 . S
C176 C175 1.346 . S
C176 H183 0.929 . S
C177 O167 1.282 . S
C177 O178 1.216 . S
O178 C177 1.216 . S
H179 C174 0.930 . S
H180 C175 0.930 . S
O181 Cu161 1.959 . S
O181 C168 1.251 . S
H182 C165 0.930 . S
H183 C176 0.929 . S
H184 C190 0.930 . S
H185 C194 0.930 . S
H186 C199 0.929 . S
H187 C197 0.929 . S
H188 C192 0.929 . S
H189 C198 0.929 . S
C190 H184 0.930 . S
C190 C191 1.367 . S
C190 C198 1.378 . S
C191 C190 1.367 . S
C191 C199 1.433 . S
C192 H188 0.929 . S
C192 C194 1.378 . S
C192 C196 1.350 . S
C193 C196 1.463 1_554 S
C193 C198 1.350 . S
C193 N201 1.427 . S
C194 H185 0.930 . S
C194 C192 1.378 . S
C194 C195 1.367 . S
C195 C194 1.367 . S
C195 C197 1.433 . S
C196 C192 1.350 . S
C196 C193 1.463 1_556 S
C196 N200 1.427 . S
C197 H187 0.929 . S
C197 C195 1.433 . S
C197 N200 1.384 . S
C198 H189 0.929 . S
C198 C190 1.378 . S
C198 C193 1.350 . S
C199 H186 0.929 . S
C199 C191 1.433 . S
C199 N201 1.384 . S
N200 C196 1.427 . S
N200 C197 1.384 . S
N201 C193 1.427 . S
N201 C199 1.384 . S
H202 C208 0.930 . S
H203 C212 0.930 . S
H204 C217 0.929 . S
H205 C215 0.929 . S
H206 C210 0.929 . S
H207 C216 0.929 . S
C208 H202 0.930 . S
C208 C209 1.367 . S
C208 C216 1.378 . S
C209 C208 1.367 . S
C209 C217 1.433 . S
C210 H206 0.929 . S
C210 C212 1.378 . S
C210 C214 1.350 . S
C211 C214 1.463 . S
C211 C216 1.350 . S
C211 N219 1.427 . S
C212 H203 0.930 . S
C212 C210 1.378 . S
C212 C213 1.367 . S
C213 C212 1.367 . S
C213 C215 1.433 . S
C214 C210 1.350 . S
C214 C211 1.463 . S
C214 N218 1.427 . S
C215 H205 0.929 . S
C215 C213 1.433 . S
C215 N218 1.384 . S
C216 H207 0.929 . S
C216 C208 1.378 . S
C216 C211 1.350 . S
C217 H204 0.929 . S
C217 C209 1.433 . S
C217 N219 1.384 . S
N218 C214 1.427 . S
N218 C215 1.384 . S
N219 C211 1.427 . S
N219 C217 1.384 . S
H220 C226 0.930 . S
H221 C230 0.930 . S
H222 C235 0.929 . S
H223 C233 0.929 . S
H224 C228 0.929 . S
H225 C234 0.929 . S
C226 H220 0.930 . S
C226 C227 1.367 . S
C226 C234 1.378 . S
C227 C226 1.367 . S
C227 C235 1.433 . S
C228 H224 0.929 . S
C228 C230 1.378 . S
C228 C232 1.350 . S
C229 C232 1.463 . S
C229 C234 1.350 . S
C229 N237 1.427 . S
C230 H221 0.930 . S
C230 C228 1.378 . S
C230 C231 1.367 . S
C231 C230 1.367 . S
C231 C233 1.433 . S
C232 C228 1.350 . S
C232 C229 1.463 . S
C232 N236 1.427 . S
C233 H223 0.929 . S
C233 C231 1.433 . S
C233 N236 1.384 . S
C234 H225 0.929 . S
C234 C226 1.378 . S
C234 C229 1.350 . S
C235 H222 0.929 . S
C235 C227 1.433 . S
C235 N237 1.384 . S
N236 C232 1.427 . S
N236 C233 1.384 . S
N237 C229 1.427 . S
N237 C235 1.384 . S
H238 C244 0.930 . S
H239 C248 0.930 . S
H240 C253 0.929 . S
H241 C251 0.929 . S
H242 C246 0.929 . S
H243 C252 0.929 . S
C244 H238 0.930 . S
C244 C245 1.367 . S
C244 C252 1.378 . S
C245 C244 1.367 . S
C245 C253 1.433 . S
C246 H242 0.929 . S
C246 C248 1.378 . S
C246 C250 1.350 . S
C247 C250 1.463 . S
C247 C252 1.350 . S
C247 N255 1.427 . S
C248 H239 0.930 . S
C248 C246 1.378 . S
C248 C249 1.367 . S
C249 C248 1.367 . S
C249 C251 1.433 . S
C250 C246 1.350 . S
C250 C247 1.463 . S
C250 N254 1.427 . S
C251 H241 0.929 . S
C251 C249 1.433 . S
C251 N254 1.384 . S
C252 H243 0.929 . S
C252 C244 1.378 . S
C252 C247 1.350 . S
C253 H240 0.929 . S
C253 C245 1.433 . S
C253 N255 1.384 . S
N254 C250 1.427 . S
N254 C251 1.384 . S
N255 C247 1.427 . S
N255 C253 1.384 . S
H256 C262 0.930 . S
H257 C266 0.930 . S
H258 C271 0.929 . S
H259 C269 0.929 . S
H260 C264 0.929 . S
H261 C270 0.929 . S
C262 H256 0.930 . S
C262 C263 1.367 . S
C262 C270 1.378 . S
C263 C262 1.367 . S
C263 C271 1.433 . S
C264 H260 0.929 . S
C264 C266 1.378 . S
C264 C268 1.350 . S
C265 C268 1.463 . S
C265 C270 1.350 . S
C265 N273 1.427 . S
C266 H257 0.930 . S
C266 C264 1.378 . S
C266 C267 1.367 . S
C267 C266 1.367 . S
C267 C269 1.433 . S
C268 C264 1.350 . S
C268 C265 1.463 . S
C268 N272 1.427 . S
C269 H259 0.929 . S
C269 C267 1.433 . S
C269 N272 1.384 . S
C270 H261 0.929 . S
C270 C262 1.378 . S
C270 C265 1.350 . S
C271 H258 0.929 . S
C271 C263 1.433 . S
C271 N273 1.384 . S
N272 C268 1.427 . S
N272 C269 1.384 . S
N273 C265 1.427 . S
N273 C271 1.384 . S
H274 C280 0.930 . S
H275 C284 0.930 . S
H276 C289 0.929 . S
H277 C287 0.929 . S
H278 C282 0.929 . S
H279 C288 0.929 . S
C280 H274 0.930 . S
C280 C281 1.367 . S
C280 C288 1.378 . S
C281 C280 1.367 . S
C281 C289 1.433 . S
C282 H278 0.929 . S
C282 C284 1.378 . S
C282 C286 1.350 . S
C283 C286 1.463 . S
C283 C288 1.350 . S
C283 N291 1.427 . S
C284 H275 0.930 . S
C284 C282 1.378 . S
C284 C285 1.367 . S
C285 C284 1.367 . S
C285 C287 1.433 . S
C286 C282 1.350 . S
C286 C283 1.463 . S
C286 N290 1.427 . S
C287 H277 0.929 . S
C287 C285 1.433 . S
C287 N290 1.384 . S
C288 H279 0.929 . S
C288 C280 1.378 . S
C288 C283 1.350 . S
C289 H276 0.929 . S
C289 C281 1.433 . S
C289 N291 1.384 . S
N290 C286 1.427 . S
N290 C287 1.384 . S
N291 C283 1.427 . S
N291 C289 1.384 . S
H292 C298 0.930 . S
H293 C302 0.930 . S
H294 C307 0.929 . S
H295 C305 0.929 . S
H296 C300 0.929 . S
H297 C306 0.929 . S
C298 H292 0.930 . S
C298 C299 1.367 . S
C298 C306 1.378 . S
C299 C298 1.367 . S
C299 C307 1.433 . S
C300 H296 0.929 . S
C300 C302 1.378 . S
C300 C304 1.350 . S
C301 C304 1.463 . S
C301 C306 1.350 . S
C301 N309 1.427 . S
C302 H293 0.930 . S
C302 C300 1.378 . S
C302 C303 1.367 . S
C303 C302 1.367 . S
C303 C305 1.433 . S
C304 C300 1.350 . S
C304 C301 1.463 . S
C304 N308 1.427 . S
C305 H295 0.929 . S
C305 C303 1.433 . S
C305 N308 1.384 . S
C306 H297 0.929 . S
C306 C298 1.378 . S
C306 C301 1.350 . S
C307 H294 0.929 . S
C307 C299 1.433 . S
C307 N309 1.384 . S
N308 C304 1.427 . S
N308 C305 1.384 . S
N309 C301 1.427 . S
N309 C307 1.384 . S
H310 C316 0.930 . S
H311 C320 0.930 . S
H312 C325 0.929 . S
H313 C323 0.929 . S
H314 C318 0.929 . S
H315 C324 0.929 . S
C316 H310 0.930 . S
C316 C317 1.367 . S
C316 C324 1.378 . S
C317 C316 1.367 . S
C317 C325 1.433 . S
C318 H314 0.929 . S
C318 C320 1.378 . S
C318 C322 1.350 . S
C319 C322 1.463 1_554 S
C319 C324 1.350 . S
C319 N327 1.427 . S
C320 H311 0.930 . S
C320 C318 1.378 . S
C320 C321 1.367 . S
C321 C320 1.367 . S
C321 C323 1.433 . S
C322 C318 1.350 . S
C322 C319 1.463 1_556 S
C322 N326 1.427 . S
C323 H313 0.929 . S
C323 C321 1.433 . S
C323 N326 1.384 . S
C324 H315 0.929 . S
C324 C316 1.378 . S
C324 C319 1.350 . S
C325 H312 0.929 . S
C325 C317 1.433 . S
C325 N327 1.384 . S
N326 C322 1.427 . S
N326 C323 1.384 . S
N327 C319 1.427 . S
N327 C325 1.384 . S
H328 C334 0.930 . S
H329 C338 0.930 . S
H330 C343 0.929 . S
H331 C341 0.929 . S
H332 C336 0.929 1_455 S
H333 C342 0.929 1_655 S
C334 H328 0.930 . S
C334 C335 1.367 . S
C334 C342 1.378 . S
C335 C334 1.367 . S
C335 C343 1.433 . S
C336 H332 0.929 1_655 S
C336 C338 1.378 . S
C336 C340 1.350 . S
C337 C340 1.463 1_445 S
C337 C342 1.350 . S
C337 N345 1.427 . S
C338 H329 0.930 . S
C338 C336 1.378 . S
C338 C339 1.367 . S
C339 C338 1.367 . S
C339 C341 1.433 . S
C340 C336 1.350 . S
C340 C337 1.463 1_665 S
C340 N344 1.427 . S
C341 H331 0.929 . S
C341 C339 1.433 . S
C341 N344 1.384 . S
C342 H333 0.929 1_455 S
C342 C334 1.378 . S
C342 C337 1.350 . S
C343 H330 0.929 . S
C343 C335 1.433 . S
C343 N345 1.384 . S
N344 C340 1.427 . S
N344 C341 1.384 . S
N345 C337 1.427 . S
N345 C343 1.384 . S
H346 C352 0.930 . S
H347 C356 0.930 . S
H348 C361 0.929 . S
H349 C359 0.929 . S
H350 C354 0.929 1_455 S
H351 C360 0.929 1_655 S
C352 H346 0.930 . S
C352 C353 1.367 . S
C352 C360 1.378 . S
C353 C352 1.367 . S
C353 C361 1.433 . S
C354 H350 0.929 1_655 S
C354 C356 1.378 . S
C354 C358 1.350 . S
C355 C358 1.463 1_455 S
C355 C360 1.350 . S
C355 N363 1.427 . S
C356 H347 0.930 . S
C356 C354 1.378 . S
C356 C357 1.367 . S
C357 C356 1.367 . S
C357 C359 1.433 . S
C358 C354 1.350 . S
C358 C355 1.463 1_655 S
C358 N362 1.427 . S
C359 H349 0.929 . S
C359 C357 1.433 . S
C359 N362 1.384 . S
C360 H351 0.929 1_455 S
C360 C352 1.378 . S
C360 C355 1.350 . S
C361 H348 0.929 . S
C361 C353 1.433 . S
C361 N363 1.384 . S
N362 C358 1.427 . S
N362 C359 1.384 . S
N363 C355 1.427 . S
N363 C361 1.384 . S
H364 C370 0.930 . S
H365 C374 0.930 . S
H366 C379 0.929 . S
H367 C377 0.929 . S
H368 C372 0.929 . S
H369 C378 0.929 . S
C370 H364 0.930 . S
C370 C371 1.367 . S
C370 C378 1.378 . S
C371 C370 1.367 . S
C371 C379 1.433 . S
C372 H368 0.929 . S
C372 C374 1.378 . S
C372 C376 1.350 . S
C373 C376 1.463 . S
C373 C378 1.350 . S
C373 N381 1.427 . S
C374 H365 0.930 . S
C374 C372 1.378 . S
C374 C375 1.367 . S
C375 C374 1.367 . S
C375 C377 1.433 . S
C376 C372 1.350 . S
C376 C373 1.463 . S
C376 N380 1.427 . S
C377 H367 0.929 . S
C377 C375 1.433 . S
C377 N380 1.384 . S
C378 H369 0.929 . S
C378 C370 1.378 . S
C378 C373 1.350 . S
C379 H366 0.929 . S
C379 C371 1.433 . S
C379 N381 1.384 . S
N380 C376 1.427 . S
N380 C377 1.384 . S
N381 C373 1.427 . S
N381 C379 1.384 . S
H382 C388 0.930 . S
H383 C392 0.930 . S
H384 C397 0.929 . S
H385 C395 0.929 . S
H386 C390 0.929 . S
H387 C396 0.929 . S
C388 H382 0.930 . S
C388 C389 1.367 . S
C388 C396 1.378 . S
C389 C388 1.367 . S
C389 C397 1.433 . S
C390 H386 0.929 . S
C390 C392 1.378 . S
C390 C394 1.350 . S
C391 C394 1.463 1_565 S
C391 C396 1.350 . S
C391 N399 1.427 . S
C392 H383 0.930 . S
C392 C390 1.378 . S
C392 C393 1.367 . S
C393 C392 1.367 . S
C393 C395 1.433 . S
C394 C390 1.350 . S
C394 C391 1.463 1_545 S
C394 N398 1.427 . S
C395 H385 0.929 . S
C395 C393 1.433 . S
C395 N398 1.384 . S
C396 H387 0.929 . S
C396 C388 1.378 . S
C396 C391 1.350 . S
C397 H384 0.929 . S
C397 C389 1.433 . S
C397 N399 1.384 . S
N398 C394 1.427 . S
N398 C395 1.384 . S
N399 C391 1.427 . S
N399 C397 1.384 . S
H400 C406 0.930 . S
H401 C410 0.930 . S
H402 C415 0.929 . S
H403 C413 0.929 . S
H404 C408 0.929 . S
H405 C414 0.929 . S
C406 H400 0.930 . S
C406 C407 1.367 . S
C406 C414 1.378 . S
C407 C406 1.367 . S
C407 C415 1.433 . S
C408 H404 0.929 . S
C408 C410 1.378 . S
C408 C412 1.350 . S
C409 C412 1.463 1_655 S
C409 C414 1.350 . S
C409 N417 1.427 . S
C410 H401 0.930 . S
C410 C408 1.378 . S
C410 C411 1.367 . S
C411 C410 1.367 . S
C411 C413 1.433 . S
C412 C408 1.350 . S
C412 C409 1.463 1_455 S
C412 N416 1.427 . S
C413 H403 0.929 . S
C413 C411 1.433 . S
C413 N416 1.384 . S
C414 H405 0.929 . S
C414 C406 1.378 . S
C414 C409 1.350 . S
C415 H402 0.929 . S
C415 C407 1.433 . S
C415 N417 1.384 . S
N416 C412 1.427 . S
N416 C413 1.384 . S
N417 C409 1.427 . S
N417 C415 1.384 . S
H418 C424 0.930 . S
H419 C428 0.930 . S
H420 C433 0.929 . S
H421 C431 0.929 . S
H422 C426 0.929 . S
H423 C432 0.929 . S
C424 H418 0.930 . S
C424 C425 1.367 . S
C424 C432 1.378 . S
C425 C424 1.367 . S
C425 C433 1.433 . S
C426 H422 0.929 . S
C426 C428 1.378 . S
C426 C430 1.350 . S
C427 C430 1.463 . S
C427 C432 1.350 . S
C427 N435 1.427 . S
C428 H419 0.930 . S
C428 C426 1.378 . S
C428 C429 1.367 . S
C429 C428 1.367 . S
C429 C431 1.433 . S
C430 C426 1.350 . S
C430 C427 1.463 . S
C430 N434 1.427 . S
C431 H421 0.929 . S
C431 C429 1.433 . S
C431 N434 1.384 . S
C432 H423 0.929 . S
C432 C424 1.378 . S
C432 C427 1.350 . S
C433 H420 0.929 . S
C433 C425 1.433 . S
C433 N435 1.384 . S
N434 C430 1.427 . S
N434 C431 1.384 . S
N435 C427 1.427 . S
N435 C433 1.384 . S
H436 C442 0.930 . S
H437 C446 0.930 . S
H438 C451 0.929 . S
H439 C449 0.929 . S
H440 C444 0.929 . S
H441 C450 0.929 . S
C442 H436 0.930 . S
C442 C443 1.367 . S
C442 C450 1.378 . S
C443 C442 1.367 . S
C443 C451 1.433 . S
C444 H440 0.929 . S
C444 C446 1.378 . S
C444 C448 1.350 . S
C445 C448 1.463 1_545 S
C445 C450 1.350 . S
C445 N453 1.427 . S
C446 H437 0.930 . S
C446 C444 1.378 . S
C446 C447 1.367 . S
C447 C446 1.367 . S
C447 C449 1.433 . S
C448 C444 1.350 . S
C448 C445 1.463 1_565 S
C448 N452 1.427 . S
C449 H439 0.929 . S
C449 C447 1.433 . S
C449 N452 1.384 . S
C450 H441 0.929 . S
C450 C442 1.378 . S
C450 C445 1.350 . S
C451 H438 0.929 . S
C451 C443 1.433 . S
C451 N453 1.384 . S
N452 C448 1.427 . S
N452 C449 1.384 . S
N453 C445 1.427 . S
N453 C451 1.384 . S
H454 C460 0.930 . S
H455 C464 0.930 . S
H456 C469 0.929 . S
H457 C467 0.929 . S
H458 C462 0.929 . S
H459 C468 0.929 . S
C460 H454 0.930 . S
C460 C461 1.367 . S
C460 C468 1.378 . S
C461 C460 1.367 . S
C461 C469 1.433 . S
C462 H458 0.929 . S
C462 C464 1.378 . S
C462 C466 1.350 . S
C463 C466 1.463 1_665 S
C463 C468 1.350 . S
C463 N471 1.427 . S
C464 H455 0.930 . S
C464 C462 1.378 . S
C464 C465 1.367 . S
C465 C464 1.367 . S
C465 C467 1.433 . S
C466 C462 1.350 . S
C466 C463 1.463 1_445 S
C466 N470 1.427 . S
C467 H457 0.929 . S
C467 C465 1.433 . S
C467 N470 1.384 . S
C468 H459 0.929 . S
C468 C460 1.378 . S
C468 C463 1.350 . S
C469 H456 0.929 . S
C469 C461 1.433 . S
C469 N471 1.384 . S
N470 C466 1.427 . S
N470 C467 1.384 . S
N471 C463 1.427 . S
N471 C469 1.384 . S
C191 C16 1.858 . S
C195 C131 1.848 . S
C209 C30 1.900 . S
C213 C145 1.901 . S
C227 C62 1.858 . S
C231 C177 1.849 . S
C245 C76 1.906 . S
C249 C99 1.909 . S
C263 C168 1.900 . S
C267 C7 1.901 . S
C281 C108 1.853 . S
C285 C39 1.847 . S
C299 C53 1.904 . S
C303 C122 1.909 . S
C317 C154 1.851 . S
C321 C85 1.860 . S
C335 N2 1.684 . S
C339 N140 1.679 . S
C353 N173 1.837 . S
C357 N35 1.833 . S
C371 N48 1.696 . S
C375 N94 1.695 . S
C389 N81 1.837 . S
C393 N127 1.832 . S
C407 N150 1.826 . S
C411 N12 1.833 . S
C425 N163 1.689 . S
C429 N25 1.683 . S
C443 N58 1.837 . S
C447 N104 1.830 . S
C461 N71 1.687 . S
C465 N117 1.681 . S
