# Generated by pormake.
# Topology unp, (4)-cn, num edge types: 1
# Building blocks:
#     Node 0, Type 0, BuildingBlock: QUQFOY_clean_sbu_1, # of connection points: 4
#     Node 1, Type 0, BuildingBlock: QUQFOY_clean_sbu_1, # of connection points: 4
#     Node 2, Type 0, BuildingBlock: QUQFOY_clean_sbu_1, # of connection points: 4
#     Node 3, Type 0, BuildingBlock: QUQFOY_clean_sbu_1, # of connection points: 4
#     Node 4, Type 0, BuildingBlock: QUQFOY_clean_sbu_1, # of connection points: 4
#     Node 5, Type 0, BuildingBlock: QUQFOY_clean_sbu_1, # of connection points: 4
#     Node 6, Type 0, BuildingBlock: QUQFOY_clean_sbu_1, # of connection points: 4
#     Node 7, Type 0, BuildingBlock: QUQFOY_clean_sbu_1, # of connection points: 4
#     Node 8, Type 0, BuildingBlock: QUQFOY_clean_sbu_1, # of connection points: 4
#     Node 9, Type 0, BuildingBlock: QUQFOY_clean_sbu_1, # of connection points: 4
#     Node 10, Type 0, BuildingBlock: QUQFOY_clean_sbu_1, # of connection points: 4
#     Node 11, Type 0, BuildingBlock: QUQFOY_clean_sbu_1, # of connection points: 4
#     Node 12, Type 0, BuildingBlock: QUQFOY_clean_sbu_1, # of connection points: 4
#     Node 13, Type 0, BuildingBlock: QUQFOY_clean_sbu_1, # of connection points: 4
#     Node 14, Type 0, BuildingBlock: QUQFOY_clean_sbu_1, # of connection points: 4
#     Node 15, Type 0, BuildingBlock: QUQFOY_clean_sbu_1, # of connection points: 4
#     Node 16, Type 0, BuildingBlock: QUQFOY_clean_sbu_1, # of connection points: 4
#     Node 17, Type 0, BuildingBlock: QUQFOY_clean_sbu_1, # of connection points: 4
#     Edge 18, Type (0, 0), BuildingBlock: KIFKEQ_clean_linker_1, # of connection points: 2
#     Edge 19, Type (0, 0), BuildingBlock: KIFKEQ_clean_linker_1, # of connection points: 2
#     Edge 20, Type (0, 0), BuildingBlock: KIFKEQ_clean_linker_1, # of connection points: 2
#     Edge 21, Type (0, 0), BuildingBlock: KIFKEQ_clean_linker_1, # of connection points: 2
#     Edge 22, Type (0, 0), BuildingBlock: KIFKEQ_clean_linker_1, # of connection points: 2
#     Edge 23, Type (0, 0), BuildingBlock: KIFKEQ_clean_linker_1, # of connection points: 2
#     Edge 24, Type (0, 0), BuildingBlock: KIFKEQ_clean_linker_1, # of connection points: 2
#     Edge 25, Type (0, 0), BuildingBlock: KIFKEQ_clean_linker_1, # of connection points: 2
#     Edge 26, Type (0, 0), BuildingBlock: KIFKEQ_clean_linker_1, # of connection points: 2
#     Edge 27, Type (0, 0), BuildingBlock: KIFKEQ_clean_linker_1, # of connection points: 2
#     Edge 28, Type (0, 0), BuildingBlock: KIFKEQ_clean_linker_1, # of connection points: 2
#     Edge 29, Type (0, 0), BuildingBlock: KIFKEQ_clean_linker_1, # of connection points: 2
#     Edge 30, Type (0, 0), BuildingBlock: KIFKEQ_clean_linker_1, # of connection points: 2
#     Edge 31, Type (0, 0), BuildingBlock: KIFKEQ_clean_linker_1, # of connection points: 2
#     Edge 32, Type (0, 0), BuildingBlock: KIFKEQ_clean_linker_1, # of connection points: 2
#     Edge 33, Type (0, 0), BuildingBlock: KIFKEQ_clean_linker_1, # of connection points: 2
#     Edge 34, Type (0, 0), BuildingBlock: KIFKEQ_clean_linker_1, # of connection points: 2
#     Edge 35, Type (0, 0), BuildingBlock: KIFKEQ_clean_linker_1, # of connection points: 2
#     Edge 36, Type (0, 0), BuildingBlock: KIFKEQ_clean_linker_1, # of connection points: 2
#     Edge 37, Type (0, 0), BuildingBlock: KIFKEQ_clean_linker_1, # of connection points: 2
#     Edge 38, Type (0, 0), BuildingBlock: KIFKEQ_clean_linker_1, # of connection points: 2
#     Edge 39, Type (0, 0), BuildingBlock: KIFKEQ_clean_linker_1, # of connection points: 2
#     Edge 40, Type (0, 0), BuildingBlock: KIFKEQ_clean_linker_1, # of connection points: 2
#     Edge 41, Type (0, 0), BuildingBlock: KIFKEQ_clean_linker_1, # of connection points: 2
#     Edge 42, Type (0, 0), BuildingBlock: KIFKEQ_clean_linker_1, # of connection points: 2
#     Edge 43, Type (0, 0), BuildingBlock: KIFKEQ_clean_linker_1, # of connection points: 2
#     Edge 44, Type (0, 0), BuildingBlock: KIFKEQ_clean_linker_1, # of connection points: 2
#     Edge 45, Type (0, 0), BuildingBlock: KIFKEQ_clean_linker_1, # of connection points: 2
#     Edge 46, Type (0, 0), BuildingBlock: KIFKEQ_clean_linker_1, # of connection points: 2
#     Edge 47, Type (0, 0), BuildingBlock: KIFKEQ_clean_linker_1, # of connection points: 2
#     Edge 48, Type (0, 0), BuildingBlock: KIFKEQ_clean_linker_1, # of connection points: 2
#     Edge 49, Type (0, 0), BuildingBlock: KIFKEQ_clean_linker_1, # of connection points: 2
#     Edge 50, Type (0, 0), BuildingBlock: KIFKEQ_clean_linker_1, # of connection points: 2
#     Edge 51, Type (0, 0), BuildingBlock: KIFKEQ_clean_linker_1, # of connection points: 2
#     Edge 52, Type (0, 0), BuildingBlock: KIFKEQ_clean_linker_1, # of connection points: 2
#     Edge 53, Type (0, 0), BuildingBlock: KIFKEQ_clean_linker_1, # of connection points: 2
# Relax obj value: 0.373
# Max RMSD: 0.180
# Mean RMSD: 0.180
data_MOF--net-unp--node1-QUQFOY_clean_sbu_1--edge1-KIFKEQ_clean_linker_1
_symmetry_space_group_name_H-M    P1
_symmetry_Int_Tables_number       1
_symmetry_cell_setting            triclinic
loop_
_symmetry_equiv_pos_as_xyz
'x, y, z'
_cell_length_a     48.9559
_cell_length_b     48.971985
_cell_length_c     73.97668
_cell_angle_alpha  90.032674
_cell_angle_beta   89.979596
_cell_angle_gamma 119.96253
loop_
_atom_site_label
_atom_site_type_symbol
_atom_site_fract_x
_atom_site_fract_y
_atom_site_fract_z
_atom_type_partial_charge
O0 O 0.16611 0.12279 0.13187 0.0
Cd1 Cd 0.17112 0.16712 0.1312 0.0
Cd2 Cd 0.15831 0.15458 0.09382 0.0
O3 O 0.16121 0.11591 0.10232 0.0
O4 O 0.1972 0.19116 0.15227 0.0
O5 O 0.213 0.20322 0.12381 0.0
C6 C 0.2189 0.20875 0.14089 0.0
C7 C 0.1674 0.16421 0.0625 0.0
C8 C 0.16292 0.10618 0.11798 0.0
C9 C 0.11231 0.1637 0.11796 0.0
O10 O 0.11998 0.15787 0.10262 0.0
O11 O 0.13019 0.16931 0.13155 0.0
O12 O 0.14337 0.13952 0.06883 0.0
O13 O 0.18704 0.18416 0.07399 0.0
O14 O 0.86759 0.03364 0.13823 0.0
Cd15 Cd 0.82254 0.99578 0.13622 0.0
Cd16 Cd 0.83514 0.00109 0.09904 0.0
O17 O 0.87215 0.04283 0.10887 0.0
O18 O 0.79624 0.99705 0.15626 0.0
O19 O 0.789 0.0043 0.1274 0.0
C20 C 0.78111 0.00334 0.14419 0.0
C21 C 0.82729 0.0032 0.0677 0.0
C22 C 0.88283 0.0507 0.12484 0.0
C23 C 0.82575 0.94266 0.12037 0.0
O24 O 0.83303 0.95908 0.10601 0.0
O25 O 0.81848 0.95208 0.1346 0.0
O26 O 0.85181 0.00372 0.07423 0.0
O27 O 0.80659 0.00179 0.07902 0.0
O28 O 0.95338 0.82552 0.13985 0.0
Cd29 Cd 0.99228 0.82012 0.14058 0.0
Cd30 Cd 0.99325 0.82879 0.10257 0.0
O31 O 0.9508 0.82547 0.11008 0.0
O32 O 0.98806 0.79357 0.16179 0.0
O33 O 0.98772 0.7787 0.1334 0.0
C34 C 0.98533 0.77223 0.15048 0.0
C35 C 0.99486 0.81964 0.07136 0.0
C36 C 0.93952 0.82603 0.12547 0.0
C37 C 0.04819 0.87656 0.12669 0.0
O38 O 0.03529 0.86714 0.11129 0.0
O39 O 0.0351 0.86083 0.14086 0.0
O40 O 0.99409 0.84374 0.07752 0.0
O41 O 0.99462 0.79991 0.08299 0.0
O42 O 0.1259 0.16344 0.85612 0.0
Cd43 Cd 0.1704 0.16991 0.85967 0.0
Cd44 Cd 0.1553 0.16346 0.89614 0.0
O45 O 0.12056 0.17073 0.88503 0.0
O46 O 0.19863 0.19744 0.84025 0.0
O47 O 0.20331 0.21167 0.86913 0.0
C48 C 0.21269 0.21872 0.85255 0.0
C49 C 0.16323 0.17556 0.92723 0.0
C50 C 0.11062 0.16711 0.86885 0.0
C51 C 0.16407 0.11288 0.87629 0.0
O52 O 0.15536 0.12202 0.89013 0.0
O53 O 0.17357 0.12995 0.86223 0.0
O54 O 0.13745 0.15276 0.92097 0.0
O55 O 0.18524 0.19222 0.91581 0.0
O56 O 0.8321 0.957 0.86706 0.0
Cd57 Cd 0.82536 0.99508 0.86448 0.0
Cd58 Cd 0.8379 0.00171 0.90186 0.0
O59 O 0.83672 0.95955 0.89678 0.0
O60 O 0.7976 0.98718 0.84328 0.0
O61 O 0.78388 0.99085 0.87137 0.0
C62 C 0.77671 0.98604 0.85439 0.0
C63 C 0.82902 0.00802 0.93248 0.0
C64 C 0.83551 0.94599 0.88189 0.0
C65 C 0.88251 0.05346 0.87511 0.0
O66 O 0.87481 0.04255 0.89105 0.0
O67 O 0.86523 0.03837 0.86177 0.0
O68 O 0.85446 0.00927 0.92697 0.0
O69 O 0.80768 0.00277 0.9206 0.0
O70 O 0.03858 0.86722 0.86645 0.0
Cd71 Cd 0.00084 0.82243 0.8699 0.0
Cd72 Cd 0.01072 0.83701 0.90604 0.0
O73 O 0.05233 0.87236 0.89514 0.0
O74 O -0.00044 0.79523 0.84961 0.0
O75 O 0.01026 0.78912 0.87801 0.0
C76 C 0.00741 0.78065 0.86122 0.0
C77 C 0.01515 0.82709 0.93676 0.0
C78 C 0.05784 0.88268 0.87901 0.0
C79 C 0.95137 0.82989 0.88743 0.0
O80 O 0.96997 0.83869 0.90091 0.0
O81 O 0.95773 0.81936 0.87332 0.0
O82 O 0.01865 0.85345 0.93119 0.0
O83 O 0.00914 0.8056 0.92483 0.0
O84 O 0.82669 0.45919 0.4767 0.0
Cd85 Cd 0.83374 0.50405 0.47398 0.0
Cd86 Cd 0.82626 0.49048 0.43701 0.0
O87 O 0.83105 0.45378 0.4474 0.0
O88 O 0.86235 0.53165 0.49327 0.0
O89 O 0.87531 0.53669 0.46417 0.0
C90 C 0.88315 0.54572 0.48074 0.0
C91 C 0.83715 0.49766 0.40574 0.0
C92 C 0.82852 0.44363 0.46348 0.0
C93 C 0.77751 0.50088 0.45802 0.0
O94 O 0.78654 0.49329 0.4437 0.0
O95 O 0.79415 0.50812 0.47226 0.0
O96 O 0.81288 0.47335 0.41221 0.0
O97 O 0.85601 0.51864 0.41708 0.0
O98 O 0.53289 0.37169 0.46979 0.0
Cd99 Cd 0.48808 0.33359 0.46722 0.0
Cd100 Cd 0.50166 0.34184 0.43077 0.0
O101 O 0.53704 0.38426 0.44092 0.0
O102 O 0.46183 0.33325 0.48778 0.0
O103 O 0.45435 0.34258 0.45935 0.0
C104 C 0.44671 0.34055 0.47625 0.0
C105 C 0.49039 0.34313 0.3999 0.0
C106 C 0.5478 0.39052 0.45695 0.0
C107 C 0.49508 0.28342 0.45043 0.0
O108 O 0.50356 0.3015 0.43673 0.0
O109 O 0.48491 0.29033 0.46449 0.0
O110 O 0.51711 0.34749 0.40545 0.0
O111 O 0.46954 0.33862 0.41197 0.0
O112 O 0.6214 0.16295 0.46788 0.0
Cd113 Cd 0.65997 0.15679 0.46931 0.0
Cd114 Cd 0.66349 0.16893 0.43168 0.0
O115 O 0.62111 0.16637 0.43814 0.0
O116 O 0.65376 0.12986 0.49069 0.0
O117 O 0.65579 0.11525 0.46256 0.0
C118 C 0.65206 0.10865 0.47963 0.0
C119 C 0.6678 0.16093 0.40059 0.0
C120 C 0.60885 0.1655 0.45343 0.0
C121 C 0.71669 0.21458 0.45748 0.0
O122 O 0.70449 0.20659 0.44182 0.0
O123 O 0.70311 0.19715 0.47105 0.0
O124 O 0.66834 0.18571 0.40671 0.0
O125 O 0.66451 0.13979 0.41214 0.0
O126 O 0.78878 0.49712 0.20858 0.0
Cd127 Cd 0.8324 0.50192 0.20423 0.0
Cd128 Cd 0.82817 0.48378 0.24038 0.0
O129 O 0.7842 0.47934 0.23643 0.0
O130 O 0.85044 0.52978 0.18287 0.0
O131 O 0.87157 0.54251 0.21024 0.0
C132 C 0.87207 0.55001 0.19343 0.0
C133 C 0.84455 0.49353 0.27078 0.0
C134 C 0.77273 0.48626 0.22294 0.0
C135 C 0.83576 0.44399 0.21128 0.0
O136 O 0.83672 0.45099 0.2279 0.0
O137 O 0.83303 0.4609 0.1992 0.0
O138 O 0.82252 0.46659 0.2653 0.0
O139 O 0.85794 0.51569 0.25896 0.0
O140 O 0.49043 0.28494 0.19593 0.0
Cd141 Cd 0.48462 0.32341 0.19894 0.0
Cd142 Cd 0.48794 0.31373 0.23566 0.0
O143 O 0.48245 0.27215 0.22481 0.0
O144 O 0.45918 0.32515 0.17856 0.0
O145 O 0.44231 0.31529 0.20698 0.0
C146 C 0.43686 0.31804 0.19015 0.0
C147 C 0.47381 0.31026 0.26639 0.0
C148 C 0.48672 0.26605 0.20868 0.0
C149 C 0.54058 0.37316 0.21706 0.0
O150 O 0.52974 0.35531 0.2308 0.0
O151 O 0.5252 0.36586 0.20235 0.0
O152 O 0.49678 0.30679 0.26094 0.0
O153 O 0.45772 0.31505 0.25428 0.0
O154 O 0.70028 0.19921 0.19545 0.0
Cd155 Cd 0.66141 0.15464 0.19602 0.0
Cd156 Cd 0.66123 0.16578 0.23364 0.0
O157 O 0.70228 0.20513 0.22508 0.0
O158 O 0.66428 0.12975 0.17568 0.0
O159 O 0.668 0.11966 0.20456 0.0
C160 C 0.66877 0.11322 0.18766 0.0
C161 C 0.66099 0.15694 0.26502 0.0
C162 C 0.71368 0.21539 0.20947 0.0
C163 C 0.60508 0.15529 0.20977 0.0
O164 O 0.61869 0.16052 0.22505 0.0
O165 O 0.61782 0.15135 0.19582 0.0
O166 O 0.65964 0.18047 0.25846 0.0
O167 O 0.66285 0.13786 0.25373 0.0
O168 O 0.50376 0.7902 0.79886 0.0
Cd169 Cd 0.50691 0.83345 0.8012 0.0
Cd170 Cd 0.49323 0.82675 0.76354 0.0
O171 O 0.49441 0.78602 0.76954 0.0
O172 O 0.53347 0.85423 0.8227 0.0
O173 O 0.54745 0.87216 0.79473 0.0
C174 C 0.55421 0.8746 0.81178 0.0
C175 C 0.50122 0.83891 0.73244 0.0
C176 C 0.49837 0.77489 0.7842 0.0
C177 C 0.44845 0.83303 0.79019 0.0
O178 O 0.45675 0.83173 0.77407 0.0
O179 O 0.46506 0.83353 0.8035 0.0
O180 O 0.47652 0.81466 0.73859 0.0
O181 O 0.52211 0.85708 0.74402 0.0
O182 O 0.20243 0.70358 0.80193 0.0
Cd183 Cd 0.15786 0.66457 0.80192 0.0
Cd184 Cd 0.16746 0.66561 0.76406 0.0
O185 O 0.20719 0.70662 0.77221 0.0
O186 O 0.13436 0.66694 0.8232 0.0
O187 O 0.12198 0.67089 0.79482 0.0
C188 C 0.1168 0.67139 0.81194 0.0
C189 C 0.15704 0.6643 0.73283 0.0
C190 C 0.21811 0.7174 0.78784 0.0
C191 C 0.15947 0.60949 0.78709 0.0
O192 O 0.16388 0.62362 0.77207 0.0
O193 O 0.15531 0.62127 0.80141 0.0
O194 O 0.18123 0.66384 0.73905 0.0
O195 O 0.13837 0.66634 0.74435 0.0
O196 O 0.29326 0.49627 0.80174 0.0
Cd197 Cd 0.33137 0.48948 0.80126 0.0
Cd198 Cd 0.33053 0.49762 0.76451 0.0
O199 O 0.28982 0.49806 0.77204 0.0
O200 O 0.32846 0.46199 0.82172 0.0
O201 O 0.32446 0.44775 0.79289 0.0
C202 C 0.32386 0.4408 0.80982 0.0
C203 C 0.32998 0.47919 0.73515 0.0
C204 C 0.27939 0.49837 0.78776 0.0
C205 C 0.3875 0.54511 0.78689 0.0
O206 O 0.37379 0.53578 0.77169 0.0
O207 O 0.3748 0.52946 0.80114 0.0
O208 O 0.33288 0.50635 0.73809 0.0
O209 O 0.32685 0.46167 0.7489 0.0
O210 O 0.45651 0.83329 0.52744 0.0
Cd211 Cd 0.5005 0.83861 0.53079 0.0
Cd212 Cd 0.48721 0.83638 0.56737 0.0
O213 O 0.45147 0.842 0.55614 0.0
O214 O 0.52712 0.86376 0.5102 0.0
O215 O 0.53561 0.88055 0.53865 0.0
C216 C 0.54306 0.88599 0.52172 0.0
C217 C 0.49698 0.85204 0.59789 0.0
C218 C 0.44129 0.83746 0.53999 0.0
C219 C 0.4934 0.78277 0.54944 0.0
O220 O 0.48665 0.79418 0.56305 0.0
O221 O 0.50164 0.79774 0.53459 0.0
O222 O 0.47073 0.82879 0.59251 0.0
O223 O 0.51846 0.86714 0.58591 0.0
O224 O 0.16077 0.62214 0.529 0.0
Cd225 Cd 0.15565 0.6614 0.52858 0.0
Cd226 Cd 0.16699 0.66386 0.5661 0.0
O227 O 0.16545 0.62235 0.55867 0.0
O228 O 0.12722 0.65771 0.50846 0.0
O229 O 0.11483 0.65622 0.53748 0.0
C230 C 0.10695 0.65457 0.52065 0.0
C231 C 0.15853 0.66636 0.59729 0.0
C232 C 0.16388 0.60976 0.54337 0.0
C233 C 0.21265 0.71845 0.54138 0.0
O234 O 0.20415 0.70589 0.5569 0.0
O235 O 0.19613 0.70473 0.52754 0.0
O236 O 0.18341 0.66729 0.59103 0.0
O237 O 0.13743 0.66349 0.58582 0.0
O238 O 0.36869 0.53397 0.54261 0.0
Cd239 Cd 0.33039 0.48972 0.53891 0.0
Cd240 Cd 0.31826 0.49387 0.57471 0.0
O241 O 0.35666 0.53856 0.57077 0.0
O242 O 0.33836 0.47096 0.51713 0.0
O243 O 0.33449 0.45196 0.54481 0.0
C244 C 0.33925 0.4505 0.52772 0.0
C245 C 0.3154 0.47279 0.6036 0.0
C246 C 0.37424 0.55018 0.55696 0.0
C247 C 0.26893 0.48575 0.54729 0.0
O248 O 0.27589 0.48536 0.56379 0.0
O249 O 0.28787 0.48793 0.53489 0.0
O250 O 0.30854 0.49456 0.60081 0.0
O251 O 0.32392 0.46246 0.58992 0.0
H252 H 0.38122 0.28458 0.20816 0.0
H253 H 0.42077 0.33354 0.158 0.0
H254 H 0.32846 0.26399 0.19604 0.0
H255 H 0.36787 0.31437 0.14608 0.0
H256 H 0.27461 0.23455 0.12255 0.0
H257 H 0.32726 0.26687 0.13489 0.0
H258 H 0.28692 0.27046 0.18627 0.0
H259 H 0.2343 0.23661 0.17408 0.0
C260 C 0.37859 0.29168 0.1947 0.0
C261 C 0.40511 0.31037 0.18396 0.0
C262 C 0.34824 0.28 0.18773 0.0
C263 C 0.34369 0.28717 0.16993 0.0
C264 C 0.37036 0.30764 0.15965 0.0
C265 C 0.40072 0.31888 0.16653 0.0
C266 C 0.27703 0.24269 0.13639 0.0
C267 C 0.25039 0.23275 0.14741 0.0
C268 C 0.30728 0.26143 0.14349 0.0
C269 C 0.31156 0.2711 0.16171 0.0
C270 C 0.28468 0.26283 0.17234 0.0
C271 C 0.25446 0.24361 0.16532 0.0
H272 H 0.75941 0.03584 0.12475 0.0
H273 H 0.74928 0.99014 0.1762 0.0
H274 H 0.7267 0.05684 0.1355 0.0
H275 H 0.71502 0.00967 0.18674 0.0
H276 H 0.69917 0.08954 0.20743 0.0
H277 H 0.72088 0.05748 0.19656 0.0
H278 H 0.67808 0.05012 0.14429 0.0
H279 H 0.65791 0.08373 0.155 0.0
C280 C 0.74945 0.02958 0.13821 0.0
C281 C 0.75718 0.01166 0.1497 0.0
C282 C 0.73047 0.04149 0.14439 0.0
C283 C 0.71832 0.03528 0.16212 0.0
C284 C 0.72455 0.01565 0.17319 0.0
C285 C 0.74399 0.00423 0.1671 0.0
C286 C 0.69401 0.08064 0.19371 0.0
C287 C 0.67718 0.08943 0.18201 0.0
C288 C 0.70632 0.06205 0.18746 0.0
C289 C 0.70161 0.05138 0.16942 0.0
C290 C 0.68295 0.05855 0.1581 0.0
C291 C 0.67114 0.07762 0.16427 0.0
H292 H 0.87495 0.57361 0.15973 0.0
H293 H 0.92176 0.59788 0.2116 0.0
H294 H 0.90853 0.62725 0.14939 0.0
H295 H 0.95638 0.65164 0.20099 0.0
H296 H 0.97989 0.7225 0.13064 0.0
H297 H 0.95932 0.66833 0.14084 0.0
H298 H 0.95012 0.6959 0.19502 0.0
H299 H 0.97168 0.74997 0.18499 0.0
C300 C 0.89288 0.59027 0.16883 0.0
C301 C 0.89541 0.58157 0.18657 0.0
C302 C 0.91239 0.62107 0.16282 0.0
C303 C 0.93513 0.64393 0.17437 0.0
C304 C 0.93876 0.63478 0.19184 0.0
C305 C 0.91903 0.60394 0.1979 0.0
C306 C 0.97401 0.71705 0.14479 0.0
C307 C 0.97708 0.74045 0.15696 0.0
C308 C 0.96204 0.68596 0.15062 0.0
C309 C 0.95265 0.67759 0.16871 0.0
C310 C 0.95738 0.70143 0.18104 0.0
C311 C 0.96956 0.73249 0.17525 0.0
H312 H 0.29476 0.3867 0.78998 0.0
H313 H 0.33406 0.4225 0.84275 0.0
H314 H 0.27374 0.33309 0.80085 0.0
H315 H 0.31451 0.36887 0.85348 0.0
H316 H 0.23298 0.27255 0.87217 0.0
H317 H 0.26568 0.3264 0.86173 0.0
H318 H 0.28074 0.29185 0.81102 0.0
H319 H 0.24656 0.2379 0.82122 0.0
C320 C 0.29962 0.3831 0.80379 0.0
C321 C 0.3157 0.40874 0.81557 0.0
C322 C 0.28772 0.35229 0.81004 0.0
C323 C 0.29208 0.34645 0.82816 0.0
C324 C 0.30997 0.37234 0.83959 0.0
C325 C 0.3214 0.40312 0.83341 0.0
C326 C 0.24371 0.27648 0.85891 0.0
C327 C 0.23691 0.25104 0.84743 0.0
C328 C 0.26267 0.30744 0.85292 0.0
C329 C 0.27569 0.31366 0.8354 0.0
C330 C 0.27051 0.28805 0.8244 0.0
C331 C 0.25111 0.25709 0.83029 0.0
H332 H 0.72787 0.98388 0.8737 0.0
H333 H 0.7534 0.96845 0.82031 0.0
H334 H 0.67378 0.96408 0.86347 0.0
H335 H 0.69943 0.94768 0.8103 0.0
H336 H 0.5769 0.88055 0.84604 0.0
H337 H 0.63078 0.91357 0.85622 0.0
H338 H 0.6569 0.95604 0.8032 0.0
H339 H 0.60292 0.92193 0.7928 0.0
C340 C 0.722 0.97651 0.85976 0.0
C341 C 0.74484 0.97744 0.84787 0.0
C342 C 0.69097 0.96501 0.85391 0.0
C343 C 0.68209 0.95398 0.83609 0.0
C344 C 0.70538 0.95632 0.82404 0.0
C345 C 0.73638 0.96801 0.82984 0.0
C346 C 0.59399 0.89725 0.8366 0.0
C347 C 0.58572 0.8983 0.81853 0.0
C348 C 0.62495 0.91643 0.84249 0.0
C349 C 0.64837 0.93733 0.8305 0.0
C350 C 0.63961 0.93976 0.8127 0.0
C351 C 0.60863 0.92035 0.80676 0.0
H352 H 0.09061 0.70097 0.79363 0.0
H353 H 0.09023 0.66042 0.84549 0.0
H354 H 0.05874 0.7218 0.80604 0.0
H355 H 0.05685 0.67974 0.85777 0.0
H356 H 0.04218 0.75987 0.87916 0.0
H357 H 0.06318 0.72794 0.86713 0.0
H358 H 0.01137 0.71493 0.81749 0.0
H359 H 0.99177 0.7484 0.82928 0.0
C360 C 0.08296 0.69578 0.80757 0.0
C361 C 0.0932 0.67939 0.81864 0.0
C362 C 0.06448 0.70759 0.81471 0.0
C363 C 0.05536 0.70282 0.83303 0.0
C364 C 0.06403 0.68463 0.84376 0.0
C365 C 0.08298 0.67332 0.83669 0.0
C366 C 0.03489 0.74976 0.86579 0.0
C367 C 0.01562 0.75691 0.85509 0.0
C368 C 0.04681 0.73124 0.85887 0.0
C369 C 0.03931 0.71898 0.84119 0.0
C370 C 0.01835 0.72457 0.83096 0.0
C371 C 0.00688 0.74355 0.83777 0.0
H372 H 0.93612 0.56517 0.46044 0.0
H373 H 0.90392 0.57959 0.512 0.0
H374 H 0.99045 0.5973 0.47022 0.0
H375 H 0.95838 0.61329 0.52156 0.0
H376 H 0.05369 0.62667 0.54123 0.0
H377 H -0.00028 0.60617 0.5311 0.0
H378 H 0.03369 0.64563 0.47801 0.0
H379 H 0.08762 0.66455 0.488 0.0
C380 C 0.94071 0.57597 0.4737 0.0
C381 C 0.91581 0.56957 0.48553 0.0
C382 C 0.97195 0.59462 0.47932 0.0
C383 C 0.97902 0.60775 0.49681 0.0
C384 C 0.95394 0.60296 0.50818 0.0
C385 C 0.92269 0.58384 0.50266 0.0
C386 C 0.04961 0.63136 0.52748 0.0
C387 C 0.0748 0.64685 0.51535 0.0
C388 C 0.0186 0.61975 0.52165 0.0
C389 C 0.01211 0.62387 0.50362 0.0
C390 C 0.03762 0.64124 0.49184 0.0
C391 C 0.06858 0.65232 0.49759 0.0
H392 H 0.36669 0.42176 0.54562 0.0
H393 H 0.33075 0.42766 0.49339 0.0
H394 H 0.38742 0.39019 0.5326 0.0
H395 H 0.34957 0.39434 0.48046 0.0
H396 H 0.42772 0.37728 0.45898 0.0
H397 H 0.39673 0.39899 0.47141 0.0
H398 H 0.38094 0.34407 0.52009 0.0
H399 H 0.41376 0.32397 0.50793 0.0
C400 C 0.36249 0.41554 0.53143 0.0
C401 C 0.34746 0.42743 0.52047 0.0
C402 C 0.37421 0.39722 0.52392 0.0
C403 C 0.37056 0.38982 0.50534 0.0
C404 C 0.3537 0.40021 0.49468 0.0
C405 C 0.34264 0.41911 0.50211 0.0
C406 C 0.4172 0.36949 0.47222 0.0
C407 C 0.42339 0.34918 0.48255 0.0
C408 C 0.3992 0.38182 0.47937 0.0
C409 C 0.38641 0.37363 0.49692 0.0
C410 C 0.39104 0.35166 0.50676 0.0
C411 C 0.40961 0.33986 0.49973 0.0
H412 H 0.65354 0.0609 0.46112 0.0
H413 H 0.6318 0.08482 0.51332 0.0
H414 H 0.63482 0.00714 0.47155 0.0
H415 H 0.61176 0.03112 0.52346 0.0
H416 H 0.55363 0.90818 0.48719 0.0
H417 H 0.58598 0.96233 0.47736 0.0
H418 H 0.62001 0.9899 0.53204 0.0
H419 H 0.58617 0.93567 0.54201 0.0
C420 C 0.64493 0.05472 0.47485 0.0
C421 C 0.64391 0.07703 0.48634 0.0
C422 C 0.63401 0.02385 0.48082 0.0
C423 C 0.62143 0.01452 0.49833 0.0
C424 C 0.62168 0.03734 0.51 0.0
C425 C 0.63296 0.06822 0.50412 0.0
C426 C 0.56839 0.92569 0.49708 0.0
C427 C 0.56701 0.91772 0.51543 0.0
C428 C 0.5872 0.95685 0.49141 0.0
C429 C 0.60544 0.98077 0.50392 0.0
C430 C 0.60569 0.9723 0.52209 0.0
C431 C 0.58648 0.94117 0.52781 0.0
H432 H 0.08297 0.16491 0.14943 0.0
H433 H 0.06888 0.1522 0.09169 0.0
H434 H 0.02702 0.14712 0.15341 0.0
H435 H 0.01334 0.13343 0.09566 0.0
H436 H 0.91431 0.10186 0.10293 0.0
H437 H 0.97057 0.13992 0.10325 0.0
H438 H 0.98079 0.0969 0.1519 0.0
H439 H 0.92433 0.06004 0.15201 0.0
C440 C 0.06812 0.15892 0.13756 0.0
C441 C 0.08035 0.1595 0.12027 0.0
C442 C 0.03596 0.14847 0.13986 0.0
C443 C 0.01541 0.13833 0.12491 0.0
C444 C 0.02827 0.14128 0.10753 0.0
C445 C 0.06028 0.15185 0.10524 0.0
C446 C 0.92851 0.10115 0.11395 0.0
C447 C 0.91505 0.07768 0.12728 0.0
C448 C 0.96081 0.12283 0.11409 0.0
C449 C 0.9805 0.12106 0.12733 0.0
C450 C 0.9665 0.0992 0.14151 0.0
C451 C 0.93405 0.07788 0.14156 0.0
H452 H 0.81786 0.90403 0.14926 0.0
H453 H 0.8444 0.91869 0.09286 0.0
H454 H 0.83558 0.86556 0.15138 0.0
H455 H 0.86325 0.88172 0.09513 0.0
H456 H 0.89521 0.81372 0.09948 0.0
H457 H 0.85691 0.83166 0.09887 0.0
H458 H 0.88575 0.87012 0.15265 0.0
H459 H 0.92266 0.85069 0.15354 0.0
C460 C 0.82696 0.89868 0.13724 0.0
C461 C 0.8302 0.91486 0.12097 0.0
C462 C 0.83736 0.87679 0.13849 0.0
C463 C 0.85141 0.87081 0.12352 0.0
C464 C 0.85235 0.8853 0.10694 0.0
C465 C 0.84173 0.90687 0.10566 0.0
C466 C 0.89275 0.82533 0.11133 0.0
C467 C 0.91229 0.83125 0.12644 0.0
C468 C 0.87093 0.83581 0.11096 0.0
C469 C 0.86865 0.85305 0.12554 0.0
C470 C 0.88655 0.85678 0.14119 0.0
C471 C 0.90795 0.84578 0.14168 0.0
H472 H 0.14608 0.06171 0.09168 0.0
H473 H 0.16663 0.07677 0.14881 0.0
H474 H 0.12717 0.00622 0.09545 0.0
H475 H 0.14908 0.02086 0.15252 0.0
H476 H 0.09478 0.90715 0.1018 0.0
H477 H 0.13322 0.96329 0.10107 0.0
H478 H 0.1005 0.97441 0.15342 0.0
H479 H 0.06379 0.91807 0.15455 0.0
C480 C 0.14741 0.05332 0.10502 0.0
C481 C 0.15737 0.07368 0.12 0.0
C482 C 0.13678 0.02128 0.10718 0.0
C483 C 0.13623 0.00868 0.12436 0.0
C484 C 0.14845 0.02951 0.13915 0.0
C485 C 0.15873 0.06164 0.13701 0.0
C486 C 0.0966 0.92155 0.11337 0.0
C487 C 0.07607 0.90839 0.12812 0.0
C488 C 0.1184 0.95381 0.1129 0.0
C489 C 0.11944 0.97378 0.12693 0.0
C490 C 0.10067 0.96 0.14237 0.0
C491 C 0.07942 0.92758 0.14302 0.0
H492 H 0.10802 0.91855 0.90101 0.0
H493 H 0.06673 0.92037 0.84974 0.0
H494 H 0.14357 0.97524 0.8991 0.0
H495 H 0.10158 0.97715 0.84809 0.0
H496 H 0.1692 0.08038 0.84744 0.0
H497 H 0.15285 0.0244 0.84632 0.0
H498 H 0.13142 0.0165 0.90341 0.0
H499 H 0.1483 0.07215 0.9046 0.0
C500 C 0.10696 0.93094 0.88915 0.0
C501 C 0.08414 0.91505 0.87569 0.0
C502 C 0.12723 0.96348 0.8881 0.0
C503 C 0.12495 0.98088 0.87366 0.0
C504 C 0.1041 0.96453 0.85939 0.0
C505 C 0.08398 0.93191 0.86036 0.0
C506 C 0.1617 0.06682 0.85983 0.0
C507 C 0.15967 0.08066 0.87607 0.0
C508 C 0.15216 0.03469 0.85916 0.0
C509 C 0.14055 0.01584 0.87473 0.0
C510 C 0.14055 0.03026 0.89118 0.0
C511 C 0.15 0.06224 0.89184 0.0
H512 H 0.07994 0.19074 0.88846 0.0
H513 H 0.06948 0.13295 0.842 0.0
H514 H 0.02398 0.17382 0.88722 0.0
H515 H 0.0133 0.11453 0.84131 0.0
H516 H 0.91155 0.07997 0.84281 0.0
H517 H 0.96731 0.11808 0.83828 0.0
H518 H 0.98074 0.12649 0.89623 0.0
H519 H 0.92536 0.0899 0.90066 0.0
C520 C 0.06572 0.17481 0.87779 0.0
C521 C 0.07892 0.16274 0.86552 0.0
C522 C 0.03358 0.1649 0.87714 0.0
C523 C 0.01378 0.14208 0.86449 0.0
C524 C 0.02764 0.13221 0.85122 0.0
C525 C 0.05994 0.14265 0.85165 0.0
C526 C 0.92629 0.09071 0.85455 0.0
C527 C 0.91408 0.0814 0.8721 0.0
C528 C 0.95835 0.11238 0.85196 0.0
C529 C 0.97885 0.12503 0.86685 0.0
C530 C 0.96591 0.11763 0.88436 0.0
C531 C 0.93396 0.09626 0.88694 0.0
H532 H 0.90876 0.81907 0.86026 0.0
H533 H 0.93378 0.85534 0.91467 0.0
H534 H 0.87146 0.83836 0.85874 0.0
H535 H 0.89788 0.8756 0.91292 0.0
H536 H 0.85652 0.9251 0.85385 0.0
H537 H 0.87658 0.8887 0.85545 0.0
H538 H 0.84733 0.86912 0.91136 0.0
H539 H 0.82873 0.90684 0.90993 0.0
C540 C 0.90597 0.8307 0.87199 0.0
C541 C 0.92461 0.83603 0.88749 0.0
C542 C 0.88476 0.84199 0.87108 0.0
C543 C 0.88188 0.85899 0.8856 0.0
C544 C 0.89903 0.86237 0.9015 0.0
C545 C 0.91996 0.85091 0.90247 0.0
C546 C 0.85381 0.91255 0.86638 0.0
C547 C 0.84159 0.91927 0.88185 0.0
C548 C 0.86517 0.89145 0.86729 0.0
C549 C 0.86413 0.87627 0.88365 0.0
C550 C 0.84937 0.88103 0.89868 0.0
C551 C 0.83851 0.90252 0.89784 0.0
H552 H 0.73688 0.4874 0.42985 0.0
H553 H 0.74536 0.505 0.48739 0.0
H554 H 0.68113 0.46968 0.43144 0.0
H555 H 0.68927 0.48805 0.48892 0.0
H556 H 0.5819 0.44094 0.43475 0.0
H557 H 0.63827 0.47831 0.43638 0.0
H558 H 0.64311 0.43709 0.48708 0.0
H559 H 0.58666 0.40067 0.48577 0.0
C560 C 0.72702 0.48831 0.4428 0.0
C561 C 0.74552 0.49707 0.45854 0.0
C562 C 0.69493 0.47836 0.4437 0.0
C563 C 0.68049 0.47705 0.46037 0.0
C564 C 0.69951 0.48821 0.47592 0.0
C565 C 0.73172 0.49814 0.47502 0.0
C566 C 0.59488 0.44043 0.44648 0.0
C567 C 0.57993 0.41746 0.45996 0.0
C568 C 0.62724 0.46175 0.44737 0.0
C569 C 0.64544 0.46028 0.46164 0.0
C570 C 0.62993 0.4391 0.47592 0.0
C571 C 0.59747 0.41802 0.47513 0.0
H572 H 0.51769 0.26358 0.42282 0.0
H573 H 0.48615 0.24248 0.47825 0.0
H574 H 0.53703 0.22692 0.42432 0.0
H575 H 0.50452 0.20441 0.47957 0.0
H576 H 0.56672 0.15687 0.42678 0.0
H577 H 0.52931 0.17593 0.42639 0.0
H578 H 0.55472 0.20855 0.48145 0.0
H579 H 0.5908 0.18803 0.48206 0.0
C580 C 0.51412 0.25049 0.43522 0.0
C581 C 0.50083 0.25642 0.45051 0.0
C582 C 0.52501 0.2291 0.43605 0.0
C583 C 0.52266 0.21276 0.45214 0.0
C584 C 0.50729 0.21701 0.46706 0.0
C585 C 0.49654 0.23867 0.46627 0.0
C586 C 0.56371 0.16744 0.43893 0.0
C587 C 0.58204 0.17139 0.45435 0.0
C588 C 0.54241 0.17857 0.43869 0.0
C589 C 0.53945 0.1945 0.45374 0.0
C590 C 0.5561 0.19628 0.46962 0.0
C591 C 0.57701 0.18464 0.46996 0.0
H592 H 0.85036 0.41288 0.44253 0.0
H593 H 0.79571 0.4022 0.4905 0.0
H594 H 0.83375 0.357 0.44342 0.0
H595 H 0.77754 0.34603 0.49089 0.0
H596 H 0.74502 0.24445 0.48929 0.0
H597 H 0.78229 0.30057 0.49332 0.0
H598 H 0.7861 0.31325 0.43533 0.0
H599 H 0.75036 0.25756 0.43137 0.0
C600 C 0.83513 0.39861 0.45342 0.0
C601 C 0.82391 0.41174 0.46628 0.0
C602 C 0.82541 0.36652 0.45388 0.0
C603 C 0.80359 0.34667 0.46694 0.0
C604 C 0.79446 0.36043 0.48067 0.0
C605 C 0.80475 0.3927 0.48042 0.0
C606 C 0.75458 0.25913 0.47741 0.0
C607 C 0.74425 0.24657 0.46002 0.0
C608 C 0.77575 0.29139 0.47972 0.0
C609 C 0.78689 0.31173 0.4647 0.0
C610 C 0.77843 0.29854 0.44728 0.0
C611 C 0.75757 0.26641 0.44499 0.0
H612 H 0.74361 0.24754 0.17848 0.0
H613 H 0.7459 0.25651 0.23666 0.0
H614 H 0.78381 0.30315 0.17597 0.0
H615 H 0.78472 0.31172 0.23418 0.0
H616 H 0.8555 0.4093 0.23031 0.0
H617 H 0.83535 0.35287 0.22735 0.0
H618 H 0.78382 0.35116 0.17949 0.0
H619 H 0.80535 0.40769 0.18197 0.0
C620 C 0.75294 0.26122 0.19074 0.0
C621 C 0.74117 0.24764 0.20776 0.0
C622 C 0.7759 0.29315 0.18929 0.0
C623 C 0.78746 0.31217 0.20484 0.0
C624 C 0.77692 0.29795 0.22187 0.0
C625 C 0.75424 0.26615 0.22331 0.0
C626 C 0.84076 0.39699 0.21881 0.0
C627 C 0.83155 0.41278 0.20656 0.0
C628 C 0.82894 0.36457 0.21718 0.0
C629 C 0.80708 0.34716 0.20353 0.0
C630 C 0.80056 0.36363 0.1902 0.0
C631 C 0.81289 0.39618 0.19163 0.0
H632 H 0.74108 0.50159 0.19798 0.0
H633 H 0.72883 0.45357 0.24889 0.0
H634 H 0.68468 0.48313 0.19707 0.0
H635 H 0.67271 0.43411 0.24764 0.0
H636 H 0.57322 0.40631 0.24677 0.0
H637 H 0.62978 0.44249 0.24894 0.0
H638 H 0.63846 0.43485 0.19122 0.0
H639 H 0.58175 0.40007 0.18903 0.0
C640 C 0.72642 0.48735 0.20906 0.0
C641 C 0.73944 0.4788 0.22342 0.0
C642 C 0.69403 0.47661 0.20849 0.0
C643 C 0.67391 0.45684 0.22218 0.0
C644 C 0.68732 0.44966 0.23696 0.0
C645 C 0.71965 0.46064 0.23762 0.0
C646 C 0.58717 0.41308 0.2345 0.0
C647 C 0.57316 0.40007 0.21777 0.0
C648 C 0.61965 0.43361 0.23575 0.0
C649 C 0.63895 0.44104 0.22034 0.0
C650 C 0.62449 0.4299 0.2034 0.0
C651 C 0.59188 0.40981 0.20211 0.0
H652 H 0.51831 0.25816 0.18062 0.0
H653 H 0.46729 0.21345 0.22949 0.0
H654 H 0.53784 0.22138 0.1792 0.0
H655 H 0.48544 0.17539 0.2276 0.0
H656 H 0.57373 0.15515 0.17887 0.0
H657 H 0.53452 0.17186 0.17621 0.0
H658 H 0.53452 0.18112 0.23436 0.0
H659 H 0.57224 0.16329 0.23699 0.0
C660 C 0.51034 0.23973 0.19071 0.0
C661 C 0.49183 0.23912 0.20538 0.0
C662 C 0.52142 0.2184 0.18985 0.0
C663 C 0.51382 0.1957 0.20351 0.0
C664 C 0.49259 0.19314 0.21714 0.0
C665 C 0.48199 0.21483 0.21818 0.0
C666 C 0.56461 0.15988 0.19109 0.0
C667 C 0.57659 0.15844 0.20812 0.0
C668 C 0.54231 0.16973 0.18956 0.0
C669 C 0.53166 0.17846 0.20503 0.0
C670 C 0.54179 0.17442 0.2221 0.0
C671 C 0.56381 0.16441 0.22363 0.0
H672 H 0.26053 0.7465 0.7607 0.0
H673 H 0.25004 0.74858 0.8186 0.0
H674 H 0.31631 0.78307 0.76342 0.0
H675 H 0.3062 0.78676 0.82132 0.0
H676 H 0.40937 0.80467 0.81882 0.0
H677 H 0.35288 0.78458 0.81966 0.0
H678 H 0.35928 0.83235 0.76932 0.0
H679 H 0.41556 0.85075 0.76804 0.0
C680 C 0.26999 0.75544 0.77402 0.0
C681 C 0.25082 0.74415 0.78946 0.0
C682 C 0.30216 0.77681 0.77558 0.0
C683 C 0.3161 0.78789 0.79264 0.0
C684 C 0.29649 0.77829 0.808 0.0
C685 C 0.26421 0.75653 0.80644 0.0
C686 C 0.39882 0.81158 0.8082 0.0
C687 C 0.41672 0.82877 0.7932 0.0
C688 C 0.36632 0.80012 0.80868 0.0
C689 C 0.35117 0.80612 0.79431 0.0
C690 C 0.36986 0.8263 0.78032 0.0
C691 C 0.40221 0.83714 0.77965 0.0
H692 H 0.2313 0.48329 0.76398 0.0
H693 H 0.26727 0.52661 0.8159 0.0
H694 H 0.19159 0.49935 0.7653 0.0
H695 H 0.22925 0.54464 0.81678 0.0
H696 H 0.15956 0.57616 0.81708 0.0
H697 H 0.17946 0.53939 0.81867 0.0
H698 H 0.19277 0.54619 0.76067 0.0
H699 H 0.17139 0.58097 0.75906 0.0
C700 C 0.23055 0.49611 0.77573 0.0
C701 C 0.25261 0.50408 0.78971 0.0
C702 C 0.20792 0.50554 0.77647 0.0
C703 C 0.20747 0.524 0.79096 0.0
C704 C 0.22843 0.53024 0.80546 0.0
C705 C 0.25052 0.5201 0.80492 0.0
C706 C 0.16586 0.56897 0.80464 0.0
C707 C 0.16442 0.582 0.78799 0.0
C708 C 0.17763 0.54813 0.80555 0.0
C709 C 0.18851 0.5402 0.78986 0.0
C710 C 0.18452 0.55131 0.7731 0.0
C711 C 0.17242 0.57167 0.77217 0.0
H712 H 0.50777 0.74366 0.81221 0.0
H713 H 0.47709 0.7324 0.75658 0.0
H714 H 0.49161 0.68781 0.81354 0.0
H715 H 0.4597 0.67683 0.7581 0.0
H716 H 0.43048 0.5779 0.76048 0.0
H717 H 0.4681 0.63428 0.76024 0.0
H718 H 0.44313 0.64096 0.81551 0.0
H719 H 0.40712 0.5845 0.81598 0.0
C720 C 0.49792 0.72937 0.8002 0.0
C721 C 0.49332 0.74242 0.78437 0.0
C722 C 0.48848 0.69728 0.80099 0.0
C723 C 0.47393 0.6775 0.78601 0.0
C724 C 0.47118 0.69114 0.76987 0.0
C725 C 0.48093 0.72317 0.76903 0.0
C726 C 0.43385 0.59134 0.77273 0.0
C727 C 0.41553 0.57691 0.78815 0.0
C728 C 0.45519 0.62373 0.77257 0.0
C729 C 0.45806 0.64251 0.78767 0.0
C730 C 0.44178 0.62746 0.80361 0.0
C731 C 0.42094 0.59495 0.80389 0.0
H732 H 0.49308 0.7504 0.57949 0.0
H733 H 0.47883 0.74093 0.52173 0.0
H734 H 0.47223 0.69381 0.58204 0.0
H735 H 0.45642 0.68423 0.52429 0.0
H736 H 0.42072 0.58166 0.53173 0.0
H737 H 0.45827 0.6381 0.53045 0.0
H738 H 0.42114 0.6508 0.58084 0.0
H739 H 0.3849 0.59462 0.58247 0.0
C740 C 0.48589 0.73623 0.5673 0.0
C741 C 0.48723 0.75002 0.55044 0.0
C742 C 0.47366 0.70373 0.56876 0.0
C743 C 0.46184 0.68418 0.55344 0.0
C744 C 0.4654 0.69838 0.5364 0.0
C745 C 0.4782 0.731 0.53491 0.0
C746 C 0.42101 0.59651 0.54268 0.0
C747 C 0.3996 0.58365 0.55713 0.0
C748 C 0.44243 0.62892 0.5419 0.0
C749 C 0.44269 0.64924 0.55545 0.0
C750 C 0.42216 0.63604 0.57027 0.0
C751 C 0.40107 0.60368 0.57115 0.0
H752 H 0.25348 0.7526 0.56828 0.0
H753 H 0.24356 0.74856 0.51014 0.0
H754 H 0.30884 0.79057 0.56538 0.0
H755 H 0.29929 0.78808 0.50719 0.0
H756 H 0.40809 0.85769 0.56022 0.0
H757 H 0.35188 0.83941 0.55816 0.0
H758 H 0.34576 0.7855 0.51046 0.0
H759 H 0.40206 0.8052 0.51201 0.0
C760 C 0.26292 0.76052 0.55484 0.0
C761 C 0.24417 0.74694 0.53943 0.0
C762 C 0.29485 0.7827 0.55316 0.0
C763 C 0.30889 0.79223 0.53601 0.0
C764 C 0.28947 0.78077 0.52061 0.0
C765 C 0.25744 0.75827 0.52229 0.0
C766 C 0.39483 0.84265 0.54901 0.0
C767 C 0.40936 0.83242 0.53647 0.0
C768 C 0.36254 0.83197 0.54788 0.0
C769 C 0.34395 0.81024 0.53443 0.0
C770 C 0.35913 0.80229 0.52097 0.0
C771 C 0.39153 0.81347 0.52191 0.0
H772 H 0.26087 0.51332 0.51732 0.0
H773 H 0.21644 0.46912 0.56776 0.0
H774 H 0.2263 0.53534 0.51475 0.0
H775 H 0.1805 0.48972 0.56475 0.0
H776 H 0.17476 0.58036 0.57138 0.0
H777 H 0.19065 0.54103 0.56988 0.0
H778 H 0.17856 0.53579 0.51183 0.0
H779 H 0.16373 0.57654 0.51331 0.0
C780 C 0.24278 0.50718 0.52748 0.0
C781 C 0.24184 0.49008 0.54295 0.0
C782 C 0.22279 0.51978 0.526 0.0
C783 C 0.2011 0.51512 0.53982 0.0
C784 C 0.19765 0.49474 0.55416 0.0
C785 C 0.21804 0.48265 0.55582 0.0
C786 C 0.17499 0.57057 0.55828 0.0
C787 C 0.16847 0.58206 0.54243 0.0
C788 C 0.18383 0.54759 0.55743 0.0
C789 C 0.18611 0.53516 0.54071 0.0
C790 C 0.17759 0.54518 0.52492 0.0
C791 C 0.16894 0.56845 0.52577 0.0
H792 H 0.20898 0.21769 0.04352 0.0
H793 H 0.1343 0.12128 0.03661 0.0
H794 H 0.21074 0.22523 0.01054 0.0
H795 H 0.1364 0.12862 0.00421 0.0
H796 H 0.11657 0.15746 0.95181 0.0
H797 H 0.12077 0.15875 0.9845 0.0
H798 H 0.22228 0.20632 0.98041 0.0
H799 H 0.21804 0.20566 0.94724 0.0
C800 C 0.19322 0.1981 0.035 0.0
C801 C 0.1712 0.16903 0.04269 0.0
C802 C 0.19427 0.20241 0.01617 0.0
C803 C 0.17325 0.17771 0.00483 0.0
C804 C 0.15232 0.14839 0.01258 0.0
C805 C 0.15123 0.14414 0.03121 0.0
C806 C 0.13986 0.16856 0.95782 0.0
C807 C 0.16696 0.181 0.94696 0.0
C808 C 0.14226 0.16919 0.97658 0.0
C809 C 0.17182 0.18194 0.98503 0.0
C810 C 0.19918 0.19625 0.97426 0.0
C811 C 0.19676 0.19584 0.95531 0.0
H812 H 0.87525 0.04326 0.95606 0.0
H813 H 0.77444 0.98194 0.95271 0.0
H814 H 0.87184 0.04422 0.98876 0.0
H815 H 0.77104 0.98203 0.98592 0.0
H816 H 0.78259 0.00972 0.04825 0.0
H817 H 0.78009 0.01373 0.01516 0.0
H818 H 0.86137 0.0018 0.00977 0.0
H819 H 0.86421 0.99842 0.0422 0.0
C820 C 0.85226 0.03017 0.96236 0.0
C821 C 0.82518 0.01211 0.95191 0.0
C822 C 0.85031 0.03062 0.98111 0.0
C823 C 0.82128 0.01253 0.98995 0.0
C824 C 0.79374 0.99613 0.97947 0.0
C825 C 0.79567 0.99603 0.96051 0.0
C826 C 0.79982 0.00795 0.03991 0.0
C827 C 0.82384 0.00419 0.04786 0.0
C828 C 0.79833 0.01015 0.02102 0.0
C829 C 0.82092 0.00872 0.00989 0.0
C830 C 0.84414 0.00391 0.01794 0.0
C831 C 0.84566 0.0018 0.03661 0.0
H832 H 0.98718 0.7713 0.95588 0.0
H833 H 0.0467 0.872 0.96184 0.0
H834 H 0.98272 0.76583 0.989 0.0
H835 H 0.04279 0.86652 0.99448 0.0
H836 H 0.98792 0.85415 0.04518 0.0
H837 H 0.99483 0.85237 0.01292 0.0
H838 H 0.01307 0.77539 0.01991 0.0
H839 H 0.00578 0.77694 0.05278 0.0
C840 C -0.0001 0.79208 0.96425 0.0
C841 C 0.0168 0.82213 0.95633 0.0
C842 C 0.99737 0.78895 0.98315 0.0
C843 C 0.01184 0.81585 0.99427 0.0
C844 C 0.03074 0.84546 0.98625 0.0
C845 C 0.03304 0.84858 0.96754 0.0
C846 C 0.99331 0.8367 0.03996 0.0
C847 C 0.99672 0.81596 0.05161 0.0
C848 C 0.9974 0.83579 0.02143 0.0
C849 C 0.00515 0.8142 0.01393 0.0
C850 C 0.00725 0.79238 0.02538 0.0
C851 C 0.00314 0.79331 0.04414 0.0
H852 H 0.83891 0.44934 0.2946 0.0
H853 H 0.8679 0.54811 0.29078 0.0
H854 H 0.8426 0.45342 0.32732 0.0
H855 H 0.87073 0.55207 0.32395 0.0
H856 H 0.88704 0.54453 0.3865 0.0
H857 H 0.89511 0.5467 0.35356 0.0
H858 H 0.80682 0.45956 0.34779 0.0
H859 H 0.79904 0.45714 0.38011 0.0
C860 C 0.84645 0.47207 0.30079 0.0
C861 C 0.85262 0.49828 0.29019 0.0
C862 C 0.84845 0.47439 0.31955 0.0
C863 C 0.85617 0.50287 0.32824 0.0
C864 C 0.86466 0.5298 0.31762 0.0
C865 C 0.863 0.52753 0.29868 0.0
C866 C 0.86947 0.52591 0.37812 0.0
C867 C 0.84256 0.50051 0.38595 0.0
C868 C 0.87404 0.5272 0.3593 0.0
C869 C 0.85187 0.50301 0.34812 0.0
C870 C 0.82477 0.47815 0.35603 0.0
C871 C 0.82021 0.47689 0.37463 0.0
H872 H 0.44002 0.33348 0.28411 0.0
H873 H 0.49555 0.28849 0.29307 0.0
H874 H 0.43986 0.34223 0.3169 0.0
H875 H 0.49527 0.29712 0.32536 0.0
H876 H 0.53338 0.36176 0.37298 0.0
H877 H 0.52385 0.35221 0.34081 0.0
H878 H 0.42379 0.31104 0.34963 0.0
H879 H 0.43331 0.32066 0.38234 0.0
C880 C 0.45153 0.32487 0.29306 0.0
C881 C 0.46824 0.31077 0.28601 0.0
C882 C 0.45144 0.32988 0.31177 0.0
C883 C 0.46808 0.32088 0.32354 0.0
C884 C 0.48278 0.30484 0.31653 0.0
C885 C 0.48287 0.29986 0.29802 0.0
C886 C 0.5093 0.35098 0.36815 0.0
C887 C 0.48405 0.34152 0.38025 0.0
C888 C 0.50387 0.34547 0.3497 0.0
C889 C 0.47306 0.33035 0.34282 0.0
C890 C 0.44776 0.32264 0.35466 0.0
C891 C 0.45322 0.32814 0.37332 0.0
H892 H 0.64847 0.1066 0.38067 0.0
H893 H 0.69316 0.20784 0.37604 0.0
H894 H 0.64686 0.10228 0.34746 0.0
H895 H 0.69225 0.20365 0.34339 0.0
H896 H 0.64459 0.18624 0.29009 0.0
H897 H 0.64736 0.18404 0.32266 0.0
H898 H 0.67954 0.11673 0.31802 0.0
H899 H 0.67616 0.11849 0.28486 0.0
C900 C 0.65842 0.12787 0.37259 0.0
C901 C 0.67039 0.15751 0.38091 0.0
C902 C 0.65756 0.12542 0.35364 0.0
C903 C 0.66878 0.15259 0.34284 0.0
C904 C 0.6826 0.18221 0.35131 0.0
C905 C 0.68321 0.18461 0.37005 0.0
C906 C 0.65219 0.17083 0.29591 0.0
C907 C 0.66063 0.1529 0.28486 0.0
C908 C 0.65389 0.16967 0.31463 0.0
C909 C 0.66436 0.15076 0.32291 0.0
C910 C 0.67151 0.13162 0.31198 0.0
C911 C 0.66965 0.13268 0.29305 0.0
H912 H 0.45233 0.8434 0.62215 0.0
H913 H 0.55206 0.87705 0.61754 0.0
H914 H 0.45667 0.8456 0.65488 0.0
H915 H 0.55634 0.87843 0.65073 0.0
H916 H 0.54698 0.89086 0.71399 0.0
H917 H 0.54925 0.90042 0.68118 0.0
H918 H 0.46544 0.80968 0.67404 0.0
H919 H 0.46291 0.80039 0.70622 0.0
C920 C 0.47532 0.85169 0.62819 0.0
C921 C 0.50176 0.85958 0.61736 0.0
C922 C 0.47779 0.85284 0.64694 0.0
C923 C 0.50668 0.8614 0.65537 0.0
C924 C 0.53376 0.87166 0.64458 0.0
C925 C 0.53132 0.87085 0.62563 0.0
C926 C 0.52916 0.87304 0.70533 0.0
C927 C 0.50455 0.84505 0.71274 0.0
C928 C 0.5305 0.87848 0.6866 0.0
C929 C 0.50715 0.85607 0.6751 0.0
C930 C 0.48329 0.8278 0.68256 0.0
C931 C 0.48196 0.82241 0.70107 0.0
H932 H 0.10459 0.64987 0.61715 0.0
H933 H 0.20512 0.68793 0.62207 0.0
H934 H 0.10013 0.6486 0.65037 0.0
H935 H 0.20078 0.68725 0.65466 0.0
H936 H 0.18111 0.64154 0.70821 0.0
H937 H 0.17763 0.64211 0.6756 0.0
H938 H 0.11762 0.68313 0.67961 0.0
H939 H 0.12057 0.68191 0.71285 0.0
C940 C 0.12568 0.65833 0.62528 0.0
C941 C 0.15511 0.66843 0.61703 0.0
C942 C 0.12315 0.65769 0.64423 0.0
C943 C 0.15003 0.66719 0.65508 0.0
C944 C 0.17952 0.67896 0.64669 0.0
C945 C 0.182 0.67941 0.62797 0.0
C946 C 0.16699 0.65057 0.70224 0.0
C947 C 0.15159 0.66225 0.71309 0.0
C948 C 0.16506 0.65095 0.68351 0.0
C949 C 0.14798 0.66337 0.67504 0.0
C950 C 0.13106 0.67355 0.68581 0.0
C951 C 0.13282 0.67293 0.70477 0.0
H952 H 0.2716 0.46099 0.6293 0.0
H953 H 0.35866 0.46117 0.61983 0.0
H954 H 0.27551 0.45301 0.66161 0.0
H955 H 0.36325 0.45446 0.65244 0.0
H956 H 0.3721 0.51284 0.7092 0.0
H957 H 0.36809 0.50123 0.67684 0.0
H958 H 0.2829 0.4127 0.68623 0.0
H959 H 0.28773 0.42379 0.71893 0.0
C960 C 0.29115 0.45852 0.63412 0.0
C961 C 0.31484 0.46168 0.62217 0.0
C962 C 0.2933 0.4538 0.65256 0.0
C963 C 0.31961 0.45304 0.65942 0.0
C964 C 0.3426 0.45469 0.64738 0.0
C965 C 0.33996 0.45847 0.62879 0.0
C966 C 0.35311 0.49044 0.70439 0.0
C967 C 0.33026 0.46914 0.71643 0.0
C968 C 0.35091 0.48375 0.68594 0.0
C969 C 0.32529 0.45603 0.67914 0.0
C970 C 0.30302 0.43407 0.69125 0.0
C971 C 0.30579 0.44037 0.70987 0.0
loop_
_geom_bond_atom_site_label_1
_geom_bond_atom_site_label_2
_geom_bond_distance
_geom_bond_site_symmetry_2
_ccdc_geom_bond_type
O0 Cd1 2.223 . S
O0 C8 1.315 . S
Cd1 O0 2.223 . S
Cd1 O4 2.297 . S
Cd1 O5 2.439 . S
Cd1 O11 2.240 . S
Cd2 O3 2.240 . S
Cd2 O10 2.223 . S
Cd2 O12 2.297 . S
Cd2 O13 2.439 . S
O3 Cd2 2.240 . S
O3 C8 1.279 . S
O4 Cd1 2.297 . S
O4 C6 1.247 . S
O5 Cd1 2.439 . S
O5 C6 1.208 . S
C6 O4 1.247 . S
C6 O5 1.208 . S
C7 O12 1.247 . S
C7 O13 1.208 . S
C8 O0 1.315 . S
C8 O3 1.279 . S
C9 O10 1.315 . S
C9 O11 1.279 . S
O10 Cd2 2.223 . S
O10 C9 1.315 . S
O11 Cd1 2.240 . S
O11 C9 1.279 . S
O12 Cd2 2.297 . S
O12 C7 1.247 . S
O13 Cd2 2.439 . S
O13 C7 1.208 . S
O14 Cd15 2.223 1_545 S
O14 C22 1.315 . S
Cd15 O14 2.223 1_565 S
Cd15 O18 2.297 1_565 S
Cd15 O19 2.439 1_565 S
Cd15 O25 2.240 . S
Cd16 O17 2.240 . S
Cd16 O24 2.223 1_545 S
Cd16 O26 2.297 1_545 S
Cd16 O27 2.439 1_545 S
O17 Cd16 2.240 . S
O17 C22 1.279 . S
O18 Cd15 2.297 1_545 S
O18 C20 1.247 . S
O19 Cd15 2.439 1_545 S
O19 C20 1.208 . S
C20 O18 1.247 . S
C20 O19 1.208 . S
C21 O26 1.247 . S
C21 O27 1.208 . S
C22 O14 1.315 . S
C22 O17 1.279 . S
C23 O24 1.315 . S
C23 O25 1.279 . S
O24 Cd16 2.223 1_565 S
O24 C23 1.315 . S
O25 Cd15 2.240 . S
O25 C23 1.279 . S
O26 Cd16 2.297 1_565 S
O26 C21 1.247 . S
O27 Cd16 2.439 1_565 S
O27 C21 1.208 . S
O28 Cd29 2.223 1_655 S
O28 C36 1.315 . S
Cd29 O28 2.223 1_455 S
Cd29 O32 2.297 1_455 S
Cd29 O33 2.439 1_455 S
Cd29 O39 2.240 . S
Cd30 O31 2.240 . S
Cd30 O38 2.223 1_655 S
Cd30 O40 2.297 1_655 S
Cd30 O41 2.439 1_655 S
O31 Cd30 2.240 . S
O31 C36 1.279 . S
O32 Cd29 2.297 1_655 S
O32 C34 1.247 . S
O33 Cd29 2.439 1_655 S
O33 C34 1.208 . S
C34 O32 1.247 . S
C34 O33 1.208 . S
C35 O40 1.247 . S
C35 O41 1.208 . S
C36 O28 1.315 . S
C36 O31 1.279 . S
C37 O38 1.315 . S
C37 O39 1.279 . S
O38 Cd30 2.223 1_455 S
O38 C37 1.315 . S
O39 Cd29 2.240 . S
O39 C37 1.279 . S
O40 Cd30 2.297 1_455 S
O40 C35 1.247 . S
O41 Cd30 2.439 1_455 S
O41 C35 1.208 . S
O42 Cd43 2.223 . S
O42 C50 1.315 . S
Cd43 O42 2.223 . S
Cd43 O46 2.297 . S
Cd43 O47 2.439 . S
Cd43 O53 2.240 . S
Cd44 O45 2.240 . S
Cd44 O52 2.223 . S
Cd44 O54 2.297 . S
Cd44 O55 2.439 . S
O45 Cd44 2.240 . S
O45 C50 1.279 . S
O46 Cd43 2.297 . S
O46 C48 1.247 . S
O47 Cd43 2.439 . S
O47 C48 1.208 . S
C48 O46 1.247 . S
C48 O47 1.208 . S
C49 O54 1.247 . S
C49 O55 1.208 . S
C50 O42 1.315 . S
C50 O45 1.279 . S
C51 O52 1.315 . S
C51 O53 1.279 . S
O52 Cd44 2.223 . S
O52 C51 1.315 . S
O53 Cd43 2.240 . S
O53 C51 1.279 . S
O54 Cd44 2.297 . S
O54 C49 1.247 . S
O55 Cd44 2.439 . S
O55 C49 1.208 . S
O56 Cd57 2.223 1_565 S
O56 C64 1.315 . S
Cd57 O56 2.223 1_545 S
Cd57 O60 2.297 1_545 S
Cd57 O61 2.439 1_545 S
Cd57 O67 2.240 . S
Cd58 O59 2.240 . S
Cd58 O66 2.223 1_565 S
Cd58 O68 2.297 1_565 S
Cd58 O69 2.439 1_565 S
O59 Cd58 2.240 . S
O59 C64 1.279 . S
O60 Cd57 2.297 1_565 S
O60 C62 1.247 . S
O61 Cd57 2.439 1_565 S
O61 C62 1.208 . S
C62 O60 1.247 . S
C62 O61 1.208 . S
C63 O68 1.247 . S
C63 O69 1.208 . S
C64 O56 1.315 . S
C64 O59 1.279 . S
C65 O66 1.315 . S
C65 O67 1.279 . S
O66 Cd58 2.223 1_545 S
O66 C65 1.315 . S
O67 Cd57 2.240 . S
O67 C65 1.279 . S
O68 Cd58 2.297 1_545 S
O68 C63 1.247 . S
O69 Cd58 2.439 1_545 S
O69 C63 1.208 . S
O70 Cd71 2.223 1_455 S
O70 C78 1.315 . S
Cd71 O70 2.223 1_655 S
Cd71 O74 2.297 1_655 S
Cd71 O75 2.439 1_655 S
Cd71 O81 2.240 . S
Cd72 O73 2.240 . S
Cd72 O80 2.223 1_455 S
Cd72 O82 2.297 1_455 S
Cd72 O83 2.439 1_455 S
O73 Cd72 2.240 . S
O73 C78 1.279 . S
O74 Cd71 2.297 1_455 S
O74 C76 1.247 . S
O75 Cd71 2.439 1_455 S
O75 C76 1.208 . S
C76 O74 1.247 . S
C76 O75 1.208 . S
C77 O82 1.247 . S
C77 O83 1.208 . S
C78 O70 1.315 . S
C78 O73 1.279 . S
C79 O80 1.315 . S
C79 O81 1.279 . S
O80 Cd72 2.223 1_655 S
O80 C79 1.315 . S
O81 Cd71 2.240 . S
O81 C79 1.279 . S
O82 Cd72 2.297 1_655 S
O82 C77 1.247 . S
O83 Cd72 2.439 1_655 S
O83 C77 1.208 . S
O84 Cd85 2.223 . S
O84 C92 1.315 . S
Cd85 O84 2.223 . S
Cd85 O88 2.297 . S
Cd85 O89 2.439 . S
Cd85 O95 2.240 . S
Cd86 O87 2.240 . S
Cd86 O94 2.223 . S
Cd86 O96 2.297 . S
Cd86 O97 2.439 . S
O87 Cd86 2.240 . S
O87 C92 1.279 . S
O88 Cd85 2.297 . S
O88 C90 1.247 . S
O89 Cd85 2.439 . S
O89 C90 1.208 . S
C90 O88 1.247 . S
C90 O89 1.208 . S
C91 O96 1.247 . S
C91 O97 1.208 . S
C92 O84 1.315 . S
C92 O87 1.279 . S
C93 O94 1.315 . S
C93 O95 1.279 . S
O94 Cd86 2.223 . S
O94 C93 1.315 . S
O95 Cd85 2.240 . S
O95 C93 1.279 . S
O96 Cd86 2.297 . S
O96 C91 1.247 . S
O97 Cd86 2.439 . S
O97 C91 1.208 . S
O98 Cd99 2.223 . S
O98 C106 1.315 . S
Cd99 O98 2.223 . S
Cd99 O102 2.297 . S
Cd99 O103 2.439 . S
Cd99 O109 2.240 . S
Cd100 O101 2.240 . S
Cd100 O108 2.223 . S
Cd100 O110 2.297 . S
Cd100 O111 2.439 . S
O101 Cd100 2.240 . S
O101 C106 1.279 . S
O102 Cd99 2.297 . S
O102 C104 1.247 . S
O103 Cd99 2.439 . S
O103 C104 1.208 . S
C104 O102 1.247 . S
C104 O103 1.208 . S
C105 O110 1.247 . S
C105 O111 1.208 . S
C106 O98 1.315 . S
C106 O101 1.279 . S
C107 O108 1.315 . S
C107 O109 1.279 . S
O108 Cd100 2.223 . S
O108 C107 1.315 . S
O109 Cd99 2.240 . S
O109 C107 1.279 . S
O110 Cd100 2.297 . S
O110 C105 1.247 . S
O111 Cd100 2.439 . S
O111 C105 1.208 . S
O112 Cd113 2.223 . S
O112 C120 1.315 . S
Cd113 O112 2.223 . S
Cd113 O116 2.297 . S
Cd113 O117 2.439 . S
Cd113 O123 2.240 . S
Cd114 O115 2.240 . S
Cd114 O122 2.223 . S
Cd114 O124 2.297 . S
Cd114 O125 2.439 . S
O115 Cd114 2.240 . S
O115 C120 1.279 . S
O116 Cd113 2.297 . S
O116 C118 1.247 . S
O117 Cd113 2.439 . S
O117 C118 1.208 . S
C118 O116 1.247 . S
C118 O117 1.208 . S
C119 O124 1.247 . S
C119 O125 1.208 . S
C120 O112 1.315 . S
C120 O115 1.279 . S
C121 O122 1.315 . S
C121 O123 1.279 . S
O122 Cd114 2.223 . S
O122 C121 1.315 . S
O123 Cd113 2.240 . S
O123 C121 1.279 . S
O124 Cd114 2.297 . S
O124 C119 1.247 . S
O125 Cd114 2.439 . S
O125 C119 1.208 . S
O126 Cd127 2.223 . S
O126 C134 1.315 . S
Cd127 O126 2.223 . S
Cd127 O130 2.297 . S
Cd127 O131 2.439 . S
Cd127 O137 2.240 . S
Cd128 O129 2.240 . S
Cd128 O136 2.223 . S
Cd128 O138 2.297 . S
Cd128 O139 2.439 . S
O129 Cd128 2.240 . S
O129 C134 1.279 . S
O130 Cd127 2.297 . S
O130 C132 1.247 . S
O131 Cd127 2.439 . S
O131 C132 1.208 . S
C132 O130 1.247 . S
C132 O131 1.208 . S
C133 O138 1.247 . S
C133 O139 1.208 . S
C134 O126 1.315 . S
C134 O129 1.279 . S
C135 O136 1.315 . S
C135 O137 1.279 . S
O136 Cd128 2.223 . S
O136 C135 1.315 . S
O137 Cd127 2.240 . S
O137 C135 1.279 . S
O138 Cd128 2.297 . S
O138 C133 1.247 . S
O139 Cd128 2.439 . S
O139 C133 1.208 . S
O140 Cd141 2.223 . S
O140 C148 1.315 . S
Cd141 O140 2.223 . S
Cd141 O144 2.297 . S
Cd141 O145 2.439 . S
Cd141 O151 2.240 . S
Cd142 O143 2.240 . S
Cd142 O150 2.223 . S
Cd142 O152 2.297 . S
Cd142 O153 2.439 . S
O143 Cd142 2.240 . S
O143 C148 1.279 . S
O144 Cd141 2.297 . S
O144 C146 1.247 . S
O145 Cd141 2.439 . S
O145 C146 1.208 . S
C146 O144 1.247 . S
C146 O145 1.208 . S
C147 O152 1.247 . S
C147 O153 1.208 . S
C148 O140 1.315 . S
C148 O143 1.279 . S
C149 O150 1.315 . S
C149 O151 1.279 . S
O150 Cd142 2.223 . S
O150 C149 1.315 . S
O151 Cd141 2.240 . S
O151 C149 1.279 . S
O152 Cd142 2.297 . S
O152 C147 1.247 . S
O153 Cd142 2.439 . S
O153 C147 1.208 . S
O154 Cd155 2.223 . S
O154 C162 1.315 . S
Cd155 O154 2.223 . S
Cd155 O158 2.297 . S
Cd155 O159 2.439 . S
Cd155 O165 2.240 . S
Cd156 O157 2.240 . S
Cd156 O164 2.223 . S
Cd156 O166 2.297 . S
Cd156 O167 2.439 . S
O157 Cd156 2.240 . S
O157 C162 1.279 . S
O158 Cd155 2.297 . S
O158 C160 1.247 . S
O159 Cd155 2.439 . S
O159 C160 1.208 . S
C160 O158 1.247 . S
C160 O159 1.208 . S
C161 O166 1.247 . S
C161 O167 1.208 . S
C162 O154 1.315 . S
C162 O157 1.279 . S
C163 O164 1.315 . S
C163 O165 1.279 . S
O164 Cd156 2.223 . S
O164 C163 1.315 . S
O165 Cd155 2.240 . S
O165 C163 1.279 . S
O166 Cd156 2.297 . S
O166 C161 1.247 . S
O167 Cd156 2.439 . S
O167 C161 1.208 . S
O168 Cd169 2.223 . S
O168 C176 1.315 . S
Cd169 O168 2.223 . S
Cd169 O172 2.297 . S
Cd169 O173 2.439 . S
Cd169 O179 2.240 . S
Cd170 O171 2.240 . S
Cd170 O178 2.223 . S
Cd170 O180 2.297 . S
Cd170 O181 2.439 . S
O171 Cd170 2.240 . S
O171 C176 1.279 . S
O172 Cd169 2.297 . S
O172 C174 1.247 . S
O173 Cd169 2.439 . S
O173 C174 1.208 . S
C174 O172 1.247 . S
C174 O173 1.208 . S
C175 O180 1.247 . S
C175 O181 1.208 . S
C176 O168 1.315 . S
C176 O171 1.279 . S
C177 O178 1.315 . S
C177 O179 1.279 . S
O178 Cd170 2.223 . S
O178 C177 1.315 . S
O179 Cd169 2.240 . S
O179 C177 1.279 . S
O180 Cd170 2.297 . S
O180 C175 1.247 . S
O181 Cd170 2.439 . S
O181 C175 1.208 . S
O182 Cd183 2.223 . S
O182 C190 1.315 . S
Cd183 O182 2.223 . S
Cd183 O186 2.297 . S
Cd183 O187 2.439 . S
Cd183 O193 2.240 . S
Cd184 O185 2.240 . S
Cd184 O192 2.223 . S
Cd184 O194 2.297 . S
Cd184 O195 2.439 . S
O185 Cd184 2.240 . S
O185 C190 1.279 . S
O186 Cd183 2.297 . S
O186 C188 1.247 . S
O187 Cd183 2.439 . S
O187 C188 1.208 . S
C188 O186 1.247 . S
C188 O187 1.208 . S
C189 O194 1.247 . S
C189 O195 1.208 . S
C190 O182 1.315 . S
C190 O185 1.279 . S
C191 O192 1.315 . S
C191 O193 1.279 . S
O192 Cd184 2.223 . S
O192 C191 1.315 . S
O193 Cd183 2.240 . S
O193 C191 1.279 . S
O194 Cd184 2.297 . S
O194 C189 1.247 . S
O195 Cd184 2.439 . S
O195 C189 1.208 . S
O196 Cd197 2.223 . S
O196 C204 1.315 . S
Cd197 O196 2.223 . S
Cd197 O200 2.297 . S
Cd197 O201 2.439 . S
Cd197 O207 2.240 . S
Cd198 O199 2.240 . S
Cd198 O206 2.223 . S
Cd198 O208 2.297 . S
Cd198 O209 2.439 . S
O199 Cd198 2.240 . S
O199 C204 1.279 . S
O200 Cd197 2.297 . S
O200 C202 1.247 . S
O201 Cd197 2.439 . S
O201 C202 1.208 . S
C202 O200 1.247 . S
C202 O201 1.208 . S
C203 O208 1.247 . S
C203 O209 1.208 . S
C204 O196 1.315 . S
C204 O199 1.279 . S
C205 O206 1.315 . S
C205 O207 1.279 . S
O206 Cd198 2.223 . S
O206 C205 1.315 . S
O207 Cd197 2.240 . S
O207 C205 1.279 . S
O208 Cd198 2.297 . S
O208 C203 1.247 . S
O209 Cd198 2.439 . S
O209 C203 1.208 . S
O210 Cd211 2.223 . S
O210 C218 1.315 . S
Cd211 O210 2.223 . S
Cd211 O214 2.297 . S
Cd211 O215 2.439 . S
Cd211 O221 2.240 . S
Cd212 O213 2.240 . S
Cd212 O220 2.223 . S
Cd212 O222 2.297 . S
Cd212 O223 2.439 . S
O213 Cd212 2.240 . S
O213 C218 1.279 . S
O214 Cd211 2.297 . S
O214 C216 1.247 . S
O215 Cd211 2.439 . S
O215 C216 1.208 . S
C216 O214 1.247 . S
C216 O215 1.208 . S
C217 O222 1.247 . S
C217 O223 1.208 . S
C218 O210 1.315 . S
C218 O213 1.279 . S
C219 O220 1.315 . S
C219 O221 1.279 . S
O220 Cd212 2.223 . S
O220 C219 1.315 . S
O221 Cd211 2.240 . S
O221 C219 1.279 . S
O222 Cd212 2.297 . S
O222 C217 1.247 . S
O223 Cd212 2.439 . S
O223 C217 1.208 . S
O224 Cd225 2.223 . S
O224 C232 1.315 . S
Cd225 O224 2.223 . S
Cd225 O228 2.297 . S
Cd225 O229 2.439 . S
Cd225 O235 2.240 . S
Cd226 O227 2.240 . S
Cd226 O234 2.223 . S
Cd226 O236 2.297 . S
Cd226 O237 2.439 . S
O227 Cd226 2.240 . S
O227 C232 1.279 . S
O228 Cd225 2.297 . S
O228 C230 1.247 . S
O229 Cd225 2.439 . S
O229 C230 1.208 . S
C230 O228 1.247 . S
C230 O229 1.208 . S
C231 O236 1.247 . S
C231 O237 1.208 . S
C232 O224 1.315 . S
C232 O227 1.279 . S
C233 O234 1.315 . S
C233 O235 1.279 . S
O234 Cd226 2.223 . S
O234 C233 1.315 . S
O235 Cd225 2.240 . S
O235 C233 1.279 . S
O236 Cd226 2.297 . S
O236 C231 1.247 . S
O237 Cd226 2.439 . S
O237 C231 1.208 . S
O238 Cd239 2.223 . S
O238 C246 1.315 . S
Cd239 O238 2.223 . S
Cd239 O242 2.297 . S
Cd239 O243 2.439 . S
Cd239 O249 2.240 . S
Cd240 O241 2.240 . S
Cd240 O248 2.223 . S
Cd240 O250 2.297 . S
Cd240 O251 2.439 . S
O241 Cd240 2.240 . S
O241 C246 1.279 . S
O242 Cd239 2.297 . S
O242 C244 1.247 . S
O243 Cd239 2.439 . S
O243 C244 1.208 . S
C244 O242 1.247 . S
C244 O243 1.208 . S
C245 O250 1.247 . S
C245 O251 1.208 . S
C246 O238 1.315 . S
C246 O241 1.279 . S
C247 O248 1.315 . S
C247 O249 1.279 . S
O248 Cd240 2.223 . S
O248 C247 1.315 . S
O249 Cd239 2.240 . S
O249 C247 1.279 . S
O250 Cd240 2.297 . S
O250 C245 1.247 . S
O251 Cd240 2.439 . S
O251 C245 1.208 . S
H252 C260 0.950 . S
H253 C265 0.950 . S
H254 C262 0.950 . S
H255 C264 0.950 . S
H256 C266 0.950 . S
H257 C268 0.950 . S
H258 C270 0.950 . S
H259 C271 0.950 . S
C260 H252 0.950 . S
C260 C261 1.386 . S
C260 C262 1.391 . S
C261 C260 1.386 . S
C261 C265 1.393 . S
C262 H254 0.950 . S
C262 C260 1.391 . S
C262 C263 1.400 . S
C263 C262 1.400 . S
C263 C264 1.398 . S
C263 C269 1.491 . S
C264 H255 0.950 . S
C264 C263 1.398 . S
C264 C265 1.391 . S
C265 H253 0.950 . S
C265 C261 1.393 . S
C265 C264 1.391 . S
C266 H256 0.950 . S
C266 C267 1.386 . S
C266 C268 1.391 . S
C267 C266 1.386 . S
C267 C271 1.393 . S
C268 H257 0.950 . S
C268 C266 1.391 . S
C268 C269 1.400 . S
C269 C263 1.491 . S
C269 C268 1.400 . S
C269 C270 1.398 . S
C270 H258 0.950 . S
C270 C269 1.398 . S
C270 C271 1.391 . S
C271 H259 0.950 . S
C271 C267 1.393 . S
C271 C270 1.391 . S
H272 C280 0.950 . S
H273 C285 0.950 . S
H274 C282 0.950 . S
H275 C284 0.950 . S
H276 C286 0.950 . S
H277 C288 0.950 . S
H278 C290 0.950 . S
H279 C291 0.950 . S
C280 H272 0.950 . S
C280 C281 1.386 . S
C280 C282 1.391 . S
C281 C280 1.386 . S
C281 C285 1.393 . S
C282 H274 0.950 . S
C282 C280 1.391 . S
C282 C283 1.400 . S
C283 C282 1.400 . S
C283 C284 1.398 . S
C283 C289 1.491 . S
C284 H275 0.950 . S
C284 C283 1.398 . S
C284 C285 1.391 . S
C285 H273 0.950 . S
C285 C281 1.393 . S
C285 C284 1.391 . S
C286 H276 0.950 . S
C286 C287 1.386 . S
C286 C288 1.391 . S
C287 C286 1.386 . S
C287 C291 1.393 . S
C288 H277 0.950 . S
C288 C286 1.391 . S
C288 C289 1.400 . S
C289 C283 1.491 . S
C289 C288 1.400 . S
C289 C290 1.398 . S
C290 H278 0.950 . S
C290 C289 1.398 . S
C290 C291 1.391 . S
C291 H279 0.950 . S
C291 C287 1.393 . S
C291 C290 1.391 . S
H292 C300 0.950 . S
H293 C305 0.950 . S
H294 C302 0.950 . S
H295 C304 0.950 . S
H296 C306 0.950 . S
H297 C308 0.950 . S
H298 C310 0.950 . S
H299 C311 0.950 . S
C300 H292 0.950 . S
C300 C301 1.386 . S
C300 C302 1.391 . S
C301 C300 1.386 . S
C301 C305 1.393 . S
C302 H294 0.950 . S
C302 C300 1.391 . S
C302 C303 1.400 . S
C303 C302 1.400 . S
C303 C304 1.398 . S
C303 C309 1.491 . S
C304 H295 0.950 . S
C304 C303 1.398 . S
C304 C305 1.391 . S
C305 H293 0.950 . S
C305 C301 1.393 . S
C305 C304 1.391 . S
C306 H296 0.950 . S
C306 C307 1.386 . S
C306 C308 1.391 . S
C307 C306 1.386 . S
C307 C311 1.393 . S
C308 H297 0.950 . S
C308 C306 1.391 . S
C308 C309 1.400 . S
C309 C303 1.491 . S
C309 C308 1.400 . S
C309 C310 1.398 . S
C310 H298 0.950 . S
C310 C309 1.398 . S
C310 C311 1.391 . S
C311 H299 0.950 . S
C311 C307 1.393 . S
C311 C310 1.391 . S
H312 C320 0.950 . S
H313 C325 0.950 . S
H314 C322 0.950 . S
H315 C324 0.950 . S
H316 C326 0.950 . S
H317 C328 0.950 . S
H318 C330 0.950 . S
H319 C331 0.950 . S
C320 H312 0.950 . S
C320 C321 1.386 . S
C320 C322 1.391 . S
C321 C320 1.386 . S
C321 C325 1.393 . S
C322 H314 0.950 . S
C322 C320 1.391 . S
C322 C323 1.400 . S
C323 C322 1.400 . S
C323 C324 1.398 . S
C323 C329 1.491 . S
C324 H315 0.950 . S
C324 C323 1.398 . S
C324 C325 1.391 . S
C325 H313 0.950 . S
C325 C321 1.393 . S
C325 C324 1.391 . S
C326 H316 0.950 . S
C326 C327 1.386 . S
C326 C328 1.391 . S
C327 C326 1.386 . S
C327 C331 1.393 . S
C328 H317 0.950 . S
C328 C326 1.391 . S
C328 C329 1.400 . S
C329 C323 1.491 . S
C329 C328 1.400 . S
C329 C330 1.398 . S
C330 H318 0.950 . S
C330 C329 1.398 . S
C330 C331 1.391 . S
C331 H319 0.950 . S
C331 C327 1.393 . S
C331 C330 1.391 . S
H332 C340 0.950 . S
H333 C345 0.950 . S
H334 C342 0.950 . S
H335 C344 0.950 . S
H336 C346 0.950 . S
H337 C348 0.950 . S
H338 C350 0.950 . S
H339 C351 0.950 . S
C340 H332 0.950 . S
C340 C341 1.386 . S
C340 C342 1.391 . S
C341 C340 1.386 . S
C341 C345 1.393 . S
C342 H334 0.950 . S
C342 C340 1.391 . S
C342 C343 1.400 . S
C343 C342 1.400 . S
C343 C344 1.398 . S
C343 C349 1.491 . S
C344 H335 0.950 . S
C344 C343 1.398 . S
C344 C345 1.391 . S
C345 H333 0.950 . S
C345 C341 1.393 . S
C345 C344 1.391 . S
C346 H336 0.950 . S
C346 C347 1.386 . S
C346 C348 1.391 . S
C347 C346 1.386 . S
C347 C351 1.393 . S
C348 H337 0.950 . S
C348 C346 1.391 . S
C348 C349 1.400 . S
C349 C343 1.491 . S
C349 C348 1.400 . S
C349 C350 1.398 . S
C350 H338 0.950 . S
C350 C349 1.398 . S
C350 C351 1.391 . S
C351 H339 0.950 . S
C351 C347 1.393 . S
C351 C350 1.391 . S
H352 C360 0.950 . S
H353 C365 0.950 . S
H354 C362 0.950 . S
H355 C364 0.950 . S
H356 C366 0.950 . S
H357 C368 0.950 . S
H358 C370 0.950 . S
H359 C371 0.950 . S
C360 H352 0.950 . S
C360 C361 1.386 . S
C360 C362 1.391 . S
C361 C360 1.386 . S
C361 C365 1.393 . S
C362 H354 0.950 . S
C362 C360 1.391 . S
C362 C363 1.400 . S
C363 C362 1.400 . S
C363 C364 1.398 . S
C363 C369 1.491 . S
C364 H355 0.950 . S
C364 C363 1.398 . S
C364 C365 1.391 . S
C365 H353 0.950 . S
C365 C361 1.393 . S
C365 C364 1.391 . S
C366 H356 0.950 . S
C366 C367 1.386 . S
C366 C368 1.391 . S
C367 C366 1.386 . S
C367 C371 1.393 . S
C368 H357 0.950 . S
C368 C366 1.391 . S
C368 C369 1.400 . S
C369 C363 1.491 . S
C369 C368 1.400 . S
C369 C370 1.398 . S
C370 H358 0.950 . S
C370 C369 1.398 . S
C370 C371 1.391 . S
C371 H359 0.950 . S
C371 C367 1.393 . S
C371 C370 1.391 . S
H372 C380 0.950 . S
H373 C385 0.950 . S
H374 C382 0.950 . S
H375 C384 0.950 . S
H376 C386 0.950 . S
H377 C388 0.950 . S
H378 C390 0.950 . S
H379 C391 0.950 . S
C380 H372 0.950 . S
C380 C381 1.386 . S
C380 C382 1.391 . S
C381 C380 1.386 . S
C381 C385 1.393 . S
C382 H374 0.950 . S
C382 C380 1.391 . S
C382 C383 1.400 . S
C383 C382 1.400 . S
C383 C384 1.398 . S
C383 C389 1.491 1_655 S
C384 H375 0.950 . S
C384 C383 1.398 . S
C384 C385 1.391 . S
C385 H373 0.950 . S
C385 C381 1.393 . S
C385 C384 1.391 . S
C386 H376 0.950 . S
C386 C387 1.386 . S
C386 C388 1.391 . S
C387 C386 1.386 . S
C387 C391 1.393 . S
C388 H377 0.950 . S
C388 C386 1.391 . S
C388 C389 1.400 . S
C389 C383 1.491 1_455 S
C389 C388 1.400 . S
C389 C390 1.398 . S
C390 H378 0.950 . S
C390 C389 1.398 . S
C390 C391 1.391 . S
C391 H379 0.950 . S
C391 C387 1.393 . S
C391 C390 1.391 . S
H392 C400 0.950 . S
H393 C405 0.950 . S
H394 C402 0.950 . S
H395 C404 0.950 . S
H396 C406 0.950 . S
H397 C408 0.950 . S
H398 C410 0.950 . S
H399 C411 0.950 . S
C400 H392 0.950 . S
C400 C401 1.386 . S
C400 C402 1.391 . S
C401 C400 1.386 . S
C401 C405 1.393 . S
C402 H394 0.950 . S
C402 C400 1.391 . S
C402 C403 1.400 . S
C403 C402 1.400 . S
C403 C404 1.398 . S
C403 C409 1.491 . S
C404 H395 0.950 . S
C404 C403 1.398 . S
C404 C405 1.391 . S
C405 H393 0.950 . S
C405 C401 1.393 . S
C405 C404 1.391 . S
C406 H396 0.950 . S
C406 C407 1.386 . S
C406 C408 1.391 . S
C407 C406 1.386 . S
C407 C411 1.393 . S
C408 H397 0.950 . S
C408 C406 1.391 . S
C408 C409 1.400 . S
C409 C403 1.491 . S
C409 C408 1.400 . S
C409 C410 1.398 . S
C410 H398 0.950 . S
C410 C409 1.398 . S
C410 C411 1.391 . S
C411 H399 0.950 . S
C411 C407 1.393 . S
C411 C410 1.391 . S
H412 C420 0.950 . S
H413 C425 0.950 . S
H414 C422 0.950 . S
H415 C424 0.950 . S
H416 C426 0.950 . S
H417 C428 0.950 . S
H418 C430 0.950 . S
H419 C431 0.950 . S
C420 H412 0.950 . S
C420 C421 1.386 . S
C420 C422 1.391 . S
C421 C420 1.386 . S
C421 C425 1.393 . S
C422 H414 0.950 . S
C422 C420 1.391 . S
C422 C423 1.400 . S
C423 C422 1.400 . S
C423 C424 1.398 . S
C423 C429 1.491 1_545 S
C424 H415 0.950 . S
C424 C423 1.398 . S
C424 C425 1.391 . S
C425 H413 0.950 . S
C425 C421 1.393 . S
C425 C424 1.391 . S
C426 H416 0.950 . S
C426 C427 1.386 . S
C426 C428 1.391 . S
C427 C426 1.386 . S
C427 C431 1.393 . S
C428 H417 0.950 . S
C428 C426 1.391 . S
C428 C429 1.400 . S
C429 C423 1.491 1_565 S
C429 C428 1.400 . S
C429 C430 1.398 . S
C430 H418 0.950 . S
C430 C429 1.398 . S
C430 C431 1.391 . S
C431 H419 0.950 . S
C431 C427 1.393 . S
C431 C430 1.391 . S
H432 C440 0.950 . S
H433 C445 0.950 . S
H434 C442 0.950 . S
H435 C444 0.950 . S
H436 C446 0.950 . S
H437 C448 0.950 . S
H438 C450 0.950 . S
H439 C451 0.950 . S
C440 H432 0.950 . S
C440 C441 1.386 . S
C440 C442 1.391 . S
C441 C440 1.386 . S
C441 C445 1.393 . S
C442 H434 0.950 . S
C442 C440 1.391 . S
C442 C443 1.400 . S
C443 C442 1.400 . S
C443 C444 1.398 . S
C443 C449 1.491 1_455 S
C444 H435 0.950 . S
C444 C443 1.398 . S
C444 C445 1.391 . S
C445 H433 0.950 . S
C445 C441 1.393 . S
C445 C444 1.391 . S
C446 H436 0.950 . S
C446 C447 1.386 . S
C446 C448 1.391 . S
C447 C446 1.386 . S
C447 C451 1.393 . S
C448 H437 0.950 . S
C448 C446 1.391 . S
C448 C449 1.400 . S
C449 C443 1.491 1_655 S
C449 C448 1.400 . S
C449 C450 1.398 . S
C450 H438 0.950 . S
C450 C449 1.398 . S
C450 C451 1.391 . S
C451 H439 0.950 . S
C451 C447 1.393 . S
C451 C450 1.391 . S
H452 C460 0.950 . S
H453 C465 0.950 . S
H454 C462 0.950 . S
H455 C464 0.950 . S
H456 C466 0.950 . S
H457 C468 0.950 . S
H458 C470 0.950 . S
H459 C471 0.950 . S
C460 H452 0.950 . S
C460 C461 1.386 . S
C460 C462 1.391 . S
C461 C460 1.386 . S
C461 C465 1.393 . S
C462 H454 0.950 . S
C462 C460 1.391 . S
C462 C463 1.400 . S
C463 C462 1.400 . S
C463 C464 1.398 . S
C463 C469 1.491 . S
C464 H455 0.950 . S
C464 C463 1.398 . S
C464 C465 1.391 . S
C465 H453 0.950 . S
C465 C461 1.393 . S
C465 C464 1.391 . S
C466 H456 0.950 . S
C466 C467 1.386 . S
C466 C468 1.391 . S
C467 C466 1.386 . S
C467 C471 1.393 . S
C468 H457 0.950 . S
C468 C466 1.391 . S
C468 C469 1.400 . S
C469 C463 1.491 . S
C469 C468 1.400 . S
C469 C470 1.398 . S
C470 H458 0.950 . S
C470 C469 1.398 . S
C470 C471 1.391 . S
C471 H459 0.950 . S
C471 C467 1.393 . S
C471 C470 1.391 . S
H472 C480 0.950 . S
H473 C485 0.950 . S
H474 C482 0.950 . S
H475 C484 0.950 . S
H476 C486 0.950 . S
H477 C488 0.950 . S
H478 C490 0.950 . S
H479 C491 0.950 . S
C480 H472 0.950 . S
C480 C481 1.386 . S
C480 C482 1.391 . S
C481 C480 1.386 . S
C481 C485 1.393 . S
C482 H474 0.950 . S
C482 C480 1.391 . S
C482 C483 1.400 . S
C483 C482 1.400 . S
C483 C484 1.398 . S
C483 C489 1.491 1_545 S
C484 H475 0.950 . S
C484 C483 1.398 . S
C484 C485 1.391 . S
C485 H473 0.950 . S
C485 C481 1.393 . S
C485 C484 1.391 . S
C486 H476 0.950 . S
C486 C487 1.386 . S
C486 C488 1.391 . S
C487 C486 1.386 . S
C487 C491 1.393 . S
C488 H477 0.950 . S
C488 C486 1.391 . S
C488 C489 1.400 . S
C489 C483 1.491 1_565 S
C489 C488 1.400 . S
C489 C490 1.398 . S
C490 H478 0.950 . S
C490 C489 1.398 . S
C490 C491 1.391 . S
C491 H479 0.950 . S
C491 C487 1.393 . S
C491 C490 1.391 . S
H492 C500 0.950 . S
H493 C505 0.950 . S
H494 C502 0.950 . S
H495 C504 0.950 . S
H496 C506 0.950 . S
H497 C508 0.950 . S
H498 C510 0.950 . S
H499 C511 0.950 . S
C500 H492 0.950 . S
C500 C501 1.386 . S
C500 C502 1.391 . S
C501 C500 1.386 . S
C501 C505 1.393 . S
C502 H494 0.950 . S
C502 C500 1.391 . S
C502 C503 1.400 . S
C503 C502 1.400 . S
C503 C504 1.398 . S
C503 C509 1.491 1_565 S
C504 H495 0.950 . S
C504 C503 1.398 . S
C504 C505 1.391 . S
C505 H493 0.950 . S
C505 C501 1.393 . S
C505 C504 1.391 . S
C506 H496 0.950 . S
C506 C507 1.386 . S
C506 C508 1.391 . S
C507 C506 1.386 . S
C507 C511 1.393 . S
C508 H497 0.950 . S
C508 C506 1.391 . S
C508 C509 1.400 . S
C509 C503 1.491 1_545 S
C509 C508 1.400 . S
C509 C510 1.398 . S
C510 H498 0.950 . S
C510 C509 1.398 . S
C510 C511 1.391 . S
C511 H499 0.950 . S
C511 C507 1.393 . S
C511 C510 1.391 . S
H512 C520 0.950 . S
H513 C525 0.950 . S
H514 C522 0.950 . S
H515 C524 0.950 . S
H516 C526 0.950 . S
H517 C528 0.950 . S
H518 C530 0.950 . S
H519 C531 0.950 . S
C520 H512 0.950 . S
C520 C521 1.386 . S
C520 C522 1.391 . S
C521 C520 1.386 . S
C521 C525 1.393 . S
C522 H514 0.950 . S
C522 C520 1.391 . S
C522 C523 1.400 . S
C523 C522 1.400 . S
C523 C524 1.398 . S
C523 C529 1.491 1_455 S
C524 H515 0.950 . S
C524 C523 1.398 . S
C524 C525 1.391 . S
C525 H513 0.950 . S
C525 C521 1.393 . S
C525 C524 1.391 . S
C526 H516 0.950 . S
C526 C527 1.386 . S
C526 C528 1.391 . S
C527 C526 1.386 . S
C527 C531 1.393 . S
C528 H517 0.950 . S
C528 C526 1.391 . S
C528 C529 1.400 . S
C529 C523 1.491 1_655 S
C529 C528 1.400 . S
C529 C530 1.398 . S
C530 H518 0.950 . S
C530 C529 1.398 . S
C530 C531 1.391 . S
C531 H519 0.950 . S
C531 C527 1.393 . S
C531 C530 1.391 . S
H532 C540 0.950 . S
H533 C545 0.950 . S
H534 C542 0.950 . S
H535 C544 0.950 . S
H536 C546 0.950 . S
H537 C548 0.950 . S
H538 C550 0.950 . S
H539 C551 0.950 . S
C540 H532 0.950 . S
C540 C541 1.386 . S
C540 C542 1.391 . S
C541 C540 1.386 . S
C541 C545 1.393 . S
C542 H534 0.950 . S
C542 C540 1.391 . S
C542 C543 1.400 . S
C543 C542 1.400 . S
C543 C544 1.398 . S
C543 C549 1.491 . S
C544 H535 0.950 . S
C544 C543 1.398 . S
C544 C545 1.391 . S
C545 H533 0.950 . S
C545 C541 1.393 . S
C545 C544 1.391 . S
C546 H536 0.950 . S
C546 C547 1.386 . S
C546 C548 1.391 . S
C547 C546 1.386 . S
C547 C551 1.393 . S
C548 H537 0.950 . S
C548 C546 1.391 . S
C548 C549 1.400 . S
C549 C543 1.491 . S
C549 C548 1.400 . S
C549 C550 1.398 . S
C550 H538 0.950 . S
C550 C549 1.398 . S
C550 C551 1.391 . S
C551 H539 0.950 . S
C551 C547 1.393 . S
C551 C550 1.391 . S
H552 C560 0.950 . S
H553 C565 0.950 . S
H554 C562 0.950 . S
H555 C564 0.950 . S
H556 C566 0.950 . S
H557 C568 0.950 . S
H558 C570 0.950 . S
H559 C571 0.950 . S
C560 H552 0.950 . S
C560 C561 1.386 . S
C560 C562 1.391 . S
C561 C560 1.386 . S
C561 C565 1.393 . S
C562 H554 0.950 . S
C562 C560 1.391 . S
C562 C563 1.400 . S
C563 C562 1.400 . S
C563 C564 1.398 . S
C563 C569 1.491 . S
C564 H555 0.950 . S
C564 C563 1.398 . S
C564 C565 1.391 . S
C565 H553 0.950 . S
C565 C561 1.393 . S
C565 C564 1.391 . S
C566 H556 0.950 . S
C566 C567 1.386 . S
C566 C568 1.391 . S
C567 C566 1.386 . S
C567 C571 1.393 . S
C568 H557 0.950 . S
C568 C566 1.391 . S
C568 C569 1.400 . S
C569 C563 1.491 . S
C569 C568 1.400 . S
C569 C570 1.398 . S
C570 H558 0.950 . S
C570 C569 1.398 . S
C570 C571 1.391 . S
C571 H559 0.950 . S
C571 C567 1.393 . S
C571 C570 1.391 . S
H572 C580 0.950 . S
H573 C585 0.950 . S
H574 C582 0.950 . S
H575 C584 0.950 . S
H576 C586 0.950 . S
H577 C588 0.950 . S
H578 C590 0.950 . S
H579 C591 0.950 . S
C580 H572 0.950 . S
C580 C581 1.386 . S
C580 C582 1.391 . S
C581 C580 1.386 . S
C581 C585 1.393 . S
C582 H574 0.950 . S
C582 C580 1.391 . S
C582 C583 1.400 . S
C583 C582 1.400 . S
C583 C584 1.398 . S
C583 C589 1.491 . S
C584 H575 0.950 . S
C584 C583 1.398 . S
C584 C585 1.391 . S
C585 H573 0.950 . S
C585 C581 1.393 . S
C585 C584 1.391 . S
C586 H576 0.950 . S
C586 C587 1.386 . S
C586 C588 1.391 . S
C587 C586 1.386 . S
C587 C591 1.393 . S
C588 H577 0.950 . S
C588 C586 1.391 . S
C588 C589 1.400 . S
C589 C583 1.491 . S
C589 C588 1.400 . S
C589 C590 1.398 . S
C590 H578 0.950 . S
C590 C589 1.398 . S
C590 C591 1.391 . S
C591 H579 0.950 . S
C591 C587 1.393 . S
C591 C590 1.391 . S
H592 C600 0.950 . S
H593 C605 0.950 . S
H594 C602 0.950 . S
H595 C604 0.950 . S
H596 C606 0.950 . S
H597 C608 0.950 . S
H598 C610 0.950 . S
H599 C611 0.950 . S
C600 H592 0.950 . S
C600 C601 1.386 . S
C600 C602 1.391 . S
C601 C600 1.386 . S
C601 C605 1.393 . S
C602 H594 0.950 . S
C602 C600 1.391 . S
C602 C603 1.400 . S
C603 C602 1.400 . S
C603 C604 1.398 . S
C603 C609 1.491 . S
C604 H595 0.950 . S
C604 C603 1.398 . S
C604 C605 1.391 . S
C605 H593 0.950 . S
C605 C601 1.393 . S
C605 C604 1.391 . S
C606 H596 0.950 . S
C606 C607 1.386 . S
C606 C608 1.391 . S
C607 C606 1.386 . S
C607 C611 1.393 . S
C608 H597 0.950 . S
C608 C606 1.391 . S
C608 C609 1.400 . S
C609 C603 1.491 . S
C609 C608 1.400 . S
C609 C610 1.398 . S
C610 H598 0.950 . S
C610 C609 1.398 . S
C610 C611 1.391 . S
C611 H599 0.950 . S
C611 C607 1.393 . S
C611 C610 1.391 . S
H612 C620 0.950 . S
H613 C625 0.950 . S
H614 C622 0.950 . S
H615 C624 0.950 . S
H616 C626 0.950 . S
H617 C628 0.950 . S
H618 C630 0.950 . S
H619 C631 0.950 . S
C620 H612 0.950 . S
C620 C621 1.386 . S
C620 C622 1.391 . S
C621 C620 1.386 . S
C621 C625 1.393 . S
C622 H614 0.950 . S
C622 C620 1.391 . S
C622 C623 1.400 . S
C623 C622 1.400 . S
C623 C624 1.398 . S
C623 C629 1.491 . S
C624 H615 0.950 . S
C624 C623 1.398 . S
C624 C625 1.391 . S
C625 H613 0.950 . S
C625 C621 1.393 . S
C625 C624 1.391 . S
C626 H616 0.950 . S
C626 C627 1.386 . S
C626 C628 1.391 . S
C627 C626 1.386 . S
C627 C631 1.393 . S
C628 H617 0.950 . S
C628 C626 1.391 . S
C628 C629 1.400 . S
C629 C623 1.491 . S
C629 C628 1.400 . S
C629 C630 1.398 . S
C630 H618 0.950 . S
C630 C629 1.398 . S
C630 C631 1.391 . S
C631 H619 0.950 . S
C631 C627 1.393 . S
C631 C630 1.391 . S
H632 C640 0.950 . S
H633 C645 0.950 . S
H634 C642 0.950 . S
H635 C644 0.950 . S
H636 C646 0.950 . S
H637 C648 0.950 . S
H638 C650 0.950 . S
H639 C651 0.950 . S
C640 H632 0.950 . S
C640 C641 1.386 . S
C640 C642 1.391 . S
C641 C640 1.386 . S
C641 C645 1.393 . S
C642 H634 0.950 . S
C642 C640 1.391 . S
C642 C643 1.400 . S
C643 C642 1.400 . S
C643 C644 1.398 . S
C643 C649 1.491 . S
C644 H635 0.950 . S
C644 C643 1.398 . S
C644 C645 1.391 . S
C645 H633 0.950 . S
C645 C641 1.393 . S
C645 C644 1.391 . S
C646 H636 0.950 . S
C646 C647 1.386 . S
C646 C648 1.391 . S
C647 C646 1.386 . S
C647 C651 1.393 . S
C648 H637 0.950 . S
C648 C646 1.391 . S
C648 C649 1.400 . S
C649 C643 1.491 . S
C649 C648 1.400 . S
C649 C650 1.398 . S
C650 H638 0.950 . S
C650 C649 1.398 . S
C650 C651 1.391 . S
C651 H639 0.950 . S
C651 C647 1.393 . S
C651 C650 1.391 . S
H652 C660 0.950 . S
H653 C665 0.950 . S
H654 C662 0.950 . S
H655 C664 0.950 . S
H656 C666 0.950 . S
H657 C668 0.950 . S
H658 C670 0.950 . S
H659 C671 0.950 . S
C660 H652 0.950 . S
C660 C661 1.386 . S
C660 C662 1.391 . S
C661 C660 1.386 . S
C661 C665 1.393 . S
C662 H654 0.950 . S
C662 C660 1.391 . S
C662 C663 1.400 . S
C663 C662 1.400 . S
C663 C664 1.398 . S
C663 C669 1.491 . S
C664 H655 0.950 . S
C664 C663 1.398 . S
C664 C665 1.391 . S
C665 H653 0.950 . S
C665 C661 1.393 . S
C665 C664 1.391 . S
C666 H656 0.950 . S
C666 C667 1.386 . S
C666 C668 1.391 . S
C667 C666 1.386 . S
C667 C671 1.393 . S
C668 H657 0.950 . S
C668 C666 1.391 . S
C668 C669 1.400 . S
C669 C663 1.491 . S
C669 C668 1.400 . S
C669 C670 1.398 . S
C670 H658 0.950 . S
C670 C669 1.398 . S
C670 C671 1.391 . S
C671 H659 0.950 . S
C671 C667 1.393 . S
C671 C670 1.391 . S
H672 C680 0.950 . S
H673 C685 0.950 . S
H674 C682 0.950 . S
H675 C684 0.950 . S
H676 C686 0.950 . S
H677 C688 0.950 . S
H678 C690 0.950 . S
H679 C691 0.950 . S
C680 H672 0.950 . S
C680 C681 1.386 . S
C680 C682 1.391 . S
C681 C680 1.386 . S
C681 C685 1.393 . S
C682 H674 0.950 . S
C682 C680 1.391 . S
C682 C683 1.400 . S
C683 C682 1.400 . S
C683 C684 1.398 . S
C683 C689 1.491 . S
C684 H675 0.950 . S
C684 C683 1.398 . S
C684 C685 1.391 . S
C685 H673 0.950 . S
C685 C681 1.393 . S
C685 C684 1.391 . S
C686 H676 0.950 . S
C686 C687 1.386 . S
C686 C688 1.391 . S
C687 C686 1.386 . S
C687 C691 1.393 . S
C688 H677 0.950 . S
C688 C686 1.391 . S
C688 C689 1.400 . S
C689 C683 1.491 . S
C689 C688 1.400 . S
C689 C690 1.398 . S
C690 H678 0.950 . S
C690 C689 1.398 . S
C690 C691 1.391 . S
C691 H679 0.950 . S
C691 C687 1.393 . S
C691 C690 1.391 . S
H692 C700 0.950 . S
H693 C705 0.950 . S
H694 C702 0.950 . S
H695 C704 0.950 . S
H696 C706 0.950 . S
H697 C708 0.950 . S
H698 C710 0.950 . S
H699 C711 0.950 . S
C700 H692 0.950 . S
C700 C701 1.386 . S
C700 C702 1.391 . S
C701 C700 1.386 . S
C701 C705 1.393 . S
C702 H694 0.950 . S
C702 C700 1.391 . S
C702 C703 1.400 . S
C703 C702 1.400 . S
C703 C704 1.398 . S
C703 C709 1.491 . S
C704 H695 0.950 . S
C704 C703 1.398 . S
C704 C705 1.391 . S
C705 H693 0.950 . S
C705 C701 1.393 . S
C705 C704 1.391 . S
C706 H696 0.950 . S
C706 C707 1.386 . S
C706 C708 1.391 . S
C707 C706 1.386 . S
C707 C711 1.393 . S
C708 H697 0.950 . S
C708 C706 1.391 . S
C708 C709 1.400 . S
C709 C703 1.491 . S
C709 C708 1.400 . S
C709 C710 1.398 . S
C710 H698 0.950 . S
C710 C709 1.398 . S
C710 C711 1.391 . S
C711 H699 0.950 . S
C711 C707 1.393 . S
C711 C710 1.391 . S
H712 C720 0.950 . S
H713 C725 0.950 . S
H714 C722 0.950 . S
H715 C724 0.950 . S
H716 C726 0.950 . S
H717 C728 0.950 . S
H718 C730 0.950 . S
H719 C731 0.950 . S
C720 H712 0.950 . S
C720 C721 1.386 . S
C720 C722 1.391 . S
C721 C720 1.386 . S
C721 C725 1.393 . S
C722 H714 0.950 . S
C722 C720 1.391 . S
C722 C723 1.400 . S
C723 C722 1.400 . S
C723 C724 1.398 . S
C723 C729 1.491 . S
C724 H715 0.950 . S
C724 C723 1.398 . S
C724 C725 1.391 . S
C725 H713 0.950 . S
C725 C721 1.393 . S
C725 C724 1.391 . S
C726 H716 0.950 . S
C726 C727 1.386 . S
C726 C728 1.391 . S
C727 C726 1.386 . S
C727 C731 1.393 . S
C728 H717 0.950 . S
C728 C726 1.391 . S
C728 C729 1.400 . S
C729 C723 1.491 . S
C729 C728 1.400 . S
C729 C730 1.398 . S
C730 H718 0.950 . S
C730 C729 1.398 . S
C730 C731 1.391 . S
C731 H719 0.950 . S
C731 C727 1.393 . S
C731 C730 1.391 . S
H732 C740 0.950 . S
H733 C745 0.950 . S
H734 C742 0.950 . S
H735 C744 0.950 . S
H736 C746 0.950 . S
H737 C748 0.950 . S
H738 C750 0.950 . S
H739 C751 0.950 . S
C740 H732 0.950 . S
C740 C741 1.386 . S
C740 C742 1.391 . S
C741 C740 1.386 . S
C741 C745 1.393 . S
C742 H734 0.950 . S
C742 C740 1.391 . S
C742 C743 1.400 . S
C743 C742 1.400 . S
C743 C744 1.398 . S
C743 C749 1.491 . S
C744 H735 0.950 . S
C744 C743 1.398 . S
C744 C745 1.391 . S
C745 H733 0.950 . S
C745 C741 1.393 . S
C745 C744 1.391 . S
C746 H736 0.950 . S
C746 C747 1.386 . S
C746 C748 1.391 . S
C747 C746 1.386 . S
C747 C751 1.393 . S
C748 H737 0.950 . S
C748 C746 1.391 . S
C748 C749 1.400 . S
C749 C743 1.491 . S
C749 C748 1.400 . S
C749 C750 1.398 . S
C750 H738 0.950 . S
C750 C749 1.398 . S
C750 C751 1.391 . S
C751 H739 0.950 . S
C751 C747 1.393 . S
C751 C750 1.391 . S
H752 C760 0.950 . S
H753 C765 0.950 . S
H754 C762 0.950 . S
H755 C764 0.950 . S
H756 C766 0.950 . S
H757 C768 0.950 . S
H758 C770 0.950 . S
H759 C771 0.950 . S
C760 H752 0.950 . S
C760 C761 1.386 . S
C760 C762 1.391 . S
C761 C760 1.386 . S
C761 C765 1.393 . S
C762 H754 0.950 . S
C762 C760 1.391 . S
C762 C763 1.400 . S
C763 C762 1.400 . S
C763 C764 1.398 . S
C763 C769 1.491 . S
C764 H755 0.950 . S
C764 C763 1.398 . S
C764 C765 1.391 . S
C765 H753 0.950 . S
C765 C761 1.393 . S
C765 C764 1.391 . S
C766 H756 0.950 . S
C766 C767 1.386 . S
C766 C768 1.391 . S
C767 C766 1.386 . S
C767 C771 1.393 . S
C768 H757 0.950 . S
C768 C766 1.391 . S
C768 C769 1.400 . S
C769 C763 1.491 . S
C769 C768 1.400 . S
C769 C770 1.398 . S
C770 H758 0.950 . S
C770 C769 1.398 . S
C770 C771 1.391 . S
C771 H759 0.950 . S
C771 C767 1.393 . S
C771 C770 1.391 . S
H772 C780 0.950 . S
H773 C785 0.950 . S
H774 C782 0.950 . S
H775 C784 0.950 . S
H776 C786 0.950 . S
H777 C788 0.950 . S
H778 C790 0.950 . S
H779 C791 0.950 . S
C780 H772 0.950 . S
C780 C781 1.386 . S
C780 C782 1.391 . S
C781 C780 1.386 . S
C781 C785 1.393 . S
C782 H774 0.950 . S
C782 C780 1.391 . S
C782 C783 1.400 . S
C783 C782 1.400 . S
C783 C784 1.398 . S
C783 C789 1.491 . S
C784 H775 0.950 . S
C784 C783 1.398 . S
C784 C785 1.391 . S
C785 H773 0.950 . S
C785 C781 1.393 . S
C785 C784 1.391 . S
C786 H776 0.950 . S
C786 C787 1.386 . S
C786 C788 1.391 . S
C787 C786 1.386 . S
C787 C791 1.393 . S
C788 H777 0.950 . S
C788 C786 1.391 . S
C788 C789 1.400 . S
C789 C783 1.491 . S
C789 C788 1.400 . S
C789 C790 1.398 . S
C790 H778 0.950 . S
C790 C789 1.398 . S
C790 C791 1.391 . S
C791 H779 0.950 . S
C791 C787 1.393 . S
C791 C790 1.391 . S
H792 C800 0.950 . S
H793 C805 0.950 . S
H794 C802 0.950 . S
H795 C804 0.950 . S
H796 C806 0.950 . S
H797 C808 0.950 . S
H798 C810 0.950 . S
H799 C811 0.950 . S
C800 H792 0.950 . S
C800 C801 1.386 . S
C800 C802 1.391 . S
C801 C800 1.386 . S
C801 C805 1.393 . S
C802 H794 0.950 . S
C802 C800 1.391 . S
C802 C803 1.400 . S
C803 C802 1.400 . S
C803 C804 1.398 . S
C803 C809 1.491 1_554 S
C804 H795 0.950 . S
C804 C803 1.398 . S
C804 C805 1.391 . S
C805 H793 0.950 . S
C805 C801 1.393 . S
C805 C804 1.391 . S
C806 H796 0.950 . S
C806 C807 1.386 . S
C806 C808 1.391 . S
C807 C806 1.386 . S
C807 C811 1.393 . S
C808 H797 0.950 . S
C808 C806 1.391 . S
C808 C809 1.400 . S
C809 C803 1.491 1_556 S
C809 C808 1.400 . S
C809 C810 1.398 . S
C810 H798 0.950 . S
C810 C809 1.398 . S
C810 C811 1.391 . S
C811 H799 0.950 . S
C811 C807 1.393 . S
C811 C810 1.391 . S
H812 C820 0.950 1_565 S
H813 C825 0.950 . S
H814 C822 0.950 . S
H815 C824 0.950 . S
H816 C826 0.950 . S
H817 C828 0.950 1_545 S
H818 C830 0.950 . S
H819 C831 0.950 . S
C820 H812 0.950 1_545 S
C820 C821 1.386 . S
C820 C822 1.391 1_545 S
C821 C820 1.386 . S
C821 C825 1.393 . S
C822 H814 0.950 . S
C822 C820 1.391 1_565 S
C822 C823 1.384 1_565 S
C823 C822 1.384 1_545 S
C823 C824 1.420 . S
C823 C829 1.485 1_546 S
C824 H815 0.950 . S
C824 C823 1.420 . S
C824 C825 1.391 . S
C825 H813 0.950 . S
C825 C821 1.393 . S
C825 C824 1.391 . S
C826 H816 0.950 . S
C826 C827 1.386 . S
C826 C828 1.391 . S
C827 C826 1.386 . S
C827 C831 1.393 . S
C828 H817 0.950 1_565 S
C828 C826 1.391 . S
C828 C829 1.400 . S
C829 C823 1.485 1_564 S
C829 C828 1.400 . S
C829 C830 1.398 . S
C830 H818 0.950 . S
C830 C829 1.398 . S
C830 C831 1.391 . S
C831 H819 0.950 . S
C831 C827 1.393 . S
C831 C830 1.391 . S
H832 C840 0.950 . S
H833 C845 0.950 . S
H834 C842 0.950 . S
H835 C844 0.950 . S
H836 C846 0.950 . S
H837 C848 0.950 . S
H838 C850 0.950 . S
H839 C851 0.950 . S
C840 H832 0.950 . S
C840 C841 1.386 . S
C840 C842 1.391 . S
C841 C840 1.386 . S
C841 C845 1.393 1_655 S
C842 H834 0.950 . S
C842 C840 1.391 . S
C842 C843 1.400 . S
C843 C842 1.400 . S
C843 C844 1.398 1_655 S
C843 C849 1.491 1_556 S
C844 H835 0.950 . S
C844 C843 1.398 1_455 S
C844 C845 1.391 . S
C845 H833 0.950 . S
C845 C841 1.393 1_455 S
C845 C844 1.391 . S
C846 H836 0.950 . S
C846 C847 1.386 . S
C846 C848 1.391 . S
C847 C846 1.386 . S
C847 C851 1.393 1_455 S
C848 H837 0.950 . S
C848 C846 1.391 . S
C848 C849 1.397 1_455 S
C849 C843 1.491 1_554 S
C849 C848 1.397 1_655 S
C849 C850 1.400 . S
C850 H838 0.950 . S
C850 C849 1.400 . S
C850 C851 1.391 . S
C851 H839 0.950 . S
C851 C847 1.393 1_655 S
C851 C850 1.391 . S
H852 C860 0.950 . S
H853 C865 0.950 . S
H854 C862 0.950 . S
H855 C864 0.950 . S
H856 C866 0.950 . S
H857 C868 0.950 . S
H858 C870 0.950 . S
H859 C871 0.950 . S
C860 H852 0.950 . S
C860 C861 1.386 . S
C860 C862 1.391 . S
C861 C860 1.386 . S
C861 C865 1.393 . S
C862 H854 0.950 . S
C862 C860 1.391 . S
C862 C863 1.400 . S
C863 C862 1.400 . S
C863 C864 1.398 . S
C863 C869 1.491 . S
C864 H855 0.950 . S
C864 C863 1.398 . S
C864 C865 1.391 . S
C865 H853 0.950 . S
C865 C861 1.393 . S
C865 C864 1.391 . S
C866 H856 0.950 . S
C866 C867 1.386 . S
C866 C868 1.391 . S
C867 C866 1.386 . S
C867 C871 1.393 . S
C868 H857 0.950 . S
C868 C866 1.391 . S
C868 C869 1.400 . S
C869 C863 1.491 . S
C869 C868 1.400 . S
C869 C870 1.398 . S
C870 H858 0.950 . S
C870 C869 1.398 . S
C870 C871 1.391 . S
C871 H859 0.950 . S
C871 C867 1.393 . S
C871 C870 1.391 . S
H872 C880 0.950 . S
H873 C885 0.950 . S
H874 C882 0.950 . S
H875 C884 0.950 . S
H876 C886 0.950 . S
H877 C888 0.950 . S
H878 C890 0.950 . S
H879 C891 0.950 . S
C880 H872 0.950 . S
C880 C881 1.386 . S
C880 C882 1.391 . S
C881 C880 1.386 . S
C881 C885 1.393 . S
C882 H874 0.950 . S
C882 C880 1.391 . S
C882 C883 1.400 . S
C883 C882 1.400 . S
C883 C884 1.398 . S
C883 C889 1.491 . S
C884 H875 0.950 . S
C884 C883 1.398 . S
C884 C885 1.391 . S
C885 H873 0.950 . S
C885 C881 1.393 . S
C885 C884 1.391 . S
C886 H876 0.950 . S
C886 C887 1.386 . S
C886 C888 1.391 . S
C887 C886 1.386 . S
C887 C891 1.393 . S
C888 H877 0.950 . S
C888 C886 1.391 . S
C888 C889 1.400 . S
C889 C883 1.491 . S
C889 C888 1.400 . S
C889 C890 1.398 . S
C890 H878 0.950 . S
C890 C889 1.398 . S
C890 C891 1.391 . S
C891 H879 0.950 . S
C891 C887 1.393 . S
C891 C890 1.391 . S
H892 C900 0.950 . S
H893 C905 0.950 . S
H894 C902 0.950 . S
H895 C904 0.950 . S
H896 C906 0.950 . S
H897 C908 0.950 . S
H898 C910 0.950 . S
H899 C911 0.950 . S
C900 H892 0.950 . S
C900 C901 1.386 . S
C900 C902 1.391 . S
C901 C900 1.386 . S
C901 C905 1.393 . S
C902 H894 0.950 . S
C902 C900 1.391 . S
C902 C903 1.400 . S
C903 C902 1.400 . S
C903 C904 1.398 . S
C903 C909 1.491 . S
C904 H895 0.950 . S
C904 C903 1.398 . S
C904 C905 1.391 . S
C905 H893 0.950 . S
C905 C901 1.393 . S
C905 C904 1.391 . S
C906 H896 0.950 . S
C906 C907 1.386 . S
C906 C908 1.391 . S
C907 C906 1.386 . S
C907 C911 1.393 . S
C908 H897 0.950 . S
C908 C906 1.391 . S
C908 C909 1.400 . S
C909 C903 1.491 . S
C909 C908 1.400 . S
C909 C910 1.398 . S
C910 H898 0.950 . S
C910 C909 1.398 . S
C910 C911 1.391 . S
C911 H899 0.950 . S
C911 C907 1.393 . S
C911 C910 1.391 . S
H912 C920 0.950 . S
H913 C925 0.950 . S
H914 C922 0.950 . S
H915 C924 0.950 . S
H916 C926 0.950 . S
H917 C928 0.950 . S
H918 C930 0.950 . S
H919 C931 0.950 . S
C920 H912 0.950 . S
C920 C921 1.386 . S
C920 C922 1.391 . S
C921 C920 1.386 . S
C921 C925 1.393 . S
C922 H914 0.950 . S
C922 C920 1.391 . S
C922 C923 1.400 . S
C923 C922 1.400 . S
C923 C924 1.398 . S
C923 C929 1.491 . S
C924 H915 0.950 . S
C924 C923 1.398 . S
C924 C925 1.391 . S
C925 H913 0.950 . S
C925 C921 1.393 . S
C925 C924 1.391 . S
C926 H916 0.950 . S
C926 C927 1.386 . S
C926 C928 1.391 . S
C927 C926 1.386 . S
C927 C931 1.393 . S
C928 H917 0.950 . S
C928 C926 1.391 . S
C928 C929 1.400 . S
C929 C923 1.491 . S
C929 C928 1.400 . S
C929 C930 1.398 . S
C930 H918 0.950 . S
C930 C929 1.398 . S
C930 C931 1.391 . S
C931 H919 0.950 . S
C931 C927 1.393 . S
C931 C930 1.391 . S
H932 C940 0.950 . S
H933 C945 0.950 . S
H934 C942 0.950 . S
H935 C944 0.950 . S
H936 C946 0.950 . S
H937 C948 0.950 . S
H938 C950 0.950 . S
H939 C951 0.950 . S
C940 H932 0.950 . S
C940 C941 1.386 . S
C940 C942 1.391 . S
C941 C940 1.386 . S
C941 C945 1.393 . S
C942 H934 0.950 . S
C942 C940 1.391 . S
C942 C943 1.400 . S
C943 C942 1.400 . S
C943 C944 1.398 . S
C943 C949 1.491 . S
C944 H935 0.950 . S
C944 C943 1.398 . S
C944 C945 1.391 . S
C945 H933 0.950 . S
C945 C941 1.393 . S
C945 C944 1.391 . S
C946 H936 0.950 . S
C946 C947 1.386 . S
C946 C948 1.391 . S
C947 C946 1.386 . S
C947 C951 1.393 . S
C948 H937 0.950 . S
C948 C946 1.391 . S
C948 C949 1.400 . S
C949 C943 1.491 . S
C949 C948 1.400 . S
C949 C950 1.398 . S
C950 H938 0.950 . S
C950 C949 1.398 . S
C950 C951 1.391 . S
C951 H939 0.950 . S
C951 C947 1.393 . S
C951 C950 1.391 . S
H952 C960 0.950 . S
H953 C965 0.950 . S
H954 C962 0.950 . S
H955 C964 0.950 . S
H956 C966 0.950 . S
H957 C968 0.950 . S
H958 C970 0.950 . S
H959 C971 0.950 . S
C960 H952 0.950 . S
C960 C961 1.386 . S
C960 C962 1.391 . S
C961 C960 1.386 . S
C961 C965 1.393 . S
C962 H954 0.950 . S
C962 C960 1.391 . S
C962 C963 1.400 . S
C963 C962 1.400 . S
C963 C964 1.398 . S
C963 C969 1.491 . S
C964 H955 0.950 . S
C964 C963 1.398 . S
C964 C965 1.391 . S
C965 H953 0.950 . S
C965 C961 1.393 . S
C965 C964 1.391 . S
C966 H956 0.950 . S
C966 C967 1.386 . S
C966 C968 1.391 . S
C967 C966 1.386 . S
C967 C971 1.393 . S
C968 H957 0.950 . S
C968 C966 1.391 . S
C968 C969 1.400 . S
C969 C963 1.491 . S
C969 C968 1.400 . S
C969 C970 1.398 . S
C970 H958 0.950 . S
C970 C969 1.398 . S
C970 C971 1.391 . S
C971 H959 0.950 . S
C971 C967 1.393 . S
C971 C970 1.391 . S
C261 C146 1.128 . S
C267 C6 1.130 . S
C281 C20 1.141 . S
C287 C160 1.142 . S
C301 C132 1.142 . S
C307 C34 1.142 . S
C321 C202 1.128 . S
C327 C48 1.128 . S
C341 C62 1.129 . S
C347 C174 1.128 . S
C361 C188 1.129 . S
C367 C76 1.131 . S
C381 C90 1.139 . S
C387 C230 1.141 . S
C401 C244 1.135 . S
C407 C104 1.138 . S
C421 C118 1.128 . S
C427 C216 1.128 . S
C441 C9 1.185 . S
C447 C22 1.205 . S
C461 C23 1.187 . S
C467 C36 1.205 . S
C481 C8 1.207 . S
C487 C37 1.177 . S
C501 C78 1.218 . S
C507 C51 1.157 . S
C521 C50 1.209 . S
C527 C65 1.168 . S
C541 C79 1.160 . S
C547 C64 1.218 . S
C561 C93 1.187 . S
C567 C106 1.205 . S
C581 C107 1.187 . S
C587 C120 1.205 . S
C601 C92 1.216 . S
C607 C121 1.156 . S
C621 C162 1.212 . S
C627 C135 1.181 . S
C641 C134 1.211 . S
C647 C149 1.184 . S
C661 C148 1.207 . S
C667 C163 1.177 . S
C681 C190 1.208 . S
C687 C177 1.172 . S
C701 C204 1.218 . S
C707 C191 1.159 . S
C721 C176 1.214 . S
C727 C205 1.177 . S
C741 C219 1.170 . S
C747 C246 1.209 . S
C761 C233 1.186 . S
C767 C218 1.205 . S
C781 C247 1.187 . S
C787 C232 1.205 . S
C801 C7 1.629 . S
C807 C49 1.650 . S
C821 C63 1.654 . S
C827 C21 1.659 . S
C841 C77 1.651 . S
C847 C35 1.629 . S
C861 C133 1.663 . S
C867 C91 1.646 . S
C881 C147 1.629 . S
C887 C105 1.649 . S
C901 C119 1.644 . S
C907 C161 1.631 . S
C921 C217 1.662 . S
C927 C175 1.637 . S
C941 C231 1.634 . S
C947 C189 1.638 . S
C961 C245 1.656 . S
C967 C203 1.631 . S
