# Generated by pormake.
# Topology smm, (6)-cn, num edge types: 1
# Building blocks:
#     Node 0, Type 0, BuildingBlock: INOVEN_clean_sbu_0, # of connection points: 6
#     Node 1, Type 0, BuildingBlock: INOVEN_clean_sbu_0, # of connection points: 6
#     Node 2, Type 0, BuildingBlock: INOVEN_clean_sbu_0, # of connection points: 6
#     Node 3, Type 0, BuildingBlock: INOVEN_clean_sbu_0, # of connection points: 6
#     Node 4, Type 0, BuildingBlock: INOVEN_clean_sbu_0, # of connection points: 6
#     Node 5, Type 0, BuildingBlock: INOVEN_clean_sbu_0, # of connection points: 6
#     Node 6, Type 0, BuildingBlock: INOVEN_clean_sbu_0, # of connection points: 6
#     Node 7, Type 0, BuildingBlock: INOVEN_clean_sbu_0, # of connection points: 6
#     Node 8, Type 0, BuildingBlock: INOVEN_clean_sbu_0, # of connection points: 6
#     Edge 9, Type (0, 0), BuildingBlock: MIFKUJ_clean_linker_0, # of connection points: 2
#     Edge 10, Type (0, 0), BuildingBlock: MIFKUJ_clean_linker_0, # of connection points: 2
#     Edge 11, Type (0, 0), BuildingBlock: MIFKUJ_clean_linker_0, # of connection points: 2
#     Edge 12, Type (0, 0), BuildingBlock: MIFKUJ_clean_linker_0, # of connection points: 2
#     Edge 13, Type (0, 0), BuildingBlock: MIFKUJ_clean_linker_0, # of connection points: 2
#     Edge 14, Type (0, 0), BuildingBlock: MIFKUJ_clean_linker_0, # of connection points: 2
#     Edge 15, Type (0, 0), BuildingBlock: MIFKUJ_clean_linker_0, # of connection points: 2
#     Edge 16, Type (0, 0), BuildingBlock: MIFKUJ_clean_linker_0, # of connection points: 2
#     Edge 17, Type (0, 0), BuildingBlock: MIFKUJ_clean_linker_0, # of connection points: 2
#     Edge 18, Type (0, 0), BuildingBlock: MIFKUJ_clean_linker_0, # of connection points: 2
#     Edge 19, Type (0, 0), BuildingBlock: MIFKUJ_clean_linker_0, # of connection points: 2
#     Edge 20, Type (0, 0), BuildingBlock: MIFKUJ_clean_linker_0, # of connection points: 2
#     Edge 21, Type (0, 0), BuildingBlock: MIFKUJ_clean_linker_0, # of connection points: 2
#     Edge 22, Type (0, 0), BuildingBlock: MIFKUJ_clean_linker_0, # of connection points: 2
#     Edge 23, Type (0, 0), BuildingBlock: MIFKUJ_clean_linker_0, # of connection points: 2
#     Edge 24, Type (0, 0), BuildingBlock: MIFKUJ_clean_linker_0, # of connection points: 2
#     Edge 25, Type (0, 0), BuildingBlock: MIFKUJ_clean_linker_0, # of connection points: 2
#     Edge 26, Type (0, 0), BuildingBlock: MIFKUJ_clean_linker_0, # of connection points: 2
#     Edge 27, Type (0, 0), BuildingBlock: MIFKUJ_clean_linker_0, # of connection points: 2
#     Edge 28, Type (0, 0), BuildingBlock: MIFKUJ_clean_linker_0, # of connection points: 2
#     Edge 29, Type (0, 0), BuildingBlock: MIFKUJ_clean_linker_0, # of connection points: 2
#     Edge 30, Type (0, 0), BuildingBlock: MIFKUJ_clean_linker_0, # of connection points: 2
#     Edge 31, Type (0, 0), BuildingBlock: MIFKUJ_clean_linker_0, # of connection points: 2
#     Edge 32, Type (0, 0), BuildingBlock: MIFKUJ_clean_linker_0, # of connection points: 2
#     Edge 33, Type (0, 0), BuildingBlock: MIFKUJ_clean_linker_0, # of connection points: 2
#     Edge 34, Type (0, 0), BuildingBlock: MIFKUJ_clean_linker_0, # of connection points: 2
#     Edge 35, Type (0, 0), BuildingBlock: MIFKUJ_clean_linker_0, # of connection points: 2
# Relax obj value: 0.056
# Max RMSD: 0.134
# Mean RMSD: 0.134
data_MOF--net-smm--node1-INOVEN_clean_sbu_0--edge1-MIFKUJ_clean_linker_0
_symmetry_space_group_name_H-M    P1
_symmetry_Int_Tables_number       1
_symmetry_cell_setting            triclinic
loop_
_symmetry_equiv_pos_as_xyz
'x, y, z'
_cell_length_a     86.684653
_cell_length_b     87.032421
_cell_length_c     18.452136
_cell_angle_alpha  89.971577
_cell_angle_beta   90.014278
_cell_angle_gamma 120.09199
loop_
_atom_site_label
_atom_site_type_symbol
_atom_site_fract_x
_atom_site_fract_y
_atom_site_fract_z
_atom_type_partial_charge
Gd0 Gd 0.05278 0.2139 0.00261 0.0
Gd1 Gd 1.01921 0.17748 0.0411 0.0
C2 C 1.01578 0.21249 0.05591 0.0
C3 C 0.07539 0.24427 0.94408 0.0
C4 C 0.08061 0.26331 0.93309 0.0
C5 C 0.08988 0.27619 0.98686 0.0
C6 C 0.07835 0.26913 0.86484 0.0
C7 C 0.09513 0.30025 0.90329 0.0
C8 C 0.08543 0.28729 0.85022 0.0
C9 C 0.09699 0.29436 0.97223 0.0
C10 C 0.05012 0.20337 0.14113 0.0
C11 C 0.05741 0.17955 0.00286 0.0
C12 C 0.99668 0.14612 0.09131 0.0
C13 C 0.98948 0.12684 0.07636 0.0
C14 C 0.97941 0.11855 0.01381 0.0
C15 C 0.99165 0.11623 0.12819 0.0
C16 C 0.97331 0.08937 0.05684 0.0
C17 C 0.98374 0.0978 0.11855 0.0
C18 C 0.97146 0.10009 0.00417 0.0
C19 C 1.02243 0.18733 0.90069 0.0
O20 O 0.03085 0.22092 0.01805 0.0
O21 O 1.00985 0.19612 0.08072 0.0
O22 O 0.07748 0.2392 0.0084 0.0
O23 O 0.06123 0.23198 0.9105 0.0
O24 O 0.0653 0.21309 0.10884 0.0
O25 O 0.03744 0.20136 0.10155 0.0
O26 O 0.04142 0.17087 0.03356 0.0
O27 O 0.06394 0.19591 0.97713 0.0
O28 O 0.99226 0.15505 0.04704 0.0
O29 O 1.0132 0.15542 0.11375 0.0
O30 O 1.00731 0.17736 0.93249 0.0
O31 O 0.03491 0.18964 0.94209 0.0
H32 H 0.09208 0.2723 0.03989 0.0
H33 H 0.07158 0.25965 0.82168 0.0
H34 H 0.08386 0.29119 0.79623 0.0
H35 H 0.10411 0.30382 0.01498 0.0
H36 H 0.97734 0.12625 0.97281 0.0
H37 H 0.99925 0.12217 0.17707 0.0
H38 H 0.9858 0.09016 0.1598 0.0
H39 H 0.96342 0.09418 0.95628 0.0
Gd40 Gd 0.85111 0.85759 0.97925 0.0
Gd41 Gd 0.88689 0.86039 0.03101 0.0
C42 C 0.85202 0.82137 0.0245 0.0
C43 C 0.82299 0.85137 0.90521 0.0
C44 C 0.80379 0.83902 0.89072 0.0
C45 C 0.79355 0.82339 0.93084 0.0
C46 C 0.79539 0.84357 0.83679 0.0
C47 C 0.76655 0.81743 0.86435 0.0
C48 C 0.77708 0.83295 0.82366 0.0
C49 C 0.77511 0.81266 0.91763 0.0
C50 C 0.85678 0.86074 0.12286 0.0
C51 C 0.88504 0.89673 0.00235 0.0
C52 C 0.91673 0.86756 0.09305 0.0
C53 C 0.93623 0.87961 0.08484 0.0
C54 C 0.94335 0.89305 0.032 0.0
C55 C 0.94796 0.87702 0.12864 0.0
C56 C 0.97377 0.90069 0.06546 0.0
C57 C 0.96647 0.88738 0.1191 0.0
C58 C 0.96193 0.90352 0.02259 0.0
C59 C 0.88128 0.85833 0.88681 0.0
O60 O 0.84419 0.82847 0.98572 0.0
O61 O 0.86759 0.83154 0.05699 0.0
O62 O 0.82724 0.85953 0.96784 0.0
O63 O 0.83457 0.84692 0.88278 0.0
O64 O 0.84735 0.8664 0.08976 0.0
O65 O 0.86089 0.85215 0.08024 0.0
O66 O 0.89299 0.88901 0.03545 0.0
O67 O 0.86969 0.88728 0.96731 0.0
O68 O 0.90894 0.85549 0.0427 0.0
O69 O 0.90713 0.87458 0.11339 0.0
O70 O 0.8901 0.85188 0.91872 0.0
O71 O 0.87738 0.86669 0.93129 0.0
H72 H 0.79973 0.81962 0.97295 0.0
H73 H 0.80302 0.85551 0.80485 0.0
H74 H 0.77118 0.83691 0.78112 0.0
H75 H 0.7675 0.80089 0.9504 0.0
H76 H 0.93456 0.89525 -0.00267 0.0
H77 H 0.94279 0.86677 0.16988 0.0
H78 H 0.97508 0.88498 0.15402 0.0
H79 H 0.96699 0.91353 0.98044 0.0
Gd80 Gd 0.20607 1.01037 0.98344 0.0
Gd81 Gd 0.20244 0.04355 0.02464 0.0
C82 C 0.24157 0.04795 0.03409 0.0
C83 C 0.21445 0.98883 0.91964 0.0
C84 C 0.22804 0.98314 0.91148 0.0
C85 C 0.23091 0.97355 0.96622 0.0
C86 C 0.23675 0.98542 0.84466 0.0
C87 C 0.25026 0.96807 0.88629 0.0
C88 C 0.24773 0.97807 0.83231 0.0
C89 C 0.24186 0.96616 0.95383 0.0
C90 C 0.19982 1.01323 0.12324 0.0
C91 C 0.1665 1.00481 -0.00741 0.0
C92 C 0.19358 0.06597 0.07528 0.0
C93 C 0.18123 0.0729 0.06018 0.0
C94 C 0.18155 0.08103 -0.00627 0.0
C95 C 0.16982 0.07259 0.11504 0.0
C96 C 0.15984 0.08897 0.03858 0.0
C97 C 0.15924 0.08044 0.10438 0.0
C98 C 0.17103 0.08896 0.98317 0.0
C99 C 0.20728 0.03954 0.88354 0.0
O100 O 0.23501 0.03268 -0.00195 0.0
O101 O 0.23098 0.05366 0.05943 0.0
O102 O 0.20549 0.98518 0.98048 0.0
O103 O 0.21782 1.00408 0.89167 0.0
O104 O 0.19492 0.99808 0.09217 0.0
O105 O 0.2095 0.0259 0.08183 0.0
O106 O 0.17372 0.0209 0.02175 0.0
O107 O 0.17641 0.99853 0.96484 0.0
O108 O 0.20671 0.07026 0.02972 0.0
O109 O 0.1867 0.04965 0.09935 0.0
O110 O 0.21304 0.05488 0.91376 0.0
O111 O 0.198 0.02738 0.9273 0.0
H112 H 0.22435 0.97136 0.01826 0.0
H113 H 0.23462 0.99244 0.80084 0.0
H114 H 0.2537 0.9797 0.77928 0.0
H115 H 0.24363 0.95881 -0.00274 0.0
H116 H 0.19014 0.08153 0.95009 0.0
H117 H 0.16939 0.06659 0.16703 0.0
H118 H 0.15099 0.0803 0.14872 0.0
H119 H 0.1717 0.09512 0.93138 0.0
Gd120 Gd 0.71778 0.54695 0.30192 0.0
Gd121 Gd 0.68418 0.5106 0.34516 0.0
C122 C 0.68037 0.5456 0.35137 0.0
C123 C 0.73965 0.57633 0.2354 0.0
C124 C 0.74611 0.59572 0.22755 0.0
C125 C 0.764 0.60804 0.24369 0.0
C126 C 0.73544 0.60213 0.1979 0.0
C127 C 0.76065 0.63272 0.19928 0.0
C128 C 0.7426 0.62038 0.18408 0.0
C129 C 0.77115 0.62621 0.22993 0.0
C130 C 0.71453 0.53865 0.4429 0.0
C131 C 0.72286 0.51298 0.31599 0.0
C132 C 0.66122 0.47954 0.39674 0.0
C133 C 0.65404 0.46019 0.38291 0.0
C134 C 0.6362 0.44953 0.36086 0.0
C135 C 0.66423 0.45192 0.39485 0.0
C136 C 0.63879 0.42279 0.36327 0.0
C137 C 0.65671 0.43348 0.38519 0.0
C138 C 0.62871 0.43117 0.35098 0.0
C139 C 0.68843 0.51889 0.20348 0.0
O140 O 0.69581 0.5541 0.31578 0.0
O141 O 0.67428 0.52929 0.37719 0.0
O142 O 0.74369 0.57097 0.29512 0.0
O143 O 0.72382 0.56481 0.21027 0.0
O144 O 0.72988 0.54851 0.41189 0.0
O145 O 0.70201 0.53556 0.40043 0.0
O146 O 0.70696 0.50468 0.3477 0.0
O147 O 0.7289 0.52862 0.28367 0.0
O148 O 0.65717 0.48818 0.34948 0.0
O149 O 0.67752 0.48909 0.42164 0.0
O150 O 0.67296 0.50969 0.23368 0.0
O151 O 0.70051 0.52169 0.24758 0.0
H152 H 0.77268 0.60354 0.26533 0.0
H153 H 0.72163 0.59304 0.18423 0.0
H154 H 0.73398 0.6248 0.16129 0.0
H155 H 0.78514 0.63509 0.24129 0.0
H156 H 0.62789 0.45539 0.35216 0.0
H157 H 0.678 0.45965 0.41216 0.0
H158 H 0.66499 0.42762 0.39456 0.0
H159 H 0.61483 0.42347 0.33534 0.0
Gd160 Gd 0.51654 0.19051 0.32137 0.0
Gd161 Gd 0.55325 0.19428 0.36582 0.0
C162 C 0.5186 0.15531 0.37563 0.0
C163 C 0.4868 0.18189 0.25477 0.0
C164 C 0.46745 0.16839 0.24716 0.0
C165 C 0.45483 0.16656 0.29958 0.0
C166 C 0.46118 0.1586 0.18254 0.0
C167 C 0.43015 0.14605 0.22147 0.0
C168 C 0.44284 0.14757 0.16996 0.0
C169 C 0.43646 0.15554 0.28696 0.0
C170 C 0.52499 0.19672 0.46207 0.0
C171 C 0.55036 0.22987 0.33208 0.0
C172 C 0.58461 0.20353 0.41773 0.0
C173 C 0.60387 0.21568 0.40096 0.0
C174 C 0.61186 0.2135 0.33829 0.0
C175 C 0.61478 0.22896 0.4507 0.0
C176 C 0.6413 0.23719 0.37701 0.0
C177 C 0.6332 0.23961 0.43883 0.0
C178 C 0.63029 0.22409 0.32656 0.0
C179 C 0.54502 0.18948 0.2237 0.0
O180 O 0.51002 0.16171 0.33733 0.0
O181 O 0.53478 0.16601 0.40226 0.0
O182 O 0.49211 0.19156 0.31381 0.0
O183 O 0.49859 0.17796 0.23008 0.0
O184 O 0.51475 0.20152 0.42983 0.0
O185 O 0.52825 0.18718 0.42121 0.0
O186 O 0.55867 0.22267 0.36625 0.0
O187 O 0.53477 0.21992 0.29934 0.0
O188 O 0.57563 0.18986 0.37501 0.0
O189 O 0.57522 0.2107 0.4389 0.0
O190 O 0.55458 0.18383 0.25516 0.0
O191 O 0.5419 0.19866 0.26684 0.0
H192 H 0.45908 0.17397 0.34981 0.0
H193 H 0.47048 0.15991 0.14045 0.0
H194 H 0.43862 0.14073 0.11848 0.0
H195 H 0.4272 0.15458 0.32848 0.0
H196 H 0.60393 0.20344 0.29861 0.0
H197 H 0.60909 0.23088 0.49976 0.0
H198 H 0.64118 0.24939 0.47936 0.0
H199 H 0.63592 0.22199 0.27777 0.0
Gd200 Gd 0.87378 0.3466 0.3129 0.0
Gd201 Gd 0.87049 0.37994 0.3547 0.0
C202 C 0.90935 0.38378 0.36702 0.0
C203 C 0.88215 0.32518 0.24813 0.0
C204 C 0.89555 0.31926 0.24057 0.0
C205 C 0.89888 0.31037 0.29685 0.0
C206 C 0.9037 0.32074 0.17303 0.0
C207 C 0.91759 0.30396 0.21701 0.0
C208 C 0.91458 0.31326 0.16143 0.0
C209 C 0.90976 0.30286 0.28525 0.0
C210 C 0.86722 0.34921 0.45268 0.0
C211 C 0.83442 0.34153 0.31987 0.0
C212 C 0.86179 0.4024 0.40612 0.0
C213 C 0.84935 0.40925 0.39258 0.0
C214 C 0.84677 0.41415 0.32286 0.0
C215 C 0.84076 0.41204 0.45139 0.0
C216 C 0.82776 0.4251 0.37177 0.0
C217 C 0.83011 0.41981 0.44122 0.0
C218 C 0.83615 0.42199 0.31264 0.0
C219 C 0.8759 0.37626 0.21377 0.0
O220 O 0.90276 0.36859 0.33034 0.0
O221 O 0.89883 0.38968 0.39143 0.0
O222 O 0.87271 0.32118 0.30782 0.0
O223 O 0.88607 0.34074 0.22191 0.0
O224 O 0.86231 0.33409 0.42123 0.0
O225 O 0.87705 0.3619 0.41166 0.0
O226 O 0.84173 0.35743 0.35081 0.0
O227 O 0.84429 0.33531 0.29138 0.0
O228 O 0.87459 0.4066 0.35902 0.0
O229 O 0.85502 0.38612 0.43042 0.0
O230 O 0.88171 0.39154 0.24466 0.0
O231 O 0.86628 0.36403 0.2567 0.0
H232 H 0.89278 0.30885 0.34954 0.0
H233 H 0.9012 0.32724 0.12818 0.0
H234 H 0.9201 0.31425 0.10787 0.0
H235 H 0.91192 0.29607 0.32986 0.0
H236 H 0.85316 0.41215 0.27626 0.0
H237 H 0.8426 0.40853 0.50577 0.0
H238 H 0.82411 0.42214 0.48833 0.0
H239 H 0.8345 0.4256 0.25821 0.0
Gd240 Gd 0.38683 0.88067 0.65424 0.0
Gd241 Gd 0.35351 0.84366 0.69298 0.0
C242 C 0.34932 0.87836 0.70754 0.0
C243 C 0.40841 0.91082 0.59185 0.0
C244 C 0.41383 0.92995 0.58304 0.0
C245 C 0.42288 0.94248 0.6382 0.0
C246 C 0.41185 0.93618 0.5153 0.0
C247 C 0.42851 0.96705 0.55681 0.0
C248 C 0.41902 0.95442 0.50241 0.0
C249 C 0.43008 0.96075 0.62529 0.0
C250 C 0.3838 0.87077 0.79344 0.0
C251 C 0.39243 0.84677 0.65799 0.0
C252 C 0.33067 0.81238 0.74292 0.0
C253 C 0.32296 0.79303 0.72838 0.0
C254 C 0.30437 0.78222 0.72217 0.0
C255 C 0.33351 0.78495 0.72377 0.0
C256 C 0.30688 0.7556 0.70802 0.0
C257 C 0.32556 0.76648 0.7138 0.0
C258 C 0.29645 0.76383 0.71203 0.0
C259 C 0.35707 0.85361 0.55334 0.0
O260 O 0.36456 0.88722 0.67093 0.0
O261 O 0.34363 0.86197 0.73159 0.0
O262 O 0.41187 0.90564 0.65339 0.0
O263 O 0.39334 0.89876 0.5628 0.0
O264 O 0.39906 0.8812 0.76285 0.0
O265 O 0.37121 0.868 0.75194 0.0
O266 O 0.37611 0.83746 0.68563 0.0
O267 O 0.39886 0.86324 0.63357 0.0
O268 O 0.32648 0.82128 0.69756 0.0
O269 O 0.34719 0.82159 0.76585 0.0
O270 O 0.34177 0.8438 0.58411 0.0
O271 O 0.36946 0.85606 0.5954 0.0
H272 H 0.42481 0.93825 0.69095 0.0
H273 H 0.40524 0.92695 0.47122 0.0
H274 H 0.41768 0.95864 0.44872 0.0
H275 H 0.43703 0.96995 0.66901 0.0
H276 H 0.29587 0.788 0.72621 0.0
H277 H 0.34788 0.79287 0.7283 0.0
H278 H 0.33409 0.76073 0.71021 0.0
H279 H 0.28205 0.75599 0.70909 0.0
Gd280 Gd 0.184 0.52351 0.65923 0.0
Gd281 Gd 0.22051 0.52681 0.70428 0.0
C282 C 0.18551 0.48797 0.71253 0.0
C283 C 0.1545 0.51543 0.59188 0.0
C284 C 0.13514 0.50211 0.58299 0.0
C285 C 0.12226 0.50135 0.63168 0.0
C286 C 0.12916 0.4915 0.52033 0.0
C287 C 0.09795 0.48032 0.55349 0.0
C288 C 0.11088 0.48073 0.50591 0.0
C289 C 0.10395 0.49057 0.61728 0.0
C290 C 0.19226 0.52934 0.80015 0.0
C291 C 0.21815 0.56276 0.67064 0.0
C292 C 0.25152 0.53533 0.75811 0.0
C293 C 0.2709 0.54742 0.74397 0.0
C294 C 0.27887 0.54706 0.67798 0.0
C295 C 0.28188 0.55873 0.7992 0.0
C296 C 0.30848 0.56862 0.72394 0.0
C297 C 0.30039 0.56922 0.78932 0.0
C298 C 0.2974 0.55749 0.66819 0.0
C299 C 0.21244 0.52224 0.56214 0.0
O300 O 0.17708 0.49456 0.67449 0.0
O301 O 0.20172 0.49849 0.73933 0.0
O302 O 0.1597 0.5248 0.6517 0.0
O303 O 0.16628 0.5115 0.56697 0.0
O304 O 0.18219 0.53436 0.76802 0.0
O305 O 0.19547 0.51982 0.75896 0.0
O306 O 0.22648 0.55539 0.70355 0.0
O307 O 0.20237 0.55295 0.63904 0.0
O308 O 0.24274 0.52215 0.71298 0.0
O309 O 0.24214 0.54249 0.77992 0.0
O310 O 0.22184 0.51639 0.59357 0.0
O311 O 0.2094 0.53147 0.60536 0.0
H312 H 0.12628 0.50951 0.67999 0.0
H313 H 0.13866 0.49189 0.48115 0.0
H314 H 0.10688 0.47286 0.45684 0.0
H315 H 0.09451 0.49082 0.65496 0.0
H316 H 0.27084 0.53854 0.6341 0.0
H317 H 0.27617 0.55919 0.85081 0.0
H318 H 0.30843 0.57743 0.83385 0.0
H319 H 0.30304 0.55684 0.61672 0.0
Gd320 Gd 0.54092 0.67927 0.65876 0.0
Gd321 Gd 0.53682 0.71236 0.69579 0.0
C322 C 0.5766 0.71689 0.69988 0.0
C323 C 0.54824 0.65553 0.61064 0.0
C324 C 0.56104 0.65041 0.5815 0.0
C325 C 0.57884 0.65837 0.60531 0.0
C326 C 0.55456 0.63564 0.53528 0.0
C327 C 0.58296 0.63604 0.54068 0.0
C328 C 0.56532 0.62854 0.51527 0.0
C329 C 0.58972 0.65133 0.58468 0.0
C330 C 0.53083 0.68091 0.79484 0.0
C331 C 0.50152 0.67424 0.66896 0.0
C332 C 0.53396 0.73872 0.74582 0.0
C333 C 0.52231 0.74659 0.73629 0.0
C334 C 0.50954 0.74105 0.68066 0.0
C335 C 0.5241 0.76003 0.78348 0.0
C336 C 0.50074 0.76258 0.71912 0.0
C337 C 0.51349 0.76791 0.77512 0.0
C338 C 0.49888 0.74894 0.67219 0.0
C339 C 0.53296 0.70291 0.5555 0.0
O340 O 0.56975 0.70033 0.67636 0.0
O341 O 0.5666 0.7242 0.71266 0.0
O342 O 0.54998 0.66058 0.67839 0.0
O343 O 0.54235 0.66366 0.56869 0.0
O344 O 0.52539 0.66616 0.75984 0.0
O345 O 0.54204 0.69394 0.7581 0.0
O346 O 0.50869 0.68938 0.70565 0.0
O347 O 0.51153 0.66878 0.63561 0.0
O348 O 0.54423 0.74014 0.69098 0.0
O349 O 0.52683 0.72314 0.77756 0.0
O350 O 0.52502 0.71045 0.58568 0.0
O351 O 0.54401 0.70243 0.59831 0.0
H352 H 0.58418 0.66968 0.64152 0.0
H353 H 0.54088 0.62916 0.5165 0.0
H354 H 0.55971 0.61697 0.48043 0.0
H355 H 0.60319 0.65745 0.60555 0.0
H356 H 0.50788 0.7307 0.64349 0.0
H357 H 0.53378 0.76449 0.82705 0.0
H358 H 0.51518 0.77809 0.81327 0.0
H359 H 0.4894 0.74453 0.62797 0.0
H360 H 0.12791 0.3274 0.94771 0.0
H361 H 0.14238 0.35891 0.91705 0.0
H362 H 0.09693 0.34913 0.7877 0.0
H363 H 0.08231 0.31755 0.81835 0.0
H364 H 0.12641 0.37058 0.71651 0.0
H365 H 0.10577 0.36972 0.95781 0.0
H366 H 0.1021 0.36306 0.08864 0.0
H367 H 0.15878 0.39426 0.11852 0.0
H368 H 0.16281 0.40091 -0.01237 0.0
H369 H 0.15218 0.46181 0.66871 0.0
H370 H 0.13642 0.43035 0.70189 0.0
H371 H 0.18124 0.43861 0.8322 0.0
H372 H 0.19696 0.47011 0.80021 0.0
H373 H 0.15144 0.41795 0.90306 0.0
H374 H 0.1721 0.4181 0.66138 0.0
H375 H 0.17576 0.42495 0.53067 0.0
H376 H 0.11897 0.3952 0.50196 0.0
H377 H 0.11496 0.38837 0.63275 0.0
C378 C 0.12081 0.33193 0.9136 0.0
C379 C 0.10381 0.31975 0.88599 0.0
C380 C 0.12917 0.35005 0.89591 0.0
C381 C 0.12074 0.35663 0.85056 0.0
C382 C 0.1038 0.34452 0.82269 0.0
C383 C 0.09544 0.32637 0.84022 0.0
C384 C 0.12972 0.376 0.83106 0.0
C385 C 0.13163 0.3809 0.75752 0.0
C386 C 0.13698 0.38966 0.88403 0.0
C387 C 0.1346 0.38565 0.96275 0.0
C388 C 0.11746 0.37504 -0.00784 0.0
C389 C 0.11532 0.37129 0.06635 0.0
C390 C 0.1302 0.37819 0.11183 0.0
C391 C 0.14726 0.3889 0.08321 0.0
C392 C 0.14949 0.39267 0.00903 0.0
C393 C 0.15875 0.45696 0.70423 0.0
C394 C 0.17596 0.46861 0.7312 0.0
C395 C 0.14971 0.43887 0.72302 0.0
C396 C 0.15766 0.43188 0.76893 0.0
C397 C 0.17476 0.44354 0.79655 0.0
C398 C 0.1838 0.46161 0.7778 0.0
C399 C 0.14818 0.4125 0.78858 0.0
C400 C 0.14619 0.40762 0.86212 0.0
C401 C 0.14084 0.39885 0.73564 0.0
C402 C 0.14323 0.40288 0.65697 0.0
C403 C 0.16039 0.41313 0.62728 0.0
C404 C 0.16253 0.41699 0.55317 0.0
C405 C 0.14761 0.41055 0.50808 0.0
C406 C 0.13051 0.4002 0.53698 0.0
C407 C 0.1283 0.39632 0.61108 0.0
H408 H 0.14929 0.41355 0.45071 0.0
H409 H 0.12851 0.37528 0.16926 0.0
H410 H 0.74478 0.7809 0.86459 0.0
H411 H 0.7127 0.76357 0.83981 0.0
H412 H 0.71136 0.81198 0.80868 0.0
H413 H 0.7432 0.82933 0.83535 0.0
H414 H 0.68296 0.78878 0.88538 0.0
H415 H 0.71136 0.78632 0.66396 0.0
H416 H 0.7313 0.77996 0.59063 0.0
H417 H 0.70163 0.7251 0.65342 0.0
H418 H 0.68166 0.73118 0.72791 0.0
H419 H 0.59798 0.75303 0.71799 0.0
H420 H 0.62986 0.76972 0.74583 0.0
H421 H 0.63135 0.72091 0.749 0.0
H422 H 0.59974 0.70432 0.71778 0.0
H423 H 0.65982 0.7439 0.68888 0.0
H424 H 0.63144 0.74533 0.90946 0.0
H425 H 0.61151 0.75087 0.9867 0.0
H426 H 0.64089 0.80629 0.93214 0.0
H427 H 0.66086 0.80104 0.85383 0.0
C428 C 0.73765 0.78788 0.85317 0.0
C429 C 0.74677 0.8066 0.85141 0.0
C430 C 0.71927 0.77792 0.83829 0.0
C431 C 0.7095 0.78639 0.82119 0.0
C432 C 0.71849 0.80504 0.82123 0.0
C433 C 0.73682 0.81498 0.8359 0.0
C434 C 0.69 0.77595 0.80275 0.0
C435 C 0.67794 0.7791 0.84186 0.0
C436 C 0.68322 0.76293 0.7473 0.0
C437 C 0.69513 0.75924 0.70203 0.0
C438 C 0.70917 0.77292 0.6625 0.0
C439 C 0.72046 0.76937 0.62067 0.0
C440 C 0.71776 0.75215 0.61751 0.0
C441 C 0.70372 0.73843 0.65599 0.0
C442 C 0.6924 0.74192 0.69797 0.0
C443 C 0.6051 0.74584 0.72446 0.0
C444 C 0.59617 0.72728 0.7157 0.0
C445 C 0.62339 0.75541 0.74102 0.0
C446 C 0.63319 0.74666 0.75129 0.0
C447 C 0.62429 0.72812 0.74163 0.0
C448 C 0.6061 0.7186 0.7238 0.0
C449 C 0.65266 0.7567 0.77149 0.0
C450 C 0.66476 0.75351 0.73265 0.0
C451 C 0.65945 0.76954 0.82785 0.0
C452 C 0.64754 0.77276 0.87527 0.0
C453 C 0.63358 0.75868 0.9136 0.0
C454 C 0.62229 0.76177 0.95761 0.0
C455 C 0.62491 0.77891 0.96418 0.0
C456 C 0.63886 0.79301 0.92693 0.0
C457 C 0.65018 0.78999 0.88278 0.0
H458 H 0.61615 0.78128 -0.00175 0.0
H459 H 0.72652 0.74942 0.58512 0.0
H460 H 0.24381 0.93511 0.93117 0.0
H461 H 0.26082 0.92038 0.9039 0.0
H462 H 0.29817 0.96582 0.77911 0.0
H463 H 0.28122 0.98067 0.80628 0.0
H464 H 0.29049 0.93682 0.70735 0.0
H465 H 0.30797 0.95579 0.95235 0.0
H466 H 0.3036 0.95863 0.08265 0.0
H467 H 0.2772 0.90196 0.10667 0.0
H468 H 0.28118 0.89876 0.97625 0.0
H469 H 0.35667 0.91188 0.66841 0.0
H470 H 0.34043 0.9271 0.70107 0.0
H471 H 0.30282 0.88131 0.82355 0.0
H472 H 0.31919 0.86608 0.79207 0.0
H473 H 0.31073 0.91048 0.89697 0.0
H474 H 0.29284 0.8915 0.65191 0.0
H475 H 0.2974 0.88864 0.5218 0.0
H476 H 0.32467 0.94535 0.49836 0.0
H477 H 0.32048 0.94857 0.6286 0.0
C478 C 0.25579 0.94214 0.89879 0.0
C479 C 0.26108 0.95921 0.87133 0.0
C480 C 0.26554 0.93364 0.88306 0.0
C481 C 0.28101 0.94197 0.83993 0.0
C482 C 0.28632 0.95899 0.81238 0.0
C483 C 0.27654 0.96749 0.8279 0.0
C484 C 0.29139 0.93283 0.8221 0.0
C485 C 0.29511 0.93131 0.7491 0.0
C486 C 0.29715 0.92514 0.87593 0.0
C487 C 0.29471 0.92703 0.95434 0.0
C488 C 0.3011 0.94393 0.98528 0.0
C489 C 0.29871 0.9456 0.05919 0.0
C490 C 0.29008 0.93049 0.10287 0.0
C491 C 0.28385 0.91366 0.07275 0.0
C492 C 0.28618 0.91191 -0.00116 0.0
C493 C 0.34492 0.90497 0.70217 0.0
C494 C 0.33922 0.88761 0.72692 0.0
C495 C 0.33556 0.91371 0.72065 0.0
C496 C 0.32013 0.90534 0.76399 0.0
C497 C 0.31459 0.88812 0.7898 0.0
C498 C 0.32395 0.87936 0.77136 0.0
C499 C 0.30981 0.91451 0.78231 0.0
C500 C 0.3061 0.91601 0.85532 0.0
C501 C 0.30404 0.92218 0.72853 0.0
C502 C 0.3065 0.92028 0.65014 0.0
C503 C 0.29992 0.90337 0.61911 0.0
C504 C 0.30242 0.90168 0.54533 0.0
C505 C 0.31136 0.91681 0.50188 0.0
C506 C 0.31777 0.93365 0.5321 0.0
C507 C 0.31532 0.93541 0.60588 0.0
H508 H 0.31328 0.91547 0.44477 0.0
H509 H 0.28826 0.93181 0.16008 0.0
H510 H 0.41182 0.11386 0.15066 0.0
H511 H 0.38011 0.09697 0.12037 0.0
H512 H 0.37193 0.13651 0.22575 0.0
H513 H 0.40364 0.15352 0.25603 0.0
H514 H 0.34513 0.10415 0.2582 0.0
H515 H 0.37436 0.13423 0.03778 0.0
H516 H 0.39612 0.14287 0.93812 0.0
H517 H 0.37359 0.08816 0.87695 0.0
H518 H 0.35184 0.07917 0.97689 0.0
H519 H 0.26007 0.07927 0.10969 0.0
H520 H 0.29168 0.09529 0.14188 0.0
H521 H 0.29897 0.05558 0.03283 0.0
H522 H 0.26741 0.03962 -0.00067 0.0
H523 H 0.32616 0.08749 0.00293 0.0
H524 H 0.29667 0.05718 0.22064 0.0
H525 H 0.27466 0.04814 0.31952 0.0
H526 H 0.29747 0.10251 0.38609 0.0
H527 H 0.31946 0.11192 0.2869 0.0
C528 C 0.40334 0.11907 0.16714 0.0
C529 C 0.41049 0.1352 0.20565 0.0
C530 C 0.38512 0.10934 0.14975 0.0
C531 C 0.3735 0.11551 0.16971 0.0
C532 C 0.3805 0.13138 0.20959 0.0
C533 C 0.39872 0.1411 0.22716 0.0
C534 C 0.35417 0.10559 0.14838 0.0
C535 C 0.34103 0.10072 0.20222 0.0
C536 C 0.3486 0.10063 0.0756 0.0
C537 C 0.36159 0.10602 0.01524 0.0
C538 C 0.37413 0.12403 0.00338 0.0
C539 C 0.38645 0.12899 0.9468 0.0
C540 C 0.38627 0.11607 0.90135 0.0
C541 C 0.37373 0.09816 0.91226 0.0
C542 C 0.3614 0.09312 0.96882 0.0
C543 C 0.26836 0.07392 0.0923 0.0
C544 C 0.26104 0.05805 0.05198 0.0
C545 C 0.2865 0.08308 0.1112 0.0
C546 C 0.29782 0.07658 0.0909 0.0
C547 C 0.29061 0.06092 0.04948 0.0
C548 C 0.27248 0.05176 0.03042 0.0
C549 C 0.31712 0.08609 0.11269 0.0
C550 C 0.33025 0.09089 0.05894 0.0
C551 C 0.32267 0.09091 0.18559 0.0
C552 C 0.30961 0.08527 0.24589 0.0
C553 C 0.29692 0.06723 0.25606 0.0
C554 C 0.28445 0.06203 0.31219 0.0
C555 C 0.28464 0.07474 0.35892 0.0
C556 C 0.29733 0.09268 0.34978 0.0
C557 C 0.30981 0.09795 0.29365 0.0
H558 H 0.27496 0.07069 0.4023 0.0
H559 H 0.39582 0.11993 0.85758 0.0
H560 H 0.94784 0.31564 0.13311 0.0
H561 H 0.96456 0.30051 0.10728 0.0
H562 H 0.92866 0.25675 0.24305 0.0
H563 H 0.91179 0.27173 0.26881 0.0
H564 H 0.96222 0.26478 0.26788 0.0
H565 H 0.9266 0.25452 0.05349 0.0
H566 H 0.91519 0.26332 0.94839 0.0
H567 H 0.96837 0.29415 0.86455 0.0
H568 H 0.98013 0.28571 0.96967 0.0
H569 H 0.98698 0.20187 0.14715 0.0
H570 H 0.9713 0.21786 0.17786 0.0
H571 H 1.00673 0.26104 0.03857 0.0
H572 H 1.02244 0.24516 0.00761 0.0
H573 H 0.97361 0.25355 0.01555 0.0
H574 H 1.00988 0.26603 0.22611 0.0
H575 H 1.02325 0.26152 0.33627 0.0
H576 H 0.97115 0.22917 0.428 0.0
H577 H 0.95747 0.23354 0.31838 0.0
C578 C 0.94336 0.30273 0.15714 0.0
C579 C 0.92832 0.29498 0.20301 0.0
C580 C 0.95299 0.29405 0.14226 0.0
C581 C 0.94781 0.27728 0.17225 0.0
C582 C 0.93301 0.26964 0.21905 0.0
C583 C 0.92338 0.27832 0.23405 0.0
C584 C 0.95781 0.26773 0.15528 0.0
C585 C 0.96443 0.26206 0.21265 0.0
C586 C 0.96132 0.26464 0.08326 0.0
C587 C 0.95426 0.26961 0.01978 0.0
C588 C 0.93587 0.26327 0.01288 0.0
C589 C 0.92934 0.26818 0.95327 0.0
C590 C 0.94105 0.27932 0.89992 0.0
C591 C 0.95932 0.28554 0.90595 0.0
C592 C 0.96592 0.28068 0.9655 0.0
C593 C 0.99148 0.21478 0.12298 0.0
C594 C 1.00603 0.22213 0.07466 0.0
C595 C 0.98254 0.224 0.14108 0.0
C596 C 0.98785 0.24082 0.1112 0.0
C597 C 1.00231 0.24813 0.06264 0.0
C598 C 1.01133 0.23899 0.04497 0.0
C599 C 0.97796 0.25048 0.12826 0.0
C600 C 0.97134 0.25617 0.07084 0.0
C601 C 0.97461 0.25375 0.20025 0.0
C602 C 0.98265 0.24998 0.26377 0.0
C603 C 1.00127 0.25779 0.2694 0.0
C604 C 1.00891 0.2554 0.33203 0.0
C605 C 0.99806 0.24518 0.3893 0.0
C606 C 0.97954 0.23718 0.38378 0.0
C607 C 0.97184 0.23963 0.32148 0.0
H608 H 1.00401 0.24331 0.43765 0.0
H609 H 0.93597 0.28311 0.85382 0.0
H610 H 0.82321 0.79491 0.95131 0.0
H611 H 0.80724 0.76297 0.97646 0.0
H612 H 0.84232 0.77163 0.15704 0.0
H613 H 0.85876 0.80334 0.13002 0.0
H614 H 0.83723 0.74367 0.09392 0.0
H615 H 0.79661 0.76294 0.1715 0.0
H616 H 0.77852 0.77735 0.15627 0.0
H617 H 0.74876 0.74079 0.9859 0.0
H618 H 0.76683 0.72629 -0.00046 0.0
H619 H 0.78588 0.66161 0.27627 0.0
H620 H 0.80042 0.693 0.24367 0.0
H621 H 0.76835 0.67981 0.05037 0.0
H622 H 0.75386 0.64826 0.08202 0.0
H623 H 0.77132 0.70942 0.11483 0.0
H624 H 0.81174 0.68968 0.04202 0.0
H625 H 0.83006 0.67558 0.05902 0.0
H626 H 0.86029 0.71349 0.22476 0.0
H627 H 0.84198 0.72767 0.20944 0.0
C628 C 0.82755 0.79 -0.00374 0.0
C629 C 0.84232 0.8018 0.03853 0.0
C630 C 0.81829 0.77168 0.01107 0.0
C631 C 0.82324 0.76468 0.06976 0.0
C632 C 0.8381 0.77649 0.11147 0.0
C633 C 0.84753 0.79473 0.09594 0.0
C634 C 0.81319 0.74516 0.08772 0.0
C635 C 0.82283 0.73632 0.09941 0.0
C636 C 0.7943 0.73518 0.09336 0.0
C637 C 0.78319 0.74365 0.08608 0.0
C638 C 0.78626 0.75803 0.13057 0.0
C639 C 0.77601 0.76621 0.12223 0.0
C640 C 0.76253 0.76002 0.06999 0.0
C641 C 0.75922 0.74558 0.02626 0.0
C642 C 0.76945 0.73736 0.03432 0.0
C643 C 0.78194 0.66528 0.22647 0.0
C644 C 0.76872 0.65217 0.1816 0.0
C645 C 0.79028 0.68334 0.20795 0.0
C646 C 0.78574 0.6889 0.14385 0.0
C647 C 0.77216 0.67595 0.10007 0.0
C648 C 0.76381 0.65784 0.11851 0.0
C649 C 0.79543 0.70813 0.122 0.0
C650 C 0.78572 0.71685 0.10939 0.0
C651 C 0.81427 0.71806 0.11607 0.0
C652 C 0.82538 0.70964 0.12501 0.0
C653 C 0.82221 0.69494 0.08244 0.0
C654 C 0.83261 0.68694 0.09173 0.0
C655 C 0.84631 0.69361 0.14306 0.0
C656 C 0.84966 0.70832 0.18508 0.0
C657 C 0.83929 0.71635 0.17607 0.0
H658 H 0.85434 0.6874 0.15017 0.0
H659 H 0.75464 0.7664 0.0635 0.0
H660 H 0.06936 0.46125 0.6453 0.0
H661 H 0.03758 0.44493 0.61511 0.0
H662 H 0.05029 0.45888 0.3901 0.0
H663 H 0.08198 0.4757 0.42011 0.0
H664 H 1.02298 0.46265 0.4262 0.0
H665 H 0.03768 0.41666 0.45664 0.0
H666 H 0.04936 0.3998 0.5211 0.0
H667 H 1.01103 0.38735 0.69102 0.0
H668 H 0.99927 0.40434 0.628 0.0
H669 H 0.93489 0.37483 0.33568 0.0
H670 H 0.9665 0.39081 0.36845 0.0
H671 H 0.95948 0.43076 0.4767 0.0
H672 H 0.92787 0.41494 0.44384 0.0
H673 H 0.98398 0.39961 0.49648 0.0
H674 H 0.99764 0.47116 0.45581 0.0
H675 H 0.98641 0.48725 0.3827 0.0
H676 H 0.96899 0.44718 0.21767 0.0
H677 H 0.98032 0.431 0.28931 0.0
C678 C 0.06543 0.46096 0.58939 0.0
C679 C 0.07841 0.46981 0.53524 0.0
C680 C 0.04719 0.45145 0.57204 0.0
C681 C 0.04138 0.45044 0.50003 0.0
C682 C 0.0543 0.45936 0.44603 0.0
C683 C 0.07252 0.46885 0.46329 0.0
C684 C 1.02193 0.44026 0.48077 0.0
C685 C 1.01449 0.44889 0.44191 0.0
C686 C 1.0107 0.42218 0.50013 0.0
C687 C 1.01771 0.41192 0.53796 0.0
C688 C 0.03183 0.41043 0.50802 0.0
C689 C 0.03845 0.40084 0.54425 0.0
C690 C 0.03098 0.39255 0.61021 0.0
C691 C 1.01683 0.3938 0.63998 0.0
C692 C 1.01017 0.4034 0.604 0.0
C693 C 0.94003 0.38704 0.3663 0.0
C694 C 0.92873 0.39361 0.38647 0.0
C695 C 0.95816 0.39614 0.38538 0.0
C696 C 0.96554 0.41213 0.42462 0.0
C697 C 0.95425 0.41861 0.44558 0.0
C698 C 0.93611 0.40949 0.42672 0.0
C699 C 0.98504 0.42208 0.44272 0.0
C700 C 0.99247 0.41342 0.4813 0.0
C701 C 0.99632 0.44005 0.42227 0.0
C702 C 0.98966 0.44979 0.37832 0.0
C703 C 0.99147 0.46583 0.40381 0.0
C704 C 0.98508 0.47495 0.36264 0.0
C705 C 0.97694 0.46821 0.29571 0.0
C706 C 0.97523 0.45236 0.26966 0.0
C707 C 0.98162 0.44319 0.31056 0.0
H708 H 0.97199 0.47529 0.26395 0.0
H709 H 0.03612 0.38512 0.63818 0.0
H710 H 0.61842 0.65198 0.50101 0.0
H711 H 0.63577 0.63759 0.47078 0.0
H712 H 0.58963 0.5863 0.51117 0.0
H713 H 0.57229 0.60056 0.54168 0.0
H714 H 0.62029 0.5892 0.57159 0.0
H715 H 0.60193 0.60073 0.33986 0.0
H716 H 0.59957 0.61976 0.2466 0.0
H717 H 0.65665 0.65114 0.23479 0.0
H718 H 0.65935 0.63243 0.32875 0.0
H719 H 0.64715 0.53227 0.41253 0.0
H720 H 0.63168 0.54823 0.4454 0.0
H721 H 0.67614 0.59704 0.36643 0.0
H722 H 0.69144 0.58101 0.3312 0.0
H723 H 0.64762 0.59678 0.32852 0.0
H724 H 0.66725 0.58633 0.55433 0.0
H725 H 0.67129 0.56919 0.65153 0.0
H726 H 0.61458 0.53827 0.68071 0.0
H727 H 0.61018 0.55506 0.583 0.0
C728 C 0.61199 0.63765 0.50384 0.0
C729 C 0.59386 0.62747 0.5233 0.0
C730 C 0.62191 0.6294 0.48612 0.0
C731 C 0.61403 0.61079 0.48802 0.0
C732 C 0.59607 0.60065 0.50899 0.0
C733 C 0.58611 0.60885 0.5259 0.0
C734 C 0.62432 0.60178 0.46747 0.0
C735 C 0.6261 0.5907 0.51815 0.0
C736 C 0.63246 0.60413 0.39862 0.0
C737 C 0.63084 0.6153 0.34184 0.0
C738 C 0.61398 0.61177 0.31777 0.0
C739 C 0.61258 0.62248 0.26472 0.0
C740 C 0.62795 0.63668 0.23493 0.0
C741 C 0.64475 0.64016 0.25799 0.0
C742 C 0.64623 0.6295 0.31109 0.0
C743 C 0.65366 0.54639 0.40191 0.0
C744 C 0.67064 0.55529 0.36928 0.0
C745 C 0.64482 0.55559 0.42136 0.0
C746 C 0.65279 0.57402 0.41 0.0
C747 C 0.66961 0.58287 0.37623 0.0
C748 C 0.6784 0.57364 0.35609 0.0
C749 C 0.64352 0.58399 0.43246 0.0
C750 C 0.64191 0.59527 0.38215 0.0
C751 C 0.63581 0.58207 0.50221 0.0
C752 C 0.63838 0.57185 0.56079 0.0
C753 C 0.65563 0.57578 0.58105 0.0
C754 C 0.65799 0.56614 0.63632 0.0
C755 C 0.6432 0.55263 0.67215 0.0
C756 C 0.62602 0.54873 0.65285 0.0
C757 C 0.62359 0.55832 0.59756 0.0
H758 H 0.64505 0.5452 0.71496 0.0
H759 H 0.62684 0.64495 0.19387 0.0
H760 H 0.48552 0.12886 0.3309 0.0
H761 H 0.47013 0.09736 0.36327 0.0
H762 H 0.5147 0.10625 0.49671 0.0
H763 H 0.53028 0.13771 0.4638 0.0
H764 H 0.50357 0.07672 0.41994 0.0
H765 H 0.47481 0.09967 0.57157 0.0
H766 H 0.45877 0.11573 0.59878 0.0
H767 H 0.41568 0.08022 0.46061 0.0
H768 H 0.43153 0.06403 0.43211 0.0
H769 H 0.46107 0.99394 0.60472 0.0
H770 H 0.47575 0.0256 0.57643 0.0
H771 H 0.43112 0.0165 0.44305 0.0
H772 H 0.41605 0.98486 0.4731 0.0
H773 H 0.44218 0.04615 0.51989 0.0
H774 H 0.47081 0.02303 0.36908 0.0
H775 H 0.48682 1.00697 0.34173 0.0
H776 H 0.5303 0.04293 0.4774 0.0
H777 H 0.51442 0.05906 0.50636 0.0
C778 C 0.4921 0.12416 0.36711 0.0
C779 C 0.50922 0.13596 0.39449 0.0
C780 C 0.4832 0.10608 0.386 0.0
C781 C 0.49109 0.09929 0.43325 0.0
C782 C 0.50825 0.11103 0.46016 0.0
C783 C 0.51717 0.1291 0.44124 0.0
C784 C 0.48162 0.07998 0.45378 0.0
C785 C 0.49025 0.07013 0.44279 0.0
C786 C 0.46402 0.0711 0.48202 0.0
C787 C 0.45444 0.08076 0.49915 0.0
C788 C 0.46198 0.09538 0.54656 0.0
C789 C 0.45291 0.10448 0.5623 0.0
C790 C 0.43626 0.09904 0.53121 0.0
C791 C 0.4286 0.08443 0.48455 0.0
C792 C 0.4376 0.07527 0.46869 0.0
C793 C 0.45421 0.99864 0.57013 0.0
C794 C 0.4373 0.98664 0.54121 0.0
C795 C 0.46276 0.01681 0.55324 0.0
C796 C 0.45475 0.02357 0.50654 0.0
C797 C 0.43771 1.01172 0.47886 0.0
C798 C 0.42914 0.99353 0.49569 0.0
C799 C 0.46416 0.0429 0.48621 0.0
C800 C 0.45552 0.05274 0.49715 0.0
C801 C 0.48175 0.05179 0.45787 0.0
C802 C 0.49134 0.04214 0.44046 0.0
C803 C 0.48372 0.02742 0.39353 0.0
C804 C 0.49278 0.01833 0.37767 0.0
C805 C 0.50955 0.0239 0.40797 0.0
C806 C 0.5173 0.03861 0.45406 0.0
C807 C 0.50828 0.04775 0.47018 0.0
H808 H 0.51654 0.01684 0.3956 0.0
H809 H 0.42926 0.10611 0.54344 0.0
H810 H 0.16988 0.12077 0.97003 0.0
H811 H 0.15287 0.13606 0.95614 0.0
H812 H 0.1088 0.0938 0.07176 0.0
H813 H 0.12559 0.0782 0.08441 0.0
H814 H 0.09692 0.10403 0.95598 0.0
H815 H 0.13724 0.13365 0.15385 0.0
H816 H 0.16659 0.14974 0.21376 0.0
H817 H 0.18415 0.19163 0.05665 0.0
H818 H 0.15497 0.17566 -0.00481 0.0
H819 H 0.0483 0.14636 0.05233 0.0
H820 H 0.06585 0.1316 0.05004 0.0
H821 H 0.10846 0.17677 0.94092 0.0
H822 H 0.09096 0.19187 0.94397 0.0
H823 H 0.12178 0.16571 0.04575 0.0
H824 H 0.08123 0.13722 0.85103 0.0
H825 H 0.05199 0.12143 0.79031 0.0
H826 H 0.03499 0.07772 0.93804 0.0
H827 H 0.06407 0.09337 0.0004 0.0
C828 C 0.1565 0.11458 -0.00811 0.0
C829 C 0.14921 0.09818 0.02859 0.0
C830 C 0.14681 0.12347 0.98446 0.0
C831 C 0.12955 0.11626 0.01358 0.0
C832 C 0.12209 0.09974 0.04893 0.0
C833 C 0.1318 0.09087 0.05668 0.0
C834 C 0.11936 0.12601 0.00799 0.0
C835 C 0.10229 0.11745 0.97639 0.0
C836 C 0.12647 0.14374 0.03253 0.0
C837 C 0.14399 0.15337 0.06949 0.0
C838 C 0.14741 0.14623 0.13174 0.0
C839 C 0.16401 0.15534 0.16604 0.0
C840 C 0.17724 0.17167 0.1389 0.0
C841 C 0.17389 0.17896 0.07753 0.0
C842 C 0.15733 0.16989 0.04297 0.0
C843 C 0.06136 0.15322 0.02735 0.0
C844 C 0.06812 0.17039 -0.00181 0.0
C845 C 0.0714 0.14465 0.02581 0.0
C846 C 0.08849 0.15289 -0.00548 0.0
C847 C 0.09533 0.17005 0.96532 0.0
C848 C 0.08526 0.17867 0.96688 0.0
C849 C 0.09926 0.1437 -0.00572 0.0
C850 C 0.11643 0.15234 0.02486 0.0
C851 C 0.09227 0.12607 0.96847 0.0
C852 C 0.07479 0.11654 0.93081 0.0
C853 C 0.07122 0.12429 0.87094 0.0
C854 C 0.05468 0.11536 0.83616 0.0
C855 C 0.04163 0.0986 0.86041 0.0
C856 C 0.04511 0.09071 0.91937 0.0
C857 C 0.06163 0.0996 0.9544 0.0
H858 H 0.02883 0.0917 0.83343 0.0
H859 H 0.19008 0.1787 0.16554 0.0
H860 H 0.91819 0.9204 0.05555 0.0
H861 H 0.93276 0.95274 0.06086 0.0
H862 H 0.88729 0.95079 0.95674 0.0
H863 H 0.8725 0.9183 0.95161 0.0
H864 H 0.94381 0.97847 0.9615 0.0
H865 H 0.88185 0.98462 0.02465 0.0
H866 H 0.85242 0.96733 0.08327 0.0
H867 H 0.87237 0.94043 0.21512 0.0
H868 H 0.90196 0.95773 0.15803 0.0
H869 H 0.96791 0.06969 0.93219 0.0
H870 H 0.95261 0.03737 0.91939 0.0
H871 H 0.94288 0.03151 0.1496 0.0
H872 H 0.95749 0.06372 0.16244 0.0
H873 H 0.91413 1.00768 0.08212 0.0
H874 H 0.97645 0.02659 0.06719 0.0
H875 H 1.00698 0.04411 0.01867 0.0
H876 H 0.98852 0.0208 0.80872 0.0
H877 H 0.95781 1.00333 0.85574 0.0
C878 C 0.91122 0.92678 0.03361 0.0
C879 C 0.89405 0.91659 0.00342 0.0
C880 C 0.91966 0.94537 0.03642 0.0
C881 C 0.91115 0.95435 0.00976 0.0
C882 C 0.89411 0.94425 0.97854 0.0
C883 C 0.88567 0.92562 0.97541 0.0
C884 C 0.92002 0.97419 0.0161 0.0
C885 C 0.93725 0.98483 -0.01246 0.0
C886 C 0.91172 0.98266 0.05115 0.0
C887 C 0.89404 0.97233 0.08644 0.0
C888 C 0.87996 0.97505 0.06631 0.0
C889 C 0.86325 0.96525 0.09926 0.0
C890 C 0.86051 0.95274 0.15269 0.0
C891 C 0.87449 0.95007 0.17352 0.0
C892 C 0.89122 0.95986 0.14082 0.0
C893 C 0.96238 0.06157 0.98014 0.0
C894 C 0.96411 0.06951 0.0485 0.0
C895 C 0.95375 0.04301 0.9728 0.0
C896 C 0.9467 0.03184 0.03362 0.0
C897 C 0.9482 0.03971 0.1017 0.0
C898 C 0.95679 0.05824 0.10908 0.0
C899 C 0.93786 1.012 0.02674 0.0
C900 C 0.92063 1.00135 0.05537 0.0
C901 C 0.94631 1.00352 -0.0071 0.0
C902 C 0.9648 1.01378 0.96483 0.0
C903 C 0.97888 0.02528 0.01057 0.0
C904 C 0.99622 0.0352 0.98335 0.0
C905 C 0.99968 0.03361 0.91062 0.0
C906 C 0.98582 0.02204 0.86502 0.0
C907 C 0.96844 1.01211 0.89194 0.0
H908 H 1.01311 0.04132 0.88963 0.0
H909 H 0.84757 0.94515 0.17808 0.0
H910 H 0.99477 0.9365 0.03702 0.0
H911 H 0.02711 0.95364 0.01998 0.0
H912 H 0.03016 0.90608 0.04983 0.0
H913 H 0.9979 0.88895 0.06774 0.0
H914 H 0.05633 0.93149 0.11979 0.0
H915 H 0.03428 0.92627 0.87855 0.0
H916 H 1.01631 0.92849 0.77988 0.0
H917 H 0.04212 0.98494 0.81043 0.0
H918 H 0.06009 0.98302 0.91001 0.0
H919 H 0.14565 0.96842 0.98262 0.0
H920 H 0.11299 0.95041 -0.00949 0.0
H921 H 0.10971 0.99806 0.00784 0.0
H922 H 0.14223 0.01607 0.00138 0.0
H923 H 0.08399 0.97221 0.9111 0.0
H924 H 0.10573 0.97651 0.15477 0.0
H925 H 0.12409 0.97361 0.24988 0.0
H926 H 0.09889 0.91757 0.20937 0.0
H927 H 0.08057 0.92019 0.11309 0.0
C928 C 1.00228 0.92964 0.03935 0.0
C929 C 0.99359 0.91128 0.05383 0.0
C930 C 1.02085 0.93948 0.02947 0.0
C931 C 0.03126 0.93122 0.03262 0.0
C932 C 1.02259 0.91289 0.04725 0.0
C933 C 1.00406 0.90308 0.05766 0.0
C934 C 0.05113 0.94163 0.02178 0.0
C935 C 0.06228 0.94016 0.07344 0.0
C936 C 0.05917 0.95326 0.96206 0.0
C937 C 0.0484 0.95447 0.90224 0.0
C938 C 0.03602 0.93914 0.86461 0.0
C939 C 0.02586 0.94034 0.80846 0.0
C940 C 0.02803 0.95684 0.78903 0.0
C941 C 0.04042 0.97217 0.82562 0.0
C942 C 0.05062 0.97103 0.88188 0.0
C943 C 0.13797 0.97507 -0.01256 0.0
C944 C 0.14663 0.99372 -0.00848 0.0
C945 C 0.11929 0.96475 -0.00775 0.0
C946 C 0.10883 0.97285 0.00011 0.0
C947 C 0.11742 0.99147 0.00178 0.0
C948 C 0.13607 1.00176 -0.00169 0.0
C949 C 0.08901 0.962 0.00895 0.0
C950 C 0.07793 0.96343 0.95709 0.0
C951 C 0.08102 0.95021 0.06799 0.0
C952 C 0.09193 0.94858 0.12615 0.0
C953 C 0.10422 0.96359 0.16568 0.0
C954 C 0.1146 0.962 0.21988 0.0
C955 C 0.1127 0.94543 0.23551 0.0
C956 C 0.10037 0.93041 0.1971 0.0
C957 C 0.08998 0.93194 0.14272 0.0
H958 H 0.12074 0.94422 0.27751 0.0
H959 H 1.02015 0.95774 0.74552 0.0
H960 H 0.71675 0.48335 0.39185 0.0
H961 H 0.73513 0.46942 0.39749 0.0
H962 H 0.77275 0.50863 0.24946 0.0
H963 H 0.75437 0.52277 0.24357 0.0
H964 H 0.76625 0.47508 0.21532 0.0
H965 H 0.78193 0.51142 0.42537 0.0
H966 H 0.77754 0.52353 0.53919 0.0
H967 H 0.75511 0.47214 0.63874 0.0
H968 H 0.75881 0.45957 0.5248 0.0
H969 H 0.83442 0.45296 0.28091 0.0
H970 H 0.8173 0.46815 0.26738 0.0
H971 H 0.77952 0.43319 0.42631 0.0
H972 H 0.79656 0.41793 0.44008 0.0
H973 H 0.78739 0.46609 0.45276 0.0
H974 H 0.77039 0.42958 0.23875 0.0
H975 H 0.77561 0.418 0.12505 0.0
H976 H 0.80173 0.47047 0.03388 0.0
H977 H 0.79688 0.48241 0.14743 0.0
C978 C 0.7289 0.48906 0.36018 0.0
C979 C 0.73403 0.50429 0.31733 0.0
C980 C 0.73948 0.48107 0.36376 0.0
C981 C 0.75549 0.48801 0.32449 0.0
C982 C 0.7605 0.50299 0.28043 0.0
C983 C 0.74997 0.51112 0.27729 0.0
C984 C 0.76696 0.47965 0.33019 0.0
C985 C 0.77107 0.47334 0.26718 0.0
C986 C 0.7731 0.47707 0.39787 0.0
C987 C 0.77046 0.4845 0.46612 0.0
C988 C 0.7758 0.50263 0.47115 0.0
C989 C 0.77345 0.50959 0.53574 0.0
C990 C 0.76597 0.4986 0.59605 0.0
C991 C 0.76079 0.48062 0.59185 0.0
C992 C 0.76299 0.47356 0.52722 0.0
C993 C 0.82234 0.4483 0.31237 0.0
C994 C 0.81694 0.43411 0.3616 0.0
C995 C 0.81252 0.45706 0.30459 0.0
C996 C 0.79692 0.4518 0.34524 0.0
C997 C 0.7915 0.43763 0.39432 0.0
C998 C 0.80133 0.4289 0.4023 0.0
C999 C 0.78643 0.46121 0.33806 0.0
C1000 C 0.78255 0.46779 0.40087 0.0
C1001 C 0.78056 0.46408 0.27021 0.0
C1002 C 0.78343 0.45691 0.20185 0.0
C1003 C 0.77737 0.43867 0.19465 0.0
C1004 C 0.78024 0.43204 0.1302 0.0
C1005 C 0.78904 0.4435 0.07235 0.0
C1006 C 0.79494 0.46161 0.07877 0.0
C1007 C 0.79212 0.46832 0.14314 0.0
H1008 H 0.79125 0.43834 0.0225 0.0
H1009 H 0.76428 0.50405 0.64612 0.0
H1010 H 0.61494 0.40115 0.25926 0.0
H1011 H 0.60038 0.36887 0.24832 0.0
H1012 H 0.62905 0.36697 0.43582 0.0
H1013 H 0.64367 0.3993 0.4472 0.0
H1014 H 0.62825 0.34466 0.33455 0.0
H1015 H 0.58423 0.35582 0.44339 0.0
H1016 H 0.56519 0.36936 0.45105 0.0
H1017 H 0.54034 0.34507 0.24906 0.0
H1018 H 0.5594 0.33156 0.23974 0.0
H1019 H 0.57722 0.25352 0.41948 0.0
H1020 H 0.59207 0.2858 0.41883 0.0
H1021 H 0.55909 0.28391 0.24008 0.0
H1022 H 0.54361 0.2513 0.24232 0.0
H1023 H 0.56224 0.30828 0.32952 0.0
H1024 H 0.605 0.29599 0.22163 0.0
H1025 H 0.62392 0.28236 0.21204 0.0
H1026 H 0.65129 0.30868 0.40746 0.0
H1027 H 0.63237 0.3223 0.4188 0.0
C1028 C 0.61811 0.39391 0.2986 0.0
C1029 C 0.63046 0.403 0.35454 0.0
C1030 C 0.60974 0.37536 0.29219 0.0
C1031 C 0.61332 0.36527 0.34188 0.0
C1032 C 0.62597 0.37433 0.39668 0.0
C1033 C 0.6344 0.39291 0.40301 0.0
C1034 C 0.60378 0.34534 0.3373 0.0
C1035 C 0.61381 0.33671 0.3343 0.0
C1036 C 0.58491 0.33482 0.33471 0.0
C1037 C 0.57336 0.34283 0.34054 0.0
C1038 C 0.57478 0.35346 0.40038 0.0
C1039 C 0.56398 0.36112 0.40505 0.0
C1040 C 0.55159 0.35812 0.35049 0.0
C1041 C 0.54995 0.3474 0.29124 0.0
C1042 C 0.56074 0.33974 0.28626 0.0
C1043 C 0.5731 0.2599 0.3797 0.0
C1044 C 0.55922 0.24969 0.33061 0.0
C1045 C 0.58174 0.27849 0.37911 0.0
C1046 C 0.57711 0.28754 0.32832 0.0
C1047 C 0.56307 0.27738 0.2797 0.0
C1048 C 0.5542 0.25869 0.28094 0.0
C1049 C 0.58669 0.30752 0.32731 0.0
C1050 C 0.57668 0.31618 0.32931 0.0
C1051 C 0.6056 0.31807 0.32848 0.0
C1052 C 0.61716 0.31006 0.32135 0.0
C1053 C 0.61498 0.2988 0.2628 0.0
C1054 C 0.62572 0.29108 0.25703 0.0
C1055 C 0.63877 0.29462 0.3092 0.0
C1056 C 0.64116 0.30594 0.36712 0.0
C1057 C 0.63045 0.31368 0.37319 0.0
H1058 H 0.64706 0.28861 0.30469 0.0
H1059 H 0.54324 0.36406 0.35419 0.0
H1060 H 0.66403 0.2727 0.40569 0.0
H1061 H 0.69643 0.28981 0.39116 0.0
H1062 H 0.6961 0.24337 0.30797 0.0
H1063 H 0.66378 0.22602 0.32458 0.0
H1064 H 0.72294 0.26014 0.40085 0.0
H1065 H 0.70154 0.27776 0.19576 0.0
H1066 H 0.68399 0.28901 0.13352 0.0
H1067 H 0.7123 0.33822 0.24982 0.0
H1068 H 0.72985 0.32716 0.31358 0.0
H1069 H 0.81318 0.3068 0.2747 0.0
H1070 H 0.78053 0.28885 0.27789 0.0
H1071 H 0.77783 0.33344 0.3644 0.0
H1072 H 0.81026 0.35143 0.36079 0.0
H1073 H 0.75244 0.31696 0.26485 0.0
H1074 H 0.77284 0.29913 0.47324 0.0
H1075 H 0.79008 0.28795 0.5383 0.0
H1076 H 0.7635 0.23928 0.41751 0.0
H1077 H 0.74627 0.25029 0.35095 0.0
C1078 C 0.67083 0.26606 0.38473 0.0
C1079 C 0.66114 0.24791 0.36621 0.0
C1080 C 0.68941 0.27594 0.37573 0.0
C1081 C 0.69884 0.26801 0.34759 0.0
C1082 C 0.68923 0.24988 0.32952 0.0
C1083 C 0.67065 0.23999 0.33843 0.0
C1084 C 0.7187 0.27852 0.33773 0.0
C1085 C 0.72933 0.27242 0.37008 0.0
C1086 C 0.72725 0.29479 0.29893 0.0
C1087 C 0.7169 0.30157 0.25993 0.0
C1088 C 0.70395 0.29094 0.20841 0.0
C1089 C 0.69401 0.29728 0.17282 0.0
C1090 C 0.697 0.3143 0.18786 0.0
C1091 C 0.70998 0.32503 0.23831 0.0
C1092 C 0.71995 0.31874 0.27414 0.0
C1093 C 0.80565 0.31283 0.29401 0.0
C1094 C 0.81449 0.3306 0.31779 0.0
C1095 C 0.78693 0.3025 0.29615 0.0
C1096 C 0.77658 0.30967 0.32222 0.0
C1097 C 0.78539 0.32752 0.34412 0.0
C1098 C 0.80404 0.33781 0.34223 0.0
C1099 C 0.75666 0.2986 0.32816 0.0
C1100 C 0.74603 0.30462 0.29519 0.0
C1101 C 0.74811 0.28228 0.36652 0.0
C1102 C 0.75841 0.27561 0.40655 0.0
C1103 C 0.77078 0.2861 0.46013 0.0
C1104 C 0.78053 0.27979 0.49735 0.0
C1105 C 0.77793 0.26293 0.48189 0.0
C1106 C 0.76553 0.25234 0.42932 0.0
C1107 C 0.75576 0.25861 0.39185 0.0
H1108 H 0.78549 0.25806 0.51078 0.0
H1109 H 0.68928 0.31917 0.1603 0.0
H1110 H 0.51066 0.79778 0.73856 0.0
H1111 H 0.4925 0.81183 0.72589 0.0
H1112 H 0.44729 0.76154 0.66507 0.0
H1113 H 0.46538 0.74732 0.67805 0.0
H1114 H 0.4487 0.78665 0.58022 0.0
H1115 H 0.45112 0.7803 0.83623 0.0
H1116 H 0.46521 0.78322 0.95538 0.0
H1117 H 0.49296 0.84002 0.93543 0.0
H1118 H 0.47922 0.83744 0.8156 0.0
H1119 H 0.38178 0.81127 0.65451 0.0
H1120 H 0.40046 0.79747 0.65837 0.0
H1121 H 0.44762 0.84924 0.66419 0.0
H1122 H 0.42903 0.86317 0.65801 0.0
H1123 H 0.44506 0.82356 0.77679 0.0
H1124 H 0.44359 0.82951 0.51848 0.0
H1125 H 0.43037 0.82632 0.39728 0.0
H1126 H 0.40015 0.76971 0.4244 0.0
H1127 H 0.41329 0.77258 0.54587 0.0
C1128 C 0.4968 0.78959 0.72328 0.0
C1129 C 0.48957 0.77128 0.70993 0.0
C1130 C 0.48638 0.79771 0.71593 0.0
C1131 C 0.46833 0.78779 0.69549 0.0
C1132 C 0.46113 0.76958 0.68095 0.0
C1133 C 0.47157 0.76144 0.6882 0.0
C1134 C 0.45708 0.79643 0.68869 0.0
C1135 C 0.44774 0.79448 0.62383 0.0
C1136 C 0.45597 0.80704 0.74461 0.0
C1137 C 0.46428 0.80867 0.81658 0.0
C1138 C 0.46034 0.79341 0.85697 0.0
C1139 C 0.46824 0.79501 0.92468 0.0
C1140 C 0.48001 0.81179 0.95287 0.0
C1141 C 0.48387 0.82703 0.91347 0.0
C1142 C 0.47601 0.82551 0.84567 0.0
C1143 C 0.39614 0.81976 0.65585 0.0
C1144 C 0.40387 0.83838 0.65576 0.0
C1145 C 0.40682 0.81182 0.65796 0.0
C1146 C 0.4255 0.82227 0.66166 0.0
C1147 C 0.43327 0.84086 0.66134 0.0
C1148 C 0.4226 0.84882 0.65745 0.0
C1149 C 0.4368 0.81376 0.66846 0.0
C1150 C 0.44606 0.81569 0.73342 0.0
C1151 C 0.43775 0.80304 0.61295 0.0
C1152 C 0.42924 0.80128 0.54151 0.0
C1153 C 0.43397 0.8164 0.49894 0.0
C1154 C 0.42658 0.81464 0.43002 0.0
C1155 C 0.41439 0.79782 0.4032 0.0
C1156 C 0.40958 0.78273 0.44526 0.0
C1157 C 0.41704 0.78441 0.51406 0.0
H1158 H 0.40868 0.7965 0.3498 0.0
H1159 H 0.48611 0.813 0.00532 0.0
H1160 H 0.24926 0.58664 0.73768 0.0
H1161 H 0.26373 0.61892 0.73964 0.0
H1162 H 0.22218 0.6167 0.60391 0.0
H1163 H 0.20753 0.58413 0.60124 0.0
H1164 H 0.25521 0.64344 0.56123 0.0
H1165 H 0.22273 0.6246 0.78404 0.0
H1166 H 0.21305 0.6082 0.89952 0.0
H1167 H 0.26698 0.63599 0.97751 0.0
H1168 H 0.27703 0.65238 0.862 0.0
H1169 H 0.27771 0.73333 0.62462 0.0
H1170 H 0.26266 0.701 0.61529 0.0
H1171 H 0.30126 0.70031 0.76061 0.0
H1172 H 0.31607 0.73266 0.77207 0.0
H1173 H 0.26883 0.67485 0.79728 0.0
H1174 H 0.30152 0.69334 0.5746 0.0
H1175 H 0.3115 0.70943 0.45854 0.0
H1176 H 0.25761 0.68228 0.38001 0.0
H1177 H 0.24726 0.6662 0.49606 0.0
C1178 C 0.24312 0.59291 0.70795 0.0
C1179 C 0.22709 0.58261 0.66954 0.0
C1180 C 0.25144 0.61148 0.70943 0.0
C1181 C 0.24399 0.62038 0.67278 0.0
C1182 C 0.2282 0.61021 0.63292 0.0
C1183 C 0.21979 0.59155 0.63163 0.0
C1184 C 0.25267 0.64023 0.67703 0.0
C1185 C 0.25793 0.65029 0.61283 0.0
C1186 C 0.25667 0.64932 0.74429 0.0
C1187 C 0.25065 0.63961 0.81408 0.0
C1188 C 0.23255 0.62712 0.82561 0.0
C1189 C 0.22699 0.61784 0.8911 0.0
C1190 C 0.2394 0.62102 0.94576 0.0
C1191 C 0.25739 0.63353 0.93509 0.0
C1192 C 0.26302 0.64283 0.86964 0.0
C1193 C 0.283 0.72635 0.65498 0.0
C1194 C 0.29818 0.73578 0.69925 0.0
C1195 C 0.27444 0.70778 0.64896 0.0
C1196 C 0.28084 0.69805 0.68663 0.0
C1197 C 0.29601 0.70741 0.73073 0.0
C1198 C 0.3046 0.726 0.73672 0.0
C1199 C 0.27151 0.67814 0.68146 0.0
C1200 C 0.2661 0.66805 0.74559 0.0
C1201 C 0.26741 0.66904 0.61412 0.0
C1202 C 0.27359 0.6787 0.54434 0.0
C1203 C 0.29177 0.69091 0.53283 0.0
C1204 C 0.2975 0.70001 0.46699 0.0
C1205 C 0.28519 0.69692 0.41202 0.0
C1206 C 0.26713 0.68468 0.4227 0.0
C1207 C 0.26132 0.67556 0.48847 0.0
H1208 H 0.28966 0.70397 0.36107 0.0
H1209 H 0.23508 0.61382 -0.00358 0.0
H1210 H 0.47716 0.68267 0.72134 0.0
H1211 H 0.44484 0.66417 0.72621 0.0
H1212 H 0.44801 0.62157 0.62136 0.0
H1213 H 0.48061 0.64025 0.6151 0.0
H1214 H 0.42025 0.6241 0.56857 0.0
H1215 H 0.44122 0.6212 0.80507 0.0
H1216 H 0.45849 0.63343 0.9175 0.0
H1217 H 0.42925 0.66011 0.96351 0.0
H1218 H 0.41201 0.64827 0.85068 0.0
H1219 H 0.33056 0.55862 0.65778 0.0
H1220 H 0.36298 0.57571 0.6449 0.0
H1221 H 0.36412 0.61981 0.7563 0.0
H1222 H 0.33169 0.60274 0.76964 0.0
H1223 H 0.38996 0.61524 0.80572 0.0
H1224 H 0.36978 0.61905 0.56712 0.0
H1225 H 0.35298 0.60739 0.45328 0.0
H1226 H 0.3808 0.5791 0.41107 0.0
H1227 H 0.3976 0.59041 0.52519 0.0
C1228 C 0.47109 0.66938 0.69907 0.0
C1229 C 0.48165 0.66295 0.66835 0.0
C1230 C 0.4525 0.65875 0.70219 0.0
C1231 C 0.44387 0.64128 0.67547 0.0
C1232 C 0.45429 0.63495 0.64277 0.0
C1233 C 0.47297 0.64565 0.63935 0.0
C1234 C 0.42405 0.62969 0.68285 0.0
C1235 C 0.41366 0.62194 0.62063 0.0
C1236 C 0.41528 0.62707 0.75048 0.0
C1237 C 0.42541 0.63395 0.81908 0.0
C1238 C 0.43854 0.62975 0.83894 0.0
C1239 C 0.44832 0.63661 0.90276 0.0
C1240 C 0.44499 0.64757 0.94755 0.0
C1241 C 0.43183 0.65163 0.92873 0.0
C1242 C 0.42203 0.64484 0.86487 0.0
C1243 C 0.33765 0.57203 0.67883 0.0
C1244 C 0.32836 0.57926 0.71459 0.0
C1245 C 0.35627 0.58183 0.67144 0.0
C1246 C 0.36615 0.59922 0.69882 0.0
C1247 C 0.35692 0.60644 0.73472 0.0
C1248 C 0.33831 0.59662 0.74246 0.0
C1249 C 0.38608 0.60979 0.69128 0.0
C1250 C 0.39651 0.61734 0.75362 0.0
C1251 C 0.39487 0.6122 0.62377 0.0
C1252 C 0.38481 0.60543 0.55506 0.0
C1253 C 0.37222 0.61024 0.53383 0.0
C1254 C 0.36271 0.60371 0.46921 0.0
C1255 C 0.36578 0.59247 0.42507 0.0
C1256 C 0.37841 0.58778 0.44537 0.0
C1257 C 0.38794 0.59426 0.50998 0.0
H1258 H 0.35841 0.58743 0.37506 0.0
H1259 H 0.45259 0.65288 -0.0031 0.0
H1260 H 1.01232 0.15936 0.81163 0.0
H1261 H 1.01721 0.16019 0.68028 0.0
H1262 H 0.0415 0.21729 0.68298 0.0
H1263 H 0.03649 0.2164 0.8143 0.0
H1264 H 1.01659 0.20003 0.56884 0.0
H1265 H 0.0678 0.20119 0.67939 0.0
H1266 H 0.08173 0.18955 0.76289 0.0
H1267 H 0.05747 0.14014 0.64688 0.0
H1268 H 0.04314 0.15139 0.56336 0.0
H1269 H 0.07593 0.21392 0.24447 0.0
H1270 H 0.0713 0.20798 0.37491 0.0
H1271 H 1.01499 0.17335 0.3378 0.0
H1272 H 1.01936 0.18024 0.20877 0.0
H1273 H 0.05664 0.17963 0.47032 0.0
H1274 H 0.99236 0.18241 0.459 0.0
H1275 H 0.97673 0.19118 0.371 0.0
H1276 H 0.02694 0.23228 0.28879 0.0
H1277 H 0.04288 0.22408 0.37764 0.0
C1278 C 1.01856 0.17202 0.7837 0.0
C1279 C 1.02424 0.18786 0.82209 0.0
C1280 C 1.0214 0.1725 0.70921 0.0
C1281 C 0.02987 0.18882 0.67258 0.0
C1282 C 0.03503 0.2046 0.71073 0.0
C1283 C 0.03231 0.20413 0.78539 0.0
C1284 C 0.03369 0.18944 0.59458 0.0
C1285 C 0.02537 0.19562 0.54726 0.0
C1286 C 0.04512 0.18362 0.56698 0.0
C1287 C 0.05429 0.17709 0.61542 0.0
C1288 C 0.06537 0.18782 0.67185 0.0
C1289 C 0.07334 0.18129 0.71919 0.0
C1290 C 0.07046 0.1641 0.71028 0.0
C1291 C 0.05968 0.15345 0.65373 0.0
C1292 C 0.05165 0.1599 0.60632 0.0
C1293 C 0.06263 0.20487 0.26427 0.0
C1294 C 0.04795 0.19773 0.21712 0.0
C1295 C 0.06002 0.20136 0.3385 0.0
C1296 C 0.04276 0.1905 0.36587 0.0
C1297 C 0.02837 0.18201 0.31773 0.0
C1298 C 0.03089 0.18591 0.24406 0.0
C1299 C 0.03945 0.19013 0.44449 0.0
C1300 C 0.04788 0.18405 0.49195 0.0
C1301 C 0.02813 0.19608 0.47247 0.0
C1302 C 1.01879 0.20251 0.4245 0.0
C1303 C 1.00006 0.19349 0.42289 0.0
C1304 C 0.99115 0.19831 0.37266 0.0
C1305 C 1.00085 0.21212 0.32382 0.0
C1306 C 1.01947 0.22148 0.3263 0.0
C1307 C 0.02844 0.21682 0.37686 0.0
H1308 H 0.99392 0.21572 0.28465 0.0
H1309 H 0.07659 0.15905 0.74712 0.0
H1310 H 0.86605 0.87451 0.81512 0.0
H1311 H 0.86218 0.87534 0.68441 0.0
H1312 H 0.88699 0.84355 0.65108 0.0
H1313 H 0.89099 0.84273 0.7824 0.0
H1314 H 0.89971 0.87212 0.55806 0.0
H1315 H 0.84342 0.8244 0.63702 0.0
H1316 H 0.81633 0.80982 0.71251 0.0
H1317 H 0.80114 0.84714 0.63855 0.0
H1318 H 0.82832 0.86213 0.56325 0.0
H1319 H 0.87303 0.84602 0.1975 0.0
H1320 H 0.87724 0.84635 0.32822 0.0
H1321 H 0.8518 0.87775 0.35565 0.0
H1322 H 0.84718 0.87714 0.22419 0.0
H1323 H 0.83959 0.85005 0.45187 0.0
H1324 H 0.89633 0.89707 0.3681 0.0
H1325 H 0.92268 0.90968 0.28824 0.0
H1326 H 0.93671 0.87207 0.36958 0.0
H1327 H 0.91027 0.85904 0.44917 0.0
C1328 C 0.8706 0.86763 0.77994 0.0
C1329 C 0.87872 0.85846 0.80843 0.0
C1330 C 0.86839 0.86812 0.70546 0.0
C1331 C 0.87419 0.85939 0.65851 0.0
C1332 C 0.88245 0.85035 0.68677 0.0
C1333 C 0.88465 0.84983 0.76147 0.0
C1334 C 0.87155 0.8597 0.57982 0.0
C1335 C 0.88657 0.86713 0.53461 0.0
C1336 C 0.85439 0.85348 0.54996 0.0
C1337 C 0.83799 0.84448 0.59492 0.0
C1338 C 0.83438 0.82959 0.63726 0.0
C1339 C 0.819 0.82124 0.67992 0.0
C1340 C 0.80703 0.82755 0.68027 0.0
C1341 C 0.81043 0.84226 0.6381 0.0
C1342 C 0.82582 0.85068 0.59536 0.0
C1343 C 0.86836 0.85303 0.23135 0.0
C1344 C 0.85979 0.86157 0.20117 0.0
C1345 C 0.87083 0.85325 0.30588 0.0
C1346 C 0.86499 0.86223 0.35121 0.0
C1347 C 0.8564 0.87078 0.32124 0.0
C1348 C 0.85384 0.87048 0.24647 0.0
C1349 C 0.86775 0.86249 0.43006 0.0
C1350 C 0.85274 0.85516 0.47535 0.0
C1351 C 0.88491 0.86869 0.4599 0.0
C1352 C 0.90124 0.877 0.41429 0.0
C1353 C 0.905 0.89145 0.36882 0.0
C1354 C 0.91995 0.89867 0.32356 0.0
C1355 C 0.93134 0.89165 0.3237 0.0
C1356 C 0.92787 0.87748 0.36949 0.0
C1357 C 0.91291 0.87019 0.41479 0.0
H1358 H 0.94286 0.89721 0.28839 0.0
H1359 H 0.79508 0.82098 0.71301 0.0
H1360 H 0.22196 0.06476 0.77866 0.0
H1361 H 0.21956 0.05981 0.64741 0.0
H1362 H 0.19044 1.00315 0.68267 0.0
H1363 H 0.19265 1.00797 0.81357 0.0
H1364 H 0.21681 1.01427 0.5755 0.0
H1365 H 0.16768 0.02225 0.64477 0.0
H1366 H 0.15388 0.03798 0.7024 0.0
H1367 H 0.18388 0.08284 0.56298 0.0
H1368 H 0.19807 0.06748 0.50525 0.0
H1369 H 0.1831 0.9873 0.22406 0.0
H1370 H 0.1824 0.99142 0.35507 0.0
H1371 H 0.21051 0.04828 0.32527 0.0
H1372 H 0.21115 0.04426 0.19454 0.0
H1373 H 0.18393 0.03664 0.43009 0.0
H1374 H 0.23412 0.03 0.3652 0.0
H1375 H 0.24866 1.01505 0.30697 0.0
H1376 H 0.21769 0.96875 0.438 0.0
H1377 H 0.20273 0.98332 0.49621 0.0
C1378 C 0.21521 0.05127 0.75822 0.0
C1379 C 0.20744 0.03673 0.80563 0.0
C1380 C 0.21381 0.04848 0.68364 0.0
C1381 C 0.20465 0.03114 0.65612 0.0
C1382 C 0.19751 0.01661 0.70341 0.0
C1383 C 0.1988 0.01938 0.77787 0.0
C1384 C 0.20204 0.02811 0.57784 0.0
C1385 C 0.20943 0.01894 0.54373 0.0
C1386 C 0.1927 0.03458 0.53693 0.0
C1387 C 0.18407 0.04378 0.5712 0.0
C1388 C 0.17145 0.03553 0.62681 0.0
C1389 C 0.16353 0.04437 0.65943 0.0
C1390 C 0.16803 0.06142 0.6365 0.0
C1391 C 0.18042 0.06965 0.58076 0.0
C1392 C 0.1884 0.06087 0.54803 0.0
C1393 C 0.18889 1.00064 0.24556 0.0
C1394 C 0.19743 0.01548 0.19999 0.0
C1395 C 0.18848 1.00297 0.32001 0.0
C1396 C 0.19664 0.02015 0.34921 0.0
C1397 C 0.20419 0.03495 0.30329 0.0
C1398 C 0.20463 0.03263 0.22895 0.0
C1399 C 0.19866 0.02276 0.42786 0.0
C1400 C 0.19122 0.0319 0.46198 0.0
C1401 C 0.20807 0.01638 0.46882 0.0
C1402 C 0.21718 1.00767 0.43448 0.0
C1403 C 0.23031 0.01658 0.38119 0.0
C1404 C 0.23865 1.00819 0.34827 0.0
C1405 C 0.23407 0.99095 0.36867 0.0
C1406 C 0.22119 0.98209 0.42219 0.0
C1407 C 0.21279 0.99041 0.45518 0.0
H1408 H 0.24054 0.98447 0.34311 0.0
H1409 H 0.16189 0.06824 0.66182 0.0
H1410 H 0.73989 0.54525 0.54452 0.0
H1411 H 0.73526 0.54089 0.67585 0.0
H1412 H 0.67866 0.51885 0.6453 0.0
H1413 H 0.68312 0.52294 0.5147 0.0
H1414 H 0.69407 0.54692 0.74428 0.0
H1415 H 0.69135 0.49214 0.69147 0.0
H1416 H 0.70092 0.47193 0.6424 0.0
H1417 H 0.74757 0.49629 0.77713 0.0
H1418 H 0.73848 0.51695 0.82597 0.0
H1419 H 0.6636 0.51274 0.10044 0.0
H1420 H 0.66859 0.51704 0.96946 0.0
H1421 H 0.72494 0.5379 0.00247 0.0
H1422 H 0.72005 0.53358 0.13305 0.0
H1423 H 0.70981 0.51064 0.90199 0.0
H1424 H 0.71069 0.56503 0.95774 0.0
H1425 H 0.69917 0.58363 0.00718 0.0
H1426 H 0.6538 0.55828 0.86575 0.0
H1427 H 0.66485 0.53925 0.81651 0.0
C1428 C 0.72648 0.53929 0.56603 0.0
C1429 C 0.71188 0.53462 0.52019 0.0
C1430 C 0.72385 0.53677 0.64058 0.0
C1431 C 0.70664 0.52964 0.66948 0.0
C1432 C 0.69202 0.52445 0.62348 0.0
C1433 C 0.6946 0.52679 0.54915 0.0
C1434 C 0.70397 0.52863 0.74808 0.0
C1435 C 0.6973 0.53884 0.77894 0.0
C1436 C 0.70853 0.51831 0.7924 0.0
C1437 C 0.71434 0.50626 0.76173 0.0
C1438 C 0.70379 0.49339 0.70988 0.0
C1439 C 0.7091 0.48181 0.68226 0.0
C1440 C 0.72485 0.48285 0.70657 0.0
C1441 C 0.73538 0.49552 0.75832 0.0
C1442 C 0.73016 0.50718 0.78594 0.0
C1443 C 0.67704 0.51841 0.07958 0.0
C1444 C 0.69144 0.52275 0.12615 0.0
C1445 C 0.67988 0.52091 0.00516 0.0
C1446 C 0.69713 0.5278 0.97699 0.0
C1447 C 0.71156 0.53255 0.02368 0.0
C1448 C 0.70875 0.53011 0.09796 0.0
C1449 C 0.69998 0.529 0.8984 0.0
C1450 C 0.70667 0.5188 0.86745 0.0
C1451 C 0.69524 0.53919 0.85391 0.0
C1452 C 0.6885 0.55054 0.88405 0.0
C1453 C 0.69814 0.56325 0.93779 0.0
C1454 C 0.69172 0.57391 0.96568 0.0
C1455 C 0.67573 0.5721 0.93982 0.0
C1456 C 0.66616 0.55964 0.8859 0.0
C1457 C 0.6725 0.54891 0.858 0.0
H1458 H 0.6708 0.58038 0.9614 0.0
H1459 H 0.72884 0.47376 0.68556 0.0
H1460 H 0.54731 0.18841 0.53137 0.0
H1461 H 0.55246 0.18918 0.6616 0.0
H1462 H 0.51781 0.21077 0.69658 0.0
H1463 H 0.513 0.21052 0.56547 0.0
H1464 H 0.54741 0.22524 0.78795 0.0
H1465 H 0.50119 0.16731 0.70698 0.0
H1466 H 0.4898 0.14123 0.62662 0.0
H1467 H 0.52995 0.13032 0.70527 0.0
H1468 H 0.54185 0.15659 0.78495 0.0
H1469 H 0.52667 0.20245 0.15241 0.0
H1470 H 0.52338 0.20372 0.02166 0.0
H1471 H 0.55409 0.1777 -0.01192 0.0
H1472 H 0.55671 0.17565 0.11948 0.0
H1473 H 0.52702 0.16573 0.8952 0.0
H1474 H 0.57349 0.22277 0.97511 0.0
H1475 H 0.58663 0.24956 0.05192 0.0
H1476 H 0.54784 0.26252 0.97424 0.0
H1477 H 0.53429 0.23565 0.89772 0.0
C1478 C 0.54104 0.19361 0.56673 0.0
C1479 C 0.52957 0.19918 0.53902 0.0
C1480 C 0.54398 0.19402 0.6409 0.0
C1481 C 0.53521 0.19969 0.68828 0.0
C1482 C 0.52459 0.20627 0.66048 0.0
C1483 C 0.5218 0.20605 0.58596 0.0
C1484 C 0.53591 0.19728 0.76681 0.0
C1485 C 0.54278 0.21224 0.81172 0.0
C1486 C 0.5302 0.1803 0.79689 0.0
C1487 C 0.5225 0.164 0.75156 0.0
C1488 C 0.50762 0.15938 0.70702 0.0
C1489 C 0.50108 0.14457 0.66152 0.0
C1490 C 0.50915 0.13413 0.66077 0.0
C1491 C 0.52372 0.13843 0.70586 0.0
C1492 C 0.53037 0.15327 0.75122 0.0
C1493 C 0.53245 0.19672 0.11716 0.0
C1494 C 0.54198 0.18899 0.14557 0.0
C1495 C 0.53069 0.19759 0.0426 0.0
C1496 C 0.53883 0.19115 -0.00452 0.0
C1497 C 0.5478 0.18282 0.02379 0.0
C1498 C 0.54933 0.1817 0.09857 0.0
C1499 C 0.5385 0.1937 0.91672 0.0
C1500 C 0.53167 0.17875 0.87164 0.0
C1501 C 0.5444 0.21071 0.88643 0.0
C1502 C 0.55278 0.22711 0.93113 0.0
C1503 C 0.5677 0.23128 0.97468 0.0
C1504 C 0.57523 0.24648 0.01816 0.0
C1505 C 0.56805 0.25771 0.01811 0.0
C1506 C 0.55338 0.2538 0.97429 0.0
C1507 C 0.54578 0.2386 0.93079 0.0
H1508 H 0.57387 0.26945 0.05193 0.0
H1509 H 0.50414 0.12273 0.62528 0.0
H1510 H 0.87747 0.38013 0.52276 0.0
H1511 H 0.8775 0.38451 0.65333 0.0
H1512 H 0.85268 0.32793 0.68689 0.0
H1513 H 0.85225 0.32341 0.55558 0.0
H1514 H 0.83989 0.34448 0.77918 0.0
H1515 H 0.89639 0.35217 0.69801 0.0
H1516 H 0.92276 0.36522 0.61812 0.0
H1517 H 0.93749 0.41737 0.69489 0.0
H1518 H 0.91103 0.40465 0.77445 0.0
H1519 H 0.86205 0.34486 0.1429 0.0
H1520 H 0.86096 0.34027 0.01222 0.0
H1521 H 0.88956 0.39702 0.9785 0.0
H1522 H 0.89135 0.4017 0.10986 0.0
H1523 H 0.90036 0.38056 0.88554 0.0
H1524 H 0.84457 0.37364 0.96621 0.0
H1525 H 0.8177 0.3614 0.04303 0.0
H1526 H 0.8013 0.3089 0.96557 0.0
H1527 H 0.82823 0.3208 0.88906 0.0
C1528 C 0.87175 0.36861 0.5579 0.0
C1529 C 0.86509 0.35146 0.52976 0.0
C1530 C 0.8718 0.37113 0.63224 0.0
C1531 C 0.86542 0.35656 0.6792 0.0
C1532 C 0.85774 0.33931 0.65104 0.0
C1533 C 0.85756 0.33676 0.57641 0.0
C1534 C 0.86808 0.35948 0.75764 0.0
C1535 C 0.85309 0.35217 0.80275 0.0
C1536 C 0.88534 0.36986 0.78741 0.0
C1537 C 0.90165 0.37746 0.74178 0.0
C1538 C 0.90522 0.36643 0.69768 0.0
C1539 C 0.92017 0.37377 0.65242 0.0
C1540 C 0.93177 0.39212 0.65128 0.0
C1541 C 0.92849 0.40316 0.69577 0.0
C1542 C 0.91352 0.39589 0.74103 0.0
C1543 C 0.8684 0.35635 0.10766 0.0
C1544 C 0.87672 0.37363 0.13595 0.0
C1545 C 0.86766 0.35371 0.03317 0.0
C1546 C 0.87485 0.36832 0.98606 0.0
C1547 C 0.88386 0.3856 0.01428 0.0
C1548 C 0.88482 0.38825 0.08901 0.0
C1549 C 0.87215 0.36551 0.90741 0.0
C1550 C 0.88715 0.37285 0.86215 0.0
C1551 C 0.85488 0.35525 0.87743 0.0
C1552 C 0.8385 0.3481 0.92239 0.0
C1553 C 0.83529 0.35947 0.96587 0.0
C1554 C 0.82004 0.3526 0.00934 0.0
C1555 C 0.80782 0.33438 0.00932 0.0
C1556 C 0.81079 0.323 0.9656 0.0
C1557 C 0.82603 0.32981 0.92211 0.0
H1558 H 0.79604 0.32907 0.04308 0.0
H1559 H 0.9433 0.39778 0.61599 0.0
H1560 H 0.33128 0.84573 0.45255 0.0
H1561 H 0.33539 0.84941 0.32102 0.0
H1562 H 0.39243 0.87535 0.3499 0.0
H1563 H 0.38838 0.87106 0.48061 0.0
H1564 H 0.35331 0.87658 0.2236 0.0
H1565 H 0.40873 0.85784 0.23619 0.0
H1566 H 0.41765 0.84128 0.31838 0.0
H1567 H 0.36336 0.80889 0.38791 0.0
H1568 H 0.35409 0.82506 0.30541 0.0
H1569 H 0.40937 0.88143 0.89775 0.0
H1570 H 0.40437 0.87788 0.02903 0.0
H1571 H 0.34758 0.84711 -0.0068 0.0
H1572 H 0.35243 0.85066 0.86255 0.0
H1573 H 0.38546 0.8476 0.12191 0.0
H1574 H 0.32872 0.8632 0.11256 0.0
H1575 H 0.31715 0.87746 0.0303 0.0
H1576 H 0.37009 0.91241 0.95144 0.0
H1577 H 0.38201 0.89858 0.03404 0.0
C1578 C 0.34468 0.85241 0.43065 0.0
C1579 C 0.35952 0.85794 0.47612 0.0
C1580 C 0.347 0.85461 0.35585 0.0
C1581 C 0.36418 0.86239 0.32621 0.0
C1582 C 0.37906 0.86909 0.37207 0.0
C1583 C 0.37674 0.86669 0.44656 0.0
C1584 C 0.36655 0.86181 0.24756 0.0
C1585 C 0.36019 0.87014 0.20117 0.0
C1586 C 0.37542 0.85326 0.21879 0.0
C1587 C 0.38077 0.84279 0.26519 0.0
C1588 C 0.39869 0.84708 0.26854 0.0
C1589 C 0.4038 0.83778 0.31531 0.0
C1590 C 0.39108 0.82411 0.35863 0.0
C1591 C 0.3732 0.81953 0.35457 0.0
C1592 C 0.36801 0.82876 0.30783 0.0
C1593 C 0.39587 0.87368 0.91807 0.0
C1594 C 0.38126 0.86656 0.87069 0.0
C1595 C 0.39304 0.87164 -0.00732 0.0
C1596 C 0.37561 0.86253 0.02006 0.0
C1597 C 0.36109 0.85441 0.97259 0.0
C1598 C 0.36389 0.85645 0.89824 0.0
C1599 C 0.37252 0.86264 0.09812 0.0
C1600 C 0.37865 0.85412 0.14437 0.0
C1601 C 0.36307 0.87066 0.12639 0.0
C1602 C 0.35622 0.87973 0.07907 0.0
C1603 C 0.33791 0.87403 0.07809 0.0
C1604 C 0.33129 0.88202 0.03131 0.0
C1605 C 0.34287 0.89579 0.98547 0.0
C1606 C 0.36112 0.90171 0.98678 0.0
C1607 C 0.36782 0.8938 0.03358 0.0
H1608 H 0.3377 0.90188 0.94902 0.0
H1609 H 0.39504 0.81706 0.39547 0.0
H1610 H 0.21325 0.51942 0.87035 0.0
H1611 H 0.2178 0.51957 0.00082 0.0
H1612 H 0.18512 0.54344 0.03464 0.0
H1613 H 0.18082 0.5437 0.90332 0.0
H1614 H 0.21478 0.55706 0.12478 0.0
H1615 H 0.16671 0.4998 0.04858 0.0
H1616 H 0.15356 0.47304 0.97159 0.0
H1617 H 0.19237 0.46006 0.04884 0.0
H1618 H 0.20595 0.48693 0.12543 0.0
H1619 H 0.19478 0.53597 0.49094 0.0
H1620 H 0.19118 0.53696 0.36027 0.0
H1621 H 0.22018 0.50918 0.3267 0.0
H1622 H 0.22314 0.50746 0.4581 0.0
H1623 H 0.19264 0.49761 0.23563 0.0
H1624 H 0.24087 0.55418 0.31095 0.0
H1625 H 0.25532 0.5814 0.38511 0.0
H1626 H 0.21769 0.596 0.30798 0.0
H1627 H 0.20284 0.56872 0.23414 0.0
C1628 C 0.20724 0.52493 0.90553 0.0
C1629 C 0.19649 0.53133 0.87741 0.0
C1630 C 0.20982 0.52497 0.97983 0.0
C1631 C 0.20147 0.53117 0.02687 0.0
C1632 C 0.19155 0.53851 -0.00124 0.0
C1633 C 0.18906 0.53859 0.92413 0.0
C1634 C 0.20219 0.52893 0.10546 0.0
C1635 C 0.20975 0.54408 0.14935 0.0
C1636 C 0.19598 0.51196 0.13651 0.0
C1637 C 0.18744 0.49546 0.09232 0.0
C1638 C 0.17249 0.49128 0.04892 0.0
C1639 C 0.16497 0.4761 0.00532 0.0
C1640 C 0.17216 0.46488 0.00516 0.0
C1641 C 0.18683 0.46878 0.04894 0.0
C1642 C 0.19444 0.48397 0.09251 0.0
C1643 C 0.20012 0.52981 0.45573 0.0
C1644 C 0.20927 0.52167 0.48411 0.0
C1645 C 0.19818 0.53051 0.38122 0.0
C1646 C 0.20574 0.52347 0.33412 0.0
C1647 C 0.21434 0.51476 0.36243 0.0
C1648 C 0.21606 0.51384 0.43719 0.0
C1649 C 0.2052 0.52576 0.25531 0.0
C1650 C 0.19767 0.51061 0.21125 0.0
C1651 C 0.21157 0.54275 0.22402 0.0
C1652 C 0.22065 0.55932 0.26751 0.0
C1653 C 0.23561 0.56314 0.31014 0.0
C1654 C 0.24388 0.57859 0.35209 0.0
C1655 C 0.2374 0.5904 0.35141 0.0
C1656 C 0.22268 0.58683 0.30853 0.0
C1657 C 0.21434 0.57138 0.26656 0.0
H1658 H 0.24381 0.60234 0.38399 0.0
H1659 H 0.16634 0.45315 0.97121 0.0
H1660 H 0.5387 0.72606 0.44814 0.0
H1661 H 0.53487 0.71989 0.318 0.0
H1662 H 0.51955 0.66522 0.3598 0.0
H1663 H 0.52372 0.67158 0.48997 0.0
H1664 H 0.54119 0.67722 0.24864 0.0
H1665 H 0.48837 0.67704 0.31722 0.0
H1666 H 0.47005 0.68801 0.37463 0.0
H1667 H 0.49354 0.73379 0.23587 0.0
H1668 H 0.51221 0.72324 0.17833 0.0
H1669 H 0.51111 0.65335 0.88553 0.0
H1670 H 0.50751 0.6549 0.0165 0.0
H1671 H 0.53758 0.71211 0.00645 0.0
H1672 H 0.54168 0.71067 0.87583 0.0
H1673 H 0.50484 0.69517 0.10159 0.0
H1674 H 0.56034 0.69574 0.04673 0.0
H1675 H 0.57743 0.68337 -0.01078 0.0
H1676 H 0.54624 0.63432 0.10407 0.0
H1677 H 0.52877 0.64634 0.16139 0.0
C1678 C 0.53473 0.7128 0.42908 0.0
C1679 C 0.53193 0.69935 0.47799 0.0
C1680 C 0.53237 0.70924 0.35512 0.0
C1681 C 0.52666 0.69203 0.32947 0.0
C1682 C 0.52402 0.6786 0.37858 0.0
C1683 C 0.52661 0.68225 0.4526 0.0
C1684 C 0.52376 0.68822 0.25117 0.0
C1685 C 0.53296 0.68083 0.21683 0.0
C1686 C 0.51307 0.69302 0.20963 0.0
C1687 C 0.5018 0.6994 0.24381 0.0
C1688 C 0.48973 0.68951 0.29927 0.0
C1689 C 0.47927 0.69565 0.3318 0.0
C1690 C 0.48065 0.7116 0.30901 0.0
C1691 C 0.49248 0.72144 0.2535 0.0
C1692 C 0.503 0.71538 0.22084 0.0
C1693 C 0.51674 0.66625 0.91117 0.0
C1694 C 0.52679 0.68191 0.87115 0.0
C1695 C 0.51462 0.66709 0.98564 0.0
C1696 C 0.52234 0.6836 0.02044 0.0
C1697 C 0.53148 0.69928 0.97995 0.0
C1698 C 0.53384 0.69844 0.90566 0.0
C1699 C 0.52252 0.68455 0.09987 0.0
C1700 C 0.51282 0.69136 0.13407 0.0
C1701 C 0.53251 0.67899 0.14151 0.0
C1702 C 0.54311 0.67185 0.10758 0.0
C1703 C 0.55702 0.68226 0.05916 0.0
C1704 C 0.5668 0.67533 0.02671 0.0
C1705 C 0.56289 0.65805 0.04279 0.0
C1706 C 0.54923 0.64769 0.09154 0.0
C1707 C 0.53939 0.65455 0.12403 0.0
H1708 H 0.57048 0.65271 0.01764 0.0
H1709 H 0.47254 0.71633 0.33426 0.0
loop_
_geom_bond_atom_site_label_1
_geom_bond_atom_site_label_2
_geom_bond_distance
_geom_bond_site_symmetry_2
_ccdc_geom_bond_type
Gd0 C3 2.818 1_554 S
Gd0 O20 2.377 . S
Gd0 O22 2.448 . S
Gd0 O23 2.506 1_554 S
Gd0 O24 2.435 . S
Gd0 O25 2.717 . S
Gd0 O27 2.395 . S
Gd0 O31 2.327 1_554 S
Gd1 C12 2.820 . S
Gd1 O21 2.395 . S
Gd1 O25 2.337 1_655 S
Gd1 O26 2.375 1_654 S
Gd1 O28 2.444 1_554 S
Gd1 O29 2.513 . S
Gd1 O30 2.422 1_554 S
Gd1 O31 2.710 1_654 S
C2 O20 1.240 1_655 S
C2 O21 1.241 . S
C3 Gd0 2.818 1_556 S
C3 C4 1.510 . S
C3 O22 1.249 1_556 S
C3 O23 1.252 . S
C4 C3 1.510 . S
C4 C5 1.404 1_556 S
C4 C6 1.352 . S
C5 C4 1.404 1_554 S
C5 C9 1.389 . S
C5 H32 0.930 . S
C6 C4 1.352 . S
C6 C8 1.374 . S
C6 H33 0.931 . S
C7 C8 1.359 . S
C7 C9 1.364 1_556 S
C8 C6 1.374 . S
C8 C7 1.359 . S
C8 H34 0.931 . S
C9 C5 1.389 . S
C9 C7 1.364 1_554 S
C9 H35 0.931 . S
C10 O24 1.256 . S
C10 O25 1.257 . S
C11 O26 1.243 . S
C11 O27 1.239 1_556 S
C12 Gd1 2.820 . S
C12 C13 1.510 . S
C12 O28 1.249 1_554 S
C12 O29 1.252 . S
C13 C12 1.510 . S
C13 C14 1.404 1_554 S
C13 C15 1.352 . S
C14 C13 1.404 1_556 S
C14 C18 1.389 . S
C14 H36 0.930 . S
C15 C13 1.352 . S
C15 C17 1.374 . S
C15 H37 0.931 . S
C16 C17 1.359 . S
C16 C18 1.364 1_554 S
C17 C15 1.374 . S
C17 C16 1.359 . S
C17 H38 0.931 . S
C18 C14 1.389 . S
C18 C16 1.364 1_556 S
C18 H39 0.931 . S
C19 O30 1.256 1_455 S
C19 O31 1.257 . S
O20 Gd0 2.377 . S
O20 C2 1.240 1_455 S
O21 Gd1 2.395 . S
O21 C2 1.241 . S
O22 Gd0 2.448 . S
O22 C3 1.249 1_554 S
O23 Gd0 2.506 1_556 S
O23 C3 1.252 . S
O24 Gd0 2.435 . S
O24 C10 1.256 . S
O25 Gd0 2.717 . S
O25 Gd1 2.337 1_455 S
O25 C10 1.257 . S
O26 Gd1 2.375 1_456 S
O26 C11 1.243 . S
O27 Gd0 2.395 . S
O27 C11 1.239 1_554 S
O28 Gd1 2.444 1_556 S
O28 C12 1.249 1_556 S
O29 Gd1 2.513 . S
O29 C12 1.252 . S
O30 Gd1 2.422 1_556 S
O30 C19 1.256 1_655 S
O31 Gd0 2.327 1_556 S
O31 Gd1 2.710 1_456 S
O31 C19 1.257 . S
H32 C5 0.930 . S
H33 C6 0.931 . S
H34 C8 0.931 . S
H35 C9 0.931 . S
H36 C14 0.930 . S
H37 C15 0.931 . S
H38 C17 0.931 . S
H39 C18 0.931 . S
Gd40 C43 2.818 1_554 S
Gd40 O60 2.377 . S
Gd40 O62 2.448 . S
Gd40 O63 2.506 1_554 S
Gd40 O64 2.435 . S
Gd40 O65 2.717 . S
Gd40 O67 2.395 . S
Gd40 O71 2.327 1_554 S
Gd41 C52 2.820 . S
Gd41 O61 2.395 . S
Gd41 O65 2.336 . S
Gd41 O66 2.375 1_554 S
Gd41 O68 2.445 1_554 S
Gd41 O69 2.513 . S
Gd41 O70 2.423 1_554 S
Gd41 O71 2.711 1_554 S
C42 O60 1.240 . S
C42 O61 1.241 . S
C43 Gd40 2.818 1_556 S
C43 C44 1.510 . S
C43 O62 1.249 1_556 S
C43 O63 1.252 . S
C44 C43 1.510 . S
C44 C45 1.404 1_556 S
C44 C46 1.352 . S
C45 C44 1.404 1_554 S
C45 C49 1.389 . S
C45 H72 0.930 . S
C46 C44 1.352 . S
C46 C48 1.374 . S
C46 H73 0.931 . S
C47 C48 1.359 . S
C47 C49 1.364 1_556 S
C48 C46 1.374 . S
C48 C47 1.359 . S
C48 H74 0.931 . S
C49 C45 1.389 . S
C49 C47 1.364 1_554 S
C49 H75 0.931 . S
C50 O64 1.256 . S
C50 O65 1.257 . S
C51 O66 1.243 . S
C51 O67 1.238 1_556 S
C52 Gd41 2.820 . S
C52 C53 1.510 . S
C52 O68 1.249 1_554 S
C52 O69 1.252 . S
C53 C52 1.510 . S
C53 C54 1.404 1_554 S
C53 C55 1.352 . S
C54 C53 1.404 1_556 S
C54 C58 1.389 . S
C54 H76 0.930 . S
C55 C53 1.352 . S
C55 C57 1.374 . S
C55 H77 0.931 . S
C56 C57 1.359 . S
C56 C58 1.364 1_554 S
C57 C55 1.374 . S
C57 C56 1.359 . S
C57 H78 0.931 . S
C58 C54 1.389 . S
C58 C56 1.364 1_556 S
C58 H79 0.931 . S
C59 O70 1.256 . S
C59 O71 1.257 . S
O60 Gd40 2.377 . S
O60 C42 1.240 . S
O61 Gd41 2.395 . S
O61 C42 1.241 . S
O62 Gd40 2.448 . S
O62 C43 1.249 1_554 S
O63 Gd40 2.506 1_556 S
O63 C43 1.252 . S
O64 Gd40 2.435 . S
O64 C50 1.256 . S
O65 Gd40 2.717 . S
O65 Gd41 2.336 . S
O65 C50 1.257 . S
O66 Gd41 2.375 1_556 S
O66 C51 1.243 . S
O67 Gd40 2.395 . S
O67 C51 1.238 1_554 S
O68 Gd41 2.445 1_556 S
O68 C52 1.249 1_556 S
O69 Gd41 2.513 . S
O69 C52 1.252 . S
O70 Gd41 2.423 1_556 S
O70 C59 1.256 . S
O71 Gd40 2.327 1_556 S
O71 Gd41 2.711 1_556 S
O71 C59 1.257 . S
H72 C45 0.930 . S
H73 C46 0.931 . S
H74 C48 0.931 . S
H75 C49 0.931 . S
H76 C54 0.930 . S
H77 C55 0.931 . S
H78 C57 0.931 . S
H79 C58 0.931 . S
Gd80 C83 2.818 1_554 S
Gd80 O100 2.377 1_565 S
Gd80 O102 2.448 . S
Gd80 O103 2.506 1_554 S
Gd80 O104 2.435 . S
Gd80 O105 2.717 1_565 S
Gd80 O107 2.395 . S
Gd80 O111 2.327 1_564 S
Gd81 C92 2.820 . S
Gd81 O101 2.395 . S
Gd81 O105 2.336 . S
Gd81 O106 2.375 1_554 S
Gd81 O108 2.445 1_554 S
Gd81 O109 2.513 . S
Gd81 O110 2.423 1_554 S
Gd81 O111 2.711 1_554 S
C82 O100 1.240 . S
C82 O101 1.241 . S
C83 Gd80 2.818 1_556 S
C83 C84 1.510 . S
C83 O102 1.249 1_556 S
C83 O103 1.252 . S
C84 C83 1.510 . S
C84 C85 1.404 1_556 S
C84 C86 1.352 . S
C85 C84 1.404 1_554 S
C85 C89 1.389 . S
C85 H112 0.930 . S
C86 C84 1.352 . S
C86 C88 1.374 . S
C86 H113 0.931 . S
C87 C88 1.359 . S
C87 C89 1.364 1_556 S
C88 C86 1.374 . S
C88 C87 1.359 . S
C88 H114 0.931 . S
C89 C85 1.389 . S
C89 C87 1.364 1_554 S
C89 H115 0.931 . S
C90 O104 1.256 1_545 S
C90 O105 1.257 . S
C91 O106 1.243 1_565 S
C91 O107 1.238 1_556 S
C92 Gd81 2.820 . S
C92 C93 1.510 . S
C92 O108 1.249 1_554 S
C92 O109 1.252 . S
C93 C92 1.510 . S
C93 C94 1.404 1_554 S
C93 C95 1.352 . S
C94 C93 1.404 1_556 S
C94 C98 1.389 . S
C94 H116 0.930 . S
C95 C93 1.352 . S
C95 C97 1.374 . S
C95 H117 0.931 . S
C96 C97 1.359 . S
C96 C98 1.364 1_554 S
C97 C95 1.374 . S
C97 C96 1.359 . S
C97 H118 0.931 . S
C98 C94 1.389 . S
C98 C96 1.364 1_556 S
C98 H119 0.931 . S
C99 O110 1.256 . S
C99 O111 1.257 . S
O100 Gd80 2.377 1_545 S
O100 C82 1.240 . S
O101 Gd81 2.395 . S
O101 C82 1.241 . S
O102 Gd80 2.448 . S
O102 C83 1.249 1_554 S
O103 Gd80 2.506 1_556 S
O103 C83 1.252 . S
O104 Gd80 2.435 . S
O104 C90 1.256 1_565 S
O105 Gd80 2.717 1_545 S
O105 Gd81 2.336 . S
O105 C90 1.257 . S
O106 Gd81 2.375 1_556 S
O106 C91 1.243 1_545 S
O107 Gd80 2.395 . S
O107 C91 1.238 1_554 S
O108 Gd81 2.445 1_556 S
O108 C92 1.249 1_556 S
O109 Gd81 2.513 . S
O109 C92 1.252 . S
O110 Gd81 2.423 1_556 S
O110 C99 1.256 . S
O111 Gd80 2.327 1_546 S
O111 Gd81 2.711 1_556 S
O111 C99 1.257 . S
H112 C85 0.930 . S
H113 C86 0.931 . S
H114 C88 0.931 . S
H115 C89 0.931 . S
H116 C94 0.930 . S
H117 C95 0.931 . S
H118 C97 0.931 . S
H119 C98 0.931 . S
Gd120 C123 2.818 . S
Gd120 O140 2.377 . S
Gd120 O142 2.448 . S
Gd120 O143 2.506 . S
Gd120 O144 2.435 . S
Gd120 O145 2.717 . S
Gd120 O147 2.395 . S
Gd120 O151 2.327 . S
Gd121 C132 2.818 . S
Gd121 O141 2.395 . S
Gd121 O145 2.327 . S
Gd121 O146 2.377 . S
Gd121 O148 2.448 . S
Gd121 O149 2.506 . S
Gd121 O150 2.435 . S
Gd121 O151 2.717 . S
C122 O140 1.240 . S
C122 O141 1.240 . S
C123 Gd120 2.818 . S
C123 C124 1.510 . S
C123 O142 1.249 . S
C123 O143 1.252 . S
C124 C123 1.510 . S
C124 C125 1.404 . S
C124 C126 1.352 . S
C125 C124 1.404 . S
C125 C129 1.389 . S
C125 H152 0.930 . S
C126 C124 1.352 . S
C126 C128 1.374 . S
C126 H153 0.931 . S
C127 C128 1.359 . S
C127 C129 1.364 . S
C128 C126 1.374 . S
C128 C127 1.359 . S
C128 H154 0.931 . S
C129 C125 1.389 . S
C129 C127 1.364 . S
C129 H155 0.931 . S
C130 O144 1.256 . S
C130 O145 1.257 . S
C131 O146 1.240 . S
C131 O147 1.240 . S
C132 Gd121 2.818 . S
C132 C133 1.510 . S
C132 O148 1.249 . S
C132 O149 1.252 . S
C133 C132 1.510 . S
C133 C134 1.404 . S
C133 C135 1.352 . S
C134 C133 1.404 . S
C134 C138 1.389 . S
C134 H156 0.930 . S
C135 C133 1.352 . S
C135 C137 1.374 . S
C135 H157 0.931 . S
C136 C137 1.359 . S
C136 C138 1.364 . S
C137 C135 1.374 . S
C137 C136 1.359 . S
C137 H158 0.931 . S
C138 C134 1.389 . S
C138 C136 1.364 . S
C138 H159 0.931 . S
C139 O150 1.256 . S
C139 O151 1.257 . S
O140 Gd120 2.377 . S
O140 C122 1.240 . S
O141 Gd121 2.395 . S
O141 C122 1.240 . S
O142 Gd120 2.448 . S
O142 C123 1.249 . S
O143 Gd120 2.506 . S
O143 C123 1.252 . S
O144 Gd120 2.435 . S
O144 C130 1.256 . S
O145 Gd120 2.717 . S
O145 Gd121 2.327 . S
O145 C130 1.257 . S
O146 Gd121 2.377 . S
O146 C131 1.240 . S
O147 Gd120 2.395 . S
O147 C131 1.240 . S
O148 Gd121 2.448 . S
O148 C132 1.249 . S
O149 Gd121 2.506 . S
O149 C132 1.252 . S
O150 Gd121 2.435 . S
O150 C139 1.256 . S
O151 Gd120 2.327 . S
O151 Gd121 2.717 . S
O151 C139 1.257 . S
H152 C125 0.930 . S
H153 C126 0.931 . S
H154 C128 0.931 . S
H155 C129 0.931 . S
H156 C134 0.930 . S
H157 C135 0.931 . S
H158 C137 0.931 . S
H159 C138 0.931 . S
Gd160 C163 2.818 . S
Gd160 O180 2.377 . S
Gd160 O182 2.448 . S
Gd160 O183 2.506 . S
Gd160 O184 2.435 . S
Gd160 O185 2.717 . S
Gd160 O187 2.395 . S
Gd160 O191 2.327 . S
Gd161 C172 2.818 . S
Gd161 O181 2.395 . S
Gd161 O185 2.327 . S
Gd161 O186 2.377 . S
Gd161 O188 2.448 . S
Gd161 O189 2.506 . S
Gd161 O190 2.435 . S
Gd161 O191 2.717 . S
C162 O180 1.240 . S
C162 O181 1.240 . S
C163 Gd160 2.818 . S
C163 C164 1.510 . S
C163 O182 1.249 . S
C163 O183 1.252 . S
C164 C163 1.510 . S
C164 C165 1.404 . S
C164 C166 1.352 . S
C165 C164 1.404 . S
C165 C169 1.389 . S
C165 H192 0.930 . S
C166 C164 1.352 . S
C166 C168 1.374 . S
C166 H193 0.931 . S
C167 C168 1.359 . S
C167 C169 1.364 . S
C168 C166 1.374 . S
C168 C167 1.359 . S
C168 H194 0.931 . S
C169 C165 1.389 . S
C169 C167 1.364 . S
C169 H195 0.931 . S
C170 O184 1.256 . S
C170 O185 1.257 . S
C171 O186 1.240 . S
C171 O187 1.240 . S
C172 Gd161 2.818 . S
C172 C173 1.510 . S
C172 O188 1.249 . S
C172 O189 1.252 . S
C173 C172 1.510 . S
C173 C174 1.404 . S
C173 C175 1.352 . S
C174 C173 1.404 . S
C174 C178 1.389 . S
C174 H196 0.930 . S
C175 C173 1.352 . S
C175 C177 1.374 . S
C175 H197 0.931 . S
C176 C177 1.359 . S
C176 C178 1.364 . S
C177 C175 1.374 . S
C177 C176 1.359 . S
C177 H198 0.931 . S
C178 C174 1.389 . S
C178 C176 1.364 . S
C178 H199 0.931 . S
C179 O190 1.256 . S
C179 O191 1.257 . S
O180 Gd160 2.377 . S
O180 C162 1.240 . S
O181 Gd161 2.395 . S
O181 C162 1.240 . S
O182 Gd160 2.448 . S
O182 C163 1.249 . S
O183 Gd160 2.506 . S
O183 C163 1.252 . S
O184 Gd160 2.435 . S
O184 C170 1.256 . S
O185 Gd160 2.717 . S
O185 Gd161 2.327 . S
O185 C170 1.257 . S
O186 Gd161 2.377 . S
O186 C171 1.240 . S
O187 Gd160 2.395 . S
O187 C171 1.240 . S
O188 Gd161 2.448 . S
O188 C172 1.249 . S
O189 Gd161 2.506 . S
O189 C172 1.252 . S
O190 Gd161 2.435 . S
O190 C179 1.256 . S
O191 Gd160 2.327 . S
O191 Gd161 2.717 . S
O191 C179 1.257 . S
H192 C165 0.930 . S
H193 C166 0.931 . S
H194 C168 0.931 . S
H195 C169 0.931 . S
H196 C174 0.930 . S
H197 C175 0.931 . S
H198 C177 0.931 . S
H199 C178 0.931 . S
Gd200 C203 2.818 . S
Gd200 O220 2.377 . S
Gd200 O222 2.448 . S
Gd200 O223 2.506 . S
Gd200 O224 2.435 . S
Gd200 O225 2.717 . S
Gd200 O227 2.395 . S
Gd200 O231 2.327 . S
Gd201 C212 2.818 . S
Gd201 O221 2.395 . S
Gd201 O225 2.327 . S
Gd201 O226 2.377 . S
Gd201 O228 2.448 . S
Gd201 O229 2.506 . S
Gd201 O230 2.435 . S
Gd201 O231 2.717 . S
C202 O220 1.240 . S
C202 O221 1.240 . S
C203 Gd200 2.818 . S
C203 C204 1.510 . S
C203 O222 1.249 . S
C203 O223 1.252 . S
C204 C203 1.510 . S
C204 C205 1.404 . S
C204 C206 1.352 . S
C205 C204 1.404 . S
C205 C209 1.389 . S
C205 H232 0.930 . S
C206 C204 1.352 . S
C206 C208 1.374 . S
C206 H233 0.931 . S
C207 C208 1.359 . S
C207 C209 1.364 . S
C208 C206 1.374 . S
C208 C207 1.359 . S
C208 H234 0.931 . S
C209 C205 1.389 . S
C209 C207 1.364 . S
C209 H235 0.931 . S
C210 O224 1.256 . S
C210 O225 1.257 . S
C211 O226 1.240 . S
C211 O227 1.240 . S
C212 Gd201 2.818 . S
C212 C213 1.510 . S
C212 O228 1.249 . S
C212 O229 1.252 . S
C213 C212 1.510 . S
C213 C214 1.404 . S
C213 C215 1.352 . S
C214 C213 1.404 . S
C214 C218 1.389 . S
C214 H236 0.930 . S
C215 C213 1.352 . S
C215 C217 1.374 . S
C215 H237 0.931 . S
C216 C217 1.359 . S
C216 C218 1.364 . S
C217 C215 1.374 . S
C217 C216 1.359 . S
C217 H238 0.931 . S
C218 C214 1.389 . S
C218 C216 1.364 . S
C218 H239 0.931 . S
C219 O230 1.256 . S
C219 O231 1.257 . S
O220 Gd200 2.377 . S
O220 C202 1.240 . S
O221 Gd201 2.395 . S
O221 C202 1.240 . S
O222 Gd200 2.448 . S
O222 C203 1.249 . S
O223 Gd200 2.506 . S
O223 C203 1.252 . S
O224 Gd200 2.435 . S
O224 C210 1.256 . S
O225 Gd200 2.717 . S
O225 Gd201 2.327 . S
O225 C210 1.257 . S
O226 Gd201 2.377 . S
O226 C211 1.240 . S
O227 Gd200 2.395 . S
O227 C211 1.240 . S
O228 Gd201 2.448 . S
O228 C212 1.249 . S
O229 Gd201 2.506 . S
O229 C212 1.252 . S
O230 Gd201 2.435 . S
O230 C219 1.256 . S
O231 Gd200 2.327 . S
O231 Gd201 2.717 . S
O231 C219 1.257 . S
H232 C205 0.930 . S
H233 C206 0.931 . S
H234 C208 0.931 . S
H235 C209 0.931 . S
H236 C214 0.930 . S
H237 C215 0.931 . S
H238 C217 0.931 . S
H239 C218 0.931 . S
Gd240 C243 2.818 . S
Gd240 O260 2.377 . S
Gd240 O262 2.448 . S
Gd240 O263 2.506 . S
Gd240 O264 2.435 . S
Gd240 O265 2.717 . S
Gd240 O267 2.395 . S
Gd240 O271 2.327 . S
Gd241 C252 2.818 . S
Gd241 O261 2.395 . S
Gd241 O265 2.327 . S
Gd241 O266 2.377 . S
Gd241 O268 2.448 . S
Gd241 O269 2.506 . S
Gd241 O270 2.435 . S
Gd241 O271 2.717 . S
C242 O260 1.240 . S
C242 O261 1.240 . S
C243 Gd240 2.818 . S
C243 C244 1.510 . S
C243 O262 1.249 . S
C243 O263 1.252 . S
C244 C243 1.510 . S
C244 C245 1.404 . S
C244 C246 1.352 . S
C245 C244 1.404 . S
C245 C249 1.389 . S
C245 H272 0.930 . S
C246 C244 1.352 . S
C246 C248 1.374 . S
C246 H273 0.931 . S
C247 C248 1.359 . S
C247 C249 1.364 . S
C248 C246 1.374 . S
C248 C247 1.359 . S
C248 H274 0.931 . S
C249 C245 1.389 . S
C249 C247 1.364 . S
C249 H275 0.931 . S
C250 O264 1.256 . S
C250 O265 1.257 . S
C251 O266 1.240 . S
C251 O267 1.240 . S
C252 Gd241 2.818 . S
C252 C253 1.510 . S
C252 O268 1.249 . S
C252 O269 1.252 . S
C253 C252 1.510 . S
C253 C254 1.404 . S
C253 C255 1.352 . S
C254 C253 1.404 . S
C254 C258 1.389 . S
C254 H276 0.930 . S
C255 C253 1.352 . S
C255 C257 1.374 . S
C255 H277 0.931 . S
C256 C257 1.359 . S
C256 C258 1.364 . S
C257 C255 1.374 . S
C257 C256 1.359 . S
C257 H278 0.931 . S
C258 C254 1.389 . S
C258 C256 1.364 . S
C258 H279 0.931 . S
C259 O270 1.256 . S
C259 O271 1.257 . S
O260 Gd240 2.377 . S
O260 C242 1.240 . S
O261 Gd241 2.395 . S
O261 C242 1.240 . S
O262 Gd240 2.448 . S
O262 C243 1.249 . S
O263 Gd240 2.506 . S
O263 C243 1.252 . S
O264 Gd240 2.435 . S
O264 C250 1.256 . S
O265 Gd240 2.717 . S
O265 Gd241 2.327 . S
O265 C250 1.257 . S
O266 Gd241 2.377 . S
O266 C251 1.240 . S
O267 Gd240 2.395 . S
O267 C251 1.240 . S
O268 Gd241 2.448 . S
O268 C252 1.249 . S
O269 Gd241 2.506 . S
O269 C252 1.252 . S
O270 Gd241 2.435 . S
O270 C259 1.256 . S
O271 Gd240 2.327 . S
O271 Gd241 2.717 . S
O271 C259 1.257 . S
H272 C245 0.930 . S
H273 C246 0.931 . S
H274 C248 0.931 . S
H275 C249 0.931 . S
H276 C254 0.930 . S
H277 C255 0.931 . S
H278 C257 0.931 . S
H279 C258 0.931 . S
Gd280 C283 2.818 . S
Gd280 O300 2.377 . S
Gd280 O302 2.448 . S
Gd280 O303 2.506 . S
Gd280 O304 2.435 . S
Gd280 O305 2.717 . S
Gd280 O307 2.395 . S
Gd280 O311 2.327 . S
Gd281 C292 2.818 . S
Gd281 O301 2.395 . S
Gd281 O305 2.327 . S
Gd281 O306 2.377 . S
Gd281 O308 2.448 . S
Gd281 O309 2.506 . S
Gd281 O310 2.435 . S
Gd281 O311 2.717 . S
C282 O300 1.240 . S
C282 O301 1.240 . S
C283 Gd280 2.818 . S
C283 C284 1.510 . S
C283 O302 1.249 . S
C283 O303 1.252 . S
C284 C283 1.510 . S
C284 C285 1.404 . S
C284 C286 1.352 . S
C285 C284 1.404 . S
C285 C289 1.389 . S
C285 H312 0.930 . S
C286 C284 1.352 . S
C286 C288 1.374 . S
C286 H313 0.931 . S
C287 C288 1.359 . S
C287 C289 1.364 . S
C288 C286 1.374 . S
C288 C287 1.359 . S
C288 H314 0.931 . S
C289 C285 1.389 . S
C289 C287 1.364 . S
C289 H315 0.931 . S
C290 O304 1.256 . S
C290 O305 1.257 . S
C291 O306 1.240 . S
C291 O307 1.240 . S
C292 Gd281 2.818 . S
C292 C293 1.510 . S
C292 O308 1.249 . S
C292 O309 1.252 . S
C293 C292 1.510 . S
C293 C294 1.404 . S
C293 C295 1.352 . S
C294 C293 1.404 . S
C294 C298 1.389 . S
C294 H316 0.930 . S
C295 C293 1.352 . S
C295 C297 1.374 . S
C295 H317 0.931 . S
C296 C297 1.359 . S
C296 C298 1.364 . S
C297 C295 1.374 . S
C297 C296 1.359 . S
C297 H318 0.931 . S
C298 C294 1.389 . S
C298 C296 1.364 . S
C298 H319 0.931 . S
C299 O310 1.256 . S
C299 O311 1.257 . S
O300 Gd280 2.377 . S
O300 C282 1.240 . S
O301 Gd281 2.395 . S
O301 C282 1.240 . S
O302 Gd280 2.448 . S
O302 C283 1.249 . S
O303 Gd280 2.506 . S
O303 C283 1.252 . S
O304 Gd280 2.435 . S
O304 C290 1.256 . S
O305 Gd280 2.717 . S
O305 Gd281 2.327 . S
O305 C290 1.257 . S
O306 Gd281 2.377 . S
O306 C291 1.240 . S
O307 Gd280 2.395 . S
O307 C291 1.240 . S
O308 Gd281 2.448 . S
O308 C292 1.249 . S
O309 Gd281 2.506 . S
O309 C292 1.252 . S
O310 Gd281 2.435 . S
O310 C299 1.256 . S
O311 Gd280 2.327 . S
O311 Gd281 2.717 . S
O311 C299 1.257 . S
H312 C285 0.930 . S
H313 C286 0.931 . S
H314 C288 0.931 . S
H315 C289 0.931 . S
H316 C294 0.930 . S
H317 C295 0.931 . S
H318 C297 0.931 . S
H319 C298 0.931 . S
Gd320 C323 2.818 . S
Gd320 O340 2.377 . S
Gd320 O342 2.448 . S
Gd320 O343 2.506 . S
Gd320 O344 2.435 . S
Gd320 O345 2.717 . S
Gd320 O347 2.395 . S
Gd320 O351 2.327 . S
Gd321 C332 2.818 . S
Gd321 O341 2.395 . S
Gd321 O345 2.327 . S
Gd321 O346 2.377 . S
Gd321 O348 2.448 . S
Gd321 O349 2.506 . S
Gd321 O350 2.435 . S
Gd321 O351 2.717 . S
C322 O340 1.240 . S
C322 O341 1.240 . S
C323 Gd320 2.818 . S
C323 C324 1.510 . S
C323 O342 1.249 . S
C323 O343 1.252 . S
C324 C323 1.510 . S
C324 C325 1.404 . S
C324 C326 1.352 . S
C325 C324 1.404 . S
C325 C329 1.389 . S
C325 H352 0.930 . S
C326 C324 1.352 . S
C326 C328 1.374 . S
C326 H353 0.931 . S
C327 C328 1.359 . S
C327 C329 1.364 . S
C328 C326 1.374 . S
C328 C327 1.359 . S
C328 H354 0.931 . S
C329 C325 1.389 . S
C329 C327 1.364 . S
C329 H355 0.931 . S
C330 O344 1.256 . S
C330 O345 1.257 . S
C331 O346 1.240 . S
C331 O347 1.240 . S
C332 Gd321 2.818 . S
C332 C333 1.510 . S
C332 O348 1.249 . S
C332 O349 1.252 . S
C333 C332 1.510 . S
C333 C334 1.404 . S
C333 C335 1.352 . S
C334 C333 1.404 . S
C334 C338 1.389 . S
C334 H356 0.930 . S
C335 C333 1.352 . S
C335 C337 1.374 . S
C335 H357 0.931 . S
C336 C337 1.359 . S
C336 C338 1.364 . S
C337 C335 1.374 . S
C337 C336 1.359 . S
C337 H358 0.931 . S
C338 C334 1.389 . S
C338 C336 1.364 . S
C338 H359 0.931 . S
C339 O350 1.256 . S
C339 O351 1.257 . S
O340 Gd320 2.377 . S
O340 C322 1.240 . S
O341 Gd321 2.395 . S
O341 C322 1.240 . S
O342 Gd320 2.448 . S
O342 C323 1.249 . S
O343 Gd320 2.506 . S
O343 C323 1.252 . S
O344 Gd320 2.435 . S
O344 C330 1.256 . S
O345 Gd320 2.717 . S
O345 Gd321 2.327 . S
O345 C330 1.257 . S
O346 Gd321 2.377 . S
O346 C331 1.240 . S
O347 Gd320 2.395 . S
O347 C331 1.240 . S
O348 Gd321 2.448 . S
O348 C332 1.249 . S
O349 Gd321 2.506 . S
O349 C332 1.252 . S
O350 Gd321 2.435 . S
O350 C339 1.256 . S
O351 Gd320 2.327 . S
O351 Gd321 2.717 . S
O351 C339 1.257 . S
H352 C325 0.930 . S
H353 C326 0.931 . S
H354 C328 0.931 . S
H355 C329 0.931 . S
H356 C334 0.930 . S
H357 C335 0.931 . S
H358 C337 0.931 . S
H359 C338 0.931 . S
H360 C378 0.951 1_554 S
H361 C380 0.951 . S
H362 C382 0.950 . S
H363 C383 0.950 . S
H364 C385 0.950 . S
H365 C388 0.950 . S
H366 C389 0.950 . S
H367 C391 0.950 . S
H368 C392 0.950 . S
H369 C393 0.951 . S
H370 C395 0.951 . S
H371 C397 0.950 . S
H372 C398 0.950 . S
H373 C400 0.950 . S
H374 C403 0.950 . S
H375 C404 0.950 . S
H376 C406 0.950 . S
H377 C407 0.950 . S
C378 H360 0.951 1_556 S
C378 C379 1.366 . S
C378 C380 1.388 . S
C379 C378 1.366 . S
C379 C383 1.385 . S
C380 H361 0.951 . S
C380 C378 1.388 . S
C380 C381 1.366 . S
C381 C380 1.366 . S
C381 C382 1.414 . S
C381 C384 1.499 . S
C382 H362 0.950 . S
C382 C381 1.414 . S
C382 C383 1.374 . S
C383 H363 0.950 . S
C383 C379 1.385 . S
C383 C382 1.374 . S
C384 C381 1.499 . S
C384 C385 1.373 . S
C384 C386 1.389 . S
C385 H364 0.950 . S
C385 C384 1.373 . S
C385 C401 1.377 . S
C386 C384 1.389 . S
C386 C387 1.524 . S
C386 C400 1.377 . S
C387 C386 1.524 . S
C387 C388 1.397 . S
C387 C392 1.363 1_556 S
C388 H365 0.950 . S
C388 C387 1.397 . S
C388 C389 1.334 1_556 S
C389 H366 0.950 . S
C389 C388 1.334 1_554 S
C389 C390 1.287 . S
C390 C389 1.287 . S
C390 C391 1.524 . S
C390 H409 0.913 . S
C391 H367 0.950 . S
C391 C390 1.524 . S
C391 C392 1.415 . S
C392 H368 0.950 . S
C392 C387 1.363 1_554 S
C392 C391 1.415 . S
C393 H369 0.951 . S
C393 C394 1.366 . S
C393 C395 1.388 . S
C394 C393 1.366 . S
C394 C398 1.385 . S
C395 H370 0.951 . S
C395 C393 1.388 . S
C395 C396 1.366 . S
C396 C395 1.366 . S
C396 C397 1.414 . S
C396 C399 1.499 . S
C397 H371 0.950 . S
C397 C396 1.414 . S
C397 C398 1.374 . S
C398 H372 0.950 . S
C398 C394 1.385 . S
C398 C397 1.374 . S
C399 C396 1.499 . S
C399 C400 1.373 . S
C399 C401 1.389 . S
C400 H373 0.950 . S
C400 C386 1.377 . S
C400 C399 1.373 . S
C401 C385 1.377 . S
C401 C399 1.389 . S
C401 C402 1.524 . S
C402 C401 1.524 . S
C402 C403 1.397 . S
C402 C407 1.363 . S
C403 H374 0.950 . S
C403 C402 1.397 . S
C403 C404 1.334 . S
C404 H375 0.950 . S
C404 C403 1.334 . S
C404 C405 1.287 . S
C405 C404 1.287 . S
C405 C406 1.524 . S
C405 H408 0.999 . S
C406 H376 0.950 . S
C406 C405 1.524 . S
C406 C407 1.415 . S
C407 H377 0.950 . S
C407 C402 1.363 . S
C407 C406 1.415 . S
H408 C405 0.999 . S
H409 C390 0.913 . S
H410 C428 0.951 1_554 S
H411 C430 0.951 . S
H412 C432 0.950 . S
H413 C433 0.950 . S
H414 C435 0.950 . S
H415 C438 0.950 . S
H416 C439 0.950 . S
H417 C441 0.950 . S
H418 C442 0.950 . S
H419 C443 0.951 . S
H420 C445 0.951 . S
H421 C447 0.950 . S
H422 C448 0.950 . S
H423 C450 0.950 . S
H424 C453 0.950 . S
H425 C454 0.950 . S
H426 C456 0.950 . S
H427 C457 0.950 . S
C428 H410 0.951 1_556 S
C428 C429 1.366 . S
C428 C430 1.388 . S
C429 C428 1.366 . S
C429 C433 1.385 . S
C430 H411 0.951 . S
C430 C428 1.388 . S
C430 C431 1.366 . S
C431 C430 1.366 . S
C431 C432 1.414 . S
C431 C434 1.499 . S
C432 H412 0.950 . S
C432 C431 1.414 . S
C432 C433 1.374 . S
C433 H413 0.950 . S
C433 C429 1.385 . S
C433 C432 1.374 . S
C434 C431 1.499 . S
C434 C435 1.373 . S
C434 C436 1.389 . S
C435 H414 0.950 . S
C435 C434 1.373 . S
C435 C451 1.377 . S
C436 C434 1.389 . S
C436 C437 1.524 . S
C436 C450 1.377 . S
C437 C436 1.524 . S
C437 C438 1.397 . S
C437 C442 1.363 . S
C438 H415 0.950 . S
C438 C437 1.397 . S
C438 C439 1.334 . S
C439 H416 0.950 . S
C439 C438 1.334 . S
C439 C440 1.287 . S
C440 C439 1.287 . S
C440 C441 1.524 . S
C440 H459 0.913 . S
C441 H417 0.950 . S
C441 C440 1.524 . S
C441 C442 1.415 . S
C442 H418 0.950 . S
C442 C437 1.363 . S
C442 C441 1.415 . S
C443 H419 0.951 . S
C443 C444 1.366 . S
C443 C445 1.388 . S
C444 C443 1.366 . S
C444 C448 1.385 . S
C445 H420 0.951 . S
C445 C443 1.388 . S
C445 C446 1.366 . S
C446 C445 1.366 . S
C446 C447 1.414 . S
C446 C449 1.499 . S
C447 H421 0.950 . S
C447 C446 1.414 . S
C447 C448 1.374 . S
C448 H422 0.950 . S
C448 C444 1.385 . S
C448 C447 1.374 . S
C449 C446 1.499 . S
C449 C450 1.373 . S
C449 C451 1.389 . S
C450 H423 0.950 . S
C450 C436 1.377 . S
C450 C449 1.373 . S
C451 C435 1.377 . S
C451 C449 1.389 . S
C451 C452 1.524 . S
C452 C451 1.524 . S
C452 C453 1.397 . S
C452 C457 1.363 . S
C453 H424 0.950 . S
C453 C452 1.397 . S
C453 C454 1.334 . S
C454 H425 0.950 . S
C454 C453 1.334 . S
C454 C455 1.287 . S
C455 C454 1.287 . S
C455 C456 1.524 . S
C455 H458 0.999 . S
C456 H426 0.950 . S
C456 C455 1.524 . S
C456 C457 1.415 . S
C457 H427 0.950 . S
C457 C452 1.363 . S
C457 C456 1.415 . S
H458 C455 0.999 . S
H459 C440 0.913 . S
H460 C478 0.951 . S
H461 C480 0.951 . S
H462 C482 0.950 . S
H463 C483 0.950 . S
H464 C485 0.950 . S
H465 C488 0.950 1_556 S
H466 C489 0.950 . S
H467 C491 0.950 . S
H468 C492 0.950 1_556 S
H469 C493 0.951 . S
H470 C495 0.951 . S
H471 C497 0.950 . S
H472 C498 0.950 . S
H473 C500 0.950 . S
H474 C503 0.950 . S
H475 C504 0.950 . S
H476 C506 0.950 . S
H477 C507 0.950 . S
C478 H460 0.951 . S
C478 C479 1.366 . S
C478 C480 1.388 . S
C479 C478 1.366 . S
C479 C483 1.385 . S
C480 H461 0.951 . S
C480 C478 1.388 . S
C480 C481 1.366 . S
C481 C480 1.366 . S
C481 C482 1.414 . S
C481 C484 1.499 . S
C482 H462 0.950 . S
C482 C481 1.414 . S
C482 C483 1.374 . S
C483 H463 0.950 . S
C483 C479 1.385 . S
C483 C482 1.374 . S
C484 C481 1.499 . S
C484 C485 1.373 . S
C484 C486 1.389 . S
C485 H464 0.950 . S
C485 C484 1.373 . S
C485 C501 1.377 . S
C486 C484 1.389 . S
C486 C487 1.524 . S
C486 C500 1.377 . S
C487 C486 1.524 . S
C487 C488 1.397 1_556 S
C487 C492 1.363 1_556 S
C488 H465 0.950 1_554 S
C488 C487 1.397 1_554 S
C488 C489 1.334 . S
C489 H466 0.950 . S
C489 C488 1.334 . S
C489 C490 1.287 . S
C490 C489 1.287 . S
C490 C491 1.524 . S
C490 H509 0.913 . S
C491 H467 0.950 . S
C491 C490 1.524 . S
C491 C492 1.415 . S
C492 H468 0.950 1_554 S
C492 C487 1.363 1_554 S
C492 C491 1.415 . S
C493 H469 0.951 . S
C493 C494 1.366 . S
C493 C495 1.388 . S
C494 C493 1.366 . S
C494 C498 1.385 . S
C495 H470 0.951 . S
C495 C493 1.388 . S
C495 C496 1.366 . S
C496 C495 1.366 . S
C496 C497 1.414 . S
C496 C499 1.499 . S
C497 H471 0.950 . S
C497 C496 1.414 . S
C497 C498 1.374 . S
C498 H472 0.950 . S
C498 C494 1.385 . S
C498 C497 1.374 . S
C499 C496 1.499 . S
C499 C500 1.373 . S
C499 C501 1.389 . S
C500 H473 0.950 . S
C500 C486 1.377 . S
C500 C499 1.373 . S
C501 C485 1.377 . S
C501 C499 1.389 . S
C501 C502 1.524 . S
C502 C501 1.524 . S
C502 C503 1.397 . S
C502 C507 1.363 . S
C503 H474 0.950 . S
C503 C502 1.397 . S
C503 C504 1.334 . S
C504 H475 0.950 . S
C504 C503 1.334 . S
C504 C505 1.287 . S
C505 C504 1.287 . S
C505 C506 1.524 . S
C505 H508 0.999 . S
C506 H476 0.950 . S
C506 C505 1.524 . S
C506 C507 1.415 . S
C507 H477 0.950 . S
C507 C502 1.363 . S
C507 C506 1.415 . S
H508 C505 0.999 . S
H509 C490 0.913 . S
H510 C528 0.951 . S
H511 C530 0.951 . S
H512 C532 0.950 . S
H513 C533 0.950 . S
H514 C535 0.950 . S
H515 C538 0.950 . S
H516 C539 0.950 . S
H517 C541 0.950 . S
H518 C542 0.950 . S
H519 C543 0.951 . S
H520 C545 0.951 . S
H521 C547 0.950 . S
H522 C548 0.950 . S
H523 C550 0.950 . S
H524 C553 0.950 . S
H525 C554 0.950 . S
H526 C556 0.950 . S
H527 C557 0.950 . S
C528 H510 0.951 . S
C528 C529 1.366 . S
C528 C530 1.388 . S
C529 C528 1.366 . S
C529 C533 1.385 . S
C530 H511 0.951 . S
C530 C528 1.388 . S
C530 C531 1.366 . S
C531 C530 1.366 . S
C531 C532 1.414 . S
C531 C534 1.499 . S
C532 H512 0.950 . S
C532 C531 1.414 . S
C532 C533 1.374 . S
C533 H513 0.950 . S
C533 C529 1.385 . S
C533 C532 1.374 . S
C534 C531 1.499 . S
C534 C535 1.373 . S
C534 C536 1.389 . S
C535 H514 0.950 . S
C535 C534 1.373 . S
C535 C551 1.377 . S
C536 C534 1.389 . S
C536 C537 1.524 . S
C536 C550 1.377 . S
C537 C536 1.524 . S
C537 C538 1.397 . S
C537 C542 1.363 . S
C538 H515 0.950 . S
C538 C537 1.397 . S
C538 C539 1.334 1_554 S
C539 H516 0.950 . S
C539 C538 1.334 1_556 S
C539 C540 1.287 . S
C540 C539 1.287 . S
C540 C541 1.524 . S
C540 H559 0.913 . S
C541 H517 0.950 . S
C541 C540 1.524 . S
C541 C542 1.415 1_556 S
C542 H518 0.950 . S
C542 C537 1.363 . S
C542 C541 1.415 1_554 S
C543 H519 0.951 . S
C543 C544 1.366 . S
C543 C545 1.388 . S
C544 C543 1.366 . S
C544 C548 1.385 . S
C545 H520 0.951 . S
C545 C543 1.388 . S
C545 C546 1.366 . S
C546 C545 1.366 . S
C546 C547 1.414 . S
C546 C549 1.499 . S
C547 H521 0.950 . S
C547 C546 1.414 . S
C547 C548 1.374 . S
C548 H522 0.950 . S
C548 C544 1.385 . S
C548 C547 1.374 . S
C549 C546 1.499 . S
C549 C550 1.373 . S
C549 C551 1.389 . S
C550 H523 0.950 . S
C550 C536 1.377 . S
C550 C549 1.373 . S
C551 C535 1.377 . S
C551 C549 1.389 . S
C551 C552 1.524 . S
C552 C551 1.524 . S
C552 C553 1.397 . S
C552 C557 1.363 . S
C553 H524 0.950 . S
C553 C552 1.397 . S
C553 C554 1.334 . S
C554 H525 0.950 . S
C554 C553 1.334 . S
C554 C555 1.287 . S
C555 C554 1.287 . S
C555 C556 1.524 . S
C555 H558 0.999 . S
C556 H526 0.950 . S
C556 C555 1.524 . S
C556 C557 1.415 . S
C557 H527 0.950 . S
C557 C552 1.363 . S
C557 C556 1.415 . S
H558 C555 0.999 . S
H559 C540 0.913 . S
H560 C578 0.951 . S
H561 C580 0.951 . S
H562 C582 0.950 . S
H563 C583 0.950 . S
H564 C585 0.950 . S
H565 C588 0.950 . S
H566 C589 0.950 . S
H567 C591 0.950 . S
H568 C592 0.950 . S
H569 C593 0.951 . S
H570 C595 0.951 . S
H571 C597 0.950 . S
H572 C598 0.950 1_455 S
H573 C600 0.950 . S
H574 C603 0.950 . S
H575 C604 0.950 . S
H576 C606 0.950 . S
H577 C607 0.950 . S
C578 H560 0.951 . S
C578 C579 1.366 . S
C578 C580 1.388 . S
C579 C578 1.366 . S
C579 C583 1.385 . S
C580 H561 0.951 . S
C580 C578 1.388 . S
C580 C581 1.366 . S
C581 C580 1.366 . S
C581 C582 1.414 . S
C581 C584 1.499 . S
C582 H562 0.950 . S
C582 C581 1.414 . S
C582 C583 1.374 . S
C583 H563 0.950 . S
C583 C579 1.385 . S
C583 C582 1.374 . S
C584 C581 1.499 . S
C584 C585 1.373 . S
C584 C586 1.389 . S
C585 H564 0.950 . S
C585 C584 1.373 . S
C585 C601 1.377 . S
C586 C584 1.389 . S
C586 C587 1.524 . S
C586 C600 1.377 . S
C587 C586 1.524 . S
C587 C588 1.397 . S
C587 C592 1.363 . S
C588 H565 0.950 . S
C588 C587 1.397 . S
C588 C589 1.334 1_554 S
C589 H566 0.950 . S
C589 C588 1.334 1_556 S
C589 C590 1.287 . S
C590 C589 1.287 . S
C590 C591 1.524 . S
C590 H609 0.913 . S
C591 H567 0.950 . S
C591 C590 1.524 . S
C591 C592 1.415 1_556 S
C592 H568 0.950 . S
C592 C587 1.363 . S
C592 C591 1.415 1_554 S
C593 H569 0.951 . S
C593 C594 1.366 . S
C593 C595 1.388 . S
C594 C593 1.366 . S
C594 C598 1.385 . S
C595 H570 0.951 . S
C595 C593 1.388 . S
C595 C596 1.366 . S
C596 C595 1.366 . S
C596 C597 1.414 . S
C596 C599 1.499 . S
C597 H571 0.950 . S
C597 C596 1.414 . S
C597 C598 1.374 . S
C598 H572 0.950 1_655 S
C598 C594 1.385 . S
C598 C597 1.374 . S
C599 C596 1.499 . S
C599 C600 1.373 . S
C599 C601 1.389 . S
C600 H573 0.950 . S
C600 C586 1.377 . S
C600 C599 1.373 . S
C601 C585 1.377 . S
C601 C599 1.389 . S
C601 C602 1.524 . S
C602 C601 1.524 . S
C602 C603 1.397 . S
C602 C607 1.363 . S
C603 H574 0.950 . S
C603 C602 1.397 . S
C603 C604 1.334 . S
C604 H575 0.950 . S
C604 C603 1.334 . S
C604 C605 1.287 . S
C605 C604 1.287 . S
C605 C606 1.524 . S
C605 H608 0.999 . S
C606 H576 0.950 . S
C606 C605 1.524 . S
C606 C607 1.415 . S
C607 H577 0.950 . S
C607 C602 1.363 . S
C607 C606 1.415 . S
H608 C605 0.999 . S
H609 C590 0.913 . S
H610 C628 0.951 . S
H611 C630 0.951 1_556 S
H612 C632 0.950 . S
H613 C633 0.950 . S
H614 C635 0.950 . S
H615 C638 0.950 . S
H616 C639 0.950 . S
H617 C641 0.950 . S
H618 C642 0.950 . S
H619 C643 0.951 . S
H620 C645 0.951 . S
H621 C647 0.950 . S
H622 C648 0.950 . S
H623 C650 0.950 . S
H624 C653 0.950 . S
H625 C654 0.950 . S
H626 C656 0.950 . S
H627 C657 0.950 . S
C628 H610 0.951 . S
C628 C629 1.366 1_556 S
C628 C630 1.388 1_556 S
C629 C628 1.366 1_554 S
C629 C633 1.385 . S
C630 H611 0.951 1_554 S
C630 C628 1.388 1_554 S
C630 C631 1.366 . S
C631 C630 1.366 . S
C631 C632 1.414 . S
C631 C634 1.499 . S
C632 H612 0.950 . S
C632 C631 1.414 . S
C632 C633 1.374 . S
C633 H613 0.950 . S
C633 C629 1.385 . S
C633 C632 1.374 . S
C634 C631 1.499 . S
C634 C635 1.373 . S
C634 C636 1.389 . S
C635 H614 0.950 . S
C635 C634 1.373 . S
C635 C651 1.377 . S
C636 C634 1.389 . S
C636 C637 1.524 . S
C636 C650 1.377 . S
C637 C636 1.524 . S
C637 C638 1.397 . S
C637 C642 1.363 1_554 S
C638 H615 0.950 . S
C638 C637 1.397 . S
C638 C639 1.334 . S
C639 H616 0.950 . S
C639 C638 1.334 . S
C639 C640 1.287 1_554 S
C640 C639 1.287 1_556 S
C640 C641 1.524 . S
C640 H659 0.913 . S
C641 H617 0.950 . S
C641 C640 1.524 . S
C641 C642 1.415 . S
C642 H618 0.950 . S
C642 C637 1.363 1_556 S
C642 C641 1.415 . S
C643 H619 0.951 . S
C643 C644 1.366 . S
C643 C645 1.388 . S
C644 C643 1.366 . S
C644 C648 1.385 . S
C645 H620 0.951 . S
C645 C643 1.388 . S
C645 C646 1.366 . S
C646 C645 1.366 . S
C646 C647 1.414 . S
C646 C649 1.499 . S
C647 H621 0.950 . S
C647 C646 1.414 . S
C647 C648 1.374 . S
C648 H622 0.950 . S
C648 C644 1.385 . S
C648 C647 1.374 . S
C649 C646 1.499 . S
C649 C650 1.373 . S
C649 C651 1.389 . S
C650 H623 0.950 . S
C650 C636 1.377 . S
C650 C649 1.373 . S
C651 C635 1.377 . S
C651 C649 1.389 . S
C651 C652 1.524 . S
C652 C651 1.524 . S
C652 C653 1.397 . S
C652 C657 1.363 . S
C653 H624 0.950 . S
C653 C652 1.397 . S
C653 C654 1.334 . S
C654 H625 0.950 . S
C654 C653 1.334 . S
C654 C655 1.287 . S
C655 C654 1.287 . S
C655 C656 1.524 . S
C655 H658 0.999 . S
C656 H626 0.950 . S
C656 C655 1.524 . S
C656 C657 1.415 . S
C657 H627 0.950 . S
C657 C652 1.363 . S
C657 C656 1.415 . S
H658 C655 0.999 . S
H659 C640 0.913 . S
H660 C678 0.951 . S
H661 C680 0.951 . S
H662 C682 0.950 . S
H663 C683 0.950 . S
H664 C685 0.950 . S
H665 C688 0.932 1_455 S
H666 C689 0.950 1_455 S
H667 C691 0.950 . S
H668 C692 0.950 . S
H669 C693 0.951 . S
H670 C695 0.951 . S
H671 C697 0.950 . S
H672 C698 0.950 . S
H673 C700 0.950 . S
H674 C703 0.950 . S
H675 C704 0.950 . S
H676 C706 0.950 . S
H677 C707 0.950 . S
C678 H660 0.951 . S
C678 C679 1.366 . S
C678 C680 1.388 . S
C679 C678 1.366 . S
C679 C683 1.385 . S
C680 H661 0.951 . S
C680 C678 1.388 . S
C680 C681 1.366 . S
C681 C680 1.366 . S
C681 C682 1.414 . S
C681 C684 1.499 1_455 S
C682 H662 0.950 . S
C682 C681 1.414 . S
C682 C683 1.374 . S
C683 H663 0.950 . S
C683 C679 1.385 . S
C683 C682 1.374 . S
C684 C681 1.499 1_655 S
C684 C685 1.373 . S
C684 C686 1.389 . S
C685 H664 0.950 . S
C685 C684 1.373 . S
C685 C701 1.377 . S
C686 C684 1.389 . S
C686 C687 1.524 . S
C686 C700 1.377 . S
C687 C686 1.524 . S
C687 C688 1.397 . S
C687 C692 1.363 . S
C688 H665 0.932 1_655 S
C688 C687 1.397 . S
C688 C689 1.334 . S
C689 H666 0.950 1_655 S
C689 C688 1.334 . S
C689 C690 1.287 . S
C690 C689 1.287 . S
C690 C691 1.524 . S
C690 H709 0.913 . S
C691 H667 0.950 . S
C691 C690 1.524 . S
C691 C692 1.415 . S
C692 H668 0.950 . S
C692 C687 1.363 . S
C692 C691 1.415 . S
C693 H669 0.951 . S
C693 C694 1.366 . S
C693 C695 1.388 . S
C694 C693 1.366 . S
C694 C698 1.385 . S
C695 H670 0.951 . S
C695 C693 1.388 . S
C695 C696 1.366 . S
C696 C695 1.366 . S
C696 C697 1.414 . S
C696 C699 1.499 . S
C697 H671 0.950 . S
C697 C696 1.414 . S
C697 C698 1.374 . S
C698 H672 0.950 . S
C698 C694 1.385 . S
C698 C697 1.374 . S
C699 C696 1.499 . S
C699 C700 1.373 . S
C699 C701 1.389 . S
C700 H673 0.950 . S
C700 C686 1.377 . S
C700 C699 1.373 . S
C701 C685 1.377 . S
C701 C699 1.389 . S
C701 C702 1.524 . S
C702 C701 1.524 . S
C702 C703 1.397 . S
C702 C707 1.363 . S
C703 H674 0.950 . S
C703 C702 1.397 . S
C703 C704 1.334 . S
C704 H675 0.950 . S
C704 C703 1.334 . S
C704 C705 1.287 . S
C705 C704 1.287 . S
C705 C706 1.524 . S
C705 H708 0.999 . S
C706 H676 0.950 . S
C706 C705 1.524 . S
C706 C707 1.415 . S
C707 H677 0.950 . S
C707 C702 1.363 . S
C707 C706 1.415 . S
H708 C705 0.999 . S
H709 C690 0.913 . S
H710 C728 0.951 . S
H711 C730 0.951 . S
H712 C732 0.950 . S
H713 C733 0.950 . S
H714 C735 0.950 . S
H715 C738 0.950 . S
H716 C739 0.950 . S
H717 C741 0.950 . S
H718 C742 0.950 . S
H719 C743 0.951 . S
H720 C745 0.951 . S
H721 C747 0.950 . S
H722 C748 0.950 . S
H723 C750 0.950 . S
H724 C753 0.950 . S
H725 C754 0.950 . S
H726 C756 0.950 . S
H727 C757 0.950 . S
C728 H710 0.951 . S
C728 C729 1.366 . S
C728 C730 1.388 . S
C729 C728 1.366 . S
C729 C733 1.385 . S
C730 H711 0.951 . S
C730 C728 1.388 . S
C730 C731 1.366 . S
C731 C730 1.366 . S
C731 C732 1.414 . S
C731 C734 1.499 . S
C732 H712 0.950 . S
C732 C731 1.414 . S
C732 C733 1.374 . S
C733 H713 0.950 . S
C733 C729 1.385 . S
C733 C732 1.374 . S
C734 C731 1.499 . S
C734 C735 1.373 . S
C734 C736 1.389 . S
C735 H714 0.950 . S
C735 C734 1.373 . S
C735 C751 1.377 . S
C736 C734 1.389 . S
C736 C737 1.524 . S
C736 C750 1.377 . S
C737 C736 1.524 . S
C737 C738 1.397 . S
C737 C742 1.363 . S
C738 H715 0.950 . S
C738 C737 1.397 . S
C738 C739 1.334 . S
C739 H716 0.950 . S
C739 C738 1.334 . S
C739 C740 1.287 . S
C740 C739 1.287 . S
C740 C741 1.524 . S
C740 H759 0.913 . S
C741 H717 0.950 . S
C741 C740 1.524 . S
C741 C742 1.415 . S
C742 H718 0.950 . S
C742 C737 1.363 . S
C742 C741 1.415 . S
C743 H719 0.951 . S
C743 C744 1.366 . S
C743 C745 1.388 . S
C744 C743 1.366 . S
C744 C748 1.385 . S
C745 H720 0.951 . S
C745 C743 1.388 . S
C745 C746 1.366 . S
C746 C745 1.366 . S
C746 C747 1.414 . S
C746 C749 1.499 . S
C747 H721 0.950 . S
C747 C746 1.414 . S
C747 C748 1.374 . S
C748 H722 0.950 . S
C748 C744 1.385 . S
C748 C747 1.374 . S
C749 C746 1.499 . S
C749 C750 1.373 . S
C749 C751 1.389 . S
C750 H723 0.950 . S
C750 C736 1.377 . S
C750 C749 1.373 . S
C751 C735 1.377 . S
C751 C749 1.389 . S
C751 C752 1.524 . S
C752 C751 1.524 . S
C752 C753 1.397 . S
C752 C757 1.363 . S
C753 H724 0.950 . S
C753 C752 1.397 . S
C753 C754 1.334 . S
C754 H725 0.950 . S
C754 C753 1.334 . S
C754 C755 1.287 . S
C755 C754 1.287 . S
C755 C756 1.524 . S
C755 H758 0.999 . S
C756 H726 0.950 . S
C756 C755 1.524 . S
C756 C757 1.415 . S
C757 H727 0.950 . S
C757 C752 1.363 . S
C757 C756 1.415 . S
H758 C755 0.999 . S
H759 C740 0.913 . S
H760 C778 0.951 . S
H761 C780 0.951 . S
H762 C782 0.950 . S
H763 C783 0.950 . S
H764 C785 0.950 . S
H765 C788 0.950 . S
H766 C789 0.950 . S
H767 C791 0.950 . S
H768 C792 0.950 . S
H769 C793 0.951 . S
H770 C795 0.951 . S
H771 C797 0.950 . S
H772 C798 0.950 . S
H773 C800 0.950 . S
H774 C803 0.950 . S
H775 C804 0.950 1_565 S
H776 C806 0.950 . S
H777 C807 0.950 . S
C778 H760 0.951 . S
C778 C779 1.366 . S
C778 C780 1.388 . S
C779 C778 1.366 . S
C779 C783 1.385 . S
C780 H761 0.951 . S
C780 C778 1.388 . S
C780 C781 1.366 . S
C781 C780 1.366 . S
C781 C782 1.414 . S
C781 C784 1.499 . S
C782 H762 0.950 . S
C782 C781 1.414 . S
C782 C783 1.374 . S
C783 H763 0.950 . S
C783 C779 1.385 . S
C783 C782 1.374 . S
C784 C781 1.499 . S
C784 C785 1.373 . S
C784 C786 1.389 . S
C785 H764 0.950 . S
C785 C784 1.373 . S
C785 C801 1.377 . S
C786 C784 1.389 . S
C786 C787 1.524 . S
C786 C800 1.377 . S
C787 C786 1.524 . S
C787 C788 1.397 . S
C787 C792 1.363 . S
C788 H765 0.950 . S
C788 C787 1.397 . S
C788 C789 1.334 . S
C789 H766 0.950 . S
C789 C788 1.334 . S
C789 C790 1.287 . S
C790 C789 1.287 . S
C790 C791 1.524 . S
C790 H809 0.913 . S
C791 H767 0.950 . S
C791 C790 1.524 . S
C791 C792 1.415 . S
C792 H768 0.950 . S
C792 C787 1.363 . S
C792 C791 1.415 . S
C793 H769 0.951 . S
C793 C794 1.366 . S
C793 C795 1.388 1_565 S
C794 C793 1.366 . S
C794 C798 1.385 . S
C795 H770 0.951 . S
C795 C793 1.388 1_545 S
C795 C796 1.366 . S
C796 C795 1.366 . S
C796 C797 1.414 . S
C796 C799 1.499 . S
C797 H771 0.950 . S
C797 C796 1.414 . S
C797 C798 1.374 1_545 S
C798 H772 0.950 . S
C798 C794 1.385 . S
C798 C797 1.374 1_565 S
C799 C796 1.499 . S
C799 C800 1.373 . S
C799 C801 1.389 . S
C800 H773 0.950 . S
C800 C786 1.377 . S
C800 C799 1.373 . S
C801 C785 1.377 . S
C801 C799 1.389 . S
C801 C802 1.524 . S
C802 C801 1.524 . S
C802 C803 1.397 . S
C802 C807 1.363 . S
C803 H774 0.950 . S
C803 C802 1.397 . S
C803 C804 1.334 . S
C804 H775 0.950 1_545 S
C804 C803 1.334 . S
C804 C805 1.287 . S
C805 C804 1.287 . S
C805 C806 1.524 . S
C805 H808 0.999 . S
C806 H776 0.950 . S
C806 C805 1.524 . S
C806 C807 1.415 . S
C807 H777 0.950 . S
C807 C802 1.363 . S
C807 C806 1.415 . S
H808 C805 0.999 . S
H809 C790 0.913 . S
H810 C828 0.951 . S
H811 C830 0.951 . S
H812 C832 0.950 . S
H813 C833 0.950 . S
H814 C835 0.950 . S
H815 C838 0.950 . S
H816 C839 0.950 . S
H817 C841 0.950 . S
H818 C842 0.950 . S
H819 C843 0.951 . S
H820 C845 0.951 . S
H821 C847 0.950 . S
H822 C848 0.950 . S
H823 C850 0.950 . S
H824 C853 0.950 . S
H825 C854 0.950 . S
H826 C856 0.950 . S
H827 C857 0.950 . S
C828 H810 0.951 . S
C828 C829 1.366 . S
C828 C830 1.388 . S
C829 C828 1.366 . S
C829 C833 1.385 . S
C830 H811 0.951 . S
C830 C828 1.388 . S
C830 C831 1.366 . S
C831 C830 1.366 . S
C831 C832 1.414 . S
C831 C834 1.499 . S
C832 H812 0.950 . S
C832 C831 1.414 . S
C832 C833 1.374 . S
C833 H813 0.950 . S
C833 C829 1.385 . S
C833 C832 1.374 . S
C834 C831 1.499 . S
C834 C835 1.373 1_554 S
C834 C836 1.389 . S
C835 H814 0.950 . S
C835 C834 1.373 1_556 S
C835 C851 1.377 . S
C836 C834 1.389 . S
C836 C837 1.524 . S
C836 C850 1.377 . S
C837 C836 1.524 . S
C837 C838 1.397 . S
C837 C842 1.363 . S
C838 H815 0.950 . S
C838 C837 1.397 . S
C838 C839 1.334 . S
C839 H816 0.950 . S
C839 C838 1.334 . S
C839 C840 1.287 . S
C840 C839 1.287 . S
C840 C841 1.524 . S
C840 H859 0.913 . S
C841 H817 0.950 . S
C841 C840 1.524 . S
C841 C842 1.415 . S
C842 H818 0.950 . S
C842 C837 1.363 . S
C842 C841 1.415 . S
C843 H819 0.951 . S
C843 C844 1.366 1_556 S
C843 C845 1.388 . S
C844 C843 1.366 1_554 S
C844 C848 1.385 . S
C845 H820 0.951 . S
C845 C843 1.388 . S
C845 C846 1.366 1_556 S
C846 C845 1.366 1_554 S
C846 C847 1.414 . S
C846 C849 1.499 . S
C847 H821 0.950 . S
C847 C846 1.414 . S
C847 C848 1.374 . S
C848 H822 0.950 . S
C848 C844 1.385 . S
C848 C847 1.374 . S
C849 C846 1.499 . S
C849 C850 1.373 . S
C849 C851 1.389 1_554 S
C850 H823 0.950 . S
C850 C836 1.377 . S
C850 C849 1.373 . S
C851 C835 1.377 . S
C851 C849 1.389 1_556 S
C851 C852 1.524 . S
C852 C851 1.524 . S
C852 C853 1.397 . S
C852 C857 1.363 . S
C853 H824 0.950 . S
C853 C852 1.397 . S
C853 C854 1.334 . S
C854 H825 0.950 . S
C854 C853 1.334 . S
C854 C855 1.287 . S
C855 C854 1.287 . S
C855 C856 1.524 . S
C855 H858 0.999 . S
C856 H826 0.950 . S
C856 C855 1.524 . S
C856 C857 1.415 . S
C857 H827 0.950 . S
C857 C852 1.363 . S
C857 C856 1.415 . S
H858 C855 0.999 . S
H859 C840 0.913 . S
H860 C878 0.951 . S
H861 C880 0.951 . S
H862 C882 0.950 . S
H863 C883 0.950 . S
H864 C885 0.950 . S
H865 C888 0.950 1_556 S
H866 C889 0.950 . S
H867 C891 0.950 . S
H868 C892 0.950 . S
H869 C893 0.951 . S
H870 C895 0.951 . S
H871 C897 0.950 . S
H872 C898 0.950 . S
H873 C900 0.950 . S
H874 C903 0.965 . S
H875 C904 0.950 1_554 S
H876 C906 0.950 . S
H877 C907 0.950 . S
C878 H860 0.951 . S
C878 C879 1.366 . S
C878 C880 1.388 . S
C879 C878 1.366 . S
C879 C883 1.385 1_554 S
C880 H861 0.951 . S
C880 C878 1.388 . S
C880 C881 1.366 . S
C881 C880 1.366 . S
C881 C882 1.414 1_554 S
C881 C884 1.499 . S
C882 H862 0.950 . S
C882 C881 1.414 1_556 S
C882 C883 1.374 . S
C883 H863 0.950 . S
C883 C879 1.385 1_556 S
C883 C882 1.374 . S
C884 C881 1.499 . S
C884 C885 1.373 1_554 S
C884 C886 1.389 . S
C885 H864 0.950 . S
C885 C884 1.373 1_556 S
C885 C901 1.377 . S
C886 C884 1.389 . S
C886 C887 1.524 . S
C886 C900 1.377 . S
C887 C886 1.524 . S
C887 C888 1.397 . S
C887 C892 1.363 . S
C888 H865 0.950 1_554 S
C888 C887 1.397 . S
C888 C889 1.334 . S
C889 H866 0.950 . S
C889 C888 1.334 . S
C889 C890 1.287 . S
C890 C889 1.287 . S
C890 C891 1.524 . S
C890 H909 0.913 . S
C891 H867 0.950 . S
C891 C890 1.524 . S
C891 C892 1.415 . S
C892 H868 0.950 . S
C892 C887 1.363 . S
C892 C891 1.415 . S
C893 H869 0.951 . S
C893 C894 1.366 1_556 S
C893 C895 1.388 . S
C894 C893 1.366 1_554 S
C894 C898 1.385 . S
C895 H870 0.951 . S
C895 C893 1.388 . S
C895 C896 1.366 1_556 S
C896 C895 1.366 1_554 S
C896 C897 1.414 . S
C896 C899 1.499 1_545 S
C897 H871 0.950 . S
C897 C896 1.414 . S
C897 C898 1.374 . S
C898 H872 0.950 . S
C898 C894 1.385 . S
C898 C897 1.374 . S
C899 C896 1.499 1_565 S
C899 C900 1.373 . S
C899 C901 1.389 1_554 S
C900 H873 0.950 . S
C900 C886 1.377 . S
C900 C899 1.373 . S
C901 C885 1.377 . S
C901 C899 1.389 1_556 S
C901 C902 1.524 . S
C902 C901 1.524 . S
C902 C903 1.388 1_566 S
C902 C907 1.363 . S
C903 H874 0.965 . S
C903 C902 1.388 1_544 S
C903 C904 1.332 1_554 S
C904 H875 0.950 1_556 S
C904 C903 1.332 1_556 S
C904 C905 1.287 . S
C905 C904 1.287 . S
C905 C906 1.524 1_545 S
C905 H908 0.999 . S
C906 H876 0.950 . S
C906 C905 1.524 1_565 S
C906 C907 1.415 . S
C907 H877 0.950 . S
C907 C902 1.363 . S
C907 C906 1.415 . S
H908 C905 0.999 . S
H909 C890 0.913 . S
H910 C928 0.951 1_556 S
H911 C930 0.951 1_556 S
H912 C932 0.950 . S
H913 C933 0.950 . S
H914 C935 0.950 . S
H915 C938 0.950 . S
H916 C939 0.950 . S
H917 C941 0.950 . S
H918 C942 0.950 . S
H919 C943 0.951 . S
H920 C945 0.951 . S
H921 C947 0.950 . S
H922 C948 0.950 1_545 S
H923 C950 0.950 . S
H924 C953 0.950 . S
H925 C954 0.950 . S
H926 C956 0.950 . S
H927 C957 0.950 . S
C928 H910 0.951 1_554 S
C928 C929 1.366 . S
C928 C930 1.388 1_655 S
C929 C928 1.366 . S
C929 C933 1.385 . S
C930 H911 0.951 1_554 S
C930 C928 1.388 1_455 S
C930 C931 1.366 . S
C931 C930 1.366 . S
C931 C932 1.414 . S
C931 C934 1.499 . S
C932 H912 0.950 . S
C932 C931 1.414 . S
C932 C933 1.374 1_455 S
C933 H913 0.950 . S
C933 C929 1.385 . S
C933 C932 1.374 1_655 S
C934 C931 1.499 . S
C934 C935 1.373 . S
C934 C936 1.389 1_554 S
C935 H914 0.950 . S
C935 C934 1.373 . S
C935 C951 1.377 . S
C936 C934 1.389 1_556 S
C936 C937 1.524 . S
C936 C950 1.377 . S
C937 C936 1.524 . S
C937 C938 1.397 . S
C937 C942 1.363 . S
C938 H915 0.950 . S
C938 C937 1.397 . S
C938 C939 1.334 . S
C939 H916 0.950 . S
C939 C938 1.334 . S
C939 C940 1.287 . S
C940 C939 1.287 . S
C940 C941 1.524 . S
C940 H959 0.913 . S
C941 H917 0.950 . S
C941 C940 1.524 . S
C941 C942 1.415 . S
C942 H918 0.950 . S
C942 C937 1.363 . S
C942 C941 1.415 . S
C943 H919 0.951 . S
C943 C944 1.366 . S
C943 C945 1.388 . S
C944 C943 1.366 . S
C944 C948 1.385 1_554 S
C945 H920 0.951 . S
C945 C943 1.388 . S
C945 C946 1.366 . S
C946 C945 1.366 . S
C946 C947 1.414 1_554 S
C946 C949 1.499 . S
C947 H921 0.950 . S
C947 C946 1.414 1_556 S
C947 C948 1.374 . S
C948 H922 0.950 1_565 S
C948 C944 1.385 1_556 S
C948 C947 1.374 . S
C949 C946 1.499 . S
C949 C950 1.373 1_554 S
C949 C951 1.389 . S
C950 H923 0.950 . S
C950 C936 1.377 . S
C950 C949 1.373 1_556 S
C951 C935 1.377 . S
C951 C949 1.389 . S
C951 C952 1.524 . S
C952 C951 1.524 . S
C952 C953 1.397 . S
C952 C957 1.363 . S
C953 H924 0.950 . S
C953 C952 1.397 . S
C953 C954 1.334 . S
C954 H925 0.950 . S
C954 C953 1.334 . S
C954 C955 1.287 . S
C955 C954 1.287 . S
C955 C956 1.524 . S
C955 H958 0.999 . S
C956 H926 0.950 . S
C956 C955 1.524 . S
C956 C957 1.415 . S
C957 H927 0.950 . S
C957 C952 1.363 . S
C957 C956 1.415 . S
H958 C955 0.999 . S
H959 C940 0.913 . S
H960 C978 0.951 . S
H961 C980 0.951 . S
H962 C982 0.950 . S
H963 C983 0.950 . S
H964 C985 0.950 . S
H965 C988 0.950 . S
H966 C989 0.950 . S
H967 C991 0.950 . S
H968 C992 0.950 . S
H969 C993 0.951 . S
H970 C995 0.951 . S
H971 C997 0.950 . S
H972 C998 0.950 . S
H973 C1000 0.950 . S
H974 C1003 0.950 . S
H975 C1004 0.950 . S
H976 C1006 0.950 . S
H977 C1007 0.950 . S
C978 H960 0.951 . S
C978 C979 1.366 . S
C978 C980 1.388 . S
C979 C978 1.366 . S
C979 C983 1.385 . S
C980 H961 0.951 . S
C980 C978 1.388 . S
C980 C981 1.366 . S
C981 C980 1.366 . S
C981 C982 1.414 . S
C981 C984 1.499 . S
C982 H962 0.950 . S
C982 C981 1.414 . S
C982 C983 1.374 . S
C983 H963 0.950 . S
C983 C979 1.385 . S
C983 C982 1.374 . S
C984 C981 1.499 . S
C984 C985 1.373 . S
C984 C986 1.389 . S
C985 H964 0.950 . S
C985 C984 1.373 . S
C985 C1001 1.377 . S
C986 C984 1.389 . S
C986 C987 1.524 . S
C986 C1000 1.377 . S
C987 C986 1.524 . S
C987 C988 1.397 . S
C987 C992 1.363 . S
C988 H965 0.950 . S
C988 C987 1.397 . S
C988 C989 1.334 . S
C989 H966 0.950 . S
C989 C988 1.334 . S
C989 C990 1.287 . S
C990 C989 1.287 . S
C990 C991 1.524 . S
C990 H1009 0.913 . S
C991 H967 0.950 . S
C991 C990 1.524 . S
C991 C992 1.415 . S
C992 H968 0.950 . S
C992 C987 1.363 . S
C992 C991 1.415 . S
C993 H969 0.951 . S
C993 C994 1.366 . S
C993 C995 1.388 . S
C994 C993 1.366 . S
C994 C998 1.385 . S
C995 H970 0.951 . S
C995 C993 1.388 . S
C995 C996 1.366 . S
C996 C995 1.366 . S
C996 C997 1.414 . S
C996 C999 1.499 . S
C997 H971 0.950 . S
C997 C996 1.414 . S
C997 C998 1.374 . S
C998 H972 0.950 . S
C998 C994 1.385 . S
C998 C997 1.374 . S
C999 C996 1.499 . S
C999 C1000 1.373 . S
C999 C1001 1.389 . S
C1000 H973 0.950 . S
C1000 C986 1.377 . S
C1000 C999 1.373 . S
C1001 C985 1.377 . S
C1001 C999 1.389 . S
C1001 C1002 1.524 . S
C1002 C1001 1.524 . S
C1002 C1003 1.397 . S
C1002 C1007 1.363 . S
C1003 H974 0.950 . S
C1003 C1002 1.397 . S
C1003 C1004 1.334 . S
C1004 H975 0.950 . S
C1004 C1003 1.334 . S
C1004 C1005 1.287 . S
C1005 C1004 1.287 . S
C1005 C1006 1.524 . S
C1005 H1008 0.999 . S
C1006 H976 0.950 . S
C1006 C1005 1.524 . S
C1006 C1007 1.415 . S
C1007 H977 0.950 . S
C1007 C1002 1.363 . S
C1007 C1006 1.415 . S
H1008 C1005 0.999 . S
H1009 C990 0.913 . S
H1010 C1028 0.951 . S
H1011 C1030 0.951 . S
H1012 C1032 0.950 . S
H1013 C1033 0.950 . S
H1014 C1035 0.950 . S
H1015 C1038 0.950 . S
H1016 C1039 0.950 . S
H1017 C1041 0.950 . S
H1018 C1042 0.950 . S
H1019 C1043 0.951 . S
H1020 C1045 0.951 . S
H1021 C1047 0.950 . S
H1022 C1048 0.950 . S
H1023 C1050 0.950 . S
H1024 C1053 0.950 . S
H1025 C1054 0.950 . S
H1026 C1056 0.950 . S
H1027 C1057 0.950 . S
C1028 H1010 0.951 . S
C1028 C1029 1.366 . S
C1028 C1030 1.388 . S
C1029 C1028 1.366 . S
C1029 C1033 1.385 . S
C1030 H1011 0.951 . S
C1030 C1028 1.388 . S
C1030 C1031 1.366 . S
C1031 C1030 1.366 . S
C1031 C1032 1.414 . S
C1031 C1034 1.499 . S
C1032 H1012 0.950 . S
C1032 C1031 1.414 . S
C1032 C1033 1.374 . S
C1033 H1013 0.950 . S
C1033 C1029 1.385 . S
C1033 C1032 1.374 . S
C1034 C1031 1.499 . S
C1034 C1035 1.373 . S
C1034 C1036 1.389 . S
C1035 H1014 0.950 . S
C1035 C1034 1.373 . S
C1035 C1051 1.377 . S
C1036 C1034 1.389 . S
C1036 C1037 1.524 . S
C1036 C1050 1.377 . S
C1037 C1036 1.524 . S
C1037 C1038 1.397 . S
C1037 C1042 1.363 . S
C1038 H1015 0.950 . S
C1038 C1037 1.397 . S
C1038 C1039 1.334 . S
C1039 H1016 0.950 . S
C1039 C1038 1.334 . S
C1039 C1040 1.287 . S
C1040 C1039 1.287 . S
C1040 C1041 1.524 . S
C1040 H1059 0.913 . S
C1041 H1017 0.950 . S
C1041 C1040 1.524 . S
C1041 C1042 1.415 . S
C1042 H1018 0.950 . S
C1042 C1037 1.363 . S
C1042 C1041 1.415 . S
C1043 H1019 0.951 . S
C1043 C1044 1.366 . S
C1043 C1045 1.388 . S
C1044 C1043 1.366 . S
C1044 C1048 1.385 . S
C1045 H1020 0.951 . S
C1045 C1043 1.388 . S
C1045 C1046 1.366 . S
C1046 C1045 1.366 . S
C1046 C1047 1.414 . S
C1046 C1049 1.499 . S
C1047 H1021 0.950 . S
C1047 C1046 1.414 . S
C1047 C1048 1.374 . S
C1048 H1022 0.950 . S
C1048 C1044 1.385 . S
C1048 C1047 1.374 . S
C1049 C1046 1.499 . S
C1049 C1050 1.373 . S
C1049 C1051 1.389 . S
C1050 H1023 0.950 . S
C1050 C1036 1.377 . S
C1050 C1049 1.373 . S
C1051 C1035 1.377 . S
C1051 C1049 1.389 . S
C1051 C1052 1.524 . S
C1052 C1051 1.524 . S
C1052 C1053 1.397 . S
C1052 C1057 1.363 . S
C1053 H1024 0.950 . S
C1053 C1052 1.397 . S
C1053 C1054 1.334 . S
C1054 H1025 0.950 . S
C1054 C1053 1.334 . S
C1054 C1055 1.287 . S
C1055 C1054 1.287 . S
C1055 C1056 1.524 . S
C1055 H1058 0.999 . S
C1056 H1026 0.950 . S
C1056 C1055 1.524 . S
C1056 C1057 1.415 . S
C1057 H1027 0.950 . S
C1057 C1052 1.363 . S
C1057 C1056 1.415 . S
H1058 C1055 0.999 . S
H1059 C1040 0.913 . S
H1060 C1078 0.951 . S
H1061 C1080 0.951 . S
H1062 C1082 0.950 . S
H1063 C1083 0.950 . S
H1064 C1085 0.950 . S
H1065 C1088 0.950 . S
H1066 C1089 0.950 . S
H1067 C1091 0.950 . S
H1068 C1092 0.950 . S
H1069 C1093 0.951 . S
H1070 C1095 0.951 . S
H1071 C1097 0.950 . S
H1072 C1098 0.950 . S
H1073 C1100 0.950 . S
H1074 C1103 0.950 . S
H1075 C1104 0.950 . S
H1076 C1106 0.950 . S
H1077 C1107 0.950 . S
C1078 H1060 0.951 . S
C1078 C1079 1.366 . S
C1078 C1080 1.388 . S
C1079 C1078 1.366 . S
C1079 C1083 1.385 . S
C1080 H1061 0.951 . S
C1080 C1078 1.388 . S
C1080 C1081 1.366 . S
C1081 C1080 1.366 . S
C1081 C1082 1.414 . S
C1081 C1084 1.499 . S
C1082 H1062 0.950 . S
C1082 C1081 1.414 . S
C1082 C1083 1.374 . S
C1083 H1063 0.950 . S
C1083 C1079 1.385 . S
C1083 C1082 1.374 . S
C1084 C1081 1.499 . S
C1084 C1085 1.373 . S
C1084 C1086 1.389 . S
C1085 H1064 0.950 . S
C1085 C1084 1.373 . S
C1085 C1101 1.377 . S
C1086 C1084 1.389 . S
C1086 C1087 1.524 . S
C1086 C1100 1.377 . S
C1087 C1086 1.524 . S
C1087 C1088 1.397 . S
C1087 C1092 1.363 . S
C1088 H1065 0.950 . S
C1088 C1087 1.397 . S
C1088 C1089 1.334 . S
C1089 H1066 0.950 . S
C1089 C1088 1.334 . S
C1089 C1090 1.287 . S
C1090 C1089 1.287 . S
C1090 C1091 1.524 . S
C1090 H1109 0.913 . S
C1091 H1067 0.950 . S
C1091 C1090 1.524 . S
C1091 C1092 1.415 . S
C1092 H1068 0.950 . S
C1092 C1087 1.363 . S
C1092 C1091 1.415 . S
C1093 H1069 0.951 . S
C1093 C1094 1.366 . S
C1093 C1095 1.388 . S
C1094 C1093 1.366 . S
C1094 C1098 1.385 . S
C1095 H1070 0.951 . S
C1095 C1093 1.388 . S
C1095 C1096 1.366 . S
C1096 C1095 1.366 . S
C1096 C1097 1.414 . S
C1096 C1099 1.499 . S
C1097 H1071 0.950 . S
C1097 C1096 1.414 . S
C1097 C1098 1.374 . S
C1098 H1072 0.950 . S
C1098 C1094 1.385 . S
C1098 C1097 1.374 . S
C1099 C1096 1.499 . S
C1099 C1100 1.373 . S
C1099 C1101 1.389 . S
C1100 H1073 0.950 . S
C1100 C1086 1.377 . S
C1100 C1099 1.373 . S
C1101 C1085 1.377 . S
C1101 C1099 1.389 . S
C1101 C1102 1.524 . S
C1102 C1101 1.524 . S
C1102 C1103 1.397 . S
C1102 C1107 1.363 . S
C1103 H1074 0.950 . S
C1103 C1102 1.397 . S
C1103 C1104 1.334 . S
C1104 H1075 0.950 . S
C1104 C1103 1.334 . S
C1104 C1105 1.287 . S
C1105 C1104 1.287 . S
C1105 C1106 1.524 . S
C1105 H1108 0.999 . S
C1106 H1076 0.950 . S
C1106 C1105 1.524 . S
C1106 C1107 1.415 . S
C1107 H1077 0.950 . S
C1107 C1102 1.363 . S
C1107 C1106 1.415 . S
H1108 C1105 0.999 . S
H1109 C1090 0.913 . S
H1110 C1128 0.951 . S
H1111 C1130 0.951 . S
H1112 C1132 0.950 . S
H1113 C1133 0.950 . S
H1114 C1135 0.950 . S
H1115 C1138 0.950 . S
H1116 C1139 0.950 . S
H1117 C1141 0.950 1_554 S
H1118 C1142 0.950 . S
H1119 C1143 0.951 . S
H1120 C1145 0.951 . S
H1121 C1147 0.950 . S
H1122 C1148 0.950 . S
H1123 C1150 0.950 . S
H1124 C1153 0.950 . S
H1125 C1154 0.950 . S
H1126 C1156 0.950 . S
H1127 C1157 0.950 . S
C1128 H1110 0.951 . S
C1128 C1129 1.366 . S
C1128 C1130 1.388 . S
C1129 C1128 1.366 . S
C1129 C1133 1.385 . S
C1130 H1111 0.951 . S
C1130 C1128 1.388 . S
C1130 C1131 1.366 . S
C1131 C1130 1.366 . S
C1131 C1132 1.414 . S
C1131 C1134 1.499 . S
C1132 H1112 0.950 . S
C1132 C1131 1.414 . S
C1132 C1133 1.374 . S
C1133 H1113 0.950 . S
C1133 C1129 1.385 . S
C1133 C1132 1.374 . S
C1134 C1131 1.499 . S
C1134 C1135 1.373 . S
C1134 C1136 1.389 . S
C1135 H1114 0.950 . S
C1135 C1134 1.373 . S
C1135 C1151 1.377 . S
C1136 C1134 1.389 . S
C1136 C1137 1.524 . S
C1136 C1150 1.377 . S
C1137 C1136 1.524 . S
C1137 C1138 1.397 . S
C1137 C1142 1.363 . S
C1138 H1115 0.950 . S
C1138 C1137 1.397 . S
C1138 C1139 1.334 . S
C1139 H1116 0.950 . S
C1139 C1138 1.334 . S
C1139 C1140 1.287 . S
C1140 C1139 1.287 . S
C1140 C1141 1.524 . S
C1140 H1159 0.913 1_556 S
C1141 H1117 0.950 1_556 S
C1141 C1140 1.524 . S
C1141 C1142 1.415 . S
C1142 H1118 0.950 . S
C1142 C1137 1.363 . S
C1142 C1141 1.415 . S
C1143 H1119 0.951 . S
C1143 C1144 1.366 . S
C1143 C1145 1.388 . S
C1144 C1143 1.366 . S
C1144 C1148 1.385 . S
C1145 H1120 0.951 . S
C1145 C1143 1.388 . S
C1145 C1146 1.366 . S
C1146 C1145 1.366 . S
C1146 C1147 1.414 . S
C1146 C1149 1.499 . S
C1147 H1121 0.950 . S
C1147 C1146 1.414 . S
C1147 C1148 1.374 . S
C1148 H1122 0.950 . S
C1148 C1144 1.385 . S
C1148 C1147 1.374 . S
C1149 C1146 1.499 . S
C1149 C1150 1.373 . S
C1149 C1151 1.389 . S
C1150 H1123 0.950 . S
C1150 C1136 1.377 . S
C1150 C1149 1.373 . S
C1151 C1135 1.377 . S
C1151 C1149 1.389 . S
C1151 C1152 1.524 . S
C1152 C1151 1.524 . S
C1152 C1153 1.397 . S
C1152 C1157 1.363 . S
C1153 H1124 0.950 . S
C1153 C1152 1.397 . S
C1153 C1154 1.334 . S
C1154 H1125 0.950 . S
C1154 C1153 1.334 . S
C1154 C1155 1.287 . S
C1155 C1154 1.287 . S
C1155 C1156 1.524 . S
C1155 H1158 0.999 . S
C1156 H1126 0.950 . S
C1156 C1155 1.524 . S
C1156 C1157 1.415 . S
C1157 H1127 0.950 . S
C1157 C1152 1.363 . S
C1157 C1156 1.415 . S
H1158 C1155 0.999 . S
H1159 C1140 0.913 1_554 S
H1160 C1178 0.951 . S
H1161 C1180 0.951 . S
H1162 C1182 0.950 . S
H1163 C1183 0.950 . S
H1164 C1185 0.950 . S
H1165 C1188 0.950 . S
H1166 C1189 0.950 . S
H1167 C1191 0.950 . S
H1168 C1192 0.950 . S
H1169 C1193 0.951 . S
H1170 C1195 0.951 . S
H1171 C1197 0.950 . S
H1172 C1198 0.950 . S
H1173 C1200 0.950 . S
H1174 C1203 0.950 . S
H1175 C1204 0.950 . S
H1176 C1206 0.950 . S
H1177 C1207 0.950 . S
C1178 H1160 0.951 . S
C1178 C1179 1.366 . S
C1178 C1180 1.388 . S
C1179 C1178 1.366 . S
C1179 C1183 1.385 . S
C1180 H1161 0.951 . S
C1180 C1178 1.388 . S
C1180 C1181 1.366 . S
C1181 C1180 1.366 . S
C1181 C1182 1.414 . S
C1181 C1184 1.499 . S
C1182 H1162 0.950 . S
C1182 C1181 1.414 . S
C1182 C1183 1.374 . S
C1183 H1163 0.950 . S
C1183 C1179 1.385 . S
C1183 C1182 1.374 . S
C1184 C1181 1.499 . S
C1184 C1185 1.373 . S
C1184 C1186 1.389 . S
C1185 H1164 0.950 . S
C1185 C1184 1.373 . S
C1185 C1201 1.377 . S
C1186 C1184 1.389 . S
C1186 C1187 1.524 . S
C1186 C1200 1.377 . S
C1187 C1186 1.524 . S
C1187 C1188 1.397 . S
C1187 C1192 1.363 . S
C1188 H1165 0.950 . S
C1188 C1187 1.397 . S
C1188 C1189 1.334 . S
C1189 H1166 0.950 . S
C1189 C1188 1.334 . S
C1189 C1190 1.287 . S
C1190 C1189 1.287 . S
C1190 C1191 1.524 . S
C1190 H1209 0.913 . S
C1191 H1167 0.950 . S
C1191 C1190 1.524 . S
C1191 C1192 1.415 . S
C1192 H1168 0.950 . S
C1192 C1187 1.363 . S
C1192 C1191 1.415 . S
C1193 H1169 0.951 . S
C1193 C1194 1.366 . S
C1193 C1195 1.388 . S
C1194 C1193 1.366 . S
C1194 C1198 1.385 . S
C1195 H1170 0.951 . S
C1195 C1193 1.388 . S
C1195 C1196 1.366 . S
C1196 C1195 1.366 . S
C1196 C1197 1.414 . S
C1196 C1199 1.499 . S
C1197 H1171 0.950 . S
C1197 C1196 1.414 . S
C1197 C1198 1.374 . S
C1198 H1172 0.950 . S
C1198 C1194 1.385 . S
C1198 C1197 1.374 . S
C1199 C1196 1.499 . S
C1199 C1200 1.373 . S
C1199 C1201 1.389 . S
C1200 H1173 0.950 . S
C1200 C1186 1.377 . S
C1200 C1199 1.373 . S
C1201 C1185 1.377 . S
C1201 C1199 1.389 . S
C1201 C1202 1.524 . S
C1202 C1201 1.524 . S
C1202 C1203 1.397 . S
C1202 C1207 1.363 . S
C1203 H1174 0.950 . S
C1203 C1202 1.397 . S
C1203 C1204 1.334 . S
C1204 H1175 0.950 . S
C1204 C1203 1.334 . S
C1204 C1205 1.287 . S
C1205 C1204 1.287 . S
C1205 C1206 1.524 . S
C1205 H1208 0.999 . S
C1206 H1176 0.950 . S
C1206 C1205 1.524 . S
C1206 C1207 1.415 . S
C1207 H1177 0.950 . S
C1207 C1202 1.363 . S
C1207 C1206 1.415 . S
H1208 C1205 0.999 . S
H1209 C1190 0.913 . S
H1210 C1228 0.951 . S
H1211 C1230 0.951 . S
H1212 C1232 0.950 . S
H1213 C1233 0.950 . S
H1214 C1235 0.950 . S
H1215 C1238 0.950 . S
H1216 C1239 0.950 . S
H1217 C1241 0.950 . S
H1218 C1242 0.950 . S
H1219 C1243 0.951 . S
H1220 C1245 0.951 . S
H1221 C1247 0.950 . S
H1222 C1248 0.950 . S
H1223 C1250 0.950 . S
H1224 C1253 0.950 . S
H1225 C1254 0.950 . S
H1226 C1256 0.950 . S
H1227 C1257 0.950 . S
C1228 H1210 0.951 . S
C1228 C1229 1.366 . S
C1228 C1230 1.388 . S
C1229 C1228 1.366 . S
C1229 C1233 1.385 . S
C1230 H1211 0.951 . S
C1230 C1228 1.388 . S
C1230 C1231 1.366 . S
C1231 C1230 1.366 . S
C1231 C1232 1.414 . S
C1231 C1234 1.499 . S
C1232 H1212 0.950 . S
C1232 C1231 1.414 . S
C1232 C1233 1.374 . S
C1233 H1213 0.950 . S
C1233 C1229 1.385 . S
C1233 C1232 1.374 . S
C1234 C1231 1.499 . S
C1234 C1235 1.373 . S
C1234 C1236 1.389 . S
C1235 H1214 0.950 . S
C1235 C1234 1.373 . S
C1235 C1251 1.377 . S
C1236 C1234 1.389 . S
C1236 C1237 1.524 . S
C1236 C1250 1.377 . S
C1237 C1236 1.524 . S
C1237 C1238 1.397 . S
C1237 C1242 1.363 . S
C1238 H1215 0.950 . S
C1238 C1237 1.397 . S
C1238 C1239 1.334 . S
C1239 H1216 0.950 . S
C1239 C1238 1.334 . S
C1239 C1240 1.287 . S
C1240 C1239 1.287 . S
C1240 C1241 1.524 . S
C1240 H1259 0.913 . S
C1241 H1217 0.950 . S
C1241 C1240 1.524 . S
C1241 C1242 1.415 . S
C1242 H1218 0.950 . S
C1242 C1237 1.363 . S
C1242 C1241 1.415 . S
C1243 H1219 0.951 . S
C1243 C1244 1.366 . S
C1243 C1245 1.388 . S
C1244 C1243 1.366 . S
C1244 C1248 1.385 . S
C1245 H1220 0.951 . S
C1245 C1243 1.388 . S
C1245 C1246 1.366 . S
C1246 C1245 1.366 . S
C1246 C1247 1.414 . S
C1246 C1249 1.499 . S
C1247 H1221 0.950 . S
C1247 C1246 1.414 . S
C1247 C1248 1.374 . S
C1248 H1222 0.950 . S
C1248 C1244 1.385 . S
C1248 C1247 1.374 . S
C1249 C1246 1.499 . S
C1249 C1250 1.373 . S
C1249 C1251 1.389 . S
C1250 H1223 0.950 . S
C1250 C1236 1.377 . S
C1250 C1249 1.373 . S
C1251 C1235 1.377 . S
C1251 C1249 1.389 . S
C1251 C1252 1.524 . S
C1252 C1251 1.524 . S
C1252 C1253 1.397 . S
C1252 C1257 1.363 . S
C1253 H1224 0.950 . S
C1253 C1252 1.397 . S
C1253 C1254 1.334 . S
C1254 H1225 0.950 . S
C1254 C1253 1.334 . S
C1254 C1255 1.287 . S
C1255 C1254 1.287 . S
C1255 C1256 1.524 . S
C1255 H1258 0.999 . S
C1256 H1226 0.950 . S
C1256 C1255 1.524 . S
C1256 C1257 1.415 . S
C1257 H1227 0.950 . S
C1257 C1252 1.363 . S
C1257 C1256 1.415 . S
H1258 C1255 0.999 . S
H1259 C1240 0.913 . S
H1260 C1278 0.951 . S
H1261 C1280 0.951 . S
H1262 C1282 0.950 . S
H1263 C1283 0.950 . S
H1264 C1285 0.950 1_655 S
H1265 C1288 0.950 . S
H1266 C1289 0.950 . S
H1267 C1291 0.950 . S
H1268 C1292 0.950 . S
H1269 C1293 0.951 . S
H1270 C1295 0.951 . S
H1271 C1297 0.950 . S
H1272 C1298 0.950 . S
H1273 C1300 0.950 . S
H1274 C1303 0.950 . S
H1275 C1304 0.950 . S
H1276 C1306 0.950 . S
H1277 C1307 0.979 . S
C1278 H1260 0.951 . S
C1278 C1279 1.366 . S
C1278 C1280 1.388 . S
C1279 C1278 1.366 . S
C1279 C1283 1.385 . S
C1280 H1261 0.951 . S
C1280 C1278 1.388 . S
C1280 C1281 1.366 . S
C1281 C1280 1.366 . S
C1281 C1282 1.414 . S
C1281 C1284 1.499 . S
C1282 H1262 0.950 . S
C1282 C1281 1.414 . S
C1282 C1283 1.374 . S
C1283 H1263 0.950 . S
C1283 C1279 1.385 . S
C1283 C1282 1.374 . S
C1284 C1281 1.499 . S
C1284 C1285 1.373 . S
C1284 C1286 1.389 . S
C1285 H1264 0.950 1_455 S
C1285 C1284 1.373 . S
C1285 C1301 1.377 . S
C1286 C1284 1.389 . S
C1286 C1287 1.524 . S
C1286 C1300 1.377 . S
C1287 C1286 1.524 . S
C1287 C1288 1.397 . S
C1287 C1292 1.363 . S
C1288 H1265 0.950 . S
C1288 C1287 1.397 . S
C1288 C1289 1.334 . S
C1289 H1266 0.950 . S
C1289 C1288 1.334 . S
C1289 C1290 1.287 . S
C1290 C1289 1.287 . S
C1290 C1291 1.524 . S
C1290 H1309 0.913 . S
C1291 H1267 0.950 . S
C1291 C1290 1.524 . S
C1291 C1292 1.415 . S
C1292 H1268 0.950 . S
C1292 C1287 1.363 . S
C1292 C1291 1.415 . S
C1293 H1269 0.951 . S
C1293 C1294 1.366 . S
C1293 C1295 1.388 . S
C1294 C1293 1.366 . S
C1294 C1298 1.385 . S
C1295 H1270 0.951 . S
C1295 C1293 1.388 . S
C1295 C1296 1.366 . S
C1296 C1295 1.366 . S
C1296 C1297 1.414 . S
C1296 C1299 1.499 . S
C1297 H1271 0.950 . S
C1297 C1296 1.414 . S
C1297 C1298 1.374 . S
C1298 H1272 0.950 . S
C1298 C1294 1.385 . S
C1298 C1297 1.374 . S
C1299 C1296 1.499 . S
C1299 C1300 1.373 . S
C1299 C1301 1.389 . S
C1300 H1273 0.950 . S
C1300 C1286 1.377 . S
C1300 C1299 1.373 . S
C1301 C1285 1.377 . S
C1301 C1299 1.389 . S
C1301 C1302 1.524 1_455 S
C1302 C1301 1.524 1_655 S
C1302 C1303 1.397 . S
C1302 C1307 1.363 . S
C1303 H1274 0.950 . S
C1303 C1302 1.397 . S
C1303 C1304 1.334 . S
C1304 H1275 0.950 . S
C1304 C1303 1.334 . S
C1304 C1305 1.287 . S
C1305 C1304 1.287 . S
C1305 C1306 1.524 . S
C1305 H1308 0.999 . S
C1306 H1276 0.950 . S
C1306 C1305 1.524 . S
C1306 C1307 1.415 . S
C1307 H1277 0.979 . S
C1307 C1302 1.363 . S
C1307 C1306 1.415 . S
H1308 C1305 0.999 . S
H1309 C1290 0.913 . S
H1310 C1328 0.951 . S
H1311 C1330 0.951 . S
H1312 C1332 0.950 . S
H1313 C1333 0.950 . S
H1314 C1335 0.950 . S
H1315 C1338 0.950 . S
H1316 C1339 0.950 . S
H1317 C1341 0.950 . S
H1318 C1342 0.950 . S
H1319 C1343 0.951 . S
H1320 C1345 0.951 . S
H1321 C1347 0.950 . S
H1322 C1348 0.950 . S
H1323 C1350 0.950 . S
H1324 C1353 0.950 . S
H1325 C1354 0.950 . S
H1326 C1356 0.950 . S
H1327 C1357 0.950 . S
C1328 H1310 0.951 . S
C1328 C1329 1.366 . S
C1328 C1330 1.388 . S
C1329 C1328 1.366 . S
C1329 C1333 1.385 . S
C1330 H1311 0.951 . S
C1330 C1328 1.388 . S
C1330 C1331 1.366 . S
C1331 C1330 1.366 . S
C1331 C1332 1.414 . S
C1331 C1334 1.499 . S
C1332 H1312 0.950 . S
C1332 C1331 1.414 . S
C1332 C1333 1.374 . S
C1333 H1313 0.950 . S
C1333 C1329 1.385 . S
C1333 C1332 1.374 . S
C1334 C1331 1.499 . S
C1334 C1335 1.373 . S
C1334 C1336 1.389 . S
C1335 H1314 0.950 . S
C1335 C1334 1.373 . S
C1335 C1351 1.377 . S
C1336 C1334 1.389 . S
C1336 C1337 1.524 . S
C1336 C1350 1.377 . S
C1337 C1336 1.524 . S
C1337 C1338 1.397 . S
C1337 C1342 1.363 . S
C1338 H1315 0.950 . S
C1338 C1337 1.397 . S
C1338 C1339 1.334 . S
C1339 H1316 0.950 . S
C1339 C1338 1.334 . S
C1339 C1340 1.287 . S
C1340 C1339 1.287 . S
C1340 C1341 1.524 . S
C1340 H1359 0.913 . S
C1341 H1317 0.950 . S
C1341 C1340 1.524 . S
C1341 C1342 1.415 . S
C1342 H1318 0.950 . S
C1342 C1337 1.363 . S
C1342 C1341 1.415 . S
C1343 H1319 0.951 . S
C1343 C1344 1.366 . S
C1343 C1345 1.388 . S
C1344 C1343 1.366 . S
C1344 C1348 1.385 . S
C1345 H1320 0.951 . S
C1345 C1343 1.388 . S
C1345 C1346 1.366 . S
C1346 C1345 1.366 . S
C1346 C1347 1.414 . S
C1346 C1349 1.499 . S
C1347 H1321 0.950 . S
C1347 C1346 1.414 . S
C1347 C1348 1.374 . S
C1348 H1322 0.950 . S
C1348 C1344 1.385 . S
C1348 C1347 1.374 . S
C1349 C1346 1.499 . S
C1349 C1350 1.373 . S
C1349 C1351 1.389 . S
C1350 H1323 0.950 . S
C1350 C1336 1.377 . S
C1350 C1349 1.373 . S
C1351 C1335 1.377 . S
C1351 C1349 1.389 . S
C1351 C1352 1.524 . S
C1352 C1351 1.524 . S
C1352 C1353 1.397 . S
C1352 C1357 1.363 . S
C1353 H1324 0.950 . S
C1353 C1352 1.397 . S
C1353 C1354 1.334 . S
C1354 H1325 0.950 . S
C1354 C1353 1.334 . S
C1354 C1355 1.287 . S
C1355 C1354 1.287 . S
C1355 C1356 1.524 . S
C1355 H1358 0.999 . S
C1356 H1326 0.950 . S
C1356 C1355 1.524 . S
C1356 C1357 1.415 . S
C1357 H1327 0.950 . S
C1357 C1352 1.363 . S
C1357 C1356 1.415 . S
H1358 C1355 0.999 . S
H1359 C1340 0.913 . S
H1360 C1378 0.951 . S
H1361 C1380 0.951 . S
H1362 C1382 0.950 1_565 S
H1363 C1383 0.946 1_565 S
H1364 C1385 0.950 . S
H1365 C1388 0.950 . S
H1366 C1389 0.950 . S
H1367 C1391 0.950 . S
H1368 C1392 0.950 . S
H1369 C1393 0.951 1_565 S
H1370 C1395 0.951 1_565 S
H1371 C1397 0.950 . S
H1372 C1398 0.950 . S
H1373 C1400 0.950 . S
H1374 C1403 0.950 . S
H1375 C1404 0.950 . S
H1376 C1406 0.950 . S
H1377 C1407 0.950 . S
C1378 H1360 0.951 . S
C1378 C1379 1.366 . S
C1378 C1380 1.388 . S
C1379 C1378 1.366 . S
C1379 C1383 1.385 . S
C1380 H1361 0.951 . S
C1380 C1378 1.388 . S
C1380 C1381 1.366 . S
C1381 C1380 1.366 . S
C1381 C1382 1.414 . S
C1381 C1384 1.499 . S
C1382 H1362 0.950 1_545 S
C1382 C1381 1.414 . S
C1382 C1383 1.374 . S
C1383 H1363 0.946 1_545 S
C1383 C1379 1.385 . S
C1383 C1382 1.374 . S
C1384 C1381 1.499 . S
C1384 C1385 1.373 1_545 S
C1384 C1386 1.389 . S
C1385 H1364 0.950 . S
C1385 C1384 1.373 1_565 S
C1385 C1401 1.377 . S
C1386 C1384 1.389 . S
C1386 C1387 1.524 . S
C1386 C1400 1.377 . S
C1387 C1386 1.524 . S
C1387 C1388 1.397 . S
C1387 C1392 1.363 . S
C1388 H1365 0.950 . S
C1388 C1387 1.397 . S
C1388 C1389 1.334 . S
C1389 H1366 0.950 . S
C1389 C1388 1.334 . S
C1389 C1390 1.287 . S
C1390 C1389 1.287 . S
C1390 C1391 1.524 . S
C1390 H1409 0.913 . S
C1391 H1367 0.950 . S
C1391 C1390 1.524 . S
C1391 C1392 1.415 . S
C1392 H1368 0.950 . S
C1392 C1387 1.363 . S
C1392 C1391 1.415 . S
C1393 H1369 0.951 1_545 S
C1393 C1394 1.366 . S
C1393 C1395 1.388 . S
C1394 C1393 1.366 . S
C1394 C1398 1.385 . S
C1395 H1370 0.951 1_545 S
C1395 C1393 1.388 . S
C1395 C1396 1.366 . S
C1396 C1395 1.366 . S
C1396 C1397 1.414 . S
C1396 C1399 1.499 . S
C1397 H1371 0.950 . S
C1397 C1396 1.414 . S
C1397 C1398 1.374 . S
C1398 H1372 0.950 . S
C1398 C1394 1.385 . S
C1398 C1397 1.374 . S
C1399 C1396 1.499 . S
C1399 C1400 1.373 . S
C1399 C1401 1.389 1_545 S
C1400 H1373 0.950 . S
C1400 C1386 1.377 . S
C1400 C1399 1.373 . S
C1401 C1385 1.377 . S
C1401 C1399 1.389 1_565 S
C1401 C1402 1.524 . S
C1402 C1401 1.524 . S
C1402 C1403 1.397 . S
C1402 C1407 1.363 . S
C1403 H1374 0.950 . S
C1403 C1402 1.397 . S
C1403 C1404 1.334 . S
C1404 H1375 0.950 . S
C1404 C1403 1.334 . S
C1404 C1405 1.287 . S
C1405 C1404 1.287 . S
C1405 C1406 1.524 . S
C1405 H1408 0.999 . S
C1406 H1376 0.950 . S
C1406 C1405 1.524 . S
C1406 C1407 1.415 . S
C1407 H1377 0.950 . S
C1407 C1402 1.363 . S
C1407 C1406 1.415 . S
H1408 C1405 0.999 . S
H1409 C1390 0.913 . S
H1410 C1428 0.951 . S
H1411 C1430 0.951 . S
H1412 C1432 0.950 . S
H1413 C1433 0.950 . S
H1414 C1435 0.950 . S
H1415 C1438 0.950 . S
H1416 C1439 0.950 . S
H1417 C1441 0.950 . S
H1418 C1442 0.950 . S
H1419 C1443 0.951 . S
H1420 C1445 0.951 . S
H1421 C1447 0.950 . S
H1422 C1448 0.950 . S
H1423 C1450 0.950 . S
H1424 C1453 0.950 . S
H1425 C1454 0.950 1_554 S
H1426 C1456 0.950 . S
H1427 C1457 0.950 . S
C1428 H1410 0.951 . S
C1428 C1429 1.366 . S
C1428 C1430 1.388 . S
C1429 C1428 1.366 . S
C1429 C1433 1.385 . S
C1430 H1411 0.951 . S
C1430 C1428 1.388 . S
C1430 C1431 1.366 . S
C1431 C1430 1.366 . S
C1431 C1432 1.414 . S
C1431 C1434 1.499 . S
C1432 H1412 0.950 . S
C1432 C1431 1.414 . S
C1432 C1433 1.374 . S
C1433 H1413 0.950 . S
C1433 C1429 1.385 . S
C1433 C1432 1.374 . S
C1434 C1431 1.499 . S
C1434 C1435 1.373 . S
C1434 C1436 1.389 . S
C1435 H1414 0.950 . S
C1435 C1434 1.373 . S
C1435 C1451 1.377 . S
C1436 C1434 1.389 . S
C1436 C1437 1.524 . S
C1436 C1450 1.377 . S
C1437 C1436 1.524 . S
C1437 C1438 1.397 . S
C1437 C1442 1.363 . S
C1438 H1415 0.950 . S
C1438 C1437 1.397 . S
C1438 C1439 1.334 . S
C1439 H1416 0.950 . S
C1439 C1438 1.334 . S
C1439 C1440 1.287 . S
C1440 C1439 1.287 . S
C1440 C1441 1.524 . S
C1440 H1459 0.913 . S
C1441 H1417 0.950 . S
C1441 C1440 1.524 . S
C1441 C1442 1.415 . S
C1442 H1418 0.950 . S
C1442 C1437 1.363 . S
C1442 C1441 1.415 . S
C1443 H1419 0.951 . S
C1443 C1444 1.366 . S
C1443 C1445 1.388 . S
C1444 C1443 1.366 . S
C1444 C1448 1.385 . S
C1445 H1420 0.951 . S
C1445 C1443 1.388 . S
C1445 C1446 1.365 1_554 S
C1446 C1445 1.365 1_556 S
C1446 C1447 1.413 1_556 S
C1446 C1449 1.501 . S
C1447 H1421 0.950 . S
C1447 C1446 1.413 1_554 S
C1447 C1448 1.374 . S
C1448 H1422 0.950 . S
C1448 C1444 1.385 . S
C1448 C1447 1.374 . S
C1449 C1446 1.501 . S
C1449 C1450 1.373 . S
C1449 C1451 1.389 . S
C1450 H1423 0.950 . S
C1450 C1436 1.377 . S
C1450 C1449 1.373 . S
C1451 C1435 1.377 . S
C1451 C1449 1.389 . S
C1451 C1452 1.524 . S
C1452 C1451 1.524 . S
C1452 C1453 1.397 . S
C1452 C1457 1.363 . S
C1453 H1424 0.950 . S
C1453 C1452 1.397 . S
C1453 C1454 1.334 . S
C1454 H1425 0.950 1_556 S
C1454 C1453 1.334 . S
C1454 C1455 1.287 . S
C1455 C1454 1.287 . S
C1455 C1456 1.524 . S
C1455 H1458 0.999 . S
C1456 H1426 0.950 . S
C1456 C1455 1.524 . S
C1456 C1457 1.415 . S
C1457 H1427 0.950 . S
C1457 C1452 1.363 . S
C1457 C1456 1.415 . S
H1458 C1455 0.999 . S
H1459 C1440 0.913 . S
H1460 C1478 0.951 . S
H1461 C1480 0.951 . S
H1462 C1482 0.950 . S
H1463 C1483 0.950 . S
H1464 C1485 0.950 . S
H1465 C1488 0.950 . S
H1466 C1489 0.950 . S
H1467 C1491 0.950 . S
H1468 C1492 0.950 . S
H1469 C1493 0.951 . S
H1470 C1495 0.951 . S
H1471 C1497 0.950 . S
H1472 C1498 0.950 . S
H1473 C1500 0.950 . S
H1474 C1503 0.950 . S
H1475 C1504 0.950 1_554 S
H1476 C1506 0.950 . S
H1477 C1507 0.950 . S
C1478 H1460 0.951 . S
C1478 C1479 1.366 . S
C1478 C1480 1.388 . S
C1479 C1478 1.366 . S
C1479 C1483 1.385 . S
C1480 H1461 0.951 . S
C1480 C1478 1.388 . S
C1480 C1481 1.366 . S
C1481 C1480 1.366 . S
C1481 C1482 1.414 . S
C1481 C1484 1.499 . S
C1482 H1462 0.950 . S
C1482 C1481 1.414 . S
C1482 C1483 1.374 . S
C1483 H1463 0.950 . S
C1483 C1479 1.385 . S
C1483 C1482 1.374 . S
C1484 C1481 1.499 . S
C1484 C1485 1.373 . S
C1484 C1486 1.389 . S
C1485 H1464 0.950 . S
C1485 C1484 1.373 . S
C1485 C1501 1.377 . S
C1486 C1484 1.389 . S
C1486 C1487 1.524 . S
C1486 C1500 1.377 . S
C1487 C1486 1.524 . S
C1487 C1488 1.397 . S
C1487 C1492 1.363 . S
C1488 H1465 0.950 . S
C1488 C1487 1.397 . S
C1488 C1489 1.334 . S
C1489 H1466 0.950 . S
C1489 C1488 1.334 . S
C1489 C1490 1.287 . S
C1490 C1489 1.287 . S
C1490 C1491 1.524 . S
C1490 H1509 0.913 . S
C1491 H1467 0.950 . S
C1491 C1490 1.524 . S
C1491 C1492 1.415 . S
C1492 H1468 0.950 . S
C1492 C1487 1.363 . S
C1492 C1491 1.415 . S
C1493 H1469 0.951 . S
C1493 C1494 1.366 . S
C1493 C1495 1.388 . S
C1494 C1493 1.366 . S
C1494 C1498 1.385 . S
C1495 H1470 0.951 . S
C1495 C1493 1.388 . S
C1495 C1496 1.365 1_554 S
C1496 C1495 1.365 1_556 S
C1496 C1497 1.414 1_556 S
C1496 C1499 1.499 . S
C1497 H1471 0.950 . S
C1497 C1496 1.414 1_554 S
C1497 C1498 1.374 . S
C1498 H1472 0.950 . S
C1498 C1494 1.385 . S
C1498 C1497 1.374 . S
C1499 C1496 1.499 . S
C1499 C1500 1.373 . S
C1499 C1501 1.389 . S
C1500 H1473 0.950 . S
C1500 C1486 1.377 . S
C1500 C1499 1.373 . S
C1501 C1485 1.377 . S
C1501 C1499 1.389 . S
C1501 C1502 1.524 . S
C1502 C1501 1.524 . S
C1502 C1503 1.397 . S
C1502 C1507 1.363 . S
C1503 H1474 0.950 . S
C1503 C1502 1.397 . S
C1503 C1504 1.334 . S
C1504 H1475 0.950 1_556 S
C1504 C1503 1.334 . S
C1504 C1505 1.287 . S
C1505 C1504 1.287 . S
C1505 C1506 1.524 . S
C1505 H1508 0.999 1_556 S
C1506 H1476 0.950 . S
C1506 C1505 1.524 . S
C1506 C1507 1.415 . S
C1507 H1477 0.950 . S
C1507 C1502 1.363 . S
C1507 C1506 1.415 . S
H1508 C1505 0.999 1_554 S
H1509 C1490 0.913 . S
H1510 C1528 0.951 . S
H1511 C1530 0.951 . S
H1512 C1532 0.950 . S
H1513 C1533 0.950 . S
H1514 C1535 0.950 . S
H1515 C1538 0.950 . S
H1516 C1539 0.950 . S
H1517 C1541 0.950 . S
H1518 C1542 0.950 . S
H1519 C1543 0.951 . S
H1520 C1545 0.951 . S
H1521 C1547 0.950 . S
H1522 C1548 0.950 . S
H1523 C1550 0.950 . S
H1524 C1553 0.950 . S
H1525 C1554 0.950 1_554 S
H1526 C1556 0.950 . S
H1527 C1557 0.950 . S
C1528 H1510 0.951 . S
C1528 C1529 1.366 . S
C1528 C1530 1.388 . S
C1529 C1528 1.366 . S
C1529 C1533 1.385 . S
C1530 H1511 0.951 . S
C1530 C1528 1.388 . S
C1530 C1531 1.366 . S
C1531 C1530 1.366 . S
C1531 C1532 1.414 . S
C1531 C1534 1.499 . S
C1532 H1512 0.950 . S
C1532 C1531 1.414 . S
C1532 C1533 1.374 . S
C1533 H1513 0.950 . S
C1533 C1529 1.385 . S
C1533 C1532 1.374 . S
C1534 C1531 1.499 . S
C1534 C1535 1.373 . S
C1534 C1536 1.389 . S
C1535 H1514 0.950 . S
C1535 C1534 1.373 . S
C1535 C1551 1.377 . S
C1536 C1534 1.389 . S
C1536 C1537 1.524 . S
C1536 C1550 1.377 . S
C1537 C1536 1.524 . S
C1537 C1538 1.397 . S
C1537 C1542 1.363 . S
C1538 H1515 0.950 . S
C1538 C1537 1.397 . S
C1538 C1539 1.334 . S
C1539 H1516 0.950 . S
C1539 C1538 1.334 . S
C1539 C1540 1.287 . S
C1540 C1539 1.287 . S
C1540 C1541 1.524 . S
C1540 H1559 0.913 . S
C1541 H1517 0.950 . S
C1541 C1540 1.524 . S
C1541 C1542 1.415 . S
C1542 H1518 0.950 . S
C1542 C1537 1.363 . S
C1542 C1541 1.415 . S
C1543 H1519 0.951 . S
C1543 C1544 1.366 . S
C1543 C1545 1.388 . S
C1544 C1543 1.366 . S
C1544 C1548 1.385 . S
C1545 H1520 0.951 . S
C1545 C1543 1.388 . S
C1545 C1546 1.365 . S
C1546 C1545 1.365 . S
C1546 C1547 1.414 . S
C1546 C1549 1.499 1_554 S
C1547 H1521 0.950 . S
C1547 C1546 1.414 . S
C1547 C1548 1.374 . S
C1548 H1522 0.950 . S
C1548 C1544 1.385 . S
C1548 C1547 1.374 . S
C1549 C1546 1.499 1_556 S
C1549 C1550 1.373 . S
C1549 C1551 1.389 . S
C1550 H1523 0.950 . S
C1550 C1536 1.377 . S
C1550 C1549 1.373 . S
C1551 C1535 1.377 . S
C1551 C1549 1.389 . S
C1551 C1552 1.524 . S
C1552 C1551 1.524 . S
C1552 C1553 1.397 . S
C1552 C1557 1.363 . S
C1553 H1524 0.950 . S
C1553 C1552 1.397 . S
C1553 C1554 1.334 . S
C1554 H1525 0.950 1_556 S
C1554 C1553 1.334 . S
C1554 C1555 1.287 . S
C1555 C1554 1.287 . S
C1555 C1556 1.524 . S
C1555 H1558 0.999 1_556 S
C1556 H1526 0.950 . S
C1556 C1555 1.524 . S
C1556 C1557 1.415 . S
C1557 H1527 0.950 . S
C1557 C1552 1.363 . S
C1557 C1556 1.415 . S
H1558 C1555 0.999 1_554 S
H1559 C1540 0.913 . S
H1560 C1578 0.951 . S
H1561 C1580 0.951 . S
H1562 C1582 0.950 . S
H1563 C1583 0.950 . S
H1564 C1585 0.950 . S
H1565 C1588 0.950 . S
H1566 C1589 0.950 . S
H1567 C1591 0.950 . S
H1568 C1592 0.950 . S
H1569 C1593 0.951 . S
H1570 C1595 0.951 . S
H1571 C1597 0.950 . S
H1572 C1598 0.950 . S
H1573 C1600 0.950 . S
H1574 C1603 0.950 . S
H1575 C1604 0.950 1_556 S
H1576 C1606 0.950 . S
H1577 C1607 0.950 . S
C1578 H1560 0.951 . S
C1578 C1579 1.366 . S
C1578 C1580 1.388 . S
C1579 C1578 1.366 . S
C1579 C1583 1.385 . S
C1580 H1561 0.951 . S
C1580 C1578 1.388 . S
C1580 C1581 1.366 . S
C1581 C1580 1.366 . S
C1581 C1582 1.414 . S
C1581 C1584 1.499 . S
C1582 H1562 0.950 . S
C1582 C1581 1.414 . S
C1582 C1583 1.374 . S
C1583 H1563 0.950 . S
C1583 C1579 1.385 . S
C1583 C1582 1.374 . S
C1584 C1581 1.499 . S
C1584 C1585 1.373 . S
C1584 C1586 1.389 . S
C1585 H1564 0.950 . S
C1585 C1584 1.373 . S
C1585 C1601 1.377 . S
C1586 C1584 1.389 . S
C1586 C1587 1.524 . S
C1586 C1600 1.377 . S
C1587 C1586 1.524 . S
C1587 C1588 1.397 . S
C1587 C1592 1.363 . S
C1588 H1565 0.950 . S
C1588 C1587 1.397 . S
C1588 C1589 1.334 . S
C1589 H1566 0.950 . S
C1589 C1588 1.334 . S
C1589 C1590 1.287 . S
C1590 C1589 1.287 . S
C1590 C1591 1.524 . S
C1590 H1609 0.913 . S
C1591 H1567 0.950 . S
C1591 C1590 1.524 . S
C1591 C1592 1.415 . S
C1592 H1568 0.950 . S
C1592 C1587 1.363 . S
C1592 C1591 1.415 . S
C1593 H1569 0.951 . S
C1593 C1594 1.366 . S
C1593 C1595 1.388 . S
C1594 C1593 1.366 . S
C1594 C1598 1.385 . S
C1595 H1570 0.951 . S
C1595 C1593 1.388 . S
C1595 C1596 1.366 1_556 S
C1596 C1595 1.366 1_554 S
C1596 C1597 1.414 1_554 S
C1596 C1599 1.499 . S
C1597 H1571 0.950 . S
C1597 C1596 1.414 1_556 S
C1597 C1598 1.374 . S
C1598 H1572 0.950 . S
C1598 C1594 1.385 . S
C1598 C1597 1.374 . S
C1599 C1596 1.499 . S
C1599 C1600 1.373 . S
C1599 C1601 1.389 . S
C1600 H1573 0.950 . S
C1600 C1586 1.377 . S
C1600 C1599 1.373 . S
C1601 C1585 1.377 . S
C1601 C1599 1.389 . S
C1601 C1602 1.524 . S
C1602 C1601 1.524 . S
C1602 C1603 1.397 . S
C1602 C1607 1.363 . S
C1603 H1574 0.950 . S
C1603 C1602 1.397 . S
C1603 C1604 1.334 . S
C1604 H1575 0.950 1_554 S
C1604 C1603 1.334 . S
C1604 C1605 1.287 . S
C1605 C1604 1.287 . S
C1605 C1606 1.524 . S
C1605 H1608 0.999 . S
C1606 H1576 0.950 . S
C1606 C1605 1.524 . S
C1606 C1607 1.415 . S
C1607 H1577 0.950 . S
C1607 C1602 1.363 . S
C1607 C1606 1.415 . S
H1608 C1605 0.999 . S
H1609 C1590 0.913 . S
H1610 C1628 0.951 . S
H1611 C1630 0.951 . S
H1612 C1632 0.950 1_554 S
H1613 C1633 0.950 . S
H1614 C1635 0.950 . S
H1615 C1638 0.950 . S
H1616 C1639 0.950 1_556 S
H1617 C1641 0.950 . S
H1618 C1642 0.950 . S
H1619 C1643 0.951 . S
H1620 C1645 0.951 . S
H1621 C1647 0.950 . S
H1622 C1648 0.950 . S
H1623 C1650 0.950 . S
H1624 C1653 0.950 . S
H1625 C1654 0.950 . S
H1626 C1656 0.950 . S
H1627 C1657 0.950 . S
C1628 H1610 0.951 . S
C1628 C1629 1.366 . S
C1628 C1630 1.388 . S
C1629 C1628 1.366 . S
C1629 C1633 1.385 . S
C1630 H1611 0.951 . S
C1630 C1628 1.388 . S
C1630 C1631 1.366 1_556 S
C1631 C1630 1.366 1_554 S
C1631 C1632 1.414 1_554 S
C1631 C1634 1.499 . S
C1632 H1612 0.950 1_556 S
C1632 C1631 1.414 1_556 S
C1632 C1633 1.374 . S
C1633 H1613 0.950 . S
C1633 C1629 1.385 . S
C1633 C1632 1.374 . S
C1634 C1631 1.499 . S
C1634 C1635 1.373 . S
C1634 C1636 1.389 . S
C1635 H1614 0.950 . S
C1635 C1634 1.373 . S
C1635 C1651 1.377 . S
C1636 C1634 1.389 . S
C1636 C1637 1.524 . S
C1636 C1650 1.377 . S
C1637 C1636 1.524 . S
C1637 C1638 1.397 . S
C1637 C1642 1.363 . S
C1638 H1615 0.950 . S
C1638 C1637 1.397 . S
C1638 C1639 1.334 . S
C1639 H1616 0.950 1_554 S
C1639 C1638 1.334 . S
C1639 C1640 1.287 . S
C1640 C1639 1.287 . S
C1640 C1641 1.524 . S
C1640 H1659 0.913 . S
C1641 H1617 0.950 . S
C1641 C1640 1.524 . S
C1641 C1642 1.415 . S
C1642 H1618 0.950 . S
C1642 C1637 1.363 . S
C1642 C1641 1.415 . S
C1643 H1619 0.951 . S
C1643 C1644 1.366 . S
C1643 C1645 1.388 . S
C1644 C1643 1.366 . S
C1644 C1648 1.385 . S
C1645 H1620 0.951 . S
C1645 C1643 1.388 . S
C1645 C1646 1.366 . S
C1646 C1645 1.366 . S
C1646 C1647 1.414 . S
C1646 C1649 1.499 . S
C1647 H1621 0.950 . S
C1647 C1646 1.414 . S
C1647 C1648 1.374 . S
C1648 H1622 0.950 . S
C1648 C1644 1.385 . S
C1648 C1647 1.374 . S
C1649 C1646 1.499 . S
C1649 C1650 1.373 . S
C1649 C1651 1.389 . S
C1650 H1623 0.950 . S
C1650 C1636 1.377 . S
C1650 C1649 1.373 . S
C1651 C1635 1.377 . S
C1651 C1649 1.389 . S
C1651 C1652 1.524 . S
C1652 C1651 1.524 . S
C1652 C1653 1.397 . S
C1652 C1657 1.363 . S
C1653 H1624 0.950 . S
C1653 C1652 1.397 . S
C1653 C1654 1.334 . S
C1654 H1625 0.950 . S
C1654 C1653 1.334 . S
C1654 C1655 1.287 . S
C1655 C1654 1.287 . S
C1655 C1656 1.524 . S
C1655 H1658 0.999 . S
C1656 H1626 0.950 . S
C1656 C1655 1.524 . S
C1656 C1657 1.415 . S
C1657 H1627 0.950 . S
C1657 C1652 1.363 . S
C1657 C1656 1.415 . S
H1658 C1655 0.999 . S
H1659 C1640 0.913 . S
H1660 C1678 0.951 . S
H1661 C1680 0.951 . S
H1662 C1682 0.950 . S
H1663 C1683 0.950 . S
H1664 C1685 0.950 . S
H1665 C1688 0.950 . S
H1666 C1689 0.950 . S
H1667 C1691 0.950 . S
H1668 C1692 0.950 . S
H1669 C1693 0.951 . S
H1670 C1695 0.947 1_554 S
H1671 C1697 0.950 . S
H1672 C1698 0.950 . S
H1673 C1700 0.950 . S
H1674 C1703 0.950 . S
H1675 C1704 0.950 1_556 S
H1676 C1706 0.950 . S
H1677 C1707 0.950 . S
C1678 H1660 0.951 . S
C1678 C1679 1.366 . S
C1678 C1680 1.388 . S
C1679 C1678 1.366 . S
C1679 C1683 1.385 . S
C1680 H1661 0.951 . S
C1680 C1678 1.388 . S
C1680 C1681 1.366 . S
C1681 C1680 1.366 . S
C1681 C1682 1.414 . S
C1681 C1684 1.499 . S
C1682 H1662 0.950 . S
C1682 C1681 1.414 . S
C1682 C1683 1.374 . S
C1683 H1663 0.950 . S
C1683 C1679 1.385 . S
C1683 C1682 1.374 . S
C1684 C1681 1.499 . S
C1684 C1685 1.373 . S
C1684 C1686 1.389 . S
C1685 H1664 0.950 . S
C1685 C1684 1.373 . S
C1685 C1701 1.377 . S
C1686 C1684 1.389 . S
C1686 C1687 1.524 . S
C1686 C1700 1.377 . S
C1687 C1686 1.524 . S
C1687 C1688 1.397 . S
C1687 C1692 1.363 . S
C1688 H1665 0.950 . S
C1688 C1687 1.397 . S
C1688 C1689 1.334 . S
C1689 H1666 0.950 . S
C1689 C1688 1.334 . S
C1689 C1690 1.287 . S
C1690 C1689 1.287 . S
C1690 C1691 1.524 . S
C1690 H1709 0.913 . S
C1691 H1667 0.950 . S
C1691 C1690 1.524 . S
C1691 C1692 1.415 . S
C1692 H1668 0.950 . S
C1692 C1687 1.363 . S
C1692 C1691 1.415 . S
C1693 H1669 0.951 . S
C1693 C1694 1.366 . S
C1693 C1695 1.388 . S
C1694 C1693 1.366 . S
C1694 C1698 1.385 . S
C1695 H1670 0.947 1_556 S
C1695 C1693 1.388 . S
C1695 C1696 1.366 1_556 S
C1696 C1695 1.366 1_554 S
C1696 C1697 1.414 1_554 S
C1696 C1699 1.499 . S
C1697 H1671 0.950 . S
C1697 C1696 1.414 1_556 S
C1697 C1698 1.374 . S
C1698 H1672 0.950 . S
C1698 C1694 1.385 . S
C1698 C1697 1.374 . S
C1699 C1696 1.499 . S
C1699 C1700 1.373 . S
C1699 C1701 1.389 . S
C1700 H1673 0.950 . S
C1700 C1686 1.377 . S
C1700 C1699 1.373 . S
C1701 C1685 1.377 . S
C1701 C1699 1.389 . S
C1701 C1702 1.524 . S
C1702 C1701 1.524 . S
C1702 C1703 1.397 . S
C1702 C1707 1.363 . S
C1703 H1674 0.950 . S
C1703 C1702 1.397 . S
C1703 C1704 1.334 . S
C1704 H1675 0.950 1_554 S
C1704 C1703 1.334 . S
C1704 C1705 1.287 . S
C1705 C1704 1.287 . S
C1705 C1706 1.524 . S
C1705 H1708 0.999 . S
C1706 H1676 0.950 . S
C1706 C1705 1.524 . S
C1706 C1707 1.415 . S
C1707 H1677 0.950 . S
C1707 C1702 1.363 . S
C1707 C1706 1.415 . S
H1708 C1705 0.999 . S
H1709 C1690 0.913 . S
C379 C7 1.973 . S
C394 C282 1.939 . S
C429 C47 1.974 . S
C444 C322 1.940 . S
C479 C87 1.974 . S
C494 C242 1.939 . S
C529 C167 1.974 . S
C544 C82 1.940 . S
C579 C207 1.974 . S
C594 C2 1.940 . S
C629 C42 1.940 . S
C644 C127 1.974 . S
C679 C287 1.974 . S
C694 C202 1.940 . S
C729 C327 1.974 . S
C744 C122 1.940 . S
C779 C162 1.940 . S
C794 C247 1.974 . S
C829 C96 1.744 . S
C844 C11 1.747 1_554 S
C879 C51 1.747 1_554 S
C894 C16 1.744 . S
C929 C56 1.745 . S
C944 C91 1.747 1_554 S
C979 C131 1.748 . S
C994 C216 1.745 . S
C1029 C136 1.744 . S
C1044 C171 1.748 . S
C1079 C176 1.744 . S
C1094 C211 1.748 . S
C1129 C336 1.744 . S
C1144 C251 1.748 . S
C1179 C291 1.748 . S
C1194 C256 1.744 . S
C1229 C331 1.748 . S
C1244 C296 1.744 . S
C1279 C19 0.848 . S
C1294 C10 0.848 . S
C1329 C59 0.847 . S
C1344 C50 0.847 . S
C1379 C99 0.849 . S
C1394 C90 0.849 . S
C1429 C130 0.848 . S
C1444 C139 0.848 . S
C1479 C170 0.849 . S
C1494 C179 0.849 . S
C1529 C210 0.849 . S
C1544 C219 0.849 . S
C1579 C259 0.848 . S
C1594 C250 0.848 . S
C1629 C290 0.849 . S
C1644 C299 0.849 . S
C1679 C339 0.849 . S
C1694 C330 0.849 . S
