# Generated by pormake.
# Topology uke, (4)-cn, num edge types: 1
# Building blocks:
#     Node 0, Type 0, BuildingBlock: CEKHIL_clean_sbu_0, # of connection points: 4
#     Node 1, Type 0, BuildingBlock: CEKHIL_clean_sbu_0, # of connection points: 4
#     Node 2, Type 0, BuildingBlock: CEKHIL_clean_sbu_0, # of connection points: 4
#     Node 3, Type 0, BuildingBlock: CEKHIL_clean_sbu_0, # of connection points: 4
#     Node 4, Type 0, BuildingBlock: CEKHIL_clean_sbu_0, # of connection points: 4
#     Node 5, Type 0, BuildingBlock: CEKHIL_clean_sbu_0, # of connection points: 4
#     Node 6, Type 0, BuildingBlock: CEKHIL_clean_sbu_0, # of connection points: 4
#     Node 7, Type 0, BuildingBlock: CEKHIL_clean_sbu_0, # of connection points: 4
#     Node 8, Type 0, BuildingBlock: CEKHIL_clean_sbu_0, # of connection points: 4
#     Node 9, Type 0, BuildingBlock: CEKHIL_clean_sbu_0, # of connection points: 4
#     Node 10, Type 0, BuildingBlock: CEKHIL_clean_sbu_0, # of connection points: 4
#     Node 11, Type 0, BuildingBlock: CEKHIL_clean_sbu_0, # of connection points: 4
#     Node 12, Type 0, BuildingBlock: CEKHIL_clean_sbu_0, # of connection points: 4
#     Node 13, Type 0, BuildingBlock: CEKHIL_clean_sbu_0, # of connection points: 4
#     Node 14, Type 0, BuildingBlock: CEKHIL_clean_sbu_0, # of connection points: 4
#     Node 15, Type 0, BuildingBlock: CEKHIL_clean_sbu_0, # of connection points: 4
#     Node 16, Type 0, BuildingBlock: CEKHIL_clean_sbu_0, # of connection points: 4
#     Node 17, Type 0, BuildingBlock: CEKHIL_clean_sbu_0, # of connection points: 4
#     Node 18, Type 0, BuildingBlock: CEKHIL_clean_sbu_0, # of connection points: 4
#     Node 19, Type 0, BuildingBlock: CEKHIL_clean_sbu_0, # of connection points: 4
#     Node 20, Type 0, BuildingBlock: CEKHIL_clean_sbu_0, # of connection points: 4
#     Node 21, Type 0, BuildingBlock: CEKHIL_clean_sbu_0, # of connection points: 4
#     Node 22, Type 0, BuildingBlock: CEKHIL_clean_sbu_0, # of connection points: 4
#     Node 23, Type 0, BuildingBlock: CEKHIL_clean_sbu_0, # of connection points: 4
#     Node 24, Type 0, BuildingBlock: CEKHIL_clean_sbu_0, # of connection points: 4
#     Node 25, Type 0, BuildingBlock: CEKHIL_clean_sbu_0, # of connection points: 4
#     Node 26, Type 0, BuildingBlock: CEKHIL_clean_sbu_0, # of connection points: 4
#     Node 27, Type 0, BuildingBlock: CEKHIL_clean_sbu_0, # of connection points: 4
#     Node 28, Type 0, BuildingBlock: CEKHIL_clean_sbu_0, # of connection points: 4
#     Node 29, Type 0, BuildingBlock: CEKHIL_clean_sbu_0, # of connection points: 4
#     Node 30, Type 0, BuildingBlock: CEKHIL_clean_sbu_0, # of connection points: 4
#     Node 31, Type 0, BuildingBlock: CEKHIL_clean_sbu_0, # of connection points: 4
#     Edge 32, Type (0, 0), BuildingBlock: EZIPEK_clean_linker_0, # of connection points: 2
#     Edge 33, Type (0, 0), BuildingBlock: EZIPEK_clean_linker_0, # of connection points: 2
#     Edge 34, Type (0, 0), BuildingBlock: EZIPEK_clean_linker_0, # of connection points: 2
#     Edge 35, Type (0, 0), BuildingBlock: EZIPEK_clean_linker_0, # of connection points: 2
#     Edge 36, Type (0, 0), BuildingBlock: EZIPEK_clean_linker_0, # of connection points: 2
#     Edge 37, Type (0, 0), BuildingBlock: EZIPEK_clean_linker_0, # of connection points: 2
#     Edge 38, Type (0, 0), BuildingBlock: EZIPEK_clean_linker_0, # of connection points: 2
#     Edge 39, Type (0, 0), BuildingBlock: EZIPEK_clean_linker_0, # of connection points: 2
#     Edge 40, Type (0, 0), BuildingBlock: EZIPEK_clean_linker_0, # of connection points: 2
#     Edge 41, Type (0, 0), BuildingBlock: EZIPEK_clean_linker_0, # of connection points: 2
#     Edge 42, Type (0, 0), BuildingBlock: EZIPEK_clean_linker_0, # of connection points: 2
#     Edge 43, Type (0, 0), BuildingBlock: EZIPEK_clean_linker_0, # of connection points: 2
#     Edge 44, Type (0, 0), BuildingBlock: EZIPEK_clean_linker_0, # of connection points: 2
#     Edge 45, Type (0, 0), BuildingBlock: EZIPEK_clean_linker_0, # of connection points: 2
#     Edge 46, Type (0, 0), BuildingBlock: EZIPEK_clean_linker_0, # of connection points: 2
#     Edge 47, Type (0, 0), BuildingBlock: EZIPEK_clean_linker_0, # of connection points: 2
#     Edge 48, Type (0, 0), BuildingBlock: EZIPEK_clean_linker_0, # of connection points: 2
#     Edge 49, Type (0, 0), BuildingBlock: EZIPEK_clean_linker_0, # of connection points: 2
#     Edge 50, Type (0, 0), BuildingBlock: EZIPEK_clean_linker_0, # of connection points: 2
#     Edge 51, Type (0, 0), BuildingBlock: EZIPEK_clean_linker_0, # of connection points: 2
#     Edge 52, Type (0, 0), BuildingBlock: EZIPEK_clean_linker_0, # of connection points: 2
#     Edge 53, Type (0, 0), BuildingBlock: EZIPEK_clean_linker_0, # of connection points: 2
#     Edge 54, Type (0, 0), BuildingBlock: EZIPEK_clean_linker_0, # of connection points: 2
#     Edge 55, Type (0, 0), BuildingBlock: EZIPEK_clean_linker_0, # of connection points: 2
#     Edge 56, Type (0, 0), BuildingBlock: EZIPEK_clean_linker_0, # of connection points: 2
#     Edge 57, Type (0, 0), BuildingBlock: EZIPEK_clean_linker_0, # of connection points: 2
#     Edge 58, Type (0, 0), BuildingBlock: EZIPEK_clean_linker_0, # of connection points: 2
#     Edge 59, Type (0, 0), BuildingBlock: EZIPEK_clean_linker_0, # of connection points: 2
#     Edge 60, Type (0, 0), BuildingBlock: EZIPEK_clean_linker_0, # of connection points: 2
#     Edge 61, Type (0, 0), BuildingBlock: EZIPEK_clean_linker_0, # of connection points: 2
#     Edge 62, Type (0, 0), BuildingBlock: EZIPEK_clean_linker_0, # of connection points: 2
#     Edge 63, Type (0, 0), BuildingBlock: EZIPEK_clean_linker_0, # of connection points: 2
#     Edge 64, Type (0, 0), BuildingBlock: EZIPEK_clean_linker_0, # of connection points: 2
#     Edge 65, Type (0, 0), BuildingBlock: EZIPEK_clean_linker_0, # of connection points: 2
#     Edge 66, Type (0, 0), BuildingBlock: EZIPEK_clean_linker_0, # of connection points: 2
#     Edge 67, Type (0, 0), BuildingBlock: EZIPEK_clean_linker_0, # of connection points: 2
#     Edge 68, Type (0, 0), BuildingBlock: EZIPEK_clean_linker_0, # of connection points: 2
#     Edge 69, Type (0, 0), BuildingBlock: EZIPEK_clean_linker_0, # of connection points: 2
#     Edge 70, Type (0, 0), BuildingBlock: EZIPEK_clean_linker_0, # of connection points: 2
#     Edge 71, Type (0, 0), BuildingBlock: EZIPEK_clean_linker_0, # of connection points: 2
#     Edge 72, Type (0, 0), BuildingBlock: EZIPEK_clean_linker_0, # of connection points: 2
#     Edge 73, Type (0, 0), BuildingBlock: EZIPEK_clean_linker_0, # of connection points: 2
#     Edge 74, Type (0, 0), BuildingBlock: EZIPEK_clean_linker_0, # of connection points: 2
#     Edge 75, Type (0, 0), BuildingBlock: EZIPEK_clean_linker_0, # of connection points: 2
#     Edge 76, Type (0, 0), BuildingBlock: EZIPEK_clean_linker_0, # of connection points: 2
#     Edge 77, Type (0, 0), BuildingBlock: EZIPEK_clean_linker_0, # of connection points: 2
#     Edge 78, Type (0, 0), BuildingBlock: EZIPEK_clean_linker_0, # of connection points: 2
#     Edge 79, Type (0, 0), BuildingBlock: EZIPEK_clean_linker_0, # of connection points: 2
#     Edge 80, Type (0, 0), BuildingBlock: EZIPEK_clean_linker_0, # of connection points: 2
#     Edge 81, Type (0, 0), BuildingBlock: EZIPEK_clean_linker_0, # of connection points: 2
#     Edge 82, Type (0, 0), BuildingBlock: EZIPEK_clean_linker_0, # of connection points: 2
#     Edge 83, Type (0, 0), BuildingBlock: EZIPEK_clean_linker_0, # of connection points: 2
#     Edge 84, Type (0, 0), BuildingBlock: EZIPEK_clean_linker_0, # of connection points: 2
#     Edge 85, Type (0, 0), BuildingBlock: EZIPEK_clean_linker_0, # of connection points: 2
#     Edge 86, Type (0, 0), BuildingBlock: EZIPEK_clean_linker_0, # of connection points: 2
#     Edge 87, Type (0, 0), BuildingBlock: EZIPEK_clean_linker_0, # of connection points: 2
#     Edge 88, Type (0, 0), BuildingBlock: EZIPEK_clean_linker_0, # of connection points: 2
#     Edge 89, Type (0, 0), BuildingBlock: EZIPEK_clean_linker_0, # of connection points: 2
#     Edge 90, Type (0, 0), BuildingBlock: EZIPEK_clean_linker_0, # of connection points: 2
#     Edge 91, Type (0, 0), BuildingBlock: EZIPEK_clean_linker_0, # of connection points: 2
#     Edge 92, Type (0, 0), BuildingBlock: EZIPEK_clean_linker_0, # of connection points: 2
#     Edge 93, Type (0, 0), BuildingBlock: EZIPEK_clean_linker_0, # of connection points: 2
#     Edge 94, Type (0, 0), BuildingBlock: EZIPEK_clean_linker_0, # of connection points: 2
#     Edge 95, Type (0, 0), BuildingBlock: EZIPEK_clean_linker_0, # of connection points: 2
# Relax obj value: 0.082
# Max RMSD: 0.184
# Mean RMSD: 0.184
data_MOF--net-uke--node1-CEKHIL_clean_sbu_0--edge1-EZIPEK_clean_linker_0
_symmetry_space_group_name_H-M    P1
_symmetry_Int_Tables_number       1
_symmetry_cell_setting            triclinic
loop_
_symmetry_equiv_pos_as_xyz
'x, y, z'
_cell_length_a     14.530882
_cell_length_b     78.803058
_cell_length_c     39.604312
_cell_angle_alpha  89.947574
_cell_angle_beta   90.001804
_cell_angle_gamma 90.00145
loop_
_atom_site_label
_atom_site_type_symbol
_atom_site_fract_x
_atom_site_fract_y
_atom_site_fract_z
_atom_type_partial_charge
Co0 Co 0.07825 0.05221 0.28194 0.0
O1 O 0.06101 0.0493 0.32938 0.0
O2 O 0.94891 0.05541 0.29333 0.0
C3 C 0.16347 0.0289 0.27421 0.0
O4 O 0.07798 0.05531 0.23014 0.0
Co5 Co 0.27317 0.06095 0.2606 0.0
O6 O 0.22726 0.05689 0.21454 0.0
C7 C 0.15676 0.08836 0.28369 0.0
C8 C 0.97516 0.05254 0.32435 0.0
C9 C 0.14219 0.05591 0.20743 0.0
O10 O 0.09531 0.07712 0.28891 0.0
O11 O 0.23743 0.08479 0.27311 0.0
O12 O 0.07445 0.02829 0.27482 0.0
O13 O 0.19992 0.04337 0.28299 0.0
Co14 Co 0.18538 0.19021 0.2702 0.0
O15 O 0.21245 0.19297 0.31704 0.0
O16 O 0.31152 0.18301 0.27939 0.0
C17 C 0.12127 0.21587 0.26397 0.0
O18 O 0.17458 0.18623 0.21908 0.0
Co19 Co 0.97898 0.1895 0.25176 0.0
O20 O 0.0279 0.19247 0.20527 0.0
C21 C 0.06413 0.15903 0.28011 0.0
C22 C 0.29345 0.18715 0.31061 0.0
C23 C 0.11043 0.18884 0.197 0.0
O24 O 0.14209 0.16654 0.27869 0.0
O25 O 0.98766 0.16649 0.27399 0.0
O26 O 0.20975 0.2141 0.26194 0.0
O27 O 0.07561 0.20253 0.27321 0.0
Co28 Co 0.0762 0.1911 0.97786 0.0
O29 O 0.05431 0.19222 0.93029 0.0
O30 O 0.94688 0.18652 0.96843 0.0
C31 C 0.15718 0.21506 0.98307 0.0
O32 O 0.08319 0.18947 0.02977 0.0
Co33 Co 0.28248 0.18504 0.99545 0.0
O34 O 0.23524 0.18743 0.04206 0.0
C35 C 0.17013 0.15616 0.9756 0.0
C36 C 0.96952 0.18864 0.9368 0.0
C37 C 0.15115 0.1886 0.05103 0.0
O38 O 0.10089 0.16615 0.97465 0.0
O39 O 0.25253 0.16118 0.98099 0.0
O40 O 0.06824 0.21562 0.98116 0.0
O41 O 0.19378 0.20052 0.97551 0.0
Co42 Co 0.14454 0.05184 0.98805 0.0
O43 O 0.15956 0.04979 0.94028 0.0
O44 O 0.27223 0.05625 0.97577 0.0
C45 C 0.06467 0.02767 0.99495 0.0
O46 O 0.14854 0.05424 0.03975 0.0
Co47 Co 0.94873 0.05844 0.01149 0.0
O48 O 0.00087 0.05551 0.05726 0.0
C49 C 0.05128 0.08674 0.98452 0.0
C50 C 0.24499 0.0536 0.94481 0.0
C51 C 0.08671 0.05471 0.06325 0.0
O52 O 0.11998 0.07669 0.9828 0.0
O53 O 0.97085 0.08189 0.99324 0.0
O54 O 0.15374 0.02771 0.9938 0.0
O55 O 0.02509 0.042 0.98737 0.0
Co56 Co 0.90665 0.94071 0.73232 0.0
O57 O 0.92082 0.94218 0.68444 0.0
O58 O 0.0341 0.93608 0.71997 0.0
C59 C 0.82832 0.96469 0.73938 0.0
O60 O 0.90773 0.93871 0.78428 0.0
Co61 Co 0.70342 0.93503 0.75454 0.0
O62 O 0.75807 0.93684 0.80015 0.0
C63 C 0.80972 0.90618 0.73055 0.0
C64 C 0.00645 0.93856 0.68898 0.0
C65 C 0.84361 0.93779 0.80709 0.0
O66 O 0.87974 0.91593 0.72872 0.0
O67 O 0.72881 0.91135 0.73801 0.0
O68 O 0.91698 0.96509 0.73616 0.0
O69 O 0.78944 0.95028 0.73243 0.0
Co70 Co 0.83665 0.80236 0.73694 0.0
O71 O 0.80854 0.80127 0.68991 0.0
O72 O 0.70621 0.80688 0.72999 0.0
C73 C 0.91894 0.77856 0.7398 0.0
O74 O 0.85011 0.80392 0.78863 0.0
Co75 Co 0.04437 0.80846 0.75172 0.0
O76 O 0.00329 0.80549 0.79902 0.0
C77 C 0.93024 0.83701 0.7313 0.0
C78 C 0.72479 0.80486 0.69799 0.0
C79 C 0.92004 0.80444 0.80903 0.0
O80 O 0.86057 0.82718 0.73287 0.0
O81 O 0.0132 0.83199 0.7354 0.0
O82 O 0.82982 0.77789 0.74034 0.0
O83 O 0.95402 0.7932 0.73211 0.0
Co84 Co 0.92759 0.80063 0.02967 0.0
O85 O 0.94126 0.79803 0.07745 0.0
O86 O 0.05025 0.80795 0.04372 0.0
C87 C 0.86554 0.77491 0.02079 0.0
O88 O 0.93083 0.80454 0.97831 0.0
Co89 Co 0.72577 0.80121 1.00434 0.0
O90 O 0.78714 0.79892 0.95972 0.0
C91 C 0.80447 0.83206 0.03354 0.0
C92 C 0.02354 0.80393 0.07418 0.0
C93 C 0.87158 0.80245 0.95423 0.0
O94 O 0.88206 0.82442 0.03568 0.0
O95 O 0.72969 0.82448 0.02556 0.0
O96 O 0.95409 0.77662 0.02276 0.0
O97 O 0.8179 0.78825 0.02832 0.0
Co98 Co 0.83065 0.93857 0.02565 0.0
O99 O 0.80729 0.94167 0.07271 0.0
O100 O 0.69966 0.93592 0.03469 0.0
C101 C 0.91932 0.96156 0.01942 0.0
O102 O 0.83535 0.93538 0.974 0.0
Co103 Co 0.02573 0.92916 0.00694 0.0
O104 O 0.98479 0.93235 0.95988 0.0
C105 C 0.90675 0.90229 0.03074 0.0
C106 C 0.72179 0.93878 0.06612 0.0
C107 C 0.90065 0.93406 0.95188 0.0
O108 O 0.84447 0.91363 0.03332 0.0
O109 O 0.98903 0.90565 0.02164 0.0
O110 O 0.83046 0.9625 0.01822 0.0
O111 O 0.9534 0.94701 0.02893 0.0
Co112 Co 0.07376 0.55315 0.76728 0.0
O113 O 0.05383 0.5529 0.81499 0.0
O114 O 0.94553 0.55838 0.77704 0.0
C115 C 0.15072 0.52869 0.76452 0.0
O116 O 0.07742 0.55382 0.7153 0.0
Co117 Co 0.27913 0.55715 0.74628 0.0
O118 O 0.22792 0.55431 0.70035 0.0
C119 C 0.17609 0.5871 0.7675 0.0
C120 C 0.969 0.55651 0.80864 0.0
C121 C 0.14261 0.5538 0.69288 0.0
O122 O 0.10365 0.57792 0.76916 0.0
O123 O 0.25623 0.58122 0.76104 0.0
O124 O 0.06165 0.5287 0.76574 0.0
O125 O 0.18992 0.54322 0.76997 0.0
Co126 Co 0.19436 0.69199 0.76759 0.0
O127 O 0.21362 0.69174 0.81537 0.0
O128 O 0.3222 0.6863 0.7776 0.0
C129 C 0.1193 0.71659 0.76518 0.0
O130 O 0.19067 0.69185 0.71541 0.0
Co131 Co 0.98903 0.68847 0.74659 0.0
O132 O 0.0399 0.69191 0.70075 0.0
C133 C 0.08979 0.65824 0.76729 0.0
C134 C 0.29821 0.6879 0.80922 0.0
C135 C 0.12509 0.69238 0.69309 0.0
O136 O 0.16278 0.66727 0.76871 0.0
O137 O 0.00989 0.66429 0.76111 0.0
O138 O 0.20832 0.71641 0.76679 0.0
O139 O 0.07885 0.70216 0.77054 0.0
Co140 Co 0.0999 0.69244 0.47373 0.0
O141 O 0.08012 0.69349 0.4261 0.0
O142 O 0.97273 0.68644 0.46327 0.0
C143 C 0.17221 0.71766 0.47769 0.0
O144 O 0.10383 0.69085 0.52561 0.0
Co145 Co 0.30437 0.68905 0.49372 0.0
O146 O 0.25465 0.69236 0.53984 0.0
C147 C 0.20788 0.65911 0.46988 0.0
C148 C 0.99622 0.68902 0.43186 0.0
C149 C 0.16963 0.69181 0.54766 0.0
O150 O 0.13402 0.66793 0.47012 0.0
O151 O 0.28762 0.66551 0.47487 0.0
O152 O 0.0832 0.71664 0.47749 0.0
O153 O 0.21406 0.70344 0.47144 0.0
Co154 Co 0.1526 0.55289 0.47359 0.0
O155 O 0.17044 0.55011 0.42614 0.0
O156 O 0.28316 0.55454 0.46281 0.0
C157 C 0.05911 0.53062 0.48029 0.0
O158 O 0.15299 0.55563 0.52538 0.0
Co159 Co 0.96048 0.56366 0.49464 0.0
O160 O 0.00484 0.55929 0.54085 0.0
C161 C 0.08557 0.58982 0.47158 0.0
C162 C 0.25718 0.55221 0.43159 0.0
C163 C 0.08916 0.55705 0.54806 0.0
O164 O 0.1444 0.57801 0.46724 0.0
O165 O 0.0033 0.58704 0.48147 0.0
O166 O 0.14768 0.52891 0.48004 0.0
O167 O 0.02782 0.54552 0.47169 0.0
Co168 Co 0.92494 0.44151 0.23175 0.0
O169 O 0.94714 0.44161 0.18423 0.0
O170 O 0.05235 0.43517 0.22272 0.0
C171 C 0.85349 0.46658 0.23395 0.0
O172 O 0.91729 0.44075 0.28362 0.0
Co173 Co 0.71627 0.43921 0.25018 0.0
O174 O 0.76521 0.44183 0.29654 0.0
C175 C 0.81538 0.40835 0.23164 0.0
C176 C 0.03058 0.43722 0.19098 0.0
C177 C 0.84982 0.44141 0.30508 0.0
O178 O 0.88955 0.41704 0.22999 0.0
O179 O 0.73579 0.41488 0.23645 0.0
O180 O 0.94251 0.4659 0.23333 0.0
O181 O 0.81173 0.45234 0.22819 0.0
Co182 Co 0.83836 0.302 0.24591 0.0
O183 O 0.82705 0.29927 0.19805 0.0
O184 O 0.7096 0.30404 0.23241 0.0
C185 C 0.93145 0.27963 0.25315 0.0
O186 O 0.83122 0.30511 0.29768 0.0
Co187 Co 0.03246 0.31127 0.27187 0.0
O188 O 0.97821 0.30528 0.3161 0.0
C189 C 0.91508 0.33805 0.24405 0.0
C190 C 0.73983 0.30164 0.20173 0.0
C191 C 0.89186 0.30502 0.32173 0.0
O192 O 0.85168 0.32702 0.23987 0.0
O193 O 0.99542 0.33448 0.25521 0.0
O194 O 0.84297 0.27763 0.25193 0.0
O195 O 0.96139 0.29477 0.24654 0.0
Co196 Co 0.901 0.30277 0.5414 0.0
O197 O 0.92044 0.30241 0.58922 0.0
O198 O 0.03035 0.30679 0.55133 0.0
C199 C 0.81643 0.27882 0.53917 0.0
O200 O 0.9001 0.30341 0.48937 0.0
Co201 Co 0.70135 0.30914 0.51899 0.0
O202 O 0.75096 0.30463 0.47337 0.0
C203 C 0.81193 0.33804 0.53992 0.0
C204 C 0.00612 0.30534 0.58292 0.0
C205 C 0.83641 0.30369 0.46645 0.0
O206 O 0.87979 0.32784 0.54296 0.0
O207 O 0.73042 0.33319 0.53251 0.0
O208 O 0.90558 0.27839 0.53964 0.0
O209 O 0.78091 0.29375 0.54416 0.0
Co210 Co 0.83861 0.44166 0.52437 0.0
O211 O 0.82386 0.44443 0.57201 0.0
O212 O 0.71127 0.43719 0.53708 0.0
C213 C 0.91601 0.46589 0.51546 0.0
O214 O 0.83477 0.43858 0.47286 0.0
Co215 Co 0.03556 0.43505 0.50193 0.0
O216 O 0.98255 0.43602 0.45591 0.0
C217 C 0.93553 0.4071 0.53087 0.0
C218 C 0.73847 0.4405 0.56779 0.0
C219 C 0.89701 0.43727 0.44963 0.0
O220 O 0.86542 0.41689 0.53094 0.0
O221 O 0.01622 0.4122 0.52316 0.0
O222 O 0.82706 0.46567 0.51722 0.0
O223 O 0.95704 0.45185 0.52408 0.0
Co224 Co 0.5714 0.05118 0.78411 0.0
O225 O 0.54591 0.0499 0.83132 0.0
O226 O 0.44378 0.05749 0.79248 0.0
C227 C 0.6419 0.02623 0.77907 0.0
O228 O 0.58263 0.05324 0.7324 0.0
Co229 Co 0.78094 0.05413 0.7683 0.0
O230 O 0.7357 0.05294 0.72121 0.0
C231 C 0.6806 0.08438 0.78872 0.0
C232 C 0.46326 0.05466 0.82417 0.0
C233 C 0.65187 0.05332 0.71164 0.0
O234 O 0.60699 0.07552 0.78868 0.0
O235 O 0.76081 0.07818 0.78378 0.0
O236 O 0.55287 0.02694 0.77973 0.0
O237 O 0.68417 0.04012 0.78737 0.0
Co238 Co 0.6502 0.18869 0.77258 0.0
O239 O 0.6657 0.19039 0.82045 0.0
O240 O 0.77928 0.1854 0.78446 0.0
C241 C 0.56419 0.21204 0.76696 0.0
O242 O 0.65379 0.18706 0.72065 0.0
Co243 Co 0.45539 0.18072 0.74906 0.0
O244 O 0.50621 0.18474 0.70338 0.0
C245 C 0.56348 0.15337 0.77697 0.0
C246 C 0.75208 0.18757 0.81557 0.0
C247 C 0.59152 0.1866 0.69728 0.0
O248 O 0.63137 0.16365 0.77708 0.0
O249 O 0.4817 0.1578 0.76912 0.0
O250 O 0.6532 0.21285 0.76789 0.0
O251 O 0.52839 0.19733 0.77399 0.0
Co252 Co 0.59692 0.19249 0.47796 0.0
O253 O 0.58781 0.19311 0.42981 0.0
O254 O 0.47166 0.18704 0.46404 0.0
C255 C 0.67285 0.21739 0.48305 0.0
O256 O 0.58818 0.19131 0.52976 0.0
Co257 Co 0.79479 0.18846 0.50511 0.0
O258 O 0.73458 0.19292 0.54903 0.0
C259 C 0.69784 0.15837 0.48156 0.0
C260 C 0.5023 0.18909 0.43332 0.0
C261 C 0.64801 0.19238 0.55394 0.0
O262 O 0.62714 0.16771 0.4766 0.0
O263 O 0.7764 0.16429 0.49016 0.0
O264 O 0.58402 0.21687 0.48032 0.0
O265 O 0.71331 0.20286 0.47874 0.0
Co266 Co 0.67179 0.0528 0.49161 0.0
O267 O 0.68813 0.04923 0.44431 0.0
O268 O 0.80051 0.05625 0.47954 0.0
C269 C 0.58772 0.02937 0.50015 0.0
O270 O 0.67313 0.05707 0.54294 0.0
Co271 Co 0.47477 0.06035 0.5145 0.0
O272 O 0.52532 0.05507 0.55959 0.0
C273 C 0.58629 0.08823 0.48819 0.0
C274 C 0.77376 0.05283 0.4488 0.0
C275 C 0.61079 0.0563 0.56627 0.0
O276 O 0.65089 0.07752 0.48343 0.0
O277 O 0.50725 0.08416 0.49986 0.0
O278 O 0.67674 0.02867 0.49999 0.0
O279 O 0.55154 0.0438 0.49131 0.0
Co280 Co 0.38965 0.94164 0.22622 0.0
O281 O 0.40983 0.94213 0.1785 0.0
O282 O 0.51891 0.93738 0.21656 0.0
C283 C 0.30727 0.96575 0.22857 0.0
O284 O 0.38778 0.94087 0.27819 0.0
Co285 Co 0.18963 0.9356 0.24769 0.0
O286 O 0.23804 0.94015 0.29346 0.0
C287 C 0.29791 0.90656 0.22696 0.0
C288 C 0.49524 0.93905 0.18495 0.0
C289 C 0.32329 0.9409 0.30078 0.0
O290 O 0.36656 0.91661 0.22435 0.0
O291 O 0.21643 0.91158 0.2338 0.0
O292 O 0.39641 0.96599 0.22839 0.0
O293 O 0.27027 0.95099 0.22301 0.0
Co294 Co 0.31752 0.80369 0.2446 0.0
O295 O 0.30489 0.80133 0.19673 0.0
O296 O 0.19064 0.80827 0.23108 0.0
C297 C 0.39689 0.7796 0.25204 0.0
O298 O 0.31226 0.80678 0.29638 0.0
Co299 Co 0.51656 0.80898 0.27018 0.0
O300 O 0.45872 0.80385 0.31444 0.0
C301 C 0.41801 0.83768 0.24042 0.0
C302 C 0.21943 0.80531 0.20041 0.0
C303 C 0.37276 0.80534 0.3203 0.0
O304 O 0.34623 0.82833 0.23887 0.0
O305 O 0.49702 0.83217 0.24963 0.0
O306 O 0.30778 0.77929 0.25038 0.0
O307 O 0.4352 0.79406 0.24527 0.0
Co308 Co 0.38821 0.80297 0.53954 0.0
O309 O 0.40909 0.80284 0.5872 0.0
O310 O 0.51688 0.80806 0.54893 0.0
C311 C 0.31013 0.77824 0.5383 0.0
O312 O 0.38461 0.8035 0.48757 0.0
Co313 Co 0.1846 0.80697 0.51835 0.0
O314 O 0.23434 0.80264 0.4727 0.0
C315 C 0.2894 0.83723 0.53659 0.0
C316 C 0.49396 0.80631 0.5806 0.0
C317 C 0.3196 0.8028 0.46517 0.0
O318 O 0.36016 0.8278 0.54065 0.0
O319 O 0.20908 0.83141 0.53012 0.0
O320 O 0.39923 0.77863 0.53813 0.0
O321 O 0.27127 0.79288 0.54306 0.0
Co322 Co 0.30722 0.94246 0.52076 0.0
O323 O 0.29228 0.94504 0.56839 0.0
O324 O 0.1789 0.93865 0.53318 0.0
C325 C 0.39143 0.96602 0.51393 0.0
O326 O 0.30526 0.93915 0.46905 0.0
Co327 Co 0.50593 0.93556 0.49705 0.0
O328 O 0.45328 0.94173 0.45264 0.0
C329 C 0.39628 0.90733 0.5233 0.0
C330 C 0.20659 0.9414 0.56407 0.0
C331 C 0.36787 0.94039 0.44583 0.0
O332 O 0.32947 0.91767 0.52704 0.0
O333 O 0.4759 0.91177 0.51268 0.0
O334 O 0.30236 0.96682 0.51463 0.0
O335 O 0.42689 0.95133 0.52107 0.0
Co336 Co 0.56999 0.55222 0.26574 0.0
O337 O 0.55504 0.54939 0.31342 0.0
O338 O 0.44149 0.55557 0.27806 0.0
C339 C 0.65578 0.52896 0.25807 0.0
O340 O 0.56701 0.55584 0.21412 0.0
Co341 Co 0.76815 0.55966 0.24166 0.0
O342 O 0.71475 0.55433 0.19695 0.0
C343 C 0.65643 0.58754 0.26816 0.0
C344 C 0.469 0.55272 0.30893 0.0
C345 C 0.62894 0.55532 0.19058 0.0
O346 O 0.59054 0.57702 0.27224 0.0
O347 O 0.73607 0.58332 0.25725 0.0
O348 O 0.56681 0.52789 0.25912 0.0
O349 O 0.69041 0.54365 0.26567 0.0
Co350 Co 0.661 0.69124 0.27346 0.0
O351 O 0.688 0.69194 0.32065 0.0
O352 O 0.78956 0.68525 0.28103 0.0
C353 C 0.58804 0.71609 0.27086 0.0
O354 O 0.64933 0.68985 0.22171 0.0
Co355 Co 0.45252 0.68828 0.25683 0.0
O356 O 0.49689 0.69041 0.20977 0.0
C357 C 0.55389 0.65784 0.2764 0.0
C358 C 0.7709 0.68757 0.31294 0.0
C359 C 0.58099 0.6901 0.20059 0.0
O360 O 0.62747 0.66672 0.27712 0.0
O361 O 0.47379 0.6641 0.27137 0.0
O362 O 0.67711 0.71557 0.27014 0.0
O363 O 0.54709 0.70194 0.27818 0.0
Co364 Co 0.5949 0.68872 0.97963 0.0
O365 O 0.58893 0.69118 0.93157 0.0
O366 O 0.46903 0.68516 0.96398 0.0
C367 C 0.679 0.71217 0.98895 0.0
O368 O 0.58308 0.68551 0.03117 0.0
Co369 Co 0.78972 0.68167 0.00823 0.0
O370 O 0.72783 0.68793 0.05117 0.0
C371 C 0.68506 0.65366 0.9784 0.0
C372 C 0.50218 0.68786 0.9338 0.0
C373 C 0.64123 0.68668 0.05591 0.0
O374 O 0.61736 0.66384 0.97463 0.0
O375 O 0.7644 0.65839 0.9889 0.0
O376 O 0.59055 0.71321 0.9852 0.0
O377 O 0.71438 0.69739 0.98275 0.0
Co378 Co 0.64639 0.55083 0.97134 0.0
O379 O 0.66461 0.54935 0.92368 0.0
O380 O 0.77429 0.55588 0.96036 0.0
C381 C 0.56886 0.52624 0.97663 0.0
O382 O 0.6456 0.55283 0.02316 0.0
Co383 Co 0.44608 0.55636 0.99241 0.0
O384 O 0.49575 0.55302 0.0384 0.0
C385 C 0.54998 0.58551 0.96959 0.0
C386 C 0.74933 0.55342 0.92907 0.0
C387 C 0.58107 0.5529 0.04575 0.0
O388 O 0.61917 0.5756 0.96719 0.0
O389 O 0.46927 0.58035 0.97725 0.0
O390 O 0.65798 0.52665 0.97601 0.0
O391 O 0.52882 0.54058 0.96959 0.0
Co392 Co 0.43175 0.44257 0.73478 0.0
O393 O 0.4475 0.4455 0.68716 0.0
O394 O 0.56003 0.43882 0.72262 0.0
C395 C 0.34748 0.46602 0.74247 0.0
O396 O 0.43485 0.43882 0.78636 0.0
Co397 Co 0.23362 0.43557 0.75907 0.0
O398 O 0.28744 0.43963 0.80418 0.0
C399 C 0.34442 0.40731 0.73365 0.0
C400 C 0.53309 0.44179 0.69174 0.0
C401 C 0.37348 0.43877 0.81011 0.0
O402 O 0.40941 0.41784 0.72796 0.0
O403 O 0.26569 0.41164 0.74524 0.0
O404 O 0.43657 0.46686 0.74172 0.0
O405 O 0.31174 0.45144 0.73475 0.0
Co406 Co 0.34624 0.30311 0.74116 0.0
O407 O 0.32108 0.30124 0.69393 0.0
O408 O 0.21702 0.30819 0.73242 0.0
C409 C 0.42286 0.27856 0.74593 0.0
O410 O 0.35339 0.30536 0.79281 0.0
Co411 Co 0.54868 0.30831 0.75894 0.0
O412 O 0.50393 0.30771 0.80626 0.0
C413 C 0.44785 0.33683 0.73265 0.0
C414 C 0.23715 0.30529 0.70082 0.0
C415 C 0.41959 0.3065 0.81456 0.0
O416 O 0.37525 0.32779 0.73551 0.0
O417 O 0.5288 0.33085 0.73656 0.0
O418 O 0.33381 0.279 0.74691 0.0
O419 O 0.46311 0.29265 0.73733 0.0
Co420 Co 0.43551 0.29886 0.03392 0.0
O421 O 0.45121 0.29755 0.08185 0.0
O422 O 0.56321 0.30362 0.04582 0.0
C423 C 0.35679 0.27476 0.02706 0.0
O424 O 0.43548 0.30075 0.98197 0.0
Co425 Co 0.23158 0.3044 0.01229 0.0
O426 O 0.28533 0.30231 0.96658 0.0
C427 C 0.33841 0.3335 0.03502 0.0
C428 C 0.53661 0.30127 0.07696 0.0
C429 C 0.37076 0.30152 0.95938 0.0
O430 O 0.40846 0.32374 0.0372 0.0
O431 O 0.25745 0.32824 0.02787 0.0
O432 O 0.44548 0.27438 0.03027 0.0
O433 O 0.31835 0.2892 0.03411 0.0
Co434 Co 0.35482 0.43805 0.02901 0.0
O435 O 0.33511 0.43939 0.07663 0.0
O436 O 0.22619 0.43329 0.03934 0.0
C437 C 0.43366 0.46255 0.02476 0.0
O438 O 0.35711 0.43634 0.97712 0.0
Co439 Co 0.55538 0.43248 0.00817 0.0
O440 O 0.50731 0.43711 0.96239 0.0
C441 C 0.4509 0.40341 0.03148 0.0
C442 C 0.25024 0.43564 0.07075 0.0
C443 C 0.42218 0.43707 0.95478 0.0
O444 O 0.38105 0.41321 0.03309 0.0
O445 O 0.53177 0.40864 0.0242 0.0
O446 O 0.34454 0.46227 0.02477 0.0
O447 O 0.47284 0.44809 0.03151 0.0
C448 C 0.09084 0.03963 0.1189 0.0
C449 C 0.11293 0.05425 0.09945 0.0
C450 C 0.13996 0.07048 0.15135 0.0
C451 C 0.12019 0.05574 0.17085 0.0
N452 N 0.09103 0.02568 0.17363 0.0
N453 N 0.17201 0.0827 0.09616 0.0
C454 C 0.09897 0.04015 0.15475 0.0
C455 C 0.14174 0.06941 0.11544 0.0
N456 N 0.06145 0.02525 0.1029 0.0
N457 N 0.15534 0.08559 0.16736 0.0
H458 H 0.17422 0.08225 0.06986 0.0
H459 H 0.20186 0.09364 0.10594 0.0
H460 H 0.15699 0.08675 0.19356 0.0
H461 H 0.16021 0.09721 0.15502 0.0
H462 H 0.03222 0.01491 0.11526 0.0
H463 H 0.0639 0.0239 0.07672 0.0
H464 H 0.08686 0.01355 0.16338 0.0
H465 H 0.09388 0.02565 0.19994 0.0
C466 C 0.18983 0.20011 0.10839 0.0
C467 C 0.1353 0.18898 0.08826 0.0
C468 C 0.07126 0.17647 0.14003 0.0
C469 C 0.12912 0.18711 0.16002 0.0
N470 N 0.26171 0.20563 0.16227 0.0
N471 N 0.03828 0.16417 0.08521 0.0
C472 C 0.19413 0.19784 0.14396 0.0
C473 C 0.07934 0.17656 0.10413 0.0
N474 N 0.23583 0.2133 0.09363 0.0
N475 N 0.00897 0.16605 0.15546 0.0
H476 H 0.04179 0.16372 0.05897 0.0
H477 H 0.00666 0.15351 0.09553 0.0
H478 H 0.00866 0.16395 0.1814 0.0
H479 H 0.95579 0.15993 0.14272 0.0
H480 H 0.26608 0.22313 0.10728 0.0
H481 H 0.23681 0.21536 0.06771 0.0
H482 H 0.31696 0.21197 0.15123 0.0
H483 H 0.26874 0.20443 0.18828 0.0
C484 C 0.84474 0.94984 0.9006 0.0
C485 C 0.88057 0.93479 0.91511 0.0
C486 C 0.91124 0.92346 0.85825 0.0
C487 C 0.86627 0.93772 0.8438 0.0
N488 N 0.77454 0.96309 0.85209 0.0
N489 N 0.93421 0.90606 0.90813 0.0
C490 C 0.82832 0.95048 0.86524 0.0
C491 C 0.91031 0.92127 0.89399 0.0
N492 N 0.83049 0.96386 0.92023 0.0
N493 N 0.95414 0.91188 0.83795 0.0
H494 H 0.93304 0.9039 0.93411 0.0
H495 H 0.94675 0.89511 0.89416 0.0
H496 H 0.95359 0.91259 0.81169 0.0
H497 H 0.99639 0.90225 0.84711 0.0
H498 H 0.8154 0.97579 0.91029 0.0
H499 H 0.84192 0.96403 0.9462 0.0
H500 H 0.7364 0.97142 0.86695 0.0
H501 H 0.76195 0.9645 0.8264 0.0
C502 C 0.96298 0.79478 0.90206 0.0
C503 C 0.89704 0.80527 0.91805 0.0
C504 C 0.85259 0.81683 0.86238 0.0
C505 C 0.9067 0.80419 0.84637 0.0
N506 N 0.00591 0.77964 0.85148 0.0
N507 N 0.78125 0.8271 0.91367 0.0
C508 C 0.96007 0.7928 0.86639 0.0
C509 C 0.84249 0.81652 0.89816 0.0
N510 N 0.0303 0.78706 0.92059 0.0
N511 N 0.81522 0.82973 0.84372 0.0
H512 H 0.78021 0.82877 0.93974 0.0
H513 H 0.73008 0.83377 0.90091 0.0
H514 H 0.82165 0.83061 0.81759 0.0
H515 H 0.78446 0.8404 0.8543 0.0
H516 H 0.08539 0.78059 0.90976 0.0
H517 H 0.03756 0.78873 0.94651 0.0
H518 H 0.03596 0.76977 0.8651 0.0
H519 H 0.00693 0.77766 0.82551 0.0
C520 C 0.15794 0.54061 0.63514 0.0
C521 C 0.12124 0.5537 0.65609 0.0
C522 C 0.08281 0.57018 0.60542 0.0
C523 C 0.11097 0.55642 0.58468 0.0
N524 N 0.15783 0.52716 0.58011 0.0
N525 N 0.03537 0.57986 0.66074 0.0
C526 C 0.14402 0.54126 0.59959 0.0
C527 C 0.07904 0.5681 0.64109 0.0
N528 N 0.20753 0.52762 0.64905 0.0
N529 N 0.06272 0.58552 0.59098 0.0
H530 H 0.03313 0.57923 0.68698 0.0
H531 H 0.99472 0.58956 0.65091 0.0
H532 H 0.0658 0.58761 0.565 0.0
H533 H 0.05187 0.59657 0.60482 0.0
H534 H 0.24497 0.51894 0.63475 0.0
H535 H 0.21691 0.52615 0.67493 0.0
H536 H 0.17074 0.51518 0.59016 0.0
H537 H 0.14882 0.52709 0.554 0.0
C538 C 0.1855 0.67906 0.63969 0.0
C539 C 0.14528 0.69325 0.65614 0.0
C540 C 0.11839 0.70667 0.60062 0.0
C541 C 0.14951 0.69173 0.58444 0.0
N542 N 0.19533 0.66249 0.58822 0.0
N543 N 0.05932 0.71952 0.65156 0.0
C544 C 0.17833 0.67759 0.60395 0.0
C545 C 0.10759 0.70675 0.63637 0.0
N546 N 0.23025 0.66691 0.65805 0.0
N547 N 0.10207 0.72097 0.582 0.0
H548 H 0.0513 0.72047 0.67758 0.0
H549 H 0.02149 0.72853 0.63821 0.0
H550 H 0.1066 0.72124 0.55571 0.0
H551 H 0.09066 0.73285 0.59274 0.0
H552 H 0.26889 0.65723 0.6471 0.0
H553 H 0.23566 0.66722 0.68424 0.0
H554 H 0.20799 0.65119 0.60106 0.0
H555 H 0.18661 0.66093 0.56228 0.0
C556 C 0.85062 0.45383 0.39825 0.0
C557 C 0.87205 0.43801 0.41336 0.0
C558 C 0.89512 0.4254 0.35727 0.0
C559 C 0.86725 0.44089 0.34204 0.0
N560 N 0.79892 0.46873 0.34839 0.0
N561 N 0.89466 0.40797 0.40786 0.0
C562 C 0.83908 0.45477 0.36265 0.0
C563 C 0.88869 0.42357 0.39296 0.0
N564 N 0.84476 0.46811 0.41769 0.0
N565 N 0.92687 0.41236 0.33771 0.0
H566 H 0.88517 0.40633 0.43375 0.0
H567 H 0.89868 0.39662 0.39451 0.0
H568 H 0.9296 0.41292 0.31144 0.0
H569 H 0.95688 0.40143 0.34758 0.0
H570 H 0.84157 0.48032 0.40762 0.0
H571 H 0.84949 0.46789 0.44394 0.0
H572 H 0.76791 0.47833 0.36241 0.0
H573 H 0.78968 0.4701 0.32248 0.0
C574 C 0.81462 0.29252 0.37358 0.0
C575 C 0.86518 0.30584 0.35818 0.0
C576 C 0.90627 0.31708 0.41445 0.0
C577 C 0.85929 0.30327 0.42973 0.0
N578 N 0.78582 0.27606 0.42432 0.0
N579 N 0.94005 0.33298 0.36329 0.0
C580 C 0.81781 0.29055 0.40935 0.0
C581 C 0.90611 0.31869 0.37854 0.0
N582 N 0.76076 0.28214 0.35431 0.0
N583 N 0.9526 0.32847 0.43418 0.0
H584 H 0.93795 0.33484 0.33724 0.0
H585 H 0.96258 0.34369 0.37617 0.0
H586 H 0.95271 0.328 0.46044 0.0
H587 H 0.99652 0.33777 0.42485 0.0
H588 H 0.71518 0.27328 0.36433 0.0
H589 H 0.75406 0.2835 0.32829 0.0
H590 H 0.7632 0.26547 0.41101 0.0
H591 H 0.79132 0.27392 0.45024 0.0
C592 C 0.5917 0.06807 0.6594 0.0
C593 C 0.6377 0.05405 0.67436 0.0
C594 C 0.69081 0.04485 0.61811 0.0
C595 C 0.63464 0.05741 0.60287 0.0
N596 N 0.53357 0.08157 0.60866 0.0
N597 N 0.72171 0.0278 0.66754 0.0
C598 C 0.5858 0.0692 0.62352 0.0
C599 C 0.68493 0.04214 0.65355 0.0
N600 N 0.55773 0.08078 0.67933 0.0
N601 N 0.75128 0.03566 0.59904 0.0
H602 H 0.721 0.02536 0.69335 0.0
H603 H 0.74566 0.01758 0.65337 0.0
H604 H 0.75848 0.03711 0.57308 0.0
H605 H 0.80118 0.02772 0.6094 0.0
H606 H 0.5343 0.09236 0.67004 0.0
H607 H 0.55869 0.08038 0.7056 0.0
H608 H 0.48558 0.0889 0.6216 0.0
H609 H 0.536 0.08418 0.58286 0.0
C610 C 0.62132 0.20477 0.64624 0.0
C611 C 0.61634 0.18838 0.66109 0.0
C612 C 0.60497 0.17555 0.60482 0.0
C613 C 0.61932 0.19168 0.58986 0.0
N614 N 0.64935 0.22159 0.59582 0.0
N615 N 0.62173 0.15809 0.65488 0.0
C616 C 0.62981 0.2063 0.61048 0.0
C617 C 0.6133 0.17374 0.64041 0.0
N618 N 0.61521 0.21885 0.66624 0.0
N619 N 0.58276 0.16198 0.58499 0.0
H620 H 0.63291 0.15659 0.68072 0.0
H621 H 0.62803 0.14689 0.64114 0.0
H622 H 0.57538 0.16294 0.55887 0.0
H623 H 0.56321 0.15023 0.59464 0.0
H624 H 0.60715 0.23109 0.65681 0.0
H625 H 0.61327 0.21818 0.69254 0.0
H626 H 0.66902 0.2323 0.60939 0.0
H627 H 0.64977 0.22333 0.56969 0.0
C628 C 0.39476 0.92682 0.3893 0.0
C629 C 0.34532 0.93889 0.40914 0.0
C630 C 0.30102 0.95394 0.35755 0.0
C631 C 0.34499 0.94139 0.33754 0.0
N632 N 0.4262 0.91477 0.33407 0.0
N633 N 0.23024 0.96093 0.41103 0.0
C634 C 0.39042 0.92756 0.35333 0.0
C635 C 0.29175 0.95151 0.39295 0.0
N636 N 0.44593 0.91456 0.40501 0.0
N637 N 0.27108 0.96858 0.34269 0.0
H638 H 0.21845 0.95905 0.43668 0.0
H639 H 0.18364 0.96927 0.39987 0.0
H640 H 0.28112 0.97105 0.31708 0.0
H641 H 0.24655 0.97895 0.35628 0.0
H642 H 0.4939 0.90697 0.39267 0.0
H643 H 0.44265 0.9123 0.43092 0.0
H644 H 0.44926 0.90327 0.34383 0.0
H645 H 0.42869 0.9152 0.30781 0.0
C646 C 0.38482 0.81739 0.41366 0.0
C647 C 0.34064 0.80312 0.42835 0.0
C648 C 0.2909 0.79384 0.3719 0.0
C649 C 0.34665 0.8065 0.35683 0.0
N650 N 0.44726 0.83065 0.36351 0.0
N651 N 0.26694 0.77599 0.42089 0.0
C652 C 0.39388 0.81834 0.37787 0.0
C653 C 0.29808 0.79084 0.40722 0.0
N654 N 0.41386 0.8305 0.43361 0.0
N655 N 0.22899 0.785 0.35291 0.0
H656 H 0.27498 0.77309 0.44642 0.0
H657 H 0.24291 0.76589 0.4064 0.0
H658 H 0.21795 0.78748 0.32741 0.0
H659 H 0.18128 0.77661 0.36329 0.0
H660 H 0.43544 0.84217 0.42413 0.0
H661 H 0.41014 0.83032 0.45986 0.0
H662 H 0.49377 0.83808 0.37698 0.0
H663 H 0.44717 0.833 0.33765 0.0
C664 C 0.6477 0.56721 0.09738 0.0
C665 C 0.60262 0.55309 0.08252 0.0
C666 C 0.54941 0.5439 0.13857 0.0
C667 C 0.60444 0.55656 0.15397 0.0
N668 N 0.70522 0.58079 0.14808 0.0
N669 N 0.52862 0.52599 0.08962 0.0
C670 C 0.65339 0.56837 0.13328 0.0
C671 C 0.55874 0.54087 0.1034 0.0
N672 N 0.68162 0.57988 0.07733 0.0
N673 N 0.48628 0.53504 0.15705 0.0
H674 H 0.53866 0.52304 0.06422 0.0
H675 H 0.50389 0.51589 0.104 0.0
H676 H 0.47388 0.53736 0.1825 0.0
H677 H 0.43894 0.52674 0.14622 0.0
H678 H 0.70438 0.59152 0.08649 0.0
H679 H 0.68229 0.57924 0.05107 0.0
H680 H 0.75287 0.58819 0.13508 0.0
H681 H 0.70274 0.5834 0.17388 0.0
C682 C 0.64658 0.67514 0.14967 0.0
C683 C 0.59727 0.68905 0.16345 0.0
C684 C 0.54912 0.69738 0.10604 0.0
C685 C 0.6115 0.68546 0.09211 0.0
N686 N 0.71767 0.66226 0.10086 0.0
N687 N 0.50953 0.71472 0.15419 0.0
C688 C 0.65956 0.67414 0.11409 0.0
C689 C 0.55049 0.70049 0.14144 0.0
N690 N 0.6765 0.66232 0.17024 0.0
N691 N 0.48643 0.7054 0.08591 0.0
H692 H 0.50782 0.71754 0.17985 0.0
H693 H 0.48464 0.72452 0.13906 0.0
H694 H 0.47999 0.703 0.0602 0.0
H695 H 0.43363 0.71297 0.09536 0.0
H696 H 0.70232 0.65085 0.16129 0.0
H697 H 0.66824 0.66234 0.19636 0.0
H698 H 0.76521 0.65546 0.11517 0.0
H699 H 0.72042 0.65963 0.07516 0.0
C700 C 0.44911 0.44948 0.86328 0.0
C701 C 0.39922 0.43661 0.84636 0.0
C702 C 0.363 0.42342 0.9014 0.0
C703 C 0.40136 0.4377 0.91803 0.0
N704 N 0.46367 0.46595 0.91448 0.0
N705 N 0.30858 0.41094 0.84913 0.0
C706 C 0.43948 0.45119 0.89879 0.0
C707 C 0.35612 0.42346 0.86546 0.0
N708 N 0.50769 0.45979 0.84581 0.0
N709 N 0.33689 0.40953 0.91975 0.0
H710 H 0.30989 0.40946 0.82296 0.0
H711 H 0.26532 0.40237 0.86135 0.0
H712 H 0.33799 0.40922 0.94606 0.0
H713 H 0.31953 0.39791 0.909 0.0
H714 H 0.55144 0.46845 0.85752 0.0
H715 H 0.52053 0.45833 0.82012 0.0
H716 H 0.48398 0.47682 0.90146 0.0
H717 H 0.45287 0.46788 0.94022 0.0
C718 C 0.42786 0.31902 0.87261 0.0
C719 C 0.40048 0.30543 0.85135 0.0
C720 C 0.35562 0.28895 0.90115 0.0
C721 C 0.39242 0.30181 0.92262 0.0
N722 N 0.47582 0.32816 0.92832 0.0
N723 N 0.3565 0.27604 0.84572 0.0
C724 C 0.43313 0.3165 0.90818 0.0
C725 C 0.36939 0.28999 0.86569 0.0
N726 N 0.44458 0.3346 0.85881 0.0
N727 N 0.30506 0.27593 0.9144 0.0
H728 H 0.36503 0.27623 0.81959 0.0
H729 H 0.34502 0.26393 0.8554 0.0
H730 H 0.29375 0.27441 0.94014 0.0
H731 H 0.26802 0.26739 0.89963 0.0
H732 H 0.45632 0.3455 0.87302 0.0
H733 H 0.43635 0.33696 0.83309 0.0
H734 H 0.51448 0.33823 0.91888 0.0
H735 H 0.47913 0.32707 0.9545 0.0
C736 C 0.29921 -0.00287 0.2238 0.0
C737 C 0.25709 0.98187 0.23501 0.0
C738 C 0.17224 -0.00236 0.27771 0.0
C739 C 0.21404 0.01296 0.26667 0.0
N740 N 0.33776 0.02632 0.23627 0.0
N741 N 0.12646 0.96924 0.26248 0.0
C742 C 0.28322 0.01251 0.24156 0.0
C743 C 0.18574 0.98252 0.25911 0.0
N744 N 0.35095 -0.00307 0.19498 0.0
N745 N 0.12193 -0.00247 0.30687 0.0
H746 H 0.12528 0.95935 0.24517 0.0
H747 H 0.06949 0.96942 0.27844 0.0
H748 H 0.11571 0.00827 0.32213 0.0
H749 H 0.09614 0.98649 0.31782 0.0
H750 H 0.37674 0.0078 0.18342 0.0
H751 H 0.35881 0.98596 0.18047 0.0
H752 H 0.39376 0.02643 0.21989 0.0
H753 H 0.33533 0.03687 0.25191 0.0
C754 C 0.98489 0.25494 0.28769 0.0
C755 C 0.99202 0.26474 0.25766 0.0
C756 C 0.08393 0.24229 0.23138 0.0
C757 C 0.07865 0.23281 0.26181 0.0
N758 N 0.0465 0.23205 0.32155 0.0
N759 N 0.05984 0.26905 0.20255 0.0
C760 C 0.03557 0.23968 0.29075 0.0
C761 C 0.04608 0.25891 0.23015 0.0
N762 N 0.92811 0.26003 0.31317 0.0
N763 N 0.12061 0.23504 0.20312 0.0
H764 H 0.02845 0.28081 0.19933 0.0
H765 H 0.10751 0.26636 0.18368 0.0
H766 H 0.14927 0.22297 0.20325 0.0
H767 H 0.11658 0.24032 0.17906 0.0
H768 H 0.91025 0.25237 0.3336 0.0
H769 H 0.89427 0.27161 0.31279 0.0
H770 H 0.0252 0.23752 0.34416 0.0
H771 H 0.08509 0.22104 0.32509 0.0
C772 C 0.28636 0.23584 0.97578 0.0
C773 C 0.21033 0.22999 0.99494 0.0
C774 C 0.22973 0.25368 0.03489 0.0
C775 C 0.30527 0.25959 0.01557 0.0
N776 N 0.41575 0.25486 0.97062 0.0
N777 N 0.10189 0.23439 0.04074 0.0
C778 C 0.337 0.25017 0.98712 0.0
C779 C 0.17938 0.2393 0.0237 0.0
N780 N 0.30467 0.22882 0.94487 0.0
N781 N 0.21179 0.26071 0.06584 0.0
H782 H 0.07123 0.22255 0.03812 0.0
H783 H 0.06641 0.24228 0.05733 0.0
H784 H 0.24941 0.27073 0.07602 0.0
H785 H 0.16585 0.2556 0.08325 0.0
H786 H 0.351 0.23395 0.9276 0.0
H787 H 0.26716 0.21882 0.9346 0.0
H788 H 0.45113 0.24689 0.95416 0.0
H789 H 0.44757 0.26658 0.97362 0.0
C790 C 0.95288 0.00835 0.02471 0.0
C791 C 0.01663 0.01111 0.99827 0.0
C792 C 0.03491 0.98032 0.99099 0.0
C793 C 0.97166 0.97765 0.01751 0.0
N794 N 0.89143 0.98858 0.06586 0.0
N795 N 0.09834 8e-05 0.95019 0.0
C796 C 0.937 0.99156 0.03624 0.0
C797 C 0.05226 -0.00286 0.97973 0.0
N798 N 0.9035 0.02158 0.03743 0.0
N799 N 0.08141 0.96686 0.97775 0.0
H800 H 0.10634 0.01226 0.94023 0.0
H801 H 0.11953 0.99055 0.93377 0.0
H802 H 0.07596 0.95478 0.98812 0.0
H803 H 0.13349 0.96794 0.95984 0.0
H804 H 0.85088 0.02022 0.05506 0.0
H805 H 0.90672 0.03362 0.02696 0.0
H806 H 0.87179 -0.00189 0.08256 0.0
H807 H 0.88248 0.97635 0.07547 0.0
C808 C 0.65945 0.00149 0.73958 0.0
C809 C 0.68977 0.01054 0.76871 0.0
C810 C 0.80846 0.98916 0.77911 0.0
C811 C 0.77755 0.97996 0.75029 0.0
N812 N 0.68816 0.97916 0.69896 0.0
N813 N 0.77537 0.0106 0.82094 0.0
C814 C 0.70572 0.98641 0.72973 0.0
C815 C 0.76023 0.00387 0.78955 0.0
N816 N 0.58642 0.00729 0.72105 0.0
N817 N 0.88471 0.984 0.7966 0.0
H818 H 0.73869 0.02085 0.83063 0.0
H819 H 0.81724 0.00492 0.83907 0.0
H820 H 0.91557 0.97219 0.79363 0.0
H821 H 0.91943 0.99173 0.81371 0.0
H822 H 0.55031 -0.00017 0.70388 0.0
H823 H 0.56014 0.01952 0.72295 0.0
H824 H 0.64559 0.98451 0.6807 0.0
H825 H 0.7225 0.96849 0.68989 0.0
C826 C 0.00186 0.73802 0.78244 0.0
C827 C 0.06904 0.73256 0.75889 0.0
C828 C 0.04265 0.75792 0.72414 0.0
C829 C 0.97442 0.76331 0.74739 0.0
N830 N 0.88147 0.75781 0.79705 0.0
N831 N 0.16798 0.73894 0.71124 0.0
C832 C 0.95176 0.75314 0.77601 0.0
C833 C 0.09424 0.74306 0.73111 0.0
N834 N 0.9921 0.72964 0.81255 0.0
N835 N 0.05198 0.76598 0.69368 0.0
H836 H 0.20068 0.7272 0.71175 0.0
H837 H 0.19896 0.74748 0.69467 0.0
H838 H 0.01302 0.77647 0.68646 0.0
H839 H 0.09161 0.76129 0.67388 0.0
H840 H 0.95308 0.73414 0.83268 0.0
H841 H 0.03015 0.71893 0.81913 0.0
H842 H 0.85071 0.74962 0.81432 0.0
H843 H 0.85172 0.76982 0.79697 0.0
C844 C 0.80282 0.73352 0.97641 0.0
C845 C 0.73386 0.72728 0.99858 0.0
C846 C 0.76247 0.751 0.03741 0.0
C847 C 0.82271 0.75829 0.01341 0.0
N848 N 0.89588 0.75741 0.95882 0.0
N849 N 0.64024 0.73114 0.04855 0.0
C850 C 0.84274 0.74969 0.98276 0.0
C851 C 0.71141 0.73634 0.02858 0.0
N852 N 0.82903 0.72424 0.94886 0.0
N853 N 0.75738 0.75758 0.06933 0.0
H854 H 0.60408 0.72002 0.04425 0.0
H855 H 0.61295 0.73843 0.06806 0.0
H856 H 0.79569 0.76805 0.07716 0.0
H857 H 0.72271 0.75165 0.08911 0.0
H858 H 0.88714 0.72699 0.93449 0.0
H859 H 0.79608 0.71318 0.94115 0.0
H860 H 0.90345 0.75301 0.93421 0.0
H861 H 0.92752 0.76904 0.96283 0.0
C862 C 0.17831 0.50232 0.7305 0.0
C863 C 0.20168 0.51275 0.7586 0.0
C864 C 0.30878 0.49102 0.77866 0.0
C865 C 0.29233 0.48145 0.74889 0.0
N866 N 0.22547 0.47966 0.69321 0.0
N867 N 0.29195 0.51741 0.80909 0.0
C868 C 0.23022 0.48743 0.72405 0.0
C869 C 0.26836 0.50729 0.7824 0.0
N870 N 0.10687 0.50658 0.70966 0.0
N871 N 0.35935 0.48411 0.80426 0.0
H872 H 0.25643 0.52838 0.81574 0.0
H873 H 0.3497 0.51532 0.82409 0.0
H874 H 0.38903 0.4722 0.8024 0.0
H875 H 0.36513 0.48936 0.82827 0.0
H876 H 0.07839 0.49816 0.69227 0.0
H877 H 0.07362 0.51827 0.71019 0.0
H878 H 0.19011 0.48475 0.67269 0.0
H879 H 0.26391 0.46897 0.68687 0.0
C880 C 0.31368 0.74691 0.5316 0.0
C881 C 0.26263 0.76219 0.52877 0.0
C882 C 0.1639 0.74894 0.48661 0.0
C883 C 0.2165 0.73376 0.48886 0.0
N884 N 0.36368 0.72158 0.50294 0.0
N885 N 0.11654 0.7747 0.5147 0.0
C886 C 0.29763 0.73354 0.50851 0.0
C887 C 0.18105 0.76243 0.50943 0.0
N888 N 0.37499 0.74495 0.55745 0.0
N889 N 0.10168 0.75087 0.46104 0.0
H890 H 0.12054 0.78301 0.53506 0.0
H891 H 0.05276 0.77482 0.50269 0.0
H892 H 0.09413 0.74185 0.44196 0.0
H893 H 0.06737 0.76223 0.45623 0.0
H894 H 0.40839 0.73352 0.56251 0.0
H895 H 0.3829 0.75411 0.57626 0.0
H896 H 0.42686 0.72153 0.51538 0.0
H897 H 0.36209 0.71369 0.4819 0.0
C898 C 0.02083 0.48424 0.48055 0.0
C899 C 0.96232 0.48236 0.50887 0.0
C900 C 0.94326 0.51333 0.51193 0.0
C901 C 0.00301 0.51507 0.48408 0.0
N902 N 0.07405 0.50258 0.43541 0.0
N903 N 0.88469 0.49503 0.55629 0.0
C904 C 0.03376 0.50056 0.46634 0.0
C905 C 0.9279 0.49694 0.52585 0.0
N906 N 0.06914 0.47068 0.46874 0.0
N907 N 0.89772 0.52722 0.52378 0.0
H908 H 0.87751 0.48323 0.568 0.0
H909 H 0.86472 0.50512 0.57157 0.0
H910 H 0.90086 0.53881 0.51127 0.0
H911 H 0.84827 0.52682 0.54277 0.0
H912 H 0.11755 0.47141 0.44942 0.0
H913 H 0.07091 0.45926 0.48174 0.0
H914 H 0.09071 0.49252 0.4195 0.0
H915 H 0.08137 0.51451 0.42421 0.0
C916 C 0.69407 0.50421 0.22106 0.0
C917 C 0.712 0.51375 0.25079 0.0
C918 C 0.82966 0.49323 0.26769 0.0
C919 C 0.80501 0.4828 0.23972 0.0
N920 N 0.71402 0.47825 0.18941 0.0
N921 N 0.78384 0.51572 0.3056 0.0
C922 C 0.73689 0.48821 0.21643 0.0
C923 C 0.77715 0.50797 0.27478 0.0
N924 N 0.63916 0.51086 0.1964 0.0
N925 N 0.90245 0.48905 0.28796 0.0
H926 H 0.74493 0.52626 0.3125 0.0
H927 H 0.82143 0.51073 0.32569 0.0
H928 H 0.93543 0.47733 0.28748 0.0
H929 H 0.93202 0.49752 0.30497 0.0
H930 H 0.63225 0.50578 0.17229 0.0
H931 H 0.60551 0.52235 0.19918 0.0
H932 H 0.65505 0.48005 0.17492 0.0
H933 H 0.75226 0.46776 0.18175 0.0
C934 C 0.68798 0.26325 0.50914 0.0
C935 C 0.76524 0.26297 0.53076 0.0
C936 C 0.79524 0.23333 0.51566 0.0
C937 C 0.71823 0.23352 0.49384 0.0
N938 N 0.61398 0.25054 0.46068 0.0
N939 N 0.86656 0.24588 0.56475 0.0
C940 C 0.67069 0.24904 0.48805 0.0
C941 C 0.81072 0.24737 0.53717 0.0
N942 N 0.62743 0.27644 0.51043 0.0
N943 N 0.85892 0.22067 0.51358 0.0
H944 H 0.87438 0.25573 0.58214 0.0
H945 H 0.89505 0.23437 0.57247 0.0
H946 H 0.85992 0.21218 0.49351 0.0
H947 H 0.91925 0.22051 0.5278 0.0
H948 H 0.5664 0.27679 0.49665 0.0
H949 H 0.63055 0.28557 0.52934 0.0
H950 H 0.58413 0.26197 0.45327 0.0
H951 H 0.60717 0.24089 0.44281 0.0
C952 C 0.53002 0.25858 0.77547 0.0
C953 C 0.4693 0.2619 0.74837 0.0
C954 C 0.45096 0.23135 0.73845 0.0
C955 C 0.51218 0.22814 0.76544 0.0
N956 N 0.58668 0.23801 0.81591 0.0
N957 N 0.38833 0.25202 0.69919 0.0
C958 C 0.5445 0.24161 0.78588 0.0
C959 C 0.4341 0.24839 0.7285 0.0
N960 N 0.57829 0.27151 0.7898 0.0
N961 N 0.40558 0.21819 0.72362 0.0
H962 H 0.37948 0.26442 0.69051 0.0
H963 H 0.36749 0.2429 0.68181 0.0
H964 H 0.40971 0.20594 0.73316 0.0
H965 H 0.35537 0.21959 0.7051 0.0
H966 H 0.62853 0.26983 0.80824 0.0
H967 H 0.5776 0.28362 0.77956 0.0
H968 H 0.60444 0.24719 0.83364 0.0
H969 H 0.59451 0.22559 0.82469 0.0
C970 C 0.48513 0.00694 0.47608 0.0
C971 C 0.53412 0.01355 0.50405 0.0
C972 C 0.50182 0.98764 0.53661 0.0
C973 C 0.44638 0.98168 0.5096 0.0
N974 N 0.37586 0.98644 0.45518 0.0
N975 N 0.58342 0.01116 0.56195 0.0
C976 C 0.43503 0.99161 0.47988 0.0
C977 C 0.54153 0.00408 0.5345 0.0
N978 N 0.49106 0.01471 0.44523 0.0
N979 N 0.51571 0.97772 0.56454 0.0
H980 H 0.61484 0.02296 0.56103 0.0
H981 H 0.58169 0.00606 0.58618 0.0
H982 H 0.48091 0.96639 0.56902 0.0
H983 H 0.56541 0.98022 0.58278 0.0
H984 H 0.46633 0.00936 0.42299 0.0
H985 H 0.52801 0.02585 0.44102 0.0
H986 H 0.35471 0.99413 0.43524 0.0
H987 H 0.34351 0.97471 0.45567 0.0
C988 C 0.55669 0.74223 0.23664 0.0
C989 C 0.53877 0.73227 0.26591 0.0
C990 C 0.43392 0.75407 0.28729 0.0
C991 C 0.44986 0.76383 0.25765 0.0
N992 N 0.51115 0.76578 0.20112 0.0
N993 N 0.47892 0.73038 0.32264 0.0
C994 C 0.50821 0.75767 0.2317 0.0
C995 C 0.48159 0.73854 0.29209 0.0
N996 N 0.62132 0.73711 0.21368 0.0
N997 N 0.37162 0.75952 0.31068 0.0
H998 H 0.51532 0.71929 0.32784 0.0
H999 H 0.44765 0.73532 0.34412 0.0
H1000 H 0.34111 0.77139 0.30943 0.0
H1001 H 0.34612 0.75204 0.33023 0.0
H1002 H 0.6481 0.745 0.19502 0.0
H1003 H 0.65159 0.72514 0.21382 0.0
H1004 H 0.54234 0.76072 0.17972 0.0
H1005 H 0.47525 0.77692 0.19588 0.0
C1006 C 0.43412 0.49404 0.02665 0.0
C1007 C 0.4812 0.47892 0.0176 0.0
C1008 C 0.56961 0.49472 0.97569 0.0
C1009 C 0.52232 0.50985 0.9846 0.0
N1010 N 0.38665 0.52212 0.00952 0.0
N1011 N 0.6176 0.46672 0.99319 0.0
C1012 C 0.44799 0.50908 0.00759 0.0
C1013 C 0.55598 0.47973 0.99488 0.0
N1014 N 0.37931 0.49412 0.05469 0.0
N1015 N 0.62384 0.49452 0.94751 0.0
H1016 H 0.61727 0.45685 0.01058 0.0
H1017 H 0.67697 0.4671 0.97848 0.0
H1018 H 0.62914 0.505 0.93147 0.0
H1019 H 0.65342 0.48352 0.93779 0.0
H1020 H 0.34981 0.50509 0.0646 0.0
H1021 H 0.37301 0.48353 0.07039 0.0
H1022 H 0.32768 0.52179 0.02445 0.0
H1023 H 0.38648 0.53198 0.99212 0.0
C1024 C 0.03946 0.12947 0.25849 0.0
C1025 C 0.06728 0.1404 0.2851 0.0
C1026 C 0.15318 0.11704 0.31159 0.0
C1027 C 0.1257 0.10622 0.28488 0.0
N1028 N 0.02355 0.10088 0.23768 0.0
N1029 N 0.12944 0.14379 0.34091 0.0
C1030 C 0.0624 0.11202 0.26001 0.0
C1031 C 0.1176 0.13387 0.31296 0.0
N1032 N 0.99675 0.13586 0.23045 0.0
N1033 N 0.21373 0.11125 0.33537 0.0
H1034 H 0.10246 0.15604 0.34255 0.0
H1035 H 0.15826 0.13946 0.36338 0.0
H1036 H 0.23835 0.09882 0.33563 0.0
H1037 H 0.24345 0.11894 0.35373 0.0
H1038 H 0.98926 0.12907 0.20806 0.0
H1039 H 0.97299 0.14824 0.2285 0.0
H1040 H 0.96776 0.10397 0.22234 0.0
H1041 H 0.04192 0.08816 0.23593 0.0
C1042 C 0.12612 0.12898 0.9468 0.0
C1043 C 0.14847 0.13787 0.97681 0.0
C1044 C 0.08809 0.11447 0.01106 0.0
C1045 C 0.07234 0.105 0.98117 0.0
N1046 N 0.08623 0.10205 0.92083 0.0
N1047 N 0.16559 0.13822 0.03741 0.0
C1048 C 0.09429 0.11192 0.94905 0.0
C1049 C 0.13395 0.13033 0.00891 0.0
N1050 N 0.13385 0.13697 0.91629 0.0
N1051 N 0.05844 0.10838 0.04153 0.0
H1052 H 0.19836 0.14999 0.03705 0.0
H1053 H 0.16648 0.13255 0.06115 0.0
H1054 H 0.02664 0.09661 0.04444 0.0
H1055 H 0.05841 0.11551 0.06365 0.0
H1056 H 0.10892 0.13193 0.89379 0.0
H1057 H 0.16089 0.14917 0.91379 0.0
H1058 H 0.11124 0.10559 0.89722 0.0
H1059 H 0.05868 0.08982 0.92144 0.0
C1060 C 0.84651 0.8796 0.69869 0.0
C1061 C 0.82987 0.88787 0.72987 0.0
C1062 C 0.89843 0.86408 0.76067 0.0
C1063 C 0.90915 0.85527 0.72975 0.0
N1064 N 0.88455 0.85336 0.66972 0.0
N1065 N 0.8248 0.88713 0.79074 0.0
C1066 C 0.88061 0.86267 0.6988 0.0
C1067 C 0.85116 0.87982 0.76094 0.0
N1068 N 0.83114 0.88808 0.6691 0.0
N1069 N 0.93446 0.85747 0.78977 0.0
H1070 H 0.79088 0.89877 0.79203 0.0
H1071 H 0.82937 0.88108 0.81406 0.0
H1072 H 0.96846 0.84583 0.79072 0.0
H1073 H 0.93767 0.86408 0.81248 0.0
H1074 H 0.85136 0.88355 0.64556 0.0
H1075 H 0.80196 0.90018 0.6683 0.0
H1076 H 0.85517 0.85723 0.64701 0.0
H1077 H 0.91339 0.84124 0.66878 0.0
C1078 C 0.81454 0.87832 0.00746 0.0
C1079 C 0.87514 0.88446 0.03287 0.0
C1080 C 0.8565 0.8579 0.06443 0.0
C1081 C 0.80737 0.85088 0.03678 0.0
N1082 N 0.73618 0.85457 0.98197 0.0
N1083 N 0.95435 0.88056 0.08565 0.0
C1084 C 0.7836 0.86124 0.00866 0.0
C1085 C 0.896 0.8744 0.06152 0.0
N1086 N 0.786 0.88888 0.98205 0.0
N1087 N 0.86311 0.84879 0.0937 0.0
H1088 H 0.98218 0.89275 0.08461 0.0
H1089 H 0.97943 0.87337 0.10568 0.0
H1090 H 0.83258 0.83687 0.09646 0.0
H1091 H 0.89103 0.8535 0.11599 0.0
H1092 H 0.73128 0.88616 0.96598 0.0
H1093 H 0.81353 0.90089 0.97786 0.0
H1094 H 0.7323 0.86033 0.95834 0.0
H1095 H 0.70177 0.84304 0.98272 0.0
C1096 C 0.14874 0.61411 0.73663 0.0
C1097 C 0.16144 0.60562 0.76792 0.0
C1098 C 0.11299 0.63107 0.79885 0.0
C1099 C 0.10343 0.6397 0.76762 0.0
N1100 N 0.11566 0.64036 0.70693 0.0
N1101 N 0.16308 0.60562 0.82863 0.0
C1102 C 0.12183 0.63143 0.73652 0.0
C1103 C 0.14543 0.614 0.79906 0.0
N1104 N 0.15984 0.60538 0.70702 0.0
N1105 N 0.08959 0.63923 0.82809 0.0
H1106 H 0.18722 0.59315 0.8293 0.0
H1107 H 0.15901 0.61109 0.85245 0.0
H1108 H 0.06556 0.65171 0.82844 0.0
H1109 H 0.08877 0.63357 0.8518 0.0
H1110 H 0.14129 0.61002 0.68339 0.0
H1111 H 0.18444 0.59297 0.70595 0.0
H1112 H 0.13862 0.63593 0.68369 0.0
H1113 H 0.09032 0.65273 0.70561 0.0
C1114 C 0.21701 0.62984 0.49473 0.0
C1115 C 0.19546 0.6405 0.46688 0.0
C1116 C 0.09979 0.61797 0.44207 0.0
C1117 C 0.12128 0.60739 0.46991 0.0
N1118 N 0.21417 0.60178 0.5194 0.0
N1119 N 0.1353 0.64369 0.41068 0.0
C1120 C 0.18465 0.61285 0.49505 0.0
C1121 C 0.1426 0.63418 0.43945 0.0
N1122 N 0.26307 0.63621 0.52207 0.0
N1123 N 0.03798 0.61255 0.4184 0.0
H1124 H 0.16791 0.65542 0.408 0.0
H1125 H 0.10421 0.63946 0.38857 0.0
H1126 H 0.00776 0.60054 0.41915 0.0
H1127 H 0.0125 0.62017 0.3991 0.0
H1128 H 0.26783 0.62993 0.54515 0.0
H1129 H 0.29237 0.64824 0.52279 0.0
H1130 H 0.26988 0.60418 0.53523 0.0
H1131 H 0.18704 0.58966 0.52266 0.0
C1132 C 0.90804 0.3649 0.21006 0.0
C1133 C 0.88754 0.35596 0.24018 0.0
C1134 C 0.81092 0.38101 0.26356 0.0
C1135 C 0.82713 0.38975 0.23276 0.0
N1136 N 0.87577 0.38941 0.17469 0.0
N1137 N 0.80311 0.35409 0.29267 0.0
C1138 C 0.87118 0.38148 0.20535 0.0
C1139 C 0.83353 0.36356 0.26593 0.0
N1140 N 0.96356 0.35763 0.18627 0.0
N1141 N 0.7798 0.38956 0.29138 0.0
H1142 H 0.82094 0.34142 0.29634 0.0
H1143 H 0.75426 0.35842 0.30988 0.0
H1144 H 0.76222 0.40237 0.29124 0.0
H1145 H 0.77883 0.38432 0.31553 0.0
H1146 H 0.98904 0.3641 0.16534 0.0
H1147 H 0.98947 0.34534 0.18867 0.0
H1148 H 0.89965 0.3836 0.15278 0.0
H1149 H 0.8482 0.40146 0.17053 0.0
C1150 C 0.85029 0.36556 0.56873 0.0
C1151 C 0.83565 0.35624 0.53859 0.0
C1152 C 0.91124 0.37855 0.50575 0.0
C1153 C 0.91657 0.38877 0.53512 0.0
N1154 N 0.88617 0.39279 0.59436 0.0
N1155 N 0.83629 0.35506 0.47774 0.0
C1156 C 0.88455 0.38249 0.56663 0.0
C1157 C 0.86132 0.36312 0.5069 0.0
N1158 N 0.83274 0.35812 0.59923 0.0
N1159 N 0.95509 0.3834 0.47678 0.0
H1160 H 0.79991 0.34366 0.47743 0.0
H1161 H 0.8441 0.36044 0.45387 0.0
H1162 H 0.99256 0.39461 0.47466 0.0
H1163 H 0.96183 0.37555 0.45578 0.0
H1164 H 0.8513 0.36347 0.62227 0.0
H1165 H 0.80382 0.34604 0.60137 0.0
H1166 H 0.85479 0.38972 0.61719 0.0
H1167 H 0.91566 0.40486 0.59398 0.0
C1168 C 0.65462 0.11026 0.75506 0.0
C1169 C 0.66645 0.10287 0.78738 0.0
C1170 C 0.60822 0.12883 0.81388 0.0
C1171 C 0.58639 0.13529 0.78138 0.0
N1172 N 0.57192 0.1308 0.7214 0.0
N1173 N 0.64712 0.1041 0.84767 0.0
C1174 C 0.60457 0.12559 0.75207 0.0
C1175 C 0.64126 0.11189 0.81692 0.0
N1176 N 0.6917 0.10267 0.72717 0.0
N1177 N 0.59824 0.13894 0.84164 0.0
H1178 H 0.67532 0.09201 0.85068 0.0
H1179 H 0.62004 0.10923 0.86976 0.0
H1180 H 0.57006 0.15111 0.84035 0.0
H1181 H 0.62247 0.13565 0.86551 0.0
H1182 H 0.69342 0.10841 0.70347 0.0
H1183 H 0.72833 0.09131 0.72824 0.0
H1184 H 0.57515 0.12336 0.69969 0.0
H1185 H 0.53322 0.14182 0.71828 0.0
C1186 C 0.68889 0.13073 0.51276 0.0
C1187 C 0.68147 0.13981 0.48185 0.0
C1188 C 0.60173 0.11556 0.45594 0.0
C1189 C 0.61325 0.1063 0.4863 0.0
N1190 N 0.68357 0.10365 0.54135 0.0
N1191 N 0.64679 0.14005 0.42243 0.0
C1192 C 0.66185 0.11345 0.51396 0.0
C1193 C 0.6424 0.13195 0.45292 0.0
N1194 N 0.7164 0.13881 0.54163 0.0
N1195 N 0.55094 0.10875 0.43026 0.0
H1196 H 0.67763 0.15192 0.41947 0.0
H1197 H 0.62716 0.13451 0.39969 0.0
H1198 H 0.5218 0.09667 0.43167 0.0
H1199 H 0.53201 0.11546 0.40869 0.0
H1200 H 0.7113 0.13342 0.56557 0.0
H1201 H 0.73721 0.15144 0.54248 0.0
H1202 H 0.72943 0.10743 0.5601 0.0
H1203 H 0.6612 0.09118 0.54426 0.0
C1204 C 0.3406 0.87891 0.1995 0.0
C1205 C 0.3205 0.88834 0.22908 0.0
C1206 C 0.39234 0.86644 0.26389 0.0
C1207 C 0.40272 0.85604 0.23503 0.0
N1208 N 0.38276 0.85163 0.17533 0.0
N1209 N 0.30956 0.88956 0.28983 0.0
C1210 C 0.37565 0.86208 0.20272 0.0
C1211 C 0.34075 0.8816 0.2614 0.0
N1212 N 0.32682 0.88611 0.16852 0.0
N1213 N 0.43378 0.86206 0.29358 0.0
H1214 H 0.27218 0.90085 0.28926 0.0
H1215 H 0.3135 0.88416 0.31382 0.0
H1216 H 0.47671 0.85155 0.29573 0.0
H1217 H 0.43512 0.86992 0.31471 0.0
H1218 H 0.34883 0.88067 0.14599 0.0
H1219 H 0.29709 0.89808 0.16556 0.0
H1220 H 0.35546 0.8545 0.15171 0.0
H1221 H 0.41307 0.83964 0.17673 0.0
C1222 C 0.3233 0.88131 0.49984 0.0
C1223 C 0.37285 0.88917 0.52648 0.0
C1224 C 0.34846 0.86415 0.56218 0.0
C1225 C 0.30702 0.85569 0.53441 0.0
N1226 N 0.26948 0.85519 0.47486 0.0
N1227 N 0.44058 0.88793 0.58185 0.0
C1228 C 0.29766 0.86401 0.50276 0.0
C1229 C 0.3879 0.88052 0.55736 0.0
N1230 N 0.29927 0.89047 0.47181 0.0
N1231 N 0.34746 0.85665 0.59332 0.0
H1232 H 0.46887 0.90003 0.57915 0.0
H1233 H 0.46202 0.88168 0.60364 0.0
H1234 H 0.31775 0.84479 0.59761 0.0
H1235 H 0.36895 0.86267 0.61534 0.0
H1236 H 0.25296 0.88611 0.45371 0.0
H1237 H 0.32023 0.90294 0.46772 0.0
H1238 H 0.27323 0.86003 0.45041 0.0
H1239 H 0.24968 0.84249 0.47538 0.0
C1240 C 0.55779 0.63048 0.24489 0.0
C1241 C 0.56697 0.63927 0.27597 0.0
C1242 C 0.64404 0.61459 0.3012 0.0
C1243 C 0.63131 0.60563 0.27055 0.0
N1244 N 0.56047 0.60363 0.21547 0.0
N1245 N 0.60345 0.63916 0.3352 0.0
C1246 C 0.5833 0.61315 0.24311 0.0
C1247 C 0.60568 0.63114 0.30462 0.0
N1248 N 0.52958 0.6389 0.21647 0.0
N1249 N 0.69375 0.60734 0.32671 0.0
H1250 H 0.5749 0.65121 0.3383 0.0
H1251 H 0.62287 0.63347 0.35782 0.0
H1252 H 0.72106 0.59513 0.32502 0.0
H1253 H 0.71341 0.61376 0.3485 0.0
H1254 H 0.53399 0.6338 0.19228 0.0
H1255 H 0.50812 0.65152 0.21641 0.0
H1256 H 0.51536 0.60776 0.19675 0.0
H1257 H 0.58107 0.59108 0.21229 0.0
C1258 C 0.634 0.62913 0.94248 0.0
C1259 C 0.66325 0.63541 0.97435 0.0
C1260 C 0.59269 0.61097 1.00229 0.0
C1261 C 0.57213 0.60378 0.97043 0.0
N1262 N 0.58311 0.60478 0.90982 0.0
N1263 N 0.69108 0.62998 0.03345 0.0
C1264 C 0.59575 0.6125 0.94033 0.0
C1265 C 0.64892 0.62561 1.00391 0.0
N1266 N 0.64201 0.63911 0.91442 0.0
N1267 N 0.55836 0.60385 0.03115 0.0
H1268 H 0.73769 0.63994 0.03509 0.0
H1269 H 0.68924 0.62246 0.05509 0.0
H1270 H 0.51784 0.59294 0.03122 0.0
H1271 H 0.56296 0.60966 0.05471 0.0
H1272 H 0.61221 0.6361 0.89127 0.0
H1273 H 0.67496 0.65088 0.91484 0.0
H1274 H 0.60848 0.60964 0.8872 0.0
H1275 H 0.55102 0.59298 0.90748 0.0
C1276 C 0.34222 0.37862 0.70589 0.0
C1277 C 0.37056 0.3892 0.73284 0.0
C1278 C 0.45902 0.36583 0.7578 0.0
C1279 C 0.43381 0.35537 0.73012 0.0
N1280 N 0.36576 0.3523 0.67507 0.0
N1281 N 0.46694 0.39391 0.78178 0.0
C1282 C 0.37943 0.36194 0.70331 0.0
C1283 C 0.43267 0.38312 0.75783 0.0
N1284 N 0.27928 0.38449 0.68305 0.0
N1285 N 0.50272 0.35905 0.78531 0.0
H1286 H 0.44324 0.40624 0.78517 0.0
H1287 H 0.52286 0.39098 0.79717 0.0
H1288 H 0.52603 0.34659 0.78667 0.0
H1289 H 0.51019 0.36542 0.80817 0.0
H1290 H 0.24856 0.37694 0.6647 0.0
H1291 H 0.25294 0.3968 0.68386 0.0
H1292 H 0.33356 0.35671 0.6533 0.0
H1293 H 0.39367 0.34017 0.67238 0.0
C1294 C 0.40662 0.37763 0.06494 0.0
C1295 C 0.43137 0.38504 0.03352 0.0
C1296 C 0.37559 0.35988 1.00356 0.0
C1297 C 0.35804 0.35189 0.03501 0.0
N1298 N 0.36254 0.35218 0.09574 0.0
N1299 N 0.45201 0.38256 0.97325 0.0
C1300 C 0.37522 0.3605 0.0658 0.0
C1301 C 0.41982 0.37593 1.00293 0.0
N1302 N 0.41192 0.3871 0.09378 0.0
N1303 N 0.34814 0.35225 0.97421 0.0
H1304 H 0.48277 0.39447 0.97145 0.0
H1305 H 0.45518 0.37575 0.95077 0.0
H1306 H 0.31671 0.34037 0.97347 0.0
H1307 H 0.3493 0.35822 0.95076 0.0
H1308 H 0.38535 0.38323 0.11694 0.0
H1309 H 0.43923 0.39935 0.09418 0.0
H1310 H 0.38289 0.35699 0.11903 0.0
H1311 H 0.3354 0.33994 0.0971 0.0
C1312 C 0.89696 0.06872 0.3704 0.0
C1313 C 0.91314 0.05304 0.35383 0.0
C1314 C 0.85646 0.03751 0.40328 0.0
C1315 C 0.83489 0.05315 0.41904 0.0
N1316 N 0.82375 0.08365 0.41679 0.0
N1317 N 0.89786 0.02268 0.35171 0.0
C1318 C 0.85248 0.06879 0.40243 0.0
C1319 C 0.88968 0.03747 0.36951 0.0
N1320 N 0.92683 0.08349 0.35596 0.0
N1321 N 0.84684 0.02272 0.42105 0.0
H1322 H 0.92128 0.02234 0.3268 0.0
H1323 H 0.87441 0.01097 0.36032 0.0
H1324 H 0.82366 0.02243 0.44599 0.0
H1325 H 0.86892 0.01095 0.41237 0.0
H1326 H 0.92803 0.0951 0.36847 0.0
H1327 H 0.95475 0.08401 0.33172 0.0
H1328 H 0.82376 0.09526 0.40424 0.0
H1329 H 0.7953 0.08425 0.44093 0.0
C1330 C 0.39268 0.20238 0.35116 0.0
C1331 C 0.36128 0.18665 0.33839 0.0
C1332 C 0.4206 0.17209 0.38878 0.0
C1333 C 0.44376 0.1881 0.40285 0.0
N1334 N 0.44132 0.21864 0.39992 0.0
N1335 N 0.34105 0.15652 0.34447 0.0
C1336 C 0.42707 0.20329 0.38464 0.0
C1337 C 0.37466 0.17145 0.35695 0.0
N1338 N 0.39067 0.21642 0.33083 0.0
N1339 N 0.44446 0.15757 0.40553 0.0
H1340 H 0.3116 0.1556 0.32051 0.0
H1341 H 0.33929 0.14524 0.3581 0.0
H1342 H 0.47409 0.15767 0.42952 0.0
H1343 H 0.43908 0.14547 0.39522 0.0
H1344 H 0.42026 0.228 0.33728 0.0
H1345 H 0.36704 0.216 0.30596 0.0
H1346 H 0.42215 0.2302 0.38935 0.0
H1347 H 0.4648 0.21976 0.42471 0.0
C1348 C 0.84063 0.17193 0.86022 0.0
C1349 C 0.81455 0.18753 0.84505 0.0
C1350 C 0.87042 0.20312 0.89459 0.0
C1351 C 0.90348 0.18771 0.90847 0.0
N1352 N 0.92817 0.15758 0.90405 0.0
N1353 N 0.81376 0.21809 0.84518 0.0
C1354 C 0.89055 0.17212 0.8912 0.0
C1355 C 0.83197 0.20317 0.86157 0.0
N1356 N 0.81501 0.15696 0.84554 0.0
N1357 N 0.87467 0.21766 0.91336 0.0
H1358 H 0.78659 0.21854 0.8208 0.0
H1359 H 0.83259 0.22997 0.85431 0.0
H1360 H 0.902 0.21794 0.93773 0.0
H1361 H 0.84416 0.22906 0.90624 0.0
H1362 H 0.8219 0.14518 0.85721 0.0
H1363 H 0.78182 0.15637 0.82221 0.0
H1364 H 0.93112 0.14616 0.89089 0.0
H1365 H 0.96054 0.15715 0.92755 0.0
C1366 C 0.32025 0.03909 0.89652 0.0
C1367 C 0.30646 0.05426 0.9151 0.0
C1368 C 0.38655 0.07052 0.87112 0.0
C1369 C 0.3952 0.05546 0.85176 0.0
N1370 N 0.35647 0.02616 0.84257 0.0
N1371 N 0.31265 0.0848 0.91819 0.0
C1372 C 0.35739 0.03998 0.86342 0.0
C1373 C 0.3359 0.07012 0.90193 0.0
N1374 N 0.30068 0.02377 0.91112 0.0
N1375 N 0.42888 0.08505 0.86044 0.0
H1376 H 0.27792 0.08495 0.94123 0.0
H1377 H 0.32257 0.09683 0.9079 0.0
H1378 H 0.46219 0.08595 0.83716 0.0
H1379 H 0.4348 0.09592 0.87523 0.0
H1380 H 0.31713 0.01214 0.90025 0.0
H1381 H 0.27571 0.02267 0.93573 0.0
H1382 H 0.32228 0.01491 0.84822 0.0
H1383 H 0.38273 0.02652 0.81805 0.0
C1384 C 0.13606 0.95536 0.61393 0.0
C1385 C 0.14645 0.94048 0.59416 0.0
C1386 C 0.07226 0.92365 0.6387 0.0
C1387 C 0.06796 0.93836 0.65929 0.0
N1388 N 0.10767 0.96756 0.66922 0.0
N1389 N 0.13679 0.91004 0.58906 0.0
C1390 C 0.10376 0.95402 0.64769 0.0
C1391 C 0.11752 0.92448 0.60681 0.0
N1392 N 0.15468 0.97086 0.5999 0.0
N1393 N 0.03144 0.90897 0.64943 0.0
H1394 H 0.16726 0.9102 0.56523 0.0
H1395 H 0.12762 0.89786 0.5987 0.0
H1396 H 0.00293 0.90767 0.67347 0.0
H1397 H 0.02202 0.8984 0.63408 0.0
H1398 H 0.14041 0.98236 0.6117 0.0
H1399 H 0.17666 0.97227 0.57496 0.0
H1400 H 0.14093 0.9789 0.66352 0.0
H1401 H 0.08467 0.96691 0.69414 0.0
C1402 C 0.63516 0.82163 0.65545 0.0
C1403 C 0.65536 0.80579 0.67086 0.0
C1404 C 0.58646 0.79072 0.6231 0.0
C1405 C 0.56072 0.8065 0.60869 0.0
N1406 N 0.5509 0.83695 0.61201 0.0
N1407 N 0.63818 0.77545 0.67281 0.0
C1408 C 0.58247 0.82198 0.6251 0.0
C1409 C 0.62721 0.79038 0.65566 0.0
N1410 N 0.66883 0.83624 0.66934 0.0
N1411 N 0.57384 0.77609 0.60512 0.0
H1412 H 0.66699 0.77486 0.69692 0.0
H1413 H 0.61141 0.7639 0.66469 0.0
H1414 H 0.54555 0.77597 0.58092 0.0
H1415 H 0.59888 0.76431 0.61267 0.0
H1416 H 0.66615 0.84801 0.65743 0.0
H1417 H 0.70365 0.83644 0.69238 0.0
H1418 H 0.55484 0.84851 0.62462 0.0
H1419 H 0.51654 0.83765 0.58892 0.0
C1420 C 0.13626 0.78984 0.15519 0.0
C1421 C 0.15956 0.80558 0.17017 0.0
C1422 C 0.10097 0.82071 0.12023 0.0
C1423 C 0.08304 0.80486 0.10453 0.0
N1424 N 0.09833 0.77445 0.10405 0.0
N1425 N 0.17292 0.83597 0.16665 0.0
C1426 C 0.10493 0.78945 0.12122 0.0
C1427 C 0.14417 0.82105 0.15262 0.0
N1428 N 0.14244 0.77527 0.17386 0.0
N1429 N 0.07424 0.83536 0.10459 0.0
H1430 H 0.20017 0.83668 0.19099 0.0
H1431 H 0.17372 0.84751 0.15386 0.0
H1432 H 0.04613 0.83556 0.08036 0.0
H1433 H 0.07589 0.84723 0.11603 0.0
H1434 H 0.11813 0.76355 0.1657 0.0
H1435 H 0.16434 0.77519 0.19896 0.0
H1436 H 0.12162 0.76289 0.11349 0.0
H1437 H 0.0775 0.77379 0.07887 0.0
C1438 C 0.61923 0.92324 0.10663 0.0
C1439 C 0.65521 0.9388 0.09431 0.0
C1440 C 0.60263 0.95347 0.14541 0.0
C1441 C 0.56101 0.93822 0.15661 0.0
N1442 N 0.52029 0.90898 0.14711 0.0
N1443 N 0.66979 0.96915 0.09874 0.0
C1444 C 0.5666 0.9232 0.13696 0.0
C1445 C 0.64372 0.95404 0.11287 0.0
N1446 N 0.63878 0.90842 0.09016 0.0
N1447 N 0.60348 0.96734 0.16614 0.0
H1448 H 0.69815 0.97 0.07459 0.0
H1449 H 0.65599 0.98094 0.10941 0.0
H1450 H 0.5734 0.96732 0.19006 0.0
H1451 H 0.6403 0.97837 0.16101 0.0
H1452 H 0.62428 0.89646 0.09996 0.0
H1453 H 0.67464 0.90801 0.06737 0.0
H1454 H 0.51185 0.89827 0.13204 0.0
H1455 H 0.4863 0.9082 0.17026 0.0
C1456 C 0.89802 0.5713 0.85818 0.0
C1457 C 0.90293 0.55682 0.83695 0.0
C1458 C 0.82412 0.53977 0.87974 0.0
C1459 C 0.81259 0.55449 0.8999 0.0
N1460 N 0.82555 0.58482 0.90642 0.0
N1461 N 0.85842 0.52807 0.82455 0.0
C1462 C 0.84626 0.57044 0.8887 0.0
C1463 C 0.86179 0.54131 0.84681 0.0
N1464 N 0.94426 0.58575 0.84941 0.0
N1465 N 0.80197 0.52419 0.8927 0.0
H1466 H 0.88568 0.5288 0.80023 0.0
H1467 H 0.82145 0.51697 0.82894 0.0
H1468 H 0.77684 0.52257 0.91717 0.0
H1469 H 0.81678 0.51278 0.88065 0.0
H1470 H 0.95275 0.59605 0.86558 0.0
H1471 H 0.97834 0.58709 0.82636 0.0
H1472 H 0.83886 0.59701 0.89754 0.0
H1473 H 0.78939 0.58462 0.92917 0.0
C1474 C 0.35898 0.67203 0.85932 0.0
C1475 C 0.36277 0.68651 0.83798 0.0
C1476 C 0.44492 0.70232 0.88184 0.0
C1477 C 0.44613 0.68757 0.90249 0.0
N1478 N 0.41932 0.65751 0.90867 0.0
N1479 N 0.42254 0.71433 0.82599 0.0
C1480 C 0.40711 0.67216 0.89068 0.0
C1481 C 0.41045 0.70128 0.84831 0.0
N1482 N 0.30778 0.65829 0.84981 0.0
N1483 N 0.47304 0.71753 0.8949 0.0
H1484 H 0.39737 0.71398 0.80133 0.0
H1485 H 0.4644 0.72478 0.83076 0.0
H1486 H 0.49609 0.71889 0.9197 0.0
H1487 H 0.46537 0.72907 0.88241 0.0
H1488 H 0.29259 0.6482 0.86587 0.0
H1489 H 0.27662 0.65738 0.82614 0.0
H1490 H 0.40187 0.64555 0.89953 0.0
H1491 H 0.45318 0.65713 0.93188 0.0
C1492 C 0.91771 0.70331 0.38404 0.0
C1493 C 0.93155 0.68825 0.40304 0.0
C1494 C 0.84853 0.67187 0.36 0.0
C1495 C 0.84017 0.6868 0.34018 0.0
N1496 N 0.88002 0.71597 0.32993 0.0
N1497 N 0.92008 0.65786 0.40804 0.0
C1498 C 0.87921 0.70228 0.35118 0.0
C1499 C 0.89941 0.6724 0.3908 0.0
N1500 N 0.93834 0.71871 0.39809 0.0
N1501 N 0.80633 0.65729 0.34954 0.0
H1502 H 0.95466 0.65789 0.43112 0.0
H1503 H 0.90732 0.64573 0.3988 0.0
H1504 H 0.77412 0.6563 0.32607 0.0
H1505 H 0.80012 0.64646 0.36441 0.0
H1506 H 0.92184 0.73029 0.38697 0.0
H1507 H 0.96392 0.71995 0.42257 0.0
H1508 H 0.91519 0.72718 0.33506 0.0
H1509 H 0.85264 0.71553 0.30559 0.0
C1510 C 0.41228 0.56768 0.36059 0.0
C1511 C 0.40783 0.55342 0.3387 0.0
C1512 C 0.3227 0.53746 0.38162 0.0
C1513 C 0.32052 0.55214 0.40237 0.0
N1514 N 0.35142 0.58196 0.41001 0.0
N1515 N 0.3499 0.52554 0.32598 0.0
C1516 C 0.36264 0.56745 0.39156 0.0
C1517 C 0.36003 0.53855 0.34849 0.0
N1518 N 0.46511 0.58137 0.35194 0.0
N1519 N 0.29153 0.52233 0.39416 0.0
H1520 H 0.37737 0.52592 0.30165 0.0
H1521 H 0.30814 0.51503 0.33024 0.0
H1522 H 0.26606 0.52105 0.41868 0.0
H1523 H 0.29858 0.51079 0.38168 0.0
H1524 H 0.48091 0.59119 0.36852 0.0
H1525 H 0.49735 0.5825 0.32853 0.0
H1526 H 0.37049 0.59395 0.40141 0.0
H1527 H 0.31748 0.58225 0.4332 0.0
C1528 C 0.12237 0.4516 0.14678 0.0
C1529 C 0.0971 0.43622 0.16285 0.0
C1530 C 0.16685 0.41996 0.1166 0.0
C1531 C 0.18524 0.4354 0.09938 0.0
N1532 N 0.1689 0.46571 0.09508 0.0
N1533 N 0.08666 0.40574 0.16251 0.0
C1534 C 0.15945 0.45117 0.11364 0.0
C1535 C 0.11725 0.42035 0.14767 0.0
N1536 N 0.11271 0.46662 0.1637 0.0
N1537 N 0.19894 0.40502 0.10365 0.0
H1538 H 0.05432 0.40561 0.18603 0.0
H1539 H 0.0894 0.39389 0.15097 0.0
H1540 H 0.23138 0.40426 0.08019 0.0
H1541 H 0.19747 0.39355 0.11669 0.0
H1542 H 0.13766 0.47817 0.15482 0.0
H1543 H 0.08741 0.46728 0.18832 0.0
H1544 H 0.14341 0.47746 0.10261 0.0
H1545 H 0.19496 0.46576 0.07053 0.0
C1546 C 0.67302 0.28642 0.15239 0.0
C1547 C 0.68055 0.30165 0.17129 0.0
C1548 C 0.6017 0.31729 0.12606 0.0
C1549 C 0.59878 0.30222 0.1065 0.0
N1550 N 0.64322 0.27313 0.09814 0.0
N1551 N 0.66452 0.33205 0.17471 0.0
C1552 C 0.63821 0.28699 0.11882 0.0
C1553 C 0.64795 0.31724 0.15781 0.0
N1554 N 0.69671 0.27132 0.16708 0.0
N1555 N 0.55866 0.33158 0.11447 0.0
H1556 H 0.69543 0.33244 0.19846 0.0
H1557 H 0.65265 0.34403 0.16449 0.0
H1558 H 0.52969 0.33234 0.09041 0.0
H1559 H 0.54813 0.34239 0.12905 0.0
H1560 H 0.68493 0.25954 0.15607 0.0
H1561 H 0.72102 0.27046 0.19182 0.0
H1562 H 0.67887 0.26209 0.1042 0.0
H1563 H 0.61827 0.27322 0.07343 0.0
C1564 C 0.11111 0.29067 0.62295 0.0
C1565 C 0.07187 0.30605 0.61133 0.0
C1566 C 0.13476 0.32115 0.66047 0.0
C1567 C 0.16899 0.30552 0.67307 0.0
N1568 N 0.17579 0.27502 0.67007 0.0
N1569 N 0.03605 0.33557 0.62008 0.0
C1570 C 0.15317 0.29016 0.65531 0.0
C1571 C 0.08069 0.32121 0.63043 0.0
N1572 N 0.1089 0.27659 0.6028 0.0
N1573 N 0.15693 0.33596 0.67647 0.0
H1574 H 0.00046 0.33629 0.59724 0.0
H1575 H 0.03037 0.34648 0.63472 0.0
H1576 H 0.19364 0.33629 0.69909 0.0
H1577 H 0.14359 0.34793 0.6665 0.0
H1578 H 0.14424 0.26542 0.60822 0.0
H1579 H 0.07796 0.27651 0.57903 0.0
H1580 H 0.15855 0.26324 0.66002 0.0
H1581 H 0.20426 0.27421 0.6942 0.0
C1582 C 0.62381 0.45634 0.64711 0.0
C1583 C 0.59446 0.44093 0.66204 0.0
C1584 C 0.65316 0.42495 0.61333 0.0
C1585 C 0.67699 0.4405 0.59752 0.0
N1586 N 0.67336 0.47103 0.59637 0.0
N1587 N 0.57141 0.41069 0.65871 0.0
C1588 C 0.65897 0.45622 0.61362 0.0
C1589 C 0.60663 0.42523 0.645 0.0
N1590 N 0.61951 0.47105 0.66536 0.0
N1591 N 0.6778 0.40994 0.59859 0.0
H1592 H 0.54166 0.41029 0.68266 0.0
H1593 H 0.56763 0.39919 0.64586 0.0
H1594 H 0.70828 0.40928 0.57478 0.0
H1595 H 0.67261 0.3982 0.61053 0.0
H1596 H 0.64774 0.4825 0.65737 0.0
H1597 H 0.59448 0.47147 0.69005 0.0
H1598 H 0.65388 0.48292 0.60528 0.0
H1599 H 0.69759 0.47132 0.57157 0.0
loop_
_geom_bond_atom_site_label_1
_geom_bond_atom_site_label_2
_geom_bond_distance
_geom_bond_site_symmetry_2
_ccdc_geom_bond_type
Co0 O1 2.216 . S
Co0 O2 2.091 1_455 S
Co0 O4 2.004 . S
Co0 O10 2.021 . S
Co0 O12 2.137 . S
Co0 O13 2.244 . S
O1 Co0 2.216 . S
O1 C8 1.247 1_455 S
O2 Co0 2.091 1_655 S
O2 C8 1.261 . S
C3 O12 1.247 . S
C3 O13 1.272 . S
O4 Co0 2.004 . S
O4 C9 1.259 . S
Co5 O6 2.061 . S
Co5 O11 2.052 . S
Co5 O13 2.135 . S
O6 Co5 2.061 . S
O6 C9 1.235 . S
C7 O10 1.238 . S
C7 O11 1.241 . S
C8 O1 1.247 1_655 S
C8 O2 1.261 . S
C9 O4 1.259 . S
C9 O6 1.235 . S
O10 Co0 2.021 . S
O10 C7 1.238 . S
O11 Co5 2.052 . S
O11 C7 1.241 . S
O12 Co0 2.137 . S
O12 C3 1.247 . S
O13 Co0 2.244 . S
O13 C3 1.272 . S
O13 Co5 2.135 . S
Co14 O15 2.216 . S
Co14 O16 2.091 . S
Co14 O18 2.004 . S
Co14 O24 2.021 . S
Co14 O26 2.137 . S
Co14 O27 2.244 . S
O15 Co14 2.216 . S
O15 C22 1.247 . S
O16 Co14 2.091 . S
O16 C22 1.261 . S
C17 O26 1.247 . S
C17 O27 1.272 . S
O18 Co14 2.004 . S
O18 C23 1.259 . S
Co19 O20 2.061 1_655 S
Co19 O25 2.052 1_655 S
Co19 O27 2.135 1_655 S
O20 Co19 2.061 1_455 S
O20 C23 1.235 . S
C21 O24 1.238 . S
C21 O25 1.241 . S
C22 O15 1.247 . S
C22 O16 1.261 . S
C23 O18 1.259 . S
C23 O20 1.235 . S
O24 Co14 2.021 . S
O24 C21 1.238 . S
O25 Co19 2.052 1_455 S
O25 C21 1.241 . S
O26 Co14 2.137 . S
O26 C17 1.247 . S
O27 Co14 2.244 . S
O27 C17 1.272 . S
O27 Co19 2.135 1_455 S
Co28 O29 2.216 . S
Co28 O30 2.091 1_455 S
Co28 O32 2.004 1_556 S
Co28 O38 2.021 . S
Co28 O40 2.137 . S
Co28 O41 2.244 . S
O29 Co28 2.216 . S
O29 C36 1.247 1_455 S
O30 Co28 2.091 1_655 S
O30 C36 1.261 . S
C31 O40 1.247 . S
C31 O41 1.272 . S
O32 Co28 2.004 1_554 S
O32 C37 1.259 . S
Co33 O34 2.061 . S
Co33 O39 2.042 1_554 S
Co33 O41 2.135 1_554 S
O34 Co33 2.061 . S
O34 C37 1.235 . S
C35 O38 1.238 . S
C35 O39 1.246 . S
C36 O29 1.247 1_655 S
C36 O30 1.261 . S
C37 O32 1.259 . S
C37 O34 1.235 . S
O38 Co28 2.021 . S
O38 C35 1.238 . S
O39 Co33 2.042 1_556 S
O39 C35 1.246 . S
O40 Co28 2.137 . S
O40 C31 1.247 . S
O41 Co28 2.244 . S
O41 C31 1.272 . S
O41 Co33 2.135 1_556 S
Co42 O43 2.216 . S
Co42 O44 2.091 . S
Co42 O46 2.004 1_556 S
Co42 O52 2.021 . S
Co42 O54 2.137 . S
Co42 O55 2.244 . S
O43 Co42 2.216 . S
O43 C50 1.247 . S
O44 Co42 2.091 . S
O44 C50 1.261 . S
C45 O54 1.247 . S
C45 O55 1.272 . S
O46 Co42 2.004 1_554 S
O46 C51 1.259 . S
Co47 O48 2.061 1_655 S
Co47 O53 2.042 1_654 S
Co47 O55 2.135 1_654 S
O48 Co47 2.061 1_455 S
O48 C51 1.235 . S
C49 O52 1.238 . S
C49 O53 1.246 . S
C50 O43 1.247 . S
C50 O44 1.261 . S
C51 O46 1.259 . S
C51 O48 1.235 . S
O52 Co42 2.021 . S
O52 C49 1.238 . S
O53 Co47 2.042 1_456 S
O53 C49 1.246 . S
O54 Co42 2.137 . S
O54 C45 1.247 . S
O55 Co42 2.244 . S
O55 C45 1.272 . S
O55 Co47 2.135 1_456 S
Co56 O57 2.216 . S
Co56 O58 2.091 1_655 S
Co56 O60 2.004 . S
Co56 O66 2.021 . S
Co56 O68 2.137 . S
Co56 O69 2.244 . S
O57 Co56 2.216 . S
O57 C64 1.247 1_655 S
O58 Co56 2.091 1_455 S
O58 C64 1.261 . S
C59 O68 1.247 . S
C59 O69 1.272 . S
O60 Co56 2.004 . S
O60 C65 1.259 . S
Co61 O62 2.061 . S
Co61 O67 2.052 . S
Co61 O69 2.135 . S
O62 Co61 2.061 . S
O62 C65 1.235 . S
C63 O66 1.238 . S
C63 O67 1.241 . S
C64 O57 1.247 1_455 S
C64 O58 1.261 . S
C65 O60 1.259 . S
C65 O62 1.235 . S
O66 Co56 2.021 . S
O66 C63 1.238 . S
O67 Co61 2.052 . S
O67 C63 1.241 . S
O68 Co56 2.137 . S
O68 C59 1.247 . S
O69 Co56 2.244 . S
O69 C59 1.272 . S
O69 Co61 2.135 . S
Co70 O71 2.216 . S
Co70 O72 2.091 . S
Co70 O74 2.004 . S
Co70 O80 2.021 . S
Co70 O82 2.137 . S
Co70 O83 2.244 . S
O71 Co70 2.216 . S
O71 C78 1.247 . S
O72 Co70 2.091 . S
O72 C78 1.261 . S
C73 O82 1.247 . S
C73 O83 1.272 . S
O74 Co70 2.004 . S
O74 C79 1.259 . S
Co75 O76 2.061 1_455 S
Co75 O81 2.052 1_455 S
Co75 O83 2.135 1_455 S
O76 Co75 2.061 1_655 S
O76 C79 1.235 . S
C77 O80 1.238 . S
C77 O81 1.241 . S
C78 O71 1.247 . S
C78 O72 1.261 . S
C79 O74 1.259 . S
C79 O76 1.235 . S
O80 Co70 2.021 . S
O80 C77 1.238 . S
O81 Co75 2.052 1_655 S
O81 C77 1.241 . S
O82 Co70 2.137 . S
O82 C73 1.247 . S
O83 Co70 2.244 . S
O83 C73 1.272 . S
O83 Co75 2.135 1_655 S
Co84 O85 2.216 . S
Co84 O86 2.091 1_655 S
Co84 O88 2.004 1_554 S
Co84 O94 2.021 . S
Co84 O96 2.137 . S
Co84 O97 2.244 . S
O85 Co84 2.216 . S
O85 C92 1.247 1_655 S
O86 Co84 2.091 1_455 S
O86 C92 1.261 . S
C87 O96 1.247 . S
C87 O97 1.272 . S
O88 Co84 2.004 1_556 S
O88 C93 1.259 . S
Co89 O90 2.061 . S
Co89 O95 2.042 1_556 S
Co89 O97 2.135 1_556 S
O90 Co89 2.061 . S
O90 C93 1.235 . S
C91 O94 1.238 . S
C91 O95 1.246 . S
C92 O85 1.247 1_455 S
C92 O86 1.261 . S
C93 O88 1.259 . S
C93 O90 1.235 . S
O94 Co84 2.021 . S
O94 C91 1.238 . S
O95 Co89 2.042 1_554 S
O95 C91 1.246 . S
O96 Co84 2.137 . S
O96 C87 1.247 . S
O97 Co84 2.244 . S
O97 C87 1.272 . S
O97 Co89 2.135 1_554 S
Co98 O99 2.216 . S
Co98 O100 2.091 . S
Co98 O102 2.004 1_554 S
Co98 O108 2.021 . S
Co98 O110 2.137 . S
Co98 O111 2.244 . S
O99 Co98 2.216 . S
O99 C106 1.247 . S
O100 Co98 2.091 . S
O100 C106 1.261 . S
C101 O110 1.247 . S
C101 O111 1.272 . S
O102 Co98 2.004 1_556 S
O102 C107 1.259 . S
Co103 O104 2.061 1_455 S
Co103 O109 2.042 1_456 S
Co103 O111 2.135 1_456 S
O104 Co103 2.061 1_655 S
O104 C107 1.235 . S
C105 O108 1.238 . S
C105 O109 1.246 . S
C106 O99 1.247 . S
C106 O100 1.261 . S
C107 O102 1.259 . S
C107 O104 1.235 . S
O108 Co98 2.021 . S
O108 C105 1.238 . S
O109 Co103 2.042 1_654 S
O109 C105 1.246 . S
O110 Co98 2.137 . S
O110 C101 1.247 . S
O111 Co98 2.244 . S
O111 C101 1.272 . S
O111 Co103 2.135 1_654 S
Co112 O113 2.216 . S
Co112 O114 2.091 1_455 S
Co112 O116 2.004 . S
Co112 O122 2.021 . S
Co112 O124 2.137 . S
Co112 O125 2.244 . S
O113 Co112 2.216 . S
O113 C120 1.247 1_455 S
O114 Co112 2.091 1_655 S
O114 C120 1.261 . S
C115 O124 1.247 . S
C115 O125 1.272 . S
O116 Co112 2.004 . S
O116 C121 1.259 . S
Co117 O118 2.061 . S
Co117 O123 2.052 . S
Co117 O125 2.135 . S
O118 Co117 2.061 . S
O118 C121 1.235 . S
C119 O122 1.238 . S
C119 O123 1.241 . S
C120 O113 1.247 1_655 S
C120 O114 1.261 . S
C121 O116 1.259 . S
C121 O118 1.235 . S
O122 Co112 2.021 . S
O122 C119 1.238 . S
O123 Co117 2.052 . S
O123 C119 1.241 . S
O124 Co112 2.137 . S
O124 C115 1.247 . S
O125 Co112 2.244 . S
O125 C115 1.272 . S
O125 Co117 2.135 . S
Co126 O127 2.216 . S
Co126 O128 2.091 . S
Co126 O130 2.004 . S
Co126 O136 2.021 . S
Co126 O138 2.137 . S
Co126 O139 2.244 . S
O127 Co126 2.216 . S
O127 C134 1.247 . S
O128 Co126 2.091 . S
O128 C134 1.261 . S
C129 O138 1.247 . S
C129 O139 1.272 . S
O130 Co126 2.004 . S
O130 C135 1.259 . S
Co131 O132 2.061 1_655 S
Co131 O137 2.052 1_655 S
Co131 O139 2.135 1_655 S
O132 Co131 2.061 1_455 S
O132 C135 1.235 . S
C133 O136 1.238 . S
C133 O137 1.241 . S
C134 O127 1.247 . S
C134 O128 1.261 . S
C135 O130 1.259 . S
C135 O132 1.235 . S
O136 Co126 2.021 . S
O136 C133 1.238 . S
O137 Co131 2.052 1_455 S
O137 C133 1.241 . S
O138 Co126 2.137 . S
O138 C129 1.247 . S
O139 Co126 2.244 . S
O139 C129 1.272 . S
O139 Co131 2.135 1_455 S
Co140 O141 2.216 . S
Co140 O142 2.091 1_455 S
Co140 O144 2.004 . S
Co140 O150 2.021 . S
Co140 O152 2.137 . S
Co140 O153 2.244 . S
O141 Co140 2.216 . S
O141 C148 1.247 1_455 S
O142 Co140 2.091 1_655 S
O142 C148 1.261 . S
C143 O152 1.247 . S
C143 O153 1.272 . S
O144 Co140 2.004 . S
O144 C149 1.259 . S
Co145 O146 2.061 . S
Co145 O151 2.052 . S
Co145 O153 2.135 . S
O146 Co145 2.061 . S
O146 C149 1.235 . S
C147 O150 1.238 . S
C147 O151 1.241 . S
C148 O141 1.247 1_655 S
C148 O142 1.261 . S
C149 O144 1.259 . S
C149 O146 1.235 . S
O150 Co140 2.021 . S
O150 C147 1.238 . S
O151 Co145 2.052 . S
O151 C147 1.241 . S
O152 Co140 2.137 . S
O152 C143 1.247 . S
O153 Co140 2.244 . S
O153 C143 1.272 . S
O153 Co145 2.135 . S
Co154 O155 2.216 . S
Co154 O156 2.091 . S
Co154 O158 2.004 . S
Co154 O164 2.021 . S
Co154 O166 2.137 . S
Co154 O167 2.244 . S
O155 Co154 2.216 . S
O155 C162 1.247 . S
O156 Co154 2.091 . S
O156 C162 1.261 . S
C157 O166 1.247 . S
C157 O167 1.272 . S
O158 Co154 2.004 . S
O158 C163 1.259 . S
Co159 O160 2.061 1_655 S
Co159 O165 2.052 1_655 S
Co159 O167 2.135 1_655 S
O160 Co159 2.061 1_455 S
O160 C163 1.235 . S
C161 O164 1.238 . S
C161 O165 1.241 . S
C162 O155 1.247 . S
C162 O156 1.261 . S
C163 O158 1.259 . S
C163 O160 1.235 . S
O164 Co154 2.021 . S
O164 C161 1.238 . S
O165 Co159 2.052 1_455 S
O165 C161 1.241 . S
O166 Co154 2.137 . S
O166 C157 1.247 . S
O167 Co154 2.244 . S
O167 C157 1.272 . S
O167 Co159 2.135 1_455 S
Co168 O169 2.216 . S
Co168 O170 2.091 1_655 S
Co168 O172 2.004 . S
Co168 O178 2.021 . S
Co168 O180 2.137 . S
Co168 O181 2.244 . S
O169 Co168 2.216 . S
O169 C176 1.247 1_655 S
O170 Co168 2.091 1_455 S
O170 C176 1.261 . S
C171 O180 1.247 . S
C171 O181 1.272 . S
O172 Co168 2.004 . S
O172 C177 1.259 . S
Co173 O174 2.061 . S
Co173 O179 2.052 . S
Co173 O181 2.135 . S
O174 Co173 2.061 . S
O174 C177 1.235 . S
C175 O178 1.238 . S
C175 O179 1.241 . S
C176 O169 1.247 1_455 S
C176 O170 1.261 . S
C177 O172 1.259 . S
C177 O174 1.235 . S
O178 Co168 2.021 . S
O178 C175 1.238 . S
O179 Co173 2.052 . S
O179 C175 1.241 . S
O180 Co168 2.137 . S
O180 C171 1.247 . S
O181 Co168 2.244 . S
O181 C171 1.272 . S
O181 Co173 2.135 . S
Co182 O183 2.216 . S
Co182 O184 2.091 . S
Co182 O186 2.004 . S
Co182 O192 2.021 . S
Co182 O194 2.137 . S
Co182 O195 2.244 . S
O183 Co182 2.216 . S
O183 C190 1.247 . S
O184 Co182 2.091 . S
O184 C190 1.261 . S
C185 O194 1.247 . S
C185 O195 1.272 . S
O186 Co182 2.004 . S
O186 C191 1.259 . S
Co187 O188 2.061 1_455 S
Co187 O193 2.052 1_455 S
Co187 O195 2.135 1_455 S
O188 Co187 2.061 1_655 S
O188 C191 1.235 . S
C189 O192 1.238 . S
C189 O193 1.241 . S
C190 O183 1.247 . S
C190 O184 1.261 . S
C191 O186 1.259 . S
C191 O188 1.235 . S
O192 Co182 2.021 . S
O192 C189 1.238 . S
O193 Co187 2.052 1_655 S
O193 C189 1.241 . S
O194 Co182 2.137 . S
O194 C185 1.247 . S
O195 Co182 2.244 . S
O195 C185 1.272 . S
O195 Co187 2.135 1_655 S
Co196 O197 2.216 . S
Co196 O198 2.091 1_655 S
Co196 O200 2.004 . S
Co196 O206 2.021 . S
Co196 O208 2.137 . S
Co196 O209 2.244 . S
O197 Co196 2.216 . S
O197 C204 1.247 1_655 S
O198 Co196 2.091 1_455 S
O198 C204 1.261 . S
C199 O208 1.247 . S
C199 O209 1.272 . S
O200 Co196 2.004 . S
O200 C205 1.259 . S
Co201 O202 2.061 . S
Co201 O207 2.052 . S
Co201 O209 2.135 . S
O202 Co201 2.061 . S
O202 C205 1.235 . S
C203 O206 1.238 . S
C203 O207 1.241 . S
C204 O197 1.247 1_455 S
C204 O198 1.261 . S
C205 O200 1.259 . S
C205 O202 1.235 . S
O206 Co196 2.021 . S
O206 C203 1.238 . S
O207 Co201 2.052 . S
O207 C203 1.241 . S
O208 Co196 2.137 . S
O208 C199 1.247 . S
O209 Co196 2.244 . S
O209 C199 1.272 . S
O209 Co201 2.135 . S
Co210 O211 2.216 . S
Co210 O212 2.091 . S
Co210 O214 2.004 . S
Co210 O220 2.021 . S
Co210 O222 2.137 . S
Co210 O223 2.244 . S
O211 Co210 2.216 . S
O211 C218 1.247 . S
O212 Co210 2.091 . S
O212 C218 1.261 . S
C213 O222 1.247 . S
C213 O223 1.272 . S
O214 Co210 2.004 . S
O214 C219 1.259 . S
Co215 O216 2.061 1_455 S
Co215 O221 2.052 1_455 S
Co215 O223 2.135 1_455 S
O216 Co215 2.061 1_655 S
O216 C219 1.235 . S
C217 O220 1.238 . S
C217 O221 1.241 . S
C218 O211 1.247 . S
C218 O212 1.261 . S
C219 O214 1.259 . S
C219 O216 1.235 . S
O220 Co210 2.021 . S
O220 C217 1.238 . S
O221 Co215 2.052 1_655 S
O221 C217 1.241 . S
O222 Co210 2.137 . S
O222 C213 1.247 . S
O223 Co210 2.244 . S
O223 C213 1.272 . S
O223 Co215 2.135 1_655 S
Co224 O225 2.216 . S
Co224 O226 2.091 . S
Co224 O228 2.004 . S
Co224 O234 2.021 . S
Co224 O236 2.137 . S
Co224 O237 2.244 . S
O225 Co224 2.216 . S
O225 C232 1.247 . S
O226 Co224 2.091 . S
O226 C232 1.261 . S
C227 O236 1.247 . S
C227 O237 1.272 . S
O228 Co224 2.004 . S
O228 C233 1.259 . S
Co229 O230 2.061 . S
Co229 O235 2.052 . S
Co229 O237 2.135 . S
O230 Co229 2.061 . S
O230 C233 1.235 . S
C231 O234 1.238 . S
C231 O235 1.241 . S
C232 O225 1.247 . S
C232 O226 1.261 . S
C233 O228 1.259 . S
C233 O230 1.235 . S
O234 Co224 2.021 . S
O234 C231 1.238 . S
O235 Co229 2.052 . S
O235 C231 1.241 . S
O236 Co224 2.137 . S
O236 C227 1.247 . S
O237 Co224 2.244 . S
O237 C227 1.272 . S
O237 Co229 2.135 . S
Co238 O239 2.216 . S
Co238 O240 2.091 . S
Co238 O242 2.004 . S
Co238 O248 2.021 . S
Co238 O250 2.137 . S
Co238 O251 2.244 . S
O239 Co238 2.216 . S
O239 C246 1.247 . S
O240 Co238 2.091 . S
O240 C246 1.261 . S
C241 O250 1.247 . S
C241 O251 1.272 . S
O242 Co238 2.004 . S
O242 C247 1.259 . S
Co243 O244 2.061 . S
Co243 O249 2.052 . S
Co243 O251 2.135 . S
O244 Co243 2.061 . S
O244 C247 1.235 . S
C245 O248 1.238 . S
C245 O249 1.241 . S
C246 O239 1.247 . S
C246 O240 1.261 . S
C247 O242 1.259 . S
C247 O244 1.235 . S
O248 Co238 2.021 . S
O248 C245 1.238 . S
O249 Co243 2.052 . S
O249 C245 1.241 . S
O250 Co238 2.137 . S
O250 C241 1.247 . S
O251 Co238 2.244 . S
O251 C241 1.272 . S
O251 Co243 2.135 . S
Co252 O253 2.216 . S
Co252 O254 2.091 . S
Co252 O256 2.004 . S
Co252 O262 2.021 . S
Co252 O264 2.137 . S
Co252 O265 2.244 . S
O253 Co252 2.216 . S
O253 C260 1.247 . S
O254 Co252 2.091 . S
O254 C260 1.261 . S
C255 O264 1.247 . S
C255 O265 1.272 . S
O256 Co252 2.004 . S
O256 C261 1.259 . S
Co257 O258 2.061 . S
Co257 O263 2.052 . S
Co257 O265 2.135 . S
O258 Co257 2.061 . S
O258 C261 1.235 . S
C259 O262 1.238 . S
C259 O263 1.241 . S
C260 O253 1.247 . S
C260 O254 1.261 . S
C261 O256 1.259 . S
C261 O258 1.235 . S
O262 Co252 2.021 . S
O262 C259 1.238 . S
O263 Co257 2.052 . S
O263 C259 1.241 . S
O264 Co252 2.137 . S
O264 C255 1.247 . S
O265 Co252 2.244 . S
O265 C255 1.272 . S
O265 Co257 2.135 . S
Co266 O267 2.216 . S
Co266 O268 2.091 . S
Co266 O270 2.004 . S
Co266 O276 2.021 . S
Co266 O278 2.137 . S
Co266 O279 2.244 . S
O267 Co266 2.216 . S
O267 C274 1.247 . S
O268 Co266 2.091 . S
O268 C274 1.261 . S
C269 O278 1.247 . S
C269 O279 1.272 . S
O270 Co266 2.004 . S
O270 C275 1.259 . S
Co271 O272 2.061 . S
Co271 O277 2.052 . S
Co271 O279 2.135 . S
O272 Co271 2.061 . S
O272 C275 1.235 . S
C273 O276 1.238 . S
C273 O277 1.241 . S
C274 O267 1.247 . S
C274 O268 1.261 . S
C275 O270 1.259 . S
C275 O272 1.235 . S
O276 Co266 2.021 . S
O276 C273 1.238 . S
O277 Co271 2.052 . S
O277 C273 1.241 . S
O278 Co266 2.137 . S
O278 C269 1.247 . S
O279 Co266 2.244 . S
O279 C269 1.272 . S
O279 Co271 2.135 . S
Co280 O281 2.216 . S
Co280 O282 2.091 . S
Co280 O284 2.004 . S
Co280 O290 2.021 . S
Co280 O292 2.137 . S
Co280 O293 2.244 . S
O281 Co280 2.216 . S
O281 C288 1.247 . S
O282 Co280 2.091 . S
O282 C288 1.261 . S
C283 O292 1.247 . S
C283 O293 1.272 . S
O284 Co280 2.004 . S
O284 C289 1.259 . S
Co285 O286 2.061 . S
Co285 O291 2.052 . S
Co285 O293 2.135 . S
O286 Co285 2.061 . S
O286 C289 1.235 . S
C287 O290 1.238 . S
C287 O291 1.241 . S
C288 O281 1.247 . S
C288 O282 1.261 . S
C289 O284 1.259 . S
C289 O286 1.235 . S
O290 Co280 2.021 . S
O290 C287 1.238 . S
O291 Co285 2.052 . S
O291 C287 1.241 . S
O292 Co280 2.137 . S
O292 C283 1.247 . S
O293 Co280 2.244 . S
O293 C283 1.272 . S
O293 Co285 2.135 . S
Co294 O295 2.216 . S
Co294 O296 2.091 . S
Co294 O298 2.004 . S
Co294 O304 2.021 . S
Co294 O306 2.137 . S
Co294 O307 2.244 . S
O295 Co294 2.216 . S
O295 C302 1.247 . S
O296 Co294 2.091 . S
O296 C302 1.261 . S
C297 O306 1.247 . S
C297 O307 1.272 . S
O298 Co294 2.004 . S
O298 C303 1.259 . S
Co299 O300 2.061 . S
Co299 O305 2.052 . S
Co299 O307 2.135 . S
O300 Co299 2.061 . S
O300 C303 1.235 . S
C301 O304 1.238 . S
C301 O305 1.241 . S
C302 O295 1.247 . S
C302 O296 1.261 . S
C303 O298 1.259 . S
C303 O300 1.235 . S
O304 Co294 2.021 . S
O304 C301 1.238 . S
O305 Co299 2.052 . S
O305 C301 1.241 . S
O306 Co294 2.137 . S
O306 C297 1.247 . S
O307 Co294 2.244 . S
O307 C297 1.272 . S
O307 Co299 2.135 . S
Co308 O309 2.216 . S
Co308 O310 2.091 . S
Co308 O312 2.004 . S
Co308 O318 2.021 . S
Co308 O320 2.137 . S
Co308 O321 2.244 . S
O309 Co308 2.216 . S
O309 C316 1.247 . S
O310 Co308 2.091 . S
O310 C316 1.261 . S
C311 O320 1.247 . S
C311 O321 1.272 . S
O312 Co308 2.004 . S
O312 C317 1.259 . S
Co313 O314 2.061 . S
Co313 O319 2.052 . S
Co313 O321 2.135 . S
O314 Co313 2.061 . S
O314 C317 1.235 . S
C315 O318 1.238 . S
C315 O319 1.241 . S
C316 O309 1.247 . S
C316 O310 1.261 . S
C317 O312 1.259 . S
C317 O314 1.235 . S
O318 Co308 2.021 . S
O318 C315 1.238 . S
O319 Co313 2.052 . S
O319 C315 1.241 . S
O320 Co308 2.137 . S
O320 C311 1.247 . S
O321 Co308 2.244 . S
O321 C311 1.272 . S
O321 Co313 2.135 . S
Co322 O323 2.216 . S
Co322 O324 2.091 . S
Co322 O326 2.004 . S
Co322 O332 2.021 . S
Co322 O334 2.137 . S
Co322 O335 2.244 . S
O323 Co322 2.216 . S
O323 C330 1.247 . S
O324 Co322 2.091 . S
O324 C330 1.261 . S
C325 O334 1.247 . S
C325 O335 1.272 . S
O326 Co322 2.004 . S
O326 C331 1.259 . S
Co327 O328 2.061 . S
Co327 O333 2.052 . S
Co327 O335 2.135 . S
O328 Co327 2.061 . S
O328 C331 1.235 . S
C329 O332 1.238 . S
C329 O333 1.241 . S
C330 O323 1.247 . S
C330 O324 1.261 . S
C331 O326 1.259 . S
C331 O328 1.235 . S
O332 Co322 2.021 . S
O332 C329 1.238 . S
O333 Co327 2.052 . S
O333 C329 1.241 . S
O334 Co322 2.137 . S
O334 C325 1.247 . S
O335 Co322 2.244 . S
O335 C325 1.272 . S
O335 Co327 2.135 . S
Co336 O337 2.216 . S
Co336 O338 2.091 . S
Co336 O340 2.004 . S
Co336 O346 2.021 . S
Co336 O348 2.137 . S
Co336 O349 2.244 . S
O337 Co336 2.216 . S
O337 C344 1.247 . S
O338 Co336 2.091 . S
O338 C344 1.261 . S
C339 O348 1.247 . S
C339 O349 1.272 . S
O340 Co336 2.004 . S
O340 C345 1.259 . S
Co341 O342 2.061 . S
Co341 O347 2.052 . S
Co341 O349 2.135 . S
O342 Co341 2.061 . S
O342 C345 1.235 . S
C343 O346 1.238 . S
C343 O347 1.241 . S
C344 O337 1.247 . S
C344 O338 1.261 . S
C345 O340 1.259 . S
C345 O342 1.235 . S
O346 Co336 2.021 . S
O346 C343 1.238 . S
O347 Co341 2.052 . S
O347 C343 1.241 . S
O348 Co336 2.137 . S
O348 C339 1.247 . S
O349 Co336 2.244 . S
O349 C339 1.272 . S
O349 Co341 2.135 . S
Co350 O351 2.216 . S
Co350 O352 2.091 . S
Co350 O354 2.004 . S
Co350 O360 2.021 . S
Co350 O362 2.137 . S
Co350 O363 2.244 . S
O351 Co350 2.216 . S
O351 C358 1.247 . S
O352 Co350 2.091 . S
O352 C358 1.261 . S
C353 O362 1.247 . S
C353 O363 1.272 . S
O354 Co350 2.004 . S
O354 C359 1.259 . S
Co355 O356 2.061 . S
Co355 O361 2.052 . S
Co355 O363 2.135 . S
O356 Co355 2.061 . S
O356 C359 1.235 . S
C357 O360 1.238 . S
C357 O361 1.241 . S
C358 O351 1.247 . S
C358 O352 1.261 . S
C359 O354 1.259 . S
C359 O356 1.235 . S
O360 Co350 2.021 . S
O360 C357 1.238 . S
O361 Co355 2.052 . S
O361 C357 1.241 . S
O362 Co350 2.137 . S
O362 C353 1.247 . S
O363 Co350 2.244 . S
O363 C353 1.272 . S
O363 Co355 2.135 . S
Co364 O365 2.216 . S
Co364 O366 2.091 . S
Co364 O368 2.004 1_556 S
Co364 O374 2.021 . S
Co364 O376 2.137 . S
Co364 O377 2.244 . S
O365 Co364 2.216 . S
O365 C372 1.247 . S
O366 Co364 2.091 . S
O366 C372 1.261 . S
C367 O376 1.247 . S
C367 O377 1.272 . S
O368 Co364 2.004 1_554 S
O368 C373 1.259 . S
Co369 O370 2.061 . S
Co369 O375 2.042 1_554 S
Co369 O377 2.135 1_554 S
O370 Co369 2.061 . S
O370 C373 1.235 . S
C371 O374 1.238 . S
C371 O375 1.246 . S
C372 O365 1.247 . S
C372 O366 1.261 . S
C373 O368 1.259 . S
C373 O370 1.235 . S
O374 Co364 2.021 . S
O374 C371 1.238 . S
O375 Co369 2.042 1_556 S
O375 C371 1.246 . S
O376 Co364 2.137 . S
O376 C367 1.247 . S
O377 Co364 2.244 . S
O377 C367 1.272 . S
O377 Co369 2.135 1_556 S
Co378 O379 2.216 . S
Co378 O380 2.091 . S
Co378 O382 2.004 1_556 S
Co378 O388 2.021 . S
Co378 O390 2.137 . S
Co378 O391 2.244 . S
O379 Co378 2.216 . S
O379 C386 1.247 . S
O380 Co378 2.091 . S
O380 C386 1.261 . S
C381 O390 1.247 . S
C381 O391 1.272 . S
O382 Co378 2.004 1_554 S
O382 C387 1.259 . S
Co383 O384 2.061 . S
Co383 O389 2.042 1_554 S
Co383 O391 2.135 1_554 S
O384 Co383 2.061 . S
O384 C387 1.235 . S
C385 O388 1.238 . S
C385 O389 1.246 . S
C386 O379 1.247 . S
C386 O380 1.261 . S
C387 O382 1.259 . S
C387 O384 1.235 . S
O388 Co378 2.021 . S
O388 C385 1.238 . S
O389 Co383 2.042 1_556 S
O389 C385 1.246 . S
O390 Co378 2.137 . S
O390 C381 1.247 . S
O391 Co378 2.244 . S
O391 C381 1.272 . S
O391 Co383 2.135 1_556 S
Co392 O393 2.216 . S
Co392 O394 2.091 . S
Co392 O396 2.004 . S
Co392 O402 2.021 . S
Co392 O404 2.137 . S
Co392 O405 2.244 . S
O393 Co392 2.216 . S
O393 C400 1.247 . S
O394 Co392 2.091 . S
O394 C400 1.261 . S
C395 O404 1.247 . S
C395 O405 1.272 . S
O396 Co392 2.004 . S
O396 C401 1.259 . S
Co397 O398 2.061 . S
Co397 O403 2.052 . S
Co397 O405 2.135 . S
O398 Co397 2.061 . S
O398 C401 1.235 . S
C399 O402 1.238 . S
C399 O403 1.241 . S
C400 O393 1.247 . S
C400 O394 1.261 . S
C401 O396 1.259 . S
C401 O398 1.235 . S
O402 Co392 2.021 . S
O402 C399 1.238 . S
O403 Co397 2.052 . S
O403 C399 1.241 . S
O404 Co392 2.137 . S
O404 C395 1.247 . S
O405 Co392 2.244 . S
O405 C395 1.272 . S
O405 Co397 2.135 . S
Co406 O407 2.216 . S
Co406 O408 2.091 . S
Co406 O410 2.004 . S
Co406 O416 2.021 . S
Co406 O418 2.137 . S
Co406 O419 2.244 . S
O407 Co406 2.216 . S
O407 C414 1.247 . S
O408 Co406 2.091 . S
O408 C414 1.261 . S
C409 O418 1.247 . S
C409 O419 1.272 . S
O410 Co406 2.004 . S
O410 C415 1.259 . S
Co411 O412 2.061 . S
Co411 O417 2.052 . S
Co411 O419 2.135 . S
O412 Co411 2.061 . S
O412 C415 1.235 . S
C413 O416 1.238 . S
C413 O417 1.241 . S
C414 O407 1.247 . S
C414 O408 1.261 . S
C415 O410 1.259 . S
C415 O412 1.235 . S
O416 Co406 2.021 . S
O416 C413 1.238 . S
O417 Co411 2.052 . S
O417 C413 1.241 . S
O418 Co406 2.137 . S
O418 C409 1.247 . S
O419 Co406 2.244 . S
O419 C409 1.272 . S
O419 Co411 2.135 . S
Co420 O421 2.216 . S
Co420 O422 2.091 . S
Co420 O424 2.004 1_554 S
Co420 O430 2.021 . S
Co420 O432 2.137 . S
Co420 O433 2.244 . S
O421 Co420 2.216 . S
O421 C428 1.247 . S
O422 Co420 2.091 . S
O422 C428 1.261 . S
C423 O432 1.247 . S
C423 O433 1.272 . S
O424 Co420 2.004 1_556 S
O424 C429 1.259 . S
Co425 O426 2.061 . S
Co425 O431 2.042 1_556 S
Co425 O433 2.135 1_556 S
O426 Co425 2.061 . S
O426 C429 1.235 . S
C427 O430 1.238 . S
C427 O431 1.246 . S
C428 O421 1.247 . S
C428 O422 1.261 . S
C429 O424 1.259 . S
C429 O426 1.235 . S
O430 Co420 2.021 . S
O430 C427 1.238 . S
O431 Co425 2.042 1_554 S
O431 C427 1.246 . S
O432 Co420 2.137 . S
O432 C423 1.247 . S
O433 Co420 2.244 . S
O433 C423 1.272 . S
O433 Co425 2.135 1_554 S
Co434 O435 2.216 . S
Co434 O436 2.091 . S
Co434 O438 2.004 1_554 S
Co434 O444 2.021 . S
Co434 O446 2.137 . S
Co434 O447 2.244 . S
O435 Co434 2.216 . S
O435 C442 1.247 . S
O436 Co434 2.091 . S
O436 C442 1.261 . S
C437 O446 1.247 . S
C437 O447 1.272 . S
O438 Co434 2.004 1_556 S
O438 C443 1.259 . S
Co439 O440 2.061 . S
Co439 O445 2.042 1_556 S
Co439 O447 2.135 1_556 S
O440 Co439 2.061 . S
O440 C443 1.235 . S
C441 O444 1.238 . S
C441 O445 1.246 . S
C442 O435 1.247 . S
C442 O436 1.261 . S
C443 O438 1.259 . S
C443 O440 1.235 . S
O444 Co434 2.021 . S
O444 C441 1.238 . S
O445 Co439 2.042 1_554 S
O445 C441 1.246 . S
O446 Co434 2.137 . S
O446 C437 1.247 . S
O447 Co434 2.244 . S
O447 C437 1.272 . S
O447 Co439 2.135 1_554 S
C448 C449 1.363 . S
C448 C454 1.379 . S
C448 N456 1.356 . S
C449 C448 1.363 . S
C449 C455 1.363 . S
C450 C451 1.363 . S
C450 C455 1.379 . S
C450 N457 1.356 . S
C451 C450 1.363 . S
C451 C454 1.363 . S
N452 C454 1.351 1_655 S
N452 H464 0.988 . S
N452 H465 0.986 . S
N453 C455 1.356 . S
N453 H458 0.984 . S
N453 H459 0.985 . S
C454 C448 1.379 . S
C454 C451 1.363 . S
C454 N452 1.351 1_455 S
C455 C449 1.363 . S
C455 C450 1.379 . S
C455 N453 1.356 . S
N456 C448 1.356 . S
N456 H462 0.984 . S
N456 H463 0.984 . S
N457 C450 1.356 . S
N457 H460 0.984 . S
N457 H461 0.985 . S
H458 N453 0.984 . S
H459 N453 0.985 . S
H460 N457 0.984 . S
H461 N457 0.985 . S
H462 N456 0.984 . S
H463 N456 0.984 . S
H464 N452 0.988 . S
H465 N452 0.986 . S
C466 C467 1.363 . S
C466 C472 1.379 . S
C466 N474 1.356 . S
C467 C466 1.363 . S
C467 C473 1.363 . S
C468 C469 1.363 . S
C468 C473 1.379 . S
C468 N475 1.356 . S
C469 C468 1.363 . S
C469 C472 1.363 . S
N470 C472 1.356 . S
N470 H482 0.984 . S
N470 H483 0.985 . S
N471 C473 1.352 1_655 S
N471 H476 0.986 . S
N471 H477 0.987 . S
C472 C466 1.379 . S
C472 C469 1.363 . S
C472 N470 1.356 . S
C473 C467 1.363 . S
C473 C468 1.379 . S
C473 N471 1.352 1_455 S
N474 C466 1.356 . S
N474 H480 0.984 . S
N474 H481 0.984 . S
N475 C468 1.356 . S
N475 H478 0.984 . S
N475 H479 0.985 . S
H476 N471 0.986 . S
H477 N471 0.987 . S
H478 N475 0.984 . S
H479 N475 0.985 . S
H480 N474 0.984 . S
H481 N474 0.984 . S
H482 N470 0.984 . S
H483 N470 0.985 . S
C484 C485 1.363 . S
C484 C490 1.379 . S
C484 N492 1.356 . S
C485 C484 1.363 . S
C485 C491 1.363 . S
C486 C487 1.363 . S
C486 C491 1.379 . S
C486 N493 1.351 1_655 S
C487 C486 1.363 . S
C487 C490 1.363 . S
N488 C490 1.356 . S
N488 H500 0.984 . S
N488 H501 0.985 . S
N489 C491 1.356 . S
N489 H494 0.984 . S
N489 H495 0.985 . S
C490 C484 1.379 . S
C490 C487 1.363 . S
C490 N488 1.356 . S
C491 C485 1.363 . S
C491 C486 1.379 . S
C491 N489 1.356 . S
N492 C484 1.356 . S
N492 H498 0.984 . S
N492 H499 0.984 . S
N493 C486 1.351 1_455 S
N493 H496 0.986 . S
N493 H497 0.988 . S
H494 N489 0.984 . S
H495 N489 0.985 . S
H496 N493 0.986 . S
H497 N493 0.988 . S
H498 N492 0.984 . S
H499 N492 0.984 . S
H500 N488 0.984 . S
H501 N488 0.985 . S
C502 C503 1.363 . S
C502 C508 1.379 . S
C502 N510 1.352 1_655 S
C503 C502 1.363 . S
C503 C509 1.363 . S
C504 C505 1.363 . S
C504 C509 1.379 . S
C504 N511 1.356 . S
C505 C504 1.363 . S
C505 C508 1.363 . S
N506 C508 1.356 . S
N506 H518 0.984 . S
N506 H519 0.985 . S
N507 C509 1.356 . S
N507 H512 0.984 . S
N507 H513 0.985 . S
C508 C502 1.379 . S
C508 C505 1.363 . S
C508 N506 1.356 . S
C509 C503 1.363 . S
C509 C504 1.379 . S
C509 N507 1.356 . S
N510 C502 1.352 1_455 S
N510 H516 0.987 . S
N510 H517 0.986 . S
N511 C504 1.356 . S
N511 H514 0.984 . S
N511 H515 0.985 . S
H512 N507 0.984 . S
H513 N507 0.985 . S
H514 N511 0.984 . S
H515 N511 0.985 . S
H516 N510 0.987 . S
H517 N510 0.986 . S
H518 N506 0.984 . S
H519 N506 0.985 . S
C520 C521 1.363 . S
C520 C526 1.379 . S
C520 N528 1.356 . S
C521 C520 1.363 . S
C521 C527 1.363 . S
C522 C523 1.363 . S
C522 C527 1.379 . S
C522 N529 1.356 . S
C523 C522 1.363 . S
C523 C526 1.363 . S
N524 C526 1.356 . S
N524 H536 0.984 . S
N524 H537 0.985 . S
N525 C527 1.351 1_655 S
N525 H530 0.987 . S
N525 H531 0.988 . S
C526 C520 1.379 . S
C526 C523 1.363 . S
C526 N524 1.356 . S
C527 C521 1.363 . S
C527 C522 1.379 . S
C527 N525 1.351 1_455 S
N528 C520 1.356 . S
N528 H534 0.984 . S
N528 H535 0.984 . S
N529 C522 1.356 . S
N529 H532 0.984 . S
N529 H533 0.985 . S
H530 N525 0.987 . S
H531 N525 0.988 . S
H532 N529 0.984 . S
H533 N529 0.985 . S
H534 N528 0.984 . S
H535 N528 0.984 . S
H536 N524 0.984 . S
H537 N524 0.985 . S
C538 C539 1.363 . S
C538 C544 1.379 . S
C538 N546 1.356 . S
C539 C538 1.363 . S
C539 C545 1.363 . S
C540 C541 1.363 . S
C540 C545 1.379 . S
C540 N547 1.353 1_455 S
C541 C540 1.363 . S
C541 C544 1.363 . S
N542 C544 1.356 . S
N542 H554 0.984 . S
N542 H555 0.985 . S
N543 C545 1.356 . S
N543 H548 0.984 . S
N543 H549 0.985 . S
C544 C538 1.379 . S
C544 C541 1.363 . S
C544 N542 1.356 . S
C545 C539 1.363 . S
C545 C540 1.379 . S
C545 N543 1.356 . S
N546 C538 1.356 . S
N546 H552 0.984 . S
N546 H553 0.984 . S
N547 C540 1.353 1_655 S
N547 H550 0.986 . S
N547 H551 0.987 . S
H548 N543 0.984 . S
H549 N543 0.985 . S
H550 N547 0.986 . S
H551 N547 0.987 . S
H552 N546 0.984 . S
H553 N546 0.984 . S
H554 N542 0.984 . S
H555 N542 0.985 . S
C556 C557 1.363 . S
C556 C562 1.379 . S
C556 N564 1.356 . S
C557 C556 1.363 . S
C557 C563 1.363 . S
C558 C559 1.363 . S
C558 C563 1.379 . S
C558 N565 1.351 1_655 S
C559 C558 1.363 . S
C559 C562 1.363 . S
N560 C562 1.356 . S
N560 H572 0.984 . S
N560 H573 0.985 . S
N561 C563 1.356 . S
N561 H566 0.984 . S
N561 H567 0.985 . S
C562 C556 1.379 . S
C562 C559 1.363 . S
C562 N560 1.356 . S
C563 C557 1.363 . S
C563 C558 1.379 . S
C563 N561 1.356 . S
N564 C556 1.356 . S
N564 H570 0.984 . S
N564 H571 0.984 . S
N565 C558 1.351 1_455 S
N565 H568 0.986 . S
N565 H569 0.988 . S
H566 N561 0.984 . S
H567 N561 0.985 . S
H568 N565 0.986 . S
H569 N565 0.988 . S
H570 N564 0.984 . S
H571 N564 0.984 . S
H572 N560 0.984 . S
H573 N560 0.985 . S
C574 C575 1.363 . S
C574 C580 1.379 . S
C574 N582 1.356 . S
C575 C574 1.363 . S
C575 C581 1.363 . S
C576 C577 1.363 . S
C576 C581 1.379 . S
C576 N583 1.350 1_655 S
C577 C576 1.363 . S
C577 C580 1.363 . S
N578 C580 1.356 . S
N578 H590 0.984 . S
N578 H591 0.985 . S
N579 C581 1.356 . S
N579 H584 0.984 . S
N579 H585 0.985 . S
C580 C574 1.379 . S
C580 C577 1.363 . S
C580 N578 1.356 . S
C581 C575 1.363 . S
C581 C576 1.379 . S
C581 N579 1.356 . S
N582 C574 1.356 . S
N582 H588 0.984 . S
N582 H589 0.984 . S
N583 C576 1.350 1_455 S
N583 H586 0.987 . S
N583 H587 0.988 . S
H584 N579 0.984 . S
H585 N579 0.985 . S
H586 N583 0.987 . S
H587 N583 0.988 . S
H588 N582 0.984 . S
H589 N582 0.984 . S
H590 N578 0.984 . S
H591 N578 0.985 . S
C592 C593 1.363 . S
C592 C598 1.379 . S
C592 N600 1.356 . S
C593 C592 1.363 . S
C593 C599 1.363 . S
C594 C595 1.363 . S
C594 C599 1.379 . S
C594 N601 1.356 . S
C595 C594 1.363 . S
C595 C598 1.363 . S
N596 C598 1.356 . S
N596 H608 0.984 . S
N596 H609 0.985 . S
N597 C599 1.356 . S
N597 H602 0.984 . S
N597 H603 0.985 . S
C598 C592 1.379 . S
C598 C595 1.363 . S
C598 N596 1.356 . S
C599 C593 1.363 . S
C599 C594 1.379 . S
C599 N597 1.356 . S
N600 C592 1.356 . S
N600 H606 0.984 . S
N600 H607 0.984 . S
N601 C594 1.356 . S
N601 H604 0.984 . S
N601 H605 0.985 . S
H602 N597 0.984 . S
H603 N597 0.985 . S
H604 N601 0.984 . S
H605 N601 0.985 . S
H606 N600 0.984 . S
H607 N600 0.984 . S
H608 N596 0.984 . S
H609 N596 0.985 . S
C610 C611 1.363 . S
C610 C616 1.379 . S
C610 N618 1.356 . S
C611 C610 1.363 . S
C611 C617 1.363 . S
C612 C613 1.363 . S
C612 C617 1.379 . S
C612 N619 1.356 . S
C613 C612 1.363 . S
C613 C616 1.363 . S
N614 C616 1.356 . S
N614 H626 0.984 . S
N614 H627 0.985 . S
N615 C617 1.356 . S
N615 H620 0.984 . S
N615 H621 0.985 . S
C616 C610 1.379 . S
C616 C613 1.363 . S
C616 N614 1.356 . S
C617 C611 1.363 . S
C617 C612 1.379 . S
C617 N615 1.356 . S
N618 C610 1.356 . S
N618 H624 0.984 . S
N618 H625 0.984 . S
N619 C612 1.356 . S
N619 H622 0.984 . S
N619 H623 0.985 . S
H620 N615 0.984 . S
H621 N615 0.985 . S
H622 N619 0.984 . S
H623 N619 0.985 . S
H624 N618 0.984 . S
H625 N618 0.984 . S
H626 N614 0.984 . S
H627 N614 0.985 . S
C628 C629 1.363 . S
C628 C634 1.379 . S
C628 N636 1.356 . S
C629 C628 1.363 . S
C629 C635 1.363 . S
C630 C631 1.363 . S
C630 C635 1.379 . S
C630 N637 1.356 . S
C631 C630 1.363 . S
C631 C634 1.363 . S
N632 C634 1.356 . S
N632 H644 0.984 . S
N632 H645 0.985 . S
N633 C635 1.356 . S
N633 H638 0.984 . S
N633 H639 0.985 . S
C634 C628 1.379 . S
C634 C631 1.363 . S
C634 N632 1.356 . S
C635 C629 1.363 . S
C635 C630 1.379 . S
C635 N633 1.356 . S
N636 C628 1.356 . S
N636 H642 0.984 . S
N636 H643 0.984 . S
N637 C630 1.356 . S
N637 H640 0.984 . S
N637 H641 0.985 . S
H638 N633 0.984 . S
H639 N633 0.985 . S
H640 N637 0.984 . S
H641 N637 0.985 . S
H642 N636 0.984 . S
H643 N636 0.984 . S
H644 N632 0.984 . S
H645 N632 0.985 . S
C646 C647 1.363 . S
C646 C652 1.379 . S
C646 N654 1.356 . S
C647 C646 1.363 . S
C647 C653 1.363 . S
C648 C649 1.363 . S
C648 C653 1.379 . S
C648 N655 1.356 . S
C649 C648 1.363 . S
C649 C652 1.363 . S
N650 C652 1.356 . S
N650 H662 0.984 . S
N650 H663 0.985 . S
N651 C653 1.356 . S
N651 H656 0.984 . S
N651 H657 0.985 . S
C652 C646 1.379 . S
C652 C649 1.363 . S
C652 N650 1.356 . S
C653 C647 1.363 . S
C653 C648 1.379 . S
C653 N651 1.356 . S
N654 C646 1.356 . S
N654 H660 0.984 . S
N654 H661 0.984 . S
N655 C648 1.356 . S
N655 H658 0.984 . S
N655 H659 0.985 . S
H656 N651 0.984 . S
H657 N651 0.985 . S
H658 N655 0.984 . S
H659 N655 0.985 . S
H660 N654 0.984 . S
H661 N654 0.984 . S
H662 N650 0.984 . S
H663 N650 0.985 . S
C664 C665 1.363 . S
C664 C670 1.379 . S
C664 N672 1.356 . S
C665 C664 1.363 . S
C665 C671 1.363 . S
C666 C667 1.363 . S
C666 C671 1.379 . S
C666 N673 1.356 . S
C667 C666 1.363 . S
C667 C670 1.363 . S
N668 C670 1.356 . S
N668 H680 0.984 . S
N668 H681 0.985 . S
N669 C671 1.356 . S
N669 H674 0.984 . S
N669 H675 0.985 . S
C670 C664 1.379 . S
C670 C667 1.363 . S
C670 N668 1.356 . S
C671 C665 1.363 . S
C671 C666 1.379 . S
C671 N669 1.356 . S
N672 C664 1.356 . S
N672 H678 0.984 . S
N672 H679 0.984 . S
N673 C666 1.356 . S
N673 H676 0.984 . S
N673 H677 0.985 . S
H674 N669 0.984 . S
H675 N669 0.985 . S
H676 N673 0.984 . S
H677 N673 0.985 . S
H678 N672 0.984 . S
H679 N672 0.984 . S
H680 N668 0.984 . S
H681 N668 0.985 . S
C682 C683 1.363 . S
C682 C688 1.379 . S
C682 N690 1.356 . S
C683 C682 1.363 . S
C683 C689 1.363 . S
C684 C685 1.363 . S
C684 C689 1.379 . S
C684 N691 1.356 . S
C685 C684 1.363 . S
C685 C688 1.363 . S
N686 C688 1.356 . S
N686 H698 0.984 . S
N686 H699 0.985 . S
N687 C689 1.356 . S
N687 H692 0.984 . S
N687 H693 0.985 . S
C688 C682 1.379 . S
C688 C685 1.363 . S
C688 N686 1.356 . S
C689 C683 1.363 . S
C689 C684 1.379 . S
C689 N687 1.356 . S
N690 C682 1.356 . S
N690 H696 0.984 . S
N690 H697 0.984 . S
N691 C684 1.356 . S
N691 H694 0.984 . S
N691 H695 0.985 . S
H692 N687 0.984 . S
H693 N687 0.985 . S
H694 N691 0.984 . S
H695 N691 0.985 . S
H696 N690 0.984 . S
H697 N690 0.984 . S
H698 N686 0.984 . S
H699 N686 0.985 . S
C700 C701 1.363 . S
C700 C706 1.379 . S
C700 N708 1.356 . S
C701 C700 1.363 . S
C701 C707 1.363 . S
C702 C703 1.363 . S
C702 C707 1.379 . S
C702 N709 1.356 . S
C703 C702 1.363 . S
C703 C706 1.363 . S
N704 C706 1.356 . S
N704 H716 0.984 . S
N704 H717 0.985 . S
N705 C707 1.356 . S
N705 H710 0.984 . S
N705 H711 0.985 . S
C706 C700 1.379 . S
C706 C703 1.363 . S
C706 N704 1.356 . S
C707 C701 1.363 . S
C707 C702 1.379 . S
C707 N705 1.356 . S
N708 C700 1.356 . S
N708 H714 0.984 . S
N708 H715 0.984 . S
N709 C702 1.356 . S
N709 H712 0.984 . S
N709 H713 0.985 . S
H710 N705 0.984 . S
H711 N705 0.985 . S
H712 N709 0.984 . S
H713 N709 0.985 . S
H714 N708 0.984 . S
H715 N708 0.984 . S
H716 N704 0.984 . S
H717 N704 0.985 . S
C718 C719 1.363 . S
C718 C724 1.379 . S
C718 N726 1.356 . S
C719 C718 1.363 . S
C719 C725 1.363 . S
C720 C721 1.363 . S
C720 C725 1.379 . S
C720 N727 1.356 . S
C721 C720 1.363 . S
C721 C724 1.363 . S
N722 C724 1.356 . S
N722 H734 0.984 . S
N722 H735 0.985 . S
N723 C725 1.356 . S
N723 H728 0.984 . S
N723 H729 0.985 . S
C724 C718 1.379 . S
C724 C721 1.363 . S
C724 N722 1.356 . S
C725 C719 1.363 . S
C725 C720 1.379 . S
C725 N723 1.356 . S
N726 C718 1.356 . S
N726 H732 0.984 . S
N726 H733 0.984 . S
N727 C720 1.356 . S
N727 H730 0.984 . S
N727 H731 0.985 . S
H728 N723 0.984 . S
H729 N723 0.985 . S
H730 N727 0.984 . S
H731 N727 0.985 . S
H732 N726 0.984 . S
H733 N726 0.984 . S
H734 N722 0.984 . S
H735 N722 0.985 . S
C736 C737 1.363 . S
C736 C742 1.379 1_565 S
C736 N744 1.356 . S
C737 C736 1.363 . S
C737 C743 1.363 . S
C738 C739 1.363 . S
C738 C743 1.379 1_545 S
C738 N745 1.356 . S
C739 C738 1.363 . S
C739 C742 1.363 . S
N740 C742 1.356 . S
N740 H752 0.984 . S
N740 H753 0.985 . S
N741 C743 1.356 . S
N741 H746 0.984 . S
N741 H747 0.985 . S
C742 C736 1.379 1_545 S
C742 C739 1.363 . S
C742 N740 1.356 . S
C743 C737 1.363 . S
C743 C738 1.379 1_565 S
C743 N741 1.356 . S
N744 C736 1.356 . S
N744 H750 0.984 . S
N744 H751 0.984 . S
N745 C738 1.356 . S
N745 H748 0.984 . S
N745 H749 0.985 . S
H746 N741 0.984 . S
H747 N741 0.985 . S
H748 N745 0.984 . S
H749 N745 0.985 . S
H750 N744 0.984 . S
H751 N744 0.984 . S
H752 N740 0.984 . S
H753 N740 0.985 . S
C754 C755 1.363 . S
C754 C760 1.379 . S
C754 N762 1.356 . S
C755 C754 1.363 . S
C755 C761 1.363 1_655 S
C756 C757 1.363 . S
C756 C761 1.379 . S
C756 N763 1.356 . S
C757 C756 1.363 . S
C757 C760 1.363 1_455 S
N758 C760 1.356 . S
N758 H770 0.984 . S
N758 H771 0.985 . S
N759 C761 1.356 . S
N759 H764 0.984 . S
N759 H765 0.985 . S
C760 C754 1.379 . S
C760 C757 1.363 1_655 S
C760 N758 1.356 . S
C761 C755 1.363 1_455 S
C761 C756 1.379 . S
C761 N759 1.356 . S
N762 C754 1.356 . S
N762 H768 0.984 . S
N762 H769 0.984 . S
N763 C756 1.356 . S
N763 H766 0.984 . S
N763 H767 0.985 . S
H764 N759 0.984 . S
H765 N759 0.985 . S
H766 N763 0.984 . S
H767 N763 0.985 . S
H768 N762 0.984 . S
H769 N762 0.984 . S
H770 N758 0.984 . S
H771 N758 0.985 . S
C772 C773 1.363 . S
C772 C778 1.379 . S
C772 N780 1.356 . S
C773 C772 1.363 . S
C773 C779 1.363 1_556 S
C774 C775 1.363 . S
C774 C779 1.379 . S
C774 N781 1.356 . S
C775 C774 1.363 . S
C775 C778 1.363 1_554 S
N776 C778 1.356 . S
N776 H788 0.984 . S
N776 H789 0.985 . S
N777 C779 1.356 . S
N777 H782 0.984 . S
N777 H783 0.985 . S
C778 C772 1.379 . S
C778 C775 1.363 1_556 S
C778 N776 1.356 . S
C779 C773 1.363 1_554 S
C779 C774 1.379 . S
C779 N777 1.356 . S
N780 C772 1.356 . S
N780 H786 0.984 . S
N780 H787 0.984 . S
N781 C774 1.356 . S
N781 H784 0.984 . S
N781 H785 0.985 . S
H782 N777 0.984 . S
H783 N777 0.985 . S
H784 N781 0.984 . S
H785 N781 0.985 . S
H786 N780 0.984 . S
H787 N780 0.984 . S
H788 N776 0.984 . S
H789 N776 0.985 . S
C790 C791 1.363 1_654 S
C790 C796 1.379 1_545 S
C790 N798 1.356 . S
C791 C790 1.363 1_456 S
C791 C797 1.363 . S
C792 C793 1.363 1_456 S
C792 C797 1.379 1_565 S
C792 N799 1.356 . S
C793 C792 1.363 1_654 S
C793 C796 1.363 . S
N794 C796 1.356 . S
N794 H806 0.984 . S
N794 H807 0.985 . S
N795 C797 1.356 . S
N795 H800 0.984 . S
N795 H801 0.985 . S
C796 C790 1.379 1_565 S
C796 C793 1.363 . S
C796 N794 1.356 . S
C797 C791 1.363 . S
C797 C792 1.379 1_545 S
C797 N795 1.356 . S
N798 C790 1.356 . S
N798 H804 0.984 . S
N798 H805 0.984 . S
N799 C792 1.356 . S
N799 H802 0.984 . S
N799 H803 0.985 . S
H800 N795 0.984 . S
H801 N795 0.985 . S
H802 N799 0.984 . S
H803 N799 0.985 . S
H804 N798 0.984 . S
H805 N798 0.984 . S
H806 N794 0.984 . S
H807 N794 0.985 . S
C808 C809 1.363 . S
C808 C814 1.379 1_545 S
C808 N816 1.356 . S
C809 C808 1.363 . S
C809 C815 1.363 . S
C810 C811 1.363 . S
C810 C815 1.379 1_565 S
C810 N817 1.356 . S
C811 C810 1.363 . S
C811 C814 1.363 . S
N812 C814 1.356 . S
N812 H824 0.984 . S
N812 H825 0.985 . S
N813 C815 1.356 . S
N813 H818 0.984 . S
N813 H819 0.985 . S
C814 C808 1.379 1_565 S
C814 C811 1.363 . S
C814 N812 1.356 . S
C815 C809 1.363 . S
C815 C810 1.379 1_545 S
C815 N813 1.356 . S
N816 C808 1.356 . S
N816 H822 0.984 . S
N816 H823 0.984 . S
N817 C810 1.356 . S
N817 H820 0.984 . S
N817 H821 0.985 . S
H818 N813 0.984 . S
H819 N813 0.985 . S
H820 N817 0.984 . S
H821 N817 0.985 . S
H822 N816 0.984 . S
H823 N816 0.984 . S
H824 N812 0.984 . S
H825 N812 0.985 . S
C826 C827 1.363 1_655 S
C826 C832 1.379 . S
C826 N834 1.356 . S
C827 C826 1.363 1_455 S
C827 C833 1.363 . S
C828 C829 1.363 1_455 S
C828 C833 1.379 . S
C828 N835 1.356 . S
C829 C828 1.363 1_655 S
C829 C832 1.363 . S
N830 C832 1.356 . S
N830 H842 0.984 . S
N830 H843 0.985 . S
N831 C833 1.356 . S
N831 H836 0.984 . S
N831 H837 0.985 . S
C832 C826 1.379 . S
C832 C829 1.363 . S
C832 N830 1.356 . S
C833 C827 1.363 . S
C833 C828 1.379 . S
C833 N831 1.356 . S
N834 C826 1.356 . S
N834 H840 0.984 . S
N834 H841 0.984 . S
N835 C828 1.356 . S
N835 H838 0.984 . S
N835 H839 0.985 . S
H836 N831 0.984 . S
H837 N831 0.985 . S
H838 N835 0.984 . S
H839 N835 0.985 . S
H840 N834 0.984 . S
H841 N834 0.984 . S
H842 N830 0.984 . S
H843 N830 0.985 . S
C844 C845 1.363 . S
C844 C850 1.379 . S
C844 N852 1.356 . S
C845 C844 1.363 . S
C845 C851 1.363 1_556 S
C846 C847 1.363 . S
C846 C851 1.379 . S
C846 N853 1.356 . S
C847 C846 1.363 . S
C847 C850 1.363 1_554 S
N848 C850 1.356 . S
N848 H860 0.984 . S
N848 H861 0.985 . S
N849 C851 1.356 . S
N849 H854 0.984 . S
N849 H855 0.985 . S
C850 C844 1.379 . S
C850 C847 1.363 1_556 S
C850 N848 1.356 . S
C851 C845 1.363 1_554 S
C851 C846 1.379 . S
C851 N849 1.356 . S
N852 C844 1.356 . S
N852 H858 0.984 . S
N852 H859 0.984 . S
N853 C846 1.356 . S
N853 H856 0.984 . S
N853 H857 0.985 . S
H854 N849 0.984 . S
H855 N849 0.985 . S
H856 N853 0.984 . S
H857 N853 0.985 . S
H858 N852 0.984 . S
H859 N852 0.984 . S
H860 N848 0.984 . S
H861 N848 0.985 . S
C862 C863 1.363 . S
C862 C868 1.379 . S
C862 N870 1.356 . S
C863 C862 1.363 . S
C863 C869 1.363 . S
C864 C865 1.363 . S
C864 C869 1.379 . S
C864 N871 1.356 . S
C865 C864 1.363 . S
C865 C868 1.363 . S
N866 C868 1.356 . S
N866 H878 0.984 . S
N866 H879 0.985 . S
N867 C869 1.356 . S
N867 H872 0.984 . S
N867 H873 0.985 . S
C868 C862 1.379 . S
C868 C865 1.363 . S
C868 N866 1.356 . S
C869 C863 1.363 . S
C869 C864 1.379 . S
C869 N867 1.356 . S
N870 C862 1.356 . S
N870 H876 0.984 . S
N870 H877 0.984 . S
N871 C864 1.356 . S
N871 H874 0.984 . S
N871 H875 0.985 . S
H872 N867 0.984 . S
H873 N867 0.985 . S
H874 N871 0.984 . S
H875 N871 0.985 . S
H876 N870 0.984 . S
H877 N870 0.984 . S
H878 N866 0.984 . S
H879 N866 0.985 . S
C880 C881 1.363 . S
C880 C886 1.379 . S
C880 N888 1.356 . S
C881 C880 1.363 . S
C881 C887 1.363 . S
C882 C883 1.363 . S
C882 C887 1.379 . S
C882 N889 1.356 . S
C883 C882 1.363 . S
C883 C886 1.363 . S
N884 C886 1.356 . S
N884 H896 0.984 . S
N884 H897 0.985 . S
N885 C887 1.356 . S
N885 H890 0.984 . S
N885 H891 0.985 . S
C886 C880 1.379 . S
C886 C883 1.363 . S
C886 N884 1.356 . S
C887 C881 1.363 . S
C887 C882 1.379 . S
C887 N885 1.356 . S
N888 C880 1.356 . S
N888 H894 0.984 . S
N888 H895 0.984 . S
N889 C882 1.356 . S
N889 H892 0.984 . S
N889 H893 0.985 . S
H890 N885 0.984 . S
H891 N885 0.985 . S
H892 N889 0.984 . S
H893 N889 0.985 . S
H894 N888 0.984 . S
H895 N888 0.984 . S
H896 N884 0.984 . S
H897 N884 0.985 . S
C898 C899 1.363 1_455 S
C898 C904 1.379 . S
C898 N906 1.356 . S
C899 C898 1.363 1_655 S
C899 C905 1.363 . S
C900 C901 1.363 1_655 S
C900 C905 1.379 . S
C900 N907 1.356 . S
C901 C900 1.363 1_455 S
C901 C904 1.363 . S
N902 C904 1.356 . S
N902 H914 0.984 . S
N902 H915 0.985 . S
N903 C905 1.356 . S
N903 H908 0.984 . S
N903 H909 0.985 . S
C904 C898 1.379 . S
C904 C901 1.363 . S
C904 N902 1.356 . S
C905 C899 1.363 . S
C905 C900 1.379 . S
C905 N903 1.356 . S
N906 C898 1.356 . S
N906 H912 0.984 . S
N906 H913 0.984 1_455 S
N907 C900 1.356 . S
N907 H910 0.984 1_655 S
N907 H911 0.985 . S
H908 N903 0.984 . S
H909 N903 0.985 . S
H910 N907 0.984 1_455 S
H911 N907 0.985 . S
H912 N906 0.984 . S
H913 N906 0.984 1_655 S
H914 N902 0.984 . S
H915 N902 0.985 . S
C916 C917 1.363 . S
C916 C922 1.379 . S
C916 N924 1.356 . S
C917 C916 1.363 . S
C917 C923 1.363 . S
C918 C919 1.363 . S
C918 C923 1.379 . S
C918 N925 1.356 . S
C919 C918 1.363 . S
C919 C922 1.363 . S
N920 C922 1.356 . S
N920 H932 0.984 . S
N920 H933 0.985 . S
N921 C923 1.356 . S
N921 H926 0.984 . S
N921 H927 0.985 . S
C922 C916 1.379 . S
C922 C919 1.363 . S
C922 N920 1.356 . S
C923 C917 1.363 . S
C923 C918 1.379 . S
C923 N921 1.356 . S
N924 C916 1.356 . S
N924 H930 0.984 . S
N924 H931 0.984 . S
N925 C918 1.356 . S
N925 H928 0.984 . S
N925 H929 0.985 . S
H926 N921 0.984 . S
H927 N921 0.985 . S
H928 N925 0.984 . S
H929 N925 0.985 . S
H930 N924 0.984 . S
H931 N924 0.984 . S
H932 N920 0.984 . S
H933 N920 0.985 . S
C934 C935 1.363 . S
C934 C940 1.379 . S
C934 N942 1.356 . S
C935 C934 1.363 . S
C935 C941 1.363 . S
C936 C937 1.363 . S
C936 C941 1.379 . S
C936 N943 1.356 . S
C937 C936 1.363 . S
C937 C940 1.363 . S
N938 C940 1.356 . S
N938 H950 0.984 . S
N938 H951 0.985 . S
N939 C941 1.356 . S
N939 H944 0.984 . S
N939 H945 0.985 . S
C940 C934 1.379 . S
C940 C937 1.363 . S
C940 N938 1.356 . S
C941 C935 1.363 . S
C941 C936 1.379 . S
C941 N939 1.356 . S
N942 C934 1.356 . S
N942 H948 0.984 . S
N942 H949 0.984 . S
N943 C936 1.356 . S
N943 H946 0.984 . S
N943 H947 0.985 . S
H944 N939 0.984 . S
H945 N939 0.985 . S
H946 N943 0.984 . S
H947 N943 0.985 . S
H948 N942 0.984 . S
H949 N942 0.984 . S
H950 N938 0.984 . S
H951 N938 0.985 . S
C952 C953 1.363 . S
C952 C958 1.379 . S
C952 N960 1.356 . S
C953 C952 1.363 . S
C953 C959 1.363 . S
C954 C955 1.363 . S
C954 C959 1.379 . S
C954 N961 1.356 . S
C955 C954 1.363 . S
C955 C958 1.363 . S
N956 C958 1.356 . S
N956 H968 0.984 . S
N956 H969 0.985 . S
N957 C959 1.356 . S
N957 H962 0.984 . S
N957 H963 0.985 . S
C958 C952 1.379 . S
C958 C955 1.363 . S
C958 N956 1.356 . S
C959 C953 1.363 . S
C959 C954 1.379 . S
C959 N957 1.356 . S
N960 C952 1.356 . S
N960 H966 0.984 . S
N960 H967 0.984 . S
N961 C954 1.356 . S
N961 H964 0.984 . S
N961 H965 0.985 . S
H962 N957 0.984 . S
H963 N957 0.985 . S
H964 N961 0.984 . S
H965 N961 0.985 . S
H966 N960 0.984 . S
H967 N960 0.984 . S
H968 N956 0.984 . S
H969 N956 0.985 . S
C970 C971 1.363 . S
C970 C976 1.379 1_545 S
C970 N978 1.356 . S
C971 C970 1.363 . S
C971 C977 1.363 . S
C972 C973 1.363 . S
C972 C977 1.379 1_565 S
C972 N979 1.356 . S
C973 C972 1.363 . S
C973 C976 1.363 . S
N974 C976 1.356 . S
N974 H986 0.984 . S
N974 H987 0.985 . S
N975 C977 1.356 . S
N975 H980 0.984 . S
N975 H981 0.985 . S
C976 C970 1.379 1_565 S
C976 C973 1.363 . S
C976 N974 1.356 . S
C977 C971 1.363 . S
C977 C972 1.379 1_545 S
C977 N975 1.356 . S
N978 C970 1.356 . S
N978 H984 0.984 . S
N978 H985 0.984 . S
N979 C972 1.356 . S
N979 H982 0.984 . S
N979 H983 0.985 . S
H980 N975 0.984 . S
H981 N975 0.985 . S
H982 N979 0.984 . S
H983 N979 0.985 . S
H984 N978 0.984 . S
H985 N978 0.984 . S
H986 N974 0.984 . S
H987 N974 0.985 . S
C988 C989 1.363 . S
C988 C994 1.379 . S
C988 N996 1.356 . S
C989 C988 1.363 . S
C989 C995 1.363 . S
C990 C991 1.363 . S
C990 C995 1.379 . S
C990 N997 1.356 . S
C991 C990 1.363 . S
C991 C994 1.363 . S
N992 C994 1.356 . S
N992 H1004 0.984 . S
N992 H1005 0.985 . S
N993 C995 1.356 . S
N993 H998 0.984 . S
N993 H999 0.985 . S
C994 C988 1.379 . S
C994 C991 1.363 . S
C994 N992 1.356 . S
C995 C989 1.363 . S
C995 C990 1.379 . S
C995 N993 1.356 . S
N996 C988 1.356 . S
N996 H1002 0.984 . S
N996 H1003 0.984 . S
N997 C990 1.356 . S
N997 H1000 0.984 . S
N997 H1001 0.985 . S
H998 N993 0.984 . S
H999 N993 0.985 . S
H1000 N997 0.984 . S
H1001 N997 0.985 . S
H1002 N996 0.984 . S
H1003 N996 0.984 . S
H1004 N992 0.984 . S
H1005 N992 0.985 . S
C1006 C1007 1.363 . S
C1006 C1012 1.379 . S
C1006 N1014 1.356 . S
C1007 C1006 1.363 . S
C1007 C1013 1.363 1_554 S
C1008 C1009 1.363 . S
C1008 C1013 1.379 . S
C1008 N1015 1.356 . S
C1009 C1008 1.363 . S
C1009 C1012 1.363 1_556 S
N1010 C1012 1.356 . S
N1010 H1022 0.984 . S
N1010 H1023 0.985 . S
N1011 C1013 1.356 . S
N1011 H1016 0.984 . S
N1011 H1017 0.985 . S
C1012 C1006 1.379 . S
C1012 C1009 1.363 1_554 S
C1012 N1010 1.356 . S
C1013 C1007 1.363 1_556 S
C1013 C1008 1.379 . S
C1013 N1011 1.356 . S
N1014 C1006 1.356 . S
N1014 H1020 0.984 . S
N1014 H1021 0.984 . S
N1015 C1008 1.356 . S
N1015 H1018 0.984 . S
N1015 H1019 0.985 . S
H1016 N1011 0.984 . S
H1017 N1011 0.985 . S
H1018 N1015 0.984 . S
H1019 N1015 0.985 . S
H1020 N1014 0.984 . S
H1021 N1014 0.984 . S
H1022 N1010 0.984 . S
H1023 N1010 0.985 . S
C1024 C1025 1.363 . S
C1024 C1030 1.379 . S
C1024 N1032 1.356 . S
C1025 C1024 1.363 . S
C1025 C1031 1.363 . S
C1026 C1027 1.363 . S
C1026 C1031 1.379 . S
C1026 N1033 1.356 . S
C1027 C1026 1.363 . S
C1027 C1030 1.363 . S
N1028 C1030 1.356 . S
N1028 H1040 0.984 . S
N1028 H1041 0.985 . S
N1029 C1031 1.356 . S
N1029 H1034 0.984 . S
N1029 H1035 0.985 . S
C1030 C1024 1.379 . S
C1030 C1027 1.363 . S
C1030 N1028 1.356 . S
C1031 C1025 1.363 . S
C1031 C1026 1.379 . S
C1031 N1029 1.356 . S
N1032 C1024 1.356 . S
N1032 H1038 0.984 1_455 S
N1032 H1039 0.984 . S
N1033 C1026 1.356 . S
N1033 H1036 0.984 . S
N1033 H1037 0.985 . S
H1034 N1029 0.984 . S
H1035 N1029 0.985 . S
H1036 N1033 0.984 . S
H1037 N1033 0.985 . S
H1038 N1032 0.984 1_655 S
H1039 N1032 0.984 . S
H1040 N1028 0.984 . S
H1041 N1028 0.985 . S
C1042 C1043 1.363 . S
C1042 C1048 1.379 . S
C1042 N1050 1.356 . S
C1043 C1042 1.363 . S
C1043 C1049 1.363 1_556 S
C1044 C1045 1.363 1_554 S
C1044 C1049 1.379 . S
C1044 N1051 1.356 . S
C1045 C1044 1.363 1_556 S
C1045 C1048 1.363 . S
N1046 C1048 1.356 . S
N1046 H1058 0.984 1_455 S
N1046 H1059 0.985 . S
N1047 C1049 1.356 . S
N1047 H1052 0.984 . S
N1047 H1053 0.985 . S
C1048 C1042 1.379 . S
C1048 C1045 1.363 . S
C1048 N1046 1.356 . S
C1049 C1043 1.363 1_554 S
C1049 C1044 1.379 . S
C1049 N1047 1.356 . S
N1050 C1042 1.356 . S
N1050 H1056 0.984 . S
N1050 H1057 0.984 . S
N1051 C1044 1.356 . S
N1051 H1054 0.984 . S
N1051 H1055 0.985 . S
H1052 N1047 0.984 . S
H1053 N1047 0.985 . S
H1054 N1051 0.984 . S
H1055 N1051 0.985 . S
H1056 N1050 0.984 . S
H1057 N1050 0.984 . S
H1058 N1046 0.984 1_655 S
H1059 N1046 0.985 . S
C1060 C1061 1.363 . S
C1060 C1066 1.379 . S
C1060 N1068 1.356 . S
C1061 C1060 1.363 . S
C1061 C1067 1.363 . S
C1062 C1063 1.363 . S
C1062 C1067 1.379 . S
C1062 N1069 1.356 . S
C1063 C1062 1.363 . S
C1063 C1066 1.363 . S
N1064 C1066 1.356 . S
N1064 H1076 0.984 . S
N1064 H1077 0.985 . S
N1065 C1067 1.356 . S
N1065 H1070 0.984 . S
N1065 H1071 0.985 . S
C1066 C1060 1.379 . S
C1066 C1063 1.363 . S
C1066 N1064 1.356 . S
C1067 C1061 1.363 . S
C1067 C1062 1.379 . S
C1067 N1065 1.356 . S
N1068 C1060 1.356 . S
N1068 H1074 0.984 . S
N1068 H1075 0.984 . S
N1069 C1062 1.356 . S
N1069 H1072 0.984 . S
N1069 H1073 0.985 1_655 S
H1070 N1065 0.984 . S
H1071 N1065 0.985 . S
H1072 N1069 0.984 . S
H1073 N1069 0.985 1_455 S
H1074 N1068 0.984 . S
H1075 N1068 0.984 . S
H1076 N1064 0.984 . S
H1077 N1064 0.985 . S
C1078 C1079 1.363 1_556 S
C1078 C1084 1.379 . S
C1078 N1086 1.356 . S
C1079 C1078 1.363 1_554 S
C1079 C1085 1.363 . S
C1080 C1081 1.363 . S
C1080 C1085 1.379 . S
C1080 N1087 1.356 . S
C1081 C1080 1.363 . S
C1081 C1084 1.363 1_554 S
N1082 C1084 1.356 . S
N1082 H1094 0.984 . S
N1082 H1095 0.985 . S
N1083 C1085 1.356 . S
N1083 H1088 0.984 . S
N1083 H1089 0.985 1_655 S
C1084 C1078 1.379 . S
C1084 C1081 1.363 1_556 S
C1084 N1082 1.356 . S
C1085 C1079 1.363 . S
C1085 C1080 1.379 . S
C1085 N1083 1.356 . S
N1086 C1078 1.356 . S
N1086 H1092 0.984 . S
N1086 H1093 0.984 . S
N1087 C1080 1.356 . S
N1087 H1090 0.984 . S
N1087 H1091 0.985 . S
H1088 N1083 0.984 . S
H1089 N1083 0.985 1_455 S
H1090 N1087 0.984 . S
H1091 N1087 0.985 . S
H1092 N1086 0.984 . S
H1093 N1086 0.984 . S
H1094 N1082 0.984 . S
H1095 N1082 0.985 . S
C1096 C1097 1.363 . S
C1096 C1102 1.379 . S
C1096 N1104 1.356 . S
C1097 C1096 1.363 . S
C1097 C1103 1.363 . S
C1098 C1099 1.363 . S
C1098 C1103 1.379 . S
C1098 N1105 1.356 . S
C1099 C1098 1.363 . S
C1099 C1102 1.363 . S
N1100 C1102 1.356 . S
N1100 H1112 0.984 . S
N1100 H1113 0.985 . S
N1101 C1103 1.356 . S
N1101 H1106 0.984 . S
N1101 H1107 0.985 . S
C1102 C1096 1.379 . S
C1102 C1099 1.363 . S
C1102 N1100 1.356 . S
C1103 C1097 1.363 . S
C1103 C1098 1.379 . S
C1103 N1101 1.356 . S
N1104 C1096 1.356 . S
N1104 H1110 0.984 . S
N1104 H1111 0.984 . S
N1105 C1098 1.356 . S
N1105 H1108 0.984 . S
N1105 H1109 0.985 1_455 S
H1106 N1101 0.984 . S
H1107 N1101 0.985 . S
H1108 N1105 0.984 . S
H1109 N1105 0.985 1_655 S
H1110 N1104 0.984 . S
H1111 N1104 0.984 . S
H1112 N1100 0.984 . S
H1113 N1100 0.985 . S
C1114 C1115 1.363 . S
C1114 C1120 1.379 . S
C1114 N1122 1.356 . S
C1115 C1114 1.363 . S
C1115 C1121 1.363 . S
C1116 C1117 1.363 . S
C1116 C1121 1.379 . S
C1116 N1123 1.356 . S
C1117 C1116 1.363 . S
C1117 C1120 1.363 . S
N1118 C1120 1.356 . S
N1118 H1130 0.984 . S
N1118 H1131 0.985 . S
N1119 C1121 1.356 . S
N1119 H1124 0.984 . S
N1119 H1125 0.985 . S
C1120 C1114 1.379 . S
C1120 C1117 1.363 . S
C1120 N1118 1.356 . S
C1121 C1115 1.363 . S
C1121 C1116 1.379 . S
C1121 N1119 1.356 . S
N1122 C1114 1.356 . S
N1122 H1128 0.984 . S
N1122 H1129 0.984 . S
N1123 C1116 1.356 . S
N1123 H1126 0.984 . S
N1123 H1127 0.985 1_455 S
H1124 N1119 0.984 . S
H1125 N1119 0.985 . S
H1126 N1123 0.984 . S
H1127 N1123 0.985 1_655 S
H1128 N1122 0.984 . S
H1129 N1122 0.984 . S
H1130 N1118 0.984 . S
H1131 N1118 0.985 . S
C1132 C1133 1.363 . S
C1132 C1138 1.379 . S
C1132 N1140 1.356 . S
C1133 C1132 1.363 . S
C1133 C1139 1.363 . S
C1134 C1135 1.363 . S
C1134 C1139 1.379 . S
C1134 N1141 1.356 . S
C1135 C1134 1.363 . S
C1135 C1138 1.363 . S
N1136 C1138 1.356 . S
N1136 H1148 0.984 . S
N1136 H1149 0.985 . S
N1137 C1139 1.356 . S
N1137 H1142 0.984 . S
N1137 H1143 0.985 . S
C1138 C1132 1.379 . S
C1138 C1135 1.363 . S
C1138 N1136 1.356 . S
C1139 C1133 1.363 . S
C1139 C1134 1.379 . S
C1139 N1137 1.356 . S
N1140 C1132 1.356 . S
N1140 H1146 0.984 1_655 S
N1140 H1147 0.984 . S
N1141 C1134 1.356 . S
N1141 H1144 0.984 . S
N1141 H1145 0.985 . S
H1142 N1137 0.984 . S
H1143 N1137 0.985 . S
H1144 N1141 0.984 . S
H1145 N1141 0.985 . S
H1146 N1140 0.984 1_455 S
H1147 N1140 0.984 . S
H1148 N1136 0.984 . S
H1149 N1136 0.985 . S
C1150 C1151 1.363 . S
C1150 C1156 1.379 . S
C1150 N1158 1.356 . S
C1151 C1150 1.363 . S
C1151 C1157 1.363 . S
C1152 C1153 1.363 . S
C1152 C1157 1.379 . S
C1152 N1159 1.356 . S
C1153 C1152 1.363 . S
C1153 C1156 1.363 . S
N1154 C1156 1.356 . S
N1154 H1166 0.984 . S
N1154 H1167 0.985 . S
N1155 C1157 1.356 . S
N1155 H1160 0.984 . S
N1155 H1161 0.985 . S
C1156 C1150 1.379 . S
C1156 C1153 1.363 . S
C1156 N1154 1.356 . S
C1157 C1151 1.363 . S
C1157 C1152 1.379 . S
C1157 N1155 1.356 . S
N1158 C1150 1.356 . S
N1158 H1164 0.984 . S
N1158 H1165 0.984 . S
N1159 C1152 1.356 . S
N1159 H1162 0.984 . S
N1159 H1163 0.985 1_655 S
H1160 N1155 0.984 . S
H1161 N1155 0.985 . S
H1162 N1159 0.984 . S
H1163 N1159 0.985 1_455 S
H1164 N1158 0.984 . S
H1165 N1158 0.984 . S
H1166 N1154 0.984 . S
H1167 N1154 0.985 . S
C1168 C1169 1.363 . S
C1168 C1174 1.379 . S
C1168 N1176 1.356 . S
C1169 C1168 1.363 . S
C1169 C1175 1.363 . S
C1170 C1171 1.363 . S
C1170 C1175 1.379 . S
C1170 N1177 1.356 . S
C1171 C1170 1.363 . S
C1171 C1174 1.363 . S
N1172 C1174 1.356 . S
N1172 H1184 0.984 . S
N1172 H1185 0.985 . S
N1173 C1175 1.356 . S
N1173 H1178 0.984 . S
N1173 H1179 0.985 . S
C1174 C1168 1.379 . S
C1174 C1171 1.363 . S
C1174 N1172 1.356 . S
C1175 C1169 1.363 . S
C1175 C1170 1.379 . S
C1175 N1173 1.356 . S
N1176 C1168 1.356 . S
N1176 H1182 0.984 . S
N1176 H1183 0.984 . S
N1177 C1170 1.356 . S
N1177 H1180 0.984 . S
N1177 H1181 0.985 . S
H1178 N1173 0.984 . S
H1179 N1173 0.985 . S
H1180 N1177 0.984 . S
H1181 N1177 0.985 . S
H1182 N1176 0.984 . S
H1183 N1176 0.984 . S
H1184 N1172 0.984 . S
H1185 N1172 0.985 . S
C1186 C1187 1.363 . S
C1186 C1192 1.379 . S
C1186 N1194 1.356 . S
C1187 C1186 1.363 . S
C1187 C1193 1.363 . S
C1188 C1189 1.363 . S
C1188 C1193 1.379 . S
C1188 N1195 1.356 . S
C1189 C1188 1.363 . S
C1189 C1192 1.363 . S
N1190 C1192 1.356 . S
N1190 H1202 0.984 . S
N1190 H1203 0.985 . S
N1191 C1193 1.356 . S
N1191 H1196 0.984 . S
N1191 H1197 0.985 . S
C1192 C1186 1.379 . S
C1192 C1189 1.363 . S
C1192 N1190 1.356 . S
C1193 C1187 1.363 . S
C1193 C1188 1.379 . S
C1193 N1191 1.356 . S
N1194 C1186 1.356 . S
N1194 H1200 0.984 . S
N1194 H1201 0.984 . S
N1195 C1188 1.356 . S
N1195 H1198 0.984 . S
N1195 H1199 0.985 . S
H1196 N1191 0.984 . S
H1197 N1191 0.985 . S
H1198 N1195 0.984 . S
H1199 N1195 0.985 . S
H1200 N1194 0.984 . S
H1201 N1194 0.984 . S
H1202 N1190 0.984 . S
H1203 N1190 0.985 . S
C1204 C1205 1.363 . S
C1204 C1210 1.379 . S
C1204 N1212 1.356 . S
C1205 C1204 1.363 . S
C1205 C1211 1.363 . S
C1206 C1207 1.363 . S
C1206 C1211 1.379 . S
C1206 N1213 1.356 . S
C1207 C1206 1.363 . S
C1207 C1210 1.363 . S
N1208 C1210 1.356 . S
N1208 H1220 0.984 . S
N1208 H1221 0.985 . S
N1209 C1211 1.356 . S
N1209 H1214 0.984 . S
N1209 H1215 0.985 . S
C1210 C1204 1.379 . S
C1210 C1207 1.363 . S
C1210 N1208 1.356 . S
C1211 C1205 1.363 . S
C1211 C1206 1.379 . S
C1211 N1209 1.356 . S
N1212 C1204 1.356 . S
N1212 H1218 0.984 . S
N1212 H1219 0.984 . S
N1213 C1206 1.356 . S
N1213 H1216 0.984 . S
N1213 H1217 0.985 . S
H1214 N1209 0.984 . S
H1215 N1209 0.985 . S
H1216 N1213 0.984 . S
H1217 N1213 0.985 . S
H1218 N1212 0.984 . S
H1219 N1212 0.984 . S
H1220 N1208 0.984 . S
H1221 N1208 0.985 . S
C1222 C1223 1.363 . S
C1222 C1228 1.379 . S
C1222 N1230 1.356 . S
C1223 C1222 1.363 . S
C1223 C1229 1.363 . S
C1224 C1225 1.363 . S
C1224 C1229 1.379 . S
C1224 N1231 1.356 . S
C1225 C1224 1.363 . S
C1225 C1228 1.363 . S
N1226 C1228 1.356 . S
N1226 H1238 0.984 . S
N1226 H1239 0.985 . S
N1227 C1229 1.356 . S
N1227 H1232 0.984 . S
N1227 H1233 0.985 . S
C1228 C1222 1.379 . S
C1228 C1225 1.363 . S
C1228 N1226 1.356 . S
C1229 C1223 1.363 . S
C1229 C1224 1.379 . S
C1229 N1227 1.356 . S
N1230 C1222 1.356 . S
N1230 H1236 0.984 . S
N1230 H1237 0.984 . S
N1231 C1224 1.356 . S
N1231 H1234 0.984 . S
N1231 H1235 0.985 . S
H1232 N1227 0.984 . S
H1233 N1227 0.985 . S
H1234 N1231 0.984 . S
H1235 N1231 0.985 . S
H1236 N1230 0.984 . S
H1237 N1230 0.984 . S
H1238 N1226 0.984 . S
H1239 N1226 0.985 . S
C1240 C1241 1.363 . S
C1240 C1246 1.379 . S
C1240 N1248 1.356 . S
C1241 C1240 1.363 . S
C1241 C1247 1.363 . S
C1242 C1243 1.363 . S
C1242 C1247 1.379 . S
C1242 N1249 1.356 . S
C1243 C1242 1.363 . S
C1243 C1246 1.363 . S
N1244 C1246 1.356 . S
N1244 H1256 0.984 . S
N1244 H1257 0.985 . S
N1245 C1247 1.356 . S
N1245 H1250 0.984 . S
N1245 H1251 0.985 . S
C1246 C1240 1.379 . S
C1246 C1243 1.363 . S
C1246 N1244 1.356 . S
C1247 C1241 1.363 . S
C1247 C1242 1.379 . S
C1247 N1245 1.356 . S
N1248 C1240 1.356 . S
N1248 H1254 0.984 . S
N1248 H1255 0.984 . S
N1249 C1242 1.356 . S
N1249 H1252 0.984 . S
N1249 H1253 0.985 . S
H1250 N1245 0.984 . S
H1251 N1245 0.985 . S
H1252 N1249 0.984 . S
H1253 N1249 0.985 . S
H1254 N1248 0.984 . S
H1255 N1248 0.984 . S
H1256 N1244 0.984 . S
H1257 N1244 0.985 . S
C1258 C1259 1.363 . S
C1258 C1264 1.379 . S
C1258 N1266 1.356 . S
C1259 C1258 1.363 . S
C1259 C1265 1.363 1_556 S
C1260 C1261 1.363 1_554 S
C1260 C1265 1.379 . S
C1260 N1267 1.356 . S
C1261 C1260 1.363 1_556 S
C1261 C1264 1.363 . S
N1262 C1264 1.356 . S
N1262 H1274 0.984 . S
N1262 H1275 0.985 . S
N1263 C1265 1.356 . S
N1263 H1268 0.984 . S
N1263 H1269 0.985 . S
C1264 C1258 1.379 . S
C1264 C1261 1.363 . S
C1264 N1262 1.356 . S
C1265 C1259 1.363 1_554 S
C1265 C1260 1.379 . S
C1265 N1263 1.356 . S
N1266 C1258 1.356 . S
N1266 H1272 0.984 . S
N1266 H1273 0.984 . S
N1267 C1260 1.356 . S
N1267 H1270 0.984 . S
N1267 H1271 0.985 . S
H1268 N1263 0.984 . S
H1269 N1263 0.985 . S
H1270 N1267 0.984 . S
H1271 N1267 0.985 . S
H1272 N1266 0.984 . S
H1273 N1266 0.984 . S
H1274 N1262 0.984 . S
H1275 N1262 0.985 . S
C1276 C1277 1.363 . S
C1276 C1282 1.379 . S
C1276 N1284 1.356 . S
C1277 C1276 1.363 . S
C1277 C1283 1.363 . S
C1278 C1279 1.363 . S
C1278 C1283 1.379 . S
C1278 N1285 1.356 . S
C1279 C1278 1.363 . S
C1279 C1282 1.363 . S
N1280 C1282 1.356 . S
N1280 H1292 0.984 . S
N1280 H1293 0.985 . S
N1281 C1283 1.356 . S
N1281 H1286 0.984 . S
N1281 H1287 0.985 . S
C1282 C1276 1.379 . S
C1282 C1279 1.363 . S
C1282 N1280 1.356 . S
C1283 C1277 1.363 . S
C1283 C1278 1.379 . S
C1283 N1281 1.356 . S
N1284 C1276 1.356 . S
N1284 H1290 0.984 . S
N1284 H1291 0.984 . S
N1285 C1278 1.356 . S
N1285 H1288 0.984 . S
N1285 H1289 0.985 . S
H1286 N1281 0.984 . S
H1287 N1281 0.985 . S
H1288 N1285 0.984 . S
H1289 N1285 0.985 . S
H1290 N1284 0.984 . S
H1291 N1284 0.984 . S
H1292 N1280 0.984 . S
H1293 N1280 0.985 . S
C1294 C1295 1.363 . S
C1294 C1300 1.379 . S
C1294 N1302 1.356 . S
C1295 C1294 1.363 . S
C1295 C1301 1.363 1_554 S
C1296 C1297 1.363 1_556 S
C1296 C1301 1.379 . S
C1296 N1303 1.356 . S
C1297 C1296 1.363 1_554 S
C1297 C1300 1.363 . S
N1298 C1300 1.356 . S
N1298 H1310 0.984 . S
N1298 H1311 0.985 . S
N1299 C1301 1.356 . S
N1299 H1304 0.984 . S
N1299 H1305 0.985 . S
C1300 C1294 1.379 . S
C1300 C1297 1.363 . S
C1300 N1298 1.356 . S
C1301 C1295 1.363 1_556 S
C1301 C1296 1.379 . S
C1301 N1299 1.356 . S
N1302 C1294 1.356 . S
N1302 H1308 0.984 . S
N1302 H1309 0.984 . S
N1303 C1296 1.356 . S
N1303 H1306 0.984 . S
N1303 H1307 0.985 . S
H1304 N1299 0.984 . S
H1305 N1299 0.985 . S
H1306 N1303 0.984 . S
H1307 N1303 0.985 . S
H1308 N1302 0.984 . S
H1309 N1302 0.984 . S
H1310 N1298 0.984 . S
H1311 N1298 0.985 . S
C1312 C1313 1.363 . S
C1312 C1318 1.379 . S
C1312 N1320 1.356 . S
C1313 C1312 1.363 . S
C1313 C1319 1.363 . S
C1314 C1315 1.363 . S
C1314 C1319 1.379 . S
C1314 N1321 1.356 . S
C1315 C1314 1.363 . S
C1315 C1318 1.363 . S
N1316 C1318 1.356 . S
N1316 H1328 0.984 . S
N1316 H1329 0.985 . S
N1317 C1319 1.356 . S
N1317 H1322 0.984 . S
N1317 H1323 0.985 . S
C1318 C1312 1.379 . S
C1318 C1315 1.363 . S
C1318 N1316 1.356 . S
C1319 C1313 1.363 . S
C1319 C1314 1.379 . S
C1319 N1317 1.356 . S
N1320 C1312 1.356 . S
N1320 H1326 0.984 1_655 S
N1320 H1327 0.984 1_655 S
N1321 C1314 1.356 . S
N1321 H1324 0.984 . S
N1321 H1325 0.985 . S
H1322 N1317 0.984 . S
H1323 N1317 0.985 . S
H1324 N1321 0.984 . S
H1325 N1321 0.985 . S
H1326 N1320 0.984 1_455 S
H1327 N1320 0.984 1_455 S
H1328 N1316 0.984 . S
H1329 N1316 0.985 . S
C1330 C1331 1.363 . S
C1330 C1336 1.379 . S
C1330 N1338 1.356 . S
C1331 C1330 1.363 . S
C1331 C1337 1.363 . S
C1332 C1333 1.363 . S
C1332 C1337 1.379 . S
C1332 N1339 1.356 . S
C1333 C1332 1.363 . S
C1333 C1336 1.363 . S
N1334 C1336 1.356 . S
N1334 H1346 0.984 . S
N1334 H1347 0.985 . S
N1335 C1337 1.356 . S
N1335 H1340 0.984 . S
N1335 H1341 0.985 . S
C1336 C1330 1.379 . S
C1336 C1333 1.363 . S
C1336 N1334 1.356 . S
C1337 C1331 1.363 . S
C1337 C1332 1.379 . S
C1337 N1335 1.356 . S
N1338 C1330 1.356 . S
N1338 H1344 0.984 . S
N1338 H1345 0.984 . S
N1339 C1332 1.356 . S
N1339 H1342 0.984 . S
N1339 H1343 0.985 . S
H1340 N1335 0.984 . S
H1341 N1335 0.985 . S
H1342 N1339 0.984 . S
H1343 N1339 0.985 . S
H1344 N1338 0.984 . S
H1345 N1338 0.984 . S
H1346 N1334 0.984 . S
H1347 N1334 0.985 . S
C1348 C1349 1.363 . S
C1348 C1354 1.379 . S
C1348 N1356 1.356 . S
C1349 C1348 1.363 . S
C1349 C1355 1.363 . S
C1350 C1351 1.363 . S
C1350 C1355 1.379 . S
C1350 N1357 1.356 . S
C1351 C1350 1.363 . S
C1351 C1354 1.363 . S
N1352 C1354 1.356 . S
N1352 H1364 0.984 . S
N1352 H1365 0.985 . S
N1353 C1355 1.356 . S
N1353 H1358 0.984 . S
N1353 H1359 0.985 . S
C1354 C1348 1.379 . S
C1354 C1351 1.363 . S
C1354 N1352 1.356 . S
C1355 C1349 1.363 . S
C1355 C1350 1.379 . S
C1355 N1353 1.356 . S
N1356 C1348 1.356 . S
N1356 H1362 0.984 . S
N1356 H1363 0.984 . S
N1357 C1350 1.356 . S
N1357 H1360 0.984 1_655 S
N1357 H1361 0.985 1_655 S
H1358 N1353 0.984 . S
H1359 N1353 0.985 . S
H1360 N1357 0.984 1_455 S
H1361 N1357 0.985 1_455 S
H1362 N1356 0.984 . S
H1363 N1356 0.984 . S
H1364 N1352 0.984 . S
H1365 N1352 0.985 . S
C1366 C1367 1.363 . S
C1366 C1372 1.379 . S
C1366 N1374 1.356 . S
C1367 C1366 1.363 . S
C1367 C1373 1.363 . S
C1368 C1369 1.363 . S
C1368 C1373 1.379 . S
C1368 N1375 1.356 . S
C1369 C1368 1.363 . S
C1369 C1372 1.363 . S
N1370 C1372 1.356 . S
N1370 H1382 0.984 . S
N1370 H1383 0.985 . S
N1371 C1373 1.356 . S
N1371 H1376 0.984 . S
N1371 H1377 0.985 . S
C1372 C1366 1.379 . S
C1372 C1369 1.363 . S
C1372 N1370 1.356 . S
C1373 C1367 1.363 . S
C1373 C1368 1.379 . S
C1373 N1371 1.356 . S
N1374 C1366 1.356 . S
N1374 H1380 0.984 . S
N1374 H1381 0.984 . S
N1375 C1368 1.356 . S
N1375 H1378 0.984 . S
N1375 H1379 0.985 . S
H1376 N1371 0.984 . S
H1377 N1371 0.985 . S
H1378 N1375 0.984 . S
H1379 N1375 0.985 . S
H1380 N1374 0.984 . S
H1381 N1374 0.984 . S
H1382 N1370 0.984 . S
H1383 N1370 0.985 . S
C1384 C1385 1.363 . S
C1384 C1390 1.379 . S
C1384 N1392 1.356 . S
C1385 C1384 1.363 . S
C1385 C1391 1.363 . S
C1386 C1387 1.363 . S
C1386 C1391 1.379 . S
C1386 N1393 1.356 . S
C1387 C1386 1.363 . S
C1387 C1390 1.363 . S
N1388 C1390 1.356 . S
N1388 H1400 0.984 . S
N1388 H1401 0.985 . S
N1389 C1391 1.356 . S
N1389 H1394 0.984 . S
N1389 H1395 0.985 . S
C1390 C1384 1.379 . S
C1390 C1387 1.363 . S
C1390 N1388 1.356 . S
C1391 C1385 1.363 . S
C1391 C1386 1.379 . S
C1391 N1389 1.356 . S
N1392 C1384 1.356 . S
N1392 H1398 0.984 . S
N1392 H1399 0.984 . S
N1393 C1386 1.356 . S
N1393 H1396 0.984 1_455 S
N1393 H1397 0.985 1_455 S
H1394 N1389 0.984 . S
H1395 N1389 0.985 . S
H1396 N1393 0.984 1_655 S
H1397 N1393 0.985 1_655 S
H1398 N1392 0.984 . S
H1399 N1392 0.984 . S
H1400 N1388 0.984 . S
H1401 N1388 0.985 . S
C1402 C1403 1.363 . S
C1402 C1408 1.379 . S
C1402 N1410 1.356 . S
C1403 C1402 1.363 . S
C1403 C1409 1.363 . S
C1404 C1405 1.363 . S
C1404 C1409 1.379 . S
C1404 N1411 1.356 . S
C1405 C1404 1.363 . S
C1405 C1408 1.363 . S
N1406 C1408 1.356 . S
N1406 H1418 0.984 . S
N1406 H1419 0.985 . S
N1407 C1409 1.356 . S
N1407 H1412 0.984 . S
N1407 H1413 0.985 . S
C1408 C1402 1.379 . S
C1408 C1405 1.363 . S
C1408 N1406 1.356 . S
C1409 C1403 1.363 . S
C1409 C1404 1.379 . S
C1409 N1407 1.356 . S
N1410 C1402 1.356 . S
N1410 H1416 0.984 . S
N1410 H1417 0.984 . S
N1411 C1404 1.356 . S
N1411 H1414 0.984 . S
N1411 H1415 0.985 . S
H1412 N1407 0.984 . S
H1413 N1407 0.985 . S
H1414 N1411 0.984 . S
H1415 N1411 0.985 . S
H1416 N1410 0.984 . S
H1417 N1410 0.984 . S
H1418 N1406 0.984 . S
H1419 N1406 0.985 . S
C1420 C1421 1.363 . S
C1420 C1426 1.379 . S
C1420 N1428 1.356 . S
C1421 C1420 1.363 . S
C1421 C1427 1.363 . S
C1422 C1423 1.363 . S
C1422 C1427 1.379 . S
C1422 N1429 1.356 . S
C1423 C1422 1.363 . S
C1423 C1426 1.363 . S
N1424 C1426 1.356 . S
N1424 H1436 0.984 . S
N1424 H1437 0.985 . S
N1425 C1427 1.356 . S
N1425 H1430 0.984 . S
N1425 H1431 0.985 . S
C1426 C1420 1.379 . S
C1426 C1423 1.363 . S
C1426 N1424 1.356 . S
C1427 C1421 1.363 . S
C1427 C1422 1.379 . S
C1427 N1425 1.356 . S
N1428 C1420 1.356 . S
N1428 H1434 0.984 . S
N1428 H1435 0.984 . S
N1429 C1422 1.356 . S
N1429 H1432 0.984 1_455 S
N1429 H1433 0.985 1_455 S
H1430 N1425 0.984 . S
H1431 N1425 0.985 . S
H1432 N1429 0.984 1_655 S
H1433 N1429 0.985 1_655 S
H1434 N1428 0.984 . S
H1435 N1428 0.984 . S
H1436 N1424 0.984 . S
H1437 N1424 0.985 . S
C1438 C1439 1.363 . S
C1438 C1444 1.379 . S
C1438 N1446 1.356 . S
C1439 C1438 1.363 . S
C1439 C1445 1.363 . S
C1440 C1441 1.363 . S
C1440 C1445 1.379 . S
C1440 N1447 1.356 . S
C1441 C1440 1.363 . S
C1441 C1444 1.363 . S
N1442 C1444 1.356 . S
N1442 H1454 0.984 . S
N1442 H1455 0.985 . S
N1443 C1445 1.356 . S
N1443 H1448 0.984 . S
N1443 H1449 0.985 . S
C1444 C1438 1.379 . S
C1444 C1441 1.363 . S
C1444 N1442 1.356 . S
C1445 C1439 1.363 . S
C1445 C1440 1.379 . S
C1445 N1443 1.356 . S
N1446 C1438 1.356 . S
N1446 H1452 0.984 . S
N1446 H1453 0.984 . S
N1447 C1440 1.356 . S
N1447 H1450 0.984 . S
N1447 H1451 0.985 . S
H1448 N1443 0.984 . S
H1449 N1443 0.985 . S
H1450 N1447 0.984 . S
H1451 N1447 0.985 . S
H1452 N1446 0.984 . S
H1453 N1446 0.984 . S
H1454 N1442 0.984 . S
H1455 N1442 0.985 . S
C1456 C1457 1.363 . S
C1456 C1462 1.379 . S
C1456 N1464 1.356 . S
C1457 C1456 1.363 . S
C1457 C1463 1.363 . S
C1458 C1459 1.363 . S
C1458 C1463 1.379 . S
C1458 N1465 1.356 . S
C1459 C1458 1.363 . S
C1459 C1462 1.363 . S
N1460 C1462 1.356 . S
N1460 H1472 0.984 . S
N1460 H1473 0.985 . S
N1461 C1463 1.356 . S
N1461 H1466 0.984 . S
N1461 H1467 0.985 . S
C1462 C1456 1.379 . S
C1462 C1459 1.363 . S
C1462 N1460 1.356 . S
C1463 C1457 1.363 . S
C1463 C1458 1.379 . S
C1463 N1461 1.356 . S
N1464 C1456 1.356 . S
N1464 H1470 0.984 1_655 S
N1464 H1471 0.984 1_655 S
N1465 C1458 1.356 . S
N1465 H1468 0.984 . S
N1465 H1469 0.985 . S
H1466 N1461 0.984 . S
H1467 N1461 0.985 . S
H1468 N1465 0.984 . S
H1469 N1465 0.985 . S
H1470 N1464 0.984 1_455 S
H1471 N1464 0.984 1_455 S
H1472 N1460 0.984 . S
H1473 N1460 0.985 . S
C1474 C1475 1.363 . S
C1474 C1480 1.379 . S
C1474 N1482 1.356 . S
C1475 C1474 1.363 . S
C1475 C1481 1.363 . S
C1476 C1477 1.363 . S
C1476 C1481 1.379 . S
C1476 N1483 1.356 . S
C1477 C1476 1.363 . S
C1477 C1480 1.363 . S
N1478 C1480 1.356 . S
N1478 H1490 0.984 . S
N1478 H1491 0.985 . S
N1479 C1481 1.356 . S
N1479 H1484 0.984 . S
N1479 H1485 0.985 . S
C1480 C1474 1.379 . S
C1480 C1477 1.363 . S
C1480 N1478 1.356 . S
C1481 C1475 1.363 . S
C1481 C1476 1.379 . S
C1481 N1479 1.356 . S
N1482 C1474 1.356 . S
N1482 H1488 0.984 . S
N1482 H1489 0.984 . S
N1483 C1476 1.356 . S
N1483 H1486 0.984 . S
N1483 H1487 0.985 . S
H1484 N1479 0.984 . S
H1485 N1479 0.985 . S
H1486 N1483 0.984 . S
H1487 N1483 0.985 . S
H1488 N1482 0.984 . S
H1489 N1482 0.984 . S
H1490 N1478 0.984 . S
H1491 N1478 0.985 . S
C1492 C1493 1.363 . S
C1492 C1498 1.379 . S
C1492 N1500 1.356 . S
C1493 C1492 1.363 . S
C1493 C1499 1.363 . S
C1494 C1495 1.363 . S
C1494 C1499 1.379 . S
C1494 N1501 1.356 . S
C1495 C1494 1.363 . S
C1495 C1498 1.363 . S
N1496 C1498 1.356 . S
N1496 H1508 0.984 . S
N1496 H1509 0.985 . S
N1497 C1499 1.356 . S
N1497 H1502 0.984 1_655 S
N1497 H1503 0.985 1_655 S
C1498 C1492 1.379 . S
C1498 C1495 1.363 . S
C1498 N1496 1.356 . S
C1499 C1493 1.363 . S
C1499 C1494 1.379 . S
C1499 N1497 1.356 . S
N1500 C1492 1.356 . S
N1500 H1506 0.984 . S
N1500 H1507 0.984 . S
N1501 C1494 1.356 . S
N1501 H1504 0.984 . S
N1501 H1505 0.985 . S
H1502 N1497 0.984 1_455 S
H1503 N1497 0.985 1_455 S
H1504 N1501 0.984 . S
H1505 N1501 0.985 . S
H1506 N1500 0.984 . S
H1507 N1500 0.984 . S
H1508 N1496 0.984 . S
H1509 N1496 0.985 . S
C1510 C1511 1.363 . S
C1510 C1516 1.379 . S
C1510 N1518 1.356 . S
C1511 C1510 1.363 . S
C1511 C1517 1.363 . S
C1512 C1513 1.363 . S
C1512 C1517 1.379 . S
C1512 N1519 1.356 . S
C1513 C1512 1.363 . S
C1513 C1516 1.363 . S
N1514 C1516 1.356 . S
N1514 H1526 0.984 . S
N1514 H1527 0.985 . S
N1515 C1517 1.356 . S
N1515 H1520 0.984 . S
N1515 H1521 0.985 . S
C1516 C1510 1.379 . S
C1516 C1513 1.363 . S
C1516 N1514 1.356 . S
C1517 C1511 1.363 . S
C1517 C1512 1.379 . S
C1517 N1515 1.356 . S
N1518 C1510 1.356 . S
N1518 H1524 0.984 . S
N1518 H1525 0.984 . S
N1519 C1512 1.356 . S
N1519 H1522 0.984 . S
N1519 H1523 0.985 . S
H1520 N1515 0.984 . S
H1521 N1515 0.985 . S
H1522 N1519 0.984 . S
H1523 N1519 0.985 . S
H1524 N1518 0.984 . S
H1525 N1518 0.984 . S
H1526 N1514 0.984 . S
H1527 N1514 0.985 . S
C1528 C1529 1.363 . S
C1528 C1534 1.379 . S
C1528 N1536 1.356 . S
C1529 C1528 1.363 . S
C1529 C1535 1.363 . S
C1530 C1531 1.363 . S
C1530 C1535 1.379 . S
C1530 N1537 1.356 . S
C1531 C1530 1.363 . S
C1531 C1534 1.363 . S
N1532 C1534 1.356 . S
N1532 H1544 0.984 . S
N1532 H1545 0.985 . S
N1533 C1535 1.356 . S
N1533 H1538 0.984 . S
N1533 H1539 0.985 . S
C1534 C1528 1.379 . S
C1534 C1531 1.363 . S
C1534 N1532 1.356 . S
C1535 C1529 1.363 . S
C1535 C1530 1.379 . S
C1535 N1533 1.356 . S
N1536 C1528 1.356 . S
N1536 H1542 0.984 1_455 S
N1536 H1543 0.984 1_455 S
N1537 C1530 1.356 . S
N1537 H1540 0.984 . S
N1537 H1541 0.985 . S
H1538 N1533 0.984 . S
H1539 N1533 0.985 . S
H1540 N1537 0.984 . S
H1541 N1537 0.985 . S
H1542 N1536 0.984 1_655 S
H1543 N1536 0.984 1_655 S
H1544 N1532 0.984 . S
H1545 N1532 0.985 . S
C1546 C1547 1.363 . S
C1546 C1552 1.379 . S
C1546 N1554 1.356 . S
C1547 C1546 1.363 . S
C1547 C1553 1.363 . S
C1548 C1549 1.363 . S
C1548 C1553 1.379 . S
C1548 N1555 1.356 . S
C1549 C1548 1.363 . S
C1549 C1552 1.363 . S
N1550 C1552 1.356 . S
N1550 H1562 0.984 . S
N1550 H1563 0.985 . S
N1551 C1553 1.356 . S
N1551 H1556 0.984 . S
N1551 H1557 0.985 . S
C1552 C1546 1.379 . S
C1552 C1549 1.363 . S
C1552 N1550 1.356 . S
C1553 C1547 1.363 . S
C1553 C1548 1.379 . S
C1553 N1551 1.356 . S
N1554 C1546 1.356 . S
N1554 H1560 0.984 . S
N1554 H1561 0.984 . S
N1555 C1548 1.356 . S
N1555 H1558 0.984 . S
N1555 H1559 0.985 . S
H1556 N1551 0.984 . S
H1557 N1551 0.985 . S
H1558 N1555 0.984 . S
H1559 N1555 0.985 . S
H1560 N1554 0.984 . S
H1561 N1554 0.984 . S
H1562 N1550 0.984 . S
H1563 N1550 0.985 . S
C1564 C1565 1.363 . S
C1564 C1570 1.379 . S
C1564 N1572 1.356 . S
C1565 C1564 1.363 . S
C1565 C1571 1.363 . S
C1566 C1567 1.363 . S
C1566 C1571 1.379 . S
C1566 N1573 1.356 . S
C1567 C1566 1.363 . S
C1567 C1570 1.363 . S
N1568 C1570 1.356 . S
N1568 H1580 0.984 . S
N1568 H1581 0.985 . S
N1569 C1571 1.356 . S
N1569 H1574 0.984 . S
N1569 H1575 0.985 . S
C1570 C1564 1.379 . S
C1570 C1567 1.363 . S
C1570 N1568 1.356 . S
C1571 C1565 1.363 . S
C1571 C1566 1.379 . S
C1571 N1569 1.356 . S
N1572 C1564 1.356 . S
N1572 H1578 0.984 1_455 S
N1572 H1579 0.984 1_455 S
N1573 C1566 1.356 . S
N1573 H1576 0.984 . S
N1573 H1577 0.985 . S
H1574 N1569 0.984 . S
H1575 N1569 0.985 . S
H1576 N1573 0.984 . S
H1577 N1573 0.985 . S
H1578 N1572 0.984 1_655 S
H1579 N1572 0.984 1_655 S
H1580 N1568 0.984 . S
H1581 N1568 0.985 . S
C1582 C1583 1.363 . S
C1582 C1588 1.379 . S
C1582 N1590 1.356 . S
C1583 C1582 1.363 . S
C1583 C1589 1.363 . S
C1584 C1585 1.363 . S
C1584 C1589 1.379 . S
C1584 N1591 1.356 . S
C1585 C1584 1.363 . S
C1585 C1588 1.363 . S
N1586 C1588 1.356 . S
N1586 H1598 0.984 . S
N1586 H1599 0.985 . S
N1587 C1589 1.356 . S
N1587 H1592 0.984 . S
N1587 H1593 0.985 . S
C1588 C1582 1.379 . S
C1588 C1585 1.363 . S
C1588 N1586 1.356 . S
C1589 C1583 1.363 . S
C1589 C1584 1.379 . S
C1589 N1587 1.356 . S
N1590 C1582 1.356 . S
N1590 H1596 0.984 . S
N1590 H1597 0.984 . S
N1591 C1584 1.356 . S
N1591 H1594 0.984 . S
N1591 H1595 0.985 . S
H1592 N1587 0.984 . S
H1593 N1587 0.985 . S
H1594 N1591 0.984 . S
H1595 N1591 0.985 . S
H1596 N1590 0.984 . S
H1597 N1590 0.984 . S
H1598 N1586 0.984 . S
H1599 N1586 0.985 . S
C449 C51 1.203 . S
C451 C9 1.203 . S
C467 C37 1.203 . S
C469 C23 1.203 . S
C485 C107 1.203 . S
C487 C65 1.203 . S
C503 C93 1.203 . S
C505 C79 1.203 . S
C521 C121 1.203 . S
C523 C163 1.203 . S
C539 C135 1.203 . S
C541 C149 1.203 . S
C557 C219 1.203 . S
C559 C177 1.203 . S
C575 C191 1.203 . S
C577 C205 1.203 . S
C593 C233 1.203 . S
C595 C275 1.203 . S
C611 C247 1.203 . S
C613 C261 1.203 . S
C629 C331 1.203 . S
C631 C289 1.203 . S
C647 C317 1.203 . S
C649 C303 1.203 . S
C665 C387 1.203 . S
C667 C345 1.203 . S
C683 C359 1.203 . S
C685 C373 1.203 . S
C701 C401 1.203 . S
C703 C443 1.203 . S
C719 C415 1.203 . S
C721 C429 1.203 . S
C737 C283 1.376 . S
C739 C3 1.376 . S
C755 C185 1.376 . S
C757 C17 1.376 . S
C773 C31 1.376 . S
C775 C423 1.376 . S
C791 C45 1.376 . S
C793 C101 1.376 . S
C809 C227 1.376 . S
C811 C59 1.376 . S
C827 C129 1.376 . S
C829 C73 1.376 . S
C845 C367 1.376 . S
C847 C87 1.376 . S
C863 C115 1.376 . S
C865 C395 1.376 . S
C881 C311 1.376 . S
C883 C143 1.376 . S
C899 C213 1.376 . S
C901 C157 1.376 . S
C917 C339 1.376 . S
C919 C171 1.376 . S
C935 C199 1.376 . S
C937 C255 1.376 . S
C953 C409 1.376 . S
C955 C241 1.376 . S
C971 C269 1.376 . S
C973 C325 1.376 . S
C989 C353 1.376 . S
C991 C297 1.376 . S
C1007 C437 1.376 . S
C1009 C381 1.376 . S
C1025 C21 1.426 . S
C1027 C7 1.426 . S
C1043 C35 1.426 . S
C1045 C49 1.426 . S
C1061 C63 1.426 . S
C1063 C77 1.426 . S
C1079 C105 1.426 . S
C1081 C91 1.426 . S
C1097 C119 1.425 . S
C1099 C133 1.425 . S
C1115 C147 1.426 . S
C1117 C161 1.426 . S
C1133 C189 1.425 . S
C1135 C175 1.425 . S
C1151 C203 1.426 . S
C1153 C217 1.426 . S
C1169 C231 1.426 . S
C1171 C245 1.426 . S
C1187 C259 1.426 . S
C1189 C273 1.426 . S
C1205 C287 1.426 . S
C1207 C301 1.426 . S
C1223 C329 1.426 . S
C1225 C315 1.426 . S
C1241 C357 1.426 . S
C1243 C343 1.426 . S
C1259 C371 1.426 . S
C1261 C385 1.426 . S
C1277 C399 1.425 . S
C1279 C413 1.425 . S
C1295 C441 1.426 . S
C1297 C427 1.426 . S
C1313 C8 1.542 . S
C1315 C274 1.542 . S
C1331 C22 1.542 . S
C1333 C260 1.542 . S
C1349 C246 1.542 . S
C1351 C36 1.542 . S
C1367 C50 1.542 . S
C1369 C232 1.542 . S
C1385 C330 1.542 . S
C1387 C64 1.542 . S
C1403 C78 1.542 . S
C1405 C316 1.542 . S
C1421 C302 1.542 . S
C1423 C92 1.542 . S
C1439 C106 1.542 . S
C1441 C288 1.542 . S
C1457 C120 1.542 . S
C1459 C386 1.542 . S
C1475 C134 1.542 . S
C1477 C372 1.542 . S
C1493 C148 1.542 . S
C1495 C358 1.542 . S
C1511 C344 1.542 . S
C1513 C162 1.542 . S
C1529 C176 1.542 . S
C1531 C442 1.542 . S
C1547 C190 1.542 . S
C1549 C428 1.542 . S
C1565 C204 1.542 . S
C1567 C414 1.542 . S
C1583 C400 1.542 . S
C1585 C218 1.542 . S
