# Generated by pormake.
# Topology vcc, (6)-cn, num edge types: 1
# Building blocks:
#     Node 0, Type 0, BuildingBlock: CUKXOW_clean_sbu_0, # of connection points: 6
#     Node 1, Type 0, BuildingBlock: CUKXOW_clean_sbu_0, # of connection points: 6
#     Node 2, Type 0, BuildingBlock: CUKXOW_clean_sbu_0, # of connection points: 6
#     Node 3, Type 0, BuildingBlock: CUKXOW_clean_sbu_0, # of connection points: 6
#     Node 4, Type 0, BuildingBlock: CUKXOW_clean_sbu_0, # of connection points: 6
#     Node 5, Type 0, BuildingBlock: CUKXOW_clean_sbu_0, # of connection points: 6
#     Node 6, Type 0, BuildingBlock: CUKXOW_clean_sbu_0, # of connection points: 6
#     Node 7, Type 0, BuildingBlock: CUKXOW_clean_sbu_0, # of connection points: 6
#     Node 8, Type 0, BuildingBlock: CUKXOW_clean_sbu_0, # of connection points: 6
#     Node 9, Type 0, BuildingBlock: CUKXOW_clean_sbu_0, # of connection points: 6
#     Node 10, Type 0, BuildingBlock: CUKXOW_clean_sbu_0, # of connection points: 6
#     Node 11, Type 0, BuildingBlock: CUKXOW_clean_sbu_0, # of connection points: 6
#     Node 12, Type 0, BuildingBlock: CUKXOW_clean_sbu_0, # of connection points: 6
#     Node 13, Type 0, BuildingBlock: CUKXOW_clean_sbu_0, # of connection points: 6
#     Node 14, Type 0, BuildingBlock: CUKXOW_clean_sbu_0, # of connection points: 6
#     Node 15, Type 0, BuildingBlock: CUKXOW_clean_sbu_0, # of connection points: 6
#     Node 16, Type 0, BuildingBlock: CUKXOW_clean_sbu_0, # of connection points: 6
#     Node 17, Type 0, BuildingBlock: CUKXOW_clean_sbu_0, # of connection points: 6
#     Node 18, Type 0, BuildingBlock: CUKXOW_clean_sbu_0, # of connection points: 6
#     Node 19, Type 0, BuildingBlock: CUKXOW_clean_sbu_0, # of connection points: 6
#     Node 20, Type 0, BuildingBlock: CUKXOW_clean_sbu_0, # of connection points: 6
#     Node 21, Type 0, BuildingBlock: CUKXOW_clean_sbu_0, # of connection points: 6
#     Node 22, Type 0, BuildingBlock: CUKXOW_clean_sbu_0, # of connection points: 6
#     Node 23, Type 0, BuildingBlock: CUKXOW_clean_sbu_0, # of connection points: 6
#     Node 24, Type 0, BuildingBlock: CUKXOW_clean_sbu_0, # of connection points: 6
#     Node 25, Type 0, BuildingBlock: CUKXOW_clean_sbu_0, # of connection points: 6
#     Node 26, Type 0, BuildingBlock: CUKXOW_clean_sbu_0, # of connection points: 6
#     Node 27, Type 0, BuildingBlock: CUKXOW_clean_sbu_0, # of connection points: 6
#     Node 28, Type 0, BuildingBlock: CUKXOW_clean_sbu_0, # of connection points: 6
#     Node 29, Type 0, BuildingBlock: CUKXOW_clean_sbu_0, # of connection points: 6
#     Node 30, Type 0, BuildingBlock: CUKXOW_clean_sbu_0, # of connection points: 6
#     Node 31, Type 0, BuildingBlock: CUKXOW_clean_sbu_0, # of connection points: 6
#     Edge 32, Type (0, 0), BuildingBlock: ZUJKAS_clean_linker_0, # of connection points: 2
#     Edge 33, Type (0, 0), BuildingBlock: ZUJKAS_clean_linker_0, # of connection points: 2
#     Edge 34, Type (0, 0), BuildingBlock: ZUJKAS_clean_linker_0, # of connection points: 2
#     Edge 35, Type (0, 0), BuildingBlock: ZUJKAS_clean_linker_0, # of connection points: 2
#     Edge 36, Type (0, 0), BuildingBlock: ZUJKAS_clean_linker_0, # of connection points: 2
#     Edge 37, Type (0, 0), BuildingBlock: ZUJKAS_clean_linker_0, # of connection points: 2
#     Edge 38, Type (0, 0), BuildingBlock: ZUJKAS_clean_linker_0, # of connection points: 2
#     Edge 39, Type (0, 0), BuildingBlock: ZUJKAS_clean_linker_0, # of connection points: 2
#     Edge 40, Type (0, 0), BuildingBlock: ZUJKAS_clean_linker_0, # of connection points: 2
#     Edge 41, Type (0, 0), BuildingBlock: ZUJKAS_clean_linker_0, # of connection points: 2
#     Edge 42, Type (0, 0), BuildingBlock: ZUJKAS_clean_linker_0, # of connection points: 2
#     Edge 43, Type (0, 0), BuildingBlock: ZUJKAS_clean_linker_0, # of connection points: 2
#     Edge 44, Type (0, 0), BuildingBlock: ZUJKAS_clean_linker_0, # of connection points: 2
#     Edge 45, Type (0, 0), BuildingBlock: ZUJKAS_clean_linker_0, # of connection points: 2
#     Edge 46, Type (0, 0), BuildingBlock: ZUJKAS_clean_linker_0, # of connection points: 2
#     Edge 47, Type (0, 0), BuildingBlock: ZUJKAS_clean_linker_0, # of connection points: 2
#     Edge 48, Type (0, 0), BuildingBlock: ZUJKAS_clean_linker_0, # of connection points: 2
#     Edge 49, Type (0, 0), BuildingBlock: ZUJKAS_clean_linker_0, # of connection points: 2
#     Edge 50, Type (0, 0), BuildingBlock: ZUJKAS_clean_linker_0, # of connection points: 2
#     Edge 51, Type (0, 0), BuildingBlock: ZUJKAS_clean_linker_0, # of connection points: 2
#     Edge 52, Type (0, 0), BuildingBlock: ZUJKAS_clean_linker_0, # of connection points: 2
#     Edge 53, Type (0, 0), BuildingBlock: ZUJKAS_clean_linker_0, # of connection points: 2
#     Edge 54, Type (0, 0), BuildingBlock: ZUJKAS_clean_linker_0, # of connection points: 2
#     Edge 55, Type (0, 0), BuildingBlock: ZUJKAS_clean_linker_0, # of connection points: 2
#     Edge 56, Type (0, 0), BuildingBlock: ZUJKAS_clean_linker_0, # of connection points: 2
#     Edge 57, Type (0, 0), BuildingBlock: ZUJKAS_clean_linker_0, # of connection points: 2
#     Edge 58, Type (0, 0), BuildingBlock: ZUJKAS_clean_linker_0, # of connection points: 2
#     Edge 59, Type (0, 0), BuildingBlock: ZUJKAS_clean_linker_0, # of connection points: 2
#     Edge 60, Type (0, 0), BuildingBlock: ZUJKAS_clean_linker_0, # of connection points: 2
#     Edge 61, Type (0, 0), BuildingBlock: ZUJKAS_clean_linker_0, # of connection points: 2
#     Edge 62, Type (0, 0), BuildingBlock: ZUJKAS_clean_linker_0, # of connection points: 2
#     Edge 63, Type (0, 0), BuildingBlock: ZUJKAS_clean_linker_0, # of connection points: 2
#     Edge 64, Type (0, 0), BuildingBlock: ZUJKAS_clean_linker_0, # of connection points: 2
#     Edge 65, Type (0, 0), BuildingBlock: ZUJKAS_clean_linker_0, # of connection points: 2
#     Edge 66, Type (0, 0), BuildingBlock: ZUJKAS_clean_linker_0, # of connection points: 2
#     Edge 67, Type (0, 0), BuildingBlock: ZUJKAS_clean_linker_0, # of connection points: 2
#     Edge 68, Type (0, 0), BuildingBlock: ZUJKAS_clean_linker_0, # of connection points: 2
#     Edge 69, Type (0, 0), BuildingBlock: ZUJKAS_clean_linker_0, # of connection points: 2
#     Edge 70, Type (0, 0), BuildingBlock: ZUJKAS_clean_linker_0, # of connection points: 2
#     Edge 71, Type (0, 0), BuildingBlock: ZUJKAS_clean_linker_0, # of connection points: 2
#     Edge 72, Type (0, 0), BuildingBlock: ZUJKAS_clean_linker_0, # of connection points: 2
#     Edge 73, Type (0, 0), BuildingBlock: ZUJKAS_clean_linker_0, # of connection points: 2
#     Edge 74, Type (0, 0), BuildingBlock: ZUJKAS_clean_linker_0, # of connection points: 2
#     Edge 75, Type (0, 0), BuildingBlock: ZUJKAS_clean_linker_0, # of connection points: 2
#     Edge 76, Type (0, 0), BuildingBlock: ZUJKAS_clean_linker_0, # of connection points: 2
#     Edge 77, Type (0, 0), BuildingBlock: ZUJKAS_clean_linker_0, # of connection points: 2
#     Edge 78, Type (0, 0), BuildingBlock: ZUJKAS_clean_linker_0, # of connection points: 2
#     Edge 79, Type (0, 0), BuildingBlock: ZUJKAS_clean_linker_0, # of connection points: 2
#     Edge 80, Type (0, 0), BuildingBlock: ZUJKAS_clean_linker_0, # of connection points: 2
#     Edge 81, Type (0, 0), BuildingBlock: ZUJKAS_clean_linker_0, # of connection points: 2
#     Edge 82, Type (0, 0), BuildingBlock: ZUJKAS_clean_linker_0, # of connection points: 2
#     Edge 83, Type (0, 0), BuildingBlock: ZUJKAS_clean_linker_0, # of connection points: 2
#     Edge 84, Type (0, 0), BuildingBlock: ZUJKAS_clean_linker_0, # of connection points: 2
#     Edge 85, Type (0, 0), BuildingBlock: ZUJKAS_clean_linker_0, # of connection points: 2
#     Edge 86, Type (0, 0), BuildingBlock: ZUJKAS_clean_linker_0, # of connection points: 2
#     Edge 87, Type (0, 0), BuildingBlock: ZUJKAS_clean_linker_0, # of connection points: 2
#     Edge 88, Type (0, 0), BuildingBlock: ZUJKAS_clean_linker_0, # of connection points: 2
#     Edge 89, Type (0, 0), BuildingBlock: ZUJKAS_clean_linker_0, # of connection points: 2
#     Edge 90, Type (0, 0), BuildingBlock: ZUJKAS_clean_linker_0, # of connection points: 2
#     Edge 91, Type (0, 0), BuildingBlock: ZUJKAS_clean_linker_0, # of connection points: 2
#     Edge 92, Type (0, 0), BuildingBlock: ZUJKAS_clean_linker_0, # of connection points: 2
#     Edge 93, Type (0, 0), BuildingBlock: ZUJKAS_clean_linker_0, # of connection points: 2
#     Edge 94, Type (0, 0), BuildingBlock: ZUJKAS_clean_linker_0, # of connection points: 2
#     Edge 95, Type (0, 0), BuildingBlock: ZUJKAS_clean_linker_0, # of connection points: 2
#     Edge 96, Type (0, 0), BuildingBlock: ZUJKAS_clean_linker_0, # of connection points: 2
#     Edge 97, Type (0, 0), BuildingBlock: ZUJKAS_clean_linker_0, # of connection points: 2
#     Edge 98, Type (0, 0), BuildingBlock: ZUJKAS_clean_linker_0, # of connection points: 2
#     Edge 99, Type (0, 0), BuildingBlock: ZUJKAS_clean_linker_0, # of connection points: 2
#     Edge 100, Type (0, 0), BuildingBlock: ZUJKAS_clean_linker_0, # of connection points: 2
#     Edge 101, Type (0, 0), BuildingBlock: ZUJKAS_clean_linker_0, # of connection points: 2
#     Edge 102, Type (0, 0), BuildingBlock: ZUJKAS_clean_linker_0, # of connection points: 2
#     Edge 103, Type (0, 0), BuildingBlock: ZUJKAS_clean_linker_0, # of connection points: 2
#     Edge 104, Type (0, 0), BuildingBlock: ZUJKAS_clean_linker_0, # of connection points: 2
#     Edge 105, Type (0, 0), BuildingBlock: ZUJKAS_clean_linker_0, # of connection points: 2
#     Edge 106, Type (0, 0), BuildingBlock: ZUJKAS_clean_linker_0, # of connection points: 2
#     Edge 107, Type (0, 0), BuildingBlock: ZUJKAS_clean_linker_0, # of connection points: 2
#     Edge 108, Type (0, 0), BuildingBlock: ZUJKAS_clean_linker_0, # of connection points: 2
#     Edge 109, Type (0, 0), BuildingBlock: ZUJKAS_clean_linker_0, # of connection points: 2
#     Edge 110, Type (0, 0), BuildingBlock: ZUJKAS_clean_linker_0, # of connection points: 2
#     Edge 111, Type (0, 0), BuildingBlock: ZUJKAS_clean_linker_0, # of connection points: 2
#     Edge 112, Type (0, 0), BuildingBlock: ZUJKAS_clean_linker_0, # of connection points: 2
#     Edge 113, Type (0, 0), BuildingBlock: ZUJKAS_clean_linker_0, # of connection points: 2
#     Edge 114, Type (0, 0), BuildingBlock: ZUJKAS_clean_linker_0, # of connection points: 2
#     Edge 115, Type (0, 0), BuildingBlock: ZUJKAS_clean_linker_0, # of connection points: 2
#     Edge 116, Type (0, 0), BuildingBlock: ZUJKAS_clean_linker_0, # of connection points: 2
#     Edge 117, Type (0, 0), BuildingBlock: ZUJKAS_clean_linker_0, # of connection points: 2
#     Edge 118, Type (0, 0), BuildingBlock: ZUJKAS_clean_linker_0, # of connection points: 2
#     Edge 119, Type (0, 0), BuildingBlock: ZUJKAS_clean_linker_0, # of connection points: 2
#     Edge 120, Type (0, 0), BuildingBlock: ZUJKAS_clean_linker_0, # of connection points: 2
#     Edge 121, Type (0, 0), BuildingBlock: ZUJKAS_clean_linker_0, # of connection points: 2
#     Edge 122, Type (0, 0), BuildingBlock: ZUJKAS_clean_linker_0, # of connection points: 2
#     Edge 123, Type (0, 0), BuildingBlock: ZUJKAS_clean_linker_0, # of connection points: 2
#     Edge 124, Type (0, 0), BuildingBlock: ZUJKAS_clean_linker_0, # of connection points: 2
#     Edge 125, Type (0, 0), BuildingBlock: ZUJKAS_clean_linker_0, # of connection points: 2
#     Edge 126, Type (0, 0), BuildingBlock: ZUJKAS_clean_linker_0, # of connection points: 2
#     Edge 127, Type (0, 0), BuildingBlock: ZUJKAS_clean_linker_0, # of connection points: 2
# Relax obj value: 0.150
# Max RMSD: 0.152
# Mean RMSD: 0.152
data_MOF--net-vcc--node1-CUKXOW_clean_sbu_0--edge1-ZUJKAS_clean_linker_0
_symmetry_space_group_name_H-M    P1
_symmetry_Int_Tables_number       1
_symmetry_cell_setting            triclinic
loop_
_symmetry_equiv_pos_as_xyz
'x, y, z'
_cell_length_a     60.335241
_cell_length_b     76.146197
_cell_length_c     49.616636
_cell_angle_alpha  90.042467
_cell_angle_beta   89.943346
_cell_angle_gamma 89.971472
loop_
_atom_site_label
_atom_site_type_symbol
_atom_site_fract_x
_atom_site_fract_y
_atom_site_fract_z
_atom_type_partial_charge
Tb0 Tb 0.28905 1.00148 0.11063 0.0
C1 C 0.2954 0.04112 0.12741 0.0
Tb2 Tb 0.32737 0.0106 0.12179 0.0
O3 O 0.27939 0.9882 0.14741 0.0
O4 O 0.29951 0.01048 0.1506 0.0
O5 O 0.28271 0.03045 0.11301 0.0
C6 C 0.36881 0.01934 0.13475 0.0
O7 O 0.31364 0.03461 0.13756 0.0
C8 C 0.32321 0.01149 0.06725 0.0
C9 C 0.32259 0.97079 0.11804 0.0
O10 O 0.3551 0.0289 0.12143 0.0
O11 O 0.35914 0.00481 0.1415 0.0
O12 O 0.3311 0.0237 0.08234 0.0
O13 O 0.31663 0.99953 0.0832 0.0
O14 O 0.33419 0.98304 0.13012 0.0
O15 O 0.30458 0.97556 0.1049 0.0
C16 C 0.25232 0.99599 0.08199 0.0
O17 O 0.25869 0.98686 0.10248 0.0
O18 O 0.2661 0.00881 0.07865 0.0
C19 C 0.28929 0.99858 0.16412 0.0
Tb20 Tb 0.934 0.2575 0.11238 0.0
C21 C 0.92726 0.21808 0.12978 0.0
Tb22 Tb 0.89569 0.24864 0.12265 0.0
O23 O 0.94301 0.27102 0.14928 0.0
O24 O 0.92293 0.24879 0.1523 0.0
O25 O 0.9398 0.22841 0.1146 0.0
C26 C 0.85384 0.24029 0.13437 0.0
O27 O 0.90917 0.22495 0.13985 0.0
C28 C 0.90068 0.24725 0.06817 0.0
C29 C 0.90059 0.28837 0.11841 0.0
O30 O 0.86779 0.23049 0.12178 0.0
O31 O 0.86352 0.2548 0.14117 0.0
O32 O 0.89274 0.23512 0.08339 0.0
O33 O 0.90706 0.25936 0.084 0.0
O34 O 0.88889 0.27625 0.13066 0.0
O35 O 0.91864 0.28338 0.10551 0.0
C36 C 0.97193 0.26305 0.08593 0.0
O37 O 0.96445 0.27232 0.10571 0.0
O38 O 0.95844 0.25012 0.08191 0.0
C39 C 0.93299 0.2607 0.16593 0.0
Tb40 Tb 0.28855 0.25754 0.24019 0.0
C41 C 0.29393 0.21779 0.2235 0.0
Tb42 Tb 0.32628 0.24791 0.22818 0.0
O43 O 0.2787 0.27099 0.2036 0.0
O44 O 0.29809 0.24835 0.19993 0.0
O45 O 0.28174 0.22862 0.2383 0.0
C46 C 0.36735 0.23836 0.21475 0.0
O47 O 0.31196 0.22412 0.21257 0.0
C48 C 0.32305 0.24673 0.28281 0.0
C49 C 0.32267 0.28771 0.2319 0.0
O50 O 0.35297 0.2287 0.22677 0.0
O51 O 0.35853 0.25347 0.20939 0.0
O52 O 0.3304 0.23455 0.26725 0.0
O53 O 0.31641 0.25892 0.26729 0.0
O54 O 0.3336 0.27529 0.21927 0.0
O55 O 0.30488 0.28318 0.2457 0.0
C56 C 0.25193 0.26368 0.26883 0.0
O57 O 0.25856 0.27269 0.24834 0.0
O58 O 0.26547 0.25073 0.2724 0.0
C59 C 0.2879 0.26036 0.18664 0.0
Tb60 Tb 0.93338 0.99971 0.2375 0.0
C61 C 0.92651 0.03916 0.22015 0.0
Tb62 Tb 0.89523 0.00841 0.22691 0.0
O63 O 0.94313 0.98634 0.20076 0.0
O64 O 0.92264 0.00839 0.1974 0.0
O65 O 0.93919 0.02879 0.23507 0.0
C66 C 0.85352 0.01707 0.21508 0.0
O67 O 0.90848 0.03227 0.21006 0.0
C68 C 0.89965 0.00972 0.28146 0.0
C69 C 0.90022 0.96868 0.23092 0.0
O70 O 0.86743 0.02663 0.22807 0.0
O71 O 0.86315 1.00258 0.20796 0.0
O72 O 0.89193 0.02189 0.26616 0.0
O73 O 0.90622 0.99764 0.26565 0.0
O74 O 0.88842 0.98082 0.21886 0.0
O75 O 0.91829 0.97366 0.24375 0.0
C76 C 0.9708 0.99462 0.26504 0.0
O77 O 0.9642 0.98546 0.24469 0.0
O78 O 0.95674 0.00718 0.26905 0.0
C79 C 0.93312 0.99657 0.18394 0.0
Tb80 Tb 0.64606 0.99833 0.97638 0.0
C81 C 0.65088 0.03799 0.98193 0.0
Tb82 Tb 0.6842 0.00714 0.98868 0.0
O83 O 0.64136 0.98464 1.01511 0.0
O84 O 0.65629 0.00869 1.01578 0.0
O85 O 0.63963 0.026 0.96882 0.0
C86 C 0.7211 0.01239 1.01716 0.0
O87 O 0.66856 0.03293 0.99546 0.0
C88 C 0.68444 0.01059 0.93507 0.0
C89 C 0.67791 0.96778 0.9706 0.0
O90 O 0.71464 0.02166 0.99687 0.0
O91 O 0.70724 0.99963 1.02052 0.0
O92 O 0.69401 0.02089 0.95218 0.0
O93 O 0.67433 0.99855 0.94832 0.0
O94 O 0.69004 0.97809 0.98628 0.0
O95 O 0.6601 0.97463 0.95983 0.0
C96 C 0.60461 0.99055 0.96229 0.0
O97 O 0.61781 0.98054 0.97561 0.0
O98 O 0.61485 0.00492 0.95604 0.0
C99 C 0.64911 0.9965 1.03097 0.0
Tb100 Tb 0.07938 0.75937 0.97841 0.0
C101 C 0.07538 0.71969 0.98233 0.0
Tb102 Tb 0.04138 0.75002 0.98945 0.0
O103 O 0.08283 0.77298 1.01741 0.0
O104 O 0.06869 0.74867 1.01742 0.0
O105 O 0.08655 0.73197 0.96975 0.0
C106 C 0.00406 0.74407 1.01686 0.0
O107 O 0.05748 0.72439 0.99579 0.0
C108 C 0.04193 0.74675 0.93588 0.0
C109 C 0.04704 0.78942 0.97169 0.0
O110 O 0.0111 0.73505 0.99657 0.0
O111 O 0.0176 0.75696 1.02088 0.0
O112 O 0.03229 0.7363 0.95271 0.0
O113 O 0.05177 0.75882 0.94939 0.0
O114 O 0.03483 0.77898 0.98706 0.0
O115 O 0.0651 0.78273 0.96129 0.0
C116 C 0.1208 0.76873 0.96636 0.0
O117 O 0.10607 0.77858 0.97742 0.0
O118 O 0.11213 0.75355 0.96111 0.0
C119 C 0.07524 0.7609 1.03294 0.0
Tb120 Tb 0.64561 0.75909 0.87423 0.0
C121 C 0.65024 0.71924 0.87064 0.0
Tb122 Tb 0.68349 0.7499 0.8632 0.0
O123 O 0.64287 0.77268 0.83495 0.0
O124 O 0.65602 0.74803 0.83544 0.0
O125 O 0.63867 0.73154 0.8827 0.0
C126 C 0.72084 0.74426 0.83566 0.0
O127 O 0.66815 0.724 0.85731 0.0
C128 C 0.68314 0.74675 0.91675 0.0
C129 C 0.67741 0.78945 0.88055 0.0
O130 O 0.71418 0.73539 0.85628 0.0
O131 O 0.70688 0.75683 0.83137 0.0
O132 O 0.69269 0.73626 0.8999 0.0
O133 O 0.67324 0.75882 0.90329 0.0
O134 O 0.68981 0.77891 0.86551 0.0
O135 O 0.65935 0.78278 0.89093 0.0
C136 C 0.60402 0.76798 0.88646 0.0
O137 O 0.618 0.77753 0.87353 0.0
O138 O 0.61351 0.75339 0.89328 0.0
C139 C 0.64985 0.76021 0.81966 0.0
Tb140 Tb 0.07827 0.99717 0.87253 0.0
C141 C 0.07162 0.03695 0.86873 0.0
Tb142 Tb 0.04019 0.00517 0.85843 0.0
O143 O 0.08273 0.9836 0.8333 0.0
O144 O 0.06917 0.00808 0.83352 0.0
O145 O 0.08373 0.02493 0.8807 0.0
C146 C 0.00833 0.00687 0.82143 0.0
O147 O 0.05393 0.03186 0.8552 0.0
C148 C 0.03719 0.00888 0.91157 0.0
C149 C 0.047 0.9662 0.87848 0.0
O150 O 0.00924 0.01636 0.84312 0.0
O151 O 0.02436 0.99564 0.82205 0.0
O152 O 0.02671 0.01814 0.89369 0.0
O153 O 0.04918 0.99731 0.89944 0.0
O154 O 0.03464 0.97621 0.86264 0.0
O155 O 0.0647 0.97332 0.8891 0.0
C156 C 0.11969 0.98904 0.8864 0.0
O157 O 0.10653 0.9794 0.87243 0.0
O158 O 0.10944 1.00328 0.89345 0.0
C159 C 0.07614 0.99611 0.81787 0.0
Tb160 Tb 0.28636 0.4997 0.60948 0.0
C161 C 0.2936 0.53901 0.6273 0.0
Tb162 Tb 0.32431 0.50797 0.6203 0.0
O163 O 0.27656 0.48613 0.64601 0.0
O164 O 0.29697 0.50812 0.64976 0.0
O165 O 0.28088 0.52884 0.6121 0.0
C166 C 0.36608 0.51494 0.63396 0.0
O167 O 0.3115 0.53191 0.63735 0.0
C168 C 0.32051 0.50985 0.56578 0.0
C169 C 0.31907 0.46845 0.61596 0.0
O170 O 0.35259 0.52566 0.62248 0.0
O171 O 0.35596 0.50026 0.63844 0.0
O172 O 0.32861 0.52167 0.58145 0.0
O173 O 0.31343 0.49771 0.58114 0.0
O174 O 0.33049 0.48043 0.62877 0.0
O175 O 0.30139 0.47363 0.60255 0.0
C176 C 0.24845 0.49452 0.58294 0.0
O177 O 0.25567 0.48525 0.60281 0.0
O178 O 0.26224 0.50722 0.57875 0.0
C179 C 0.28644 0.49629 0.66302 0.0
Tb180 Tb 0.93372 0.75761 0.6133 0.0
C181 C 0.92795 0.71785 0.62951 0.0
Tb182 Tb 0.89561 0.74825 0.62505 0.0
O183 O 0.94332 0.77087 0.65019 0.0
O184 O 0.92372 0.74836 0.65334 0.0
O185 O 0.9404 0.72869 0.6151 0.0
C186 C 0.85452 0.73898 0.63882 0.0
O187 O 0.90975 0.72417 0.64013 0.0
C188 C 0.89913 0.74705 0.57045 0.0
C189 C 0.89994 0.78817 0.62078 0.0
O190 O 0.86801 0.72987 0.62444 0.0
O191 O 0.86421 0.75339 0.64615 0.0
O192 O 0.89139 0.73498 0.5859 0.0
O193 O 0.90591 0.75916 0.5861 0.0
O194 O 0.8884 0.77587 0.63287 0.0
O195 O 0.91803 0.78346 0.60769 0.0
C196 C 0.97049 0.76356 0.58484 0.0
O197 O 0.96394 0.77249 0.60548 0.0
O198 O 0.95681 0.75072 0.58114 0.0
C199 C 0.93381 0.76028 0.66692 0.0
Tb200 Tb 0.29018 0.75642 0.73934 0.0
C201 C 0.29655 0.71701 0.72156 0.0
Tb202 Tb 0.32841 0.74753 0.72805 0.0
O203 O 0.28078 0.77003 0.7027 0.0
O204 O 0.30067 0.7477 0.6992 0.0
O205 O 0.28414 0.72738 0.73686 0.0
C206 C 0.36987 0.7388 0.71507 0.0
O207 O 0.31457 0.72383 0.71127 0.0
C208 C 0.32447 0.74609 0.78261 0.0
C209 C 0.32346 0.78729 0.73235 0.0
O210 O 0.35603 0.72913 0.72803 0.0
O211 O 0.3603 0.75344 0.70865 0.0
O212 O 0.33234 0.73407 0.7671 0.0
O213 O 0.31763 0.7582 0.76703 0.0
O214 O 0.33512 0.77514 0.72007 0.0
O215 O 0.30553 0.78237 0.74554 0.0
C216 C 0.25255 0.762 0.76632 0.0
O217 O 0.2596 0.77106 0.74611 0.0
O218 O 0.26636 0.74933 0.77068 0.0
C219 C 0.29051 0.75967 0.68582 0.0
Tb220 Tb 0.93491 0.50076 0.73941 0.0
C221 C 0.92876 0.54057 0.72333 0.0
Tb222 Tb 0.89656 0.51026 0.72854 0.0
O223 O 0.94312 0.48717 0.70224 0.0
O224 O 0.92429 0.5101 0.6997 0.0
O225 O 0.94139 0.52977 0.73764 0.0
C226 C 0.85506 0.51918 0.71598 0.0
O227 O 0.91057 0.53415 0.71291 0.0
C228 C 0.90096 0.51098 0.783 0.0
C229 C 0.90142 0.47033 0.73121 0.0
O230 O 0.86934 0.52907 0.72775 0.0
O231 O 0.8642 0.50421 0.71049 0.0
O232 O 0.89358 0.52344 0.76804 0.0
O233 O 0.9072 0.49893 0.76694 0.0
O234 O 0.88995 0.48274 0.71926 0.0
O235 O 0.91926 0.47495 0.74478 0.0
C236 C 0.97263 0.49371 0.76539 0.0
O237 O 0.96623 0.48662 0.74312 0.0
O238 O 0.95818 0.5054 0.77245 0.0
C239 C 0.93374 0.498 0.68579 0.0
Tb240 Tb 0.64391 0.49797 0.47681 0.0
C241 C 0.6485 0.53781 0.48203 0.0
Tb242 Tb 0.68241 0.50725 0.48788 0.0
O243 O 0.64046 0.48444 0.51594 0.0
O244 O 0.65495 0.50865 0.51569 0.0
O245 O 0.63688 0.52567 0.46964 0.0
C246 C 0.72032 0.51291 0.5141 0.0
O247 O 0.66659 0.53292 0.4949 0.0
C248 C 0.68126 0.51043 0.43428 0.0
C249 C 0.67635 0.46773 0.47046 0.0
O250 O 0.71284 0.52215 0.49433 0.0
O251 O 0.70675 0.5001 0.51853 0.0
O252 O 0.69091 0.52098 0.45093 0.0
O253 O 0.67172 0.49833 0.44804 0.0
O254 O 0.6887 0.47825 0.48556 0.0
O255 O 0.65822 0.47438 0.46018 0.0
C256 C 0.60267 0.48859 0.46374 0.0
O257 O 0.61637 0.47952 0.47786 0.0
O258 O 0.61219 0.50307 0.45638 0.0
C259 C 0.64839 0.49649 0.53134 0.0
Tb260 Tb 0.07512 0.2596 0.47928 0.0
C261 C 0.0706 0.21972 0.48365 0.0
Tb262 Tb 0.03649 0.25015 0.49068 0.0
O263 O 0.0795 0.27262 0.51851 0.0
O264 O 0.06428 0.24866 0.51808 0.0
O265 O 0.08211 0.23198 0.47141 0.0
C266 C -0.00106 0.24256 0.51684 0.0
O267 O 0.05252 0.22445 0.49674 0.0
C268 C 0.03792 0.24755 0.43693 0.0
C269 C 0.04273 0.29005 0.47505 0.0
O270 O 0.00554 0.23556 0.49457 0.0
O271 O 0.013 0.25461 0.5236 0.0
O272 O 0.02866 0.23659 0.45329 0.0
O273 O 0.04704 0.25965 0.4511 0.0
O274 O 0.02998 0.27917 0.4891 0.0
O275 O 0.06096 0.2837 0.46455 0.0
C276 C 0.11625 0.26861 0.46537 0.0
O277 O 0.10289 0.27783 0.47977 0.0
O278 O 0.10641 0.25425 0.45811 0.0
C279 C 0.07131 0.26065 0.53381 0.0
Tb280 Tb 0.64696 0.25926 0.37417 0.0
C281 C 0.65098 0.21953 0.37035 0.0
Tb282 Tb 0.68456 0.25012 0.36256 0.0
O283 O 0.64398 0.27294 0.33493 0.0
O284 O 0.65693 0.24825 0.33519 0.0
O285 O 0.63982 0.23182 0.383 0.0
C286 C 0.72109 0.24492 0.33325 0.0
O287 O 0.66876 0.2243 0.35674 0.0
C288 C 0.68536 0.24685 0.41608 0.0
C289 C 0.67871 0.28952 0.38085 0.0
O290 O 0.71476 0.23546 0.35342 0.0
O291 O 0.70736 0.25784 0.33056 0.0
O292 O 0.69494 0.23659 0.39888 0.0
O293 O 0.67482 0.25878 0.40301 0.0
O294 O 0.69074 0.27919 0.36502 0.0
O295 O 0.66095 0.28263 0.39159 0.0
C296 C 0.60554 0.26867 0.38627 0.0
O297 O 0.62017 0.27841 0.3748 0.0
O298 O 0.6143 0.25358 0.39183 0.0
C299 C 0.6507 0.26045 0.31951 0.0
Tb300 Tb 0.07697 0.49742 0.37258 0.0
C301 C 0.07267 0.53727 0.36867 0.0
Tb302 Tb 0.0388 0.50685 0.36212 0.0
O303 O 0.07998 0.48394 0.3334 0.0
O304 O 0.06599 0.50832 0.3339 0.0
O305 O 0.08405 0.52497 0.38099 0.0
C306 C 0.00116 0.51276 0.33541 0.0
O307 O 0.05465 0.53253 0.35554 0.0
C308 C 0.04003 0.50995 0.41565 0.0
C309 C 0.04486 0.46714 0.37888 0.0
O310 O 0.00823 0.52163 0.35583 0.0
O311 O 0.01489 0.50006 0.33083 0.0
O312 O 0.0304 0.52057 0.39909 0.0
O313 O 0.04954 0.49781 0.40189 0.0
O314 O 0.03219 0.47791 0.36462 0.0
O315 O 0.06327 0.47351 0.38881 0.0
C316 C 0.11871 0.48849 0.38377 0.0
O317 O 0.10421 0.47865 0.37232 0.0
O318 O 0.10963 0.50336 0.38999 0.0
C319 C 0.07236 0.49615 0.31814 0.0
Tb320 Tb 0.79204 1.00107 0.61192 0.0
C321 C 0.79781 0.04089 0.62489 0.0
Tb322 Tb 0.83129 0.00957 0.62467 0.0
O323 O 0.78288 0.98748 0.64884 0.0
O324 O 0.80247 0.00982 0.65185 0.0
O325 O 0.78265 0.02866 0.6202 0.0
C326 C 0.8686 0.02441 0.64189 0.0
O327 O 0.8188 0.03632 0.62607 0.0
C328 C 0.83193 1.00141 0.57162 0.0
C329 C 0.82485 0.97043 0.62182 0.0
O330 O 0.85991 0.02663 0.61845 0.0
O331 O 0.85665 0.01349 0.65563 0.0
O332 O 0.84626 0.99647 0.58943 0.0
O333 O 0.81715 0.01028 0.58412 0.0
O334 O 0.83456 0.98225 0.63699 0.0
O335 O 0.80945 0.97598 0.60504 0.0
C336 C 0.75542 0.99334 0.584 0.0
O337 O 0.76497 0.98338 0.60143 0.0
O338 O 0.76605 0.00806 0.58309 0.0
C339 C 0.79256 0.99791 0.6656 0.0
Tb340 Tb 0.43317 0.2573 0.61212 0.0
C341 C 0.42695 0.21756 0.62791 0.0
Tb342 Tb 0.39505 0.24817 0.62501 0.0
O343 O 0.4428 0.27077 0.64896 0.0
O344 O 0.42371 0.24813 0.65238 0.0
O345 O 0.43909 0.22823 0.61281 0.0
C346 C 0.35475 0.23918 0.64216 0.0
O347 O 0.40948 0.22419 0.63971 0.0
C348 C 0.39745 0.24668 0.57035 0.0
C349 C 0.39928 0.28785 0.61925 0.0
O350 O 0.36772 0.22963 0.62772 0.0
O351 O 0.36446 0.25398 0.64727 0.0
O352 O 0.38925 0.23497 0.58612 0.0
O353 O 0.40493 0.25873 0.5856 0.0
O354 O 0.38831 0.27581 0.63263 0.0
O355 O 0.41689 0.28287 0.60542 0.0
C356 C 0.47041 0.26345 0.58468 0.0
O357 O 0.46313 0.27258 0.60471 0.0
O358 O 0.45705 0.25043 0.58069 0.0
C359 C 0.43364 0.26014 0.66589 0.0
Tb360 Tb 0.79639 0.25723 0.73714 0.0
C361 C 0.80222 0.21761 0.72401 0.0
Tb362 Tb 0.83558 0.24897 0.72367 0.0
O363 O 0.78656 0.27139 0.70097 0.0
O364 O 0.80681 0.24949 0.69653 0.0
O365 O 0.78825 0.22895 0.73516 0.0
C366 C 0.87363 0.23396 0.70891 0.0
O367 O 0.82191 0.22307 0.71624 0.0
C368 C 0.83526 0.2557 0.77736 0.0
C369 C 0.82902 0.28794 0.72357 0.0
O370 O 0.8601 0.22794 0.72674 0.0
O371 O 0.86576 0.24843 0.69912 0.0
O372 O 0.84929 0.26168 0.76005 0.0
O373 O 0.82118 0.24674 0.76402 0.0
O374 O 0.83921 0.27581 0.70954 0.0
O375 O 0.81322 0.28284 0.74007 0.0
C376 C 0.76338 0.26955 0.76676 0.0
O377 O 0.78398 0.27361 0.76917 0.0
O378 O 0.76102 0.25762 0.74824 0.0
C379 C 0.79637 0.26146 0.68355 0.0
Tb380 Tb 0.42956 1.00036 0.73661 0.0
C381 C 0.42416 0.03973 0.72098 0.0
Tb382 Tb 0.39063 0.00843 0.724 0.0
O383 O 0.43969 0.98654 0.70027 0.0
O384 O 0.419 0.00823 0.69611 0.0
O385 O 0.43907 0.02787 0.72823 0.0
C386 C 0.35255 0.02287 0.70825 0.0
O387 O 0.40337 0.03487 0.71814 0.0
C388 C 0.39014 1.00137 0.77752 0.0
C389 C 0.39724 0.96961 0.72693 0.0
O390 O 0.36602 0.02942 0.72567 0.0
O391 O 0.36049 0.00814 0.69937 0.0
O392 O 0.37568 0.9963 0.76007 0.0
O393 O 0.4048 0.00999 0.76455 0.0
O394 O 0.38808 0.98123 0.71099 0.0
O395 O 0.41207 0.97544 0.74419 0.0
C396 C 0.46583 0.99263 0.76515 0.0
O397 O 0.45549 0.98218 0.74911 0.0
O398 O 0.45624 0.00779 0.76425 0.0
C399 C 0.4296 0.99637 0.68302 0.0
Tb400 Tb 0.1467 0.99877 0.47679 0.0
C401 C 0.14969 0.03872 0.48229 0.0
Tb402 Tb 0.18476 0.00909 0.48772 0.0
O403 O 0.14454 0.98491 0.51582 0.0
O404 O 0.15722 0.00976 0.5156 0.0
O405 O 0.13877 0.02635 0.4695 0.0
C406 C 0.22307 0.01708 0.51178 0.0
O407 O 0.1678 0.03419 0.4954 0.0
C408 C 0.18286 0.01228 0.43401 0.0
C409 C 0.18024 0.96951 0.4702 0.0
O410 O 0.21499 0.02467 0.49078 0.0
O411 O 0.20988 0.00448 0.51878 0.0
O412 O 0.19173 0.02328 0.45059 0.0
O413 O 0.1743 0.99985 0.44793 0.0
O414 O 0.19182 0.9801 0.48609 0.0
O415 O 0.16218 0.97589 0.45935 0.0
C416 C 0.10561 0.98902 0.46385 0.0
O417 O 0.1198 0.97967 0.47681 0.0
O418 O 0.11461 0.00388 0.45751 0.0
C419 C 0.15151 0.99733 0.5312 0.0
Tb420 Tb 0.57899 0.75991 0.47811 0.0
C421 C 0.57435 0.72009 0.48244 0.0
Tb422 Tb 0.54103 0.7509 0.48912 0.0
O423 O 0.58175 0.77362 0.51732 0.0
O424 O 0.56846 0.74903 0.51694 0.0
O425 O 0.58595 0.73227 0.47015 0.0
C426 C 0.50368 0.74558 0.51675 0.0
O427 O 0.55636 0.725 0.4955 0.0
C428 C 0.54136 0.74769 0.43555 0.0
C429 C 0.54727 0.79037 0.47147 0.0
O430 O 0.51034 0.73649 0.49633 0.0
O431 O 0.51763 0.75819 0.52077 0.0
O432 O 0.53171 0.73726 0.4524 0.0
O433 O 0.55139 0.75969 0.44903 0.0
O434 O 0.53483 0.77994 0.48661 0.0
O435 O 0.56533 0.78359 0.46121 0.0
C436 C 0.62059 0.76869 0.46582 0.0
O437 O 0.6067 0.77823 0.47894 0.0
O438 O 0.611 0.75416 0.45887 0.0
C439 C 0.57468 0.76123 0.53267 0.0
Tb440 Tb 0.1434 0.75895 0.37608 0.0
C441 C 0.14822 0.71923 0.37081 0.0
Tb442 Tb 0.18171 0.7501 0.3642 0.0
O443 O 0.13946 0.77265 0.33719 0.0
O444 O 0.15406 0.7485 0.3369 0.0
O445 O 0.13665 0.73127 0.3835 0.0
C446 C 0.2188 0.74488 0.33601 0.0
O447 O 0.16611 0.72427 0.3576 0.0
C448 C 0.18152 0.74649 0.4177 0.0
C449 C 0.17546 0.78931 0.38294 0.0
O450 O 0.21229 0.73566 0.35635 0.0
O451 O 0.20486 0.75756 0.33241 0.0
O452 O 0.19131 0.73628 0.40062 0.0
O453 O 0.17142 0.75854 0.40447 0.0
O454 O 0.18752 0.77919 0.36685 0.0
O455 O 0.15768 0.78231 0.39358 0.0
C456 C 0.10211 0.76823 0.38886 0.0
O457 O 0.11608 0.77758 0.37559 0.0
O458 O 0.11145 0.75358 0.39578 0.0
C459 C 0.14722 0.76068 0.32151 0.0
Tb460 Tb 0.57769 0.99863 0.37355 0.0
C461 C 0.57285 0.03833 0.36871 0.0
Tb462 Tb 0.53957 0.00743 0.36142 0.0
O463 O 0.58226 0.98503 0.33467 0.0
O464 O 0.56741 0.0091 0.33427 0.0
O465 O 0.58425 0.02625 0.38145 0.0
C466 C 0.5027 0.01272 0.33292 0.0
O467 O 0.5551 0.03334 0.35523 0.0
C468 C 0.53924 0.01081 0.41499 0.0
C469 C 0.54587 0.96808 0.3796 0.0
O470 O 0.50899 0.02183 0.35347 0.0
O471 O 0.51672 1.00009 0.32927 0.0
O472 O 0.52966 0.02112 0.39792 0.0
O473 O 0.54947 0.99881 0.40173 0.0
O474 O 0.53368 0.97836 0.36393 0.0
O475 O 0.56368 0.97499 0.39025 0.0
C476 C 0.61902 0.99012 0.38719 0.0
O477 O 0.60548 0.98041 0.37386 0.0
O478 O 0.6092 0.00465 0.39367 0.0
C479 C 0.57453 0.99695 0.31894 0.0
Tb480 Tb 0.78805 0.49948 0.11129 0.0
C481 C 0.79312 0.53961 0.12641 0.0
Tb482 Tb 0.82626 0.50981 0.1225 0.0
O483 O 0.7805 0.48599 0.14877 0.0
O484 O 0.79822 0.5094 0.15084 0.0
O485 O 0.78079 0.52839 0.11246 0.0
C486 C 0.86725 0.51924 0.13653 0.0
O487 O 0.81152 0.53375 0.13706 0.0
C488 C 0.82204 0.51053 0.06805 0.0
C489 C 0.82288 0.46974 0.118 0.0
O490 O 0.85387 0.52827 0.12191 0.0
O491 O 0.85752 0.50485 0.14381 0.0
O492 O 0.82928 0.52302 0.0831 0.0
O493 O 0.81599 0.49837 0.08399 0.0
O494 O 0.83398 0.48223 0.13028 0.0
O495 O 0.80473 0.47414 0.10487 0.0
C496 C 0.7503 0.49143 0.08601 0.0
O497 O 0.75776 0.48403 0.10752 0.0
O498 O 0.76373 0.50393 0.07927 0.0
C499 C 0.7893 0.49723 0.16504 0.0
Tb500 Tb 0.43251 0.75843 0.1131 0.0
C501 C 0.42663 0.71937 0.13205 0.0
Tb502 Tb 0.39452 0.74957 0.12546 0.0
O503 O 0.44291 0.77215 0.14932 0.0
O504 O 0.42265 0.75012 0.15372 0.0
O505 O 0.43835 0.72936 0.11547 0.0
C506 C 0.35333 0.74039 0.13883 0.0
O507 O 0.40911 0.72645 0.14318 0.0
C508 C 0.39793 0.74757 0.07086 0.0
C509 C 0.39902 0.78923 0.12008 0.0
O510 O 0.36731 0.73084 0.12586 0.0
O511 O 0.36261 0.75518 0.1451 0.0
O512 O 0.39052 0.73561 0.08676 0.0
O513 O 0.40467 0.7599 0.08606 0.0
O514 O 0.38768 0.7772 0.13302 0.0
O515 O 0.41677 0.7842 0.1066 0.0
C516 C 0.46922 0.76363 0.08416 0.0
O517 O 0.4628 0.77302 0.10437 0.0
O518 O 0.45544 0.75079 0.08112 0.0
C519 C 0.43321 0.76209 0.16664 0.0
Tb520 Tb 0.79089 0.75611 0.23962 0.0
C521 C 0.79701 0.71653 0.22225 0.0
Tb522 Tb 0.82897 0.74705 0.22775 0.0
O523 O 0.78115 0.76971 0.20312 0.0
O524 O 0.8009 0.74729 0.19934 0.0
O525 O 0.78451 0.72712 0.23709 0.0
C526 C 0.87021 0.73806 0.21417 0.0
O527 O 0.81509 0.72314 0.21181 0.0
C528 C 0.82552 0.74571 0.28236 0.0
C529 C 0.82442 0.78684 0.23233 0.0
O530 O 0.85659 0.72866 0.22787 0.0
O531 O 0.86056 0.7526 0.20736 0.0
O532 O 0.83316 0.73364 0.2668 0.0
O533 O 0.81867 0.75782 0.26682 0.0
O534 O 0.83589 0.77465 0.21986 0.0
O535 O 0.8065 0.78198 0.24562 0.0
C536 C 0.75407 0.76167 0.26819 0.0
O537 O 0.7604 0.77065 0.24753 0.0
O538 O 0.76801 0.749 0.2719 0.0
C539 C 0.79069 0.75931 0.1861 0.0
Tb540 Tb 0.43167 0.50135 0.24039 0.0
C541 C 0.42543 0.53911 0.21921 0.0
Tb542 Tb 0.39386 0.50766 0.22226 0.0
O543 O 0.45323 0.50855 0.20758 0.0
O544 O 0.42197 0.49777 0.19803 0.0
O545 O 0.43625 0.53021 0.23788 0.0
C546 C 0.35769 0.52364 0.20354 0.0
O547 O 0.40914 0.53124 0.20677 0.0
C548 C 0.39044 0.50331 0.27644 0.0
C549 C 0.40016 0.46901 0.22687 0.0
O550 O 0.37213 0.53049 0.21949 0.0
O551 O 0.36349 0.50765 0.19795 0.0
O552 O 0.37751 0.49669 0.25845 0.0
O553 O 0.40506 0.5121 0.26374 0.0
O554 O 0.38942 0.4804 0.21203 0.0
O555 O 0.41608 0.47489 0.24286 0.0
C556 C 0.46275 0.48991 0.27434 0.0
O557 O 0.45525 0.48132 0.25386 0.0
O558 O 0.4534 0.50516 0.275 0.0
C559 C 0.43989 0.50452 0.18812 0.0
Tb560 Tb 0.14506 0.49971 0.97575 0.0
C561 C 0.15168 0.53835 0.97868 0.0
Tb562 Tb 0.18342 0.5063 0.99185 0.0
O563 O 0.12945 0.51101 1.012 0.0
O564 O 0.15744 0.49597 1.01697 0.0
O565 O 0.14086 0.52678 0.96429 0.0
C566 C 0.21638 0.51986 1.02107 0.0
O567 O 0.16771 0.53264 0.99458 0.0
C568 C 0.18946 0.50172 0.93926 0.0
C569 C 0.17635 0.46785 0.97416 0.0
O570 O 0.20937 0.52591 0.99836 0.0
O571 O 0.20541 0.50578 1.02687 0.0
O572 O 0.20316 0.49744 0.95822 0.0
O573 O 0.17228 0.50914 0.94995 0.0
O574 O 0.1883 0.47745 0.99098 0.0
O575 O 0.15953 0.47533 0.96213 0.0
C576 C 0.10805 0.48437 0.9582 0.0
O577 O 0.12318 0.47697 0.97253 0.0
O578 O 0.11375 0.50046 0.95342 0.0
C579 C 0.14283 0.50475 1.02977 0.0
Tb580 Tb 0.57757 0.25859 0.97895 0.0
C581 C 0.57273 0.21897 0.9833 0.0
Tb582 Tb 0.53978 0.24996 0.98948 0.0
O583 O 0.58095 0.27227 1.01804 0.0
O584 O 0.56685 0.24791 1.0179 0.0
O585 O 0.58414 0.23103 0.97059 0.0
C586 C 0.50136 0.24453 1.01485 0.0
O587 O 0.55495 0.22404 0.99663 0.0
C588 C 0.54049 0.24683 0.93583 0.0
C589 C 0.54701 0.28958 0.973 0.0
O590 O 0.50896 0.23543 0.99498 0.0
O591 O 0.51513 0.25711 1.01988 0.0
O592 O 0.53108 0.23621 0.95258 0.0
O593 O 0.55025 0.25886 0.9495 0.0
O594 O 0.53414 0.27912 0.98756 0.0
O595 O 0.56492 0.28269 0.96263 0.0
C596 C 0.61935 0.26617 0.96597 0.0
O597 O 0.60584 0.27632 0.97861 0.0
O598 O 0.60926 0.2517 0.95995 0.0
C599 C 0.57349 0.26007 1.03348 0.0
Tb600 Tb 0.13957 0.25895 0.87613 0.0
C601 C 0.14422 0.21928 0.87109 0.0
Tb602 Tb 0.17759 0.24991 0.86734 0.0
O603 O 0.13719 0.27274 0.83729 0.0
O604 O 0.15158 0.24846 0.83736 0.0
O605 O 0.13268 0.23131 0.88381 0.0
C606 C 0.21794 0.24417 0.84718 0.0
O607 O 0.16227 0.22437 0.85835 0.0
C608 C 0.17485 0.24673 0.92089 0.0
C609 C 0.171 0.28938 0.88383 0.0
O610 O 0.20849 0.23508 0.86578 0.0
O611 O 0.20466 0.25661 0.8398 0.0
O612 O 0.18398 0.23573 0.90453 0.0
O613 O 0.16596 0.25893 0.90678 0.0
O614 O 0.1836 0.27891 0.869 0.0
O615 O 0.15277 0.28264 0.89368 0.0
C616 C 0.09737 0.26742 0.88581 0.0
O617 O 0.11197 0.27736 0.87474 0.0
O618 O 0.10661 0.25271 0.89254 0.0
C619 C 0.14509 0.26072 0.82183 0.0
Tb620 Tb 0.58432 0.49781 0.87591 0.0
C621 C 0.57787 0.5368 0.87635 0.0
Tb622 Tb 0.54515 0.50622 0.86371 0.0
O623 O 0.59783 0.51051 0.8395 0.0
O624 O 0.56939 0.49591 0.83568 0.0
O625 O 0.58798 0.52462 0.89034 0.0
C626 C 0.51032 0.51794 0.83669 0.0
O627 O 0.56202 0.53173 0.85995 0.0
C628 C 0.54617 0.51019 0.91736 0.0
C629 C 0.55098 0.46651 0.87614 0.0
O630 O 0.5305 0.52301 0.83357 0.0
O631 O 0.50948 0.50542 0.85439 0.0
O632 O 0.53639 0.5204 0.90037 0.0
O633 O 0.55608 0.49818 0.90385 0.0
O634 O 0.53689 0.478 0.86571 0.0
O635 O 0.57093 0.47177 0.88317 0.0
C636 C 0.62275 0.48305 0.88967 0.0
O637 O 0.60858 0.47656 0.87303 0.0
O638 O 0.61525 0.49779 0.89899 0.0
C639 C 0.58356 0.50479 0.82231 0.0
H640 H 0.36204 0.80335 0.14408 0.0
H641 H 0.34908 0.83381 0.14302 0.0
H642 H 0.40566 0.84824 0.0948 0.0
H643 H 0.41853 0.8177 0.09538 0.0
H644 H 0.36732 0.86388 0.16131 0.0
H645 H 0.35599 0.86931 0.05086 0.0
H646 H 0.36057 0.84854 0.06743 0.0
H647 H 0.38352 0.8629 0.06035 0.0
C648 C 0.37173 0.81296 0.13314 0.0
C649 C 0.39132 0.80794 0.11968 0.0
C650 C 0.36428 0.83045 0.13258 0.0
C651 C 0.37611 0.84344 0.11845 0.0
C652 C 0.39585 0.83851 0.10531 0.0
H653 H 0.35996 0.95706 0.14159 0.0
H654 H 0.37269 0.92655 0.14171 0.0
C655 C 0.40331 0.82099 0.10582 0.0
C656 C 0.36797 0.86211 0.11803 0.0
H657 H 0.35296 0.8958 0.07602 0.0
C658 C 0.36416 0.87082 0.14262 0.0
C659 C 0.36345 0.87124 0.09372 0.0
C660 C 0.36587 0.86249 0.06659 0.0
C661 C 0.35638 0.8883 0.1436 0.0
C662 C 0.35259 0.89763 0.1193 0.0
C663 C 0.35604 0.88883 0.0947 0.0
C664 C 0.34489 0.91642 0.11898 0.0
C665 C 0.35184 0.89646 0.17077 0.0
C666 C 0.32528 0.92122 0.10551 0.0
C667 C 0.318 0.93878 0.10524 0.0
C668 C 0.33021 0.95205 0.1183 0.0
C669 C 0.34998 0.94724 0.13149 0.0
C670 C 0.35724 0.9297 0.13172 0.0
H671 H 0.34934 0.88631 0.18657 0.0
H672 H 0.36624 0.90462 0.17678 0.0
H673 H 0.33693 0.90501 0.17012 0.0
H674 H 0.31544 0.91133 0.09537 0.0
H675 H 0.30276 0.94194 0.09479 0.0
H676 H 0.80406 0.44075 0.09409 0.0
H677 H 0.81738 0.41034 0.09446 0.0
H678 H 0.87384 0.42606 0.14181 0.0
H679 H 0.86045 0.45643 0.14187 0.0
H680 H 0.85534 0.39538 0.07543 0.0
H681 H 0.85085 0.38524 0.18583 0.0
H682 H 0.83824 0.40387 0.16944 0.0
H683 H 0.86751 0.40375 0.17636 0.0
C684 C 0.81927 0.43776 0.1047 0.0
C685 C 0.83106 0.45114 0.11809 0.0
C686 C 0.82692 0.4203 0.10485 0.0
C687 C 0.8465 0.41567 0.11853 0.0
C688 C 0.85844 0.42907 0.13162 0.0
H689 H 0.92061 0.31699 0.09468 0.0
H690 H 0.90794 0.34759 0.09444 0.0
C691 C 0.8508 0.44653 0.13149 0.0
C692 C 0.85452 0.39695 0.11872 0.0
H693 H 0.86889 0.36295 0.16045 0.0
C694 C 0.85827 0.38831 0.09405 0.0
C695 C 0.85812 0.38748 0.14294 0.0
C696 C 0.85328 0.39547 0.17015 0.0
C697 C 0.86574 0.37073 0.09293 0.0
C698 C 0.86999 0.36144 0.11716 0.0
C699 C 0.86594 0.37 0.14182 0.0
C700 C 0.87805 0.34272 0.11741 0.0
C701 C 0.86847 0.36216 0.06571 0.0
C702 C 0.86595 0.32966 0.13102 0.0
C703 C 0.87327 0.31213 0.13136 0.0
C704 C 0.89301 0.30713 0.11821 0.0
C705 C 0.90527 0.32026 0.10487 0.0
C706 C 0.89793 0.33781 0.10456 0.0
H707 H 0.85886 0.36913 1.04989 0.0
H708 H 0.88621 0.36252 0.05984 0.0
H709 H 0.86307 0.34823 0.06622 0.0
H710 H 0.85063 0.33298 0.14122 0.0
H711 H 0.86336 0.30247 0.1419 0.0
H712 H 0.41859 0.44132 0.25491 0.0
H713 H 0.40649 0.41054 0.2555 0.0
H714 H 0.35343 0.42317 0.20072 0.0
H715 H 0.36568 0.45372 0.19956 0.0
H716 H 0.3685 0.39523 0.27157 0.0
H717 H 0.37963 0.38143 0.16296 0.0
H718 H 0.39042 0.401 0.17868 0.0
H719 H 0.36174 0.39985 0.16882 0.0
C720 C 0.40446 0.43753 0.24279 0.0
C721 C 0.39328 0.45009 0.227 0.0
C722 C 0.39749 0.41987 0.2432 0.0
C723 C 0.37922 0.41428 0.22777 0.0
C724 C 0.36792 0.42688 0.21226 0.0
H725 H 0.30307 0.31716 0.25376 0.0
H726 H 0.31667 0.34747 0.25311 0.0
C727 C 0.37491 0.44447 0.21175 0.0
C728 C 0.37162 0.39545 0.22836 0.0
H729 H 0.359 0.3603 0.188 0.0
C730 C 0.36654 0.38759 0.25327 0.0
C731 C 0.36928 0.38521 0.20462 0.0
C732 C 0.37577 0.39223 0.17729 0.0
C733 C 0.35883 0.3701 0.25505 0.0
C734 C 0.35559 0.36012 0.23119 0.0
C735 C 0.36112 0.36787 0.20634 0.0
C736 C 0.34699 0.34156 0.23153 0.0
C737 C 0.35473 0.3624 0.2826 0.0
C738 C 0.35896 0.32799 0.21888 0.0
C739 C 0.35104 0.31063 0.21893 0.0
C740 C 0.33086 0.30629 0.23159 0.0
C741 C 0.31875 0.31991 0.244 0.0
C742 C 0.32664 0.3373 0.24382 0.0
H743 H 0.36411 0.36954 0.29845 0.0
H744 H 0.33683 0.3635 0.28751 0.0
H745 H 0.35947 0.34832 0.28331 0.0
H746 H 0.37463 0.33079 0.20911 0.0
H747 H 0.36086 0.30057 0.20912 0.0
H748 H 0.86146 0.80076 0.20819 0.0
H749 H 0.87437 0.83123 0.20865 0.0
H750 H 0.81766 0.84612 0.25637 0.0
H751 H 0.80483 0.81558 0.25636 0.0
H752 H 0.85612 0.86118 0.18967 0.0
H753 H 0.8672 0.86768 0.30003 0.0
H754 H 0.86273 0.84674 0.28388 0.0
H755 H 0.83971 0.86113 0.29058 0.0
C756 C 0.85173 0.81047 0.2189 0.0
C757 C 0.83211 0.80557 0.23237 0.0
C758 C 0.85915 0.82797 0.21911 0.0
C759 C 0.84728 0.84111 0.23292 0.0
C760 C 0.82751 0.83629 0.24609 0.0
H761 H 0.86295 0.95458 0.20763 0.0
H762 H 0.85042 0.92404 0.20807 0.0
C763 C 0.82007 0.81877 0.24591 0.0
C764 C 0.85539 0.85981 0.23299 0.0
H765 H 0.87022 0.89393 0.27436 0.0
C766 C 0.85922 0.8683 0.20824 0.0
C767 C 0.85984 0.86918 0.25711 0.0
C768 C 0.85739 0.86069 0.28441 0.0
C769 C 0.86693 0.88579 0.20693 0.0
C770 C 0.87065 0.89536 0.23105 0.0
C771 C 0.8672 0.88678 0.25581 0.0
C772 C 0.87826 0.91419 0.23101 0.0
C773 C 0.87147 0.89371 0.17961 0.0
C774 C 0.89785 0.91919 0.24438 0.0
C775 C 0.90503 0.93678 0.2443 0.0
C776 C 0.89274 0.9499 0.231 0.0
C777 C 0.873 0.9449 0.21791 0.0
C778 C 0.86584 0.92733 0.21801 0.0
H779 H 0.87401 0.88342 0.16402 0.0
H780 H 0.85704 0.90179 0.17343 0.0
H781 H 0.88634 0.90228 0.18012 0.0
H782 H 0.90775 0.90942 0.25471 0.0
H783 H 0.92025 0.94008 0.25469 0.0
H784 H 0.67024 0.0666 1.00653 0.0
H785 H 0.65697 0.09705 1.0073 0.0
H786 H 0.60029 0.08213 0.9597 0.0
H787 H 0.61365 0.05182 0.9584 0.0
H788 H 0.6178 0.11211 0.94111 0.0
H789 H 0.60751 0.11802 0.05168 0.0
H790 H 0.63506 0.11186 1.04182 0.0
H791 H 0.6123 0.09721 1.03526 0.0
C792 C 0.65492 0.06978 0.99627 0.0
C793 C 0.64302 0.05665 0.98248 0.0
C794 C 0.64723 0.08723 0.9969 0.0
C795 C 0.62734 0.09199 0.98398 0.0
C796 C 0.6156 0.07891 0.96997 0.0
H797 H 0.55317 0.19032 1.00756 0.0
H798 H 0.566 0.15971 1.0074 0.0
C799 C 0.62329 0.0615 0.96927 0.0
C800 C 0.61896 0.11059 0.9844 0.0
H801 H 0.60388 0.14437 1.02632 0.0
C802 C 0.61474 0.11912 0.95979 0.0
C803 C 0.61454 0.1198 1.00869 0.0
C804 C 0.61736 0.11122 1.03587 0.0
C805 C 0.60666 0.1365 0.95876 0.0
C806 C 0.60302 0.14593 0.98303 0.0
C807 C 0.60685 0.13732 1.00767 0.0
C808 C 0.59522 0.16468 0.98324 0.0
C809 C 0.60166 0.14444 0.93159 0.0
C810 C 0.60741 0.17788 0.97008 0.0
C811 C 0.60005 0.19537 0.97006 0.0
C812 C 0.58037 0.20025 0.98342 0.0
C813 C 0.56833 0.18709 0.99696 0.0
C814 C 0.5757 0.16955 0.99693 0.0
H815 H 0.59902 0.13417 0.91601 0.0
H816 H 0.58671 0.15293 0.93246 0.0
H817 H 0.61592 0.15261 0.92511 0.0
H818 H 0.62278 0.17468 0.95992 0.0
H819 H 0.60991 0.20511 0.95961 0.0
H820 H 0.05529 0.69049 1.00412 0.0
H821 H 0.0686 0.66008 1.00369 0.0
H822 H 0.12706 0.67626 0.9603 0.0
H823 H 0.11362 0.70657 0.96011 0.0
H824 H 0.11084 0.64687 0.93896 0.0
H825 H 0.11585 0.63789 1.04949 0.0
H826 H 0.08869 0.64419 1.03841 0.0
H827 H 0.11156 0.65912 1.03423 0.0
C828 C 0.07102 0.6876 0.99455 0.0
C829 C 0.08338 0.70109 0.98224 0.0
C830 C 0.07873 0.67017 0.9945 0.0
C831 C 0.09912 0.66576 0.98242 0.0
C832 C 0.11135 0.67921 0.9699 0.0
H833 H 0.17044 0.56615 1.00593 0.0
H834 H 0.15837 0.59694 1.00626 0.0
C835 C 0.10362 0.6966 0.96983 0.0
C836 C 0.10751 0.64717 0.98216 0.0
H837 H 0.12022 0.61216 1.0227 0.0
C838 C 0.11293 0.63933 0.95732 0.0
C839 C 0.11068 0.63727 1.00606 0.0
C840 C 0.10662 0.64508 1.03358 0.0
C841 C 0.12097 0.62196 0.95567 0.0
C842 C 0.12328 0.61182 0.97948 0.0
C843 C 0.11827 0.61975 1.00436 0.0
C844 C 0.13084 0.59302 0.97898 0.0
C845 C 0.12736 0.6148 0.92838 0.0
C846 C 0.11937 0.58035 0.96379 0.0
C847 C 0.12633 0.56275 0.96343 0.0
C848 C 0.14483 0.55724 0.97852 0.0
C849 C 0.1562 0.56988 0.99396 0.0
C850 C 0.14925 0.58753 0.99422 0.0
H851 H 0.13111 0.62552 0.9139 0.0
H852 H 0.14204 0.60606 0.92978 0.0
H853 H 0.11332 0.6071 0.9201 0.0
H854 H 0.10479 0.58401 0.95239 0.0
H855 H 0.11699 0.55342 0.95152 0.0
H856 H 0.67135 0.69024 0.84968 0.0
H857 H 0.65943 0.65952 0.85129 0.0
H858 H 0.60055 0.67477 0.8947 0.0
H859 H 0.61262 0.70547 0.89366 0.0
H860 H 0.61849 0.64575 0.91667 0.0
H861 H 0.61259 0.63593 0.80632 0.0
H862 H 0.63952 0.64309 0.81694 0.0
H863 H 0.616 0.65737 0.82125 0.0
C864 C 0.65582 0.6871 0.8595 0.0
C865 C 0.64293 0.70045 0.8714 0.0
C866 C 0.64891 0.66947 0.86026 0.0
C867 C 0.62881 0.66469 0.87268 0.0
C868 C 0.61606 0.67799 0.88486 0.0
H869 H 0.55938 0.56492 0.85022 0.0
H870 H 0.57156 0.59555 0.8504 0.0
C871 C 0.62298 0.69561 0.88419 0.0
C872 C 0.62123 0.64588 0.87341 0.0
H873 H 0.60933 0.61038 0.83349 0.0
C874 C 0.61647 0.63805 0.89844 0.0
C875 C 0.6182 0.63575 0.8497 0.0
C876 C 0.62162 0.64349 0.82202 0.0
C877 C 0.60912 0.62049 0.90043 0.0
C878 C 0.6068 0.61018 0.87677 0.0
C879 C 0.61129 0.61809 0.85172 0.0
C880 C 0.59921 0.59137 0.8774 0.0
C881 C 0.60336 0.61332 0.92789 0.0
C882 C 0.61064 0.57855 0.8924 0.0
C883 C 0.60358 0.56093 0.89246 0.0
C884 C 0.58503 0.55562 0.8773 0.0
C885 C 0.57369 0.56846 0.86222 0.0
C886 C 0.5807 0.58605 0.86224 0.0
H887 H 0.59987 0.62401 0.94255 0.0
H888 H 0.58868 0.60455 0.92691 0.0
H889 H 0.61759 0.60561 0.93567 0.0
H890 H 0.62527 0.58209 0.90378 0.0
H891 H 0.61287 0.55143 0.90411 0.0
H892 H 0.10685 0.20511 0.89397 0.0
H893 H 0.09453 0.17451 0.89338 0.0
H894 H 0.15209 0.16017 0.84678 0.0
H895 H 0.16437 0.19088 0.84692 0.0
H896 H 0.11466 0.14449 0.82718 0.0
H897 H 0.11878 0.13421 0.93756 0.0
H898 H 0.1016 0.15244 0.92814 0.0
H899 H 0.13088 0.15312 0.92134 0.0
C900 C 0.11697 0.19547 0.88363 0.0
C901 C 0.13672 0.20054 0.87061 0.0
C902 C 0.10994 0.17789 0.88346 0.0
C903 C 0.12252 0.16482 0.87046 0.0
C904 C 0.14209 0.1699 0.8571 0.0
H905 H 0.10818 0.05141 0.89305 0.0
H906 H 0.12025 0.08208 0.89277 0.0
C907 C 0.14913 0.18751 0.85724 0.0
C908 C 0.11515 0.14598 0.87049 0.0
H909 H 0.10126 0.11175 0.912 0.0
C910 C 0.11178 0.13734 0.84576 0.0
C911 C 0.11163 0.13643 0.89466 0.0
C912 C 0.11611 0.14444 0.92193 0.0
C913 C 0.10471 0.11968 0.84452 0.0
C914 C 0.10048 0.11032 0.86869 0.0
C915 C 0.1042 0.11887 0.89342 0.0
C916 C 0.09278 0.09155 0.86883 0.0
C917 C 0.10235 0.11111 0.81725 0.0
C918 C 0.07306 0.08647 0.85584 0.0
C919 C 0.0661 0.06884 0.85592 0.0
C920 C 0.07859 0.05582 0.86919 0.0
C921 C 0.09811 0.061 0.88257 0.0
C922 C 0.10506 0.0786 0.88245 0.0
H923 H 0.11194 0.11821 0.80154 0.0
H924 H 0.10801 0.09724 0.81777 0.0
H925 H 0.08464 0.11128 0.81123 0.0
H926 H 0.06293 0.09617 0.84572 0.0
H927 H 0.05093 0.06543 0.84552 0.0
H928 H 0.4178 0.31644 0.59363 0.0
H929 H 0.40422 0.34683 0.5929 0.0
H930 H 0.34844 0.33177 0.64203 0.0
H931 H 0.36208 0.30155 0.64325 0.0
H932 H 0.36595 0.36143 0.57414 0.0
H933 H 0.37152 0.37327 0.68402 0.0
H934 H 0.38404 0.35442 0.66807 0.0
H935 H 0.35488 0.35451 0.67576 0.0
C936 C 0.40271 0.3196 0.60442 0.0
C937 C 0.39119 0.30646 0.61868 0.0
C938 C 0.3949 0.33702 0.60393 0.0
C939 C 0.37544 0.34182 0.61779 0.0
C940 C 0.36376 0.32865 0.6317 0.0
H941 H 0.29944 0.4396 0.59206 0.0
H942 H 0.3126 0.40908 0.59197 0.0
C943 C 0.37156 0.31126 0.63225 0.0
C944 C 0.3672 0.36048 0.61746 0.0
H945 H 0.35224 0.39476 0.65841 0.0
C946 C 0.36301 0.36871 0.59259 0.0
C947 C 0.36357 0.37023 0.64144 0.0
C948 C 0.36894 0.36274 0.66882 0.0
C949 C 0.35506 0.38615 0.59107 0.0
C950 C 0.35073 0.39568 0.61509 0.0
C951 C 0.35523 0.38752 0.63993 0.0
C952 C 0.34235 0.41431 0.61502 0.0
C953 C 0.35193 0.39431 0.56364 0.0
C954 C 0.35418 0.42752 0.62861 0.0
C955 C 0.34655 0.44495 0.62892 0.0
C956 C 0.32678 0.44973 0.61571 0.0
C957 C 0.31479 0.43648 0.60231 0.0
C958 C 0.32242 0.41899 0.60207 0.0
H959 H 0.36165 0.38731 0.54792 0.0
H960 H 0.33417 0.39355 0.55799 0.0
H961 H 0.35694 0.40834 0.5637 0.0
H962 H 0.36952 0.42439 0.63887 0.0
H963 H 0.35629 0.45471 0.63949 0.0
H964 H 0.859 0.95556 0.65058 0.0
H965 H 0.87177 0.92503 0.64995 0.0
H966 H 0.82005 0.91187 0.59359 0.0
H967 H 0.80753 0.94248 0.59365 0.0
H968 H 0.85288 0.89475 0.6641 0.0
H969 H 0.8725 0.89115 0.55527 0.0
H970 H 0.86637 0.91162 0.57198 0.0
H971 H 0.84426 0.89728 0.56158 0.0
C972 C 0.85035 0.94621 0.63796 0.0
C973 C 0.83228 0.95162 0.62202 0.0
C974 C 0.85768 0.92866 0.63764 0.0
C975 C 0.84724 0.916 0.62133 0.0
C976 C 0.82889 0.92133 0.60581 0.0
H977 H 0.86164 0.80179 0.64249 0.0
H978 H 0.84903 0.83234 0.64269 0.0
C979 C 0.8216 0.93889 0.60603 0.0
C980 C 0.85531 0.89726 0.62099 0.0
H981 H 0.87291 0.86411 0.57929 0.0
C982 C 0.85729 0.8881 0.64551 0.0
C983 C 0.86151 0.88847 0.59689 0.0
C984 C 0.86129 0.89767 0.56997 0.0
C985 C 0.86484 0.87055 0.64656 0.0
C986 C 0.87021 0.86154 0.62236 0.0
C987 C 0.8686 0.87079 0.59789 0.0
C988 C 0.8778 0.84268 0.622 0.0
C989 C 0.86749 0.86199 0.67379 0.0
C990 C 0.89791 0.83791 0.60954 0.0
C991 C 0.90508 0.82032 0.60913 0.0
C992 C 0.89231 0.80693 0.62109 0.0
C993 C 0.87207 0.81169 0.63327 0.0
C994 C 0.86487 0.82926 0.63358 0.0
H995 H 0.86927 0.87191 0.69007 0.0
H996 H 0.85253 0.85404 0.67827 0.0
H997 H 0.88217 0.8532 0.67421 0.0
H998 H 0.90823 0.84787 0.60029 0.0
H999 H 0.92072 0.81723 0.59948 0.0
H1000 H 0.41402 0.94212 0.75646 0.0
H1001 H 0.40174 0.91145 0.75686 0.0
H1002 H 0.35101 0.92384 0.69879 0.0
H1003 H 0.36356 0.9544 0.69781 0.0
H1004 H 0.3636 0.89636 0.77114 0.0
H1005 H 0.37813 0.8817 0.66332 0.0
H1006 H 0.38831 0.90144 0.67912 0.0
H1007 H 0.35991 0.90004 0.6682 0.0
C1008 C 0.40035 0.93831 0.7436 0.0
C1009 C 0.38994 0.9508 0.72694 0.0
C1010 C 0.39327 0.92071 0.7439 0.0
C1011 C 0.37562 0.91506 0.72751 0.0
C1012 C 0.36503 0.92759 0.71111 0.0
H1013 H 0.30197 0.81635 0.75276 0.0
H1014 H 0.31414 0.84704 0.7518 0.0
C1015 C 0.37217 0.94517 0.71069 0.0
C1016 C 0.36804 0.89622 0.72809 0.0
H1017 H 0.3577 0.86042 0.68812 0.0
C1018 C 0.36239 0.88852 0.75295 0.0
C1019 C 0.36667 0.88571 0.70451 0.0
C1020 C 0.37379 0.89257 0.67732 0.0
C1021 C 0.35521 0.87091 0.75484 0.0
C1022 C 0.35306 0.8606 0.73114 0.0
C1023 C 0.35901 0.86823 0.70633 0.0
C1024 C 0.34531 0.84181 0.73163 0.0
C1025 C 0.35057 0.8634 0.78241 0.0
C1026 C 0.35826 0.82846 0.71988 0.0
C1027 C 0.35116 0.81088 0.72011 0.0
C1028 C 0.33086 0.80608 0.73206 0.0
C1029 C 0.31778 0.81946 0.74359 0.0
C1030 C 0.32484 0.83708 0.74322 0.0
H1031 H 0.35914 0.87097 0.79848 0.0
H1032 H 0.3325 0.86407 0.78646 0.0
H1033 H 0.35588 0.84947 0.78373 0.0
H1034 H 0.37405 0.83162 0.71067 0.0
H1035 H 0.36171 0.80102 0.71097 0.0
H1036 H 0.86409 0.30263 0.69596 0.0
H1037 H 0.87674 0.33325 0.69695 0.0
H1038 H 0.82269 0.34661 0.75002 0.0
H1039 H 0.81026 0.31606 0.74955 0.0
H1040 H 0.85789 0.36402 0.68204 0.0
H1041 H 0.87426 0.3663 0.79171 0.0
H1042 H 0.86884 0.34602 0.77411 0.0
H1043 H 0.84629 0.3601 0.78405 0.0
C1044 C 0.85488 0.31208 0.70784 0.0
C1045 C 0.83621 0.30675 0.72282 0.0
C1046 C 0.86215 0.32964 0.7084 0.0
C1047 C 0.85102 0.34233 0.72402 0.0
C1048 C 0.83202 0.3371 0.73838 0.0
H1049 H 0.8639 0.45672 0.70772 0.0
H1050 H 0.85203 0.42602 0.70569 0.0
C1051 C 0.8248 0.31957 0.73792 0.0
C1052 C 0.85911 0.36099 0.72513 0.0
H1053 H 0.87493 0.39367 0.76859 0.0
C1054 C 0.86167 0.37046 0.70099 0.0
C1055 C 0.86448 0.36948 0.74975 0.0
C1056 C 0.86356 0.35991 0.77635 0.0
C1057 C 0.86893 0.38809 0.70081 0.0
C1058 C 0.87341 0.39679 0.72552 0.0
C1059 C 0.87129 0.38721 0.74961 0.0
C1060 C 0.88057 0.4157 0.72685 0.0
C1061 C 0.87216 0.39709 0.67402 0.0
C1062 C 0.90026 0.42046 0.74017 0.0
C1063 C 0.90699 0.43811 0.74162 0.0
C1064 C 0.89417 0.45154 0.72988 0.0
C1065 C 0.87433 0.44678 0.71682 0.0
C1066 C 0.86758 0.42913 0.71546 0.0
H1067 H 0.87453 0.38744 0.65745 0.0
H1068 H 0.85721 0.40498 0.66927 0.0
H1069 H 0.8867 0.40602 0.67447 0.0
H1070 H 0.91059 0.41046 0.74929 0.0
H1071 H 0.92233 0.44121 0.75189 0.0
H1072 H 0.61129 0.55196 0.45858 0.0
H1073 H 0.59893 0.58257 0.4588 0.0
H1074 H 0.65611 0.59705 0.50582 0.0
H1075 H 0.66841 0.56635 0.50602 0.0
H1076 H 0.61867 0.61281 0.52507 0.0
H1077 H 0.62312 0.62291 0.41468 0.0
H1078 H 0.60592 0.6047 0.42412 0.0
H1079 H 0.63519 0.60401 0.43099 0.0
C1080 C 0.62132 0.56163 0.46892 0.0
C1081 C 0.64096 0.55658 0.48217 0.0
C1082 C 0.61427 0.57924 0.46888 0.0
C1083 C 0.62672 0.59236 0.48191 0.0
C1084 C 0.64619 0.5873 0.49547 0.0
H1085 H 0.61148 0.70593 0.45867 0.0
H1086 H 0.62406 0.67534 0.45924 0.0
C1087 C 0.65326 0.56968 0.49553 0.0
C1088 C 0.6193 0.61123 0.48177 0.0
H1089 H 0.6055 0.64542 0.4401 0.0
C1090 C 0.61585 0.61992 0.50646 0.0
C1091 C 0.61585 0.62076 0.45757 0.0
C1092 C 0.62041 0.6127 0.43033 0.0
C1093 C 0.60875 0.63759 0.50761 0.0
C1094 C 0.60457 0.64693 0.4834 0.0
C1095 C 0.6084 0.63833 0.45872 0.0
C1096 C 0.59668 0.66569 0.4832 0.0
C1097 C 0.60627 0.6462 0.53485 0.0
C1098 C 0.57686 0.67066 0.49615 0.0
C1099 C 0.56962 0.68823 0.4959 0.0
C1100 C 0.58191 0.70133 0.48252 0.0
C1101 C 0.60157 0.69628 0.46926 0.0
C1102 C 0.6088 0.67872 0.46953 0.0
H1103 H 0.61591 0.63917 0.55058 0.0
H1104 H 0.61181 0.66009 0.53428 0.0
H1105 H 0.58857 0.64594 0.54089 0.0
H1106 H 0.56683 0.66091 0.5063 0.0
H1107 H 0.55433 0.69153 0.50618 0.0
H1108 H 0.1684 0.0676 0.5067 0.0
H1109 H 0.15477 0.09791 0.50717 0.0
H1110 H 0.09835 0.08237 0.45959 0.0
H1111 H 0.11208 0.0521 0.45867 0.0
H1112 H 0.11582 0.11271 0.44086 0.0
H1113 H 0.10486 0.11855 0.55131 0.0
H1114 H 0.13248 0.11241 0.54174 0.0
H1115 H 0.10979 0.09775 0.53491 0.0
C1116 C 0.15304 0.07058 0.4964 0.0
C1117 C 0.14133 0.05727 0.48275 0.0
C1118 C 0.14514 0.08797 0.49684 0.0
C1119 C 0.12523 0.09255 0.48383 0.0
C1120 C 0.11366 0.0793 0.46994 0.0
H1121 H 0.05108 0.19089 0.50738 0.0
H1122 H 0.06391 0.16032 0.50692 0.0
C1123 C 0.12155 0.06191 0.46946 0.0
C1124 C 0.11671 0.11114 0.48415 0.0
H1125 H 0.10157 0.14495 0.526 0.0
C1126 C 0.11268 0.11971 0.45952 0.0
C1127 C 0.11219 0.12036 0.50841 0.0
C1128 C 0.11483 0.11176 0.5356 0.0
C1129 C 0.10475 0.13715 0.45846 0.0
C1130 C 0.101 0.14659 0.48271 0.0
C1131 C 0.10462 0.13791 0.50735 0.0
C1132 C 0.0932 0.16537 0.48294 0.0
C1133 C 0.10001 0.14516 0.43126 0.0
C1134 C 0.10541 0.17865 0.46996 0.0
C1135 C 0.09806 0.19618 0.47014 0.0
C1136 C 0.07835 0.201 0.4835 0.0
C1137 C 0.06628 0.18774 0.49679 0.0
C1138 C 0.07364 0.17019 0.49659 0.0
H1139 H 0.0975 0.13493 0.41559 0.0
H1140 H 0.08506 0.15366 0.43198 0.0
H1141 H 0.11434 0.15334 0.42503 0.0
H1142 H 0.1208 0.1755 0.45982 0.0
H1143 H 0.10794 0.20597 0.45985 0.0
H1144 H 0.6137 0.20593 0.39439 0.0
H1145 H 0.60041 0.17557 0.39387 0.0
H1146 H 0.65682 0.16026 0.34594 0.0
H1147 H 0.67003 0.19072 0.34598 0.0
H1148 H 0.61904 0.14534 0.32686 0.0
H1149 H 0.62325 0.1345 0.43707 0.0
H1150 H 0.60651 0.15306 0.42802 0.0
H1151 H 0.63578 0.15329 0.42102 0.0
C1152 C 0.62338 0.19612 0.38381 0.0
C1153 C 0.64307 0.20087 0.37036 0.0
C1154 C 0.6158 0.17866 0.38367 0.0
C1155 C 0.62774 0.16538 0.37028 0.0
C1156 C 0.64728 0.17014 0.35657 0.0
H1157 H 0.60985 0.05225 0.39277 0.0
H1158 H 0.6228 0.08268 0.39232 0.0
C1159 C 0.65487 0.18761 0.35667 0.0
C1160 C 0.61971 0.14667 0.37018 0.0
H1161 H 0.60486 0.11254 0.41142 0.0
C1162 C 0.61599 0.13819 0.34538 0.0
C1163 C 0.61595 0.13708 0.39426 0.0
C1164 C 0.62078 0.14486 0.4216 0.0
C1165 C 0.60838 0.12066 0.34401 0.0
C1166 C 0.60392 0.11126 0.3681 0.0
C1167 C 0.60796 0.11967 0.39288 0.0
C1168 C 0.59574 0.09258 0.36812 0.0
C1169 C 0.60572 0.11225 0.31666 0.0
C1170 C 0.57596 0.08778 0.35496 0.0
C1171 C 0.5685 0.07026 0.35512 0.0
C1172 C 0.58051 0.05707 0.36863 0.0
C1173 C 0.60013 0.06196 0.38209 0.0
C1174 C 0.60758 0.07944 0.38188 0.0
H1175 H 0.61553 0.11921 0.30101 0.0
H1176 H 0.61094 0.09826 0.31704 0.0
H1177 H 0.58803 0.11281 0.31066 0.0
H1178 H 0.56613 0.09762 0.34473 0.0
H1179 H 0.55326 0.06707 0.34469 0.0
H1180 H 0.11128 0.70493 0.39468 0.0
H1181 H 0.09887 0.67435 0.39413 0.0
H1182 H 0.15561 0.6601 0.34603 0.0
H1183 H 0.16797 0.69079 0.34614 0.0
H1184 H 0.11809 0.64451 0.32705 0.0
H1185 H 0.12309 0.63363 0.43719 0.0
H1186 H 0.10587 0.65195 0.42832 0.0
H1187 H 0.13509 0.65262 0.42108 0.0
C1188 C 0.12122 0.69532 0.38404 0.0
C1189 C 0.14075 0.70044 0.37057 0.0
C1190 C 0.11414 0.67772 0.38389 0.0
C1191 C 0.12644 0.66467 0.37046 0.0
C1192 C 0.14581 0.66979 0.3567 0.0
H1193 H 0.10999 0.55103 0.39243 0.0
H1194 H 0.12296 0.5815 0.39211 0.0
C1195 C 0.15291 0.6874 0.35682 0.0
C1196 C 0.11893 0.64581 0.37036 0.0
H1197 H 0.10499 0.61144 0.41162 0.0
C1198 C 0.11529 0.6373 0.34558 0.0
C1199 C 0.11551 0.63613 0.39444 0.0
C1200 C 0.1203 0.64396 0.42176 0.0
C1201 C 0.10801 0.61968 0.34422 0.0
C1202 C 0.10383 0.6102 0.36831 0.0
C1203 C 0.10787 0.61862 0.39309 0.0
C1204 C 0.09571 0.5915 0.36831 0.0
C1205 C 0.10535 0.61127 0.31687 0.0
C1206 C 0.07583 0.58675 0.35537 0.0
C1207 C 0.06836 0.56924 0.35547 0.0
C1208 C 0.08047 0.55597 0.3687 0.0
C1209 C 0.1002 0.5608 0.38196 0.0
C1210 C 0.10766 0.5783 0.38182 0.0
H1211 H 0.11505 0.6183 0.30119 0.0
H1212 H 0.11068 0.59732 0.31719 0.0
H1213 H 0.08763 0.61175 0.31093 0.0
H1214 H 0.06591 0.59662 0.34534 0.0
H1215 H 0.05303 0.56611 0.3452 0.0
H1216 H 0.29142 0.02681 0.2009 0.0
H1217 H 0.27399 0.02909 0.24588 0.0
H1218 H 0.24843 0.97661 0.23733 0.0
H1219 H 0.26594 0.97423 0.19312 0.0
H1220 H 0.23142 0.02823 0.26371 0.0
H1221 H 0.27275 0.97158 0.31138 0.0
H1222 H 0.28177 0.9803 0.27942 0.0
H1223 H 0.2586 0.96542 0.28108 0.0
C1224 C 0.28244 0.01563 0.20878 0.0
C1225 C 0.28053 1.00022 0.193 0.0
C1226 C 0.27223 0.01697 0.23467 0.0
C1227 C 0.25993 1.00291 0.24601 0.0
C1228 C 0.25813 0.98759 0.23012 0.0
H1229 H 0.18147 0.98413 0.39717 0.0
H1230 H 0.19914 0.98203 0.35236 0.0
C1231 C 0.26819 0.98628 0.2044 0.0
C1232 C 0.24841 0.00428 0.27368 0.0
H1233 H 0.24139 0.98312 0.33465 0.0
C1234 C 0.23386 0.01838 0.27919 0.0
C1235 C 0.251 0.99153 0.2945 0.0
C1236 C 0.26703 0.97645 0.29146 0.0
C1237 C 0.2218 0.01983 0.30387 0.0
C1238 C 0.22439 0.00707 0.3247 0.0
C1239 C 0.23895 0.99298 0.31919 0.0
C1240 C 0.21275 0.00836 0.35231 0.0
C1241 C 0.20573 0.03488 0.30687 0.0
C1242 C 0.2142 0.02369 0.36823 0.0
C1243 C 0.20399 0.0249 0.39389 0.0
C1244 C 0.19189 0.0108 0.40522 0.0
C1245 C 0.19034 0.99539 0.38941 0.0
C1246 C 0.20066 0.99417 0.36359 0.0
H1247 H 0.20002 0.03974 0.28694 0.0
H1248 H 0.19098 0.03101 0.31888 0.0
H1249 H 0.21412 0.04594 0.31725 0.0
H1250 H 0.22374 0.03479 0.36109 0.0
H1251 H 0.20597 0.03697 0.40518 0.0
H1252 H 0.0151 0.22313 0.40725 0.0
H1253 H -0.00204 0.22559 0.3628 0.0
H1254 H 0.02192 0.27867 0.35612 0.0
H1255 H 0.03949 0.2761 0.4008 0.0
H1256 H 0.96565 0.24434 0.3427 0.0
H1257 H 0.03944 0.26252 0.28289 0.0
H1258 H 0.04153 0.25516 0.31732 0.0
H1259 H 0.03407 0.27755 0.30997 0.0
C1260 C 0.01706 0.23534 0.39632 0.0
C1261 C 0.0291 0.24933 0.40809 0.0
C1262 C 0.00701 0.23677 0.3706 0.0
C1263 C 0.00853 0.25224 0.35506 0.0
C1264 C 0.02066 0.26631 0.36673 0.0
H1265 H 0.95617 0.28504 0.19532 0.0
H1266 H 0.97311 0.28268 0.23989 0.0
C1267 C 0.03078 0.26487 0.39263 0.0
C1268 C -0.00307 0.25355 0.32739 0.0
H1269 H 0.00485 0.26413 0.26045 0.0
C1270 C 0.97442 0.24861 0.32479 0.0
C1271 C 0.00779 0.25909 0.30333 0.0
C1272 C 0.03208 0.26372 0.30335 0.0
C1273 C 0.96269 0.24941 0.29982 0.0
C1274 C 0.97355 0.25493 0.27574 0.0
C1275 C -0.00393 0.25986 0.27835 0.0
C1276 C 0.96198 0.25622 0.24804 0.0
C1277 C 0.93838 0.24484 0.29986 0.0
C1278 C 0.94957 0.24224 0.23654 0.0
C1279 C 0.93951 0.24365 0.2106 0.0
C1280 C 0.94158 0.25905 0.19489 0.0
C1281 C 0.95391 0.27295 0.20647 0.0
C1282 C 0.96385 0.27157 0.23225 0.0
H1283 H 0.93102 0.24619 0.3203 0.0
H1284 H 0.92895 0.25333 0.28576 0.0
H1285 H 0.93634 0.23097 0.29347 0.0
H1286 H 0.94805 0.22996 0.24731 0.0
H1287 H 0.93059 0.23247 0.20258 0.0
H1288 H 0.19701 0.22199 0.95059 0.0
H1289 H 0.2154 0.22456 0.99428 0.0
H1290 H 0.19378 0.27833 1.0003 0.0
H1291 H 0.175 0.27567 0.95636 0.0
H1292 H 0.24912 0.24302 1.01204 0.0
H1293 H 0.17786 0.26335 0.07482 0.0
H1294 H 0.17444 0.25554 1.04075 0.0
H1295 H 0.18281 0.27787 1.04702 0.0
C1296 C 0.1958 0.23437 0.96126 0.0
C1297 C 0.18406 0.24853 0.94953 0.0
C1298 C 0.20658 0.23587 0.98651 0.0
C1299 C 0.20613 0.25158 1.00159 0.0
C1300 C 0.19424 0.2658 0.99002 0.0
H1301 H 0.26451 0.28491 0.15795 0.0
H1302 H 0.24607 0.2825 0.11426 0.0
C1303 C 0.18339 0.2643 0.96457 0.0
C1304 C 0.21864 0.25297 1.02862 0.0
H1305 H 0.21317 0.26439 0.09561 0.0
C1306 C 0.24107 0.24764 1.03025 0.0
C1307 C 0.20872 0.25898 0.05302 0.0
C1308 C 0.18459 0.26411 0.05401 0.0
C1309 C 0.25362 0.24848 0.05461 0.0
C1310 C 0.24368 0.25445 0.07905 0.0
C1311 C 0.22124 0.25978 0.0774 0.0
C1312 C 0.25617 0.25576 0.10613 0.0
C1313 C 0.27778 0.24348 0.05351 0.0
C1314 C 0.26852 0.24164 0.11729 0.0
C1315 C 0.27946 0.24308 0.14268 0.0
C1316 C 0.27835 0.25865 0.15816 0.0
C1317 C 0.26606 0.27269 0.14693 0.0
C1318 C 0.25525 0.27128 0.12168 0.0
H1319 H 0.28451 0.24453 1.03271 0.0
H1320 H 0.28788 0.25192 0.06699 0.0
H1321 H 0.27966 0.22963 0.06005 0.0
H1322 H 0.26933 0.22924 0.1067 0.0
H1323 H 0.2883 0.23181 0.15049 0.0
H1324 H 0.95964 0.9735 0.15613 0.0
H1325 H 0.97668 0.97609 0.11166 0.0
H1326 H 0.94395 0.02578 0.10007 0.0
H1327 H 0.92726 0.02341 0.14532 0.0
H1328 H 0.96439 0.97655 0.06208 0.0
H1329 H 0.00344 0.04141 0.0772 0.0
H1330 H -0.00954 0.02963 0.10447 0.0
H1331 H 0.97392 0.04213 0.08112 0.0
C1332 C 0.95595 0.98507 0.14427 0.0
C1333 C 0.9419 0.99824 0.15499 0.0
C1334 C 0.96585 0.98654 0.11844 0.0
C1335 C 0.96239 1.00133 0.1018 0.0
C1336 C 0.94783 0.01437 0.11217 0.0
H1337 H 0.00923 0.03168 0.93796 0.0
H1338 H -0.00797 0.02943 0.98249 0.0
C1339 C 0.93789 0.01291 0.13822 0.0
C1340 C 0.97381 1.00268 0.07393 0.0
H1341 H 0.0052 0.02967 1.033 0.0
C1342 C 0.97337 0.98822 0.056 0.0
C1343 C 0.98585 0.01774 0.06505 0.0
C1344 C -0.01131 0.03354 0.08303 0.0
C1345 C 0.98382 0.98846 1.03013 0.0
C1346 C -0.00418 1.00352 1.02125 0.0
C1347 C -0.00376 0.018 1.03913 0.0
C1348 C 0.00734 0.00477 0.99346 0.0
C1349 C 0.98118 0.97261 1.01219 0.0
C1350 C 0.02249 0.99195 0.98378 0.0
C1351 C 0.03259 0.99325 0.95782 0.0
C1352 C 0.02806 0.0075 0.94039 0.0
C1353 C 0.01332 0.02044 0.95037 0.0
C1354 C 0.00334 0.01917 0.9762 0.0
H1355 H 0.96657 0.9646 1.01808 0.0
H1356 H 0.9793 0.97651 0.99075 0.0
H1357 H -0.0039 0.96419 1.01401 0.0
H1358 H 0.02671 0.98085 0.99637 0.0
H1359 H 0.04375 0.98295 0.9513 0.0
H1360 H 0.70871 0.03487 0.90678 0.0
H1361 H 0.7263 0.03265 0.86249 0.0
H1362 H 0.70033 0.98032 0.85343 0.0
H1363 H 0.68224 0.98268 0.89785 0.0
H1364 H 0.75798 0.01377 0.842 0.0
H1365 H 0.68445 0.99753 0.78062 0.0
H1366 H 0.68214 0.00441 0.81528 0.0
H1367 H 0.68904 0.982 0.80718 0.0
C1368 C 0.7064 0.02289 0.89533 0.0
C1369 C 0.69362 0.00906 0.90634 0.0
C1370 C 0.71671 0.0216 0.86972 0.0
C1371 C 0.71476 0.0064 0.85355 0.0
C1372 C 0.70193 0.99249 0.86451 0.0
H1373 H 0.76872 0.97374 0.69447 0.0
H1374 H 0.7512 0.97617 0.73874 0.0
C1375 C 0.69151 0.99381 0.89026 0.0
C1376 C 0.72665 0.0052 0.82601 0.0
H1377 H 0.71929 0.99529 0.75872 0.0
C1378 C 0.74932 0.00979 0.82386 0.0
C1379 C 0.71593 1.00006 0.80165 0.0
C1380 C 0.69151 0.99589 0.80114 0.0
C1381 C 0.76132 0.00903 0.79905 0.0
C1382 C 0.75061 0.00385 0.77471 0.0
C1383 C 0.72795 0.99928 0.77685 0.0
C1384 C 0.76251 1.00254 0.7472 0.0
C1385 C 0.78572 0.01325 0.79952 0.0
C1386 C 0.77521 0.01645 0.73599 0.0
C1387 C 0.78557 0.01502 0.7102 0.0
C1388 C 0.78355 0.99965 0.69438 0.0
C1389 C 0.77095 0.98581 0.70569 0.0
C1390 C 0.76068 0.98723 0.7313 0.0
H1391 H 0.7928 0.01177 0.82006 0.0
H1392 H 0.79513 0.00465 0.78551 0.0
H1393 H 0.78815 0.0271 0.79322 0.0
H1394 H 0.77675 0.0287 0.74689 0.0
H1395 H 0.79472 0.02614 0.70239 0.0
H1396 H 0.01811 0.72247 0.90706 0.0
H1397 H 0.00054 0.7249 0.86284 0.0
H1398 H 0.02594 0.77748 0.85479 0.0
H1399 H 0.04396 0.77492 0.89918 0.0
H1400 H 0.96859 0.74396 0.84296 0.0
H1401 H 0.04206 0.76064 0.78158 0.0
H1402 H 0.0444 0.7535 0.81609 0.0
H1403 H 0.03742 0.77596 0.80847 0.0
C1404 C 0.0203 0.73455 0.89585 0.0
C1405 C 0.03289 0.7484 0.90713 0.0
C1406 C 0.01001 0.73596 0.87028 0.0
C1407 C 0.01179 0.75129 0.85443 0.0
C1408 C 0.02446 0.76521 0.86563 0.0
H1409 H 0.95778 0.78441 0.69578 0.0
H1410 H 0.97534 0.7819 0.73997 0.0
C1411 C 0.03485 0.76378 0.89136 0.0
C1412 C -0.00011 0.75262 0.82697 0.0
H1413 H 0.00721 0.7628 0.75978 0.0
C1414 C 0.97723 0.74802 0.82484 0.0
C1415 C 0.01059 0.75788 0.80265 0.0
C1416 C 0.03499 0.76211 0.80214 0.0
C1417 C 0.96522 0.74888 0.80009 0.0
C1418 C 0.97591 0.75415 0.77577 0.0
C1419 C -0.00143 0.75874 0.7779 0.0
C1420 C 0.964 0.75552 0.74831 0.0
C1421 C 0.94081 0.74465 0.8006 0.0
C1422 C 0.95128 0.74164 0.73708 0.0
C1423 C 0.94089 0.74312 0.71135 0.0
C1424 C 0.9429 0.75852 0.69563 0.0
C1425 C 0.95555 0.77233 0.70695 0.0
C1426 C 0.96584 0.77086 0.73251 0.0
H1427 H 0.93375 0.7461 0.82117 0.0
H1428 H 0.9314 0.75328 0.78667 0.0
H1429 H 0.93838 0.73082 0.79424 0.0
H1430 H 0.94975 0.72937 0.74789 0.0
H1431 H 0.93171 0.73202 0.70351 0.0
H1432 H 0.68124 0.77479 0.95399 0.0
H1433 H 0.69942 0.77695 0.99851 0.0
H1434 H 0.7241 0.72421 0.98948 0.0
H1435 H 0.7064 0.72214 0.94537 0.0
H1436 H 0.69687 0.76002 1.04681 0.0
H1437 H 0.78125 0.74725 1.00845 0.0
H1438 H 0.75825 0.75145 0.98619 0.0
H1439 H 0.76245 0.72986 1.00011 0.0
C1440 C 0.69042 0.7636 0.96152 0.0
C1441 C 0.69221 0.74828 0.9455 0.0
C1442 C 0.701 0.76485 0.98718 0.0
C1443 C 0.71398 0.75093 0.99779 0.0
C1444 C 0.71506 0.7355 0.98207 0.0
H1445 H 0.79271 0.73141 0.14866 0.0
H1446 H 0.77446 0.7293 0.10418 0.0
C1447 C 0.70457 0.73425 0.95662 0.0
C1448 C 0.72611 0.75228 1.02507 0.0
H1449 H 0.7768 0.74618 0.05609 0.0
C1450 C 0.7144 0.75711 1.04859 0.0
C1451 C 0.74912 0.74844 1.02834 0.0
C1452 C 0.76357 0.74413 1.00441 0.0
C1453 C 0.72455 0.75776 0.07457 0.0
C1454 C 0.74756 0.75392 0.07784 0.0
C1455 C 0.75927 0.7491 0.05432 0.0
C1456 C 0.75969 0.75524 0.10513 0.0
C1457 C 0.71008 0.76204 0.0985 0.0
C1458 C 0.75852 0.77062 0.12098 0.0
C1459 C 0.76903 0.77183 0.14643 0.0
C1460 C 0.78153 0.75783 0.15739 0.0
C1461 C 0.78342 0.74258 0.14125 0.0
C1462 C 0.7728 0.74136 0.1156 0.0
H1463 H 0.69242 0.75888 0.09446 0.0
H1464 H 0.71543 0.75474 0.11673 0.0
H1465 H 0.71114 0.77632 0.10278 0.0
H1466 H 0.7494 0.78189 0.11368 0.0
H1467 H 0.76713 0.7839 0.15778 0.0
H1468 H 0.16884 0.51436 0.89143 0.0
H1469 H 0.18411 0.51435 0.84501 0.0
H1470 H 0.24449 0.49118 0.87447 0.0
H1471 H 0.22935 0.49067 0.91979 0.0
H1472 H 0.21906 0.529 0.81836 0.0
H1473 H 0.23363 0.45763 0.81512 0.0
H1474 H 0.2179 0.46776 0.84182 0.0
H1475 H 0.24777 0.46732 0.84315 0.0
C1476 C 0.18531 0.50915 0.888 0.0
C1477 C 0.19757 0.50239 0.90995 0.0
C1478 C 0.19418 0.50918 0.86122 0.0
C1479 C 0.21557 0.50235 0.85533 0.0
C1480 C 0.2278 0.49603 0.87748 0.0
H1481 H 0.29445 0.5219 0.70306 0.0
H1482 H 0.27806 0.52404 0.7485 0.0
C1483 C 0.21901 0.49591 0.90388 0.0
C1484 C 0.2254 0.50174 0.82661 0.0
H1485 H 0.25245 0.47452 0.78175 0.0
C1486 C 0.22621 0.517 0.81042 0.0
C1487 C 0.23471 0.48619 0.81521 0.0
C1488 C 0.23327 0.46877 0.8296 0.0
C1489 C 0.23619 0.51723 0.78423 0.0
C1490 C 0.24641 0.50183 0.77339 0.0
C1491 C 0.24517 0.48653 0.78945 0.0
C1492 C 0.25735 0.50084 0.74522 0.0
C1493 C 0.23501 0.534 0.76818 0.0
C1494 C 0.25247 0.48679 0.7276 0.0
C1495 C 0.26227 0.48538 0.70174 0.0
C1496 C 0.27755 0.49792 0.69188 0.0
C1497 C 0.28283 0.51191 0.7095 0.0
C1498 C 0.27306 0.51327 0.73566 0.0
H1499 H 0.22121 0.54254 0.77515 0.0
H1500 H 0.25068 0.54141 0.77085 0.0
H1501 H 0.23271 0.53128 0.74638 0.0
H1502 H 0.24066 0.47684 0.73367 0.0
H1503 H 0.25754 0.47435 0.6892 0.0
H1504 H 0.20574 0.72225 0.44601 0.0
H1505 H 0.22348 0.72461 0.49013 0.0
H1506 H 0.19746 0.77697 0.49901 0.0
H1507 H 0.17925 0.77447 0.45472 0.0
H1508 H 0.25529 0.7439 0.50988 0.0
H1509 H 0.18191 0.75962 0.57209 0.0
H1510 H 0.17949 0.75261 0.5375 0.0
H1511 H 0.18615 0.7751 0.54536 0.0
C1512 C 0.20345 0.73425 0.45739 0.0
C1513 C 0.19063 0.74807 0.44638 0.0
C1514 C 0.21384 0.73564 0.48289 0.0
C1515 C 0.21193 0.75089 0.49891 0.0
C1516 C 0.19903 0.76477 0.488 0.0
H1517 H 0.2664 0.78384 0.65729 0.0
H1518 H 0.2487 0.78138 0.61318 0.0
C1519 C 0.18854 0.76337 0.46234 0.0
C1520 C 0.22396 0.7522 0.52627 0.0
H1521 H 0.21685 0.76201 0.59362 0.0
C1522 C 0.24669 0.74779 0.52812 0.0
C1523 C 0.2133 0.75725 0.55072 0.0
C1524 C 0.18884 0.76125 0.55149 0.0
C1525 C 0.25883 0.74865 0.55277 0.0
C1526 C 0.24818 0.75371 0.57723 0.0
C1527 C 0.22544 0.75811 0.57538 0.0
C1528 C 0.26021 0.75507 0.60457 0.0
C1529 C 0.2833 0.74463 0.55203 0.0
C1530 C 0.27308 0.74121 0.61558 0.0
C1531 C 0.28355 0.74266 0.64125 0.0
C1532 C 0.28146 0.758 0.65712 0.0
C1533 C 0.26869 0.7718 0.646 0.0
C1534 C 0.25832 0.77036 0.62049 0.0
H1535 H 0.29023 0.7462 0.53141 0.0
H1536 H 0.29265 0.7533 0.56596 0.0
H1537 H 0.28597 0.7308 0.55825 0.0
H1538 H 0.27466 0.72898 0.60464 0.0
H1539 H 0.29282 0.73157 0.64896 0.0
H1540 H 0.01754 0.53468 0.4451 0.0
H1541 H 0.00027 0.5325 0.48954 0.0
H1542 H 0.02365 0.47926 0.49666 0.0
H1543 H 0.0414 0.48157 0.45203 0.0
H1544 H 0.96774 0.51415 0.5095 0.0
H1545 H 0.04092 0.49536 0.56984 0.0
H1546 H 0.04331 0.5026 0.53537 0.0
H1547 H 0.03551 0.4803 0.54285 0.0
C1548 C 0.01936 0.52251 0.45616 0.0
C1549 C 0.03129 0.50839 0.44454 0.0
C1550 C 0.00924 0.52123 0.48185 0.0
C1551 C 0.01054 0.50579 0.49748 0.0
C1552 C 0.02257 0.4916 0.48597 0.0
H1553 H 0.95622 0.47333 0.65625 0.0
H1554 H 0.97353 0.47558 0.61185 0.0
C1555 C 0.0328 0.49289 0.46011 0.0
C1556 C -0.00122 0.50464 0.52505 0.0
H1557 H 0.00614 0.494 0.59203 0.0
C1558 C 0.97633 0.5098 0.52748 0.0
C1559 C 0.00943 0.49901 0.54918 0.0
C1560 C 0.03366 0.49416 0.54935 0.0
C1561 C 0.96445 0.50915 0.55236 0.0
C1562 C 0.9751 0.50351 0.57648 0.0
C1563 C -0.00245 0.49835 0.57406 0.0
C1564 C 0.96333 0.50233 0.60404 0.0
C1565 C 0.94022 0.51401 0.55221 0.0
C1566 C 0.95133 0.51651 0.61562 0.0
C1567 C 0.94109 0.51518 0.64147 0.0
C1568 C 0.94254 0.49964 0.65695 0.0
C1569 C 0.95444 0.48553 0.64527 0.0
C1570 C 0.96459 0.48685 0.61959 0.0
H1571 H 0.93297 0.51285 0.53171 0.0
H1572 H 0.93057 0.50555 0.56615 0.0
H1573 H 0.93839 0.52786 0.55878 0.0
H1574 H 0.95028 0.52887 0.60498 0.0
H1575 H 0.93251 0.5265 0.6496 0.0
H1576 H 0.76659 0.47272 0.19465 0.0
H1577 H 0.74862 0.47534 0.23862 0.0
H1578 H 0.77277 0.52835 0.2458 0.0
H1579 H 0.79043 0.52586 0.20111 0.0
H1580 H 0.76043 0.47942 0.28847 0.0
H1581 H 0.71028 0.53825 0.26533 0.0
H1582 H 0.72566 0.5267 0.23968 0.0
H1583 H 0.73945 0.54204 0.26164 0.0
C1584 C 0.76821 0.48501 0.20547 0.0
C1585 C 0.78015 0.49907 0.19373 0.0
C1586 C 0.75778 0.4865 0.23097 0.0
C1587 C 0.75855 0.50218 0.24614 0.0
C1588 C 0.77102 0.51616 0.23478 0.0
H1589 H 0.70422 0.53493 0.40495 0.0
H1590 H 0.72202 0.53242 0.36085 0.0
C1591 C 0.78152 0.51467 0.20909 0.0
C1592 C 0.74651 0.50354 0.27354 0.0
H1593 H 0.70974 0.52852 0.31068 0.0
C1594 C 0.74929 0.49019 0.29307 0.0
C1595 C 0.73168 0.51743 0.28043 0.0
C1596 C 0.72637 0.53183 0.26061 0.0
C1597 C 0.73846 0.4905 0.31868 0.0
C1598 C 0.72365 0.50439 0.32557 0.0
C1599 C 0.72087 0.51775 0.30605 0.0
C1600 C 0.71164 0.50573 0.35298 0.0
C1601 C 0.74371 0.47608 0.33848 0.0
C1602 C 0.69895 0.49181 0.36415 0.0
C1603 C 0.68851 0.49326 0.38988 0.0
C1604 C 0.69019 0.50874 0.40548 0.0
C1605 C 0.70235 0.52274 0.39393 0.0
C1606 C 0.71269 0.52131 0.36836 0.0
H1607 H 0.75972 0.46957 0.33371 0.0
H1608 H 0.7445 0.48121 0.35941 0.0
H1609 H 0.73052 0.46594 0.33753 0.0
H1610 H 0.69701 0.47971 0.35297 0.0
H1611 H 0.67944 0.48211 0.39773 0.0
H1612 H 0.68297 0.27471 0.45357 0.0
H1613 H 0.70173 0.27725 0.49767 0.0
H1614 H 0.72847 0.22522 0.48774 0.0
H1615 H 0.7102 0.22279 0.444 0.0
H1616 H 0.70065 0.26039 0.5459 0.0
H1617 H 0.7849 0.24944 0.50591 0.0
H1618 H 0.76147 0.25307 0.48409 0.0
H1619 H 0.76665 0.23161 0.498 0.0
C1620 C 0.69273 0.26375 0.4608 0.0
C1621 C 0.6949 0.24854 0.44463 0.0
C1622 C 0.70365 0.26523 0.48624 0.0
C1623 C 0.71737 0.25164 0.4965 0.0
C1624 C 0.71886 0.23628 0.48061 0.0
H1625 H 0.79896 0.23384 0.6457 0.0
H1626 H 0.78021 0.23144 0.60159 0.0
C1627 C 0.70804 0.23482 0.45537 0.0
C1628 C 0.72983 0.25325 0.52357 0.0
H1629 H 0.78113 0.24829 0.55363 0.0
C1630 C 0.71829 0.25786 0.54733 0.0
C1631 C 0.75301 0.24991 0.52642 0.0
C1632 C 0.7673 0.24591 0.50223 0.0
C1633 C 0.72876 0.25876 0.57312 0.0
C1634 C 0.75194 0.25542 0.57597 0.0
C1635 C 0.76349 0.25083 0.55221 0.0
C1636 C 0.7644 0.25698 0.60306 0.0
C1637 C 0.71446 0.26274 0.59731 0.0
C1638 C 0.76284 0.27226 0.61912 0.0
C1639 C 0.77366 0.27364 0.64438 0.0
C1640 C 0.78687 0.25992 0.65496 0.0
C1641 C 0.78913 0.24479 0.6386 0.0
C1642 C 0.77821 0.2434 0.61316 0.0
H1643 H 0.69686 0.25919 0.59362 0.0
H1644 H 0.72029 0.25557 0.61544 0.0
H1645 H 0.71508 0.27704 0.60156 0.0
H1646 H 0.75318 0.28332 0.61212 0.0
H1647 H 0.77143 0.2856 0.6559 0.0
H1648 H 0.54266 0.27487 0.89868 0.0
H1649 H 0.52467 0.27715 0.85407 0.0
H1650 H 0.49951 0.22457 0.86283 0.0
H1651 H 0.51704 0.22238 0.90703 0.0
H1652 H 0.52726 0.26025 0.80571 0.0
H1653 H 0.44263 0.24789 0.84345 0.0
H1654 H 0.46556 0.25196 0.86588 0.0
H1655 H 0.46126 0.2304 0.85184 0.0
C1656 C 0.53341 0.26374 0.89108 0.0
C1657 C 0.53145 0.24844 0.90705 0.0
C1658 C 0.52294 0.26506 0.86535 0.0
C1659 C 0.50988 0.25122 0.85461 0.0
C1660 C 0.50861 0.2358 0.87031 0.0
H1661 H 0.43143 0.23223 0.70325 0.0
H1662 H 0.44958 0.23001 0.74777 0.0
C1663 C 0.519 0.23448 0.89583 0.0
C1664 C 0.49788 0.25265 0.82724 0.0
H1665 H 0.44729 0.24683 0.79583 0.0
C1666 C 0.50972 0.25743 0.8038 0.0
C1667 C 0.47485 0.24892 0.82378 0.0
C1668 C 0.46026 0.24468 0.84759 0.0
C1669 C 0.4997 0.25815 0.77775 0.0
C1670 C 0.47667 0.25443 0.77429 0.0
C1671 C 0.46482 0.24966 0.79773 0.0
C1672 C 0.46465 0.25582 0.74691 0.0
C1673 C 0.51431 0.26236 0.75394 0.0
C1674 C 0.46604 0.27117 0.73104 0.0
C1675 C 0.45559 0.27245 0.70556 0.0
C1676 C 0.44293 0.25855 0.69455 0.0
C1677 C 0.44086 0.24332 0.71068 0.0
C1678 C 0.45142 0.24203 0.73636 0.0
H1679 H 0.53192 0.25908 0.75808 0.0
H1680 H 0.50898 0.2551 0.73564 0.0
H1681 H 0.51339 0.27664 0.7497 0.0
H1682 H 0.47527 0.28238 0.73838 0.0
H1683 H 0.45763 0.2845 0.69425 0.0
H1684 H 0.42705 0.02418 0.64564 0.0
H1685 H 0.44507 0.02645 0.60102 0.0
H1686 H 0.47238 0.97463 0.61113 0.0
H1687 H 0.45428 0.97226 0.655 0.0
H1688 H 0.4878 0.02646 0.58412 0.0
H1689 H 0.4496 0.96839 0.53659 0.0
H1690 H 0.43974 0.97714 0.56818 0.0
H1691 H 0.46355 0.96286 0.5673 0.0
C1692 C 0.43655 0.01313 0.63818 0.0
C1693 C 0.43876 0.99791 0.6543 0.0
C1694 C 0.4471 0.01447 0.6125 0.0
C1695 C 0.46007 1.00059 0.60168 0.0
C1696 C 0.46217 0.98546 0.6179 0.0
H1697 H 0.54133 0.98281 0.45209 0.0
H1698 H 0.52323 0.9805 0.49665 0.0
C1699 C 0.45176 0.98415 0.64343 0.0
C1700 C 0.47198 1.00201 0.57423 0.0
H1701 H 0.48074 0.98058 0.51374 0.0
C1702 C 0.486 0.01643 0.56877 0.0
C1703 C 0.47023 0.98903 0.55357 0.0
C1704 C 0.45481 0.97358 0.55654 0.0
C1705 C 0.49833 0.01801 0.5443 0.0
C1706 C 0.49657 0.00504 0.52363 0.0
C1707 C 0.48255 0.99062 0.52909 0.0
C1708 C 0.50849 0.00646 0.49618 0.0
C1709 C 0.51379 0.03345 0.54139 0.0
C1710 C 0.50655 0.02165 0.48006 0.0
C1711 C 0.51703 0.023 0.45458 0.0
C1712 C 0.52992 0.00919 0.44363 0.0
C1713 C 0.53192 0.9939 0.45961 0.0
C1714 C 0.52133 0.99254 0.48527 0.0
H1715 H 0.51905 0.03857 0.56135 0.0
H1716 H 0.52884 0.02989 0.52969 0.0
H1717 H 0.50506 0.04421 0.53072 0.0
H1718 H 0.49643 0.03252 0.48689 0.0
H1719 H 0.51466 0.03495 0.44312 0.0
H1720 H 0.43039 0.7345 0.20434 0.0
H1721 H 0.44829 0.73229 0.24897 0.0
H1722 H 0.47625 0.78383 0.23829 0.0
H1723 H 0.45829 0.78612 0.19434 0.0
H1724 H 0.49101 0.73203 0.266 0.0
H1725 H 0.45321 0.79063 0.31273 0.0
H1726 H 0.44338 0.78177 0.28122 0.0
H1727 H 0.46736 0.79585 0.28199 0.0
C1728 C 0.44004 0.74549 0.21164 0.0
C1729 C 0.44246 0.7606 0.19533 0.0
C1730 C 0.45051 0.7442 0.23735 0.0
C1731 C 0.46361 0.75801 0.24804 0.0
C1732 C 0.46594 0.77304 0.23162 0.0
H1733 H 0.5438 0.77572 0.39847 0.0
H1734 H 0.52609 0.77807 0.35372 0.0
C1735 C 0.45562 0.77431 0.20604 0.0
C1736 C 0.47538 0.75663 0.27557 0.0
H1737 H 0.48396 0.7782 0.33597 0.0
C1738 C 0.48922 0.74213 0.28126 0.0
C1739 C 0.47365 0.7697 0.29611 0.0
C1740 C 0.45844 0.78528 0.29287 0.0
C1741 C 0.50137 0.74055 0.30583 0.0
C1742 C 0.4996 0.75359 0.32642 0.0
C1743 C 0.48577 0.7681 0.32071 0.0
C1744 C 0.51128 0.75215 0.35401 0.0
C1745 C 0.51668 0.72503 0.30895 0.0
C1746 C 0.50918 0.73696 0.37012 0.0
C1747 C 0.51944 0.73559 0.3957 0.0
C1748 C 0.53228 0.74936 0.4068 0.0
C1749 C 0.53444 0.76465 0.39084 0.0
C1750 C 0.52406 0.76604 0.36507 0.0
H1751 H 0.52209 0.71986 0.28904 0.0
H1752 H 0.53164 0.7285 0.32081 0.0
H1753 H 0.50776 0.71431 0.31951 0.0
H1754 H 0.49908 0.72612 0.3632 0.0
H1755 H 0.51695 0.72363 0.40712 0.0
H1756 H 0.47811 0.51885 0.16888 0.0
H1757 H 0.49445 0.51815 0.12406 0.0
H1758 H 0.43902 0.48789 0.09525 0.0
H1759 H 0.42222 0.48885 0.14071 0.0
H1760 H 0.51082 0.49413 0.09317 0.0
H1761 H 0.44123 0.52252 1.03523 0.0
H1762 H 0.44151 0.52233 0.07157 0.0
H1763 H 0.43394 0.50288 0.05311 0.0
C1764 C 0.46914 0.51203 0.15314 0.0
C1765 C 0.44859 0.50391 0.15907 0.0
C1766 C 0.4787 0.51161 0.12713 0.0
C1767 C 0.46827 0.50313 0.1053 0.0
C1768 C 0.4476 0.49495 0.11103 0.0
H1769 H 0.54805 0.48189 0.95381 0.0
H1770 H 0.52962 0.47907 0.99795 0.0
C1771 C 0.4379 0.49539 0.13734 0.0
C1772 C 0.47951 0.50283 0.07731 0.0
H1773 H 0.47202 0.51256 1.01 0.0
C1774 C 0.50214 0.49813 0.07507 0.0
C1775 C 0.46884 0.50822 0.05306 0.0
C1776 C 0.44512 0.51445 0.05326 0.0
C1777 C 0.51405 0.49866 1.0502 0.0
C1778 C 0.50329 0.50376 1.02586 0.0
C1779 C 0.48065 0.50847 1.02808 0.0
C1780 C 0.51527 0.50519 0.99841 0.0
C1781 C 0.53844 0.49436 0.05063 0.0
C1782 C 0.51353 0.52058 0.9827 0.0
C1783 C 0.52407 0.52216 0.95726 0.0
C1784 C 0.53688 0.50841 0.946 0.0
C1785 C 0.53878 0.49296 0.96163 0.0
C1786 C 0.52814 0.49137 0.98721 0.0
H1787 H 0.54554 0.49577 0.07117 0.0
H1788 H 0.54083 0.48053 1.04421 0.0
H1789 H 0.54786 0.50298 1.03669 0.0
H1790 H 0.50395 0.53159 0.99016 0.0
H1791 H 0.5219 0.53427 0.94615 0.0
H1792 H 0.34981 0.03303 1.03649 0.0
H1793 H 0.36104 0.03053 0.9892 0.0
H1794 H 0.32262 0.98317 0.98157 0.0
H1795 H 0.31143 0.9856 1.02931 0.0
H1796 H 0.38478 0.00576 0.96057 0.0
H1797 H 0.30101 0.00951 0.91547 0.0
H1798 H 0.30609 0.01489 0.95035 0.0
H1799 H 0.30442 0.99233 0.93988 0.0
C1800 C 0.3436 0.02203 1.0249 0.0
C1801 C 0.32952 0.00956 1.03737 0.0
C1802 C 0.35017 0.02058 0.9975 0.0
C1803 C 0.34271 0.00676 0.98082 0.0
C1804 C 0.32856 0.99424 0.9932 0.0
H1805 H 0.35909 0.98243 0.8058 0.0
H1806 H 0.34902 0.98346 0.85353 0.0
C1807 C 0.32218 0.99557 1.02086 0.0
C1808 C 0.35005 0.00555 0.95101 0.0
H1809 H 0.33071 0.0041 0.88561 0.0
C1810 C 0.37283 0.00543 0.94427 0.0
C1811 C 0.33491 0.00499 0.92901 0.0
C1812 C 0.31024 0.00558 0.93387 0.0
C1813 C 0.3807 0.00439 0.9171 0.0
C1814 C 0.36557 0.00419 0.89496 0.0
C1815 C 0.34274 0.0043 0.90181 0.0
C1816 C 0.37277 1.00343 0.86493 0.0
C1817 C 0.40536 1.0028 0.91273 0.0
C1818 C 0.38972 0.01422 0.85388 0.0
C1819 C 0.39587 0.0134 0.8261 0.0
C1820 C 0.38504 1.00201 0.80785 0.0
C1821 C 0.36802 0.9914 0.8188 0.0
C1822 C 0.36209 0.99205 0.8465 0.0
H1823 H 0.41374 0.99715 0.93068 0.0
H1824 H 0.40925 0.99438 0.89506 0.0
H1825 H 0.41245 0.01605 0.9093 0.0
H1826 H 0.39805 0.02368 0.86658 0.0
H1827 H 0.40882 0.02201 0.81881 0.0
H1828 H 0.87549 0.22482 1.03705 0.0
H1829 H 0.86462 0.22687 0.98961 0.0
H1830 H 0.90068 0.27538 0.98231 0.0
H1831 H 0.91155 0.27339 1.03016 0.0
H1832 H 0.83993 0.25018 0.96056 0.0
H1833 H 0.92408 0.25039 0.91615 0.0
H1834 H 0.9192 0.24494 0.95105 0.0
H1835 H 0.91938 0.2675 0.94039 0.0
C1836 C 0.88128 0.23598 1.0255 0.0
C1837 C 0.89463 0.24889 1.03812 0.0
C1838 C 0.87491 0.23716 0.99798 0.0
C1839 C 0.88183 0.25116 0.98131 0.0
C1840 C 0.89522 0.26414 0.99387 0.0
H1841 H 0.86479 0.27575 0.8063 0.0
H1842 H 0.87469 0.2748 0.85408 0.0
C1843 C 0.90142 0.26306 1.02162 0.0
C1844 C 0.87465 0.25213 0.95137 0.0
H1845 H 0.89429 0.25489 0.88611 0.0
C1846 C 0.85195 0.25118 0.94438 0.0
C1847 C 0.88986 0.25352 0.92947 0.0
C1848 C 0.9145 0.25399 0.93448 0.0
C1849 C 0.84421 0.25198 0.91714 0.0
C1850 C 0.85943 0.25308 0.8951 0.0
C1851 C 0.88217 0.25402 0.90219 0.0
C1852 C 0.85237 0.25371 0.86497 0.0
C1853 C 0.81951 0.25236 0.9126 0.0
C1854 C 0.8363 0.24224 0.85356 0.0
C1855 C 0.83022 0.24301 0.82574 0.0
C1856 C 0.84027 0.25502 0.80776 0.0
C1857 C 0.85645 0.26629 0.81907 0.0
C1858 C 0.86229 0.26568 0.8468 0.0
H1859 H 0.81057 0.25743 0.93059 0.0
H1860 H 0.81509 0.26069 0.89506 0.0
H1861 H 0.81354 0.2388 0.90885 0.0
H1862 H 0.8286 0.23232 0.86601 0.0
H1863 H 0.81796 0.23387 0.81821 0.0
H1864 H 0.35463 0.22742 0.30949 0.0
H1865 H 0.36726 0.22902 0.35602 0.0
H1866 H 0.32064 0.27064 0.37168 0.0
H1867 H 0.30878 0.26972 0.32403 0.0
H1868 H 0.35438 0.2778 0.40102 0.0
H1869 H 0.34318 0.20727 0.42014 0.0
H1870 H 0.36257 0.21026 0.39325 0.0
H1871 H 0.33414 0.21722 0.38917 0.0
C1872 C 0.34688 0.23697 0.32267 0.0
C1873 C 0.33038 0.24833 0.31237 0.0
C1874 C 0.35405 0.23773 0.34986 0.0
C1875 C 0.34464 0.24951 0.36872 0.0
C1876 C 0.32836 0.26118 0.35834 0.0
H1877 H 0.36505 0.2282 0.54357 0.0
H1878 H 0.35252 0.23016 0.49698 0.0
C1879 C 0.32144 0.26065 0.33078 0.0
C1880 C 0.352 0.24965 0.39868 0.0
H1881 H 0.36516 0.22268 0.45222 0.0
C1882 C 0.35654 0.26566 0.41211 0.0
C1883 C 0.35465 0.23407 0.41439 0.0
C1884 C 0.34814 0.21628 0.40359 0.0
C1885 C 0.36378 0.2665 0.43959 0.0
C1886 C 0.36763 0.25084 0.45479 0.0
C1887 C 0.36277 0.23488 0.44138 0.0
C1888 C 0.37552 0.25045 0.48459 0.0
C1889 C 0.36638 0.28441 0.45216 0.0
C1890 C 0.39297 0.2611 0.49481 0.0
C1891 C 0.39993 0.26027 0.52231 0.0
C1892 C 0.39021 0.2484 0.54077 0.0
C1893 C 0.37315 0.23758 0.53045 0.0
C1894 C 0.36593 0.23866 0.50329 0.0
H1895 H 0.35605 0.29437 0.44168 0.0
H1896 H 0.36165 0.2843 0.47378 0.0
H1897 H 0.38392 0.28862 0.45038 0.0
H1898 H 0.40167 0.26994 0.48145 0.0
H1899 H 0.41328 0.26872 0.52897 0.0
H1900 H 0.91118 0.98417 0.32022 0.0
H1901 H 0.89971 0.98231 0.36802 0.0
H1902 H 0.86162 0.02972 0.3589 0.0
H1903 H 0.87313 0.03169 0.3117 0.0
H1904 H 0.90487 0.00517 0.4132 0.0
H1905 H 0.81516 0.99814 0.39348 0.0
H1906 H 0.8357 0.99529 0.36736 0.0
H1907 H 0.8274 0.01697 0.37763 0.0
C1908 C 0.90032 0.9942 0.3283 0.0
C1909 C 0.89314 0.00804 0.31138 0.0
C1910 C 0.8937 0.99315 0.35595 0.0
C1911 C 0.87923 0.00568 0.36782 0.0
C1912 C 0.87227 0.01953 0.35088 0.0
H1913 H 0.81363 0.0215 0.52927 0.0
H1914 H 0.82508 0.02258 0.48151 0.0
C1915 C 0.8791 0.02071 0.32352 0.0
C1916 C 0.8717 0.0046 0.39762 0.0
H1917 H 0.82551 1.00326 0.43889 0.0
C1918 C 0.88748 0.00462 0.41863 0.0
C1919 C 0.849 0.00411 0.40568 0.0
C1920 C 0.83079 1.00346 0.38492 0.0
C1921 C 0.88145 0.00461 0.44654 0.0
C1922 C 0.8587 0.00385 0.45471 0.0
C1923 C 0.84293 0.00381 0.43359 0.0
C1924 C 0.85105 1.003 0.4846 0.0
C1925 C 0.89984 0.00624 0.46695 0.0
C1926 C 0.86091 0.99137 0.50334 0.0
C1927 C 0.85446 0.99091 0.53088 0.0
C1928 C 0.83741 1.00173 0.54131 0.0
C1929 C 0.82684 0.01292 0.52252 0.0
C1930 C 0.8335 0.01353 0.49486 0.0
H1931 H 0.91455 0.01291 0.45821 0.0
H1932 H 0.89443 0.01372 0.485 0.0
H1933 H 0.90515 0.99292 0.47331 0.0
H1934 H 0.8737 0.9824 0.49672 0.0
H1935 H 0.86299 0.98189 0.54419 0.0
H1936 H 0.66364 0.01922 0.07236 0.0
H1937 H 0.65177 0.02014 0.12002 0.0
H1938 H 0.60481 0.97883 0.1043 0.0
H1939 H 0.61744 0.97724 0.05772 0.0
H1940 H 0.61809 0.02754 0.14939 0.0
H1941 H 0.6284 0.95693 0.16853 0.0
H1942 H 0.63763 0.96679 0.13757 0.0
H1943 H 0.6091 0.96008 0.14163 0.0
C1944 C 0.65092 0.0102 0.0791 0.0
C1945 C 0.64187 0.99798 0.06063 0.0
C1946 C 0.64398 0.01074 0.10667 0.0
C1947 C 0.62758 0.99917 0.11705 0.0
C1948 C 0.61809 0.98747 0.09815 0.0
H1949 H 0.55902 0.01909 0.27749 0.0
H1950 H 0.57063 0.02014 0.22994 0.0
C1951 C 0.62527 0.9867 0.07093 0.0
C1952 C 0.62015 0.99937 0.14703 0.0
H1953 H 0.60661 0.97253 0.20064 0.0
C1954 C 0.61578 0.01542 0.16048 0.0
C1955 C 0.61728 0.98383 0.16277 0.0
C1956 C 0.62359 0.96598 0.15198 0.0
C1957 C 0.60851 0.01633 0.18797 0.0
C1958 C 0.60445 1.00071 0.20321 0.0
C1959 C 0.60915 0.98471 0.18979 0.0
C1960 C 0.59651 1.0004 0.23304 0.0
C1961 C 0.6061 0.03426 0.20052 0.0
C1962 C 0.60592 0.98852 0.25176 0.0
C1963 C 0.59868 0.98755 0.27895 0.0
C1964 C 0.58179 0.99856 0.28931 0.0
C1965 C 0.57224 0.0105 0.27083 0.0
C1966 C 0.57921 0.01123 0.24329 0.0
H1967 H 0.61654 0.04414 0.19001 0.0
H1968 H 0.5886 0.0386 0.19876 0.0
H1969 H 0.61081 0.03413 0.22213 0.0
H1970 H 0.6192 0.97988 0.24545 0.0
H1971 H 0.60664 0.97811 0.29208 0.0
H1972 H 0.06063 0.73794 0.07395 0.0
H1973 H 0.07203 0.73703 0.12176 0.0
H1974 H 0.11861 0.77876 0.10686 0.0
H1975 H 0.1064 0.78033 0.06016 0.0
H1976 H 0.10548 0.72989 0.1515 0.0
H1977 H 0.09403 0.80039 0.17084 0.0
H1978 H 0.08526 0.79048 0.13971 0.0
H1979 H 0.11365 0.79745 0.14417 0.0
C1980 C 0.07316 0.74704 0.08091 0.0
C1981 C 0.08222 0.75938 0.06264 0.0
C1982 C 0.07983 0.74651 0.10856 0.0
C1983 C 0.09597 0.75821 0.1192 0.0
C1984 C 0.10549 0.77002 0.1005 0.0
H1985 H 0.16329 0.73869 0.28019 0.0
H1986 H 0.15209 0.73759 0.23253 0.0
C1987 C 0.09857 0.77078 0.07321 0.0
C1988 C 0.10309 0.75804 0.14925 0.0
H1989 H 0.1158 0.78495 0.20309 0.0
C1990 C 0.10754 0.74202 0.16268 0.0
C1991 C 0.1056 0.7736 0.16508 0.0
C1992 C 0.09914 0.7914 0.1543 0.0
C1993 C 0.11456 0.74115 0.19024 0.0
C1994 C 0.11828 0.75679 0.20556 0.0
C1995 C 0.1135 0.77276 0.19217 0.0
C1996 C 0.12596 0.75714 0.23546 0.0
C1997 C 0.11706 0.72323 0.20275 0.0
C1998 C 0.11627 0.76895 0.25412 0.0
C1999 C 0.12329 0.76997 0.28137 0.0
C2000 C 0.14021 0.75907 0.29184 0.0
C2001 C 0.15003 0.74719 0.27342 0.0
C2002 C 0.1433 0.74643 0.24583 0.0
H2003 H 0.10681 0.71329 0.1921 0.0
H2004 H 0.13461 0.719 0.20114 0.0
H2005 H 0.11217 0.72331 0.22432 0.0
H2006 H 0.10295 0.7775 0.24771 0.0
H2007 H 0.11513 0.77935 0.29446 0.0
H2008 H 0.63771 0.78665 0.78484 0.0
H2009 H 0.62566 0.7852 0.73769 0.0
H2010 H 0.63444 0.72912 0.73835 0.0
H2011 H 0.64686 0.73059 0.78573 0.0
H2012 H 0.64654 0.77347 0.69009 0.0
H2013 H 0.57142 0.7331 0.70697 0.0
H2014 H 0.58584 0.74387 0.73425 0.0
H2015 H 0.59683 0.72406 0.71982 0.0
C2016 C 0.63721 0.77394 0.77508 0.0
C2017 C 0.64343 0.75877 0.78974 0.0
C2018 C 0.6302 0.77311 0.74776 0.0
C2019 C 0.62856 0.75702 0.7337 0.0
C2020 C 0.63496 0.74179 0.74822 0.0
H2021 H 0.5774 0.7317 0.56686 0.0
H2022 H 0.5906 0.73025 0.6139 0.0
C2023 C 0.64233 0.74265 0.77556 0.0
C2024 C 0.62058 0.75647 0.70408 0.0
H2025 H 0.57986 0.74028 0.66186 0.0
C2026 C 0.63191 0.76618 0.68412 0.0
C2027 C 0.60159 0.74692 0.69529 0.0
C2028 C 0.58803 0.73648 0.71513 0.0
C2029 C 0.62526 0.76644 0.65647 0.0
C2030 C 0.6058 0.75734 0.64771 0.0
C2031 C 0.59461 0.74745 0.6677 0.0
C2032 C 0.59687 0.75812 0.61838 0.0
C2033 C 0.63995 0.77605 0.6368 0.0
C2034 C 0.59498 0.77419 0.60422 0.0
C2035 C 0.58765 0.77497 0.57705 0.0
C2036 C 0.5812 0.75981 0.56256 0.0
C2037 C 0.58215 0.74375 0.57688 0.0
C2038 C 0.58981 0.74294 0.60412 0.0
H2039 H 0.65737 0.7765 0.644 0.0
H2040 H 0.63977 0.76978 0.6166 0.0
H2041 H 0.63413 0.78982 0.63487 0.0
H2042 H 0.59912 0.78638 0.6142 0.0
H2043 H 0.58703 0.78768 0.56729 0.0
H2044 H 0.09036 0.97006 0.78341 0.0
H2045 H 0.10234 0.97185 0.73622 0.0
H2046 H 0.08945 0.02744 0.7364 0.0
H2047 H 0.07711 0.02561 0.78379 0.0
H2048 H 0.08032 0.98272 0.68853 0.0
H2049 H 0.15299 0.02585 0.70528 0.0
H2050 H 0.13935 0.01444 0.73255 0.0
H2051 H 0.12705 0.03381 0.71835 0.0
C2052 C 0.08997 0.98273 0.77354 0.0
C2053 C 0.08268 0.99767 0.78804 0.0
C2054 C 0.09692 0.98375 0.74621 0.0
C2055 C 0.09737 0.99983 0.73203 0.0
C2056 C 0.08987 0.01481 0.7464 0.0
H2057 H 0.1471 0.02677 0.56531 0.0
H2058 H 0.13376 0.0278 0.61234 0.0
C2059 C 0.08259 0.01375 0.77375 0.0
C2060 C 0.1053 1.00063 0.70244 0.0
H2061 H 0.1451 0.0182 0.66023 0.0
C2062 C 0.09453 0.99051 0.68252 0.0
C2063 C 0.12374 0.01084 0.69366 0.0
C2064 C 0.13665 0.02178 0.7135 0.0
C2065 C 0.10121 0.99046 0.65488 0.0
C2066 C 0.12015 1.00022 0.64613 0.0
C2067 C 0.13077 0.01053 0.66609 0.0
C2068 C 0.12915 0.99973 0.61684 0.0
C2069 C 0.08709 0.98033 0.63522 0.0
C2070 C 0.132 0.98372 0.60273 0.0
C2071 C 0.13941 0.98317 0.57558 0.0
C2072 C 0.14498 0.99853 0.56109 0.0
C2073 C 0.14307 0.01457 0.57536 0.0
C2074 C 0.13533 0.01514 0.60259 0.0
H2075 H 0.0697 0.97928 0.64242 0.0
H2076 H 0.08695 0.98659 0.61502 0.0
H2077 H 0.09367 0.96678 0.63328 0.0
H2078 H 0.12856 0.9714 0.61274 0.0
H2079 H 0.14078 0.97049 0.56581 0.0
H2080 H 0.34752 0.53176 0.53612 0.0
H2081 H 0.35913 0.53 0.48889 0.0
H2082 H 0.32051 0.48295 0.47893 0.0
H2083 H 0.30892 0.48462 0.52662 0.0
H2084 H 0.38297 0.50563 0.45943 0.0
H2085 H 0.29961 0.51057 0.41356 0.0
H2086 H 0.30448 0.51536 0.44869 0.0
H2087 H 0.30264 0.49298 0.43736 0.0
C2088 C 0.34133 0.52098 0.52404 0.0
C2089 C 0.32705 0.50838 0.53586 0.0
C2090 C 0.34813 0.51997 0.49665 0.0
C2091 C 0.34074 0.50646 0.47932 0.0
C2092 C 0.32641 0.4938 0.49106 0.0
H2093 H 0.35876 0.48434 0.30372 0.0
H2094 H 0.3481 0.48493 0.35129 0.0
C2095 C 0.31978 0.49469 0.5187 0.0
C2096 C 0.3483 0.50572 0.44952 0.0
H2097 H 0.32946 0.50536 0.38384 0.0
C2098 C 0.37114 0.50561 0.443 0.0
C2099 C 0.33334 0.50559 0.42732 0.0
C2100 C 0.30865 0.50628 0.43191 0.0
C2101 C 0.3792 0.50497 0.41587 0.0
C2102 C 0.36424 0.50516 0.39355 0.0
C2103 C 0.34137 0.50526 0.40017 0.0
C2104 C 0.37167 0.5048 0.36355 0.0
C2105 C 0.40388 0.50336 0.41168 0.0
C2106 C 0.38868 0.51576 0.35302 0.0
C2107 C 0.39512 0.51524 0.3253 0.0
C2108 C 0.38458 0.50398 0.30661 0.0
C2109 C 0.36747 0.49323 0.31705 0.0
C2110 C 0.36121 0.49362 0.34466 0.0
H2111 H 0.41213 0.49748 0.42954 0.0
H2112 H 0.40784 0.49516 0.39381 0.0
H2113 H 0.41103 0.51664 0.40868 0.0
H2114 H 0.39687 0.52507 0.3661 0.0
H2115 H 0.40818 0.5239 0.31845 0.0
H2116 H 0.91512 0.769 0.52893 0.0
H2117 H 0.90372 0.77 0.48131 0.0
H2118 H 0.85438 0.73039 0.49701 0.0
H2119 H 0.86672 0.72863 0.54366 0.0
H2120 H 0.86707 0.72262 0.45248 0.0
H2121 H 0.85853 0.79427 0.44063 0.0
H2122 H 0.88631 0.78842 0.44962 0.0
H2123 H 0.86389 0.78442 0.47295 0.0
C2124 C 0.90176 0.76056 0.52229 0.0
C2125 C 0.89194 0.74879 0.54083 0.0
C2126 C 0.89492 0.76125 0.49472 0.0
C2127 C 0.87749 0.75057 0.48449 0.0
C2128 C 0.86778 0.7389 0.50329 0.0
H2129 H 0.81121 0.76894 0.32328 0.0
H2130 H 0.82296 0.77014 0.37095 0.0
C2131 C 0.8749 0.73795 0.5305 0.0
C2132 C 0.86971 0.75079 0.4546 0.0
H2133 H 0.85674 0.7774 0.4003 0.0
C2134 C 0.86478 0.73476 0.44143 0.0
C2135 C 0.866 0.76635 0.4391 0.0
C2136 C 0.86871 0.78433 0.45136 0.0
C2137 C 0.85672 0.73378 0.41441 0.0
C2138 C 0.85418 0.74925 0.39841 0.0
C2139 C 0.8588 0.76533 0.41161 0.0
C2140 C 0.84685 0.74891 0.36842 0.0
C2141 C 0.85012 0.71594 0.4039 0.0
C2142 C 0.85623 0.73697 0.34976 0.0
C2143 C 0.84912 0.73605 0.32255 0.0
C2144 C 0.83271 0.74741 0.312 0.0
C2145 C 0.82378 0.75986 0.33021 0.0
C2146 C 0.83065 0.76056 0.35779 0.0
H2147 H 0.84509 0.70706 0.42059 0.0
H2148 H 0.83615 0.71682 0.38944 0.0
H2149 H 0.86454 0.70979 0.39369 0.0
H2150 H 0.86937 0.72824 0.3561 0.0
H2151 H 0.85685 0.7264 0.30954 0.0
H2152 H 0.30908 0.76872 0.82359 0.0
H2153 H 0.32052 0.77009 0.87116 0.0
H2154 H 0.3686 0.7293 0.85659 0.0
H2155 H 0.3562 0.72721 0.80996 0.0
H2156 H 0.35587 0.72246 0.90145 0.0
H2157 H 0.36645 0.79407 0.9109 0.0
H2158 H 0.33848 0.78867 0.90216 0.0
H2159 H 0.36073 0.78384 0.87894 0.0
C2160 C 0.32216 0.76008 0.83047 0.0
C2161 C 0.3316 0.74789 0.81225 0.0
C2162 C 0.32903 0.76099 0.85801 0.0
C2163 C 0.34614 0.75011 0.86853 0.0
C2164 C 0.35546 0.73799 0.85007 0.0
H2165 H 0.41252 0.77005 1.02924 0.0
H2166 H 0.40085 0.77064 0.98153 0.0
C2167 C 0.34831 0.73683 0.82288 0.0
C2168 C 0.35396 0.75062 0.8984 0.0
H2169 H 0.36756 0.77781 0.95184 0.0
C2170 C 0.35846 0.73471 0.91211 0.0
C2171 C 0.35808 0.76634 0.91339 0.0
C2172 C 0.35593 0.78419 0.90053 0.0
C2173 C 0.36647 0.734 0.93917 0.0
C2174 C 0.36938 0.74966 0.95467 0.0
C2175 C 0.3652 0.76562 0.94094 0.0
C2176 C 0.37667 0.74967 0.98469 0.0
C2177 C 0.37263 0.71621 0.95025 0.0
C2178 C 0.36712 0.73809 1.00373 0.0
C2179 C 0.3742 0.73751 1.03098 0.0
C2180 C 0.39074 0.74887 1.04119 0.0
C2181 C 0.39983 0.76098 1.02258 0.0
C2182 C 0.39301 0.76133 0.99498 0.0
H2183 H 0.37748 0.70703 0.93385 0.0
H2184 H 0.3866 0.71708 0.96472 0.0
H2185 H 0.35805 0.71044 0.9606 0.0
H2186 H 0.35387 0.7294 0.99767 0.0
H2187 H 0.36635 0.72812 1.0443 0.0
H2188 H 0.88712 0.53688 0.81773 0.0
H2189 H 0.8745 0.53499 0.86447 0.0
H2190 H 0.88508 0.47904 0.86312 0.0
H2191 H 0.89866 0.48112 0.81642 0.0
H2192 H 0.8419 0.52261 0.88927 0.0
H2193 H 0.91159 0.4858 0.93405 0.0
H2194 H 0.9128 0.49424 0.90017 0.0
H2195 H 0.89874 0.47385 0.90718 0.0
C2196 C 0.88711 0.52413 0.82738 0.0
C2197 C 0.8943 0.50921 0.81276 0.0
C2198 C 0.87966 0.52302 0.85448 0.0
C2199 C 0.87887 0.5069 0.8686 0.0
C2200 C 0.88595 0.49188 0.85389 0.0
H2201 H 0.82554 0.48072 1.0345 0.0
H2202 H 0.83858 0.47913 0.98727 0.0
C2203 C 0.89368 0.49303 0.82672 0.0
C2204 C 0.86996 0.50606 0.89792 0.0
H2205 H 0.87988 0.48966 0.96184 0.0
C2206 C 0.85048 0.5154 0.90495 0.0
C2207 C 0.88054 0.49673 0.91935 0.0
C2208 C 0.90218 0.48724 0.91494 0.0
C2209 C 0.84155 0.51563 0.93162 0.0
C2210 C 0.85213 0.50635 0.95295 0.0
C2211 C 0.87139 0.49678 0.94601 0.0
C2212 C 0.84392 0.50707 0.98242 0.0
C2213 C 0.82044 0.52572 0.93661 0.0
C2214 C 0.84243 0.52317 0.99648 0.0
C2215 C 0.83511 0.52406 1.02364 0.0
C2216 C 0.82869 0.50893 1.03825 0.0
C2217 C 0.83003 0.49276 1.02426 0.0
C2218 C 0.83769 0.49184 0.99702 0.0
H2219 H 0.81105 0.52794 0.91766 0.0
H2220 H 0.80956 0.51871 0.95112 0.0
H2221 H 0.82458 0.53875 0.94529 0.0
H2222 H 0.84731 0.53521 0.98653 0.0
H2223 H 0.8346 0.53679 1.03335 0.0
H2224 H 0.5659 0.48338 0.78093 0.0
H2225 H 0.57678 0.48214 0.73294 0.0
H2226 H 0.62295 0.52437 0.74606 0.0
H2227 H 0.61284 0.52509 0.79368 0.0
H2228 H 0.57549 0.50124 0.68975 0.0
H2229 H 0.66515 0.49466 0.70784 0.0
H2230 H 0.64535 0.49344 0.73495 0.0
H2231 H 0.65485 0.51446 0.72273 0.0
C2232 C 0.57844 0.49238 0.77365 0.0
C2233 C 0.58853 0.50423 0.79189 0.0
C2234 C 0.58477 0.49167 0.74588 0.0
C2235 C 0.60149 0.50276 0.735 0.0
C2236 C 0.61083 0.515 0.75318 0.0
H2237 H 0.65932 0.52231 0.56991 0.0
H2238 H 0.64815 0.52399 0.61782 0.0
C2239 C 0.60472 0.51557 0.78082 0.0
C2240 C 0.60884 0.50185 0.70502 0.0
H2241 H 0.65461 0.50175 0.66285 0.0
C2242 C 0.59286 0.50122 0.68417 0.0
C2243 C 0.63152 0.50178 0.69653 0.0
C2244 C 0.65018 0.50093 0.71668 0.0
C2245 C 0.59865 0.50094 0.65618 0.0
C2246 C 0.62128 0.50114 0.64778 0.0
C2247 C 0.63726 0.50177 0.66854 0.0
C2248 C 0.62857 0.50017 0.6179 0.0
C2249 C 0.5802 0.50089 0.63571 0.0
C2250 C 0.62201 0.48613 0.60107 0.0
C2251 C 0.62863 0.48506 0.57363 0.0
C2252 C 0.64211 0.49802 0.56133 0.0
C2253 C 0.64892 0.51204 0.57814 0.0
C2254 C 0.64246 0.513 0.60585 0.0
H2255 H 0.56443 0.50586 0.64444 0.0
H2256 H 0.58453 0.50905 0.61793 0.0
H2257 H 0.57735 0.48724 0.62873 0.0
H2258 H 0.61183 0.47571 0.60924 0.0
H2259 H 0.62298 0.47394 0.5619 0.0
H2260 H 0.15871 0.23713 0.78097 0.0
H2261 H 0.14692 0.2361 0.7333 0.0
H2262 H 0.10194 0.27898 0.74797 0.0
H2263 H 0.11453 0.28066 0.79448 0.0
H2264 H 0.11306 0.22951 0.70391 0.0
H2265 H 0.12671 0.29958 0.68342 0.0
H2266 H 0.13537 0.28972 0.71461 0.0
H2267 H 0.10719 0.29727 0.71034 0.0
C2268 C 0.14648 0.24648 0.77398 0.0
C2269 C 0.138 0.25917 0.79213 0.0
C2270 C 0.13958 0.24587 0.74641 0.0
C2271 C 0.12377 0.25784 0.73572 0.0
C2272 C 0.1148 0.27001 0.75433 0.0
H2273 H 0.05486 0.23883 0.57527 0.0
H2274 H 0.0663 0.23759 0.62287 0.0
C2275 C 0.12196 0.27083 0.78152 0.0
C2276 C 0.11642 0.2576 0.70574 0.0
H2277 H 0.10418 0.28441 0.65167 0.0
C2278 C 0.11133 0.24159 0.69258 0.0
C2279 C 0.11429 0.2731 0.68971 0.0
C2280 C 0.12142 0.29084 0.70015 0.0
C2281 C 0.10408 0.24069 0.6651 0.0
C2282 C 0.10077 0.2563 0.64958 0.0
C2283 C 0.10616 0.27225 0.66272 0.0
C2284 C 0.09297 0.25664 0.61971 0.0
C2285 C 0.10087 0.22274 0.65287 0.0
C2286 C 0.10294 0.26818 0.60093 0.0
C2287 C 0.09581 0.26928 0.57374 0.0
C2288 C 0.07849 0.25872 0.56341 0.0
C2289 C 0.06842 0.24706 0.58191 0.0
C2290 C 0.07528 0.24622 0.60948 0.0
H2291 H 0.11081 0.21264 0.66359 0.0
H2292 H 0.08318 0.21895 0.65465 0.0
H2293 H 0.10567 0.22257 0.63127 0.0
H2294 H 0.11656 0.27647 0.6072 0.0
H2295 H 0.1042 0.27849 0.56061 0.0
H2296 H 0.57644 0.23051 0.06752 0.0
H2297 H 0.58933 0.22911 0.11478 0.0
H2298 H 0.59888 0.28509 0.11485 0.0
H2299 H 0.58642 0.28648 0.06789 0.0
H2300 H 0.63155 0.2403 0.14001 0.0
H2301 H 0.56151 0.27761 0.18388 0.0
H2302 H 0.56015 0.26781 0.15077 0.0
H2303 H 0.57479 0.28809 0.15575 0.0
C2304 C 0.58111 0.24257 0.07759 0.0
C2305 C 0.58007 0.25866 0.06334 0.0
C2306 C 0.58868 0.24175 0.10486 0.0
C2307 C 0.59512 0.25701 0.11929 0.0
C2308 C 0.5939 0.27303 0.10501 0.0
H2309 H 0.63592 0.2865 0.28545 0.0
H2310 H 0.6237 0.28485 0.23851 0.0
C2311 C 0.5867 0.27381 0.07778 0.0
C2312 C 0.6032 0.25639 0.14883 0.0
H2313 H 0.59194 0.27215 0.21262 0.0
C2314 C 0.62271 0.24718 0.15585 0.0
C2315 C 0.5922 0.2654 0.17015 0.0
C2316 C 0.5709 0.27518 0.16497 0.0
C2317 C 0.63165 0.2472 0.1826 0.0
C2318 C 0.62057 0.25618 0.20408 0.0
C2319 C 0.60088 0.2652 0.19695 0.0
C2320 C 0.62913 0.25692 0.23358 0.0
C2321 C 0.6536 0.23818 0.18707 0.0
C2322 C 0.63662 0.24191 0.24796 0.0
C2323 C 0.64407 0.24293 0.27524 0.0
C2324 C 0.64403 0.25895 0.28969 0.0
C2325 C 0.63641 0.27386 0.27544 0.0
C2326 C 0.62921 0.27289 0.24821 0.0
H2327 H 0.66326 0.23717 0.16806 0.0
H2328 H 0.66381 0.24527 0.20216 0.0
H2329 H 0.6506 0.22463 0.19443 0.0
H2330 H 0.6363 0.22916 0.23836 0.0
H2331 H 0.64944 0.23102 0.28521 0.0
H2332 H 0.1596 0.48336 0.07157 0.0
H2333 H 0.14763 0.48208 0.11915 0.0
H2334 H 0.1013 0.52401 0.10448 0.0
H2335 H 0.11249 0.52476 0.05722 0.0
H2336 H 0.1479 0.50147 0.16212 0.0
H2337 H 0.05873 0.49392 0.1414 0.0
H2338 H 0.07911 0.49279 0.11491 0.0
H2339 H 0.06902 0.51377 0.12668 0.0
C2340 C 0.14677 0.49226 0.07841 0.0
C2341 C 0.13696 0.50403 0.05988 0.0
C2342 C 0.13982 0.49154 0.10594 0.0
C2343 C 0.12277 0.50255 0.11622 0.0
C2344 C 0.11367 0.51471 0.09775 0.0
H2345 H 0.06211 0.52218 0.27968 0.0
H2346 H 0.07405 0.52396 0.23205 0.0
C2347 C 0.12039 0.51529 0.07035 0.0
C2348 C 0.11484 0.50168 0.14591 0.0
H2349 H 0.06824 0.50127 0.18666 0.0
C2350 C 0.13042 0.50129 0.16719 0.0
C2351 C 0.092 0.50142 0.15368 0.0
C2352 C 0.07378 0.5003 0.13297 0.0
C2353 C 0.12408 0.50105 0.19497 0.0
C2354 C 0.10129 0.50106 0.20265 0.0
C2355 C 0.0857 0.50145 0.18147 0.0
C2356 C 0.09346 0.50003 0.23225 0.0
C2357 C 0.14209 0.50122 0.21601 0.0
C2358 C 0.09967 0.4859 0.24903 0.0
C2359 C 0.0926 0.48477 0.27626 0.0
C2360 C 0.07903 0.49776 0.28835 0.0
C2361 C 0.07257 0.51188 0.27157 0.0
C2362 C 0.07946 0.5129 0.24405 0.0
H2363 H 0.158 0.50619 0.20773 0.0
H2364 H 0.1373 0.50946 0.23355 0.0
H2365 H 0.14489 0.48762 0.22328 0.0
H2366 H 0.10993 0.47547 0.24098 0.0
H2367 H 0.09799 0.47358 0.288 0.0
H2368 H 0.25244 0.20154 0.2221 0.0
H2369 H 0.24436 0.17118 0.20703 0.0
H2370 H 0.31416 0.16196 0.19542 0.0
H2371 H 0.32224 0.19179 0.20999 0.0
H2372 H 0.2624 0.15438 0.15173 0.0
H2373 H 0.2883 0.12066 0.24567 0.0
H2374 H 0.27829 0.14304 0.24534 0.0
H2375 H 0.30608 0.13821 0.23466 0.0
C2376 C 0.26601 0.19293 0.21664 0.0
C2377 C 0.28799 0.19915 0.21732 0.0
C2378 C 0.26138 0.17564 0.20783 0.0
C2379 C 0.27868 0.16424 0.20004 0.0
C2380 C 0.30053 0.17041 0.20132 0.0
H2381 H 0.3232 0.06612 0.14617 0.0
H2382 H 0.31474 0.09528 0.163 0.0
C2383 C 0.3051 0.18755 0.20971 0.0
C2384 C 0.27463 0.1459 0.19027 0.0
H2385 H 0.28724 0.10329 0.20575 0.0
C2386 C 0.26727 0.14313 0.16371 0.0
C2387 C 0.28115 0.1312 0.20578 0.0
C2388 C 0.28876 0.13331 0.23454 0.0
C2389 C 0.26758 0.12622 0.15182 0.0
C2390 C 0.27521 0.11163 0.16696 0.0
C2391 C 0.28141 0.11437 0.19399 0.0
C2392 C 0.27964 0.09394 0.1546 0.0
C2393 C 0.26107 0.12425 0.12265 0.0
C2394 C 0.26279 0.08326 0.14359 0.0
C2395 C 0.26766 0.06626 0.13365 0.0
C2396 C 0.28944 0.05963 0.13473 0.0
C2397 C 0.30618 0.07061 0.14512 0.0
C2398 C 0.30137 0.0874 0.15487 0.0
H2399 H 0.25874 0.13715 0.11259 0.0
H2400 H 0.27387 0.11669 0.11148 0.0
H2401 H 0.24527 0.11686 0.12136 0.0
H2402 H 0.2458 0.08784 0.14338 0.0
H2403 H 0.25433 0.05816 0.126 0.0
H2404 H 0.96524 0.05845 0.22954 0.0
H2405 H 0.9735 0.08854 0.21384 0.0
H2406 H 0.90889 0.09149 0.17713 0.0
H2407 H 0.90071 0.06195 0.19227 0.0
H2408 H 0.94132 0.10335 0.14284 0.0
H2409 H 0.94941 0.13514 0.24334 0.0
H2410 H 0.96704 0.11656 0.23684 0.0
H2411 H 0.93761 0.11353 0.23927 0.0
C2412 C 0.9528 0.06558 0.21827 0.0
C2413 C 0.9323 0.05763 0.21227 0.0
C2414 C 0.9575 0.08283 0.20931 0.0
C2415 C 0.94178 0.09247 0.19427 0.0
C2416 C 0.92141 0.08447 0.18849 0.0
H2417 H 0.90613 0.19782 0.16672 0.0
H2418 H 0.91407 0.16804 0.1809 0.0
C2419 C 0.91674 0.06744 0.19733 0.0
C2420 C 0.9459 0.11084 0.18429 0.0
H2421 H 0.95094 0.15349 0.20544 0.0
C2422 C 0.94383 0.11429 0.15651 0.0
C2423 C 0.949 0.12523 0.20201 0.0
C2424 C 0.95076 0.12258 0.23206 0.0
C2425 C 0.94384 0.13158 0.14619 0.0
C2426 C 0.94625 0.146 0.16401 0.0
C2427 C 0.94924 0.14252 0.19166 0.0
C2428 C 0.94262 0.16466 0.15509 0.0
C2429 C 0.93993 0.13432 0.11647 0.0
C2430 C 0.95611 0.17309 0.13575 0.0
C2431 C 0.95157 0.19049 0.12738 0.0
C2432 C 0.93339 0.19976 0.13815 0.0
C2433 C 0.92023 0.19125 0.1577 0.0
C2434 C 0.9248 0.17409 0.16604 0.0
H2435 H 0.93495 0.122 0.10611 0.0
H2436 H 0.92683 0.14435 0.11321 0.0
H2437 H 0.9554 0.13917 0.10694 0.0
H2438 H 0.97018 0.16624 0.12715 0.0
H2439 H 0.96213 0.19659 0.11242 0.0
H2440 H 0.65184 0.81268 0.90788 0.0
H2441 H 0.66057 0.84211 0.92304 0.0
H2442 H 0.72541 0.83816 0.88702 0.0
H2443 H 0.71661 0.80815 0.87131 0.0
H2444 H 0.69338 0.85331 0.95772 0.0
H2445 H 0.70216 0.88512 0.85733 0.0
H2446 H 0.68975 0.86371 0.86129 0.0
H2447 H 0.71924 0.86624 0.86388 0.0
C2448 C 0.66804 0.81792 0.90297 0.0
C2449 C 0.68352 0.80786 0.88826 0.0
C2450 C 0.67301 0.83488 0.91183 0.0
C2451 C 0.69363 0.84255 0.90626 0.0
C2452 C 0.70925 0.83268 0.89139 0.0
H2453 H 0.71294 0.9467 0.98835 0.0
H2454 H 0.72164 0.91644 0.97367 0.0
C2455 C 0.70424 0.8155 0.88242 0.0
C2456 C 0.69805 0.86083 0.91631 0.0
H2457 H 0.70314 0.90346 0.89528 0.0
C2458 C 0.69594 0.86425 0.9441 0.0
C2459 C 0.70125 0.8752 0.89863 0.0
C2460 C 0.70311 0.87254 0.86859 0.0
C2461 C 0.69589 0.88153 0.95446 0.0
C2462 C 0.69828 0.89594 0.93666 0.0
C2463 C 0.70143 0.89248 0.90903 0.0
C2464 C 0.69429 0.91454 0.94554 0.0
C2465 C 0.69186 0.88426 0.98418 0.0
C2466 C 0.67636 0.92374 0.93447 0.0
C2467 C 0.67142 0.94084 0.94277 0.0
C2468 C 0.68431 0.94951 0.96241 0.0
C2469 C 0.70258 0.94046 0.97333 0.0
C2470 C 0.7075 0.92312 0.96499 0.0
H2471 H 0.68701 0.87191 0.99454 0.0
H2472 H 0.70723 0.88925 0.99374 0.0
H2473 H 0.67861 0.89417 0.98742 0.0
H2474 H 0.66583 0.91755 0.91955 0.0
H2475 H 0.65726 0.94724 0.93366 0.0
H2476 H 0.00984 0.80939 0.98583 0.0
H2477 H 0.0006 0.8393 0.9699 0.0
H2478 H 0.06064 0.84019 0.92282 0.0
H2479 H 0.06982 0.81096 0.93821 0.0
H2480 H 0.02493 0.87117 0.97458 0.0
H2481 H 0.01437 0.85441 0.86714 0.0
H2482 H 0.01402 0.83799 0.8934 0.0
H2483 H 0.03995 0.84591 0.88011 0.0
C2484 C 0.02097 0.81598 0.97202 0.0
C2485 C 0.04051 0.80758 0.96327 0.0
C2486 C 0.01568 0.83306 0.96288 0.0
C2487 C 0.02967 0.84192 0.94456 0.0
C2488 C 0.04922 0.83358 0.93627 0.0
H2489 H 0.07006 0.94493 0.91221 0.0
H2490 H 0.06098 0.91574 0.92812 0.0
C2491 C 0.05452 0.81676 0.94538 0.0
C2492 C 0.02493 0.86013 0.93464 0.0
H2493 H 0.02449 0.88461 0.87671 0.0
C2494 C 0.02432 0.87406 0.95319 0.0
C2495 C 0.02376 0.86408 0.90672 0.0
C2496 C 0.02282 0.84978 0.88572 0.0
C2497 C 0.02427 0.89172 0.94458 0.0
C2498 C 0.02522 0.89566 0.91663 0.0
C2499 C 0.02408 0.88173 0.89811 0.0
C2500 C 0.02998 0.91383 0.90652 0.0
C2501 C 0.0238 0.90603 0.9656 0.0
C2502 C 0.01598 0.92254 0.88809 0.0
C2503 C 0.02123 0.93954 0.87864 0.0
C2504 C 0.04073 0.94804 0.8872 0.0
C2505 C 0.05478 0.93903 0.9052 0.0
C2506 C 0.04953 0.92226 0.91462 0.0
H2507 H 0.0154 0.9015 0.98429 0.0
H2508 H 0.04105 0.90964 0.97099 0.0
H2509 H 0.0152 0.91795 0.95806 0.0
H2510 H 0.00092 0.91625 0.88121 0.0
H2511 H 0.01006 0.94601 0.86476 0.0
H2512 H 0.25952 0.69679 0.73547 0.0
H2513 H 0.25069 0.6668 0.71972 0.0
H2514 H 0.31079 0.66614 0.67273 0.0
H2515 H 0.31954 0.69556 0.68794 0.0
H2516 H 0.27493 0.65367 0.64368 0.0
H2517 H 0.28066 0.62072 0.7435 0.0
H2518 H 0.26173 0.63889 0.74077 0.0
H2519 H 0.291 0.64267 0.738 0.0
C2520 C 0.27083 0.69021 0.72185 0.0
C2521 C 0.29028 0.69873 0.71315 0.0
C2522 C 0.26582 0.67301 0.71288 0.0
C2523 C 0.28014 0.66403 0.69503 0.0
C2524 C 0.29938 0.67265 0.68634 0.0
H2525 H 0.31824 0.56049 0.65897 0.0
H2526 H 0.31045 0.59002 0.6744 0.0
C2527 C 0.30439 0.6896 0.69526 0.0
C2528 C 0.27581 0.64565 0.68524 0.0
H2529 H 0.27597 0.60268 0.70564 0.0
C2530 C 0.27473 0.64253 0.65727 0.0
C2531 C 0.27574 0.63101 0.70284 0.0
C2532 C 0.27748 0.63334 0.73295 0.0
C2533 C 0.27453 0.62535 0.64649 0.0
C2534 C 0.27519 0.6107 0.66407 0.0
C2535 C 0.27532 0.61383 0.69206 0.0
C2536 C 0.27895 0.59229 0.65404 0.0
C2537 C 0.27495 0.62301 0.61631 0.0
C2538 C 0.26384 0.58337 0.63715 0.0
C2539 C 0.26829 0.5661 0.62803 0.0
C2540 C 0.28795 0.55744 0.63565 0.0
C2541 C 0.30288 0.56653 0.65253 0.0
C2542 C 0.29843 0.58356 0.66157 0.0
H2543 H 0.27778 0.6356 0.60556 0.0
H2544 H 0.28816 0.6136 0.61039 0.0
H2545 H 0.25885 0.61755 0.60954 0.0
H2546 H 0.24852 0.58968 0.63121 0.0
H2547 H 0.25636 0.55954 0.61523 0.0
H2548 H 0.89989 0.69185 0.64407 0.0
H2549 H 0.9083 0.66207 0.65863 0.0
H2550 H 0.97786 0.67132 0.64512 0.0
H2551 H 0.96944 0.70159 0.63008 0.0
H2552 H 0.9352 0.63456 0.62669 0.0
H2553 H 0.96847 0.65249 0.72774 0.0
H2554 H 0.94927 0.66676 0.71041 0.0
H2555 H 0.97705 0.6645 0.69815 0.0
C2556 C 0.91704 0.68764 0.64398 0.0
C2557 C 0.93399 0.69923 0.63587 0.0
C2558 C 0.92181 0.67052 0.65238 0.0
C2559 C 0.94371 0.66441 0.65329 0.0
C2560 C 0.96081 0.67576 0.6448 0.0
H2561 H 0.97 0.55746 0.72261 0.0
H2562 H 0.97785 0.58732 0.70529 0.0
C2563 C 0.95599 0.69301 0.63601 0.0
C2564 C 0.94797 0.64609 0.66306 0.0
H2565 H 0.96057 0.62259 0.71999 0.0
C2566 C 0.94121 0.63194 0.64689 0.0
C2567 C 0.9558 0.64255 0.68942 0.0
C2568 C 0.96309 0.65729 0.70765 0.0
C2569 C 0.94124 0.61455 0.65664 0.0
C2570 C 0.94768 0.6111 0.68362 0.0
C2571 C 0.9556 0.62513 0.69936 0.0
C2572 C 0.9436 0.5935 0.69637 0.0
C2573 C 0.93375 0.60002 0.63807 0.0
C2574 C 0.9218 0.58724 0.69813 0.0
C2575 C 0.91736 0.57041 0.70794 0.0
C2576 C 0.93453 0.55919 0.71658 0.0
C2577 C 0.95638 0.56571 0.71618 0.0
C2578 C 0.96087 0.58276 0.70617 0.0
H2579 H 0.9362 0.60363 0.61658 0.0
H2580 H 0.94283 0.58762 0.6422 0.0
H2581 H 0.91579 0.59761 0.64123 0.0
H2582 H 0.9081 0.59531 0.69139 0.0
H2583 H 0.90027 0.56606 0.70825 0.0
H2584 H 0.71449 0.31043 0.36455 0.0
H2585 H 0.72305 0.34063 0.37981 0.0
H2586 H 0.66525 0.33995 0.43087 0.0
H2587 H 0.65679 0.31041 0.41621 0.0
H2588 H 0.69783 0.37162 0.37633 0.0
H2589 H 0.71231 0.35629 0.48348 0.0
H2590 H 0.71213 0.33954 0.45768 0.0
H2591 H 0.68651 0.34724 0.47217 0.0
C2592 C 0.70374 0.31672 0.37914 0.0
C2593 C 0.68502 0.3078 0.38916 0.0
C2594 C 0.70863 0.33399 0.38788 0.0
C2595 C 0.69509 0.34254 0.40708 0.0
C2596 C 0.67638 0.33363 0.41672 0.0
H2597 H 0.6528 0.44554 0.43871 0.0
H2598 H 0.66201 0.41624 0.42341 0.0
C2599 C 0.67147 0.31662 0.40802 0.0
C2600 C 0.69935 0.361 0.41646 0.0
H2601 H 0.70082 0.38617 0.47378 0.0
C2602 C 0.69897 0.37475 0.39761 0.0
C2603 C 0.70123 0.36531 0.44422 0.0
C2604 C 0.70331 0.35129 0.46552 0.0
C2605 C 0.69877 0.39252 0.40582 0.0
C2606 C 0.69858 0.39678 0.43369 0.0
C2607 C 0.70064 0.38306 0.45245 0.0
C2608 C 0.69371 0.41504 0.44357 0.0
C2609 C 0.69822 0.40658 0.38445 0.0
C2610 C 0.70807 0.42423 0.46105 0.0
C2611 C 0.70275 0.44134 0.47015 0.0
C2612 C 0.68282 0.44947 0.46221 0.0
C2613 C 0.66842 0.43996 0.44521 0.0
C2614 C 0.67374 0.4231 0.43615 0.0
H2615 H 0.70612 0.40197 0.36548 0.0
H2616 H 0.68072 0.40989 0.37981 0.0
H2617 H 0.70676 0.41871 0.39129 0.0
H2618 H 0.72348 0.41825 0.46742 0.0
H2619 H 0.71421 0.44818 0.48325 0.0
H2620 H 0.00138 0.30667 0.47166 0.0
H2621 H -0.00592 0.33655 0.45405 0.0
H2622 H 0.06433 0.34522 0.44601 0.0
H2623 H 0.07162 0.31591 0.46317 0.0
H2624 H 0.01008 0.37217 0.47001 0.0
H2625 H 0.04024 0.35293 0.3689 0.0
H2626 H 0.03238 0.33699 0.3941 0.0
H2627 H 0.05927 0.34718 0.39523 0.0
C2628 C 0.01521 0.31509 0.46654 0.0
C2629 C 0.03709 0.30875 0.46862 0.0
C2630 C 0.01104 0.33215 0.45634 0.0
C2631 C 0.02866 0.34309 0.44805 0.0
C2632 C 0.0504 0.33701 0.4516 0.0
H2633 H 0.07301 0.44124 0.39376 0.0
H2634 H 0.06472 0.41155 0.40881 0.0
C2635 C 0.05453 0.32017 0.46157 0.0
C2636 C 0.02503 0.36061 0.43484 0.0
H2637 H 0.03991 0.38387 0.37855 0.0
C2638 C 0.01607 0.37465 0.44976 0.0
C2639 C 0.0328 0.36399 0.40834 0.0
C2640 C 0.04151 0.34944 0.39059 0.0
C2641 C 0.01605 0.39202 0.43956 0.0
C2642 C 0.0251 0.3955 0.41373 0.0
C2643 C 0.03298 0.38132 0.39834 0.0
C2644 C 0.02928 0.41382 0.40377 0.0
C2645 C 0.00757 0.40676 0.45704 0.0
C2646 C 0.01213 0.42513 0.39528 0.0
C2647 C 0.01689 0.44234 0.3862 0.0
C2648 C 0.03887 0.44857 0.38575 0.0
C2649 C 0.05586 0.43703 0.3939 0.0
C2650 C 0.05116 0.41995 0.40258 0.0
H2651 H 0.00213 0.4021 0.47719 0.0
H2652 H 0.02072 0.41682 0.45973 0.0
H2653 H -0.00667 0.41324 0.44696 0.0
H2654 H -0.00491 0.42068 0.39574 0.0
H2655 H 0.00339 0.45086 0.38023 0.0
H2656 H 0.8257 0.0689 0.62603 0.0
H2657 H 0.81925 0.09803 0.6447 0.0
H2658 H 0.75105 0.08472 0.66014 0.0
H2659 H 0.75745 0.05506 0.64145 0.0
H2660 H 0.76364 0.12245 0.63551 0.0
H2661 H 0.8066 0.10345 0.72999 0.0
H2662 H 0.82009 0.09697 0.69919 0.0
H2663 H 0.79377 0.08754 0.7079 0.0
C2664 C 0.80917 0.07211 0.63303 0.0
C2665 C 0.79212 0.05945 0.63226 0.0
C2666 C 0.80554 0.08886 0.64378 0.0
C2667 C 0.78475 0.0936 0.65413 0.0
C2668 C 0.76728 0.08139 0.65231 0.0
H2669 H 0.76069 0.20165 0.72064 0.0
H2670 H 0.75263 0.17135 0.70584 0.0
C2671 C 0.77092 0.06444 0.6415 0.0
C2672 C 0.78217 0.11098 0.66802 0.0
H2673 H 0.80138 0.13397 0.7225 0.0
C2674 C 0.77146 0.12493 0.6548 0.0
C2675 C 0.79247 0.11429 0.69314 0.0
C2676 C 0.80377 0.09978 0.70859 0.0
C2677 C 0.77185 0.14222 0.66533 0.0
C2678 C 0.78298 0.14566 0.68998 0.0
C2679 C 0.79281 0.13148 0.70368 0.0
C2680 C 0.78703 0.16396 0.70031 0.0
C2681 C 0.76148 0.15684 0.64921 0.0
C2682 C 0.80893 0.16986 0.70314 0.0
C2683 C 0.81351 0.18698 0.71172 0.0
C2684 C 0.79635 0.19888 0.71799 0.0
C2685 C 0.77432 0.19288 0.71609 0.0
C2686 C 0.76971 0.17559 0.70729 0.0
H2687 H 0.75698 0.15256 0.62851 0.0
H2688 H 0.74616 0.16135 0.6595 0.0
H2689 H 0.77294 0.16821 0.64775 0.0
H2690 H 0.82265 0.16127 0.69809 0.0
H2691 H 0.83071 0.19096 0.71301 0.0
H2692 H 0.4673 0.1995 0.62441 0.0
H2693 H 0.47424 0.16855 0.63734 0.0
H2694 H 0.40508 0.16236 0.65678 0.0
H2695 H 0.39812 0.19264 0.64417 0.0
H2696 H 0.46333 0.15125 0.6908 0.0
H2697 H 0.41918 0.12078 0.60498 0.0
H2698 H 0.42947 0.14306 0.60397 0.0
H2699 H 0.40379 0.13815 0.62081 0.0
C2700 C 0.4536 0.19143 0.63114 0.0
C2701 C 0.43215 0.19864 0.63317 0.0
C2702 C 0.45759 0.17378 0.6387 0.0
C2703 C 0.44013 0.16301 0.64792 0.0
C2704 C 0.4188 0.17023 0.64953 0.0
H2705 H 0.39587 0.06697 0.71242 0.0
H2706 H 0.40377 0.096 0.69455 0.0
C2707 C 0.41489 0.18768 0.64233 0.0
C2708 C 0.44352 0.14429 0.6564 0.0
H2709 H 0.42343 0.10298 0.64448 0.0
C2710 C 0.45509 0.14059 0.68035 0.0
C2711 C 0.4327 0.13031 0.64291 0.0
C2712 C 0.42075 0.1332 0.6166 0.0
C2713 C 0.45491 0.1236 0.69194 0.0
C2714 C 0.44302 0.10987 0.67915 0.0
C2715 C 0.43247 0.11343 0.65449 0.0
C2716 C 0.43923 0.09227 0.69207 0.0
C2717 C 0.46632 0.12069 0.71858 0.0
C2718 C 0.45657 0.0803 0.69719 0.0
C2719 C 0.45207 0.0634 0.70763 0.0
C2720 C 0.43012 0.05813 0.71303 0.0
C2721 C 0.413 0.07039 0.7085 0.0
C2722 C 0.41748 0.08711 0.69817 0.0
H2723 H 0.47198 0.13319 0.72783 0.0
H2724 H 0.45502 0.11393 0.73289 0.0
H2725 H 0.48099 0.11213 0.71549 0.0
H2726 H 0.4735 0.08381 0.69238 0.0
H2727 H 0.46565 0.05431 0.7106 0.0
H2728 H 0.16033 0.80665 0.42697 0.0
H2729 H 0.16697 0.83674 0.44088 0.0
H2730 H 0.21159 0.84394 0.37396 0.0
H2731 H 0.20511 0.8132 0.35976 0.0
H2732 H 0.22569 0.86049 0.42613 0.0
H2733 H 0.1396 0.87783 0.39777 0.0
H2734 H 0.14147 0.85917 0.41974 0.0
H2735 H 0.15289 0.85795 0.38629 0.0
C2736 C 0.17169 0.81448 0.41507 0.0
C2737 C 0.18192 0.80742 0.39188 0.0
C2738 C 0.17547 0.8318 0.42318 0.0
C2739 C 0.18948 0.84284 0.40832 0.0
C2740 C 0.20061 0.83574 0.38577 0.0
H2741 H 0.1752 0.95576 0.42055 0.0
H2742 H 0.18071 0.92569 0.40564 0.0
C2743 C 0.19689 0.81816 0.37762 0.0
C2744 C 0.1911 0.86192 0.41587 0.0
H2745 H 0.15903 0.89859 0.42436 0.0
C2746 C 0.21119 0.8689 0.42551 0.0
C2747 C 0.17224 0.87301 0.41508 0.0
C2748 C 0.15037 0.8667 0.40394 0.0
C2749 C 0.21275 0.88648 0.43475 0.0
C2750 C 0.19366 0.89738 0.43473 0.0
C2751 C 0.17372 0.89037 0.42469 0.0
C2752 C 0.19379 0.91633 0.44357 0.0
C2753 C 0.23491 0.89329 0.44404 0.0
C2754 C 0.19995 0.92161 0.46984 0.0
C2755 C 0.19712 0.9392 0.47843 0.0
C2756 C 0.18773 0.95175 0.46102 0.0
C2757 C 0.18246 0.94651 0.43457 0.0
C2758 C 0.18554 0.92919 0.42597 0.0
H2759 H 0.24878 0.88506 0.43639 0.0
H2760 H 0.23752 0.90704 0.43732 0.0
H2761 H 0.23546 0.89306 0.46639 0.0
H2762 H 0.20598 0.912 0.48412 0.0
H2763 H 0.20105 0.94271 0.49903 0.0
H2764 H 0.50866 0.80962 0.48201 0.0
H2765 H 0.49968 0.83947 0.46563 0.0
H2766 H 0.56321 0.84217 0.42614 0.0
H2767 H 0.57215 0.81296 0.44201 0.0
H2768 H 0.52152 0.87199 0.47326 0.0
H2769 H 0.52154 0.85538 0.36499 0.0
H2770 H 0.51993 0.83882 0.39098 0.0
H2771 H 0.54633 0.84784 0.3812 0.0
C2772 C 0.52065 0.81661 0.46984 0.0
C2773 C 0.54106 0.80868 0.46324 0.0
C2774 C 0.5155 0.83367 0.46041 0.0
C2775 C 0.53054 0.84301 0.44397 0.0
C2776 C 0.551 0.83518 0.43803 0.0
H2777 H 0.56664 0.94786 0.4168 0.0
H2778 H 0.55808 0.91838 0.43168 0.0
C2779 C 0.55614 0.81837 0.44739 0.0
C2780 C 0.52576 0.86114 0.43354 0.0
H2781 H 0.52855 0.88589 0.37591 0.0
C2782 C 0.52259 0.87495 0.45192 0.0
C2783 C 0.52674 0.8652 0.40563 0.0
C2784 C 0.52858 0.85099 0.38455 0.0
C2785 C 0.52201 0.89264 0.44339 0.0
C2786 C 0.52501 0.89677 0.41572 0.0
C2787 C 0.52652 0.88289 0.39714 0.0
C2788 C 0.52927 0.91522 0.4063 0.0
C2789 C 0.51871 0.90679 0.46429 0.0
C2790 C 0.51633 0.92343 0.38622 0.0
C2791 C 0.52127 0.94066 0.37737 0.0
C2792 C 0.53948 0.94987 0.38814 0.0
C2793 C 0.55241 0.9414 0.40795 0.0
C2794 C 0.54742 0.92444 0.41678 0.0
H2795 H 0.50913 0.9018 0.48181 0.0
H2796 H 0.53512 0.91117 0.47181 0.0
H2797 H 0.50994 0.91834 0.45574 0.0
H2798 H 0.50236 0.91656 0.3775 0.0
H2799 H 0.51101 0.94668 0.36206 0.0
H2800 H 0.82136 0.56671 0.13248 0.0
H2801 H 0.81374 0.59655 0.14757 0.0
H2802 H 0.74382 0.58515 0.14964 0.0
H2803 H 0.75146 0.55483 0.13409 0.0
H2804 H 0.78448 0.62328 0.1233 0.0
H2805 H 0.76051 0.60447 0.22783 0.0
H2806 H 0.77664 0.58996 0.20668 0.0
H2807 H 0.74781 0.59332 0.19975 0.0
C2808 C 0.80427 0.57052 0.1358 0.0
C2809 C 0.78702 0.55831 0.13197 0.0
C2810 C 0.79995 0.58766 0.14452 0.0
C2811 C 0.77826 0.59316 0.15013 0.0
C2812 C 0.76076 0.5812 0.14572 0.0
H2813 H 0.7562 0.69911 0.2254 0.0
H2814 H 0.74754 0.66943 0.20791 0.0
C2815 C 0.76509 0.56393 0.13655 0.0
C2816 C 0.77465 0.61142 0.16076 0.0
H2817 H 0.76619 0.63453 0.21928 0.0
C2818 C 0.78004 0.62573 0.14415 0.0
C2819 C 0.76885 0.61476 0.18799 0.0
C2820 C 0.76316 0.59989 0.20681 0.0
C2821 C 0.78059 0.64306 0.15416 0.0
C2822 C 0.77619 0.64632 0.18181 0.0
C2823 C 0.76962 0.63214 0.19814 0.0
C2824 C 0.78095 0.6639 0.19436 0.0
C2825 C 0.78646 0.65774 0.13504 0.0
C2826 C 0.80263 0.67049 0.19351 0.0
C2827 C 0.80755 0.68723 0.20342 0.0
C2828 C 0.791 0.69804 0.21477 0.0
C2829 C 0.76936 0.6912 0.21681 0.0
C2830 C 0.76439 0.67425 0.20673 0.0
H2831 H 0.78228 0.65426 0.1139 0.0
H2832 H 0.7777 0.67008 0.14047 0.0
H2833 H 0.80457 0.6602 0.13601 0.0
H2834 H 0.81586 0.66272 0.18477 0.0
H2835 H 0.8245 0.6918 0.20177 0.0
H2836 H 0.45115 0.56447 0.24515 0.0
H2837 H 0.45658 0.59531 0.231 0.0
H2838 H 0.41842 0.5855 0.15921 0.0
H2839 H 0.4128 0.55526 0.17305 0.0
H2840 H 0.47382 0.61194 0.18057 0.0
H2841 H 0.38463 0.62554 0.19772 0.0
H2842 H 0.39824 0.60636 0.2112 0.0
H2843 H 0.38974 0.60688 0.17648 0.0
C2844 C 0.44414 0.56889 0.22625 0.0
C2845 C 0.43125 0.55736 0.21052 0.0
C2846 C 0.44726 0.58651 0.21814 0.0
C2847 C 0.43759 0.59287 0.19418 0.0
C2848 C 0.42572 0.5811 0.17797 0.0
H2849 H 0.44979 0.69308 0.10474 0.0
H2850 H 0.455 0.66242 0.11972 0.0
C2851 C 0.42253 0.56371 0.18603 0.0
C2852 C 0.43848 0.6119 0.18644 0.0
H2853 H 0.40485 0.64709 0.17364 0.0
C2854 C 0.45879 0.6197 0.17926 0.0
C2855 C 0.4189 0.62212 0.18473 0.0
C2856 C 0.39666 0.61489 0.19316 0.0
C2857 C 0.45992 0.63728 0.17006 0.0
C2858 C 0.44021 0.64732 0.16764 0.0
C2859 C 0.42001 0.6395 0.17518 0.0
C2860 C 0.43986 0.66623 0.15894 0.0
C2861 C 0.48224 0.64505 0.16346 0.0
C2862 C 0.42982 0.67872 0.17581 0.0
C2863 C 0.42663 0.69599 0.16717 0.0
C2864 C 0.43346 0.70151 0.14138 0.0
C2865 C 0.44451 0.68932 0.12478 0.0
C2866 C 0.44752 0.67178 0.13341 0.0
H2867 H 0.49598 0.6373 0.17245 0.0
H2868 H 0.48452 0.64512 0.14126 0.0
H2869 H 0.48341 0.65881 0.17075 0.0
H2870 H 0.42384 0.67497 0.19558 0.0
H2871 H 0.41822 0.70499 0.18067 0.0
H2872 H 0.15199 0.44649 0.94197 0.0
H2873 H 0.15937 0.41663 0.92779 0.0
H2874 H 0.2196 0.41624 0.97441 0.0
H2875 H 0.2122 0.44671 0.98909 0.0
H2876 H 0.19515 0.40322 0.89889 0.0
H2877 H 0.18738 0.37118 0.99926 0.0
H2878 H 0.17781 0.3933 0.99327 0.0
H2879 H 0.20693 0.38891 0.99623 0.0
C2880 C 0.1669 0.44022 0.94941 0.0
C2881 C 0.18151 0.4492 0.96682 0.0
C2882 C 0.17111 0.42301 0.94111 0.0
C2883 C 0.19 0.41401 0.94995 0.0
C2884 C 0.20475 0.42279 0.96746 0.0
H2885 H 0.20923 0.30859 0.87214 0.0
H2886 H 0.21841 0.33848 0.88792 0.0
C2887 C 0.20053 0.44023 0.97584 0.0
C2888 C 0.19358 0.39549 0.94055 0.0
H2889 H 0.19104 0.35274 0.96166 0.0
C2890 C 0.19469 0.39217 0.91266 0.0
C2891 C 0.19279 0.38101 0.95841 0.0
C2892 C 0.19103 0.38363 0.98847 0.0
C2893 C 0.19405 0.37494 0.90216 0.0
C2894 C 0.19248 0.36047 0.91999 0.0
C2895 C 0.19237 0.36377 0.94793 0.0
C2896 C 0.18786 0.34218 0.91022 0.0
C2897 C 0.19367 0.3724 0.87201 0.0
C2898 C 0.16785 0.33415 0.91756 0.0
C2899 C 0.16263 0.31725 0.90862 0.0
C2900 C 0.1773 0.30764 0.89208 0.0
C2901 C 0.19748 0.31559 0.88468 0.0
C2902 C 0.20271 0.33271 0.89367 0.0
H2903 H 0.19154 0.38501 0.86104 0.0
H2904 H 0.20953 0.36638 0.86543 0.0
H2905 H 0.18003 0.36339 0.86615 0.0
H2906 H 0.15603 0.34108 0.93013 0.0
H2907 H 0.14692 0.31171 0.91486 0.0
H2908 H 0.50651 0.3076 0.9734 0.0
H2909 H 0.49961 0.33759 0.95599 0.0
H2910 H 0.56932 0.3435 0.93947 0.0
H2911 H 0.57624 0.31414 0.95646 0.0
H2912 H 0.51942 0.3725 0.96984 0.0
H2913 H 0.53931 0.35209 0.86556 0.0
H2914 H 0.53246 0.33651 0.8917 0.0
H2915 H 0.56 0.34546 0.88944 0.0
C2916 C 0.52034 0.31542 0.96637 0.0
C2917 C 0.54189 0.30829 0.96609 0.0
C2918 C 0.51639 0.33254 0.95632 0.0
C2919 C 0.53391 0.34274 0.94579 0.0
C2920 C 0.55544 0.33586 0.94684 0.0
H2921 H 0.57892 0.43887 0.88242 0.0
H2922 H 0.57058 0.40927 0.89802 0.0
C2923 C 0.55935 0.31897 0.9567 0.0
C2924 C 0.53033 0.36037 0.93299 0.0
H2925 H 0.54177 0.38298 0.87494 0.0
C2926 C 0.52376 0.37475 0.94892 0.0
C2927 C 0.53601 0.36342 0.90564 0.0
C2928 C 0.54213 0.34853 0.88699 0.0
C2929 C 0.52411 0.39211 0.93871 0.0
C2930 C 0.53103 0.39521 0.9118 0.0
C2931 C 0.53651 0.38072 0.89556 0.0
C2932 C 0.53521 0.41333 0.90106 0.0
C2933 C 0.51834 0.40714 0.95722 0.0
C2934 C 0.51804 0.42559 0.89678 0.0
C2935 C 0.52278 0.4427 0.88741 0.0
C2936 C 0.5448 0.44792 0.88239 0.0
C2937 C 0.56176 0.43541 0.88608 0.0
C2938 C 0.55703 0.4184 0.89508 0.0
H2939 H 0.51575 0.40276 0.97834 0.0
H2940 H 0.53171 0.41717 0.95689 0.0
H2941 H 0.5029 0.41354 0.95007 0.0
H2942 H 0.50102 0.42198 0.90088 0.0
H2943 H 0.50933 0.452 0.88501 0.0
H2944 H 0.24042 0.96191 0.07493 0.0
H2945 H 0.22915 0.9485 1.03221 0.0
H2946 H 0.22507 0.99997 0.9961 0.0
H2947 H 0.23712 0.01332 1.03831 0.0
H2948 H 0.19364 0.95129 1.00284 0.0
H2949 H 0.26231 0.97525 0.94086 0.0
H2950 H 0.26359 0.97529 0.97728 0.0
H2951 H 0.25175 0.99365 0.95927 0.0
C2952 C 0.23668 0.97034 0.05795 0.0
C2953 C 0.23963 0.98862 0.05968 0.0
C2954 C 0.23066 0.96265 1.03352 0.0
C2955 C 0.22743 0.97319 1.01073 0.0
C2956 C 0.22865 0.99154 1.01313 0.0
H2957 H 0.1492 0.00786 0.91574 0.0
H2958 H 0.18304 0.99665 0.9365 0.0
C2959 C 0.23494 0.9992 1.03737 0.0
C2960 C 0.22071 0.96549 0.9848 0.0
H2961 H 0.22458 0.97624 0.91851 0.0
C2962 C 0.20092 0.95592 0.98415 0.0
C2963 C 0.23072 0.97088 0.96039 0.0
C2964 C 0.25343 0.97913 0.95957 0.0
C2965 C 0.18876 0.95463 0.96029 0.0
C2966 C 0.19672 0.96333 0.93705 0.0
C2967 C 0.21834 0.96998 0.93663 0.0
C2968 C 0.18067 0.97087 0.91817 0.0
C2969 C 0.16602 0.94639 0.96113 0.0
C2970 C 0.16886 0.96026 0.90023 0.0
C2971 C 0.14948 0.96664 0.88849 0.0
C2972 C 0.14184 0.98361 0.8948 0.0
C2973 C 0.15471 0.99469 0.9109 0.0
C2974 C 0.1741 0.98835 0.92248 0.0
H2975 H 0.163 0.93921 0.98027 0.0
H2976 H 0.15316 0.95674 0.95902 0.0
H2977 H 0.16408 0.93706 0.94411 0.0
H2978 H 0.17376 0.94675 0.8968 0.0
H2979 H 0.13983 0.95796 0.8758 0.0
H2980 H 0.06458 0.24778 0.90798 0.0
H2981 H 0.03072 0.25901 0.92845 0.0
H2982 H 0.04581 0.31104 0.89918 0.0
H2983 H 0.07968 0.29975 0.87835 0.0
H2984 H 0.04843 0.30761 0.95383 0.0
H2985 H 0.96886 0.28006 0.92089 0.0
H2986 H -0.01016 0.26347 0.91839 0.0
H2987 H -0.00799 0.28304 0.89807 0.0
C2988 C 0.0602 0.26145 0.90505 0.0
C2989 C 0.07484 0.27303 0.89236 0.0
C2990 C 0.04067 0.26784 0.91632 0.0
C2991 C 0.03573 0.28588 0.91518 0.0
C2992 C 0.04923 0.29708 0.89998 0.0
H2993 H 0.98135 0.29739 0.07733 0.0
H2994 H -0.00696 0.31005 1.03433 0.0
C2995 C 0.06867 0.29064 0.88844 0.0
C2996 C 0.02132 0.29311 0.93635 0.0
H2997 H 0.97597 0.27905 0.9706 0.0
C2998 C 0.03208 0.30212 0.9573 0.0
C2999 C -0.00013 0.28635 0.94052 0.0
C3000 C -0.01308 0.27787 0.91807 0.0
C3001 C 0.02393 0.30136 0.98367 0.0
C3002 C 0.00423 0.2919 0.98854 0.0
C3003 C -0.00851 0.28582 0.96677 0.0
C3004 C -0.00088 0.28489 1.01541 0.0
C3005 C 0.03782 0.30864 1.00636 0.0
C3006 C -0.00056 0.26662 1.01913 0.0
C3007 C -0.00743 0.25937 1.04344 0.0
C3008 C 0.98561 0.27034 0.06441 0.0
C3009 C -0.01299 0.28868 0.06148 0.0
C3010 C -0.00652 0.29594 1.03691 0.0
H3011 H 0.05367 0.31437 0.99909 0.0
H3012 H 0.02843 0.31908 1.017 0.0
H3013 H 0.04166 0.29815 1.02118 0.0
H3014 H 0.00412 0.25792 1.00278 0.0
H3015 H -0.00858 0.24522 1.04526 0.0
H3016 H 0.2372 0.29727 0.2738 0.0
H3017 H 0.2232 0.31089 0.31524 0.0
H3018 H 0.2226 0.26012 0.35389 0.0
H3019 H 0.23719 0.2466 0.31299 0.0
H3020 H 0.18646 0.30594 0.34374 0.0
H3021 H 0.25674 0.28863 0.40839 0.0
H3022 H 0.25862 0.28811 0.37201 0.0
H3023 H 0.24854 0.26929 0.39044 0.0
C3024 C 0.23368 0.28901 0.29106 0.0
C3025 C 0.2383 0.27092 0.29046 0.0
C3026 C 0.22605 0.29685 0.31474 0.0
C3027 C 0.22296 0.28662 0.33789 0.0
C3028 C 0.22596 0.26835 0.33656 0.0
H3029 H 0.14653 0.25038 0.43626 0.0
H3030 H 0.17894 0.26258 0.41347 0.0
C3031 C 0.23377 0.26057 0.31308 0.0
C3032 C 0.21487 0.29444 0.36315 0.0
H3033 H 0.21916 0.28608 0.43022 0.0
C3034 C 0.194 0.30246 0.36284 0.0
C3035 C 0.22513 0.2905 0.38803 0.0
C3036 C 0.24865 0.28386 0.38966 0.0
C3037 C 0.18146 0.30361 0.38648 0.0
C3038 C 0.19018 0.29638 0.41046 0.0
C3039 C 0.21243 0.29126 0.41157 0.0
C3040 C 0.17491 0.2887 0.43014 0.0
C3041 C 0.15786 0.31009 0.38485 0.0
C3042 C 0.16269 0.29925 0.44779 0.0
C3043 C 0.1442 0.29228 0.46081 0.0
C3044 C 0.1378 0.2748 0.45597 0.0
C3045 C 0.15111 0.26392 0.44003 0.0
C3046 C 0.16966 0.27084 0.42725 0.0
H3047 H 0.15424 0.31649 0.36522 0.0
H3048 H 0.14628 0.29889 0.38751 0.0
H3049 H 0.1546 0.31967 0.40124 0.0
H3050 H 0.16657 0.31306 0.45007 0.0
H3051 H 0.13417 0.30085 0.47328 0.0
H3052 H -0.01247 0.96157 0.26896 0.0
H3053 H 0.00227 0.948 0.30998 0.0
H3054 H 0.0002 0.99833 0.35001 0.0
H3055 H 0.98491 0.01179 0.30948 0.0
H3056 H 0.03867 0.9539 0.33906 0.0
H3057 H 0.96659 0.96803 0.40301 0.0
H3058 H 0.96526 0.96904 0.36663 0.0
H3059 H 0.97433 0.98781 0.38592 0.0
C3060 C -0.00935 0.96976 0.2864 0.0
C3061 C 0.98503 0.98768 0.2863 0.0
C3062 C -0.00128 0.96195 0.30985 0.0
C3063 C 0.00124 0.97202 0.33328 0.0
C3064 C -0.00268 0.99019 0.33244 0.0
H3065 H 0.07395 0.00756 0.43776 0.0
H3066 H 0.04221 0.99539 0.41373 0.0
C3067 C -0.01091 0.99795 0.30917 0.0
C3068 C 0.00945 0.96414 0.3584 0.0
H3069 H 0.0035 0.9705 0.42585 0.0
C3070 C 0.03065 0.9567 0.35816 0.0
C3071 C -0.00142 0.96722 0.38322 0.0
C3072 C 0.9748 0.97326 0.38463 0.0
C3073 C 0.04277 0.95519 0.38205 0.0
C3074 C 0.03327 0.96143 0.4063 0.0
C3075 C 0.01082 0.96605 0.40706 0.0
C3076 C 0.04779 0.96868 0.42719 0.0
C3077 C 0.06665 0.94934 0.3806 0.0
C3078 C 0.0606 0.95775 0.44362 0.0
C3079 C 0.07875 0.96472 0.45734 0.0
C3080 C 0.08418 0.98258 0.45444 0.0
C3081 C 0.07014 0.99373 0.43999 0.0
C3082 C 0.05195 0.98681 0.42651 0.0
H3083 H 0.07109 0.94408 0.36041 0.0
H3084 H 0.07774 0.96059 0.38517 0.0
H3085 H 0.06978 0.93898 0.39584 0.0
H3086 H 0.05753 0.94374 0.44428 0.0
H3087 H 0.08935 0.95593 0.46866 0.0
H3088 H 0.82271 0.99853 0.18738 0.0
H3089 H 0.79004 0.01059 0.16507 0.0
H3090 H 0.80257 0.06121 0.20113 0.0
H3091 H 0.83529 0.04914 0.22375 0.0
H3092 H 0.74997 0.03367 0.1798 0.0
H3093 H 0.81602 0.0651 0.11749 0.0
H3094 H 0.8237 0.04783 0.14051 0.0
H3095 H 0.81436 0.0686 0.15337 0.0
C3096 C 0.81809 0.01206 0.19119 0.0
C3097 C 0.83161 0.02304 0.20664 0.0
C3098 C 0.79937 0.0189 0.1787 0.0
C3099 C 0.79415 0.03679 0.18141 0.0
C3100 C 0.80644 0.04739 0.19891 0.0
H3101 H 0.73572 0.04593 1.02306 0.0
H3102 H 0.74865 0.05925 0.06518 0.0
C3103 C 0.82512 0.04049 0.21159 0.0
C3104 C 0.77924 0.04448 0.16132 0.0
H3105 H 0.78455 0.05449 0.09489 0.0
C3106 C 0.75709 0.03904 0.16149 0.0
C3107 C 0.78844 0.05197 0.13776 0.0
C3108 C 0.81191 0.05881 0.13707 0.0
C3109 C 0.74507 0.03823 0.13745 0.0
C3110 C 0.75592 0.04245 0.11303 0.0
C3111 C 0.77658 0.05078 0.11365 0.0
C3112 C 0.74864 0.03478 0.08732 0.0
C3113 C 0.72168 0.03128 0.13809 0.0
C3114 C 0.74593 0.0165 0.0855 0.0
C3115 C 0.73873 0.00889 0.06161 0.0
C3116 C 0.73453 0.01943 1.0391 0.0
C3117 C 0.73899 0.03753 1.04022 0.0
C3118 C 0.74599 0.04519 0.06429 0.0
H3119 H 0.71297 0.0358 0.15658 0.0
H3120 H 0.71209 0.03552 0.12014 0.0
H3121 H 0.72209 0.01671 0.13865 0.0
H3122 H 0.74898 0.00814 0.10275 0.0
H3123 H 0.73542 0.99491 0.06114 0.0
H3124 H -0.01115 0.76096 0.06102 0.0
H3125 H 0.97458 0.74715 0.10184 0.0
H3126 H 0.97563 0.69656 0.06254 0.0
H3127 H -0.01066 0.71045 1.0212 0.0
H3128 H 0.93901 0.70118 0.09195 0.0
H3129 H 0.01027 0.71855 0.15504 0.0
H3130 H 0.00156 0.73787 0.13744 0.0
H3131 H 0.01151 0.71915 0.11862 0.0
C3132 C 0.98555 0.74697 0.06093 0.0
C3133 C -0.00979 0.73673 1.03819 0.0
C3134 C 0.97793 0.73903 0.08436 0.0
C3135 C 0.97522 0.72073 0.08548 0.0
C3136 C 0.97828 0.71063 0.06218 0.0
H3137 H 0.88803 0.70575 0.2217 0.0
H3138 H 0.92037 0.69356 0.19829 0.0
C3139 C 0.98574 0.71862 1.03856 0.0
C3140 C 0.96765 0.71271 0.1108 0.0
H3141 H 0.97309 0.72068 0.17786 0.0
C3142 C 0.94686 0.70458 0.11091 0.0
C3143 C 0.97833 0.71654 0.13546 0.0
C3144 C 0.0018 0.72331 0.13656 0.0
C3145 C 0.93475 0.70324 0.13485 0.0
C3146 C 0.94383 0.71039 0.15872 0.0
C3147 C 0.96607 0.71557 0.15932 0.0
C3148 C 0.92885 0.71803 0.1788 0.0
C3149 C 0.91117 0.69667 0.13371 0.0
C3150 C 0.92374 0.73595 0.17633 0.0
C3151 C 0.90524 0.74286 0.18924 0.0
C3152 C 0.89182 0.73191 0.20489 0.0
C3153 C 0.89814 0.71437 0.20943 0.0
C3154 C 0.9166 0.70741 0.19629 0.0
H3155 H 0.90723 0.69045 0.11403 0.0
H3156 H 0.90831 0.68691 0.14993 0.0
H3157 H 0.89955 0.70779 0.13699 0.0
H3158 H 0.93305 0.74426 0.16268 0.0
H3159 H 0.90073 0.75644 0.18572 0.0
H3160 H 0.82403 0.75686 0.66812 0.0
H3161 H 0.79201 0.74425 0.69118 0.0
H3162 H 0.80509 0.69396 0.65428 0.0
H3163 H 0.83709 0.7066 0.63079 0.0
H3164 H 0.75214 0.7202 0.67506 0.0
H3165 H 0.81837 0.69062 0.73894 0.0
H3166 H 0.82585 0.70826 0.71648 0.0
H3167 H 0.81758 0.68741 0.70292 0.0
C3168 C 0.81967 0.74328 0.66433 0.0
C3169 C 0.83308 0.73258 0.64824 0.0
C3170 C 0.80134 0.73612 0.67726 0.0
C3171 C 0.79642 0.71819 0.67438 0.0
C3172 C 0.80871 0.70782 0.65656 0.0
H3173 H 0.73616 0.71077 0.83186 0.0
H3174 H 0.75006 0.69669 0.79073 0.0
C3175 C 0.82697 0.71503 0.64338 0.0
C3176 C 0.78156 0.7103 0.69432 0.0
H3177 H 0.78652 0.70138 0.76112 0.0
C3178 C 0.75923 0.71522 0.69364 0.0
C3179 C 0.79075 0.7033 0.71821 0.0
C3180 C 0.81443 0.69698 0.71937 0.0
C3181 C 0.74694 0.71613 0.71748 0.0
C3182 C 0.75769 0.71254 0.74218 0.0
C3183 C 0.77861 0.70461 0.74214 0.0
C3184 C 0.75002 0.72068 0.76739 0.0
C3185 C 0.72335 0.72263 0.71632 0.0
C3186 C 0.747 0.73896 0.76823 0.0
C3187 C 0.73925 0.747 0.79154 0.0
C3188 C 0.73481 0.7369 0.81445 0.0
C3189 C 0.73961 0.71883 0.81437 0.0
C3190 C 0.74717 0.71073 0.79087 0.0
H3191 H 0.71496 0.71766 0.6979 0.0
H3192 H 0.71372 0.71849 0.73431 0.0
H3193 H 0.72332 0.73719 0.71523 0.0
H3194 H 0.75018 0.74697 0.75062 0.0
H3195 H 0.73571 0.76095 0.79122 0.0
H3196 H 0.87928 0.03118 0.69354 0.0
H3197 H 0.91423 0.04286 0.71022 0.0
H3198 H 0.93787 0.04882 0.62858 0.0
H3199 H 0.90225 0.03765 0.6117 0.0
H3200 H 0.96041 0.0241 0.66171 0.0
H3201 H 0.95409 0.08728 0.71455 0.0
H3202 H 0.92887 0.07507 0.71854 0.0
H3203 H 0.93744 0.08187 0.68532 0.0
C3204 C 0.89171 0.03544 0.67918 0.0
C3205 C 0.88848 0.03329 0.6515 0.0
C3206 C 0.91147 0.04243 0.68864 0.0
C3207 C 0.92844 0.047 0.67055 0.0
C3208 C 0.92476 0.04574 0.64273 0.0
H3209 H 0.03132 0.00879 0.77519 0.0
H3210 H 0.02068 0.02381 0.73386 0.0
C3211 C 0.90463 0.03916 0.63321 0.0
C3212 C 0.951 0.04812 0.68143 0.0
H3213 H 0.97259 0.06317 0.74021 0.0
C3214 C 0.96396 0.03299 0.67826 0.0
C3215 C 0.95583 0.06002 0.70234 0.0
C3216 C 0.94342 0.07708 0.70518 0.0
C3217 C 0.97812 0.02745 0.69887 0.0
C3218 C 0.98008 0.03803 0.72226 0.0
C3219 C 0.97047 0.05484 0.72266 0.0
C3220 C -0.01217 0.0306 0.74801 0.0
C3221 C -0.01171 0.00935 0.69687 0.0
C3222 C 0.97321 0.03008 0.77015 0.0
C3223 C 0.97953 0.02199 0.79415 0.0
C3224 C 0.00023 0.01386 0.79591 0.0
C3225 C 0.01488 0.01445 0.77387 0.0
C3226 C 0.0089 0.02309 0.75029 0.0
H3227 H 0.98228 1.00196 0.679 0.0
H3228 H 0.00656 0.01055 0.6951 0.0
H3229 H 0.98447 1.00152 0.71515 0.0
H3230 H 0.9568 0.0358 0.76875 0.0
H3231 H 0.96829 0.022 0.8112 0.0
H3232 H 0.22983 0.51241 0.54177 0.0
H3233 H 0.21541 0.4995 0.50024 0.0
H3234 H 0.22348 0.44757 0.53372 0.0
H3235 H 0.23683 0.46047 0.57579 0.0
H3236 H 0.24083 0.47682 0.4679 0.0
H3237 H 0.16197 0.44508 0.50128 0.0
H3238 H 0.17584 0.46103 0.52219 0.0
H3239 H 0.18732 0.43944 0.51821 0.0
C3240 C 0.22769 0.4983 0.54057 0.0
C3241 C 0.23424 0.48742 0.56182 0.0
C3242 C 0.21983 0.49092 0.51681 0.0
C3243 C 0.21874 0.47259 0.51391 0.0
C3244 C 0.22409 0.46172 0.53568 0.0
H3245 H 0.13549 0.45565 0.37886 0.0
H3246 H 0.16903 0.44447 0.40054 0.0
C3247 C 0.23153 0.46913 0.55971 0.0
C3248 C 0.21244 0.46529 0.4876 0.0
H3249 H 0.16677 0.44999 0.45543 0.0
C3250 C 0.22492 0.47045 0.46504 0.0
C3251 C 0.19216 0.45637 0.48403 0.0
C3252 C 0.17843 0.45015 0.50761 0.0
C3253 C 0.21593 0.46945 0.43915 0.0
C3254 C 0.19414 0.46314 0.43614 0.0
C3255 C 0.18341 0.4551 0.45801 0.0
C3256 C 0.1797 0.46994 0.41476 0.0
C3257 C 0.2287 0.47697 0.41574 0.0
C3258 C 0.17517 0.48806 0.41477 0.0
C3259 C 0.15582 0.4944 0.40306 0.0
C3260 C 0.14098 0.48269 0.39105 0.0
C3261 C 0.14669 0.46488 0.38838 0.0
C3262 C 0.16593 0.45849 0.4004 0.0
H3263 H 0.24675 0.47462 0.41825 0.0
H3264 H 0.22316 0.47119 0.39632 0.0
H3265 H 0.22607 0.49139 0.41499 0.0
H3266 H 0.18536 0.49707 0.42626 0.0
H3267 H 0.15178 0.50821 0.40503 0.0
H3268 H 0.08426 0.80029 0.37926 0.0
H3269 H 0.05155 0.8129 0.40126 0.0
H3270 H 0.03851 0.763 0.43926 0.0
H3271 H 0.07119 0.75039 0.41755 0.0
H3272 H -0.00139 0.78599 0.42278 0.0
H3273 H 0.06389 0.81834 0.48501 0.0
H3274 H 0.0627 0.82112 0.44895 0.0
H3275 H 0.07197 0.80066 0.46291 0.0
C3276 C 0.07401 0.79192 0.39176 0.0
C3277 C 0.08033 0.77451 0.39736 0.0
C3278 C 0.05533 0.79912 0.40407 0.0
C3279 C 0.04286 0.78888 0.42187 0.0
C3280 C 0.04798 0.77103 0.42537 0.0
H3281 H 0.9851 0.74676 0.54034 0.0
H3282 H -0.00192 0.76062 0.49895 0.0
C3283 C 0.0667 0.76388 0.41323 0.0
C3284 C 0.02772 0.79696 0.44138 0.0
H3285 H 0.03252 0.80741 0.5077 0.0
C3286 C 0.00556 0.79153 0.44107 0.0
C3287 C 0.03667 0.80471 0.46488 0.0
C3288 C 0.06009 0.81166 0.46565 0.0
C3289 C -0.0066 0.79079 0.46503 0.0
C3290 C 0.00412 0.79511 0.48948 0.0
C3291 C 0.02467 0.8036 0.48893 0.0
C3292 C -0.00292 0.7871 0.51505 0.0
C3293 C 0.97008 0.7837 0.46433 0.0
C3294 C -0.00573 0.79724 0.53836 0.0
C3295 C -0.0124 0.78923 0.56231 0.0
C3296 C 0.98365 0.77104 0.563 0.0
C3297 C -0.01198 0.7608 0.54019 0.0
C3298 C -0.00512 0.76877 0.51644 0.0
H3299 H 0.96137 0.78824 0.44589 0.0
H3300 H 0.97063 0.76913 0.4636 0.0
H3301 H 0.96043 0.78781 0.48233 0.0
H3302 H -0.00345 0.81135 0.5378 0.0
H3303 H 0.98418 0.7974 0.5797 0.0
H3304 H 0.23429 0.74431 0.80793 0.0
H3305 H 0.21882 0.75741 0.84879 0.0
H3306 H 0.22538 0.80907 0.81386 0.0
H3307 H 0.23989 0.79593 0.77245 0.0
H3308 H 0.24282 0.78129 0.88092 0.0
H3309 H 0.16302 0.81012 0.84481 0.0
H3310 H 0.1779 0.79418 0.82487 0.0
H3311 H 0.18835 0.81614 0.82808 0.0
C3312 C 0.23165 0.75838 0.80867 0.0
C3313 C 0.23807 0.76913 0.78719 0.0
C3314 C 0.22317 0.76588 0.83206 0.0
C3315 C 0.2213 0.7842 0.83434 0.0
C3316 C 0.22659 0.79491 0.81236 0.0
H3317 H 0.13643 0.80201 0.96875 0.0
H3318 H 0.16936 0.81328 0.94575 0.0
C3319 C 0.2347 0.78737 0.78871 0.0
C3320 C 0.21421 0.79167 0.86026 0.0
H3321 H 0.16733 0.80609 0.89097 0.0
C3322 C 0.22658 0.78724 0.88324 0.0
C3323 C 0.19344 0.8 0.86309 0.0
C3324 C 0.17979 0.8054 0.839 0.0
C3325 C 0.21717 0.78842 0.90892 0.0
C3326 C 0.19508 0.79418 0.91129 0.0
C3327 C 0.18425 0.80143 0.88888 0.0
C3328 C 0.18078 0.78766 0.93303 0.0
C3329 C 0.22996 0.78174 0.93287 0.0
C3330 C 0.17688 0.76948 0.93423 0.0
C3331 C 0.15788 0.76307 0.9467 0.0
C3332 C 0.14277 0.77479 0.95827 0.0
C3333 C 0.14786 0.79277 0.95963 0.0
C3334 C 0.16673 0.79922 0.94682 0.0
H3335 H 0.24796 0.7844 0.93045 0.0
H3336 H 0.22404 0.78785 0.95189 0.0
H3337 H 0.2278 0.7673 0.93441 0.0
H3338 H 0.1873 0.76038 0.92318 0.0
H3339 H 0.15431 0.74914 0.9457 0.0
H3340 H 0.10211 0.44908 0.95416 0.0
H3341 H 0.07473 0.43404 0.92568 0.0
H3342 H 0.0452 0.48407 0.90617 0.0
H3343 H 0.07255 0.49907 0.93407 0.0
H3344 H 0.01451 0.45161 0.91395 0.0
H3345 H 0.08473 0.44471 0.84162 0.0
H3346 H 0.08642 0.43679 0.87584 0.0
H3347 H 0.08788 0.45993 0.86921 0.0
C3348 C 0.08934 0.45675 0.94432 0.0
C3349 C 0.08943 0.47519 0.94582 0.0
C3350 C 0.07376 0.44815 0.92822 0.0
C3351 C 0.05811 0.458 0.91395 0.0
C3352 C 0.05714 0.47629 0.91729 0.0
H3353 H 0.98418 0.50512 0.81506 0.0
H3354 H 0.00304 0.48809 0.84979 0.0
C3355 C 0.0728 0.48486 0.93301 0.0
C3356 C 0.04519 0.45039 0.89182 0.0
H3357 H 0.04982 0.45269 0.82364 0.0
C3358 C 0.02207 0.45087 0.89413 0.0
C3359 C 0.05512 0.44895 0.86611 0.0
C3360 C 0.07991 0.44746 0.86283 0.0
C3361 C 0.00889 0.45312 0.87123 0.0
C3362 C 0.01936 0.45527 0.84595 0.0
C3363 C 0.04197 0.45152 0.84324 0.0
C3364 C 0.0086 0.46535 0.82432 0.0
C3365 C 0.98418 0.45504 0.87463 0.0
C3366 C 0.00711 0.4587 0.79807 0.0
C3367 C -0.0032 0.46863 0.77802 0.0
C3368 C -0.01199 0.48528 0.78411 0.0
C3369 C -0.00921 0.49231 0.80995 0.0
C3370 C 0.00114 0.48245 0.82987 0.0
H3371 H 0.97807 0.44634 0.891 0.0
H3372 H 0.98026 0.46877 0.88047 0.0
H3373 H 0.97521 0.45187 0.85571 0.0
H3374 H 0.01333 0.44572 0.79332 0.0
H3375 H -0.00524 0.46292 0.75817 0.0
H3376 H 0.73405 0.54659 0.52026 0.0
H3377 H 0.75031 0.5591 0.56116 0.0
H3378 H 0.75642 0.50706 0.59481 0.0
H3379 H 0.73935 0.49459 0.55449 0.0
H3380 H 0.73351 0.53134 0.62807 0.0
H3381 H 0.8137 0.55839 0.59003 0.0
H3382 H 0.78834 0.56486 0.57379 0.0
H3383 H 0.79805 0.54269 0.57058 0.0
C3384 C 0.7395 0.53781 0.5361 0.0
C3385 C 0.73556 0.51965 0.53444 0.0
C3386 C 0.74863 0.54499 0.55945 0.0
C3387 C 0.75429 0.53399 0.58096 0.0
C3388 C 0.75182 0.51574 0.57844 0.0
H3389 H 0.82214 0.49924 0.69498 0.0
H3390 H 0.78975 0.51004 0.67073 0.0
C3391 C 0.74238 0.50861 0.55536 0.0
C3392 C 0.76214 0.54113 0.60675 0.0
H3393 H 0.80981 0.55473 0.63642 0.0
C3394 C 0.74995 0.53697 0.63001 0.0
C3395 C 0.78322 0.54898 0.60908 0.0
C3396 C 0.79672 0.554 0.58464 0.0
C3397 C 0.75965 0.53813 0.6555 0.0
C3398 C 0.78188 0.54359 0.65743 0.0
C3399 C 0.79276 0.55036 0.63467 0.0
C3400 C 0.79606 0.53749 0.67953 0.0
C3401 C 0.74691 0.53186 0.67978 0.0
C3402 C 0.80978 0.54932 0.69321 0.0
C3403 C 0.82826 0.54312 0.70709 0.0
C3404 C 0.83332 0.52511 0.70685 0.0
C3405 C 0.81856 0.51318 0.69517 0.0
C3406 C 0.79993 0.51935 0.68168 0.0
H3407 H 0.7289 0.53446 0.67739 0.0
H3408 H 0.74915 0.51745 0.68191 0.0
H3409 H 0.75288 0.5383 0.69851 0.0
H3410 H 0.80717 0.56335 0.69138 0.0
H3411 H 0.83945 0.55253 0.71619 0.0
H3412 H -0.01261 0.25363 0.56674 0.0
H3413 H 0.97233 0.23546 0.60282 0.0
H3414 H 0.96534 0.19199 0.54762 0.0
H3415 H 0.98003 0.21032 0.51111 0.0
H3416 H 0.92978 0.19564 0.58059 0.0
H3417 H 0.00464 0.19662 0.64299 0.0
H3418 H -0.00072 0.21859 0.63191 0.0
H3419 H 0.00525 0.20171 0.60737 0.0
C3420 C 0.98223 0.24032 0.56218 0.0
C3421 C 0.98491 0.23333 0.5363 0.0
C3422 C 0.97411 0.22983 0.58287 0.0
C3423 C 0.96882 0.21214 0.57807 0.0
C3424 C 0.96997 0.20546 0.5518 0.0
H3425 H 0.88223 0.19899 0.71327 0.0
H3426 H 0.91 0.18242 0.6873 0.0
C3427 C 0.97802 0.21602 0.53097 0.0
C3428 C 0.9606 0.20139 0.60061 0.0
H3429 H 0.9686 0.20053 0.66831 0.0
C3430 C 0.93854 0.19573 0.59967 0.0
C3431 C 0.97232 0.20071 0.62523 0.0
C3432 C -0.0032 0.20453 0.62679 0.0
C3433 C 0.92671 0.19302 0.62358 0.0
C3434 C 0.93731 0.19649 0.64841 0.0
C3435 C 0.96039 0.19838 0.64914 0.0
C3436 C 0.92458 0.20558 0.66941 0.0
C3437 C 0.90213 0.1896 0.6221 0.0
C3438 C 0.92426 0.224 0.66843 0.0
C3439 C 0.90831 0.23337 0.68261 0.0
C3440 C 0.89274 0.22443 0.69829 0.0
C3441 C 0.89421 0.20609 0.7012 0.0
C3442 C 0.91001 0.19663 0.68655 0.0
H3443 H 0.89712 0.18465 0.60194 0.0
H3444 H 0.89718 0.17985 0.6376 0.0
H3445 H 0.89298 0.20198 0.62617 0.0
H3446 H 0.93531 0.23108 0.65506 0.0
H3447 H 0.90749 0.24751 0.68027 0.0
H3448 H 0.73532 0.26294 0.28972 0.0
H3449 H 0.74837 0.25027 0.24742 0.0
H3450 H 0.74724 0.19853 0.28291 0.0
H3451 H 0.73484 0.21128 0.3257 0.0
H3452 H 0.78306 0.20324 0.25365 0.0
H3453 H 0.71239 0.2241 0.19216 0.0
H3454 H 0.72191 0.24279 0.21072 0.0
H3455 H 0.7113 0.22393 0.22859 0.0
C3456 C 0.73832 0.24893 0.28862 0.0
C3457 C 0.73411 0.23807 0.31078 0.0
C3458 C 0.74522 0.24164 0.26434 0.0
C3459 C 0.74761 0.22337 0.26174 0.0
C3460 C 0.74485 0.2126 0.28438 0.0
H3461 H 0.83496 0.20844 0.12577 0.0
H3462 H 0.80168 0.19698 0.14799 0.0
C3463 C 0.73816 0.21993 0.30885 0.0
C3464 C 0.75488 0.21606 0.23575 0.0
H3465 H 0.74958 0.22583 0.16922 0.0
C3466 C 0.77531 0.20737 0.23497 0.0
C3467 C 0.74432 0.22086 0.21141 0.0
C3468 C 0.72112 0.22823 0.21084 0.0
C3469 C 0.78728 0.20627 0.2109 0.0
C3470 C 0.77843 0.2142 0.18749 0.0
C3471 C 0.75645 0.22011 0.18741 0.0
C3472 C 0.79365 0.22159 0.16743 0.0
C3473 C 0.81055 0.19897 0.21156 0.0
C3474 C 0.79926 0.23941 0.17003 0.0
C3475 C 0.81827 0.24591 0.15772 0.0
C3476 C 0.83171 0.23465 0.14259 0.0
C3477 C 0.82487 0.21728 0.13771 0.0
C3478 C 0.80586 0.21074 0.15017 0.0
H3479 H 0.8145 0.19266 0.23117 0.0
H3480 H 0.81266 0.18907 0.19534 0.0
H3481 H 0.82268 0.20969 0.20798 0.0
H3482 H 0.78999 0.24792 0.18346 0.0
H3483 H 0.82315 0.25938 0.16146 0.0
H3484 H 0.89783 0.50101 0.1649 0.0
H3485 H 0.9292 0.51338 0.18945 0.0
H3486 H 0.91534 0.56453 0.15608 0.0
H3487 H 0.88398 0.55213 0.13106 0.0
H3488 H 0.96862 0.53822 0.17577 0.0
H3489 H 0.90115 0.56523 0.24068 0.0
H3490 H 0.89437 0.54815 0.21689 0.0
H3491 H 0.90223 0.56949 0.20494 0.0
C3492 C 0.90189 0.51476 0.16219 0.0
C3493 C 0.88844 0.52572 0.14663 0.0
C3494 C 0.91985 0.52178 0.17598 0.0
C3495 C 0.92435 0.53985 0.17455 0.0
C3496 C 0.91204 0.55057 0.15726 0.0
H3497 H 0.98513 0.54609 0.33245 0.0
H3498 H 0.9703 0.5602 0.29186 0.0
C3499 C 0.89416 0.54348 0.14317 0.0
C3500 C 0.93885 0.54732 0.19525 0.0
H3501 H 0.93329 0.55482 0.26246 0.0
C3502 C 0.96129 0.5427 0.19453 0.0
C3503 C 0.92932 0.55361 0.21944 0.0
C3504 C 0.90546 0.55951 0.22074 0.0
C3505 C 0.97346 0.5415 0.21841 0.0
C3506 C 0.96252 0.54453 0.24319 0.0
C3507 C 0.94136 0.55205 0.24338 0.0
C3508 C 0.97049 0.53634 0.26818 0.0
C3509 C -0.0028 0.53535 0.2171 0.0
C3510 C 0.9739 0.5181 0.26866 0.0
C3511 C 0.98215 0.51004 0.29167 0.0
C3512 C -0.01323 0.52008 0.31461 0.0
C3513 C 0.98159 0.53808 0.31492 0.0
C3514 C 0.97347 0.5462 0.29173 0.0
H3515 H 0.0055 0.54053 0.19876 0.0
H3516 H 0.00671 0.53952 0.23516 0.0
H3517 H -0.00244 0.52079 0.21582 0.0
H3518 H 0.97068 0.51015 0.25098 0.0
H3519 H 0.98597 0.49613 0.29105 0.0
H3520 H 0.74369 0.95941 0.57517 0.0
H3521 H 0.73015 0.94718 0.53258 0.0
H3522 H 0.72421 0.99959 0.50027 0.0
H3523 H 0.73825 0.01181 0.5424 0.0
H3524 H 0.69217 0.9519 0.50556 0.0
H3525 H 0.76058 0.97546 0.44222 0.0
H3526 H 0.76271 0.97418 0.47853 0.0
H3527 H 0.75089 0.99332 0.46259 0.0
C3528 C 0.73912 0.9683 0.55908 0.0
C3529 C 0.74209 0.98653 0.56181 0.0
C3530 C 0.73173 0.96129 0.53473 0.0
C3531 C 0.72726 0.97246 0.51302 0.0
C3532 C 0.72861 0.99073 0.51649 0.0
H3533 H 0.64897 0.00897 0.41574 0.0
H3534 H 0.68225 0.99751 0.43748 0.0
C3535 C 0.73613 0.99773 0.54068 0.0
C3536 C 0.71954 0.96546 0.48708 0.0
H3537 H 0.72301 0.97638 0.42082 0.0
C3538 C 0.69933 0.95645 0.48676 0.0
C3539 C 0.72937 0.97086 0.46259 0.0
C3540 C 0.75225 0.97879 0.46154 0.0
C3541 C 0.68683 0.95555 0.4631 0.0
C3542 C 0.69494 0.96397 0.4397 0.0
C3543 C 0.71674 0.97025 0.43902 0.0
C3544 C 0.67913 0.97141 0.42045 0.0
C3545 C 0.66377 0.9479 0.46431 0.0
C3546 C 0.66712 0.96066 0.40288 0.0
C3547 C 0.64807 0.9672 0.39058 0.0
C3548 C 0.64096 0.98445 0.39593 0.0
C3549 C 0.65408 0.99559 0.41162 0.0
C3550 C 0.67313 0.9891 0.42378 0.0
H3551 H 0.66046 0.94115 0.48375 0.0
H3552 H 0.65132 0.9585 0.46169 0.0
H3553 H 0.66149 0.9383 0.44771 0.0
H3554 H 0.67161 0.947 0.40017 0.0
H3555 H 0.63822 0.95845 0.37822 0.0
H3556 H 0.4891 0.24548 0.54358 0.0
H3557 H 0.5054 0.25825 0.50298 0.0
H3558 H 0.49836 0.31017 0.53697 0.0
H3559 H 0.48296 0.29736 0.57815 0.0
H3560 H 0.48233 0.2821 0.46971 0.0
H3561 H 0.56156 0.31054 0.50825 0.0
H3562 H 0.5461 0.29478 0.52781 0.0
H3563 H 0.53591 0.31678 0.52406 0.0
C3564 C 0.49175 0.25954 0.54268 0.0
C3565 C 0.48499 0.27046 0.56384 0.0
C3566 C 0.50072 0.26685 0.51945 0.0
C3567 C 0.50276 0.28514 0.51698 0.0
C3568 C 0.49703 0.29603 0.53863 0.0
H3569 H 0.59003 0.302 0.38393 0.0
H3570 H 0.55706 0.31338 0.40679 0.0
C3571 C 0.4884 0.28868 0.56214 0.0
C3572 C 0.51055 0.29239 0.49124 0.0
H3573 H 0.55833 0.30619 0.46199 0.0
C3574 C 0.49868 0.2879 0.46789 0.0
C3575 C 0.53149 0.3005 0.48903 0.0
C3576 C 0.54463 0.30594 0.51353 0.0
C3577 C 0.50871 0.28884 0.44254 0.0
C3578 C 0.53091 0.29442 0.44086 0.0
C3579 C 0.54132 0.30168 0.46356 0.0
C3580 C 0.54557 0.28781 0.41953 0.0
C3581 C 0.49641 0.2821 0.41823 0.0
C3582 C 0.54949 0.26963 0.41851 0.0
C3583 C 0.56851 0.26315 0.40613 0.0
C3584 C 0.58363 0.27481 0.39448 0.0
C3585 C 0.57859 0.2928 0.39308 0.0
C3586 C 0.55971 0.29932 0.40582 0.0
H3587 H 0.47837 0.28475 0.4201 0.0
H3588 H 0.50272 0.2882 0.39938 0.0
H3589 H 0.49867 0.26767 0.41677 0.0
H3590 H 0.539 0.26058 0.42952 0.0
H3591 H 0.57206 0.24922 0.40718 0.0
H3592 H 0.72195 0.25701 0.77813 0.0
H3593 H 0.69783 0.26785 0.81443 0.0
H3594 H 0.74265 0.31102 0.82849 0.0
H3595 H 0.76666 0.30033 0.79256 0.0
H3596 H 0.73826 0.28538 0.8709 0.0
H3597 H 0.65738 0.31101 0.83497 0.0
H3598 H 0.66675 0.29152 0.81793 0.0
H3599 H 0.68227 0.31154 0.81461 0.0
C3600 C 0.72611 0.26914 0.78836 0.0
C3601 C 0.7462 0.27767 0.78322 0.0
C3602 C 0.71235 0.27539 0.80886 0.0
C3603 C 0.71862 0.29021 0.82392 0.0
C3604 C 0.73761 0.29963 0.81692 0.0
H3605 H 0.63582 0.29917 0.96631 0.0
H3606 H 0.66585 0.31006 0.93771 0.0
C3607 C 0.75132 0.2934 0.79661 0.0
C3608 C 0.70842 0.29331 0.85024 0.0
H3609 H 0.65832 0.29921 0.88004 0.0
C3610 C 0.72094 0.28894 0.87311 0.0
C3611 C 0.686 0.2981 0.85283 0.0
C3612 C 0.67232 0.30347 0.8288 0.0
C3613 C 0.71089 0.28754 0.89837 0.0
C3614 C 0.688 0.29072 0.90047 0.0
C3615 C 0.67598 0.29681 0.87814 0.0
C3616 C 0.67524 0.28428 0.92345 0.0
C3617 C 0.72434 0.28143 0.92218 0.0
C3618 C 0.6714 0.26616 0.92541 0.0
C3619 C 0.65403 0.25994 0.94116 0.0
C3620 C 0.64062 0.27184 0.95518 0.0
C3621 C 0.64599 0.28979 0.95546 0.0
C3622 C 0.66312 0.29603 0.93933 0.0
H3623 H 0.74231 0.28396 0.91918 0.0
H3624 H 0.71876 0.28804 0.94096 0.0
H3625 H 0.72199 0.26707 0.9248 0.0
H3626 H 0.68054 0.25699 0.9129 0.0
H3627 H 0.65016 0.24605 0.94087 0.0
H3628 H 0.47607 0.95886 0.77731 0.0
H3629 H 0.48945 0.94809 0.82084 0.0
H3630 H 0.49778 1.00155 0.848 0.0
H3631 H 0.48386 0.01236 0.8049 0.0
H3632 H 0.52773 0.95271 0.84618 0.0
H3633 H 0.4619 0.98093 0.90925 0.0
H3634 H 0.45904 0.97853 0.87316 0.0
H3635 H 0.47226 0.99769 0.8873 0.0
C3636 C 0.4811 0.96829 0.79248 0.0
C3637 C 0.47889 0.98643 0.788 0.0
C3638 C 0.48839 0.96211 0.81738 0.0
C3639 C 0.49355 0.97404 0.83792 0.0
C3640 C 0.49285 0.99216 0.83273 0.0
H3641 H 0.57549 0.01019 0.93378 0.0
H3642 H 0.54137 0.99982 0.91273 0.0
C3643 C 0.48542 0.99833 0.80797 0.0
C3644 C 0.50151 0.96788 0.86424 0.0
H3645 H 0.49977 0.98087 0.92976 0.0
C3646 C 0.52118 0.95814 0.86478 0.0
C3647 C 0.49245 0.97446 0.88851 0.0
C3648 C 0.47008 0.98329 0.88951 0.0
C3649 C 0.53399 0.95743 0.88819 0.0
C3650 C 0.52672 0.96677 0.91122 0.0
C3651 C 0.50539 0.97401 0.91184 0.0
C3652 C 0.54318 0.97375 0.93009 0.0
C3653 C 0.55653 0.94883 0.887 0.0
C3654 C 0.55479 0.96269 0.94761 0.0
C3655 C 0.57436 0.96858 0.95946 0.0
C3656 C 0.58236 0.98552 0.95376 0.0
C3657 C 0.5697 0.99703 0.93814 0.0
C3658 C 0.55016 0.99117 0.92638 0.0
H3659 H 0.55934 0.9418 0.86767 0.0
H3660 H 0.56968 0.95891 0.8894 0.0
H3661 H 0.55822 0.93927 0.90373 0.0
H3662 H 0.54953 0.94924 0.95064 0.0
H3663 H 0.58384 0.95957 0.9718 0.0
H3664 H 0.23981 0.0501 0.50797 0.0
H3665 H 0.25813 0.06652 0.54416 0.0
H3666 H 0.25967 0.01956 0.59278 0.0
H3667 H 0.24082 1.00327 0.5571 0.0
H3668 H 0.23855 0.05094 0.61692 0.0
H3669 H 0.32274 0.06354 0.5744 0.0
H3670 H 0.2981 0.06842 0.55526 0.0
H3671 H 0.30603 0.04601 0.56077 0.0
C3672 C 0.24462 0.04321 0.52614 0.0
C3673 C 0.23893 0.02546 0.52996 0.0
C3674 C 0.25492 0.05263 0.54676 0.0
C3675 C 0.25988 0.04426 0.5711 0.0
C3676 C 0.25561 0.02624 0.57414 0.0
H3677 H 0.31673 0.00845 0.68443 0.0
H3678 H 0.28884 0.02388 0.65788 0.0
C3679 C 0.24511 0.01691 0.55373 0.0
C3680 C 0.26884 0.05394 0.59427 0.0
H3681 H 0.31927 0.0624 0.62155 0.0
C3682 C 0.25603 0.05422 0.6179 0.0
C3683 C 0.29139 0.05876 0.59523 0.0
C3684 C 0.30549 0.05926 0.57013 0.0
C3685 C 0.26614 0.05614 0.64305 0.0
C3686 C 0.28936 0.05777 0.64418 0.0
C3687 C 0.30142 0.06087 0.62045 0.0
C3688 C 0.3017 0.04986 0.66656 0.0
C3689 C 0.25246 0.05397 0.66824 0.0
C3690 C 0.31769 0.05944 0.68072 0.0
C3691 C 0.3334 0.0506 0.69629 0.0
C3692 C 0.33358 0.03215 0.69693 0.0
C3693 C 0.31682 0.02268 0.68406 0.0
C3694 C 0.30082 0.0315 0.66919 0.0
H3695 H 0.2354 0.05911 0.66521 0.0
H3696 H 0.25115 0.03978 0.67315 0.0
H3697 H 0.26022 0.06082 0.6856 0.0
H3698 H 0.31881 0.07356 0.67843 0.0
H3699 H 0.34636 0.0581 0.70608 0.0
H3700 H 0.40062 0.75769 0.68785 0.0
H3701 H 0.43305 0.74591 0.66458 0.0
H3702 H 0.42028 0.69465 0.69823 0.0
H3703 H 0.38781 0.70644 0.72183 0.0
H3704 H 0.47299 0.7223 0.67813 0.0
H3705 H 0.40662 0.69265 0.61435 0.0
H3706 H 0.39916 0.70954 0.63819 0.0
H3707 H 0.40817 0.68845 0.65005 0.0
C3708 C 0.40514 0.74406 0.69092 0.0
C3709 C 0.39163 0.73285 0.70599 0.0
C3710 C 0.42371 0.73737 0.67788 0.0
C3711 C 0.4288 0.71941 0.67966 0.0
C3712 C 0.41651 0.70853 0.69674 0.0
H3713 H 0.48837 0.71215 0.52128 0.0
H3714 H 0.47462 0.69847 0.56273 0.0
C3715 C 0.39797 0.71527 0.70998 0.0
C3716 C 0.44362 0.71207 0.65914 0.0
H3717 H 0.43835 0.70331 0.59227 0.0
C3718 C 0.46584 0.71732 0.65958 0.0
C3719 C 0.43436 0.70512 0.63523 0.0
C3720 C 0.41079 0.69852 0.63422 0.0
C3721 C 0.47793 0.71846 0.6356 0.0
C3722 C 0.46711 0.71474 0.61099 0.0
C3723 C 0.44631 0.70663 0.6112 0.0
C3724 C 0.47468 0.72267 0.5856 0.0
C3725 C 0.50141 0.72521 0.63659 0.0
C3726 C 0.47767 0.74094 0.58439 0.0
C3727 C 0.48534 0.74876 0.56088 0.0
C3728 C 0.48974 0.73844 0.53816 0.0
C3729 C 0.48496 0.72038 0.53861 0.0
C3730 C 0.47748 0.71251 0.56231 0.0
H3731 H 0.50997 0.72039 0.65498 0.0
H3732 H 0.51104 0.7211 0.61856 0.0
H3733 H 0.50119 0.73977 0.63757 0.0
H3734 H 0.47452 0.74912 0.60185 0.0
H3735 H 0.48887 0.76271 0.5609 0.0
H3736 H 0.32241 0.75882 0.16666 0.0
H3737 H 0.28987 0.74665 0.18921 0.0
H3738 H 0.30307 0.6959 0.15387 0.0
H3739 H 0.33565 0.70807 0.13104 0.0
H3740 H 0.25009 0.72317 0.17406 0.0
H3741 H 0.3158 0.69268 0.23788 0.0
H3742 H 0.32349 0.70993 0.21483 0.0
H3743 H 0.3147 0.68902 0.20201 0.0
C3744 C 0.31798 0.74522 0.1631 0.0
C3745 C 0.33162 0.73425 0.14775 0.0
C3746 C 0.29934 0.73832 0.17572 0.0
C3747 C 0.29432 0.72038 0.17321 0.0
C3748 C 0.30679 0.70976 0.15592 0.0
H3749 H 0.23394 0.71144 0.33066 0.0
H3750 H 0.24759 0.69805 0.28889 0.0
C3751 C 0.32539 0.7167 0.14312 0.0
C3752 C 0.27928 0.71273 0.19319 0.0
H3753 H 0.28382 0.70305 0.2598 0.0
C3754 C 0.25704 0.71795 0.19255 0.0
C3755 C 0.28828 0.70544 0.21699 0.0
C3756 C 0.31185 0.69885 0.21817 0.0
C3757 C 0.24467 0.71873 0.21635 0.0
C3758 C 0.25524 0.71471 0.24101 0.0
C3759 C 0.27605 0.7066 0.24087 0.0
C3760 C 0.24747 0.72242 0.26649 0.0
C3761 C 0.22117 0.72545 0.21521 0.0
C3762 C 0.24444 0.74068 0.26807 0.0
C3763 C 0.23682 0.74833 0.29176 0.0
C3764 C 0.23253 0.73785 0.31431 0.0
C3765 C 0.23728 0.71979 0.31346 0.0
C3766 C 0.2447 0.71209 0.28959 0.0
H3767 H 0.2128 0.72075 0.19661 0.0
H3768 H 0.2114 0.72119 0.23302 0.0
H3769 H 0.22133 0.74002 0.2145 0.0
H3770 H 0.24758 0.749 0.25078 0.0
H3771 H 0.2333 0.76229 0.29203 0.0
H3772 H 0.48877 0.99559 0.28838 0.0
H3773 H 0.47455 0.00911 0.24733 0.0
H3774 H 0.47368 0.05973 0.28657 0.0
H3775 H 0.48725 0.0461 0.32812 0.0
H3776 H 0.43774 0.05479 0.25728 0.0
H3777 H 0.50913 0.03801 0.1939 0.0
H3778 H 0.5006 0.01852 0.21118 0.0
H3779 H 0.51037 0.03716 0.2303 0.0
C3780 C 0.48508 0.00952 0.28838 0.0
C3781 C 0.48909 0.01983 0.31121 0.0
C3782 C 0.47749 0.01731 0.26482 0.0
C3783 C 0.47421 0.03555 0.26363 0.0
C3784 C 0.47675 0.04571 0.28696 0.0
H3785 H 0.38673 0.0517 0.12796 0.0
H3786 H 0.41925 0.06346 0.15142 0.0
C3787 C 0.48413 0.03787 0.31072 0.0
C3788 C 0.46646 0.04343 0.23828 0.0
H3789 H 0.472 0.03585 0.17109 0.0
C3790 C 0.44561 0.05149 0.23827 0.0
C3791 C 0.47717 0.03972 0.21356 0.0
C3792 C 0.5007 0.03308 0.21232 0.0
C3793 C 0.43353 0.05296 0.21437 0.0
C3794 C 0.44269 0.04601 0.19037 0.0
C3795 C 0.46493 0.04081 0.18971 0.0
C3796 C 0.42777 0.03869 0.16998 0.0
C3797 C 0.40994 0.05951 0.21562 0.0
C3798 C 0.42265 0.02075 0.17184 0.0
C3799 C 0.40405 0.01408 0.15889 0.0
C3800 C 0.39055 0.0253 0.14382 0.0
C3801 C 0.3969 0.04287 0.13978 0.0
C3802 C 0.41546 0.04959 0.15296 0.0
H3803 H 0.40586 0.0654 0.23552 0.0
H3804 H 0.40718 0.06956 0.19979 0.0
H3805 H 0.39834 0.04847 0.21181 0.0
H3806 H 0.432 0.01221 0.18511 0.0
H3807 H 0.39953 1.00046 0.16199 0.0
H3808 H 0.65955 0.49767 0.91068 0.0
H3809 H 0.68824 0.48261 0.93629 0.0
H3810 H 0.65765 0.43267 0.91865 0.0
H3811 H 0.62919 0.44781 0.89196 0.0
H3812 H 0.6577 0.44368 0.97393 0.0
H3813 H 0.74173 0.44847 0.93154 0.0
H3814 H 0.72598 0.46774 0.92341 0.0
H3815 H 0.71718 0.44668 0.91071 0.0
C3816 C 0.65949 0.48345 0.9114 0.0
C3817 C 0.64224 0.47384 0.89978 0.0
C3818 C 0.676 0.47481 0.9257 0.0
C3819 C 0.67515 0.4565 0.92905 0.0
C3820 C 0.65875 0.44675 0.91583 0.0
H3821 H 0.73396 0.45825 0.08937 0.0
H3822 H 0.71706 0.44151 0.05254 0.0
C3823 C 0.6425 0.45541 0.90082 0.0
C3824 C 0.68763 0.449 0.9517 0.0
H3825 H 0.7378 0.45742 0.97971 0.0
C3826 C 0.67546 0.44573 0.97529 0.0
C3827 C 0.71076 0.45128 0.95321 0.0
C3828 C 0.72467 0.45354 0.92823 0.0
C3829 C 0.68508 0.44834 1.00065 0.0
C3830 C 0.7074 0.45378 1.00192 0.0
C3831 C 0.72047 0.45369 0.9785 0.0
C3832 C 0.71578 0.46362 1.02527 0.0
C3833 C 0.67067 0.44762 1.02549 0.0
C3834 C 0.71993 0.48166 1.02223 0.0
C3835 C 0.72963 0.49119 1.04302 0.0
C3836 C 0.73514 0.48281 0.0672 0.0
C3837 C 0.72963 0.46503 0.07092 0.0
C3838 C 0.72014 0.45541 1.04992 0.0
H3839 H 0.65348 0.44335 1.02085 0.0
H3840 H 0.6779 0.43832 1.04027 0.0
H3841 H 0.66999 0.46078 1.03514 0.0
H3842 H 0.71633 0.48823 1.00336 0.0
H3843 H 0.73383 0.50485 1.0397 0.0
H3844 H 0.58608 0.80026 0.87879 0.0
H3845 H 0.55326 0.81217 0.90153 0.0
H3846 H 0.54026 0.76118 0.936 0.0
H3847 H 0.573 0.74928 0.91354 0.0
H3848 H 0.50041 0.78441 0.92143 0.0
H3849 H 0.56588 0.81515 0.98539 0.0
H3850 H 0.56464 0.81903 0.94959 0.0
H3851 H 0.57369 0.79809 0.96201 0.0
C3852 C 0.5758 0.79151 0.89063 0.0
C3853 C 0.58215 0.77398 0.89508 0.0
C3854 C 0.55706 0.79832 0.90339 0.0
C3855 C 0.5446 0.78755 0.92046 0.0
C3856 C 0.54973 0.76963 0.9227 0.0
H3857 H 0.48332 0.74588 1.04022 0.0
H3858 H 0.49753 0.75881 0.99869 0.0
C3859 C 0.56848 0.76287 0.91013 0.0
C3860 C 0.52949 0.79504 0.94056 0.0
H3861 H 0.53391 0.80483 1.00718 0.0
C3862 C 0.50731 0.78968 0.93993 0.0
C3863 C 0.53842 0.80237 0.96438 0.0
C3864 C 0.56194 0.80908 0.96559 0.0
C3865 C 0.49493 0.78886 0.96373 0.0
C3866 C 0.50543 0.79301 0.98839 0.0
C3867 C 0.5262 0.80119 0.98825 0.0
C3868 C 0.49757 0.78551 1.01398 0.0
C3869 C 0.47148 0.78206 0.96255 0.0
C3870 C 0.49485 0.79603 1.03691 0.0
C3871 C 0.48748 0.78853 0.06094 0.0
C3872 C 0.48271 0.77048 0.06212 0.0
C3873 C 0.48686 0.75983 1.03969 0.0
C3874 C 0.49445 0.76727 1.01585 0.0
H3875 H 0.46312 0.78667 0.94391 0.0
H3876 H 0.47175 0.76749 0.96193 0.0
H3877 H 0.46165 0.78635 0.98031 0.0
H3878 H 0.49779 0.81005 1.03599 0.0
H3879 H 0.48424 0.79702 0.07803 0.0
H3880 H 0.63843 0.80104 0.4731 0.0
H3881 H 0.67106 0.8129 0.44995 0.0
H3882 H 0.68414 0.76176 0.41593 0.0
H3883 H 0.65157 0.7499 0.43873 0.0
H3884 H 0.72397 0.7853 0.43004 0.0
H3885 H 0.658 0.81523 0.366 0.0
H3886 H 0.65936 0.81932 0.40175 0.0
H3887 H 0.65035 0.79829 0.38961 0.0
C3888 C 0.6487 0.79225 0.46127 0.0
C3889 C 0.64241 0.77468 0.45704 0.0
C3890 C 0.66733 0.79903 0.44828 0.0
C3891 C 0.67975 0.78821 0.43122 0.0
C3892 C 0.6747 0.77025 0.42921 0.0
H3893 H 0.73997 0.74476 0.31285 0.0
H3894 H 0.72601 0.7585 0.35392 0.0
C3895 C 0.65604 0.76352 0.44199 0.0
C3896 C 0.69471 0.79561 0.41091 0.0
H3897 H 0.68973 0.80443 0.34405 0.0
C3898 C 0.71692 0.79031 0.41146 0.0
C3899 C 0.68558 0.80262 0.38698 0.0
C3900 C 0.66204 0.80929 0.38585 0.0
C3901 C 0.72911 0.78916 0.38755 0.0
C3902 C 0.71838 0.79289 0.36289 0.0
C3903 C 0.69761 0.80109 0.36301 0.0
C3904 C 0.72597 0.7849 0.33752 0.0
C3905 C 0.75258 0.78238 0.38866 0.0
C3906 C 0.72858 0.79497 0.31412 0.0
C3907 C 0.73581 0.78701 0.29036 0.0
C3908 C 0.74055 0.76893 0.28992 0.0
C3909 C 0.73645 0.75871 0.3128 0.0
C3910 C 0.72901 0.76662 0.33638 0.0
H3911 H 0.7611 0.78728 0.40702 0.0
H3912 H 0.75234 0.76782 0.38981 0.0
H3913 H 0.76224 0.78637 0.37062 0.0
H3914 H 0.72568 0.80901 0.31448 0.0
H3915 H 0.73901 0.79517 0.27291 0.0
H3916 H 0.47105 0.45518 0.28326 0.0
H3917 H 0.48425 0.44206 0.32558 0.0
H3918 H 0.49208 0.49393 0.35942 0.0
H3919 H 0.47868 0.50695 0.31774 0.0
H3920 H 0.5236 0.44636 0.35022 0.0
H3921 H 0.45928 0.46951 0.41969 0.0
H3922 H 0.45478 0.46822 0.38369 0.0
H3923 H 0.46704 0.48755 0.39859 0.0
C3924 C 0.47582 0.4637 0.29975 0.0
C3925 C 0.47395 0.48204 0.29745 0.0
C3926 C 0.48298 0.4562 0.32393 0.0
C3927 C 0.48816 0.46701 0.34593 0.0
C3928 C 0.48716 0.48533 0.34308 0.0
H3929 H 0.57219 0.50599 0.43369 0.0
H3930 H 0.53867 0.49351 0.4137 0.0
C3931 C 0.47998 0.49278 0.31911 0.0
C3932 C 0.49724 0.45975 0.37108 0.0
H3933 H 0.4986 0.47225 0.43684 0.0
C3934 C 0.5177 0.45113 0.36954 0.0
C3935 C 0.48916 0.46547 0.39635 0.0
C3936 C 0.46619 0.473 0.39964 0.0
C3937 C 0.53207 0.45113 0.39164 0.0
C3938 C 0.52555 0.46002 0.41538 0.0
C3939 C 0.50365 0.4658 0.41831 0.0
C3940 C 0.54252 0.46804 0.43256 0.0
C3941 C 0.55523 0.44397 0.38821 0.0
C3942 C 0.55517 0.45794 0.45034 0.0
C3943 C 0.57429 0.46506 0.46171 0.0
C3944 C 0.58092 0.48225 0.45519 0.0
C3945 C 0.56743 0.49269 0.43882 0.0
C3946 C 0.54828 0.48561 0.42761 0.0
H3947 H 0.55715 0.43647 0.36912 0.0
H3948 H 0.56732 0.45496 0.38819 0.0
H3949 H 0.55939 0.43519 0.40532 0.0
H3950 H 0.55092 0.44435 0.45423 0.0
H3951 H 0.58446 0.45682 0.4745 0.0
H3952 H 0.32418 0.51021 0.17382 0.0
H3953 H 0.2965 0.5267 0.14834 0.0
H3954 H 0.32299 0.57543 0.17881 0.0
H3955 H 0.35068 0.55891 0.20486 0.0
H3956 H 0.26487 0.55958 0.16899 0.0
H3957 H 0.32816 0.57064 0.08932 0.0
H3958 H 0.33265 0.55204 0.11108 0.0
H3959 H 0.33381 0.57385 0.12478 0.0
C3960 C 0.32381 0.52439 0.1755 0.0
C3961 C 0.33948 0.53334 0.19105 0.0
C3962 C 0.30802 0.53378 0.16111 0.0
C3963 C 0.30785 0.55221 0.16189 0.0
C3964 C 0.3229 0.56121 0.17824 0.0
H3965 H 0.23357 0.55272 1.01477 0.0
H3966 H 0.2524 0.57039 1.04935 0.0
C3967 C 0.33862 0.55177 0.19296 0.0
C3968 C 0.29332 0.56139 0.1429 0.0
H3969 H 0.29151 0.56309 0.07457 0.0
C3970 C 0.27057 0.56135 0.14843 0.0
C3971 C 0.30084 0.56425 0.11632 0.0
C3972 C 0.32522 0.56536 0.10989 0.0
C3973 C 0.25523 0.56085 0.12733 0.0
C3974 C 0.26316 0.55986 0.10056 0.0
C3975 C 0.28553 0.56337 0.09519 0.0
C3976 C 0.2506 0.55019 0.07991 0.0
C3977 C 0.23093 0.55918 0.13389 0.0
C3978 C 0.24433 0.5328 0.0854 0.0
C3979 C 0.23397 0.52269 0.0658 0.0
C3980 C 0.2299 0.52976 1.04026 0.0
C3981 C 0.23671 0.547 1.03438 0.0
C3982 C 0.24714 0.55715 0.05411 0.0
H3983 H 0.22666 0.56736 0.15171 0.0
H3984 H 0.22039 0.56319 0.11661 0.0
H3985 H 0.22713 0.54533 0.13907 0.0
H3986 H 0.24771 0.52692 0.10486 0.0
H3987 H 0.22887 0.50945 0.07077 0.0
H3988 H 0.38248 0.20491 0.21602 0.0
H3989 H 0.41483 0.19346 0.19197 0.0
H3990 H 0.43309 0.2463 0.16967 0.0
H3991 H 0.40061 0.25773 0.19317 0.0
H3992 H 0.4126 0.2013 0.13674 0.0
H3993 H 0.49359 0.22145 0.1773 0.0
H3994 H 0.46956 0.21788 0.1985 0.0
H3995 H 0.47355 0.23863 0.1817 0.0
C3996 C 0.39385 0.21409 0.2067 0.0
C3997 C 0.38901 0.23214 0.20577 0.0
C3998 C 0.41238 0.20754 0.19327 0.0
C3999 C 0.42637 0.21904 0.17935 0.0
C4000 C 0.4227 0.23724 0.18082 0.0
H4001 H 0.48215 0.26234 0.05576 0.0
H4002 H 0.46531 0.24929 0.09581 0.0
C4003 C 0.40401 0.24377 0.19386 0.0
C4004 C 0.44058 0.2125 0.15754 0.0
H4005 H 0.48884 0.22476 0.1279 0.0
C4006 C 0.42966 0.20566 0.13488 0.0
C4007 C 0.46282 0.21789 0.1555 0.0
C4008 C 0.47561 0.2242 0.17971 0.0
C4009 C 0.43908 0.2071 0.10922 0.0
C4010 C 0.4601 0.21505 0.10677 0.0
C4011 C 0.47243 0.21909 0.12995 0.0
C4012 C 0.46761 0.22254 0.08109 0.0
C4013 C 0.42548 0.20213 0.08487 0.0
C4014 C 0.47319 0.21185 0.05916 0.0
C4015 C 0.48213 0.21937 1.03596 0.0
C4016 C 0.48601 0.23756 1.03489 0.0
C4017 C 0.47917 0.24831 0.05619 0.0
C4018 C 0.46989 0.24084 0.07911 0.0
H4019 H 0.40861 0.19751 0.09041 0.0
H4020 H 0.42385 0.21353 0.07108 0.0
H4021 H 0.43395 0.19144 0.07367 0.0
H4022 H 0.47164 0.19771 0.06044 0.0
H4023 H 0.48758 0.21081 1.01981 0.0
H4024 H 0.34329 0.20508 0.64815 0.0
H4025 H 0.31724 0.19348 0.68157 0.0
H4026 H 0.29675 0.24628 0.70102 0.0
H4027 H 0.32335 0.258 0.66844 0.0
H4028 H 0.32548 0.21228 0.73944 0.0
H4029 H 0.2395 0.20908 0.70007 0.0
H4030 H 0.26367 0.20498 0.6793 0.0
H4031 H 0.25591 0.2271 0.68769 0.0
C4032 C 0.33267 0.21416 0.65895 0.0
C4033 C 0.33535 0.23242 0.65621 0.0
C4034 C 0.31784 0.2075 0.67788 0.0
C4035 C 0.30523 0.21907 0.69345 0.0
C4036 C 0.30634 0.23722 0.68881 0.0
H4037 H 0.24028 0.2624 0.8092 0.0
H4038 H 0.26483 0.24979 0.77509 0.0
C4039 C 0.3215 0.2439 0.67037 0.0
C4040 C 0.29439 0.21308 0.7181 0.0
H4041 H 0.24371 0.21583 0.74742 0.0
C4042 C 0.30756 0.2122 0.74135 0.0
C4043 C 0.27116 0.21299 0.72014 0.0
C4044 C 0.25666 0.21344 0.69545 0.0
C4045 C 0.29796 0.21372 0.7669 0.0
C4046 C 0.27485 0.21587 0.76871 0.0
C4047 C 0.26154 0.21431 0.74567 0.0
C4048 C 0.26469 0.22374 0.79256 0.0
C4049 C 0.31257 0.21515 0.79143 0.0
C4050 C 0.25774 0.21335 0.81418 0.0
C4051 C 0.24404 0.22062 0.83389 0.0
C4052 C 0.23698 0.23816 0.83162 0.0
C4053 C 0.2455 0.24885 0.81118 0.0
C4054 C 0.25939 0.24166 0.79176 0.0
H4055 H 0.32993 0.21117 0.78705 0.0
H4056 H 0.3126 0.22896 0.79866 0.0
H4057 H 0.30596 0.20683 0.80794 0.0
H4058 H 0.26177 0.1995 0.81489 0.0
H4059 H 0.23757 0.21216 0.84959 0.0
H4060 H 0.50985 0.54933 0.81237 0.0
H4061 H 0.48457 0.55868 0.77689 0.0
H4062 H 0.44499 0.51224 0.78977 0.0
H4063 H 0.47035 0.5028 0.82561 0.0
H4064 H 0.48321 0.533 0.73383 0.0
H4065 H 0.39972 0.55254 0.77057 0.0
H4066 H 0.42443 0.55456 0.79096 0.0
H4067 H 0.41142 0.53354 0.78672 0.0
C4068 C 0.49533 0.54141 0.80821 0.0
C4069 C 0.49209 0.5252 0.82108 0.0
C4070 C 0.48089 0.54684 0.78815 0.0
C4071 C 0.4631 0.53613 0.78088 0.0
C4072 C 0.45857 0.52076 0.79553 0.0
H4073 H 0.3965 0.49374 0.65749 0.0
H4074 H 0.42607 0.50344 0.68769 0.0
C4075 C 0.47304 0.51532 0.8158 0.0
C4076 C 0.45261 0.53874 0.75465 0.0
H4077 H 0.40231 0.54268 0.72467 0.0
C4078 C 0.46561 0.5356 0.73165 0.0
C4079 C 0.42979 0.54219 0.75217 0.0
C4080 C 0.4155 0.54605 0.7764 0.0
C4081 C 0.4559 0.53442 0.7062 0.0
C4082 C 0.43284 0.53658 0.70401 0.0
C4083 C 0.42011 0.54112 0.72666 0.0
C4084 C 0.42089 0.53111 0.67988 0.0
C4085 C 0.46998 0.5298 0.68209 0.0
C4086 C 0.40923 0.54353 0.66477 0.0
C4087 C 0.39257 0.53801 0.64736 0.0
C4088 C 0.38723 0.5201 0.64561 0.0
C4089 C 0.40034 0.50761 0.65878 0.0
C4090 C 0.41724 0.51312 0.67583 0.0
H4091 H 0.48785 0.53229 0.68593 0.0
H4092 H 0.46785 0.51565 0.67736 0.0
H4093 H 0.46468 0.53745 0.66417 0.0
H4094 H 0.41186 0.55745 0.66798 0.0
H4095 H 0.38265 0.54784 0.63719 0.0
loop_
_geom_bond_atom_site_label_1
_geom_bond_atom_site_label_2
_geom_bond_distance
_geom_bond_site_symmetry_2
_ccdc_geom_bond_type
Tb0 O3 2.453 . S
Tb0 O4 2.595 . S
Tb0 O5 2.374 1_565 S
Tb0 O13 2.342 1_565 S
Tb0 O15 2.353 . S
Tb0 O17 2.427 . S
Tb0 O18 2.513 1_565 S
C1 O5 1.251 . S
C1 O7 1.263 . S
Tb2 O4 2.343 1_545 S
Tb2 O7 2.353 . S
Tb2 O10 2.427 . S
Tb2 O11 2.513 1_545 S
Tb2 O12 2.453 . S
Tb2 O13 2.597 . S
Tb2 O14 2.374 1_545 S
O3 Tb0 2.453 . S
O3 C19 1.265 . S
O4 Tb0 2.595 . S
O4 Tb2 2.343 1_565 S
O4 C19 1.258 . S
O5 Tb0 2.374 1_545 S
O5 C1 1.251 . S
C6 O10 1.275 . S
C6 O11 1.246 1_545 S
O7 C1 1.263 . S
O7 Tb2 2.353 . S
C8 O12 1.245 . S
C8 O13 1.260 . S
C9 O14 1.250 . S
C9 O15 1.263 . S
O10 Tb2 2.427 . S
O10 C6 1.275 . S
O11 Tb2 2.513 1_565 S
O11 C6 1.246 1_565 S
O12 Tb2 2.453 . S
O12 C8 1.245 . S
O13 Tb0 2.342 1_545 S
O13 Tb2 2.597 . S
O13 C8 1.260 . S
O14 Tb2 2.374 1_565 S
O14 C9 1.250 . S
O15 Tb0 2.353 . S
O15 C9 1.263 . S
C16 O17 1.275 . S
C16 O18 1.246 1_565 S
O17 Tb0 2.427 . S
O17 C16 1.275 . S
O18 Tb0 2.513 1_545 S
O18 C16 1.246 1_545 S
C19 O3 1.265 . S
C19 O4 1.258 . S
Tb20 O23 2.453 . S
Tb20 O24 2.596 . S
Tb20 O25 2.374 . S
Tb20 O33 2.343 . S
Tb20 O35 2.353 . S
Tb20 O37 2.427 . S
Tb20 O38 2.513 . S
C21 O25 1.251 . S
C21 O27 1.263 . S
Tb22 O24 2.343 . S
Tb22 O27 2.353 . S
Tb22 O30 2.427 . S
Tb22 O31 2.513 . S
Tb22 O32 2.453 . S
Tb22 O33 2.596 . S
Tb22 O34 2.374 . S
O23 Tb20 2.453 . S
O23 C39 1.245 . S
O24 Tb20 2.596 . S
O24 Tb22 2.343 . S
O24 C39 1.259 . S
O25 Tb20 2.374 . S
O25 C21 1.251 . S
C26 O30 1.275 . S
C26 O31 1.246 . S
O27 C21 1.263 . S
O27 Tb22 2.353 . S
C28 O32 1.245 . S
C28 O33 1.259 . S
C29 O34 1.250 . S
C29 O35 1.263 . S
O30 Tb22 2.427 . S
O30 C26 1.275 . S
O31 Tb22 2.513 . S
O31 C26 1.246 . S
O32 Tb22 2.453 . S
O32 C28 1.245 . S
O33 Tb20 2.343 . S
O33 Tb22 2.596 . S
O33 C28 1.259 . S
O34 Tb22 2.374 . S
O34 C29 1.250 . S
O35 Tb20 2.353 . S
O35 C29 1.263 . S
C36 O37 1.275 . S
C36 O38 1.246 . S
O37 Tb20 2.427 . S
O37 C36 1.275 . S
O38 Tb20 2.513 . S
O38 C36 1.246 . S
C39 O23 1.245 . S
C39 O24 1.259 . S
Tb40 O43 2.453 . S
Tb40 O44 2.596 . S
Tb40 O45 2.374 . S
Tb40 O53 2.343 . S
Tb40 O55 2.353 . S
Tb40 O57 2.427 . S
Tb40 O58 2.513 . S
C41 O45 1.251 . S
C41 O47 1.263 . S
Tb42 O44 2.343 . S
Tb42 O47 2.353 . S
Tb42 O50 2.427 . S
Tb42 O51 2.513 . S
Tb42 O52 2.453 . S
Tb42 O53 2.596 . S
Tb42 O54 2.374 . S
O43 Tb40 2.453 . S
O43 C59 1.245 . S
O44 Tb40 2.596 . S
O44 Tb42 2.343 . S
O44 C59 1.259 . S
O45 Tb40 2.374 . S
O45 C41 1.251 . S
C46 O50 1.275 . S
C46 O51 1.246 . S
O47 C41 1.263 . S
O47 Tb42 2.353 . S
C48 O52 1.245 . S
C48 O53 1.259 . S
C49 O54 1.250 . S
C49 O55 1.263 . S
O50 Tb42 2.427 . S
O50 C46 1.275 . S
O51 Tb42 2.513 . S
O51 C46 1.246 . S
O52 Tb42 2.453 . S
O52 C48 1.245 . S
O53 Tb40 2.343 . S
O53 Tb42 2.596 . S
O53 C48 1.259 . S
O54 Tb42 2.374 . S
O54 C49 1.250 . S
O55 Tb40 2.353 . S
O55 C49 1.263 . S
C56 O57 1.275 . S
C56 O58 1.246 . S
O57 Tb40 2.427 . S
O57 C56 1.275 . S
O58 Tb40 2.513 . S
O58 C56 1.246 . S
C59 O43 1.245 . S
C59 O44 1.259 . S
Tb60 O63 2.453 . S
Tb60 O64 2.595 . S
Tb60 O65 2.374 1_565 S
Tb60 O73 2.342 1_565 S
Tb60 O75 2.353 . S
Tb60 O77 2.427 . S
Tb60 O78 2.513 1_565 S
C61 O65 1.251 . S
C61 O67 1.263 . S
Tb62 O64 2.343 1_545 S
Tb62 O67 2.353 . S
Tb62 O70 2.427 . S
Tb62 O71 2.513 1_545 S
Tb62 O72 2.453 . S
Tb62 O73 2.597 . S
Tb62 O74 2.374 1_545 S
O63 Tb60 2.453 . S
O63 C79 1.265 . S
O64 Tb60 2.595 . S
O64 Tb62 2.343 1_565 S
O64 C79 1.258 . S
O65 Tb60 2.374 1_545 S
O65 C61 1.251 . S
C66 O70 1.275 . S
C66 O71 1.246 1_545 S
O67 C61 1.263 . S
O67 Tb62 2.353 . S
C68 O72 1.245 . S
C68 O73 1.260 . S
C69 O74 1.250 . S
C69 O75 1.263 . S
O70 Tb62 2.427 . S
O70 C66 1.275 . S
O71 Tb62 2.513 1_565 S
O71 C66 1.246 1_565 S
O72 Tb62 2.453 . S
O72 C68 1.245 . S
O73 Tb60 2.342 1_545 S
O73 Tb62 2.597 . S
O73 C68 1.260 . S
O74 Tb62 2.374 1_565 S
O74 C69 1.250 . S
O75 Tb60 2.353 . S
O75 C69 1.263 . S
C76 O77 1.275 . S
C76 O78 1.246 1_565 S
O77 Tb60 2.427 . S
O77 C76 1.275 . S
O78 Tb60 2.513 1_545 S
O78 C76 1.246 1_545 S
C79 O63 1.265 . S
C79 O64 1.258 . S
Tb80 O83 2.453 . S
Tb80 O84 2.597 . S
Tb80 O85 2.374 1_565 S
Tb80 O93 2.343 1_565 S
Tb80 O95 2.353 . S
Tb80 O97 2.427 . S
Tb80 O98 2.513 1_565 S
C81 O85 1.251 . S
C81 O87 1.263 . S
Tb82 O84 2.342 1_545 S
Tb82 O87 2.353 . S
Tb82 O90 2.427 . S
Tb82 O91 2.513 1_545 S
Tb82 O92 2.453 . S
Tb82 O93 2.595 . S
Tb82 O94 2.374 1_545 S
O83 Tb80 2.453 . S
O83 C99 1.245 . S
O84 Tb80 2.597 . S
O84 Tb82 2.342 1_565 S
O84 C99 1.260 . S
O85 Tb80 2.374 1_545 S
O85 C81 1.251 . S
C86 O90 1.275 . S
C86 O91 1.246 1_545 S
O87 C81 1.263 . S
O87 Tb82 2.353 . S
C88 O92 1.265 . S
C88 O93 1.258 . S
C89 O94 1.250 . S
C89 O95 1.263 . S
O90 Tb82 2.427 . S
O90 C86 1.275 . S
O91 Tb82 2.513 1_565 S
O91 C86 1.246 1_565 S
O92 Tb82 2.453 . S
O92 C88 1.265 . S
O93 Tb80 2.343 1_545 S
O93 Tb82 2.595 . S
O93 C88 1.258 . S
O94 Tb82 2.374 1_565 S
O94 C89 1.250 . S
O95 Tb80 2.353 . S
O95 C89 1.263 . S
C96 O97 1.275 . S
C96 O98 1.246 1_565 S
O97 Tb80 2.427 . S
O97 C96 1.275 . S
O98 Tb80 2.513 1_545 S
O98 C96 1.246 1_545 S
C99 O83 1.245 . S
C99 O84 1.260 . S
Tb100 O103 2.453 . S
Tb100 O104 2.596 . S
Tb100 O105 2.374 . S
Tb100 O113 2.343 . S
Tb100 O115 2.353 . S
Tb100 O117 2.427 . S
Tb100 O118 2.513 . S
C101 O105 1.251 . S
C101 O107 1.263 . S
Tb102 O104 2.343 . S
Tb102 O107 2.353 . S
Tb102 O110 2.427 . S
Tb102 O111 2.513 . S
Tb102 O112 2.453 . S
Tb102 O113 2.596 . S
Tb102 O114 2.374 . S
O103 Tb100 2.453 . S
O103 C119 1.245 . S
O104 Tb100 2.596 . S
O104 Tb102 2.343 . S
O104 C119 1.259 . S
O105 Tb100 2.374 . S
O105 C101 1.251 . S
C106 O110 1.275 . S
C106 O111 1.246 . S
O107 C101 1.263 . S
O107 Tb102 2.353 . S
C108 O112 1.245 . S
C108 O113 1.259 . S
C109 O114 1.250 . S
C109 O115 1.263 . S
O110 Tb102 2.427 . S
O110 C106 1.275 . S
O111 Tb102 2.513 . S
O111 C106 1.246 . S
O112 Tb102 2.453 . S
O112 C108 1.245 . S
O113 Tb100 2.343 . S
O113 Tb102 2.596 . S
O113 C108 1.259 . S
O114 Tb102 2.374 . S
O114 C109 1.250 . S
O115 Tb100 2.353 . S
O115 C109 1.263 . S
C116 O117 1.275 . S
C116 O118 1.246 . S
O117 Tb100 2.427 . S
O117 C116 1.275 . S
O118 Tb100 2.513 . S
O118 C116 1.246 . S
C119 O103 1.245 . S
C119 O104 1.259 . S
Tb120 O123 2.453 . S
Tb120 O124 2.596 . S
Tb120 O125 2.374 . S
Tb120 O133 2.343 . S
Tb120 O135 2.353 . S
Tb120 O137 2.427 . S
Tb120 O138 2.513 . S
C121 O125 1.251 . S
C121 O127 1.263 . S
Tb122 O124 2.343 . S
Tb122 O127 2.353 . S
Tb122 O130 2.427 . S
Tb122 O131 2.513 . S
Tb122 O132 2.453 . S
Tb122 O133 2.596 . S
Tb122 O134 2.374 . S
O123 Tb120 2.453 . S
O123 C139 1.245 . S
O124 Tb120 2.596 . S
O124 Tb122 2.343 . S
O124 C139 1.259 . S
O125 Tb120 2.374 . S
O125 C121 1.251 . S
C126 O130 1.275 . S
C126 O131 1.246 . S
O127 C121 1.263 . S
O127 Tb122 2.353 . S
C128 O132 1.245 . S
C128 O133 1.259 . S
C129 O134 1.250 . S
C129 O135 1.263 . S
O130 Tb122 2.427 . S
O130 C126 1.275 . S
O131 Tb122 2.513 . S
O131 C126 1.246 . S
O132 Tb122 2.453 . S
O132 C128 1.245 . S
O133 Tb120 2.343 . S
O133 Tb122 2.596 . S
O133 C128 1.259 . S
O134 Tb122 2.374 . S
O134 C129 1.250 . S
O135 Tb120 2.353 . S
O135 C129 1.263 . S
C136 O137 1.275 . S
C136 O138 1.246 . S
O137 Tb120 2.427 . S
O137 C136 1.275 . S
O138 Tb120 2.513 . S
O138 C136 1.246 . S
C139 O123 1.245 . S
C139 O124 1.259 . S
Tb140 O143 2.453 . S
Tb140 O144 2.597 . S
Tb140 O145 2.374 1_565 S
Tb140 O153 2.343 1_565 S
Tb140 O155 2.353 . S
Tb140 O157 2.427 . S
Tb140 O158 2.513 1_565 S
C141 O145 1.251 . S
C141 O147 1.263 . S
Tb142 O144 2.342 1_545 S
Tb142 O147 2.353 . S
Tb142 O150 2.427 . S
Tb142 O151 2.513 1_545 S
Tb142 O152 2.453 . S
Tb142 O153 2.595 . S
Tb142 O154 2.374 1_545 S
O143 Tb140 2.453 . S
O143 C159 1.245 . S
O144 Tb140 2.597 . S
O144 Tb142 2.342 1_565 S
O144 C159 1.260 . S
O145 Tb140 2.374 1_545 S
O145 C141 1.251 . S
C146 O150 1.275 . S
C146 O151 1.246 1_545 S
O147 C141 1.263 . S
O147 Tb142 2.353 . S
C148 O152 1.265 . S
C148 O153 1.258 . S
C149 O154 1.250 . S
C149 O155 1.263 . S
O150 Tb142 2.427 . S
O150 C146 1.275 . S
O151 Tb142 2.513 1_565 S
O151 C146 1.246 1_565 S
O152 Tb142 2.453 . S
O152 C148 1.265 . S
O153 Tb140 2.343 1_545 S
O153 Tb142 2.595 . S
O153 C148 1.258 . S
O154 Tb142 2.374 1_565 S
O154 C149 1.250 . S
O155 Tb140 2.353 . S
O155 C149 1.263 . S
C156 O157 1.275 . S
C156 O158 1.246 1_565 S
O157 Tb140 2.427 . S
O157 C156 1.275 . S
O158 Tb140 2.513 1_545 S
O158 C156 1.246 1_545 S
C159 O143 1.245 . S
C159 O144 1.260 . S
Tb160 O163 2.453 . S
Tb160 O164 2.596 . S
Tb160 O165 2.374 . S
Tb160 O173 2.343 . S
Tb160 O175 2.353 . S
Tb160 O177 2.427 . S
Tb160 O178 2.513 . S
C161 O165 1.251 . S
C161 O167 1.263 . S
Tb162 O164 2.343 . S
Tb162 O167 2.353 . S
Tb162 O170 2.427 . S
Tb162 O171 2.513 . S
Tb162 O172 2.453 . S
Tb162 O173 2.596 . S
Tb162 O174 2.374 . S
O163 Tb160 2.453 . S
O163 C179 1.245 . S
O164 Tb160 2.596 . S
O164 Tb162 2.343 . S
O164 C179 1.259 . S
O165 Tb160 2.374 . S
O165 C161 1.251 . S
C166 O170 1.275 . S
C166 O171 1.246 . S
O167 C161 1.263 . S
O167 Tb162 2.353 . S
C168 O172 1.245 . S
C168 O173 1.259 . S
C169 O174 1.250 . S
C169 O175 1.263 . S
O170 Tb162 2.427 . S
O170 C166 1.275 . S
O171 Tb162 2.513 . S
O171 C166 1.246 . S
O172 Tb162 2.453 . S
O172 C168 1.245 . S
O173 Tb160 2.343 . S
O173 Tb162 2.596 . S
O173 C168 1.259 . S
O174 Tb162 2.374 . S
O174 C169 1.250 . S
O175 Tb160 2.353 . S
O175 C169 1.263 . S
C176 O177 1.275 . S
C176 O178 1.246 . S
O177 Tb160 2.427 . S
O177 C176 1.275 . S
O178 Tb160 2.513 . S
O178 C176 1.246 . S
C179 O163 1.245 . S
C179 O164 1.259 . S
Tb180 O183 2.453 . S
Tb180 O184 2.596 . S
Tb180 O185 2.374 . S
Tb180 O193 2.343 . S
Tb180 O195 2.353 . S
Tb180 O197 2.427 . S
Tb180 O198 2.513 . S
C181 O185 1.251 . S
C181 O187 1.263 . S
Tb182 O184 2.343 . S
Tb182 O187 2.353 . S
Tb182 O190 2.427 . S
Tb182 O191 2.513 . S
Tb182 O192 2.453 . S
Tb182 O193 2.596 . S
Tb182 O194 2.374 . S
O183 Tb180 2.453 . S
O183 C199 1.245 . S
O184 Tb180 2.596 . S
O184 Tb182 2.343 . S
O184 C199 1.259 . S
O185 Tb180 2.374 . S
O185 C181 1.251 . S
C186 O190 1.275 . S
C186 O191 1.246 . S
O187 C181 1.263 . S
O187 Tb182 2.353 . S
C188 O192 1.245 . S
C188 O193 1.259 . S
C189 O194 1.250 . S
C189 O195 1.263 . S
O190 Tb182 2.427 . S
O190 C186 1.275 . S
O191 Tb182 2.513 . S
O191 C186 1.246 . S
O192 Tb182 2.453 . S
O192 C188 1.245 . S
O193 Tb180 2.343 . S
O193 Tb182 2.596 . S
O193 C188 1.259 . S
O194 Tb182 2.374 . S
O194 C189 1.250 . S
O195 Tb180 2.353 . S
O195 C189 1.263 . S
C196 O197 1.275 . S
C196 O198 1.246 . S
O197 Tb180 2.427 . S
O197 C196 1.275 . S
O198 Tb180 2.513 . S
O198 C196 1.246 . S
C199 O183 1.245 . S
C199 O184 1.259 . S
Tb200 O203 2.453 . S
Tb200 O204 2.596 . S
Tb200 O205 2.374 . S
Tb200 O213 2.343 . S
Tb200 O215 2.353 . S
Tb200 O217 2.427 . S
Tb200 O218 2.513 . S
C201 O205 1.251 . S
C201 O207 1.263 . S
Tb202 O204 2.343 . S
Tb202 O207 2.353 . S
Tb202 O210 2.427 . S
Tb202 O211 2.513 . S
Tb202 O212 2.453 . S
Tb202 O213 2.596 . S
Tb202 O214 2.374 . S
O203 Tb200 2.453 . S
O203 C219 1.245 . S
O204 Tb200 2.596 . S
O204 Tb202 2.343 . S
O204 C219 1.259 . S
O205 Tb200 2.374 . S
O205 C201 1.251 . S
C206 O210 1.275 . S
C206 O211 1.246 . S
O207 C201 1.263 . S
O207 Tb202 2.353 . S
C208 O212 1.245 . S
C208 O213 1.259 . S
C209 O214 1.250 . S
C209 O215 1.263 . S
O210 Tb202 2.427 . S
O210 C206 1.275 . S
O211 Tb202 2.513 . S
O211 C206 1.246 . S
O212 Tb202 2.453 . S
O212 C208 1.245 . S
O213 Tb200 2.343 . S
O213 Tb202 2.596 . S
O213 C208 1.259 . S
O214 Tb202 2.374 . S
O214 C209 1.250 . S
O215 Tb200 2.353 . S
O215 C209 1.263 . S
C216 O217 1.275 . S
C216 O218 1.246 . S
O217 Tb200 2.427 . S
O217 C216 1.275 . S
O218 Tb200 2.513 . S
O218 C216 1.246 . S
C219 O203 1.245 . S
C219 O204 1.259 . S
Tb220 O223 2.453 . S
Tb220 O224 2.596 . S
Tb220 O225 2.374 . S
Tb220 O233 2.343 . S
Tb220 O235 2.353 . S
Tb220 O237 2.427 . S
Tb220 O238 2.513 . S
C221 O225 1.251 . S
C221 O227 1.263 . S
Tb222 O224 2.343 . S
Tb222 O227 2.353 . S
Tb222 O230 2.427 . S
Tb222 O231 2.513 . S
Tb222 O232 2.453 . S
Tb222 O233 2.596 . S
Tb222 O234 2.374 . S
O223 Tb220 2.453 . S
O223 C239 1.245 . S
O224 Tb220 2.596 . S
O224 Tb222 2.343 . S
O224 C239 1.259 . S
O225 Tb220 2.374 . S
O225 C221 1.251 . S
C226 O230 1.275 . S
C226 O231 1.246 . S
O227 C221 1.263 . S
O227 Tb222 2.353 . S
C228 O232 1.245 . S
C228 O233 1.259 . S
C229 O234 1.250 . S
C229 O235 1.263 . S
O230 Tb222 2.427 . S
O230 C226 1.275 . S
O231 Tb222 2.513 . S
O231 C226 1.246 . S
O232 Tb222 2.453 . S
O232 C228 1.245 . S
O233 Tb220 2.343 . S
O233 Tb222 2.596 . S
O233 C228 1.259 . S
O234 Tb222 2.374 . S
O234 C229 1.250 . S
O235 Tb220 2.353 . S
O235 C229 1.263 . S
C236 O237 1.275 . S
C236 O238 1.246 . S
O237 Tb220 2.427 . S
O237 C236 1.275 . S
O238 Tb220 2.513 . S
O238 C236 1.246 . S
C239 O223 1.245 . S
C239 O224 1.259 . S
Tb240 O243 2.453 . S
Tb240 O244 2.596 . S
Tb240 O245 2.374 . S
Tb240 O253 2.343 . S
Tb240 O255 2.353 . S
Tb240 O257 2.427 . S
Tb240 O258 2.513 . S
C241 O245 1.251 . S
C241 O247 1.263 . S
Tb242 O244 2.343 . S
Tb242 O247 2.353 . S
Tb242 O250 2.427 . S
Tb242 O251 2.513 . S
Tb242 O252 2.453 . S
Tb242 O253 2.596 . S
Tb242 O254 2.374 . S
O243 Tb240 2.453 . S
O243 C259 1.245 . S
O244 Tb240 2.596 . S
O244 Tb242 2.343 . S
O244 C259 1.259 . S
O245 Tb240 2.374 . S
O245 C241 1.251 . S
C246 O250 1.275 . S
C246 O251 1.246 . S
O247 C241 1.263 . S
O247 Tb242 2.353 . S
C248 O252 1.245 . S
C248 O253 1.259 . S
C249 O254 1.250 . S
C249 O255 1.263 . S
O250 Tb242 2.427 . S
O250 C246 1.275 . S
O251 Tb242 2.513 . S
O251 C246 1.246 . S
O252 Tb242 2.453 . S
O252 C248 1.245 . S
O253 Tb240 2.343 . S
O253 Tb242 2.596 . S
O253 C248 1.259 . S
O254 Tb242 2.374 . S
O254 C249 1.250 . S
O255 Tb240 2.353 . S
O255 C249 1.263 . S
C256 O257 1.275 . S
C256 O258 1.246 . S
O257 Tb240 2.427 . S
O257 C256 1.275 . S
O258 Tb240 2.513 . S
O258 C256 1.246 . S
C259 O243 1.245 . S
C259 O244 1.259 . S
Tb260 O263 2.453 . S
Tb260 O264 2.596 . S
Tb260 O265 2.374 . S
Tb260 O273 2.343 . S
Tb260 O275 2.353 . S
Tb260 O277 2.427 . S
Tb260 O278 2.513 . S
C261 O265 1.251 . S
C261 O267 1.263 . S
Tb262 O264 2.343 . S
Tb262 O267 2.353 . S
Tb262 O270 2.427 . S
Tb262 O271 2.513 . S
Tb262 O272 2.453 . S
Tb262 O273 2.596 . S
Tb262 O274 2.374 . S
O263 Tb260 2.453 . S
O263 C279 1.245 . S
O264 Tb260 2.596 . S
O264 Tb262 2.343 . S
O264 C279 1.259 . S
O265 Tb260 2.374 . S
O265 C261 1.251 . S
C266 O270 1.275 . S
C266 O271 1.246 . S
O267 C261 1.263 . S
O267 Tb262 2.353 . S
C268 O272 1.245 . S
C268 O273 1.259 . S
C269 O274 1.250 . S
C269 O275 1.263 . S
O270 Tb262 2.427 . S
O270 C266 1.275 . S
O271 Tb262 2.513 . S
O271 C266 1.246 . S
O272 Tb262 2.453 . S
O272 C268 1.245 . S
O273 Tb260 2.343 . S
O273 Tb262 2.596 . S
O273 C268 1.259 . S
O274 Tb262 2.374 . S
O274 C269 1.250 . S
O275 Tb260 2.353 . S
O275 C269 1.263 . S
C276 O277 1.275 . S
C276 O278 1.246 . S
O277 Tb260 2.427 . S
O277 C276 1.275 . S
O278 Tb260 2.513 . S
O278 C276 1.246 . S
C279 O263 1.245 . S
C279 O264 1.259 . S
Tb280 O283 2.453 . S
Tb280 O284 2.596 . S
Tb280 O285 2.374 . S
Tb280 O293 2.343 . S
Tb280 O295 2.353 . S
Tb280 O297 2.427 . S
Tb280 O298 2.513 . S
C281 O285 1.251 . S
C281 O287 1.263 . S
Tb282 O284 2.343 . S
Tb282 O287 2.353 . S
Tb282 O290 2.427 . S
Tb282 O291 2.513 . S
Tb282 O292 2.453 . S
Tb282 O293 2.596 . S
Tb282 O294 2.374 . S
O283 Tb280 2.453 . S
O283 C299 1.245 . S
O284 Tb280 2.596 . S
O284 Tb282 2.343 . S
O284 C299 1.259 . S
O285 Tb280 2.374 . S
O285 C281 1.251 . S
C286 O290 1.275 . S
C286 O291 1.246 . S
O287 C281 1.263 . S
O287 Tb282 2.353 . S
C288 O292 1.245 . S
C288 O293 1.259 . S
C289 O294 1.250 . S
C289 O295 1.263 . S
O290 Tb282 2.427 . S
O290 C286 1.275 . S
O291 Tb282 2.513 . S
O291 C286 1.246 . S
O292 Tb282 2.453 . S
O292 C288 1.245 . S
O293 Tb280 2.343 . S
O293 Tb282 2.596 . S
O293 C288 1.259 . S
O294 Tb282 2.374 . S
O294 C289 1.250 . S
O295 Tb280 2.353 . S
O295 C289 1.263 . S
C296 O297 1.275 . S
C296 O298 1.246 . S
O297 Tb280 2.427 . S
O297 C296 1.275 . S
O298 Tb280 2.513 . S
O298 C296 1.246 . S
C299 O283 1.245 . S
C299 O284 1.259 . S
Tb300 O303 2.453 . S
Tb300 O304 2.596 . S
Tb300 O305 2.374 . S
Tb300 O313 2.343 . S
Tb300 O315 2.353 . S
Tb300 O317 2.427 . S
Tb300 O318 2.513 . S
C301 O305 1.251 . S
C301 O307 1.263 . S
Tb302 O304 2.343 . S
Tb302 O307 2.353 . S
Tb302 O310 2.427 . S
Tb302 O311 2.513 . S
Tb302 O312 2.453 . S
Tb302 O313 2.596 . S
Tb302 O314 2.374 . S
O303 Tb300 2.453 . S
O303 C319 1.245 . S
O304 Tb300 2.596 . S
O304 Tb302 2.343 . S
O304 C319 1.259 . S
O305 Tb300 2.374 . S
O305 C301 1.251 . S
C306 O310 1.275 . S
C306 O311 1.246 . S
O307 C301 1.263 . S
O307 Tb302 2.353 . S
C308 O312 1.245 . S
C308 O313 1.259 . S
C309 O314 1.250 . S
C309 O315 1.263 . S
O310 Tb302 2.427 . S
O310 C306 1.275 . S
O311 Tb302 2.513 . S
O311 C306 1.246 . S
O312 Tb302 2.453 . S
O312 C308 1.245 . S
O313 Tb300 2.343 . S
O313 Tb302 2.596 . S
O313 C308 1.259 . S
O314 Tb302 2.374 . S
O314 C309 1.250 . S
O315 Tb300 2.353 . S
O315 C309 1.263 . S
C316 O317 1.275 . S
C316 O318 1.246 . S
O317 Tb300 2.427 . S
O317 C316 1.275 . S
O318 Tb300 2.513 . S
O318 C316 1.246 . S
C319 O303 1.245 . S
C319 O304 1.259 . S
Tb320 O323 2.453 . S
Tb320 O324 2.595 . S
Tb320 O325 2.374 1_565 S
Tb320 O333 2.342 1_565 S
Tb320 O335 2.353 . S
Tb320 O337 2.427 . S
Tb320 O338 2.513 1_565 S
C321 O325 1.251 . S
C321 O327 1.263 . S
Tb322 O324 2.343 1_545 S
Tb322 O327 2.353 . S
Tb322 O330 2.427 . S
Tb322 O331 2.513 1_545 S
Tb322 O332 2.453 . S
Tb322 O333 2.597 . S
Tb322 O334 2.374 1_545 S
O323 Tb320 2.453 . S
O323 C339 1.265 . S
O324 Tb320 2.595 . S
O324 Tb322 2.343 1_565 S
O324 C339 1.258 . S
O325 Tb320 2.374 1_545 S
O325 C321 1.251 . S
C326 O330 1.275 . S
C326 O331 1.246 1_545 S
O327 C321 1.263 . S
O327 Tb322 2.353 . S
C328 O332 1.245 . S
C328 O333 1.260 . S
C329 O334 1.250 . S
C329 O335 1.263 . S
O330 Tb322 2.427 . S
O330 C326 1.275 . S
O331 Tb322 2.513 1_565 S
O331 C326 1.246 1_565 S
O332 Tb322 2.453 . S
O332 C328 1.245 . S
O333 Tb320 2.342 1_545 S
O333 Tb322 2.597 . S
O333 C328 1.260 . S
O334 Tb322 2.374 1_565 S
O334 C329 1.250 . S
O335 Tb320 2.353 . S
O335 C329 1.263 . S
C336 O337 1.275 . S
C336 O338 1.246 1_565 S
O337 Tb320 2.427 . S
O337 C336 1.275 . S
O338 Tb320 2.513 1_545 S
O338 C336 1.246 1_545 S
C339 O323 1.265 . S
C339 O324 1.258 . S
Tb340 O343 2.453 . S
Tb340 O344 2.596 . S
Tb340 O345 2.374 . S
Tb340 O353 2.343 . S
Tb340 O355 2.353 . S
Tb340 O357 2.427 . S
Tb340 O358 2.513 . S
C341 O345 1.251 . S
C341 O347 1.263 . S
Tb342 O344 2.343 . S
Tb342 O347 2.353 . S
Tb342 O350 2.427 . S
Tb342 O351 2.513 . S
Tb342 O352 2.453 . S
Tb342 O353 2.596 . S
Tb342 O354 2.374 . S
O343 Tb340 2.453 . S
O343 C359 1.245 . S
O344 Tb340 2.596 . S
O344 Tb342 2.343 . S
O344 C359 1.259 . S
O345 Tb340 2.374 . S
O345 C341 1.251 . S
C346 O350 1.275 . S
C346 O351 1.246 . S
O347 C341 1.263 . S
O347 Tb342 2.353 . S
C348 O352 1.245 . S
C348 O353 1.259 . S
C349 O354 1.250 . S
C349 O355 1.263 . S
O350 Tb342 2.427 . S
O350 C346 1.275 . S
O351 Tb342 2.513 . S
O351 C346 1.246 . S
O352 Tb342 2.453 . S
O352 C348 1.245 . S
O353 Tb340 2.343 . S
O353 Tb342 2.596 . S
O353 C348 1.259 . S
O354 Tb342 2.374 . S
O354 C349 1.250 . S
O355 Tb340 2.353 . S
O355 C349 1.263 . S
C356 O357 1.275 . S
C356 O358 1.246 . S
O357 Tb340 2.427 . S
O357 C356 1.275 . S
O358 Tb340 2.513 . S
O358 C356 1.246 . S
C359 O343 1.245 . S
C359 O344 1.259 . S
Tb360 O363 2.453 . S
Tb360 O364 2.596 . S
Tb360 O365 2.374 . S
Tb360 O373 2.343 . S
Tb360 O375 2.353 . S
Tb360 O377 2.427 . S
Tb360 O378 2.513 . S
C361 O365 1.251 . S
C361 O367 1.263 . S
Tb362 O364 2.343 . S
Tb362 O367 2.353 . S
Tb362 O370 2.427 . S
Tb362 O371 2.513 . S
Tb362 O372 2.453 . S
Tb362 O373 2.596 . S
Tb362 O374 2.374 . S
O363 Tb360 2.453 . S
O363 C379 1.245 . S
O364 Tb360 2.596 . S
O364 Tb362 2.343 . S
O364 C379 1.259 . S
O365 Tb360 2.374 . S
O365 C361 1.251 . S
C366 O370 1.275 . S
C366 O371 1.246 . S
O367 C361 1.263 . S
O367 Tb362 2.353 . S
C368 O372 1.245 . S
C368 O373 1.259 . S
C369 O374 1.250 . S
C369 O375 1.263 . S
O370 Tb362 2.427 . S
O370 C366 1.275 . S
O371 Tb362 2.513 . S
O371 C366 1.246 . S
O372 Tb362 2.453 . S
O372 C368 1.245 . S
O373 Tb360 2.343 . S
O373 Tb362 2.596 . S
O373 C368 1.259 . S
O374 Tb362 2.374 . S
O374 C369 1.250 . S
O375 Tb360 2.353 . S
O375 C369 1.263 . S
C376 O377 1.275 . S
C376 O378 1.246 . S
O377 Tb360 2.427 . S
O377 C376 1.275 . S
O378 Tb360 2.513 . S
O378 C376 1.246 . S
C379 O363 1.245 . S
C379 O364 1.259 . S
Tb380 O383 2.453 . S
Tb380 O384 2.595 . S
Tb380 O385 2.374 1_565 S
Tb380 O393 2.342 1_565 S
Tb380 O395 2.353 . S
Tb380 O397 2.427 . S
Tb380 O398 2.513 1_565 S
C381 O385 1.251 . S
C381 O387 1.263 . S
Tb382 O384 2.343 1_545 S
Tb382 O387 2.353 . S
Tb382 O390 2.427 . S
Tb382 O391 2.513 1_545 S
Tb382 O392 2.453 . S
Tb382 O393 2.597 . S
Tb382 O394 2.374 1_545 S
O383 Tb380 2.453 . S
O383 C399 1.265 . S
O384 Tb380 2.595 . S
O384 Tb382 2.343 1_565 S
O384 C399 1.258 . S
O385 Tb380 2.374 1_545 S
O385 C381 1.251 . S
C386 O390 1.275 . S
C386 O391 1.246 1_545 S
O387 C381 1.263 . S
O387 Tb382 2.353 . S
C388 O392 1.245 . S
C388 O393 1.260 . S
C389 O394 1.250 . S
C389 O395 1.263 . S
O390 Tb382 2.427 . S
O390 C386 1.275 . S
O391 Tb382 2.513 1_565 S
O391 C386 1.246 1_565 S
O392 Tb382 2.453 . S
O392 C388 1.245 . S
O393 Tb380 2.342 1_545 S
O393 Tb382 2.597 . S
O393 C388 1.260 . S
O394 Tb382 2.374 1_565 S
O394 C389 1.250 . S
O395 Tb380 2.353 . S
O395 C389 1.263 . S
C396 O397 1.275 . S
C396 O398 1.246 1_565 S
O397 Tb380 2.427 . S
O397 C396 1.275 . S
O398 Tb380 2.513 1_545 S
O398 C396 1.246 1_545 S
C399 O383 1.265 . S
C399 O384 1.258 . S
Tb400 O403 2.453 . S
Tb400 O404 2.597 . S
Tb400 O405 2.374 1_565 S
Tb400 O413 2.343 1_565 S
Tb400 O415 2.353 . S
Tb400 O417 2.427 . S
Tb400 O418 2.513 1_565 S
C401 O405 1.251 . S
C401 O407 1.263 . S
Tb402 O404 2.342 1_545 S
Tb402 O407 2.353 . S
Tb402 O410 2.427 . S
Tb402 O411 2.513 1_545 S
Tb402 O412 2.453 . S
Tb402 O413 2.595 . S
Tb402 O414 2.374 1_545 S
O403 Tb400 2.453 . S
O403 C419 1.245 . S
O404 Tb400 2.597 . S
O404 Tb402 2.342 1_565 S
O404 C419 1.260 . S
O405 Tb400 2.374 1_545 S
O405 C401 1.251 . S
C406 O410 1.275 . S
C406 O411 1.246 1_545 S
O407 C401 1.263 . S
O407 Tb402 2.353 . S
C408 O412 1.265 . S
C408 O413 1.258 . S
C409 O414 1.250 . S
C409 O415 1.263 . S
O410 Tb402 2.427 . S
O410 C406 1.275 . S
O411 Tb402 2.513 1_565 S
O411 C406 1.246 1_565 S
O412 Tb402 2.453 . S
O412 C408 1.265 . S
O413 Tb400 2.343 1_545 S
O413 Tb402 2.595 . S
O413 C408 1.258 . S
O414 Tb402 2.374 1_565 S
O414 C409 1.250 . S
O415 Tb400 2.353 . S
O415 C409 1.263 . S
C416 O417 1.275 . S
C416 O418 1.246 1_565 S
O417 Tb400 2.427 . S
O417 C416 1.275 . S
O418 Tb400 2.513 1_545 S
O418 C416 1.246 1_545 S
C419 O403 1.245 . S
C419 O404 1.260 . S
Tb420 O423 2.453 . S
Tb420 O424 2.596 . S
Tb420 O425 2.374 . S
Tb420 O433 2.343 . S
Tb420 O435 2.353 . S
Tb420 O437 2.427 . S
Tb420 O438 2.513 . S
C421 O425 1.251 . S
C421 O427 1.263 . S
Tb422 O424 2.343 . S
Tb422 O427 2.353 . S
Tb422 O430 2.427 . S
Tb422 O431 2.513 . S
Tb422 O432 2.453 . S
Tb422 O433 2.596 . S
Tb422 O434 2.374 . S
O423 Tb420 2.453 . S
O423 C439 1.245 . S
O424 Tb420 2.596 . S
O424 Tb422 2.343 . S
O424 C439 1.259 . S
O425 Tb420 2.374 . S
O425 C421 1.251 . S
C426 O430 1.275 . S
C426 O431 1.246 . S
O427 C421 1.263 . S
O427 Tb422 2.353 . S
C428 O432 1.245 . S
C428 O433 1.259 . S
C429 O434 1.250 . S
C429 O435 1.263 . S
O430 Tb422 2.427 . S
O430 C426 1.275 . S
O431 Tb422 2.513 . S
O431 C426 1.246 . S
O432 Tb422 2.453 . S
O432 C428 1.245 . S
O433 Tb420 2.343 . S
O433 Tb422 2.596 . S
O433 C428 1.259 . S
O434 Tb422 2.374 . S
O434 C429 1.250 . S
O435 Tb420 2.353 . S
O435 C429 1.263 . S
C436 O437 1.275 . S
C436 O438 1.246 . S
O437 Tb420 2.427 . S
O437 C436 1.275 . S
O438 Tb420 2.513 . S
O438 C436 1.246 . S
C439 O423 1.245 . S
C439 O424 1.259 . S
Tb440 O443 2.453 . S
Tb440 O444 2.596 . S
Tb440 O445 2.374 . S
Tb440 O453 2.343 . S
Tb440 O455 2.353 . S
Tb440 O457 2.427 . S
Tb440 O458 2.513 . S
C441 O445 1.251 . S
C441 O447 1.263 . S
Tb442 O444 2.343 . S
Tb442 O447 2.353 . S
Tb442 O450 2.427 . S
Tb442 O451 2.513 . S
Tb442 O452 2.453 . S
Tb442 O453 2.596 . S
Tb442 O454 2.374 . S
O443 Tb440 2.453 . S
O443 C459 1.245 . S
O444 Tb440 2.596 . S
O444 Tb442 2.343 . S
O444 C459 1.259 . S
O445 Tb440 2.374 . S
O445 C441 1.251 . S
C446 O450 1.275 . S
C446 O451 1.246 . S
O447 C441 1.263 . S
O447 Tb442 2.353 . S
C448 O452 1.245 . S
C448 O453 1.259 . S
C449 O454 1.250 . S
C449 O455 1.263 . S
O450 Tb442 2.427 . S
O450 C446 1.275 . S
O451 Tb442 2.513 . S
O451 C446 1.246 . S
O452 Tb442 2.453 . S
O452 C448 1.245 . S
O453 Tb440 2.343 . S
O453 Tb442 2.596 . S
O453 C448 1.259 . S
O454 Tb442 2.374 . S
O454 C449 1.250 . S
O455 Tb440 2.353 . S
O455 C449 1.263 . S
C456 O457 1.275 . S
C456 O458 1.246 . S
O457 Tb440 2.427 . S
O457 C456 1.275 . S
O458 Tb440 2.513 . S
O458 C456 1.246 . S
C459 O443 1.245 . S
C459 O444 1.259 . S
Tb460 O463 2.453 . S
Tb460 O464 2.597 . S
Tb460 O465 2.374 1_565 S
Tb460 O473 2.343 1_565 S
Tb460 O475 2.353 . S
Tb460 O477 2.427 . S
Tb460 O478 2.513 1_565 S
C461 O465 1.251 . S
C461 O467 1.263 . S
Tb462 O464 2.342 1_545 S
Tb462 O467 2.353 . S
Tb462 O470 2.427 . S
Tb462 O471 2.513 1_545 S
Tb462 O472 2.453 . S
Tb462 O473 2.595 . S
Tb462 O474 2.374 1_545 S
O463 Tb460 2.453 . S
O463 C479 1.245 . S
O464 Tb460 2.597 . S
O464 Tb462 2.342 1_565 S
O464 C479 1.260 . S
O465 Tb460 2.374 1_545 S
O465 C461 1.251 . S
C466 O470 1.275 . S
C466 O471 1.246 1_545 S
O467 C461 1.263 . S
O467 Tb462 2.353 . S
C468 O472 1.265 . S
C468 O473 1.258 . S
C469 O474 1.250 . S
C469 O475 1.263 . S
O470 Tb462 2.427 . S
O470 C466 1.275 . S
O471 Tb462 2.513 1_565 S
O471 C466 1.246 1_565 S
O472 Tb462 2.453 . S
O472 C468 1.265 . S
O473 Tb460 2.343 1_545 S
O473 Tb462 2.595 . S
O473 C468 1.258 . S
O474 Tb462 2.374 1_565 S
O474 C469 1.250 . S
O475 Tb460 2.353 . S
O475 C469 1.263 . S
C476 O477 1.275 . S
C476 O478 1.246 1_565 S
O477 Tb460 2.427 . S
O477 C476 1.275 . S
O478 Tb460 2.513 1_545 S
O478 C476 1.246 1_545 S
C479 O463 1.245 . S
C479 O464 1.260 . S
Tb480 O483 2.453 . S
Tb480 O484 2.596 . S
Tb480 O485 2.374 . S
Tb480 O493 2.343 . S
Tb480 O495 2.353 . S
Tb480 O497 2.427 . S
Tb480 O498 2.513 . S
C481 O485 1.251 . S
C481 O487 1.263 . S
Tb482 O484 2.343 . S
Tb482 O487 2.353 . S
Tb482 O490 2.427 . S
Tb482 O491 2.513 . S
Tb482 O492 2.453 . S
Tb482 O493 2.596 . S
Tb482 O494 2.374 . S
O483 Tb480 2.453 . S
O483 C499 1.245 . S
O484 Tb480 2.596 . S
O484 Tb482 2.343 . S
O484 C499 1.259 . S
O485 Tb480 2.374 . S
O485 C481 1.251 . S
C486 O490 1.275 . S
C486 O491 1.246 . S
O487 C481 1.263 . S
O487 Tb482 2.353 . S
C488 O492 1.245 . S
C488 O493 1.259 . S
C489 O494 1.250 . S
C489 O495 1.263 . S
O490 Tb482 2.427 . S
O490 C486 1.275 . S
O491 Tb482 2.513 . S
O491 C486 1.246 . S
O492 Tb482 2.453 . S
O492 C488 1.245 . S
O493 Tb480 2.343 . S
O493 Tb482 2.596 . S
O493 C488 1.259 . S
O494 Tb482 2.374 . S
O494 C489 1.250 . S
O495 Tb480 2.353 . S
O495 C489 1.263 . S
C496 O497 1.275 . S
C496 O498 1.246 . S
O497 Tb480 2.427 . S
O497 C496 1.275 . S
O498 Tb480 2.513 . S
O498 C496 1.246 . S
C499 O483 1.245 . S
C499 O484 1.259 . S
Tb500 O503 2.453 . S
Tb500 O504 2.596 . S
Tb500 O505 2.374 . S
Tb500 O513 2.343 . S
Tb500 O515 2.353 . S
Tb500 O517 2.427 . S
Tb500 O518 2.513 . S
C501 O505 1.251 . S
C501 O507 1.263 . S
Tb502 O504 2.343 . S
Tb502 O507 2.353 . S
Tb502 O510 2.427 . S
Tb502 O511 2.513 . S
Tb502 O512 2.453 . S
Tb502 O513 2.596 . S
Tb502 O514 2.374 . S
O503 Tb500 2.453 . S
O503 C519 1.245 . S
O504 Tb500 2.596 . S
O504 Tb502 2.343 . S
O504 C519 1.259 . S
O505 Tb500 2.374 . S
O505 C501 1.251 . S
C506 O510 1.275 . S
C506 O511 1.246 . S
O507 C501 1.263 . S
O507 Tb502 2.353 . S
C508 O512 1.245 . S
C508 O513 1.259 . S
C509 O514 1.250 . S
C509 O515 1.263 . S
O510 Tb502 2.427 . S
O510 C506 1.275 . S
O511 Tb502 2.513 . S
O511 C506 1.246 . S
O512 Tb502 2.453 . S
O512 C508 1.245 . S
O513 Tb500 2.343 . S
O513 Tb502 2.596 . S
O513 C508 1.259 . S
O514 Tb502 2.374 . S
O514 C509 1.250 . S
O515 Tb500 2.353 . S
O515 C509 1.263 . S
C516 O517 1.275 . S
C516 O518 1.246 . S
O517 Tb500 2.427 . S
O517 C516 1.275 . S
O518 Tb500 2.513 . S
O518 C516 1.246 . S
C519 O503 1.245 . S
C519 O504 1.259 . S
Tb520 O523 2.453 . S
Tb520 O524 2.596 . S
Tb520 O525 2.374 . S
Tb520 O533 2.343 . S
Tb520 O535 2.353 . S
Tb520 O537 2.427 . S
Tb520 O538 2.513 . S
C521 O525 1.251 . S
C521 O527 1.263 . S
Tb522 O524 2.343 . S
Tb522 O527 2.353 . S
Tb522 O530 2.427 . S
Tb522 O531 2.513 . S
Tb522 O532 2.453 . S
Tb522 O533 2.596 . S
Tb522 O534 2.374 . S
O523 Tb520 2.453 . S
O523 C539 1.245 . S
O524 Tb520 2.596 . S
O524 Tb522 2.343 . S
O524 C539 1.259 . S
O525 Tb520 2.374 . S
O525 C521 1.251 . S
C526 O530 1.275 . S
C526 O531 1.246 . S
O527 C521 1.263 . S
O527 Tb522 2.353 . S
C528 O532 1.245 . S
C528 O533 1.259 . S
C529 O534 1.250 . S
C529 O535 1.263 . S
O530 Tb522 2.427 . S
O530 C526 1.275 . S
O531 Tb522 2.513 . S
O531 C526 1.246 . S
O532 Tb522 2.453 . S
O532 C528 1.245 . S
O533 Tb520 2.343 . S
O533 Tb522 2.596 . S
O533 C528 1.259 . S
O534 Tb522 2.374 . S
O534 C529 1.250 . S
O535 Tb520 2.353 . S
O535 C529 1.263 . S
C536 O537 1.275 . S
C536 O538 1.246 . S
O537 Tb520 2.427 . S
O537 C536 1.275 . S
O538 Tb520 2.513 . S
O538 C536 1.246 . S
C539 O523 1.245 . S
C539 O524 1.259 . S
Tb540 O543 2.453 . S
Tb540 O544 2.596 . S
Tb540 O545 2.374 . S
Tb540 O553 2.343 . S
Tb540 O555 2.353 . S
Tb540 O557 2.427 . S
Tb540 O558 2.513 . S
C541 O545 1.251 . S
C541 O547 1.263 . S
Tb542 O544 2.343 . S
Tb542 O547 2.353 . S
Tb542 O550 2.427 . S
Tb542 O551 2.513 . S
Tb542 O552 2.453 . S
Tb542 O553 2.596 . S
Tb542 O554 2.374 . S
O543 Tb540 2.453 . S
O543 C559 1.245 . S
O544 Tb540 2.596 . S
O544 Tb542 2.343 . S
O544 C559 1.259 . S
O545 Tb540 2.374 . S
O545 C541 1.251 . S
C546 O550 1.275 . S
C546 O551 1.246 . S
O547 C541 1.263 . S
O547 Tb542 2.353 . S
C548 O552 1.245 . S
C548 O553 1.259 . S
C549 O554 1.250 . S
C549 O555 1.263 . S
O550 Tb542 2.427 . S
O550 C546 1.275 . S
O551 Tb542 2.513 . S
O551 C546 1.246 . S
O552 Tb542 2.453 . S
O552 C548 1.245 . S
O553 Tb540 2.343 . S
O553 Tb542 2.596 . S
O553 C548 1.259 . S
O554 Tb542 2.374 . S
O554 C549 1.250 . S
O555 Tb540 2.353 . S
O555 C549 1.263 . S
C556 O557 1.275 . S
C556 O558 1.246 . S
O557 Tb540 2.427 . S
O557 C556 1.275 . S
O558 Tb540 2.513 . S
O558 C556 1.246 . S
C559 O543 1.245 . S
C559 O544 1.259 . S
Tb560 O563 2.453 . S
Tb560 O564 2.596 . S
Tb560 O565 2.374 . S
Tb560 O573 2.343 . S
Tb560 O575 2.353 . S
Tb560 O577 2.427 . S
Tb560 O578 2.513 . S
C561 O565 1.251 . S
C561 O567 1.263 . S
Tb562 O564 2.343 . S
Tb562 O567 2.353 . S
Tb562 O570 2.427 . S
Tb562 O571 2.513 . S
Tb562 O572 2.453 . S
Tb562 O573 2.596 . S
Tb562 O574 2.374 . S
O563 Tb560 2.453 . S
O563 C579 1.245 . S
O564 Tb560 2.596 . S
O564 Tb562 2.343 . S
O564 C579 1.259 . S
O565 Tb560 2.374 . S
O565 C561 1.251 . S
C566 O570 1.275 . S
C566 O571 1.246 . S
O567 C561 1.263 . S
O567 Tb562 2.353 . S
C568 O572 1.245 . S
C568 O573 1.259 . S
C569 O574 1.250 . S
C569 O575 1.263 . S
O570 Tb562 2.427 . S
O570 C566 1.275 . S
O571 Tb562 2.513 . S
O571 C566 1.246 . S
O572 Tb562 2.453 . S
O572 C568 1.245 . S
O573 Tb560 2.343 . S
O573 Tb562 2.596 . S
O573 C568 1.259 . S
O574 Tb562 2.374 . S
O574 C569 1.250 . S
O575 Tb560 2.353 . S
O575 C569 1.263 . S
C576 O577 1.275 . S
C576 O578 1.246 . S
O577 Tb560 2.427 . S
O577 C576 1.275 . S
O578 Tb560 2.513 . S
O578 C576 1.246 . S
C579 O563 1.245 . S
C579 O564 1.259 . S
Tb580 O583 2.453 . S
Tb580 O584 2.596 . S
Tb580 O585 2.374 . S
Tb580 O593 2.343 . S
Tb580 O595 2.353 . S
Tb580 O597 2.427 . S
Tb580 O598 2.513 . S
C581 O585 1.251 . S
C581 O587 1.263 . S
Tb582 O584 2.343 . S
Tb582 O587 2.353 . S
Tb582 O590 2.427 . S
Tb582 O591 2.513 . S
Tb582 O592 2.453 . S
Tb582 O593 2.596 . S
Tb582 O594 2.374 . S
O583 Tb580 2.453 . S
O583 C599 1.245 . S
O584 Tb580 2.596 . S
O584 Tb582 2.343 . S
O584 C599 1.259 . S
O585 Tb580 2.374 . S
O585 C581 1.251 . S
C586 O590 1.275 . S
C586 O591 1.246 . S
O587 C581 1.263 . S
O587 Tb582 2.353 . S
C588 O592 1.245 . S
C588 O593 1.259 . S
C589 O594 1.250 . S
C589 O595 1.263 . S
O590 Tb582 2.427 . S
O590 C586 1.275 . S
O591 Tb582 2.513 . S
O591 C586 1.246 . S
O592 Tb582 2.453 . S
O592 C588 1.245 . S
O593 Tb580 2.343 . S
O593 Tb582 2.596 . S
O593 C588 1.259 . S
O594 Tb582 2.374 . S
O594 C589 1.250 . S
O595 Tb580 2.353 . S
O595 C589 1.263 . S
C596 O597 1.275 . S
C596 O598 1.246 . S
O597 Tb580 2.427 . S
O597 C596 1.275 . S
O598 Tb580 2.513 . S
O598 C596 1.246 . S
C599 O583 1.245 . S
C599 O584 1.259 . S
Tb600 O603 2.453 . S
Tb600 O604 2.596 . S
Tb600 O605 2.374 . S
Tb600 O613 2.343 . S
Tb600 O615 2.353 . S
Tb600 O617 2.427 . S
Tb600 O618 2.513 . S
C601 O605 1.251 . S
C601 O607 1.263 . S
Tb602 O604 2.343 . S
Tb602 O607 2.353 . S
Tb602 O610 2.427 . S
Tb602 O611 2.513 . S
Tb602 O612 2.453 . S
Tb602 O613 2.596 . S
Tb602 O614 2.374 . S
O603 Tb600 2.453 . S
O603 C619 1.245 . S
O604 Tb600 2.596 . S
O604 Tb602 2.343 . S
O604 C619 1.259 . S
O605 Tb600 2.374 . S
O605 C601 1.251 . S
C606 O610 1.275 . S
C606 O611 1.246 . S
O607 C601 1.263 . S
O607 Tb602 2.353 . S
C608 O612 1.245 . S
C608 O613 1.259 . S
C609 O614 1.250 . S
C609 O615 1.263 . S
O610 Tb602 2.427 . S
O610 C606 1.275 . S
O611 Tb602 2.513 . S
O611 C606 1.246 . S
O612 Tb602 2.453 . S
O612 C608 1.245 . S
O613 Tb600 2.343 . S
O613 Tb602 2.596 . S
O613 C608 1.259 . S
O614 Tb602 2.374 . S
O614 C609 1.250 . S
O615 Tb600 2.353 . S
O615 C609 1.263 . S
C616 O617 1.275 . S
C616 O618 1.246 . S
O617 Tb600 2.427 . S
O617 C616 1.275 . S
O618 Tb600 2.513 . S
O618 C616 1.246 . S
C619 O603 1.245 . S
C619 O604 1.259 . S
Tb620 O623 2.453 . S
Tb620 O624 2.596 . S
Tb620 O625 2.374 . S
Tb620 O633 2.343 . S
Tb620 O635 2.353 . S
Tb620 O637 2.427 . S
Tb620 O638 2.513 . S
C621 O625 1.251 . S
C621 O627 1.263 . S
Tb622 O624 2.343 . S
Tb622 O627 2.353 . S
Tb622 O630 2.427 . S
Tb622 O631 2.513 . S
Tb622 O632 2.453 . S
Tb622 O633 2.596 . S
Tb622 O634 2.374 . S
O623 Tb620 2.453 . S
O623 C639 1.245 . S
O624 Tb620 2.596 . S
O624 Tb622 2.343 . S
O624 C639 1.259 . S
O625 Tb620 2.374 . S
O625 C621 1.251 . S
C626 O630 1.275 . S
C626 O631 1.246 . S
O627 C621 1.263 . S
O627 Tb622 2.353 . S
C628 O632 1.245 . S
C628 O633 1.259 . S
C629 O634 1.250 . S
C629 O635 1.263 . S
O630 Tb622 2.427 . S
O630 C626 1.275 . S
O631 Tb622 2.513 . S
O631 C626 1.246 . S
O632 Tb622 2.453 . S
O632 C628 1.245 . S
O633 Tb620 2.343 . S
O633 Tb622 2.596 . S
O633 C628 1.259 . S
O634 Tb622 2.374 . S
O634 C629 1.250 . S
O635 Tb620 2.353 . S
O635 C629 1.263 . S
C636 O637 1.275 . S
C636 O638 1.246 . S
O637 Tb620 2.427 . S
O637 C636 1.275 . S
O638 Tb620 2.513 . S
O638 C636 1.246 . S
C639 O623 1.245 . S
C639 O624 1.259 . S
H640 C648 0.929 . S
H641 C650 0.930 . S
H642 C652 0.930 . S
H643 C655 0.929 . S
H644 C658 0.930 . S
H645 C660 0.938 1_556 S
H646 C660 0.960 . S
H647 C660 0.960 . S
C648 H640 0.929 . S
C648 C649 1.377 . S
C648 C650 1.384 . S
C649 C648 1.377 . S
C649 C655 1.390 . S
C650 H641 0.930 . S
C650 C648 1.384 . S
C650 C651 1.372 . S
C651 C650 1.372 . S
C651 C652 1.400 . S
C651 C656 1.490 . S
C652 H642 0.930 . S
C652 C651 1.400 . S
C652 C655 1.386 . S
H653 C669 0.930 . S
H654 C670 0.931 . S
C655 H643 0.929 . S
C655 C649 1.390 . S
C655 C652 1.386 . S
C656 C651 1.490 . S
C656 C658 1.395 . S
C656 C659 1.403 . S
H657 C663 0.930 . S
C658 H644 0.930 . S
C658 C656 1.395 . S
C658 C661 1.403 . S
C659 C656 1.403 . S
C659 C660 1.524 . S
C659 C663 1.400 . S
C660 H645 0.938 1_554 S
C660 H646 0.960 . S
C660 H647 0.960 . S
C660 C659 1.524 . S
C661 C658 1.403 . S
C661 C662 1.392 . S
C661 C665 1.495 . S
C662 C661 1.392 . S
C662 C663 1.385 . S
C662 C664 1.478 . S
C663 H657 0.930 . S
C663 C659 1.400 . S
C663 C662 1.385 . S
C664 C662 1.478 . S
C664 C666 1.381 . S
C664 C670 1.383 . S
C665 C661 1.495 . S
C665 H671 0.959 . S
C665 H672 0.961 . S
C665 H673 0.960 . S
C666 C664 1.381 . S
C666 C667 1.394 . S
C666 H674 0.930 . S
C667 C666 1.394 . S
C667 C668 1.383 . S
C667 H675 0.929 . S
C668 C667 1.383 . S
C668 C669 1.377 . S
C669 H653 0.930 . S
C669 C668 1.377 . S
C669 C670 1.379 . S
C670 H654 0.931 . S
C670 C664 1.383 . S
C670 C669 1.379 . S
H671 C665 0.959 . S
H672 C665 0.961 . S
H673 C665 0.960 . S
H674 C666 0.930 . S
H675 C667 0.929 . S
H676 C684 0.929 . S
H677 C686 0.930 . S
H678 C688 0.930 . S
H679 C691 0.929 . S
H680 C694 0.930 . S
H681 C696 0.960 . S
H682 C696 0.960 . S
H683 C696 0.960 . S
C684 H676 0.929 . S
C684 C685 1.377 . S
C684 C686 1.384 . S
C685 C684 1.377 . S
C685 C691 1.390 . S
C686 H677 0.930 . S
C686 C684 1.384 . S
C686 C687 1.372 . S
C687 C686 1.372 . S
C687 C688 1.400 . S
C687 C692 1.490 . S
C688 H678 0.930 . S
C688 C687 1.400 . S
C688 C691 1.386 . S
H689 C705 0.930 . S
H690 C706 0.931 . S
C691 H679 0.929 . S
C691 C685 1.390 . S
C691 C688 1.386 . S
C692 C687 1.490 . S
C692 C694 1.395 . S
C692 C695 1.403 . S
H693 C699 0.930 . S
C694 H680 0.930 . S
C694 C692 1.395 . S
C694 C697 1.403 . S
C695 C692 1.403 . S
C695 C696 1.524 . S
C695 C699 1.400 . S
C696 H681 0.960 . S
C696 H682 0.960 . S
C696 H683 0.960 . S
C696 C695 1.524 . S
C697 C694 1.403 . S
C697 C698 1.392 . S
C697 C701 1.495 . S
C698 C697 1.392 . S
C698 C699 1.385 . S
C698 C700 1.478 . S
C699 H693 0.930 . S
C699 C695 1.400 . S
C699 C698 1.385 . S
C700 C698 1.478 . S
C700 C702 1.381 . S
C700 C706 1.383 . S
C701 C697 1.495 . S
C701 H707 0.959 . S
C701 H708 0.961 . S
C701 H709 0.960 . S
C702 C700 1.381 . S
C702 C703 1.394 . S
C702 H710 0.930 . S
C703 C702 1.394 . S
C703 C704 1.383 . S
C703 H711 0.929 . S
C704 C703 1.383 . S
C704 C705 1.377 . S
C705 H689 0.930 . S
C705 C704 1.377 . S
C705 C706 1.379 . S
C706 H690 0.931 . S
C706 C700 1.383 . S
C706 C705 1.379 . S
H707 C701 0.959 . S
H708 C701 0.961 . S
H709 C701 0.960 . S
H710 C702 0.930 . S
H711 C703 0.929 . S
H712 C720 0.929 . S
H713 C722 0.930 . S
H714 C724 0.930 . S
H715 C727 0.929 . S
H716 C730 0.930 . S
H717 C732 0.960 . S
H718 C732 0.960 . S
H719 C732 0.960 . S
C720 H712 0.929 . S
C720 C721 1.377 . S
C720 C722 1.384 . S
C721 C720 1.377 . S
C721 C727 1.390 . S
C722 H713 0.930 . S
C722 C720 1.384 . S
C722 C723 1.372 . S
C723 C722 1.372 . S
C723 C724 1.400 . S
C723 C728 1.490 . S
C724 H714 0.930 . S
C724 C723 1.400 . S
C724 C727 1.386 . S
H725 C741 0.930 . S
H726 C742 0.931 . S
C727 H715 0.929 . S
C727 C721 1.390 . S
C727 C724 1.386 . S
C728 C723 1.490 . S
C728 C730 1.395 . S
C728 C731 1.403 . S
H729 C735 0.930 . S
C730 H716 0.930 . S
C730 C728 1.395 . S
C730 C733 1.403 . S
C731 C728 1.403 . S
C731 C732 1.524 . S
C731 C735 1.400 . S
C732 H717 0.960 . S
C732 H718 0.960 . S
C732 H719 0.960 . S
C732 C731 1.524 . S
C733 C730 1.403 . S
C733 C734 1.392 . S
C733 C737 1.495 . S
C734 C733 1.392 . S
C734 C735 1.385 . S
C734 C736 1.478 . S
C735 H729 0.930 . S
C735 C731 1.400 . S
C735 C734 1.385 . S
C736 C734 1.478 . S
C736 C738 1.381 . S
C736 C742 1.383 . S
C737 C733 1.495 . S
C737 H743 0.959 . S
C737 H744 0.961 . S
C737 H745 0.960 . S
C738 C736 1.381 . S
C738 C739 1.394 . S
C738 H746 0.930 . S
C739 C738 1.394 . S
C739 C740 1.383 . S
C739 H747 0.929 . S
C740 C739 1.383 . S
C740 C741 1.377 . S
C741 H725 0.930 . S
C741 C740 1.377 . S
C741 C742 1.379 . S
C742 H726 0.931 . S
C742 C736 1.383 . S
C742 C741 1.379 . S
H743 C737 0.959 . S
H744 C737 0.961 . S
H745 C737 0.960 . S
H746 C738 0.930 . S
H747 C739 0.929 . S
H748 C756 0.929 . S
H749 C758 0.930 . S
H750 C760 0.930 . S
H751 C763 0.929 . S
H752 C766 0.930 . S
H753 C768 0.960 . S
H754 C768 0.960 . S
H755 C768 0.960 . S
C756 H748 0.929 . S
C756 C757 1.377 . S
C756 C758 1.384 . S
C757 C756 1.377 . S
C757 C763 1.390 . S
C758 H749 0.930 . S
C758 C756 1.384 . S
C758 C759 1.372 . S
C759 C758 1.372 . S
C759 C760 1.400 . S
C759 C764 1.490 . S
C760 H750 0.930 . S
C760 C759 1.400 . S
C760 C763 1.386 . S
H761 C777 0.930 . S
H762 C778 0.931 . S
C763 H751 0.929 . S
C763 C757 1.390 . S
C763 C760 1.386 . S
C764 C759 1.490 . S
C764 C766 1.395 . S
C764 C767 1.403 . S
H765 C771 0.930 . S
C766 H752 0.930 . S
C766 C764 1.395 . S
C766 C769 1.403 . S
C767 C764 1.403 . S
C767 C768 1.524 . S
C767 C771 1.400 . S
C768 H753 0.960 . S
C768 H754 0.960 . S
C768 H755 0.960 . S
C768 C767 1.524 . S
C769 C766 1.403 . S
C769 C770 1.392 . S
C769 C773 1.495 . S
C770 C769 1.392 . S
C770 C771 1.385 . S
C770 C772 1.478 . S
C771 H765 0.930 . S
C771 C767 1.400 . S
C771 C770 1.385 . S
C772 C770 1.478 . S
C772 C774 1.381 . S
C772 C778 1.383 . S
C773 C769 1.495 . S
C773 H779 0.959 . S
C773 H780 0.961 . S
C773 H781 0.960 . S
C774 C772 1.381 . S
C774 C775 1.394 . S
C774 H782 0.930 . S
C775 C774 1.394 . S
C775 C776 1.383 . S
C775 H783 0.929 . S
C776 C775 1.383 . S
C776 C777 1.377 . S
C777 H761 0.930 . S
C777 C776 1.377 . S
C777 C778 1.379 . S
C778 H762 0.931 . S
C778 C772 1.383 . S
C778 C777 1.379 . S
H779 C773 0.959 . S
H780 C773 0.961 . S
H781 C773 0.960 . S
H782 C774 0.930 . S
H783 C775 0.929 . S
H784 C792 0.929 . S
H785 C794 0.930 . S
H786 C796 0.930 . S
H787 C799 0.929 . S
H788 C802 0.930 . S
H789 C804 0.960 . S
H790 C804 0.960 . S
H791 C804 0.960 . S
C792 H784 0.929 . S
C792 C793 1.377 . S
C792 C794 1.384 . S
C793 C792 1.377 . S
C793 C799 1.390 . S
C794 H785 0.930 . S
C794 C792 1.384 . S
C794 C795 1.372 . S
C795 C794 1.372 . S
C795 C796 1.400 . S
C795 C800 1.490 . S
C796 H786 0.930 . S
C796 C795 1.400 . S
C796 C799 1.386 . S
H797 C813 0.930 . S
H798 C814 0.931 . S
C799 H787 0.929 . S
C799 C793 1.390 . S
C799 C796 1.386 . S
C800 C795 1.490 . S
C800 C802 1.395 . S
C800 C803 1.403 . S
H801 C807 0.930 . S
C802 H788 0.930 . S
C802 C800 1.395 . S
C802 C805 1.403 . S
C803 C800 1.403 . S
C803 C804 1.524 . S
C803 C807 1.400 . S
C804 H789 0.960 . S
C804 H790 0.960 . S
C804 H791 0.960 . S
C804 C803 1.524 . S
C805 C802 1.403 . S
C805 C806 1.392 . S
C805 C809 1.495 . S
C806 C805 1.392 . S
C806 C807 1.385 . S
C806 C808 1.478 . S
C807 H801 0.930 . S
C807 C803 1.400 . S
C807 C806 1.385 . S
C808 C806 1.478 . S
C808 C810 1.381 . S
C808 C814 1.383 . S
C809 C805 1.495 . S
C809 H815 0.959 . S
C809 H816 0.961 . S
C809 H817 0.960 . S
C810 C808 1.381 . S
C810 C811 1.394 . S
C810 H818 0.930 . S
C811 C810 1.394 . S
C811 C812 1.383 . S
C811 H819 0.929 . S
C812 C811 1.383 . S
C812 C813 1.377 . S
C813 H797 0.930 . S
C813 C812 1.377 . S
C813 C814 1.379 . S
C814 H798 0.931 . S
C814 C808 1.383 . S
C814 C813 1.379 . S
H815 C809 0.959 . S
H816 C809 0.961 . S
H817 C809 0.960 . S
H818 C810 0.930 . S
H819 C811 0.929 . S
H820 C828 0.929 . S
H821 C830 0.930 . S
H822 C832 0.930 . S
H823 C835 0.929 . S
H824 C838 0.930 . S
H825 C840 0.960 . S
H826 C840 0.960 . S
H827 C840 0.960 . S
C828 H820 0.929 . S
C828 C829 1.377 . S
C828 C830 1.384 . S
C829 C828 1.377 . S
C829 C835 1.390 . S
C830 H821 0.930 . S
C830 C828 1.384 . S
C830 C831 1.372 . S
C831 C830 1.372 . S
C831 C832 1.400 . S
C831 C836 1.490 . S
C832 H822 0.930 . S
C832 C831 1.400 . S
C832 C835 1.386 . S
H833 C849 0.930 . S
H834 C850 0.931 . S
C835 H823 0.929 . S
C835 C829 1.390 . S
C835 C832 1.386 . S
C836 C831 1.490 . S
C836 C838 1.395 . S
C836 C839 1.403 . S
H837 C843 0.930 . S
C838 H824 0.930 . S
C838 C836 1.395 . S
C838 C841 1.403 . S
C839 C836 1.403 . S
C839 C840 1.524 . S
C839 C843 1.400 . S
C840 H825 0.960 . S
C840 H826 0.960 . S
C840 H827 0.960 . S
C840 C839 1.524 . S
C841 C838 1.403 . S
C841 C842 1.392 . S
C841 C845 1.495 . S
C842 C841 1.392 . S
C842 C843 1.385 . S
C842 C844 1.478 . S
C843 H837 0.930 . S
C843 C839 1.400 . S
C843 C842 1.385 . S
C844 C842 1.478 . S
C844 C846 1.381 . S
C844 C850 1.383 . S
C845 C841 1.495 . S
C845 H851 0.959 . S
C845 H852 0.961 . S
C845 H853 0.960 . S
C846 C844 1.381 . S
C846 C847 1.394 . S
C846 H854 0.930 . S
C847 C846 1.394 . S
C847 C848 1.383 . S
C847 H855 0.929 . S
C848 C847 1.383 . S
C848 C849 1.377 . S
C849 H833 0.930 . S
C849 C848 1.377 . S
C849 C850 1.379 . S
C850 H834 0.931 . S
C850 C844 1.383 . S
C850 C849 1.379 . S
H851 C845 0.959 . S
H852 C845 0.961 . S
H853 C845 0.960 . S
H854 C846 0.930 . S
H855 C847 0.929 . S
H856 C864 0.929 . S
H857 C866 0.930 . S
H858 C868 0.930 . S
H859 C871 0.929 . S
H860 C874 0.930 . S
H861 C876 0.960 . S
H862 C876 0.960 . S
H863 C876 0.960 . S
C864 H856 0.929 . S
C864 C865 1.377 . S
C864 C866 1.384 . S
C865 C864 1.377 . S
C865 C871 1.390 . S
C866 H857 0.930 . S
C866 C864 1.384 . S
C866 C867 1.372 . S
C867 C866 1.372 . S
C867 C868 1.400 . S
C867 C872 1.490 . S
C868 H858 0.930 . S
C868 C867 1.400 . S
C868 C871 1.386 . S
H869 C885 0.930 . S
H870 C886 0.931 . S
C871 H859 0.929 . S
C871 C865 1.390 . S
C871 C868 1.386 . S
C872 C867 1.490 . S
C872 C874 1.395 . S
C872 C875 1.403 . S
H873 C879 0.930 . S
C874 H860 0.930 . S
C874 C872 1.395 . S
C874 C877 1.403 . S
C875 C872 1.403 . S
C875 C876 1.524 . S
C875 C879 1.400 . S
C876 H861 0.960 . S
C876 H862 0.960 . S
C876 H863 0.960 . S
C876 C875 1.524 . S
C877 C874 1.403 . S
C877 C878 1.392 . S
C877 C881 1.495 . S
C878 C877 1.392 . S
C878 C879 1.385 . S
C878 C880 1.478 . S
C879 H873 0.930 . S
C879 C875 1.400 . S
C879 C878 1.385 . S
C880 C878 1.478 . S
C880 C882 1.381 . S
C880 C886 1.383 . S
C881 C877 1.495 . S
C881 H887 0.959 . S
C881 H888 0.961 . S
C881 H889 0.960 . S
C882 C880 1.381 . S
C882 C883 1.394 . S
C882 H890 0.930 . S
C883 C882 1.394 . S
C883 C884 1.383 . S
C883 H891 0.929 . S
C884 C883 1.383 . S
C884 C885 1.377 . S
C885 H869 0.930 . S
C885 C884 1.377 . S
C885 C886 1.379 . S
C886 H870 0.931 . S
C886 C880 1.383 . S
C886 C885 1.379 . S
H887 C881 0.959 . S
H888 C881 0.961 . S
H889 C881 0.960 . S
H890 C882 0.930 . S
H891 C883 0.929 . S
H892 C900 0.929 . S
H893 C902 0.930 . S
H894 C904 0.930 . S
H895 C907 0.929 . S
H896 C910 0.930 . S
H897 C912 0.960 . S
H898 C912 0.960 . S
H899 C912 0.960 . S
C900 H892 0.929 . S
C900 C901 1.377 . S
C900 C902 1.384 . S
C901 C900 1.377 . S
C901 C907 1.390 . S
C902 H893 0.930 . S
C902 C900 1.384 . S
C902 C903 1.372 . S
C903 C902 1.372 . S
C903 C904 1.400 . S
C903 C908 1.490 . S
C904 H894 0.930 . S
C904 C903 1.400 . S
C904 C907 1.386 . S
H905 C921 0.930 . S
H906 C922 0.931 . S
C907 H895 0.929 . S
C907 C901 1.390 . S
C907 C904 1.386 . S
C908 C903 1.490 . S
C908 C910 1.395 . S
C908 C911 1.403 . S
H909 C915 0.930 . S
C910 H896 0.930 . S
C910 C908 1.395 . S
C910 C913 1.403 . S
C911 C908 1.403 . S
C911 C912 1.524 . S
C911 C915 1.400 . S
C912 H897 0.960 . S
C912 H898 0.960 . S
C912 H899 0.960 . S
C912 C911 1.524 . S
C913 C910 1.403 . S
C913 C914 1.392 . S
C913 C917 1.495 . S
C914 C913 1.392 . S
C914 C915 1.385 . S
C914 C916 1.478 . S
C915 H909 0.930 . S
C915 C911 1.400 . S
C915 C914 1.385 . S
C916 C914 1.478 . S
C916 C918 1.381 . S
C916 C922 1.383 . S
C917 C913 1.495 . S
C917 H923 0.959 . S
C917 H924 0.961 . S
C917 H925 0.960 . S
C918 C916 1.381 . S
C918 C919 1.394 . S
C918 H926 0.930 . S
C919 C918 1.394 . S
C919 C920 1.383 . S
C919 H927 0.929 . S
C920 C919 1.383 . S
C920 C921 1.377 . S
C921 H905 0.930 . S
C921 C920 1.377 . S
C921 C922 1.379 . S
C922 H906 0.931 . S
C922 C916 1.383 . S
C922 C921 1.379 . S
H923 C917 0.959 . S
H924 C917 0.961 . S
H925 C917 0.960 . S
H926 C918 0.930 . S
H927 C919 0.929 . S
H928 C936 0.929 . S
H929 C938 0.930 . S
H930 C940 0.930 . S
H931 C943 0.929 . S
H932 C946 0.930 . S
H933 C948 0.960 . S
H934 C948 0.960 . S
H935 C948 0.960 . S
C936 H928 0.929 . S
C936 C937 1.377 . S
C936 C938 1.384 . S
C937 C936 1.377 . S
C937 C943 1.390 . S
C938 H929 0.930 . S
C938 C936 1.384 . S
C938 C939 1.372 . S
C939 C938 1.372 . S
C939 C940 1.400 . S
C939 C944 1.490 . S
C940 H930 0.930 . S
C940 C939 1.400 . S
C940 C943 1.386 . S
H941 C957 0.930 . S
H942 C958 0.931 . S
C943 H931 0.929 . S
C943 C937 1.390 . S
C943 C940 1.386 . S
C944 C939 1.490 . S
C944 C946 1.395 . S
C944 C947 1.403 . S
H945 C951 0.930 . S
C946 H932 0.930 . S
C946 C944 1.395 . S
C946 C949 1.403 . S
C947 C944 1.403 . S
C947 C948 1.524 . S
C947 C951 1.400 . S
C948 H933 0.960 . S
C948 H934 0.960 . S
C948 H935 0.960 . S
C948 C947 1.524 . S
C949 C946 1.403 . S
C949 C950 1.392 . S
C949 C953 1.495 . S
C950 C949 1.392 . S
C950 C951 1.385 . S
C950 C952 1.478 . S
C951 H945 0.930 . S
C951 C947 1.400 . S
C951 C950 1.385 . S
C952 C950 1.478 . S
C952 C954 1.381 . S
C952 C958 1.383 . S
C953 C949 1.495 . S
C953 H959 0.959 . S
C953 H960 0.961 . S
C953 H961 0.960 . S
C954 C952 1.381 . S
C954 C955 1.394 . S
C954 H962 0.930 . S
C955 C954 1.394 . S
C955 C956 1.383 . S
C955 H963 0.929 . S
C956 C955 1.383 . S
C956 C957 1.377 . S
C957 H941 0.930 . S
C957 C956 1.377 . S
C957 C958 1.379 . S
C958 H942 0.931 . S
C958 C952 1.383 . S
C958 C957 1.379 . S
H959 C953 0.959 . S
H960 C953 0.961 . S
H961 C953 0.960 . S
H962 C954 0.930 . S
H963 C955 0.929 . S
H964 C972 0.929 . S
H965 C974 0.930 . S
H966 C976 0.930 . S
H967 C979 0.929 . S
H968 C982 0.930 . S
H969 C984 0.960 . S
H970 C984 0.960 . S
H971 C984 0.960 . S
C972 H964 0.929 . S
C972 C973 1.377 . S
C972 C974 1.384 . S
C973 C972 1.377 . S
C973 C979 1.390 . S
C974 H965 0.930 . S
C974 C972 1.384 . S
C974 C975 1.372 . S
C975 C974 1.372 . S
C975 C976 1.400 . S
C975 C980 1.490 . S
C976 H966 0.930 . S
C976 C975 1.400 . S
C976 C979 1.386 . S
H977 C993 0.930 . S
H978 C994 0.931 . S
C979 H967 0.929 . S
C979 C973 1.390 . S
C979 C976 1.386 . S
C980 C975 1.490 . S
C980 C982 1.395 . S
C980 C983 1.403 . S
H981 C987 0.930 . S
C982 H968 0.930 . S
C982 C980 1.395 . S
C982 C985 1.403 . S
C983 C980 1.403 . S
C983 C984 1.524 . S
C983 C987 1.400 . S
C984 H969 0.960 . S
C984 H970 0.960 . S
C984 H971 0.960 . S
C984 C983 1.524 . S
C985 C982 1.403 . S
C985 C986 1.392 . S
C985 C989 1.495 . S
C986 C985 1.392 . S
C986 C987 1.385 . S
C986 C988 1.478 . S
C987 H981 0.930 . S
C987 C983 1.400 . S
C987 C986 1.385 . S
C988 C986 1.478 . S
C988 C990 1.381 . S
C988 C994 1.383 . S
C989 C985 1.495 . S
C989 H995 0.959 . S
C989 H996 0.961 . S
C989 H997 0.960 . S
C990 C988 1.381 . S
C990 C991 1.394 . S
C990 H998 0.930 . S
C991 C990 1.394 . S
C991 C992 1.383 . S
C991 H999 0.929 . S
C992 C991 1.383 . S
C992 C993 1.377 . S
C993 H977 0.930 . S
C993 C992 1.377 . S
C993 C994 1.379 . S
C994 H978 0.931 . S
C994 C988 1.383 . S
C994 C993 1.379 . S
H995 C989 0.959 . S
H996 C989 0.961 . S
H997 C989 0.960 . S
H998 C990 0.930 . S
H999 C991 0.929 . S
H1000 C1008 0.929 . S
H1001 C1010 0.930 . S
H1002 C1012 0.930 . S
H1003 C1015 0.929 . S
H1004 C1018 0.930 . S
H1005 C1020 0.960 . S
H1006 C1020 0.960 . S
H1007 C1020 0.960 . S
C1008 H1000 0.929 . S
C1008 C1009 1.377 . S
C1008 C1010 1.384 . S
C1009 C1008 1.377 . S
C1009 C1015 1.390 . S
C1010 H1001 0.930 . S
C1010 C1008 1.384 . S
C1010 C1011 1.372 . S
C1011 C1010 1.372 . S
C1011 C1012 1.400 . S
C1011 C1016 1.490 . S
C1012 H1002 0.930 . S
C1012 C1011 1.400 . S
C1012 C1015 1.386 . S
H1013 C1029 0.930 . S
H1014 C1030 0.931 . S
C1015 H1003 0.929 . S
C1015 C1009 1.390 . S
C1015 C1012 1.386 . S
C1016 C1011 1.490 . S
C1016 C1018 1.395 . S
C1016 C1019 1.403 . S
H1017 C1023 0.930 . S
C1018 H1004 0.930 . S
C1018 C1016 1.395 . S
C1018 C1021 1.403 . S
C1019 C1016 1.403 . S
C1019 C1020 1.524 . S
C1019 C1023 1.400 . S
C1020 H1005 0.960 . S
C1020 H1006 0.960 . S
C1020 H1007 0.960 . S
C1020 C1019 1.524 . S
C1021 C1018 1.403 . S
C1021 C1022 1.392 . S
C1021 C1025 1.495 . S
C1022 C1021 1.392 . S
C1022 C1023 1.385 . S
C1022 C1024 1.478 . S
C1023 H1017 0.930 . S
C1023 C1019 1.400 . S
C1023 C1022 1.385 . S
C1024 C1022 1.478 . S
C1024 C1026 1.381 . S
C1024 C1030 1.383 . S
C1025 C1021 1.495 . S
C1025 H1031 0.959 . S
C1025 H1032 0.961 . S
C1025 H1033 0.960 . S
C1026 C1024 1.381 . S
C1026 C1027 1.394 . S
C1026 H1034 0.930 . S
C1027 C1026 1.394 . S
C1027 C1028 1.383 . S
C1027 H1035 0.929 . S
C1028 C1027 1.383 . S
C1028 C1029 1.377 . S
C1029 H1013 0.930 . S
C1029 C1028 1.377 . S
C1029 C1030 1.379 . S
C1030 H1014 0.931 . S
C1030 C1024 1.383 . S
C1030 C1029 1.379 . S
H1031 C1025 0.959 . S
H1032 C1025 0.961 . S
H1033 C1025 0.960 . S
H1034 C1026 0.930 . S
H1035 C1027 0.929 . S
H1036 C1044 0.929 . S
H1037 C1046 0.930 . S
H1038 C1048 0.930 . S
H1039 C1051 0.929 . S
H1040 C1054 0.930 . S
H1041 C1056 0.960 . S
H1042 C1056 0.960 . S
H1043 C1056 0.960 . S
C1044 H1036 0.929 . S
C1044 C1045 1.377 . S
C1044 C1046 1.384 . S
C1045 C1044 1.377 . S
C1045 C1051 1.390 . S
C1046 H1037 0.930 . S
C1046 C1044 1.384 . S
C1046 C1047 1.372 . S
C1047 C1046 1.372 . S
C1047 C1048 1.400 . S
C1047 C1052 1.490 . S
C1048 H1038 0.930 . S
C1048 C1047 1.400 . S
C1048 C1051 1.386 . S
H1049 C1065 0.930 . S
H1050 C1066 0.931 . S
C1051 H1039 0.929 . S
C1051 C1045 1.390 . S
C1051 C1048 1.386 . S
C1052 C1047 1.490 . S
C1052 C1054 1.395 . S
C1052 C1055 1.403 . S
H1053 C1059 0.930 . S
C1054 H1040 0.930 . S
C1054 C1052 1.395 . S
C1054 C1057 1.403 . S
C1055 C1052 1.403 . S
C1055 C1056 1.524 . S
C1055 C1059 1.400 . S
C1056 H1041 0.960 . S
C1056 H1042 0.960 . S
C1056 H1043 0.960 . S
C1056 C1055 1.524 . S
C1057 C1054 1.403 . S
C1057 C1058 1.392 . S
C1057 C1061 1.495 . S
C1058 C1057 1.392 . S
C1058 C1059 1.385 . S
C1058 C1060 1.478 . S
C1059 H1053 0.930 . S
C1059 C1055 1.400 . S
C1059 C1058 1.385 . S
C1060 C1058 1.478 . S
C1060 C1062 1.381 . S
C1060 C1066 1.383 . S
C1061 C1057 1.495 . S
C1061 H1067 0.959 . S
C1061 H1068 0.961 . S
C1061 H1069 0.960 . S
C1062 C1060 1.381 . S
C1062 C1063 1.394 . S
C1062 H1070 0.930 . S
C1063 C1062 1.394 . S
C1063 C1064 1.383 . S
C1063 H1071 0.929 . S
C1064 C1063 1.383 . S
C1064 C1065 1.377 . S
C1065 H1049 0.930 . S
C1065 C1064 1.377 . S
C1065 C1066 1.379 . S
C1066 H1050 0.931 . S
C1066 C1060 1.383 . S
C1066 C1065 1.379 . S
H1067 C1061 0.959 . S
H1068 C1061 0.961 . S
H1069 C1061 0.960 . S
H1070 C1062 0.930 . S
H1071 C1063 0.929 . S
H1072 C1080 0.929 . S
H1073 C1082 0.930 . S
H1074 C1084 0.930 . S
H1075 C1087 0.929 . S
H1076 C1090 0.930 . S
H1077 C1092 0.960 . S
H1078 C1092 0.960 . S
H1079 C1092 0.960 . S
C1080 H1072 0.929 . S
C1080 C1081 1.377 . S
C1080 C1082 1.384 . S
C1081 C1080 1.377 . S
C1081 C1087 1.390 . S
C1082 H1073 0.930 . S
C1082 C1080 1.384 . S
C1082 C1083 1.372 . S
C1083 C1082 1.372 . S
C1083 C1084 1.400 . S
C1083 C1088 1.490 . S
C1084 H1074 0.930 . S
C1084 C1083 1.400 . S
C1084 C1087 1.386 . S
H1085 C1101 0.930 . S
H1086 C1102 0.931 . S
C1087 H1075 0.929 . S
C1087 C1081 1.390 . S
C1087 C1084 1.386 . S
C1088 C1083 1.490 . S
C1088 C1090 1.395 . S
C1088 C1091 1.403 . S
H1089 C1095 0.930 . S
C1090 H1076 0.930 . S
C1090 C1088 1.395 . S
C1090 C1093 1.403 . S
C1091 C1088 1.403 . S
C1091 C1092 1.524 . S
C1091 C1095 1.400 . S
C1092 H1077 0.960 . S
C1092 H1078 0.960 . S
C1092 H1079 0.960 . S
C1092 C1091 1.524 . S
C1093 C1090 1.403 . S
C1093 C1094 1.392 . S
C1093 C1097 1.495 . S
C1094 C1093 1.392 . S
C1094 C1095 1.385 . S
C1094 C1096 1.478 . S
C1095 H1089 0.930 . S
C1095 C1091 1.400 . S
C1095 C1094 1.385 . S
C1096 C1094 1.478 . S
C1096 C1098 1.381 . S
C1096 C1102 1.383 . S
C1097 C1093 1.495 . S
C1097 H1103 0.959 . S
C1097 H1104 0.961 . S
C1097 H1105 0.960 . S
C1098 C1096 1.381 . S
C1098 C1099 1.394 . S
C1098 H1106 0.930 . S
C1099 C1098 1.394 . S
C1099 C1100 1.383 . S
C1099 H1107 0.929 . S
C1100 C1099 1.383 . S
C1100 C1101 1.377 . S
C1101 H1085 0.930 . S
C1101 C1100 1.377 . S
C1101 C1102 1.379 . S
C1102 H1086 0.931 . S
C1102 C1096 1.383 . S
C1102 C1101 1.379 . S
H1103 C1097 0.959 . S
H1104 C1097 0.961 . S
H1105 C1097 0.960 . S
H1106 C1098 0.930 . S
H1107 C1099 0.929 . S
H1108 C1116 0.929 . S
H1109 C1118 0.930 . S
H1110 C1120 0.930 . S
H1111 C1123 0.929 . S
H1112 C1126 0.930 . S
H1113 C1128 0.960 . S
H1114 C1128 0.960 . S
H1115 C1128 0.960 . S
C1116 H1108 0.929 . S
C1116 C1117 1.377 . S
C1116 C1118 1.384 . S
C1117 C1116 1.377 . S
C1117 C1123 1.390 . S
C1118 H1109 0.930 . S
C1118 C1116 1.384 . S
C1118 C1119 1.372 . S
C1119 C1118 1.372 . S
C1119 C1120 1.400 . S
C1119 C1124 1.490 . S
C1120 H1110 0.930 . S
C1120 C1119 1.400 . S
C1120 C1123 1.386 . S
H1121 C1137 0.930 . S
H1122 C1138 0.931 . S
C1123 H1111 0.929 . S
C1123 C1117 1.390 . S
C1123 C1120 1.386 . S
C1124 C1119 1.490 . S
C1124 C1126 1.395 . S
C1124 C1127 1.403 . S
H1125 C1131 0.930 . S
C1126 H1112 0.930 . S
C1126 C1124 1.395 . S
C1126 C1129 1.403 . S
C1127 C1124 1.403 . S
C1127 C1128 1.524 . S
C1127 C1131 1.400 . S
C1128 H1113 0.960 . S
C1128 H1114 0.960 . S
C1128 H1115 0.960 . S
C1128 C1127 1.524 . S
C1129 C1126 1.403 . S
C1129 C1130 1.392 . S
C1129 C1133 1.495 . S
C1130 C1129 1.392 . S
C1130 C1131 1.385 . S
C1130 C1132 1.478 . S
C1131 H1125 0.930 . S
C1131 C1127 1.400 . S
C1131 C1130 1.385 . S
C1132 C1130 1.478 . S
C1132 C1134 1.381 . S
C1132 C1138 1.383 . S
C1133 C1129 1.495 . S
C1133 H1139 0.959 . S
C1133 H1140 0.961 . S
C1133 H1141 0.960 . S
C1134 C1132 1.381 . S
C1134 C1135 1.394 . S
C1134 H1142 0.930 . S
C1135 C1134 1.394 . S
C1135 C1136 1.383 . S
C1135 H1143 0.929 . S
C1136 C1135 1.383 . S
C1136 C1137 1.377 . S
C1137 H1121 0.930 . S
C1137 C1136 1.377 . S
C1137 C1138 1.379 . S
C1138 H1122 0.931 . S
C1138 C1132 1.383 . S
C1138 C1137 1.379 . S
H1139 C1133 0.959 . S
H1140 C1133 0.961 . S
H1141 C1133 0.960 . S
H1142 C1134 0.930 . S
H1143 C1135 0.929 . S
H1144 C1152 0.929 . S
H1145 C1154 0.930 . S
H1146 C1156 0.930 . S
H1147 C1159 0.929 . S
H1148 C1162 0.930 . S
H1149 C1164 0.960 . S
H1150 C1164 0.960 . S
H1151 C1164 0.960 . S
C1152 H1144 0.929 . S
C1152 C1153 1.377 . S
C1152 C1154 1.384 . S
C1153 C1152 1.377 . S
C1153 C1159 1.390 . S
C1154 H1145 0.930 . S
C1154 C1152 1.384 . S
C1154 C1155 1.372 . S
C1155 C1154 1.372 . S
C1155 C1156 1.400 . S
C1155 C1160 1.490 . S
C1156 H1146 0.930 . S
C1156 C1155 1.400 . S
C1156 C1159 1.386 . S
H1157 C1173 0.930 . S
H1158 C1174 0.931 . S
C1159 H1147 0.929 . S
C1159 C1153 1.390 . S
C1159 C1156 1.386 . S
C1160 C1155 1.490 . S
C1160 C1162 1.395 . S
C1160 C1163 1.403 . S
H1161 C1167 0.930 . S
C1162 H1148 0.930 . S
C1162 C1160 1.395 . S
C1162 C1165 1.403 . S
C1163 C1160 1.403 . S
C1163 C1164 1.524 . S
C1163 C1167 1.400 . S
C1164 H1149 0.960 . S
C1164 H1150 0.960 . S
C1164 H1151 0.960 . S
C1164 C1163 1.524 . S
C1165 C1162 1.403 . S
C1165 C1166 1.392 . S
C1165 C1169 1.495 . S
C1166 C1165 1.392 . S
C1166 C1167 1.385 . S
C1166 C1168 1.478 . S
C1167 H1161 0.930 . S
C1167 C1163 1.400 . S
C1167 C1166 1.385 . S
C1168 C1166 1.478 . S
C1168 C1170 1.381 . S
C1168 C1174 1.383 . S
C1169 C1165 1.495 . S
C1169 H1175 0.959 . S
C1169 H1176 0.961 . S
C1169 H1177 0.960 . S
C1170 C1168 1.381 . S
C1170 C1171 1.394 . S
C1170 H1178 0.930 . S
C1171 C1170 1.394 . S
C1171 C1172 1.383 . S
C1171 H1179 0.929 . S
C1172 C1171 1.383 . S
C1172 C1173 1.377 . S
C1173 H1157 0.930 . S
C1173 C1172 1.377 . S
C1173 C1174 1.379 . S
C1174 H1158 0.931 . S
C1174 C1168 1.383 . S
C1174 C1173 1.379 . S
H1175 C1169 0.959 . S
H1176 C1169 0.961 . S
H1177 C1169 0.960 . S
H1178 C1170 0.930 . S
H1179 C1171 0.929 . S
H1180 C1188 0.929 . S
H1181 C1190 0.930 . S
H1182 C1192 0.930 . S
H1183 C1195 0.929 . S
H1184 C1198 0.930 . S
H1185 C1200 0.960 . S
H1186 C1200 0.960 . S
H1187 C1200 0.960 . S
C1188 H1180 0.929 . S
C1188 C1189 1.377 . S
C1188 C1190 1.384 . S
C1189 C1188 1.377 . S
C1189 C1195 1.390 . S
C1190 H1181 0.930 . S
C1190 C1188 1.384 . S
C1190 C1191 1.372 . S
C1191 C1190 1.372 . S
C1191 C1192 1.400 . S
C1191 C1196 1.490 . S
C1192 H1182 0.930 . S
C1192 C1191 1.400 . S
C1192 C1195 1.386 . S
H1193 C1209 0.930 . S
H1194 C1210 0.931 . S
C1195 H1183 0.929 . S
C1195 C1189 1.390 . S
C1195 C1192 1.386 . S
C1196 C1191 1.490 . S
C1196 C1198 1.395 . S
C1196 C1199 1.403 . S
H1197 C1203 0.930 . S
C1198 H1184 0.930 . S
C1198 C1196 1.395 . S
C1198 C1201 1.403 . S
C1199 C1196 1.403 . S
C1199 C1200 1.524 . S
C1199 C1203 1.400 . S
C1200 H1185 0.960 . S
C1200 H1186 0.960 . S
C1200 H1187 0.960 . S
C1200 C1199 1.524 . S
C1201 C1198 1.403 . S
C1201 C1202 1.392 . S
C1201 C1205 1.495 . S
C1202 C1201 1.392 . S
C1202 C1203 1.385 . S
C1202 C1204 1.478 . S
C1203 H1197 0.930 . S
C1203 C1199 1.400 . S
C1203 C1202 1.385 . S
C1204 C1202 1.478 . S
C1204 C1206 1.381 . S
C1204 C1210 1.383 . S
C1205 C1201 1.495 . S
C1205 H1211 0.959 . S
C1205 H1212 0.961 . S
C1205 H1213 0.960 . S
C1206 C1204 1.381 . S
C1206 C1207 1.394 . S
C1206 H1214 0.930 . S
C1207 C1206 1.394 . S
C1207 C1208 1.383 . S
C1207 H1215 0.929 . S
C1208 C1207 1.383 . S
C1208 C1209 1.377 . S
C1209 H1193 0.930 . S
C1209 C1208 1.377 . S
C1209 C1210 1.379 . S
C1210 H1194 0.931 . S
C1210 C1204 1.383 . S
C1210 C1209 1.379 . S
H1211 C1205 0.959 . S
H1212 C1205 0.961 . S
H1213 C1205 0.960 . S
H1214 C1206 0.930 . S
H1215 C1207 0.929 . S
H1216 C1224 0.929 . S
H1217 C1226 0.930 . S
H1218 C1228 0.930 . S
H1219 C1231 0.929 . S
H1220 C1234 0.930 . S
H1221 C1236 0.960 . S
H1222 C1236 0.960 . S
H1223 C1236 0.960 . S
C1224 H1216 0.929 . S
C1224 C1225 1.377 . S
C1224 C1226 1.384 . S
C1225 C1224 1.377 . S
C1225 C1231 1.390 1_545 S
C1226 H1217 0.930 . S
C1226 C1224 1.384 . S
C1226 C1227 1.372 . S
C1227 C1226 1.372 . S
C1227 C1228 1.400 1_545 S
C1227 C1232 1.490 . S
C1228 H1218 0.930 . S
C1228 C1227 1.400 1_565 S
C1228 C1231 1.386 . S
H1229 C1245 0.930 . S
H1230 C1246 0.931 . S
C1231 H1219 0.929 . S
C1231 C1225 1.390 1_565 S
C1231 C1228 1.386 . S
C1232 C1227 1.490 . S
C1232 C1234 1.395 . S
C1232 C1235 1.403 1_545 S
H1233 C1239 0.930 . S
C1234 H1220 0.930 . S
C1234 C1232 1.395 . S
C1234 C1237 1.403 . S
C1235 C1232 1.403 1_565 S
C1235 C1236 1.524 . S
C1235 C1239 1.400 . S
C1236 H1221 0.960 . S
C1236 H1222 0.960 . S
C1236 H1223 0.960 . S
C1236 C1235 1.524 . S
C1237 C1234 1.403 . S
C1237 C1238 1.392 . S
C1237 C1241 1.495 . S
C1238 C1237 1.392 . S
C1238 C1239 1.385 1_545 S
C1238 C1240 1.478 . S
C1239 H1233 0.930 . S
C1239 C1235 1.400 . S
C1239 C1238 1.385 1_565 S
C1240 C1238 1.478 . S
C1240 C1242 1.381 . S
C1240 C1246 1.383 1_545 S
C1241 C1237 1.495 . S
C1241 H1247 0.959 . S
C1241 H1248 0.961 . S
C1241 H1249 0.960 . S
C1242 C1240 1.381 . S
C1242 C1243 1.394 . S
C1242 H1250 0.930 . S
C1243 C1242 1.394 . S
C1243 C1244 1.379 . S
C1243 H1251 0.929 . S
C1244 C1243 1.379 . S
C1244 C1245 1.380 1_545 S
C1245 H1229 0.930 . S
C1245 C1244 1.380 1_565 S
C1245 C1246 1.379 . S
C1246 H1230 0.931 . S
C1246 C1240 1.383 1_565 S
C1246 C1245 1.379 . S
H1247 C1241 0.959 . S
H1248 C1241 0.961 . S
H1249 C1241 0.960 . S
H1250 C1242 0.930 . S
H1251 C1243 0.929 . S
H1252 C1260 0.929 . S
H1253 C1262 0.930 1_655 S
H1254 C1264 0.930 . S
H1255 C1267 0.929 . S
H1256 C1270 0.930 . S
H1257 C1272 0.960 . S
H1258 C1272 0.960 . S
H1259 C1272 0.960 . S
C1260 H1252 0.929 . S
C1260 C1261 1.377 . S
C1260 C1262 1.384 . S
C1261 C1260 1.377 . S
C1261 C1267 1.390 . S
C1262 H1253 0.930 1_455 S
C1262 C1260 1.384 . S
C1262 C1263 1.372 . S
C1263 C1262 1.372 . S
C1263 C1264 1.400 . S
C1263 C1268 1.490 . S
C1264 H1254 0.930 . S
C1264 C1263 1.400 . S
C1264 C1267 1.386 . S
H1265 C1281 0.930 . S
H1266 C1282 0.931 1_455 S
C1267 H1255 0.929 . S
C1267 C1261 1.390 . S
C1267 C1264 1.386 . S
C1268 C1263 1.490 . S
C1268 C1270 1.395 1_455 S
C1268 C1271 1.403 . S
H1269 C1275 0.930 . S
C1270 H1256 0.930 . S
C1270 C1268 1.395 1_655 S
C1270 C1273 1.403 . S
C1271 C1268 1.403 . S
C1271 C1272 1.524 . S
C1271 C1275 1.400 1_455 S
C1272 H1257 0.960 . S
C1272 H1258 0.960 . S
C1272 H1259 0.960 . S
C1272 C1271 1.524 . S
C1273 C1270 1.403 . S
C1273 C1274 1.392 . S
C1273 C1277 1.495 . S
C1274 C1273 1.392 . S
C1274 C1275 1.385 . S
C1274 C1276 1.478 . S
C1275 H1269 0.930 . S
C1275 C1271 1.400 1_655 S
C1275 C1274 1.385 . S
C1276 C1274 1.478 . S
C1276 C1278 1.381 . S
C1276 C1282 1.383 . S
C1277 C1273 1.495 . S
C1277 H1283 0.959 . S
C1277 H1284 0.961 . S
C1277 H1285 0.960 . S
C1278 C1276 1.381 . S
C1278 C1279 1.394 . S
C1278 H1286 0.930 . S
C1279 C1278 1.394 . S
C1279 C1280 1.383 . S
C1279 H1287 0.929 . S
C1280 C1279 1.383 . S
C1280 C1281 1.377 . S
C1281 H1265 0.930 . S
C1281 C1280 1.377 . S
C1281 C1282 1.379 . S
C1282 H1266 0.931 1_655 S
C1282 C1276 1.383 . S
C1282 C1281 1.379 . S
H1283 C1277 0.959 . S
H1284 C1277 0.961 . S
H1285 C1277 0.960 . S
H1286 C1278 0.930 . S
H1287 C1279 0.929 . S
H1288 C1296 0.929 . S
H1289 C1298 0.930 . S
H1290 C1300 0.930 . S
H1291 C1303 0.929 . S
H1292 C1306 0.930 . S
H1293 C1308 0.960 1_554 S
H1294 C1308 0.960 . S
H1295 C1308 0.960 . S
C1296 H1288 0.929 . S
C1296 C1297 1.377 . S
C1296 C1298 1.384 . S
C1297 C1296 1.377 . S
C1297 C1303 1.390 . S
C1298 H1289 0.930 . S
C1298 C1296 1.384 . S
C1298 C1299 1.372 . S
C1299 C1298 1.372 . S
C1299 C1300 1.400 . S
C1299 C1304 1.490 . S
C1300 H1290 0.930 . S
C1300 C1299 1.400 . S
C1300 C1303 1.386 . S
H1301 C1317 0.930 . S
H1302 C1318 0.931 . S
C1303 H1291 0.929 . S
C1303 C1297 1.390 . S
C1303 C1300 1.386 . S
C1304 C1299 1.490 . S
C1304 C1306 1.395 . S
C1304 C1307 1.403 . S
H1305 C1311 0.930 . S
C1306 H1292 0.930 . S
C1306 C1304 1.395 . S
C1306 C1309 1.427 . S
C1307 C1304 1.403 . S
C1307 C1308 1.524 . S
C1307 C1311 1.400 1_556 S
C1308 H1293 0.960 1_556 S
C1308 H1294 0.960 . S
C1308 H1295 0.960 . S
C1308 C1307 1.524 . S
C1309 C1306 1.427 . S
C1309 C1310 1.370 1_556 S
C1309 C1313 1.495 . S
C1310 C1309 1.370 1_554 S
C1310 C1311 1.385 . S
C1310 C1312 1.478 . S
C1311 H1305 0.930 . S
C1311 C1307 1.400 1_554 S
C1311 C1310 1.385 . S
C1312 C1310 1.478 . S
C1312 C1314 1.381 . S
C1312 C1318 1.383 . S
C1313 C1309 1.495 . S
C1313 H1319 0.992 . S
C1313 H1320 0.938 1_556 S
C1313 H1321 0.952 1_556 S
C1314 C1312 1.381 . S
C1314 C1315 1.394 . S
C1314 H1322 0.930 . S
C1315 C1314 1.394 . S
C1315 C1316 1.383 . S
C1315 H1323 0.929 . S
C1316 C1315 1.383 . S
C1316 C1317 1.377 . S
C1317 H1301 0.930 . S
C1317 C1316 1.377 . S
C1317 C1318 1.379 . S
C1318 H1302 0.931 . S
C1318 C1312 1.383 . S
C1318 C1317 1.379 . S
H1319 C1313 0.992 . S
H1320 C1313 0.938 1_554 S
H1321 C1313 0.952 1_554 S
H1322 C1314 0.930 . S
H1323 C1315 0.929 . S
H1324 C1332 0.929 . S
H1325 C1334 0.930 . S
H1326 C1336 0.930 . S
H1327 C1339 0.929 . S
H1328 C1342 0.930 . S
H1329 C1344 0.960 . S
H1330 C1344 0.960 1_554 S
H1331 C1344 0.960 1_564 S
C1332 H1324 0.929 . S
C1332 C1333 1.377 . S
C1332 C1334 1.384 . S
C1333 C1332 1.377 . S
C1333 C1339 1.390 1_545 S
C1334 H1325 0.930 . S
C1334 C1332 1.384 . S
C1334 C1335 1.372 . S
C1335 C1334 1.372 . S
C1335 C1336 1.400 1_545 S
C1335 C1340 1.490 . S
C1336 H1326 0.930 . S
C1336 C1335 1.400 1_565 S
C1336 C1339 1.386 . S
H1337 C1353 0.930 . S
H1338 C1354 0.931 . S
C1339 H1327 0.929 . S
C1339 C1333 1.390 1_565 S
C1339 C1336 1.386 . S
C1340 C1335 1.490 . S
C1340 C1342 1.396 1_655 S
C1340 C1343 1.399 1_554 S
H1341 C1347 0.930 . S
C1342 H1328 0.930 . S
C1342 C1340 1.396 1_455 S
C1342 C1345 1.403 1_545 S
C1343 C1340 1.399 1_556 S
C1343 C1344 1.524 . S
C1343 C1347 1.404 . S
C1344 H1329 0.960 . S
C1344 H1330 0.960 1_556 S
C1344 H1331 0.960 1_546 S
C1344 C1343 1.524 . S
C1345 C1342 1.403 1_565 S
C1345 C1346 1.392 1_564 S
C1345 C1349 1.495 . S
C1346 C1345 1.392 1_546 S
C1346 C1347 1.386 1_455 S
C1346 C1348 1.476 1_545 S
C1347 H1341 0.930 . S
C1347 C1343 1.404 . S
C1347 C1346 1.386 1_655 S
C1348 C1346 1.476 1_565 S
C1348 C1350 1.355 1_565 S
C1348 C1354 1.410 . S
C1349 C1345 1.495 . S
C1349 H1355 0.959 . S
C1349 H1356 0.961 1_554 S
C1349 H1357 0.960 1_564 S
C1350 C1348 1.355 1_545 S
C1350 C1351 1.394 . S
C1350 H1358 0.930 . S
C1351 C1350 1.394 . S
C1351 C1352 1.383 1_545 S
C1351 H1359 0.929 . S
C1352 C1351 1.383 1_565 S
C1352 C1353 1.377 . S
C1353 H1337 0.930 . S
C1353 C1352 1.377 . S
C1353 C1354 1.379 . S
C1354 H1338 0.931 . S
C1354 C1348 1.410 . S
C1354 C1353 1.379 . S
H1355 C1349 0.959 . S
H1356 C1349 0.961 1_556 S
H1357 C1349 0.960 1_546 S
H1358 C1350 0.930 . S
H1359 C1351 0.929 . S
H1360 C1368 0.929 . S
H1361 C1370 0.930 . S
H1362 C1372 0.930 . S
H1363 C1375 0.929 . S
H1364 C1378 0.930 . S
H1365 C1380 0.960 . S
H1366 C1380 0.960 . S
H1367 C1380 0.943 1_565 S
C1368 H1360 0.929 . S
C1368 C1369 1.337 1_545 S
C1368 C1370 1.384 . S
C1369 C1368 1.337 1_565 S
C1369 C1375 1.430 . S
C1370 H1361 0.930 . S
C1370 C1368 1.384 . S
C1370 C1371 1.375 . S
C1371 C1370 1.375 . S
C1371 C1372 1.396 1_545 S
C1371 C1376 1.490 . S
C1372 H1362 0.930 . S
C1372 C1371 1.396 1_565 S
C1372 C1375 1.386 . S
H1373 C1389 0.930 . S
H1374 C1390 0.931 . S
C1375 H1363 0.929 . S
C1375 C1369 1.430 . S
C1375 C1372 1.386 . S
C1376 C1371 1.490 . S
C1376 C1378 1.391 1_545 S
C1376 C1379 1.406 . S
H1377 C1383 0.930 . S
C1378 H1364 0.930 . S
C1378 C1376 1.391 1_565 S
C1378 C1381 1.403 . S
C1379 C1376 1.406 . S
C1379 C1380 1.524 . S
C1379 C1383 1.400 . S
C1380 H1365 0.960 . S
C1380 H1366 0.960 . S
C1380 H1367 0.943 1_545 S
C1380 C1379 1.524 . S
C1381 C1378 1.403 . S
C1381 C1382 1.392 . S
C1381 C1385 1.495 . S
C1382 C1381 1.392 . S
C1382 C1383 1.385 1_565 S
C1382 C1384 1.477 . S
C1383 H1377 0.930 . S
C1383 C1379 1.400 . S
C1383 C1382 1.385 1_545 S
C1384 C1382 1.477 . S
C1384 C1386 1.370 1_565 S
C1384 C1390 1.393 . S
C1385 C1381 1.495 . S
C1385 H1391 0.959 . S
C1385 H1392 0.961 . S
C1385 H1393 0.960 1_565 S
C1386 C1384 1.370 1_545 S
C1386 C1387 1.394 . S
C1386 H1394 0.930 . S
C1387 C1386 1.394 . S
C1387 C1388 1.410 . S
C1387 H1395 0.929 . S
C1388 C1387 1.410 . S
C1388 C1389 1.350 1_545 S
C1389 H1373 0.930 . S
C1389 C1388 1.350 1_565 S
C1389 C1390 1.379 . S
C1390 H1374 0.931 . S
C1390 C1384 1.393 . S
C1390 C1389 1.379 . S
H1391 C1385 0.959 . S
H1392 C1385 0.961 . S
H1393 C1385 0.960 1_545 S
H1394 C1386 0.930 . S
H1395 C1387 0.929 . S
H1396 C1404 0.929 . S
H1397 C1406 0.930 . S
H1398 C1408 0.930 . S
H1399 C1411 0.929 . S
H1400 C1414 0.930 . S
H1401 C1416 0.960 . S
H1402 C1416 0.960 . S
H1403 C1416 0.960 . S
C1404 H1396 0.929 . S
C1404 C1405 1.377 . S
C1404 C1406 1.384 . S
C1405 C1404 1.377 . S
C1405 C1411 1.390 . S
C1406 H1397 0.930 . S
C1406 C1404 1.384 . S
C1406 C1407 1.372 . S
C1407 C1406 1.372 . S
C1407 C1408 1.400 . S
C1407 C1412 1.490 . S
C1408 H1398 0.930 . S
C1408 C1407 1.400 . S
C1408 C1411 1.386 . S
H1409 C1425 0.930 . S
H1410 C1426 0.931 . S
C1411 H1399 0.929 . S
C1411 C1405 1.390 . S
C1411 C1408 1.386 . S
C1412 C1407 1.490 . S
C1412 C1414 1.395 1_455 S
C1412 C1415 1.403 . S
H1413 C1419 0.930 . S
C1414 H1400 0.930 . S
C1414 C1412 1.395 1_655 S
C1414 C1417 1.403 . S
C1415 C1412 1.403 . S
C1415 C1416 1.524 . S
C1415 C1419 1.400 . S
C1416 H1401 0.960 . S
C1416 H1402 0.960 . S
C1416 H1403 0.960 . S
C1416 C1415 1.524 . S
C1417 C1414 1.403 . S
C1417 C1418 1.392 . S
C1417 C1421 1.495 . S
C1418 C1417 1.392 . S
C1418 C1419 1.385 1_655 S
C1418 C1420 1.478 . S
C1419 H1413 0.930 . S
C1419 C1415 1.400 . S
C1419 C1418 1.385 1_455 S
C1420 C1418 1.478 . S
C1420 C1422 1.381 . S
C1420 C1426 1.383 . S
C1421 C1417 1.495 . S
C1421 H1427 0.959 . S
C1421 H1428 0.961 . S
C1421 H1429 0.960 . S
C1422 C1420 1.381 . S
C1422 C1423 1.394 . S
C1422 H1430 0.930 . S
C1423 C1422 1.394 . S
C1423 C1424 1.383 . S
C1423 H1431 0.929 . S
C1424 C1423 1.383 . S
C1424 C1425 1.377 . S
C1425 H1409 0.930 . S
C1425 C1424 1.377 . S
C1425 C1426 1.379 . S
C1426 H1410 0.931 . S
C1426 C1420 1.383 . S
C1426 C1425 1.379 . S
H1427 C1421 0.959 . S
H1428 C1421 0.961 . S
H1429 C1421 0.960 . S
H1430 C1422 0.930 . S
H1431 C1423 0.929 . S
H1432 C1440 0.929 . S
H1433 C1442 0.930 . S
H1434 C1444 0.930 . S
H1435 C1447 0.929 . S
H1436 C1450 0.930 . S
H1437 C1452 0.960 . S
H1438 C1452 0.960 . S
H1439 C1452 0.960 . S
C1440 H1432 0.929 . S
C1440 C1441 1.377 . S
C1440 C1442 1.384 . S
C1441 C1440 1.377 . S
C1441 C1447 1.390 . S
C1442 H1433 0.930 . S
C1442 C1440 1.384 . S
C1442 C1443 1.372 . S
C1443 C1442 1.372 . S
C1443 C1444 1.400 . S
C1443 C1448 1.490 . S
C1444 H1434 0.930 . S
C1444 C1443 1.400 . S
C1444 C1447 1.386 . S
H1445 C1461 0.930 . S
H1446 C1462 0.931 . S
C1447 H1435 0.929 . S
C1447 C1441 1.390 . S
C1447 C1444 1.386 . S
C1448 C1443 1.490 . S
C1448 C1450 1.395 . S
C1448 C1451 1.403 . S
H1449 C1455 0.930 . S
C1450 H1436 0.930 . S
C1450 C1448 1.395 . S
C1450 C1453 1.403 1_556 S
C1451 C1448 1.403 . S
C1451 C1452 1.524 . S
C1451 C1455 1.400 1_556 S
C1452 H1437 0.960 . S
C1452 H1438 0.960 . S
C1452 H1439 0.960 . S
C1452 C1451 1.524 . S
C1453 C1450 1.403 1_554 S
C1453 C1454 1.392 . S
C1453 C1457 1.495 . S
C1454 C1453 1.392 . S
C1454 C1455 1.385 . S
C1454 C1456 1.478 . S
C1455 H1449 0.930 . S
C1455 C1451 1.400 1_554 S
C1455 C1454 1.385 . S
C1456 C1454 1.478 . S
C1456 C1458 1.381 . S
C1456 C1462 1.383 . S
C1457 C1453 1.495 . S
C1457 H1463 0.959 . S
C1457 H1464 0.961 . S
C1457 H1465 0.960 . S
C1458 C1456 1.381 . S
C1458 C1459 1.394 . S
C1458 H1466 0.930 . S
C1459 C1458 1.394 . S
C1459 C1460 1.383 . S
C1459 H1467 0.929 . S
C1460 C1459 1.383 . S
C1460 C1461 1.377 . S
C1461 H1445 0.930 . S
C1461 C1460 1.377 . S
C1461 C1462 1.379 . S
C1462 H1446 0.931 . S
C1462 C1456 1.383 . S
C1462 C1461 1.379 . S
H1463 C1457 0.959 . S
H1464 C1457 0.961 . S
H1465 C1457 0.960 . S
H1466 C1458 0.930 . S
H1467 C1459 0.929 . S
H1468 C1476 0.929 . S
H1469 C1478 0.930 . S
H1470 C1480 0.930 . S
H1471 C1483 0.929 . S
H1472 C1486 0.930 . S
H1473 C1488 0.960 . S
H1474 C1488 0.960 . S
H1475 C1488 0.960 . S
C1476 H1468 0.929 . S
C1476 C1477 1.377 . S
C1476 C1478 1.384 . S
C1477 C1476 1.377 . S
C1477 C1483 1.390 . S
C1478 H1469 0.930 . S
C1478 C1476 1.384 . S
C1478 C1479 1.372 . S
C1479 C1478 1.372 . S
C1479 C1480 1.400 . S
C1479 C1484 1.490 . S
C1480 H1470 0.930 . S
C1480 C1479 1.400 . S
C1480 C1483 1.386 . S
H1481 C1497 0.930 . S
H1482 C1498 0.931 . S
C1483 H1471 0.929 . S
C1483 C1477 1.390 . S
C1483 C1480 1.386 . S
C1484 C1479 1.490 . S
C1484 C1486 1.395 . S
C1484 C1487 1.403 . S
H1485 C1491 0.930 . S
C1486 H1472 0.930 . S
C1486 C1484 1.395 . S
C1486 C1489 1.403 . S
C1487 C1484 1.403 . S
C1487 C1488 1.524 . S
C1487 C1491 1.400 . S
C1488 H1473 0.960 . S
C1488 H1474 0.960 . S
C1488 H1475 0.960 . S
C1488 C1487 1.524 . S
C1489 C1486 1.403 . S
C1489 C1490 1.392 . S
C1489 C1493 1.495 . S
C1490 C1489 1.392 . S
C1490 C1491 1.385 . S
C1490 C1492 1.478 . S
C1491 H1485 0.930 . S
C1491 C1487 1.400 . S
C1491 C1490 1.385 . S
C1492 C1490 1.478 . S
C1492 C1494 1.381 . S
C1492 C1498 1.383 . S
C1493 C1489 1.495 . S
C1493 H1499 0.959 . S
C1493 H1500 0.961 . S
C1493 H1501 0.960 . S
C1494 C1492 1.381 . S
C1494 C1495 1.394 . S
C1494 H1502 0.930 . S
C1495 C1494 1.394 . S
C1495 C1496 1.383 . S
C1495 H1503 0.929 . S
C1496 C1495 1.383 . S
C1496 C1497 1.377 . S
C1497 H1481 0.930 . S
C1497 C1496 1.377 . S
C1497 C1498 1.379 . S
C1498 H1482 0.931 . S
C1498 C1492 1.383 . S
C1498 C1497 1.379 . S
H1499 C1493 0.959 . S
H1500 C1493 0.961 . S
H1501 C1493 0.960 . S
H1502 C1494 0.930 . S
H1503 C1495 0.929 . S
H1504 C1512 0.929 . S
H1505 C1514 0.930 . S
H1506 C1516 0.930 . S
H1507 C1519 0.929 . S
H1508 C1522 0.930 . S
H1509 C1524 0.960 . S
H1510 C1524 0.960 . S
H1511 C1524 0.960 . S
C1512 H1504 0.929 . S
C1512 C1513 1.377 . S
C1512 C1514 1.384 . S
C1513 C1512 1.377 . S
C1513 C1519 1.390 . S
C1514 H1505 0.930 . S
C1514 C1512 1.384 . S
C1514 C1515 1.372 . S
C1515 C1514 1.372 . S
C1515 C1516 1.400 . S
C1515 C1520 1.490 . S
C1516 H1506 0.930 . S
C1516 C1515 1.400 . S
C1516 C1519 1.386 . S
H1517 C1533 0.930 . S
H1518 C1534 0.931 . S
C1519 H1507 0.929 . S
C1519 C1513 1.390 . S
C1519 C1516 1.386 . S
C1520 C1515 1.490 . S
C1520 C1522 1.395 . S
C1520 C1523 1.403 . S
H1521 C1527 0.930 . S
C1522 H1508 0.930 . S
C1522 C1520 1.395 . S
C1522 C1525 1.403 . S
C1523 C1520 1.403 . S
C1523 C1524 1.524 . S
C1523 C1527 1.400 . S
C1524 H1509 0.960 . S
C1524 H1510 0.960 . S
C1524 H1511 0.960 . S
C1524 C1523 1.524 . S
C1525 C1522 1.403 . S
C1525 C1526 1.392 . S
C1525 C1529 1.495 . S
C1526 C1525 1.392 . S
C1526 C1527 1.385 . S
C1526 C1528 1.478 . S
C1527 H1521 0.930 . S
C1527 C1523 1.400 . S
C1527 C1526 1.385 . S
C1528 C1526 1.478 . S
C1528 C1530 1.381 . S
C1528 C1534 1.383 . S
C1529 C1525 1.495 . S
C1529 H1535 0.959 . S
C1529 H1536 0.961 . S
C1529 H1537 0.960 . S
C1530 C1528 1.381 . S
C1530 C1531 1.394 . S
C1530 H1538 0.930 . S
C1531 C1530 1.394 . S
C1531 C1532 1.383 . S
C1531 H1539 0.929 . S
C1532 C1531 1.383 . S
C1532 C1533 1.377 . S
C1533 H1517 0.930 . S
C1533 C1532 1.377 . S
C1533 C1534 1.379 . S
C1534 H1518 0.931 . S
C1534 C1528 1.383 . S
C1534 C1533 1.379 . S
H1535 C1529 0.959 . S
H1536 C1529 0.961 . S
H1537 C1529 0.960 . S
H1538 C1530 0.930 . S
H1539 C1531 0.929 . S
H1540 C1548 0.929 . S
H1541 C1550 0.930 1_655 S
H1542 C1552 0.930 . S
H1543 C1555 0.929 . S
H1544 C1558 0.930 . S
H1545 C1560 0.960 . S
H1546 C1560 0.960 . S
H1547 C1560 0.960 . S
C1548 H1540 0.929 . S
C1548 C1549 1.377 . S
C1548 C1550 1.384 . S
C1549 C1548 1.377 . S
C1549 C1555 1.390 . S
C1550 H1541 0.930 1_455 S
C1550 C1548 1.384 . S
C1550 C1551 1.372 . S
C1551 C1550 1.372 . S
C1551 C1552 1.400 . S
C1551 C1556 1.490 . S
C1552 H1542 0.930 . S
C1552 C1551 1.400 . S
C1552 C1555 1.386 . S
H1553 C1569 0.930 . S
H1554 C1570 0.931 . S
C1555 H1543 0.929 . S
C1555 C1549 1.390 . S
C1555 C1552 1.386 . S
C1556 C1551 1.490 . S
C1556 C1558 1.395 1_455 S
C1556 C1559 1.403 . S
H1557 C1563 0.930 . S
C1558 H1544 0.930 . S
C1558 C1556 1.395 1_655 S
C1558 C1561 1.403 . S
C1559 C1556 1.403 . S
C1559 C1560 1.524 . S
C1559 C1563 1.400 . S
C1560 H1545 0.960 . S
C1560 H1546 0.960 . S
C1560 H1547 0.960 . S
C1560 C1559 1.524 . S
C1561 C1558 1.403 . S
C1561 C1562 1.392 . S
C1561 C1565 1.495 . S
C1562 C1561 1.392 . S
C1562 C1563 1.385 1_655 S
C1562 C1564 1.478 . S
C1563 H1557 0.930 . S
C1563 C1559 1.400 . S
C1563 C1562 1.385 1_455 S
C1564 C1562 1.478 . S
C1564 C1566 1.381 . S
C1564 C1570 1.383 . S
C1565 C1561 1.495 . S
C1565 H1571 0.959 . S
C1565 H1572 0.961 . S
C1565 H1573 0.960 . S
C1566 C1564 1.381 . S
C1566 C1567 1.394 . S
C1566 H1574 0.930 . S
C1567 C1566 1.394 . S
C1567 C1568 1.383 . S
C1567 H1575 0.929 . S
C1568 C1567 1.383 . S
C1568 C1569 1.377 . S
C1569 H1553 0.930 . S
C1569 C1568 1.377 . S
C1569 C1570 1.379 . S
C1570 H1554 0.931 . S
C1570 C1564 1.383 . S
C1570 C1569 1.379 . S
H1571 C1565 0.959 . S
H1572 C1565 0.961 . S
H1573 C1565 0.960 . S
H1574 C1566 0.930 . S
H1575 C1567 0.929 . S
H1576 C1584 0.929 . S
H1577 C1586 0.930 . S
H1578 C1588 0.930 . S
H1579 C1591 0.929 . S
H1580 C1594 0.930 . S
H1581 C1596 0.960 . S
H1582 C1596 0.960 . S
H1583 C1596 0.960 . S
C1584 H1576 0.929 . S
C1584 C1585 1.377 . S
C1584 C1586 1.384 . S
C1585 C1584 1.377 . S
C1585 C1591 1.390 . S
C1586 H1577 0.930 . S
C1586 C1584 1.384 . S
C1586 C1587 1.372 . S
C1587 C1586 1.372 . S
C1587 C1588 1.400 . S
C1587 C1592 1.490 . S
C1588 H1578 0.930 . S
C1588 C1587 1.400 . S
C1588 C1591 1.386 . S
H1589 C1605 0.930 . S
H1590 C1606 0.931 . S
C1591 H1579 0.929 . S
C1591 C1585 1.390 . S
C1591 C1588 1.386 . S
C1592 C1587 1.490 . S
C1592 C1594 1.395 . S
C1592 C1595 1.403 . S
H1593 C1599 0.930 . S
C1594 H1580 0.930 . S
C1594 C1592 1.395 . S
C1594 C1597 1.403 . S
C1595 C1592 1.403 . S
C1595 C1596 1.524 . S
C1595 C1599 1.400 . S
C1596 H1581 0.960 . S
C1596 H1582 0.960 . S
C1596 H1583 0.960 . S
C1596 C1595 1.524 . S
C1597 C1594 1.403 . S
C1597 C1598 1.392 . S
C1597 C1601 1.495 . S
C1598 C1597 1.392 . S
C1598 C1599 1.385 . S
C1598 C1600 1.478 . S
C1599 H1593 0.930 . S
C1599 C1595 1.400 . S
C1599 C1598 1.385 . S
C1600 C1598 1.478 . S
C1600 C1602 1.381 . S
C1600 C1606 1.383 . S
C1601 C1597 1.495 . S
C1601 H1607 0.959 . S
C1601 H1608 0.961 . S
C1601 H1609 0.960 . S
C1602 C1600 1.381 . S
C1602 C1603 1.394 . S
C1602 H1610 0.930 . S
C1603 C1602 1.394 . S
C1603 C1604 1.383 . S
C1603 H1611 0.929 . S
C1604 C1603 1.383 . S
C1604 C1605 1.377 . S
C1605 H1589 0.930 . S
C1605 C1604 1.377 . S
C1605 C1606 1.379 . S
C1606 H1590 0.931 . S
C1606 C1600 1.383 . S
C1606 C1605 1.379 . S
H1607 C1601 0.959 . S
H1608 C1601 0.961 . S
H1609 C1601 0.960 . S
H1610 C1602 0.930 . S
H1611 C1603 0.929 . S
H1612 C1620 0.929 . S
H1613 C1622 0.930 . S
H1614 C1624 0.930 . S
H1615 C1627 0.929 . S
H1616 C1630 0.930 . S
H1617 C1632 0.960 . S
H1618 C1632 0.960 . S
H1619 C1632 0.960 . S
C1620 H1612 0.929 . S
C1620 C1621 1.377 . S
C1620 C1622 1.384 . S
C1621 C1620 1.377 . S
C1621 C1627 1.390 . S
C1622 H1613 0.930 . S
C1622 C1620 1.384 . S
C1622 C1623 1.372 . S
C1623 C1622 1.372 . S
C1623 C1624 1.400 . S
C1623 C1628 1.490 . S
C1624 H1614 0.930 . S
C1624 C1623 1.400 . S
C1624 C1627 1.386 . S
H1625 C1641 0.930 . S
H1626 C1642 0.931 . S
C1627 H1615 0.929 . S
C1627 C1621 1.390 . S
C1627 C1624 1.386 . S
C1628 C1623 1.490 . S
C1628 C1630 1.395 . S
C1628 C1631 1.403 . S
H1629 C1635 0.930 . S
C1630 H1616 0.930 . S
C1630 C1628 1.395 . S
C1630 C1633 1.403 . S
C1631 C1628 1.403 . S
C1631 C1632 1.524 . S
C1631 C1635 1.400 . S
C1632 H1617 0.960 . S
C1632 H1618 0.960 . S
C1632 H1619 0.960 . S
C1632 C1631 1.524 . S
C1633 C1630 1.403 . S
C1633 C1634 1.392 . S
C1633 C1637 1.495 . S
C1634 C1633 1.392 . S
C1634 C1635 1.385 . S
C1634 C1636 1.478 . S
C1635 H1629 0.930 . S
C1635 C1631 1.400 . S
C1635 C1634 1.385 . S
C1636 C1634 1.478 . S
C1636 C1638 1.381 . S
C1636 C1642 1.383 . S
C1637 C1633 1.495 . S
C1637 H1643 0.959 . S
C1637 H1644 0.961 . S
C1637 H1645 0.960 . S
C1638 C1636 1.381 . S
C1638 C1639 1.394 . S
C1638 H1646 0.930 . S
C1639 C1638 1.394 . S
C1639 C1640 1.383 . S
C1639 H1647 0.929 . S
C1640 C1639 1.383 . S
C1640 C1641 1.377 . S
C1641 H1625 0.930 . S
C1641 C1640 1.377 . S
C1641 C1642 1.379 . S
C1642 H1626 0.931 . S
C1642 C1636 1.383 . S
C1642 C1641 1.379 . S
H1643 C1637 0.959 . S
H1644 C1637 0.961 . S
H1645 C1637 0.960 . S
H1646 C1638 0.930 . S
H1647 C1639 0.929 . S
H1648 C1656 0.929 . S
H1649 C1658 0.930 . S
H1650 C1660 0.930 . S
H1651 C1663 0.929 . S
H1652 C1666 0.930 . S
H1653 C1668 0.960 . S
H1654 C1668 0.960 . S
H1655 C1668 0.960 . S
C1656 H1648 0.929 . S
C1656 C1657 1.377 . S
C1656 C1658 1.384 . S
C1657 C1656 1.377 . S
C1657 C1663 1.390 . S
C1658 H1649 0.930 . S
C1658 C1656 1.384 . S
C1658 C1659 1.372 . S
C1659 C1658 1.372 . S
C1659 C1660 1.400 . S
C1659 C1664 1.490 . S
C1660 H1650 0.930 . S
C1660 C1659 1.400 . S
C1660 C1663 1.386 . S
H1661 C1677 0.930 . S
H1662 C1678 0.931 . S
C1663 H1651 0.929 . S
C1663 C1657 1.390 . S
C1663 C1660 1.386 . S
C1664 C1659 1.490 . S
C1664 C1666 1.395 . S
C1664 C1667 1.403 . S
H1665 C1671 0.930 . S
C1666 H1652 0.930 . S
C1666 C1664 1.395 . S
C1666 C1669 1.403 . S
C1667 C1664 1.403 . S
C1667 C1668 1.524 . S
C1667 C1671 1.400 . S
C1668 H1653 0.960 . S
C1668 H1654 0.960 . S
C1668 H1655 0.960 . S
C1668 C1667 1.524 . S
C1669 C1666 1.403 . S
C1669 C1670 1.392 . S
C1669 C1673 1.495 . S
C1670 C1669 1.392 . S
C1670 C1671 1.385 . S
C1670 C1672 1.478 . S
C1671 H1665 0.930 . S
C1671 C1667 1.400 . S
C1671 C1670 1.385 . S
C1672 C1670 1.478 . S
C1672 C1674 1.381 . S
C1672 C1678 1.383 . S
C1673 C1669 1.495 . S
C1673 H1679 0.959 . S
C1673 H1680 0.961 . S
C1673 H1681 0.960 . S
C1674 C1672 1.381 . S
C1674 C1675 1.394 . S
C1674 H1682 0.930 . S
C1675 C1674 1.394 . S
C1675 C1676 1.383 . S
C1675 H1683 0.929 . S
C1676 C1675 1.383 . S
C1676 C1677 1.377 . S
C1677 H1661 0.930 . S
C1677 C1676 1.377 . S
C1677 C1678 1.379 . S
C1678 H1662 0.931 . S
C1678 C1672 1.383 . S
C1678 C1677 1.379 . S
H1679 C1673 0.959 . S
H1680 C1673 0.961 . S
H1681 C1673 0.960 . S
H1682 C1674 0.930 . S
H1683 C1675 0.929 . S
H1684 C1692 0.929 . S
H1685 C1694 0.930 . S
H1686 C1696 0.930 . S
H1687 C1699 0.929 . S
H1688 C1702 0.930 . S
H1689 C1704 0.960 . S
H1690 C1704 0.960 . S
H1691 C1704 0.960 . S
C1692 H1684 0.929 . S
C1692 C1693 1.365 1_565 S
C1692 C1694 1.384 . S
C1693 C1692 1.365 1_545 S
C1693 C1699 1.403 . S
C1694 H1685 0.930 . S
C1694 C1692 1.384 . S
C1694 C1695 1.370 1_565 S
C1695 C1694 1.370 1_545 S
C1695 C1696 1.402 . S
C1695 C1700 1.490 . S
C1696 H1686 0.930 . S
C1696 C1695 1.402 . S
C1696 C1699 1.386 . S
H1697 C1713 0.930 . S
H1698 C1714 0.931 . S
C1699 H1687 0.929 . S
C1699 C1693 1.403 . S
C1699 C1696 1.386 . S
C1700 C1695 1.490 . S
C1700 C1702 1.412 . S
C1700 C1703 1.386 1_545 S
H1701 C1707 0.930 . S
C1702 H1688 0.930 . S
C1702 C1700 1.412 . S
C1702 C1705 1.403 . S
C1703 C1700 1.386 1_565 S
C1703 C1704 1.524 . S
C1703 C1707 1.400 . S
C1704 H1689 0.960 . S
C1704 H1690 0.960 . S
C1704 H1691 0.960 . S
C1704 C1703 1.524 . S
C1705 C1702 1.403 . S
C1705 C1706 1.392 . S
C1705 C1709 1.495 . S
C1706 C1705 1.392 . S
C1706 C1707 1.385 1_545 S
C1706 C1708 1.478 . S
C1707 H1701 0.930 . S
C1707 C1703 1.400 . S
C1707 C1706 1.385 1_565 S
C1708 C1706 1.478 . S
C1708 C1710 1.381 1_545 S
C1708 C1714 1.383 . S
C1709 C1705 1.495 . S
C1709 H1715 0.959 . S
C1709 H1716 0.961 . S
C1709 H1717 0.960 . S
C1710 C1708 1.381 1_565 S
C1710 C1711 1.394 . S
C1710 H1718 0.930 . S
C1711 C1710 1.394 . S
C1711 C1712 1.385 1_565 S
C1711 H1719 0.929 . S
C1712 C1711 1.385 1_545 S
C1712 C1713 1.375 . S
C1713 H1697 0.930 . S
C1713 C1712 1.375 . S
C1713 C1714 1.379 . S
C1714 H1698 0.931 . S
C1714 C1708 1.383 . S
C1714 C1713 1.379 . S
H1715 C1709 0.959 . S
H1716 C1709 0.961 . S
H1717 C1709 0.960 . S
H1718 C1710 0.930 . S
H1719 C1711 0.929 . S
H1720 C1728 0.929 . S
H1721 C1730 0.930 . S
H1722 C1732 0.930 . S
H1723 C1735 0.929 . S
H1724 C1738 0.930 . S
H1725 C1740 0.960 . S
H1726 C1740 0.960 . S
H1727 C1740 0.960 . S
C1728 H1720 0.929 . S
C1728 C1729 1.377 . S
C1728 C1730 1.384 . S
C1729 C1728 1.377 . S
C1729 C1735 1.390 . S
C1730 H1721 0.930 . S
C1730 C1728 1.384 . S
C1730 C1731 1.372 . S
C1731 C1730 1.372 . S
C1731 C1732 1.400 . S
C1731 C1736 1.490 . S
C1732 H1722 0.930 . S
C1732 C1731 1.400 . S
C1732 C1735 1.386 . S
H1733 C1749 0.930 . S
H1734 C1750 0.931 . S
C1735 H1723 0.929 . S
C1735 C1729 1.390 . S
C1735 C1732 1.386 . S
C1736 C1731 1.490 . S
C1736 C1738 1.395 . S
C1736 C1739 1.403 . S
H1737 C1743 0.930 . S
C1738 H1724 0.930 . S
C1738 C1736 1.395 . S
C1738 C1741 1.403 . S
C1739 C1736 1.403 . S
C1739 C1740 1.524 . S
C1739 C1743 1.400 . S
C1740 H1725 0.960 . S
C1740 H1726 0.960 . S
C1740 H1727 0.960 . S
C1740 C1739 1.524 . S
C1741 C1738 1.403 . S
C1741 C1742 1.392 . S
C1741 C1745 1.495 . S
C1742 C1741 1.392 . S
C1742 C1743 1.385 . S
C1742 C1744 1.478 . S
C1743 H1737 0.930 . S
C1743 C1739 1.400 . S
C1743 C1742 1.385 . S
C1744 C1742 1.478 . S
C1744 C1746 1.381 . S
C1744 C1750 1.383 . S
C1745 C1741 1.495 . S
C1745 H1751 0.959 . S
C1745 H1752 0.961 . S
C1745 H1753 0.960 . S
C1746 C1744 1.381 . S
C1746 C1747 1.394 . S
C1746 H1754 0.930 . S
C1747 C1746 1.394 . S
C1747 C1748 1.383 . S
C1747 H1755 0.929 . S
C1748 C1747 1.383 . S
C1748 C1749 1.377 . S
C1749 H1733 0.930 . S
C1749 C1748 1.377 . S
C1749 C1750 1.379 . S
C1750 H1734 0.931 . S
C1750 C1744 1.383 . S
C1750 C1749 1.379 . S
H1751 C1745 0.959 . S
H1752 C1745 0.961 . S
H1753 C1745 0.960 . S
H1754 C1746 0.930 . S
H1755 C1747 0.929 . S
H1756 C1764 0.929 . S
H1757 C1766 0.930 . S
H1758 C1768 0.930 . S
H1759 C1771 0.929 . S
H1760 C1774 0.930 . S
H1761 C1776 0.960 . S
H1762 C1776 0.960 1_554 S
H1763 C1776 0.960 1_554 S
C1764 H1756 0.929 . S
C1764 C1765 1.377 . S
C1764 C1766 1.384 . S
C1765 C1764 1.377 . S
C1765 C1771 1.390 . S
C1766 H1757 0.930 . S
C1766 C1764 1.384 . S
C1766 C1767 1.372 . S
C1767 C1766 1.372 . S
C1767 C1768 1.400 . S
C1767 C1772 1.490 . S
C1768 H1758 0.930 . S
C1768 C1767 1.400 . S
C1768 C1771 1.386 . S
H1769 C1785 0.930 . S
H1770 C1786 0.931 . S
C1771 H1759 0.929 . S
C1771 C1765 1.390 . S
C1771 C1768 1.386 . S
C1772 C1767 1.490 . S
C1772 C1774 1.395 . S
C1772 C1775 1.419 . S
H1773 C1779 0.930 . S
C1774 H1760 0.930 . S
C1774 C1772 1.395 . S
C1774 C1777 1.403 . S
C1775 C1772 1.419 . S
C1775 C1776 1.522 1_554 S
C1775 C1779 1.384 1_554 S
C1776 H1761 0.960 . S
C1776 H1762 0.960 1_556 S
C1776 H1763 0.960 1_556 S
C1776 C1775 1.522 1_556 S
C1777 C1774 1.403 . S
C1777 C1778 1.392 1_554 S
C1777 C1781 1.495 . S
C1778 C1777 1.392 1_556 S
C1778 C1779 1.385 . S
C1778 C1780 1.478 . S
C1779 H1773 0.930 . S
C1779 C1775 1.384 1_556 S
C1779 C1778 1.385 . S
C1780 C1778 1.478 . S
C1780 C1782 1.381 . S
C1780 C1786 1.383 . S
C1781 C1777 1.495 . S
C1781 H1787 0.959 . S
C1781 H1788 0.961 1_554 S
C1781 H1789 0.960 1_554 S
C1782 C1780 1.381 . S
C1782 C1783 1.394 . S
C1782 H1790 0.930 . S
C1783 C1782 1.394 . S
C1783 C1784 1.383 . S
C1783 H1791 0.929 . S
C1784 C1783 1.383 . S
C1784 C1785 1.377 . S
C1785 H1769 0.930 . S
C1785 C1784 1.377 . S
C1785 C1786 1.379 . S
C1786 H1770 0.931 . S
C1786 C1780 1.383 . S
C1786 C1785 1.379 . S
H1787 C1781 0.959 . S
H1788 C1781 0.961 1_556 S
H1789 C1781 0.960 1_556 S
H1790 C1782 0.930 . S
H1791 C1783 0.929 . S
H1792 C1800 0.929 . S
H1793 C1802 0.930 . S
H1794 C1804 0.930 . S
H1795 C1807 0.929 . S
H1796 C1810 0.930 . S
H1797 C1812 0.960 . S
H1798 C1812 0.960 . S
H1799 C1812 0.960 . S
C1800 H1792 0.929 . S
C1800 C1801 1.377 1_545 S
C1800 C1802 1.384 . S
C1801 C1800 1.377 1_565 S
C1801 C1807 1.390 . S
C1802 H1793 0.930 . S
C1802 C1800 1.384 . S
C1802 C1803 1.372 1_545 S
C1803 C1802 1.372 1_565 S
C1803 C1804 1.400 . S
C1803 C1808 1.490 . S
C1804 H1794 0.930 . S
C1804 C1803 1.400 . S
C1804 C1807 1.386 . S
H1805 C1821 0.930 . S
H1806 C1822 0.931 . S
C1807 H1795 0.929 . S
C1807 C1801 1.390 . S
C1807 C1804 1.386 . S
C1808 C1803 1.490 . S
C1808 C1810 1.395 . S
C1808 C1811 1.403 1_565 S
H1809 C1815 0.930 . S
C1810 H1796 0.930 . S
C1810 C1808 1.395 . S
C1810 C1813 1.403 . S
C1811 C1808 1.403 1_545 S
C1811 C1812 1.524 . S
C1811 C1815 1.400 . S
C1812 H1797 0.960 . S
C1812 H1798 0.960 . S
C1812 H1799 0.960 . S
C1812 C1811 1.524 . S
C1813 C1810 1.403 . S
C1813 C1814 1.392 . S
C1813 C1817 1.495 . S
C1814 C1813 1.392 . S
C1814 C1815 1.385 1_565 S
C1814 C1816 1.478 . S
C1815 H1809 0.930 . S
C1815 C1811 1.400 . S
C1815 C1814 1.385 1_545 S
C1816 C1814 1.478 . S
C1816 C1818 1.376 1_565 S
C1816 C1822 1.383 . S
C1817 C1813 1.495 . S
C1817 H1823 0.959 . S
C1817 H1824 0.961 . S
C1817 H1825 0.960 . S
C1818 C1816 1.376 1_545 S
C1818 C1819 1.396 . S
C1818 H1826 0.935 . S
C1819 C1818 1.396 . S
C1819 C1820 1.383 1_545 S
C1819 H1827 0.929 . S
C1820 C1819 1.383 1_565 S
C1820 C1821 1.377 . S
C1821 H1805 0.930 . S
C1821 C1820 1.377 . S
C1821 C1822 1.379 . S
C1822 H1806 0.931 . S
C1822 C1816 1.383 . S
C1822 C1821 1.379 . S
H1823 C1817 0.959 . S
H1824 C1817 0.961 . S
H1825 C1817 0.960 . S
H1826 C1818 0.935 . S
H1827 C1819 0.929 . S
H1828 C1836 0.929 . S
H1829 C1838 0.930 . S
H1830 C1840 0.930 . S
H1831 C1843 0.929 . S
H1832 C1846 0.930 . S
H1833 C1848 0.960 . S
H1834 C1848 0.960 . S
H1835 C1848 0.960 . S
C1836 H1828 0.929 . S
C1836 C1837 1.377 . S
C1836 C1838 1.384 . S
C1837 C1836 1.377 . S
C1837 C1843 1.390 . S
C1838 H1829 0.930 . S
C1838 C1836 1.384 . S
C1838 C1839 1.372 . S
C1839 C1838 1.372 . S
C1839 C1840 1.400 . S
C1839 C1844 1.490 . S
C1840 H1830 0.930 . S
C1840 C1839 1.400 . S
C1840 C1843 1.386 . S
H1841 C1857 0.930 . S
H1842 C1858 0.931 . S
C1843 H1831 0.929 . S
C1843 C1837 1.390 . S
C1843 C1840 1.386 . S
C1844 C1839 1.490 . S
C1844 C1846 1.395 . S
C1844 C1847 1.403 . S
H1845 C1851 0.930 . S
C1846 H1832 0.930 . S
C1846 C1844 1.395 . S
C1846 C1849 1.403 . S
C1847 C1844 1.403 . S
C1847 C1848 1.524 . S
C1847 C1851 1.400 . S
C1848 H1833 0.960 . S
C1848 H1834 0.960 . S
C1848 H1835 0.960 . S
C1848 C1847 1.524 . S
C1849 C1846 1.403 . S
C1849 C1850 1.392 . S
C1849 C1853 1.495 . S
C1850 C1849 1.392 . S
C1850 C1851 1.385 . S
C1850 C1852 1.478 . S
C1851 H1845 0.930 . S
C1851 C1847 1.400 . S
C1851 C1850 1.385 . S
C1852 C1850 1.478 . S
C1852 C1854 1.381 . S
C1852 C1858 1.383 . S
C1853 C1849 1.495 . S
C1853 H1859 0.959 . S
C1853 H1860 0.961 . S
C1853 H1861 0.960 . S
C1854 C1852 1.381 . S
C1854 C1855 1.394 . S
C1854 H1862 0.930 . S
C1855 C1854 1.394 . S
C1855 C1856 1.383 . S
C1855 H1863 0.929 . S
C1856 C1855 1.383 . S
C1856 C1857 1.377 . S
C1857 H1841 0.930 . S
C1857 C1856 1.377 . S
C1857 C1858 1.379 . S
C1858 H1842 0.931 . S
C1858 C1852 1.383 . S
C1858 C1857 1.379 . S
H1859 C1853 0.959 . S
H1860 C1853 0.961 . S
H1861 C1853 0.960 . S
H1862 C1854 0.930 . S
H1863 C1855 0.929 . S
H1864 C1872 0.929 . S
H1865 C1874 0.930 . S
H1866 C1876 0.930 . S
H1867 C1879 0.929 . S
H1868 C1882 0.930 . S
H1869 C1884 0.960 . S
H1870 C1884 0.960 . S
H1871 C1884 0.960 . S
C1872 H1864 0.929 . S
C1872 C1873 1.377 . S
C1872 C1874 1.384 . S
C1873 C1872 1.377 . S
C1873 C1879 1.390 . S
C1874 H1865 0.930 . S
C1874 C1872 1.384 . S
C1874 C1875 1.372 . S
C1875 C1874 1.372 . S
C1875 C1876 1.400 . S
C1875 C1880 1.490 . S
C1876 H1866 0.930 . S
C1876 C1875 1.400 . S
C1876 C1879 1.386 . S
H1877 C1893 0.930 . S
H1878 C1894 0.931 . S
C1879 H1867 0.929 . S
C1879 C1873 1.390 . S
C1879 C1876 1.386 . S
C1880 C1875 1.490 . S
C1880 C1882 1.395 . S
C1880 C1883 1.403 . S
H1881 C1887 0.930 . S
C1882 H1868 0.930 . S
C1882 C1880 1.395 . S
C1882 C1885 1.403 . S
C1883 C1880 1.403 . S
C1883 C1884 1.524 . S
C1883 C1887 1.400 . S
C1884 H1869 0.960 . S
C1884 H1870 0.960 . S
C1884 H1871 0.960 . S
C1884 C1883 1.524 . S
C1885 C1882 1.403 . S
C1885 C1886 1.392 . S
C1885 C1889 1.495 . S
C1886 C1885 1.392 . S
C1886 C1887 1.385 . S
C1886 C1888 1.478 . S
C1887 H1881 0.930 . S
C1887 C1883 1.400 . S
C1887 C1886 1.385 . S
C1888 C1886 1.478 . S
C1888 C1890 1.381 . S
C1888 C1894 1.383 . S
C1889 C1885 1.495 . S
C1889 H1895 0.959 . S
C1889 H1896 0.961 . S
C1889 H1897 0.960 . S
C1890 C1888 1.381 . S
C1890 C1891 1.394 . S
C1890 H1898 0.930 . S
C1891 C1890 1.394 . S
C1891 C1892 1.383 . S
C1891 H1899 0.929 . S
C1892 C1891 1.383 . S
C1892 C1893 1.377 . S
C1893 H1877 0.930 . S
C1893 C1892 1.377 . S
C1893 C1894 1.379 . S
C1894 H1878 0.931 . S
C1894 C1888 1.383 . S
C1894 C1893 1.379 . S
H1895 C1889 0.959 . S
H1896 C1889 0.961 . S
H1897 C1889 0.960 . S
H1898 C1890 0.930 . S
H1899 C1891 0.929 . S
H1900 C1908 0.929 . S
H1901 C1910 0.930 . S
H1902 C1912 0.930 . S
H1903 C1915 0.929 . S
H1904 C1918 0.930 . S
H1905 C1920 0.960 . S
H1906 C1920 0.960 . S
H1907 C1920 0.960 1_545 S
C1908 H1900 0.929 . S
C1908 C1909 1.377 . S
C1908 C1910 1.384 . S
C1909 C1908 1.377 . S
C1909 C1915 1.390 1_565 S
C1910 H1901 0.930 . S
C1910 C1908 1.384 . S
C1910 C1911 1.372 . S
C1911 C1910 1.372 . S
C1911 C1912 1.400 1_565 S
C1911 C1916 1.490 . S
C1912 H1902 0.930 . S
C1912 C1911 1.400 1_545 S
C1912 C1915 1.386 . S
H1913 C1929 0.930 . S
H1914 C1930 0.931 . S
C1915 H1903 0.929 . S
C1915 C1909 1.390 1_545 S
C1915 C1912 1.386 . S
C1916 C1911 1.490 . S
C1916 C1918 1.395 . S
C1916 C1919 1.403 . S
H1917 C1923 0.930 . S
C1918 H1904 0.930 . S
C1918 C1916 1.395 . S
C1918 C1921 1.403 . S
C1919 C1916 1.403 . S
C1919 C1920 1.524 . S
C1919 C1923 1.400 . S
C1920 H1905 0.960 . S
C1920 H1906 0.960 . S
C1920 H1907 0.960 1_565 S
C1920 C1919 1.524 . S
C1921 C1918 1.403 . S
C1921 C1922 1.392 . S
C1921 C1925 1.497 . S
C1922 C1921 1.392 . S
C1922 C1923 1.385 . S
C1922 C1924 1.478 . S
C1923 H1917 0.930 . S
C1923 C1919 1.400 . S
C1923 C1922 1.385 . S
C1924 C1922 1.478 . S
C1924 C1926 1.381 . S
C1924 C1930 1.383 1_565 S
C1925 C1921 1.497 . S
C1925 H1931 0.959 . S
C1925 H1932 0.932 1_565 S
C1925 H1933 0.987 . S
C1926 C1924 1.381 . S
C1926 C1927 1.394 . S
C1926 H1934 0.930 . S
C1927 C1926 1.394 . S
C1927 C1928 1.383 . S
C1927 H1935 0.929 . S
C1928 C1927 1.383 . S
C1928 C1929 1.377 1_565 S
C1929 H1913 0.930 . S
C1929 C1928 1.377 1_545 S
C1929 C1930 1.379 . S
C1930 H1914 0.931 . S
C1930 C1924 1.383 1_545 S
C1930 C1929 1.379 . S
H1931 C1925 0.959 . S
H1932 C1925 0.932 1_545 S
H1933 C1925 0.987 . S
H1934 C1926 0.930 . S
H1935 C1927 0.929 . S
H1936 C1944 0.932 . S
H1937 C1946 0.930 . S
H1938 C1948 0.932 . S
H1939 C1951 0.929 . S
H1940 C1954 0.930 . S
H1941 C1956 0.960 . S
H1942 C1956 0.960 . S
H1943 C1956 0.960 . S
C1944 H1936 0.932 . S
C1944 C1945 1.377 . S
C1944 C1946 1.384 . S
C1945 C1944 1.377 . S
C1945 C1951 1.390 . S
C1946 H1937 0.930 . S
C1946 C1944 1.384 . S
C1946 C1947 1.372 . S
C1947 C1946 1.372 . S
C1947 C1948 1.400 . S
C1947 C1952 1.490 . S
C1948 H1938 0.932 . S
C1948 C1947 1.400 . S
C1948 C1951 1.386 . S
H1949 C1965 0.930 . S
H1950 C1966 0.931 . S
C1951 H1939 0.929 . S
C1951 C1945 1.390 . S
C1951 C1948 1.386 . S
C1952 C1947 1.490 . S
C1952 C1954 1.395 . S
C1952 C1955 1.403 1_545 S
H1953 C1959 0.930 . S
C1954 H1940 0.930 . S
C1954 C1952 1.395 . S
C1954 C1957 1.403 . S
C1955 C1952 1.403 1_565 S
C1955 C1956 1.524 . S
C1955 C1959 1.400 . S
C1956 H1941 0.960 . S
C1956 H1942 0.960 . S
C1956 H1943 0.960 . S
C1956 C1955 1.524 . S
C1957 C1954 1.403 . S
C1957 C1958 1.392 . S
C1957 C1961 1.495 . S
C1958 C1957 1.392 . S
C1958 C1959 1.385 1_545 S
C1958 C1960 1.478 . S
C1959 H1953 0.930 . S
C1959 C1955 1.400 . S
C1959 C1958 1.385 1_565 S
C1960 C1958 1.478 . S
C1960 C1962 1.381 . S
C1960 C1966 1.383 . S
C1961 C1957 1.495 . S
C1961 H1967 0.959 . S
C1961 H1968 0.961 . S
C1961 H1969 0.960 . S
C1962 C1960 1.381 . S
C1962 C1963 1.394 . S
C1962 H1970 0.930 . S
C1963 C1962 1.394 . S
C1963 C1964 1.383 . S
C1963 H1971 0.927 1_545 S
C1964 C1963 1.383 . S
C1964 C1965 1.377 . S
C1965 H1949 0.930 . S
C1965 C1964 1.377 . S
C1965 C1966 1.379 . S
C1966 H1950 0.931 . S
C1966 C1960 1.383 . S
C1966 C1965 1.379 . S
H1967 C1961 0.959 . S
H1968 C1961 0.961 . S
H1969 C1961 0.960 . S
H1970 C1962 0.930 . S
H1971 C1963 0.927 1_565 S
H1972 C1980 0.929 . S
H1973 C1982 0.930 . S
H1974 C1984 0.930 . S
H1975 C1987 0.929 . S
H1976 C1990 0.930 . S
H1977 C1992 0.960 . S
H1978 C1992 0.960 . S
H1979 C1992 0.960 . S
C1980 H1972 0.929 . S
C1980 C1981 1.377 . S
C1980 C1982 1.384 . S
C1981 C1980 1.377 . S
C1981 C1987 1.390 . S
C1982 H1973 0.930 . S
C1982 C1980 1.384 . S
C1982 C1983 1.372 . S
C1983 C1982 1.372 . S
C1983 C1984 1.400 . S
C1983 C1988 1.490 . S
C1984 H1974 0.930 . S
C1984 C1983 1.400 . S
C1984 C1987 1.386 . S
H1985 C2001 0.930 . S
H1986 C2002 0.931 . S
C1987 H1975 0.929 . S
C1987 C1981 1.390 . S
C1987 C1984 1.386 . S
C1988 C1983 1.490 . S
C1988 C1990 1.395 . S
C1988 C1991 1.403 . S
H1989 C1995 0.930 . S
C1990 H1976 0.930 . S
C1990 C1988 1.395 . S
C1990 C1993 1.403 . S
C1991 C1988 1.403 . S
C1991 C1992 1.524 . S
C1991 C1995 1.400 . S
C1992 H1977 0.960 . S
C1992 H1978 0.960 . S
C1992 H1979 0.960 . S
C1992 C1991 1.524 . S
C1993 C1990 1.403 . S
C1993 C1994 1.392 . S
C1993 C1997 1.495 . S
C1994 C1993 1.392 . S
C1994 C1995 1.385 . S
C1994 C1996 1.478 . S
C1995 H1989 0.930 . S
C1995 C1991 1.400 . S
C1995 C1994 1.385 . S
C1996 C1994 1.478 . S
C1996 C1998 1.381 . S
C1996 C2002 1.383 . S
C1997 C1993 1.495 . S
C1997 H2003 0.959 . S
C1997 H2004 0.961 . S
C1997 H2005 0.960 . S
C1998 C1996 1.381 . S
C1998 C1999 1.394 . S
C1998 H2006 0.930 . S
C1999 C1998 1.394 . S
C1999 C2000 1.383 . S
C1999 H2007 0.929 . S
C2000 C1999 1.383 . S
C2000 C2001 1.377 . S
C2001 H1985 0.930 . S
C2001 C2000 1.377 . S
C2001 C2002 1.379 . S
C2002 H1986 0.931 . S
C2002 C1996 1.383 . S
C2002 C2001 1.379 . S
H2003 C1997 0.959 . S
H2004 C1997 0.961 . S
H2005 C1997 0.960 . S
H2006 C1998 0.930 . S
H2007 C1999 0.929 . S
H2008 C2016 0.929 . S
H2009 C2018 0.930 . S
H2010 C2020 0.930 . S
H2011 C2023 0.929 . S
H2012 C2026 0.930 . S
H2013 C2028 0.960 . S
H2014 C2028 0.960 . S
H2015 C2028 0.960 . S
C2016 H2008 0.929 . S
C2016 C2017 1.377 . S
C2016 C2018 1.384 . S
C2017 C2016 1.377 . S
C2017 C2023 1.390 . S
C2018 H2009 0.930 . S
C2018 C2016 1.384 . S
C2018 C2019 1.372 . S
C2019 C2018 1.372 . S
C2019 C2020 1.400 . S
C2019 C2024 1.490 . S
C2020 H2010 0.930 . S
C2020 C2019 1.400 . S
C2020 C2023 1.386 . S
H2021 C2037 0.930 . S
H2022 C2038 0.931 . S
C2023 H2011 0.929 . S
C2023 C2017 1.390 . S
C2023 C2020 1.386 . S
C2024 C2019 1.490 . S
C2024 C2026 1.395 . S
C2024 C2027 1.403 . S
H2025 C2031 0.930 . S
C2026 H2012 0.930 . S
C2026 C2024 1.395 . S
C2026 C2029 1.403 . S
C2027 C2024 1.403 . S
C2027 C2028 1.524 . S
C2027 C2031 1.400 . S
C2028 H2013 0.960 . S
C2028 H2014 0.960 . S
C2028 H2015 0.960 . S
C2028 C2027 1.524 . S
C2029 C2026 1.403 . S
C2029 C2030 1.392 . S
C2029 C2033 1.495 . S
C2030 C2029 1.392 . S
C2030 C2031 1.385 . S
C2030 C2032 1.478 . S
C2031 H2025 0.930 . S
C2031 C2027 1.400 . S
C2031 C2030 1.385 . S
C2032 C2030 1.478 . S
C2032 C2034 1.381 . S
C2032 C2038 1.383 . S
C2033 C2029 1.495 . S
C2033 H2039 0.959 . S
C2033 H2040 0.961 . S
C2033 H2041 0.960 . S
C2034 C2032 1.381 . S
C2034 C2035 1.394 . S
C2034 H2042 0.930 . S
C2035 C2034 1.394 . S
C2035 C2036 1.383 . S
C2035 H2043 0.929 . S
C2036 C2035 1.383 . S
C2036 C2037 1.377 . S
C2037 H2021 0.930 . S
C2037 C2036 1.377 . S
C2037 C2038 1.379 . S
C2038 H2022 0.931 . S
C2038 C2032 1.383 . S
C2038 C2037 1.379 . S
H2039 C2033 0.959 . S
H2040 C2033 0.961 . S
H2041 C2033 0.960 . S
H2042 C2034 0.930 . S
H2043 C2035 0.929 . S
H2044 C2052 0.929 . S
H2045 C2054 0.930 . S
H2046 C2056 0.930 . S
H2047 C2059 0.929 . S
H2048 C2062 0.930 . S
H2049 C2064 0.960 . S
H2050 C2064 0.960 . S
H2051 C2064 0.960 . S
C2052 H2044 0.929 . S
C2052 C2053 1.377 1_565 S
C2052 C2054 1.384 . S
C2053 C2052 1.377 1_545 S
C2053 C2059 1.390 . S
C2054 H2045 0.930 . S
C2054 C2052 1.384 . S
C2054 C2055 1.344 1_565 S
C2055 C2054 1.344 1_545 S
C2055 C2056 1.429 . S
C2055 C2060 1.490 . S
C2056 H2046 0.930 . S
C2056 C2055 1.429 . S
C2056 C2059 1.386 . S
H2057 C2073 0.930 . S
H2058 C2074 0.931 . S
C2059 H2047 0.929 . S
C2059 C2053 1.390 . S
C2059 C2056 1.386 . S
C2060 C2055 1.490 . S
C2060 C2062 1.395 1_545 S
C2060 C2063 1.402 . S
H2061 C2067 0.930 . S
C2062 H2048 0.930 . S
C2062 C2060 1.395 1_565 S
C2062 C2065 1.403 . S
C2063 C2060 1.402 . S
C2063 C2064 1.524 . S
C2063 C2067 1.400 . S
C2064 H2049 0.960 . S
C2064 H2050 0.960 . S
C2064 H2051 0.960 . S
C2064 C2063 1.524 . S
C2065 C2062 1.403 . S
C2065 C2066 1.392 . S
C2065 C2069 1.495 . S
C2066 C2065 1.392 . S
C2066 C2067 1.385 1_565 S
C2066 C2068 1.478 . S
C2067 H2061 0.930 . S
C2067 C2063 1.400 . S
C2067 C2066 1.385 1_545 S
C2068 C2066 1.478 . S
C2068 C2070 1.381 . S
C2068 C2074 1.383 1_565 S
C2069 C2065 1.495 . S
C2069 H2075 0.959 . S
C2069 H2076 0.961 . S
C2069 H2077 0.960 . S
C2070 C2068 1.381 . S
C2070 C2071 1.394 . S
C2070 H2078 0.930 . S
C2071 C2070 1.394 . S
C2071 C2072 1.354 1_565 S
C2071 H2079 0.929 . S
C2072 C2071 1.354 1_545 S
C2072 C2073 1.405 . S
C2073 H2057 0.930 . S
C2073 C2072 1.405 . S
C2073 C2074 1.379 . S
C2074 H2058 0.931 . S
C2074 C2068 1.383 1_545 S
C2074 C2073 1.379 . S
H2075 C2069 0.959 . S
H2076 C2069 0.961 . S
H2077 C2069 0.960 . S
H2078 C2070 0.930 . S
H2079 C2071 0.929 . S
H2080 C2088 0.929 . S
H2081 C2090 0.930 . S
H2082 C2092 0.930 . S
H2083 C2095 0.929 . S
H2084 C2098 0.930 . S
H2085 C2100 0.960 . S
H2086 C2100 0.960 . S
H2087 C2100 0.960 . S
C2088 H2080 0.929 . S
C2088 C2089 1.377 . S
C2088 C2090 1.384 . S
C2089 C2088 1.377 . S
C2089 C2095 1.390 . S
C2090 H2081 0.930 . S
C2090 C2088 1.384 . S
C2090 C2091 1.372 . S
C2091 C2090 1.372 . S
C2091 C2092 1.400 . S
C2091 C2096 1.490 . S
C2092 H2082 0.930 . S
C2092 C2091 1.400 . S
C2092 C2095 1.386 . S
H2093 C2109 0.930 . S
H2094 C2110 0.931 . S
C2095 H2083 0.929 . S
C2095 C2089 1.390 . S
C2095 C2092 1.386 . S
C2096 C2091 1.490 . S
C2096 C2098 1.395 . S
C2096 C2099 1.403 . S
H2097 C2103 0.930 . S
C2098 H2084 0.930 . S
C2098 C2096 1.395 . S
C2098 C2101 1.403 . S
C2099 C2096 1.403 . S
C2099 C2100 1.524 . S
C2099 C2103 1.400 . S
C2100 H2085 0.960 . S
C2100 H2086 0.960 . S
C2100 H2087 0.960 . S
C2100 C2099 1.524 . S
C2101 C2098 1.403 . S
C2101 C2102 1.392 . S
C2101 C2105 1.495 . S
C2102 C2101 1.392 . S
C2102 C2103 1.385 . S
C2102 C2104 1.478 . S
C2103 H2097 0.930 . S
C2103 C2099 1.400 . S
C2103 C2102 1.385 . S
C2104 C2102 1.478 . S
C2104 C2106 1.381 . S
C2104 C2110 1.383 . S
C2105 C2101 1.495 . S
C2105 H2111 0.959 . S
C2105 H2112 0.961 . S
C2105 H2113 0.960 . S
C2106 C2104 1.381 . S
C2106 C2107 1.394 . S
C2106 H2114 0.930 . S
C2107 C2106 1.394 . S
C2107 C2108 1.383 . S
C2107 H2115 0.929 . S
C2108 C2107 1.383 . S
C2108 C2109 1.377 . S
C2109 H2093 0.930 . S
C2109 C2108 1.377 . S
C2109 C2110 1.379 . S
C2110 H2094 0.931 . S
C2110 C2104 1.383 . S
C2110 C2109 1.379 . S
H2111 C2105 0.959 . S
H2112 C2105 0.961 . S
H2113 C2105 0.960 . S
H2114 C2106 0.930 . S
H2115 C2107 0.929 . S
H2116 C2124 0.929 . S
H2117 C2126 0.930 . S
H2118 C2128 0.930 . S
H2119 C2131 0.929 . S
H2120 C2134 0.930 . S
H2121 C2136 0.960 . S
H2122 C2136 0.960 . S
H2123 C2136 0.960 . S
C2124 H2116 0.929 . S
C2124 C2125 1.377 . S
C2124 C2126 1.384 . S
C2125 C2124 1.377 . S
C2125 C2131 1.390 . S
C2126 H2117 0.930 . S
C2126 C2124 1.384 . S
C2126 C2127 1.372 . S
C2127 C2126 1.372 . S
C2127 C2128 1.400 . S
C2127 C2132 1.490 . S
C2128 H2118 0.930 . S
C2128 C2127 1.400 . S
C2128 C2131 1.386 . S
H2129 C2145 0.930 . S
H2130 C2146 0.931 . S
C2131 H2119 0.929 . S
C2131 C2125 1.390 . S
C2131 C2128 1.386 . S
C2132 C2127 1.490 . S
C2132 C2134 1.395 . S
C2132 C2135 1.403 . S
H2133 C2139 0.930 . S
C2134 H2120 0.930 . S
C2134 C2132 1.395 . S
C2134 C2137 1.403 . S
C2135 C2132 1.403 . S
C2135 C2136 1.524 . S
C2135 C2139 1.400 . S
C2136 H2121 0.960 . S
C2136 H2122 0.960 . S
C2136 H2123 0.960 . S
C2136 C2135 1.524 . S
C2137 C2134 1.403 . S
C2137 C2138 1.392 . S
C2137 C2141 1.495 . S
C2138 C2137 1.392 . S
C2138 C2139 1.385 . S
C2138 C2140 1.478 . S
C2139 H2133 0.930 . S
C2139 C2135 1.400 . S
C2139 C2138 1.385 . S
C2140 C2138 1.478 . S
C2140 C2142 1.381 . S
C2140 C2146 1.383 . S
C2141 C2137 1.495 . S
C2141 H2147 0.959 . S
C2141 H2148 0.961 . S
C2141 H2149 0.960 . S
C2142 C2140 1.381 . S
C2142 C2143 1.394 . S
C2142 H2150 0.930 . S
C2143 C2142 1.394 . S
C2143 C2144 1.383 . S
C2143 H2151 0.929 . S
C2144 C2143 1.383 . S
C2144 C2145 1.377 . S
C2145 H2129 0.930 . S
C2145 C2144 1.377 . S
C2145 C2146 1.379 . S
C2146 H2130 0.931 . S
C2146 C2140 1.383 . S
C2146 C2145 1.379 . S
H2147 C2141 0.959 . S
H2148 C2141 0.961 . S
H2149 C2141 0.960 . S
H2150 C2142 0.930 . S
H2151 C2143 0.929 . S
H2152 C2160 0.929 . S
H2153 C2162 0.930 . S
H2154 C2164 0.930 . S
H2155 C2167 0.929 . S
H2156 C2170 0.930 . S
H2157 C2172 0.960 . S
H2158 C2172 0.960 . S
H2159 C2172 0.960 . S
C2160 H2152 0.929 . S
C2160 C2161 1.377 . S
C2160 C2162 1.384 . S
C2161 C2160 1.377 . S
C2161 C2167 1.390 . S
C2162 H2153 0.930 . S
C2162 C2160 1.384 . S
C2162 C2163 1.372 . S
C2163 C2162 1.372 . S
C2163 C2164 1.400 . S
C2163 C2168 1.490 . S
C2164 H2154 0.930 . S
C2164 C2163 1.400 . S
C2164 C2167 1.386 . S
H2165 C2181 0.930 . S
H2166 C2182 0.931 . S
C2167 H2155 0.929 . S
C2167 C2161 1.390 . S
C2167 C2164 1.386 . S
C2168 C2163 1.490 . S
C2168 C2170 1.395 . S
C2168 C2171 1.403 . S
H2169 C2175 0.930 . S
C2170 H2156 0.930 . S
C2170 C2168 1.395 . S
C2170 C2173 1.403 . S
C2171 C2168 1.403 . S
C2171 C2172 1.524 . S
C2171 C2175 1.400 . S
C2172 H2157 0.960 . S
C2172 H2158 0.960 . S
C2172 H2159 0.960 . S
C2172 C2171 1.524 . S
C2173 C2170 1.403 . S
C2173 C2174 1.392 . S
C2173 C2177 1.495 . S
C2174 C2173 1.392 . S
C2174 C2175 1.385 . S
C2174 C2176 1.478 . S
C2175 H2169 0.930 . S
C2175 C2171 1.400 . S
C2175 C2174 1.385 . S
C2176 C2174 1.478 . S
C2176 C2178 1.381 . S
C2176 C2182 1.383 . S
C2177 C2173 1.495 . S
C2177 H2183 0.959 . S
C2177 H2184 0.961 . S
C2177 H2185 0.960 . S
C2178 C2176 1.381 . S
C2178 C2179 1.394 . S
C2178 H2186 0.930 . S
C2179 C2178 1.394 . S
C2179 C2180 1.383 . S
C2179 H2187 0.929 . S
C2180 C2179 1.383 . S
C2180 C2181 1.377 . S
C2181 H2165 0.930 . S
C2181 C2180 1.377 . S
C2181 C2182 1.379 . S
C2182 H2166 0.931 . S
C2182 C2176 1.383 . S
C2182 C2181 1.379 . S
H2183 C2177 0.959 . S
H2184 C2177 0.961 . S
H2185 C2177 0.960 . S
H2186 C2178 0.930 . S
H2187 C2179 0.929 . S
H2188 C2196 0.929 . S
H2189 C2198 0.930 . S
H2190 C2200 0.930 . S
H2191 C2203 0.929 . S
H2192 C2206 0.930 . S
H2193 C2208 0.960 . S
H2194 C2208 0.960 . S
H2195 C2208 0.960 . S
C2196 H2188 0.929 . S
C2196 C2197 1.377 . S
C2196 C2198 1.384 . S
C2197 C2196 1.377 . S
C2197 C2203 1.390 . S
C2198 H2189 0.930 . S
C2198 C2196 1.384 . S
C2198 C2199 1.372 . S
C2199 C2198 1.372 . S
C2199 C2200 1.400 . S
C2199 C2204 1.490 . S
C2200 H2190 0.930 . S
C2200 C2199 1.400 . S
C2200 C2203 1.386 . S
H2201 C2217 0.930 . S
H2202 C2218 0.931 . S
C2203 H2191 0.929 . S
C2203 C2197 1.390 . S
C2203 C2200 1.386 . S
C2204 C2199 1.490 . S
C2204 C2206 1.395 . S
C2204 C2207 1.403 . S
H2205 C2211 0.930 . S
C2206 H2192 0.930 . S
C2206 C2204 1.395 . S
C2206 C2209 1.403 . S
C2207 C2204 1.403 . S
C2207 C2208 1.524 . S
C2207 C2211 1.400 . S
C2208 H2193 0.960 . S
C2208 H2194 0.960 . S
C2208 H2195 0.960 . S
C2208 C2207 1.524 . S
C2209 C2206 1.403 . S
C2209 C2210 1.392 . S
C2209 C2213 1.495 . S
C2210 C2209 1.392 . S
C2210 C2211 1.385 . S
C2210 C2212 1.478 . S
C2211 H2205 0.930 . S
C2211 C2207 1.400 . S
C2211 C2210 1.385 . S
C2212 C2210 1.478 . S
C2212 C2214 1.381 . S
C2212 C2218 1.383 . S
C2213 C2209 1.495 . S
C2213 H2219 0.959 . S
C2213 H2220 0.961 . S
C2213 H2221 0.960 . S
C2214 C2212 1.381 . S
C2214 C2215 1.394 . S
C2214 H2222 0.930 . S
C2215 C2214 1.394 . S
C2215 C2216 1.383 . S
C2215 H2223 0.929 . S
C2216 C2215 1.383 . S
C2216 C2217 1.377 . S
C2217 H2201 0.930 . S
C2217 C2216 1.377 . S
C2217 C2218 1.379 . S
C2218 H2202 0.931 . S
C2218 C2212 1.383 . S
C2218 C2217 1.379 . S
H2219 C2213 0.959 . S
H2220 C2213 0.961 . S
H2221 C2213 0.960 . S
H2222 C2214 0.930 . S
H2223 C2215 0.929 . S
H2224 C2232 0.929 . S
H2225 C2234 0.930 . S
H2226 C2236 0.930 . S
H2227 C2239 0.929 . S
H2228 C2242 0.930 . S
H2229 C2244 0.960 . S
H2230 C2244 0.960 . S
H2231 C2244 0.960 . S
C2232 H2224 0.929 . S
C2232 C2233 1.377 . S
C2232 C2234 1.384 . S
C2233 C2232 1.377 . S
C2233 C2239 1.390 . S
C2234 H2225 0.930 . S
C2234 C2232 1.384 . S
C2234 C2235 1.372 . S
C2235 C2234 1.372 . S
C2235 C2236 1.400 . S
C2235 C2240 1.490 . S
C2236 H2226 0.930 . S
C2236 C2235 1.400 . S
C2236 C2239 1.386 . S
H2237 C2253 0.930 . S
H2238 C2254 0.931 . S
C2239 H2227 0.929 . S
C2239 C2233 1.390 . S
C2239 C2236 1.386 . S
C2240 C2235 1.490 . S
C2240 C2242 1.395 . S
C2240 C2243 1.403 . S
H2241 C2247 0.930 . S
C2242 H2228 0.930 . S
C2242 C2240 1.395 . S
C2242 C2245 1.403 . S
C2243 C2240 1.403 . S
C2243 C2244 1.524 . S
C2243 C2247 1.400 . S
C2244 H2229 0.960 . S
C2244 H2230 0.960 . S
C2244 H2231 0.960 . S
C2244 C2243 1.524 . S
C2245 C2242 1.403 . S
C2245 C2246 1.392 . S
C2245 C2249 1.495 . S
C2246 C2245 1.392 . S
C2246 C2247 1.385 . S
C2246 C2248 1.478 . S
C2247 H2241 0.930 . S
C2247 C2243 1.400 . S
C2247 C2246 1.385 . S
C2248 C2246 1.478 . S
C2248 C2250 1.381 . S
C2248 C2254 1.383 . S
C2249 C2245 1.495 . S
C2249 H2255 0.959 . S
C2249 H2256 0.961 . S
C2249 H2257 0.960 . S
C2250 C2248 1.381 . S
C2250 C2251 1.394 . S
C2250 H2258 0.930 . S
C2251 C2250 1.394 . S
C2251 C2252 1.383 . S
C2251 H2259 0.929 . S
C2252 C2251 1.383 . S
C2252 C2253 1.377 . S
C2253 H2237 0.930 . S
C2253 C2252 1.377 . S
C2253 C2254 1.379 . S
C2254 H2238 0.931 . S
C2254 C2248 1.383 . S
C2254 C2253 1.379 . S
H2255 C2249 0.959 . S
H2256 C2249 0.961 . S
H2257 C2249 0.960 . S
H2258 C2250 0.930 . S
H2259 C2251 0.929 . S
H2260 C2268 0.929 . S
H2261 C2270 0.930 . S
H2262 C2272 0.930 . S
H2263 C2275 0.929 . S
H2264 C2278 0.930 . S
H2265 C2280 0.960 . S
H2266 C2280 0.960 . S
H2267 C2280 0.960 . S
C2268 H2260 0.929 . S
C2268 C2269 1.377 . S
C2268 C2270 1.384 . S
C2269 C2268 1.377 . S
C2269 C2275 1.390 . S
C2270 H2261 0.930 . S
C2270 C2268 1.384 . S
C2270 C2271 1.372 . S
C2271 C2270 1.372 . S
C2271 C2272 1.400 . S
C2271 C2276 1.490 . S
C2272 H2262 0.930 . S
C2272 C2271 1.400 . S
C2272 C2275 1.386 . S
H2273 C2289 0.930 . S
H2274 C2290 0.931 . S
C2275 H2263 0.929 . S
C2275 C2269 1.390 . S
C2275 C2272 1.386 . S
C2276 C2271 1.490 . S
C2276 C2278 1.395 . S
C2276 C2279 1.403 . S
H2277 C2283 0.930 . S
C2278 H2264 0.930 . S
C2278 C2276 1.395 . S
C2278 C2281 1.403 . S
C2279 C2276 1.403 . S
C2279 C2280 1.524 . S
C2279 C2283 1.400 . S
C2280 H2265 0.960 . S
C2280 H2266 0.960 . S
C2280 H2267 0.960 . S
C2280 C2279 1.524 . S
C2281 C2278 1.403 . S
C2281 C2282 1.392 . S
C2281 C2285 1.495 . S
C2282 C2281 1.392 . S
C2282 C2283 1.385 . S
C2282 C2284 1.478 . S
C2283 H2277 0.930 . S
C2283 C2279 1.400 . S
C2283 C2282 1.385 . S
C2284 C2282 1.478 . S
C2284 C2286 1.381 . S
C2284 C2290 1.383 . S
C2285 C2281 1.495 . S
C2285 H2291 0.959 . S
C2285 H2292 0.961 . S
C2285 H2293 0.960 . S
C2286 C2284 1.381 . S
C2286 C2287 1.394 . S
C2286 H2294 0.930 . S
C2287 C2286 1.394 . S
C2287 C2288 1.383 . S
C2287 H2295 0.929 . S
C2288 C2287 1.383 . S
C2288 C2289 1.377 . S
C2289 H2273 0.930 . S
C2289 C2288 1.377 . S
C2289 C2290 1.379 . S
C2290 H2274 0.931 . S
C2290 C2284 1.383 . S
C2290 C2289 1.379 . S
H2291 C2285 0.959 . S
H2292 C2285 0.961 . S
H2293 C2285 0.960 . S
H2294 C2286 0.930 . S
H2295 C2287 0.929 . S
H2296 C2304 0.929 . S
H2297 C2306 0.930 . S
H2298 C2308 0.930 . S
H2299 C2311 0.929 . S
H2300 C2314 0.930 . S
H2301 C2316 0.960 . S
H2302 C2316 0.960 . S
H2303 C2316 0.960 . S
C2304 H2296 0.929 . S
C2304 C2305 1.377 . S
C2304 C2306 1.384 . S
C2305 C2304 1.377 . S
C2305 C2311 1.390 . S
C2306 H2297 0.930 . S
C2306 C2304 1.384 . S
C2306 C2307 1.372 . S
C2307 C2306 1.372 . S
C2307 C2308 1.400 . S
C2307 C2312 1.490 . S
C2308 H2298 0.930 . S
C2308 C2307 1.400 . S
C2308 C2311 1.386 . S
H2309 C2325 0.930 . S
H2310 C2326 0.931 . S
C2311 H2299 0.929 . S
C2311 C2305 1.390 . S
C2311 C2308 1.386 . S
C2312 C2307 1.490 . S
C2312 C2314 1.395 . S
C2312 C2315 1.403 . S
H2313 C2319 0.930 . S
C2314 H2300 0.930 . S
C2314 C2312 1.395 . S
C2314 C2317 1.403 . S
C2315 C2312 1.403 . S
C2315 C2316 1.524 . S
C2315 C2319 1.400 . S
C2316 H2301 0.960 . S
C2316 H2302 0.960 . S
C2316 H2303 0.960 . S
C2316 C2315 1.524 . S
C2317 C2314 1.403 . S
C2317 C2318 1.392 . S
C2317 C2321 1.495 . S
C2318 C2317 1.392 . S
C2318 C2319 1.385 . S
C2318 C2320 1.478 . S
C2319 H2313 0.930 . S
C2319 C2315 1.400 . S
C2319 C2318 1.385 . S
C2320 C2318 1.478 . S
C2320 C2322 1.381 . S
C2320 C2326 1.383 . S
C2321 C2317 1.495 . S
C2321 H2327 0.959 . S
C2321 H2328 0.961 . S
C2321 H2329 0.960 . S
C2322 C2320 1.381 . S
C2322 C2323 1.394 . S
C2322 H2330 0.930 . S
C2323 C2322 1.394 . S
C2323 C2324 1.383 . S
C2323 H2331 0.929 . S
C2324 C2323 1.383 . S
C2324 C2325 1.377 . S
C2325 H2309 0.930 . S
C2325 C2324 1.377 . S
C2325 C2326 1.379 . S
C2326 H2310 0.931 . S
C2326 C2320 1.383 . S
C2326 C2325 1.379 . S
H2327 C2321 0.959 . S
H2328 C2321 0.961 . S
H2329 C2321 0.960 . S
H2330 C2322 0.930 . S
H2331 C2323 0.929 . S
H2332 C2340 0.929 . S
H2333 C2342 0.930 . S
H2334 C2344 0.930 . S
H2335 C2347 0.929 . S
H2336 C2350 0.930 . S
H2337 C2352 0.960 . S
H2338 C2352 0.960 . S
H2339 C2352 0.960 . S
C2340 H2332 0.929 . S
C2340 C2341 1.377 . S
C2340 C2342 1.384 . S
C2341 C2340 1.377 . S
C2341 C2347 1.390 . S
C2342 H2333 0.930 . S
C2342 C2340 1.384 . S
C2342 C2343 1.372 . S
C2343 C2342 1.372 . S
C2343 C2344 1.400 . S
C2343 C2348 1.490 . S
C2344 H2334 0.930 . S
C2344 C2343 1.400 . S
C2344 C2347 1.386 . S
H2345 C2361 0.930 . S
H2346 C2362 0.931 . S
C2347 H2335 0.929 . S
C2347 C2341 1.390 . S
C2347 C2344 1.386 . S
C2348 C2343 1.490 . S
C2348 C2350 1.395 . S
C2348 C2351 1.403 . S
H2349 C2355 0.930 . S
C2350 H2336 0.930 . S
C2350 C2348 1.395 . S
C2350 C2353 1.403 . S
C2351 C2348 1.403 . S
C2351 C2352 1.524 . S
C2351 C2355 1.400 . S
C2352 H2337 0.960 . S
C2352 H2338 0.960 . S
C2352 H2339 0.960 . S
C2352 C2351 1.524 . S
C2353 C2350 1.403 . S
C2353 C2354 1.392 . S
C2353 C2357 1.495 . S
C2354 C2353 1.392 . S
C2354 C2355 1.385 . S
C2354 C2356 1.478 . S
C2355 H2349 0.930 . S
C2355 C2351 1.400 . S
C2355 C2354 1.385 . S
C2356 C2354 1.478 . S
C2356 C2358 1.381 . S
C2356 C2362 1.383 . S
C2357 C2353 1.495 . S
C2357 H2363 0.959 . S
C2357 H2364 0.961 . S
C2357 H2365 0.960 . S
C2358 C2356 1.381 . S
C2358 C2359 1.394 . S
C2358 H2366 0.930 . S
C2359 C2358 1.394 . S
C2359 C2360 1.383 . S
C2359 H2367 0.929 . S
C2360 C2359 1.383 . S
C2360 C2361 1.377 . S
C2361 H2345 0.930 . S
C2361 C2360 1.377 . S
C2361 C2362 1.379 . S
C2362 H2346 0.931 . S
C2362 C2356 1.383 . S
C2362 C2361 1.379 . S
H2363 C2357 0.959 . S
H2364 C2357 0.961 . S
H2365 C2357 0.960 . S
H2366 C2358 0.930 . S
H2367 C2359 0.929 . S
H2368 C2376 0.929 . S
H2369 C2378 0.930 . S
H2370 C2380 0.930 . S
H2371 C2383 0.929 . S
H2372 C2386 0.930 . S
H2373 C2388 0.960 . S
H2374 C2388 0.960 . S
H2375 C2388 0.960 . S
C2376 H2368 0.929 . S
C2376 C2377 1.377 . S
C2376 C2378 1.384 . S
C2377 C2376 1.377 . S
C2377 C2383 1.390 . S
C2378 H2369 0.930 . S
C2378 C2376 1.384 . S
C2378 C2379 1.372 . S
C2379 C2378 1.372 . S
C2379 C2380 1.400 . S
C2379 C2384 1.490 . S
C2380 H2370 0.930 . S
C2380 C2379 1.400 . S
C2380 C2383 1.386 . S
H2381 C2397 0.930 . S
H2382 C2398 0.931 . S
C2383 H2371 0.929 . S
C2383 C2377 1.390 . S
C2383 C2380 1.386 . S
C2384 C2379 1.490 . S
C2384 C2386 1.395 . S
C2384 C2387 1.403 . S
H2385 C2391 0.930 . S
C2386 H2372 0.930 . S
C2386 C2384 1.395 . S
C2386 C2389 1.403 . S
C2387 C2384 1.403 . S
C2387 C2388 1.524 . S
C2387 C2391 1.400 . S
C2388 H2373 0.960 . S
C2388 H2374 0.960 . S
C2388 H2375 0.960 . S
C2388 C2387 1.524 . S
C2389 C2386 1.403 . S
C2389 C2390 1.392 . S
C2389 C2393 1.495 . S
C2390 C2389 1.392 . S
C2390 C2391 1.385 . S
C2390 C2392 1.478 . S
C2391 H2385 0.930 . S
C2391 C2387 1.400 . S
C2391 C2390 1.385 . S
C2392 C2390 1.478 . S
C2392 C2394 1.381 . S
C2392 C2398 1.383 . S
C2393 C2389 1.495 . S
C2393 H2399 0.959 . S
C2393 H2400 0.961 . S
C2393 H2401 0.960 . S
C2394 C2392 1.381 . S
C2394 C2395 1.394 . S
C2394 H2402 0.930 . S
C2395 C2394 1.394 . S
C2395 C2396 1.383 . S
C2395 H2403 0.929 . S
C2396 C2395 1.383 . S
C2396 C2397 1.377 . S
C2397 H2381 0.930 . S
C2397 C2396 1.377 . S
C2397 C2398 1.379 . S
C2398 H2382 0.931 . S
C2398 C2392 1.383 . S
C2398 C2397 1.379 . S
H2399 C2393 0.959 . S
H2400 C2393 0.961 . S
H2401 C2393 0.960 . S
H2402 C2394 0.930 . S
H2403 C2395 0.929 . S
H2404 C2412 0.929 . S
H2405 C2414 0.930 . S
H2406 C2416 0.930 . S
H2407 C2419 0.929 . S
H2408 C2422 0.930 . S
H2409 C2424 0.960 . S
H2410 C2424 0.960 . S
H2411 C2424 0.960 . S
C2412 H2404 0.929 . S
C2412 C2413 1.377 . S
C2412 C2414 1.384 . S
C2413 C2412 1.377 . S
C2413 C2419 1.390 . S
C2414 H2405 0.930 . S
C2414 C2412 1.384 . S
C2414 C2415 1.372 . S
C2415 C2414 1.372 . S
C2415 C2416 1.400 . S
C2415 C2420 1.490 . S
C2416 H2406 0.930 . S
C2416 C2415 1.400 . S
C2416 C2419 1.386 . S
H2417 C2433 0.930 . S
H2418 C2434 0.931 . S
C2419 H2407 0.929 . S
C2419 C2413 1.390 . S
C2419 C2416 1.386 . S
C2420 C2415 1.490 . S
C2420 C2422 1.395 . S
C2420 C2423 1.403 . S
H2421 C2427 0.930 . S
C2422 H2408 0.930 . S
C2422 C2420 1.395 . S
C2422 C2425 1.403 . S
C2423 C2420 1.403 . S
C2423 C2424 1.524 . S
C2423 C2427 1.400 . S
C2424 H2409 0.960 . S
C2424 H2410 0.960 . S
C2424 H2411 0.960 . S
C2424 C2423 1.524 . S
C2425 C2422 1.403 . S
C2425 C2426 1.392 . S
C2425 C2429 1.495 . S
C2426 C2425 1.392 . S
C2426 C2427 1.385 . S
C2426 C2428 1.478 . S
C2427 H2421 0.930 . S
C2427 C2423 1.400 . S
C2427 C2426 1.385 . S
C2428 C2426 1.478 . S
C2428 C2430 1.381 . S
C2428 C2434 1.383 . S
C2429 C2425 1.495 . S
C2429 H2435 0.959 . S
C2429 H2436 0.961 . S
C2429 H2437 0.960 . S
C2430 C2428 1.381 . S
C2430 C2431 1.394 . S
C2430 H2438 0.930 . S
C2431 C2430 1.394 . S
C2431 C2432 1.383 . S
C2431 H2439 0.929 . S
C2432 C2431 1.383 . S
C2432 C2433 1.377 . S
C2433 H2417 0.930 . S
C2433 C2432 1.377 . S
C2433 C2434 1.379 . S
C2434 H2418 0.931 . S
C2434 C2428 1.383 . S
C2434 C2433 1.379 . S
H2435 C2429 0.959 . S
H2436 C2429 0.961 . S
H2437 C2429 0.960 . S
H2438 C2430 0.930 . S
H2439 C2431 0.929 . S
H2440 C2448 0.929 . S
H2441 C2450 0.930 . S
H2442 C2452 0.930 . S
H2443 C2455 0.929 . S
H2444 C2458 0.930 . S
H2445 C2460 0.960 . S
H2446 C2460 0.960 . S
H2447 C2460 0.960 . S
C2448 H2440 0.929 . S
C2448 C2449 1.377 . S
C2448 C2450 1.384 . S
C2449 C2448 1.377 . S
C2449 C2455 1.390 . S
C2450 H2441 0.930 . S
C2450 C2448 1.384 . S
C2450 C2451 1.372 . S
C2451 C2450 1.372 . S
C2451 C2452 1.400 . S
C2451 C2456 1.490 . S
C2452 H2442 0.930 . S
C2452 C2451 1.400 . S
C2452 C2455 1.386 . S
H2453 C2469 0.930 . S
H2454 C2470 0.931 . S
C2455 H2443 0.929 . S
C2455 C2449 1.390 . S
C2455 C2452 1.386 . S
C2456 C2451 1.490 . S
C2456 C2458 1.395 . S
C2456 C2459 1.403 . S
H2457 C2463 0.930 . S
C2458 H2444 0.930 . S
C2458 C2456 1.395 . S
C2458 C2461 1.403 . S
C2459 C2456 1.403 . S
C2459 C2460 1.524 . S
C2459 C2463 1.400 . S
C2460 H2445 0.960 . S
C2460 H2446 0.960 . S
C2460 H2447 0.960 . S
C2460 C2459 1.524 . S
C2461 C2458 1.403 . S
C2461 C2462 1.392 . S
C2461 C2465 1.495 . S
C2462 C2461 1.392 . S
C2462 C2463 1.385 . S
C2462 C2464 1.478 . S
C2463 H2457 0.930 . S
C2463 C2459 1.400 . S
C2463 C2462 1.385 . S
C2464 C2462 1.478 . S
C2464 C2466 1.381 . S
C2464 C2470 1.383 . S
C2465 C2461 1.495 . S
C2465 H2471 0.959 . S
C2465 H2472 0.961 . S
C2465 H2473 0.960 . S
C2466 C2464 1.381 . S
C2466 C2467 1.394 . S
C2466 H2474 0.930 . S
C2467 C2466 1.394 . S
C2467 C2468 1.383 . S
C2467 H2475 0.929 . S
C2468 C2467 1.383 . S
C2468 C2469 1.377 . S
C2469 H2453 0.930 . S
C2469 C2468 1.377 . S
C2469 C2470 1.379 . S
C2470 H2454 0.931 . S
C2470 C2464 1.383 . S
C2470 C2469 1.379 . S
H2471 C2465 0.959 . S
H2472 C2465 0.961 . S
H2473 C2465 0.960 . S
H2474 C2466 0.930 . S
H2475 C2467 0.929 . S
H2476 C2484 0.929 . S
H2477 C2486 0.930 . S
H2478 C2488 0.930 . S
H2479 C2491 0.929 . S
H2480 C2494 0.930 . S
H2481 C2496 0.960 . S
H2482 C2496 0.960 . S
H2483 C2496 0.960 . S
C2484 H2476 0.929 . S
C2484 C2485 1.377 . S
C2484 C2486 1.384 . S
C2485 C2484 1.377 . S
C2485 C2491 1.390 . S
C2486 H2477 0.930 . S
C2486 C2484 1.384 . S
C2486 C2487 1.372 . S
C2487 C2486 1.372 . S
C2487 C2488 1.400 . S
C2487 C2492 1.490 . S
C2488 H2478 0.930 . S
C2488 C2487 1.400 . S
C2488 C2491 1.386 . S
H2489 C2505 0.930 . S
H2490 C2506 0.931 . S
C2491 H2479 0.929 . S
C2491 C2485 1.390 . S
C2491 C2488 1.386 . S
C2492 C2487 1.490 . S
C2492 C2494 1.395 . S
C2492 C2495 1.403 . S
H2493 C2499 0.930 . S
C2494 H2480 0.930 . S
C2494 C2492 1.395 . S
C2494 C2497 1.403 . S
C2495 C2492 1.403 . S
C2495 C2496 1.524 . S
C2495 C2499 1.400 . S
C2496 H2481 0.960 . S
C2496 H2482 0.960 . S
C2496 H2483 0.960 . S
C2496 C2495 1.524 . S
C2497 C2494 1.403 . S
C2497 C2498 1.392 . S
C2497 C2501 1.495 . S
C2498 C2497 1.392 . S
C2498 C2499 1.385 . S
C2498 C2500 1.478 . S
C2499 H2493 0.930 . S
C2499 C2495 1.400 . S
C2499 C2498 1.385 . S
C2500 C2498 1.478 . S
C2500 C2502 1.381 . S
C2500 C2506 1.383 . S
C2501 C2497 1.495 . S
C2501 H2507 0.959 . S
C2501 H2508 0.961 . S
C2501 H2509 0.960 . S
C2502 C2500 1.381 . S
C2502 C2503 1.394 . S
C2502 H2510 0.930 . S
C2503 C2502 1.394 . S
C2503 C2504 1.383 . S
C2503 H2511 0.929 . S
C2504 C2503 1.383 . S
C2504 C2505 1.377 . S
C2505 H2489 0.930 . S
C2505 C2504 1.377 . S
C2505 C2506 1.379 . S
C2506 H2490 0.931 . S
C2506 C2500 1.383 . S
C2506 C2505 1.379 . S
H2507 C2501 0.959 . S
H2508 C2501 0.961 . S
H2509 C2501 0.960 . S
H2510 C2502 0.930 . S
H2511 C2503 0.929 . S
H2512 C2520 0.929 . S
H2513 C2522 0.930 . S
H2514 C2524 0.930 . S
H2515 C2527 0.929 . S
H2516 C2530 0.930 . S
H2517 C2532 0.960 . S
H2518 C2532 0.960 . S
H2519 C2532 0.960 . S
C2520 H2512 0.929 . S
C2520 C2521 1.377 . S
C2520 C2522 1.384 . S
C2521 C2520 1.377 . S
C2521 C2527 1.390 . S
C2522 H2513 0.930 . S
C2522 C2520 1.384 . S
C2522 C2523 1.372 . S
C2523 C2522 1.372 . S
C2523 C2524 1.400 . S
C2523 C2528 1.490 . S
C2524 H2514 0.930 . S
C2524 C2523 1.400 . S
C2524 C2527 1.386 . S
H2525 C2541 0.930 . S
H2526 C2542 0.931 . S
C2527 H2515 0.929 . S
C2527 C2521 1.390 . S
C2527 C2524 1.386 . S
C2528 C2523 1.490 . S
C2528 C2530 1.395 . S
C2528 C2531 1.403 . S
H2529 C2535 0.930 . S
C2530 H2516 0.930 . S
C2530 C2528 1.395 . S
C2530 C2533 1.403 . S
C2531 C2528 1.403 . S
C2531 C2532 1.524 . S
C2531 C2535 1.400 . S
C2532 H2517 0.960 . S
C2532 H2518 0.960 . S
C2532 H2519 0.960 . S
C2532 C2531 1.524 . S
C2533 C2530 1.403 . S
C2533 C2534 1.392 . S
C2533 C2537 1.495 . S
C2534 C2533 1.392 . S
C2534 C2535 1.385 . S
C2534 C2536 1.478 . S
C2535 H2529 0.930 . S
C2535 C2531 1.400 . S
C2535 C2534 1.385 . S
C2536 C2534 1.478 . S
C2536 C2538 1.381 . S
C2536 C2542 1.383 . S
C2537 C2533 1.495 . S
C2537 H2543 0.959 . S
C2537 H2544 0.961 . S
C2537 H2545 0.960 . S
C2538 C2536 1.381 . S
C2538 C2539 1.394 . S
C2538 H2546 0.930 . S
C2539 C2538 1.394 . S
C2539 C2540 1.383 . S
C2539 H2547 0.929 . S
C2540 C2539 1.383 . S
C2540 C2541 1.377 . S
C2541 H2525 0.930 . S
C2541 C2540 1.377 . S
C2541 C2542 1.379 . S
C2542 H2526 0.931 . S
C2542 C2536 1.383 . S
C2542 C2541 1.379 . S
H2543 C2537 0.959 . S
H2544 C2537 0.961 . S
H2545 C2537 0.960 . S
H2546 C2538 0.930 . S
H2547 C2539 0.929 . S
H2548 C2556 0.929 . S
H2549 C2558 0.930 . S
H2550 C2560 0.930 . S
H2551 C2563 0.929 . S
H2552 C2566 0.930 . S
H2553 C2568 0.960 . S
H2554 C2568 0.960 . S
H2555 C2568 0.960 . S
C2556 H2548 0.929 . S
C2556 C2557 1.377 . S
C2556 C2558 1.384 . S
C2557 C2556 1.377 . S
C2557 C2563 1.390 . S
C2558 H2549 0.930 . S
C2558 C2556 1.384 . S
C2558 C2559 1.372 . S
C2559 C2558 1.372 . S
C2559 C2560 1.400 . S
C2559 C2564 1.490 . S
C2560 H2550 0.930 . S
C2560 C2559 1.400 . S
C2560 C2563 1.386 . S
H2561 C2577 0.930 . S
H2562 C2578 0.931 . S
C2563 H2551 0.929 . S
C2563 C2557 1.390 . S
C2563 C2560 1.386 . S
C2564 C2559 1.490 . S
C2564 C2566 1.395 . S
C2564 C2567 1.403 . S
H2565 C2571 0.930 . S
C2566 H2552 0.930 . S
C2566 C2564 1.395 . S
C2566 C2569 1.403 . S
C2567 C2564 1.403 . S
C2567 C2568 1.524 . S
C2567 C2571 1.400 . S
C2568 H2553 0.960 . S
C2568 H2554 0.960 . S
C2568 H2555 0.960 . S
C2568 C2567 1.524 . S
C2569 C2566 1.403 . S
C2569 C2570 1.392 . S
C2569 C2573 1.495 . S
C2570 C2569 1.392 . S
C2570 C2571 1.385 . S
C2570 C2572 1.478 . S
C2571 H2565 0.930 . S
C2571 C2567 1.400 . S
C2571 C2570 1.385 . S
C2572 C2570 1.478 . S
C2572 C2574 1.381 . S
C2572 C2578 1.383 . S
C2573 C2569 1.495 . S
C2573 H2579 0.959 . S
C2573 H2580 0.961 . S
C2573 H2581 0.960 . S
C2574 C2572 1.381 . S
C2574 C2575 1.394 . S
C2574 H2582 0.930 . S
C2575 C2574 1.394 . S
C2575 C2576 1.383 . S
C2575 H2583 0.929 . S
C2576 C2575 1.383 . S
C2576 C2577 1.377 . S
C2577 H2561 0.930 . S
C2577 C2576 1.377 . S
C2577 C2578 1.379 . S
C2578 H2562 0.931 . S
C2578 C2572 1.383 . S
C2578 C2577 1.379 . S
H2579 C2573 0.959 . S
H2580 C2573 0.961 . S
H2581 C2573 0.960 . S
H2582 C2574 0.930 . S
H2583 C2575 0.929 . S
H2584 C2592 0.929 . S
H2585 C2594 0.930 . S
H2586 C2596 0.930 . S
H2587 C2599 0.929 . S
H2588 C2602 0.930 . S
H2589 C2604 0.960 . S
H2590 C2604 0.960 . S
H2591 C2604 0.960 . S
C2592 H2584 0.929 . S
C2592 C2593 1.377 . S
C2592 C2594 1.384 . S
C2593 C2592 1.377 . S
C2593 C2599 1.390 . S
C2594 H2585 0.930 . S
C2594 C2592 1.384 . S
C2594 C2595 1.372 . S
C2595 C2594 1.372 . S
C2595 C2596 1.400 . S
C2595 C2600 1.490 . S
C2596 H2586 0.930 . S
C2596 C2595 1.400 . S
C2596 C2599 1.386 . S
H2597 C2613 0.930 . S
H2598 C2614 0.931 . S
C2599 H2587 0.929 . S
C2599 C2593 1.390 . S
C2599 C2596 1.386 . S
C2600 C2595 1.490 . S
C2600 C2602 1.395 . S
C2600 C2603 1.403 . S
H2601 C2607 0.930 . S
C2602 H2588 0.930 . S
C2602 C2600 1.395 . S
C2602 C2605 1.403 . S
C2603 C2600 1.403 . S
C2603 C2604 1.524 . S
C2603 C2607 1.400 . S
C2604 H2589 0.960 . S
C2604 H2590 0.960 . S
C2604 H2591 0.960 . S
C2604 C2603 1.524 . S
C2605 C2602 1.403 . S
C2605 C2606 1.392 . S
C2605 C2609 1.495 . S
C2606 C2605 1.392 . S
C2606 C2607 1.385 . S
C2606 C2608 1.478 . S
C2607 H2601 0.930 . S
C2607 C2603 1.400 . S
C2607 C2606 1.385 . S
C2608 C2606 1.478 . S
C2608 C2610 1.381 . S
C2608 C2614 1.383 . S
C2609 C2605 1.495 . S
C2609 H2615 0.959 . S
C2609 H2616 0.961 . S
C2609 H2617 0.960 . S
C2610 C2608 1.381 . S
C2610 C2611 1.394 . S
C2610 H2618 0.930 . S
C2611 C2610 1.394 . S
C2611 C2612 1.383 . S
C2611 H2619 0.929 . S
C2612 C2611 1.383 . S
C2612 C2613 1.377 . S
C2613 H2597 0.930 . S
C2613 C2612 1.377 . S
C2613 C2614 1.379 . S
C2614 H2598 0.931 . S
C2614 C2608 1.383 . S
C2614 C2613 1.379 . S
H2615 C2609 0.959 . S
H2616 C2609 0.961 . S
H2617 C2609 0.960 . S
H2618 C2610 0.930 . S
H2619 C2611 0.929 . S
H2620 C2628 0.929 . S
H2621 C2630 0.930 . S
H2622 C2632 0.930 . S
H2623 C2635 0.929 . S
H2624 C2638 0.930 . S
H2625 C2640 0.960 . S
H2626 C2640 0.960 . S
H2627 C2640 0.960 . S
C2628 H2620 0.929 . S
C2628 C2629 1.377 . S
C2628 C2630 1.384 . S
C2629 C2628 1.377 . S
C2629 C2635 1.390 . S
C2630 H2621 0.930 . S
C2630 C2628 1.384 . S
C2630 C2631 1.372 . S
C2631 C2630 1.372 . S
C2631 C2632 1.400 . S
C2631 C2636 1.490 . S
C2632 H2622 0.930 . S
C2632 C2631 1.400 . S
C2632 C2635 1.386 . S
H2633 C2649 0.930 . S
H2634 C2650 0.931 . S
C2635 H2623 0.929 . S
C2635 C2629 1.390 . S
C2635 C2632 1.386 . S
C2636 C2631 1.490 . S
C2636 C2638 1.395 . S
C2636 C2639 1.403 . S
H2637 C2643 0.930 . S
C2638 H2624 0.930 . S
C2638 C2636 1.395 . S
C2638 C2641 1.403 . S
C2639 C2636 1.403 . S
C2639 C2640 1.524 . S
C2639 C2643 1.400 . S
C2640 H2625 0.960 . S
C2640 H2626 0.960 . S
C2640 H2627 0.960 . S
C2640 C2639 1.524 . S
C2641 C2638 1.403 . S
C2641 C2642 1.392 . S
C2641 C2645 1.495 . S
C2642 C2641 1.392 . S
C2642 C2643 1.385 . S
C2642 C2644 1.478 . S
C2643 H2637 0.930 . S
C2643 C2639 1.400 . S
C2643 C2642 1.385 . S
C2644 C2642 1.478 . S
C2644 C2646 1.381 . S
C2644 C2650 1.383 . S
C2645 C2641 1.495 . S
C2645 H2651 0.959 . S
C2645 H2652 0.961 . S
C2645 H2653 0.960 . S
C2646 C2644 1.381 . S
C2646 C2647 1.394 . S
C2646 H2654 0.930 . S
C2647 C2646 1.394 . S
C2647 C2648 1.383 . S
C2647 H2655 0.929 . S
C2648 C2647 1.383 . S
C2648 C2649 1.377 . S
C2649 H2633 0.930 . S
C2649 C2648 1.377 . S
C2649 C2650 1.379 . S
C2650 H2634 0.931 . S
C2650 C2644 1.383 . S
C2650 C2649 1.379 . S
H2651 C2645 0.959 . S
H2652 C2645 0.961 . S
H2653 C2645 0.960 . S
H2654 C2646 0.930 . S
H2655 C2647 0.929 . S
H2656 C2664 0.929 . S
H2657 C2666 0.930 . S
H2658 C2668 0.930 . S
H2659 C2671 0.929 . S
H2660 C2674 0.930 . S
H2661 C2676 0.960 . S
H2662 C2676 0.960 . S
H2663 C2676 0.960 . S
C2664 H2656 0.929 . S
C2664 C2665 1.377 . S
C2664 C2666 1.384 . S
C2665 C2664 1.377 . S
C2665 C2671 1.390 . S
C2666 H2657 0.930 . S
C2666 C2664 1.384 . S
C2666 C2667 1.372 . S
C2667 C2666 1.372 . S
C2667 C2668 1.400 . S
C2667 C2672 1.490 . S
C2668 H2658 0.930 . S
C2668 C2667 1.400 . S
C2668 C2671 1.386 . S
H2669 C2685 0.930 . S
H2670 C2686 0.931 . S
C2671 H2659 0.929 . S
C2671 C2665 1.390 . S
C2671 C2668 1.386 . S
C2672 C2667 1.490 . S
C2672 C2674 1.395 . S
C2672 C2675 1.403 . S
H2673 C2679 0.930 . S
C2674 H2660 0.930 . S
C2674 C2672 1.395 . S
C2674 C2677 1.403 . S
C2675 C2672 1.403 . S
C2675 C2676 1.524 . S
C2675 C2679 1.400 . S
C2676 H2661 0.960 . S
C2676 H2662 0.960 . S
C2676 H2663 0.960 . S
C2676 C2675 1.524 . S
C2677 C2674 1.403 . S
C2677 C2678 1.392 . S
C2677 C2681 1.495 . S
C2678 C2677 1.392 . S
C2678 C2679 1.385 . S
C2678 C2680 1.478 . S
C2679 H2673 0.930 . S
C2679 C2675 1.400 . S
C2679 C2678 1.385 . S
C2680 C2678 1.478 . S
C2680 C2682 1.381 . S
C2680 C2686 1.383 . S
C2681 C2677 1.495 . S
C2681 H2687 0.959 . S
C2681 H2688 0.961 . S
C2681 H2689 0.960 . S
C2682 C2680 1.381 . S
C2682 C2683 1.394 . S
C2682 H2690 0.930 . S
C2683 C2682 1.394 . S
C2683 C2684 1.383 . S
C2683 H2691 0.929 . S
C2684 C2683 1.383 . S
C2684 C2685 1.377 . S
C2685 H2669 0.930 . S
C2685 C2684 1.377 . S
C2685 C2686 1.379 . S
C2686 H2670 0.931 . S
C2686 C2680 1.383 . S
C2686 C2685 1.379 . S
H2687 C2681 0.959 . S
H2688 C2681 0.961 . S
H2689 C2681 0.960 . S
H2690 C2682 0.930 . S
H2691 C2683 0.929 . S
H2692 C2700 0.929 . S
H2693 C2702 0.930 . S
H2694 C2704 0.930 . S
H2695 C2707 0.929 . S
H2696 C2710 0.930 . S
H2697 C2712 0.960 . S
H2698 C2712 0.960 . S
H2699 C2712 0.960 . S
C2700 H2692 0.929 . S
C2700 C2701 1.377 . S
C2700 C2702 1.384 . S
C2701 C2700 1.377 . S
C2701 C2707 1.390 . S
C2702 H2693 0.930 . S
C2702 C2700 1.384 . S
C2702 C2703 1.372 . S
C2703 C2702 1.372 . S
C2703 C2704 1.400 . S
C2703 C2708 1.490 . S
C2704 H2694 0.930 . S
C2704 C2703 1.400 . S
C2704 C2707 1.386 . S
H2705 C2721 0.930 . S
H2706 C2722 0.931 . S
C2707 H2695 0.929 . S
C2707 C2701 1.390 . S
C2707 C2704 1.386 . S
C2708 C2703 1.490 . S
C2708 C2710 1.395 . S
C2708 C2711 1.403 . S
H2709 C2715 0.930 . S
C2710 H2696 0.930 . S
C2710 C2708 1.395 . S
C2710 C2713 1.403 . S
C2711 C2708 1.403 . S
C2711 C2712 1.524 . S
C2711 C2715 1.400 . S
C2712 H2697 0.960 . S
C2712 H2698 0.960 . S
C2712 H2699 0.960 . S
C2712 C2711 1.524 . S
C2713 C2710 1.403 . S
C2713 C2714 1.392 . S
C2713 C2717 1.495 . S
C2714 C2713 1.392 . S
C2714 C2715 1.385 . S
C2714 C2716 1.478 . S
C2715 H2709 0.930 . S
C2715 C2711 1.400 . S
C2715 C2714 1.385 . S
C2716 C2714 1.478 . S
C2716 C2718 1.381 . S
C2716 C2722 1.383 . S
C2717 C2713 1.495 . S
C2717 H2723 0.959 . S
C2717 H2724 0.961 . S
C2717 H2725 0.960 . S
C2718 C2716 1.381 . S
C2718 C2719 1.394 . S
C2718 H2726 0.930 . S
C2719 C2718 1.394 . S
C2719 C2720 1.383 . S
C2719 H2727 0.929 . S
C2720 C2719 1.383 . S
C2720 C2721 1.377 . S
C2721 H2705 0.930 . S
C2721 C2720 1.377 . S
C2721 C2722 1.379 . S
C2722 H2706 0.931 . S
C2722 C2716 1.383 . S
C2722 C2721 1.379 . S
H2723 C2717 0.959 . S
H2724 C2717 0.961 . S
H2725 C2717 0.960 . S
H2726 C2718 0.930 . S
H2727 C2719 0.929 . S
H2728 C2736 0.929 . S
H2729 C2738 0.930 . S
H2730 C2740 0.930 . S
H2731 C2743 0.929 . S
H2732 C2746 0.930 . S
H2733 C2748 0.960 . S
H2734 C2748 0.960 . S
H2735 C2748 0.960 . S
C2736 H2728 0.929 . S
C2736 C2737 1.377 . S
C2736 C2738 1.384 . S
C2737 C2736 1.377 . S
C2737 C2743 1.390 . S
C2738 H2729 0.930 . S
C2738 C2736 1.384 . S
C2738 C2739 1.372 . S
C2739 C2738 1.372 . S
C2739 C2740 1.400 . S
C2739 C2744 1.490 . S
C2740 H2730 0.930 . S
C2740 C2739 1.400 . S
C2740 C2743 1.386 . S
H2741 C2757 0.930 . S
H2742 C2758 0.931 . S
C2743 H2731 0.929 . S
C2743 C2737 1.390 . S
C2743 C2740 1.386 . S
C2744 C2739 1.490 . S
C2744 C2746 1.395 . S
C2744 C2747 1.403 . S
H2745 C2751 0.930 . S
C2746 H2732 0.930 . S
C2746 C2744 1.395 . S
C2746 C2749 1.403 . S
C2747 C2744 1.403 . S
C2747 C2748 1.524 . S
C2747 C2751 1.400 . S
C2748 H2733 0.960 . S
C2748 H2734 0.960 . S
C2748 H2735 0.960 . S
C2748 C2747 1.524 . S
C2749 C2746 1.403 . S
C2749 C2750 1.392 . S
C2749 C2753 1.495 . S
C2750 C2749 1.392 . S
C2750 C2751 1.385 . S
C2750 C2752 1.478 . S
C2751 H2745 0.930 . S
C2751 C2747 1.400 . S
C2751 C2750 1.385 . S
C2752 C2750 1.478 . S
C2752 C2754 1.381 . S
C2752 C2758 1.383 . S
C2753 C2749 1.495 . S
C2753 H2759 0.959 . S
C2753 H2760 0.961 . S
C2753 H2761 0.960 . S
C2754 C2752 1.381 . S
C2754 C2755 1.394 . S
C2754 H2762 0.930 . S
C2755 C2754 1.394 . S
C2755 C2756 1.383 . S
C2755 H2763 0.929 . S
C2756 C2755 1.383 . S
C2756 C2757 1.377 . S
C2757 H2741 0.930 . S
C2757 C2756 1.377 . S
C2757 C2758 1.379 . S
C2758 H2742 0.931 . S
C2758 C2752 1.383 . S
C2758 C2757 1.379 . S
H2759 C2753 0.959 . S
H2760 C2753 0.961 . S
H2761 C2753 0.960 . S
H2762 C2754 0.930 . S
H2763 C2755 0.929 . S
H2764 C2772 0.929 . S
H2765 C2774 0.930 . S
H2766 C2776 0.930 . S
H2767 C2779 0.929 . S
H2768 C2782 0.930 . S
H2769 C2784 0.960 . S
H2770 C2784 0.960 . S
H2771 C2784 0.960 . S
C2772 H2764 0.929 . S
C2772 C2773 1.377 . S
C2772 C2774 1.384 . S
C2773 C2772 1.377 . S
C2773 C2779 1.390 . S
C2774 H2765 0.930 . S
C2774 C2772 1.384 . S
C2774 C2775 1.372 . S
C2775 C2774 1.372 . S
C2775 C2776 1.400 . S
C2775 C2780 1.490 . S
C2776 H2766 0.930 . S
C2776 C2775 1.400 . S
C2776 C2779 1.386 . S
H2777 C2793 0.930 . S
H2778 C2794 0.931 . S
C2779 H2767 0.929 . S
C2779 C2773 1.390 . S
C2779 C2776 1.386 . S
C2780 C2775 1.490 . S
C2780 C2782 1.395 . S
C2780 C2783 1.403 . S
H2781 C2787 0.930 . S
C2782 H2768 0.930 . S
C2782 C2780 1.395 . S
C2782 C2785 1.403 . S
C2783 C2780 1.403 . S
C2783 C2784 1.524 . S
C2783 C2787 1.400 . S
C2784 H2769 0.960 . S
C2784 H2770 0.960 . S
C2784 H2771 0.960 . S
C2784 C2783 1.524 . S
C2785 C2782 1.403 . S
C2785 C2786 1.392 . S
C2785 C2789 1.495 . S
C2786 C2785 1.392 . S
C2786 C2787 1.385 . S
C2786 C2788 1.478 . S
C2787 H2781 0.930 . S
C2787 C2783 1.400 . S
C2787 C2786 1.385 . S
C2788 C2786 1.478 . S
C2788 C2790 1.381 . S
C2788 C2794 1.383 . S
C2789 C2785 1.495 . S
C2789 H2795 0.959 . S
C2789 H2796 0.961 . S
C2789 H2797 0.960 . S
C2790 C2788 1.381 . S
C2790 C2791 1.394 . S
C2790 H2798 0.930 . S
C2791 C2790 1.394 . S
C2791 C2792 1.383 . S
C2791 H2799 0.929 . S
C2792 C2791 1.383 . S
C2792 C2793 1.377 . S
C2793 H2777 0.930 . S
C2793 C2792 1.377 . S
C2793 C2794 1.379 . S
C2794 H2778 0.931 . S
C2794 C2788 1.383 . S
C2794 C2793 1.379 . S
H2795 C2789 0.959 . S
H2796 C2789 0.961 . S
H2797 C2789 0.960 . S
H2798 C2790 0.930 . S
H2799 C2791 0.929 . S
H2800 C2808 0.929 . S
H2801 C2810 0.930 . S
H2802 C2812 0.930 . S
H2803 C2815 0.929 . S
H2804 C2818 0.930 . S
H2805 C2820 0.960 . S
H2806 C2820 0.960 . S
H2807 C2820 0.960 . S
C2808 H2800 0.929 . S
C2808 C2809 1.377 . S
C2808 C2810 1.384 . S
C2809 C2808 1.377 . S
C2809 C2815 1.390 . S
C2810 H2801 0.930 . S
C2810 C2808 1.384 . S
C2810 C2811 1.372 . S
C2811 C2810 1.372 . S
C2811 C2812 1.400 . S
C2811 C2816 1.490 . S
C2812 H2802 0.930 . S
C2812 C2811 1.400 . S
C2812 C2815 1.386 . S
H2813 C2829 0.930 . S
H2814 C2830 0.931 . S
C2815 H2803 0.929 . S
C2815 C2809 1.390 . S
C2815 C2812 1.386 . S
C2816 C2811 1.490 . S
C2816 C2818 1.395 . S
C2816 C2819 1.403 . S
H2817 C2823 0.930 . S
C2818 H2804 0.930 . S
C2818 C2816 1.395 . S
C2818 C2821 1.403 . S
C2819 C2816 1.403 . S
C2819 C2820 1.524 . S
C2819 C2823 1.400 . S
C2820 H2805 0.960 . S
C2820 H2806 0.960 . S
C2820 H2807 0.960 . S
C2820 C2819 1.524 . S
C2821 C2818 1.403 . S
C2821 C2822 1.392 . S
C2821 C2825 1.495 . S
C2822 C2821 1.392 . S
C2822 C2823 1.385 . S
C2822 C2824 1.478 . S
C2823 H2817 0.930 . S
C2823 C2819 1.400 . S
C2823 C2822 1.385 . S
C2824 C2822 1.478 . S
C2824 C2826 1.381 . S
C2824 C2830 1.383 . S
C2825 C2821 1.495 . S
C2825 H2831 0.959 . S
C2825 H2832 0.961 . S
C2825 H2833 0.960 . S
C2826 C2824 1.381 . S
C2826 C2827 1.394 . S
C2826 H2834 0.930 . S
C2827 C2826 1.394 . S
C2827 C2828 1.383 . S
C2827 H2835 0.929 . S
C2828 C2827 1.383 . S
C2828 C2829 1.377 . S
C2829 H2813 0.930 . S
C2829 C2828 1.377 . S
C2829 C2830 1.379 . S
C2830 H2814 0.931 . S
C2830 C2824 1.383 . S
C2830 C2829 1.379 . S
H2831 C2825 0.959 . S
H2832 C2825 0.961 . S
H2833 C2825 0.960 . S
H2834 C2826 0.930 . S
H2835 C2827 0.929 . S
H2836 C2844 0.929 . S
H2837 C2846 0.930 . S
H2838 C2848 0.930 . S
H2839 C2851 0.929 . S
H2840 C2854 0.930 . S
H2841 C2856 0.960 . S
H2842 C2856 0.960 . S
H2843 C2856 0.960 . S
C2844 H2836 0.929 . S
C2844 C2845 1.377 . S
C2844 C2846 1.384 . S
C2845 C2844 1.377 . S
C2845 C2851 1.390 . S
C2846 H2837 0.930 . S
C2846 C2844 1.384 . S
C2846 C2847 1.372 . S
C2847 C2846 1.372 . S
C2847 C2848 1.400 . S
C2847 C2852 1.490 . S
C2848 H2838 0.930 . S
C2848 C2847 1.400 . S
C2848 C2851 1.386 . S
H2849 C2865 0.930 . S
H2850 C2866 0.931 . S
C2851 H2839 0.929 . S
C2851 C2845 1.390 . S
C2851 C2848 1.386 . S
C2852 C2847 1.490 . S
C2852 C2854 1.395 . S
C2852 C2855 1.403 . S
H2853 C2859 0.930 . S
C2854 H2840 0.930 . S
C2854 C2852 1.395 . S
C2854 C2857 1.403 . S
C2855 C2852 1.403 . S
C2855 C2856 1.524 . S
C2855 C2859 1.400 . S
C2856 H2841 0.960 . S
C2856 H2842 0.960 . S
C2856 H2843 0.960 . S
C2856 C2855 1.524 . S
C2857 C2854 1.403 . S
C2857 C2858 1.392 . S
C2857 C2861 1.495 . S
C2858 C2857 1.392 . S
C2858 C2859 1.385 . S
C2858 C2860 1.478 . S
C2859 H2853 0.930 . S
C2859 C2855 1.400 . S
C2859 C2858 1.385 . S
C2860 C2858 1.478 . S
C2860 C2862 1.381 . S
C2860 C2866 1.383 . S
C2861 C2857 1.495 . S
C2861 H2867 0.959 . S
C2861 H2868 0.961 . S
C2861 H2869 0.960 . S
C2862 C2860 1.381 . S
C2862 C2863 1.394 . S
C2862 H2870 0.930 . S
C2863 C2862 1.394 . S
C2863 C2864 1.383 . S
C2863 H2871 0.929 . S
C2864 C2863 1.383 . S
C2864 C2865 1.377 . S
C2865 H2849 0.930 . S
C2865 C2864 1.377 . S
C2865 C2866 1.379 . S
C2866 H2850 0.931 . S
C2866 C2860 1.383 . S
C2866 C2865 1.379 . S
H2867 C2861 0.959 . S
H2868 C2861 0.961 . S
H2869 C2861 0.960 . S
H2870 C2862 0.930 . S
H2871 C2863 0.929 . S
H2872 C2880 0.929 . S
H2873 C2882 0.930 . S
H2874 C2884 0.930 . S
H2875 C2887 0.929 . S
H2876 C2890 0.930 . S
H2877 C2892 0.960 . S
H2878 C2892 0.960 . S
H2879 C2892 0.960 . S
C2880 H2872 0.929 . S
C2880 C2881 1.377 . S
C2880 C2882 1.384 . S
C2881 C2880 1.377 . S
C2881 C2887 1.390 . S
C2882 H2873 0.930 . S
C2882 C2880 1.384 . S
C2882 C2883 1.372 . S
C2883 C2882 1.372 . S
C2883 C2884 1.400 . S
C2883 C2888 1.490 . S
C2884 H2874 0.930 . S
C2884 C2883 1.400 . S
C2884 C2887 1.386 . S
H2885 C2901 0.930 . S
H2886 C2902 0.931 . S
C2887 H2875 0.929 . S
C2887 C2881 1.390 . S
C2887 C2884 1.386 . S
C2888 C2883 1.490 . S
C2888 C2890 1.395 . S
C2888 C2891 1.403 . S
H2889 C2895 0.930 . S
C2890 H2876 0.930 . S
C2890 C2888 1.395 . S
C2890 C2893 1.403 . S
C2891 C2888 1.403 . S
C2891 C2892 1.524 . S
C2891 C2895 1.400 . S
C2892 H2877 0.960 . S
C2892 H2878 0.960 . S
C2892 H2879 0.960 . S
C2892 C2891 1.524 . S
C2893 C2890 1.403 . S
C2893 C2894 1.392 . S
C2893 C2897 1.495 . S
C2894 C2893 1.392 . S
C2894 C2895 1.385 . S
C2894 C2896 1.478 . S
C2895 H2889 0.930 . S
C2895 C2891 1.400 . S
C2895 C2894 1.385 . S
C2896 C2894 1.478 . S
C2896 C2898 1.381 . S
C2896 C2902 1.383 . S
C2897 C2893 1.495 . S
C2897 H2903 0.959 . S
C2897 H2904 0.961 . S
C2897 H2905 0.960 . S
C2898 C2896 1.381 . S
C2898 C2899 1.394 . S
C2898 H2906 0.930 . S
C2899 C2898 1.394 . S
C2899 C2900 1.383 . S
C2899 H2907 0.929 . S
C2900 C2899 1.383 . S
C2900 C2901 1.377 . S
C2901 H2885 0.930 . S
C2901 C2900 1.377 . S
C2901 C2902 1.379 . S
C2902 H2886 0.931 . S
C2902 C2896 1.383 . S
C2902 C2901 1.379 . S
H2903 C2897 0.959 . S
H2904 C2897 0.961 . S
H2905 C2897 0.960 . S
H2906 C2898 0.930 . S
H2907 C2899 0.929 . S
H2908 C2916 0.929 . S
H2909 C2918 0.930 . S
H2910 C2920 0.930 . S
H2911 C2923 0.929 . S
H2912 C2926 0.930 . S
H2913 C2928 0.960 . S
H2914 C2928 0.960 . S
H2915 C2928 0.960 . S
C2916 H2908 0.929 . S
C2916 C2917 1.377 . S
C2916 C2918 1.384 . S
C2917 C2916 1.377 . S
C2917 C2923 1.390 . S
C2918 H2909 0.930 . S
C2918 C2916 1.384 . S
C2918 C2919 1.372 . S
C2919 C2918 1.372 . S
C2919 C2920 1.400 . S
C2919 C2924 1.490 . S
C2920 H2910 0.930 . S
C2920 C2919 1.400 . S
C2920 C2923 1.386 . S
H2921 C2937 0.930 . S
H2922 C2938 0.931 . S
C2923 H2911 0.929 . S
C2923 C2917 1.390 . S
C2923 C2920 1.386 . S
C2924 C2919 1.490 . S
C2924 C2926 1.395 . S
C2924 C2927 1.403 . S
H2925 C2931 0.930 . S
C2926 H2912 0.930 . S
C2926 C2924 1.395 . S
C2926 C2929 1.403 . S
C2927 C2924 1.403 . S
C2927 C2928 1.524 . S
C2927 C2931 1.400 . S
C2928 H2913 0.960 . S
C2928 H2914 0.960 . S
C2928 H2915 0.960 . S
C2928 C2927 1.524 . S
C2929 C2926 1.403 . S
C2929 C2930 1.392 . S
C2929 C2933 1.495 . S
C2930 C2929 1.392 . S
C2930 C2931 1.385 . S
C2930 C2932 1.478 . S
C2931 H2925 0.930 . S
C2931 C2927 1.400 . S
C2931 C2930 1.385 . S
C2932 C2930 1.478 . S
C2932 C2934 1.381 . S
C2932 C2938 1.383 . S
C2933 C2929 1.495 . S
C2933 H2939 0.959 . S
C2933 H2940 0.961 . S
C2933 H2941 0.960 . S
C2934 C2932 1.381 . S
C2934 C2935 1.394 . S
C2934 H2942 0.930 . S
C2935 C2934 1.394 . S
C2935 C2936 1.383 . S
C2935 H2943 0.929 . S
C2936 C2935 1.383 . S
C2936 C2937 1.377 . S
C2937 H2921 0.930 . S
C2937 C2936 1.377 . S
C2937 C2938 1.379 . S
C2938 H2922 0.931 . S
C2938 C2932 1.383 . S
C2938 C2937 1.379 . S
H2939 C2933 0.959 . S
H2940 C2933 0.961 . S
H2941 C2933 0.960 . S
H2942 C2934 0.930 . S
H2943 C2935 0.929 . S
H2944 C2952 0.929 . S
H2945 C2954 0.930 . S
H2946 C2956 0.917 1_554 S
H2947 C2959 0.929 . S
H2948 C2962 0.930 . S
H2949 C2964 0.960 . S
H2950 C2964 0.960 . S
H2951 C2964 0.960 . S
C2952 H2944 0.929 . S
C2952 C2953 1.377 1_556 S
C2952 C2954 1.384 . S
C2953 C2952 1.377 1_554 S
C2953 C2959 1.390 1_565 S
C2954 H2945 0.930 . S
C2954 C2952 1.384 . S
C2954 C2955 1.372 . S
C2955 C2954 1.372 . S
C2955 C2956 1.439 1_565 S
C2955 C2960 1.490 . S
C2956 H2946 0.917 1_556 S
C2956 C2955 1.439 1_545 S
C2956 C2959 1.361 1_556 S
H2957 C2973 0.921 1_545 S
H2958 C2974 0.938 . S
C2959 H2947 0.929 . S
C2959 C2953 1.390 1_545 S
C2959 C2956 1.361 1_554 S
C2960 C2955 1.490 . S
C2960 C2962 1.395 . S
C2960 C2963 1.403 1_565 S
H2961 C2967 0.930 . S
C2962 H2948 0.930 . S
C2962 C2960 1.395 . S
C2962 C2965 1.403 . S
C2963 C2960 1.403 1_545 S
C2963 C2964 1.524 . S
C2963 C2967 1.400 . S
C2964 H2949 0.960 . S
C2964 H2950 0.960 . S
C2964 H2951 0.960 . S
C2964 C2963 1.524 . S
C2965 C2962 1.403 . S
C2965 C2966 1.392 . S
C2965 C2969 1.495 . S
C2966 C2965 1.392 . S
C2966 C2967 1.385 1_565 S
C2966 C2968 1.478 . S
C2967 H2961 0.930 . S
C2967 C2963 1.400 . S
C2967 C2966 1.385 1_545 S
C2968 C2966 1.478 . S
C2968 C2970 1.381 . S
C2968 C2974 1.383 . S
C2969 C2965 1.495 . S
C2969 H2975 0.959 . S
C2969 H2976 0.961 . S
C2969 H2977 0.960 . S
C2970 C2968 1.381 . S
C2970 C2971 1.394 . S
C2970 H2978 0.930 . S
C2971 C2970 1.394 . S
C2971 C2972 1.383 . S
C2971 H2979 0.929 . S
C2972 C2971 1.383 . S
C2972 C2973 1.385 . S
C2973 H2957 0.921 1_565 S
C2973 C2972 1.385 . S
C2973 C2974 1.385 . S
C2974 H2958 0.938 . S
C2974 C2968 1.383 . S
C2974 C2973 1.385 . S
H2975 C2969 0.959 . S
H2976 C2969 0.961 . S
H2977 C2969 0.960 . S
H2978 C2970 0.930 . S
H2979 C2971 0.929 . S
H2980 C2988 0.929 . S
H2981 C2990 0.930 . S
H2982 C2992 0.930 . S
H2983 C2995 0.929 . S
H2984 C2998 0.930 . S
H2985 C3000 0.960 . S
H2986 C3000 0.960 . S
H2987 C3000 0.960 . S
C2988 H2980 0.929 . S
C2988 C2989 1.377 . S
C2988 C2990 1.384 . S
C2989 C2988 1.377 . S
C2989 C2995 1.390 . S
C2990 H2981 0.930 . S
C2990 C2988 1.384 . S
C2990 C2991 1.372 . S
C2991 C2990 1.372 . S
C2991 C2992 1.400 . S
C2991 C2996 1.490 . S
C2992 H2982 0.930 . S
C2992 C2991 1.400 . S
C2992 C2995 1.386 . S
H2993 C3009 0.930 . S
H2994 C3010 0.931 . S
C2995 H2983 0.929 . S
C2995 C2989 1.390 . S
C2995 C2992 1.386 . S
C2996 C2991 1.490 . S
C2996 C2998 1.395 . S
C2996 C2999 1.403 . S
H2997 C3003 0.930 . S
C2998 H2984 0.930 . S
C2998 C2996 1.395 . S
C2998 C3001 1.403 . S
C2999 C2996 1.403 . S
C2999 C3000 1.524 . S
C2999 C3003 1.400 . S
C3000 H2985 0.960 . S
C3000 H2986 0.960 . S
C3000 H2987 0.960 . S
C3000 C2999 1.524 . S
C3001 C2998 1.403 . S
C3001 C3002 1.392 . S
C3001 C3005 1.495 . S
C3002 C3001 1.392 . S
C3002 C3003 1.385 . S
C3002 C3004 1.478 . S
C3003 H2997 0.930 . S
C3003 C2999 1.400 . S
C3003 C3002 1.385 . S
C3004 C3002 1.478 . S
C3004 C3006 1.381 1_556 S
C3004 C3010 1.383 1_455 S
C3005 C3001 1.495 . S
C3005 H3011 0.959 . S
C3005 H3012 0.961 . S
C3005 H3013 0.997 . S
C3006 C3004 1.381 1_554 S
C3006 C3007 1.394 1_455 S
C3006 H3014 0.930 . S
C3007 C3006 1.394 1_655 S
C3007 C3008 1.383 . S
C3007 H3015 0.929 . S
C3008 C3007 1.383 . S
C3008 C3009 1.377 1_554 S
C3009 H2993 0.930 . S
C3009 C3008 1.377 1_556 S
C3009 C3010 1.379 . S
C3010 H2994 0.931 . S
C3010 C3004 1.383 1_655 S
C3010 C3009 1.379 . S
H3011 C3005 0.959 . S
H3012 C3005 0.961 . S
H3013 C3005 0.997 . S
H3014 C3006 0.930 . S
H3015 C3007 0.929 . S
H3016 C3024 0.929 . S
H3017 C3026 0.930 . S
H3018 C3028 0.930 . S
H3019 C3031 0.929 . S
H3020 C3034 0.930 . S
H3021 C3036 0.960 . S
H3022 C3036 0.960 . S
H3023 C3036 0.960 . S
C3024 H3016 0.929 . S
C3024 C3025 1.377 . S
C3024 C3026 1.384 . S
C3025 C3024 1.377 . S
C3025 C3031 1.390 . S
C3026 H3017 0.930 . S
C3026 C3024 1.384 . S
C3026 C3027 1.372 . S
C3027 C3026 1.372 . S
C3027 C3028 1.400 . S
C3027 C3032 1.490 . S
C3028 H3018 0.930 . S
C3028 C3027 1.400 . S
C3028 C3031 1.386 . S
H3029 C3045 0.930 . S
H3030 C3046 0.931 . S
C3031 H3019 0.929 . S
C3031 C3025 1.390 . S
C3031 C3028 1.386 . S
C3032 C3027 1.490 . S
C3032 C3034 1.395 . S
C3032 C3035 1.403 . S
H3033 C3039 0.930 . S
C3034 H3020 0.930 . S
C3034 C3032 1.395 . S
C3034 C3037 1.403 . S
C3035 C3032 1.403 . S
C3035 C3036 1.524 . S
C3035 C3039 1.400 . S
C3036 H3021 0.960 . S
C3036 H3022 0.960 . S
C3036 H3023 0.960 . S
C3036 C3035 1.524 . S
C3037 C3034 1.403 . S
C3037 C3038 1.392 . S
C3037 C3041 1.495 . S
C3038 C3037 1.392 . S
C3038 C3039 1.385 . S
C3038 C3040 1.478 . S
C3039 H3033 0.930 . S
C3039 C3035 1.400 . S
C3039 C3038 1.385 . S
C3040 C3038 1.478 . S
C3040 C3042 1.381 . S
C3040 C3046 1.383 . S
C3041 C3037 1.495 . S
C3041 H3047 0.959 . S
C3041 H3048 0.961 . S
C3041 H3049 0.960 . S
C3042 C3040 1.381 . S
C3042 C3043 1.394 . S
C3042 H3050 0.930 . S
C3043 C3042 1.394 . S
C3043 C3044 1.383 . S
C3043 H3051 0.929 . S
C3044 C3043 1.383 . S
C3044 C3045 1.377 . S
C3045 H3029 0.930 . S
C3045 C3044 1.377 . S
C3045 C3046 1.379 . S
C3046 H3030 0.931 . S
C3046 C3040 1.383 . S
C3046 C3045 1.379 . S
H3047 C3041 0.959 . S
H3048 C3041 0.961 . S
H3049 C3041 0.960 . S
H3050 C3042 0.930 . S
H3051 C3043 0.929 . S
H3052 C3060 0.929 . S
H3053 C3062 0.930 . S
H3054 C3064 0.930 . S
H3055 C3067 0.929 . S
H3056 C3070 0.931 . S
H3057 C3072 0.960 . S
H3058 C3072 0.960 1_655 S
H3059 C3072 0.931 1_645 S
C3060 H3052 0.929 . S
C3060 C3061 1.377 . S
C3060 C3062 1.384 1_655 S
C3061 C3060 1.377 . S
C3061 C3067 1.390 1_565 S
C3062 H3053 0.930 . S
C3062 C3060 1.384 1_455 S
C3062 C3063 1.372 . S
C3063 C3062 1.372 . S
C3063 C3064 1.400 1_465 S
C3063 C3068 1.490 . S
C3064 H3054 0.930 . S
C3064 C3063 1.400 1_645 S
C3064 C3067 1.386 . S
H3065 C3081 0.930 . S
H3066 C3082 0.931 . S
C3067 H3055 0.929 . S
C3067 C3061 1.390 1_545 S
C3067 C3064 1.386 . S
C3068 C3063 1.490 . S
C3068 C3070 1.393 1_565 S
C3068 C3071 1.403 . S
H3069 C3075 0.930 . S
C3070 H3056 0.931 . S
C3070 C3068 1.393 1_545 S
C3070 C3073 1.403 . S
C3071 C3068 1.403 . S
C3071 C3072 1.524 . S
C3071 C3075 1.400 . S
C3072 H3057 0.960 . S
C3072 H3058 0.960 1_455 S
C3072 H3059 0.931 1_465 S
C3072 C3071 1.524 . S
C3073 C3070 1.403 . S
C3073 C3074 1.387 1_545 S
C3073 C3077 1.504 . S
C3074 C3073 1.387 1_565 S
C3074 C3075 1.385 . S
C3074 C3076 1.478 . S
C3075 H3069 0.930 . S
C3075 C3071 1.400 . S
C3075 C3074 1.385 . S
C3076 C3074 1.478 . S
C3076 C3078 1.381 . S
C3076 C3082 1.383 1_565 S
C3077 C3073 1.504 . S
C3077 H3083 0.959 . S
C3077 H3084 0.961 . S
C3077 H3085 0.960 1_545 S
C3078 C3076 1.381 . S
C3078 C3079 1.394 . S
C3078 H3086 0.930 . S
C3079 C3078 1.394 . S
C3079 C3080 1.383 . S
C3079 H3087 0.929 . S
C3080 C3079 1.383 . S
C3080 C3081 1.377 1_565 S
C3081 H3065 0.930 . S
C3081 C3080 1.377 1_545 S
C3081 C3082 1.379 . S
C3082 H3066 0.931 . S
C3082 C3076 1.383 1_545 S
C3082 C3081 1.379 . S
H3083 C3077 0.959 . S
H3084 C3077 0.961 . S
H3085 C3077 0.960 1_565 S
H3086 C3078 0.930 . S
H3087 C3079 0.929 . S
H3088 C3096 0.929 . S
H3089 C3098 0.930 . S
H3090 C3100 0.930 . S
H3091 C3103 0.929 . S
H3092 C3106 0.930 . S
H3093 C3108 0.960 . S
H3094 C3108 0.960 1_565 S
H3095 C3108 0.960 . S
C3096 H3088 0.929 . S
C3096 C3097 1.377 1_565 S
C3096 C3098 1.384 . S
C3097 C3096 1.377 1_545 S
C3097 C3103 1.390 . S
C3098 H3089 0.930 . S
C3098 C3096 1.384 . S
C3098 C3099 1.329 1_565 S
C3099 C3098 1.329 1_545 S
C3099 C3100 1.444 . S
C3099 C3104 1.490 . S
C3100 H3090 0.930 . S
C3100 C3099 1.444 . S
C3100 C3103 1.386 . S
H3101 C3117 0.948 . S
H3102 C3118 0.931 . S
C3103 H3091 0.929 . S
C3103 C3097 1.390 . S
C3103 C3100 1.386 . S
C3104 C3099 1.490 . S
C3104 C3106 1.389 1_545 S
C3104 C3107 1.409 . S
H3105 C3111 0.930 . S
C3106 H3092 0.930 . S
C3106 C3104 1.389 1_565 S
C3106 C3109 1.403 . S
C3107 C3104 1.409 . S
C3107 C3108 1.524 . S
C3107 C3111 1.400 . S
C3108 H3093 0.960 . S
C3108 H3094 0.960 1_545 S
C3108 H3095 0.960 . S
C3108 C3107 1.524 . S
C3109 C3106 1.403 . S
C3109 C3110 1.386 1_565 S
C3109 C3113 1.495 . S
C3110 C3109 1.386 1_545 S
C3110 C3111 1.392 . S
C3110 C3112 1.480 . S
C3111 H3105 0.930 . S
C3111 C3107 1.400 . S
C3111 C3110 1.392 . S
C3112 C3110 1.480 . S
C3112 C3114 1.381 1_545 S
C3112 C3118 1.383 . S
C3113 C3109 1.495 . S
C3113 H3119 0.959 . S
C3113 H3120 0.961 1_565 S
C3113 H3121 0.960 . S
C3114 C3112 1.381 1_565 S
C3114 C3115 1.394 . S
C3114 H3122 0.930 . S
C3115 C3114 1.394 . S
C3115 C3116 1.383 1_564 S
C3115 H3123 0.929 . S
C3116 C3115 1.383 1_546 S
C3116 C3117 1.384 . S
C3117 H3101 0.948 . S
C3117 C3116 1.384 . S
C3117 C3118 1.356 1_556 S
C3118 H3102 0.931 . S
C3118 C3112 1.383 . S
C3118 C3117 1.356 1_554 S
H3119 C3113 0.959 . S
H3120 C3113 0.961 1_545 S
H3121 C3113 0.960 . S
H3122 C3114 0.930 . S
H3123 C3115 0.929 . S
H3124 C3132 0.929 . S
H3125 C3134 0.930 . S
H3126 C3136 0.930 . S
H3127 C3139 0.929 . S
H3128 C3142 0.930 . S
H3129 C3144 0.960 . S
H3130 C3144 0.960 1_455 S
H3131 C3144 0.960 1_455 S
C3132 H3124 0.929 . S
C3132 C3133 1.377 . S
C3132 C3134 1.384 1_456 S
C3133 C3132 1.377 . S
C3133 C3139 1.390 1_556 S
C3134 H3125 0.930 . S
C3134 C3132 1.384 1_654 S
C3134 C3135 1.372 . S
C3135 C3134 1.372 . S
C3135 C3136 1.400 1_655 S
C3135 C3140 1.490 . S
C3136 H3126 0.930 . S
C3136 C3135 1.400 1_455 S
C3136 C3139 1.386 . S
H3137 C3153 0.930 . S
H3138 C3154 0.931 . S
C3139 H3127 0.929 . S
C3139 C3133 1.390 1_554 S
C3139 C3136 1.386 . S
C3140 C3135 1.490 . S
C3140 C3142 1.395 . S
C3140 C3143 1.403 . S
H3141 C3147 0.930 . S
C3142 H3128 0.930 . S
C3142 C3140 1.395 . S
C3142 C3145 1.403 . S
C3143 C3140 1.403 . S
C3143 C3144 1.524 . S
C3143 C3147 1.400 . S
C3144 H3129 0.960 . S
C3144 H3130 0.960 1_655 S
C3144 H3131 0.960 1_655 S
C3144 C3143 1.524 . S
C3145 C3142 1.403 . S
C3145 C3146 1.392 . S
C3145 C3149 1.495 . S
C3146 C3145 1.392 . S
C3146 C3147 1.385 . S
C3146 C3148 1.478 . S
C3147 H3141 0.930 . S
C3147 C3143 1.400 . S
C3147 C3146 1.385 . S
C3148 C3146 1.478 . S
C3148 C3150 1.381 . S
C3148 C3154 1.383 . S
C3149 C3145 1.495 . S
C3149 H3155 0.959 . S
C3149 H3156 0.961 . S
C3149 H3157 0.960 . S
C3150 C3148 1.381 . S
C3150 C3151 1.394 . S
C3150 H3158 0.930 . S
C3151 C3150 1.394 . S
C3151 C3152 1.383 . S
C3151 H3159 0.929 . S
C3152 C3151 1.383 . S
C3152 C3153 1.377 . S
C3153 H3137 0.930 . S
C3153 C3152 1.377 . S
C3153 C3154 1.379 . S
C3154 H3138 0.931 . S
C3154 C3148 1.383 . S
C3154 C3153 1.379 . S
H3155 C3149 0.959 . S
H3156 C3149 0.961 . S
H3157 C3149 0.960 . S
H3158 C3150 0.930 . S
H3159 C3151 0.929 . S
H3160 C3168 0.929 . S
H3161 C3170 0.930 . S
H3162 C3172 0.930 . S
H3163 C3175 0.929 . S
H3164 C3178 0.930 . S
H3165 C3180 0.960 . S
H3166 C3180 0.960 . S
H3167 C3180 0.960 . S
C3168 H3160 0.929 . S
C3168 C3169 1.377 . S
C3168 C3170 1.384 . S
C3169 C3168 1.377 . S
C3169 C3175 1.390 . S
C3170 H3161 0.930 . S
C3170 C3168 1.384 . S
C3170 C3171 1.372 . S
C3171 C3170 1.372 . S
C3171 C3172 1.400 . S
C3171 C3176 1.490 . S
C3172 H3162 0.930 . S
C3172 C3171 1.400 . S
C3172 C3175 1.386 . S
H3173 C3189 0.930 . S
H3174 C3190 0.931 . S
C3175 H3163 0.929 . S
C3175 C3169 1.390 . S
C3175 C3172 1.386 . S
C3176 C3171 1.490 . S
C3176 C3178 1.395 . S
C3176 C3179 1.403 . S
H3177 C3183 0.930 . S
C3178 H3164 0.930 . S
C3178 C3176 1.395 . S
C3178 C3181 1.403 . S
C3179 C3176 1.403 . S
C3179 C3180 1.524 . S
C3179 C3183 1.400 . S
C3180 H3165 0.960 . S
C3180 H3166 0.960 . S
C3180 H3167 0.960 . S
C3180 C3179 1.524 . S
C3181 C3178 1.403 . S
C3181 C3182 1.392 . S
C3181 C3185 1.495 . S
C3182 C3181 1.392 . S
C3182 C3183 1.385 . S
C3182 C3184 1.478 . S
C3183 H3177 0.930 . S
C3183 C3179 1.400 . S
C3183 C3182 1.385 . S
C3184 C3182 1.478 . S
C3184 C3186 1.381 . S
C3184 C3190 1.383 . S
C3185 C3181 1.495 . S
C3185 H3191 0.959 . S
C3185 H3192 0.961 . S
C3185 H3193 0.960 . S
C3186 C3184 1.381 . S
C3186 C3187 1.394 . S
C3186 H3194 0.930 . S
C3187 C3186 1.394 . S
C3187 C3188 1.383 . S
C3187 H3195 0.929 . S
C3188 C3187 1.383 . S
C3188 C3189 1.377 . S
C3189 H3173 0.930 . S
C3189 C3188 1.377 . S
C3189 C3190 1.379 . S
C3190 H3174 0.931 . S
C3190 C3184 1.383 . S
C3190 C3189 1.379 . S
H3191 C3185 0.959 . S
H3192 C3185 0.961 . S
H3193 C3185 0.960 . S
H3194 C3186 0.930 . S
H3195 C3187 0.929 . S
H3196 C3204 0.929 . S
H3197 C3206 0.930 . S
H3198 C3208 0.930 . S
H3199 C3211 0.929 . S
H3200 C3214 0.930 . S
H3201 C3216 0.960 . S
H3202 C3216 0.960 . S
H3203 C3216 0.960 . S
C3204 H3196 0.929 . S
C3204 C3205 1.377 1_565 S
C3204 C3206 1.384 . S
C3205 C3204 1.377 1_545 S
C3205 C3211 1.390 . S
C3206 H3197 0.930 . S
C3206 C3204 1.384 . S
C3206 C3207 1.372 1_565 S
C3207 C3206 1.372 1_545 S
C3207 C3208 1.400 . S
C3207 C3212 1.491 . S
C3208 H3198 0.930 . S
C3208 C3207 1.400 . S
C3208 C3211 1.386 . S
H3209 C3225 0.930 . S
H3210 C3226 0.931 . S
C3211 H3199 0.929 . S
C3211 C3205 1.390 . S
C3211 C3208 1.386 . S
C3212 C3207 1.491 . S
C3212 C3214 1.365 1_545 S
C3212 C3215 1.430 . S
H3213 C3219 0.930 . S
C3214 H3200 0.930 . S
C3214 C3212 1.365 1_565 S
C3214 C3217 1.403 . S
C3215 C3212 1.430 . S
C3215 C3216 1.524 . S
C3215 C3219 1.400 . S
C3216 H3201 0.960 . S
C3216 H3202 0.960 . S
C3216 H3203 0.960 . S
C3216 C3215 1.524 . S
C3217 C3214 1.403 . S
C3217 C3218 1.392 . S
C3217 C3221 1.495 . S
C3218 C3217 1.392 . S
C3218 C3219 1.385 1_565 S
C3218 C3220 1.478 . S
C3219 H3213 0.930 . S
C3219 C3215 1.400 . S
C3219 C3218 1.385 1_545 S
C3220 C3218 1.478 . S
C3220 C3222 1.381 . S
C3220 C3226 1.383 1_665 S
C3221 C3217 1.495 . S
C3221 H3227 0.959 . S
C3221 H3228 0.961 . S
C3221 H3229 0.960 . S
C3222 C3220 1.381 . S
C3222 C3223 1.394 1_655 S
C3222 H3230 0.930 . S
C3223 C3222 1.394 1_455 S
C3223 C3224 1.360 1_565 S
C3223 H3231 0.929 . S
C3224 C3223 1.360 1_545 S
C3224 C3225 1.398 . S
C3225 H3209 0.930 . S
C3225 C3224 1.398 . S
C3225 C3226 1.379 . S
C3226 H3210 0.931 . S
C3226 C3220 1.383 1_445 S
C3226 C3225 1.379 . S
H3227 C3221 0.959 . S
H3228 C3221 0.961 . S
H3229 C3221 0.960 . S
H3230 C3222 0.930 . S
H3231 C3223 0.929 . S
H3232 C3240 0.929 . S
H3233 C3242 0.930 . S
H3234 C3244 0.930 . S
H3235 C3247 0.929 . S
H3236 C3250 0.930 . S
H3237 C3252 0.960 . S
H3238 C3252 0.960 . S
H3239 C3252 0.960 . S
C3240 H3232 0.929 . S
C3240 C3241 1.377 . S
C3240 C3242 1.384 . S
C3241 C3240 1.377 . S
C3241 C3247 1.390 . S
C3242 H3233 0.930 . S
C3242 C3240 1.384 . S
C3242 C3243 1.372 . S
C3243 C3242 1.372 . S
C3243 C3244 1.400 . S
C3243 C3248 1.490 . S
C3244 H3234 0.930 . S
C3244 C3243 1.400 . S
C3244 C3247 1.386 . S
H3245 C3261 0.930 . S
H3246 C3262 0.931 . S
C3247 H3235 0.929 . S
C3247 C3241 1.390 . S
C3247 C3244 1.386 . S
C3248 C3243 1.490 . S
C3248 C3250 1.395 . S
C3248 C3251 1.403 . S
H3249 C3255 0.930 . S
C3250 H3236 0.930 . S
C3250 C3248 1.395 . S
C3250 C3253 1.403 . S
C3251 C3248 1.403 . S
C3251 C3252 1.524 . S
C3251 C3255 1.400 . S
C3252 H3237 0.960 . S
C3252 H3238 0.960 . S
C3252 H3239 0.960 . S
C3252 C3251 1.524 . S
C3253 C3250 1.403 . S
C3253 C3254 1.392 . S
C3253 C3257 1.495 . S
C3254 C3253 1.392 . S
C3254 C3255 1.385 . S
C3254 C3256 1.478 . S
C3255 H3249 0.930 . S
C3255 C3251 1.400 . S
C3255 C3254 1.385 . S
C3256 C3254 1.478 . S
C3256 C3258 1.381 . S
C3256 C3262 1.383 . S
C3257 C3253 1.495 . S
C3257 H3263 0.959 . S
C3257 H3264 0.961 . S
C3257 H3265 0.960 . S
C3258 C3256 1.381 . S
C3258 C3259 1.394 . S
C3258 H3266 0.930 . S
C3259 C3258 1.394 . S
C3259 C3260 1.383 . S
C3259 H3267 0.929 . S
C3260 C3259 1.383 . S
C3260 C3261 1.377 . S
C3261 H3245 0.930 . S
C3261 C3260 1.377 . S
C3261 C3262 1.379 . S
C3262 H3246 0.931 . S
C3262 C3256 1.383 . S
C3262 C3261 1.379 . S
H3263 C3257 0.959 . S
H3264 C3257 0.961 . S
H3265 C3257 0.960 . S
H3266 C3258 0.930 . S
H3267 C3259 0.929 . S
H3268 C3276 0.929 . S
H3269 C3278 0.930 . S
H3270 C3280 0.930 . S
H3271 C3283 0.929 . S
H3272 C3286 0.930 . S
H3273 C3288 0.960 . S
H3274 C3288 0.960 . S
H3275 C3288 0.960 . S
C3276 H3268 0.929 . S
C3276 C3277 1.377 . S
C3276 C3278 1.384 . S
C3277 C3276 1.377 . S
C3277 C3283 1.390 . S
C3278 H3269 0.930 . S
C3278 C3276 1.384 . S
C3278 C3279 1.372 . S
C3279 C3278 1.372 . S
C3279 C3280 1.400 . S
C3279 C3284 1.490 . S
C3280 H3270 0.930 . S
C3280 C3279 1.400 . S
C3280 C3283 1.386 . S
H3281 C3297 0.930 . S
H3282 C3298 0.931 . S
C3283 H3271 0.929 . S
C3283 C3277 1.390 . S
C3283 C3280 1.386 . S
C3284 C3279 1.490 . S
C3284 C3286 1.395 . S
C3284 C3287 1.403 . S
H3285 C3291 0.930 . S
C3286 H3272 0.930 . S
C3286 C3284 1.395 . S
C3286 C3289 1.403 . S
C3287 C3284 1.403 . S
C3287 C3288 1.524 . S
C3287 C3291 1.400 . S
C3288 H3273 0.960 . S
C3288 H3274 0.960 . S
C3288 H3275 0.960 . S
C3288 C3287 1.524 . S
C3289 C3286 1.403 . S
C3289 C3290 1.392 . S
C3289 C3293 1.495 . S
C3290 C3289 1.392 . S
C3290 C3291 1.385 . S
C3290 C3292 1.478 . S
C3291 H3285 0.930 . S
C3291 C3287 1.400 . S
C3291 C3290 1.385 . S
C3292 C3290 1.478 . S
C3292 C3294 1.381 1_455 S
C3292 C3298 1.383 . S
C3293 C3289 1.495 . S
C3293 H3299 0.959 . S
C3293 H3300 0.961 . S
C3293 H3301 0.960 1_455 S
C3294 C3292 1.381 1_655 S
C3294 C3295 1.394 . S
C3294 H3302 0.930 . S
C3295 C3294 1.394 . S
C3295 C3296 1.383 . S
C3295 H3303 0.929 . S
C3296 C3295 1.383 . S
C3296 C3297 1.377 . S
C3297 H3281 0.930 . S
C3297 C3296 1.377 . S
C3297 C3298 1.379 1_655 S
C3298 H3282 0.931 . S
C3298 C3292 1.383 . S
C3298 C3297 1.379 1_455 S
H3299 C3293 0.959 . S
H3300 C3293 0.961 . S
H3301 C3293 0.960 1_655 S
H3302 C3294 0.930 . S
H3303 C3295 0.929 . S
H3304 C3312 0.929 . S
H3305 C3314 0.930 . S
H3306 C3316 0.930 . S
H3307 C3319 0.929 . S
H3308 C3322 0.930 . S
H3309 C3324 0.960 . S
H3310 C3324 0.960 . S
H3311 C3324 0.960 . S
C3312 H3304 0.929 . S
C3312 C3313 1.377 . S
C3312 C3314 1.384 . S
C3313 C3312 1.377 . S
C3313 C3319 1.390 . S
C3314 H3305 0.930 . S
C3314 C3312 1.384 . S
C3314 C3315 1.372 . S
C3315 C3314 1.372 . S
C3315 C3316 1.400 . S
C3315 C3320 1.490 . S
C3316 H3306 0.930 . S
C3316 C3315 1.400 . S
C3316 C3319 1.386 . S
H3317 C3333 0.930 . S
H3318 C3334 0.931 . S
C3319 H3307 0.929 . S
C3319 C3313 1.390 . S
C3319 C3316 1.386 . S
C3320 C3315 1.490 . S
C3320 C3322 1.395 . S
C3320 C3323 1.403 . S
H3321 C3327 0.930 . S
C3322 H3308 0.930 . S
C3322 C3320 1.395 . S
C3322 C3325 1.403 . S
C3323 C3320 1.403 . S
C3323 C3324 1.524 . S
C3323 C3327 1.400 . S
C3324 H3309 0.960 . S
C3324 H3310 0.960 . S
C3324 H3311 0.960 . S
C3324 C3323 1.524 . S
C3325 C3322 1.403 . S
C3325 C3326 1.392 . S
C3325 C3329 1.495 . S
C3326 C3325 1.392 . S
C3326 C3327 1.385 . S
C3326 C3328 1.478 . S
C3327 H3321 0.930 . S
C3327 C3323 1.400 . S
C3327 C3326 1.385 . S
C3328 C3326 1.478 . S
C3328 C3330 1.381 . S
C3328 C3334 1.383 . S
C3329 C3325 1.495 . S
C3329 H3335 0.959 . S
C3329 H3336 0.961 . S
C3329 H3337 0.960 . S
C3330 C3328 1.381 . S
C3330 C3331 1.394 . S
C3330 H3338 0.930 . S
C3331 C3330 1.394 . S
C3331 C3332 1.383 . S
C3331 H3339 0.929 . S
C3332 C3331 1.383 . S
C3332 C3333 1.377 . S
C3333 H3317 0.930 . S
C3333 C3332 1.377 . S
C3333 C3334 1.379 . S
C3334 H3318 0.931 . S
C3334 C3328 1.383 . S
C3334 C3333 1.379 . S
H3335 C3329 0.959 . S
H3336 C3329 0.961 . S
H3337 C3329 0.960 . S
H3338 C3330 0.930 . S
H3339 C3331 0.929 . S
H3340 C3348 0.929 . S
H3341 C3350 0.930 . S
H3342 C3352 0.930 . S
H3343 C3355 0.929 . S
H3344 C3358 0.930 . S
H3345 C3360 0.960 . S
H3346 C3360 0.960 . S
H3347 C3360 0.960 . S
C3348 H3340 0.929 . S
C3348 C3349 1.377 . S
C3348 C3350 1.384 . S
C3349 C3348 1.377 . S
C3349 C3355 1.390 . S
C3350 H3341 0.930 . S
C3350 C3348 1.384 . S
C3350 C3351 1.372 . S
C3351 C3350 1.372 . S
C3351 C3352 1.400 . S
C3351 C3356 1.490 . S
C3352 H3342 0.930 . S
C3352 C3351 1.400 . S
C3352 C3355 1.386 . S
H3353 C3369 0.930 . S
H3354 C3370 0.931 . S
C3355 H3343 0.929 . S
C3355 C3349 1.390 . S
C3355 C3352 1.386 . S
C3356 C3351 1.490 . S
C3356 C3358 1.395 . S
C3356 C3359 1.403 . S
H3357 C3363 0.930 . S
C3358 H3344 0.930 . S
C3358 C3356 1.395 . S
C3358 C3361 1.403 . S
C3359 C3356 1.403 . S
C3359 C3360 1.524 . S
C3359 C3363 1.400 . S
C3360 H3345 0.960 . S
C3360 H3346 0.960 . S
C3360 H3347 0.960 . S
C3360 C3359 1.524 . S
C3361 C3358 1.403 . S
C3361 C3362 1.392 . S
C3361 C3365 1.495 . S
C3362 C3361 1.392 . S
C3362 C3363 1.385 . S
C3362 C3364 1.478 . S
C3363 H3357 0.930 . S
C3363 C3359 1.400 . S
C3363 C3362 1.385 . S
C3364 C3362 1.478 . S
C3364 C3366 1.373 1_455 S
C3364 C3370 1.383 1_455 S
C3365 C3361 1.495 . S
C3365 H3371 0.959 . S
C3365 H3372 0.961 1_455 S
C3365 H3373 0.960 . S
C3366 C3364 1.373 1_655 S
C3366 C3367 1.422 . S
C3366 H3374 0.911 1_655 S
C3367 C3366 1.422 . S
C3367 C3368 1.383 . S
C3367 H3375 0.929 . S
C3368 C3367 1.383 . S
C3368 C3369 1.377 . S
C3369 H3353 0.930 . S
C3369 C3368 1.377 . S
C3369 C3370 1.379 . S
C3370 H3354 0.931 . S
C3370 C3364 1.383 1_655 S
C3370 C3369 1.379 . S
H3371 C3365 0.959 . S
H3372 C3365 0.961 1_655 S
H3373 C3365 0.960 . S
H3374 C3366 0.911 1_455 S
H3375 C3367 0.929 . S
H3376 C3384 0.929 . S
H3377 C3386 0.930 . S
H3378 C3388 0.930 . S
H3379 C3391 0.929 . S
H3380 C3394 0.930 . S
H3381 C3396 0.960 . S
H3382 C3396 0.960 . S
H3383 C3396 0.960 . S
C3384 H3376 0.929 . S
C3384 C3385 1.377 . S
C3384 C3386 1.384 . S
C3385 C3384 1.377 . S
C3385 C3391 1.390 . S
C3386 H3377 0.930 . S
C3386 C3384 1.384 . S
C3386 C3387 1.372 . S
C3387 C3386 1.372 . S
C3387 C3388 1.400 . S
C3387 C3392 1.490 . S
C3388 H3378 0.930 . S
C3388 C3387 1.400 . S
C3388 C3391 1.386 . S
H3389 C3405 0.930 . S
H3390 C3406 0.931 . S
C3391 H3379 0.929 . S
C3391 C3385 1.390 . S
C3391 C3388 1.386 . S
C3392 C3387 1.490 . S
C3392 C3394 1.395 . S
C3392 C3395 1.403 . S
H3393 C3399 0.930 . S
C3394 H3380 0.930 . S
C3394 C3392 1.395 . S
C3394 C3397 1.403 . S
C3395 C3392 1.403 . S
C3395 C3396 1.524 . S
C3395 C3399 1.400 . S
C3396 H3381 0.960 . S
C3396 H3382 0.960 . S
C3396 H3383 0.960 . S
C3396 C3395 1.524 . S
C3397 C3394 1.403 . S
C3397 C3398 1.392 . S
C3397 C3401 1.495 . S
C3398 C3397 1.392 . S
C3398 C3399 1.385 . S
C3398 C3400 1.478 . S
C3399 H3393 0.930 . S
C3399 C3395 1.400 . S
C3399 C3398 1.385 . S
C3400 C3398 1.478 . S
C3400 C3402 1.381 . S
C3400 C3406 1.383 . S
C3401 C3397 1.495 . S
C3401 H3407 0.959 . S
C3401 H3408 0.961 . S
C3401 H3409 0.960 . S
C3402 C3400 1.381 . S
C3402 C3403 1.394 . S
C3402 H3410 0.930 . S
C3403 C3402 1.394 . S
C3403 C3404 1.383 . S
C3403 H3411 0.929 . S
C3404 C3403 1.383 . S
C3404 C3405 1.377 . S
C3405 H3389 0.930 . S
C3405 C3404 1.377 . S
C3405 C3406 1.379 . S
C3406 H3390 0.931 . S
C3406 C3400 1.383 . S
C3406 C3405 1.379 . S
H3407 C3401 0.959 . S
H3408 C3401 0.961 . S
H3409 C3401 0.960 . S
H3410 C3402 0.930 . S
H3411 C3403 0.929 . S
H3412 C3420 0.929 . S
H3413 C3422 0.930 . S
H3414 C3424 0.930 . S
H3415 C3427 0.929 . S
H3416 C3430 0.930 . S
H3417 C3432 0.960 . S
H3418 C3432 0.960 1_455 S
H3419 C3432 0.960 1_455 S
C3420 H3412 0.929 . S
C3420 C3421 1.377 . S
C3420 C3422 1.384 1_455 S
C3421 C3420 1.377 . S
C3421 C3427 1.390 . S
C3422 H3413 0.930 . S
C3422 C3420 1.384 1_655 S
C3422 C3423 1.372 . S
C3423 C3422 1.372 . S
C3423 C3424 1.400 1_655 S
C3423 C3428 1.490 . S
C3424 H3414 0.930 . S
C3424 C3423 1.400 1_455 S
C3424 C3427 1.386 . S
H3425 C3441 0.930 . S
H3426 C3442 0.931 . S
C3427 H3415 0.929 . S
C3427 C3421 1.390 . S
C3427 C3424 1.386 . S
C3428 C3423 1.490 . S
C3428 C3430 1.395 . S
C3428 C3431 1.403 . S
H3429 C3435 0.930 . S
C3430 H3416 0.930 . S
C3430 C3428 1.395 . S
C3430 C3433 1.403 . S
C3431 C3428 1.403 . S
C3431 C3432 1.524 . S
C3431 C3435 1.400 . S
C3432 H3417 0.960 . S
C3432 H3418 0.960 1_655 S
C3432 H3419 0.960 1_655 S
C3432 C3431 1.524 . S
C3433 C3430 1.403 . S
C3433 C3434 1.392 . S
C3433 C3437 1.495 . S
C3434 C3433 1.392 . S
C3434 C3435 1.385 . S
C3434 C3436 1.478 . S
C3435 H3429 0.930 . S
C3435 C3431 1.400 . S
C3435 C3434 1.385 . S
C3436 C3434 1.478 . S
C3436 C3438 1.381 . S
C3436 C3442 1.383 . S
C3437 C3433 1.495 . S
C3437 H3443 0.959 . S
C3437 H3444 0.961 . S
C3437 H3445 0.960 . S
C3438 C3436 1.381 . S
C3438 C3439 1.394 . S
C3438 H3446 0.930 . S
C3439 C3438 1.394 . S
C3439 C3440 1.383 . S
C3439 H3447 0.929 . S
C3440 C3439 1.383 . S
C3440 C3441 1.377 . S
C3441 H3425 0.930 . S
C3441 C3440 1.377 . S
C3441 C3442 1.379 . S
C3442 H3426 0.931 . S
C3442 C3436 1.383 . S
C3442 C3441 1.379 . S
H3443 C3437 0.959 . S
H3444 C3437 0.961 . S
H3445 C3437 0.960 . S
H3446 C3438 0.930 . S
H3447 C3439 0.929 . S
H3448 C3456 0.929 . S
H3449 C3458 0.930 . S
H3450 C3460 0.930 . S
H3451 C3463 0.929 . S
H3452 C3466 0.930 . S
H3453 C3468 0.960 . S
H3454 C3468 0.960 . S
H3455 C3468 0.960 . S
C3456 H3448 0.929 . S
C3456 C3457 1.377 . S
C3456 C3458 1.384 . S
C3457 C3456 1.377 . S
C3457 C3463 1.390 . S
C3458 H3449 0.930 . S
C3458 C3456 1.384 . S
C3458 C3459 1.372 . S
C3459 C3458 1.372 . S
C3459 C3460 1.400 . S
C3459 C3464 1.490 . S
C3460 H3450 0.930 . S
C3460 C3459 1.400 . S
C3460 C3463 1.386 . S
H3461 C3477 0.930 . S
H3462 C3478 0.931 . S
C3463 H3451 0.929 . S
C3463 C3457 1.390 . S
C3463 C3460 1.386 . S
C3464 C3459 1.490 . S
C3464 C3466 1.395 . S
C3464 C3467 1.403 . S
H3465 C3471 0.930 . S
C3466 H3452 0.930 . S
C3466 C3464 1.395 . S
C3466 C3469 1.403 . S
C3467 C3464 1.403 . S
C3467 C3468 1.524 . S
C3467 C3471 1.400 . S
C3468 H3453 0.960 . S
C3468 H3454 0.960 . S
C3468 H3455 0.960 . S
C3468 C3467 1.524 . S
C3469 C3466 1.403 . S
C3469 C3470 1.392 . S
C3469 C3473 1.495 . S
C3470 C3469 1.392 . S
C3470 C3471 1.385 . S
C3470 C3472 1.478 . S
C3471 H3465 0.930 . S
C3471 C3467 1.400 . S
C3471 C3470 1.385 . S
C3472 C3470 1.478 . S
C3472 C3474 1.381 . S
C3472 C3478 1.383 . S
C3473 C3469 1.495 . S
C3473 H3479 0.959 . S
C3473 H3480 0.961 . S
C3473 H3481 0.960 . S
C3474 C3472 1.381 . S
C3474 C3475 1.394 . S
C3474 H3482 0.930 . S
C3475 C3474 1.394 . S
C3475 C3476 1.383 . S
C3475 H3483 0.929 . S
C3476 C3475 1.383 . S
C3476 C3477 1.377 . S
C3477 H3461 0.930 . S
C3477 C3476 1.377 . S
C3477 C3478 1.379 . S
C3478 H3462 0.931 . S
C3478 C3472 1.383 . S
C3478 C3477 1.379 . S
H3479 C3473 0.959 . S
H3480 C3473 0.961 . S
H3481 C3473 0.960 . S
H3482 C3474 0.930 . S
H3483 C3475 0.929 . S
H3484 C3492 0.929 . S
H3485 C3494 0.930 . S
H3486 C3496 0.930 . S
H3487 C3499 0.929 . S
H3488 C3502 0.930 . S
H3489 C3504 0.960 . S
H3490 C3504 0.960 . S
H3491 C3504 0.960 . S
C3492 H3484 0.929 . S
C3492 C3493 1.377 . S
C3492 C3494 1.384 . S
C3493 C3492 1.377 . S
C3493 C3499 1.390 . S
C3494 H3485 0.930 . S
C3494 C3492 1.384 . S
C3494 C3495 1.372 . S
C3495 C3494 1.372 . S
C3495 C3496 1.400 . S
C3495 C3500 1.490 . S
C3496 H3486 0.930 . S
C3496 C3495 1.400 . S
C3496 C3499 1.386 . S
H3497 C3513 0.930 . S
H3498 C3514 0.932 1_655 S
C3499 H3487 0.929 . S
C3499 C3493 1.390 . S
C3499 C3496 1.386 . S
C3500 C3495 1.490 . S
C3500 C3502 1.395 . S
C3500 C3503 1.403 . S
H3501 C3507 0.930 . S
C3502 H3488 0.930 . S
C3502 C3500 1.395 . S
C3502 C3505 1.403 . S
C3503 C3500 1.403 . S
C3503 C3504 1.524 . S
C3503 C3507 1.400 . S
C3504 H3489 0.960 . S
C3504 H3490 0.960 . S
C3504 H3491 0.960 . S
C3504 C3503 1.524 . S
C3505 C3502 1.403 . S
C3505 C3506 1.392 . S
C3505 C3509 1.499 1_655 S
C3506 C3505 1.392 . S
C3506 C3507 1.385 . S
C3506 C3508 1.478 . S
C3507 H3501 0.930 . S
C3507 C3503 1.400 . S
C3507 C3506 1.385 . S
C3508 C3506 1.478 . S
C3508 C3510 1.381 1_655 S
C3508 C3514 1.383 1_655 S
C3509 C3505 1.499 1_455 S
C3509 H3515 0.960 1_455 S
C3509 H3516 0.959 . S
C3509 H3517 0.957 . S
C3510 C3508 1.381 1_455 S
C3510 C3511 1.394 . S
C3510 H3518 0.930 . S
C3511 C3510 1.394 . S
C3511 C3512 1.383 . S
C3511 H3519 0.929 . S
C3512 C3511 1.383 . S
C3512 C3513 1.377 . S
C3513 H3497 0.930 . S
C3513 C3512 1.377 . S
C3513 C3514 1.378 . S
C3514 H3498 0.932 1_455 S
C3514 C3508 1.383 1_455 S
C3514 C3513 1.378 . S
H3515 C3509 0.960 1_655 S
H3516 C3509 0.959 . S
H3517 C3509 0.957 . S
H3518 C3510 0.930 . S
H3519 C3511 0.929 . S
H3520 C3528 0.929 . S
H3521 C3530 0.930 . S
H3522 C3532 0.930 . S
H3523 C3535 0.929 . S
H3524 C3538 0.930 . S
H3525 C3540 0.960 . S
H3526 C3540 0.960 . S
H3527 C3540 0.914 1_545 S
C3528 H3520 0.929 . S
C3528 C3529 1.377 . S
C3528 C3530 1.384 . S
C3529 C3528 1.377 . S
C3529 C3535 1.390 1_565 S
C3530 H3521 0.930 . S
C3530 C3528 1.384 . S
C3530 C3531 1.372 . S
C3531 C3530 1.372 . S
C3531 C3532 1.400 1_565 S
C3531 C3536 1.490 . S
C3532 H3522 0.930 . S
C3532 C3531 1.400 1_545 S
C3532 C3535 1.386 . S
H3533 C3549 0.930 . S
H3534 C3550 0.931 . S
C3535 H3523 0.929 . S
C3535 C3529 1.390 1_545 S
C3535 C3532 1.386 . S
C3536 C3531 1.490 . S
C3536 C3538 1.395 1_565 S
C3536 C3539 1.403 . S
H3537 C3543 0.930 . S
C3538 H3524 0.930 . S
C3538 C3536 1.395 1_545 S
C3538 C3541 1.403 . S
C3539 C3536 1.403 . S
C3539 C3540 1.524 . S
C3539 C3543 1.400 . S
C3540 H3525 0.960 . S
C3540 H3526 0.960 . S
C3540 H3527 0.914 1_565 S
C3540 C3539 1.524 . S
C3541 C3538 1.403 . S
C3541 C3542 1.389 1_545 S
C3541 C3545 1.501 . S
C3542 C3541 1.389 1_565 S
C3542 C3543 1.385 . S
C3542 C3544 1.478 . S
C3543 H3537 0.930 . S
C3543 C3539 1.400 . S
C3543 C3542 1.385 . S
C3544 C3542 1.478 . S
C3544 C3546 1.381 . S
C3544 C3550 1.383 1_565 S
C3545 C3541 1.501 . S
C3545 H3551 0.959 . S
C3545 H3552 0.961 . S
C3545 H3553 0.960 1_545 S
C3546 C3544 1.381 . S
C3546 C3547 1.394 . S
C3546 H3554 0.930 . S
C3547 C3546 1.394 . S
C3547 C3548 1.383 . S
C3547 H3555 0.929 . S
C3548 C3547 1.383 . S
C3548 C3549 1.377 1_565 S
C3549 H3533 0.930 . S
C3549 C3548 1.377 1_545 S
C3549 C3550 1.379 . S
C3550 H3534 0.931 . S
C3550 C3544 1.383 1_545 S
C3550 C3549 1.379 . S
H3551 C3545 0.959 . S
H3552 C3545 0.961 . S
H3553 C3545 0.960 1_565 S
H3554 C3546 0.930 . S
H3555 C3547 0.929 . S
H3556 C3564 0.929 . S
H3557 C3566 0.930 . S
H3558 C3568 0.930 . S
H3559 C3571 0.929 . S
H3560 C3574 0.930 . S
H3561 C3576 0.960 . S
H3562 C3576 0.960 . S
H3563 C3576 0.960 . S
C3564 H3556 0.929 . S
C3564 C3565 1.377 . S
C3564 C3566 1.384 . S
C3565 C3564 1.377 . S
C3565 C3571 1.390 . S
C3566 H3557 0.930 . S
C3566 C3564 1.384 . S
C3566 C3567 1.372 . S
C3567 C3566 1.372 . S
C3567 C3568 1.400 . S
C3567 C3572 1.490 . S
C3568 H3558 0.930 . S
C3568 C3567 1.400 . S
C3568 C3571 1.386 . S
H3569 C3585 0.930 . S
H3570 C3586 0.931 . S
C3571 H3559 0.929 . S
C3571 C3565 1.390 . S
C3571 C3568 1.386 . S
C3572 C3567 1.490 . S
C3572 C3574 1.395 . S
C3572 C3575 1.403 . S
H3573 C3579 0.930 . S
C3574 H3560 0.930 . S
C3574 C3572 1.395 . S
C3574 C3577 1.403 . S
C3575 C3572 1.403 . S
C3575 C3576 1.524 . S
C3575 C3579 1.400 . S
C3576 H3561 0.960 . S
C3576 H3562 0.960 . S
C3576 H3563 0.960 . S
C3576 C3575 1.524 . S
C3577 C3574 1.403 . S
C3577 C3578 1.392 . S
C3577 C3581 1.495 . S
C3578 C3577 1.392 . S
C3578 C3579 1.385 . S
C3578 C3580 1.478 . S
C3579 H3573 0.930 . S
C3579 C3575 1.400 . S
C3579 C3578 1.385 . S
C3580 C3578 1.478 . S
C3580 C3582 1.381 . S
C3580 C3586 1.383 . S
C3581 C3577 1.495 . S
C3581 H3587 0.959 . S
C3581 H3588 0.961 . S
C3581 H3589 0.960 . S
C3582 C3580 1.381 . S
C3582 C3583 1.394 . S
C3582 H3590 0.930 . S
C3583 C3582 1.394 . S
C3583 C3584 1.383 . S
C3583 H3591 0.929 . S
C3584 C3583 1.383 . S
C3584 C3585 1.377 . S
C3585 H3569 0.930 . S
C3585 C3584 1.377 . S
C3585 C3586 1.379 . S
C3586 H3570 0.931 . S
C3586 C3580 1.383 . S
C3586 C3585 1.379 . S
H3587 C3581 0.959 . S
H3588 C3581 0.961 . S
H3589 C3581 0.960 . S
H3590 C3582 0.930 . S
H3591 C3583 0.929 . S
H3592 C3600 0.929 . S
H3593 C3602 0.930 . S
H3594 C3604 0.930 . S
H3595 C3607 0.929 . S
H3596 C3610 0.930 . S
H3597 C3612 0.960 . S
H3598 C3612 0.960 . S
H3599 C3612 0.960 . S
C3600 H3592 0.929 . S
C3600 C3601 1.377 . S
C3600 C3602 1.384 . S
C3601 C3600 1.377 . S
C3601 C3607 1.390 . S
C3602 H3593 0.930 . S
C3602 C3600 1.384 . S
C3602 C3603 1.372 . S
C3603 C3602 1.372 . S
C3603 C3604 1.400 . S
C3603 C3608 1.490 . S
C3604 H3594 0.930 . S
C3604 C3603 1.400 . S
C3604 C3607 1.386 . S
H3605 C3621 0.930 . S
H3606 C3622 0.931 . S
C3607 H3595 0.929 . S
C3607 C3601 1.390 . S
C3607 C3604 1.386 . S
C3608 C3603 1.490 . S
C3608 C3610 1.395 . S
C3608 C3611 1.403 . S
H3609 C3615 0.930 . S
C3610 H3596 0.930 . S
C3610 C3608 1.395 . S
C3610 C3613 1.403 . S
C3611 C3608 1.403 . S
C3611 C3612 1.524 . S
C3611 C3615 1.400 . S
C3612 H3597 0.960 . S
C3612 H3598 0.960 . S
C3612 H3599 0.960 . S
C3612 C3611 1.524 . S
C3613 C3610 1.403 . S
C3613 C3614 1.392 . S
C3613 C3617 1.495 . S
C3614 C3613 1.392 . S
C3614 C3615 1.385 . S
C3614 C3616 1.478 . S
C3615 H3609 0.930 . S
C3615 C3611 1.400 . S
C3615 C3614 1.385 . S
C3616 C3614 1.478 . S
C3616 C3618 1.381 . S
C3616 C3622 1.383 . S
C3617 C3613 1.495 . S
C3617 H3623 0.959 . S
C3617 H3624 0.961 . S
C3617 H3625 0.960 . S
C3618 C3616 1.381 . S
C3618 C3619 1.394 . S
C3618 H3626 0.930 . S
C3619 C3618 1.394 . S
C3619 C3620 1.383 . S
C3619 H3627 0.929 . S
C3620 C3619 1.383 . S
C3620 C3621 1.377 . S
C3621 H3605 0.930 . S
C3621 C3620 1.377 . S
C3621 C3622 1.379 . S
C3622 H3606 0.931 . S
C3622 C3616 1.383 . S
C3622 C3621 1.379 . S
H3623 C3617 0.959 . S
H3624 C3617 0.961 . S
H3625 C3617 0.960 . S
H3626 C3618 0.930 . S
H3627 C3619 0.929 . S
H3628 C3636 0.929 . S
H3629 C3638 0.930 . S
H3630 C3640 0.930 . S
H3631 C3643 0.929 . S
H3632 C3646 0.930 . S
H3633 C3648 0.960 . S
H3634 C3648 0.960 . S
H3635 C3648 0.960 . S
C3636 H3628 0.929 . S
C3636 C3637 1.377 . S
C3636 C3638 1.384 . S
C3637 C3636 1.377 . S
C3637 C3643 1.390 1_565 S
C3638 H3629 0.930 . S
C3638 C3636 1.384 . S
C3638 C3639 1.372 . S
C3639 C3638 1.372 . S
C3639 C3640 1.400 1_565 S
C3639 C3644 1.490 . S
C3640 H3630 0.930 . S
C3640 C3639 1.400 1_545 S
C3640 C3643 1.386 . S
H3641 C3657 0.930 . S
H3642 C3658 0.931 . S
C3643 H3631 0.929 . S
C3643 C3637 1.390 1_545 S
C3643 C3640 1.386 . S
C3644 C3639 1.490 . S
C3644 C3646 1.395 1_565 S
C3644 C3647 1.403 . S
H3645 C3651 0.930 . S
C3646 H3632 0.930 . S
C3646 C3644 1.395 1_545 S
C3646 C3649 1.403 . S
C3647 C3644 1.403 . S
C3647 C3648 1.524 . S
C3647 C3651 1.400 . S
C3648 H3633 0.960 . S
C3648 H3634 0.960 . S
C3648 H3635 0.960 . S
C3648 C3647 1.524 . S
C3649 C3646 1.403 . S
C3649 C3650 1.379 1_545 S
C3649 C3653 1.495 . S
C3650 C3649 1.379 1_565 S
C3650 C3651 1.402 . S
C3650 C3652 1.477 . S
C3651 H3645 0.930 . S
C3651 C3647 1.400 . S
C3651 C3650 1.402 . S
C3652 C3650 1.477 . S
C3652 C3654 1.387 . S
C3652 C3658 1.377 1_565 S
C3653 C3649 1.495 . S
C3653 H3659 0.959 . S
C3653 H3660 0.961 . S
C3653 H3661 0.960 . S
C3654 C3652 1.387 . S
C3654 C3655 1.394 . S
C3654 H3662 0.930 . S
C3655 C3654 1.394 . S
C3655 C3656 1.423 . S
C3655 H3663 0.929 . S
C3656 C3655 1.423 . S
C3656 C3657 1.338 1_565 S
C3657 H3641 0.930 . S
C3657 C3656 1.338 1_545 S
C3657 C3658 1.379 . S
C3658 H3642 0.931 . S
C3658 C3652 1.377 1_545 S
C3658 C3657 1.379 . S
H3659 C3653 0.959 . S
H3660 C3653 0.961 . S
H3661 C3653 0.960 . S
H3662 C3654 0.930 . S
H3663 C3655 0.929 . S
H3664 C3672 0.929 . S
H3665 C3674 0.930 . S
H3666 C3676 0.930 . S
H3667 C3679 0.929 . S
H3668 C3682 0.930 . S
H3669 C3684 0.960 . S
H3670 C3684 0.960 . S
H3671 C3684 0.960 . S
C3672 H3664 0.929 . S
C3672 C3673 1.377 . S
C3672 C3674 1.384 . S
C3673 C3672 1.377 . S
C3673 C3679 1.390 1_545 S
C3674 H3665 0.930 . S
C3674 C3672 1.384 . S
C3674 C3675 1.372 . S
C3675 C3674 1.372 . S
C3675 C3676 1.400 1_545 S
C3675 C3680 1.490 . S
C3676 H3666 0.930 . S
C3676 C3675 1.400 1_565 S
C3676 C3679 1.386 . S
H3677 C3693 0.930 1_565 S
H3678 C3694 0.931 . S
C3679 H3667 0.929 . S
C3679 C3673 1.390 1_565 S
C3679 C3676 1.386 . S
C3680 C3675 1.490 . S
C3680 C3682 1.395 . S
C3680 C3683 1.403 1_545 S
H3681 C3687 0.930 . S
C3682 H3668 0.930 . S
C3682 C3680 1.395 . S
C3682 C3685 1.403 . S
C3683 C3680 1.403 1_565 S
C3683 C3684 1.524 . S
C3683 C3687 1.400 . S
C3684 H3669 0.960 . S
C3684 H3670 0.960 . S
C3684 H3671 0.960 . S
C3684 C3683 1.524 . S
C3685 C3682 1.403 . S
C3685 C3686 1.392 . S
C3685 C3689 1.495 . S
C3686 C3685 1.392 . S
C3686 C3687 1.385 1_545 S
C3686 C3688 1.478 . S
C3687 H3681 0.930 . S
C3687 C3683 1.400 . S
C3687 C3686 1.385 1_565 S
C3688 C3686 1.478 . S
C3688 C3690 1.381 . S
C3688 C3694 1.383 . S
C3689 C3685 1.495 . S
C3689 H3695 0.959 . S
C3689 H3696 0.961 . S
C3689 H3697 0.960 . S
C3690 C3688 1.381 . S
C3690 C3691 1.394 . S
C3690 H3698 0.930 . S
C3691 C3690 1.394 . S
C3691 C3692 1.383 . S
C3691 H3699 0.929 . S
C3692 C3691 1.383 . S
C3692 C3693 1.377 . S
C3693 H3677 0.930 1_545 S
C3693 C3692 1.377 . S
C3693 C3694 1.379 . S
C3694 H3678 0.931 . S
C3694 C3688 1.383 . S
C3694 C3693 1.379 . S
H3695 C3689 0.959 . S
H3696 C3689 0.961 . S
H3697 C3689 0.960 . S
H3698 C3690 0.930 . S
H3699 C3691 0.929 . S
H3700 C3708 0.929 . S
H3701 C3710 0.930 . S
H3702 C3712 0.930 . S
H3703 C3715 0.929 . S
H3704 C3718 0.930 . S
H3705 C3720 0.960 . S
H3706 C3720 0.960 . S
H3707 C3720 0.960 . S
C3708 H3700 0.929 . S
C3708 C3709 1.377 . S
C3708 C3710 1.384 . S
C3709 C3708 1.377 . S
C3709 C3715 1.390 . S
C3710 H3701 0.930 . S
C3710 C3708 1.384 . S
C3710 C3711 1.372 . S
C3711 C3710 1.372 . S
C3711 C3712 1.400 . S
C3711 C3716 1.490 . S
C3712 H3702 0.930 . S
C3712 C3711 1.400 . S
C3712 C3715 1.386 . S
H3713 C3729 0.930 . S
H3714 C3730 0.931 . S
C3715 H3703 0.929 . S
C3715 C3709 1.390 . S
C3715 C3712 1.386 . S
C3716 C3711 1.490 . S
C3716 C3718 1.395 . S
C3716 C3719 1.403 . S
H3717 C3723 0.930 . S
C3718 H3704 0.930 . S
C3718 C3716 1.395 . S
C3718 C3721 1.403 . S
C3719 C3716 1.403 . S
C3719 C3720 1.524 . S
C3719 C3723 1.400 . S
C3720 H3705 0.960 . S
C3720 H3706 0.960 . S
C3720 H3707 0.960 . S
C3720 C3719 1.524 . S
C3721 C3718 1.403 . S
C3721 C3722 1.392 . S
C3721 C3725 1.495 . S
C3722 C3721 1.392 . S
C3722 C3723 1.385 . S
C3722 C3724 1.478 . S
C3723 H3717 0.930 . S
C3723 C3719 1.400 . S
C3723 C3722 1.385 . S
C3724 C3722 1.478 . S
C3724 C3726 1.381 . S
C3724 C3730 1.383 . S
C3725 C3721 1.495 . S
C3725 H3731 0.959 . S
C3725 H3732 0.961 . S
C3725 H3733 0.960 . S
C3726 C3724 1.381 . S
C3726 C3727 1.394 . S
C3726 H3734 0.930 . S
C3727 C3726 1.394 . S
C3727 C3728 1.383 . S
C3727 H3735 0.929 . S
C3728 C3727 1.383 . S
C3728 C3729 1.377 . S
C3729 H3713 0.930 . S
C3729 C3728 1.377 . S
C3729 C3730 1.379 . S
C3730 H3714 0.931 . S
C3730 C3724 1.383 . S
C3730 C3729 1.379 . S
H3731 C3725 0.959 . S
H3732 C3725 0.961 . S
H3733 C3725 0.960 . S
H3734 C3726 0.930 . S
H3735 C3727 0.929 . S
H3736 C3744 0.929 . S
H3737 C3746 0.930 . S
H3738 C3748 0.930 . S
H3739 C3751 0.929 . S
H3740 C3754 0.930 . S
H3741 C3756 0.960 . S
H3742 C3756 0.960 . S
H3743 C3756 0.960 . S
C3744 H3736 0.929 . S
C3744 C3745 1.377 . S
C3744 C3746 1.384 . S
C3745 C3744 1.377 . S
C3745 C3751 1.390 . S
C3746 H3737 0.930 . S
C3746 C3744 1.384 . S
C3746 C3747 1.372 . S
C3747 C3746 1.372 . S
C3747 C3748 1.400 . S
C3747 C3752 1.490 . S
C3748 H3738 0.930 . S
C3748 C3747 1.400 . S
C3748 C3751 1.386 . S
H3749 C3765 0.930 . S
H3750 C3766 0.931 . S
C3751 H3739 0.929 . S
C3751 C3745 1.390 . S
C3751 C3748 1.386 . S
C3752 C3747 1.490 . S
C3752 C3754 1.395 . S
C3752 C3755 1.403 . S
H3753 C3759 0.930 . S
C3754 H3740 0.930 . S
C3754 C3752 1.395 . S
C3754 C3757 1.403 . S
C3755 C3752 1.403 . S
C3755 C3756 1.524 . S
C3755 C3759 1.400 . S
C3756 H3741 0.960 . S
C3756 H3742 0.960 . S
C3756 H3743 0.960 . S
C3756 C3755 1.524 . S
C3757 C3754 1.403 . S
C3757 C3758 1.392 . S
C3757 C3761 1.495 . S
C3758 C3757 1.392 . S
C3758 C3759 1.385 . S
C3758 C3760 1.478 . S
C3759 H3753 0.930 . S
C3759 C3755 1.400 . S
C3759 C3758 1.385 . S
C3760 C3758 1.478 . S
C3760 C3762 1.381 . S
C3760 C3766 1.383 . S
C3761 C3757 1.495 . S
C3761 H3767 0.959 . S
C3761 H3768 0.961 . S
C3761 H3769 0.960 . S
C3762 C3760 1.381 . S
C3762 C3763 1.394 . S
C3762 H3770 0.930 . S
C3763 C3762 1.394 . S
C3763 C3764 1.383 . S
C3763 H3771 0.929 . S
C3764 C3763 1.383 . S
C3764 C3765 1.377 . S
C3765 H3749 0.930 . S
C3765 C3764 1.377 . S
C3765 C3766 1.379 . S
C3766 H3750 0.931 . S
C3766 C3760 1.383 . S
C3766 C3765 1.379 . S
H3767 C3761 0.959 . S
H3768 C3761 0.961 . S
H3769 C3761 0.960 . S
H3770 C3762 0.930 . S
H3771 C3763 0.929 . S
H3772 C3780 0.929 . S
H3773 C3782 0.930 . S
H3774 C3784 0.930 . S
H3775 C3787 0.929 . S
H3776 C3790 0.930 . S
H3777 C3792 0.960 . S
H3778 C3792 0.960 . S
H3779 C3792 0.960 . S
C3780 H3772 0.929 . S
C3780 C3781 1.377 1_565 S
C3780 C3782 1.384 . S
C3781 C3780 1.377 1_545 S
C3781 C3787 1.390 . S
C3782 H3773 0.930 . S
C3782 C3780 1.384 . S
C3782 C3783 1.343 1_565 S
C3783 C3782 1.343 1_545 S
C3783 C3784 1.431 . S
C3783 C3788 1.492 . S
C3784 H3774 0.930 . S
C3784 C3783 1.431 . S
C3784 C3787 1.386 . S
H3785 C3801 0.930 . S
H3786 C3802 0.931 . S
C3787 H3775 0.929 . S
C3787 C3781 1.390 . S
C3787 C3784 1.386 . S
C3788 C3783 1.492 . S
C3788 C3790 1.395 . S
C3788 C3791 1.403 1_545 S
H3789 C3795 0.930 . S
C3790 H3776 0.930 . S
C3790 C3788 1.395 . S
C3790 C3793 1.403 . S
C3791 C3788 1.403 1_565 S
C3791 C3792 1.524 . S
C3791 C3795 1.400 . S
C3792 H3777 0.960 . S
C3792 H3778 0.960 . S
C3792 H3779 0.960 . S
C3792 C3791 1.524 . S
C3793 C3790 1.403 . S
C3793 C3794 1.392 . S
C3793 C3797 1.495 . S
C3794 C3793 1.392 . S
C3794 C3795 1.385 1_545 S
C3794 C3796 1.478 . S
C3795 H3789 0.930 . S
C3795 C3791 1.400 . S
C3795 C3794 1.385 1_565 S
C3796 C3794 1.478 . S
C3796 C3798 1.381 1_545 S
C3796 C3802 1.383 . S
C3797 C3793 1.495 . S
C3797 H3803 0.959 . S
C3797 H3804 0.961 . S
C3797 H3805 0.960 . S
C3798 C3796 1.381 1_565 S
C3798 C3799 1.394 . S
C3798 H3806 0.930 . S
C3799 C3798 1.394 . S
C3799 C3800 1.383 1_565 S
C3799 H3807 0.929 . S
C3800 C3799 1.383 1_545 S
C3800 C3801 1.377 . S
C3801 H3785 0.930 . S
C3801 C3800 1.377 . S
C3801 C3802 1.379 . S
C3802 H3786 0.931 . S
C3802 C3796 1.383 . S
C3802 C3801 1.379 . S
H3803 C3797 0.959 . S
H3804 C3797 0.961 . S
H3805 C3797 0.960 . S
H3806 C3798 0.930 . S
H3807 C3799 0.929 . S
H3808 C3816 0.929 . S
H3809 C3818 0.930 . S
H3810 C3820 0.930 . S
H3811 C3823 0.929 . S
H3812 C3826 0.930 . S
H3813 C3828 0.960 . S
H3814 C3828 0.960 . S
H3815 C3828 0.960 . S
C3816 H3808 0.929 . S
C3816 C3817 1.377 . S
C3816 C3818 1.384 . S
C3817 C3816 1.377 . S
C3817 C3823 1.390 . S
C3818 H3809 0.930 . S
C3818 C3816 1.384 . S
C3818 C3819 1.372 . S
C3819 C3818 1.372 . S
C3819 C3820 1.400 . S
C3819 C3824 1.490 . S
C3820 H3810 0.930 . S
C3820 C3819 1.400 . S
C3820 C3823 1.386 . S
H3821 C3837 0.930 . S
H3822 C3838 0.931 . S
C3823 H3811 0.929 . S
C3823 C3817 1.390 . S
C3823 C3820 1.386 . S
C3824 C3819 1.490 . S
C3824 C3826 1.395 . S
C3824 C3827 1.403 . S
H3825 C3831 0.930 . S
C3826 H3812 0.930 . S
C3826 C3824 1.395 . S
C3826 C3829 1.403 . S
C3827 C3824 1.403 . S
C3827 C3828 1.524 . S
C3827 C3831 1.400 . S
C3828 H3813 0.960 . S
C3828 H3814 0.960 . S
C3828 H3815 0.960 . S
C3828 C3827 1.524 . S
C3829 C3826 1.403 . S
C3829 C3830 1.392 . S
C3829 C3833 1.495 . S
C3830 C3829 1.392 . S
C3830 C3831 1.385 . S
C3830 C3832 1.478 . S
C3831 H3825 0.930 . S
C3831 C3827 1.400 . S
C3831 C3830 1.385 . S
C3832 C3830 1.478 . S
C3832 C3834 1.381 . S
C3832 C3838 1.383 . S
C3833 C3829 1.495 . S
C3833 H3839 0.959 . S
C3833 H3840 0.960 1_556 S
C3833 H3841 0.960 1_556 S
C3834 C3832 1.381 . S
C3834 C3835 1.394 1_556 S
C3834 H3842 0.930 1_556 S
C3835 C3834 1.394 1_554 S
C3835 C3836 1.383 . S
C3835 H3843 0.929 . S
C3836 C3835 1.383 . S
C3836 C3837 1.377 1_554 S
C3837 H3821 0.930 . S
C3837 C3836 1.377 1_556 S
C3837 C3838 1.379 . S
C3838 H3822 0.931 . S
C3838 C3832 1.383 . S
C3838 C3837 1.379 . S
H3839 C3833 0.959 . S
H3840 C3833 0.960 1_554 S
H3841 C3833 0.960 1_554 S
H3842 C3834 0.930 1_554 S
H3843 C3835 0.929 . S
H3844 C3852 0.929 . S
H3845 C3854 0.930 . S
H3846 C3856 0.930 . S
H3847 C3859 0.929 . S
H3848 C3862 0.930 . S
H3849 C3864 0.960 . S
H3850 C3864 0.960 . S
H3851 C3864 0.960 . S
C3852 H3844 0.929 . S
C3852 C3853 1.377 . S
C3852 C3854 1.384 . S
C3853 C3852 1.377 . S
C3853 C3859 1.390 . S
C3854 H3845 0.930 . S
C3854 C3852 1.384 . S
C3854 C3855 1.372 . S
C3855 C3854 1.372 . S
C3855 C3856 1.400 . S
C3855 C3860 1.490 . S
C3856 H3846 0.930 . S
C3856 C3855 1.400 . S
C3856 C3859 1.386 . S
H3857 C3873 0.930 . S
H3858 C3874 0.931 . S
C3859 H3847 0.929 . S
C3859 C3853 1.390 . S
C3859 C3856 1.386 . S
C3860 C3855 1.490 . S
C3860 C3862 1.395 . S
C3860 C3863 1.403 . S
H3861 C3867 0.930 . S
C3862 H3848 0.930 . S
C3862 C3860 1.395 . S
C3862 C3865 1.403 . S
C3863 C3860 1.403 . S
C3863 C3864 1.524 . S
C3863 C3867 1.400 . S
C3864 H3849 0.960 . S
C3864 H3850 0.960 . S
C3864 H3851 0.960 . S
C3864 C3863 1.524 . S
C3865 C3862 1.403 . S
C3865 C3866 1.392 . S
C3865 C3869 1.495 . S
C3866 C3865 1.392 . S
C3866 C3867 1.385 . S
C3866 C3868 1.478 . S
C3867 H3861 0.930 . S
C3867 C3863 1.400 . S
C3867 C3866 1.385 . S
C3868 C3866 1.478 . S
C3868 C3870 1.381 . S
C3868 C3874 1.383 . S
C3869 C3865 1.495 . S
C3869 H3875 0.959 . S
C3869 H3876 0.961 . S
C3869 H3877 0.960 . S
C3870 C3868 1.381 . S
C3870 C3871 1.394 . S
C3870 H3878 0.930 . S
C3871 C3870 1.394 . S
C3871 C3872 1.383 1_556 S
C3871 H3879 0.929 . S
C3872 C3871 1.383 1_554 S
C3872 C3873 1.377 . S
C3873 H3857 0.930 . S
C3873 C3872 1.377 . S
C3873 C3874 1.379 1_554 S
C3874 H3858 0.931 . S
C3874 C3868 1.383 . S
C3874 C3873 1.379 1_556 S
H3875 C3869 0.959 . S
H3876 C3869 0.961 . S
H3877 C3869 0.960 . S
H3878 C3870 0.930 . S
H3879 C3871 0.929 . S
H3880 C3888 0.929 . S
H3881 C3890 0.930 . S
H3882 C3892 0.930 . S
H3883 C3895 0.929 . S
H3884 C3898 0.930 . S
H3885 C3900 0.960 . S
H3886 C3900 0.960 . S
H3887 C3900 0.960 . S
C3888 H3880 0.929 . S
C3888 C3889 1.377 . S
C3888 C3890 1.384 . S
C3889 C3888 1.377 . S
C3889 C3895 1.390 . S
C3890 H3881 0.930 . S
C3890 C3888 1.384 . S
C3890 C3891 1.372 . S
C3891 C3890 1.372 . S
C3891 C3892 1.400 . S
C3891 C3896 1.490 . S
C3892 H3882 0.930 . S
C3892 C3891 1.400 . S
C3892 C3895 1.386 . S
H3893 C3909 0.930 . S
H3894 C3910 0.931 . S
C3895 H3883 0.929 . S
C3895 C3889 1.390 . S
C3895 C3892 1.386 . S
C3896 C3891 1.490 . S
C3896 C3898 1.395 . S
C3896 C3899 1.403 . S
H3897 C3903 0.930 . S
C3898 H3884 0.930 . S
C3898 C3896 1.395 . S
C3898 C3901 1.403 . S
C3899 C3896 1.403 . S
C3899 C3900 1.524 . S
C3899 C3903 1.400 . S
C3900 H3885 0.960 . S
C3900 H3886 0.960 . S
C3900 H3887 0.960 . S
C3900 C3899 1.524 . S
C3901 C3898 1.403 . S
C3901 C3902 1.392 . S
C3901 C3905 1.495 . S
C3902 C3901 1.392 . S
C3902 C3903 1.385 . S
C3902 C3904 1.478 . S
C3903 H3897 0.930 . S
C3903 C3899 1.400 . S
C3903 C3902 1.385 . S
C3904 C3902 1.478 . S
C3904 C3906 1.381 . S
C3904 C3910 1.383 . S
C3905 C3901 1.495 . S
C3905 H3911 0.959 . S
C3905 H3912 0.961 . S
C3905 H3913 0.960 . S
C3906 C3904 1.381 . S
C3906 C3907 1.394 . S
C3906 H3914 0.930 . S
C3907 C3906 1.394 . S
C3907 C3908 1.383 . S
C3907 H3915 0.929 . S
C3908 C3907 1.383 . S
C3908 C3909 1.377 . S
C3909 H3893 0.930 . S
C3909 C3908 1.377 . S
C3909 C3910 1.379 . S
C3910 H3894 0.931 . S
C3910 C3904 1.383 . S
C3910 C3909 1.379 . S
H3911 C3905 0.959 . S
H3912 C3905 0.961 . S
H3913 C3905 0.960 . S
H3914 C3906 0.930 . S
H3915 C3907 0.929 . S
H3916 C3924 0.929 . S
H3917 C3926 0.930 . S
H3918 C3928 0.930 . S
H3919 C3931 0.929 . S
H3920 C3934 0.930 . S
H3921 C3936 0.960 . S
H3922 C3936 0.960 . S
H3923 C3936 0.960 . S
C3924 H3916 0.929 . S
C3924 C3925 1.377 . S
C3924 C3926 1.384 . S
C3925 C3924 1.377 . S
C3925 C3931 1.390 . S
C3926 H3917 0.930 . S
C3926 C3924 1.384 . S
C3926 C3927 1.372 . S
C3927 C3926 1.372 . S
C3927 C3928 1.400 . S
C3927 C3932 1.490 . S
C3928 H3918 0.930 . S
C3928 C3927 1.400 . S
C3928 C3931 1.386 . S
H3929 C3945 0.930 . S
H3930 C3946 0.931 . S
C3931 H3919 0.929 . S
C3931 C3925 1.390 . S
C3931 C3928 1.386 . S
C3932 C3927 1.490 . S
C3932 C3934 1.395 . S
C3932 C3935 1.403 . S
H3933 C3939 0.930 . S
C3934 H3920 0.930 . S
C3934 C3932 1.395 . S
C3934 C3937 1.403 . S
C3935 C3932 1.403 . S
C3935 C3936 1.524 . S
C3935 C3939 1.400 . S
C3936 H3921 0.960 . S
C3936 H3922 0.960 . S
C3936 H3923 0.960 . S
C3936 C3935 1.524 . S
C3937 C3934 1.403 . S
C3937 C3938 1.392 . S
C3937 C3941 1.495 . S
C3938 C3937 1.392 . S
C3938 C3939 1.385 . S
C3938 C3940 1.478 . S
C3939 H3933 0.930 . S
C3939 C3935 1.400 . S
C3939 C3938 1.385 . S
C3940 C3938 1.478 . S
C3940 C3942 1.381 . S
C3940 C3946 1.383 . S
C3941 C3937 1.495 . S
C3941 H3947 0.959 . S
C3941 H3948 0.961 . S
C3941 H3949 0.960 . S
C3942 C3940 1.381 . S
C3942 C3943 1.394 . S
C3942 H3950 0.930 . S
C3943 C3942 1.394 . S
C3943 C3944 1.383 . S
C3943 H3951 0.929 . S
C3944 C3943 1.383 . S
C3944 C3945 1.377 . S
C3945 H3929 0.930 . S
C3945 C3944 1.377 . S
C3945 C3946 1.379 . S
C3946 H3930 0.931 . S
C3946 C3940 1.383 . S
C3946 C3945 1.379 . S
H3947 C3941 0.959 . S
H3948 C3941 0.961 . S
H3949 C3941 0.960 . S
H3950 C3942 0.930 . S
H3951 C3943 0.929 . S
H3952 C3960 0.929 . S
H3953 C3962 0.930 . S
H3954 C3964 0.930 . S
H3955 C3967 0.929 . S
H3956 C3970 0.930 . S
H3957 C3972 0.960 . S
H3958 C3972 0.960 . S
H3959 C3972 0.960 . S
C3960 H3952 0.929 . S
C3960 C3961 1.377 . S
C3960 C3962 1.384 . S
C3961 C3960 1.377 . S
C3961 C3967 1.390 . S
C3962 H3953 0.930 . S
C3962 C3960 1.384 . S
C3962 C3963 1.372 . S
C3963 C3962 1.372 . S
C3963 C3964 1.400 . S
C3963 C3968 1.490 . S
C3964 H3954 0.930 . S
C3964 C3963 1.400 . S
C3964 C3967 1.386 . S
H3965 C3981 0.930 1_556 S
H3966 C3982 0.931 . S
C3967 H3955 0.929 . S
C3967 C3961 1.390 . S
C3967 C3964 1.386 . S
C3968 C3963 1.490 . S
C3968 C3970 1.395 . S
C3968 C3971 1.403 . S
H3969 C3975 0.930 . S
C3970 H3956 0.930 . S
C3970 C3968 1.395 . S
C3970 C3973 1.403 . S
C3971 C3968 1.403 . S
C3971 C3972 1.524 . S
C3971 C3975 1.400 . S
C3972 H3957 0.960 . S
C3972 H3958 0.960 . S
C3972 H3959 0.960 . S
C3972 C3971 1.524 . S
C3973 C3970 1.403 . S
C3973 C3974 1.392 . S
C3973 C3977 1.495 . S
C3974 C3973 1.392 . S
C3974 C3975 1.385 . S
C3974 C3976 1.478 . S
C3975 H3969 0.930 . S
C3975 C3971 1.400 . S
C3975 C3974 1.385 . S
C3976 C3974 1.478 . S
C3976 C3978 1.381 . S
C3976 C3982 1.383 . S
C3977 C3973 1.495 . S
C3977 H3983 0.959 . S
C3977 H3984 0.961 . S
C3977 H3985 0.960 . S
C3978 C3976 1.381 . S
C3978 C3979 1.394 . S
C3978 H3986 0.930 . S
C3979 C3978 1.394 . S
C3979 C3980 1.383 1_554 S
C3979 H3987 0.931 . S
C3980 C3979 1.383 1_556 S
C3980 C3981 1.377 1_556 S
C3981 H3965 0.930 1_554 S
C3981 C3980 1.377 1_554 S
C3981 C3982 1.379 . S
C3982 H3966 0.931 . S
C3982 C3976 1.383 . S
C3982 C3981 1.379 . S
H3983 C3977 0.959 . S
H3984 C3977 0.961 . S
H3985 C3977 0.960 . S
H3986 C3978 0.930 . S
H3987 C3979 0.931 . S
H3988 C3996 0.929 . S
H3989 C3998 0.930 . S
H3990 C4000 0.930 . S
H3991 C4003 0.929 . S
H3992 C4006 0.930 . S
H3993 C4008 0.960 . S
H3994 C4008 0.960 . S
H3995 C4008 0.960 . S
C3996 H3988 0.929 . S
C3996 C3997 1.377 . S
C3996 C3998 1.384 . S
C3997 C3996 1.377 . S
C3997 C4003 1.390 . S
C3998 H3989 0.930 . S
C3998 C3996 1.384 . S
C3998 C3999 1.372 . S
C3999 C3998 1.372 . S
C3999 C4000 1.400 . S
C3999 C4004 1.490 . S
C4000 H3990 0.930 . S
C4000 C3999 1.400 . S
C4000 C4003 1.386 . S
H4001 C4017 0.930 . S
H4002 C4018 0.931 1_556 S
C4003 H3991 0.929 . S
C4003 C3997 1.390 . S
C4003 C4000 1.386 . S
C4004 C3999 1.490 . S
C4004 C4006 1.395 . S
C4004 C4007 1.403 . S
H4005 C4011 0.930 . S
C4006 H3992 0.930 . S
C4006 C4004 1.395 . S
C4006 C4009 1.403 . S
C4007 C4004 1.403 . S
C4007 C4008 1.524 . S
C4007 C4011 1.400 . S
C4008 H3993 0.960 . S
C4008 H3994 0.960 . S
C4008 H3995 0.960 . S
C4008 C4007 1.524 . S
C4009 C4006 1.403 . S
C4009 C4010 1.392 . S
C4009 C4013 1.495 . S
C4010 C4009 1.392 . S
C4010 C4011 1.385 . S
C4010 C4012 1.478 . S
C4011 H4005 0.930 . S
C4011 C4007 1.400 . S
C4011 C4010 1.385 . S
C4012 C4010 1.478 . S
C4012 C4014 1.381 . S
C4012 C4018 1.383 . S
C4013 C4009 1.495 . S
C4013 H4019 0.959 . S
C4013 H4020 0.961 . S
C4013 H4021 0.960 . S
C4014 C4012 1.381 . S
C4014 C4015 1.394 . S
C4014 H4022 0.930 . S
C4015 C4014 1.394 . S
C4015 C4016 1.383 1_554 S
C4015 H4023 0.929 . S
C4016 C4015 1.383 1_556 S
C4016 C4017 1.377 . S
C4017 H4001 0.930 . S
C4017 C4016 1.377 . S
C4017 C4018 1.379 1_556 S
C4018 H4002 0.931 1_554 S
C4018 C4012 1.383 . S
C4018 C4017 1.379 1_554 S
H4019 C4013 0.959 . S
H4020 C4013 0.961 . S
H4021 C4013 0.960 . S
H4022 C4014 0.930 . S
H4023 C4015 0.929 . S
H4024 C4032 0.929 . S
H4025 C4034 0.930 . S
H4026 C4036 0.930 . S
H4027 C4039 0.929 . S
H4028 C4042 0.930 . S
H4029 C4044 0.960 . S
H4030 C4044 0.960 . S
H4031 C4044 0.960 . S
C4032 H4024 0.929 . S
C4032 C4033 1.377 . S
C4032 C4034 1.384 . S
C4033 C4032 1.377 . S
C4033 C4039 1.390 . S
C4034 H4025 0.930 . S
C4034 C4032 1.384 . S
C4034 C4035 1.372 . S
C4035 C4034 1.372 . S
C4035 C4036 1.400 . S
C4035 C4040 1.490 . S
C4036 H4026 0.930 . S
C4036 C4035 1.400 . S
C4036 C4039 1.386 . S
H4037 C4053 0.930 . S
H4038 C4054 0.931 . S
C4039 H4027 0.929 . S
C4039 C4033 1.390 . S
C4039 C4036 1.386 . S
C4040 C4035 1.490 . S
C4040 C4042 1.395 . S
C4040 C4043 1.403 . S
H4041 C4047 0.930 . S
C4042 H4028 0.930 . S
C4042 C4040 1.395 . S
C4042 C4045 1.403 . S
C4043 C4040 1.403 . S
C4043 C4044 1.524 . S
C4043 C4047 1.400 . S
C4044 H4029 0.960 . S
C4044 H4030 0.960 . S
C4044 H4031 0.960 . S
C4044 C4043 1.524 . S
C4045 C4042 1.403 . S
C4045 C4046 1.392 . S
C4045 C4049 1.495 . S
C4046 C4045 1.392 . S
C4046 C4047 1.385 . S
C4046 C4048 1.478 . S
C4047 H4041 0.930 . S
C4047 C4043 1.400 . S
C4047 C4046 1.385 . S
C4048 C4046 1.478 . S
C4048 C4050 1.381 . S
C4048 C4054 1.383 . S
C4049 C4045 1.495 . S
C4049 H4055 0.959 . S
C4049 H4056 0.961 . S
C4049 H4057 0.960 . S
C4050 C4048 1.381 . S
C4050 C4051 1.394 . S
C4050 H4058 0.930 . S
C4051 C4050 1.394 . S
C4051 C4052 1.383 . S
C4051 H4059 0.929 . S
C4052 C4051 1.383 . S
C4052 C4053 1.377 . S
C4053 H4037 0.930 . S
C4053 C4052 1.377 . S
C4053 C4054 1.379 . S
C4054 H4038 0.931 . S
C4054 C4048 1.383 . S
C4054 C4053 1.379 . S
H4055 C4049 0.959 . S
H4056 C4049 0.961 . S
H4057 C4049 0.960 . S
H4058 C4050 0.930 . S
H4059 C4051 0.929 . S
H4060 C4068 0.929 . S
H4061 C4070 0.930 . S
H4062 C4072 0.930 . S
H4063 C4075 0.929 . S
H4064 C4078 0.930 . S
H4065 C4080 0.960 . S
H4066 C4080 0.960 . S
H4067 C4080 0.960 . S
C4068 H4060 0.929 . S
C4068 C4069 1.377 . S
C4068 C4070 1.384 . S
C4069 C4068 1.377 . S
C4069 C4075 1.390 . S
C4070 H4061 0.930 . S
C4070 C4068 1.384 . S
C4070 C4071 1.372 . S
C4071 C4070 1.372 . S
C4071 C4072 1.400 . S
C4071 C4076 1.490 . S
C4072 H4062 0.930 . S
C4072 C4071 1.400 . S
C4072 C4075 1.386 . S
H4073 C4089 0.930 . S
H4074 C4090 0.931 . S
C4075 H4063 0.929 . S
C4075 C4069 1.390 . S
C4075 C4072 1.386 . S
C4076 C4071 1.490 . S
C4076 C4078 1.395 . S
C4076 C4079 1.403 . S
H4077 C4083 0.930 . S
C4078 H4064 0.930 . S
C4078 C4076 1.395 . S
C4078 C4081 1.403 . S
C4079 C4076 1.403 . S
C4079 C4080 1.524 . S
C4079 C4083 1.400 . S
C4080 H4065 0.960 . S
C4080 H4066 0.960 . S
C4080 H4067 0.960 . S
C4080 C4079 1.524 . S
C4081 C4078 1.403 . S
C4081 C4082 1.392 . S
C4081 C4085 1.495 . S
C4082 C4081 1.392 . S
C4082 C4083 1.385 . S
C4082 C4084 1.478 . S
C4083 H4077 0.930 . S
C4083 C4079 1.400 . S
C4083 C4082 1.385 . S
C4084 C4082 1.478 . S
C4084 C4086 1.381 . S
C4084 C4090 1.383 . S
C4085 C4081 1.495 . S
C4085 H4091 0.959 . S
C4085 H4092 0.961 . S
C4085 H4093 0.960 . S
C4086 C4084 1.381 . S
C4086 C4087 1.394 . S
C4086 H4094 0.930 . S
C4087 C4086 1.394 . S
C4087 C4088 1.383 . S
C4087 H4095 0.929 . S
C4088 C4087 1.383 . S
C4088 C4089 1.377 . S
C4089 H4073 0.930 . S
C4089 C4088 1.377 . S
C4089 C4090 1.379 . S
C4090 H4074 0.931 . S
C4090 C4084 1.383 . S
C4090 C4089 1.379 . S
H4091 C4085 0.959 . S
H4092 C4085 0.961 . S
H4093 C4085 0.960 . S
H4094 C4086 0.930 . S
H4095 C4087 0.929 . S
C649 C509 1.644 . S
C668 C9 1.626 . S
C685 C489 1.629 . S
C704 C29 1.632 . S
C721 C549 1.633 . S
C740 C49 1.651 . S
C757 C529 1.649 . S
C776 C69 1.657 . S
C793 C81 1.648 . S
C812 C581 1.638 . S
C829 C101 1.638 . S
C848 C561 1.610 . S
C865 C121 1.633 . S
C884 C621 1.624 . S
C901 C601 1.640 . S
C920 C141 1.669 . S
C937 C349 1.629 . S
C956 C169 1.618 . S
C973 C329 1.648 . S
C992 C189 1.641 . S
C1009 C389 1.648 . S
C1028 C209 1.667 . S
C1045 C369 1.635 . S
C1064 C229 1.612 . S
C1081 C241 1.629 . S
C1100 C421 1.651 . S
C1117 C401 1.649 . S
C1136 C261 1.631 . S
C1153 C281 1.640 . S
C1172 C461 1.670 . S
C1189 C441 1.630 . S
C1208 C301 1.642 . S
C1225 C19 2.727 1_545 S
C1244 C408 2.726 . S
C1261 C268 2.721 . S
C1280 C39 2.718 . S
C1297 C608 2.723 . S
C1316 C59 2.730 . S
C1333 C79 2.726 1_545 S
C1352 C148 2.737 1_565 S
C1369 C88 2.722 1_565 S
C1388 C339 2.734 1_545 S
C1405 C108 2.725 . S
C1424 C199 2.739 . S
C1441 C128 2.722 . S
C1460 C539 2.700 . S
C1477 C568 2.728 . S
C1496 C179 2.719 . S
C1513 C448 2.723 . S
C1532 C219 2.732 . S
C1549 C308 2.721 . S
C1568 C239 2.726 . S
C1585 C499 2.726 . S
C1604 C248 2.740 . S
C1621 C288 2.724 . S
C1640 C379 2.700 . S
C1657 C588 2.728 . S
C1676 C359 2.721 . S
C1693 C399 2.723 1_545 S
C1712 C468 2.703 . S
C1729 C519 2.727 . S
C1748 C428 2.711 . S
C1765 C559 2.728 . S
C1784 C628 2.735 . S
C1801 C8 2.728 1_566 S
C1820 C388 2.739 1_565 S
C1837 C28 2.731 1_556 S
C1856 C368 2.738 . S
C1873 C48 2.727 . S
C1892 C348 2.737 . S
C1909 C68 2.731 1_565 S
C1928 C328 2.712 1_565 S
C1945 C99 2.731 1_544 S
C1964 C479 2.727 1_545 S
C1981 C119 2.729 1_554 S
C2000 C459 2.716 . S
C2017 C139 2.728 . S
C2036 C439 2.712 . S
C2053 C159 2.728 1_545 S
C2072 C419 2.710 1_545 S
C2089 C168 2.732 . S
C2108 C548 2.741 . S
C2125 C188 2.733 . S
C2144 C528 2.714 . S
C2161 C208 2.734 . S
C2180 C508 2.722 1_556 S
C2197 C228 2.732 . S
C2216 C488 2.741 1_556 S
C2233 C639 2.730 . S
C2252 C259 2.714 . S
C2269 C619 2.733 . S
C2288 C279 2.735 . S
C2305 C599 2.734 1_554 S
C2324 C299 2.740 . S
C2341 C579 2.730 1_554 S
C2360 C319 2.716 . S
C2377 C41 1.755 . S
C2396 C1 1.750 . S
C2413 C61 1.758 . S
C2432 C21 1.738 . S
C2449 C129 1.756 . S
C2468 C89 1.739 . S
C2485 C109 1.758 . S
C2504 C149 1.751 . S
C2521 C201 1.768 . S
C2540 C161 1.759 . S
C2557 C181 1.768 . S
C2576 C221 1.763 . S
C2593 C289 1.769 . S
C2612 C249 1.768 . S
C2629 C269 1.768 . S
C2648 C309 1.770 . S
C2665 C321 1.755 . S
C2684 C361 1.753 . S
C2701 C341 1.755 . S
C2720 C381 1.748 . S
C2737 C449 1.756 . S
C2756 C409 1.749 . S
C2773 C429 1.757 . S
C2792 C469 1.753 . S
C2809 C481 1.769 . S
C2828 C521 1.759 . S
C2845 C541 1.766 . S
C2864 C501 1.771 . S
C2881 C569 1.766 . S
C2900 C609 1.757 . S
C2917 C589 1.769 . S
C2936 C629 1.770 . S
C2953 C16 0.449 . S
C2972 C156 0.431 . S
C2989 C616 0.442 . S
C3008 C36 0.399 . S
C3025 C56 0.447 . S
C3044 C276 0.526 . S
C3061 C76 0.440 . S
C3080 C416 0.522 . S
C3097 C66 0.443 . S
C3116 C86 0.526 . S
C3133 C106 0.443 . S
C3152 C526 0.526 . S
C3169 C186 0.446 . S
C3188 C126 0.523 . S
C3205 C326 0.453 . S
C3224 C146 0.479 . S
C3241 C176 0.425 . S
C3260 C316 0.341 . S
C3277 C456 0.428 . S
C3296 C196 0.492 . S
C3313 C216 0.417 . S
C3332 C116 0.421 . S
C3349 C576 0.452 . S
C3368 C236 0.513 . S
C3385 C246 0.424 . S
C3404 C226 0.342 . S
C3421 C266 0.442 . S
C3440 C366 0.526 . S
C3457 C286 0.437 . S
C3476 C26 0.523 . S
C3493 C486 0.441 . S
C3512 C306 0.526 . S
C3529 C336 0.440 . S
C3548 C476 0.522 . S
C3565 C356 0.421 . S
C3584 C296 0.461 . S
C3601 C376 0.427 . S
C3620 C596 0.343 . S
C3637 C396 0.436 . S
C3656 C96 0.524 . S
C3673 C406 0.418 . S
C3692 C386 0.462 . S
C3709 C206 0.433 . S
C3728 C426 0.520 . S
C3745 C506 0.438 . S
C3764 C446 0.525 . S
C3781 C466 0.434 . S
C3800 C6 0.519 . S
C3817 C636 0.431 . S
C3836 C496 0.354 . S
C3853 C136 0.437 . S
C3872 C516 0.517 . S
C3889 C436 0.432 . S
C3908 C536 0.506 . S
C3925 C556 0.442 . S
C3944 C256 0.524 . S
C3961 C546 0.445 . S
C3980 C566 0.523 . S
C3997 C46 0.415 . S
C4016 C586 0.424 . S
C4033 C346 0.452 . S
C4052 C606 0.447 . S
C4069 C626 0.420 . S
C4088 C166 0.351 . S
