# Generated by pormake.
# Topology sml, (6)-cn, num edge types: 1
# Building blocks:
#     Node 0, Type 0, BuildingBlock: KUMBOL_clean_sbu_1, # of connection points: 6
#     Node 1, Type 0, BuildingBlock: KUMBOL_clean_sbu_1, # of connection points: 6
#     Node 2, Type 0, BuildingBlock: KUMBOL_clean_sbu_1, # of connection points: 6
#     Node 3, Type 0, BuildingBlock: KUMBOL_clean_sbu_1, # of connection points: 6
#     Node 4, Type 0, BuildingBlock: KUMBOL_clean_sbu_1, # of connection points: 6
#     Node 5, Type 0, BuildingBlock: KUMBOL_clean_sbu_1, # of connection points: 6
#     Edge 6, Type (0, 0), BuildingBlock: UVAHIK_clean_linker_0, # of connection points: 2
#     Edge 7, Type (0, 0), BuildingBlock: UVAHIK_clean_linker_0, # of connection points: 2
#     Edge 8, Type (0, 0), BuildingBlock: UVAHIK_clean_linker_0, # of connection points: 2
#     Edge 9, Type (0, 0), BuildingBlock: UVAHIK_clean_linker_0, # of connection points: 2
#     Edge 10, Type (0, 0), BuildingBlock: UVAHIK_clean_linker_0, # of connection points: 2
#     Edge 11, Type (0, 0), BuildingBlock: UVAHIK_clean_linker_0, # of connection points: 2
#     Edge 12, Type (0, 0), BuildingBlock: UVAHIK_clean_linker_0, # of connection points: 2
#     Edge 13, Type (0, 0), BuildingBlock: UVAHIK_clean_linker_0, # of connection points: 2
#     Edge 14, Type (0, 0), BuildingBlock: UVAHIK_clean_linker_0, # of connection points: 2
#     Edge 15, Type (0, 0), BuildingBlock: UVAHIK_clean_linker_0, # of connection points: 2
#     Edge 16, Type (0, 0), BuildingBlock: UVAHIK_clean_linker_0, # of connection points: 2
#     Edge 17, Type (0, 0), BuildingBlock: UVAHIK_clean_linker_0, # of connection points: 2
#     Edge 18, Type (0, 0), BuildingBlock: UVAHIK_clean_linker_0, # of connection points: 2
#     Edge 19, Type (0, 0), BuildingBlock: UVAHIK_clean_linker_0, # of connection points: 2
#     Edge 20, Type (0, 0), BuildingBlock: UVAHIK_clean_linker_0, # of connection points: 2
#     Edge 21, Type (0, 0), BuildingBlock: UVAHIK_clean_linker_0, # of connection points: 2
#     Edge 22, Type (0, 0), BuildingBlock: UVAHIK_clean_linker_0, # of connection points: 2
#     Edge 23, Type (0, 0), BuildingBlock: UVAHIK_clean_linker_0, # of connection points: 2
# Relax obj value: 0.052
# Max RMSD: 0.160
# Mean RMSD: 0.160
data_MOF--net-sml--node1-KUMBOL_clean_sbu_1--edge1-UVAHIK_clean_linker_0
_symmetry_space_group_name_H-M    P1
_symmetry_Int_Tables_number       1
_symmetry_cell_setting            triclinic
loop_
_symmetry_equiv_pos_as_xyz
'x, y, z'
_cell_length_a     44.709447
_cell_length_b     44.715958
_cell_length_c     29.106943
_cell_angle_alpha  89.889476
_cell_angle_beta   90.00384
_cell_angle_gamma 120.23057
loop_
_atom_site_label
_atom_site_type_symbol
_atom_site_fract_x
_atom_site_fract_y
_atom_site_fract_z
_atom_type_partial_charge
C0 C 0.26662 0.38642 0.02875 0.0
C1 C 0.32495 0.43543 0.02559 0.0
C2 C 0.28886 0.42171 0.02668 0.0
C3 C 0.33814 0.4128 0.02363 0.0
C4 C 0.27965 0.36356 0.02962 0.0
C5 C 0.3155 0.37688 0.02561 0.0
N6 N 0.23232 0.37463 0.03343 0.0
C7 C 0.20969 0.34057 0.04242 0.0
C8 C 0.25636 0.32822 0.0363 0.0
C9 C 0.2213 0.31677 0.0436 0.0
Gd10 Gd 0.15671 0.41439 0.91318 0.0
Gd11 Gd 0.2145 0.4155 0.02638 0.0
N12 N 0.27517 0.44264 0.02948 0.0
C13 C 0.34662 0.47139 0.02836 0.0
C14 C 0.29607 0.47747 0.03569 0.0
C15 C 0.33209 0.49245 0.03425 0.0
H16 H 0.28476 0.49373 0.04007 0.0
H17 H 0.34861 0.52018 0.0377 0.0
H18 H 0.16215 0.34976 0.85682 0.0
H19 H 0.18251 0.33167 0.04731 0.0
H20 H 0.13031 0.28624 0.85551 0.0
H21 H 0.37452 0.483 0.02758 0.0
H22 H 0.3658 0.4228 0.02217 0.0
H23 H 0.09979 0.43776 0.94237 0.0
H24 H 0.2653 0.30976 0.03716 0.0
H25 H 0.20319 0.28961 0.04969 0.0
H26 H 0.02469 0.25457 0.93559 0.0
H27 H 0.32604 0.35973 0.0256 0.0
H28 H 0.00406 0.34643 0.97706 0.0
H29 H 0.03921 0.41024 0.9704 0.0
N30 N 0.09826 0.38993 0.93319 0.0
C31 C 0.07905 0.35493 0.93475 0.0
C32 C 0.08418 0.40986 0.94436 0.0
C33 C 0.03038 0.35836 0.96435 0.0
C34 C 0.05011 0.39439 0.96052 0.0
C35 C 0.04464 0.33812 0.95086 0.0
H36 H -0.00081 0.28835 0.96515 0.0
N37 N 0.12659 0.35347 0.90218 0.0
C38 C 0.09381 0.33608 0.91923 0.0
C39 C 0.08803 0.2815 0.89647 0.0
C40 C 0.07393 0.29962 0.9178 0.0
C41 C 0.1385 0.33606 0.87641 0.0
C42 C 0.12005 0.29988 0.87452 0.0
O43 O 0.24711 0.45353 0.97026 0.0
O44 O 0.21425 0.45193 0.90598 0.0
O45 O 0.1422 0.40716 0.84056 0.0
O46 O 0.15106 0.45314 0.87532 0.0
O47 O 0.21553 0.46562 0.011 0.0
O48 O 0.16777 0.456 0.96593 0.0
O49 O 0.13775 0.40608 0.98663 0.0
O50 O 0.15977 0.37339 0.01265 0.0
O51 O 0.18708 0.42604 0.08019 0.0
O52 O 0.22599 0.41319 0.09843 0.0
O53 O 0.19687 0.39854 0.90411 0.0
O54 O 0.18982 0.3733 0.97395 0.0
C55 C 0.2437 0.46366 0.92876 0.0
C56 C 0.19244 0.47369 0.9965 0.0
C57 C 0.16855 0.45926 0.79695 0.0
C58 C 0.18513 0.46613 0.71529 0.0
C59 C 0.21656 0.5136 0.769 0.0
C60 C 0.19518 0.49348 0.80478 0.0
C61 C 0.21165 0.50016 0.72473 0.0
C62 C 0.16341 0.44578 0.7518 0.0
C63 C 0.14638 0.4379 0.83582 0.0
C64 C 0.04014 0.28258 0.93575 0.0
C65 C 0.02554 0.3018 0.95236 0.0
H66 H 0.07362 0.2535 0.89457 0.0
C67 C 0.13518 0.38108 0.01284 0.0
C68 C 0.20311 0.37961 0.93261 0.0
C69 C 0.17931 0.39545 0.14981 0.0
C70 C 0.15891 0.38423 0.22974 0.0
C71 C 0.13455 0.33797 0.173 0.0
C72 C 0.15649 0.36063 0.13935 0.0
C73 C 0.13559 0.34961 0.21775 0.0
C74 C 0.18076 0.40718 0.19522 0.0
C75 C 0.20212 0.41917 0.1136 0.0
H76 H 0.23699 0.53989 0.7756 0.0
H77 H 0.19955 0.50488 0.83863 0.0
H78 H 0.22839 0.51676 0.6976 0.0
H79 H 0.14294 0.41947 0.7453 0.0
H80 H 0.1169 0.31113 0.1645 0.0
H81 H 0.15583 0.35098 0.10513 0.0
H82 H 0.11875 0.33118 0.24332 0.0
H83 H 0.19874 0.43401 0.20355 0.0
C84 C 0.71683 0.12316 0.33151 0.0
C85 C 0.66444 0.12657 0.32852 0.0
C86 C 0.70083 0.14276 0.32892 0.0
C87 C 0.64444 0.09046 0.33376 0.0
C88 C 0.69691 0.08679 0.33399 0.0
C89 C 0.66066 0.0706 0.33653 0.0
N90 N 0.75179 0.13956 0.32788 0.0
C91 C 0.76844 0.12129 0.32276 0.0
C92 C 0.71401 0.0678 0.33193 0.0
C93 C 0.74987 0.0851 0.32536 0.0
Gd94 Gd 0.83676 0.25538 0.4432 0.0
Gd95 Gd 0.78091 0.20002 0.32832 0.0
N96 N 0.72091 0.17748 0.3233 0.0
C97 C 0.64933 0.14704 0.32104 0.0
C98 C 0.70645 0.19718 0.31222 0.0
C99 C 0.67044 0.18241 0.31202 0.0
H100 H 0.7229 0.22457 0.30551 0.0
H101 H 0.659 0.19825 0.30487 0.0
H102 H 0.83511 0.18436 0.49011 0.0
H103 H 0.79619 0.13479 0.31777 0.0
H104 H 0.87084 0.15698 0.48827 0.0
H105 H 0.62145 0.13561 0.32055 0.0
H106 H 0.61643 0.07755 0.33413 0.0
H107 H 0.88814 0.33735 0.41234 0.0
H108 H 0.69967 0.03979 0.33381 0.0
H109 H 0.76321 0.07063 0.32252 0.0
H110 H 0.97624 0.24166 0.41595 0.0
H111 H 0.64489 0.04268 0.339 0.0
H112 H 0.98811 0.35177 0.37965 0.0
H113 H 0.94857 0.37524 0.38579 0.0
N114 N 0.89409 0.2935 0.42131 0.0
C115 C 0.91568 0.28044 0.41995 0.0
C116 C 0.9056 0.32728 0.41044 0.0
C117 C 0.96187 0.33527 0.3918 0.0
C118 C 0.93962 0.34862 0.39523 0.0
C119 C 0.95009 0.30086 0.40449 0.0
H120 H 0.99797 0.30153 0.39005 0.0
N121 N 0.86982 0.22762 0.44901 0.0
C122 C 0.90304 0.24638 0.43357 0.0
C123 C 0.91271 0.19915 0.45161 0.0
C124 C 0.9251 0.23233 0.43347 0.0
C125 C 0.8592 0.19699 0.4714 0.0
C126 C 0.87993 0.18179 0.47172 0.0
O127 O 0.74861 0.20742 0.38219 0.0
O128 O 0.78001 0.23782 0.44764 0.0
O129 O 0.84698 0.25473 0.51639 0.0
O130 O 0.84803 0.29927 0.48672 0.0
O131 O 0.79229 0.25522 0.33394 0.0
O132 O 0.8193 0.28654 0.40151 0.0
O133 O 0.8562 0.26539 0.36973 0.0
O134 O 0.83445 0.21062 0.34386 0.0
O135 O 0.80655 0.2334 0.26941 0.0
O136 O 0.77057 0.17906 0.25914 0.0
O137 O 0.79635 0.19891 0.4511 0.0
O138 O 0.80348 0.18051 0.38136 0.0
C139 C 0.75139 0.22123 0.42312 0.0
C140 C 0.80487 0.28293 0.36057 0.0
C141 C 0.8261 0.28364 0.56253 0.0
C142 C 0.81244 0.27963 0.64476 0.0
C143 C 0.77551 0.28567 0.58847 0.0
C144 C 0.79676 0.28635 0.55298 0.0
C145 C 0.78325 0.28242 0.63397 0.0
C146 C 0.83373 0.28003 0.60857 0.0
C147 C 0.84826 0.28388 0.52456 0.0
C148 C 0.95911 0.25221 0.41679 0.0
C149 C 0.97155 0.28637 0.40226 0.0
H150 H 0.92884 0.18744 0.45225 0.0
C151 C 0.85925 0.24295 0.34422 0.0
C152 C 0.79023 0.17364 0.42282 0.0
C153 C 0.81619 0.20647 0.20584 0.0
C154 C 0.83768 0.21361 0.12672 0.0
C155 C 0.86096 0.19312 0.18691 0.0
C156 C 0.83849 0.19454 0.21892 0.0
C157 C 0.86072 0.20268 0.14127 0.0
C158 C 0.8157 0.21587 0.15973 0.0
C159 C 0.79267 0.20819 0.23982 0.0
H160 H 0.75286 0.28761 0.58065 0.0
H161 H 0.79023 0.28898 0.518 0.0
H162 H 0.76603 0.28158 0.66077 0.0
H163 H 0.85635 0.27795 0.61617 0.0
H164 H 0.8785 0.18435 0.19745 0.0
H165 H 0.83836 0.1862 0.25389 0.0
H166 H 0.87862 0.20147 0.11735 0.0
H167 H 0.7976 0.22404 0.1495 0.0
C168 C 0.61044 0.87808 0.70167 0.0
C169 C 0.56149 0.88655 0.69234 0.0
C170 C 0.57555 0.86459 0.69486 0.0
C171 C 0.58376 0.92261 0.69361 0.0
C172 C 0.63269 0.91406 0.70632 0.0
C173 C 0.61937 0.93637 0.70061 0.0
N174 N 0.62199 0.85564 0.70803 0.0
C175 C 0.65492 0.86713 0.72307 0.0
C176 C 0.66718 0.92627 0.71877 0.0
C177 C 0.67814 0.90262 0.72818 0.0
Gd178 Gd 0.58843 0.74508 0.57954 0.0
Gd179 Gd 0.58263 0.79668 0.6947 0.0
N180 N 0.555 0.82975 0.69524 0.0
C181 C 0.52544 0.87152 0.69086 0.0
C182 C 0.51986 0.81502 0.69765 0.0
C183 C 0.50452 0.83558 0.69441 0.0
H184 H 0.50365 0.78724 0.70081 0.0
H185 H 0.47662 0.82372 0.69485 0.0
H186 H 0.64601 0.81216 0.51233 0.0
H187 H 0.66359 0.84891 0.72962 0.0
H188 H 0.70874 0.84341 0.4974 0.0
H189 H 0.51355 0.88744 0.68886 0.0
H190 H 0.57355 0.93999 0.69111 0.0
H191 H 0.56738 0.66502 0.60658 0.0
H192 H 0.68516 0.95373 0.72276 0.0
H193 H 0.70451 0.9117 0.73894 0.0
H194 H 0.74827 0.77232 0.56786 0.0
H195 H 0.63611 0.96415 0.70339 0.0
H196 H 0.66064 0.66091 0.62301 0.0
H197 H 0.59668 0.63212 0.62673 0.0
N198 N 0.61432 0.71139 0.59187 0.0
C199 C 0.64909 0.72709 0.58764 0.0
C200 C 0.59526 0.67738 0.60424 0.0
C201 C 0.64788 0.67525 0.61394 0.0
C202 C 0.61176 0.65886 0.61588 0.0
C203 C 0.667 0.70964 0.59887 0.0
H204 H 0.71748 0.71398 0.60223 0.0
N205 N 0.64718 0.77416 0.55556 0.0
C206 C 0.66624 0.75983 0.56901 0.0
C207 C 0.71772 0.80737 0.53564 0.0
C208 C 0.70207 0.77616 0.56008 0.0
C209 C 0.66168 0.80265 0.52756 0.0
C210 C 0.69724 0.82021 0.51831 0.0
O211 O 0.54274 0.78476 0.63744 0.0
O212 O 0.56772 0.78155 0.56895 0.0
O213 O 0.58695 0.72874 0.50832 0.0
O214 O 0.54005 0.70739 0.54812 0.0
O215 O 0.53493 0.74963 0.66785 0.0
O216 O 0.55041 0.7123 0.63581 0.0
O217 O 0.5983 0.73344 0.65168 0.0
O218 O 0.62719 0.78731 0.68271 0.0
O219 O 0.57291 0.75657 0.745 0.0
O220 O 0.57643 0.80397 0.76739 0.0
O221 O 0.60979 0.80304 0.57727 0.0
O222 O 0.63054 0.82101 0.64988 0.0
C223 C 0.54453 0.78546 0.59194 0.0
C224 C 0.53042 0.71849 0.66279 0.0
C225 C 0.53567 0.71835 0.4691 0.0
C226 C 0.53077 0.72989 0.38743 0.0
C227 C 0.48935 0.72794 0.44349 0.0
C228 C 0.5063 0.72116 0.47853 0.0
C229 C 0.50134 0.73221 0.39847 0.0
C230 C 0.54772 0.72257 0.42317 0.0
C231 C 0.5533 0.71095 0.50725 0.0
C232 C 0.72063 0.75996 0.57377 0.0
C233 C 0.7031 0.72671 0.59322 0.0
H234 H 0.74518 0.82079 0.52801 0.0
C235 C 0.6229 0.75624 0.67809 0.0
C236 C 0.62951 0.82772 0.60627 0.0
C237 C 0.59682 0.77718 0.81847 0.0
C238 C 0.60615 0.76883 0.89951 0.0
C239 C 0.6537 0.79031 0.84468 0.0
C240 C 0.63186 0.78916 0.80969 0.0
C241 C 0.64098 0.78005 0.88915 0.0
C242 C 0.58404 0.76746 0.86372 0.0
C243 C 0.574 0.77498 0.78022 0.0
H244 H 0.4667 0.72984 0.4513 0.0
H245 H 0.49621 0.71813 0.51311 0.0
H246 H 0.48709 0.73689 0.37209 0.0
H247 H 0.57041 0.72066 0.41548 0.0
H248 H 0.68069 0.79945 0.83736 0.0
H249 H 0.64227 0.79767 0.77564 0.0
H250 H 0.65867 0.7817 0.9158 0.0
H251 H 0.55706 0.7586 0.87092 0.0
C252 C 0.85088 0.55346 0.99802 0.0
C253 C 0.81807 0.49102 0.98892 0.0
C254 C 0.81933 0.52309 0.99211 0.0
C255 C 0.84884 0.48989 0.99202 0.0
C256 C 0.88182 0.55244 1.00095 0.0
C257 C 0.8806 0.52049 0.99809 0.0
N258 N 0.8513 0.58402 1.00055 0.0
C259 C 0.8817 0.61452 0.00463 0.0
C260 C 0.91309 0.58361 0.00646 0.0
C261 C 0.91303 0.6148 0.00811 0.0
Gd262 Gd 0.74373 0.58319 0.10898 0.0
Gd263 Gd 0.79755 0.58082 0.99549 0.0
N264 N 0.78983 0.52491 0.99055 0.0
C265 C 0.78589 0.46102 0.98284 0.0
C266 C 0.75858 0.49591 0.98305 0.0
C267 C 0.75607 0.46353 0.97956 0.0
H268 H 0.73556 0.4975 0.97915 0.0
H269 H 0.73114 0.44055 0.97403 0.0
H270 H 0.81217 0.66229 0.13591 0.0
H271 H 0.88178 0.63867 0.00416 0.0
H272 H 0.82433 0.7219 0.14328 0.0
H273 H 0.78382 0.43588 0.9802 0.0
H274 H 0.84835 0.46546 0.98977 0.0
H275 H 0.65918 0.5353 0.08759 0.0
H276 H 0.93742 0.5839 0.00894 0.0
H277 H 0.93711 0.63907 0.01163 0.0
H278 H 0.71454 0.71385 0.11855 0.0
H279 H 0.90411 0.51918 1.00034 0.0
H280 H 0.61644 0.60214 0.08755 0.0
H281 H 0.60888 0.54369 0.07895 0.0
N282 N 0.69471 0.58849 0.09995 0.0
C283 C 0.6995 0.62082 0.10512 0.0
C284 C 0.66276 0.56095 0.09077 0.0
C285 C 0.6386 0.59863 0.09119 0.0
C286 C 0.63423 0.56559 0.08619 0.0
C287 C 0.6715 0.62676 0.10075 0.0
H288 H 0.65604 0.66554 0.10233 0.0
N289 N 0.7594 0.64171 0.1169 0.0
C290 C 0.73274 0.64818 0.11376 0.0
C291 C 0.77193 0.70885 0.12876 0.0
C292 C 0.73843 0.68202 0.11898 0.0
C293 C 0.79169 0.66754 0.12891 0.0
C294 C 0.79856 0.70149 0.13424 0.0
O295 O 0.7996 0.55254 0.05954 0.0
O296 O 0.74726 0.53602 0.0928 0.0
O297 O 0.75925 0.588 0.18069 0.0
O298 O 0.70562 0.55487 0.16216 0.0
O299 O 0.73916 0.55528 0.99047 0.0
O300 O 0.71442 0.53648 0.06283 0.0
O301 O 0.73879 0.6075 0.04324 0.0
O302 O 0.79221 0.62703 0.01208 0.0
O303 O 0.7771 0.57228 0.92592 0.0
O304 O 0.83139 0.60824 0.93797 0.0
O305 O 0.80178 0.605 0.1145 0.0
O306 O 0.82414 0.62687 0.04265 0.0
C307 C 0.77612 0.53531 0.09122 0.0
C308 C 0.71258 0.53581 0.01743 0.0
C309 C 0.71743 0.58248 0.23479 0.0
C310 C 0.71935 0.59389 0.3173 0.0
C311 C 0.68779 0.61101 0.26556 0.0
C312 C 0.69691 0.5977 0.22827 0.0
C313 C 0.69888 0.60916 0.30975 0.0
C314 C 0.72853 0.58058 0.27938 0.0
C315 C 0.72771 0.56873 0.1956 0.0
C316 C 0.71057 0.688 0.11473 0.0
C317 C 0.67723 0.66047 0.10561 0.0
H318 H 0.77736 0.73518 0.1331 0.0
C319 C 0.76233 0.62579 0.01226 0.0
C320 C 0.8281 0.62405 0.08699 0.0
C321 C 0.81615 0.57784 0.86738 0.0
C322 C 0.81232 0.56611 0.7848 0.0
C323 C 0.84404 0.54812 0.83489 0.0
C324 C 0.83608 0.56188 0.87276 0.0
C325 C 0.83232 0.5502 0.79123 0.0
C326 C 0.80434 0.57993 0.82334 0.0
C327 C 0.80731 0.59218 0.9073 0.0
H328 H 0.67188 0.62263 0.26021 0.0
H329 H 0.68773 0.59917 0.19451 0.0
H330 H 0.69091 0.61919 0.33814 0.0
H331 H 0.74461 0.56907 0.28439 0.0
H332 H 0.85954 0.53596 0.83936 0.0
H333 H 0.84568 0.56019 0.90608 0.0
H334 H 0.83943 0.53981 0.76235 0.0
H335 H 0.78867 0.59199 0.81924 0.0
C336 C 0.11612 0.72453 0.36001 0.0
C337 C 0.11104 0.66799 0.35856 0.0
C338 C 0.13149 0.70434 0.3603 0.0
C339 C 0.075 0.65244 0.35334 0.0
C340 C 0.07984 0.70904 0.35771 0.0
C341 C 0.05941 0.67295 0.35287 0.0
N342 N 0.13656 0.75914 0.36572 0.0
C343 C 0.12254 0.77964 0.37295 0.0
C344 C 0.0652 0.73017 0.3623 0.0
C345 C 0.08662 0.76553 0.37092 0.0
Gd346 Gd 0.25567 0.83888 0.25176 0.0
Gd347 Gd 0.19627 0.781 0.36414 0.0
N348 N 0.16624 0.72022 0.36614 0.0
C349 C 0.12732 0.64841 0.36412 0.0
C350 C 0.18188 0.70132 0.37541 0.0
C351 C 0.1628 0.66515 0.37344 0.0
H352 H 0.20937 0.71439 0.38238 0.0
H353 H 0.17544 0.65023 0.37916 0.0
H354 H 0.18612 0.84031 0.20452 0.0
H355 H 0.13923 0.80704 0.37905 0.0
H356 H 0.16043 0.87749 0.2072 0.0
H357 H 0.11254 0.62039 0.36295 0.0
H358 H 0.05884 0.62454 0.35131 0.0
H359 H 0.33756 0.88792 0.28346 0.0
H360 H 0.03742 0.71931 0.36067 0.0
H361 H 0.07553 0.78196 0.37554 0.0
H362 H 0.24639 0.98058 0.2821 0.0
H363 H 0.03149 0.66055 0.35043 0.0
H364 H 0.35476 0.98851 0.31844 0.0
H365 H 0.37657 0.94764 0.31135 0.0
N366 N 0.29477 0.89558 0.27454 0.0
C367 C 0.2826 0.91788 0.27655 0.0
C368 C 0.32823 0.90596 0.28575 0.0
C369 C 0.33778 0.96258 0.30569 0.0
C370 C 0.3502 0.93958 0.30172 0.0
C371 C 0.30367 0.95193 0.2928 0.0
H372 H 0.30575 0.00029 0.30847 0.0
N373 N 0.22954 0.87353 0.2463 0.0
C374 C 0.24886 0.90639 0.26261 0.0
C375 C 0.20291 0.91804 0.24483 0.0
C376 C 0.23575 0.92924 0.26327 0.0
C377 C 0.19924 0.86408 0.22373 0.0
C378 C 0.18497 0.88564 0.22393 0.0
O379 O 0.20274 0.74865 0.30929 0.0
O380 O 0.23587 0.78177 0.24612 0.0
O381 O 0.25741 0.85084 0.17869 0.0
O382 O 0.29961 0.84811 0.20948 0.0
O383 O 0.24911 0.78659 0.35676 0.0
O384 O 0.28516 0.82063 0.29591 0.0
O385 O 0.26493 0.85635 0.32596 0.0
O386 O 0.20982 0.83575 0.35033 0.0
O387 O 0.23128 0.80537 0.42188 0.0
O388 O 0.17706 0.77007 0.43434 0.0
O389 O 0.19905 0.80002 0.24137 0.0
O390 O 0.18087 0.80702 0.31108 0.0
C391 C 0.21763 0.75241 0.26881 0.0
C392 C 0.27862 0.80143 0.3335 0.0
C393 C 0.28385 0.82668 0.13336 0.0
C394 C 0.27398 0.80939 0.05211 0.0
C395 C 0.28565 0.77586 0.10796 0.0
C396 C 0.28821 0.79828 0.14288 0.0
C397 C 0.27868 0.78132 0.06303 0.0
C398 C 0.27687 0.83223 0.08771 0.0
C399 C 0.28543 0.84967 0.17121 0.0
C400 C 0.25623 0.96286 0.28081 0.0
C401 C 0.29009 0.97415 0.29561 0.0
H402 H 0.19192 0.93481 0.2446 0.0
C403 C 0.24249 0.85977 0.35102 0.0
C404 C 0.17382 0.79385 0.26974 0.0
C405 C 0.20655 0.81517 0.48782 0.0
C406 C 0.21636 0.8365 0.56715 0.0
C407 C 0.19629 0.86166 0.50906 0.0
C408 C 0.19597 0.83883 0.47618 0.0
C409 C 0.20649 0.86064 0.55412 0.0
C410 C 0.21647 0.81383 0.53343 0.0
C411 C 0.20682 0.7916 0.45263 0.0
H412 H 0.28911 0.75411 0.11576 0.0
H413 H 0.29357 0.79331 0.17742 0.0
H414 H 0.27736 0.76366 0.03664 0.0
H415 H 0.27305 0.85382 0.0802 0.0
H416 H 0.18825 0.87999 0.4997 0.0
H417 H 0.18733 0.83948 0.44167 0.0
H418 H 0.20574 0.87819 0.57907 0.0
H419 H 0.22436 0.7953 0.54253 0.0
C420 C 0.38052 0.26645 0.64722 0.0
C421 C 0.42707 0.32602 0.64929 0.0
C422 C 0.41526 0.29028 0.65106 0.0
C423 C 0.40286 0.33725 0.64681 0.0
C424 C 0.35621 0.27742 0.64159 0.0
C425 C 0.36743 0.31295 0.64299 0.0
N426 N 0.37094 0.23256 0.6449 0.0
C427 C 0.33786 0.2083 0.63339 0.0
C428 C 0.32172 0.25244 0.63263 0.0
C429 C 0.31265 0.21779 0.62756 0.0
Gd430 Gd 0.41192 0.16165 0.77421 0.0
Gd431 Gd 0.41397 0.21826 0.65891 0.0
N432 N 0.43772 0.27837 0.65223 0.0
C433 C 0.46281 0.3492 0.64791 0.0
C434 C 0.47242 0.30059 0.64729 0.0
C435 C 0.48557 0.33638 0.64601 0.0
H436 H 0.48997 0.2906 0.64574 0.0
H437 H 0.51319 0.354 0.64351 0.0
H438 H 0.3501 0.16727 0.83728 0.0
H439 H 0.33069 0.18145 0.63 0.0
H440 H 0.28682 0.1343 0.84587 0.0
H441 H 0.47299 0.37688 0.64653 0.0
H442 H 0.41134 0.36461 0.64603 0.0
H443 H 0.4352 0.10474 0.74528 0.0
H444 H 0.3022 0.25976 0.62805 0.0
H445 H 0.28625 0.19838 0.61952 0.0
H446 H 0.25252 0.02698 0.7689 0.0
H447 H 0.34912 0.32193 0.63936 0.0
H448 H 0.34346 0.00736 0.71863 0.0
H449 H 0.40741 0.04352 0.72001 0.0
N450 N 0.38742 0.10262 0.75784 0.0
C451 C 0.35249 0.08294 0.75913 0.0
C452 C 0.40729 0.08873 0.74548 0.0
C453 C 0.35554 0.03401 0.72999 0.0
C454 C 0.39165 0.05429 0.73089 0.0
C455 C 0.33547 0.0481 0.74493 0.0
H456 H 0.28553 0.00169 0.73583 0.0
N457 N 0.35194 0.13052 0.79231 0.0
C458 C 0.33406 0.09745 0.7767 0.0
C459 C 0.28056 0.0912 0.80551 0.0
C460 C 0.29785 0.07709 0.78203 0.0
C461 C 0.33563 0.14281 0.81969 0.0
C462 C 0.29968 0.12386 0.82549 0.0
O463 O 0.45132 0.25194 0.71569 0.0
O464 O 0.43975 0.21974 0.78403 0.0
O465 O 0.40929 0.146 0.84605 0.0
O466 O 0.45706 0.16624 0.80868 0.0
O467 O 0.4635 0.22239 0.68478 0.0
O468 O 0.4515 0.17068 0.71879 0.0
O469 O 0.40383 0.14201 0.70146 0.0
O470 O 0.37135 0.16349 0.67288 0.0
O471 O 0.42614 0.18899 0.60994 0.0
O472 O 0.41769 0.2296 0.5857 0.0
O473 O 0.39172 0.19868 0.77956 0.0
O474 O 0.36887 0.19372 0.70803 0.0
C475 C 0.45481 0.24917 0.76062 0.0
C476 C 0.46999 0.19709 0.69094 0.0
C477 C 0.461 0.18331 0.88679 0.0
C478 C 0.46673 0.20001 0.9683 0.0
C479 C 0.50751 0.23965 0.91145 0.0
C480 C 0.49018 0.2157 0.87673 0.0
C481 C 0.49605 0.23194 0.95672 0.0
C482 C 0.44943 0.17553 0.9329 0.0
C483 C 0.44246 0.15831 0.84898 0.0
C484 C 0.28039 0.04285 0.76576 0.0
C485 C 0.29919 0.0284 0.74711 0.0
H486 H 0.25276 0.07643 0.81043 0.0
C487 C 0.37817 0.13834 0.67587 0.0
C488 C 0.37253 0.20431 0.75067 0.0
C489 C 0.40039 0.18178 0.53669 0.0
C490 C 0.39159 0.16269 0.4563 0.0
C491 C 0.34439 0.13534 0.51153 0.0
C492 C 0.36569 0.15748 0.54592 0.0
C493 C 0.35721 0.13772 0.46717 0.0
C494 C 0.41323 0.18473 0.49156 0.0
C495 C 0.42269 0.20441 0.57402 0.0
H496 H 0.52998 0.26442 0.90319 0.0
H497 H 0.49967 0.22279 0.84188 0.0
H498 H 0.51054 0.25104 0.98285 0.0
H499 H 0.42673 0.15085 0.94094 0.0
H500 H 0.31767 0.11652 0.51915 0.0
H501 H 0.35508 0.15583 0.57975 0.0
H502 H 0.33984 0.12064 0.44095 0.0
H503 H 0.43986 0.20396 0.48398 0.0
C504 C 0.36979 0.24608 0.80454 0.0
C505 C 0.35533 0.22303 0.76753 0.0
C506 C 0.35351 0.26333 0.8219 0.0
C507 C 0.29267 0.29253 0.793 0.0
H508 H 0.28134 0.29364 0.9251 0.0
C509 C 0.24769 0.37871 0.88222 0.0
C510 C 0.22148 0.36227 0.91529 0.0
C511 C 0.2643 0.36194 0.86416 0.0
C512 C 0.28425 0.29344 0.88816 0.0
H513 H 0.3117 0.19874 0.72121 0.0
H514 H 0.28382 0.23013 0.75017 0.0
H515 H 0.30953 0.26364 0.89275 0.0
H516 H 0.19078 0.31491 0.95366 0.0
H517 H 0.2208 0.28602 0.92363 0.0
H518 H 0.26749 0.32249 0.78849 0.0
C519 C 0.30804 0.23512 0.76529 0.0
C520 C 0.30057 0.27651 0.86968 0.0
C521 C 0.32416 0.21748 0.74832 0.0
C522 C 0.21195 0.3287 0.92976 0.0
C523 C 0.22885 0.31206 0.91216 0.0
C524 C 0.27672 0.30985 0.81154 0.0
C525 C 0.32245 0.25801 0.80253 0.0
C526 C 0.3049 0.27584 0.82192 0.0
C527 C 0.25505 0.32844 0.87896 0.0
C528 C 0.27228 0.3104 0.8593 0.0
H529 H 0.39379 0.25087 0.82014 0.0
H530 H 0.36536 0.28104 0.85035 0.0
H531 H 0.29587 0.29259 0.7561 0.0
H532 H 0.25537 0.40459 0.87035 0.0
H533 H 0.28456 0.37526 0.83884 0.0
C534 C 0.09284 0.38398 0.06554 0.0
C535 C 0.10684 0.36485 0.04664 0.0
C536 C 0.0667 0.36919 0.09858 0.0
C537 C 0.02866 0.33932 0.18801 0.0
H538 H 0.94946 0.24707 0.1729 0.0
C539 C 0.90068 0.23356 0.2971 0.0
C540 C 0.88834 0.25532 0.31153 0.0
C541 C 0.92832 0.24562 0.26608 0.0
C542 C 0.97166 0.27267 0.1779 0.0
H543 H 0.10351 0.31486 0.04542 0.0
H544 H 0.05754 0.28877 0.10341 0.0
H545 H 0.99556 0.27032 0.11519 0.0
H546 H 0.89556 0.30688 0.30586 0.0
H547 H 0.94377 0.32798 0.25207 0.0
H548 H 0.00468 0.34191 0.25034 0.0
C549 C 0.06698 0.3153 0.09294 0.0
C550 C 0.99803 0.28599 0.14485 0.0
C551 C 0.0934 0.33025 0.06009 0.0
C552 C 0.90455 0.28953 0.29528 0.0
C553 C 0.93223 0.30163 0.2646 0.0
C554 C 0.00235 0.32605 0.22094 0.0
C555 C 0.0537 0.3348 0.11305 0.0
C556 C 0.02657 0.31967 0.14923 0.0
C557 C 0.94434 0.27979 0.24944 0.0
C558 C 0.97333 0.29278 0.21596 0.0
H559 H 0.10253 0.41063 0.05537 0.0
H560 H 0.05653 0.38468 0.11268 0.0
H561 H 0.05068 0.36505 0.1929 0.0
H562 H 0.88902 0.20727 0.30989 0.0
H563 H 0.93735 0.22832 0.25544 0.0
C564 C 0.78599 0.11574 0.42785 0.0
C565 C 0.77439 0.13822 0.44168 0.0
C566 C 0.77128 0.08243 0.44646 0.0
C567 C 0.71934 0.00718 0.4706 0.0
H568 H 0.70494 0.99312 0.6022 0.0
C569 C 0.63434 0.87249 0.55087 0.0
C570 C 0.64747 0.86384 0.58934 0.0
C571 C 0.65087 0.90628 0.53395 0.0
C572 C 0.70902 0.99672 0.56544 0.0
H573 H 0.73928 0.1442 0.48684 0.0
H574 H 0.71372 0.08601 0.5199 0.0
H575 H 0.73191 0.05182 0.57037 0.0
H576 H 0.68914 0.88352 0.63886 0.0
H577 H 0.71754 0.9433 0.61038 0.0
H578 H 0.69627 0.95216 0.46553 0.0
C579 C 0.73399 0.09402 0.49439 0.0
C580 C 0.72414 0.03022 0.5472 0.0
C581 C 0.74849 0.1272 0.4754 0.0
C582 C 0.67772 0.88974 0.61035 0.0
C583 C 0.69412 0.92381 0.59374 0.0
C584 C 0.7039 0.97371 0.48876 0.0
C585 C 0.74513 0.07122 0.47996 0.0
C586 C 0.72941 0.03578 0.49957 0.0
C587 C 0.68093 0.93234 0.55514 0.0
C588 C 0.69848 0.9681 0.53634 0.0
H589 H 0.80681 0.12406 0.40313 0.0
H590 H 0.78076 0.06564 0.43519 0.0
H591 H 0.72284 0.01063 0.43375 0.0
H592 H 0.61105 0.85315 0.53386 0.0
H593 H 0.63988 0.91211 0.50447 0.0
C594 C 0.67491 0.77058 0.7262 0.0
C595 C 0.64318 0.74566 0.70709 0.0
C596 C 0.69277 0.76066 0.75633 0.0
C597 C 0.70393 0.68836 0.79186 0.0
H598 H 0.72344 0.73005 0.91299 0.0
C599 C 0.72666 0.65053 0.98303 0.0
C600 C 0.75446 0.64466 0.97683 0.0
C601 C 0.71779 0.66657 0.94881 0.0
C602 C 0.7184 0.71841 0.87918 0.0
H603 H 0.60592 0.69074 0.70322 0.0
H604 H 0.63781 0.67336 0.7543 0.0
H605 H 0.69954 0.75083 0.85349 0.0
H606 H 0.79487 0.65121 0.92963 0.0
H607 H 0.77855 0.67838 0.86895 0.0
H608 H 0.72241 0.65565 0.81778 0.0
C609 C 0.64865 0.70057 0.74635 0.0
C610 C 0.70493 0.7304 0.84514 0.0
C611 C 0.63046 0.71053 0.71701 0.0
C612 C 0.7734 0.65547 0.93557 0.0
C613 C 0.76402 0.67089 0.9008 0.0
C614 C 0.71801 0.67679 0.82568 0.0
C615 C 0.67962 0.72558 0.76697 0.0
C616 C 0.697 0.71507 0.80142 0.0
C617 C 0.73606 0.6765 0.90713 0.0
C618 C 0.72475 0.69127 0.86991 0.0
H619 H 0.68558 0.79782 0.71868 0.0
H620 H 0.71672 0.78042 0.77158 0.0
H621 H 0.6981 0.67619 0.75836 0.0
H622 H 0.7114 0.64242 0.01412 0.0
H623 H 0.6959 0.67026 0.95441 0.0
C624 C 0.12666 0.74873 0.22161 0.0
C625 C 0.13811 0.7766 0.25215 0.0
C626 C 0.0929 0.73252 0.20438 0.0
C627 C 0.00605 0.71845 0.22801 0.0
H628 H 0.99068 0.69833 0.09772 0.0
C629 C 0.88967 0.67302 0.08572 0.0
C630 C 0.86308 0.64349 0.10744 0.0
C631 C 0.92316 0.68992 0.10392 0.0
C632 C 0.9946 0.70398 0.13412 0.0
H633 H 0.12427 0.81071 0.28679 0.0
H634 H 0.0649 0.78187 0.25766 0.0
H635 H 0.04954 0.72614 0.12838 0.0
H636 H 0.85037 0.60933 0.16628 0.0
H637 H 0.90866 0.63922 0.19847 0.0
H638 H 0.9511 0.69625 0.23375 0.0
C639 C 0.08173 0.77211 0.24768 0.0
C640 C 0.02823 0.71956 0.15173 0.0
C641 C 0.11557 0.78846 0.26454 0.0
C642 C 0.87032 0.63204 0.14872 0.0
C643 C 0.90369 0.64914 0.16719 0.0
C644 C 0.97238 0.70254 0.21048 0.0
C645 C 0.07005 0.74399 0.21737 0.0
C646 C 0.03431 0.72704 0.19882 0.0
C647 C 0.93057 0.67801 0.14469 0.0
C648 C 0.96632 0.69523 0.16332 0.0
H649 H 0.14373 0.73928 0.21139 0.0
H650 H 0.08454 0.71079 0.18126 0.0
H651 H 0.00997 0.7237 0.26451 0.0
H652 H 0.88466 0.68295 0.05448 0.0
H653 H 0.94325 0.71245 0.08624 0.0
C654 C 0.38098 0.09489 0.62561 0.0
C655 C 0.36179 0.10912 0.64364 0.0
C656 C 0.3663 0.06842 0.59319 0.0
C657 C 0.33702 0.03048 0.50388 0.0
H658 H 0.24523 0.95058 0.51959 0.0
C659 C 0.23267 0.90155 0.39632 0.0
C660 C 0.25468 0.88927 0.38275 0.0
C661 C 0.24441 0.92944 0.42667 0.0
C662 C 0.2707 0.97299 0.51445 0.0
H663 H 0.31185 0.10593 0.64401 0.0
H664 H 0.28588 0.05923 0.58716 0.0
H665 H 0.26787 0.99689 0.57681 0.0
H666 H 0.30631 0.89681 0.38924 0.0
H667 H 0.32689 0.94555 0.44191 0.0
H668 H 0.3401 0.00649 0.44191 0.0
C669 C 0.31236 0.06875 0.59788 0.0
C670 C 0.28366 -0.00055 0.54719 0.0
C671 C 0.3272 0.09552 0.63012 0.0
C672 C 0.2888 0.90578 0.39916 0.0
C673 C 0.3006 0.93374 0.42918 0.0
C674 C 0.32411 0.00408 0.47124 0.0
C675 C 0.332 0.05537 0.57849 0.0
C676 C 0.31718 0.0282 0.54259 0.0
C677 C 0.27849 0.94574 0.44351 0.0
C678 C 0.29103 0.97483 0.4765 0.0
H679 H 0.40765 0.10478 0.63576 0.0
H680 H 0.38185 0.05816 0.57959 0.0
H681 H 0.36264 0.05269 0.49887 0.0
H682 H 0.20641 0.88961 0.38344 0.0
H683 H 0.22693 0.9384 0.43673 0.0
C684 C 0.20978 0.4611 0.63989 0.0
C685 C 0.18058 0.45292 0.66708 0.0
C686 C 0.2064 0.45279 0.59316 0.0
C687 C 0.14436 0.39811 0.50285 0.0
H688 H 0.21084 0.46914 0.42116 0.0
C689 C 0.13056 0.38401 0.30477 0.0
C690 C 0.1609 0.3954 0.2786 0.0
C691 C 0.13228 0.39156 0.35173 0.0
C692 C 0.19228 0.44878 0.44336 0.0
H693 H 0.12463 0.42809 0.66634 0.0
H694 H 0.11863 0.41322 0.58455 0.0
H695 H 0.21472 0.47943 0.5036 0.0
H696 H 0.21691 0.42419 0.28158 0.0
H697 H 0.22003 0.43719 0.36342 0.0
H698 H 0.12212 0.36728 0.44264 0.0
C699 C 0.14425 0.42618 0.59961 0.0
C700 C 0.19449 0.45472 0.49082 0.0
C701 C 0.14766 0.43462 0.64658 0.0
C702 C 0.19303 0.41538 0.30047 0.0
C703 C 0.19477 0.4228 0.34756 0.0
C704 C 0.14223 0.39208 0.45532 0.0
C705 C 0.17369 0.43588 0.57205 0.0
C706 C 0.17069 0.42942 0.52132 0.0
C707 C 0.16441 0.41064 0.37408 0.0
C708 C 0.16624 0.41729 0.42481 0.0
H709 H 0.23551 0.47449 0.65466 0.0
H710 H 0.22958 0.45987 0.57343 0.0
H711 H 0.12579 0.37789 0.52523 0.0
H712 H 0.10534 0.36899 0.28893 0.0
H713 H 0.1083 0.38238 0.37051 0.0
C714 C 0.83136 0.24928 0.06388 0.0
C715 C 0.83623 0.22174 0.07714 0.0
C716 C 0.83035 0.25681 0.01729 0.0
C717 C 0.85588 0.24316 0.90111 0.0
H718 H 0.78753 0.26596 0.85898 0.0
C719 C 0.82865 0.25112 0.70725 0.0
C720 C 0.81992 0.27598 0.69378 0.0
C721 C 0.83247 0.24576 0.75391 0.0
C722 C 0.80716 0.26015 0.87013 0.0
H723 H 0.84292 0.18 0.05112 0.0
H724 H 0.84147 0.1933 0.97036 0.0
H725 H 0.79046 0.25455 0.9402 0.0
H726 H 0.81026 0.316 0.71875 0.0
H727 H 0.81741 0.30712 0.79962 0.0
H728 H 0.87262 0.24879 0.83103 0.0
C729 C 0.83902 0.20948 0.99597 0.0
C730 C 0.80879 0.25355 0.91684 0.0
C731 C 0.83988 0.20188 0.04244 0.0
C732 C 0.81636 0.29618 0.72796 0.0
C733 C 0.82033 0.29097 0.77444 0.0
C734 C 0.85433 0.24988 0.85437 0.0
C735 C 0.83428 0.23706 0.9827 0.0
C736 C 0.83309 0.24486 0.93299 0.0
C737 C 0.82784 0.26529 0.78822 0.0
C738 C 0.82991 0.25843 0.83816 0.0
H739 H 0.8289 0.26543 0.0895 0.0
H740 H 0.82704 0.27849 0.00836 0.0
H741 H 0.87525 0.23701 0.91238 0.0
H742 H 0.83128 0.23492 0.68185 0.0
H743 H 0.83795 0.22554 0.7631 0.0
C744 C 0.54068 0.75957 0.31066 0.0
C745 C 0.54275 0.73482 0.33843 0.0
C746 C 0.54756 0.76172 0.26352 0.0
C747 C 0.59093 0.74047 0.17237 0.0
H748 H 0.52432 0.74603 0.09276 0.0
C749 C 0.60276 0.73884 0.97421 0.0
C750 C 0.59399 0.75979 0.94803 0.0
C751 C 0.59506 0.7335 0.02122 0.0
C752 C 0.54353 0.745 0.11428 0.0
H753 H 0.55559 0.69409 0.33804 0.0
H754 H 0.5685 0.6985 0.25555 0.0
H755 H 0.51586 0.74251 0.17564 0.0
H756 H 0.56969 0.79111 0.95074 0.0
H757 H 0.55689 0.78259 0.03282 0.0
H758 H 0.61922 0.74397 0.11134 0.0
C759 C 0.56109 0.71597 0.27057 0.0
C760 C 0.53856 0.74283 0.16198 0.0
C761 C 0.55384 0.71354 0.31793 0.0
C762 C 0.57641 0.77448 0.9698 0.0
C763 C 0.56906 0.76951 0.01703 0.0
C764 C 0.59617 0.74307 0.12462 0.0
C765 C 0.55721 0.73955 0.24261 0.0
C766 C 0.56227 0.74074 0.1917 0.0
C767 C 0.57871 0.74931 0.0437 0.0
C768 C 0.57261 0.74552 0.09473 0.0
H769 H 0.5332 0.7771 0.32525 0.0
H770 H 0.54514 0.78076 0.24331 0.0
H771 H 0.60985 0.73919 0.19425 0.0
H772 H 0.61604 0.72685 0.95835 0.0
H773 H 0.60216 0.71705 0.03992 0.0
C774 C 0.8018 0.59908 0.72266 0.0
C775 C 0.80037 0.56851 0.73784 0.0
C776 C 0.79249 0.60188 0.67759 0.0
C777 C 0.74454 0.54954 0.5759 0.0
H778 H 0.80158 0.635 0.50923 0.0
C779 C 0.72935 0.56123 0.38034 0.0
C780 C 0.73056 0.59161 0.36477 0.0
C781 C 0.7382 0.55856 0.4257 0.0
C782 C 0.78516 0.61107 0.52748 0.0
H783 H 0.78679 0.51647 0.71784 0.0
H784 H 0.77119 0.52153 0.63927 0.0
H785 H 0.81511 0.63002 0.58904 0.0
H786 H 0.74312 0.64342 0.38443 0.0
H787 H 0.75806 0.63861 0.46354 0.0
H788 H 0.71467 0.53056 0.51428 0.0
C789 C 0.77932 0.54333 0.66218 0.0
C790 C 0.79288 0.60823 0.57332 0.0
C791 C 0.78865 0.54056 0.70715 0.0
C792 C 0.74149 0.61948 0.39542 0.0
C793 C 0.75042 0.61686 0.44068 0.0
C794 C 0.73685 0.55236 0.53006 0.0
C795 C 0.78141 0.57413 0.64665 0.0
C796 C 0.7727 0.57741 0.59812 0.0
C797 C 0.74862 0.58627 0.45654 0.0
C798 C 0.75707 0.58316 0.50523 0.0
H799 H 0.81094 0.62119 0.74526 0.0
H800 H 0.79399 0.62582 0.66699 0.0
H801 H 0.72812 0.52559 0.59412 0.0
H802 H 0.7208 0.53918 0.35777 0.0
H803 H 0.73692 0.53478 0.43659 0.0
C804 C 0.24528 0.86489 0.64184 0.0
C805 C 0.22531 0.83454 0.61615 0.0
C806 C 0.25156 0.8632 0.68869 0.0
C807 C 0.24815 0.80271 0.78004 0.0
H808 H 0.2476 0.87049 0.86246 0.0
C809 C 0.24405 0.78525 0.97661 0.0
C810 C 0.26621 0.8142 0.00352 0.0
C811 C 0.23918 0.78884 0.9299 0.0
C812 C 0.24818 0.85156 0.8399 0.0
H813 H 0.19646 0.77854 0.61991 0.0
H814 H 0.20704 0.77549 0.7015 0.0
H815 H 0.23965 0.87429 0.78012 0.0
H816 H 0.29961 0.86995 1.00221 0.0
H817 H 0.2908 0.87629 0.92048 0.0
H818 H 0.25622 0.77975 0.83988 0.0
C819 C 0.21845 0.80071 0.68535 0.0
C820 C 0.24369 0.85375 0.79253 0.0
C821 C 0.21235 0.80242 0.63841 0.0
C822 C 0.28222 0.84711 0.98269 0.0
C823 C 0.27723 0.85073 0.93577 0.0
C824 C 0.25243 0.80042 0.82735 0.0
C825 C 0.23791 0.83109 0.71134 0.0
C826 C 0.24347 0.82926 0.76186 0.0
C827 C 0.25615 0.82151 0.90857 0.0
C828 C 0.25231 0.82468 0.858 0.0
H829 H 0.25611 0.89009 0.62569 0.0
H830 H 0.26726 0.88715 0.70709 0.0
H831 H 0.24888 0.78377 0.75767 0.0
H832 H 0.23057 0.75958 0.99161 0.0
H833 H 0.22209 0.76586 0.9104 0.0
C834 C 0.42047 0.19849 0.38572 0.0
C835 C 0.40368 0.16609 0.40773 0.0
C836 C 0.42783 0.20104 0.33851 0.0
C837 C 0.40178 0.14744 0.23128 0.0
H838 H 0.48156 0.22835 0.18018 0.0
C839 C 0.44401 0.16068 0.03817 0.0
C840 C 0.45507 0.19307 0.01742 0.0
C841 C 0.43681 0.15588 0.08554 0.0
C842 C 0.459 0.20565 0.19385 0.0
H843 H 0.38307 0.11114 0.39779 0.0
H844 H 0.39685 0.11559 0.31615 0.0
H845 H 0.47295 0.22325 0.26304 0.0
H846 H 0.4647 0.24502 0.03015 0.0
H847 H 0.45279 0.2368 0.11212 0.0
H848 H 0.38831 0.12975 0.16171 0.0
C849 C 0.40336 0.13904 0.33474 0.0
C850 C 0.45396 0.20276 0.24153 0.0
C851 C 0.39568 0.13647 0.38176 0.0
C852 C 0.45723 0.21998 0.04496 0.0
C853 C 0.45038 0.21529 0.09211 0.0
C854 C 0.40706 0.1502 0.18355 0.0
C855 C 0.41895 0.17128 0.31208 0.0
C856 C 0.42509 0.17376 0.26109 0.0
C857 C 0.4407 0.18342 0.11326 0.0
C858 C 0.43554 0.17953 0.16417 0.0
H859 H 0.42657 0.22174 0.40457 0.0
H860 H 0.43941 0.22633 0.32253 0.0
H861 H 0.37889 0.12495 0.24462 0.0
H862 H 0.44219 0.13941 0.01823 0.0
H863 H 0.4294 0.13097 0.10074 0.0
C864 C 0.22522 0.53146 0.03452 0.0
C865 C 0.19376 0.5043 0.01776 0.0
C866 C 0.226 0.55862 0.05916 0.0
C867 C 0.17412 0.57772 0.1359 0.0
H868 H 0.24083 0.67376 0.10949 0.0
C869 C 0.1808 0.69176 0.24048 0.0
C870 C 0.21353 0.72136 0.2457 0.0
C871 C 0.17672 0.66451 0.21242 0.0
C872 C 0.22238 0.64707 0.11792 0.0
H873 H 0.13848 0.48438 0.01323 0.0
H874 H 0.13984 0.53174 0.05724 0.0
H875 H 0.23695 0.62855 0.05906 0.0
H876 H 0.26793 0.74485 0.22927 0.0
H877 H 0.26133 0.69713 0.18198 0.0
H878 H 0.16042 0.59591 0.19578 0.0
C879 C 0.16386 0.53204 0.05082 0.0
C880 C 0.22001 0.62123 0.0887 0.0
C881 C 0.16315 0.50518 0.02533 0.0
C882 C 0.24232 0.72255 0.22477 0.0
C883 C 0.23841 0.69526 0.19742 0.0
C884 C 0.17684 0.60355 0.16565 0.0
C885 C 0.19526 0.55883 0.0683 0.0
C886 C 0.19606 0.58631 0.09758 0.0
C887 C 0.20544 0.66626 0.18971 0.0
C888 C 0.20132 0.63858 0.15735 0.0
H889 H 0.2492 0.53144 0.02921 0.0
H890 H 0.25053 0.57887 0.07247 0.0
H891 H 0.15563 0.5509 0.14372 0.0
H892 H 0.1582 0.69045 0.25624 0.0
H893 H 0.15091 0.64273 0.20724 0.0
C894 C 0.72073 0.24599 0.4658 0.0
C895 C 0.71976 0.2175 0.44421 0.0
C896 C 0.69176 0.24221 0.4892 0.0
C897 C 0.61694 0.18014 0.55381 0.0
H898 H 0.58318 0.24385 0.53479 0.0
C899 C 0.49885 0.16762 0.65392 0.0
C900 C 0.49891 0.19824 0.66479 0.0
C901 C 0.5246 0.16854 0.62555 0.0
C902 C 0.59255 0.22614 0.54118 0.0
H903 H 0.68783 0.16291 0.42902 0.0
H904 H 0.63698 0.15604 0.47096 0.0
H905 H 0.62977 0.24812 0.4867 0.0
H906 H 0.52658 0.25394 0.65585 0.0
H907 H 0.57226 0.25584 0.60845 0.0
H908 H 0.58098 0.15904 0.60955 0.0
C909 C 0.66019 0.18129 0.46955 0.0
C910 C 0.61907 0.22845 0.51326 0.0
C911 C 0.68907 0.18525 0.44538 0.0
C912 C 0.52571 0.22986 0.64781 0.0
C913 C 0.55174 0.23087 0.62016 0.0
C914 C 0.59078 0.17817 0.58233 0.0
C915 C 0.6614 0.20973 0.49195 0.0
C916 C 0.63166 0.20563 0.51948 0.0
C917 C 0.5513 0.20019 0.60794 0.0
C918 C 0.57841 0.20136 0.57669 0.0
H919 H 0.74396 0.27121 0.46462 0.0
H920 H 0.69342 0.26451 0.50625 0.0
H921 H 0.62648 0.16247 0.55961 0.0
H922 H 0.47824 0.14279 0.66602 0.0
H923 H 0.52299 0.1443 0.61651 0.0
C924 C 0.27452 0.51602 0.87926 0.0
C925 C 0.27534 0.49003 0.90532 0.0
C926 C 0.30379 0.54023 0.85514 0.0
C927 C 0.38138 0.55304 0.79814 0.0
H928 H 0.41251 0.65072 0.81022 0.0
C929 C 0.50204 0.66011 0.70088 0.0
C930 C 0.50095 0.68967 0.68709 0.0
C931 C 0.47556 0.63482 0.72835 0.0
C932 C 0.40391 0.62354 0.80575 0.0
H933 H 0.30726 0.4688 0.9269 0.0
H934 H 0.35866 0.51108 0.88377 0.0
H935 H 0.36472 0.60874 0.85731 0.0
H936 H 0.47058 0.71511 0.68908 0.0
H937 H 0.42396 0.67065 0.73478 0.0
H938 H 0.41958 0.56757 0.74524 0.0
C939 C 0.33531 0.51271 0.88233 0.0
C940 C 0.37668 0.59954 0.83311 0.0
C941 C 0.3061 0.48878 0.9072 0.0
C942 C 0.47234 0.6928 0.69966 0.0
C943 C 0.44573 0.66739 0.72633 0.0
C944 C 0.40836 0.57706 0.77012 0.0
C945 C 0.33437 0.53866 0.85608 0.0
C946 C 0.36492 0.56406 0.82928 0.0
C947 C 0.44727 0.63841 0.74203 0.0
C948 C 0.41969 0.61264 0.77313 0.0
H949 H 0.25128 0.51778 0.87786 0.0
H950 H 0.30232 0.55988 0.83505 0.0
H951 H 0.37259 0.52575 0.79433 0.0
H952 H 0.52397 0.65722 0.69199 0.0
H953 H 0.47785 0.61305 0.73997 0.0
C954 C 0.81613 0.32238 0.29475 0.0
C955 C 0.805 0.31318 0.34035 0.0
C956 C 0.81546 0.35012 0.27387 0.0
C957 C 0.76781 0.39383 0.26807 0.0
H958 H 0.84937 0.46891 0.2104 0.0
C959 C 0.75971 0.49917 0.16264 0.0
C960 C 0.78099 0.51254 0.12365 0.0
C961 C 0.76419 0.47783 0.19363 0.0
C962 C 0.82619 0.44793 0.22568 0.0
H963 H 0.78459 0.32554 0.40018 0.0
H964 H 0.782 0.37371 0.36262 0.0
H965 H 0.85461 0.42634 0.25688 0.0
H966 H 0.82422 0.51444 0.08731 0.0
H967 H 0.83066 0.47562 0.13931 0.0
H968 H 0.73881 0.41364 0.23477 0.0
C969 C 0.79183 0.35967 0.34359 0.0
C970 C 0.82936 0.42382 0.25276 0.0
C971 C 0.79338 0.33234 0.36501 0.0
C972 C 0.80707 0.50429 0.11659 0.0
C973 C 0.81109 0.48233 0.14702 0.0
C974 C 0.76447 0.41751 0.24019 0.0
C975 C 0.8029 0.36872 0.29783 0.0
C976 C 0.80016 0.39641 0.27379 0.0
C977 C 0.78971 0.46875 0.18607 0.0
C978 C 0.79356 0.4447 0.21807 0.0
H979 H 0.82543 0.30809 0.27519 0.0
H980 H 0.82391 0.35648 0.2385 0.0
H981 H 0.74486 0.37258 0.28349 0.0
H982 H 0.73973 0.5055 0.1696 0.0
H983 H 0.74773 0.4687 0.22372 0.0
C984 C 0.30168 0.7802 0.39609 0.0
C985 C 0.30716 0.79796 0.35409 0.0
C986 C 0.32901 0.78022 0.41911 0.0
C987 C 0.41473 0.79063 0.40768 0.0
H988 H 0.42363 0.8162 0.53638 0.0
C989 C 0.52726 0.80278 0.51936 0.0
C990 C 0.51957 0.7908 0.56495 0.0
C991 C 0.50305 0.80593 0.49259 0.0
C992 C 0.42132 0.80856 0.50069 0.0
H993 H 0.34579 0.82825 0.30245 0.0
H994 H 0.39367 0.82759 0.34273 0.0
H995 H 0.37821 0.81614 0.49014 0.0
H996 H 0.48023 0.77231 0.61797 0.0
H997 H 0.4377 0.77716 0.57121 0.0
H998 H 0.45708 0.78189 0.41844 0.0
C999 C 0.36799 0.81401 0.3577 0.0
C1000 C 0.3954 0.80873 0.47415 0.0
C1001 C 0.34057 0.81437 0.3347 0.0
C1002 C 0.48721 0.78228 0.58331 0.0
C1003 C 0.46282 0.78508 0.55638 0.0
C1004 C 0.44049 0.79005 0.43441 0.0
C1005 C 0.36254 0.79764 0.40068 0.0
C1006 C 0.39159 0.79943 0.42754 0.0
C1007 C 0.47033 0.79676 0.51054 0.0
C1008 C 0.44391 0.79871 0.48143 0.0
H1009 H 0.27641 0.76699 0.4122 0.0
H1010 H 0.32396 0.76689 0.4518 0.0
H1011 H 0.41219 0.78313 0.37189 0.0
H1012 H 0.55197 0.80952 0.5041 0.0
H1013 H 0.51003 0.81549 0.45776 0.0
C1014 C 0.6544 0.48116 0.01924 0.0
C1015 C 0.68056 0.50918 0.99456 0.0
C1016 C 0.62606 0.4544 0.99623 0.0
C1017 C 0.58012 0.43086 0.88348 0.0
H1018 H 0.55348 0.33731 0.9203 0.0
C1019 C 0.50285 0.3112 0.76668 0.0
C1020 C 0.47699 0.2808 0.78765 0.0
C1021 C 0.52477 0.34013 0.79327 0.0
C1022 C 0.5603 0.36327 0.90992 0.0
H1023 H 0.69659 0.53174 0.9265 0.0
H1024 H 0.64796 0.48511 0.88668 0.0
H1025 H 0.59609 0.38602 0.96542 0.0
H1026 H 0.45327 0.25736 0.85309 0.0
H1027 H 0.49158 0.30747 0.89915 0.0
H1028 H 0.54496 0.40794 0.82715 0.0
C1029 C 0.64891 0.4838 0.92377 0.0
C1030 C 0.58464 0.39122 0.93591 0.0
C1031 C 0.67706 0.51048 0.94669 0.0
C1032 C 0.47315 0.28021 0.8357 0.0
C1033 C 0.49512 0.30893 0.86222 0.0
C1034 C 0.55594 0.4029 0.85732 0.0
C1035 C 0.62332 0.45513 0.94809 0.0
C1036 C 0.59516 0.42539 0.92274 0.0
C1037 C 0.52141 0.33909 0.8414 0.0
C1038 C 0.54601 0.36883 0.87003 0.0
H1039 H 0.65627 0.47933 0.05613 0.0
H1040 H 0.60654 0.43291 0.01609 0.0
H1041 H 0.5872 0.4568 0.87276 0.0
H1042 H 0.50699 0.31234 0.73001 0.0
H1043 H 0.54509 0.3629 0.77629 0.0
loop_
_geom_bond_atom_site_label_1
_geom_bond_atom_site_label_2
_geom_bond_distance
_geom_bond_site_symmetry_2
_ccdc_geom_bond_type
C0 C2 1.422 . S
C0 C4 1.415 . S
C0 N6 1.369 . S
C1 C2 1.421 . S
C1 C3 1.417 . S
C1 C13 1.422 . S
C2 C0 1.422 . S
C2 C1 1.421 . S
C2 N12 1.359 . S
C3 C1 1.417 . S
C3 C5 1.329 . S
C3 H22 0.930 . S
C4 C0 1.415 . S
C4 C5 1.437 . S
C4 C8 1.413 . S
C5 C3 1.329 . S
C5 C4 1.437 . S
C5 H27 0.929 . S
N6 C0 1.369 . S
N6 C7 1.338 . S
N6 Gd11 2.622 . S
C7 N6 1.338 . S
C7 C9 1.378 . S
C7 H19 0.929 . S
C8 C4 1.413 . S
C8 C9 1.348 . S
C8 H24 0.931 . S
C9 C7 1.378 . S
C9 C8 1.348 . S
C9 H25 0.930 . S
Gd10 N30 2.622 . S
Gd10 N37 2.570 . S
Gd10 O44 2.353 . S
Gd10 O45 2.468 . S
Gd10 O46 2.427 . S
Gd10 O48 2.388 . S
Gd10 O49 2.386 1_556 S
Gd10 O53 2.307 . S
Gd10 C63 2.805 . S
Gd11 N6 2.622 . S
Gd11 N12 2.570 . S
Gd11 O43 2.386 1_554 S
Gd11 O47 2.307 . S
Gd11 O50 2.353 . S
Gd11 O51 2.468 . S
Gd11 O52 2.427 . S
Gd11 O54 2.388 . S
Gd11 C75 2.805 . S
N12 C2 1.359 . S
N12 Gd11 2.570 . S
N12 C14 1.343 . S
C13 C1 1.422 . S
C13 C15 1.321 . S
C13 H21 0.931 . S
C14 N12 1.343 . S
C14 C15 1.390 . S
C14 H16 0.931 . S
C15 C13 1.321 . S
C15 C14 1.390 . S
C15 H17 0.930 . S
H16 C14 0.931 . S
H17 C15 0.930 . S
H18 C41 0.931 . S
H19 C7 0.929 . S
H20 C42 0.930 . S
H21 C13 0.931 . S
H22 C3 0.930 . S
H23 C32 0.929 . S
H24 C8 0.931 . S
H25 C9 0.930 . S
H26 C64 0.930 . S
H27 C5 0.929 . S
H28 C33 0.931 . S
H29 C34 0.930 . S
N30 Gd10 2.622 . S
N30 C31 1.369 . S
N30 C32 1.338 . S
C31 N30 1.369 . S
C31 C35 1.415 . S
C31 C38 1.422 . S
C32 H23 0.929 . S
C32 N30 1.338 . S
C32 C34 1.378 . S
C33 H28 0.931 . S
C33 C34 1.348 . S
C33 C35 1.413 . S
C34 H29 0.930 . S
C34 C32 1.378 . S
C34 C33 1.348 . S
C35 C31 1.415 . S
C35 C33 1.413 . S
C35 C65 1.437 . S
H36 C65 0.957 . S
N37 Gd10 2.570 . S
N37 C38 1.359 . S
N37 C41 1.343 . S
C38 C31 1.422 . S
C38 N37 1.359 . S
C38 C40 1.421 . S
C39 C40 1.422 . S
C39 C42 1.321 . S
C39 H66 0.931 . S
C40 C38 1.421 . S
C40 C39 1.422 . S
C40 C64 1.417 . S
C41 H18 0.931 . S
C41 N37 1.343 . S
C41 C42 1.390 . S
C42 H20 0.930 . S
C42 C39 1.321 . S
C42 C41 1.390 . S
O43 Gd11 2.386 1_556 S
O43 C55 1.265 . S
O44 Gd10 2.353 . S
O44 C55 1.242 . S
O45 Gd10 2.468 . S
O45 C63 1.263 . S
O46 Gd10 2.427 . S
O46 C63 1.252 . S
O47 Gd11 2.307 . S
O47 C56 1.261 . S
O48 Gd10 2.388 . S
O48 C56 1.252 1_556 S
O49 Gd10 2.386 1_554 S
O49 C67 1.265 . S
O50 Gd11 2.353 . S
O50 C67 1.242 . S
O51 Gd11 2.468 . S
O51 C75 1.263 . S
O52 Gd11 2.427 . S
O52 C75 1.252 . S
O53 Gd10 2.307 . S
O53 C68 1.261 . S
O54 Gd11 2.388 . S
O54 C68 1.252 1_554 S
C55 O43 1.265 . S
C55 O44 1.242 . S
C56 O47 1.261 . S
C56 O48 1.252 1_554 S
C57 C60 1.394 . S
C57 C62 1.370 . S
C57 C63 1.500 . S
C58 C61 1.383 . S
C58 C62 1.395 . S
C59 C60 1.396 . S
C59 C61 1.365 . S
C59 H76 0.929 . S
C60 C57 1.394 . S
C60 C59 1.396 . S
C60 H77 0.930 . S
C61 C58 1.383 . S
C61 C59 1.365 . S
C61 H78 0.931 . S
C62 C57 1.370 . S
C62 C58 1.395 . S
C62 H79 0.930 . S
C63 Gd10 2.805 . S
C63 O45 1.263 . S
C63 O46 1.252 . S
C63 C57 1.500 . S
C64 H26 0.930 . S
C64 C40 1.417 . S
C64 C65 1.329 . S
C65 C35 1.437 . S
C65 H36 0.957 . S
C65 C64 1.329 . S
H66 C39 0.931 . S
C67 O49 1.265 . S
C67 O50 1.242 . S
C68 O53 1.261 . S
C68 O54 1.252 1_556 S
C69 C72 1.394 . S
C69 C74 1.370 . S
C69 C75 1.500 . S
C70 C73 1.383 . S
C70 C74 1.395 . S
C71 C72 1.396 . S
C71 C73 1.365 . S
C71 H80 0.929 . S
C72 C69 1.394 . S
C72 C71 1.396 . S
C72 H81 0.930 . S
C73 C70 1.383 . S
C73 C71 1.365 . S
C73 H82 0.931 . S
C74 C69 1.370 . S
C74 C70 1.395 . S
C74 H83 0.930 . S
C75 Gd11 2.805 . S
C75 O51 1.263 . S
C75 O52 1.252 . S
C75 C69 1.500 . S
H76 C59 0.929 . S
H77 C60 0.930 . S
H78 C61 0.931 . S
H79 C62 0.930 . S
H80 C71 0.929 . S
H81 C72 0.930 . S
H82 C73 0.931 . S
H83 C74 0.930 . S
C84 C86 1.422 . S
C84 C88 1.415 . S
C84 N90 1.369 . S
C85 C86 1.421 . S
C85 C87 1.417 . S
C85 C97 1.422 . S
C86 C84 1.422 . S
C86 C85 1.421 . S
C86 N96 1.359 . S
C87 C85 1.417 . S
C87 C89 1.329 . S
C87 H106 0.930 . S
C88 C84 1.415 . S
C88 C89 1.437 . S
C88 C92 1.413 . S
C89 C87 1.329 . S
C89 C88 1.437 . S
C89 H111 0.929 . S
N90 C84 1.369 . S
N90 C91 1.338 . S
N90 Gd95 2.622 . S
C91 N90 1.338 . S
C91 C93 1.378 . S
C91 H103 0.929 . S
C92 C88 1.413 . S
C92 C93 1.348 . S
C92 H108 0.931 . S
C93 C91 1.378 . S
C93 C92 1.348 . S
C93 H109 0.930 . S
Gd94 N114 2.622 . S
Gd94 N121 2.570 . S
Gd94 O128 2.353 . S
Gd94 O129 2.468 . S
Gd94 O130 2.427 . S
Gd94 O132 2.388 . S
Gd94 O133 2.386 . S
Gd94 O137 2.307 . S
Gd94 C147 2.805 . S
Gd95 N90 2.622 . S
Gd95 N96 2.570 . S
Gd95 O127 2.386 . S
Gd95 O131 2.307 . S
Gd95 O134 2.353 . S
Gd95 O135 2.468 . S
Gd95 O136 2.427 . S
Gd95 O138 2.388 . S
Gd95 C159 2.805 . S
N96 C86 1.359 . S
N96 Gd95 2.570 . S
N96 C98 1.343 . S
C97 C85 1.422 . S
C97 C99 1.321 . S
C97 H105 0.931 . S
C98 N96 1.343 . S
C98 C99 1.390 . S
C98 H100 0.931 . S
C99 C97 1.321 . S
C99 C98 1.390 . S
C99 H101 0.930 . S
H100 C98 0.931 . S
H101 C99 0.930 . S
H102 C125 0.931 . S
H103 C91 0.929 . S
H104 C126 0.930 . S
H105 C97 0.931 . S
H106 C87 0.930 . S
H107 C116 0.929 . S
H108 C92 0.931 . S
H109 C93 0.930 . S
H110 C148 0.930 . S
H111 C89 0.929 . S
H112 C117 0.931 . S
H113 C118 0.930 . S
N114 Gd94 2.622 . S
N114 C115 1.369 . S
N114 C116 1.338 . S
C115 N114 1.369 . S
C115 C119 1.415 . S
C115 C122 1.422 . S
C116 H107 0.929 . S
C116 N114 1.338 . S
C116 C118 1.378 . S
C117 H112 0.931 . S
C117 C118 1.348 . S
C117 C119 1.413 . S
C118 H113 0.930 . S
C118 C116 1.378 . S
C118 C117 1.348 . S
C119 C115 1.415 . S
C119 C117 1.413 . S
C119 C149 1.437 . S
H120 C149 0.945 . S
N121 Gd94 2.570 . S
N121 C122 1.359 . S
N121 C125 1.343 . S
C122 C115 1.422 . S
C122 N121 1.359 . S
C122 C124 1.421 . S
C123 C124 1.422 . S
C123 C126 1.321 . S
C123 H150 0.931 . S
C124 C122 1.421 . S
C124 C123 1.422 . S
C124 C148 1.417 . S
C125 H102 0.931 . S
C125 N121 1.343 . S
C125 C126 1.390 . S
C126 H104 0.930 . S
C126 C123 1.321 . S
C126 C125 1.390 . S
O127 Gd95 2.386 . S
O127 C139 1.265 . S
O128 Gd94 2.353 . S
O128 C139 1.242 . S
O129 Gd94 2.468 . S
O129 C147 1.263 . S
O130 Gd94 2.427 . S
O130 C147 1.252 . S
O131 Gd95 2.307 . S
O131 C140 1.261 . S
O132 Gd94 2.388 . S
O132 C140 1.252 . S
O133 Gd94 2.386 . S
O133 C151 1.265 . S
O134 Gd95 2.353 . S
O134 C151 1.242 . S
O135 Gd95 2.468 . S
O135 C159 1.263 . S
O136 Gd95 2.427 . S
O136 C159 1.252 . S
O137 Gd94 2.307 . S
O137 C152 1.261 . S
O138 Gd95 2.388 . S
O138 C152 1.252 . S
C139 O127 1.265 . S
C139 O128 1.242 . S
C140 O131 1.261 . S
C140 O132 1.252 . S
C141 C144 1.394 . S
C141 C146 1.370 . S
C141 C147 1.500 . S
C142 C145 1.383 . S
C142 C146 1.395 . S
C143 C144 1.396 . S
C143 C145 1.365 . S
C143 H160 0.929 . S
C144 C141 1.394 . S
C144 C143 1.396 . S
C144 H161 0.930 . S
C145 C142 1.383 . S
C145 C143 1.365 . S
C145 H162 0.931 . S
C146 C141 1.370 . S
C146 C142 1.395 . S
C146 H163 0.930 . S
C147 Gd94 2.805 . S
C147 O129 1.263 . S
C147 O130 1.252 . S
C147 C141 1.500 . S
C148 H110 0.930 . S
C148 C124 1.417 . S
C148 C149 1.329 . S
C149 C119 1.437 . S
C149 H120 0.945 . S
C149 C148 1.329 . S
H150 C123 0.931 . S
C151 O133 1.265 . S
C151 O134 1.242 . S
C152 O137 1.261 . S
C152 O138 1.252 . S
C153 C156 1.394 . S
C153 C158 1.370 . S
C153 C159 1.500 . S
C154 C157 1.383 . S
C154 C158 1.395 . S
C155 C156 1.396 . S
C155 C157 1.365 . S
C155 H164 0.929 . S
C156 C153 1.394 . S
C156 C155 1.396 . S
C156 H165 0.930 . S
C157 C154 1.383 . S
C157 C155 1.365 . S
C157 H166 0.931 . S
C158 C153 1.370 . S
C158 C154 1.395 . S
C158 H167 0.930 . S
C159 Gd95 2.805 . S
C159 O135 1.263 . S
C159 O136 1.252 . S
C159 C153 1.500 . S
H160 C143 0.929 . S
H161 C144 0.930 . S
H162 C145 0.931 . S
H163 C146 0.930 . S
H164 C155 0.929 . S
H165 C156 0.930 . S
H166 C157 0.931 . S
H167 C158 0.930 . S
C168 C170 1.422 . S
C168 C172 1.415 . S
C168 N174 1.369 . S
C169 C170 1.421 . S
C169 C171 1.417 . S
C169 C181 1.422 . S
C170 C168 1.422 . S
C170 C169 1.421 . S
C170 N180 1.359 . S
C171 C169 1.417 . S
C171 C173 1.329 . S
C171 H190 0.930 . S
C172 C168 1.415 . S
C172 C173 1.437 . S
C172 C176 1.413 . S
C173 C171 1.329 . S
C173 C172 1.437 . S
C173 H195 0.929 . S
N174 C168 1.369 . S
N174 C175 1.338 . S
N174 Gd179 2.622 . S
C175 N174 1.338 . S
C175 C177 1.378 . S
C175 H187 0.929 . S
C176 C172 1.413 . S
C176 C177 1.348 . S
C176 H192 0.931 . S
C177 C175 1.378 . S
C177 C176 1.348 . S
C177 H193 0.930 . S
Gd178 N198 2.622 . S
Gd178 N205 2.570 . S
Gd178 O212 2.353 . S
Gd178 O213 2.468 . S
Gd178 O214 2.427 . S
Gd178 O216 2.388 . S
Gd178 O217 2.386 . S
Gd178 O221 2.307 . S
Gd178 C231 2.805 . S
Gd179 N174 2.622 . S
Gd179 N180 2.570 . S
Gd179 O211 2.386 . S
Gd179 O215 2.307 . S
Gd179 O218 2.353 . S
Gd179 O219 2.468 . S
Gd179 O220 2.427 . S
Gd179 O222 2.388 . S
Gd179 C243 2.805 . S
N180 C170 1.359 . S
N180 Gd179 2.570 . S
N180 C182 1.343 . S
C181 C169 1.422 . S
C181 C183 1.321 . S
C181 H189 0.931 . S
C182 N180 1.343 . S
C182 C183 1.390 . S
C182 H184 0.931 . S
C183 C181 1.321 . S
C183 C182 1.390 . S
C183 H185 0.930 . S
H184 C182 0.931 . S
H185 C183 0.930 . S
H186 C209 0.931 . S
H187 C175 0.929 . S
H188 C210 0.930 . S
H189 C181 0.931 . S
H190 C171 0.930 . S
H191 C200 0.929 . S
H192 C176 0.931 . S
H193 C177 0.930 . S
H194 C232 0.930 . S
H195 C173 0.929 . S
H196 C201 0.931 . S
H197 C202 0.930 . S
N198 Gd178 2.622 . S
N198 C199 1.369 . S
N198 C200 1.338 . S
C199 N198 1.369 . S
C199 C203 1.415 . S
C199 C206 1.422 . S
C200 H191 0.929 . S
C200 N198 1.338 . S
C200 C202 1.378 . S
C201 H196 0.931 . S
C201 C202 1.348 . S
C201 C203 1.413 . S
C202 H197 0.930 . S
C202 C200 1.378 . S
C202 C201 1.348 . S
C203 C199 1.415 . S
C203 C201 1.413 . S
C203 C233 1.437 . S
H204 C233 0.929 . S
N205 Gd178 2.570 . S
N205 C206 1.359 . S
N205 C209 1.343 . S
C206 C199 1.422 . S
C206 N205 1.359 . S
C206 C208 1.421 . S
C207 C208 1.422 . S
C207 C210 1.321 . S
C207 H234 0.931 . S
C208 C206 1.421 . S
C208 C207 1.422 . S
C208 C232 1.417 . S
C209 H186 0.931 . S
C209 N205 1.343 . S
C209 C210 1.390 . S
C210 H188 0.930 . S
C210 C207 1.321 . S
C210 C209 1.390 . S
O211 Gd179 2.386 . S
O211 C223 1.265 . S
O212 Gd178 2.353 . S
O212 C223 1.242 . S
O213 Gd178 2.468 . S
O213 C231 1.263 . S
O214 Gd178 2.427 . S
O214 C231 1.252 . S
O215 Gd179 2.307 . S
O215 C224 1.261 . S
O216 Gd178 2.388 . S
O216 C224 1.252 . S
O217 Gd178 2.386 . S
O217 C235 1.265 . S
O218 Gd179 2.353 . S
O218 C235 1.242 . S
O219 Gd179 2.468 . S
O219 C243 1.263 . S
O220 Gd179 2.427 . S
O220 C243 1.252 . S
O221 Gd178 2.307 . S
O221 C236 1.261 . S
O222 Gd179 2.388 . S
O222 C236 1.252 . S
C223 O211 1.265 . S
C223 O212 1.242 . S
C224 O215 1.261 . S
C224 O216 1.252 . S
C225 C228 1.394 . S
C225 C230 1.370 . S
C225 C231 1.500 . S
C226 C229 1.383 . S
C226 C230 1.395 . S
C227 C228 1.396 . S
C227 C229 1.365 . S
C227 H244 0.929 . S
C228 C225 1.394 . S
C228 C227 1.396 . S
C228 H245 0.930 . S
C229 C226 1.383 . S
C229 C227 1.365 . S
C229 H246 0.931 . S
C230 C225 1.370 . S
C230 C226 1.395 . S
C230 H247 0.930 . S
C231 Gd178 2.805 . S
C231 O213 1.263 . S
C231 O214 1.252 . S
C231 C225 1.500 . S
C232 H194 0.930 . S
C232 C208 1.417 . S
C232 C233 1.329 . S
C233 C203 1.437 . S
C233 H204 0.929 . S
C233 C232 1.329 . S
H234 C207 0.931 . S
C235 O217 1.265 . S
C235 O218 1.242 . S
C236 O221 1.261 . S
C236 O222 1.252 . S
C237 C240 1.394 . S
C237 C242 1.370 . S
C237 C243 1.500 . S
C238 C241 1.383 . S
C238 C242 1.395 . S
C239 C240 1.396 . S
C239 C241 1.365 . S
C239 H248 0.929 . S
C240 C237 1.394 . S
C240 C239 1.396 . S
C240 H249 0.930 . S
C241 C238 1.383 . S
C241 C239 1.365 . S
C241 H250 0.931 . S
C242 C237 1.370 . S
C242 C238 1.395 . S
C242 H251 0.930 . S
C243 Gd179 2.805 . S
C243 O219 1.263 . S
C243 O220 1.252 . S
C243 C237 1.500 . S
H244 C227 0.929 . S
H245 C228 0.930 . S
H246 C229 0.931 . S
H247 C230 0.930 . S
H248 C239 0.929 . S
H249 C240 0.930 . S
H250 C241 0.931 . S
H251 C242 0.930 . S
C252 C254 1.422 . S
C252 C256 1.415 . S
C252 N258 1.369 . S
C253 C254 1.421 . S
C253 C255 1.417 . S
C253 C265 1.422 . S
C254 C252 1.422 . S
C254 C253 1.421 . S
C254 N264 1.359 . S
C255 C253 1.417 . S
C255 C257 1.329 . S
C255 H274 0.930 . S
C256 C252 1.415 . S
C256 C257 1.437 . S
C256 C260 1.413 . S
C257 C255 1.329 . S
C257 C256 1.437 . S
C257 H279 0.929 . S
N258 C252 1.369 . S
N258 C259 1.338 . S
N258 Gd263 2.622 . S
C259 N258 1.338 . S
C259 C261 1.378 . S
C259 H271 0.929 . S
C260 C256 1.413 . S
C260 C261 1.348 . S
C260 H276 0.931 . S
C261 C259 1.378 . S
C261 C260 1.348 . S
C261 H277 0.930 . S
Gd262 N282 2.622 . S
Gd262 N289 2.570 . S
Gd262 O296 2.353 . S
Gd262 O297 2.468 . S
Gd262 O298 2.427 . S
Gd262 O300 2.388 . S
Gd262 O301 2.386 . S
Gd262 O305 2.307 . S
Gd262 C315 2.805 . S
Gd263 N258 2.622 . S
Gd263 N264 2.570 . S
Gd263 O295 2.386 1_556 S
Gd263 O299 2.307 . S
Gd263 O302 2.353 . S
Gd263 O303 2.468 . S
Gd263 O304 2.427 . S
Gd263 O306 2.388 1_556 S
Gd263 C327 2.805 . S
N264 C254 1.359 . S
N264 Gd263 2.570 . S
N264 C266 1.343 . S
C265 C253 1.422 . S
C265 C267 1.321 . S
C265 H273 0.931 . S
C266 N264 1.343 . S
C266 C267 1.390 . S
C266 H268 0.931 . S
C267 C265 1.321 . S
C267 C266 1.390 . S
C267 H269 0.930 . S
H268 C266 0.931 . S
H269 C267 0.930 . S
H270 C293 0.931 . S
H271 C259 0.929 . S
H272 C294 0.930 . S
H273 C265 0.931 . S
H274 C255 0.930 . S
H275 C284 0.929 . S
H276 C260 0.931 . S
H277 C261 0.930 . S
H278 C316 0.930 . S
H279 C257 0.929 . S
H280 C285 0.931 . S
H281 C286 0.930 . S
N282 Gd262 2.622 . S
N282 C283 1.369 . S
N282 C284 1.338 . S
C283 N282 1.369 . S
C283 C287 1.415 . S
C283 C290 1.422 . S
C284 H275 0.929 . S
C284 N282 1.338 . S
C284 C286 1.378 . S
C285 H280 0.931 . S
C285 C286 1.348 . S
C285 C287 1.413 . S
C286 H281 0.930 . S
C286 C284 1.378 . S
C286 C285 1.348 . S
C287 C283 1.415 . S
C287 C285 1.413 . S
C287 C317 1.437 . S
H288 C317 0.929 . S
N289 Gd262 2.570 . S
N289 C290 1.359 . S
N289 C293 1.343 . S
C290 C283 1.422 . S
C290 N289 1.359 . S
C290 C292 1.421 . S
C291 C292 1.422 . S
C291 C294 1.321 . S
C291 H318 0.931 . S
C292 C290 1.421 . S
C292 C291 1.422 . S
C292 C316 1.417 . S
C293 H270 0.931 . S
C293 N289 1.343 . S
C293 C294 1.390 . S
C294 H272 0.930 . S
C294 C291 1.321 . S
C294 C293 1.390 . S
O295 Gd263 2.386 1_554 S
O295 C307 1.265 . S
O296 Gd262 2.353 . S
O296 C307 1.242 . S
O297 Gd262 2.468 . S
O297 C315 1.263 . S
O298 Gd262 2.427 . S
O298 C315 1.252 . S
O299 Gd263 2.307 . S
O299 C308 1.261 . S
O300 Gd262 2.388 . S
O300 C308 1.252 1_554 S
O301 Gd262 2.386 . S
O301 C319 1.265 1_554 S
O302 Gd263 2.353 . S
O302 C319 1.242 . S
O303 Gd263 2.468 . S
O303 C327 1.263 . S
O304 Gd263 2.427 . S
O304 C327 1.252 . S
O305 Gd262 2.307 . S
O305 C320 1.261 . S
O306 Gd263 2.388 1_554 S
O306 C320 1.252 . S
C307 O295 1.265 . S
C307 O296 1.242 . S
C308 O299 1.261 . S
C308 O300 1.252 1_556 S
C309 C312 1.394 . S
C309 C314 1.370 . S
C309 C315 1.500 . S
C310 C313 1.383 . S
C310 C314 1.395 . S
C311 C312 1.396 . S
C311 C313 1.365 . S
C311 H328 0.929 . S
C312 C309 1.394 . S
C312 C311 1.396 . S
C312 H329 0.930 . S
C313 C310 1.383 . S
C313 C311 1.365 . S
C313 H330 0.931 . S
C314 C309 1.370 . S
C314 C310 1.395 . S
C314 H331 0.930 . S
C315 Gd262 2.805 . S
C315 O297 1.263 . S
C315 O298 1.252 . S
C315 C309 1.500 . S
C316 H278 0.930 . S
C316 C292 1.417 . S
C316 C317 1.329 . S
C317 C287 1.437 . S
C317 H288 0.929 . S
C317 C316 1.329 . S
H318 C291 0.931 . S
C319 O301 1.265 1_556 S
C319 O302 1.242 . S
C320 O305 1.261 . S
C320 O306 1.252 . S
C321 C324 1.394 . S
C321 C326 1.370 . S
C321 C327 1.500 . S
C322 C325 1.383 . S
C322 C326 1.395 . S
C323 C324 1.396 . S
C323 C325 1.365 . S
C323 H332 0.929 . S
C324 C321 1.394 . S
C324 C323 1.396 . S
C324 H333 0.930 . S
C325 C322 1.383 . S
C325 C323 1.365 . S
C325 H334 0.931 . S
C326 C321 1.370 . S
C326 C322 1.395 . S
C326 H335 0.930 . S
C327 Gd263 2.805 . S
C327 O303 1.263 . S
C327 O304 1.252 . S
C327 C321 1.500 . S
H328 C311 0.929 . S
H329 C312 0.930 . S
H330 C313 0.931 . S
H331 C314 0.930 . S
H332 C323 0.929 . S
H333 C324 0.930 . S
H334 C325 0.931 . S
H335 C326 0.930 . S
C336 C338 1.422 . S
C336 C340 1.415 . S
C336 N342 1.369 . S
C337 C338 1.421 . S
C337 C339 1.417 . S
C337 C349 1.422 . S
C338 C336 1.422 . S
C338 C337 1.421 . S
C338 N348 1.359 . S
C339 C337 1.417 . S
C339 C341 1.329 . S
C339 H358 0.930 . S
C340 C336 1.415 . S
C340 C341 1.437 . S
C340 C344 1.413 . S
C341 C339 1.329 . S
C341 C340 1.437 . S
C341 H363 0.929 . S
N342 C336 1.369 . S
N342 C343 1.338 . S
N342 Gd347 2.622 . S
C343 N342 1.338 . S
C343 C345 1.378 . S
C343 H355 0.929 . S
C344 C340 1.413 . S
C344 C345 1.348 . S
C344 H360 0.931 . S
C345 C343 1.378 . S
C345 C344 1.348 . S
C345 H361 0.930 . S
Gd346 N366 2.622 . S
Gd346 N373 2.570 . S
Gd346 O380 2.353 . S
Gd346 O381 2.468 . S
Gd346 O382 2.427 . S
Gd346 O384 2.388 . S
Gd346 O385 2.386 . S
Gd346 O389 2.307 . S
Gd346 C399 2.805 . S
Gd347 N342 2.622 . S
Gd347 N348 2.570 . S
Gd347 O379 2.386 . S
Gd347 O383 2.307 . S
Gd347 O386 2.353 . S
Gd347 O387 2.468 . S
Gd347 O388 2.427 . S
Gd347 O390 2.388 . S
Gd347 C411 2.805 . S
N348 C338 1.359 . S
N348 Gd347 2.570 . S
N348 C350 1.343 . S
C349 C337 1.422 . S
C349 C351 1.321 . S
C349 H357 0.931 . S
C350 N348 1.343 . S
C350 C351 1.390 . S
C350 H352 0.931 . S
C351 C349 1.321 . S
C351 C350 1.390 . S
C351 H353 0.930 . S
H352 C350 0.931 . S
H353 C351 0.930 . S
H354 C377 0.931 . S
H355 C343 0.929 . S
H356 C378 0.930 . S
H357 C349 0.931 . S
H358 C339 0.930 . S
H359 C368 0.929 . S
H360 C344 0.931 . S
H361 C345 0.930 . S
H362 C400 0.930 . S
H363 C341 0.929 . S
H364 C369 0.931 . S
H365 C370 0.930 . S
N366 Gd346 2.622 . S
N366 C367 1.369 . S
N366 C368 1.338 . S
C367 N366 1.369 . S
C367 C371 1.415 . S
C367 C374 1.422 . S
C368 H359 0.929 . S
C368 N366 1.338 . S
C368 C370 1.378 . S
C369 H364 0.931 . S
C369 C370 1.348 . S
C369 C371 1.413 . S
C370 H365 0.930 . S
C370 C368 1.378 . S
C370 C369 1.348 . S
C371 C367 1.415 . S
C371 C369 1.413 . S
C371 C401 1.437 . S
H372 C401 0.945 . S
N373 Gd346 2.570 . S
N373 C374 1.359 . S
N373 C377 1.343 . S
C374 C367 1.422 . S
C374 N373 1.359 . S
C374 C376 1.421 . S
C375 C376 1.422 . S
C375 C378 1.321 . S
C375 H402 0.931 . S
C376 C374 1.421 . S
C376 C375 1.422 . S
C376 C400 1.417 . S
C377 H354 0.931 . S
C377 N373 1.343 . S
C377 C378 1.390 . S
C378 H356 0.930 . S
C378 C375 1.321 . S
C378 C377 1.390 . S
O379 Gd347 2.386 . S
O379 C391 1.265 . S
O380 Gd346 2.353 . S
O380 C391 1.242 . S
O381 Gd346 2.468 . S
O381 C399 1.263 . S
O382 Gd346 2.427 . S
O382 C399 1.252 . S
O383 Gd347 2.307 . S
O383 C392 1.261 . S
O384 Gd346 2.388 . S
O384 C392 1.252 . S
O385 Gd346 2.386 . S
O385 C403 1.265 . S
O386 Gd347 2.353 . S
O386 C403 1.242 . S
O387 Gd347 2.468 . S
O387 C411 1.263 . S
O388 Gd347 2.427 . S
O388 C411 1.252 . S
O389 Gd346 2.307 . S
O389 C404 1.261 . S
O390 Gd347 2.388 . S
O390 C404 1.252 . S
C391 O379 1.265 . S
C391 O380 1.242 . S
C392 O383 1.261 . S
C392 O384 1.252 . S
C393 C396 1.394 . S
C393 C398 1.370 . S
C393 C399 1.500 . S
C394 C397 1.383 . S
C394 C398 1.395 . S
C395 C396 1.396 . S
C395 C397 1.365 . S
C395 H412 0.929 . S
C396 C393 1.394 . S
C396 C395 1.396 . S
C396 H413 0.930 . S
C397 C394 1.383 . S
C397 C395 1.365 . S
C397 H414 0.931 . S
C398 C393 1.370 . S
C398 C394 1.395 . S
C398 H415 0.930 . S
C399 Gd346 2.805 . S
C399 O381 1.263 . S
C399 O382 1.252 . S
C399 C393 1.500 . S
C400 H362 0.930 . S
C400 C376 1.417 . S
C400 C401 1.329 . S
C401 C371 1.437 . S
C401 H372 0.945 . S
C401 C400 1.329 . S
H402 C375 0.931 . S
C403 O385 1.265 . S
C403 O386 1.242 . S
C404 O389 1.261 . S
C404 O390 1.252 . S
C405 C408 1.394 . S
C405 C410 1.370 . S
C405 C411 1.500 . S
C406 C409 1.383 . S
C406 C410 1.395 . S
C407 C408 1.396 . S
C407 C409 1.365 . S
C407 H416 0.929 . S
C408 C405 1.394 . S
C408 C407 1.396 . S
C408 H417 0.930 . S
C409 C406 1.383 . S
C409 C407 1.365 . S
C409 H418 0.931 . S
C410 C405 1.370 . S
C410 C406 1.395 . S
C410 H419 0.930 . S
C411 Gd347 2.805 . S
C411 O387 1.263 . S
C411 O388 1.252 . S
C411 C405 1.500 . S
H412 C395 0.929 . S
H413 C396 0.930 . S
H414 C397 0.931 . S
H415 C398 0.930 . S
H416 C407 0.929 . S
H417 C408 0.930 . S
H418 C409 0.931 . S
H419 C410 0.930 . S
C420 C422 1.422 . S
C420 C424 1.415 . S
C420 N426 1.369 . S
C421 C422 1.421 . S
C421 C423 1.417 . S
C421 C433 1.422 . S
C422 C420 1.422 . S
C422 C421 1.421 . S
C422 N432 1.359 . S
C423 C421 1.417 . S
C423 C425 1.329 . S
C423 H442 0.930 . S
C424 C420 1.415 . S
C424 C425 1.437 . S
C424 C428 1.413 . S
C425 C423 1.329 . S
C425 C424 1.437 . S
C425 H447 0.929 . S
N426 C420 1.369 . S
N426 C427 1.338 . S
N426 Gd431 2.622 . S
C427 N426 1.338 . S
C427 C429 1.378 . S
C427 H439 0.929 . S
C428 C424 1.413 . S
C428 C429 1.348 . S
C428 H444 0.931 . S
C429 C427 1.378 . S
C429 C428 1.348 . S
C429 H445 0.930 . S
Gd430 N450 2.622 . S
Gd430 N457 2.570 . S
Gd430 O464 2.353 . S
Gd430 O465 2.468 . S
Gd430 O466 2.427 . S
Gd430 O468 2.388 . S
Gd430 O469 2.386 . S
Gd430 O473 2.307 . S
Gd430 C483 2.805 . S
Gd431 N426 2.622 . S
Gd431 N432 2.570 . S
Gd431 O463 2.386 . S
Gd431 O467 2.307 . S
Gd431 O470 2.353 . S
Gd431 O471 2.468 . S
Gd431 O472 2.427 . S
Gd431 O474 2.388 . S
Gd431 C495 2.805 . S
N432 C422 1.359 . S
N432 Gd431 2.570 . S
N432 C434 1.343 . S
C433 C421 1.422 . S
C433 C435 1.321 . S
C433 H441 0.931 . S
C434 N432 1.343 . S
C434 C435 1.390 . S
C434 H436 0.931 . S
C435 C433 1.321 . S
C435 C434 1.390 . S
C435 H437 0.930 . S
H436 C434 0.931 . S
H437 C435 0.930 . S
H438 C461 0.931 . S
H439 C427 0.929 . S
H440 C462 0.930 . S
H441 C433 0.931 . S
H442 C423 0.930 . S
H443 C452 0.929 . S
H444 C428 0.931 . S
H445 C429 0.930 . S
H446 C484 0.930 . S
H447 C425 0.929 . S
H448 C453 0.931 . S
H449 C454 0.930 . S
N450 Gd430 2.622 . S
N450 C451 1.369 . S
N450 C452 1.338 . S
C451 N450 1.369 . S
C451 C455 1.415 . S
C451 C458 1.422 . S
C452 H443 0.929 . S
C452 N450 1.338 . S
C452 C454 1.378 . S
C453 H448 0.931 . S
C453 C454 1.348 . S
C453 C455 1.413 . S
C454 H449 0.930 . S
C454 C452 1.378 . S
C454 C453 1.348 . S
C455 C451 1.415 . S
C455 C453 1.413 . S
C455 C485 1.437 . S
H456 C485 0.957 . S
N457 Gd430 2.570 . S
N457 C458 1.359 . S
N457 C461 1.343 . S
C458 C451 1.422 . S
C458 N457 1.359 . S
C458 C460 1.421 . S
C459 C460 1.422 . S
C459 C462 1.321 . S
C459 H486 0.931 . S
C460 C458 1.421 . S
C460 C459 1.422 . S
C460 C484 1.417 . S
C461 H438 0.931 . S
C461 N457 1.343 . S
C461 C462 1.390 . S
C462 H440 0.930 . S
C462 C459 1.321 . S
C462 C461 1.390 . S
O463 Gd431 2.386 . S
O463 C475 1.265 . S
O464 Gd430 2.353 . S
O464 C475 1.242 . S
O465 Gd430 2.468 . S
O465 C483 1.263 . S
O466 Gd430 2.427 . S
O466 C483 1.252 . S
O467 Gd431 2.307 . S
O467 C476 1.261 . S
O468 Gd430 2.388 . S
O468 C476 1.252 . S
O469 Gd430 2.386 . S
O469 C487 1.265 . S
O470 Gd431 2.353 . S
O470 C487 1.242 . S
O471 Gd431 2.468 . S
O471 C495 1.263 . S
O472 Gd431 2.427 . S
O472 C495 1.252 . S
O473 Gd430 2.307 . S
O473 C488 1.261 . S
O474 Gd431 2.388 . S
O474 C488 1.252 . S
C475 O463 1.265 . S
C475 O464 1.242 . S
C476 O467 1.261 . S
C476 O468 1.252 . S
C477 C480 1.394 . S
C477 C482 1.370 . S
C477 C483 1.500 . S
C478 C481 1.383 . S
C478 C482 1.395 . S
C479 C480 1.396 . S
C479 C481 1.365 . S
C479 H496 0.929 . S
C480 C477 1.394 . S
C480 C479 1.396 . S
C480 H497 0.930 . S
C481 C478 1.383 . S
C481 C479 1.365 . S
C481 H498 0.931 1_556 S
C482 C477 1.370 . S
C482 C478 1.395 . S
C482 H499 0.930 . S
C483 Gd430 2.805 . S
C483 O465 1.263 . S
C483 O466 1.252 . S
C483 C477 1.500 . S
C484 H446 0.930 . S
C484 C460 1.417 . S
C484 C485 1.329 . S
C485 C455 1.437 . S
C485 H456 0.957 . S
C485 C484 1.329 . S
H486 C459 0.931 . S
C487 O469 1.265 . S
C487 O470 1.242 . S
C488 O473 1.261 . S
C488 O474 1.252 . S
C489 C492 1.394 . S
C489 C494 1.370 . S
C489 C495 1.500 . S
C490 C493 1.383 . S
C490 C494 1.395 . S
C491 C492 1.396 . S
C491 C493 1.365 . S
C491 H500 0.929 . S
C492 C489 1.394 . S
C492 C491 1.396 . S
C492 H501 0.930 . S
C493 C490 1.383 . S
C493 C491 1.365 . S
C493 H502 0.931 . S
C494 C489 1.370 . S
C494 C490 1.395 . S
C494 H503 0.930 . S
C495 Gd431 2.805 . S
C495 O471 1.263 . S
C495 O472 1.252 . S
C495 C489 1.500 . S
H496 C479 0.929 . S
H497 C480 0.930 . S
H498 C481 0.931 1_554 S
H499 C482 0.930 . S
H500 C491 0.929 . S
H501 C492 0.930 . S
H502 C493 0.931 . S
H503 C494 0.930 . S
C504 C505 1.349 . S
C504 C506 1.327 . S
C504 H529 0.950 . S
C505 C504 1.349 . S
C505 C521 1.349 . S
C506 C504 1.327 . S
C506 C525 1.429 . S
C506 H530 0.950 . S
C507 C524 1.574 . S
C507 C526 1.368 . S
C507 H531 0.949 . S
H508 C512 0.949 . S
C509 C510 1.349 . S
C509 C511 1.327 . S
C509 H532 0.950 . S
C510 C509 1.349 . S
C510 C522 1.349 . S
C511 C509 1.327 . S
C511 C527 1.429 . S
C511 H533 0.950 . S
C512 H508 0.949 . S
C512 C520 1.574 . S
C512 C528 1.368 . S
H513 C521 0.950 . S
H514 C519 0.950 . S
H515 C520 0.949 . S
H516 C522 0.950 . S
H517 C523 0.950 . S
H518 C524 0.949 . S
C519 H514 0.950 . S
C519 C521 1.327 . S
C519 C525 1.429 . S
C520 C512 1.574 . S
C520 H515 0.949 . S
C520 C526 1.368 . S
C521 C505 1.349 . S
C521 H513 0.950 . S
C521 C519 1.327 . S
C522 C510 1.349 . S
C522 H516 0.950 . S
C522 C523 1.327 . S
C523 H517 0.950 . S
C523 C522 1.327 . S
C523 C527 1.429 . S
C524 C507 1.574 . S
C524 H518 0.949 . S
C524 C528 1.368 . S
C525 C506 1.429 . S
C525 C519 1.429 . S
C525 C526 1.523 . S
C526 C507 1.368 . S
C526 C520 1.368 . S
C526 C525 1.523 . S
C527 C511 1.429 . S
C527 C523 1.429 . S
C527 C528 1.523 . S
C528 C512 1.368 . S
C528 C524 1.368 . S
C528 C527 1.523 . S
H529 C504 0.950 . S
H530 C506 0.950 . S
H531 C507 0.949 . S
H532 C509 0.950 . S
H533 C511 0.950 . S
C534 C535 1.349 . S
C534 C536 1.327 . S
C534 H559 0.950 . S
C535 C534 1.349 . S
C535 C551 1.349 . S
C536 C534 1.327 . S
C536 C555 1.429 . S
C536 H560 0.950 . S
C537 C554 1.574 1_455 S
C537 C556 1.368 . S
C537 H561 0.949 . S
H538 C542 0.949 . S
C539 C540 1.349 . S
C539 C541 1.327 . S
C539 H562 0.950 . S
C540 C539 1.349 . S
C540 C552 1.349 . S
C541 C539 1.327 . S
C541 C557 1.429 . S
C541 H563 0.950 . S
C542 H538 0.949 . S
C542 C550 1.574 1_655 S
C542 C558 1.368 . S
H543 C551 0.950 . S
H544 C549 0.950 . S
H545 C550 0.949 . S
H546 C552 0.950 . S
H547 C553 0.950 . S
H548 C554 0.949 . S
C549 H544 0.950 . S
C549 C551 1.327 . S
C549 C555 1.429 . S
C550 C542 1.574 1_455 S
C550 H545 0.949 . S
C550 C556 1.368 . S
C551 C535 1.349 . S
C551 H543 0.950 . S
C551 C549 1.327 . S
C552 C540 1.349 . S
C552 H546 0.950 . S
C552 C553 1.327 . S
C553 H547 0.950 . S
C553 C552 1.327 . S
C553 C557 1.429 . S
C554 C537 1.574 1_655 S
C554 H548 0.949 . S
C554 C558 1.368 . S
C555 C536 1.429 . S
C555 C549 1.429 . S
C555 C556 1.523 . S
C556 C537 1.368 . S
C556 C550 1.368 . S
C556 C555 1.523 . S
C557 C541 1.429 . S
C557 C553 1.429 . S
C557 C558 1.523 . S
C558 C542 1.368 . S
C558 C554 1.368 . S
C558 C557 1.523 . S
H559 C534 0.950 . S
H560 C536 0.950 . S
H561 C537 0.949 . S
H562 C539 0.950 . S
H563 C541 0.950 . S
C564 C565 1.349 . S
C564 C566 1.327 . S
C564 H589 0.950 . S
C565 C564 1.349 . S
C565 C581 1.349 . S
C566 C564 1.327 . S
C566 C585 1.429 . S
C566 H590 0.950 . S
C567 C584 1.574 1_545 S
C567 C586 1.368 . S
C567 H591 0.949 . S
H568 C572 0.949 . S
C569 C570 1.349 . S
C569 C571 1.327 . S
C569 H592 0.950 . S
C570 C569 1.349 . S
C570 C582 1.349 . S
C571 C569 1.327 . S
C571 C587 1.429 . S
C571 H593 0.950 . S
C572 H568 0.949 . S
C572 C580 1.574 1_565 S
C572 C588 1.368 . S
H573 C581 0.950 . S
H574 C579 0.950 . S
H575 C580 0.949 . S
H576 C582 0.950 . S
H577 C583 0.950 . S
H578 C584 0.949 . S
C579 H574 0.950 . S
C579 C581 1.327 . S
C579 C585 1.429 . S
C580 C572 1.574 1_545 S
C580 H575 0.949 . S
C580 C586 1.368 . S
C581 C565 1.349 . S
C581 H573 0.950 . S
C581 C579 1.327 . S
C582 C570 1.349 . S
C582 H576 0.950 . S
C582 C583 1.327 . S
C583 H577 0.950 . S
C583 C582 1.327 . S
C583 C587 1.429 . S
C584 C567 1.574 1_565 S
C584 H578 0.949 . S
C584 C588 1.368 . S
C585 C566 1.429 . S
C585 C579 1.429 . S
C585 C586 1.523 . S
C586 C567 1.368 . S
C586 C580 1.368 . S
C586 C585 1.523 . S
C587 C571 1.429 . S
C587 C583 1.429 . S
C587 C588 1.523 . S
C588 C572 1.368 . S
C588 C584 1.368 . S
C588 C587 1.523 . S
H589 C564 0.950 . S
H590 C566 0.950 . S
H591 C567 0.949 . S
H592 C569 0.950 . S
H593 C571 0.950 . S
C594 C595 1.349 . S
C594 C596 1.327 . S
C594 H619 0.950 . S
C595 C594 1.349 . S
C595 C611 1.349 . S
C596 C594 1.327 . S
C596 C615 1.429 . S
C596 H620 0.950 . S
C597 C614 1.574 . S
C597 C616 1.368 . S
C597 H621 0.949 . S
H598 C602 0.949 . S
C599 C600 1.349 . S
C599 C601 1.327 . S
C599 H622 0.950 . S
C600 C599 1.349 . S
C600 C612 1.349 . S
C601 C599 1.327 . S
C601 C617 1.429 . S
C601 H623 0.950 . S
C602 H598 0.949 . S
C602 C610 1.574 . S
C602 C618 1.368 . S
H603 C611 0.950 . S
H604 C609 0.950 . S
H605 C610 0.949 . S
H606 C612 0.950 . S
H607 C613 0.950 . S
H608 C614 0.949 . S
C609 H604 0.950 . S
C609 C611 1.327 . S
C609 C615 1.429 . S
C610 C602 1.574 . S
C610 H605 0.949 . S
C610 C616 1.368 . S
C611 C595 1.349 . S
C611 H603 0.950 . S
C611 C609 1.327 . S
C612 C600 1.349 . S
C612 H606 0.950 . S
C612 C613 1.327 . S
C613 H607 0.950 . S
C613 C612 1.327 . S
C613 C617 1.429 . S
C614 C597 1.574 . S
C614 H608 0.949 . S
C614 C618 1.368 . S
C615 C596 1.429 . S
C615 C609 1.429 . S
C615 C616 1.523 . S
C616 C597 1.368 . S
C616 C610 1.368 . S
C616 C615 1.523 . S
C617 C601 1.429 . S
C617 C613 1.429 . S
C617 C618 1.523 . S
C618 C602 1.368 . S
C618 C614 1.368 . S
C618 C617 1.523 . S
H619 C594 0.950 . S
H620 C596 0.950 . S
H621 C597 0.949 . S
H622 C599 0.950 . S
H623 C601 0.950 . S
C624 C625 1.349 . S
C624 C626 1.327 . S
C624 H649 0.950 . S
C625 C624 1.349 . S
C625 C641 1.349 . S
C626 C624 1.327 . S
C626 C645 1.429 . S
C626 H650 0.950 . S
C627 C644 1.574 1_455 S
C627 C646 1.368 . S
C627 H651 0.949 . S
H628 C632 0.949 . S
C629 C630 1.349 . S
C629 C631 1.327 . S
C629 H652 0.950 . S
C630 C629 1.349 . S
C630 C642 1.349 . S
C631 C629 1.327 . S
C631 C647 1.429 . S
C631 H653 0.950 . S
C632 H628 0.949 . S
C632 C640 1.574 1_655 S
C632 C648 1.368 . S
H633 C641 0.950 . S
H634 C639 0.950 . S
H635 C640 0.949 . S
H636 C642 0.950 . S
H637 C643 0.950 . S
H638 C644 0.949 . S
C639 H634 0.950 . S
C639 C641 1.327 . S
C639 C645 1.429 . S
C640 C632 1.574 1_455 S
C640 H635 0.949 . S
C640 C646 1.368 . S
C641 C625 1.349 . S
C641 H633 0.950 . S
C641 C639 1.327 . S
C642 C630 1.349 . S
C642 H636 0.950 . S
C642 C643 1.327 . S
C643 H637 0.950 . S
C643 C642 1.327 . S
C643 C647 1.429 . S
C644 C627 1.574 1_655 S
C644 H638 0.949 . S
C644 C648 1.368 . S
C645 C626 1.429 . S
C645 C639 1.429 . S
C645 C646 1.523 . S
C646 C627 1.368 . S
C646 C640 1.368 . S
C646 C645 1.523 . S
C647 C631 1.429 . S
C647 C643 1.429 . S
C647 C648 1.523 . S
C648 C632 1.368 . S
C648 C644 1.368 . S
C648 C647 1.523 . S
H649 C624 0.950 . S
H650 C626 0.950 . S
H651 C627 0.949 . S
H652 C629 0.950 . S
H653 C631 0.950 . S
C654 C655 1.349 . S
C654 C656 1.327 . S
C654 H679 0.950 . S
C655 C654 1.349 . S
C655 C671 1.349 . S
C656 C654 1.327 . S
C656 C675 1.429 . S
C656 H680 0.950 . S
C657 C674 1.574 1_545 S
C657 C676 1.368 . S
C657 H681 0.949 . S
H658 C662 0.949 . S
C659 C660 1.349 . S
C659 C661 1.327 . S
C659 H682 0.950 . S
C660 C659 1.349 . S
C660 C672 1.349 . S
C661 C659 1.327 . S
C661 C677 1.429 . S
C661 H683 0.950 . S
C662 H658 0.949 . S
C662 C670 1.574 1_565 S
C662 C678 1.368 . S
H663 C671 0.950 . S
H664 C669 0.950 . S
H665 C670 0.949 . S
H666 C672 0.950 . S
H667 C673 0.950 . S
H668 C674 0.949 . S
C669 H664 0.950 . S
C669 C671 1.327 . S
C669 C675 1.429 . S
C670 C662 1.574 1_545 S
C670 H665 0.949 . S
C670 C676 1.368 . S
C671 C655 1.349 . S
C671 H663 0.950 . S
C671 C669 1.327 . S
C672 C660 1.349 . S
C672 H666 0.950 . S
C672 C673 1.327 . S
C673 H667 0.950 . S
C673 C672 1.327 . S
C673 C677 1.429 . S
C674 C657 1.574 1_565 S
C674 H668 0.949 . S
C674 C678 1.368 . S
C675 C656 1.429 . S
C675 C669 1.429 . S
C675 C676 1.523 . S
C676 C657 1.368 . S
C676 C670 1.368 . S
C676 C675 1.523 . S
C677 C661 1.429 . S
C677 C673 1.429 . S
C677 C678 1.523 . S
C678 C662 1.368 . S
C678 C674 1.368 . S
C678 C677 1.523 . S
H679 C654 0.950 . S
H680 C656 0.950 . S
H681 C657 0.949 . S
H682 C659 0.950 . S
H683 C661 0.950 . S
C684 C685 1.349 . S
C684 C686 1.327 . S
C684 H709 0.950 . S
C685 C684 1.349 . S
C685 C701 1.349 . S
C686 C684 1.327 . S
C686 C705 1.429 . S
C686 H710 0.950 . S
C687 C704 1.574 . S
C687 C706 1.368 . S
C687 H711 0.949 . S
H688 C692 0.949 . S
C689 C690 1.349 . S
C689 C691 1.327 . S
C689 H712 0.950 . S
C690 C689 1.349 . S
C690 C702 1.349 . S
C691 C689 1.327 . S
C691 C707 1.429 . S
C691 H713 0.950 . S
C692 H688 0.949 . S
C692 C700 1.574 . S
C692 C708 1.368 . S
H693 C701 0.950 . S
H694 C699 0.950 . S
H695 C700 0.949 . S
H696 C702 0.950 . S
H697 C703 0.950 . S
H698 C704 0.949 . S
C699 H694 0.950 . S
C699 C701 1.327 . S
C699 C705 1.429 . S
C700 C692 1.574 . S
C700 H695 0.949 . S
C700 C706 1.368 . S
C701 C685 1.349 . S
C701 H693 0.950 . S
C701 C699 1.327 . S
C702 C690 1.349 . S
C702 H696 0.950 . S
C702 C703 1.327 . S
C703 H697 0.950 . S
C703 C702 1.327 . S
C703 C707 1.429 . S
C704 C687 1.574 . S
C704 H698 0.949 . S
C704 C708 1.368 . S
C705 C686 1.429 . S
C705 C699 1.429 . S
C705 C706 1.523 . S
C706 C687 1.368 . S
C706 C700 1.368 . S
C706 C705 1.523 . S
C707 C691 1.429 . S
C707 C703 1.429 . S
C707 C708 1.523 . S
C708 C692 1.368 . S
C708 C704 1.368 . S
C708 C707 1.523 . S
H709 C684 0.950 . S
H710 C686 0.950 . S
H711 C687 0.949 . S
H712 C689 0.950 . S
H713 C691 0.950 . S
C714 C715 1.349 . S
C714 C716 1.327 1_554 S
C714 H739 0.950 . S
C715 C714 1.349 . S
C715 C731 1.349 . S
C716 C714 1.327 1_556 S
C716 C735 1.429 . S
C716 H740 0.950 . S
C717 C734 1.574 . S
C717 C736 1.368 . S
C717 H741 0.949 . S
H718 C722 0.949 . S
C719 C720 1.349 . S
C719 C721 1.327 . S
C719 H742 0.950 . S
C720 C719 1.349 . S
C720 C732 1.349 . S
C721 C719 1.327 . S
C721 C737 1.429 . S
C721 H743 0.950 . S
C722 H718 0.949 . S
C722 C730 1.574 . S
C722 C738 1.368 . S
H723 C731 0.950 . S
H724 C729 0.950 . S
H725 C730 0.949 . S
H726 C732 0.950 . S
H727 C733 0.950 . S
H728 C734 0.949 . S
C729 H724 0.950 . S
C729 C731 1.327 1_556 S
C729 C735 1.429 . S
C730 C722 1.574 . S
C730 H725 0.949 . S
C730 C736 1.368 . S
C731 C715 1.349 . S
C731 H723 0.950 . S
C731 C729 1.327 1_554 S
C732 C720 1.349 . S
C732 H726 0.950 . S
C732 C733 1.327 . S
C733 H727 0.950 . S
C733 C732 1.327 . S
C733 C737 1.429 . S
C734 C717 1.574 . S
C734 H728 0.949 . S
C734 C738 1.368 . S
C735 C716 1.429 . S
C735 C729 1.429 . S
C735 C736 1.523 . S
C736 C717 1.368 . S
C736 C730 1.368 . S
C736 C735 1.523 . S
C737 C721 1.429 . S
C737 C733 1.429 . S
C737 C738 1.523 . S
C738 C722 1.368 . S
C738 C734 1.368 . S
C738 C737 1.523 . S
H739 C714 0.950 . S
H740 C716 0.950 . S
H741 C717 0.949 . S
H742 C719 0.950 . S
H743 C721 0.950 . S
C744 C745 1.349 . S
C744 C746 1.327 . S
C744 H769 0.950 . S
C745 C744 1.349 . S
C745 C761 1.349 . S
C746 C744 1.327 . S
C746 C765 1.429 . S
C746 H770 0.950 . S
C747 C764 1.574 . S
C747 C766 1.368 . S
C747 H771 0.949 . S
H748 C752 0.949 . S
C749 C750 1.349 1_554 S
C749 C751 1.327 . S
C749 H772 0.950 1_554 S
C750 C749 1.349 1_556 S
C750 C762 1.349 . S
C751 C749 1.327 . S
C751 C767 1.429 . S
C751 H773 0.950 . S
C752 H748 0.949 . S
C752 C760 1.574 . S
C752 C768 1.368 . S
H753 C761 0.950 . S
H754 C759 0.950 . S
H755 C760 0.949 . S
H756 C762 0.950 . S
H757 C763 0.950 . S
H758 C764 0.949 . S
C759 H754 0.950 . S
C759 C761 1.327 . S
C759 C765 1.429 . S
C760 C752 1.574 . S
C760 H755 0.949 . S
C760 C766 1.368 . S
C761 C745 1.349 . S
C761 H753 0.950 . S
C761 C759 1.327 . S
C762 C750 1.349 . S
C762 H756 0.950 . S
C762 C763 1.327 1_556 S
C763 H757 0.950 . S
C763 C762 1.327 1_554 S
C763 C767 1.429 . S
C764 C747 1.574 . S
C764 H758 0.949 . S
C764 C768 1.368 . S
C765 C746 1.429 . S
C765 C759 1.429 . S
C765 C766 1.523 . S
C766 C747 1.368 . S
C766 C760 1.368 . S
C766 C765 1.523 . S
C767 C751 1.429 . S
C767 C763 1.429 . S
C767 C768 1.523 . S
C768 C752 1.368 . S
C768 C764 1.368 . S
C768 C767 1.523 . S
H769 C744 0.950 . S
H770 C746 0.950 . S
H771 C747 0.949 . S
H772 C749 0.950 1_556 S
H773 C751 0.950 . S
C774 C775 1.349 . S
C774 C776 1.327 . S
C774 H799 0.950 . S
C775 C774 1.349 . S
C775 C791 1.349 . S
C776 C774 1.327 . S
C776 C795 1.429 . S
C776 H800 0.950 . S
C777 C794 1.574 . S
C777 C796 1.368 . S
C777 H801 0.949 . S
H778 C782 0.949 . S
C779 C780 1.349 . S
C779 C781 1.327 . S
C779 H802 0.950 . S
C780 C779 1.349 . S
C780 C792 1.349 . S
C781 C779 1.327 . S
C781 C797 1.429 . S
C781 H803 0.950 . S
C782 H778 0.949 . S
C782 C790 1.574 . S
C782 C798 1.368 . S
H783 C791 0.950 . S
H784 C789 0.950 . S
H785 C790 0.949 . S
H786 C792 0.950 . S
H787 C793 0.950 . S
H788 C794 0.949 . S
C789 H784 0.950 . S
C789 C791 1.327 . S
C789 C795 1.429 . S
C790 C782 1.574 . S
C790 H785 0.949 . S
C790 C796 1.368 . S
C791 C775 1.349 . S
C791 H783 0.950 . S
C791 C789 1.327 . S
C792 C780 1.349 . S
C792 H786 0.950 . S
C792 C793 1.327 . S
C793 H787 0.950 . S
C793 C792 1.327 . S
C793 C797 1.429 . S
C794 C777 1.574 . S
C794 H788 0.949 . S
C794 C798 1.368 . S
C795 C776 1.429 . S
C795 C789 1.429 . S
C795 C796 1.523 . S
C796 C777 1.368 . S
C796 C790 1.368 . S
C796 C795 1.523 . S
C797 C781 1.429 . S
C797 C793 1.429 . S
C797 C798 1.523 . S
C798 C782 1.368 . S
C798 C794 1.368 . S
C798 C797 1.523 . S
H799 C774 0.950 . S
H800 C776 0.950 . S
H801 C777 0.949 . S
H802 C779 0.950 . S
H803 C781 0.950 . S
C804 C805 1.349 . S
C804 C806 1.327 . S
C804 H829 0.950 . S
C805 C804 1.349 . S
C805 C821 1.349 . S
C806 C804 1.327 . S
C806 C825 1.429 . S
C806 H830 0.950 . S
C807 C824 1.574 . S
C807 C826 1.368 . S
C807 H831 0.949 . S
H808 C812 0.949 . S
C809 C810 1.349 . S
C809 C811 1.327 1_554 S
C809 H832 0.950 . S
C810 C809 1.349 . S
C810 C822 1.349 . S
C811 C809 1.327 1_556 S
C811 C827 1.429 . S
C811 H833 0.950 . S
C812 H808 0.949 . S
C812 C820 1.574 . S
C812 C828 1.368 . S
H813 C821 0.950 . S
H814 C819 0.950 . S
H815 C820 0.949 . S
H816 C822 0.950 . S
H817 C823 0.950 . S
H818 C824 0.949 . S
C819 H814 0.950 . S
C819 C821 1.327 . S
C819 C825 1.429 . S
C820 C812 1.574 . S
C820 H815 0.949 . S
C820 C826 1.368 . S
C821 C805 1.349 . S
C821 H813 0.950 . S
C821 C819 1.327 . S
C822 C810 1.349 . S
C822 H816 0.950 . S
C822 C823 1.327 1_554 S
C823 H817 0.950 . S
C823 C822 1.327 1_556 S
C823 C827 1.429 . S
C824 C807 1.574 . S
C824 H818 0.949 . S
C824 C828 1.368 . S
C825 C806 1.429 . S
C825 C819 1.429 . S
C825 C826 1.523 . S
C826 C807 1.368 . S
C826 C820 1.368 . S
C826 C825 1.523 . S
C827 C811 1.429 . S
C827 C823 1.429 . S
C827 C828 1.523 . S
C828 C812 1.368 . S
C828 C824 1.368 . S
C828 C827 1.523 . S
H829 C804 0.950 . S
H830 C806 0.950 . S
H831 C807 0.949 . S
H832 C809 0.950 . S
H833 C811 0.950 . S
C834 C835 1.349 . S
C834 C836 1.327 . S
C834 H859 0.950 . S
C835 C834 1.349 . S
C835 C851 1.349 . S
C836 C834 1.327 . S
C836 C855 1.429 . S
C836 H860 0.950 . S
C837 C854 1.574 . S
C837 C856 1.368 . S
C837 H861 0.949 . S
H838 C842 0.949 . S
C839 C840 1.349 1_554 S
C839 C841 1.327 . S
C839 H862 0.950 1_554 S
C840 C839 1.349 1_556 S
C840 C852 1.349 1_556 S
C841 C839 1.327 . S
C841 C857 1.429 . S
C841 H863 0.950 . S
C842 H838 0.949 . S
C842 C850 1.574 . S
C842 C858 1.368 . S
H843 C851 0.950 . S
H844 C849 0.950 . S
H845 C850 0.949 . S
H846 C852 0.950 1_556 S
H847 C853 0.950 . S
H848 C854 0.949 . S
C849 H844 0.950 . S
C849 C851 1.327 . S
C849 C855 1.429 . S
C850 C842 1.574 . S
C850 H845 0.949 . S
C850 C856 1.368 . S
C851 C835 1.349 . S
C851 H843 0.950 . S
C851 C849 1.327 . S
C852 C840 1.349 1_554 S
C852 H846 0.950 1_554 S
C852 C853 1.327 . S
C853 H847 0.950 . S
C853 C852 1.327 . S
C853 C857 1.429 . S
C854 C837 1.574 . S
C854 H848 0.949 . S
C854 C858 1.368 . S
C855 C836 1.429 . S
C855 C849 1.429 . S
C855 C856 1.523 . S
C856 C837 1.368 . S
C856 C850 1.368 . S
C856 C855 1.523 . S
C857 C841 1.429 . S
C857 C853 1.429 . S
C857 C858 1.523 . S
C858 C842 1.368 . S
C858 C854 1.368 . S
C858 C857 1.523 . S
H859 C834 0.950 . S
H860 C836 0.950 . S
H861 C837 0.949 . S
H862 C839 0.950 1_556 S
H863 C841 0.950 . S
C864 C865 1.349 . S
C864 C866 1.327 . S
C864 H889 0.950 . S
C865 C864 1.349 . S
C865 C881 1.349 . S
C866 C864 1.327 . S
C866 C885 1.429 . S
C866 H890 0.950 . S
C867 C884 1.574 . S
C867 C886 1.368 . S
C867 H891 0.949 . S
H868 C872 0.949 . S
C869 C870 1.349 . S
C869 C871 1.327 . S
C869 H892 0.950 . S
C870 C869 1.349 . S
C870 C882 1.349 . S
C871 C869 1.327 . S
C871 C887 1.429 . S
C871 H893 0.950 . S
C872 H868 0.949 . S
C872 C880 1.574 . S
C872 C888 1.368 . S
H873 C881 0.950 . S
H874 C879 0.950 . S
H875 C880 0.949 . S
H876 C882 0.950 . S
H877 C883 0.950 . S
H878 C884 0.949 . S
C879 H874 0.950 . S
C879 C881 1.327 . S
C879 C885 1.429 . S
C880 C872 1.574 . S
C880 H875 0.949 . S
C880 C886 1.368 . S
C881 C865 1.349 . S
C881 H873 0.950 . S
C881 C879 1.327 . S
C882 C870 1.349 . S
C882 H876 0.950 . S
C882 C883 1.327 . S
C883 H877 0.950 . S
C883 C882 1.327 . S
C883 C887 1.429 . S
C884 C867 1.574 . S
C884 H878 0.949 . S
C884 C888 1.368 . S
C885 C866 1.429 . S
C885 C879 1.429 . S
C885 C886 1.523 . S
C886 C867 1.368 . S
C886 C880 1.368 . S
C886 C885 1.523 . S
C887 C871 1.429 . S
C887 C883 1.429 . S
C887 C888 1.523 . S
C888 C872 1.368 . S
C888 C884 1.368 . S
C888 C887 1.523 . S
H889 C864 0.950 . S
H890 C866 0.950 . S
H891 C867 0.949 . S
H892 C869 0.950 . S
H893 C871 0.950 . S
C894 C895 1.349 . S
C894 C896 1.327 . S
C894 H919 0.950 . S
C895 C894 1.349 . S
C895 C911 1.349 . S
C896 C894 1.327 . S
C896 C915 1.429 . S
C896 H920 0.950 . S
C897 C914 1.574 . S
C897 C916 1.368 . S
C897 H921 0.949 . S
H898 C902 0.949 . S
C899 C900 1.349 . S
C899 C901 1.327 . S
C899 H922 0.950 . S
C900 C899 1.349 . S
C900 C912 1.349 . S
C901 C899 1.327 . S
C901 C917 1.429 . S
C901 H923 0.950 . S
C902 H898 0.949 . S
C902 C910 1.574 . S
C902 C918 1.368 . S
H903 C911 0.950 . S
H904 C909 0.950 . S
H905 C910 0.949 . S
H906 C912 0.950 . S
H907 C913 0.950 . S
H908 C914 0.949 . S
C909 H904 0.950 . S
C909 C911 1.327 . S
C909 C915 1.429 . S
C910 C902 1.574 . S
C910 H905 0.949 . S
C910 C916 1.368 . S
C911 C895 1.349 . S
C911 H903 0.950 . S
C911 C909 1.327 . S
C912 C900 1.349 . S
C912 H906 0.950 . S
C912 C913 1.327 . S
C913 H907 0.950 . S
C913 C912 1.327 . S
C913 C917 1.429 . S
C914 C897 1.574 . S
C914 H908 0.949 . S
C914 C918 1.368 . S
C915 C896 1.429 . S
C915 C909 1.429 . S
C915 C916 1.523 . S
C916 C897 1.368 . S
C916 C910 1.368 . S
C916 C915 1.523 . S
C917 C901 1.429 . S
C917 C913 1.429 . S
C917 C918 1.523 . S
C918 C902 1.368 . S
C918 C914 1.368 . S
C918 C917 1.523 . S
H919 C894 0.950 . S
H920 C896 0.950 . S
H921 C897 0.949 . S
H922 C899 0.950 . S
H923 C901 0.950 . S
C924 C925 1.349 . S
C924 C926 1.327 . S
C924 H949 0.950 . S
C925 C924 1.349 . S
C925 C941 1.349 . S
C926 C924 1.327 . S
C926 C945 1.429 . S
C926 H950 0.950 . S
C927 C944 1.574 . S
C927 C946 1.368 . S
C927 H951 0.949 . S
H928 C932 0.949 . S
C929 C930 1.349 . S
C929 C931 1.327 . S
C929 H952 0.950 . S
C930 C929 1.349 . S
C930 C942 1.349 . S
C931 C929 1.327 . S
C931 C947 1.429 . S
C931 H953 0.950 . S
C932 H928 0.949 . S
C932 C940 1.574 . S
C932 C948 1.368 . S
H933 C941 0.950 . S
H934 C939 0.950 . S
H935 C940 0.949 . S
H936 C942 0.950 . S
H937 C943 0.950 . S
H938 C944 0.949 . S
C939 H934 0.950 . S
C939 C941 1.327 . S
C939 C945 1.429 . S
C940 C932 1.574 . S
C940 H935 0.949 . S
C940 C946 1.368 . S
C941 C925 1.349 . S
C941 H933 0.950 . S
C941 C939 1.327 . S
C942 C930 1.349 . S
C942 H936 0.950 . S
C942 C943 1.327 . S
C943 H937 0.950 . S
C943 C942 1.327 . S
C943 C947 1.429 . S
C944 C927 1.574 . S
C944 H938 0.949 . S
C944 C948 1.368 . S
C945 C926 1.429 . S
C945 C939 1.429 . S
C945 C946 1.523 . S
C946 C927 1.368 . S
C946 C940 1.368 . S
C946 C945 1.523 . S
C947 C931 1.429 . S
C947 C943 1.429 . S
C947 C948 1.523 . S
C948 C932 1.368 . S
C948 C944 1.368 . S
C948 C947 1.523 . S
H949 C924 0.950 . S
H950 C926 0.950 . S
H951 C927 0.949 . S
H952 C929 0.950 . S
H953 C931 0.950 . S
C954 C955 1.349 . S
C954 C956 1.327 . S
C954 H979 0.950 . S
C955 C954 1.349 . S
C955 C971 1.349 . S
C956 C954 1.327 . S
C956 C975 1.429 . S
C956 H980 0.950 . S
C957 C974 1.574 . S
C957 C976 1.368 . S
C957 H981 0.949 . S
H958 C962 0.949 . S
C959 C960 1.349 . S
C959 C961 1.327 . S
C959 H982 0.950 . S
C960 C959 1.349 . S
C960 C972 1.349 . S
C961 C959 1.327 . S
C961 C977 1.429 . S
C961 H983 0.950 . S
C962 H958 0.949 . S
C962 C970 1.574 . S
C962 C978 1.368 . S
H963 C971 0.950 . S
H964 C969 0.950 . S
H965 C970 0.949 . S
H966 C972 0.950 . S
H967 C973 0.950 . S
H968 C974 0.949 . S
C969 H964 0.950 . S
C969 C971 1.327 . S
C969 C975 1.429 . S
C970 C962 1.574 . S
C970 H965 0.949 . S
C970 C976 1.368 . S
C971 C955 1.349 . S
C971 H963 0.950 . S
C971 C969 1.327 . S
C972 C960 1.349 . S
C972 H966 0.950 . S
C972 C973 1.327 . S
C973 H967 0.950 . S
C973 C972 1.327 . S
C973 C977 1.429 . S
C974 C957 1.574 . S
C974 H968 0.949 . S
C974 C978 1.368 . S
C975 C956 1.429 . S
C975 C969 1.429 . S
C975 C976 1.523 . S
C976 C957 1.368 . S
C976 C970 1.368 . S
C976 C975 1.523 . S
C977 C961 1.429 . S
C977 C973 1.429 . S
C977 C978 1.523 . S
C978 C962 1.368 . S
C978 C974 1.368 . S
C978 C977 1.523 . S
H979 C954 0.950 . S
H980 C956 0.950 . S
H981 C957 0.949 . S
H982 C959 0.950 . S
H983 C961 0.950 . S
C984 C985 1.349 . S
C984 C986 1.327 . S
C984 H1009 0.950 . S
C985 C984 1.349 . S
C985 C1001 1.349 . S
C986 C984 1.327 . S
C986 C1005 1.429 . S
C986 H1010 0.950 . S
C987 C1004 1.574 . S
C987 C1006 1.368 . S
C987 H1011 0.949 . S
H988 C992 0.949 . S
C989 C990 1.349 . S
C989 C991 1.327 . S
C989 H1012 0.950 . S
C990 C989 1.349 . S
C990 C1002 1.349 . S
C991 C989 1.327 . S
C991 C1007 1.429 . S
C991 H1013 0.950 . S
C992 H988 0.949 . S
C992 C1000 1.574 . S
C992 C1008 1.368 . S
H993 C1001 0.950 . S
H994 C999 0.950 . S
H995 C1000 0.949 . S
H996 C1002 0.950 . S
H997 C1003 0.950 . S
H998 C1004 0.949 . S
C999 H994 0.950 . S
C999 C1001 1.327 . S
C999 C1005 1.429 . S
C1000 C992 1.574 . S
C1000 H995 0.949 . S
C1000 C1006 1.368 . S
C1001 C985 1.349 . S
C1001 H993 0.950 . S
C1001 C999 1.327 . S
C1002 C990 1.349 . S
C1002 H996 0.950 . S
C1002 C1003 1.327 . S
C1003 H997 0.950 . S
C1003 C1002 1.327 . S
C1003 C1007 1.429 . S
C1004 C987 1.574 . S
C1004 H998 0.949 . S
C1004 C1008 1.368 . S
C1005 C986 1.429 . S
C1005 C999 1.429 . S
C1005 C1006 1.523 . S
C1006 C987 1.368 . S
C1006 C1000 1.368 . S
C1006 C1005 1.523 . S
C1007 C991 1.429 . S
C1007 C1003 1.429 . S
C1007 C1008 1.523 . S
C1008 C992 1.368 . S
C1008 C1004 1.368 . S
C1008 C1007 1.523 . S
H1009 C984 0.950 . S
H1010 C986 0.950 . S
H1011 C987 0.949 . S
H1012 C989 0.950 . S
H1013 C991 0.950 . S
C1014 C1015 1.349 . S
C1014 C1016 1.327 . S
C1014 H1039 0.950 . S
C1015 C1014 1.349 . S
C1015 C1031 1.349 . S
C1016 C1014 1.327 . S
C1016 C1035 1.429 . S
C1016 H1040 0.950 . S
C1017 C1034 1.574 . S
C1017 C1036 1.368 . S
C1017 H1041 0.949 . S
H1018 C1022 0.949 . S
C1019 C1020 1.349 . S
C1019 C1021 1.327 . S
C1019 H1042 0.950 . S
C1020 C1019 1.349 . S
C1020 C1032 1.349 . S
C1021 C1019 1.327 . S
C1021 C1037 1.429 . S
C1021 H1043 0.950 . S
C1022 H1018 0.949 . S
C1022 C1030 1.574 . S
C1022 C1038 1.368 . S
H1023 C1031 0.950 . S
H1024 C1029 0.950 . S
H1025 C1030 0.949 . S
H1026 C1032 0.950 . S
H1027 C1033 0.950 . S
H1028 C1034 0.949 . S
C1029 H1024 0.950 . S
C1029 C1031 1.327 . S
C1029 C1035 1.429 . S
C1030 C1022 1.574 . S
C1030 H1025 0.949 . S
C1030 C1036 1.368 . S
C1031 C1015 1.349 . S
C1031 H1023 0.950 . S
C1031 C1029 1.327 . S
C1032 C1020 1.349 . S
C1032 H1026 0.950 . S
C1032 C1033 1.327 . S
C1033 H1027 0.950 . S
C1033 C1032 1.327 . S
C1033 C1037 1.429 . S
C1034 C1017 1.574 . S
C1034 H1028 0.949 . S
C1034 C1038 1.368 . S
C1035 C1016 1.429 . S
C1035 C1029 1.429 . S
C1035 C1036 1.523 . S
C1036 C1017 1.368 . S
C1036 C1030 1.368 . S
C1036 C1035 1.523 . S
C1037 C1021 1.429 . S
C1037 C1033 1.429 . S
C1037 C1038 1.523 . S
C1038 C1022 1.368 . S
C1038 C1034 1.368 . S
C1038 C1037 1.523 . S
H1039 C1014 0.950 . S
H1040 C1016 0.950 . S
H1041 C1017 0.949 . S
H1042 C1019 0.950 . S
H1043 C1021 0.950 . S
C505 C488 1.288 . S
C510 C68 1.288 . S
C535 C67 1.253 . S
C540 C151 1.253 . S
C565 C152 1.288 . S
C570 C236 1.288 . S
C595 C235 1.253 . S
C600 C319 1.253 . S
C625 C404 1.288 . S
C630 C320 1.288 . S
C655 C487 1.252 . S
C660 C403 1.252 . S
C685 C58 1.115 . S
C690 C70 1.115 . S
C715 C154 1.115 . S
C720 C142 1.115 . S
C745 C226 1.115 . S
C750 C238 1.115 . S
C775 C322 1.115 . S
C780 C310 1.115 . S
C805 C406 1.115 . S
C810 C394 1.115 . S
C835 C490 1.115 . S
C840 C478 1.115 . S
C865 C56 1.583 . S
C870 C391 1.598 . S
C895 C139 1.598 . S
C900 C476 1.583 . S
C925 C55 1.598 . S
C930 C224 1.583 . S
C955 C140 1.583 . S
C960 C307 1.598 . S
C985 C392 1.583 . S
C990 C223 1.598 . S
C1015 C308 1.583 . S
C1020 C475 1.598 . S
