# Generated by pormake.
# Topology ula, (4)-cn, num edge types: 1
# Building blocks:
#     Node 0, Type 0, BuildingBlock: MUDLON_clean_sbu_0, # of connection points: 4
#     Node 1, Type 0, BuildingBlock: MUDLON_clean_sbu_0, # of connection points: 4
#     Node 2, Type 0, BuildingBlock: MUDLON_clean_sbu_0, # of connection points: 4
#     Node 3, Type 0, BuildingBlock: MUDLON_clean_sbu_0, # of connection points: 4
#     Node 4, Type 0, BuildingBlock: MUDLON_clean_sbu_0, # of connection points: 4
#     Node 5, Type 0, BuildingBlock: MUDLON_clean_sbu_0, # of connection points: 4
#     Node 6, Type 0, BuildingBlock: MUDLON_clean_sbu_0, # of connection points: 4
#     Node 7, Type 0, BuildingBlock: MUDLON_clean_sbu_0, # of connection points: 4
#     Node 8, Type 0, BuildingBlock: MUDLON_clean_sbu_0, # of connection points: 4
#     Node 9, Type 0, BuildingBlock: MUDLON_clean_sbu_0, # of connection points: 4
#     Node 10, Type 0, BuildingBlock: MUDLON_clean_sbu_0, # of connection points: 4
#     Node 11, Type 0, BuildingBlock: MUDLON_clean_sbu_0, # of connection points: 4
#     Node 12, Type 0, BuildingBlock: MUDLON_clean_sbu_0, # of connection points: 4
#     Node 13, Type 0, BuildingBlock: MUDLON_clean_sbu_0, # of connection points: 4
#     Node 14, Type 0, BuildingBlock: MUDLON_clean_sbu_0, # of connection points: 4
#     Node 15, Type 0, BuildingBlock: MUDLON_clean_sbu_0, # of connection points: 4
#     Node 16, Type 0, BuildingBlock: MUDLON_clean_sbu_0, # of connection points: 4
#     Node 17, Type 0, BuildingBlock: MUDLON_clean_sbu_0, # of connection points: 4
#     Node 18, Type 0, BuildingBlock: MUDLON_clean_sbu_0, # of connection points: 4
#     Node 19, Type 0, BuildingBlock: MUDLON_clean_sbu_0, # of connection points: 4
#     Node 20, Type 0, BuildingBlock: MUDLON_clean_sbu_0, # of connection points: 4
#     Node 21, Type 0, BuildingBlock: MUDLON_clean_sbu_0, # of connection points: 4
#     Node 22, Type 0, BuildingBlock: MUDLON_clean_sbu_0, # of connection points: 4
#     Node 23, Type 0, BuildingBlock: MUDLON_clean_sbu_0, # of connection points: 4
#     Node 24, Type 0, BuildingBlock: MUDLON_clean_sbu_0, # of connection points: 4
#     Node 25, Type 0, BuildingBlock: MUDLON_clean_sbu_0, # of connection points: 4
#     Node 26, Type 0, BuildingBlock: MUDLON_clean_sbu_0, # of connection points: 4
#     Node 27, Type 0, BuildingBlock: MUDLON_clean_sbu_0, # of connection points: 4
#     Node 28, Type 0, BuildingBlock: MUDLON_clean_sbu_0, # of connection points: 4
#     Node 29, Type 0, BuildingBlock: MUDLON_clean_sbu_0, # of connection points: 4
#     Node 30, Type 0, BuildingBlock: MUDLON_clean_sbu_0, # of connection points: 4
#     Node 31, Type 0, BuildingBlock: MUDLON_clean_sbu_0, # of connection points: 4
#     Node 32, Type 0, BuildingBlock: MUDLON_clean_sbu_0, # of connection points: 4
#     Node 33, Type 0, BuildingBlock: MUDLON_clean_sbu_0, # of connection points: 4
#     Node 34, Type 0, BuildingBlock: MUDLON_clean_sbu_0, # of connection points: 4
#     Node 35, Type 0, BuildingBlock: MUDLON_clean_sbu_0, # of connection points: 4
#     Node 36, Type 0, BuildingBlock: MUDLON_clean_sbu_0, # of connection points: 4
#     Node 37, Type 0, BuildingBlock: MUDLON_clean_sbu_0, # of connection points: 4
#     Node 38, Type 0, BuildingBlock: MUDLON_clean_sbu_0, # of connection points: 4
#     Node 39, Type 0, BuildingBlock: MUDLON_clean_sbu_0, # of connection points: 4
#     Node 40, Type 0, BuildingBlock: MUDLON_clean_sbu_0, # of connection points: 4
#     Node 41, Type 0, BuildingBlock: MUDLON_clean_sbu_0, # of connection points: 4
#     Node 42, Type 0, BuildingBlock: MUDLON_clean_sbu_0, # of connection points: 4
#     Node 43, Type 0, BuildingBlock: MUDLON_clean_sbu_0, # of connection points: 4
#     Node 44, Type 0, BuildingBlock: MUDLON_clean_sbu_0, # of connection points: 4
#     Node 45, Type 0, BuildingBlock: MUDLON_clean_sbu_0, # of connection points: 4
#     Node 46, Type 0, BuildingBlock: MUDLON_clean_sbu_0, # of connection points: 4
#     Node 47, Type 0, BuildingBlock: MUDLON_clean_sbu_0, # of connection points: 4
#     Node 48, Type 0, BuildingBlock: MUDLON_clean_sbu_0, # of connection points: 4
#     Node 49, Type 0, BuildingBlock: MUDLON_clean_sbu_0, # of connection points: 4
#     Node 50, Type 0, BuildingBlock: MUDLON_clean_sbu_0, # of connection points: 4
#     Node 51, Type 0, BuildingBlock: MUDLON_clean_sbu_0, # of connection points: 4
#     Node 52, Type 0, BuildingBlock: MUDLON_clean_sbu_0, # of connection points: 4
#     Node 53, Type 0, BuildingBlock: MUDLON_clean_sbu_0, # of connection points: 4
#     Node 54, Type 0, BuildingBlock: MUDLON_clean_sbu_0, # of connection points: 4
#     Node 55, Type 0, BuildingBlock: MUDLON_clean_sbu_0, # of connection points: 4
#     Node 56, Type 0, BuildingBlock: MUDLON_clean_sbu_0, # of connection points: 4
#     Node 57, Type 0, BuildingBlock: MUDLON_clean_sbu_0, # of connection points: 4
#     Node 58, Type 0, BuildingBlock: MUDLON_clean_sbu_0, # of connection points: 4
#     Node 59, Type 0, BuildingBlock: MUDLON_clean_sbu_0, # of connection points: 4
#     Node 60, Type 0, BuildingBlock: MUDLON_clean_sbu_0, # of connection points: 4
#     Node 61, Type 0, BuildingBlock: MUDLON_clean_sbu_0, # of connection points: 4
#     Node 62, Type 0, BuildingBlock: MUDLON_clean_sbu_0, # of connection points: 4
#     Node 63, Type 0, BuildingBlock: MUDLON_clean_sbu_0, # of connection points: 4
#     Node 64, Type 0, BuildingBlock: MUDLON_clean_sbu_0, # of connection points: 4
#     Node 65, Type 0, BuildingBlock: MUDLON_clean_sbu_0, # of connection points: 4
#     Node 66, Type 0, BuildingBlock: MUDLON_clean_sbu_0, # of connection points: 4
#     Node 67, Type 0, BuildingBlock: MUDLON_clean_sbu_0, # of connection points: 4
#     Node 68, Type 0, BuildingBlock: MUDLON_clean_sbu_0, # of connection points: 4
#     Node 69, Type 0, BuildingBlock: MUDLON_clean_sbu_0, # of connection points: 4
#     Node 70, Type 0, BuildingBlock: MUDLON_clean_sbu_0, # of connection points: 4
#     Node 71, Type 0, BuildingBlock: MUDLON_clean_sbu_0, # of connection points: 4
#     Node 72, Type 0, BuildingBlock: MUDLON_clean_sbu_0, # of connection points: 4
#     Node 73, Type 0, BuildingBlock: MUDLON_clean_sbu_0, # of connection points: 4
#     Node 74, Type 0, BuildingBlock: MUDLON_clean_sbu_0, # of connection points: 4
#     Node 75, Type 0, BuildingBlock: MUDLON_clean_sbu_0, # of connection points: 4
#     Node 76, Type 0, BuildingBlock: MUDLON_clean_sbu_0, # of connection points: 4
#     Node 77, Type 0, BuildingBlock: MUDLON_clean_sbu_0, # of connection points: 4
#     Node 78, Type 0, BuildingBlock: MUDLON_clean_sbu_0, # of connection points: 4
#     Node 79, Type 0, BuildingBlock: MUDLON_clean_sbu_0, # of connection points: 4
#     Node 80, Type 0, BuildingBlock: MUDLON_clean_sbu_0, # of connection points: 4
#     Node 81, Type 0, BuildingBlock: MUDLON_clean_sbu_0, # of connection points: 4
#     Node 82, Type 0, BuildingBlock: MUDLON_clean_sbu_0, # of connection points: 4
#     Node 83, Type 0, BuildingBlock: MUDLON_clean_sbu_0, # of connection points: 4
#     Node 84, Type 0, BuildingBlock: MUDLON_clean_sbu_0, # of connection points: 4
#     Node 85, Type 0, BuildingBlock: MUDLON_clean_sbu_0, # of connection points: 4
#     Node 86, Type 0, BuildingBlock: MUDLON_clean_sbu_0, # of connection points: 4
#     Node 87, Type 0, BuildingBlock: MUDLON_clean_sbu_0, # of connection points: 4
#     Node 88, Type 0, BuildingBlock: MUDLON_clean_sbu_0, # of connection points: 4
#     Node 89, Type 0, BuildingBlock: MUDLON_clean_sbu_0, # of connection points: 4
#     Node 90, Type 0, BuildingBlock: MUDLON_clean_sbu_0, # of connection points: 4
#     Node 91, Type 0, BuildingBlock: MUDLON_clean_sbu_0, # of connection points: 4
#     Node 92, Type 0, BuildingBlock: MUDLON_clean_sbu_0, # of connection points: 4
#     Node 93, Type 0, BuildingBlock: MUDLON_clean_sbu_0, # of connection points: 4
#     Node 94, Type 0, BuildingBlock: MUDLON_clean_sbu_0, # of connection points: 4
#     Node 95, Type 0, BuildingBlock: MUDLON_clean_sbu_0, # of connection points: 4
#     Edge 96, Type (0, 0), BuildingBlock: KIFKEQ_clean_linker_1, # of connection points: 2
#     Edge 97, Type (0, 0), BuildingBlock: KIFKEQ_clean_linker_1, # of connection points: 2
#     Edge 98, Type (0, 0), BuildingBlock: KIFKEQ_clean_linker_1, # of connection points: 2
#     Edge 99, Type (0, 0), BuildingBlock: KIFKEQ_clean_linker_1, # of connection points: 2
#     Edge 100, Type (0, 0), BuildingBlock: KIFKEQ_clean_linker_1, # of connection points: 2
#     Edge 101, Type (0, 0), BuildingBlock: KIFKEQ_clean_linker_1, # of connection points: 2
#     Edge 102, Type (0, 0), BuildingBlock: KIFKEQ_clean_linker_1, # of connection points: 2
#     Edge 103, Type (0, 0), BuildingBlock: KIFKEQ_clean_linker_1, # of connection points: 2
#     Edge 104, Type (0, 0), BuildingBlock: KIFKEQ_clean_linker_1, # of connection points: 2
#     Edge 105, Type (0, 0), BuildingBlock: KIFKEQ_clean_linker_1, # of connection points: 2
#     Edge 106, Type (0, 0), BuildingBlock: KIFKEQ_clean_linker_1, # of connection points: 2
#     Edge 107, Type (0, 0), BuildingBlock: KIFKEQ_clean_linker_1, # of connection points: 2
#     Edge 108, Type (0, 0), BuildingBlock: KIFKEQ_clean_linker_1, # of connection points: 2
#     Edge 109, Type (0, 0), BuildingBlock: KIFKEQ_clean_linker_1, # of connection points: 2
#     Edge 110, Type (0, 0), BuildingBlock: KIFKEQ_clean_linker_1, # of connection points: 2
#     Edge 111, Type (0, 0), BuildingBlock: KIFKEQ_clean_linker_1, # of connection points: 2
#     Edge 112, Type (0, 0), BuildingBlock: KIFKEQ_clean_linker_1, # of connection points: 2
#     Edge 113, Type (0, 0), BuildingBlock: KIFKEQ_clean_linker_1, # of connection points: 2
#     Edge 114, Type (0, 0), BuildingBlock: KIFKEQ_clean_linker_1, # of connection points: 2
#     Edge 115, Type (0, 0), BuildingBlock: KIFKEQ_clean_linker_1, # of connection points: 2
#     Edge 116, Type (0, 0), BuildingBlock: KIFKEQ_clean_linker_1, # of connection points: 2
#     Edge 117, Type (0, 0), BuildingBlock: KIFKEQ_clean_linker_1, # of connection points: 2
#     Edge 118, Type (0, 0), BuildingBlock: KIFKEQ_clean_linker_1, # of connection points: 2
#     Edge 119, Type (0, 0), BuildingBlock: KIFKEQ_clean_linker_1, # of connection points: 2
#     Edge 120, Type (0, 0), BuildingBlock: KIFKEQ_clean_linker_1, # of connection points: 2
#     Edge 121, Type (0, 0), BuildingBlock: KIFKEQ_clean_linker_1, # of connection points: 2
#     Edge 122, Type (0, 0), BuildingBlock: KIFKEQ_clean_linker_1, # of connection points: 2
#     Edge 123, Type (0, 0), BuildingBlock: KIFKEQ_clean_linker_1, # of connection points: 2
#     Edge 124, Type (0, 0), BuildingBlock: KIFKEQ_clean_linker_1, # of connection points: 2
#     Edge 125, Type (0, 0), BuildingBlock: KIFKEQ_clean_linker_1, # of connection points: 2
#     Edge 126, Type (0, 0), BuildingBlock: KIFKEQ_clean_linker_1, # of connection points: 2
#     Edge 127, Type (0, 0), BuildingBlock: KIFKEQ_clean_linker_1, # of connection points: 2
#     Edge 128, Type (0, 0), BuildingBlock: KIFKEQ_clean_linker_1, # of connection points: 2
#     Edge 129, Type (0, 0), BuildingBlock: KIFKEQ_clean_linker_1, # of connection points: 2
#     Edge 130, Type (0, 0), BuildingBlock: KIFKEQ_clean_linker_1, # of connection points: 2
#     Edge 131, Type (0, 0), BuildingBlock: KIFKEQ_clean_linker_1, # of connection points: 2
#     Edge 132, Type (0, 0), BuildingBlock: KIFKEQ_clean_linker_1, # of connection points: 2
#     Edge 133, Type (0, 0), BuildingBlock: KIFKEQ_clean_linker_1, # of connection points: 2
#     Edge 134, Type (0, 0), BuildingBlock: KIFKEQ_clean_linker_1, # of connection points: 2
#     Edge 135, Type (0, 0), BuildingBlock: KIFKEQ_clean_linker_1, # of connection points: 2
#     Edge 136, Type (0, 0), BuildingBlock: KIFKEQ_clean_linker_1, # of connection points: 2
#     Edge 137, Type (0, 0), BuildingBlock: KIFKEQ_clean_linker_1, # of connection points: 2
#     Edge 138, Type (0, 0), BuildingBlock: KIFKEQ_clean_linker_1, # of connection points: 2
#     Edge 139, Type (0, 0), BuildingBlock: KIFKEQ_clean_linker_1, # of connection points: 2
#     Edge 140, Type (0, 0), BuildingBlock: KIFKEQ_clean_linker_1, # of connection points: 2
#     Edge 141, Type (0, 0), BuildingBlock: KIFKEQ_clean_linker_1, # of connection points: 2
#     Edge 142, Type (0, 0), BuildingBlock: KIFKEQ_clean_linker_1, # of connection points: 2
#     Edge 143, Type (0, 0), BuildingBlock: KIFKEQ_clean_linker_1, # of connection points: 2
#     Edge 144, Type (0, 0), BuildingBlock: KIFKEQ_clean_linker_1, # of connection points: 2
#     Edge 145, Type (0, 0), BuildingBlock: KIFKEQ_clean_linker_1, # of connection points: 2
#     Edge 146, Type (0, 0), BuildingBlock: KIFKEQ_clean_linker_1, # of connection points: 2
#     Edge 147, Type (0, 0), BuildingBlock: KIFKEQ_clean_linker_1, # of connection points: 2
#     Edge 148, Type (0, 0), BuildingBlock: KIFKEQ_clean_linker_1, # of connection points: 2
#     Edge 149, Type (0, 0), BuildingBlock: KIFKEQ_clean_linker_1, # of connection points: 2
#     Edge 150, Type (0, 0), BuildingBlock: KIFKEQ_clean_linker_1, # of connection points: 2
#     Edge 151, Type (0, 0), BuildingBlock: KIFKEQ_clean_linker_1, # of connection points: 2
#     Edge 152, Type (0, 0), BuildingBlock: KIFKEQ_clean_linker_1, # of connection points: 2
#     Edge 153, Type (0, 0), BuildingBlock: KIFKEQ_clean_linker_1, # of connection points: 2
#     Edge 154, Type (0, 0), BuildingBlock: KIFKEQ_clean_linker_1, # of connection points: 2
#     Edge 155, Type (0, 0), BuildingBlock: KIFKEQ_clean_linker_1, # of connection points: 2
#     Edge 156, Type (0, 0), BuildingBlock: KIFKEQ_clean_linker_1, # of connection points: 2
#     Edge 157, Type (0, 0), BuildingBlock: KIFKEQ_clean_linker_1, # of connection points: 2
#     Edge 158, Type (0, 0), BuildingBlock: KIFKEQ_clean_linker_1, # of connection points: 2
#     Edge 159, Type (0, 0), BuildingBlock: KIFKEQ_clean_linker_1, # of connection points: 2
#     Edge 160, Type (0, 0), BuildingBlock: KIFKEQ_clean_linker_1, # of connection points: 2
#     Edge 161, Type (0, 0), BuildingBlock: KIFKEQ_clean_linker_1, # of connection points: 2
#     Edge 162, Type (0, 0), BuildingBlock: KIFKEQ_clean_linker_1, # of connection points: 2
#     Edge 163, Type (0, 0), BuildingBlock: KIFKEQ_clean_linker_1, # of connection points: 2
#     Edge 164, Type (0, 0), BuildingBlock: KIFKEQ_clean_linker_1, # of connection points: 2
#     Edge 165, Type (0, 0), BuildingBlock: KIFKEQ_clean_linker_1, # of connection points: 2
#     Edge 166, Type (0, 0), BuildingBlock: KIFKEQ_clean_linker_1, # of connection points: 2
#     Edge 167, Type (0, 0), BuildingBlock: KIFKEQ_clean_linker_1, # of connection points: 2
#     Edge 168, Type (0, 0), BuildingBlock: KIFKEQ_clean_linker_1, # of connection points: 2
#     Edge 169, Type (0, 0), BuildingBlock: KIFKEQ_clean_linker_1, # of connection points: 2
#     Edge 170, Type (0, 0), BuildingBlock: KIFKEQ_clean_linker_1, # of connection points: 2
#     Edge 171, Type (0, 0), BuildingBlock: KIFKEQ_clean_linker_1, # of connection points: 2
#     Edge 172, Type (0, 0), BuildingBlock: KIFKEQ_clean_linker_1, # of connection points: 2
#     Edge 173, Type (0, 0), BuildingBlock: KIFKEQ_clean_linker_1, # of connection points: 2
#     Edge 174, Type (0, 0), BuildingBlock: KIFKEQ_clean_linker_1, # of connection points: 2
#     Edge 175, Type (0, 0), BuildingBlock: KIFKEQ_clean_linker_1, # of connection points: 2
#     Edge 176, Type (0, 0), BuildingBlock: KIFKEQ_clean_linker_1, # of connection points: 2
#     Edge 177, Type (0, 0), BuildingBlock: KIFKEQ_clean_linker_1, # of connection points: 2
#     Edge 178, Type (0, 0), BuildingBlock: KIFKEQ_clean_linker_1, # of connection points: 2
#     Edge 179, Type (0, 0), BuildingBlock: KIFKEQ_clean_linker_1, # of connection points: 2
#     Edge 180, Type (0, 0), BuildingBlock: KIFKEQ_clean_linker_1, # of connection points: 2
#     Edge 181, Type (0, 0), BuildingBlock: KIFKEQ_clean_linker_1, # of connection points: 2
#     Edge 182, Type (0, 0), BuildingBlock: KIFKEQ_clean_linker_1, # of connection points: 2
#     Edge 183, Type (0, 0), BuildingBlock: KIFKEQ_clean_linker_1, # of connection points: 2
#     Edge 184, Type (0, 0), BuildingBlock: KIFKEQ_clean_linker_1, # of connection points: 2
#     Edge 185, Type (0, 0), BuildingBlock: KIFKEQ_clean_linker_1, # of connection points: 2
#     Edge 186, Type (0, 0), BuildingBlock: KIFKEQ_clean_linker_1, # of connection points: 2
#     Edge 187, Type (0, 0), BuildingBlock: KIFKEQ_clean_linker_1, # of connection points: 2
#     Edge 188, Type (0, 0), BuildingBlock: KIFKEQ_clean_linker_1, # of connection points: 2
#     Edge 189, Type (0, 0), BuildingBlock: KIFKEQ_clean_linker_1, # of connection points: 2
#     Edge 190, Type (0, 0), BuildingBlock: KIFKEQ_clean_linker_1, # of connection points: 2
#     Edge 191, Type (0, 0), BuildingBlock: KIFKEQ_clean_linker_1, # of connection points: 2
#     Edge 192, Type (0, 0), BuildingBlock: KIFKEQ_clean_linker_1, # of connection points: 2
#     Edge 193, Type (0, 0), BuildingBlock: KIFKEQ_clean_linker_1, # of connection points: 2
#     Edge 194, Type (0, 0), BuildingBlock: KIFKEQ_clean_linker_1, # of connection points: 2
#     Edge 195, Type (0, 0), BuildingBlock: KIFKEQ_clean_linker_1, # of connection points: 2
#     Edge 196, Type (0, 0), BuildingBlock: KIFKEQ_clean_linker_1, # of connection points: 2
#     Edge 197, Type (0, 0), BuildingBlock: KIFKEQ_clean_linker_1, # of connection points: 2
#     Edge 198, Type (0, 0), BuildingBlock: KIFKEQ_clean_linker_1, # of connection points: 2
#     Edge 199, Type (0, 0), BuildingBlock: KIFKEQ_clean_linker_1, # of connection points: 2
#     Edge 200, Type (0, 0), BuildingBlock: KIFKEQ_clean_linker_1, # of connection points: 2
#     Edge 201, Type (0, 0), BuildingBlock: KIFKEQ_clean_linker_1, # of connection points: 2
#     Edge 202, Type (0, 0), BuildingBlock: KIFKEQ_clean_linker_1, # of connection points: 2
#     Edge 203, Type (0, 0), BuildingBlock: KIFKEQ_clean_linker_1, # of connection points: 2
#     Edge 204, Type (0, 0), BuildingBlock: KIFKEQ_clean_linker_1, # of connection points: 2
#     Edge 205, Type (0, 0), BuildingBlock: KIFKEQ_clean_linker_1, # of connection points: 2
#     Edge 206, Type (0, 0), BuildingBlock: KIFKEQ_clean_linker_1, # of connection points: 2
#     Edge 207, Type (0, 0), BuildingBlock: KIFKEQ_clean_linker_1, # of connection points: 2
#     Edge 208, Type (0, 0), BuildingBlock: KIFKEQ_clean_linker_1, # of connection points: 2
#     Edge 209, Type (0, 0), BuildingBlock: KIFKEQ_clean_linker_1, # of connection points: 2
#     Edge 210, Type (0, 0), BuildingBlock: KIFKEQ_clean_linker_1, # of connection points: 2
#     Edge 211, Type (0, 0), BuildingBlock: KIFKEQ_clean_linker_1, # of connection points: 2
#     Edge 212, Type (0, 0), BuildingBlock: KIFKEQ_clean_linker_1, # of connection points: 2
#     Edge 213, Type (0, 0), BuildingBlock: KIFKEQ_clean_linker_1, # of connection points: 2
#     Edge 214, Type (0, 0), BuildingBlock: KIFKEQ_clean_linker_1, # of connection points: 2
#     Edge 215, Type (0, 0), BuildingBlock: KIFKEQ_clean_linker_1, # of connection points: 2
#     Edge 216, Type (0, 0), BuildingBlock: KIFKEQ_clean_linker_1, # of connection points: 2
#     Edge 217, Type (0, 0), BuildingBlock: KIFKEQ_clean_linker_1, # of connection points: 2
#     Edge 218, Type (0, 0), BuildingBlock: KIFKEQ_clean_linker_1, # of connection points: 2
#     Edge 219, Type (0, 0), BuildingBlock: KIFKEQ_clean_linker_1, # of connection points: 2
#     Edge 220, Type (0, 0), BuildingBlock: KIFKEQ_clean_linker_1, # of connection points: 2
#     Edge 221, Type (0, 0), BuildingBlock: KIFKEQ_clean_linker_1, # of connection points: 2
#     Edge 222, Type (0, 0), BuildingBlock: KIFKEQ_clean_linker_1, # of connection points: 2
#     Edge 223, Type (0, 0), BuildingBlock: KIFKEQ_clean_linker_1, # of connection points: 2
#     Edge 224, Type (0, 0), BuildingBlock: KIFKEQ_clean_linker_1, # of connection points: 2
#     Edge 225, Type (0, 0), BuildingBlock: KIFKEQ_clean_linker_1, # of connection points: 2
#     Edge 226, Type (0, 0), BuildingBlock: KIFKEQ_clean_linker_1, # of connection points: 2
#     Edge 227, Type (0, 0), BuildingBlock: KIFKEQ_clean_linker_1, # of connection points: 2
#     Edge 228, Type (0, 0), BuildingBlock: KIFKEQ_clean_linker_1, # of connection points: 2
#     Edge 229, Type (0, 0), BuildingBlock: KIFKEQ_clean_linker_1, # of connection points: 2
#     Edge 230, Type (0, 0), BuildingBlock: KIFKEQ_clean_linker_1, # of connection points: 2
#     Edge 231, Type (0, 0), BuildingBlock: KIFKEQ_clean_linker_1, # of connection points: 2
#     Edge 232, Type (0, 0), BuildingBlock: KIFKEQ_clean_linker_1, # of connection points: 2
#     Edge 233, Type (0, 0), BuildingBlock: KIFKEQ_clean_linker_1, # of connection points: 2
#     Edge 234, Type (0, 0), BuildingBlock: KIFKEQ_clean_linker_1, # of connection points: 2
#     Edge 235, Type (0, 0), BuildingBlock: KIFKEQ_clean_linker_1, # of connection points: 2
#     Edge 236, Type (0, 0), BuildingBlock: KIFKEQ_clean_linker_1, # of connection points: 2
#     Edge 237, Type (0, 0), BuildingBlock: KIFKEQ_clean_linker_1, # of connection points: 2
#     Edge 238, Type (0, 0), BuildingBlock: KIFKEQ_clean_linker_1, # of connection points: 2
#     Edge 239, Type (0, 0), BuildingBlock: KIFKEQ_clean_linker_1, # of connection points: 2
#     Edge 240, Type (0, 0), BuildingBlock: KIFKEQ_clean_linker_1, # of connection points: 2
#     Edge 241, Type (0, 0), BuildingBlock: KIFKEQ_clean_linker_1, # of connection points: 2
#     Edge 242, Type (0, 0), BuildingBlock: KIFKEQ_clean_linker_1, # of connection points: 2
#     Edge 243, Type (0, 0), BuildingBlock: KIFKEQ_clean_linker_1, # of connection points: 2
#     Edge 244, Type (0, 0), BuildingBlock: KIFKEQ_clean_linker_1, # of connection points: 2
#     Edge 245, Type (0, 0), BuildingBlock: KIFKEQ_clean_linker_1, # of connection points: 2
#     Edge 246, Type (0, 0), BuildingBlock: KIFKEQ_clean_linker_1, # of connection points: 2
#     Edge 247, Type (0, 0), BuildingBlock: KIFKEQ_clean_linker_1, # of connection points: 2
#     Edge 248, Type (0, 0), BuildingBlock: KIFKEQ_clean_linker_1, # of connection points: 2
#     Edge 249, Type (0, 0), BuildingBlock: KIFKEQ_clean_linker_1, # of connection points: 2
#     Edge 250, Type (0, 0), BuildingBlock: KIFKEQ_clean_linker_1, # of connection points: 2
#     Edge 251, Type (0, 0), BuildingBlock: KIFKEQ_clean_linker_1, # of connection points: 2
#     Edge 252, Type (0, 0), BuildingBlock: KIFKEQ_clean_linker_1, # of connection points: 2
#     Edge 253, Type (0, 0), BuildingBlock: KIFKEQ_clean_linker_1, # of connection points: 2
#     Edge 254, Type (0, 0), BuildingBlock: KIFKEQ_clean_linker_1, # of connection points: 2
#     Edge 255, Type (0, 0), BuildingBlock: KIFKEQ_clean_linker_1, # of connection points: 2
#     Edge 256, Type (0, 0), BuildingBlock: KIFKEQ_clean_linker_1, # of connection points: 2
#     Edge 257, Type (0, 0), BuildingBlock: KIFKEQ_clean_linker_1, # of connection points: 2
#     Edge 258, Type (0, 0), BuildingBlock: KIFKEQ_clean_linker_1, # of connection points: 2
#     Edge 259, Type (0, 0), BuildingBlock: KIFKEQ_clean_linker_1, # of connection points: 2
#     Edge 260, Type (0, 0), BuildingBlock: KIFKEQ_clean_linker_1, # of connection points: 2
#     Edge 261, Type (0, 0), BuildingBlock: KIFKEQ_clean_linker_1, # of connection points: 2
#     Edge 262, Type (0, 0), BuildingBlock: KIFKEQ_clean_linker_1, # of connection points: 2
#     Edge 263, Type (0, 0), BuildingBlock: KIFKEQ_clean_linker_1, # of connection points: 2
#     Edge 264, Type (0, 0), BuildingBlock: KIFKEQ_clean_linker_1, # of connection points: 2
#     Edge 265, Type (0, 0), BuildingBlock: KIFKEQ_clean_linker_1, # of connection points: 2
#     Edge 266, Type (0, 0), BuildingBlock: KIFKEQ_clean_linker_1, # of connection points: 2
#     Edge 267, Type (0, 0), BuildingBlock: KIFKEQ_clean_linker_1, # of connection points: 2
#     Edge 268, Type (0, 0), BuildingBlock: KIFKEQ_clean_linker_1, # of connection points: 2
#     Edge 269, Type (0, 0), BuildingBlock: KIFKEQ_clean_linker_1, # of connection points: 2
#     Edge 270, Type (0, 0), BuildingBlock: KIFKEQ_clean_linker_1, # of connection points: 2
#     Edge 271, Type (0, 0), BuildingBlock: KIFKEQ_clean_linker_1, # of connection points: 2
#     Edge 272, Type (0, 0), BuildingBlock: KIFKEQ_clean_linker_1, # of connection points: 2
#     Edge 273, Type (0, 0), BuildingBlock: KIFKEQ_clean_linker_1, # of connection points: 2
#     Edge 274, Type (0, 0), BuildingBlock: KIFKEQ_clean_linker_1, # of connection points: 2
#     Edge 275, Type (0, 0), BuildingBlock: KIFKEQ_clean_linker_1, # of connection points: 2
#     Edge 276, Type (0, 0), BuildingBlock: KIFKEQ_clean_linker_1, # of connection points: 2
#     Edge 277, Type (0, 0), BuildingBlock: KIFKEQ_clean_linker_1, # of connection points: 2
#     Edge 278, Type (0, 0), BuildingBlock: KIFKEQ_clean_linker_1, # of connection points: 2
#     Edge 279, Type (0, 0), BuildingBlock: KIFKEQ_clean_linker_1, # of connection points: 2
#     Edge 280, Type (0, 0), BuildingBlock: KIFKEQ_clean_linker_1, # of connection points: 2
#     Edge 281, Type (0, 0), BuildingBlock: KIFKEQ_clean_linker_1, # of connection points: 2
#     Edge 282, Type (0, 0), BuildingBlock: KIFKEQ_clean_linker_1, # of connection points: 2
#     Edge 283, Type (0, 0), BuildingBlock: KIFKEQ_clean_linker_1, # of connection points: 2
#     Edge 284, Type (0, 0), BuildingBlock: KIFKEQ_clean_linker_1, # of connection points: 2
#     Edge 285, Type (0, 0), BuildingBlock: KIFKEQ_clean_linker_1, # of connection points: 2
#     Edge 286, Type (0, 0), BuildingBlock: KIFKEQ_clean_linker_1, # of connection points: 2
#     Edge 287, Type (0, 0), BuildingBlock: KIFKEQ_clean_linker_1, # of connection points: 2
# Relax obj value: 0.033
# Max RMSD: 0.045
# Mean RMSD: 0.045
data_MOF--net-ula--node1-MUDLON_clean_sbu_0--edge1-KIFKEQ_clean_linker_1
_symmetry_space_group_name_H-M    P1
_symmetry_Int_Tables_number       1
_symmetry_cell_setting            triclinic
loop_
_symmetry_equiv_pos_as_xyz
'x, y, z'
_cell_length_a     73.648219
_cell_length_b     73.592464
_cell_length_c     73.622905
_cell_angle_alpha  90.012543
_cell_angle_beta   90.022815
_cell_angle_gamma 90.011071
loop_
_atom_site_label
_atom_site_type_symbol
_atom_site_fract_x
_atom_site_fract_y
_atom_site_fract_z
_atom_type_partial_charge
Mg0 Mg 0.02942 0.0527 0.35228 0.0
C1 C 0.0657 0.06619 0.34423 0.0
O2 O 0.05424 0.07935 0.34047 0.0
C3 C 0.99556 0.03319 0.36057 0.0
O4 O 0.99201 0.04239 0.34571 0.0
C5 C 0.02538 0.03245 0.31945 0.0
O6 O 0.03213 0.02177 0.33207 0.0
O7 O 0.02192 0.04891 0.32371 0.0
O8 O 0.05931 0.05143 0.35075 0.0
O9 O 0.02428 0.07646 0.36952 0.0
C10 C 0.03022 0.07237 0.3853 0.0
O11 O 0.0382 0.05653 0.38735 0.0
O12 O 0.0118 0.03333 0.36669 0.0
Mg13 Mg 0.2095 0.78035 0.60072 0.0
C14 C 0.19639 0.81693 0.59321 0.0
O15 O 0.18308 0.80569 0.58933 0.0
C16 C 0.22618 0.74585 0.60961 0.0
O17 O 0.21508 0.74297 0.59593 0.0
C18 C 0.23006 0.77633 0.56805 0.0
O19 O 0.24065 0.78308 0.58075 0.0
O20 O 0.21357 0.77291 0.57218 0.0
O21 O 0.21107 0.81025 0.59962 0.0
O22 O 0.18545 0.77492 0.61749 0.0
C23 C 0.18964 0.77944 0.63372 0.0
O24 O 0.20579 0.78652 0.6365 0.0
O25 O 0.22849 0.76221 0.61494 0.0
Mg26 Mg 0.48228 0.96186 0.85312 0.0
C27 C 0.44667 0.94891 0.84181 0.0
O28 O 0.45871 0.93749 0.83523 0.0
C29 C 0.51375 0.98592 0.86319 0.0
O30 O 0.51762 0.98252 0.84612 0.0
C31 C 0.48502 0.98247 0.82031 0.0
O32 O 0.47618 0.99216 0.83242 0.0
O33 O 0.49045 0.96666 0.82492 0.0
O34 O 0.45243 0.96227 0.85127 0.0
O35 O 0.48794 0.93768 0.86956 0.0
C36 C 0.48085 0.94077 0.88509 0.0
O37 O 0.4715 0.95585 0.88712 0.0
O38 O 0.49831 0.98106 0.86939 0.0
Mg39 Mg 0.30566 0.23474 0.10258 0.0
C40 C 0.31299 0.19868 0.08645 0.0
O41 O 0.31981 0.21055 0.07503 0.0
C42 C 0.2909 0.26964 0.111 0.0
O43 O 0.30357 0.27131 0.09855 0.0
C44 C 0.28458 0.24009 0.07028 0.0
O45 O 0.27402 0.2336 0.08312 0.0
O46 O 0.30123 0.24298 0.07415 0.0
O47 O 0.30468 0.20463 0.1005 0.0
O48 O 0.329 0.23938 0.12064 0.0
C49 C 0.32531 0.23077 0.13524 0.0
O50 O 0.31045 0.22086 0.13552 0.0
O51 O 0.28695 0.25364 0.11648 0.0
Mg52 Mg 0.02872 0.96044 0.15956 0.0
C53 C 0.065 0.94763 0.16828 0.0
O54 O 0.05352 0.93487 0.17319 0.0
C55 C 0.99499 0.98036 0.15143 0.0
O56 O 0.99146 0.97165 0.16659 0.0
C57 C 0.02519 0.98071 0.19244 0.0
O58 O 0.03203 0.99131 0.17981 0.0
O59 O 0.02147 0.96431 0.18817 0.0
O60 O 0.05858 0.9619 0.16076 0.0
O61 O 0.02359 0.93647 0.14259 0.0
C62 C 0.02957 0.94033 0.12678 0.0
O63 O 0.03754 0.95616 0.12452 0.0
O64 O 0.01112 0.97975 0.1451 0.0
Mg65 Mg 0.30236 0.77825 0.4084 0.0
C66 C 0.31457 0.81461 0.41713 0.0
O67 O 0.32708 0.80307 0.42251 0.0
C68 C 0.291 0.74279 0.39781 0.0
O69 O 0.30614 0.7418 0.40723 0.0
C70 C 0.28206 0.77378 0.44107 0.0
O71 O 0.27111 0.77932 0.42811 0.0
O72 O 0.29875 0.77131 0.4371 0.0
O73 O 0.3005 0.80819 0.40922 0.0
O74 O 0.32702 0.77307 0.3923 0.0
C75 C 0.32296 0.77185 0.37547 0.0
O76 O 0.30593 0.77403 0.37064 0.0
O77 O 0.28375 0.75842 0.39573 0.0
Mg78 Mg 0.48412 0.05621 0.66158 0.0
C79 C 0.44777 0.0699 0.66947 0.0
O80 O 0.45919 0.08308 0.67327 0.0
C81 C 0.51784 0.03643 0.65335 0.0
O82 O 0.52153 0.04586 0.66804 0.0
C83 C 0.48852 0.03567 0.69419 0.0
O84 O 0.48227 0.0249 0.68138 0.0
O85 O 0.49148 0.05228 0.69014 0.0
O86 O 0.45421 0.05516 0.66292 0.0
O87 O 0.48996 0.08003 0.64462 0.0
C88 C 0.48545 0.07575 0.62842 0.0
O89 O 0.47812 0.05968 0.62577 0.0
O90 O 0.50159 0.03657 0.64729 0.0
Mg91 Mg 0.21014 0.23287 0.91163 0.0
C92 C 0.20199 0.19693 0.92679 0.0
O93 O 0.19291 0.20871 0.93664 0.0
C94 C 0.22613 0.2672 0.90179 0.0
O95 O 0.21449 0.27016 0.91498 0.0
C96 C 0.23102 0.23838 0.94394 0.0
O97 O 0.24153 0.23147 0.93127 0.0
O98 O 0.21443 0.24148 0.93992 0.0
O99 O 0.21204 0.20299 0.914 0.0
O100 O 0.18648 0.23706 0.89388 0.0
C101 C 0.18955 0.22786 0.87949 0.0
O102 O 0.20415 0.2176 0.87912 0.0
O103 O 0.22897 0.25078 0.89694 0.0
Mg104 Mg 0.35601 0.0308 0.0515 0.0
C105 C 0.36062 0.07166 0.06203 0.0
O106 O 0.37338 0.06545 0.07281 0.0
C107 C 0.3869 0.00939 0.03516 0.0
O108 O 0.39557 0.01765 0.04839 0.0
C109 C 0.32397 0.02542 0.0297 0.0
O110 O 0.33645 0.03279 0.01928 0.0
O111 O 0.32811 0.02196 0.04618 0.0
O112 O 0.3532 0.0608 0.05072 0.0
O113 O 0.37096 0.02214 0.07583 0.0
C114 C 0.37148 0.02824 0.09198 0.0
O115 O 0.35928 0.04014 0.09725 0.0
O116 O 0.371 0.01487 0.03107 0.0
Mg117 Mg 0.23362 0.10403 0.30204 0.0
C118 C 0.19838 0.08868 0.31262 0.0
O119 O 0.21078 0.07937 0.32145 0.0
C120 C 0.25276 0.13663 0.2862 0.0
O121 O 0.24274 0.14478 0.2985 0.0
C122 C 0.24019 0.07238 0.27949 0.0
O123 O 0.2335 0.08507 0.26887 0.0
O124 O 0.24281 0.07626 0.29619 0.0
O125 O 0.20373 0.10126 0.30191 0.0
O126 O 0.24124 0.11838 0.32721 0.0
C127 C 0.22885 0.12656 0.33613 0.0
O128 O 0.2118 0.12342 0.33199 0.0
O129 O 0.24928 0.12011 0.28241 0.0
Mg130 Mg 0.16113 0.98595 0.55302 0.0
C131 C 0.17601 0.95032 0.56287 0.0
O132 O 0.18548 0.96249 0.57188 0.0
C133 C 0.12971 0.00767 0.53798 0.0
O134 O 0.12141 0.99932 0.55137 0.0
C135 C 0.19283 0.99165 0.53043 0.0
O136 O 0.17997 0.98494 0.52001 0.0
O137 O 0.18908 0.9946 0.5471 0.0
O138 O 0.16349 0.956 0.55226 0.0
O139 O 0.14703 0.99308 0.57851 0.0
C140 C 0.13856 0.98051 0.58692 0.0
O141 O 0.14134 0.96357 0.58209 0.0
O142 O 0.14551 1.00228 0.53345 0.0
Mg143 Mg 0.27737 0.91325 0.80411 0.0
C144 C 0.31325 0.92308 0.81697 0.0
O145 O 0.30143 0.92889 0.82902 0.0
C146 C 0.24414 0.90525 0.78325 0.0
O147 O 0.24024 0.92018 0.7922 0.0
C148 C 0.27426 0.94678 0.78445 0.0
O149 O 0.28161 0.93448 0.77378 0.0
O150 O 0.27002 0.94201 0.80058 0.0
O151 O 0.30722 0.91457 0.8031 0.0
O152 O 0.27197 0.89562 0.82766 0.0
C153 C 0.27658 0.87949 0.82314 0.0
O154 O 0.28357 0.87709 0.80689 0.0
O155 O 0.26034 0.89913 0.78405 0.0
Mg156 Mg 0.35157 0.98411 0.45513 0.0
C157 C 0.33813 0.9484 0.44383 0.0
O158 O 0.3305 0.96049 0.43313 0.0
C159 C 0.36196 0.01733 0.47477 0.0
O160 O 0.3467 0.02142 0.46649 0.0
C161 C 0.31921 0.98869 0.47687 0.0
O162 O 0.33173 0.98121 0.48716 0.0
O163 O 0.32337 0.99247 0.46046 0.0
O164 O 0.34898 0.95414 0.45613 0.0
O165 O 0.36687 0.99012 0.43012 0.0
C166 C 0.37846 0.97797 0.42578 0.0
O167 O 0.3785 0.96256 0.43475 0.0
O168 O 0.36766 1.00095 0.47393 0.0
Mg169 Mg 0.27972 0.10664 0.71207 0.0
C170 C 0.31506 0.09144 0.70176 0.0
O171 O 0.30271 0.08223 0.69274 0.0
C172 C 0.25912 0.13844 0.7278 0.0
O173 O 0.26878 0.14701 0.7155 0.0
C174 C 0.27328 0.07462 0.73413 0.0
O175 O 0.27996 0.08721 0.74489 0.0
O176 O 0.27065 0.07871 0.71748 0.0
O177 O 0.30964 0.1039 0.71259 0.0
O178 O 0.27264 0.12137 0.68693 0.0
C179 C 0.28525 0.1297 0.67845 0.0
O180 O 0.30219 0.12653 0.68299 0.0
O181 O 0.26341 0.12214 0.73171 0.0
Mg182 Mg 0.16346 0.02685 0.95858 0.0
C183 C 0.17656 0.06294 0.94944 0.0
O184 O 0.18571 0.05121 0.93958 0.0
C185 C 0.15564 0.99201 0.97478 0.0
O186 O 0.1684 0.98962 0.96254 0.0
C187 C 0.1966 0.02365 0.97849 0.0
O188 O 0.18397 0.03034 0.98919 0.0
O189 O 0.19221 0.01978 0.96217 0.0
O190 O 0.16456 0.05677 0.96036 0.0
O191 O 0.14626 0.02174 0.93476 0.0
C192 C 0.12998 0.02547 0.93944 0.0
O193 O 0.12727 0.03158 0.956 0.0
O194 O 0.1502 0.00821 0.97783 0.0
Mg195 Mg 0.2344 0.91245 0.20642 0.0
C196 C 0.1987 0.92586 0.19551 0.0
O197 O 0.21073 0.93408 0.1852 0.0
C198 C 0.26704 0.90292 0.22748 0.0
O199 O 0.27116 0.91837 0.21958 0.0
C200 C 0.23811 0.94529 0.22759 0.0
O201 O 0.23037 0.93294 0.23789 0.0
O202 O 0.24239 0.94083 0.21138 0.0
O203 O 0.2045 0.9146 0.20738 0.0
O204 O 0.24108 0.89701 0.18164 0.0
C205 C 0.22866 0.8866 0.17549 0.0
O206 O 0.21228 0.88775 0.18239 0.0
O207 O 0.25087 0.89684 0.22583 0.0
Mg208 Mg 0.05472 0.35494 0.02752 0.0
C209 C 0.06591 0.3401 0.06284 0.0
O210 O 0.07509 0.33107 0.05048 0.0
C211 C 0.03869 0.38628 1.00639 0.0
O212 O 0.05236 0.39468 0.01417 0.0
C213 C 0.03215 0.32324 0.02238 0.0
O214 O 0.02205 0.33591 0.02987 0.0
O215 O 0.04865 0.3271 0.01873 0.0
O216 O 0.05486 0.35236 0.05744 0.0
O217 O 0.07979 0.36916 0.01936 0.0
C218 C 0.08815 0.37842 0.0314 0.0
O219 O 0.08373 0.37611 0.04852 0.0
O220 O 0.03443 0.37048 0.01204 0.0
Mg221 Mg 0.55432 0.15886 0.98645 0.0
C222 C 0.56285 0.15267 0.94487 0.0
O223 O 0.57115 0.13776 0.95006 0.0
C224 C 0.537 0.12764 1.00648 0.0
O225 O 0.55021 0.1189 0.99828 0.0
C226 C 0.53189 0.19061 0.99151 0.0
O227 O 0.52193 0.17802 0.98369 0.0
O228 O 0.54833 0.18669 0.99544 0.0
O229 O 0.55402 0.16192 0.95655 0.0
O230 O 0.57824 0.1436 0.99604 0.0
C231 C 0.59309 0.14005 0.98792 0.0
O232 O 0.59768 0.14961 0.97359 0.0
O233 O 0.53331 0.14373 1.00128 0.0
Mg234 Mg 0.10207 0.30228 0.23224 0.0
C235 C 0.09444 0.31583 0.19597 0.0
O236 O 0.09032 0.3288 0.20754 0.0
C237 C 0.11086 0.28588 0.26682 0.0
O238 O 0.09745 0.29733 0.26956 0.0
C239 C 0.06928 0.28182 0.23667 0.0
O240 O 0.08202 0.27094 0.23048 0.0
O241 O 0.07345 0.29841 0.23958 0.0
O242 O 0.10101 0.30107 0.20232 0.0
O243 O 0.11914 0.32615 0.23762 0.0
C244 C 0.13525 0.32185 0.23282 0.0
O245 O 0.13777 0.30569 0.22563 0.0
O246 O 0.1161 0.28324 0.25049 0.0
Mg247 Mg 0.95556 0.85111 0.48318 0.0
C248 C 0.94838 0.835 0.44689 0.0
O249 O 0.94356 0.82235 0.45851 0.0
C250 C 0.97302 0.86113 0.51667 0.0
O251 O 0.9612 0.84822 0.52015 0.0
C252 C 0.97745 0.81914 0.48842 0.0
O253 O 0.98774 0.83195 0.48144 0.0
O254 O 0.96084 0.82291 0.49164 0.0
O255 O 0.95514 0.84976 0.4531 0.0
O256 O 0.93234 0.86858 0.49023 0.0
C257 C 0.93712 0.8847 0.48589 0.0
O258 O 0.95276 0.8868 0.47756 0.0
O259 O 0.97548 0.86567 0.5001 0.0
Mg260 Mg 0.90876 0.21057 0.23397 0.0
C261 C 0.91848 0.1982 0.19788 0.0
O262 O 0.92451 0.18619 0.20964 0.0
C263 C 0.90138 0.22758 0.26885 0.0
O264 O 0.91458 0.21587 0.27147 0.0
C265 C 0.94186 0.23064 0.23714 0.0
O266 O 0.92916 0.2414 0.2307 0.0
O267 O 0.93757 0.2142 0.24068 0.0
O268 O 0.90972 0.21188 0.20404 0.0
O269 O 0.89228 0.18621 0.23974 0.0
C270 C 0.8755 0.19037 0.2413 0.0
O271 O 0.87077 0.20747 0.23941 0.0
O272 O 0.8959 0.2302 0.25259 0.0
Mg273 Mg 0.45947 0.66159 0.52825 0.0
C274 C 0.45107 0.67439 0.56442 0.0
O275 O 0.44161 0.68405 0.55276 0.0
C276 C 0.47864 0.65487 0.49384 0.0
O277 O 0.47093 0.67085 0.49204 0.0
C278 C 0.48103 0.69436 0.52629 0.0
O279 O 0.4913 0.68131 0.53286 0.0
O280 O 0.46461 0.6905 0.52222 0.0
O281 O 0.4616 0.66208 0.55815 0.0
O282 O 0.43372 0.64683 0.52473 0.0
C283 C 0.4304 0.63703 0.51082 0.0
O284 O 0.44041 0.63905 0.49622 0.0
O285 O 0.47755 0.64696 0.50925 0.0
Mg286 Mg 0.10024 0.70711 0.27911 0.0
C287 C 0.08917 0.69491 0.31496 0.0
O288 O 0.08291 0.68313 0.30309 0.0
C289 C 0.10998 0.72379 0.24509 0.0
O290 O 0.09672 0.71225 0.24194 0.0
C291 C 0.0676 0.72795 0.27409 0.0
O292 O 0.08024 0.73868 0.28071 0.0
O293 O 0.07177 0.71138 0.27107 0.0
O294 O 0.09834 0.70838 0.30899 0.0
O295 O 0.11726 0.68307 0.27396 0.0
C296 C 0.13213 0.68513 0.28267 0.0
O297 O 0.13367 0.69938 0.29332 0.0
O298 O 0.11488 0.72627 0.26155 0.0
Mg299 Mg 0.41114 0.30365 0.77825 0.0
C300 C 0.41981 0.31542 0.81464 0.0
O301 O 0.42569 0.32775 0.80315 0.0
C302 C 0.40502 0.28831 0.74272 0.0
O303 O 0.41854 0.29989 0.74154 0.0
C304 C 0.44405 0.2835 0.77495 0.0
O305 O 0.43103 0.27259 0.78045 0.0
O306 O 0.44008 0.30015 0.77215 0.0
O307 O 0.41152 0.3016 0.80815 0.0
O308 O 0.39429 0.32772 0.77326 0.0
C309 C 0.37797 0.32308 0.77684 0.0
O310 O 0.37513 0.30648 0.78279 0.0
O311 O 0.39826 0.28524 0.7584 0.0
Mg312 Mg 0.98475 0.96133 0.6588 0.0
C313 C 0.94846 0.95234 0.67157 0.0
O314 O 0.9601 0.94272 0.68109 0.0
C315 C 0.02021 0.97636 0.65194 0.0
O316 O 0.02153 0.96445 0.66517 0.0
C317 C 0.98861 0.98178 0.69177 0.0
O318 O 0.98263 0.99267 0.67894 0.0
O319 O 0.99155 0.96519 0.68764 0.0
O320 O 0.95476 0.96316 0.65952 0.0
O321 O 0.98952 0.93719 0.64194 0.0
C322 C 0.98569 0.94172 0.62563 0.0
O323 O 0.97973 0.95831 0.62277 0.0
O324 O 1.00442 0.97972 0.64556 0.0
Mg325 Mg 0.80429 0.23304 0.41337 0.0
C326 C 0.82055 0.19701 0.41843 0.0
O327 O 0.83388 0.20879 0.41995 0.0
C328 C 0.78257 0.26578 0.40441 0.0
O329 O 0.78963 0.2697 0.42032 0.0
C330 C 0.78361 0.23595 0.44634 0.0
O331 O 0.77336 0.22825 0.43392 0.0
O332 O 0.79975 0.24048 0.4419 0.0
O333 O 0.80472 0.20302 0.41462 0.0
O334 O 0.82791 0.23977 0.39633 0.0
C335 C 0.82384 0.23492 0.38017 0.0
O336 O 0.80811 0.22688 0.3776 0.0
O337 O 0.78447 0.24965 0.39829 0.0
Mg338 Mg 0.52739 0.05524 0.15977 0.0
C339 C 0.56364 0.06606 0.16918 0.0
O340 O 0.55209 0.07818 0.17538 0.0
C341 C 0.49209 0.03729 0.15416 0.0
O342 O 0.49042 0.04661 0.16927 0.0
C343 C 0.5227 0.03442 0.19257 0.0
O344 O 0.52623 0.02302 0.17929 0.0
O345 O 0.5218 0.05135 0.18886 0.0
O346 O 0.55722 0.05252 0.16038 0.0
O347 O 0.52445 0.08048 0.14398 0.0
C348 C 0.51106 0.08318 0.13332 0.0
O349 O 0.4964 0.07321 0.13521 0.0
O350 O 0.50758 0.03707 0.14632 0.0
Mg351 Mg 0.70833 0.77919 0.91319 0.0
C352 C 0.70006 0.81546 0.92714 0.0
O353 O 0.69107 0.80376 0.93718 0.0
C354 C 0.7222 0.74374 0.90489 0.0
O355 O 0.70987 0.74242 0.91772 0.0
C356 C 0.72945 0.77383 0.94552 0.0
O357 O 0.7403 0.77931 0.93245 0.0
O358 O 0.71265 0.77172 0.94179 0.0
O359 O 0.71011 0.80922 0.91441 0.0
O360 O 0.68411 0.77442 0.89645 0.0
C361 C 0.68849 0.77886 0.88026 0.0
O362 O 0.70484 0.78553 0.87761 0.0
O363 O 0.72639 0.75964 0.89929 0.0
Mg364 Mg 0.9853 0.05399 0.85187 0.0
C365 C 0.9495 0.06642 0.84158 0.0
O366 O 0.96142 0.07821 0.83543 0.0
C367 C 0.01966 0.03724 0.86068 0.0
O368 O 0.02255 0.04886 0.84745 0.0
C369 C 0.98925 0.03346 0.81908 0.0
O370 O 0.98276 0.02278 0.83183 0.0
O371 O 0.99262 0.04997 0.82324 0.0
O372 O 0.95545 0.05279 0.85055 0.0
O373 O 0.99061 0.078 0.86883 0.0
C374 C 0.98641 0.07371 0.88511 0.0
O375 O 0.97982 0.05736 0.88798 0.0
O376 O 1.0033 0.03469 0.86584 0.0
Mg377 Mg 0.71224 0.23506 0.60694 0.0
C378 C 0.69684 0.19825 0.60412 0.0
O379 O 0.68293 0.20942 0.60392 0.0
C380 C 0.72934 0.26989 0.61345 0.0
O381 O 0.71672 0.27216 0.60104 0.0
C382 C 0.73216 0.23821 0.57367 0.0
O383 O 0.74314 0.23229 0.58644 0.0
O384 O 0.71565 0.24133 0.57796 0.0
O385 O 0.7127 0.20496 0.60636 0.0
O386 O 0.68837 0.24185 0.62375 0.0
C387 C 0.69271 0.24356 0.64047 0.0
O388 O 0.70982 0.24157 0.64506 0.0
O389 O 0.73238 0.25375 0.6191 0.0
Mg390 Mg 0.5315 0.95936 0.35124 0.0
C391 C 0.56823 0.94485 0.34723 0.0
O392 O 0.55698 0.9311 0.34556 0.0
C393 C 0.49581 0.97293 0.35891 0.0
O394 O 0.49481 0.96031 0.34631 0.0
C395 C 0.52355 0.98002 0.31865 0.0
O396 O 0.52576 0.9918 0.33187 0.0
O397 O 0.52483 0.96311 0.32237 0.0
O398 O 0.56156 0.96051 0.35075 0.0
O399 O 0.52595 0.93537 0.36815 0.0
C400 C 0.5298 0.93988 0.38446 0.0
O401 O 0.53626 0.9563 0.38727 0.0
O402 O 0.51157 0.97743 0.36465 0.0
Mg403 Mg 0.80571 0.77983 0.10374 0.0
C404 C 0.81338 0.81519 0.08724 0.0
O405 O 0.82129 0.80287 0.07703 0.0
C406 C 0.78449 0.74698 0.11396 0.0
O407 O 0.79073 0.74317 0.0977 0.0
C408 C 0.78377 0.77601 0.07155 0.0
O409 O 0.77398 0.78409 0.08409 0.0
O410 O 0.8 0.77143 0.07561 0.0
O411 O 0.80447 0.80981 0.10115 0.0
O412 O 0.83131 0.77596 0.1186 0.0
C413 C 0.83377 0.76235 0.12905 0.0
O414 O 0.82338 0.748 0.12707 0.0
O415 O 0.7871 0.76298 0.12022 0.0
Mg416 Mg 0.65977 0.98541 0.96019 0.0
C417 C 0.62772 0.98192 0.93778 0.0
O418 O 0.62593 0.97042 0.95131 0.0
C419 C 0.69324 0.98792 0.97894 0.0
O420 O 0.68107 0.97984 0.9892 0.0
C421 C 0.63245 0.01039 0.98128 0.0
O422 O 0.61971 1.00135 0.97273 0.0
O423 O 0.6488 1.00475 0.98042 0.0
O424 O 0.64261 0.99065 0.93632 0.0
O425 O 0.66178 0.95538 0.9618 0.0
C426 C 0.67356 0.94938 0.95052 0.0
O427 O 0.68221 0.96125 0.94039 0.0
O428 O 0.68842 0.99296 0.96305 0.0
Mg429 Mg 0.7786 0.91209 0.70459 0.0
C430 C 0.81448 0.92658 0.69471 0.0
O431 O 0.80249 0.93679 0.68632 0.0
C432 C 0.74746 0.90253 0.72896 0.0
O433 O 0.74347 0.91915 0.72388 0.0
C434 C 0.77687 0.94446 0.72657 0.0
O435 O 0.7855 0.9319 0.73588 0.0
O436 O 0.77126 0.94039 0.71067 0.0
O437 O 0.80862 0.91361 0.70468 0.0
O438 O 0.77255 0.8979 0.67886 0.0
C439 C 0.76005 0.88587 0.67849 0.0
O440 O 0.74825 0.88541 0.69183 0.0
O441 O 0.76289 0.89598 0.72446 0.0
Mg442 Mg 0.85191 0.02782 0.45851 0.0
C443 C 0.88496 0.02051 0.43835 0.0
O444 O 0.88958 0.02312 0.45537 0.0
C445 C 0.81806 0.03114 0.47684 0.0
O446 O 0.83066 0.03964 0.48621 0.0
C447 C 0.87426 1.00511 0.48904 0.0
O448 O 0.88298 0.01968 0.49455 0.0
O449 O 0.86219 1.00652 0.47676 0.0
O450 O 0.86817 0.02159 0.4341 0.0
O451 O 0.85345 0.05777 0.46078 0.0
C452 C 0.85163 0.06552 0.44535 0.0
O453 O 0.85092 0.05526 0.43077 0.0
O454 O 0.82264 0.0235 0.46196 0.0
Mg455 Mg 0.73303 0.10089 0.20828 0.0
C456 C 0.69732 0.08979 0.1954 0.0
O457 O 0.70936 0.08296 0.18414 0.0
C458 C 0.76639 0.11017 0.2281 0.0
O459 O 0.7703 0.09521 0.21921 0.0
C460 C 0.7367 0.06877 0.2298 0.0
O461 O 0.72948 0.08165 0.23983 0.0
O462 O 0.74062 0.07252 0.21333 0.0
O463 O 0.70311 0.0994 0.20865 0.0
O464 O 0.73902 0.11744 0.18421 0.0
C465 C 0.73396 0.13357 0.18813 0.0
O466 O 0.72609 0.13621 0.20394 0.0
O467 O 0.75005 0.11599 0.22768 0.0
Mg468 Mg 0.66095 0.03159 0.55562 0.0
C469 C 0.62799 0.02292 0.57565 0.0
O470 O 0.62305 0.02625 0.55885 0.0
C471 C 0.69445 0.03403 0.53623 0.0
O472 O 0.68225 0.04415 0.52802 0.0
C473 C 0.654 0.99817 0.53446 0.0
O474 O 0.66915 0.99475 0.54324 0.0
O475 O 0.64752 0.01426 0.53518 0.0
O476 O 0.64485 0.02392 0.5797 0.0
O477 O 0.66128 0.06171 0.55635 0.0
C478 C 0.66464 0.06792 0.57221 0.0
O479 O 0.66585 0.05632 0.58572 0.0
O480 O 0.68976 0.02566 0.55067 0.0
Mg481 Mg 0.7369 0.91055 0.30607 0.0
C482 C 0.69972 0.91364 0.3201 0.0
O483 O 0.71051 0.9147 0.33427 0.0
C484 C 0.77241 0.90542 0.28934 0.0
O485 O 0.77396 0.919 0.30082 0.0
C486 C 0.73896 0.94332 0.28559 0.0
O487 O 0.73316 0.9301 0.27507 0.0
O488 O 0.74239 0.93959 0.30218 0.0
O489 O 0.70686 0.91062 0.30455 0.0
O490 O 0.74305 0.89427 0.33045 0.0
C491 C 0.74538 0.87756 0.32634 0.0
O492 O 0.74425 0.87278 0.3092 0.0
O493 O 0.75667 0.89854 0.28687 0.0
Mg494 Mg 0.85204 0.98421 0.05266 0.0
C495 C 0.88464 0.99071 0.07343 0.0
O496 O 0.88957 0.98669 0.05676 0.0
C497 C 0.82007 0.99296 0.03103 0.0
O498 O 0.83334 0.98975 0.01955 0.0
C499 C 0.86164 0.01914 0.03744 0.0
O500 O 0.84882 0.02176 0.04957 0.0
O501 O 0.86632 1.00279 0.03393 0.0
O502 O 0.86773 0.99067 0.0773 0.0
O503 O 0.85224 0.95403 0.05231 0.0
C504 C 0.83796 0.94512 0.04812 0.0
O505 O 0.82408 0.95389 0.04119 0.0
O506 O 0.82356 0.99207 0.04801 0.0
Mg507 Mg 0.78044 0.10229 0.80318 0.0
C508 C 0.8162 0.09188 0.81564 0.0
O509 O 0.80425 0.08567 0.82736 0.0
C510 C 0.74612 0.11081 0.78608 0.0
O511 O 0.74323 0.09735 0.79744 0.0
C512 C 0.77551 0.06985 0.78235 0.0
O513 O 0.7814 0.08283 0.7716 0.0
O514 O 0.77303 0.07367 0.79909 0.0
O515 O 0.8103 0.10092 0.80205 0.0
O516 O 0.77513 0.11954 0.82699 0.0
C517 C 0.77937 0.13576 0.82247 0.0
O518 O 0.78608 0.13836 0.80613 0.0
O519 O 0.76244 0.11624 0.78386 0.0
Mg520 Mg 0.95745 0.66247 0.98569 0.0
C521 C 0.9581 0.67786 0.94785 0.0
O522 O 0.95708 0.69248 0.95799 0.0
C523 C 0.971 0.65305 0.02071 0.0
O524 O 0.95897 0.66616 0.02224 0.0
C525 C 0.97994 0.6942 0.99549 0.0
O526 O 0.99151 0.68072 0.99389 0.0
O527 O 0.96303 0.69086 0.99352 0.0
O528 O 0.95969 0.6624 0.9556 0.0
O529 O 0.93188 0.64849 0.9921 0.0
C530 C 0.92256 0.64129 0.97941 0.0
O531 O 0.92622 0.64564 0.96251 0.0
O532 O 0.97479 0.6473 1.00478 0.0
Mg533 Mg 0.45814 0.85522 0.02937 0.0
C534 C 0.44323 0.84966 0.06563 0.0
O535 O 0.42974 0.84749 0.05415 0.0
C536 C 0.48096 0.8633 0.99706 0.0
O537 O 0.47458 0.84699 0.99363 0.0
C538 C 0.47854 0.82198 0.02766 0.0
O539 O 0.48856 0.83443 0.03563 0.0
O540 O 0.4626 0.82648 0.02249 0.0
O541 O 0.45878 0.85402 0.05931 0.0
O542 O 0.43342 0.87141 0.02434 0.0
C543 C 0.43202 0.88235 0.01097 0.0
O544 O 0.44325 0.88063 0.99723 0.0
O545 O 0.47798 0.87017 0.01272 0.0
Mg546 Mg 0.91243 0.70766 0.77956 0.0
C547 C 0.87954 0.68789 0.77958 0.0
O548 O 0.87726 0.70386 0.78726 0.0
C549 C 0.94428 0.72952 0.77401 0.0
O550 O 0.93142 0.73988 0.7808 0.0
C551 C 0.90264 0.72687 0.7461 0.0
O552 O 0.9173 0.71755 0.74206 0.0
O553 O 0.89711 0.72685 0.76254 0.0
O554 O 0.89551 0.68368 0.77426 0.0
O555 O 0.91414 0.70874 0.80954 0.0
C556 C 0.92889 0.70208 0.8158 0.0
O557 O 0.94118 0.69627 0.80426 0.0
O558 O 0.94056 0.71284 0.77097 0.0
Mg559 Mg 0.05498 0.16023 0.53065 0.0
C560 C 0.06277 0.17508 0.56636 0.0
O561 O 0.07247 0.18421 0.55449 0.0
C562 C 0.03581 0.15095 0.49659 0.0
O563 O 0.04418 0.16631 0.49308 0.0
C564 C 0.03367 0.19252 0.52354 0.0
O565 O 0.0223 0.17958 0.52823 0.0
O566 O 0.05055 0.18869 0.52266 0.0
O567 O 0.0524 0.16246 0.56044 0.0
O568 O 0.08037 0.14471 0.52782 0.0
C569 C 0.08343 0.13443 0.5142 0.0
O570 O 0.07373 0.13662 0.4994 0.0
O571 O 0.03654 0.14472 0.51278 0.0
Mg572 Mg 0.10293 0.80453 0.77825 0.0
C573 C 0.13578 0.82495 0.76935 0.0
O574 O 0.14091 0.80802 0.77165 0.0
C575 C 0.07012 0.78394 0.77575 0.0
O576 O 0.08292 0.77356 0.78262 0.0
C577 C 0.11035 0.78656 0.7439 0.0
O578 O 0.09686 0.79787 0.74098 0.0
O579 O 0.1159 0.78451 0.76021 0.0
O580 O 0.11896 0.82883 0.77113 0.0
O581 O 0.10284 0.80366 0.80825 0.0
C582 C 0.10137 0.81937 0.81549 0.0
O583 O 0.10163 0.83368 0.80483 0.0
O584 O 0.07417 0.80033 0.77181 0.0
Mg585 Mg 0.55689 0.35257 0.48314 0.0
C586 C 0.57201 0.34749 0.44659 0.0
O587 O 0.58572 0.3459 0.45791 0.0
C588 C 0.53953 0.36199 0.517 0.0
O589 O 0.55049 0.34826 0.52017 0.0
C590 C 0.53533 0.3203 0.48745 0.0
O591 O 0.52485 0.33331 0.48114 0.0
O592 O 0.55198 0.32406 0.49054 0.0
O593 O 0.55641 0.35133 0.45311 0.0
O594 O 0.5808 0.36933 0.48965 0.0
C595 C 0.57866 0.38462 0.48174 0.0
O596 O 0.56445 0.3866 0.47112 0.0
O597 O 0.53762 0.36727 0.50058 0.0
Mg598 Mg 0.91033 0.3006 0.73379 0.0
C599 C 0.88177 0.32754 0.72496 0.0
O600 O 0.88437 0.31866 0.70971 0.0
C601 C 0.94285 0.28067 0.74129 0.0
O602 O 0.93088 0.2697 0.73385 0.0
C603 C 0.87922 0.282 0.75377 0.0
O604 O 0.86945 0.29232 0.74301 0.0
O605 O 0.89614 0.28044 0.75059 0.0
O606 O 0.89264 0.32448 0.73813 0.0
O607 O 0.91469 0.29862 0.70414 0.0
C608 C 0.92756 0.30893 0.69873 0.0
O609 O 0.93662 0.31825 0.71097 0.0
O610 O 0.93812 0.29714 0.74411 0.0
Mg611 Mg 0.60218 0.71014 0.23527 0.0
C612 C 0.63534 0.69029 0.24375 0.0
O613 O 0.64016 0.70717 0.2406 0.0
C614 C 0.56934 0.73068 0.23768 0.0
O615 O 0.5822 0.74114 0.23106 0.0
C616 C 0.60908 0.7305 0.26904 0.0
O617 O 0.59455 0.72077 0.27253 0.0
O618 O 0.61532 0.73051 0.25285 0.0
O619 O 0.61854 0.68611 0.24259 0.0
O620 O 0.60175 0.71058 0.20527 0.0
C621 C 0.59954 0.69481 0.19836 0.0
O622 O 0.59941 0.68072 0.20932 0.0
O623 O 0.57338 0.71427 0.24159 0.0
Mg624 Mg 0.52863 0.55367 0.85348 0.0
C625 C 0.56481 0.56631 0.8441 0.0
O626 O 0.55323 0.57868 0.83846 0.0
C627 C 0.49504 0.53358 0.86168 0.0
O628 O 0.49136 0.54253 0.8467 0.0
C629 C 0.52516 0.53314 0.82062 0.0
O630 O 0.53191 0.52257 0.83334 0.0
O631 O 0.52146 0.54956 0.82482 0.0
O632 O 0.55849 0.55242 0.85237 0.0
O633 O 0.52303 0.57763 0.8704 0.0
C634 C 0.52756 0.57348 0.88663 0.0
O635 O 0.53472 0.55735 0.8894 0.0
O636 O 0.51124 0.53409 0.86785 0.0
Mg637 Mg 0.70985 0.27871 0.10226 0.0
C638 C 0.69633 0.31494 0.09433 0.0
O639 O 0.68379 0.30331 0.08921 0.0
C640 C 0.72782 0.24429 0.10962 0.0
O641 O 0.71666 0.24141 0.096 0.0
C642 C 0.73045 0.27628 0.0694 0.0
O643 O 0.74076 0.28327 0.0822 0.0
O644 O 0.7141 0.2722 0.07347 0.0
O645 O 0.71069 0.30865 0.10177 0.0
O646 O 0.68539 0.2722 0.11832 0.0
C647 C 0.6893 0.27036 0.13514 0.0
O648 O 0.70627 0.27236 0.14021 0.0
O649 O 0.72973 0.26058 0.11532 0.0
Mg650 Mg 0.98451 0.45751 0.35243 0.0
C651 C 0.94879 0.44666 0.33913 0.0
O652 O 0.9608 0.43597 0.33138 0.0
C653 C 0.01784 0.47707 0.36228 0.0
O654 O 0.02168 0.46871 0.347 0.0
C655 C 0.98914 0.47938 0.32044 0.0
O656 O 0.98228 0.48973 0.33327 0.0
O657 O 0.9925 0.46281 0.32426 0.0
O658 O 0.9546 0.45881 0.3501 0.0
O659 O 0.99081 0.43227 0.36705 0.0
C660 C 0.97848 0.42676 0.37789 0.0
O661 O 0.96256 0.43477 0.37757 0.0
O662 O 1.00159 0.47623 0.3683 0.0
Mg663 Mg 0.80262 0.73336 0.60364 0.0
C664 C 0.81433 0.69699 0.59456 0.0
O665 O 0.8267 0.70853 0.58886 0.0
C666 C 0.79209 0.76906 0.61409 0.0
O667 O 0.80735 0.76962 0.60485 0.0
C668 C 0.78226 0.73861 0.57113 0.0
O669 O 0.77123 0.73351 0.5842 0.0
O670 O 0.79908 0.7404 0.57494 0.0
O671 O 0.80045 0.70344 0.60278 0.0
O672 O 0.82718 0.73809 0.62004 0.0
C673 C 0.82289 0.73903 0.63683 0.0
O674 O 0.80578 0.73686 0.64135 0.0
O675 O 0.78442 0.75362 0.61617 0.0
Mg676 Mg 0.531 0.46006 0.66104 0.0
C677 C 0.56678 0.45021 0.67511 0.0
O678 O 0.55478 0.44108 0.68465 0.0
C679 C 0.49752 0.48007 0.65231 0.0
O680 O 0.49363 0.47087 0.66708 0.0
C681 C 0.52682 0.48077 0.69378 0.0
O682 O 0.53402 0.49126 0.68125 0.0
O683 O 0.5231 0.46437 0.6895 0.0
O684 O 0.56094 0.46087 0.6627 0.0
O685 O 0.52549 0.43627 0.64386 0.0
C686 C 0.53041 0.44058 0.62779 0.0
O687 O 0.53782 0.45665 0.62538 0.0
O688 O 0.51383 0.4797 0.64641 0.0
Mg689 Mg 0.8058 0.28085 0.91131 0.0
C690 C 0.81416 0.31679 0.92669 0.0
O691 O 0.82291 0.30493 0.93675 0.0
C692 C 0.79 0.24648 0.90119 0.0
O693 O 0.80179 0.24353 0.91427 0.0
C694 C 0.78461 0.27475 0.94332 0.0
O695 O 0.77397 0.28102 0.93042 0.0
O696 O 0.80135 0.27226 0.93956 0.0
O697 O 0.80427 0.3108 0.91372 0.0
O698 O 0.82941 0.27635 0.89362 0.0
C699 C 0.82633 0.28545 0.87917 0.0
O700 O 0.81183 0.29586 0.87882 0.0
O701 O 0.78699 0.26292 0.8965 0.0
Mg702 Mg 0.98329 0.55525 0.16257 0.0
C703 C 0.94782 0.56579 0.17669 0.0
O704 O 0.96 0.57591 0.18495 0.0
C705 C 0.01604 0.53471 0.15221 0.0
O706 O 0.02018 0.54199 0.16795 0.0
C707 C 0.98774 0.53334 0.19458 0.0
O708 O 0.98021 0.5232 0.18195 0.0
O709 O 0.99161 0.54976 0.19062 0.0
O710 O 0.95343 0.55414 0.16511 0.0
O711 O 0.9897 0.58048 0.14796 0.0
C712 C 0.9771 0.58682 0.13791 0.0
O713 O 0.96078 0.57978 0.13911 0.0
O714 O 0.99985 0.53651 0.14624 0.0
Mg715 Mg 0.70754 0.73471 0.41214 0.0
C716 C 0.69726 0.69898 0.42599 0.0
O717 O 0.68857 0.71107 0.43582 0.0
C718 C 0.72825 0.76803 0.40465 0.0
O719 O 0.71842 0.77186 0.41903 0.0
C720 C 0.72838 0.73692 0.44491 0.0
O721 O 0.73828 0.72908 0.43229 0.0
O722 O 0.71227 0.74179 0.44074 0.0
O723 O 0.70767 0.70472 0.41333 0.0
O724 O 0.68324 0.7416 0.396 0.0
C725 C 0.6872 0.74322 0.37917 0.0
O726 O 0.70411 0.74076 0.37413 0.0
O727 O 0.72807 0.75176 0.39861 0.0
Mg728 Mg 0.84954 0.52695 0.55734 0.0
C729 C 0.83782 0.56289 0.56939 0.0
O730 O 0.83035 0.55095 0.58036 0.0
C731 C 0.85951 0.49487 0.53471 0.0
O732 O 0.84292 0.49114 0.54007 0.0
C733 C 0.81743 0.52534 0.53514 0.0
O734 O 0.83003 0.53451 0.52642 0.0
O735 O 0.82125 0.51941 0.55099 0.0
O736 O 0.84804 0.55694 0.55668 0.0
O737 O 0.86384 0.52199 0.58328 0.0
C738 C 0.87587 0.50954 0.58441 0.0
O739 O 0.87647 0.49703 0.57172 0.0
O740 O 0.86592 0.51064 0.53822 0.0
Mg741 Mg 0.73446 0.60024 0.80632 0.0
C742 C 0.69864 0.58807 0.81754 0.0
O743 O 0.71053 0.58089 0.82875 0.0
C744 C 0.76852 0.60992 0.78939 0.0
O745 O 0.77165 0.59604 0.80018 0.0
C746 C 0.73932 0.56767 0.78503 0.0
O747 O 0.73263 0.58033 0.77436 0.0
O748 O 0.74242 0.57181 0.80159 0.0
O749 O 0.70459 0.5982 0.80477 0.0
O750 O 0.74003 0.61585 0.83127 0.0
C751 C 0.7283 0.62822 0.83444 0.0
O752 O 0.71373 0.62903 0.8242 0.0
O753 O 0.75213 0.61531 0.78758 0.0
Mg754 Mg 0.66022 0.48425 0.05539 0.0
C755 C 0.67352 0.4485 0.06634 0.0
O756 O 0.68241 0.46065 0.07594 0.0
C757 C 0.65 0.51789 0.03794 0.0
O758 O 0.66456 0.52112 0.04773 0.0
C759 C 0.69237 0.48433 0.03343 0.0
O760 O 0.67977 0.47483 0.02506 0.0
O761 O 0.6884 0.49147 0.04872 0.0
O762 O 0.66174 0.45421 0.05492 0.0
O763 O 0.64629 0.49164 0.08079 0.0
C764 C 0.63648 0.4794 0.08815 0.0
O765 O 0.63758 0.46267 0.08208 0.0
O766 O 0.64438 0.50149 0.03686 0.0
Mg767 Mg 0.77941 0.40857 0.30309 0.0
C768 C 0.81525 0.42023 0.31508 0.0
O769 O 0.80352 0.42545 0.32748 0.0
C770 C 0.75804 0.37823 0.28366 0.0
O771 O 0.76796 0.36762 0.29399 0.0
C772 C 0.77339 0.44141 0.28317 0.0
O773 O 0.77986 0.42901 0.27208 0.0
O774 O 0.77074 0.43692 0.29972 0.0
O775 O 0.8092 0.41162 0.30127 0.0
O776 O 0.77472 0.39176 0.32747 0.0
C777 C 0.78599 0.3786 0.32836 0.0
O778 O 0.79938 0.37826 0.31658 0.0
O779 O 0.7618 0.39511 0.28296 0.0
Mg780 Mg 0.85205 0.48698 0.95976 0.0
C781 C 0.84068 0.45069 0.94952 0.0
O782 O 0.83197 0.4624 0.93924 0.0
C783 C 0.85704 0.52255 0.97582 0.0
O784 O 0.84356 0.52368 0.96419 0.0
C785 C 0.81738 0.48471 0.9774 0.0
O786 O 0.82916 0.47525 0.9869 0.0
O787 O 0.82286 0.49254 0.96294 0.0
O788 O 0.85202 0.45693 0.96112 0.0
O789 O 0.86887 0.49258 0.93571 0.0
C790 C 0.88552 0.49345 0.94052 0.0
O791 O 0.88949 0.49103 0.95775 0.0
O792 O 0.8639 0.5069 0.97883 0.0
Mg793 Mg 0.77853 0.60269 0.21341 0.0
C794 C 0.81458 0.59358 0.2003 0.0
O795 O 0.80292 0.58888 0.18762 0.0
C796 C 0.74507 0.61114 0.23366 0.0
O797 O 0.74135 0.59591 0.22515 0.0
C798 C 0.77501 0.5694 0.2334 0.0
O799 O 0.78238 0.58172 0.24403 0.0
O800 O 0.77093 0.57404 0.21719 0.0
O801 O 0.80838 0.60107 0.21467 0.0
O802 O 0.77364 0.62006 0.18961 0.0
C803 C 0.7804 0.63563 0.19329 0.0
O804 O 0.7889 0.63754 0.20888 0.0
O805 O 0.76125 0.61734 0.23285 0.0
Mg806 Mg 0.65891 0.52997 0.46431 0.0
C807 C 0.67201 0.56569 0.4531 0.0
O808 O 0.68129 0.55358 0.44382 0.0
C809 C 0.649 0.50154 0.49397 0.0
O810 O 0.66644 0.50133 0.49757 0.0
C811 C 0.69677 0.50885 0.47048 0.0
O812 O 0.68858 0.49309 0.46877 0.0
O813 O 0.6879 0.52348 0.46789 0.0
O814 O 0.66006 0.55996 0.46431 0.0
O815 O 0.64215 0.52439 0.4402 0.0
C816 C 0.62624 0.53029 0.44387 0.0
O817 O 0.62387 0.5386 0.4595 0.0
O818 O 0.64268 0.5141 0.48384 0.0
Mg819 Mg 0.73593 0.40911 0.70949 0.0
C820 C 0.70026 0.42455 0.70058 0.0
O821 O 0.71232 0.43492 0.6925 0.0
C822 C 0.75418 0.37591 0.72678 0.0
O823 O 0.74308 0.36709 0.71592 0.0
C824 C 0.74147 0.44081 0.7322 0.0
O825 O 0.73452 0.42801 0.74252 0.0
O826 O 0.74466 0.43701 0.71558 0.0
O827 O 0.70602 0.41123 0.71012 0.0
O828 O 0.74143 0.3955 0.68344 0.0
C829 C 0.75574 0.38614 0.68062 0.0
O830 O 0.76968 0.38822 0.69155 0.0
O831 O 0.75181 0.39291 0.72894 0.0
Mg832 Mg 0.55627 0.85354 0.52958 0.0
C833 C 0.56893 0.84352 0.56538 0.0
O834 O 0.58045 0.83703 0.55339 0.0
C835 C 0.53911 0.86118 0.49499 0.0
O836 O 0.55086 0.84802 0.49227 0.0
C837 C 0.53557 0.8207 0.5264 0.0
O838 O 0.52502 0.83364 0.53275 0.0
O839 O 0.55209 0.82469 0.52294 0.0
O840 O 0.55541 0.85269 0.55949 0.0
O841 O 0.58048 0.87023 0.52353 0.0
C842 C 0.57617 0.88703 0.52248 0.0
O843 O 0.55912 0.89159 0.52499 0.0
O844 O 0.53652 0.86655 0.51128 0.0
Mg845 Mg 0.05241 0.66022 0.48475 0.0
C846 C 0.06491 0.6698 0.44871 0.0
O847 O 0.07673 0.67617 0.46048 0.0
C848 C 0.03494 0.65253 0.51922 0.0
O849 O 0.04655 0.66578 0.5221 0.0
C850 C 0.03177 0.69304 0.48776 0.0
O851 O 0.02131 0.6802 0.48108 0.0
O852 O 0.04823 0.689 0.49145 0.0
O853 O 0.05132 0.66092 0.45485 0.0
O854 O 0.07698 0.64413 0.49086 0.0
C855 C 0.0732 0.6273 0.49298 0.0
O856 O 0.05619 0.62216 0.49155 0.0
O857 O 0.0326 0.64713 0.5029 0.0
Mg858 Mg 0.6036 0.80395 0.73458 0.0
C859 C 0.59461 0.81737 0.69871 0.0
O860 O 0.58824 0.82897 0.7107 0.0
C861 C 0.61036 0.78574 0.76897 0.0
O862 O 0.59658 0.79675 0.77167 0.0
C863 C 0.56931 0.78572 0.73251 0.0
O864 O 0.58116 0.77679 0.72258 0.0
O865 O 0.57459 0.80013 0.7406 0.0
O866 O 0.60336 0.80358 0.70461 0.0
O867 O 0.62058 0.82782 0.74089 0.0
C868 C 0.63729 0.82312 0.74086 0.0
O869 O 0.64127 0.80609 0.73732 0.0
O870 O 0.61631 0.78394 0.75278 0.0
Mg871 Mg 0.45733 0.34953 0.98458 0.0
C872 C 0.44533 0.33822 0.94867 0.0
O873 O 0.43389 0.33139 0.96055 0.0
C874 C 0.47368 0.35937 0.01881 0.0
O875 O 0.4619 0.34633 0.02192 0.0
C876 C 0.47817 0.31697 0.98994 0.0
O877 O 0.48894 0.32968 0.98351 0.0
O878 O 0.46154 0.32105 0.99265 0.0
O879 O 0.45847 0.34787 0.95467 0.0
O880 O 0.4335 0.36678 0.98984 0.0
C881 C 0.43783 0.3829 0.98503 0.0
O882 O 0.45395 0.38534 0.97775 0.0
O883 O 0.47653 0.364 1.00233 0.0
Mg884 Mg 0.41134 0.70878 0.7337 0.0
C885 C 0.4248 0.6983 0.69798 0.0
O886 O 0.43421 0.68913 0.71007 0.0
C887 C 0.40289 0.72712 0.76746 0.0
O888 O 0.41677 0.71639 0.77067 0.0
C889 C 0.44438 0.72896 0.73352 0.0
O890 O 0.43191 0.73781 0.72431 0.0
O891 O 0.43999 0.71378 0.74068 0.0
O892 O 0.41252 0.70914 0.70373 0.0
O893 O 0.39409 0.68506 0.73957 0.0
C894 C 0.3779 0.68955 0.73518 0.0
O895 O 0.37539 0.70576 0.72812 0.0
O896 O 0.3973 0.72856 0.7511 0.0
Mg897 Mg 0.95867 0.16388 0.0286 0.0
C898 C 0.94605 0.17476 0.06436 0.0
O899 O 0.93458 0.18127 0.05233 0.0
C900 C 0.97541 0.15438 0.99435 0.0
O901 O 0.96383 0.16758 0.99119 0.0
C902 C 0.97922 0.19658 0.02362 0.0
O903 O 0.99001 0.18393 0.03014 0.0
O904 O 0.96265 0.19239 0.0207 0.0
O905 O 0.95951 0.16546 0.05853 0.0
O906 O 0.9349 0.14664 0.02321 0.0
C907 C 0.9394 0.13046 0.02762 0.0
O908 O 0.95565 0.12795 0.03458 0.0
O909 O 0.97799 0.14957 0.01082 0.0
Mg910 Mg 0.60244 0.20824 0.78164 0.0
C911 C 0.58639 0.20076 0.81793 0.0
O912 O 0.57361 0.19622 0.80635 0.0
C913 C 0.61237 0.22875 0.749 0.0
O914 O 0.59767 0.21966 0.74458 0.0
C915 C 0.57039 0.23017 0.77719 0.0
O916 O 0.58299 0.24023 0.78487 0.0
O917 O 0.57434 0.21375 0.77324 0.0
O918 O 0.60115 0.20747 0.81171 0.0
O919 O 0.61906 0.18449 0.77473 0.0
C920 C 0.63517 0.18838 0.77987 0.0
O921 O 0.63771 0.2039 0.78833 0.0
O922 O 0.61784 0.22813 0.76546 0.0
Mg923 Mg 0.90886 0.80292 0.27799 0.0
C924 C 0.9022 0.81097 0.31926 0.0
O925 O 0.88804 0.82016 0.31353 0.0
C926 C 0.87803 0.78705 0.25616 0.0
O927 O 0.86947 0.80046 0.26422 0.0
C928 C 0.94081 0.78076 0.27274 0.0
O929 O 0.92811 0.77039 0.27979 0.0
O930 O 0.93689 0.79734 0.26943 0.0
O931 O 0.91123 0.80149 0.30792 0.0
O932 O 0.89418 0.82773 0.26994 0.0
C933 C 0.89288 0.84284 0.27824 0.0
O934 O 0.90418 0.84646 0.29157 0.0
O935 O 0.89382 0.7828 0.2618 0.0
Mg936 Mg 0.48432 0.46022 0.16085 0.0
C937 C 0.44787 0.44812 0.16878 0.0
O938 O 0.45924 0.43535 0.17391 0.0
C939 C 0.51958 0.47645 0.15483 0.0
O940 O 0.52107 0.46502 0.16846 0.0
C941 C 0.48717 0.47991 0.1942 0.0
O942 O 0.4813 0.4909 0.18142 0.0
O943 O 0.49041 0.46342 0.18988 0.0
O944 O 0.45446 0.46232 0.16126 0.0
O945 O 0.48928 0.43615 0.14393 0.0
C946 C 0.48594 0.44066 0.12751 0.0
O947 O 0.48034 0.45734 0.12442 0.0
O948 O 0.50383 0.47902 0.14804 0.0
Mg949 Mg 0.30415 0.73401 0.91071 0.0
C950 C 0.31953 0.69746 0.91529 0.0
O951 O 0.33326 0.70881 0.91625 0.0
C952 C 0.28743 0.76835 0.90145 0.0
O953 O 0.29889 0.77133 0.9148 0.0
C954 C 0.283 0.73835 0.94298 0.0
O955 O 0.27251 0.73197 0.93 0.0
O956 O 0.29963 0.74146 0.9392 0.0
O957 O 0.30377 0.70394 0.91199 0.0
O958 O 0.3279 0.7402 0.89373 0.0
C959 C 0.32371 0.73544 0.87758 0.0
O960 O 0.30774 0.72789 0.87499 0.0
O961 O 0.28489 0.75192 0.8964 0.0
Mg962 Mg 0.0259 0.55339 0.66215 0.0
C963 C 0.06201 0.56573 0.67203 0.0
O964 O 0.05021 0.57761 0.67821 0.0
C965 C 0.99069 0.5385 0.65363 0.0
O966 O 0.98866 0.55108 0.66614 0.0
C967 C 0.02072 0.53255 0.69456 0.0
O968 O 0.02574 0.52156 0.68142 0.0
O969 O 0.01884 0.54939 0.69082 0.0
O970 O 0.05588 0.55205 0.66322 0.0
O971 O 0.02075 0.57754 0.64545 0.0
C972 C 0.02482 0.57315 0.62916 0.0
O973 O 0.03126 0.55673 0.62632 0.0
O974 O 0.00682 0.53471 0.64848 0.0
Mg975 Mg 0.20935 0.27882 0.41065 0.0
C976 C 0.20019 0.31489 0.42396 0.0
O977 O 0.19068 0.30308 0.43336 0.0
C978 C 0.22547 0.2438 0.40331 0.0
O979 O 0.21414 0.24194 0.41696 0.0
C980 C 0.23004 0.27517 0.44342 0.0
O981 O 0.24069 0.28133 0.43048 0.0
O982 O 0.21349 0.2719 0.43943 0.0
O983 O 0.2109 0.30881 0.41171 0.0
O984 O 0.18528 0.27368 0.39379 0.0
C985 C 0.18975 0.2777 0.37751 0.0
O986 O 0.20615 0.28418 0.37474 0.0
O987 O 0.22805 0.25976 0.39698 0.0
Mg988 Mg 0.48238 0.55442 0.35334 0.0
C989 C 0.44661 0.56524 0.33982 0.0
O990 O 0.45871 0.57446 0.33049 0.0
C991 C 0.51599 0.53706 0.36399 0.0
O992 O 0.51942 0.547 0.34957 0.0
C993 C 0.48685 0.53179 0.32141 0.0
O994 O 0.48013 0.52142 0.33429 0.0
O995 O 0.49014 0.5484 0.32518 0.0
O996 O 0.45236 0.5541 0.35185 0.0
O997 O 0.49017 0.57955 0.36748 0.0
C998 C 0.47809 0.58839 0.37617 0.0
O999 O 0.46093 0.58433 0.37363 0.0
O1000 O 0.49951 0.53583 0.36929 0.0
Mg1001 Mg 0.20866 0.73411 0.10198 0.0
C1002 C 0.19382 0.6977 0.09706 0.0
O1003 O 0.18029 0.7092 0.09534 0.0
C1004 C 0.22455 0.76919 0.10884 0.0
O1005 O 0.21265 0.77077 0.09564 0.0
C1006 C 0.22907 0.73735 0.0692 0.0
O1007 O 0.23966 0.73105 0.08212 0.0
O1008 O 0.21253 0.7407 0.07317 0.0
O1009 O 0.20948 0.70406 0.10107 0.0
O1010 O 0.18494 0.73986 0.11916 0.0
C1011 C 0.18954 0.73606 0.13545 0.0
O1012 O 0.20598 0.72968 0.1382 0.0
O1013 O 0.22765 0.7533 0.11513 0.0
Mg1014 Mg 0.02869 0.45811 0.85365 0.0
C1015 C 0.06438 0.44626 0.84213 0.0
O1016 O 0.05238 0.43491 0.83533 0.0
C1017 C 0.99633 0.48082 0.8624 0.0
O1018 O 0.99269 0.47487 0.84599 0.0
C1019 C 0.02643 0.47873 0.82067 0.0
O1020 O 0.03484 0.48858 0.83296 0.0
O1021 O 0.0212 0.46281 0.82516 0.0
O1022 O 0.05854 0.45935 0.85193 0.0
O1023 O 0.02459 0.43285 0.86903 0.0
C1024 C 0.01135 0.43109 0.88006 0.0
O1025 O 0.99743 0.44214 0.87862 0.0
O1026 O 0.01192 0.4774 0.86919 0.0
Mg1027 Mg 0.30643 0.2812 0.6018 0.0
C1028 C 0.3143 0.3175 0.58704 0.0
O1029 O 0.32171 0.30575 0.57583 0.0
C1030 C 0.29042 0.24681 0.6109 0.0
O1031 O 0.30129 0.24462 0.59692 0.0
C1032 C 0.2837 0.27692 0.56987 0.0
O1033 O 0.27339 0.28351 0.58287 0.0
O1034 O 0.30035 0.27374 0.57351 0.0
O1035 O 0.30557 0.31132 0.60074 0.0
O1036 O 0.33172 0.27383 0.61583 0.0
C1037 C 0.341 0.28618 0.62366 0.0
O1038 O 0.3374 0.30326 0.62004 0.0
O1039 O 0.28822 0.2629 0.61706 0.0
Mg1040 Mg 0.1621 0.48463 0.45964 0.0
C1041 C 0.12859 0.49052 0.43991 0.0
O1042 O 0.12425 0.48701 0.45685 0.0
C1043 C 0.1949 0.48925 0.48036 0.0
O1044 O 0.18224 0.48287 0.4912 0.0
C1045 C 0.15379 0.51869 0.47893 0.0
O1046 O 0.16808 0.52246 0.46895 0.0
O1047 O 0.14819 0.50227 0.47947 0.0
O1048 O 0.14538 0.4905 0.43551 0.0
O1049 O 0.16351 0.45463 0.46037 0.0
C1050 C 0.17606 0.44869 0.44993 0.0
O1051 O 0.18588 0.46063 0.44102 0.0
O1052 O 0.19069 0.49222 0.4638 0.0
Mg1053 Mg 0.27858 0.41306 0.20781 0.0
C1054 C 0.3142 0.42641 0.1965 0.0
O1055 O 0.30209 0.43435 0.18606 0.0
C1056 C 0.24509 0.40199 0.22471 0.0
O1057 O 0.24163 0.41617 0.21444 0.0
C1058 C 0.27529 0.44457 0.23048 0.0
O1059 O 0.28422 0.43189 0.23934 0.0
O1060 O 0.2701 0.44101 0.21432 0.0
O1061 O 0.3085 0.41541 0.20867 0.0
O1062 O 0.27231 0.39813 0.18263 0.0
C1063 C 0.28432 0.38642 0.17825 0.0
O1064 O 0.29968 0.3861 0.18728 0.0
O1065 O 0.2616 0.39689 0.22626 0.0
Mg1066 Mg 0.35273 0.52952 0.96102 0.0
C1067 C 0.38563 0.52118 0.94075 0.0
O1068 O 0.39061 0.524 0.95764 0.0
C1069 C 0.32 0.52701 0.98183 0.0
O1070 O 0.33292 0.5336 0.99226 0.0
C1071 C 0.36025 0.49479 0.97833 0.0
O1072 O 0.34671 0.49212 0.96701 0.0
O1073 O 0.36582 0.51106 0.98069 0.0
O1074 O 0.36879 0.52248 0.93674 0.0
O1075 O 0.35242 0.5596 0.96152 0.0
C1076 C 0.35003 0.56643 0.94574 0.0
O1077 O 0.34955 0.55537 0.93174 0.0
O1078 O 0.32397 0.52317 0.96539 0.0
Mg1079 Mg 0.23178 0.60249 0.70886 0.0
C1080 C 0.19577 0.59157 0.69668 0.0
O1081 O 0.20763 0.58511 0.685 0.0
C1082 C 0.26646 0.61178 0.72484 0.0
O1083 O 0.2692 0.59855 0.71316 0.0
C1084 C 0.23661 0.5701 0.72974 0.0
O1085 O 0.23022 0.58294 0.74039 0.0
O1086 O 0.23951 0.57403 0.71311 0.0
O1087 O 0.20181 0.60092 0.71003 0.0
O1088 O 0.23712 0.61925 0.68479 0.0
C1089 C 0.23264 0.63549 0.689 0.0
O1090 O 0.22559 0.63825 0.70517 0.0
O1091 O 0.25011 0.6168 0.72775 0.0
Mg1092 Mg 0.16004 0.52944 0.05403 0.0
C1093 C 0.12652 0.52511 0.07364 0.0
O1094 O 0.12261 0.52986 0.05692 0.0
C1095 C 0.19316 0.52642 0.03457 0.0
O1096 O 0.18019 0.53179 0.02354 0.0
C1097 C 0.13651 0.5048 0.02518 0.0
O1098 O 0.12521 0.51796 0.02099 0.0
O1099 O 0.14969 0.50788 0.03596 0.0
O1100 O 0.14322 0.52382 0.07812 0.0
O1101 O 0.16016 0.55943 0.05182 0.0
C1102 C 0.16287 0.56665 0.06739 0.0
O1103 O 0.16374 0.55592 0.08162 0.0
O1104 O 0.18906 0.52363 0.0512 0.0
Mg1105 Mg 0.23352 0.41095 0.8035 0.0
C1106 C 0.19769 0.42062 0.81644 0.0
O1107 O 0.20959 0.42644 0.82842 0.0
C1108 C 0.2678 0.4022 0.78671 0.0
O1109 O 0.27066 0.4155 0.79828 0.0
C1110 C 0.23748 0.44354 0.78285 0.0
O1111 O 0.23094 0.4307 0.77229 0.0
O1112 O 0.24083 0.43954 0.79939 0.0
O1113 O 0.20365 0.41211 0.80253 0.0
O1114 O 0.23918 0.39392 0.82733 0.0
C1115 C 0.23492 0.37767 0.82292 0.0
O1116 O 0.22795 0.375 0.80669 0.0
O1117 O 0.25145 0.39699 0.78416 0.0
Mg1118 Mg 0.3553 0.4869 0.55251 0.0
C1119 C 0.38818 0.49379 0.57318 0.0
O1120 O 0.39316 0.49052 0.55637 0.0
C1121 C 0.32193 0.4883 0.5323 0.0
O1122 O 0.33425 0.48009 0.52232 0.0
C1123 C 0.36248 0.51954 0.52861 0.0
O1124 O 0.34574 0.52277 0.53378 0.0
O1125 O 0.36967 0.50426 0.53261 0.0
O1126 O 0.37127 0.49325 0.57705 0.0
O1127 O 0.35417 0.45685 0.55233 0.0
C1128 C 0.34241 0.45111 0.56376 0.0
O1129 O 0.33348 0.46324 0.57333 0.0
O1130 O 0.32658 0.49375 0.5481 0.0
Mg1131 Mg 0.27677 0.60257 0.30434 0.0
C1132 C 0.31304 0.59447 0.31867 0.0
O1133 O 0.30143 0.58871 0.33093 0.0
C1134 C 0.24904 0.61386 0.2748 0.0
O1135 O 0.24855 0.59642 0.27114 0.0
C1136 C 0.25712 0.56443 0.29612 0.0
O1137 O 0.24116 0.572 0.29859 0.0
O1138 O 0.2715 0.57367 0.29884 0.0
O1139 O 0.30675 0.60234 0.30453 0.0
O1140 O 0.27029 0.61579 0.33042 0.0
C1141 C 0.25777 0.62778 0.33086 0.0
O1142 O 0.24619 0.62855 0.31733 0.0
O1143 O 0.2616 0.61989 0.2851 0.0
Mg1144 Mg 0.46141 0.16075 0.4827 0.0
C1145 C 0.44783 0.16187 0.44487 0.0
O1146 O 0.43314 0.15989 0.45479 0.0
C1147 C 0.4788 0.15368 0.5174 0.0
O1148 O 0.46717 0.16695 0.52007 0.0
C1149 C 0.4815 0.19383 0.48568 0.0
O1150 O 0.49208 0.18108 0.47904 0.0
O1151 O 0.46508 0.18963 0.48937 0.0
O1152 O 0.46326 0.16153 0.45279 0.0
O1153 O 0.43749 0.1436 0.48871 0.0
C1154 C 0.44192 0.12683 0.48973 0.0
O1155 O 0.45905 0.12243 0.48751 0.0
O1156 O 0.48122 0.14809 0.50116 0.0
Mg1157 Mg 0.96067 0.35164 0.53028 0.0
C1158 C 0.95278 0.33723 0.56597 0.0
O1159 O 0.94284 0.32835 0.55409 0.0
C1160 C 0.97375 0.36017 0.49483 0.0
O1161 O 0.96093 0.3478 0.49367 0.0
C1162 C 0.98081 0.31898 0.52058 0.0
O1163 O 0.9929 0.33194 0.52267 0.0
O1164 O 0.96404 0.32298 0.52238 0.0
O1165 O 0.9634 0.34964 0.56006 0.0
O1166 O 0.93633 0.36847 0.52657 0.0
C1167 C 0.93977 0.3841 0.53327 0.0
O1168 O 0.9555 0.38643 0.54139 0.0
O1169 O 0.97838 0.36566 0.51063 0.0
Mg1170 Mg 0.40889 0.2129 0.28034 0.0
C1171 C 0.37895 0.18752 0.28763 0.0
O1172 O 0.38028 0.19786 0.30211 0.0
C1173 C 0.44141 0.23282 0.27347 0.0
O1174 O 0.42922 0.24374 0.28061 0.0
C1175 C 0.37825 0.23304 0.26067 0.0
O1176 O 0.36795 0.22324 0.27143 0.0
O1177 O 0.39523 0.23372 0.26383 0.0
O1178 O 0.3909 0.18937 0.27519 0.0
O1179 O 0.41343 0.21311 0.31005 0.0
C1180 C 0.42031 0.19795 0.31497 0.0
O1181 O 0.42325 0.18561 0.30241 0.0
O1182 O 0.43686 0.2163 0.27064 0.0
Mg1183 Mg 0.5523 0.66253 0.03081 0.0
C1184 C 0.56771 0.66654 0.06729 0.0
O1185 O 0.58142 0.66746 0.0559 0.0
C1186 C 0.53527 0.65343 0.99659 0.0
O1187 O 0.54659 0.66689 0.99354 0.0
C1188 C 0.53143 0.69516 0.02586 0.0
O1189 O 0.52052 0.68227 0.03164 0.0
O1190 O 0.54813 0.69117 0.02341 0.0
O1191 O 0.55188 0.66358 0.06082 0.0
O1192 O 0.57577 0.64503 0.02476 0.0
C1193 C 0.5714 0.629 0.0298 0.0
O1194 O 0.55542 0.62675 0.03744 0.0
O1195 O 0.5329 0.64835 0.01301 0.0
Mg1196 Mg 0.60222 0.30333 0.27777 0.0
C1197 C 0.63637 0.32121 0.27159 0.0
O1198 O 0.63964 0.30449 0.2769 0.0
C1199 C 0.56881 0.28351 0.27511 0.0
O1200 O 0.58117 0.27297 0.28251 0.0
C1201 C 0.60938 0.28276 0.24416 0.0
O1202 O 0.59495 0.29254 0.2404 0.0
O1203 O 0.61532 0.28272 0.26047 0.0
O1204 O 0.61987 0.32649 0.27057 0.0
O1205 O 0.60168 0.30287 0.30779 0.0
C1206 C 0.60074 0.31868 0.31491 0.0
O1207 O 0.6017 0.33288 0.30414 0.0
O1208 O 0.57342 0.29969 0.27084 0.0
Mg1209 Mg 0.05764 0.85181 0.9839 0.0
C1210 C 0.07256 0.84663 0.94737 0.0
O1211 O 0.08615 0.8443 0.9587 0.0
C1212 C 0.03586 0.86042 0.01663 0.0
O1213 O 0.04385 0.84495 0.02052 0.0
C1214 C 0.03587 0.81941 0.98898 0.0
O1215 O 0.02482 0.83242 0.98373 0.0
O1216 O 0.05271 0.82316 0.99075 0.0
O1217 O 0.05708 0.85094 0.9539 0.0
O1218 O 0.08314 0.86663 0.98975 0.0
C1219 C 0.08382 0.87885 1.00206 0.0
O1220 O 0.07052 0.8799 0.01385 0.0
O1221 O 0.03774 0.86681 1.00059 0.0
Mg1222 Mg 0.41001 0.8044 0.23317 0.0
C1223 C 0.3765 0.82386 0.24086 0.0
O1224 O 0.37196 0.80699 0.23725 0.0
C1225 C 0.44298 0.78406 0.23568 0.0
O1226 O 0.43034 0.7737 0.22849 0.0
C1227 C 0.40276 0.78339 0.26643 0.0
O1228 O 0.41743 0.79279 0.27026 0.0
O1229 O 0.39666 0.7838 0.2502 0.0
O1230 O 0.3933 0.8282 0.24041 0.0
O1231 O 0.41063 0.80418 0.20322 0.0
C1232 C 0.41245 0.82005 0.19645 0.0
O1233 O 0.41221 0.83407 0.2075 0.0
O1234 O 0.43874 0.80035 0.23989 0.0
Mg1235 Mg 0.10323 0.21127 0.73499 0.0
C1236 C 0.13027 0.1822 0.72699 0.0
O1237 O 0.1271 0.18935 0.71096 0.0
C1238 C 0.07087 0.23188 0.74199 0.0
O1239 O 0.08299 0.24269 0.73459 0.0
C1240 C 0.13477 0.22919 0.75468 0.0
O1241 O 0.14411 0.21834 0.74403 0.0
O1242 O 0.1179 0.23128 0.75156 0.0
O1243 O 0.12018 0.18704 0.74023 0.0
O1244 O 0.09951 0.21303 0.70523 0.0
C1245 C 0.08637 0.20317 0.69958 0.0
O1246 O 0.07668 0.19433 0.71168 0.0
O1247 O 0.07541 0.21539 0.74497 0.0
H1248 H 0.04381 0.06656 0.41903 0.0
H1249 H 0.01195 0.10517 0.38841 0.0
H1250 H 0.04114 0.08525 0.44584 0.0
H1251 H 0.00884 0.12397 0.41579 0.0
H1252 H 0.02641 0.11468 0.49602 0.0
H1253 H 0.02152 0.0958 0.46912 0.0
H1254 H 0.02673 0.14323 0.43492 0.0
H1255 H 0.0309 0.16203 0.46168 0.0
C1256 C 0.03605 0.07903 0.41802 0.0
C1257 C 0.02815 0.08437 0.40145 0.0
C1258 C 0.03434 0.0897 0.43358 0.0
C1259 C 0.02459 0.10609 0.43318 0.0
C1260 C 0.01654 0.11147 0.41662 0.0
C1261 C 0.0183 0.10072 0.40091 0.0
C1262 C 0.02603 0.12111 0.48279 0.0
C1263 C 0.02927 0.13983 0.48103 0.0
C1264 C 0.02343 0.11028 0.46732 0.0
C1265 C 0.02409 0.1179 0.44973 0.0
C1266 C 0.02606 0.13682 0.44814 0.0
C1267 C 0.02858 0.14762 0.46357 0.0
H1268 H 0.09971 0.78678 0.70852 0.0
H1269 H 0.14434 0.77089 0.74308 0.0
H1270 H 0.11833 0.78171 0.68181 0.0
H1271 H 0.16293 0.76513 0.71616 0.0
H1272 H 0.19694 0.7874 0.66894 0.0
H1273 H 0.17743 0.78478 0.69513 0.0
H1274 H 0.13487 0.76258 0.66133 0.0
H1275 H 0.15458 0.76568 0.63462 0.0
C1276 C 0.1134 0.78175 0.71042 0.0
C1277 C 0.12061 0.77951 0.728 0.0
C1278 C 0.12407 0.77871 0.69501 0.0
C1279 C 0.14228 0.77328 0.69672 0.0
C1280 C 0.14908 0.76971 0.7143 0.0
C1281 C 0.13838 0.77282 0.72977 0.0
C1282 C 0.18346 0.78186 0.66696 0.0
C1283 C 0.17732 0.77688 0.64954 0.0
C1284 C 0.17228 0.78014 0.68215 0.0
C1285 C 0.15454 0.77333 0.68051 0.0
C1286 C 0.14842 0.76801 0.66312 0.0
C1287 C 0.1597 0.76974 0.64779 0.0
H1288 H 0.46453 0.94403 0.91789 0.0
H1289 H 0.50304 0.91054 0.88895 0.0
H1290 H 0.46869 0.92591 0.94489 0.0
H1291 H 0.50753 0.89227 0.91654 0.0
H1292 H 0.48621 0.90032 0.99593 0.0
H1293 H 0.48952 0.91906 0.96877 0.0
H1294 H 0.4916 0.87069 0.93559 0.0
H1295 H 0.48893 0.85203 0.96269 0.0
C1296 C 0.47403 0.93281 0.91728 0.0
C1297 C 0.48344 0.92877 0.90115 0.0
C1298 C 0.47657 0.92249 0.93295 0.0
C1299 C 0.48868 0.90776 0.9331 0.0
C1300 C 0.49807 0.90353 0.91693 0.0
C1301 C 0.4955 0.91395 0.9011 0.0
C1302 C 0.4879 0.89368 0.98291 0.0
C1303 C 0.48705 0.87467 0.98151 0.0
C1304 C 0.48959 0.90442 0.96727 0.0
C1305 C 0.49041 0.89642 0.94987 0.0
C1306 C 0.49102 0.87738 0.94868 0.0
C1307 C 0.48939 0.86666 0.96429 0.0
H1308 H 0.34289 0.23403 0.24976 0.0
H1309 H 0.39734 0.24387 0.23029 0.0
H1310 H 0.33151 0.23578 0.21878 0.0
H1311 H 0.38583 0.24544 0.19908 0.0
H1312 H 0.35078 0.25692 0.14516 0.0
H1313 H 0.36424 0.26115 0.17559 0.0
H1314 H 0.33661 0.21292 0.19424 0.0
H1315 H 0.32347 0.20869 0.16444 0.0
C1316 C 0.35241 0.23695 0.23893 0.0
C1317 C 0.37107 0.23855 0.24257 0.0
C1318 C 0.34589 0.23785 0.22112 0.0
C1319 C 0.35782 0.24033 0.20641 0.0
C1320 C 0.37629 0.24346 0.2101 0.0
C1321 C 0.38286 0.24257 0.22802 0.0
C1322 C 0.34786 0.24712 0.15574 0.0
C1323 C 0.33588 0.23258 0.15238 0.0
C1324 C 0.35548 0.24958 0.17315 0.0
C1325 C 0.3511 0.23762 0.18746 0.0
C1326 C 0.33985 0.22269 0.18373 0.0
C1327 C 0.3324 0.2202 0.16651 0.0
H1328 H 0.02973 0.84965 0.05148 0.0
H1329 H 0.02678 0.89676 0.01664 0.0
H1330 H 0.02537 0.86879 0.07797 0.0
H1331 H 0.02167 0.91596 0.04323 0.0
H1332 H 0.04377 0.94539 0.0932 0.0
H1333 H 0.04113 0.92637 0.06661 0.0
H1334 H 0.00776 0.88863 0.09672 0.0
H1335 H 0.01085 0.90775 0.12389 0.0
C1336 C 0.02767 0.86408 0.04941 0.0
C1337 C 0.02891 0.87169 0.0319 0.0
C1338 C 0.02505 0.87508 0.06468 0.0
C1339 C 0.0235 0.89402 0.06288 0.0
C1340 C 0.02327 0.90147 0.04521 0.0
C1341 C 0.02599 0.89044 0.0299 0.0
C1342 C 0.03579 0.93307 0.09427 0.0
C1343 C 0.02757 0.9281 0.1108 0.0
C1344 C 0.03409 0.92222 0.07883 0.0
C1345 C 0.02404 0.90601 0.07931 0.0
C1346 C 0.01569 0.90098 0.09583 0.0
C1347 C 0.01744 0.91192 0.11142 0.0
H1348 H 0.36599 0.77783 0.26795 0.0
H1349 H 0.41498 0.77318 0.29978 0.0
H1350 H 0.3479 0.77215 0.29503 0.0
H1351 H 0.397 0.76676 0.3268 0.0
H1352 H 0.35855 0.7832 0.37412 0.0
H1353 H 0.37853 0.78261 0.34756 0.0
H1354 H 0.33788 0.75243 0.31775 0.0
H1355 H 0.31783 0.75383 0.34392 0.0
C1356 C 0.37291 0.77498 0.28062 0.0
C1357 C 0.39191 0.77599 0.28171 0.0
C1358 C 0.36254 0.77172 0.29624 0.0
C1359 C 0.37092 0.76916 0.31331 0.0
C1360 C 0.39 0.76908 0.31408 0.0
C1361 C 0.40033 0.77256 0.29851 0.0
C1362 C 0.35411 0.77617 0.36197 0.0
C1363 C 0.3366 0.76873 0.36102 0.0
C1364 C 0.36554 0.77578 0.3467 0.0
C1365 C 0.35977 0.7677 0.33027 0.0
C1366 C 0.34266 0.75924 0.32988 0.0
C1367 C 0.3312 0.75989 0.34497 0.0
H1368 H 0.4951 0.11998 0.51871 0.0
H1369 H 0.47804 0.16468 0.55266 0.0
H1370 H 0.5009 0.10175 0.54587 0.0
H1371 H 0.48317 0.14641 0.5796 0.0
H1372 H 0.49902 0.11089 0.62734 0.0
H1373 H 0.50236 0.13034 0.60045 0.0
H1374 H 0.48117 0.08715 0.56678 0.0
H1375 H 0.47831 0.06789 0.59315 0.0
C1376 C 0.49293 0.12604 0.53194 0.0
C1377 C 0.48588 0.14371 0.53347 0.0
C1378 C 0.49607 0.11555 0.54754 0.0
C1379 C 0.49218 0.12246 0.56501 0.0
C1380 C 0.48641 0.14059 0.56649 0.0
C1381 C 0.48334 0.15106 0.55094 0.0
C1382 C 0.49524 0.10557 0.61415 0.0
C1383 C 0.48828 0.08787 0.61249 0.0
C1384 C 0.49711 0.11671 0.59872 0.0
C1385 C 0.49212 0.11033 0.58133 0.0
C1386 C 0.48554 0.09249 0.57978 0.0
C1387 C 0.48368 0.08146 0.59506 0.0
H1388 H 0.17015 0.22717 0.76536 0.0
H1389 H 0.11701 0.24252 0.78488 0.0
H1390 H 0.18197 0.22895 0.79616 0.0
H1391 H 0.12895 0.24411 0.81594 0.0
H1392 H 0.16559 0.25507 0.86887 0.0
H1393 H 0.15187 0.2588 0.83851 0.0
H1394 H 0.1756 0.20787 0.82176 0.0
H1395 H 0.18905 0.20417 0.85152 0.0
C1396 C 0.16104 0.23128 0.77615 0.0
C1397 C 0.14256 0.23446 0.7726 0.0
C1398 C 0.1678 0.23218 0.79387 0.0
C1399 C 0.1563 0.23626 0.80858 0.0
C1400 C 0.13814 0.24088 0.80492 0.0
C1401 C 0.13133 0.23998 0.7871 0.0
C1402 C 0.16756 0.24458 0.85875 0.0
C1403 C 0.17858 0.22942 0.86258 0.0
C1404 C 0.1598 0.24675 0.84136 0.0
C1405 C 0.16305 0.23386 0.82757 0.0
C1406 C 0.17326 0.21833 0.83185 0.0
C1407 C 0.18088 0.21615 0.84903 0.0
H1408 H 0.38088 0.04372 0.12456 0.0
H1409 H 0.40032 1.00596 0.08405 0.0
H1410 H 0.41024 0.04243 0.13976 0.0
H1411 H 0.42968 1.00465 0.09932 0.0
H1412 H 0.48551 0.0304 0.11789 0.0
H1413 H 0.45582 0.02509 0.10377 0.0
H1414 H 0.43095 0.02345 0.15686 0.0
H1415 H 0.46037 0.02895 0.17082 0.0
C1416 C 0.39126 0.03486 0.11908 0.0
C1417 C 0.38818 0.02507 0.10298 0.0
C1418 C 0.40815 0.0341 0.12782 0.0
C1419 C 0.42245 0.02354 0.12069 0.0
C1420 C 0.41912 0.01315 0.10503 0.0
C1421 C 0.40219 0.01383 0.09634 0.0
C1422 C 0.47377 0.02843 0.12652 0.0
C1423 C 0.4753 0.03025 0.14546 0.0
C1424 C 0.45672 0.02543 0.11845 0.0
C1425 C 0.44089 0.02415 0.12918 0.0
C1426 C 0.44273 0.02478 0.14816 0.0
C1427 C 0.45966 0.02781 0.15616 0.0
H1428 H 0.23707 0.23867 0.36789 0.0
H1429 H 0.22927 0.21073 0.41886 0.0
H1430 H 0.2418 0.20925 0.35273 0.0
H1431 H 0.23391 0.18169 0.40383 0.0
H1432 H 0.20896 0.13848 0.36469 0.0
H1433 H 0.21249 0.16677 0.3815 0.0
H1434 H 0.26107 0.17903 0.35111 0.0
H1435 H 0.2577 0.15028 0.33438 0.0
C1436 C 0.23691 0.22636 0.37594 0.0
C1437 C 0.23257 0.22704 0.39453 0.0
C1438 C 0.23958 0.2095 0.36727 0.0
C1439 C 0.23792 0.19312 0.37705 0.0
C1440 C 0.23497 0.19401 0.39586 0.0
C1441 C 0.23236 0.21071 0.40447 0.0
C1442 C 0.22064 0.14697 0.36188 0.0
C1443 C 0.23311 0.14205 0.34833 0.0
C1444 C 0.22267 0.16322 0.3715 0.0
C1445 C 0.23705 0.17519 0.36762 0.0
C1446 C 0.24983 0.17011 0.35435 0.0
C1447 C 0.248 0.15358 0.34494 0.0
H1448 H 0.05308 0.97837 0.66817 0.0
H1449 H 0.02628 0.9897 0.61725 0.0
H1450 H 0.08247 0.98312 0.65396 0.0
H1451 H 0.05608 0.99458 0.6029 0.0
H1452 H 0.11586 0.01031 0.58685 0.0
H1453 H 0.0869 0.01338 0.60319 0.0
H1454 H 0.09718 0.96256 0.63055 0.0
H1455 H 0.12565 0.9593 0.61407 0.0
C1456 C 0.05343 0.98224 0.65398 0.0
C1457 C 0.0373 0.98341 0.64379 0.0
C1458 C 0.07033 0.98493 0.64584 0.0
C1459 C 0.07164 0.98894 0.62725 0.0
C1460 C 0.05549 0.99153 0.61728 0.0
C1461 C 0.03843 0.98877 0.62549 0.0
C1462 C 0.11207 1.0 0.59664 0.0
C1463 C 0.12308 0.98455 0.59921 0.0
C1464 C 0.09542 1.00168 0.60584 0.0
C1465 C 0.08972 0.9882 0.61813 0.0
C1466 C 0.10121 0.97326 0.6213 0.0
C1467 C 0.11756 0.9714 0.61186 0.0
H1468 H 0.288 0.80376 0.91194 0.0
H1469 H 0.27106 0.76919 0.86767 0.0
H1470 H 0.28213 0.83049 0.89361 0.0
H1471 H 0.26451 0.79617 0.84935 0.0
H1472 H 0.28421 0.84438 0.81489 0.0
H1473 H 0.28275 0.81785 0.83413 0.0
H1474 H 0.26222 0.85082 0.87813 0.0
H1475 H 0.26418 0.87786 0.85871 0.0
C1476 C 0.28262 0.80185 0.89838 0.0
C1477 C 0.28025 0.78426 0.8912 0.0
C1478 C 0.2791 0.81729 0.88787 0.0
C1479 C 0.27306 0.81563 0.86984 0.0
C1480 C 0.26952 0.79802 0.86306 0.0
C1481 C 0.27309 0.78251 0.87361 0.0
C1482 C 0.27928 0.8461 0.82864 0.0
C1483 C 0.27447 0.8634 0.83526 0.0
C1484 C 0.27823 0.83071 0.83967 0.0
C1485 C 0.27228 0.83201 0.85775 0.0
C1486 C 0.26704 0.84927 0.86433 0.0
C1487 C 0.2681 0.86479 0.8532 0.0
H1488 H 0.39236 0.95439 0.40141 0.0
H1489 H 0.39927 0.00878 0.4221 0.0
H1490 H 0.42048 0.95724 0.38419 0.0
H1491 H 0.42795 0.01155 0.40503 0.0
H1492 H 0.48981 0.98892 0.39253 0.0
H1493 H 0.46008 0.99382 0.40709 0.0
H1494 H 0.43324 0.97651 0.35797 0.0
H1495 H 0.4625 0.9718 0.34351 0.0
C1496 C 0.39973 0.96713 0.40193 0.0
C1497 C 0.39348 0.98145 0.41285 0.0
C1498 C 0.41588 0.96876 0.39212 0.0
C1499 C 0.42647 0.98462 0.39327 0.0
C1500 C 0.42009 0.99916 0.40392 0.0
C1501 C 0.40359 0.99767 0.41347 0.0
C1502 C 0.47754 0.98667 0.38472 0.0
C1503 C 0.47855 0.97972 0.36695 0.0
C1504 C 0.46054 0.98947 0.39305 0.0
C1505 C 0.44433 0.98529 0.38373 0.0
C1506 C 0.44545 0.9796 0.36558 0.0
C1507 C 0.46228 0.97691 0.35731 0.0
H1508 H 0.25652 0.15362 0.67977 0.0
H1509 H 0.30575 0.14163 0.65034 0.0
H1510 H 0.25373 0.18252 0.66319 0.0
H1511 H 0.30274 0.17003 0.63361 0.0
H1512 H 0.28592 0.21369 0.59567 0.0
H1513 H 0.28097 0.18483 0.6109 0.0
H1514 H 0.27408 0.21279 0.66193 0.0
H1515 H 0.27921 0.24207 0.64657 0.0
C1516 C 0.26646 0.15692 0.66945 0.0
C1517 C 0.28132 0.14529 0.66627 0.0
C1518 C 0.26496 0.17354 0.66012 0.0
C1519 C 0.27802 0.17857 0.64712 0.0
C1520 C 0.29237 0.16651 0.64343 0.0
C1521 C 0.29408 0.1502 0.65299 0.0
C1522 C 0.28301 0.21382 0.6101 0.0
C1523 C 0.28322 0.23022 0.61994 0.0
C1524 C 0.2802 0.19722 0.61882 0.0
C1525 C 0.27741 0.19648 0.63765 0.0
C1526 C 0.27616 0.21294 0.64738 0.0
C1527 C 0.27908 0.22971 0.63859 0.0
H1528 H 0.09465 0.03178 0.9477 0.0
H1529 H 0.12901 0.01436 0.90346 0.0
H1530 H 0.06838 0.03042 0.92815 0.0
H1531 H 0.10223 0.01245 0.8837 0.0
H1532 H 0.05512 0.03885 0.85056 0.0
H1533 H 0.08172 0.03259 0.86888 0.0
H1534 H 0.04731 0.01239 0.91191 0.0
H1535 H 0.02044 0.01938 0.89365 0.0
C1536 C 0.09662 0.02743 0.93379 0.0
C1537 C 0.11407 0.02335 0.92714 0.0
C1538 C 0.08138 0.02643 0.92257 0.0
C1539 C 0.08301 0.02125 0.90428 0.0
C1540 C 0.10043 0.01668 0.89767 0.0
C1541 C 0.1158 0.01771 0.90898 0.0
C1542 C 0.05316 0.03283 0.86384 0.0
C1543 C 0.03557 0.0299 0.87074 0.0
C1544 C 0.06853 0.02908 0.87433 0.0
C1545 C 0.06679 0.0222 0.89204 0.0
C1546 C 0.0492 0.01806 0.89848 0.0
C1547 C 0.03376 0.0219 0.88796 0.0
H1548 H 0.20691 0.87347 0.14898 0.0
H1549 H 0.25875 0.86449 0.17474 0.0
H1550 H 0.21029 0.8452 0.13206 0.0
H1551 H 0.26199 0.83568 0.15797 0.0
H1552 H 0.23802 0.77472 0.14359 0.0
H1553 H 0.24294 0.80433 0.15839 0.0
H1554 H 0.23137 0.8315 0.10778 0.0
H1555 H 0.22666 0.8023 0.09309 0.0
C1556 C 0.21923 0.86561 0.15072 0.0
C1557 C 0.23266 0.87132 0.16298 0.0
C1558 C 0.22116 0.84938 0.14107 0.0
C1559 C 0.2364 0.83818 0.1437 0.0
C1560 C 0.25009 0.84402 0.1557 0.0
C1561 C 0.24834 0.86058 0.1651 0.0
C1562 C 0.2371 0.787 0.13554 0.0
C1563 C 0.23172 0.78614 0.11722 0.0
C1564 C 0.23989 0.80395 0.144 0.0
C1565 C 0.23726 0.82025 0.13428 0.0
C1566 C 0.23324 0.81922 0.11569 0.0
C1567 C 0.23056 0.80244 0.10728 0.0
H1568 H 0.10542 0.49095 0.00951 0.0
H1569 H 0.15747 0.47473 0.03119 0.0
H1570 H 0.09635 0.45901 0.0077 0.0
H1571 H 0.14844 0.44298 0.02928 0.0
H1572 H 0.11293 0.39587 0.05246 0.0
H1573 H 0.1265 0.42556 0.04733 0.0
H1574 H 0.10151 0.42796 0.99432 0.0
H1575 H 0.08792 0.39797 0.99946 0.0
C1576 C 0.1151 0.4806 0.01349 0.0
C1577 C 0.1321 0.48551 0.02072 0.0
C1578 C 0.1099 0.46226 0.01241 0.0
C1579 C 0.12157 0.44841 0.01859 0.0
C1580 C 0.13899 0.45329 0.02471 0.0
C1581 C 0.14419 0.47155 0.02573 0.0
C1582 C 0.11066 0.4025 0.03952 0.0
C1583 C 0.09931 0.39452 0.02641 0.0
C1584 C 0.11849 0.41956 0.03655 0.0
C1585 C 0.11502 0.42926 0.02044 0.0
C1586 C 0.10432 0.42094 0.00694 0.0
C1587 C 0.09669 0.40366 0.00982 0.0
H1588 H 0.62269 0.12521 0.97068 0.0
H1589 H 0.58426 0.11454 0.0137 0.0
H1590 H 0.63377 0.09402 0.97296 0.0
H1591 H 0.59521 0.08335 0.01577 0.0
H1592 H 0.59934 0.02509 0.98935 0.0
H1593 H 0.5921 0.05702 0.99449 0.0
H1594 H 0.64911 0.07042 0.99242 0.0
H1595 H 0.65641 0.03837 0.98739 0.0
C1596 C 0.61685 0.11638 0.98089 0.0
C1597 C 0.60238 0.12243 0.99182 0.0
C1598 C 0.62323 0.09846 0.98221 0.0
C1599 C 0.61522 0.08608 0.99439 0.0
C1600 C 0.6015 0.09243 1.00605 0.0
C1601 C 0.59527 0.11039 1.00489 0.0
C1602 C 0.61038 0.03475 0.99041 0.0
C1603 C 0.62845 0.0291 0.98792 0.0
C1604 C 0.60623 0.0531 0.9934 0.0
C1605 C 0.62001 0.06634 0.99374 0.0
C1606 C 0.63816 0.0606 0.99206 0.0
C1607 C 0.64235 0.04218 0.98934 0.0
H1608 H 0.17007 0.31479 0.22313 0.0
H1609 H 0.13684 0.35645 0.24766 0.0
H1610 H 0.19642 0.33418 0.22535 0.0
H1611 H 0.16371 0.376 0.25039 0.0
H1612 H 0.20968 0.41222 0.22611 0.0
H1613 H 0.1833 0.39323 0.23126 0.0
H1614 H 0.2184 0.34804 0.24435 0.0
H1615 H 0.24502 0.36708 0.23848 0.0
C1616 C 0.16838 0.32808 0.2292 0.0
C1617 C 0.1512 0.33408 0.23508 0.0
C1618 C 0.18366 0.33918 0.23068 0.0
C1619 C 0.18237 0.35669 0.23817 0.0
C1620 C 0.16524 0.36264 0.2444 0.0
C1621 C 0.14981 0.35146 0.24287 0.0
C1622 C 0.21185 0.39829 0.23034 0.0
C1623 C 0.22953 0.3911 0.23159 0.0
C1624 C 0.19662 0.3874 0.23345 0.0
C1625 C 0.19859 0.36897 0.23798 0.0
C1626 C 0.21632 0.36208 0.24049 0.0
C1627 C 0.23163 0.37303 0.23731 0.0
H1628 H 0.90365 0.99577 0.51014 0.0
H1629 H 0.85993 0.9723 0.47882 0.0
H1630 H 0.91724 0.96571 0.51346 0.0
H1631 H 0.87374 0.9424 0.48175 0.0
H1632 H 0.90062 0.8879 0.49503 0.0
H1633 H 0.88365 0.91629 0.50009 0.0
H1634 H 0.93294 0.94703 0.49184 0.0
H1635 H 0.9496 0.91918 0.4871 0.0
C1636 C 0.89676 0.9842 0.50421 0.0
C1637 C 0.88083 0.98659 0.49398 0.0
C1638 C 0.90462 0.96694 0.50601 0.0
C1639 C 0.89677 0.95161 0.49759 0.0
C1640 C 0.88015 0.95381 0.48847 0.0
C1641 C 0.87229 0.97106 0.4867 0.0
C1642 C 0.90778 0.90074 0.49455 0.0
C1643 C 0.92642 0.90124 0.49048 0.0
C1644 C 0.89808 0.91701 0.49737 0.0
C1645 C 0.90692 0.93402 0.49645 0.0
C1646 C 0.92566 0.93429 0.49298 0.0
C1647 C 0.93522 0.91821 0.49003 0.0
H1648 H 0.7678 0.14711 0.23318 0.0
H1649 H 0.79973 0.09826 0.23857 0.0
H1650 H 0.79479 0.16538 0.23906 0.0
H1651 H 0.82661 0.11638 0.24514 0.0
H1652 H 0.87424 0.15477 0.22978 0.0
H1653 H 0.84761 0.13486 0.22964 0.0
H1654 H 0.81721 0.17554 0.25915 0.0
H1655 H 0.84349 0.19551 0.25852 0.0
C1656 C 0.78047 0.14027 0.23619 0.0
C1657 C 0.78161 0.12125 0.23536 0.0
C1658 C 0.79604 0.15073 0.23957 0.0
C1659 C 0.8131 0.14243 0.24241 0.0
C1660 C 0.81391 0.12334 0.24259 0.0
C1661 C 0.79841 0.11292 0.23902 0.0
C1662 C 0.86195 0.15924 0.23651 0.0
C1663 C 0.86091 0.17673 0.24401 0.0
C1664 C 0.84663 0.14785 0.23647 0.0
C1665 C 0.83002 0.15363 0.24416 0.0
C1666 C 0.82949 0.17074 0.25264 0.0
C1667 C 0.84465 0.18216 0.25244 0.0
H1668 H 0.39799 0.52713 0.53659 0.0
H1669 H 0.35158 0.5477 0.5073 0.0
H1670 H 0.41383 0.55604 0.53161 0.0
H1671 H 0.36763 0.57636 0.50188 0.0
H1672 H 0.4142 0.61773 0.48344 0.0
H1673 H 0.39831 0.58851 0.4858 0.0
H1674 H 0.40515 0.58952 0.54397 0.0
H1675 H 0.42054 0.6189 0.54174 0.0
C1676 C 0.39141 0.53759 0.52859 0.0
C1677 C 0.37358 0.5351 0.52221 0.0
C1678 C 0.40038 0.55421 0.52594 0.0
C1679 C 0.39188 0.56849 0.51649 0.0
C1680 C 0.3745 0.5656 0.50919 0.0
C1681 C 0.36536 0.54917 0.51223 0.0
C1682 C 0.41202 0.61187 0.49676 0.0
C1683 C 0.41853 0.62074 0.51241 0.0
C1684 C 0.403 0.59512 0.49809 0.0
C1685 C 0.40073 0.58664 0.51504 0.0
C1686 C 0.40692 0.59564 0.5307 0.0
C1687 C 0.41553 0.61258 0.52943 0.0
H1688 H 0.13982 0.66083 0.25489 0.0
H1689 H 0.16122 0.68259 0.30498 0.0
H1690 H 0.16843 0.64431 0.25005 0.0
H1691 H 0.18926 0.66607 0.30042 0.0
H1692 H 0.24417 0.65017 0.28185 0.0
H1693 H 0.2157 0.66699 0.28186 0.0
H1694 H 0.18768 0.61979 0.26109 0.0
H1695 H 0.21628 0.60311 0.26059 0.0
C1696 C 0.15048 0.66188 0.26497 0.0
C1697 C 0.14823 0.67313 0.28026 0.0
C1698 C 0.16691 0.65248 0.26219 0.0
C1699 C 0.1814 0.65413 0.27465 0.0
C1700 C 0.17874 0.66487 0.29021 0.0
C1701 C 0.16249 0.67423 0.29293 0.0
C1702 C 0.23203 0.64347 0.27692 0.0
C1703 C 0.23258 0.62519 0.27139 0.0
C1704 C 0.21561 0.65307 0.27711 0.0
C1705 C 0.19921 0.64465 0.27188 0.0
C1706 C 0.19996 0.62676 0.26521 0.0
C1707 C 0.21644 0.61717 0.26495 0.0
H1708 H 0.30322 0.41247 0.78816 0.0
H1709 H 0.26864 0.36891 0.76946 0.0
H1710 H 0.32986 0.39401 0.78243 0.0
H1711 H 0.29554 0.35051 0.763 0.0
H1712 H 0.34263 0.31513 0.7835 0.0
H1713 H 0.31644 0.33473 0.78165 0.0
H1714 H 0.35047 0.37868 0.76275 0.0
H1715 H 0.37717 0.35888 0.76514 0.0
C1716 C 0.3013 0.39905 0.7824 0.0
C1717 C 0.28372 0.39207 0.77955 0.0
C1718 C 0.31669 0.38848 0.77897 0.0
C1719 C 0.31497 0.37061 0.77249 0.0
C1720 C 0.29741 0.36408 0.76838 0.0
C1721 C 0.28195 0.37468 0.7719 0.0
C1722 C 0.34466 0.32894 0.77884 0.0
C1723 C 0.36213 0.33544 0.77462 0.0
C1724 C 0.32947 0.34019 0.77756 0.0
C1725 C 0.33117 0.35834 0.77194 0.0
C1726 C 0.34862 0.36481 0.76729 0.0
C1727 C 0.36394 0.35347 0.76862 0.0
H1728 H 0.97293 0.85135 0.55223 0.0
H1729 H 0.98994 0.89463 0.51649 0.0
H1730 H 0.97931 0.87021 0.57844 0.0
H1731 H 0.99708 0.91347 0.54295 0.0
H1732 H 0.978 0.94926 0.59039 0.0
H1733 H 0.9792 0.9294 0.56433 0.0
H1734 H 0.99934 0.88593 0.59825 0.0
H1735 H 0.99759 0.90598 0.62483 0.0
C1736 C 0.97846 0.8648 0.54995 0.0
C1737 C 0.98066 0.87157 0.53219 0.0
C1738 C 0.98228 0.87561 0.56509 0.0
C1739 C 0.98849 0.89353 0.56295 0.0
C1740 C 0.99193 0.89987 0.54516 0.0
C1741 C 0.98803 0.88902 0.52995 0.0
C1742 C 0.98279 0.9355 0.59241 0.0
C1743 C 0.98754 0.92921 0.60984 0.0
C1744 C 0.9837 0.92411 0.57729 0.0
C1745 C 0.98946 0.906 0.579 0.0
C1746 C 0.99466 0.89975 0.59639 0.0
C1747 C 0.9937 0.91123 0.61165 0.0
H1748 H 0.85915 0.24808 0.379 0.0
H1749 H 0.81558 0.22865 0.34484 0.0
H1750 H 0.87854 0.25122 0.35204 0.0
H1751 H 0.83476 0.23129 0.31841 0.0
H1752 H 0.86792 0.24439 0.27024 0.0
H1753 H 0.84983 0.2505 0.29743 0.0
H1754 H 0.89411 0.23179 0.3311 0.0
H1755 H 0.91224 0.22636 0.30414 0.0
C1756 C 0.85369 0.24458 0.3658 0.0
C1757 C 0.83585 0.23797 0.36418 0.0
C1758 C 0.86479 0.24631 0.35033 0.0
C1759 C 0.85826 0.24155 0.33292 0.0
C1760 C 0.84026 0.23544 0.33141 0.0
C1761 C 0.82927 0.23371 0.34673 0.0
C1762 C 0.87393 0.24205 0.28347 0.0
C1763 C 0.89145 0.23468 0.28496 0.0
C1764 C 0.86351 0.24537 0.29909 0.0
C1765 C 0.87034 0.24134 0.31656 0.0
C1766 C 0.88834 0.23518 0.318 0.0
C1767 C 0.89873 0.23192 0.30244 0.0
H1768 H 0.54299 0.0951 0.11836 0.0
H1769 H 0.48509 0.09414 0.10898 0.0
H1770 H 0.54772 0.10638 0.08754 0.0
H1771 H 0.4899 0.10568 0.07816 0.0
H1772 H 0.51013 0.14199 0.02834 0.0
H1773 H 0.50297 0.13336 0.05975 0.0
H1774 H 0.5425 0.09022 0.05688 0.0
H1775 H 0.54946 0.09849 0.02567 0.0
C1776 C 0.53122 0.0977 0.10992 0.0
C1777 C 0.51365 0.09361 0.11617 0.0
C1778 C 0.53396 0.10401 0.09218 0.0
C1779 C 0.5192 0.10666 0.08033 0.0
C1780 C 0.50154 0.10375 0.08695 0.0
C1781 C 0.4988 0.09716 0.10463 0.0
C1782 C 0.51705 0.13046 0.03431 0.0
C1783 C 0.53038 0.12096 0.02441 0.0
C1784 C 0.51299 0.12557 0.05232 0.0
C1785 C 0.52241 0.11132 0.06089 0.0
C1786 C 0.53525 0.10148 0.05078 0.0
C1787 C 0.53909 0.10613 0.03277 0.0
H1788 H 0.65344 0.76507 0.87889 0.0
H1789 H 0.69597 0.78742 0.84524 0.0
H1790 H 0.63402 0.76206 0.85193 0.0
H1791 H 0.67675 0.78487 0.81881 0.0
H1792 H 0.64456 0.77055 0.77034 0.0
H1793 H 0.66281 0.76505 0.79754 0.0
H1794 H 0.61751 0.78103 0.83121 0.0
H1795 H 0.5992 0.78584 0.80421 0.0
C1796 C 0.65865 0.76931 0.86581 0.0
C1797 C 0.67625 0.77656 0.86432 0.0
C1798 C 0.64754 0.76762 0.85034 0.0
C1799 C 0.65382 0.77309 0.83306 0.0
C1800 C 0.6715 0.78009 0.83169 0.0
C1801 C 0.68251 0.78176 0.84702 0.0
C1802 C 0.63837 0.77241 0.78356 0.0
C1803 C 0.62048 0.77885 0.78505 0.0
C1804 C 0.64888 0.76945 0.79919 0.0
C1805 C 0.64178 0.77293 0.81666 0.0
C1806 C 0.62348 0.77811 0.81809 0.0
C1807 C 0.61299 0.781 0.80252 0.0
H1808 H 0.99246 0.12095 0.99414 0.0
H1809 H 0.97432 0.16405 0.95873 0.0
H1810 H 0.99914 0.10214 0.96756 0.0
H1811 H 0.9803 0.1452 0.9324 0.0
H1812 H 0.99828 0.10949 0.88573 0.0
H1813 H 1.00028 0.1296 0.91226 0.0
H1814 H 0.98088 0.08606 0.94651 0.0
H1815 H 0.97939 0.06615 0.92049 0.0
C1816 C 0.99018 0.12653 0.98072 0.0
C1817 C 0.98265 0.14393 0.97862 0.0
C1818 C 0.99384 0.11569 0.96544 0.0
C1819 C 0.98999 0.12198 0.94772 0.0
C1820 C 0.98357 0.13985 0.9457 0.0
C1821 C 0.97999 0.15065 0.96091 0.0
C1822 C 0.99462 0.10423 0.89897 0.0
C1823 C 0.98855 0.08623 0.90088 0.0
C1824 C 0.99571 0.11575 0.9142 0.0
C1825 C 0.99078 0.1095 0.93166 0.0
C1826 C 0.98515 0.09136 0.93347 0.0
C1827 C 0.98408 0.07994 0.91838 0.0
H1828 H 0.69821 0.26003 0.67289 0.0
H1829 H 0.65698 0.2326 0.64155 0.0
H1830 H 0.67828 0.26042 0.6992 0.0
H1831 H 0.63712 0.23225 0.66816 0.0
H1832 H 0.60069 0.24057 0.71607 0.0
H1833 H 0.61894 0.24769 0.68945 0.0
H1834 H 0.66774 0.23998 0.72119 0.0
H1835 H 0.64933 0.23355 0.74797 0.0
C1836 C 0.68476 0.2542 0.6716 0.0
C1837 C 0.67918 0.24621 0.65516 0.0
C1838 C 0.67336 0.25427 0.68678 0.0
C1839 C 0.65612 0.2461 0.68606 0.0
C1840 C 0.65021 0.23885 0.66929 0.0
C1841 C 0.66158 0.23901 0.65397 0.0
C1842 C 0.61533 0.2408 0.71744 0.0
C1843 C 0.62357 0.2365 0.73414 0.0
C1844 C 0.62583 0.24469 0.70209 0.0
C1845 C 0.64489 0.24416 0.70293 0.0
C1846 C 0.65312 0.24074 0.71993 0.0
C1847 C 0.64257 0.23706 0.73537 0.0
H1848 H 0.52174 0.89437 0.49389 0.0
H1849 H 0.54068 0.85071 0.45959 0.0
H1850 H 0.51537 0.91263 0.46688 0.0
H1851 H 0.53503 0.86905 0.43282 0.0
H1852 H 0.51796 0.90411 0.38526 0.0
H1853 H 0.51542 0.88435 0.41201 0.0
H1854 H 0.53416 0.92836 0.44608 0.0
H1855 H 0.53617 0.9479 0.41985 0.0
C1856 C 0.52424 0.88854 0.48061 0.0
C1857 C 0.53193 0.87117 0.47896 0.0
C1858 C 0.52077 0.89907 0.46509 0.0
C1859 C 0.52498 0.89249 0.44757 0.0
C1860 C 0.53149 0.87462 0.44596 0.0
C1861 C 0.53488 0.86412 0.46142 0.0
C1862 C 0.52136 0.90953 0.39851 0.0
C1863 C 0.52738 0.92756 0.40032 0.0
C1864 C 0.51995 0.89822 0.41386 0.0
C1865 C 0.52452 0.90472 0.43133 0.0
C1866 C 0.53014 0.92288 0.43303 0.0
C1867 C 0.53151 0.93409 0.41782 0.0
H1868 H 0.84941 0.80009 0.23662 0.0
H1869 H 0.89211 0.75987 0.23441 0.0
H1870 H 0.84132 0.79328 0.20532 0.0
H1871 H 0.88362 0.75283 0.2029 0.0
H1872 H 0.8437 0.73596 0.15342 0.0
H1873 H 0.85533 0.74039 0.18428 0.0
H1874 H 0.85833 0.79815 0.17483 0.0
H1875 H 0.847 0.79381 0.14398 0.0
C1876 C 0.85692 0.78956 0.2296 0.0
C1877 C 0.87148 0.78057 0.23812 0.0
C1878 C 0.85236 0.7858 0.21155 0.0
C1879 C 0.86202 0.77274 0.20155 0.0
C1880 C 0.87599 0.76304 0.21026 0.0
C1881 C 0.88079 0.76703 0.22832 0.0
C1882 C 0.84726 0.74957 0.15776 0.0
C1883 C 0.84432 0.76453 0.14619 0.0
C1884 C 0.8539 0.75208 0.17546 0.0
C1885 C 0.85746 0.76963 0.18206 0.0
C1886 C 0.85546 0.78447 0.17019 0.0
C1887 C 0.84911 0.78195 0.15244 0.0
H1888 H 0.62472 0.98763 0.90088 0.0
H1889 H 0.59377 0.98657 0.95055 0.0
H1890 H 0.59661 0.99146 0.88353 0.0
H1891 H 0.56605 0.99193 0.93374 0.0
H1892 H 0.51792 0.97583 0.89858 0.0
H1893 H 0.54552 0.97708 0.91646 0.0
H1894 H 0.5718 0.00783 0.8738 0.0
H1895 H 0.54432 1.00539 0.85546 0.0
C1896 C 0.61194 0.98867 0.90808 0.0
C1897 C 0.6114 0.9866 0.927 0.0
C1898 C 0.59576 0.99099 0.89819 0.0
C1899 C 0.57875 0.99176 0.9071 0.0
C1900 C 0.57859 0.99077 0.92619 0.0
C1901 C 0.5946 0.9879 0.93592 0.0
C1902 C 0.52945 0.98324 0.89322 0.0
C1903 C 0.52891 0.99055 0.87563 0.0
C1904 C 0.54542 0.984 0.9035 0.0
C1905 C 0.56122 0.99248 0.89667 0.0
C1906 C 0.56021 1.00077 0.87945 0.0
C1907 C 0.54434 0.99964 0.869 0.0
H1908 H 0.81168 0.79933 0.62098 0.0
H1909 H 0.75757 0.77752 0.62655 0.0
H1910 H 0.80202 0.8276 0.63442 0.0
H1911 H 0.74741 0.80656 0.63942 0.0
H1912 H 0.74243 0.85334 0.68134 0.0
H1913 H 0.74858 0.82547 0.66487 0.0
H1914 H 0.78635 0.85437 0.63043 0.0
H1915 H 0.78094 0.88209 0.64774 0.0
C1916 C 0.79756 0.80066 0.62487 0.0
C1917 C 0.78538 0.78611 0.62261 0.0
C1918 C 0.79193 0.81709 0.63246 0.0
C1919 C 0.7738 0.81972 0.63783 0.0
C1920 C 0.76153 0.80511 0.63561 0.0
C1921 C 0.76729 0.78843 0.62819 0.0
C1922 C 0.75188 0.85386 0.67008 0.0
C1923 C 0.76137 0.86998 0.66603 0.0
C1924 C 0.75536 0.83777 0.66053 0.0
C1925 C 0.76825 0.83737 0.64643 0.0
C1926 C 0.77677 0.85387 0.64156 0.0
C1927 C 0.77352 0.8699 0.65134 0.0
H1928 H 0.88685 0.03193 0.40279 0.0
H1929 H 0.91657 1.00279 0.444 0.0
H1930 H 0.91383 0.03184 0.38338 0.0
H1931 H 0.94319 1.00189 0.42451 0.0
H1932 H 0.99336 0.02765 0.39737 0.0
H1933 H 0.96595 0.02176 0.41497 0.0
H1934 H 0.93513 0.01645 0.36525 0.0
H1935 H 0.96243 0.02306 0.34781 0.0
C1936 C 0.89898 0.02503 0.40744 0.0
C1937 C 0.89964 0.01749 0.42493 0.0
C1938 C 0.91451 0.02494 0.39635 0.0
C1939 C 0.93094 0.01708 0.40242 0.0
C1940 C 0.93106 0.00853 0.4195 0.0
C1941 C 0.91571 0.00888 0.43063 0.0
C1942 C 0.98082 0.02481 0.39022 0.0
C1943 C 0.98008 0.02588 0.37121 0.0
C1944 C 0.96501 0.02142 0.40031 0.0
C1945 C 0.94811 0.0188 0.39161 0.0
C1946 C 0.9477 0.01883 0.37251 0.0
C1947 C 0.96343 0.02242 0.36247 0.0
H1948 H 0.74308 0.24328 0.14381 0.0
H1949 H 0.72802 0.20899 0.09865 0.0
H1950 H 0.74874 0.21624 0.16225 0.0
H1951 H 0.73301 0.18214 0.11712 0.0
H1952 H 0.74858 0.13473 0.15341 0.0
H1953 H 0.75202 0.16161 0.13392 0.0
H1954 H 0.72879 0.19505 0.17619 0.0
H1955 H 0.7258 0.16873 0.19547 0.0
C1956 C 0.74132 0.23001 0.1377 0.0
C1957 C 0.73487 0.22835 0.11983 0.0
C1958 C 0.74438 0.21446 0.14831 0.0
C1959 C 0.741 0.19692 0.14132 0.0
C1960 C 0.73584 0.19532 0.12302 0.0
C1961 C 0.73285 0.21081 0.11243 0.0
C1962 C 0.74437 0.14787 0.15851 0.0
C1963 C 0.73681 0.14948 0.17597 0.0
C1964 C 0.7463 0.16329 0.14736 0.0
C1965 C 0.74078 0.18062 0.15348 0.0
C1966 C 0.73358 0.18212 0.17107 0.0
C1967 C 0.73165 0.16684 0.1821 0.0
H1968 H 0.59658 1.00479 0.57017 0.0
H1969 H 0.62635 0.03402 0.61129 0.0
H1970 H 0.57 1.00386 0.58974 0.0
H1971 H 0.59944 0.03391 0.63076 0.0
H1972 H 0.55079 0.02596 0.66628 0.0
H1973 H 0.57802 0.01879 0.64894 0.0
H1974 H 0.54734 0.02395 0.59912 0.0
H1975 H 0.51999 0.03038 0.61662 0.0
C1976 C 0.59747 0.01084 0.58356 0.0
C1977 C 0.61352 0.01952 0.5892 0.0
C1978 C 0.58214 0.01049 0.59473 0.0
C1979 C 0.58229 0.01911 0.61178 0.0
C1980 C 0.59874 0.02696 0.61782 0.0
C1981 C 0.61424 0.02705 0.60669 0.0
C1982 C 0.5498 0.02516 0.65162 0.0
C1983 C 0.53322 0.02875 0.64282 0.0
C1984 C 0.56549 0.02124 0.64164 0.0
C1985 C 0.56511 0.02102 0.62255 0.0
C1986 C 0.54826 0.02375 0.61379 0.0
C1987 C 0.53248 0.02745 0.62382 0.0
H1988 H 0.73211 0.87606 0.36125 0.0
H1989 H 0.76352 0.8459 0.32207 0.0
H1990 H 0.73121 0.84932 0.38096 0.0
H1991 H 0.76335 0.81949 0.34191 0.0
H1992 H 0.73555 0.76975 0.36814 0.0
H1993 H 0.74259 0.79692 0.35055 0.0
H1994 H 0.7459 0.82824 0.40014 0.0
H1995 H 0.7382 0.80118 0.41755 0.0
C1996 C 0.73928 0.8639 0.35712 0.0
C1997 C 0.74776 0.86303 0.34008 0.0
C1998 C 0.7388 0.84851 0.3684 0.0
C1999 C 0.74698 0.83201 0.36296 0.0
C2000 C 0.75646 0.83169 0.34639 0.0
C2001 C 0.75671 0.84692 0.33507 0.0
C2002 C 0.73821 0.78235 0.37529 0.0
C2003 C 0.73626 0.78331 0.39422 0.0
C2004 C 0.74225 0.79801 0.36521 0.0
C2005 C 0.74465 0.81498 0.37386 0.0
C2006 C 0.74374 0.8156 0.39292 0.0
C2007 C 0.73951 0.80001 0.40294 0.0
H2008 H 0.99267 0.98511 0.11455 0.0
H2009 H 0.96198 0.99103 0.1641 0.0
H2010 H 0.96525 0.99073 0.09691 0.0
H2011 H 0.93465 0.9974 0.14658 0.0
H2012 H 0.88633 0.98069 0.10941 0.0
H2013 H 0.91325 0.98157 0.1289 0.0
H2014 H 0.94253 0.01042 0.08694 0.0
H2015 H 0.91598 0.00868 0.06739 0.0
C2016 C 0.98018 0.9882 0.12167 0.0
C2017 C 0.97951 0.98756 0.14071 0.0
C2018 C 0.96436 0.99144 0.11157 0.0
C2019 C 0.94751 0.99436 0.12026 0.0
C2020 C 0.94718 0.99479 0.13935 0.0
C2021 C 0.96293 0.99133 0.14942 0.0
C2022 C 0.89842 0.98754 0.10459 0.0
C2023 C 0.89912 0.99448 0.08687 0.0
C2024 C 0.91391 0.98808 0.11573 0.0
C2025 C 0.93032 0.99581 0.10944 0.0
C2026 C 0.93043 1.00387 0.09213 0.0
C2027 C 0.91512 1.00305 0.08096 0.0
H2028 H 0.7729 0.24568 0.86778 0.0
H2029 H 0.79128 0.21103 0.91138 0.0
H2030 H 0.76627 0.21874 0.84941 0.0
H2031 H 0.78533 0.18436 0.89299 0.0
H2032 H 0.76747 0.13699 0.85821 0.0
H2033 H 0.76534 0.16389 0.87781 0.0
H2034 H 0.78457 0.19744 0.83366 0.0
H2035 H 0.78619 0.17105 0.81426 0.0
C2036 C 0.77524 0.23236 0.87356 0.0
C2037 C 0.78283 0.23057 0.89097 0.0
C2038 C 0.77161 0.21687 0.86298 0.0
C2039 C 0.77553 0.19927 0.86956 0.0
C2040 C 0.782 0.19756 0.88742 0.0
C2041 C 0.78557 0.21296 0.89796 0.0
C2042 C 0.77106 0.15015 0.85271 0.0
C2043 C 0.77713 0.15175 0.83469 0.0
C2044 C 0.7699 0.1656 0.86394 0.0
C2045 C 0.77475 0.18297 0.85737 0.0
C2046 C 0.78037 0.18448 0.8392 0.0
C2047 C 0.78151 0.16917 0.82808 0.0
H2048 H 0.89186 0.52864 0.98862 0.0
H2049 H 0.84105 0.55564 0.97737 0.0
H2050 H 0.90648 0.55838 0.99289 0.0
H2051 H 0.85555 0.58502 0.98153 0.0
H2052 H 0.89499 0.62871 0.95828 0.0
H2053 H 0.87845 0.60019 0.96133 0.0
H2054 H 0.9071 0.58868 0.01117 0.0
H2055 H 0.92361 0.61753 0.00822 0.0
C2056 C 0.88371 0.54084 0.98757 0.0
C2057 C 0.86534 0.53975 0.98246 0.0
C2058 C 0.89208 0.55788 0.98997 0.0
C2059 C 0.88222 0.57408 0.98723 0.0
C2060 C 0.86359 0.57285 0.9834 0.0
C2061 C 0.85528 0.55595 0.98109 0.0
C2062 C 0.89751 0.6203 0.9701 0.0
C2063 C 0.91052 0.62548 0.98305 0.0
C2064 C 0.88802 0.60393 0.97186 0.0
C2065 C 0.89148 0.59211 0.98649 0.0
C2066 C 0.9042 0.59744 0.99972 0.0
C2067 C 0.91349 0.61406 0.99812 0.0
H2068 H 0.41517 0.98976 0.04879 0.0
H2069 H 0.37328 0.98761 0.00772 0.0
H2070 H 0.42346 0.9585 0.04204 0.0
H2071 H 0.38202 0.95612 1.0007 0.0
H2072 H 0.42329 0.90712 0.98452 0.0
H2073 H 0.41135 0.9379 0.98882 0.0
H2074 H 0.40598 0.92773 0.04625 0.0
H2075 H 0.41756 0.89693 0.04201 0.0
C2076 C 0.40789 0.98276 0.03808 0.0
C2077 C 0.3935 0.9913 0.02882 0.0
C2078 C 0.41256 0.96473 0.03436 0.0
C2079 C 0.40322 0.95476 0.02104 0.0
C2080 C 0.38941 0.96347 0.0111 0.0
C2081 C 0.38446 0.9815 0.01508 0.0
C2082 C 0.41915 0.91129 0.998 0.0
C2083 C 0.42146 0.89951 0.01292 0.0
C2084 C 0.41232 0.92893 1.00044 0.0
C2085 C 0.40797 0.93531 0.0179 0.0
C2086 C 0.40942 0.92326 0.03266 0.0
C2087 C 0.41593 0.90554 0.03019 0.0
H2088 H 0.76924 0.64417 0.77412 0.0
H2089 H 0.80378 0.59905 0.78865 0.0
H2090 H 0.79618 0.66251 0.76761 0.0
H2091 H 0.8305 0.61739 0.78281 0.0
H2092 H 0.87761 0.65298 0.76543 0.0
H2093 H 0.85048 0.63372 0.763 0.0
H2094 H 0.81814 0.67665 0.78657 0.0
H2095 H 0.84471 0.69572 0.78855 0.0
C2096 C 0.78253 0.63806 0.77562 0.0
C2097 C 0.78431 0.62023 0.78215 0.0
C2098 C 0.79802 0.64861 0.77207 0.0
C2099 C 0.81562 0.64157 0.77499 0.0
C2100 C 0.81729 0.62332 0.78029 0.0
C2101 C 0.80187 0.61281 0.7838 0.0
C2102 C 0.86466 0.65829 0.76993 0.0
C2103 C 0.86344 0.67586 0.7773 0.0
C2104 C 0.84909 0.64726 0.76858 0.0
C2105 C 0.832 0.65362 0.77451 0.0
C2106 C 0.83087 0.67134 0.78149 0.0
C2107 C 0.84629 0.68225 0.78284 0.0
H2108 H 0.0946 0.11057 0.48784 0.0
H2109 H 0.09565 0.11914 0.54589 0.0
H2110 H 0.10659 0.07985 0.49218 0.0
H2111 H 0.10742 0.08843 0.55014 0.0
H2112 H 0.10069 0.02646 0.55125 0.0
H2113 H 0.09196 0.05767 0.54484 0.0
H2114 H 0.13434 0.06153 0.5046 0.0
H2115 H 0.14342 0.03011 0.5112 0.0
C2116 C 0.09772 0.10607 0.5015 0.0
C2117 C 0.09406 0.11736 0.51652 0.0
C2118 C 0.10458 0.08844 0.50396 0.0
C2119 C 0.10767 0.08161 0.52151 0.0
C2120 C 0.1049 0.09321 0.53646 0.0
C2121 C 0.09831 0.1109 0.53399 0.0
C2122 C 0.10808 0.03379 0.54086 0.0
C2123 C 0.12282 0.02568 0.53178 0.0
C2124 C 0.10316 0.05179 0.53733 0.0
C2125 C 0.11264 0.06218 0.52444 0.0
C2126 C 0.12682 0.05389 0.51467 0.0
C2127 C 0.13197 0.03587 0.51841 0.0
H2128 H 0.13673 0.86044 0.78106 0.0
H2129 H 0.16734 0.8204 0.7512 0.0
H2130 H 0.16315 0.88059 0.78104 0.0
H2131 H 0.19343 0.84064 0.75041 0.0
H2132 H 0.21085 0.91744 0.77283 0.0
H2133 H 0.18402 0.89945 0.7657 0.0
H2134 H 0.21586 0.85036 0.77076 0.0
H2135 H 0.24279 0.86848 0.77721 0.0
C2136 C 0.14892 0.8562 0.774 0.0
C2137 C 0.15002 0.83882 0.76626 0.0
C2138 C 0.16413 0.86773 0.77396 0.0
C2139 C 0.18066 0.86218 0.76596 0.0
C2140 C 0.1812 0.84524 0.75716 0.0
C2141 C 0.16615 0.83368 0.75744 0.0
C2142 C 0.21219 0.90281 0.77203 0.0
C2143 C 0.22896 0.89439 0.77561 0.0
C2144 C 0.19672 0.89246 0.76812 0.0
C2145 C 0.19756 0.87337 0.76788 0.0
C2146 C 0.2146 0.86501 0.77059 0.0
C2147 C 0.23013 0.8754 0.7743 0.0
H2148 H 0.58107 0.41472 0.46084 0.0
H2149 H 0.60302 0.39107 0.5098 0.0
H2150 H 0.59745 0.4426 0.46668 0.0
H2151 H 0.61947 0.41954 0.51594 0.0
H2152 H 0.66042 0.46834 0.50666 0.0
H2153 H 0.64397 0.43957 0.50531 0.0
H2154 H 0.59609 0.46799 0.4869 0.0
H2155 H 0.61263 0.49663 0.48774 0.0
C2156 C 0.58944 0.41546 0.47292 0.0
C2157 C 0.59061 0.40063 0.48491 0.0
C2158 C 0.59873 0.43161 0.47638 0.0
C2159 C 0.60948 0.43359 0.49202 0.0
C2160 C 0.61126 0.41853 0.50377 0.0
C2161 C 0.6019 0.4022 0.50025 0.0
C2162 C 0.64626 0.46853 0.50268 0.0
C2163 C 0.63794 0.48485 0.49709 0.0
C2164 C 0.63682 0.45197 0.50191 0.0
C2165 C 0.6188 0.45133 0.49559 0.0
C2166 C 0.61011 0.46785 0.49134 0.0
C2167 C 0.61955 0.48436 0.492 0.0
H2168 H 0.86581 0.34024 0.75667 0.0
H2169 H 0.85775 0.33688 0.69863 0.0
H2170 H 0.8346 0.35179 0.7601 0.0
H2171 H 0.82691 0.34793 0.70215 0.0
H2172 H 0.76766 0.34313 0.71578 0.0
H2173 H 0.79897 0.33271 0.71736 0.0
H2174 H 0.81338 0.37981 0.7491 0.0
H2175 H 0.78187 0.39053 0.7474 0.0
C2176 C 0.85757 0.34226 0.74465 0.0
C2177 C 0.86431 0.3375 0.72738 0.0
C2178 C 0.83969 0.34877 0.74663 0.0
C2179 C 0.8282 0.35039 0.73142 0.0
C2180 C 0.83528 0.34646 0.71417 0.0
C2181 C 0.85306 0.34022 0.71217 0.0
C2182 C 0.77731 0.35113 0.72348 0.0
C2183 C 0.77217 0.36777 0.73134 0.0
C2184 C 0.79534 0.34519 0.72426 0.0
C2185 C 0.8087 0.35557 0.73313 0.0
C2186 C 0.80338 0.37153 0.74216 0.0
C2187 C 0.78532 0.37764 0.74118 0.0
H2188 H 0.63689 0.65431 0.23363 0.0
H2189 H 0.66691 0.69623 0.26148 0.0
H2190 H 0.66366 0.63464 0.23453 0.0
H2191 H 0.69333 0.6765 0.26317 0.0
H2192 H 0.74319 0.64812 0.23806 0.0
H2193 H 0.71597 0.66613 0.24351 0.0
H2194 H 0.68481 0.61685 0.25065 0.0
H2195 H 0.71193 0.59896 0.24449 0.0
C2196 C 0.64904 0.65909 0.24043 0.0
C2197 C 0.64986 0.67683 0.24735 0.0
C2198 C 0.66444 0.64783 0.24098 0.0
C2199 C 0.6809 0.65402 0.24869 0.0
C2200 C 0.68117 0.67138 0.25666 0.0
C2201 C 0.66594 0.68266 0.25586 0.0
C2202 C 0.73062 0.64117 0.24122 0.0
C2203 C 0.72973 0.62212 0.24077 0.0
C2204 C 0.71492 0.65149 0.24435 0.0
C2205 C 0.69797 0.64301 0.24735 0.0
C2206 C 0.69742 0.62392 0.24797 0.0
C2207 C 0.71305 0.61363 0.24463 0.0
H2208 H 0.51957 0.61937 0.99601 0.0
H2209 H 0.53564 0.66369 0.96112 0.0
H2210 H 0.51369 0.60059 0.96921 0.0
H2211 H 0.53045 0.6449 0.93455 0.0
H2212 H 0.53529 0.56611 0.9219 0.0
H2213 H 0.53289 0.58572 0.94807 0.0
H2214 H 0.5112 0.62848 0.91421 0.0
H2215 H 0.51409 0.60868 0.88752 0.0
C2216 C 0.52153 0.62522 0.98266 0.0
C2217 C 0.52829 0.64296 0.98076 0.0
C2218 C 0.51835 0.61441 0.96725 0.0
C2219 C 0.5219 0.62107 0.94961 0.0
C2220 C 0.52745 0.63925 0.94779 0.0
C2221 C 0.53057 0.65002 0.96313 0.0
C2222 C 0.52991 0.57966 0.9199 0.0
C2223 C 0.52503 0.58583 0.90246 0.0
C2224 C 0.52832 0.5909 0.93509 0.0
C2225 C 0.52174 0.60873 0.93343 0.0
C2226 C 0.51647 0.61487 0.91603 0.0
C2227 C 0.51808 0.60353 0.90071 0.0
H2228 H 0.59709 0.27315 0.21067 0.0
H2229 H 0.64608 0.27656 0.24264 0.0
H2230 H 0.61499 0.26657 0.18363 0.0
H2231 H 0.66412 0.27069 0.21553 0.0
H2232 H 0.69387 0.25189 0.16653 0.0
H2233 H 0.67376 0.25086 0.19269 0.0
H2234 H 0.63386 0.28205 0.16295 0.0
H2235 H 0.65388 0.28231 0.13643 0.0
C2236 C 0.61171 0.27223 0.21196 0.0
C2237 C 0.62016 0.27533 0.22882 0.0
C2238 C 0.62201 0.26866 0.19638 0.0
C2239 C 0.64109 0.26831 0.19718 0.0
C2240 C 0.64948 0.27059 0.21429 0.0
C2241 C 0.63913 0.27395 0.22993 0.0
C2242 C 0.68063 0.25823 0.16547 0.0
C2243 C 0.67547 0.26725 0.14945 0.0
C2244 C 0.66915 0.2578 0.18057 0.0
C2245 C 0.65224 0.26667 0.18021 0.0
C2246 C 0.64668 0.27492 0.16379 0.0
C2247 C 0.65814 0.2751 0.14853 0.0
H2248 H 0.97374 0.34433 0.46175 0.0
H2249 H 0.98932 0.39395 0.48892 0.0
H2250 H 0.97873 0.35861 0.43243 0.0
H2251 H 0.99443 0.40837 0.45917 0.0
H2252 H 0.00919 0.42406 0.39889 0.0
H2253 H 0.01235 0.40688 0.42745 0.0
H2254 H 0.95899 0.38402 0.4193 0.0
H2255 H 0.95574 0.40131 0.39127 0.0
C2256 C 0.97859 0.35822 0.46148 0.0
C2257 C 0.98086 0.3681 0.47769 0.0
C2258 C 0.98144 0.36639 0.44464 0.0
C2259 C 0.98671 0.38467 0.44348 0.0
C2260 C 0.99042 0.39422 0.45967 0.0
C2261 C 0.9875 0.38598 0.47668 0.0
C2262 C 0.99839 0.41496 0.40302 0.0
C2263 C 0.98229 0.41382 0.39278 0.0
C2264 C 1.00011 0.40534 0.41944 0.0
C2265 C 0.98592 0.39411 0.42561 0.0
C2266 C 0.97023 0.39241 0.41485 0.0
C2267 C 0.96837 0.40227 0.39876 0.0
H2268 H 0.8586 0.72809 0.63828 0.0
H2269 H 0.8172 0.75604 0.66885 0.0
H2270 H 0.87837 0.72836 0.665 0.0
H2271 H 0.83704 0.75714 0.69521 0.0
H2272 H 0.86574 0.73168 0.74473 0.0
H2273 H 0.84748 0.73738 0.7177 0.0
H2274 H 0.89645 0.74419 0.68603 0.0
H2275 H 0.91456 0.73774 0.71294 0.0
C2276 C 0.85395 0.73472 0.65056 0.0
C2277 C 0.83633 0.74187 0.65154 0.0
C2278 C 0.86526 0.73494 0.66593 0.0
C2279 C 0.85927 0.74256 0.6825 0.0
C2280 C 0.84201 0.75069 0.68296 0.0
C2281 C 0.83066 0.75021 0.66776 0.0
C2282 C 0.87256 0.73483 0.73209 0.0
C2283 C 0.89157 0.73421 0.73097 0.0
C2284 C 0.86211 0.7381 0.7165 0.0
C2285 C 0.87042 0.74105 0.69946 0.0
C2286 C 0.88949 0.74153 0.6987 0.0
C2287 C 0.8999 0.73803 0.71421 0.0
H2288 H 0.51643 0.4056 0.6261 0.0
H2289 H 0.53904 0.44831 0.59282 0.0
H2290 H 0.51385 0.38621 0.59907 0.0
H2291 H 0.53695 0.42911 0.56633 0.0
H2292 H 0.52432 0.39628 0.51763 0.0
H2293 H 0.51805 0.41479 0.54453 0.0
H2294 H 0.53334 0.3698 0.57899 0.0
H2295 H 0.53892 0.35129 0.55233 0.0
C2296 C 0.5208 0.41086 0.61308 0.0
C2297 C 0.52806 0.42848 0.61173 0.0
C2298 C 0.51937 0.39977 0.59757 0.0
C2299 C 0.52512 0.40607 0.58038 0.0
C2300 C 0.532 0.42382 0.57913 0.0
C2301 C 0.53342 0.43482 0.5945 0.0
C2302 C 0.52588 0.39023 0.53095 0.0
C2303 C 0.53235 0.37238 0.53278 0.0
C2304 C 0.52247 0.40088 0.54641 0.0
C2305 C 0.5255 0.39394 0.56404 0.0
C2306 C 0.53075 0.37567 0.56576 0.0
C2307 C 0.53409 0.36506 0.55037 0.0
H2308 H 0.82645 0.30853 0.8507 0.0
H2309 H 0.85014 0.258 0.86883 0.0
H2310 H 0.83946 0.30416 0.82085 0.0
H2311 H 0.86347 0.25363 0.83838 0.0
H2312 H 0.89766 0.26956 0.78396 0.0
H2313 H 0.88619 0.26837 0.8152 0.0
H2314 H 0.83261 0.28208 0.79587 0.0
H2315 H 0.84394 0.28341 0.76487 0.0
C2316 C 0.83459 0.2965 0.84837 0.0
C2317 C 0.83707 0.28352 0.86217 0.0
C2318 C 0.84196 0.29393 0.83114 0.0
C2319 C 0.85211 0.27832 0.82706 0.0
C2320 C 0.85556 0.26574 0.84108 0.0
C2321 C 0.84803 0.26828 0.85851 0.0
C2322 C 0.88333 0.27185 0.78632 0.0
C2323 C 0.87178 0.27685 0.77187 0.0
C2324 C 0.87678 0.27117 0.80425 0.0
C2325 C 0.85859 0.27553 0.80806 0.0
C2326 C 0.8468 0.27905 0.79344 0.0
C2327 C 0.85329 0.2797 0.77561 0.0
H2328 H 0.97286 0.66896 0.05371 0.0
H2329 H 0.9851 0.61857 0.02626 0.0
H2330 H 0.97825 0.65457 0.0829 0.0
H2331 H 0.99061 0.60404 0.05589 0.0
H2332 H 0.007 0.58797 0.11564 0.0
H2333 H 0.00977 0.60481 0.08686 0.0
H2334 H 0.95793 0.63021 0.09698 0.0
H2335 H 0.95504 0.61326 0.12526 0.0
C2336 C 0.97705 0.65485 0.05387 0.0
C2337 C 0.97826 0.64483 0.03764 0.0
C2338 C 0.98013 0.64662 0.07065 0.0
C2339 C 0.98458 0.62813 0.07171 0.0
C2340 C 0.98724 0.61835 0.05546 0.0
C2341 C 0.98408 0.62665 0.03851 0.0
C2342 C 0.99647 0.59754 0.11188 0.0
C2343 C 0.98088 0.59949 0.12276 0.0
C2344 C 0.99795 0.60697 0.09534 0.0
C2345 C 0.98407 0.61881 0.08967 0.0
C2346 C 0.96894 0.62132 0.10104 0.0
C2347 C 0.96729 0.61165 0.11726 0.0
H2348 H 0.64568 0.73711 0.27122 0.0
H2349 H 0.59612 0.73998 0.30231 0.0
H2350 H 0.66319 0.74322 0.29863 0.0
H2351 H 0.61348 0.74679 0.32965 0.0
H2352 H 0.65182 0.73125 0.37745 0.0
H2353 H 0.63214 0.73152 0.35066 0.0
H2354 H 0.67224 0.76312 0.32164 0.0
H2355 H 0.69202 0.76206 0.34807 0.0
C2356 C 0.63849 0.73964 0.2838 0.0
C2357 C 0.61952 0.73802 0.28457 0.0
C2358 C 0.64853 0.74315 0.29962 0.0
C2359 C 0.63982 0.74535 0.31657 0.0
C2360 C 0.62074 0.74477 0.31703 0.0
C2361 C 0.61075 0.74106 0.30128 0.0
C2362 C 0.65618 0.73857 0.36546 0.0
C2363 C 0.67348 0.74651 0.36481 0.0
C2364 C 0.64492 0.73875 0.35004 0.0
C2365 C 0.65067 0.7471 0.33373 0.0
C2366 C 0.6675 0.7561 0.33366 0.0
C2367 C 0.67879 0.75567 0.34892 0.0
H2368 H 0.88261 0.53661 0.6093 0.0
H2369 H 0.90491 0.48662 0.58815 0.0
H2370 H 0.91037 0.54156 0.62668 0.0
H2371 H 0.93255 0.49146 0.60571 0.0
H2372 H 0.98735 0.5201 0.621 0.0
H2373 H 0.95904 0.51145 0.60568 0.0
H2374 H 0.9283 0.53078 0.65175 0.0
H2375 H 0.9563 0.53958 0.66676 0.0
C2376 C 0.89325 0.52648 0.60862 0.0
C2377 C 0.89143 0.51123 0.59727 0.0
C2378 C 0.90923 0.52931 0.61861 0.0
C2379 C 0.92385 0.51696 0.61754 0.0
C2380 C 0.92176 0.5014 0.60667 0.0
C2381 C 0.90577 0.49855 0.59672 0.0
C2382 C 0.97455 0.52222 0.62793 0.0
C2383 C 0.97413 0.53068 0.64504 0.0
C2384 C 0.95829 0.51726 0.61917 0.0
C2385 C 0.94129 0.52065 0.62736 0.0
C2386 C 0.94104 0.52834 0.64481 0.0
C2387 C 0.95718 0.53329 0.65349 0.0
H2388 H 0.72029 0.70984 0.91897 0.0
H2389 H 0.73876 0.73871 0.87137 0.0
H2390 H 0.72504 0.68105 0.90357 0.0
H2391 H 0.74378 0.70943 0.85589 0.0
H2392 H 0.75926 0.64826 0.8404 0.0
H2393 H 0.76163 0.67654 0.85827 0.0
H2394 H 0.70607 0.66992 0.87563 0.0
H2395 H 0.7036 0.64225 0.85754 0.0
C2396 C 0.72571 0.71007 0.9053 0.0
C2397 C 0.72889 0.72666 0.89632 0.0
C2398 C 0.72843 0.6935 0.89649 0.0
C2399 C 0.73458 0.69296 0.87848 0.0
C2400 C 0.73908 0.70945 0.86983 0.0
C2401 C 0.73622 0.7262 0.87868 0.0
C2402 C 0.74775 0.65268 0.84842 0.0
C2403 C 0.73131 0.64294 0.84783 0.0
C2404 C 0.74903 0.66895 0.85842 0.0
C2405 C 0.73403 0.67544 0.86833 0.0
C2406 C 0.7179 0.66522 0.86825 0.0
C2407 C 0.7165 0.64933 0.85797 0.0
H2408 H 0.62421 0.45889 0.11601 0.0
H2409 H 0.61424 0.50937 0.08796 0.0
H2410 H 0.59613 0.46272 0.13308 0.0
H2411 H 0.58566 0.51307 0.10492 0.0
H2412 H 0.52528 0.48923 0.11992 0.0
H2413 H 0.5549 0.49411 0.10527 0.0
H2414 H 0.58178 0.48394 0.15634 0.0
H2415 H 0.55253 0.4792 0.17088 0.0
C2416 C 0.61619 0.47104 0.11382 0.0
C2417 C 0.62153 0.48392 0.10083 0.0
C2418 C 0.60007 0.47323 0.12357 0.0
C2419 C 0.58864 0.48819 0.12033 0.0
C2420 C 0.59418 0.5014 0.10767 0.0
C2421 C 0.61062 0.49939 0.09815 0.0
C2422 C 0.53749 0.4886 0.1281 0.0
C2423 C 0.53654 0.48358 0.14651 0.0
C2424 C 0.55445 0.49137 0.11972 0.0
C2425 C 0.57068 0.48912 0.12962 0.0
C2426 C 0.56955 0.48549 0.1483 0.0
C2427 C 0.55274 0.48281 0.15662 0.0
H2428 H 0.78173 0.26714 0.36713 0.0
H2429 H 0.77121 0.29938 0.41497 0.0
H2430 H 0.77959 0.2945 0.34838 0.0
H2431 H 0.76922 0.32668 0.39629 0.0
H2432 H 0.75887 0.37226 0.35376 0.0
H2433 H 0.75381 0.34426 0.3713 0.0
H2434 H 0.80114 0.32024 0.34644 0.0
H2435 H 0.80623 0.34778 0.32924 0.0
C2436 C 0.77842 0.27994 0.37359 0.0
C2437 C 0.77678 0.28108 0.39256 0.0
C2438 C 0.77739 0.29568 0.36287 0.0
C2439 C 0.77454 0.31286 0.37087 0.0
C2440 C 0.7714 0.31372 0.38967 0.0
C2441 C 0.77259 0.29804 0.40038 0.0
C2442 C 0.76821 0.36101 0.35215 0.0
C2443 C 0.78297 0.36237 0.34009 0.0
C2444 C 0.76528 0.34496 0.36213 0.0
C2445 C 0.7769 0.32987 0.36005 0.0
C2446 C 0.79166 0.33137 0.34809 0.0
C2447 C 0.79469 0.34735 0.33835 0.0
H2448 H 0.88725 0.48436 0.9042 0.0
H2449 H 0.91838 0.50815 0.94781 0.0
H2450 H 0.91443 0.48423 0.88503 0.0
H2451 H 0.94522 0.50866 0.92867 0.0
H2452 H 0.99373 0.48185 0.89959 0.0
H2453 H 0.9665 0.48748 0.91752 0.0
H2454 H 0.93691 0.50067 0.86856 0.0
H2455 H 0.96403 0.4945 0.85065 0.0
C2456 C 0.89976 0.48998 0.90952 0.0
C2457 C 0.90071 0.49609 0.92755 0.0
C2458 C 0.91539 0.48993 0.89855 0.0
C2459 C 0.93221 0.49619 0.90536 0.0
C2460 C 0.93273 0.50327 0.92307 0.0
C2461 C 0.91725 0.50312 0.93402 0.0
C2462 C 0.98154 0.48635 0.89271 0.0
C2463 C 0.98108 0.48768 0.87369 0.0
C2464 C 0.96584 0.48958 0.90298 0.0
C2465 C 0.94932 0.49439 0.89451 0.0
C2466 C 0.94919 0.49662 0.87555 0.0
C2467 C 0.96483 0.49326 0.86529 0.0
H2468 H 0.77639 0.71243 0.10344 0.0
H2469 H 0.77958 0.74648 0.1511 0.0
H2470 H 0.77311 0.68573 0.12249 0.0
H2471 H 0.77558 0.71969 0.17031 0.0
H2472 H 0.79717 0.6682 0.19721 0.0
H2473 H 0.79456 0.69515 0.17867 0.0
H2474 H 0.75661 0.66738 0.14352 0.0
H2475 H 0.75965 0.63986 0.16212 0.0
C2476 C 0.77595 0.7143 0.11803 0.0
C2477 C 0.7785 0.73165 0.12572 0.0
C2478 C 0.77395 0.6989 0.12899 0.0
C2479 C 0.77437 0.70038 0.14802 0.0
C2480 C 0.77562 0.71792 0.15571 0.0
C2481 C 0.7777 0.73336 0.1447 0.0
C2482 C 0.7882 0.66772 0.18555 0.0
C2483 C 0.77864 0.65175 0.18117 0.0
C2484 C 0.78655 0.68337 0.17498 0.0
C2485 C 0.77518 0.68369 0.15966 0.0
C2486 C 0.76558 0.66768 0.15517 0.0
C2487 C 0.7673 0.65187 0.16581 0.0
H2488 H 0.59162 0.54096 0.45045 0.0
H2489 H 0.62435 0.51414 0.40982 0.0
H2490 H 0.56521 0.53842 0.43122 0.0
H2491 H 0.59737 0.51117 0.3904 0.0
H2492 H 0.55132 0.53489 0.35351 0.0
H2493 H 0.57783 0.53007 0.37247 0.0
H2494 H 0.54296 0.51891 0.41831 0.0
H2495 H 0.51624 0.5244 0.3993 0.0
C2496 C 0.5932 0.53433 0.43741 0.0
C2497 C 0.61026 0.52788 0.43167 0.0
C2498 C 0.57787 0.53267 0.42641 0.0
C2499 C 0.57897 0.52445 0.40923 0.0
C2500 C 0.59599 0.5177 0.4035 0.0
C2501 C 0.61147 0.51936 0.41462 0.0
C2502 C 0.54923 0.53114 0.36758 0.0
C2503 C 0.53159 0.53031 0.37494 0.0
C2504 C 0.56453 0.52822 0.37846 0.0
C2505 C 0.56267 0.52436 0.39705 0.0
C2506 C 0.54496 0.52226 0.40413 0.0
C2507 C 0.5296 0.52522 0.39321 0.0
H2508 H 0.72994 0.37809 0.65502 0.0
H2509 H 0.77925 0.35725 0.67901 0.0
H2510 H 0.72626 0.34984 0.63815 0.0
H2511 H 0.7756 0.32897 0.66199 0.0
H2512 H 0.74642 0.27354 0.64675 0.0
H2513 H 0.75504 0.3021 0.66173 0.0
H2514 H 0.73937 0.33194 0.61373 0.0
H2515 H 0.73069 0.30372 0.59899 0.0
C2516 C 0.74018 0.36763 0.65645 0.0
C2517 C 0.75492 0.37006 0.66833 0.0
C2518 C 0.73809 0.35139 0.64674 0.0
C2519 C 0.75062 0.33704 0.64871 0.0
C2520 C 0.7656 0.33963 0.66027 0.0
C2521 C 0.76779 0.35596 0.66987 0.0
C2522 C 0.7452 0.28618 0.63931 0.0
C2523 C 0.73771 0.28633 0.62174 0.0
C2524 C 0.75011 0.30256 0.64788 0.0
C2525 C 0.74761 0.3194 0.63905 0.0
C2526 C 0.74109 0.31933 0.62112 0.0
C2527 C 0.73621 0.30307 0.61262 0.0
H2528 H 0.61189 0.88899 0.53359 0.0
H2529 H 0.57032 0.91885 0.50512 0.0
H2530 H 0.63125 0.91605 0.53348 0.0
H2531 H 0.58973 0.94553 0.50423 0.0
H2532 H 0.61711 0.99573 0.52963 0.0
H2533 H 0.5995 0.96824 0.5241 0.0
H2534 H 0.64918 0.93756 0.51798 0.0
H2535 H 0.66667 0.96496 0.52421 0.0
C2536 C 0.60712 0.90117 0.52685 0.0
C2537 C 0.58955 0.90183 0.5195 0.0
C2538 C 0.6182 0.91675 0.52675 0.0
C2539 C 0.61201 0.93324 0.51909 0.0
C2540 C 0.59484 0.93337 0.51074 0.0
C2541 C 0.58375 0.91796 0.51108 0.0
C2542 C 0.62426 0.98321 0.52668 0.0
C2543 C 0.6433 0.98257 0.52738 0.0
C2544 C 0.61416 0.96734 0.52351 0.0
C2545 C 0.62284 0.95045 0.52073 0.0
C2546 C 0.64194 0.95011 0.52046 0.0
C2547 C 0.652 0.96592 0.52383 0.0
H2548 H 0.16591 0.55245 0.48781 0.0
H2549 H 0.1172 0.51993 0.48589 0.0
H2550 H 0.14791 0.57935 0.49464 0.0
H2551 H 0.09901 0.54692 0.49201 0.0
H2552 H 0.06933 0.59581 0.51148 0.0
H2553 H 0.08964 0.56978 0.51193 0.0
H2554 H 0.12846 0.59983 0.4797 0.0
H2555 H 0.10827 0.62622 0.48003 0.0
C2556 C 0.15132 0.55101 0.48909 0.0
C2557 C 0.14298 0.53403 0.48634 0.0
C2558 C 0.14096 0.56652 0.49281 0.0
C2559 C 0.1219 0.56553 0.49367 0.0
C2560 C 0.11364 0.54831 0.49171 0.0
C2561 C 0.12406 0.53274 0.4882 0.0
C2562 C 0.08238 0.59697 0.50478 0.0
C2563 C 0.08719 0.61305 0.49566 0.0
C2564 C 0.09398 0.58193 0.50487 0.0
C2565 C 0.11064 0.58241 0.49556 0.0
C2566 C 0.11585 0.59889 0.48718 0.0
C2567 C 0.10429 0.61408 0.48733 0.0
H2568 H 0.67062 0.81527 0.75413 0.0
H2569 H 0.63865 0.85992 0.73367 0.0
H2570 H 0.69741 0.8345 0.75485 0.0
H2571 H 0.66576 0.87923 0.73375 0.0
H2572 H 0.71553 0.91335 0.74422 0.0
H2573 H 0.68868 0.89499 0.75023 0.0
H2574 H 0.71811 0.84689 0.73389 0.0
H2575 H 0.74511 0.86525 0.72842 0.0
C2576 C 0.6693 0.8293 0.74988 0.0
C2577 C 0.65251 0.83604 0.74372 0.0
C2578 C 0.68475 0.84032 0.75015 0.0
C2579 C 0.68398 0.85839 0.74405 0.0
C2580 C 0.66694 0.86542 0.73869 0.0
C2581 C 0.65135 0.85438 0.73861 0.0
C2582 C 0.71638 0.89879 0.74226 0.0
C2583 C 0.73251 0.89079 0.73582 0.0
C2584 C 0.70088 0.88827 0.74553 0.0
C2585 C 0.70101 0.86943 0.74235 0.0
C2586 C 0.71744 0.86131 0.73672 0.0
C2587 C 0.73301 0.87184 0.73358 0.0
H2588 H 0.44566 0.41793 0.97667 0.0
H2589 H 0.40284 0.3846 0.99896 0.0
H2590 H 0.42666 0.44453 0.9792 0.0
H2591 H 0.38364 0.41173 1.00193 0.0
H2592 H 0.34908 0.45955 0.97813 0.0
H2593 H 0.36729 0.43249 0.98291 0.0
H2594 H 0.41276 0.46604 0.99879 0.0
H2595 H 0.39455 0.49331 0.99336 0.0
C2596 C 0.43218 0.41625 0.98231 0.0
C2597 C 0.42577 0.39898 0.98748 0.0
C2598 C 0.4213 0.43169 0.98397 0.0
C2599 C 0.40359 0.43046 0.99091 0.0
C2600 C 0.39718 0.41322 0.9964 0.0
C2601 C 0.40817 0.39765 0.99474 0.0
C2602 C 0.36288 0.46121 0.98294 0.0
C2603 C 0.37041 0.47867 0.98512 0.0
C2604 C 0.37333 0.44559 0.98581 0.0
C2605 C 0.39164 0.44696 0.99098 0.0
C2606 C 0.39881 0.46443 0.99442 0.0
C2607 C 0.38833 0.48011 0.99151 0.0
H2608 H 0.37645 0.65373 0.74699 0.0
H2609 H 0.34265 0.6981 0.72879 0.0
H2610 H 0.34941 0.63432 0.74914 0.0
H2611 H 0.31614 0.67891 0.73043 0.0
H2612 H 0.26769 0.64513 0.74205 0.0
H2613 H 0.29481 0.66322 0.74866 0.0
H2614 H 0.32867 0.6194 0.72921 0.0
H2615 H 0.30182 0.60129 0.7233 0.0
C2616 C 0.36332 0.65937 0.74353 0.0
C2617 C 0.36183 0.67745 0.73758 0.0
C2618 C 0.34779 0.64825 0.7447 0.0
C2619 C 0.33045 0.65499 0.73999 0.0
C2620 C 0.32907 0.67322 0.73452 0.0
C2621 C 0.34445 0.68423 0.73337 0.0
C2622 C 0.28094 0.63924 0.73962 0.0
C2623 C 0.28252 0.62184 0.73194 0.0
C2624 C 0.29653 0.64966 0.74323 0.0
C2625 C 0.31405 0.64294 0.7392 0.0
C2626 C 0.31554 0.62508 0.73263 0.0
C2627 C 0.30003 0.6147 0.72908 0.0
H2628 H 0.8512 0.05449 0.03933 0.0
H2629 H 0.89482 0.02038 0.02005 0.0
H2630 H 0.86933 0.08136 0.03353 0.0
H2631 H 0.91293 0.04753 0.0136 0.0
H2632 H 0.94786 0.09519 0.03409 0.0
H2633 H 0.92862 0.06868 0.03227 0.0
H2634 H 0.88422 0.10212 0.01344 0.0
H2635 H 0.90367 0.12913 0.01574 0.0
C2636 C 0.86457 0.05272 0.03345 0.0
C2637 C 0.87165 0.03521 0.03039 0.0
C2638 C 0.87495 0.06824 0.02997 0.0
C2639 C 0.89274 0.06674 0.0233 0.0
C2640 C 0.8994 0.04923 0.01909 0.0
C2641 C 0.88897 0.03364 0.0226 0.0
C2642 C 0.93402 0.09702 0.02946 0.0
C2643 C 0.92729 0.11442 0.02524 0.0
C2644 C 0.923 0.08165 0.02819 0.0
C2645 C 0.90482 0.0831 0.02263 0.0
C2646 C 0.89812 0.10047 0.01794 0.0
C2647 C 0.90925 0.11597 0.01921 0.0
H2648 H 0.7109 0.09977 0.78608 0.0
H2649 H 0.74506 0.14471 0.77014 0.0
H2650 H 0.68404 0.11805 0.78069 0.0
H2651 H 0.71797 0.16297 0.76405 0.0
H2652 H 0.67039 0.1963 0.78698 0.0
H2653 H 0.69682 0.17724 0.78376 0.0
H2654 H 0.66342 0.13439 0.7615 0.0
H2655 H 0.63643 0.15366 0.76521 0.0
C2656 C 0.71269 0.11346 0.78098 0.0
C2657 C 0.73019 0.12088 0.77885 0.0
C2658 C 0.69719 0.12393 0.77774 0.0
C2659 C 0.69873 0.14213 0.77221 0.0
C2660 C 0.71625 0.14911 0.7687 0.0
C2661 C 0.73181 0.13861 0.77201 0.0
C2662 C 0.66854 0.18285 0.78129 0.0
C2663 C 0.65115 0.17646 0.77655 0.0
C2664 C 0.68387 0.17194 0.77922 0.0
C2665 C 0.68241 0.15424 0.77227 0.0
C2666 C 0.66507 0.14792 0.76704 0.0
C2667 C 0.64959 0.15895 0.76911 0.0
H2668 H 0.88302 0.87375 0.2965 0.0
H2669 H 0.86453 0.8371 0.25455 0.0
H2670 H 0.85384 0.88922 0.29581 0.0
H2671 H 0.8353 0.85273 0.25376 0.0
H2672 H 0.77865 0.86998 0.27869 0.0
H2673 H 0.80831 0.85589 0.27306 0.0
H2674 H 0.83409 0.90835 0.27827 0.0
H2675 H 0.80472 0.92221 0.28419 0.0
C2676 C 0.87288 0.86919 0.28686 0.0
C2677 C 0.87621 0.85409 0.27565 0.0
C2678 C 0.85608 0.87811 0.28643 0.0
C2679 C 0.84207 0.8722 0.27478 0.0
C2680 C 0.84563 0.85751 0.26308 0.0
C2681 C 0.86249 0.84863 0.26345 0.0
C2682 C 0.79061 0.87852 0.27816 0.0
C2683 C 0.78933 0.89719 0.28202 0.0
C2684 C 0.80765 0.87046 0.27498 0.0
C2685 C 0.82371 0.88093 0.27554 0.0
C2686 C 0.82215 0.89977 0.27819 0.0
C2687 C 0.80524 0.90775 0.28143 0.0
H2688 H 0.49636 0.40446 0.12733 0.0
H2689 H 0.47983 0.44827 0.09196 0.0
H2690 H 0.498 0.3841 0.10099 0.0
H2691 H 0.48091 0.42811 0.0661 0.0
H2692 H 0.49173 0.39228 0.01894 0.0
H2693 H 0.49868 0.41114 0.04543 0.0
H2694 H 0.47784 0.36911 0.08072 0.0
H2695 H 0.47163 0.35019 0.0545 0.0
C2696 C 0.49314 0.40976 0.11399 0.0
C2697 C 0.48785 0.42798 0.11185 0.0
C2698 C 0.49402 0.3981 0.09887 0.0
C2699 C 0.48962 0.40441 0.08129 0.0
C2700 C 0.48476 0.42275 0.07924 0.0
C2701 C 0.48393 0.43432 0.09424 0.0
C2702 C 0.48906 0.38693 0.03238 0.0
C2703 C 0.48092 0.36981 0.03454 0.0
C2704 C 0.49286 0.3978 0.0476 0.0
C2705 C 0.48855 0.39182 0.06532 0.0
C2706 C 0.48149 0.37422 0.06742 0.0
C2707 C 0.47777 0.36338 0.05228 0.0
H2708 H 0.35858 0.74965 0.87633 0.0
H2709 H 0.31626 0.72715 0.84247 0.0
H2710 H 0.37815 0.75256 0.8495 0.0
H2711 H 0.33565 0.72954 0.81618 0.0
H2712 H 0.36868 0.74239 0.76791 0.0
H2713 H 0.35004 0.74863 0.79469 0.0
H2714 H 0.39481 0.73331 0.82941 0.0
H2715 H 0.41347 0.72781 0.80285 0.0
C2716 C 0.35344 0.74539 0.86323 0.0
C2717 C 0.33588 0.73806 0.86165 0.0
C2718 C 0.36464 0.74701 0.84783 0.0
C2719 C 0.35851 0.74136 0.83054 0.0
C2720 C 0.34081 0.73442 0.82907 0.0
C2721 C 0.3297 0.73283 0.84432 0.0
C2722 C 0.37465 0.74083 0.78126 0.0
C2723 C 0.39249 0.73436 0.78319 0.0
C2724 C 0.36393 0.74422 0.79666 0.0
C2725 C 0.37076 0.74114 0.81432 0.0
C2726 C 0.38902 0.73593 0.81615 0.0
C2727 C 0.39972 0.73263 0.80082 0.0
H2728 H 0.01283 0.60887 0.62846 0.0
H2729 H 0.0318 0.56544 0.59383 0.0
H2730 H 0.01052 0.62879 0.60181 0.0
H2731 H 0.02999 0.58515 0.56771 0.0
H2732 H 0.0177 0.61927 0.51998 0.0
H2733 H 0.01118 0.60084 0.54684 0.0
H2734 H 0.03034 0.64434 0.58131 0.0
H2735 H 0.03616 0.66284 0.55468 0.0
C2736 C 0.01645 0.60356 0.61522 0.0
C2737 C 0.02261 0.58558 0.61337 0.0
C2738 C 0.01517 0.61496 0.59994 0.0
C2739 C 0.01999 0.60861 0.58249 0.0
C2740 C 0.02577 0.59051 0.58074 0.0
C2741 C 0.02703 0.57921 0.59589 0.0
C2742 C 0.02007 0.62504 0.53331 0.0
C2743 C 0.02767 0.64244 0.53513 0.0
C2744 C 0.01651 0.61442 0.54874 0.0
C2745 C 0.02054 0.62094 0.56633 0.0
C2746 C 0.02695 0.63883 0.5681 0.0
C2747 C 0.03043 0.64942 0.55273 0.0
H2748 H 0.10042 0.28724 0.30221 0.0
H2749 H 0.14449 0.26936 0.26792 0.0
H2750 H 0.11885 0.28198 0.32899 0.0
H2751 H 0.16289 0.26341 0.29496 0.0
H2752 H 0.19759 0.28473 0.34221 0.0
H2753 H 0.17813 0.28252 0.31592 0.0
H2754 H 0.13453 0.26256 0.34974 0.0
H2755 H 0.15419 0.26526 0.37654 0.0
C2756 C 0.11395 0.28177 0.30038 0.0
C2757 C 0.12106 0.27899 0.28284 0.0
C2758 C 0.12451 0.2786 0.31585 0.0
C2759 C 0.14251 0.27251 0.31425 0.0
C2760 C 0.14921 0.26849 0.29673 0.0
C2761 C 0.13861 0.27172 0.28119 0.0
C2762 C 0.18388 0.27977 0.34418 0.0
C2763 C 0.17744 0.27532 0.36163 0.0
C2764 C 0.17273 0.27829 0.32893 0.0
C2765 C 0.15471 0.27224 0.33054 0.0
C2766 C 0.14829 0.26741 0.34796 0.0
C2767 C 0.15955 0.26892 0.36334 0.0
H2768 H 0.48533 0.61823 0.48839 0.0
H2769 H 0.48555 0.67018 0.46107 0.0
H2770 H 0.48913 0.60296 0.45892 0.0
H2771 H 0.48898 0.65497 0.43195 0.0
H2772 H 0.45982 0.61803 0.3882 0.0
H2773 H 0.46425 0.63433 0.41675 0.0
H2774 H 0.51069 0.60074 0.42893 0.0
H2775 H 0.50654 0.58464 0.39992 0.0
C2776 C 0.48667 0.6264 0.47623 0.0
C2777 C 0.48491 0.64542 0.4771 0.0
C2778 C 0.48883 0.61767 0.45936 0.0
C2779 C 0.4891 0.6278 0.44313 0.0
C2780 C 0.48859 0.64681 0.4442 0.0
C2781 C 0.48664 0.6555 0.46094 0.0
C2782 C 0.47126 0.61443 0.39673 0.0
C2783 C 0.48295 0.60022 0.39172 0.0
C2784 C 0.47378 0.62372 0.4131 0.0
C2785 C 0.48778 0.61875 0.42509 0.0
C2786 C 0.49977 0.6048 0.41995 0.0
C2787 C 0.49751 0.59577 0.40328 0.0
H2788 H 0.15365 0.74738 0.13628 0.0
H2789 H 0.19762 0.72962 0.17082 0.0
H2790 H 0.13376 0.7492 0.16295 0.0
H2791 H 0.17793 0.73087 0.19699 0.0
H2792 H 0.14306 0.74148 0.24479 0.0
H2793 H 0.16157 0.74865 0.21813 0.0
H2794 H 0.11875 0.72896 0.18314 0.0
H2795 H 0.10019 0.72253 0.20952 0.0
C2796 C 0.15909 0.74394 0.14951 0.0
C2797 C 0.1772 0.73822 0.15132 0.0
C2798 C 0.1477 0.74492 0.16482 0.0
C2799 C 0.15418 0.7402 0.18225 0.0
C2800 C 0.17244 0.73497 0.18397 0.0
C2801 C 0.18374 0.73403 0.1688 0.0
C2802 C 0.13747 0.73911 0.23139 0.0
C2803 C 0.12024 0.73121 0.22934 0.0
C2804 C 0.14814 0.74305 0.21607 0.0
C2805 C 0.14183 0.73912 0.19837 0.0
C2806 C 0.12411 0.73232 0.19641 0.0
C2807 C 0.11348 0.72847 0.21165 0.0
H2808 H 0.01051 0.37289 0.98551 0.0
H2809 H 0.05195 0.41448 0.9864 0.0
H2810 H 1.00273 0.38154 0.95422 0.0
H2811 H 0.04441 0.42271 0.95531 0.0
H2812 H 0.04278 0.41679 0.89394 0.0
H2813 H 0.04776 0.40534 0.92466 0.0
H2814 H 0.99055 0.41039 0.93606 0.0
H2815 H 0.98549 0.42215 0.90533 0.0
C2816 C 0.01779 0.384 0.97917 0.0
C2817 C 0.03187 0.39296 0.98854 0.0
C2818 C 0.01337 0.38889 0.96124 0.0
C2819 C 0.02319 0.40258 0.95222 0.0
C2820 C 0.03682 0.41189 0.96179 0.0
C2821 C 0.041 0.40726 0.97972 0.0
C2822 C 0.03116 0.4151 0.9028 0.0
C2823 C 0.01373 0.42051 0.89714 0.0
C2824 C 0.03406 0.40869 0.92048 0.0
C2825 C 0.01958 0.40722 0.93284 0.0
C2826 C 1.00196 0.4114 0.92684 0.0
C2827 C 0.99909 0.41812 0.90922 0.0
H2828 H 0.42153 0.2856 0.71003 0.0
H2829 H 0.36997 0.2763 0.73632 0.0
H2830 H 0.4074 0.2814 0.68048 0.0
H2831 H 0.3557 0.27203 0.70641 0.0
H2832 H 0.33882 0.25719 0.6471 0.0
H2833 H 0.35493 0.25357 0.67611 0.0
H2834 H 0.38541 0.30243 0.66505 0.0
H2835 H 0.36926 0.30615 0.63641 0.0
C2836 C 0.4072 0.28229 0.70953 0.0
C2837 C 0.39683 0.28151 0.72556 0.0
C2838 C 0.3991 0.27994 0.69255 0.0
C2839 C 0.38038 0.2767 0.69106 0.0
C2840 C 0.37018 0.27449 0.70712 0.0
C2841 C 0.37834 0.2769 0.72425 0.0
C2842 C 0.34927 0.26689 0.6507 0.0
C2843 C 0.35287 0.28191 0.6394 0.0
C2844 C 0.35833 0.26493 0.6674 0.0
C2845 C 0.37143 0.27771 0.6729 0.0
C2846 C 0.37554 0.29223 0.66117 0.0
C2847 C 0.36628 0.29437 0.64473 0.0
H2848 H 0.09632 0.50657 0.44664 0.0
H2849 H 0.1268 0.4807 0.40384 0.0
H2850 H 0.06949 0.50726 0.42742 0.0
H2851 H 0.09964 0.48056 0.38467 0.0
H2852 H 0.05043 0.48911 0.34989 0.0
H2853 H 0.07758 0.49595 0.36748 0.0
H2854 H 0.04743 0.48697 0.41705 0.0
H2855 H 0.02011 0.48087 0.39933 0.0
C2856 C 0.09729 0.50115 0.43298 0.0
C2857 C 0.11364 0.49351 0.42676 0.0
C2858 C 0.08182 0.50138 0.422 0.0
C2859 C 0.08213 0.49366 0.40453 0.0
C2860 C 0.09881 0.4868 0.39796 0.0
C2861 C 0.11444 0.48684 0.40893 0.0
C2862 C 0.04953 0.48898 0.36457 0.0
C2863 C 0.0331 0.48444 0.37322 0.0
C2864 C 0.06519 0.49271 0.37468 0.0
C2865 C 0.06494 0.49178 0.39376 0.0
C2866 C 0.04823 0.48806 0.40241 0.0
C2867 C 0.03248 0.48455 0.39227 0.0
H2868 H 0.2898 0.30285 0.09544 0.0
H2869 H 0.27571 0.275 0.1451 0.0
H2870 H 0.28447 0.33197 0.11004 0.0
H2871 H 0.27018 0.30458 0.15981 0.0
H2872 H 0.25387 0.36504 0.17535 0.0
H2873 H 0.25121 0.33632 0.15827 0.0
H2874 H 0.30456 0.34514 0.1357 0.0
H2875 H 0.30734 0.37328 0.15297 0.0
C2876 C 0.28518 0.30291 0.10941 0.0
C2877 C 0.28344 0.28656 0.11918 0.0
C2878 C 0.28213 0.31966 0.11776 0.0
C2879 C 0.27715 0.3206 0.13612 0.0
C2880 C 0.27396 0.30425 0.1456 0.0
C2881 C 0.27711 0.28733 0.13719 0.0
C2882 C 0.26476 0.36101 0.16633 0.0
C2883 C 0.28071 0.3715 0.16523 0.0
C2884 C 0.26335 0.34449 0.15677 0.0
C2885 C 0.27768 0.33847 0.14565 0.0
C2886 C 0.29322 0.34946 0.14402 0.0
C2887 C 0.29479 0.36562 0.15384 0.0
H2888 H 0.41708 0.50304 0.94594 0.0
H2889 H 0.38701 0.5324 0.90513 0.0
H2890 H 0.44341 0.50191 0.92605 0.0
H2891 H 0.41369 0.53206 0.88534 0.0
H2892 H 0.46182 0.52328 0.84921 0.0
H2893 H 0.43474 0.51653 0.86694 0.0
H2894 H 0.46604 0.52194 0.91634 0.0
H2895 H 0.49323 0.52799 0.89848 0.0
C2896 C 0.41607 0.5091 0.93256 0.0
C2897 C 0.40001 0.51786 0.9271 0.0
C2898 C 0.43126 0.50862 0.92121 0.0
C2899 C 0.43095 0.5172 0.90415 0.0
C2900 C 0.41449 0.52516 0.89829 0.0
C2901 C 0.39914 0.52538 0.90961 0.0
C2902 C 0.46298 0.52263 0.86387 0.0
C2903 C 0.47969 0.52618 0.87244 0.0
C2904 C 0.44738 0.51895 0.87406 0.0
C2905 C 0.44799 0.51891 0.89315 0.0
C2906 C 0.46496 0.52161 0.90169 0.0
C2907 C 0.48063 0.52509 0.89145 0.0
H2908 H 0.24159 0.74499 0.64376 0.0
H2909 H 0.22565 0.71043 0.59912 0.0
H2910 H 0.24714 0.71804 0.66242 0.0
H2911 H 0.23052 0.68372 0.61778 0.0
H2912 H 0.24641 0.63644 0.65395 0.0
H2913 H 0.2496 0.6632 0.6343 0.0
H2914 H 0.22749 0.69697 0.67691 0.0
H2915 H 0.22479 0.67073 0.69638 0.0
C2916 C 0.23959 0.73167 0.63782 0.0
C2917 C 0.23295 0.72991 0.62002 0.0
C2918 C 0.24258 0.71619 0.64856 0.0
C2919 C 0.23897 0.69861 0.64175 0.0
C2920 C 0.23356 0.69691 0.62353 0.0
C2921 C 0.23062 0.71233 0.61283 0.0
C2922 C 0.24238 0.64962 0.65909 0.0
C2923 C 0.23524 0.65134 0.67671 0.0
C2924 C 0.24417 0.66498 0.64785 0.0
C2925 C 0.23889 0.68237 0.654 0.0
C2926 C 0.23209 0.68399 0.67174 0.0
C2927 C 0.23032 0.66876 0.68289 0.0
H2928 H 0.0483 0.52075 0.16347 0.0
H2929 H 0.01813 0.534 0.11502 0.0
H2930 H 0.07527 0.51489 0.14527 0.0
H2931 H 0.04526 0.52895 0.09677 0.0
H2932 H 0.12486 0.53197 0.11039 0.0
H2933 H 0.09769 0.53115 0.12951 0.0
H2934 H 0.06681 0.5094 0.0845 0.0
H2935 H 0.09365 0.51113 0.0654 0.0
C2936 C 0.04738 0.52217 0.14885 0.0
C2937 C 0.03106 0.52783 0.14068 0.0
C2938 C 0.06294 0.51903 0.13841 0.0
C2939 C 0.0627 0.52168 0.1195 0.0
C2940 C 0.04606 0.52651 0.11124 0.0
C2941 C 0.03041 0.52942 0.1217 0.0
C2942 C 0.11231 0.52675 0.10476 0.0
C2943 C 0.11133 0.52178 0.0864 0.0
C2944 C 0.09668 0.52623 0.1157 0.0
C2945 C 0.07982 0.52044 0.10854 0.0
C2946 C 0.07929 0.51444 0.09042 0.0
C2947 C 0.09476 0.51527 0.07949 0.0
H2948 H 0.22513 0.30263 0.9121 0.0
H2949 H 0.24279 0.26797 0.8682 0.0
H2950 H 0.23073 0.32929 0.89361 0.0
H2951 H 0.24909 0.2949 0.84972 0.0
H2952 H 0.22801 0.34236 0.81495 0.0
H2953 H 0.23022 0.31603 0.83436 0.0
H2954 H 0.25037 0.34979 0.87797 0.0
H2955 H 0.24765 0.37663 0.85836 0.0
C2956 C 0.23063 0.3007 0.89859 0.0
C2957 C 0.23324 0.2831 0.89153 0.0
C2958 C 0.23399 0.31609 0.888 0.0
C2959 C 0.24014 0.31437 0.87002 0.0
C2960 C 0.24399 0.29677 0.86339 0.0
C2961 C 0.24056 0.2813 0.87402 0.0
C2962 C 0.23302 0.34429 0.82864 0.0
C2963 C 0.23748 0.36174 0.83512 0.0
C2964 C 0.23451 0.32903 0.83977 0.0
C2965 C 0.24057 0.33062 0.85779 0.0
C2966 C 0.24549 0.34803 0.86421 0.0
C2967 C 0.24398 0.36343 0.85299 0.0
H2968 H 0.3894 0.4828 0.6089 0.0
H2969 H 0.41992 0.51137 0.56789 0.0
H2970 H 0.41612 0.48277 0.62867 0.0
H2971 H 0.4463 0.51216 0.58775 0.0
H2972 H 0.4958 0.48565 0.61549 0.0
H2973 H 0.46868 0.49199 0.59759 0.0
H2974 H 0.43747 0.4979 0.64697 0.0
H2975 H 0.46447 0.49083 0.66471 0.0
C2976 C 0.40165 0.48958 0.60437 0.0
C2977 C 0.40262 0.49696 0.58684 0.0
C2978 C 0.41703 0.48959 0.61568 0.0
C2979 C 0.43363 0.49722 0.60976 0.0
C2980 C 0.43405 0.50568 0.59265 0.0
C2981 C 0.41883 0.5054 0.58131 0.0
C2982 C 0.48324 0.48872 0.6225 0.0
C2983 C 0.4823 0.48768 0.6415 0.0
C2984 C 0.4676 0.49237 0.61224 0.0
C2985 C 0.45066 0.4953 0.62076 0.0
C2986 C 0.45007 0.4953 0.63985 0.0
C2987 C 0.46563 0.49144 0.65006 0.0
H2988 H 0.25657 0.73541 0.38438 0.0
H2989 H 0.30987 0.712 0.39121 0.0
H2990 H 0.24597 0.70682 0.37083 0.0
H2991 H 0.29981 0.6842 0.37711 0.0
H2992 H 0.27778 0.63056 0.36229 0.0
H2993 H 0.28334 0.65784 0.38022 0.0
H2994 H 0.24728 0.6882 0.34518 0.0
H2995 H 0.24094 0.66074 0.32807 0.0
C2996 C 0.26603 0.72424 0.38289 0.0
C2997 C 0.28401 0.72598 0.38901 0.0
C2998 C 0.26001 0.70783 0.37508 0.0
C2999 C 0.27192 0.69291 0.373 0.0
C3000 C 0.28996 0.69496 0.37894 0.0
C3001 C 0.29583 0.71112 0.38691 0.0
C3002 C 0.27075 0.64298 0.35868 0.0
C3003 C 0.25903 0.64342 0.34365 0.0
C3004 C 0.2741 0.65876 0.36882 0.0
C3005 C 0.26613 0.67553 0.36397 0.0
C3006 C 0.25364 0.67567 0.34951 0.0
C3007 C 0.25004 0.65982 0.33959 0.0
H3008 H 0.39905 0.01878 0.47876 0.0
H3009 H 0.35032 0.0504 0.48638 0.0
H3010 H 0.41739 0.04571 0.48489 0.0
H3011 H 0.36852 0.07716 0.49321 0.0
H3012 H 0.40612 0.12561 0.47887 0.0
H3013 H 0.38646 0.09881 0.47808 0.0
H3014 H 0.42806 0.06756 0.50532 0.0
H3015 H 0.44777 0.09406 0.50534 0.0
C3016 C 0.39226 0.03135 0.48229 0.0
C3017 C 0.37324 0.03243 0.48203 0.0
C3018 C 0.40277 0.04688 0.48581 0.0
C3019 C 0.39451 0.06384 0.48938 0.0
C3020 C 0.37544 0.06456 0.49009 0.0
C3021 C 0.36498 0.04912 0.48637 0.0
C3022 C 0.41086 0.11309 0.48497 0.0
C3023 C 0.42852 0.11193 0.49204 0.0
C3024 C 0.39961 0.09766 0.48455 0.0
C3025 C 0.40569 0.08078 0.49142 0.0
C3026 C 0.42301 0.08006 0.49943 0.0
C3027 C 0.43428 0.09535 0.49961 0.0
H3028 H 0.94249 0.41644 0.55071 0.0
H3029 H 0.90908 0.38793 0.51181 0.0
H3030 H 0.92372 0.44321 0.54759 0.0
H3031 H 0.89027 0.41524 0.50827 0.0
H3032 H 0.84929 0.46028 0.52626 0.0
H3033 H 0.86851 0.43357 0.5239 0.0
H3034 H 0.91612 0.46762 0.52805 0.0
H3035 H 0.89676 0.49439 0.53111 0.0
C3036 C 0.93114 0.41589 0.54137 0.0
C3037 C 0.92732 0.39995 0.53152 0.0
C3038 C 0.92044 0.43142 0.53941 0.0
C3039 C 0.90557 0.43163 0.52746 0.0
C3040 C 0.90157 0.41561 0.51767 0.0
C3041 C 0.91232 0.39993 0.5197 0.0
C3042 C 0.86388 0.46216 0.52637 0.0
C3043 C 0.87145 0.47953 0.52913 0.0
C3044 C 0.87494 0.44676 0.52492 0.0
C3045 C 0.89392 0.44828 0.52611 0.0
C3046 C 0.90154 0.46583 0.52753 0.0
C3047 C 0.89045 0.48126 0.52906 0.0
H3048 H 0.35483 0.17811 0.31366 0.0
H3049 H 0.36419 0.17328 0.25594 0.0
H3050 H 0.32439 0.16611 0.30985 0.0
H3051 H 0.33332 0.16078 0.2522 0.0
H3052 H 0.2807 0.12129 0.26635 0.0
H3053 H 0.31209 0.13238 0.26424 0.0
H3054 H 0.29677 0.181 0.29311 0.0
H3055 H 0.26563 0.1702 0.29512 0.0
C3056 C 0.3505 0.17423 0.30014 0.0
C3057 C 0.36196 0.17685 0.28508 0.0
C3058 C 0.33297 0.16743 0.29796 0.0
C3059 C 0.32633 0.16286 0.28069 0.0
C3060 C 0.33808 0.1643 0.26567 0.0
C3061 C 0.35576 0.17135 0.26783 0.0
C3062 C 0.28392 0.13457 0.27182 0.0
C3063 C 0.27061 0.14474 0.28111 0.0
C3064 C 0.30191 0.14088 0.27061 0.0
C3065 C 0.30693 0.1574 0.27879 0.0
C3066 C 0.29336 0.16809 0.28691 0.0
C3067 C 0.27545 0.1619 0.28798 0.0
H3068 H 0.56382 0.59423 0.0394 0.0
H3069 H 0.60594 0.6269 0.01489 0.0
H3070 H 0.58283 0.56761 0.03728 0.0
H3071 H 0.6251 0.59973 0.01226 0.0
H3072 H 0.66069 0.55322 0.03651 0.0
H3073 H 0.64208 0.57988 0.03135 0.0
H3074 H 0.59638 0.54536 0.01848 0.0
H3075 H 0.61502 0.51847 0.02437 0.0
C3076 C 0.57713 0.59574 0.03334 0.0
C3077 C 0.58337 0.61285 0.02745 0.0
C3078 C 0.58802 0.58029 0.03192 0.0
C3079 C 0.60554 0.58133 0.02448 0.0
C3080 C 0.61173 0.59839 0.01821 0.0
C3081 C 0.60075 0.61398 0.01967 0.0
C3082 C 0.64673 0.55124 0.03233 0.0
C3083 C 0.63929 0.53364 0.03114 0.0
C3084 C 0.63605 0.56663 0.02921 0.0
C3085 C 0.61758 0.56492 0.02474 0.0
C3086 C 0.61045 0.54726 0.02231 0.0
C3087 C 0.62117 0.5318 0.0255 0.0
H3088 H 0.74738 0.34294 0.28041 0.0
H3089 H 0.72861 0.39776 0.27123 0.0
H3090 H 0.71724 0.33142 0.27378 0.0
H3091 H 0.69821 0.38611 0.26428 0.0
H3092 H 0.64308 0.35661 0.2819 0.0
H3093 H 0.67272 0.37196 0.28101 0.0
H3094 H 0.69489 0.32688 0.25066 0.0
H3095 H 0.66567 0.31153 0.25211 0.0
C3096 C 0.73691 0.35253 0.27658 0.0
C3097 C 0.74049 0.37128 0.27638 0.0
C3098 C 0.71955 0.34591 0.27268 0.0
C3099 C 0.70518 0.35781 0.26848 0.0
C3100 C 0.70888 0.37656 0.26761 0.0
C3101 C 0.72637 0.38321 0.27141 0.0
C3102 C 0.65418 0.35033 0.27459 0.0
C3103 C 0.65215 0.33286 0.26718 0.0
C3104 C 0.67119 0.35906 0.2741 0.0
C3105 C 0.68636 0.35048 0.2661 0.0
C3106 C 0.68372 0.3337 0.25736 0.0
C3107 C 0.66691 0.32496 0.25804 0.0
H3108 H 0.11012 0.88478 0.97622 0.0
H3109 H 0.08719 0.90785 0.02506 0.0
H3110 H 0.12835 0.91212 0.97201 0.0
H3111 H 0.10557 0.93507 0.02095 0.0
H3112 H 0.12242 0.98929 0.99198 0.0
H3113 H 0.10658 0.96126 1.00052 0.0
H3114 H 0.15324 0.92983 0.98396 0.0
H3115 H 0.16882 0.95759 0.97526 0.0
C3116 C 0.10923 0.8955 0.98627 0.0
C3117 C 0.09712 0.89405 1.00095 0.0
C3118 C 0.11971 0.91123 0.98387 0.0
C3119 C 0.11835 0.92594 0.99607 0.0
C3120 C 0.10676 0.92418 0.01112 0.0
C3121 C 0.09633 0.90845 0.01355 0.0
C3122 C 0.12937 0.97641 0.99049 0.0
C3123 C 0.14681 0.9757 0.98279 0.0
C3124 C 0.12032 0.96032 0.99537 0.0
C3125 C 0.12853 0.9432 0.99268 0.0
C3126 C 0.14632 0.94267 0.98584 0.0
C3127 C 0.1553 0.95866 0.98096 0.0
H3128 H 0.26882 0.86581 0.2309 0.0
H3129 H 0.29955 0.91485 0.24031 0.0
H3130 H 0.29582 0.84772 0.2372 0.0
H3131 H 0.3264 0.89685 0.2473 0.0
H3132 H 0.37523 0.86006 0.23158 0.0
H3133 H 0.34834 0.87959 0.23167 0.0
H3134 H 0.31755 0.83689 0.25772 0.0
H3135 H 0.34413 0.81733 0.25685 0.0
C3136 C 0.2812 0.8727 0.23488 0.0
C3137 C 0.28204 0.89175 0.23502 0.0
C3138 C 0.29677 0.86234 0.2385 0.0
C3139 C 0.31351 0.87077 0.24258 0.0
C3140 C 0.31396 0.88983 0.24379 0.0
C3141 C 0.29847 0.90017 0.23997 0.0
C3142 C 0.3628 0.85507 0.23765 0.0
C3143 C 0.36174 0.83715 0.24407 0.0
C3144 C 0.34732 0.86623 0.23773 0.0
C3145 C 0.33054 0.85978 0.24446 0.0
C3146 C 0.32998 0.84222 0.25195 0.0
C3147 C 0.3453 0.83104 0.25162 0.0
H3148 H 0.14755 0.17333 0.75929 0.0
H3149 H 0.15306 0.16946 0.70098 0.0
H3150 H 0.17903 0.1625 0.76277 0.0
H3151 H 0.18421 0.1592 0.70454 0.0
H3152 H 0.24368 0.17022 0.71664 0.0
H3153 H 0.21193 0.17909 0.71885 0.0
H3154 H 0.20075 0.13206 0.7519 0.0
H3155 H 0.23273 0.12279 0.74948 0.0
C3156 C 0.15526 0.16982 0.74727 0.0
C3157 C 0.14775 0.1724 0.72984 0.0
C3158 C 0.17329 0.16372 0.74928 0.0
C3159 C 0.18412 0.16033 0.7339 0.0
C3160 C 0.17627 0.16198 0.71662 0.0
C3161 C 0.15834 0.1678 0.71462 0.0
C3162 C 0.23465 0.16188 0.72472 0.0
C3163 C 0.24083 0.14565 0.73273 0.0
C3164 C 0.2164 0.16696 0.72591 0.0
C3165 C 0.20384 0.15614 0.73535 0.0
C3166 C 0.21016 0.14063 0.74453 0.0
C3167 C 0.22847 0.13537 0.74314 0.0
H3168 H 0.03196 0.01517 0.20387 0.0
H3169 H 0.01219 0.96334 0.22306 0.0
H3170 H 0.02951 0.02759 0.23421 0.0
H3171 H 0.00923 0.97606 0.25368 0.0
H3172 H 0.03139 0.99783 0.30811 0.0
H3173 H 0.02888 0.98544 0.27776 0.0
H3174 H 0.00985 0.03739 0.25811 0.0
H3175 H 0.01288 0.05005 0.28875 0.0
C3176 C 0.02687 1.00642 0.21455 0.0
C3177 C 0.02242 0.98815 0.21101 0.0
C3178 C 0.0253 0.01367 0.232 0.0
C3179 C 0.01916 1.0029 0.24649 0.0
C3180 C 0.01423 0.98471 0.24289 0.0
C3181 C 0.01585 0.97741 0.22534 0.0
C3182 C 0.02657 1.00668 0.29739 0.0
C3183 C 0.02249 0.02504 0.30089 0.0
C3184 C 0.02495 0.99945 0.27993 0.0
C3185 C 0.01917 0.01034 0.26539 0.0
C3186 C 0.01459 0.02863 0.26894 0.0
C3187 C 0.01624 0.0359 0.28651 0.0
H3188 H 0.21316 0.76203 0.53773 0.0
H3189 H 0.26422 0.78407 0.55644 0.0
H3190 H 0.22604 0.7585 0.50727 0.0
H3191 H 0.27679 0.78111 0.52621 0.0
H3192 H 0.30005 0.76342 0.47236 0.0
H3193 H 0.28741 0.76122 0.50306 0.0
H3194 H 0.23483 0.77718 0.48244 0.0
H3195 H 0.2472 0.77879 0.45205 0.0
C3196 C 0.22709 0.7661 0.53537 0.0
C3197 C 0.23758 0.77342 0.54954 0.0
C3198 C 0.23449 0.76416 0.51789 0.0
C3199 C 0.25251 0.76955 0.51418 0.0
C3200 C 0.26301 0.77651 0.52851 0.0
C3201 C 0.25568 0.77838 0.5459 0.0
C3202 C 0.28577 0.76627 0.47441 0.0
C3203 C 0.27471 0.77138 0.45973 0.0
C3204 C 0.2785 0.76511 0.49202 0.0
C3205 C 0.26004 0.76908 0.49532 0.0
C3206 C 0.24899 0.77374 0.4805 0.0
C3207 C 0.25619 0.77483 0.463 0.0
H3208 H 0.47574 0.0162 0.80852 0.0
H3209 H 0.50189 0.96676 0.79071 0.0
H3210 H 0.47938 0.02918 0.77852 0.0
H3211 H 0.50596 0.98005 0.76046 0.0
H3212 H 0.48529 1.00043 0.7047 0.0
H3213 H 0.48706 0.98786 0.73504 0.0
H3214 H 0.50018 0.04099 0.75632 0.0
H3215 H 0.49795 0.05379 0.72567 0.0
C3216 C 0.48246 0.00811 0.79823 0.0
C3217 C 0.48838 0.99032 0.80202 0.0
C3218 C 0.48472 0.01569 0.781 0.0
C3219 C 0.49299 1.00573 0.767 0.0
C3220 C 0.49934 0.98806 0.77087 0.0
C3221 C 0.49707 0.98044 0.78821 0.0
C3222 C 0.48868 0.0095 0.71578 0.0
C3223 C 0.49129 0.02821 0.71273 0.0
C3224 C 0.48987 1.00219 0.73324 0.0
C3225 C 0.49372 0.01336 0.74821 0.0
C3226 C 0.49695 0.03201 0.74512 0.0
C3227 C 0.49576 0.03936 0.72756 0.0
H3228 H 0.26567 0.23212 0.95498 0.0
H3229 H 0.21403 0.2518 0.97464 0.0
H3230 H 0.27849 0.23505 0.9851 0.0
H3231 H 0.22716 0.25533 1.00502 0.0
H3232 H 0.24969 0.23451 0.05958 0.0
H3233 H 0.23688 0.23658 0.02939 0.0
H3234 H 0.28872 0.25461 0.00862 0.0
H3235 H 0.30181 0.25193 0.03909 0.0
C3236 C 0.25705 0.23731 0.96571 0.0
C3237 C 0.23871 0.24158 0.96236 0.0
C3238 C 0.26453 0.23917 0.98304 0.0
C3239 C 0.25395 0.24544 0.99762 0.0
C3240 C 0.23569 0.25021 0.99419 0.0
C3241 C 0.22815 0.24828 0.97676 0.0
C3242 C 0.25843 0.23903 0.04864 0.0
C3243 C 0.27689 0.2429 0.0518 0.0
C3244 C 0.25096 0.24039 0.03126 0.0
C3245 C 0.26168 0.24574 0.01643 0.0
C3246 C 0.28007 0.25017 0.01965 0.0
C3247 C 0.28759 0.24874 0.03713 0.0
H3248 H 0.20835 0.03125 0.01264 0.0
H3249 H 0.22733 0.01118 0.96087 0.0
H3250 H 0.23884 0.02945 0.02477 0.0
H3251 H 0.25813 0.0089 0.9733 0.0
H3252 H 0.29332 0.01275 0.04718 0.0
H3253 H 0.26272 0.00971 0.03453 0.0
H3254 H 0.2823 0.02871 0.98259 0.0
H3255 H 0.31269 0.03126 0.99499 0.0
C3256 C 0.21902 0.02624 1.00384 0.0
C3257 C 0.21534 0.02143 0.9857 0.0
C3258 C 0.23657 0.02505 0.01092 0.0
C3259 C 0.25104 0.01896 1.00011 0.0
C3260 C 0.24735 0.01383 0.982 0.0
C3261 C 0.22969 0.01505 0.97487 0.0
C3262 C 0.29109 0.01608 0.03303 0.0
C3263 C 0.30547 0.02234 0.02217 0.0
C3264 C 0.27353 0.01444 0.02577 0.0
C3265 C 0.26995 0.01903 0.0075 0.0
C3266 C 0.28449 0.02481 0.9966 0.0
C3267 C 0.30197 0.02642 1.00381 0.0
H3268 H 0.23616 0.06153 0.24437 0.0
H3269 H 0.25091 0.04119 0.29739 0.0
H3270 H 0.23806 0.03108 0.23197 0.0
H3271 H 0.25336 0.01051 0.28476 0.0
H3272 H 0.23012 0.95723 0.26161 0.0
H3273 H 0.23323 0.98753 0.27404 0.0
H3274 H 0.25668 1.00591 0.22349 0.0
H3275 H 0.25306 0.97536 0.21076 0.0
C3276 C 0.24007 0.05058 0.25339 0.0
C3277 C 0.24322 0.05384 0.27197 0.0
C3278 C 0.24132 0.03305 0.24617 0.0
C3279 C 0.2458 0.01821 0.2573 0.0
C3280 C 0.2496 0.02155 0.2758 0.0
C3281 C 0.24831 0.03916 0.28306 0.0
C3282 C 0.23604 0.96766 0.25309 0.0
C3283 C 0.24122 0.96382 0.23508 0.0
C3284 C 0.23799 0.98509 0.26034 0.0
C3285 C 0.24524 0.99929 0.24985 0.0
C3286 C 0.25083 0.99539 0.23193 0.0
C3287 C 0.24884 0.97785 0.22462 0.0
H3288 H 0.22426 1.00263 0.54778 0.0
H3289 H 0.2033 0.98675 0.49533 0.0
H3290 H 0.25477 1.00484 0.53473 0.0
H3291 H 0.23355 0.9884 0.48253 0.0
H3292 H 0.28881 1.00309 0.46016 0.0
H3293 H 0.25846 1.00685 0.47326 0.0
H3294 H 0.27777 0.98478 0.52411 0.0
H3295 H 0.30788 0.98156 0.51129 0.0
C3296 C 0.22612 0.99971 0.53348 0.0
C3297 C 0.2113 0.9944 0.52268 0.0
C3298 C 0.24363 1.00086 0.52599 0.0
C3299 C 0.24674 0.99671 0.50752 0.0
C3300 C 0.23177 0.99195 0.49668 0.0
C3301 C 0.21435 0.99085 0.50414 0.0
C3302 C 0.28657 0.99921 0.47417 0.0
C3303 C 0.3008 0.99193 0.48459 0.0
C3304 C 0.26915 1.00127 0.48169 0.0
C3305 C 0.26556 0.99609 0.49981 0.0
C3306 C 0.27996 0.98921 0.51026 0.0
C3307 C 0.29728 0.9872 0.50278 0.0
H3308 H 0.26221 0.04368 0.71599 0.0
H3309 H 0.27755 0.06336 0.76909 0.0
H3310 H 0.25957 0.0129 0.72833 0.0
H3311 H 0.27547 0.03282 0.78121 0.0
H3312 H 0.26001 0.97688 0.80191 0.0
H3313 H 0.25675 0.00768 0.78963 0.0
H3314 H 0.27949 0.98963 0.73863 0.0
H3315 H 0.28225 0.95915 0.75061 0.0
C3316 C 0.26492 0.04148 0.73028 0.0
C3317 C 0.27021 0.05602 0.74147 0.0
C3318 C 0.26352 0.02381 0.73737 0.0
C3319 C 0.26742 0.02025 0.75581 0.0
C3320 C 0.27213 0.03495 0.76705 0.0
C3321 C 0.27348 0.05253 0.76 0.0
C3322 C 0.26416 0.97951 0.78805 0.0
C3323 C 0.27147 0.96551 0.77733 0.0
C3324 C 0.26238 0.99718 0.781 0.0
C3325 C 0.26785 1.00124 0.76307 0.0
C3326 C 0.27482 0.98709 0.75234 0.0
C3327 C 0.27657 0.96954 0.75934 0.0
H3328 H 0.014 0.20781 0.02879 0.0
H3329 H 0.96148 0.22742 0.01154 0.0
H3330 H 0.02647 0.23809 0.02596 0.0
H3331 H 0.97422 0.258 0.00815 0.0
H3332 H 0.9975 0.31239 0.02923 0.0
H3333 H 0.98465 0.28216 0.02706 0.0
H3334 H 0.03564 0.26195 1.00622 0.0
H3335 H 0.04877 0.29239 0.00895 0.0
C3336 C 1.00509 0.21857 0.02417 0.0
C3337 C 0.98663 0.21514 0.02053 0.0
C3338 C 0.01236 0.236 0.02236 0.0
C3339 C 1.00144 0.25062 0.0168 0.0
C3340 C 0.98303 0.24714 0.01269 0.0
C3341 C 0.97571 0.2296 0.01454 0.0
C3342 C 1.00602 0.30156 0.02406 0.0
C3343 C 0.02428 0.30485 0.01942 0.0
C3344 C 0.99853 0.28417 0.02265 0.0
C3345 C 0.00904 0.26948 0.0165 0.0
C3346 C 0.02717 0.27286 0.01128 0.0
C3347 C 0.03471 0.29034 0.01274 0.0
H3348 H 0.49727 0.20134 0.9844 0.0
H3349 H 0.54825 0.22153 1.00526 0.0
H3350 H 0.48425 0.23147 0.98654 0.0
H3351 H 0.53492 0.2519 0.00796 0.0
H3352 H 0.51312 0.30603 0.98534 0.0
H3353 H 0.52579 0.27584 0.98831 0.0
H3354 H 0.47345 0.25548 1.00532 0.0
H3355 H 0.46052 0.28596 1.00178 0.0
C3356 C 0.50569 0.21218 0.98969 0.0
C3357 C 0.52393 0.20897 0.9945 0.0
C3358 C 0.4981 0.22953 0.99108 0.0
C3359 C 0.50846 0.24426 0.99739 0.0
C3360 C 0.52657 0.24096 1.00278 0.0
C3361 C 0.53422 0.22352 1.00134 0.0
C3362 C 0.50424 0.29519 0.98982 0.0
C3363 C 0.4857 0.29847 0.99317 0.0
C3364 C 0.51162 0.27781 0.9917 0.0
C3365 C 0.50073 0.26309 0.99706 0.0
C3366 C 0.48224 0.26642 1.00092 0.0
C3367 C 0.47481 0.28391 0.99898 0.0
H3368 H 0.95351 0.26491 0.22987 0.0
H3369 H 0.97253 0.21315 0.24994 0.0
H3370 H 0.98392 0.27718 0.23204 0.0
H3371 H 1.00322 0.22571 0.25265 0.0
H3372 H 0.05787 0.24715 0.23094 0.0
H3373 H 0.02746 0.23488 0.23327 0.0
H3374 H 0.00781 0.28712 0.25147 0.0
H3375 H 0.03849 0.29966 0.24857 0.0
C3376 C 0.96417 0.25614 0.23496 0.0
C3377 C 0.96054 0.23794 0.23961 0.0
C3378 C 0.98167 0.26331 0.23637 0.0
C3379 C 0.99614 0.25252 0.24255 0.0
C3380 C 0.99247 0.23439 0.24761 0.0
C3381 C 0.97486 0.22717 0.24614 0.0
C3382 C 0.04713 0.25609 0.23554 0.0
C3383 C 0.05066 0.27449 0.23942 0.0
C3384 C 0.02963 0.24893 0.23705 0.0
C3385 C 0.01506 0.25993 0.24255 0.0
C3386 C 0.01864 0.27827 0.24693 0.0
C3387 C 0.03624 0.28548 0.24536 0.0
H3388 H 0.04853 0.72392 0.50111 0.0
H3389 H 0.99732 0.70406 0.48047 0.0
H3390 H 0.03527 0.7543 0.50429 0.0
H3391 H 0.98436 0.73416 0.48313 0.0
H3392 H 0.96049 0.78782 0.5003 0.0
H3393 H 0.97383 0.75745 0.503 0.0
H3394 H 0.02557 0.77869 0.48527 0.0
H3395 H 0.0125 0.80881 0.48312 0.0
C3396 C 0.03449 0.726 0.49728 0.0
C3397 C 0.02408 0.71154 0.49045 0.0
C3398 C 0.02687 0.74343 0.49903 0.0
C3399 C 0.00868 0.74677 0.49396 0.0
C3400 C 0.99826 0.73215 0.48748 0.0
C3401 C 1.00583 0.71484 0.48578 0.0
C3402 C 0.97474 0.786 0.49718 0.0
C3403 C 0.98534 0.80076 0.49137 0.0
C3404 C 0.98241 0.76857 0.49863 0.0
C3405 C 1.00082 0.76552 0.49427 0.0
C3406 C 0.01146 0.78045 0.48899 0.0
C3407 C 1.00385 0.79778 0.48759 0.0
H3408 H 0.55276 0.78924 0.51508 0.0
H3409 H 0.5007 0.8101 0.53224 0.0
H3410 H 0.53951 0.75878 0.51256 0.0
H3411 H 0.48773 0.77994 0.53021 0.0
H3412 H 0.46464 0.72554 0.51328 0.0
H3413 H 0.4781 0.75588 0.51071 0.0
H3414 H 0.52867 0.73519 0.53211 0.0
H3415 H 0.51549 0.7051 0.5342 0.0
C3416 C 0.53853 0.78737 0.51826 0.0
C3417 C 0.52788 0.80214 0.52395 0.0
C3418 C 0.53092 0.76989 0.51691 0.0
C3419 C 0.51248 0.76681 0.5212 0.0
C3420 C 0.50184 0.78173 0.5265 0.0
C3421 C 0.5094 0.79908 0.52784 0.0
C3422 C 0.47865 0.72749 0.51731 0.0
C3423 C 0.4889 0.71286 0.52403 0.0
C3424 C 0.48639 0.74489 0.51591 0.0
C3425 C 0.50454 0.74808 0.52123 0.0
C3426 C 0.5148 0.73331 0.5276 0.0
C3427 C 0.50711 0.716 0.52897 0.0
H3428 H 0.05634 0.76267 0.27975 0.0
H3429 H 0.03679 0.7104 0.26159 0.0
H3430 H 0.02609 0.7752 0.27697 0.0
H3431 H 1.00626 0.7232 0.25824 0.0
H3432 H 0.95173 0.74602 0.27906 0.0
H3433 H 0.98198 0.73329 0.277 0.0
H3434 H 1.00229 0.78477 0.25742 0.0
H3435 H 0.9718 0.79778 0.26006 0.0
C3436 C 0.0456 0.75384 0.27494 0.0
C3437 C 0.04905 0.73542 0.27103 0.0
C3438 C 0.02818 0.76114 0.27317 0.0
C3439 C 0.01359 0.7503 0.26737 0.0
C3440 C 0.01709 0.73195 0.26299 0.0
C3441 C 0.03461 0.72459 0.26482 0.0
C3442 C 0.96258 0.75468 0.2742 0.0
C3443 C 0.95929 0.77303 0.26988 0.0
C3444 C 0.97999 0.74726 0.27285 0.0
C3445 C 0.99472 0.75792 0.26707 0.0
C3446 C 0.99135 0.77617 0.26219 0.0
C3447 C 0.97385 0.78365 0.2636 0.0
H3448 H 0.53995 0.21384 0.7626 0.0
H3449 H 0.55936 0.26461 0.78477 0.0
H3450 H 0.50966 0.22713 0.75919 0.0
H3451 H 0.52928 0.2776 0.7819 0.0
H3452 H 0.45492 0.24863 0.78027 0.0
H3453 H 0.48521 0.23605 0.77843 0.0
H3454 H 0.50599 0.28847 0.76207 0.0
H3455 H 0.47538 0.30131 0.76443 0.0
C3456 C 0.53779 0.22781 0.76669 0.0
C3457 C 0.55208 0.23808 0.77407 0.0
C3458 C 0.52041 0.23544 0.76482 0.0
C3459 C 0.51694 0.25348 0.77033 0.0
C3460 C 0.53141 0.26381 0.77725 0.0
C3461 C 0.5487 0.25623 0.77906 0.0
C3462 C 0.46588 0.25755 0.77618 0.0
C3463 C 0.46268 0.27607 0.77264 0.0
C3464 C 0.48332 0.25022 0.77495 0.0
C3465 C 0.49815 0.26117 0.77007 0.0
C3466 C 0.49493 0.27965 0.76609 0.0
C3467 C 0.47738 0.28703 0.76736 0.0
H3468 H 0.98243 0.01636 0.70319 0.0
H3469 H 1.00064 0.96406 0.72261 0.0
H3470 H 0.98482 0.02872 0.73358 0.0
H3471 H 1.00358 0.97669 0.75326 0.0
H3472 H 0.98241 0.99898 0.80772 0.0
H3473 H 0.98443 0.98657 0.77734 0.0
H3474 H 1.00432 0.03815 0.75759 0.0
H3475 H 1.00174 0.05086 0.78824 0.0
C3476 C 0.98716 0.00749 0.71393 0.0
C3477 C 0.99122 0.98912 0.71042 0.0
C3478 C 0.9887 0.01469 0.73142 0.0
C3479 C 0.99441 1.00379 0.74599 0.0
C3480 C 0.9989 0.98547 0.74243 0.0
C3481 C 0.9973 0.97822 0.72485 0.0
C3482 C 0.98731 0.00775 0.79697 0.0
C3483 C 0.99178 0.02603 0.80046 0.0
C3484 C 0.98864 1.0005 0.77948 0.0
C3485 C 0.99454 0.01128 0.76489 0.0
C3486 C 0.99947 0.02948 0.76844 0.0
C3487 C 0.99809 0.03678 0.78602 0.0
H3488 H 0.76696 0.23335 0.5624 0.0
H3489 H 0.71387 0.24836 0.54244 0.0
H3490 H 0.77912 0.23507 0.53192 0.0
H3491 H 0.72629 0.25056 0.51163 0.0
H3492 H 0.74963 0.22761 0.45815 0.0
H3493 H 0.73711 0.23049 0.48843 0.0
H3494 H 0.78747 0.25419 0.50705 0.0
H3495 H 0.80028 0.25084 0.47652 0.0
C3496 C 0.75786 0.23722 0.55151 0.0
C3497 C 0.73934 0.24057 0.55492 0.0
C3498 C 0.76495 0.23838 0.53396 0.0
C3499 C 0.75377 0.24296 0.5192 0.0
C3500 C 0.73529 0.24677 0.52263 0.0
C3501 C 0.72815 0.24559 0.5403 0.0
C3502 C 0.75809 0.23353 0.46863 0.0
C3503 C 0.77607 0.23886 0.46487 0.0
C3504 C 0.75079 0.23534 0.48604 0.0
C3505 C 0.7612 0.24258 0.50029 0.0
C3506 C 0.77909 0.24833 0.49647 0.0
C3507 C 0.78644 0.24649 0.47896 0.0
H3508 H 0.51005 0.01291 0.30898 0.0
H3509 H 0.5308 0.96308 0.28611 0.0
H3510 H 0.50791 0.02611 0.27882 0.0
H3511 H 0.52944 0.97654 0.25579 0.0
H3512 H 0.51301 1.00009 0.20179 0.0
H3513 H 0.51119 0.98666 0.23184 0.0
H3514 H 0.52591 0.03833 0.25564 0.0
H3515 H 0.52693 0.05195 0.22536 0.0
C3516 C 0.51415 1.00474 0.29744 0.0
C3517 C 0.52064 0.98693 0.29994 0.0
C3518 C 0.51308 0.01241 0.28011 0.0
C3519 C 0.5187 1.00258 0.26474 0.0
C3520 C 0.52476 0.98453 0.26721 0.0
C3521 C 0.52559 0.97676 0.28461 0.0
C3522 C 0.51571 0.00865 0.21346 0.0
C3523 C 0.52017 0.0271 0.21118 0.0
C3524 C 0.51482 1.00087 0.23074 0.0
C3525 C 0.51861 0.01125 0.24632 0.0
C3526 C 0.52267 0.02988 0.24405 0.0
C3527 C 0.52332 0.03774 0.22668 0.0
H3528 H 0.74979 0.78509 0.06032 0.0
H3529 H 0.79934 0.76008 0.04134 0.0
H3530 H 0.73657 0.7821 0.03035 0.0
H3531 H 0.78578 0.75656 0.01116 0.0
H3532 H 0.76474 0.77709 0.95585 0.0
H3533 H 0.77754 0.77527 0.98608 0.0
H3534 H 0.7246 0.76223 0.00774 0.0
H3535 H 0.71156 0.76461 0.97721 0.0
C3536 C 0.75785 0.77873 0.04978 0.0
C3537 C 0.77574 0.77295 0.05326 0.0
C3538 C 0.75013 0.77686 0.03255 0.0
C3539 C 0.76002 0.76907 0.01822 0.0
C3540 C 0.77781 0.76285 0.02179 0.0
C3541 C 0.78558 0.76478 0.03911 0.0
C3542 C 0.75576 0.77372 0.967 0.0
C3543 C 0.73703 0.77116 0.96406 0.0
C3544 C 0.7632 0.7725 0.9844 0.0
C3545 C 0.75218 0.76862 0.99947 0.0
C3546 C 0.73349 0.7655 0.9965 0.0
C3547 C 0.726 0.76677 0.97899 0.0
H3548 H 0.70668 0.97487 0.01066 0.0
H3549 H 0.72189 0.00724 0.96415 0.0
H3550 H 0.73672 0.97857 0.02337 0.0
H3551 H 0.7522 0.01149 0.97729 0.0
H3552 H 0.80973 0.9942 0.99557 0.0
H3553 H 0.77929 0.99497 0.98316 0.0
H3554 H 0.75731 0.99883 0.03744 0.0
H3555 H 0.78804 0.99737 0.04999 0.0
C3556 C 0.71641 0.98297 1.00317 0.0
C3557 C 0.71183 0.99072 0.9863 0.0
C3558 C 0.73368 0.98525 0.01062 0.0
C3559 C 0.74697 0.99546 1.00151 0.0
C3560 C 0.74238 1.00338 0.98465 0.0
C3561 C 0.72501 1.001 0.97711 0.0
C3562 C 0.79845 0.99535 1.00494 0.0
C3563 C 0.80137 0.99551 0.02385 0.0
C3564 C 0.78091 0.99595 0.99774 0.0
C3565 C 0.76571 0.99684 0.00922 0.0
C3566 C 0.76866 0.9978 0.02815 0.0
C3567 C 0.78628 0.99709 0.03539 0.0
H3568 H 0.76688 0.03793 0.80019 0.0
H3569 H 0.77771 0.05992 0.74688 0.0
H3570 H 0.76436 0.00748 0.78689 0.0
H3571 H 0.77568 0.02981 0.73381 0.0
H3572 H 0.76 0.97464 0.71198 0.0
H3573 H 0.75663 1.00464 0.72601 0.0
H3574 H 0.78442 0.98528 0.77395 0.0
H3575 H 0.78735 0.9555 0.76024 0.0
C3576 C 0.76862 0.03631 0.78567 0.0
C3577 C 0.77263 0.05138 0.77467 0.0
C3578 C 0.76727 0.01886 0.77803 0.0
C3579 C 0.76988 0.01611 0.75923 0.0
C3580 C 0.77333 0.03132 0.74825 0.0
C3581 C 0.77467 0.04866 0.75585 0.0
C3582 C 0.76525 0.9768 0.72555 0.0
C3583 C 0.77404 0.96266 0.73489 0.0
C3584 C 0.76339 0.994 0.7336 0.0
C3585 C 0.77028 0.99746 0.75117 0.0
C3586 C 0.77868 0.98315 0.76057 0.0
C3587 C 0.78052 0.96604 0.75257 0.0
H3588 H 0.71969 1.00631 0.53919 0.0
H3589 H 0.71064 0.0588 0.51458 0.0
H3590 H 0.74929 1.00436 0.5236 0.0
H3591 H 0.7399 0.05692 0.49943 0.0
H3592 H 0.80251 0.05676 0.49786 0.0
H3593 H 0.7729 0.05621 0.51245 0.0
H3594 H 0.76151 1.00422 0.48788 0.0
H3595 H 0.79146 1.00486 0.47283 0.0
C3596 C 0.72406 0.01745 0.53063 0.0
C3597 C 0.71288 0.03275 0.52819 0.0
C3598 C 0.74085 0.01624 0.52156 0.0
C3599 C 0.74682 0.03047 0.51025 0.0
C3600 C 0.73567 0.04576 0.50805 0.0
C3601 C 0.71891 0.04683 0.51678 0.0
C3602 C 0.79369 0.04523 0.49542 0.0
C3603 C 0.79928 0.0309 0.4841 0.0
C3604 C 0.77673 0.04493 0.50381 0.0
C3605 C 0.76495 0.03014 0.50139 0.0
C3606 C 0.77043 0.01571 0.49008 0.0
C3607 C 0.78742 0.01618 0.48132 0.0
H3608 H 0.73258 0.95355 0.25072 0.0
H3609 H 0.75012 0.97499 0.30247 0.0
H3610 H 0.73433 0.98358 0.23746 0.0
H3611 H 0.75235 1.00533 0.28892 0.0
H3612 H 0.72958 0.05843 0.26452 0.0
H3613 H 0.73236 0.02856 0.27803 0.0
H3614 H 0.75372 0.00765 0.22753 0.0
H3615 H 0.75045 0.03776 0.21372 0.0
C3616 C 0.737 0.96467 0.25929 0.0
C3617 C 0.74108 0.96182 0.27776 0.0
C3618 C 0.73818 0.98195 0.25156 0.0
C3619 C 0.74352 0.99697 0.26204 0.0
C3620 C 0.74798 0.99411 0.28047 0.0
C3621 C 0.74677 0.97672 0.28825 0.0
C3622 C 0.73496 0.04753 0.25623 0.0
C3623 C 0.73964 0.05051 0.23793 0.0
C3624 C 0.73672 0.03036 0.26411 0.0
C3625 C 0.74326 0.0156 0.25394 0.0
C3626 C 0.7484 0.01865 0.23573 0.0
C3627 C 0.74661 0.03591 0.2278 0.0
H3628 H 0.05317 0.78625 0.98806 0.0
H3629 H 1.00117 0.81127 0.99812 0.0
H3630 H 0.03923 0.75624 0.99108 0.0
H3631 H 0.9874 0.78157 1.00202 0.0
H3632 H 0.96374 0.72638 0.98582 0.0
H3633 H 0.97757 0.7565 0.98552 0.0
H3634 H 0.02616 0.73439 0.01003 0.0
H3635 H 0.01258 0.70426 0.00948 0.0
C3636 C 0.03885 0.78533 0.99126 0.0
C3637 C 0.02827 0.80111 0.9927 0.0
C3638 C 0.0308 0.76811 0.99306 0.0
C3639 C 0.01204 0.76632 0.99665 0.0
C3640 C 1.00172 0.78225 0.99879 0.0
C3641 C 0.00968 0.79935 0.9967 0.0
C3642 C 0.97727 0.72804 0.99137 0.0
C3643 C 0.98706 0.71294 0.99763 0.0
C3644 C 0.98526 0.74535 0.99124 0.0
C3645 C 1.00315 0.74802 0.99764 0.0
C3646 C 0.01258 0.73292 1.00457 0.0
C3647 C 1.0047 0.71563 1.00444 0.0
H3648 H 0.46263 0.79188 0.01172 0.0
H3649 H 0.51208 0.81012 0.0375 0.0
H3650 H 0.4758 0.76147 0.00839 0.0
H3651 H 0.52492 0.77997 0.03463 0.0
H3652 H 0.54961 0.72676 0.01678 0.0
H3653 H 0.53684 0.75743 0.0145 0.0
H3654 H 0.48366 0.73614 0.02715 0.0
H3655 H 0.4962 0.70577 0.02892 0.0
C3656 C 0.47627 0.78943 0.01665 0.0
C3657 C 0.48621 0.80346 0.02496 0.0
C3658 C 0.48383 0.77199 0.01481 0.0
C3659 C 0.50149 0.76818 0.02123 0.0
C3660 C 0.51146 0.78236 0.02922 0.0
C3661 C 0.50395 0.79969 0.03104 0.0
C3662 C 0.53518 0.72865 0.01887 0.0
C3663 C 0.52401 0.71379 0.02316 0.0
C3664 C 0.52784 0.74624 0.01767 0.0
C3665 C 0.50917 0.74935 0.02072 0.0
C3666 C 0.498 0.73435 0.02446 0.0
C3667 C 0.5053 0.71686 0.02565 0.0
H3668 H 0.05884 0.74979 0.78408 0.0
H3669 H 0.03963 0.8003 0.76119 0.0
H3670 H 0.02882 0.73674 0.78105 0.0
H3671 H 0.00935 0.78694 0.75766 0.0
H3672 H 0.95437 0.76478 0.77833 0.0
H3673 H 0.9845 0.77785 0.77644 0.0
H3674 H 1.00614 0.7256 0.76071 0.0
H3675 H 0.97576 0.71228 0.76315 0.0
C3676 C 0.04823 0.75811 0.77821 0.0
C3677 C 0.05167 0.7762 0.773 0.0
C3678 C 0.03097 0.7505 0.77629 0.0
C3679 C 0.01657 0.7607 0.76905 0.0
C3680 C 0.02006 0.77872 0.76349 0.0
C3681 C 0.03742 0.78639 0.76545 0.0
C3682 C 0.96549 0.75602 0.77434 0.0
C3683 C 0.96263 0.73739 0.77107 0.0
C3684 C 0.98282 0.76362 0.77309 0.0
C3685 C 0.99786 0.75284 0.76848 0.0
C3686 C 0.99493 0.73429 0.76457 0.0
C3687 C 0.9775 0.72664 0.76586 0.0
H3688 H 0.05156 0.2253 0.52542 0.0
H3689 H 0.99923 0.20148 0.51403 0.0
H3690 H 0.0382 0.25561 0.52307 0.0
H3691 H 0.98602 0.23156 0.51089 0.0
H3692 H 0.96363 0.28694 0.52915 0.0
H3693 H 0.97664 0.25641 0.52834 0.0
H3694 H 0.02566 0.27805 0.50432 0.0
H3695 H 0.01292 0.30847 0.50592 0.0
C3696 C 0.03729 0.22655 0.52205 0.0
C3697 C 0.02645 0.21101 0.52003 0.0
C3698 C 0.02958 0.24394 0.52064 0.0
C3699 C 0.01089 0.24617 0.51692 0.0
C3700 C 1.0003 0.23051 0.51421 0.0
C3701 C 0.00794 0.21321 0.51586 0.0
C3702 C 0.97707 0.28508 0.52347 0.0
C3703 C 0.98726 0.30011 0.51769 0.0
C3704 C 0.98458 0.26756 0.52296 0.0
C3705 C 1.00238 0.26465 0.51642 0.0
C3706 C 0.01216 0.27969 0.50989 0.0
C3707 C 1.00476 0.29716 0.51063 0.0
H3708 H 0.55243 0.28884 0.49876 0.0
H3709 H 0.50033 0.30987 0.48189 0.0
H3710 H 0.53919 0.25839 0.50107 0.0
H3711 H 0.48735 0.27968 0.48366 0.0
H3712 H 0.4646 0.22461 0.49915 0.0
H3713 H 0.47774 0.25505 0.50243 0.0
H3714 H 0.52866 0.23526 0.48104 0.0
H3715 H 0.51583 0.20512 0.47827 0.0
C3716 C 0.53818 0.28701 0.49561 0.0
C3717 C 0.52753 0.30182 0.49002 0.0
C3718 C 0.53057 0.26954 0.49684 0.0
C3719 C 0.51215 0.26648 0.49247 0.0
C3720 C 0.50147 0.28144 0.48738 0.0
C3721 C 0.50903 0.29881 0.4862 0.0
C3722 C 0.47862 0.22678 0.49528 0.0
C3723 C 0.48908 0.2124 0.48837 0.0
C3724 C 0.48617 0.24424 0.49709 0.0
C3725 C 0.50434 0.2477 0.49201 0.0
C3726 C 0.51478 0.23317 0.48541 0.0
C3727 C 0.50729 0.21583 0.48365 0.0
H3728 H 0.04075 0.21378 0.75529 0.0
H3729 H 0.05878 0.26633 0.7364 0.0
H3730 H 0.00992 0.2258 0.75866 0.0
H3731 H 0.02821 0.27805 0.73911 0.0
H3732 H 0.97293 0.29919 0.7542 0.0
H3733 H 1.00379 0.28731 0.75787 0.0
H3734 H 0.98558 0.23455 0.73962 0.0
H3735 H 0.95501 0.24613 0.73661 0.0
C3736 C 0.03819 0.22788 0.75195 0.0
C3737 C 0.05226 0.239 0.74546 0.0
C3738 C 0.02048 0.23478 0.75377 0.0
C3739 C 0.01644 0.25295 0.74907 0.0
C3740 C 0.03071 0.26413 0.74314 0.0
C3741 C 0.04832 0.25728 0.7414 0.0
C3742 C 0.97552 0.28501 0.75121 0.0
C3743 C 0.96147 0.2737 0.74499 0.0
C3744 C 0.99324 0.27819 0.7532 0.0
C3745 C 0.99732 0.25991 0.74897 0.0
C3746 C 0.98306 0.24857 0.7433 0.0
C3747 C 0.96545 0.25533 0.74139 0.0
H3748 H 0.55858 0.76542 0.23131 0.0
H3749 H 0.53811 0.71348 0.2494 0.0
H3750 H 0.52835 0.77822 0.23314 0.0
H3751 H 0.50759 0.72654 0.25169 0.0
H3752 H 0.45416 0.74962 0.22846 0.0
H3753 H 0.4843 0.73679 0.23132 0.0
H3754 H 0.50403 0.78782 0.2526 0.0
H3755 H 0.47362 0.80094 0.2493 0.0
C3756 C 0.54764 0.75672 0.23587 0.0
C3757 C 0.5508 0.73832 0.24005 0.0
C3758 C 0.53025 0.76418 0.2371 0.0
C3759 C 0.51545 0.75349 0.24256 0.0
C3760 C 0.51864 0.73515 0.24721 0.0
C3761 C 0.53614 0.72765 0.24597 0.0
C3762 C 0.46485 0.75817 0.23384 0.0
C3763 C 0.46145 0.77642 0.23851 0.0
C3764 C 0.48218 0.75069 0.23565 0.0
C3765 C 0.49668 0.7612 0.24221 0.0
C3766 C 0.49323 0.77937 0.24729 0.0
C3767 C 0.4758 0.7869 0.24546 0.0
H3768 H 0.5315 0.49851 0.80948 0.0
H3769 H 0.51298 0.55055 0.78966 0.0
H3770 H 0.52945 0.48598 0.77914 0.0
H3771 H 0.51042 0.53775 0.75904 0.0
H3772 H 0.53319 0.51535 0.7051 0.0
H3773 H 0.53033 0.52793 0.73536 0.0
H3774 H 0.51017 0.47636 0.75487 0.0
H3775 H 0.51353 0.46351 0.72435 0.0
C3776 C 0.52677 0.50729 0.79866 0.0
C3777 C 0.52255 0.52564 0.80204 0.0
C3778 C 0.52542 0.49998 0.7812 0.0
C3779 C 0.51977 0.51078 0.76653 0.0
C3780 C 0.51506 0.52906 0.76996 0.0
C3781 C 0.51644 0.53641 0.78752 0.0
C3782 C 0.52804 0.50663 0.71577 0.0
C3783 C 0.52374 0.48832 0.71227 0.0
C3784 C 0.52623 0.51396 0.73317 0.0
C3785 C 0.52002 0.50323 0.74766 0.0
C3786 C 0.51523 0.485 0.7441 0.0
C3787 C 0.51707 0.47762 0.72659 0.0
H3788 H 0.76442 0.28517 0.05805 0.0
H3789 H 0.71433 0.26132 0.03895 0.0
H3790 H 0.77748 0.28225 0.02803 0.0
H3791 H 0.72771 0.25788 0.00868 0.0
H3792 H 0.74932 0.27834 0.95351 0.0
H3793 H 0.7364 0.27647 0.98368 0.0
H3794 H 0.78903 0.26222 1.00538 0.0
H3795 H 0.8022 0.26467 0.97493 0.0
C3796 C 0.75619 0.27911 0.04746 0.0
C3797 C 0.73821 0.2736 0.05094 0.0
C3798 C 0.76382 0.27726 0.0302 0.0
C3799 C 0.75375 0.26977 0.01583 0.0
C3800 C 0.73584 0.26391 0.01935 0.0
C3801 C 0.72815 0.26582 0.03672 0.0
C3802 C 0.75821 0.27468 0.96465 0.0
C3803 C 0.7769 0.27183 0.96177 0.0
C3804 C 0.75069 0.27344 0.98202 0.0
C3805 C 0.7616 0.26925 0.99709 0.0
C3806 C 0.78023 0.26576 0.99415 0.0
C3807 C 0.7878 0.26705 0.97668 0.0
H3808 H 1.00176 0.54996 0.22513 0.0
H3809 H 0.98098 0.49869 0.20547 0.0
H3810 H 1.00526 0.53672 0.25545 0.0
H3811 H 0.98398 0.48573 0.23556 0.0
H3812 H 1.00126 0.46227 0.28937 0.0
H3813 H 1.00406 0.47541 0.25894 0.0
H3814 H 0.98584 0.52721 0.2797 0.0
H3815 H 0.98356 0.51434 0.30988 0.0
C3816 C 0.99801 0.53589 0.22724 0.0
C3817 C 0.99098 0.52547 0.21288 0.0
C3818 C 0.99993 0.52829 0.24462 0.0
C3819 C 0.99485 0.51012 0.24802 0.0
C3820 C 0.9883 0.49964 0.23348 0.0
C3821 C 0.98642 0.50719 0.21619 0.0
C3822 C 0.99806 0.47649 0.28743 0.0
C3823 C 0.99207 0.48717 0.30206 0.0
C3824 C 0.99957 0.48403 0.26998 0.0
C3825 C 0.99511 0.50241 0.26679 0.0
C3826 C 0.98965 0.51313 0.28159 0.0
C3827 C 0.98817 0.50564 0.29895 0.0
H3828 H 0.74694 0.73609 0.56077 0.0
H3829 H 0.80045 0.74704 0.53939 0.0
H3830 H 0.73424 0.73789 0.53051 0.0
H3831 H 0.78752 0.7494 0.50881 0.0
H3832 H 0.7619 0.72666 0.45645 0.0
H3833 H 0.77507 0.7295 0.48645 0.0
H3834 H 0.72653 0.75659 0.50523 0.0
H3835 H 0.71302 0.75325 0.475 0.0
C3836 C 0.75603 0.73911 0.54961 0.0
C3837 C 0.7748 0.74125 0.55255 0.0
C3838 C 0.74864 0.74032 0.53218 0.0
C3839 C 0.75978 0.74377 0.5171 0.0
C3840 C 0.77854 0.74647 0.52007 0.0
C3841 C 0.78597 0.74521 0.5376 0.0
C3842 C 0.75398 0.73331 0.46691 0.0
C3843 C 0.73629 0.73961 0.4633 0.0
C3844 C 0.76167 0.7351 0.48415 0.0
C3845 C 0.75196 0.74331 0.49836 0.0
C3846 C 0.73436 0.74998 0.49469 0.0
C3847 C 0.7266 0.74813 0.47735 0.0
H3848 H 0.71685 0.48183 0.48688 0.0
H3849 H 0.71839 0.53886 0.47312 0.0
H3850 H 0.74587 0.485 0.5029 0.0
H3851 H 0.74701 0.54204 0.48921 0.0
H3852 H 0.80665 0.53821 0.50234 0.0
H3853 H 0.77839 0.53304 0.48638 0.0
H3854 H 0.75928 0.49967 0.53065 0.0
H3855 H 0.78812 0.50468 0.54678 0.0
C3856 C 0.72344 0.49498 0.48708 0.0
C3857 C 0.71528 0.51006 0.47858 0.0
C3858 C 0.73997 0.49684 0.49646 0.0
C3859 C 0.7488 0.51378 0.49741 0.0
C3860 C 0.74075 0.52874 0.48863 0.0
C3861 C 0.72426 0.52691 0.47938 0.0
C3862 C 0.7965 0.52975 0.5088 0.0
C3863 C 0.7997 0.52195 0.52596 0.0
C3864 C 0.78018 0.52686 0.49961 0.0
C3865 C 0.76644 0.51605 0.50723 0.0
C3866 C 0.76963 0.50799 0.52432 0.0
C3867 C 0.78608 0.51096 0.53363 0.0
H3868 H 0.75358 0.47196 0.71512 0.0
H3869 H 0.73546 0.45159 0.76705 0.0
H3870 H 0.75595 0.5025 0.72811 0.0
H3871 H 0.73724 0.4819 0.77977 0.0
H3872 H 0.7523 0.537 0.80243 0.0
H3873 H 0.75581 0.50648 0.78962 0.0
H3874 H 0.73614 0.52602 0.73788 0.0
H3875 H 0.7332 0.55629 0.75042 0.0
C3876 C 0.75019 0.47396 0.72928 0.0
C3877 C 0.74423 0.4593 0.73995 0.0
C3878 C 0.75143 0.49149 0.73675 0.0
C3879 C 0.7467 0.49479 0.75504 0.0
C3880 C 0.74126 0.47997 0.76576 0.0
C3881 C 0.74007 0.46252 0.75835 0.0
C3882 C 0.7489 0.53477 0.7883 0.0
C3883 C 0.74239 0.54913 0.77753 0.0
C3884 C 0.75081 0.51724 0.78093 0.0
C3885 C 0.74623 0.51367 0.76265 0.0
C3886 C 0.74011 0.52819 0.75188 0.0
C3887 C 0.73825 0.54561 0.75919 0.0
H3888 H 0.70652 0.46223 0.00771 0.0
H3889 H 0.71948 0.50961 0.03987 0.0
H3890 H 0.73615 0.46379 0.99325 0.0
H3891 H 0.74941 0.51128 0.02491 0.0
H3892 H 0.79281 0.51293 0.97441 0.0
H3893 H 0.76231 0.51448 0.98827 0.0
H3894 H 0.76907 0.46007 0.00896 0.0
H3895 H 0.7993 0.45863 0.99564 0.0
C3896 C 0.71566 0.47309 0.01164 0.0
C3897 C 0.71065 0.48576 0.02504 0.0
C3898 C 0.73263 0.47395 1.0033 0.0
C3899 C 0.745 0.48769 0.00788 0.0
C3900 C 0.74 0.50065 0.02103 0.0
C3901 C 0.723 0.49959 0.02969 0.0
C3902 C 0.78764 0.5013 0.98179 0.0
C3903 C 0.79837 0.48563 0.98389 0.0
C3904 C 0.77034 0.50226 0.98987 0.0
C3905 C 0.76344 0.48742 0.99975 0.0
C3906 C 0.77407 0.4717 1.00144 0.0
C3907 C 0.79136 0.47088 0.99377 0.0
H3908 H 0.76308 0.47234 0.30191 0.0
H3909 H 0.77707 0.45299 0.24832 0.0
H3910 H 0.76053 0.50327 0.28987 0.0
H3911 H 0.7751 0.48361 0.23652 0.0
H3912 H 0.76002 0.53951 0.21624 0.0
H3913 H 0.75649 0.5088 0.22861 0.0
H3914 H 0.78032 0.52654 0.27924 0.0
H3915 H 0.78332 0.55699 0.26718 0.0
C3916 C 0.76551 0.47464 0.28759 0.0
C3917 C 0.7704 0.46015 0.27617 0.0
C3918 C 0.76416 0.49239 0.28067 0.0
C3919 C 0.76769 0.49605 0.26217 0.0
C3920 C 0.77202 0.48141 0.25073 0.0
C3921 C 0.77332 0.46377 0.25761 0.0
C3922 C 0.76436 0.53683 0.23004 0.0
C3923 C 0.77205 0.55073 0.24063 0.0
C3924 C 0.76241 0.51921 0.23715 0.0
C3925 C 0.76814 0.51509 0.25499 0.0
C3926 C 0.77546 0.52915 0.26561 0.0
C3927 C 0.77735 0.54667 0.25856 0.0
H3928 H 0.47123 0.72315 0.7593 0.0
H3929 H 0.45937 0.75289 0.71014 0.0
H3930 H 0.50133 0.73792 0.76067 0.0
H3931 H 0.4891 0.76716 0.71141 0.0
H3932 H 0.55182 0.76584 0.70718 0.0
H3933 H 0.52193 0.75187 0.70895 0.0
H3934 H 0.51433 0.77446 0.76247 0.0
H3935 H 0.54454 0.78893 0.76061 0.0
C3936 C 0.47505 0.73271 0.74879 0.0
C3937 C 0.46294 0.7368 0.73459 0.0
C3938 C 0.49214 0.74127 0.74968 0.0
C3939 C 0.49746 0.75373 0.73617 0.0
C3940 C 0.48536 0.75765 0.722 0.0
C3941 C 0.46832 0.74942 0.72129 0.0
C3942 C 0.5438 0.76796 0.71933 0.0
C3943 C 0.5505 0.77859 0.73371 0.0
C3944 C 0.52669 0.7599 0.72034 0.0
C3945 C 0.51588 0.76197 0.73588 0.0
C3946 C 0.5225 0.77253 0.7504 0.0
C3947 C 0.53963 0.78097 0.74924 0.0
H3948 H 0.49982 0.54874 0.29061 0.0
H3949 H 0.48005 0.49714 0.31037 0.0
H3950 H 0.50256 0.53581 0.26011 0.0
H3951 H 0.48225 0.48447 0.28004 0.0
H3952 H 0.49883 0.46197 0.22509 0.0
H3953 H 0.50148 0.47444 0.25586 0.0
H3954 H 0.48282 0.52653 0.23626 0.0
H3955 H 0.48068 0.51434 0.20581 0.0
C3956 C 0.49611 0.53466 0.28848 0.0
C3957 C 0.4896 0.52406 0.30294 0.0
C3958 C 0.49759 0.52724 0.27097 0.0
C3959 C 0.49254 0.50906 0.26751 0.0
C3960 C 0.48651 0.49839 0.28214 0.0
C3961 C 0.48509 0.50577 0.29957 0.0
C3962 C 0.49544 0.47609 0.22738 0.0
C3963 C 0.48948 0.48708 0.21296 0.0
C3964 C 0.49688 0.48326 0.24503 0.0
C3965 C 0.49238 0.50156 0.24862 0.0
C3966 C 0.48673 0.51252 0.23407 0.0
C3967 C 0.48533 0.5054 0.21654 0.0
H3968 H 0.24812 0.73242 0.95349 0.0
H3969 H 0.30003 0.75019 0.97427 0.0
H3970 H 0.23516 0.73441 0.98364 0.0
H3971 H 0.28679 0.75274 1.00468 0.0
H3972 H 0.26357 0.73031 0.0582 0.0
H3973 H 0.27647 0.73291 0.02809 0.0
H3974 H 0.22535 0.75348 0.0079 0.0
H3975 H 0.21215 0.75034 0.03829 0.0
C3976 C 0.25678 0.73698 0.96448 0.0
C3977 C 0.27522 0.74099 0.96143 0.0
C3978 C 0.24922 0.73829 0.98183 0.0
C3979 C 0.25985 0.74372 0.99671 0.0
C3980 C 0.27822 0.74825 0.9936 0.0
C3981 C 0.28583 0.74689 0.97616 0.0
C3982 C 0.25501 0.73548 0.04741 0.0
C3983 C 0.23672 0.73999 0.05069 0.0
C3984 C 0.26253 0.73714 0.03008 0.0
C3985 C 0.25204 0.74344 0.01546 0.0
C3986 C 0.23381 0.74836 0.01879 0.0
C3987 C 0.22623 0.74663 0.03621 0.0
H3988 H 0.02262 0.49711 0.70472 0.0
H3989 H 0.01376 0.55084 0.7266 0.0
H3990 H 0.02181 0.48439 0.73504 0.0
H3991 H 0.01242 0.53792 0.75724 0.0
H3992 H 0.03714 0.5119 0.80847 0.0
H3993 H 0.03323 0.52506 0.77858 0.0
H3994 H 1.00414 0.4771 0.76124 0.0
H3995 H 0.00851 0.4636 0.79134 0.0
C3996 C 0.02025 0.50624 0.71601 0.0
C3997 C 0.01844 0.52508 0.71319 0.0
C3998 C 0.01962 0.49886 0.73347 0.0
C3999 C 0.01711 0.51006 0.7487 0.0
C4000 C 0.01465 0.52888 0.74586 0.0
C4001 C 0.01531 0.53631 0.7283 0.0
C4002 C 0.02983 0.5041 0.79835 0.0
C4003 C 0.02324 0.48658 0.80233 0.0
C4004 C 0.02743 0.51179 0.78118 0.0
C4005 C 0.01831 0.50224 0.76741 0.0
C4006 C 0.01141 0.4848 0.77144 0.0
C4007 C 0.01386 0.47705 0.78871 0.0
H4008 H 0.26476 0.28135 0.45429 0.0
H4009 H 0.21263 0.26384 0.47471 0.0
H4010 H 0.27743 0.27961 0.48457 0.0
H4011 H 0.22559 0.26156 0.50529 0.0
H4012 H 0.24902 0.28382 0.55908 0.0
H4013 H 0.236 0.28119 0.52894 0.0
H4014 H 0.28701 0.26043 0.50871 0.0
H4015 H 0.30029 0.26362 0.53902 0.0
C4016 C 0.25598 0.2769 0.46524 0.0
C4017 C 0.23758 0.27285 0.46203 0.0
C4018 C 0.26337 0.27574 0.48267 0.0
C4019 C 0.25262 0.27041 0.49749 0.0
C4020 C 0.23426 0.26594 0.49425 0.0
C4021 C 0.22681 0.26715 0.47671 0.0
C4022 C 0.25751 0.2786 0.54826 0.0
C4023 C 0.27581 0.27407 0.55149 0.0
C4024 C 0.24993 0.27693 0.53093 0.0
C4025 C 0.26039 0.27062 0.51628 0.0
C4026 C 0.27859 0.26561 0.5196 0.0
C4027 C 0.28622 0.26734 0.53699 0.0
H4028 H 0.20583 0.48582 0.51546 0.0
H4029 H 0.22615 0.49906 0.46205 0.0
H4030 H 0.23627 0.4879 0.52779 0.0
H4031 H 0.25688 0.5016 0.4746 0.0
H4032 H 0.30993 0.47862 0.49874 0.0
H4033 H 0.27968 0.48137 0.48613 0.0
H4034 H 0.2614 0.50715 0.53558 0.0
H4035 H 0.29192 0.50399 0.54849 0.0
C4036 C 0.21679 0.4894 0.50633 0.0
C4037 C 0.21352 0.49211 0.48768 0.0
C4038 C 0.2343 0.49076 0.5135 0.0
C4039 C 0.24913 0.49489 0.50225 0.0
C4040 C 0.24582 0.49815 0.48365 0.0
C4041 C 0.2282 0.4968 0.47644 0.0
C4042 C 0.29953 0.48496 0.50699 0.0
C4043 C 0.30338 0.49096 0.52474 0.0
C4044 C 0.28214 0.4867 0.49962 0.0
C4045 C 0.26801 0.49452 0.50975 0.0
C4046 C 0.2719 0.50087 0.52742 0.0
C4047 C 0.2894 0.49913 0.53483 0.0
H4048 H 0.25428 0.47362 0.21886 0.0
H4049 H 0.28806 0.45546 0.26328 0.0
H4050 H 0.24891 0.50239 0.23503 0.0
H4051 H 0.28261 0.48369 0.27923 0.0
H4052 H 0.28769 0.54385 0.29231 0.0
H4053 H 0.29128 0.51544 0.27587 0.0
H4054 H 0.23401 0.51517 0.26335 0.0
H4055 H 0.23039 0.54394 0.27978 0.0
C4056 C 0.26054 0.47573 0.232 0.0
C4057 C 0.27168 0.46223 0.23968 0.0
C4058 C 0.25737 0.49214 0.24133 0.0
C4059 C 0.26542 0.4954 0.25841 0.0
C4060 C 0.27641 0.4818 0.26602 0.0
C4061 C 0.27947 0.46551 0.25683 0.0
C4062 C 0.27579 0.53772 0.2862 0.0
C4063 C 0.25872 0.54619 0.28749 0.0
C4064 C 0.27785 0.52137 0.27677 0.0
C4065 C 0.26294 0.51298 0.26826 0.0
C4066 C 0.24581 0.52136 0.2696 0.0
C4067 C 0.2437 0.53773 0.27919 0.0
H4068 H 0.30882 0.53532 0.01603 0.0
H4069 H 0.28923 0.51333 0.96527 0.0
H4070 H 0.27863 0.53311 0.02888 0.0
H4071 H 0.25881 0.5106 0.97841 0.0
H4072 H 0.2042 0.5319 0.99981 0.0
H4073 H 0.23452 0.53001 0.98732 0.0
H4074 H 0.25513 0.51356 0.03976 0.0
H4075 H 0.22449 0.51598 0.05252 0.0
C4076 C 0.29809 0.52982 0.00761 0.0
C4077 C 0.30148 0.52464 0.98951 0.0
C4078 C 0.28073 0.52838 0.01511 0.0
C4079 C 0.26618 0.52166 1.00476 0.0
C4080 C 0.26962 0.51607 0.98674 0.0
C4081 C 0.28707 0.51757 0.97919 0.0
C4082 C 0.21513 0.5278 0.00876 0.0
C4083 C 0.21186 0.52421 0.02726 0.0
C4084 C 0.23258 0.52654 1.00148 0.0
C4085 C 0.24738 0.5216 0.01244 0.0
C4086 C 0.2441 0.51763 0.03092 0.0
C4087 C 0.22653 0.51893 0.03826 0.0
H4088 H 0.23078 0.55915 0.76451 0.0
H4089 H 0.24906 0.53918 0.71246 0.0
H4090 H 0.23338 0.52895 0.77724 0.0
H4091 H 0.25223 0.50871 0.72547 0.0
H4092 H 0.23078 0.45455 0.74826 0.0
H4093 H 0.23298 0.48478 0.73554 0.0
H4094 H 0.25287 0.50502 0.78693 0.0
H4095 H 0.25011 0.47451 0.79996 0.0
C4096 C 0.23558 0.54833 0.75578 0.0
C4097 C 0.23956 0.55162 0.73736 0.0
C4098 C 0.23725 0.53095 0.7632 0.0
C4099 C 0.24302 0.51627 0.75246 0.0
C4100 C 0.2475 0.51963 0.73412 0.0
C4101 C 0.24577 0.53711 0.72665 0.0
C4102 C 0.23573 0.46537 0.75692 0.0
C4103 C 0.24013 0.46207 0.77524 0.0
C4104 C 0.23716 0.48277 0.7495 0.0
C4105 C 0.24311 0.49745 0.76013 0.0
C4106 C 0.248 0.4941 0.77837 0.0
C4107 C 0.2465 0.4766 0.78585 0.0
H4108 H 0.53903 0.30028 0.25951 0.0
H4109 H 0.55644 0.24986 0.28398 0.0
H4110 H 0.50848 0.28765 0.25573 0.0
H4111 H 0.52614 0.23755 0.28071 0.0
H4112 H 0.47241 0.21417 0.26329 0.0
H4113 H 0.50325 0.22643 0.26066 0.0
H4114 H 0.48312 0.27989 0.27419 0.0
H4115 H 0.45261 0.26787 0.27624 0.0
C4116 C 0.53637 0.28654 0.26406 0.0
C4117 C 0.55021 0.27618 0.27214 0.0
C4118 C 0.51884 0.27928 0.26196 0.0
C4119 C 0.51474 0.26151 0.26792 0.0
C4120 C 0.52874 0.25111 0.27565 0.0
C4121 C 0.54617 0.25832 0.2777 0.0
C4122 C 0.47458 0.22856 0.26543 0.0
C4123 C 0.46002 0.23995 0.27012 0.0
C4124 C 0.49227 0.23561 0.26405 0.0
C4125 C 0.49578 0.2542 0.26732 0.0
C4126 C 0.48104 0.26561 0.27134 0.0
C4127 C 0.46347 0.25861 0.27269 0.0
H4128 H 0.1843 0.06445 0.33679 0.0
H4129 H 0.16801 0.10422 0.29688 0.0
H4130 H 0.15276 0.05866 0.34419 0.0
H4131 H 0.13613 0.09796 0.30389 0.0
H4132 H 0.08257 0.09775 0.33496 0.0
H4133 H 0.11406 0.10267 0.32673 0.0
H4134 H 0.12502 0.04554 0.33471 0.0
H4135 H 0.09333 0.04073 0.34355 0.0
C4136 C 0.17397 0.07188 0.32941 0.0
C4137 C 0.1788 0.0849 0.31624 0.0
C4138 C 0.15576 0.06841 0.33361 0.0
C4139 C 0.14171 0.07778 0.32471 0.0
C4140 C 0.14652 0.09064 0.31129 0.0
C4141 C 0.16483 0.09418 0.30714 0.0
C4142 C 0.09166 0.08618 0.33503 0.0
C4143 C 0.08534 0.06881 0.33998 0.0
C4144 C 0.10979 0.08901 0.3301 0.0
C4145 C 0.12224 0.07453 0.32983 0.0
C4146 C 0.11595 0.05711 0.33491 0.0
C4147 C 0.09774 0.0543 0.33997 0.0
H4148 H 0.20016 0.93561 0.58672 0.0
H4149 H 0.15987 0.92035 0.54692 0.0
H4150 H 0.20544 0.90389 0.59382 0.0
H4151 H 0.16562 0.88828 0.55363 0.0
H4152 H 0.16509 0.83442 0.58428 0.0
H4153 H 0.16067 0.86608 0.57631 0.0
H4154 H 0.21798 0.876 0.58404 0.0
H4155 H 0.22229 0.84414 0.59262 0.0
C4156 C 0.19251 0.92546 0.5793 0.0
C4157 C 0.1795 0.93063 0.56625 0.0
C4158 C 0.19568 0.90715 0.58332 0.0
C4159 C 0.18601 0.89333 0.57436 0.0
C4160 C 0.17317 0.89848 0.56106 0.0
C4161 C 0.16992 0.91689 0.55709 0.0
C4162 C 0.1768 0.84332 0.58436 0.0
C4163 C 0.19408 0.83666 0.58915 0.0
C4164 C 0.17426 0.86154 0.57958 0.0
C4165 C 0.18894 0.87375 0.57932 0.0
C4166 C 0.20626 0.86712 0.58425 0.0
C4167 C 0.20879 0.84882 0.58916 0.0
H4168 H 0.34227 0.91626 0.79412 0.0
H4169 H 0.32886 0.93883 0.84657 0.0
H4170 H 0.3743 0.9235 0.79941 0.0
H4171 H 0.36061 0.94558 0.85203 0.0
H4172 H 0.41724 0.97042 0.85076 0.0
H4173 H 0.38522 0.96484 0.84375 0.0
H4174 H 0.39979 0.91453 0.81725 0.0
H4175 H 0.43155 0.92032 0.82379 0.0
C4176 C 0.34613 0.92266 0.80679 0.0
C4177 C 0.33292 0.92692 0.81988 0.0
C4178 C 0.36453 0.92678 0.80988 0.0
C4179 C 0.37016 0.93522 0.82617 0.0
C4180 C 0.35687 0.93942 0.8392 0.0
C4181 C 0.33858 0.93537 0.83609 0.0
C4182 C 0.41358 0.95821 0.84342 0.0
C4183 C 0.42703 0.94585 0.8379 0.0
C4184 C 0.3952 0.95493 0.83944 0.0
C4185 C 0.3898 0.93919 0.82987 0.0
C4186 C 0.40333 0.92693 0.82433 0.0
C4187 C 0.42163 0.93022 0.82826 0.0
H4188 H 0.31576 0.17064 0.11131 0.0
H4189 H 0.31915 0.18241 0.054 0.0
H4190 H 0.3264 0.13953 0.10539 0.0
H4191 H 0.32968 0.15164 0.04811 0.0
H4192 H 0.33465 0.08974 0.04206 0.0
H4193 H 0.32099 0.11936 0.04844 0.0
H4194 H 0.35551 0.12524 0.09546 0.0
H4195 H 0.36915 0.09571 0.08913 0.0
C4196 C 0.31842 0.1665 0.09745 0.0
C4197 C 0.31661 0.17903 0.08315 0.0
C4198 C 0.32471 0.14875 0.09405 0.0
C4199 C 0.32903 0.14306 0.07625 0.0
C4200 C 0.3264 0.15541 0.06195 0.0
C4201 C 0.32039 0.17313 0.06536 0.0
C4202 C 0.33943 0.0974 0.05368 0.0
C4203 C 0.35312 0.0903 0.06498 0.0
C4204 C 0.33157 0.11439 0.05737 0.0
C4205 C 0.33703 0.12469 0.07257 0.0
C4206 C 0.35074 0.1176 0.08382 0.0
C4207 C 0.35873 0.10071 0.08003 0.0
H4208 H 0.16908 0.91292 0.21462 0.0
H4209 H 0.18364 0.94713 0.16925 0.0
H4210 H 0.13694 0.9191 0.20873 0.0
H4211 H 0.15182 0.95281 0.16305 0.0
H4212 H 0.09305 0.97241 0.165 0.0
H4213 H 0.12506 0.96783 0.17276 0.0
H4214 H 0.11343 0.91229 0.1878 0.0
H4215 H 0.08166 0.91701 0.1806 0.0
C4216 C 0.16545 0.9217 0.20339 0.0
C4217 C 0.17901 0.92948 0.19244 0.0
C4218 C 0.147 0.9252 0.19991 0.0
C4219 C 0.14164 0.93649 0.18535 0.0
C4220 C 0.15528 0.94432 0.17455 0.0
C4221 C 0.17363 0.9409 0.17806 0.0
C4222 C 0.09737 0.95924 0.16994 0.0
C4223 C 0.08472 0.94512 0.17215 0.0
C4224 C 0.11576 0.95656 0.17436 0.0
C4225 C 0.12197 0.93966 0.18103 0.0
C4226 C 0.10924 0.92558 0.1831 0.0
C4227 C 0.09095 0.92828 0.17878 0.0
H4228 H 0.31728 0.93348 0.41713 0.0
H4229 H 0.34986 0.91862 0.46357 0.0
H4230 H 0.31106 0.9017 0.41106 0.0
H4231 H 0.34314 0.88655 0.4578 0.0
H4232 H 0.34498 0.83095 0.4303 0.0
H4233 H 0.35004 0.8627 0.43735 0.0
H4234 H 0.29528 0.87518 0.42038 0.0
H4235 H 0.29037 0.84313 0.41278 0.0
C4236 C 0.32304 0.92343 0.4262 0.0
C4237 C 0.33418 0.92871 0.44084 0.0
C4238 C 0.3193 0.90509 0.42276 0.0
C4239 C 0.32652 0.89136 0.43389 0.0
C4240 C 0.33751 0.89665 0.44872 0.0
C4241 C 0.34132 0.91508 0.45213 0.0
C4242 C 0.33395 0.84041 0.42802 0.0
C4243 C 0.31723 0.83438 0.42091 0.0
C4244 C 0.33684 0.85871 0.43226 0.0
C4245 C 0.32309 0.87168 0.42963 0.0
C4246 C 0.30632 0.86569 0.42245 0.0
C4247 C 0.30344 0.84727 0.41811 0.0
H4248 H 0.4203 0.04427 0.67024 0.0
H4249 H 0.43073 0.10135 0.67883 0.0
H4250 H 0.38864 0.04885 0.67929 0.0
H4251 H 0.39925 0.10604 0.68727 0.0
H4252 H 0.34541 0.10719 0.71741 0.0
H4253 H 0.3773 0.10118 0.71021 0.0
H4254 H 0.36075 0.06172 0.67002 0.0
H4255 H 0.32922 0.06726 0.67759 0.0
C4256 C 0.41582 0.05781 0.67386 0.0
C4257 C 0.42813 0.0724 0.67379 0.0
C4258 C 0.39762 0.06049 0.67904 0.0
C4259 C 0.39124 0.07785 0.68418 0.0
C4260 C 0.4036 0.09241 0.68385 0.0
C4261 C 0.42171 0.08972 0.6788 0.0
C4262 C 0.34862 0.09716 0.70714 0.0
C4263 C 0.33467 0.08776 0.69811 0.0
C4264 C 0.36693 0.09377 0.70288 0.0
C4265 C 0.37177 0.08095 0.68944 0.0
C4266 C 0.35774 0.07145 0.68062 0.0
C4267 C 0.33953 0.07477 0.68492 0.0
H4268 H 0.18726 0.18139 0.9569 0.0
H4269 H 0.21074 0.1677 0.90496 0.0
H4270 H 0.18136 0.14949 0.96285 0.0
H4271 H 0.20422 0.1356 0.9106 0.0
H4272 H 0.20578 0.07813 0.93281 0.0
H4273 H 0.21241 0.10997 0.92771 0.0
H4274 H 0.16268 0.12468 0.95516 0.0
H4275 H 0.15637 0.09251 0.96086 0.0
C4276 C 0.19114 0.17154 0.94667 0.0
C4277 C 0.19952 0.17716 0.93042 0.0
C4278 C 0.18757 0.15317 0.95005 0.0
C4279 C 0.19213 0.13978 0.93721 0.0
C4280 C 0.2007 0.1454 0.92098 0.0
C4281 C 0.20443 0.16384 0.91768 0.0
C4282 C 0.19622 0.08812 0.93784 0.0
C4283 C 0.18049 0.08269 0.94725 0.0
C4284 C 0.19999 0.10649 0.93475 0.0
C4285 C 0.18807 0.1201 0.94082 0.0
C4286 C 0.17235 0.11468 0.95042 0.0
C4287 C 0.16866 0.09621 0.95367 0.0
H4288 H 0.09054 0.31644 0.07712 0.0
H4289 H 0.04904 0.35469 0.09306 0.0
H4290 H 0.09721 0.31019 0.10877 0.0
H4291 H 0.05535 0.34798 0.125 0.0
H4292 H 0.08487 0.34748 0.17945 0.0
H4293 H 0.07746 0.35285 0.14783 0.0
H4294 H 0.08715 0.29617 0.13595 0.0
H4295 H 0.09513 0.2909 0.16783 0.0
C4296 C 0.08268 0.32345 0.08739 0.0
C4297 C 0.06925 0.33616 0.08245 0.0
C4298 C 0.08645 0.31971 0.10565 0.0
C4299 C 0.07687 0.32851 0.11963 0.0
C4300 C 0.06325 0.34109 0.11469 0.0
C4301 C 0.05952 0.3449 0.09634 0.0
C4302 C 0.08548 0.33609 0.17014 0.0
C4303 C 0.09064 0.31872 0.17627 0.0
C4304 C 0.08103 0.33918 0.15193 0.0
C4305 C 0.08149 0.32497 0.13918 0.0
C4306 C 0.08679 0.30755 0.14527 0.0
C4307 C 0.09135 0.30447 0.16358 0.0
H4308 H 0.58723 0.14103 0.91923 0.0
H4309 H 0.54571 0.18143 0.92839 0.0
H4310 H 0.59367 0.15439 0.88954 0.0
H4311 H 0.55215 0.19475 0.89867 0.0
H4312 H 0.55425 0.19727 0.83556 0.0
H4313 H 0.54875 0.18636 0.86627 0.0
H4314 H 0.60654 0.18289 0.87545 0.0
H4315 H 0.61208 0.19397 0.84444 0.0
C4316 C 0.57937 0.15268 0.91489 0.0
C4317 C 0.56584 0.16005 0.92623 0.0
C4318 C 0.58323 0.16047 0.89793 0.0
C4319 C 0.57353 0.17573 0.89173 0.0
C4320 C 0.55985 0.18296 0.90296 0.0
C4321 C 0.55613 0.1753 0.92002 0.0
C4322 C 0.56583 0.19443 0.84418 0.0
C4323 C 0.58362 0.1965 0.83751 0.0
C4324 C 0.56265 0.18821 0.86185 0.0
C4325 C 0.57717 0.18363 0.87335 0.0
C4326 C 0.59503 0.18613 0.86688 0.0
C4327 C 0.59823 0.19265 0.84919 0.0
H4328 H 0.94451 0.80267 0.42961 0.0
H4329 H 0.94266 0.86047 0.4199 0.0
H4330 H 0.93407 0.79696 0.39878 0.0
H4331 H 0.9321 0.85472 0.38874 0.0
H4332 H 0.89082 0.83602 0.34436 0.0
H4333 H 0.90375 0.84247 0.37422 0.0
H4334 H 0.94289 0.79951 0.36654 0.0
H4335 H 0.92997 0.79302 0.33664 0.0
C4336 C 0.94209 0.8142 0.42079 0.0
C4337 C 0.94442 0.83205 0.42727 0.0
C4338 C 0.93615 0.8109 0.40304 0.0
C4339 C 0.93212 0.82535 0.39125 0.0
C4340 C 0.9349 0.84326 0.39753 0.0
C4341 C 0.94113 0.84657 0.41531 0.0
C4342 C 0.9021 0.82783 0.34906 0.0
C4343 C 0.90924 0.81389 0.33806 0.0
C4344 C 0.90966 0.8317 0.36612 0.0
C4345 C 0.92446 0.82161 0.37278 0.0
C4346 C 0.93145 0.8075 0.3619 0.0
C4347 C 0.92401 0.80376 0.34474 0.0
H4348 H 0.91741 0.19273 0.07934 0.0
H4349 H 0.96722 0.16549 0.09405 0.0
H4350 H 0.9112 0.19894 0.11107 0.0
H4351 H 0.9612 0.17218 0.12609 0.0
H4352 H 0.93448 0.16883 0.18212 0.0
H4353 H 0.94172 0.16374 0.15042 0.0
H4354 H 0.91958 0.2164 0.13694 0.0
H4355 H 0.91185 0.22132 0.16894 0.0
C4356 C 0.92717 0.18814 0.08935 0.0
C4357 C 0.94284 0.17851 0.08404 0.0
C4358 C 0.92363 0.19187 0.10764 0.0
C4359 C 0.93567 0.18616 0.12131 0.0
C4360 C 0.95146 0.17663 0.11602 0.0
C4361 C 0.95499 0.17283 0.09762 0.0
C4362 C 0.9311 0.17939 0.17246 0.0
C4363 C 0.9225 0.19551 0.17818 0.0
C4364 C 0.93545 0.1765 0.15419 0.0
C4365 C 0.93139 0.18965 0.14096 0.0
C4366 C 0.92277 0.20583 0.14665 0.0
C4367 C 0.91835 0.20871 0.16503 0.0
H4368 H 0.4363 0.70444 0.57987 0.0
H4369 H 0.46001 0.65263 0.59374 0.0
H4370 H 0.43023 0.71045 0.61166 0.0
H4371 H 0.45331 0.65835 0.62583 0.0
H4372 H 0.45409 0.68121 0.68334 0.0
H4373 H 0.461 0.6756 0.65163 0.0
H4374 H 0.4113 0.70268 0.6361 0.0
H4375 H 0.40472 0.70889 0.66807 0.0
C4376 C 0.44018 0.69424 0.58974 0.0
C4377 C 0.44864 0.678 0.58419 0.0
C4378 C 0.43652 0.69765 0.60806 0.0
C4379 C 0.44103 0.68486 0.6215 0.0
C4380 C 0.44977 0.66867 0.61598 0.0
C4381 C 0.45361 0.66532 0.59755 0.0
C4382 C 0.4446 0.68604 0.67319 0.0
C4383 C 0.42881 0.69554 0.67833 0.0
C4384 C 0.44853 0.68266 0.65491 0.0
C4385 C 0.43673 0.68854 0.6411 0.0
C4386 C 0.42091 0.69813 0.64624 0.0
C4387 C 0.41705 0.70166 0.66461 0.0
H4388 H 0.09776 0.7169 0.34422 0.0
H4389 H 0.0716 0.66624 0.33037 0.0
H4390 H 0.09086 0.7115 0.37631 0.0
H4391 H 0.06519 0.66063 0.36217 0.0
H4392 H 0.04218 0.66225 0.41972 0.0
H4393 H 0.04728 0.66938 0.38762 0.0
H4394 H 0.09942 0.69266 0.40114 0.0
H4395 H 0.09414 0.68603 0.43295 0.0
C4396 C 0.09061 0.70461 0.348 0.0
C4397 C 0.08529 0.69204 0.33465 0.0
C4398 C 0.0867 0.70143 0.36642 0.0
C4399 C 0.0774 0.68558 0.37197 0.0
C4400 C 0.07205 0.67312 0.35853 0.0
C4401 C 0.07591 0.6763 0.3402 0.0
C4402 C 0.05471 0.66888 0.4158 0.0
C4403 C 0.06771 0.67352 0.42898 0.0
C4404 C 0.0577 0.67295 0.39737 0.0
C4405 C 0.07379 0.6817 0.39166 0.0
C4406 C 0.08673 0.68627 0.40492 0.0
C4407 C 0.08373 0.68228 0.42325 0.0
H4408 H 0.41352 0.29171 0.8432 0.0
H4409 H 0.43467 0.34505 0.83099 0.0
H4410 H 0.42077 0.29643 0.87536 0.0
H4411 H 0.44142 0.34992 0.86283 0.0
H4412 H 0.46651 0.3483 0.9193 0.0
H4413 H 0.46099 0.34171 0.88715 0.0
H4414 H 0.41168 0.31331 0.90143 0.0
H4415 H 0.41742 0.31942 0.93328 0.0
C4416 C 0.4196 0.30445 0.84736 0.0
C4417 C 0.42348 0.31795 0.83443 0.0
C4418 C 0.42373 0.30722 0.86582 0.0
C4419 C 0.43182 0.32358 0.87183 0.0
C4420 C 0.43558 0.33702 0.85882 0.0
C4421 C 0.43152 0.33425 0.84047 0.0
C4422 C 0.45454 0.34061 0.91555 0.0
C4423 C 0.44243 0.33446 0.92895 0.0
C4424 C 0.45129 0.33688 0.89708 0.0
C4425 C 0.43583 0.32693 0.89155 0.0
C4426 C 0.42386 0.32071 0.90504 0.0
C4427 C 0.42712 0.32439 0.92341 0.0
H4428 H 0.91914 0.96256 0.65031 0.0
H4429 H 0.93286 0.936 0.70074 0.0
H4430 H 0.88699 0.95596 0.65577 0.0
H4431 H 0.90103 0.92999 0.70651 0.0
H4432 H 0.84416 0.90553 0.70408 0.0
H4433 H 0.87619 0.91189 0.698 0.0
H4434 H 0.86135 0.96311 0.67345 0.0
H4435 H 0.82956 0.95645 0.67894 0.0
C4436 C 0.9153 0.95553 0.66264 0.0
C4437 C 0.92865 0.94978 0.67501 0.0
C4438 C 0.89683 0.95174 0.66585 0.0
C4439 C 0.89123 0.94225 0.68158 0.0
C4440 C 0.90466 0.93689 0.69405 0.0
C4441 C 0.92302 0.94052 0.69078 0.0
C4442 C 0.84777 0.91814 0.69743 0.0
C4443 C 0.83421 0.93041 0.692 0.0
C4444 C 0.86619 0.92188 0.69397 0.0
C4445 C 0.87155 0.93806 0.68513 0.0
C4446 C 0.85791 0.95036 0.67992 0.0
C4447 C 0.83957 0.94657 0.68324 0.0
H4448 H 0.79714 0.1699 0.42995 0.0
H4449 H 0.85304 0.18 0.41551 0.0
H4450 H 0.80511 0.1384 0.43805 0.0
H4451 H 0.86084 0.14885 0.42334 0.0
H4452 H 0.8614 0.08637 0.41675 0.0
H4453 H 0.85324 0.11783 0.4105 0.0
H4454 H 0.82574 0.12109 0.46214 0.0
H4455 H 0.83421 0.08932 0.46856 0.0
C4456 C 0.81103 0.16537 0.42832 0.0
C4457 C 0.82442 0.17746 0.42198 0.0
C4458 C 0.81564 0.14742 0.43315 0.0
C4459 C 0.83364 0.14114 0.43141 0.0
C4460 C 0.84686 0.15319 0.4248 0.0
C4461 C 0.84235 0.17108 0.42029 0.0
C4462 C 0.85385 0.09385 0.42693 0.0
C4463 C 0.84862 0.08539 0.44323 0.0
C4464 C 0.84914 0.11189 0.42332 0.0
C4465 C 0.83875 0.12196 0.43576 0.0
C4466 C 0.83363 0.11363 0.45222 0.0
C4467 C 0.83868 0.09555 0.45601 0.0
H4468 H 0.59246 0.04281 0.16224 0.0
H4469 H 0.57966 0.09541 0.18485 0.0
H4470 H 0.62458 0.04773 0.16957 0.0
H4471 H 0.61141 0.1005 0.19166 0.0
H4472 H 0.66779 0.09905 0.21668 0.0
H4473 H 0.63577 0.09214 0.21098 0.0
H4474 H 0.65047 0.06516 0.16098 0.0
H4475 H 0.68223 0.07158 0.16691 0.0
C4476 C 0.59647 0.05542 0.16866 0.0
C4477 C 0.58339 0.06866 0.17293 0.0
C4478 C 0.61491 0.05832 0.17284 0.0
C4479 C 0.62072 0.07453 0.18135 0.0
C4480 C 0.60756 0.0877 0.1855 0.0
C4481 C 0.58925 0.0848 0.1814 0.0
C4482 C 0.66416 0.09162 0.20451 0.0
C4483 C 0.67766 0.08594 0.19228 0.0
C4484 C 0.64577 0.08769 0.20116 0.0
C4485 C 0.64038 0.07804 0.18545 0.0
C4486 C 0.65397 0.07232 0.17334 0.0
C4487 C 0.67228 0.07618 0.17671 0.0
H4488 H 0.68597 0.83102 0.95751 0.0
H4489 H 0.70818 0.84482 0.90507 0.0
H4490 H 0.6799 0.86283 0.96357 0.0
H4491 H 0.70149 0.8769 0.91083 0.0
H4492 H 0.70245 0.93461 0.93288 0.0
H4493 H 0.70942 0.90287 0.9275 0.0
H4494 H 0.66084 0.88736 0.95655 0.0
H4495 H 0.65423 0.91941 0.96251 0.0
C4496 C 0.68953 0.84087 0.94718 0.0
C4497 C 0.69759 0.83527 0.93075 0.0
C4498 C 0.68586 0.85922 0.95063 0.0
C4499 C 0.68997 0.87265 0.93769 0.0
C4500 C 0.69828 0.86707 0.92129 0.0
C4501 C 0.70212 0.84864 0.91791 0.0
C4502 C 0.69323 0.92446 0.93821 0.0
C4503 C 0.67773 0.92966 0.94816 0.0
C4504 C 0.69718 0.90614 0.93496 0.0
C4505 C 0.6857 0.89231 0.9414 0.0
C4506 C 0.67022 0.89751 0.95152 0.0
C4507 C 0.66633 0.91593 0.95492 0.0
H4508 H 0.92022 0.04411 0.84922 0.0
H4509 H 0.93421 0.09556 0.82474 0.0
H4510 H 0.88823 0.04953 0.84188 0.0
H4511 H 0.90251 0.10116 0.81789 0.0
H4512 H 0.84556 0.09986 0.7936 0.0
H4513 H 0.87756 0.09264 0.79915 0.0
H4514 H 0.8631 0.06802 0.85041 0.0
H4515 H 0.8314 0.07475 0.84467 0.0
C4516 C 0.9165 0.05659 0.84237 0.0
C4517 C 0.92986 0.06936 0.83762 0.0
C4518 C 0.89813 0.05976 0.8382 0.0
C4519 C 0.89266 0.07582 0.82921 0.0
C4520 C 0.9061 0.08851 0.82448 0.0
C4521 C 0.92437 0.08533 0.8286 0.0
C4522 C 0.84925 0.09289 0.80602 0.0
C4523 C 0.83584 0.08794 0.81865 0.0
C4524 C 0.86762 0.08879 0.80927 0.0
C4525 C 0.87304 0.07966 0.82526 0.0
C4526 C 0.85955 0.07472 0.83781 0.0
C4527 C 0.84128 0.07877 0.83455 0.0
H4528 H 0.66002 0.08582 0.60404 0.0
H4529 H 0.67859 0.09407 0.54907 0.0
H4530 H 0.66883 0.11674 0.61182 0.0
H4531 H 0.68769 0.12532 0.55702 0.0
H4532 H 0.71929 0.17297 0.58764 0.0
H4533 H 0.71134 0.14164 0.5788 0.0
H4534 H 0.65851 0.14831 0.60321 0.0
H4535 H 0.66628 0.17931 0.61175 0.0
C4536 C 0.66587 0.09431 0.59354 0.0
C4537 C 0.66845 0.08748 0.57588 0.0
C4538 C 0.67095 0.11206 0.59803 0.0
C4539 C 0.67906 0.12351 0.58509 0.0
C4540 C 0.68162 0.11678 0.56735 0.0
C4541 C 0.67621 0.09899 0.56273 0.0
C4542 C 0.7061 0.1676 0.59131 0.0
C4543 C 0.69347 0.17861 0.60052 0.0
C4544 C 0.70145 0.14977 0.58605 0.0
C4545 C 0.68424 0.14249 0.59023 0.0
C4546 C 0.67188 0.15342 0.59983 0.0
C4547 C 0.67637 0.17121 0.60475 0.0
H4548 H 0.59446 0.96815 0.33353 0.0
H4549 H 0.58645 0.91357 0.35338 0.0
H4550 H 0.62609 0.96043 0.32565 0.0
H4551 H 0.61771 0.90603 0.3458 0.0
H4552 H 0.68006 0.90712 0.35044 0.0
H4553 H 0.64882 0.91569 0.35701 0.0
H4554 H 0.64335 0.93781 0.30303 0.0
H4555 H 0.67493 0.92894 0.29628 0.0
C4556 C 0.5995 0.95464 0.33646 0.0
C4557 C 0.58796 0.94152 0.3442 0.0
C4558 C 0.61751 0.95015 0.33174 0.0
C4559 C 0.62441 0.93257 0.33503 0.0
C4560 C 0.61291 0.91969 0.34314 0.0
C4561 C 0.59496 0.92404 0.3475 0.0
C4562 C 0.67218 0.91362 0.33984 0.0
C4563 C 0.67998 0.91719 0.32277 0.0
C4564 C 0.65425 0.91857 0.34364 0.0
C4565 C 0.64359 0.92753 0.3306 0.0
C4566 C 0.65128 0.93107 0.31342 0.0
C4567 C 0.66925 0.92578 0.30948 0.0
H4568 H 0.81786 0.82864 0.05337 0.0
H4569 H 0.81416 0.84566 0.10934 0.0
H4570 H 0.8243 0.85973 0.04417 0.0
H4571 H 0.82094 0.87713 0.10003 0.0
H4572 H 0.85553 0.92566 0.07488 0.0
H4573 H 0.84861 0.89467 0.08527 0.0
H4574 H 0.80769 0.88991 0.04359 0.0
H4575 H 0.81437 0.92074 0.03341 0.0
C4576 C 0.8183 0.83908 0.06374 0.0
C4577 C 0.81541 0.83465 0.0821 0.0
C4578 C 0.82199 0.85694 0.05843 0.0
C4579 C 0.82323 0.87092 0.07134 0.0
C4580 C 0.82022 0.86661 0.08977 0.0
C4581 C 0.81614 0.84866 0.09508 0.0
C4582 C 0.84523 0.91789 0.0678 0.0
C4583 C 0.83561 0.92565 0.0532 0.0
C4584 C 0.8411 0.90024 0.07391 0.0
C4585 C 0.82751 0.88986 0.06533 0.0
C4586 C 0.81825 0.8975 0.05048 0.0
C4587 C 0.82213 0.91518 0.04461 0.0
H4588 H 0.96848 0.70631 0.92704 0.0
H4589 H 0.94089 0.65466 0.92397 0.0
H4590 H 0.96079 0.71244 0.89539 0.0
H4591 H 0.93281 0.66104 0.89211 0.0
H4592 H 0.9048 0.69394 0.84332 0.0
H4593 H 0.91233 0.6867 0.87514 0.0
H4594 H 0.96881 0.69774 0.86421 0.0
H4595 H 0.96143 0.70451 0.83262 0.0
C4596 C 0.96094 0.69615 0.91951 0.0
C4597 C 0.95546 0.67991 0.92795 0.0
C4598 C 0.95648 0.69971 0.9014 0.0
C4599 C 0.94607 0.6873 0.89132 0.0
C4600 C 0.94071 0.67092 0.89963 0.0
C4601 C 0.94554 0.66716 0.91775 0.0
C4602 C 0.91876 0.69503 0.84784 0.0
C4603 C 0.93251 0.69991 0.83552 0.0
C4604 C 0.9231 0.69066 0.86594 0.0
C4605 C 0.94119 0.69154 0.87212 0.0
C4606 C 0.95477 0.69694 0.85988 0.0
C4607 C 0.95052 0.70087 0.8418 0.0
H4608 H 0.41139 0.85377 0.08345 0.0
H4609 H 0.46698 0.83726 0.09198 0.0
H4610 H 0.40407 0.84576 0.11468 0.0
H4611 H 0.45948 0.82891 0.12354 0.0
H4612 H 0.42903 0.79732 0.17161 0.0
H4613 H 0.43775 0.80477 0.14017 0.0
H4614 H 0.41326 0.8577 0.14601 0.0
H4615 H 0.40485 0.85046 0.17717 0.0
C4616 C 0.42211 0.84852 0.09206 0.0
C4617 C 0.43981 0.84627 0.08525 0.0
C4618 C 0.41788 0.84391 0.10997 0.0
C4619 C 0.43115 0.83661 0.12156 0.0
C4620 C 0.44893 0.83437 0.11486 0.0
C4621 C 0.45328 0.83934 0.0969 0.0
C4622 C 0.42535 0.81044 0.16606 0.0
C4623 C 0.41614 0.82325 0.17685 0.0
C4624 C 0.43053 0.81479 0.14817 0.0
C4625 C 0.42626 0.83186 0.14065 0.0
C4626 C 0.41671 0.84443 0.15136 0.0
C4627 C 0.41187 0.84025 0.16923 0.0
H4628 H 0.10749 0.21191 0.66988 0.0
H4629 H 0.05618 0.18779 0.68475 0.0
H4630 H 0.10138 0.20491 0.63798 0.0
H4631 H 0.04979 0.18133 0.65303 0.0
H4632 H 0.05198 0.15517 0.59637 0.0
H4633 H 0.0577 0.16226 0.62838 0.0
H4634 H 0.08349 0.21258 0.61259 0.0
H4635 H 0.07832 0.20523 0.58091 0.0
C4636 C 0.09481 0.20535 0.66633 0.0
C4637 C 0.08238 0.20042 0.67992 0.0
C4638 C 0.09124 0.20134 0.648 0.0
C4639 C 0.07507 0.19242 0.64277 0.0
C4640 C 0.06254 0.18783 0.65642 0.0
C4641 C 0.06616 0.19171 0.67468 0.0
C4642 C 0.05877 0.16777 0.59979 0.0
C4643 C 0.06475 0.17955 0.58602 0.0
C4644 C 0.06204 0.17191 0.61817 0.0
C4645 C 0.07124 0.18799 0.62322 0.0
C4646 C 0.07678 0.19989 0.60937 0.0
C4647 C 0.07365 0.19571 0.5911 0.0
H4648 H 0.04837 0.83514 0.92096 0.0
H4649 H 0.10435 0.85039 0.92934 0.0
H4650 H 0.05544 0.82729 0.88918 0.0
H4651 H 0.11124 0.84287 0.8979 0.0
H4652 H 0.10997 0.84904 0.8355 0.0
H4653 H 0.1021 0.85565 0.86695 0.0
H4654 H 0.07642 0.80317 0.87169 0.0
H4655 H 0.0846 0.79636 0.83995 0.0
C4656 C 0.06208 0.83704 0.91598 0.0
C4657 C 0.07577 0.84347 0.92766 0.0
C4658 C 0.06617 0.83236 0.89788 0.0
C4659 C 0.08393 0.8344 0.89105 0.0
C4660 C 0.09744 0.84119 0.90269 0.0
C4661 C 0.09345 0.84551 0.92073 0.0
C4662 C 0.10282 0.83878 0.84326 0.0
C4663 C 0.09805 0.8221 0.83524 0.0
C4664 C 0.09828 0.84261 0.86129 0.0
C4665 C 0.08854 0.83 0.87179 0.0
C4666 C 0.08379 0.81323 0.86387 0.0
C4667 C 0.08866 0.80923 0.84581 0.0
H4668 H 0.5836 0.29609 0.33954 0.0
H4669 H 0.6095 0.34848 0.33469 0.0
H4670 H 0.57549 0.30323 0.37122 0.0
H4671 H 0.60167 0.35543 0.36606 0.0
H4672 H 0.60376 0.35112 0.4284 0.0
H4673 H 0.6106 0.34323 0.39704 0.0
H4674 H 0.55485 0.32724 0.3887 0.0
H4675 H 0.54785 0.33543 0.42041 0.0
C4676 C 0.58778 0.30898 0.34529 0.0
C4677 C 0.5973 0.32167 0.33462 0.0
C4678 C 0.58295 0.31316 0.36333 0.0
C4679 C 0.58787 0.32994 0.37113 0.0
C4680 C 0.59772 0.34237 0.36052 0.0
C4681 C 0.60223 0.33836 0.34251 0.0
C4682 C 0.59287 0.34606 0.4199 0.0
C4683 C 0.57522 0.34401 0.42692 0.0
C4684 C 0.59682 0.34154 0.40189 0.0
C4685 C 0.58331 0.33453 0.39037 0.0
C4686 C 0.56559 0.33247 0.3973 0.0
C4687 C 0.56153 0.33734 0.41536 0.0
H4688 H 0.963 0.35726 0.59611 0.0
H4689 H 0.93777 0.30673 0.58026 0.0
H4690 H 0.95698 0.35006 0.62804 0.0
H4691 H 0.93234 0.29926 0.61185 0.0
H4692 H 0.90729 0.29957 0.66862 0.0
H4693 H 0.9139 0.30658 0.63685 0.0
H4694 H 0.96469 0.33127 0.6529 0.0
H4695 H 0.95776 0.32482 0.68451 0.0
C4696 C 0.95641 0.34453 0.59944 0.0
C4697 C 0.9508 0.33266 0.58558 0.0
C4698 C 0.95297 0.34033 0.61776 0.0
C4699 C 0.94398 0.32408 0.62268 0.0
C4700 C 0.93886 0.31208 0.60874 0.0
C4701 C 0.94214 0.31633 0.59053 0.0
C4702 C 0.91991 0.30637 0.66532 0.0
C4703 C 0.93194 0.31163 0.67916 0.0
C4704 C 0.92377 0.31039 0.64706 0.0
C4705 C 0.93986 0.31962 0.64215 0.0
C4706 C 0.95201 0.32452 0.65605 0.0
C4707 C 0.94808 0.32064 0.67424 0.0
H4708 H 0.58388 0.71823 0.17351 0.0
H4709 H 0.606 0.6642 0.17896 0.0
H4710 H 0.57495 0.71122 0.14202 0.0
H4711 H 0.59735 0.65736 0.14778 0.0
H4712 H 0.59917 0.66064 0.08535 0.0
H4713 H 0.60682 0.66838 0.11657 0.0
H4714 H 0.55247 0.68852 0.12505 0.0
H4715 H 0.54464 0.6805 0.09349 0.0
C4716 C 0.58707 0.70499 0.16793 0.0
C4717 C 0.59576 0.69182 0.17872 0.0
C4718 C 0.58176 0.7009 0.15 0.0
C4719 C 0.58537 0.68369 0.14242 0.0
C4720 C 0.59441 0.67075 0.15314 0.0
C4721 C 0.59939 0.6747 0.17104 0.0
C4722 C 0.58874 0.66657 0.09387 0.0
C4723 C 0.57124 0.66984 0.08693 0.0
C4724 C 0.59315 0.67101 0.11179 0.0
C4725 C 0.5803 0.67915 0.12329 0.0
C4726 C 0.56272 0.68241 0.11646 0.0
C4727 C 0.55817 0.67762 0.09849 0.0
H4728 H 0.59315 0.54226 0.84949 0.0
H4729 H 0.58118 0.59614 0.82961 0.0
H4730 H 0.62521 0.54677 0.84189 0.0
H4731 H 0.61299 0.60083 0.82254 0.0
H4732 H 0.66922 0.59904 0.79688 0.0
H4733 H 0.63705 0.59282 0.80259 0.0
H4734 H 0.65147 0.56305 0.85107 0.0
H4735 H 0.68331 0.56877 0.84511 0.0
C4736 C 0.59735 0.55509 0.84363 0.0
C4737 C 0.58453 0.5688 0.8402 0.0
C4738 C 0.61576 0.55773 0.83929 0.0
C4739 C 0.62182 0.57419 0.83149 0.0
C4740 C 0.60892 0.58786 0.82816 0.0
C4741 C 0.5906 0.5852 0.83241 0.0
C4742 C 0.66549 0.59112 0.80869 0.0
C4743 C 0.67892 0.58445 0.8205 0.0
C4744 C 0.64702 0.5876 0.81206 0.0
C4745 C 0.64152 0.57738 0.82734 0.0
C4746 C 0.65505 0.57067 0.83901 0.0
C4747 C 0.67341 0.57412 0.83563 0.0
H4748 H 0.66534 0.33132 0.08259 0.0
H4749 H 0.72082 0.3433 0.09729 0.0
H4750 H 0.66021 0.36305 0.07535 0.0
H4751 H 0.71584 0.37525 0.08948 0.0
H4752 H 0.69513 0.43378 0.09248 0.0
H4753 H 0.70093 0.40204 0.09903 0.0
H4754 H 0.66636 0.38648 0.05421 0.0
H4755 H 0.66005 0.41856 0.048 0.0
C4756 C 0.67654 0.34073 0.08422 0.0
C4757 C 0.69353 0.33467 0.0906 0.0
C4758 C 0.6736 0.359 0.07987 0.0
C4759 C 0.68759 0.37188 0.08164 0.0
C4760 C 0.70463 0.36584 0.0881 0.0
C4761 C 0.70754 0.34748 0.09257 0.0
C4762 C 0.68873 0.42364 0.08394 0.0
C4763 C 0.67704 0.42882 0.0697 0.0
C4764 C 0.69222 0.40533 0.08765 0.0
C4765 C 0.68421 0.39151 0.07718 0.0
C4766 C 0.67261 0.39667 0.06279 0.0
C4767 C 0.66903 0.41509 0.05912 0.0
H4768 H 0.93366 0.4194 0.31921 0.0
H4769 H 0.91927 0.4672 0.35002 0.0
H4770 H 0.9019 0.41364 0.31287 0.0
H4771 H 0.8872 0.46175 0.34313 0.0
H4772 H 0.8311 0.43512 0.345 0.0
H4773 H 0.86281 0.44216 0.35024 0.0
H4774 H 0.87593 0.42279 0.29641 0.0
H4775 H 0.84396 0.41514 0.29139 0.0
C4776 C 0.92371 0.42883 0.32454 0.0
C4777 C 0.92912 0.44378 0.33521 0.0
C4778 C 0.90539 0.42557 0.32073 0.0
C4779 C 0.89179 0.4372 0.32738 0.0
C4780 C 0.89719 0.4523 0.33794 0.0
C4781 C 0.91562 0.45552 0.34185 0.0
C4782 C 0.84069 0.43233 0.33421 0.0
C4783 C 0.83489 0.42447 0.31775 0.0
C4784 C 0.85897 0.43656 0.3372 0.0
C4785 C 0.87212 0.43318 0.32378 0.0
C4786 C 0.86631 0.4254 0.30721 0.0
C4787 C 0.84794 0.42106 0.30425 0.0
H4788 H 0.81853 0.57825 0.59698 0.0
H4789 H 0.84842 0.59235 0.54855 0.0
H4790 H 0.81229 0.6101 0.60263 0.0
H4791 H 0.84169 0.62448 0.55395 0.0
H4792 H 0.84418 0.68075 0.58009 0.0
H4793 H 0.8493 0.64892 0.57348 0.0
H4794 H 0.79561 0.63614 0.59336 0.0
H4795 H 0.79065 0.6683 0.6005 0.0
C4796 C 0.8237 0.58815 0.5874 0.0
C4797 C 0.83408 0.58263 0.5723 0.0
C4798 C 0.81994 0.60652 0.59061 0.0
C4799 C 0.82638 0.62005 0.57878 0.0
C4800 C 0.83667 0.61454 0.56354 0.0
C4801 C 0.8405 0.59607 0.56036 0.0
C4802 C 0.83339 0.67122 0.5831 0.0
C4803 C 0.81697 0.6772 0.5909 0.0
C4804 C 0.83631 0.65287 0.57912 0.0
C4805 C 0.82288 0.63978 0.58272 0.0
C4806 C 0.8064 0.64573 0.59054 0.0
C4807 C 0.80349 0.6642 0.59461 0.0
H4808 H 0.59655 0.4607 0.65472 0.0
H4809 H 0.58169 0.4331 0.70427 0.0
H4810 H 0.62856 0.45415 0.66088 0.0
H4811 H 0.61341 0.42711 0.71072 0.0
H4812 H 0.6706 0.40307 0.70889 0.0
H4813 H 0.63864 0.40934 0.70231 0.0
H4814 H 0.65354 0.46139 0.67961 0.0
H4815 H 0.68527 0.45487 0.68561 0.0
C4816 C 0.6001 0.45342 0.667 0.0
C4817 C 0.58648 0.44741 0.67893 0.0
C4818 C 0.61849 0.44969 0.67061 0.0
C4819 C 0.62374 0.43996 0.68631 0.0
C4820 C 0.61004 0.43425 0.69831 0.0
C4821 C 0.59175 0.43785 0.69465 0.0
C4822 C 0.66701 0.41586 0.70256 0.0
C4823 C 0.68057 0.42841 0.69777 0.0
C4824 C 0.64864 0.41953 0.69881 0.0
C4825 C 0.64334 0.4359 0.6903 0.0
C4826 C 0.65697 0.4485 0.68579 0.0
C4827 C 0.67525 0.44478 0.68941 0.0
H4828 H 0.82843 0.33227 0.95709 0.0
H4829 H 0.80635 0.34608 0.90457 0.0
H4830 H 0.83466 0.36411 0.96308 0.0
H4831 H 0.81321 0.3781 0.91024 0.0
H4832 H 0.81192 0.43568 0.93198 0.0
H4833 H 0.80505 0.40391 0.92686 0.0
H4834 H 0.8537 0.38877 0.95602 0.0
H4835 H 0.86021 0.42092 0.96175 0.0
C4836 C 0.82493 0.34213 0.94674 0.0
C4837 C 0.81683 0.33655 0.93032 0.0
C4838 C 0.82869 0.36047 0.95014 0.0
C4839 C 0.82463 0.37388 0.93716 0.0
C4840 C 0.81635 0.3683 0.92075 0.0
C4841 C 0.81242 0.34989 0.91742 0.0
C4842 C 0.8212 0.42562 0.93737 0.0
C4843 C 0.83669 0.43094 0.94726 0.0
C4844 C 0.8173 0.40728 0.93427 0.0
C4845 C 0.82884 0.39355 0.94081 0.0
C4846 C 0.84431 0.39885 0.9509 0.0
C4847 C 0.84813 0.41732 0.95417 0.0
H4848 H 0.84293 0.59647 0.22477 0.0
H4849 H 0.83077 0.5813 0.16943 0.0
H4850 H 0.87483 0.58853 0.21977 0.0
H4851 H 0.86243 0.57394 0.16428 0.0
H4852 H 0.91794 0.54691 0.16394 0.0
H4853 H 0.88592 0.55287 0.17059 0.0
H4854 H 0.90145 0.59818 0.20455 0.0
H4855 H 0.93316 0.59189 0.19842 0.0
C4856 C 0.84706 0.59159 0.21153 0.0
C4857 C 0.83423 0.58955 0.19755 0.0
C4858 C 0.86538 0.58706 0.2086 0.0
C4859 C 0.87135 0.58047 0.19159 0.0
C4860 C 0.85844 0.57857 0.17765 0.0
C4861 C 0.8402 0.58299 0.1806 0.0
C4862 C 0.91448 0.55807 0.17288 0.0
C4863 C 0.92819 0.56888 0.1806 0.0
C4864 C 0.8961 0.56159 0.17665 0.0
C4865 C 0.89095 0.57607 0.18815 0.0
C4866 C 0.90474 0.58674 0.19591 0.0
C4867 C 0.92303 0.58318 0.19224 0.0
H4868 H 0.70109 0.58041 0.43574 0.0
H4869 H 0.65151 0.59554 0.46308 0.0
H4870 H 0.70747 0.61208 0.42933 0.0
H4871 H 0.65753 0.62748 0.45604 0.0
H4872 H 0.68183 0.68426 0.45613 0.0
H4873 H 0.6759 0.65259 0.46294 0.0
H4874 H 0.69943 0.63717 0.41142 0.0
H4875 H 0.70602 0.66912 0.40493 0.0
C4876 C 0.69144 0.59052 0.44032 0.0
C4877 C 0.67574 0.58535 0.44996 0.0
C4878 C 0.69506 0.60878 0.43648 0.0
C4879 C 0.68302 0.62254 0.44198 0.0
C4880 C 0.66731 0.61738 0.45174 0.0
C4881 C 0.66377 0.59903 0.45576 0.0
C4882 C 0.68582 0.67415 0.44622 0.0
C4883 C 0.69443 0.67931 0.42994 0.0
C4884 C 0.68224 0.65588 0.45009 0.0
C4885 C 0.68699 0.64212 0.43774 0.0
C4886 C 0.69574 0.64728 0.42144 0.0
C4887 C 0.69949 0.66563 0.41764 0.0
H4888 H 0.57854 0.847 0.6835 0.0
H4889 H 0.60207 0.79518 0.66928 0.0
H4890 H 0.57183 0.85289 0.65181 0.0
H4891 H 0.59489 0.80091 0.63729 0.0
H4892 H 0.59784 0.82612 0.58048 0.0
H4893 H 0.60364 0.81935 0.61217 0.0
H4894 H 0.55284 0.84471 0.62688 0.0
H4895 H 0.5472 0.85195 0.59488 0.0
C4896 C 0.58224 0.83676 0.67361 0.0
C4897 C 0.59094 0.82059 0.67904 0.0
C4898 C 0.5782 0.84011 0.65535 0.0
C4899 C 0.58268 0.82739 0.64184 0.0
C4900 C 0.59139 0.81116 0.64724 0.0
C4901 C 0.59549 0.80781 0.66561 0.0
C4902 C 0.58783 0.8303 0.59042 0.0
C4903 C 0.57203 0.83967 0.58504 0.0
C4904 C 0.59113 0.82623 0.60868 0.0
C4905 C 0.57873 0.83135 0.62224 0.0
C4906 C 0.56285 0.8407 0.61689 0.0
C4907 C 0.55955 0.84483 0.59852 0.0
H4908 H 0.32907 0.44759 0.17005 0.0
H4909 H 0.34399 0.41378 0.21559 0.0
H4910 H 0.36085 0.45335 0.16366 0.0
H4911 H 0.37607 0.42001 0.2095 0.0
H4912 H 0.43109 0.4176 0.1811 0.0
H4913 H 0.39935 0.41297 0.18839 0.0
H4914 H 0.38779 0.46846 0.1731 0.0
H4915 H 0.41982 0.47295 0.16529 0.0
C4916 C 0.33914 0.44147 0.17885 0.0
C4917 C 0.33388 0.43012 0.19334 0.0
C4918 C 0.35747 0.44493 0.17523 0.0
C4919 C 0.3712 0.43721 0.18601 0.0
C4920 C 0.36594 0.42602 0.20069 0.0
C4921 C 0.34752 0.42249 0.20428 0.0
C4922 C 0.42184 0.42888 0.17924 0.0
C4923 C 0.4281 0.44569 0.17255 0.0
C4924 C 0.40355 0.42624 0.18361 0.0
C4925 C 0.39085 0.44034 0.18154 0.0
C4926 C 0.39708 0.45718 0.17474 0.0
C4927 C 0.41547 0.45981 0.17028 0.0
H4928 H 0.29612 0.67153 0.9293 0.0
H4929 H 0.35101 0.67915 0.91025 0.0
H4930 H 0.30369 0.64007 0.93798 0.0
H4931 H 0.3584 0.64804 0.91863 0.0
H4932 H 0.35722 0.58553 0.91515 0.0
H4933 H 0.34895 0.61672 0.90787 0.0
H4934 H 0.32572 0.6232 0.96126 0.0
H4935 H 0.3343 0.59169 0.96873 0.0
C4936 C 0.30968 0.66645 0.92674 0.0
C4937 C 0.32292 0.67784 0.91898 0.0
C4938 C 0.31408 0.64853 0.93191 0.0
C4939 C 0.33168 0.64156 0.92906 0.0
C4940 C 0.34471 0.6529 0.92096 0.0
C4941 C 0.34044 0.67077 0.91614 0.0
C4942 C 0.35053 0.59362 0.92547 0.0
C4943 C 0.34656 0.58613 0.94259 0.0
C4944 C 0.34576 0.61152 0.92126 0.0
C4945 C 0.33659 0.62245 0.93393 0.0
C4946 C 0.33264 0.61507 0.95115 0.0
C4947 C 0.33775 0.59713 0.95551 0.0
H4948 H 0.18034 0.57382 0.66811 0.0
H4949 H 0.16646 0.60002 0.7187 0.0
H4950 H 0.14861 0.56699 0.66265 0.0
H4951 H 0.13442 0.59271 0.71346 0.0
H4952 H 0.07754 0.59502 0.68843 0.0
H4953 H 0.10928 0.60071 0.69494 0.0
H4954 H 0.12337 0.54885 0.67133 0.0
H4955 H 0.0913 0.54334 0.66431 0.0
C4956 C 0.17052 0.57806 0.67819 0.0
C4957 C 0.17607 0.58757 0.69386 0.0
C4958 C 0.15222 0.57396 0.6751 0.0
C4959 C 0.13876 0.57917 0.68759 0.0
C4960 C 0.1443 0.58863 0.70336 0.0
C4961 C 0.16271 0.59279 0.70645 0.0
C4962 C 0.08734 0.58475 0.68458 0.0
C4963 C 0.08174 0.56869 0.67576 0.0
C4964 C 0.10565 0.58799 0.6885 0.0
C4965 C 0.11908 0.57527 0.6838 0.0
C4966 C 0.11351 0.55912 0.675 0.0
C4967 C 0.09508 0.55589 0.67101 0.0
H4968 H 0.15485 0.41908 0.45921 0.0
H4969 H 0.20572 0.43355 0.43395 0.0
H4970 H 0.16078 0.38706 0.45251 0.0
H4971 H 0.21197 0.40177 0.42786 0.0
H4972 H 0.21048 0.34461 0.40332 0.0
H4973 H 0.2043 0.3767 0.40961 0.0
H4974 H 0.17854 0.36173 0.46018 0.0
H4975 H 0.18412 0.32996 0.45358 0.0
C4976 C 0.16738 0.41543 0.45243 0.0
C4977 C 0.17974 0.42895 0.44711 0.0
C4978 C 0.17086 0.39702 0.4486 0.0
C4979 C 0.18689 0.39164 0.4395 0.0
C4980 C 0.19932 0.40524 0.43449 0.0
C4981 C 0.19577 0.42356 0.43816 0.0
C4982 C 0.20358 0.34823 0.41579 0.0
C4983 C 0.19777 0.33464 0.42786 0.0
C4984 C 0.20004 0.36666 0.41948 0.0
C4985 C 0.19076 0.37199 0.43542 0.0
C4986 C 0.18531 0.35832 0.44758 0.0
C4987 C 0.18868 0.33999 0.44383 0.0
H4988 H 0.32966 0.5829 0.34962 0.0
H4989 H 0.34118 0.59743 0.29401 0.0
H4990 H 0.36139 0.5755 0.35449 0.0
H4991 H 0.37309 0.5894 0.29867 0.0
H4992 H 0.43188 0.59136 0.31818 0.0
H4993 H 0.40018 0.59842 0.31296 0.0
H4994 H 0.38458 0.55427 0.34835 0.0
H4995 H 0.41664 0.54759 0.35411 0.0
C4996 C 0.33898 0.58447 0.33835 0.0
C4997 C 0.33279 0.59083 0.3214 0.0
C4998 C 0.35725 0.58002 0.34112 0.0
C4999 C 0.36999 0.58165 0.32699 0.0
C5000 C 0.36382 0.58814 0.31001 0.0
C5001 C 0.34548 0.59273 0.30727 0.0
C5002 C 0.42174 0.58308 0.32488 0.0
C5003 C 0.42692 0.56888 0.33663 0.0
C5004 C 0.40344 0.58708 0.32173 0.0
C5005 C 0.3896 0.57695 0.33013 0.0
C5006 C 0.39476 0.56261 0.34181 0.0
C5007 C 0.41318 0.55866 0.34506 0.0
H5008 H 0.21738 0.67128 0.08421 0.0
H5009 H 0.16193 0.67992 0.10106 0.0
H5010 H 0.20964 0.63984 0.07552 0.0
H5011 H 0.15436 0.64886 0.09266 0.0
H5012 H 0.15456 0.58642 0.09717 0.0
H5013 H 0.16294 0.61763 0.10423 0.0
H5014 H 0.18815 0.62291 0.0516 0.0
H5015 H 0.17946 0.59134 0.04436 0.0
C5016 C 0.20365 0.66642 0.08629 0.0
C5017 C 0.19031 0.67809 0.09344 0.0
C5018 C 0.19916 0.64852 0.0811 0.0
C5019 C 0.18134 0.64187 0.08333 0.0
C5020 C 0.1682 0.65349 0.09081 0.0
C5021 C 0.17258 0.67133 0.09565 0.0
C5022 C 0.16168 0.59427 0.08696 0.0
C5023 C 0.16618 0.58643 0.07013 0.0
C5024 C 0.16653 0.61217 0.09104 0.0
C5025 C 0.17631 0.62276 0.07854 0.0
C5026 C 0.18075 0.61504 0.06158 0.0
C5027 C 0.17556 0.59708 0.05733 0.0
H5028 H 0.16853 0.41419 0.7936 0.0
H5029 H 0.18226 0.43602 0.8463 0.0
H5030 H 0.13656 0.42151 0.79909 0.0
H5031 H 0.15056 0.44283 0.85196 0.0
H5032 H 0.09387 0.46765 0.85142 0.0
H5033 H 0.12588 0.46218 0.8442 0.0
H5034 H 0.11115 0.41239 0.8168 0.0
H5035 H 0.07945 0.41808 0.82352 0.0
C5036 C 0.16475 0.42044 0.80637 0.0
C5037 C 0.17803 0.42447 0.81947 0.0
C5038 C 0.14639 0.42461 0.80958 0.0
C5039 C 0.14085 0.43286 0.826 0.0
C5040 C 0.15421 0.43683 0.83903 0.0
C5041 C 0.17248 0.43274 0.83581 0.0
C5042 C 0.0975 0.45558 0.84383 0.0
C5043 C 0.08402 0.44334 0.83811 0.0
C5044 C 0.11588 0.45236 0.83973 0.0
C5045 C 0.12123 0.4368 0.82984 0.0
C5046 C 0.10766 0.42467 0.82411 0.0
C5047 C 0.08938 0.4279 0.82815 0.0
H5048 H 0.36072 0.42092 0.55072 0.0
H5049 H 0.31483 0.43662 0.58364 0.0
H5050 H 0.35394 0.38892 0.55684 0.0
H5051 H 0.30773 0.40496 0.58924 0.0
H5052 H 0.30906 0.34648 0.61043 0.0
H5053 H 0.31642 0.37847 0.60497 0.0
H5054 H 0.33346 0.36514 0.55041 0.0
H5055 H 0.32668 0.33339 0.55608 0.0
C5056 C 0.34913 0.41757 0.55913 0.0
C5057 C 0.33839 0.43143 0.56668 0.0
C5058 C 0.34515 0.39919 0.56262 0.0
C5059 C 0.33025 0.39417 0.57364 0.0
C5060 C 0.3195 0.40811 0.58102 0.0
C5061 C 0.32353 0.42639 0.57765 0.0
C5062 C 0.31427 0.35044 0.59726 0.0
C5063 C 0.31728 0.33729 0.58375 0.0
C5064 C 0.31849 0.36882 0.59406 0.0
C5065 C 0.32571 0.37456 0.57722 0.0
C5066 C 0.32836 0.36136 0.56367 0.0
C5067 C 0.32428 0.34307 0.5669 0.0
H5068 H 0.42251 0.16433 0.32966 0.0
H5069 H 0.42786 0.22103 0.34377 0.0
H5070 H 0.43042 0.15573 0.36056 0.0
H5071 H 0.43615 0.21224 0.37502 0.0
H5072 H 0.46954 0.18322 0.42302 0.0
H5073 H 0.46308 0.19309 0.39169 0.0
H5074 H 0.41446 0.16039 0.39155 0.0
H5075 H 0.42066 0.15088 0.42266 0.0
C5076 C 0.42541 0.17501 0.33937 0.0
C5077 C 0.42448 0.1934 0.33422 0.0
C5078 C 0.42994 0.17004 0.35711 0.0
C5079 C 0.43398 0.18328 0.37022 0.0
C5080 C 0.43324 0.20173 0.36515 0.0
C5081 C 0.42833 0.20676 0.34734 0.0
C5082 C 0.45764 0.17797 0.41616 0.0
C5083 C 0.44569 0.16615 0.42526 0.0
C5084 C 0.45382 0.1838 0.39834 0.0
C5085 C 0.4382 0.17758 0.3892 0.0
C5086 C 0.4266 0.16539 0.39819 0.0
C5087 C 0.43019 0.15991 0.41601 0.0
loop_
_geom_bond_atom_site_label_1
_geom_bond_atom_site_label_2
_geom_bond_distance
_geom_bond_site_symmetry_2
_ccdc_geom_bond_type
Mg0 O7 2.141 . S
Mg0 O8 2.048 . S
Mg0 O9 2.048 . S
Mg0 O12 2.141 1_455 S
C1 O2 1.313 . S
C1 O8 1.195 . S
O2 C1 1.313 . S
C3 O4 1.245 . S
C3 O12 1.289 . S
O4 C3 1.245 . S
C5 O6 1.245 . S
C5 O7 1.289 . S
O6 C5 1.245 . S
O7 Mg0 2.141 . S
O7 C5 1.289 . S
O8 Mg0 2.048 . S
O8 C1 1.195 . S
O9 Mg0 2.048 . S
O9 C10 1.195 . S
C10 O9 1.195 . S
C10 O11 1.313 . S
O11 C10 1.313 . S
O12 Mg0 2.141 1_655 S
O12 C3 1.289 . S
Mg13 O20 2.141 . S
Mg13 O21 2.048 . S
Mg13 O22 2.048 . S
Mg13 O25 2.141 . S
C14 O15 1.313 . S
C14 O21 1.195 . S
O15 C14 1.313 . S
C16 O17 1.245 . S
C16 O25 1.289 . S
O17 C16 1.245 . S
C18 O19 1.245 . S
C18 O20 1.289 . S
O19 C18 1.245 . S
O20 Mg13 2.141 . S
O20 C18 1.289 . S
O21 Mg13 2.048 . S
O21 C14 1.195 . S
O22 Mg13 2.048 . S
O22 C23 1.195 . S
C23 O22 1.195 . S
C23 O24 1.313 . S
O24 C23 1.313 . S
O25 Mg13 2.141 . S
O25 C16 1.289 . S
Mg26 O33 2.141 . S
Mg26 O34 2.048 . S
Mg26 O35 2.048 . S
Mg26 O38 2.141 . S
C27 O28 1.313 . S
C27 O34 1.195 . S
O28 C27 1.313 . S
C29 O30 1.245 . S
C29 O38 1.289 . S
O30 C29 1.245 . S
C31 O32 1.245 . S
C31 O33 1.289 . S
O32 C31 1.245 . S
O33 Mg26 2.141 . S
O33 C31 1.289 . S
O34 Mg26 2.048 . S
O34 C27 1.195 . S
O35 Mg26 2.048 . S
O35 C36 1.195 . S
C36 O35 1.195 . S
C36 O37 1.313 . S
O37 C36 1.313 . S
O38 Mg26 2.141 . S
O38 C29 1.289 . S
Mg39 O46 2.141 . S
Mg39 O47 2.048 . S
Mg39 O48 2.048 . S
Mg39 O51 2.141 . S
C40 O41 1.313 . S
C40 O47 1.195 . S
O41 C40 1.313 . S
C42 O43 1.245 . S
C42 O51 1.289 . S
O43 C42 1.245 . S
C44 O45 1.245 . S
C44 O46 1.289 . S
O45 C44 1.245 . S
O46 Mg39 2.141 . S
O46 C44 1.289 . S
O47 Mg39 2.048 . S
O47 C40 1.195 . S
O48 Mg39 2.048 . S
O48 C49 1.195 . S
C49 O48 1.195 . S
C49 O50 1.313 . S
O50 C49 1.313 . S
O51 Mg39 2.141 . S
O51 C42 1.289 . S
Mg52 O59 2.141 . S
Mg52 O60 2.048 . S
Mg52 O61 2.048 . S
Mg52 O64 2.141 1_455 S
C53 O54 1.313 . S
C53 O60 1.195 . S
O54 C53 1.313 . S
C55 O56 1.245 . S
C55 O64 1.289 . S
O56 C55 1.245 . S
C57 O58 1.245 . S
C57 O59 1.289 . S
O58 C57 1.245 . S
O59 Mg52 2.141 . S
O59 C57 1.289 . S
O60 Mg52 2.048 . S
O60 C53 1.195 . S
O61 Mg52 2.048 . S
O61 C62 1.195 . S
C62 O61 1.195 . S
C62 O63 1.313 . S
O63 C62 1.313 . S
O64 Mg52 2.141 1_655 S
O64 C55 1.289 . S
Mg65 O72 2.141 . S
Mg65 O73 2.048 . S
Mg65 O74 2.048 . S
Mg65 O77 2.141 . S
C66 O67 1.313 . S
C66 O73 1.195 . S
O67 C66 1.313 . S
C68 O69 1.245 . S
C68 O77 1.289 . S
O69 C68 1.245 . S
C70 O71 1.245 . S
C70 O72 1.289 . S
O71 C70 1.245 . S
O72 Mg65 2.141 . S
O72 C70 1.289 . S
O73 Mg65 2.048 . S
O73 C66 1.195 . S
O74 Mg65 2.048 . S
O74 C75 1.195 . S
C75 O74 1.195 . S
C75 O76 1.313 . S
O76 C75 1.313 . S
O77 Mg65 2.141 . S
O77 C68 1.289 . S
Mg78 O85 2.141 . S
Mg78 O86 2.048 . S
Mg78 O87 2.048 . S
Mg78 O90 2.141 . S
C79 O80 1.313 . S
C79 O86 1.195 . S
O80 C79 1.313 . S
C81 O82 1.245 . S
C81 O90 1.289 . S
O82 C81 1.245 . S
C83 O84 1.245 . S
C83 O85 1.289 . S
O84 C83 1.245 . S
O85 Mg78 2.141 . S
O85 C83 1.289 . S
O86 Mg78 2.048 . S
O86 C79 1.195 . S
O87 Mg78 2.048 . S
O87 C88 1.195 . S
C88 O87 1.195 . S
C88 O89 1.313 . S
O89 C88 1.313 . S
O90 Mg78 2.141 . S
O90 C81 1.289 . S
Mg91 O98 2.141 . S
Mg91 O99 2.048 . S
Mg91 O100 2.048 . S
Mg91 O103 2.141 . S
C92 O93 1.313 . S
C92 O99 1.195 . S
O93 C92 1.313 . S
C94 O95 1.245 . S
C94 O103 1.289 . S
O95 C94 1.245 . S
C96 O97 1.245 . S
C96 O98 1.289 . S
O97 C96 1.245 . S
O98 Mg91 2.141 . S
O98 C96 1.289 . S
O99 Mg91 2.048 . S
O99 C92 1.195 . S
O100 Mg91 2.048 . S
O100 C101 1.195 . S
C101 O100 1.195 . S
C101 O102 1.313 . S
O102 C101 1.313 . S
O103 Mg91 2.141 . S
O103 C94 1.289 . S
Mg104 O111 2.141 . S
Mg104 O112 2.048 . S
Mg104 O113 2.048 . S
Mg104 O116 2.141 1_545 S
C105 O106 1.313 . S
C105 O112 1.195 . S
O106 C105 1.313 . S
C107 O108 1.245 . S
C107 O116 1.289 . S
O108 C107 1.245 . S
C109 O110 1.245 . S
C109 O111 1.289 . S
O110 C109 1.245 . S
O111 Mg104 2.141 . S
O111 C109 1.289 . S
O112 Mg104 2.048 . S
O112 C105 1.195 . S
O113 Mg104 2.048 . S
O113 C114 1.195 . S
C114 O113 1.195 . S
C114 O115 1.313 . S
O115 C114 1.313 . S
O116 Mg104 2.141 1_565 S
O116 C107 1.289 . S
Mg117 O124 2.141 . S
Mg117 O125 2.048 . S
Mg117 O126 2.048 . S
Mg117 O129 2.141 . S
C118 O119 1.313 . S
C118 O125 1.195 . S
O119 C118 1.313 . S
C120 O121 1.245 . S
C120 O129 1.289 . S
O121 C120 1.245 . S
C122 O123 1.245 . S
C122 O124 1.289 . S
O123 C122 1.245 . S
O124 Mg117 2.141 . S
O124 C122 1.289 . S
O125 Mg117 2.048 . S
O125 C118 1.195 . S
O126 Mg117 2.048 . S
O126 C127 1.195 . S
C127 O126 1.195 . S
C127 O128 1.313 . S
O128 C127 1.313 . S
O129 Mg117 2.141 . S
O129 C120 1.289 . S
Mg130 O137 2.141 . S
Mg130 O138 2.048 . S
Mg130 O139 2.048 . S
Mg130 O142 2.141 1_565 S
C131 O132 1.313 . S
C131 O138 1.195 . S
O132 C131 1.313 . S
C133 O134 1.245 . S
C133 O142 1.289 . S
O134 C133 1.245 . S
C135 O136 1.245 . S
C135 O137 1.289 . S
O136 C135 1.245 . S
O137 Mg130 2.141 . S
O137 C135 1.289 . S
O138 Mg130 2.048 . S
O138 C131 1.195 . S
O139 Mg130 2.048 . S
O139 C140 1.195 . S
C140 O139 1.195 . S
C140 O141 1.313 . S
O141 C140 1.313 . S
O142 Mg130 2.141 1_545 S
O142 C133 1.289 . S
Mg143 O150 2.141 . S
Mg143 O151 2.048 . S
Mg143 O152 2.048 . S
Mg143 O155 2.141 . S
C144 O145 1.313 . S
C144 O151 1.195 . S
O145 C144 1.313 . S
C146 O147 1.245 . S
C146 O155 1.289 . S
O147 C146 1.245 . S
C148 O149 1.245 . S
C148 O150 1.289 . S
O149 C148 1.245 . S
O150 Mg143 2.141 . S
O150 C148 1.289 . S
O151 Mg143 2.048 . S
O151 C144 1.195 . S
O152 Mg143 2.048 . S
O152 C153 1.195 . S
C153 O152 1.195 . S
C153 O154 1.313 . S
O154 C153 1.313 . S
O155 Mg143 2.141 . S
O155 C146 1.289 . S
Mg156 O163 2.141 . S
Mg156 O164 2.048 . S
Mg156 O165 2.048 . S
Mg156 O168 2.141 1_565 S
C157 O158 1.313 . S
C157 O164 1.195 . S
O158 C157 1.313 . S
C159 O160 1.245 . S
C159 O168 1.289 . S
O160 C159 1.245 . S
C161 O162 1.245 . S
C161 O163 1.289 . S
O162 C161 1.245 . S
O163 Mg156 2.141 . S
O163 C161 1.289 . S
O164 Mg156 2.048 . S
O164 C157 1.195 . S
O165 Mg156 2.048 . S
O165 C166 1.195 . S
C166 O165 1.195 . S
C166 O167 1.313 . S
O167 C166 1.313 . S
O168 Mg156 2.141 1_545 S
O168 C159 1.289 . S
Mg169 O176 2.141 . S
Mg169 O177 2.048 . S
Mg169 O178 2.048 . S
Mg169 O181 2.141 . S
C170 O171 1.313 . S
C170 O177 1.195 . S
O171 C170 1.313 . S
C172 O173 1.245 . S
C172 O181 1.289 . S
O173 C172 1.245 . S
C174 O175 1.245 . S
C174 O176 1.289 . S
O175 C174 1.245 . S
O176 Mg169 2.141 . S
O176 C174 1.289 . S
O177 Mg169 2.048 . S
O177 C170 1.195 . S
O178 Mg169 2.048 . S
O178 C179 1.195 . S
C179 O178 1.195 . S
C179 O180 1.313 . S
O180 C179 1.313 . S
O181 Mg169 2.141 . S
O181 C172 1.289 . S
Mg182 O189 2.141 . S
Mg182 O190 2.048 . S
Mg182 O191 2.048 . S
Mg182 O194 2.141 1_545 S
C183 O184 1.313 . S
C183 O190 1.195 . S
O184 C183 1.313 . S
C185 O186 1.245 . S
C185 O194 1.289 . S
O186 C185 1.245 . S
C187 O188 1.245 . S
C187 O189 1.289 . S
O188 C187 1.245 . S
O189 Mg182 2.141 . S
O189 C187 1.289 . S
O190 Mg182 2.048 . S
O190 C183 1.195 . S
O191 Mg182 2.048 . S
O191 C192 1.195 . S
C192 O191 1.195 . S
C192 O193 1.313 . S
O193 C192 1.313 . S
O194 Mg182 2.141 1_565 S
O194 C185 1.289 . S
Mg195 O202 2.141 . S
Mg195 O203 2.048 . S
Mg195 O204 2.048 . S
Mg195 O207 2.141 . S
C196 O197 1.313 . S
C196 O203 1.195 . S
O197 C196 1.313 . S
C198 O199 1.245 . S
C198 O207 1.289 . S
O199 C198 1.245 . S
C200 O201 1.245 . S
C200 O202 1.289 . S
O201 C200 1.245 . S
O202 Mg195 2.141 . S
O202 C200 1.289 . S
O203 Mg195 2.048 . S
O203 C196 1.195 . S
O204 Mg195 2.048 . S
O204 C205 1.195 . S
C205 O204 1.195 . S
C205 O206 1.313 . S
O206 C205 1.313 . S
O207 Mg195 2.141 . S
O207 C198 1.289 . S
Mg208 O215 2.141 . S
Mg208 O216 2.048 . S
Mg208 O217 2.048 . S
Mg208 O220 2.141 1_554 S
C209 O210 1.313 . S
C209 O216 1.195 . S
O210 C209 1.313 . S
C211 O212 1.245 . S
C211 O220 1.289 . S
O212 C211 1.245 . S
C213 O214 1.245 . S
C213 O215 1.289 . S
O214 C213 1.245 . S
O215 Mg208 2.141 . S
O215 C213 1.289 . S
O216 Mg208 2.048 . S
O216 C209 1.195 . S
O217 Mg208 2.048 . S
O217 C218 1.195 . S
C218 O217 1.195 . S
C218 O219 1.313 . S
O219 C218 1.313 . S
O220 Mg208 2.141 1_556 S
O220 C211 1.289 . S
Mg221 O228 2.141 . S
Mg221 O229 2.048 . S
Mg221 O230 2.048 . S
Mg221 O233 2.141 1_556 S
C222 O223 1.313 . S
C222 O229 1.195 . S
O223 C222 1.313 . S
C224 O225 1.245 . S
C224 O233 1.289 . S
O225 C224 1.245 . S
C226 O227 1.245 . S
C226 O228 1.289 . S
O227 C226 1.245 . S
O228 Mg221 2.141 . S
O228 C226 1.289 . S
O229 Mg221 2.048 . S
O229 C222 1.195 . S
O230 Mg221 2.048 . S
O230 C231 1.195 . S
C231 O230 1.195 . S
C231 O232 1.313 . S
O232 C231 1.313 . S
O233 Mg221 2.141 1_554 S
O233 C224 1.289 . S
Mg234 O241 2.141 . S
Mg234 O242 2.048 . S
Mg234 O243 2.048 . S
Mg234 O246 2.141 . S
C235 O236 1.313 . S
C235 O242 1.195 . S
O236 C235 1.313 . S
C237 O238 1.245 . S
C237 O246 1.289 . S
O238 C237 1.245 . S
C239 O240 1.245 . S
C239 O241 1.289 . S
O240 C239 1.245 . S
O241 Mg234 2.141 . S
O241 C239 1.289 . S
O242 Mg234 2.048 . S
O242 C235 1.195 . S
O243 Mg234 2.048 . S
O243 C244 1.195 . S
C244 O243 1.195 . S
C244 O245 1.313 . S
O245 C244 1.313 . S
O246 Mg234 2.141 . S
O246 C237 1.289 . S
Mg247 O254 2.141 . S
Mg247 O255 2.048 . S
Mg247 O256 2.048 . S
Mg247 O259 2.141 . S
C248 O249 1.313 . S
C248 O255 1.195 . S
O249 C248 1.313 . S
C250 O251 1.245 . S
C250 O259 1.289 . S
O251 C250 1.245 . S
C252 O253 1.245 . S
C252 O254 1.289 . S
O253 C252 1.245 . S
O254 Mg247 2.141 . S
O254 C252 1.289 . S
O255 Mg247 2.048 . S
O255 C248 1.195 . S
O256 Mg247 2.048 . S
O256 C257 1.195 . S
C257 O256 1.195 . S
C257 O258 1.313 . S
O258 C257 1.313 . S
O259 Mg247 2.141 . S
O259 C250 1.289 . S
Mg260 O267 2.141 . S
Mg260 O268 2.048 . S
Mg260 O269 2.048 . S
Mg260 O272 2.141 . S
C261 O262 1.313 . S
C261 O268 1.195 . S
O262 C261 1.313 . S
C263 O264 1.245 . S
C263 O272 1.289 . S
O264 C263 1.245 . S
C265 O266 1.245 . S
C265 O267 1.289 . S
O266 C265 1.245 . S
O267 Mg260 2.141 . S
O267 C265 1.289 . S
O268 Mg260 2.048 . S
O268 C261 1.195 . S
O269 Mg260 2.048 . S
O269 C270 1.195 . S
C270 O269 1.195 . S
C270 O271 1.313 . S
O271 C270 1.313 . S
O272 Mg260 2.141 . S
O272 C263 1.289 . S
Mg273 O280 2.141 . S
Mg273 O281 2.048 . S
Mg273 O282 2.048 . S
Mg273 O285 2.141 . S
C274 O275 1.313 . S
C274 O281 1.195 . S
O275 C274 1.313 . S
C276 O277 1.245 . S
C276 O285 1.289 . S
O277 C276 1.245 . S
C278 O279 1.245 . S
C278 O280 1.289 . S
O279 C278 1.245 . S
O280 Mg273 2.141 . S
O280 C278 1.289 . S
O281 Mg273 2.048 . S
O281 C274 1.195 . S
O282 Mg273 2.048 . S
O282 C283 1.195 . S
C283 O282 1.195 . S
C283 O284 1.313 . S
O284 C283 1.313 . S
O285 Mg273 2.141 . S
O285 C276 1.289 . S
Mg286 O293 2.141 . S
Mg286 O294 2.048 . S
Mg286 O295 2.048 . S
Mg286 O298 2.141 . S
C287 O288 1.313 . S
C287 O294 1.195 . S
O288 C287 1.313 . S
C289 O290 1.245 . S
C289 O298 1.289 . S
O290 C289 1.245 . S
C291 O292 1.245 . S
C291 O293 1.289 . S
O292 C291 1.245 . S
O293 Mg286 2.141 . S
O293 C291 1.289 . S
O294 Mg286 2.048 . S
O294 C287 1.195 . S
O295 Mg286 2.048 . S
O295 C296 1.195 . S
C296 O295 1.195 . S
C296 O297 1.313 . S
O297 C296 1.313 . S
O298 Mg286 2.141 . S
O298 C289 1.289 . S
Mg299 O306 2.141 . S
Mg299 O307 2.048 . S
Mg299 O308 2.048 . S
Mg299 O311 2.141 . S
C300 O301 1.313 . S
C300 O307 1.195 . S
O301 C300 1.313 . S
C302 O303 1.245 . S
C302 O311 1.289 . S
O303 C302 1.245 . S
C304 O305 1.245 . S
C304 O306 1.289 . S
O305 C304 1.245 . S
O306 Mg299 2.141 . S
O306 C304 1.289 . S
O307 Mg299 2.048 . S
O307 C300 1.195 . S
O308 Mg299 2.048 . S
O308 C309 1.195 . S
C309 O308 1.195 . S
C309 O310 1.313 . S
O310 C309 1.313 . S
O311 Mg299 2.141 . S
O311 C302 1.289 . S
Mg312 O319 2.141 . S
Mg312 O320 2.048 . S
Mg312 O321 2.048 . S
Mg312 O324 2.141 1_655 S
C313 O314 1.313 . S
C313 O320 1.195 . S
O314 C313 1.313 . S
C315 O316 1.245 . S
C315 O324 1.289 . S
O316 C315 1.245 . S
C317 O318 1.245 . S
C317 O319 1.289 . S
O318 C317 1.245 . S
O319 Mg312 2.141 . S
O319 C317 1.289 . S
O320 Mg312 2.048 . S
O320 C313 1.195 . S
O321 Mg312 2.048 . S
O321 C322 1.195 . S
C322 O321 1.195 . S
C322 O323 1.313 . S
O323 C322 1.313 . S
O324 Mg312 2.141 1_455 S
O324 C315 1.289 . S
Mg325 O332 2.141 . S
Mg325 O333 2.048 . S
Mg325 O334 2.048 . S
Mg325 O337 2.141 . S
C326 O327 1.313 . S
C326 O333 1.195 . S
O327 C326 1.313 . S
C328 O329 1.245 . S
C328 O337 1.289 . S
O329 C328 1.245 . S
C330 O331 1.245 . S
C330 O332 1.289 . S
O331 C330 1.245 . S
O332 Mg325 2.141 . S
O332 C330 1.289 . S
O333 Mg325 2.048 . S
O333 C326 1.195 . S
O334 Mg325 2.048 . S
O334 C335 1.195 . S
C335 O334 1.195 . S
C335 O336 1.313 . S
O336 C335 1.313 . S
O337 Mg325 2.141 . S
O337 C328 1.289 . S
Mg338 O345 2.141 . S
Mg338 O346 2.048 . S
Mg338 O347 2.048 . S
Mg338 O350 2.141 . S
C339 O340 1.313 . S
C339 O346 1.195 . S
O340 C339 1.313 . S
C341 O342 1.245 . S
C341 O350 1.289 . S
O342 C341 1.245 . S
C343 O344 1.245 . S
C343 O345 1.289 . S
O344 C343 1.245 . S
O345 Mg338 2.141 . S
O345 C343 1.289 . S
O346 Mg338 2.048 . S
O346 C339 1.195 . S
O347 Mg338 2.048 . S
O347 C348 1.195 . S
C348 O347 1.195 . S
C348 O349 1.313 . S
O349 C348 1.313 . S
O350 Mg338 2.141 . S
O350 C341 1.289 . S
Mg351 O358 2.141 . S
Mg351 O359 2.048 . S
Mg351 O360 2.048 . S
Mg351 O363 2.141 . S
C352 O353 1.313 . S
C352 O359 1.195 . S
O353 C352 1.313 . S
C354 O355 1.245 . S
C354 O363 1.289 . S
O355 C354 1.245 . S
C356 O357 1.245 . S
C356 O358 1.289 . S
O357 C356 1.245 . S
O358 Mg351 2.141 . S
O358 C356 1.289 . S
O359 Mg351 2.048 . S
O359 C352 1.195 . S
O360 Mg351 2.048 . S
O360 C361 1.195 . S
C361 O360 1.195 . S
C361 O362 1.313 . S
O362 C361 1.313 . S
O363 Mg351 2.141 . S
O363 C354 1.289 . S
Mg364 O371 2.141 . S
Mg364 O372 2.048 . S
Mg364 O373 2.048 . S
Mg364 O376 2.141 1_655 S
C365 O366 1.313 . S
C365 O372 1.195 . S
O366 C365 1.313 . S
C367 O368 1.245 . S
C367 O376 1.289 . S
O368 C367 1.245 . S
C369 O370 1.245 . S
C369 O371 1.289 . S
O370 C369 1.245 . S
O371 Mg364 2.141 . S
O371 C369 1.289 . S
O372 Mg364 2.048 . S
O372 C365 1.195 . S
O373 Mg364 2.048 . S
O373 C374 1.195 . S
C374 O373 1.195 . S
C374 O375 1.313 . S
O375 C374 1.313 . S
O376 Mg364 2.141 1_455 S
O376 C367 1.289 . S
Mg377 O384 2.141 . S
Mg377 O385 2.048 . S
Mg377 O386 2.048 . S
Mg377 O389 2.141 . S
C378 O379 1.313 . S
C378 O385 1.195 . S
O379 C378 1.313 . S
C380 O381 1.245 . S
C380 O389 1.289 . S
O381 C380 1.245 . S
C382 O383 1.245 . S
C382 O384 1.289 . S
O383 C382 1.245 . S
O384 Mg377 2.141 . S
O384 C382 1.289 . S
O385 Mg377 2.048 . S
O385 C378 1.195 . S
O386 Mg377 2.048 . S
O386 C387 1.195 . S
C387 O386 1.195 . S
C387 O388 1.313 . S
O388 C387 1.313 . S
O389 Mg377 2.141 . S
O389 C380 1.289 . S
Mg390 O397 2.141 . S
Mg390 O398 2.048 . S
Mg390 O399 2.048 . S
Mg390 O402 2.141 . S
C391 O392 1.313 . S
C391 O398 1.195 . S
O392 C391 1.313 . S
C393 O394 1.245 . S
C393 O402 1.289 . S
O394 C393 1.245 . S
C395 O396 1.245 . S
C395 O397 1.289 . S
O396 C395 1.245 . S
O397 Mg390 2.141 . S
O397 C395 1.289 . S
O398 Mg390 2.048 . S
O398 C391 1.195 . S
O399 Mg390 2.048 . S
O399 C400 1.195 . S
C400 O399 1.195 . S
C400 O401 1.313 . S
O401 C400 1.313 . S
O402 Mg390 2.141 . S
O402 C393 1.289 . S
Mg403 O410 2.141 . S
Mg403 O411 2.048 . S
Mg403 O412 2.048 . S
Mg403 O415 2.141 . S
C404 O405 1.313 . S
C404 O411 1.195 . S
O405 C404 1.313 . S
C406 O407 1.245 . S
C406 O415 1.289 . S
O407 C406 1.245 . S
C408 O409 1.245 . S
C408 O410 1.289 . S
O409 C408 1.245 . S
O410 Mg403 2.141 . S
O410 C408 1.289 . S
O411 Mg403 2.048 . S
O411 C404 1.195 . S
O412 Mg403 2.048 . S
O412 C413 1.195 . S
C413 O412 1.195 . S
C413 O414 1.313 . S
O414 C413 1.313 . S
O415 Mg403 2.141 . S
O415 C406 1.289 . S
Mg416 O423 2.141 1_565 S
Mg416 O424 2.048 . S
Mg416 O425 2.048 . S
Mg416 O428 2.141 . S
C417 O418 1.313 . S
C417 O424 1.195 . S
O418 C417 1.313 . S
C419 O420 1.245 . S
C419 O428 1.289 . S
O420 C419 1.245 . S
C421 O422 1.245 . S
C421 O423 1.289 . S
O422 C421 1.245 . S
O423 Mg416 2.141 1_545 S
O423 C421 1.289 . S
O424 Mg416 2.048 . S
O424 C417 1.195 . S
O425 Mg416 2.048 . S
O425 C426 1.195 . S
C426 O425 1.195 . S
C426 O427 1.313 . S
O427 C426 1.313 . S
O428 Mg416 2.141 . S
O428 C419 1.289 . S
Mg429 O436 2.141 . S
Mg429 O437 2.048 . S
Mg429 O438 2.048 . S
Mg429 O441 2.141 . S
C430 O431 1.313 . S
C430 O437 1.195 . S
O431 C430 1.313 . S
C432 O433 1.245 . S
C432 O441 1.289 . S
O433 C432 1.245 . S
C434 O435 1.245 . S
C434 O436 1.289 . S
O435 C434 1.245 . S
O436 Mg429 2.141 . S
O436 C434 1.289 . S
O437 Mg429 2.048 . S
O437 C430 1.195 . S
O438 Mg429 2.048 . S
O438 C439 1.195 . S
C439 O438 1.195 . S
C439 O440 1.313 . S
O440 C439 1.313 . S
O441 Mg429 2.141 . S
O441 C432 1.289 . S
Mg442 O449 2.141 1_545 S
Mg442 O450 2.048 . S
Mg442 O451 2.048 . S
Mg442 O454 2.141 . S
C443 O444 1.313 . S
C443 O450 1.195 . S
O444 C443 1.313 . S
C445 O446 1.245 . S
C445 O454 1.289 . S
O446 C445 1.245 . S
C447 O448 1.245 . S
C447 O449 1.289 . S
O448 C447 1.245 . S
O449 Mg442 2.141 1_565 S
O449 C447 1.289 . S
O450 Mg442 2.048 . S
O450 C443 1.195 . S
O451 Mg442 2.048 . S
O451 C452 1.195 . S
C452 O451 1.195 . S
C452 O453 1.313 . S
O453 C452 1.313 . S
O454 Mg442 2.141 . S
O454 C445 1.289 . S
Mg455 O462 2.141 . S
Mg455 O463 2.048 . S
Mg455 O464 2.048 . S
Mg455 O467 2.141 . S
C456 O457 1.313 . S
C456 O463 1.195 . S
O457 C456 1.313 . S
C458 O459 1.245 . S
C458 O467 1.289 . S
O459 C458 1.245 . S
C460 O461 1.245 . S
C460 O462 1.289 . S
O461 C460 1.245 . S
O462 Mg455 2.141 . S
O462 C460 1.289 . S
O463 Mg455 2.048 . S
O463 C456 1.195 . S
O464 Mg455 2.048 . S
O464 C465 1.195 . S
C465 O464 1.195 . S
C465 O466 1.313 . S
O466 C465 1.313 . S
O467 Mg455 2.141 . S
O467 C458 1.289 . S
Mg468 O475 2.141 1_545 S
Mg468 O476 2.048 . S
Mg468 O477 2.048 . S
Mg468 O480 2.141 . S
C469 O470 1.313 . S
C469 O476 1.195 . S
O470 C469 1.313 . S
C471 O472 1.245 . S
C471 O480 1.289 . S
O472 C471 1.245 . S
C473 O474 1.245 . S
C473 O475 1.289 . S
O474 C473 1.245 . S
O475 Mg468 2.141 1_565 S
O475 C473 1.289 . S
O476 Mg468 2.048 . S
O476 C469 1.195 . S
O477 Mg468 2.048 . S
O477 C478 1.195 . S
C478 O477 1.195 . S
C478 O479 1.313 . S
O479 C478 1.313 . S
O480 Mg468 2.141 . S
O480 C471 1.289 . S
Mg481 O488 2.141 . S
Mg481 O489 2.048 . S
Mg481 O490 2.048 . S
Mg481 O493 2.141 . S
C482 O483 1.313 . S
C482 O489 1.195 . S
O483 C482 1.313 . S
C484 O485 1.245 . S
C484 O493 1.289 . S
O485 C484 1.245 . S
C486 O487 1.245 . S
C486 O488 1.289 . S
O487 C486 1.245 . S
O488 Mg481 2.141 . S
O488 C486 1.289 . S
O489 Mg481 2.048 . S
O489 C482 1.195 . S
O490 Mg481 2.048 . S
O490 C491 1.195 . S
C491 O490 1.195 . S
C491 O492 1.313 . S
O492 C491 1.313 . S
O493 Mg481 2.141 . S
O493 C484 1.289 . S
Mg494 O501 2.141 1_565 S
Mg494 O502 2.048 . S
Mg494 O503 2.048 . S
Mg494 O506 2.141 . S
C495 O496 1.313 . S
C495 O502 1.195 . S
O496 C495 1.313 . S
C497 O498 1.245 . S
C497 O506 1.289 . S
O498 C497 1.245 . S
C499 O500 1.245 . S
C499 O501 1.289 . S
O500 C499 1.245 . S
O501 Mg494 2.141 1_545 S
O501 C499 1.289 . S
O502 Mg494 2.048 . S
O502 C495 1.195 . S
O503 Mg494 2.048 . S
O503 C504 1.195 . S
C504 O503 1.195 . S
C504 O505 1.313 . S
O505 C504 1.313 . S
O506 Mg494 2.141 . S
O506 C497 1.289 . S
Mg507 O514 2.141 . S
Mg507 O515 2.048 . S
Mg507 O516 2.048 . S
Mg507 O519 2.141 . S
C508 O509 1.313 . S
C508 O515 1.195 . S
O509 C508 1.313 . S
C510 O511 1.245 . S
C510 O519 1.289 . S
O511 C510 1.245 . S
C512 O513 1.245 . S
C512 O514 1.289 . S
O513 C512 1.245 . S
O514 Mg507 2.141 . S
O514 C512 1.289 . S
O515 Mg507 2.048 . S
O515 C508 1.195 . S
O516 Mg507 2.048 . S
O516 C517 1.195 . S
C517 O516 1.195 . S
C517 O518 1.313 . S
O518 C517 1.313 . S
O519 Mg507 2.141 . S
O519 C510 1.289 . S
Mg520 O527 2.141 . S
Mg520 O528 2.048 . S
Mg520 O529 2.048 . S
Mg520 O532 2.141 1_556 S
C521 O522 1.313 . S
C521 O528 1.195 . S
O522 C521 1.313 . S
C523 O524 1.245 . S
C523 O532 1.289 . S
O524 C523 1.245 . S
C525 O526 1.245 . S
C525 O527 1.289 . S
O526 C525 1.245 . S
O527 Mg520 2.141 . S
O527 C525 1.289 . S
O528 Mg520 2.048 . S
O528 C521 1.195 . S
O529 Mg520 2.048 . S
O529 C530 1.195 . S
C530 O529 1.195 . S
C530 O531 1.313 . S
O531 C530 1.313 . S
O532 Mg520 2.141 1_554 S
O532 C523 1.289 . S
Mg533 O540 2.141 . S
Mg533 O541 2.048 . S
Mg533 O542 2.048 . S
Mg533 O545 2.141 1_554 S
C534 O535 1.313 . S
C534 O541 1.195 . S
O535 C534 1.313 . S
C536 O537 1.245 . S
C536 O545 1.289 . S
O537 C536 1.245 . S
C538 O539 1.245 . S
C538 O540 1.289 . S
O539 C538 1.245 . S
O540 Mg533 2.141 . S
O540 C538 1.289 . S
O541 Mg533 2.048 . S
O541 C534 1.195 . S
O542 Mg533 2.048 . S
O542 C543 1.195 . S
C543 O542 1.195 . S
C543 O544 1.313 . S
O544 C543 1.313 . S
O545 Mg533 2.141 1_556 S
O545 C536 1.289 . S
Mg546 O553 2.141 . S
Mg546 O554 2.048 . S
Mg546 O555 2.048 . S
Mg546 O558 2.141 . S
C547 O548 1.313 . S
C547 O554 1.195 . S
O548 C547 1.313 . S
C549 O550 1.245 . S
C549 O558 1.289 . S
O550 C549 1.245 . S
C551 O552 1.245 . S
C551 O553 1.289 . S
O552 C551 1.245 . S
O553 Mg546 2.141 . S
O553 C551 1.289 . S
O554 Mg546 2.048 . S
O554 C547 1.195 . S
O555 Mg546 2.048 . S
O555 C556 1.195 . S
C556 O555 1.195 . S
C556 O557 1.313 . S
O557 C556 1.313 . S
O558 Mg546 2.141 . S
O558 C549 1.289 . S
Mg559 O566 2.141 . S
Mg559 O567 2.048 . S
Mg559 O568 2.048 . S
Mg559 O571 2.141 . S
C560 O561 1.313 . S
C560 O567 1.195 . S
O561 C560 1.313 . S
C562 O563 1.245 . S
C562 O571 1.289 . S
O563 C562 1.245 . S
C564 O565 1.245 . S
C564 O566 1.289 . S
O565 C564 1.245 . S
O566 Mg559 2.141 . S
O566 C564 1.289 . S
O567 Mg559 2.048 . S
O567 C560 1.195 . S
O568 Mg559 2.048 . S
O568 C569 1.195 . S
C569 O568 1.195 . S
C569 O570 1.313 . S
O570 C569 1.313 . S
O571 Mg559 2.141 . S
O571 C562 1.289 . S
Mg572 O579 2.141 . S
Mg572 O580 2.048 . S
Mg572 O581 2.048 . S
Mg572 O584 2.141 . S
C573 O574 1.313 . S
C573 O580 1.195 . S
O574 C573 1.313 . S
C575 O576 1.245 . S
C575 O584 1.289 . S
O576 C575 1.245 . S
C577 O578 1.245 . S
C577 O579 1.289 . S
O578 C577 1.245 . S
O579 Mg572 2.141 . S
O579 C577 1.289 . S
O580 Mg572 2.048 . S
O580 C573 1.195 . S
O581 Mg572 2.048 . S
O581 C582 1.195 . S
C582 O581 1.195 . S
C582 O583 1.313 . S
O583 C582 1.313 . S
O584 Mg572 2.141 . S
O584 C575 1.289 . S
Mg585 O592 2.141 . S
Mg585 O593 2.048 . S
Mg585 O594 2.048 . S
Mg585 O597 2.141 . S
C586 O587 1.313 . S
C586 O593 1.195 . S
O587 C586 1.313 . S
C588 O589 1.245 . S
C588 O597 1.289 . S
O589 C588 1.245 . S
C590 O591 1.245 . S
C590 O592 1.289 . S
O591 C590 1.245 . S
O592 Mg585 2.141 . S
O592 C590 1.289 . S
O593 Mg585 2.048 . S
O593 C586 1.195 . S
O594 Mg585 2.048 . S
O594 C595 1.195 . S
C595 O594 1.195 . S
C595 O596 1.313 . S
O596 C595 1.313 . S
O597 Mg585 2.141 . S
O597 C588 1.289 . S
Mg598 O605 2.141 . S
Mg598 O606 2.048 . S
Mg598 O607 2.048 . S
Mg598 O610 2.141 . S
C599 O600 1.313 . S
C599 O606 1.195 . S
O600 C599 1.313 . S
C601 O602 1.245 . S
C601 O610 1.289 . S
O602 C601 1.245 . S
C603 O604 1.245 . S
C603 O605 1.289 . S
O604 C603 1.245 . S
O605 Mg598 2.141 . S
O605 C603 1.289 . S
O606 Mg598 2.048 . S
O606 C599 1.195 . S
O607 Mg598 2.048 . S
O607 C608 1.195 . S
C608 O607 1.195 . S
C608 O609 1.313 . S
O609 C608 1.313 . S
O610 Mg598 2.141 . S
O610 C601 1.289 . S
Mg611 O618 2.141 . S
Mg611 O619 2.048 . S
Mg611 O620 2.048 . S
Mg611 O623 2.141 . S
C612 O613 1.313 . S
C612 O619 1.195 . S
O613 C612 1.313 . S
C614 O615 1.245 . S
C614 O623 1.289 . S
O615 C614 1.245 . S
C616 O617 1.245 . S
C616 O618 1.289 . S
O617 C616 1.245 . S
O618 Mg611 2.141 . S
O618 C616 1.289 . S
O619 Mg611 2.048 . S
O619 C612 1.195 . S
O620 Mg611 2.048 . S
O620 C621 1.195 . S
C621 O620 1.195 . S
C621 O622 1.313 . S
O622 C621 1.313 . S
O623 Mg611 2.141 . S
O623 C614 1.289 . S
Mg624 O631 2.141 . S
Mg624 O632 2.048 . S
Mg624 O633 2.048 . S
Mg624 O636 2.141 . S
C625 O626 1.313 . S
C625 O632 1.195 . S
O626 C625 1.313 . S
C627 O628 1.245 . S
C627 O636 1.289 . S
O628 C627 1.245 . S
C629 O630 1.245 . S
C629 O631 1.289 . S
O630 C629 1.245 . S
O631 Mg624 2.141 . S
O631 C629 1.289 . S
O632 Mg624 2.048 . S
O632 C625 1.195 . S
O633 Mg624 2.048 . S
O633 C634 1.195 . S
C634 O633 1.195 . S
C634 O635 1.313 . S
O635 C634 1.313 . S
O636 Mg624 2.141 . S
O636 C627 1.289 . S
Mg637 O644 2.141 . S
Mg637 O645 2.048 . S
Mg637 O646 2.048 . S
Mg637 O649 2.141 . S
C638 O639 1.313 . S
C638 O645 1.195 . S
O639 C638 1.313 . S
C640 O641 1.245 . S
C640 O649 1.289 . S
O641 C640 1.245 . S
C642 O643 1.245 . S
C642 O644 1.289 . S
O643 C642 1.245 . S
O644 Mg637 2.141 . S
O644 C642 1.289 . S
O645 Mg637 2.048 . S
O645 C638 1.195 . S
O646 Mg637 2.048 . S
O646 C647 1.195 . S
C647 O646 1.195 . S
C647 O648 1.313 . S
O648 C647 1.313 . S
O649 Mg637 2.141 . S
O649 C640 1.289 . S
Mg650 O657 2.141 . S
Mg650 O658 2.048 . S
Mg650 O659 2.048 . S
Mg650 O662 2.141 1_655 S
C651 O652 1.313 . S
C651 O658 1.195 . S
O652 C651 1.313 . S
C653 O654 1.245 . S
C653 O662 1.289 . S
O654 C653 1.245 . S
C655 O656 1.245 . S
C655 O657 1.289 . S
O656 C655 1.245 . S
O657 Mg650 2.141 . S
O657 C655 1.289 . S
O658 Mg650 2.048 . S
O658 C651 1.195 . S
O659 Mg650 2.048 . S
O659 C660 1.195 . S
C660 O659 1.195 . S
C660 O661 1.313 . S
O661 C660 1.313 . S
O662 Mg650 2.141 1_455 S
O662 C653 1.289 . S
Mg663 O670 2.141 . S
Mg663 O671 2.048 . S
Mg663 O672 2.048 . S
Mg663 O675 2.141 . S
C664 O665 1.313 . S
C664 O671 1.195 . S
O665 C664 1.313 . S
C666 O667 1.245 . S
C666 O675 1.289 . S
O667 C666 1.245 . S
C668 O669 1.245 . S
C668 O670 1.289 . S
O669 C668 1.245 . S
O670 Mg663 2.141 . S
O670 C668 1.289 . S
O671 Mg663 2.048 . S
O671 C664 1.195 . S
O672 Mg663 2.048 . S
O672 C673 1.195 . S
C673 O672 1.195 . S
C673 O674 1.313 . S
O674 C673 1.313 . S
O675 Mg663 2.141 . S
O675 C666 1.289 . S
Mg676 O683 2.141 . S
Mg676 O684 2.048 . S
Mg676 O685 2.048 . S
Mg676 O688 2.141 . S
C677 O678 1.313 . S
C677 O684 1.195 . S
O678 C677 1.313 . S
C679 O680 1.245 . S
C679 O688 1.289 . S
O680 C679 1.245 . S
C681 O682 1.245 . S
C681 O683 1.289 . S
O682 C681 1.245 . S
O683 Mg676 2.141 . S
O683 C681 1.289 . S
O684 Mg676 2.048 . S
O684 C677 1.195 . S
O685 Mg676 2.048 . S
O685 C686 1.195 . S
C686 O685 1.195 . S
C686 O687 1.313 . S
O687 C686 1.313 . S
O688 Mg676 2.141 . S
O688 C679 1.289 . S
Mg689 O696 2.141 . S
Mg689 O697 2.048 . S
Mg689 O698 2.048 . S
Mg689 O701 2.141 . S
C690 O691 1.313 . S
C690 O697 1.195 . S
O691 C690 1.313 . S
C692 O693 1.245 . S
C692 O701 1.289 . S
O693 C692 1.245 . S
C694 O695 1.245 . S
C694 O696 1.289 . S
O695 C694 1.245 . S
O696 Mg689 2.141 . S
O696 C694 1.289 . S
O697 Mg689 2.048 . S
O697 C690 1.195 . S
O698 Mg689 2.048 . S
O698 C699 1.195 . S
C699 O698 1.195 . S
C699 O700 1.313 . S
O700 C699 1.313 . S
O701 Mg689 2.141 . S
O701 C692 1.289 . S
Mg702 O709 2.141 . S
Mg702 O710 2.048 . S
Mg702 O711 2.048 . S
Mg702 O714 2.141 1_655 S
C703 O704 1.313 . S
C703 O710 1.195 . S
O704 C703 1.313 . S
C705 O706 1.245 . S
C705 O714 1.289 . S
O706 C705 1.245 . S
C707 O708 1.245 . S
C707 O709 1.289 . S
O708 C707 1.245 . S
O709 Mg702 2.141 . S
O709 C707 1.289 . S
O710 Mg702 2.048 . S
O710 C703 1.195 . S
O711 Mg702 2.048 . S
O711 C712 1.195 . S
C712 O711 1.195 . S
C712 O713 1.313 . S
O713 C712 1.313 . S
O714 Mg702 2.141 1_455 S
O714 C705 1.289 . S
Mg715 O722 2.141 . S
Mg715 O723 2.048 . S
Mg715 O724 2.048 . S
Mg715 O727 2.141 . S
C716 O717 1.313 . S
C716 O723 1.195 . S
O717 C716 1.313 . S
C718 O719 1.245 . S
C718 O727 1.289 . S
O719 C718 1.245 . S
C720 O721 1.245 . S
C720 O722 1.289 . S
O721 C720 1.245 . S
O722 Mg715 2.141 . S
O722 C720 1.289 . S
O723 Mg715 2.048 . S
O723 C716 1.195 . S
O724 Mg715 2.048 . S
O724 C725 1.195 . S
C725 O724 1.195 . S
C725 O726 1.313 . S
O726 C725 1.313 . S
O727 Mg715 2.141 . S
O727 C718 1.289 . S
Mg728 O735 2.141 . S
Mg728 O736 2.048 . S
Mg728 O737 2.048 . S
Mg728 O740 2.141 . S
C729 O730 1.313 . S
C729 O736 1.195 . S
O730 C729 1.313 . S
C731 O732 1.245 . S
C731 O740 1.289 . S
O732 C731 1.245 . S
C733 O734 1.245 . S
C733 O735 1.289 . S
O734 C733 1.245 . S
O735 Mg728 2.141 . S
O735 C733 1.289 . S
O736 Mg728 2.048 . S
O736 C729 1.195 . S
O737 Mg728 2.048 . S
O737 C738 1.195 . S
C738 O737 1.195 . S
C738 O739 1.313 . S
O739 C738 1.313 . S
O740 Mg728 2.141 . S
O740 C731 1.289 . S
Mg741 O748 2.141 . S
Mg741 O749 2.048 . S
Mg741 O750 2.048 . S
Mg741 O753 2.141 . S
C742 O743 1.313 . S
C742 O749 1.195 . S
O743 C742 1.313 . S
C744 O745 1.245 . S
C744 O753 1.289 . S
O745 C744 1.245 . S
C746 O747 1.245 . S
C746 O748 1.289 . S
O747 C746 1.245 . S
O748 Mg741 2.141 . S
O748 C746 1.289 . S
O749 Mg741 2.048 . S
O749 C742 1.195 . S
O750 Mg741 2.048 . S
O750 C751 1.195 . S
C751 O750 1.195 . S
C751 O752 1.313 . S
O752 C751 1.313 . S
O753 Mg741 2.141 . S
O753 C744 1.289 . S
Mg754 O761 2.141 . S
Mg754 O762 2.048 . S
Mg754 O763 2.048 . S
Mg754 O766 2.141 . S
C755 O756 1.313 . S
C755 O762 1.195 . S
O756 C755 1.313 . S
C757 O758 1.245 . S
C757 O766 1.289 . S
O758 C757 1.245 . S
C759 O760 1.245 . S
C759 O761 1.289 . S
O760 C759 1.245 . S
O761 Mg754 2.141 . S
O761 C759 1.289 . S
O762 Mg754 2.048 . S
O762 C755 1.195 . S
O763 Mg754 2.048 . S
O763 C764 1.195 . S
C764 O763 1.195 . S
C764 O765 1.313 . S
O765 C764 1.313 . S
O766 Mg754 2.141 . S
O766 C757 1.289 . S
Mg767 O774 2.141 . S
Mg767 O775 2.048 . S
Mg767 O776 2.048 . S
Mg767 O779 2.141 . S
C768 O769 1.313 . S
C768 O775 1.195 . S
O769 C768 1.313 . S
C770 O771 1.245 . S
C770 O779 1.289 . S
O771 C770 1.245 . S
C772 O773 1.245 . S
C772 O774 1.289 . S
O773 C772 1.245 . S
O774 Mg767 2.141 . S
O774 C772 1.289 . S
O775 Mg767 2.048 . S
O775 C768 1.195 . S
O776 Mg767 2.048 . S
O776 C777 1.195 . S
C777 O776 1.195 . S
C777 O778 1.313 . S
O778 C777 1.313 . S
O779 Mg767 2.141 . S
O779 C770 1.289 . S
Mg780 O787 2.141 . S
Mg780 O788 2.048 . S
Mg780 O789 2.048 . S
Mg780 O792 2.141 . S
C781 O782 1.313 . S
C781 O788 1.195 . S
O782 C781 1.313 . S
C783 O784 1.245 . S
C783 O792 1.289 . S
O784 C783 1.245 . S
C785 O786 1.245 . S
C785 O787 1.289 . S
O786 C785 1.245 . S
O787 Mg780 2.141 . S
O787 C785 1.289 . S
O788 Mg780 2.048 . S
O788 C781 1.195 . S
O789 Mg780 2.048 . S
O789 C790 1.195 . S
C790 O789 1.195 . S
C790 O791 1.313 . S
O791 C790 1.313 . S
O792 Mg780 2.141 . S
O792 C783 1.289 . S
Mg793 O800 2.141 . S
Mg793 O801 2.048 . S
Mg793 O802 2.048 . S
Mg793 O805 2.141 . S
C794 O795 1.313 . S
C794 O801 1.195 . S
O795 C794 1.313 . S
C796 O797 1.245 . S
C796 O805 1.289 . S
O797 C796 1.245 . S
C798 O799 1.245 . S
C798 O800 1.289 . S
O799 C798 1.245 . S
O800 Mg793 2.141 . S
O800 C798 1.289 . S
O801 Mg793 2.048 . S
O801 C794 1.195 . S
O802 Mg793 2.048 . S
O802 C803 1.195 . S
C803 O802 1.195 . S
C803 O804 1.313 . S
O804 C803 1.313 . S
O805 Mg793 2.141 . S
O805 C796 1.289 . S
Mg806 O813 2.141 . S
Mg806 O814 2.048 . S
Mg806 O815 2.048 . S
Mg806 O818 2.141 . S
C807 O808 1.313 . S
C807 O814 1.195 . S
O808 C807 1.313 . S
C809 O810 1.245 . S
C809 O818 1.289 . S
O810 C809 1.245 . S
C811 O812 1.245 . S
C811 O813 1.289 . S
O812 C811 1.245 . S
O813 Mg806 2.141 . S
O813 C811 1.289 . S
O814 Mg806 2.048 . S
O814 C807 1.195 . S
O815 Mg806 2.048 . S
O815 C816 1.195 . S
C816 O815 1.195 . S
C816 O817 1.313 . S
O817 C816 1.313 . S
O818 Mg806 2.141 . S
O818 C809 1.289 . S
Mg819 O826 2.141 . S
Mg819 O827 2.048 . S
Mg819 O828 2.048 . S
Mg819 O831 2.141 . S
C820 O821 1.313 . S
C820 O827 1.195 . S
O821 C820 1.313 . S
C822 O823 1.245 . S
C822 O831 1.289 . S
O823 C822 1.245 . S
C824 O825 1.245 . S
C824 O826 1.289 . S
O825 C824 1.245 . S
O826 Mg819 2.141 . S
O826 C824 1.289 . S
O827 Mg819 2.048 . S
O827 C820 1.195 . S
O828 Mg819 2.048 . S
O828 C829 1.195 . S
C829 O828 1.195 . S
C829 O830 1.313 . S
O830 C829 1.313 . S
O831 Mg819 2.141 . S
O831 C822 1.289 . S
Mg832 O839 2.141 . S
Mg832 O840 2.048 . S
Mg832 O841 2.048 . S
Mg832 O844 2.141 . S
C833 O834 1.313 . S
C833 O840 1.195 . S
O834 C833 1.313 . S
C835 O836 1.245 . S
C835 O844 1.289 . S
O836 C835 1.245 . S
C837 O838 1.245 . S
C837 O839 1.289 . S
O838 C837 1.245 . S
O839 Mg832 2.141 . S
O839 C837 1.289 . S
O840 Mg832 2.048 . S
O840 C833 1.195 . S
O841 Mg832 2.048 . S
O841 C842 1.195 . S
C842 O841 1.195 . S
C842 O843 1.313 . S
O843 C842 1.313 . S
O844 Mg832 2.141 . S
O844 C835 1.289 . S
Mg845 O852 2.141 . S
Mg845 O853 2.048 . S
Mg845 O854 2.048 . S
Mg845 O857 2.141 . S
C846 O847 1.313 . S
C846 O853 1.195 . S
O847 C846 1.313 . S
C848 O849 1.245 . S
C848 O857 1.289 . S
O849 C848 1.245 . S
C850 O851 1.245 . S
C850 O852 1.289 . S
O851 C850 1.245 . S
O852 Mg845 2.141 . S
O852 C850 1.289 . S
O853 Mg845 2.048 . S
O853 C846 1.195 . S
O854 Mg845 2.048 . S
O854 C855 1.195 . S
C855 O854 1.195 . S
C855 O856 1.313 . S
O856 C855 1.313 . S
O857 Mg845 2.141 . S
O857 C848 1.289 . S
Mg858 O865 2.141 . S
Mg858 O866 2.048 . S
Mg858 O867 2.048 . S
Mg858 O870 2.141 . S
C859 O860 1.313 . S
C859 O866 1.195 . S
O860 C859 1.313 . S
C861 O862 1.245 . S
C861 O870 1.289 . S
O862 C861 1.245 . S
C863 O864 1.245 . S
C863 O865 1.289 . S
O864 C863 1.245 . S
O865 Mg858 2.141 . S
O865 C863 1.289 . S
O866 Mg858 2.048 . S
O866 C859 1.195 . S
O867 Mg858 2.048 . S
O867 C868 1.195 . S
C868 O867 1.195 . S
C868 O869 1.313 . S
O869 C868 1.313 . S
O870 Mg858 2.141 . S
O870 C861 1.289 . S
Mg871 O878 2.141 . S
Mg871 O879 2.048 . S
Mg871 O880 2.048 . S
Mg871 O883 2.141 1_556 S
C872 O873 1.313 . S
C872 O879 1.195 . S
O873 C872 1.313 . S
C874 O875 1.245 . S
C874 O883 1.289 . S
O875 C874 1.245 . S
C876 O877 1.245 . S
C876 O878 1.289 . S
O877 C876 1.245 . S
O878 Mg871 2.141 . S
O878 C876 1.289 . S
O879 Mg871 2.048 . S
O879 C872 1.195 . S
O880 Mg871 2.048 . S
O880 C881 1.195 . S
C881 O880 1.195 . S
C881 O882 1.313 . S
O882 C881 1.313 . S
O883 Mg871 2.141 1_554 S
O883 C874 1.289 . S
Mg884 O891 2.141 . S
Mg884 O892 2.048 . S
Mg884 O893 2.048 . S
Mg884 O896 2.141 . S
C885 O886 1.313 . S
C885 O892 1.195 . S
O886 C885 1.313 . S
C887 O888 1.245 . S
C887 O896 1.289 . S
O888 C887 1.245 . S
C889 O890 1.245 . S
C889 O891 1.289 . S
O890 C889 1.245 . S
O891 Mg884 2.141 . S
O891 C889 1.289 . S
O892 Mg884 2.048 . S
O892 C885 1.195 . S
O893 Mg884 2.048 . S
O893 C894 1.195 . S
C894 O893 1.195 . S
C894 O895 1.313 . S
O895 C894 1.313 . S
O896 Mg884 2.141 . S
O896 C887 1.289 . S
Mg897 O904 2.141 . S
Mg897 O905 2.048 . S
Mg897 O906 2.048 . S
Mg897 O909 2.141 1_554 S
C898 O899 1.313 . S
C898 O905 1.195 . S
O899 C898 1.313 . S
C900 O901 1.245 . S
C900 O909 1.289 . S
O901 C900 1.245 . S
C902 O903 1.245 . S
C902 O904 1.289 . S
O903 C902 1.245 . S
O904 Mg897 2.141 . S
O904 C902 1.289 . S
O905 Mg897 2.048 . S
O905 C898 1.195 . S
O906 Mg897 2.048 . S
O906 C907 1.195 . S
C907 O906 1.195 . S
C907 O908 1.313 . S
O908 C907 1.313 . S
O909 Mg897 2.141 1_556 S
O909 C900 1.289 . S
Mg910 O917 2.141 . S
Mg910 O918 2.048 . S
Mg910 O919 2.048 . S
Mg910 O922 2.141 . S
C911 O912 1.313 . S
C911 O918 1.195 . S
O912 C911 1.313 . S
C913 O914 1.245 . S
C913 O922 1.289 . S
O914 C913 1.245 . S
C915 O916 1.245 . S
C915 O917 1.289 . S
O916 C915 1.245 . S
O917 Mg910 2.141 . S
O917 C915 1.289 . S
O918 Mg910 2.048 . S
O918 C911 1.195 . S
O919 Mg910 2.048 . S
O919 C920 1.195 . S
C920 O919 1.195 . S
C920 O921 1.313 . S
O921 C920 1.313 . S
O922 Mg910 2.141 . S
O922 C913 1.289 . S
Mg923 O930 2.141 . S
Mg923 O931 2.048 . S
Mg923 O932 2.048 . S
Mg923 O935 2.141 . S
C924 O925 1.313 . S
C924 O931 1.195 . S
O925 C924 1.313 . S
C926 O927 1.245 . S
C926 O935 1.289 . S
O927 C926 1.245 . S
C928 O929 1.245 . S
C928 O930 1.289 . S
O929 C928 1.245 . S
O930 Mg923 2.141 . S
O930 C928 1.289 . S
O931 Mg923 2.048 . S
O931 C924 1.195 . S
O932 Mg923 2.048 . S
O932 C933 1.195 . S
C933 O932 1.195 . S
C933 O934 1.313 . S
O934 C933 1.313 . S
O935 Mg923 2.141 . S
O935 C926 1.289 . S
Mg936 O943 2.141 . S
Mg936 O944 2.048 . S
Mg936 O945 2.048 . S
Mg936 O948 2.141 . S
C937 O938 1.313 . S
C937 O944 1.195 . S
O938 C937 1.313 . S
C939 O940 1.245 . S
C939 O948 1.289 . S
O940 C939 1.245 . S
C941 O942 1.245 . S
C941 O943 1.289 . S
O942 C941 1.245 . S
O943 Mg936 2.141 . S
O943 C941 1.289 . S
O944 Mg936 2.048 . S
O944 C937 1.195 . S
O945 Mg936 2.048 . S
O945 C946 1.195 . S
C946 O945 1.195 . S
C946 O947 1.313 . S
O947 C946 1.313 . S
O948 Mg936 2.141 . S
O948 C939 1.289 . S
Mg949 O956 2.141 . S
Mg949 O957 2.048 . S
Mg949 O958 2.048 . S
Mg949 O961 2.141 . S
C950 O951 1.313 . S
C950 O957 1.195 . S
O951 C950 1.313 . S
C952 O953 1.245 . S
C952 O961 1.289 . S
O953 C952 1.245 . S
C954 O955 1.245 . S
C954 O956 1.289 . S
O955 C954 1.245 . S
O956 Mg949 2.141 . S
O956 C954 1.289 . S
O957 Mg949 2.048 . S
O957 C950 1.195 . S
O958 Mg949 2.048 . S
O958 C959 1.195 . S
C959 O958 1.195 . S
C959 O960 1.313 . S
O960 C959 1.313 . S
O961 Mg949 2.141 . S
O961 C952 1.289 . S
Mg962 O969 2.141 . S
Mg962 O970 2.048 . S
Mg962 O971 2.048 . S
Mg962 O974 2.141 1_455 S
C963 O964 1.313 . S
C963 O970 1.195 . S
O964 C963 1.313 . S
C965 O966 1.245 . S
C965 O974 1.289 . S
O966 C965 1.245 . S
C967 O968 1.245 . S
C967 O969 1.289 . S
O968 C967 1.245 . S
O969 Mg962 2.141 . S
O969 C967 1.289 . S
O970 Mg962 2.048 . S
O970 C963 1.195 . S
O971 Mg962 2.048 . S
O971 C972 1.195 . S
C972 O971 1.195 . S
C972 O973 1.313 . S
O973 C972 1.313 . S
O974 Mg962 2.141 1_655 S
O974 C965 1.289 . S
Mg975 O982 2.141 . S
Mg975 O983 2.048 . S
Mg975 O984 2.048 . S
Mg975 O987 2.141 . S
C976 O977 1.313 . S
C976 O983 1.195 . S
O977 C976 1.313 . S
C978 O979 1.245 . S
C978 O987 1.289 . S
O979 C978 1.245 . S
C980 O981 1.245 . S
C980 O982 1.289 . S
O981 C980 1.245 . S
O982 Mg975 2.141 . S
O982 C980 1.289 . S
O983 Mg975 2.048 . S
O983 C976 1.195 . S
O984 Mg975 2.048 . S
O984 C985 1.195 . S
C985 O984 1.195 . S
C985 O986 1.313 . S
O986 C985 1.313 . S
O987 Mg975 2.141 . S
O987 C978 1.289 . S
Mg988 O995 2.141 . S
Mg988 O996 2.048 . S
Mg988 O997 2.048 . S
Mg988 O1000 2.141 . S
C989 O990 1.313 . S
C989 O996 1.195 . S
O990 C989 1.313 . S
C991 O992 1.245 . S
C991 O1000 1.289 . S
O992 C991 1.245 . S
C993 O994 1.245 . S
C993 O995 1.289 . S
O994 C993 1.245 . S
O995 Mg988 2.141 . S
O995 C993 1.289 . S
O996 Mg988 2.048 . S
O996 C989 1.195 . S
O997 Mg988 2.048 . S
O997 C998 1.195 . S
C998 O997 1.195 . S
C998 O999 1.313 . S
O999 C998 1.313 . S
O1000 Mg988 2.141 . S
O1000 C991 1.289 . S
Mg1001 O1008 2.141 . S
Mg1001 O1009 2.048 . S
Mg1001 O1010 2.048 . S
Mg1001 O1013 2.141 . S
C1002 O1003 1.313 . S
C1002 O1009 1.195 . S
O1003 C1002 1.313 . S
C1004 O1005 1.245 . S
C1004 O1013 1.289 . S
O1005 C1004 1.245 . S
C1006 O1007 1.245 . S
C1006 O1008 1.289 . S
O1007 C1006 1.245 . S
O1008 Mg1001 2.141 . S
O1008 C1006 1.289 . S
O1009 Mg1001 2.048 . S
O1009 C1002 1.195 . S
O1010 Mg1001 2.048 . S
O1010 C1011 1.195 . S
C1011 O1010 1.195 . S
C1011 O1012 1.313 . S
O1012 C1011 1.313 . S
O1013 Mg1001 2.141 . S
O1013 C1004 1.289 . S
Mg1014 O1021 2.141 . S
Mg1014 O1022 2.048 . S
Mg1014 O1023 2.048 . S
Mg1014 O1026 2.141 1_455 S
C1015 O1016 1.313 . S
C1015 O1022 1.195 . S
O1016 C1015 1.313 . S
C1017 O1018 1.245 . S
C1017 O1026 1.289 . S
O1018 C1017 1.245 . S
C1019 O1020 1.245 . S
C1019 O1021 1.289 . S
O1020 C1019 1.245 . S
O1021 Mg1014 2.141 . S
O1021 C1019 1.289 . S
O1022 Mg1014 2.048 . S
O1022 C1015 1.195 . S
O1023 Mg1014 2.048 . S
O1023 C1024 1.195 . S
C1024 O1023 1.195 . S
C1024 O1025 1.313 . S
O1025 C1024 1.313 . S
O1026 Mg1014 2.141 1_655 S
O1026 C1017 1.289 . S
Mg1027 O1034 2.141 . S
Mg1027 O1035 2.048 . S
Mg1027 O1036 2.048 . S
Mg1027 O1039 2.141 . S
C1028 O1029 1.313 . S
C1028 O1035 1.195 . S
O1029 C1028 1.313 . S
C1030 O1031 1.245 . S
C1030 O1039 1.289 . S
O1031 C1030 1.245 . S
C1032 O1033 1.245 . S
C1032 O1034 1.289 . S
O1033 C1032 1.245 . S
O1034 Mg1027 2.141 . S
O1034 C1032 1.289 . S
O1035 Mg1027 2.048 . S
O1035 C1028 1.195 . S
O1036 Mg1027 2.048 . S
O1036 C1037 1.195 . S
C1037 O1036 1.195 . S
C1037 O1038 1.313 . S
O1038 C1037 1.313 . S
O1039 Mg1027 2.141 . S
O1039 C1030 1.289 . S
Mg1040 O1047 2.141 . S
Mg1040 O1048 2.048 . S
Mg1040 O1049 2.048 . S
Mg1040 O1052 2.141 . S
C1041 O1042 1.313 . S
C1041 O1048 1.195 . S
O1042 C1041 1.313 . S
C1043 O1044 1.245 . S
C1043 O1052 1.289 . S
O1044 C1043 1.245 . S
C1045 O1046 1.245 . S
C1045 O1047 1.289 . S
O1046 C1045 1.245 . S
O1047 Mg1040 2.141 . S
O1047 C1045 1.289 . S
O1048 Mg1040 2.048 . S
O1048 C1041 1.195 . S
O1049 Mg1040 2.048 . S
O1049 C1050 1.195 . S
C1050 O1049 1.195 . S
C1050 O1051 1.313 . S
O1051 C1050 1.313 . S
O1052 Mg1040 2.141 . S
O1052 C1043 1.289 . S
Mg1053 O1060 2.141 . S
Mg1053 O1061 2.048 . S
Mg1053 O1062 2.048 . S
Mg1053 O1065 2.141 . S
C1054 O1055 1.313 . S
C1054 O1061 1.195 . S
O1055 C1054 1.313 . S
C1056 O1057 1.245 . S
C1056 O1065 1.289 . S
O1057 C1056 1.245 . S
C1058 O1059 1.245 . S
C1058 O1060 1.289 . S
O1059 C1058 1.245 . S
O1060 Mg1053 2.141 . S
O1060 C1058 1.289 . S
O1061 Mg1053 2.048 . S
O1061 C1054 1.195 . S
O1062 Mg1053 2.048 . S
O1062 C1063 1.195 . S
C1063 O1062 1.195 . S
C1063 O1064 1.313 . S
O1064 C1063 1.313 . S
O1065 Mg1053 2.141 . S
O1065 C1056 1.289 . S
Mg1066 O1073 2.141 . S
Mg1066 O1074 2.048 . S
Mg1066 O1075 2.048 . S
Mg1066 O1078 2.141 . S
C1067 O1068 1.313 . S
C1067 O1074 1.195 . S
O1068 C1067 1.313 . S
C1069 O1070 1.245 . S
C1069 O1078 1.289 . S
O1070 C1069 1.245 . S
C1071 O1072 1.245 . S
C1071 O1073 1.289 . S
O1072 C1071 1.245 . S
O1073 Mg1066 2.141 . S
O1073 C1071 1.289 . S
O1074 Mg1066 2.048 . S
O1074 C1067 1.195 . S
O1075 Mg1066 2.048 . S
O1075 C1076 1.195 . S
C1076 O1075 1.195 . S
C1076 O1077 1.313 . S
O1077 C1076 1.313 . S
O1078 Mg1066 2.141 . S
O1078 C1069 1.289 . S
Mg1079 O1086 2.141 . S
Mg1079 O1087 2.048 . S
Mg1079 O1088 2.048 . S
Mg1079 O1091 2.141 . S
C1080 O1081 1.313 . S
C1080 O1087 1.195 . S
O1081 C1080 1.313 . S
C1082 O1083 1.245 . S
C1082 O1091 1.289 . S
O1083 C1082 1.245 . S
C1084 O1085 1.245 . S
C1084 O1086 1.289 . S
O1085 C1084 1.245 . S
O1086 Mg1079 2.141 . S
O1086 C1084 1.289 . S
O1087 Mg1079 2.048 . S
O1087 C1080 1.195 . S
O1088 Mg1079 2.048 . S
O1088 C1089 1.195 . S
C1089 O1088 1.195 . S
C1089 O1090 1.313 . S
O1090 C1089 1.313 . S
O1091 Mg1079 2.141 . S
O1091 C1082 1.289 . S
Mg1092 O1099 2.141 . S
Mg1092 O1100 2.048 . S
Mg1092 O1101 2.048 . S
Mg1092 O1104 2.141 . S
C1093 O1094 1.313 . S
C1093 O1100 1.195 . S
O1094 C1093 1.313 . S
C1095 O1096 1.245 . S
C1095 O1104 1.289 . S
O1096 C1095 1.245 . S
C1097 O1098 1.245 . S
C1097 O1099 1.289 . S
O1098 C1097 1.245 . S
O1099 Mg1092 2.141 . S
O1099 C1097 1.289 . S
O1100 Mg1092 2.048 . S
O1100 C1093 1.195 . S
O1101 Mg1092 2.048 . S
O1101 C1102 1.195 . S
C1102 O1101 1.195 . S
C1102 O1103 1.313 . S
O1103 C1102 1.313 . S
O1104 Mg1092 2.141 . S
O1104 C1095 1.289 . S
Mg1105 O1112 2.141 . S
Mg1105 O1113 2.048 . S
Mg1105 O1114 2.048 . S
Mg1105 O1117 2.141 . S
C1106 O1107 1.313 . S
C1106 O1113 1.195 . S
O1107 C1106 1.313 . S
C1108 O1109 1.245 . S
C1108 O1117 1.289 . S
O1109 C1108 1.245 . S
C1110 O1111 1.245 . S
C1110 O1112 1.289 . S
O1111 C1110 1.245 . S
O1112 Mg1105 2.141 . S
O1112 C1110 1.289 . S
O1113 Mg1105 2.048 . S
O1113 C1106 1.195 . S
O1114 Mg1105 2.048 . S
O1114 C1115 1.195 . S
C1115 O1114 1.195 . S
C1115 O1116 1.313 . S
O1116 C1115 1.313 . S
O1117 Mg1105 2.141 . S
O1117 C1108 1.289 . S
Mg1118 O1125 2.141 . S
Mg1118 O1126 2.048 . S
Mg1118 O1127 2.048 . S
Mg1118 O1130 2.141 . S
C1119 O1120 1.313 . S
C1119 O1126 1.195 . S
O1120 C1119 1.313 . S
C1121 O1122 1.245 . S
C1121 O1130 1.289 . S
O1122 C1121 1.245 . S
C1123 O1124 1.245 . S
C1123 O1125 1.289 . S
O1124 C1123 1.245 . S
O1125 Mg1118 2.141 . S
O1125 C1123 1.289 . S
O1126 Mg1118 2.048 . S
O1126 C1119 1.195 . S
O1127 Mg1118 2.048 . S
O1127 C1128 1.195 . S
C1128 O1127 1.195 . S
C1128 O1129 1.313 . S
O1129 C1128 1.313 . S
O1130 Mg1118 2.141 . S
O1130 C1121 1.289 . S
Mg1131 O1138 2.141 . S
Mg1131 O1139 2.048 . S
Mg1131 O1140 2.048 . S
Mg1131 O1143 2.141 . S
C1132 O1133 1.313 . S
C1132 O1139 1.195 . S
O1133 C1132 1.313 . S
C1134 O1135 1.245 . S
C1134 O1143 1.289 . S
O1135 C1134 1.245 . S
C1136 O1137 1.245 . S
C1136 O1138 1.289 . S
O1137 C1136 1.245 . S
O1138 Mg1131 2.141 . S
O1138 C1136 1.289 . S
O1139 Mg1131 2.048 . S
O1139 C1132 1.195 . S
O1140 Mg1131 2.048 . S
O1140 C1141 1.195 . S
C1141 O1140 1.195 . S
C1141 O1142 1.313 . S
O1142 C1141 1.313 . S
O1143 Mg1131 2.141 . S
O1143 C1134 1.289 . S
Mg1144 O1151 2.141 . S
Mg1144 O1152 2.048 . S
Mg1144 O1153 2.048 . S
Mg1144 O1156 2.141 . S
C1145 O1146 1.313 . S
C1145 O1152 1.195 . S
O1146 C1145 1.313 . S
C1147 O1148 1.245 . S
C1147 O1156 1.289 . S
O1148 C1147 1.245 . S
C1149 O1150 1.245 . S
C1149 O1151 1.289 . S
O1150 C1149 1.245 . S
O1151 Mg1144 2.141 . S
O1151 C1149 1.289 . S
O1152 Mg1144 2.048 . S
O1152 C1145 1.195 . S
O1153 Mg1144 2.048 . S
O1153 C1154 1.195 . S
C1154 O1153 1.195 . S
C1154 O1155 1.313 . S
O1155 C1154 1.313 . S
O1156 Mg1144 2.141 . S
O1156 C1147 1.289 . S
Mg1157 O1164 2.141 . S
Mg1157 O1165 2.048 . S
Mg1157 O1166 2.048 . S
Mg1157 O1169 2.141 . S
C1158 O1159 1.313 . S
C1158 O1165 1.195 . S
O1159 C1158 1.313 . S
C1160 O1161 1.245 . S
C1160 O1169 1.289 . S
O1161 C1160 1.245 . S
C1162 O1163 1.245 . S
C1162 O1164 1.289 . S
O1163 C1162 1.245 . S
O1164 Mg1157 2.141 . S
O1164 C1162 1.289 . S
O1165 Mg1157 2.048 . S
O1165 C1158 1.195 . S
O1166 Mg1157 2.048 . S
O1166 C1167 1.195 . S
C1167 O1166 1.195 . S
C1167 O1168 1.313 . S
O1168 C1167 1.313 . S
O1169 Mg1157 2.141 . S
O1169 C1160 1.289 . S
Mg1170 O1177 2.141 . S
Mg1170 O1178 2.048 . S
Mg1170 O1179 2.048 . S
Mg1170 O1182 2.141 . S
C1171 O1172 1.313 . S
C1171 O1178 1.195 . S
O1172 C1171 1.313 . S
C1173 O1174 1.245 . S
C1173 O1182 1.289 . S
O1174 C1173 1.245 . S
C1175 O1176 1.245 . S
C1175 O1177 1.289 . S
O1176 C1175 1.245 . S
O1177 Mg1170 2.141 . S
O1177 C1175 1.289 . S
O1178 Mg1170 2.048 . S
O1178 C1171 1.195 . S
O1179 Mg1170 2.048 . S
O1179 C1180 1.195 . S
C1180 O1179 1.195 . S
C1180 O1181 1.313 . S
O1181 C1180 1.313 . S
O1182 Mg1170 2.141 . S
O1182 C1173 1.289 . S
Mg1183 O1190 2.141 . S
Mg1183 O1191 2.048 . S
Mg1183 O1192 2.048 . S
Mg1183 O1195 2.141 1_554 S
C1184 O1185 1.313 . S
C1184 O1191 1.195 . S
O1185 C1184 1.313 . S
C1186 O1187 1.245 . S
C1186 O1195 1.289 . S
O1187 C1186 1.245 . S
C1188 O1189 1.245 . S
C1188 O1190 1.289 . S
O1189 C1188 1.245 . S
O1190 Mg1183 2.141 . S
O1190 C1188 1.289 . S
O1191 Mg1183 2.048 . S
O1191 C1184 1.195 . S
O1192 Mg1183 2.048 . S
O1192 C1193 1.195 . S
C1193 O1192 1.195 . S
C1193 O1194 1.313 . S
O1194 C1193 1.313 . S
O1195 Mg1183 2.141 1_556 S
O1195 C1186 1.289 . S
Mg1196 O1203 2.141 . S
Mg1196 O1204 2.048 . S
Mg1196 O1205 2.048 . S
Mg1196 O1208 2.141 . S
C1197 O1198 1.313 . S
C1197 O1204 1.195 . S
O1198 C1197 1.313 . S
C1199 O1200 1.245 . S
C1199 O1208 1.289 . S
O1200 C1199 1.245 . S
C1201 O1202 1.245 . S
C1201 O1203 1.289 . S
O1202 C1201 1.245 . S
O1203 Mg1196 2.141 . S
O1203 C1201 1.289 . S
O1204 Mg1196 2.048 . S
O1204 C1197 1.195 . S
O1205 Mg1196 2.048 . S
O1205 C1206 1.195 . S
C1206 O1205 1.195 . S
C1206 O1207 1.313 . S
O1207 C1206 1.313 . S
O1208 Mg1196 2.141 . S
O1208 C1199 1.289 . S
Mg1209 O1216 2.141 . S
Mg1209 O1217 2.048 . S
Mg1209 O1218 2.048 . S
Mg1209 O1221 2.141 1_556 S
C1210 O1211 1.313 . S
C1210 O1217 1.195 . S
O1211 C1210 1.313 . S
C1212 O1213 1.245 . S
C1212 O1221 1.289 . S
O1213 C1212 1.245 . S
C1214 O1215 1.245 . S
C1214 O1216 1.289 . S
O1215 C1214 1.245 . S
O1216 Mg1209 2.141 . S
O1216 C1214 1.289 . S
O1217 Mg1209 2.048 . S
O1217 C1210 1.195 . S
O1218 Mg1209 2.048 . S
O1218 C1219 1.195 . S
C1219 O1218 1.195 . S
C1219 O1220 1.313 . S
O1220 C1219 1.313 . S
O1221 Mg1209 2.141 1_554 S
O1221 C1212 1.289 . S
Mg1222 O1229 2.141 . S
Mg1222 O1230 2.048 . S
Mg1222 O1231 2.048 . S
Mg1222 O1234 2.141 . S
C1223 O1224 1.313 . S
C1223 O1230 1.195 . S
O1224 C1223 1.313 . S
C1225 O1226 1.245 . S
C1225 O1234 1.289 . S
O1226 C1225 1.245 . S
C1227 O1228 1.245 . S
C1227 O1229 1.289 . S
O1228 C1227 1.245 . S
O1229 Mg1222 2.141 . S
O1229 C1227 1.289 . S
O1230 Mg1222 2.048 . S
O1230 C1223 1.195 . S
O1231 Mg1222 2.048 . S
O1231 C1232 1.195 . S
C1232 O1231 1.195 . S
C1232 O1233 1.313 . S
O1233 C1232 1.313 . S
O1234 Mg1222 2.141 . S
O1234 C1225 1.289 . S
Mg1235 O1242 2.141 . S
Mg1235 O1243 2.048 . S
Mg1235 O1244 2.048 . S
Mg1235 O1247 2.141 . S
C1236 O1237 1.313 . S
C1236 O1243 1.195 . S
O1237 C1236 1.313 . S
C1238 O1239 1.245 . S
C1238 O1247 1.289 . S
O1239 C1238 1.245 . S
C1240 O1241 1.245 . S
C1240 O1242 1.289 . S
O1241 C1240 1.245 . S
O1242 Mg1235 2.141 . S
O1242 C1240 1.289 . S
O1243 Mg1235 2.048 . S
O1243 C1236 1.195 . S
O1244 Mg1235 2.048 . S
O1244 C1245 1.195 . S
C1245 O1244 1.195 . S
C1245 O1246 1.313 . S
O1246 C1245 1.313 . S
O1247 Mg1235 2.141 . S
O1247 C1238 1.289 . S
H1248 C1256 0.950 . S
H1249 C1261 0.950 . S
H1250 C1258 0.950 . S
H1251 C1260 0.950 . S
H1252 C1262 0.950 . S
H1253 C1264 0.950 . S
H1254 C1266 0.950 . S
H1255 C1267 0.950 . S
C1256 H1248 0.950 . S
C1256 C1257 1.386 . S
C1256 C1258 1.391 . S
C1257 C1256 1.386 . S
C1257 C1261 1.393 . S
C1258 H1250 0.950 . S
C1258 C1256 1.391 . S
C1258 C1259 1.400 . S
C1259 C1258 1.400 . S
C1259 C1260 1.398 . S
C1259 C1265 1.491 . S
C1260 H1251 0.950 . S
C1260 C1259 1.398 . S
C1260 C1261 1.391 . S
C1261 H1249 0.950 . S
C1261 C1257 1.393 . S
C1261 C1260 1.391 . S
C1262 H1252 0.950 . S
C1262 C1263 1.386 . S
C1262 C1264 1.391 . S
C1263 C1262 1.386 . S
C1263 C1267 1.393 . S
C1264 H1253 0.950 . S
C1264 C1262 1.391 . S
C1264 C1265 1.400 . S
C1265 C1259 1.491 . S
C1265 C1264 1.400 . S
C1265 C1266 1.398 . S
C1266 H1254 0.950 . S
C1266 C1265 1.398 . S
C1266 C1267 1.391 . S
C1267 H1255 0.950 . S
C1267 C1263 1.393 . S
C1267 C1266 1.391 . S
H1268 C1276 0.950 . S
H1269 C1281 0.950 . S
H1270 C1278 0.950 . S
H1271 C1280 0.950 . S
H1272 C1282 0.950 . S
H1273 C1284 0.950 . S
H1274 C1286 0.950 . S
H1275 C1287 0.950 . S
C1276 H1268 0.950 . S
C1276 C1277 1.386 . S
C1276 C1278 1.391 . S
C1277 C1276 1.386 . S
C1277 C1281 1.393 . S
C1278 H1270 0.950 . S
C1278 C1276 1.391 . S
C1278 C1279 1.400 . S
C1279 C1278 1.400 . S
C1279 C1280 1.398 . S
C1279 C1285 1.491 . S
C1280 H1271 0.950 . S
C1280 C1279 1.398 . S
C1280 C1281 1.391 . S
C1281 H1269 0.950 . S
C1281 C1277 1.393 . S
C1281 C1280 1.391 . S
C1282 H1272 0.950 . S
C1282 C1283 1.386 . S
C1282 C1284 1.391 . S
C1283 C1282 1.386 . S
C1283 C1287 1.393 . S
C1284 H1273 0.950 . S
C1284 C1282 1.391 . S
C1284 C1285 1.400 . S
C1285 C1279 1.491 . S
C1285 C1284 1.400 . S
C1285 C1286 1.398 . S
C1286 H1274 0.950 . S
C1286 C1285 1.398 . S
C1286 C1287 1.391 . S
C1287 H1275 0.950 . S
C1287 C1283 1.393 . S
C1287 C1286 1.391 . S
H1288 C1296 0.950 . S
H1289 C1301 0.950 . S
H1290 C1298 0.950 . S
H1291 C1300 0.950 . S
H1292 C1302 0.950 . S
H1293 C1304 0.950 . S
H1294 C1306 0.950 . S
H1295 C1307 0.950 . S
C1296 H1288 0.950 . S
C1296 C1297 1.386 . S
C1296 C1298 1.391 . S
C1297 C1296 1.386 . S
C1297 C1301 1.393 . S
C1298 H1290 0.950 . S
C1298 C1296 1.391 . S
C1298 C1299 1.400 . S
C1299 C1298 1.400 . S
C1299 C1300 1.398 . S
C1299 C1305 1.491 . S
C1300 H1291 0.950 . S
C1300 C1299 1.398 . S
C1300 C1301 1.391 . S
C1301 H1289 0.950 . S
C1301 C1297 1.393 . S
C1301 C1300 1.391 . S
C1302 H1292 0.950 . S
C1302 C1303 1.386 . S
C1302 C1304 1.391 . S
C1303 C1302 1.386 . S
C1303 C1307 1.393 . S
C1304 H1293 0.950 . S
C1304 C1302 1.391 . S
C1304 C1305 1.400 . S
C1305 C1299 1.491 . S
C1305 C1304 1.400 . S
C1305 C1306 1.398 . S
C1306 H1294 0.950 . S
C1306 C1305 1.398 . S
C1306 C1307 1.391 . S
C1307 H1295 0.950 . S
C1307 C1303 1.393 . S
C1307 C1306 1.391 . S
H1308 C1316 0.950 . S
H1309 C1321 0.950 . S
H1310 C1318 0.950 . S
H1311 C1320 0.950 . S
H1312 C1322 0.950 . S
H1313 C1324 0.950 . S
H1314 C1326 0.950 . S
H1315 C1327 0.950 . S
C1316 H1308 0.950 . S
C1316 C1317 1.386 . S
C1316 C1318 1.391 . S
C1317 C1316 1.386 . S
C1317 C1321 1.393 . S
C1318 H1310 0.950 . S
C1318 C1316 1.391 . S
C1318 C1319 1.400 . S
C1319 C1318 1.400 . S
C1319 C1320 1.398 . S
C1319 C1325 1.491 . S
C1320 H1311 0.950 . S
C1320 C1319 1.398 . S
C1320 C1321 1.391 . S
C1321 H1309 0.950 . S
C1321 C1317 1.393 . S
C1321 C1320 1.391 . S
C1322 H1312 0.950 . S
C1322 C1323 1.386 . S
C1322 C1324 1.391 . S
C1323 C1322 1.386 . S
C1323 C1327 1.393 . S
C1324 H1313 0.950 . S
C1324 C1322 1.391 . S
C1324 C1325 1.400 . S
C1325 C1319 1.491 . S
C1325 C1324 1.400 . S
C1325 C1326 1.398 . S
C1326 H1314 0.950 . S
C1326 C1325 1.398 . S
C1326 C1327 1.391 . S
C1327 H1315 0.950 . S
C1327 C1323 1.393 . S
C1327 C1326 1.391 . S
H1328 C1336 0.950 . S
H1329 C1341 0.950 . S
H1330 C1338 0.950 . S
H1331 C1340 0.950 . S
H1332 C1342 0.950 . S
H1333 C1344 0.950 . S
H1334 C1346 0.950 . S
H1335 C1347 0.950 . S
C1336 H1328 0.950 . S
C1336 C1337 1.386 . S
C1336 C1338 1.391 . S
C1337 C1336 1.386 . S
C1337 C1341 1.393 . S
C1338 H1330 0.950 . S
C1338 C1336 1.391 . S
C1338 C1339 1.400 . S
C1339 C1338 1.400 . S
C1339 C1340 1.398 . S
C1339 C1345 1.491 . S
C1340 H1331 0.950 . S
C1340 C1339 1.398 . S
C1340 C1341 1.391 . S
C1341 H1329 0.950 . S
C1341 C1337 1.393 . S
C1341 C1340 1.391 . S
C1342 H1332 0.950 . S
C1342 C1343 1.386 . S
C1342 C1344 1.391 . S
C1343 C1342 1.386 . S
C1343 C1347 1.393 . S
C1344 H1333 0.950 . S
C1344 C1342 1.391 . S
C1344 C1345 1.400 . S
C1345 C1339 1.491 . S
C1345 C1344 1.400 . S
C1345 C1346 1.398 . S
C1346 H1334 0.950 . S
C1346 C1345 1.398 . S
C1346 C1347 1.391 . S
C1347 H1335 0.950 . S
C1347 C1343 1.393 . S
C1347 C1346 1.391 . S
H1348 C1356 0.950 . S
H1349 C1361 0.950 . S
H1350 C1358 0.950 . S
H1351 C1360 0.950 . S
H1352 C1362 0.950 . S
H1353 C1364 0.950 . S
H1354 C1366 0.950 . S
H1355 C1367 0.950 . S
C1356 H1348 0.950 . S
C1356 C1357 1.386 . S
C1356 C1358 1.391 . S
C1357 C1356 1.386 . S
C1357 C1361 1.393 . S
C1358 H1350 0.950 . S
C1358 C1356 1.391 . S
C1358 C1359 1.400 . S
C1359 C1358 1.400 . S
C1359 C1360 1.398 . S
C1359 C1365 1.491 . S
C1360 H1351 0.950 . S
C1360 C1359 1.398 . S
C1360 C1361 1.391 . S
C1361 H1349 0.950 . S
C1361 C1357 1.393 . S
C1361 C1360 1.391 . S
C1362 H1352 0.950 . S
C1362 C1363 1.386 . S
C1362 C1364 1.391 . S
C1363 C1362 1.386 . S
C1363 C1367 1.393 . S
C1364 H1353 0.950 . S
C1364 C1362 1.391 . S
C1364 C1365 1.400 . S
C1365 C1359 1.491 . S
C1365 C1364 1.400 . S
C1365 C1366 1.398 . S
C1366 H1354 0.950 . S
C1366 C1365 1.398 . S
C1366 C1367 1.391 . S
C1367 H1355 0.950 . S
C1367 C1363 1.393 . S
C1367 C1366 1.391 . S
H1368 C1376 0.950 . S
H1369 C1381 0.950 . S
H1370 C1378 0.950 . S
H1371 C1380 0.950 . S
H1372 C1382 0.950 . S
H1373 C1384 0.950 . S
H1374 C1386 0.950 . S
H1375 C1387 0.950 . S
C1376 H1368 0.950 . S
C1376 C1377 1.386 . S
C1376 C1378 1.391 . S
C1377 C1376 1.386 . S
C1377 C1381 1.393 . S
C1378 H1370 0.950 . S
C1378 C1376 1.391 . S
C1378 C1379 1.400 . S
C1379 C1378 1.400 . S
C1379 C1380 1.398 . S
C1379 C1385 1.491 . S
C1380 H1371 0.950 . S
C1380 C1379 1.398 . S
C1380 C1381 1.391 . S
C1381 H1369 0.950 . S
C1381 C1377 1.393 . S
C1381 C1380 1.391 . S
C1382 H1372 0.950 . S
C1382 C1383 1.386 . S
C1382 C1384 1.391 . S
C1383 C1382 1.386 . S
C1383 C1387 1.393 . S
C1384 H1373 0.950 . S
C1384 C1382 1.391 . S
C1384 C1385 1.400 . S
C1385 C1379 1.491 . S
C1385 C1384 1.400 . S
C1385 C1386 1.398 . S
C1386 H1374 0.950 . S
C1386 C1385 1.398 . S
C1386 C1387 1.391 . S
C1387 H1375 0.950 . S
C1387 C1383 1.393 . S
C1387 C1386 1.391 . S
H1388 C1396 0.950 . S
H1389 C1401 0.950 . S
H1390 C1398 0.950 . S
H1391 C1400 0.950 . S
H1392 C1402 0.950 . S
H1393 C1404 0.950 . S
H1394 C1406 0.950 . S
H1395 C1407 0.950 . S
C1396 H1388 0.950 . S
C1396 C1397 1.386 . S
C1396 C1398 1.391 . S
C1397 C1396 1.386 . S
C1397 C1401 1.393 . S
C1398 H1390 0.950 . S
C1398 C1396 1.391 . S
C1398 C1399 1.400 . S
C1399 C1398 1.400 . S
C1399 C1400 1.398 . S
C1399 C1405 1.491 . S
C1400 H1391 0.950 . S
C1400 C1399 1.398 . S
C1400 C1401 1.391 . S
C1401 H1389 0.950 . S
C1401 C1397 1.393 . S
C1401 C1400 1.391 . S
C1402 H1392 0.950 . S
C1402 C1403 1.386 . S
C1402 C1404 1.391 . S
C1403 C1402 1.386 . S
C1403 C1407 1.393 . S
C1404 H1393 0.950 . S
C1404 C1402 1.391 . S
C1404 C1405 1.400 . S
C1405 C1399 1.491 . S
C1405 C1404 1.400 . S
C1405 C1406 1.398 . S
C1406 H1394 0.950 . S
C1406 C1405 1.398 . S
C1406 C1407 1.391 . S
C1407 H1395 0.950 . S
C1407 C1403 1.393 . S
C1407 C1406 1.391 . S
H1408 C1416 0.950 . S
H1409 C1421 0.950 . S
H1410 C1418 0.950 . S
H1411 C1420 0.950 . S
H1412 C1422 0.950 . S
H1413 C1424 0.950 . S
H1414 C1426 0.950 . S
H1415 C1427 0.950 . S
C1416 H1408 0.950 . S
C1416 C1417 1.386 . S
C1416 C1418 1.391 . S
C1417 C1416 1.386 . S
C1417 C1421 1.393 . S
C1418 H1410 0.950 . S
C1418 C1416 1.391 . S
C1418 C1419 1.400 . S
C1419 C1418 1.400 . S
C1419 C1420 1.398 . S
C1419 C1425 1.491 . S
C1420 H1411 0.950 . S
C1420 C1419 1.398 . S
C1420 C1421 1.391 . S
C1421 H1409 0.950 . S
C1421 C1417 1.393 . S
C1421 C1420 1.391 . S
C1422 H1412 0.950 . S
C1422 C1423 1.386 . S
C1422 C1424 1.391 . S
C1423 C1422 1.386 . S
C1423 C1427 1.393 . S
C1424 H1413 0.950 . S
C1424 C1422 1.391 . S
C1424 C1425 1.400 . S
C1425 C1419 1.491 . S
C1425 C1424 1.400 . S
C1425 C1426 1.398 . S
C1426 H1414 0.950 . S
C1426 C1425 1.398 . S
C1426 C1427 1.391 . S
C1427 H1415 0.950 . S
C1427 C1423 1.393 . S
C1427 C1426 1.391 . S
H1428 C1436 0.950 . S
H1429 C1441 0.950 . S
H1430 C1438 0.950 . S
H1431 C1440 0.950 . S
H1432 C1442 0.950 . S
H1433 C1444 0.950 . S
H1434 C1446 0.950 . S
H1435 C1447 0.950 . S
C1436 H1428 0.950 . S
C1436 C1437 1.386 . S
C1436 C1438 1.391 . S
C1437 C1436 1.386 . S
C1437 C1441 1.393 . S
C1438 H1430 0.950 . S
C1438 C1436 1.391 . S
C1438 C1439 1.400 . S
C1439 C1438 1.400 . S
C1439 C1440 1.398 . S
C1439 C1445 1.491 . S
C1440 H1431 0.950 . S
C1440 C1439 1.398 . S
C1440 C1441 1.391 . S
C1441 H1429 0.950 . S
C1441 C1437 1.393 . S
C1441 C1440 1.391 . S
C1442 H1432 0.950 . S
C1442 C1443 1.386 . S
C1442 C1444 1.391 . S
C1443 C1442 1.386 . S
C1443 C1447 1.393 . S
C1444 H1433 0.950 . S
C1444 C1442 1.391 . S
C1444 C1445 1.400 . S
C1445 C1439 1.491 . S
C1445 C1444 1.400 . S
C1445 C1446 1.398 . S
C1446 H1434 0.950 . S
C1446 C1445 1.398 . S
C1446 C1447 1.391 . S
C1447 H1435 0.950 . S
C1447 C1443 1.393 . S
C1447 C1446 1.391 . S
H1448 C1456 0.950 . S
H1449 C1461 0.950 . S
H1450 C1458 0.950 . S
H1451 C1460 0.950 . S
H1452 C1462 0.950 . S
H1453 C1464 0.950 . S
H1454 C1466 0.950 . S
H1455 C1467 0.950 . S
C1456 H1448 0.950 . S
C1456 C1457 1.386 . S
C1456 C1458 1.391 . S
C1457 C1456 1.386 . S
C1457 C1461 1.393 . S
C1458 H1450 0.950 . S
C1458 C1456 1.391 . S
C1458 C1459 1.400 . S
C1459 C1458 1.400 . S
C1459 C1460 1.398 . S
C1459 C1465 1.491 . S
C1460 H1451 0.950 . S
C1460 C1459 1.398 . S
C1460 C1461 1.391 . S
C1461 H1449 0.950 . S
C1461 C1457 1.393 . S
C1461 C1460 1.391 . S
C1462 H1452 0.950 . S
C1462 C1463 1.386 . S
C1462 C1464 1.391 . S
C1463 C1462 1.386 . S
C1463 C1467 1.393 . S
C1464 H1453 0.950 . S
C1464 C1462 1.391 . S
C1464 C1465 1.400 . S
C1465 C1459 1.491 . S
C1465 C1464 1.400 . S
C1465 C1466 1.398 . S
C1466 H1454 0.950 . S
C1466 C1465 1.398 . S
C1466 C1467 1.391 . S
C1467 H1455 0.950 . S
C1467 C1463 1.393 . S
C1467 C1466 1.391 . S
H1468 C1476 0.950 . S
H1469 C1481 0.950 . S
H1470 C1478 0.950 . S
H1471 C1480 0.950 . S
H1472 C1482 0.950 . S
H1473 C1484 0.950 . S
H1474 C1486 0.950 . S
H1475 C1487 0.950 . S
C1476 H1468 0.950 . S
C1476 C1477 1.386 . S
C1476 C1478 1.391 . S
C1477 C1476 1.386 . S
C1477 C1481 1.393 . S
C1478 H1470 0.950 . S
C1478 C1476 1.391 . S
C1478 C1479 1.400 . S
C1479 C1478 1.400 . S
C1479 C1480 1.398 . S
C1479 C1485 1.491 . S
C1480 H1471 0.950 . S
C1480 C1479 1.398 . S
C1480 C1481 1.391 . S
C1481 H1469 0.950 . S
C1481 C1477 1.393 . S
C1481 C1480 1.391 . S
C1482 H1472 0.950 . S
C1482 C1483 1.386 . S
C1482 C1484 1.391 . S
C1483 C1482 1.386 . S
C1483 C1487 1.393 . S
C1484 H1473 0.950 . S
C1484 C1482 1.391 . S
C1484 C1485 1.400 . S
C1485 C1479 1.491 . S
C1485 C1484 1.400 . S
C1485 C1486 1.398 . S
C1486 H1474 0.950 . S
C1486 C1485 1.398 . S
C1486 C1487 1.391 . S
C1487 H1475 0.950 . S
C1487 C1483 1.393 . S
C1487 C1486 1.391 . S
H1488 C1496 0.950 . S
H1489 C1501 0.950 . S
H1490 C1498 0.950 . S
H1491 C1500 0.950 . S
H1492 C1502 0.950 . S
H1493 C1504 0.950 . S
H1494 C1506 0.950 . S
H1495 C1507 0.950 . S
C1496 H1488 0.950 . S
C1496 C1497 1.386 . S
C1496 C1498 1.391 . S
C1497 C1496 1.386 . S
C1497 C1501 1.393 . S
C1498 H1490 0.950 . S
C1498 C1496 1.391 . S
C1498 C1499 1.400 . S
C1499 C1498 1.400 . S
C1499 C1500 1.398 . S
C1499 C1505 1.491 . S
C1500 H1491 0.950 . S
C1500 C1499 1.398 . S
C1500 C1501 1.391 . S
C1501 H1489 0.950 . S
C1501 C1497 1.393 . S
C1501 C1500 1.391 . S
C1502 H1492 0.950 . S
C1502 C1503 1.386 . S
C1502 C1504 1.391 . S
C1503 C1502 1.386 . S
C1503 C1507 1.393 . S
C1504 H1493 0.950 . S
C1504 C1502 1.391 . S
C1504 C1505 1.400 . S
C1505 C1499 1.491 . S
C1505 C1504 1.400 . S
C1505 C1506 1.398 . S
C1506 H1494 0.950 . S
C1506 C1505 1.398 . S
C1506 C1507 1.391 . S
C1507 H1495 0.950 . S
C1507 C1503 1.393 . S
C1507 C1506 1.391 . S
H1508 C1516 0.950 . S
H1509 C1521 0.950 . S
H1510 C1518 0.950 . S
H1511 C1520 0.950 . S
H1512 C1522 0.950 . S
H1513 C1524 0.950 . S
H1514 C1526 0.950 . S
H1515 C1527 0.950 . S
C1516 H1508 0.950 . S
C1516 C1517 1.386 . S
C1516 C1518 1.391 . S
C1517 C1516 1.386 . S
C1517 C1521 1.393 . S
C1518 H1510 0.950 . S
C1518 C1516 1.391 . S
C1518 C1519 1.400 . S
C1519 C1518 1.400 . S
C1519 C1520 1.398 . S
C1519 C1525 1.491 . S
C1520 H1511 0.950 . S
C1520 C1519 1.398 . S
C1520 C1521 1.391 . S
C1521 H1509 0.950 . S
C1521 C1517 1.393 . S
C1521 C1520 1.391 . S
C1522 H1512 0.950 . S
C1522 C1523 1.386 . S
C1522 C1524 1.391 . S
C1523 C1522 1.386 . S
C1523 C1527 1.393 . S
C1524 H1513 0.950 . S
C1524 C1522 1.391 . S
C1524 C1525 1.400 . S
C1525 C1519 1.491 . S
C1525 C1524 1.400 . S
C1525 C1526 1.398 . S
C1526 H1514 0.950 . S
C1526 C1525 1.398 . S
C1526 C1527 1.391 . S
C1527 H1515 0.950 . S
C1527 C1523 1.393 . S
C1527 C1526 1.391 . S
H1528 C1536 0.950 . S
H1529 C1541 0.950 . S
H1530 C1538 0.950 . S
H1531 C1540 0.950 . S
H1532 C1542 0.950 . S
H1533 C1544 0.950 . S
H1534 C1546 0.950 . S
H1535 C1547 0.950 . S
C1536 H1528 0.950 . S
C1536 C1537 1.386 . S
C1536 C1538 1.391 . S
C1537 C1536 1.386 . S
C1537 C1541 1.393 . S
C1538 H1530 0.950 . S
C1538 C1536 1.391 . S
C1538 C1539 1.400 . S
C1539 C1538 1.400 . S
C1539 C1540 1.398 . S
C1539 C1545 1.491 . S
C1540 H1531 0.950 . S
C1540 C1539 1.398 . S
C1540 C1541 1.391 . S
C1541 H1529 0.950 . S
C1541 C1537 1.393 . S
C1541 C1540 1.391 . S
C1542 H1532 0.950 . S
C1542 C1543 1.386 . S
C1542 C1544 1.391 . S
C1543 C1542 1.386 . S
C1543 C1547 1.393 . S
C1544 H1533 0.950 . S
C1544 C1542 1.391 . S
C1544 C1545 1.400 . S
C1545 C1539 1.491 . S
C1545 C1544 1.400 . S
C1545 C1546 1.398 . S
C1546 H1534 0.950 . S
C1546 C1545 1.398 . S
C1546 C1547 1.391 . S
C1547 H1535 0.950 . S
C1547 C1543 1.393 . S
C1547 C1546 1.391 . S
H1548 C1556 0.950 . S
H1549 C1561 0.950 . S
H1550 C1558 0.950 . S
H1551 C1560 0.950 . S
H1552 C1562 0.950 . S
H1553 C1564 0.950 . S
H1554 C1566 0.950 . S
H1555 C1567 0.950 . S
C1556 H1548 0.950 . S
C1556 C1557 1.386 . S
C1556 C1558 1.391 . S
C1557 C1556 1.386 . S
C1557 C1561 1.393 . S
C1558 H1550 0.950 . S
C1558 C1556 1.391 . S
C1558 C1559 1.400 . S
C1559 C1558 1.400 . S
C1559 C1560 1.398 . S
C1559 C1565 1.491 . S
C1560 H1551 0.950 . S
C1560 C1559 1.398 . S
C1560 C1561 1.391 . S
C1561 H1549 0.950 . S
C1561 C1557 1.393 . S
C1561 C1560 1.391 . S
C1562 H1552 0.950 . S
C1562 C1563 1.386 . S
C1562 C1564 1.391 . S
C1563 C1562 1.386 . S
C1563 C1567 1.393 . S
C1564 H1553 0.950 . S
C1564 C1562 1.391 . S
C1564 C1565 1.400 . S
C1565 C1559 1.491 . S
C1565 C1564 1.400 . S
C1565 C1566 1.398 . S
C1566 H1554 0.950 . S
C1566 C1565 1.398 . S
C1566 C1567 1.391 . S
C1567 H1555 0.950 . S
C1567 C1563 1.393 . S
C1567 C1566 1.391 . S
H1568 C1576 0.950 . S
H1569 C1581 0.950 . S
H1570 C1578 0.950 . S
H1571 C1580 0.950 . S
H1572 C1582 0.950 . S
H1573 C1584 0.950 . S
H1574 C1586 0.950 . S
H1575 C1587 0.950 . S
C1576 H1568 0.950 . S
C1576 C1577 1.386 . S
C1576 C1578 1.391 . S
C1577 C1576 1.386 . S
C1577 C1581 1.393 . S
C1578 H1570 0.950 . S
C1578 C1576 1.391 . S
C1578 C1579 1.400 . S
C1579 C1578 1.400 . S
C1579 C1580 1.398 . S
C1579 C1585 1.491 . S
C1580 H1571 0.950 . S
C1580 C1579 1.398 . S
C1580 C1581 1.391 . S
C1581 H1569 0.950 . S
C1581 C1577 1.393 . S
C1581 C1580 1.391 . S
C1582 H1572 0.950 . S
C1582 C1583 1.386 . S
C1582 C1584 1.391 . S
C1583 C1582 1.386 . S
C1583 C1587 1.393 . S
C1584 H1573 0.950 . S
C1584 C1582 1.391 . S
C1584 C1585 1.400 . S
C1585 C1579 1.491 . S
C1585 C1584 1.400 . S
C1585 C1586 1.398 . S
C1586 H1574 0.950 . S
C1586 C1585 1.398 . S
C1586 C1587 1.391 . S
C1587 H1575 0.950 . S
C1587 C1583 1.393 . S
C1587 C1586 1.391 . S
H1588 C1596 0.950 . S
H1589 C1601 0.950 . S
H1590 C1598 0.950 . S
H1591 C1600 0.950 . S
H1592 C1602 0.950 . S
H1593 C1604 0.950 . S
H1594 C1606 0.950 . S
H1595 C1607 0.950 . S
C1596 H1588 0.950 . S
C1596 C1597 1.386 . S
C1596 C1598 1.391 . S
C1597 C1596 1.386 . S
C1597 C1601 1.393 . S
C1598 H1590 0.950 . S
C1598 C1596 1.391 . S
C1598 C1599 1.400 . S
C1599 C1598 1.400 . S
C1599 C1600 1.398 . S
C1599 C1605 1.491 . S
C1600 H1591 0.950 . S
C1600 C1599 1.398 . S
C1600 C1601 1.391 . S
C1601 H1589 0.950 . S
C1601 C1597 1.393 . S
C1601 C1600 1.391 . S
C1602 H1592 0.950 . S
C1602 C1603 1.386 . S
C1602 C1604 1.391 . S
C1603 C1602 1.386 . S
C1603 C1607 1.393 . S
C1604 H1593 0.950 . S
C1604 C1602 1.391 . S
C1604 C1605 1.400 . S
C1605 C1599 1.491 . S
C1605 C1604 1.400 . S
C1605 C1606 1.398 . S
C1606 H1594 0.950 . S
C1606 C1605 1.398 . S
C1606 C1607 1.391 . S
C1607 H1595 0.950 . S
C1607 C1603 1.393 . S
C1607 C1606 1.391 . S
H1608 C1616 0.950 . S
H1609 C1621 0.950 . S
H1610 C1618 0.950 . S
H1611 C1620 0.950 . S
H1612 C1622 0.950 . S
H1613 C1624 0.950 . S
H1614 C1626 0.950 . S
H1615 C1627 0.950 . S
C1616 H1608 0.950 . S
C1616 C1617 1.386 . S
C1616 C1618 1.391 . S
C1617 C1616 1.386 . S
C1617 C1621 1.393 . S
C1618 H1610 0.950 . S
C1618 C1616 1.391 . S
C1618 C1619 1.400 . S
C1619 C1618 1.400 . S
C1619 C1620 1.398 . S
C1619 C1625 1.491 . S
C1620 H1611 0.950 . S
C1620 C1619 1.398 . S
C1620 C1621 1.391 . S
C1621 H1609 0.950 . S
C1621 C1617 1.393 . S
C1621 C1620 1.391 . S
C1622 H1612 0.950 . S
C1622 C1623 1.386 . S
C1622 C1624 1.391 . S
C1623 C1622 1.386 . S
C1623 C1627 1.393 . S
C1624 H1613 0.950 . S
C1624 C1622 1.391 . S
C1624 C1625 1.400 . S
C1625 C1619 1.491 . S
C1625 C1624 1.400 . S
C1625 C1626 1.398 . S
C1626 H1614 0.950 . S
C1626 C1625 1.398 . S
C1626 C1627 1.391 . S
C1627 H1615 0.950 . S
C1627 C1623 1.393 . S
C1627 C1626 1.391 . S
H1628 C1636 0.950 . S
H1629 C1641 0.950 . S
H1630 C1638 0.950 . S
H1631 C1640 0.950 . S
H1632 C1642 0.950 . S
H1633 C1644 0.950 . S
H1634 C1646 0.950 . S
H1635 C1647 0.950 . S
C1636 H1628 0.950 . S
C1636 C1637 1.386 . S
C1636 C1638 1.391 . S
C1637 C1636 1.386 . S
C1637 C1641 1.393 . S
C1638 H1630 0.950 . S
C1638 C1636 1.391 . S
C1638 C1639 1.400 . S
C1639 C1638 1.400 . S
C1639 C1640 1.398 . S
C1639 C1645 1.491 . S
C1640 H1631 0.950 . S
C1640 C1639 1.398 . S
C1640 C1641 1.391 . S
C1641 H1629 0.950 . S
C1641 C1637 1.393 . S
C1641 C1640 1.391 . S
C1642 H1632 0.950 . S
C1642 C1643 1.386 . S
C1642 C1644 1.391 . S
C1643 C1642 1.386 . S
C1643 C1647 1.393 . S
C1644 H1633 0.950 . S
C1644 C1642 1.391 . S
C1644 C1645 1.400 . S
C1645 C1639 1.491 . S
C1645 C1644 1.400 . S
C1645 C1646 1.398 . S
C1646 H1634 0.950 . S
C1646 C1645 1.398 . S
C1646 C1647 1.391 . S
C1647 H1635 0.950 . S
C1647 C1643 1.393 . S
C1647 C1646 1.391 . S
H1648 C1656 0.950 . S
H1649 C1661 0.950 . S
H1650 C1658 0.950 . S
H1651 C1660 0.950 . S
H1652 C1662 0.950 . S
H1653 C1664 0.950 . S
H1654 C1666 0.950 . S
H1655 C1667 0.950 . S
C1656 H1648 0.950 . S
C1656 C1657 1.386 . S
C1656 C1658 1.391 . S
C1657 C1656 1.386 . S
C1657 C1661 1.393 . S
C1658 H1650 0.950 . S
C1658 C1656 1.391 . S
C1658 C1659 1.400 . S
C1659 C1658 1.400 . S
C1659 C1660 1.398 . S
C1659 C1665 1.491 . S
C1660 H1651 0.950 . S
C1660 C1659 1.398 . S
C1660 C1661 1.391 . S
C1661 H1649 0.950 . S
C1661 C1657 1.393 . S
C1661 C1660 1.391 . S
C1662 H1652 0.950 . S
C1662 C1663 1.386 . S
C1662 C1664 1.391 . S
C1663 C1662 1.386 . S
C1663 C1667 1.393 . S
C1664 H1653 0.950 . S
C1664 C1662 1.391 . S
C1664 C1665 1.400 . S
C1665 C1659 1.491 . S
C1665 C1664 1.400 . S
C1665 C1666 1.398 . S
C1666 H1654 0.950 . S
C1666 C1665 1.398 . S
C1666 C1667 1.391 . S
C1667 H1655 0.950 . S
C1667 C1663 1.393 . S
C1667 C1666 1.391 . S
H1668 C1676 0.950 . S
H1669 C1681 0.950 . S
H1670 C1678 0.950 . S
H1671 C1680 0.950 . S
H1672 C1682 0.950 . S
H1673 C1684 0.950 . S
H1674 C1686 0.950 . S
H1675 C1687 0.950 . S
C1676 H1668 0.950 . S
C1676 C1677 1.386 . S
C1676 C1678 1.391 . S
C1677 C1676 1.386 . S
C1677 C1681 1.393 . S
C1678 H1670 0.950 . S
C1678 C1676 1.391 . S
C1678 C1679 1.400 . S
C1679 C1678 1.400 . S
C1679 C1680 1.398 . S
C1679 C1685 1.491 . S
C1680 H1671 0.950 . S
C1680 C1679 1.398 . S
C1680 C1681 1.391 . S
C1681 H1669 0.950 . S
C1681 C1677 1.393 . S
C1681 C1680 1.391 . S
C1682 H1672 0.950 . S
C1682 C1683 1.386 . S
C1682 C1684 1.391 . S
C1683 C1682 1.386 . S
C1683 C1687 1.393 . S
C1684 H1673 0.950 . S
C1684 C1682 1.391 . S
C1684 C1685 1.400 . S
C1685 C1679 1.491 . S
C1685 C1684 1.400 . S
C1685 C1686 1.398 . S
C1686 H1674 0.950 . S
C1686 C1685 1.398 . S
C1686 C1687 1.391 . S
C1687 H1675 0.950 . S
C1687 C1683 1.393 . S
C1687 C1686 1.391 . S
H1688 C1696 0.950 . S
H1689 C1701 0.950 . S
H1690 C1698 0.950 . S
H1691 C1700 0.950 . S
H1692 C1702 0.950 . S
H1693 C1704 0.950 . S
H1694 C1706 0.950 . S
H1695 C1707 0.950 . S
C1696 H1688 0.950 . S
C1696 C1697 1.386 . S
C1696 C1698 1.391 . S
C1697 C1696 1.386 . S
C1697 C1701 1.393 . S
C1698 H1690 0.950 . S
C1698 C1696 1.391 . S
C1698 C1699 1.400 . S
C1699 C1698 1.400 . S
C1699 C1700 1.398 . S
C1699 C1705 1.491 . S
C1700 H1691 0.950 . S
C1700 C1699 1.398 . S
C1700 C1701 1.391 . S
C1701 H1689 0.950 . S
C1701 C1697 1.393 . S
C1701 C1700 1.391 . S
C1702 H1692 0.950 . S
C1702 C1703 1.386 . S
C1702 C1704 1.391 . S
C1703 C1702 1.386 . S
C1703 C1707 1.393 . S
C1704 H1693 0.950 . S
C1704 C1702 1.391 . S
C1704 C1705 1.400 . S
C1705 C1699 1.491 . S
C1705 C1704 1.400 . S
C1705 C1706 1.398 . S
C1706 H1694 0.950 . S
C1706 C1705 1.398 . S
C1706 C1707 1.391 . S
C1707 H1695 0.950 . S
C1707 C1703 1.393 . S
C1707 C1706 1.391 . S
H1708 C1716 0.950 . S
H1709 C1721 0.950 . S
H1710 C1718 0.950 . S
H1711 C1720 0.950 . S
H1712 C1722 0.950 . S
H1713 C1724 0.950 . S
H1714 C1726 0.950 . S
H1715 C1727 0.950 . S
C1716 H1708 0.950 . S
C1716 C1717 1.386 . S
C1716 C1718 1.391 . S
C1717 C1716 1.386 . S
C1717 C1721 1.393 . S
C1718 H1710 0.950 . S
C1718 C1716 1.391 . S
C1718 C1719 1.400 . S
C1719 C1718 1.400 . S
C1719 C1720 1.398 . S
C1719 C1725 1.491 . S
C1720 H1711 0.950 . S
C1720 C1719 1.398 . S
C1720 C1721 1.391 . S
C1721 H1709 0.950 . S
C1721 C1717 1.393 . S
C1721 C1720 1.391 . S
C1722 H1712 0.950 . S
C1722 C1723 1.386 . S
C1722 C1724 1.391 . S
C1723 C1722 1.386 . S
C1723 C1727 1.393 . S
C1724 H1713 0.950 . S
C1724 C1722 1.391 . S
C1724 C1725 1.400 . S
C1725 C1719 1.491 . S
C1725 C1724 1.400 . S
C1725 C1726 1.398 . S
C1726 H1714 0.950 . S
C1726 C1725 1.398 . S
C1726 C1727 1.391 . S
C1727 H1715 0.950 . S
C1727 C1723 1.393 . S
C1727 C1726 1.391 . S
H1728 C1736 0.950 . S
H1729 C1741 0.950 . S
H1730 C1738 0.950 . S
H1731 C1740 0.950 . S
H1732 C1742 0.950 . S
H1733 C1744 0.950 . S
H1734 C1746 0.950 . S
H1735 C1747 0.950 . S
C1736 H1728 0.950 . S
C1736 C1737 1.386 . S
C1736 C1738 1.391 . S
C1737 C1736 1.386 . S
C1737 C1741 1.393 . S
C1738 H1730 0.950 . S
C1738 C1736 1.391 . S
C1738 C1739 1.400 . S
C1739 C1738 1.400 . S
C1739 C1740 1.398 . S
C1739 C1745 1.491 . S
C1740 H1731 0.950 . S
C1740 C1739 1.398 . S
C1740 C1741 1.391 . S
C1741 H1729 0.950 . S
C1741 C1737 1.393 . S
C1741 C1740 1.391 . S
C1742 H1732 0.950 . S
C1742 C1743 1.386 . S
C1742 C1744 1.391 . S
C1743 C1742 1.386 . S
C1743 C1747 1.393 . S
C1744 H1733 0.950 . S
C1744 C1742 1.391 . S
C1744 C1745 1.400 . S
C1745 C1739 1.491 . S
C1745 C1744 1.400 . S
C1745 C1746 1.398 . S
C1746 H1734 0.950 . S
C1746 C1745 1.398 . S
C1746 C1747 1.391 . S
C1747 H1735 0.950 . S
C1747 C1743 1.393 . S
C1747 C1746 1.391 . S
H1748 C1756 0.950 . S
H1749 C1761 0.950 . S
H1750 C1758 0.950 . S
H1751 C1760 0.950 . S
H1752 C1762 0.950 . S
H1753 C1764 0.950 . S
H1754 C1766 0.950 . S
H1755 C1767 0.950 . S
C1756 H1748 0.950 . S
C1756 C1757 1.386 . S
C1756 C1758 1.391 . S
C1757 C1756 1.386 . S
C1757 C1761 1.393 . S
C1758 H1750 0.950 . S
C1758 C1756 1.391 . S
C1758 C1759 1.400 . S
C1759 C1758 1.400 . S
C1759 C1760 1.398 . S
C1759 C1765 1.491 . S
C1760 H1751 0.950 . S
C1760 C1759 1.398 . S
C1760 C1761 1.391 . S
C1761 H1749 0.950 . S
C1761 C1757 1.393 . S
C1761 C1760 1.391 . S
C1762 H1752 0.950 . S
C1762 C1763 1.386 . S
C1762 C1764 1.391 . S
C1763 C1762 1.386 . S
C1763 C1767 1.393 . S
C1764 H1753 0.950 . S
C1764 C1762 1.391 . S
C1764 C1765 1.400 . S
C1765 C1759 1.491 . S
C1765 C1764 1.400 . S
C1765 C1766 1.398 . S
C1766 H1754 0.950 . S
C1766 C1765 1.398 . S
C1766 C1767 1.391 . S
C1767 H1755 0.950 . S
C1767 C1763 1.393 . S
C1767 C1766 1.391 . S
H1768 C1776 0.950 . S
H1769 C1781 0.950 . S
H1770 C1778 0.950 . S
H1771 C1780 0.950 . S
H1772 C1782 0.950 . S
H1773 C1784 0.950 . S
H1774 C1786 0.950 . S
H1775 C1787 0.950 . S
C1776 H1768 0.950 . S
C1776 C1777 1.386 . S
C1776 C1778 1.391 . S
C1777 C1776 1.386 . S
C1777 C1781 1.393 . S
C1778 H1770 0.950 . S
C1778 C1776 1.391 . S
C1778 C1779 1.400 . S
C1779 C1778 1.400 . S
C1779 C1780 1.398 . S
C1779 C1785 1.491 . S
C1780 H1771 0.950 . S
C1780 C1779 1.398 . S
C1780 C1781 1.391 . S
C1781 H1769 0.950 . S
C1781 C1777 1.393 . S
C1781 C1780 1.391 . S
C1782 H1772 0.950 . S
C1782 C1783 1.386 . S
C1782 C1784 1.391 . S
C1783 C1782 1.386 . S
C1783 C1787 1.393 . S
C1784 H1773 0.950 . S
C1784 C1782 1.391 . S
C1784 C1785 1.400 . S
C1785 C1779 1.491 . S
C1785 C1784 1.400 . S
C1785 C1786 1.398 . S
C1786 H1774 0.950 . S
C1786 C1785 1.398 . S
C1786 C1787 1.391 . S
C1787 H1775 0.950 . S
C1787 C1783 1.393 . S
C1787 C1786 1.391 . S
H1788 C1796 0.950 . S
H1789 C1801 0.950 . S
H1790 C1798 0.950 . S
H1791 C1800 0.950 . S
H1792 C1802 0.950 . S
H1793 C1804 0.950 . S
H1794 C1806 0.950 . S
H1795 C1807 0.950 . S
C1796 H1788 0.950 . S
C1796 C1797 1.386 . S
C1796 C1798 1.391 . S
C1797 C1796 1.386 . S
C1797 C1801 1.393 . S
C1798 H1790 0.950 . S
C1798 C1796 1.391 . S
C1798 C1799 1.400 . S
C1799 C1798 1.400 . S
C1799 C1800 1.398 . S
C1799 C1805 1.491 . S
C1800 H1791 0.950 . S
C1800 C1799 1.398 . S
C1800 C1801 1.391 . S
C1801 H1789 0.950 . S
C1801 C1797 1.393 . S
C1801 C1800 1.391 . S
C1802 H1792 0.950 . S
C1802 C1803 1.386 . S
C1802 C1804 1.391 . S
C1803 C1802 1.386 . S
C1803 C1807 1.393 . S
C1804 H1793 0.950 . S
C1804 C1802 1.391 . S
C1804 C1805 1.400 . S
C1805 C1799 1.491 . S
C1805 C1804 1.400 . S
C1805 C1806 1.398 . S
C1806 H1794 0.950 . S
C1806 C1805 1.398 . S
C1806 C1807 1.391 . S
C1807 H1795 0.950 . S
C1807 C1803 1.393 . S
C1807 C1806 1.391 . S
H1808 C1816 0.950 . S
H1809 C1821 0.950 . S
H1810 C1818 0.950 . S
H1811 C1820 0.950 . S
H1812 C1822 0.950 . S
H1813 C1824 0.950 . S
H1814 C1826 0.950 . S
H1815 C1827 0.950 . S
C1816 H1808 0.950 . S
C1816 C1817 1.386 . S
C1816 C1818 1.391 . S
C1817 C1816 1.386 . S
C1817 C1821 1.393 . S
C1818 H1810 0.950 . S
C1818 C1816 1.391 . S
C1818 C1819 1.400 . S
C1819 C1818 1.400 . S
C1819 C1820 1.398 . S
C1819 C1825 1.491 . S
C1820 H1811 0.950 . S
C1820 C1819 1.398 . S
C1820 C1821 1.391 . S
C1821 H1809 0.950 . S
C1821 C1817 1.393 . S
C1821 C1820 1.391 . S
C1822 H1812 0.950 . S
C1822 C1823 1.386 . S
C1822 C1824 1.391 . S
C1823 C1822 1.386 . S
C1823 C1827 1.393 . S
C1824 H1813 0.950 . S
C1824 C1822 1.391 . S
C1824 C1825 1.400 . S
C1825 C1819 1.491 . S
C1825 C1824 1.400 . S
C1825 C1826 1.398 . S
C1826 H1814 0.950 . S
C1826 C1825 1.398 . S
C1826 C1827 1.391 . S
C1827 H1815 0.950 . S
C1827 C1823 1.393 . S
C1827 C1826 1.391 . S
H1828 C1836 0.950 . S
H1829 C1841 0.950 . S
H1830 C1838 0.950 . S
H1831 C1840 0.950 . S
H1832 C1842 0.950 . S
H1833 C1844 0.950 . S
H1834 C1846 0.950 . S
H1835 C1847 0.950 . S
C1836 H1828 0.950 . S
C1836 C1837 1.386 . S
C1836 C1838 1.391 . S
C1837 C1836 1.386 . S
C1837 C1841 1.393 . S
C1838 H1830 0.950 . S
C1838 C1836 1.391 . S
C1838 C1839 1.400 . S
C1839 C1838 1.400 . S
C1839 C1840 1.398 . S
C1839 C1845 1.491 . S
C1840 H1831 0.950 . S
C1840 C1839 1.398 . S
C1840 C1841 1.391 . S
C1841 H1829 0.950 . S
C1841 C1837 1.393 . S
C1841 C1840 1.391 . S
C1842 H1832 0.950 . S
C1842 C1843 1.386 . S
C1842 C1844 1.391 . S
C1843 C1842 1.386 . S
C1843 C1847 1.393 . S
C1844 H1833 0.950 . S
C1844 C1842 1.391 . S
C1844 C1845 1.400 . S
C1845 C1839 1.491 . S
C1845 C1844 1.400 . S
C1845 C1846 1.398 . S
C1846 H1834 0.950 . S
C1846 C1845 1.398 . S
C1846 C1847 1.391 . S
C1847 H1835 0.950 . S
C1847 C1843 1.393 . S
C1847 C1846 1.391 . S
H1848 C1856 0.950 . S
H1849 C1861 0.950 . S
H1850 C1858 0.950 . S
H1851 C1860 0.950 . S
H1852 C1862 0.950 . S
H1853 C1864 0.950 . S
H1854 C1866 0.950 . S
H1855 C1867 0.950 . S
C1856 H1848 0.950 . S
C1856 C1857 1.386 . S
C1856 C1858 1.391 . S
C1857 C1856 1.386 . S
C1857 C1861 1.393 . S
C1858 H1850 0.950 . S
C1858 C1856 1.391 . S
C1858 C1859 1.400 . S
C1859 C1858 1.400 . S
C1859 C1860 1.398 . S
C1859 C1865 1.491 . S
C1860 H1851 0.950 . S
C1860 C1859 1.398 . S
C1860 C1861 1.391 . S
C1861 H1849 0.950 . S
C1861 C1857 1.393 . S
C1861 C1860 1.391 . S
C1862 H1852 0.950 . S
C1862 C1863 1.386 . S
C1862 C1864 1.391 . S
C1863 C1862 1.386 . S
C1863 C1867 1.393 . S
C1864 H1853 0.950 . S
C1864 C1862 1.391 . S
C1864 C1865 1.400 . S
C1865 C1859 1.491 . S
C1865 C1864 1.400 . S
C1865 C1866 1.398 . S
C1866 H1854 0.950 . S
C1866 C1865 1.398 . S
C1866 C1867 1.391 . S
C1867 H1855 0.950 . S
C1867 C1863 1.393 . S
C1867 C1866 1.391 . S
H1868 C1876 0.950 . S
H1869 C1881 0.950 . S
H1870 C1878 0.950 . S
H1871 C1880 0.950 . S
H1872 C1882 0.950 . S
H1873 C1884 0.950 . S
H1874 C1886 0.950 . S
H1875 C1887 0.950 . S
C1876 H1868 0.950 . S
C1876 C1877 1.386 . S
C1876 C1878 1.391 . S
C1877 C1876 1.386 . S
C1877 C1881 1.393 . S
C1878 H1870 0.950 . S
C1878 C1876 1.391 . S
C1878 C1879 1.400 . S
C1879 C1878 1.400 . S
C1879 C1880 1.398 . S
C1879 C1885 1.491 . S
C1880 H1871 0.950 . S
C1880 C1879 1.398 . S
C1880 C1881 1.391 . S
C1881 H1869 0.950 . S
C1881 C1877 1.393 . S
C1881 C1880 1.391 . S
C1882 H1872 0.950 . S
C1882 C1883 1.386 . S
C1882 C1884 1.391 . S
C1883 C1882 1.386 . S
C1883 C1887 1.393 . S
C1884 H1873 0.950 . S
C1884 C1882 1.391 . S
C1884 C1885 1.400 . S
C1885 C1879 1.491 . S
C1885 C1884 1.400 . S
C1885 C1886 1.398 . S
C1886 H1874 0.950 . S
C1886 C1885 1.398 . S
C1886 C1887 1.391 . S
C1887 H1875 0.950 . S
C1887 C1883 1.393 . S
C1887 C1886 1.391 . S
H1888 C1896 0.950 . S
H1889 C1901 0.950 . S
H1890 C1898 0.950 . S
H1891 C1900 0.950 . S
H1892 C1902 0.950 . S
H1893 C1904 0.950 . S
H1894 C1906 0.950 . S
H1895 C1907 0.950 . S
C1896 H1888 0.950 . S
C1896 C1897 1.386 . S
C1896 C1898 1.391 . S
C1897 C1896 1.386 . S
C1897 C1901 1.393 . S
C1898 H1890 0.950 . S
C1898 C1896 1.391 . S
C1898 C1899 1.400 . S
C1899 C1898 1.400 . S
C1899 C1900 1.398 . S
C1899 C1905 1.491 . S
C1900 H1891 0.950 . S
C1900 C1899 1.398 . S
C1900 C1901 1.391 . S
C1901 H1889 0.950 . S
C1901 C1897 1.393 . S
C1901 C1900 1.391 . S
C1902 H1892 0.950 . S
C1902 C1903 1.386 . S
C1902 C1904 1.391 . S
C1903 C1902 1.386 . S
C1903 C1907 1.393 . S
C1904 H1893 0.950 . S
C1904 C1902 1.391 . S
C1904 C1905 1.400 . S
C1905 C1899 1.491 . S
C1905 C1904 1.400 . S
C1905 C1906 1.398 . S
C1906 H1894 0.950 . S
C1906 C1905 1.398 . S
C1906 C1907 1.391 . S
C1907 H1895 0.950 . S
C1907 C1903 1.393 . S
C1907 C1906 1.391 . S
H1908 C1916 0.950 . S
H1909 C1921 0.950 . S
H1910 C1918 0.950 . S
H1911 C1920 0.950 . S
H1912 C1922 0.950 . S
H1913 C1924 0.950 . S
H1914 C1926 0.950 . S
H1915 C1927 0.950 . S
C1916 H1908 0.950 . S
C1916 C1917 1.386 . S
C1916 C1918 1.391 . S
C1917 C1916 1.386 . S
C1917 C1921 1.393 . S
C1918 H1910 0.950 . S
C1918 C1916 1.391 . S
C1918 C1919 1.400 . S
C1919 C1918 1.400 . S
C1919 C1920 1.398 . S
C1919 C1925 1.491 . S
C1920 H1911 0.950 . S
C1920 C1919 1.398 . S
C1920 C1921 1.391 . S
C1921 H1909 0.950 . S
C1921 C1917 1.393 . S
C1921 C1920 1.391 . S
C1922 H1912 0.950 . S
C1922 C1923 1.386 . S
C1922 C1924 1.391 . S
C1923 C1922 1.386 . S
C1923 C1927 1.393 . S
C1924 H1913 0.950 . S
C1924 C1922 1.391 . S
C1924 C1925 1.400 . S
C1925 C1919 1.491 . S
C1925 C1924 1.400 . S
C1925 C1926 1.398 . S
C1926 H1914 0.950 . S
C1926 C1925 1.398 . S
C1926 C1927 1.391 . S
C1927 H1915 0.950 . S
C1927 C1923 1.393 . S
C1927 C1926 1.391 . S
H1928 C1936 0.950 . S
H1929 C1941 0.950 . S
H1930 C1938 0.950 . S
H1931 C1940 0.950 . S
H1932 C1942 0.950 . S
H1933 C1944 0.950 . S
H1934 C1946 0.950 . S
H1935 C1947 0.950 . S
C1936 H1928 0.950 . S
C1936 C1937 1.386 . S
C1936 C1938 1.391 . S
C1937 C1936 1.386 . S
C1937 C1941 1.393 . S
C1938 H1930 0.950 . S
C1938 C1936 1.391 . S
C1938 C1939 1.400 . S
C1939 C1938 1.400 . S
C1939 C1940 1.398 . S
C1939 C1945 1.491 . S
C1940 H1931 0.950 . S
C1940 C1939 1.398 . S
C1940 C1941 1.391 . S
C1941 H1929 0.950 . S
C1941 C1937 1.393 . S
C1941 C1940 1.391 . S
C1942 H1932 0.950 . S
C1942 C1943 1.386 . S
C1942 C1944 1.391 . S
C1943 C1942 1.386 . S
C1943 C1947 1.393 . S
C1944 H1933 0.950 . S
C1944 C1942 1.391 . S
C1944 C1945 1.400 . S
C1945 C1939 1.491 . S
C1945 C1944 1.400 . S
C1945 C1946 1.398 . S
C1946 H1934 0.950 . S
C1946 C1945 1.398 . S
C1946 C1947 1.391 . S
C1947 H1935 0.950 . S
C1947 C1943 1.393 . S
C1947 C1946 1.391 . S
H1948 C1956 0.950 . S
H1949 C1961 0.950 . S
H1950 C1958 0.950 . S
H1951 C1960 0.950 . S
H1952 C1962 0.950 . S
H1953 C1964 0.950 . S
H1954 C1966 0.950 . S
H1955 C1967 0.950 . S
C1956 H1948 0.950 . S
C1956 C1957 1.386 . S
C1956 C1958 1.391 . S
C1957 C1956 1.386 . S
C1957 C1961 1.393 . S
C1958 H1950 0.950 . S
C1958 C1956 1.391 . S
C1958 C1959 1.400 . S
C1959 C1958 1.400 . S
C1959 C1960 1.398 . S
C1959 C1965 1.491 . S
C1960 H1951 0.950 . S
C1960 C1959 1.398 . S
C1960 C1961 1.391 . S
C1961 H1949 0.950 . S
C1961 C1957 1.393 . S
C1961 C1960 1.391 . S
C1962 H1952 0.950 . S
C1962 C1963 1.386 . S
C1962 C1964 1.391 . S
C1963 C1962 1.386 . S
C1963 C1967 1.393 . S
C1964 H1953 0.950 . S
C1964 C1962 1.391 . S
C1964 C1965 1.400 . S
C1965 C1959 1.491 . S
C1965 C1964 1.400 . S
C1965 C1966 1.398 . S
C1966 H1954 0.950 . S
C1966 C1965 1.398 . S
C1966 C1967 1.391 . S
C1967 H1955 0.950 . S
C1967 C1963 1.393 . S
C1967 C1966 1.391 . S
H1968 C1976 0.950 . S
H1969 C1981 0.950 . S
H1970 C1978 0.950 . S
H1971 C1980 0.950 . S
H1972 C1982 0.950 . S
H1973 C1984 0.950 . S
H1974 C1986 0.950 . S
H1975 C1987 0.950 . S
C1976 H1968 0.950 . S
C1976 C1977 1.386 . S
C1976 C1978 1.391 . S
C1977 C1976 1.386 . S
C1977 C1981 1.393 . S
C1978 H1970 0.950 . S
C1978 C1976 1.391 . S
C1978 C1979 1.400 . S
C1979 C1978 1.400 . S
C1979 C1980 1.398 . S
C1979 C1985 1.491 . S
C1980 H1971 0.950 . S
C1980 C1979 1.398 . S
C1980 C1981 1.391 . S
C1981 H1969 0.950 . S
C1981 C1977 1.393 . S
C1981 C1980 1.391 . S
C1982 H1972 0.950 . S
C1982 C1983 1.386 . S
C1982 C1984 1.391 . S
C1983 C1982 1.386 . S
C1983 C1987 1.393 . S
C1984 H1973 0.950 . S
C1984 C1982 1.391 . S
C1984 C1985 1.400 . S
C1985 C1979 1.491 . S
C1985 C1984 1.400 . S
C1985 C1986 1.398 . S
C1986 H1974 0.950 . S
C1986 C1985 1.398 . S
C1986 C1987 1.391 . S
C1987 H1975 0.950 . S
C1987 C1983 1.393 . S
C1987 C1986 1.391 . S
H1988 C1996 0.950 . S
H1989 C2001 0.950 . S
H1990 C1998 0.950 . S
H1991 C2000 0.950 . S
H1992 C2002 0.950 . S
H1993 C2004 0.950 . S
H1994 C2006 0.950 . S
H1995 C2007 0.950 . S
C1996 H1988 0.950 . S
C1996 C1997 1.386 . S
C1996 C1998 1.391 . S
C1997 C1996 1.386 . S
C1997 C2001 1.393 . S
C1998 H1990 0.950 . S
C1998 C1996 1.391 . S
C1998 C1999 1.400 . S
C1999 C1998 1.400 . S
C1999 C2000 1.398 . S
C1999 C2005 1.491 . S
C2000 H1991 0.950 . S
C2000 C1999 1.398 . S
C2000 C2001 1.391 . S
C2001 H1989 0.950 . S
C2001 C1997 1.393 . S
C2001 C2000 1.391 . S
C2002 H1992 0.950 . S
C2002 C2003 1.386 . S
C2002 C2004 1.391 . S
C2003 C2002 1.386 . S
C2003 C2007 1.393 . S
C2004 H1993 0.950 . S
C2004 C2002 1.391 . S
C2004 C2005 1.400 . S
C2005 C1999 1.491 . S
C2005 C2004 1.400 . S
C2005 C2006 1.398 . S
C2006 H1994 0.950 . S
C2006 C2005 1.398 . S
C2006 C2007 1.391 . S
C2007 H1995 0.950 . S
C2007 C2003 1.393 . S
C2007 C2006 1.391 . S
H2008 C2016 0.950 . S
H2009 C2021 0.950 . S
H2010 C2018 0.950 . S
H2011 C2020 0.950 . S
H2012 C2022 0.950 . S
H2013 C2024 0.950 . S
H2014 C2026 0.950 . S
H2015 C2027 0.950 . S
C2016 H2008 0.950 . S
C2016 C2017 1.386 . S
C2016 C2018 1.391 . S
C2017 C2016 1.386 . S
C2017 C2021 1.393 . S
C2018 H2010 0.950 . S
C2018 C2016 1.391 . S
C2018 C2019 1.400 . S
C2019 C2018 1.400 . S
C2019 C2020 1.398 . S
C2019 C2025 1.491 . S
C2020 H2011 0.950 . S
C2020 C2019 1.398 . S
C2020 C2021 1.391 . S
C2021 H2009 0.950 . S
C2021 C2017 1.393 . S
C2021 C2020 1.391 . S
C2022 H2012 0.950 . S
C2022 C2023 1.386 . S
C2022 C2024 1.391 . S
C2023 C2022 1.386 . S
C2023 C2027 1.393 . S
C2024 H2013 0.950 . S
C2024 C2022 1.391 . S
C2024 C2025 1.400 . S
C2025 C2019 1.491 . S
C2025 C2024 1.400 . S
C2025 C2026 1.398 . S
C2026 H2014 0.950 . S
C2026 C2025 1.398 . S
C2026 C2027 1.391 . S
C2027 H2015 0.950 . S
C2027 C2023 1.393 . S
C2027 C2026 1.391 . S
H2028 C2036 0.950 . S
H2029 C2041 0.950 . S
H2030 C2038 0.950 . S
H2031 C2040 0.950 . S
H2032 C2042 0.950 . S
H2033 C2044 0.950 . S
H2034 C2046 0.950 . S
H2035 C2047 0.950 . S
C2036 H2028 0.950 . S
C2036 C2037 1.386 . S
C2036 C2038 1.391 . S
C2037 C2036 1.386 . S
C2037 C2041 1.393 . S
C2038 H2030 0.950 . S
C2038 C2036 1.391 . S
C2038 C2039 1.400 . S
C2039 C2038 1.400 . S
C2039 C2040 1.398 . S
C2039 C2045 1.491 . S
C2040 H2031 0.950 . S
C2040 C2039 1.398 . S
C2040 C2041 1.391 . S
C2041 H2029 0.950 . S
C2041 C2037 1.393 . S
C2041 C2040 1.391 . S
C2042 H2032 0.950 . S
C2042 C2043 1.386 . S
C2042 C2044 1.391 . S
C2043 C2042 1.386 . S
C2043 C2047 1.393 . S
C2044 H2033 0.950 . S
C2044 C2042 1.391 . S
C2044 C2045 1.400 . S
C2045 C2039 1.491 . S
C2045 C2044 1.400 . S
C2045 C2046 1.398 . S
C2046 H2034 0.950 . S
C2046 C2045 1.398 . S
C2046 C2047 1.391 . S
C2047 H2035 0.950 . S
C2047 C2043 1.393 . S
C2047 C2046 1.391 . S
H2048 C2056 0.950 . S
H2049 C2061 0.950 . S
H2050 C2058 0.950 . S
H2051 C2060 0.950 . S
H2052 C2062 0.950 . S
H2053 C2064 0.950 . S
H2054 C2066 0.950 . S
H2055 C2067 0.950 . S
C2056 H2048 0.950 . S
C2056 C2057 1.386 . S
C2056 C2058 1.391 . S
C2057 C2056 1.386 . S
C2057 C2061 1.393 . S
C2058 H2050 0.950 . S
C2058 C2056 1.391 . S
C2058 C2059 1.400 . S
C2059 C2058 1.400 . S
C2059 C2060 1.398 . S
C2059 C2065 1.491 . S
C2060 H2051 0.950 . S
C2060 C2059 1.398 . S
C2060 C2061 1.391 . S
C2061 H2049 0.950 . S
C2061 C2057 1.393 . S
C2061 C2060 1.391 . S
C2062 H2052 0.950 . S
C2062 C2063 1.386 . S
C2062 C2064 1.391 . S
C2063 C2062 1.386 . S
C2063 C2067 1.393 . S
C2064 H2053 0.950 . S
C2064 C2062 1.391 . S
C2064 C2065 1.400 . S
C2065 C2059 1.491 . S
C2065 C2064 1.400 . S
C2065 C2066 1.398 . S
C2066 H2054 0.950 . S
C2066 C2065 1.398 . S
C2066 C2067 1.391 . S
C2067 H2055 0.950 . S
C2067 C2063 1.393 . S
C2067 C2066 1.391 . S
H2068 C2076 0.950 . S
H2069 C2081 0.950 . S
H2070 C2078 0.950 . S
H2071 C2080 0.950 . S
H2072 C2082 0.950 . S
H2073 C2084 0.950 . S
H2074 C2086 0.950 . S
H2075 C2087 0.950 . S
C2076 H2068 0.950 . S
C2076 C2077 1.386 . S
C2076 C2078 1.391 . S
C2077 C2076 1.386 . S
C2077 C2081 1.393 . S
C2078 H2070 0.950 . S
C2078 C2076 1.391 . S
C2078 C2079 1.400 . S
C2079 C2078 1.400 . S
C2079 C2080 1.398 . S
C2079 C2085 1.491 . S
C2080 H2071 0.950 . S
C2080 C2079 1.398 . S
C2080 C2081 1.391 . S
C2081 H2069 0.950 . S
C2081 C2077 1.393 . S
C2081 C2080 1.391 . S
C2082 H2072 0.950 . S
C2082 C2083 1.386 . S
C2082 C2084 1.391 . S
C2083 C2082 1.386 . S
C2083 C2087 1.393 . S
C2084 H2073 0.950 . S
C2084 C2082 1.391 . S
C2084 C2085 1.400 . S
C2085 C2079 1.491 . S
C2085 C2084 1.400 . S
C2085 C2086 1.398 . S
C2086 H2074 0.950 . S
C2086 C2085 1.398 . S
C2086 C2087 1.391 . S
C2087 H2075 0.950 . S
C2087 C2083 1.393 . S
C2087 C2086 1.391 . S
H2088 C2096 0.950 . S
H2089 C2101 0.950 . S
H2090 C2098 0.950 . S
H2091 C2100 0.950 . S
H2092 C2102 0.950 . S
H2093 C2104 0.950 . S
H2094 C2106 0.950 . S
H2095 C2107 0.950 . S
C2096 H2088 0.950 . S
C2096 C2097 1.386 . S
C2096 C2098 1.391 . S
C2097 C2096 1.386 . S
C2097 C2101 1.393 . S
C2098 H2090 0.950 . S
C2098 C2096 1.391 . S
C2098 C2099 1.400 . S
C2099 C2098 1.400 . S
C2099 C2100 1.398 . S
C2099 C2105 1.491 . S
C2100 H2091 0.950 . S
C2100 C2099 1.398 . S
C2100 C2101 1.391 . S
C2101 H2089 0.950 . S
C2101 C2097 1.393 . S
C2101 C2100 1.391 . S
C2102 H2092 0.950 . S
C2102 C2103 1.386 . S
C2102 C2104 1.391 . S
C2103 C2102 1.386 . S
C2103 C2107 1.393 . S
C2104 H2093 0.950 . S
C2104 C2102 1.391 . S
C2104 C2105 1.400 . S
C2105 C2099 1.491 . S
C2105 C2104 1.400 . S
C2105 C2106 1.398 . S
C2106 H2094 0.950 . S
C2106 C2105 1.398 . S
C2106 C2107 1.391 . S
C2107 H2095 0.950 . S
C2107 C2103 1.393 . S
C2107 C2106 1.391 . S
H2108 C2116 0.950 . S
H2109 C2121 0.950 . S
H2110 C2118 0.950 . S
H2111 C2120 0.950 . S
H2112 C2122 0.950 . S
H2113 C2124 0.950 . S
H2114 C2126 0.950 . S
H2115 C2127 0.950 . S
C2116 H2108 0.950 . S
C2116 C2117 1.386 . S
C2116 C2118 1.391 . S
C2117 C2116 1.386 . S
C2117 C2121 1.393 . S
C2118 H2110 0.950 . S
C2118 C2116 1.391 . S
C2118 C2119 1.400 . S
C2119 C2118 1.400 . S
C2119 C2120 1.398 . S
C2119 C2125 1.491 . S
C2120 H2111 0.950 . S
C2120 C2119 1.398 . S
C2120 C2121 1.391 . S
C2121 H2109 0.950 . S
C2121 C2117 1.393 . S
C2121 C2120 1.391 . S
C2122 H2112 0.950 . S
C2122 C2123 1.386 . S
C2122 C2124 1.391 . S
C2123 C2122 1.386 . S
C2123 C2127 1.393 . S
C2124 H2113 0.950 . S
C2124 C2122 1.391 . S
C2124 C2125 1.400 . S
C2125 C2119 1.491 . S
C2125 C2124 1.400 . S
C2125 C2126 1.398 . S
C2126 H2114 0.950 . S
C2126 C2125 1.398 . S
C2126 C2127 1.391 . S
C2127 H2115 0.950 . S
C2127 C2123 1.393 . S
C2127 C2126 1.391 . S
H2128 C2136 0.950 . S
H2129 C2141 0.950 . S
H2130 C2138 0.950 . S
H2131 C2140 0.950 . S
H2132 C2142 0.950 . S
H2133 C2144 0.950 . S
H2134 C2146 0.950 . S
H2135 C2147 0.950 . S
C2136 H2128 0.950 . S
C2136 C2137 1.386 . S
C2136 C2138 1.391 . S
C2137 C2136 1.386 . S
C2137 C2141 1.393 . S
C2138 H2130 0.950 . S
C2138 C2136 1.391 . S
C2138 C2139 1.400 . S
C2139 C2138 1.400 . S
C2139 C2140 1.398 . S
C2139 C2145 1.491 . S
C2140 H2131 0.950 . S
C2140 C2139 1.398 . S
C2140 C2141 1.391 . S
C2141 H2129 0.950 . S
C2141 C2137 1.393 . S
C2141 C2140 1.391 . S
C2142 H2132 0.950 . S
C2142 C2143 1.386 . S
C2142 C2144 1.391 . S
C2143 C2142 1.386 . S
C2143 C2147 1.393 . S
C2144 H2133 0.950 . S
C2144 C2142 1.391 . S
C2144 C2145 1.400 . S
C2145 C2139 1.491 . S
C2145 C2144 1.400 . S
C2145 C2146 1.398 . S
C2146 H2134 0.950 . S
C2146 C2145 1.398 . S
C2146 C2147 1.391 . S
C2147 H2135 0.950 . S
C2147 C2143 1.393 . S
C2147 C2146 1.391 . S
H2148 C2156 0.950 . S
H2149 C2161 0.950 . S
H2150 C2158 0.950 . S
H2151 C2160 0.950 . S
H2152 C2162 0.950 . S
H2153 C2164 0.950 . S
H2154 C2166 0.950 . S
H2155 C2167 0.950 . S
C2156 H2148 0.950 . S
C2156 C2157 1.386 . S
C2156 C2158 1.391 . S
C2157 C2156 1.386 . S
C2157 C2161 1.393 . S
C2158 H2150 0.950 . S
C2158 C2156 1.391 . S
C2158 C2159 1.400 . S
C2159 C2158 1.400 . S
C2159 C2160 1.398 . S
C2159 C2165 1.491 . S
C2160 H2151 0.950 . S
C2160 C2159 1.398 . S
C2160 C2161 1.391 . S
C2161 H2149 0.950 . S
C2161 C2157 1.393 . S
C2161 C2160 1.391 . S
C2162 H2152 0.950 . S
C2162 C2163 1.386 . S
C2162 C2164 1.391 . S
C2163 C2162 1.386 . S
C2163 C2167 1.393 . S
C2164 H2153 0.950 . S
C2164 C2162 1.391 . S
C2164 C2165 1.400 . S
C2165 C2159 1.491 . S
C2165 C2164 1.400 . S
C2165 C2166 1.398 . S
C2166 H2154 0.950 . S
C2166 C2165 1.398 . S
C2166 C2167 1.391 . S
C2167 H2155 0.950 . S
C2167 C2163 1.393 . S
C2167 C2166 1.391 . S
H2168 C2176 0.950 . S
H2169 C2181 0.950 . S
H2170 C2178 0.950 . S
H2171 C2180 0.950 . S
H2172 C2182 0.950 . S
H2173 C2184 0.950 . S
H2174 C2186 0.950 . S
H2175 C2187 0.950 . S
C2176 H2168 0.950 . S
C2176 C2177 1.386 . S
C2176 C2178 1.391 . S
C2177 C2176 1.386 . S
C2177 C2181 1.393 . S
C2178 H2170 0.950 . S
C2178 C2176 1.391 . S
C2178 C2179 1.400 . S
C2179 C2178 1.400 . S
C2179 C2180 1.398 . S
C2179 C2185 1.491 . S
C2180 H2171 0.950 . S
C2180 C2179 1.398 . S
C2180 C2181 1.391 . S
C2181 H2169 0.950 . S
C2181 C2177 1.393 . S
C2181 C2180 1.391 . S
C2182 H2172 0.950 . S
C2182 C2183 1.386 . S
C2182 C2184 1.391 . S
C2183 C2182 1.386 . S
C2183 C2187 1.393 . S
C2184 H2173 0.950 . S
C2184 C2182 1.391 . S
C2184 C2185 1.400 . S
C2185 C2179 1.491 . S
C2185 C2184 1.400 . S
C2185 C2186 1.398 . S
C2186 H2174 0.950 . S
C2186 C2185 1.398 . S
C2186 C2187 1.391 . S
C2187 H2175 0.950 . S
C2187 C2183 1.393 . S
C2187 C2186 1.391 . S
H2188 C2196 0.950 . S
H2189 C2201 0.950 . S
H2190 C2198 0.950 . S
H2191 C2200 0.950 . S
H2192 C2202 0.950 . S
H2193 C2204 0.950 . S
H2194 C2206 0.950 . S
H2195 C2207 0.950 . S
C2196 H2188 0.950 . S
C2196 C2197 1.386 . S
C2196 C2198 1.391 . S
C2197 C2196 1.386 . S
C2197 C2201 1.393 . S
C2198 H2190 0.950 . S
C2198 C2196 1.391 . S
C2198 C2199 1.400 . S
C2199 C2198 1.400 . S
C2199 C2200 1.398 . S
C2199 C2205 1.491 . S
C2200 H2191 0.950 . S
C2200 C2199 1.398 . S
C2200 C2201 1.391 . S
C2201 H2189 0.950 . S
C2201 C2197 1.393 . S
C2201 C2200 1.391 . S
C2202 H2192 0.950 . S
C2202 C2203 1.386 . S
C2202 C2204 1.391 . S
C2203 C2202 1.386 . S
C2203 C2207 1.393 . S
C2204 H2193 0.950 . S
C2204 C2202 1.391 . S
C2204 C2205 1.400 . S
C2205 C2199 1.491 . S
C2205 C2204 1.400 . S
C2205 C2206 1.398 . S
C2206 H2194 0.950 . S
C2206 C2205 1.398 . S
C2206 C2207 1.391 . S
C2207 H2195 0.950 . S
C2207 C2203 1.393 . S
C2207 C2206 1.391 . S
H2208 C2216 0.950 . S
H2209 C2221 0.950 . S
H2210 C2218 0.950 . S
H2211 C2220 0.950 . S
H2212 C2222 0.950 . S
H2213 C2224 0.950 . S
H2214 C2226 0.950 . S
H2215 C2227 0.950 . S
C2216 H2208 0.950 . S
C2216 C2217 1.386 . S
C2216 C2218 1.391 . S
C2217 C2216 1.386 . S
C2217 C2221 1.393 . S
C2218 H2210 0.950 . S
C2218 C2216 1.391 . S
C2218 C2219 1.400 . S
C2219 C2218 1.400 . S
C2219 C2220 1.398 . S
C2219 C2225 1.491 . S
C2220 H2211 0.950 . S
C2220 C2219 1.398 . S
C2220 C2221 1.391 . S
C2221 H2209 0.950 . S
C2221 C2217 1.393 . S
C2221 C2220 1.391 . S
C2222 H2212 0.950 . S
C2222 C2223 1.386 . S
C2222 C2224 1.391 . S
C2223 C2222 1.386 . S
C2223 C2227 1.393 . S
C2224 H2213 0.950 . S
C2224 C2222 1.391 . S
C2224 C2225 1.400 . S
C2225 C2219 1.491 . S
C2225 C2224 1.400 . S
C2225 C2226 1.398 . S
C2226 H2214 0.950 . S
C2226 C2225 1.398 . S
C2226 C2227 1.391 . S
C2227 H2215 0.950 . S
C2227 C2223 1.393 . S
C2227 C2226 1.391 . S
H2228 C2236 0.950 . S
H2229 C2241 0.950 . S
H2230 C2238 0.950 . S
H2231 C2240 0.950 . S
H2232 C2242 0.950 . S
H2233 C2244 0.950 . S
H2234 C2246 0.950 . S
H2235 C2247 0.950 . S
C2236 H2228 0.950 . S
C2236 C2237 1.386 . S
C2236 C2238 1.391 . S
C2237 C2236 1.386 . S
C2237 C2241 1.393 . S
C2238 H2230 0.950 . S
C2238 C2236 1.391 . S
C2238 C2239 1.400 . S
C2239 C2238 1.400 . S
C2239 C2240 1.398 . S
C2239 C2245 1.491 . S
C2240 H2231 0.950 . S
C2240 C2239 1.398 . S
C2240 C2241 1.391 . S
C2241 H2229 0.950 . S
C2241 C2237 1.393 . S
C2241 C2240 1.391 . S
C2242 H2232 0.950 . S
C2242 C2243 1.386 . S
C2242 C2244 1.391 . S
C2243 C2242 1.386 . S
C2243 C2247 1.393 . S
C2244 H2233 0.950 . S
C2244 C2242 1.391 . S
C2244 C2245 1.400 . S
C2245 C2239 1.491 . S
C2245 C2244 1.400 . S
C2245 C2246 1.398 . S
C2246 H2234 0.950 . S
C2246 C2245 1.398 . S
C2246 C2247 1.391 . S
C2247 H2235 0.950 . S
C2247 C2243 1.393 . S
C2247 C2246 1.391 . S
H2248 C2256 0.950 . S
H2249 C2261 0.950 . S
H2250 C2258 0.950 . S
H2251 C2260 0.950 . S
H2252 C2262 0.950 . S
H2253 C2264 0.950 . S
H2254 C2266 0.950 . S
H2255 C2267 0.950 . S
C2256 H2248 0.950 . S
C2256 C2257 1.386 . S
C2256 C2258 1.391 . S
C2257 C2256 1.386 . S
C2257 C2261 1.393 . S
C2258 H2250 0.950 . S
C2258 C2256 1.391 . S
C2258 C2259 1.400 . S
C2259 C2258 1.400 . S
C2259 C2260 1.398 . S
C2259 C2265 1.491 . S
C2260 H2251 0.950 . S
C2260 C2259 1.398 . S
C2260 C2261 1.391 . S
C2261 H2249 0.950 . S
C2261 C2257 1.393 . S
C2261 C2260 1.391 . S
C2262 H2252 0.950 . S
C2262 C2263 1.386 . S
C2262 C2264 1.391 . S
C2263 C2262 1.386 . S
C2263 C2267 1.393 . S
C2264 H2253 0.950 . S
C2264 C2262 1.391 . S
C2264 C2265 1.400 . S
C2265 C2259 1.491 . S
C2265 C2264 1.400 . S
C2265 C2266 1.398 . S
C2266 H2254 0.950 . S
C2266 C2265 1.398 . S
C2266 C2267 1.391 . S
C2267 H2255 0.950 . S
C2267 C2263 1.393 . S
C2267 C2266 1.391 . S
H2268 C2276 0.950 . S
H2269 C2281 0.950 . S
H2270 C2278 0.950 . S
H2271 C2280 0.950 . S
H2272 C2282 0.950 . S
H2273 C2284 0.950 . S
H2274 C2286 0.950 . S
H2275 C2287 0.950 . S
C2276 H2268 0.950 . S
C2276 C2277 1.386 . S
C2276 C2278 1.391 . S
C2277 C2276 1.386 . S
C2277 C2281 1.393 . S
C2278 H2270 0.950 . S
C2278 C2276 1.391 . S
C2278 C2279 1.400 . S
C2279 C2278 1.400 . S
C2279 C2280 1.398 . S
C2279 C2285 1.491 . S
C2280 H2271 0.950 . S
C2280 C2279 1.398 . S
C2280 C2281 1.391 . S
C2281 H2269 0.950 . S
C2281 C2277 1.393 . S
C2281 C2280 1.391 . S
C2282 H2272 0.950 . S
C2282 C2283 1.386 . S
C2282 C2284 1.391 . S
C2283 C2282 1.386 . S
C2283 C2287 1.393 . S
C2284 H2273 0.950 . S
C2284 C2282 1.391 . S
C2284 C2285 1.400 . S
C2285 C2279 1.491 . S
C2285 C2284 1.400 . S
C2285 C2286 1.398 . S
C2286 H2274 0.950 . S
C2286 C2285 1.398 . S
C2286 C2287 1.391 . S
C2287 H2275 0.950 . S
C2287 C2283 1.393 . S
C2287 C2286 1.391 . S
H2288 C2296 0.950 . S
H2289 C2301 0.950 . S
H2290 C2298 0.950 . S
H2291 C2300 0.950 . S
H2292 C2302 0.950 . S
H2293 C2304 0.950 . S
H2294 C2306 0.950 . S
H2295 C2307 0.950 . S
C2296 H2288 0.950 . S
C2296 C2297 1.386 . S
C2296 C2298 1.391 . S
C2297 C2296 1.386 . S
C2297 C2301 1.393 . S
C2298 H2290 0.950 . S
C2298 C2296 1.391 . S
C2298 C2299 1.400 . S
C2299 C2298 1.400 . S
C2299 C2300 1.398 . S
C2299 C2305 1.491 . S
C2300 H2291 0.950 . S
C2300 C2299 1.398 . S
C2300 C2301 1.391 . S
C2301 H2289 0.950 . S
C2301 C2297 1.393 . S
C2301 C2300 1.391 . S
C2302 H2292 0.950 . S
C2302 C2303 1.386 . S
C2302 C2304 1.391 . S
C2303 C2302 1.386 . S
C2303 C2307 1.393 . S
C2304 H2293 0.950 . S
C2304 C2302 1.391 . S
C2304 C2305 1.400 . S
C2305 C2299 1.491 . S
C2305 C2304 1.400 . S
C2305 C2306 1.398 . S
C2306 H2294 0.950 . S
C2306 C2305 1.398 . S
C2306 C2307 1.391 . S
C2307 H2295 0.950 . S
C2307 C2303 1.393 . S
C2307 C2306 1.391 . S
H2308 C2316 0.950 . S
H2309 C2321 0.950 . S
H2310 C2318 0.950 . S
H2311 C2320 0.950 . S
H2312 C2322 0.950 . S
H2313 C2324 0.950 . S
H2314 C2326 0.950 . S
H2315 C2327 0.950 . S
C2316 H2308 0.950 . S
C2316 C2317 1.386 . S
C2316 C2318 1.391 . S
C2317 C2316 1.386 . S
C2317 C2321 1.393 . S
C2318 H2310 0.950 . S
C2318 C2316 1.391 . S
C2318 C2319 1.400 . S
C2319 C2318 1.400 . S
C2319 C2320 1.398 . S
C2319 C2325 1.491 . S
C2320 H2311 0.950 . S
C2320 C2319 1.398 . S
C2320 C2321 1.391 . S
C2321 H2309 0.950 . S
C2321 C2317 1.393 . S
C2321 C2320 1.391 . S
C2322 H2312 0.950 . S
C2322 C2323 1.386 . S
C2322 C2324 1.391 . S
C2323 C2322 1.386 . S
C2323 C2327 1.393 . S
C2324 H2313 0.950 . S
C2324 C2322 1.391 . S
C2324 C2325 1.400 . S
C2325 C2319 1.491 . S
C2325 C2324 1.400 . S
C2325 C2326 1.398 . S
C2326 H2314 0.950 . S
C2326 C2325 1.398 . S
C2326 C2327 1.391 . S
C2327 H2315 0.950 . S
C2327 C2323 1.393 . S
C2327 C2326 1.391 . S
H2328 C2336 0.950 . S
H2329 C2341 0.950 . S
H2330 C2338 0.950 . S
H2331 C2340 0.950 . S
H2332 C2342 0.950 . S
H2333 C2344 0.950 . S
H2334 C2346 0.950 . S
H2335 C2347 0.950 . S
C2336 H2328 0.950 . S
C2336 C2337 1.386 . S
C2336 C2338 1.391 . S
C2337 C2336 1.386 . S
C2337 C2341 1.393 . S
C2338 H2330 0.950 . S
C2338 C2336 1.391 . S
C2338 C2339 1.400 . S
C2339 C2338 1.400 . S
C2339 C2340 1.398 . S
C2339 C2345 1.491 . S
C2340 H2331 0.950 . S
C2340 C2339 1.398 . S
C2340 C2341 1.391 . S
C2341 H2329 0.950 . S
C2341 C2337 1.393 . S
C2341 C2340 1.391 . S
C2342 H2332 0.950 . S
C2342 C2343 1.386 . S
C2342 C2344 1.391 . S
C2343 C2342 1.386 . S
C2343 C2347 1.393 . S
C2344 H2333 0.950 . S
C2344 C2342 1.391 . S
C2344 C2345 1.400 . S
C2345 C2339 1.491 . S
C2345 C2344 1.400 . S
C2345 C2346 1.398 . S
C2346 H2334 0.950 . S
C2346 C2345 1.398 . S
C2346 C2347 1.391 . S
C2347 H2335 0.950 . S
C2347 C2343 1.393 . S
C2347 C2346 1.391 . S
H2348 C2356 0.950 . S
H2349 C2361 0.950 . S
H2350 C2358 0.950 . S
H2351 C2360 0.950 . S
H2352 C2362 0.950 . S
H2353 C2364 0.950 . S
H2354 C2366 0.950 . S
H2355 C2367 0.950 . S
C2356 H2348 0.950 . S
C2356 C2357 1.386 . S
C2356 C2358 1.391 . S
C2357 C2356 1.386 . S
C2357 C2361 1.393 . S
C2358 H2350 0.950 . S
C2358 C2356 1.391 . S
C2358 C2359 1.400 . S
C2359 C2358 1.400 . S
C2359 C2360 1.398 . S
C2359 C2365 1.491 . S
C2360 H2351 0.950 . S
C2360 C2359 1.398 . S
C2360 C2361 1.391 . S
C2361 H2349 0.950 . S
C2361 C2357 1.393 . S
C2361 C2360 1.391 . S
C2362 H2352 0.950 . S
C2362 C2363 1.386 . S
C2362 C2364 1.391 . S
C2363 C2362 1.386 . S
C2363 C2367 1.393 . S
C2364 H2353 0.950 . S
C2364 C2362 1.391 . S
C2364 C2365 1.400 . S
C2365 C2359 1.491 . S
C2365 C2364 1.400 . S
C2365 C2366 1.398 . S
C2366 H2354 0.950 . S
C2366 C2365 1.398 . S
C2366 C2367 1.391 . S
C2367 H2355 0.950 . S
C2367 C2363 1.393 . S
C2367 C2366 1.391 . S
H2368 C2376 0.950 . S
H2369 C2381 0.950 . S
H2370 C2378 0.950 . S
H2371 C2380 0.950 . S
H2372 C2382 0.950 . S
H2373 C2384 0.950 . S
H2374 C2386 0.950 . S
H2375 C2387 0.950 . S
C2376 H2368 0.950 . S
C2376 C2377 1.386 . S
C2376 C2378 1.391 . S
C2377 C2376 1.386 . S
C2377 C2381 1.393 . S
C2378 H2370 0.950 . S
C2378 C2376 1.391 . S
C2378 C2379 1.400 . S
C2379 C2378 1.400 . S
C2379 C2380 1.398 . S
C2379 C2385 1.491 . S
C2380 H2371 0.950 . S
C2380 C2379 1.398 . S
C2380 C2381 1.391 . S
C2381 H2369 0.950 . S
C2381 C2377 1.393 . S
C2381 C2380 1.391 . S
C2382 H2372 0.950 . S
C2382 C2383 1.386 . S
C2382 C2384 1.391 . S
C2383 C2382 1.386 . S
C2383 C2387 1.393 . S
C2384 H2373 0.950 . S
C2384 C2382 1.391 . S
C2384 C2385 1.400 . S
C2385 C2379 1.491 . S
C2385 C2384 1.400 . S
C2385 C2386 1.398 . S
C2386 H2374 0.950 . S
C2386 C2385 1.398 . S
C2386 C2387 1.391 . S
C2387 H2375 0.950 . S
C2387 C2383 1.393 . S
C2387 C2386 1.391 . S
H2388 C2396 0.950 . S
H2389 C2401 0.950 . S
H2390 C2398 0.950 . S
H2391 C2400 0.950 . S
H2392 C2402 0.950 . S
H2393 C2404 0.950 . S
H2394 C2406 0.950 . S
H2395 C2407 0.950 . S
C2396 H2388 0.950 . S
C2396 C2397 1.386 . S
C2396 C2398 1.391 . S
C2397 C2396 1.386 . S
C2397 C2401 1.393 . S
C2398 H2390 0.950 . S
C2398 C2396 1.391 . S
C2398 C2399 1.400 . S
C2399 C2398 1.400 . S
C2399 C2400 1.398 . S
C2399 C2405 1.491 . S
C2400 H2391 0.950 . S
C2400 C2399 1.398 . S
C2400 C2401 1.391 . S
C2401 H2389 0.950 . S
C2401 C2397 1.393 . S
C2401 C2400 1.391 . S
C2402 H2392 0.950 . S
C2402 C2403 1.386 . S
C2402 C2404 1.391 . S
C2403 C2402 1.386 . S
C2403 C2407 1.393 . S
C2404 H2393 0.950 . S
C2404 C2402 1.391 . S
C2404 C2405 1.400 . S
C2405 C2399 1.491 . S
C2405 C2404 1.400 . S
C2405 C2406 1.398 . S
C2406 H2394 0.950 . S
C2406 C2405 1.398 . S
C2406 C2407 1.391 . S
C2407 H2395 0.950 . S
C2407 C2403 1.393 . S
C2407 C2406 1.391 . S
H2408 C2416 0.950 . S
H2409 C2421 0.950 . S
H2410 C2418 0.950 . S
H2411 C2420 0.950 . S
H2412 C2422 0.950 . S
H2413 C2424 0.950 . S
H2414 C2426 0.950 . S
H2415 C2427 0.950 . S
C2416 H2408 0.950 . S
C2416 C2417 1.386 . S
C2416 C2418 1.391 . S
C2417 C2416 1.386 . S
C2417 C2421 1.393 . S
C2418 H2410 0.950 . S
C2418 C2416 1.391 . S
C2418 C2419 1.400 . S
C2419 C2418 1.400 . S
C2419 C2420 1.398 . S
C2419 C2425 1.491 . S
C2420 H2411 0.950 . S
C2420 C2419 1.398 . S
C2420 C2421 1.391 . S
C2421 H2409 0.950 . S
C2421 C2417 1.393 . S
C2421 C2420 1.391 . S
C2422 H2412 0.950 . S
C2422 C2423 1.386 . S
C2422 C2424 1.391 . S
C2423 C2422 1.386 . S
C2423 C2427 1.393 . S
C2424 H2413 0.950 . S
C2424 C2422 1.391 . S
C2424 C2425 1.400 . S
C2425 C2419 1.491 . S
C2425 C2424 1.400 . S
C2425 C2426 1.398 . S
C2426 H2414 0.950 . S
C2426 C2425 1.398 . S
C2426 C2427 1.391 . S
C2427 H2415 0.950 . S
C2427 C2423 1.393 . S
C2427 C2426 1.391 . S
H2428 C2436 0.950 . S
H2429 C2441 0.950 . S
H2430 C2438 0.950 . S
H2431 C2440 0.950 . S
H2432 C2442 0.950 . S
H2433 C2444 0.950 . S
H2434 C2446 0.950 . S
H2435 C2447 0.950 . S
C2436 H2428 0.950 . S
C2436 C2437 1.386 . S
C2436 C2438 1.391 . S
C2437 C2436 1.386 . S
C2437 C2441 1.393 . S
C2438 H2430 0.950 . S
C2438 C2436 1.391 . S
C2438 C2439 1.400 . S
C2439 C2438 1.400 . S
C2439 C2440 1.398 . S
C2439 C2445 1.491 . S
C2440 H2431 0.950 . S
C2440 C2439 1.398 . S
C2440 C2441 1.391 . S
C2441 H2429 0.950 . S
C2441 C2437 1.393 . S
C2441 C2440 1.391 . S
C2442 H2432 0.950 . S
C2442 C2443 1.386 . S
C2442 C2444 1.391 . S
C2443 C2442 1.386 . S
C2443 C2447 1.393 . S
C2444 H2433 0.950 . S
C2444 C2442 1.391 . S
C2444 C2445 1.400 . S
C2445 C2439 1.491 . S
C2445 C2444 1.400 . S
C2445 C2446 1.398 . S
C2446 H2434 0.950 . S
C2446 C2445 1.398 . S
C2446 C2447 1.391 . S
C2447 H2435 0.950 . S
C2447 C2443 1.393 . S
C2447 C2446 1.391 . S
H2448 C2456 0.950 . S
H2449 C2461 0.950 . S
H2450 C2458 0.950 . S
H2451 C2460 0.950 . S
H2452 C2462 0.950 . S
H2453 C2464 0.950 . S
H2454 C2466 0.950 . S
H2455 C2467 0.950 . S
C2456 H2448 0.950 . S
C2456 C2457 1.386 . S
C2456 C2458 1.391 . S
C2457 C2456 1.386 . S
C2457 C2461 1.393 . S
C2458 H2450 0.950 . S
C2458 C2456 1.391 . S
C2458 C2459 1.400 . S
C2459 C2458 1.400 . S
C2459 C2460 1.398 . S
C2459 C2465 1.491 . S
C2460 H2451 0.950 . S
C2460 C2459 1.398 . S
C2460 C2461 1.391 . S
C2461 H2449 0.950 . S
C2461 C2457 1.393 . S
C2461 C2460 1.391 . S
C2462 H2452 0.950 . S
C2462 C2463 1.386 . S
C2462 C2464 1.391 . S
C2463 C2462 1.386 . S
C2463 C2467 1.393 . S
C2464 H2453 0.950 . S
C2464 C2462 1.391 . S
C2464 C2465 1.400 . S
C2465 C2459 1.491 . S
C2465 C2464 1.400 . S
C2465 C2466 1.398 . S
C2466 H2454 0.950 . S
C2466 C2465 1.398 . S
C2466 C2467 1.391 . S
C2467 H2455 0.950 . S
C2467 C2463 1.393 . S
C2467 C2466 1.391 . S
H2468 C2476 0.950 . S
H2469 C2481 0.950 . S
H2470 C2478 0.950 . S
H2471 C2480 0.950 . S
H2472 C2482 0.950 . S
H2473 C2484 0.950 . S
H2474 C2486 0.950 . S
H2475 C2487 0.950 . S
C2476 H2468 0.950 . S
C2476 C2477 1.386 . S
C2476 C2478 1.391 . S
C2477 C2476 1.386 . S
C2477 C2481 1.393 . S
C2478 H2470 0.950 . S
C2478 C2476 1.391 . S
C2478 C2479 1.400 . S
C2479 C2478 1.400 . S
C2479 C2480 1.398 . S
C2479 C2485 1.491 . S
C2480 H2471 0.950 . S
C2480 C2479 1.398 . S
C2480 C2481 1.391 . S
C2481 H2469 0.950 . S
C2481 C2477 1.393 . S
C2481 C2480 1.391 . S
C2482 H2472 0.950 . S
C2482 C2483 1.386 . S
C2482 C2484 1.391 . S
C2483 C2482 1.386 . S
C2483 C2487 1.393 . S
C2484 H2473 0.950 . S
C2484 C2482 1.391 . S
C2484 C2485 1.400 . S
C2485 C2479 1.491 . S
C2485 C2484 1.400 . S
C2485 C2486 1.398 . S
C2486 H2474 0.950 . S
C2486 C2485 1.398 . S
C2486 C2487 1.391 . S
C2487 H2475 0.950 . S
C2487 C2483 1.393 . S
C2487 C2486 1.391 . S
H2488 C2496 0.950 . S
H2489 C2501 0.950 . S
H2490 C2498 0.950 . S
H2491 C2500 0.950 . S
H2492 C2502 0.950 . S
H2493 C2504 0.950 . S
H2494 C2506 0.950 . S
H2495 C2507 0.950 . S
C2496 H2488 0.950 . S
C2496 C2497 1.386 . S
C2496 C2498 1.391 . S
C2497 C2496 1.386 . S
C2497 C2501 1.393 . S
C2498 H2490 0.950 . S
C2498 C2496 1.391 . S
C2498 C2499 1.400 . S
C2499 C2498 1.400 . S
C2499 C2500 1.398 . S
C2499 C2505 1.491 . S
C2500 H2491 0.950 . S
C2500 C2499 1.398 . S
C2500 C2501 1.391 . S
C2501 H2489 0.950 . S
C2501 C2497 1.393 . S
C2501 C2500 1.391 . S
C2502 H2492 0.950 . S
C2502 C2503 1.386 . S
C2502 C2504 1.391 . S
C2503 C2502 1.386 . S
C2503 C2507 1.393 . S
C2504 H2493 0.950 . S
C2504 C2502 1.391 . S
C2504 C2505 1.400 . S
C2505 C2499 1.491 . S
C2505 C2504 1.400 . S
C2505 C2506 1.398 . S
C2506 H2494 0.950 . S
C2506 C2505 1.398 . S
C2506 C2507 1.391 . S
C2507 H2495 0.950 . S
C2507 C2503 1.393 . S
C2507 C2506 1.391 . S
H2508 C2516 0.950 . S
H2509 C2521 0.950 . S
H2510 C2518 0.950 . S
H2511 C2520 0.950 . S
H2512 C2522 0.950 . S
H2513 C2524 0.950 . S
H2514 C2526 0.950 . S
H2515 C2527 0.950 . S
C2516 H2508 0.950 . S
C2516 C2517 1.386 . S
C2516 C2518 1.391 . S
C2517 C2516 1.386 . S
C2517 C2521 1.393 . S
C2518 H2510 0.950 . S
C2518 C2516 1.391 . S
C2518 C2519 1.400 . S
C2519 C2518 1.400 . S
C2519 C2520 1.398 . S
C2519 C2525 1.491 . S
C2520 H2511 0.950 . S
C2520 C2519 1.398 . S
C2520 C2521 1.391 . S
C2521 H2509 0.950 . S
C2521 C2517 1.393 . S
C2521 C2520 1.391 . S
C2522 H2512 0.950 . S
C2522 C2523 1.386 . S
C2522 C2524 1.391 . S
C2523 C2522 1.386 . S
C2523 C2527 1.393 . S
C2524 H2513 0.950 . S
C2524 C2522 1.391 . S
C2524 C2525 1.400 . S
C2525 C2519 1.491 . S
C2525 C2524 1.400 . S
C2525 C2526 1.398 . S
C2526 H2514 0.950 . S
C2526 C2525 1.398 . S
C2526 C2527 1.391 . S
C2527 H2515 0.950 . S
C2527 C2523 1.393 . S
C2527 C2526 1.391 . S
H2528 C2536 0.950 . S
H2529 C2541 0.950 . S
H2530 C2538 0.950 . S
H2531 C2540 0.950 . S
H2532 C2542 0.950 . S
H2533 C2544 0.950 . S
H2534 C2546 0.950 . S
H2535 C2547 0.950 . S
C2536 H2528 0.950 . S
C2536 C2537 1.386 . S
C2536 C2538 1.391 . S
C2537 C2536 1.386 . S
C2537 C2541 1.393 . S
C2538 H2530 0.950 . S
C2538 C2536 1.391 . S
C2538 C2539 1.400 . S
C2539 C2538 1.400 . S
C2539 C2540 1.398 . S
C2539 C2545 1.491 . S
C2540 H2531 0.950 . S
C2540 C2539 1.398 . S
C2540 C2541 1.391 . S
C2541 H2529 0.950 . S
C2541 C2537 1.393 . S
C2541 C2540 1.391 . S
C2542 H2532 0.950 . S
C2542 C2543 1.386 . S
C2542 C2544 1.391 . S
C2543 C2542 1.386 . S
C2543 C2547 1.393 . S
C2544 H2533 0.950 . S
C2544 C2542 1.391 . S
C2544 C2545 1.400 . S
C2545 C2539 1.491 . S
C2545 C2544 1.400 . S
C2545 C2546 1.398 . S
C2546 H2534 0.950 . S
C2546 C2545 1.398 . S
C2546 C2547 1.391 . S
C2547 H2535 0.950 . S
C2547 C2543 1.393 . S
C2547 C2546 1.391 . S
H2548 C2556 0.950 . S
H2549 C2561 0.950 . S
H2550 C2558 0.950 . S
H2551 C2560 0.950 . S
H2552 C2562 0.950 . S
H2553 C2564 0.950 . S
H2554 C2566 0.950 . S
H2555 C2567 0.950 . S
C2556 H2548 0.950 . S
C2556 C2557 1.386 . S
C2556 C2558 1.391 . S
C2557 C2556 1.386 . S
C2557 C2561 1.393 . S
C2558 H2550 0.950 . S
C2558 C2556 1.391 . S
C2558 C2559 1.400 . S
C2559 C2558 1.400 . S
C2559 C2560 1.398 . S
C2559 C2565 1.491 . S
C2560 H2551 0.950 . S
C2560 C2559 1.398 . S
C2560 C2561 1.391 . S
C2561 H2549 0.950 . S
C2561 C2557 1.393 . S
C2561 C2560 1.391 . S
C2562 H2552 0.950 . S
C2562 C2563 1.386 . S
C2562 C2564 1.391 . S
C2563 C2562 1.386 . S
C2563 C2567 1.393 . S
C2564 H2553 0.950 . S
C2564 C2562 1.391 . S
C2564 C2565 1.400 . S
C2565 C2559 1.491 . S
C2565 C2564 1.400 . S
C2565 C2566 1.398 . S
C2566 H2554 0.950 . S
C2566 C2565 1.398 . S
C2566 C2567 1.391 . S
C2567 H2555 0.950 . S
C2567 C2563 1.393 . S
C2567 C2566 1.391 . S
H2568 C2576 0.950 . S
H2569 C2581 0.950 . S
H2570 C2578 0.950 . S
H2571 C2580 0.950 . S
H2572 C2582 0.950 . S
H2573 C2584 0.950 . S
H2574 C2586 0.950 . S
H2575 C2587 0.950 . S
C2576 H2568 0.950 . S
C2576 C2577 1.386 . S
C2576 C2578 1.391 . S
C2577 C2576 1.386 . S
C2577 C2581 1.393 . S
C2578 H2570 0.950 . S
C2578 C2576 1.391 . S
C2578 C2579 1.400 . S
C2579 C2578 1.400 . S
C2579 C2580 1.398 . S
C2579 C2585 1.491 . S
C2580 H2571 0.950 . S
C2580 C2579 1.398 . S
C2580 C2581 1.391 . S
C2581 H2569 0.950 . S
C2581 C2577 1.393 . S
C2581 C2580 1.391 . S
C2582 H2572 0.950 . S
C2582 C2583 1.386 . S
C2582 C2584 1.391 . S
C2583 C2582 1.386 . S
C2583 C2587 1.393 . S
C2584 H2573 0.950 . S
C2584 C2582 1.391 . S
C2584 C2585 1.400 . S
C2585 C2579 1.491 . S
C2585 C2584 1.400 . S
C2585 C2586 1.398 . S
C2586 H2574 0.950 . S
C2586 C2585 1.398 . S
C2586 C2587 1.391 . S
C2587 H2575 0.950 . S
C2587 C2583 1.393 . S
C2587 C2586 1.391 . S
H2588 C2596 0.950 . S
H2589 C2601 0.950 . S
H2590 C2598 0.950 . S
H2591 C2600 0.950 . S
H2592 C2602 0.950 . S
H2593 C2604 0.950 . S
H2594 C2606 0.950 . S
H2595 C2607 0.950 . S
C2596 H2588 0.950 . S
C2596 C2597 1.386 . S
C2596 C2598 1.391 . S
C2597 C2596 1.386 . S
C2597 C2601 1.393 . S
C2598 H2590 0.950 . S
C2598 C2596 1.391 . S
C2598 C2599 1.400 . S
C2599 C2598 1.400 . S
C2599 C2600 1.398 . S
C2599 C2605 1.491 . S
C2600 H2591 0.950 . S
C2600 C2599 1.398 . S
C2600 C2601 1.391 . S
C2601 H2589 0.950 . S
C2601 C2597 1.393 . S
C2601 C2600 1.391 . S
C2602 H2592 0.950 . S
C2602 C2603 1.386 . S
C2602 C2604 1.391 . S
C2603 C2602 1.386 . S
C2603 C2607 1.393 . S
C2604 H2593 0.950 . S
C2604 C2602 1.391 . S
C2604 C2605 1.400 . S
C2605 C2599 1.491 . S
C2605 C2604 1.400 . S
C2605 C2606 1.398 . S
C2606 H2594 0.950 . S
C2606 C2605 1.398 . S
C2606 C2607 1.391 . S
C2607 H2595 0.950 . S
C2607 C2603 1.393 . S
C2607 C2606 1.391 . S
H2608 C2616 0.950 . S
H2609 C2621 0.950 . S
H2610 C2618 0.950 . S
H2611 C2620 0.950 . S
H2612 C2622 0.950 . S
H2613 C2624 0.950 . S
H2614 C2626 0.950 . S
H2615 C2627 0.950 . S
C2616 H2608 0.950 . S
C2616 C2617 1.386 . S
C2616 C2618 1.391 . S
C2617 C2616 1.386 . S
C2617 C2621 1.393 . S
C2618 H2610 0.950 . S
C2618 C2616 1.391 . S
C2618 C2619 1.400 . S
C2619 C2618 1.400 . S
C2619 C2620 1.398 . S
C2619 C2625 1.491 . S
C2620 H2611 0.950 . S
C2620 C2619 1.398 . S
C2620 C2621 1.391 . S
C2621 H2609 0.950 . S
C2621 C2617 1.393 . S
C2621 C2620 1.391 . S
C2622 H2612 0.950 . S
C2622 C2623 1.386 . S
C2622 C2624 1.391 . S
C2623 C2622 1.386 . S
C2623 C2627 1.393 . S
C2624 H2613 0.950 . S
C2624 C2622 1.391 . S
C2624 C2625 1.400 . S
C2625 C2619 1.491 . S
C2625 C2624 1.400 . S
C2625 C2626 1.398 . S
C2626 H2614 0.950 . S
C2626 C2625 1.398 . S
C2626 C2627 1.391 . S
C2627 H2615 0.950 . S
C2627 C2623 1.393 . S
C2627 C2626 1.391 . S
H2628 C2636 0.950 . S
H2629 C2641 0.950 . S
H2630 C2638 0.950 . S
H2631 C2640 0.950 . S
H2632 C2642 0.950 . S
H2633 C2644 0.950 . S
H2634 C2646 0.950 . S
H2635 C2647 0.950 . S
C2636 H2628 0.950 . S
C2636 C2637 1.386 . S
C2636 C2638 1.391 . S
C2637 C2636 1.386 . S
C2637 C2641 1.393 . S
C2638 H2630 0.950 . S
C2638 C2636 1.391 . S
C2638 C2639 1.400 . S
C2639 C2638 1.400 . S
C2639 C2640 1.398 . S
C2639 C2645 1.491 . S
C2640 H2631 0.950 . S
C2640 C2639 1.398 . S
C2640 C2641 1.391 . S
C2641 H2629 0.950 . S
C2641 C2637 1.393 . S
C2641 C2640 1.391 . S
C2642 H2632 0.950 . S
C2642 C2643 1.386 . S
C2642 C2644 1.391 . S
C2643 C2642 1.386 . S
C2643 C2647 1.393 . S
C2644 H2633 0.950 . S
C2644 C2642 1.391 . S
C2644 C2645 1.400 . S
C2645 C2639 1.491 . S
C2645 C2644 1.400 . S
C2645 C2646 1.398 . S
C2646 H2634 0.950 . S
C2646 C2645 1.398 . S
C2646 C2647 1.391 . S
C2647 H2635 0.950 . S
C2647 C2643 1.393 . S
C2647 C2646 1.391 . S
H2648 C2656 0.950 . S
H2649 C2661 0.950 . S
H2650 C2658 0.950 . S
H2651 C2660 0.950 . S
H2652 C2662 0.950 . S
H2653 C2664 0.950 . S
H2654 C2666 0.950 . S
H2655 C2667 0.950 . S
C2656 H2648 0.950 . S
C2656 C2657 1.386 . S
C2656 C2658 1.391 . S
C2657 C2656 1.386 . S
C2657 C2661 1.393 . S
C2658 H2650 0.950 . S
C2658 C2656 1.391 . S
C2658 C2659 1.400 . S
C2659 C2658 1.400 . S
C2659 C2660 1.398 . S
C2659 C2665 1.491 . S
C2660 H2651 0.950 . S
C2660 C2659 1.398 . S
C2660 C2661 1.391 . S
C2661 H2649 0.950 . S
C2661 C2657 1.393 . S
C2661 C2660 1.391 . S
C2662 H2652 0.950 . S
C2662 C2663 1.386 . S
C2662 C2664 1.391 . S
C2663 C2662 1.386 . S
C2663 C2667 1.393 . S
C2664 H2653 0.950 . S
C2664 C2662 1.391 . S
C2664 C2665 1.400 . S
C2665 C2659 1.491 . S
C2665 C2664 1.400 . S
C2665 C2666 1.398 . S
C2666 H2654 0.950 . S
C2666 C2665 1.398 . S
C2666 C2667 1.391 . S
C2667 H2655 0.950 . S
C2667 C2663 1.393 . S
C2667 C2666 1.391 . S
H2668 C2676 0.950 . S
H2669 C2681 0.950 . S
H2670 C2678 0.950 . S
H2671 C2680 0.950 . S
H2672 C2682 0.950 . S
H2673 C2684 0.950 . S
H2674 C2686 0.950 . S
H2675 C2687 0.950 . S
C2676 H2668 0.950 . S
C2676 C2677 1.386 . S
C2676 C2678 1.391 . S
C2677 C2676 1.386 . S
C2677 C2681 1.393 . S
C2678 H2670 0.950 . S
C2678 C2676 1.391 . S
C2678 C2679 1.400 . S
C2679 C2678 1.400 . S
C2679 C2680 1.398 . S
C2679 C2685 1.491 . S
C2680 H2671 0.950 . S
C2680 C2679 1.398 . S
C2680 C2681 1.391 . S
C2681 H2669 0.950 . S
C2681 C2677 1.393 . S
C2681 C2680 1.391 . S
C2682 H2672 0.950 . S
C2682 C2683 1.386 . S
C2682 C2684 1.391 . S
C2683 C2682 1.386 . S
C2683 C2687 1.393 . S
C2684 H2673 0.950 . S
C2684 C2682 1.391 . S
C2684 C2685 1.400 . S
C2685 C2679 1.491 . S
C2685 C2684 1.400 . S
C2685 C2686 1.398 . S
C2686 H2674 0.950 . S
C2686 C2685 1.398 . S
C2686 C2687 1.391 . S
C2687 H2675 0.950 . S
C2687 C2683 1.393 . S
C2687 C2686 1.391 . S
H2688 C2696 0.950 . S
H2689 C2701 0.950 . S
H2690 C2698 0.950 . S
H2691 C2700 0.950 . S
H2692 C2702 0.950 . S
H2693 C2704 0.950 . S
H2694 C2706 0.950 . S
H2695 C2707 0.950 . S
C2696 H2688 0.950 . S
C2696 C2697 1.386 . S
C2696 C2698 1.391 . S
C2697 C2696 1.386 . S
C2697 C2701 1.393 . S
C2698 H2690 0.950 . S
C2698 C2696 1.391 . S
C2698 C2699 1.400 . S
C2699 C2698 1.400 . S
C2699 C2700 1.398 . S
C2699 C2705 1.491 . S
C2700 H2691 0.950 . S
C2700 C2699 1.398 . S
C2700 C2701 1.391 . S
C2701 H2689 0.950 . S
C2701 C2697 1.393 . S
C2701 C2700 1.391 . S
C2702 H2692 0.950 . S
C2702 C2703 1.386 . S
C2702 C2704 1.391 . S
C2703 C2702 1.386 . S
C2703 C2707 1.393 . S
C2704 H2693 0.950 . S
C2704 C2702 1.391 . S
C2704 C2705 1.400 . S
C2705 C2699 1.491 . S
C2705 C2704 1.400 . S
C2705 C2706 1.398 . S
C2706 H2694 0.950 . S
C2706 C2705 1.398 . S
C2706 C2707 1.391 . S
C2707 H2695 0.950 . S
C2707 C2703 1.393 . S
C2707 C2706 1.391 . S
H2708 C2716 0.950 . S
H2709 C2721 0.950 . S
H2710 C2718 0.950 . S
H2711 C2720 0.950 . S
H2712 C2722 0.950 . S
H2713 C2724 0.950 . S
H2714 C2726 0.950 . S
H2715 C2727 0.950 . S
C2716 H2708 0.950 . S
C2716 C2717 1.386 . S
C2716 C2718 1.391 . S
C2717 C2716 1.386 . S
C2717 C2721 1.393 . S
C2718 H2710 0.950 . S
C2718 C2716 1.391 . S
C2718 C2719 1.400 . S
C2719 C2718 1.400 . S
C2719 C2720 1.398 . S
C2719 C2725 1.491 . S
C2720 H2711 0.950 . S
C2720 C2719 1.398 . S
C2720 C2721 1.391 . S
C2721 H2709 0.950 . S
C2721 C2717 1.393 . S
C2721 C2720 1.391 . S
C2722 H2712 0.950 . S
C2722 C2723 1.386 . S
C2722 C2724 1.391 . S
C2723 C2722 1.386 . S
C2723 C2727 1.393 . S
C2724 H2713 0.950 . S
C2724 C2722 1.391 . S
C2724 C2725 1.400 . S
C2725 C2719 1.491 . S
C2725 C2724 1.400 . S
C2725 C2726 1.398 . S
C2726 H2714 0.950 . S
C2726 C2725 1.398 . S
C2726 C2727 1.391 . S
C2727 H2715 0.950 . S
C2727 C2723 1.393 . S
C2727 C2726 1.391 . S
H2728 C2736 0.950 . S
H2729 C2741 0.950 . S
H2730 C2738 0.950 . S
H2731 C2740 0.950 . S
H2732 C2742 0.950 . S
H2733 C2744 0.950 . S
H2734 C2746 0.950 . S
H2735 C2747 0.950 . S
C2736 H2728 0.950 . S
C2736 C2737 1.386 . S
C2736 C2738 1.391 . S
C2737 C2736 1.386 . S
C2737 C2741 1.393 . S
C2738 H2730 0.950 . S
C2738 C2736 1.391 . S
C2738 C2739 1.400 . S
C2739 C2738 1.400 . S
C2739 C2740 1.398 . S
C2739 C2745 1.491 . S
C2740 H2731 0.950 . S
C2740 C2739 1.398 . S
C2740 C2741 1.391 . S
C2741 H2729 0.950 . S
C2741 C2737 1.393 . S
C2741 C2740 1.391 . S
C2742 H2732 0.950 . S
C2742 C2743 1.386 . S
C2742 C2744 1.391 . S
C2743 C2742 1.386 . S
C2743 C2747 1.393 . S
C2744 H2733 0.950 . S
C2744 C2742 1.391 . S
C2744 C2745 1.400 . S
C2745 C2739 1.491 . S
C2745 C2744 1.400 . S
C2745 C2746 1.398 . S
C2746 H2734 0.950 . S
C2746 C2745 1.398 . S
C2746 C2747 1.391 . S
C2747 H2735 0.950 . S
C2747 C2743 1.393 . S
C2747 C2746 1.391 . S
H2748 C2756 0.950 . S
H2749 C2761 0.950 . S
H2750 C2758 0.950 . S
H2751 C2760 0.950 . S
H2752 C2762 0.950 . S
H2753 C2764 0.950 . S
H2754 C2766 0.950 . S
H2755 C2767 0.950 . S
C2756 H2748 0.950 . S
C2756 C2757 1.386 . S
C2756 C2758 1.391 . S
C2757 C2756 1.386 . S
C2757 C2761 1.393 . S
C2758 H2750 0.950 . S
C2758 C2756 1.391 . S
C2758 C2759 1.400 . S
C2759 C2758 1.400 . S
C2759 C2760 1.398 . S
C2759 C2765 1.491 . S
C2760 H2751 0.950 . S
C2760 C2759 1.398 . S
C2760 C2761 1.391 . S
C2761 H2749 0.950 . S
C2761 C2757 1.393 . S
C2761 C2760 1.391 . S
C2762 H2752 0.950 . S
C2762 C2763 1.386 . S
C2762 C2764 1.391 . S
C2763 C2762 1.386 . S
C2763 C2767 1.393 . S
C2764 H2753 0.950 . S
C2764 C2762 1.391 . S
C2764 C2765 1.400 . S
C2765 C2759 1.491 . S
C2765 C2764 1.400 . S
C2765 C2766 1.398 . S
C2766 H2754 0.950 . S
C2766 C2765 1.398 . S
C2766 C2767 1.391 . S
C2767 H2755 0.950 . S
C2767 C2763 1.393 . S
C2767 C2766 1.391 . S
H2768 C2776 0.950 . S
H2769 C2781 0.950 . S
H2770 C2778 0.950 . S
H2771 C2780 0.950 . S
H2772 C2782 0.950 . S
H2773 C2784 0.950 . S
H2774 C2786 0.950 . S
H2775 C2787 0.950 . S
C2776 H2768 0.950 . S
C2776 C2777 1.386 . S
C2776 C2778 1.391 . S
C2777 C2776 1.386 . S
C2777 C2781 1.393 . S
C2778 H2770 0.950 . S
C2778 C2776 1.391 . S
C2778 C2779 1.400 . S
C2779 C2778 1.400 . S
C2779 C2780 1.398 . S
C2779 C2785 1.491 . S
C2780 H2771 0.950 . S
C2780 C2779 1.398 . S
C2780 C2781 1.391 . S
C2781 H2769 0.950 . S
C2781 C2777 1.393 . S
C2781 C2780 1.391 . S
C2782 H2772 0.950 . S
C2782 C2783 1.386 . S
C2782 C2784 1.391 . S
C2783 C2782 1.386 . S
C2783 C2787 1.393 . S
C2784 H2773 0.950 . S
C2784 C2782 1.391 . S
C2784 C2785 1.400 . S
C2785 C2779 1.491 . S
C2785 C2784 1.400 . S
C2785 C2786 1.398 . S
C2786 H2774 0.950 . S
C2786 C2785 1.398 . S
C2786 C2787 1.391 . S
C2787 H2775 0.950 . S
C2787 C2783 1.393 . S
C2787 C2786 1.391 . S
H2788 C2796 0.950 . S
H2789 C2801 0.950 . S
H2790 C2798 0.950 . S
H2791 C2800 0.950 . S
H2792 C2802 0.950 . S
H2793 C2804 0.950 . S
H2794 C2806 0.950 . S
H2795 C2807 0.950 . S
C2796 H2788 0.950 . S
C2796 C2797 1.386 . S
C2796 C2798 1.391 . S
C2797 C2796 1.386 . S
C2797 C2801 1.393 . S
C2798 H2790 0.950 . S
C2798 C2796 1.391 . S
C2798 C2799 1.400 . S
C2799 C2798 1.400 . S
C2799 C2800 1.398 . S
C2799 C2805 1.491 . S
C2800 H2791 0.950 . S
C2800 C2799 1.398 . S
C2800 C2801 1.391 . S
C2801 H2789 0.950 . S
C2801 C2797 1.393 . S
C2801 C2800 1.391 . S
C2802 H2792 0.950 . S
C2802 C2803 1.386 . S
C2802 C2804 1.391 . S
C2803 C2802 1.386 . S
C2803 C2807 1.393 . S
C2804 H2793 0.950 . S
C2804 C2802 1.391 . S
C2804 C2805 1.400 . S
C2805 C2799 1.491 . S
C2805 C2804 1.400 . S
C2805 C2806 1.398 . S
C2806 H2794 0.950 . S
C2806 C2805 1.398 . S
C2806 C2807 1.391 . S
C2807 H2795 0.950 . S
C2807 C2803 1.393 . S
C2807 C2806 1.391 . S
H2808 C2816 0.950 . S
H2809 C2821 0.950 . S
H2810 C2818 0.950 . S
H2811 C2820 0.950 . S
H2812 C2822 0.950 . S
H2813 C2824 0.950 . S
H2814 C2826 0.950 . S
H2815 C2827 0.950 . S
C2816 H2808 0.950 . S
C2816 C2817 1.386 . S
C2816 C2818 1.391 . S
C2817 C2816 1.386 . S
C2817 C2821 1.393 . S
C2818 H2810 0.950 . S
C2818 C2816 1.391 . S
C2818 C2819 1.400 . S
C2819 C2818 1.400 . S
C2819 C2820 1.398 . S
C2819 C2825 1.491 . S
C2820 H2811 0.950 . S
C2820 C2819 1.398 . S
C2820 C2821 1.391 . S
C2821 H2809 0.950 . S
C2821 C2817 1.393 . S
C2821 C2820 1.391 . S
C2822 H2812 0.950 . S
C2822 C2823 1.386 . S
C2822 C2824 1.391 . S
C2823 C2822 1.386 . S
C2823 C2827 1.393 . S
C2824 H2813 0.950 . S
C2824 C2822 1.391 . S
C2824 C2825 1.400 . S
C2825 C2819 1.491 . S
C2825 C2824 1.400 . S
C2825 C2826 1.398 . S
C2826 H2814 0.950 . S
C2826 C2825 1.398 . S
C2826 C2827 1.391 . S
C2827 H2815 0.950 . S
C2827 C2823 1.393 . S
C2827 C2826 1.391 . S
H2828 C2836 0.950 . S
H2829 C2841 0.950 . S
H2830 C2838 0.950 . S
H2831 C2840 0.950 . S
H2832 C2842 0.950 . S
H2833 C2844 0.950 . S
H2834 C2846 0.950 . S
H2835 C2847 0.950 . S
C2836 H2828 0.950 . S
C2836 C2837 1.386 . S
C2836 C2838 1.391 . S
C2837 C2836 1.386 . S
C2837 C2841 1.393 . S
C2838 H2830 0.950 . S
C2838 C2836 1.391 . S
C2838 C2839 1.400 . S
C2839 C2838 1.400 . S
C2839 C2840 1.398 . S
C2839 C2845 1.491 . S
C2840 H2831 0.950 . S
C2840 C2839 1.398 . S
C2840 C2841 1.391 . S
C2841 H2829 0.950 . S
C2841 C2837 1.393 . S
C2841 C2840 1.391 . S
C2842 H2832 0.950 . S
C2842 C2843 1.386 . S
C2842 C2844 1.391 . S
C2843 C2842 1.386 . S
C2843 C2847 1.393 . S
C2844 H2833 0.950 . S
C2844 C2842 1.391 . S
C2844 C2845 1.400 . S
C2845 C2839 1.491 . S
C2845 C2844 1.400 . S
C2845 C2846 1.398 . S
C2846 H2834 0.950 . S
C2846 C2845 1.398 . S
C2846 C2847 1.391 . S
C2847 H2835 0.950 . S
C2847 C2843 1.393 . S
C2847 C2846 1.391 . S
H2848 C2856 0.950 . S
H2849 C2861 0.950 . S
H2850 C2858 0.950 . S
H2851 C2860 0.950 . S
H2852 C2862 0.950 . S
H2853 C2864 0.950 . S
H2854 C2866 0.950 . S
H2855 C2867 0.950 . S
C2856 H2848 0.950 . S
C2856 C2857 1.386 . S
C2856 C2858 1.391 . S
C2857 C2856 1.386 . S
C2857 C2861 1.393 . S
C2858 H2850 0.950 . S
C2858 C2856 1.391 . S
C2858 C2859 1.400 . S
C2859 C2858 1.400 . S
C2859 C2860 1.398 . S
C2859 C2865 1.491 . S
C2860 H2851 0.950 . S
C2860 C2859 1.398 . S
C2860 C2861 1.391 . S
C2861 H2849 0.950 . S
C2861 C2857 1.393 . S
C2861 C2860 1.391 . S
C2862 H2852 0.950 . S
C2862 C2863 1.386 . S
C2862 C2864 1.391 . S
C2863 C2862 1.386 . S
C2863 C2867 1.393 . S
C2864 H2853 0.950 . S
C2864 C2862 1.391 . S
C2864 C2865 1.400 . S
C2865 C2859 1.491 . S
C2865 C2864 1.400 . S
C2865 C2866 1.398 . S
C2866 H2854 0.950 . S
C2866 C2865 1.398 . S
C2866 C2867 1.391 . S
C2867 H2855 0.950 . S
C2867 C2863 1.393 . S
C2867 C2866 1.391 . S
H2868 C2876 0.950 . S
H2869 C2881 0.950 . S
H2870 C2878 0.950 . S
H2871 C2880 0.950 . S
H2872 C2882 0.950 . S
H2873 C2884 0.950 . S
H2874 C2886 0.950 . S
H2875 C2887 0.950 . S
C2876 H2868 0.950 . S
C2876 C2877 1.386 . S
C2876 C2878 1.391 . S
C2877 C2876 1.386 . S
C2877 C2881 1.393 . S
C2878 H2870 0.950 . S
C2878 C2876 1.391 . S
C2878 C2879 1.400 . S
C2879 C2878 1.400 . S
C2879 C2880 1.398 . S
C2879 C2885 1.491 . S
C2880 H2871 0.950 . S
C2880 C2879 1.398 . S
C2880 C2881 1.391 . S
C2881 H2869 0.950 . S
C2881 C2877 1.393 . S
C2881 C2880 1.391 . S
C2882 H2872 0.950 . S
C2882 C2883 1.386 . S
C2882 C2884 1.391 . S
C2883 C2882 1.386 . S
C2883 C2887 1.393 . S
C2884 H2873 0.950 . S
C2884 C2882 1.391 . S
C2884 C2885 1.400 . S
C2885 C2879 1.491 . S
C2885 C2884 1.400 . S
C2885 C2886 1.398 . S
C2886 H2874 0.950 . S
C2886 C2885 1.398 . S
C2886 C2887 1.391 . S
C2887 H2875 0.950 . S
C2887 C2883 1.393 . S
C2887 C2886 1.391 . S
H2888 C2896 0.950 . S
H2889 C2901 0.950 . S
H2890 C2898 0.950 . S
H2891 C2900 0.950 . S
H2892 C2902 0.950 . S
H2893 C2904 0.950 . S
H2894 C2906 0.950 . S
H2895 C2907 0.950 . S
C2896 H2888 0.950 . S
C2896 C2897 1.386 . S
C2896 C2898 1.391 . S
C2897 C2896 1.386 . S
C2897 C2901 1.393 . S
C2898 H2890 0.950 . S
C2898 C2896 1.391 . S
C2898 C2899 1.400 . S
C2899 C2898 1.400 . S
C2899 C2900 1.398 . S
C2899 C2905 1.491 . S
C2900 H2891 0.950 . S
C2900 C2899 1.398 . S
C2900 C2901 1.391 . S
C2901 H2889 0.950 . S
C2901 C2897 1.393 . S
C2901 C2900 1.391 . S
C2902 H2892 0.950 . S
C2902 C2903 1.386 . S
C2902 C2904 1.391 . S
C2903 C2902 1.386 . S
C2903 C2907 1.393 . S
C2904 H2893 0.950 . S
C2904 C2902 1.391 . S
C2904 C2905 1.400 . S
C2905 C2899 1.491 . S
C2905 C2904 1.400 . S
C2905 C2906 1.398 . S
C2906 H2894 0.950 . S
C2906 C2905 1.398 . S
C2906 C2907 1.391 . S
C2907 H2895 0.950 . S
C2907 C2903 1.393 . S
C2907 C2906 1.391 . S
H2908 C2916 0.950 . S
H2909 C2921 0.950 . S
H2910 C2918 0.950 . S
H2911 C2920 0.950 . S
H2912 C2922 0.950 . S
H2913 C2924 0.950 . S
H2914 C2926 0.950 . S
H2915 C2927 0.950 . S
C2916 H2908 0.950 . S
C2916 C2917 1.386 . S
C2916 C2918 1.391 . S
C2917 C2916 1.386 . S
C2917 C2921 1.393 . S
C2918 H2910 0.950 . S
C2918 C2916 1.391 . S
C2918 C2919 1.400 . S
C2919 C2918 1.400 . S
C2919 C2920 1.398 . S
C2919 C2925 1.491 . S
C2920 H2911 0.950 . S
C2920 C2919 1.398 . S
C2920 C2921 1.391 . S
C2921 H2909 0.950 . S
C2921 C2917 1.393 . S
C2921 C2920 1.391 . S
C2922 H2912 0.950 . S
C2922 C2923 1.386 . S
C2922 C2924 1.391 . S
C2923 C2922 1.386 . S
C2923 C2927 1.393 . S
C2924 H2913 0.950 . S
C2924 C2922 1.391 . S
C2924 C2925 1.400 . S
C2925 C2919 1.491 . S
C2925 C2924 1.400 . S
C2925 C2926 1.398 . S
C2926 H2914 0.950 . S
C2926 C2925 1.398 . S
C2926 C2927 1.391 . S
C2927 H2915 0.950 . S
C2927 C2923 1.393 . S
C2927 C2926 1.391 . S
H2928 C2936 0.950 . S
H2929 C2941 0.950 . S
H2930 C2938 0.950 . S
H2931 C2940 0.950 . S
H2932 C2942 0.950 . S
H2933 C2944 0.950 . S
H2934 C2946 0.950 . S
H2935 C2947 0.950 . S
C2936 H2928 0.950 . S
C2936 C2937 1.386 . S
C2936 C2938 1.391 . S
C2937 C2936 1.386 . S
C2937 C2941 1.393 . S
C2938 H2930 0.950 . S
C2938 C2936 1.391 . S
C2938 C2939 1.400 . S
C2939 C2938 1.400 . S
C2939 C2940 1.398 . S
C2939 C2945 1.491 . S
C2940 H2931 0.950 . S
C2940 C2939 1.398 . S
C2940 C2941 1.391 . S
C2941 H2929 0.950 . S
C2941 C2937 1.393 . S
C2941 C2940 1.391 . S
C2942 H2932 0.950 . S
C2942 C2943 1.386 . S
C2942 C2944 1.391 . S
C2943 C2942 1.386 . S
C2943 C2947 1.393 . S
C2944 H2933 0.950 . S
C2944 C2942 1.391 . S
C2944 C2945 1.400 . S
C2945 C2939 1.491 . S
C2945 C2944 1.400 . S
C2945 C2946 1.398 . S
C2946 H2934 0.950 . S
C2946 C2945 1.398 . S
C2946 C2947 1.391 . S
C2947 H2935 0.950 . S
C2947 C2943 1.393 . S
C2947 C2946 1.391 . S
H2948 C2956 0.950 . S
H2949 C2961 0.950 . S
H2950 C2958 0.950 . S
H2951 C2960 0.950 . S
H2952 C2962 0.950 . S
H2953 C2964 0.950 . S
H2954 C2966 0.950 . S
H2955 C2967 0.950 . S
C2956 H2948 0.950 . S
C2956 C2957 1.386 . S
C2956 C2958 1.391 . S
C2957 C2956 1.386 . S
C2957 C2961 1.393 . S
C2958 H2950 0.950 . S
C2958 C2956 1.391 . S
C2958 C2959 1.400 . S
C2959 C2958 1.400 . S
C2959 C2960 1.398 . S
C2959 C2965 1.491 . S
C2960 H2951 0.950 . S
C2960 C2959 1.398 . S
C2960 C2961 1.391 . S
C2961 H2949 0.950 . S
C2961 C2957 1.393 . S
C2961 C2960 1.391 . S
C2962 H2952 0.950 . S
C2962 C2963 1.386 . S
C2962 C2964 1.391 . S
C2963 C2962 1.386 . S
C2963 C2967 1.393 . S
C2964 H2953 0.950 . S
C2964 C2962 1.391 . S
C2964 C2965 1.400 . S
C2965 C2959 1.491 . S
C2965 C2964 1.400 . S
C2965 C2966 1.398 . S
C2966 H2954 0.950 . S
C2966 C2965 1.398 . S
C2966 C2967 1.391 . S
C2967 H2955 0.950 . S
C2967 C2963 1.393 . S
C2967 C2966 1.391 . S
H2968 C2976 0.950 . S
H2969 C2981 0.950 . S
H2970 C2978 0.950 . S
H2971 C2980 0.950 . S
H2972 C2982 0.950 . S
H2973 C2984 0.950 . S
H2974 C2986 0.950 . S
H2975 C2987 0.950 . S
C2976 H2968 0.950 . S
C2976 C2977 1.386 . S
C2976 C2978 1.391 . S
C2977 C2976 1.386 . S
C2977 C2981 1.393 . S
C2978 H2970 0.950 . S
C2978 C2976 1.391 . S
C2978 C2979 1.400 . S
C2979 C2978 1.400 . S
C2979 C2980 1.398 . S
C2979 C2985 1.491 . S
C2980 H2971 0.950 . S
C2980 C2979 1.398 . S
C2980 C2981 1.391 . S
C2981 H2969 0.950 . S
C2981 C2977 1.393 . S
C2981 C2980 1.391 . S
C2982 H2972 0.950 . S
C2982 C2983 1.386 . S
C2982 C2984 1.391 . S
C2983 C2982 1.386 . S
C2983 C2987 1.393 . S
C2984 H2973 0.950 . S
C2984 C2982 1.391 . S
C2984 C2985 1.400 . S
C2985 C2979 1.491 . S
C2985 C2984 1.400 . S
C2985 C2986 1.398 . S
C2986 H2974 0.950 . S
C2986 C2985 1.398 . S
C2986 C2987 1.391 . S
C2987 H2975 0.950 . S
C2987 C2983 1.393 . S
C2987 C2986 1.391 . S
H2988 C2996 0.950 . S
H2989 C3001 0.950 . S
H2990 C2998 0.950 . S
H2991 C3000 0.950 . S
H2992 C3002 0.950 . S
H2993 C3004 0.950 . S
H2994 C3006 0.950 . S
H2995 C3007 0.950 . S
C2996 H2988 0.950 . S
C2996 C2997 1.386 . S
C2996 C2998 1.391 . S
C2997 C2996 1.386 . S
C2997 C3001 1.393 . S
C2998 H2990 0.950 . S
C2998 C2996 1.391 . S
C2998 C2999 1.400 . S
C2999 C2998 1.400 . S
C2999 C3000 1.398 . S
C2999 C3005 1.491 . S
C3000 H2991 0.950 . S
C3000 C2999 1.398 . S
C3000 C3001 1.391 . S
C3001 H2989 0.950 . S
C3001 C2997 1.393 . S
C3001 C3000 1.391 . S
C3002 H2992 0.950 . S
C3002 C3003 1.386 . S
C3002 C3004 1.391 . S
C3003 C3002 1.386 . S
C3003 C3007 1.393 . S
C3004 H2993 0.950 . S
C3004 C3002 1.391 . S
C3004 C3005 1.400 . S
C3005 C2999 1.491 . S
C3005 C3004 1.400 . S
C3005 C3006 1.398 . S
C3006 H2994 0.950 . S
C3006 C3005 1.398 . S
C3006 C3007 1.391 . S
C3007 H2995 0.950 . S
C3007 C3003 1.393 . S
C3007 C3006 1.391 . S
H3008 C3016 0.950 . S
H3009 C3021 0.950 . S
H3010 C3018 0.950 . S
H3011 C3020 0.950 . S
H3012 C3022 0.950 . S
H3013 C3024 0.950 . S
H3014 C3026 0.950 . S
H3015 C3027 0.950 . S
C3016 H3008 0.950 . S
C3016 C3017 1.386 . S
C3016 C3018 1.391 . S
C3017 C3016 1.386 . S
C3017 C3021 1.393 . S
C3018 H3010 0.950 . S
C3018 C3016 1.391 . S
C3018 C3019 1.400 . S
C3019 C3018 1.400 . S
C3019 C3020 1.398 . S
C3019 C3025 1.491 . S
C3020 H3011 0.950 . S
C3020 C3019 1.398 . S
C3020 C3021 1.391 . S
C3021 H3009 0.950 . S
C3021 C3017 1.393 . S
C3021 C3020 1.391 . S
C3022 H3012 0.950 . S
C3022 C3023 1.386 . S
C3022 C3024 1.391 . S
C3023 C3022 1.386 . S
C3023 C3027 1.393 . S
C3024 H3013 0.950 . S
C3024 C3022 1.391 . S
C3024 C3025 1.400 . S
C3025 C3019 1.491 . S
C3025 C3024 1.400 . S
C3025 C3026 1.398 . S
C3026 H3014 0.950 . S
C3026 C3025 1.398 . S
C3026 C3027 1.391 . S
C3027 H3015 0.950 . S
C3027 C3023 1.393 . S
C3027 C3026 1.391 . S
H3028 C3036 0.950 . S
H3029 C3041 0.950 . S
H3030 C3038 0.950 . S
H3031 C3040 0.950 . S
H3032 C3042 0.950 . S
H3033 C3044 0.950 . S
H3034 C3046 0.950 . S
H3035 C3047 0.950 . S
C3036 H3028 0.950 . S
C3036 C3037 1.386 . S
C3036 C3038 1.391 . S
C3037 C3036 1.386 . S
C3037 C3041 1.393 . S
C3038 H3030 0.950 . S
C3038 C3036 1.391 . S
C3038 C3039 1.400 . S
C3039 C3038 1.400 . S
C3039 C3040 1.398 . S
C3039 C3045 1.491 . S
C3040 H3031 0.950 . S
C3040 C3039 1.398 . S
C3040 C3041 1.391 . S
C3041 H3029 0.950 . S
C3041 C3037 1.393 . S
C3041 C3040 1.391 . S
C3042 H3032 0.950 . S
C3042 C3043 1.386 . S
C3042 C3044 1.391 . S
C3043 C3042 1.386 . S
C3043 C3047 1.393 . S
C3044 H3033 0.950 . S
C3044 C3042 1.391 . S
C3044 C3045 1.400 . S
C3045 C3039 1.491 . S
C3045 C3044 1.400 . S
C3045 C3046 1.398 . S
C3046 H3034 0.950 . S
C3046 C3045 1.398 . S
C3046 C3047 1.391 . S
C3047 H3035 0.950 . S
C3047 C3043 1.393 . S
C3047 C3046 1.391 . S
H3048 C3056 0.950 . S
H3049 C3061 0.950 . S
H3050 C3058 0.950 . S
H3051 C3060 0.950 . S
H3052 C3062 0.950 . S
H3053 C3064 0.950 . S
H3054 C3066 0.950 . S
H3055 C3067 0.950 . S
C3056 H3048 0.950 . S
C3056 C3057 1.386 . S
C3056 C3058 1.391 . S
C3057 C3056 1.386 . S
C3057 C3061 1.393 . S
C3058 H3050 0.950 . S
C3058 C3056 1.391 . S
C3058 C3059 1.400 . S
C3059 C3058 1.400 . S
C3059 C3060 1.398 . S
C3059 C3065 1.491 . S
C3060 H3051 0.950 . S
C3060 C3059 1.398 . S
C3060 C3061 1.391 . S
C3061 H3049 0.950 . S
C3061 C3057 1.393 . S
C3061 C3060 1.391 . S
C3062 H3052 0.950 . S
C3062 C3063 1.386 . S
C3062 C3064 1.391 . S
C3063 C3062 1.386 . S
C3063 C3067 1.393 . S
C3064 H3053 0.950 . S
C3064 C3062 1.391 . S
C3064 C3065 1.400 . S
C3065 C3059 1.491 . S
C3065 C3064 1.400 . S
C3065 C3066 1.398 . S
C3066 H3054 0.950 . S
C3066 C3065 1.398 . S
C3066 C3067 1.391 . S
C3067 H3055 0.950 . S
C3067 C3063 1.393 . S
C3067 C3066 1.391 . S
H3068 C3076 0.950 . S
H3069 C3081 0.950 . S
H3070 C3078 0.950 . S
H3071 C3080 0.950 . S
H3072 C3082 0.950 . S
H3073 C3084 0.950 . S
H3074 C3086 0.950 . S
H3075 C3087 0.950 . S
C3076 H3068 0.950 . S
C3076 C3077 1.386 . S
C3076 C3078 1.391 . S
C3077 C3076 1.386 . S
C3077 C3081 1.393 . S
C3078 H3070 0.950 . S
C3078 C3076 1.391 . S
C3078 C3079 1.400 . S
C3079 C3078 1.400 . S
C3079 C3080 1.398 . S
C3079 C3085 1.491 . S
C3080 H3071 0.950 . S
C3080 C3079 1.398 . S
C3080 C3081 1.391 . S
C3081 H3069 0.950 . S
C3081 C3077 1.393 . S
C3081 C3080 1.391 . S
C3082 H3072 0.950 . S
C3082 C3083 1.386 . S
C3082 C3084 1.391 . S
C3083 C3082 1.386 . S
C3083 C3087 1.393 . S
C3084 H3073 0.950 . S
C3084 C3082 1.391 . S
C3084 C3085 1.400 . S
C3085 C3079 1.491 . S
C3085 C3084 1.400 . S
C3085 C3086 1.398 . S
C3086 H3074 0.950 . S
C3086 C3085 1.398 . S
C3086 C3087 1.391 . S
C3087 H3075 0.950 . S
C3087 C3083 1.393 . S
C3087 C3086 1.391 . S
H3088 C3096 0.950 . S
H3089 C3101 0.950 . S
H3090 C3098 0.950 . S
H3091 C3100 0.950 . S
H3092 C3102 0.950 . S
H3093 C3104 0.950 . S
H3094 C3106 0.950 . S
H3095 C3107 0.950 . S
C3096 H3088 0.950 . S
C3096 C3097 1.386 . S
C3096 C3098 1.391 . S
C3097 C3096 1.386 . S
C3097 C3101 1.393 . S
C3098 H3090 0.950 . S
C3098 C3096 1.391 . S
C3098 C3099 1.400 . S
C3099 C3098 1.400 . S
C3099 C3100 1.398 . S
C3099 C3105 1.491 . S
C3100 H3091 0.950 . S
C3100 C3099 1.398 . S
C3100 C3101 1.391 . S
C3101 H3089 0.950 . S
C3101 C3097 1.393 . S
C3101 C3100 1.391 . S
C3102 H3092 0.950 . S
C3102 C3103 1.386 . S
C3102 C3104 1.391 . S
C3103 C3102 1.386 . S
C3103 C3107 1.393 . S
C3104 H3093 0.950 . S
C3104 C3102 1.391 . S
C3104 C3105 1.400 . S
C3105 C3099 1.491 . S
C3105 C3104 1.400 . S
C3105 C3106 1.398 . S
C3106 H3094 0.950 . S
C3106 C3105 1.398 . S
C3106 C3107 1.391 . S
C3107 H3095 0.950 . S
C3107 C3103 1.393 . S
C3107 C3106 1.391 . S
H3108 C3116 0.950 . S
H3109 C3121 0.950 . S
H3110 C3118 0.950 . S
H3111 C3120 0.950 . S
H3112 C3122 0.950 . S
H3113 C3124 0.950 . S
H3114 C3126 0.950 . S
H3115 C3127 0.950 . S
C3116 H3108 0.950 . S
C3116 C3117 1.386 . S
C3116 C3118 1.391 . S
C3117 C3116 1.386 . S
C3117 C3121 1.393 . S
C3118 H3110 0.950 . S
C3118 C3116 1.391 . S
C3118 C3119 1.400 . S
C3119 C3118 1.400 . S
C3119 C3120 1.398 . S
C3119 C3125 1.491 . S
C3120 H3111 0.950 . S
C3120 C3119 1.398 . S
C3120 C3121 1.391 . S
C3121 H3109 0.950 . S
C3121 C3117 1.393 . S
C3121 C3120 1.391 . S
C3122 H3112 0.950 . S
C3122 C3123 1.386 . S
C3122 C3124 1.391 . S
C3123 C3122 1.386 . S
C3123 C3127 1.393 . S
C3124 H3113 0.950 . S
C3124 C3122 1.391 . S
C3124 C3125 1.400 . S
C3125 C3119 1.491 . S
C3125 C3124 1.400 . S
C3125 C3126 1.398 . S
C3126 H3114 0.950 . S
C3126 C3125 1.398 . S
C3126 C3127 1.391 . S
C3127 H3115 0.950 . S
C3127 C3123 1.393 . S
C3127 C3126 1.391 . S
H3128 C3136 0.950 . S
H3129 C3141 0.950 . S
H3130 C3138 0.950 . S
H3131 C3140 0.950 . S
H3132 C3142 0.950 . S
H3133 C3144 0.950 . S
H3134 C3146 0.950 . S
H3135 C3147 0.950 . S
C3136 H3128 0.950 . S
C3136 C3137 1.386 . S
C3136 C3138 1.391 . S
C3137 C3136 1.386 . S
C3137 C3141 1.393 . S
C3138 H3130 0.950 . S
C3138 C3136 1.391 . S
C3138 C3139 1.400 . S
C3139 C3138 1.400 . S
C3139 C3140 1.398 . S
C3139 C3145 1.491 . S
C3140 H3131 0.950 . S
C3140 C3139 1.398 . S
C3140 C3141 1.391 . S
C3141 H3129 0.950 . S
C3141 C3137 1.393 . S
C3141 C3140 1.391 . S
C3142 H3132 0.950 . S
C3142 C3143 1.386 . S
C3142 C3144 1.391 . S
C3143 C3142 1.386 . S
C3143 C3147 1.393 . S
C3144 H3133 0.950 . S
C3144 C3142 1.391 . S
C3144 C3145 1.400 . S
C3145 C3139 1.491 . S
C3145 C3144 1.400 . S
C3145 C3146 1.398 . S
C3146 H3134 0.950 . S
C3146 C3145 1.398 . S
C3146 C3147 1.391 . S
C3147 H3135 0.950 . S
C3147 C3143 1.393 . S
C3147 C3146 1.391 . S
H3148 C3156 0.950 . S
H3149 C3161 0.950 . S
H3150 C3158 0.950 . S
H3151 C3160 0.950 . S
H3152 C3162 0.950 . S
H3153 C3164 0.950 . S
H3154 C3166 0.950 . S
H3155 C3167 0.950 . S
C3156 H3148 0.950 . S
C3156 C3157 1.386 . S
C3156 C3158 1.391 . S
C3157 C3156 1.386 . S
C3157 C3161 1.393 . S
C3158 H3150 0.950 . S
C3158 C3156 1.391 . S
C3158 C3159 1.400 . S
C3159 C3158 1.400 . S
C3159 C3160 1.398 . S
C3159 C3165 1.491 . S
C3160 H3151 0.950 . S
C3160 C3159 1.398 . S
C3160 C3161 1.391 . S
C3161 H3149 0.950 . S
C3161 C3157 1.393 . S
C3161 C3160 1.391 . S
C3162 H3152 0.950 . S
C3162 C3163 1.386 . S
C3162 C3164 1.391 . S
C3163 C3162 1.386 . S
C3163 C3167 1.393 . S
C3164 H3153 0.950 . S
C3164 C3162 1.391 . S
C3164 C3165 1.400 . S
C3165 C3159 1.491 . S
C3165 C3164 1.400 . S
C3165 C3166 1.398 . S
C3166 H3154 0.950 . S
C3166 C3165 1.398 . S
C3166 C3167 1.391 . S
C3167 H3155 0.950 . S
C3167 C3163 1.393 . S
C3167 C3166 1.391 . S
H3168 C3176 0.950 1_655 S
H3169 C3181 0.950 . S
H3170 C3178 0.950 1_645 S
H3171 C3180 0.950 . S
H3172 C3182 0.950 . S
H3173 C3184 0.950 1_565 S
H3174 C3186 0.950 1_655 S
H3175 C3187 0.950 1_655 S
C3176 H3168 0.950 1_455 S
C3176 C3177 1.386 . S
C3176 C3178 1.391 . S
C3177 C3176 1.386 . S
C3177 C3181 1.393 . S
C3178 H3170 0.950 1_465 S
C3178 C3176 1.391 . S
C3178 C3179 1.400 . S
C3179 C3178 1.400 . S
C3179 C3180 1.398 . S
C3179 C3185 1.491 1_565 S
C3180 H3171 0.950 . S
C3180 C3179 1.398 . S
C3180 C3181 1.391 . S
C3181 H3169 0.950 . S
C3181 C3177 1.393 . S
C3181 C3180 1.391 . S
C3182 H3172 0.950 . S
C3182 C3183 1.386 . S
C3182 C3184 1.391 . S
C3183 C3182 1.386 . S
C3183 C3187 1.393 . S
C3184 H3173 0.950 1_545 S
C3184 C3182 1.391 . S
C3184 C3185 1.400 . S
C3185 C3179 1.491 1_545 S
C3185 C3184 1.400 . S
C3185 C3186 1.398 . S
C3186 H3174 0.950 1_455 S
C3186 C3185 1.398 . S
C3186 C3187 1.391 . S
C3187 H3175 0.950 1_455 S
C3187 C3183 1.393 . S
C3187 C3186 1.391 . S
H3188 C3196 0.950 . S
H3189 C3201 0.950 . S
H3190 C3198 0.950 . S
H3191 C3200 0.950 . S
H3192 C3202 0.950 . S
H3193 C3204 0.950 . S
H3194 C3206 0.950 . S
H3195 C3207 0.950 . S
C3196 H3188 0.950 . S
C3196 C3197 1.386 . S
C3196 C3198 1.391 . S
C3197 C3196 1.386 . S
C3197 C3201 1.393 . S
C3198 H3190 0.950 . S
C3198 C3196 1.391 . S
C3198 C3199 1.400 . S
C3199 C3198 1.400 . S
C3199 C3200 1.398 . S
C3199 C3205 1.491 . S
C3200 H3191 0.950 . S
C3200 C3199 1.398 . S
C3200 C3201 1.391 . S
C3201 H3189 0.950 . S
C3201 C3197 1.393 . S
C3201 C3200 1.391 . S
C3202 H3192 0.950 . S
C3202 C3203 1.386 . S
C3202 C3204 1.391 . S
C3203 C3202 1.386 . S
C3203 C3207 1.393 . S
C3204 H3193 0.950 . S
C3204 C3202 1.391 . S
C3204 C3205 1.400 . S
C3205 C3199 1.491 . S
C3205 C3204 1.400 . S
C3205 C3206 1.398 . S
C3206 H3194 0.950 . S
C3206 C3205 1.398 . S
C3206 C3207 1.391 . S
C3207 H3195 0.950 . S
C3207 C3203 1.393 . S
C3207 C3206 1.391 . S
H3208 C3216 0.950 . S
H3209 C3221 0.950 . S
H3210 C3218 0.950 1_545 S
H3211 C3220 0.950 . S
H3212 C3222 0.950 . S
H3213 C3224 0.950 1_565 S
H3214 C3226 0.950 . S
H3215 C3227 0.950 . S
C3216 H3208 0.950 . S
C3216 C3217 1.386 . S
C3216 C3218 1.391 . S
C3217 C3216 1.386 . S
C3217 C3221 1.393 . S
C3218 H3210 0.950 1_565 S
C3218 C3216 1.391 . S
C3218 C3219 1.400 . S
C3219 C3218 1.400 . S
C3219 C3220 1.398 . S
C3219 C3225 1.491 1_565 S
C3220 H3211 0.950 . S
C3220 C3219 1.398 . S
C3220 C3221 1.391 . S
C3221 H3209 0.950 . S
C3221 C3217 1.393 . S
C3221 C3220 1.391 . S
C3222 H3212 0.950 . S
C3222 C3223 1.386 . S
C3222 C3224 1.391 . S
C3223 C3222 1.386 . S
C3223 C3227 1.393 . S
C3224 H3213 0.950 1_545 S
C3224 C3222 1.391 . S
C3224 C3225 1.400 . S
C3225 C3219 1.491 1_545 S
C3225 C3224 1.400 . S
C3225 C3226 1.398 . S
C3226 H3214 0.950 . S
C3226 C3225 1.398 . S
C3226 C3227 1.391 . S
C3227 H3215 0.950 . S
C3227 C3223 1.393 . S
C3227 C3226 1.391 . S
H3228 C3236 0.950 . S
H3229 C3241 0.950 . S
H3230 C3238 0.950 . S
H3231 C3240 0.950 1_554 S
H3232 C3242 0.950 . S
H3233 C3244 0.950 . S
H3234 C3246 0.950 1_556 S
H3235 C3247 0.950 . S
C3236 H3228 0.950 . S
C3236 C3237 1.386 . S
C3236 C3238 1.391 . S
C3237 C3236 1.386 . S
C3237 C3241 1.393 . S
C3238 H3230 0.950 . S
C3238 C3236 1.391 . S
C3238 C3239 1.400 . S
C3239 C3238 1.400 . S
C3239 C3240 1.398 . S
C3239 C3245 1.491 1_556 S
C3240 H3231 0.950 1_556 S
C3240 C3239 1.398 . S
C3240 C3241 1.391 . S
C3241 H3229 0.950 . S
C3241 C3237 1.393 . S
C3241 C3240 1.391 . S
C3242 H3232 0.950 . S
C3242 C3243 1.386 . S
C3242 C3244 1.391 . S
C3243 C3242 1.386 . S
C3243 C3247 1.393 . S
C3244 H3233 0.950 . S
C3244 C3242 1.391 . S
C3244 C3245 1.400 . S
C3245 C3239 1.491 1_554 S
C3245 C3244 1.400 . S
C3245 C3246 1.398 . S
C3246 H3234 0.950 1_554 S
C3246 C3245 1.398 . S
C3246 C3247 1.391 . S
C3247 H3235 0.950 . S
C3247 C3243 1.393 . S
C3247 C3246 1.391 . S
H3248 C3256 0.950 . S
H3249 C3261 0.950 . S
H3250 C3258 0.950 . S
H3251 C3260 0.950 . S
H3252 C3262 0.990 . S
H3253 C3264 0.995 . S
H3254 C3266 0.950 . S
H3255 C3267 0.950 . S
C3256 H3248 0.950 . S
C3256 C3257 1.386 . S
C3256 C3258 1.391 . S
C3257 C3256 1.386 . S
C3257 C3261 1.393 1_545 S
C3258 H3250 0.950 . S
C3258 C3256 1.391 . S
C3258 C3259 1.400 . S
C3259 C3258 1.400 . S
C3259 C3260 1.398 1_545 S
C3259 C3265 1.491 1_556 S
C3260 H3251 0.950 . S
C3260 C3259 1.398 1_565 S
C3260 C3261 1.391 . S
C3261 H3249 0.950 . S
C3261 C3257 1.393 1_565 S
C3261 C3260 1.391 . S
C3262 H3252 0.990 . S
C3262 C3263 1.346 1_565 S
C3262 C3264 1.391 . S
C3263 C3262 1.346 1_545 S
C3263 C3267 1.393 . S
C3264 H3253 0.995 . S
C3264 C3262 1.391 . S
C3264 C3265 1.357 1_565 S
C3265 C3259 1.491 1_554 S
C3265 C3264 1.357 1_545 S
C3265 C3266 1.398 . S
C3266 H3254 0.950 . S
C3266 C3265 1.398 . S
C3266 C3267 1.391 . S
C3267 H3255 0.950 . S
C3267 C3263 1.393 . S
C3267 C3266 1.391 . S
H3268 C3276 0.950 . S
H3269 C3281 0.950 . S
H3270 C3278 0.950 . S
H3271 C3280 0.950 1_565 S
H3272 C3282 0.950 . S
H3273 C3284 0.950 . S
H3274 C3286 0.950 1_545 S
H3275 C3287 0.950 . S
C3276 H3268 0.950 . S
C3276 C3277 1.386 . S
C3276 C3278 1.391 . S
C3277 C3276 1.386 . S
C3277 C3281 1.393 . S
C3278 H3270 0.950 . S
C3278 C3276 1.391 . S
C3278 C3279 1.400 . S
C3279 C3278 1.400 . S
C3279 C3280 1.398 . S
C3279 C3285 1.491 1_545 S
C3280 H3271 0.950 1_545 S
C3280 C3279 1.398 . S
C3280 C3281 1.391 . S
C3281 H3269 0.950 . S
C3281 C3277 1.393 . S
C3281 C3280 1.391 . S
C3282 H3272 0.950 . S
C3282 C3283 1.386 . S
C3282 C3284 1.391 . S
C3283 C3282 1.386 . S
C3283 C3287 1.393 . S
C3284 H3273 0.950 . S
C3284 C3282 1.391 . S
C3284 C3285 1.400 . S
C3285 C3279 1.491 1_565 S
C3285 C3284 1.400 . S
C3285 C3286 1.398 . S
C3286 H3274 0.950 1_565 S
C3286 C3285 1.398 . S
C3286 C3287 1.391 . S
C3287 H3275 0.950 . S
C3287 C3283 1.393 . S
C3287 C3286 1.391 . S
H3288 C3296 0.950 . S
H3289 C3301 0.950 . S
H3290 C3298 0.950 . S
H3291 C3300 0.950 . S
H3292 C3302 0.950 . S
H3293 C3304 0.950 . S
H3294 C3306 0.950 . S
H3295 C3307 0.950 . S
C3296 H3288 0.950 . S
C3296 C3297 1.386 . S
C3296 C3298 1.391 . S
C3297 C3296 1.386 . S
C3297 C3301 1.393 . S
C3298 H3290 0.950 . S
C3298 C3296 1.391 . S
C3298 C3299 1.400 . S
C3299 C3298 1.400 . S
C3299 C3300 1.398 . S
C3299 C3305 1.491 . S
C3300 H3291 0.950 . S
C3300 C3299 1.398 . S
C3300 C3301 1.391 . S
C3301 H3289 0.950 . S
C3301 C3297 1.393 . S
C3301 C3300 1.391 . S
C3302 H3292 0.950 . S
C3302 C3303 1.386 . S
C3302 C3304 1.391 . S
C3303 C3302 1.386 . S
C3303 C3307 1.393 . S
C3304 H3293 0.950 . S
C3304 C3302 1.391 . S
C3304 C3305 1.400 . S
C3305 C3299 1.491 . S
C3305 C3304 1.400 . S
C3305 C3306 1.398 . S
C3306 H3294 0.950 . S
C3306 C3305 1.398 . S
C3306 C3307 1.391 . S
C3307 H3295 0.950 . S
C3307 C3303 1.393 . S
C3307 C3306 1.391 . S
H3308 C3316 0.950 . S
H3309 C3321 0.950 . S
H3310 C3318 0.950 1_565 S
H3311 C3320 0.950 . S
H3312 C3322 0.950 . S
H3313 C3324 0.950 1_545 S
H3314 C3326 0.950 . S
H3315 C3327 0.950 . S
C3316 H3308 0.950 . S
C3316 C3317 1.386 . S
C3316 C3318 1.391 . S
C3317 C3316 1.386 . S
C3317 C3321 1.393 . S
C3318 H3310 0.950 1_545 S
C3318 C3316 1.391 . S
C3318 C3319 1.400 . S
C3319 C3318 1.400 . S
C3319 C3320 1.398 . S
C3319 C3325 1.491 1_545 S
C3320 H3311 0.950 . S
C3320 C3319 1.398 . S
C3320 C3321 1.391 . S
C3321 H3309 0.950 . S
C3321 C3317 1.393 . S
C3321 C3320 1.391 . S
C3322 H3312 0.950 . S
C3322 C3323 1.386 . S
C3322 C3324 1.391 . S
C3323 C3322 1.386 . S
C3323 C3327 1.393 . S
C3324 H3313 0.950 1_565 S
C3324 C3322 1.391 . S
C3324 C3325 1.400 . S
C3325 C3319 1.491 1_565 S
C3325 C3324 1.400 . S
C3325 C3326 1.398 . S
C3326 H3314 0.950 . S
C3326 C3325 1.398 . S
C3326 C3327 1.391 . S
C3327 H3315 0.950 . S
C3327 C3323 1.393 . S
C3327 C3326 1.391 . S
H3328 C3336 0.950 . S
H3329 C3341 0.950 1_556 S
H3330 C3338 0.950 1_455 S
H3331 C3340 0.950 1_556 S
H3332 C3342 0.950 1_556 S
H3333 C3344 0.950 1_656 S
H3334 C3346 0.950 . S
H3335 C3347 0.950 . S
C3336 H3328 0.950 . S
C3336 C3337 1.386 . S
C3336 C3338 1.391 . S
C3337 C3336 1.386 . S
C3337 C3341 1.393 . S
C3338 H3330 0.950 1_655 S
C3338 C3336 1.391 . S
C3338 C3339 1.400 . S
C3339 C3338 1.400 . S
C3339 C3340 1.398 . S
C3339 C3345 1.491 1_655 S
C3340 H3331 0.950 1_554 S
C3340 C3339 1.398 . S
C3340 C3341 1.391 . S
C3341 H3329 0.950 1_554 S
C3341 C3337 1.393 . S
C3341 C3340 1.391 . S
C3342 H3332 0.950 1_554 S
C3342 C3343 1.386 . S
C3342 C3344 1.391 . S
C3343 C3342 1.386 . S
C3343 C3347 1.393 . S
C3344 H3333 0.950 1_454 S
C3344 C3342 1.391 . S
C3344 C3345 1.400 . S
C3345 C3339 1.491 1_455 S
C3345 C3344 1.400 . S
C3345 C3346 1.398 . S
C3346 H3334 0.950 . S
C3346 C3345 1.398 . S
C3346 C3347 1.391 . S
C3347 H3335 0.950 . S
C3347 C3343 1.393 . S
C3347 C3346 1.391 . S
H3348 C3356 0.950 . S
H3349 C3361 0.950 . S
H3350 C3358 0.950 . S
H3351 C3360 0.950 . S
H3352 C3362 0.950 . S
H3353 C3364 0.950 . S
H3354 C3366 0.950 . S
H3355 C3367 0.950 . S
C3356 H3348 0.950 . S
C3356 C3357 1.386 . S
C3356 C3358 1.391 . S
C3357 C3356 1.386 . S
C3357 C3361 1.393 . S
C3358 H3350 0.950 . S
C3358 C3356 1.391 . S
C3358 C3359 1.400 . S
C3359 C3358 1.400 . S
C3359 C3360 1.398 . S
C3359 C3365 1.491 . S
C3360 H3351 0.950 . S
C3360 C3359 1.398 . S
C3360 C3361 1.391 . S
C3361 H3349 0.950 . S
C3361 C3357 1.393 . S
C3361 C3360 1.391 . S
C3362 H3352 0.950 . S
C3362 C3363 1.386 . S
C3362 C3364 1.391 . S
C3363 C3362 1.386 . S
C3363 C3367 1.393 . S
C3364 H3353 0.950 . S
C3364 C3362 1.391 . S
C3364 C3365 1.400 . S
C3365 C3359 1.491 . S
C3365 C3364 1.400 . S
C3365 C3366 1.398 . S
C3366 H3354 0.950 . S
C3366 C3365 1.398 . S
C3366 C3367 1.391 . S
C3367 H3355 0.950 . S
C3367 C3363 1.393 . S
C3367 C3366 1.391 . S
H3368 C3376 0.950 . S
H3369 C3381 0.950 . S
H3370 C3378 0.950 . S
H3371 C3380 0.950 1_455 S
H3372 C3382 0.950 . S
H3373 C3384 0.950 . S
H3374 C3386 0.950 1_655 S
H3375 C3387 0.950 . S
C3376 H3368 0.950 . S
C3376 C3377 1.386 . S
C3376 C3378 1.391 . S
C3377 C3376 1.386 . S
C3377 C3381 1.393 . S
C3378 H3370 0.950 . S
C3378 C3376 1.391 . S
C3378 C3379 1.400 . S
C3379 C3378 1.400 . S
C3379 C3380 1.398 . S
C3379 C3385 1.491 1_655 S
C3380 H3371 0.950 1_655 S
C3380 C3379 1.398 . S
C3380 C3381 1.391 . S
C3381 H3369 0.950 . S
C3381 C3377 1.393 . S
C3381 C3380 1.391 . S
C3382 H3372 0.950 . S
C3382 C3383 1.386 . S
C3382 C3384 1.391 . S
C3383 C3382 1.386 . S
C3383 C3387 1.393 . S
C3384 H3373 0.950 . S
C3384 C3382 1.391 . S
C3384 C3385 1.400 . S
C3385 C3379 1.491 1_455 S
C3385 C3384 1.400 . S
C3385 C3386 1.398 . S
C3386 H3374 0.950 1_455 S
C3386 C3385 1.398 . S
C3386 C3387 1.391 . S
C3387 H3375 0.950 . S
C3387 C3383 1.393 . S
C3387 C3386 1.391 . S
H3388 C3396 0.950 . S
H3389 C3401 0.950 . S
H3390 C3398 0.950 . S
H3391 C3400 0.950 1_655 S
H3392 C3402 0.950 . S
H3393 C3404 0.950 . S
H3394 C3406 0.950 1_455 S
H3395 C3407 0.950 . S
C3396 H3388 0.950 . S
C3396 C3397 1.386 . S
C3396 C3398 1.391 . S
C3397 C3396 1.386 . S
C3397 C3401 1.393 . S
C3398 H3390 0.950 . S
C3398 C3396 1.391 . S
C3398 C3399 1.400 . S
C3399 C3398 1.400 . S
C3399 C3400 1.398 . S
C3399 C3405 1.491 1_455 S
C3400 H3391 0.950 1_455 S
C3400 C3399 1.398 . S
C3400 C3401 1.391 . S
C3401 H3389 0.950 . S
C3401 C3397 1.393 . S
C3401 C3400 1.391 . S
C3402 H3392 0.950 . S
C3402 C3403 1.386 . S
C3402 C3404 1.391 . S
C3403 C3402 1.386 . S
C3403 C3407 1.393 . S
C3404 H3393 0.950 . S
C3404 C3402 1.391 . S
C3404 C3405 1.400 . S
C3405 C3399 1.491 1_655 S
C3405 C3404 1.400 . S
C3405 C3406 1.398 . S
C3406 H3394 0.950 1_655 S
C3406 C3405 1.398 . S
C3406 C3407 1.391 . S
C3407 H3395 0.950 . S
C3407 C3403 1.393 . S
C3407 C3406 1.391 . S
H3408 C3416 0.950 . S
H3409 C3421 0.950 . S
H3410 C3418 0.950 . S
H3411 C3420 0.950 . S
H3412 C3422 0.950 . S
H3413 C3424 0.950 . S
H3414 C3426 0.950 . S
H3415 C3427 0.950 . S
C3416 H3408 0.950 . S
C3416 C3417 1.386 . S
C3416 C3418 1.391 . S
C3417 C3416 1.386 . S
C3417 C3421 1.393 . S
C3418 H3410 0.950 . S
C3418 C3416 1.391 . S
C3418 C3419 1.400 . S
C3419 C3418 1.400 . S
C3419 C3420 1.398 . S
C3419 C3425 1.491 . S
C3420 H3411 0.950 . S
C3420 C3419 1.398 . S
C3420 C3421 1.391 . S
C3421 H3409 0.950 . S
C3421 C3417 1.393 . S
C3421 C3420 1.391 . S
C3422 H3412 0.950 . S
C3422 C3423 1.386 . S
C3422 C3424 1.391 . S
C3423 C3422 1.386 . S
C3423 C3427 1.393 . S
C3424 H3413 0.950 . S
C3424 C3422 1.391 . S
C3424 C3425 1.400 . S
C3425 C3419 1.491 . S
C3425 C3424 1.400 . S
C3425 C3426 1.398 . S
C3426 H3414 0.950 . S
C3426 C3425 1.398 . S
C3426 C3427 1.391 . S
C3427 H3415 0.950 . S
C3427 C3423 1.393 . S
C3427 C3426 1.391 . S
H3428 C3436 0.950 . S
H3429 C3441 0.950 . S
H3430 C3438 0.950 . S
H3431 C3440 0.950 1_655 S
H3432 C3442 0.950 . S
H3433 C3444 0.950 . S
H3434 C3446 0.950 1_455 S
H3435 C3447 0.950 . S
C3436 H3428 0.950 . S
C3436 C3437 1.386 . S
C3436 C3438 1.391 . S
C3437 C3436 1.386 . S
C3437 C3441 1.393 . S
C3438 H3430 0.950 . S
C3438 C3436 1.391 . S
C3438 C3439 1.400 . S
C3439 C3438 1.400 . S
C3439 C3440 1.398 . S
C3439 C3445 1.491 1_455 S
C3440 H3431 0.950 1_455 S
C3440 C3439 1.398 . S
C3440 C3441 1.391 . S
C3441 H3429 0.950 . S
C3441 C3437 1.393 . S
C3441 C3440 1.391 . S
C3442 H3432 0.950 . S
C3442 C3443 1.386 . S
C3442 C3444 1.391 . S
C3443 C3442 1.386 . S
C3443 C3447 1.393 . S
C3444 H3433 0.950 . S
C3444 C3442 1.391 . S
C3444 C3445 1.400 . S
C3445 C3439 1.491 1_655 S
C3445 C3444 1.400 . S
C3445 C3446 1.398 . S
C3446 H3434 0.950 1_655 S
C3446 C3445 1.398 . S
C3446 C3447 1.391 . S
C3447 H3435 0.950 . S
C3447 C3443 1.393 . S
C3447 C3446 1.391 . S
H3448 C3456 0.950 . S
H3449 C3461 0.950 . S
H3450 C3458 0.950 . S
H3451 C3460 0.950 . S
H3452 C3462 0.950 . S
H3453 C3464 0.950 . S
H3454 C3466 0.950 . S
H3455 C3467 0.950 . S
C3456 H3448 0.950 . S
C3456 C3457 1.386 . S
C3456 C3458 1.391 . S
C3457 C3456 1.386 . S
C3457 C3461 1.393 . S
C3458 H3450 0.950 . S
C3458 C3456 1.391 . S
C3458 C3459 1.400 . S
C3459 C3458 1.400 . S
C3459 C3460 1.398 . S
C3459 C3465 1.491 . S
C3460 H3451 0.950 . S
C3460 C3459 1.398 . S
C3460 C3461 1.391 . S
C3461 H3449 0.950 . S
C3461 C3457 1.393 . S
C3461 C3460 1.391 . S
C3462 H3452 0.950 . S
C3462 C3463 1.386 . S
C3462 C3464 1.391 . S
C3463 C3462 1.386 . S
C3463 C3467 1.393 . S
C3464 H3453 0.950 . S
C3464 C3462 1.391 . S
C3464 C3465 1.400 . S
C3465 C3459 1.491 . S
C3465 C3464 1.400 . S
C3465 C3466 1.398 . S
C3466 H3454 0.950 . S
C3466 C3465 1.398 . S
C3466 C3467 1.391 . S
C3467 H3455 0.950 . S
C3467 C3463 1.393 . S
C3467 C3466 1.391 . S
H3468 C3476 0.950 . S
H3469 C3481 0.950 . S
H3470 C3478 0.950 . S
H3471 C3480 0.950 1_545 S
H3472 C3482 0.950 . S
H3473 C3484 0.950 . S
H3474 C3486 0.950 1_565 S
H3475 C3487 0.950 . S
C3476 H3468 0.950 . S
C3476 C3477 1.386 . S
C3476 C3478 1.391 . S
C3477 C3476 1.386 . S
C3477 C3481 1.393 . S
C3478 H3470 0.950 . S
C3478 C3476 1.391 . S
C3478 C3479 1.400 . S
C3479 C3478 1.400 . S
C3479 C3480 1.398 . S
C3479 C3485 1.491 1_565 S
C3480 H3471 0.950 1_565 S
C3480 C3479 1.398 . S
C3480 C3481 1.391 . S
C3481 H3469 0.950 . S
C3481 C3477 1.393 . S
C3481 C3480 1.391 . S
C3482 H3472 0.950 . S
C3482 C3483 1.386 . S
C3482 C3484 1.391 . S
C3483 C3482 1.386 . S
C3483 C3487 1.393 . S
C3484 H3473 0.950 . S
C3484 C3482 1.391 . S
C3484 C3485 1.400 . S
C3485 C3479 1.491 1_545 S
C3485 C3484 1.400 . S
C3485 C3486 1.398 . S
C3486 H3474 0.950 1_545 S
C3486 C3485 1.398 . S
C3486 C3487 1.391 . S
C3487 H3475 0.950 . S
C3487 C3483 1.393 . S
C3487 C3486 1.391 . S
H3488 C3496 0.950 . S
H3489 C3501 0.950 . S
H3490 C3498 0.950 . S
H3491 C3500 0.950 . S
H3492 C3502 0.950 . S
H3493 C3504 0.950 . S
H3494 C3506 0.950 . S
H3495 C3507 0.950 . S
C3496 H3488 0.950 . S
C3496 C3497 1.386 . S
C3496 C3498 1.391 . S
C3497 C3496 1.386 . S
C3497 C3501 1.393 . S
C3498 H3490 0.950 . S
C3498 C3496 1.391 . S
C3498 C3499 1.400 . S
C3499 C3498 1.400 . S
C3499 C3500 1.398 . S
C3499 C3505 1.491 . S
C3500 H3491 0.950 . S
C3500 C3499 1.398 . S
C3500 C3501 1.391 . S
C3501 H3489 0.950 . S
C3501 C3497 1.393 . S
C3501 C3500 1.391 . S
C3502 H3492 0.950 . S
C3502 C3503 1.386 . S
C3502 C3504 1.391 . S
C3503 C3502 1.386 . S
C3503 C3507 1.393 . S
C3504 H3493 0.950 . S
C3504 C3502 1.391 . S
C3504 C3505 1.400 . S
C3505 C3499 1.491 . S
C3505 C3504 1.400 . S
C3505 C3506 1.398 . S
C3506 H3494 0.950 . S
C3506 C3505 1.398 . S
C3506 C3507 1.391 . S
C3507 H3495 0.950 . S
C3507 C3503 1.393 . S
C3507 C3506 1.391 . S
H3508 C3516 0.950 . S
H3509 C3521 0.950 . S
H3510 C3518 0.950 . S
H3511 C3520 0.950 . S
H3512 C3522 0.950 . S
H3513 C3524 0.950 . S
H3514 C3526 0.950 . S
H3515 C3527 0.950 . S
C3516 H3508 0.950 . S
C3516 C3517 1.386 . S
C3516 C3518 1.391 . S
C3517 C3516 1.386 . S
C3517 C3521 1.393 . S
C3518 H3510 0.950 . S
C3518 C3516 1.391 . S
C3518 C3519 1.400 . S
C3519 C3518 1.400 . S
C3519 C3520 1.398 . S
C3519 C3525 1.491 1_565 S
C3520 H3511 0.950 . S
C3520 C3519 1.398 . S
C3520 C3521 1.391 . S
C3521 H3509 0.950 . S
C3521 C3517 1.393 . S
C3521 C3520 1.391 . S
C3522 H3512 0.950 . S
C3522 C3523 1.386 . S
C3522 C3524 1.391 . S
C3523 C3522 1.386 . S
C3523 C3527 1.393 . S
C3524 H3513 0.950 . S
C3524 C3522 1.391 . S
C3524 C3525 1.400 . S
C3525 C3519 1.491 1_545 S
C3525 C3524 1.400 . S
C3525 C3526 1.398 . S
C3526 H3514 0.950 . S
C3526 C3525 1.398 . S
C3526 C3527 1.391 . S
C3527 H3515 0.950 . S
C3527 C3523 1.393 . S
C3527 C3526 1.391 . S
H3528 C3536 0.950 . S
H3529 C3541 0.950 . S
H3530 C3538 0.950 1_556 S
H3531 C3540 0.950 . S
H3532 C3542 0.950 . S
H3533 C3544 0.950 1_554 S
H3534 C3546 0.950 . S
H3535 C3547 0.950 . S
C3536 H3528 0.950 . S
C3536 C3537 1.386 . S
C3536 C3538 1.391 . S
C3537 C3536 1.386 . S
C3537 C3541 1.393 . S
C3538 H3530 0.950 1_554 S
C3538 C3536 1.391 . S
C3538 C3539 1.400 . S
C3539 C3538 1.400 . S
C3539 C3540 1.398 . S
C3539 C3545 1.491 1_554 S
C3540 H3531 0.950 . S
C3540 C3539 1.398 . S
C3540 C3541 1.391 . S
C3541 H3529 0.950 . S
C3541 C3537 1.393 . S
C3541 C3540 1.391 . S
C3542 H3532 0.950 . S
C3542 C3543 1.386 . S
C3542 C3544 1.391 . S
C3543 C3542 1.386 . S
C3543 C3547 1.393 . S
C3544 H3533 0.950 1_556 S
C3544 C3542 1.391 . S
C3544 C3545 1.400 . S
C3545 C3539 1.491 1_556 S
C3545 C3544 1.400 . S
C3545 C3546 1.398 . S
C3546 H3534 0.950 . S
C3546 C3545 1.398 . S
C3546 C3547 1.391 . S
C3547 H3535 0.950 . S
C3547 C3543 1.393 . S
C3547 C3546 1.391 . S
H3548 C3556 0.950 . S
H3549 C3561 0.950 . S
H3550 C3558 0.950 1_554 S
H3551 C3560 0.950 . S
H3552 C3562 0.950 . S
H3553 C3564 0.950 1_556 S
H3554 C3566 0.950 . S
H3555 C3567 0.950 . S
C3556 H3548 0.950 . S
C3556 C3557 1.386 . S
C3556 C3558 1.391 . S
C3557 C3556 1.386 . S
C3557 C3561 1.393 . S
C3558 H3550 0.950 1_556 S
C3558 C3556 1.391 . S
C3558 C3559 1.400 . S
C3559 C3558 1.400 . S
C3559 C3560 1.398 . S
C3559 C3565 1.491 1_556 S
C3560 H3551 0.950 . S
C3560 C3559 1.398 . S
C3560 C3561 1.391 . S
C3561 H3549 0.950 . S
C3561 C3557 1.393 . S
C3561 C3560 1.391 . S
C3562 H3552 0.950 . S
C3562 C3563 1.386 . S
C3562 C3564 1.391 . S
C3563 C3562 1.386 . S
C3563 C3567 1.393 . S
C3564 H3553 0.950 1_554 S
C3564 C3562 1.391 . S
C3564 C3565 1.400 . S
C3565 C3559 1.491 1_554 S
C3565 C3564 1.400 . S
C3565 C3566 1.398 . S
C3566 H3554 0.950 . S
C3566 C3565 1.398 . S
C3566 C3567 1.391 . S
C3567 H3555 0.950 . S
C3567 C3563 1.393 . S
C3567 C3566 1.391 . S
H3568 C3576 0.950 . S
H3569 C3581 0.950 . S
H3570 C3578 0.950 . S
H3571 C3580 0.950 1_565 S
H3572 C3582 0.950 . S
H3573 C3584 0.950 . S
H3574 C3586 0.950 1_545 S
H3575 C3587 0.950 . S
C3576 H3568 0.950 . S
C3576 C3577 1.386 . S
C3576 C3578 1.391 . S
C3577 C3576 1.386 . S
C3577 C3581 1.393 . S
C3578 H3570 0.950 . S
C3578 C3576 1.391 . S
C3578 C3579 1.400 . S
C3579 C3578 1.400 . S
C3579 C3580 1.398 . S
C3579 C3585 1.491 1_545 S
C3580 H3571 0.950 1_545 S
C3580 C3579 1.398 . S
C3580 C3581 1.391 . S
C3581 H3569 0.950 . S
C3581 C3577 1.393 . S
C3581 C3580 1.391 . S
C3582 H3572 0.950 . S
C3582 C3583 1.386 . S
C3582 C3584 1.391 . S
C3583 C3582 1.386 . S
C3583 C3587 1.393 . S
C3584 H3573 0.950 . S
C3584 C3582 1.391 . S
C3584 C3585 1.400 . S
C3585 C3579 1.491 1_565 S
C3585 C3584 1.400 . S
C3585 C3586 1.398 . S
C3586 H3574 0.950 1_565 S
C3586 C3585 1.398 . S
C3586 C3587 1.391 . S
C3587 H3575 0.950 . S
C3587 C3583 1.393 . S
C3587 C3586 1.391 . S
H3588 C3596 1.002 . S
H3589 C3601 0.950 . S
H3590 C3598 1.001 . S
H3591 C3600 0.950 . S
H3592 C3602 0.950 . S
H3593 C3604 0.950 . S
H3594 C3606 0.987 . S
H3595 C3607 0.996 . S
C3596 H3588 1.002 . S
C3596 C3597 1.335 1_565 S
C3596 C3598 1.391 . S
C3597 C3596 1.335 1_545 S
C3597 C3601 1.393 . S
C3598 H3590 1.001 . S
C3598 C3596 1.391 . S
C3598 C3599 1.351 1_565 S
C3599 C3598 1.351 1_545 S
C3599 C3600 1.398 . S
C3599 C3605 1.491 . S
C3600 H3591 0.950 . S
C3600 C3599 1.398 . S
C3600 C3601 1.391 . S
C3601 H3589 0.950 . S
C3601 C3597 1.393 . S
C3601 C3600 1.391 . S
C3602 H3592 0.950 . S
C3602 C3603 1.386 . S
C3602 C3604 1.391 . S
C3603 C3602 1.386 . S
C3603 C3607 1.347 1_545 S
C3604 H3593 0.950 . S
C3604 C3602 1.391 . S
C3604 C3605 1.400 . S
C3605 C3599 1.491 . S
C3605 C3604 1.400 . S
C3605 C3606 1.362 1_545 S
C3606 H3594 0.987 . S
C3606 C3605 1.362 1_565 S
C3606 C3607 1.391 . S
C3607 H3595 0.996 . S
C3607 C3603 1.347 1_565 S
C3607 C3606 1.391 . S
H3608 C3616 0.950 . S
H3609 C3621 0.950 . S
H3610 C3618 0.950 1_545 S
H3611 C3620 0.950 . S
H3612 C3622 0.950 . S
H3613 C3624 0.950 1_565 S
H3614 C3626 0.950 . S
H3615 C3627 0.950 . S
C3616 H3608 0.950 . S
C3616 C3617 1.386 . S
C3616 C3618 1.391 . S
C3617 C3616 1.386 . S
C3617 C3621 1.393 . S
C3618 H3610 0.950 1_565 S
C3618 C3616 1.391 . S
C3618 C3619 1.400 . S
C3619 C3618 1.400 . S
C3619 C3620 1.398 . S
C3619 C3625 1.491 1_565 S
C3620 H3611 0.950 . S
C3620 C3619 1.398 . S
C3620 C3621 1.391 . S
C3621 H3609 0.950 . S
C3621 C3617 1.393 . S
C3621 C3620 1.391 . S
C3622 H3612 0.950 . S
C3622 C3623 1.386 . S
C3622 C3624 1.391 . S
C3623 C3622 1.386 . S
C3623 C3627 1.393 . S
C3624 H3613 0.950 1_545 S
C3624 C3622 1.391 . S
C3624 C3625 1.400 . S
C3625 C3619 1.491 1_545 S
C3625 C3624 1.400 . S
C3625 C3626 1.398 . S
C3626 H3614 0.950 . S
C3626 C3625 1.398 . S
C3626 C3627 1.391 . S
C3627 H3615 0.950 . S
C3627 C3623 1.393 . S
C3627 C3626 1.391 . S
H3628 C3636 0.937 1_554 S
H3629 C3641 0.950 . S
H3630 C3638 0.944 1_554 S
H3631 C3640 0.950 . S
H3632 C3642 0.950 . S
H3633 C3644 0.950 . S
H3634 C3646 0.970 . S
H3635 C3647 0.972 . S
C3636 H3628 0.937 1_556 S
C3636 C3637 1.398 . S
C3636 C3638 1.391 . S
C3637 C3636 1.398 . S
C3637 C3641 1.393 . S
C3638 H3630 0.944 1_556 S
C3638 C3636 1.391 . S
C3638 C3639 1.406 . S
C3639 C3638 1.406 . S
C3639 C3640 1.398 . S
C3639 C3645 1.491 1_455 S
C3640 H3631 0.950 . S
C3640 C3639 1.398 . S
C3640 C3641 1.391 . S
C3641 H3629 0.950 . S
C3641 C3637 1.393 . S
C3641 C3640 1.391 . S
C3642 H3632 0.950 . S
C3642 C3643 1.386 . S
C3642 C3644 1.391 . S
C3643 C3642 1.386 . S
C3643 C3647 1.371 1_556 S
C3644 H3633 0.950 . S
C3644 C3642 1.391 . S
C3644 C3645 1.400 . S
C3645 C3639 1.491 1_655 S
C3645 C3644 1.400 . S
C3645 C3646 1.379 1_556 S
C3646 H3634 0.970 . S
C3646 C3645 1.379 1_554 S
C3646 C3647 1.391 . S
C3647 H3635 0.972 . S
C3647 C3643 1.371 1_554 S
C3647 C3646 1.391 . S
H3648 C3656 0.950 . S
H3649 C3661 0.950 . S
H3650 C3658 0.950 . S
H3651 C3660 0.950 . S
H3652 C3662 0.968 . S
H3653 C3664 0.980 . S
H3654 C3666 0.950 . S
H3655 C3667 0.950 . S
C3656 H3648 0.950 . S
C3656 C3657 1.386 . S
C3656 C3658 1.391 . S
C3657 C3656 1.386 . S
C3657 C3661 1.393 . S
C3658 H3650 0.950 . S
C3658 C3656 1.391 . S
C3658 C3659 1.400 . S
C3659 C3658 1.400 . S
C3659 C3660 1.398 . S
C3659 C3665 1.491 . S
C3660 H3651 0.950 . S
C3660 C3659 1.398 . S
C3660 C3661 1.391 . S
C3661 H3649 0.950 . S
C3661 C3657 1.393 . S
C3661 C3660 1.391 . S
C3662 H3652 0.968 . S
C3662 C3663 1.386 . S
C3662 C3664 1.391 . S
C3663 C3662 1.386 . S
C3663 C3667 1.393 . S
C3664 H3653 0.980 . S
C3664 C3662 1.391 . S
C3664 C3665 1.400 . S
C3665 C3659 1.491 . S
C3665 C3664 1.400 . S
C3665 C3666 1.398 . S
C3666 H3654 0.950 . S
C3666 C3665 1.398 . S
C3666 C3667 1.391 . S
C3667 H3655 0.950 . S
C3667 C3663 1.393 . S
C3667 C3666 1.391 . S
H3668 C3676 0.950 . S
H3669 C3681 0.950 . S
H3670 C3678 0.950 . S
H3671 C3680 0.950 1_655 S
H3672 C3682 0.950 . S
H3673 C3684 0.950 . S
H3674 C3686 0.950 1_455 S
H3675 C3687 0.950 . S
C3676 H3668 0.950 . S
C3676 C3677 1.386 . S
C3676 C3678 1.391 . S
C3677 C3676 1.386 . S
C3677 C3681 1.393 . S
C3678 H3670 0.950 . S
C3678 C3676 1.391 . S
C3678 C3679 1.400 . S
C3679 C3678 1.400 . S
C3679 C3680 1.398 . S
C3679 C3685 1.491 1_455 S
C3680 H3671 0.950 1_455 S
C3680 C3679 1.398 . S
C3680 C3681 1.391 . S
C3681 H3669 0.950 . S
C3681 C3677 1.393 . S
C3681 C3680 1.391 . S
C3682 H3672 0.950 . S
C3682 C3683 1.386 . S
C3682 C3684 1.391 . S
C3683 C3682 1.386 . S
C3683 C3687 1.393 . S
C3684 H3673 0.950 . S
C3684 C3682 1.391 . S
C3684 C3685 1.400 . S
C3685 C3679 1.491 1_655 S
C3685 C3684 1.400 . S
C3685 C3686 1.398 . S
C3686 H3674 0.950 1_655 S
C3686 C3685 1.398 . S
C3686 C3687 1.391 . S
C3687 H3675 0.950 . S
C3687 C3683 1.393 . S
C3687 C3686 1.391 . S
H3688 C3696 0.950 . S
H3689 C3701 0.950 . S
H3690 C3698 0.950 . S
H3691 C3700 0.950 . S
H3692 C3702 0.950 . S
H3693 C3704 0.950 . S
H3694 C3706 0.950 . S
H3695 C3707 0.950 . S
C3696 H3688 0.950 . S
C3696 C3697 1.386 . S
C3696 C3698 1.391 . S
C3697 C3696 1.386 . S
C3697 C3701 1.393 . S
C3698 H3690 0.950 . S
C3698 C3696 1.391 . S
C3698 C3699 1.400 . S
C3699 C3698 1.400 . S
C3699 C3700 1.398 . S
C3699 C3705 1.491 1_455 S
C3700 H3691 0.950 . S
C3700 C3699 1.398 . S
C3700 C3701 1.391 . S
C3701 H3689 0.950 . S
C3701 C3697 1.393 . S
C3701 C3700 1.391 . S
C3702 H3692 0.950 . S
C3702 C3703 1.386 . S
C3702 C3704 1.391 . S
C3703 C3702 1.386 . S
C3703 C3707 1.393 . S
C3704 H3693 0.950 . S
C3704 C3702 1.391 . S
C3704 C3705 1.400 . S
C3705 C3699 1.491 1_655 S
C3705 C3704 1.400 . S
C3705 C3706 1.398 . S
C3706 H3694 0.950 . S
C3706 C3705 1.398 . S
C3706 C3707 1.391 . S
C3707 H3695 0.950 . S
C3707 C3703 1.393 . S
C3707 C3706 1.391 . S
H3708 C3716 0.950 . S
H3709 C3721 0.950 . S
H3710 C3718 0.950 . S
H3711 C3720 0.950 . S
H3712 C3722 0.950 . S
H3713 C3724 0.950 . S
H3714 C3726 0.950 . S
H3715 C3727 0.950 . S
C3716 H3708 0.950 . S
C3716 C3717 1.386 . S
C3716 C3718 1.391 . S
C3717 C3716 1.386 . S
C3717 C3721 1.393 . S
C3718 H3710 0.950 . S
C3718 C3716 1.391 . S
C3718 C3719 1.400 . S
C3719 C3718 1.400 . S
C3719 C3720 1.398 . S
C3719 C3725 1.491 . S
C3720 H3711 0.950 . S
C3720 C3719 1.398 . S
C3720 C3721 1.391 . S
C3721 H3709 0.950 . S
C3721 C3717 1.393 . S
C3721 C3720 1.391 . S
C3722 H3712 0.950 . S
C3722 C3723 1.386 . S
C3722 C3724 1.391 . S
C3723 C3722 1.386 . S
C3723 C3727 1.393 . S
C3724 H3713 0.950 . S
C3724 C3722 1.391 . S
C3724 C3725 1.400 . S
C3725 C3719 1.491 . S
C3725 C3724 1.400 . S
C3725 C3726 1.398 . S
C3726 H3714 0.950 . S
C3726 C3725 1.398 . S
C3726 C3727 1.391 . S
C3727 H3715 0.950 . S
C3727 C3723 1.393 . S
C3727 C3726 1.391 . S
H3728 C3736 0.950 . S
H3729 C3741 0.950 . S
H3730 C3738 0.950 1_655 S
H3731 C3740 0.950 . S
H3732 C3742 0.950 . S
H3733 C3744 0.950 1_455 S
H3734 C3746 0.950 . S
H3735 C3747 0.950 . S
C3736 H3728 0.950 . S
C3736 C3737 1.386 . S
C3736 C3738 1.391 . S
C3737 C3736 1.386 . S
C3737 C3741 1.393 . S
C3738 H3730 0.950 1_455 S
C3738 C3736 1.391 . S
C3738 C3739 1.400 . S
C3739 C3738 1.400 . S
C3739 C3740 1.398 . S
C3739 C3745 1.491 1_455 S
C3740 H3731 0.950 . S
C3740 C3739 1.398 . S
C3740 C3741 1.391 . S
C3741 H3729 0.950 . S
C3741 C3737 1.393 . S
C3741 C3740 1.391 . S
C3742 H3732 0.950 . S
C3742 C3743 1.386 . S
C3742 C3744 1.391 . S
C3743 C3742 1.386 . S
C3743 C3747 1.393 . S
C3744 H3733 0.950 1_655 S
C3744 C3742 1.391 . S
C3744 C3745 1.400 . S
C3745 C3739 1.491 1_655 S
C3745 C3744 1.400 . S
C3745 C3746 1.398 . S
C3746 H3734 0.950 . S
C3746 C3745 1.398 . S
C3746 C3747 1.391 . S
C3747 H3735 0.950 . S
C3747 C3743 1.393 . S
C3747 C3746 1.391 . S
H3748 C3756 0.950 . S
H3749 C3761 0.950 . S
H3750 C3758 0.950 . S
H3751 C3760 0.950 . S
H3752 C3762 0.950 . S
H3753 C3764 0.950 . S
H3754 C3766 0.950 . S
H3755 C3767 0.950 . S
C3756 H3748 0.950 . S
C3756 C3757 1.386 . S
C3756 C3758 1.391 . S
C3757 C3756 1.386 . S
C3757 C3761 1.393 . S
C3758 H3750 0.950 . S
C3758 C3756 1.391 . S
C3758 C3759 1.400 . S
C3759 C3758 1.400 . S
C3759 C3760 1.398 . S
C3759 C3765 1.491 . S
C3760 H3751 0.950 . S
C3760 C3759 1.398 . S
C3760 C3761 1.391 . S
C3761 H3749 0.950 . S
C3761 C3757 1.393 . S
C3761 C3760 1.391 . S
C3762 H3752 0.950 . S
C3762 C3763 1.386 . S
C3762 C3764 1.391 . S
C3763 C3762 1.386 . S
C3763 C3767 1.393 . S
C3764 H3753 0.950 . S
C3764 C3762 1.391 . S
C3764 C3765 1.400 . S
C3765 C3759 1.491 . S
C3765 C3764 1.400 . S
C3765 C3766 1.398 . S
C3766 H3754 0.950 . S
C3766 C3765 1.398 . S
C3766 C3767 1.391 . S
C3767 H3755 0.950 . S
C3767 C3763 1.393 . S
C3767 C3766 1.391 . S
H3768 C3776 0.950 . S
H3769 C3781 0.950 . S
H3770 C3778 0.950 . S
H3771 C3780 0.950 . S
H3772 C3782 0.950 . S
H3773 C3784 0.950 . S
H3774 C3786 0.950 . S
H3775 C3787 0.950 . S
C3776 H3768 0.950 . S
C3776 C3777 1.386 . S
C3776 C3778 1.391 . S
C3777 C3776 1.386 . S
C3777 C3781 1.393 . S
C3778 H3770 0.950 . S
C3778 C3776 1.391 . S
C3778 C3779 1.400 . S
C3779 C3778 1.400 . S
C3779 C3780 1.398 . S
C3779 C3785 1.491 . S
C3780 H3771 0.950 . S
C3780 C3779 1.398 . S
C3780 C3781 1.391 . S
C3781 H3769 0.950 . S
C3781 C3777 1.393 . S
C3781 C3780 1.391 . S
C3782 H3772 0.950 . S
C3782 C3783 1.386 . S
C3782 C3784 1.391 . S
C3783 C3782 1.386 . S
C3783 C3787 1.393 . S
C3784 H3773 0.950 . S
C3784 C3782 1.391 . S
C3784 C3785 1.400 . S
C3785 C3779 1.491 . S
C3785 C3784 1.400 . S
C3785 C3786 1.398 . S
C3786 H3774 0.950 . S
C3786 C3785 1.398 . S
C3786 C3787 1.391 . S
C3787 H3775 0.950 . S
C3787 C3783 1.393 . S
C3787 C3786 1.391 . S
H3788 C3796 0.950 . S
H3789 C3801 0.950 . S
H3790 C3798 0.950 . S
H3791 C3800 0.950 1_556 S
H3792 C3802 0.950 . S
H3793 C3804 0.950 . S
H3794 C3806 0.950 1_554 S
H3795 C3807 0.950 . S
C3796 H3788 0.950 . S
C3796 C3797 1.386 . S
C3796 C3798 1.391 . S
C3797 C3796 1.386 . S
C3797 C3801 1.393 . S
C3798 H3790 0.950 . S
C3798 C3796 1.391 . S
C3798 C3799 1.400 . S
C3799 C3798 1.400 . S
C3799 C3800 1.398 . S
C3799 C3805 1.491 1_554 S
C3800 H3791 0.950 1_554 S
C3800 C3799 1.398 . S
C3800 C3801 1.391 . S
C3801 H3789 0.950 . S
C3801 C3797 1.393 . S
C3801 C3800 1.391 . S
C3802 H3792 0.950 . S
C3802 C3803 1.386 . S
C3802 C3804 1.391 . S
C3803 C3802 1.386 . S
C3803 C3807 1.393 . S
C3804 H3793 0.950 . S
C3804 C3802 1.391 . S
C3804 C3805 1.400 . S
C3805 C3799 1.491 1_556 S
C3805 C3804 1.400 . S
C3805 C3806 1.398 . S
C3806 H3794 0.950 1_556 S
C3806 C3805 1.398 . S
C3806 C3807 1.391 . S
C3807 H3795 0.950 . S
C3807 C3803 1.393 . S
C3807 C3806 1.391 . S
H3808 C3816 0.950 . S
H3809 C3821 0.950 . S
H3810 C3818 0.950 . S
H3811 C3820 0.950 . S
H3812 C3822 0.953 . S
H3813 C3824 0.965 . S
H3814 C3826 0.950 . S
H3815 C3827 0.950 . S
C3816 H3808 0.950 . S
C3816 C3817 1.386 . S
C3816 C3818 1.391 . S
C3817 C3816 1.386 . S
C3817 C3821 1.393 . S
C3818 H3810 0.950 . S
C3818 C3816 1.391 . S
C3818 C3819 1.400 . S
C3819 C3818 1.400 . S
C3819 C3820 1.398 . S
C3819 C3825 1.491 . S
C3820 H3811 0.950 . S
C3820 C3819 1.398 . S
C3820 C3821 1.391 . S
C3821 H3809 0.950 . S
C3821 C3817 1.393 . S
C3821 C3820 1.391 . S
C3822 H3812 0.953 . S
C3822 C3823 1.386 . S
C3822 C3824 1.391 . S
C3823 C3822 1.386 . S
C3823 C3827 1.393 . S
C3824 H3813 0.965 . S
C3824 C3822 1.391 . S
C3824 C3825 1.400 . S
C3825 C3819 1.491 . S
C3825 C3824 1.400 . S
C3825 C3826 1.398 . S
C3826 H3814 0.950 . S
C3826 C3825 1.398 . S
C3826 C3827 1.391 . S
C3827 H3815 0.950 . S
C3827 C3823 1.393 . S
C3827 C3826 1.391 . S
H3828 C3836 0.950 . S
H3829 C3841 0.950 . S
H3830 C3838 0.950 . S
H3831 C3840 0.950 . S
H3832 C3842 0.950 . S
H3833 C3844 0.950 . S
H3834 C3846 0.950 . S
H3835 C3847 0.950 . S
C3836 H3828 0.950 . S
C3836 C3837 1.386 . S
C3836 C3838 1.391 . S
C3837 C3836 1.386 . S
C3837 C3841 1.393 . S
C3838 H3830 0.950 . S
C3838 C3836 1.391 . S
C3838 C3839 1.400 . S
C3839 C3838 1.400 . S
C3839 C3840 1.398 . S
C3839 C3845 1.491 . S
C3840 H3831 0.950 . S
C3840 C3839 1.398 . S
C3840 C3841 1.391 . S
C3841 H3829 0.950 . S
C3841 C3837 1.393 . S
C3841 C3840 1.391 . S
C3842 H3832 0.950 . S
C3842 C3843 1.386 . S
C3842 C3844 1.391 . S
C3843 C3842 1.386 . S
C3843 C3847 1.393 . S
C3844 H3833 0.950 . S
C3844 C3842 1.391 . S
C3844 C3845 1.400 . S
C3845 C3839 1.491 . S
C3845 C3844 1.400 . S
C3845 C3846 1.398 . S
C3846 H3834 0.950 . S
C3846 C3845 1.398 . S
C3846 C3847 1.391 . S
C3847 H3835 0.950 . S
C3847 C3843 1.393 . S
C3847 C3846 1.391 . S
H3848 C3856 0.950 . S
H3849 C3861 0.950 . S
H3850 C3858 0.950 . S
H3851 C3860 0.950 . S
H3852 C3862 0.950 . S
H3853 C3864 0.950 . S
H3854 C3866 0.950 . S
H3855 C3867 0.950 . S
C3856 H3848 0.950 . S
C3856 C3857 1.386 . S
C3856 C3858 1.391 . S
C3857 C3856 1.386 . S
C3857 C3861 1.393 . S
C3858 H3850 0.950 . S
C3858 C3856 1.391 . S
C3858 C3859 1.400 . S
C3859 C3858 1.400 . S
C3859 C3860 1.398 . S
C3859 C3865 1.491 . S
C3860 H3851 0.950 . S
C3860 C3859 1.398 . S
C3860 C3861 1.391 . S
C3861 H3849 0.950 . S
C3861 C3857 1.393 . S
C3861 C3860 1.391 . S
C3862 H3852 0.950 . S
C3862 C3863 1.386 . S
C3862 C3864 1.391 . S
C3863 C3862 1.386 . S
C3863 C3867 1.393 . S
C3864 H3853 0.950 . S
C3864 C3862 1.391 . S
C3864 C3865 1.400 . S
C3865 C3859 1.491 . S
C3865 C3864 1.400 . S
C3865 C3866 1.398 . S
C3866 H3854 0.950 . S
C3866 C3865 1.398 . S
C3866 C3867 1.391 . S
C3867 H3855 0.950 . S
C3867 C3863 1.393 . S
C3867 C3866 1.391 . S
H3868 C3876 0.950 . S
H3869 C3881 0.950 . S
H3870 C3878 0.950 . S
H3871 C3880 0.950 . S
H3872 C3882 0.950 . S
H3873 C3884 0.950 . S
H3874 C3886 0.950 . S
H3875 C3887 0.950 . S
C3876 H3868 0.950 . S
C3876 C3877 1.386 . S
C3876 C3878 1.391 . S
C3877 C3876 1.386 . S
C3877 C3881 1.393 . S
C3878 H3870 0.950 . S
C3878 C3876 1.391 . S
C3878 C3879 1.400 . S
C3879 C3878 1.400 . S
C3879 C3880 1.398 . S
C3879 C3885 1.491 . S
C3880 H3871 0.950 . S
C3880 C3879 1.398 . S
C3880 C3881 1.391 . S
C3881 H3869 0.950 . S
C3881 C3877 1.393 . S
C3881 C3880 1.391 . S
C3882 H3872 0.950 . S
C3882 C3883 1.386 . S
C3882 C3884 1.391 . S
C3883 C3882 1.386 . S
C3883 C3887 1.393 . S
C3884 H3873 0.950 . S
C3884 C3882 1.391 . S
C3884 C3885 1.400 . S
C3885 C3879 1.491 . S
C3885 C3884 1.400 . S
C3885 C3886 1.398 . S
C3886 H3874 0.950 . S
C3886 C3885 1.398 . S
C3886 C3887 1.391 . S
C3887 H3875 0.950 . S
C3887 C3883 1.393 . S
C3887 C3886 1.391 . S
H3888 C3896 0.950 . S
H3889 C3901 0.950 . S
H3890 C3898 0.950 . S
H3891 C3900 0.950 . S
H3892 C3902 0.950 . S
H3893 C3904 0.950 . S
H3894 C3906 0.950 . S
H3895 C3907 0.950 . S
C3896 H3888 0.950 . S
C3896 C3897 1.386 . S
C3896 C3898 1.391 . S
C3897 C3896 1.386 . S
C3897 C3901 1.393 . S
C3898 H3890 0.950 . S
C3898 C3896 1.391 . S
C3898 C3899 1.400 . S
C3899 C3898 1.400 . S
C3899 C3900 1.398 . S
C3899 C3905 1.491 1_554 S
C3900 H3891 0.950 . S
C3900 C3899 1.398 . S
C3900 C3901 1.391 . S
C3901 H3889 0.950 . S
C3901 C3897 1.393 . S
C3901 C3900 1.391 . S
C3902 H3892 0.950 . S
C3902 C3903 1.386 . S
C3902 C3904 1.391 . S
C3903 C3902 1.386 . S
C3903 C3907 1.393 . S
C3904 H3893 0.950 . S
C3904 C3902 1.391 . S
C3904 C3905 1.400 . S
C3905 C3899 1.491 1_556 S
C3905 C3904 1.400 . S
C3905 C3906 1.398 . S
C3906 H3894 0.950 . S
C3906 C3905 1.398 . S
C3906 C3907 1.391 . S
C3907 H3895 0.950 . S
C3907 C3903 1.393 . S
C3907 C3906 1.391 . S
H3908 C3916 0.950 . S
H3909 C3921 0.950 . S
H3910 C3918 0.950 . S
H3911 C3920 0.950 . S
H3912 C3922 0.950 . S
H3913 C3924 0.950 . S
H3914 C3926 0.950 . S
H3915 C3927 0.950 . S
C3916 H3908 0.950 . S
C3916 C3917 1.386 . S
C3916 C3918 1.391 . S
C3917 C3916 1.386 . S
C3917 C3921 1.393 . S
C3918 H3910 0.950 . S
C3918 C3916 1.391 . S
C3918 C3919 1.400 . S
C3919 C3918 1.400 . S
C3919 C3920 1.398 . S
C3919 C3925 1.491 . S
C3920 H3911 0.950 . S
C3920 C3919 1.398 . S
C3920 C3921 1.391 . S
C3921 H3909 0.950 . S
C3921 C3917 1.393 . S
C3921 C3920 1.391 . S
C3922 H3912 0.950 . S
C3922 C3923 1.386 . S
C3922 C3924 1.391 . S
C3923 C3922 1.386 . S
C3923 C3927 1.393 . S
C3924 H3913 0.950 . S
C3924 C3922 1.391 . S
C3924 C3925 1.400 . S
C3925 C3919 1.491 . S
C3925 C3924 1.400 . S
C3925 C3926 1.398 . S
C3926 H3914 0.950 . S
C3926 C3925 1.398 . S
C3926 C3927 1.391 . S
C3927 H3915 0.950 . S
C3927 C3923 1.393 . S
C3927 C3926 1.391 . S
H3928 C3936 0.950 . S
H3929 C3941 0.950 . S
H3930 C3938 0.950 . S
H3931 C3940 0.950 . S
H3932 C3942 0.950 . S
H3933 C3944 0.950 . S
H3934 C3946 0.950 . S
H3935 C3947 0.950 . S
C3936 H3928 0.950 . S
C3936 C3937 1.386 . S
C3936 C3938 1.391 . S
C3937 C3936 1.386 . S
C3937 C3941 1.393 . S
C3938 H3930 0.950 . S
C3938 C3936 1.391 . S
C3938 C3939 1.400 . S
C3939 C3938 1.400 . S
C3939 C3940 1.398 . S
C3939 C3945 1.491 . S
C3940 H3931 0.950 . S
C3940 C3939 1.398 . S
C3940 C3941 1.391 . S
C3941 H3929 0.950 . S
C3941 C3937 1.393 . S
C3941 C3940 1.391 . S
C3942 H3932 0.950 . S
C3942 C3943 1.386 . S
C3942 C3944 1.391 . S
C3943 C3942 1.386 . S
C3943 C3947 1.393 . S
C3944 H3933 0.950 . S
C3944 C3942 1.391 . S
C3944 C3945 1.400 . S
C3945 C3939 1.491 . S
C3945 C3944 1.400 . S
C3945 C3946 1.398 . S
C3946 H3934 0.950 . S
C3946 C3945 1.398 . S
C3946 C3947 1.391 . S
C3947 H3935 0.950 . S
C3947 C3943 1.393 . S
C3947 C3946 1.391 . S
H3948 C3956 0.950 . S
H3949 C3961 0.950 . S
H3950 C3958 0.950 . S
H3951 C3960 0.950 . S
H3952 C3962 0.950 . S
H3953 C3964 0.950 . S
H3954 C3966 0.950 . S
H3955 C3967 0.950 . S
C3956 H3948 0.950 . S
C3956 C3957 1.386 . S
C3956 C3958 1.391 . S
C3957 C3956 1.386 . S
C3957 C3961 1.393 . S
C3958 H3950 0.950 . S
C3958 C3956 1.391 . S
C3958 C3959 1.400 . S
C3959 C3958 1.400 . S
C3959 C3960 1.398 . S
C3959 C3965 1.491 . S
C3960 H3951 0.950 . S
C3960 C3959 1.398 . S
C3960 C3961 1.391 . S
C3961 H3949 0.950 . S
C3961 C3957 1.393 . S
C3961 C3960 1.391 . S
C3962 H3952 0.950 . S
C3962 C3963 1.386 . S
C3962 C3964 1.391 . S
C3963 C3962 1.386 . S
C3963 C3967 1.393 . S
C3964 H3953 0.950 . S
C3964 C3962 1.391 . S
C3964 C3965 1.400 . S
C3965 C3959 1.491 . S
C3965 C3964 1.400 . S
C3965 C3966 1.398 . S
C3966 H3954 0.950 . S
C3966 C3965 1.398 . S
C3966 C3967 1.391 . S
C3967 H3955 0.950 . S
C3967 C3963 1.393 . S
C3967 C3966 1.391 . S
H3968 C3976 0.950 . S
H3969 C3981 0.950 . S
H3970 C3978 0.950 . S
H3971 C3980 0.950 . S
H3972 C3982 0.950 . S
H3973 C3984 0.950 . S
H3974 C3986 0.950 . S
H3975 C3987 0.950 . S
C3976 H3968 0.950 . S
C3976 C3977 1.386 . S
C3976 C3978 1.391 . S
C3977 C3976 1.386 . S
C3977 C3981 1.393 . S
C3978 H3970 0.950 . S
C3978 C3976 1.391 . S
C3978 C3979 1.400 . S
C3979 C3978 1.400 . S
C3979 C3980 1.398 . S
C3979 C3985 1.491 1_556 S
C3980 H3971 0.950 . S
C3980 C3979 1.398 . S
C3980 C3981 1.391 . S
C3981 H3969 0.950 . S
C3981 C3977 1.393 . S
C3981 C3980 1.391 . S
C3982 H3972 0.950 . S
C3982 C3983 1.386 . S
C3982 C3984 1.391 . S
C3983 C3982 1.386 . S
C3983 C3987 1.393 . S
C3984 H3973 0.950 . S
C3984 C3982 1.391 . S
C3984 C3985 1.400 . S
C3985 C3979 1.491 1_554 S
C3985 C3984 1.400 . S
C3985 C3986 1.398 . S
C3986 H3974 0.950 . S
C3986 C3985 1.398 . S
C3986 C3987 1.391 . S
C3987 H3975 0.950 . S
C3987 C3983 1.393 . S
C3987 C3986 1.391 . S
H3988 C3996 0.950 1_655 S
H3989 C4001 0.950 . S
H3990 C3998 0.950 1_655 S
H3991 C4000 0.950 . S
H3992 C4002 0.950 . S
H3993 C4004 0.950 . S
H3994 C4006 0.950 1_655 S
H3995 C4007 0.950 1_655 S
C3996 H3988 0.950 1_455 S
C3996 C3997 1.386 . S
C3996 C3998 1.391 . S
C3997 C3996 1.386 . S
C3997 C4001 1.393 . S
C3998 H3990 0.950 1_455 S
C3998 C3996 1.391 . S
C3998 C3999 1.400 . S
C3999 C3998 1.400 . S
C3999 C4000 1.398 . S
C3999 C4005 1.491 . S
C4000 H3991 0.950 . S
C4000 C3999 1.398 . S
C4000 C4001 1.391 . S
C4001 H3989 0.950 . S
C4001 C3997 1.393 . S
C4001 C4000 1.391 . S
C4002 H3992 0.950 . S
C4002 C4003 1.386 . S
C4002 C4004 1.391 . S
C4003 C4002 1.386 . S
C4003 C4007 1.393 . S
C4004 H3993 0.950 . S
C4004 C4002 1.391 . S
C4004 C4005 1.400 . S
C4005 C3999 1.491 . S
C4005 C4004 1.400 . S
C4005 C4006 1.398 . S
C4006 H3994 0.950 1_455 S
C4006 C4005 1.398 . S
C4006 C4007 1.391 . S
C4007 H3995 0.950 1_455 S
C4007 C4003 1.393 . S
C4007 C4006 1.391 . S
H4008 C4016 0.950 . S
H4009 C4021 0.950 . S
H4010 C4018 0.950 . S
H4011 C4020 0.950 . S
H4012 C4022 0.950 . S
H4013 C4024 0.950 . S
H4014 C4026 0.950 . S
H4015 C4027 0.950 . S
C4016 H4008 0.950 . S
C4016 C4017 1.386 . S
C4016 C4018 1.391 . S
C4017 C4016 1.386 . S
C4017 C4021 1.393 . S
C4018 H4010 0.950 . S
C4018 C4016 1.391 . S
C4018 C4019 1.400 . S
C4019 C4018 1.400 . S
C4019 C4020 1.398 . S
C4019 C4025 1.491 . S
C4020 H4011 0.950 . S
C4020 C4019 1.398 . S
C4020 C4021 1.391 . S
C4021 H4009 0.950 . S
C4021 C4017 1.393 . S
C4021 C4020 1.391 . S
C4022 H4012 0.950 . S
C4022 C4023 1.386 . S
C4022 C4024 1.391 . S
C4023 C4022 1.386 . S
C4023 C4027 1.393 . S
C4024 H4013 0.950 . S
C4024 C4022 1.391 . S
C4024 C4025 1.400 . S
C4025 C4019 1.491 . S
C4025 C4024 1.400 . S
C4025 C4026 1.398 . S
C4026 H4014 0.950 . S
C4026 C4025 1.398 . S
C4026 C4027 1.391 . S
C4027 H4015 0.950 . S
C4027 C4023 1.393 . S
C4027 C4026 1.391 . S
H4028 C4036 0.950 . S
H4029 C4041 0.950 . S
H4030 C4038 0.950 . S
H4031 C4040 0.950 . S
H4032 C4042 0.950 . S
H4033 C4044 0.950 . S
H4034 C4046 0.950 . S
H4035 C4047 0.950 . S
C4036 H4028 0.950 . S
C4036 C4037 1.386 . S
C4036 C4038 1.391 . S
C4037 C4036 1.386 . S
C4037 C4041 1.393 . S
C4038 H4030 0.950 . S
C4038 C4036 1.391 . S
C4038 C4039 1.400 . S
C4039 C4038 1.400 . S
C4039 C4040 1.398 . S
C4039 C4045 1.491 . S
C4040 H4031 0.950 . S
C4040 C4039 1.398 . S
C4040 C4041 1.391 . S
C4041 H4029 0.950 . S
C4041 C4037 1.393 . S
C4041 C4040 1.391 . S
C4042 H4032 0.950 . S
C4042 C4043 1.386 . S
C4042 C4044 1.391 . S
C4043 C4042 1.386 . S
C4043 C4047 1.393 . S
C4044 H4033 0.950 . S
C4044 C4042 1.391 . S
C4044 C4045 1.400 . S
C4045 C4039 1.491 . S
C4045 C4044 1.400 . S
C4045 C4046 1.398 . S
C4046 H4034 0.950 . S
C4046 C4045 1.398 . S
C4046 C4047 1.391 . S
C4047 H4035 0.950 . S
C4047 C4043 1.393 . S
C4047 C4046 1.391 . S
H4048 C4056 0.950 . S
H4049 C4061 0.950 . S
H4050 C4058 0.950 . S
H4051 C4060 0.950 . S
H4052 C4062 0.950 . S
H4053 C4064 0.950 . S
H4054 C4066 0.950 . S
H4055 C4067 0.950 . S
C4056 H4048 0.950 . S
C4056 C4057 1.386 . S
C4056 C4058 1.391 . S
C4057 C4056 1.386 . S
C4057 C4061 1.393 . S
C4058 H4050 0.950 . S
C4058 C4056 1.391 . S
C4058 C4059 1.400 . S
C4059 C4058 1.400 . S
C4059 C4060 1.398 . S
C4059 C4065 1.491 . S
C4060 H4051 0.950 . S
C4060 C4059 1.398 . S
C4060 C4061 1.391 . S
C4061 H4049 0.950 . S
C4061 C4057 1.393 . S
C4061 C4060 1.391 . S
C4062 H4052 0.950 . S
C4062 C4063 1.386 . S
C4062 C4064 1.391 . S
C4063 C4062 1.386 . S
C4063 C4067 1.393 . S
C4064 H4053 0.950 . S
C4064 C4062 1.391 . S
C4064 C4065 1.400 . S
C4065 C4059 1.491 . S
C4065 C4064 1.400 . S
C4065 C4066 1.398 . S
C4066 H4054 0.950 . S
C4066 C4065 1.398 . S
C4066 C4067 1.391 . S
C4067 H4055 0.950 . S
C4067 C4063 1.393 . S
C4067 C4066 1.391 . S
H4068 C4076 0.950 . S
H4069 C4081 0.950 . S
H4070 C4078 0.950 1_554 S
H4071 C4080 0.950 . S
H4072 C4082 0.950 . S
H4073 C4084 0.950 1_556 S
H4074 C4086 0.950 . S
H4075 C4087 0.950 . S
C4076 H4068 0.950 . S
C4076 C4077 1.386 . S
C4076 C4078 1.391 . S
C4077 C4076 1.386 . S
C4077 C4081 1.393 . S
C4078 H4070 0.950 1_556 S
C4078 C4076 1.391 . S
C4078 C4079 1.400 . S
C4079 C4078 1.400 . S
C4079 C4080 1.398 . S
C4079 C4085 1.491 1_556 S
C4080 H4071 0.950 . S
C4080 C4079 1.398 . S
C4080 C4081 1.391 . S
C4081 H4069 0.950 . S
C4081 C4077 1.393 . S
C4081 C4080 1.391 . S
C4082 H4072 0.950 . S
C4082 C4083 1.386 . S
C4082 C4084 1.391 . S
C4083 C4082 1.386 . S
C4083 C4087 1.393 . S
C4084 H4073 0.950 1_554 S
C4084 C4082 1.391 . S
C4084 C4085 1.400 . S
C4085 C4079 1.491 1_554 S
C4085 C4084 1.400 . S
C4085 C4086 1.398 . S
C4086 H4074 0.950 . S
C4086 C4085 1.398 . S
C4086 C4087 1.391 . S
C4087 H4075 0.950 . S
C4087 C4083 1.393 . S
C4087 C4086 1.391 . S
H4088 C4096 0.950 . S
H4089 C4101 0.950 . S
H4090 C4098 0.950 . S
H4091 C4100 0.950 . S
H4092 C4102 0.950 . S
H4093 C4104 0.950 . S
H4094 C4106 0.950 . S
H4095 C4107 0.950 . S
C4096 H4088 0.950 . S
C4096 C4097 1.386 . S
C4096 C4098 1.391 . S
C4097 C4096 1.386 . S
C4097 C4101 1.393 . S
C4098 H4090 0.950 . S
C4098 C4096 1.391 . S
C4098 C4099 1.400 . S
C4099 C4098 1.400 . S
C4099 C4100 1.398 . S
C4099 C4105 1.491 . S
C4100 H4091 0.950 . S
C4100 C4099 1.398 . S
C4100 C4101 1.391 . S
C4101 H4089 0.950 . S
C4101 C4097 1.393 . S
C4101 C4100 1.391 . S
C4102 H4092 0.950 . S
C4102 C4103 1.386 . S
C4102 C4104 1.391 . S
C4103 C4102 1.386 . S
C4103 C4107 1.393 . S
C4104 H4093 0.950 . S
C4104 C4102 1.391 . S
C4104 C4105 1.400 . S
C4105 C4099 1.491 . S
C4105 C4104 1.400 . S
C4105 C4106 1.398 . S
C4106 H4094 0.950 . S
C4106 C4105 1.398 . S
C4106 C4107 1.391 . S
C4107 H4095 0.950 . S
C4107 C4103 1.393 . S
C4107 C4106 1.391 . S
H4108 C4116 0.950 . S
H4109 C4121 0.950 . S
H4110 C4118 0.950 . S
H4111 C4120 0.950 . S
H4112 C4122 0.950 . S
H4113 C4124 0.950 . S
H4114 C4126 0.950 . S
H4115 C4127 0.950 . S
C4116 H4108 0.950 . S
C4116 C4117 1.386 . S
C4116 C4118 1.391 . S
C4117 C4116 1.386 . S
C4117 C4121 1.393 . S
C4118 H4110 0.950 . S
C4118 C4116 1.391 . S
C4118 C4119 1.400 . S
C4119 C4118 1.400 . S
C4119 C4120 1.398 . S
C4119 C4125 1.491 . S
C4120 H4111 0.950 . S
C4120 C4119 1.398 . S
C4120 C4121 1.391 . S
C4121 H4109 0.950 . S
C4121 C4117 1.393 . S
C4121 C4120 1.391 . S
C4122 H4112 0.950 . S
C4122 C4123 1.386 . S
C4122 C4124 1.391 . S
C4123 C4122 1.386 . S
C4123 C4127 1.393 . S
C4124 H4113 0.950 . S
C4124 C4122 1.391 . S
C4124 C4125 1.400 . S
C4125 C4119 1.491 . S
C4125 C4124 1.400 . S
C4125 C4126 1.398 . S
C4126 H4114 0.950 . S
C4126 C4125 1.398 . S
C4126 C4127 1.391 . S
C4127 H4115 0.950 . S
C4127 C4123 1.393 . S
C4127 C4126 1.391 . S
H4128 C4136 0.950 . S
H4129 C4141 0.950 . S
H4130 C4138 0.950 . S
H4131 C4140 0.950 . S
H4132 C4142 0.950 . S
H4133 C4144 0.950 . S
H4134 C4146 0.950 . S
H4135 C4147 0.950 . S
C4136 H4128 0.950 . S
C4136 C4137 1.386 . S
C4136 C4138 1.391 . S
C4137 C4136 1.386 . S
C4137 C4141 1.393 . S
C4138 H4130 0.950 . S
C4138 C4136 1.391 . S
C4138 C4139 1.400 . S
C4139 C4138 1.400 . S
C4139 C4140 1.398 . S
C4139 C4145 1.491 . S
C4140 H4131 0.950 . S
C4140 C4139 1.398 . S
C4140 C4141 1.391 . S
C4141 H4129 0.950 . S
C4141 C4137 1.393 . S
C4141 C4140 1.391 . S
C4142 H4132 0.950 . S
C4142 C4143 1.386 . S
C4142 C4144 1.391 . S
C4143 C4142 1.386 . S
C4143 C4147 1.393 . S
C4144 H4133 0.950 . S
C4144 C4142 1.391 . S
C4144 C4145 1.400 . S
C4145 C4139 1.491 . S
C4145 C4144 1.400 . S
C4145 C4146 1.398 . S
C4146 H4134 0.950 . S
C4146 C4145 1.398 . S
C4146 C4147 1.391 . S
C4147 H4135 0.950 . S
C4147 C4143 1.393 . S
C4147 C4146 1.391 . S
H4148 C4156 0.950 . S
H4149 C4161 0.950 . S
H4150 C4158 0.950 . S
H4151 C4160 0.950 . S
H4152 C4162 0.950 . S
H4153 C4164 0.950 . S
H4154 C4166 0.950 . S
H4155 C4167 0.950 . S
C4156 H4148 0.950 . S
C4156 C4157 1.386 . S
C4156 C4158 1.391 . S
C4157 C4156 1.386 . S
C4157 C4161 1.393 . S
C4158 H4150 0.950 . S
C4158 C4156 1.391 . S
C4158 C4159 1.400 . S
C4159 C4158 1.400 . S
C4159 C4160 1.398 . S
C4159 C4165 1.491 . S
C4160 H4151 0.950 . S
C4160 C4159 1.398 . S
C4160 C4161 1.391 . S
C4161 H4149 0.950 . S
C4161 C4157 1.393 . S
C4161 C4160 1.391 . S
C4162 H4152 0.950 . S
C4162 C4163 1.386 . S
C4162 C4164 1.391 . S
C4163 C4162 1.386 . S
C4163 C4167 1.393 . S
C4164 H4153 0.950 . S
C4164 C4162 1.391 . S
C4164 C4165 1.400 . S
C4165 C4159 1.491 . S
C4165 C4164 1.400 . S
C4165 C4166 1.398 . S
C4166 H4154 0.950 . S
C4166 C4165 1.398 . S
C4166 C4167 1.391 . S
C4167 H4155 0.950 . S
C4167 C4163 1.393 . S
C4167 C4166 1.391 . S
H4168 C4176 0.950 . S
H4169 C4181 0.950 . S
H4170 C4178 0.950 . S
H4171 C4180 0.950 . S
H4172 C4182 0.950 . S
H4173 C4184 0.950 . S
H4174 C4186 0.950 . S
H4175 C4187 0.950 . S
C4176 H4168 0.950 . S
C4176 C4177 1.386 . S
C4176 C4178 1.391 . S
C4177 C4176 1.386 . S
C4177 C4181 1.393 . S
C4178 H4170 0.950 . S
C4178 C4176 1.391 . S
C4178 C4179 1.400 . S
C4179 C4178 1.400 . S
C4179 C4180 1.398 . S
C4179 C4185 1.491 . S
C4180 H4171 0.950 . S
C4180 C4179 1.398 . S
C4180 C4181 1.391 . S
C4181 H4169 0.950 . S
C4181 C4177 1.393 . S
C4181 C4180 1.391 . S
C4182 H4172 0.950 . S
C4182 C4183 1.386 . S
C4182 C4184 1.391 . S
C4183 C4182 1.386 . S
C4183 C4187 1.393 . S
C4184 H4173 0.950 . S
C4184 C4182 1.391 . S
C4184 C4185 1.400 . S
C4185 C4179 1.491 . S
C4185 C4184 1.400 . S
C4185 C4186 1.398 . S
C4186 H4174 0.950 . S
C4186 C4185 1.398 . S
C4186 C4187 1.391 . S
C4187 H4175 0.950 . S
C4187 C4183 1.393 . S
C4187 C4186 1.391 . S
H4188 C4196 0.950 . S
H4189 C4201 0.950 . S
H4190 C4198 0.950 . S
H4191 C4200 0.950 . S
H4192 C4202 0.950 . S
H4193 C4204 0.950 . S
H4194 C4206 0.950 . S
H4195 C4207 0.950 . S
C4196 H4188 0.950 . S
C4196 C4197 1.386 . S
C4196 C4198 1.391 . S
C4197 C4196 1.386 . S
C4197 C4201 1.393 . S
C4198 H4190 0.950 . S
C4198 C4196 1.391 . S
C4198 C4199 1.400 . S
C4199 C4198 1.400 . S
C4199 C4200 1.398 . S
C4199 C4205 1.491 . S
C4200 H4191 0.950 . S
C4200 C4199 1.398 . S
C4200 C4201 1.391 . S
C4201 H4189 0.950 . S
C4201 C4197 1.393 . S
C4201 C4200 1.391 . S
C4202 H4192 0.950 . S
C4202 C4203 1.386 . S
C4202 C4204 1.391 . S
C4203 C4202 1.386 . S
C4203 C4207 1.393 . S
C4204 H4193 0.950 . S
C4204 C4202 1.391 . S
C4204 C4205 1.400 . S
C4205 C4199 1.491 . S
C4205 C4204 1.400 . S
C4205 C4206 1.398 . S
C4206 H4194 0.950 . S
C4206 C4205 1.398 . S
C4206 C4207 1.391 . S
C4207 H4195 0.950 . S
C4207 C4203 1.393 . S
C4207 C4206 1.391 . S
H4208 C4216 0.950 . S
H4209 C4221 0.950 . S
H4210 C4218 0.950 . S
H4211 C4220 0.950 . S
H4212 C4222 0.950 . S
H4213 C4224 0.950 . S
H4214 C4226 0.950 . S
H4215 C4227 0.950 . S
C4216 H4208 0.950 . S
C4216 C4217 1.386 . S
C4216 C4218 1.391 . S
C4217 C4216 1.386 . S
C4217 C4221 1.393 . S
C4218 H4210 0.950 . S
C4218 C4216 1.391 . S
C4218 C4219 1.400 . S
C4219 C4218 1.400 . S
C4219 C4220 1.398 . S
C4219 C4225 1.491 . S
C4220 H4211 0.950 . S
C4220 C4219 1.398 . S
C4220 C4221 1.391 . S
C4221 H4209 0.950 . S
C4221 C4217 1.393 . S
C4221 C4220 1.391 . S
C4222 H4212 0.950 . S
C4222 C4223 1.386 . S
C4222 C4224 1.391 . S
C4223 C4222 1.386 . S
C4223 C4227 1.393 . S
C4224 H4213 0.950 . S
C4224 C4222 1.391 . S
C4224 C4225 1.400 . S
C4225 C4219 1.491 . S
C4225 C4224 1.400 . S
C4225 C4226 1.398 . S
C4226 H4214 0.950 . S
C4226 C4225 1.398 . S
C4226 C4227 1.391 . S
C4227 H4215 0.950 . S
C4227 C4223 1.393 . S
C4227 C4226 1.391 . S
H4228 C4236 0.950 . S
H4229 C4241 0.950 . S
H4230 C4238 0.950 . S
H4231 C4240 0.950 . S
H4232 C4242 0.950 . S
H4233 C4244 0.950 . S
H4234 C4246 0.950 . S
H4235 C4247 0.950 . S
C4236 H4228 0.950 . S
C4236 C4237 1.386 . S
C4236 C4238 1.391 . S
C4237 C4236 1.386 . S
C4237 C4241 1.393 . S
C4238 H4230 0.950 . S
C4238 C4236 1.391 . S
C4238 C4239 1.400 . S
C4239 C4238 1.400 . S
C4239 C4240 1.398 . S
C4239 C4245 1.491 . S
C4240 H4231 0.950 . S
C4240 C4239 1.398 . S
C4240 C4241 1.391 . S
C4241 H4229 0.950 . S
C4241 C4237 1.393 . S
C4241 C4240 1.391 . S
C4242 H4232 0.950 . S
C4242 C4243 1.386 . S
C4242 C4244 1.391 . S
C4243 C4242 1.386 . S
C4243 C4247 1.393 . S
C4244 H4233 0.950 . S
C4244 C4242 1.391 . S
C4244 C4245 1.400 . S
C4245 C4239 1.491 . S
C4245 C4244 1.400 . S
C4245 C4246 1.398 . S
C4246 H4234 0.950 . S
C4246 C4245 1.398 . S
C4246 C4247 1.391 . S
C4247 H4235 0.950 . S
C4247 C4243 1.393 . S
C4247 C4246 1.391 . S
H4248 C4256 0.950 . S
H4249 C4261 0.950 . S
H4250 C4258 0.950 . S
H4251 C4260 0.950 . S
H4252 C4262 0.950 . S
H4253 C4264 0.950 . S
H4254 C4266 0.950 . S
H4255 C4267 0.950 . S
C4256 H4248 0.950 . S
C4256 C4257 1.386 . S
C4256 C4258 1.391 . S
C4257 C4256 1.386 . S
C4257 C4261 1.393 . S
C4258 H4250 0.950 . S
C4258 C4256 1.391 . S
C4258 C4259 1.400 . S
C4259 C4258 1.400 . S
C4259 C4260 1.398 . S
C4259 C4265 1.491 . S
C4260 H4251 0.950 . S
C4260 C4259 1.398 . S
C4260 C4261 1.391 . S
C4261 H4249 0.950 . S
C4261 C4257 1.393 . S
C4261 C4260 1.391 . S
C4262 H4252 0.950 . S
C4262 C4263 1.386 . S
C4262 C4264 1.391 . S
C4263 C4262 1.386 . S
C4263 C4267 1.393 . S
C4264 H4253 0.950 . S
C4264 C4262 1.391 . S
C4264 C4265 1.400 . S
C4265 C4259 1.491 . S
C4265 C4264 1.400 . S
C4265 C4266 1.398 . S
C4266 H4254 0.950 . S
C4266 C4265 1.398 . S
C4266 C4267 1.391 . S
C4267 H4255 0.950 . S
C4267 C4263 1.393 . S
C4267 C4266 1.391 . S
H4268 C4276 0.950 . S
H4269 C4281 0.950 . S
H4270 C4278 0.950 . S
H4271 C4280 0.950 . S
H4272 C4282 0.950 . S
H4273 C4284 0.950 . S
H4274 C4286 0.950 . S
H4275 C4287 0.950 . S
C4276 H4268 0.950 . S
C4276 C4277 1.386 . S
C4276 C4278 1.391 . S
C4277 C4276 1.386 . S
C4277 C4281 1.393 . S
C4278 H4270 0.950 . S
C4278 C4276 1.391 . S
C4278 C4279 1.400 . S
C4279 C4278 1.400 . S
C4279 C4280 1.398 . S
C4279 C4285 1.491 . S
C4280 H4271 0.950 . S
C4280 C4279 1.398 . S
C4280 C4281 1.391 . S
C4281 H4269 0.950 . S
C4281 C4277 1.393 . S
C4281 C4280 1.391 . S
C4282 H4272 0.950 . S
C4282 C4283 1.386 . S
C4282 C4284 1.391 . S
C4283 C4282 1.386 . S
C4283 C4287 1.393 . S
C4284 H4273 0.950 . S
C4284 C4282 1.391 . S
C4284 C4285 1.400 . S
C4285 C4279 1.491 . S
C4285 C4284 1.400 . S
C4285 C4286 1.398 . S
C4286 H4274 0.950 . S
C4286 C4285 1.398 . S
C4286 C4287 1.391 . S
C4287 H4275 0.950 . S
C4287 C4283 1.393 . S
C4287 C4286 1.391 . S
H4288 C4296 0.950 . S
H4289 C4301 0.950 . S
H4290 C4298 0.950 . S
H4291 C4300 0.950 . S
H4292 C4302 0.950 . S
H4293 C4304 0.950 . S
H4294 C4306 0.950 . S
H4295 C4307 0.950 . S
C4296 H4288 0.950 . S
C4296 C4297 1.386 . S
C4296 C4298 1.391 . S
C4297 C4296 1.386 . S
C4297 C4301 1.393 . S
C4298 H4290 0.950 . S
C4298 C4296 1.391 . S
C4298 C4299 1.400 . S
C4299 C4298 1.400 . S
C4299 C4300 1.398 . S
C4299 C4305 1.491 . S
C4300 H4291 0.950 . S
C4300 C4299 1.398 . S
C4300 C4301 1.391 . S
C4301 H4289 0.950 . S
C4301 C4297 1.393 . S
C4301 C4300 1.391 . S
C4302 H4292 0.950 . S
C4302 C4303 1.386 . S
C4302 C4304 1.391 . S
C4303 C4302 1.386 . S
C4303 C4307 1.393 . S
C4304 H4293 0.950 . S
C4304 C4302 1.391 . S
C4304 C4305 1.400 . S
C4305 C4299 1.491 . S
C4305 C4304 1.400 . S
C4305 C4306 1.398 . S
C4306 H4294 0.950 . S
C4306 C4305 1.398 . S
C4306 C4307 1.391 . S
C4307 H4295 0.950 . S
C4307 C4303 1.393 . S
C4307 C4306 1.391 . S
H4308 C4316 0.950 . S
H4309 C4321 0.950 . S
H4310 C4318 0.950 . S
H4311 C4320 0.950 . S
H4312 C4322 0.950 . S
H4313 C4324 0.950 . S
H4314 C4326 0.950 . S
H4315 C4327 0.950 . S
C4316 H4308 0.950 . S
C4316 C4317 1.386 . S
C4316 C4318 1.391 . S
C4317 C4316 1.386 . S
C4317 C4321 1.393 . S
C4318 H4310 0.950 . S
C4318 C4316 1.391 . S
C4318 C4319 1.400 . S
C4319 C4318 1.400 . S
C4319 C4320 1.398 . S
C4319 C4325 1.491 . S
C4320 H4311 0.950 . S
C4320 C4319 1.398 . S
C4320 C4321 1.391 . S
C4321 H4309 0.950 . S
C4321 C4317 1.393 . S
C4321 C4320 1.391 . S
C4322 H4312 0.950 . S
C4322 C4323 1.386 . S
C4322 C4324 1.391 . S
C4323 C4322 1.386 . S
C4323 C4327 1.393 . S
C4324 H4313 0.950 . S
C4324 C4322 1.391 . S
C4324 C4325 1.400 . S
C4325 C4319 1.491 . S
C4325 C4324 1.400 . S
C4325 C4326 1.398 . S
C4326 H4314 0.950 . S
C4326 C4325 1.398 . S
C4326 C4327 1.391 . S
C4327 H4315 0.950 . S
C4327 C4323 1.393 . S
C4327 C4326 1.391 . S
H4328 C4336 0.950 . S
H4329 C4341 0.950 . S
H4330 C4338 0.950 . S
H4331 C4340 0.950 . S
H4332 C4342 0.950 . S
H4333 C4344 0.950 . S
H4334 C4346 0.950 . S
H4335 C4347 0.950 . S
C4336 H4328 0.950 . S
C4336 C4337 1.386 . S
C4336 C4338 1.391 . S
C4337 C4336 1.386 . S
C4337 C4341 1.393 . S
C4338 H4330 0.950 . S
C4338 C4336 1.391 . S
C4338 C4339 1.400 . S
C4339 C4338 1.400 . S
C4339 C4340 1.398 . S
C4339 C4345 1.491 . S
C4340 H4331 0.950 . S
C4340 C4339 1.398 . S
C4340 C4341 1.391 . S
C4341 H4329 0.950 . S
C4341 C4337 1.393 . S
C4341 C4340 1.391 . S
C4342 H4332 0.950 . S
C4342 C4343 1.386 . S
C4342 C4344 1.391 . S
C4343 C4342 1.386 . S
C4343 C4347 1.393 . S
C4344 H4333 0.950 . S
C4344 C4342 1.391 . S
C4344 C4345 1.400 . S
C4345 C4339 1.491 . S
C4345 C4344 1.400 . S
C4345 C4346 1.398 . S
C4346 H4334 0.950 . S
C4346 C4345 1.398 . S
C4346 C4347 1.391 . S
C4347 H4335 0.950 . S
C4347 C4343 1.393 . S
C4347 C4346 1.391 . S
H4348 C4356 0.950 . S
H4349 C4361 0.950 . S
H4350 C4358 0.950 . S
H4351 C4360 0.950 . S
H4352 C4362 0.950 . S
H4353 C4364 0.950 . S
H4354 C4366 0.950 . S
H4355 C4367 0.950 . S
C4356 H4348 0.950 . S
C4356 C4357 1.386 . S
C4356 C4358 1.391 . S
C4357 C4356 1.386 . S
C4357 C4361 1.393 . S
C4358 H4350 0.950 . S
C4358 C4356 1.391 . S
C4358 C4359 1.400 . S
C4359 C4358 1.400 . S
C4359 C4360 1.398 . S
C4359 C4365 1.491 . S
C4360 H4351 0.950 . S
C4360 C4359 1.398 . S
C4360 C4361 1.391 . S
C4361 H4349 0.950 . S
C4361 C4357 1.393 . S
C4361 C4360 1.391 . S
C4362 H4352 0.950 . S
C4362 C4363 1.386 . S
C4362 C4364 1.391 . S
C4363 C4362 1.386 . S
C4363 C4367 1.393 . S
C4364 H4353 0.950 . S
C4364 C4362 1.391 . S
C4364 C4365 1.400 . S
C4365 C4359 1.491 . S
C4365 C4364 1.400 . S
C4365 C4366 1.398 . S
C4366 H4354 0.950 . S
C4366 C4365 1.398 . S
C4366 C4367 1.391 . S
C4367 H4355 0.950 . S
C4367 C4363 1.393 . S
C4367 C4366 1.391 . S
H4368 C4376 0.950 . S
H4369 C4381 0.950 . S
H4370 C4378 0.950 . S
H4371 C4380 0.950 . S
H4372 C4382 0.950 . S
H4373 C4384 0.950 . S
H4374 C4386 0.950 . S
H4375 C4387 0.950 . S
C4376 H4368 0.950 . S
C4376 C4377 1.386 . S
C4376 C4378 1.391 . S
C4377 C4376 1.386 . S
C4377 C4381 1.393 . S
C4378 H4370 0.950 . S
C4378 C4376 1.391 . S
C4378 C4379 1.400 . S
C4379 C4378 1.400 . S
C4379 C4380 1.398 . S
C4379 C4385 1.491 . S
C4380 H4371 0.950 . S
C4380 C4379 1.398 . S
C4380 C4381 1.391 . S
C4381 H4369 0.950 . S
C4381 C4377 1.393 . S
C4381 C4380 1.391 . S
C4382 H4372 0.950 . S
C4382 C4383 1.386 . S
C4382 C4384 1.391 . S
C4383 C4382 1.386 . S
C4383 C4387 1.393 . S
C4384 H4373 0.950 . S
C4384 C4382 1.391 . S
C4384 C4385 1.400 . S
C4385 C4379 1.491 . S
C4385 C4384 1.400 . S
C4385 C4386 1.398 . S
C4386 H4374 0.950 . S
C4386 C4385 1.398 . S
C4386 C4387 1.391 . S
C4387 H4375 0.950 . S
C4387 C4383 1.393 . S
C4387 C4386 1.391 . S
H4388 C4396 0.950 . S
H4389 C4401 0.950 . S
H4390 C4398 0.950 . S
H4391 C4400 0.950 . S
H4392 C4402 0.950 . S
H4393 C4404 0.950 . S
H4394 C4406 0.950 . S
H4395 C4407 0.950 . S
C4396 H4388 0.950 . S
C4396 C4397 1.386 . S
C4396 C4398 1.391 . S
C4397 C4396 1.386 . S
C4397 C4401 1.393 . S
C4398 H4390 0.950 . S
C4398 C4396 1.391 . S
C4398 C4399 1.400 . S
C4399 C4398 1.400 . S
C4399 C4400 1.398 . S
C4399 C4405 1.491 . S
C4400 H4391 0.950 . S
C4400 C4399 1.398 . S
C4400 C4401 1.391 . S
C4401 H4389 0.950 . S
C4401 C4397 1.393 . S
C4401 C4400 1.391 . S
C4402 H4392 0.950 . S
C4402 C4403 1.386 . S
C4402 C4404 1.391 . S
C4403 C4402 1.386 . S
C4403 C4407 1.393 . S
C4404 H4393 0.950 . S
C4404 C4402 1.391 . S
C4404 C4405 1.400 . S
C4405 C4399 1.491 . S
C4405 C4404 1.400 . S
C4405 C4406 1.398 . S
C4406 H4394 0.950 . S
C4406 C4405 1.398 . S
C4406 C4407 1.391 . S
C4407 H4395 0.950 . S
C4407 C4403 1.393 . S
C4407 C4406 1.391 . S
H4408 C4416 0.950 . S
H4409 C4421 0.950 . S
H4410 C4418 0.950 . S
H4411 C4420 0.950 . S
H4412 C4422 0.950 . S
H4413 C4424 0.950 . S
H4414 C4426 0.950 . S
H4415 C4427 0.950 . S
C4416 H4408 0.950 . S
C4416 C4417 1.386 . S
C4416 C4418 1.391 . S
C4417 C4416 1.386 . S
C4417 C4421 1.393 . S
C4418 H4410 0.950 . S
C4418 C4416 1.391 . S
C4418 C4419 1.400 . S
C4419 C4418 1.400 . S
C4419 C4420 1.398 . S
C4419 C4425 1.491 . S
C4420 H4411 0.950 . S
C4420 C4419 1.398 . S
C4420 C4421 1.391 . S
C4421 H4409 0.950 . S
C4421 C4417 1.393 . S
C4421 C4420 1.391 . S
C4422 H4412 0.950 . S
C4422 C4423 1.386 . S
C4422 C4424 1.391 . S
C4423 C4422 1.386 . S
C4423 C4427 1.393 . S
C4424 H4413 0.950 . S
C4424 C4422 1.391 . S
C4424 C4425 1.400 . S
C4425 C4419 1.491 . S
C4425 C4424 1.400 . S
C4425 C4426 1.398 . S
C4426 H4414 0.950 . S
C4426 C4425 1.398 . S
C4426 C4427 1.391 . S
C4427 H4415 0.950 . S
C4427 C4423 1.393 . S
C4427 C4426 1.391 . S
H4428 C4436 0.950 . S
H4429 C4441 0.950 . S
H4430 C4438 0.950 . S
H4431 C4440 0.950 . S
H4432 C4442 0.950 . S
H4433 C4444 0.950 . S
H4434 C4446 0.950 . S
H4435 C4447 0.950 . S
C4436 H4428 0.950 . S
C4436 C4437 1.386 . S
C4436 C4438 1.391 . S
C4437 C4436 1.386 . S
C4437 C4441 1.393 . S
C4438 H4430 0.950 . S
C4438 C4436 1.391 . S
C4438 C4439 1.400 . S
C4439 C4438 1.400 . S
C4439 C4440 1.398 . S
C4439 C4445 1.491 . S
C4440 H4431 0.950 . S
C4440 C4439 1.398 . S
C4440 C4441 1.391 . S
C4441 H4429 0.950 . S
C4441 C4437 1.393 . S
C4441 C4440 1.391 . S
C4442 H4432 0.950 . S
C4442 C4443 1.386 . S
C4442 C4444 1.391 . S
C4443 C4442 1.386 . S
C4443 C4447 1.393 . S
C4444 H4433 0.950 . S
C4444 C4442 1.391 . S
C4444 C4445 1.400 . S
C4445 C4439 1.491 . S
C4445 C4444 1.400 . S
C4445 C4446 1.398 . S
C4446 H4434 0.950 . S
C4446 C4445 1.398 . S
C4446 C4447 1.391 . S
C4447 H4435 0.950 . S
C4447 C4443 1.393 . S
C4447 C4446 1.391 . S
H4448 C4456 0.950 . S
H4449 C4461 0.950 . S
H4450 C4458 0.950 . S
H4451 C4460 0.950 . S
H4452 C4462 0.950 . S
H4453 C4464 0.950 . S
H4454 C4466 0.950 . S
H4455 C4467 0.950 . S
C4456 H4448 0.950 . S
C4456 C4457 1.386 . S
C4456 C4458 1.391 . S
C4457 C4456 1.386 . S
C4457 C4461 1.393 . S
C4458 H4450 0.950 . S
C4458 C4456 1.391 . S
C4458 C4459 1.400 . S
C4459 C4458 1.400 . S
C4459 C4460 1.398 . S
C4459 C4465 1.491 . S
C4460 H4451 0.950 . S
C4460 C4459 1.398 . S
C4460 C4461 1.391 . S
C4461 H4449 0.950 . S
C4461 C4457 1.393 . S
C4461 C4460 1.391 . S
C4462 H4452 0.950 . S
C4462 C4463 1.386 . S
C4462 C4464 1.391 . S
C4463 C4462 1.386 . S
C4463 C4467 1.393 . S
C4464 H4453 0.950 . S
C4464 C4462 1.391 . S
C4464 C4465 1.400 . S
C4465 C4459 1.491 . S
C4465 C4464 1.400 . S
C4465 C4466 1.398 . S
C4466 H4454 0.950 . S
C4466 C4465 1.398 . S
C4466 C4467 1.391 . S
C4467 H4455 0.950 . S
C4467 C4463 1.393 . S
C4467 C4466 1.391 . S
H4468 C4476 0.950 . S
H4469 C4481 0.950 . S
H4470 C4478 0.950 . S
H4471 C4480 0.950 . S
H4472 C4482 0.950 . S
H4473 C4484 0.950 . S
H4474 C4486 0.950 . S
H4475 C4487 0.950 . S
C4476 H4468 0.950 . S
C4476 C4477 1.386 . S
C4476 C4478 1.391 . S
C4477 C4476 1.386 . S
C4477 C4481 1.393 . S
C4478 H4470 0.950 . S
C4478 C4476 1.391 . S
C4478 C4479 1.400 . S
C4479 C4478 1.400 . S
C4479 C4480 1.398 . S
C4479 C4485 1.491 . S
C4480 H4471 0.950 . S
C4480 C4479 1.398 . S
C4480 C4481 1.391 . S
C4481 H4469 0.950 . S
C4481 C4477 1.393 . S
C4481 C4480 1.391 . S
C4482 H4472 0.950 . S
C4482 C4483 1.386 . S
C4482 C4484 1.391 . S
C4483 C4482 1.386 . S
C4483 C4487 1.393 . S
C4484 H4473 0.950 . S
C4484 C4482 1.391 . S
C4484 C4485 1.400 . S
C4485 C4479 1.491 . S
C4485 C4484 1.400 . S
C4485 C4486 1.398 . S
C4486 H4474 0.950 . S
C4486 C4485 1.398 . S
C4486 C4487 1.391 . S
C4487 H4475 0.950 . S
C4487 C4483 1.393 . S
C4487 C4486 1.391 . S
H4488 C4496 0.950 . S
H4489 C4501 0.950 . S
H4490 C4498 0.950 . S
H4491 C4500 0.950 . S
H4492 C4502 0.950 . S
H4493 C4504 0.950 . S
H4494 C4506 0.950 . S
H4495 C4507 0.950 . S
C4496 H4488 0.950 . S
C4496 C4497 1.386 . S
C4496 C4498 1.391 . S
C4497 C4496 1.386 . S
C4497 C4501 1.393 . S
C4498 H4490 0.950 . S
C4498 C4496 1.391 . S
C4498 C4499 1.400 . S
C4499 C4498 1.400 . S
C4499 C4500 1.398 . S
C4499 C4505 1.491 . S
C4500 H4491 0.950 . S
C4500 C4499 1.398 . S
C4500 C4501 1.391 . S
C4501 H4489 0.950 . S
C4501 C4497 1.393 . S
C4501 C4500 1.391 . S
C4502 H4492 0.950 . S
C4502 C4503 1.386 . S
C4502 C4504 1.391 . S
C4503 C4502 1.386 . S
C4503 C4507 1.393 . S
C4504 H4493 0.950 . S
C4504 C4502 1.391 . S
C4504 C4505 1.400 . S
C4505 C4499 1.491 . S
C4505 C4504 1.400 . S
C4505 C4506 1.398 . S
C4506 H4494 0.950 . S
C4506 C4505 1.398 . S
C4506 C4507 1.391 . S
C4507 H4495 0.950 . S
C4507 C4503 1.393 . S
C4507 C4506 1.391 . S
H4508 C4516 0.950 . S
H4509 C4521 0.950 . S
H4510 C4518 0.950 . S
H4511 C4520 0.950 . S
H4512 C4522 0.950 . S
H4513 C4524 0.950 . S
H4514 C4526 0.950 . S
H4515 C4527 0.950 . S
C4516 H4508 0.950 . S
C4516 C4517 1.386 . S
C4516 C4518 1.391 . S
C4517 C4516 1.386 . S
C4517 C4521 1.393 . S
C4518 H4510 0.950 . S
C4518 C4516 1.391 . S
C4518 C4519 1.400 . S
C4519 C4518 1.400 . S
C4519 C4520 1.398 . S
C4519 C4525 1.491 . S
C4520 H4511 0.950 . S
C4520 C4519 1.398 . S
C4520 C4521 1.391 . S
C4521 H4509 0.950 . S
C4521 C4517 1.393 . S
C4521 C4520 1.391 . S
C4522 H4512 0.950 . S
C4522 C4523 1.386 . S
C4522 C4524 1.391 . S
C4523 C4522 1.386 . S
C4523 C4527 1.393 . S
C4524 H4513 0.950 . S
C4524 C4522 1.391 . S
C4524 C4525 1.400 . S
C4525 C4519 1.491 . S
C4525 C4524 1.400 . S
C4525 C4526 1.398 . S
C4526 H4514 0.950 . S
C4526 C4525 1.398 . S
C4526 C4527 1.391 . S
C4527 H4515 0.950 . S
C4527 C4523 1.393 . S
C4527 C4526 1.391 . S
H4528 C4536 0.950 . S
H4529 C4541 0.950 . S
H4530 C4538 0.950 . S
H4531 C4540 0.950 . S
H4532 C4542 0.950 . S
H4533 C4544 0.950 . S
H4534 C4546 0.950 . S
H4535 C4547 0.950 . S
C4536 H4528 0.950 . S
C4536 C4537 1.386 . S
C4536 C4538 1.391 . S
C4537 C4536 1.386 . S
C4537 C4541 1.393 . S
C4538 H4530 0.950 . S
C4538 C4536 1.391 . S
C4538 C4539 1.400 . S
C4539 C4538 1.400 . S
C4539 C4540 1.398 . S
C4539 C4545 1.491 . S
C4540 H4531 0.950 . S
C4540 C4539 1.398 . S
C4540 C4541 1.391 . S
C4541 H4529 0.950 . S
C4541 C4537 1.393 . S
C4541 C4540 1.391 . S
C4542 H4532 0.950 . S
C4542 C4543 1.386 . S
C4542 C4544 1.391 . S
C4543 C4542 1.386 . S
C4543 C4547 1.393 . S
C4544 H4533 0.950 . S
C4544 C4542 1.391 . S
C4544 C4545 1.400 . S
C4545 C4539 1.491 . S
C4545 C4544 1.400 . S
C4545 C4546 1.398 . S
C4546 H4534 0.950 . S
C4546 C4545 1.398 . S
C4546 C4547 1.391 . S
C4547 H4535 0.950 . S
C4547 C4543 1.393 . S
C4547 C4546 1.391 . S
H4548 C4556 0.950 . S
H4549 C4561 0.950 . S
H4550 C4558 0.950 . S
H4551 C4560 0.950 . S
H4552 C4562 0.950 . S
H4553 C4564 0.950 . S
H4554 C4566 0.950 . S
H4555 C4567 0.950 . S
C4556 H4548 0.950 . S
C4556 C4557 1.386 . S
C4556 C4558 1.391 . S
C4557 C4556 1.386 . S
C4557 C4561 1.393 . S
C4558 H4550 0.950 . S
C4558 C4556 1.391 . S
C4558 C4559 1.400 . S
C4559 C4558 1.400 . S
C4559 C4560 1.398 . S
C4559 C4565 1.491 . S
C4560 H4551 0.950 . S
C4560 C4559 1.398 . S
C4560 C4561 1.391 . S
C4561 H4549 0.950 . S
C4561 C4557 1.393 . S
C4561 C4560 1.391 . S
C4562 H4552 0.950 . S
C4562 C4563 1.386 . S
C4562 C4564 1.391 . S
C4563 C4562 1.386 . S
C4563 C4567 1.393 . S
C4564 H4553 0.950 . S
C4564 C4562 1.391 . S
C4564 C4565 1.400 . S
C4565 C4559 1.491 . S
C4565 C4564 1.400 . S
C4565 C4566 1.398 . S
C4566 H4554 0.950 . S
C4566 C4565 1.398 . S
C4566 C4567 1.391 . S
C4567 H4555 0.950 . S
C4567 C4563 1.393 . S
C4567 C4566 1.391 . S
H4568 C4576 0.950 . S
H4569 C4581 0.950 . S
H4570 C4578 0.950 . S
H4571 C4580 0.950 . S
H4572 C4582 0.950 . S
H4573 C4584 0.950 . S
H4574 C4586 0.950 . S
H4575 C4587 0.950 . S
C4576 H4568 0.950 . S
C4576 C4577 1.386 . S
C4576 C4578 1.391 . S
C4577 C4576 1.386 . S
C4577 C4581 1.393 . S
C4578 H4570 0.950 . S
C4578 C4576 1.391 . S
C4578 C4579 1.400 . S
C4579 C4578 1.400 . S
C4579 C4580 1.398 . S
C4579 C4585 1.491 . S
C4580 H4571 0.950 . S
C4580 C4579 1.398 . S
C4580 C4581 1.391 . S
C4581 H4569 0.950 . S
C4581 C4577 1.393 . S
C4581 C4580 1.391 . S
C4582 H4572 0.950 . S
C4582 C4583 1.386 . S
C4582 C4584 1.391 . S
C4583 C4582 1.386 . S
C4583 C4587 1.393 . S
C4584 H4573 0.950 . S
C4584 C4582 1.391 . S
C4584 C4585 1.400 . S
C4585 C4579 1.491 . S
C4585 C4584 1.400 . S
C4585 C4586 1.398 . S
C4586 H4574 0.950 . S
C4586 C4585 1.398 . S
C4586 C4587 1.391 . S
C4587 H4575 0.950 . S
C4587 C4583 1.393 . S
C4587 C4586 1.391 . S
H4588 C4596 0.950 . S
H4589 C4601 0.950 . S
H4590 C4598 0.950 . S
H4591 C4600 0.950 . S
H4592 C4602 0.950 . S
H4593 C4604 0.950 . S
H4594 C4606 0.950 . S
H4595 C4607 0.950 . S
C4596 H4588 0.950 . S
C4596 C4597 1.386 . S
C4596 C4598 1.391 . S
C4597 C4596 1.386 . S
C4597 C4601 1.393 . S
C4598 H4590 0.950 . S
C4598 C4596 1.391 . S
C4598 C4599 1.400 . S
C4599 C4598 1.400 . S
C4599 C4600 1.398 . S
C4599 C4605 1.491 . S
C4600 H4591 0.950 . S
C4600 C4599 1.398 . S
C4600 C4601 1.391 . S
C4601 H4589 0.950 . S
C4601 C4597 1.393 . S
C4601 C4600 1.391 . S
C4602 H4592 0.950 . S
C4602 C4603 1.386 . S
C4602 C4604 1.391 . S
C4603 C4602 1.386 . S
C4603 C4607 1.393 . S
C4604 H4593 0.950 . S
C4604 C4602 1.391 . S
C4604 C4605 1.400 . S
C4605 C4599 1.491 . S
C4605 C4604 1.400 . S
C4605 C4606 1.398 . S
C4606 H4594 0.950 . S
C4606 C4605 1.398 . S
C4606 C4607 1.391 . S
C4607 H4595 0.950 . S
C4607 C4603 1.393 . S
C4607 C4606 1.391 . S
H4608 C4616 0.950 . S
H4609 C4621 0.950 . S
H4610 C4618 0.950 . S
H4611 C4620 0.950 . S
H4612 C4622 0.950 . S
H4613 C4624 0.950 . S
H4614 C4626 0.950 . S
H4615 C4627 0.950 . S
C4616 H4608 0.950 . S
C4616 C4617 1.386 . S
C4616 C4618 1.391 . S
C4617 C4616 1.386 . S
C4617 C4621 1.393 . S
C4618 H4610 0.950 . S
C4618 C4616 1.391 . S
C4618 C4619 1.400 . S
C4619 C4618 1.400 . S
C4619 C4620 1.398 . S
C4619 C4625 1.491 . S
C4620 H4611 0.950 . S
C4620 C4619 1.398 . S
C4620 C4621 1.391 . S
C4621 H4609 0.950 . S
C4621 C4617 1.393 . S
C4621 C4620 1.391 . S
C4622 H4612 0.950 . S
C4622 C4623 1.386 . S
C4622 C4624 1.391 . S
C4623 C4622 1.386 . S
C4623 C4627 1.393 . S
C4624 H4613 0.950 . S
C4624 C4622 1.391 . S
C4624 C4625 1.400 . S
C4625 C4619 1.491 . S
C4625 C4624 1.400 . S
C4625 C4626 1.398 . S
C4626 H4614 0.950 . S
C4626 C4625 1.398 . S
C4626 C4627 1.391 . S
C4627 H4615 0.950 . S
C4627 C4623 1.393 . S
C4627 C4626 1.391 . S
H4628 C4636 0.950 . S
H4629 C4641 0.950 . S
H4630 C4638 0.950 . S
H4631 C4640 0.950 . S
H4632 C4642 0.950 . S
H4633 C4644 0.950 . S
H4634 C4646 0.950 . S
H4635 C4647 0.950 . S
C4636 H4628 0.950 . S
C4636 C4637 1.386 . S
C4636 C4638 1.391 . S
C4637 C4636 1.386 . S
C4637 C4641 1.393 . S
C4638 H4630 0.950 . S
C4638 C4636 1.391 . S
C4638 C4639 1.400 . S
C4639 C4638 1.400 . S
C4639 C4640 1.398 . S
C4639 C4645 1.491 . S
C4640 H4631 0.950 . S
C4640 C4639 1.398 . S
C4640 C4641 1.391 . S
C4641 H4629 0.950 . S
C4641 C4637 1.393 . S
C4641 C4640 1.391 . S
C4642 H4632 0.950 . S
C4642 C4643 1.386 . S
C4642 C4644 1.391 . S
C4643 C4642 1.386 . S
C4643 C4647 1.393 . S
C4644 H4633 0.950 . S
C4644 C4642 1.391 . S
C4644 C4645 1.400 . S
C4645 C4639 1.491 . S
C4645 C4644 1.400 . S
C4645 C4646 1.398 . S
C4646 H4634 0.950 . S
C4646 C4645 1.398 . S
C4646 C4647 1.391 . S
C4647 H4635 0.950 . S
C4647 C4643 1.393 . S
C4647 C4646 1.391 . S
H4648 C4656 0.950 . S
H4649 C4661 0.950 . S
H4650 C4658 0.950 . S
H4651 C4660 0.950 . S
H4652 C4662 0.950 . S
H4653 C4664 0.950 . S
H4654 C4666 0.950 . S
H4655 C4667 0.950 . S
C4656 H4648 0.950 . S
C4656 C4657 1.386 . S
C4656 C4658 1.391 . S
C4657 C4656 1.386 . S
C4657 C4661 1.393 . S
C4658 H4650 0.950 . S
C4658 C4656 1.391 . S
C4658 C4659 1.400 . S
C4659 C4658 1.400 . S
C4659 C4660 1.398 . S
C4659 C4665 1.491 . S
C4660 H4651 0.950 . S
C4660 C4659 1.398 . S
C4660 C4661 1.391 . S
C4661 H4649 0.950 . S
C4661 C4657 1.393 . S
C4661 C4660 1.391 . S
C4662 H4652 0.950 . S
C4662 C4663 1.386 . S
C4662 C4664 1.391 . S
C4663 C4662 1.386 . S
C4663 C4667 1.393 . S
C4664 H4653 0.950 . S
C4664 C4662 1.391 . S
C4664 C4665 1.400 . S
C4665 C4659 1.491 . S
C4665 C4664 1.400 . S
C4665 C4666 1.398 . S
C4666 H4654 0.950 . S
C4666 C4665 1.398 . S
C4666 C4667 1.391 . S
C4667 H4655 0.950 . S
C4667 C4663 1.393 . S
C4667 C4666 1.391 . S
H4668 C4676 0.950 . S
H4669 C4681 0.950 . S
H4670 C4678 0.950 . S
H4671 C4680 0.950 . S
H4672 C4682 0.950 . S
H4673 C4684 0.950 . S
H4674 C4686 0.950 . S
H4675 C4687 0.950 . S
C4676 H4668 0.950 . S
C4676 C4677 1.386 . S
C4676 C4678 1.391 . S
C4677 C4676 1.386 . S
C4677 C4681 1.393 . S
C4678 H4670 0.950 . S
C4678 C4676 1.391 . S
C4678 C4679 1.400 . S
C4679 C4678 1.400 . S
C4679 C4680 1.398 . S
C4679 C4685 1.491 . S
C4680 H4671 0.950 . S
C4680 C4679 1.398 . S
C4680 C4681 1.391 . S
C4681 H4669 0.950 . S
C4681 C4677 1.393 . S
C4681 C4680 1.391 . S
C4682 H4672 0.950 . S
C4682 C4683 1.386 . S
C4682 C4684 1.391 . S
C4683 C4682 1.386 . S
C4683 C4687 1.393 . S
C4684 H4673 0.950 . S
C4684 C4682 1.391 . S
C4684 C4685 1.400 . S
C4685 C4679 1.491 . S
C4685 C4684 1.400 . S
C4685 C4686 1.398 . S
C4686 H4674 0.950 . S
C4686 C4685 1.398 . S
C4686 C4687 1.391 . S
C4687 H4675 0.950 . S
C4687 C4683 1.393 . S
C4687 C4686 1.391 . S
H4688 C4696 0.950 . S
H4689 C4701 0.950 . S
H4690 C4698 0.950 . S
H4691 C4700 0.950 . S
H4692 C4702 0.950 . S
H4693 C4704 0.950 . S
H4694 C4706 0.950 . S
H4695 C4707 0.950 . S
C4696 H4688 0.950 . S
C4696 C4697 1.386 . S
C4696 C4698 1.391 . S
C4697 C4696 1.386 . S
C4697 C4701 1.393 . S
C4698 H4690 0.950 . S
C4698 C4696 1.391 . S
C4698 C4699 1.400 . S
C4699 C4698 1.400 . S
C4699 C4700 1.398 . S
C4699 C4705 1.491 . S
C4700 H4691 0.950 . S
C4700 C4699 1.398 . S
C4700 C4701 1.391 . S
C4701 H4689 0.950 . S
C4701 C4697 1.393 . S
C4701 C4700 1.391 . S
C4702 H4692 0.950 . S
C4702 C4703 1.386 . S
C4702 C4704 1.391 . S
C4703 C4702 1.386 . S
C4703 C4707 1.393 . S
C4704 H4693 0.950 . S
C4704 C4702 1.391 . S
C4704 C4705 1.400 . S
C4705 C4699 1.491 . S
C4705 C4704 1.400 . S
C4705 C4706 1.398 . S
C4706 H4694 0.950 . S
C4706 C4705 1.398 . S
C4706 C4707 1.391 . S
C4707 H4695 0.950 . S
C4707 C4703 1.393 . S
C4707 C4706 1.391 . S
H4708 C4716 0.950 . S
H4709 C4721 0.950 . S
H4710 C4718 0.950 . S
H4711 C4720 0.950 . S
H4712 C4722 0.950 . S
H4713 C4724 0.950 . S
H4714 C4726 0.950 . S
H4715 C4727 0.950 . S
C4716 H4708 0.950 . S
C4716 C4717 1.386 . S
C4716 C4718 1.391 . S
C4717 C4716 1.386 . S
C4717 C4721 1.393 . S
C4718 H4710 0.950 . S
C4718 C4716 1.391 . S
C4718 C4719 1.400 . S
C4719 C4718 1.400 . S
C4719 C4720 1.398 . S
C4719 C4725 1.491 . S
C4720 H4711 0.950 . S
C4720 C4719 1.398 . S
C4720 C4721 1.391 . S
C4721 H4709 0.950 . S
C4721 C4717 1.393 . S
C4721 C4720 1.391 . S
C4722 H4712 0.950 . S
C4722 C4723 1.386 . S
C4722 C4724 1.391 . S
C4723 C4722 1.386 . S
C4723 C4727 1.393 . S
C4724 H4713 0.950 . S
C4724 C4722 1.391 . S
C4724 C4725 1.400 . S
C4725 C4719 1.491 . S
C4725 C4724 1.400 . S
C4725 C4726 1.398 . S
C4726 H4714 0.950 . S
C4726 C4725 1.398 . S
C4726 C4727 1.391 . S
C4727 H4715 0.950 . S
C4727 C4723 1.393 . S
C4727 C4726 1.391 . S
H4728 C4736 0.950 . S
H4729 C4741 0.950 . S
H4730 C4738 0.950 . S
H4731 C4740 0.950 . S
H4732 C4742 0.950 . S
H4733 C4744 0.950 . S
H4734 C4746 0.950 . S
H4735 C4747 0.950 . S
C4736 H4728 0.950 . S
C4736 C4737 1.386 . S
C4736 C4738 1.391 . S
C4737 C4736 1.386 . S
C4737 C4741 1.393 . S
C4738 H4730 0.950 . S
C4738 C4736 1.391 . S
C4738 C4739 1.400 . S
C4739 C4738 1.400 . S
C4739 C4740 1.398 . S
C4739 C4745 1.491 . S
C4740 H4731 0.950 . S
C4740 C4739 1.398 . S
C4740 C4741 1.391 . S
C4741 H4729 0.950 . S
C4741 C4737 1.393 . S
C4741 C4740 1.391 . S
C4742 H4732 0.950 . S
C4742 C4743 1.386 . S
C4742 C4744 1.391 . S
C4743 C4742 1.386 . S
C4743 C4747 1.393 . S
C4744 H4733 0.950 . S
C4744 C4742 1.391 . S
C4744 C4745 1.400 . S
C4745 C4739 1.491 . S
C4745 C4744 1.400 . S
C4745 C4746 1.398 . S
C4746 H4734 0.950 . S
C4746 C4745 1.398 . S
C4746 C4747 1.391 . S
C4747 H4735 0.950 . S
C4747 C4743 1.393 . S
C4747 C4746 1.391 . S
H4748 C4756 0.950 . S
H4749 C4761 0.950 . S
H4750 C4758 0.950 . S
H4751 C4760 0.950 . S
H4752 C4762 0.950 . S
H4753 C4764 0.950 . S
H4754 C4766 0.950 . S
H4755 C4767 0.950 . S
C4756 H4748 0.950 . S
C4756 C4757 1.386 . S
C4756 C4758 1.391 . S
C4757 C4756 1.386 . S
C4757 C4761 1.393 . S
C4758 H4750 0.950 . S
C4758 C4756 1.391 . S
C4758 C4759 1.400 . S
C4759 C4758 1.400 . S
C4759 C4760 1.398 . S
C4759 C4765 1.491 . S
C4760 H4751 0.950 . S
C4760 C4759 1.398 . S
C4760 C4761 1.391 . S
C4761 H4749 0.950 . S
C4761 C4757 1.393 . S
C4761 C4760 1.391 . S
C4762 H4752 0.950 . S
C4762 C4763 1.386 . S
C4762 C4764 1.391 . S
C4763 C4762 1.386 . S
C4763 C4767 1.393 . S
C4764 H4753 0.950 . S
C4764 C4762 1.391 . S
C4764 C4765 1.400 . S
C4765 C4759 1.491 . S
C4765 C4764 1.400 . S
C4765 C4766 1.398 . S
C4766 H4754 0.950 . S
C4766 C4765 1.398 . S
C4766 C4767 1.391 . S
C4767 H4755 0.950 . S
C4767 C4763 1.393 . S
C4767 C4766 1.391 . S
H4768 C4776 0.950 . S
H4769 C4781 0.950 . S
H4770 C4778 0.950 . S
H4771 C4780 0.950 . S
H4772 C4782 0.950 . S
H4773 C4784 0.950 . S
H4774 C4786 0.950 . S
H4775 C4787 0.950 . S
C4776 H4768 0.950 . S
C4776 C4777 1.386 . S
C4776 C4778 1.391 . S
C4777 C4776 1.386 . S
C4777 C4781 1.393 . S
C4778 H4770 0.950 . S
C4778 C4776 1.391 . S
C4778 C4779 1.400 . S
C4779 C4778 1.400 . S
C4779 C4780 1.398 . S
C4779 C4785 1.491 . S
C4780 H4771 0.950 . S
C4780 C4779 1.398 . S
C4780 C4781 1.391 . S
C4781 H4769 0.950 . S
C4781 C4777 1.393 . S
C4781 C4780 1.391 . S
C4782 H4772 0.950 . S
C4782 C4783 1.386 . S
C4782 C4784 1.391 . S
C4783 C4782 1.386 . S
C4783 C4787 1.393 . S
C4784 H4773 0.950 . S
C4784 C4782 1.391 . S
C4784 C4785 1.400 . S
C4785 C4779 1.491 . S
C4785 C4784 1.400 . S
C4785 C4786 1.398 . S
C4786 H4774 0.950 . S
C4786 C4785 1.398 . S
C4786 C4787 1.391 . S
C4787 H4775 0.950 . S
C4787 C4783 1.393 . S
C4787 C4786 1.391 . S
H4788 C4796 0.950 . S
H4789 C4801 0.950 . S
H4790 C4798 0.950 . S
H4791 C4800 0.950 . S
H4792 C4802 0.950 . S
H4793 C4804 0.950 . S
H4794 C4806 0.950 . S
H4795 C4807 0.950 . S
C4796 H4788 0.950 . S
C4796 C4797 1.386 . S
C4796 C4798 1.391 . S
C4797 C4796 1.386 . S
C4797 C4801 1.393 . S
C4798 H4790 0.950 . S
C4798 C4796 1.391 . S
C4798 C4799 1.400 . S
C4799 C4798 1.400 . S
C4799 C4800 1.398 . S
C4799 C4805 1.491 . S
C4800 H4791 0.950 . S
C4800 C4799 1.398 . S
C4800 C4801 1.391 . S
C4801 H4789 0.950 . S
C4801 C4797 1.393 . S
C4801 C4800 1.391 . S
C4802 H4792 0.950 . S
C4802 C4803 1.386 . S
C4802 C4804 1.391 . S
C4803 C4802 1.386 . S
C4803 C4807 1.393 . S
C4804 H4793 0.950 . S
C4804 C4802 1.391 . S
C4804 C4805 1.400 . S
C4805 C4799 1.491 . S
C4805 C4804 1.400 . S
C4805 C4806 1.398 . S
C4806 H4794 0.950 . S
C4806 C4805 1.398 . S
C4806 C4807 1.391 . S
C4807 H4795 0.950 . S
C4807 C4803 1.393 . S
C4807 C4806 1.391 . S
H4808 C4816 0.950 . S
H4809 C4821 0.950 . S
H4810 C4818 0.950 . S
H4811 C4820 0.950 . S
H4812 C4822 0.950 . S
H4813 C4824 0.950 . S
H4814 C4826 0.950 . S
H4815 C4827 0.950 . S
C4816 H4808 0.950 . S
C4816 C4817 1.386 . S
C4816 C4818 1.391 . S
C4817 C4816 1.386 . S
C4817 C4821 1.393 . S
C4818 H4810 0.950 . S
C4818 C4816 1.391 . S
C4818 C4819 1.400 . S
C4819 C4818 1.400 . S
C4819 C4820 1.398 . S
C4819 C4825 1.491 . S
C4820 H4811 0.950 . S
C4820 C4819 1.398 . S
C4820 C4821 1.391 . S
C4821 H4809 0.950 . S
C4821 C4817 1.393 . S
C4821 C4820 1.391 . S
C4822 H4812 0.950 . S
C4822 C4823 1.386 . S
C4822 C4824 1.391 . S
C4823 C4822 1.386 . S
C4823 C4827 1.393 . S
C4824 H4813 0.950 . S
C4824 C4822 1.391 . S
C4824 C4825 1.400 . S
C4825 C4819 1.491 . S
C4825 C4824 1.400 . S
C4825 C4826 1.398 . S
C4826 H4814 0.950 . S
C4826 C4825 1.398 . S
C4826 C4827 1.391 . S
C4827 H4815 0.950 . S
C4827 C4823 1.393 . S
C4827 C4826 1.391 . S
H4828 C4836 0.950 . S
H4829 C4841 0.950 . S
H4830 C4838 0.950 . S
H4831 C4840 0.950 . S
H4832 C4842 0.950 . S
H4833 C4844 0.950 . S
H4834 C4846 0.950 . S
H4835 C4847 0.950 . S
C4836 H4828 0.950 . S
C4836 C4837 1.386 . S
C4836 C4838 1.391 . S
C4837 C4836 1.386 . S
C4837 C4841 1.393 . S
C4838 H4830 0.950 . S
C4838 C4836 1.391 . S
C4838 C4839 1.400 . S
C4839 C4838 1.400 . S
C4839 C4840 1.398 . S
C4839 C4845 1.491 . S
C4840 H4831 0.950 . S
C4840 C4839 1.398 . S
C4840 C4841 1.391 . S
C4841 H4829 0.950 . S
C4841 C4837 1.393 . S
C4841 C4840 1.391 . S
C4842 H4832 0.950 . S
C4842 C4843 1.386 . S
C4842 C4844 1.391 . S
C4843 C4842 1.386 . S
C4843 C4847 1.393 . S
C4844 H4833 0.950 . S
C4844 C4842 1.391 . S
C4844 C4845 1.400 . S
C4845 C4839 1.491 . S
C4845 C4844 1.400 . S
C4845 C4846 1.398 . S
C4846 H4834 0.950 . S
C4846 C4845 1.398 . S
C4846 C4847 1.391 . S
C4847 H4835 0.950 . S
C4847 C4843 1.393 . S
C4847 C4846 1.391 . S
H4848 C4856 0.950 . S
H4849 C4861 0.950 . S
H4850 C4858 0.950 . S
H4851 C4860 0.950 . S
H4852 C4862 0.950 . S
H4853 C4864 0.950 . S
H4854 C4866 0.950 . S
H4855 C4867 0.950 . S
C4856 H4848 0.950 . S
C4856 C4857 1.386 . S
C4856 C4858 1.391 . S
C4857 C4856 1.386 . S
C4857 C4861 1.393 . S
C4858 H4850 0.950 . S
C4858 C4856 1.391 . S
C4858 C4859 1.400 . S
C4859 C4858 1.400 . S
C4859 C4860 1.398 . S
C4859 C4865 1.491 . S
C4860 H4851 0.950 . S
C4860 C4859 1.398 . S
C4860 C4861 1.391 . S
C4861 H4849 0.950 . S
C4861 C4857 1.393 . S
C4861 C4860 1.391 . S
C4862 H4852 0.950 . S
C4862 C4863 1.386 . S
C4862 C4864 1.391 . S
C4863 C4862 1.386 . S
C4863 C4867 1.393 . S
C4864 H4853 0.950 . S
C4864 C4862 1.391 . S
C4864 C4865 1.400 . S
C4865 C4859 1.491 . S
C4865 C4864 1.400 . S
C4865 C4866 1.398 . S
C4866 H4854 0.950 . S
C4866 C4865 1.398 . S
C4866 C4867 1.391 . S
C4867 H4855 0.950 . S
C4867 C4863 1.393 . S
C4867 C4866 1.391 . S
H4868 C4876 0.950 . S
H4869 C4881 0.950 . S
H4870 C4878 0.950 . S
H4871 C4880 0.950 . S
H4872 C4882 0.950 . S
H4873 C4884 0.950 . S
H4874 C4886 0.950 . S
H4875 C4887 0.950 . S
C4876 H4868 0.950 . S
C4876 C4877 1.386 . S
C4876 C4878 1.391 . S
C4877 C4876 1.386 . S
C4877 C4881 1.393 . S
C4878 H4870 0.950 . S
C4878 C4876 1.391 . S
C4878 C4879 1.400 . S
C4879 C4878 1.400 . S
C4879 C4880 1.398 . S
C4879 C4885 1.491 . S
C4880 H4871 0.950 . S
C4880 C4879 1.398 . S
C4880 C4881 1.391 . S
C4881 H4869 0.950 . S
C4881 C4877 1.393 . S
C4881 C4880 1.391 . S
C4882 H4872 0.950 . S
C4882 C4883 1.386 . S
C4882 C4884 1.391 . S
C4883 C4882 1.386 . S
C4883 C4887 1.393 . S
C4884 H4873 0.950 . S
C4884 C4882 1.391 . S
C4884 C4885 1.400 . S
C4885 C4879 1.491 . S
C4885 C4884 1.400 . S
C4885 C4886 1.398 . S
C4886 H4874 0.950 . S
C4886 C4885 1.398 . S
C4886 C4887 1.391 . S
C4887 H4875 0.950 . S
C4887 C4883 1.393 . S
C4887 C4886 1.391 . S
H4888 C4896 0.950 . S
H4889 C4901 0.950 . S
H4890 C4898 0.950 . S
H4891 C4900 0.950 . S
H4892 C4902 0.950 . S
H4893 C4904 0.950 . S
H4894 C4906 0.950 . S
H4895 C4907 0.950 . S
C4896 H4888 0.950 . S
C4896 C4897 1.386 . S
C4896 C4898 1.391 . S
C4897 C4896 1.386 . S
C4897 C4901 1.393 . S
C4898 H4890 0.950 . S
C4898 C4896 1.391 . S
C4898 C4899 1.400 . S
C4899 C4898 1.400 . S
C4899 C4900 1.398 . S
C4899 C4905 1.491 . S
C4900 H4891 0.950 . S
C4900 C4899 1.398 . S
C4900 C4901 1.391 . S
C4901 H4889 0.950 . S
C4901 C4897 1.393 . S
C4901 C4900 1.391 . S
C4902 H4892 0.950 . S
C4902 C4903 1.386 . S
C4902 C4904 1.391 . S
C4903 C4902 1.386 . S
C4903 C4907 1.393 . S
C4904 H4893 0.950 . S
C4904 C4902 1.391 . S
C4904 C4905 1.400 . S
C4905 C4899 1.491 . S
C4905 C4904 1.400 . S
C4905 C4906 1.398 . S
C4906 H4894 0.950 . S
C4906 C4905 1.398 . S
C4906 C4907 1.391 . S
C4907 H4895 0.950 . S
C4907 C4903 1.393 . S
C4907 C4906 1.391 . S
H4908 C4916 0.950 . S
H4909 C4921 0.950 . S
H4910 C4918 0.950 . S
H4911 C4920 0.950 . S
H4912 C4922 0.950 . S
H4913 C4924 0.950 . S
H4914 C4926 0.950 . S
H4915 C4927 0.950 . S
C4916 H4908 0.950 . S
C4916 C4917 1.386 . S
C4916 C4918 1.391 . S
C4917 C4916 1.386 . S
C4917 C4921 1.393 . S
C4918 H4910 0.950 . S
C4918 C4916 1.391 . S
C4918 C4919 1.400 . S
C4919 C4918 1.400 . S
C4919 C4920 1.398 . S
C4919 C4925 1.491 . S
C4920 H4911 0.950 . S
C4920 C4919 1.398 . S
C4920 C4921 1.391 . S
C4921 H4909 0.950 . S
C4921 C4917 1.393 . S
C4921 C4920 1.391 . S
C4922 H4912 0.950 . S
C4922 C4923 1.386 . S
C4922 C4924 1.391 . S
C4923 C4922 1.386 . S
C4923 C4927 1.393 . S
C4924 H4913 0.950 . S
C4924 C4922 1.391 . S
C4924 C4925 1.400 . S
C4925 C4919 1.491 . S
C4925 C4924 1.400 . S
C4925 C4926 1.398 . S
C4926 H4914 0.950 . S
C4926 C4925 1.398 . S
C4926 C4927 1.391 . S
C4927 H4915 0.950 . S
C4927 C4923 1.393 . S
C4927 C4926 1.391 . S
H4928 C4936 0.950 . S
H4929 C4941 0.950 . S
H4930 C4938 0.950 . S
H4931 C4940 0.950 . S
H4932 C4942 0.950 . S
H4933 C4944 0.950 . S
H4934 C4946 0.950 . S
H4935 C4947 0.950 . S
C4936 H4928 0.950 . S
C4936 C4937 1.386 . S
C4936 C4938 1.391 . S
C4937 C4936 1.386 . S
C4937 C4941 1.393 . S
C4938 H4930 0.950 . S
C4938 C4936 1.391 . S
C4938 C4939 1.400 . S
C4939 C4938 1.400 . S
C4939 C4940 1.398 . S
C4939 C4945 1.491 . S
C4940 H4931 0.950 . S
C4940 C4939 1.398 . S
C4940 C4941 1.391 . S
C4941 H4929 0.950 . S
C4941 C4937 1.393 . S
C4941 C4940 1.391 . S
C4942 H4932 0.950 . S
C4942 C4943 1.386 . S
C4942 C4944 1.391 . S
C4943 C4942 1.386 . S
C4943 C4947 1.393 . S
C4944 H4933 0.950 . S
C4944 C4942 1.391 . S
C4944 C4945 1.400 . S
C4945 C4939 1.491 . S
C4945 C4944 1.400 . S
C4945 C4946 1.398 . S
C4946 H4934 0.950 . S
C4946 C4945 1.398 . S
C4946 C4947 1.391 . S
C4947 H4935 0.950 . S
C4947 C4943 1.393 . S
C4947 C4946 1.391 . S
H4948 C4956 0.950 . S
H4949 C4961 0.950 . S
H4950 C4958 0.950 . S
H4951 C4960 0.950 . S
H4952 C4962 0.950 . S
H4953 C4964 0.950 . S
H4954 C4966 0.950 . S
H4955 C4967 0.950 . S
C4956 H4948 0.950 . S
C4956 C4957 1.386 . S
C4956 C4958 1.391 . S
C4957 C4956 1.386 . S
C4957 C4961 1.393 . S
C4958 H4950 0.950 . S
C4958 C4956 1.391 . S
C4958 C4959 1.400 . S
C4959 C4958 1.400 . S
C4959 C4960 1.398 . S
C4959 C4965 1.491 . S
C4960 H4951 0.950 . S
C4960 C4959 1.398 . S
C4960 C4961 1.391 . S
C4961 H4949 0.950 . S
C4961 C4957 1.393 . S
C4961 C4960 1.391 . S
C4962 H4952 0.950 . S
C4962 C4963 1.386 . S
C4962 C4964 1.391 . S
C4963 C4962 1.386 . S
C4963 C4967 1.393 . S
C4964 H4953 0.950 . S
C4964 C4962 1.391 . S
C4964 C4965 1.400 . S
C4965 C4959 1.491 . S
C4965 C4964 1.400 . S
C4965 C4966 1.398 . S
C4966 H4954 0.950 . S
C4966 C4965 1.398 . S
C4966 C4967 1.391 . S
C4967 H4955 0.950 . S
C4967 C4963 1.393 . S
C4967 C4966 1.391 . S
H4968 C4976 0.950 . S
H4969 C4981 0.950 . S
H4970 C4978 0.950 . S
H4971 C4980 0.950 . S
H4972 C4982 0.950 . S
H4973 C4984 0.950 . S
H4974 C4986 0.950 . S
H4975 C4987 0.950 . S
C4976 H4968 0.950 . S
C4976 C4977 1.386 . S
C4976 C4978 1.391 . S
C4977 C4976 1.386 . S
C4977 C4981 1.393 . S
C4978 H4970 0.950 . S
C4978 C4976 1.391 . S
C4978 C4979 1.400 . S
C4979 C4978 1.400 . S
C4979 C4980 1.398 . S
C4979 C4985 1.491 . S
C4980 H4971 0.950 . S
C4980 C4979 1.398 . S
C4980 C4981 1.391 . S
C4981 H4969 0.950 . S
C4981 C4977 1.393 . S
C4981 C4980 1.391 . S
C4982 H4972 0.950 . S
C4982 C4983 1.386 . S
C4982 C4984 1.391 . S
C4983 C4982 1.386 . S
C4983 C4987 1.393 . S
C4984 H4973 0.950 . S
C4984 C4982 1.391 . S
C4984 C4985 1.400 . S
C4985 C4979 1.491 . S
C4985 C4984 1.400 . S
C4985 C4986 1.398 . S
C4986 H4974 0.950 . S
C4986 C4985 1.398 . S
C4986 C4987 1.391 . S
C4987 H4975 0.950 . S
C4987 C4983 1.393 . S
C4987 C4986 1.391 . S
H4988 C4996 0.950 . S
H4989 C5001 0.950 . S
H4990 C4998 0.950 . S
H4991 C5000 0.950 . S
H4992 C5002 0.950 . S
H4993 C5004 0.950 . S
H4994 C5006 0.950 . S
H4995 C5007 0.950 . S
C4996 H4988 0.950 . S
C4996 C4997 1.386 . S
C4996 C4998 1.391 . S
C4997 C4996 1.386 . S
C4997 C5001 1.393 . S
C4998 H4990 0.950 . S
C4998 C4996 1.391 . S
C4998 C4999 1.400 . S
C4999 C4998 1.400 . S
C4999 C5000 1.398 . S
C4999 C5005 1.491 . S
C5000 H4991 0.950 . S
C5000 C4999 1.398 . S
C5000 C5001 1.391 . S
C5001 H4989 0.950 . S
C5001 C4997 1.393 . S
C5001 C5000 1.391 . S
C5002 H4992 0.950 . S
C5002 C5003 1.386 . S
C5002 C5004 1.391 . S
C5003 C5002 1.386 . S
C5003 C5007 1.393 . S
C5004 H4993 0.950 . S
C5004 C5002 1.391 . S
C5004 C5005 1.400 . S
C5005 C4999 1.491 . S
C5005 C5004 1.400 . S
C5005 C5006 1.398 . S
C5006 H4994 0.950 . S
C5006 C5005 1.398 . S
C5006 C5007 1.391 . S
C5007 H4995 0.950 . S
C5007 C5003 1.393 . S
C5007 C5006 1.391 . S
H5008 C5016 0.950 . S
H5009 C5021 0.950 . S
H5010 C5018 0.950 . S
H5011 C5020 0.950 . S
H5012 C5022 0.950 . S
H5013 C5024 0.950 . S
H5014 C5026 0.950 . S
H5015 C5027 0.950 . S
C5016 H5008 0.950 . S
C5016 C5017 1.386 . S
C5016 C5018 1.391 . S
C5017 C5016 1.386 . S
C5017 C5021 1.393 . S
C5018 H5010 0.950 . S
C5018 C5016 1.391 . S
C5018 C5019 1.400 . S
C5019 C5018 1.400 . S
C5019 C5020 1.398 . S
C5019 C5025 1.491 . S
C5020 H5011 0.950 . S
C5020 C5019 1.398 . S
C5020 C5021 1.391 . S
C5021 H5009 0.950 . S
C5021 C5017 1.393 . S
C5021 C5020 1.391 . S
C5022 H5012 0.950 . S
C5022 C5023 1.386 . S
C5022 C5024 1.391 . S
C5023 C5022 1.386 . S
C5023 C5027 1.393 . S
C5024 H5013 0.950 . S
C5024 C5022 1.391 . S
C5024 C5025 1.400 . S
C5025 C5019 1.491 . S
C5025 C5024 1.400 . S
C5025 C5026 1.398 . S
C5026 H5014 0.950 . S
C5026 C5025 1.398 . S
C5026 C5027 1.391 . S
C5027 H5015 0.950 . S
C5027 C5023 1.393 . S
C5027 C5026 1.391 . S
H5028 C5036 0.950 . S
H5029 C5041 0.950 . S
H5030 C5038 0.950 . S
H5031 C5040 0.950 . S
H5032 C5042 0.950 . S
H5033 C5044 0.950 . S
H5034 C5046 0.950 . S
H5035 C5047 0.950 . S
C5036 H5028 0.950 . S
C5036 C5037 1.386 . S
C5036 C5038 1.391 . S
C5037 C5036 1.386 . S
C5037 C5041 1.393 . S
C5038 H5030 0.950 . S
C5038 C5036 1.391 . S
C5038 C5039 1.400 . S
C5039 C5038 1.400 . S
C5039 C5040 1.398 . S
C5039 C5045 1.491 . S
C5040 H5031 0.950 . S
C5040 C5039 1.398 . S
C5040 C5041 1.391 . S
C5041 H5029 0.950 . S
C5041 C5037 1.393 . S
C5041 C5040 1.391 . S
C5042 H5032 0.950 . S
C5042 C5043 1.386 . S
C5042 C5044 1.391 . S
C5043 C5042 1.386 . S
C5043 C5047 1.393 . S
C5044 H5033 0.950 . S
C5044 C5042 1.391 . S
C5044 C5045 1.400 . S
C5045 C5039 1.491 . S
C5045 C5044 1.400 . S
C5045 C5046 1.398 . S
C5046 H5034 0.950 . S
C5046 C5045 1.398 . S
C5046 C5047 1.391 . S
C5047 H5035 0.950 . S
C5047 C5043 1.393 . S
C5047 C5046 1.391 . S
H5048 C5056 0.950 . S
H5049 C5061 0.950 . S
H5050 C5058 0.950 . S
H5051 C5060 0.950 . S
H5052 C5062 0.950 . S
H5053 C5064 0.950 . S
H5054 C5066 0.950 . S
H5055 C5067 0.950 . S
C5056 H5048 0.950 . S
C5056 C5057 1.386 . S
C5056 C5058 1.391 . S
C5057 C5056 1.386 . S
C5057 C5061 1.393 . S
C5058 H5050 0.950 . S
C5058 C5056 1.391 . S
C5058 C5059 1.400 . S
C5059 C5058 1.400 . S
C5059 C5060 1.398 . S
C5059 C5065 1.491 . S
C5060 H5051 0.950 . S
C5060 C5059 1.398 . S
C5060 C5061 1.391 . S
C5061 H5049 0.950 . S
C5061 C5057 1.393 . S
C5061 C5060 1.391 . S
C5062 H5052 0.950 . S
C5062 C5063 1.386 . S
C5062 C5064 1.391 . S
C5063 C5062 1.386 . S
C5063 C5067 1.393 . S
C5064 H5053 0.950 . S
C5064 C5062 1.391 . S
C5064 C5065 1.400 . S
C5065 C5059 1.491 . S
C5065 C5064 1.400 . S
C5065 C5066 1.398 . S
C5066 H5054 0.950 . S
C5066 C5065 1.398 . S
C5066 C5067 1.391 . S
C5067 H5055 0.950 . S
C5067 C5063 1.393 . S
C5067 C5066 1.391 . S
H5068 C5076 0.950 . S
H5069 C5081 0.950 . S
H5070 C5078 0.950 . S
H5071 C5080 0.950 . S
H5072 C5082 0.950 . S
H5073 C5084 0.950 . S
H5074 C5086 0.950 . S
H5075 C5087 0.950 . S
C5076 H5068 0.950 . S
C5076 C5077 1.386 . S
C5076 C5078 1.391 . S
C5077 C5076 1.386 . S
C5077 C5081 1.393 . S
C5078 H5070 0.950 . S
C5078 C5076 1.391 . S
C5078 C5079 1.400 . S
C5079 C5078 1.400 . S
C5079 C5080 1.398 . S
C5079 C5085 1.491 . S
C5080 H5071 0.950 . S
C5080 C5079 1.398 . S
C5080 C5081 1.391 . S
C5081 H5069 0.950 . S
C5081 C5077 1.393 . S
C5081 C5080 1.391 . S
C5082 H5072 0.950 . S
C5082 C5083 1.386 . S
C5082 C5084 1.391 . S
C5083 C5082 1.386 . S
C5083 C5087 1.393 . S
C5084 H5073 0.950 . S
C5084 C5082 1.391 . S
C5084 C5085 1.400 . S
C5085 C5079 1.491 . S
C5085 C5084 1.400 . S
C5085 C5086 1.398 . S
C5086 H5074 0.950 . S
C5086 C5085 1.398 . S
C5086 C5087 1.391 . S
C5087 H5075 0.950 . S
C5087 C5083 1.393 . S
C5087 C5086 1.391 . S
C1257 C10 1.565 . S
C1263 C562 1.590 . S
C1277 C577 1.547 . S
C1283 C23 1.556 . S
C1297 C36 1.566 . S
C1303 C536 1.589 . S
C1317 C1175 1.544 . S
C1323 C49 1.556 . S
C1337 C1212 1.590 . S
C1343 C62 1.570 . S
C1357 C1227 1.533 . S
C1363 C75 1.568 . S
C1377 C1147 1.591 . S
C1383 C88 1.556 . S
C1397 C1240 1.540 . S
C1403 C101 1.555 . S
C1417 C114 1.571 . S
C1423 C341 1.589 . S
C1437 C978 1.591 . S
C1443 C127 1.564 . S
C1457 C315 1.589 . S
C1463 C140 1.569 . S
C1477 C952 1.590 . S
C1483 C153 1.572 . S
C1497 C166 1.564 . S
C1503 C393 1.590 . S
C1517 C179 1.564 . S
C1523 C1030 1.591 . S
C1537 C192 1.558 . S
C1543 C367 1.591 . S
C1557 C205 1.571 . S
C1563 C1004 1.589 . S
C1577 C1097 1.551 . S
C1583 C218 1.560 . S
C1597 C231 1.571 . S
C1603 C421 1.537 . S
C1617 C244 1.557 . S
C1623 C1056 1.591 . S
C1637 C447 1.535 . S
C1643 C257 1.556 . S
C1657 C458 1.592 . S
C1663 C270 1.559 . S
C1677 C1123 1.539 . S
C1683 C283 1.572 . S
C1697 C296 1.566 . S
C1703 C1134 1.591 . S
C1717 C1108 1.589 . S
C1723 C309 1.572 . S
C1737 C250 1.541 . S
C1743 C322 1.582 . S
C1757 C335 1.583 . S
C1763 C263 1.544 . S
C1777 C348 1.585 . S
C1783 C224 1.550 . S
C1797 C361 1.582 . S
C1803 C861 1.542 . S
C1817 C900 1.542 . S
C1823 C374 1.580 . S
C1837 C387 1.586 . S
C1843 C913 1.553 . S
C1857 C835 1.533 . S
C1863 C400 1.576 . S
C1877 C926 1.551 . S
C1883 C413 1.586 . S
C1897 C417 1.566 . S
C1903 C29 1.532 . S
C1917 C666 1.552 . S
C1923 C439 1.586 . S
C1937 C443 1.560 . S
C1943 C3 1.531 . S
C1957 C640 1.538 . S
C1963 C465 1.578 . S
C1977 C469 1.558 . S
C1983 C81 1.549 . S
C1997 C491 1.576 . S
C2003 C718 1.531 . S
C2017 C55 1.552 . S
C2023 C495 1.569 . S
C2037 C692 1.543 . S
C2043 C517 1.580 . S
C2057 C783 1.553 . S
C2063 C530 1.585 . S
C2077 C107 1.552 . S
C2083 C543 1.586 . S
C2097 C744 1.538 . S
C2103 C547 1.555 . S
C2117 C569 1.578 . S
C2123 C133 1.538 . S
C2137 C573 1.555 . S
C2143 C146 1.542 . S
C2157 C595 1.584 . S
C2163 C809 1.550 . S
C2177 C599 1.556 . S
C2183 C822 1.536 . S
C2197 C612 1.570 . S
C2203 C796 1.536 . S
C2217 C1186 1.591 . S
C2223 C634 1.566 . S
C2237 C1201 1.553 . S
C2243 C647 1.563 . S
C2257 C1160 1.589 . S
C2263 C660 1.569 . S
C2277 C673 1.562 . S
C2283 C551 1.553 . S
C2297 C686 1.572 . S
C2303 C588 1.590 . S
C2317 C699 1.559 . S
C2323 C603 1.532 . S
C2337 C523 1.590 . S
C2343 C712 1.564 . S
C2357 C616 1.534 . S
C2363 C725 1.557 . S
C2377 C738 1.570 . S
C2383 C965 1.589 . S
C2397 C354 1.590 . S
C2403 C751 1.564 . S
C2417 C764 1.568 . S
C2423 C939 1.589 . S
C2437 C328 1.592 . S
C2443 C777 1.556 . S
C2457 C790 1.565 . S
C2463 C1017 1.591 . S
C2477 C406 1.589 . S
C2483 C803 1.572 . S
C2497 C816 1.555 . S
C2503 C991 1.592 . S
C2517 C829 1.571 . S
C2523 C380 1.589 . S
C2537 C842 1.558 . S
C2543 C473 1.549 . S
C2557 C1045 1.553 . S
C2563 C855 1.566 . S
C2577 C868 1.560 . S
C2583 C432 1.592 . S
C2597 C881 1.561 . S
C2603 C1071 1.531 . S
C2617 C894 1.572 . S
C2623 C1082 1.589 . S
C2637 C499 1.539 . S
C2643 C907 1.571 . S
C2657 C510 1.590 . S
C2663 C920 1.569 . S
C2677 C933 1.570 . S
C2683 C484 1.589 . S
C2697 C946 1.586 . S
C2703 C874 1.551 . S
C2717 C959 1.581 . S
C2723 C887 1.539 . S
C2737 C972 1.580 . S
C2743 C848 1.537 . S
C2757 C237 1.548 . S
C2763 C985 1.585 . S
C2777 C276 1.552 . S
C2783 C998 1.585 . S
C2797 C1011 1.586 . S
C2803 C289 1.553 . S
C2817 C211 1.532 . S
C2823 C1024 1.576 . S
C2837 C302 1.531 . S
C2843 C1037 1.576 . S
C2857 C1041 1.558 . S
C2863 C653 1.549 . S
C2877 C42 1.531 . S
C2883 C1063 1.576 . S
C2897 C1067 1.562 . S
C2903 C627 1.553 . S
C2917 C16 1.538 . S
C2923 C1089 1.578 . S
C2937 C705 1.544 . S
C2943 C1093 1.572 . S
C2957 C94 1.543 . S
C2963 C1115 1.583 . S
C2977 C1119 1.567 . S
C2983 C679 1.533 . S
C2997 C68 1.532 . S
C3003 C1141 1.576 . S
C3017 C159 1.553 . S
C3023 C1154 1.586 . S
C3037 C1167 1.580 . S
C3043 C731 1.542 . S
C3057 C1171 1.572 . S
C3063 C120 1.543 . S
C3077 C1193 1.579 . S
C3083 C757 1.540 . S
C3097 C770 1.546 . S
C3103 C1197 1.572 . S
C3117 C1219 1.585 . S
C3123 C185 1.552 . S
C3137 C198 1.553 . S
C3143 C1223 1.564 . S
C3157 C1236 1.555 . S
C3163 C172 1.537 . S
C3177 C57 1.667 . S
C3183 C5 1.663 . S
C3197 C18 1.652 . S
C3203 C70 1.658 . S
C3217 C31 1.666 . S
C3223 C83 1.661 . S
C3237 C96 1.659 . S
C3243 C44 1.653 . S
C3257 C187 1.650 . S
C3263 C109 1.648 . S
C3277 C122 1.664 . S
C3283 C200 1.659 . S
C3297 C135 1.654 . S
C3303 C161 1.660 . S
C3317 C174 1.651 . S
C3323 C148 1.656 . S
C3337 C902 1.655 . S
C3343 C213 1.650 . S
C3357 C226 1.664 . S
C3363 C876 1.659 . S
C3377 C265 1.664 . S
C3383 C239 1.658 . S
C3397 C850 1.649 . S
C3403 C252 1.653 . S
C3417 C837 1.652 . S
C3423 C278 1.657 . S
C3437 C291 1.666 . S
C3443 C928 1.661 . S
C3457 C915 1.666 . S
C3463 C304 1.667 . S
C3477 C317 1.700 . S
C3483 C369 1.700 . S
C3497 C382 1.700 . S
C3503 C330 1.700 . S
C3517 C395 1.701 . S
C3523 C343 1.701 . S
C3537 C408 1.700 . S
C3543 C356 1.700 . S
C3557 C419 1.656 . S
C3563 C497 1.662 . S
C3577 C512 1.700 . S
C3583 C434 1.700 . S
C3597 C471 1.649 . S
C3603 C445 1.648 . S
C3617 C486 1.700 . S
C3623 C460 1.700 . S
C3637 C1214 1.701 . S
C3643 C525 1.701 . S
C3657 C538 1.700 . S
C3663 C1188 1.700 . S
C3677 C575 1.661 . S
C3683 C549 1.666 . S
C3697 C564 1.699 . S
C3703 C1162 1.699 . S
C3717 C590 1.700 . S
C3723 C1149 1.700 . S
C3737 C1238 1.656 . S
C3743 C601 1.651 . S
C3757 C614 1.649 . S
C3763 C1225 1.653 . S
C3777 C629 1.654 . S
C3783 C681 1.650 . S
C3797 C642 1.666 . S
C3803 C694 1.661 . S
C3817 C707 1.650 . S
C3823 C655 1.654 . S
C3837 C668 1.665 . S
C3843 C720 1.659 . S
C3857 C811 1.668 . S
C3863 C733 1.666 . S
C3877 C824 1.649 . S
C3883 C746 1.652 . S
C3897 C759 1.648 . S
C3903 C785 1.648 . S
C3917 C772 1.651 . S
C3923 C798 1.656 . S
C3937 C889 1.667 . S
C3943 C863 1.667 . S
C3957 C993 1.700 . S
C3963 C941 1.701 . S
C3977 C954 1.701 . S
C3983 C1006 1.701 . S
C3997 C967 1.701 . S
C4003 C1019 1.701 . S
C4017 C980 1.700 . S
C4023 C1032 1.700 . S
C4037 C1043 1.658 . S
C4043 C1121 1.664 . S
C4057 C1058 1.701 . S
C4063 C1136 1.701 . S
C4077 C1069 1.662 . S
C4083 C1095 1.666 . S
C4097 C1084 1.700 . S
C4103 C1110 1.700 . S
C4117 C1199 1.655 . S
C4123 C1173 1.650 . S
C4137 C118 1.546 . S
C4143 C1 1.542 . S
C4157 C131 1.549 . S
C4163 C14 1.545 . S
C4177 C144 1.530 . S
C4183 C27 1.534 . S
C4197 C40 1.529 . S
C4203 C105 1.532 . S
C4217 C196 1.531 . S
C4223 C53 1.534 . S
C4237 C157 1.551 . S
C4243 C66 1.548 . S
C4257 C79 1.544 . S
C4263 C170 1.548 . S
C4277 C92 1.553 . S
C4283 C183 1.553 . S
C4297 C209 1.552 . S
C4303 C235 1.549 . S
C4317 C222 1.533 . S
C4323 C911 1.530 . S
C4337 C248 1.549 . S
C4343 C924 1.545 . S
C4357 C898 1.550 . S
C4363 C261 1.546 . S
C4377 C274 1.553 . S
C4383 C885 1.553 . S
C4397 C287 1.530 . S
C4403 C846 1.532 . S
C4417 C300 1.546 . S
C4423 C872 1.549 . S
C4437 C313 1.591 . S
C4443 C430 1.594 . S
C4457 C326 1.583 . S
C4463 C452 1.535 . S
C4477 C339 1.588 . S
C4483 C456 1.594 . S
C4497 C352 1.594 . S
C4503 C426 1.553 . S
C4517 C365 1.588 . S
C4523 C508 1.594 . S
C4537 C478 1.549 . S
C4543 C378 1.595 . S
C4557 C391 1.584 . S
C4563 C482 1.584 . S
C4577 C404 1.592 . S
C4583 C504 1.538 . S
C4597 C521 1.588 . S
C4603 C556 1.530 . S
C4617 C534 1.593 . S
C4623 C1232 1.541 . S
C4637 C1245 1.553 . S
C4643 C560 1.593 . S
C4657 C1210 1.583 . S
C4663 C582 1.536 . S
C4677 C1206 1.533 . S
C4683 C586 1.583 . S
C4697 C1158 1.583 . S
C4703 C608 1.530 . S
C4717 C621 1.531 . S
C4723 C1184 1.583 . S
C4737 C625 1.542 . S
C4743 C742 1.546 . S
C4757 C638 1.547 . S
C4763 C755 1.543 . S
C4777 C651 1.552 . S
C4783 C768 1.550 . S
C4797 C729 1.532 . S
C4803 C664 1.529 . S
C4817 C677 1.528 . S
C4823 C820 1.528 . S
C4837 C690 1.529 . S
C4843 C781 1.528 . S
C4857 C794 1.543 . S
C4863 C703 1.547 . S
C4877 C807 1.553 . S
C4883 C716 1.552 . S
C4897 C859 1.542 . S
C4903 C833 1.538 . S
C4917 C1054 1.593 . S
C4923 C937 1.585 . S
C4937 C950 1.583 . S
C4943 C1076 1.540 . S
C4957 C1080 1.586 . S
C4963 C963 1.583 . S
C4977 C1050 1.553 . S
C4983 C976 1.591 . S
C4997 C1132 1.587 . S
C5003 C989 1.583 . S
C5017 C1002 1.582 . S
C5023 C1102 1.533 . S
C5037 C1106 1.583 . S
C5043 C1015 1.590 . S
C5057 C1128 1.548 . S
C5063 C1028 1.594 . S
C5077 C1180 1.551 . S
C5083 C1145 1.594 . S
