# Generated by pormake.
# Topology wld, (5)-cn, num edge types: 1
# Building blocks:
#     Node 0, Type 0, BuildingBlock: BEQFEK_clean_sbu_0, # of connection points: 5
#     Node 1, Type 0, BuildingBlock: BEQFEK_clean_sbu_0, # of connection points: 5
#     Node 2, Type 0, BuildingBlock: BEQFEK_clean_sbu_0, # of connection points: 5
#     Node 3, Type 0, BuildingBlock: BEQFEK_clean_sbu_0, # of connection points: 5
#     Node 4, Type 0, BuildingBlock: BEQFEK_clean_sbu_0, # of connection points: 5
#     Node 5, Type 0, BuildingBlock: BEQFEK_clean_sbu_0, # of connection points: 5
#     Node 6, Type 0, BuildingBlock: BEQFEK_clean_sbu_0, # of connection points: 5
#     Node 7, Type 0, BuildingBlock: BEQFEK_clean_sbu_0, # of connection points: 5
#     Node 8, Type 0, BuildingBlock: BEQFEK_clean_sbu_0, # of connection points: 5
#     Node 9, Type 0, BuildingBlock: BEQFEK_clean_sbu_0, # of connection points: 5
#     Node 10, Type 0, BuildingBlock: BEQFEK_clean_sbu_0, # of connection points: 5
#     Node 11, Type 0, BuildingBlock: BEQFEK_clean_sbu_0, # of connection points: 5
#     Edge 12, Type (0, 0), BuildingBlock: KIFKEQ_clean_linker_1, # of connection points: 2
#     Edge 13, Type (0, 0), BuildingBlock: KIFKEQ_clean_linker_1, # of connection points: 2
#     Edge 14, Type (0, 0), BuildingBlock: KIFKEQ_clean_linker_1, # of connection points: 2
#     Edge 15, Type (0, 0), BuildingBlock: KIFKEQ_clean_linker_1, # of connection points: 2
#     Edge 16, Type (0, 0), BuildingBlock: KIFKEQ_clean_linker_1, # of connection points: 2
#     Edge 17, Type (0, 0), BuildingBlock: KIFKEQ_clean_linker_1, # of connection points: 2
#     Edge 18, Type (0, 0), BuildingBlock: KIFKEQ_clean_linker_1, # of connection points: 2
#     Edge 19, Type (0, 0), BuildingBlock: KIFKEQ_clean_linker_1, # of connection points: 2
#     Edge 20, Type (0, 0), BuildingBlock: KIFKEQ_clean_linker_1, # of connection points: 2
#     Edge 21, Type (0, 0), BuildingBlock: KIFKEQ_clean_linker_1, # of connection points: 2
#     Edge 22, Type (0, 0), BuildingBlock: KIFKEQ_clean_linker_1, # of connection points: 2
#     Edge 23, Type (0, 0), BuildingBlock: KIFKEQ_clean_linker_1, # of connection points: 2
#     Edge 24, Type (0, 0), BuildingBlock: KIFKEQ_clean_linker_1, # of connection points: 2
#     Edge 25, Type (0, 0), BuildingBlock: KIFKEQ_clean_linker_1, # of connection points: 2
#     Edge 26, Type (0, 0), BuildingBlock: KIFKEQ_clean_linker_1, # of connection points: 2
#     Edge 27, Type (0, 0), BuildingBlock: KIFKEQ_clean_linker_1, # of connection points: 2
#     Edge 28, Type (0, 0), BuildingBlock: KIFKEQ_clean_linker_1, # of connection points: 2
#     Edge 29, Type (0, 0), BuildingBlock: KIFKEQ_clean_linker_1, # of connection points: 2
#     Edge 30, Type (0, 0), BuildingBlock: KIFKEQ_clean_linker_1, # of connection points: 2
#     Edge 31, Type (0, 0), BuildingBlock: KIFKEQ_clean_linker_1, # of connection points: 2
#     Edge 32, Type (0, 0), BuildingBlock: KIFKEQ_clean_linker_1, # of connection points: 2
#     Edge 33, Type (0, 0), BuildingBlock: KIFKEQ_clean_linker_1, # of connection points: 2
#     Edge 34, Type (0, 0), BuildingBlock: KIFKEQ_clean_linker_1, # of connection points: 2
#     Edge 35, Type (0, 0), BuildingBlock: KIFKEQ_clean_linker_1, # of connection points: 2
#     Edge 36, Type (0, 0), BuildingBlock: KIFKEQ_clean_linker_1, # of connection points: 2
#     Edge 37, Type (0, 0), BuildingBlock: KIFKEQ_clean_linker_1, # of connection points: 2
#     Edge 38, Type (0, 0), BuildingBlock: KIFKEQ_clean_linker_1, # of connection points: 2
#     Edge 39, Type (0, 0), BuildingBlock: KIFKEQ_clean_linker_1, # of connection points: 2
#     Edge 40, Type (0, 0), BuildingBlock: KIFKEQ_clean_linker_1, # of connection points: 2
#     Edge 41, Type (0, 0), BuildingBlock: KIFKEQ_clean_linker_1, # of connection points: 2
# Relax obj value: 0.306
# Max RMSD: 0.212
# Mean RMSD: 0.212
data_MOF--net-wld--node1-BEQFEK_clean_sbu_0--edge1-KIFKEQ_clean_linker_1
_symmetry_space_group_name_H-M    P1
_symmetry_Int_Tables_number       1
_symmetry_cell_setting            triclinic
loop_
_symmetry_equiv_pos_as_xyz
'x, y, z'
_cell_length_a     40.528946
_cell_length_b     40.528928
_cell_length_c     42.620295
_cell_angle_alpha  90.006098
_cell_angle_beta   90.015653
_cell_angle_gamma 120.0071
loop_
_atom_site_label
_atom_site_type_symbol
_atom_site_fract_x
_atom_site_fract_y
_atom_site_fract_z
_atom_type_partial_charge
Co0 Co 0.38028 0.25937 0.10581 0.0
Co1 Co 0.40514 0.21865 0.15529 0.0
C2 C 0.45439 0.30247 0.13704 0.0
O3 O 0.43186 0.30218 0.11607 0.0
O4 O 0.44612 0.27269 0.15285 0.0
C5 C 0.35711 0.30627 0.07434 0.0
O6 O 0.37632 0.33006 0.09712 0.0
C7 C 0.45794 0.19145 0.16274 0.0
C8 C 0.44164 0.15902 0.20707 0.0
C9 C 0.46682 0.16952 0.18204 0.0
N10 N 0.42838 0.19314 0.17522 0.0
N11 N 0.41875 0.17381 0.20184 0.0
C12 C 0.47818 0.21189 0.13335 0.0
H13 H 0.47188 0.23475 0.12744 0.0
H14 H 0.46849 0.1916 0.11343 0.0
H15 H 0.5094 0.22412 0.13602 0.0
C16 C 0.37062 0.19459 0.06674 0.0
N17 N 0.3811 0.21513 0.09346 0.0
N18 N 0.38854 0.19656 0.115 0.0
C19 C 0.38197 0.16305 0.10297 0.0
C20 C 0.37109 0.16099 0.07187 0.0
C21 C 0.35983 0.20682 0.03722 0.0
H22 H 0.32995 0.20059 0.03924 0.0
H23 H 0.37839 0.23798 0.03392 0.0
H24 H 0.36221 0.19152 0.01652 0.0
O25 O 0.34724 0.24751 0.1432 0.0
O26 O 0.36225 0.2172 0.17908 0.0
H27 H 0.35857 0.10318 0.11254 0.0
H28 H 0.40849 0.13233 0.12035 0.0
C29 C 0.38065 0.13122 0.12186 0.0
H30 H 0.37417 0.13347 0.14676 0.0
H31 H 0.39653 0.17054 0.21629 0.0
O32 O 0.35614 0.27449 0.07284 0.0
C33 C 0.34191 0.23131 0.16984 0.0
Co34 Co 0.74444 0.11721 0.11057 0.0
Co35 Co 0.78366 0.18453 0.15888 0.0
C36 C 0.69988 0.14787 0.14047 0.0
O37 O 0.70092 0.12522 0.12026 0.0
O38 O 0.72939 0.17051 0.15612 0.0
C39 C 0.70739 0.06874 0.05601 0.0
O40 O 0.69313 0.09091 0.05001 0.0
C41 C 0.80333 0.262 0.17114 0.0
C42 C 0.85084 0.28332 0.20501 0.0
C43 C 0.82952 0.29434 0.18699 0.0
N44 N 0.80863 0.233 0.17931 0.0
N45 N 0.83669 0.24568 0.2 0.0
C46 C 0.77696 0.25981 0.14555 0.0
H47 H 0.77168 0.23679 0.12874 0.0
H48 H 0.78887 0.2873 0.13281 0.0
H49 H 0.74938 0.25346 0.1561 0.0
C50 C 0.80844 0.17283 0.0706 0.0
N51 N 0.78819 0.16264 0.09749 0.0
N52 N 0.80544 0.19012 0.11824 0.0
C53 C 0.83737 0.21855 0.10526 0.0
C54 C 0.84013 0.20876 0.07462 0.0
C55 C 0.79727 0.14868 0.0417 0.0
H56 H 0.79715 0.12179 0.04685 0.0
H57 H 0.76798 0.14124 0.03481 0.0
H58 H 0.81683 0.16352 0.02184 0.0
O59 O 0.75696 0.09763 0.14843 0.0
O60 O 0.78625 0.1441 0.18345 0.0
H61 H 0.87015 0.24468 0.14667 0.0
H62 H 0.89474 0.26615 0.11068 0.0
C63 C 0.86669 0.25288 0.12264 0.0
H64 H 0.8573 0.27426 0.12409 0.0
H65 H 0.8474 0.22919 0.20949 0.0
O66 O 0.72939 0.07592 0.07938 0.0
C67 C 0.77305 0.10954 0.17495 0.0
Co68 Co 0.88874 0.62636 0.10948 0.0
Co69 Co 0.81983 0.59429 0.15642 0.0
C70 C 0.85495 0.54775 0.13374 0.0
O71 O 0.87991 0.574 0.11651 0.0
O72 O 0.83107 0.55258 0.1495 0.0
C73 C 0.93434 0.63904 0.05345 0.0
O74 O 0.90848 0.60431 0.04526 0.0
C75 C 0.74091 0.53888 0.16621 0.0
C76 C 0.7229 0.56072 0.20623 0.0
C77 C 0.70952 0.53183 0.18405 0.0
N78 N 0.77129 0.57086 0.17673 0.0
N79 N 0.76055 0.58368 0.20092 0.0
C80 C 0.74287 0.51519 0.14008 0.0
H81 H 0.76296 0.53382 0.12171 0.0
H82 H 0.71469 0.49599 0.12951 0.0
H83 H 0.75395 0.49723 0.14975 0.0
C84 C 0.83606 0.64208 0.07195 0.0
N85 N 0.84424 0.62735 0.09719 0.0
N86 N 0.8161 0.61551 0.11751 0.0
C87 C 0.78925 0.62256 0.10592 0.0
C88 C 0.80096 0.63949 0.07667 0.0
C89 C 0.8628 0.66122 0.04518 0.0
H90 H 0.89138 0.68203 0.05437 0.0
H91 H 0.86548 0.63951 0.03133 0.0
H92 H 0.85269 0.67626 0.02959 0.0
O93 O 0.90811 0.65578 0.14836 0.0
O94 O 0.86097 0.63437 0.1832 0.0
H95 H 0.75844 0.62133 0.14723 0.0
H96 H 0.73756 0.62594 0.11133 0.0
C97 C 0.7527 0.61255 0.12229 0.0
H98 H 0.73345 0.58134 0.12109 0.0
H99 H 0.77861 0.60855 0.21325 0.0
O100 O 0.93046 0.65296 0.07893 0.0
C101 C 0.89557 0.65705 0.17543 0.0
Co102 Co 0.26099 0.37516 0.37816 0.0
Co103 Co 0.21967 0.40227 0.33126 0.0
C104 C 0.3034 0.45103 0.34931 0.0
O105 O 0.30356 0.42788 0.36945 0.0
O106 O 0.27341 0.44289 0.33397 0.0
C107 C 0.29652 0.36421 0.43361 0.0
O108 O 0.30519 0.39892 0.44168 0.0
C109 C 0.20112 0.46102 0.3214 0.0
C110 C 0.15484 0.43797 0.28634 0.0
C111 C 0.17637 0.46927 0.30546 0.0
N112 N 0.19476 0.42664 0.31222 0.0
N113 N 0.16733 0.41305 0.29095 0.0
C114 C 0.22678 0.48293 0.34817 0.0
H115 H 0.23058 0.46358 0.36426 0.0
H116 H 0.21502 0.49822 0.36157 0.0
H117 H 0.25509 0.50421 0.33881 0.0
C118 C 0.19424 0.36018 0.41793 0.0
N119 N 0.21578 0.37383 0.39184 0.0
N120 N 0.19803 0.38412 0.37163 0.0
C121 C 0.16469 0.37735 0.38417 0.0
C122 C 0.16116 0.36196 0.41388 0.0
C123 C 0.20345 0.34244 0.44482 0.0
H124 H 0.21131 0.32163 0.43581 0.0
H125 H 0.22823 0.36495 0.4578 0.0
H126 H 0.17906 0.32771 0.46119 0.0
O127 O 0.24909 0.34421 0.3396 0.0
O128 O 0.21796 0.36043 0.30553 0.0
H129 H 0.13072 0.37311 0.3442 0.0
H130 H 0.10997 0.37525 0.38113 0.0
C131 C 0.13695 0.38586 0.368 0.0
H132 H 0.14976 0.41709 0.36571 0.0
H133 H 0.15629 0.38634 0.28041 0.0
O134 O 0.27808 0.34983 0.40846 0.0
C135 C 0.23237 0.33989 0.31334 0.0
Co136 Co 0.62809 0.88428 0.38394 0.0
Co137 Co 0.60094 0.81716 0.33559 0.0
C138 C 0.55301 0.85294 0.35393 0.0
O139 O 0.57583 0.87533 0.37471 0.0
O140 O 0.561 0.83117 0.33828 0.0
C141 C 0.64001 0.93088 0.43998 0.0
O142 O 0.60489 0.90597 0.44804 0.0
C143 C 0.54189 0.74041 0.32291 0.0
C144 C 0.5667 0.71845 0.28833 0.0
C145 C 0.53445 0.70797 0.30639 0.0
N146 N 0.57676 0.76872 0.31509 0.0
N147 N 0.59136 0.75565 0.29406 0.0
C148 C 0.51875 0.74322 0.34912 0.0
H149 H 0.53738 0.76569 0.36601 0.0
H150 H 0.50275 0.71569 0.36174 0.0
H151 H 0.49805 0.75078 0.33928 0.0
C152 C 0.64095 0.83042 0.42281 0.0
N153 N 0.62825 0.83947 0.39676 0.0
N154 N 0.61773 0.81187 0.37607 0.0
C155 C 0.62328 0.78435 0.38831 0.0
C156 C 0.63825 0.79519 0.41829 0.0
C157 C 0.65865 0.85662 0.45017 0.0
H158 H 0.68017 0.8853 0.44165 0.0
H159 H 0.63628 0.85934 0.46293 0.0
H160 H 0.67256 0.84605 0.46655 0.0
O161 O 0.65971 0.90421 0.34583 0.0
O162 O 0.64373 0.85776 0.31095 0.0
H163 H 0.62753 0.75472 0.34828 0.0
H164 H 0.62261 0.73032 0.38498 0.0
C165 C 0.61378 0.74807 0.37169 0.0
H166 H 0.58256 0.7309 0.3685 0.0
H167 H 0.61864 0.77164 0.28456 0.0
O168 O 0.65386 0.92593 0.41489 0.0
C169 C 0.66437 0.89247 0.31939 0.0
Co170 Co 0.1219 0.74312 0.38614 0.0
Co171 Co 0.1883 0.78471 0.33747 0.0
C172 C 0.15466 0.70105 0.35592 0.0
O173 O 0.13206 0.70074 0.37685 0.0
O174 O 0.17571 0.73104 0.34023 0.0
C175 C 0.07241 0.70365 0.43962 0.0
O176 O 0.09366 0.68811 0.44455 0.0
C177 C 0.26559 0.80445 0.3253 0.0
C178 C 0.28693 0.85107 0.29061 0.0
C179 C 0.29789 0.82985 0.30889 0.0
N180 N 0.23682 0.81015 0.31717 0.0
N181 N 0.24953 0.83778 0.29611 0.0
C182 C 0.26327 0.77884 0.35161 0.0
H183 H 0.25634 0.75071 0.34187 0.0
H184 H 0.24059 0.77458 0.36842 0.0
H185 H 0.29083 0.79092 0.36428 0.0
C186 C 0.17466 0.80985 0.42503 0.0
N187 N 0.16601 0.78853 0.39878 0.0
N188 N 0.19308 0.80662 0.37788 0.0
C189 C 0.21979 0.84013 0.3901 0.0
C190 C 0.20901 0.84335 0.42034 0.0
C191 C 0.1487 0.79973 0.45274 0.0
H192 H 0.12067 0.79534 0.44493 0.0
H193 H 0.14398 0.77249 0.46289 0.0
H194 H 0.16046 0.82224 0.47099 0.0
O195 O 0.10114 0.75378 0.34807 0.0
O196 O 0.14687 0.78543 0.3129 0.0
H197 H 0.24753 0.87435 0.34973 0.0
H198 H 0.27176 0.8953 0.38621 0.0
C199 C 0.25519 0.86828 0.37315 0.0
H200 H 0.27388 0.85591 0.36991 0.0
H201 H 0.23314 0.84849 0.2864 0.0
O202 O 0.08055 0.72717 0.41726 0.0
C203 C 0.11213 0.7702 0.32157 0.0
Co204 Co 0.62736 0.7412 0.88507 0.0
Co205 Co 0.59462 0.77764 0.8383 0.0
C206 C 0.54858 0.69581 0.86074 0.0
O207 O 0.57506 0.69739 0.87789 0.0
O208 O 0.55306 0.72449 0.84509 0.0
C209 C 0.64133 0.7088 0.94113 0.0
O210 O 0.60672 0.69964 0.94996 0.0
C211 C 0.53884 0.80065 0.82705 0.0
C212 C 0.56314 0.84284 0.78876 0.0
C213 C 0.53287 0.82603 0.8096 0.0
N214 N 0.57153 0.80296 0.81765 0.0
N215 N 0.58578 0.82787 0.79444 0.0
C216 C 0.51363 0.77357 0.85183 0.0
H217 H 0.49801 0.74469 0.84138 0.0
H218 H 0.53116 0.77275 0.8715 0.0
H219 H 0.49228 0.78063 0.86077 0.0
C220 C 0.64276 0.80944 0.92273 0.0
N221 N 0.62804 0.78655 0.89747 0.0
N222 N 0.61549 0.80248 0.87741 0.0
C223 C 0.62181 0.83601 0.88933 0.0
C224 C 0.63926 0.84152 0.91841 0.0
C225 C 0.66276 0.80232 0.9491 0.0
H226 H 0.68331 0.79443 0.93951 0.0
H227 H 0.64151 0.77817 0.96343 0.0
H228 H 0.67828 0.82773 0.96436 0.0
O229 O 0.65681 0.75145 0.84626 0.0
O230 O 0.63497 0.77687 0.81155 0.0
H231 H 0.62025 0.86666 0.84889 0.0
H232 H 0.62155 0.88954 0.88554 0.0
C233 C 0.61031 0.86176 0.87355 0.0
H234 H 0.57887 0.84799 0.87385 0.0
H235 H 0.61148 0.83552 0.78316 0.0
O236 O 0.65444 0.72638 0.91544 0.0
C237 C 0.65788 0.7652 0.81922 0.0
Co238 Co 0.2589 0.8845 0.87974 0.0
Co239 Co 0.21957 0.81754 0.83135 0.0
C240 C 0.30312 0.85345 0.85004 0.0
O241 O 0.30218 0.87593 0.87044 0.0
O242 O 0.27365 0.8313 0.8342 0.0
C243 C 0.29608 0.93142 0.93458 0.0
O244 O 0.30893 0.90801 0.9403 0.0
C245 C 0.20142 0.74076 0.81886 0.0
C246 C 0.15497 0.71898 0.78396 0.0
C247 C 0.1765 0.70841 0.80224 0.0
N248 N 0.19514 0.76918 0.81084 0.0
N249 N 0.16765 0.75623 0.78963 0.0
C250 C 0.22698 0.74334 0.84532 0.0
H251 H 0.23115 0.76611 0.862 0.0
H252 H 0.21492 0.71587 0.85812 0.0
H253 H 0.25516 0.75025 0.83571 0.0
C254 C 0.19297 0.83055 0.91867 0.0
N255 N 0.21445 0.83961 0.89251 0.0
N256 N 0.19728 0.81208 0.87179 0.0
C257 C 0.16423 0.78461 0.8841 0.0
C258 C 0.16038 0.79539 0.91418 0.0
C259 C 0.20186 0.85675 0.94609 0.0
H260 H 0.20735 0.88496 0.93772 0.0
H261 H 0.22812 0.86083 0.95774 0.0
H262 H 0.17824 0.84547 0.96336 0.0
O263 O 0.24684 0.90447 0.84198 0.0
O264 O 0.2173 0.85821 0.80678 0.0
H265 H 0.13049 0.75543 0.84386 0.0
H266 H 0.11022 0.73132 0.88051 0.0
C267 C 0.13706 0.74855 0.86739 0.0
H268 H 0.15054 0.73081 0.86443 0.0
H269 H 0.15657 0.77232 0.77997 0.0
O270 O 0.27462 0.92555 0.91106 0.0
C271 C 0.23069 0.89275 0.81546 0.0
Co272 Co 0.11789 0.37984 0.88489 0.0
Co273 Co 0.1858 0.40357 0.83785 0.0
C274 C 0.15173 0.45401 0.85318 0.0
O275 O 0.12849 0.43205 0.87395 0.0
O276 O 0.1734 0.44495 0.83854 0.0
C277 C 0.06743 0.37107 0.93749 0.0
O278 O 0.08862 0.40793 0.94222 0.0
C279 C 0.26361 0.4602 0.82423 0.0
C280 C 0.28526 0.43033 0.79481 0.0
C281 C 0.29616 0.4646 0.80987 0.0
N282 N 0.23464 0.42505 0.81802 0.0
N283 N 0.24755 0.40746 0.79994 0.0
C284 C 0.26132 0.48675 0.84745 0.0
H285 H 0.23928 0.47045 0.8654 0.0
H286 H 0.28913 0.50466 0.85927 0.0
H287 H 0.25342 0.5058 0.83494 0.0
C288 C 0.16968 0.36781 0.92656 0.0
N289 N 0.16168 0.37913 0.89926 0.0
N290 N 0.18964 0.38795 0.8793 0.0
C291 C 0.2164 0.3825 0.89331 0.0
C292 C 0.20462 0.3695 0.92367 0.0
C293 C 0.14278 0.35265 0.95374 0.0
H294 H 0.11488 0.32908 0.94562 0.0
H295 H 0.13815 0.37555 0.96311 0.0
H296 H 0.15367 0.34193 0.97272 0.0
O297 O 0.09792 0.34729 0.84743 0.0
O298 O 0.14458 0.36065 0.81344 0.0
H299 H 0.24668 0.37453 0.85567 0.0
H300 H 0.27021 0.38263 0.89323 0.0
C301 C 0.25295 0.3904 0.8781 0.0
H302 H 0.27032 0.42124 0.87309 0.0
H303 H 0.23115 0.37928 0.79244 0.0
O304 O 0.07589 0.35544 0.91555 0.0
C305 C 0.1096 0.34128 0.82151 0.0
Co306 Co 0.74355 0.62423 0.60921 0.0
Co307 Co 0.78542 0.59977 0.65804 0.0
C308 C 0.70146 0.54996 0.6403 0.0
O309 O 0.70119 0.57214 0.61924 0.0
O310 O 0.73153 0.55873 0.65588 0.0
C311 C 0.7056 0.63466 0.55461 0.0
O312 O 0.69231 0.5985 0.54806 0.0
C313 C 0.80625 0.54283 0.67004 0.0
C314 C 0.85415 0.56943 0.70349 0.0
C315 C 0.83281 0.53698 0.68558 0.0
N316 N 0.81133 0.57704 0.67827 0.0
N317 N 0.83967 0.59269 0.6987 0.0
C318 C 0.77955 0.51837 0.64472 0.0
H319 H 0.7745 0.53602 0.62765 0.0
H320 H 0.79099 0.50221 0.63222 0.0
H321 H 0.75189 0.49766 0.6555 0.0
C322 C 0.80846 0.63469 0.56929 0.0
N323 N 0.78829 0.6244 0.59623 0.0
N324 N 0.80655 0.61573 0.61723 0.0
C325 C 0.839 0.62043 0.60437 0.0
C326 C 0.84112 0.63219 0.57355 0.0
C327 C 0.79642 0.64641 0.54017 0.0
H328 H 0.76737 0.62375 0.53352 0.0
H329 H 0.81609 0.65144 0.52033 0.0
H330 H 0.79531 0.67276 0.54494 0.0
O331 O 0.75498 0.65627 0.64698 0.0
O332 O 0.78676 0.64251 0.68223 0.0
H333 H 0.89725 0.63286 0.61 0.0
H334 H 0.86115 0.58691 0.62395 0.0
C335 C 0.86928 0.61733 0.62203 0.0
H336 H 0.87228 0.62934 0.64588 0.0
H337 H 0.85028 0.61988 0.70819 0.0
O338 O 0.7273 0.64948 0.57814 0.0
C339 C 0.7716 0.66203 0.67342 0.0
Co340 Co 0.37684 0.12083 0.6105 0.0
Co341 Co 0.40209 0.18786 0.65843 0.0
C342 C 0.45169 0.1536 0.64094 0.0
O343 O 0.42927 0.13087 0.62014 0.0
O344 O 0.44295 0.17493 0.6564 0.0
C345 C 0.36603 0.07393 0.55495 0.0
O346 O 0.40064 0.09965 0.54637 0.0
C347 C 0.46032 0.26475 0.67073 0.0
C348 C 0.43564 0.28663 0.7055 0.0
C349 C 0.46785 0.29708 0.6874 0.0
N350 N 0.4255 0.23643 0.67857 0.0
N351 N 0.41091 0.24945 0.69966 0.0
C352 C 0.48351 0.26208 0.64449 0.0
H353 H 0.46497 0.23952 0.62763 0.0
H354 H 0.49932 0.28962 0.63185 0.0
H355 H 0.50443 0.25481 0.6543 0.0
C356 C 0.3634 0.17361 0.57067 0.0
N357 N 0.37588 0.16497 0.59707 0.0
N358 N 0.38546 0.19251 0.61766 0.0
C359 C 0.37945 0.21956 0.60503 0.0
C360 C 0.36527 0.2085 0.57486 0.0
C361 C 0.34674 0.14733 0.54323 0.0
H362 H 0.32569 0.11841 0.55159 0.0
H363 H 0.36977 0.14548 0.53076 0.0
H364 H 0.33253 0.15731 0.5266 0.0
O365 O 0.34481 0.10083 0.64828 0.0
O366 O 0.35938 0.1471 0.68303 0.0
H367 H 0.37397 0.24866 0.6449 0.0
H368 H 0.37812 0.27258 0.60807 0.0
C369 C 0.38776 0.25558 0.6215 0.0
H370 H 0.41891 0.27357 0.62477 0.0
H371 H 0.38371 0.23339 0.70927 0.0
O372 O 0.35203 0.07866 0.58003 0.0
C373 C 0.33934 0.11236 0.67451 0.0
Co374 Co 0.8881 0.26128 0.60785 0.0
Co375 Co 0.81906 0.22584 0.65478 0.0
C376 C 0.85595 0.30769 0.63208 0.0
O377 O 0.88038 0.30566 0.61465 0.0
O378 O 0.83182 0.27928 0.64798 0.0
C379 C 0.93404 0.29261 0.55158 0.0
O380 O 0.9085 0.30165 0.54277 0.0
C381 C 0.74159 0.20716 0.66704 0.0
C382 C 0.72112 0.16237 0.70332 0.0
C383 C 0.7097 0.18263 0.68432 0.0
N384 N 0.77057 0.20185 0.67533 0.0
N385 N 0.75836 0.17534 0.69736 0.0
C386 C 0.74321 0.23151 0.63999 0.0
H387 H 0.76587 0.23554 0.62324 0.0
H388 H 0.71549 0.21852 0.62747 0.0
H389 H 0.7496 0.25975 0.64904 0.0
C390 C 0.83436 0.19284 0.57063 0.0
N391 N 0.84297 0.21612 0.59567 0.0
N392 N 0.81455 0.20076 0.6158 0.0
C393 C 0.78693 0.16729 0.60415 0.0
C394 C 0.79856 0.16114 0.57518 0.0
C395 C 0.86133 0.19916 0.54431 0.0
H396 H 0.88973 0.20699 0.55395 0.0
H397 H 0.86442 0.22311 0.52959 0.0
H398 H 0.85114 0.17341 0.52943 0.0
O399 O 0.90711 0.2511 0.64687 0.0
O400 O 0.85983 0.22596 0.68159 0.0
H401 H 0.75521 0.13562 0.64435 0.0
H402 H 0.73196 0.11502 0.6075 0.0
C403 C 0.74978 0.14203 0.62025 0.0
H404 H 0.7333 0.157 0.62172 0.0
H405 H 0.77498 0.16515 0.70747 0.0
O406 O 0.92982 0.27538 0.57743 0.0
C407 C 0.8944 0.23747 0.67395 0.0
H408 H 0.68937 0.19488 0.17984 0.0
H409 H 0.62867 0.10065 0.11577 0.0
H410 H 0.63093 0.19531 0.1909 0.0
H411 H 0.56957 0.10048 0.12759 0.0
H412 H 0.51593 0.16945 0.22568 0.0
H413 H 0.57018 0.15985 0.21669 0.0
H414 H 0.54022 0.1386 0.11848 0.0
H415 H 0.48524 0.14626 0.12794 0.0
C416 C 0.6635 0.17406 0.16818 0.0
C417 C 0.66384 0.1478 0.14677 0.0
C418 C 0.62981 0.17408 0.17482 0.0
C419 C 0.59542 0.14776 0.16036 0.0
C420 C 0.59563 0.12137 0.13897 0.0
C421 C 0.62948 0.12141 0.13223 0.0
C422 C 0.52077 0.16223 0.20231 0.0
C423 C 0.49718 0.15987 0.17731 0.0
C424 C 0.55198 0.15706 0.19706 0.0
C425 C 0.56002 0.14917 0.16671 0.0
C426 C 0.53502 0.14471 0.14212 0.0
C427 C 0.50385 0.14981 0.14742 0.0
H428 H 0.77928 0.31904 0.19514 0.0
H429 H 0.89463 0.35632 0.16655 0.0
H430 H 0.78756 0.38106 0.18149 0.0
H431 H 0.90269 0.41797 0.15082 0.0
H432 H 0.91355 0.53681 0.15059 0.0
H433 H 0.90939 0.4765 0.16524 0.0
H434 H 0.79048 0.41652 0.13824 0.0
H435 H 0.7946 0.47699 0.12555 0.0
C436 C 0.8065 0.34079 0.18598 0.0
C437 C 0.83638 0.33325 0.18201 0.0
C438 C 0.81118 0.37619 0.17766 0.0
C439 C 0.84561 0.4046 0.16437 0.0
C440 C 0.87589 0.39713 0.1612 0.0
C441 C 0.87138 0.36186 0.17019 0.0
C442 C 0.88677 0.51052 0.14748 0.0
C443 C 0.8543 0.51132 0.13723 0.0
C444 C 0.88428 0.47591 0.15586 0.0
C445 C 0.84937 0.4414 0.15357 0.0
C446 C 0.81752 0.44242 0.1415 0.0
C447 C 0.81986 0.47701 0.13385 0.0
H448 H 0.66847 0.51681 0.13029 0.0
H449 H 0.66045 0.48049 0.22644 0.0
H450 H 0.60537 0.46275 0.11952 0.0
H451 H 0.59635 0.42697 0.21623 0.0
H452 H 0.51193 0.3102 0.17506 0.0
H453 H 0.57094 0.36784 0.1878 0.0
H454 H 0.53793 0.43316 0.12876 0.0
H455 H 0.47884 0.37497 0.11533 0.0
C456 C 0.65294 0.49722 0.14916 0.0
C457 C 0.66958 0.5019 0.1789 0.0
C458 C 0.6166 0.46654 0.14313 0.0
C459 C 0.59595 0.44015 0.16688 0.0
C460 C 0.61185 0.44628 0.19721 0.0
C461 C 0.64833 0.477 0.20318 0.0
C462 C 0.51711 0.33682 0.16476 0.0
C463 C 0.4906 0.33791 0.14409 0.0
C464 C 0.55089 0.37 0.17234 0.0
C465 C 0.5591 0.40525 0.15956 0.0
C466 C 0.53263 0.40643 0.13885 0.0
C467 C 0.49875 0.37309 0.13116 0.0
H468 H 0.23226 0.54334 0.30978 0.0
H469 H 0.11005 0.47087 0.31158 0.0
H470 H 0.22564 0.59819 0.32282 0.0
H471 H 0.10313 0.52632 0.32384 0.0
H472 H 0.11305 0.62917 0.38166 0.0
H473 H 0.11668 0.57229 0.36797 0.0
H474 H 0.20313 0.63747 0.29897 0.0
H475 H 0.20008 0.69382 0.31273 0.0
C476 C 0.20393 0.53923 0.31291 0.0
C477 C 0.17169 0.50286 0.31011 0.0
C478 C 0.20008 0.57069 0.32012 0.0
C479 C 0.16384 0.5666 0.32453 0.0
C480 C 0.13144 0.53027 0.32101 0.0
C481 C 0.13535 0.49869 0.31363 0.0
C482 C 0.13289 0.6313 0.36367 0.0
C483 C 0.15646 0.66619 0.34853 0.0
C484 C 0.13475 0.59868 0.35565 0.0
C485 C 0.16032 0.60043 0.33247 0.0
C486 C 0.18356 0.63525 0.31726 0.0
C487 C 0.18169 0.66762 0.32517 0.0
H488 H 0.45987 0.68855 0.30965 0.0
H489 H 0.53374 0.64041 0.31113 0.0
H490 H 0.40523 0.62612 0.3207 0.0
H491 H 0.47859 0.57719 0.32134 0.0
H492 H 0.37484 0.48089 0.37592 0.0
H493 H 0.43154 0.54232 0.36407 0.0
H494 H 0.36737 0.56517 0.29516 0.0
H495 H 0.31117 0.50485 0.30711 0.0
C496 C 0.46435 0.6645 0.31229 0.0
C497 C 0.50104 0.66934 0.30998 0.0
C498 C 0.43301 0.62864 0.31835 0.0
C499 C 0.43757 0.59667 0.32206 0.0
C500 C 0.47424 0.60136 0.31904 0.0
C501 C 0.50569 0.63737 0.31283 0.0
C502 C 0.3729 0.4991 0.3583 0.0
C503 C 0.33831 0.48797 0.3427 0.0
C504 C 0.40542 0.53414 0.35135 0.0
C505 C 0.40389 0.55871 0.32878 0.0
C506 C 0.36941 0.54726 0.31303 0.0
C507 C 0.33713 0.51247 0.31989 0.0
H508 H 0.52276 0.89363 0.38161 0.0
H509 H 0.50098 0.81019 0.30938 0.0
H510 H 0.46204 0.89022 0.36897 0.0
H511 H 0.44148 0.80741 0.29668 0.0
H512 H 0.31761 0.77504 0.31046 0.0
H513 H 0.37989 0.78263 0.32177 0.0
H514 H 0.4283 0.90477 0.32617 0.0
H515 H 0.36514 0.89683 0.31552 0.0
C516 C 0.5052 0.87471 0.36306 0.0
C517 C 0.51666 0.85194 0.34678 0.0
C518 C 0.4706 0.87297 0.35567 0.0
C519 C 0.44685 0.84834 0.33195 0.0
C520 C 0.45874 0.82618 0.31543 0.0
C521 C 0.49305 0.8279 0.32274 0.0
C522 C 0.34154 0.80349 0.31389 0.0
C523 C 0.33658 0.83531 0.31247 0.0
C524 C 0.3773 0.80791 0.32014 0.0
C525 C 0.40906 0.84432 0.32499 0.0
C526 C 0.40428 0.87633 0.32291 0.0
C527 C 0.36833 0.87186 0.31646 0.0
H528 H 0.37411 0.89867 0.87597 0.0
H529 H 0.31322 0.80714 0.80958 0.0
H530 H 0.43266 0.89756 0.86445 0.0
H531 H 0.371 0.80539 0.79885 0.0
H532 H 0.51391 0.8477 0.86387 0.0
H533 H 0.46006 0.85755 0.87305 0.0
H534 H 0.43245 0.84019 0.77423 0.0
H535 H 0.48565 0.82874 0.76553 0.0
C536 C 0.37314 0.87825 0.85905 0.0
C537 C 0.33889 0.85295 0.84381 0.0
C538 C 0.40666 0.87755 0.85249 0.0
C539 C 0.40662 0.85151 0.83058 0.0
C540 C 0.37235 0.82634 0.81536 0.0
C541 C 0.33901 0.8271 0.82183 0.0
C542 C 0.4961 0.84578 0.8442 0.0
C543 C 0.50293 0.83616 0.81421 0.0
C544 C 0.46559 0.85196 0.84935 0.0
C545 C 0.44153 0.84912 0.82447 0.0
C546 C 0.44989 0.84172 0.79405 0.0
C547 C 0.48043 0.83544 0.78896 0.0
H548 H 0.11127 0.48563 0.87857 0.0
H549 H 0.19602 0.50477 0.80833 0.0
H550 H 0.11546 0.54611 0.86407 0.0
H551 H 0.19969 0.5643 0.79381 0.0
H552 H 0.23153 0.6889 0.80488 0.0
H553 H 0.2239 0.62681 0.81721 0.0
H554 H 0.10168 0.57824 0.81997 0.0
H555 H 0.10962 0.64113 0.80833 0.0
C556 C 0.13069 0.5026 0.86007 0.0
C557 C 0.15357 0.49045 0.84489 0.0
C558 C 0.13287 0.53707 0.8516 0.0
C559 C 0.15805 0.56006 0.82788 0.0
C560 C 0.18046 0.54759 0.81251 0.0
C561 C 0.17826 0.51331 0.82088 0.0
C562 C 0.20305 0.66496 0.80813 0.0
C563 C 0.17119 0.66981 0.80607 0.0
C564 C 0.19862 0.62931 0.81496 0.0
C565 C 0.16217 0.59761 0.81975 0.0
C566 C 0.13014 0.60224 0.81682 0.0
C567 C 0.13462 0.63804 0.80981 0.0
H568 H 0.53837 0.62569 0.84666 0.0
H569 H 0.47736 0.68509 0.86631 0.0
H570 H 0.47853 0.56867 0.83231 0.0
H571 H 0.41743 0.6281 0.85367 0.0
H572 H 0.3214 0.53895 0.79751 0.0
H573 H 0.38331 0.59348 0.81031 0.0
H574 H 0.41952 0.51731 0.84752 0.0
H575 H 0.35796 0.46277 0.83281 0.0
C576 C 0.51194 0.62615 0.84858 0.0
C577 C 0.51232 0.65974 0.85722 0.0
C578 C 0.47761 0.59353 0.84037 0.0
C579 C 0.44296 0.59378 0.84115 0.0
C580 C 0.44351 0.62704 0.85158 0.0
C581 C 0.4778 0.6597 0.85914 0.0
C582 C 0.34297 0.53405 0.80793 0.0
C583 C 0.33517 0.4969 0.81415 0.0
C584 C 0.3783 0.56525 0.81573 0.0
C585 C 0.40643 0.56008 0.83065 0.0
C586 C 0.39885 0.52258 0.8359 0.0
C587 C 0.36362 0.49128 0.82749 0.0
H588 H 0.78276 0.46215 0.69448 0.0
H589 H 0.89763 0.53984 0.66451 0.0
H590 H 0.79068 0.40822 0.68072 0.0
H591 H 0.90531 0.48599 0.64873 0.0
H592 H 0.91536 0.37727 0.6482 0.0
H593 H 0.91196 0.43387 0.66292 0.0
H594 H 0.79266 0.37552 0.63717 0.0
H595 H 0.79607 0.31883 0.62436 0.0
C596 C 0.80981 0.46749 0.68501 0.0
C597 C 0.83964 0.50488 0.68065 0.0
C598 C 0.81428 0.43666 0.67663 0.0
C599 C 0.84843 0.44249 0.6629 0.0
C600 C 0.87872 0.48019 0.65941 0.0
C601 C 0.87442 0.51109 0.66844 0.0
C602 C 0.88867 0.37702 0.64535 0.0
C603 C 0.85589 0.34381 0.63541 0.0
C604 C 0.88661 0.40939 0.65378 0.0
C605 C 0.85181 0.40926 0.65192 0.0
C606 C 0.81965 0.37646 0.64011 0.0
C607 C 0.82159 0.34401 0.63239 0.0
H608 H 0.6934 0.49766 0.68424 0.0
H609 H 0.62994 0.52005 0.61412 0.0
H610 H 0.63655 0.43859 0.69798 0.0
H611 H 0.57269 0.45993 0.6277 0.0
H612 H 0.46988 0.36521 0.68167 0.0
H613 H 0.52589 0.42772 0.67095 0.0
H614 H 0.59744 0.37679 0.67426 0.0
H615 H 0.54197 0.31515 0.68578 0.0
C616 C 0.66735 0.48994 0.67157 0.0
C617 C 0.66638 0.51361 0.64788 0.0
C618 C 0.63471 0.4559 0.67946 0.0
C619 C 0.60013 0.44444 0.66386 0.0
C620 C 0.59887 0.46819 0.64036 0.0
C621 C 0.63171 0.50244 0.6324 0.0
C622 C 0.49774 0.36771 0.68052 0.0
C623 C 0.50167 0.33541 0.68416 0.0
C624 C 0.52967 0.40329 0.67403 0.0
C625 C 0.56606 0.40716 0.6715 0.0
C626 C 0.5699 0.3749 0.67621 0.0
C627 C 0.5381 0.3395 0.68255 0.0
H628 H 0.64259 0.11516 0.68053 0.0
H629 H 0.68934 0.23699 0.68038 0.0
H630 H 0.57889 0.10604 0.6704 0.0
H631 H 0.6264 0.22814 0.66966 0.0
H632 H 0.5046 0.19919 0.68398 0.0
H633 H 0.5652 0.20395 0.69618 0.0
H634 H 0.5439 0.11789 0.62678 0.0
H635 H 0.48233 0.11267 0.61452 0.0
C636 C 0.63913 0.1399 0.67853 0.0
C637 C 0.67082 0.17677 0.68089 0.0
C638 C 0.60286 0.13473 0.6724 0.0
C639 C 0.59767 0.16637 0.66904 0.0
C640 C 0.62937 0.20317 0.67228 0.0
C641 C 0.66548 0.20828 0.67817 0.0
C642 C 0.51263 0.1812 0.67115 0.0
C643 C 0.48859 0.15573 0.64801 0.0
C644 C 0.54754 0.18406 0.67818 0.0
C645 C 0.55949 0.1615 0.66233 0.0
C646 C 0.53531 0.13547 0.63954 0.0
C647 C 0.5002 0.13268 0.63237 0.0
H648 H 0.41232 0.12686 0.0588 0.0
H649 H 0.3064 0.12263 0.03685 0.0
H650 H 0.39434 0.07146 0.02545 0.0
H651 H 0.28764 0.06654 0.00403 0.0
H652 H 0.28284 0.9901 0.92382 0.0
H653 H 0.30164 0.04622 0.95598 0.0
H654 H 0.35131 0.00442 0.02382 0.0
H655 H 0.3336 0.94872 0.99094 0.0
C656 C 0.38512 0.1139 0.04678 0.0
C657 C 0.36076 0.12892 0.05015 0.0
C658 C 0.37467 0.08205 0.02787 0.0
C659 C 0.33942 0.06433 0.01216 0.0
C660 C 0.31522 0.07975 0.0154 0.0
C661 C 0.32588 0.11185 0.03415 0.0
C662 C 0.29775 0.99281 0.94562 0.0
C663 C 0.3068 0.96495 0.95481 0.0
C664 C 0.30834 0.02496 0.96417 0.0
C665 C 0.32799 0.02992 0.99253 0.0
C666 C 0.33676 0.00185 0.00186 0.0
C667 C 0.32641 0.96978 0.98313 0.0
H668 H 0.8853 0.18717 0.04415 0.0
H669 H 0.86544 0.28147 0.05597 0.0
H670 H 0.9404 0.22665 0.01096 0.0
H671 H 0.91992 0.32096 0.02222 0.0
H672 H 0.04395 0.39221 0.99031 0.0
H673 H 0.98827 0.35243 0.02269 0.0
H674 H 0.95827 0.25697 0.96086 0.0
H675 H 0.01431 0.29622 0.9292 0.0
C676 C 0.89243 0.21619 0.03907 0.0
C677 C 0.87123 0.23136 0.05232 0.0
C678 C 0.92393 0.23884 0.02012 0.0
C679 C 0.9347 0.27708 0.01397 0.0
C680 C 0.91287 0.29189 0.02688 0.0
C681 C 0.88152 0.26927 0.04595 0.0
C682 C 0.02547 0.36272 0.98368 0.0
C683 C 0.03364 0.34741 0.95723 0.0
C684 C 0.99341 0.33996 0.00212 0.0
C685 C 0.96873 0.30145 0.99438 0.0
C686 C 0.97692 0.28629 0.96782 0.0
C687 C 0.00901 0.30893 0.94955 0.0
H688 H 0.7772 0.68988 0.09018 0.0
H689 H 0.77979 0.61871 0.01611 0.0
H690 H 0.73851 0.70696 0.05723 0.0
H691 H 0.74177 0.6364 0.98273 0.0
H692 H 0.70716 0.71077 0.92429 0.0
H693 H 0.74749 0.69558 0.95655 0.0
H694 H 0.67086 0.67048 0.03476 0.0
H695 H 0.6302 0.68552 0.00244 0.0
C696 C 0.76944 0.67798 0.06679 0.0
C697 C 0.78074 0.65253 0.05574 0.0
C698 C 0.74734 0.68768 0.04801 0.0
C699 C 0.73683 0.67265 0.0176 0.0
C700 C 0.74954 0.64842 0.00608 0.0
C701 C 0.77125 0.63834 0.02506 0.0
C702 C 0.69886 0.70201 0.94837 0.0
C703 C 0.66546 0.69932 0.96085 0.0
C704 C 0.72189 0.69316 0.96675 0.0
C705 C 0.7123 0.68192 -0.0019 0.0
C706 C 0.67905 0.6794 0.01069 0.0
C707 C 0.65569 0.68778 0.99216 0.0
H708 H 0.94528 0.31468 0.49 0.0
H709 H 0.99838 0.29144 0.56832 0.0
H710 H 1.00066 0.32952 0.45739 0.0
H711 H 0.05365 0.30647 0.53573 0.0
H712 H 0.16178 0.38341 0.47447 0.0
H713 H 0.10656 0.36547 0.50856 0.0
H714 H 0.03183 0.29292 0.4353 0.0
H715 H 0.08707 0.31028 0.40166 0.0
C716 C 0.96875 0.31281 0.50025 0.0
C717 C 0.96746 0.30189 0.5317 0.0
C718 C 1.00031 0.32108 0.48156 0.0
C719 C 0.03136 0.31908 0.49408 0.0
C720 C 0.0302 0.30847 0.52557 0.0
C721 C 0.99847 0.2997 0.54413 0.0
C722 C 0.13353 0.36326 0.46596 0.0
C723 C 0.1284 0.34861 0.43542 0.0
C724 C 0.10202 0.35305 0.48535 0.0
C725 C 0.06494 0.32822 0.47435 0.0
C726 C 0.06004 0.31266 0.44412 0.0
C727 C 0.09154 0.3225 0.42495 0.0
H728 H 0.61699 0.77461 0.47903 0.0
H729 H 0.68753 0.76992 0.40539 0.0
H730 H 0.6337 0.73606 0.5128 0.0
H731 H 0.70322 0.73041 0.43861 0.0
H732 H 0.67803 0.6211 0.49452 0.0
H733 H 0.66298 0.66176 0.46209 0.0
H734 H 0.69526 0.74233 0.53823 0.0
H735 H 0.7108 0.70218 0.57049 0.0
C736 C 0.63623 0.76549 0.47023 0.0
C737 C 0.65057 0.77461 0.43957 0.0
C738 C 0.64568 0.74343 0.48942 0.0
C739 C 0.66929 0.72988 0.47806 0.0
C740 C 0.68442 0.73993 0.44768 0.0
C741 C 0.67549 0.76249 0.42875 0.0
C742 C 0.68184 0.64745 0.50431 0.0
C743 C 0.69566 0.65849 0.53499 0.0
C744 C 0.67342 0.67075 0.48574 0.0
C745 C 0.67802 0.70513 0.49774 0.0
C746 C 0.69129 0.71588 0.52853 0.0
C747 C 0.70033 0.69296 0.54688 0.0
H748 H 0.30267 0.00839 0.57292 0.0
H749 H 0.37673 0.06203 0.49347 0.0
H750 H 0.26322 0.95202 0.54115 0.0
H751 H 0.33685 0.00552 0.46161 0.0
H752 H 0.22893 0.9168 0.40836 0.0
H753 H 0.26745 0.97268 0.44123 0.0
H754 H 0.27113 0.89981 0.5134 0.0
H755 H 0.23334 0.84395 0.48 0.0
C756 C 0.31052 0.00815 0.54866 0.0
C757 C 0.3428 0.03967 0.53564 0.0
C758 C 0.28802 0.9758 0.53058 0.0
C759 C 0.29697 0.97451 0.49898 0.0
C760 C 0.3292 0.00597 0.4859 0.0
C761 C 0.3521 0.03817 0.50414 0.0
C762 C 0.23809 0.91286 0.43125 0.0
C763 C 0.22877 0.87635 0.44161 0.0
C764 C 0.26013 0.94473 0.44996 0.0
C765 C 0.27259 0.94053 0.47964 0.0
C766 C 0.26185 0.90378 0.49058 0.0
C767 C 0.24022 0.87191 0.47161 0.0
H768 H 0.71566 0.00776 0.07038 0.0
H769 H 0.67824 0.05442 -0.00356 0.0
H770 H 0.70049 0.95256 0.03758 0.0
H771 H 0.66353 0.99922 0.96348 0.0
H772 H 0.68655 0.9163 0.90435 0.0
H773 H 0.70309 0.97161 0.93776 0.0
H774 H 0.63874 0.89651 0.01382 0.0
H775 H 0.62118 0.84118 0.97994 0.0
C776 C 0.7043 0.00629 0.04709 0.0
C777 C 0.69812 0.03544 0.03596 0.0
C778 C 0.69548 0.9746 0.02842 0.0
C779 C 0.68092 0.97172 -0.00195 0.0
C780 C 0.67499 1.00095 0.98677 0.0
C781 C 0.68321 0.03238 0.00566 0.0
C782 C 0.67579 0.91174 0.92816 0.0
C783 C 0.65206 0.87468 0.9395 0.0
C784 C 0.68523 0.94328 0.94721 0.0
C785 C 0.67183 0.93826 0.9782 0.0
C786 C 0.64943 0.90111 0.98999 0.0
C787 C 0.63947 0.86955 0.97072 0.0
H788 H 0.94471 0.62648 0.99209 0.0
H789 H 0.99934 0.70438 0.06924 0.0
H790 H 0.99988 0.66588 0.95885 0.0
H791 H 0.05437 0.74344 0.03605 0.0
H792 H 0.16147 0.77363 0.97437 0.0
H793 H 0.10659 0.73611 0.00871 0.0
H794 H 0.03106 0.73352 0.93601 0.0
H795 H 0.08598 0.77173 0.90213 0.0
C796 C 0.96848 0.65189 0.00196 0.0
C797 C 0.96767 0.66234 0.03324 0.0
C798 C 0.99991 0.67452 0.98291 0.0
C799 C 0.0313 0.70767 0.99494 0.0
C800 C 0.03065 0.71789 0.02628 0.0
C801 C 0.99906 0.6956 0.04518 0.0
C802 C 0.13312 0.76532 0.96601 0.0
C803 C 0.12769 0.77497 0.93561 0.0
C804 C 0.10181 0.7439 0.98553 0.0
C805 C 0.06462 0.73159 0.97481 0.0
C806 C 0.05938 0.74208 0.94462 0.0
C807 C 0.09069 0.76389 0.92531 0.0
H808 H 0.22805 0.31794 0.91574 0.0
H809 H 0.22482 0.39519 0.98356 0.0
H810 H 0.26531 0.30297 0.95189 0.0
H811 H 0.26026 0.37872 0.02079 0.0
H812 H 0.36061 0.37468 0.06514 0.0
H813 H 0.32247 0.38883 0.02931 0.0
H814 H 0.26319 0.27136 -0.00134 0.0
H815 H 0.30246 0.25774 0.03345 0.0
C816 C 0.23513 0.33142 0.93861 0.0
C817 C 0.22413 0.35804 0.94683 0.0
C818 C 0.25612 0.32259 0.95949 0.0
C819 C 0.26606 0.33976 0.9893 0.0
C820 C 0.25383 0.36552 -0.00217 0.0
C821 C 0.23315 0.37464 0.97674 0.0
C822 C 0.33955 0.35195 0.05062 0.0
C823 C 0.33466 0.31515 0.05205 0.0
C824 C 0.3174 0.35996 0.03027 0.0
C825 C 0.28955 0.33123 0.01111 0.0
C826 C 0.28472 0.29438 0.01264 0.0
C827 C 0.30717 0.2865 0.03271 0.0
H828 H 0.01843 0.72408 0.43041 0.0
H829 H 0.04914 0.65964 0.49274 0.0
H830 H 0.96136 0.70582 0.46112 0.0
H831 H 0.99248 0.64233 0.5242 0.0
H832 H 0.869 0.58676 0.55556 0.0
H833 H 0.92454 0.60364 0.52261 0.0
H834 H 0.94077 0.71677 0.51043 0.0
H835 H 0.88452 0.69917 0.54275 0.0
C836 C 0.01318 0.70625 0.45086 0.0
C837 C 0.03835 0.69326 0.45911 0.0
C838 C 0.98048 0.69593 0.46858 0.0
C839 C 0.97223 0.67258 0.49516 0.0
C840 C 0.99759 0.65983 0.50357 0.0
C841 C 0.03024 0.66996 0.48568 0.0
C842 C 0.88434 0.61505 0.54546 0.0
C843 C 0.87257 0.64164 0.55137 0.0
C844 C 0.91632 0.62489 0.52688 0.0
C845 C 0.93736 0.66167 0.51402 0.0
C846 C 0.92499 0.68804 0.51959 0.0
C847 C 0.89282 0.67805 0.53804 0.0
H848 H 0.31423 0.2321 0.58582 0.0
H849 H 0.3886 0.22967 0.51463 0.0
H850 H 0.29808 0.27024 0.55134 0.0
H851 H 0.37176 0.2671 0.47967 0.0
H852 H 0.29689 0.29916 0.41801 0.0
H853 H 0.31272 0.2602 0.45152 0.0
H854 H 0.33513 0.33785 0.52851 0.0
H855 H 0.31954 0.37714 0.49495 0.0
C856 C 0.32706 0.23979 0.56273 0.0
C857 C 0.3531 0.22863 0.55295 0.0
C858 C 0.31789 0.26158 0.54308 0.0
C859 C 0.33402 0.27195 0.51301 0.0
C860 C 0.35891 0.25945 0.50274 0.0
C861 C 0.36849 0.23806 0.52263 0.0
C862 C 0.30527 0.308 0.44207 0.0
C863 C 0.30696 0.34123 0.45387 0.0
C864 C 0.31449 0.28577 0.46116 0.0
C865 C 0.32504 0.29598 0.49257 0.0
C866 C 0.32675 0.32919 0.50442 0.0
C867 C 0.31806 0.35176 0.48518 0.0
H868 H 0.77065 0.08668 0.59055 0.0
H869 H 0.78051 0.16011 0.51355 0.0
H870 H 0.7321 0.03065 0.55783 0.0
H871 H 0.74257 0.1041 0.48046 0.0
H872 H 0.70757 0.99356 0.42444 0.0
H873 H 0.74722 0.04923 0.45677 0.0
H874 H 0.66633 1.00037 0.53263 0.0
H875 H 0.62638 0.94449 0.50024 0.0
C876 C 0.76448 0.0907 0.56658 0.0
C877 C 0.77793 0.12751 0.5546 0.0
C878 C 0.74245 0.05875 0.54791 0.0
C879 C 0.73405 0.06305 0.51672 0.0
C880 C 0.74871 0.09997 0.50441 0.0
C881 C 0.77039 0.13195 0.52324 0.0
C882 C 0.69818 0.99462 0.44802 0.0
C883 C 0.66378 0.96459 0.45979 0.0
C884 C 0.72083 0.02661 0.46644 0.0
C885 C 0.70986 0.0291 0.49717 0.0
C886 C 0.67561 0.99902 0.50907 0.0
C887 C 0.65266 0.96716 0.49049 0.0
H888 H 0.23627 0.34456 0.24937 0.0
H889 H 0.23212 0.2744 0.32715 0.0
H890 H 0.25372 0.30821 0.21439 0.0
H891 H 0.24781 0.23681 0.2921 0.0
H892 H 0.27963 0.23631 0.15364 0.0
H893 H 0.24144 0.25226 0.18773 0.0
H894 H 0.30495 0.24878 0.268 0.0
H895 H 0.34189 0.23124 0.23396 0.0
C896 C 0.23774 0.32047 0.25873 0.0
C897 C 0.2334 0.31262 0.29098 0.0
C898 C 0.24767 0.29948 0.2387 0.0
C899 C 0.25289 0.26988 0.2505 0.0
C900 C 0.24512 0.26002 0.28233 0.0
C901 C 0.23581 0.28136 0.30238 0.0
C902 C 0.28475 0.23806 0.1787 0.0
C903 C 0.31403 0.23295 0.19114 0.0
C904 C 0.26304 0.24749 0.19822 0.0
C905 C 0.27049 0.25258 0.23059 0.0
C906 C 0.29805 0.24481 0.24325 0.0
C907 C 0.31941 0.23482 0.22374 0.0
H908 H 0.77151 0.04347 0.16042 0.0
H909 H 0.77105 0.11043 0.23902 0.0
H910 H 0.75574 0.99001 0.19529 0.0
H911 H 0.75372 0.05657 0.27382 0.0
H912 H 0.66211 0.89168 0.25528 0.0
H913 H 0.69884 0.94564 0.2206 0.0
H914 H 0.76618 0.01243 0.29956 0.0
H915 H 0.72828 0.95889 0.33428 0.0
C916 C 0.76864 0.04693 0.1853 0.0
C917 C 0.77208 0.08096 0.197 0.0
C918 C 0.7593 0.01618 0.20525 0.0
C919 C 0.75265 0.01856 0.2373 0.0
C920 C 0.7589 0.05365 0.24933 0.0
C921 C 0.76879 0.08464 0.22939 0.0
C922 C 0.6854 0.91757 0.26503 0.0
C923 C 0.69197 0.92127 0.29748 0.0
C924 C 0.70662 0.9486 0.24516 0.0
C925 C 0.73518 0.98377 0.25734 0.0
C926 C 0.74379 0.9862 0.28948 0.0
C927 C 0.72225 0.95541 0.30935 0.0
H928 H 0.89495 0.64963 0.23929 0.0
H929 H 0.95961 0.72425 0.1631 0.0
H930 H 0.94803 0.68654 0.27489 0.0
H931 H 0.01213 0.76202 0.19875 0.0
H932 H 0.04342 0.7622 0.33691 0.0
H933 H 0.9892 0.74387 0.30228 0.0
H934 H 0.05873 0.75112 0.22275 0.0
H935 H 0.11324 0.77071 0.25738 0.0
C936 C 0.92002 0.67465 0.23042 0.0
C937 C 0.92339 0.68373 0.1984 0.0
C938 C 0.95051 0.69594 0.25079 0.0
C939 C 0.98472 0.72699 0.23957 0.0
C940 C 0.98667 0.73777 0.20802 0.0
C941 C 0.95645 0.71627 0.18764 0.0
C942 C 0.04731 0.76074 0.3119 0.0
C943 C 0.08245 0.76746 0.29985 0.0
C944 C 0.01614 0.74995 0.2921 0.0
C945 C 0.01928 0.74528 0.2598 0.0
C946 C 0.05524 0.75469 0.24747 0.0
C947 C 0.08659 0.7659 0.26731 0.0
H948 H 0.7727 0.66218 0.73762 0.0
H949 H 0.76297 0.72231 0.65774 0.0
H950 H 0.75285 0.69702 0.77207 0.0
H951 H 0.74435 0.75811 0.69219 0.0
H952 H 0.65011 0.7579 0.75536 0.0
H953 H 0.68712 0.74183 0.71978 0.0
H954 H 0.76332 0.7545 0.79576 0.0
H955 H 0.72549 0.76916 0.83138 0.0
C956 C 0.76759 0.68377 0.72757 0.0
C957 C 0.76889 0.68913 0.69499 0.0
C958 C 0.75621 0.70386 0.7473 0.0
C959 C 0.74635 0.73002 0.73484 0.0
C960 C 0.75077 0.73754 0.70249 0.0
C961 C 0.76174 0.71721 0.68279 0.0
C962 C 0.67531 0.75817 0.7642 0.0
C963 C 0.68459 0.76423 0.79617 0.0
C964 C 0.69665 0.74902 0.74383 0.0
C965 C 0.72793 0.74623 0.75502 0.0
C966 C 0.73889 0.75541 0.78651 0.0
C967 C 0.71735 0.76408 0.80687 0.0
H968 H 0.23352 0.89329 0.75137 0.0
H969 H 0.23074 0.95776 0.83094 0.0
H970 H 0.2505 0.94781 0.71742 0.0
H971 H 0.24621 0.01185 0.79694 0.0
H972 H 0.34067 0.112 0.73863 0.0
H973 H 0.30358 0.05721 0.77248 0.0
H974 H 0.23736 0.99211 0.69246 0.0
H975 H 0.27556 0.04648 0.65859 0.0
C976 C 0.2352 0.91866 0.76138 0.0
C977 C 0.23139 0.92151 0.7938 0.0
C978 C 0.24488 0.95001 0.74193 0.0
C979 C 0.25041 0.98461 0.75453 0.0
C980 C 0.24319 0.98609 0.78657 0.0
C981 C 0.23404 0.95498 0.80602 0.0
C982 C 0.31751 0.08631 0.72849 0.0
C983 C 0.31136 0.08328 0.69599 0.0
C984 C 0.29611 0.05481 0.74786 0.0
C985 C 0.26781 0.01988 0.73511 0.0
C986 C 0.25954 0.01815 0.70295 0.0
C987 C 0.28125 0.04941 0.68358 0.0
H988 H 0.04098 0.28018 0.83641 0.0
H989 H 0.11162 0.34166 0.75732 0.0
H990 H 0.98715 0.24423 0.80142 0.0
H991 H 0.05748 0.30668 0.7223 0.0
H992 H 0.89331 0.24406 0.73785 0.0
H993 H 0.94616 0.26028 0.77373 0.0
H994 H 0.011 0.2494 0.69795 0.0
H995 H 0.9587 0.23455 0.66203 0.0
C996 C 0.04515 0.28552 0.81142 0.0
C997 C 0.0804 0.31402 0.7996 0.0
C998 C 0.01419 0.26512 0.79139 0.0
C999 C 0.01763 0.27301 0.7591 0.0
C1000 C 0.05373 0.29957 0.74701 0.0
C1001 C 0.08489 0.31972 0.76707 0.0
C1002 C 0.91848 0.24421 0.7291 0.0
C1003 C 0.92208 0.23858 0.69711 0.0
C1004 C 0.94885 0.25345 0.74965 0.0
C1005 C 0.98322 0.25678 0.73863 0.0
C1006 C 0.98543 0.24807 0.70709 0.0
C1007 C 0.95532 0.23928 0.68655 0.0
loop_
_geom_bond_atom_site_label_1
_geom_bond_atom_site_label_2
_geom_bond_distance
_geom_bond_site_symmetry_2
_ccdc_geom_bond_type
Co0 O3 1.970 . S
Co0 N17 1.989 . S
Co0 O25 1.967 . S
Co0 O32 1.920 . S
Co1 O4 1.966 . S
Co1 N10 2.022 . S
Co1 N18 1.993 . S
Co1 O26 1.941 . S
C2 O3 1.258 . S
C2 O4 1.263 . S
O3 Co0 1.970 . S
O3 C2 1.258 . S
O4 Co1 1.966 . S
O4 C2 1.263 . S
C5 O6 1.235 . S
C5 O32 1.289 . S
O6 C5 1.235 . S
C7 C9 1.400 . S
C7 N10 1.351 . S
C7 C12 1.501 . S
C8 C9 1.387 . S
C8 N11 1.341 . S
C9 C7 1.400 . S
C9 C8 1.387 . S
N10 Co1 2.022 . S
N10 C7 1.351 . S
N10 N11 1.365 . S
N11 C8 1.341 . S
N11 N10 1.365 . S
N11 H31 0.862 . S
C12 C7 1.501 . S
C12 H13 0.961 . S
C12 H14 0.961 . S
C12 H15 0.960 . S
H13 C12 0.961 . S
H14 C12 0.961 . S
H15 C12 0.960 . S
C16 N17 1.342 . S
C16 C20 1.401 . S
C16 C21 1.499 . S
N17 Co0 1.989 . S
N17 C16 1.342 . S
N17 N18 1.388 . S
N18 Co1 1.993 . S
N18 N17 1.388 . S
N18 C19 1.346 . S
C19 N18 1.346 . S
C19 C20 1.396 . S
C19 C29 1.510 . S
C20 C16 1.401 . S
C20 C19 1.396 . S
C21 C16 1.499 . S
C21 H22 0.959 . S
C21 H23 0.960 . S
C21 H24 0.961 . S
H22 C21 0.959 . S
H23 C21 0.960 . S
H24 C21 0.961 . S
O25 Co0 1.967 . S
O25 C33 1.258 . S
O26 Co1 1.941 . S
O26 C33 1.266 . S
H27 C29 0.959 . S
H28 C29 0.961 . S
C29 C19 1.510 . S
C29 H27 0.959 . S
C29 H28 0.961 . S
C29 H30 0.960 . S
H30 C29 0.960 . S
H31 N11 0.862 . S
O32 Co0 1.920 . S
O32 C5 1.289 . S
C33 O25 1.258 . S
C33 O26 1.266 . S
Co34 O37 1.970 . S
Co34 N51 1.989 . S
Co34 O59 1.967 . S
Co34 O66 1.920 . S
Co35 O38 1.966 . S
Co35 N44 2.022 . S
Co35 N52 1.993 . S
Co35 O60 1.941 . S
C36 O37 1.258 . S
C36 O38 1.263 . S
O37 Co34 1.970 . S
O37 C36 1.258 . S
O38 Co35 1.966 . S
O38 C36 1.263 . S
C39 O40 1.235 . S
C39 O66 1.289 . S
O40 C39 1.235 . S
C41 C43 1.400 . S
C41 N44 1.351 . S
C41 C46 1.501 . S
C42 C43 1.387 . S
C42 N45 1.341 . S
C43 C41 1.400 . S
C43 C42 1.387 . S
N44 Co35 2.022 . S
N44 C41 1.351 . S
N44 N45 1.365 . S
N45 C42 1.341 . S
N45 N44 1.365 . S
N45 H65 0.862 . S
C46 C41 1.501 . S
C46 H47 0.961 . S
C46 H48 0.961 . S
C46 H49 0.960 . S
H47 C46 0.961 . S
H48 C46 0.961 . S
H49 C46 0.960 . S
C50 N51 1.342 . S
C50 C54 1.401 . S
C50 C55 1.499 . S
N51 Co34 1.989 . S
N51 C50 1.342 . S
N51 N52 1.388 . S
N52 Co35 1.993 . S
N52 N51 1.388 . S
N52 C53 1.346 . S
C53 N52 1.346 . S
C53 C54 1.396 . S
C53 C63 1.510 . S
C54 C50 1.401 . S
C54 C53 1.396 . S
C55 C50 1.499 . S
C55 H56 0.959 . S
C55 H57 0.960 . S
C55 H58 0.961 . S
H56 C55 0.959 . S
H57 C55 0.960 . S
H58 C55 0.961 . S
O59 Co34 1.967 . S
O59 C67 1.258 . S
O60 Co35 1.941 . S
O60 C67 1.266 . S
H61 C63 0.959 . S
H62 C63 0.961 . S
C63 C53 1.510 . S
C63 H61 0.959 . S
C63 H62 0.961 . S
C63 H64 0.960 . S
H64 C63 0.960 . S
H65 N45 0.862 . S
O66 Co34 1.920 . S
O66 C39 1.289 . S
C67 O59 1.258 . S
C67 O60 1.266 . S
Co68 O71 1.970 . S
Co68 N85 1.989 . S
Co68 O93 1.967 . S
Co68 O100 1.920 . S
Co69 O72 1.966 . S
Co69 N78 2.022 . S
Co69 N86 1.993 . S
Co69 O94 1.941 . S
C70 O71 1.258 . S
C70 O72 1.263 . S
O71 Co68 1.970 . S
O71 C70 1.258 . S
O72 Co69 1.966 . S
O72 C70 1.263 . S
C73 O74 1.235 . S
C73 O100 1.289 . S
O74 C73 1.235 . S
C75 C77 1.400 . S
C75 N78 1.351 . S
C75 C80 1.501 . S
C76 C77 1.387 . S
C76 N79 1.341 . S
C77 C75 1.400 . S
C77 C76 1.387 . S
N78 Co69 2.022 . S
N78 C75 1.351 . S
N78 N79 1.365 . S
N79 C76 1.341 . S
N79 N78 1.365 . S
N79 H99 0.862 . S
C80 C75 1.501 . S
C80 H81 0.961 . S
C80 H82 0.961 . S
C80 H83 0.960 . S
H81 C80 0.961 . S
H82 C80 0.961 . S
H83 C80 0.960 . S
C84 N85 1.342 . S
C84 C88 1.401 . S
C84 C89 1.499 . S
N85 Co68 1.989 . S
N85 C84 1.342 . S
N85 N86 1.388 . S
N86 Co69 1.993 . S
N86 N85 1.388 . S
N86 C87 1.346 . S
C87 N86 1.346 . S
C87 C88 1.396 . S
C87 C97 1.510 . S
C88 C84 1.401 . S
C88 C87 1.396 . S
C89 C84 1.499 . S
C89 H90 0.959 . S
C89 H91 0.960 . S
C89 H92 0.961 . S
H90 C89 0.959 . S
H91 C89 0.960 . S
H92 C89 0.961 . S
O93 Co68 1.967 . S
O93 C101 1.258 . S
O94 Co69 1.941 . S
O94 C101 1.266 . S
H95 C97 0.959 . S
H96 C97 0.961 . S
C97 C87 1.510 . S
C97 H95 0.959 . S
C97 H96 0.961 . S
C97 H98 0.960 . S
H98 C97 0.960 . S
H99 N79 0.862 . S
O100 Co68 1.920 . S
O100 C73 1.289 . S
C101 O93 1.258 . S
C101 O94 1.266 . S
Co102 O105 1.970 . S
Co102 N119 1.989 . S
Co102 O127 1.967 . S
Co102 O134 1.920 . S
Co103 O106 1.966 . S
Co103 N112 2.022 . S
Co103 N120 1.993 . S
Co103 O128 1.941 . S
C104 O105 1.258 . S
C104 O106 1.263 . S
O105 Co102 1.970 . S
O105 C104 1.258 . S
O106 Co103 1.966 . S
O106 C104 1.263 . S
C107 O108 1.235 . S
C107 O134 1.289 . S
O108 C107 1.235 . S
C109 C111 1.400 . S
C109 N112 1.351 . S
C109 C114 1.501 . S
C110 C111 1.387 . S
C110 N113 1.341 . S
C111 C109 1.400 . S
C111 C110 1.387 . S
N112 Co103 2.022 . S
N112 C109 1.351 . S
N112 N113 1.365 . S
N113 C110 1.341 . S
N113 N112 1.365 . S
N113 H133 0.862 . S
C114 C109 1.501 . S
C114 H115 0.961 . S
C114 H116 0.961 . S
C114 H117 0.960 . S
H115 C114 0.961 . S
H116 C114 0.961 . S
H117 C114 0.960 . S
C118 N119 1.342 . S
C118 C122 1.401 . S
C118 C123 1.499 . S
N119 Co102 1.989 . S
N119 C118 1.342 . S
N119 N120 1.388 . S
N120 Co103 1.993 . S
N120 N119 1.388 . S
N120 C121 1.346 . S
C121 N120 1.346 . S
C121 C122 1.396 . S
C121 C131 1.510 . S
C122 C118 1.401 . S
C122 C121 1.396 . S
C123 C118 1.499 . S
C123 H124 0.959 . S
C123 H125 0.960 . S
C123 H126 0.961 . S
H124 C123 0.959 . S
H125 C123 0.960 . S
H126 C123 0.961 . S
O127 Co102 1.967 . S
O127 C135 1.258 . S
O128 Co103 1.941 . S
O128 C135 1.266 . S
H129 C131 0.959 . S
H130 C131 0.961 . S
C131 C121 1.510 . S
C131 H129 0.959 . S
C131 H130 0.961 . S
C131 H132 0.960 . S
H132 C131 0.960 . S
H133 N113 0.862 . S
O134 Co102 1.920 . S
O134 C107 1.289 . S
C135 O127 1.258 . S
C135 O128 1.266 . S
Co136 O139 1.970 . S
Co136 N153 1.989 . S
Co136 O161 1.967 . S
Co136 O168 1.920 . S
Co137 O140 1.966 . S
Co137 N146 2.022 . S
Co137 N154 1.993 . S
Co137 O162 1.941 . S
C138 O139 1.258 . S
C138 O140 1.263 . S
O139 Co136 1.970 . S
O139 C138 1.258 . S
O140 Co137 1.966 . S
O140 C138 1.263 . S
C141 O142 1.235 . S
C141 O168 1.289 . S
O142 C141 1.235 . S
C143 C145 1.400 . S
C143 N146 1.351 . S
C143 C148 1.501 . S
C144 C145 1.387 . S
C144 N147 1.341 . S
C145 C143 1.400 . S
C145 C144 1.387 . S
N146 Co137 2.022 . S
N146 C143 1.351 . S
N146 N147 1.365 . S
N147 C144 1.341 . S
N147 N146 1.365 . S
N147 H167 0.862 . S
C148 C143 1.501 . S
C148 H149 0.961 . S
C148 H150 0.961 . S
C148 H151 0.960 . S
H149 C148 0.961 . S
H150 C148 0.961 . S
H151 C148 0.960 . S
C152 N153 1.342 . S
C152 C156 1.401 . S
C152 C157 1.499 . S
N153 Co136 1.989 . S
N153 C152 1.342 . S
N153 N154 1.388 . S
N154 Co137 1.993 . S
N154 N153 1.388 . S
N154 C155 1.346 . S
C155 N154 1.346 . S
C155 C156 1.396 . S
C155 C165 1.510 . S
C156 C152 1.401 . S
C156 C155 1.396 . S
C157 C152 1.499 . S
C157 H158 0.959 . S
C157 H159 0.960 . S
C157 H160 0.961 . S
H158 C157 0.959 . S
H159 C157 0.960 . S
H160 C157 0.961 . S
O161 Co136 1.967 . S
O161 C169 1.258 . S
O162 Co137 1.941 . S
O162 C169 1.266 . S
H163 C165 0.959 . S
H164 C165 0.961 . S
C165 C155 1.510 . S
C165 H163 0.959 . S
C165 H164 0.961 . S
C165 H166 0.960 . S
H166 C165 0.960 . S
H167 N147 0.862 . S
O168 Co136 1.920 . S
O168 C141 1.289 . S
C169 O161 1.258 . S
C169 O162 1.266 . S
Co170 O173 1.970 . S
Co170 N187 1.989 . S
Co170 O195 1.967 . S
Co170 O202 1.920 . S
Co171 O174 1.966 . S
Co171 N180 2.022 . S
Co171 N188 1.993 . S
Co171 O196 1.941 . S
C172 O173 1.258 . S
C172 O174 1.263 . S
O173 Co170 1.970 . S
O173 C172 1.258 . S
O174 Co171 1.966 . S
O174 C172 1.263 . S
C175 O176 1.235 . S
C175 O202 1.289 . S
O176 C175 1.235 . S
C177 C179 1.400 . S
C177 N180 1.351 . S
C177 C182 1.501 . S
C178 C179 1.387 . S
C178 N181 1.341 . S
C179 C177 1.400 . S
C179 C178 1.387 . S
N180 Co171 2.022 . S
N180 C177 1.351 . S
N180 N181 1.365 . S
N181 C178 1.341 . S
N181 N180 1.365 . S
N181 H201 0.862 . S
C182 C177 1.501 . S
C182 H183 0.961 . S
C182 H184 0.961 . S
C182 H185 0.960 . S
H183 C182 0.961 . S
H184 C182 0.961 . S
H185 C182 0.960 . S
C186 N187 1.342 . S
C186 C190 1.401 . S
C186 C191 1.499 . S
N187 Co170 1.989 . S
N187 C186 1.342 . S
N187 N188 1.388 . S
N188 Co171 1.993 . S
N188 N187 1.388 . S
N188 C189 1.346 . S
C189 N188 1.346 . S
C189 C190 1.396 . S
C189 C199 1.510 . S
C190 C186 1.401 . S
C190 C189 1.396 . S
C191 C186 1.499 . S
C191 H192 0.959 . S
C191 H193 0.960 . S
C191 H194 0.961 . S
H192 C191 0.959 . S
H193 C191 0.960 . S
H194 C191 0.961 . S
O195 Co170 1.967 . S
O195 C203 1.258 . S
O196 Co171 1.941 . S
O196 C203 1.266 . S
H197 C199 0.959 . S
H198 C199 0.961 . S
C199 C189 1.510 . S
C199 H197 0.959 . S
C199 H198 0.961 . S
C199 H200 0.960 . S
H200 C199 0.960 . S
H201 N181 0.862 . S
O202 Co170 1.920 . S
O202 C175 1.289 . S
C203 O195 1.258 . S
C203 O196 1.266 . S
Co204 O207 1.970 . S
Co204 N221 1.989 . S
Co204 O229 1.967 . S
Co204 O236 1.920 . S
Co205 O208 1.966 . S
Co205 N214 2.022 . S
Co205 N222 1.993 . S
Co205 O230 1.941 . S
C206 O207 1.258 . S
C206 O208 1.263 . S
O207 Co204 1.970 . S
O207 C206 1.258 . S
O208 Co205 1.966 . S
O208 C206 1.263 . S
C209 O210 1.235 . S
C209 O236 1.289 . S
O210 C209 1.235 . S
C211 C213 1.400 . S
C211 N214 1.351 . S
C211 C216 1.501 . S
C212 C213 1.387 . S
C212 N215 1.341 . S
C213 C211 1.400 . S
C213 C212 1.387 . S
N214 Co205 2.022 . S
N214 C211 1.351 . S
N214 N215 1.365 . S
N215 C212 1.341 . S
N215 N214 1.365 . S
N215 H235 0.862 . S
C216 C211 1.501 . S
C216 H217 0.961 . S
C216 H218 0.961 . S
C216 H219 0.960 . S
H217 C216 0.961 . S
H218 C216 0.961 . S
H219 C216 0.960 . S
C220 N221 1.342 . S
C220 C224 1.401 . S
C220 C225 1.499 . S
N221 Co204 1.989 . S
N221 C220 1.342 . S
N221 N222 1.388 . S
N222 Co205 1.993 . S
N222 N221 1.388 . S
N222 C223 1.346 . S
C223 N222 1.346 . S
C223 C224 1.396 . S
C223 C233 1.510 . S
C224 C220 1.401 . S
C224 C223 1.396 . S
C225 C220 1.499 . S
C225 H226 0.959 . S
C225 H227 0.960 . S
C225 H228 0.961 . S
H226 C225 0.959 . S
H227 C225 0.960 . S
H228 C225 0.961 . S
O229 Co204 1.967 . S
O229 C237 1.258 . S
O230 Co205 1.941 . S
O230 C237 1.266 . S
H231 C233 0.959 . S
H232 C233 0.961 . S
C233 C223 1.510 . S
C233 H231 0.959 . S
C233 H232 0.961 . S
C233 H234 0.960 . S
H234 C233 0.960 . S
H235 N215 0.862 . S
O236 Co204 1.920 . S
O236 C209 1.289 . S
C237 O229 1.258 . S
C237 O230 1.266 . S
Co238 O241 1.970 . S
Co238 N255 1.989 . S
Co238 O263 1.967 . S
Co238 O270 1.920 . S
Co239 O242 1.966 . S
Co239 N248 2.022 . S
Co239 N256 1.993 . S
Co239 O264 1.941 . S
C240 O241 1.258 . S
C240 O242 1.263 . S
O241 Co238 1.970 . S
O241 C240 1.258 . S
O242 Co239 1.966 . S
O242 C240 1.263 . S
C243 O244 1.235 . S
C243 O270 1.289 . S
O244 C243 1.235 . S
C245 C247 1.400 . S
C245 N248 1.351 . S
C245 C250 1.501 . S
C246 C247 1.387 . S
C246 N249 1.341 . S
C247 C245 1.400 . S
C247 C246 1.387 . S
N248 Co239 2.022 . S
N248 C245 1.351 . S
N248 N249 1.365 . S
N249 C246 1.341 . S
N249 N248 1.365 . S
N249 H269 0.862 . S
C250 C245 1.501 . S
C250 H251 0.961 . S
C250 H252 0.961 . S
C250 H253 0.960 . S
H251 C250 0.961 . S
H252 C250 0.961 . S
H253 C250 0.960 . S
C254 N255 1.342 . S
C254 C258 1.401 . S
C254 C259 1.499 . S
N255 Co238 1.989 . S
N255 C254 1.342 . S
N255 N256 1.388 . S
N256 Co239 1.993 . S
N256 N255 1.388 . S
N256 C257 1.346 . S
C257 N256 1.346 . S
C257 C258 1.396 . S
C257 C267 1.510 . S
C258 C254 1.401 . S
C258 C257 1.396 . S
C259 C254 1.499 . S
C259 H260 0.959 . S
C259 H261 0.960 . S
C259 H262 0.961 . S
H260 C259 0.959 . S
H261 C259 0.960 . S
H262 C259 0.961 . S
O263 Co238 1.967 . S
O263 C271 1.258 . S
O264 Co239 1.941 . S
O264 C271 1.266 . S
H265 C267 0.959 . S
H266 C267 0.961 . S
C267 C257 1.510 . S
C267 H265 0.959 . S
C267 H266 0.961 . S
C267 H268 0.960 . S
H268 C267 0.960 . S
H269 N249 0.862 . S
O270 Co238 1.920 . S
O270 C243 1.289 . S
C271 O263 1.258 . S
C271 O264 1.266 . S
Co272 O275 1.970 . S
Co272 N289 1.989 . S
Co272 O297 1.967 . S
Co272 O304 1.920 . S
Co273 O276 1.966 . S
Co273 N282 2.022 . S
Co273 N290 1.993 . S
Co273 O298 1.941 . S
C274 O275 1.258 . S
C274 O276 1.263 . S
O275 Co272 1.970 . S
O275 C274 1.258 . S
O276 Co273 1.966 . S
O276 C274 1.263 . S
C277 O278 1.235 . S
C277 O304 1.289 . S
O278 C277 1.235 . S
C279 C281 1.400 . S
C279 N282 1.351 . S
C279 C284 1.501 . S
C280 C281 1.387 . S
C280 N283 1.341 . S
C281 C279 1.400 . S
C281 C280 1.387 . S
N282 Co273 2.022 . S
N282 C279 1.351 . S
N282 N283 1.365 . S
N283 C280 1.341 . S
N283 N282 1.365 . S
N283 H303 0.862 . S
C284 C279 1.501 . S
C284 H285 0.961 . S
C284 H286 0.961 . S
C284 H287 0.960 . S
H285 C284 0.961 . S
H286 C284 0.961 . S
H287 C284 0.960 . S
C288 N289 1.342 . S
C288 C292 1.401 . S
C288 C293 1.499 . S
N289 Co272 1.989 . S
N289 C288 1.342 . S
N289 N290 1.388 . S
N290 Co273 1.993 . S
N290 N289 1.388 . S
N290 C291 1.346 . S
C291 N290 1.346 . S
C291 C292 1.396 . S
C291 C301 1.510 . S
C292 C288 1.401 . S
C292 C291 1.396 . S
C293 C288 1.499 . S
C293 H294 0.959 . S
C293 H295 0.960 . S
C293 H296 0.961 . S
H294 C293 0.959 . S
H295 C293 0.960 . S
H296 C293 0.961 . S
O297 Co272 1.967 . S
O297 C305 1.258 . S
O298 Co273 1.941 . S
O298 C305 1.266 . S
H299 C301 0.959 . S
H300 C301 0.961 . S
C301 C291 1.510 . S
C301 H299 0.959 . S
C301 H300 0.961 . S
C301 H302 0.960 . S
H302 C301 0.960 . S
H303 N283 0.862 . S
O304 Co272 1.920 . S
O304 C277 1.289 . S
C305 O297 1.258 . S
C305 O298 1.266 . S
Co306 O309 1.970 . S
Co306 N323 1.989 . S
Co306 O331 1.967 . S
Co306 O338 1.920 . S
Co307 O310 1.966 . S
Co307 N316 2.022 . S
Co307 N324 1.993 . S
Co307 O332 1.941 . S
C308 O309 1.258 . S
C308 O310 1.263 . S
O309 Co306 1.970 . S
O309 C308 1.258 . S
O310 Co307 1.966 . S
O310 C308 1.263 . S
C311 O312 1.235 . S
C311 O338 1.289 . S
O312 C311 1.235 . S
C313 C315 1.400 . S
C313 N316 1.351 . S
C313 C318 1.501 . S
C314 C315 1.387 . S
C314 N317 1.341 . S
C315 C313 1.400 . S
C315 C314 1.387 . S
N316 Co307 2.022 . S
N316 C313 1.351 . S
N316 N317 1.365 . S
N317 C314 1.341 . S
N317 N316 1.365 . S
N317 H337 0.862 . S
C318 C313 1.501 . S
C318 H319 0.961 . S
C318 H320 0.961 . S
C318 H321 0.960 . S
H319 C318 0.961 . S
H320 C318 0.961 . S
H321 C318 0.960 . S
C322 N323 1.342 . S
C322 C326 1.401 . S
C322 C327 1.499 . S
N323 Co306 1.989 . S
N323 C322 1.342 . S
N323 N324 1.388 . S
N324 Co307 1.993 . S
N324 N323 1.388 . S
N324 C325 1.346 . S
C325 N324 1.346 . S
C325 C326 1.396 . S
C325 C335 1.510 . S
C326 C322 1.401 . S
C326 C325 1.396 . S
C327 C322 1.499 . S
C327 H328 0.959 . S
C327 H329 0.960 . S
C327 H330 0.961 . S
H328 C327 0.959 . S
H329 C327 0.960 . S
H330 C327 0.961 . S
O331 Co306 1.967 . S
O331 C339 1.258 . S
O332 Co307 1.941 . S
O332 C339 1.266 . S
H333 C335 0.959 . S
H334 C335 0.961 . S
C335 C325 1.510 . S
C335 H333 0.959 . S
C335 H334 0.961 . S
C335 H336 0.960 . S
H336 C335 0.960 . S
H337 N317 0.862 . S
O338 Co306 1.920 . S
O338 C311 1.289 . S
C339 O331 1.258 . S
C339 O332 1.266 . S
Co340 O343 1.970 . S
Co340 N357 1.989 . S
Co340 O365 1.967 . S
Co340 O372 1.920 . S
Co341 O344 1.966 . S
Co341 N350 2.022 . S
Co341 N358 1.993 . S
Co341 O366 1.941 . S
C342 O343 1.258 . S
C342 O344 1.263 . S
O343 Co340 1.970 . S
O343 C342 1.258 . S
O344 Co341 1.966 . S
O344 C342 1.263 . S
C345 O346 1.235 . S
C345 O372 1.289 . S
O346 C345 1.235 . S
C347 C349 1.400 . S
C347 N350 1.351 . S
C347 C352 1.501 . S
C348 C349 1.387 . S
C348 N351 1.341 . S
C349 C347 1.400 . S
C349 C348 1.387 . S
N350 Co341 2.022 . S
N350 C347 1.351 . S
N350 N351 1.365 . S
N351 C348 1.341 . S
N351 N350 1.365 . S
N351 H371 0.862 . S
C352 C347 1.501 . S
C352 H353 0.961 . S
C352 H354 0.961 . S
C352 H355 0.960 . S
H353 C352 0.961 . S
H354 C352 0.961 . S
H355 C352 0.960 . S
C356 N357 1.342 . S
C356 C360 1.401 . S
C356 C361 1.499 . S
N357 Co340 1.989 . S
N357 C356 1.342 . S
N357 N358 1.388 . S
N358 Co341 1.993 . S
N358 N357 1.388 . S
N358 C359 1.346 . S
C359 N358 1.346 . S
C359 C360 1.396 . S
C359 C369 1.510 . S
C360 C356 1.401 . S
C360 C359 1.396 . S
C361 C356 1.499 . S
C361 H362 0.959 . S
C361 H363 0.960 . S
C361 H364 0.961 . S
H362 C361 0.959 . S
H363 C361 0.960 . S
H364 C361 0.961 . S
O365 Co340 1.967 . S
O365 C373 1.258 . S
O366 Co341 1.941 . S
O366 C373 1.266 . S
H367 C369 0.959 . S
H368 C369 0.961 . S
C369 C359 1.510 . S
C369 H367 0.959 . S
C369 H368 0.961 . S
C369 H370 0.960 . S
H370 C369 0.960 . S
H371 N351 0.862 . S
O372 Co340 1.920 . S
O372 C345 1.289 . S
C373 O365 1.258 . S
C373 O366 1.266 . S
Co374 O377 1.970 . S
Co374 N391 1.989 . S
Co374 O399 1.967 . S
Co374 O406 1.920 . S
Co375 O378 1.966 . S
Co375 N384 2.022 . S
Co375 N392 1.993 . S
Co375 O400 1.941 . S
C376 O377 1.258 . S
C376 O378 1.263 . S
O377 Co374 1.970 . S
O377 C376 1.258 . S
O378 Co375 1.966 . S
O378 C376 1.263 . S
C379 O380 1.235 . S
C379 O406 1.289 . S
O380 C379 1.235 . S
C381 C383 1.400 . S
C381 N384 1.351 . S
C381 C386 1.501 . S
C382 C383 1.387 . S
C382 N385 1.341 . S
C383 C381 1.400 . S
C383 C382 1.387 . S
N384 Co375 2.022 . S
N384 C381 1.351 . S
N384 N385 1.365 . S
N385 C382 1.341 . S
N385 N384 1.365 . S
N385 H405 0.862 . S
C386 C381 1.501 . S
C386 H387 0.961 . S
C386 H388 0.961 . S
C386 H389 0.960 . S
H387 C386 0.961 . S
H388 C386 0.961 . S
H389 C386 0.960 . S
C390 N391 1.342 . S
C390 C394 1.401 . S
C390 C395 1.499 . S
N391 Co374 1.989 . S
N391 C390 1.342 . S
N391 N392 1.388 . S
N392 Co375 1.993 . S
N392 N391 1.388 . S
N392 C393 1.346 . S
C393 N392 1.346 . S
C393 C394 1.396 . S
C393 C403 1.510 . S
C394 C390 1.401 . S
C394 C393 1.396 . S
C395 C390 1.499 . S
C395 H396 0.959 . S
C395 H397 0.960 . S
C395 H398 0.961 . S
H396 C395 0.959 . S
H397 C395 0.960 . S
H398 C395 0.961 . S
O399 Co374 1.967 . S
O399 C407 1.258 . S
O400 Co375 1.941 . S
O400 C407 1.266 . S
H401 C403 0.959 . S
H402 C403 0.961 . S
C403 C393 1.510 . S
C403 H401 0.959 . S
C403 H402 0.961 . S
C403 H404 0.960 . S
H404 C403 0.960 . S
H405 N385 0.862 . S
O406 Co374 1.920 . S
O406 C379 1.289 . S
C407 O399 1.258 . S
C407 O400 1.266 . S
H408 C416 0.950 . S
H409 C421 0.950 . S
H410 C418 0.950 . S
H411 C420 0.950 . S
H412 C422 0.950 . S
H413 C424 0.950 . S
H414 C426 0.950 . S
H415 C427 0.950 . S
C416 H408 0.950 . S
C416 C417 1.386 . S
C416 C418 1.391 . S
C417 C416 1.386 . S
C417 C421 1.393 . S
C418 H410 0.950 . S
C418 C416 1.391 . S
C418 C419 1.400 . S
C419 C418 1.400 . S
C419 C420 1.398 . S
C419 C425 1.491 . S
C420 H411 0.950 . S
C420 C419 1.398 . S
C420 C421 1.391 . S
C421 H409 0.950 . S
C421 C417 1.393 . S
C421 C420 1.391 . S
C422 H412 0.950 . S
C422 C423 1.386 . S
C422 C424 1.391 . S
C423 C422 1.386 . S
C423 C427 1.393 . S
C424 H413 0.950 . S
C424 C422 1.391 . S
C424 C425 1.400 . S
C425 C419 1.491 . S
C425 C424 1.400 . S
C425 C426 1.398 . S
C426 H414 0.950 . S
C426 C425 1.398 . S
C426 C427 1.391 . S
C427 H415 0.950 . S
C427 C423 1.393 . S
C427 C426 1.391 . S
H428 C436 0.950 . S
H429 C441 0.950 . S
H430 C438 0.950 . S
H431 C440 0.950 . S
H432 C442 0.950 . S
H433 C444 0.950 . S
H434 C446 0.950 . S
H435 C447 0.950 . S
C436 H428 0.950 . S
C436 C437 1.386 . S
C436 C438 1.391 . S
C437 C436 1.386 . S
C437 C441 1.393 . S
C438 H430 0.950 . S
C438 C436 1.391 . S
C438 C439 1.400 . S
C439 C438 1.400 . S
C439 C440 1.398 . S
C439 C445 1.491 . S
C440 H431 0.950 . S
C440 C439 1.398 . S
C440 C441 1.391 . S
C441 H429 0.950 . S
C441 C437 1.393 . S
C441 C440 1.391 . S
C442 H432 0.950 . S
C442 C443 1.386 . S
C442 C444 1.391 . S
C443 C442 1.386 . S
C443 C447 1.393 . S
C444 H433 0.950 . S
C444 C442 1.391 . S
C444 C445 1.400 . S
C445 C439 1.491 . S
C445 C444 1.400 . S
C445 C446 1.398 . S
C446 H434 0.950 . S
C446 C445 1.398 . S
C446 C447 1.391 . S
C447 H435 0.950 . S
C447 C443 1.393 . S
C447 C446 1.391 . S
H448 C456 0.950 . S
H449 C461 0.950 . S
H450 C458 0.950 . S
H451 C460 0.950 . S
H452 C462 0.950 . S
H453 C464 0.950 . S
H454 C466 0.950 . S
H455 C467 0.950 . S
C456 H448 0.950 . S
C456 C457 1.386 . S
C456 C458 1.391 . S
C457 C456 1.386 . S
C457 C461 1.393 . S
C458 H450 0.950 . S
C458 C456 1.391 . S
C458 C459 1.400 . S
C459 C458 1.400 . S
C459 C460 1.398 . S
C459 C465 1.491 . S
C460 H451 0.950 . S
C460 C459 1.398 . S
C460 C461 1.391 . S
C461 H449 0.950 . S
C461 C457 1.393 . S
C461 C460 1.391 . S
C462 H452 0.950 . S
C462 C463 1.386 . S
C462 C464 1.391 . S
C463 C462 1.386 . S
C463 C467 1.393 . S
C464 H453 0.950 . S
C464 C462 1.391 . S
C464 C465 1.400 . S
C465 C459 1.491 . S
C465 C464 1.400 . S
C465 C466 1.398 . S
C466 H454 0.950 . S
C466 C465 1.398 . S
C466 C467 1.391 . S
C467 H455 0.950 . S
C467 C463 1.393 . S
C467 C466 1.391 . S
H468 C476 0.950 . S
H469 C481 0.950 . S
H470 C478 0.950 . S
H471 C480 0.950 . S
H472 C482 0.950 . S
H473 C484 0.950 . S
H474 C486 0.950 . S
H475 C487 0.950 . S
C476 H468 0.950 . S
C476 C477 1.386 . S
C476 C478 1.391 . S
C477 C476 1.386 . S
C477 C481 1.393 . S
C478 H470 0.950 . S
C478 C476 1.391 . S
C478 C479 1.400 . S
C479 C478 1.400 . S
C479 C480 1.398 . S
C479 C485 1.491 . S
C480 H471 0.950 . S
C480 C479 1.398 . S
C480 C481 1.391 . S
C481 H469 0.950 . S
C481 C477 1.393 . S
C481 C480 1.391 . S
C482 H472 0.950 . S
C482 C483 1.386 . S
C482 C484 1.391 . S
C483 C482 1.386 . S
C483 C487 1.393 . S
C484 H473 0.950 . S
C484 C482 1.391 . S
C484 C485 1.400 . S
C485 C479 1.491 . S
C485 C484 1.400 . S
C485 C486 1.398 . S
C486 H474 0.950 . S
C486 C485 1.398 . S
C486 C487 1.391 . S
C487 H475 0.950 . S
C487 C483 1.393 . S
C487 C486 1.391 . S
H488 C496 0.950 . S
H489 C501 0.950 . S
H490 C498 0.950 . S
H491 C500 0.950 . S
H492 C502 0.950 . S
H493 C504 0.950 . S
H494 C506 0.950 . S
H495 C507 0.950 . S
C496 H488 0.950 . S
C496 C497 1.386 . S
C496 C498 1.391 . S
C497 C496 1.386 . S
C497 C501 1.393 . S
C498 H490 0.950 . S
C498 C496 1.391 . S
C498 C499 1.400 . S
C499 C498 1.400 . S
C499 C500 1.398 . S
C499 C505 1.491 . S
C500 H491 0.950 . S
C500 C499 1.398 . S
C500 C501 1.391 . S
C501 H489 0.950 . S
C501 C497 1.393 . S
C501 C500 1.391 . S
C502 H492 0.950 . S
C502 C503 1.386 . S
C502 C504 1.391 . S
C503 C502 1.386 . S
C503 C507 1.393 . S
C504 H493 0.950 . S
C504 C502 1.391 . S
C504 C505 1.400 . S
C505 C499 1.491 . S
C505 C504 1.400 . S
C505 C506 1.398 . S
C506 H494 0.950 . S
C506 C505 1.398 . S
C506 C507 1.391 . S
C507 H495 0.950 . S
C507 C503 1.393 . S
C507 C506 1.391 . S
H508 C516 0.950 . S
H509 C521 0.950 . S
H510 C518 0.950 . S
H511 C520 0.950 . S
H512 C522 0.950 . S
H513 C524 0.950 . S
H514 C526 0.950 . S
H515 C527 0.950 . S
C516 H508 0.950 . S
C516 C517 1.386 . S
C516 C518 1.391 . S
C517 C516 1.386 . S
C517 C521 1.393 . S
C518 H510 0.950 . S
C518 C516 1.391 . S
C518 C519 1.400 . S
C519 C518 1.400 . S
C519 C520 1.398 . S
C519 C525 1.491 . S
C520 H511 0.950 . S
C520 C519 1.398 . S
C520 C521 1.391 . S
C521 H509 0.950 . S
C521 C517 1.393 . S
C521 C520 1.391 . S
C522 H512 0.950 . S
C522 C523 1.386 . S
C522 C524 1.391 . S
C523 C522 1.386 . S
C523 C527 1.393 . S
C524 H513 0.950 . S
C524 C522 1.391 . S
C524 C525 1.400 . S
C525 C519 1.491 . S
C525 C524 1.400 . S
C525 C526 1.398 . S
C526 H514 0.950 . S
C526 C525 1.398 . S
C526 C527 1.391 . S
C527 H515 0.950 . S
C527 C523 1.393 . S
C527 C526 1.391 . S
H528 C536 0.950 . S
H529 C541 0.950 . S
H530 C538 0.950 . S
H531 C540 0.950 . S
H532 C542 0.950 . S
H533 C544 0.950 . S
H534 C546 0.950 . S
H535 C547 0.950 . S
C536 H528 0.950 . S
C536 C537 1.386 . S
C536 C538 1.391 . S
C537 C536 1.386 . S
C537 C541 1.393 . S
C538 H530 0.950 . S
C538 C536 1.391 . S
C538 C539 1.400 . S
C539 C538 1.400 . S
C539 C540 1.398 . S
C539 C545 1.491 . S
C540 H531 0.950 . S
C540 C539 1.398 . S
C540 C541 1.391 . S
C541 H529 0.950 . S
C541 C537 1.393 . S
C541 C540 1.391 . S
C542 H532 0.950 . S
C542 C543 1.386 . S
C542 C544 1.391 . S
C543 C542 1.386 . S
C543 C547 1.393 . S
C544 H533 0.950 . S
C544 C542 1.391 . S
C544 C545 1.400 . S
C545 C539 1.491 . S
C545 C544 1.400 . S
C545 C546 1.398 . S
C546 H534 0.950 . S
C546 C545 1.398 . S
C546 C547 1.391 . S
C547 H535 0.950 . S
C547 C543 1.393 . S
C547 C546 1.391 . S
H548 C556 0.950 . S
H549 C561 0.950 . S
H550 C558 0.950 . S
H551 C560 0.950 . S
H552 C562 0.950 . S
H553 C564 0.950 . S
H554 C566 0.950 . S
H555 C567 0.950 . S
C556 H548 0.950 . S
C556 C557 1.386 . S
C556 C558 1.391 . S
C557 C556 1.386 . S
C557 C561 1.393 . S
C558 H550 0.950 . S
C558 C556 1.391 . S
C558 C559 1.400 . S
C559 C558 1.400 . S
C559 C560 1.398 . S
C559 C565 1.491 . S
C560 H551 0.950 . S
C560 C559 1.398 . S
C560 C561 1.391 . S
C561 H549 0.950 . S
C561 C557 1.393 . S
C561 C560 1.391 . S
C562 H552 0.950 . S
C562 C563 1.386 . S
C562 C564 1.391 . S
C563 C562 1.386 . S
C563 C567 1.393 . S
C564 H553 0.950 . S
C564 C562 1.391 . S
C564 C565 1.400 . S
C565 C559 1.491 . S
C565 C564 1.400 . S
C565 C566 1.398 . S
C566 H554 0.950 . S
C566 C565 1.398 . S
C566 C567 1.391 . S
C567 H555 0.950 . S
C567 C563 1.393 . S
C567 C566 1.391 . S
H568 C576 0.950 . S
H569 C581 0.950 . S
H570 C578 0.950 . S
H571 C580 0.950 . S
H572 C582 0.950 . S
H573 C584 0.950 . S
H574 C586 0.950 . S
H575 C587 0.950 . S
C576 H568 0.950 . S
C576 C577 1.386 . S
C576 C578 1.391 . S
C577 C576 1.386 . S
C577 C581 1.393 . S
C578 H570 0.950 . S
C578 C576 1.391 . S
C578 C579 1.400 . S
C579 C578 1.400 . S
C579 C580 1.398 . S
C579 C585 1.491 . S
C580 H571 0.950 . S
C580 C579 1.398 . S
C580 C581 1.391 . S
C581 H569 0.950 . S
C581 C577 1.393 . S
C581 C580 1.391 . S
C582 H572 0.950 . S
C582 C583 1.386 . S
C582 C584 1.391 . S
C583 C582 1.386 . S
C583 C587 1.393 . S
C584 H573 0.950 . S
C584 C582 1.391 . S
C584 C585 1.400 . S
C585 C579 1.491 . S
C585 C584 1.400 . S
C585 C586 1.398 . S
C586 H574 0.950 . S
C586 C585 1.398 . S
C586 C587 1.391 . S
C587 H575 0.950 . S
C587 C583 1.393 . S
C587 C586 1.391 . S
H588 C596 0.950 . S
H589 C601 0.950 . S
H590 C598 0.950 . S
H591 C600 0.950 . S
H592 C602 0.950 . S
H593 C604 0.950 . S
H594 C606 0.950 . S
H595 C607 0.950 . S
C596 H588 0.950 . S
C596 C597 1.386 . S
C596 C598 1.391 . S
C597 C596 1.386 . S
C597 C601 1.393 . S
C598 H590 0.950 . S
C598 C596 1.391 . S
C598 C599 1.400 . S
C599 C598 1.400 . S
C599 C600 1.398 . S
C599 C605 1.491 . S
C600 H591 0.950 . S
C600 C599 1.398 . S
C600 C601 1.391 . S
C601 H589 0.950 . S
C601 C597 1.393 . S
C601 C600 1.391 . S
C602 H592 0.950 . S
C602 C603 1.386 . S
C602 C604 1.391 . S
C603 C602 1.386 . S
C603 C607 1.393 . S
C604 H593 0.950 . S
C604 C602 1.391 . S
C604 C605 1.400 . S
C605 C599 1.491 . S
C605 C604 1.400 . S
C605 C606 1.398 . S
C606 H594 0.950 . S
C606 C605 1.398 . S
C606 C607 1.391 . S
C607 H595 0.950 . S
C607 C603 1.393 . S
C607 C606 1.391 . S
H608 C616 0.950 . S
H609 C621 0.950 . S
H610 C618 0.950 . S
H611 C620 0.950 . S
H612 C622 0.950 . S
H613 C624 0.950 . S
H614 C626 0.950 . S
H615 C627 0.950 . S
C616 H608 0.950 . S
C616 C617 1.386 . S
C616 C618 1.391 . S
C617 C616 1.386 . S
C617 C621 1.393 . S
C618 H610 0.950 . S
C618 C616 1.391 . S
C618 C619 1.400 . S
C619 C618 1.400 . S
C619 C620 1.398 . S
C619 C625 1.491 . S
C620 H611 0.950 . S
C620 C619 1.398 . S
C620 C621 1.391 . S
C621 H609 0.950 . S
C621 C617 1.393 . S
C621 C620 1.391 . S
C622 H612 0.950 . S
C622 C623 1.386 . S
C622 C624 1.391 . S
C623 C622 1.386 . S
C623 C627 1.393 . S
C624 H613 0.950 . S
C624 C622 1.391 . S
C624 C625 1.400 . S
C625 C619 1.491 . S
C625 C624 1.400 . S
C625 C626 1.398 . S
C626 H614 0.950 . S
C626 C625 1.398 . S
C626 C627 1.391 . S
C627 H615 0.950 . S
C627 C623 1.393 . S
C627 C626 1.391 . S
H628 C636 0.950 . S
H629 C641 0.950 . S
H630 C638 0.950 . S
H631 C640 0.950 . S
H632 C642 0.950 . S
H633 C644 0.950 . S
H634 C646 0.950 . S
H635 C647 0.950 . S
C636 H628 0.950 . S
C636 C637 1.386 . S
C636 C638 1.391 . S
C637 C636 1.386 . S
C637 C641 1.393 . S
C638 H630 0.950 . S
C638 C636 1.391 . S
C638 C639 1.400 . S
C639 C638 1.400 . S
C639 C640 1.398 . S
C639 C645 1.491 . S
C640 H631 0.950 . S
C640 C639 1.398 . S
C640 C641 1.391 . S
C641 H629 0.950 . S
C641 C637 1.393 . S
C641 C640 1.391 . S
C642 H632 0.950 . S
C642 C643 1.386 . S
C642 C644 1.391 . S
C643 C642 1.386 . S
C643 C647 1.393 . S
C644 H633 0.950 . S
C644 C642 1.391 . S
C644 C645 1.400 . S
C645 C639 1.491 . S
C645 C644 1.400 . S
C645 C646 1.398 . S
C646 H634 0.950 . S
C646 C645 1.398 . S
C646 C647 1.391 . S
C647 H635 0.950 . S
C647 C643 1.393 . S
C647 C646 1.391 . S
H648 C656 0.950 . S
H649 C661 0.950 . S
H650 C658 0.950 . S
H651 C660 0.950 . S
H652 C662 0.950 . S
H653 C664 0.950 1_545 S
H654 C666 0.949 . S
H655 C667 0.950 . S
C656 H648 0.950 . S
C656 C657 1.386 . S
C656 C658 1.391 . S
C657 C656 1.386 . S
C657 C661 1.393 . S
C658 H650 0.950 . S
C658 C656 1.391 . S
C658 C659 1.400 . S
C659 C658 1.400 . S
C659 C660 1.398 . S
C659 C665 1.491 1_554 S
C660 H651 0.950 . S
C660 C659 1.398 . S
C660 C661 1.391 . S
C661 H649 0.950 . S
C661 C657 1.393 . S
C661 C660 1.391 . S
C662 H652 0.950 . S
C662 C663 1.386 . S
C662 C664 1.391 . S
C663 C662 1.386 . S
C663 C667 1.393 . S
C664 H653 0.950 1_565 S
C664 C662 1.391 . S
C664 C665 1.400 1_565 S
C665 C659 1.491 1_556 S
C665 C664 1.400 1_545 S
C665 C666 1.406 . S
C666 H654 0.949 . S
C666 C665 1.406 . S
C666 C667 1.384 1_545 S
C667 H655 0.950 . S
C667 C663 1.393 . S
C667 C666 1.384 1_565 S
H668 C676 0.950 . S
H669 C681 0.950 . S
H670 C678 0.950 . S
H671 C680 0.950 . S
H672 C682 0.950 . S
H673 C684 0.950 . S
H674 C686 0.950 1_554 S
H675 C687 0.950 . S
C676 H668 0.950 . S
C676 C677 1.386 . S
C676 C678 1.391 . S
C677 C676 1.386 . S
C677 C681 1.393 . S
C678 H670 0.950 . S
C678 C676 1.391 . S
C678 C679 1.400 . S
C679 C678 1.400 . S
C679 C680 1.398 . S
C679 C685 1.491 1_554 S
C680 H671 0.950 . S
C680 C679 1.398 . S
C680 C681 1.391 . S
C681 H669 0.950 . S
C681 C677 1.393 . S
C681 C680 1.391 . S
C682 H672 0.950 . S
C682 C683 1.386 . S
C682 C684 1.391 1_455 S
C683 C682 1.386 . S
C683 C687 1.393 . S
C684 H673 0.950 . S
C684 C682 1.391 1_655 S
C684 C685 1.400 . S
C685 C679 1.491 1_556 S
C685 C684 1.400 . S
C685 C686 1.398 1_655 S
C686 H674 0.950 1_556 S
C686 C685 1.398 1_455 S
C686 C687 1.391 . S
C687 H675 0.950 . S
C687 C683 1.393 . S
C687 C686 1.391 . S
H688 C696 0.950 . S
H689 C701 0.950 . S
H690 C698 0.950 . S
H691 C700 0.950 . S
H692 C702 0.950 . S
H693 C704 0.950 . S
H694 C706 0.950 1_554 S
H695 C707 0.950 . S
C696 H688 0.950 . S
C696 C697 1.386 . S
C696 C698 1.391 . S
C697 C696 1.386 . S
C697 C701 1.393 . S
C698 H690 0.950 . S
C698 C696 1.391 . S
C698 C699 1.400 . S
C699 C698 1.400 . S
C699 C700 1.398 . S
C699 C705 1.491 1_554 S
C700 H691 0.950 . S
C700 C699 1.398 . S
C700 C701 1.391 . S
C701 H689 0.950 . S
C701 C697 1.393 . S
C701 C700 1.391 . S
C702 H692 0.950 . S
C702 C703 1.386 . S
C702 C704 1.391 . S
C703 C702 1.386 . S
C703 C707 1.393 . S
C704 H693 0.950 . S
C704 C702 1.391 . S
C704 C705 1.400 . S
C705 C699 1.491 1_556 S
C705 C704 1.400 . S
C705 C706 1.398 . S
C706 H694 0.950 1_556 S
C706 C705 1.398 . S
C706 C707 1.391 . S
C707 H695 0.950 . S
C707 C703 1.393 . S
C707 C706 1.391 . S
H708 C716 0.950 . S
H709 C721 0.950 . S
H710 C718 0.950 . S
H711 C720 0.950 . S
H712 C722 0.950 . S
H713 C724 0.950 . S
H714 C726 0.950 . S
H715 C727 0.950 . S
C716 H708 0.950 . S
C716 C717 1.386 . S
C716 C718 1.391 . S
C717 C716 1.386 . S
C717 C721 1.393 . S
C718 H710 0.950 . S
C718 C716 1.391 . S
C718 C719 1.400 1_655 S
C719 C718 1.400 1_455 S
C719 C720 1.398 . S
C719 C725 1.491 . S
C720 H711 0.950 . S
C720 C719 1.398 . S
C720 C721 1.391 1_455 S
C721 H709 0.950 . S
C721 C717 1.393 . S
C721 C720 1.391 1_655 S
C722 H712 0.950 . S
C722 C723 1.386 . S
C722 C724 1.391 . S
C723 C722 1.386 . S
C723 C727 1.393 . S
C724 H713 0.950 . S
C724 C722 1.391 . S
C724 C725 1.400 . S
C725 C719 1.491 . S
C725 C724 1.400 . S
C725 C726 1.398 . S
C726 H714 0.950 . S
C726 C725 1.398 . S
C726 C727 1.391 . S
C727 H715 0.950 . S
C727 C723 1.393 . S
C727 C726 1.391 . S
H728 C736 0.950 . S
H729 C741 0.950 . S
H730 C738 0.950 . S
H731 C740 0.950 . S
H732 C742 0.950 . S
H733 C744 0.950 . S
H734 C746 0.950 . S
H735 C747 0.950 . S
C736 H728 0.950 . S
C736 C737 1.386 . S
C736 C738 1.391 . S
C737 C736 1.386 . S
C737 C741 1.393 . S
C738 H730 0.950 . S
C738 C736 1.391 . S
C738 C739 1.400 . S
C739 C738 1.400 . S
C739 C740 1.398 . S
C739 C745 1.491 . S
C740 H731 0.950 . S
C740 C739 1.398 . S
C740 C741 1.391 . S
C741 H729 0.950 . S
C741 C737 1.393 . S
C741 C740 1.391 . S
C742 H732 0.950 . S
C742 C743 1.386 . S
C742 C744 1.391 . S
C743 C742 1.386 . S
C743 C747 1.393 . S
C744 H733 0.950 . S
C744 C742 1.391 . S
C744 C745 1.400 . S
C745 C739 1.491 . S
C745 C744 1.400 . S
C745 C746 1.398 . S
C746 H734 0.950 . S
C746 C745 1.398 . S
C746 C747 1.391 . S
C747 H735 0.950 . S
C747 C743 1.393 . S
C747 C746 1.391 . S
H748 C756 0.950 . S
H749 C761 0.950 . S
H750 C758 0.950 . S
H751 C760 0.950 . S
H752 C762 0.950 . S
H753 C764 0.950 . S
H754 C766 0.950 . S
H755 C767 0.950 . S
C756 H748 0.950 . S
C756 C757 1.386 . S
C756 C758 1.391 1_545 S
C757 C756 1.386 . S
C757 C761 1.393 . S
C758 H750 0.950 . S
C758 C756 1.391 1_565 S
C758 C759 1.400 . S
C759 C758 1.400 . S
C759 C760 1.398 1_565 S
C759 C765 1.491 . S
C760 H751 0.950 . S
C760 C759 1.398 1_545 S
C760 C761 1.391 . S
C761 H749 0.950 . S
C761 C757 1.393 . S
C761 C760 1.391 . S
C762 H752 0.950 . S
C762 C763 1.386 . S
C762 C764 1.391 . S
C763 C762 1.386 . S
C763 C767 1.393 . S
C764 H753 0.950 . S
C764 C762 1.391 . S
C764 C765 1.400 . S
C765 C759 1.491 . S
C765 C764 1.400 . S
C765 C766 1.398 . S
C766 H754 0.950 . S
C766 C765 1.398 . S
C766 C767 1.391 . S
C767 H755 0.950 . S
C767 C763 1.393 . S
C767 C766 1.391 . S
H768 C776 0.950 1_565 S
H769 C781 0.950 . S
H770 C778 0.950 . S
H771 C780 0.950 . S
H772 C782 0.950 . S
H773 C784 0.965 . S
H774 C786 0.950 1_554 S
H775 C787 0.950 . S
C776 H768 0.950 1_545 S
C776 C777 1.386 . S
C776 C778 1.391 1_545 S
C777 C776 1.386 . S
C777 C781 1.393 . S
C778 H770 0.950 . S
C778 C776 1.391 1_565 S
C778 C779 1.400 . S
C779 C778 1.400 . S
C779 C780 1.398 1_564 S
C779 C785 1.491 1_554 S
C780 H771 0.950 . S
C780 C779 1.398 1_546 S
C780 C781 1.391 1_556 S
C781 H769 0.950 . S
C781 C777 1.393 . S
C781 C780 1.391 1_554 S
C782 H772 0.950 . S
C782 C783 1.386 . S
C782 C784 1.391 . S
C783 C782 1.386 . S
C783 C787 1.393 . S
C784 H773 0.965 . S
C784 C782 1.391 . S
C784 C785 1.400 . S
C785 C779 1.491 1_556 S
C785 C784 1.400 . S
C785 C786 1.398 . S
C786 H774 0.950 1_556 S
C786 C785 1.398 . S
C786 C787 1.391 . S
C787 H775 0.950 . S
C787 C783 1.393 . S
C787 C786 1.391 . S
H788 C796 0.950 . S
H789 C801 0.950 . S
H790 C798 0.950 1_556 S
H791 C800 0.950 . S
H792 C802 0.950 . S
H793 C804 0.950 . S
H794 C806 0.950 . S
H795 C807 0.950 . S
C796 H788 0.950 . S
C796 C797 1.386 . S
C796 C798 1.391 . S
C797 C796 1.386 . S
C797 C801 1.393 . S
C798 H790 0.950 1_554 S
C798 C796 1.391 . S
C798 C799 1.400 1_655 S
C799 C798 1.400 1_455 S
C799 C800 1.398 . S
C799 C805 1.491 1_554 S
C800 H791 0.950 . S
C800 C799 1.398 . S
C800 C801 1.391 1_455 S
C801 H789 0.950 . S
C801 C797 1.393 . S
C801 C800 1.391 1_655 S
C802 H792 0.950 . S
C802 C803 1.386 . S
C802 C804 1.391 . S
C803 C802 1.386 . S
C803 C807 1.393 . S
C804 H793 0.950 . S
C804 C802 1.391 . S
C804 C805 1.400 . S
C805 C799 1.491 1_556 S
C805 C804 1.400 . S
C805 C806 1.398 . S
C806 H794 0.950 . S
C806 C805 1.398 . S
C806 C807 1.391 . S
C807 H795 0.950 . S
C807 C803 1.393 . S
C807 C806 1.391 . S
H808 C816 0.950 . S
H809 C821 0.950 . S
H810 C818 0.950 . S
H811 C820 0.950 1_554 S
H812 C822 0.950 . S
H813 C824 0.950 . S
H814 C826 0.950 1_556 S
H815 C827 0.950 . S
C816 H808 0.950 . S
C816 C817 1.386 . S
C816 C818 1.391 . S
C817 C816 1.386 . S
C817 C821 1.393 . S
C818 H810 0.950 . S
C818 C816 1.391 . S
C818 C819 1.400 . S
C819 C818 1.400 . S
C819 C820 1.398 . S
C819 C825 1.491 1_556 S
C820 H811 0.950 1_556 S
C820 C819 1.398 . S
C820 C821 1.391 . S
C821 H809 0.950 . S
C821 C817 1.393 . S
C821 C820 1.391 . S
C822 H812 0.950 . S
C822 C823 1.386 . S
C822 C824 1.391 . S
C823 C822 1.386 . S
C823 C827 1.393 . S
C824 H813 0.950 . S
C824 C822 1.391 . S
C824 C825 1.400 . S
C825 C819 1.491 1_554 S
C825 C824 1.400 . S
C825 C826 1.398 . S
C826 H814 0.950 1_554 S
C826 C825 1.398 . S
C826 C827 1.391 . S
C827 H815 0.950 . S
C827 C823 1.393 . S
C827 C826 1.391 . S
H828 C836 0.950 . S
H829 C841 0.950 . S
H830 C838 0.950 . S
H831 C840 0.950 . S
H832 C842 0.950 . S
H833 C844 0.950 . S
H834 C846 0.950 . S
H835 C847 0.950 . S
C836 H828 0.950 . S
C836 C837 1.386 . S
C836 C838 1.391 1_455 S
C837 C836 1.386 . S
C837 C841 1.393 . S
C838 H830 0.950 . S
C838 C836 1.391 1_655 S
C838 C839 1.400 . S
C839 C838 1.400 . S
C839 C840 1.398 1_655 S
C839 C845 1.491 . S
C840 H831 0.950 . S
C840 C839 1.398 1_455 S
C840 C841 1.391 . S
C841 H829 0.950 . S
C841 C837 1.393 . S
C841 C840 1.391 . S
C842 H832 0.950 . S
C842 C843 1.386 . S
C842 C844 1.391 . S
C843 C842 1.386 . S
C843 C847 1.393 . S
C844 H833 0.950 . S
C844 C842 1.391 . S
C844 C845 1.400 . S
C845 C839 1.491 . S
C845 C844 1.400 . S
C845 C846 1.398 . S
C846 H834 0.950 . S
C846 C845 1.398 . S
C846 C847 1.391 . S
C847 H835 0.950 . S
C847 C843 1.393 . S
C847 C846 1.391 . S
H848 C856 0.950 . S
H849 C861 0.950 . S
H850 C858 0.950 . S
H851 C860 0.950 . S
H852 C862 0.950 . S
H853 C864 0.950 . S
H854 C866 0.950 . S
H855 C867 0.950 . S
C856 H848 0.950 . S
C856 C857 1.386 . S
C856 C858 1.391 . S
C857 C856 1.386 . S
C857 C861 1.393 . S
C858 H850 0.950 . S
C858 C856 1.391 . S
C858 C859 1.400 . S
C859 C858 1.400 . S
C859 C860 1.398 . S
C859 C865 1.491 . S
C860 H851 0.950 . S
C860 C859 1.398 . S
C860 C861 1.391 . S
C861 H849 0.950 . S
C861 C857 1.393 . S
C861 C860 1.391 . S
C862 H852 0.950 . S
C862 C863 1.386 . S
C862 C864 1.391 . S
C863 C862 1.386 . S
C863 C867 1.393 . S
C864 H853 0.950 . S
C864 C862 1.391 . S
C864 C865 1.400 . S
C865 C859 1.491 . S
C865 C864 1.400 . S
C865 C866 1.398 . S
C866 H854 0.950 . S
C866 C865 1.398 . S
C866 C867 1.391 . S
C867 H855 0.950 . S
C867 C863 1.393 . S
C867 C866 1.391 . S
H868 C876 0.950 . S
H869 C881 0.950 . S
H870 C878 0.950 . S
H871 C880 0.950 . S
H872 C882 0.950 . S
H873 C884 0.950 . S
H874 C886 0.950 . S
H875 C887 0.950 . S
C876 H868 0.950 . S
C876 C877 1.386 . S
C876 C878 1.391 . S
C877 C876 1.386 . S
C877 C881 1.393 . S
C878 H870 0.950 . S
C878 C876 1.391 . S
C878 C879 1.400 . S
C879 C878 1.400 . S
C879 C880 1.398 . S
C879 C885 1.491 . S
C880 H871 0.950 . S
C880 C879 1.398 . S
C880 C881 1.391 . S
C881 H869 0.950 . S
C881 C877 1.393 . S
C881 C880 1.391 . S
C882 H872 0.950 . S
C882 C883 1.386 . S
C882 C884 1.391 1_565 S
C883 C882 1.386 . S
C883 C887 1.393 . S
C884 H873 0.950 . S
C884 C882 1.391 1_545 S
C884 C885 1.400 . S
C885 C879 1.491 . S
C885 C884 1.400 . S
C885 C886 1.398 1_545 S
C886 H874 0.950 . S
C886 C885 1.398 1_565 S
C886 C887 1.391 . S
C887 H875 0.950 . S
C887 C883 1.393 . S
C887 C886 1.391 . S
H888 C896 0.950 . S
H889 C901 0.950 . S
H890 C898 0.950 . S
H891 C900 0.950 . S
H892 C902 0.950 . S
H893 C904 0.950 . S
H894 C906 0.950 . S
H895 C907 0.950 . S
C896 H888 0.950 . S
C896 C897 1.386 . S
C896 C898 1.391 . S
C897 C896 1.386 . S
C897 C901 1.393 . S
C898 H890 0.950 . S
C898 C896 1.391 . S
C898 C899 1.400 . S
C899 C898 1.400 . S
C899 C900 1.398 . S
C899 C905 1.491 . S
C900 H891 0.950 . S
C900 C899 1.398 . S
C900 C901 1.391 . S
C901 H889 0.950 . S
C901 C897 1.393 . S
C901 C900 1.391 . S
C902 H892 0.950 . S
C902 C903 1.386 . S
C902 C904 1.391 . S
C903 C902 1.386 . S
C903 C907 1.393 . S
C904 H893 0.950 . S
C904 C902 1.391 . S
C904 C905 1.400 . S
C905 C899 1.491 . S
C905 C904 1.400 . S
C905 C906 1.398 . S
C906 H894 0.950 . S
C906 C905 1.398 . S
C906 C907 1.391 . S
C907 H895 0.950 . S
C907 C903 1.393 . S
C907 C906 1.391 . S
H908 C916 0.950 . S
H909 C921 0.950 . S
H910 C918 0.950 . S
H911 C920 0.950 . S
H912 C922 0.950 . S
H913 C924 0.950 . S
H914 C926 0.950 . S
H915 C927 0.950 . S
C916 H908 0.950 . S
C916 C917 1.386 . S
C916 C918 1.391 . S
C917 C916 1.386 . S
C917 C921 1.393 . S
C918 H910 0.950 . S
C918 C916 1.391 . S
C918 C919 1.400 . S
C919 C918 1.400 . S
C919 C920 1.398 . S
C919 C925 1.491 1_545 S
C920 H911 0.950 . S
C920 C919 1.398 . S
C920 C921 1.391 . S
C921 H909 0.950 . S
C921 C917 1.393 . S
C921 C920 1.391 . S
C922 H912 0.950 . S
C922 C923 1.386 . S
C922 C924 1.391 . S
C923 C922 1.386 . S
C923 C927 1.393 . S
C924 H913 0.950 . S
C924 C922 1.391 . S
C924 C925 1.400 . S
C925 C919 1.491 1_565 S
C925 C924 1.400 . S
C925 C926 1.398 . S
C926 H914 0.950 . S
C926 C925 1.398 . S
C926 C927 1.391 . S
C927 H915 0.950 . S
C927 C923 1.393 . S
C927 C926 1.391 . S
H928 C936 0.950 . S
H929 C941 0.950 . S
H930 C938 0.950 . S
H931 C940 0.950 . S
H932 C942 0.950 . S
H933 C944 0.950 . S
H934 C946 0.950 . S
H935 C947 0.950 . S
C936 H928 0.950 . S
C936 C937 1.386 . S
C936 C938 1.391 . S
C937 C936 1.386 . S
C937 C941 1.393 . S
C938 H930 0.950 . S
C938 C936 1.391 . S
C938 C939 1.400 . S
C939 C938 1.400 . S
C939 C940 1.398 . S
C939 C945 1.491 1_655 S
C940 H931 0.950 . S
C940 C939 1.398 . S
C940 C941 1.391 . S
C941 H929 0.950 . S
C941 C937 1.393 . S
C941 C940 1.391 . S
C942 H932 0.950 . S
C942 C943 1.386 . S
C942 C944 1.391 . S
C943 C942 1.386 . S
C943 C947 1.393 . S
C944 H933 0.950 . S
C944 C942 1.391 . S
C944 C945 1.400 . S
C945 C939 1.491 1_455 S
C945 C944 1.400 . S
C945 C946 1.398 . S
C946 H934 0.950 . S
C946 C945 1.398 . S
C946 C947 1.391 . S
C947 H935 0.950 . S
C947 C943 1.393 . S
C947 C946 1.391 . S
H948 C956 0.950 . S
H949 C961 0.950 . S
H950 C958 0.950 . S
H951 C960 0.950 . S
H952 C962 0.950 . S
H953 C964 0.950 . S
H954 C966 0.950 . S
H955 C967 0.950 . S
C956 H948 0.950 . S
C956 C957 1.386 . S
C956 C958 1.391 . S
C957 C956 1.386 . S
C957 C961 1.393 . S
C958 H950 0.950 . S
C958 C956 1.391 . S
C958 C959 1.400 . S
C959 C958 1.400 . S
C959 C960 1.398 . S
C959 C965 1.491 . S
C960 H951 0.950 . S
C960 C959 1.398 . S
C960 C961 1.391 . S
C961 H949 0.950 . S
C961 C957 1.393 . S
C961 C960 1.391 . S
C962 H952 0.950 . S
C962 C963 1.386 . S
C962 C964 1.391 . S
C963 C962 1.386 . S
C963 C967 1.393 . S
C964 H953 0.950 . S
C964 C962 1.391 . S
C964 C965 1.400 . S
C965 C959 1.491 . S
C965 C964 1.400 . S
C965 C966 1.398 . S
C966 H954 0.950 . S
C966 C965 1.398 . S
C966 C967 1.391 . S
C967 H955 0.950 . S
C967 C963 1.393 . S
C967 C966 1.391 . S
H968 C976 0.950 . S
H969 C981 0.950 . S
H970 C978 0.950 . S
H971 C980 0.950 . S
H972 C982 0.950 . S
H973 C984 0.950 . S
H974 C986 0.950 . S
H975 C987 0.950 . S
C976 H968 0.950 . S
C976 C977 1.386 . S
C976 C978 1.391 . S
C977 C976 1.386 . S
C977 C981 1.393 . S
C978 H970 0.950 . S
C978 C976 1.391 . S
C978 C979 1.400 . S
C979 C978 1.400 . S
C979 C980 1.398 . S
C979 C985 1.491 1_565 S
C980 H971 0.950 . S
C980 C979 1.398 . S
C980 C981 1.391 . S
C981 H969 0.950 . S
C981 C977 1.393 . S
C981 C980 1.391 . S
C982 H972 0.950 . S
C982 C983 1.386 . S
C982 C984 1.391 . S
C983 C982 1.386 . S
C983 C987 1.393 . S
C984 H973 0.950 . S
C984 C982 1.391 . S
C984 C985 1.400 . S
C985 C979 1.491 1_545 S
C985 C984 1.400 . S
C985 C986 1.398 . S
C986 H974 0.950 . S
C986 C985 1.398 . S
C986 C987 1.391 . S
C987 H975 0.950 . S
C987 C983 1.393 . S
C987 C986 1.391 . S
H988 C996 0.950 . S
H989 C1001 0.950 . S
H990 C998 0.950 . S
H991 C1000 0.950 . S
H992 C1002 0.950 . S
H993 C1004 0.950 . S
H994 C1006 0.950 . S
H995 C1007 0.950 . S
C996 H988 0.950 . S
C996 C997 1.386 . S
C996 C998 1.391 . S
C997 C996 1.386 . S
C997 C1001 1.393 . S
C998 H990 0.950 . S
C998 C996 1.391 . S
C998 C999 1.400 . S
C999 C998 1.400 . S
C999 C1000 1.398 . S
C999 C1005 1.491 1_455 S
C1000 H991 0.950 . S
C1000 C999 1.398 . S
C1000 C1001 1.391 . S
C1001 H989 0.950 . S
C1001 C997 1.393 . S
C1001 C1000 1.391 . S
C1002 H992 0.950 . S
C1002 C1003 1.386 . S
C1002 C1004 1.391 . S
C1003 C1002 1.386 . S
C1003 C1007 1.393 . S
C1004 H993 0.950 . S
C1004 C1002 1.391 . S
C1004 C1005 1.400 . S
C1005 C999 1.491 1_655 S
C1005 C1004 1.400 . S
C1005 C1006 1.398 . S
C1006 H994 0.950 . S
C1006 C1005 1.398 . S
C1006 C1007 1.391 . S
C1007 H995 0.950 . S
C1007 C1003 1.393 . S
C1007 C1006 1.391 . S
C417 C36 1.623 . S
C423 C9 1.625 . S
C437 C43 1.627 . S
C443 C70 1.624 . S
C457 C77 1.622 . S
C463 C2 1.620 . S
C477 C111 1.627 . S
C483 C172 1.622 . S
C497 C145 1.627 . S
C503 C104 1.622 . S
C517 C138 1.621 . S
C523 C179 1.623 . S
C537 C240 1.623 . S
C543 C213 1.625 . S
C557 C274 1.622 . S
C563 C247 1.627 . S
C577 C206 1.624 . S
C583 C281 1.627 . S
C597 C315 1.622 . S
C603 C376 1.614 . S
C617 C308 1.615 . S
C623 C349 1.621 . S
C637 C383 1.627 . S
C643 C342 1.623 . S
C657 C20 1.388 . S
C663 C243 1.377 . S
C677 C54 1.368 . S
C683 C277 1.352 . S
C697 C88 1.388 . S
C703 C209 1.374 . S
C717 C379 1.374 . S
C723 C122 1.388 . S
C737 C156 1.375 . S
C743 C311 1.371 . S
C757 C345 1.377 . S
C763 C190 1.383 . S
C777 C39 1.361 . S
C783 C224 1.380 . S
C797 C73 1.377 . S
C803 C258 1.383 . S
C817 C292 1.376 . S
C823 C5 1.371 . S
C837 C175 1.375 . S
C843 C326 1.388 . S
C857 C360 1.383 . S
C863 C107 1.377 . S
C877 C394 1.368 . S
C883 C141 1.361 . S
C897 C135 1.687 . S
C903 C33 1.690 . S
C917 C67 1.709 . S
C923 C169 1.710 . S
C937 C101 1.689 . S
C943 C203 1.687 . S
C957 C339 1.705 . S
C963 C237 1.695 . S
C977 C271 1.702 . S
C983 C373 1.692 . S
C997 C305 1.687 . S
C1003 C407 1.690 . S
