# Generated by pormake.
# Topology afw, (4)-cn, num edge types: 1
# Building blocks:
#     Node 0, Type 0, BuildingBlock: CEKHIL_clean_sbu_0, # of connection points: 4
#     Node 1, Type 0, BuildingBlock: CEKHIL_clean_sbu_0, # of connection points: 4
#     Node 2, Type 0, BuildingBlock: CEKHIL_clean_sbu_0, # of connection points: 4
#     Node 3, Type 0, BuildingBlock: CEKHIL_clean_sbu_0, # of connection points: 4
#     Node 4, Type 0, BuildingBlock: CEKHIL_clean_sbu_0, # of connection points: 4
#     Node 5, Type 0, BuildingBlock: CEKHIL_clean_sbu_0, # of connection points: 4
#     Node 6, Type 0, BuildingBlock: CEKHIL_clean_sbu_0, # of connection points: 4
#     Node 7, Type 0, BuildingBlock: CEKHIL_clean_sbu_0, # of connection points: 4
#     Node 8, Type 0, BuildingBlock: CEKHIL_clean_sbu_0, # of connection points: 4
#     Edge 9, Type (0, 0), BuildingBlock: CIFDUS_clean_linker_0, # of connection points: 2
#     Edge 10, Type (0, 0), BuildingBlock: CIFDUS_clean_linker_0, # of connection points: 2
#     Edge 11, Type (0, 0), BuildingBlock: CIFDUS_clean_linker_0, # of connection points: 2
#     Edge 12, Type (0, 0), BuildingBlock: CIFDUS_clean_linker_0, # of connection points: 2
#     Edge 13, Type (0, 0), BuildingBlock: CIFDUS_clean_linker_0, # of connection points: 2
#     Edge 14, Type (0, 0), BuildingBlock: CIFDUS_clean_linker_0, # of connection points: 2
#     Edge 15, Type (0, 0), BuildingBlock: CIFDUS_clean_linker_0, # of connection points: 2
#     Edge 16, Type (0, 0), BuildingBlock: CIFDUS_clean_linker_0, # of connection points: 2
#     Edge 17, Type (0, 0), BuildingBlock: CIFDUS_clean_linker_0, # of connection points: 2
#     Edge 18, Type (0, 0), BuildingBlock: CIFDUS_clean_linker_0, # of connection points: 2
#     Edge 19, Type (0, 0), BuildingBlock: CIFDUS_clean_linker_0, # of connection points: 2
#     Edge 20, Type (0, 0), BuildingBlock: CIFDUS_clean_linker_0, # of connection points: 2
#     Edge 21, Type (0, 0), BuildingBlock: CIFDUS_clean_linker_0, # of connection points: 2
#     Edge 22, Type (0, 0), BuildingBlock: CIFDUS_clean_linker_0, # of connection points: 2
#     Edge 23, Type (0, 0), BuildingBlock: CIFDUS_clean_linker_0, # of connection points: 2
#     Edge 24, Type (0, 0), BuildingBlock: CIFDUS_clean_linker_0, # of connection points: 2
#     Edge 25, Type (0, 0), BuildingBlock: CIFDUS_clean_linker_0, # of connection points: 2
#     Edge 26, Type (0, 0), BuildingBlock: CIFDUS_clean_linker_0, # of connection points: 2
# Relax obj value: 0.199
# Max RMSD: 0.210
# Mean RMSD: 0.201
data_MOF--net-afw--node1-CEKHIL_clean_sbu_0--edge1-CIFDUS_clean_linker_0
_symmetry_space_group_name_H-M    P1
_symmetry_Int_Tables_number       1
_symmetry_cell_setting            triclinic
loop_
_symmetry_equiv_pos_as_xyz
'x, y, z'
_cell_length_a     37.399943
_cell_length_b     37.703026
_cell_length_c     27.272826
_cell_angle_alpha  90.588712
_cell_angle_beta   90.926906
_cell_angle_gamma 120.24348
loop_
_atom_site_label
_atom_site_type_symbol
_atom_site_fract_x
_atom_site_fract_y
_atom_site_fract_z
_atom_type_partial_charge
Co0 Co 0.01528 0.21544 0.01815 0.0
O1 O 0.04666 0.26893 0.99015 0.0
O2 O 0.98551 0.21954 0.96182 0.0
C3 C 0.06707 0.20156 0.02563 0.0
O4 O 0.97493 0.15585 0.03603 0.0
Co5 Co 0.03562 0.20072 0.12419 0.0
O6 O -0.00371 0.14226 0.10742 0.0
C7 C 0.99454 0.24884 0.10898 0.0
C8 C 0.01685 0.2565 0.9576 0.0
C9 C 0.97248 0.13076 0.06947 0.0
O10 O 0.9883 0.23746 0.06345 0.0
O11 O 0.01603 0.24032 0.13843 0.0
O12 O 0.04798 0.19647 0.9837 0.0
O13 O 0.05775 0.2195 0.05969 0.0
Co14 Co 0.82586 0.80886 0.01651 0.0
O15 O 0.80409 0.75222 0.03181 0.0
O16 O 0.7808 0.79137 0.06207 0.0
C17 C 0.8933 0.82909 0.02586 0.0
O18 O 0.84252 0.86931 0.00915 0.0
Co19 Co 0.87868 0.84145 0.92271 0.0
O20 O 0.88645 0.89476 0.94619 0.0
C21 C 0.78893 0.7874 0.91244 0.0
C22 C 0.77806 0.75557 0.05948 0.0
C23 C 0.86701 0.8991 0.98157 0.0
O24 O 0.7857 0.79142 0.95884 0.0
O25 O 0.82374 0.80198 0.89141 0.0
O26 O 0.87156 0.82592 0.06401 0.0
O27 O 0.87251 0.81517 0.98507 0.0
Co28 Co 0.20392 0.00789 0.99257 0.0
O29 O 0.22432 0.97267 0.9727 0.0
O30 O 0.24536 0.03442 0.94286 0.0
C31 C 0.13641 0.9602 0.98834 0.0
O32 O 0.18784 0.05169 0.00357 0.0
Co33 Co 0.15778 0.99075 0.09098 0.0
O34 O 0.14662 0.03422 0.06904 0.0
C35 C 0.24785 0.0261 0.09273 0.0
C36 C 0.24781 1.00117 0.94282 0.0
C37 C 0.16415 0.05717 0.03275 0.0
O38 O 0.24788 0.03198 0.04633 0.0
O39 O 0.21457 0.00684 0.11693 0.0
O40 O 0.15581 0.97844 0.94903 0.0
O41 O 0.15932 0.96796 0.02752 0.0
Co42 Co 0.63868 0.53729 0.34431 0.0
O43 O 0.60545 0.55825 0.37053 0.0
O44 O 0.67134 0.58143 0.3911 0.0
C45 C 0.59324 0.4698 0.35355 0.0
O46 O 0.6819 0.52187 0.32569 0.0
Co47 Co 0.60917 0.48531 0.24759 0.0
O48 O 0.65687 0.47748 0.26113 0.0
C49 C 0.64799 0.57504 0.24271 0.0
C50 C 0.63789 0.58336 0.39678 0.0
C51 C 0.68454 0.49755 0.29421 0.0
O52 O 0.65584 0.57771 0.28915 0.0
O53 O 0.62696 0.54065 0.21953 0.0
O54 O 0.61601 0.49246 0.39031 0.0
O55 O 0.5946 0.48965 0.31441 0.0
Co56 Co 0.49143 0.15162 0.37237 0.0
O57 O 0.47432 0.09877 0.3994 0.0
O58 O 0.45034 0.13941 0.42209 0.0
C59 C 0.56021 0.17619 0.37681 0.0
O60 O 0.50363 0.20893 0.35247 0.0
Co61 Co 0.53619 0.17166 0.27241 0.0
O62 O 0.5421 0.22623 0.28444 0.0
C63 C 0.44599 0.1174 0.27345 0.0
C64 C 0.45023 0.10506 0.42719 0.0
C65 C 0.52432 0.23445 0.31857 0.0
O66 O 0.44658 0.12496 0.31969 0.0
O67 O 0.47887 0.13041 0.24861 0.0
O68 O 0.54068 0.1772 0.41522 0.0
O69 O 0.53688 0.15575 0.33943 0.0
Co70 Co 0.87959 0.39332 0.35495 0.0
O71 O 0.93532 0.43176 0.37561 0.0
O72 O 0.89633 0.37054 0.40801 0.0
C73 C 0.85549 0.4372 0.35297 0.0
O74 O 0.82025 0.34645 0.34289 0.0
Co75 Co 0.8505 0.40445 0.25179 0.0
O76 O 0.79658 0.35827 0.27184 0.0
C77 C 0.90446 0.36923 0.25867 0.0
C78 C 0.93166 0.40474 0.40722 0.0
C79 C 0.79145 0.33729 0.31016 0.0
O80 O 0.90098 0.36874 0.30553 0.0
O81 O 0.88902 0.38508 0.23015 0.0
O82 O 0.8586 0.42191 0.39417 0.0
O83 O 0.87222 0.42992 0.31586 0.0
Co84 Co 0.38933 0.90069 0.68964 0.0
O85 O 0.42425 0.95794 0.67541 0.0
O86 O 0.36132 0.91781 0.64347 0.0
C87 C 0.4366 0.88069 0.68092 0.0
O88 O 0.34526 0.83981 0.69378 0.0
Co89 Co 0.40858 0.86403 0.78149 0.0
O90 O 0.36407 0.81109 0.75355 0.0
C91 C 0.37147 0.91604 0.79429 0.0
C92 C 0.39467 0.9538 0.64604 0.0
C93 C 0.34022 0.80843 0.71803 0.0
O94 O 0.36585 0.91597 0.74749 0.0
O95 O 0.39139 0.90039 0.81426 0.0
O96 O 0.41831 0.88517 0.64255 0.0
O97 O 0.43001 0.89386 0.72175 0.0
Co98 Co 0.14967 0.47713 0.71147 0.0
O99 O 0.12103 0.4204 0.73034 0.0
O100 O 0.1101 0.46862 0.7612 0.0
C101 C 0.21428 0.48717 0.71579 0.0
O102 O 0.1748 0.53911 0.70395 0.0
Co103 Co 0.1999 0.50488 0.61574 0.0
O104 O 0.21924 0.56107 0.64156 0.0
C105 C 0.10868 0.46032 0.60998 0.0
C106 C 0.10203 0.43081 0.76175 0.0
C107 C 0.20261 0.56798 0.67805 0.0
O108 O 0.10717 0.46394 0.65685 0.0
O109 O 0.14243 0.47139 0.58765 0.0
O110 O 0.19599 0.48842 0.75526 0.0
O111 O 0.19147 0.47543 0.67616 0.0
Co112 Co 0.52456 0.65366 0.68323 0.0
O113 O 0.54619 0.62014 0.65968 0.0
O114 O 0.56736 0.68383 0.6365 0.0
C115 C 0.457 0.60597 0.67456 0.0
O116 O 0.5088 0.69707 0.69845 0.0
Co117 Co 0.47331 0.62988 0.77856 0.0
O118 O 0.46667 0.67749 0.76313 0.0
C119 C 0.56381 0.66701 0.78562 0.0
C120 C 0.57016 0.6509 0.63266 0.0
C121 C 0.48601 0.70244 0.72908 0.0
O122 O 0.56631 0.67433 0.7394 0.0
O123 O 0.52934 0.64643 0.80725 0.0
O124 O 0.47757 0.62682 0.63708 0.0
O125 O 0.47877 0.61147 0.71414 0.0
H126 H 0.14767 0.09991 0.09985 0.0
H127 H 0.1588 0.08777 0.94425 0.0
H128 H 0.13217 0.13419 0.92829 0.0
H129 H 0.09942 0.17263 0.95861 0.0
H130 H 0.0903 0.18599 0.1145 0.0
H131 H 0.12273 0.14482 0.1304 0.0
C132 C 0.14474 0.10785 0.06246 0.0
C133 C 0.15469 0.09013 0.02322 0.0
C134 C 0.12948 0.13445 0.05367 0.0
C135 C 0.15139 0.1011 0.97502 0.0
C136 C 0.1359 0.1274 0.96591 0.0
C137 C 0.10499 0.16691 0.99607 0.0
C138 C 0.09187 0.18175 0.03533 0.0
C139 C 0.12388 0.1434 0.00492 0.0
C140 C 0.09981 0.17466 0.08365 0.0
C141 C 0.11826 0.15103 0.09277 0.0
H142 H 0.8778 0.93752 0.07025 0.0
H143 H 0.87641 0.95538 0.91453 0.0
H144 H 0.90378 0.02874 0.92843 0.0
H145 H 0.93692 0.08894 0.98387 0.0
H146 H 0.94309 0.07196 0.13935 0.0
H147 H 0.90487 0.99758 0.12669 0.0
C148 C 0.88247 0.95739 0.03959 0.0
C149 C 0.87523 0.94119 0.9915 0.0
C150 C 0.89971 0.99993 0.04776 0.0
C151 C 0.88198 0.96729 0.95192 0.0
C152 C 0.89777 0.00926 0.95981 0.0
C153 C 0.92911 0.06899 0.01509 0.0
C154 C 0.94322 0.08609 0.06238 0.0
C155 C 0.90813 0.02616 0.00744 0.0
C156 C 0.93301 0.05966 0.10242 0.0
C157 C 0.91115 0.01705 0.09525 0.0
H158 H 0.94451 0.85141 0.94915 0.0
H159 H 0.94428 0.85736 0.1072 0.0
H160 H 0.02001 0.89734 0.10989 0.0
H161 H 0.08617 0.93239 0.06684 0.0
H162 H 0.08513 0.92869 0.90856 0.0
H163 H 0.0099 0.88605 0.90645 0.0
C164 C 0.96098 0.86128 0.98422 0.0
C165 C 0.93891 0.85149 0.02788 0.0
C166 C 0.00427 0.88478 0.98542 0.0
C167 C 0.96068 0.86458 0.07304 0.0
C168 C 0.00393 0.88746 0.07461 0.0
C169 C 0.06942 0.92204 0.03197 0.0
C170 C 0.09108 0.9336 0.98795 0.0
C171 C 0.02604 0.898 0.03097 0.0
C172 C 0.06908 0.92027 0.94296 0.0
C173 C 0.02609 0.89586 0.94169 0.0
H174 H 0.82076 0.4477 0.27009 0.0
H175 H 0.83158 0.46896 0.42671 0.0
H176 H 0.78243 0.49352 0.42201 0.0
H177 H 0.73185 0.50345 0.37426 0.0
H178 H 0.71767 0.47742 0.21847 0.0
H179 H 0.77257 0.46049 0.2219 0.0
C180 C 0.81279 0.45826 0.30304 0.0
C181 C 0.82964 0.45642 0.34863 0.0
C182 C 0.78357 0.47121 0.30027 0.0
C183 C 0.81882 0.46992 0.39113 0.0
C184 C 0.79068 0.48392 0.38852 0.0
C185 C 0.74127 0.49467 0.34102 0.0
C186 C 0.72064 0.49153 0.29628 0.0
C187 C 0.77217 0.48388 0.34342 0.0
C188 C 0.73285 0.47971 0.2535 0.0
C189 C 0.76427 0.47005 0.25538 0.0
H190 H 0.53215 0.28406 0.39664 0.0
H191 H 0.52701 0.27748 0.23854 0.0
H192 H 0.54343 0.34872 0.23512 0.0
H193 H 0.56586 0.41493 0.2767 0.0
H194 H 0.57576 0.42319 0.43464 0.0
H195 H 0.55059 0.34967 0.43852 0.0
C196 C 0.53386 0.29808 0.36158 0.0
C197 C 0.52854 0.27563 0.31798 0.0
C198 C 0.54457 0.33962 0.35979 0.0
C199 C 0.53132 0.29429 0.27267 0.0
C200 C 0.54074 0.33505 0.27063 0.0
C201 C 0.56188 0.4005 0.31194 0.0
C202 C 0.57285 0.42451 0.35523 0.0
C203 C 0.54846 0.35836 0.3139 0.0
C204 C 0.56775 0.40539 0.40067 0.0
C205 C 0.55339 0.36332 0.40298 0.0
H206 H 0.60655 0.1941 0.29557 0.0
H207 H 0.61562 0.21699 0.45183 0.0
H208 H 0.68968 0.26603 0.44603 0.0
H209 H 0.75062 0.30708 0.39522 0.0
H210 H 0.73927 0.28698 0.23835 0.0
H211 H 0.66761 0.23214 0.2457 0.0
C212 C 0.62479 0.20945 0.32843 0.0
C213 C 0.60561 0.20216 0.37395 0.0
C214 C 0.66701 0.23837 0.32465 0.0
C215 C 0.62968 0.2223 0.41624 0.0
C216 C 0.67202 0.25039 0.41297 0.0
C217 C 0.73257 0.29014 0.36287 0.0
C218 C 0.75003 0.30108 0.31636 0.0
C219 C 0.69086 0.25936 0.3672 0.0
C220 C 0.72629 0.27927 0.27456 0.0
C221 C 0.68533 0.24793 0.27869 0.0
H222 H 0.4612 0.85384 0.75888 0.0
H223 H 0.44956 0.8442 0.60104 0.0
H224 H 0.46782 0.79026 0.60137 0.0
H225 H 0.48067 0.74123 0.6476 0.0
H226 H 0.48458 0.74742 0.80577 0.0
H227 H 0.47535 0.80696 0.80433 0.0
C228 C 0.46286 0.8402 0.72445 0.0
C229 C 0.4536 0.85275 0.68007 0.0
C230 C 0.47153 0.80814 0.72509 0.0
C231 C 0.45642 0.83499 0.63578 0.0
C232 C 0.46663 0.80398 0.63597 0.0
C233 C 0.47992 0.75601 0.68158 0.0
C234 C 0.48309 0.73997 0.72671 0.0
C235 C 0.47324 0.78958 0.68053 0.0
C236 C 0.48177 0.75904 0.77061 0.0
C237 C 0.47662 0.79313 0.76983 0.0
H238 H 0.2958 0.74387 0.7765 0.0
H239 H 0.31158 0.77939 0.62509 0.0
H240 H 0.26689 0.70753 0.59898 0.0
H241 H 0.23012 0.63403 0.61934 0.0
H242 H 0.2125 0.59902 0.77097 0.0
H243 H 0.25081 0.67133 0.79701 0.0
C244 C 0.28883 0.7359 0.73781 0.0
C245 C 0.30722 0.76673 0.70269 0.0
C246 C 0.26309 0.69465 0.7232 0.0
C247 C 0.29764 0.75618 0.65275 0.0
C248 C 0.27237 0.71508 0.63784 0.0
C249 C 0.23409 0.64234 0.65806 0.0
C250 C 0.21887 0.6113 0.69323 0.0
C251 C 0.25594 0.68397 0.67272 0.0
C252 C 0.22378 0.62236 0.74325 0.0
C253 C 0.24593 0.66368 0.75814 0.0
H254 H 0.26386 0.51091 0.6367 0.0
H255 H 0.26606 0.50264 0.7943 0.0
H256 H 0.34153 0.53657 0.79511 0.0
H257 H 0.40685 0.57187 0.75161 0.0
H258 H 0.40501 0.58407 0.59458 0.0
H259 H 0.32933 0.54531 0.59294 0.0
C260 C 0.28082 0.51623 0.67116 0.0
C261 C 0.25948 0.50442 0.71538 0.0
C262 C 0.32424 0.5367 0.67147 0.0
C263 C 0.28188 0.51163 0.75978 0.0
C264 C 0.325 0.53106 0.76029 0.0
C265 C 0.38991 0.56586 0.71699 0.0
C266 C 0.41143 0.58088 0.67332 0.0
C267 C 0.34651 0.54428 0.71645 0.0
C268 C 0.38908 0.57292 0.62874 0.0
C269 C 0.34584 0.55076 0.62777 0.0
H270 H 0.04348 0.33772 0.95936 0.0
H271 H -0.00022 0.2327 0.86178 0.0
H272 H 0.01907 0.27743 0.79071 0.0
H273 H 0.05636 0.34743 0.7574 0.0
H274 H 0.09524 0.45183 0.85503 0.0
H275 H 0.06918 0.40643 0.92502 0.0
C276 C 0.03746 0.3247 0.92243 0.0
C277 C 0.02076 0.28225 0.91551 0.0
C278 C 0.04795 0.3505 0.88191 0.0
C279 C 0.01257 0.26539 0.86774 0.0
C280 C 0.02384 0.29096 0.82719 0.0
C281 C 0.05822 0.36005 0.7939 0.0
C282 C 0.07805 0.40284 0.80124 0.0
C283 C 0.04269 0.33369 0.83392 0.0
C284 C 0.07999 0.41895 0.84851 0.0
C285 C 0.0654 0.39304 0.8886 0.0
H286 H 0.70995 0.74083 0.94319 0.0
H287 H 0.78192 0.78468 0.81233 0.0
H288 H 0.71882 0.75012 0.76161 0.0
H289 H 0.64321 0.70917 0.75436 0.0
H290 H 0.57136 0.66518 0.88535 0.0
H291 H 0.63456 0.69797 0.93581 0.0
C292 C 0.7119 0.74291 0.90358 0.0
C293 C 0.75065 0.76558 0.88173 0.0
C294 C 0.67553 0.7229 0.87453 0.0
C295 C 0.75254 0.76749 0.83026 0.0
C296 C 0.71645 0.74777 0.80114 0.0
C297 C 0.64129 0.70658 0.79392 0.0
C298 C 0.60246 0.68486 0.81587 0.0
C299 C 0.67777 0.72562 0.8229 0.0
C300 C 0.60074 0.68169 0.86728 0.0
C301 C 0.6369 0.70054 0.8963 0.0
H302 H 0.34581 0.97161 0.77571 0.0
H303 H 0.35225 0.89539 0.88882 0.0
H304 H 0.31694 0.91704 0.94475 0.0
H305 H 0.28125 0.95445 0.96114 0.0
H306 H 0.27529 0.03304 0.85174 0.0
H307 H 0.31383 0.01418 0.79509 0.0
C308 C 0.33955 0.95994 0.81264 0.0
C309 C 0.35155 0.93173 0.8278 0.0
C310 C 0.31941 0.97295 0.84538 0.0
C311 C 0.34361 0.91721 0.87602 0.0
C312 C 0.32326 0.92947 0.90819 0.0
C313 C 0.28863 0.9677 0.92498 0.0
C314 C 0.27522 0.9947 0.91032 0.0
C315 C 0.31067 0.95689 0.89314 0.0
C316 C 0.28547 0.01219 0.86375 0.0
C317 C 0.30722 1.00119 0.83133 0.0
H318 H 0.43181 0.10921 0.17472 0.0
H319 H 0.36874 0.07569 0.31249 0.0
H320 H 0.30196 0.04353 0.26863 0.0
H321 H 0.2616 0.02744 0.19149 0.0
H322 H 0.32512 0.06254 0.05401 0.0
H323 H 0.39159 0.09159 0.09773 0.0
C324 C 0.40352 0.09455 0.19529 0.0
C325 C 0.40543 0.09499 0.24692 0.0
C326 C 0.36525 0.07664 0.16993 0.0
C327 C 0.3683 0.07599 0.27278 0.0
C328 C 0.33005 0.05761 0.24772 0.0
C329 C 0.28993 0.04129 0.17097 0.0
C330 C 0.28819 0.04292 0.11945 0.0
C331 C 0.32818 0.05821 0.19634 0.0
C332 C 0.32536 0.06103 0.09365 0.0
C333 C 0.36348 0.07762 0.11861 0.0
H334 H -0.0017 0.27526 0.20315 0.0
H335 H 0.94895 0.27628 0.05921 0.0
H336 H 0.91819 0.31502 0.09232 0.0
H337 H 0.90401 0.34734 0.1626 0.0
H338 H 0.95308 0.34506 0.30631 0.0
H339 H 0.98536 0.30828 0.2725 0.0
C340 C 0.98089 0.28391 0.17881 0.0
C341 C 0.97591 0.27261 0.1287 0.0
C342 C 0.96321 0.30607 0.19803 0.0
C343 C 0.95321 0.28432 0.09796 0.0
C344 C 0.93563 0.30656 0.11685 0.0
C345 C 0.92203 0.33909 0.18649 0.0
C346 C 0.92595 0.34896 0.23701 0.0
C347 C 0.9403 0.31748 0.16689 0.0
C348 C 0.94927 0.33775 0.26737 0.0
C349 C 0.96779 0.31667 0.24808 0.0
H350 H 0.65959 0.58191 0.14456 0.0
H351 H 0.6805 0.65447 0.27663 0.0
H352 H 0.71885 0.71754 0.23034 0.0
H353 H 0.75182 0.75204 0.15318 0.0
H354 H 0.7351 0.67801 0.02389 0.0
H355 H 0.68939 0.61575 0.06789 0.0
C356 C 0.67193 0.61147 0.16322 0.0
C357 C 0.66717 0.61333 0.21406 0.0
C358 C 0.69496 0.64749 0.13674 0.0
C359 C 0.68383 0.65206 0.23755 0.0
C360 C 0.70582 0.68818 0.2111 0.0
C361 C 0.73749 0.72226 0.13465 0.0
C362 C 0.74665 0.71943 0.08548 0.0
C363 C 0.71236 0.6863 0.16082 0.0
C364 C 0.72853 0.68077 0.06185 0.0
C365 C 0.70246 0.64519 0.08698 0.0
H366 H 0.10346 0.46508 0.51167 0.0
H367 H 0.02753 0.41971 0.6392 0.0
H368 H 0.96507 0.39502 0.58706 0.0
H369 H 0.93239 0.38897 0.50473 0.0
H370 H 0.01064 0.43938 0.38001 0.0
H371 H 0.07192 0.45886 0.4315 0.0
C372 C 0.07332 0.44954 0.52832 0.0
C373 C 0.07028 0.44424 0.57936 0.0
C374 C 0.03792 0.43619 0.49845 0.0
C375 C 0.03082 0.42434 0.60003 0.0
C376 C 0.9951 0.41014 0.57021 0.0
C377 C 0.9629 0.40377 0.48904 0.0
C378 C 0.96726 0.41272 0.43881 0.0
C379 C -0.00171 0.41619 0.51933 0.0
C380 C 0.00678 0.4324 0.41868 0.0
C381 C 0.04176 0.44356 0.44806 0.0
H382 H 0.65797 0.58757 0.49269 0.0
H383 H 0.60814 0.6351 0.38543 0.0
H384 H 0.58954 0.66762 0.45061 0.0
H385 H 0.57811 0.67345 0.5382 0.0
H386 H 0.61789 0.61623 0.64485 0.0
H387 H 0.6503 0.597 0.58054 0.0
C388 C 0.64415 0.6061 0.4838 0.0
C389 C 0.63478 0.60954 0.4347 0.0
C390 C 0.6313 0.62247 0.52157 0.0
C391 C 0.61582 0.6325 0.4232 0.0
C392 C 0.60501 0.65083 0.46042 0.0
C393 C 0.59489 0.65776 0.54731 0.0
C394 C 0.59603 0.64643 0.5959 0.0
C395 C 0.61124 0.64476 0.50977 0.0
C396 C 0.61686 0.62526 0.6075 0.0
C397 C 0.6352 0.61416 0.57077 0.0
H398 H 0.3621 0.94814 0.55469 0.0
H399 H 0.44174 0.03563 0.66602 0.0
H400 H 0.46029 0.09198 0.60958 0.0
H401 H 0.46111 0.1153 0.52528 0.0
H402 H 0.38842 0.02682 0.41154 0.0
H403 H 0.35932 0.97208 0.47177 0.0
C404 C 0.38278 0.97964 0.5668 0.0
C405 C 0.40058 0.98781 0.61433 0.0
C406 C 0.39468 0.0117 0.53343 0.0
C407 C 0.42783 0.02866 0.62946 0.0
C408 C 0.43848 0.06086 0.5972 0.0
C409 C 0.4379 0.08422 0.51423 0.0
C410 C 0.42618 0.07494 0.46453 0.0
C411 C 0.42311 0.05266 0.54864 0.0
C412 C 0.39722 0.03449 0.44992 0.0
C413 C 0.38091 0.00323 0.48425 0.0
loop_
_geom_bond_atom_site_label_1
_geom_bond_atom_site_label_2
_geom_bond_distance
_geom_bond_site_symmetry_2
_ccdc_geom_bond_type
Co0 O1 2.216 1_554 S
Co0 O2 2.091 1_554 S
Co0 O4 2.004 1_454 S
Co0 O10 2.021 1_455 S
Co0 O12 2.137 1_554 S
Co0 O13 2.244 . S
O1 Co0 2.216 1_556 S
O1 C8 1.247 . S
O2 Co0 2.091 1_556 S
O2 C8 1.261 . S
C3 O12 1.247 1_554 S
C3 O13 1.272 . S
O4 Co0 2.004 1_656 S
O4 C9 1.259 1_556 S
Co5 O6 2.061 1_455 S
Co5 O11 2.052 . S
Co5 O13 2.135 . S
O6 Co5 2.061 1_655 S
O6 C9 1.235 . S
C7 O10 1.238 . S
C7 O11 1.241 1_655 S
C8 O1 1.247 . S
C8 O2 1.261 . S
C9 O4 1.259 1_554 S
C9 O6 1.235 . S
O10 Co0 2.021 1_655 S
O10 C7 1.238 . S
O11 Co5 2.052 . S
O11 C7 1.241 1_455 S
O12 Co0 2.137 1_556 S
O12 C3 1.247 1_556 S
O13 Co0 2.244 . S
O13 C3 1.272 . S
O13 Co5 2.135 . S
Co14 O15 2.216 . S
Co14 O16 2.091 . S
Co14 O18 2.004 . S
Co14 O24 2.021 1_554 S
Co14 O26 2.137 . S
Co14 O27 2.244 1_554 S
O15 Co14 2.216 . S
O15 C22 1.247 . S
O16 Co14 2.091 . S
O16 C22 1.261 . S
C17 O26 1.247 . S
C17 O27 1.272 1_554 S
O18 Co14 2.004 . S
O18 C23 1.259 . S
Co19 O20 2.061 . S
Co19 O25 2.052 . S
Co19 O27 2.135 . S
O20 Co19 2.061 . S
O20 C23 1.235 1_556 S
C21 O24 1.238 . S
C21 O25 1.241 . S
C22 O15 1.247 . S
C22 O16 1.261 . S
C23 O18 1.259 . S
C23 O20 1.235 1_554 S
O24 Co14 2.021 1_556 S
O24 C21 1.238 . S
O25 Co19 2.052 . S
O25 C21 1.241 . S
O26 Co14 2.137 . S
O26 C17 1.247 . S
O27 Co14 2.244 1_556 S
O27 C17 1.272 1_556 S
O27 Co19 2.135 . S
Co28 O29 2.219 1_545 S
Co28 O30 2.108 . S
Co28 O32 2.007 . S
Co28 O38 2.010 1_556 S
Co28 O40 2.143 1_545 S
Co28 O41 2.230 1_546 S
O29 Co28 2.219 1_565 S
O29 C36 1.247 . S
O30 Co28 2.108 . S
O30 C36 1.261 1_545 S
C31 O40 1.247 1_554 S
C31 O41 1.272 . S
O32 Co28 2.007 . S
O32 C37 1.259 1_556 S
Co33 O34 2.061 . S
Co33 O39 2.052 . S
Co33 O41 2.135 1_545 S
O34 Co33 2.061 . S
O34 C37 1.235 . S
C35 O38 1.238 . S
C35 O39 1.241 . S
C36 O29 1.247 . S
C36 O30 1.261 1_565 S
C37 O32 1.259 1_554 S
C37 O34 1.235 . S
O38 Co28 2.010 1_554 S
O38 C35 1.238 . S
O39 Co33 2.052 . S
O39 C35 1.241 . S
O40 Co28 2.143 1_565 S
O40 C31 1.247 1_556 S
O41 Co28 2.230 1_564 S
O41 C31 1.272 . S
O41 Co33 2.135 1_565 S
Co42 O43 2.216 . S
Co42 O44 2.091 . S
Co42 O46 2.004 . S
Co42 O52 2.021 . S
Co42 O54 2.137 . S
Co42 O55 2.244 . S
O43 Co42 2.216 . S
O43 C50 1.247 . S
O44 Co42 2.091 . S
O44 C50 1.261 . S
C45 O54 1.247 . S
C45 O55 1.272 . S
O46 Co42 2.004 . S
O46 C51 1.259 . S
Co47 O48 2.061 . S
Co47 O53 2.052 . S
Co47 O55 2.135 . S
O48 Co47 2.061 . S
O48 C51 1.235 . S
C49 O52 1.238 . S
C49 O53 1.241 . S
C50 O43 1.247 . S
C50 O44 1.261 . S
C51 O46 1.259 . S
C51 O48 1.235 . S
O52 Co42 2.021 . S
O52 C49 1.238 . S
O53 Co47 2.052 . S
O53 C49 1.241 . S
O54 Co42 2.137 . S
O54 C45 1.247 . S
O55 Co42 2.244 . S
O55 C45 1.272 . S
O55 Co47 2.135 . S
Co56 O57 2.216 . S
Co56 O58 2.091 . S
Co56 O60 2.004 . S
Co56 O66 2.021 . S
Co56 O68 2.137 . S
Co56 O69 2.244 . S
O57 Co56 2.216 . S
O57 C64 1.247 . S
O58 Co56 2.091 . S
O58 C64 1.261 . S
C59 O68 1.247 . S
C59 O69 1.272 . S
O60 Co56 2.004 . S
O60 C65 1.259 . S
Co61 O62 2.061 . S
Co61 O67 2.052 . S
Co61 O69 2.135 . S
O62 Co61 2.061 . S
O62 C65 1.235 . S
C63 O66 1.238 . S
C63 O67 1.241 . S
C64 O57 1.247 . S
C64 O58 1.261 . S
C65 O60 1.259 . S
C65 O62 1.235 . S
O66 Co56 2.021 . S
O66 C63 1.238 . S
O67 Co61 2.052 . S
O67 C63 1.241 . S
O68 Co56 2.137 . S
O68 C59 1.247 . S
O69 Co56 2.244 . S
O69 C59 1.272 . S
O69 Co61 2.135 . S
Co70 O71 2.216 . S
Co70 O72 2.091 . S
Co70 O74 2.004 . S
Co70 O80 2.021 . S
Co70 O82 2.137 . S
Co70 O83 2.244 . S
O71 Co70 2.216 . S
O71 C78 1.247 . S
O72 Co70 2.091 . S
O72 C78 1.261 . S
C73 O82 1.247 . S
C73 O83 1.272 . S
O74 Co70 2.004 . S
O74 C79 1.259 . S
Co75 O76 2.061 . S
Co75 O81 2.052 . S
Co75 O83 2.135 . S
O76 Co75 2.061 . S
O76 C79 1.235 . S
C77 O80 1.238 . S
C77 O81 1.241 . S
C78 O71 1.247 . S
C78 O72 1.261 . S
C79 O74 1.259 . S
C79 O76 1.235 . S
O80 Co70 2.021 . S
O80 C77 1.238 . S
O81 Co75 2.052 . S
O81 C77 1.241 . S
O82 Co70 2.137 . S
O82 C73 1.247 . S
O83 Co70 2.244 . S
O83 C73 1.272 . S
O83 Co75 2.135 . S
Co84 O85 2.216 . S
Co84 O86 2.091 . S
Co84 O88 2.004 . S
Co84 O94 2.021 . S
Co84 O96 2.137 . S
Co84 O97 2.244 . S
O85 Co84 2.216 . S
O85 C92 1.247 . S
O86 Co84 2.091 . S
O86 C92 1.261 . S
C87 O96 1.247 . S
C87 O97 1.272 . S
O88 Co84 2.004 . S
O88 C93 1.259 . S
Co89 O90 2.061 . S
Co89 O95 2.052 . S
Co89 O97 2.135 . S
O90 Co89 2.061 . S
O90 C93 1.235 . S
C91 O94 1.238 . S
C91 O95 1.241 . S
C92 O85 1.247 . S
C92 O86 1.261 . S
C93 O88 1.259 . S
C93 O90 1.235 . S
O94 Co84 2.021 . S
O94 C91 1.238 . S
O95 Co89 2.052 . S
O95 C91 1.241 . S
O96 Co84 2.137 . S
O96 C87 1.247 . S
O97 Co84 2.244 . S
O97 C87 1.272 . S
O97 Co89 2.135 . S
Co98 O99 2.216 . S
Co98 O100 2.091 . S
Co98 O102 2.004 . S
Co98 O108 2.021 . S
Co98 O110 2.137 . S
Co98 O111 2.244 . S
O99 Co98 2.216 . S
O99 C106 1.247 . S
O100 Co98 2.091 . S
O100 C106 1.261 . S
C101 O110 1.247 . S
C101 O111 1.272 . S
O102 Co98 2.004 . S
O102 C107 1.259 . S
Co103 O104 2.061 . S
Co103 O109 2.052 . S
Co103 O111 2.135 . S
O104 Co103 2.061 . S
O104 C107 1.235 . S
C105 O108 1.238 . S
C105 O109 1.241 . S
C106 O99 1.247 . S
C106 O100 1.261 . S
C107 O102 1.259 . S
C107 O104 1.235 . S
O108 Co98 2.021 . S
O108 C105 1.238 . S
O109 Co103 2.052 . S
O109 C105 1.241 . S
O110 Co98 2.137 . S
O110 C101 1.247 . S
O111 Co98 2.244 . S
O111 C101 1.272 . S
O111 Co103 2.135 . S
Co112 O113 2.216 . S
Co112 O114 2.091 . S
Co112 O116 2.004 . S
Co112 O122 2.021 . S
Co112 O124 2.137 . S
Co112 O125 2.244 . S
O113 Co112 2.216 . S
O113 C120 1.247 . S
O114 Co112 2.091 . S
O114 C120 1.261 . S
C115 O124 1.247 . S
C115 O125 1.272 . S
O116 Co112 2.004 . S
O116 C121 1.259 . S
Co117 O118 2.061 . S
Co117 O123 2.052 . S
Co117 O125 2.135 . S
O118 Co117 2.061 . S
O118 C121 1.235 . S
C119 O122 1.238 . S
C119 O123 1.241 . S
C120 O113 1.247 . S
C120 O114 1.261 . S
C121 O116 1.259 . S
C121 O118 1.235 . S
O122 Co112 2.021 . S
O122 C119 1.238 . S
O123 Co117 2.052 . S
O123 C119 1.241 . S
O124 Co112 2.137 . S
O124 C115 1.247 . S
O125 Co112 2.244 . S
O125 C115 1.272 . S
O125 Co117 2.135 . S
H126 C132 0.930 . S
H127 C135 0.930 . S
H128 C136 0.930 . S
H129 C137 0.930 1_556 S
H130 C140 0.930 . S
H131 C141 0.930 . S
C132 H126 0.930 . S
C132 C133 1.355 . S
C132 C134 1.415 . S
C133 C132 1.355 . S
C133 C135 1.419 1_554 S
C134 C132 1.415 . S
C134 C139 1.425 . S
C134 C141 1.409 . S
C135 H127 0.930 . S
C135 C133 1.419 1_556 S
C135 C136 1.362 . S
C136 H128 0.930 . S
C136 C135 1.362 . S
C136 C139 1.409 1_556 S
C137 H129 0.930 1_554 S
C137 C138 1.355 . S
C137 C139 1.415 . S
C138 C137 1.355 . S
C138 C140 1.419 . S
C139 C134 1.425 . S
C139 C136 1.409 1_554 S
C139 C137 1.415 . S
C140 H130 0.930 . S
C140 C138 1.419 . S
C140 C141 1.362 . S
C141 H131 0.930 . S
C141 C134 1.409 . S
C141 C140 1.362 . S
H142 C148 0.930 . S
H143 C151 0.930 . S
H144 C152 0.930 . S
H145 C153 0.930 . S
H146 C156 0.930 . S
H147 C157 0.930 . S
C148 H142 0.930 . S
C148 C149 1.355 . S
C148 C150 1.415 1_565 S
C149 C148 1.355 . S
C149 C151 1.419 1_554 S
C150 C148 1.415 1_545 S
C150 C155 1.430 . S
C150 C157 1.409 . S
C151 H143 0.930 . S
C151 C149 1.419 1_556 S
C151 C152 1.362 . S
C152 H144 0.930 . S
C152 C151 1.362 . S
C152 C155 1.405 1_566 S
C153 H145 0.930 . S
C153 C154 1.355 1_556 S
C153 C155 1.413 1_556 S
C154 C153 1.355 1_554 S
C154 C156 1.419 . S
C155 C150 1.430 . S
C155 C152 1.405 1_544 S
C155 C153 1.413 1_554 S
C156 H146 0.930 . S
C156 C154 1.419 . S
C156 C157 1.362 . S
C157 H147 0.930 . S
C157 C150 1.409 . S
C157 C156 1.362 . S
H158 C164 0.930 . S
H159 C167 0.930 . S
H160 C168 0.930 1_455 S
H161 C169 0.930 . S
H162 C172 0.930 . S
H163 C173 0.930 . S
C164 H158 0.930 . S
C164 C165 1.355 1_556 S
C164 C166 1.415 1_655 S
C165 C164 1.355 1_554 S
C165 C167 1.419 . S
C166 C164 1.415 1_455 S
C166 C171 1.425 1_556 S
C166 C173 1.409 . S
C167 H159 0.930 . S
C167 C165 1.419 . S
C167 C168 1.362 . S
C168 H160 0.930 1_655 S
C168 C167 1.362 . S
C168 C171 1.409 1_655 S
C169 H161 0.930 . S
C169 C170 1.355 . S
C169 C171 1.415 . S
C170 C169 1.355 . S
C170 C172 1.419 1_554 S
C171 C166 1.425 1_554 S
C171 C168 1.409 1_455 S
C171 C169 1.415 . S
C172 H162 0.930 . S
C172 C170 1.419 1_556 S
C172 C173 1.362 . S
C173 H163 0.930 . S
C173 C166 1.409 . S
C173 C172 1.362 . S
H174 C180 0.930 . S
H175 C183 0.930 . S
H176 C184 0.930 . S
H177 C185 0.930 . S
H178 C188 0.930 . S
H179 C189 0.930 . S
C180 H174 0.930 . S
C180 C181 1.355 . S
C180 C182 1.415 . S
C181 C180 1.355 . S
C181 C183 1.419 . S
C182 C180 1.415 . S
C182 C187 1.425 . S
C182 C189 1.409 . S
C183 H175 0.930 . S
C183 C181 1.419 . S
C183 C184 1.362 . S
C184 H176 0.930 . S
C184 C183 1.362 . S
C184 C187 1.409 . S
C185 H177 0.930 . S
C185 C186 1.355 . S
C185 C187 1.415 . S
C186 C185 1.355 . S
C186 C188 1.419 . S
C187 C182 1.425 . S
C187 C184 1.409 . S
C187 C185 1.415 . S
C188 H178 0.930 . S
C188 C186 1.419 . S
C188 C189 1.362 . S
C189 H179 0.930 . S
C189 C182 1.409 . S
C189 C188 1.362 . S
H190 C196 0.930 . S
H191 C199 0.930 . S
H192 C200 0.930 . S
H193 C201 0.930 . S
H194 C204 0.930 . S
H195 C205 0.930 . S
C196 H190 0.930 . S
C196 C197 1.355 . S
C196 C198 1.415 . S
C197 C196 1.355 . S
C197 C199 1.419 . S
C198 C196 1.415 . S
C198 C203 1.425 . S
C198 C205 1.409 . S
C199 H191 0.930 . S
C199 C197 1.419 . S
C199 C200 1.362 . S
C200 H192 0.930 . S
C200 C199 1.362 . S
C200 C203 1.409 . S
C201 H193 0.930 . S
C201 C202 1.355 . S
C201 C203 1.415 . S
C202 C201 1.355 . S
C202 C204 1.419 . S
C203 C198 1.425 . S
C203 C200 1.409 . S
C203 C201 1.415 . S
C204 H194 0.930 . S
C204 C202 1.419 . S
C204 C205 1.362 . S
C205 H195 0.930 . S
C205 C198 1.409 . S
C205 C204 1.362 . S
H206 C212 0.930 . S
H207 C215 0.930 . S
H208 C216 0.930 . S
H209 C217 0.930 . S
H210 C220 0.930 . S
H211 C221 0.930 . S
C212 H206 0.930 . S
C212 C213 1.355 . S
C212 C214 1.415 . S
C213 C212 1.355 . S
C213 C215 1.419 . S
C214 C212 1.415 . S
C214 C219 1.425 . S
C214 C221 1.409 . S
C215 H207 0.930 . S
C215 C213 1.419 . S
C215 C216 1.362 . S
C216 H208 0.930 . S
C216 C215 1.362 . S
C216 C219 1.409 . S
C217 H209 0.930 . S
C217 C218 1.355 . S
C217 C219 1.415 . S
C218 C217 1.355 . S
C218 C220 1.419 . S
C219 C214 1.425 . S
C219 C216 1.409 . S
C219 C217 1.415 . S
C220 H210 0.930 . S
C220 C218 1.419 . S
C220 C221 1.362 . S
C221 H211 0.930 . S
C221 C214 1.409 . S
C221 C220 1.362 . S
H222 C228 0.930 . S
H223 C231 0.930 . S
H224 C232 0.930 . S
H225 C233 0.930 . S
H226 C236 0.930 . S
H227 C237 0.930 . S
C228 H222 0.930 . S
C228 C229 1.355 . S
C228 C230 1.415 . S
C229 C228 1.355 . S
C229 C231 1.419 . S
C230 C228 1.415 . S
C230 C235 1.425 . S
C230 C237 1.409 . S
C231 H223 0.930 . S
C231 C229 1.419 . S
C231 C232 1.362 . S
C232 H224 0.930 . S
C232 C231 1.362 . S
C232 C235 1.409 . S
C233 H225 0.930 . S
C233 C234 1.355 . S
C233 C235 1.415 . S
C234 C233 1.355 . S
C234 C236 1.419 . S
C235 C230 1.425 . S
C235 C232 1.409 . S
C235 C233 1.415 . S
C236 H226 0.930 . S
C236 C234 1.419 . S
C236 C237 1.362 . S
C237 H227 0.930 . S
C237 C230 1.409 . S
C237 C236 1.362 . S
H238 C244 0.930 . S
H239 C247 0.930 . S
H240 C248 0.930 . S
H241 C249 0.930 . S
H242 C252 0.930 . S
H243 C253 0.930 . S
C244 H238 0.930 . S
C244 C245 1.355 . S
C244 C246 1.415 . S
C245 C244 1.355 . S
C245 C247 1.419 . S
C246 C244 1.415 . S
C246 C251 1.425 . S
C246 C253 1.409 . S
C247 H239 0.930 . S
C247 C245 1.419 . S
C247 C248 1.362 . S
C248 H240 0.930 . S
C248 C247 1.362 . S
C248 C251 1.409 . S
C249 H241 0.930 . S
C249 C250 1.355 . S
C249 C251 1.415 . S
C250 C249 1.355 . S
C250 C252 1.419 . S
C251 C246 1.425 . S
C251 C248 1.409 . S
C251 C249 1.415 . S
C252 H242 0.930 . S
C252 C250 1.419 . S
C252 C253 1.362 . S
C253 H243 0.930 . S
C253 C246 1.409 . S
C253 C252 1.362 . S
H254 C260 0.930 . S
H255 C263 0.930 . S
H256 C264 0.930 . S
H257 C265 0.930 . S
H258 C268 0.930 . S
H259 C269 0.930 . S
C260 H254 0.930 . S
C260 C261 1.355 . S
C260 C262 1.415 . S
C261 C260 1.355 . S
C261 C263 1.419 . S
C262 C260 1.415 . S
C262 C267 1.425 . S
C262 C269 1.409 . S
C263 H255 0.930 . S
C263 C261 1.419 . S
C263 C264 1.362 . S
C264 H256 0.930 . S
C264 C263 1.362 . S
C264 C267 1.409 . S
C265 H257 0.930 . S
C265 C266 1.355 . S
C265 C267 1.415 . S
C266 C265 1.355 . S
C266 C268 1.419 . S
C267 C262 1.425 . S
C267 C264 1.409 . S
C267 C265 1.415 . S
C268 H258 0.930 . S
C268 C266 1.419 . S
C268 C269 1.362 . S
C269 H259 0.930 . S
C269 C262 1.409 . S
C269 C268 1.362 . S
H270 C276 0.930 . S
H271 C279 0.930 . S
H272 C280 0.930 . S
H273 C281 0.930 . S
H274 C284 0.930 . S
H275 C285 0.930 . S
C276 H270 0.930 . S
C276 C277 1.355 . S
C276 C278 1.415 . S
C277 C276 1.355 . S
C277 C279 1.419 . S
C278 C276 1.415 . S
C278 C283 1.425 . S
C278 C285 1.409 . S
C279 H271 0.930 . S
C279 C277 1.419 . S
C279 C280 1.362 . S
C280 H272 0.930 . S
C280 C279 1.362 . S
C280 C283 1.409 . S
C281 H273 0.930 . S
C281 C282 1.355 . S
C281 C283 1.415 . S
C282 C281 1.355 . S
C282 C284 1.419 . S
C283 C278 1.425 . S
C283 C280 1.409 . S
C283 C281 1.415 . S
C284 H274 0.930 . S
C284 C282 1.419 . S
C284 C285 1.362 . S
C285 H275 0.930 . S
C285 C278 1.409 . S
C285 C284 1.362 . S
H286 C292 0.930 . S
H287 C295 0.930 . S
H288 C296 0.930 . S
H289 C297 0.930 . S
H290 C300 0.930 . S
H291 C301 0.930 . S
C292 H286 0.930 . S
C292 C293 1.355 . S
C292 C294 1.415 . S
C293 C292 1.355 . S
C293 C295 1.419 . S
C294 C292 1.415 . S
C294 C299 1.425 . S
C294 C301 1.409 . S
C295 H287 0.930 . S
C295 C293 1.419 . S
C295 C296 1.362 . S
C296 H288 0.930 . S
C296 C295 1.362 . S
C296 C299 1.409 . S
C297 H289 0.930 . S
C297 C298 1.355 . S
C297 C299 1.415 . S
C298 C297 1.355 . S
C298 C300 1.419 . S
C299 C294 1.425 . S
C299 C296 1.409 . S
C299 C297 1.415 . S
C300 H290 0.930 . S
C300 C298 1.419 . S
C300 C301 1.362 . S
C301 H291 0.930 . S
C301 C294 1.409 . S
C301 C300 1.362 . S
H302 C308 0.930 . S
H303 C311 0.930 . S
H304 C312 0.930 . S
H305 C313 0.930 . S
H306 C316 0.930 . S
H307 C317 0.930 . S
C308 H302 0.930 . S
C308 C309 1.355 . S
C308 C310 1.415 . S
C309 C308 1.355 . S
C309 C311 1.419 . S
C310 C308 1.415 . S
C310 C315 1.425 . S
C310 C317 1.409 . S
C311 H303 0.930 . S
C311 C309 1.419 . S
C311 C312 1.362 . S
C312 H304 0.930 . S
C312 C311 1.362 . S
C312 C315 1.409 . S
C313 H305 0.930 . S
C313 C314 1.355 . S
C313 C315 1.415 . S
C314 C313 1.355 . S
C314 C316 1.419 . S
C315 C310 1.425 . S
C315 C312 1.409 . S
C315 C313 1.415 . S
C316 H306 0.930 . S
C316 C314 1.419 . S
C316 C317 1.362 . S
C317 H307 0.930 . S
C317 C310 1.409 . S
C317 C316 1.362 . S
H318 C324 0.930 . S
H319 C327 0.930 . S
H320 C328 0.930 . S
H321 C329 0.930 . S
H322 C332 0.930 . S
H323 C333 0.930 . S
C324 H318 0.930 . S
C324 C325 1.355 . S
C324 C326 1.415 . S
C325 C324 1.355 . S
C325 C327 1.419 . S
C326 C324 1.415 . S
C326 C331 1.425 . S
C326 C333 1.409 . S
C327 H319 0.930 . S
C327 C325 1.419 . S
C327 C328 1.362 . S
C328 H320 0.930 . S
C328 C327 1.362 . S
C328 C331 1.409 . S
C329 H321 0.930 . S
C329 C330 1.355 . S
C329 C331 1.415 . S
C330 C329 1.355 . S
C330 C332 1.419 . S
C331 C326 1.425 . S
C331 C328 1.409 . S
C331 C329 1.415 . S
C332 H322 0.930 . S
C332 C330 1.419 . S
C332 C333 1.362 . S
C333 H323 0.930 . S
C333 C326 1.409 . S
C333 C332 1.362 . S
H334 C340 0.930 . S
H335 C343 0.930 . S
H336 C344 0.930 . S
H337 C345 0.930 . S
H338 C348 0.930 . S
H339 C349 0.930 . S
C340 H334 0.930 . S
C340 C341 1.355 . S
C340 C342 1.415 . S
C341 C340 1.355 . S
C341 C343 1.419 . S
C342 C340 1.415 . S
C342 C347 1.425 . S
C342 C349 1.409 . S
C343 H335 0.930 . S
C343 C341 1.419 . S
C343 C344 1.362 . S
C344 H336 0.930 . S
C344 C343 1.362 . S
C344 C347 1.409 . S
C345 H337 0.930 . S
C345 C346 1.355 . S
C345 C347 1.415 . S
C346 C345 1.355 . S
C346 C348 1.419 . S
C347 C342 1.425 . S
C347 C344 1.409 . S
C347 C345 1.415 . S
C348 H338 0.930 . S
C348 C346 1.419 . S
C348 C349 1.362 . S
C349 H339 0.930 . S
C349 C342 1.409 . S
C349 C348 1.362 . S
H350 C356 0.930 . S
H351 C359 0.930 . S
H352 C360 0.930 . S
H353 C361 0.930 . S
H354 C364 0.930 . S
H355 C365 0.930 . S
C356 H350 0.930 . S
C356 C357 1.355 . S
C356 C358 1.415 . S
C357 C356 1.355 . S
C357 C359 1.419 . S
C358 C356 1.415 . S
C358 C363 1.425 . S
C358 C365 1.409 . S
C359 H351 0.930 . S
C359 C357 1.419 . S
C359 C360 1.362 . S
C360 H352 0.930 . S
C360 C359 1.362 . S
C360 C363 1.409 . S
C361 H353 0.930 . S
C361 C362 1.355 . S
C361 C363 1.415 . S
C362 C361 1.355 . S
C362 C364 1.419 . S
C363 C358 1.425 . S
C363 C360 1.409 . S
C363 C361 1.415 . S
C364 H354 0.930 . S
C364 C362 1.419 . S
C364 C365 1.362 . S
C365 H355 0.930 . S
C365 C358 1.409 . S
C365 C364 1.362 . S
H366 C372 0.930 . S
H367 C375 0.930 . S
H368 C376 0.930 1_655 S
H369 C377 0.930 . S
H370 C380 0.930 . S
H371 C381 0.930 . S
C372 H366 0.930 . S
C372 C373 1.355 . S
C372 C374 1.415 . S
C373 C372 1.355 . S
C373 C375 1.419 . S
C374 C372 1.415 . S
C374 C379 1.425 . S
C374 C381 1.409 . S
C375 H367 0.930 . S
C375 C373 1.419 . S
C375 C376 1.362 . S
C376 H368 0.930 1_455 S
C376 C375 1.362 . S
C376 C379 1.409 . S
C377 H369 0.930 . S
C377 C378 1.355 . S
C377 C379 1.415 1_655 S
C378 C377 1.355 . S
C378 C380 1.419 1_655 S
C379 C374 1.425 . S
C379 C376 1.409 . S
C379 C377 1.415 1_455 S
C380 H370 0.930 . S
C380 C378 1.419 1_455 S
C380 C381 1.362 . S
C381 H371 0.930 . S
C381 C374 1.409 . S
C381 C380 1.362 . S
H382 C388 0.930 . S
H383 C391 0.930 . S
H384 C392 0.930 . S
H385 C393 0.930 . S
H386 C396 0.930 . S
H387 C397 0.930 . S
C388 H382 0.930 . S
C388 C389 1.355 . S
C388 C390 1.415 . S
C389 C388 1.355 . S
C389 C391 1.419 . S
C390 C388 1.415 . S
C390 C395 1.425 . S
C390 C397 1.409 . S
C391 H383 0.930 . S
C391 C389 1.419 . S
C391 C392 1.362 . S
C392 H384 0.930 . S
C392 C391 1.362 . S
C392 C395 1.409 . S
C393 H385 0.930 . S
C393 C394 1.355 . S
C393 C395 1.415 . S
C394 C393 1.355 . S
C394 C396 1.419 . S
C395 C390 1.425 . S
C395 C392 1.409 . S
C395 C393 1.415 . S
C396 H386 0.930 . S
C396 C394 1.419 . S
C396 C397 1.362 . S
C397 H387 0.930 . S
C397 C390 1.409 . S
C397 C396 1.362 . S
H398 C404 0.930 . S
H399 C407 0.925 . S
H400 C408 0.930 . S
H401 C409 0.930 . S
H402 C412 0.930 . S
H403 C413 0.931 . S
C404 H398 0.930 . S
C404 C405 1.355 . S
C404 C406 1.433 . S
C405 C404 1.355 . S
C405 C407 1.409 1_565 S
C406 C404 1.433 . S
C406 C411 1.413 1_565 S
C406 C413 1.403 . S
C407 H399 0.925 . S
C407 C405 1.409 1_545 S
C407 C408 1.377 . S
C408 H400 0.930 . S
C408 C407 1.377 . S
C408 C411 1.409 . S
C409 H401 0.930 . S
C409 C410 1.355 . S
C409 C411 1.415 . S
C410 C409 1.355 . S
C410 C412 1.419 . S
C411 C406 1.413 1_545 S
C411 C408 1.409 . S
C411 C409 1.415 . S
C412 H402 0.930 . S
C412 C410 1.419 . S
C412 C413 1.362 1_545 S
C413 H403 0.931 . S
C413 C406 1.403 . S
C413 C412 1.362 1_565 S
C133 C37 1.054 . S
C138 C3 1.135 . S
C149 C23 1.068 . S
C154 C9 1.059 . S
C165 C17 1.135 . S
C170 C31 1.122 . S
C181 C73 1.068 . S
C186 C51 1.106 . S
C197 C65 1.056 . S
C202 C45 1.069 . S
C213 C59 1.079 . S
C218 C79 1.104 . S
C229 C87 1.109 . S
C234 C121 1.036 . S
C245 C93 1.086 . S
C250 C107 1.004 . S
C261 C101 1.065 . S
C266 C115 1.079 . S
C277 C8 1.385 . S
C282 C106 1.388 . S
C293 C21 1.368 . S
C298 C119 1.374 . S
C309 C91 1.363 . S
C314 C36 1.399 . S
C325 C63 1.392 . S
C330 C35 1.390 . S
C341 C7 1.409 . S
C346 C77 1.399 . S
C357 C49 1.382 . S
C362 C22 1.421 . S
C373 C105 1.383 . S
C378 C78 1.413 . S
C389 C50 1.407 . S
C394 C120 1.415 . S
C405 C92 1.426 . S
C410 C64 1.433 . S
