# Generated by pormake.
# Topology ukh, (4)-cn, num edge types: 1
# Building blocks:
#     Node 0, Type 0, BuildingBlock: AZAVOO_clean_sbu_0, # of connection points: 4
#     Node 1, Type 0, BuildingBlock: AZAVOO_clean_sbu_0, # of connection points: 4
#     Node 2, Type 0, BuildingBlock: AZAVOO_clean_sbu_0, # of connection points: 4
#     Node 3, Type 0, BuildingBlock: AZAVOO_clean_sbu_0, # of connection points: 4
#     Node 4, Type 0, BuildingBlock: AZAVOO_clean_sbu_0, # of connection points: 4
#     Node 5, Type 0, BuildingBlock: AZAVOO_clean_sbu_0, # of connection points: 4
#     Node 6, Type 0, BuildingBlock: AZAVOO_clean_sbu_0, # of connection points: 4
#     Node 7, Type 0, BuildingBlock: AZAVOO_clean_sbu_0, # of connection points: 4
#     Node 8, Type 0, BuildingBlock: AZAVOO_clean_sbu_0, # of connection points: 4
#     Node 9, Type 0, BuildingBlock: AZAVOO_clean_sbu_0, # of connection points: 4
#     Node 10, Type 0, BuildingBlock: AZAVOO_clean_sbu_0, # of connection points: 4
#     Node 11, Type 0, BuildingBlock: AZAVOO_clean_sbu_0, # of connection points: 4
#     Edge 12, Type (0, 0), BuildingBlock: AJUNOK_clean_linker_0, # of connection points: 2
#     Edge 13, Type (0, 0), BuildingBlock: AJUNOK_clean_linker_0, # of connection points: 2
#     Edge 14, Type (0, 0), BuildingBlock: AJUNOK_clean_linker_0, # of connection points: 2
#     Edge 15, Type (0, 0), BuildingBlock: AJUNOK_clean_linker_0, # of connection points: 2
#     Edge 16, Type (0, 0), BuildingBlock: AJUNOK_clean_linker_0, # of connection points: 2
#     Edge 17, Type (0, 0), BuildingBlock: AJUNOK_clean_linker_0, # of connection points: 2
#     Edge 18, Type (0, 0), BuildingBlock: AJUNOK_clean_linker_0, # of connection points: 2
#     Edge 19, Type (0, 0), BuildingBlock: AJUNOK_clean_linker_0, # of connection points: 2
#     Edge 20, Type (0, 0), BuildingBlock: AJUNOK_clean_linker_0, # of connection points: 2
#     Edge 21, Type (0, 0), BuildingBlock: AJUNOK_clean_linker_0, # of connection points: 2
#     Edge 22, Type (0, 0), BuildingBlock: AJUNOK_clean_linker_0, # of connection points: 2
#     Edge 23, Type (0, 0), BuildingBlock: AJUNOK_clean_linker_0, # of connection points: 2
#     Edge 24, Type (0, 0), BuildingBlock: AJUNOK_clean_linker_0, # of connection points: 2
#     Edge 25, Type (0, 0), BuildingBlock: AJUNOK_clean_linker_0, # of connection points: 2
#     Edge 26, Type (0, 0), BuildingBlock: AJUNOK_clean_linker_0, # of connection points: 2
#     Edge 27, Type (0, 0), BuildingBlock: AJUNOK_clean_linker_0, # of connection points: 2
#     Edge 28, Type (0, 0), BuildingBlock: AJUNOK_clean_linker_0, # of connection points: 2
#     Edge 29, Type (0, 0), BuildingBlock: AJUNOK_clean_linker_0, # of connection points: 2
#     Edge 30, Type (0, 0), BuildingBlock: AJUNOK_clean_linker_0, # of connection points: 2
#     Edge 31, Type (0, 0), BuildingBlock: AJUNOK_clean_linker_0, # of connection points: 2
#     Edge 32, Type (0, 0), BuildingBlock: AJUNOK_clean_linker_0, # of connection points: 2
#     Edge 33, Type (0, 0), BuildingBlock: AJUNOK_clean_linker_0, # of connection points: 2
#     Edge 34, Type (0, 0), BuildingBlock: AJUNOK_clean_linker_0, # of connection points: 2
#     Edge 35, Type (0, 0), BuildingBlock: AJUNOK_clean_linker_0, # of connection points: 2
# Relax obj value: 0.219
# Max RMSD: 0.238
# Mean RMSD: 0.238
data_MOF--net-ukh--node1-AZAVOO_clean_sbu_0--edge1-AJUNOK_clean_linker_0
_symmetry_space_group_name_H-M    P1
_symmetry_Int_Tables_number       1
_symmetry_cell_setting            triclinic
loop_
_symmetry_equiv_pos_as_xyz
'x, y, z'
_cell_length_a     22.546496
_cell_length_b     22.717453
_cell_length_c     47.744581
_cell_angle_alpha  90.624223
_cell_angle_beta   89.651656
_cell_angle_gamma 119.35725
loop_
_atom_site_label
_atom_site_type_symbol
_atom_site_fract_x
_atom_site_fract_y
_atom_site_fract_z
_atom_type_partial_charge
Mg0 Mg 0.37924 0.1982 0.03106 0.0
O1 O 0.28641 0.18584 0.00429 0.0
O2 O 0.20853 0.07681 0.00837 0.0
Mg3 Mg 0.24499 0.02005 0.036 0.0
C4 C 0.22785 0.13546 -0.00146 0.0
C5 C 0.4885 0.34327 0.01567 0.0
O6 O 0.50776 0.30677 0.00068 0.0
O7 O 0.32619 0.19343 0.07221 0.0
O8 O 0.25172 0.08247 0.07462 0.0
O9 O 0.42048 0.16363 -0.00481 0.0
O10 O 0.34957 0.09702 0.02724 0.0
C11 C 0.2805 0.14196 0.08508 0.0
C12 C 0.3849 0.10353 0.00532 0.0
O13 O 0.43325 0.31355 0.02951 0.0
Mg14 Mg 0.08968 0.30343 0.39488 0.0
O15 O 1.00437 0.20178 0.37627 0.0
O16 O 0.02988 0.12328 0.38983 0.0
Mg17 Mg 0.1276 0.1692 0.41519 0.0
C18 C 0.99176 0.14032 0.37661 0.0
C19 C 0.05045 0.40276 0.36693 0.0
O20 O 0.1061 0.4149 0.35335 0.0
O21 O 0.05076 0.27862 0.43973 0.0
O22 O 0.08547 0.20488 0.45083 0.0
O23 O 0.15241 0.31827 0.35681 0.0
O24 O 0.15839 0.26578 0.39429 0.0
C25 C 0.05971 0.24204 0.45751 0.0
C26 C 0.17793 0.28526 0.36911 0.0
O27 O 0.02793 0.35744 0.38571 0.0
Mg28 Mg 0.83742 0.22768 0.6832 0.0
O29 O 0.85161 0.15273 0.65425 0.0
O30 O 0.96136 0.18219 0.65642 0.0
Mg31 Mg 1.01767 0.27572 0.68465 0.0
C32 C 0.90132 0.14364 0.64727 0.0
C33 C 0.68796 0.15962 0.66143 0.0
O34 O 0.71848 0.20087 0.64054 0.0
O35 O 0.84938 0.17758 0.72241 0.0
O36 O 0.96157 0.21357 0.72255 0.0
O37 O 0.86658 0.30483 0.64825 0.0
O38 O 0.93654 0.30126 0.67936 0.0
C39 C 0.90258 0.18109 0.73352 0.0
C40 C 0.92744 0.33058 0.65845 0.0
O41 O 0.72352 0.15843 0.68168 0.0
Mg42 Mg 0.73963 0.77945 0.04571 0.0
O43 O 0.83546 0.79213 0.02067 0.0
O44 O 0.90624 0.90344 0.02047 0.0
Mg45 Mg 0.86431 0.96128 0.04476 0.0
C46 C 0.8913 0.84364 0.0131 0.0
C47 C 0.67587 0.63248 0.02364 0.0
O48 O 0.69541 0.66641 0.00015 0.0
O49 O 0.79017 0.79861 0.08909 0.0
O50 O 0.85883 0.91039 0.08595 0.0
O51 O 0.69771 0.79928 0.00645 0.0
O52 O 0.76249 0.87708 0.03719 0.0
C53 C 0.83316 0.85568 0.09979 0.0
C54 C 0.73004 0.8622 0.01401 0.0
O55 O 0.69209 0.66479 0.04678 0.0
Mg56 Mg 0.81207 0.61178 0.33729 0.0
O57 O 0.90311 0.71422 0.32255 0.0
O58 O 0.85622 0.77763 0.31125 0.0
Mg59 Mg 0.74348 0.72543 0.32221 0.0
C60 C 0.90774 0.76861 0.31279 0.0
C61 C 0.91488 0.55518 0.33518 0.0
O62 O 0.91086 0.56454 0.30831 0.0
O63 O 0.81048 0.65866 0.37989 0.0
O64 O 0.76955 0.72737 0.36812 0.0
O65 O 0.79 0.58243 0.29144 0.0
O66 O 0.74238 0.6297 0.31687 0.0
C67 C 0.79179 0.70211 0.38621 0.0
C68 C 0.75116 0.60951 0.29291 0.0
O69 O 0.88387 0.57366 0.35245 0.0
Mg70 Mg 0.2499 0.86922 0.67226 0.0
O71 O 0.22905 0.95806 0.66632 0.0
O72 O 0.11668 0.91573 0.66842 0.0
Mg73 Mg 0.06594 0.80198 0.67696 0.0
C74 C 0.17661 0.96553 0.66505 0.0
C75 C 0.39409 0.98458 0.65788 0.0
O76 O 0.36115 0.98263 0.63497 0.0
O77 O 0.22839 0.86716 0.71893 0.0
O78 O 0.1149 0.82144 0.72018 0.0
O79 O 0.23438 0.85073 0.62622 0.0
O80 O 0.15445 0.80074 0.65855 0.0
C81 C 0.17238 0.84507 0.7324 0.0
C82 C 0.17083 0.81293 0.63266 0.0
O83 O 0.36169 0.94444 0.67763 0.0
Mg84 Mg 0.81414 0.75507 0.56405 0.0
O85 O 0.82977 0.85935 0.58049 0.0
O86 O 0.92734 0.9348 0.56051 0.0
Mg87 Mg 0.97673 0.88534 0.53462 0.0
C88 C 0.8764 0.9206 0.57642 0.0
C89 C 0.68693 0.63496 0.5848 0.0
O90 O 0.73549 0.61891 0.58576 0.0
O91 O 0.78732 0.76977 0.52012 0.0
O92 O 0.89097 0.83769 0.50259 0.0
O93 O 0.87137 0.74539 0.59991 0.0
O94 O 0.91867 0.79594 0.5602 0.0
C95 C 0.82705 0.79914 0.49959 0.0
C96 C 0.9255 0.77773 0.58473 0.0
O97 O 0.70199 0.69398 0.57678 0.0
Mg98 Mg 0.18788 0.77604 0.90995 0.0
O99 O 0.10503 0.79142 0.93309 0.0
O100 O 0.13984 0.90128 0.92948 0.0
Mg101 Mg 0.24289 0.95711 0.90745 0.0
C102 C 0.09668 0.84236 0.93791 0.0
C103 C 0.09546 0.62949 0.93193 0.0
O104 O 0.10812 0.66236 0.95591 0.0
O105 O 0.15461 0.7898 0.86635 0.0
O106 O 0.20228 0.90264 0.86612 0.0
O107 O 0.24934 0.801 0.94978 0.0
O108 O 0.26157 0.87415 0.91728 0.0
C109 C 0.17251 0.84543 0.85368 0.0
C110 C 0.27934 0.86277 0.94106 0.0
O111 O 0.11849 0.66256 0.90947 0.0
Mg112 Mg 0.32258 0.1033 0.26382 0.0
O113 O 0.21553 0.01277 0.27482 0.0
O114 O 0.14431 0.05453 0.27111 0.0
Mg115 Mg 0.20051 0.16695 0.26123 0.0
C116 C 0.15553 1.00564 0.2759 0.0
C117 C 0.43676 0.07038 0.2591 0.0
O118 O 0.46486 0.13576 0.26359 0.0
O119 O 0.29441 0.09817 0.21756 0.0
O120 O 0.22663 0.14472 0.2179 0.0
O121 O 0.33926 0.13913 0.30911 0.0
O122 O 0.29343 0.17144 0.27628 0.0
C123 C 0.25902 0.11992 0.20491 0.0
C124 C 0.31184 0.17512 0.30173 0.0
O125 O 0.37202 0.0362 0.25806 0.0
Mg126 Mg 0.25676 0.38176 0.61847 0.0
O127 O 0.2455 0.27672 0.62951 0.0
O128 O 0.13651 0.22445 0.64266 0.0
Mg129 Mg 0.07874 0.28252 0.63967 0.0
C130 C 0.19248 0.2244 0.63874 0.0
C131 C 0.40812 0.43623 0.61261 0.0
O132 O 0.39488 0.42017 0.63915 0.0
O133 O 0.19186 0.3357 0.57874 0.0
O134 O 0.08292 0.27455 0.59247 0.0
O135 O 0.2377 0.47012 0.61374 0.0
O136 O 0.17336 0.37738 0.63775 0.0
C137 C 0.12845 0.29773 0.57345 0.0
C138 C 0.18244 0.43327 0.62757 0.0
O139 O 0.35858 0.42032 0.59597 0.0
Mg140 Mg 0.90483 0.18716 0.91272 0.0
O141 O 0.99682 0.17749 0.92938 0.0
O142 O 0.97222 0.07203 0.91919 0.0
Mg143 Mg 0.86698 0.01323 0.8991 0.0
C144 C 1.01209 0.13018 0.92967 0.0
C145 C 0.95407 0.33541 0.93277 0.0
O146 O 0.9055 0.30327 0.95121 0.0
O147 O 0.93169 0.18528 0.8672 0.0
O148 O 0.89818 0.07601 0.85906 0.0
O149 O 0.85204 0.15284 0.95367 0.0
O150 O 0.83912 0.08531 0.91784 0.0
C151 C 0.92058 0.1364 0.85066 0.0
C152 C 0.82472 0.09218 0.94326 0.0
O153 O 0.96745 0.3015 0.91501 0.0
Mg154 Mg 0.73364 0.92498 0.22864 0.0
O155 O 0.79242 0.96763 0.27091 0.0
O156 O 0.87232 0.9367 0.27543 0.0
Mg157 Mg 0.88653 0.90196 0.23229 0.0
C158 C 0.83866 0.96414 0.28515 0.0
C159 C 0.60465 0.9434 0.23707 0.0
O160 O 0.57449 0.87855 0.23105 0.0
O161 O 0.8149 0.01486 0.2045 0.0
O162 O 0.89673 1.00257 0.22075 0.0
O163 O 0.67484 0.82082 0.24583 0.0
O164 O 0.77429 0.85755 0.22523 0.0
C165 C 0.8625 1.00135 0.19966 0.0
C166 C 0.7232 0.80934 0.23774 0.0
O167 O 0.66945 0.97663 0.23745 0.0
C168 C 0.62782 0.52096 -0.00107 0.0
C169 C 0.62918 0.5585 0.02277 0.0
C170 C 0.58175 0.4516 -0.00323 0.0
C171 C 0.53412 0.41726 0.01809 0.0
H172 H 0.66291 0.54527 -0.01821 0.0
H173 H 0.58321 0.42477 -0.02189 0.0
S174 S 0.51577 0.49241 0.08476 0.0
N175 N 0.57862 0.55611 0.06823 0.0
N176 N 0.49121 0.42605 0.06391 0.0
C177 C 0.53446 0.45424 0.04197 0.0
C178 C 0.58227 0.5247 0.04441 0.0
C179 C 0.02919 0.47574 0.33422 0.0
C180 C 1.01528 0.44166 0.35994 0.0
C181 C 0.99725 0.51291 0.32669 0.0
C182 C 0.9507 0.51863 0.34472 0.0
H183 H 0.0645 0.47305 0.31947 0.0
H184 H 1.0092 0.53729 0.30647 0.0
S185 S 0.89793 0.44091 0.41498 0.0
N186 N 0.95237 0.41703 0.40376 0.0
N187 N 0.89302 0.48767 0.38983 0.0
C188 C 0.93709 0.4858 0.37077 0.0
C189 C 0.96904 0.44706 0.37829 0.0
C190 C 0.50412 0.07162 0.63711 0.0
C191 C 0.46856 0.03036 0.65991 0.0
C192 C 0.57485 0.11331 0.63787 0.0
C193 C 0.61302 0.11549 0.66145 0.0
H194 H 0.47734 0.07144 0.61833 0.0
H195 H 0.59971 0.14366 0.61966 0.0
S196 S 0.54415 0.01942 0.72727 0.0
N197 N 0.47678 0.99588 0.7072 0.0
N198 N 0.60956 0.07405 0.70861 0.0
C199 C 0.57803 0.07521 0.6846 0.0
C200 C 0.50592 0.0328 0.68385 0.0
C201 C 0.56058 0.58389 0.57862 0.0
C202 C 0.61607 0.58357 0.59181 0.0
C203 C 0.49331 0.53385 0.58432 0.0
C204 C 0.47914 0.48261 0.60387 0.0
H205 H 0.56917 0.62272 0.5636 0.0
H206 H 0.45209 0.53669 0.57404 0.0
S207 S 0.60616 0.45889 0.64392 0.0
N208 N 0.65217 0.52666 0.62488 0.0
N209 N 0.52605 0.4341 0.63608 0.0
C210 C 0.53414 0.4816 0.61706 0.0
C211 C 0.60249 0.53165 0.6109 0.0
C212 C 0.98688 0.44759 0.95496 0.0
C213 C 0.99073 0.41026 0.93198 0.0
C214 C 1.02057 0.51838 0.9547 0.0
C215 C 0.05868 0.55462 0.9313 0.0
H216 H 0.95806 0.42204 -0.02654 0.0
H217 H 1.01642 0.54482 -0.02702 0.0
S218 S 0.08407 0.4809 0.86549 0.0
N219 N 0.03543 0.41498 0.88502 0.0
N220 N 0.09812 0.5477 0.88442 0.0
C221 C 0.06246 0.51791 0.90805 0.0
C222 C 0.02876 0.44587 0.90843 0.0
C223 C 0.45121 0.97043 0.24593 0.0
C224 C 0.48033 0.03852 0.2544 0.0
C225 C 0.49171 0.94028 0.2405 0.0
C226 C 0.56315 0.97683 0.24328 0.0
H227 H 0.39667 0.94016 0.24319 0.0
H228 H 0.46657 0.88784 0.23386 0.0
S229 S 0.66481 0.15605 0.26608 0.0
N230 N 0.58546 0.14117 0.26615 0.0
N231 N 0.661 0.08464 0.25593 0.0
C232 C 0.59289 0.04475 0.25209 0.0
C233 C 0.5517 0.07547 0.25764 0.0
C234 C 0.32102 0.1343 0.16013 0.0
C235 C 0.26205 0.12481 0.17414 0.0
C236 C 0.32814 0.14504 0.13129 0.0
C237 C 0.27626 0.14573 0.11544 0.0
H238 H 0.36242 0.13432 0.17154 0.0
H239 H 0.37362 0.15039 0.1211 0.0
S240 S 0.11239 0.12432 0.14166 0.0
N241 N 0.15131 0.11861 0.16988 0.0
N242 N 0.16444 0.13613 0.11518 0.0
C243 C 0.21715 0.1364 0.12892 0.0
C244 C 0.21018 0.12673 0.15845 0.0
C245 C 0.03728 0.20592 0.5072 0.0
C246 C 0.06196 0.25819 0.48747 0.0
C247 C 0.05754 0.2193 0.53533 0.0
C248 C 0.1055 0.2848 0.54419 0.0
H249 H 1.00466 0.15406 0.50056 0.0
H250 H 0.03817 0.17773 0.54993 0.0
S251 S 0.18202 0.43957 0.50118 0.0
N252 N 0.13274 0.37855 0.47923 0.0
N253 N 0.17345 0.40295 0.53175 0.0
C254 C 0.12863 0.33773 0.52494 0.0
C255 C 0.10602 0.32459 0.49665 0.0
C256 C 0.87176 0.18413 0.78291 0.0
C257 C 0.89987 0.15992 0.76259 0.0
C258 C 0.88122 0.17825 0.81141 0.0
C259 C 0.91771 0.14656 0.82053 0.0
H260 H 0.84504 0.21067 0.77676 0.0
H261 H 0.85905 0.19798 0.82645 0.0
S262 S 0.99791 0.07128 0.77559 0.0
N263 N 0.96466 0.10221 0.75328 0.0
N264 N 0.97905 0.08762 0.80721 0.0
C265 C 0.94383 0.11977 0.80048 0.0
C266 C 0.93585 0.12748 0.77138 0.0
C267 C 0.77925 0.86954 0.14186 0.0
C268 C 0.83496 0.86616 0.1302 0.0
C269 C 0.78754 0.91165 0.1649 0.0
C270 C 0.85151 0.95009 0.17773 0.0
H271 H 0.73059 0.84563 0.13117 0.0
H272 H 0.74412 0.91613 0.17189 0.0
S273 S 1.0101 0.94773 0.15841 0.0
N274 N 0.95377 0.89776 0.13499 0.0
N275 N 0.96918 0.97395 0.17945 0.0
C276 C 0.90582 0.94116 0.16809 0.0
C277 C 0.89756 0.89966 0.14413 0.0
C278 C 0.82256 0.81711 0.44865 0.0
C279 C 0.80406 0.77258 0.47125 0.0
C280 C 0.81677 0.79332 0.42109 0.0
C281 C 0.79517 0.72482 0.41538 0.0
H282 H 0.84375 0.87084 0.45237 0.0
H283 H 0.83177 0.82923 0.40419 0.0
S284 S 0.73878 0.58766 0.46726 0.0
N285 N 0.76018 0.65644 0.48621 0.0
N286 N 0.75199 0.61235 0.43431 0.0
C287 C 0.77504 0.67959 0.43773 0.0
C288 C 0.77875 0.70337 0.46573 0.0
C289 C 0.11642 0.79622 0.80766 0.0
C290 C 0.17145 0.84612 0.82286 0.0
C291 C 0.11684 0.79669 0.77828 0.0
C292 C 0.17312 0.84595 0.76327 0.0
H293 H 0.07271 0.75711 0.8185 0.0
H294 H 0.07321 0.75756 0.76726 0.0
S295 S 0.33127 0.98558 0.7935 0.0
N296 N 0.2845 0.94511 0.82086 0.0
N297 N 0.28543 0.94499 0.7658 0.0
C298 C 0.22882 0.89538 0.77829 0.0
C299 C 0.22791 0.89572 0.80806 0.0
C300 C 0.36104 0.98473 0.94593 0.0
C301 C 0.32321 0.92129 0.95881 0.0
C302 C 0.38641 0.04457 0.96146 0.0
C303 C 0.37552 0.04262 -0.0096 0.0
H304 H 0.36673 0.98845 0.92336 0.0
H305 H 0.40993 0.09216 0.95044 0.0
S306 S 0.29872 0.88981 0.035 0.0
N307 N 0.28863 0.86009 0.00263 0.0
N308 N 0.33937 0.97289 0.03225 0.0
C309 C 0.34659 0.9797 0.00399 0.0
C310 C 0.31978 0.91869 -0.01194 0.0
C311 C 0.23497 0.21442 0.36444 0.0
C312 C 0.22271 0.26528 0.35389 0.0
C313 C 0.26906 0.18818 0.3484 0.0
C314 C 0.29282 0.21293 0.32154 0.0
H315 H 0.21585 0.19241 0.38464 0.0
H316 H 0.27302 0.14575 0.35635 0.0
S317 S 0.2893 0.35693 0.28716 0.0
N318 N 0.24762 0.34687 0.31683 0.0
N319 N 0.3131 0.29885 0.28705 0.0
C320 C 0.28733 0.26842 0.312 0.0
C321 C 0.25192 0.29436 0.32808 0.0
C322 C 0.04051 0.42939 0.6643 0.0
C323 C 0.98807 0.38684 0.64585 0.0
C324 C 0.10859 0.45913 0.65605 0.0
C325 C 0.12573 0.44739 0.62912 0.0
H326 H 0.02954 0.43198 0.68627 0.0
H327 H 0.14754 0.4822 0.67202 0.0
S328 S 1.00669 0.36319 0.57024 0.0
N329 N 0.95676 0.35054 0.59762 0.0
N330 N 0.08556 0.4092 0.58178 0.0
C331 C 0.07366 0.41733 0.60905 0.0
C332 C 1.00406 0.38592 0.61755 0.0
C333 C 0.76782 0.98325 0.00717 0.0
C334 C 0.73922 0.91761 -0.00433 0.0
C335 C 0.79176 0.03969 -0.00992 0.0
C336 C 0.78693 0.03235 0.96089 0.0
H337 H 0.77501 0.99162 0.02956 0.0
H338 H 0.81742 0.0893 -0.00018 0.0
S339 S 0.69895 0.87081 0.92088 0.0
N340 N 0.69619 0.84778 0.95376 0.0
N341 N 0.73819 0.95418 0.92144 0.0
C342 C 0.75096 0.96675 0.94928 0.0
C343 C 0.72754 0.90912 0.96675 0.0
C344 C 0.78234 0.74048 0.24116 0.0
C345 C 0.72309 0.74592 0.24494 0.0
C346 C 0.78799 0.68715 0.25297 0.0
C347 C 0.73426 0.63743 0.26864 0.0
H348 H 0.82652 0.77993 0.23081 0.0
H349 H 0.83715 0.68946 0.25265 0.0
S350 S 0.56233 0.61782 0.27788 0.0
N351 N 0.60496 0.68887 0.26036 0.0
N352 N 0.61594 0.58887 0.28241 0.0
C353 C 0.6718 0.63699 0.26898 0.0
C354 C 0.66617 0.69145 0.2573 0.0
C355 C 0.05513 0.73891 0.61558 0.0
C356 C 0.11597 0.80052 0.61331 0.0
C357 C 0.99372 0.73229 0.60612 0.0
C358 C 0.99131 0.78702 0.59401 0.0
H359 H 0.05434 0.69686 0.62643 0.0
H360 H 0.94758 0.68436 0.6088 0.0
S361 S 0.13646 0.95909 0.58328 0.0
N362 N 0.17063 0.91693 0.5977 0.0
N363 N 0.05455 0.90449 0.5799 0.0
C364 C 0.05212 0.8481 0.59046 0.0
C365 C 0.11487 0.85478 0.60004 0.0
C366 C 0.08909 0.08569 0.94429 0.0
C367 C 0.0743 0.13921 0.94469 0.0
C368 C 0.14048 0.08685 0.96097 0.0
C369 C 0.18056 0.14187 -0.02127 0.0
H370 H 0.0593 0.0411 0.93155 0.0
H371 H 0.14813 0.04336 0.96032 0.0
S372 S 0.16834 0.29822 -0.01396 0.0
N373 N 0.10801 0.25158 0.9633 0.0
N374 N 0.20561 0.25374 -0.0056 0.0
C375 C 0.16954 0.19768 -0.02169 0.0
C376 C 0.11626 0.19633 0.96141 0.0
C377 C 0.86693 0.06499 0.31582 0.0
C378 C 0.86185 1.00107 0.31225 0.0
C379 C 0.90486 0.10824 0.33801 0.0
C380 C 0.93864 0.08893 0.3576 0.0
H381 H 0.84585 0.08382 0.30023 0.0
H382 H 0.9111 0.15863 0.33874 0.0
S383 S 0.9297 0.92096 0.36013 0.0
N384 N 0.88566 0.91699 0.33203 0.0
N385 N 0.95527 0.99655 0.37391 0.0
C386 C 0.92806 0.0223 0.35564 0.0
C387 C 0.89022 0.97891 0.33292 0.0
C388 C 0.93952 0.03895 0.59523 0.0
C389 C 0.87766 0.97755 0.59297 0.0
C390 C 0.94584 0.09205 0.6124 0.0
C391 C 0.89044 0.08716 0.62794 0.0
H392 H 0.98464 0.04581 0.58426 0.0
H393 H 0.99511 0.13732 0.61362 0.0
S394 S 0.71596 0.93945 0.62854 0.0
N395 N 0.7589 0.91615 0.60724 0.0
N396 N 0.77051 0.01683 0.63919 0.0
C397 C 0.82751 0.02717 0.62528 0.0
C398 C 0.82125 0.97226 0.60797 0.0
C399 C 0.97809 0.89168 -0.02483 0.0
C400 C 0.93857 0.83698 -0.00708 0.0
C401 C 0.02609 0.89082 0.95677 0.0
C402 C 0.03825 0.83576 0.95529 0.0
H403 H 0.97224 0.93628 -0.02451 0.0
H404 H 0.05482 0.93465 0.94383 0.0
S405 S 0.94526 0.67722 -0.00413 0.0
N406 N 0.91157 0.72381 0.00661 0.0
N407 N 1.00343 0.72269 -0.02769 0.0
C408 C 0.99732 0.77925 -0.02788 0.0
C409 C 0.94727 0.7798 -0.00918 0.0
C410 C 0.97214 0.86702 0.28161 0.0
C411 C 0.97363 0.82338 0.3019 0.0
C412 C 0.03149 0.92396 0.27268 0.0
C413 C 0.09569 0.93963 0.28329 0.0
H414 H 0.92419 0.85749 0.27276 0.0
H415 H 0.02673 0.95669 0.25758 0.0
S416 S 0.12899 0.83878 0.33514 0.0
N417 N 0.04543 0.79738 0.33121 0.0
N418 N 0.15787 0.90439 0.31405 0.0
C419 C 0.09878 0.89451 0.30248 0.0
C420 C 0.03765 0.83636 0.31183 0.0
C421 C 0.12594 0.04035 0.65746 0.0
C422 C 0.18433 0.03308 0.65843 0.0
C423 C 0.1299 0.10194 0.65089 0.0
C424 C 0.19251 0.16003 0.6449 0.0
H425 H 0.07608 0.99795 0.66177 0.0
H426 H 0.08264 0.10349 0.65051 0.0
S427 S 0.3612 0.16858 0.64382 0.0
N428 N 0.30743 0.08961 0.65226 0.0
N429 N 0.31467 0.20586 0.63993 0.0
C430 C 0.2516 0.15376 0.64547 0.0
C431 C 0.24758 0.09043 0.65226 0.0
loop_
_geom_bond_atom_site_label_1
_geom_bond_atom_site_label_2
_geom_bond_distance
_geom_bond_site_symmetry_2
_ccdc_geom_bond_type
Mg0 O1 2.028 . S
Mg0 O7 1.986 . S
Mg0 O9 2.125 . S
Mg0 O10 2.251 . S
Mg0 O13 2.010 . S
O1 Mg0 2.028 . S
O1 C4 1.250 . S
O2 Mg3 2.028 . S
O2 C4 1.248 . S
Mg3 O2 2.028 . S
Mg3 O8 2.032 . S
Mg3 O10 2.079 . S
C4 O1 1.250 . S
C4 O2 1.248 . S
C5 O6 1.264 . S
C5 O13 1.249 . S
O6 C5 1.264 . S
O7 Mg0 1.986 . S
O7 C11 1.246 . S
O8 Mg3 2.032 . S
O8 C11 1.259 . S
O9 Mg0 2.125 . S
O9 C12 1.256 . S
O10 Mg0 2.251 . S
O10 Mg3 2.079 . S
O10 C12 1.273 . S
C11 O7 1.246 . S
C11 O8 1.259 . S
C12 O9 1.256 . S
C12 O10 1.273 . S
O13 Mg0 2.010 . S
O13 C5 1.249 . S
Mg14 O15 2.028 . S
Mg14 O21 1.986 . S
Mg14 O23 2.114 . S
Mg14 O24 2.251 . S
Mg14 O27 2.010 . S
O15 Mg14 2.028 . S
O15 C18 1.250 1_455 S
O16 Mg17 2.028 . S
O16 C18 1.248 1_455 S
Mg17 O16 2.028 . S
Mg17 O22 2.032 . S
Mg17 O24 2.079 . S
C18 O15 1.250 1_655 S
C18 O16 1.248 1_655 S
C19 O20 1.264 . S
C19 O27 1.249 . S
O20 C19 1.264 . S
O21 Mg14 1.986 . S
O21 C25 1.246 . S
O22 Mg17 2.032 . S
O22 C25 1.259 . S
O23 Mg14 2.114 . S
O23 C26 1.252 . S
O24 Mg14 2.251 . S
O24 Mg17 2.079 . S
O24 C26 1.273 . S
C25 O21 1.246 . S
C25 O22 1.259 . S
C26 O23 1.252 . S
C26 O24 1.273 . S
O27 Mg14 2.010 . S
O27 C19 1.249 . S
Mg28 O29 2.028 . S
Mg28 O35 1.986 . S
Mg28 O37 2.114 . S
Mg28 O38 2.251 . S
Mg28 O41 2.010 . S
O29 Mg28 2.028 . S
O29 C32 1.250 1_545 S
O30 Mg31 2.028 . S
O30 C32 1.248 1_545 S
Mg31 O30 2.028 . S
Mg31 O36 2.032 . S
Mg31 O38 2.079 . S
C32 O29 1.250 1_565 S
C32 O30 1.248 1_565 S
C33 O34 1.264 . S
C33 O41 1.249 . S
O34 C33 1.264 . S
O35 Mg28 1.986 . S
O35 C39 1.246 . S
O36 Mg31 2.032 . S
O36 C39 1.259 . S
O37 Mg28 2.114 . S
O37 C40 1.252 . S
O38 Mg28 2.251 . S
O38 Mg31 2.079 . S
O38 C40 1.273 . S
C39 O35 1.246 . S
C39 O36 1.259 . S
C40 O37 1.252 . S
C40 O38 1.273 . S
O41 Mg28 2.010 . S
O41 C33 1.249 . S
Mg42 O43 2.028 . S
Mg42 O49 1.986 . S
Mg42 O51 2.125 . S
Mg42 O52 2.251 . S
Mg42 O55 2.010 . S
O43 Mg42 2.028 . S
O43 C46 1.250 . S
O44 Mg45 2.028 . S
O44 C46 1.248 . S
Mg45 O44 2.028 . S
Mg45 O50 2.032 . S
Mg45 O52 2.079 . S
C46 O43 1.250 . S
C46 O44 1.248 . S
C47 O48 1.264 . S
C47 O55 1.249 . S
O48 C47 1.264 . S
O49 Mg42 1.986 . S
O49 C53 1.246 . S
O50 Mg45 2.032 . S
O50 C53 1.259 . S
O51 Mg42 2.125 . S
O51 C54 1.256 . S
O52 Mg42 2.251 . S
O52 Mg45 2.079 . S
O52 C54 1.273 . S
C53 O49 1.246 . S
C53 O50 1.259 . S
C54 O51 1.256 . S
C54 O52 1.273 . S
O55 Mg42 2.010 . S
O55 C47 1.249 . S
Mg56 O57 2.028 . S
Mg56 O63 1.986 . S
Mg56 O65 2.114 . S
Mg56 O66 2.251 . S
Mg56 O69 2.010 . S
O57 Mg56 2.028 . S
O57 C60 1.250 1_655 S
O58 Mg59 2.028 . S
O58 C60 1.248 1_655 S
Mg59 O58 2.028 . S
Mg59 O64 2.032 . S
Mg59 O66 2.079 . S
C60 O57 1.250 1_455 S
C60 O58 1.248 1_455 S
C61 O62 1.264 . S
C61 O69 1.249 . S
O62 C61 1.264 . S
O63 Mg56 1.986 . S
O63 C67 1.246 . S
O64 Mg59 2.032 . S
O64 C67 1.259 . S
O65 Mg56 2.114 . S
O65 C68 1.252 . S
O66 Mg56 2.251 . S
O66 Mg59 2.079 . S
O66 C68 1.273 . S
C67 O63 1.246 . S
C67 O64 1.259 . S
C68 O65 1.252 . S
C68 O66 1.273 . S
O69 Mg56 2.010 . S
O69 C61 1.249 . S
Mg70 O71 2.028 . S
Mg70 O77 1.986 . S
Mg70 O79 2.114 . S
Mg70 O80 2.251 . S
Mg70 O83 2.010 . S
O71 Mg70 2.028 . S
O71 C74 1.250 1_565 S
O72 Mg73 2.028 . S
O72 C74 1.248 1_565 S
Mg73 O72 2.028 . S
Mg73 O78 2.032 . S
Mg73 O80 2.079 . S
C74 O71 1.250 1_545 S
C74 O72 1.248 1_545 S
C75 O76 1.264 . S
C75 O83 1.249 . S
O76 C75 1.264 . S
O77 Mg70 1.986 . S
O77 C81 1.246 . S
O78 Mg73 2.032 . S
O78 C81 1.259 . S
O79 Mg70 2.114 . S
O79 C82 1.252 . S
O80 Mg70 2.251 . S
O80 Mg73 2.079 . S
O80 C82 1.273 . S
C81 O77 1.246 . S
C81 O78 1.259 . S
C82 O79 1.252 . S
C82 O80 1.273 . S
O83 Mg70 2.010 . S
O83 C75 1.249 . S
Mg84 O85 2.028 . S
Mg84 O91 1.986 . S
Mg84 O93 2.114 . S
Mg84 O94 2.251 . S
Mg84 O97 2.010 . S
O85 Mg84 2.028 . S
O85 C88 1.250 . S
O86 Mg87 2.028 . S
O86 C88 1.248 . S
Mg87 O86 2.028 . S
Mg87 O92 2.032 . S
Mg87 O94 2.079 . S
C88 O85 1.250 . S
C88 O86 1.248 . S
C89 O90 1.264 . S
C89 O97 1.249 . S
O90 C89 1.264 . S
O91 Mg84 1.986 . S
O91 C95 1.246 . S
O92 Mg87 2.032 . S
O92 C95 1.259 . S
O93 Mg84 2.114 . S
O93 C96 1.252 . S
O94 Mg84 2.251 . S
O94 Mg87 2.079 . S
O94 C96 1.273 . S
C95 O91 1.246 . S
C95 O92 1.259 . S
C96 O93 1.252 . S
C96 O94 1.273 . S
O97 Mg84 2.010 . S
O97 C89 1.249 . S
Mg98 O99 2.028 . S
Mg98 O105 1.986 . S
Mg98 O107 2.125 . S
Mg98 O108 2.251 . S
Mg98 O111 2.010 . S
O99 Mg98 2.028 . S
O99 C102 1.250 1_455 S
O100 Mg101 2.028 . S
O100 C102 1.248 1_455 S
Mg101 O100 2.028 . S
Mg101 O106 2.032 . S
Mg101 O108 2.079 . S
C102 O99 1.250 1_655 S
C102 O100 1.248 1_655 S
C103 O104 1.264 . S
C103 O111 1.249 . S
O104 C103 1.264 . S
O105 Mg98 1.986 . S
O105 C109 1.246 . S
O106 Mg101 2.032 . S
O106 C109 1.259 . S
O107 Mg98 2.125 . S
O107 C110 1.256 . S
O108 Mg98 2.251 . S
O108 Mg101 2.079 . S
O108 C110 1.273 . S
C109 O105 1.246 . S
C109 O106 1.259 . S
C110 O107 1.256 . S
C110 O108 1.273 . S
O111 Mg98 2.010 . S
O111 C103 1.249 . S
Mg112 O113 2.028 . S
Mg112 O119 1.986 . S
Mg112 O121 2.114 . S
Mg112 O122 2.251 . S
Mg112 O125 2.010 . S
O113 Mg112 2.028 . S
O113 C116 1.250 1_545 S
O114 Mg115 2.028 . S
O114 C116 1.248 1_545 S
Mg115 O114 2.028 . S
Mg115 O120 2.032 . S
Mg115 O122 2.079 . S
C116 O113 1.250 1_565 S
C116 O114 1.248 1_565 S
C117 O118 1.264 . S
C117 O125 1.249 . S
O118 C117 1.264 . S
O119 Mg112 1.986 . S
O119 C123 1.246 . S
O120 Mg115 2.032 . S
O120 C123 1.259 . S
O121 Mg112 2.114 . S
O121 C124 1.252 . S
O122 Mg112 2.251 . S
O122 Mg115 2.079 . S
O122 C124 1.273 . S
C123 O119 1.246 . S
C123 O120 1.259 . S
C124 O121 1.252 . S
C124 O122 1.273 . S
O125 Mg112 2.010 . S
O125 C117 1.249 . S
Mg126 O127 2.028 . S
Mg126 O133 1.986 . S
Mg126 O135 2.114 . S
Mg126 O136 2.251 . S
Mg126 O139 2.010 . S
O127 Mg126 2.028 . S
O127 C130 1.250 . S
O128 Mg129 2.028 . S
O128 C130 1.248 . S
Mg129 O128 2.028 . S
Mg129 O134 2.032 . S
Mg129 O136 2.079 . S
C130 O127 1.250 . S
C130 O128 1.248 . S
C131 O132 1.264 . S
C131 O139 1.249 . S
O132 C131 1.264 . S
O133 Mg126 1.986 . S
O133 C137 1.246 . S
O134 Mg129 2.032 . S
O134 C137 1.259 . S
O135 Mg126 2.114 . S
O135 C138 1.252 . S
O136 Mg126 2.251 . S
O136 Mg129 2.079 . S
O136 C138 1.273 . S
C137 O133 1.246 . S
C137 O134 1.259 . S
C138 O135 1.252 . S
C138 O136 1.273 . S
O139 Mg126 2.010 . S
O139 C131 1.249 . S
Mg140 O141 2.028 . S
Mg140 O147 1.986 . S
Mg140 O149 2.125 . S
Mg140 O150 2.251 . S
Mg140 O153 2.010 . S
O141 Mg140 2.028 . S
O141 C144 1.250 1_655 S
O142 Mg143 2.028 . S
O142 C144 1.248 1_655 S
Mg143 O142 2.028 . S
Mg143 O148 2.032 . S
Mg143 O150 2.079 . S
C144 O141 1.250 1_455 S
C144 O142 1.248 1_455 S
C145 O146 1.264 . S
C145 O153 1.249 . S
O146 C145 1.264 . S
O147 Mg140 1.986 . S
O147 C151 1.246 . S
O148 Mg143 2.032 . S
O148 C151 1.259 . S
O149 Mg140 2.125 . S
O149 C152 1.256 . S
O150 Mg140 2.251 . S
O150 Mg143 2.079 . S
O150 C152 1.273 . S
C151 O147 1.246 . S
C151 O148 1.259 . S
C152 O149 1.256 . S
C152 O150 1.273 . S
O153 Mg140 2.010 . S
O153 C145 1.249 . S
Mg154 O155 2.028 . S
Mg154 O161 1.986 . S
Mg154 O163 2.114 . S
Mg154 O164 2.251 . S
Mg154 O167 2.010 . S
O155 Mg154 2.028 . S
O155 C158 1.250 1_565 S
O156 Mg157 2.028 . S
O156 C158 1.248 1_565 S
Mg157 O156 2.028 . S
Mg157 O162 2.032 . S
Mg157 O164 2.079 . S
C158 O155 1.250 1_545 S
C158 O156 1.248 1_545 S
C159 O160 1.264 . S
C159 O167 1.249 . S
O160 C159 1.264 . S
O161 Mg154 1.986 . S
O161 C165 1.246 . S
O162 Mg157 2.032 . S
O162 C165 1.259 . S
O163 Mg154 2.114 . S
O163 C166 1.252 . S
O164 Mg154 2.251 . S
O164 Mg157 2.079 . S
O164 C166 1.273 . S
C165 O161 1.246 . S
C165 O162 1.259 . S
C166 O163 1.252 . S
C166 O164 1.273 . S
O167 Mg154 2.010 . S
O167 C159 1.249 . S
C168 C169 1.369 1_556 S
C168 C170 1.419 . S
C168 H172 0.930 . S
C169 C168 1.369 1_554 S
C169 C178 1.429 . S
C170 C168 1.419 . S
C170 C171 1.363 1_556 S
C170 H173 0.929 . S
C171 C170 1.363 1_554 S
C171 C177 1.428 . S
H172 C168 0.930 . S
H173 C170 0.929 . S
S174 N175 1.613 . S
S174 N176 1.610 . S
N175 S174 1.613 . S
N175 C178 1.350 . S
N176 S174 1.610 . S
N176 C177 1.351 . S
C177 C171 1.428 . S
C177 N176 1.351 . S
C177 C178 1.434 . S
C178 C169 1.429 . S
C178 N175 1.350 . S
C178 C177 1.434 . S
C179 C180 1.369 . S
C179 C181 1.419 . S
C179 H183 0.930 . S
C180 C179 1.369 . S
C180 C189 1.429 1_455 S
C181 C179 1.419 . S
C181 C182 1.363 1_455 S
C181 H184 0.929 . S
C182 C181 1.363 1_655 S
C182 C188 1.428 . S
H183 C179 0.930 . S
H184 C181 0.929 . S
S185 N186 1.613 . S
S185 N187 1.610 . S
N186 S185 1.613 . S
N186 C189 1.350 . S
N187 S185 1.610 . S
N187 C188 1.351 . S
C188 C182 1.428 . S
C188 N187 1.351 . S
C188 C189 1.434 . S
C189 C180 1.429 1_655 S
C189 N186 1.350 . S
C189 C188 1.434 . S
C190 C191 1.369 . S
C190 C192 1.419 1_565 S
C190 H194 0.930 . S
C191 C190 1.369 . S
C191 C200 1.429 . S
C192 C190 1.419 1_545 S
C192 C193 1.363 . S
C192 H195 0.929 . S
C193 C192 1.363 . S
C193 C199 1.428 . S
H194 C190 0.930 . S
H195 C192 0.929 . S
S196 N197 1.613 . S
S196 N198 1.610 1_565 S
N197 S196 1.613 . S
N197 C200 1.350 . S
N198 S196 1.610 1_545 S
N198 C199 1.351 . S
C199 C193 1.428 . S
C199 N198 1.351 . S
C199 C200 1.434 1_545 S
C200 C191 1.429 . S
C200 N197 1.350 . S
C200 C199 1.434 1_565 S
C201 C202 1.369 . S
C201 C203 1.419 . S
C201 H205 0.930 . S
C202 C201 1.369 . S
C202 C211 1.429 . S
C203 C201 1.419 . S
C203 C204 1.363 . S
C203 H206 0.929 . S
C204 C203 1.363 . S
C204 C210 1.428 . S
H205 C201 0.930 . S
H206 C203 0.929 . S
S207 N208 1.613 . S
S207 N209 1.610 . S
N208 S207 1.613 . S
N208 C211 1.350 . S
N209 S207 1.610 . S
N209 C210 1.351 . S
C210 C204 1.428 . S
C210 N209 1.351 . S
C210 C211 1.434 . S
C211 C202 1.429 . S
C211 N208 1.350 . S
C211 C210 1.434 . S
C212 C213 1.369 . S
C212 C214 1.419 . S
C212 H216 0.930 1_556 S
C213 C212 1.369 . S
C213 C222 1.429 1_655 S
C214 C212 1.419 . S
C214 C215 1.363 1_655 S
C214 H217 0.929 1_556 S
C215 C214 1.363 1_455 S
C215 C221 1.428 . S
H216 C212 0.930 1_554 S
H217 C214 0.929 1_554 S
S218 N219 1.613 . S
S218 N220 1.610 . S
N219 S218 1.613 . S
N219 C222 1.350 . S
N220 S218 1.610 . S
N220 C221 1.351 . S
C221 C215 1.428 . S
C221 N220 1.351 . S
C221 C222 1.434 . S
C222 C213 1.429 1_455 S
C222 N219 1.350 . S
C222 C221 1.434 . S
C223 C224 1.369 1_565 S
C223 C225 1.419 . S
C223 H227 0.930 . S
C224 C223 1.369 1_545 S
C224 C233 1.429 . S
C225 C223 1.419 . S
C225 C226 1.363 . S
C225 H228 0.929 . S
C226 C225 1.363 . S
C226 C232 1.428 1_565 S
H227 C223 0.930 . S
H228 C225 0.929 . S
S229 N230 1.613 . S
S229 N231 1.610 . S
N230 S229 1.613 . S
N230 C233 1.350 . S
N231 S229 1.610 . S
N231 C232 1.351 . S
C232 C226 1.428 1_545 S
C232 N231 1.351 . S
C232 C233 1.434 . S
C233 C224 1.429 . S
C233 N230 1.350 . S
C233 C232 1.434 . S
C234 C235 1.369 . S
C234 C236 1.419 . S
C234 H238 0.930 . S
C235 C234 1.369 . S
C235 C244 1.429 . S
C236 C234 1.419 . S
C236 C237 1.363 . S
C236 H239 0.929 . S
C237 C236 1.363 . S
C237 C243 1.428 . S
H238 C234 0.930 . S
H239 C236 0.929 . S
S240 N241 1.613 . S
S240 N242 1.610 . S
N241 S240 1.613 . S
N241 C244 1.350 . S
N242 S240 1.610 . S
N242 C243 1.351 . S
C243 C237 1.428 . S
C243 N242 1.351 . S
C243 C244 1.434 . S
C244 C235 1.429 . S
C244 N241 1.350 . S
C244 C243 1.434 . S
C245 C246 1.369 . S
C245 C247 1.419 . S
C245 H249 0.930 . S
C246 C245 1.369 . S
C246 C255 1.429 . S
C247 C245 1.419 . S
C247 C248 1.363 . S
C247 H250 0.929 . S
C248 C247 1.363 . S
C248 C254 1.428 . S
H249 C245 0.930 . S
H250 C247 0.929 . S
S251 N252 1.613 . S
S251 N253 1.610 . S
N252 S251 1.613 . S
N252 C255 1.350 . S
N253 S251 1.610 . S
N253 C254 1.351 . S
C254 C248 1.428 . S
C254 N253 1.351 . S
C254 C255 1.434 . S
C255 C246 1.429 . S
C255 N252 1.350 . S
C255 C254 1.434 . S
C256 C257 1.369 . S
C256 C258 1.419 . S
C256 H260 0.930 . S
C257 C256 1.369 . S
C257 C266 1.429 . S
C258 C256 1.419 . S
C258 C259 1.363 . S
C258 H261 0.929 . S
C259 C258 1.363 . S
C259 C265 1.428 . S
H260 C256 0.930 . S
H261 C258 0.929 . S
S262 N263 1.613 . S
S262 N264 1.610 . S
N263 S262 1.613 . S
N263 C266 1.350 . S
N264 S262 1.610 . S
N264 C265 1.351 . S
C265 C259 1.428 . S
C265 N264 1.351 . S
C265 C266 1.434 . S
C266 C257 1.429 . S
C266 N263 1.350 . S
C266 C265 1.434 . S
C267 C268 1.369 . S
C267 C269 1.419 . S
C267 H271 0.930 . S
C268 C267 1.369 . S
C268 C277 1.429 . S
C269 C267 1.419 . S
C269 C270 1.363 . S
C269 H272 0.929 . S
C270 C269 1.363 . S
C270 C276 1.428 . S
H271 C267 0.930 . S
H272 C269 0.929 . S
S273 N274 1.613 . S
S273 N275 1.610 . S
N274 S273 1.613 . S
N274 C277 1.350 . S
N275 S273 1.610 . S
N275 C276 1.351 . S
C276 C270 1.428 . S
C276 N275 1.351 . S
C276 C277 1.434 . S
C277 C268 1.429 . S
C277 N274 1.350 . S
C277 C276 1.434 . S
C278 C279 1.369 . S
C278 C280 1.419 . S
C278 H282 0.930 . S
C279 C278 1.369 . S
C279 C288 1.429 . S
C280 C278 1.419 . S
C280 C281 1.363 . S
C280 H283 0.929 . S
C281 C280 1.363 . S
C281 C287 1.428 . S
H282 C278 0.930 . S
H283 C280 0.929 . S
S284 N285 1.613 . S
S284 N286 1.610 . S
N285 S284 1.613 . S
N285 C288 1.350 . S
N286 S284 1.610 . S
N286 C287 1.351 . S
C287 C281 1.428 . S
C287 N286 1.351 . S
C287 C288 1.434 . S
C288 C279 1.429 . S
C288 N285 1.350 . S
C288 C287 1.434 . S
C289 C290 1.369 . S
C289 C291 1.419 . S
C289 H293 0.930 . S
C290 C289 1.369 . S
C290 C299 1.429 . S
C291 C289 1.419 . S
C291 C292 1.363 . S
C291 H294 0.929 . S
C292 C291 1.363 . S
C292 C298 1.428 . S
H293 C289 0.930 . S
H294 C291 0.929 . S
S295 N296 1.613 . S
S295 N297 1.610 . S
N296 S295 1.613 . S
N296 C299 1.350 . S
N297 S295 1.610 . S
N297 C298 1.351 . S
C298 C292 1.428 . S
C298 N297 1.351 . S
C298 C299 1.434 . S
C299 C290 1.429 . S
C299 N296 1.350 . S
C299 C298 1.434 . S
C300 C301 1.366 1_556 S
C300 C302 1.419 1_565 S
C300 H304 0.930 . S
C301 C300 1.366 1_554 S
C301 C310 1.431 . S
C302 C300 1.419 1_545 S
C302 C303 1.348 1_556 S
C302 H305 0.929 . S
C303 C302 1.348 1_554 S
C303 C309 1.443 . S
H304 C300 0.930 . S
H305 C302 0.929 . S
S306 N307 1.613 . S
S306 N308 1.610 1_565 S
N307 S306 1.613 . S
N307 C310 1.350 . S
N308 S306 1.610 1_545 S
N308 C309 1.351 . S
C309 C303 1.443 . S
C309 N308 1.351 . S
C309 C310 1.434 1_545 S
C310 C301 1.431 . S
C310 N307 1.350 . S
C310 C309 1.434 1_565 S
C311 C312 1.369 . S
C311 C313 1.419 . S
C311 H315 0.930 . S
C312 C311 1.369 . S
C312 C321 1.429 . S
C313 C311 1.419 . S
C313 C314 1.363 . S
C313 H316 0.929 . S
C314 C313 1.363 . S
C314 C320 1.428 . S
H315 C311 0.930 . S
H316 C313 0.929 . S
S317 N318 1.613 . S
S317 N319 1.610 . S
N318 S317 1.613 . S
N318 C321 1.350 . S
N319 S317 1.610 . S
N319 C320 1.351 . S
C320 C314 1.428 . S
C320 N319 1.351 . S
C320 C321 1.434 . S
C321 C312 1.429 . S
C321 N318 1.350 . S
C321 C320 1.434 . S
C322 C323 1.369 . S
C322 C324 1.419 1_655 S
C322 H326 0.930 . S
C323 C322 1.369 . S
C323 C332 1.429 . S
C324 C322 1.419 1_455 S
C324 C325 1.363 . S
C324 H327 0.929 . S
C325 C324 1.363 . S
C325 C331 1.428 . S
H326 C322 0.930 . S
H327 C324 0.929 . S
S328 N329 1.628 . S
S328 N330 1.603 1_655 S
N329 S328 1.628 . S
N329 C332 1.350 . S
N330 S328 1.603 1_455 S
N330 C331 1.351 . S
C331 C325 1.428 . S
C331 N330 1.351 . S
C331 C332 1.434 1_455 S
C332 C323 1.429 . S
C332 N329 1.350 . S
C332 C331 1.434 1_655 S
C333 C334 1.369 1_554 S
C333 C335 1.419 1_565 S
C333 H337 0.930 . S
C334 C333 1.369 1_556 S
C334 C343 1.429 . S
C335 C333 1.419 1_545 S
C335 C336 1.355 1_554 S
C335 H338 0.929 . S
C336 C335 1.355 1_556 S
C336 C342 1.437 . S
H337 C333 0.930 . S
H338 C335 0.929 . S
S339 N340 1.625 . S
S339 N341 1.605 1_565 S
N340 S339 1.625 . S
N340 C343 1.350 . S
N341 S339 1.605 1_545 S
N341 C342 1.351 . S
C342 C336 1.437 . S
C342 N341 1.351 . S
C342 C343 1.434 1_545 S
C343 C334 1.429 . S
C343 N340 1.350 . S
C343 C342 1.434 1_565 S
C344 C345 1.369 . S
C344 C346 1.419 . S
C344 H348 0.930 . S
C345 C344 1.369 . S
C345 C354 1.429 . S
C346 C344 1.419 . S
C346 C347 1.363 . S
C346 H349 0.929 . S
C347 C346 1.363 . S
C347 C353 1.428 . S
H348 C344 0.930 . S
H349 C346 0.929 . S
S350 N351 1.613 . S
S350 N352 1.610 . S
N351 S350 1.613 . S
N351 C354 1.350 . S
N352 S350 1.610 . S
N352 C353 1.351 . S
C353 C347 1.428 . S
C353 N352 1.351 . S
C353 C354 1.434 . S
C354 C345 1.429 . S
C354 N351 1.350 . S
C354 C353 1.434 . S
C355 C356 1.369 . S
C355 C357 1.419 1_455 S
C355 H359 0.930 . S
C356 C355 1.369 . S
C356 C365 1.429 . S
C357 C355 1.419 1_655 S
C357 C358 1.363 . S
C357 H360 0.929 . S
C358 C357 1.363 . S
C358 C364 1.428 . S
H359 C355 0.930 . S
H360 C357 0.929 . S
S361 N362 1.599 1_655 S
S361 N363 1.617 . S
N362 S361 1.599 1_455 S
N362 C365 1.350 . S
N363 S361 1.617 . S
N363 C364 1.351 . S
C364 C358 1.428 . S
C364 N363 1.351 . S
C364 C365 1.434 1_655 S
C365 C356 1.429 . S
C365 N362 1.350 . S
C365 C364 1.434 1_455 S
C366 C367 1.369 . S
C366 C368 1.419 . S
C366 H370 0.930 . S
C367 C366 1.369 . S
C367 C376 1.429 1_556 S
C368 C366 1.419 . S
C368 C369 1.363 1_556 S
C368 H371 0.929 . S
C369 C368 1.363 1_554 S
C369 C375 1.428 . S
H370 C366 0.930 . S
H371 C368 0.929 . S
S372 N373 1.613 . S
S372 N374 1.610 . S
N373 S372 1.613 . S
N373 C376 1.350 . S
N374 S372 1.610 . S
N374 C375 1.351 . S
C375 C369 1.428 . S
C375 N374 1.351 . S
C375 C376 1.434 . S
C376 C367 1.429 1_554 S
C376 N373 1.350 . S
C376 C375 1.434 . S
C377 C378 1.369 . S
C377 C379 1.419 . S
C377 H381 0.930 . S
C378 C377 1.369 . S
C378 C387 1.429 . S
C379 C377 1.419 . S
C379 C380 1.363 . S
C379 H382 0.929 . S
C380 C379 1.363 . S
C380 C386 1.428 . S
H381 C377 0.930 . S
H382 C379 0.929 . S
S383 N384 1.613 1_545 S
S383 N385 1.610 . S
N384 S383 1.613 1_565 S
N384 C387 1.350 1_565 S
N385 S383 1.610 . S
N385 C386 1.351 . S
C386 C380 1.428 . S
C386 N385 1.351 . S
C386 C387 1.434 . S
C387 C378 1.429 . S
C387 N384 1.350 1_545 S
C387 C386 1.434 . S
C388 C389 1.369 . S
C388 C390 1.419 . S
C388 H392 0.930 . S
C389 C388 1.369 . S
C389 C398 1.429 . S
C390 C388 1.419 . S
C390 C391 1.363 . S
C390 H393 0.929 . S
C391 C390 1.363 . S
C391 C397 1.428 . S
H392 C388 0.930 . S
H393 C390 0.929 . S
S394 N395 1.613 . S
S394 N396 1.610 . S
N395 S394 1.613 . S
N395 C398 1.350 . S
N396 S394 1.610 . S
N396 C397 1.351 . S
C397 C391 1.428 . S
C397 N396 1.351 . S
C397 C398 1.434 . S
C398 C389 1.429 . S
C398 N395 1.350 . S
C398 C397 1.434 . S
C399 C400 1.369 1_556 S
C399 C401 1.419 . S
C399 H403 0.930 . S
C400 C399 1.369 1_554 S
C400 C409 1.429 . S
C401 C399 1.419 . S
C401 C402 1.363 . S
C401 H404 0.929 . S
C402 C401 1.363 . S
C402 C408 1.428 1_556 S
H403 C399 0.930 . S
H404 C401 0.929 . S
S405 N406 1.613 . S
S405 N407 1.610 . S
N406 S405 1.613 . S
N406 C409 1.350 . S
N407 S405 1.610 . S
N407 C408 1.351 . S
C408 C402 1.428 1_554 S
C408 N407 1.351 . S
C408 C409 1.434 . S
C409 C400 1.429 . S
C409 N406 1.350 . S
C409 C408 1.434 . S
C410 C411 1.369 . S
C410 C412 1.419 . S
C410 H414 0.930 . S
C411 C410 1.369 . S
C411 C420 1.429 . S
C412 C410 1.419 . S
C412 C413 1.363 . S
C412 H415 0.929 . S
C413 C412 1.363 . S
C413 C419 1.428 . S
H414 C410 0.930 . S
H415 C412 0.929 . S
S416 N417 1.613 . S
S416 N418 1.610 . S
N417 S416 1.613 . S
N417 C420 1.350 . S
N418 S416 1.610 . S
N418 C419 1.351 . S
C419 C413 1.428 . S
C419 N418 1.351 . S
C419 C420 1.434 . S
C420 C411 1.429 . S
C420 N417 1.350 . S
C420 C419 1.434 . S
C421 C422 1.369 . S
C421 C423 1.419 . S
C421 H425 0.930 . S
C422 C421 1.369 . S
C422 C431 1.429 . S
C423 C421 1.419 . S
C423 C424 1.363 . S
C423 H426 0.929 . S
C424 C423 1.363 . S
C424 C430 1.428 . S
H425 C421 0.930 . S
H426 C423 0.929 . S
S427 N428 1.613 . S
S427 N429 1.610 . S
N428 S427 1.613 . S
N428 C431 1.350 . S
N429 S427 1.610 . S
N429 C430 1.351 . S
C430 C424 1.428 . S
C430 N429 1.351 . S
C430 C431 1.434 . S
C431 C422 1.429 . S
C431 N428 1.350 . S
C431 C430 1.434 . S
C169 C47 1.468 . S
C171 C5 1.467 . S
C180 C19 1.474 . S
C182 C61 1.466 . S
C191 C75 1.468 . S
C193 C33 1.467 . S
C202 C89 1.464 . S
C204 C131 1.472 . S
C213 C145 1.473 . S
C215 C103 1.465 . S
C224 C117 1.465 . S
C226 C159 1.474 . S
C235 C123 1.512 . S
C237 C11 1.512 . S
C246 C25 1.517 . S
C248 C137 1.514 . S
C257 C39 1.514 . S
C259 C151 1.511 . S
C268 C53 1.515 . S
C270 C165 1.511 . S
C279 C95 1.515 . S
C281 C67 1.515 . S
C290 C109 1.511 . S
C292 C81 1.515 . S
C301 C110 1.153 1_554 S
C303 C12 1.151 . S
C312 C26 1.154 . S
C314 C124 1.144 . S
C323 C40 1.149 . S
C325 C138 1.144 . S
C334 C54 1.156 1_556 S
C336 C152 1.152 . S
C345 C166 1.156 . S
C347 C68 1.146 . S
C356 C82 1.142 . S
C358 C96 1.151 . S
C367 C144 1.390 . S
C369 C4 1.391 . S
C378 C158 1.388 . S
C380 C18 1.390 . S
C389 C88 1.391 . S
C391 C32 1.389 . S
C400 C46 1.388 . S
C402 C102 1.387 . S
C411 C60 1.392 . S
C413 C116 1.390 . S
C422 C74 1.394 . S
C424 C130 1.393 . S
