# Generated by pormake.
# Topology lvt, (4)-cn, num edge types: 1
# Building blocks:
#     Node 0, Type 0, BuildingBlock: KOZSID_clean_sbu_0, # of connection points: 4
#     Node 1, Type 0, BuildingBlock: KOZSID_clean_sbu_0, # of connection points: 4
#     Node 2, Type 0, BuildingBlock: KOZSID_clean_sbu_0, # of connection points: 4
#     Node 3, Type 0, BuildingBlock: KOZSID_clean_sbu_0, # of connection points: 4
#     Node 4, Type 0, BuildingBlock: KOZSID_clean_sbu_0, # of connection points: 4
#     Node 5, Type 0, BuildingBlock: KOZSID_clean_sbu_0, # of connection points: 4
#     Node 6, Type 0, BuildingBlock: KOZSID_clean_sbu_0, # of connection points: 4
#     Node 7, Type 0, BuildingBlock: KOZSID_clean_sbu_0, # of connection points: 4
#     Edge 8, Type (0, 0), BuildingBlock: TEMPAE_clean_linker_10, # of connection points: 2
#     Edge 9, Type (0, 0), BuildingBlock: TEMPAE_clean_linker_10, # of connection points: 2
#     Edge 10, Type (0, 0), BuildingBlock: TEMPAE_clean_linker_10, # of connection points: 2
#     Edge 11, Type (0, 0), BuildingBlock: TEMPAE_clean_linker_10, # of connection points: 2
#     Edge 12, Type (0, 0), BuildingBlock: TEMPAE_clean_linker_10, # of connection points: 2
#     Edge 13, Type (0, 0), BuildingBlock: TEMPAE_clean_linker_10, # of connection points: 2
#     Edge 14, Type (0, 0), BuildingBlock: TEMPAE_clean_linker_10, # of connection points: 2
#     Edge 15, Type (0, 0), BuildingBlock: TEMPAE_clean_linker_10, # of connection points: 2
#     Edge 16, Type (0, 0), BuildingBlock: TEMPAE_clean_linker_10, # of connection points: 2
#     Edge 17, Type (0, 0), BuildingBlock: TEMPAE_clean_linker_10, # of connection points: 2
#     Edge 18, Type (0, 0), BuildingBlock: TEMPAE_clean_linker_10, # of connection points: 2
#     Edge 19, Type (0, 0), BuildingBlock: TEMPAE_clean_linker_10, # of connection points: 2
#     Edge 20, Type (0, 0), BuildingBlock: TEMPAE_clean_linker_10, # of connection points: 2
#     Edge 21, Type (0, 0), BuildingBlock: TEMPAE_clean_linker_10, # of connection points: 2
#     Edge 22, Type (0, 0), BuildingBlock: TEMPAE_clean_linker_10, # of connection points: 2
#     Edge 23, Type (0, 0), BuildingBlock: TEMPAE_clean_linker_10, # of connection points: 2
# Relax obj value: 0.003
# Max RMSD: 0.029
# Mean RMSD: 0.020
data_MOF--net-lvt--node1-KOZSID_clean_sbu_0--edge1-TEMPAE_clean_linker_10
_symmetry_space_group_name_H-M    P1
_symmetry_Int_Tables_number       1
_symmetry_cell_setting            triclinic
loop_
_symmetry_equiv_pos_as_xyz
'x, y, z'
_cell_length_a     43.617773
_cell_length_b     43.673468
_cell_length_c     40.008031
_cell_angle_alpha  83.481895
_cell_angle_beta   93.030812
_cell_angle_gamma 86.869243
loop_
_atom_site_label
_atom_site_type_symbol
_atom_site_fract_x
_atom_site_fract_y
_atom_site_fract_z
_atom_type_partial_charge
C0 C 0.05024 0.95149 0.52072 0.0
C1 C 0.06281 0.92589 0.5075 0.0
C2 C 0.05216 0.92832 0.47441 0.0
C3 C 0.03361 0.95504 0.46934 0.0
N4 N 0.03182 0.96954 0.49717 0.0
Co5 Co 0.007 0.00839 0.50113 0.0
N6 N 0.98164 0.00462 0.45911 0.0
C7 C 0.98853 0.98589 0.43567 0.0
C8 C 0.96704 0.98834 0.40907 0.0
C9 C 0.94547 0.01038 0.41583 0.0
C10 C 0.95517 0.02033 0.4462 0.0
N11 N 0.98238 0.04739 0.50519 0.0
C12 C 0.9559 0.05959 0.48833 0.0
C13 C 0.94735 0.0881 0.49841 0.0
C14 C 0.96949 0.09416 0.52187 0.0
C15 C 0.99026 0.06914 0.52487 0.0
N16 N 0.03251 0.01208 0.54298 0.0
C17 C 0.03535 0.03787 0.55806 0.0
C18 C 0.05475 0.0334 0.58658 0.0
C19 C 0.06483 0.00288 0.58957 0.0
C20 C 0.05089 0.99044 0.56263 0.0
N21 N 0.03625 0.03204 0.47443 0.0
C22 C 0.07777 0.06597 0.43585 0.0
C23 C 0.08836 0.04276 0.46169 0.0
C24 C 0.0673 0.02608 0.48057 0.0
C25 C 0.04593 0.07181 0.42996 0.0
C26 C 0.02571 0.05473 0.4494 0.0
N27 N 0.97782 0.98478 0.5278 0.0
C28 C 0.94822 0.97744 0.57704 0.0
C29 C 0.93746 0.94995 0.56712 0.0
C30 C 0.94726 0.9405 0.53685 0.0
C31 C 0.96736 0.95814 0.51767 0.0
C32 C 0.96824 0.99446 0.55708 0.0
H33 H 0.97465 0.95 0.49477 0.0
H34 H 0.97608 0.01541 0.5655 0.0
H35 H 0.0762 0.00828 0.5001 0.0
H36 H 1.00149 0.06006 0.44405 0.0
C37 C 0.01345 0.96406 0.44124 0.0
C38 C 0.05738 0.95877 0.55509 0.0
C39 C 0.94077 0.0473 0.45944 0.0
C40 C 0.01561 0.06394 0.54811 0.0
H41 H 0.07796 0.90731 0.52037 0.0
H42 H 0.0563 0.91181 0.45668 0.0
H43 H 0.96684 0.97538 0.38756 0.0
H44 H 0.92535 0.01884 0.39974 0.0
H45 H 0.92771 0.10345 0.48897 0.0
H46 H 0.97023 0.11431 0.53527 0.0
H47 H 0.06002 0.05 0.60386 0.0
H48 H 0.08072 0.99116 0.6092 0.0
H49 H 0.11275 0.03715 0.46702 0.0
H50 H 0.03655 0.0898 0.41068 0.0
H51 H 0.94103 0.98598 0.59994 0.0
H52 H 0.93992 0.91928 0.52824 0.0
C53 C 0.18874 0.78743 0.73467 0.0
C54 C 0.16042 0.79409 0.74741 0.0
C55 C 0.15546 0.76998 0.77112 0.0
C56 C 0.18091 0.75 0.77163 0.0
N57 N 0.20184 0.76022 0.75009 0.0
Co58 Co 0.2411 0.73761 0.74219 0.0
N59 N 0.23919 0.7092 0.78433 0.0
C60 C 0.21399 0.70388 0.80156 0.0
C61 C 0.21985 0.68299 0.82983 0.0
C62 C 0.25067 0.67465 0.83033 0.0
C63 C 0.26187 0.69107 0.80227 0.0
N64 N 0.28035 0.71492 0.73458 0.0
C65 C 0.29961 0.69637 0.7568 0.0
C66 C 0.32511 0.6857 0.74121 0.0
C67 C 0.32139 0.69783 0.70799 0.0
C68 C 0.29402 0.71527 0.70519 0.0
N69 N 0.24298 0.76571 0.6997 0.0
C70 C 0.26088 0.76081 0.67413 0.0
C71 C 0.25712 0.78389 0.64772 0.0
C72 C 0.23512 0.80436 0.65695 0.0
C73 C 0.22651 0.79247 0.68855 0.0
N74 N 0.26409 0.76601 0.76705 0.0
C75 C 0.29913 0.80438 0.80412 0.0
C76 C 0.30603 0.79933 0.77117 0.0
C77 C 0.28866 0.77981 0.75343 0.0
C78 C 0.27373 0.78997 0.81764 0.0
C79 C 0.25632 0.77145 0.79859 0.0
N80 N 0.21815 0.70911 0.71727 0.0
C81 C 0.17843 0.70064 0.67573 0.0
C82 C 0.18556 0.66874 0.68083 0.0
C83 C 0.20928 0.65745 0.70483 0.0
C84 C 0.22533 0.67798 0.72264 0.0
C85 C 0.19483 0.7203 0.69416 0.0
H86 H 0.24366 0.66863 0.74069 0.0
H87 H 0.18853 0.74462 0.68956 0.0
H88 H 0.29533 0.77577 0.72871 0.0
H89 H 0.23683 0.76109 0.80969 0.0
C90 C 0.18726 0.72314 0.79411 0.0
C91 C 0.20014 0.80526 0.70499 0.0
C92 C 0.29355 0.68752 0.79221 0.0
C93 C 0.28352 0.73652 0.67764 0.0
H94 H 0.14454 0.81383 0.73962 0.0
H95 H 0.13576 0.76746 0.78634 0.0
H96 H 0.20399 0.67576 0.84867 0.0
H97 H 0.26344 0.6584 0.84916 0.0
H98 H 0.34446 0.67091 0.7526 0.0
H99 H 0.33748 0.69542 0.68862 0.0
H100 H 0.26931 0.78592 0.62478 0.0
H101 H 0.22589 0.82525 0.64177 0.0
H102 H 0.3247 0.81034 0.75883 0.0
H103 H 0.26742 0.79235 0.84305 0.0
H104 H 0.15999 0.71042 0.65783 0.0
H105 H 0.21574 0.63297 0.70945 0.0
C106 C 0.45249 0.04661 0.00845 0.0
C107 C 0.43877 0.07385 0.99159 0.0
C108 C 0.45248 0.07877 0.96174 0.0
C109 C 0.47364 0.05433 0.96203 0.0
N110 N 0.47404 0.03387 0.9901 0.0
Co111 Co 0.50172 0.99549 1.0013 0.0
N112 N 0.52449 0.00473 0.95924 0.0
C113 C 0.51942 0.02957 0.9357 0.0
C114 C 0.53822 0.02934 0.90935 0.0
C115 C 0.55622 1.0026 0.91623 0.0
C116 C 0.54728 0.98801 0.94652 0.0
N117 N 0.52915 0.95688 0.01227 0.0
C118 C 0.55103 0.94438 0.99411 0.0
C119 C 0.5639 0.91652 0.01036 0.0
C120 C 0.54934 0.91096 0.03959 0.0
C121 C 0.52853 0.93565 0.03956 0.0
N122 N 0.47933 0.98658 0.04367 0.0
C123 C 0.48461 0.96194 0.06744 0.0
C124 C 0.46665 0.9628 0.09442 0.0
C125 C 0.44912 0.98986 0.08783 0.0
C126 C 0.45741 0.00392 0.05701 0.0
N127 N 0.47211 0.97179 0.97624 0.0
C128 C 0.43232 0.9364 0.93969 0.0
C129 C 0.44053 0.92798 0.97398 0.0
C130 C 0.46054 0.94547 0.99136 0.0
C131 C 0.44417 0.96336 0.92438 0.0
C132 C 0.46326 0.98075 0.94302 0.0
N133 N 0.53119 0.01918 0.02634 0.0
C134 C 0.56083 0.02613 0.07758 0.0
C135 C 0.56932 0.0552 0.06385 0.0
C136 C 0.55892 0.0653 0.03046 0.0
C137 C 0.53979 0.04736 0.01259 0.0
C138 C 0.54246 0.0085 0.05841 0.0
H139 H 0.53199 0.05699 0.98777 0.0
H140 H 0.53727 0.98648 0.0703 0.0
H141 H 0.4664 0.93701 0.017 0.0
H142 H 0.4708 1.00121 0.92975 0.0
C143 C 0.49528 0.0515 0.9379 0.0
C144 C 0.44495 0.0344 0.04227 0.0
C145 C 0.55988 0.95754 0.96112 0.0
C146 C 0.50753 0.93903 0.06422 0.0
H147 H 0.42113 0.08891 1.00033 0.0
H148 H 0.44826 0.09837 0.94261 0.0
H149 H 0.53819 0.04614 0.88726 0.0
H150 H 0.57343 0.99437 0.9003 0.0
H151 H 0.58167 0.90157 1.00169 0.0
H152 H 0.55311 0.89103 0.05837 0.0
H153 H 0.46684 0.94613 0.11664 0.0
H154 H 0.4326 0.99858 0.10423 0.0
H155 H 0.4316 0.90795 0.98775 0.0
H156 H 0.4393 0.97105 0.89787 0.0
H157 H 0.56769 0.01698 0.10332 0.0
H158 H 0.56536 0.08704 0.01785 0.0
C159 C 0.27186 0.29436 0.18892 0.0
C160 C 0.25972 0.30623 0.15697 0.0
C161 C 0.23804 0.28674 0.14786 0.0
C162 C 0.23805 0.26412 0.1746 0.0
N163 N 0.25801 0.26839 0.2003 0.0
Co164 Co 0.26608 0.2399 0.24274 0.0
N165 N 0.2279 0.21836 0.23463 0.0
C166 C 0.21177 0.21892 0.20495 0.0
C167 C 0.18624 0.20189 0.20724 0.0
C168 C 0.18639 0.18984 0.24045 0.0
C169 C 0.21205 0.20033 0.25657 0.0
N170 N 0.27389 0.21135 0.28506 0.0
C171 C 0.25413 0.19391 0.30274 0.0
C172 C 0.26891 0.17779 0.33154 0.0
C173 C 0.29903 0.18531 0.33162 0.0
C174 C 0.30092 0.20561 0.30307 0.0
N175 N 0.30452 0.26113 0.25094 0.0
C176 C 0.32804 0.25038 0.27314 0.0
C177 C 0.35184 0.26964 0.2732 0.0
C178 C 0.34307 0.29378 0.24911 0.0
C179 C 0.31437 0.28777 0.23545 0.0
N180 N 0.24313 0.26895 0.26738 0.0
C181 C 0.20835 0.30717 0.30473 0.0
C182 C 0.23816 0.29595 0.31628 0.0
C183 C 0.25505 0.27669 0.2974 0.0
C184 C 0.19657 0.29943 0.27378 0.0
C185 C 0.21443 0.28064 0.25535 0.0
N186 N 0.28895 0.21071 0.21799 0.0
C187 C 0.30031 0.15884 0.205 0.0
C188 C 0.32044 0.16963 0.18074 0.0
C189 C 0.32479 0.2013 0.176 0.0
C190 C 0.30901 0.2213 0.19482 0.0
C191 C 0.28472 0.17974 0.22325 0.0
H192 H 0.31305 0.24542 0.19035 0.0
H193 H 0.26905 0.17086 0.2414 0.0
H194 H 0.27755 0.26763 0.3074 0.0
H195 H 0.20476 0.27517 0.23158 0.0
C196 C 0.21792 0.24019 0.17766 0.0
C197 C 0.29937 0.30574 0.20509 0.0
C198 C 0.22176 0.1913 0.29211 0.0
C199 C 0.32551 0.224 0.29593 0.0
H200 H 0.26661 0.32627 0.14135 0.0
H201 H 0.22391 0.28889 0.12454 0.0
H202 H 0.16882 0.19965 0.18753 0.0
H203 H 0.16956 0.1751 0.25156 0.0
H204 H 0.25898 0.16243 0.35061 0.0
H205 H 0.31697 0.17806 0.35108 0.0
H206 H 0.37287 0.2667 0.28913 0.0
H207 H 0.35668 0.31315 0.24172 0.0
H208 H 0.24803 0.30134 0.34019 0.0
H209 H 0.17372 0.30794 0.26383 0.0
H210 H 0.29616 0.13453 0.20942 0.0
H211 H 0.34054 0.21064 0.15798 0.0
C212 C 0.77112 0.2131 0.32041 0.0
C213 C 0.7605 0.20158 0.35119 0.0
C214 C 0.73333 0.21761 0.35448 0.0
C215 C 0.72892 0.2379 0.32568 0.0
N216 N 0.75139 0.23558 0.30391 0.0
Co217 Co 0.75463 0.26185 0.25978 0.0
N218 N 0.71496 0.28587 0.26503 0.0
C219 C 0.69564 0.28063 0.29011 0.0
C220 C 0.66918 0.2994 0.286 0.0
C221 C 0.67146 0.31747 0.25623 0.0
C222 C 0.69941 0.30876 0.24395 0.0
N223 N 0.75878 0.28928 0.21663 0.0
C224 C 0.73975 0.3127 0.2008 0.0
C225 C 0.75177 0.3261 0.17158 0.0
C226 C 0.77912 0.31024 0.1685 0.0
C227 C 0.78234 0.28832 0.19602 0.0
N228 N 0.7935 0.23687 0.25373 0.0
C229 C 0.81097 0.23981 0.22675 0.0
C230 C 0.83611 0.21925 0.22945 0.0
C231 C 0.83466 0.20213 0.25999 0.0
C232 C 0.80857 0.21328 0.27424 0.0
N233 N 0.731 0.23261 0.23512 0.0
C234 C 0.69663 0.19208 0.19932 0.0
C235 C 0.71839 0.21034 0.18367 0.0
C236 C 0.73545 0.22972 0.20191 0.0
C237 C 0.69268 0.19451 0.23348 0.0
C238 C 0.70954 0.21497 0.25053 0.0
N239 N 0.77826 0.29096 0.28432 0.0
C240 C 0.82417 0.31873 0.29218 0.0
C241 C 0.81295 0.33053 0.3205 0.0
C242 C 0.78385 0.3224 0.33016 0.0
C243 C 0.76699 0.30287 0.3118 0.0
C244 C 0.80667 0.29915 0.27468 0.0
H245 H 0.74494 0.29759 0.3204 0.0
H246 H 0.81677 0.29067 0.2536 0.0
H247 H 0.752 0.24225 0.18831 0.0
H248 H 0.70469 0.216 0.27621 0.0
C249 C 0.70336 0.2585 0.31762 0.0
C250 C 0.79988 0.20166 0.30789 0.0
C251 C 0.70962 0.32216 0.21162 0.0
C252 C 0.80519 0.26433 0.20122 0.0
H253 H 0.77123 0.18337 0.36935 0.0
H254 H 0.71848 0.21472 0.3753 0.0
H255 H 0.65038 0.29976 0.30259 0.0
H256 H 0.6543 0.33484 0.24469 0.0
H257 H 0.74145 0.3449 0.15389 0.0
H258 H 0.7943 0.31359 0.14802 0.0
H259 H 0.85399 0.21764 0.21186 0.0
H260 H 0.85133 0.184 0.27087 0.0
H261 H 0.72223 0.2102 0.15719 0.0
H262 H 0.67677 0.18059 0.2474 0.0
H263 H 0.84672 0.32404 0.28386 0.0
H264 H 0.77395 0.33124 0.35168 0.0
C265 C 0.6968 0.72616 0.76688 0.0
C266 C 0.6676 0.72197 0.75314 0.0
C267 C 0.66366 0.74096 0.72357 0.0
C268 C 0.69033 0.75597 0.72107 0.0
N269 N 0.71132 0.7475 0.74705 0.0
Co270 Co 0.75153 0.76666 0.75516 0.0
N271 N 0.74504 0.79558 0.71225 0.0
C272 C 0.72099 0.79681 0.68929 0.0
C273 C 0.7238 0.81712 0.66107 0.0
C274 C 0.7516 0.82928 0.66594 0.0
C275 C 0.76411 0.81579 0.69713 0.0
N276 N 0.7911 0.78665 0.764 0.0
C277 C 0.80526 0.80859 0.74469 0.0
C278 C 0.83243 0.81608 0.76062 0.0
C279 C 0.83596 0.7977 0.79068 0.0
C280 C 0.81074 0.78029 0.79154 0.0
N281 N 0.7587 0.73695 0.7973 0.0
C282 C 0.784 0.734 0.81874 0.0
C283 C 0.78301 0.71097 0.84486 0.0
C284 C 0.7553 0.69859 0.84003 0.0
C285 C 0.74072 0.71512 0.81132 0.0
N286 N 0.77333 0.73638 0.72966 0.0
C287 C 0.80557 0.69609 0.69157 0.0
C288 C 0.81967 0.70636 0.72 0.0
C289 C 0.80319 0.726 0.73875 0.0
C290 C 0.77487 0.70576 0.68285 0.0
C291 C 0.75936 0.72595 0.70193 0.0
N292 N 0.72965 0.79684 0.78074 0.0
C293 C 0.72239 0.81872 0.83294 0.0
C294 C 0.69509 0.83484 0.81958 0.0
C295 C 0.6861 0.83251 0.78592 0.0
C296 C 0.70363 0.81371 0.7671 0.0
C297 C 0.73916 0.80012 0.81328 0.0
H298 H 0.69532 0.81274 0.74176 0.0
H299 H 0.75952 0.78825 0.82519 0.0
H300 H 0.81524 0.73263 0.76036 0.0
H301 H 0.73621 0.73306 0.69351 0.0
C302 C 0.69624 0.77834 0.69483 0.0
C303 C 0.70938 0.70994 0.79919 0.0
C304 C 0.79468 0.82195 0.71063 0.0
C305 C 0.80689 0.75513 0.81549 0.0
H306 H 0.65053 0.70717 0.76353 0.0
H307 H 0.6435 0.74393 0.70627 0.0
H308 H 0.70782 0.82203 0.63924 0.0
H309 H 0.76173 0.84575 0.64817 0.0
H310 H 0.84848 0.83249 0.75104 0.0
H311 H 0.85527 0.79627 0.80905 0.0
H312 H 0.80002 0.70452 0.86551 0.0
H313 H 0.74657 0.67991 0.85624 0.0
H314 H 0.84334 0.69905 0.72794 0.0
H315 H 0.76307 0.69838 0.6609 0.0
H316 H 0.73083 0.82031 0.8586 0.0
H317 H 0.66513 0.84444 0.77429 0.0
C318 C 0.45856 0.52465 0.94233 0.0
C319 C 0.44975 0.51394 0.9121 0.0
C320 C 0.4675 0.48755 0.9103 0.0
C321 C 0.48602 0.48364 0.93939 0.0
N322 N 0.48092 0.50566 0.95997 0.0
Co323 Co 0.50406 0.50965 0.00381 0.0
N324 N 0.53018 0.47076 1.0011 0.0
C325 C 0.52805 0.45171 0.97678 0.0
C326 C 0.54781 0.42594 0.98247 0.0
C327 C 0.56327 0.42839 0.01249 0.0
C328 C 0.55209 0.45574 0.0233 0.0
N329 N 0.5281 0.51438 0.04689 0.0
C330 C 0.55091 0.49578 0.06424 0.0
C331 C 0.56175 0.50806 0.0928 0.0
C332 C 0.54495 0.5352 0.09376 0.0
C333 C 0.52501 0.53802 0.06578 0.0
N334 N 0.47694 0.54769 0.0074 0.0
C335 C 0.47774 0.56557 0.03289 0.0
C336 C 0.45639 0.59011 0.0285 0.0
C337 C 0.44106 0.58789 0.99834 0.0
C338 C 0.45402 0.56199 0.986 0.0
N339 N 0.47427 0.4845 0.02929 0.0
C340 C 0.43351 0.44775 0.06668 0.0
C341 C 0.44564 0.47349 0.07911 0.0
C342 C 0.46569 0.49139 0.0602 0.0
C343 C 0.44191 0.44101 0.03491 0.0
C344 C 0.46212 0.45948 0.01683 0.0
N345 N 0.53387 0.53492 0.97826 0.0
C346 C 0.55722 0.58364 0.96493 0.0
C347 C 0.57381 0.57172 0.93999 0.0
C348 C 0.57056 0.54099 0.93479 0.0
C349 C 0.55037 0.52324 0.95377 0.0
C350 C 0.53792 0.56489 0.98396 0.0
H351 H 0.54832 0.50024 0.94785 0.0
H352 H 0.52644 0.57533 0.003 0.0
H353 H 0.47405 0.51065 0.0712 0.0
H354 H 0.46781 0.4529 0.99296 0.0
C355 C 0.50774 0.45909 0.94855 0.0
C356 C 0.44503 0.55301 0.953 0.0
C357 C 0.56253 0.46606 0.05518 0.0
C358 C 0.50098 0.56065 0.05862 0.0
H359 H 0.43233 0.5242 0.89326 0.0
H360 H 0.46696 0.47296 0.89017 0.0
H361 H 0.55054 0.40748 0.96675 0.0
H362 H 0.58062 0.41177 0.02513 0.0
H363 H 0.57957 0.49811 0.11133 0.0
H364 H 0.54641 0.55054 0.11315 0.0
H365 H 0.45313 0.60812 0.04468 0.0
H366 H 0.423 0.60404 0.98636 0.0
H367 H 0.43953 0.48005 0.10333 0.0
H368 H 0.43343 0.42117 0.02422 0.0
H369 H 0.55934 0.60732 0.96997 0.0
H370 H 0.58301 0.5309 0.91559 0.0
C371 C 0.05009 0.50401 0.55743 0.0
C372 C 0.06181 0.48893 0.58824 0.0
C373 C 0.04715 0.46213 0.5933 0.0
C374 C 0.02741 0.46237 0.56545 0.0
N375 N 0.02876 0.48755 0.54266 0.0
Co376 Co 0.00333 0.49761 0.49908 0.0
N377 N 0.97968 0.45962 0.50814 0.0
C378 C 0.98284 0.43862 0.53589 0.0
C379 C 0.96348 0.41502 0.53503 0.0
C380 C 0.94718 0.42105 0.50475 0.0
C381 C 0.95774 0.44801 0.48872 0.0
N382 N 0.97816 0.50744 0.45528 0.0
C383 C 0.95678 0.49098 0.44053 0.0
C384 C 0.94614 0.50543 0.40902 0.0
C385 C 0.96131 0.53186 0.40362 0.0
C386 C 0.98042 0.53202 0.43189 0.0
N387 N 0.02667 0.53586 0.4903 0.0
C388 C 0.02315 0.55722 0.46288 0.0
C389 C 0.04153 0.58153 0.46452 0.0
C390 C 0.05747 0.57564 0.49505 0.0
C391 C 0.0478 0.54797 0.51031 0.0
N392 N 0.03415 0.47366 0.47571 0.0
C393 C 0.07492 0.43835 0.44016 0.0
C394 C 0.06642 0.4693 0.42881 0.0
C395 C 0.0461 0.48624 0.44662 0.0
C396 C 0.06314 0.42573 0.47021 0.0
C397 C 0.0433 0.44368 0.48755 0.0
N398 N 0.97258 0.52156 0.5224 0.0
C399 C 0.94178 0.56879 0.52599 0.0
C400 C 0.93226 0.55752 0.55769 0.0
C401 C 0.94275 0.52748 0.57087 0.0
C402 C 0.96282 0.5102 0.55312 0.0
C403 C 0.96143 0.5505 0.50883 0.0
H404 H 0.97037 0.4878 0.56496 0.0
H405 H 0.96766 0.56051 0.48483 0.0
H406 H 0.04026 0.50941 0.43611 0.0
H407 H 0.03534 0.43259 0.51027 0.0
C408 C 0.00555 0.44069 0.56136 0.0
C409 C 0.05878 0.53462 0.54416 0.0
C410 C 0.94691 0.461 0.45464 0.0
C411 C 1.00152 0.5543 0.4366 0.0
H412 H 0.07863 0.49685 0.60564 0.0
H413 H 0.04982 0.44502 0.61522 0.0
H414 H 0.96192 0.39538 0.55384 0.0
H415 H 0.92985 0.4069 0.49526 0.0
H416 H 0.92958 0.49743 0.39139 0.0
H417 H 0.95919 0.54861 0.38138 0.0
H418 H 0.04273 0.60148 0.44602 0.0
H419 H 0.074 0.59029 0.50519 0.0
H420 H 0.07537 0.48063 0.4062 0.0
H421 H 0.06859 0.40184 0.48014 0.0
H422 H 0.93475 0.59195 0.51458 0.0
H423 H 0.9356 0.51718 0.5949 0.0
C424 C 0.09337 0.09148 0.38021 0.0
C425 C 0.09959 0.08405 0.41509 0.0
C426 C 0.11327 0.10902 0.36037 0.0
C427 C 0.14017 0.11949 0.37566 0.0
C428 C 0.1467 0.11198 0.41081 0.0
C429 C 0.12639 0.09435 0.43006 0.0
C430 C 0.10552 0.1163 0.32298 0.0
C431 C 0.17507 0.12274 0.42811 0.0
C432 C 0.20555 0.14076 0.31951 0.0
C433 C 0.20138 0.173 0.31426 0.0
C434 C 0.186 0.12309 0.33967 0.0
C435 C 0.16157 0.13807 0.35478 0.0
C436 C 0.15729 0.17073 0.34937 0.0
C437 C 0.17722 0.1878 0.32904 0.0
C438 C 0.19134 0.08839 0.34459 0.0
C439 C 0.13154 0.18762 0.36489 0.0
H440 H 0.073 0.08328 0.36827 0.0
H441 H 0.13125 0.08909 0.45701 0.0
H442 H 0.1035 0.14167 0.31592 0.0
H443 H 0.1243 0.10687 0.30874 0.0
H444 H 0.08366 0.10659 0.31496 0.0
H445 H 0.17695 0.1149 0.45559 0.0
H446 H 0.19597 0.11394 0.41673 0.0
H447 H 0.17472 0.14833 0.42442 0.0
H448 H 0.22409 0.1294 0.30763 0.0
H449 H 0.17395 0.21276 0.32462 0.0
H450 H 0.17077 0.07759 0.33484 0.0
H451 H 0.19486 0.08008 0.37184 0.0
H452 H 0.21162 0.08036 0.33156 0.0
H453 H 0.10905 0.18007 0.35572 0.0
H454 H 0.13171 0.21307 0.35882 0.0
H455 H 0.13341 0.18188 0.39269 0.0
C456 C 0.06691 0.9217 0.60758 0.0
C457 C 0.07818 0.93733 0.57875 0.0
C458 C 0.08633 0.90109 0.62991 0.0
C459 C 0.11769 0.89616 0.62313 0.0
C460 C 0.12922 0.91256 0.59431 0.0
C461 C 0.10933 0.9331 0.57257 0.0
C462 C 0.07319 0.88419 0.66041 0.0
C463 C 0.16242 0.90797 0.58608 0.0
C464 C 0.17612 0.85924 0.69236 0.0
C465 C 0.17864 0.82876 0.68474 0.0
C466 C 0.15601 0.88143 0.67282 0.0
C467 C 0.13814 0.87278 0.64514 0.0
C468 C 0.14044 0.84179 0.63779 0.0
C469 C 0.16058 0.82015 0.65778 0.0
C470 C 0.15411 0.91417 0.68155 0.0
C471 C 0.12192 0.83156 0.60854 0.0
H472 H 0.04284 0.92539 0.61241 0.0
H473 H 0.11799 0.94567 0.55043 0.0
H474 H 0.07472 0.85899 0.65863 0.0
H475 H 0.08679 0.88804 0.68362 0.0
H476 H 0.04875 0.89169 0.66296 0.0
H477 H 0.16797 0.92321 0.56332 0.0
H478 H 0.17782 0.91265 0.60764 0.0
H479 H 0.16752 0.88361 0.58177 0.0
H480 H 0.19003 0.86567 0.71342 0.0
H481 H 0.16248 0.79641 0.65221 0.0
H482 H 0.12997 0.92141 0.6857 0.0
H483 H 0.1615 0.93003 0.66022 0.0
H484 H 0.16873 0.91694 0.70447 0.0
H485 H 0.09702 0.83658 0.61122 0.0
H486 H 0.12597 0.80651 0.6066 0.0
H487 H 0.12792 0.84469 0.58462 0.0
C488 C 0.39327 0.93062 0.89194 0.0
C489 C 0.41199 0.91716 0.92011 0.0
C490 C 0.37506 0.91269 0.87268 0.0
C491 C 0.37433 0.88058 0.88249 0.0
C492 C 0.39237 0.86687 0.91131 0.0
C493 C 0.4114 0.88511 0.92925 0.0
C494 C 0.35686 0.9281 0.84155 0.0
C495 C 0.39162 0.83286 0.92324 0.0
C496 C 0.30562 0.84029 0.84919 0.0
C497 C 0.31838 0.82416 0.8242 0.0
C498 C 0.32363 0.85817 0.86873 0.0
C499 C 0.355 0.86123 0.86236 0.0
C500 C 0.36796 0.84568 0.83681 0.0
C501 C 0.34977 0.82689 0.81864 0.0
C502 C 0.30912 0.8736 0.89644 0.0
C503 C 0.4011 0.84897 0.82852 0.0
H504 H 0.39263 0.95531 0.88477 0.0
H505 H 0.42608 0.87394 0.95027 0.0
H506 H 0.36303 0.91654 0.81931 0.0
H507 H 0.33192 0.92581 0.84441 0.0
H508 H 0.36101 0.95302 0.83641 0.0
H509 H 0.40515 0.82619 0.94754 0.0
H510 H 0.36752 0.82664 0.9264 0.0
H511 H 0.40103 0.81903 0.90412 0.0
H512 H 0.28141 0.83922 0.85355 0.0
H513 H 0.36047 0.81414 0.80024 0.0
H514 H 0.30949 0.89904 0.89097 0.0
H515 H 0.32254 0.86674 0.92074 0.0
H516 H 0.28493 0.86756 0.89949 0.0
H517 H 0.4056 0.87376 0.8231 0.0
H518 H 0.40715 0.83705 0.80646 0.0
H519 H 0.41659 0.83923 0.85046 0.0
C520 C 0.35129 0.12024 0.17548 0.0
C521 C 0.33691 0.14827 0.16031 0.0
C522 C 0.36833 0.10081 0.15661 0.0
C523 C 0.37085 0.1095 0.12169 0.0
C524 C 0.35578 0.13743 0.10612 0.0
C525 C 0.33908 0.15647 0.1256 0.0
C526 C 0.38419 0.07129 0.17417 0.0
C527 C 0.35763 0.14741 0.06891 0.0
C528 C 0.43899 0.07698 0.07849 0.0
C529 C 0.4258 0.05366 0.06244 0.0
C530 C 0.42142 0.09516 0.09812 0.0
C531 C 0.3899 0.08988 0.10154 0.0
C532 C 0.37652 0.06627 0.08519 0.0
C533 C 0.3947 0.04838 0.06581 0.0
C534 C 0.43658 0.12003 0.11514 0.0
C535 C 0.34302 0.06 0.08808 0.0
H536 H 0.34993 0.11391 0.20233 0.0
H537 H 0.32763 0.17787 0.11361 0.0
H538 H 0.37692 0.0513 0.16157 0.0
H539 H 0.40944 0.07211 0.17241 0.0
H540 H 0.37914 0.06732 0.20119 0.0
H541 H 0.34378 0.16928 0.06044 0.0
H542 H 0.38191 0.15068 0.06311 0.0
H543 H 0.3494 0.12917 0.05408 0.0
H544 H 0.46313 0.08085 0.07577 0.0
H545 H 0.3847 0.03024 0.05326 0.0
H546 H 0.43416 0.1161 0.14274 0.0
H547 H 0.42498 0.14291 0.10595 0.0
H548 H 0.46141 0.1208 0.11043 0.0
H549 H 0.33817 0.05433 0.11494 0.0
H550 H 0.33622 0.04067 0.07403 0.0
H551 H 0.3284 0.081 0.07819 0.0
C552 C 0.89164 0.91733 0.57324 0.0
C553 C 0.91634 0.9312 0.58826 0.0
C554 C 0.87167 0.89957 0.59283 0.0
C555 C 0.87641 0.89543 0.62841 0.0
C556 C 0.90129 0.90932 0.64375 0.0
C557 C 0.92088 0.927 0.62355 0.0
C558 C 0.84538 0.8853 0.57543 0.0
C559 C 0.90731 0.90539 0.68154 0.0
C560 C 0.8092 0.87274 0.68149 0.0
C561 C 0.81551 0.84088 0.68945 0.0
C562 C 0.82874 0.89075 0.6616 0.0
C563 C 0.85537 0.87657 0.64957 0.0
C564 C 0.86187 0.84434 0.65782 0.0
C565 C 0.84186 0.82691 0.67766 0.0
C566 C 0.82089 0.92496 0.65343 0.0
C567 C 0.88998 0.82826 0.64568 0.0
H568 H 0.88763 0.9207 0.54607 0.0
H569 H 0.94011 0.93719 0.63545 0.0
H570 H 0.84731 0.85986 0.5819 0.0
H571 H 0.82319 0.89384 0.58435 0.0
H572 H 0.84482 0.89063 0.54757 0.0
H573 H 0.92756 0.9177 0.68961 0.0
H574 H 0.88688 0.9142 0.69372 0.0
H575 H 0.91131 0.88052 0.69093 0.0
H576 H 0.7889 0.88351 0.69087 0.0
H577 H 0.84672 0.80225 0.68397 0.0
H578 H 0.81832 0.93115 0.62571 0.0
H579 H 0.83987 0.9381 0.66304 0.0
H580 H 0.79928 0.93242 0.66452 0.0
H581 H 0.88928 0.83151 0.61774 0.0
H582 H 0.89182 0.80312 0.65438 0.0
H583 H 0.91104 0.83862 0.65488 0.0
C584 C 0.92984 0.08543 0.40826 0.0
C585 C 0.91896 0.06848 0.43658 0.0
C586 C 0.91021 0.10654 0.38693 0.0
C587 C 0.87897 0.11094 0.39425 0.0
C588 C 0.86787 0.09371 0.42286 0.0
C589 C 0.88808 0.07265 0.44377 0.0
C590 C 0.92302 0.1244 0.35679 0.0
C591 C 0.83477 0.0978 0.43155 0.0
C592 C 0.83681 0.187 0.35783 0.0
C593 C 0.82037 0.17837 0.32976 0.0
C594 C 0.85572 0.16522 0.37924 0.0
C595 C 0.8582 0.13408 0.37232 0.0
C596 C 0.84146 0.12531 0.34395 0.0
C597 C 0.82267 0.14761 0.32301 0.0
C598 C 0.87318 0.17554 0.40916 0.0
C599 C 0.84352 0.09243 0.33565 0.0
H600 H 0.95388 0.0823 0.40302 0.0
H601 H 0.87988 0.05962 0.46588 0.0
H602 H 0.90971 0.12054 0.33339 0.0
H603 H 0.92073 0.14949 0.35905 0.0
H604 H 0.94764 0.1177 0.35417 0.0
H605 H 0.82959 0.08221 0.4542 0.0
H606 H 0.82946 0.12202 0.43626 0.0
H607 H 0.81925 0.09323 0.41004 0.0
H608 H 0.83479 0.21085 0.36298 0.0
H609 H 0.80968 0.14106 0.30135 0.0
H610 H 0.89827 0.17131 0.40697 0.0
H611 H 0.86711 0.16189 0.43272 0.0
H612 H 0.8683 0.20044 0.41138 0.0
H613 H 0.86766 0.08542 0.33122 0.0
H614 H 0.82874 0.08929 0.31296 0.0
H615 H 0.83654 0.07665 0.35727 0.0
C616 C 0.64831 0.16406 0.18887 0.0
C617 C 0.67821 0.17098 0.18013 0.0
C618 C 0.63085 0.14441 0.17104 0.0
C619 C 0.64292 0.13218 0.14284 0.0
C620 C 0.67282 0.13922 0.13357 0.0
C621 C 0.69027 0.15791 0.15265 0.0
C622 C 0.59938 0.1368 0.18237 0.0
C623 C 0.68629 0.12734 0.10314 0.0
C624 C 0.60972 0.06156 0.11006 0.0
C625 C 0.58841 0.07493 0.08414 0.0
C626 C 0.62706 0.07986 0.12977 0.0
C627 C 0.62409 0.11242 0.12271 0.0
C628 C 0.60319 0.12614 0.09629 0.0
C629 C 0.58523 0.10735 0.07787 0.0
C630 C 0.64847 0.0643 0.15834 0.0
C631 C 0.59987 0.16075 0.08731 0.0
H632 H 0.63817 0.17428 0.20943 0.0
H633 H 0.71349 0.16213 0.1459 0.0
H634 H 0.5815 0.14633 0.16264 0.0
H635 H 0.59765 0.11139 0.1861 0.0
H636 H 0.59423 0.14626 0.20622 0.0
H637 H 0.70938 0.1359 0.09846 0.0
H638 H 0.6883 0.10175 0.10656 0.0
H639 H 0.67077 0.13457 0.0804 0.0
H640 H 0.61315 0.03669 0.11499 0.0
H641 H 0.56846 0.11833 0.05871 0.0
H642 H 0.64307 0.07355 0.18221 0.0
H643 H 0.67258 0.06934 0.15348 0.0
H644 H 0.64685 0.03885 0.16184 0.0
H645 H 0.59118 0.17187 0.10882 0.0
H646 H 0.58387 0.16774 0.06487 0.0
H647 H 0.62264 0.1698 0.08215 0.0
C648 C 0.61155 0.94434 0.94038 0.0
C649 C 0.58024 0.9391 0.9413 0.0
C650 C 0.63081 0.92763 0.92092 0.0
C651 C 0.61831 0.90527 0.90193 0.0
C652 C 0.5866 0.8999 0.90302 0.0
C653 C 0.56793 0.91689 0.92278 0.0
C654 C 0.66447 0.93397 0.92056 0.0
C655 C 0.57234 0.87637 0.88312 0.0
C656 C 0.66097 0.88166 0.8273 0.0
C657 C 0.67584 0.85328 0.84079 0.0
C658 C 0.64227 0.89884 0.8469 0.0
C659 C 0.63839 0.88749 0.88092 0.0
C660 C 0.65347 0.85899 0.89477 0.0
C661 C 0.6719 0.84223 0.87456 0.0
C662 C 0.62656 0.92911 0.83117 0.0
C663 C 0.64993 0.84607 0.93091 0.0
H664 H 0.62085 0.96164 0.95479 0.0
H665 H 0.54361 0.91307 0.92358 0.0
H666 H 0.67877 0.91245 0.92921 0.0
H667 H 0.67043 0.94173 0.89447 0.0
H668 H 0.67061 0.9519 0.93693 0.0
H669 H 0.54737 0.87491 0.88679 0.0
H670 H 0.57549 0.88239 0.85587 0.0
H671 H 0.58405 0.85325 0.8907 0.0
H672 H 0.66414 0.89063 0.80141 0.0
H673 H 0.68282 0.82011 0.88512 0.0
H674 H 0.63373 0.94811 0.84548 0.0
H675 H 0.60127 0.92822 0.83243 0.0
H676 H 0.63192 0.93476 0.80442 0.0
H677 H 0.65721 0.86289 0.9481 0.0
H678 H 0.66368 0.82391 0.93809 0.0
H679 H 0.62539 0.8422 0.93487 0.0
C680 C 0.62574 0.58393 0.92003 0.0
C681 C 0.59405 0.59141 0.91929 0.0
C682 C 0.64522 0.60287 0.90111 0.0
C683 C 0.63255 0.62942 0.88019 0.0
C684 C 0.6004 0.63669 0.87897 0.0
C685 C 0.58161 0.61785 0.89892 0.0
C686 C 0.67941 0.59471 0.90387 0.0
C687 C 0.58579 0.66426 0.8564 0.0
C688 C 0.68275 0.69541 0.8524 0.0
C689 C 0.69012 0.68886 0.82018 0.0
C690 C 0.66464 0.67592 0.87248 0.0
C691 C 0.65287 0.64967 0.85966 0.0
C692 C 0.66022 0.64304 0.82704 0.0
C693 C 0.67921 0.6624 0.80797 0.0
C694 C 0.6581 0.68343 0.90742 0.0
C695 C 0.64761 0.61578 0.81204 0.0
H696 H 0.63533 0.56356 0.93597 0.0
H697 H 0.55705 0.62349 0.89823 0.0
H698 H 0.6875 0.59062 0.87885 0.0
H699 H 0.69185 0.61428 0.91219 0.0
H700 H 0.68571 0.57379 0.92193 0.0
H701 H 0.56035 0.66604 0.85732 0.0
H702 H 0.59499 0.68579 0.86396 0.0
H703 H 0.59165 0.66274 0.82995 0.0
H704 H 0.69128 0.71582 0.8619 0.0
H705 H 0.68517 0.65715 0.78319 0.0
H706 H 0.66519 0.66329 0.92624 0.0
H707 H 0.63305 0.68832 0.90908 0.0
H708 H 0.67028 0.70371 0.91431 0.0
H709 H 0.65543 0.59404 0.82801 0.0
H710 H 0.65489 0.61421 0.78607 0.0
H711 H 0.6221 0.61756 0.81136 0.0
C712 C 0.67393 0.33394 0.16022 0.0
C713 C 0.6885 0.34396 0.18866 0.0
C714 C 0.65363 0.35404 0.13844 0.0
C715 C 0.6479 0.38492 0.14529 0.0
C716 C 0.66286 0.39514 0.17397 0.0
C717 C 0.68301 0.37448 0.19535 0.0
C718 C 0.63815 0.3422 0.10821 0.0
C719 C 0.65749 0.42784 0.1821 0.0
C720 C 0.61591 0.44401 0.07272 0.0
C721 C 0.5846 0.44593 0.07874 0.0
C722 C 0.63686 0.42446 0.09435 0.0
C723 C 0.6261 0.4064 0.12256 0.0
C724 C 0.5944 0.40855 0.12877 0.0
C725 C 0.57401 0.42838 0.10677 0.0
C726 C 0.67044 0.42295 0.0869 0.0
C727 C 0.58197 0.38965 0.15844 0.0
H728 H 0.67834 0.31026 0.15521 0.0
H729 H 0.69447 0.38209 0.21739 0.0
H730 H 0.61281 0.34438 0.10967 0.0
H731 H 0.64379 0.35633 0.08477 0.0
H732 H 0.64522 0.31765 0.10633 0.0
H733 H 0.67112 0.43224 0.20513 0.0
H734 H 0.66364 0.44433 0.16067 0.0
H735 H 0.63275 0.43269 0.18585 0.0
H736 H 0.62391 0.45771 0.05094 0.0
H737 H 0.5497 0.43 0.11122 0.0
H738 H 0.67794 0.39909 0.08266 0.0
H739 H 0.68462 0.42886 0.10884 0.0
H740 H 0.67517 0.4389 0.06436 0.0
H741 H 0.5866 0.36469 0.15652 0.0
H742 H 0.55681 0.39428 0.15998 0.0
H743 H 0.59383 0.39469 0.18224 0.0
C744 C 0.84811 0.37407 0.32325 0.0
C745 C 0.83169 0.35078 0.33998 0.0
C746 C 0.8665 0.3928 0.34128 0.0
C747 C 0.86871 0.38808 0.37697 0.0
C748 C 0.85204 0.36476 0.39402 0.0
C749 C 0.83369 0.34648 0.37536 0.0
C750 C 0.88371 0.41754 0.32213 0.0
C751 C 0.85394 0.35882 0.43202 0.0
C752 C 0.93886 0.4155 0.42311 0.0
C753 C 0.92694 0.44287 0.43392 0.0
C754 C 0.92019 0.39748 0.40452 0.0
C755 C 0.88887 0.40719 0.39644 0.0
C756 C 0.87682 0.43501 0.4072 0.0
C757 C 0.896 0.45245 0.42598 0.0
C758 C 0.93393 0.36794 0.39374 0.0
C759 C 0.84365 0.44625 0.39901 0.0
H760 H 0.8464 0.37783 0.29595 0.0
H761 H 0.82141 0.3283 0.38849 0.0
H762 H 0.87717 0.4404 0.33011 0.0
H763 H 0.90881 0.41309 0.32799 0.0
H764 H 0.87908 0.4187 0.29443 0.0
H765 H 0.83923 0.34013 0.44148 0.0
H766 H 0.87808 0.35231 0.44138 0.0
H767 H 0.84678 0.38017 0.44289 0.0
H768 H 0.96281 0.40814 0.42946 0.0
H769 H 0.88684 0.47356 0.43463 0.0
H770 H 0.93155 0.36881 0.3659 0.0
H771 H 0.9213 0.34808 0.40439 0.0
H772 H 0.95867 0.36367 0.40201 0.0
H773 H 0.83858 0.44902 0.37132 0.0
H774 H 0.83802 0.46865 0.40863 0.0
H775 H 0.82829 0.42892 0.41014 0.0
C776 C 0.85176 0.68382 0.65991 0.0
C777 C 0.82302 0.67574 0.67101 0.0
C778 C 0.86881 0.66473 0.64076 0.0
C779 C 0.85712 0.63654 0.6331 0.0
C780 C 0.82808 0.62826 0.64431 0.0
C781 C 0.81123 0.64814 0.66284 0.0
C782 C 0.89934 0.67474 0.62871 0.0
C783 C 0.81509 0.59815 0.63725 0.0
C784 C 0.88962 0.59852 0.56038 0.0
C785 C 0.91218 0.57712 0.57708 0.0
C786 C 0.87155 0.61796 0.57824 0.0
C787 C 0.87555 0.61556 0.61381 0.0
C788 C 0.89771 0.5936 0.63093 0.0
C789 C 0.91595 0.57495 0.6124 0.0
C790 C 0.84846 0.64137 0.55899 0.0
C791 C 0.90243 0.59002 0.66888 0.0
H792 H 0.86076 0.70532 0.66594 0.0
H793 H 0.7891 0.64177 0.67163 0.0
H794 H 0.91806 0.65777 0.63964 0.0
H795 H 0.89932 0.67545 0.6009 0.0
H796 H 0.90463 0.69786 0.63574 0.0
H797 H 0.7922 0.59513 0.64768 0.0
H798 H 0.81285 0.59696 0.6097 0.0
H799 H 0.83106 0.57855 0.64838 0.0
H800 H 0.88596 0.60013 0.53323 0.0
H801 H 0.9336 0.55903 0.6257 0.0
H802 H 0.85379 0.66497 0.56428 0.0
H803 H 0.82504 0.63736 0.5674 0.0
H804 H 0.84826 0.64048 0.53134 0.0
H805 H 0.91074 0.61162 0.67727 0.0
H806 H 0.91932 0.57066 0.67851 0.0
H807 H 0.88027 0.5859 0.68051 0.0
C808 C 0.38686 0.4162 0.07139 0.0
C809 C 0.41265 0.42792 0.08689 0.0
C810 C 0.36732 0.39718 0.09013 0.0
C811 C 0.37367 0.38955 0.12528 0.0
C812 C 0.39952 0.40148 0.14112 0.0
C813 C 0.41862 0.42048 0.1218 0.0
C814 C 0.33998 0.38504 0.07225 0.0
C815 C 0.4073 0.39374 0.17846 0.0
C816 C 0.31052 0.35939 0.18063 0.0
C817 C 0.31797 0.32757 0.18442 0.0
C818 C 0.32827 0.37989 0.16122 0.0
C819 C 0.35402 0.36818 0.14531 0.0
C820 C 0.36131 0.33591 0.14891 0.0
C821 C 0.34313 0.31602 0.16829 0.0
C822 C 0.31962 0.41407 0.15788 0.0
C823 C 0.38848 0.32237 0.13248 0.0
H824 H 0.38178 0.42211 0.04455 0.0
H825 H 0.43869 0.42901 0.13399 0.0
H826 H 0.34219 0.35944 0.07485 0.0
H827 H 0.31854 0.39177 0.08402 0.0
H828 H 0.33768 0.39379 0.04501 0.0
H829 H 0.42767 0.40554 0.18715 0.0
H830 H 0.38744 0.40043 0.19285 0.0
H831 H 0.41204 0.36844 0.18457 0.0
H832 H 0.29091 0.36818 0.19298 0.0
H833 H 0.34863 0.29132 0.17106 0.0
H834 H 0.31557 0.4232 0.13089 0.0
H835 H 0.33883 0.42643 0.16829 0.0
H836 H 0.29863 0.41943 0.17122 0.0
H837 H 0.38607 0.32896 0.10482 0.0
H838 H 0.39089 0.29678 0.13753 0.0
H839 H 0.40997 0.33184 0.14187 0.0
C840 C 0.32367 0.63751 0.81071 0.0
C841 C 0.3168 0.6684 0.81523 0.0
C842 C 0.34474 0.61881 0.83301 0.0
C843 C 0.35902 0.6313 0.86064 0.0
C844 C 0.35192 0.66254 0.86533 0.0
C845 C 0.33076 0.68071 0.84257 0.0
C846 C 0.35157 0.58565 0.82713 0.0
C847 C 0.36655 0.6767 0.89449 0.0
C848 C 0.39161 0.57511 0.93548 0.0
C849 C 0.42297 0.57337 0.9296 0.0
C850 C 0.37055 0.59407 0.91339 0.0
C851 C 0.38119 0.61157 0.88472 0.0
C852 C 0.41296 0.60981 0.8788 0.0
C853 C 0.43348 0.59069 0.90136 0.0
C854 C 0.33691 0.59526 0.9206 0.0
C855 C 0.42523 0.628 0.84855 0.0
H856 H 0.31235 0.62797 0.78978 0.0
H857 H 0.32502 0.70455 0.84614 0.0
H858 H 0.37657 0.58132 0.82446 0.0
H859 H 0.34527 0.56997 0.84917 0.0
H860 H 0.33886 0.57962 0.80421 0.0
H861 H 0.3588 0.70137 0.89441 0.0
H862 H 0.36087 0.6638 0.91866 0.0
H863 H 0.39196 0.67496 0.89354 0.0
H864 H 0.38363 0.56153 0.95736 0.0
H865 H 0.45781 0.58919 0.89696 0.0
H866 H 0.32318 0.58739 0.89941 0.0
H867 H 0.32862 0.61939 0.92276 0.0
H868 H 0.33245 0.58063 0.94421 0.0
H869 H 0.41425 0.62123 0.82506 0.0
H870 H 0.45058 0.62433 0.84777 0.0
H871 H 0.41937 0.653 0.84885 0.0
C872 C 0.15805 0.61999 0.67698 0.0
C873 C 0.16824 0.64761 0.66113 0.0
C874 C 0.14061 0.60055 0.65881 0.0
C875 C 0.13336 0.60879 0.62389 0.0
C876 C 0.14403 0.63638 0.60766 0.0
C877 C 0.16124 0.65545 0.62646 0.0
C878 C 0.12949 0.57145 0.67709 0.0
C879 C 0.13707 0.64589 0.57044 0.0
C880 C 0.10985 0.54715 0.56902 0.0
C881 C 0.0779 0.55283 0.56553 0.0
C882 C 0.12821 0.56496 0.58827 0.0
C883 C 0.11415 0.58892 0.60437 0.0
C884 C 0.08174 0.59443 0.60107 0.0
C885 C 0.064 0.57634 0.58156 0.0
C886 C 0.16264 0.55842 0.591 0.0
C887 C 0.06582 0.61966 0.61783 0.0
H888 H 0.16309 0.61393 0.70381 0.0
H889 H 0.1694 0.67652 0.61393 0.0
H890 H 0.10398 0.57244 0.67541 0.0
H891 H 0.13754 0.55109 0.66497 0.0
H892 H 0.13766 0.56795 0.70411 0.0
H893 H 0.14762 0.66768 0.56146 0.0
H894 H 0.14567 0.62743 0.55581 0.0
H895 H 0.11182 0.64911 0.56493 0.0
H896 H 0.12044 0.52896 0.55638 0.0
H897 H 0.03922 0.58062 0.57864 0.0
H898 H 0.17092 0.55343 0.61787 0.0
H899 H 0.17407 0.57909 0.58028 0.0
H900 H 0.1699 0.53857 0.57758 0.0
H901 H 0.07181 0.61628 0.64535 0.0
H902 H 0.0404 0.62032 0.61366 0.0
H903 H 0.07385 0.64241 0.6079 0.0
C904 C 0.20091 0.35278 0.3369 0.0
C905 C 0.18939 0.3264 0.32509 0.0
C906 C 0.1829 0.37143 0.35568 0.0
C907 C 0.15292 0.3631 0.36347 0.0
C908 C 0.14142 0.33616 0.35205 0.0
C909 C 0.15967 0.31832 0.3327 0.0
C910 C 0.19578 0.40029 0.36678 0.0
C911 C 0.10986 0.32609 0.36038 0.0
C912 C 0.11637 0.39622 0.43708 0.0
C913 C 0.09542 0.41936 0.42056 0.0
C914 C 0.13509 0.37769 0.41887 0.0
C915 C 0.13341 0.38274 0.38321 0.0
C916 C 0.11276 0.40633 0.36635 0.0
C917 C 0.09383 0.42405 0.38515 0.0
C918 C 0.15651 0.3525 0.4378 0.0
C919 C 0.11052 0.41274 0.32838 0.0
H920 H 0.22382 0.35913 0.33083 0.0
H921 H 0.15087 0.29773 0.32387 0.0
H922 H 0.18067 0.42078 0.35635 0.0
H923 H 0.19634 0.39924 0.39463 0.0
H924 H 0.2194 0.40364 0.35849 0.0
H925 H 0.10474 0.304 0.35057 0.0
H926 H 0.10798 0.32322 0.3881 0.0
H927 H 0.09207 0.3441 0.34953 0.0
H928 H 0.11834 0.39262 0.46436 0.0
H929 H 0.07741 0.44134 0.37191 0.0
H930 H 0.18064 0.35655 0.432 0.0
H931 H 0.15124 0.32984 0.42957 0.0
H932 H 0.1547 0.35115 0.46552 0.0
H933 H 0.13353 0.41725 0.31901 0.0
H934 H 0.09439 0.43286 0.31916 0.0
H935 H 0.10257 0.39222 0.31724 0.0
loop_
_geom_bond_atom_site_label_1
_geom_bond_atom_site_label_2
_geom_bond_distance
_geom_bond_site_symmetry_2
_ccdc_geom_bond_type
C0 C1 1.443 . S
C0 N4 1.376 . S
C0 C38 1.389 . S
C1 C0 1.443 . S
C1 C2 1.340 . S
C1 H41 0.951 . S
C2 C1 1.340 . S
C2 C3 1.439 . S
C2 H42 0.950 . S
C3 C2 1.439 . S
C3 N4 1.374 . S
C3 C37 1.395 1_455 S
N4 C0 1.376 . S
N4 C3 1.374 . S
N4 Co5 2.003 1_565 S
Co5 N4 2.003 1_545 S
Co5 N6 1.994 1_445 S
Co5 N11 2.013 1_455 S
Co5 N16 1.992 . S
Co5 N21 2.285 . S
Co5 N27 2.280 1_445 S
N6 Co5 1.994 1_665 S
N6 C7 1.377 . S
N6 C10 1.382 1_565 S
C7 N6 1.377 . S
C7 C8 1.446 . S
C7 C37 1.391 . S
C8 C7 1.446 . S
C8 C9 1.339 1_565 S
C8 H43 0.949 . S
C9 C8 1.339 1_545 S
C9 C10 1.439 . S
C9 H44 0.950 . S
C10 N6 1.382 1_545 S
C10 C9 1.439 . S
C10 C39 1.392 . S
N11 Co5 2.013 1_655 S
N11 C12 1.376 . S
N11 C15 1.374 . S
C12 N11 1.376 . S
C12 C13 1.443 . S
C12 C39 1.389 . S
C13 C12 1.443 . S
C13 C14 1.340 . S
C13 H45 0.951 . S
C14 C13 1.340 . S
C14 C15 1.439 . S
C14 H46 0.950 . S
C15 N11 1.374 . S
C15 C14 1.439 . S
C15 C40 1.395 1_655 S
N16 Co5 1.992 . S
N16 C17 1.393 . S
N16 C20 1.368 1_545 S
C17 N16 1.393 . S
C17 C18 1.446 . S
C17 C40 1.391 . S
C18 C17 1.446 . S
C18 C19 1.339 1_545 S
C18 H47 0.949 . S
C19 C18 1.339 1_565 S
C19 C20 1.439 . S
C19 H48 0.950 . S
C20 N16 1.368 1_565 S
C20 C19 1.439 . S
C20 C38 1.392 . S
N21 Co5 2.285 . S
N21 C24 1.332 . S
N21 C26 1.332 . S
C22 C23 1.386 . S
C22 C25 1.388 . S
C23 C22 1.386 . S
C23 C24 1.382 . S
C23 H49 0.950 . S
C24 N21 1.332 . S
C24 C23 1.382 . S
C24 H35 0.952 . S
C25 C22 1.388 . S
C25 C26 1.382 . S
C25 H50 0.950 . S
C26 N21 1.332 . S
C26 C25 1.382 . S
C26 H36 0.948 . S
N27 Co5 2.280 1_665 S
N27 C31 1.332 . S
N27 C32 1.332 . S
C28 C29 1.388 . S
C28 C32 1.382 . S
C28 H51 0.950 . S
C29 C28 1.388 . S
C29 C30 1.386 . S
C30 C29 1.386 . S
C30 C31 1.382 . S
C30 H52 0.950 . S
C31 N27 1.332 . S
C31 C30 1.382 . S
C31 H33 0.952 . S
C32 N27 1.332 . S
C32 C28 1.382 . S
C32 H34 0.948 . S
H33 C31 0.952 . S
H34 C32 0.948 . S
H35 C24 0.952 . S
H36 C26 0.948 . S
C37 C3 1.395 1_655 S
C37 C7 1.391 . S
C38 C0 1.389 . S
C38 C20 1.392 . S
C39 C10 1.392 . S
C39 C12 1.389 . S
C40 C15 1.395 1_455 S
C40 C17 1.391 . S
H41 C1 0.951 . S
H42 C2 0.950 . S
H43 C8 0.949 . S
H44 C9 0.950 . S
H45 C13 0.951 . S
H46 C14 0.950 . S
H47 C18 0.949 . S
H48 C19 0.950 . S
H49 C23 0.950 . S
H50 C25 0.950 . S
H51 C28 0.950 . S
H52 C30 0.950 . S
C53 C54 1.443 . S
C53 N57 1.376 . S
C53 C91 1.389 . S
C54 C53 1.443 . S
C54 C55 1.340 . S
C54 H94 0.951 . S
C55 C54 1.340 . S
C55 C56 1.439 . S
C55 H95 0.950 . S
C56 C55 1.439 . S
C56 N57 1.374 . S
C56 C90 1.395 . S
N57 C53 1.376 . S
N57 C56 1.374 . S
N57 Co58 2.008 . S
Co58 N57 2.008 . S
Co58 N59 1.995 . S
Co58 N64 2.008 . S
Co58 N69 1.995 . S
Co58 N74 2.282 . S
Co58 N80 2.282 . S
N59 Co58 1.995 . S
N59 C60 1.376 . S
N59 C63 1.383 . S
C60 N59 1.376 . S
C60 C61 1.446 . S
C60 C90 1.391 . S
C61 C60 1.446 . S
C61 C62 1.339 . S
C61 H96 0.949 . S
C62 C61 1.339 . S
C62 C63 1.439 . S
C62 H97 0.950 . S
C63 N59 1.383 . S
C63 C62 1.439 . S
C63 C92 1.392 . S
N64 Co58 2.008 . S
N64 C65 1.376 . S
N64 C68 1.374 . S
C65 N64 1.376 . S
C65 C66 1.443 . S
C65 C92 1.389 . S
C66 C65 1.443 . S
C66 C67 1.340 . S
C66 H98 0.951 . S
C67 C66 1.340 . S
C67 C68 1.439 . S
C67 H99 0.950 . S
C68 N64 1.374 . S
C68 C67 1.439 . S
C68 C93 1.395 . S
N69 Co58 1.995 . S
N69 C70 1.376 . S
N69 C73 1.383 . S
C70 N69 1.376 . S
C70 C71 1.446 . S
C70 C93 1.391 . S
C71 C70 1.446 . S
C71 C72 1.339 . S
C71 H100 0.949 . S
C72 C71 1.339 . S
C72 C73 1.439 . S
C72 H101 0.950 . S
C73 N69 1.383 . S
C73 C72 1.439 . S
C73 C91 1.392 . S
N74 Co58 2.282 . S
N74 C77 1.332 . S
N74 C79 1.332 . S
C75 C76 1.386 . S
C75 C78 1.388 . S
C76 C75 1.386 . S
C76 C77 1.382 . S
C76 H102 0.950 . S
C77 N74 1.332 . S
C77 C76 1.382 . S
C77 H88 0.952 . S
C78 C75 1.388 . S
C78 C79 1.382 . S
C78 H103 0.950 . S
C79 N74 1.332 . S
C79 C78 1.382 . S
C79 H89 0.948 . S
N80 Co58 2.282 . S
N80 C84 1.332 . S
N80 C85 1.332 . S
C81 C82 1.388 . S
C81 C85 1.382 . S
C81 H104 0.950 . S
C82 C81 1.388 . S
C82 C83 1.386 . S
C83 C82 1.386 . S
C83 C84 1.382 . S
C83 H105 0.950 . S
C84 N80 1.332 . S
C84 C83 1.382 . S
C84 H86 0.952 . S
C85 N80 1.332 . S
C85 C81 1.382 . S
C85 H87 0.948 . S
H86 C84 0.952 . S
H87 C85 0.948 . S
H88 C77 0.952 . S
H89 C79 0.948 . S
C90 C56 1.395 . S
C90 C60 1.391 . S
C91 C53 1.389 . S
C91 C73 1.392 . S
C92 C63 1.392 . S
C92 C65 1.389 . S
C93 C68 1.395 . S
C93 C70 1.391 . S
H94 C54 0.951 . S
H95 C55 0.950 . S
H96 C61 0.949 . S
H97 C62 0.950 . S
H98 C66 0.951 . S
H99 C67 0.950 . S
H100 C71 0.949 . S
H101 C72 0.950 . S
H102 C76 0.950 . S
H103 C78 0.950 . S
H104 C81 0.950 . S
H105 C83 0.950 . S
C106 C107 1.436 1_554 S
C106 N110 1.376 1_554 S
C106 C144 1.389 . S
C107 C106 1.436 1_556 S
C107 C108 1.366 . S
C107 H147 0.936 1_556 S
C108 C107 1.366 . S
C108 C109 1.439 . S
C108 H148 0.950 . S
C109 C108 1.439 . S
C109 N110 1.374 . S
C109 C143 1.395 . S
N110 C106 1.376 1_556 S
N110 C109 1.374 . S
N110 Co111 2.017 1_556 S
Co111 N110 2.017 1_554 S
Co111 N112 1.991 1_554 S
Co111 N117 2.000 1_545 S
Co111 N122 1.999 1_545 S
Co111 N127 2.273 1_544 S
Co111 N133 2.292 . S
N112 Co111 1.991 1_556 S
N112 C113 1.376 . S
N112 C116 1.383 1_545 S
C113 N112 1.376 . S
C113 C114 1.446 . S
C113 C143 1.391 . S
C114 C113 1.446 . S
C114 C115 1.357 . S
C114 H149 0.949 . S
C115 C114 1.357 . S
C115 C116 1.432 1_545 S
C115 H150 0.940 1_545 S
C116 N112 1.383 1_565 S
C116 C115 1.432 1_565 S
C116 C145 1.392 . S
N117 Co111 2.000 1_565 S
N117 C118 1.376 1_554 S
N117 C121 1.374 . S
C118 N117 1.376 1_556 S
C118 C119 1.443 1_556 S
C118 C145 1.389 . S
C119 C118 1.443 1_554 S
C119 C120 1.340 . S
C119 H151 0.951 1_554 S
C120 C119 1.340 . S
C120 C121 1.439 . S
C120 H152 0.950 . S
C121 N117 1.374 . S
C121 C120 1.439 . S
C121 C146 1.395 . S
N122 Co111 1.999 1_565 S
N122 C123 1.376 . S
N122 C126 1.383 1_565 S
C123 N122 1.376 . S
C123 C124 1.446 . S
C123 C146 1.391 . S
C124 C123 1.446 . S
C124 C125 1.338 1_565 S
C124 H153 0.949 . S
C125 C124 1.338 1_545 S
C125 C126 1.439 . S
C125 H154 0.950 . S
C126 N122 1.383 1_545 S
C126 C125 1.439 . S
C126 C144 1.392 . S
N127 Co111 2.273 1_566 S
N127 C130 1.332 . S
N127 C132 1.332 . S
C128 C129 1.386 . S
C128 C131 1.388 . S
C129 C128 1.386 . S
C129 C130 1.382 . S
C129 H155 0.950 . S
C130 N127 1.332 . S
C130 C129 1.382 . S
C130 H141 0.952 1_556 S
C131 C128 1.388 . S
C131 C132 1.382 . S
C131 H156 0.950 . S
C132 N127 1.332 . S
C132 C131 1.382 . S
C132 H142 0.948 . S
N133 Co111 2.292 . S
N133 C137 1.332 . S
N133 C138 1.332 . S
C134 C135 1.388 . S
C134 C138 1.382 . S
C134 H157 0.950 . S
C135 C134 1.388 . S
C135 C136 1.386 . S
C136 C135 1.386 . S
C136 C137 1.382 . S
C136 H158 0.950 . S
C137 N133 1.332 . S
C137 C136 1.382 . S
C137 H139 0.952 1_554 S
C138 N133 1.332 . S
C138 C134 1.382 . S
C138 H140 0.948 . S
H139 C137 0.952 1_556 S
H140 C138 0.948 . S
H141 C130 0.952 1_554 S
H142 C132 0.948 . S
C143 C109 1.395 . S
C143 C113 1.391 . S
C144 C106 1.389 . S
C144 C126 1.392 . S
C145 C116 1.392 . S
C145 C118 1.389 . S
C146 C121 1.395 . S
C146 C123 1.391 . S
H147 C107 0.936 1_554 S
H148 C108 0.950 . S
H149 C114 0.949 . S
H150 C115 0.940 1_565 S
H151 C119 0.951 1_556 S
H152 C120 0.950 . S
H153 C124 0.949 . S
H154 C125 0.950 . S
H155 C129 0.950 . S
H156 C131 0.950 . S
H157 C134 0.950 . S
H158 C136 0.950 . S
C159 C160 1.443 . S
C159 N163 1.376 . S
C159 C197 1.389 . S
C160 C159 1.443 . S
C160 C161 1.340 . S
C160 H200 0.951 . S
C161 C160 1.340 . S
C161 C162 1.439 . S
C161 H201 0.950 . S
C162 C161 1.439 . S
C162 N163 1.374 . S
C162 C196 1.395 . S
N163 C159 1.376 . S
N163 C162 1.374 . S
N163 Co164 2.008 . S
Co164 N163 2.008 . S
Co164 N165 1.995 . S
Co164 N170 2.008 . S
Co164 N175 1.995 . S
Co164 N180 2.282 . S
Co164 N186 2.282 . S
N165 Co164 1.995 . S
N165 C166 1.376 . S
N165 C169 1.383 . S
C166 N165 1.376 . S
C166 C167 1.446 . S
C166 C196 1.391 . S
C167 C166 1.446 . S
C167 C168 1.339 . S
C167 H202 0.949 . S
C168 C167 1.339 . S
C168 C169 1.439 . S
C168 H203 0.950 . S
C169 N165 1.383 . S
C169 C168 1.439 . S
C169 C198 1.392 . S
N170 Co164 2.008 . S
N170 C171 1.376 . S
N170 C174 1.374 . S
C171 N170 1.376 . S
C171 C172 1.443 . S
C171 C198 1.389 . S
C172 C171 1.443 . S
C172 C173 1.340 . S
C172 H204 0.951 . S
C173 C172 1.340 . S
C173 C174 1.439 . S
C173 H205 0.950 . S
C174 N170 1.374 . S
C174 C173 1.439 . S
C174 C199 1.395 . S
N175 Co164 1.995 . S
N175 C176 1.376 . S
N175 C179 1.383 . S
C176 N175 1.376 . S
C176 C177 1.446 . S
C176 C199 1.391 . S
C177 C176 1.446 . S
C177 C178 1.339 . S
C177 H206 0.949 . S
C178 C177 1.339 . S
C178 C179 1.439 . S
C178 H207 0.950 . S
C179 N175 1.383 . S
C179 C178 1.439 . S
C179 C197 1.392 . S
N180 Co164 2.282 . S
N180 C183 1.332 . S
N180 C185 1.332 . S
C181 C182 1.386 . S
C181 C184 1.388 . S
C182 C181 1.386 . S
C182 C183 1.382 . S
C182 H208 0.950 . S
C183 N180 1.332 . S
C183 C182 1.382 . S
C183 H194 0.952 . S
C184 C181 1.388 . S
C184 C185 1.382 . S
C184 H209 0.950 . S
C185 N180 1.332 . S
C185 C184 1.382 . S
C185 H195 0.948 . S
N186 Co164 2.282 . S
N186 C190 1.332 . S
N186 C191 1.332 . S
C187 C188 1.388 . S
C187 C191 1.382 . S
C187 H210 0.950 . S
C188 C187 1.388 . S
C188 C189 1.386 . S
C189 C188 1.386 . S
C189 C190 1.382 . S
C189 H211 0.950 . S
C190 N186 1.332 . S
C190 C189 1.382 . S
C190 H192 0.952 . S
C191 N186 1.332 . S
C191 C187 1.382 . S
C191 H193 0.948 . S
H192 C190 0.952 . S
H193 C191 0.948 . S
H194 C183 0.952 . S
H195 C185 0.948 . S
C196 C162 1.395 . S
C196 C166 1.391 . S
C197 C159 1.389 . S
C197 C179 1.392 . S
C198 C169 1.392 . S
C198 C171 1.389 . S
C199 C174 1.395 . S
C199 C176 1.391 . S
H200 C160 0.951 . S
H201 C161 0.950 . S
H202 C167 0.949 . S
H203 C168 0.950 . S
H204 C172 0.951 . S
H205 C173 0.950 . S
H206 C177 0.949 . S
H207 C178 0.950 . S
H208 C182 0.950 . S
H209 C184 0.950 . S
H210 C187 0.950 . S
H211 C189 0.950 . S
C212 C213 1.443 . S
C212 N216 1.376 . S
C212 C250 1.389 . S
C213 C212 1.443 . S
C213 C214 1.340 . S
C213 H253 0.951 . S
C214 C213 1.340 . S
C214 C215 1.439 . S
C214 H254 0.950 . S
C215 C214 1.439 . S
C215 N216 1.374 . S
C215 C249 1.395 . S
N216 C212 1.376 . S
N216 C215 1.374 . S
N216 Co217 2.008 . S
Co217 N216 2.008 . S
Co217 N218 1.995 . S
Co217 N223 2.008 . S
Co217 N228 1.995 . S
Co217 N233 2.282 . S
Co217 N239 2.282 . S
N218 Co217 1.995 . S
N218 C219 1.376 . S
N218 C222 1.383 . S
C219 N218 1.376 . S
C219 C220 1.446 . S
C219 C249 1.391 . S
C220 C219 1.446 . S
C220 C221 1.339 . S
C220 H255 0.949 . S
C221 C220 1.339 . S
C221 C222 1.439 . S
C221 H256 0.950 . S
C222 N218 1.383 . S
C222 C221 1.439 . S
C222 C251 1.392 . S
N223 Co217 2.008 . S
N223 C224 1.376 . S
N223 C227 1.374 . S
C224 N223 1.376 . S
C224 C225 1.443 . S
C224 C251 1.389 . S
C225 C224 1.443 . S
C225 C226 1.340 . S
C225 H257 0.951 . S
C226 C225 1.340 . S
C226 C227 1.439 . S
C226 H258 0.950 . S
C227 N223 1.374 . S
C227 C226 1.439 . S
C227 C252 1.395 . S
N228 Co217 1.995 . S
N228 C229 1.376 . S
N228 C232 1.383 . S
C229 N228 1.376 . S
C229 C230 1.446 . S
C229 C252 1.391 . S
C230 C229 1.446 . S
C230 C231 1.339 . S
C230 H259 0.949 . S
C231 C230 1.339 . S
C231 C232 1.439 . S
C231 H260 0.950 . S
C232 N228 1.383 . S
C232 C231 1.439 . S
C232 C250 1.392 . S
N233 Co217 2.282 . S
N233 C236 1.332 . S
N233 C238 1.332 . S
C234 C235 1.386 . S
C234 C237 1.388 . S
C235 C234 1.386 . S
C235 C236 1.382 . S
C235 H261 0.950 . S
C236 N233 1.332 . S
C236 C235 1.382 . S
C236 H247 0.952 . S
C237 C234 1.388 . S
C237 C238 1.382 . S
C237 H262 0.950 . S
C238 N233 1.332 . S
C238 C237 1.382 . S
C238 H248 0.948 . S
N239 Co217 2.282 . S
N239 C243 1.332 . S
N239 C244 1.332 . S
C240 C241 1.388 . S
C240 C244 1.382 . S
C240 H263 0.950 . S
C241 C240 1.388 . S
C241 C242 1.386 . S
C242 C241 1.386 . S
C242 C243 1.382 . S
C242 H264 0.950 . S
C243 N239 1.332 . S
C243 C242 1.382 . S
C243 H245 0.952 . S
C244 N239 1.332 . S
C244 C240 1.382 . S
C244 H246 0.948 . S
H245 C243 0.952 . S
H246 C244 0.948 . S
H247 C236 0.952 . S
H248 C238 0.948 . S
C249 C215 1.395 . S
C249 C219 1.391 . S
C250 C212 1.389 . S
C250 C232 1.392 . S
C251 C222 1.392 . S
C251 C224 1.389 . S
C252 C227 1.395 . S
C252 C229 1.391 . S
H253 C213 0.951 . S
H254 C214 0.950 . S
H255 C220 0.949 . S
H256 C221 0.950 . S
H257 C225 0.951 . S
H258 C226 0.950 . S
H259 C230 0.949 . S
H260 C231 0.950 . S
H261 C235 0.950 . S
H262 C237 0.950 . S
H263 C240 0.950 . S
H264 C242 0.950 . S
C265 C266 1.443 . S
C265 N269 1.376 . S
C265 C303 1.389 . S
C266 C265 1.443 . S
C266 C267 1.340 . S
C266 H306 0.951 . S
C267 C266 1.340 . S
C267 C268 1.439 . S
C267 H307 0.950 . S
C268 C267 1.439 . S
C268 N269 1.374 . S
C268 C302 1.395 . S
N269 C265 1.376 . S
N269 C268 1.374 . S
N269 Co270 2.008 . S
Co270 N269 2.008 . S
Co270 N271 1.995 . S
Co270 N276 2.008 . S
Co270 N281 1.995 . S
Co270 N286 2.282 . S
Co270 N292 2.282 . S
N271 Co270 1.995 . S
N271 C272 1.376 . S
N271 C275 1.383 . S
C272 N271 1.376 . S
C272 C273 1.446 . S
C272 C302 1.391 . S
C273 C272 1.446 . S
C273 C274 1.339 . S
C273 H308 0.949 . S
C274 C273 1.339 . S
C274 C275 1.439 . S
C274 H309 0.950 . S
C275 N271 1.383 . S
C275 C274 1.439 . S
C275 C304 1.392 . S
N276 Co270 2.008 . S
N276 C277 1.376 . S
N276 C280 1.374 . S
C277 N276 1.376 . S
C277 C278 1.443 . S
C277 C304 1.389 . S
C278 C277 1.443 . S
C278 C279 1.340 . S
C278 H310 0.951 . S
C279 C278 1.340 . S
C279 C280 1.439 . S
C279 H311 0.950 . S
C280 N276 1.374 . S
C280 C279 1.439 . S
C280 C305 1.395 . S
N281 Co270 1.995 . S
N281 C282 1.376 . S
N281 C285 1.383 . S
C282 N281 1.376 . S
C282 C283 1.446 . S
C282 C305 1.391 . S
C283 C282 1.446 . S
C283 C284 1.339 . S
C283 H312 0.949 . S
C284 C283 1.339 . S
C284 C285 1.439 . S
C284 H313 0.950 . S
C285 N281 1.383 . S
C285 C284 1.439 . S
C285 C303 1.392 . S
N286 Co270 2.282 . S
N286 C289 1.332 . S
N286 C291 1.332 . S
C287 C288 1.386 . S
C287 C290 1.388 . S
C288 C287 1.386 . S
C288 C289 1.382 . S
C288 H314 0.950 . S
C289 N286 1.332 . S
C289 C288 1.382 . S
C289 H300 0.952 . S
C290 C287 1.388 . S
C290 C291 1.382 . S
C290 H315 0.950 . S
C291 N286 1.332 . S
C291 C290 1.382 . S
C291 H301 0.948 . S
N292 Co270 2.282 . S
N292 C296 1.332 . S
N292 C297 1.332 . S
C293 C294 1.388 . S
C293 C297 1.382 . S
C293 H316 0.950 . S
C294 C293 1.388 . S
C294 C295 1.386 . S
C295 C294 1.386 . S
C295 C296 1.382 . S
C295 H317 0.950 . S
C296 N292 1.332 . S
C296 C295 1.382 . S
C296 H298 0.952 . S
C297 N292 1.332 . S
C297 C293 1.382 . S
C297 H299 0.948 . S
H298 C296 0.952 . S
H299 C297 0.948 . S
H300 C289 0.952 . S
H301 C291 0.948 . S
C302 C268 1.395 . S
C302 C272 1.391 . S
C303 C265 1.389 . S
C303 C285 1.392 . S
C304 C275 1.392 . S
C304 C277 1.389 . S
C305 C280 1.395 . S
C305 C282 1.391 . S
H306 C266 0.951 . S
H307 C267 0.950 . S
H308 C273 0.949 . S
H309 C274 0.950 . S
H310 C278 0.951 . S
H311 C279 0.950 . S
H312 C283 0.949 . S
H313 C284 0.950 . S
H314 C288 0.950 . S
H315 C290 0.950 . S
H316 C293 0.950 . S
H317 C295 0.950 . S
C318 C319 1.443 . S
C318 N322 1.376 . S
C318 C356 1.389 . S
C319 C318 1.443 . S
C319 C320 1.340 . S
C319 H359 0.951 . S
C320 C319 1.340 . S
C320 C321 1.439 . S
C320 H360 0.950 . S
C321 C320 1.439 . S
C321 N322 1.374 . S
C321 C355 1.395 . S
N322 C318 1.376 . S
N322 C321 1.374 . S
N322 Co323 1.998 1_556 S
Co323 N322 1.998 1_554 S
Co323 N324 1.992 1_554 S
Co323 N329 2.018 . S
Co323 N334 1.997 . S
Co323 N339 2.287 . S
Co323 N345 2.278 1_554 S
N324 Co323 1.992 1_556 S
N324 C325 1.376 . S
N324 C328 1.383 1_556 S
C325 N324 1.376 . S
C325 C326 1.446 . S
C325 C355 1.391 . S
C326 C325 1.446 . S
C326 C327 1.339 1_556 S
C326 H361 0.949 . S
C327 C326 1.339 1_554 S
C327 C328 1.439 . S
C327 H362 0.950 . S
C328 N324 1.383 1_554 S
C328 C327 1.439 . S
C328 C357 1.392 . S
N329 Co323 2.018 . S
N329 C330 1.376 . S
N329 C333 1.374 . S
C330 N329 1.376 . S
C330 C331 1.443 . S
C330 C357 1.389 . S
C331 C330 1.443 . S
C331 C332 1.340 . S
C331 H363 0.951 . S
C332 C331 1.340 . S
C332 C333 1.439 . S
C332 H364 0.950 . S
C333 N329 1.374 . S
C333 C332 1.439 . S
C333 C358 1.395 . S
N334 Co323 1.997 . S
N334 C335 1.376 . S
N334 C338 1.383 1_554 S
C335 N334 1.376 . S
C335 C336 1.446 . S
C335 C358 1.391 . S
C336 C335 1.446 . S
C336 C337 1.339 1_554 S
C336 H365 0.949 . S
C337 C336 1.339 1_556 S
C337 C338 1.439 . S
C337 H366 0.950 . S
C338 N334 1.383 1_556 S
C338 C337 1.439 . S
C338 C356 1.392 . S
N339 Co323 2.287 . S
N339 C342 1.332 . S
N339 C344 1.332 . S
C340 C341 1.386 . S
C340 C343 1.388 . S
C341 C340 1.386 . S
C341 C342 1.382 . S
C341 H367 0.950 . S
C342 N339 1.332 . S
C342 C341 1.382 . S
C342 H353 0.952 . S
C343 C340 1.388 . S
C343 C344 1.382 . S
C343 H368 0.950 . S
C344 N339 1.332 . S
C344 C343 1.382 . S
C344 H354 0.948 . S
N345 Co323 2.278 1_556 S
N345 C349 1.332 . S
N345 C350 1.332 . S
C346 C347 1.388 . S
C346 C350 1.382 . S
C346 H369 0.950 . S
C347 C346 1.388 . S
C347 C348 1.386 . S
C348 C347 1.386 . S
C348 C349 1.382 . S
C348 H370 0.950 . S
C349 N345 1.332 . S
C349 C348 1.382 . S
C349 H351 0.952 . S
C350 N345 1.332 . S
C350 C346 1.382 . S
C350 H352 0.948 . S
H351 C349 0.952 . S
H352 C350 0.948 . S
H353 C342 0.952 . S
H354 C344 0.948 . S
C355 C321 1.395 . S
C355 C325 1.391 . S
C356 C318 1.389 . S
C356 C338 1.392 . S
C357 C328 1.392 . S
C357 C330 1.389 . S
C358 C333 1.395 . S
C358 C335 1.391 . S
H359 C319 0.951 . S
H360 C320 0.950 . S
H361 C326 0.949 . S
H362 C327 0.950 . S
H363 C331 0.951 . S
H364 C332 0.950 . S
H365 C336 0.949 . S
H366 C337 0.950 . S
H367 C341 0.950 . S
H368 C343 0.950 . S
H369 C346 0.950 . S
H370 C348 0.950 . S
C371 C372 1.443 . S
C371 N375 1.376 . S
C371 C409 1.389 . S
C372 C371 1.443 . S
C372 C373 1.340 . S
C372 H412 0.951 . S
C373 C372 1.340 . S
C373 C374 1.439 . S
C373 H413 0.950 . S
C374 C373 1.439 . S
C374 N375 1.374 . S
C374 C408 1.386 1_455 S
N375 C371 1.376 . S
N375 C374 1.374 . S
N375 Co376 2.008 . S
Co376 N375 2.008 . S
Co376 N377 1.995 1_455 S
Co376 N382 2.008 1_455 S
Co376 N387 1.995 . S
Co376 N392 2.282 . S
Co376 N398 2.282 1_455 S
N377 Co376 1.995 1_655 S
N377 C378 1.376 . S
N377 C381 1.383 . S
C378 N377 1.376 . S
C378 C379 1.446 . S
C378 C408 1.399 . S
C379 C378 1.446 . S
C379 C380 1.339 . S
C379 H414 0.949 . S
C380 C379 1.339 . S
C380 C381 1.439 . S
C380 H415 0.950 . S
C381 N377 1.383 . S
C381 C380 1.439 . S
C381 C410 1.392 . S
N382 Co376 2.008 1_655 S
N382 C383 1.376 . S
N382 C386 1.374 . S
C383 N382 1.376 . S
C383 C384 1.443 . S
C383 C410 1.389 . S
C384 C383 1.443 . S
C384 C385 1.340 . S
C384 H416 0.951 . S
C385 C384 1.340 . S
C385 C386 1.439 . S
C385 H417 0.950 . S
C386 N382 1.374 . S
C386 C385 1.439 . S
C386 C411 1.381 1_655 S
N387 Co376 1.995 . S
N387 C388 1.376 . S
N387 C391 1.383 . S
C388 N387 1.376 . S
C388 C389 1.446 . S
C388 C411 1.403 . S
C389 C388 1.446 . S
C389 C390 1.339 . S
C389 H418 0.949 . S
C390 C389 1.339 . S
C390 C391 1.439 . S
C390 H419 0.950 . S
C391 N387 1.383 . S
C391 C390 1.439 . S
C391 C409 1.392 . S
N392 Co376 2.282 . S
N392 C395 1.332 . S
N392 C397 1.332 . S
C393 C394 1.386 . S
C393 C396 1.388 . S
C394 C393 1.386 . S
C394 C395 1.382 . S
C394 H420 0.950 . S
C395 N392 1.332 . S
C395 C394 1.382 . S
C395 H406 0.952 . S
C396 C393 1.388 . S
C396 C397 1.382 . S
C396 H421 0.950 . S
C397 N392 1.332 . S
C397 C396 1.382 . S
C397 H407 0.948 . S
N398 Co376 2.282 1_655 S
N398 C402 1.332 . S
N398 C403 1.332 . S
C399 C400 1.388 . S
C399 C403 1.382 . S
C399 H422 0.950 . S
C400 C399 1.388 . S
C400 C401 1.386 . S
C401 C400 1.386 . S
C401 C402 1.382 . S
C401 H423 0.950 . S
C402 N398 1.332 . S
C402 C401 1.382 . S
C402 H404 0.952 . S
C403 N398 1.332 . S
C403 C399 1.382 . S
C403 H405 0.948 . S
H404 C402 0.952 . S
H405 C403 0.948 . S
H406 C395 0.952 . S
H407 C397 0.948 . S
C408 C374 1.386 1_655 S
C408 C378 1.399 . S
C409 C371 1.389 . S
C409 C391 1.392 . S
C410 C381 1.392 . S
C410 C383 1.389 . S
C411 C386 1.381 1_455 S
C411 C388 1.403 . S
H412 C372 0.951 . S
H413 C373 0.950 . S
H414 C379 0.949 . S
H415 C380 0.950 . S
H416 C384 0.951 . S
H417 C385 0.950 . S
H418 C389 0.949 . S
H419 C390 0.950 . S
H420 C394 0.950 . S
H421 C396 0.950 . S
H422 C399 0.950 . S
H423 C401 0.950 . S
C424 C425 1.391 . S
C424 C426 1.394 . S
C424 H440 0.931 . S
C425 C424 1.391 . S
C425 C429 1.376 . S
C426 C424 1.394 . S
C426 C427 1.369 . S
C426 C430 1.531 . S
C427 C426 1.369 . S
C427 C428 1.410 . S
C427 C435 1.503 . S
C428 C427 1.410 . S
C428 C429 1.392 . S
C428 C431 1.511 . S
C429 C425 1.376 . S
C429 C428 1.392 . S
C429 H441 0.929 . S
C430 C426 1.531 . S
C430 H442 0.960 . S
C430 H443 0.962 . S
C430 H444 0.960 . S
C431 C428 1.511 . S
C431 H445 0.961 . S
C431 H446 0.961 . S
C431 H447 0.961 . S
C432 C433 1.370 . S
C432 C434 1.363 . S
C432 H448 0.931 . S
C433 C432 1.370 . S
C433 C437 1.408 . S
C434 C432 1.363 . S
C434 C435 1.370 . S
C434 C438 1.524 . S
C435 C427 1.503 . S
C435 C434 1.370 . S
C435 C436 1.403 . S
C436 C435 1.403 . S
C436 C437 1.404 . S
C436 C439 1.539 . S
C437 C433 1.408 . S
C437 C436 1.404 . S
C437 H449 0.930 . S
C438 C434 1.524 . S
C438 H450 0.956 . S
C438 H451 0.961 . S
C438 H452 0.961 . S
C439 C436 1.539 . S
C439 H453 0.958 . S
C439 H454 0.961 . S
C439 H455 0.960 . S
H440 C424 0.931 . S
H441 C429 0.929 . S
H442 C430 0.960 . S
H443 C430 0.962 . S
H444 C430 0.960 . S
H445 C431 0.961 . S
H446 C431 0.961 . S
H447 C431 0.961 . S
H448 C432 0.931 . S
H449 C437 0.930 . S
H450 C438 0.956 . S
H451 C438 0.961 . S
H452 C438 0.961 . S
H453 C439 0.958 . S
H454 C439 0.961 . S
H455 C439 0.960 . S
C456 C457 1.391 . S
C456 C458 1.394 . S
C456 H472 0.931 . S
C457 C456 1.391 . S
C457 C461 1.376 . S
C458 C456 1.394 . S
C458 C459 1.369 . S
C458 C462 1.531 . S
C459 C458 1.369 . S
C459 C460 1.410 . S
C459 C467 1.503 . S
C460 C459 1.410 . S
C460 C461 1.392 . S
C460 C463 1.511 . S
C461 C457 1.376 . S
C461 C460 1.392 . S
C461 H473 0.929 . S
C462 C458 1.531 . S
C462 H474 0.960 . S
C462 H475 0.962 . S
C462 H476 0.960 . S
C463 C460 1.511 . S
C463 H477 0.961 . S
C463 H478 0.961 . S
C463 H479 0.961 . S
C464 C465 1.370 . S
C464 C466 1.363 . S
C464 H480 0.931 . S
C465 C464 1.370 . S
C465 C469 1.408 . S
C466 C464 1.363 . S
C466 C467 1.370 . S
C466 C470 1.524 . S
C467 C459 1.503 . S
C467 C466 1.370 . S
C467 C468 1.403 . S
C468 C467 1.403 . S
C468 C469 1.404 . S
C468 C471 1.539 . S
C469 C465 1.408 . S
C469 C468 1.404 . S
C469 H481 0.930 . S
C470 C466 1.524 . S
C470 H482 0.956 . S
C470 H483 0.961 . S
C470 H484 0.961 . S
C471 C468 1.539 . S
C471 H485 0.958 . S
C471 H486 0.961 . S
C471 H487 0.960 . S
H472 C456 0.931 . S
H473 C461 0.929 . S
H474 C462 0.960 . S
H475 C462 0.962 . S
H476 C462 0.960 . S
H477 C463 0.961 . S
H478 C463 0.961 . S
H479 C463 0.961 . S
H480 C464 0.931 . S
H481 C469 0.930 . S
H482 C470 0.956 . S
H483 C470 0.961 . S
H484 C470 0.961 . S
H485 C471 0.958 . S
H486 C471 0.961 . S
H487 C471 0.960 . S
C488 C489 1.391 . S
C488 C490 1.394 . S
C488 H504 0.931 . S
C489 C488 1.391 . S
C489 C493 1.376 . S
C490 C488 1.394 . S
C490 C491 1.369 . S
C490 C494 1.531 . S
C491 C490 1.369 . S
C491 C492 1.410 . S
C491 C499 1.503 . S
C492 C491 1.410 . S
C492 C493 1.392 . S
C492 C495 1.511 . S
C493 C489 1.376 . S
C493 C492 1.392 . S
C493 H505 0.929 . S
C494 C490 1.531 . S
C494 H506 0.960 . S
C494 H507 0.962 . S
C494 H508 0.960 . S
C495 C492 1.511 . S
C495 H509 0.961 . S
C495 H510 0.961 . S
C495 H511 0.961 . S
C496 C497 1.370 . S
C496 C498 1.363 . S
C496 H512 0.931 . S
C497 C496 1.370 . S
C497 C501 1.408 . S
C498 C496 1.363 . S
C498 C499 1.370 . S
C498 C502 1.524 . S
C499 C491 1.503 . S
C499 C498 1.370 . S
C499 C500 1.403 . S
C500 C499 1.403 . S
C500 C501 1.404 . S
C500 C503 1.539 . S
C501 C497 1.408 . S
C501 C500 1.404 . S
C501 H513 0.930 . S
C502 C498 1.524 . S
C502 H514 0.956 . S
C502 H515 0.961 . S
C502 H516 0.961 . S
C503 C500 1.539 . S
C503 H517 0.958 . S
C503 H518 0.961 . S
C503 H519 0.960 . S
H504 C488 0.931 . S
H505 C493 0.929 . S
H506 C494 0.960 . S
H507 C494 0.962 . S
H508 C494 0.960 . S
H509 C495 0.961 . S
H510 C495 0.961 . S
H511 C495 0.961 . S
H512 C496 0.931 . S
H513 C501 0.930 . S
H514 C502 0.956 . S
H515 C502 0.961 . S
H516 C502 0.961 . S
H517 C503 0.958 . S
H518 C503 0.961 . S
H519 C503 0.960 . S
C520 C521 1.391 . S
C520 C522 1.394 . S
C520 H536 0.931 . S
C521 C520 1.391 . S
C521 C525 1.376 . S
C522 C520 1.394 . S
C522 C523 1.369 . S
C522 C526 1.531 . S
C523 C522 1.369 . S
C523 C524 1.410 . S
C523 C531 1.503 . S
C524 C523 1.410 . S
C524 C525 1.392 . S
C524 C527 1.511 . S
C525 C521 1.376 . S
C525 C524 1.392 . S
C525 H537 0.929 . S
C526 C522 1.531 . S
C526 H538 0.960 . S
C526 H539 0.962 . S
C526 H540 0.960 . S
C527 C524 1.511 . S
C527 H541 0.961 . S
C527 H542 0.961 . S
C527 H543 0.961 . S
C528 C529 1.370 . S
C528 C530 1.363 . S
C528 H544 0.931 . S
C529 C528 1.370 . S
C529 C533 1.408 . S
C530 C528 1.363 . S
C530 C531 1.370 . S
C530 C534 1.524 . S
C531 C523 1.503 . S
C531 C530 1.370 . S
C531 C532 1.403 . S
C532 C531 1.403 . S
C532 C533 1.404 . S
C532 C535 1.539 . S
C533 C529 1.408 . S
C533 C532 1.404 . S
C533 H545 0.930 . S
C534 C530 1.524 . S
C534 H546 0.956 . S
C534 H547 0.961 . S
C534 H548 0.961 . S
C535 C532 1.539 . S
C535 H549 0.958 . S
C535 H550 0.961 . S
C535 H551 0.960 . S
H536 C520 0.931 . S
H537 C525 0.929 . S
H538 C526 0.960 . S
H539 C526 0.962 . S
H540 C526 0.960 . S
H541 C527 0.961 . S
H542 C527 0.961 . S
H543 C527 0.961 . S
H544 C528 0.931 . S
H545 C533 0.930 . S
H546 C534 0.956 . S
H547 C534 0.961 . S
H548 C534 0.961 . S
H549 C535 0.958 . S
H550 C535 0.961 . S
H551 C535 0.960 . S
C552 C553 1.391 . S
C552 C554 1.394 . S
C552 H568 0.931 . S
C553 C552 1.391 . S
C553 C557 1.376 . S
C554 C552 1.394 . S
C554 C555 1.369 . S
C554 C558 1.531 . S
C555 C554 1.369 . S
C555 C556 1.410 . S
C555 C563 1.503 . S
C556 C555 1.410 . S
C556 C557 1.392 . S
C556 C559 1.511 . S
C557 C553 1.376 . S
C557 C556 1.392 . S
C557 H569 0.929 . S
C558 C554 1.531 . S
C558 H570 0.960 . S
C558 H571 0.962 . S
C558 H572 0.960 . S
C559 C556 1.511 . S
C559 H573 0.961 . S
C559 H574 0.961 . S
C559 H575 0.961 . S
C560 C561 1.370 . S
C560 C562 1.363 . S
C560 H576 0.931 . S
C561 C560 1.370 . S
C561 C565 1.408 . S
C562 C560 1.363 . S
C562 C563 1.370 . S
C562 C566 1.524 . S
C563 C555 1.503 . S
C563 C562 1.370 . S
C563 C564 1.403 . S
C564 C563 1.403 . S
C564 C565 1.404 . S
C564 C567 1.539 . S
C565 C561 1.408 . S
C565 C564 1.404 . S
C565 H577 0.930 . S
C566 C562 1.524 . S
C566 H578 0.956 . S
C566 H579 0.961 . S
C566 H580 0.961 . S
C567 C564 1.539 . S
C567 H581 0.958 . S
C567 H582 0.961 . S
C567 H583 0.960 . S
H568 C552 0.931 . S
H569 C557 0.929 . S
H570 C558 0.960 . S
H571 C558 0.962 . S
H572 C558 0.960 . S
H573 C559 0.961 . S
H574 C559 0.961 . S
H575 C559 0.961 . S
H576 C560 0.931 . S
H577 C565 0.930 . S
H578 C566 0.956 . S
H579 C566 0.961 . S
H580 C566 0.961 . S
H581 C567 0.958 . S
H582 C567 0.961 . S
H583 C567 0.960 . S
C584 C585 1.391 . S
C584 C586 1.394 . S
C584 H600 0.931 . S
C585 C584 1.391 . S
C585 C589 1.376 . S
C586 C584 1.394 . S
C586 C587 1.369 . S
C586 C590 1.531 . S
C587 C586 1.369 . S
C587 C588 1.410 . S
C587 C595 1.503 . S
C588 C587 1.410 . S
C588 C589 1.392 . S
C588 C591 1.511 . S
C589 C585 1.376 . S
C589 C588 1.392 . S
C589 H601 0.929 . S
C590 C586 1.531 . S
C590 H602 0.960 . S
C590 H603 0.962 . S
C590 H604 0.960 . S
C591 C588 1.511 . S
C591 H605 0.961 . S
C591 H606 0.961 . S
C591 H607 0.961 . S
C592 C593 1.370 . S
C592 C594 1.363 . S
C592 H608 0.931 . S
C593 C592 1.370 . S
C593 C597 1.408 . S
C594 C592 1.363 . S
C594 C595 1.370 . S
C594 C598 1.524 . S
C595 C587 1.503 . S
C595 C594 1.370 . S
C595 C596 1.403 . S
C596 C595 1.403 . S
C596 C597 1.404 . S
C596 C599 1.539 . S
C597 C593 1.408 . S
C597 C596 1.404 . S
C597 H609 0.930 . S
C598 C594 1.524 . S
C598 H610 0.956 . S
C598 H611 0.961 . S
C598 H612 0.961 . S
C599 C596 1.539 . S
C599 H613 0.958 . S
C599 H614 0.961 . S
C599 H615 0.960 . S
H600 C584 0.931 . S
H601 C589 0.929 . S
H602 C590 0.960 . S
H603 C590 0.962 . S
H604 C590 0.960 . S
H605 C591 0.961 . S
H606 C591 0.961 . S
H607 C591 0.961 . S
H608 C592 0.931 . S
H609 C597 0.930 . S
H610 C598 0.956 . S
H611 C598 0.961 . S
H612 C598 0.961 . S
H613 C599 0.958 . S
H614 C599 0.961 . S
H615 C599 0.960 . S
C616 C617 1.391 . S
C616 C618 1.394 . S
C616 H632 0.931 . S
C617 C616 1.391 . S
C617 C621 1.376 . S
C618 C616 1.394 . S
C618 C619 1.369 . S
C618 C622 1.531 . S
C619 C618 1.369 . S
C619 C620 1.410 . S
C619 C627 1.503 . S
C620 C619 1.410 . S
C620 C621 1.392 . S
C620 C623 1.511 . S
C621 C617 1.376 . S
C621 C620 1.392 . S
C621 H633 0.929 . S
C622 C618 1.531 . S
C622 H634 0.960 . S
C622 H635 0.962 . S
C622 H636 0.960 . S
C623 C620 1.511 . S
C623 H637 0.961 . S
C623 H638 0.961 . S
C623 H639 0.961 . S
C624 C625 1.370 . S
C624 C626 1.363 . S
C624 H640 0.931 . S
C625 C624 1.370 . S
C625 C629 1.408 . S
C626 C624 1.363 . S
C626 C627 1.370 . S
C626 C630 1.524 . S
C627 C619 1.503 . S
C627 C626 1.370 . S
C627 C628 1.403 . S
C628 C627 1.403 . S
C628 C629 1.404 . S
C628 C631 1.539 . S
C629 C625 1.408 . S
C629 C628 1.404 . S
C629 H641 0.930 . S
C630 C626 1.524 . S
C630 H642 0.956 . S
C630 H643 0.961 . S
C630 H644 0.961 . S
C631 C628 1.539 . S
C631 H645 0.958 . S
C631 H646 0.961 . S
C631 H647 0.960 . S
H632 C616 0.931 . S
H633 C621 0.929 . S
H634 C622 0.960 . S
H635 C622 0.962 . S
H636 C622 0.960 . S
H637 C623 0.961 . S
H638 C623 0.961 . S
H639 C623 0.961 . S
H640 C624 0.931 . S
H641 C629 0.930 . S
H642 C630 0.956 . S
H643 C630 0.961 . S
H644 C630 0.961 . S
H645 C631 0.958 . S
H646 C631 0.961 . S
H647 C631 0.960 . S
C648 C649 1.391 . S
C648 C650 1.394 . S
C648 H664 0.931 . S
C649 C648 1.391 . S
C649 C653 1.376 . S
C650 C648 1.394 . S
C650 C651 1.369 . S
C650 C654 1.531 . S
C651 C650 1.369 . S
C651 C652 1.410 . S
C651 C659 1.503 . S
C652 C651 1.410 . S
C652 C653 1.392 . S
C652 C655 1.511 . S
C653 C649 1.376 . S
C653 C652 1.392 . S
C653 H665 0.929 . S
C654 C650 1.531 . S
C654 H666 0.960 . S
C654 H667 0.962 . S
C654 H668 0.960 . S
C655 C652 1.511 . S
C655 H669 0.961 . S
C655 H670 0.961 . S
C655 H671 0.961 . S
C656 C657 1.370 . S
C656 C658 1.363 . S
C656 H672 0.931 . S
C657 C656 1.370 . S
C657 C661 1.408 . S
C658 C656 1.363 . S
C658 C659 1.370 . S
C658 C662 1.524 . S
C659 C651 1.503 . S
C659 C658 1.370 . S
C659 C660 1.403 . S
C660 C659 1.403 . S
C660 C661 1.404 . S
C660 C663 1.539 . S
C661 C657 1.408 . S
C661 C660 1.404 . S
C661 H673 0.930 . S
C662 C658 1.524 . S
C662 H674 0.956 . S
C662 H675 0.961 . S
C662 H676 0.961 . S
C663 C660 1.539 . S
C663 H677 0.958 . S
C663 H678 0.961 . S
C663 H679 0.960 . S
H664 C648 0.931 . S
H665 C653 0.929 . S
H666 C654 0.960 . S
H667 C654 0.962 . S
H668 C654 0.960 . S
H669 C655 0.961 . S
H670 C655 0.961 . S
H671 C655 0.961 . S
H672 C656 0.931 . S
H673 C661 0.930 . S
H674 C662 0.956 . S
H675 C662 0.961 . S
H676 C662 0.961 . S
H677 C663 0.958 . S
H678 C663 0.961 . S
H679 C663 0.960 . S
C680 C681 1.391 . S
C680 C682 1.394 . S
C680 H696 0.931 . S
C681 C680 1.391 . S
C681 C685 1.376 . S
C682 C680 1.394 . S
C682 C683 1.369 . S
C682 C686 1.531 . S
C683 C682 1.369 . S
C683 C684 1.410 . S
C683 C691 1.503 . S
C684 C683 1.410 . S
C684 C685 1.392 . S
C684 C687 1.511 . S
C685 C681 1.376 . S
C685 C684 1.392 . S
C685 H697 0.929 . S
C686 C682 1.531 . S
C686 H698 0.960 . S
C686 H699 0.962 . S
C686 H700 0.960 . S
C687 C684 1.511 . S
C687 H701 0.961 . S
C687 H702 0.961 . S
C687 H703 0.961 . S
C688 C689 1.370 . S
C688 C690 1.363 . S
C688 H704 0.931 . S
C689 C688 1.370 . S
C689 C693 1.408 . S
C690 C688 1.363 . S
C690 C691 1.370 . S
C690 C694 1.524 . S
C691 C683 1.503 . S
C691 C690 1.370 . S
C691 C692 1.403 . S
C692 C691 1.403 . S
C692 C693 1.404 . S
C692 C695 1.539 . S
C693 C689 1.408 . S
C693 C692 1.404 . S
C693 H705 0.930 . S
C694 C690 1.524 . S
C694 H706 0.956 . S
C694 H707 0.961 . S
C694 H708 0.961 . S
C695 C692 1.539 . S
C695 H709 0.958 . S
C695 H710 0.961 . S
C695 H711 0.960 . S
H696 C680 0.931 . S
H697 C685 0.929 . S
H698 C686 0.960 . S
H699 C686 0.962 . S
H700 C686 0.960 . S
H701 C687 0.961 . S
H702 C687 0.961 . S
H703 C687 0.961 . S
H704 C688 0.931 . S
H705 C693 0.930 . S
H706 C694 0.956 . S
H707 C694 0.961 . S
H708 C694 0.961 . S
H709 C695 0.958 . S
H710 C695 0.961 . S
H711 C695 0.960 . S
C712 C713 1.391 . S
C712 C714 1.394 . S
C712 H728 0.931 . S
C713 C712 1.391 . S
C713 C717 1.376 . S
C714 C712 1.394 . S
C714 C715 1.369 . S
C714 C718 1.531 . S
C715 C714 1.369 . S
C715 C716 1.410 . S
C715 C723 1.503 . S
C716 C715 1.410 . S
C716 C717 1.392 . S
C716 C719 1.511 . S
C717 C713 1.376 . S
C717 C716 1.392 . S
C717 H729 0.929 . S
C718 C714 1.531 . S
C718 H730 0.960 . S
C718 H731 0.962 . S
C718 H732 0.960 . S
C719 C716 1.511 . S
C719 H733 0.961 . S
C719 H734 0.961 . S
C719 H735 0.961 . S
C720 C721 1.370 . S
C720 C722 1.363 . S
C720 H736 0.931 . S
C721 C720 1.370 . S
C721 C725 1.408 . S
C722 C720 1.363 . S
C722 C723 1.370 . S
C722 C726 1.524 . S
C723 C715 1.503 . S
C723 C722 1.370 . S
C723 C724 1.403 . S
C724 C723 1.403 . S
C724 C725 1.404 . S
C724 C727 1.539 . S
C725 C721 1.408 . S
C725 C724 1.404 . S
C725 H737 0.930 . S
C726 C722 1.524 . S
C726 H738 0.956 . S
C726 H739 0.961 . S
C726 H740 0.961 . S
C727 C724 1.539 . S
C727 H741 0.958 . S
C727 H742 0.961 . S
C727 H743 0.960 . S
H728 C712 0.931 . S
H729 C717 0.929 . S
H730 C718 0.960 . S
H731 C718 0.962 . S
H732 C718 0.960 . S
H733 C719 0.961 . S
H734 C719 0.961 . S
H735 C719 0.961 . S
H736 C720 0.931 . S
H737 C725 0.930 . S
H738 C726 0.956 . S
H739 C726 0.961 . S
H740 C726 0.961 . S
H741 C727 0.958 . S
H742 C727 0.961 . S
H743 C727 0.960 . S
C744 C745 1.391 . S
C744 C746 1.394 . S
C744 H760 0.931 . S
C745 C744 1.391 . S
C745 C749 1.376 . S
C746 C744 1.394 . S
C746 C747 1.369 . S
C746 C750 1.531 . S
C747 C746 1.369 . S
C747 C748 1.410 . S
C747 C755 1.503 . S
C748 C747 1.410 . S
C748 C749 1.392 . S
C748 C751 1.511 . S
C749 C745 1.376 . S
C749 C748 1.392 . S
C749 H761 0.929 . S
C750 C746 1.531 . S
C750 H762 0.960 . S
C750 H763 0.962 . S
C750 H764 0.960 . S
C751 C748 1.511 . S
C751 H765 0.961 . S
C751 H766 0.961 . S
C751 H767 0.961 . S
C752 C753 1.370 . S
C752 C754 1.363 . S
C752 H768 0.931 . S
C753 C752 1.370 . S
C753 C757 1.408 . S
C754 C752 1.363 . S
C754 C755 1.370 . S
C754 C758 1.524 . S
C755 C747 1.503 . S
C755 C754 1.370 . S
C755 C756 1.403 . S
C756 C755 1.403 . S
C756 C757 1.404 . S
C756 C759 1.539 . S
C757 C753 1.408 . S
C757 C756 1.404 . S
C757 H769 0.930 . S
C758 C754 1.524 . S
C758 H770 0.956 . S
C758 H771 0.961 . S
C758 H772 0.961 . S
C759 C756 1.539 . S
C759 H773 0.958 . S
C759 H774 0.961 . S
C759 H775 0.960 . S
H760 C744 0.931 . S
H761 C749 0.929 . S
H762 C750 0.960 . S
H763 C750 0.962 . S
H764 C750 0.960 . S
H765 C751 0.961 . S
H766 C751 0.961 . S
H767 C751 0.961 . S
H768 C752 0.931 . S
H769 C757 0.930 . S
H770 C758 0.956 . S
H771 C758 0.961 . S
H772 C758 0.961 . S
H773 C759 0.958 . S
H774 C759 0.961 . S
H775 C759 0.960 . S
C776 C777 1.391 . S
C776 C778 1.394 . S
C776 H792 0.931 . S
C777 C776 1.391 . S
C777 C781 1.376 . S
C778 C776 1.394 . S
C778 C779 1.369 . S
C778 C782 1.531 . S
C779 C778 1.369 . S
C779 C780 1.410 . S
C779 C787 1.503 . S
C780 C779 1.410 . S
C780 C781 1.392 . S
C780 C783 1.511 . S
C781 C777 1.376 . S
C781 C780 1.392 . S
C781 H793 0.929 . S
C782 C778 1.531 . S
C782 H794 0.960 . S
C782 H795 0.962 . S
C782 H796 0.960 . S
C783 C780 1.511 . S
C783 H797 0.961 . S
C783 H798 0.961 . S
C783 H799 0.961 . S
C784 C785 1.370 . S
C784 C786 1.363 . S
C784 H800 0.931 . S
C785 C784 1.370 . S
C785 C789 1.408 . S
C786 C784 1.363 . S
C786 C787 1.370 . S
C786 C790 1.524 . S
C787 C779 1.503 . S
C787 C786 1.370 . S
C787 C788 1.403 . S
C788 C787 1.403 . S
C788 C789 1.404 . S
C788 C791 1.539 . S
C789 C785 1.408 . S
C789 C788 1.404 . S
C789 H801 0.930 . S
C790 C786 1.524 . S
C790 H802 0.956 . S
C790 H803 0.961 . S
C790 H804 0.961 . S
C791 C788 1.539 . S
C791 H805 0.958 . S
C791 H806 0.961 . S
C791 H807 0.960 . S
H792 C776 0.931 . S
H793 C781 0.929 . S
H794 C782 0.960 . S
H795 C782 0.962 . S
H796 C782 0.960 . S
H797 C783 0.961 . S
H798 C783 0.961 . S
H799 C783 0.961 . S
H800 C784 0.931 . S
H801 C789 0.930 . S
H802 C790 0.956 . S
H803 C790 0.961 . S
H804 C790 0.961 . S
H805 C791 0.958 . S
H806 C791 0.961 . S
H807 C791 0.960 . S
C808 C809 1.391 . S
C808 C810 1.394 . S
C808 H824 0.931 . S
C809 C808 1.391 . S
C809 C813 1.376 . S
C810 C808 1.394 . S
C810 C811 1.369 . S
C810 C814 1.531 . S
C811 C810 1.369 . S
C811 C812 1.410 . S
C811 C819 1.503 . S
C812 C811 1.410 . S
C812 C813 1.392 . S
C812 C815 1.511 . S
C813 C809 1.376 . S
C813 C812 1.392 . S
C813 H825 0.929 . S
C814 C810 1.531 . S
C814 H826 0.960 . S
C814 H827 0.962 . S
C814 H828 0.960 . S
C815 C812 1.511 . S
C815 H829 0.961 . S
C815 H830 0.961 . S
C815 H831 0.961 . S
C816 C817 1.370 . S
C816 C818 1.363 . S
C816 H832 0.931 . S
C817 C816 1.370 . S
C817 C821 1.408 . S
C818 C816 1.363 . S
C818 C819 1.370 . S
C818 C822 1.524 . S
C819 C811 1.503 . S
C819 C818 1.370 . S
C819 C820 1.403 . S
C820 C819 1.403 . S
C820 C821 1.404 . S
C820 C823 1.539 . S
C821 C817 1.408 . S
C821 C820 1.404 . S
C821 H833 0.930 . S
C822 C818 1.524 . S
C822 H834 0.956 . S
C822 H835 0.961 . S
C822 H836 0.961 . S
C823 C820 1.539 . S
C823 H837 0.958 . S
C823 H838 0.961 . S
C823 H839 0.960 . S
H824 C808 0.931 . S
H825 C813 0.929 . S
H826 C814 0.960 . S
H827 C814 0.962 . S
H828 C814 0.960 . S
H829 C815 0.961 . S
H830 C815 0.961 . S
H831 C815 0.961 . S
H832 C816 0.931 . S
H833 C821 0.930 . S
H834 C822 0.956 . S
H835 C822 0.961 . S
H836 C822 0.961 . S
H837 C823 0.958 . S
H838 C823 0.961 . S
H839 C823 0.960 . S
C840 C841 1.391 . S
C840 C842 1.394 . S
C840 H856 0.931 . S
C841 C840 1.391 . S
C841 C845 1.376 . S
C842 C840 1.394 . S
C842 C843 1.369 . S
C842 C846 1.531 . S
C843 C842 1.369 . S
C843 C844 1.410 . S
C843 C851 1.503 . S
C844 C843 1.410 . S
C844 C845 1.392 . S
C844 C847 1.511 . S
C845 C841 1.376 . S
C845 C844 1.392 . S
C845 H857 0.929 . S
C846 C842 1.531 . S
C846 H858 0.960 . S
C846 H859 0.962 . S
C846 H860 0.960 . S
C847 C844 1.511 . S
C847 H861 0.961 . S
C847 H862 0.961 . S
C847 H863 0.961 . S
C848 C849 1.370 . S
C848 C850 1.363 . S
C848 H864 0.931 . S
C849 C848 1.370 . S
C849 C853 1.408 . S
C850 C848 1.363 . S
C850 C851 1.370 . S
C850 C854 1.524 . S
C851 C843 1.503 . S
C851 C850 1.370 . S
C851 C852 1.403 . S
C852 C851 1.403 . S
C852 C853 1.404 . S
C852 C855 1.539 . S
C853 C849 1.408 . S
C853 C852 1.404 . S
C853 H865 0.930 . S
C854 C850 1.524 . S
C854 H866 0.956 . S
C854 H867 0.961 . S
C854 H868 0.961 . S
C855 C852 1.539 . S
C855 H869 0.958 . S
C855 H870 0.961 . S
C855 H871 0.960 . S
H856 C840 0.931 . S
H857 C845 0.929 . S
H858 C846 0.960 . S
H859 C846 0.962 . S
H860 C846 0.960 . S
H861 C847 0.961 . S
H862 C847 0.961 . S
H863 C847 0.961 . S
H864 C848 0.931 . S
H865 C853 0.930 . S
H866 C854 0.956 . S
H867 C854 0.961 . S
H868 C854 0.961 . S
H869 C855 0.958 . S
H870 C855 0.961 . S
H871 C855 0.960 . S
C872 C873 1.391 . S
C872 C874 1.394 . S
C872 H888 0.931 . S
C873 C872 1.391 . S
C873 C877 1.376 . S
C874 C872 1.394 . S
C874 C875 1.369 . S
C874 C878 1.531 . S
C875 C874 1.369 . S
C875 C876 1.410 . S
C875 C883 1.503 . S
C876 C875 1.410 . S
C876 C877 1.392 . S
C876 C879 1.511 . S
C877 C873 1.376 . S
C877 C876 1.392 . S
C877 H889 0.929 . S
C878 C874 1.531 . S
C878 H890 0.960 . S
C878 H891 0.962 . S
C878 H892 0.960 . S
C879 C876 1.511 . S
C879 H893 0.961 . S
C879 H894 0.961 . S
C879 H895 0.961 . S
C880 C881 1.370 . S
C880 C882 1.363 . S
C880 H896 0.931 . S
C881 C880 1.370 . S
C881 C885 1.408 . S
C882 C880 1.363 . S
C882 C883 1.370 . S
C882 C886 1.524 . S
C883 C875 1.503 . S
C883 C882 1.370 . S
C883 C884 1.403 . S
C884 C883 1.403 . S
C884 C885 1.404 . S
C884 C887 1.539 . S
C885 C881 1.408 . S
C885 C884 1.404 . S
C885 H897 0.930 . S
C886 C882 1.524 . S
C886 H898 0.956 . S
C886 H899 0.961 . S
C886 H900 0.961 . S
C887 C884 1.539 . S
C887 H901 0.958 . S
C887 H902 0.961 . S
C887 H903 0.960 . S
H888 C872 0.931 . S
H889 C877 0.929 . S
H890 C878 0.960 . S
H891 C878 0.962 . S
H892 C878 0.960 . S
H893 C879 0.961 . S
H894 C879 0.961 . S
H895 C879 0.961 . S
H896 C880 0.931 . S
H897 C885 0.930 . S
H898 C886 0.956 . S
H899 C886 0.961 . S
H900 C886 0.961 . S
H901 C887 0.958 . S
H902 C887 0.961 . S
H903 C887 0.960 . S
C904 C905 1.391 . S
C904 C906 1.394 . S
C904 H920 0.931 . S
C905 C904 1.391 . S
C905 C909 1.376 . S
C906 C904 1.394 . S
C906 C907 1.369 . S
C906 C910 1.531 . S
C907 C906 1.369 . S
C907 C908 1.410 . S
C907 C915 1.503 . S
C908 C907 1.410 . S
C908 C909 1.392 . S
C908 C911 1.511 . S
C909 C905 1.376 . S
C909 C908 1.392 . S
C909 H921 0.929 . S
C910 C906 1.531 . S
C910 H922 0.960 . S
C910 H923 0.962 . S
C910 H924 0.960 . S
C911 C908 1.511 . S
C911 H925 0.961 . S
C911 H926 0.961 . S
C911 H927 0.961 . S
C912 C913 1.370 . S
C912 C914 1.363 . S
C912 H928 0.931 . S
C913 C912 1.370 . S
C913 C917 1.408 . S
C914 C912 1.363 . S
C914 C915 1.370 . S
C914 C918 1.524 . S
C915 C907 1.503 . S
C915 C914 1.370 . S
C915 C916 1.403 . S
C916 C915 1.403 . S
C916 C917 1.404 . S
C916 C919 1.539 . S
C917 C913 1.408 . S
C917 C916 1.404 . S
C917 H929 0.930 . S
C918 C914 1.524 . S
C918 H930 0.956 . S
C918 H931 0.961 . S
C918 H932 0.961 . S
C919 C916 1.539 . S
C919 H933 0.958 . S
C919 H934 0.961 . S
C919 H935 0.960 . S
H920 C904 0.931 . S
H921 C909 0.929 . S
H922 C910 0.960 . S
H923 C910 0.962 . S
H924 C910 0.960 . S
H925 C911 0.961 . S
H926 C911 0.961 . S
H927 C911 0.961 . S
H928 C912 0.931 . S
H929 C917 0.930 . S
H930 C918 0.956 . S
H931 C918 0.961 . S
H932 C918 0.961 . S
H933 C919 0.958 . S
H934 C919 0.961 . S
H935 C919 0.960 . S
C425 C22 1.567 . S
C433 C198 1.566 . S
C457 C38 1.597 . S
C465 C91 1.600 . S
C489 C128 1.393 . S
C497 C75 1.398 . S
C521 C188 1.461 . S
C529 C144 1.465 . S
C553 C29 1.568 . S
C561 C304 1.569 . S
C585 C39 1.598 . S
C593 C250 1.598 . S
C617 C234 1.397 . S
C625 C135 1.397 . S
C649 C145 1.461 . S
C657 C294 1.465 . S
C681 C347 1.520 . S
C689 C303 1.520 . S
C713 C251 1.638 . S
C721 C357 1.641 . S
C745 C241 1.526 . S
C753 C410 1.535 . S
C777 C287 1.333 . S
C785 C400 1.338 . S
C809 C340 1.522 . S
C817 C197 1.524 . S
C841 C92 1.635 . S
C849 C356 1.641 . S
C873 C82 1.532 . S
C881 C409 1.533 . S
C905 C181 1.330 . S
C913 C393 1.335 . S
