# Generated by pormake.
# Topology npo, (4)-cn, num edge types: 1
# Building blocks:
#     Node 0, Type 0, BuildingBlock: AZAVOO_clean_sbu_0, # of connection points: 4
#     Node 1, Type 0, BuildingBlock: AZAVOO_clean_sbu_0, # of connection points: 4
#     Node 2, Type 0, BuildingBlock: AZAVOO_clean_sbu_0, # of connection points: 4
#     Node 3, Type 0, BuildingBlock: AZAVOO_clean_sbu_0, # of connection points: 4
#     Node 4, Type 0, BuildingBlock: AZAVOO_clean_sbu_0, # of connection points: 4
#     Node 5, Type 0, BuildingBlock: AZAVOO_clean_sbu_0, # of connection points: 4
#     Edge 6, Type (0, 0), BuildingBlock: XIVTED_clean_linker_0, # of connection points: 2
#     Edge 7, Type (0, 0), BuildingBlock: XIVTED_clean_linker_0, # of connection points: 2
#     Edge 8, Type (0, 0), BuildingBlock: XIVTED_clean_linker_0, # of connection points: 2
#     Edge 9, Type (0, 0), BuildingBlock: XIVTED_clean_linker_0, # of connection points: 2
#     Edge 10, Type (0, 0), BuildingBlock: XIVTED_clean_linker_0, # of connection points: 2
#     Edge 11, Type (0, 0), BuildingBlock: XIVTED_clean_linker_0, # of connection points: 2
#     Edge 12, Type (0, 0), BuildingBlock: XIVTED_clean_linker_0, # of connection points: 2
#     Edge 13, Type (0, 0), BuildingBlock: XIVTED_clean_linker_0, # of connection points: 2
#     Edge 14, Type (0, 0), BuildingBlock: XIVTED_clean_linker_0, # of connection points: 2
#     Edge 15, Type (0, 0), BuildingBlock: XIVTED_clean_linker_0, # of connection points: 2
#     Edge 16, Type (0, 0), BuildingBlock: XIVTED_clean_linker_0, # of connection points: 2
#     Edge 17, Type (0, 0), BuildingBlock: XIVTED_clean_linker_0, # of connection points: 2
# Relax obj value: 0.261
# Max RMSD: 0.249
# Mean RMSD: 0.231
data_MOF--net-npo--node1-AZAVOO_clean_sbu_0--edge1-XIVTED_clean_linker_0
_symmetry_space_group_name_H-M    P1
_symmetry_Int_Tables_number       1
_symmetry_cell_setting            triclinic
loop_
_symmetry_equiv_pos_as_xyz
'x, y, z'
_cell_length_a     44.196862
_cell_length_b     39.623849
_cell_length_c     26.931594
_cell_angle_alpha  89.903141
_cell_angle_beta   90.223223
_cell_angle_gamma 130.53725
loop_
_atom_site_label
_atom_site_type_symbol
_atom_site_fract_x
_atom_site_fract_y
_atom_site_fract_z
_atom_type_partial_charge
Mg0 Mg 0.51457 0.09677 0.259 0.0
O1 O 0.57991 0.14245 0.23586 0.0
O2 O 0.60263 0.10619 0.24344 0.0
Mg3 Mg 0.55132 0.03667 0.27338 0.0
C4 C 0.60773 0.14087 0.23193 0.0
C5 C 0.48289 0.14594 0.24625 0.0
O6 O 0.4564 0.11321 0.27605 0.0
O7 O 0.49712 0.05927 0.18575 0.0
O8 O 0.51695 0.02066 0.20117 0.0
O9 O 0.53243 0.11826 0.33765 0.0
O10 O 0.52308 0.06114 0.30451 0.0
C11 C 0.49983 0.03016 0.17355 0.0
C12 C 0.53369 0.08666 0.34212 0.0
O13 O 0.51008 0.14694 0.22856 0.0
Mg14 Mg 0.41816 0.47557 0.80578 0.0
O15 O 0.45553 0.54949 0.78915 0.0
O16 O 0.51961 0.58548 0.80522 0.0
Mg17 Mg 0.52354 0.53344 0.83211 0.0
C18 C 0.49188 0.58514 0.79069 0.0
C19 C 0.35316 0.48135 0.78723 0.0
O20 O 0.37196 0.50671 0.82642 0.0
O21 O 0.44035 0.46779 0.73403 0.0
O22 O 0.50297 0.50039 0.75612 0.0
O23 O 0.41355 0.48748 0.88566 0.0
O24 O 0.46118 0.48982 0.8552 0.0
C25 C 0.47419 0.4789 0.72503 0.0
C26 C 0.44664 0.4953 0.89229 0.0
O27 O 0.36509 0.46256 0.76787 0.0
Mg28 Mg 0.93782 0.52375 0.1168 0.0
O29 O 0.88489 0.44956 0.12273 0.0
O30 O 0.90356 0.41074 0.10307 0.0
Mg31 Mg 0.96924 0.46133 0.08034 0.0
C32 C 0.87719 0.41267 0.11729 0.0
C33 C 0.91114 0.57433 0.16317 0.0
O34 O 0.94555 0.60965 0.14585 0.0
O35 O 0.96402 0.52012 0.18749 0.0
O36 O 0.98593 0.48605 0.16012 0.0
O37 O 0.92415 0.52424 0.03711 0.0
O38 O 0.9629 0.51087 0.06374 0.0
C39 C 0.98233 0.50547 0.19431 0.0
C40 C 0.94554 0.5134 0.02735 0.0
O41 O 0.90148 0.53648 0.15864 0.0
Mg42 Mg 0.51266 0.91737 0.75909 0.0
O43 O 0.44761 0.87263 0.73457 0.0
O44 O 0.42536 0.90933 0.74244 0.0
Mg45 Mg 0.47674 0.97817 0.77431 0.0
C46 C 0.42006 0.87466 0.73029 0.0
C47 C 0.54439 0.86846 0.74441 0.0
O48 O 0.57159 0.90151 0.77358 0.0
O49 O 0.53087 0.95609 0.68669 0.0
O50 O 0.51165 0.99519 0.70268 0.0
O51 O 0.49404 0.8946 0.83715 0.0
O52 O 0.50427 0.95264 0.80517 0.0
C53 C 0.52868 0.98574 0.67504 0.0
C54 C 0.49313 0.92642 0.8422 0.0
O55 O 0.51675 0.86724 0.72776 0.0
Mg56 Mg 0.61282 0.53962 0.30655 0.0
O57 O 0.57386 0.46552 0.29018 0.0
O58 O 0.5102 0.43082 0.30658 0.0
Mg59 Mg 0.50833 0.48451 0.33302 0.0
C60 C 0.53734 0.43032 0.29191 0.0
C61 C 0.70018 0.58256 0.27688 0.0
O62 O 0.70915 0.61439 0.30627 0.0
O63 O 0.59091 0.54816 0.23483 0.0
O64 O 0.52872 0.51687 0.25673 0.0
O65 O 0.61752 0.52722 0.38618 0.0
O66 O 0.57091 0.52715 0.35603 0.0
C67 C 0.55733 0.53772 0.22566 0.0
C68 C 0.58512 0.52082 0.39297 0.0
O69 O 0.66382 0.54937 0.26842 0.0
Mg70 Mg 0.08626 0.49434 0.61978 0.0
O71 O 0.14068 0.56825 0.62162 0.0
O72 O 0.12384 0.6082 0.59838 0.0
Mg73 Mg 0.05754 0.55869 0.57846 0.0
C74 C 0.1496 0.60552 0.61352 0.0
C75 C 0.13304 0.46201 0.6422 0.0
O76 O 0.12068 0.44678 0.59681 0.0
O77 O 0.06277 0.50258 0.68991 0.0
O78 O 0.04338 0.53866 0.65971 0.0
O79 O 0.09635 0.49011 0.53909 0.0
O80 O 0.05948 0.50526 0.56722 0.0
C81 C 0.04658 0.51984 0.69534 0.0
C82 C 0.07427 0.50021 0.53009 0.0
O83 O 0.12248 0.48168 0.66303 0.0
H84 H 0.42995 0.15496 0.27926 0.0
H85 H 0.58432 0.41768 0.24563 0.0
H86 H 0.54222 0.2263 0.20316 0.0
H87 H 0.46587 0.34566 0.30402 0.0
H88 H 0.56761 0.34735 0.22537 0.0
H89 H 0.44014 0.22334 0.28311 0.0
C90 C 0.45649 0.18485 0.26271 0.0
C91 C 0.48549 0.18498 0.24136 0.0
C92 C 0.54513 0.34686 0.24227 0.0
C93 C 0.49758 0.26354 0.24623 0.0
C94 C 0.55471 0.38708 0.25408 0.0
C95 C 0.52658 0.38767 0.27705 0.0
C96 C 0.50724 0.30674 0.25388 0.0
C97 C 0.48857 0.34686 0.28656 0.0
C98 C 0.46232 0.22393 0.26502 0.0
C99 C 0.51916 0.22465 0.22027 0.0
N100 N 0.48015 0.30805 0.27536 0.0
N101 N 0.5245 0.26243 0.22381 0.0
H102 H 0.3087 0.4343 0.70412 0.0
H103 H 0.16898 0.49577 0.73298 0.0
H104 H 0.31906 0.51407 0.82328 0.0
H105 H 0.1634 0.42445 0.60719 0.0
H106 H 0.22057 0.49755 0.76971 0.0
H107 H 0.25242 0.42574 0.67064 0.0
C108 C 0.29912 0.44993 0.72329 0.0
C109 C 0.31874 0.47507 0.76648 0.0
C110 C 0.20795 0.48133 0.73417 0.0
C111 C 0.25436 0.46533 0.7285 0.0
C112 C 0.17837 0.48018 0.71322 0.0
C113 C 0.16195 0.46014 0.66677 0.0
C114 C 0.2213 0.4623 0.70856 0.0
C115 C 0.17532 0.44044 0.64297 0.0
C116 C 0.26699 0.44503 0.70418 0.0
C117 C 0.30498 0.49452 0.78981 0.0
N118 N 0.20433 0.44219 0.66402 0.0
N119 N 0.27373 0.48928 0.7705 0.0
H120 H 0.63146 0.22239 0.2093 0.0
H121 H 0.85056 0.32785 0.12346 0.0
H122 H 0.6736 0.14993 0.2112 0.0
H123 H 0.81162 0.40283 0.14066 0.0
H124 H 0.78454 0.26083 0.14932 0.0
H125 H 0.69608 0.28738 0.1784 0.0
C126 C 0.65426 0.22005 0.20323 0.0
C127 C 0.647 0.18053 0.21309 0.0
C128 C 0.79048 0.29197 0.14727 0.0
C129 C 0.72132 0.25514 0.17745 0.0
C130 C 0.82813 0.33023 0.13234 0.0
C131 C 0.8368 0.37116 0.13002 0.0
C132 C 0.76123 0.29458 0.15976 0.0
C133 C 0.80648 0.37214 0.14208 0.0
C134 C 0.69124 0.25728 0.18556 0.0
C135 C 0.67783 0.17968 0.20434 0.0
N136 N 0.77015 0.3345 0.15646 0.0
N137 N 0.71363 0.21643 0.18702 0.0
H138 H 0.59838 0.86002 0.77468 0.0
H139 H 0.44285 0.59662 0.74767 0.0
H140 H 0.48356 0.7873 0.70376 0.0
H141 H 0.56355 0.67007 0.79961 0.0
H142 H 0.45868 0.66649 0.72713 0.0
H143 H 0.58822 0.79167 0.77869 0.0
C144 C 0.57127 0.82982 0.75929 0.0
C145 C 0.54159 0.82932 0.73936 0.0
C146 C 0.48181 0.66736 0.74266 0.0
C147 C 0.52954 0.75079 0.74446 0.0
C148 C 0.47276 0.62742 0.75461 0.0
C149 C 0.50182 0.62738 0.77583 0.0
C150 C 0.52012 0.70775 0.75236 0.0
C151 C 0.54013 0.66842 0.78355 0.0
C152 C 0.56546 0.79076 0.76169 0.0
C153 C 0.50717 0.78925 0.71973 0.0
N154 N 0.54806 0.70694 0.77222 0.0
N155 N 0.50188 0.75149 0.72336 0.0
H156 H 0.6909 0.51488 0.2311 0.0
H157 H 0.92224 0.64943 0.18563 0.0
H158 H 0.78126 0.65059 0.2797 0.0
H159 H 0.83294 0.50629 0.18488 0.0
H160 H 0.87141 0.65296 0.2128 0.0
H161 H 0.74299 0.51388 0.20471 0.0
C162 C 0.72172 0.54463 0.23592 0.0
C163 C 0.73171 0.58287 0.25779 0.0
C164 C 0.86313 0.62085 0.20689 0.0
C165 C 0.79161 0.58184 0.22768 0.0
C166 C 0.89207 0.61879 0.19141 0.0
C167 C 0.88185 0.5775 0.1829 0.0
C168 C 0.82366 0.58138 0.21319 0.0
C169 C 0.84227 0.53887 0.19101 0.0
C170 C 0.75147 0.54392 0.22111 0.0
C171 C 0.77222 0.62036 0.26316 0.0
N172 N 0.81464 0.54178 0.20532 0.0
N173 N 0.80075 0.61895 0.24813 0.0
H174 H 0.39569 0.79295 0.70708 0.0
H175 H 0.17831 0.69126 0.61604 0.0
H176 H 0.35509 0.86697 0.70748 0.0
H177 H 0.21435 0.61376 0.63789 0.0
H178 H 0.24485 0.75776 0.64159 0.0
H179 H 0.33114 0.72872 0.67454 0.0
C180 C 0.37325 0.7958 0.70032 0.0
C181 C 0.38089 0.83551 0.71031 0.0
C182 C 0.23818 0.7262 0.64058 0.0
C183 C 0.3067 0.7618 0.67275 0.0
C184 C 0.20025 0.68822 0.62578 0.0
C185 C 0.19057 0.64673 0.62502 0.0
C186 C 0.26673 0.72273 0.65449 0.0
C187 C 0.22029 0.64492 0.63815 0.0
C188 C 0.33633 0.75901 0.68171 0.0
C189 C 0.35053 0.83704 0.70061 0.0
N190 N 0.25692 0.68231 0.65243 0.0
N191 N 0.31478 0.8007 0.68239 0.0
H192 H 0.46443 0.87481 0.92571 0.0
H193 H 0.48777 0.0586 0.08858 0.0
H194 H 0.49369 0.99393 0.86542 0.0
H195 H 0.47756 0.95042 0.14833 0.0
H196 H 0.47338 0.02567 0.00565 0.0
H197 H 0.45275 0.89263 0.00632 0.0
C198 C 0.46785 0.90436 0.92923 0.0
C199 C 0.48058 0.93324 0.889 0.0
C200 C 0.47371 1.00885 0.03712 0.0
C201 C 0.46753 0.95397 -0.01901 0.0
C202 C 0.48177 0.02755 0.08438 0.0
C203 C 0.48471 1.00768 0.12505 0.0
C204 C 0.46839 0.97006 0.03088 0.0
C205 C 0.47647 0.96736 0.11771 0.0
C206 C 0.46117 0.91453 -0.02478 0.0
C207 C 0.48414 0.97084 0.89549 0.0
N208 N 0.46914 0.95015 0.07146 0.0
N209 N 0.47816 0.98044 0.94083 0.0
H210 H 0.52005 0.51081 0.41771 0.0
H211 H 0.53072 0.47334 0.70215 0.0
H212 H 0.60094 0.49457 0.47656 0.0
H213 H 0.43635 0.46429 0.63666 0.0
H214 H 0.55228 0.4725 0.61943 0.0
H215 H 0.48525 0.48646 0.49618 0.0
C216 C 0.53016 0.50137 0.44686 0.0
C217 C 0.5634 0.5045 0.44037 0.0
C218 C 0.52647 0.46997 0.62308 0.0
C219 C 0.52403 0.47759 0.53131 0.0
C220 C 0.51418 0.47055 0.67027 0.0
C221 C 0.48221 0.46984 0.67608 0.0
C222 C 0.507 0.46931 0.58142 0.0
C223 C 0.46138 0.46536 0.63374 0.0
C224 C 0.51021 0.48753 0.49188 0.0
C225 C 0.57556 0.49281 0.48007 0.0
N226 N 0.47463 0.46608 0.58802 0.0
N227 N 0.55608 0.48028 0.52417 0.0
H228 H 1.01462 0.55745 0.72122 0.0
H229 H 0.9605 0.45999 -0.00417 0.0
H230 H 0.03834 0.47481 0.7791 0.0
H231 H 0.94431 0.54997 0.94232 0.0
H232 H 0.98215 0.45853 0.91386 0.0
H233 H 0.98362 0.55005 0.79947 0.0
C234 C 1.0134 0.53776 0.75041 0.0
C235 C 0.02927 0.51679 0.74358 0.0
C236 C 0.9737 0.47846 0.91986 0.0
C237 C 0.99346 0.50805 0.83332 0.0
C238 C 0.96147 0.47946 0.96687 0.0
C239 C 0.95158 0.50603 -0.02378 0.0
C240 C 0.97622 0.50441 0.88192 0.0
C241 C 0.95193 0.52923 0.93663 0.0
C242 C 0.99553 0.53347 0.79507 0.0
C243 C 0.02671 0.49174 0.78278 0.0
N244 N 0.96462 0.52835 0.89118 0.0
N245 N 1.00914 0.4881 0.82606 0.0
H246 H 0.53532 0.02037 0.36354 0.0
H247 H 0.55398 0.06723 0.65187 0.0
H248 H 0.55985 0.13586 0.42746 0.0
H249 H 0.53798 0.95647 0.58886 0.0
H250 H 0.56795 0.09956 0.5695 0.0
H251 H 0.54754 1.0032 0.44406 0.0
C252 C 0.54398 0.04262 0.39427 0.0
C253 C 0.54614 0.07938 0.38888 0.0
C254 C 0.56196 0.06851 0.57359 0.0
C255 C 0.55955 0.05942 0.48146 0.0
C256 C 0.5539 0.04997 0.62064 0.0
C257 C 0.54402 1.00868 0.62692 0.0
C258 C 0.55947 0.04524 0.53234 0.0
C259 C 0.54511 0.98818 0.58545 0.0
C260 C 0.55089 0.0327 0.44035 0.0
C261 C 0.55738 0.10689 0.4301 0.0
N262 N 0.55191 1.0063 0.53963 0.0
N263 N 0.56315 0.09599 0.47485 0.0
H264 H 0.5131 0.50783 0.9171 0.0
H265 H 0.50103 0.54362 0.20177 0.0
H266 H 0.42984 0.52007 -0.02413 0.0
H267 H 0.59515 0.55203 0.13776 0.0
H268 H 0.47965 0.54456 0.11871 0.0
H269 H 0.54786 0.53239 -0.004 0.0
C270 C 0.50245 0.51643 0.94633 0.0
C271 C 0.46853 0.51205 0.93974 0.0
C272 C 0.50535 0.5469 0.12275 0.0
C273 C 0.50786 0.53922 0.03107 0.0
C274 C 0.51755 0.54627 0.17016 0.0
C275 C 0.54939 0.54677 0.17649 0.0
C276 C 0.52481 0.54742 0.0814 0.0
C277 C 0.5702 0.55111 0.13444 0.0
C278 C 0.52236 0.53038 -0.00841 0.0
C279 C 0.45574 0.52276 -0.02053 0.0
N280 N 0.55707 0.55046 0.08851 0.0
N281 N 0.47521 0.53544 0.02375 0.0
H282 H 0.1042 0.49855 0.44147 0.0
H283 H 0.9736 0.53399 0.28151 0.0
H284 H 0.02441 0.5149 0.50341 0.0
H285 H 0.03177 0.489 0.21836 0.0
H286 H 1.00099 0.53861 0.36259 0.0
H287 H 0.08614 0.50551 0.358 0.0
C288 C 0.08332 0.50408 0.43758 0.0
C289 C 0.06611 0.50658 0.47944 0.0
C290 C 1.00784 0.52786 0.33088 0.0
C291 C 0.04546 0.51455 0.38485 0.0
C292 C 0.99224 0.52528 0.28462 0.0
C293 C 0.99998 0.51058 0.24324 0.0
C294 C 0.03142 0.51581 0.3357 0.0
C295 C 0.02457 0.49997 0.24939 0.0
C296 C 0.07301 0.50802 0.3901 0.0
C297 C 0.03905 0.51356 0.4724 0.0
N298 N 0.03929 0.50261 0.29484 0.0
N299 N 0.02955 0.51723 0.42609 0.0
loop_
_geom_bond_atom_site_label_1
_geom_bond_atom_site_label_2
_geom_bond_distance
_geom_bond_site_symmetry_2
_ccdc_geom_bond_type
Mg0 O1 2.028 . S
Mg0 O7 1.986 . S
Mg0 O9 2.114 . S
Mg0 O10 2.251 . S
Mg0 O13 2.010 . S
O1 Mg0 2.028 . S
O1 C4 1.250 . S
O2 Mg3 2.028 . S
O2 C4 1.248 . S
Mg3 O2 2.028 . S
Mg3 O8 2.032 . S
Mg3 O10 2.079 . S
C4 O1 1.250 . S
C4 O2 1.248 . S
C5 O6 1.264 . S
C5 O13 1.249 . S
O6 C5 1.264 . S
O7 Mg0 1.986 . S
O7 C11 1.246 . S
O8 Mg3 2.032 . S
O8 C11 1.259 . S
O9 Mg0 2.114 . S
O9 C12 1.252 . S
O10 Mg0 2.251 . S
O10 Mg3 2.079 . S
O10 C12 1.273 . S
C11 O7 1.246 . S
C11 O8 1.259 . S
C12 O9 1.252 . S
C12 O10 1.273 . S
O13 Mg0 2.010 . S
O13 C5 1.249 . S
Mg14 O15 2.028 . S
Mg14 O21 1.986 . S
Mg14 O23 2.114 . S
Mg14 O24 2.251 . S
Mg14 O27 2.010 . S
O15 Mg14 2.028 . S
O15 C18 1.250 . S
O16 Mg17 2.028 . S
O16 C18 1.248 . S
Mg17 O16 2.028 . S
Mg17 O22 2.032 . S
Mg17 O24 2.079 . S
C18 O15 1.250 . S
C18 O16 1.248 . S
C19 O20 1.264 . S
C19 O27 1.249 . S
O20 C19 1.264 . S
O21 Mg14 1.986 . S
O21 C25 1.246 . S
O22 Mg17 2.032 . S
O22 C25 1.259 . S
O23 Mg14 2.114 . S
O23 C26 1.252 . S
O24 Mg14 2.251 . S
O24 Mg17 2.079 . S
O24 C26 1.273 . S
C25 O21 1.246 . S
C25 O22 1.259 . S
C26 O23 1.252 . S
C26 O24 1.273 . S
O27 Mg14 2.010 . S
O27 C19 1.249 . S
Mg28 O29 2.028 . S
Mg28 O35 1.986 . S
Mg28 O37 2.114 . S
Mg28 O38 2.251 . S
Mg28 O41 2.010 . S
O29 Mg28 2.028 . S
O29 C32 1.250 . S
O30 Mg31 2.028 . S
O30 C32 1.248 . S
Mg31 O30 2.028 . S
Mg31 O36 2.032 . S
Mg31 O38 2.079 . S
C32 O29 1.250 . S
C32 O30 1.248 . S
C33 O34 1.264 . S
C33 O41 1.249 . S
O34 C33 1.264 . S
O35 Mg28 1.986 . S
O35 C39 1.246 . S
O36 Mg31 2.032 . S
O36 C39 1.259 . S
O37 Mg28 2.114 . S
O37 C40 1.252 . S
O38 Mg28 2.251 . S
O38 Mg31 2.079 . S
O38 C40 1.273 . S
C39 O35 1.246 . S
C39 O36 1.259 . S
C40 O37 1.252 . S
C40 O38 1.273 . S
O41 Mg28 2.010 . S
O41 C33 1.249 . S
Mg42 O43 2.028 . S
Mg42 O49 1.986 . S
Mg42 O51 2.114 . S
Mg42 O52 2.251 . S
Mg42 O55 2.010 . S
O43 Mg42 2.028 . S
O43 C46 1.250 . S
O44 Mg45 2.028 . S
O44 C46 1.248 . S
Mg45 O44 2.028 . S
Mg45 O50 2.032 . S
Mg45 O52 2.079 . S
C46 O43 1.250 . S
C46 O44 1.248 . S
C47 O48 1.264 . S
C47 O55 1.249 . S
O48 C47 1.264 . S
O49 Mg42 1.986 . S
O49 C53 1.246 . S
O50 Mg45 2.032 . S
O50 C53 1.259 . S
O51 Mg42 2.114 . S
O51 C54 1.252 . S
O52 Mg42 2.251 . S
O52 Mg45 2.079 . S
O52 C54 1.273 . S
C53 O49 1.246 . S
C53 O50 1.259 . S
C54 O51 1.252 . S
C54 O52 1.273 . S
O55 Mg42 2.010 . S
O55 C47 1.249 . S
Mg56 O57 2.028 . S
Mg56 O63 1.986 . S
Mg56 O65 2.114 . S
Mg56 O66 2.251 . S
Mg56 O69 2.010 . S
O57 Mg56 2.028 . S
O57 C60 1.250 . S
O58 Mg59 2.028 . S
O58 C60 1.248 . S
Mg59 O58 2.028 . S
Mg59 O64 2.032 . S
Mg59 O66 2.079 . S
C60 O57 1.250 . S
C60 O58 1.248 . S
C61 O62 1.264 . S
C61 O69 1.249 . S
O62 C61 1.264 . S
O63 Mg56 1.986 . S
O63 C67 1.246 . S
O64 Mg59 2.032 . S
O64 C67 1.259 . S
O65 Mg56 2.114 . S
O65 C68 1.252 . S
O66 Mg56 2.251 . S
O66 Mg59 2.079 . S
O66 C68 1.273 . S
C67 O63 1.246 . S
C67 O64 1.259 . S
C68 O65 1.252 . S
C68 O66 1.273 . S
O69 Mg56 2.010 . S
O69 C61 1.249 . S
Mg70 O71 2.028 . S
Mg70 O77 1.986 . S
Mg70 O79 2.114 . S
Mg70 O80 2.251 . S
Mg70 O83 2.010 . S
O71 Mg70 2.028 . S
O71 C74 1.250 . S
O72 Mg73 2.028 . S
O72 C74 1.248 . S
Mg73 O72 2.028 . S
Mg73 O78 2.032 . S
Mg73 O80 2.079 . S
C74 O71 1.250 . S
C74 O72 1.248 . S
C75 O76 1.264 . S
C75 O83 1.249 . S
O76 C75 1.264 . S
O77 Mg70 1.986 . S
O77 C81 1.246 . S
O78 Mg73 2.032 . S
O78 C81 1.259 . S
O79 Mg70 2.114 . S
O79 C82 1.252 . S
O80 Mg70 2.251 . S
O80 Mg73 2.079 . S
O80 C82 1.273 . S
C81 O77 1.246 . S
C81 O78 1.259 . S
C82 O79 1.252 . S
C82 O80 1.273 . S
O83 Mg70 2.010 . S
O83 C75 1.249 . S
H84 C90 0.930 . S
H85 C94 0.930 . S
H86 C99 0.929 . S
H87 C97 0.929 . S
H88 C92 0.929 . S
H89 C98 0.929 . S
C90 H84 0.930 . S
C90 C91 1.367 . S
C90 C98 1.378 . S
C91 C90 1.367 . S
C91 C99 1.433 . S
C92 H88 0.929 . S
C92 C94 1.378 . S
C92 C96 1.350 . S
C93 C96 1.463 . S
C93 C98 1.350 . S
C93 N101 1.427 . S
C94 H85 0.930 . S
C94 C92 1.378 . S
C94 C95 1.367 . S
C95 C94 1.367 . S
C95 C97 1.433 . S
C96 C92 1.350 . S
C96 C93 1.463 . S
C96 N100 1.427 . S
C97 H87 0.929 . S
C97 C95 1.433 . S
C97 N100 1.384 . S
C98 H89 0.929 . S
C98 C90 1.378 . S
C98 C93 1.350 . S
C99 H86 0.929 . S
C99 C91 1.433 . S
C99 N101 1.384 . S
N100 C96 1.427 . S
N100 C97 1.384 . S
N101 C93 1.427 . S
N101 C99 1.384 . S
H102 C108 0.930 . S
H103 C112 0.930 . S
H104 C117 0.929 . S
H105 C115 0.929 . S
H106 C110 0.929 . S
H107 C116 0.929 . S
C108 H102 0.930 . S
C108 C109 1.367 . S
C108 C116 1.378 . S
C109 C108 1.367 . S
C109 C117 1.433 . S
C110 H106 0.929 . S
C110 C112 1.378 . S
C110 C114 1.350 . S
C111 C114 1.463 . S
C111 C116 1.350 . S
C111 N119 1.427 . S
C112 H103 0.930 . S
C112 C110 1.378 . S
C112 C113 1.367 . S
C113 C112 1.367 . S
C113 C115 1.433 . S
C114 C110 1.350 . S
C114 C111 1.463 . S
C114 N118 1.427 . S
C115 H105 0.929 . S
C115 C113 1.433 . S
C115 N118 1.384 . S
C116 H107 0.929 . S
C116 C108 1.378 . S
C116 C111 1.350 . S
C117 H104 0.929 . S
C117 C109 1.433 . S
C117 N119 1.384 . S
N118 C114 1.427 . S
N118 C115 1.384 . S
N119 C111 1.427 . S
N119 C117 1.384 . S
H120 C126 0.930 . S
H121 C130 0.930 . S
H122 C135 0.929 . S
H123 C133 0.929 . S
H124 C128 0.929 . S
H125 C134 0.929 . S
C126 H120 0.930 . S
C126 C127 1.367 . S
C126 C134 1.378 . S
C127 C126 1.367 . S
C127 C135 1.433 . S
C128 H124 0.929 . S
C128 C130 1.378 . S
C128 C132 1.350 . S
C129 C132 1.463 . S
C129 C134 1.350 . S
C129 N137 1.427 . S
C130 H121 0.930 . S
C130 C128 1.378 . S
C130 C131 1.367 . S
C131 C130 1.367 . S
C131 C133 1.433 . S
C132 C128 1.350 . S
C132 C129 1.463 . S
C132 N136 1.427 . S
C133 H123 0.929 . S
C133 C131 1.433 . S
C133 N136 1.384 . S
C134 H125 0.929 . S
C134 C126 1.378 . S
C134 C129 1.350 . S
C135 H122 0.929 . S
C135 C127 1.433 . S
C135 N137 1.384 . S
N136 C132 1.427 . S
N136 C133 1.384 . S
N137 C129 1.427 . S
N137 C135 1.384 . S
H138 C144 0.930 . S
H139 C148 0.930 . S
H140 C153 0.929 . S
H141 C151 0.929 . S
H142 C146 0.929 . S
H143 C152 0.929 . S
C144 H138 0.930 . S
C144 C145 1.367 . S
C144 C152 1.378 . S
C145 C144 1.367 . S
C145 C153 1.433 . S
C146 H142 0.929 . S
C146 C148 1.378 . S
C146 C150 1.350 . S
C147 C150 1.463 . S
C147 C152 1.350 . S
C147 N155 1.427 . S
C148 H139 0.930 . S
C148 C146 1.378 . S
C148 C149 1.367 . S
C149 C148 1.367 . S
C149 C151 1.433 . S
C150 C146 1.350 . S
C150 C147 1.463 . S
C150 N154 1.427 . S
C151 H141 0.929 . S
C151 C149 1.433 . S
C151 N154 1.384 . S
C152 H143 0.929 . S
C152 C144 1.378 . S
C152 C147 1.350 . S
C153 H140 0.929 . S
C153 C145 1.433 . S
C153 N155 1.384 . S
N154 C150 1.427 . S
N154 C151 1.384 . S
N155 C147 1.427 . S
N155 C153 1.384 . S
H156 C162 0.930 . S
H157 C166 0.930 . S
H158 C171 0.929 . S
H159 C169 0.929 . S
H160 C164 0.929 . S
H161 C170 0.929 . S
C162 H156 0.930 . S
C162 C163 1.367 . S
C162 C170 1.378 . S
C163 C162 1.367 . S
C163 C171 1.433 . S
C164 H160 0.929 . S
C164 C166 1.378 . S
C164 C168 1.350 . S
C165 C168 1.463 . S
C165 C170 1.350 . S
C165 N173 1.427 . S
C166 H157 0.930 . S
C166 C164 1.378 . S
C166 C167 1.367 . S
C167 C166 1.367 . S
C167 C169 1.433 . S
C168 C164 1.350 . S
C168 C165 1.463 . S
C168 N172 1.427 . S
C169 H159 0.929 . S
C169 C167 1.433 . S
C169 N172 1.384 . S
C170 H161 0.929 . S
C170 C162 1.378 . S
C170 C165 1.350 . S
C171 H158 0.929 . S
C171 C163 1.433 . S
C171 N173 1.384 . S
N172 C168 1.427 . S
N172 C169 1.384 . S
N173 C165 1.427 . S
N173 C171 1.384 . S
H174 C180 0.930 . S
H175 C184 0.930 . S
H176 C189 0.929 . S
H177 C187 0.929 . S
H178 C182 0.929 . S
H179 C188 0.929 . S
C180 H174 0.930 . S
C180 C181 1.367 . S
C180 C188 1.378 . S
C181 C180 1.367 . S
C181 C189 1.433 . S
C182 H178 0.929 . S
C182 C184 1.378 . S
C182 C186 1.350 . S
C183 C186 1.463 . S
C183 C188 1.350 . S
C183 N191 1.427 . S
C184 H175 0.930 . S
C184 C182 1.378 . S
C184 C185 1.367 . S
C185 C184 1.367 . S
C185 C187 1.433 . S
C186 C182 1.350 . S
C186 C183 1.463 . S
C186 N190 1.427 . S
C187 H177 0.929 . S
C187 C185 1.433 . S
C187 N190 1.384 . S
C188 H179 0.929 . S
C188 C180 1.378 . S
C188 C183 1.350 . S
C189 H176 0.929 . S
C189 C181 1.433 . S
C189 N191 1.384 . S
N190 C186 1.427 . S
N190 C187 1.384 . S
N191 C183 1.427 . S
N191 C189 1.384 . S
H192 C198 0.930 . S
H193 C202 0.930 . S
H194 C207 0.929 . S
H195 C205 0.929 . S
H196 C200 0.929 1_556 S
H197 C206 0.929 1_554 S
C198 H192 0.930 . S
C198 C199 1.367 . S
C198 C206 1.378 . S
C199 C198 1.367 . S
C199 C207 1.433 . S
C200 H196 0.929 1_554 S
C200 C202 1.378 . S
C200 C204 1.350 . S
C201 C204 1.463 1_566 S
C201 C206 1.350 . S
C201 N209 1.427 1_565 S
C202 H193 0.930 . S
C202 C200 1.378 . S
C202 C203 1.367 . S
C203 C202 1.367 . S
C203 C205 1.433 . S
C204 C200 1.350 . S
C204 C201 1.463 1_544 S
C204 N208 1.427 1_545 S
C205 H195 0.929 . S
C205 C203 1.433 . S
C205 N208 1.384 1_545 S
C206 H197 0.929 1_556 S
C206 C198 1.378 . S
C206 C201 1.350 . S
C207 H194 0.929 . S
C207 C199 1.433 . S
C207 N209 1.383 1_565 S
N208 C204 1.427 1_565 S
N208 C205 1.384 1_565 S
N209 C201 1.427 1_545 S
N209 C207 1.383 1_545 S
H210 C216 0.930 . S
H211 C220 0.930 . S
H212 C225 0.929 . S
H213 C223 0.929 . S
H214 C218 0.929 . S
H215 C224 0.929 . S
C216 H210 0.930 . S
C216 C217 1.367 . S
C216 C224 1.378 . S
C217 C216 1.367 . S
C217 C225 1.433 . S
C218 H214 0.929 . S
C218 C220 1.378 . S
C218 C222 1.350 . S
C219 C222 1.463 . S
C219 C224 1.350 . S
C219 N227 1.427 . S
C220 H211 0.930 . S
C220 C218 1.378 . S
C220 C221 1.367 . S
C221 C220 1.367 . S
C221 C223 1.433 . S
C222 C218 1.350 . S
C222 C219 1.463 . S
C222 N226 1.427 . S
C223 H213 0.929 . S
C223 C221 1.433 . S
C223 N226 1.384 . S
C224 H215 0.929 . S
C224 C216 1.378 . S
C224 C219 1.350 . S
C225 H212 0.929 . S
C225 C217 1.433 . S
C225 N227 1.384 . S
N226 C222 1.427 . S
N226 C223 1.384 . S
N227 C219 1.427 . S
N227 C225 1.384 . S
H228 C234 0.930 . S
H229 C238 0.930 . S
H230 C243 0.929 . S
H231 C241 0.929 . S
H232 C236 0.929 . S
H233 C242 0.929 . S
C234 H228 0.930 . S
C234 C235 1.367 . S
C234 C242 1.378 . S
C235 C234 1.367 . S
C235 C243 1.433 . S
C236 H232 0.929 . S
C236 C238 1.378 . S
C236 C240 1.350 . S
C237 C240 1.463 1_456 S
C237 C242 1.350 . S
C237 N245 1.427 . S
C238 H229 0.930 . S
C238 C236 1.378 . S
C238 C239 1.367 . S
C239 C238 1.367 . S
C239 C241 1.433 . S
C240 C236 1.350 . S
C240 C237 1.463 1_654 S
C240 N244 1.427 . S
C241 H231 0.929 . S
C241 C239 1.433 . S
C241 N244 1.384 . S
C242 H233 0.929 . S
C242 C234 1.378 . S
C242 C237 1.350 . S
C243 H230 0.929 . S
C243 C235 1.433 . S
C243 N245 1.384 . S
N244 C240 1.427 . S
N244 C241 1.384 . S
N245 C237 1.427 . S
N245 C243 1.384 . S
H246 C252 0.930 1_565 S
H247 C256 0.930 1_545 S
H248 C261 0.929 . S
H249 C259 0.929 . S
H250 C254 0.929 . S
H251 C260 0.929 . S
C252 H246 0.930 1_545 S
C252 C253 1.367 . S
C252 C260 1.378 1_545 S
C253 C252 1.367 . S
C253 C261 1.433 . S
C254 H250 0.929 . S
C254 C256 1.378 1_545 S
C254 C258 1.350 1_545 S
C255 C258 1.463 1_545 S
C255 C260 1.350 1_545 S
C255 N263 1.427 . S
C256 H247 0.930 1_565 S
C256 C254 1.378 1_565 S
C256 C257 1.367 . S
C257 C256 1.367 . S
C257 C259 1.433 . S
C258 C254 1.350 1_565 S
C258 C255 1.463 1_565 S
C258 N262 1.427 . S
C259 H249 0.929 . S
C259 C257 1.433 . S
C259 N262 1.384 . S
C260 H251 0.929 . S
C260 C252 1.378 1_565 S
C260 C255 1.350 1_565 S
C261 H248 0.929 . S
C261 C253 1.433 . S
C261 N263 1.384 . S
N262 C258 1.427 . S
N262 C259 1.384 . S
N263 C255 1.427 . S
N263 C261 1.384 . S
H264 C270 0.930 . S
H265 C274 0.930 . S
H266 C279 0.929 . S
H267 C277 0.929 . S
H268 C272 0.929 . S
H269 C278 0.929 . S
C270 H264 0.930 . S
C270 C271 1.367 . S
C270 C278 1.378 . S
C271 C270 1.367 . S
C271 C279 1.433 . S
C272 H268 0.929 . S
C272 C274 1.378 . S
C272 C276 1.350 . S
C273 C276 1.463 1_556 S
C273 C278 1.350 . S
C273 N281 1.427 . S
C274 H265 0.930 . S
C274 C272 1.378 . S
C274 C275 1.367 . S
C275 C274 1.367 . S
C275 C277 1.433 . S
C276 C272 1.350 . S
C276 C273 1.463 1_554 S
C276 N280 1.427 . S
C277 H267 0.929 . S
C277 C275 1.433 . S
C277 N280 1.384 . S
C278 H269 0.929 . S
C278 C270 1.378 . S
C278 C273 1.350 . S
C279 H266 0.929 . S
C279 C271 1.433 . S
C279 N281 1.384 . S
N280 C276 1.427 . S
N280 C277 1.384 . S
N281 C273 1.427 . S
N281 C279 1.384 . S
H282 C288 0.930 . S
H283 C292 0.930 . S
H284 C297 0.929 . S
H285 C295 0.929 . S
H286 C290 0.929 . S
H287 C296 0.929 . S
C288 H282 0.930 . S
C288 C289 1.367 . S
C288 C296 1.378 . S
C289 C288 1.367 . S
C289 C297 1.433 1_455 S
C290 H286 0.929 . S
C290 C292 1.378 . S
C290 C294 1.350 . S
C291 C294 1.463 1_455 S
C291 C296 1.350 . S
C291 N299 1.427 1_455 S
C292 H283 0.930 . S
C292 C290 1.378 . S
C292 C293 1.367 . S
C293 C292 1.367 . S
C293 C295 1.433 1_655 S
C294 C290 1.350 . S
C294 C291 1.463 1_655 S
C294 N298 1.427 1_655 S
C295 H285 0.929 . S
C295 C293 1.433 1_455 S
C295 N298 1.384 . S
C296 H287 0.929 . S
C296 C288 1.378 . S
C296 C291 1.350 . S
C297 H284 0.929 . S
C297 C289 1.433 1_655 S
C297 N299 1.384 . S
N298 C294 1.427 1_455 S
N298 C295 1.384 . S
N299 C291 1.427 1_655 S
N299 C297 1.384 . S
C91 C5 0.997 . S
C95 C60 1.021 . S
C109 C19 1.025 . S
C113 C75 1.033 . S
C127 C4 1.046 . S
C131 C32 1.044 . S
C145 C47 0.982 . S
C149 C18 1.028 . S
C163 C61 1.044 . S
C167 C33 1.010 . S
C181 C46 1.047 . S
C185 C74 1.043 . S
C199 C54 1.418 . S
C203 C11 1.387 . S
C217 C68 1.443 . S
C221 C25 1.397 . S
C235 C81 1.382 . S
C239 C40 1.430 . S
C253 C12 1.419 . S
C257 C53 1.380 . S
C271 C26 1.440 . S
C275 C67 1.389 . S
C289 C82 1.429 . S
C293 C39 1.385 . S
