# Generated by pormake.
# Topology thp-x, (12)-cn, num edge types: 1
# Building blocks:
#     Node 0, Type 0, BuildingBlock: ZALLEG_clean_sbu_0, # of connection points: 12
#     Node 1, Type 0, BuildingBlock: ZALLEG_clean_sbu_0, # of connection points: 12
#     Node 2, Type 0, BuildingBlock: ZALLEG_clean_sbu_0, # of connection points: 12
#     Node 3, Type 0, BuildingBlock: ZALLEG_clean_sbu_0, # of connection points: 12
#     Node 4, Type 0, BuildingBlock: ZALLEG_clean_sbu_0, # of connection points: 12
#     Node 5, Type 0, BuildingBlock: ZALLEG_clean_sbu_0, # of connection points: 12
#     Node 6, Type 0, BuildingBlock: ZALLEG_clean_sbu_0, # of connection points: 12
#     Node 7, Type 0, BuildingBlock: ZALLEG_clean_sbu_0, # of connection points: 12
#     Node 8, Type 0, BuildingBlock: ZALLEG_clean_sbu_0, # of connection points: 12
#     Node 9, Type 0, BuildingBlock: ZALLEG_clean_sbu_0, # of connection points: 12
#     Node 10, Type 0, BuildingBlock: ZALLEG_clean_sbu_0, # of connection points: 12
#     Node 11, Type 0, BuildingBlock: ZALLEG_clean_sbu_0, # of connection points: 12
#     Edge 12, Type (0, 0), BuildingBlock: CIFDUS_clean_linker_0, # of connection points: 2
#     Edge 13, Type (0, 0), BuildingBlock: CIFDUS_clean_linker_0, # of connection points: 2
#     Edge 14, Type (0, 0), BuildingBlock: CIFDUS_clean_linker_0, # of connection points: 2
#     Edge 15, Type (0, 0), BuildingBlock: CIFDUS_clean_linker_0, # of connection points: 2
#     Edge 16, Type (0, 0), BuildingBlock: CIFDUS_clean_linker_0, # of connection points: 2
#     Edge 17, Type (0, 0), BuildingBlock: CIFDUS_clean_linker_0, # of connection points: 2
#     Edge 18, Type (0, 0), BuildingBlock: CIFDUS_clean_linker_0, # of connection points: 2
#     Edge 19, Type (0, 0), BuildingBlock: CIFDUS_clean_linker_0, # of connection points: 2
#     Edge 20, Type (0, 0), BuildingBlock: CIFDUS_clean_linker_0, # of connection points: 2
#     Edge 21, Type (0, 0), BuildingBlock: CIFDUS_clean_linker_0, # of connection points: 2
#     Edge 22, Type (0, 0), BuildingBlock: CIFDUS_clean_linker_0, # of connection points: 2
#     Edge 23, Type (0, 0), BuildingBlock: CIFDUS_clean_linker_0, # of connection points: 2
#     Edge 24, Type (0, 0), BuildingBlock: CIFDUS_clean_linker_0, # of connection points: 2
#     Edge 25, Type (0, 0), BuildingBlock: CIFDUS_clean_linker_0, # of connection points: 2
#     Edge 26, Type (0, 0), BuildingBlock: CIFDUS_clean_linker_0, # of connection points: 2
#     Edge 27, Type (0, 0), BuildingBlock: CIFDUS_clean_linker_0, # of connection points: 2
#     Edge 28, Type (0, 0), BuildingBlock: CIFDUS_clean_linker_0, # of connection points: 2
#     Edge 29, Type (0, 0), BuildingBlock: CIFDUS_clean_linker_0, # of connection points: 2
#     Edge 30, Type (0, 0), BuildingBlock: CIFDUS_clean_linker_0, # of connection points: 2
#     Edge 31, Type (0, 0), BuildingBlock: CIFDUS_clean_linker_0, # of connection points: 2
#     Edge 32, Type (0, 0), BuildingBlock: CIFDUS_clean_linker_0, # of connection points: 2
#     Edge 33, Type (0, 0), BuildingBlock: CIFDUS_clean_linker_0, # of connection points: 2
#     Edge 34, Type (0, 0), BuildingBlock: CIFDUS_clean_linker_0, # of connection points: 2
#     Edge 35, Type (0, 0), BuildingBlock: CIFDUS_clean_linker_0, # of connection points: 2
#     Edge 36, Type (0, 0), BuildingBlock: CIFDUS_clean_linker_0, # of connection points: 2
#     Edge 37, Type (0, 0), BuildingBlock: CIFDUS_clean_linker_0, # of connection points: 2
#     Edge 38, Type (0, 0), BuildingBlock: CIFDUS_clean_linker_0, # of connection points: 2
#     Edge 39, Type (0, 0), BuildingBlock: CIFDUS_clean_linker_0, # of connection points: 2
#     Edge 40, Type (0, 0), BuildingBlock: CIFDUS_clean_linker_0, # of connection points: 2
#     Edge 41, Type (0, 0), BuildingBlock: CIFDUS_clean_linker_0, # of connection points: 2
#     Edge 42, Type (0, 0), BuildingBlock: CIFDUS_clean_linker_0, # of connection points: 2
#     Edge 43, Type (0, 0), BuildingBlock: CIFDUS_clean_linker_0, # of connection points: 2
#     Edge 44, Type (0, 0), BuildingBlock: CIFDUS_clean_linker_0, # of connection points: 2
#     Edge 45, Type (0, 0), BuildingBlock: CIFDUS_clean_linker_0, # of connection points: 2
#     Edge 46, Type (0, 0), BuildingBlock: CIFDUS_clean_linker_0, # of connection points: 2
#     Edge 47, Type (0, 0), BuildingBlock: CIFDUS_clean_linker_0, # of connection points: 2
#     Edge 48, Type (0, 0), BuildingBlock: CIFDUS_clean_linker_0, # of connection points: 2
#     Edge 49, Type (0, 0), BuildingBlock: CIFDUS_clean_linker_0, # of connection points: 2
#     Edge 50, Type (0, 0), BuildingBlock: CIFDUS_clean_linker_0, # of connection points: 2
#     Edge 51, Type (0, 0), BuildingBlock: CIFDUS_clean_linker_0, # of connection points: 2
#     Edge 52, Type (0, 0), BuildingBlock: CIFDUS_clean_linker_0, # of connection points: 2
#     Edge 53, Type (0, 0), BuildingBlock: CIFDUS_clean_linker_0, # of connection points: 2
#     Edge 54, Type (0, 0), BuildingBlock: CIFDUS_clean_linker_0, # of connection points: 2
#     Edge 55, Type (0, 0), BuildingBlock: CIFDUS_clean_linker_0, # of connection points: 2
#     Edge 56, Type (0, 0), BuildingBlock: CIFDUS_clean_linker_0, # of connection points: 2
#     Edge 57, Type (0, 0), BuildingBlock: CIFDUS_clean_linker_0, # of connection points: 2
#     Edge 58, Type (0, 0), BuildingBlock: CIFDUS_clean_linker_0, # of connection points: 2
#     Edge 59, Type (0, 0), BuildingBlock: CIFDUS_clean_linker_0, # of connection points: 2
#     Edge 60, Type (0, 0), BuildingBlock: CIFDUS_clean_linker_0, # of connection points: 2
#     Edge 61, Type (0, 0), BuildingBlock: CIFDUS_clean_linker_0, # of connection points: 2
#     Edge 62, Type (0, 0), BuildingBlock: CIFDUS_clean_linker_0, # of connection points: 2
#     Edge 63, Type (0, 0), BuildingBlock: CIFDUS_clean_linker_0, # of connection points: 2
#     Edge 64, Type (0, 0), BuildingBlock: CIFDUS_clean_linker_0, # of connection points: 2
#     Edge 65, Type (0, 0), BuildingBlock: CIFDUS_clean_linker_0, # of connection points: 2
#     Edge 66, Type (0, 0), BuildingBlock: CIFDUS_clean_linker_0, # of connection points: 2
#     Edge 67, Type (0, 0), BuildingBlock: CIFDUS_clean_linker_0, # of connection points: 2
#     Edge 68, Type (0, 0), BuildingBlock: CIFDUS_clean_linker_0, # of connection points: 2
#     Edge 69, Type (0, 0), BuildingBlock: CIFDUS_clean_linker_0, # of connection points: 2
#     Edge 70, Type (0, 0), BuildingBlock: CIFDUS_clean_linker_0, # of connection points: 2
#     Edge 71, Type (0, 0), BuildingBlock: CIFDUS_clean_linker_0, # of connection points: 2
#     Edge 72, Type (0, 0), BuildingBlock: CIFDUS_clean_linker_0, # of connection points: 2
#     Edge 73, Type (0, 0), BuildingBlock: CIFDUS_clean_linker_0, # of connection points: 2
#     Edge 74, Type (0, 0), BuildingBlock: CIFDUS_clean_linker_0, # of connection points: 2
#     Edge 75, Type (0, 0), BuildingBlock: CIFDUS_clean_linker_0, # of connection points: 2
#     Edge 76, Type (0, 0), BuildingBlock: CIFDUS_clean_linker_0, # of connection points: 2
#     Edge 77, Type (0, 0), BuildingBlock: CIFDUS_clean_linker_0, # of connection points: 2
#     Edge 78, Type (0, 0), BuildingBlock: CIFDUS_clean_linker_0, # of connection points: 2
#     Edge 79, Type (0, 0), BuildingBlock: CIFDUS_clean_linker_0, # of connection points: 2
#     Edge 80, Type (0, 0), BuildingBlock: CIFDUS_clean_linker_0, # of connection points: 2
#     Edge 81, Type (0, 0), BuildingBlock: CIFDUS_clean_linker_0, # of connection points: 2
#     Edge 82, Type (0, 0), BuildingBlock: CIFDUS_clean_linker_0, # of connection points: 2
#     Edge 83, Type (0, 0), BuildingBlock: CIFDUS_clean_linker_0, # of connection points: 2
# Relax obj value: 0.246
# Max RMSD: 0.289
# Mean RMSD: 0.289
data_MOF--net-thp-x--node1-ZALLEG_clean_sbu_0--edge1-CIFDUS_clean_linker_0
_symmetry_space_group_name_H-M    P1
_symmetry_Int_Tables_number       1
_symmetry_cell_setting            triclinic
loop_
_symmetry_equiv_pos_as_xyz
'x, y, z'
_cell_length_a     31.093243
_cell_length_b     31.122013
_cell_length_c     31.089598
_cell_angle_alpha  89.952125
_cell_angle_beta   90.040258
_cell_angle_gamma 89.969642
loop_
_atom_site_label
_atom_site_type_symbol
_atom_site_fract_x
_atom_site_fract_y
_atom_site_fract_z
_atom_type_partial_charge
H0 H 0.08576 0.21311 0.46726 0.0
O1 O 0.06793 0.23301 0.45002 0.0
Tb2 Tb 1.03111 0.2728 0.49103 0.0
Tb3 Tb 0.10584 0.27049 0.40774 0.0
Tb4 Tb 1.0258 0.19954 0.41005 0.0
O5 O 0.07241 0.3095 0.45142 0.0
O6 O 0.98904 0.238 0.45044 0.0
O7 O 0.99396 0.31501 0.45304 0.0
O8 O 0.07101 0.31314 0.36937 0.0
O9 O 0.98905 0.23938 0.36865 0.0
O10 O 0.06573 0.23465 0.36809 0.0
H11 H 0.09308 0.32597 0.46896 0.0
H12 H 0.96887 0.22011 0.46722 0.0
Tb13 Tb 1.03544 0.35023 0.41364 0.0
Tb14 Tb 0.95498 0.28014 0.40965 0.0
H15 H 0.97693 0.33382 0.47215 0.0
H16 H 0.0902 0.33127 0.35169 0.0
Tb17 Tb 1.02931 0.27714 0.3294 0.0
H18 H 0.96945 0.22275 0.34999 0.0
H19 H 0.08278 0.21505 0.34987 0.0
O20 O 0.99416 0.31791 0.37101 0.0
H21 H 0.97681 0.339 0.35481 0.0
O22 O 0.1057 0.26873 0.51853 0.0
O23 O 0.96981 0.28472 0.29451 0.0
O24 O 0.08753 0.27259 0.29253 0.0
O25 O 0.95686 0.27506 0.51995 0.0
O26 O 0.13836 0.2095 0.40879 0.0
O27 O 0.92347 0.34184 0.41526 0.0
O28 O 0.91298 0.22412 0.40786 0.0
O29 O 0.14761 0.32698 0.41137 0.0
O30 O 1.02441 0.16138 0.46964 0.0
O31 O 1.03551 0.39794 0.36411 0.0
O32 O 0.04193 0.38478 0.47444 0.0
O33 O 1.02308 0.15455 0.3591 0.0
O34 O 0.15255 0.26712 0.45776 0.0
O35 O 0.91735 0.2863 0.35043 0.0
O36 O 0.90901 0.27958 0.46016 0.0
O37 O 0.14145 0.26919 0.34691 0.0
O38 O 0.03765 0.33062 0.52841 0.0
O39 O 1.02554 0.20313 0.29976 0.0
O40 O 1.03226 0.35201 0.3028 0.0
O41 O 1.02538 0.21358 0.52577 0.0
O42 O 0.09629 0.38282 0.41038 0.0
O43 O 0.96402 0.16775 0.40596 0.0
O44 O 0.08264 0.15811 0.40551 0.0
O45 O 0.97993 0.39244 0.4168 0.0
C46 C 0.14739 0.26738 0.49986 0.0
C47 C 0.92955 0.28832 0.30933 0.0
C48 C 0.12839 0.27054 0.3059 0.0
C49 C 0.9148 0.27699 0.50205 0.0
C50 C 0.12399 0.16937 0.40593 0.0
C51 C 0.93853 0.38192 0.41667 0.0
C52 C 0.92393 0.18287 0.40557 0.0
C53 C 0.13645 0.36831 0.41194 0.0
C54 C 1.02341 0.17337 0.51094 0.0
C55 C 1.03395 0.39343 0.32192 0.0
C56 C 0.04178 0.3714 0.51529 0.0
C57 C 1.02387 0.16087 0.31727 0.0
H58 H 0.5853 0.71285 0.96834 0.0
O59 O 0.56749 0.73239 0.9507 0.0
Tb60 Tb 0.53051 0.77222 0.9914 0.0
Tb61 Tb 0.60544 0.7697 0.9083 0.0
Tb62 Tb 0.52575 0.69819 0.91087 0.0
O63 O 0.57164 0.80888 0.95158 0.0
O64 O 0.48867 0.73679 0.95101 0.0
O65 O 0.49317 0.81394 0.9531 0.0
O66 O 0.57043 0.81193 0.86965 0.0
O67 O 0.4889 0.73768 0.86922 0.0
O68 O 0.56573 0.7332 0.86882 0.0
H69 H 0.59218 0.82558 0.96903 0.0
H70 H 0.46854 0.71897 0.9679 0.0
Tb71 Tb 0.53444 0.8492 0.91352 0.0
Tb72 Tb 0.4544 0.77852 0.90991 0.0
H73 H 0.47608 0.83279 0.9721 0.0
H74 H 0.5896 0.83001 0.8519 0.0
Tb75 Tb 0.52912 0.77534 0.82984 0.0
H76 H 0.46949 0.72089 0.85052 0.0
H77 H 0.583 0.71349 0.85092 0.0
O78 O 0.49353 0.81622 0.87108 0.0
H79 H 0.47614 0.83715 0.85472 0.0
O80 O 0.6051 0.76869 1.01906 0.0
O81 O 0.46974 0.78253 0.7948 0.0
O82 O 0.58733 0.77082 0.79299 0.0
O83 O 0.45632 0.77491 1.02034 0.0
O84 O 0.63855 0.70901 0.91091 0.0
O85 O 0.42205 0.83986 0.91573 0.0
O86 O 0.41272 0.72237 0.90779 0.0
O87 O 0.6468 0.82646 0.91142 0.0
O88 O 0.5246 0.66052 0.97081 0.0
O89 O 0.53455 0.89646 0.86363 0.0
O90 O 0.53964 0.88426 0.97428 0.0
O91 O 0.5237 0.65276 0.86003 0.0
O92 O 0.6521 0.76714 0.95841 0.0
O93 O 0.41703 0.78443 0.8505 0.0
O94 O 0.40838 0.77761 0.96051 0.0
O95 O 0.64113 0.76796 0.84749 0.0
O96 O 0.53734 0.83008 1.02858 0.0
O97 O 0.5257 0.70118 0.80052 0.0
O98 O 0.53195 0.85001 0.80267 0.0
O99 O 0.525 0.71321 1.0265 0.0
O100 O 0.59519 0.88206 0.91054 0.0
O101 O 0.46404 0.6662 0.90677 0.0
O102 O 0.58303 0.6572 0.90741 0.0
O103 O 0.47836 0.89088 0.91542 0.0
C104 C 0.64685 0.76747 1.0005 0.0
C105 C 0.42945 0.78627 0.80945 0.0
C106 C 0.62817 0.76904 0.80643 0.0
C107 C 0.41424 0.77611 1.00246 0.0
C108 C 0.6242 0.66886 0.90931 0.0
C109 C 0.43714 0.87983 0.91691 0.0
C110 C 0.42388 0.68118 0.90579 0.0
C111 C 0.63543 0.86773 0.91203 0.0
C112 C 0.52351 0.67286 1.012 0.0
C113 C 0.53324 0.89158 0.82148 0.0
C114 C 0.54103 0.87066 1.01502 0.0
C115 C 0.52439 0.65894 0.81812 0.0
H116 H 0.97555 0.71485 0.21967 0.0
O117 O 0.9932 0.73453 0.20206 0.0
Tb118 Tb 1.02834 0.77746 0.24137 0.0
Tb119 Tb 1.03517 0.70045 0.1606 0.0
Tb120 Tb 0.95372 0.77064 0.16205 0.0
O121 O 0.06998 0.74025 0.20329 0.0
O122 O 0.98784 0.81354 0.20047 0.0
O123 O 0.06424 0.81907 0.20107 0.0
O124 O 0.07239 0.73949 0.12154 0.0
O125 O 0.98769 0.81045 0.11867 0.0
O126 O 0.99323 0.73404 0.1204 0.0
H127 H 0.0889 0.7234 0.22247 0.0
H128 H 0.96847 0.83175 0.21783 0.0
Tb129 Tb 0.10482 0.78179 0.16376 0.0
Tb130 Tb 1.02386 0.85126 0.15697 0.0
H131 H 0.08124 0.83986 0.21799 0.0
H132 H 0.09301 0.7217 0.10522 0.0
Tb133 Tb 1.03042 0.77392 0.0803 0.0
H134 H 0.96784 0.8274 0.10055 0.0
H135 H 0.97605 0.71437 0.10235 0.0
O136 O 0.06661 0.81601 0.11925 0.0
H137 H 0.08447 0.83466 0.10076 0.0
O138 O 1.03143 0.70316 0.27073 0.0
O139 O 1.02604 0.83076 0.04186 0.0
O140 O 0.03688 0.71536 0.04491 0.0
O141 O 1.02459 0.85233 0.26788 0.0
O142 O 0.98017 0.65746 0.1603 0.0
O143 O 0.07864 0.89425 0.15603 0.0
O144 O 0.9621 0.88283 0.15857 0.0
O145 O 0.09811 0.67046 0.16561 0.0
O146 O 0.91682 0.77235 0.22281 0.0
O147 O 0.15192 0.78188 0.11384 0.0
O148 O 0.1401 0.78566 0.22505 0.0
O149 O 0.90804 0.76696 0.1115 0.0
O150 O 0.03631 0.65493 0.21136 0.0
O151 O 1.02281 0.88566 0.09505 0.0
O152 O 1.02174 0.89855 0.20661 0.0
O153 O 0.03753 0.66269 0.10061 0.0
O154 O 0.08559 0.78452 0.27895 0.0
O155 O 0.956 0.76996 0.05164 0.0
O156 O 0.10527 0.77607 0.05314 0.0
O157 O 0.97027 0.77308 0.27768 0.0
O158 O 0.14806 0.72759 0.16791 0.0
O159 O 0.91115 0.82635 0.15809 0.0
O160 O 0.92335 0.70799 0.16047 0.0
O161 O 0.13547 0.844 0.15968 0.0
C162 C 1.03386 0.66096 0.25318 0.0
C163 C 1.02453 0.87172 0.05432 0.0
C164 C 0.03867 0.67509 0.05941 0.0
C165 C 1.02283 0.89381 0.24879 0.0
C166 C 0.93873 0.66787 0.1598 0.0
C167 C 0.12003 0.8839 0.15698 0.0
C168 C 0.92213 0.86762 0.15858 0.0
C169 C 0.13806 0.68617 0.16826 0.0
C170 C 0.92963 0.77328 0.26401 0.0
C171 C 0.14694 0.77875 0.0718 0.0
C172 C 0.12626 0.78699 0.26574 0.0
C173 C 0.91393 0.76811 0.06957 0.0
H174 H 0.47064 0.98907 0.33276 0.0
O175 O 0.45254 1.00733 0.31406 0.0
Tb176 Tb 0.41461 0.04969 0.34952 0.0
Tb177 Tb 0.4919 0.04372 0.27239 0.0
Tb178 Tb 0.40805 0.97025 0.2789 0.0
O179 O 0.45354 0.08603 0.30933 0.0
O180 O 0.37049 1.01043 0.31644 0.0
O181 O 0.37177 0.08686 0.31207 0.0
O182 O 0.45224 0.0818 0.23272 0.0
O183 O 0.36883 1.00602 0.23775 0.0
O184 O 0.45051 1.00272 0.23705 0.0
H185 H 0.4718 0.10547 0.32653 0.0
H186 H 0.35321 0.99344 0.33695 0.0
Tb187 Tb 0.41081 0.12111 0.26986 0.0
Tb188 Tb 0.33075 0.04735 0.27515 0.0
H189 H 0.35458 0.10625 0.33042 0.0
H190 H 0.47048 0.09902 0.21323 0.0
Tb191 Tb 0.41176 0.04088 0.19831 0.0
H192 H 0.3494 0.98758 0.22073 0.0
H193 H 0.46661 0.98201 0.21915 0.0
O194 O 0.37058 0.08267 0.23289 0.0
H195 H 0.35316 0.10068 0.21333 0.0
O196 O 0.47616 0.05031 0.38434 0.0
O197 O 0.36105 0.04084 0.15259 0.0
O198 O 0.47167 0.03772 0.16067 0.0
O199 O 0.36462 0.05202 0.39648 0.0
O200 O 0.51863 0.96877 0.27442 0.0
O201 O 0.29518 0.10599 0.27108 0.0
O202 O 0.29329 0.98982 0.28061 0.0
O203 O 0.52108 0.11792 0.26929 0.0
O204 O 0.41152 0.93814 0.34033 0.0
O205 O 0.41289 0.15264 0.20775 0.0
O206 O 0.41585 0.16235 0.32676 0.0
O207 O 0.40305 0.92814 0.22392 0.0
O208 O 0.52981 0.04734 0.32979 0.0
O209 O 0.30155 0.0451 0.20077 0.0
O210 O 0.30363 0.05061 0.34981 0.0
O211 O 0.52723 0.03742 0.21357 0.0
O212 O 0.41332 0.11047 0.38238 0.0
O213 O 0.40545 0.97869 0.16707 0.0
O214 O 0.41252 0.09674 0.15631 0.0
O215 O 0.41385 0.99397 0.39158 0.0
O216 O 0.46154 0.1663 0.26668 0.0
O217 O 0.34705 0.93537 0.28335 0.0
O218 O 0.45754 0.92263 0.27835 0.0
O219 O 0.35058 0.15875 0.27159 0.0
C220 C 0.51698 0.04865 0.37073 0.0
C221 C 0.3192 0.04301 0.15857 0.0
C222 C 0.51278 0.03589 0.17318 0.0
C223 C 0.32246 0.05174 0.39144 0.0
C224 C 0.49966 0.92726 0.27619 0.0
C225 C 0.30926 0.14646 0.27187 0.0
C226 C 0.30626 0.94896 0.28291 0.0
C227 C 0.5034 0.1601 0.26778 0.0
C228 C 0.41276 0.95277 0.38054 0.0
C229 C 0.41314 0.13799 0.16736 0.0
C230 C 0.4148 0.15061 0.36794 0.0
C231 C 0.4016 0.93893 0.1827 0.0
H232 H 0.35223 0.4687 0.99005 0.0
O233 O 0.33277 0.45149 1.00836 0.0
Tb234 Tb 0.29248 0.49219 0.04515 0.0
Tb235 Tb 0.29565 0.40825 0.97139 0.0
Tb236 Tb 0.36739 0.41243 0.05045 0.0
O237 O 0.25598 0.4517 1.00437 0.0
O238 O 0.3285 0.45261 0.08722 0.0
O239 O 0.25133 0.45397 0.08296 0.0
O240 O 0.25393 0.36971 1.00709 0.0
O241 O 0.32846 0.37115 0.08815 0.0
O242 O 0.33241 0.36951 1.01162 0.0
H243 H 0.23895 0.46847 0.98346 0.0
H244 H 0.34624 0.47 0.107 0.0
Tb245 Tb 0.21621 0.41378 0.04215 0.0
Tb246 Tb 0.28734 0.41167 0.12225 0.0
H247 H 0.23234 0.47302 0.09984 0.0
H248 H 0.23605 0.35122 0.98846 0.0
Tb249 Tb 0.29078 0.33086 0.04899 0.0
H250 H 0.34573 0.35312 0.10781 0.0
H251 H 0.35215 0.35124 0.99479 0.0
O252 O 0.24956 0.3721 0.08402 0.0
H253 H 0.22915 0.35573 0.10202 0.0
O254 O 0.29567 0.51912 0.97045 0.0
O255 O 0.28542 0.29663 0.10884 0.0
O256 O 0.29527 0.29329 0.99127 0.0
O257 O 0.28993 0.52171 0.11925 0.0
O258 O 0.356 0.40989 0.93792 0.0
O259 O 0.22551 0.41664 0.15402 0.0
O260 O 0.34421 0.41196 0.16357 0.0
O261 O 0.23912 0.40875 0.92987 0.0
O262 O 0.4044 0.47271 0.0504 0.0
O263 O 0.16932 0.36379 0.04331 0.0
O264 O 0.18041 0.47383 1.03509 0.0
O265 O 0.41315 0.36182 0.05384 0.0
O266 O 0.29728 0.45803 0.92412 0.0
O267 O 0.28384 0.35275 0.16081 0.0
O268 O 0.28699 0.46238 0.16769 0.0
O269 O 0.29818 0.34706 0.93677 0.0
O270 O 0.23386 0.5285 0.03859 0.0
O271 O 0.36509 0.30204 0.05284 0.0
O272 O 0.21618 0.30322 0.04727 0.0
O273 O 0.35117 0.52797 0.05009 0.0
O274 O 0.18316 0.40844 0.98128 0.0
O275 O 0.39991 0.40964 0.11176 0.0
O276 O 0.40809 0.40684 0.99308 0.0
O277 O 0.17444 0.41777 0.09781 0.0
C278 C 0.29676 0.50016 0.92894 0.0
C279 C 0.28354 0.31141 0.14925 0.0
C280 C 0.29716 0.30624 0.95029 0.0
C281 C 0.28851 0.50418 0.16151 0.0
C282 C 0.39628 0.4068 0.95182 0.0
C283 C 0.18524 0.41802 0.13916 0.0
C284 C 0.38535 0.40976 0.15203 0.0
C285 C 0.19793 0.40771 0.94122 0.0
C286 C 0.39169 0.51379 0.05128 0.0
C287 C 0.17444 0.32178 0.04553 0.0
C288 C 0.1932 0.5148 1.03478 0.0
C289 C 0.4072 0.3199 0.05405 0.0
H290 H 0.72127 0.4917 0.2147 0.0
O291 O 0.70287 0.50885 0.23404 0.0
Tb292 Tb 0.74123 0.54596 0.2762 0.0
Tb293 Tb 0.66022 0.5479 0.19852 0.0
Tb294 Tb 0.66377 0.46894 0.27051 0.0
O295 O 0.70144 0.58521 0.23794 0.0
O296 O 0.70183 0.50441 0.31277 0.0
O297 O 0.69975 0.58134 0.31684 0.0
O298 O 0.61988 0.58503 0.23678 0.0
O299 O 0.61983 0.5023 0.30946 0.0
O300 O 0.62091 0.50603 0.23288 0.0
H301 H 0.71984 0.60465 0.22086 0.0
H302 H 0.71979 0.48567 0.33114 0.0
Tb303 Tb 0.66071 0.61969 0.2785 0.0
Tb304 Tb 0.65744 0.53987 0.34965 0.0
H305 H 0.71599 0.59915 0.3375 0.0
H306 H 0.60278 0.60479 0.21869 0.0
Tb307 Tb 0.57989 0.54316 0.27243 0.0
H308 H 0.60253 0.48172 0.32632 0.0
H309 H 0.60383 0.48774 0.21331 0.0
O310 O 0.6178 0.58079 0.31397 0.0
H311 H 0.59858 0.5979 0.33258 0.0
O312 O 0.77075 0.54918 0.2022 0.0
O313 O 0.54269 0.5373 0.33035 0.0
O314 O 0.5444 0.54799 0.21372 0.0
O315 O 0.76812 0.54392 0.35113 0.0
O316 O 0.66567 0.49073 0.15771 0.0
O317 O 0.65319 0.59537 0.39134 0.0
O318 O 0.66095 0.47901 0.38253 0.0
O319 O 0.66354 0.60936 0.1661 0.0
O320 O 0.72512 0.43401 0.26994 0.0
O321 O 0.61018 0.66553 0.27789 0.0
O322 O 0.71974 0.65781 0.283 0.0
O323 O 0.61399 0.42196 0.26798 0.0
O324 O 0.71132 0.55081 0.15357 0.0
O325 O 0.59674 0.53401 0.38454 0.0
O326 O 0.70702 0.54051 0.39735 0.0
O327 O 0.59997 0.54727 0.16087 0.0
O328 O 0.77569 0.60557 0.28178 0.0
O329 O 0.55291 0.46847 0.26916 0.0
O330 O 0.55066 0.61745 0.27428 0.0
O331 O 0.77893 0.48838 0.27249 0.0
O332 O 0.66206 0.66105 0.22189 0.0
O333 O 0.66177 0.42745 0.32696 0.0
O334 O 0.66297 0.43571 0.20995 0.0
O335 O 0.65508 0.65146 0.34024 0.0
C336 C 0.75318 0.55039 0.15996 0.0
C337 C 0.55588 0.53416 0.3712 0.0
C338 C 0.55874 0.54847 0.17331 0.0
C339 C 0.74918 0.54233 0.3927 0.0
C340 C 0.66562 0.44956 0.16958 0.0
C341 C 0.65307 0.63663 0.38048 0.0
C342 C 0.66081 0.43876 0.36819 0.0
C343 C 0.66424 0.6496 0.18075 0.0
C344 C 0.76599 0.44746 0.27141 0.0
C345 C 0.56834 0.65961 0.2758 0.0
C346 C 0.76104 0.64599 0.28375 0.0
C347 C 0.57185 0.42692 0.26817 0.0
H348 H 0.72897 0.21965 0.99666 0.0
O349 O 0.74936 0.20203 1.01347 0.0
Tb350 Tb 0.79072 0.24123 0.05076 0.0
Tb351 Tb 0.71592 0.15771 0.0524 0.0
Tb352 Tb 0.78688 0.16494 0.97276 0.0
O353 O 0.75374 0.20002 0.08988 0.0
O354 O 0.82817 0.20348 1.00893 0.0
O355 O 0.83309 0.20092 0.08574 0.0
O356 O 0.75589 0.1184 0.08867 0.0
O357 O 0.82826 0.12177 1.00506 0.0
O358 O 0.75145 0.12039 1.00963 0.0
H359 H 0.73563 0.21725 0.10946 0.0
H360 H 0.84538 0.22284 0.99058 0.0
Tb361 Tb 0.79597 0.16067 0.12387 0.0
Tb362 Tb 0.86726 0.15984 0.04347 0.0
H363 H 0.85288 0.21778 0.10401 0.0
H364 H 0.73851 0.10009 0.10794 0.0
Tb365 Tb 0.79265 0.08039 0.04588 0.0
H366 H 0.84601 0.10559 0.98429 0.0
H367 H 0.73271 0.1027 0.99109 0.0
O368 O 0.83253 0.11934 0.08407 0.0
H369 H 0.85172 0.10054 0.10102 0.0
O370 O 0.71596 0.26844 0.05444 0.0
O371 O 0.85098 0.04447 0.03933 0.0
O372 O 0.73551 0.04246 0.04912 0.0
O373 O 0.86508 0.27007 0.04871 0.0
O374 O 0.67388 0.15987 0.99656 0.0
O375 O 0.90945 0.157 0.09895 0.0
O376 O 0.89879 0.16623 0.98155 0.0
O377 O 0.68371 0.15841 0.11378 0.0
O378 O 0.78393 0.22682 0.93869 0.0
O379 O 0.79857 0.10975 0.16874 0.0
O380 O 0.7951 0.22049 0.16207 0.0
O381 O 0.78635 0.11563 0.92488 0.0
O382 O 0.66906 0.20772 0.05545 0.0
O383 O 0.90432 0.09948 0.0402 0.0
O384 O 0.91312 0.21043 0.04444 0.0
O385 O 0.68087 0.09606 0.0508 0.0
O386 O 0.79501 0.27624 0.10964 0.0
O387 O 0.79029 0.05427 0.97081 0.0
O388 O 0.79588 0.05063 0.12001 0.0
O389 O 0.78461 0.27985 0.99405 0.0
O390 O 0.73959 0.1569 0.16554 0.0
O391 O 0.84215 0.16858 0.93072 0.0
O392 O 0.72534 0.1626 0.94077 0.0
O393 O 0.85828 0.1567 0.15529 0.0
C394 C 0.67423 0.24981 0.05548 0.0
C395 C 0.89144 0.05851 0.03818 0.0
C396 C 0.69459 0.05523 0.04921 0.0
C397 C 0.9072 0.25227 0.04689 0.0
C398 C 0.6851 0.16119 0.95537 0.0
C399 C 0.8984 0.15481 0.1401 0.0
C400 C 0.88334 0.16976 0.9417 0.0
C401 C 0.69842 0.15787 0.15398 0.0
C402 C 0.7826 0.26727 0.95316 0.0
C403 C 0.7975 0.06801 0.16232 0.0
C404 C 0.7948 0.26186 0.15005 0.0
C405 C 0.78826 0.07347 0.92938 0.0
H406 H 0.22771 0.72007 0.49462 0.0
O407 O 0.24799 0.70258 0.51172 0.0
Tb408 Tb 0.28979 0.74185 0.54852 0.0
Tb409 Tb 0.21451 0.65875 0.5512 0.0
Tb410 Tb 0.28515 0.6648 0.47142 0.0
O411 O 0.25266 0.70129 0.5882 0.0
O412 O 0.32689 0.70352 0.50696 0.0
O413 O 0.3319 0.70161 0.58387 0.0
O414 O 0.25431 0.61964 0.58788 0.0
O415 O 0.3265 0.62175 0.50403 0.0
O416 O 0.24972 0.62076 0.50881 0.0
H417 H 0.23476 0.7189 0.60762 0.0
H418 H 0.3443 0.72252 0.48841 0.0
Tb419 Tb 0.29465 0.66206 0.62266 0.0
Tb420 Tb 0.36572 0.66007 0.54189 0.0
H421 H 0.35194 0.71844 0.60188 0.0
H422 H 0.23684 0.60161 0.60733 0.0
Tb423 Tb 0.29081 0.58103 0.54539 0.0
H424 H 0.34423 0.60519 0.48354 0.0
H425 H 0.231 0.60282 0.49048 0.0
O426 O 0.33085 0.62026 0.58306 0.0
H427 H 0.34992 0.60153 0.60021 0.0
O428 O 0.21517 0.76943 0.55194 0.0
O429 O 0.34909 0.54498 0.54011 0.0
O430 O 0.23352 0.54338 0.54906 0.0
O431 O 0.36432 0.77028 0.54654 0.0
O432 O 0.17243 0.66081 0.49527 0.0
O433 O 0.40814 0.65738 0.59717 0.0
O434 O 0.39663 0.66502 0.47955 0.0
O435 O 0.18235 0.66037 0.6126 0.0
O436 O 0.28164 0.72607 0.43661 0.0
O437 O 0.29702 0.6113 0.66805 0.0
O438 O 0.29441 0.72256 0.65998 0.0
O439 O 0.2851 0.61518 0.42406 0.0
O440 O 0.16806 0.70888 0.55383 0.0
O441 O 0.40259 0.59968 0.53928 0.0
O442 O 0.41202 0.71041 0.54224 0.0
O443 O 0.17912 0.59723 0.54998 0.0
O444 O 0.29505 0.77778 0.60679 0.0
O445 O 0.28863 0.55419 0.47049 0.0
O446 O 0.294 0.55186 0.61969 0.0
O447 O 0.28479 0.77961 0.49116 0.0
O448 O 0.23825 0.65918 0.66435 0.0
O449 O 0.34 0.66858 0.42901 0.0
O450 O 0.2237 0.6614 0.4391 0.0
O451 O 0.35718 0.65797 0.65376 0.0
C452 C 0.17341 0.7509 0.55324 0.0
C453 C 0.38974 0.55864 0.53902 0.0
C454 C 0.19266 0.55632 0.54878 0.0
C455 C 0.40637 0.7523 0.54472 0.0
C456 C 0.18368 0.66026 0.45409 0.0
C457 C 0.39723 0.65553 0.63837 0.0
C458 C 0.38134 0.66822 0.4395 0.0
C459 C 0.19709 0.66027 0.6528 0.0
C460 C 0.28264 0.76681 0.45026 0.0
C461 C 0.29585 0.56947 0.66189 0.0
C462 C 0.29545 0.76369 0.64725 0.0
C463 C 0.28692 0.57309 0.42889 0.0
H464 H 0.97137 0.48745 0.8336 0.0
O465 O 0.95294 0.50571 0.81525 0.0
Tb466 Tb 0.91502 0.54732 0.85152 0.0
Tb467 Tb 0.99192 0.54277 0.77389 0.0
Tb468 Tb 0.90841 0.46871 0.77994 0.0
O469 O 0.95345 0.58449 0.81156 0.0
O470 O 0.87082 0.50823 0.81814 0.0
O471 O 0.87173 0.58462 0.81453 0.0
O472 O 0.95178 0.58106 0.73503 0.0
O473 O 0.86889 0.50463 0.73916 0.0
O474 O 0.95058 0.502 0.73834 0.0
H475 H 0.97165 0.60395 0.82882 0.0
H476 H 0.85376 0.49093 0.83858 0.0
Tb477 Tb 0.91025 0.61982 0.77276 0.0
Tb478 Tb 0.83077 0.54538 0.77718 0.0
H479 H 0.85446 0.60378 0.83303 0.0
H480 H 0.96994 0.59846 0.71566 0.0
Tb481 Tb 0.91148 0.54044 0.70018 0.0
H482 H 0.84966 0.48619 0.7219 0.0
H483 H 0.96687 0.48162 0.72025 0.0
O484 O 0.87022 0.58161 0.73529 0.0
H485 H 0.85279 0.59973 0.71584 0.0
O486 O 0.9771 0.54691 0.88591 0.0
O487 O 0.86086 0.54061 0.65438 0.0
O488 O 0.97113 0.53816 0.66217 0.0
O489 O 0.86506 0.54934 0.89848 0.0
O490 O 1.01895 0.46784 0.77553 0.0
O491 O 0.79433 0.60338 0.77307 0.0
O492 O 0.79355 0.48772 0.78227 0.0
O493 O 1.02068 0.61707 0.77071 0.0
O494 O 0.91324 0.43544 0.84081 0.0
O495 O 0.91283 0.65245 0.71131 0.0
O496 O 0.91455 0.6604 0.83005 0.0
O497 O 0.90356 0.42731 0.72442 0.0
O498 O 1.03048 0.54696 0.83079 0.0
O499 O 0.80147 0.54373 0.70274 0.0
O500 O 0.80394 0.54845 0.85189 0.0
O501 O 1.02694 0.5372 0.71477 0.0
O502 O 0.91377 0.60779 0.88507 0.0
O503 O 0.90614 0.47855 0.66842 0.0
O504 O 0.91186 0.59712 0.65907 0.0
O505 O 0.91452 0.49091 0.89272 0.0
O506 O 0.96091 0.66526 0.77011 0.0
O507 O 0.84753 0.43351 0.78431 0.0
O508 O 0.95803 0.42139 0.77855 0.0
O509 O 0.84933 0.65671 0.775 0.0
C510 C 1.01775 0.5476 0.87167 0.0
C511 C 0.81901 0.54238 0.66045 0.0
C512 C 1.0123 0.53624 0.67443 0.0
C513 C 0.82289 0.54942 0.89345 0.0
C514 C 1.00013 0.42621 0.77681 0.0
C515 C 0.80819 0.64383 0.77388 0.0
C516 C 0.80668 0.44692 0.78409 0.0
C517 C 1.00282 0.65917 0.76996 0.0
C518 C 0.91517 0.44993 0.88097 0.0
C519 C 0.91372 0.63809 0.67091 0.0
C520 C 0.91407 0.64814 0.87106 0.0
C521 C 0.90332 0.4383 0.68319 0.0
H522 H 0.85216 0.96876 0.49072 0.0
O523 O 0.83264 0.9516 0.50899 0.0
Tb524 Tb 0.79238 0.99238 0.5457 0.0
Tb525 Tb 0.79567 0.90834 0.47194 0.0
Tb526 Tb 0.86708 0.91258 0.55116 0.0
O527 O 0.75604 0.95187 0.50488 0.0
O528 O 0.82827 0.95278 0.58789 0.0
O529 O 0.75104 0.95424 0.58346 0.0
O530 O 0.75352 0.87001 0.50731 0.0
O531 O 0.82798 0.87116 0.58857 0.0
O532 O 0.83224 0.86963 0.51214 0.0
H533 H 0.73922 0.96876 0.48391 0.0
H534 H 0.84607 0.97011 0.60767 0.0
Tb535 Tb 0.71595 0.91414 0.54252 0.0
Tb536 Tb 0.78698 0.91178 0.62274 0.0
H537 H 0.732 0.97326 0.60034 0.0
H538 H 0.73559 0.85175 0.48848 0.0
Tb539 Tb 0.79025 0.83103 0.54915 0.0
H540 H 0.84517 0.85299 0.60817 0.0
H541 H 0.85195 0.85147 0.49517 0.0
O542 O 0.7492 0.87236 0.58425 0.0
H543 H 0.72862 0.85598 0.60202 0.0
O544 O 0.79606 1.01914 0.47094 0.0
O545 O 0.78405 0.79655 0.60873 0.0
O546 O 0.79477 0.79343 0.4915 0.0
O547 O 0.78976 1.0219 0.61975 0.0
O548 O 0.85622 0.90986 0.43874 0.0
O549 O 0.72519 0.91669 0.65449 0.0
O550 O 0.84368 0.91173 0.66423 0.0
O551 O 0.73959 0.9089 0.43006 0.0
O552 O 0.90414 0.97294 0.55078 0.0
O553 O 0.66881 0.86424 0.54308 0.0
O554 O 0.68017 0.97434 0.53612 0.0
O555 O 0.91259 0.86192 0.55433 0.0
O556 O 0.79771 0.95797 0.42471 0.0
O557 O 0.78341 0.8526 0.66099 0.0
O558 O 0.78681 0.96258 0.66822 0.0
O559 O 0.7981 0.84723 0.43712 0.0
O560 O 0.734 1.02889 0.53824 0.0
O561 O 0.86451 0.80216 0.55258 0.0
O562 O 0.71556 0.80358 0.54694 0.0
O563 O 0.85093 1.02821 0.55071 0.0
O564 O 0.68364 0.91004 0.48126 0.0
O565 O 0.89947 0.9096 0.61253 0.0
O566 O 0.90814 0.90737 0.49408 0.0
O567 O 0.67412 0.91742 0.59827 0.0
C568 C 0.79736 1.00008 0.42947 0.0
C569 C 0.78173 0.81144 0.64898 0.0
C570 C 0.79687 0.80641 0.45056 0.0
C571 C 0.78843 1.00439 0.66202 0.0
C572 C 0.8965 0.90729 0.4528 0.0
C573 C 0.68492 0.91762 0.63964 0.0
C574 C 0.88483 0.90951 0.65277 0.0
C575 C 0.69829 0.90977 0.44105 0.0
C576 C 0.89143 1.01405 0.55158 0.0
C577 C 0.67383 0.82219 0.54514 0.0
C578 C 0.69348 1.01507 0.53424 0.0
C579 C 0.90659 0.82003 0.55388 0.0
H580 H 0.22077 0.99009 0.71325 0.0
O581 O 0.20263 1.00729 0.73281 0.0
Tb582 Tb 0.2412 0.04475 0.7746 0.0
Tb583 Tb 0.15987 0.04629 0.69737 0.0
Tb584 Tb 0.16378 0.9676 0.76994 0.0
O585 O 0.20124 0.08381 0.7364 0.0
O586 O 0.20195 1.00344 0.81174 0.0
O587 O 0.19991 0.08035 0.81531 0.0
O588 O 0.11966 0.0837 0.73559 0.0
O589 O 0.11997 1.00137 0.80872 0.0
O590 O 0.12077 1.00472 0.73233 0.0
H591 H 0.21956 0.10321 0.7192 0.0
H592 H 0.21995 0.98474 0.83011 0.0
Tb593 Tb 0.16072 0.11851 0.77698 0.0
Tb594 Tb 0.15761 0.03919 0.8486 0.0
H595 H 0.21627 0.09826 0.8358 0.0
H596 H 0.10248 0.10345 0.71756 0.0
Tb597 Tb 0.07982 0.04204 0.77167 0.0
H598 H 0.10272 0.9809 0.82574 0.0
H599 H 0.10339 0.98647 0.71301 0.0
O600 O 0.11788 0.07989 0.81286 0.0
H601 H 0.09875 0.09704 0.83153 0.0
O602 O 0.27032 0.04829 0.70042 0.0
O603 O 0.04249 0.0356 0.82938 0.0
O604 O 0.04421 0.04663 0.71295 0.0
O605 O 0.26836 0.04281 0.84942 0.0
O606 O 0.1641 0.98871 0.65698 0.0
O607 O 0.15373 0.09496 0.88994 0.0
O608 O 0.16102 0.97864 0.88198 0.0
O609 O 0.16318 0.10762 0.66467 0.0
O610 O 0.22544 0.93286 0.76979 0.0
O611 O 0.11031 0.16439 0.77653 0.0
O612 O 0.2198 0.15665 0.78094 0.0
O613 O 0.11385 0.92073 0.76787 0.0
O614 O 0.21072 0.04887 0.65201 0.0
O615 O 0.09672 1.03425 0.88368 0.0
O616 O 0.20742 0.04003 0.89593 0.0
O617 O 0.09958 0.04577 0.6599 0.0
O618 O 0.27569 0.10435 0.77988 0.0
O619 O 0.05282 0.96736 0.76884 0.0
O620 O 0.0507 0.11638 0.77385 0.0
O621 O 0.27926 0.98749 0.77006 0.0
O622 O 0.16197 0.15958 0.7202 0.0
O623 O 0.16149 0.92663 0.82683 0.0
O624 O 0.16201 0.93386 0.70967 0.0
O625 O 0.1554 0.15072 0.83849 0.0
C626 C 0.25262 0.04924 0.65822 0.0
C627 C 0.056 1.03261 0.87003 0.0
C628 C 0.05842 0.04702 0.67248 0.0
C629 C 0.24955 0.04159 0.89106 0.0
C630 C 0.16303 0.94772 0.66927 0.0
C631 C 0.15354 0.13615 0.87882 0.0
C632 C 0.16053 0.93829 0.86798 0.0
C633 C 0.16405 0.14792 0.67913 0.0
C634 C 0.26619 0.94672 0.76907 0.0
C635 C 0.06844 0.15853 0.77514 0.0
C636 C 0.26108 0.14479 0.78162 0.0
C637 C 0.0717 0.92578 0.76805 0.0
H638 H 0.47616 0.21268 0.71845 0.0
O639 O 0.49387 0.23237 0.70091 0.0
Tb640 Tb 0.52885 0.27535 0.74035 0.0
Tb641 Tb 0.53583 0.19838 0.65926 0.0
Tb642 Tb 0.45429 0.26857 0.66119 0.0
O643 O 0.57036 0.23837 0.70201 0.0
O644 O 0.48826 0.31154 0.69968 0.0
O645 O 0.5647 0.31709 0.70024 0.0
O646 O 0.57301 0.2376 0.62029 0.0
O647 O 0.48822 0.30858 0.61794 0.0
O648 O 0.49382 0.23223 0.61933 0.0
H649 H 0.58915 0.22158 0.72135 0.0
H650 H 0.46885 0.32971 0.71704 0.0
Tb651 Tb 0.60518 0.28001 0.66258 0.0
Tb652 Tb 0.52427 0.3494 0.65632 0.0
H653 H 0.58169 0.3378 0.71727 0.0
H654 H 0.59369 0.21982 0.604 0.0
Tb655 Tb 0.53093 0.27233 0.57934 0.0
H656 H 0.46836 0.32553 0.59983 0.0
H657 H 0.47656 0.21268 0.60122 0.0
O658 O 0.56703 0.31444 0.61831 0.0
H659 H 0.58491 0.33317 0.59993 0.0
O660 O 0.53157 0.20098 0.7695 0.0
O661 O 0.5264 0.32935 0.54118 0.0
O662 O 0.53738 0.21412 0.54349 0.0
O663 O 0.52524 0.35021 0.76716 0.0
O664 O 0.48089 0.15535 0.65893 0.0
O665 O 0.57905 0.39246 0.65605 0.0
O666 O 0.46231 0.38047 0.65731 0.0
O667 O 0.59887 0.16838 0.66498 0.0
O668 O 0.41751 0.27008 0.7221 0.0
O669 O 0.65231 0.27994 0.61281 0.0
O670 O 0.64069 0.28455 0.72343 0.0
O671 O 0.40862 0.26502 0.6106 0.0
O672 O 0.53695 0.15281 0.71007 0.0
O673 O 0.5234 0.38405 0.59458 0.0
O674 O 0.52174 0.39666 0.70609 0.0
O675 O 0.53774 0.16106 0.59882 0.0
O676 O 0.58656 0.28132 0.77746 0.0
O677 O 0.45651 0.26855 0.55071 0.0
O678 O 0.6057 0.27481 0.55208 0.0
O679 O 0.47101 0.27084 0.7769 0.0
O680 O 0.64852 0.22595 0.66734 0.0
O681 O 0.41148 0.32405 0.6575 0.0
O682 O 0.42403 0.20584 0.65944 0.0
O683 O 0.63588 0.34218 0.65856 0.0
C684 C 0.53423 0.15882 0.7519 0.0
C685 C 0.52505 0.37026 0.5538 0.0
C686 C 0.53878 0.17375 0.55767 0.0
C687 C 0.52317 0.3918 0.74826 0.0
C688 C 0.43946 0.16574 0.65856 0.0
C689 C 0.62046 0.38211 0.6567 0.0
C690 C 0.42222 0.36542 0.65715 0.0
C691 C 0.63845 0.18462 0.66887 0.0
C692 C 0.43036 0.271 0.76331 0.0
C693 C 0.64736 0.27718 0.57077 0.0
C694 C 0.62733 0.28405 0.76429 0.0
C695 C 0.41447 0.26651 0.56867 0.0
H696 H 0.18787 0.42751 0.22563 0.0
H697 H 0.10713 0.3795 0.12414 0.0
H698 H 0.0984 0.3116 0.16232 0.0
H699 H 0.12291 0.26311 0.21925 0.0
H700 H 0.2056 0.31074 0.31955 0.0
H701 H 0.2133 0.37884 0.28166 0.0
C702 C 0.16719 0.40253 0.21269 0.0
C703 C 0.15229 0.40588 0.17031 0.0
C704 C 0.16751 0.3621 0.23176 0.0
C705 C 0.12187 0.37597 0.15553 0.0
C706 C 0.11844 0.33647 0.17626 0.0
C707 C 0.14382 0.288 0.23196 0.0
C708 C 0.15988 0.28427 0.27392 0.0
C709 C 0.1437 0.32837 0.21273 0.0
C710 C 0.19028 0.31433 0.28843 0.0
C711 C 0.19316 0.35396 0.26791 0.0
H712 H 0.59143 0.69293 0.17913 0.0
H713 H 0.70793 0.67387 0.10756 0.0
H714 H 0.66642 0.65338 0.04384 0.0
H715 H 0.59731 0.631 1.01322 0.0
H716 H 0.48112 0.64914 0.08564 0.0
H717 H 0.52272 0.67018 0.14881 0.0
C718 C 0.60755 0.68599 0.14891 0.0
C719 C 0.65218 0.68074 0.14845 0.0
C720 C 0.58377 0.66844 0.1152 0.0
C721 C 0.67314 0.67561 0.1088 0.0
C722 C 0.64963 0.66164 0.07325 0.0
C723 C 0.5813 0.63765 0.04356 0.0
C724 C 0.53651 0.64219 0.04437 0.0
C725 C 0.60518 0.65513 0.0773 0.0
C726 C 0.51585 0.64734 0.08413 0.0
C727 C 0.53942 0.66181 0.11939 0.0
H728 H 0.88129 0.21893 0.30669 0.0
H729 H 0.90627 0.33561 0.23745 0.0
H730 H 0.92552 0.2944 0.17312 0.0
H731 H 0.94591 0.22509 0.14193 0.0
H732 H 0.92255 0.10854 0.21199 0.0
H733 H 0.90234 0.14981 0.27588 0.0
C734 C 0.88931 0.23522 0.27682 0.0
C735 C 0.89719 0.27942 0.27723 0.0
C736 C 0.90639 0.2113 0.24307 0.0
C737 C 0.90308 0.30094 0.23803 0.0
C738 C 0.91633 0.27752 0.20221 0.0
C739 C 0.93807 0.2089 0.17189 0.0
C740 C 0.93084 0.1646 0.1718 0.0
C741 C 0.92105 0.23283 0.20568 0.0
C742 C 0.92527 0.14325 0.21117 0.0
C743 C 0.91145 0.16666 0.24675 0.0
H744 H 0.4666 0.88542 0.18632 0.0
H745 H 0.35753 0.921 0.10884 0.0
H746 H 0.40245 0.92113 0.04429 0.0
H747 H 0.47412 0.92127 1.01326 0.0
H748 H 0.58338 0.88545 0.09054 0.0
H749 H 0.5383 0.88455 0.15508 0.0
C750 C 0.45244 0.89131 0.1549 0.0
C751 C 0.41002 0.90566 0.15182 0.0
C752 C 0.47936 0.89692 0.11975 0.0
C753 C 0.39083 0.91098 0.11137 0.0
C754 C 0.4168 0.91325 0.0751 0.0
C755 C 0.48833 0.91516 0.04464 0.0
C756 C 0.53106 0.9017 0.04766 0.0
C757 C 0.46144 0.90915 0.0797 0.0
C758 C 0.55002 0.89528 0.08807 0.0
C759 C 0.52399 0.89264 0.12431 0.0
H760 H 0.14747 0.73589 0.44836 0.0
H761 H 0.15579 0.61219 0.38707 0.0
H762 H 0.15576 0.64645 0.31624 0.0
H763 H 0.16166 0.71167 0.27342 0.0
H764 H 0.15086 0.83547 0.33414 0.0
H765 H 0.15131 0.80137 0.40519 0.0
C766 C 0.14705 0.71652 0.41928 0.0
C767 C 0.15238 0.67201 0.42219 0.0
C768 C 0.15177 0.73658 0.37954 0.0
C769 C 0.15151 0.6467 0.38495 0.0
C770 C 0.15354 0.66631 0.34479 0.0
C771 C 0.16149 0.73116 0.30243 0.0
C772 C 0.15602 0.77564 0.29926 0.0
C773 C 0.15622 0.71118 0.34209 0.0
C774 C 0.15561 0.80104 0.33644 0.0
C775 C 0.15386 0.78149 0.37669 0.0
H776 H 0.96186 0.64182 0.05046 0.0
H777 H 0.08749 0.64467 0.99285 0.0
H778 H 0.05547 0.65872 0.92225 0.0
H779 H 0.9923 0.67885 0.87975 0.0
H780 H 0.86698 0.67846 0.93822 0.0
H781 H 0.89898 0.66309 1.00843 0.0
C782 C 0.98198 0.64343 1.02193 0.0
C783 C 1.02677 0.64457 1.02658 0.0
C784 C 0.96378 0.65721 0.98328 0.0
C785 C 0.05277 0.64481 0.98974 0.0
C786 C 1.03467 0.65496 0.94995 0.0
C787 C 0.97233 0.67757 0.9084 0.0
C788 C 0.9275 0.67771 0.90409 0.0
C789 C 0.99054 0.66387 0.94711 0.0
C790 C 0.90172 0.6776 0.9411 0.0
C791 C 0.91975 0.66662 0.98066 0.0
H792 H 0.92677 0.75278 0.34822 0.0
H793 H 0.86849 0.83447 0.25272 0.0
H794 H 0.8716 0.89526 0.30201 0.0
H795 H 0.89943 0.92658 0.3685 0.0
H796 H 0.9565 0.84482 0.46468 0.0
H797 H 0.95357 0.78395 0.41539 0.0
C798 C 0.91297 0.78353 0.33909 0.0
C799 C 0.90008 0.79012 0.29629 0.0
C800 C 0.91959 0.8191 0.36558 0.0
C801 C 0.88009 0.82904 0.28516 0.0
C802 C 0.88374 0.86432 0.31252 0.0
C803 C 0.91289 0.89574 0.37787 0.0
C804 C 0.9256 0.88924 0.42075 0.0
C805 C 0.90596 0.86012 0.35156 0.0
C806 C 0.94507 0.85017 0.43219 0.0
C807 C 0.94155 0.8149 0.40479 0.0
H808 H 0.17157 0.9425 0.95333 0.0
H809 H 0.11123 0.86727 0.85368 0.0
H810 H 0.05133 0.85106 0.90161 0.0
H811 H 1.01305 0.86525 0.96876 0.0
H812 H 0.07224 0.94378 0.0666 0.0
H813 H 0.13238 0.95879 1.01888 0.0
C814 C 0.1458 0.9215 0.94261 0.0
C815 C 0.14459 0.90771 0.89969 0.0
C816 C 0.10943 0.91689 0.96813 0.0
C817 C 0.11239 0.87901 0.88645 0.0
C818 C 0.07734 0.87117 0.91317 0.0
C819 C 0.03848 0.88688 0.97896 0.0
C820 C 0.03952 0.90166 1.02158 0.0
C821 C 0.07458 0.89201 0.95303 0.0
C822 C 0.07125 0.93119 1.03413 0.0
C823 C 0.10648 0.9384 1.00757 0.0
H824 H 0.20825 0.16403 0.4264 0.0
H825 H 0.11238 0.11016 0.34252 0.0
H826 H 0.15996 0.11964 0.28089 0.0
H827 H 0.22509 0.15183 0.25032 0.0
H828 H 0.32039 0.20664 0.33422 0.0
H829 H 0.27279 0.19706 0.39579 0.0
C830 C 0.19869 0.15265 0.39479 0.0
C831 C 0.15587 0.13996 0.38801 0.0
C832 C 0.22379 0.16353 0.3592 0.0
C833 C 0.14454 0.12235 0.34803 0.0
C834 C 0.17084 0.12968 0.31245 0.0
C835 C 0.23445 0.16348 0.28188 0.0
C836 C 0.2772 0.17627 0.28876 0.0
C837 C 0.20919 0.15286 0.31746 0.0
C838 C 0.28826 0.19434 0.32864 0.0
C839 C 0.262 0.18691 0.36422 0.0
H840 H 0.38003 0.68202 0.978 0.0
H841 H 0.39989 0.60735 0.86353 0.0
H842 H 0.41515 0.54351 0.90702 0.0
H843 H 0.43282 0.51306 0.97744 0.0
H844 H 0.41417 0.58864 0.09165 0.0
H845 H 0.39816 0.65191 0.04806 0.0
C846 C 0.38594 0.65121 0.96269 0.0
C847 C 0.39239 0.64949 0.91824 0.0
C848 C 0.40064 0.61708 0.98773 0.0
C849 C 0.39677 0.60934 0.89819 0.0
C850 C 0.40775 0.5736 0.92292 0.0
C851 C 0.42723 0.54399 0.99266 0.0
C852 C 0.42188 0.5461 0.0373 0.0
C853 C 0.41262 0.57814 0.96754 0.0
C854 C 0.41723 0.58635 0.05705 0.0
C855 C 0.40568 0.6218 1.03225 0.0
H856 H 0.85233 0.45472 0.26582 0.0
H857 H 0.7521 0.37166 0.31352 0.0
H858 H 0.793 0.35897 0.37906 0.0
H859 H 0.85242 0.37894 0.42586 0.0
H860 H 0.95424 0.45915 0.37731 0.0
H861 H 0.91273 0.47365 0.31236 0.0
C862 C 0.84015 0.43274 0.29008 0.0
C863 C 0.79808 0.41688 0.28676 0.0
C864 C 0.86153 0.42938 0.32922 0.0
C865 C 0.78374 0.38598 0.3164 0.0
C866 C 0.80616 0.38011 0.35466 0.0
C867 C 0.86485 0.40068 0.40151 0.0
C868 C 0.90754 0.41479 0.40405 0.0
C869 C 0.8436 0.40388 0.3623 0.0
C870 C 0.9222 0.44578 0.37466 0.0
C871 C 0.89939 0.45261 0.33675 0.0
H872 H 0.63341 0.95282 0.89872 0.0
H873 H 0.70307 0.85347 0.96595 0.0
H874 H 0.71535 0.9021 1.0262 0.0
H875 H 0.69898 0.96989 0.06244 0.0
H876 H 0.62653 0.06782 0.99597 0.0
H877 H 0.61538 1.01938 0.93551 0.0
C878 C 0.6525 0.94235 0.92608 0.0
C879 C 0.66566 0.8993 0.92896 0.0
C880 C 0.65474 0.96843 0.96233 0.0
C881 C 0.69185 0.88633 0.9634 0.0
C882 C 0.69734 0.91348 0.99858 0.0
C883 C 0.67941 0.97995 1.03529 0.0
C884 C 0.66524 1.02272 1.03259 0.0
C885 C 0.67676 0.95359 0.99921 0.0
C886 C 0.63848 0.03518 0.99841 0.0
C887 C 0.6336 1.00819 0.96308 0.0
H888 H 0.20395 0.88421 0.13765 0.0
H889 H 0.10596 0.95773 0.20202 0.0
H890 H 0.15477 0.97155 0.26187 0.0
H891 H 0.22144 0.95359 0.29953 0.0
H892 H 0.31732 0.87578 0.23659 0.0
H893 H 0.26926 0.86456 0.17586 0.0
C894 C 0.19401 0.90457 0.16423 0.0
C895 C 0.15096 0.91721 0.16752 0.0
C896 C 0.21971 0.90687 0.20067 0.0
C897 C 0.13868 0.94597 0.20001 0.0
C898 C 0.16579 0.95222 0.23506 0.0
C899 C 0.231 0.93282 0.27315 0.0
C900 C 0.27348 0.91803 0.27071 0.0
C901 C 0.20511 0.93028 0.23681 0.0
C902 C 0.28511 0.88898 0.2382 0.0
C903 C 0.25849 0.8841 0.20264 0.0
H904 H 0.19618 0.60056 1.01748 0.0
H905 H 0.11408 0.50404 0.07231 0.0
H906 H 0.10994 0.5442 0.13943 0.0
H907 H 0.13902 0.60093 0.18507 0.0
H908 H 0.21606 0.70081 0.12908 0.0
H909 H 0.22239 0.65989 0.06241 0.0
C910 C 0.17601 0.58938 0.0437 0.0
C911 C 0.16038 0.54722 0.0431 0.0
C912 C 0.17803 0.61022 0.08324 0.0
C913 C 0.12998 0.53497 0.07415 0.0
C914 C 0.12924 0.55669 0.11322 0.0
C915 C 0.15847 0.61283 0.1586 0.0
C916 C 0.17232 0.65555 0.15904 0.0
C917 C 0.15582 0.59254 0.11888 0.0
C918 C 0.20165 0.66916 0.12751 0.0
C919 C 0.20354 0.64692 0.08871 0.0
H920 H 0.84467 0.65227 0.31065 0.0
H921 H 0.75238 0.71558 0.23017 0.0
H922 H 0.79605 0.70092 0.16656 0.0
H923 H 0.85528 0.66022 0.13384 0.0
H924 H 0.94889 0.59895 0.21425 0.0
H925 H 0.90495 0.61279 0.27793 0.0
C926 C 0.83531 0.66445 0.27928 0.0
C927 C 0.793 0.67863 0.27306 0.0
C928 C 0.85794 0.65085 0.24298 0.0
C929 C 0.78321 0.69986 0.2344 0.0
C930 C 0.80687 0.68958 0.19773 0.0
C931 C 0.86494 0.64837 0.16526 0.0
C932 C 0.90748 0.63487 0.17137 0.0
C933 C 0.84253 0.66224 0.20156 0.0
C934 C 0.91784 0.61415 0.21012 0.0
C935 C 0.89395 0.62396 0.24678 0.0
H936 H 0.92283 0.04754 0.1154 0.0
H937 H 0.92216 0.99309 0.98829 0.0
H938 H 0.91025 0.92137 1.0185 0.0
H939 H 0.89098 0.87687 0.08054 0.0
H940 H 0.88875 0.93225 0.2072 0.0
H941 H 0.90203 1.00359 0.17697 0.0
C942 C 0.9221 1.01952 0.09456 0.0
C943 C 0.92149 1.02519 0.04988 0.0
C944 C 0.90923 0.98015 0.11166 0.0
C945 C 0.92195 0.9891 1.02293 0.0
C946 C 0.91296 0.94864 0.03999 0.0
C947 C 0.89126 0.90504 0.10118 0.0
C948 C 0.89119 0.89968 0.14589 0.0
C949 C 0.90386 0.9445 0.08398 0.0
C950 C 0.88976 0.93599 0.17255 0.0
C951 C 0.89955 0.97624 0.15553 0.0
H952 H 0.25901 0.22699 0.1559 0.0
H953 H 0.33686 0.32116 0.21919 0.0
H954 H 0.40184 0.27994 0.20325 0.0
H955 H 0.4362 0.22253 0.16118 0.0
H956 H 0.35841 0.12783 0.09854 0.0
H957 H 0.29337 0.16894 0.11455 0.0
C958 C 0.29019 0.23731 0.16774 0.0
C959 C 0.29508 0.27972 0.18202 0.0
C960 C 0.3271 0.21624 0.15321 0.0
C961 C 0.33356 0.29045 0.20311 0.0
C962 C 0.37095 0.26822 0.19213 0.0
C963 C 0.40499 0.21204 0.14953 0.0
C964 C 0.40026 0.16965 0.13511 0.0
C965 C 0.36809 0.23288 0.16431 0.0
C966 C 0.36164 0.15856 0.11454 0.0
C967 C 0.32425 0.18077 0.12556 0.0
H968 H 0.2691 0.852 0.45618 0.0
H969 H 0.32784 0.75497 0.37643 0.0
H970 H 0.38784 0.80275 0.36136 0.0
H971 H 0.4271 0.86804 0.37807 0.0
H972 H 0.36686 0.96715 0.45383 0.0
H973 H 0.30748 0.91888 0.47085 0.0
C974 C 0.29439 0.84203 0.43426 0.0
C975 C 0.29569 0.7995 0.4195 0.0
C976 C 0.33046 0.86789 0.42923 0.0
C977 C 0.32693 0.78731 0.3893 0.0
C978 C 0.36211 0.81384 0.3821 0.0
C979 C 0.4015 0.87849 0.39942 0.0
C980 C 0.39969 0.92144 0.41266 0.0
C981 C 0.36522 0.85296 0.40406 0.0
C982 C 0.36811 0.93439 0.44217 0.0
C983 C 0.33331 0.90753 0.45039 0.0
H984 H 1.02024 0.47152 0.90667 0.0
H985 H 0.09067 0.58994 0.8937 0.0
H986 H 0.15875 0.55095 0.90026 0.0
H987 H 0.19706 0.4827 0.90353 0.0
H988 H 0.12658 0.3643 0.91638 0.0
H989 H 0.05853 0.40323 0.90909 0.0
C990 C 0.05057 0.48886 0.90736 0.0
C991 C 0.05106 0.53326 0.90041 0.0
C992 C 0.08894 0.46589 0.90647 0.0
C993 C 0.09007 0.55576 0.90028 0.0
C994 C 0.12874 0.53332 0.90216 0.0
C995 C 0.16675 0.46534 0.90261 0.0
C996 C 0.16617 0.42108 0.91033 0.0
C997 C 0.12836 0.4883 0.90316 0.0
C998 C 0.12721 0.39847 0.90965 0.0
C999 C 0.08855 0.42087 0.90738 0.0
H1000 H 0.64507 0.72277 0.37616 0.0
H1001 H 0.68769 0.62131 0.46028 0.0
H1002 H 0.7529 0.66142 0.47687 0.0
H1003 H 0.8017 0.72009 0.45864 0.0
H1004 H 0.76009 0.81981 0.37168 0.0
H1005 H 0.69423 0.78033 0.35679 0.0
C1006 C 0.6682 0.71012 0.39913 0.0
C1007 C 0.66424 0.66774 0.41368 0.0
C1008 C 0.70773 0.73035 0.40356 0.0
C1009 C 0.69169 0.653 0.44643 0.0
C1010 C 0.7298 0.67494 0.45449 0.0
C1011 C 0.77871 0.73246 0.4354 0.0
C1012 C 0.78343 0.77424 0.41927 0.0
C1013 C 0.73925 0.71207 0.4308 0.0
C1014 C 0.75579 0.78857 0.38648 0.0
C1015 C 0.71732 0.76703 0.37932 0.0
H1016 H 0.46676 0.68176 0.44156 0.0
H1017 H 0.36624 0.63235 0.36034 0.0
H1018 H 0.40891 0.56831 0.3454 0.0
H1019 H 0.4699 0.52254 0.36476 0.0
H1020 H 0.56765 0.57037 0.45047 0.0
H1021 H 0.52581 0.63522 0.46306 0.0
C1022 C 0.45496 0.65743 0.41946 0.0
C1023 C 0.41221 0.65894 0.40561 0.0
C1024 C 0.47651 0.61849 0.41661 0.0
C1025 C 0.3983 0.63008 0.37382 0.0
C1026 C 0.42168 0.59262 0.36684 0.0
C1027 C 0.48118 0.54661 0.38738 0.0
C1028 C 0.52329 0.5444 0.40317 0.0
C1029 C 0.45928 0.58538 0.39062 0.0
C1030 C 0.53625 0.57307 0.43555 0.0
C1031 C 0.51341 0.61099 0.4413 0.0
H1032 H 0.24155 0.94121 0.63885 0.0
H1033 H 0.11847 0.87826 0.64014 0.0
H1034 H 0.15301 0.8096 0.65679 0.0
H1035 H 0.21747 0.77025 0.67884 0.0
H1036 H 0.34059 0.83309 0.67634 0.0
H1037 H 0.30596 0.90177 0.66064 0.0
C1038 C 0.22262 0.91192 0.64066 0.0
C1039 C 0.17766 0.91462 0.64028 0.0
C1040 C 0.24216 0.87425 0.65535 0.0
C1041 C 0.15329 0.87669 0.64109 0.0
C1042 C 0.17275 0.83804 0.65283 0.0
C1043 C 0.23644 0.79952 0.67701 0.0
C1044 C 0.28143 0.79671 0.67674 0.0
C1045 C 0.21681 0.83721 0.66247 0.0
C1046 C 0.30581 0.83463 0.67604 0.0
C1047 C 0.28624 0.87337 0.66479 0.0
H1048 H 1.02069 0.61265 0.63974 0.0
H1049 H 0.07934 0.48767 0.64374 0.0
H1050 H 0.14889 0.51997 0.66168 0.0
H1051 H 0.18923 0.58295 0.68618 0.0
H1052 H 0.12995 0.7077 0.68353 0.0
H1053 H 0.06082 0.67547 0.66436 0.0
C1054 C 0.0493 0.59276 0.64262 0.0
C1055 C 0.04498 0.54801 0.64368 0.0
C1056 C 0.08692 0.61104 0.6588 0.0
C1057 C 0.08209 0.52237 0.64465 0.0
C1058 C 0.12113 0.54056 0.65711 0.0
C1059 C 0.16055 0.60273 0.68342 0.0
C1060 C 0.1646 0.64752 0.68327 0.0
C1061 C 0.12294 0.58446 0.66711 0.0
C1062 C 0.12738 0.67299 0.68223 0.0
C1063 C 0.08858 0.65488 0.669 0.0
H1064 H 0.05537 0.97113 0.63497 0.0
H1065 H 0.98573 0.08981 0.64729 0.0
H1066 H 0.92107 0.05089 0.66811 0.0
H1067 H 0.88818 0.98406 0.69244 0.0
H1068 H 0.95659 0.86493 0.67887 0.0
H1069 H 1.02195 0.90374 0.65844 0.0
C1070 C 1.02533 0.98822 0.64019 0.0
C1071 C 1.02563 1.03315 0.64262 0.0
C1072 C 0.99042 0.96597 0.65754 0.0
C1073 C 0.98635 0.05507 0.64646 0.0
C1074 C 0.95014 1.03306 0.66089 0.0
C1075 C 0.91805 0.96682 0.6868 0.0
C1076 C 0.91731 0.92204 0.68349 0.0
C1077 C 0.95287 0.9889 0.66916 0.0
C1078 C 0.95638 0.89975 0.67951 0.0
C1079 C 0.99291 0.92168 0.66554 0.0
H1080 H 0.68778 0.92603 0.72616 0.0
H1081 H 0.60746 0.87796 0.62433 0.0
H1082 H 0.59867 0.81004 0.66247 0.0
H1083 H 0.62275 0.76164 0.71972 0.0
H1084 H 0.70533 0.8093 0.82009 0.0
H1085 H 0.71316 0.87734 0.78216 0.0
C1086 C 0.66721 0.90103 0.71309 0.0
C1087 C 0.65225 0.90452 0.67073 0.0
C1088 C 0.66749 0.86058 0.73215 0.0
C1089 C 0.62211 0.87443 0.65574 0.0
C1090 C 0.61863 0.83492 0.67649 0.0
C1091 C 0.64366 0.78652 0.73243 0.0
C1092 C 0.65965 0.78281 0.77444 0.0
C1093 C 0.64371 0.82686 0.71309 0.0
C1094 C 0.69007 0.81286 0.78895 0.0
C1095 C 0.69303 0.85246 0.76838 0.0
H1096 H 0.09625 0.12984 0.51177 0.0
H1097 H 0.98058 0.14983 0.5845 0.0
H1098 H 1.02263 0.17007 0.64757 0.0
H1099 H 0.09173 0.19199 0.67762 0.0
H1100 H 0.20774 0.17127 0.6057 0.0
H1101 H 0.16576 0.15122 0.54216 0.0
C1102 C 0.08043 0.13674 0.54215 0.0
C1103 C 0.03576 0.14216 0.54305 0.0
C1104 C 0.10466 0.15388 0.5758 0.0
C1105 C 1.01527 0.14744 0.58288 0.0
C1106 C 0.03913 0.16148 0.6181 0.0
C1107 C 0.10765 0.1848 0.64736 0.0
C1108 C 0.15221 0.17901 0.64673 0.0
C1109 C 0.08355 0.16751 0.61376 0.0
C1110 C 0.17298 0.17349 0.60704 0.0
C1111 C 0.14918 0.15976 0.57161 0.0
H1112 H 0.38118 0.71696 0.80573 0.0
H1113 H 0.40691 0.83452 0.73824 0.0
H1114 H 0.42606 0.79418 0.67336 0.0
H1115 H 0.4456 0.72521 0.64095 0.0
H1116 H 0.4215 0.60779 0.70922 0.0
H1117 H 0.40174 0.64817 0.77382 0.0
C1118 C 0.3893 0.73365 0.7761 0.0
C1119 C 0.39726 0.77781 0.77714 0.0
C1120 C 0.40623 0.71015 0.74198 0.0
C1121 C 0.40351 0.79986 0.7383 0.0
C1122 C 0.41671 0.77691 0.70216 0.0
C1123 C 0.43773 0.70862 0.67069 0.0
C1124 C 0.43003 0.66442 0.66992 0.0
C1125 C 0.42103 0.73215 0.70492 0.0
C1126 C 0.42448 0.64248 0.70896 0.0
C1127 C 0.41094 0.66542 0.74495 0.0
H1128 H 0.05216 0.3643 0.60177 0.0
H1129 H 1.01144 0.45359 0.50423 0.0
H1130 H 0.94415 0.46585 0.54233 0.0
H1131 H 0.89333 0.44226 0.59702 0.0
H1132 H 0.93544 0.35707 0.69754 0.0
H1133 H 1.00226 0.34317 0.65887 0.0
C1134 C 1.02904 0.38758 0.5898 0.0
C1135 C 1.03341 0.40385 0.54805 0.0
C1136 C 0.98893 0.39046 0.60926 0.0
C1137 C 1.00655 0.43769 0.53487 0.0
C1138 C 0.96728 0.44328 0.55543 0.0
C1139 C 0.91676 0.41963 0.60969 0.0
C1140 C 0.9126 0.40471 0.6519 0.0
C1141 C 0.95712 0.41732 0.59078 0.0
C1142 C 0.94001 0.37179 0.66629 0.0
C1143 C 0.97901 0.36537 0.64534 0.0
H1144 H 0.68446 0.14038 0.87197 0.0
H1145 H 0.61577 0.2131 0.96765 0.0
H1146 H 0.60583 0.27191 0.91664 0.0
H1147 H 0.62512 0.30542 0.84812 0.0
H1148 H 0.69798 0.23389 0.75452 0.0
H1149 H 0.70608 0.1747 0.80509 0.0
C1150 C 0.6659 0.16858 0.88092 0.0
C1151 C 0.65315 0.17397 0.92377 0.0
C1152 C 0.66585 0.20411 0.85386 0.0
C1153 C 0.62714 0.20906 0.93498 0.0
C1154 C 0.62321 0.24344 0.90658 0.0
C1155 C 0.64433 0.27753 0.83966 0.0
C1156 C 0.65842 0.27236 0.79717 0.0
C1157 C 0.64489 0.2422 0.86709 0.0
C1158 C 0.68539 0.23772 0.78679 0.0
C1159 C 0.68837 0.20307 0.81488 0.0
H1160 H 0.46086 0.14356 0.54771 0.0
H1161 H 0.58712 0.14182 0.49143 0.0
H1162 H 0.55626 0.1559 0.4203 0.0
H1163 H 0.49422 0.17829 0.37703 0.0
H1164 H 0.36852 0.18346 0.43445 0.0
H1165 H 0.39929 0.16708 0.50498 0.0
C1166 C 0.48133 0.14427 0.51939 0.0
C1167 C 0.52609 0.14379 0.52455 0.0
C1168 C 0.46402 0.15849 0.48045 0.0
C1169 C 0.55246 0.14305 0.48797 0.0
C1170 C 0.53508 0.1533 0.44785 0.0
C1171 C 0.47397 0.17799 0.40551 0.0
C1172 C 0.42919 0.17999 0.40078 0.0
C1173 C 0.49132 0.16385 0.44449 0.0
C1174 C 0.40317 0.18117 0.43761 0.0
C1175 C 0.42042 0.16962 0.47737 0.0
H1176 H 0.39815 0.42463 0.86723 0.0
H1177 H 0.45608 0.34413 0.96403 0.0
H1178 H 0.45417 0.28301 0.91499 0.0
H1179 H 0.42825 0.25119 0.84775 0.0
H1180 H 0.36857 0.33153 0.75194 0.0
H1181 H 0.3707 0.39255 0.80101 0.0
C1182 C 0.41195 0.39401 0.87683 0.0
C1183 C 0.42491 0.38802 0.91973 0.0
C1184 C 0.40559 0.35816 0.85071 0.0
C1185 C 0.44465 0.34917 0.93149 0.0
C1186 C 0.44174 0.31373 0.90421 0.0
C1187 C 0.41396 0.28167 0.83849 0.0
C1188 C 0.40087 0.28786 0.79566 0.0
C1189 C 0.41987 0.31744 0.86491 0.0
C1190 C 0.38029 0.32642 0.78439 0.0
C1191 C 0.38334 0.36184 0.81163 0.0
H1192 H 0.67218 0.44241 0.45354 0.0
H1193 H 0.61283 0.36691 0.35351 0.0
H1194 H 0.55306 0.34983 0.40128 0.0
H1195 H 0.51432 0.36374 0.46817 0.0
H1196 H 0.57247 0.44249 0.56649 0.0
H1197 H 0.63271 0.45807 0.51906 0.0
C1198 C 0.64666 0.42117 0.4427 0.0
C1199 C 0.64556 0.40765 0.39971 0.0
C1200 C 0.61031 0.41609 0.46813 0.0
C1201 C 0.61381 0.37853 0.38633 0.0
C1202 C 0.57881 0.3702 0.41296 0.0
C1203 C 0.53955 0.3855 0.47857 0.0
C1204 C 0.54025 0.40026 0.5212 0.0
C1205 C 0.57573 0.39094 0.45285 0.0
C1206 C 0.57174 0.42994 0.53399 0.0
C1207 C 0.60702 0.43747 0.50761 0.0
H1208 H 0.80247 0.67247 0.85301 0.0
H1209 H 0.73785 0.67293 0.7306 0.0
H1210 H 0.66906 0.66036 0.76592 0.0
H1211 H 0.62967 0.63961 0.83052 0.0
H1212 H 0.69388 0.63842 0.95311 0.0
H1213 H 0.76288 0.6522 0.9179 0.0
C1214 C 0.77289 0.67196 0.83437 0.0
C1215 C 0.77506 0.67248 0.78933 0.0
C1216 C 0.73483 0.65901 0.85435 0.0
C1217 C 0.7368 0.67281 0.76537 0.0
C1218 C 0.69788 0.66319 0.78534 0.0
C1219 C 0.65922 0.64029 0.84921 0.0
C1220 C 0.65696 0.63972 0.89418 0.0
C1221 C 0.69721 0.65357 0.82937 0.0
C1222 C 0.69515 0.63933 0.91828 0.0
C1223 C 0.73408 0.64941 0.89843 0.0
H1224 H 0.88182 0.18362 0.47877 0.0
H1225 H 0.8991 0.10926 0.36363 0.0
H1226 H 0.91326 0.04483 0.40662 0.0
H1227 H 0.93059 1.01345 0.47672 0.0
H1228 H 0.91452 0.08872 0.59158 0.0
H1229 H 0.89942 0.15254 0.5485 0.0
C1230 C 0.88689 0.15279 0.4632 0.0
C1231 C 0.89265 0.15119 0.41864 0.0
C1232 C 0.9009 0.11813 0.48791 0.0
C1233 C 0.89626 0.1111 0.39833 0.0
C1234 C 0.90661 0.07496 0.42277 0.0
C1235 C 0.92584 0.0444 0.49218 0.0
C1236 C 0.92128 0.04638 0.53693 0.0
C1237 C 0.91184 0.07907 0.46739 0.0
C1238 C 0.91727 0.08657 0.55693 0.0
C1239 C 0.90626 0.1224 0.53243 0.0
H1240 H 0.26423 0.90702 0.8429 0.0
H1241 H 0.34201 0.92753 0.73013 0.0
H1242 H 0.40735 0.92425 0.7739 0.0
H1243 H 0.44053 0.92267 0.84472 0.0
H1244 H 0.36285 0.90183 0.95744 0.0
H1245 H 0.29743 0.90606 0.91381 0.0
C1246 C 0.29568 0.90872 0.82776 0.0
C1247 C 0.29891 0.91754 0.78377 0.0
C1248 C 0.33208 0.91178 0.85353 0.0
C1249 C 0.33935 0.92001 0.76405 0.0
C1250 C 0.37632 0.92012 0.78924 0.0
C1251 C 0.4091 0.92107 0.85989 0.0
C1252 C 0.40588 0.91123 0.90365 0.0
C1253 C 0.37268 0.91831 0.83413 0.0
C1254 C 0.36548 0.9096 0.92355 0.0
C1255 C 0.32846 0.91001 0.89843 0.0
H1256 H 0.19607 0.47108 0.56296 0.0
H1257 H 0.12603 0.56884 0.49376 0.0
H1258 H 0.11667 0.52014 0.43321 0.0
H1259 H 0.13558 0.45324 0.39736 0.0
H1260 H 0.20297 0.35418 0.46721 0.0
H1261 H 0.21357 0.40315 0.52751 0.0
C1262 C 0.17735 0.48104 0.53518 0.0
C1263 C 0.16343 0.52384 0.53183 0.0
C1264 C 0.17586 0.45453 0.49912 0.0
C1265 C 0.13777 0.53619 0.49675 0.0
C1266 C 0.13397 0.50903 0.4614 0.0
C1267 C 0.15389 0.44294 0.42531 0.0
C1268 C 0.16673 0.39983 0.42889 0.0
C1269 C 0.15505 0.46922 0.46148 0.0
C1270 C 0.19195 0.38706 0.46411 0.0
C1271 C 0.19642 0.4144 0.4993 0.0
H1272 H 0.70458 0.38231 0.63834 0.0
H1273 H 0.60618 0.45517 0.70294 0.0
H1274 H 0.65492 0.46894 0.76287 0.0
H1275 H 0.72176 0.45132 0.80042 0.0
H1276 H 0.81798 0.37407 0.73727 0.0
H1277 H 0.7699 0.36274 0.67657 0.0
C1278 C 0.6945 0.40248 0.66501 0.0
C1279 C 0.65142 0.41512 0.66817 0.0
C1280 C 0.72017 0.40478 0.70148 0.0
C1281 C 0.63895 0.44353 0.7009 0.0
C1282 C 0.66603 0.44976 0.73598 0.0
C1283 C 0.73142 0.43066 0.77399 0.0
C1284 C 0.77396 0.41602 0.77154 0.0
C1285 C 0.70549 0.42804 0.73766 0.0
C1286 C 0.7857 0.38713 0.73893 0.0
C1287 C 0.75907 0.38218 0.70339 0.0
H1288 H 0.69137 0.18614 0.6029 0.0
H1289 H 0.65988 0.11302 0.71585 0.0
H1290 H 0.65178 0.04798 0.67247 0.0
H1291 H 0.64313 1.01607 0.60154 0.0
H1292 H 0.67626 0.08853 0.48848 0.0
H1293 H 0.68434 0.15373 0.53182 0.0
C1294 C 0.68458 0.15541 0.61808 0.0
C1295 C 0.6724 0.15415 0.66126 0.0
C1296 C 0.67447 0.12036 0.59232 0.0
C1297 C 0.66723 0.11438 0.6818 0.0
C1298 C 0.66032 0.07795 0.65687 0.0
C1299 C 0.6503 0.04667 0.58626 0.0
C1300 C 0.66195 0.04775 0.54292 0.0
C1301 C 0.66091 0.08159 0.61194 0.0
C1302 C 0.66865 0.08735 0.52248 0.0
C1303 C 0.6755 0.12383 0.54739 0.0
H1304 H 0.34457 0.15143 0.80876 0.0
H1305 H 0.25254 0.21352 0.72701 0.0
H1306 H 0.29664 0.19826 0.66384 0.0
H1307 H 0.35627 0.15749 0.63195 0.0
H1308 H 0.44957 0.09737 0.71363 0.0
H1309 H 0.40516 0.11177 0.77686 0.0
C1310 C 0.33535 0.16323 0.7772 0.0
C1311 C 0.29306 0.17728 0.7706 0.0
C1312 C 0.35823 0.14928 0.74119 0.0
C1313 C 0.2834 0.19796 0.73161 0.0
C1314 C 0.30731 0.18733 0.6952 0.0
C1315 C 0.36574 0.14598 0.66356 0.0
C1316 C 0.40828 0.13268 0.67008 0.0
C1317 C 0.34304 0.16017 0.69956 0.0
C1318 C 0.41845 0.11239 0.70912 0.0
C1319 C 0.39431 0.12254 0.74551 0.0
H1320 H 0.39426 0.4766 0.51113 0.0
H1321 H 0.45241 0.56585 0.59926 0.0
H1322 H 0.44587 0.51387 0.65759 0.0
H1323 H 0.41495 0.44696 0.68468 0.0
H1324 H 0.36007 0.35609 0.59625 0.0
H1325 H 0.36501 0.40853 0.53802 0.0
C1326 C 0.40736 0.48366 0.54273 0.0
C1327 C 0.42033 0.52576 0.5522 0.0
C1328 C 0.39882 0.45567 0.57673 0.0
C1329 C 0.44011 0.53411 0.59193 0.0
C1330 C 0.43442 0.50531 0.62578 0.0
C1331 C 0.40231 0.43955 0.65296 0.0
C1332 C 0.39064 0.3971 0.64343 0.0
C1333 C 0.4112 0.46733 0.61893 0.0
C1334 C 0.37142 0.38816 0.6036 0.0
C1335 C 0.37625 0.41727 0.56984 0.0
H1336 H 0.85454 0.80718 0.69233 0.0
H1337 H 0.73479 0.74089 0.67506 0.0
H1338 H 0.77314 0.67588 0.65262 0.0
H1339 H 0.84028 0.64261 0.62862 0.0
H1340 H 0.96002 0.70908 0.64579 0.0
H1341 H 0.92172 0.77407 0.66809 0.0
C1342 C 0.83705 0.77775 0.68545 0.0
C1343 C 0.79233 0.77926 0.68072 0.0
C1344 C 0.85909 0.74328 0.66714 0.0
C1345 C 0.76964 0.74063 0.67597 0.0
C1346 C 0.79131 0.7044 0.66094 0.0
C1347 C 0.85775 0.67206 0.63546 0.0
C1348 C 0.90247 0.67066 0.63983 0.0
C1349 C 0.83576 0.70658 0.65372 0.0
C1350 C 0.92518 0.70931 0.64479 0.0
C1351 C 0.90353 0.74554 0.6598 0.0
H1352 H 0.8566 0.2714 0.91445 0.0
H1353 H 0.73719 0.339 0.93327 0.0
H1354 H 0.77455 0.40798 0.92678 0.0
H1355 H 0.84194 0.44761 0.92186 0.0
H1356 H 0.96129 0.37973 0.90375 0.0
H1357 H 0.92398 0.31089 0.91092 0.0
C1358 C 0.83861 0.30136 0.91506 0.0
C1359 C 0.79457 0.30087 0.9239 0.0
C1360 C 0.86081 0.34005 0.91613 0.0
C1361 C 0.77117 0.3393 0.9255 0.0
C1362 C 0.79272 0.37841 0.92365 0.0
C1363 C 0.85991 0.41764 0.92165 0.0
C1364 C 0.90383 0.41796 0.91222 0.0
C1365 C 0.83771 0.3789 0.9211 0.0
C1366 C 0.92733 0.37955 0.91163 0.0
C1367 C 0.90581 0.34049 0.91382 0.0
H1368 H 0.60289 0.0574 0.36393 0.0
H1369 H 0.50361 1.0041 0.44488 0.0
H1370 H 0.54904 0.94247 0.4609 0.0
H1371 H 0.61266 0.90024 0.44473 0.0
H1372 H 0.7139 0.95484 0.3673 0.0
H1373 H 0.66812 1.01601 0.34973 0.0
C1374 C 0.59186 1.03288 0.38621 0.0
C1375 C 0.54933 1.03371 0.40118 0.0
C1376 C 0.61632 0.9959 0.3919 0.0
C1377 C 0.53592 1.00342 0.43185 0.0
C1378 C 0.56111 0.96735 0.43968 0.0
C1379 C 0.62419 0.92505 0.42299 0.0
C1380 C 0.66713 0.9246 0.40933 0.0
C1381 C 0.60009 0.96226 0.41775 0.0
C1382 C 0.68122 0.95524 0.37931 0.0
C1383 C 0.65578 0.99103 0.37069 0.0
H1384 H 0.14623 0.2223 0.87358 0.0
H1385 H 0.18726 0.12133 0.95908 0.0
H1386 H 0.25221 0.16148 0.97657 0.0
H1387 H 0.30132 0.21998 0.9589 0.0
H1388 H 0.26115 0.3195 0.87101 0.0
H1389 H 0.19559 0.27994 0.85507 0.0
C1390 C 0.16894 0.20974 0.89701 0.0
C1391 C 0.16468 0.16748 0.9118 0.0
C1392 C 0.20833 0.23006 0.90215 0.0
C1393 C 0.19156 0.1529 0.94508 0.0
C1394 C 0.22951 0.17488 0.95371 0.0
C1395 C 0.27871 0.23232 0.93528 0.0
C1396 C 0.28374 0.27402 0.91906 0.0
C1397 C 0.23936 0.2119 0.93004 0.0
C1398 C 0.25661 0.28831 0.88583 0.0
C1399 C 0.2183 0.26671 0.87802 0.0
H1400 H 0.88113 0.10201 0.89213 0.0
H1401 H 0.95603 0.21431 0.92237 0.0
H1402 H 1.02223 0.17196 0.91917 0.0
H1403 H 0.0563 0.10177 0.91709 0.0
H1404 H 0.98167 0.98936 0.88635 0.0
H1405 H 0.91538 1.0318 0.88895 0.0
C1406 C 0.91224 0.11744 0.896 0.0
C1407 C 0.91442 0.16032 0.90896 0.0
C1408 C 0.94881 0.09207 0.89941 0.0
C1409 C 0.95431 0.18089 0.91272 0.0
C1410 C 0.99166 0.15639 0.913 0.0
C1411 C 1.02523 0.08631 0.91293 0.0
C1412 C 1.02318 0.04322 0.90065 0.0
C1413 C 0.98872 0.11165 0.9091 0.0
C1414 C 0.9833 1.02282 0.89586 0.0
C1415 C 0.94593 0.04734 0.8953 0.0
H1416 H 0.64335 0.36597 0.16373 0.0
H1417 H 0.731 0.45974 0.11242 0.0
H1418 H 0.79128 0.41089 0.12422 0.0
H1419 H 0.81935 0.34505 0.15743 0.0
H1420 H 0.73166 0.2519 0.20962 0.0
H1421 H 0.67148 0.30088 0.19803 0.0
C1422 C 0.67552 0.37476 0.15335 0.0
C1423 C 0.6836 0.41733 0.14068 0.0
C1424 C 0.71019 0.34894 0.16555 0.0
C1425 C 0.72441 0.42774 0.12446 0.0
C1426 C 0.75917 0.40073 0.13317 0.0
C1427 C 0.78723 0.33649 0.16811 0.0
C1428 C 0.77891 0.29387 0.18041 0.0
C1429 C 0.75257 0.36257 0.15626 0.0
C1430 C 0.73834 0.28388 0.1975 0.0
C1431 C 0.70358 0.31093 0.18888 0.0
H1432 H 0.68996 0.08015 0.18669 0.0
H1433 H 0.63169 0.20537 0.18535 0.0
H1434 H 0.56261 0.17406 0.1646 0.0
H1435 H 0.52235 0.11204 0.1383 0.0
H1436 H 0.57931 0.98631 0.14262 0.0
H1437 H 0.64909 1.01768 0.16142 0.0
C1438 C 0.66147 0.1002 0.18388 0.0
C1439 C 0.66589 0.14496 0.18434 0.0
C1440 C 0.62385 0.08245 0.16698 0.0
C1441 C 0.62887 0.1707 0.18343 0.0
C1442 C 0.59013 0.15316 0.16931 0.0
C1443 C 0.55066 0.09177 0.14149 0.0
C1444 C 0.54571 0.04708 0.14243 0.0
C1445 C 0.58822 0.10948 0.15845 0.0
C1446 C 0.58248 1.02098 0.1437 0.0
C1447 C 0.62163 0.03863 0.15666 0.0
H1448 H 0.5561 0.47273 0.13553 0.0
H1449 H 0.48583 0.59098 0.14855 0.0
H1450 H 0.42118 0.55161 0.16825 0.0
H1451 H 0.38831 0.48441 0.19148 0.0
H1452 H 0.45748 0.36571 0.1777 0.0
H1453 H 0.52277 0.405 0.15807 0.0
C1454 C 0.52595 0.48965 0.14063 0.0
C1455 C 0.52602 0.53456 0.14338 0.0
C1456 C 0.49097 0.46709 0.15744 0.0
C1457 C 0.48662 0.55627 0.14723 0.0
C1458 C 0.45037 0.53396 0.16107 0.0
C1459 C 0.41832 0.46736 0.186 0.0
C1460 C 0.41788 0.42258 0.18256 0.0
C1461 C 0.45321 0.48974 0.1689 0.0
C1462 C 0.45708 0.40053 0.17859 0.0
C1463 C 0.4936 0.42275 0.16508 0.0
H1464 H 1.03339 0.57793 0.21447 0.0
H1465 H 1.0343 0.63154 0.34267 0.0
H1466 H 1.03464 0.55745 0.37154 0.0
H1467 H 1.03475 0.47626 0.36164 0.0
H1468 H 1.03331 0.42333 0.2332 0.0
H1469 H 1.03323 0.49739 0.20457 0.0
C1470 C 1.03359 0.57474 0.24913 0.0
C1471 C 1.03364 0.61398 0.27551 0.0
C1472 C 1.03366 0.53078 0.26589 0.0
C1473 C 1.034 0.60498 0.32022 0.0
C1474 C 1.03424 0.56153 0.33695 0.0
C1475 C 1.03427 0.47977 0.32701 0.0
C1476 C 1.03384 0.44071 0.30039 0.0
C1477 C 1.03403 0.52385 0.31031 0.0
C1478 C 1.03347 0.44982 0.25574 0.0
C1479 C 1.03343 0.49323 0.23916 0.0
H1480 H 0.72967 0.76279 0.96136 0.0
H1481 H 0.67626 0.77207 0.0893 0.0
H1482 H 0.75032 0.77252 0.11817 0.0
H1483 H 0.831 0.7713 0.10838 0.0
H1484 H 0.88472 0.76432 0.98039 0.0
H1485 H 0.81063 0.76233 0.95152 0.0
C1486 C 0.73302 0.76497 0.99594 0.0
C1487 C 0.6939 0.76713 1.02238 0.0
C1488 C 0.77702 0.76588 1.01266 0.0
C1489 C 0.70285 0.77006 0.06694 0.0
C1490 C 0.74623 0.77047 0.08363 0.0
C1491 C 0.82779 0.76933 0.07378 0.0
C1492 C 0.86699 0.76778 0.04739 0.0
C1493 C 0.78384 0.76855 0.05701 0.0
C1494 C 0.8581 0.76548 1.00276 0.0
C1495 C 0.81469 0.76436 0.98606 0.0
H1496 H 1.02311 0.0779 0.35602 0.0
H1497 H 1.02342 0.13171 0.22778 0.0
H1498 H 1.02251 0.05766 0.19896 0.0
H1499 H 1.02211 0.97656 0.20899 0.0
H1500 H 1.02281 0.92347 0.33749 0.0
H1501 H 1.02284 0.99751 0.36604 0.0
C1502 C 1.023 0.07479 0.32135 0.0
C1503 C 1.0233 0.11402 0.29492 0.0
C1504 C 1.02278 1.0309 0.30466 0.0
C1505 C 1.02321 0.10512 0.25023 0.0
C1506 C 1.02272 0.06171 0.23355 0.0
C1507 C 1.02235 0.98002 0.24362 0.0
C1508 C 1.02261 0.94097 0.27031 0.0
C1509 C 1.02259 1.02404 0.26025 0.0
C1510 C 1.02276 0.94999 0.31494 0.0
C1511 C 1.02277 0.99337 0.33146 0.0
H1512 H 0.3314 0.76565 0.96467 0.0
H1513 H 0.38509 0.78728 0.09102 0.0
H1514 H 0.31105 0.79035 0.11982 0.0
H1515 H 0.22989 0.78786 0.11032 0.0
H1516 H 0.17647 0.76663 0.98379 0.0
H1517 H 0.2505 0.76322 0.95517 0.0
C1518 C 0.32811 0.77108 0.99889 0.0
C1519 C 0.36735 0.77597 1.02484 0.0
C1520 C 0.28413 0.77319 1.01559 0.0
C1521 C 0.35846 0.78279 0.06903 0.0
C1522 C 0.31505 0.7848 0.08568 0.0
C1523 C 0.23327 0.78243 0.07611 0.0
C1524 C 0.19409 0.77766 0.05001 0.0
C1525 C 0.27731 0.78019 0.05947 0.0
C1526 C 0.20306 0.77075 1.00589 0.0
C1527 C 0.24646 0.76864 0.98933 0.0
H1528 H 0.3617 0.05325 0.47443 0.0
H1529 H 0.23357 0.0512 0.42051 0.0
H1530 H 0.20455 0.05063 0.49446 0.0
H1531 H 0.21413 0.04987 0.57506 0.0
H1532 H 0.34208 0.0517 0.62954 0.0
H1533 H 0.37127 0.05315 0.55557 0.0
C1534 C 0.32706 0.05262 0.47768 0.0
C1535 C 0.30062 0.05208 0.43846 0.0
C1536 C 0.31018 0.0521 0.52162 0.0
C1537 C 0.25594 0.05147 0.4472 0.0
C1538 C 0.23915 0.05112 0.49051 0.0
C1539 C 0.24879 0.05052 0.57208 0.0
C1540 C 0.27505 0.05048 0.61143 0.0
C1541 C 0.26573 0.05125 0.52823 0.0
C1542 C 0.31978 0.05153 0.60279 0.0
C1543 C 0.33667 0.05236 0.55945 0.0
H1544 H 0.29647 0.46072 0.8461 0.0
H1545 H 0.29748 0.58886 0.89953 0.0
H1546 H 0.29781 0.61771 0.8255 0.0
H1547 H 0.29715 0.60801 0.74494 0.0
H1548 H 0.2958 0.48007 0.69088 0.0
H1549 H 0.29619 0.45101 0.76496 0.0
C1550 C 0.29671 0.49533 0.84271 0.0
C1551 C 0.29694 0.52184 0.88182 0.0
C1552 C 0.29669 0.51212 0.7987 0.0
C1553 C 0.29723 0.56646 0.87292 0.0
C1554 C 0.2974 0.58315 0.82956 0.0
C1555 C 0.29688 0.57337 0.74803 0.0
C1556 C 0.29628 0.54708 0.70875 0.0
C1557 C 0.29701 0.55652 0.79193 0.0
C1558 C 0.2961 0.5024 0.71755 0.0
C1559 C 0.29633 0.48558 0.76096 0.0
H1560 H 0.8574 0.54486 0.57715 0.0
H1561 H 0.72947 0.54075 0.63125 0.0
H1562 H 0.70033 0.54034 0.55721 0.0
H1563 H 0.70985 0.5407 0.47585 0.0
H1564 H 0.83799 0.54467 0.42235 0.0
H1565 H 0.86692 0.54528 0.49636 0.0
C1566 C 0.82275 0.54387 0.57405 0.0
C1567 C 0.79654 0.54289 0.61344 0.0
C1568 C 0.8058 0.54355 0.53007 0.0
C1569 C 0.75181 0.5417 0.60458 0.0
C1570 C 0.73492 0.54139 0.56114 0.0
C1571 C 0.74448 0.54181 0.47922 0.0
C1572 C 0.7709 0.54275 0.43999 0.0
C1573 C 0.76136 0.54226 0.5233 0.0
C1574 C 0.81557 0.54401 0.44895 0.0
C1575 C 0.83233 0.54437 0.49235 0.0
H1576 H 0.78076 0.11268 0.84651 0.0
H1577 H 0.79677 0.98536 0.89967 0.0
H1578 H 0.79884 0.95677 0.82563 0.0
H1579 H 0.79681 0.96643 0.74497 0.0
H1580 H 0.78001 0.09339 0.69109 0.0
H1581 H 0.77813 0.12228 0.76516 0.0
C1582 C 0.78476 0.07831 0.84302 0.0
C1583 C 0.78856 0.05196 0.88214 0.0
C1584 C 0.78609 0.06165 0.79894 0.0
C1585 C 0.79357 1.00764 0.87311 0.0
C1586 C 0.79487 0.9911 0.82972 0.0
C1587 C 0.79269 1.00081 0.74815 0.0
C1588 C 0.78879 1.02688 0.70886 0.0
C1589 C 0.7913 1.01756 0.7921 0.0
C1590 C 0.78362 0.07126 0.71773 0.0
C1591 C 0.78235 0.08798 0.76116 0.0
H1592 H 0.35773 0.04093 0.07536 0.0
H1593 H 0.22975 0.04518 0.12937 0.0
H1594 H 0.20066 0.04511 0.0553 0.0
H1595 H 0.21027 0.04369 0.97409 0.0
H1596 H 0.33843 0.03997 0.92061 0.0
H1597 H 0.36734 0.03992 0.99464 0.0
C1598 C 0.32308 0.0419 0.07225 0.0
C1599 C 0.29682 0.04313 0.11158 0.0
C1600 C 0.30618 0.042 1.02829 0.0
C1601 C 0.25211 0.0443 0.10271 0.0
C1602 C 0.23526 0.04425 0.05928 0.0
C1603 C 0.2449 0.04305 0.97746 0.0
C1604 C 0.27135 0.04208 0.93825 0.0
C1605 C 0.26176 0.04314 1.0215 0.0
C1606 C 0.31601 0.04099 0.9472 0.0
C1607 C 0.33276 0.04091 0.9906 0.0
H1608 H 0.28332 0.6125 0.34593 0.0
H1609 H 0.29183 0.48453 0.3993 0.0
H1610 H 0.2934 0.45589 0.32524 0.0
H1611 H 0.29281 0.4657 0.24459 0.0
H1612 H 0.28396 0.59345 0.19062 0.0
H1613 H 0.28257 0.62231 0.26472 0.0
C1614 C 0.28559 0.57797 0.34253 0.0
C1615 C 0.28748 0.55148 0.38169 0.0
C1616 C 0.28666 0.56129 0.29848 0.0
C1617 C 0.29029 0.50695 0.37271 0.0
C1618 C 0.29125 0.49038 0.32931 0.0
C1619 C 0.29055 0.50026 0.24772 0.0
C1620 C 0.28862 0.52654 0.20842 0.0
C1621 C 0.28955 0.517 0.29167 0.0
C1622 C 0.2858 0.57112 0.21728 0.0
C1623 C 0.28488 0.58783 0.26071 0.0
H1624 H 0.71479 0.5485 0.0769 0.0
H1625 H 0.84267 0.55344 0.13138 0.0
H1626 H 0.87185 0.55422 0.05739 0.0
H1627 H 0.86223 0.55308 0.97628 0.0
H1628 H 0.73415 0.54726 0.92252 0.0
H1629 H 0.70516 0.54761 0.99645 0.0
C1630 C 0.74944 0.54976 0.07393 0.0
C1631 C 0.77569 0.55082 0.11325 0.0
C1632 C 0.76635 0.55006 1.03012 0.0
C1633 C 0.82039 0.55242 0.10464 0.0
C1634 C 0.83727 0.55289 0.0613 0.0
C1635 C 0.82761 0.5518 0.97957 0.0
C1636 C 0.80113 0.55019 0.94043 0.0
C1637 C 0.81076 0.55163 1.0235 0.0
C1638 C 0.7565 0.54864 0.94918 0.0
C1639 C 0.73974 0.54873 0.99247 0.0
H1640 H 0.79565 0.10678 0.24515 0.0
H1641 H 0.80015 0.97866 0.19164 0.0
H1642 H 0.80128 0.95001 0.26588 0.0
H1643 H 0.80063 0.96021 0.34693 0.0
H1644 H 0.79539 0.08858 0.39964 0.0
H1645 H 0.79526 0.11698 0.32544 0.0
C1646 C 0.79687 0.07218 0.24834 0.0
C1647 C 0.79777 0.04571 0.20919 0.0
C1648 C 0.79738 0.0556 0.29229 0.0
C1649 C 0.7993 1.0011 0.21819 0.0
C1650 C 0.79996 0.98453 0.26169 0.0
C1651 C 0.79937 0.99478 0.34336 0.0
C1652 C 0.79794 1.02151 0.3823 0.0
C1653 C 0.79894 1.01128 0.29928 0.0
C1654 C 0.79646 0.06604 0.37317 0.0
C1655 C 0.79633 0.08246 0.32972 0.0
H1656 H 0.59115 0.2108 0.05573 0.0
H1657 H 0.64508 0.33875 0.05686 0.0
H1658 H 0.57113 0.36783 0.05706 0.0
H1659 H 0.49036 0.35838 0.0562 0.0
H1660 H 0.43609 0.23056 0.05449 0.0
H1661 H 0.51005 0.20134 0.05537 0.0
C1662 C 0.58792 0.24542 0.05598 0.0
C1663 C 0.62718 0.27176 0.05612 0.0
C1664 C 0.54397 0.26236 0.05592 0.0
C1665 C 0.6184 0.31642 0.05658 0.0
C1666 C 0.57507 0.33326 0.05669 0.0
C1667 C 0.49343 0.32375 0.05597 0.0
C1668 C 0.45409 0.29753 0.0552 0.0
C1669 C 0.53732 0.30677 0.05622 0.0
C1670 C 0.4628 0.25284 0.05504 0.0
C1671 C 0.50615 0.23592 0.05549 0.0
H1672 H 0.59062 0.86116 0.54295 0.0
H1673 H 0.64453 0.73329 0.54819 0.0
H1674 H 0.57058 0.70425 0.54884 0.0
H1675 H 0.4896 0.7137 0.54804 0.0
H1676 H 0.43548 0.84151 0.54294 0.0
H1677 H 0.50945 0.87063 0.54252 0.0
C1678 C 0.58738 0.82657 0.54435 0.0
C1679 C 0.62669 0.80027 0.5456 0.0
C1680 C 0.54339 0.80965 0.5449 0.0
C1681 C 0.61786 0.75563 0.54725 0.0
C1682 C 0.5745 0.7388 0.54764 0.0
C1683 C 0.49274 0.74831 0.54682 0.0
C1684 C 0.45338 0.77454 0.54552 0.0
C1685 C 0.5367 0.76526 0.54651 0.0
C1686 C 0.46217 0.8192 0.54412 0.0
C1687 C 0.50555 0.83607 0.54379 0.0
H1688 H 0.96048 0.34337 0.77782 0.0
H1689 H 0.08891 0.39624 0.7746 0.0
H1690 H 0.11743 0.32213 0.77364 0.0
H1691 H 0.10739 0.24149 0.77347 0.0
H1692 H 0.97911 0.18816 0.77701 0.0
H1693 H 0.95044 0.2623 0.77779 0.0
C1694 C 0.99509 0.33988 0.77681 0.0
C1695 C 1.02173 0.37895 0.77617 0.0
C1696 C 1.01171 0.29578 0.77618 0.0
C1697 C 0.06635 0.36977 0.77502 0.0
C1698 C 0.08286 0.32633 0.77447 0.0
C1699 C 0.07275 0.24477 0.77441 0.0
C1700 C 0.04628 0.20559 0.77506 0.0
C1701 C 0.05609 0.28879 0.77498 0.0
C1702 C 1.00161 0.21468 0.77627 0.0
C1703 C 0.985 0.25815 0.7768 0.0
H1704 H 0.60707 0.74261 0.27252 0.0
H1705 H 0.47895 0.6891 0.27801 0.0
H1706 H 0.45014 0.76319 0.27859 0.0
H1707 H 0.46002 0.84438 0.27795 0.0
H1708 H 0.58835 0.89732 0.27286 0.0
H1709 H 0.61695 0.82326 0.27193 0.0
C1710 C 0.57244 0.74585 0.27387 0.0
C1711 C 0.54606 0.70663 0.27517 0.0
C1712 C 0.5557 0.78984 0.27433 0.0
C1713 C 0.50139 0.71565 0.27677 0.0
C1714 C 0.4847 0.75911 0.27719 0.0
C1715 C 0.49463 0.84088 0.27663 0.0
C1716 C 0.52122 0.87997 0.27552 0.0
C1717 C 0.51131 0.79679 0.27604 0.0
C1718 C 0.56583 0.87083 0.27377 0.0
C1719 C 0.5824 0.82741 0.27322 0.0
H1720 H 0.98952 0.85881 0.55596 0.0
H1721 H 0.93563 0.73088 0.55173 0.0
H1722 H 1.00967 0.70189 0.55212 0.0
H1723 H 0.09057 0.71165 0.55289 0.0
H1724 H 0.14415 0.83974 0.55381 0.0
H1725 H 0.07012 0.86861 0.55536 0.0
C1726 C 0.99267 0.82419 0.5551 0.0
C1727 C 0.95346 0.79782 0.55419 0.0
C1728 C 0.03656 0.80741 0.55459 0.0
C1729 C 0.96228 0.75321 0.55283 0.0
C1730 C 1.00565 0.73644 0.55289 0.0
C1731 C 0.08727 0.74627 0.55341 0.0
C1732 C 0.12641 0.77275 0.55361 0.0
C1733 C 0.04333 0.76303 0.55368 0.0
C1734 C 0.11753 0.81736 0.554 0.0
C1735 C 0.07418 0.83405 0.55477 0.0
H1736 H 0.11114 0.84306 0.76496 0.0
H1737 H 0.98303 0.89649 0.77182 0.0
H1738 H 0.9542 0.82255 0.772 0.0
H1739 H 0.964 0.74208 0.77104 0.0
H1740 H 0.09207 0.68815 0.76785 0.0
H1741 H 0.12102 0.76211 0.76557 0.0
C1742 C 0.07653 0.83971 0.76654 0.0
C1743 C 0.05 0.87878 0.76796 0.0
C1744 C 0.05982 0.79578 0.76744 0.0
C1745 C 1.00542 0.8699 0.77025 0.0
C1746 C 0.98875 0.8266 0.77053 0.0
C1747 C 0.99865 0.74518 0.76987 0.0
C1748 C 1.02504 0.70599 0.76922 0.0
C1749 C 1.01543 0.78903 0.76924 0.0
C1750 C 0.0697 0.71478 0.76798 0.0
C1751 C 0.08644 0.75812 0.76681 0.0
H1752 H 0.54047 0.07575 0.71366 0.0
H1753 H 0.52658 0.12957 0.841 0.0
H1754 H 0.52476 0.05557 0.86998 0.0
H1755 H 0.52655 0.97439 0.86043 0.0
H1756 H 0.54034 0.92112 0.73288 0.0
H1757 H 0.54221 0.9951 0.70408 0.0
C1758 C 0.53699 0.0726 0.74815 0.0
C1759 C 0.53372 0.11187 0.77427 0.0
C1760 C 0.53565 1.02866 0.76496 0.0
C1761 C 0.52931 0.10297 0.81877 0.0
C1762 C 0.52817 0.05957 0.83555 0.0
C1763 C 0.52998 0.97782 0.82596 0.0
C1764 C 0.53313 0.9387 0.79964 0.0
C1765 C 0.53119 1.02184 0.80918 0.0
C1766 C 0.53744 0.94767 0.75516 0.0
C1767 C 0.53867 0.99104 0.7385 0.0
H1768 H 0.23017 0.26491 0.46047 0.0
H1769 H 0.17687 0.26912 0.58874 0.0
H1770 H 0.25095 0.26839 0.61754 0.0
H1771 H 0.33157 0.26729 0.60765 0.0
H1772 H 0.38521 0.26605 0.47944 0.0
H1773 H 0.31111 0.26501 0.45055 0.0
C1774 C 0.23355 0.26571 0.49511 0.0
C1775 C 0.19446 0.26678 0.52166 0.0
C1776 C 0.27755 0.26596 0.51182 0.0
C1777 C 0.20344 0.26801 0.56629 0.0
C1778 C 0.24683 0.26771 0.58295 0.0
C1779 C 0.32834 0.26678 0.57299 0.0
C1780 C 0.36752 0.26644 0.54653 0.0
C1781 C 0.2844 0.26678 0.55624 0.0
C1782 C 0.3586 0.26607 0.50185 0.0
C1783 C 0.31519 0.26557 0.48514 0.0
H1784 H 0.52699 0.5757 0.85646 0.0
H1785 H 0.52061 0.63003 0.72864 0.0
H1786 H 0.5189 0.55613 0.69949 0.0
H1787 H 0.51955 0.47487 0.70901 0.0
H1788 H 0.52654 0.42118 0.83706 0.0
H1789 H 0.52749 0.49506 0.86599 0.0
C1790 C 0.52524 0.57269 0.82183 0.0
C1791 C 0.52394 0.61207 0.79564 0.0
C1792 C 0.52442 0.52882 0.80489 0.0
C1793 C 0.52177 0.60333 0.75094 0.0
C1794 C 0.52077 0.55999 0.73405 0.0
C1795 C 0.52134 0.47817 0.74362 0.0
C1796 C 0.52306 0.43894 0.77003 0.0
C1797 C 0.52213 0.52215 0.76049 0.0
C1798 C 0.52521 0.4478 0.81467 0.0
C1799 C 0.5258 0.49111 0.83142 0.0
H1800 H 0.7303 0.27949 0.61023 0.0
H1801 H 0.67698 0.27301 0.482 0.0
H1802 H 0.75107 0.27197 0.45333 0.0
H1803 H 0.83185 0.27285 0.46321 0.0
H1804 H 0.8855 0.2797 0.59129 0.0
H1805 H 0.81139 0.28035 0.62011 0.0
C1806 C 0.73369 0.27784 0.57563 0.0
C1807 C 0.69454 0.2764 0.54908 0.0
C1808 C 0.77774 0.27716 0.55894 0.0
C1809 C 0.70355 0.2742 0.50448 0.0
C1810 C 0.74697 0.27358 0.48788 0.0
C1811 C 0.82859 0.27452 0.49782 0.0
C1812 C 0.86782 0.27618 0.52423 0.0
C1813 C 0.78461 0.27503 0.51456 0.0
C1814 C 0.85889 0.27815 0.56888 0.0
C1815 C 0.81545 0.27863 0.58556 0.0
H1816 H 0.09137 0.36073 0.04113 0.0
H1817 H 0.1451 0.2331 0.05186 0.0
H1818 H 0.07111 0.20426 0.05377 0.0
H1819 H 0.99025 0.21385 0.05274 0.0
H1820 H 0.93626 0.34136 0.04165 0.0
H1821 H 1.01028 0.37033 0.04012 0.0
C1822 C 0.0881 0.32623 0.04397 0.0
C1823 C 0.12733 0.29992 0.04634 0.0
C1824 C 0.0441 0.30945 0.04524 0.0
C1825 C 0.11846 0.25541 0.04989 0.0
C1826 C 0.07509 0.23871 0.05105 0.0
C1827 C 0.99342 0.24836 0.04995 0.0
C1828 C 0.95412 0.27457 0.04745 0.0
C1829 C 0.03737 0.26519 0.04883 0.0
C1830 C 0.96293 0.31911 0.04401 0.0
C1831 C 1.00632 0.33588 0.04297 0.0
H1832 H 0.46451 0.24298 0.26886 0.0
H1833 H 0.59271 0.18925 0.2675 0.0
H1834 H 0.62156 0.26328 0.26606 0.0
H1835 H 0.61152 0.34425 0.26557 0.0
H1836 H 0.4832 0.39738 0.27075 0.0
H1837 H 0.45453 0.32338 0.27015 0.0
C1838 C 0.49917 0.24613 0.26824 0.0
C1839 C 0.52563 0.20695 0.26777 0.0
C1840 C 0.51587 0.29 0.26814 0.0
C1841 C 0.57029 0.21584 0.26737 0.0
C1842 C 0.58697 0.25922 0.26671 0.0
C1843 C 0.5769 0.34082 0.26663 0.0
C1844 C 0.55026 0.37984 0.2678 0.0
C1845 C 0.56027 0.29685 0.26708 0.0
C1846 C 0.50568 0.37085 0.26941 0.0
C1847 C 0.4891 0.32751 0.26923 0.0
loop_
_geom_bond_atom_site_label_1
_geom_bond_atom_site_label_2
_geom_bond_distance
_geom_bond_site_symmetry_2
_ccdc_geom_bond_type
H0 O1 0.850 . S
O1 H0 0.850 . S
O1 Tb2 2.341 . S
O1 Tb3 2.341 . S
O1 Tb4 2.341 . S
Tb2 O1 2.341 . S
Tb2 O5 2.341 . S
Tb2 O6 2.341 1_455 S
Tb2 O7 2.341 1_455 S
Tb2 O22 2.344 . S
Tb2 O25 2.344 1_455 S
Tb2 O38 2.344 1_455 S
Tb2 O41 2.344 . S
Tb3 O1 2.341 . S
Tb3 O5 2.341 . S
Tb3 O8 2.341 . S
Tb3 O10 2.341 . S
Tb3 O26 2.344 . S
Tb3 O29 2.344 . S
Tb3 O34 2.344 . S
Tb3 O37 2.344 . S
Tb4 O1 2.341 . S
Tb4 O6 2.341 1_455 S
Tb4 O9 2.341 1_455 S
Tb4 O10 2.341 . S
Tb4 O30 2.344 . S
Tb4 O33 2.344 . S
Tb4 O43 2.344 1_455 S
Tb4 O44 2.344 . S
O5 Tb2 2.341 . S
O5 Tb3 2.341 . S
O5 H11 0.850 . S
O5 Tb13 2.341 1_455 S
O6 Tb2 2.341 1_655 S
O6 Tb4 2.341 1_655 S
O6 H12 0.850 . S
O6 Tb14 2.341 . S
O7 Tb2 2.341 1_655 S
O7 Tb13 2.341 . S
O7 Tb14 2.341 . S
O7 H15 0.850 . S
O8 Tb3 2.341 . S
O8 Tb13 2.341 1_455 S
O8 H16 0.850 . S
O8 Tb17 2.341 . S
O9 Tb4 2.341 1_655 S
O9 Tb14 2.341 . S
O9 Tb17 2.341 1_655 S
O9 H18 0.850 . S
O10 Tb3 2.341 . S
O10 Tb4 2.341 . S
O10 Tb17 2.341 . S
O10 H19 0.850 . S
H11 O5 0.850 . S
H12 O6 0.850 . S
Tb13 O5 2.341 1_655 S
Tb13 O7 2.341 . S
Tb13 O8 2.341 1_655 S
Tb13 O20 2.341 . S
Tb13 O31 2.344 . S
Tb13 O32 2.344 . S
Tb13 O42 2.344 1_655 S
Tb13 O45 2.344 . S
Tb14 O6 2.341 . S
Tb14 O7 2.341 . S
Tb14 O9 2.341 . S
Tb14 O20 2.341 . S
Tb14 O27 2.344 . S
Tb14 O28 2.344 . S
Tb14 O35 2.344 . S
Tb14 O36 2.344 . S
H15 O7 0.850 . S
H16 O8 0.850 . S
Tb17 O8 2.341 . S
Tb17 O9 2.341 1_455 S
Tb17 O10 2.341 . S
Tb17 O20 2.341 1_455 S
Tb17 O23 2.344 1_455 S
Tb17 O24 2.344 . S
Tb17 O39 2.344 . S
Tb17 O40 2.344 1_455 S
H18 O9 0.850 . S
H19 O10 0.850 . S
O20 Tb13 2.341 . S
O20 Tb14 2.341 . S
O20 Tb17 2.341 1_655 S
O20 H21 0.850 . S
H21 O20 0.850 . S
O22 Tb2 2.344 . S
O22 C46 1.272 . S
O23 Tb17 2.344 1_655 S
O23 C47 1.272 . S
O24 Tb17 2.344 . S
O24 C48 1.272 . S
O25 Tb2 2.344 1_655 S
O25 C49 1.272 . S
O26 Tb3 2.344 . S
O26 C50 1.272 . S
O27 Tb14 2.344 . S
O27 C51 1.272 . S
O28 Tb14 2.344 . S
O28 C52 1.272 . S
O29 Tb3 2.344 . S
O29 C53 1.272 . S
O30 Tb4 2.344 . S
O30 C54 1.272 . S
O31 Tb13 2.344 . S
O31 C55 1.272 . S
O32 Tb13 2.344 . S
O32 C56 1.272 . S
O33 Tb4 2.344 . S
O33 C57 1.272 . S
O34 Tb3 2.344 . S
O34 C46 1.272 . S
O35 Tb14 2.344 . S
O35 C47 1.272 . S
O36 Tb14 2.344 . S
O36 C49 1.272 . S
O37 Tb3 2.344 . S
O37 C48 1.272 . S
O38 Tb2 2.344 1_655 S
O38 C56 1.272 . S
O39 Tb17 2.344 . S
O39 C57 1.272 . S
O40 Tb17 2.344 1_655 S
O40 C55 1.272 . S
O41 Tb2 2.344 . S
O41 C54 1.272 . S
O42 Tb13 2.344 1_455 S
O42 C53 1.272 . S
O43 Tb4 2.344 1_655 S
O43 C52 1.272 . S
O44 Tb4 2.344 . S
O44 C50 1.272 . S
O45 Tb13 2.344 . S
O45 C51 1.272 . S
C46 O22 1.272 . S
C46 O34 1.272 . S
C47 O23 1.272 . S
C47 O35 1.272 . S
C48 O24 1.272 . S
C48 O37 1.272 . S
C49 O25 1.272 . S
C49 O36 1.272 . S
C50 O26 1.272 . S
C50 O44 1.272 . S
C51 O27 1.272 . S
C51 O45 1.272 . S
C52 O28 1.272 . S
C52 O43 1.272 . S
C53 O29 1.272 . S
C53 O42 1.272 . S
C54 O30 1.272 . S
C54 O41 1.272 . S
C55 O31 1.272 . S
C55 O40 1.272 . S
C56 O32 1.272 . S
C56 O38 1.272 . S
C57 O33 1.272 . S
C57 O39 1.272 . S
H58 O59 0.850 . S
O59 H58 0.850 . S
O59 Tb60 2.341 . S
O59 Tb61 2.341 . S
O59 Tb62 2.341 . S
Tb60 O59 2.341 . S
Tb60 O63 2.341 . S
Tb60 O64 2.341 . S
Tb60 O65 2.341 . S
Tb60 O80 2.344 . S
Tb60 O83 2.344 . S
Tb60 O96 2.344 . S
Tb60 O99 2.344 . S
Tb61 O59 2.341 . S
Tb61 O63 2.341 . S
Tb61 O66 2.341 . S
Tb61 O68 2.341 . S
Tb61 O84 2.344 . S
Tb61 O87 2.344 . S
Tb61 O92 2.344 . S
Tb61 O95 2.344 . S
Tb62 O59 2.341 . S
Tb62 O64 2.341 . S
Tb62 O67 2.341 . S
Tb62 O68 2.341 . S
Tb62 O88 2.344 . S
Tb62 O91 2.344 . S
Tb62 O101 2.344 . S
Tb62 O102 2.344 . S
O63 Tb60 2.341 . S
O63 Tb61 2.341 . S
O63 H69 0.850 . S
O63 Tb71 2.341 . S
O64 Tb60 2.341 . S
O64 Tb62 2.341 . S
O64 H70 0.850 . S
O64 Tb72 2.341 . S
O65 Tb60 2.341 . S
O65 Tb71 2.341 . S
O65 Tb72 2.341 . S
O65 H73 0.850 . S
O66 Tb61 2.341 . S
O66 Tb71 2.341 . S
O66 H74 0.850 . S
O66 Tb75 2.341 . S
O67 Tb62 2.341 . S
O67 Tb72 2.341 . S
O67 Tb75 2.341 . S
O67 H76 0.850 . S
O68 Tb61 2.341 . S
O68 Tb62 2.341 . S
O68 Tb75 2.341 . S
O68 H77 0.850 . S
H69 O63 0.850 . S
H70 O64 0.850 . S
Tb71 O63 2.341 . S
Tb71 O65 2.341 . S
Tb71 O66 2.341 . S
Tb71 O78 2.341 . S
Tb71 O89 2.344 . S
Tb71 O90 2.344 . S
Tb71 O100 2.344 . S
Tb71 O103 2.344 . S
Tb72 O64 2.341 . S
Tb72 O65 2.341 . S
Tb72 O67 2.341 . S
Tb72 O78 2.341 . S
Tb72 O85 2.344 . S
Tb72 O86 2.344 . S
Tb72 O93 2.344 . S
Tb72 O94 2.344 . S
H73 O65 0.850 . S
H74 O66 0.850 . S
Tb75 O66 2.341 . S
Tb75 O67 2.341 . S
Tb75 O68 2.341 . S
Tb75 O78 2.341 . S
Tb75 O81 2.344 . S
Tb75 O82 2.344 . S
Tb75 O97 2.344 . S
Tb75 O98 2.344 . S
H76 O67 0.850 . S
H77 O68 0.850 . S
O78 Tb71 2.341 . S
O78 Tb72 2.341 . S
O78 Tb75 2.341 . S
O78 H79 0.850 . S
H79 O78 0.850 . S
O80 Tb60 2.344 . S
O80 C104 1.272 . S
O81 Tb75 2.344 . S
O81 C105 1.272 . S
O82 Tb75 2.344 . S
O82 C106 1.272 . S
O83 Tb60 2.344 . S
O83 C107 1.272 . S
O84 Tb61 2.344 . S
O84 C108 1.272 . S
O85 Tb72 2.344 . S
O85 C109 1.272 . S
O86 Tb72 2.344 . S
O86 C110 1.272 . S
O87 Tb61 2.344 . S
O87 C111 1.272 . S
O88 Tb62 2.344 . S
O88 C112 1.272 . S
O89 Tb71 2.344 . S
O89 C113 1.272 . S
O90 Tb71 2.344 . S
O90 C114 1.272 . S
O91 Tb62 2.344 . S
O91 C115 1.272 . S
O92 Tb61 2.344 . S
O92 C104 1.272 . S
O93 Tb72 2.344 . S
O93 C105 1.272 . S
O94 Tb72 2.344 . S
O94 C107 1.272 . S
O95 Tb61 2.344 . S
O95 C106 1.272 . S
O96 Tb60 2.344 . S
O96 C114 1.272 . S
O97 Tb75 2.344 . S
O97 C115 1.272 . S
O98 Tb75 2.344 . S
O98 C113 1.272 . S
O99 Tb60 2.344 . S
O99 C112 1.272 . S
O100 Tb71 2.344 . S
O100 C111 1.272 . S
O101 Tb62 2.344 . S
O101 C110 1.272 . S
O102 Tb62 2.344 . S
O102 C108 1.272 . S
O103 Tb71 2.344 . S
O103 C109 1.272 . S
C104 O80 1.272 . S
C104 O92 1.272 . S
C105 O81 1.272 . S
C105 O93 1.272 . S
C106 O82 1.272 . S
C106 O95 1.272 . S
C107 O83 1.272 . S
C107 O94 1.272 . S
C108 O84 1.272 . S
C108 O102 1.272 . S
C109 O85 1.272 . S
C109 O103 1.272 . S
C110 O86 1.272 . S
C110 O101 1.272 . S
C111 O87 1.272 . S
C111 O100 1.272 . S
C112 O88 1.272 . S
C112 O99 1.272 . S
C113 O89 1.272 . S
C113 O98 1.272 . S
C114 O90 1.272 . S
C114 O96 1.272 . S
C115 O91 1.272 . S
C115 O97 1.272 . S
H116 O117 0.850 . S
O117 H116 0.850 . S
O117 Tb118 2.341 1_655 S
O117 Tb119 2.341 . S
O117 Tb120 2.341 . S
Tb118 O117 2.341 1_455 S
Tb118 O121 2.341 . S
Tb118 O122 2.341 1_455 S
Tb118 O123 2.341 . S
Tb118 O138 2.344 1_455 S
Tb118 O141 2.344 . S
Tb118 O154 2.344 . S
Tb118 O157 2.344 1_455 S
Tb119 O117 2.341 . S
Tb119 O121 2.341 1_655 S
Tb119 O124 2.341 1_655 S
Tb119 O126 2.341 . S
Tb119 O142 2.344 . S
Tb119 O145 2.344 1_655 S
Tb119 O150 2.344 . S
Tb119 O153 2.344 . S
Tb120 O117 2.341 . S
Tb120 O122 2.341 . S
Tb120 O125 2.341 . S
Tb120 O126 2.341 . S
Tb120 O146 2.344 . S
Tb120 O149 2.344 . S
Tb120 O159 2.344 . S
Tb120 O160 2.344 . S
O121 Tb118 2.341 . S
O121 Tb119 2.341 1_455 S
O121 H127 0.850 . S
O121 Tb129 2.341 . S
O122 Tb118 2.341 1_655 S
O122 Tb120 2.341 . S
O122 H128 0.850 . S
O122 Tb130 2.341 1_655 S
O123 Tb118 2.341 . S
O123 Tb129 2.341 . S
O123 Tb130 2.341 . S
O123 H131 0.850 . S
O124 Tb119 2.341 1_455 S
O124 Tb129 2.341 . S
O124 H132 0.850 . S
O124 Tb133 2.341 . S
O125 Tb120 2.341 . S
O125 Tb130 2.341 1_655 S
O125 Tb133 2.341 1_655 S
O125 H134 0.850 . S
O126 Tb119 2.341 . S
O126 Tb120 2.341 . S
O126 Tb133 2.341 1_655 S
O126 H135 0.850 . S
H127 O121 0.850 . S
H128 O122 0.850 . S
Tb129 O121 2.341 . S
Tb129 O123 2.341 . S
Tb129 O124 2.341 . S
Tb129 O136 2.341 . S
Tb129 O147 2.344 . S
Tb129 O148 2.344 . S
Tb129 O158 2.344 . S
Tb129 O161 2.344 . S
Tb130 O122 2.341 1_455 S
Tb130 O123 2.341 . S
Tb130 O125 2.341 1_455 S
Tb130 O136 2.341 . S
Tb130 O143 2.344 . S
Tb130 O144 2.344 1_455 S
Tb130 O151 2.344 . S
Tb130 O152 2.344 . S
H131 O123 0.850 . S
H132 O124 0.850 . S
Tb133 O124 2.341 . S
Tb133 O125 2.341 1_455 S
Tb133 O126 2.341 1_455 S
Tb133 O136 2.341 . S
Tb133 O139 2.344 . S
Tb133 O140 2.344 1_455 S
Tb133 O155 2.344 1_455 S
Tb133 O156 2.344 . S
H134 O125 0.850 . S
H135 O126 0.850 . S
O136 Tb129 2.341 . S
O136 Tb130 2.341 . S
O136 Tb133 2.341 . S
O136 H137 0.850 . S
H137 O136 0.850 . S
O138 Tb118 2.344 1_655 S
O138 C162 1.272 . S
O139 Tb133 2.344 . S
O139 C163 1.272 . S
O140 Tb133 2.344 1_655 S
O140 C164 1.272 . S
O141 Tb118 2.344 . S
O141 C165 1.272 . S
O142 Tb119 2.344 . S
O142 C166 1.272 . S
O143 Tb130 2.344 . S
O143 C167 1.272 . S
O144 Tb130 2.344 1_655 S
O144 C168 1.272 . S
O145 Tb119 2.344 1_455 S
O145 C169 1.272 . S
O146 Tb120 2.344 . S
O146 C170 1.272 . S
O147 Tb129 2.344 . S
O147 C171 1.272 . S
O148 Tb129 2.344 . S
O148 C172 1.272 . S
O149 Tb120 2.344 . S
O149 C173 1.272 . S
O150 Tb119 2.344 . S
O150 C162 1.272 . S
O151 Tb130 2.344 . S
O151 C163 1.272 . S
O152 Tb130 2.344 . S
O152 C165 1.272 . S
O153 Tb119 2.344 . S
O153 C164 1.272 . S
O154 Tb118 2.344 . S
O154 C172 1.272 . S
O155 Tb133 2.344 1_655 S
O155 C173 1.272 . S
O156 Tb133 2.344 . S
O156 C171 1.272 . S
O157 Tb118 2.344 1_655 S
O157 C170 1.272 . S
O158 Tb129 2.344 . S
O158 C169 1.272 . S
O159 Tb120 2.344 . S
O159 C168 1.272 . S
O160 Tb120 2.344 . S
O160 C166 1.272 . S
O161 Tb129 2.344 . S
O161 C167 1.272 . S
C162 O138 1.272 . S
C162 O150 1.272 . S
C163 O139 1.272 . S
C163 O151 1.272 . S
C164 O140 1.272 . S
C164 O153 1.272 . S
C165 O141 1.272 . S
C165 O152 1.272 . S
C166 O142 1.272 . S
C166 O160 1.272 . S
C167 O143 1.272 . S
C167 O161 1.272 . S
C168 O144 1.272 . S
C168 O159 1.272 . S
C169 O145 1.272 . S
C169 O158 1.272 . S
C170 O146 1.272 . S
C170 O157 1.272 . S
C171 O147 1.272 . S
C171 O156 1.272 . S
C172 O148 1.272 . S
C172 O154 1.272 . S
C173 O149 1.272 . S
C173 O155 1.272 . S
H174 O175 0.850 . S
O175 H174 0.850 . S
O175 Tb176 2.341 . S
O175 Tb177 2.341 1_565 S
O175 Tb178 2.341 . S
Tb176 O175 2.341 . S
Tb176 O179 2.341 1_565 S
Tb176 O180 2.341 . S
Tb176 O181 2.341 1_565 S
Tb176 O196 2.344 . S
Tb176 O199 2.344 . S
Tb176 O212 2.344 1_565 S
Tb176 O215 2.344 . S
Tb177 O175 2.341 1_545 S
Tb177 O179 2.341 . S
Tb177 O182 2.341 . S
Tb177 O184 2.341 1_545 S
Tb177 O200 2.344 1_545 S
Tb177 O203 2.344 . S
Tb177 O208 2.344 1_545 S
Tb177 O211 2.344 . S
Tb178 O175 2.341 . S
Tb178 O180 2.341 . S
Tb178 O183 2.341 . S
Tb178 O184 2.341 . S
Tb178 O204 2.344 . S
Tb178 O207 2.344 . S
Tb178 O217 2.344 . S
Tb178 O218 2.344 . S
O179 Tb176 2.341 1_545 S
O179 Tb177 2.341 . S
O179 H185 0.850 . S
O179 Tb187 2.341 . S
O180 Tb176 2.341 . S
O180 Tb178 2.341 . S
O180 H186 0.850 . S
O180 Tb188 2.341 1_565 S
O181 Tb176 2.341 1_545 S
O181 Tb187 2.341 . S
O181 Tb188 2.341 . S
O181 H189 0.850 . S
O182 Tb177 2.341 . S
O182 Tb187 2.341 . S
O182 H190 0.850 . S
O182 Tb191 2.341 . S
O183 Tb178 2.341 . S
O183 Tb188 2.341 1_565 S
O183 Tb191 2.341 1_565 S
O183 H192 0.850 . S
O184 Tb177 2.341 1_565 S
O184 Tb178 2.341 . S
O184 Tb191 2.341 1_565 S
O184 H193 0.850 . S
H185 O179 0.850 . S
H186 O180 0.850 . S
Tb187 O179 2.341 . S
Tb187 O181 2.341 . S
Tb187 O182 2.341 . S
Tb187 O194 2.341 . S
Tb187 O205 2.344 . S
Tb187 O206 2.344 . S
Tb187 O216 2.344 . S
Tb187 O219 2.344 . S
Tb188 O180 2.341 1_545 S
Tb188 O181 2.341 . S
Tb188 O183 2.341 1_545 S
Tb188 O194 2.341 . S
Tb188 O201 2.344 . S
Tb188 O202 2.344 1_545 S
Tb188 O209 2.344 . S
Tb188 O210 2.344 1_545 S
H189 O181 0.850 . S
H190 O182 0.850 . S
Tb191 O182 2.341 . S
Tb191 O183 2.341 1_545 S
Tb191 O184 2.341 1_545 S
Tb191 O194 2.341 . S
Tb191 O197 2.344 . S
Tb191 O198 2.344 . S
Tb191 O213 2.344 1_545 S
Tb191 O214 2.344 . S
H192 O183 0.850 . S
H193 O184 0.850 . S
O194 Tb187 2.341 . S
O194 Tb188 2.341 . S
O194 Tb191 2.341 . S
O194 H195 0.850 . S
H195 O194 0.850 . S
O196 Tb176 2.344 . S
O196 C220 1.272 . S
O197 Tb191 2.344 . S
O197 C221 1.272 . S
O198 Tb191 2.344 . S
O198 C222 1.272 . S
O199 Tb176 2.344 . S
O199 C223 1.272 . S
O200 Tb177 2.344 1_565 S
O200 C224 1.272 . S
O201 Tb188 2.344 . S
O201 C225 1.272 . S
O202 Tb188 2.344 1_565 S
O202 C226 1.272 . S
O203 Tb177 2.344 . S
O203 C227 1.272 . S
O204 Tb178 2.344 . S
O204 C228 1.272 . S
O205 Tb187 2.344 . S
O205 C229 1.272 . S
O206 Tb187 2.344 . S
O206 C230 1.272 . S
O207 Tb178 2.344 . S
O207 C231 1.272 . S
O208 Tb177 2.344 1_565 S
O208 C220 1.272 . S
O209 Tb188 2.344 . S
O209 C221 1.272 . S
O210 Tb188 2.344 1_565 S
O210 C223 1.272 . S
O211 Tb177 2.344 . S
O211 C222 1.272 . S
O212 Tb176 2.344 1_545 S
O212 C230 1.272 . S
O213 Tb191 2.344 1_565 S
O213 C231 1.272 . S
O214 Tb191 2.344 . S
O214 C229 1.272 . S
O215 Tb176 2.344 . S
O215 C228 1.272 . S
O216 Tb187 2.344 . S
O216 C227 1.272 . S
O217 Tb178 2.344 . S
O217 C226 1.272 . S
O218 Tb178 2.344 . S
O218 C224 1.272 . S
O219 Tb187 2.344 . S
O219 C225 1.272 . S
C220 O196 1.272 . S
C220 O208 1.272 . S
C221 O197 1.272 . S
C221 O209 1.272 . S
C222 O198 1.272 . S
C222 O211 1.272 . S
C223 O199 1.272 . S
C223 O210 1.272 . S
C224 O200 1.272 . S
C224 O218 1.272 . S
C225 O201 1.272 . S
C225 O219 1.272 . S
C226 O202 1.272 . S
C226 O217 1.272 . S
C227 O203 1.272 . S
C227 O216 1.272 . S
C228 O204 1.272 . S
C228 O215 1.272 . S
C229 O205 1.272 . S
C229 O214 1.272 . S
C230 O206 1.272 . S
C230 O212 1.272 . S
C231 O207 1.272 . S
C231 O213 1.272 . S
H232 O233 0.850 . S
O233 H232 0.850 . S
O233 Tb234 2.341 1_556 S
O233 Tb235 2.341 . S
O233 Tb236 2.341 . S
Tb234 O233 2.341 1_554 S
Tb234 O237 2.341 1_554 S
Tb234 O238 2.341 . S
Tb234 O239 2.341 . S
Tb234 O254 2.344 1_554 S
Tb234 O257 2.344 . S
Tb234 O270 2.344 . S
Tb234 O273 2.344 1_554 S
Tb235 O233 2.341 . S
Tb235 O237 2.341 . S
Tb235 O240 2.341 . S
Tb235 O242 2.341 . S
Tb235 O258 2.344 . S
Tb235 O261 2.344 . S
Tb235 O266 2.344 . S
Tb235 O269 2.344 . S
Tb236 O233 2.341 . S
Tb236 O238 2.341 1_556 S
Tb236 O241 2.341 1_556 S
Tb236 O242 2.341 . S
Tb236 O262 2.344 . S
Tb236 O265 2.344 . S
Tb236 O275 2.344 1_556 S
Tb236 O276 2.344 . S
O237 Tb234 2.341 1_556 S
O237 Tb235 2.341 . S
O237 H243 0.850 . S
O237 Tb245 2.341 1_556 S
O238 Tb234 2.341 . S
O238 Tb236 2.341 1_554 S
O238 H244 0.850 . S
O238 Tb246 2.341 . S
O239 Tb234 2.341 . S
O239 Tb245 2.341 . S
O239 Tb246 2.341 . S
O239 H247 0.850 . S
O240 Tb235 2.341 . S
O240 Tb245 2.341 1_556 S
O240 H248 0.850 . S
O240 Tb249 2.341 1_556 S
O241 Tb236 2.341 1_554 S
O241 Tb246 2.341 . S
O241 Tb249 2.341 . S
O241 H250 0.850 . S
O242 Tb235 2.341 . S
O242 Tb236 2.341 . S
O242 Tb249 2.341 1_556 S
O242 H251 0.850 . S
H243 O237 0.850 . S
H244 O238 0.850 . S
Tb245 O237 2.341 1_554 S
Tb245 O239 2.341 . S
Tb245 O240 2.341 1_554 S
Tb245 O252 2.341 . S
Tb245 O263 2.344 . S
Tb245 O264 2.344 . S
Tb245 O274 2.344 1_554 S
Tb245 O277 2.344 . S
Tb246 O238 2.341 . S
Tb246 O239 2.341 . S
Tb246 O241 2.341 . S
Tb246 O252 2.341 . S
Tb246 O259 2.344 . S
Tb246 O260 2.344 . S
Tb246 O267 2.344 . S
Tb246 O268 2.344 . S
H247 O239 0.850 . S
H248 O240 0.850 . S
Tb249 O240 2.341 1_554 S
Tb249 O241 2.341 . S
Tb249 O242 2.341 1_554 S
Tb249 O252 2.341 . S
Tb249 O255 2.344 . S
Tb249 O256 2.344 1_554 S
Tb249 O271 2.344 1_554 S
Tb249 O272 2.344 . S
H250 O241 0.850 . S
H251 O242 0.850 . S
O252 Tb245 2.341 . S
O252 Tb246 2.341 . S
O252 Tb249 2.341 . S
O252 H253 0.850 . S
H253 O252 0.850 . S
O254 Tb234 2.344 1_556 S
O254 C278 1.272 . S
O255 Tb249 2.344 . S
O255 C279 1.272 . S
O256 Tb249 2.344 1_556 S
O256 C280 1.272 . S
O257 Tb234 2.344 . S
O257 C281 1.272 . S
O258 Tb235 2.344 . S
O258 C282 1.272 . S
O259 Tb246 2.344 . S
O259 C283 1.272 . S
O260 Tb246 2.344 . S
O260 C284 1.272 . S
O261 Tb235 2.344 . S
O261 C285 1.272 . S
O262 Tb236 2.344 . S
O262 C286 1.272 . S
O263 Tb245 2.344 . S
O263 C287 1.272 . S
O264 Tb245 2.344 . S
O264 C288 1.272 . S
O265 Tb236 2.344 . S
O265 C289 1.272 . S
O266 Tb235 2.344 . S
O266 C278 1.272 . S
O267 Tb246 2.344 . S
O267 C279 1.272 . S
O268 Tb246 2.344 . S
O268 C281 1.272 . S
O269 Tb235 2.344 . S
O269 C280 1.272 . S
O270 Tb234 2.344 . S
O270 C288 1.272 . S
O271 Tb249 2.344 1_556 S
O271 C289 1.272 . S
O272 Tb249 2.344 . S
O272 C287 1.272 . S
O273 Tb234 2.344 1_556 S
O273 C286 1.272 . S
O274 Tb245 2.344 1_556 S
O274 C285 1.272 . S
O275 Tb236 2.344 1_554 S
O275 C284 1.272 . S
O276 Tb236 2.344 . S
O276 C282 1.272 . S
O277 Tb245 2.344 . S
O277 C283 1.272 . S
C278 O254 1.272 . S
C278 O266 1.272 . S
C279 O255 1.272 . S
C279 O267 1.272 . S
C280 O256 1.272 . S
C280 O269 1.272 . S
C281 O257 1.272 . S
C281 O268 1.272 . S
C282 O258 1.272 . S
C282 O276 1.272 . S
C283 O259 1.272 . S
C283 O277 1.272 . S
C284 O260 1.272 . S
C284 O275 1.272 . S
C285 O261 1.272 . S
C285 O274 1.272 . S
C286 O262 1.272 . S
C286 O273 1.272 . S
C287 O263 1.272 . S
C287 O272 1.272 . S
C288 O264 1.272 . S
C288 O270 1.272 . S
C289 O265 1.272 . S
C289 O271 1.272 . S
H290 O291 0.850 . S
O291 H290 0.850 . S
O291 Tb292 2.341 . S
O291 Tb293 2.341 . S
O291 Tb294 2.341 . S
Tb292 O291 2.341 . S
Tb292 O295 2.341 . S
Tb292 O296 2.341 . S
Tb292 O297 2.341 . S
Tb292 O312 2.344 . S
Tb292 O315 2.344 . S
Tb292 O328 2.344 . S
Tb292 O331 2.344 . S
Tb293 O291 2.341 . S
Tb293 O295 2.341 . S
Tb293 O298 2.341 . S
Tb293 O300 2.341 . S
Tb293 O316 2.344 . S
Tb293 O319 2.344 . S
Tb293 O324 2.344 . S
Tb293 O327 2.344 . S
Tb294 O291 2.341 . S
Tb294 O296 2.341 . S
Tb294 O299 2.341 . S
Tb294 O300 2.341 . S
Tb294 O320 2.344 . S
Tb294 O323 2.344 . S
Tb294 O333 2.344 . S
Tb294 O334 2.344 . S
O295 Tb292 2.341 . S
O295 Tb293 2.341 . S
O295 H301 0.850 . S
O295 Tb303 2.341 . S
O296 Tb292 2.341 . S
O296 Tb294 2.341 . S
O296 H302 0.850 . S
O296 Tb304 2.341 . S
O297 Tb292 2.341 . S
O297 Tb303 2.341 . S
O297 Tb304 2.341 . S
O297 H305 0.850 . S
O298 Tb293 2.341 . S
O298 Tb303 2.341 . S
O298 H306 0.850 . S
O298 Tb307 2.341 . S
O299 Tb294 2.341 . S
O299 Tb304 2.341 . S
O299 Tb307 2.341 . S
O299 H308 0.850 . S
O300 Tb293 2.341 . S
O300 Tb294 2.341 . S
O300 Tb307 2.341 . S
O300 H309 0.850 . S
H301 O295 0.850 . S
H302 O296 0.850 . S
Tb303 O295 2.341 . S
Tb303 O297 2.341 . S
Tb303 O298 2.341 . S
Tb303 O310 2.341 . S
Tb303 O321 2.344 . S
Tb303 O322 2.344 . S
Tb303 O332 2.344 . S
Tb303 O335 2.344 . S
Tb304 O296 2.341 . S
Tb304 O297 2.341 . S
Tb304 O299 2.341 . S
Tb304 O310 2.341 . S
Tb304 O317 2.344 . S
Tb304 O318 2.344 . S
Tb304 O325 2.344 . S
Tb304 O326 2.344 . S
H305 O297 0.850 . S
H306 O298 0.850 . S
Tb307 O298 2.341 . S
Tb307 O299 2.341 . S
Tb307 O300 2.341 . S
Tb307 O310 2.341 . S
Tb307 O313 2.344 . S
Tb307 O314 2.344 . S
Tb307 O329 2.344 . S
Tb307 O330 2.344 . S
H308 O299 0.850 . S
H309 O300 0.850 . S
O310 Tb303 2.341 . S
O310 Tb304 2.341 . S
O310 Tb307 2.341 . S
O310 H311 0.850 . S
H311 O310 0.850 . S
O312 Tb292 2.344 . S
O312 C336 1.272 . S
O313 Tb307 2.344 . S
O313 C337 1.272 . S
O314 Tb307 2.344 . S
O314 C338 1.272 . S
O315 Tb292 2.344 . S
O315 C339 1.272 . S
O316 Tb293 2.344 . S
O316 C340 1.272 . S
O317 Tb304 2.344 . S
O317 C341 1.272 . S
O318 Tb304 2.344 . S
O318 C342 1.272 . S
O319 Tb293 2.344 . S
O319 C343 1.272 . S
O320 Tb294 2.344 . S
O320 C344 1.272 . S
O321 Tb303 2.344 . S
O321 C345 1.272 . S
O322 Tb303 2.344 . S
O322 C346 1.272 . S
O323 Tb294 2.344 . S
O323 C347 1.272 . S
O324 Tb293 2.344 . S
O324 C336 1.272 . S
O325 Tb304 2.344 . S
O325 C337 1.272 . S
O326 Tb304 2.344 . S
O326 C339 1.272 . S
O327 Tb293 2.344 . S
O327 C338 1.272 . S
O328 Tb292 2.344 . S
O328 C346 1.272 . S
O329 Tb307 2.344 . S
O329 C347 1.272 . S
O330 Tb307 2.344 . S
O330 C345 1.272 . S
O331 Tb292 2.344 . S
O331 C344 1.272 . S
O332 Tb303 2.344 . S
O332 C343 1.272 . S
O333 Tb294 2.344 . S
O333 C342 1.272 . S
O334 Tb294 2.344 . S
O334 C340 1.272 . S
O335 Tb303 2.344 . S
O335 C341 1.272 . S
C336 O312 1.272 . S
C336 O324 1.272 . S
C337 O313 1.272 . S
C337 O325 1.272 . S
C338 O314 1.272 . S
C338 O327 1.272 . S
C339 O315 1.272 . S
C339 O326 1.272 . S
C340 O316 1.272 . S
C340 O334 1.272 . S
C341 O317 1.272 . S
C341 O335 1.272 . S
C342 O318 1.272 . S
C342 O333 1.272 . S
C343 O319 1.272 . S
C343 O332 1.272 . S
C344 O320 1.272 . S
C344 O331 1.272 . S
C345 O321 1.272 . S
C345 O330 1.272 . S
C346 O322 1.272 . S
C346 O328 1.272 . S
C347 O323 1.272 . S
C347 O329 1.272 . S
H348 O349 0.850 . S
O349 H348 0.850 . S
O349 Tb350 2.341 1_556 S
O349 Tb351 2.341 . S
O349 Tb352 2.341 . S
Tb350 O349 2.341 1_554 S
Tb350 O353 2.341 . S
Tb350 O354 2.341 1_554 S
Tb350 O355 2.341 . S
Tb350 O370 2.344 1_554 S
Tb350 O373 2.344 . S
Tb350 O386 2.344 . S
Tb350 O389 2.344 1_554 S
Tb351 O349 2.341 . S
Tb351 O353 2.341 1_556 S
Tb351 O356 2.341 1_556 S
Tb351 O358 2.341 . S
Tb351 O374 2.344 . S
Tb351 O377 2.344 1_556 S
Tb351 O382 2.344 . S
Tb351 O385 2.344 . S
Tb352 O349 2.341 . S
Tb352 O354 2.341 . S
Tb352 O357 2.341 . S
Tb352 O358 2.341 . S
Tb352 O378 2.344 . S
Tb352 O381 2.344 . S
Tb352 O391 2.344 . S
Tb352 O392 2.344 . S
O353 Tb350 2.341 . S
O353 Tb351 2.341 1_554 S
O353 H359 0.850 . S
O353 Tb361 2.341 . S
O354 Tb350 2.341 1_556 S
O354 Tb352 2.341 . S
O354 H360 0.850 . S
O354 Tb362 2.341 1_556 S
O355 Tb350 2.341 . S
O355 Tb361 2.341 . S
O355 Tb362 2.341 . S
O355 H363 0.850 . S
O356 Tb351 2.341 1_554 S
O356 Tb361 2.341 . S
O356 H364 0.850 . S
O356 Tb365 2.341 . S
O357 Tb352 2.341 . S
O357 Tb362 2.341 1_556 S
O357 Tb365 2.341 1_556 S
O357 H366 0.850 . S
O358 Tb351 2.341 . S
O358 Tb352 2.341 . S
O358 Tb365 2.341 1_556 S
O358 H367 0.850 . S
H359 O353 0.850 . S
H360 O354 0.850 . S
Tb361 O353 2.341 . S
Tb361 O355 2.341 . S
Tb361 O356 2.341 . S
Tb361 O368 2.341 . S
Tb361 O379 2.344 . S
Tb361 O380 2.344 . S
Tb361 O390 2.344 . S
Tb361 O393 2.344 . S
Tb362 O354 2.341 1_554 S
Tb362 O355 2.341 . S
Tb362 O357 2.341 1_554 S
Tb362 O368 2.341 . S
Tb362 O375 2.344 . S
Tb362 O376 2.344 1_554 S
Tb362 O383 2.344 . S
Tb362 O384 2.344 . S
H363 O355 0.850 . S
H364 O356 0.850 . S
Tb365 O356 2.341 . S
Tb365 O357 2.341 1_554 S
Tb365 O358 2.341 1_554 S
Tb365 O368 2.341 . S
Tb365 O371 2.344 . S
Tb365 O372 2.344 1_554 S
Tb365 O387 2.344 1_554 S
Tb365 O388 2.344 . S
H366 O357 0.850 . S
H367 O358 0.850 . S
O368 Tb361 2.341 . S
O368 Tb362 2.341 . S
O368 Tb365 2.341 . S
O368 H369 0.850 . S
H369 O368 0.850 . S
O370 Tb350 2.344 1_556 S
O370 C394 1.272 . S
O371 Tb365 2.344 . S
O371 C395 1.272 . S
O372 Tb365 2.344 1_556 S
O372 C396 1.272 . S
O373 Tb350 2.344 . S
O373 C397 1.272 . S
O374 Tb351 2.344 . S
O374 C398 1.272 . S
O375 Tb362 2.344 . S
O375 C399 1.272 . S
O376 Tb362 2.344 1_556 S
O376 C400 1.272 . S
O377 Tb351 2.344 1_554 S
O377 C401 1.272 . S
O378 Tb352 2.344 . S
O378 C402 1.272 . S
O379 Tb361 2.344 . S
O379 C403 1.272 . S
O380 Tb361 2.344 . S
O380 C404 1.272 . S
O381 Tb352 2.344 . S
O381 C405 1.272 . S
O382 Tb351 2.344 . S
O382 C394 1.272 . S
O383 Tb362 2.344 . S
O383 C395 1.272 . S
O384 Tb362 2.344 . S
O384 C397 1.272 . S
O385 Tb351 2.344 . S
O385 C396 1.272 . S
O386 Tb350 2.344 . S
O386 C404 1.272 . S
O387 Tb365 2.344 1_556 S
O387 C405 1.272 . S
O388 Tb365 2.344 . S
O388 C403 1.272 . S
O389 Tb350 2.344 1_556 S
O389 C402 1.272 . S
O390 Tb361 2.344 . S
O390 C401 1.272 . S
O391 Tb352 2.344 . S
O391 C400 1.272 . S
O392 Tb352 2.344 . S
O392 C398 1.272 . S
O393 Tb361 2.344 . S
O393 C399 1.272 . S
C394 O370 1.272 . S
C394 O382 1.272 . S
C395 O371 1.272 . S
C395 O383 1.272 . S
C396 O372 1.272 . S
C396 O385 1.272 . S
C397 O373 1.272 . S
C397 O384 1.272 . S
C398 O374 1.272 . S
C398 O392 1.272 . S
C399 O375 1.272 . S
C399 O393 1.272 . S
C400 O376 1.272 . S
C400 O391 1.272 . S
C401 O377 1.272 . S
C401 O390 1.272 . S
C402 O378 1.272 . S
C402 O389 1.272 . S
C403 O379 1.272 . S
C403 O388 1.272 . S
C404 O380 1.272 . S
C404 O386 1.272 . S
C405 O381 1.272 . S
C405 O387 1.272 . S
H406 O407 0.850 . S
O407 H406 0.850 . S
O407 Tb408 2.341 . S
O407 Tb409 2.341 . S
O407 Tb410 2.341 . S
Tb408 O407 2.341 . S
Tb408 O411 2.341 . S
Tb408 O412 2.341 . S
Tb408 O413 2.341 . S
Tb408 O428 2.344 . S
Tb408 O431 2.344 . S
Tb408 O444 2.344 . S
Tb408 O447 2.344 . S
Tb409 O407 2.341 . S
Tb409 O411 2.341 . S
Tb409 O414 2.341 . S
Tb409 O416 2.341 . S
Tb409 O432 2.344 . S
Tb409 O435 2.344 . S
Tb409 O440 2.344 . S
Tb409 O443 2.344 . S
Tb410 O407 2.341 . S
Tb410 O412 2.341 . S
Tb410 O415 2.341 . S
Tb410 O416 2.341 . S
Tb410 O436 2.344 . S
Tb410 O439 2.344 . S
Tb410 O449 2.344 . S
Tb410 O450 2.344 . S
O411 Tb408 2.341 . S
O411 Tb409 2.341 . S
O411 H417 0.850 . S
O411 Tb419 2.341 . S
O412 Tb408 2.341 . S
O412 Tb410 2.341 . S
O412 H418 0.850 . S
O412 Tb420 2.341 . S
O413 Tb408 2.341 . S
O413 Tb419 2.341 . S
O413 Tb420 2.341 . S
O413 H421 0.850 . S
O414 Tb409 2.341 . S
O414 Tb419 2.341 . S
O414 H422 0.850 . S
O414 Tb423 2.341 . S
O415 Tb410 2.341 . S
O415 Tb420 2.341 . S
O415 Tb423 2.341 . S
O415 H424 0.850 . S
O416 Tb409 2.341 . S
O416 Tb410 2.341 . S
O416 Tb423 2.341 . S
O416 H425 0.850 . S
H417 O411 0.850 . S
H418 O412 0.850 . S
Tb419 O411 2.341 . S
Tb419 O413 2.341 . S
Tb419 O414 2.341 . S
Tb419 O426 2.341 . S
Tb419 O437 2.344 . S
Tb419 O438 2.344 . S
Tb419 O448 2.344 . S
Tb419 O451 2.344 . S
Tb420 O412 2.341 . S
Tb420 O413 2.341 . S
Tb420 O415 2.341 . S
Tb420 O426 2.341 . S
Tb420 O433 2.344 . S
Tb420 O434 2.344 . S
Tb420 O441 2.344 . S
Tb420 O442 2.344 . S
H421 O413 0.850 . S
H422 O414 0.850 . S
Tb423 O414 2.341 . S
Tb423 O415 2.341 . S
Tb423 O416 2.341 . S
Tb423 O426 2.341 . S
Tb423 O429 2.344 . S
Tb423 O430 2.344 . S
Tb423 O445 2.344 . S
Tb423 O446 2.344 . S
H424 O415 0.850 . S
H425 O416 0.850 . S
O426 Tb419 2.341 . S
O426 Tb420 2.341 . S
O426 Tb423 2.341 . S
O426 H427 0.850 . S
H427 O426 0.850 . S
O428 Tb408 2.344 . S
O428 C452 1.272 . S
O429 Tb423 2.344 . S
O429 C453 1.272 . S
O430 Tb423 2.344 . S
O430 C454 1.272 . S
O431 Tb408 2.344 . S
O431 C455 1.272 . S
O432 Tb409 2.344 . S
O432 C456 1.272 . S
O433 Tb420 2.344 . S
O433 C457 1.272 . S
O434 Tb420 2.344 . S
O434 C458 1.272 . S
O435 Tb409 2.344 . S
O435 C459 1.272 . S
O436 Tb410 2.344 . S
O436 C460 1.272 . S
O437 Tb419 2.344 . S
O437 C461 1.272 . S
O438 Tb419 2.344 . S
O438 C462 1.272 . S
O439 Tb410 2.344 . S
O439 C463 1.272 . S
O440 Tb409 2.344 . S
O440 C452 1.272 . S
O441 Tb420 2.344 . S
O441 C453 1.272 . S
O442 Tb420 2.344 . S
O442 C455 1.272 . S
O443 Tb409 2.344 . S
O443 C454 1.272 . S
O444 Tb408 2.344 . S
O444 C462 1.272 . S
O445 Tb423 2.344 . S
O445 C463 1.272 . S
O446 Tb423 2.344 . S
O446 C461 1.272 . S
O447 Tb408 2.344 . S
O447 C460 1.272 . S
O448 Tb419 2.344 . S
O448 C459 1.272 . S
O449 Tb410 2.344 . S
O449 C458 1.272 . S
O450 Tb410 2.344 . S
O450 C456 1.272 . S
O451 Tb419 2.344 . S
O451 C457 1.272 . S
C452 O428 1.272 . S
C452 O440 1.272 . S
C453 O429 1.272 . S
C453 O441 1.272 . S
C454 O430 1.272 . S
C454 O443 1.272 . S
C455 O431 1.272 . S
C455 O442 1.272 . S
C456 O432 1.272 . S
C456 O450 1.272 . S
C457 O433 1.272 . S
C457 O451 1.272 . S
C458 O434 1.272 . S
C458 O449 1.272 . S
C459 O435 1.272 . S
C459 O448 1.272 . S
C460 O436 1.272 . S
C460 O447 1.272 . S
C461 O437 1.272 . S
C461 O446 1.272 . S
C462 O438 1.272 . S
C462 O444 1.272 . S
C463 O439 1.272 . S
C463 O445 1.272 . S
H464 O465 0.850 . S
O465 H464 0.850 . S
O465 Tb466 2.341 . S
O465 Tb467 2.341 . S
O465 Tb468 2.341 . S
Tb466 O465 2.341 . S
Tb466 O469 2.341 . S
Tb466 O470 2.341 . S
Tb466 O471 2.341 . S
Tb466 O486 2.344 . S
Tb466 O489 2.344 . S
Tb466 O502 2.344 . S
Tb466 O505 2.344 . S
Tb467 O465 2.341 . S
Tb467 O469 2.341 . S
Tb467 O472 2.341 . S
Tb467 O474 2.341 . S
Tb467 O490 2.344 . S
Tb467 O493 2.344 . S
Tb467 O498 2.344 . S
Tb467 O501 2.344 . S
Tb468 O465 2.341 . S
Tb468 O470 2.341 . S
Tb468 O473 2.341 . S
Tb468 O474 2.341 . S
Tb468 O494 2.344 . S
Tb468 O497 2.344 . S
Tb468 O507 2.344 . S
Tb468 O508 2.344 . S
O469 Tb466 2.341 . S
O469 Tb467 2.341 . S
O469 H475 0.850 . S
O469 Tb477 2.341 . S
O470 Tb466 2.341 . S
O470 Tb468 2.341 . S
O470 H476 0.850 . S
O470 Tb478 2.341 . S
O471 Tb466 2.341 . S
O471 Tb477 2.341 . S
O471 Tb478 2.341 . S
O471 H479 0.850 . S
O472 Tb467 2.341 . S
O472 Tb477 2.341 . S
O472 H480 0.850 . S
O472 Tb481 2.341 . S
O473 Tb468 2.341 . S
O473 Tb478 2.341 . S
O473 Tb481 2.341 . S
O473 H482 0.850 . S
O474 Tb467 2.341 . S
O474 Tb468 2.341 . S
O474 Tb481 2.341 . S
O474 H483 0.850 . S
H475 O469 0.850 . S
H476 O470 0.850 . S
Tb477 O469 2.341 . S
Tb477 O471 2.341 . S
Tb477 O472 2.341 . S
Tb477 O484 2.341 . S
Tb477 O495 2.344 . S
Tb477 O496 2.344 . S
Tb477 O506 2.344 . S
Tb477 O509 2.344 . S
Tb478 O470 2.341 . S
Tb478 O471 2.341 . S
Tb478 O473 2.341 . S
Tb478 O484 2.341 . S
Tb478 O491 2.344 . S
Tb478 O492 2.344 . S
Tb478 O499 2.344 . S
Tb478 O500 2.344 . S
H479 O471 0.850 . S
H480 O472 0.850 . S
Tb481 O472 2.341 . S
Tb481 O473 2.341 . S
Tb481 O474 2.341 . S
Tb481 O484 2.341 . S
Tb481 O487 2.344 . S
Tb481 O488 2.344 . S
Tb481 O503 2.344 . S
Tb481 O504 2.344 . S
H482 O473 0.850 . S
H483 O474 0.850 . S
O484 Tb477 2.341 . S
O484 Tb478 2.341 . S
O484 Tb481 2.341 . S
O484 H485 0.850 . S
H485 O484 0.850 . S
O486 Tb466 2.344 . S
O486 C510 1.272 . S
O487 Tb481 2.344 . S
O487 C511 1.272 . S
O488 Tb481 2.344 . S
O488 C512 1.272 . S
O489 Tb466 2.344 . S
O489 C513 1.272 . S
O490 Tb467 2.344 . S
O490 C514 1.272 . S
O491 Tb478 2.344 . S
O491 C515 1.272 . S
O492 Tb478 2.344 . S
O492 C516 1.272 . S
O493 Tb467 2.344 . S
O493 C517 1.272 . S
O494 Tb468 2.344 . S
O494 C518 1.272 . S
O495 Tb477 2.344 . S
O495 C519 1.272 . S
O496 Tb477 2.344 . S
O496 C520 1.272 . S
O497 Tb468 2.344 . S
O497 C521 1.272 . S
O498 Tb467 2.344 . S
O498 C510 1.272 . S
O499 Tb478 2.344 . S
O499 C511 1.272 . S
O500 Tb478 2.344 . S
O500 C513 1.272 . S
O501 Tb467 2.344 . S
O501 C512 1.272 . S
O502 Tb466 2.344 . S
O502 C520 1.272 . S
O503 Tb481 2.344 . S
O503 C521 1.272 . S
O504 Tb481 2.344 . S
O504 C519 1.272 . S
O505 Tb466 2.344 . S
O505 C518 1.272 . S
O506 Tb477 2.344 . S
O506 C517 1.272 . S
O507 Tb468 2.344 . S
O507 C516 1.272 . S
O508 Tb468 2.344 . S
O508 C514 1.272 . S
O509 Tb477 2.344 . S
O509 C515 1.272 . S
C510 O486 1.272 . S
C510 O498 1.272 . S
C511 O487 1.272 . S
C511 O499 1.272 . S
C512 O488 1.272 . S
C512 O501 1.272 . S
C513 O489 1.272 . S
C513 O500 1.272 . S
C514 O490 1.272 . S
C514 O508 1.272 . S
C515 O491 1.272 . S
C515 O509 1.272 . S
C516 O492 1.272 . S
C516 O507 1.272 . S
C517 O493 1.272 . S
C517 O506 1.272 . S
C518 O494 1.272 . S
C518 O505 1.272 . S
C519 O495 1.272 . S
C519 O504 1.272 . S
C520 O496 1.272 . S
C520 O502 1.272 . S
C521 O497 1.272 . S
C521 O503 1.272 . S
H522 O523 0.850 . S
O523 H522 0.850 . S
O523 Tb524 2.341 . S
O523 Tb525 2.341 . S
O523 Tb526 2.341 . S
Tb524 O523 2.341 . S
Tb524 O527 2.341 . S
Tb524 O528 2.341 . S
Tb524 O529 2.341 . S
Tb524 O544 2.344 . S
Tb524 O547 2.344 . S
Tb524 O560 2.344 . S
Tb524 O563 2.344 . S
Tb525 O523 2.341 . S
Tb525 O527 2.341 . S
Tb525 O530 2.341 . S
Tb525 O532 2.341 . S
Tb525 O548 2.344 . S
Tb525 O551 2.344 . S
Tb525 O556 2.344 . S
Tb525 O559 2.344 . S
Tb526 O523 2.341 . S
Tb526 O528 2.341 . S
Tb526 O531 2.341 . S
Tb526 O532 2.341 . S
Tb526 O552 2.344 . S
Tb526 O555 2.344 . S
Tb526 O565 2.344 . S
Tb526 O566 2.344 . S
O527 Tb524 2.341 . S
O527 Tb525 2.341 . S
O527 H533 0.850 . S
O527 Tb535 2.341 . S
O528 Tb524 2.341 . S
O528 Tb526 2.341 . S
O528 H534 0.850 . S
O528 Tb536 2.341 . S
O529 Tb524 2.341 . S
O529 Tb535 2.341 . S
O529 Tb536 2.341 . S
O529 H537 0.850 . S
O530 Tb525 2.341 . S
O530 Tb535 2.341 . S
O530 H538 0.850 . S
O530 Tb539 2.341 . S
O531 Tb526 2.341 . S
O531 Tb536 2.341 . S
O531 Tb539 2.341 . S
O531 H540 0.850 . S
O532 Tb525 2.341 . S
O532 Tb526 2.341 . S
O532 Tb539 2.341 . S
O532 H541 0.850 . S
H533 O527 0.850 . S
H534 O528 0.850 . S
Tb535 O527 2.341 . S
Tb535 O529 2.341 . S
Tb535 O530 2.341 . S
Tb535 O542 2.341 . S
Tb535 O553 2.344 . S
Tb535 O554 2.344 . S
Tb535 O564 2.344 . S
Tb535 O567 2.344 . S
Tb536 O528 2.341 . S
Tb536 O529 2.341 . S
Tb536 O531 2.341 . S
Tb536 O542 2.341 . S
Tb536 O549 2.344 . S
Tb536 O550 2.344 . S
Tb536 O557 2.344 . S
Tb536 O558 2.344 . S
H537 O529 0.850 . S
H538 O530 0.850 . S
Tb539 O530 2.341 . S
Tb539 O531 2.341 . S
Tb539 O532 2.341 . S
Tb539 O542 2.341 . S
Tb539 O545 2.344 . S
Tb539 O546 2.344 . S
Tb539 O561 2.344 . S
Tb539 O562 2.344 . S
H540 O531 0.850 . S
H541 O532 0.850 . S
O542 Tb535 2.341 . S
O542 Tb536 2.341 . S
O542 Tb539 2.341 . S
O542 H543 0.850 . S
H543 O542 0.850 . S
O544 Tb524 2.344 . S
O544 C568 1.272 . S
O545 Tb539 2.344 . S
O545 C569 1.272 . S
O546 Tb539 2.344 . S
O546 C570 1.272 . S
O547 Tb524 2.344 . S
O547 C571 1.272 . S
O548 Tb525 2.344 . S
O548 C572 1.272 . S
O549 Tb536 2.344 . S
O549 C573 1.272 . S
O550 Tb536 2.344 . S
O550 C574 1.272 . S
O551 Tb525 2.344 . S
O551 C575 1.272 . S
O552 Tb526 2.344 . S
O552 C576 1.272 . S
O553 Tb535 2.344 . S
O553 C577 1.272 . S
O554 Tb535 2.344 . S
O554 C578 1.272 . S
O555 Tb526 2.344 . S
O555 C579 1.272 . S
O556 Tb525 2.344 . S
O556 C568 1.272 . S
O557 Tb536 2.344 . S
O557 C569 1.272 . S
O558 Tb536 2.344 . S
O558 C571 1.272 . S
O559 Tb525 2.344 . S
O559 C570 1.272 . S
O560 Tb524 2.344 . S
O560 C578 1.272 . S
O561 Tb539 2.344 . S
O561 C579 1.272 . S
O562 Tb539 2.344 . S
O562 C577 1.272 . S
O563 Tb524 2.344 . S
O563 C576 1.272 . S
O564 Tb535 2.344 . S
O564 C575 1.272 . S
O565 Tb526 2.344 . S
O565 C574 1.272 . S
O566 Tb526 2.344 . S
O566 C572 1.272 . S
O567 Tb535 2.344 . S
O567 C573 1.272 . S
C568 O544 1.272 . S
C568 O556 1.272 . S
C569 O545 1.272 . S
C569 O557 1.272 . S
C570 O546 1.272 . S
C570 O559 1.272 . S
C571 O547 1.272 . S
C571 O558 1.272 . S
C572 O548 1.272 . S
C572 O566 1.272 . S
C573 O549 1.272 . S
C573 O567 1.272 . S
C574 O550 1.272 . S
C574 O565 1.272 . S
C575 O551 1.272 . S
C575 O564 1.272 . S
C576 O552 1.272 . S
C576 O563 1.272 . S
C577 O553 1.272 . S
C577 O562 1.272 . S
C578 O554 1.272 . S
C578 O560 1.272 . S
C579 O555 1.272 . S
C579 O561 1.272 . S
H580 O581 0.850 . S
O581 H580 0.850 . S
O581 Tb582 2.341 1_565 S
O581 Tb583 2.341 . S
O581 Tb584 2.341 . S
Tb582 O581 2.341 1_545 S
Tb582 O585 2.341 . S
Tb582 O586 2.341 1_545 S
Tb582 O587 2.341 . S
Tb582 O602 2.344 1_545 S
Tb582 O605 2.344 . S
Tb582 O618 2.344 . S
Tb582 O621 2.344 1_545 S
Tb583 O581 2.341 . S
Tb583 O585 2.341 1_565 S
Tb583 O588 2.341 1_565 S
Tb583 O590 2.341 . S
Tb583 O606 2.344 . S
Tb583 O609 2.344 1_565 S
Tb583 O614 2.344 . S
Tb583 O617 2.344 . S
Tb584 O581 2.341 . S
Tb584 O586 2.341 . S
Tb584 O589 2.341 . S
Tb584 O590 2.341 . S
Tb584 O610 2.344 . S
Tb584 O613 2.344 . S
Tb584 O623 2.344 . S
Tb584 O624 2.344 . S
O585 Tb582 2.341 . S
O585 Tb583 2.341 1_545 S
O585 H591 0.850 . S
O585 Tb593 2.341 . S
O586 Tb582 2.341 1_565 S
O586 Tb584 2.341 . S
O586 H592 0.850 . S
O586 Tb594 2.341 1_565 S
O587 Tb582 2.341 . S
O587 Tb593 2.341 . S
O587 Tb594 2.341 . S
O587 H595 0.850 . S
O588 Tb583 2.341 1_545 S
O588 Tb593 2.341 . S
O588 H596 0.850 . S
O588 Tb597 2.341 . S
O589 Tb584 2.341 . S
O589 Tb594 2.341 1_565 S
O589 Tb597 2.341 1_565 S
O589 H598 0.850 . S
O590 Tb583 2.341 . S
O590 Tb584 2.341 . S
O590 Tb597 2.341 1_565 S
O590 H599 0.850 . S
H591 O585 0.850 . S
H592 O586 0.850 . S
Tb593 O585 2.341 . S
Tb593 O587 2.341 . S
Tb593 O588 2.341 . S
Tb593 O600 2.341 . S
Tb593 O611 2.344 . S
Tb593 O612 2.344 . S
Tb593 O622 2.344 . S
Tb593 O625 2.344 . S
Tb594 O586 2.341 1_545 S
Tb594 O587 2.341 . S
Tb594 O589 2.341 1_545 S
Tb594 O600 2.341 . S
Tb594 O607 2.344 . S
Tb594 O608 2.344 1_545 S
Tb594 O615 2.344 . S
Tb594 O616 2.344 . S
H595 O587 0.850 . S
H596 O588 0.850 . S
Tb597 O588 2.341 . S
Tb597 O589 2.341 1_545 S
Tb597 O590 2.341 1_545 S
Tb597 O600 2.341 . S
Tb597 O603 2.344 . S
Tb597 O604 2.344 1_545 S
Tb597 O619 2.344 1_545 S
Tb597 O620 2.344 . S
H598 O589 0.850 . S
H599 O590 0.850 . S
O600 Tb593 2.341 . S
O600 Tb594 2.341 . S
O600 Tb597 2.341 . S
O600 H601 0.850 . S
H601 O600 0.850 . S
O602 Tb582 2.344 1_565 S
O602 C626 1.272 . S
O603 Tb597 2.344 . S
O603 C627 1.272 . S
O604 Tb597 2.344 1_565 S
O604 C628 1.272 . S
O605 Tb582 2.344 . S
O605 C629 1.272 . S
O606 Tb583 2.344 . S
O606 C630 1.272 . S
O607 Tb594 2.344 . S
O607 C631 1.272 . S
O608 Tb594 2.344 1_565 S
O608 C632 1.272 . S
O609 Tb583 2.344 1_545 S
O609 C633 1.272 . S
O610 Tb584 2.344 . S
O610 C634 1.272 . S
O611 Tb593 2.344 . S
O611 C635 1.272 . S
O612 Tb593 2.344 . S
O612 C636 1.272 . S
O613 Tb584 2.344 . S
O613 C637 1.272 . S
O614 Tb583 2.344 . S
O614 C626 1.272 . S
O615 Tb594 2.344 . S
O615 C627 1.272 . S
O616 Tb594 2.344 . S
O616 C629 1.272 . S
O617 Tb583 2.344 . S
O617 C628 1.272 . S
O618 Tb582 2.344 . S
O618 C636 1.272 . S
O619 Tb597 2.344 1_565 S
O619 C637 1.272 . S
O620 Tb597 2.344 . S
O620 C635 1.272 . S
O621 Tb582 2.344 1_565 S
O621 C634 1.272 . S
O622 Tb593 2.344 . S
O622 C633 1.272 . S
O623 Tb584 2.344 . S
O623 C632 1.272 . S
O624 Tb584 2.344 . S
O624 C630 1.272 . S
O625 Tb593 2.344 . S
O625 C631 1.272 . S
C626 O602 1.272 . S
C626 O614 1.272 . S
C627 O603 1.272 . S
C627 O615 1.272 . S
C628 O604 1.272 . S
C628 O617 1.272 . S
C629 O605 1.272 . S
C629 O616 1.272 . S
C630 O606 1.272 . S
C630 O624 1.272 . S
C631 O607 1.272 . S
C631 O625 1.272 . S
C632 O608 1.272 . S
C632 O623 1.272 . S
C633 O609 1.272 . S
C633 O622 1.272 . S
C634 O610 1.272 . S
C634 O621 1.272 . S
C635 O611 1.272 . S
C635 O620 1.272 . S
C636 O612 1.272 . S
C636 O618 1.272 . S
C637 O613 1.272 . S
C637 O619 1.272 . S
H638 O639 0.850 . S
O639 H638 0.850 . S
O639 Tb640 2.341 . S
O639 Tb641 2.341 . S
O639 Tb642 2.341 . S
Tb640 O639 2.341 . S
Tb640 O643 2.341 . S
Tb640 O644 2.341 . S
Tb640 O645 2.341 . S
Tb640 O660 2.344 . S
Tb640 O663 2.344 . S
Tb640 O676 2.344 . S
Tb640 O679 2.344 . S
Tb641 O639 2.341 . S
Tb641 O643 2.341 . S
Tb641 O646 2.341 . S
Tb641 O648 2.341 . S
Tb641 O664 2.344 . S
Tb641 O667 2.344 . S
Tb641 O672 2.344 . S
Tb641 O675 2.344 . S
Tb642 O639 2.341 . S
Tb642 O644 2.341 . S
Tb642 O647 2.341 . S
Tb642 O648 2.341 . S
Tb642 O668 2.344 . S
Tb642 O671 2.344 . S
Tb642 O681 2.344 . S
Tb642 O682 2.344 . S
O643 Tb640 2.341 . S
O643 Tb641 2.341 . S
O643 H649 0.850 . S
O643 Tb651 2.341 . S
O644 Tb640 2.341 . S
O644 Tb642 2.341 . S
O644 H650 0.850 . S
O644 Tb652 2.341 . S
O645 Tb640 2.341 . S
O645 Tb651 2.341 . S
O645 Tb652 2.341 . S
O645 H653 0.850 . S
O646 Tb641 2.341 . S
O646 Tb651 2.341 . S
O646 H654 0.850 . S
O646 Tb655 2.341 . S
O647 Tb642 2.341 . S
O647 Tb652 2.341 . S
O647 Tb655 2.341 . S
O647 H656 0.850 . S
O648 Tb641 2.341 . S
O648 Tb642 2.341 . S
O648 Tb655 2.341 . S
O648 H657 0.850 . S
H649 O643 0.850 . S
H650 O644 0.850 . S
Tb651 O643 2.341 . S
Tb651 O645 2.341 . S
Tb651 O646 2.341 . S
Tb651 O658 2.341 . S
Tb651 O669 2.344 . S
Tb651 O670 2.344 . S
Tb651 O680 2.344 . S
Tb651 O683 2.344 . S
Tb652 O644 2.341 . S
Tb652 O645 2.341 . S
Tb652 O647 2.341 . S
Tb652 O658 2.341 . S
Tb652 O665 2.344 . S
Tb652 O666 2.344 . S
Tb652 O673 2.344 . S
Tb652 O674 2.344 . S
H653 O645 0.850 . S
H654 O646 0.850 . S
Tb655 O646 2.341 . S
Tb655 O647 2.341 . S
Tb655 O648 2.341 . S
Tb655 O658 2.341 . S
Tb655 O661 2.344 . S
Tb655 O662 2.344 . S
Tb655 O677 2.344 . S
Tb655 O678 2.344 . S
H656 O647 0.850 . S
H657 O648 0.850 . S
O658 Tb651 2.341 . S
O658 Tb652 2.341 . S
O658 Tb655 2.341 . S
O658 H659 0.850 . S
H659 O658 0.850 . S
O660 Tb640 2.344 . S
O660 C684 1.272 . S
O661 Tb655 2.344 . S
O661 C685 1.272 . S
O662 Tb655 2.344 . S
O662 C686 1.272 . S
O663 Tb640 2.344 . S
O663 C687 1.272 . S
O664 Tb641 2.344 . S
O664 C688 1.272 . S
O665 Tb652 2.344 . S
O665 C689 1.272 . S
O666 Tb652 2.344 . S
O666 C690 1.272 . S
O667 Tb641 2.344 . S
O667 C691 1.272 . S
O668 Tb642 2.344 . S
O668 C692 1.272 . S
O669 Tb651 2.344 . S
O669 C693 1.272 . S
O670 Tb651 2.344 . S
O670 C694 1.272 . S
O671 Tb642 2.344 . S
O671 C695 1.272 . S
O672 Tb641 2.344 . S
O672 C684 1.272 . S
O673 Tb652 2.344 . S
O673 C685 1.272 . S
O674 Tb652 2.344 . S
O674 C687 1.272 . S
O675 Tb641 2.344 . S
O675 C686 1.272 . S
O676 Tb640 2.344 . S
O676 C694 1.272 . S
O677 Tb655 2.344 . S
O677 C695 1.272 . S
O678 Tb655 2.344 . S
O678 C693 1.272 . S
O679 Tb640 2.344 . S
O679 C692 1.272 . S
O680 Tb651 2.344 . S
O680 C691 1.272 . S
O681 Tb642 2.344 . S
O681 C690 1.272 . S
O682 Tb642 2.344 . S
O682 C688 1.272 . S
O683 Tb651 2.344 . S
O683 C689 1.272 . S
C684 O660 1.272 . S
C684 O672 1.272 . S
C685 O661 1.272 . S
C685 O673 1.272 . S
C686 O662 1.272 . S
C686 O675 1.272 . S
C687 O663 1.272 . S
C687 O674 1.272 . S
C688 O664 1.272 . S
C688 O682 1.272 . S
C689 O665 1.272 . S
C689 O683 1.272 . S
C690 O666 1.272 . S
C690 O681 1.272 . S
C691 O667 1.272 . S
C691 O680 1.272 . S
C692 O668 1.272 . S
C692 O679 1.272 . S
C693 O669 1.272 . S
C693 O678 1.272 . S
C694 O670 1.272 . S
C694 O676 1.272 . S
C695 O671 1.272 . S
C695 O677 1.272 . S
H696 C702 0.930 . S
H697 C705 0.930 . S
H698 C706 0.930 . S
H699 C707 0.930 . S
H700 C710 0.930 . S
H701 C711 0.930 . S
C702 H696 0.930 . S
C702 C703 1.355 . S
C702 C704 1.415 . S
C703 C702 1.355 . S
C703 C705 1.419 . S
C704 C702 1.415 . S
C704 C709 1.425 . S
C704 C711 1.409 . S
C705 H697 0.930 . S
C705 C703 1.419 . S
C705 C706 1.362 . S
C706 H698 0.930 . S
C706 C705 1.362 . S
C706 C709 1.409 . S
C707 H699 0.930 . S
C707 C708 1.355 . S
C707 C709 1.415 . S
C708 C707 1.355 . S
C708 C710 1.419 . S
C709 C704 1.425 . S
C709 C706 1.409 . S
C709 C707 1.415 . S
C710 H700 0.930 . S
C710 C708 1.419 . S
C710 C711 1.362 . S
C711 H701 0.930 . S
C711 C704 1.409 . S
C711 C710 1.362 . S
H712 C718 0.930 . S
H713 C721 0.930 . S
H714 C722 0.930 . S
H715 C723 0.945 . S
H716 C726 0.930 . S
H717 C727 0.930 . S
C718 H712 0.930 . S
C718 C719 1.355 . S
C718 C720 1.415 . S
C719 C718 1.355 . S
C719 C721 1.419 . S
C720 C718 1.415 . S
C720 C725 1.425 . S
C720 C727 1.409 . S
C721 H713 0.930 . S
C721 C719 1.419 . S
C721 C722 1.362 . S
C722 H714 0.930 . S
C722 C721 1.362 . S
C722 C725 1.409 . S
C723 H715 0.945 . S
C723 C724 1.355 . S
C723 C725 1.400 1_556 S
C724 C723 1.355 . S
C724 C726 1.405 1_556 S
C725 C720 1.425 . S
C725 C722 1.409 . S
C725 C723 1.400 1_554 S
C726 H716 0.930 . S
C726 C724 1.405 1_554 S
C726 C727 1.362 . S
C727 H717 0.930 . S
C727 C720 1.409 . S
C727 C726 1.362 . S
H728 C734 0.930 . S
H729 C737 0.930 . S
H730 C738 0.930 . S
H731 C739 0.930 . S
H732 C742 0.930 . S
H733 C743 0.930 . S
C734 H728 0.930 . S
C734 C735 1.355 . S
C734 C736 1.415 . S
C735 C734 1.355 . S
C735 C737 1.419 . S
C736 C734 1.415 . S
C736 C741 1.425 . S
C736 C743 1.409 . S
C737 H729 0.930 . S
C737 C735 1.419 . S
C737 C738 1.362 . S
C738 H730 0.930 . S
C738 C737 1.362 . S
C738 C741 1.409 . S
C739 H731 0.930 . S
C739 C740 1.355 . S
C739 C741 1.415 . S
C740 C739 1.355 . S
C740 C742 1.419 . S
C741 C736 1.425 . S
C741 C738 1.409 . S
C741 C739 1.415 . S
C742 H732 0.930 . S
C742 C740 1.419 . S
C742 C743 1.362 . S
C743 H733 0.930 . S
C743 C736 1.409 . S
C743 C742 1.362 . S
H744 C750 0.930 . S
H745 C753 0.930 . S
H746 C754 0.930 . S
H747 C755 0.930 1_556 S
H748 C758 0.930 . S
H749 C759 0.930 . S
C750 H744 0.930 . S
C750 C751 1.355 . S
C750 C752 1.415 . S
C751 C750 1.355 . S
C751 C753 1.419 . S
C752 C750 1.415 . S
C752 C757 1.425 . S
C752 C759 1.409 . S
C753 H745 0.930 . S
C753 C751 1.419 . S
C753 C754 1.362 . S
C754 H746 0.930 . S
C754 C753 1.362 . S
C754 C757 1.409 . S
C755 H747 0.930 1_554 S
C755 C756 1.355 1_554 S
C755 C757 1.415 . S
C756 C755 1.355 1_556 S
C756 C758 1.419 1_556 S
C757 C752 1.425 . S
C757 C754 1.409 . S
C757 C755 1.415 . S
C758 H748 0.930 . S
C758 C756 1.419 1_554 S
C758 C759 1.362 . S
C759 H749 0.930 . S
C759 C752 1.409 . S
C759 C758 1.362 . S
H760 C766 0.930 . S
H761 C769 0.930 . S
H762 C770 0.930 . S
H763 C771 0.930 . S
H764 C774 0.930 . S
H765 C775 0.930 . S
C766 H760 0.930 . S
C766 C767 1.355 . S
C766 C768 1.415 . S
C767 C766 1.355 . S
C767 C769 1.419 . S
C768 C766 1.415 . S
C768 C773 1.425 . S
C768 C775 1.409 . S
C769 H761 0.930 . S
C769 C767 1.419 . S
C769 C770 1.362 . S
C770 H762 0.930 . S
C770 C769 1.362 . S
C770 C773 1.409 . S
C771 H763 0.930 . S
C771 C772 1.355 . S
C771 C773 1.415 . S
C772 C771 1.355 . S
C772 C774 1.419 . S
C773 C768 1.425 . S
C773 C770 1.409 . S
C773 C771 1.415 . S
C774 H764 0.930 . S
C774 C772 1.419 . S
C774 C775 1.362 . S
C775 H765 0.930 . S
C775 C768 1.409 . S
C775 C774 1.362 . S
H776 C782 0.930 . S
H777 C785 0.930 1_455 S
H778 C786 0.930 . S
H779 C787 0.930 . S
H780 C790 0.930 . S
H781 C791 0.930 . S
C782 H776 0.930 . S
C782 C783 1.355 . S
C782 C784 1.415 1_554 S
C783 C782 1.355 . S
C783 C785 1.419 1_554 S
C784 C782 1.415 1_556 S
C784 C789 1.425 . S
C784 C791 1.409 . S
C785 H777 0.930 1_655 S
C785 C783 1.419 1_556 S
C785 C786 1.362 . S
C786 H778 0.930 . S
C786 C785 1.362 . S
C786 C789 1.409 . S
C787 H779 0.930 . S
C787 C788 1.355 . S
C787 C789 1.415 . S
C788 C787 1.355 . S
C788 C790 1.419 . S
C789 C784 1.425 . S
C789 C786 1.409 . S
C789 C787 1.415 . S
C790 H780 0.930 . S
C790 C788 1.419 . S
C790 C791 1.362 . S
C791 H781 0.930 . S
C791 C784 1.409 . S
C791 C790 1.362 . S
H792 C798 0.930 . S
H793 C801 0.930 . S
H794 C802 0.930 . S
H795 C803 0.930 . S
H796 C806 0.930 . S
H797 C807 0.930 . S
C798 H792 0.930 . S
C798 C799 1.355 . S
C798 C800 1.415 . S
C799 C798 1.355 . S
C799 C801 1.419 . S
C800 C798 1.415 . S
C800 C805 1.425 . S
C800 C807 1.409 . S
C801 H793 0.930 . S
C801 C799 1.419 . S
C801 C802 1.362 . S
C802 H794 0.930 . S
C802 C801 1.362 . S
C802 C805 1.409 . S
C803 H795 0.930 . S
C803 C804 1.355 . S
C803 C805 1.415 . S
C804 C803 1.355 . S
C804 C806 1.419 . S
C805 C800 1.425 . S
C805 C802 1.409 . S
C805 C803 1.415 . S
C806 H796 0.930 . S
C806 C804 1.419 . S
C806 C807 1.362 . S
C807 H797 0.930 . S
C807 C800 1.409 . S
C807 C806 1.362 . S
H808 C814 0.930 . S
H809 C817 0.930 . S
H810 C818 0.930 . S
H811 C819 0.930 1_655 S
H812 C822 0.930 . S
H813 C823 0.930 . S
C814 H808 0.930 . S
C814 C815 1.355 . S
C814 C816 1.415 . S
C815 C814 1.355 . S
C815 C817 1.419 . S
C816 C814 1.415 . S
C816 C821 1.425 . S
C816 C823 1.409 . S
C817 H809 0.930 . S
C817 C815 1.419 . S
C817 C818 1.362 . S
C818 H810 0.930 . S
C818 C817 1.362 . S
C818 C821 1.409 . S
C819 H811 0.930 1_455 S
C819 C820 1.355 1_556 S
C819 C821 1.415 . S
C820 C819 1.355 1_554 S
C820 C822 1.419 . S
C821 C816 1.425 . S
C821 C818 1.409 . S
C821 C819 1.415 . S
C822 H812 0.930 . S
C822 C820 1.419 . S
C822 C823 1.362 1_554 S
C823 H813 0.930 . S
C823 C816 1.409 . S
C823 C822 1.362 1_556 S
H824 C830 0.930 . S
H825 C833 0.930 . S
H826 C834 0.930 . S
H827 C835 0.930 . S
H828 C838 0.930 . S
H829 C839 0.930 . S
C830 H824 0.930 . S
C830 C831 1.355 . S
C830 C832 1.415 . S
C831 C830 1.355 . S
C831 C833 1.419 . S
C832 C830 1.415 . S
C832 C837 1.425 . S
C832 C839 1.409 . S
C833 H825 0.930 . S
C833 C831 1.419 . S
C833 C834 1.362 . S
C834 H826 0.930 . S
C834 C833 1.362 . S
C834 C837 1.409 . S
C835 H827 0.930 . S
C835 C836 1.355 . S
C835 C837 1.415 . S
C836 C835 1.355 . S
C836 C838 1.419 . S
C837 C832 1.425 . S
C837 C834 1.409 . S
C837 C835 1.415 . S
C838 H828 0.930 . S
C838 C836 1.419 . S
C838 C839 1.362 . S
C839 H829 0.930 . S
C839 C832 1.409 . S
C839 C838 1.362 . S
H840 C846 0.930 . S
H841 C849 0.930 . S
H842 C850 0.930 . S
H843 C851 0.930 . S
H844 C854 0.930 1_554 S
H845 C855 0.930 . S
C846 H840 0.930 . S
C846 C847 1.355 . S
C846 C848 1.415 . S
C847 C846 1.355 . S
C847 C849 1.419 . S
C848 C846 1.415 . S
C848 C853 1.425 . S
C848 C855 1.409 . S
C849 H841 0.930 . S
C849 C847 1.419 . S
C849 C850 1.362 . S
C850 H842 0.930 . S
C850 C849 1.362 . S
C850 C853 1.409 . S
C851 H843 0.930 . S
C851 C852 1.355 . S
C851 C853 1.415 . S
C852 C851 1.355 . S
C852 C854 1.419 . S
C853 C848 1.425 . S
C853 C850 1.409 . S
C853 C851 1.415 . S
C854 H844 0.930 1_556 S
C854 C852 1.419 . S
C854 C855 1.362 . S
C855 H845 0.930 . S
C855 C848 1.409 . S
C855 C854 1.362 . S
H856 C862 0.930 . S
H857 C865 0.930 . S
H858 C866 0.930 . S
H859 C867 0.930 . S
H860 C870 0.930 . S
H861 C871 0.930 . S
C862 H856 0.930 . S
C862 C863 1.355 . S
C862 C864 1.415 . S
C863 C862 1.355 . S
C863 C865 1.419 . S
C864 C862 1.415 . S
C864 C869 1.425 . S
C864 C871 1.409 . S
C865 H857 0.930 . S
C865 C863 1.419 . S
C865 C866 1.362 . S
C866 H858 0.930 . S
C866 C865 1.362 . S
C866 C869 1.409 . S
C867 H859 0.930 . S
C867 C868 1.355 . S
C867 C869 1.415 . S
C868 C867 1.355 . S
C868 C870 1.419 . S
C869 C864 1.425 . S
C869 C866 1.409 . S
C869 C867 1.415 . S
C870 H860 0.930 . S
C870 C868 1.419 . S
C870 C871 1.362 . S
C871 H861 0.930 . S
C871 C864 1.409 . S
C871 C870 1.362 . S
H872 C878 0.930 . S
H873 C881 0.930 . S
H874 C882 0.930 . S
H875 C883 0.930 . S
H876 C886 0.930 1_545 S
H877 C887 0.930 . S
C878 H872 0.930 . S
C878 C879 1.355 . S
C878 C880 1.415 . S
C879 C878 1.355 . S
C879 C881 1.419 . S
C880 C878 1.415 . S
C880 C885 1.425 . S
C880 C887 1.409 . S
C881 H873 0.930 . S
C881 C879 1.419 . S
C881 C882 1.362 . S
C882 H874 0.930 . S
C882 C881 1.362 . S
C882 C885 1.409 . S
C883 H875 0.930 . S
C883 C884 1.355 1_565 S
C883 C885 1.415 . S
C884 C883 1.355 1_545 S
C884 C886 1.419 1_545 S
C885 C880 1.425 . S
C885 C882 1.409 . S
C885 C883 1.415 . S
C886 H876 0.930 1_565 S
C886 C884 1.419 1_565 S
C886 C887 1.362 . S
C887 H877 0.930 . S
C887 C880 1.409 . S
C887 C886 1.362 . S
H888 C894 0.930 . S
H889 C897 0.930 . S
H890 C898 0.930 . S
H891 C899 0.930 . S
H892 C902 0.930 . S
H893 C903 0.930 . S
C894 H888 0.930 . S
C894 C895 1.355 . S
C894 C896 1.415 . S
C895 C894 1.355 . S
C895 C897 1.419 . S
C896 C894 1.415 . S
C896 C901 1.425 . S
C896 C903 1.409 . S
C897 H889 0.930 . S
C897 C895 1.419 . S
C897 C898 1.362 . S
C898 H890 0.930 . S
C898 C897 1.362 . S
C898 C901 1.409 . S
C899 H891 0.930 . S
C899 C900 1.355 . S
C899 C901 1.415 . S
C900 C899 1.355 . S
C900 C902 1.419 . S
C901 C896 1.425 . S
C901 C898 1.409 . S
C901 C899 1.415 . S
C902 H892 0.930 . S
C902 C900 1.419 . S
C902 C903 1.362 . S
C903 H893 0.930 . S
C903 C896 1.409 . S
C903 C902 1.362 . S
H904 C910 0.930 . S
H905 C913 0.930 . S
H906 C914 0.930 . S
H907 C915 0.930 . S
H908 C918 0.930 . S
H909 C919 0.930 . S
C910 H904 0.930 . S
C910 C911 1.355 . S
C910 C912 1.415 . S
C911 C910 1.355 . S
C911 C913 1.419 . S
C912 C910 1.415 . S
C912 C917 1.425 . S
C912 C919 1.409 . S
C913 H905 0.930 . S
C913 C911 1.419 . S
C913 C914 1.362 . S
C914 H906 0.930 . S
C914 C913 1.362 . S
C914 C917 1.409 . S
C915 H907 0.930 . S
C915 C916 1.355 . S
C915 C917 1.415 . S
C916 C915 1.355 . S
C916 C918 1.419 . S
C917 C912 1.425 . S
C917 C914 1.409 . S
C917 C915 1.415 . S
C918 H908 0.930 . S
C918 C916 1.419 . S
C918 C919 1.362 . S
C919 H909 0.930 . S
C919 C912 1.409 . S
C919 C918 1.362 . S
H920 C926 0.930 . S
H921 C929 0.930 . S
H922 C930 0.930 . S
H923 C931 0.930 . S
H924 C934 0.930 . S
H925 C935 0.930 . S
C926 H920 0.930 . S
C926 C927 1.355 . S
C926 C928 1.415 . S
C927 C926 1.355 . S
C927 C929 1.419 . S
C928 C926 1.415 . S
C928 C933 1.425 . S
C928 C935 1.409 . S
C929 H921 0.930 . S
C929 C927 1.419 . S
C929 C930 1.362 . S
C930 H922 0.930 . S
C930 C929 1.362 . S
C930 C933 1.409 . S
C931 H923 0.930 . S
C931 C932 1.355 . S
C931 C933 1.415 . S
C932 C931 1.355 . S
C932 C934 1.419 . S
C933 C928 1.425 . S
C933 C930 1.409 . S
C933 C931 1.415 . S
C934 H924 0.930 . S
C934 C932 1.419 . S
C934 C935 1.362 . S
C935 H925 0.930 . S
C935 C928 1.409 . S
C935 C934 1.362 . S
H936 C942 0.912 1_545 S
H937 C945 0.930 1_556 S
H938 C946 0.930 . S
H939 C947 0.930 . S
H940 C950 0.930 . S
H941 C951 0.930 . S
C942 H936 0.912 1_565 S
C942 C943 1.353 1_565 S
C942 C944 1.433 . S
C943 C942 1.353 1_545 S
C943 C945 1.419 1_545 S
C944 C942 1.433 . S
C944 C949 1.425 . S
C944 C951 1.409 . S
C945 H937 0.930 1_554 S
C945 C943 1.419 1_565 S
C945 C946 1.362 . S
C946 H938 0.930 . S
C946 C945 1.362 . S
C946 C949 1.409 . S
C947 H939 0.930 . S
C947 C948 1.355 . S
C947 C949 1.415 . S
C948 C947 1.355 . S
C948 C950 1.419 . S
C949 C944 1.425 . S
C949 C946 1.409 . S
C949 C947 1.415 . S
C950 H940 0.930 . S
C950 C948 1.419 . S
C950 C951 1.362 . S
C951 H941 0.930 . S
C951 C944 1.409 . S
C951 C950 1.362 . S
H952 C958 0.930 . S
H953 C961 0.930 . S
H954 C962 0.930 . S
H955 C963 0.930 . S
H956 C966 0.930 . S
H957 C967 0.930 . S
C958 H952 0.930 . S
C958 C959 1.355 . S
C958 C960 1.415 . S
C959 C958 1.355 . S
C959 C961 1.419 . S
C960 C958 1.415 . S
C960 C965 1.425 . S
C960 C967 1.409 . S
C961 H953 0.930 . S
C961 C959 1.419 . S
C961 C962 1.362 . S
C962 H954 0.930 . S
C962 C961 1.362 . S
C962 C965 1.409 . S
C963 H955 0.930 . S
C963 C964 1.355 . S
C963 C965 1.415 . S
C964 C963 1.355 . S
C964 C966 1.419 . S
C965 C960 1.425 . S
C965 C962 1.409 . S
C965 C963 1.415 . S
C966 H956 0.930 . S
C966 C964 1.419 . S
C966 C967 1.362 . S
C967 H957 0.930 . S
C967 C960 1.409 . S
C967 C966 1.362 . S
H968 C974 0.930 . S
H969 C977 0.930 . S
H970 C978 0.930 . S
H971 C979 0.930 . S
H972 C982 0.930 . S
H973 C983 0.930 . S
C974 H968 0.930 . S
C974 C975 1.355 . S
C974 C976 1.415 . S
C975 C974 1.355 . S
C975 C977 1.419 . S
C976 C974 1.415 . S
C976 C981 1.425 . S
C976 C983 1.409 . S
C977 H969 0.930 . S
C977 C975 1.419 . S
C977 C978 1.362 . S
C978 H970 0.930 . S
C978 C977 1.362 . S
C978 C981 1.409 . S
C979 H971 0.930 . S
C979 C980 1.355 . S
C979 C981 1.415 . S
C980 C979 1.355 . S
C980 C982 1.419 . S
C981 C976 1.425 . S
C981 C978 1.409 . S
C981 C979 1.415 . S
C982 H972 0.930 . S
C982 C980 1.419 . S
C982 C983 1.362 . S
C983 H973 0.930 . S
C983 C976 1.409 . S
C983 C982 1.362 . S
H984 C990 0.930 . S
H985 C993 0.930 . S
H986 C994 0.930 . S
H987 C995 0.930 . S
H988 C998 0.930 . S
H989 C999 0.930 . S
C990 H984 0.930 . S
C990 C991 1.356 . S
C990 C992 1.415 1_655 S
C991 C990 1.356 . S
C991 C993 1.395 1_655 S
C992 C990 1.415 1_455 S
C992 C997 1.425 . S
C992 C999 1.409 . S
C993 H985 0.930 . S
C993 C991 1.395 1_455 S
C993 C994 1.362 . S
C994 H986 0.930 . S
C994 C993 1.362 . S
C994 C997 1.409 . S
C995 H987 0.930 . S
C995 C996 1.355 . S
C995 C997 1.415 . S
C996 C995 1.355 . S
C996 C998 1.419 . S
C997 C992 1.425 . S
C997 C994 1.409 . S
C997 C995 1.415 . S
C998 H988 0.930 . S
C998 C996 1.419 . S
C998 C999 1.362 . S
C999 H989 0.930 . S
C999 C992 1.409 . S
C999 C998 1.362 . S
H1000 C1006 0.930 . S
H1001 C1009 0.930 . S
H1002 C1010 0.930 . S
H1003 C1011 0.930 . S
H1004 C1014 0.930 . S
H1005 C1015 0.930 . S
C1006 H1000 0.930 . S
C1006 C1007 1.355 . S
C1006 C1008 1.415 . S
C1007 C1006 1.355 . S
C1007 C1009 1.419 . S
C1008 C1006 1.415 . S
C1008 C1013 1.425 . S
C1008 C1015 1.409 . S
C1009 H1001 0.930 . S
C1009 C1007 1.419 . S
C1009 C1010 1.362 . S
C1010 H1002 0.930 . S
C1010 C1009 1.362 . S
C1010 C1013 1.409 . S
C1011 H1003 0.930 . S
C1011 C1012 1.355 . S
C1011 C1013 1.415 . S
C1012 C1011 1.355 . S
C1012 C1014 1.419 . S
C1013 C1008 1.425 . S
C1013 C1010 1.409 . S
C1013 C1011 1.415 . S
C1014 H1004 0.930 . S
C1014 C1012 1.419 . S
C1014 C1015 1.362 . S
C1015 H1005 0.930 . S
C1015 C1008 1.409 . S
C1015 C1014 1.362 . S
H1016 C1022 0.930 . S
H1017 C1025 0.930 . S
H1018 C1026 0.930 . S
H1019 C1027 0.930 . S
H1020 C1030 0.930 . S
H1021 C1031 0.930 . S
C1022 H1016 0.930 . S
C1022 C1023 1.355 . S
C1022 C1024 1.415 . S
C1023 C1022 1.355 . S
C1023 C1025 1.419 . S
C1024 C1022 1.415 . S
C1024 C1029 1.425 . S
C1024 C1031 1.409 . S
C1025 H1017 0.930 . S
C1025 C1023 1.419 . S
C1025 C1026 1.362 . S
C1026 H1018 0.930 . S
C1026 C1025 1.362 . S
C1026 C1029 1.409 . S
C1027 H1019 0.930 . S
C1027 C1028 1.355 . S
C1027 C1029 1.415 . S
C1028 C1027 1.355 . S
C1028 C1030 1.419 . S
C1029 C1024 1.425 . S
C1029 C1026 1.409 . S
C1029 C1027 1.415 . S
C1030 H1020 0.930 . S
C1030 C1028 1.419 . S
C1030 C1031 1.362 . S
C1031 H1021 0.930 . S
C1031 C1024 1.409 . S
C1031 C1030 1.362 . S
H1032 C1038 0.930 . S
H1033 C1041 0.930 . S
H1034 C1042 0.930 . S
H1035 C1043 0.930 . S
H1036 C1046 0.930 . S
H1037 C1047 0.930 . S
C1038 H1032 0.930 . S
C1038 C1039 1.355 . S
C1038 C1040 1.415 . S
C1039 C1038 1.355 . S
C1039 C1041 1.419 . S
C1040 C1038 1.415 . S
C1040 C1045 1.425 . S
C1040 C1047 1.409 . S
C1041 H1033 0.930 . S
C1041 C1039 1.419 . S
C1041 C1042 1.362 . S
C1042 H1034 0.930 . S
C1042 C1041 1.362 . S
C1042 C1045 1.409 . S
C1043 H1035 0.930 . S
C1043 C1044 1.355 . S
C1043 C1045 1.415 . S
C1044 C1043 1.355 . S
C1044 C1046 1.419 . S
C1045 C1040 1.425 . S
C1045 C1042 1.409 . S
C1045 C1043 1.415 . S
C1046 H1036 0.930 . S
C1046 C1044 1.419 . S
C1046 C1047 1.362 . S
C1047 H1037 0.930 . S
C1047 C1040 1.409 . S
C1047 C1046 1.362 . S
H1048 C1054 0.908 1_655 S
H1049 C1057 0.930 . S
H1050 C1058 0.930 . S
H1051 C1059 0.930 . S
H1052 C1062 0.930 . S
H1053 C1063 0.930 . S
C1054 H1048 0.908 1_455 S
C1054 C1055 1.353 1_455 S
C1054 C1056 1.438 . S
C1055 C1054 1.353 1_655 S
C1055 C1057 1.419 1_655 S
C1056 C1054 1.438 . S
C1056 C1061 1.425 . S
C1056 C1063 1.409 . S
C1057 H1049 0.930 . S
C1057 C1055 1.419 1_455 S
C1057 C1058 1.362 . S
C1058 H1050 0.930 . S
C1058 C1057 1.362 . S
C1058 C1061 1.409 . S
C1059 H1051 0.930 . S
C1059 C1060 1.355 . S
C1059 C1061 1.415 . S
C1060 C1059 1.355 . S
C1060 C1062 1.419 . S
C1061 C1056 1.425 . S
C1061 C1058 1.409 . S
C1061 C1059 1.415 . S
C1062 H1052 0.930 . S
C1062 C1060 1.419 . S
C1062 C1063 1.362 . S
C1063 H1053 0.930 . S
C1063 C1056 1.409 . S
C1063 C1062 1.362 . S
H1064 C1070 0.930 1_455 S
H1065 C1073 0.930 1_545 S
H1066 C1074 0.930 . S
H1067 C1075 0.930 . S
H1068 C1078 0.930 . S
H1069 C1079 0.930 . S
C1070 H1064 0.930 1_655 S
C1070 C1071 1.355 1_655 S
C1070 C1072 1.415 . S
C1071 C1070 1.355 1_455 S
C1071 C1073 1.419 1_455 S
C1072 C1070 1.415 . S
C1072 C1077 1.425 . S
C1072 C1079 1.409 . S
C1073 H1065 0.930 1_565 S
C1073 C1071 1.419 1_655 S
C1073 C1074 1.362 . S
C1074 H1066 0.930 . S
C1074 C1073 1.362 . S
C1074 C1077 1.409 . S
C1075 H1067 0.930 . S
C1075 C1076 1.355 . S
C1075 C1077 1.415 . S
C1076 C1075 1.355 . S
C1076 C1078 1.419 . S
C1077 C1072 1.425 . S
C1077 C1074 1.409 . S
C1077 C1075 1.415 . S
C1078 H1068 0.930 . S
C1078 C1076 1.419 . S
C1078 C1079 1.362 . S
C1079 H1069 0.930 . S
C1079 C1072 1.409 . S
C1079 C1078 1.362 . S
H1080 C1086 0.930 . S
H1081 C1089 0.930 . S
H1082 C1090 0.930 . S
H1083 C1091 0.930 . S
H1084 C1094 0.930 . S
H1085 C1095 0.930 . S
C1086 H1080 0.930 . S
C1086 C1087 1.355 . S
C1086 C1088 1.415 . S
C1087 C1086 1.355 . S
C1087 C1089 1.419 . S
C1088 C1086 1.415 . S
C1088 C1093 1.425 . S
C1088 C1095 1.409 . S
C1089 H1081 0.930 . S
C1089 C1087 1.419 . S
C1089 C1090 1.362 . S
C1090 H1082 0.930 . S
C1090 C1089 1.362 . S
C1090 C1093 1.409 . S
C1091 H1083 0.930 . S
C1091 C1092 1.355 . S
C1091 C1093 1.415 . S
C1092 C1091 1.355 . S
C1092 C1094 1.419 . S
C1093 C1088 1.425 . S
C1093 C1090 1.409 . S
C1093 C1091 1.415 . S
C1094 H1084 0.930 . S
C1094 C1092 1.419 . S
C1094 C1095 1.362 . S
C1095 H1085 0.930 . S
C1095 C1088 1.409 . S
C1095 C1094 1.362 . S
H1096 C1102 0.930 . S
H1097 C1105 0.930 1_655 S
H1098 C1106 0.930 . S
H1099 C1107 0.930 . S
H1100 C1110 0.930 . S
H1101 C1111 0.930 . S
C1102 H1096 0.930 . S
C1102 C1103 1.355 . S
C1102 C1104 1.415 . S
C1103 C1102 1.355 . S
C1103 C1105 1.419 . S
C1104 C1102 1.415 . S
C1104 C1109 1.425 . S
C1104 C1111 1.409 . S
C1105 H1097 0.930 1_455 S
C1105 C1103 1.419 . S
C1105 C1106 1.362 . S
C1106 H1098 0.930 . S
C1106 C1105 1.362 . S
C1106 C1109 1.409 . S
C1107 H1099 0.930 . S
C1107 C1108 1.355 . S
C1107 C1109 1.415 . S
C1108 C1107 1.355 . S
C1108 C1110 1.419 . S
C1109 C1104 1.425 . S
C1109 C1106 1.409 . S
C1109 C1107 1.415 . S
C1110 H1100 0.930 . S
C1110 C1108 1.419 . S
C1110 C1111 1.362 . S
C1111 H1101 0.930 . S
C1111 C1104 1.409 . S
C1111 C1110 1.362 . S
H1112 C1118 0.930 . S
H1113 C1121 0.930 . S
H1114 C1122 0.930 . S
H1115 C1123 0.930 . S
H1116 C1126 0.930 . S
H1117 C1127 0.930 . S
C1118 H1112 0.930 . S
C1118 C1119 1.355 . S
C1118 C1120 1.415 . S
C1119 C1118 1.355 . S
C1119 C1121 1.419 . S
C1120 C1118 1.415 . S
C1120 C1125 1.425 . S
C1120 C1127 1.409 . S
C1121 H1113 0.930 . S
C1121 C1119 1.419 . S
C1121 C1122 1.362 . S
C1122 H1114 0.930 . S
C1122 C1121 1.362 . S
C1122 C1125 1.409 . S
C1123 H1115 0.930 . S
C1123 C1124 1.355 . S
C1123 C1125 1.415 . S
C1124 C1123 1.355 . S
C1124 C1126 1.419 . S
C1125 C1120 1.425 . S
C1125 C1122 1.409 . S
C1125 C1123 1.415 . S
C1126 H1116 0.930 . S
C1126 C1124 1.419 . S
C1126 C1127 1.362 . S
C1127 H1117 0.930 . S
C1127 C1120 1.409 . S
C1127 C1126 1.362 . S
H1128 C1134 0.930 . S
H1129 C1137 0.930 . S
H1130 C1138 0.930 . S
H1131 C1139 0.930 . S
H1132 C1142 0.930 . S
H1133 C1143 0.930 . S
C1134 H1128 0.930 . S
C1134 C1135 1.355 . S
C1134 C1136 1.415 . S
C1135 C1134 1.355 . S
C1135 C1137 1.419 . S
C1136 C1134 1.415 . S
C1136 C1141 1.425 . S
C1136 C1143 1.409 . S
C1137 H1129 0.930 . S
C1137 C1135 1.419 . S
C1137 C1138 1.362 . S
C1138 H1130 0.930 . S
C1138 C1137 1.362 . S
C1138 C1141 1.409 . S
C1139 H1131 0.930 . S
C1139 C1140 1.355 . S
C1139 C1141 1.415 . S
C1140 C1139 1.355 . S
C1140 C1142 1.419 . S
C1141 C1136 1.425 . S
C1141 C1138 1.409 . S
C1141 C1139 1.415 . S
C1142 H1132 0.930 . S
C1142 C1140 1.419 . S
C1142 C1143 1.362 . S
C1143 H1133 0.930 . S
C1143 C1136 1.409 . S
C1143 C1142 1.362 . S
H1144 C1150 0.930 . S
H1145 C1153 0.930 . S
H1146 C1154 0.930 . S
H1147 C1155 0.930 . S
H1148 C1158 0.930 . S
H1149 C1159 0.930 . S
C1150 H1144 0.930 . S
C1150 C1151 1.355 . S
C1150 C1152 1.415 . S
C1151 C1150 1.355 . S
C1151 C1153 1.419 . S
C1152 C1150 1.415 . S
C1152 C1157 1.425 . S
C1152 C1159 1.409 . S
C1153 H1145 0.930 . S
C1153 C1151 1.419 . S
C1153 C1154 1.362 . S
C1154 H1146 0.930 . S
C1154 C1153 1.362 . S
C1154 C1157 1.409 . S
C1155 H1147 0.930 . S
C1155 C1156 1.355 . S
C1155 C1157 1.415 . S
C1156 C1155 1.355 . S
C1156 C1158 1.419 . S
C1157 C1152 1.425 . S
C1157 C1154 1.409 . S
C1157 C1155 1.415 . S
C1158 H1148 0.930 . S
C1158 C1156 1.419 . S
C1158 C1159 1.362 . S
C1159 H1149 0.930 . S
C1159 C1152 1.409 . S
C1159 C1158 1.362 . S
H1160 C1166 0.930 . S
H1161 C1169 0.930 . S
H1162 C1170 0.930 . S
H1163 C1171 0.930 . S
H1164 C1174 0.930 . S
H1165 C1175 0.930 . S
C1166 H1160 0.930 . S
C1166 C1167 1.355 . S
C1166 C1168 1.415 . S
C1167 C1166 1.355 . S
C1167 C1169 1.419 . S
C1168 C1166 1.415 . S
C1168 C1173 1.425 . S
C1168 C1175 1.409 . S
C1169 H1161 0.930 . S
C1169 C1167 1.419 . S
C1169 C1170 1.362 . S
C1170 H1162 0.930 . S
C1170 C1169 1.362 . S
C1170 C1173 1.409 . S
C1171 H1163 0.930 . S
C1171 C1172 1.355 . S
C1171 C1173 1.415 . S
C1172 C1171 1.355 . S
C1172 C1174 1.419 . S
C1173 C1168 1.425 . S
C1173 C1170 1.409 . S
C1173 C1171 1.415 . S
C1174 H1164 0.930 . S
C1174 C1172 1.419 . S
C1174 C1175 1.362 . S
C1175 H1165 0.930 . S
C1175 C1168 1.409 . S
C1175 C1174 1.362 . S
H1176 C1182 0.930 . S
H1177 C1185 0.930 . S
H1178 C1186 0.930 . S
H1179 C1187 0.930 . S
H1180 C1190 0.930 . S
H1181 C1191 0.930 . S
C1182 H1176 0.930 . S
C1182 C1183 1.355 . S
C1182 C1184 1.415 . S
C1183 C1182 1.355 . S
C1183 C1185 1.419 . S
C1184 C1182 1.415 . S
C1184 C1189 1.425 . S
C1184 C1191 1.409 . S
C1185 H1177 0.930 . S
C1185 C1183 1.419 . S
C1185 C1186 1.362 . S
C1186 H1178 0.930 . S
C1186 C1185 1.362 . S
C1186 C1189 1.409 . S
C1187 H1179 0.930 . S
C1187 C1188 1.355 . S
C1187 C1189 1.415 . S
C1188 C1187 1.355 . S
C1188 C1190 1.419 . S
C1189 C1184 1.425 . S
C1189 C1186 1.409 . S
C1189 C1187 1.415 . S
C1190 H1180 0.930 . S
C1190 C1188 1.419 . S
C1190 C1191 1.362 . S
C1191 H1181 0.930 . S
C1191 C1184 1.409 . S
C1191 C1190 1.362 . S
H1192 C1198 0.930 . S
H1193 C1201 0.930 . S
H1194 C1202 0.930 . S
H1195 C1203 0.930 . S
H1196 C1206 0.930 . S
H1197 C1207 0.930 . S
C1198 H1192 0.930 . S
C1198 C1199 1.355 . S
C1198 C1200 1.415 . S
C1199 C1198 1.355 . S
C1199 C1201 1.419 . S
C1200 C1198 1.415 . S
C1200 C1205 1.425 . S
C1200 C1207 1.409 . S
C1201 H1193 0.930 . S
C1201 C1199 1.419 . S
C1201 C1202 1.362 . S
C1202 H1194 0.930 . S
C1202 C1201 1.362 . S
C1202 C1205 1.409 . S
C1203 H1195 0.930 . S
C1203 C1204 1.355 . S
C1203 C1205 1.415 . S
C1204 C1203 1.355 . S
C1204 C1206 1.419 . S
C1205 C1200 1.425 . S
C1205 C1202 1.409 . S
C1205 C1203 1.415 . S
C1206 H1196 0.930 . S
C1206 C1204 1.419 . S
C1206 C1207 1.362 . S
C1207 H1197 0.930 . S
C1207 C1200 1.409 . S
C1207 C1206 1.362 . S
H1208 C1214 0.930 . S
H1209 C1217 0.930 . S
H1210 C1218 0.930 . S
H1211 C1219 0.930 . S
H1212 C1222 0.930 . S
H1213 C1223 0.930 . S
C1214 H1208 0.930 . S
C1214 C1215 1.355 . S
C1214 C1216 1.415 . S
C1215 C1214 1.355 . S
C1215 C1217 1.419 . S
C1216 C1214 1.415 . S
C1216 C1221 1.425 . S
C1216 C1223 1.409 . S
C1217 H1209 0.930 . S
C1217 C1215 1.419 . S
C1217 C1218 1.362 . S
C1218 H1210 0.930 . S
C1218 C1217 1.362 . S
C1218 C1221 1.409 . S
C1219 H1211 0.930 . S
C1219 C1220 1.355 . S
C1219 C1221 1.415 . S
C1220 C1219 1.355 . S
C1220 C1222 1.419 . S
C1221 C1216 1.425 . S
C1221 C1218 1.409 . S
C1221 C1219 1.415 . S
C1222 H1212 0.930 . S
C1222 C1220 1.419 . S
C1222 C1223 1.362 . S
C1223 H1213 0.930 . S
C1223 C1216 1.409 . S
C1223 C1222 1.362 . S
H1224 C1230 0.930 . S
H1225 C1233 0.930 . S
H1226 C1234 0.930 . S
H1227 C1235 0.930 . S
H1228 C1238 0.930 . S
H1229 C1239 0.930 . S
C1230 H1224 0.930 . S
C1230 C1231 1.355 . S
C1230 C1232 1.415 . S
C1231 C1230 1.355 . S
C1231 C1233 1.419 . S
C1232 C1230 1.415 . S
C1232 C1237 1.425 . S
C1232 C1239 1.409 . S
C1233 H1225 0.930 . S
C1233 C1231 1.419 . S
C1233 C1234 1.362 . S
C1234 H1226 0.930 . S
C1234 C1233 1.362 . S
C1234 C1237 1.409 . S
C1235 H1227 0.930 . S
C1235 C1236 1.355 1_545 S
C1235 C1237 1.415 . S
C1236 C1235 1.355 1_565 S
C1236 C1238 1.419 1_565 S
C1237 C1232 1.425 . S
C1237 C1234 1.409 . S
C1237 C1235 1.415 . S
C1238 H1228 0.930 . S
C1238 C1236 1.419 1_545 S
C1238 C1239 1.362 . S
C1239 H1229 0.930 . S
C1239 C1232 1.409 . S
C1239 C1238 1.362 . S
H1240 C1246 0.930 . S
H1241 C1249 0.930 . S
H1242 C1250 0.930 . S
H1243 C1251 0.930 . S
H1244 C1254 0.930 . S
H1245 C1255 0.930 . S
C1246 H1240 0.930 . S
C1246 C1247 1.355 . S
C1246 C1248 1.415 . S
C1247 C1246 1.355 . S
C1247 C1249 1.419 . S
C1248 C1246 1.415 . S
C1248 C1253 1.425 . S
C1248 C1255 1.409 . S
C1249 H1241 0.930 . S
C1249 C1247 1.419 . S
C1249 C1250 1.362 . S
C1250 H1242 0.930 . S
C1250 C1249 1.362 . S
C1250 C1253 1.409 . S
C1251 H1243 0.930 . S
C1251 C1252 1.355 . S
C1251 C1253 1.415 . S
C1252 C1251 1.355 . S
C1252 C1254 1.419 . S
C1253 C1248 1.425 . S
C1253 C1250 1.409 . S
C1253 C1251 1.415 . S
C1254 H1244 0.930 . S
C1254 C1252 1.419 . S
C1254 C1255 1.362 . S
C1255 H1245 0.930 . S
C1255 C1248 1.409 . S
C1255 C1254 1.362 . S
H1256 C1262 0.930 . S
H1257 C1265 0.930 . S
H1258 C1266 0.930 . S
H1259 C1267 0.930 . S
H1260 C1270 0.930 . S
H1261 C1271 0.930 . S
C1262 H1256 0.930 . S
C1262 C1263 1.355 . S
C1262 C1264 1.415 . S
C1263 C1262 1.355 . S
C1263 C1265 1.419 . S
C1264 C1262 1.415 . S
C1264 C1269 1.425 . S
C1264 C1271 1.409 . S
C1265 H1257 0.930 . S
C1265 C1263 1.419 . S
C1265 C1266 1.362 . S
C1266 H1258 0.930 . S
C1266 C1265 1.362 . S
C1266 C1269 1.409 . S
C1267 H1259 0.930 . S
C1267 C1268 1.355 . S
C1267 C1269 1.415 . S
C1268 C1267 1.355 . S
C1268 C1270 1.419 . S
C1269 C1264 1.425 . S
C1269 C1266 1.409 . S
C1269 C1267 1.415 . S
C1270 H1260 0.930 . S
C1270 C1268 1.419 . S
C1270 C1271 1.362 . S
C1271 H1261 0.930 . S
C1271 C1264 1.409 . S
C1271 C1270 1.362 . S
H1272 C1278 0.930 . S
H1273 C1281 0.930 . S
H1274 C1282 0.930 . S
H1275 C1283 0.930 . S
H1276 C1286 0.930 . S
H1277 C1287 0.930 . S
C1278 H1272 0.930 . S
C1278 C1279 1.355 . S
C1278 C1280 1.415 . S
C1279 C1278 1.355 . S
C1279 C1281 1.419 . S
C1280 C1278 1.415 . S
C1280 C1285 1.425 . S
C1280 C1287 1.409 . S
C1281 H1273 0.930 . S
C1281 C1279 1.419 . S
C1281 C1282 1.362 . S
C1282 H1274 0.930 . S
C1282 C1281 1.362 . S
C1282 C1285 1.409 . S
C1283 H1275 0.930 . S
C1283 C1284 1.355 . S
C1283 C1285 1.415 . S
C1284 C1283 1.355 . S
C1284 C1286 1.419 . S
C1285 C1280 1.425 . S
C1285 C1282 1.409 . S
C1285 C1283 1.415 . S
C1286 H1276 0.930 . S
C1286 C1284 1.419 . S
C1286 C1287 1.362 . S
C1287 H1277 0.930 . S
C1287 C1280 1.409 . S
C1287 C1286 1.362 . S
H1288 C1294 0.930 . S
H1289 C1297 0.930 . S
H1290 C1298 0.930 . S
H1291 C1299 0.930 . S
H1292 C1302 0.930 . S
H1293 C1303 0.930 . S
C1294 H1288 0.930 . S
C1294 C1295 1.355 . S
C1294 C1296 1.415 . S
C1295 C1294 1.355 . S
C1295 C1297 1.419 . S
C1296 C1294 1.415 . S
C1296 C1301 1.425 . S
C1296 C1303 1.409 . S
C1297 H1289 0.930 . S
C1297 C1295 1.419 . S
C1297 C1298 1.362 . S
C1298 H1290 0.930 . S
C1298 C1297 1.362 . S
C1298 C1301 1.409 . S
C1299 H1291 0.930 . S
C1299 C1300 1.356 . S
C1299 C1301 1.415 1_565 S
C1300 C1299 1.356 . S
C1300 C1302 1.396 1_565 S
C1301 C1296 1.425 . S
C1301 C1298 1.409 . S
C1301 C1299 1.415 1_545 S
C1302 H1292 0.930 . S
C1302 C1300 1.396 1_545 S
C1302 C1303 1.362 . S
C1303 H1293 0.930 . S
C1303 C1296 1.409 . S
C1303 C1302 1.362 . S
H1304 C1310 0.930 . S
H1305 C1313 0.930 . S
H1306 C1314 0.930 . S
H1307 C1315 0.930 . S
H1308 C1318 0.930 . S
H1309 C1319 0.930 . S
C1310 H1304 0.930 . S
C1310 C1311 1.355 . S
C1310 C1312 1.415 . S
C1311 C1310 1.355 . S
C1311 C1313 1.419 . S
C1312 C1310 1.415 . S
C1312 C1317 1.425 . S
C1312 C1319 1.409 . S
C1313 H1305 0.930 . S
C1313 C1311 1.419 . S
C1313 C1314 1.362 . S
C1314 H1306 0.930 . S
C1314 C1313 1.362 . S
C1314 C1317 1.409 . S
C1315 H1307 0.930 . S
C1315 C1316 1.355 . S
C1315 C1317 1.415 . S
C1316 C1315 1.355 . S
C1316 C1318 1.419 . S
C1317 C1312 1.425 . S
C1317 C1314 1.409 . S
C1317 C1315 1.415 . S
C1318 H1308 0.930 . S
C1318 C1316 1.419 . S
C1318 C1319 1.362 . S
C1319 H1309 0.930 . S
C1319 C1312 1.409 . S
C1319 C1318 1.362 . S
H1320 C1326 0.930 . S
H1321 C1329 0.930 . S
H1322 C1330 0.930 . S
H1323 C1331 0.930 . S
H1324 C1334 0.930 . S
H1325 C1335 0.930 . S
C1326 H1320 0.930 . S
C1326 C1327 1.355 . S
C1326 C1328 1.415 . S
C1327 C1326 1.355 . S
C1327 C1329 1.419 . S
C1328 C1326 1.415 . S
C1328 C1333 1.425 . S
C1328 C1335 1.409 . S
C1329 H1321 0.930 . S
C1329 C1327 1.419 . S
C1329 C1330 1.362 . S
C1330 H1322 0.930 . S
C1330 C1329 1.362 . S
C1330 C1333 1.409 . S
C1331 H1323 0.930 . S
C1331 C1332 1.355 . S
C1331 C1333 1.415 . S
C1332 C1331 1.355 . S
C1332 C1334 1.419 . S
C1333 C1328 1.425 . S
C1333 C1330 1.409 . S
C1333 C1331 1.415 . S
C1334 H1324 0.930 . S
C1334 C1332 1.419 . S
C1334 C1335 1.362 . S
C1335 H1325 0.930 . S
C1335 C1328 1.409 . S
C1335 C1334 1.362 . S
H1336 C1342 0.930 . S
H1337 C1345 0.930 . S
H1338 C1346 0.930 . S
H1339 C1347 0.930 . S
H1340 C1350 0.930 . S
H1341 C1351 0.930 . S
C1342 H1336 0.930 . S
C1342 C1343 1.355 . S
C1342 C1344 1.415 . S
C1343 C1342 1.355 . S
C1343 C1345 1.419 . S
C1344 C1342 1.415 . S
C1344 C1349 1.425 . S
C1344 C1351 1.409 . S
C1345 H1337 0.930 . S
C1345 C1343 1.419 . S
C1345 C1346 1.362 . S
C1346 H1338 0.930 . S
C1346 C1345 1.362 . S
C1346 C1349 1.409 . S
C1347 H1339 0.930 . S
C1347 C1348 1.355 . S
C1347 C1349 1.415 . S
C1348 C1347 1.355 . S
C1348 C1350 1.419 . S
C1349 C1344 1.425 . S
C1349 C1346 1.409 . S
C1349 C1347 1.415 . S
C1350 H1340 0.930 . S
C1350 C1348 1.419 . S
C1350 C1351 1.362 . S
C1351 H1341 0.930 . S
C1351 C1344 1.409 . S
C1351 C1350 1.362 . S
H1352 C1358 0.930 . S
H1353 C1361 0.930 . S
H1354 C1362 0.930 . S
H1355 C1363 0.930 . S
H1356 C1366 0.930 . S
H1357 C1367 0.930 . S
C1358 H1352 0.930 . S
C1358 C1359 1.355 . S
C1358 C1360 1.415 . S
C1359 C1358 1.355 . S
C1359 C1361 1.419 . S
C1360 C1358 1.415 . S
C1360 C1365 1.425 . S
C1360 C1367 1.409 . S
C1361 H1353 0.930 . S
C1361 C1359 1.419 . S
C1361 C1362 1.362 . S
C1362 H1354 0.930 . S
C1362 C1361 1.362 . S
C1362 C1365 1.409 . S
C1363 H1355 0.930 . S
C1363 C1364 1.355 . S
C1363 C1365 1.415 . S
C1364 C1363 1.355 . S
C1364 C1366 1.419 . S
C1365 C1360 1.425 . S
C1365 C1362 1.409 . S
C1365 C1363 1.415 . S
C1366 H1356 0.930 . S
C1366 C1364 1.419 . S
C1366 C1367 1.362 . S
C1367 H1357 0.930 . S
C1367 C1360 1.409 . S
C1367 C1366 1.362 . S
H1368 C1374 0.930 . S
H1369 C1377 0.930 . S
H1370 C1378 0.930 . S
H1371 C1379 0.930 . S
H1372 C1382 0.930 . S
H1373 C1383 0.930 . S
C1374 H1368 0.930 . S
C1374 C1375 1.355 . S
C1374 C1376 1.415 . S
C1375 C1374 1.355 . S
C1375 C1377 1.419 . S
C1376 C1374 1.415 . S
C1376 C1381 1.425 . S
C1376 C1383 1.409 . S
C1377 H1369 0.930 . S
C1377 C1375 1.419 . S
C1377 C1378 1.362 . S
C1378 H1370 0.930 . S
C1378 C1377 1.362 . S
C1378 C1381 1.409 . S
C1379 H1371 0.930 . S
C1379 C1380 1.355 . S
C1379 C1381 1.415 . S
C1380 C1379 1.355 . S
C1380 C1382 1.419 . S
C1381 C1376 1.425 . S
C1381 C1378 1.409 . S
C1381 C1379 1.415 . S
C1382 H1372 0.930 . S
C1382 C1380 1.419 . S
C1382 C1383 1.362 . S
C1383 H1373 0.930 . S
C1383 C1376 1.409 . S
C1383 C1382 1.362 . S
H1384 C1390 0.930 . S
H1385 C1393 0.930 . S
H1386 C1394 0.930 . S
H1387 C1395 0.930 . S
H1388 C1398 0.930 . S
H1389 C1399 0.930 . S
C1390 H1384 0.930 . S
C1390 C1391 1.355 . S
C1390 C1392 1.415 . S
C1391 C1390 1.355 . S
C1391 C1393 1.419 . S
C1392 C1390 1.415 . S
C1392 C1397 1.425 . S
C1392 C1399 1.409 . S
C1393 H1385 0.930 . S
C1393 C1391 1.419 . S
C1393 C1394 1.362 . S
C1394 H1386 0.930 . S
C1394 C1393 1.362 . S
C1394 C1397 1.409 . S
C1395 H1387 0.930 . S
C1395 C1396 1.355 . S
C1395 C1397 1.415 . S
C1396 C1395 1.355 . S
C1396 C1398 1.419 . S
C1397 C1392 1.425 . S
C1397 C1394 1.409 . S
C1397 C1395 1.415 . S
C1398 H1388 0.930 . S
C1398 C1396 1.419 . S
C1398 C1399 1.362 . S
C1399 H1389 0.930 . S
C1399 C1392 1.409 . S
C1399 C1398 1.362 . S
H1400 C1406 0.930 . S
H1401 C1409 0.930 . S
H1402 C1410 0.930 . S
H1403 C1411 0.930 1_455 S
H1404 C1414 0.930 . S
H1405 C1415 0.930 . S
C1406 H1400 0.930 . S
C1406 C1407 1.355 . S
C1406 C1408 1.415 . S
C1407 C1406 1.355 . S
C1407 C1409 1.419 . S
C1408 C1406 1.415 . S
C1408 C1413 1.425 . S
C1408 C1415 1.409 . S
C1409 H1401 0.930 . S
C1409 C1407 1.419 . S
C1409 C1410 1.362 . S
C1410 H1402 0.930 . S
C1410 C1409 1.362 . S
C1410 C1413 1.409 . S
C1411 H1403 0.930 1_655 S
C1411 C1412 1.355 1_655 S
C1411 C1413 1.415 . S
C1412 C1411 1.355 1_455 S
C1412 C1414 1.419 1_455 S
C1413 C1408 1.425 . S
C1413 C1410 1.409 . S
C1413 C1411 1.415 . S
C1414 H1404 0.930 . S
C1414 C1412 1.419 1_655 S
C1414 C1415 1.362 . S
C1415 H1405 0.930 . S
C1415 C1408 1.409 . S
C1415 C1414 1.362 . S
H1416 C1422 0.930 . S
H1417 C1425 0.930 . S
H1418 C1426 0.930 . S
H1419 C1427 0.930 . S
H1420 C1430 0.930 . S
H1421 C1431 0.930 . S
C1422 H1416 0.930 . S
C1422 C1423 1.355 . S
C1422 C1424 1.415 . S
C1423 C1422 1.355 . S
C1423 C1425 1.419 . S
C1424 C1422 1.415 . S
C1424 C1429 1.425 . S
C1424 C1431 1.409 . S
C1425 H1417 0.930 . S
C1425 C1423 1.419 . S
C1425 C1426 1.362 . S
C1426 H1418 0.930 . S
C1426 C1425 1.362 . S
C1426 C1429 1.409 . S
C1427 H1419 0.930 . S
C1427 C1428 1.355 . S
C1427 C1429 1.415 . S
C1428 C1427 1.355 . S
C1428 C1430 1.419 . S
C1429 C1424 1.425 . S
C1429 C1426 1.409 . S
C1429 C1427 1.415 . S
C1430 H1420 0.930 . S
C1430 C1428 1.419 . S
C1430 C1431 1.362 . S
C1431 H1421 0.930 . S
C1431 C1424 1.409 . S
C1431 C1430 1.362 . S
H1432 C1438 0.930 . S
H1433 C1441 0.930 . S
H1434 C1442 0.930 . S
H1435 C1443 0.930 . S
H1436 C1446 0.930 . S
H1437 C1447 0.930 . S
C1438 H1432 0.930 . S
C1438 C1439 1.355 . S
C1438 C1440 1.415 . S
C1439 C1438 1.355 . S
C1439 C1441 1.419 . S
C1440 C1438 1.415 . S
C1440 C1445 1.425 . S
C1440 C1447 1.409 . S
C1441 H1433 0.930 . S
C1441 C1439 1.419 . S
C1441 C1442 1.362 . S
C1442 H1434 0.930 . S
C1442 C1441 1.362 . S
C1442 C1445 1.409 . S
C1443 H1435 0.930 . S
C1443 C1444 1.355 . S
C1443 C1445 1.415 . S
C1444 C1443 1.355 . S
C1444 C1446 1.419 . S
C1445 C1440 1.425 . S
C1445 C1442 1.409 . S
C1445 C1443 1.415 . S
C1446 H1436 0.930 . S
C1446 C1444 1.419 . S
C1446 C1447 1.362 . S
C1447 H1437 0.930 . S
C1447 C1440 1.409 . S
C1447 C1446 1.362 . S
H1448 C1454 0.930 . S
H1449 C1457 0.930 . S
H1450 C1458 0.930 . S
H1451 C1459 0.930 . S
H1452 C1462 0.930 . S
H1453 C1463 0.930 . S
C1454 H1448 0.930 . S
C1454 C1455 1.355 . S
C1454 C1456 1.415 . S
C1455 C1454 1.355 . S
C1455 C1457 1.419 . S
C1456 C1454 1.415 . S
C1456 C1461 1.425 . S
C1456 C1463 1.409 . S
C1457 H1449 0.930 . S
C1457 C1455 1.419 . S
C1457 C1458 1.362 . S
C1458 H1450 0.930 . S
C1458 C1457 1.362 . S
C1458 C1461 1.409 . S
C1459 H1451 0.930 . S
C1459 C1460 1.355 . S
C1459 C1461 1.415 . S
C1460 C1459 1.355 . S
C1460 C1462 1.419 . S
C1461 C1456 1.425 . S
C1461 C1458 1.409 . S
C1461 C1459 1.415 . S
C1462 H1452 0.930 . S
C1462 C1460 1.419 . S
C1462 C1463 1.362 . S
C1463 H1453 0.930 . S
C1463 C1456 1.409 . S
C1463 C1462 1.362 . S
H1464 C1470 0.930 1_455 S
H1465 C1473 0.930 . S
H1466 C1474 0.930 . S
H1467 C1475 0.930 . S
H1468 C1478 0.930 . S
H1469 C1479 0.930 . S
C1470 H1464 0.930 1_655 S
C1470 C1471 1.355 . S
C1470 C1472 1.415 . S
C1471 C1470 1.355 . S
C1471 C1473 1.419 . S
C1472 C1470 1.415 . S
C1472 C1477 1.425 . S
C1472 C1479 1.409 1_655 S
C1473 H1465 0.930 . S
C1473 C1471 1.419 . S
C1473 C1474 1.362 . S
C1474 H1466 0.930 . S
C1474 C1473 1.362 . S
C1474 C1477 1.409 . S
C1475 H1467 0.930 . S
C1475 C1476 1.355 . S
C1475 C1477 1.415 . S
C1476 C1475 1.355 . S
C1476 C1478 1.419 1_655 S
C1477 C1472 1.425 . S
C1477 C1474 1.409 . S
C1477 C1475 1.415 . S
C1478 H1468 0.930 . S
C1478 C1476 1.419 1_455 S
C1478 C1479 1.362 . S
C1479 H1469 0.930 . S
C1479 C1472 1.409 1_455 S
C1479 C1478 1.362 . S
H1480 C1486 0.930 . S
H1481 C1489 0.930 . S
H1482 C1490 0.930 . S
H1483 C1491 0.930 . S
H1484 C1494 0.930 . S
H1485 C1495 0.930 . S
C1486 H1480 0.930 . S
C1486 C1487 1.355 . S
C1486 C1488 1.415 . S
C1487 C1486 1.355 . S
C1487 C1489 1.419 1_556 S
C1488 C1486 1.415 . S
C1488 C1493 1.425 1_556 S
C1488 C1495 1.409 . S
C1489 H1481 0.930 . S
C1489 C1487 1.419 1_554 S
C1489 C1490 1.362 . S
C1490 H1482 0.930 . S
C1490 C1489 1.362 . S
C1490 C1493 1.409 . S
C1491 H1483 0.930 . S
C1491 C1492 1.355 . S
C1491 C1493 1.415 . S
C1492 C1491 1.355 . S
C1492 C1494 1.419 1_554 S
C1493 C1488 1.425 1_554 S
C1493 C1490 1.409 . S
C1493 C1491 1.415 . S
C1494 H1484 0.930 . S
C1494 C1492 1.419 1_556 S
C1494 C1495 1.362 . S
C1495 H1485 0.930 . S
C1495 C1488 1.409 . S
C1495 C1494 1.362 . S
H1496 C1502 0.930 . S
H1497 C1505 0.930 . S
H1498 C1506 0.930 . S
H1499 C1507 0.930 . S
H1500 C1510 0.930 . S
H1501 C1511 0.930 . S
C1502 H1496 0.930 . S
C1502 C1503 1.355 . S
C1502 C1504 1.415 . S
C1503 C1502 1.355 . S
C1503 C1505 1.419 1_455 S
C1504 C1502 1.415 . S
C1504 C1509 1.425 1_545 S
C1504 C1511 1.409 1_545 S
C1505 H1497 0.930 . S
C1505 C1503 1.419 1_655 S
C1505 C1506 1.362 . S
C1506 H1498 0.930 . S
C1506 C1505 1.362 . S
C1506 C1509 1.409 1_645 S
C1507 H1499 0.930 . S
C1507 C1508 1.355 1_655 S
C1507 C1509 1.415 1_655 S
C1508 C1507 1.355 1_455 S
C1508 C1510 1.419 . S
C1509 C1504 1.425 1_565 S
C1509 C1506 1.409 1_465 S
C1509 C1507 1.415 1_455 S
C1510 H1500 0.930 . S
C1510 C1508 1.419 . S
C1510 C1511 1.362 . S
C1511 H1501 0.930 . S
C1511 C1504 1.409 1_565 S
C1511 C1510 1.362 . S
H1512 C1518 0.930 . S
H1513 C1521 0.930 . S
H1514 C1522 0.930 . S
H1515 C1523 0.930 . S
H1516 C1526 0.930 . S
H1517 C1527 0.930 . S
C1518 H1512 0.930 . S
C1518 C1519 1.355 . S
C1518 C1520 1.415 . S
C1519 C1518 1.355 . S
C1519 C1521 1.419 1_556 S
C1520 C1518 1.415 . S
C1520 C1525 1.425 1_556 S
C1520 C1527 1.409 . S
C1521 H1513 0.930 . S
C1521 C1519 1.419 1_554 S
C1521 C1522 1.362 . S
C1522 H1514 0.930 . S
C1522 C1521 1.362 . S
C1522 C1525 1.409 . S
C1523 H1515 0.930 . S
C1523 C1524 1.355 . S
C1523 C1525 1.415 . S
C1524 C1523 1.355 . S
C1524 C1526 1.419 1_554 S
C1525 C1520 1.425 1_554 S
C1525 C1522 1.409 . S
C1525 C1523 1.415 . S
C1526 H1516 0.930 . S
C1526 C1524 1.419 1_556 S
C1526 C1527 1.362 . S
C1527 H1517 0.930 . S
C1527 C1520 1.409 . S
C1527 C1526 1.362 . S
H1528 C1534 0.930 1_545 S
H1529 C1537 0.930 . S
H1530 C1538 0.930 . S
H1531 C1539 0.930 . S
H1532 C1542 0.930 . S
H1533 C1543 0.930 . S
C1534 H1528 0.930 1_565 S
C1534 C1535 1.355 . S
C1534 C1536 1.415 . S
C1535 C1534 1.355 . S
C1535 C1537 1.419 . S
C1536 C1534 1.415 . S
C1536 C1541 1.425 . S
C1536 C1543 1.409 1_565 S
C1537 H1529 0.930 . S
C1537 C1535 1.419 . S
C1537 C1538 1.362 . S
C1538 H1530 0.930 . S
C1538 C1537 1.362 . S
C1538 C1541 1.409 . S
C1539 H1531 0.930 . S
C1539 C1540 1.355 . S
C1539 C1541 1.415 . S
C1540 C1539 1.355 . S
C1540 C1542 1.419 1_565 S
C1541 C1536 1.425 . S
C1541 C1538 1.409 . S
C1541 C1539 1.415 . S
C1542 H1532 0.930 . S
C1542 C1540 1.419 1_545 S
C1542 C1543 1.362 . S
C1543 H1533 0.930 . S
C1543 C1536 1.409 1_545 S
C1543 C1542 1.362 . S
H1544 C1550 0.930 . S
H1545 C1553 0.930 . S
H1546 C1554 0.930 . S
H1547 C1555 0.930 . S
H1548 C1558 0.930 . S
H1549 C1559 0.930 . S
C1550 H1544 0.930 . S
C1550 C1551 1.355 . S
C1550 C1552 1.415 . S
C1551 C1550 1.355 . S
C1551 C1553 1.419 . S
C1552 C1550 1.415 . S
C1552 C1557 1.425 . S
C1552 C1559 1.409 . S
C1553 H1545 0.930 . S
C1553 C1551 1.419 . S
C1553 C1554 1.362 . S
C1554 H1546 0.930 . S
C1554 C1553 1.362 . S
C1554 C1557 1.409 . S
C1555 H1547 0.930 . S
C1555 C1556 1.355 . S
C1555 C1557 1.415 . S
C1556 C1555 1.355 . S
C1556 C1558 1.419 . S
C1557 C1552 1.425 . S
C1557 C1554 1.409 . S
C1557 C1555 1.415 . S
C1558 H1548 0.930 . S
C1558 C1556 1.419 . S
C1558 C1559 1.362 . S
C1559 H1549 0.930 . S
C1559 C1552 1.409 . S
C1559 C1558 1.362 . S
H1560 C1566 0.930 . S
H1561 C1569 0.930 . S
H1562 C1570 0.930 . S
H1563 C1571 0.930 . S
H1564 C1574 0.930 . S
H1565 C1575 0.930 . S
C1566 H1560 0.930 . S
C1566 C1567 1.355 . S
C1566 C1568 1.415 . S
C1567 C1566 1.355 . S
C1567 C1569 1.419 . S
C1568 C1566 1.415 . S
C1568 C1573 1.425 . S
C1568 C1575 1.409 . S
C1569 H1561 0.930 . S
C1569 C1567 1.419 . S
C1569 C1570 1.362 . S
C1570 H1562 0.930 . S
C1570 C1569 1.362 . S
C1570 C1573 1.409 . S
C1571 H1563 0.930 . S
C1571 C1572 1.355 . S
C1571 C1573 1.415 . S
C1572 C1571 1.355 . S
C1572 C1574 1.419 . S
C1573 C1568 1.425 . S
C1573 C1570 1.409 . S
C1573 C1571 1.415 . S
C1574 H1564 0.930 . S
C1574 C1572 1.419 . S
C1574 C1575 1.362 . S
C1575 H1565 0.930 . S
C1575 C1568 1.409 . S
C1575 C1574 1.362 . S
H1576 C1582 0.930 . S
H1577 C1585 0.930 . S
H1578 C1586 0.930 . S
H1579 C1587 0.930 . S
H1580 C1590 0.930 . S
H1581 C1591 0.930 . S
C1582 H1576 0.930 . S
C1582 C1583 1.355 1_565 S
C1582 C1584 1.415 . S
C1583 C1582 1.355 1_545 S
C1583 C1585 1.419 . S
C1584 C1582 1.415 . S
C1584 C1589 1.425 1_565 S
C1584 C1591 1.409 . S
C1585 H1577 0.930 . S
C1585 C1583 1.419 . S
C1585 C1586 1.362 . S
C1586 H1578 0.930 . S
C1586 C1585 1.362 . S
C1586 C1589 1.409 . S
C1587 H1579 0.930 . S
C1587 C1588 1.355 1_545 S
C1587 C1589 1.415 . S
C1588 C1587 1.355 1_565 S
C1588 C1590 1.419 . S
C1589 C1584 1.425 1_545 S
C1589 C1586 1.409 . S
C1589 C1587 1.415 . S
C1590 H1580 0.930 . S
C1590 C1588 1.419 . S
C1590 C1591 1.362 . S
C1591 H1581 0.930 . S
C1591 C1584 1.409 . S
C1591 C1590 1.362 . S
H1592 C1598 0.930 . S
H1593 C1601 0.930 . S
H1594 C1602 0.930 . S
H1595 C1603 0.930 . S
H1596 C1606 0.930 . S
H1597 C1607 0.930 . S
C1598 H1592 0.930 . S
C1598 C1599 1.355 . S
C1598 C1600 1.415 . S
C1599 C1598 1.355 . S
C1599 C1601 1.419 . S
C1600 C1598 1.415 . S
C1600 C1605 1.425 1_554 S
C1600 C1607 1.409 1_554 S
C1601 H1593 0.930 . S
C1601 C1599 1.419 . S
C1601 C1602 1.362 . S
C1602 H1594 0.930 . S
C1602 C1601 1.362 . S
C1602 C1605 1.409 1_554 S
C1603 H1595 0.930 . S
C1603 C1604 1.355 . S
C1603 C1605 1.415 . S
C1604 C1603 1.355 . S
C1604 C1606 1.419 . S
C1605 C1600 1.425 1_556 S
C1605 C1602 1.409 1_556 S
C1605 C1603 1.415 . S
C1606 H1596 0.930 . S
C1606 C1604 1.419 . S
C1606 C1607 1.362 . S
C1607 H1597 0.930 . S
C1607 C1600 1.409 1_556 S
C1607 C1606 1.362 . S
H1608 C1614 0.930 . S
H1609 C1617 0.930 . S
H1610 C1618 0.930 . S
H1611 C1619 0.930 . S
H1612 C1622 0.930 . S
H1613 C1623 0.930 . S
C1614 H1608 0.930 . S
C1614 C1615 1.355 . S
C1614 C1616 1.415 . S
C1615 C1614 1.355 . S
C1615 C1617 1.419 . S
C1616 C1614 1.415 . S
C1616 C1621 1.425 . S
C1616 C1623 1.409 . S
C1617 H1609 0.930 . S
C1617 C1615 1.419 . S
C1617 C1618 1.362 . S
C1618 H1610 0.930 . S
C1618 C1617 1.362 . S
C1618 C1621 1.409 . S
C1619 H1611 0.930 . S
C1619 C1620 1.355 . S
C1619 C1621 1.415 . S
C1620 C1619 1.355 . S
C1620 C1622 1.419 . S
C1621 C1616 1.425 . S
C1621 C1618 1.409 . S
C1621 C1619 1.415 . S
C1622 H1612 0.930 . S
C1622 C1620 1.419 . S
C1622 C1623 1.362 . S
C1623 H1613 0.930 . S
C1623 C1616 1.409 . S
C1623 C1622 1.362 . S
H1624 C1630 0.930 . S
H1625 C1633 0.930 . S
H1626 C1634 0.930 . S
H1627 C1635 0.930 . S
H1628 C1638 0.930 . S
H1629 C1639 0.930 . S
C1630 H1624 0.930 . S
C1630 C1631 1.355 . S
C1630 C1632 1.415 . S
C1631 C1630 1.355 . S
C1631 C1633 1.419 . S
C1632 C1630 1.415 . S
C1632 C1637 1.425 1_554 S
C1632 C1639 1.409 1_554 S
C1633 H1625 0.930 . S
C1633 C1631 1.419 . S
C1633 C1634 1.362 . S
C1634 H1626 0.930 . S
C1634 C1633 1.362 . S
C1634 C1637 1.409 1_554 S
C1635 H1627 0.930 . S
C1635 C1636 1.355 . S
C1635 C1637 1.415 . S
C1636 C1635 1.355 . S
C1636 C1638 1.419 . S
C1637 C1632 1.425 1_556 S
C1637 C1634 1.409 1_556 S
C1637 C1635 1.415 . S
C1638 H1628 0.930 . S
C1638 C1636 1.419 . S
C1638 C1639 1.362 . S
C1639 H1629 0.930 . S
C1639 C1632 1.409 1_556 S
C1639 C1638 1.362 . S
H1640 C1646 0.930 . S
H1641 C1649 0.930 . S
H1642 C1650 0.930 . S
H1643 C1651 0.930 . S
H1644 C1654 0.930 . S
H1645 C1655 0.930 . S
C1646 H1640 0.930 . S
C1646 C1647 1.355 1_565 S
C1646 C1648 1.415 . S
C1647 C1646 1.355 1_545 S
C1647 C1649 1.419 . S
C1648 C1646 1.415 . S
C1648 C1653 1.425 1_565 S
C1648 C1655 1.409 . S
C1649 H1641 0.930 . S
C1649 C1647 1.419 . S
C1649 C1650 1.362 . S
C1650 H1642 0.930 . S
C1650 C1649 1.362 . S
C1650 C1653 1.409 . S
C1651 H1643 0.930 . S
C1651 C1652 1.355 1_545 S
C1651 C1653 1.415 . S
C1652 C1651 1.355 1_565 S
C1652 C1654 1.419 . S
C1653 C1648 1.425 1_545 S
C1653 C1650 1.409 . S
C1653 C1651 1.415 . S
C1654 H1644 0.930 . S
C1654 C1652 1.419 . S
C1654 C1655 1.362 . S
C1655 H1645 0.930 . S
C1655 C1648 1.409 . S
C1655 C1654 1.362 . S
H1656 C1662 0.930 1_554 S
H1657 C1665 0.930 . S
H1658 C1666 0.930 . S
H1659 C1667 0.930 . S
H1660 C1670 0.930 . S
H1661 C1671 0.930 . S
C1662 H1656 0.930 1_556 S
C1662 C1663 1.355 . S
C1662 C1664 1.415 . S
C1663 C1662 1.355 . S
C1663 C1665 1.419 . S
C1664 C1662 1.415 . S
C1664 C1669 1.425 . S
C1664 C1671 1.409 1_556 S
C1665 H1657 0.930 . S
C1665 C1663 1.419 . S
C1665 C1666 1.362 . S
C1666 H1658 0.930 . S
C1666 C1665 1.362 . S
C1666 C1669 1.409 . S
C1667 H1659 0.930 . S
C1667 C1668 1.355 . S
C1667 C1669 1.415 . S
C1668 C1667 1.355 . S
C1668 C1670 1.419 1_556 S
C1669 C1664 1.425 . S
C1669 C1666 1.409 . S
C1669 C1667 1.415 . S
C1670 H1660 0.930 . S
C1670 C1668 1.419 1_554 S
C1670 C1671 1.362 . S
C1671 H1661 0.930 . S
C1671 C1664 1.409 1_554 S
C1671 C1670 1.362 . S
H1672 C1678 0.930 . S
H1673 C1681 0.930 . S
H1674 C1682 0.930 . S
H1675 C1683 0.930 . S
H1676 C1686 0.930 . S
H1677 C1687 0.930 . S
C1678 H1672 0.930 . S
C1678 C1679 1.355 . S
C1678 C1680 1.415 . S
C1679 C1678 1.355 . S
C1679 C1681 1.419 . S
C1680 C1678 1.415 . S
C1680 C1685 1.425 . S
C1680 C1687 1.409 . S
C1681 H1673 0.930 . S
C1681 C1679 1.419 . S
C1681 C1682 1.362 . S
C1682 H1674 0.930 . S
C1682 C1681 1.362 . S
C1682 C1685 1.409 . S
C1683 H1675 0.930 . S
C1683 C1684 1.355 . S
C1683 C1685 1.415 . S
C1684 C1683 1.355 . S
C1684 C1686 1.419 . S
C1685 C1680 1.425 . S
C1685 C1682 1.409 . S
C1685 C1683 1.415 . S
C1686 H1676 0.930 . S
C1686 C1684 1.419 . S
C1686 C1687 1.362 . S
C1687 H1677 0.930 . S
C1687 C1680 1.409 . S
C1687 C1686 1.362 . S
H1688 C1694 0.930 . S
H1689 C1697 0.930 . S
H1690 C1698 0.930 . S
H1691 C1699 0.930 . S
H1692 C1702 0.930 . S
H1693 C1703 0.930 . S
C1694 H1688 0.930 . S
C1694 C1695 1.355 1_455 S
C1694 C1696 1.415 . S
C1695 C1694 1.355 1_655 S
C1695 C1697 1.419 . S
C1696 C1694 1.415 . S
C1696 C1701 1.425 1_455 S
C1696 C1703 1.409 . S
C1697 H1689 0.930 . S
C1697 C1695 1.419 . S
C1697 C1698 1.362 . S
C1698 H1690 0.930 . S
C1698 C1697 1.362 . S
C1698 C1701 1.409 . S
C1699 H1691 0.930 . S
C1699 C1700 1.355 1_655 S
C1699 C1701 1.415 . S
C1700 C1699 1.355 1_455 S
C1700 C1702 1.419 . S
C1701 C1696 1.425 1_655 S
C1701 C1698 1.409 . S
C1701 C1699 1.415 . S
C1702 H1692 0.930 . S
C1702 C1700 1.419 . S
C1702 C1703 1.362 . S
C1703 H1693 0.930 . S
C1703 C1696 1.409 . S
C1703 C1702 1.362 . S
H1704 C1710 0.930 . S
H1705 C1713 0.930 . S
H1706 C1714 0.930 . S
H1707 C1715 0.930 . S
H1708 C1718 0.930 . S
H1709 C1719 0.930 . S
C1710 H1704 0.930 . S
C1710 C1711 1.355 . S
C1710 C1712 1.415 . S
C1711 C1710 1.355 . S
C1711 C1713 1.419 . S
C1712 C1710 1.415 . S
C1712 C1717 1.425 . S
C1712 C1719 1.409 . S
C1713 H1705 0.930 . S
C1713 C1711 1.419 . S
C1713 C1714 1.362 . S
C1714 H1706 0.930 . S
C1714 C1713 1.362 . S
C1714 C1717 1.409 . S
C1715 H1707 0.930 . S
C1715 C1716 1.355 . S
C1715 C1717 1.415 . S
C1716 C1715 1.355 . S
C1716 C1718 1.419 . S
C1717 C1712 1.425 . S
C1717 C1714 1.409 . S
C1717 C1715 1.415 . S
C1718 H1708 0.930 . S
C1718 C1716 1.419 . S
C1718 C1719 1.362 . S
C1719 H1709 0.930 . S
C1719 C1712 1.409 . S
C1719 C1718 1.362 . S
H1720 C1726 0.930 . S
H1721 C1729 0.930 . S
H1722 C1730 0.930 . S
H1723 C1731 0.930 . S
H1724 C1734 0.930 . S
H1725 C1735 0.930 . S
C1726 H1720 0.930 . S
C1726 C1727 1.355 . S
C1726 C1728 1.415 . S
C1727 C1726 1.355 . S
C1727 C1729 1.419 . S
C1728 C1726 1.415 . S
C1728 C1733 1.425 1_655 S
C1728 C1735 1.409 1_655 S
C1729 H1721 0.930 . S
C1729 C1727 1.419 . S
C1729 C1730 1.362 . S
C1730 H1722 0.930 . S
C1730 C1729 1.362 . S
C1730 C1733 1.409 1_655 S
C1731 H1723 0.930 . S
C1731 C1732 1.355 . S
C1731 C1733 1.415 . S
C1732 C1731 1.355 . S
C1732 C1734 1.419 . S
C1733 C1728 1.425 1_455 S
C1733 C1730 1.409 1_455 S
C1733 C1731 1.415 . S
C1734 H1724 0.930 . S
C1734 C1732 1.419 . S
C1734 C1735 1.362 . S
C1735 H1725 0.930 . S
C1735 C1728 1.409 1_455 S
C1735 C1734 1.362 . S
H1736 C1742 0.930 . S
H1737 C1745 0.930 . S
H1738 C1746 0.930 . S
H1739 C1747 0.930 . S
H1740 C1750 0.930 . S
H1741 C1751 0.930 . S
C1742 H1736 0.930 . S
C1742 C1743 1.355 1_655 S
C1742 C1744 1.415 . S
C1743 C1742 1.355 1_455 S
C1743 C1745 1.419 . S
C1744 C1742 1.415 . S
C1744 C1749 1.425 1_655 S
C1744 C1751 1.409 . S
C1745 H1737 0.930 . S
C1745 C1743 1.419 . S
C1745 C1746 1.362 . S
C1746 H1738 0.930 . S
C1746 C1745 1.362 . S
C1746 C1749 1.409 . S
C1747 H1739 0.930 . S
C1747 C1748 1.355 1_455 S
C1747 C1749 1.415 . S
C1748 C1747 1.355 1_655 S
C1748 C1750 1.419 . S
C1749 C1744 1.425 1_455 S
C1749 C1746 1.409 . S
C1749 C1747 1.415 . S
C1750 H1740 0.930 . S
C1750 C1748 1.419 . S
C1750 C1751 1.362 . S
C1751 H1741 0.930 . S
C1751 C1744 1.409 . S
C1751 C1750 1.362 . S
H1752 C1758 0.930 . S
H1753 C1761 0.930 . S
H1754 C1762 0.930 . S
H1755 C1763 0.930 . S
H1756 C1766 0.930 . S
H1757 C1767 0.930 . S
C1758 H1752 0.930 . S
C1758 C1759 1.355 . S
C1758 C1760 1.415 . S
C1759 C1758 1.355 . S
C1759 C1761 1.419 . S
C1760 C1758 1.415 . S
C1760 C1765 1.425 1_545 S
C1760 C1767 1.409 1_545 S
C1761 H1753 0.930 . S
C1761 C1759 1.419 . S
C1761 C1762 1.362 . S
C1762 H1754 0.930 . S
C1762 C1761 1.362 . S
C1762 C1765 1.409 1_545 S
C1763 H1755 0.930 . S
C1763 C1764 1.355 . S
C1763 C1765 1.415 . S
C1764 C1763 1.355 . S
C1764 C1766 1.419 . S
C1765 C1760 1.425 1_565 S
C1765 C1762 1.409 1_565 S
C1765 C1763 1.415 . S
C1766 H1756 0.930 . S
C1766 C1764 1.419 . S
C1766 C1767 1.362 . S
C1767 H1757 0.930 . S
C1767 C1760 1.409 1_565 S
C1767 C1766 1.362 . S
H1768 C1774 0.930 . S
H1769 C1777 0.930 . S
H1770 C1778 0.930 . S
H1771 C1779 0.930 . S
H1772 C1782 0.930 . S
H1773 C1783 0.930 . S
C1774 H1768 0.930 . S
C1774 C1775 1.355 . S
C1774 C1776 1.415 . S
C1775 C1774 1.355 . S
C1775 C1777 1.419 . S
C1776 C1774 1.415 . S
C1776 C1781 1.425 . S
C1776 C1783 1.409 . S
C1777 H1769 0.930 . S
C1777 C1775 1.419 . S
C1777 C1778 1.362 . S
C1778 H1770 0.930 . S
C1778 C1777 1.362 . S
C1778 C1781 1.409 . S
C1779 H1771 0.930 . S
C1779 C1780 1.355 . S
C1779 C1781 1.415 . S
C1780 C1779 1.355 . S
C1780 C1782 1.419 . S
C1781 C1776 1.425 . S
C1781 C1778 1.409 . S
C1781 C1779 1.415 . S
C1782 H1772 0.930 . S
C1782 C1780 1.419 . S
C1782 C1783 1.362 . S
C1783 H1773 0.930 . S
C1783 C1776 1.409 . S
C1783 C1782 1.362 . S
H1784 C1790 0.930 . S
H1785 C1793 0.930 . S
H1786 C1794 0.930 . S
H1787 C1795 0.930 . S
H1788 C1798 0.930 . S
H1789 C1799 0.930 . S
C1790 H1784 0.930 . S
C1790 C1791 1.355 . S
C1790 C1792 1.415 . S
C1791 C1790 1.355 . S
C1791 C1793 1.419 . S
C1792 C1790 1.415 . S
C1792 C1797 1.425 . S
C1792 C1799 1.409 . S
C1793 H1785 0.930 . S
C1793 C1791 1.419 . S
C1793 C1794 1.362 . S
C1794 H1786 0.930 . S
C1794 C1793 1.362 . S
C1794 C1797 1.409 . S
C1795 H1787 0.930 . S
C1795 C1796 1.355 . S
C1795 C1797 1.415 . S
C1796 C1795 1.355 . S
C1796 C1798 1.419 . S
C1797 C1792 1.425 . S
C1797 C1794 1.409 . S
C1797 C1795 1.415 . S
C1798 H1788 0.930 . S
C1798 C1796 1.419 . S
C1798 C1799 1.362 . S
C1799 H1789 0.930 . S
C1799 C1792 1.409 . S
C1799 C1798 1.362 . S
H1800 C1806 0.930 . S
H1801 C1809 0.930 . S
H1802 C1810 0.930 . S
H1803 C1811 0.930 . S
H1804 C1814 0.930 . S
H1805 C1815 0.930 . S
C1806 H1800 0.930 . S
C1806 C1807 1.355 . S
C1806 C1808 1.415 . S
C1807 C1806 1.355 . S
C1807 C1809 1.419 . S
C1808 C1806 1.415 . S
C1808 C1813 1.425 . S
C1808 C1815 1.409 . S
C1809 H1801 0.930 . S
C1809 C1807 1.419 . S
C1809 C1810 1.362 . S
C1810 H1802 0.930 . S
C1810 C1809 1.362 . S
C1810 C1813 1.409 . S
C1811 H1803 0.930 . S
C1811 C1812 1.355 . S
C1811 C1813 1.415 . S
C1812 C1811 1.355 . S
C1812 C1814 1.419 . S
C1813 C1808 1.425 . S
C1813 C1810 1.409 . S
C1813 C1811 1.415 . S
C1814 H1804 0.930 . S
C1814 C1812 1.419 . S
C1814 C1815 1.362 . S
C1815 H1805 0.930 . S
C1815 C1808 1.409 . S
C1815 C1814 1.362 . S
H1816 C1822 0.930 . S
H1817 C1825 0.930 . S
H1818 C1826 0.930 . S
H1819 C1827 0.930 . S
H1820 C1830 0.930 . S
H1821 C1831 0.930 . S
C1822 H1816 0.930 . S
C1822 C1823 1.355 . S
C1822 C1824 1.415 . S
C1823 C1822 1.355 . S
C1823 C1825 1.419 . S
C1824 C1822 1.415 . S
C1824 C1829 1.425 1_455 S
C1824 C1831 1.409 1_455 S
C1825 H1817 0.930 . S
C1825 C1823 1.419 . S
C1825 C1826 1.362 . S
C1826 H1818 0.930 . S
C1826 C1825 1.362 . S
C1826 C1829 1.409 1_455 S
C1827 H1819 0.930 . S
C1827 C1828 1.355 . S
C1827 C1829 1.415 . S
C1828 C1827 1.355 . S
C1828 C1830 1.419 . S
C1829 C1824 1.425 1_655 S
C1829 C1826 1.409 1_655 S
C1829 C1827 1.415 . S
C1830 H1820 0.930 . S
C1830 C1828 1.419 . S
C1830 C1831 1.362 . S
C1831 H1821 0.930 . S
C1831 C1824 1.409 1_655 S
C1831 C1830 1.362 . S
H1832 C1838 0.930 . S
H1833 C1841 0.930 . S
H1834 C1842 0.930 . S
H1835 C1843 0.930 . S
H1836 C1846 0.930 . S
H1837 C1847 0.930 . S
C1838 H1832 0.930 . S
C1838 C1839 1.355 . S
C1838 C1840 1.415 . S
C1839 C1838 1.355 . S
C1839 C1841 1.419 . S
C1840 C1838 1.415 . S
C1840 C1845 1.425 . S
C1840 C1847 1.409 . S
C1841 H1833 0.930 . S
C1841 C1839 1.419 . S
C1841 C1842 1.362 . S
C1842 H1834 0.930 . S
C1842 C1841 1.362 . S
C1842 C1845 1.409 . S
C1843 H1835 0.930 . S
C1843 C1844 1.355 . S
C1843 C1845 1.415 . S
C1844 C1843 1.355 . S
C1844 C1846 1.419 . S
C1845 C1840 1.425 . S
C1845 C1842 1.409 . S
C1845 C1843 1.415 . S
C1846 H1836 0.930 . S
C1846 C1844 1.419 . S
C1846 C1847 1.362 . S
C1847 H1837 0.930 . S
C1847 C1840 1.409 . S
C1847 C1846 1.362 . S
C703 C283 1.010 . S
C708 C48 1.029 . S
C719 C343 1.026 . S
C724 C112 1.025 . S
C735 C47 0.935 . S
C740 C399 0.937 . S
C751 C231 0.948 . S
C756 C114 0.942 . S
C767 C456 1.045 . S
C772 C172 1.051 . S
C783 C164 1.039 . S
C788 C520 1.047 . S
C799 C170 1.053 . S
C804 C572 1.046 . S
C815 C632 0.926 . S
C820 C163 0.950 . S
C831 C50 0.920 . S
C836 C225 0.934 . S
C847 C110 0.988 . S
C852 C286 0.973 . S
C863 C344 1.003 . S
C868 C51 0.977 . S
C879 C111 1.042 . S
C884 C396 1.053 . S
C895 C167 0.919 . S
C900 C226 0.934 . S
C911 C288 0.937 . S
C916 C169 0.941 . S
C927 C346 0.986 . S
C932 C166 0.959 . S
C943 C395 1.050 . S
C948 C168 1.053 . S
C959 C279 0.938 . S
C964 C229 0.915 . S
C975 C460 0.955 . S
C980 C228 0.932 . S
C991 C510 1.058 . S
C996 C285 1.047 . S
C1007 C341 0.920 . S
C1012 C570 0.939 . S
C1023 C458 0.958 . S
C1028 C337 0.987 . S
C1039 C630 1.039 . S
C1044 C462 1.053 . S
C1055 C512 1.051 . S
C1060 C459 1.051 . S
C1071 C628 1.053 . S
C1076 C574 1.045 . S
C1087 C573 1.006 . S
C1092 C106 1.030 . S
C1103 C54 1.043 . S
C1108 C633 1.047 . S
C1119 C105 0.935 . S
C1124 C457 0.940 . S
C1135 C56 0.938 . S
C1140 C521 0.945 . S
C1151 C398 0.935 . S
C1156 C694 0.935 . S
C1167 C686 0.953 . S
C1172 C230 0.965 . S
C1183 C282 1.005 . S
C1188 C692 1.032 . S
C1199 C342 0.989 . S
C1204 C685 1.016 . S
C1215 C515 0.969 . S
C1220 C108 0.985 . S
C1231 C52 1.051 . S
C1236 C576 1.053 . S
C1247 C634 1.002 . S
C1252 C109 1.020 . S
C1263 C454 0.943 . S
C1268 C53 0.920 . S
C1279 C689 1.023 . S
C1284 C516 1.042 . S
C1295 C691 1.001 . S
C1300 C578 1.006 . S
C1311 C636 0.986 . S
C1316 C688 0.955 . S
C1327 C453 1.046 . S
C1332 C690 1.029 . S
C1343 C569 1.042 . S
C1348 C519 1.049 . S
C1359 C402 1.033 . S
C1364 C518 1.045 . S
C1375 C220 0.930 . S
C1380 C575 0.931 . S
C1391 C631 0.927 . S
C1396 C280 0.929 . S
C1407 C400 0.949 . S
C1412 C627 0.942 . S
C1423 C340 0.976 . S
C1428 C404 1.002 . S
C1439 C401 0.923 . S
C1444 C222 0.926 . S
C1455 C338 1.053 . S
C1460 C284 1.049 . S
C1471 C162 2.669 . S
C1476 C55 2.660 . S
C1487 C104 2.676 . S
C1492 C173 2.671 . S
C1503 C57 2.660 . S
C1508 C165 2.669 . S
C1519 C107 2.673 . S
C1524 C171 2.675 . S
C1535 C223 2.670 . S
C1540 C626 2.661 . S
C1551 C278 2.680 . S
C1556 C461 2.682 . S
C1567 C511 2.672 . S
C1572 C339 2.663 . S
C1583 C405 2.648 . S
C1588 C571 2.642 . S
C1599 C221 2.680 . S
C1604 C629 2.678 . S
C1615 C463 2.631 . S
C1620 C281 2.625 . S
C1631 C336 2.680 . S
C1636 C513 2.676 . S
C1647 C403 2.630 . S
C1652 C568 2.625 . S
C1663 C394 2.633 . S
C1668 C289 2.629 . S
C1679 C577 2.678 . S
C1684 C455 2.680 . S
C1695 C514 2.631 . S
C1700 C635 2.634 . S
C1711 C345 2.667 . S
C1716 C224 2.678 . S
C1727 C579 2.678 . S
C1732 C452 2.680 . S
C1743 C637 2.645 . S
C1748 C517 2.639 . S
C1759 C684 2.630 . S
C1764 C113 2.636 . S
C1775 C46 2.680 . S
C1780 C695 2.673 . S
C1791 C115 2.653 . S
C1796 C687 2.643 . S
C1807 C693 2.659 . S
C1812 C49 2.651 . S
C1823 C287 2.680 . S
C1828 C397 2.678 . S
C1839 C227 2.667 . S
C1844 C347 2.671 . S
