# Generated by pormake.
# Topology zff, (5)-cn, num edge types: 1
# Building blocks:
#     Node 0, Type 0, BuildingBlock: XOMCOT_clean_sbu_0, # of connection points: 5
#     Node 1, Type 0, BuildingBlock: XOMCOT_clean_sbu_0, # of connection points: 5
#     Node 2, Type 0, BuildingBlock: XOMCOT_clean_sbu_0, # of connection points: 5
#     Node 3, Type 0, BuildingBlock: XOMCOT_clean_sbu_0, # of connection points: 5
#     Node 4, Type 0, BuildingBlock: XOMCOT_clean_sbu_0, # of connection points: 5
#     Node 5, Type 0, BuildingBlock: XOMCOT_clean_sbu_0, # of connection points: 5
#     Node 6, Type 0, BuildingBlock: XOMCOT_clean_sbu_0, # of connection points: 5
#     Node 7, Type 0, BuildingBlock: XOMCOT_clean_sbu_0, # of connection points: 5
#     Node 8, Type 0, BuildingBlock: XOMCOT_clean_sbu_0, # of connection points: 5
#     Node 9, Type 0, BuildingBlock: XOMCOT_clean_sbu_0, # of connection points: 5
#     Node 10, Type 0, BuildingBlock: XOMCOT_clean_sbu_0, # of connection points: 5
#     Node 11, Type 0, BuildingBlock: XOMCOT_clean_sbu_0, # of connection points: 5
#     Node 12, Type 0, BuildingBlock: XOMCOT_clean_sbu_0, # of connection points: 5
#     Node 13, Type 0, BuildingBlock: XOMCOT_clean_sbu_0, # of connection points: 5
#     Node 14, Type 0, BuildingBlock: XOMCOT_clean_sbu_0, # of connection points: 5
#     Node 15, Type 0, BuildingBlock: XOMCOT_clean_sbu_0, # of connection points: 5
#     Edge 16, Type (0, 0), BuildingBlock: TEMPAE_clean_linker_10, # of connection points: 2
#     Edge 17, Type (0, 0), BuildingBlock: TEMPAE_clean_linker_10, # of connection points: 2
#     Edge 18, Type (0, 0), BuildingBlock: TEMPAE_clean_linker_10, # of connection points: 2
#     Edge 19, Type (0, 0), BuildingBlock: TEMPAE_clean_linker_10, # of connection points: 2
#     Edge 20, Type (0, 0), BuildingBlock: TEMPAE_clean_linker_10, # of connection points: 2
#     Edge 21, Type (0, 0), BuildingBlock: TEMPAE_clean_linker_10, # of connection points: 2
#     Edge 22, Type (0, 0), BuildingBlock: TEMPAE_clean_linker_10, # of connection points: 2
#     Edge 23, Type (0, 0), BuildingBlock: TEMPAE_clean_linker_10, # of connection points: 2
#     Edge 24, Type (0, 0), BuildingBlock: TEMPAE_clean_linker_10, # of connection points: 2
#     Edge 25, Type (0, 0), BuildingBlock: TEMPAE_clean_linker_10, # of connection points: 2
#     Edge 26, Type (0, 0), BuildingBlock: TEMPAE_clean_linker_10, # of connection points: 2
#     Edge 27, Type (0, 0), BuildingBlock: TEMPAE_clean_linker_10, # of connection points: 2
#     Edge 28, Type (0, 0), BuildingBlock: TEMPAE_clean_linker_10, # of connection points: 2
#     Edge 29, Type (0, 0), BuildingBlock: TEMPAE_clean_linker_10, # of connection points: 2
#     Edge 30, Type (0, 0), BuildingBlock: TEMPAE_clean_linker_10, # of connection points: 2
#     Edge 31, Type (0, 0), BuildingBlock: TEMPAE_clean_linker_10, # of connection points: 2
#     Edge 32, Type (0, 0), BuildingBlock: TEMPAE_clean_linker_10, # of connection points: 2
#     Edge 33, Type (0, 0), BuildingBlock: TEMPAE_clean_linker_10, # of connection points: 2
#     Edge 34, Type (0, 0), BuildingBlock: TEMPAE_clean_linker_10, # of connection points: 2
#     Edge 35, Type (0, 0), BuildingBlock: TEMPAE_clean_linker_10, # of connection points: 2
#     Edge 36, Type (0, 0), BuildingBlock: TEMPAE_clean_linker_10, # of connection points: 2
#     Edge 37, Type (0, 0), BuildingBlock: TEMPAE_clean_linker_10, # of connection points: 2
#     Edge 38, Type (0, 0), BuildingBlock: TEMPAE_clean_linker_10, # of connection points: 2
#     Edge 39, Type (0, 0), BuildingBlock: TEMPAE_clean_linker_10, # of connection points: 2
#     Edge 40, Type (0, 0), BuildingBlock: TEMPAE_clean_linker_10, # of connection points: 2
#     Edge 41, Type (0, 0), BuildingBlock: TEMPAE_clean_linker_10, # of connection points: 2
#     Edge 42, Type (0, 0), BuildingBlock: TEMPAE_clean_linker_10, # of connection points: 2
#     Edge 43, Type (0, 0), BuildingBlock: TEMPAE_clean_linker_10, # of connection points: 2
#     Edge 44, Type (0, 0), BuildingBlock: TEMPAE_clean_linker_10, # of connection points: 2
#     Edge 45, Type (0, 0), BuildingBlock: TEMPAE_clean_linker_10, # of connection points: 2
#     Edge 46, Type (0, 0), BuildingBlock: TEMPAE_clean_linker_10, # of connection points: 2
#     Edge 47, Type (0, 0), BuildingBlock: TEMPAE_clean_linker_10, # of connection points: 2
#     Edge 48, Type (0, 0), BuildingBlock: TEMPAE_clean_linker_10, # of connection points: 2
#     Edge 49, Type (0, 0), BuildingBlock: TEMPAE_clean_linker_10, # of connection points: 2
#     Edge 50, Type (0, 0), BuildingBlock: TEMPAE_clean_linker_10, # of connection points: 2
#     Edge 51, Type (0, 0), BuildingBlock: TEMPAE_clean_linker_10, # of connection points: 2
#     Edge 52, Type (0, 0), BuildingBlock: TEMPAE_clean_linker_10, # of connection points: 2
#     Edge 53, Type (0, 0), BuildingBlock: TEMPAE_clean_linker_10, # of connection points: 2
#     Edge 54, Type (0, 0), BuildingBlock: TEMPAE_clean_linker_10, # of connection points: 2
#     Edge 55, Type (0, 0), BuildingBlock: TEMPAE_clean_linker_10, # of connection points: 2
# Relax obj value: 0.156
# Max RMSD: 0.225
# Mean RMSD: 0.225
data_MOF--net-zff--node1-XOMCOT_clean_sbu_0--edge1-TEMPAE_clean_linker_10
_symmetry_space_group_name_H-M    P1
_symmetry_Int_Tables_number       1
_symmetry_cell_setting            triclinic
loop_
_symmetry_equiv_pos_as_xyz
'x, y, z'
_cell_length_a     37.802379
_cell_length_b     37.810782
_cell_length_c     67.797835
_cell_angle_alpha  90.000812
_cell_angle_beta   90.02999
_cell_angle_gamma 89.971586
loop_
_atom_site_label
_atom_site_type_symbol
_atom_site_fract_x
_atom_site_fract_y
_atom_site_fract_z
_atom_type_partial_charge
Co0 Co 0.0277 0.31824 0.3858 0.0
C1 C 0.04452 0.34546 0.3457 0.0
C2 C 0.98877 0.33713 0.34961 0.0
C3 C 0.99459 0.34943 0.33074 0.0
N4 N 0.02007 0.33443 0.35894 0.0
N5 N 0.02967 0.35464 0.32822 0.0
H6 H 0.0726 0.34631 0.34876 0.0
H7 H 0.96343 0.33083 0.35611 0.0
C8 C 0.98322 0.25276 0.39032 0.0
O9 O 0.00646 0.23905 0.4025 0.0
N10 N 0.03559 0.30247 0.41323 0.0
C11 C 0.06145 0.28112 0.42029 0.0
C12 C 0.05931 0.27952 0.4405 0.0
C13 C 0.01762 0.31282 0.42963 0.0
N14 N 0.03187 0.29949 0.44639 0.0
C15 C 0.0987 0.29385 0.3795 0.0
C16 C 0.08004 0.23193 0.36046 0.0
C17 C 0.11498 0.23624 0.36695 0.0
C18 C 0.1247 0.26861 0.3755 0.0
C19 C 0.05505 0.25787 0.36469 0.0
N20 N 0.06395 0.28663 0.37579 0.0
H21 H 0.10605 0.31772 0.38723 0.0
H22 H 0.02834 0.25399 0.35958 0.0
H23 H 0.08033 0.26645 0.41171 0.0
H24 H 0.99509 0.33046 0.42947 0.0
O25 O 0.05585 0.36 0.39084 0.0
O26 O -0.0023 0.355 0.39528 0.0
O27 O 0.98889 0.28258 0.38215 0.0
C28 C 0.026 0.37428 0.39626 0.0
H29 H 0.97434 0.35474 0.31985 0.0
H30 H 0.07643 0.26442 0.45015 0.0
H31 H 0.07143 0.20781 0.35331 0.0
H32 H 0.1517 0.27354 0.38008 0.0
Co33 Co 0.67374 0.02891 0.39231 0.0
C34 C 0.64558 0.04641 0.35157 0.0
C35 C 0.64486 0.99105 0.35819 0.0
C36 C 0.63057 -0.00405 0.33975 0.0
N37 N 0.65507 0.02253 0.36557 0.0
N38 N 0.63082 0.03084 0.3355 0.0
H39 H 0.64792 0.07459 0.35328 0.0
H40 H 0.64735 0.96608 0.36584 0.0
C41 C 0.72308 0.97947 0.37243 0.0
O42 O 0.72313 0.0008 0.35715 0.0
N43 N 0.69092 0.03497 0.41927 0.0
C44 C 0.70479 0.06481 0.42701 0.0
C45 C 0.70989 0.06019 0.44691 0.0
C46 C 0.68685 0.01289 0.43487 0.0
N47 N 0.69842 0.02771 0.4519 0.0
C48 C 0.69993 0.09604 0.37783 0.0
C49 C 0.77072 0.07871 0.38135 0.0
C50 C 0.76157 0.11259 0.37495 0.0
C51 C 0.72569 0.12148 0.3734 0.0
C52 C 0.74438 0.0546 0.38602 0.0
N53 N 0.7094 0.06261 0.3834 0.0
H54 H 0.67248 0.10384 0.3778 0.0
H55 H 0.75242 0.03018 0.39288 0.0
H56 H 0.70954 0.08906 0.41902 0.0
H57 H 0.67478 0.987 0.4339 0.0
O58 O 0.63464 0.06044 0.39809 0.0
O59 O 0.63506 0.00198 0.40215 0.0
O60 O 0.70638 0.98741 0.38821 0.0
C61 C 0.6182 0.03172 0.40357 0.0
H62 H 0.62076 0.97513 0.33028 0.0
H63 H 0.71955 0.07994 0.45715 0.0
H64 H 0.79812 0.07151 0.38383 0.0
H65 H 0.71769 0.14798 0.36928 0.0
Co66 Co 0.95873 0.6815 0.38763 0.0
C67 C 0.94159 0.65132 0.34811 0.0
C68 C -0.00282 0.66107 0.35172 0.0
C69 C 0.99163 0.64665 0.33332 0.0
N70 N 0.96586 0.66406 0.36098 0.0
N71 N 0.95668 0.64044 0.331 0.0
H72 H 0.91363 0.64946 0.35137 0.0
H73 H 0.0224 0.66861 0.35797 0.0
C74 C -0.00068 0.75029 0.38848 0.0
O75 O 0.97424 0.76626 0.39847 0.0
N76 N 0.95182 0.69881 0.41484 0.0
C77 C 0.928 0.72277 0.4215 0.0
C78 C 0.93033 0.7253 0.44168 0.0
C79 C 0.96889 0.68788 0.43143 0.0
N80 N 0.95597 0.70337 0.44792 0.0
C81 C 0.88644 0.70263 0.38363 0.0
C82 C 0.89933 0.76123 0.36031 0.0
C83 C 0.86556 0.75654 0.36843 0.0
C84 C 0.85877 0.72583 0.37938 0.0
C85 C 0.92621 0.73739 0.36496 0.0
N86 N 0.92014 0.71035 0.37784 0.0
H87 H 0.88139 0.68009 0.393 0.0
H88 H 0.95213 0.74147 0.35871 0.0
H89 H 0.91056 0.7386 0.41255 0.0
H90 H 0.98987 0.66844 0.43163 0.0
O91 O 0.93307 0.63872 0.39385 0.0
O92 O 0.99113 0.64677 0.39715 0.0
O93 O -0.0045 0.71852 0.38265 0.0
C94 C 0.96393 0.62605 0.39875 0.0
H95 H 0.01188 0.64145 0.32242 0.0
H96 H 0.91472 0.74244 0.45106 0.0
H97 H 0.90554 0.78418 0.3514 0.0
H98 H 0.83274 0.7207 0.38541 0.0
Co99 Co 0.31138 0.96619 0.38989 0.0
C100 C 0.33965 0.94803 0.35013 0.0
C101 C 0.33352 0.00404 0.35415 0.0
C102 C 0.34597 -0.00208 0.33537 0.0
N103 N 0.32936 0.9728 0.36335 0.0
N104 N 0.34971 0.96269 0.33276 0.0
H105 H 0.33911 0.91991 0.35306 0.0
H106 H 0.32793 0.02954 0.36066 0.0
C107 C 0.2423 0.00716 0.38886 0.0
O108 O 0.22503 0.98219 0.39818 0.0
N109 N 0.29336 0.95974 0.41699 0.0
C110 C 0.26601 0.93941 0.4231 0.0
C111 C 0.26262 0.94192 0.44322 0.0
C112 C 0.30604 0.97436 0.43389 0.0
N113 N 0.28781 0.96384 0.45006 0.0
C114 C 0.28723 0.89448 0.3871 0.0
C115 C 0.23014 0.90928 0.36291 0.0
C116 C 0.23169 0.87637 0.37244 0.0
C117 C 0.26195 0.86826 0.38361 0.0
C118 C 0.25615 0.93446 0.36665 0.0
N119 N 0.2821 0.92793 0.38014 0.0
H120 H 0.30907 0.88893 0.39691 0.0
H121 H 0.25422 0.95991 0.35952 0.0
H122 H 0.24856 0.92428 0.41378 0.0
H123 H 0.32783 0.9928 0.43447 0.0
O124 O 0.35402 0.94034 0.39657 0.0
O125 O 0.34605 -0.00154 0.39947 0.0
O126 O 0.27479 0.00331 0.38437 0.0
C127 C 0.36669 0.97128 0.4014 0.0
H128 H 0.35222 0.01803 0.32457 0.0
H129 H 0.24313 0.92835 0.45212 0.0
H130 H 0.20784 0.91662 0.35376 0.0
H131 H 0.26501 0.84267 0.39058 0.0
Co132 Co 0.03999 0.67486 0.64951 0.0
C133 C 0.05668 0.66376 0.6918 0.0
C134 C 0.00246 0.67887 0.68765 0.0
C135 C 0.00735 0.66952 0.70713 0.0
N136 N 0.03339 0.67521 0.67802 0.0
N137 N 0.04141 0.65973 0.70972 0.0
H138 H 0.08358 0.65601 0.68843 0.0
H139 H 0.97756 0.68575 0.68079 0.0
C140 C -0.00031 0.74054 0.63807 0.0
O141 O 0.02694 0.75311 0.62829 0.0
N142 N 0.04634 0.67229 0.62072 0.0
C143 C 0.0712 0.6524 0.61158 0.0
C144 C 0.06476 0.6516 0.59168 0.0
C145 C 0.02432 0.68246 0.60587 0.0
N146 N 0.03542 0.67055 0.58807 0.0
C147 C 0.10682 0.71031 0.64211 0.0
C148 C 0.09061 0.7689 0.66484 0.0
C149 C 0.12088 0.76935 0.65308 0.0
C150 C 0.12953 0.73944 0.64194 0.0
C151 C 0.06829 0.73973 0.66418 0.0
N152 N 0.07559 0.71159 0.65218 0.0
H153 H 0.1142 0.68724 0.63385 0.0
H154 H 0.04402 0.74067 0.67257 0.0
H155 H 0.09213 0.63795 0.61886 0.0
H156 H -0.00041 0.69625 0.60797 0.0
O157 O 0.06855 0.63276 0.65276 0.0
O158 O 0.01006 0.63483 0.64813 0.0
O159 O 0.00145 0.71069 0.64672 0.0
C160 C 0.03828 0.61631 0.6515 0.0
H161 H 0.987 0.66871 0.71835 0.0
H162 H 0.08008 0.63756 0.58069 0.0
H163 H 0.08334 0.79163 0.67369 0.0
H164 H 0.15332 0.73882 0.63305 0.0
Co165 Co 0.31377 0.04136 0.65159 0.0
C166 C 0.31959 0.05802 0.69431 0.0
C167 C 0.29582 0.00747 0.68975 0.0
C168 C 0.30351 0.01116 0.70952 0.0
N169 N 0.30516 0.03723 0.68008 0.0
N170 N 0.31882 0.04297 0.71245 0.0
H171 H 0.33342 0.08226 0.69115 0.0
H172 H 0.28736 0.98321 0.68278 0.0
C173 C 0.24467 0.0033 0.65279 0.0
O174 O 0.23212 0.02771 0.66469 0.0
N175 N 0.32434 0.04575 0.62363 0.0
C176 C 0.33912 0.07476 0.61559 0.0
C177 C 0.33994 0.07097 0.59548 0.0
C178 C 0.3165 0.02437 0.60819 0.0
N179 N 0.32551 0.03948 0.59074 0.0
C180 C 0.28045 0.10933 0.66074 0.0
C181 C 0.22773 0.10105 0.6328 0.0
C182 C 0.22522 0.12913 0.64615 0.0
C183 C 0.2527 0.1339 0.65987 0.0
C184 C 0.2557 0.07748 0.63415 0.0
N185 N 0.28043 0.08033 0.64877 0.0
H186 H 0.30145 0.11359 0.67114 0.0
H187 H 0.25618 0.05551 0.624 0.0
H188 H 0.34767 0.09776 0.62379 0.0
H189 H 0.30305 -0.00077 0.60958 0.0
O190 O 0.35791 0.0657 0.65745 0.0
O191 O 0.35017 0.00752 0.65444 0.0
O192 O 0.27585 0.00593 0.6458 0.0
C193 C 0.37103 0.03373 0.65832 0.0
H194 H 0.3008 0.99057 0.72049 0.0
H195 H 0.34995 0.09025 0.58509 0.0
H196 H 0.2073 0.096 0.62196 0.0
H197 H 0.2525 0.15604 0.67 0.0
Co198 Co 0.94748 0.31527 0.64781 0.0
C199 C 0.929 0.32155 0.69041 0.0
C200 C 0.97797 0.29424 0.68664 0.0
C201 C 0.97323 0.30103 0.70645 0.0
N202 N 0.94976 0.30628 0.67641 0.0
N203 N 0.94243 0.31852 0.70886 0.0
H204 H 0.90628 0.3378 0.68705 0.0
H205 H 0.00204 0.28412 0.68021 0.0
C206 C 0.98613 0.24592 0.64879 0.0
O207 O 0.96085 0.23151 0.65938 0.0
N208 N 0.94511 0.32627 0.61973 0.0
C209 C 0.91866 0.34476 0.61123 0.0
C210 C 0.92528 0.34796 0.59139 0.0
C211 C 0.96743 0.31802 0.60475 0.0
N212 N 0.95577 0.33109 0.58728 0.0
C213 C 0.87959 0.28245 0.65635 0.0
C214 C 0.8862 0.23126 0.62741 0.0
C215 C 0.8584 0.22883 0.64089 0.0
C216 C 0.85456 0.25528 0.65521 0.0
C217 C 0.91086 0.25827 0.62933 0.0
N218 N 0.90844 0.28243 0.64426 0.0
H219 H 0.87595 0.3029 0.66714 0.0
H220 H 0.93305 0.25857 0.61932 0.0
H221 H 0.89575 0.35494 0.6189 0.0
H222 H 0.9915 0.30284 0.60651 0.0
O223 O 0.92286 0.35929 0.65333 0.0
O224 O 0.98124 0.35146 0.65147 0.0
O225 O 0.98324 0.27751 0.64248 0.0
C226 C 0.95477 0.37233 0.65482 0.0
H227 H 0.99209 0.29514 0.71799 0.0
H228 H 0.90849 0.36096 0.58066 0.0
H229 H 0.89001 0.21133 0.61612 0.0
H230 H 0.83279 0.25463 0.66559 0.0
Co231 Co 0.67357 0.95006 0.65412 0.0
C232 C 0.66069 0.93623 0.69647 0.0
C233 C 0.68467 0.98713 0.69252 0.0
C234 C 0.67732 0.98245 0.71234 0.0
N235 N 0.67436 0.95799 0.68258 0.0
N236 N 0.66191 0.95058 0.7147 0.0
H237 H 0.64929 0.9106 0.69332 0.0
H238 H 0.69575 0.01062 0.68585 0.0
C239 C 0.73584 0.99334 0.64026 0.0
O240 O 0.74898 0.96635 0.63049 0.0
N241 N 0.67112 0.94151 0.62551 0.0
C242 C 0.65698 0.91242 0.61701 0.0
C243 C 0.65854 0.91549 0.59689 0.0
C244 C 0.67895 0.96302 0.61002 0.0
N245 N 0.67248 0.94718 0.59244 0.0
C246 C 0.70895 0.88229 0.65061 0.0
C247 C 0.77222 0.90561 0.6664 0.0
C248 C 0.77112 0.87256 0.65711 0.0
C249 C 0.73856 0.86024 0.64995 0.0
C250 C 0.74203 0.92667 0.6667 0.0
N251 N 0.7118 0.91614 0.65735 0.0
H252 H 0.68404 0.87216 0.64554 0.0
H253 H 0.74365 0.95243 0.67351 0.0
H254 H 0.64474 0.89069 0.62473 0.0
H255 H 0.68875 0.98974 0.61141 0.0
O256 O 0.63258 0.92 0.65786 0.0
O257 O 0.63225 0.9782 0.65234 0.0
O258 O 0.70738 0.99023 0.65018 0.0
C259 C 0.61487 0.94947 0.6561 0.0
H260 H 0.6815 0.00161 0.72398 0.0
H261 H 0.64908 0.89631 0.58627 0.0
H262 H 0.79658 0.91598 0.6725 0.0
H263 H 0.73614 0.83404 0.64363 0.0
Co264 Co 0.53961 0.80933 0.89265 0.0
C265 C 0.5535 0.8435 0.85341 0.0
C266 C 0.52684 0.79366 0.85087 0.0
C267 C 0.53623 0.8048 0.83229 0.0
N268 N 0.53753 0.81783 0.86425 0.0
N269 N 0.55302 0.83606 0.83387 0.0
H270 H 0.56753 0.86575 0.85963 0.0
H271 H 0.51554 0.76822 0.85441 0.0
C272 C 0.46616 0.78377 0.89582 0.0
O273 O 0.45876 0.81322 0.90516 0.0
N274 N 0.54368 0.80044 0.92101 0.0
C275 C 0.57411 0.78979 0.92956 0.0
C276 C 0.57026 0.7899 0.94961 0.0
C277 C 0.52183 0.80797 0.93636 0.0
N278 N 0.53755 0.80161 0.95405 0.0
C279 C 0.60341 0.77497 0.87924 0.0
C280 C 0.58374 0.70825 0.89198 0.0
C281 C 0.61747 0.71286 0.88388 0.0
C282 C 0.62712 0.74667 0.87712 0.0
C283 C 0.56125 0.737 0.89401 0.0
N284 N 0.57117 0.76987 0.8878 0.0
H285 H 0.61113 0.80114 0.87446 0.0
H286 H 0.53635 0.73288 0.90142 0.0
H287 H 0.59825 0.78341 0.92181 0.0
H288 H 0.49589 0.81953 0.9348 0.0
O289 O 0.57287 0.84832 0.89606 0.0
O290 O 0.51422 0.85171 0.89772 0.0
O291 O 0.4976 0.77718 0.89011 0.0
C292 C 0.54453 0.86721 0.8993 0.0
H293 H 0.53248 0.79023 0.81869 0.0
H294 H 0.59037 0.78213 0.96011 0.0
H295 H 0.5748 0.6826 0.89705 0.0
H296 H 0.65299 0.75142 0.87082 0.0
Co297 Co 0.18586 0.52725 0.88462 0.0
C298 C 0.15645 0.54835 0.84567 0.0
C299 C 0.16228 0.49205 0.84813 0.0
C300 C 0.14842 0.49987 0.82983 0.0
N301 N 0.16744 0.52243 0.85801 0.0
N302 N 0.14483 0.53535 0.82817 0.0
H303 H 0.15737 0.57614 0.84941 0.0
H304 H 0.16791 0.46597 0.8539 0.0
C305 C 0.25491 0.48524 0.88208 0.0
O306 O 0.27417 0.51007 0.89024 0.0
N307 N 0.20434 0.53249 0.91172 0.0
C308 C 0.23358 0.55044 0.91732 0.0
C309 C 0.2366 0.54975 0.93746 0.0
C310 C 0.19004 0.5211 0.92902 0.0
N311 N 0.2091 0.53156 0.94497 0.0
C312 C 0.20913 0.59908 0.88354 0.0
C313 C 0.26611 0.58725 0.85879 0.0
C314 C 0.2636 0.61943 0.86891 0.0
C315 C 0.23366 0.6261 0.88049 0.0
C316 C 0.24069 0.56122 0.86201 0.0
N317 N 0.21462 0.56637 0.87561 0.0
H318 H 0.18753 0.60334 0.8937 0.0
H319 H 0.24309 0.53626 0.85439 0.0
H320 H 0.25201 0.56351 0.9076 0.0
H321 H 0.16582 0.50607 0.93005 0.0
O322 O 0.14291 0.55219 0.89186 0.0
O323 O 0.15185 0.49407 0.8937 0.0
O324 O 0.22224 0.49019 0.87839 0.0
C325 C 0.13067 0.52072 0.89595 0.0
H326 H 0.14101 0.48063 0.81877 0.0
H327 H 0.25787 0.56155 0.94587 0.0
H328 H 0.28843 0.58169 0.84926 0.0
H329 H 0.23075 0.65084 0.88839 0.0
Co330 Co 0.45962 0.16825 0.88983 0.0
C331 C 0.43667 0.13718 0.85167 0.0
C332 C 0.49325 0.14073 0.85362 0.0
C333 C 0.48439 0.12604 0.83564 0.0
N334 N 0.46332 0.14776 0.86362 0.0
N335 N 0.44879 0.12398 0.83439 0.0
H336 H 0.40897 0.13897 0.85557 0.0
H337 H 0.51967 0.14605 0.85899 0.0
C338 C 0.49847 0.23827 0.88414 0.0
O339 O 0.47246 0.25722 0.89134 0.0
N340 N 0.45562 0.1887 0.91658 0.0
C341 C 0.43796 0.21832 0.92187 0.0
C342 C 0.43962 0.22261 0.94193 0.0
C343 C 0.46793 0.17556 0.93399 0.0
N344 N 0.45822 0.19562 0.94969 0.0
C345 C 0.38758 0.19272 0.88968 0.0
C346 C 0.39822 0.24422 0.86129 0.0
C347 C 0.36711 0.24515 0.87255 0.0
C348 C 0.36096 0.21758 0.88604 0.0
C349 C 0.42388 0.21884 0.86534 0.0
N350 N 0.41964 0.19583 0.88064 0.0
H351 H 0.38375 0.173 0.90103 0.0
H352 H 0.44819 0.21915 0.85698 0.0
H353 H 0.42418 0.23604 0.91205 0.0
H354 H 0.48305 0.15143 0.93532 0.0
O355 O 0.4361 0.12526 0.89855 0.0
O356 O 0.49402 0.13568 0.89914 0.0
O357 O 0.49549 0.2049 0.88211 0.0
C358 C 0.46812 0.11403 0.90235 0.0
H359 H 0.50274 0.11819 0.8242 0.0
H360 H 0.4281 0.24431 0.95011 0.0
H361 H 0.40408 0.2644 0.85045 0.0
H362 H 0.33672 0.21643 0.89453 0.0
Co363 Co 0.82244 0.4448 0.89066 0.0
C364 C 0.84543 0.42707 0.84953 0.0
C365 C 0.82588 0.48 0.85131 0.0
C366 C 0.83694 0.47369 0.83224 0.0
N367 N 0.82983 0.45027 0.86211 0.0
N368 N 0.84915 0.44022 0.83106 0.0
H369 H 0.85625 0.40193 0.854 0.0
H370 H 0.81668 0.50511 0.85693 0.0
C371 C 0.75982 0.48795 0.87871 0.0
O372 O 0.75263 0.4643 0.86508 0.0
N373 N 0.81701 0.43854 0.91899 0.0
C374 C 0.8199 0.40683 0.92788 0.0
C375 C 0.81649 0.41118 0.94784 0.0
C376 C 0.81233 0.46211 0.93384 0.0
N377 N 0.81158 0.44584 0.95173 0.0
C378 C 0.79201 0.37847 0.8761 0.0
C379 C 0.72785 0.38855 0.89487 0.0
C380 C 0.73219 0.35921 0.88265 0.0
C381 C 0.76474 0.35389 0.87328 0.0
C382 C 0.75528 0.41264 0.89689 0.0
N383 N 0.78643 0.40846 0.88691 0.0
H384 H 0.81753 0.37275 0.86999 0.0
H385 H 0.75132 0.435 0.90656 0.0
H386 H 0.82463 0.38213 0.92028 0.0
H387 H 0.80951 0.49032 0.9316 0.0
O388 O 0.86541 0.41669 0.89206 0.0
O389 O 0.86133 0.47525 0.89531 0.0
O390 O 0.78573 0.48334 0.89053 0.0
C391 C 0.88077 0.44705 0.89546 0.0
H392 H 0.83626 0.49257 0.82026 0.0
H393 H 0.81839 0.39034 0.95873 0.0
H394 H 0.70318 0.39314 0.90259 0.0
H395 H 0.76923 0.33068 0.86425 0.0
Co396 Co 0.52852 0.17114 0.15241 0.0
C397 C 0.54576 0.14655 0.19378 0.0
C398 C 0.49031 0.14517 0.1873 0.0
C399 C 0.49532 0.13298 0.20623 0.0
N400 N 0.52179 0.15466 0.17956 0.0
N401 N 0.5302 0.13382 0.21032 0.0
H402 H 0.57396 0.14917 0.1922 0.0
H403 H 0.46531 0.14663 0.17958 0.0
C404 C 0.47635 0.22074 0.16998 0.0
O405 O 0.49726 0.22342 0.1854 0.0
N406 N 0.53523 0.18616 0.12517 0.0
C407 C 0.56604 0.19745 0.11738 0.0
C408 C 0.56195 0.20189 0.09742 0.0
C409 C 0.51295 0.18298 0.10959 0.0
N410 N 0.52869 0.19269 0.09244 0.0
C411 C 0.59391 0.20107 0.16708 0.0
C412 C 0.57433 0.27072 0.16111 0.0
C413 C 0.60803 0.2634 0.16847 0.0
C414 C 0.61812 0.2281 0.17122 0.0
C415 C 0.55149 0.2431 0.15675 0.0
N416 N 0.56049 0.20878 0.16068 0.0
H417 H 0.60274 0.174 0.16796 0.0
H418 H 0.5272 0.2495 0.14923 0.0
H419 H 0.59042 0.20096 0.12547 0.0
H420 H 0.48617 0.17306 0.11071 0.0
O421 O 0.56184 0.13299 0.14807 0.0
O422 O 0.50352 0.13077 0.14324 0.0
O423 O 0.48565 0.20244 0.155 0.0
C424 C 0.53403 0.11515 0.14251 0.0
H425 H 0.47495 0.12319 0.21602 0.0
H426 H 0.58245 0.20977 0.08717 0.0
H427 H 0.56638 0.29758 0.1577 0.0
H428 H 0.64464 0.2215 0.17604 0.0
Co429 Co 0.81144 0.52863 0.15196 0.0
C430 C 0.84028 0.54553 0.19171 0.0
C431 C 0.83284 0.4897 0.18766 0.0
C432 C 0.8457 0.49551 0.20641 0.0
N433 N 0.82926 0.52105 0.1785 0.0
N434 N 0.8503 0.53065 0.20904 0.0
H435 H 0.84034 0.57366 0.18878 0.0
H436 H 0.82659 0.46436 0.18114 0.0
C437 C 0.74355 0.48686 0.15025 0.0
O438 O 0.72866 0.51067 0.13891 0.0
N439 N 0.79389 0.53639 0.12482 0.0
C440 C 0.76968 0.56018 0.11846 0.0
C441 C 0.76623 0.5578 0.09835 0.0
C442 C 0.80451 0.51973 0.10804 0.0
N443 N 0.78811 0.53237 0.09168 0.0
C444 C 0.78773 0.60037 0.1571 0.0
C445 C 0.73003 0.58326 0.18029 0.0
C446 C 0.73254 0.61748 0.17249 0.0
C447 C 0.7629 0.62653 0.16167 0.0
C448 C 0.75532 0.5581 0.17532 0.0
N449 N 0.78175 0.56606 0.16237 0.0
H450 H 0.80998 0.60694 0.14778 0.0
H451 H 0.75275 0.53183 0.18136 0.0
H452 H 0.75393 0.57737 0.12757 0.0
H453 H 0.82353 0.49839 0.10775 0.0
O454 O 0.85393 0.55503 0.14581 0.0
O455 O 0.8463 0.49702 0.14203 0.0
O456 O 0.77483 0.49124 0.15681 0.0
C457 C 0.86674 0.5244 0.1405 0.0
H458 H 0.85166 0.47522 0.21716 0.0
H459 H 0.74883 0.57387 0.08939 0.0
H460 H 0.70754 0.57519 0.18909 0.0
H461 H 0.76645 0.65301 0.15592 0.0
Co462 Co 0.46147 0.81087 0.15495 0.0
C463 C 0.44218 0.8427 0.19386 0.0
C464 C 0.49795 0.83311 0.19102 0.0
C465 C 0.49167 0.84797 0.20921 0.0
N466 N 0.46699 0.8297 0.18142 0.0
N467 N 0.45662 0.85405 0.21105 0.0
H468 H 0.41431 0.84419 0.1903 0.0
H469 H 0.52341 0.82546 0.18516 0.0
C470 C 0.49834 0.7393 0.16008 0.0
O471 O 0.47179 0.7208 0.15314 0.0
N472 N 0.4565 0.7919 0.12796 0.0
C473 C 0.43948 0.76212 0.12225 0.0
C474 C 0.4423 0.75814 0.10218 0.0
C475 C 0.46934 0.80557 0.11084 0.0
N476 N 0.46099 0.78548 0.09498 0.0
C477 C 0.38934 0.78885 0.15406 0.0
C478 C 0.39605 0.73666 0.18244 0.0
C479 C 0.36587 0.73746 0.1705 0.0
C480 C 0.36176 0.76488 0.15683 0.0
C481 C 0.42323 0.76079 0.17892 0.0
N482 N 0.42065 0.78436 0.16375 0.0
H483 H 0.38703 0.80873 0.14267 0.0
H484 H 0.44724 0.75908 0.18754 0.0
H485 H 0.42543 0.74416 0.1318 0.0
H486 H 0.48502 0.82938 0.10984 0.0
O487 O 0.43855 0.85445 0.14714 0.0
O488 O 0.49638 0.84328 0.14588 0.0
O489 O 0.49623 0.77276 0.16188 0.0
C490 C 0.47054 0.86535 0.14316 0.0
H491 H 0.51148 0.85344 0.22033 0.0
H492 H 0.431 0.73694 0.0935 0.0
H493 H 0.39972 0.71597 0.19331 0.0
H494 H 0.3385 0.76632 0.14752 0.0
Co495 Co 0.17486 0.46288 0.14778 0.0
C496 C 0.149 0.44571 0.18889 0.0
C497 C 0.15249 0.50133 0.18332 0.0
C498 C 0.13871 0.49642 0.2019 0.0
N499 N 0.15969 0.4696 0.17517 0.0
N500 N 0.13637 0.46139 0.20546 0.0
H501 H 0.14851 0.41755 0.18659 0.0
H502 H 0.15627 0.5265 0.17604 0.0
C503 C 0.22866 0.51048 0.16552 0.0
O504 O 0.23096 0.48832 0.1804 0.0
N505 N 0.18853 0.45609 0.12032 0.0
C506 C 0.19653 0.42457 0.11214 0.0
C507 C 0.20167 0.42894 0.09227 0.0
C508 C 0.18786 0.47921 0.10503 0.0
N509 N 0.19614 0.46318 0.08772 0.0
C510 C 0.20077 0.39484 0.16124 0.0
C511 C 0.27102 0.40921 0.15335 0.0
C512 C 0.26184 0.37529 0.15979 0.0
C513 C 0.22615 0.36822 0.16392 0.0
C514 C 0.24498 0.43454 0.15053 0.0
N515 N 0.21043 0.42791 0.15517 0.0
H516 H 0.17321 0.38805 0.16275 0.0
H517 H 0.25269 0.45891 0.14352 0.0
H518 H 0.19744 0.39966 0.11992 0.0
H519 H 0.18091 0.50687 0.10646 0.0
O520 O 0.13415 0.43274 0.14336 0.0
O521 O 0.13619 0.49122 0.13935 0.0
O522 O 0.20912 0.50334 0.15065 0.0
C523 C 0.11825 0.46208 0.13838 0.0
H524 H 0.13074 0.51721 0.21192 0.0
H525 H 0.20762 0.40819 0.08177 0.0
H526 H 0.29813 0.41604 0.14988 0.0
H527 H 0.21769 0.342 0.16825 0.0
C528 C -0.0033 0.58017 0.41717 0.0
C529 C 0.96918 0.58907 0.40425 0.0
C530 C 0.00705 0.54493 0.41961 0.0
C531 C 0.99012 0.51843 0.40836 0.0
C532 C 0.961 0.52716 0.3961 0.0
C533 C 0.95052 0.56255 0.3944 0.0
C534 C 0.03733 0.53638 0.43334 0.0
C535 C 0.94255 0.49954 0.38372 0.0
C536 C 0.04016 0.43752 0.39143 0.0
C537 C 0.02306 0.41122 0.40227 0.0
C538 C 0.03081 0.47308 0.39394 0.0
C539 C 0.00453 0.48213 0.40798 0.0
C540 C 0.98962 0.45578 0.42018 0.0
C541 C -0.00132 0.42041 0.41693 0.0
C542 C 0.04698 0.50054 0.38052 0.0
C543 C 0.96248 0.46461 0.43575 0.0
H544 H 0.01092 0.60093 0.42485 0.0
H545 H 0.92948 0.56971 0.38428 0.0
H546 H 0.03101 0.51288 0.44249 0.0
H547 H 0.06125 0.52994 0.42457 0.0
H548 H 0.04373 0.55889 0.44325 0.0
H549 H 0.91935 0.51046 0.37569 0.0
H550 H 0.96139 0.48855 0.37275 0.0
H551 H 0.93351 0.4773 0.3931 0.0
H552 H 0.05875 0.43008 0.37997 0.0
H553 H 0.9857 0.39978 0.42537 0.0
H554 H 0.0576 0.52292 0.38927 0.0
H555 H 0.02628 0.51136 0.37058 0.0
H556 H 0.06865 0.48949 0.37132 0.0
H557 H 0.97076 0.48816 0.44436 0.0
H558 H 0.95812 0.44221 0.44608 0.0
H559 H 0.9369 0.47105 0.42857 0.0
C560 C 0.55568 0.04782 0.39786 0.0
C561 C 0.58112 0.0312 0.40957 0.0
C562 C 0.51989 0.03874 0.39973 0.0
C563 C 0.50973 0.0131 0.4139 0.0
C564 C 0.53511 -0.00102 0.42704 0.0
C565 C 0.57072 0.00787 0.42451 0.0
C566 C 0.4935 0.05425 0.38541 0.0
C567 C 0.52513 0.97251 0.44275 0.0
C568 C 0.41102 0.00462 0.42064 0.0
C569 C 0.40331 0.97671 0.40774 0.0
C570 C 0.44594 0.01538 0.42385 0.0
C571 C 0.47348 -0.00163 0.41346 0.0
C572 C 0.46595 0.96879 0.40129 0.0
C573 C 0.43077 0.958 0.39875 0.0
C574 C 0.45307 0.04622 0.43744 0.0
C575 C 0.49475 0.95008 0.38991 0.0
H576 H 0.56405 0.06548 0.38616 0.0
H577 H 0.59071 -0.00487 0.43355 0.0
H578 H 0.48394 0.0332 0.37532 0.0
H579 H 0.47017 0.06475 0.39341 0.0
H580 H 0.50512 0.07586 0.3764 0.0
H581 H 0.54652 0.96908 0.45383 0.0
H582 H 0.50059 0.98078 0.45046 0.0
H583 H 0.51989 0.94649 0.43578 0.0
H584 H 0.38959 0.01891 0.42768 0.0
H585 H 0.42458 0.93664 0.38865 0.0
H586 H 0.45971 0.06993 0.42855 0.0
H587 H 0.47601 0.04059 0.44716 0.0
H588 H 0.42978 0.05258 0.44678 0.0
H589 H 0.50652 0.96855 0.37901 0.0
H590 H 0.48471 0.92648 0.38191 0.0
H591 H 0.51623 0.94163 0.40001 0.0
C592 C 0.99247 0.41498 0.67199 0.0
C593 C 0.96221 0.40867 0.6606 0.0
C594 C 0.00625 0.44899 0.67383 0.0
C595 C 0.98925 0.47707 0.66394 0.0
C596 C 0.95689 0.4713 0.65384 0.0
C597 C 0.94354 0.43682 0.65232 0.0
C598 C 0.04044 0.45429 0.68499 0.0
C599 C 0.93787 0.50102 0.64341 0.0
C600 C 0.01333 0.57205 0.67352 0.0
C601 C 0.03398 0.57952 0.65693 0.0
C602 C -0.00018 0.53817 0.67658 0.0
C603 C 0.00705 0.51161 0.66251 0.0
C604 C 0.02994 0.51857 0.6464 0.0
C605 C 0.04322 0.55281 0.64376 0.0
C606 C 0.97593 0.53158 0.69405 0.0
C607 C 0.03853 0.49051 0.63129 0.0
H608 H 0.00651 0.39291 0.67859 0.0
H609 H 0.9202 0.43161 0.64349 0.0
H610 H 0.06221 0.45924 0.67437 0.0
H611 H 0.03868 0.47771 0.6948 0.0
H612 H 0.0475 0.43082 0.69404 0.0
H613 H 0.91136 0.49284 0.638 0.0
H614 H 0.93468 0.52402 0.65341 0.0
H615 H 0.95385 0.50992 0.63061 0.0
H616 H 0.0061 0.59328 0.68352 0.0
H617 H 0.05874 0.55923 0.63079 0.0
H618 H 0.98296 0.50643 0.7015 0.0
H619 H 0.94819 0.52914 0.68887 0.0
H620 H 0.97725 0.5534 0.705 0.0
H621 H 0.04853 0.46631 0.63868 0.0
H622 H 0.05863 0.49959 0.62047 0.0
H623 H 0.01415 0.48312 0.62316 0.0
C624 C 0.5516 0.94455 0.64784 0.0
C625 C 0.5779 0.95268 0.66151 0.0
C626 C 0.51731 0.95787 0.65035 0.0
C627 C 0.50989 0.97989 0.66679 0.0
C628 C 0.53597 0.98595 0.68131 0.0
C629 C 0.56988 0.97226 0.67843 0.0
C630 C 0.48975 0.95035 0.63478 0.0
C631 C 0.52895 0.009 0.69908 0.0
C632 C 0.43582 0.04454 0.65664 0.0
C633 C 0.40722 0.02578 0.66433 0.0
C634 C 0.47018 0.03084 0.65839 0.0
C635 C 0.47539 -0.00202 0.66809 0.0
C636 C 0.44681 0.9808 0.6774 0.0
C637 C 0.41296 0.99499 0.67538 0.0
C638 C 0.50044 0.05011 0.64864 0.0
C639 C 0.45143 0.94605 0.6881 0.0
H640 H 0.55842 0.92996 0.63461 0.0
H641 H 0.59081 0.97882 0.68876 0.0
H642 H 0.46512 0.94037 0.64172 0.0
H643 H 0.483 0.97519 0.62691 0.0
H644 H 0.49901 0.93062 0.62379 0.0
H645 H 0.55022 0.00664 0.71033 0.0
H646 H 0.52728 0.03704 0.69435 0.0
H647 H 0.50332 0.00209 0.70604 0.0
H648 H 0.43109 0.06831 0.64809 0.0
H649 H 0.39056 0.98086 0.68155 0.0
H650 H 0.50969 0.03475 0.63569 0.0
H651 H 0.52308 0.05254 0.65897 0.0
H652 H 0.49267 0.07697 0.64359 0.0
H653 H 0.45663 0.92477 0.6772 0.0
H654 H 0.42756 0.93877 0.69674 0.0
H655 H 0.47448 0.94713 0.69821 0.0
C656 C 0.55522 0.93031 0.89179 0.0
C657 C 0.54492 0.9043 0.90521 0.0
C658 C 0.54384 0.96539 0.89425 0.0
C659 C 0.52198 0.97415 0.91055 0.0
C660 C 0.51432 0.94841 0.92503 0.0
C661 C 0.52573 0.91364 0.92209 0.0
C662 C 0.55276 0.99232 0.87859 0.0
C663 C 0.49162 0.9568 0.94275 0.0
C664 C 0.50786 0.07182 0.91903 0.0
C665 C 0.47651 0.07777 0.90846 0.0
C666 C 0.52215 0.03784 0.92073 0.0
C667 C 0.5047 0.00929 0.91149 0.0
C668 C 0.47164 0.01477 0.90203 0.0
C669 C 0.45777 0.04914 0.9007 0.0
C670 C 0.55703 0.03296 0.93125 0.0
C671 C 0.45213 0.98474 0.89218 0.0
H672 H 0.56948 0.92275 0.87858 0.0
H673 H 0.51751 0.89313 0.9323 0.0
H674 H 0.52839 -0.00038 0.87041 0.0
H675 H 0.56327 0.0168 0.88545 0.0
H676 H 0.57253 0.98215 0.86787 0.0
H677 H 0.49262 0.93543 0.95399 0.0
H678 H 0.50007 0.98196 0.94972 0.0
H679 H 0.46374 0.96015 0.93797 0.0
H680 H 0.52226 0.0941 0.92512 0.0
H681 H 0.43374 0.0539 0.89237 0.0
H682 H 0.57806 0.02732 0.92028 0.0
H683 H 0.5558 0.01005 0.94145 0.0
H684 H 0.56475 0.05684 0.93978 0.0
H685 H 0.46784 0.97486 0.8795 0.0
H686 H 0.42564 0.99292 0.88673 0.0
H687 H 0.44878 0.96239 0.90261 0.0
C688 C 0.92793 0.47351 0.91539 0.0
C689 C 0.9183 0.45073 0.90002 0.0
C690 C 0.96291 0.48466 0.91763 0.0
C691 C 0.98851 0.47317 0.90389 0.0
C692 C 0.97926 0.44847 0.889 0.0
C693 C 0.94401 0.43723 0.88732 0.0
C694 C 0.97194 0.51031 0.93395 0.0
C695 C 0.00605 0.43573 0.8741 0.0
C696 C 0.06646 0.53239 0.89221 0.0
C697 C 0.09388 0.51391 0.90141 0.0
C698 C 0.03159 0.51993 0.89339 0.0
C699 C 0.02437 0.48875 0.90429 0.0
C700 C 0.0517 0.47166 0.91483 0.0
C701 C 0.08628 0.48433 0.91311 0.0
C702 C 0.00292 0.53884 0.88201 0.0
C703 C 0.04482 0.43891 0.92698 0.0
H704 H 0.90769 0.48381 0.92518 0.0
H705 H 0.93614 0.42 0.87531 0.0
H706 H -0.00396 0.50157 0.94193 0.0
H707 H 0.97766 0.53669 0.92753 0.0
H708 H 0.95001 0.5132 0.94474 0.0
H709 H 0.99514 0.4149 0.86428 0.0
H710 H 0.01486 0.4583 0.86487 0.0
H711 H 0.02977 0.42508 0.8817 0.0
H712 H 0.07259 0.55498 0.88297 0.0
H713 H 0.10769 0.47015 0.92026 0.0
H714 H 0.9804 0.54527 0.89186 0.0
H715 H 0.99269 0.52125 0.87021 0.0
H716 H 0.01258 0.56369 0.87513 0.0
H717 H 0.02187 0.44305 0.93691 0.0
H718 H 0.06812 0.43131 0.93604 0.0
H719 H 0.0382 0.41652 0.91708 0.0
C720 C 0.50883 0.90801 0.1257 0.0
C721 C 0.47843 0.90155 0.13696 0.0
C722 C 0.52115 0.94249 0.12281 0.0
C723 C 0.503 0.97083 0.13183 0.0
C724 C 0.47112 0.96457 0.14229 0.0
C725 C 0.45894 0.92982 0.14454 0.0
C726 C 0.55457 0.94831 0.11106 0.0
C727 C 0.45112 0.99428 0.15216 0.0
C728 C 0.54982 0.05309 0.14941 0.0
C729 C 0.53541 0.07814 0.13661 0.0
C730 C 0.54126 0.01724 0.14726 0.0
C731 C 0.51845 0.00672 0.13172 0.0
C732 C 0.50703 0.03167 0.11757 0.0
C733 C 0.51528 0.06735 0.12037 0.0
C734 C 0.55381 0.99129 0.16268 0.0
C735 C 0.48365 0.02127 0.10047 0.0
H736 H 0.52371 0.88595 0.11972 0.0
H737 H 0.4356 0.92461 0.15337 0.0
H738 H 0.5513 0.97081 0.10071 0.0
H739 H 0.57657 0.95504 0.12122 0.0
H740 H 0.56222 0.92443 0.10252 0.0
H741 H 0.42603 0.98511 0.15898 0.0
H742 H 0.46785 0.00629 0.16383 0.0
H743 H 0.44489 0.01535 0.14133 0.0
H744 H 0.56497 0.06183 0.1621 0.0
H745 H 0.50423 0.0871 0.11052 0.0
H746 H 0.56512 0.96739 0.15561 0.0
H747 H 0.53098 0.98264 0.17177 0.0
H748 H 0.57406 0.00299 0.17261 0.0
H749 H 0.49307 -0.00365 0.0936 0.0
H750 H 0.48263 0.04223 0.08899 0.0
H751 H 0.45636 0.01659 0.10587 0.0
C752 C 0.93066 0.53765 0.14374 0.0
C753 C 0.90342 0.51936 0.13428 0.0
C754 C 0.96587 0.5268 0.1414 0.0
C755 C 0.97361 0.49757 0.12902 0.0
C756 C 0.94633 0.48103 0.11818 0.0
C757 C 0.91139 0.49191 0.12114 0.0
C758 C 0.99442 0.54505 0.1532 0.0
C759 C 0.95372 0.45051 0.10441 0.0
C760 C 0.07079 0.48775 0.11812 0.0
C761 C 0.08099 0.46381 0.13282 0.0
C762 C 0.0353 0.49714 0.1157 0.0
C763 C 0.00982 0.48281 0.12866 0.0
C764 C 0.01975 0.4567 0.14264 0.0
C765 C 0.05545 0.44719 0.14442 0.0
C766 C 0.02555 0.52423 0.10026 0.0
C767 C 0.99317 0.44093 0.15673 0.0
H768 H 0.92426 0.55865 0.15403 0.0
H769 H 0.8901 0.47797 0.11374 0.0
H770 H 0.00575 0.52624 0.16408 0.0
H771 H 0.01626 0.55359 0.14338 0.0
H772 H 0.98427 0.56853 0.16126 0.0
H773 H 0.93062 0.44438 0.09487 0.0
H774 H 0.97684 0.45636 0.09488 0.0
H775 H 0.96023 0.42659 0.11317 0.0
H776 H 0.09087 0.50043 0.10914 0.0
H777 H 0.06368 0.42901 0.15592 0.0
H778 H 0.01987 0.5499 0.10752 0.0
H779 H 0.0013 0.51611 0.09222 0.0
H780 H 0.0472 0.52831 0.08942 0.0
H781 H 0.98353 0.46177 0.16694 0.0
H782 H 0.00464 0.41907 0.16563 0.0
H783 H 0.96991 0.43071 0.14855 0.0
C784 C 0.0791 0.38624 0.31163 0.0
C785 C 0.04701 0.36762 0.31054 0.0
C786 C 0.09514 0.40041 0.29458 0.0
C787 C 0.07887 0.39581 0.27589 0.0
C788 C 0.04695 0.37633 0.27465 0.0
C789 C 0.03148 0.36256 0.29191 0.0
C790 C 0.12909 0.42107 0.29663 0.0
C791 C 0.02872 0.3705 0.2551 0.0
C792 C 0.09743 0.46265 0.23494 0.0
C793 C 0.12191 0.44465 0.22298 0.0
C794 C 0.08357 0.44722 0.25218 0.0
C795 C 0.09422 0.4127 0.25776 0.0
C796 C 0.11881 0.39426 0.24576 0.0
C797 C 0.1323 0.41038 0.22856 0.0
C798 C 0.05727 0.46787 0.26438 0.0
C799 C 0.1309 0.35744 0.25111 0.0
H800 H 0.09124 0.3906 0.32589 0.0
H801 H 0.00711 0.34768 0.29077 0.0
H802 H 0.14961 0.41005 0.28668 0.0
H803 H 0.1246 0.44893 0.29215 0.0
H804 H 0.1394 0.42078 0.31198 0.0
H805 H 0.00484 0.35358 0.25649 0.0
H806 H 0.0207 0.39632 0.24872 0.0
H807 H 0.04721 0.35792 0.24451 0.0
H808 H 0.08861 0.48881 0.23072 0.0
H809 H 0.15142 0.39631 0.21963 0.0
H810 H 0.06712 0.47066 0.27972 0.0
H811 H 0.0318 0.45336 0.26509 0.0
H812 H 0.0522 0.49467 0.25829 0.0
H813 H 0.14327 0.35759 0.26595 0.0
H814 H 0.15024 0.34665 0.24034 0.0
H815 H 0.10782 0.33937 0.2518 0.0
C816 C 0.52961 0.12673 0.24658 0.0
C817 C 0.54688 0.12219 0.22843 0.0
C818 C 0.5444 0.11403 0.26427 0.0
C819 C 0.57713 0.09576 0.26388 0.0
C820 C 0.59505 0.09167 0.24563 0.0
C821 C 0.57986 0.10515 0.22817 0.0
C822 C 0.52458 0.11957 0.28335 0.0
C823 C 0.62972 0.07198 0.24445 0.0
C824 C 0.6277 0.08186 0.31225 0.0
C825 C 0.61725 0.04752 0.31769 0.0
C826 C 0.61496 0.09791 0.29484 0.0
C827 C 0.59142 0.07917 0.28235 0.0
C828 C 0.58083 0.04457 0.2877 0.0
C829 C 0.59358 0.02938 0.30526 0.0
C830 C 0.62663 0.135 0.28983 0.0
C831 C 0.55586 0.02348 0.27487 0.0
H832 H 0.50439 0.14032 0.24693 0.0
H833 H 0.59321 0.10126 0.21421 0.0
H834 H 0.51621 0.09365 0.28943 0.0
H835 H 0.5421 0.13215 0.29445 0.0
H836 H 0.50072 0.13636 0.28138 0.0
H837 H 0.64122 0.07258 0.22937 0.0
H838 H 0.64911 0.08352 0.2549 0.0
H839 H 0.62565 0.04399 0.24881 0.0
H840 H 0.64617 0.09619 0.32146 0.0
H841 H 0.58456 0.00322 0.30927 0.0
H842 H 0.6032 0.15253 0.28847 0.0
H843 H 0.64032 0.13516 0.27536 0.0
H844 H 0.64472 0.14622 0.30113 0.0
H845 H 0.53009 0.03736 0.2737 0.0
H846 H 0.55108 -0.00354 0.28072 0.0
H847 H 0.56676 0.02118 0.25973 0.0
C848 C 0.87999 0.58118 0.22574 0.0
C849 C 0.86317 0.5481 0.22673 0.0
C850 C 0.89384 0.59754 0.24277 0.0
C851 C 0.89089 0.58052 0.26134 0.0
C852 C 0.87329 0.54753 0.2625 0.0
C853 C 0.85967 0.53183 0.24527 0.0
C854 C 0.9124 0.63269 0.24082 0.0
C855 C 0.86936 0.52842 0.28194 0.0
C856 C 0.95855 0.60205 0.30138 0.0
C857 C 0.93972 0.62508 0.31381 0.0
C858 C 0.94305 0.58759 0.28433 0.0
C859 C 0.90767 0.59625 0.27939 0.0
C860 C 0.88837 0.61933 0.2919 0.0
C861 C 0.90455 0.63336 0.30896 0.0
C862 C 0.96459 0.56285 0.2716 0.0
C863 C 0.85065 0.62935 0.28721 0.0
H864 H 0.88315 0.59396 0.21156 0.0
H865 H 0.84616 0.50668 0.24639 0.0
H866 H 0.90067 0.65221 0.25114 0.0
H867 H 0.94069 0.6297 0.24487 0.0
H868 H 0.91081 0.64345 0.22559 0.0
H869 H 0.85383 0.50362 0.28051 0.0
H870 H 0.89587 0.52178 0.28792 0.0
H871 H 0.85614 0.5458 0.29286 0.0
H872 H 0.98548 0.59493 0.3051 0.0
H873 H 0.88985 0.65135 0.3183 0.0
H874 H 0.96629 0.57338 0.25636 0.0
H875 H 0.95142 0.53668 0.27073 0.0
H876 H 0.99186 0.559 0.27734 0.0
H877 H 0.84938 0.64224 0.27252 0.0
H878 H 0.83923 0.64762 0.29835 0.0
H879 H 0.83396 0.60526 0.28646 0.0
C880 C 0.40404 0.86036 0.23276 0.0
C881 C 0.43905 0.86937 0.22802 0.0
C882 C 0.38747 0.87406 0.24977 0.0
C883 C 0.40624 0.8975 0.26231 0.0
C884 C 0.44141 0.90699 0.25745 0.0
C885 C 0.45729 0.89287 0.24044 0.0
C886 C 0.34996 0.86325 0.2544 0.0
C887 C 0.46236 0.93216 0.27022 0.0
C888 C 0.3577 0.96115 0.2965 0.0
C889 C 0.36191 0.94504 0.31503 0.0
C890 C 0.37106 0.94552 0.27922 0.0
C891 C 0.38916 0.91278 0.28035 0.0
C892 C 0.39266 0.89582 0.29891 0.0
C893 C 0.37899 0.9121 0.31599 0.0
C894 C 0.36653 0.96451 0.25978 0.0
C895 C 0.41177 0.86093 0.3008 0.0
H896 H 0.38984 0.84201 0.2234 0.0
H897 H 0.48408 0.90053 0.23677 0.0
H898 H 0.34898 0.8501 0.26902 0.0
H899 H 0.33278 0.88699 0.25525 0.0
H900 H 0.33892 0.84493 0.24316 0.0
H901 H 0.48952 0.93668 0.2645 0.0
H902 H 0.44856 0.95801 0.27114 0.0
H903 H 0.46434 0.92158 0.28545 0.0
H904 H 0.34392 0.98619 0.29546 0.0
H905 H 0.38262 0.89948 0.33019 0.0
H906 H 0.35385 0.94677 0.24884 0.0
H907 H 0.39282 0.97196 0.25383 0.0
H908 H 0.35025 0.98884 0.26122 0.0
H909 H 0.40045 0.84133 0.29039 0.0
H910 H 0.41026 0.85001 0.31599 0.0
H911 H 0.44003 0.86443 0.29685 0.0
C912 C 0.11829 0.58944 0.81325 0.0
C913 C 0.13134 0.55479 0.81125 0.0
C914 C 0.10448 0.60812 0.79696 0.0
C915 C 0.10334 0.59183 0.77813 0.0
C916 C 0.11675 0.55707 0.77595 0.0
C917 C 0.13067 0.53915 0.79242 0.0
C918 C 0.09062 0.64517 0.79995 0.0
C919 C 0.11603 0.53856 0.75622 0.0
C920 C 0.03592 0.62359 0.74007 0.0
C921 C 0.05684 0.64373 0.72715 0.0
C922 C 0.05062 0.60695 0.75675 0.0
C923 C 0.08721 0.61058 0.76081 0.0
C924 C 0.10844 0.63119 0.74795 0.0
C925 C 0.09306 0.64731 0.73126 0.0
C926 C 0.02702 0.5849 0.76984 0.0
C927 C 0.14747 0.63602 0.75176 0.0
H928 H 0.11824 0.60189 0.82762 0.0
H929 H 0.1412 0.51279 0.79043 0.0
H930 H 0.10385 0.66365 0.78961 0.0
H931 H 0.06189 0.64599 0.79665 0.0
H932 H 0.09481 0.65477 0.81526 0.0
H933 H 0.12778 0.51164 0.75689 0.0
H934 H 0.08835 0.53627 0.75092 0.0
H935 H 0.13077 0.55431 0.74513 0.0
H936 H 0.00808 0.62005 0.73689 0.0
H937 H 0.10936 0.663 0.72146 0.0
H938 H 0.02837 0.59464 0.78525 0.0
H939 H 0.03635 0.55707 0.7699 0.0
H940 H -0.00103 0.58535 0.76495 0.0
H941 H 0.15166 0.64722 0.7667 0.0
H942 H 0.16012 0.65375 0.74076 0.0
H943 H 0.16103 0.61 0.75134 0.0
C944 C 0.44134 0.08442 0.80558 0.0
C945 C 0.42832 0.11154 0.81771 0.0
C946 C 0.42243 0.07287 0.78888 0.0
C947 C 0.38982 0.08915 0.78392 0.0
C948 C 0.3764 0.11639 0.7962 0.0
C949 C 0.39564 0.12705 0.813 0.0
C950 C 0.43752 0.04337 0.77645 0.0
C951 C 0.34208 0.13487 0.79135 0.0
C952 C 0.36103 0.08276 0.73002 0.0
C953 C 0.33556 0.05562 0.73048 0.0
C954 C 0.37823 0.09434 0.74728 0.0
C955 C 0.37034 0.07822 0.76562 0.0
C956 C 0.34454 0.0511 0.76631 0.0
C957 C 0.32735 0.04037 0.74886 0.0
C958 C 0.4053 0.12358 0.74583 0.0
C959 C 0.33544 0.03299 0.7855 0.0
H960 H 0.46632 0.07201 0.80925 0.0
H961 H 0.3856 0.14829 0.82215 0.0
H962 H 0.418 0.0216 0.77512 0.0
H963 H 0.44298 0.05317 0.76133 0.0
H964 H 0.46243 0.03251 0.78271 0.0
H965 H 0.33482 0.15499 0.80259 0.0
H966 H 0.34429 0.1481 0.7768 0.0
H967 H 0.32031 0.11531 0.79023 0.0
H968 H 0.36829 0.09476 0.71614 0.0
H969 H 0.30744 0.01988 0.74969 0.0
H970 H 0.43172 0.11337 0.75013 0.0
H971 H 0.39855 0.14525 0.75621 0.0
H972 H 0.40713 0.13473 0.73071 0.0
H973 H 0.35941 0.02021 0.79172 0.0
H974 H 0.31459 0.01256 0.78365 0.0
H975 H 0.3262 0.05273 0.79644 0.0
C976 C 0.87663 0.44165 0.79771 0.0
C977 C 0.86337 0.42232 0.81381 0.0
C978 C 0.88952 0.42461 0.78067 0.0
C979 C 0.88942 0.38717 0.77956 0.0
C980 C 0.87636 0.36746 0.79578 0.0
C981 C 0.86348 0.38518 0.81261 0.0
C982 C 0.90319 0.44675 0.76378 0.0
C983 C 0.87578 0.32755 0.79532 0.0
C984 C 0.89304 0.34377 0.72859 0.0
C985 C 0.92901 0.33486 0.72679 0.0
C986 C 0.87983 0.36061 0.74563 0.0
C987 C 0.90298 0.3687 0.76145 0.0
C988 C 0.93919 0.35945 0.75986 0.0
C989 C 0.95173 0.34281 0.74262 0.0
C990 C 0.84104 0.36994 0.74663 0.0
C991 C 0.96486 0.36746 0.77633 0.0
H992 H 0.87722 0.47023 0.79841 0.0
H993 H 0.85289 0.36982 0.82472 0.0
H994 H 0.93122 0.43999 0.76073 0.0
H995 H 0.88791 0.44089 0.75019 0.0
H996 H 0.90138 0.47555 0.76685 0.0
H997 H 0.8653 0.31601 0.8092 0.0
H998 H 0.85916 0.31829 0.78285 0.0
H999 H 0.90289 0.31722 0.79284 0.0
H1000 H 0.87503 0.33742 0.71669 0.0
H1001 H 0.9796 0.33667 0.74147 0.0
H1002 H 0.83791 0.39891 0.74857 0.0
H1003 H 0.8287 0.35701 0.7596 0.0
H1004 H 0.82643 0.36177 0.73316 0.0
H1005 H 0.966 0.39642 0.77891 0.0
H1006 H 0.992 0.35783 0.77308 0.0
H1007 H 0.95567 0.35504 0.79024 0.0
C1008 C 0.56693 0.89119 0.81573 0.0
C1009 C 0.5708 0.85457 0.81809 0.0
C1010 C 0.58188 0.9088 0.79938 0.0
C1011 C 0.60204 0.88947 0.78537 0.0
C1012 C 0.60709 0.85267 0.78821 0.0
C1013 C 0.59105 0.83567 0.80433 0.0
C1014 C 0.57509 0.94784 0.79673 0.0
C1015 C 0.62912 0.83109 0.77406 0.0
C1016 C 0.613 0.92077 0.73217 0.0
C1017 C 0.64665 0.93632 0.73253 0.0
C1018 C 0.59769 0.90667 0.74938 0.0
C1019 C 0.61688 0.90716 0.76736 0.0
C1020 C 0.65091 0.92297 0.76779 0.0
C1021 C 0.66513 0.93782 0.75044 0.0
C1022 C 0.56102 0.89098 0.74826 0.0
C1023 C 0.67272 0.9233 0.78644 0.0
H1024 H 0.55111 0.90574 0.8263 0.0
H1025 H 0.59442 0.80743 0.80628 0.0
H1026 H 0.60048 0.96232 0.79538 0.0
H1027 H 0.56014 0.95228 0.78285 0.0
H1028 H 0.55979 0.95928 0.80918 0.0
H1029 H 0.63257 0.80334 0.7791 0.0
H1030 H 0.61637 0.83076 0.75932 0.0
H1031 H 0.65563 0.84326 0.77226 0.0
H1032 H 0.59845 0.92011 0.71839 0.0
H1033 H 0.69119 0.94974 0.7507 0.0
H1034 H 0.54382 0.90289 0.75974 0.0
H1035 H 0.56228 0.86215 0.75119 0.0
H1036 H 0.54854 0.89515 0.7336 0.0
H1037 H 0.65783 0.93631 0.79852 0.0
H1038 H 0.69833 0.93725 0.78447 0.0
H1039 H 0.67816 0.89574 0.79119 0.0
C1040 C 0.13956 0.18095 0.35173 0.0
C1041 C 0.13932 0.20549 0.36725 0.0
C1042 C 0.15755 0.14866 0.35354 0.0
C1043 C 0.17579 0.14092 0.37125 0.0
C1044 C 0.17725 0.16635 0.38653 0.0
C1045 C 0.15893 0.1983 0.38436 0.0
C1046 C 0.15571 0.12221 0.33689 0.0
C1047 C 0.19671 0.15914 0.40558 0.0
C1048 C 0.18863 0.04597 0.38775 0.0
C1049 C 0.22436 0.04042 0.38323 0.0
C1050 C 0.17216 0.07829 0.38337 0.0
C1051 C 0.19198 0.10563 0.37432 0.0
C1052 C 0.22776 0.09987 0.36925 0.0
C1053 C 0.24351 0.06734 0.37375 0.0
C1054 C 0.13382 0.08354 0.3889 0.0
C1055 C 0.24973 0.12844 0.35964 0.0
H1056 H 0.12478 0.18656 0.33838 0.0
H1057 H 0.15842 0.21681 0.39656 0.0
H1058 H 0.18264 0.11304 0.33288 0.0
H1059 H 0.14053 0.09865 0.34173 0.0
H1060 H 0.14279 0.13335 0.32354 0.0
H1061 H 0.19742 0.18266 0.4154 0.0
H1062 H 0.18358 0.13717 0.41359 0.0
H1063 H 0.22427 0.15072 0.4025 0.0
H1064 H 0.17363 0.02529 0.39499 0.0
H1065 H 0.27114 0.06332 0.37013 0.0
H1066 H 0.11842 0.09229 0.37584 0.0
H1067 H 0.13165 0.10464 0.4002 0.0
H1068 H 0.12162 0.05904 0.39485 0.0
H1069 H 0.23623 0.1386 0.34627 0.0
H1070 H 0.27648 0.11889 0.35542 0.0
H1071 H 0.2528 0.15102 0.36996 0.0
C1072 C 0.92767 0.24564 0.37068 0.0
C1073 C 0.95003 0.23369 0.38583 0.0
C1074 C 0.89546 0.22868 0.3667 0.0
C1075 C 0.88531 0.19924 0.37822 0.0
C1076 C 0.90784 0.18691 0.39345 0.0
C1077 C 0.94001 0.20421 0.39702 0.0
C1078 C 0.87227 0.24231 0.35022 0.0
C1079 C 0.89782 0.15558 0.4061 0.0
C1080 C 0.78995 0.16999 0.38358 0.0
C1081 C 0.78996 0.13897 0.37231 0.0
C1082 C 0.82039 0.19111 0.38482 0.0
C1083 C 0.85125 0.18095 0.37441 0.0
C1084 C 0.8504 0.15112 0.36182 0.0
C1085 C 0.81976 0.13035 0.361 0.0
C1086 C 0.82031 0.22276 0.3984 0.0
C1087 C 0.88258 0.13973 0.35025 0.0
H1088 H 0.93529 0.26832 0.36189 0.0
H1089 H 0.95706 0.19493 0.40879 0.0
H1090 H 0.86739 0.22099 0.33931 0.0
H1091 H 0.84617 0.25041 0.35618 0.0
H1092 H 0.88424 0.26526 0.34247 0.0
H1093 H 0.91818 0.14949 0.41742 0.0
H1094 H 0.87233 0.16083 0.41366 0.0
H1095 H 0.89404 0.13185 0.39671 0.0
H1096 H 0.76701 0.17641 0.39248 0.0
H1097 H 0.81962 0.10635 0.35224 0.0
H1098 H 0.8316 0.2462 0.39086 0.0
H1099 H 0.83719 0.21713 0.41142 0.0
H1100 H 0.79327 0.2294 0.40365 0.0
H1101 H 0.89431 0.16258 0.34235 0.0
H1102 H 0.87625 0.11873 0.33934 0.0
H1103 H 0.90296 0.1294 0.36053 0.0
C1104 C 0.82199 0.79622 0.38483 0.0
C1105 C 0.83922 0.7855 0.36752 0.0
C1106 C 0.80096 0.82671 0.38516 0.0
C1107 C 0.79697 0.84685 0.36772 0.0
C1108 C 0.81293 0.8353 0.34997 0.0
C1109 C 0.83405 0.80477 0.3501 0.0
C1110 C 0.78449 0.8383 0.4044 0.0
C1111 C 0.80881 0.85591 0.33103 0.0
C1112 C 0.72324 0.91488 0.36698 0.0
C1113 C 0.74192 0.94585 0.3712 0.0
C1114 C 0.74092 0.8824 0.3654 0.0
C1115 C 0.77795 0.88115 0.36843 0.0
C1116 C 0.79683 0.91261 0.37274 0.0
C1117 C 0.7785 0.94479 0.37392 0.0
C1118 C 0.72004 0.84949 0.36057 0.0
C1119 C 0.83625 0.91221 0.37631 0.0
H1120 H 0.82637 0.78175 0.39842 0.0
H1121 H 0.84713 0.79637 0.33666 0.0
H1122 H 0.79657 0.86361 0.40922 0.0
H1123 H 0.75576 0.84308 0.40245 0.0
H1124 H 0.78819 0.81843 0.4163 0.0
H1125 H 0.82036 0.84179 0.31819 0.0
H1126 H 0.78043 0.86112 0.32803 0.0
H1127 H 0.82211 0.88193 0.33249 0.0
H1128 H 0.69485 0.91616 0.36478 0.0
H1129 H 0.79263 0.96906 0.37715 0.0
H1130 H 0.72219 0.83023 0.37285 0.0
H1131 H 0.7311 0.83659 0.34723 0.0
H1132 H 0.6916 0.85525 0.35794 0.0
H1133 H 0.84248 0.89475 0.38901 0.0
H1134 H 0.84692 0.93901 0.37942 0.0
H1135 H 0.85012 0.90128 0.36325 0.0
C1136 C 0.06192 0.74891 0.37695 0.0
C1137 C 0.0331 0.76845 0.3842 0.0
C1138 C 0.09487 0.76481 0.3738 0.0
C1139 C 0.09908 0.80124 0.37779 0.0
C1140 C 0.06992 0.82139 0.38461 0.0
C1141 C 0.03726 0.80468 0.38785 0.0
C1142 C 0.12545 0.74237 0.36677 0.0
C1143 C 0.07342 0.86044 0.38882 0.0
C1144 C 0.18987 0.83686 0.39056 0.0
C1145 C 0.20004 0.85306 0.37282 0.0
C1146 C 0.15749 0.8191 0.39219 0.0
C1147 C 0.13444 0.81789 0.37577 0.0
C1148 C 0.14494 0.8331 0.35762 0.0
C1149 C 0.17775 0.85029 0.35632 0.0
C1150 C 0.14743 0.8027 0.41172 0.0
C1151 C 0.121 0.83227 0.3398 0.0
H1152 H 0.05905 0.72084 0.37415 0.0
H1153 H 0.01509 0.81994 0.39336 0.0
H1154 H 0.13734 0.75402 0.35331 0.0
H1155 H 0.14638 0.74172 0.37824 0.0
H1156 H 0.11735 0.71475 0.36346 0.0
H1157 H 0.04777 0.87271 0.39295 0.0
H1158 H 0.09247 0.86462 0.40105 0.0
H1159 H 0.08404 0.87434 0.37568 0.0
H1160 H 0.20647 0.83938 0.40352 0.0
H1161 H 0.18559 0.86228 0.34248 0.0
H1162 H 0.1399 0.77459 0.40963 0.0
H1163 H 0.12408 0.8166 0.4179 0.0
H1164 H 0.16927 0.80401 0.42267 0.0
H1165 H 0.11346 0.80463 0.33628 0.0
H1166 H 0.1336 0.84423 0.32659 0.0
H1167 H 0.09623 0.84692 0.34304 0.0
C1168 C 0.18933 0.96723 0.65446 0.0
C1169 C 0.22536 0.96984 0.64991 0.0
C1170 C 0.17188 0.93453 0.6535 0.0
C1171 C 0.19123 0.90382 0.6483 0.0
C1172 C 0.22736 0.9065 0.6432 0.0
C1173 C 0.24389 0.93955 0.64386 0.0
C1174 C 0.13304 0.93267 0.65856 0.0
C1175 C 0.24899 0.87423 0.63793 0.0
C1176 C 0.15721 0.81678 0.66829 0.0
C1177 C 0.1416 0.80207 0.65149 0.0
C1178 C 0.17404 0.84972 0.66735 0.0
C1179 C 0.17429 0.86857 0.64929 0.0
C1180 C 0.15863 0.85363 0.63226 0.0
C1181 C 0.14274 0.82024 0.63353 0.0
C1182 C 0.19125 0.86448 0.6857 0.0
C1183 C 0.15785 0.8733 0.61288 0.0
H1184 H 0.1749 0.99064 0.659 0.0
H1185 H 0.27184 0.94132 0.64041 0.0
H1186 H 0.11835 0.91855 0.64678 0.0
H1187 H 0.12943 0.91746 0.6724 0.0
H1188 H 0.12116 0.95931 0.66055 0.0
H1189 H 0.27642 0.8811 0.63348 0.0
H1190 H 0.25025 0.85612 0.65079 0.0
H1191 H 0.23627 0.8595 0.62569 0.0
H1192 H 0.15599 0.80255 0.68216 0.0
H1193 H 0.13002 0.80885 0.62067 0.0
H1194 H 0.17803 0.88949 0.69004 0.0
H1195 H 0.21941 0.87077 0.68271 0.0
H1196 H 0.18995 0.84578 0.69831 0.0
H1197 H 0.14358 0.89874 0.61474 0.0
H1198 H 0.14468 0.85787 0.60102 0.0
H1199 H 0.18514 0.87972 0.60809 0.0
C1200 C 0.17508 0.1592 0.62874 0.0
C1201 C 0.19266 0.15115 0.64643 0.0
C1202 C 0.14133 0.17446 0.62882 0.0
C1203 C 0.12522 0.18298 0.64702 0.0
C1204 C 0.14357 0.17686 0.6649 0.0
C1205 C 0.17697 0.16068 0.66441 0.0
C1206 C 0.12249 0.18047 0.60945 0.0
C1207 C 0.12756 0.18659 0.68457 0.0
C1208 C 0.05138 0.25037 0.64547 0.0
C1209 C 0.02123 0.22901 0.64752 0.0
C1210 C 0.08535 0.23574 0.64558 0.0
C1211 C 0.08929 0.19872 0.64728 0.0
C1212 C 0.05898 0.17685 0.64899 0.0
C1213 C 0.02519 0.19236 0.64937 0.0
C1214 C 0.11702 0.25999 0.64421 0.0
C1215 C 0.06229 0.13714 0.65037 0.0
H1216 H 0.18734 0.15268 0.61476 0.0
H1217 H 0.19014 0.15427 0.67816 0.0
H1218 H 0.09717 0.16563 0.60929 0.0
H1219 H 0.11592 0.20888 0.60768 0.0
H1220 H 0.13858 0.17197 0.59659 0.0
H1221 H 0.14618 0.18212 0.69701 0.0
H1222 H 0.11948 0.21481 0.68457 0.0
H1223 H 0.1034 0.17062 0.68717 0.0
H1224 H 0.04855 0.27883 0.64434 0.0
H1225 H 0.00193 0.17585 0.65096 0.0
H1226 H 0.13288 0.25345 0.63094 0.0
H1227 H 0.1344 0.25615 0.65723 0.0
H1228 H 0.10934 0.28832 0.64342 0.0
H1229 H 0.07691 0.12688 0.63738 0.0
H1230 H 0.03612 0.12385 0.6511 0.0
H1231 H 0.07774 0.12985 0.66368 0.0
C1232 C 0.73292 0.05867 0.64399 0.0
C1233 C 0.7528 0.02841 0.63939 0.0
C1234 C 0.74829 0.09231 0.64378 0.0
C1235 C 0.78456 0.09573 0.63917 0.0
C1236 C 0.80478 0.06535 0.63436 0.0
C1237 C 0.78852 0.03197 0.63435 0.0
C1238 C 0.72575 0.12415 0.64865 0.0
C1239 C 0.8437 0.06808 0.6296 0.0
C1240 C 0.82082 0.18472 0.62329 0.0
C1241 C 0.83581 0.19701 0.6409 0.0
C1242 C 0.80336 0.15205 0.62259 0.0
C1243 C 0.80149 0.13107 0.63984 0.0
C1244 C 0.81591 0.14377 0.65777 0.0
C1245 C 0.8327 0.17679 0.65811 0.0
C1246 C 0.78758 0.13966 0.60332 0.0
C1247 C 0.81465 0.12196 0.67642 0.0
H1248 H 0.70513 0.05611 0.64769 0.0
H1249 H 0.80394 0.00862 0.63086 0.0
H1250 H 0.73595 0.13725 0.66214 0.0
H1251 H 0.72716 0.14376 0.6365 0.0
H1252 H 0.69758 0.11704 0.6511 0.0
H1253 H 0.85559 0.04197 0.62604 0.0
H1254 H 0.84774 0.08608 0.61689 0.0
H1255 H 0.85809 0.07959 0.64234 0.0
H1256 H 0.82327 0.20048 0.61 0.0
H1257 H 0.84483 0.18612 0.67164 0.0
H1258 H 0.75925 0.13296 0.60537 0.0
H1259 H 0.80121 0.11527 0.59833 0.0
H1260 H 0.78978 0.15993 0.59152 0.0
H1261 H 0.78686 0.11532 0.68014 0.0
H1262 H 0.82671 0.1359 0.68919 0.0
H1263 H 0.82892 0.09665 0.67412 0.0
C1264 C 0.93568 0.7432 0.64628 0.0
C1265 C 0.96606 0.76029 0.63916 0.0
C1266 C 0.90373 0.76138 0.64848 0.0
C1267 C 0.90208 0.79762 0.64352 0.0
C1268 C 0.93238 0.81498 0.63595 0.0
C1269 C 0.96411 0.79601 0.63378 0.0
C1270 C 0.87189 0.74187 0.65644 0.0
C1271 C 0.93144 0.85371 0.63057 0.0
C1272 C 0.81071 0.83635 0.63561 0.0
C1273 C 0.8041 0.85217 0.65396 0.0
C1274 C 0.84274 0.81892 0.63189 0.0
C1275 C 0.86875 0.81739 0.64687 0.0
C1276 C 0.86224 0.83321 0.66543 0.0
C1277 C 0.82992 0.85034 0.66878 0.0
C1278 C 0.84874 0.80213 0.61195 0.0
C1279 C 0.88933 0.83185 0.6818 0.0
H1280 H 0.93683 0.71547 0.6503 0.0
H1281 H 0.98751 0.80932 0.6283 0.0
H1282 H 0.86343 0.75387 0.67061 0.0
H1283 H 0.84938 0.74426 0.64601 0.0
H1284 H 0.87734 0.71335 0.65895 0.0
H1285 H 0.9569 0.86295 0.62422 0.0
H1286 H 0.91003 0.85875 0.61973 0.0
H1287 H 0.92547 0.86972 0.64387 0.0
H1288 H 0.7911 0.83825 0.62399 0.0
H1289 H 0.8248 0.86224 0.68304 0.0
H1290 H 0.85317 0.77329 0.6137 0.0
H1291 H 0.87286 0.8133 0.60503 0.0
H1292 H 0.82604 0.80621 0.60179 0.0
H1293 H 0.89446 0.80396 0.68601 0.0
H1294 H 0.88065 0.84657 0.69513 0.0
H1295 H 0.91477 0.84316 0.67663 0.0
C1296 C 0.6432 0.65825 0.89889 0.0
C1297 C 0.64218 0.6823 0.88312 0.0
C1298 C 0.66336 0.62727 0.89786 0.0
C1299 C 0.68382 0.62049 0.88083 0.0
C1300 C 0.68433 0.64538 0.86521 0.0
C1301 C 0.66329 0.67597 0.86648 0.0
C1302 C 0.66199 0.60134 0.91481 0.0
C1303 C 0.70646 0.6393 0.847 0.0
C1304 C 0.75602 0.5519 0.88741 0.0
C1305 C 0.74029 0.52175 0.87914 0.0
C1306 C 0.73844 0.58454 0.88741 0.0
C1307 C 0.704 0.58688 0.87936 0.0
C1308 C 0.68797 0.55653 0.87098 0.0
C1309 C 0.7065 0.52435 0.87078 0.0
C1310 C 0.75663 0.61646 0.89616 0.0
C1311 C 0.65096 0.55786 0.86263 0.0
H1312 H 0.62775 0.66341 0.91204 0.0
H1313 H 0.66259 0.69437 0.85423 0.0
H1314 H 0.65189 0.57546 0.90953 0.0
H1315 H 0.68895 0.5968 0.92075 0.0
H1316 H 0.64475 0.61066 0.92701 0.0
H1317 H 0.7059 0.66232 0.83682 0.0
H1318 H 0.73432 0.63388 0.8512 0.0
H1319 H 0.69659 0.61573 0.83897 0.0
H1320 H 0.78238 0.55012 0.89364 0.0
H1321 H 0.69429 0.50108 0.86439 0.0
H1322 H 0.74186 0.62576 0.90931 0.0
H1323 H 0.75681 0.63849 0.88535 0.0
H1324 H 0.78432 0.61071 0.90064 0.0
H1325 H 0.632 0.56532 0.87441 0.0
H1326 H 0.6426 0.53211 0.85626 0.0
H1327 H 0.64923 0.57839 0.85099 0.0
C1328 C 0.41022 0.75312 0.9046 0.0
C1329 C 0.4374 0.7591 0.89101 0.0
C1330 C 0.38221 0.73023 0.90007 0.0
C1331 C 0.38084 0.71406 0.88123 0.0
C1332 C 0.40799 0.72056 0.86734 0.0
C1333 C 0.43634 0.74257 0.87254 0.0
C1334 C 0.35434 0.72301 0.91551 0.0
C1335 C 0.40688 0.7046 0.84693 0.0
C1336 C 0.32681 0.63026 0.87644 0.0
C1337 C 0.29426 0.64347 0.86985 0.0
C1338 C 0.3554 0.65293 0.87994 0.0
C1339 C 0.35147 0.68957 0.87634 0.0
C1340 C 0.31903 0.70288 0.86892 0.0
C1341 C 0.29053 0.67965 0.86604 0.0
C1342 C 0.38925 0.63785 0.88831 0.0
C1343 C 0.31423 0.74169 0.86445 0.0
H1344 H 0.41122 0.7659 0.91891 0.0
H1345 H 0.45713 0.74768 0.86194 0.0
H1346 H 0.32801 0.73147 0.91004 0.0
H1347 H 0.35282 0.69419 0.91848 0.0
H1348 H 0.35984 0.73695 0.9296 0.0
H1349 H 0.42933 0.7135 0.8376 0.0
H1350 H 0.40759 0.67533 0.84792 0.0
H1351 H 0.38174 0.7119 0.8395 0.0
H1352 H 0.3294 0.6023 0.87971 0.0
H1353 H 0.26524 0.68974 0.86099 0.0
H1354 H 0.3944 0.64953 0.90305 0.0
H1355 H 0.41198 0.64483 0.87874 0.0
H1356 H 0.38822 0.60861 0.88983 0.0
H1357 H 0.31557 0.7572 0.87832 0.0
H1358 H 0.2885 0.74724 0.85715 0.0
H1359 H 0.3359 0.75117 0.85476 0.0
C1360 C 0.33899 0.29599 0.85447 0.0
C1361 C 0.34418 0.27713 0.87208 0.0
C1362 C 0.32319 0.32959 0.85455 0.0
C1363 C 0.31177 0.34439 0.87263 0.0
C1364 C 0.31497 0.32464 0.89026 0.0
C1365 C 0.33134 0.29139 0.8898 0.0
C1366 C 0.32016 0.34989 0.83544 0.0
C1367 C 0.30252 0.33929 0.9098 0.0
C1368 C 0.30663 0.44388 0.87974 0.0
C1369 C 0.27019 0.44993 0.87802 0.0
C1370 C 0.32069 0.40976 0.87732 0.0
C1371 C 0.29768 0.38105 0.87334 0.0
C1372 C 0.26101 0.38714 0.87111 0.0
C1373 C 0.24775 0.42151 0.87336 0.0
C1374 C 0.36007 0.40428 0.87951 0.0
C1375 C 0.23558 0.35717 0.86712 0.0
H1376 H 0.34829 0.28496 0.84066 0.0
H1377 H 0.33567 0.27743 0.90355 0.0
H1378 H 0.29257 0.35898 0.83315 0.0
H1379 H 0.3371 0.37382 0.83615 0.0
H1380 H 0.32836 0.33384 0.8225 0.0
H1381 H 0.30436 0.31949 0.92186 0.0
H1382 H 0.31882 0.36257 0.91388 0.0
H1383 H 0.27469 0.34839 0.90864 0.0
H1384 H 0.32414 0.46569 0.88323 0.0
H1385 H 0.2195 0.42584 0.87205 0.0
H1386 H 0.37069 0.39017 0.86644 0.0
H1387 H 0.36544 0.3875 0.8926 0.0
H1388 H 0.37458 0.42963 0.88126 0.0
H1389 H 0.24423 0.34181 0.85404 0.0
H1390 H 0.20814 0.36666 0.86457 0.0
H1391 H 0.2354 0.33877 0.87987 0.0
C1392 C 0.68596 0.33168 0.86149 0.0
C1393 C 0.70222 0.33485 0.87995 0.0
C1394 C 0.65329 0.31434 0.85958 0.0
C1395 C 0.63704 0.2997 0.87654 0.0
C1396 C 0.65457 0.30107 0.89498 0.0
C1397 C 0.68688 0.31891 0.89648 0.0
C1398 C 0.63528 0.31349 0.83972 0.0
C1399 C 0.63841 0.28524 0.91334 0.0
C1400 C 0.53769 0.29145 0.8819 0.0
C1401 C 0.53288 0.25496 0.87954 0.0
C1402 C 0.57131 0.30671 0.87986 0.0
C1403 C 0.60075 0.28488 0.87549 0.0
C1404 C 0.59577 0.24835 0.87209 0.0
C1405 C 0.56187 0.23384 0.87409 0.0
C1406 C 0.5756 0.34593 0.88334 0.0
C1407 C 0.62652 0.22422 0.86747 0.0
H1408 H 0.6978 0.34448 0.84879 0.0
H1409 H 0.69964 0.32155 0.91074 0.0
H1410 H 0.62599 0.28637 0.83625 0.0
H1411 H 0.61164 0.33089 0.84005 0.0
H1412 H 0.65302 0.3226 0.82769 0.0
H1413 H 0.65675 0.28613 0.92614 0.0
H1414 H 0.61399 0.29993 0.91726 0.0
H1415 H 0.63078 0.25732 0.91065 0.0
H1416 H 0.51542 0.30799 0.88595 0.0
H1417 H 0.55843 0.20561 0.8721 0.0
H1418 H 0.59087 0.35813 0.87114 0.0
H1419 H 0.59071 0.35033 0.89715 0.0
H1420 H 0.54974 0.35971 0.88461 0.0
H1421 H 0.64295 0.23549 0.85547 0.0
H1422 H 0.6177 0.19735 0.86304 0.0
H1423 H 0.64366 0.22174 0.88069 0.0
C1424 C 0.62318 0.32285 0.18165 0.0
C1425 C 0.63319 0.29288 0.17087 0.0
C1426 C 0.64298 0.35409 0.18063 0.0
C1427 C 0.6731 0.35537 0.16828 0.0
C1428 C 0.68454 0.32447 0.15833 0.0
C1429 C 0.66447 0.29341 0.15984 0.0
C1430 C 0.63035 0.3863 0.19175 0.0
C1431 C 0.71645 0.3249 0.14495 0.0
C1432 C 0.69486 0.44348 0.14456 0.0
C1433 C 0.72434 0.45424 0.15553 0.0
C1434 C 0.6779 0.41134 0.14863 0.0
C1435 C 0.69049 0.38976 0.16422 0.0
C1436 C 0.71969 0.4009 0.17567 0.0
C1437 C 0.73642 0.43294 0.17111 0.0
C1438 C 0.64691 0.40017 0.13602 0.0
C1439 C 0.73344 0.37883 0.19258 0.0
H1440 H 0.59894 0.32226 0.19019 0.0
H1441 H 0.6719 0.27029 0.15133 0.0
H1442 H 0.65268 0.39909 0.19962 0.0
H1443 H 0.61952 0.40593 0.18119 0.0
H1444 H 0.60939 0.3797 0.20262 0.0
H1445 H 0.72387 0.29795 0.13988 0.0
H1446 H 0.71069 0.34141 0.1318 0.0
H1447 H 0.73947 0.33689 0.15258 0.0
H1448 H 0.68555 0.45976 0.13246 0.0
H1449 H 0.75906 0.44127 0.17976 0.0
H1450 H 0.62319 0.3961 0.14537 0.0
H1451 H 0.65286 0.37458 0.12872 0.0
H1452 H 0.64043 0.42 0.12447 0.0
H1453 H 0.71185 0.37353 0.20326 0.0
H1454 H 0.75561 0.3919 0.20049 0.0
H1455 H 0.74275 0.35286 0.18701 0.0
C1456 C 0.53746 0.6858 0.16164 0.0
C1457 C 0.5323 0.72198 0.16507 0.0
C1458 C 0.57072 0.67016 0.16466 0.0
C1459 C 0.59938 0.69126 0.17122 0.0
C1460 C 0.594 0.72746 0.1754 0.0
C1461 C 0.56055 0.74236 0.1723 0.0
C1462 C 0.57551 0.63133 0.16018 0.0
C1463 C 0.62391 0.75081 0.18239 0.0
C1464 C 0.68036 0.64296 0.19039 0.0
C1465 C 0.70148 0.6414 0.1734 0.0
C1466 C 0.64738 0.65999 0.1901 0.0
C1467 C 0.63546 0.67596 0.17244 0.0
C1468 C 0.65751 0.67621 0.15558 0.0
C1469 C 0.69023 0.65886 0.15625 0.0
C1470 C 0.62467 0.65951 0.20841 0.0
C1471 C 0.64582 0.69332 0.13652 0.0
H1472 H 0.51579 0.66985 0.15613 0.0
H1473 H 0.55688 0.77033 0.1751 0.0
H1474 H 0.5939 0.62814 0.14755 0.0
H1475 H 0.58753 0.61763 0.17301 0.0
H1476 H 0.55012 0.61813 0.15647 0.0
H1477 H 0.61469 0.77772 0.1865 0.0
H1478 H 0.63728 0.73877 0.19532 0.0
H1479 H 0.64397 0.75335 0.17053 0.0
H1480 H 0.68912 0.62985 0.20375 0.0
H1481 H 0.70611 0.65733 0.14297 0.0
H1482 H 0.60066 0.64337 0.20567 0.0
H1483 H 0.61569 0.68665 0.2121 0.0
H1484 H 0.63887 0.64834 0.22134 0.0
H1485 H 0.62257 0.67901 0.13052 0.0
H1486 H 0.66704 0.69322 0.12519 0.0
H1487 H 0.63756 0.72106 0.1392 0.0
C1488 C 0.2802 0.54682 0.1761 0.0
C1489 C 0.24771 0.54436 0.1663 0.0
C1490 C 0.29844 0.57908 0.17703 0.0
C1491 C 0.28314 0.60969 0.16851 0.0
C1492 C 0.24989 0.60743 0.15899 0.0
C1493 C 0.23281 0.57461 0.15772 0.0
C1494 C 0.33436 0.58025 0.18678 0.0
C1495 C 0.23237 0.63968 0.15018 0.0
C1496 C 0.32035 0.69791 0.18557 0.0
C1497 C 0.34241 0.7065 0.16974 0.0
C1498 C 0.29992 0.66689 0.18514 0.0
C1499 C 0.30273 0.6437 0.16877 0.0
C1500 C 0.32508 0.6525 0.15277 0.0
C1501 C 0.34435 0.68407 0.15337 0.0
C1502 C 0.27567 0.65873 0.20222 0.0
C1503 C 0.32947 0.6281 0.1353 0.0
H1504 H 0.29171 0.52334 0.18268 0.0
H1505 H 0.20738 0.57274 0.15039 0.0
H1506 H 0.35449 0.58939 0.17601 0.0
H1507 H 0.33417 0.59948 0.19912 0.0
H1508 H 0.34259 0.55403 0.19258 0.0
H1509 H 0.20552 0.63381 0.14437 0.0
H1510 H 0.2302 0.66084 0.16146 0.0
H1511 H 0.24876 0.65023 0.13796 0.0
H1512 H 0.31919 0.7154 0.19823 0.0
H1513 H 0.36195 0.69075 0.14129 0.0
H1514 H 0.28472 0.63439 0.20982 0.0
H1515 H 0.24846 0.65365 0.19675 0.0
H1516 H 0.27474 0.68063 0.21313 0.0
H1517 H 0.33961 0.60207 0.14033 0.0
H1518 H 0.348 0.63891 0.1241 0.0
H1519 H 0.30352 0.62337 0.12813 0.0
C1520 C 0.29016 0.32322 0.17669 0.0
C1521 C 0.28951 0.34746 0.16104 0.0
C1522 C 0.31824 0.29911 0.17874 0.0
C1523 C 0.34646 0.29984 0.16501 0.0
C1524 C 0.34523 0.32332 0.1488 0.0
C1525 C 0.31652 0.34636 0.14684 0.0
C1526 C 0.31827 0.27366 0.19588 0.0
C1527 C 0.37494 0.32516 0.13392 0.0
C1528 C 0.43863 0.27151 0.18016 0.0
C1529 C 0.44244 0.23985 0.16968 0.0
C1530 C 0.40705 0.29086 0.17922 0.0
C1531 C 0.37837 0.27761 0.16798 0.0
C1532 C 0.38159 0.2448 0.1581 0.0
C1533 C 0.41385 0.22653 0.15882 0.0
C1534 C 0.40493 0.3262 0.18954 0.0
C1535 C 0.35127 0.22942 0.14641 0.0
H1536 H 0.26937 0.32383 0.18769 0.0
H1537 H 0.31562 0.36411 0.1343 0.0
H1538 H 0.32396 0.24642 0.19069 0.0
H1539 H 0.33947 0.28103 0.20642 0.0
H1540 H 0.29262 0.27362 0.20387 0.0
H1541 H 0.36968 0.34473 0.12205 0.0
H1542 H 0.39995 0.33256 0.14145 0.0
H1543 H 0.37915 0.29889 0.12704 0.0
H1544 H 0.46081 0.28181 0.18852 0.0
H1545 H 0.41668 0.20172 0.15095 0.0
H1546 H 0.38163 0.327 0.19946 0.0
H1547 H 0.40145 0.34752 0.17845 0.0
H1548 H 0.42903 0.33199 0.19835 0.0
H1549 H 0.32666 0.22968 0.15533 0.0
H1550 H 0.35666 0.20185 0.14159 0.0
H1551 H 0.34636 0.24581 0.13313 0.0
C1552 C 0.98574 0.30516 0.47212 0.0
C1553 C 0.02144 0.30573 0.46659 0.0
C1554 C 0.97573 0.30872 0.49206 0.0
C1555 C 0.002 0.31395 0.50675 0.0
C1556 C 0.03803 0.31544 0.50109 0.0
C1557 C 0.04728 0.31088 0.48117 0.0
C1558 C 0.93708 0.3063 0.49745 0.0
C1559 C 0.06685 0.32204 0.51608 0.0
C1560 C 0.97203 0.35617 0.55503 0.0
C1561 C 0.97072 0.32708 0.56784 0.0
C1562 C 0.98293 0.35241 0.53532 0.0
C1563 C 0.99183 0.31847 0.52798 0.0
C1564 C 0.99091 0.28899 0.54094 0.0
C1565 C 0.98079 0.29373 0.5608 0.0
C1566 C 0.98454 0.38476 0.52229 0.0
C1567 C -0.00048 0.25225 0.53369 0.0
H1568 H 0.96578 0.30083 0.4609 0.0
H1569 H 0.07488 0.31167 0.47689 0.0
H1570 H 0.93306 0.28477 0.50835 0.0
H1571 H 0.92832 0.33128 0.50451 0.0
H1572 H 0.92003 0.30115 0.48442 0.0
H1573 H 0.09349 0.32339 0.50921 0.0
H1574 H 0.06173 0.34725 0.52396 0.0
H1575 H 0.06693 0.30067 0.52728 0.0
H1576 H 0.96428 0.38196 0.56051 0.0
H1577 H 0.97924 0.27118 0.57061 0.0
H1578 H 0.96523 0.38219 0.51005 0.0
H1579 H 0.01119 0.38713 0.51556 0.0
H1580 H 0.97865 0.40947 0.53052 0.0
H1581 H 0.98109 0.24487 0.52162 0.0
H1582 H -0.00242 0.23213 0.54558 0.0
H1583 H 0.02666 0.25157 0.5275 0.0
C1584 C 0.69204 0.937 0.55828 0.0
C1585 C 0.67885 0.9601 0.57271 0.0
C1586 C 0.69608 0.94776 0.53858 0.0
C1587 C 0.68598 0.98238 0.53296 0.0
C1588 C 0.67297 0.00604 0.54753 0.0
C1589 C 0.66994 0.99473 0.56729 0.0
C1590 C 0.71096 0.92192 0.52376 0.0
C1591 C 0.66145 0.04301 0.54213 0.0
C1592 C 0.72334 0.02071 0.48528 0.0
C1593 C 0.69598 0.01421 0.47178 0.0
C1594 C 0.72055 0.01031 0.50513 0.0
C1595 C 0.68923 0.99366 0.51185 0.0
C1596 C 0.66147 0.98698 0.49824 0.0
C1597 C 0.66534 -0.00303 0.47832 0.0
C1598 C 0.75119 0.01712 0.51892 0.0
C1599 C 0.62741 0.96981 0.5048 0.0
H1600 H 0.69926 0.91031 0.5625 0.0
H1601 H 0.65942 0.01249 0.57838 0.0
H1602 H 0.69103 0.91643 0.51215 0.0
H1603 H 0.73442 0.93354 0.51638 0.0
H1604 H 0.71883 0.89645 0.53066 0.0
H1605 H 0.65185 0.05814 0.55512 0.0
H1606 H 0.68376 0.05764 0.53535 0.0
H1607 H 0.63994 0.04179 0.53101 0.0
H1608 H 0.74709 0.03392 0.48021 0.0
H1609 H 0.64394 0.99245 0.46799 0.0
H1610 H 0.76021 0.99187 0.52559 0.0
H1611 H 0.74265 0.03458 0.53117 0.0
H1612 H 0.77396 0.02969 0.51131 0.0
H1613 H 0.63288 0.94307 0.51078 0.0
H1614 H 0.608 0.96735 0.49256 0.0
H1615 H 0.61527 0.98555 0.51684 0.0
C1616 C 0.01512 0.64598 0.5564 0.0
C1617 C 0.01934 0.67516 0.56894 0.0
C1618 C 0.00333 0.65014 0.53687 0.0
C1619 C -0.00347 0.6845 0.52944 0.0
C1620 C 0.00025 0.71408 0.54218 0.0
C1621 C 0.01116 0.70898 0.56188 0.0
C1622 C -0.00131 0.61775 0.5241 0.0
C1623 C 0.99398 0.75121 0.5348 0.0
C1624 C 0.0021 0.69568 0.47347 0.0
C1625 C 0.96633 0.69757 0.46817 0.0
C1626 C 0.01232 0.69214 0.49337 0.0
C1627 C 0.98611 0.68936 0.50828 0.0
C1628 C 0.94992 0.69047 0.50288 0.0
C1629 C 0.94052 0.69505 0.48297 0.0
C1630 C 0.05118 0.69183 0.49847 0.0
C1631 C 0.92108 0.68647 0.51812 0.0
H1632 H 0.0214 0.61982 0.56192 0.0
H1633 H 0.01492 0.73153 0.57152 0.0
H1634 H 0.97177 0.61743 0.51758 0.0
H1635 H 0.01784 0.61843 0.51172 0.0
H1636 H 0.00274 0.59282 0.53248 0.0
H1637 H -0.00246 0.77131 0.54658 0.0
H1638 H 0.01263 0.75714 0.5226 0.0
H1639 H 0.96682 0.75367 0.52876 0.0
H1640 H 0.02204 0.698 0.46207 0.0
H1641 H 0.91284 0.69618 0.47886 0.0
H1642 H 0.05831 0.66632 0.50551 0.0
H1643 H 0.05704 0.71307 0.50929 0.0
H1644 H 0.06822 0.69566 0.4853 0.0
H1645 H 0.92437 0.66104 0.52609 0.0
H1646 H 0.89423 0.68717 0.51147 0.0
H1647 H 0.92305 0.70793 0.52922 0.0
C1648 C 0.32092 0.99078 0.56632 0.0
C1649 C 0.31897 0.02688 0.57093 0.0
C1650 C 0.31652 0.97889 0.54674 0.0
C1651 C 0.30959 0.00365 0.53149 0.0
C1652 C 0.30693 0.04002 0.53619 0.0
C1653 C 0.31169 0.05112 0.55576 0.0
C1654 C 0.31967 0.93991 0.54234 0.0
C1655 C 0.29901 0.06732 0.52052 0.0
C1656 C 0.32752 0.98209 0.47737 0.0
C1657 C 0.29355 0.9737 0.47044 0.0
C1658 C 0.33331 0.99098 0.49729 0.0
C1659 C 0.30442 0.99181 0.51062 0.0
C1660 C 0.27011 0.98332 0.50371 0.0
C1661 C 0.26514 0.97434 0.48378 0.0
C1662 C 0.37033 -0.00027 0.50405 0.0
C1663 C 0.23847 0.98437 0.51729 0.0
H1664 H 0.32672 0.97199 0.57794 0.0
H1665 H 0.30943 0.07898 0.55924 0.0
H1666 H 0.29483 0.93012 0.53555 0.0
H1667 H 0.34122 0.9354 0.53152 0.0
H1668 H 0.32524 0.92406 0.55579 0.0
H1669 H 0.29767 0.09457 0.52662 0.0
H1670 H 0.31972 0.0666 0.50894 0.0
H1671 H 0.27342 0.06121 0.51327 0.0
H1672 H 0.34968 0.98124 0.46726 0.0
H1673 H 0.23873 0.96842 0.47856 0.0
H1674 H 0.37788 0.98248 0.51661 0.0
H1675 H 0.37137 0.02745 0.50938 0.0
H1676 H 0.39016 -0.00354 0.49209 0.0
H1677 H 0.24306 0.9671 0.53026 0.0
H1678 H 0.21377 0.97574 0.50982 0.0
H1679 H 0.23458 0.01166 0.52289 0.0
C1680 C 0.48747 0.80346 0.97782 0.0
C1681 C 0.52377 0.80641 0.97381 0.0
C1682 C 0.47478 0.80378 0.9974 0.0
C1683 C 0.49897 0.80672 1.01334 0.0
C1684 C 0.53536 0.8115 1.00929 0.0
C1685 C 0.54715 0.81169 0.98968 0.0
C1686 C 0.43566 0.79943 1.00106 0.0
C1687 C 0.56223 0.81453 0.02571 0.0
C1688 C 0.47091 0.82539 0.0665 0.0
C1689 C 0.47022 0.79122 0.07455 0.0
C1690 C 0.47888 0.83087 0.04641 0.0
C1691 C 0.48713 0.80154 0.0342 0.0
C1692 C 0.48653 0.76703 0.04234 0.0
C1693 C 0.47782 0.76231 0.0623 0.0
C1694 C 0.4786 0.86802 0.03827 0.0
C1695 C 0.49598 0.73504 0.03007 0.0
H1696 H 0.46914 0.7995 0.96574 0.0
H1697 H 0.57509 0.8152 0.98682 0.0
H1698 H 0.43054 0.7729 1.00743 0.0
H1699 H 0.42628 0.81932 1.0119 0.0
H1700 H 0.41995 0.80213 0.98729 0.0
H1701 H 0.58927 0.8201 1.02011 0.0
H1702 H 0.55461 0.83586 0.0361 0.0
H1703 H 0.56298 0.78946 0.03422 0.0
H1704 H 0.4646 0.84776 0.07585 0.0
H1705 H 0.47769 0.7359 0.06849 0.0
H1706 H 0.46107 0.86944 0.02516 0.0
H1707 H 0.50556 0.87546 0.03336 0.0
H1708 H 0.46946 0.88769 0.04933 0.0
H1709 H 0.47858 0.73353 1.01692 0.0
H1710 H 0.49351 0.70996 0.03849 0.0
H1711 H 0.5236 0.73744 0.0247 0.0
C1712 C 0.22282 0.46571 0.05466 0.0
C1713 C 0.1971 0.47762 0.068 0.0
C1714 C 0.22247 0.47621 0.0348 0.0
C1715 C 0.19541 0.49897 0.02788 0.0
C1716 C 0.16957 0.51159 0.04135 0.0
C1717 C 0.17088 0.50097 0.06131 0.0
C1718 C 0.251 0.46261 0.02116 0.0
C1719 C 0.14008 0.53559 0.03457 0.0
C1720 C 0.21722 0.54735 0.98018 0.0
C1721 C 0.20236 0.52512 0.96575 0.0
C1722 C 0.21397 0.53993 1.00041 0.0
C1723 C 0.1949 0.50973 1.0066 0.0
C1724 C 0.17822 0.48814 0.99222 0.0
C1725 C 0.18224 0.49599 0.972 0.0
C1726 C 0.23232 0.56366 1.01513 0.0
C1727 C 0.15726 0.4559 0.99817 0.0
H1728 H 0.24324 0.44784 0.05983 0.0
H1729 H 0.15068 0.50982 0.07152 0.0
H1730 H 0.23892 0.44702 1.00905 0.0
H1731 H 0.26524 0.48513 1.01432 0.0
H1732 H 0.27054 0.44565 0.02894 0.0
H1733 H 0.12241 0.54357 0.04688 0.0
H1734 H 0.15117 0.55974 0.02766 0.0
H1735 H 0.12402 0.52196 0.02317 0.0
H1736 H 0.23195 0.57053 0.97571 0.0
H1737 H 0.1706 0.47858 0.96111 0.0
H1738 H 0.2538 0.54875 0.02258 0.0
H1739 H 0.2135 0.57232 0.02671 0.0
H1740 H 0.24398 0.58748 1.00809 0.0
H1741 H 0.1754 0.43559 1.00428 0.0
H1742 H 0.14269 0.44417 0.98553 0.0
H1743 H 0.13803 0.46276 1.00992 0.0
C1744 C 0.49289 0.16394 0.06625 0.0
C1745 C 0.51493 0.19157 0.07255 0.0
C1746 C 0.4823 0.16118 0.04633 0.0
C1747 C 0.49362 0.18692 0.03246 0.0
C1748 C 0.51523 0.21524 0.03893 0.0
C1749 C 0.52568 0.21709 0.05878 0.0
C1750 C 0.45951 0.13043 0.04006 0.0
C1751 C 0.52748 0.24366 0.02484 0.0
C1752 C 0.49557 0.17135 0.97675 0.0
C1753 C 0.46553 0.1901 0.97048 0.0
C1754 C 0.5042 0.16863 0.99694 0.0
C1755 C 0.4824 0.18516 1.01127 0.0
C1756 C 0.4513 0.20282 1.00509 0.0
C1757 C 0.4432 0.20489 0.98489 0.0
C1758 C 0.53744 0.14925 1.00289 0.0
C1759 C 0.42724 0.22085 1.01975 0.0
H1760 H 0.4849 0.1439 0.07676 0.0
H1761 H 0.54242 0.23867 0.06361 0.0
H1762 H 0.4345 0.14024 0.03346 0.0
H1763 H 0.47335 0.11484 0.02853 0.0
H1764 H 0.45298 0.11262 0.05257 0.0
H1765 H 0.54404 0.264 0.03221 0.0
H1766 H 0.54306 0.23164 1.0127 0.0
H1767 H 0.50427 0.25693 1.01806 0.0
H1768 H 0.51305 0.15983 0.96585 0.0
H1769 H 0.41939 0.21859 0.98038 0.0
H1770 H 0.53168 0.13022 1.01492 0.0
H1771 H 0.55712 0.16843 1.00862 0.0
H1772 H 0.54948 0.13469 0.99034 0.0
H1773 H 0.41958 0.20218 0.03162 0.0
H1774 H 0.40282 0.23134 1.01275 0.0
H1775 H 0.44149 0.24315 0.02683 0.0
C1776 C 0.81907 0.49518 0.97569 0.0
C1777 C 0.80725 0.46091 0.97124 0.0
C1778 C 0.81715 0.50857 0.99511 0.0
C1779 C 0.80307 0.48723 1.01044 0.0
C1780 C 0.79057 0.45291 1.00591 0.0
C1781 C 0.79264 0.44035 0.98646 0.0
C1782 C 0.8305 0.54542 0.99928 0.0
C1783 C 0.77509 0.42925 0.02166 0.0
C1784 C 0.8236 0.50489 0.06482 0.0
C1785 C 0.79239 0.52138 0.07129 0.0
C1786 C 0.82788 0.49448 0.04498 0.0
C1787 C 0.80035 0.50075 0.03118 0.0
C1788 C 0.76901 0.51771 0.03756 0.0
C1789 C 0.76535 0.52759 0.05745 0.0
C1790 C 0.86167 0.4763 0.03884 0.0
C1791 C 0.73888 0.52479 0.02345 0.0
H1792 H 0.83059 0.51118 0.9641 0.0
H1793 H 0.78269 0.41416 0.98317 0.0
H1794 H 0.809 0.56168 1.00576 0.0
H1795 H 0.85221 0.54433 1.01028 0.0
H1796 H 0.8404 0.5588 0.98578 0.0
H1797 H 0.76704 0.40304 1.01578 0.0
H1798 H 0.79471 0.42508 0.03361 0.0
H1799 H 0.75161 0.44208 0.02837 0.0
H1800 H 0.84487 0.50031 0.07521 0.0
H1801 H 0.74085 0.53968 0.06218 0.0
H1802 H 0.87391 0.49058 0.02629 0.0
H1803 H 0.85572 0.44906 0.03373 0.0
H1804 H 0.88118 0.47474 0.05108 0.0
H1805 H 0.7486 0.53944 1.01036 0.0
H1806 H 0.71724 0.54029 0.03039 0.0
H1807 H 0.7278 0.49936 1.01812 0.0
loop_
_geom_bond_atom_site_label_1
_geom_bond_atom_site_label_2
_geom_bond_distance
_geom_bond_site_symmetry_2
_ccdc_geom_bond_type
Co0 N4 2.148 . S
Co0 N10 2.128 . S
Co0 N20 2.194 . S
Co0 O25 2.351 . S
Co0 O26 2.155 . S
Co0 O27 2.096 1_455 S
C1 N4 1.301 . S
C1 N5 1.328 . S
C1 H6 0.930 . S
C2 C3 1.333 . S
C2 N4 1.317 . S
C2 H7 0.930 1_455 S
C3 C2 1.333 . S
C3 N5 1.350 . S
C3 H29 0.931 . S
N4 Co0 2.148 . S
N4 C1 1.301 . S
N4 C2 1.317 . S
N5 C1 1.328 . S
N5 C3 1.350 . S
H6 C1 0.930 . S
H7 C2 0.930 1_655 S
C8 O9 1.207 1_655 S
C8 O27 1.247 . S
O9 C8 1.207 1_455 S
N10 Co0 2.128 . S
N10 C11 1.355 . S
N10 C13 1.311 . S
C11 N10 1.355 . S
C11 C12 1.363 . S
C11 H23 0.929 . S
C12 C11 1.363 . S
C12 N14 1.375 . S
C12 H30 0.931 . S
C13 N10 1.311 . S
C13 N14 1.347 . S
C13 H24 0.929 1_455 S
N14 C12 1.375 . S
N14 C13 1.347 . S
C15 C18 1.365 . S
C15 N20 1.328 . S
C15 H21 0.929 . S
C16 C17 1.362 . S
C16 C19 1.378 . S
C16 H31 0.929 . S
C17 C16 1.362 . S
C17 C18 1.366 . S
C18 C15 1.365 . S
C18 C17 1.366 . S
C18 H32 0.930 . S
C19 C16 1.378 . S
C19 N20 1.315 . S
C19 H22 0.930 . S
N20 Co0 2.194 . S
N20 C15 1.328 . S
N20 C19 1.315 . S
H21 C15 0.929 . S
H22 C19 0.930 . S
H23 C11 0.929 . S
H24 C13 0.929 1_655 S
O25 Co0 2.351 . S
O25 C28 1.244 . S
O26 Co0 2.155 . S
O26 C28 1.240 . S
O27 Co0 2.096 1_655 S
O27 C8 1.247 . S
C28 O25 1.244 . S
C28 O26 1.240 . S
H29 C3 0.931 . S
H30 C12 0.931 . S
H31 C16 0.929 . S
H32 C18 0.930 . S
Co33 N37 2.148 . S
Co33 N43 2.128 . S
Co33 N53 2.194 . S
Co33 O58 2.351 . S
Co33 O59 2.155 . S
Co33 O60 2.096 1_545 S
C34 N37 1.301 . S
C34 N38 1.328 . S
C34 H39 0.930 . S
C35 C36 1.333 . S
C35 N37 1.317 . S
C35 H40 0.930 1_545 S
C36 C35 1.333 . S
C36 N38 1.350 . S
C36 H62 0.931 . S
N37 Co33 2.148 . S
N37 C34 1.301 . S
N37 C35 1.317 . S
N38 C34 1.328 . S
N38 C36 1.350 . S
H39 C34 0.930 . S
H40 C35 0.930 1_565 S
C41 O42 1.207 1_565 S
C41 O60 1.247 . S
O42 C41 1.207 1_545 S
N43 Co33 2.128 . S
N43 C44 1.355 . S
N43 C46 1.311 . S
C44 N43 1.355 . S
C44 C45 1.363 . S
C44 H56 0.929 . S
C45 C44 1.363 . S
C45 N47 1.375 . S
C45 H63 0.931 . S
C46 N43 1.311 . S
C46 N47 1.347 . S
C46 H57 0.929 1_545 S
N47 C45 1.375 . S
N47 C46 1.347 . S
C48 C51 1.365 . S
C48 N53 1.328 . S
C48 H54 0.929 . S
C49 C50 1.362 . S
C49 C52 1.378 . S
C49 H64 0.929 . S
C50 C49 1.362 . S
C50 C51 1.366 . S
C51 C48 1.365 . S
C51 C50 1.366 . S
C51 H65 0.930 . S
C52 C49 1.378 . S
C52 N53 1.315 . S
C52 H55 0.930 . S
N53 Co33 2.194 . S
N53 C48 1.328 . S
N53 C52 1.315 . S
H54 C48 0.929 . S
H55 C52 0.930 . S
H56 C44 0.929 . S
H57 C46 0.929 1_565 S
O58 Co33 2.351 . S
O58 C61 1.244 . S
O59 Co33 2.155 . S
O59 C61 1.240 . S
O60 Co33 2.096 1_565 S
O60 C41 1.247 . S
C61 O58 1.244 . S
C61 O59 1.240 . S
H62 C36 0.931 . S
H63 C45 0.931 . S
H64 C49 0.929 . S
H65 C51 0.930 . S
Co66 N70 2.148 . S
Co66 N76 2.128 . S
Co66 N86 2.194 . S
Co66 O91 2.351 . S
Co66 O92 2.155 . S
Co66 O93 2.096 1_655 S
C67 N70 1.301 . S
C67 N71 1.328 . S
C67 H72 0.930 . S
C68 C69 1.333 . S
C68 N70 1.317 . S
C68 H73 0.930 1_655 S
C69 C68 1.333 . S
C69 N71 1.350 . S
C69 H95 0.931 . S
N70 Co66 2.148 . S
N70 C67 1.301 . S
N70 C68 1.317 . S
N71 C67 1.328 . S
N71 C69 1.350 . S
H72 C67 0.930 . S
H73 C68 0.930 1_455 S
C74 O75 1.207 1_455 S
C74 O93 1.247 . S
O75 C74 1.207 1_655 S
N76 Co66 2.128 . S
N76 C77 1.355 . S
N76 C79 1.311 . S
C77 N76 1.355 . S
C77 C78 1.363 . S
C77 H89 0.929 . S
C78 C77 1.363 . S
C78 N80 1.375 . S
C78 H96 0.931 . S
C79 N76 1.311 . S
C79 N80 1.347 . S
C79 H90 0.929 1_655 S
N80 C78 1.375 . S
N80 C79 1.347 . S
C81 C84 1.365 . S
C81 N86 1.328 . S
C81 H87 0.929 . S
C82 C83 1.362 . S
C82 C85 1.378 . S
C82 H97 0.929 . S
C83 C82 1.362 . S
C83 C84 1.366 . S
C84 C81 1.365 . S
C84 C83 1.366 . S
C84 H98 0.930 . S
C85 C82 1.378 . S
C85 N86 1.315 . S
C85 H88 0.930 . S
N86 Co66 2.194 . S
N86 C81 1.328 . S
N86 C85 1.315 . S
H87 C81 0.929 . S
H88 C85 0.930 . S
H89 C77 0.929 . S
H90 C79 0.929 1_455 S
O91 Co66 2.351 . S
O91 C94 1.244 . S
O92 Co66 2.155 . S
O92 C94 1.240 . S
O93 Co66 2.096 1_455 S
O93 C74 1.247 . S
C94 O91 1.244 . S
C94 O92 1.240 . S
H95 C69 0.931 . S
H96 C78 0.931 . S
H97 C82 0.929 . S
H98 C84 0.930 . S
Co99 N103 2.148 . S
Co99 N109 2.128 . S
Co99 N119 2.194 . S
Co99 O124 2.351 . S
Co99 O125 2.155 . S
Co99 O126 2.096 1_565 S
C100 N103 1.301 . S
C100 N104 1.328 . S
C100 H105 0.930 . S
C101 C102 1.333 . S
C101 N103 1.317 . S
C101 H106 0.930 1_565 S
C102 C101 1.333 . S
C102 N104 1.350 . S
C102 H128 0.931 . S
N103 Co99 2.148 . S
N103 C100 1.301 . S
N103 C101 1.317 . S
N104 C100 1.328 . S
N104 C102 1.350 . S
H105 C100 0.930 . S
H106 C101 0.930 1_545 S
C107 O108 1.207 1_545 S
C107 O126 1.247 . S
O108 C107 1.207 1_565 S
N109 Co99 2.128 . S
N109 C110 1.355 . S
N109 C112 1.311 . S
C110 N109 1.355 . S
C110 C111 1.363 . S
C110 H122 0.929 . S
C111 C110 1.363 . S
C111 N113 1.375 . S
C111 H129 0.931 . S
C112 N109 1.311 . S
C112 N113 1.347 . S
C112 H123 0.929 1_565 S
N113 C111 1.375 . S
N113 C112 1.347 . S
C114 C117 1.365 . S
C114 N119 1.328 . S
C114 H120 0.929 . S
C115 C116 1.362 . S
C115 C118 1.378 . S
C115 H130 0.929 . S
C116 C115 1.362 . S
C116 C117 1.366 . S
C117 C114 1.365 . S
C117 C116 1.366 . S
C117 H131 0.930 . S
C118 C115 1.378 . S
C118 N119 1.315 . S
C118 H121 0.930 . S
N119 Co99 2.194 . S
N119 C114 1.328 . S
N119 C118 1.315 . S
H120 C114 0.929 . S
H121 C118 0.930 . S
H122 C110 0.929 . S
H123 C112 0.929 1_545 S
O124 Co99 2.351 . S
O124 C127 1.244 . S
O125 Co99 2.155 . S
O125 C127 1.240 . S
O126 Co99 2.096 1_545 S
O126 C107 1.247 . S
C127 O124 1.244 . S
C127 O125 1.240 . S
H128 C102 0.931 . S
H129 C111 0.931 . S
H130 C115 0.929 . S
H131 C117 0.930 . S
Co132 N136 2.148 . S
Co132 N142 2.128 . S
Co132 N152 2.194 . S
Co132 O157 2.351 . S
Co132 O158 2.155 . S
Co132 O159 2.096 1_455 S
C133 N136 1.301 . S
C133 N137 1.328 . S
C133 H138 0.930 . S
C134 C135 1.333 . S
C134 N136 1.317 . S
C134 H139 0.930 1_455 S
C135 C134 1.333 . S
C135 N137 1.350 . S
C135 H161 0.931 . S
N136 Co132 2.148 . S
N136 C133 1.301 . S
N136 C134 1.317 . S
N137 C133 1.328 . S
N137 C135 1.350 . S
H138 C133 0.930 . S
H139 C134 0.930 1_655 S
C140 O141 1.207 1_655 S
C140 O159 1.247 . S
O141 C140 1.207 1_455 S
N142 Co132 2.128 . S
N142 C143 1.355 . S
N142 C145 1.311 . S
C143 N142 1.355 . S
C143 C144 1.363 . S
C143 H155 0.929 . S
C144 C143 1.363 . S
C144 N146 1.375 . S
C144 H162 0.931 . S
C145 N142 1.311 . S
C145 N146 1.347 . S
C145 H156 0.929 1_455 S
N146 C144 1.375 . S
N146 C145 1.347 . S
C147 C150 1.365 . S
C147 N152 1.328 . S
C147 H153 0.929 . S
C148 C149 1.362 . S
C148 C151 1.378 . S
C148 H163 0.929 . S
C149 C148 1.362 . S
C149 C150 1.366 . S
C150 C147 1.365 . S
C150 C149 1.366 . S
C150 H164 0.930 . S
C151 C148 1.378 . S
C151 N152 1.315 . S
C151 H154 0.930 . S
N152 Co132 2.194 . S
N152 C147 1.328 . S
N152 C151 1.315 . S
H153 C147 0.929 . S
H154 C151 0.930 . S
H155 C143 0.929 . S
H156 C145 0.929 1_655 S
O157 Co132 2.351 . S
O157 C160 1.244 . S
O158 Co132 2.155 . S
O158 C160 1.240 . S
O159 Co132 2.096 1_655 S
O159 C140 1.247 . S
C160 O157 1.244 . S
C160 O158 1.240 . S
H161 C135 0.931 . S
H162 C144 0.931 . S
H163 C148 0.929 . S
H164 C150 0.930 . S
Co165 N169 2.148 . S
Co165 N175 2.128 . S
Co165 N185 2.194 . S
Co165 O190 2.351 . S
Co165 O191 2.155 . S
Co165 O192 2.096 1_545 S
C166 N169 1.301 . S
C166 N170 1.328 . S
C166 H171 0.930 . S
C167 C168 1.333 . S
C167 N169 1.317 . S
C167 H172 0.930 1_545 S
C168 C167 1.333 . S
C168 N170 1.350 . S
C168 H194 0.931 . S
N169 Co165 2.148 . S
N169 C166 1.301 . S
N169 C167 1.317 . S
N170 C166 1.328 . S
N170 C168 1.350 . S
H171 C166 0.930 . S
H172 C167 0.930 1_565 S
C173 O174 1.207 1_565 S
C173 O192 1.247 . S
O174 C173 1.207 1_545 S
N175 Co165 2.128 . S
N175 C176 1.355 . S
N175 C178 1.311 . S
C176 N175 1.355 . S
C176 C177 1.363 . S
C176 H188 0.929 . S
C177 C176 1.363 . S
C177 N179 1.375 . S
C177 H195 0.931 . S
C178 N175 1.311 . S
C178 N179 1.347 . S
C178 H189 0.929 1_545 S
N179 C177 1.375 . S
N179 C178 1.347 . S
C180 C183 1.365 . S
C180 N185 1.328 . S
C180 H186 0.929 . S
C181 C182 1.362 . S
C181 C184 1.378 . S
C181 H196 0.929 . S
C182 C181 1.362 . S
C182 C183 1.366 . S
C183 C180 1.365 . S
C183 C182 1.366 . S
C183 H197 0.930 . S
C184 C181 1.378 . S
C184 N185 1.315 . S
C184 H187 0.930 . S
N185 Co165 2.194 . S
N185 C180 1.328 . S
N185 C184 1.315 . S
H186 C180 0.929 . S
H187 C184 0.930 . S
H188 C176 0.929 . S
H189 C178 0.929 1_565 S
O190 Co165 2.351 . S
O190 C193 1.244 . S
O191 Co165 2.155 . S
O191 C193 1.240 . S
O192 Co165 2.096 1_565 S
O192 C173 1.247 . S
C193 O190 1.244 . S
C193 O191 1.240 . S
H194 C168 0.931 . S
H195 C177 0.931 . S
H196 C181 0.929 . S
H197 C183 0.930 . S
Co198 N202 2.148 . S
Co198 N208 2.128 . S
Co198 N218 2.194 . S
Co198 O223 2.351 . S
Co198 O224 2.155 . S
Co198 O225 2.096 1_655 S
C199 N202 1.301 . S
C199 N203 1.328 . S
C199 H204 0.930 . S
C200 C201 1.333 . S
C200 N202 1.317 . S
C200 H205 0.930 1_655 S
C201 C200 1.333 . S
C201 N203 1.350 . S
C201 H227 0.931 . S
N202 Co198 2.148 . S
N202 C199 1.301 . S
N202 C200 1.317 . S
N203 C199 1.328 . S
N203 C201 1.350 . S
H204 C199 0.930 . S
H205 C200 0.930 1_455 S
C206 O207 1.207 1_455 S
C206 O225 1.247 . S
O207 C206 1.207 1_655 S
N208 Co198 2.128 . S
N208 C209 1.355 . S
N208 C211 1.311 . S
C209 N208 1.355 . S
C209 C210 1.363 . S
C209 H221 0.929 . S
C210 C209 1.363 . S
C210 N212 1.375 . S
C210 H228 0.931 . S
C211 N208 1.311 . S
C211 N212 1.347 . S
C211 H222 0.929 1_655 S
N212 C210 1.375 . S
N212 C211 1.347 . S
C213 C216 1.365 . S
C213 N218 1.328 . S
C213 H219 0.929 . S
C214 C215 1.362 . S
C214 C217 1.378 . S
C214 H229 0.929 . S
C215 C214 1.362 . S
C215 C216 1.366 . S
C216 C213 1.365 . S
C216 C215 1.366 . S
C216 H230 0.930 . S
C217 C214 1.378 . S
C217 N218 1.315 . S
C217 H220 0.930 . S
N218 Co198 2.194 . S
N218 C213 1.328 . S
N218 C217 1.315 . S
H219 C213 0.929 . S
H220 C217 0.930 . S
H221 C209 0.929 . S
H222 C211 0.929 1_455 S
O223 Co198 2.351 . S
O223 C226 1.244 . S
O224 Co198 2.155 . S
O224 C226 1.240 . S
O225 Co198 2.096 1_455 S
O225 C206 1.247 . S
C226 O223 1.244 . S
C226 O224 1.240 . S
H227 C201 0.931 . S
H228 C210 0.931 . S
H229 C214 0.929 . S
H230 C216 0.930 . S
Co231 N235 2.148 . S
Co231 N241 2.128 . S
Co231 N251 2.194 . S
Co231 O256 2.351 . S
Co231 O257 2.155 . S
Co231 O258 2.096 1_565 S
C232 N235 1.301 . S
C232 N236 1.328 . S
C232 H237 0.930 . S
C233 C234 1.333 . S
C233 N235 1.317 . S
C233 H238 0.930 1_565 S
C234 C233 1.333 . S
C234 N236 1.350 . S
C234 H260 0.931 . S
N235 Co231 2.148 . S
N235 C232 1.301 . S
N235 C233 1.317 . S
N236 C232 1.328 . S
N236 C234 1.350 . S
H237 C232 0.930 . S
H238 C233 0.930 1_545 S
C239 O240 1.207 1_545 S
C239 O258 1.247 . S
O240 C239 1.207 1_565 S
N241 Co231 2.128 . S
N241 C242 1.355 . S
N241 C244 1.311 . S
C242 N241 1.355 . S
C242 C243 1.363 . S
C242 H254 0.929 . S
C243 C242 1.363 . S
C243 N245 1.375 . S
C243 H261 0.931 . S
C244 N241 1.311 . S
C244 N245 1.347 . S
C244 H255 0.929 1_565 S
N245 C243 1.375 . S
N245 C244 1.347 . S
C246 C249 1.365 . S
C246 N251 1.328 . S
C246 H252 0.929 . S
C247 C248 1.362 . S
C247 C250 1.378 . S
C247 H262 0.929 . S
C248 C247 1.362 . S
C248 C249 1.366 . S
C249 C246 1.365 . S
C249 C248 1.366 . S
C249 H263 0.930 . S
C250 C247 1.378 . S
C250 N251 1.315 . S
C250 H253 0.930 . S
N251 Co231 2.194 . S
N251 C246 1.328 . S
N251 C250 1.315 . S
H252 C246 0.929 . S
H253 C250 0.930 . S
H254 C242 0.929 . S
H255 C244 0.929 1_545 S
O256 Co231 2.351 . S
O256 C259 1.244 . S
O257 Co231 2.155 . S
O257 C259 1.240 . S
O258 Co231 2.096 1_545 S
O258 C239 1.247 . S
C259 O256 1.244 . S
C259 O257 1.240 . S
H260 C234 0.931 . S
H261 C243 0.931 . S
H262 C247 0.929 . S
H263 C249 0.930 . S
Co264 N268 2.148 . S
Co264 N274 2.128 . S
Co264 N284 2.194 . S
Co264 O289 2.351 . S
Co264 O290 2.155 . S
Co264 O291 2.096 . S
C265 N268 1.301 . S
C265 N269 1.328 . S
C265 H270 0.930 . S
C266 C267 1.333 . S
C266 N268 1.317 . S
C266 H271 0.930 . S
C267 C266 1.333 . S
C267 N269 1.350 . S
C267 H293 0.931 . S
N268 Co264 2.148 . S
N268 C265 1.301 . S
N268 C266 1.317 . S
N269 C265 1.328 . S
N269 C267 1.350 . S
H270 C265 0.930 . S
H271 C266 0.930 . S
C272 O273 1.224 . S
C272 O291 1.247 . S
O273 C272 1.224 . S
N274 Co264 2.128 . S
N274 C275 1.355 . S
N274 C277 1.311 . S
C275 N274 1.355 . S
C275 C276 1.363 . S
C275 H287 0.929 . S
C276 C275 1.363 . S
C276 N278 1.375 . S
C276 H294 0.931 . S
C277 N274 1.311 . S
C277 N278 1.347 . S
C277 H288 0.929 . S
N278 C276 1.375 . S
N278 C277 1.347 . S
C279 C282 1.365 . S
C279 N284 1.328 . S
C279 H285 0.929 . S
C280 C281 1.362 . S
C280 C283 1.378 . S
C280 H295 0.929 . S
C281 C280 1.362 . S
C281 C282 1.366 . S
C282 C279 1.365 . S
C282 C281 1.366 . S
C282 H296 0.930 . S
C283 C280 1.378 . S
C283 N284 1.315 . S
C283 H286 0.930 . S
N284 Co264 2.194 . S
N284 C279 1.328 . S
N284 C283 1.315 . S
H285 C279 0.929 . S
H286 C283 0.930 . S
H287 C275 0.929 . S
H288 C277 0.929 . S
O289 Co264 2.351 . S
O289 C292 1.244 . S
O290 Co264 2.155 . S
O290 C292 1.240 . S
O291 Co264 2.096 . S
O291 C272 1.247 . S
C292 O289 1.244 . S
C292 O290 1.240 . S
H293 C267 0.931 . S
H294 C276 0.931 . S
H295 C280 0.929 . S
H296 C282 0.930 . S
Co297 N301 2.148 . S
Co297 N307 2.128 . S
Co297 N317 2.194 . S
Co297 O322 2.351 . S
Co297 O323 2.155 . S
Co297 O324 2.096 . S
C298 N301 1.301 . S
C298 N302 1.328 . S
C298 H303 0.930 . S
C299 C300 1.333 . S
C299 N301 1.317 . S
C299 H304 0.930 . S
C300 C299 1.333 . S
C300 N302 1.350 . S
C300 H326 0.931 . S
N301 Co297 2.148 . S
N301 C298 1.301 . S
N301 C299 1.317 . S
N302 C298 1.328 . S
N302 C300 1.350 . S
H303 C298 0.930 . S
H304 C299 0.930 . S
C305 O306 1.224 . S
C305 O324 1.247 . S
O306 C305 1.224 . S
N307 Co297 2.128 . S
N307 C308 1.355 . S
N307 C310 1.311 . S
C308 N307 1.355 . S
C308 C309 1.363 . S
C308 H320 0.929 . S
C309 C308 1.363 . S
C309 N311 1.375 . S
C309 H327 0.931 . S
C310 N307 1.311 . S
C310 N311 1.347 . S
C310 H321 0.929 . S
N311 C309 1.375 . S
N311 C310 1.347 . S
C312 C315 1.365 . S
C312 N317 1.328 . S
C312 H318 0.929 . S
C313 C314 1.362 . S
C313 C316 1.378 . S
C313 H328 0.929 . S
C314 C313 1.362 . S
C314 C315 1.366 . S
C315 C312 1.365 . S
C315 C314 1.366 . S
C315 H329 0.930 . S
C316 C313 1.378 . S
C316 N317 1.315 . S
C316 H319 0.930 . S
N317 Co297 2.194 . S
N317 C312 1.328 . S
N317 C316 1.315 . S
H318 C312 0.929 . S
H319 C316 0.930 . S
H320 C308 0.929 . S
H321 C310 0.929 . S
O322 Co297 2.351 . S
O322 C325 1.244 . S
O323 Co297 2.155 . S
O323 C325 1.240 . S
O324 Co297 2.096 . S
O324 C305 1.247 . S
C325 O322 1.244 . S
C325 O323 1.240 . S
H326 C300 0.931 . S
H327 C309 0.931 . S
H328 C313 0.929 . S
H329 C315 0.930 . S
Co330 N334 2.148 . S
Co330 N340 2.128 . S
Co330 N350 2.194 . S
Co330 O355 2.351 . S
Co330 O356 2.155 . S
Co330 O357 2.096 . S
C331 N334 1.301 . S
C331 N335 1.328 . S
C331 H336 0.930 . S
C332 C333 1.333 . S
C332 N334 1.317 . S
C332 H337 0.930 . S
C333 C332 1.333 . S
C333 N335 1.350 . S
C333 H359 0.931 . S
N334 Co330 2.148 . S
N334 C331 1.301 . S
N334 C332 1.317 . S
N335 C331 1.328 . S
N335 C333 1.350 . S
H336 C331 0.930 . S
H337 C332 0.930 . S
C338 O339 1.224 . S
C338 O357 1.247 . S
O339 C338 1.224 . S
N340 Co330 2.128 . S
N340 C341 1.355 . S
N340 C343 1.311 . S
C341 N340 1.355 . S
C341 C342 1.363 . S
C341 H353 0.929 . S
C342 C341 1.363 . S
C342 N344 1.375 . S
C342 H360 0.931 . S
C343 N340 1.311 . S
C343 N344 1.347 . S
C343 H354 0.929 . S
N344 C342 1.375 . S
N344 C343 1.347 . S
C345 C348 1.365 . S
C345 N350 1.328 . S
C345 H351 0.929 . S
C346 C347 1.362 . S
C346 C349 1.378 . S
C346 H361 0.929 . S
C347 C346 1.362 . S
C347 C348 1.366 . S
C348 C345 1.365 . S
C348 C347 1.366 . S
C348 H362 0.930 . S
C349 C346 1.378 . S
C349 N350 1.315 . S
C349 H352 0.930 . S
N350 Co330 2.194 . S
N350 C345 1.328 . S
N350 C349 1.315 . S
H351 C345 0.929 . S
H352 C349 0.930 . S
H353 C341 0.929 . S
H354 C343 0.929 . S
O355 Co330 2.351 . S
O355 C358 1.244 . S
O356 Co330 2.155 . S
O356 C358 1.240 . S
O357 Co330 2.096 . S
O357 C338 1.247 . S
C358 O355 1.244 . S
C358 O356 1.240 . S
H359 C333 0.931 . S
H360 C342 0.931 . S
H361 C346 0.929 . S
H362 C348 0.930 . S
Co363 N367 2.148 . S
Co363 N373 2.128 . S
Co363 N383 2.194 . S
Co363 O388 2.351 . S
Co363 O389 2.155 . S
Co363 O390 2.096 . S
C364 N367 1.301 . S
C364 N368 1.328 . S
C364 H369 0.930 . S
C365 C366 1.333 . S
C365 N367 1.317 . S
C365 H370 0.930 . S
C366 C365 1.333 . S
C366 N368 1.350 . S
C366 H392 0.931 . S
N367 Co363 2.148 . S
N367 C364 1.301 . S
N367 C365 1.317 . S
N368 C364 1.328 . S
N368 C366 1.350 . S
H369 C364 0.930 . S
H370 C365 0.930 . S
C371 O372 1.224 . S
C371 O390 1.247 . S
O372 C371 1.224 . S
N373 Co363 2.128 . S
N373 C374 1.355 . S
N373 C376 1.311 . S
C374 N373 1.355 . S
C374 C375 1.363 . S
C374 H386 0.929 . S
C375 C374 1.363 . S
C375 N377 1.375 . S
C375 H393 0.931 . S
C376 N373 1.311 . S
C376 N377 1.347 . S
C376 H387 0.929 . S
N377 C375 1.375 . S
N377 C376 1.347 . S
C378 C381 1.365 . S
C378 N383 1.328 . S
C378 H384 0.929 . S
C379 C380 1.362 . S
C379 C382 1.378 . S
C379 H394 0.929 . S
C380 C379 1.362 . S
C380 C381 1.366 . S
C381 C378 1.365 . S
C381 C380 1.366 . S
C381 H395 0.930 . S
C382 C379 1.378 . S
C382 N383 1.315 . S
C382 H385 0.930 . S
N383 Co363 2.194 . S
N383 C378 1.328 . S
N383 C382 1.315 . S
H384 C378 0.929 . S
H385 C382 0.930 . S
H386 C374 0.929 . S
H387 C376 0.929 . S
O388 Co363 2.351 . S
O388 C391 1.244 . S
O389 Co363 2.155 . S
O389 C391 1.240 . S
O390 Co363 2.096 . S
O390 C371 1.247 . S
C391 O388 1.244 . S
C391 O389 1.240 . S
H392 C366 0.931 . S
H393 C375 0.931 . S
H394 C379 0.929 . S
H395 C381 0.930 . S
Co396 N400 2.148 . S
Co396 N406 2.128 . S
Co396 N416 2.194 . S
Co396 O421 2.351 . S
Co396 O422 2.155 . S
Co396 O423 2.096 . S
C397 N400 1.301 . S
C397 N401 1.328 . S
C397 H402 0.930 . S
C398 C399 1.333 . S
C398 N400 1.317 . S
C398 H403 0.930 . S
C399 C398 1.333 . S
C399 N401 1.350 . S
C399 H425 0.931 . S
N400 Co396 2.148 . S
N400 C397 1.301 . S
N400 C398 1.317 . S
N401 C397 1.328 . S
N401 C399 1.350 . S
H402 C397 0.930 . S
H403 C398 0.930 . S
C404 O405 1.224 . S
C404 O423 1.247 . S
O405 C404 1.224 . S
N406 Co396 2.128 . S
N406 C407 1.355 . S
N406 C409 1.311 . S
C407 N406 1.355 . S
C407 C408 1.363 . S
C407 H419 0.929 . S
C408 C407 1.363 . S
C408 N410 1.375 . S
C408 H426 0.931 . S
C409 N406 1.311 . S
C409 N410 1.347 . S
C409 H420 0.929 . S
N410 C408 1.375 . S
N410 C409 1.347 . S
C411 C414 1.365 . S
C411 N416 1.328 . S
C411 H417 0.929 . S
C412 C413 1.362 . S
C412 C415 1.378 . S
C412 H427 0.929 . S
C413 C412 1.362 . S
C413 C414 1.366 . S
C414 C411 1.365 . S
C414 C413 1.366 . S
C414 H428 0.930 . S
C415 C412 1.378 . S
C415 N416 1.315 . S
C415 H418 0.930 . S
N416 Co396 2.194 . S
N416 C411 1.328 . S
N416 C415 1.315 . S
H417 C411 0.929 . S
H418 C415 0.930 . S
H419 C407 0.929 . S
H420 C409 0.929 . S
O421 Co396 2.351 . S
O421 C424 1.244 . S
O422 Co396 2.155 . S
O422 C424 1.240 . S
O423 Co396 2.096 . S
O423 C404 1.247 . S
C424 O421 1.244 . S
C424 O422 1.240 . S
H425 C399 0.931 . S
H426 C408 0.931 . S
H427 C412 0.929 . S
H428 C414 0.930 . S
Co429 N433 2.148 . S
Co429 N439 2.128 . S
Co429 N449 2.194 . S
Co429 O454 2.351 . S
Co429 O455 2.155 . S
Co429 O456 2.096 . S
C430 N433 1.301 . S
C430 N434 1.328 . S
C430 H435 0.930 . S
C431 C432 1.333 . S
C431 N433 1.317 . S
C431 H436 0.930 . S
C432 C431 1.333 . S
C432 N434 1.350 . S
C432 H458 0.931 . S
N433 Co429 2.148 . S
N433 C430 1.301 . S
N433 C431 1.317 . S
N434 C430 1.328 . S
N434 C432 1.350 . S
H435 C430 0.930 . S
H436 C431 0.930 . S
C437 O438 1.224 . S
C437 O456 1.247 . S
O438 C437 1.224 . S
N439 Co429 2.128 . S
N439 C440 1.355 . S
N439 C442 1.311 . S
C440 N439 1.355 . S
C440 C441 1.363 . S
C440 H452 0.929 . S
C441 C440 1.363 . S
C441 N443 1.375 . S
C441 H459 0.931 . S
C442 N439 1.311 . S
C442 N443 1.347 . S
C442 H453 0.929 . S
N443 C441 1.375 . S
N443 C442 1.347 . S
C444 C447 1.365 . S
C444 N449 1.328 . S
C444 H450 0.929 . S
C445 C446 1.362 . S
C445 C448 1.378 . S
C445 H460 0.929 . S
C446 C445 1.362 . S
C446 C447 1.366 . S
C447 C444 1.365 . S
C447 C446 1.366 . S
C447 H461 0.930 . S
C448 C445 1.378 . S
C448 N449 1.315 . S
C448 H451 0.930 . S
N449 Co429 2.194 . S
N449 C444 1.328 . S
N449 C448 1.315 . S
H450 C444 0.929 . S
H451 C448 0.930 . S
H452 C440 0.929 . S
H453 C442 0.929 . S
O454 Co429 2.351 . S
O454 C457 1.244 . S
O455 Co429 2.155 . S
O455 C457 1.240 . S
O456 Co429 2.096 . S
O456 C437 1.247 . S
C457 O454 1.244 . S
C457 O455 1.240 . S
H458 C432 0.931 . S
H459 C441 0.931 . S
H460 C445 0.929 . S
H461 C447 0.930 . S
Co462 N466 2.148 . S
Co462 N472 2.128 . S
Co462 N482 2.194 . S
Co462 O487 2.351 . S
Co462 O488 2.155 . S
Co462 O489 2.096 . S
C463 N466 1.301 . S
C463 N467 1.328 . S
C463 H468 0.930 . S
C464 C465 1.333 . S
C464 N466 1.317 . S
C464 H469 0.930 . S
C465 C464 1.333 . S
C465 N467 1.350 . S
C465 H491 0.931 . S
N466 Co462 2.148 . S
N466 C463 1.301 . S
N466 C464 1.317 . S
N467 C463 1.328 . S
N467 C465 1.350 . S
H468 C463 0.930 . S
H469 C464 0.930 . S
C470 O471 1.224 . S
C470 O489 1.247 . S
O471 C470 1.224 . S
N472 Co462 2.128 . S
N472 C473 1.355 . S
N472 C475 1.311 . S
C473 N472 1.355 . S
C473 C474 1.363 . S
C473 H485 0.929 . S
C474 C473 1.363 . S
C474 N476 1.375 . S
C474 H492 0.931 . S
C475 N472 1.311 . S
C475 N476 1.347 . S
C475 H486 0.929 . S
N476 C474 1.375 . S
N476 C475 1.347 . S
C477 C480 1.365 . S
C477 N482 1.328 . S
C477 H483 0.929 . S
C478 C479 1.362 . S
C478 C481 1.378 . S
C478 H493 0.929 . S
C479 C478 1.362 . S
C479 C480 1.366 . S
C480 C477 1.365 . S
C480 C479 1.366 . S
C480 H494 0.930 . S
C481 C478 1.378 . S
C481 N482 1.315 . S
C481 H484 0.930 . S
N482 Co462 2.194 . S
N482 C477 1.328 . S
N482 C481 1.315 . S
H483 C477 0.929 . S
H484 C481 0.930 . S
H485 C473 0.929 . S
H486 C475 0.929 . S
O487 Co462 2.351 . S
O487 C490 1.244 . S
O488 Co462 2.155 . S
O488 C490 1.240 . S
O489 Co462 2.096 . S
O489 C470 1.247 . S
C490 O487 1.244 . S
C490 O488 1.240 . S
H491 C465 0.931 . S
H492 C474 0.931 . S
H493 C478 0.929 . S
H494 C480 0.930 . S
Co495 N499 2.148 . S
Co495 N505 2.128 . S
Co495 N515 2.194 . S
Co495 O520 2.351 . S
Co495 O521 2.155 . S
Co495 O522 2.096 . S
C496 N499 1.301 . S
C496 N500 1.328 . S
C496 H501 0.930 . S
C497 C498 1.333 . S
C497 N499 1.317 . S
C497 H502 0.930 . S
C498 C497 1.333 . S
C498 N500 1.350 . S
C498 H524 0.931 . S
N499 Co495 2.148 . S
N499 C496 1.301 . S
N499 C497 1.317 . S
N500 C496 1.328 . S
N500 C498 1.350 . S
H501 C496 0.930 . S
H502 C497 0.930 . S
C503 O504 1.224 . S
C503 O522 1.247 . S
O504 C503 1.224 . S
N505 Co495 2.128 . S
N505 C506 1.355 . S
N505 C508 1.311 . S
C506 N505 1.355 . S
C506 C507 1.363 . S
C506 H518 0.929 . S
C507 C506 1.363 . S
C507 N509 1.375 . S
C507 H525 0.931 . S
C508 N505 1.311 . S
C508 N509 1.347 . S
C508 H519 0.929 . S
N509 C507 1.375 . S
N509 C508 1.347 . S
C510 C513 1.365 . S
C510 N515 1.328 . S
C510 H516 0.929 . S
C511 C512 1.362 . S
C511 C514 1.378 . S
C511 H526 0.929 . S
C512 C511 1.362 . S
C512 C513 1.366 . S
C513 C510 1.365 . S
C513 C512 1.366 . S
C513 H527 0.930 . S
C514 C511 1.378 . S
C514 N515 1.315 . S
C514 H517 0.930 . S
N515 Co495 2.194 . S
N515 C510 1.328 . S
N515 C514 1.315 . S
H516 C510 0.929 . S
H517 C514 0.930 . S
H518 C506 0.929 . S
H519 C508 0.929 . S
O520 Co495 2.351 . S
O520 C523 1.244 . S
O521 Co495 2.155 . S
O521 C523 1.240 . S
O522 Co495 2.096 . S
O522 C503 1.247 . S
C523 O520 1.244 . S
C523 O521 1.240 . S
H524 C498 0.931 . S
H525 C507 0.931 . S
H526 C511 0.929 . S
H527 C513 0.930 . S
C528 C529 1.391 . S
C528 C530 1.394 1_655 S
C528 H544 0.931 1_655 S
C529 C528 1.391 . S
C529 C533 1.376 . S
C530 C528 1.394 1_455 S
C530 C531 1.369 1_455 S
C530 C534 1.531 . S
C531 C530 1.369 1_655 S
C531 C532 1.410 . S
C531 C539 1.503 1_655 S
C532 C531 1.410 . S
C532 C533 1.392 . S
C532 C535 1.511 . S
C533 C529 1.376 . S
C533 C532 1.392 . S
C533 H545 0.929 . S
C534 C530 1.531 . S
C534 H546 0.960 . S
C534 H547 0.962 . S
C534 H548 0.960 . S
C535 C532 1.511 . S
C535 H549 0.961 . S
C535 H550 0.961 . S
C535 H551 0.961 . S
C536 C537 1.370 . S
C536 C538 1.363 . S
C536 H552 0.931 . S
C537 C536 1.370 . S
C537 C541 1.408 . S
C538 C536 1.363 . S
C538 C539 1.370 . S
C538 C542 1.524 . S
C539 C531 1.503 1_455 S
C539 C538 1.370 . S
C539 C540 1.403 . S
C540 C539 1.403 . S
C540 C541 1.404 . S
C540 C543 1.539 1_455 S
C541 C537 1.408 . S
C541 C540 1.404 . S
C541 H553 0.930 . S
C542 C538 1.524 . S
C542 H554 0.956 . S
C542 H555 0.961 1_455 S
C542 H556 0.961 . S
C543 C540 1.539 1_655 S
C543 H557 0.958 1_655 S
C543 H558 0.961 . S
C543 H559 0.960 . S
H544 C528 0.931 1_455 S
H545 C533 0.929 . S
H546 C534 0.960 . S
H547 C534 0.962 . S
H548 C534 0.960 . S
H549 C535 0.961 . S
H550 C535 0.961 . S
H551 C535 0.961 . S
H552 C536 0.931 . S
H553 C541 0.930 . S
H554 C542 0.956 . S
H555 C542 0.961 1_655 S
H556 C542 0.961 . S
H557 C543 0.958 1_455 S
H558 C543 0.961 . S
H559 C543 0.960 . S
C560 C561 1.391 . S
C560 C562 1.394 . S
C560 H576 0.931 . S
C561 C560 1.391 . S
C561 C565 1.376 . S
C562 C560 1.394 . S
C562 C563 1.369 . S
C562 C566 1.531 . S
C563 C562 1.369 . S
C563 C564 1.410 1_545 S
C563 C571 1.503 1_545 S
C564 C563 1.410 1_565 S
C564 C565 1.392 1_565 S
C564 C567 1.511 . S
C565 C561 1.376 . S
C565 C564 1.392 1_545 S
C565 H577 0.929 1_545 S
C566 C562 1.531 . S
C566 H578 0.960 . S
C566 H579 0.962 . S
C566 H580 0.960 . S
C567 C564 1.511 . S
C567 H581 0.961 . S
C567 H582 0.961 . S
C567 H583 0.961 . S
C568 C569 1.370 . S
C568 C570 1.363 . S
C568 H584 0.931 . S
C569 C568 1.370 . S
C569 C573 1.408 . S
C570 C568 1.363 . S
C570 C571 1.370 . S
C570 C574 1.524 . S
C571 C563 1.503 1_565 S
C571 C570 1.370 . S
C571 C572 1.403 . S
C572 C571 1.403 . S
C572 C573 1.404 . S
C572 C575 1.539 1_565 S
C573 C569 1.408 . S
C573 C572 1.404 . S
C573 H585 0.930 . S
C574 C570 1.524 . S
C574 H586 0.956 1_565 S
C574 H587 0.961 . S
C574 H588 0.961 . S
C575 C572 1.539 1_545 S
C575 H589 0.958 . S
C575 H590 0.961 1_545 S
C575 H591 0.960 . S
H576 C560 0.931 . S
H577 C565 0.929 1_565 S
H578 C566 0.960 . S
H579 C566 0.962 . S
H580 C566 0.960 . S
H581 C567 0.961 . S
H582 C567 0.961 . S
H583 C567 0.961 . S
H584 C568 0.931 . S
H585 C573 0.930 . S
H586 C574 0.956 1_545 S
H587 C574 0.961 . S
H588 C574 0.961 . S
H589 C575 0.958 . S
H590 C575 0.961 1_565 S
H591 C575 0.960 . S
C592 C593 1.391 . S
C592 C594 1.394 1_655 S
C592 H608 0.931 1_655 S
C593 C592 1.391 . S
C593 C597 1.376 . S
C594 C592 1.394 1_455 S
C594 C595 1.369 1_455 S
C594 C598 1.531 . S
C595 C594 1.369 1_655 S
C595 C596 1.410 . S
C595 C603 1.503 1_655 S
C596 C595 1.410 . S
C596 C597 1.392 . S
C596 C599 1.511 . S
C597 C593 1.376 . S
C597 C596 1.392 . S
C597 H609 0.929 . S
C598 C594 1.531 . S
C598 H610 0.960 . S
C598 H611 0.962 . S
C598 H612 0.960 . S
C599 C596 1.511 . S
C599 H613 0.961 . S
C599 H614 0.961 . S
C599 H615 0.961 . S
C600 C601 1.370 . S
C600 C602 1.363 . S
C600 H616 0.931 . S
C601 C600 1.370 . S
C601 C605 1.408 . S
C602 C600 1.363 . S
C602 C603 1.370 . S
C602 C606 1.524 1_455 S
C603 C595 1.503 1_455 S
C603 C602 1.370 . S
C603 C604 1.403 . S
C604 C603 1.403 . S
C604 C605 1.404 . S
C604 C607 1.539 . S
C605 C601 1.408 . S
C605 C604 1.404 . S
C605 H617 0.930 . S
C606 C602 1.524 1_655 S
C606 H618 0.956 1_655 S
C606 H619 0.961 . S
C606 H620 0.961 . S
C607 C604 1.539 . S
C607 H621 0.958 . S
C607 H622 0.961 . S
C607 H623 0.960 . S
H608 C592 0.931 1_455 S
H609 C597 0.929 . S
H610 C598 0.960 . S
H611 C598 0.962 . S
H612 C598 0.960 . S
H613 C599 0.961 . S
H614 C599 0.961 . S
H615 C599 0.961 . S
H616 C600 0.931 . S
H617 C605 0.930 . S
H618 C606 0.956 1_455 S
H619 C606 0.961 . S
H620 C606 0.961 . S
H621 C607 0.958 . S
H622 C607 0.961 . S
H623 C607 0.960 . S
C624 C625 1.391 . S
C624 C626 1.394 . S
C624 H640 0.931 . S
C625 C624 1.391 . S
C625 C629 1.376 . S
C626 C624 1.394 . S
C626 C627 1.369 . S
C626 C630 1.531 . S
C627 C626 1.369 . S
C627 C628 1.410 1_565 S
C627 C635 1.503 1_565 S
C628 C627 1.410 1_545 S
C628 C629 1.392 1_545 S
C628 C631 1.511 . S
C629 C625 1.376 . S
C629 C628 1.392 1_565 S
C629 H641 0.941 . S
C630 C626 1.531 . S
C630 H642 0.960 . S
C630 H643 0.962 . S
C630 H644 0.960 . S
C631 C628 1.511 . S
C631 H645 0.961 . S
C631 H646 0.961 . S
C631 H647 0.961 . S
C632 C633 1.370 . S
C632 C634 1.363 . S
C632 H648 0.931 . S
C633 C632 1.370 . S
C633 C637 1.408 . S
C634 C632 1.363 . S
C634 C635 1.370 . S
C634 C638 1.524 . S
C635 C627 1.503 1_545 S
C635 C634 1.370 . S
C635 C636 1.403 . S
C636 C635 1.403 . S
C636 C637 1.404 . S
C636 C639 1.539 1_545 S
C637 C633 1.408 . S
C637 C636 1.404 . S
C637 H649 0.930 . S
C638 C634 1.524 . S
C638 H650 0.956 . S
C638 H651 0.961 . S
C638 H652 0.961 . S
C639 C636 1.539 1_565 S
C639 H653 0.958 . S
C639 H654 0.961 . S
C639 H655 0.960 . S
H640 C624 0.931 . S
H641 C629 0.941 . S
H642 C630 0.960 . S
H643 C630 0.962 . S
H644 C630 0.960 . S
H645 C631 0.961 . S
H646 C631 0.961 . S
H647 C631 0.961 . S
H648 C632 0.931 . S
H649 C637 0.930 . S
H650 C638 0.956 . S
H651 C638 0.961 . S
H652 C638 0.961 . S
H653 C639 0.958 . S
H654 C639 0.961 . S
H655 C639 0.960 . S
C656 C657 1.391 . S
C656 C658 1.394 . S
C656 H672 0.931 . S
C657 C656 1.391 . S
C657 C661 1.376 . S
C658 C656 1.394 . S
C658 C659 1.369 . S
C658 C662 1.531 . S
C659 C658 1.369 . S
C659 C660 1.410 . S
C659 C667 1.503 1_565 S
C660 C659 1.410 . S
C660 C661 1.392 . S
C660 C663 1.511 . S
C661 C657 1.376 . S
C661 C660 1.392 . S
C661 H673 0.929 . S
C662 C658 1.531 . S
C662 H674 0.945 1_565 S
C662 H675 0.962 1_565 S
C662 H676 0.960 . S
C663 C660 1.511 . S
C663 H677 0.961 . S
C663 H678 0.961 . S
C663 H679 0.961 . S
C664 C665 1.370 . S
C664 C666 1.363 . S
C664 H680 0.931 . S
C665 C664 1.370 . S
C665 C669 1.408 . S
C666 C664 1.363 . S
C666 C667 1.370 . S
C666 C670 1.524 . S
C667 C659 1.503 1_545 S
C667 C666 1.370 . S
C667 C668 1.403 . S
C668 C667 1.403 . S
C668 C669 1.404 . S
C668 C671 1.539 1_545 S
C669 C665 1.408 . S
C669 C668 1.404 . S
C669 H681 0.930 . S
C670 C666 1.524 . S
C670 H682 0.956 . S
C670 H683 0.961 . S
C670 H684 0.961 . S
C671 C668 1.539 1_565 S
C671 H685 0.958 . S
C671 H686 0.961 . S
C671 H687 0.960 . S
H672 C656 0.931 . S
H673 C661 0.929 . S
H674 C662 0.945 1_545 S
H675 C662 0.962 1_545 S
H676 C662 0.960 . S
H677 C663 0.961 . S
H678 C663 0.961 . S
H679 C663 0.961 . S
H680 C664 0.931 . S
H681 C669 0.930 . S
H682 C670 0.956 . S
H683 C670 0.961 . S
H684 C670 0.961 . S
H685 C671 0.958 . S
H686 C671 0.961 . S
H687 C671 0.960 . S
C688 C689 1.391 . S
C688 C690 1.394 . S
C688 H704 0.931 . S
C689 C688 1.391 . S
C689 C693 1.376 . S
C690 C688 1.394 . S
C690 C691 1.369 . S
C690 C694 1.531 . S
C691 C690 1.369 . S
C691 C692 1.410 . S
C691 C699 1.503 1_655 S
C692 C691 1.410 . S
C692 C693 1.392 . S
C692 C695 1.511 1_655 S
C693 C689 1.376 . S
C693 C692 1.392 . S
C693 H705 0.929 . S
C694 C690 1.531 . S
C694 H706 0.960 . S
C694 H707 0.962 . S
C694 H708 0.960 . S
C695 C692 1.511 1_455 S
C695 H709 0.961 . S
C695 H710 0.961 . S
C695 H711 0.961 . S
C696 C697 1.370 . S
C696 C698 1.363 . S
C696 H712 0.931 . S
C697 C696 1.370 . S
C697 C701 1.408 . S
C698 C696 1.363 . S
C698 C699 1.370 . S
C698 C702 1.524 . S
C699 C691 1.503 1_455 S
C699 C698 1.370 . S
C699 C700 1.403 . S
C700 C699 1.403 . S
C700 C701 1.404 . S
C700 C703 1.539 . S
C701 C697 1.408 . S
C701 C700 1.404 . S
C701 H713 0.930 . S
C702 C698 1.524 . S
C702 H714 0.946 1_455 S
C702 H715 0.961 . S
C702 H716 0.961 . S
C703 C700 1.539 . S
C703 H717 0.958 1_455 S
C703 H718 0.961 . S
C703 H719 0.960 1_455 S
H704 C688 0.931 . S
H705 C693 0.929 . S
H706 C694 0.960 . S
H707 C694 0.962 . S
H708 C694 0.960 . S
H709 C695 0.961 . S
H710 C695 0.961 . S
H711 C695 0.961 . S
H712 C696 0.931 . S
H713 C701 0.930 . S
H714 C702 0.946 1_655 S
H715 C702 0.961 . S
H716 C702 0.961 . S
H717 C703 0.958 1_655 S
H718 C703 0.961 . S
H719 C703 0.960 1_655 S
C720 C721 1.391 . S
C720 C722 1.394 . S
C720 H736 0.931 . S
C721 C720 1.391 . S
C721 C725 1.376 . S
C722 C720 1.394 . S
C722 C723 1.369 . S
C722 C726 1.531 . S
C723 C722 1.369 . S
C723 C724 1.410 . S
C723 C731 1.503 1_565 S
C724 C723 1.410 . S
C724 C725 1.392 . S
C724 C727 1.511 1_565 S
C725 C721 1.376 . S
C725 C724 1.392 . S
C725 H737 0.929 . S
C726 C722 1.531 . S
C726 H738 0.960 . S
C726 H739 0.962 . S
C726 H740 0.960 . S
C727 C724 1.511 1_545 S
C727 H741 0.961 . S
C727 H742 0.961 . S
C727 H743 0.961 . S
C728 C729 1.370 . S
C728 C730 1.363 . S
C728 H744 0.931 . S
C729 C728 1.370 . S
C729 C733 1.408 . S
C730 C728 1.363 . S
C730 C731 1.370 . S
C730 C734 1.524 . S
C731 C723 1.503 1_545 S
C731 C730 1.370 . S
C731 C732 1.403 . S
C732 C731 1.403 . S
C732 C733 1.404 . S
C732 C735 1.539 . S
C733 C729 1.408 . S
C733 C732 1.404 . S
C733 H745 0.930 . S
C734 C730 1.524 . S
C734 H746 0.956 1_545 S
C734 H747 0.961 . S
C734 H748 0.961 . S
C735 C732 1.539 . S
C735 H749 0.958 . S
C735 H750 0.961 . S
C735 H751 0.960 . S
H736 C720 0.931 . S
H737 C725 0.929 . S
H738 C726 0.960 . S
H739 C726 0.962 . S
H740 C726 0.960 . S
H741 C727 0.961 . S
H742 C727 0.961 . S
H743 C727 0.961 . S
H744 C728 0.931 . S
H745 C733 0.930 . S
H746 C734 0.956 1_565 S
H747 C734 0.961 . S
H748 C734 0.961 . S
H749 C735 0.958 . S
H750 C735 0.961 . S
H751 C735 0.960 . S
C752 C753 1.391 . S
C752 C754 1.394 . S
C752 H768 0.931 . S
C753 C752 1.391 . S
C753 C757 1.376 . S
C754 C752 1.394 . S
C754 C755 1.369 . S
C754 C758 1.531 . S
C755 C754 1.369 . S
C755 C756 1.410 . S
C755 C763 1.503 1_655 S
C756 C755 1.410 . S
C756 C757 1.392 . S
C756 C759 1.511 . S
C757 C753 1.376 . S
C757 C756 1.392 . S
C757 H769 0.929 . S
C758 C754 1.531 . S
C758 H770 0.960 . S
C758 H771 0.962 . S
C758 H772 0.960 . S
C759 C756 1.511 . S
C759 H773 0.961 . S
C759 H774 0.961 1_655 S
C759 H775 0.961 . S
C760 C761 1.370 . S
C760 C762 1.363 . S
C760 H776 0.931 . S
C761 C760 1.370 . S
C761 C765 1.408 . S
C762 C760 1.363 . S
C762 C763 1.370 . S
C762 C766 1.524 . S
C763 C755 1.503 1_455 S
C763 C762 1.370 . S
C763 C764 1.403 . S
C764 C763 1.403 . S
C764 C765 1.404 . S
C764 C767 1.539 1_455 S
C765 C761 1.408 . S
C765 C764 1.404 . S
C765 H777 0.930 . S
C766 C762 1.524 . S
C766 H778 0.956 . S
C766 H779 0.961 . S
C766 H780 0.961 . S
C767 C764 1.539 1_655 S
C767 H781 0.958 . S
C767 H782 0.961 . S
C767 H783 0.960 . S
H768 C752 0.931 . S
H769 C757 0.929 . S
H770 C758 0.960 . S
H771 C758 0.962 . S
H772 C758 0.960 . S
H773 C759 0.961 . S
H774 C759 0.961 1_455 S
H775 C759 0.961 . S
H776 C760 0.931 . S
H777 C765 0.930 . S
H778 C766 0.956 . S
H779 C766 0.961 . S
H780 C766 0.961 . S
H781 C767 0.958 . S
H782 C767 0.961 . S
H783 C767 0.960 . S
C784 C785 1.391 . S
C784 C786 1.394 . S
C784 H800 0.931 . S
C785 C784 1.391 . S
C785 C789 1.376 . S
C786 C784 1.394 . S
C786 C787 1.369 . S
C786 C790 1.531 . S
C787 C786 1.369 . S
C787 C788 1.410 . S
C787 C795 1.503 . S
C788 C787 1.410 . S
C788 C789 1.392 . S
C788 C791 1.511 . S
C789 C785 1.376 . S
C789 C788 1.392 . S
C789 H801 0.929 . S
C790 C786 1.531 . S
C790 H802 0.960 . S
C790 H803 0.962 . S
C790 H804 0.960 . S
C791 C788 1.511 . S
C791 H805 0.961 . S
C791 H806 0.961 . S
C791 H807 0.961 . S
C792 C793 1.370 . S
C792 C794 1.363 . S
C792 H808 0.931 . S
C793 C792 1.370 . S
C793 C797 1.408 . S
C794 C792 1.363 . S
C794 C795 1.370 . S
C794 C798 1.524 . S
C795 C787 1.503 . S
C795 C794 1.370 . S
C795 C796 1.403 . S
C796 C795 1.403 . S
C796 C797 1.404 . S
C796 C799 1.539 . S
C797 C793 1.408 . S
C797 C796 1.404 . S
C797 H809 0.930 . S
C798 C794 1.524 . S
C798 H810 0.956 . S
C798 H811 0.961 . S
C798 H812 0.961 . S
C799 C796 1.539 . S
C799 H813 0.958 . S
C799 H814 0.961 . S
C799 H815 0.960 . S
H800 C784 0.931 . S
H801 C789 0.929 . S
H802 C790 0.960 . S
H803 C790 0.962 . S
H804 C790 0.960 . S
H805 C791 0.961 . S
H806 C791 0.961 . S
H807 C791 0.961 . S
H808 C792 0.931 . S
H809 C797 0.930 . S
H810 C798 0.956 . S
H811 C798 0.961 . S
H812 C798 0.961 . S
H813 C799 0.958 . S
H814 C799 0.961 . S
H815 C799 0.960 . S
C816 C817 1.391 . S
C816 C818 1.394 . S
C816 H832 0.931 . S
C817 C816 1.391 . S
C817 C821 1.376 . S
C818 C816 1.394 . S
C818 C819 1.369 . S
C818 C822 1.531 . S
C819 C818 1.369 . S
C819 C820 1.410 . S
C819 C827 1.503 . S
C820 C819 1.410 . S
C820 C821 1.392 . S
C820 C823 1.511 . S
C821 C817 1.376 . S
C821 C820 1.392 . S
C821 H833 0.929 . S
C822 C818 1.531 . S
C822 H834 0.960 . S
C822 H835 0.962 . S
C822 H836 0.960 . S
C823 C820 1.511 . S
C823 H837 0.961 . S
C823 H838 0.961 . S
C823 H839 0.961 . S
C824 C825 1.370 . S
C824 C826 1.363 . S
C824 H840 0.931 . S
C825 C824 1.370 . S
C825 C829 1.408 . S
C826 C824 1.363 . S
C826 C827 1.370 . S
C826 C830 1.524 . S
C827 C819 1.503 . S
C827 C826 1.370 . S
C827 C828 1.403 . S
C828 C827 1.403 . S
C828 C829 1.404 . S
C828 C831 1.539 . S
C829 C825 1.408 . S
C829 C828 1.404 . S
C829 H841 0.930 . S
C830 C826 1.524 . S
C830 H842 0.956 . S
C830 H843 0.961 . S
C830 H844 0.961 . S
C831 C828 1.539 . S
C831 H845 0.958 . S
C831 H846 0.961 . S
C831 H847 0.960 . S
H832 C816 0.931 . S
H833 C821 0.929 . S
H834 C822 0.960 . S
H835 C822 0.962 . S
H836 C822 0.960 . S
H837 C823 0.961 . S
H838 C823 0.961 . S
H839 C823 0.961 . S
H840 C824 0.931 . S
H841 C829 0.930 . S
H842 C830 0.956 . S
H843 C830 0.961 . S
H844 C830 0.961 . S
H845 C831 0.958 . S
H846 C831 0.961 . S
H847 C831 0.960 . S
C848 C849 1.391 . S
C848 C850 1.394 . S
C848 H864 0.931 . S
C849 C848 1.391 . S
C849 C853 1.376 . S
C850 C848 1.394 . S
C850 C851 1.369 . S
C850 C854 1.531 . S
C851 C850 1.369 . S
C851 C852 1.410 . S
C851 C859 1.503 . S
C852 C851 1.410 . S
C852 C853 1.392 . S
C852 C855 1.511 . S
C853 C849 1.376 . S
C853 C852 1.392 . S
C853 H865 0.929 . S
C854 C850 1.531 . S
C854 H866 0.960 . S
C854 H867 0.962 . S
C854 H868 0.960 . S
C855 C852 1.511 . S
C855 H869 0.961 . S
C855 H870 0.961 . S
C855 H871 0.961 . S
C856 C857 1.370 . S
C856 C858 1.363 . S
C856 H872 0.931 . S
C857 C856 1.370 . S
C857 C861 1.408 . S
C858 C856 1.363 . S
C858 C859 1.370 . S
C858 C862 1.524 . S
C859 C851 1.503 . S
C859 C858 1.370 . S
C859 C860 1.403 . S
C860 C859 1.403 . S
C860 C861 1.404 . S
C860 C863 1.539 . S
C861 C857 1.408 . S
C861 C860 1.404 . S
C861 H873 0.930 . S
C862 C858 1.524 . S
C862 H874 0.956 . S
C862 H875 0.961 . S
C862 H876 0.961 . S
C863 C860 1.539 . S
C863 H877 0.958 . S
C863 H878 0.961 . S
C863 H879 0.960 . S
H864 C848 0.931 . S
H865 C853 0.929 . S
H866 C854 0.960 . S
H867 C854 0.962 . S
H868 C854 0.960 . S
H869 C855 0.961 . S
H870 C855 0.961 . S
H871 C855 0.961 . S
H872 C856 0.931 . S
H873 C861 0.930 . S
H874 C862 0.956 . S
H875 C862 0.961 . S
H876 C862 0.961 . S
H877 C863 0.958 . S
H878 C863 0.961 . S
H879 C863 0.960 . S
C880 C881 1.391 . S
C880 C882 1.394 . S
C880 H896 0.931 . S
C881 C880 1.391 . S
C881 C885 1.376 . S
C882 C880 1.394 . S
C882 C883 1.369 . S
C882 C886 1.531 . S
C883 C882 1.369 . S
C883 C884 1.410 . S
C883 C891 1.503 . S
C884 C883 1.410 . S
C884 C885 1.392 . S
C884 C887 1.511 . S
C885 C881 1.376 . S
C885 C884 1.392 . S
C885 H897 0.929 . S
C886 C882 1.531 . S
C886 H898 0.960 . S
C886 H899 0.962 . S
C886 H900 0.960 . S
C887 C884 1.511 . S
C887 H901 0.961 . S
C887 H902 0.961 . S
C887 H903 0.961 . S
C888 C889 1.370 . S
C888 C890 1.363 . S
C888 H904 0.931 . S
C889 C888 1.370 . S
C889 C893 1.408 . S
C890 C888 1.363 . S
C890 C891 1.370 . S
C890 C894 1.524 . S
C891 C883 1.503 . S
C891 C890 1.370 . S
C891 C892 1.403 . S
C892 C891 1.403 . S
C892 C893 1.404 . S
C892 C895 1.539 . S
C893 C889 1.408 . S
C893 C892 1.404 . S
C893 H905 0.930 . S
C894 C890 1.524 . S
C894 H906 0.956 . S
C894 H907 0.961 . S
C894 H908 0.961 . S
C895 C892 1.539 . S
C895 H909 0.958 . S
C895 H910 0.961 . S
C895 H911 0.960 . S
H896 C880 0.931 . S
H897 C885 0.929 . S
H898 C886 0.960 . S
H899 C886 0.962 . S
H900 C886 0.960 . S
H901 C887 0.961 . S
H902 C887 0.961 . S
H903 C887 0.961 . S
H904 C888 0.931 . S
H905 C893 0.930 . S
H906 C894 0.956 . S
H907 C894 0.961 . S
H908 C894 0.961 . S
H909 C895 0.958 . S
H910 C895 0.961 . S
H911 C895 0.960 . S
C912 C913 1.391 . S
C912 C914 1.394 . S
C912 H928 0.931 . S
C913 C912 1.391 . S
C913 C917 1.376 . S
C914 C912 1.394 . S
C914 C915 1.369 . S
C914 C918 1.531 . S
C915 C914 1.369 . S
C915 C916 1.410 . S
C915 C923 1.503 . S
C916 C915 1.410 . S
C916 C917 1.392 . S
C916 C919 1.511 . S
C917 C913 1.376 . S
C917 C916 1.392 . S
C917 H929 0.929 . S
C918 C914 1.531 . S
C918 H930 0.960 . S
C918 H931 0.962 . S
C918 H932 0.960 . S
C919 C916 1.511 . S
C919 H933 0.961 . S
C919 H934 0.961 . S
C919 H935 0.961 . S
C920 C921 1.370 . S
C920 C922 1.363 . S
C920 H936 0.931 . S
C921 C920 1.370 . S
C921 C925 1.408 . S
C922 C920 1.363 . S
C922 C923 1.370 . S
C922 C926 1.524 . S
C923 C915 1.503 . S
C923 C922 1.370 . S
C923 C924 1.403 . S
C924 C923 1.403 . S
C924 C925 1.404 . S
C924 C927 1.539 . S
C925 C921 1.408 . S
C925 C924 1.404 . S
C925 H937 0.930 . S
C926 C922 1.524 . S
C926 H938 0.956 . S
C926 H939 0.961 . S
C926 H940 0.961 . S
C927 C924 1.539 . S
C927 H941 0.958 . S
C927 H942 0.961 . S
C927 H943 0.960 . S
H928 C912 0.931 . S
H929 C917 0.929 . S
H930 C918 0.960 . S
H931 C918 0.962 . S
H932 C918 0.960 . S
H933 C919 0.961 . S
H934 C919 0.961 . S
H935 C919 0.961 . S
H936 C920 0.931 . S
H937 C925 0.930 . S
H938 C926 0.956 . S
H939 C926 0.961 . S
H940 C926 0.961 . S
H941 C927 0.958 . S
H942 C927 0.961 . S
H943 C927 0.960 . S
C944 C945 1.391 . S
C944 C946 1.394 . S
C944 H960 0.931 . S
C945 C944 1.391 . S
C945 C949 1.376 . S
C946 C944 1.394 . S
C946 C947 1.369 . S
C946 C950 1.531 . S
C947 C946 1.369 . S
C947 C948 1.410 . S
C947 C955 1.503 . S
C948 C947 1.410 . S
C948 C949 1.392 . S
C948 C951 1.511 . S
C949 C945 1.376 . S
C949 C948 1.392 . S
C949 H961 0.929 . S
C950 C946 1.531 . S
C950 H962 0.960 . S
C950 H963 0.962 . S
C950 H964 0.960 . S
C951 C948 1.511 . S
C951 H965 0.961 . S
C951 H966 0.961 . S
C951 H967 0.961 . S
C952 C953 1.370 . S
C952 C954 1.363 . S
C952 H968 0.931 . S
C953 C952 1.370 . S
C953 C957 1.408 . S
C954 C952 1.363 . S
C954 C955 1.370 . S
C954 C958 1.524 . S
C955 C947 1.503 . S
C955 C954 1.370 . S
C955 C956 1.403 . S
C956 C955 1.403 . S
C956 C957 1.404 . S
C956 C959 1.539 . S
C957 C953 1.408 . S
C957 C956 1.404 . S
C957 H969 0.930 . S
C958 C954 1.524 . S
C958 H970 0.956 . S
C958 H971 0.961 . S
C958 H972 0.961 . S
C959 C956 1.539 . S
C959 H973 0.958 . S
C959 H974 0.961 . S
C959 H975 0.960 . S
H960 C944 0.931 . S
H961 C949 0.929 . S
H962 C950 0.960 . S
H963 C950 0.962 . S
H964 C950 0.960 . S
H965 C951 0.961 . S
H966 C951 0.961 . S
H967 C951 0.961 . S
H968 C952 0.931 . S
H969 C957 0.930 . S
H970 C958 0.956 . S
H971 C958 0.961 . S
H972 C958 0.961 . S
H973 C959 0.958 . S
H974 C959 0.961 . S
H975 C959 0.960 . S
C976 C977 1.391 . S
C976 C978 1.394 . S
C976 H992 0.931 . S
C977 C976 1.391 . S
C977 C981 1.376 . S
C978 C976 1.394 . S
C978 C979 1.369 . S
C978 C982 1.531 . S
C979 C978 1.369 . S
C979 C980 1.410 . S
C979 C987 1.503 . S
C980 C979 1.410 . S
C980 C981 1.392 . S
C980 C983 1.511 . S
C981 C977 1.376 . S
C981 C980 1.392 . S
C981 H993 0.929 . S
C982 C978 1.531 . S
C982 H994 0.960 . S
C982 H995 0.962 . S
C982 H996 0.960 . S
C983 C980 1.511 . S
C983 H997 0.961 . S
C983 H998 0.961 . S
C983 H999 0.961 . S
C984 C985 1.370 . S
C984 C986 1.363 . S
C984 H1000 0.931 . S
C985 C984 1.370 . S
C985 C989 1.408 . S
C986 C984 1.363 . S
C986 C987 1.370 . S
C986 C990 1.524 . S
C987 C979 1.503 . S
C987 C986 1.370 . S
C987 C988 1.403 . S
C988 C987 1.403 . S
C988 C989 1.404 . S
C988 C991 1.539 . S
C989 C985 1.408 . S
C989 C988 1.404 . S
C989 H1001 0.930 . S
C990 C986 1.524 . S
C990 H1002 0.956 . S
C990 H1003 0.961 . S
C990 H1004 0.961 . S
C991 C988 1.539 . S
C991 H1005 0.958 . S
C991 H1006 0.961 . S
C991 H1007 0.960 . S
H992 C976 0.931 . S
H993 C981 0.929 . S
H994 C982 0.960 . S
H995 C982 0.962 . S
H996 C982 0.960 . S
H997 C983 0.961 . S
H998 C983 0.961 . S
H999 C983 0.961 . S
H1000 C984 0.931 . S
H1001 C989 0.930 . S
H1002 C990 0.956 . S
H1003 C990 0.961 . S
H1004 C990 0.961 . S
H1005 C991 0.958 . S
H1006 C991 0.961 . S
H1007 C991 0.960 . S
C1008 C1009 1.391 . S
C1008 C1010 1.394 . S
C1008 H1024 0.931 . S
C1009 C1008 1.391 . S
C1009 C1013 1.376 . S
C1010 C1008 1.394 . S
C1010 C1011 1.369 . S
C1010 C1014 1.531 . S
C1011 C1010 1.369 . S
C1011 C1012 1.410 . S
C1011 C1019 1.503 . S
C1012 C1011 1.410 . S
C1012 C1013 1.392 . S
C1012 C1015 1.511 . S
C1013 C1009 1.376 . S
C1013 C1012 1.392 . S
C1013 H1025 0.929 . S
C1014 C1010 1.531 . S
C1014 H1026 0.960 . S
C1014 H1027 0.962 . S
C1014 H1028 0.960 . S
C1015 C1012 1.511 . S
C1015 H1029 0.961 . S
C1015 H1030 0.961 . S
C1015 H1031 0.961 . S
C1016 C1017 1.370 . S
C1016 C1018 1.363 . S
C1016 H1032 0.931 . S
C1017 C1016 1.370 . S
C1017 C1021 1.408 . S
C1018 C1016 1.363 . S
C1018 C1019 1.370 . S
C1018 C1022 1.524 . S
C1019 C1011 1.503 . S
C1019 C1018 1.370 . S
C1019 C1020 1.403 . S
C1020 C1019 1.403 . S
C1020 C1021 1.404 . S
C1020 C1023 1.539 . S
C1021 C1017 1.408 . S
C1021 C1020 1.404 . S
C1021 H1033 0.930 . S
C1022 C1018 1.524 . S
C1022 H1034 0.956 . S
C1022 H1035 0.961 . S
C1022 H1036 0.961 . S
C1023 C1020 1.539 . S
C1023 H1037 0.958 . S
C1023 H1038 0.961 . S
C1023 H1039 0.960 . S
H1024 C1008 0.931 . S
H1025 C1013 0.929 . S
H1026 C1014 0.960 . S
H1027 C1014 0.962 . S
H1028 C1014 0.960 . S
H1029 C1015 0.961 . S
H1030 C1015 0.961 . S
H1031 C1015 0.961 . S
H1032 C1016 0.931 . S
H1033 C1021 0.930 . S
H1034 C1022 0.956 . S
H1035 C1022 0.961 . S
H1036 C1022 0.961 . S
H1037 C1023 0.958 . S
H1038 C1023 0.961 . S
H1039 C1023 0.960 . S
C1040 C1041 1.391 . S
C1040 C1042 1.394 . S
C1040 H1056 0.931 . S
C1041 C1040 1.391 . S
C1041 C1045 1.376 . S
C1042 C1040 1.394 . S
C1042 C1043 1.369 . S
C1042 C1046 1.531 . S
C1043 C1042 1.369 . S
C1043 C1044 1.410 . S
C1043 C1051 1.503 . S
C1044 C1043 1.410 . S
C1044 C1045 1.392 . S
C1044 C1047 1.511 . S
C1045 C1041 1.376 . S
C1045 C1044 1.392 . S
C1045 H1057 0.929 . S
C1046 C1042 1.531 . S
C1046 H1058 0.960 . S
C1046 H1059 0.962 . S
C1046 H1060 0.960 . S
C1047 C1044 1.511 . S
C1047 H1061 0.961 . S
C1047 H1062 0.961 . S
C1047 H1063 0.961 . S
C1048 C1049 1.370 . S
C1048 C1050 1.363 . S
C1048 H1064 0.931 . S
C1049 C1048 1.370 . S
C1049 C1053 1.408 . S
C1050 C1048 1.363 . S
C1050 C1051 1.370 . S
C1050 C1054 1.524 . S
C1051 C1043 1.503 . S
C1051 C1050 1.370 . S
C1051 C1052 1.403 . S
C1052 C1051 1.403 . S
C1052 C1053 1.404 . S
C1052 C1055 1.539 . S
C1053 C1049 1.408 . S
C1053 C1052 1.404 . S
C1053 H1065 0.930 . S
C1054 C1050 1.524 . S
C1054 H1066 0.956 . S
C1054 H1067 0.961 . S
C1054 H1068 0.961 . S
C1055 C1052 1.539 . S
C1055 H1069 0.958 . S
C1055 H1070 0.961 . S
C1055 H1071 0.960 . S
H1056 C1040 0.931 . S
H1057 C1045 0.929 . S
H1058 C1046 0.960 . S
H1059 C1046 0.962 . S
H1060 C1046 0.960 . S
H1061 C1047 0.961 . S
H1062 C1047 0.961 . S
H1063 C1047 0.961 . S
H1064 C1048 0.931 . S
H1065 C1053 0.930 . S
H1066 C1054 0.956 . S
H1067 C1054 0.961 . S
H1068 C1054 0.961 . S
H1069 C1055 0.958 . S
H1070 C1055 0.961 . S
H1071 C1055 0.960 . S
C1072 C1073 1.391 . S
C1072 C1074 1.394 . S
C1072 H1088 0.931 . S
C1073 C1072 1.391 . S
C1073 C1077 1.376 . S
C1074 C1072 1.394 . S
C1074 C1075 1.369 . S
C1074 C1078 1.531 . S
C1075 C1074 1.369 . S
C1075 C1076 1.410 . S
C1075 C1083 1.503 . S
C1076 C1075 1.410 . S
C1076 C1077 1.392 . S
C1076 C1079 1.511 . S
C1077 C1073 1.376 . S
C1077 C1076 1.392 . S
C1077 H1089 0.929 . S
C1078 C1074 1.531 . S
C1078 H1090 0.960 . S
C1078 H1091 0.962 . S
C1078 H1092 0.960 . S
C1079 C1076 1.511 . S
C1079 H1093 0.961 . S
C1079 H1094 0.961 . S
C1079 H1095 0.961 . S
C1080 C1081 1.370 . S
C1080 C1082 1.363 . S
C1080 H1096 0.931 . S
C1081 C1080 1.370 . S
C1081 C1085 1.408 . S
C1082 C1080 1.363 . S
C1082 C1083 1.370 . S
C1082 C1086 1.524 . S
C1083 C1075 1.503 . S
C1083 C1082 1.370 . S
C1083 C1084 1.403 . S
C1084 C1083 1.403 . S
C1084 C1085 1.404 . S
C1084 C1087 1.539 . S
C1085 C1081 1.408 . S
C1085 C1084 1.404 . S
C1085 H1097 0.930 . S
C1086 C1082 1.524 . S
C1086 H1098 0.956 . S
C1086 H1099 0.961 . S
C1086 H1100 0.961 . S
C1087 C1084 1.539 . S
C1087 H1101 0.958 . S
C1087 H1102 0.961 . S
C1087 H1103 0.960 . S
H1088 C1072 0.931 . S
H1089 C1077 0.929 . S
H1090 C1078 0.960 . S
H1091 C1078 0.962 . S
H1092 C1078 0.960 . S
H1093 C1079 0.961 . S
H1094 C1079 0.961 . S
H1095 C1079 0.961 . S
H1096 C1080 0.931 . S
H1097 C1085 0.930 . S
H1098 C1086 0.956 . S
H1099 C1086 0.961 . S
H1100 C1086 0.961 . S
H1101 C1087 0.958 . S
H1102 C1087 0.961 . S
H1103 C1087 0.960 . S
C1104 C1105 1.391 . S
C1104 C1106 1.394 . S
C1104 H1120 0.931 . S
C1105 C1104 1.391 . S
C1105 C1109 1.376 . S
C1106 C1104 1.394 . S
C1106 C1107 1.369 . S
C1106 C1110 1.531 . S
C1107 C1106 1.369 . S
C1107 C1108 1.410 . S
C1107 C1115 1.503 . S
C1108 C1107 1.410 . S
C1108 C1109 1.392 . S
C1108 C1111 1.511 . S
C1109 C1105 1.376 . S
C1109 C1108 1.392 . S
C1109 H1121 0.929 . S
C1110 C1106 1.531 . S
C1110 H1122 0.960 . S
C1110 H1123 0.962 . S
C1110 H1124 0.960 . S
C1111 C1108 1.511 . S
C1111 H1125 0.961 . S
C1111 H1126 0.961 . S
C1111 H1127 0.961 . S
C1112 C1113 1.370 . S
C1112 C1114 1.363 . S
C1112 H1128 0.931 . S
C1113 C1112 1.370 . S
C1113 C1117 1.408 . S
C1114 C1112 1.363 . S
C1114 C1115 1.370 . S
C1114 C1118 1.524 . S
C1115 C1107 1.503 . S
C1115 C1114 1.370 . S
C1115 C1116 1.403 . S
C1116 C1115 1.403 . S
C1116 C1117 1.404 . S
C1116 C1119 1.539 . S
C1117 C1113 1.408 . S
C1117 C1116 1.404 . S
C1117 H1129 0.930 . S
C1118 C1114 1.524 . S
C1118 H1130 0.956 . S
C1118 H1131 0.961 . S
C1118 H1132 0.961 . S
C1119 C1116 1.539 . S
C1119 H1133 0.958 . S
C1119 H1134 0.961 . S
C1119 H1135 0.960 . S
H1120 C1104 0.931 . S
H1121 C1109 0.929 . S
H1122 C1110 0.960 . S
H1123 C1110 0.962 . S
H1124 C1110 0.960 . S
H1125 C1111 0.961 . S
H1126 C1111 0.961 . S
H1127 C1111 0.961 . S
H1128 C1112 0.931 . S
H1129 C1117 0.930 . S
H1130 C1118 0.956 . S
H1131 C1118 0.961 . S
H1132 C1118 0.961 . S
H1133 C1119 0.958 . S
H1134 C1119 0.961 . S
H1135 C1119 0.960 . S
C1136 C1137 1.391 . S
C1136 C1138 1.394 . S
C1136 H1152 0.931 . S
C1137 C1136 1.391 . S
C1137 C1141 1.376 . S
C1138 C1136 1.394 . S
C1138 C1139 1.369 . S
C1138 C1142 1.531 . S
C1139 C1138 1.369 . S
C1139 C1140 1.410 . S
C1139 C1147 1.503 . S
C1140 C1139 1.410 . S
C1140 C1141 1.392 . S
C1140 C1143 1.511 . S
C1141 C1137 1.376 . S
C1141 C1140 1.392 . S
C1141 H1153 0.929 . S
C1142 C1138 1.531 . S
C1142 H1154 0.960 . S
C1142 H1155 0.962 . S
C1142 H1156 0.960 . S
C1143 C1140 1.511 . S
C1143 H1157 0.961 . S
C1143 H1158 0.961 . S
C1143 H1159 0.961 . S
C1144 C1145 1.370 . S
C1144 C1146 1.363 . S
C1144 H1160 0.931 . S
C1145 C1144 1.370 . S
C1145 C1149 1.408 . S
C1146 C1144 1.363 . S
C1146 C1147 1.370 . S
C1146 C1150 1.524 . S
C1147 C1139 1.503 . S
C1147 C1146 1.370 . S
C1147 C1148 1.403 . S
C1148 C1147 1.403 . S
C1148 C1149 1.404 . S
C1148 C1151 1.539 . S
C1149 C1145 1.408 . S
C1149 C1148 1.404 . S
C1149 H1161 0.930 . S
C1150 C1146 1.524 . S
C1150 H1162 0.956 . S
C1150 H1163 0.961 . S
C1150 H1164 0.961 . S
C1151 C1148 1.539 . S
C1151 H1165 0.958 . S
C1151 H1166 0.961 . S
C1151 H1167 0.960 . S
H1152 C1136 0.931 . S
H1153 C1141 0.929 . S
H1154 C1142 0.960 . S
H1155 C1142 0.962 . S
H1156 C1142 0.960 . S
H1157 C1143 0.961 . S
H1158 C1143 0.961 . S
H1159 C1143 0.961 . S
H1160 C1144 0.931 . S
H1161 C1149 0.930 . S
H1162 C1150 0.956 . S
H1163 C1150 0.961 . S
H1164 C1150 0.961 . S
H1165 C1151 0.958 . S
H1166 C1151 0.961 . S
H1167 C1151 0.960 . S
C1168 C1169 1.391 . S
C1168 C1170 1.394 . S
C1168 H1184 0.931 . S
C1169 C1168 1.391 . S
C1169 C1173 1.376 . S
C1170 C1168 1.394 . S
C1170 C1171 1.369 . S
C1170 C1174 1.531 . S
C1171 C1170 1.369 . S
C1171 C1172 1.410 . S
C1171 C1179 1.503 . S
C1172 C1171 1.410 . S
C1172 C1173 1.392 . S
C1172 C1175 1.511 . S
C1173 C1169 1.376 . S
C1173 C1172 1.392 . S
C1173 H1185 0.929 . S
C1174 C1170 1.531 . S
C1174 H1186 0.960 . S
C1174 H1187 0.962 . S
C1174 H1188 0.960 . S
C1175 C1172 1.511 . S
C1175 H1189 0.961 . S
C1175 H1190 0.961 . S
C1175 H1191 0.961 . S
C1176 C1177 1.370 . S
C1176 C1178 1.363 . S
C1176 H1192 0.931 . S
C1177 C1176 1.370 . S
C1177 C1181 1.408 . S
C1178 C1176 1.363 . S
C1178 C1179 1.370 . S
C1178 C1182 1.524 . S
C1179 C1171 1.503 . S
C1179 C1178 1.370 . S
C1179 C1180 1.403 . S
C1180 C1179 1.403 . S
C1180 C1181 1.404 . S
C1180 C1183 1.539 . S
C1181 C1177 1.408 . S
C1181 C1180 1.404 . S
C1181 H1193 0.930 . S
C1182 C1178 1.524 . S
C1182 H1194 0.956 . S
C1182 H1195 0.961 . S
C1182 H1196 0.961 . S
C1183 C1180 1.539 . S
C1183 H1197 0.958 . S
C1183 H1198 0.961 . S
C1183 H1199 0.960 . S
H1184 C1168 0.931 . S
H1185 C1173 0.929 . S
H1186 C1174 0.960 . S
H1187 C1174 0.962 . S
H1188 C1174 0.960 . S
H1189 C1175 0.961 . S
H1190 C1175 0.961 . S
H1191 C1175 0.961 . S
H1192 C1176 0.931 . S
H1193 C1181 0.930 . S
H1194 C1182 0.956 . S
H1195 C1182 0.961 . S
H1196 C1182 0.961 . S
H1197 C1183 0.958 . S
H1198 C1183 0.961 . S
H1199 C1183 0.960 . S
C1200 C1201 1.391 . S
C1200 C1202 1.394 . S
C1200 H1216 0.931 . S
C1201 C1200 1.391 . S
C1201 C1205 1.376 . S
C1202 C1200 1.394 . S
C1202 C1203 1.369 . S
C1202 C1206 1.531 . S
C1203 C1202 1.369 . S
C1203 C1204 1.410 . S
C1203 C1211 1.503 . S
C1204 C1203 1.410 . S
C1204 C1205 1.392 . S
C1204 C1207 1.511 . S
C1205 C1201 1.376 . S
C1205 C1204 1.392 . S
C1205 H1217 0.929 . S
C1206 C1202 1.531 . S
C1206 H1218 0.960 . S
C1206 H1219 0.962 . S
C1206 H1220 0.960 . S
C1207 C1204 1.511 . S
C1207 H1221 0.961 . S
C1207 H1222 0.961 . S
C1207 H1223 0.961 . S
C1208 C1209 1.370 . S
C1208 C1210 1.363 . S
C1208 H1224 0.931 . S
C1209 C1208 1.370 . S
C1209 C1213 1.408 . S
C1210 C1208 1.363 . S
C1210 C1211 1.370 . S
C1210 C1214 1.524 . S
C1211 C1203 1.503 . S
C1211 C1210 1.370 . S
C1211 C1212 1.403 . S
C1212 C1211 1.403 . S
C1212 C1213 1.404 . S
C1212 C1215 1.539 . S
C1213 C1209 1.408 . S
C1213 C1212 1.404 . S
C1213 H1225 0.930 . S
C1214 C1210 1.524 . S
C1214 H1226 0.956 . S
C1214 H1227 0.961 . S
C1214 H1228 0.961 . S
C1215 C1212 1.539 . S
C1215 H1229 0.958 . S
C1215 H1230 0.961 . S
C1215 H1231 0.960 . S
H1216 C1200 0.931 . S
H1217 C1205 0.929 . S
H1218 C1206 0.960 . S
H1219 C1206 0.962 . S
H1220 C1206 0.960 . S
H1221 C1207 0.961 . S
H1222 C1207 0.961 . S
H1223 C1207 0.961 . S
H1224 C1208 0.931 . S
H1225 C1213 0.930 . S
H1226 C1214 0.956 . S
H1227 C1214 0.961 . S
H1228 C1214 0.961 . S
H1229 C1215 0.958 . S
H1230 C1215 0.961 . S
H1231 C1215 0.960 . S
C1232 C1233 1.391 . S
C1232 C1234 1.394 . S
C1232 H1248 0.931 . S
C1233 C1232 1.391 . S
C1233 C1237 1.376 . S
C1234 C1232 1.394 . S
C1234 C1235 1.369 . S
C1234 C1238 1.531 . S
C1235 C1234 1.369 . S
C1235 C1236 1.410 . S
C1235 C1243 1.503 . S
C1236 C1235 1.410 . S
C1236 C1237 1.392 . S
C1236 C1239 1.511 . S
C1237 C1233 1.376 . S
C1237 C1236 1.392 . S
C1237 H1249 0.929 . S
C1238 C1234 1.531 . S
C1238 H1250 0.960 . S
C1238 H1251 0.962 . S
C1238 H1252 0.960 . S
C1239 C1236 1.511 . S
C1239 H1253 0.961 . S
C1239 H1254 0.961 . S
C1239 H1255 0.961 . S
C1240 C1241 1.370 . S
C1240 C1242 1.363 . S
C1240 H1256 0.931 . S
C1241 C1240 1.370 . S
C1241 C1245 1.408 . S
C1242 C1240 1.363 . S
C1242 C1243 1.370 . S
C1242 C1246 1.524 . S
C1243 C1235 1.503 . S
C1243 C1242 1.370 . S
C1243 C1244 1.403 . S
C1244 C1243 1.403 . S
C1244 C1245 1.404 . S
C1244 C1247 1.539 . S
C1245 C1241 1.408 . S
C1245 C1244 1.404 . S
C1245 H1257 0.930 . S
C1246 C1242 1.524 . S
C1246 H1258 0.956 . S
C1246 H1259 0.961 . S
C1246 H1260 0.961 . S
C1247 C1244 1.539 . S
C1247 H1261 0.958 . S
C1247 H1262 0.961 . S
C1247 H1263 0.960 . S
H1248 C1232 0.931 . S
H1249 C1237 0.929 . S
H1250 C1238 0.960 . S
H1251 C1238 0.962 . S
H1252 C1238 0.960 . S
H1253 C1239 0.961 . S
H1254 C1239 0.961 . S
H1255 C1239 0.961 . S
H1256 C1240 0.931 . S
H1257 C1245 0.930 . S
H1258 C1246 0.956 . S
H1259 C1246 0.961 . S
H1260 C1246 0.961 . S
H1261 C1247 0.958 . S
H1262 C1247 0.961 . S
H1263 C1247 0.960 . S
C1264 C1265 1.391 . S
C1264 C1266 1.394 . S
C1264 H1280 0.931 . S
C1265 C1264 1.391 . S
C1265 C1269 1.376 . S
C1266 C1264 1.394 . S
C1266 C1267 1.369 . S
C1266 C1270 1.531 . S
C1267 C1266 1.369 . S
C1267 C1268 1.410 . S
C1267 C1275 1.503 . S
C1268 C1267 1.410 . S
C1268 C1269 1.392 . S
C1268 C1271 1.511 . S
C1269 C1265 1.376 . S
C1269 C1268 1.392 . S
C1269 H1281 0.929 . S
C1270 C1266 1.531 . S
C1270 H1282 0.960 . S
C1270 H1283 0.962 . S
C1270 H1284 0.960 . S
C1271 C1268 1.511 . S
C1271 H1285 0.961 . S
C1271 H1286 0.961 . S
C1271 H1287 0.961 . S
C1272 C1273 1.370 . S
C1272 C1274 1.363 . S
C1272 H1288 0.931 . S
C1273 C1272 1.370 . S
C1273 C1277 1.408 . S
C1274 C1272 1.363 . S
C1274 C1275 1.370 . S
C1274 C1278 1.524 . S
C1275 C1267 1.503 . S
C1275 C1274 1.370 . S
C1275 C1276 1.403 . S
C1276 C1275 1.403 . S
C1276 C1277 1.404 . S
C1276 C1279 1.539 . S
C1277 C1273 1.408 . S
C1277 C1276 1.404 . S
C1277 H1289 0.930 . S
C1278 C1274 1.524 . S
C1278 H1290 0.956 . S
C1278 H1291 0.961 . S
C1278 H1292 0.961 . S
C1279 C1276 1.539 . S
C1279 H1293 0.958 . S
C1279 H1294 0.961 . S
C1279 H1295 0.960 . S
H1280 C1264 0.931 . S
H1281 C1269 0.929 . S
H1282 C1270 0.960 . S
H1283 C1270 0.962 . S
H1284 C1270 0.960 . S
H1285 C1271 0.961 . S
H1286 C1271 0.961 . S
H1287 C1271 0.961 . S
H1288 C1272 0.931 . S
H1289 C1277 0.930 . S
H1290 C1278 0.956 . S
H1291 C1278 0.961 . S
H1292 C1278 0.961 . S
H1293 C1279 0.958 . S
H1294 C1279 0.961 . S
H1295 C1279 0.960 . S
C1296 C1297 1.391 . S
C1296 C1298 1.394 . S
C1296 H1312 0.931 . S
C1297 C1296 1.391 . S
C1297 C1301 1.376 . S
C1298 C1296 1.394 . S
C1298 C1299 1.369 . S
C1298 C1302 1.531 . S
C1299 C1298 1.369 . S
C1299 C1300 1.410 . S
C1299 C1307 1.503 . S
C1300 C1299 1.410 . S
C1300 C1301 1.392 . S
C1300 C1303 1.511 . S
C1301 C1297 1.376 . S
C1301 C1300 1.392 . S
C1301 H1313 0.929 . S
C1302 C1298 1.531 . S
C1302 H1314 0.960 . S
C1302 H1315 0.962 . S
C1302 H1316 0.960 . S
C1303 C1300 1.511 . S
C1303 H1317 0.961 . S
C1303 H1318 0.961 . S
C1303 H1319 0.961 . S
C1304 C1305 1.370 . S
C1304 C1306 1.363 . S
C1304 H1320 0.931 . S
C1305 C1304 1.370 . S
C1305 C1309 1.408 . S
C1306 C1304 1.363 . S
C1306 C1307 1.370 . S
C1306 C1310 1.524 . S
C1307 C1299 1.503 . S
C1307 C1306 1.370 . S
C1307 C1308 1.403 . S
C1308 C1307 1.403 . S
C1308 C1309 1.404 . S
C1308 C1311 1.539 . S
C1309 C1305 1.408 . S
C1309 C1308 1.404 . S
C1309 H1321 0.930 . S
C1310 C1306 1.524 . S
C1310 H1322 0.956 . S
C1310 H1323 0.961 . S
C1310 H1324 0.961 . S
C1311 C1308 1.539 . S
C1311 H1325 0.958 . S
C1311 H1326 0.961 . S
C1311 H1327 0.960 . S
H1312 C1296 0.931 . S
H1313 C1301 0.929 . S
H1314 C1302 0.960 . S
H1315 C1302 0.962 . S
H1316 C1302 0.960 . S
H1317 C1303 0.961 . S
H1318 C1303 0.961 . S
H1319 C1303 0.961 . S
H1320 C1304 0.931 . S
H1321 C1309 0.930 . S
H1322 C1310 0.956 . S
H1323 C1310 0.961 . S
H1324 C1310 0.961 . S
H1325 C1311 0.958 . S
H1326 C1311 0.961 . S
H1327 C1311 0.960 . S
C1328 C1329 1.391 . S
C1328 C1330 1.394 . S
C1328 H1344 0.931 . S
C1329 C1328 1.391 . S
C1329 C1333 1.376 . S
C1330 C1328 1.394 . S
C1330 C1331 1.369 . S
C1330 C1334 1.531 . S
C1331 C1330 1.369 . S
C1331 C1332 1.410 . S
C1331 C1339 1.503 . S
C1332 C1331 1.410 . S
C1332 C1333 1.392 . S
C1332 C1335 1.511 . S
C1333 C1329 1.376 . S
C1333 C1332 1.392 . S
C1333 H1345 0.929 . S
C1334 C1330 1.531 . S
C1334 H1346 0.960 . S
C1334 H1347 0.962 . S
C1334 H1348 0.960 . S
C1335 C1332 1.511 . S
C1335 H1349 0.961 . S
C1335 H1350 0.961 . S
C1335 H1351 0.961 . S
C1336 C1337 1.370 . S
C1336 C1338 1.363 . S
C1336 H1352 0.931 . S
C1337 C1336 1.370 . S
C1337 C1341 1.408 . S
C1338 C1336 1.363 . S
C1338 C1339 1.370 . S
C1338 C1342 1.524 . S
C1339 C1331 1.503 . S
C1339 C1338 1.370 . S
C1339 C1340 1.403 . S
C1340 C1339 1.403 . S
C1340 C1341 1.404 . S
C1340 C1343 1.539 . S
C1341 C1337 1.408 . S
C1341 C1340 1.404 . S
C1341 H1353 0.930 . S
C1342 C1338 1.524 . S
C1342 H1354 0.956 . S
C1342 H1355 0.961 . S
C1342 H1356 0.961 . S
C1343 C1340 1.539 . S
C1343 H1357 0.958 . S
C1343 H1358 0.961 . S
C1343 H1359 0.960 . S
H1344 C1328 0.931 . S
H1345 C1333 0.929 . S
H1346 C1334 0.960 . S
H1347 C1334 0.962 . S
H1348 C1334 0.960 . S
H1349 C1335 0.961 . S
H1350 C1335 0.961 . S
H1351 C1335 0.961 . S
H1352 C1336 0.931 . S
H1353 C1341 0.930 . S
H1354 C1342 0.956 . S
H1355 C1342 0.961 . S
H1356 C1342 0.961 . S
H1357 C1343 0.958 . S
H1358 C1343 0.961 . S
H1359 C1343 0.960 . S
C1360 C1361 1.391 . S
C1360 C1362 1.394 . S
C1360 H1376 0.931 . S
C1361 C1360 1.391 . S
C1361 C1365 1.376 . S
C1362 C1360 1.394 . S
C1362 C1363 1.369 . S
C1362 C1366 1.531 . S
C1363 C1362 1.369 . S
C1363 C1364 1.410 . S
C1363 C1371 1.503 . S
C1364 C1363 1.410 . S
C1364 C1365 1.392 . S
C1364 C1367 1.511 . S
C1365 C1361 1.376 . S
C1365 C1364 1.392 . S
C1365 H1377 0.929 . S
C1366 C1362 1.531 . S
C1366 H1378 0.960 . S
C1366 H1379 0.962 . S
C1366 H1380 0.960 . S
C1367 C1364 1.511 . S
C1367 H1381 0.961 . S
C1367 H1382 0.961 . S
C1367 H1383 0.961 . S
C1368 C1369 1.370 . S
C1368 C1370 1.363 . S
C1368 H1384 0.931 . S
C1369 C1368 1.370 . S
C1369 C1373 1.408 . S
C1370 C1368 1.363 . S
C1370 C1371 1.370 . S
C1370 C1374 1.524 . S
C1371 C1363 1.503 . S
C1371 C1370 1.370 . S
C1371 C1372 1.403 . S
C1372 C1371 1.403 . S
C1372 C1373 1.404 . S
C1372 C1375 1.539 . S
C1373 C1369 1.408 . S
C1373 C1372 1.404 . S
C1373 H1385 0.930 . S
C1374 C1370 1.524 . S
C1374 H1386 0.956 . S
C1374 H1387 0.961 . S
C1374 H1388 0.961 . S
C1375 C1372 1.539 . S
C1375 H1389 0.958 . S
C1375 H1390 0.961 . S
C1375 H1391 0.960 . S
H1376 C1360 0.931 . S
H1377 C1365 0.929 . S
H1378 C1366 0.960 . S
H1379 C1366 0.962 . S
H1380 C1366 0.960 . S
H1381 C1367 0.961 . S
H1382 C1367 0.961 . S
H1383 C1367 0.961 . S
H1384 C1368 0.931 . S
H1385 C1373 0.930 . S
H1386 C1374 0.956 . S
H1387 C1374 0.961 . S
H1388 C1374 0.961 . S
H1389 C1375 0.958 . S
H1390 C1375 0.961 . S
H1391 C1375 0.960 . S
C1392 C1393 1.391 . S
C1392 C1394 1.394 . S
C1392 H1408 0.931 . S
C1393 C1392 1.391 . S
C1393 C1397 1.376 . S
C1394 C1392 1.394 . S
C1394 C1395 1.369 . S
C1394 C1398 1.531 . S
C1395 C1394 1.369 . S
C1395 C1396 1.410 . S
C1395 C1403 1.503 . S
C1396 C1395 1.410 . S
C1396 C1397 1.392 . S
C1396 C1399 1.511 . S
C1397 C1393 1.376 . S
C1397 C1396 1.392 . S
C1397 H1409 0.929 . S
C1398 C1394 1.531 . S
C1398 H1410 0.960 . S
C1398 H1411 0.962 . S
C1398 H1412 0.960 . S
C1399 C1396 1.511 . S
C1399 H1413 0.961 . S
C1399 H1414 0.961 . S
C1399 H1415 0.961 . S
C1400 C1401 1.370 . S
C1400 C1402 1.363 . S
C1400 H1416 0.931 . S
C1401 C1400 1.370 . S
C1401 C1405 1.408 . S
C1402 C1400 1.363 . S
C1402 C1403 1.370 . S
C1402 C1406 1.524 . S
C1403 C1395 1.503 . S
C1403 C1402 1.370 . S
C1403 C1404 1.403 . S
C1404 C1403 1.403 . S
C1404 C1405 1.404 . S
C1404 C1407 1.539 . S
C1405 C1401 1.408 . S
C1405 C1404 1.404 . S
C1405 H1417 0.930 . S
C1406 C1402 1.524 . S
C1406 H1418 0.956 . S
C1406 H1419 0.961 . S
C1406 H1420 0.961 . S
C1407 C1404 1.539 . S
C1407 H1421 0.958 . S
C1407 H1422 0.961 . S
C1407 H1423 0.960 . S
H1408 C1392 0.931 . S
H1409 C1397 0.929 . S
H1410 C1398 0.960 . S
H1411 C1398 0.962 . S
H1412 C1398 0.960 . S
H1413 C1399 0.961 . S
H1414 C1399 0.961 . S
H1415 C1399 0.961 . S
H1416 C1400 0.931 . S
H1417 C1405 0.930 . S
H1418 C1406 0.956 . S
H1419 C1406 0.961 . S
H1420 C1406 0.961 . S
H1421 C1407 0.958 . S
H1422 C1407 0.961 . S
H1423 C1407 0.960 . S
C1424 C1425 1.391 . S
C1424 C1426 1.394 . S
C1424 H1440 0.931 . S
C1425 C1424 1.391 . S
C1425 C1429 1.376 . S
C1426 C1424 1.394 . S
C1426 C1427 1.369 . S
C1426 C1430 1.531 . S
C1427 C1426 1.369 . S
C1427 C1428 1.410 . S
C1427 C1435 1.503 . S
C1428 C1427 1.410 . S
C1428 C1429 1.392 . S
C1428 C1431 1.511 . S
C1429 C1425 1.376 . S
C1429 C1428 1.392 . S
C1429 H1441 0.929 . S
C1430 C1426 1.531 . S
C1430 H1442 0.960 . S
C1430 H1443 0.962 . S
C1430 H1444 0.960 . S
C1431 C1428 1.511 . S
C1431 H1445 0.961 . S
C1431 H1446 0.961 . S
C1431 H1447 0.961 . S
C1432 C1433 1.370 . S
C1432 C1434 1.363 . S
C1432 H1448 0.931 . S
C1433 C1432 1.370 . S
C1433 C1437 1.408 . S
C1434 C1432 1.363 . S
C1434 C1435 1.370 . S
C1434 C1438 1.524 . S
C1435 C1427 1.503 . S
C1435 C1434 1.370 . S
C1435 C1436 1.403 . S
C1436 C1435 1.403 . S
C1436 C1437 1.404 . S
C1436 C1439 1.539 . S
C1437 C1433 1.408 . S
C1437 C1436 1.404 . S
C1437 H1449 0.930 . S
C1438 C1434 1.524 . S
C1438 H1450 0.956 . S
C1438 H1451 0.961 . S
C1438 H1452 0.961 . S
C1439 C1436 1.539 . S
C1439 H1453 0.958 . S
C1439 H1454 0.961 . S
C1439 H1455 0.960 . S
H1440 C1424 0.931 . S
H1441 C1429 0.929 . S
H1442 C1430 0.960 . S
H1443 C1430 0.962 . S
H1444 C1430 0.960 . S
H1445 C1431 0.961 . S
H1446 C1431 0.961 . S
H1447 C1431 0.961 . S
H1448 C1432 0.931 . S
H1449 C1437 0.930 . S
H1450 C1438 0.956 . S
H1451 C1438 0.961 . S
H1452 C1438 0.961 . S
H1453 C1439 0.958 . S
H1454 C1439 0.961 . S
H1455 C1439 0.960 . S
C1456 C1457 1.391 . S
C1456 C1458 1.394 . S
C1456 H1472 0.931 . S
C1457 C1456 1.391 . S
C1457 C1461 1.376 . S
C1458 C1456 1.394 . S
C1458 C1459 1.369 . S
C1458 C1462 1.531 . S
C1459 C1458 1.369 . S
C1459 C1460 1.410 . S
C1459 C1467 1.503 . S
C1460 C1459 1.410 . S
C1460 C1461 1.392 . S
C1460 C1463 1.511 . S
C1461 C1457 1.376 . S
C1461 C1460 1.392 . S
C1461 H1473 0.929 . S
C1462 C1458 1.531 . S
C1462 H1474 0.960 . S
C1462 H1475 0.962 . S
C1462 H1476 0.960 . S
C1463 C1460 1.511 . S
C1463 H1477 0.961 . S
C1463 H1478 0.961 . S
C1463 H1479 0.961 . S
C1464 C1465 1.370 . S
C1464 C1466 1.363 . S
C1464 H1480 0.931 . S
C1465 C1464 1.370 . S
C1465 C1469 1.408 . S
C1466 C1464 1.363 . S
C1466 C1467 1.370 . S
C1466 C1470 1.524 . S
C1467 C1459 1.503 . S
C1467 C1466 1.370 . S
C1467 C1468 1.403 . S
C1468 C1467 1.403 . S
C1468 C1469 1.404 . S
C1468 C1471 1.539 . S
C1469 C1465 1.408 . S
C1469 C1468 1.404 . S
C1469 H1481 0.930 . S
C1470 C1466 1.524 . S
C1470 H1482 0.956 . S
C1470 H1483 0.961 . S
C1470 H1484 0.961 . S
C1471 C1468 1.539 . S
C1471 H1485 0.958 . S
C1471 H1486 0.961 . S
C1471 H1487 0.960 . S
H1472 C1456 0.931 . S
H1473 C1461 0.929 . S
H1474 C1462 0.960 . S
H1475 C1462 0.962 . S
H1476 C1462 0.960 . S
H1477 C1463 0.961 . S
H1478 C1463 0.961 . S
H1479 C1463 0.961 . S
H1480 C1464 0.931 . S
H1481 C1469 0.930 . S
H1482 C1470 0.956 . S
H1483 C1470 0.961 . S
H1484 C1470 0.961 . S
H1485 C1471 0.958 . S
H1486 C1471 0.961 . S
H1487 C1471 0.960 . S
C1488 C1489 1.391 . S
C1488 C1490 1.394 . S
C1488 H1504 0.931 . S
C1489 C1488 1.391 . S
C1489 C1493 1.376 . S
C1490 C1488 1.394 . S
C1490 C1491 1.369 . S
C1490 C1494 1.531 . S
C1491 C1490 1.369 . S
C1491 C1492 1.410 . S
C1491 C1499 1.503 . S
C1492 C1491 1.410 . S
C1492 C1493 1.392 . S
C1492 C1495 1.511 . S
C1493 C1489 1.376 . S
C1493 C1492 1.392 . S
C1493 H1505 0.929 . S
C1494 C1490 1.531 . S
C1494 H1506 0.960 . S
C1494 H1507 0.962 . S
C1494 H1508 0.960 . S
C1495 C1492 1.511 . S
C1495 H1509 0.961 . S
C1495 H1510 0.961 . S
C1495 H1511 0.961 . S
C1496 C1497 1.370 . S
C1496 C1498 1.363 . S
C1496 H1512 0.931 . S
C1497 C1496 1.370 . S
C1497 C1501 1.408 . S
C1498 C1496 1.363 . S
C1498 C1499 1.370 . S
C1498 C1502 1.524 . S
C1499 C1491 1.503 . S
C1499 C1498 1.370 . S
C1499 C1500 1.403 . S
C1500 C1499 1.403 . S
C1500 C1501 1.404 . S
C1500 C1503 1.539 . S
C1501 C1497 1.408 . S
C1501 C1500 1.404 . S
C1501 H1513 0.930 . S
C1502 C1498 1.524 . S
C1502 H1514 0.956 . S
C1502 H1515 0.961 . S
C1502 H1516 0.961 . S
C1503 C1500 1.539 . S
C1503 H1517 0.958 . S
C1503 H1518 0.961 . S
C1503 H1519 0.960 . S
H1504 C1488 0.931 . S
H1505 C1493 0.929 . S
H1506 C1494 0.960 . S
H1507 C1494 0.962 . S
H1508 C1494 0.960 . S
H1509 C1495 0.961 . S
H1510 C1495 0.961 . S
H1511 C1495 0.961 . S
H1512 C1496 0.931 . S
H1513 C1501 0.930 . S
H1514 C1502 0.956 . S
H1515 C1502 0.961 . S
H1516 C1502 0.961 . S
H1517 C1503 0.958 . S
H1518 C1503 0.961 . S
H1519 C1503 0.960 . S
C1520 C1521 1.391 . S
C1520 C1522 1.394 . S
C1520 H1536 0.931 . S
C1521 C1520 1.391 . S
C1521 C1525 1.376 . S
C1522 C1520 1.394 . S
C1522 C1523 1.369 . S
C1522 C1526 1.531 . S
C1523 C1522 1.369 . S
C1523 C1524 1.410 . S
C1523 C1531 1.503 . S
C1524 C1523 1.410 . S
C1524 C1525 1.392 . S
C1524 C1527 1.511 . S
C1525 C1521 1.376 . S
C1525 C1524 1.392 . S
C1525 H1537 0.929 . S
C1526 C1522 1.531 . S
C1526 H1538 0.960 . S
C1526 H1539 0.962 . S
C1526 H1540 0.960 . S
C1527 C1524 1.511 . S
C1527 H1541 0.961 . S
C1527 H1542 0.961 . S
C1527 H1543 0.961 . S
C1528 C1529 1.370 . S
C1528 C1530 1.363 . S
C1528 H1544 0.931 . S
C1529 C1528 1.370 . S
C1529 C1533 1.408 . S
C1530 C1528 1.363 . S
C1530 C1531 1.370 . S
C1530 C1534 1.524 . S
C1531 C1523 1.503 . S
C1531 C1530 1.370 . S
C1531 C1532 1.403 . S
C1532 C1531 1.403 . S
C1532 C1533 1.404 . S
C1532 C1535 1.539 . S
C1533 C1529 1.408 . S
C1533 C1532 1.404 . S
C1533 H1545 0.930 . S
C1534 C1530 1.524 . S
C1534 H1546 0.956 . S
C1534 H1547 0.961 . S
C1534 H1548 0.961 . S
C1535 C1532 1.539 . S
C1535 H1549 0.958 . S
C1535 H1550 0.961 . S
C1535 H1551 0.960 . S
H1536 C1520 0.931 . S
H1537 C1525 0.929 . S
H1538 C1526 0.960 . S
H1539 C1526 0.962 . S
H1540 C1526 0.960 . S
H1541 C1527 0.961 . S
H1542 C1527 0.961 . S
H1543 C1527 0.961 . S
H1544 C1528 0.931 . S
H1545 C1533 0.930 . S
H1546 C1534 0.956 . S
H1547 C1534 0.961 . S
H1548 C1534 0.961 . S
H1549 C1535 0.958 . S
H1550 C1535 0.961 . S
H1551 C1535 0.960 . S
C1552 C1553 1.391 1_655 S
C1552 C1554 1.394 . S
C1552 H1568 0.931 . S
C1553 C1552 1.391 1_455 S
C1553 C1557 1.376 . S
C1554 C1552 1.394 . S
C1554 C1555 1.369 1_655 S
C1554 C1558 1.531 . S
C1555 C1554 1.369 1_455 S
C1555 C1556 1.410 . S
C1555 C1563 1.504 1_455 S
C1556 C1555 1.410 . S
C1556 C1557 1.392 . S
C1556 C1559 1.511 . S
C1557 C1553 1.376 . S
C1557 C1556 1.392 . S
C1557 H1569 0.929 . S
C1558 C1554 1.531 . S
C1558 H1570 0.960 . S
C1558 H1571 0.962 . S
C1558 H1572 0.960 . S
C1559 C1556 1.511 . S
C1559 H1573 0.961 . S
C1559 H1574 0.961 . S
C1559 H1575 0.961 . S
C1560 C1561 1.370 . S
C1560 C1562 1.363 . S
C1560 H1576 0.931 . S
C1561 C1560 1.370 . S
C1561 C1565 1.408 1_655 S
C1562 C1560 1.363 . S
C1562 C1563 1.370 . S
C1562 C1566 1.524 . S
C1563 C1555 1.504 1_655 S
C1563 C1562 1.370 . S
C1563 C1564 1.403 1_655 S
C1564 C1563 1.403 1_455 S
C1564 C1565 1.404 . S
C1564 C1567 1.539 . S
C1565 C1561 1.408 1_455 S
C1565 C1564 1.404 . S
C1565 H1577 0.930 . S
C1566 C1562 1.524 . S
C1566 H1578 0.956 . S
C1566 H1579 0.961 1_655 S
C1566 H1580 0.961 . S
C1567 C1564 1.539 . S
C1567 H1581 0.958 1_455 S
C1567 H1582 0.961 . S
C1567 H1583 0.960 . S
H1568 C1552 0.931 . S
H1569 C1557 0.929 . S
H1570 C1558 0.960 . S
H1571 C1558 0.962 . S
H1572 C1558 0.960 . S
H1573 C1559 0.961 . S
H1574 C1559 0.961 . S
H1575 C1559 0.961 . S
H1576 C1560 0.931 . S
H1577 C1565 0.930 . S
H1578 C1566 0.956 . S
H1579 C1566 0.961 1_455 S
H1580 C1566 0.961 . S
H1581 C1567 0.958 1_655 S
H1582 C1567 0.961 . S
H1583 C1567 0.960 . S
C1584 C1585 1.391 . S
C1584 C1586 1.394 . S
C1584 H1600 0.931 . S
C1585 C1584 1.391 . S
C1585 C1589 1.376 1_565 S
C1586 C1584 1.394 . S
C1586 C1587 1.369 . S
C1586 C1590 1.531 . S
C1587 C1586 1.369 . S
C1587 C1588 1.410 1_565 S
C1587 C1595 1.503 . S
C1588 C1587 1.410 1_545 S
C1588 C1589 1.392 . S
C1588 C1591 1.511 . S
C1589 C1585 1.376 1_545 S
C1589 C1588 1.392 . S
C1589 H1601 0.929 . S
C1590 C1586 1.531 . S
C1590 H1602 0.960 . S
C1590 H1603 0.962 . S
C1590 H1604 0.960 . S
C1591 C1588 1.511 . S
C1591 H1605 0.961 . S
C1591 H1606 0.961 . S
C1591 H1607 0.961 . S
C1592 C1593 1.370 . S
C1592 C1594 1.363 . S
C1592 H1608 0.931 . S
C1593 C1592 1.370 . S
C1593 C1597 1.408 1_545 S
C1594 C1592 1.363 . S
C1594 C1595 1.370 1_545 S
C1594 C1598 1.524 . S
C1595 C1587 1.503 . S
C1595 C1594 1.370 1_565 S
C1595 C1596 1.403 . S
C1596 C1595 1.403 . S
C1596 C1597 1.404 . S
C1596 C1599 1.539 . S
C1597 C1593 1.408 1_565 S
C1597 C1596 1.404 . S
C1597 H1609 0.930 . S
C1598 C1594 1.524 . S
C1598 H1610 0.956 . S
C1598 H1611 0.961 . S
C1598 H1612 0.961 . S
C1599 C1596 1.539 . S
C1599 H1613 0.958 . S
C1599 H1614 0.961 . S
C1599 H1615 0.960 . S
H1600 C1584 0.931 . S
H1601 C1589 0.929 . S
H1602 C1590 0.960 . S
H1603 C1590 0.962 . S
H1604 C1590 0.960 . S
H1605 C1591 0.961 . S
H1606 C1591 0.961 . S
H1607 C1591 0.961 . S
H1608 C1592 0.931 . S
H1609 C1597 0.930 . S
H1610 C1598 0.956 . S
H1611 C1598 0.961 . S
H1612 C1598 0.961 . S
H1613 C1599 0.958 . S
H1614 C1599 0.961 . S
H1615 C1599 0.960 . S
C1616 C1617 1.391 . S
C1616 C1618 1.394 . S
C1616 H1632 0.931 . S
C1617 C1616 1.391 . S
C1617 C1621 1.376 1_455 S
C1618 C1616 1.394 . S
C1618 C1619 1.369 1_455 S
C1618 C1622 1.531 . S
C1619 C1618 1.369 1_655 S
C1619 C1620 1.410 . S
C1619 C1627 1.503 . S
C1620 C1619 1.410 . S
C1620 C1621 1.392 . S
C1620 C1623 1.511 . S
C1621 C1617 1.376 1_655 S
C1621 C1620 1.392 . S
C1621 H1633 0.929 . S
C1622 C1618 1.531 . S
C1622 H1634 0.960 . S
C1622 H1635 0.962 . S
C1622 H1636 0.960 . S
C1623 C1620 1.511 . S
C1623 H1637 0.961 . S
C1623 H1638 0.961 . S
C1623 H1639 0.961 . S
C1624 C1625 1.370 1_455 S
C1624 C1626 1.363 . S
C1624 H1640 0.931 . S
C1625 C1624 1.370 1_655 S
C1625 C1629 1.408 . S
C1626 C1624 1.363 . S
C1626 C1627 1.370 1_455 S
C1626 C1630 1.524 . S
C1627 C1619 1.503 . S
C1627 C1626 1.370 1_655 S
C1627 C1628 1.403 . S
C1628 C1627 1.403 . S
C1628 C1629 1.404 . S
C1628 C1631 1.539 . S
C1629 C1625 1.408 . S
C1629 C1628 1.404 . S
C1629 H1641 0.930 . S
C1630 C1626 1.524 . S
C1630 H1642 0.956 . S
C1630 H1643 0.961 . S
C1630 H1644 0.961 . S
C1631 C1628 1.539 . S
C1631 H1645 0.958 . S
C1631 H1646 0.961 . S
C1631 H1647 0.960 . S
H1632 C1616 0.931 . S
H1633 C1621 0.929 . S
H1634 C1622 0.960 . S
H1635 C1622 0.962 . S
H1636 C1622 0.960 . S
H1637 C1623 0.961 . S
H1638 C1623 0.961 . S
H1639 C1623 0.961 . S
H1640 C1624 0.931 . S
H1641 C1629 0.930 . S
H1642 C1630 0.956 . S
H1643 C1630 0.961 . S
H1644 C1630 0.961 . S
H1645 C1631 0.958 . S
H1646 C1631 0.961 . S
H1647 C1631 0.960 . S
C1648 C1649 1.391 1_565 S
C1648 C1650 1.394 . S
C1648 H1664 0.931 . S
C1649 C1648 1.391 1_545 S
C1649 C1653 1.376 . S
C1650 C1648 1.394 . S
C1650 C1651 1.369 . S
C1650 C1654 1.531 . S
C1651 C1650 1.369 . S
C1651 C1652 1.410 1_565 S
C1651 C1659 1.503 . S
C1652 C1651 1.410 1_545 S
C1652 C1653 1.392 . S
C1652 C1655 1.511 . S
C1653 C1649 1.376 . S
C1653 C1652 1.392 . S
C1653 H1665 0.929 . S
C1654 C1650 1.531 . S
C1654 H1666 0.960 . S
C1654 H1667 0.962 . S
C1654 H1668 0.960 . S
C1655 C1652 1.511 . S
C1655 H1669 0.961 . S
C1655 H1670 0.961 . S
C1655 H1671 0.961 . S
C1656 C1657 1.370 1_545 S
C1656 C1658 1.363 . S
C1656 H1672 0.931 . S
C1657 C1656 1.370 1_565 S
C1657 C1661 1.408 . S
C1658 C1656 1.363 . S
C1658 C1659 1.370 1_545 S
C1658 C1662 1.524 . S
C1659 C1651 1.503 . S
C1659 C1658 1.370 1_565 S
C1659 C1660 1.403 . S
C1660 C1659 1.403 . S
C1660 C1661 1.404 . S
C1660 C1663 1.539 . S
C1661 C1657 1.408 . S
C1661 C1660 1.404 . S
C1661 H1673 0.930 . S
C1662 C1658 1.524 . S
C1662 H1674 0.956 . S
C1662 H1675 0.961 . S
C1662 H1676 0.961 . S
C1663 C1660 1.539 . S
C1663 H1677 0.958 . S
C1663 H1678 0.961 . S
C1663 H1679 0.960 . S
H1664 C1648 0.931 . S
H1665 C1653 0.929 . S
H1666 C1654 0.960 . S
H1667 C1654 0.962 . S
H1668 C1654 0.960 . S
H1669 C1655 0.961 . S
H1670 C1655 0.961 . S
H1671 C1655 0.961 . S
H1672 C1656 0.931 . S
H1673 C1661 0.930 . S
H1674 C1662 0.956 . S
H1675 C1662 0.961 . S
H1676 C1662 0.961 . S
H1677 C1663 0.958 . S
H1678 C1663 0.961 . S
H1679 C1663 0.960 . S
C1680 C1681 1.391 . S
C1680 C1682 1.394 . S
C1680 H1696 0.931 . S
C1681 C1680 1.391 . S
C1681 C1685 1.376 . S
C1682 C1680 1.394 . S
C1682 C1683 1.369 . S
C1682 C1686 1.531 . S
C1683 C1682 1.369 . S
C1683 C1684 1.410 . S
C1683 C1691 1.503 1_556 S
C1684 C1683 1.410 . S
C1684 C1685 1.392 . S
C1684 C1687 1.511 . S
C1685 C1681 1.376 . S
C1685 C1684 1.392 . S
C1685 H1697 0.929 . S
C1686 C1682 1.531 . S
C1686 H1698 0.906 1_556 S
C1686 H1699 0.962 . S
C1686 H1700 0.960 . S
C1687 C1684 1.511 . S
C1687 H1701 0.961 . S
C1687 H1702 0.961 1_556 S
C1687 H1703 0.961 . S
C1688 C1689 1.370 . S
C1688 C1690 1.363 . S
C1688 H1704 0.931 . S
C1689 C1688 1.370 . S
C1689 C1693 1.408 . S
C1690 C1688 1.363 . S
C1690 C1691 1.370 . S
C1690 C1694 1.524 . S
C1691 C1683 1.503 1_554 S
C1691 C1690 1.370 . S
C1691 C1692 1.403 . S
C1692 C1691 1.403 . S
C1692 C1693 1.404 . S
C1692 C1695 1.539 . S
C1693 C1689 1.408 . S
C1693 C1692 1.404 . S
C1693 H1705 0.930 . S
C1694 C1690 1.524 . S
C1694 H1706 0.926 1_554 S
C1694 H1707 0.961 1_554 S
C1694 H1708 0.961 . S
C1695 C1692 1.539 . S
C1695 H1709 0.958 . S
C1695 H1710 0.961 . S
C1695 H1711 0.960 . S
H1696 C1680 0.931 . S
H1697 C1685 0.929 . S
H1698 C1686 0.906 1_554 S
H1699 C1686 0.962 . S
H1700 C1686 0.960 . S
H1701 C1687 0.961 . S
H1702 C1687 0.961 1_554 S
H1703 C1687 0.961 . S
H1704 C1688 0.931 . S
H1705 C1693 0.930 . S
H1706 C1694 0.926 1_556 S
H1707 C1694 0.961 1_556 S
H1708 C1694 0.961 . S
H1709 C1695 0.958 . S
H1710 C1695 0.961 . S
H1711 C1695 0.960 . S
C1712 C1713 1.391 . S
C1712 C1714 1.394 . S
C1712 H1728 0.931 . S
C1713 C1712 1.391 . S
C1713 C1717 1.376 . S
C1714 C1712 1.394 . S
C1714 C1715 1.369 . S
C1714 C1718 1.531 . S
C1715 C1714 1.369 . S
C1715 C1716 1.410 . S
C1715 C1723 1.503 1_554 S
C1716 C1715 1.410 . S
C1716 C1717 1.392 . S
C1716 C1719 1.511 . S
C1717 C1713 1.376 . S
C1717 C1716 1.392 . S
C1717 H1729 0.929 . S
C1718 C1714 1.531 . S
C1718 H1730 0.960 1_554 S
C1718 H1731 0.962 . S
C1718 H1732 0.960 . S
C1719 C1716 1.511 . S
C1719 H1733 0.961 . S
C1719 H1734 0.961 1_554 S
C1719 H1735 0.961 . S
C1720 C1721 1.370 . S
C1720 C1722 1.363 . S
C1720 H1736 0.931 . S
C1721 C1720 1.370 . S
C1721 C1725 1.408 . S
C1722 C1720 1.363 . S
C1722 C1723 1.370 . S
C1722 C1726 1.524 . S
C1723 C1715 1.503 1_556 S
C1723 C1722 1.370 . S
C1723 C1724 1.403 . S
C1724 C1723 1.403 . S
C1724 C1725 1.404 . S
C1724 C1727 1.539 . S
C1725 C1721 1.408 . S
C1725 C1724 1.404 . S
C1725 H1737 0.930 . S
C1726 C1722 1.524 . S
C1726 H1738 0.926 1_556 S
C1726 H1739 0.961 1_556 S
C1726 H1740 0.961 . S
C1727 C1724 1.539 . S
C1727 H1741 0.958 . S
C1727 H1742 0.961 . S
C1727 H1743 0.960 . S
H1728 C1712 0.931 . S
H1729 C1717 0.929 . S
H1730 C1718 0.960 1_556 S
H1731 C1718 0.962 . S
H1732 C1718 0.960 . S
H1733 C1719 0.961 . S
H1734 C1719 0.961 1_556 S
H1735 C1719 0.961 . S
H1736 C1720 0.931 . S
H1737 C1725 0.930 . S
H1738 C1726 0.926 1_554 S
H1739 C1726 0.961 1_554 S
H1740 C1726 0.961 . S
H1741 C1727 0.958 . S
H1742 C1727 0.961 . S
H1743 C1727 0.960 . S
C1744 C1745 1.391 . S
C1744 C1746 1.394 . S
C1744 H1760 0.931 . S
C1745 C1744 1.391 . S
C1745 C1749 1.376 . S
C1746 C1744 1.394 . S
C1746 C1747 1.369 . S
C1746 C1750 1.531 . S
C1747 C1746 1.369 . S
C1747 C1748 1.410 . S
C1747 C1755 1.503 1_554 S
C1748 C1747 1.410 . S
C1748 C1749 1.392 . S
C1748 C1751 1.511 . S
C1749 C1745 1.376 . S
C1749 C1748 1.392 . S
C1749 H1761 0.929 . S
C1750 C1746 1.531 . S
C1750 H1762 0.960 1_554 S
C1750 H1763 0.962 . S
C1750 H1764 0.960 . S
C1751 C1748 1.511 . S
C1751 H1765 0.961 . S
C1751 H1766 0.913 1_554 S
C1751 H1767 0.961 . S
C1752 C1753 1.370 . S
C1752 C1754 1.363 . S
C1752 H1768 0.931 . S
C1753 C1752 1.370 . S
C1753 C1757 1.408 . S
C1754 C1752 1.363 . S
C1754 C1755 1.370 . S
C1754 C1758 1.524 . S
C1755 C1747 1.503 1_556 S
C1755 C1754 1.370 . S
C1755 C1756 1.403 . S
C1756 C1755 1.403 . S
C1756 C1757 1.404 . S
C1756 C1759 1.539 . S
C1757 C1753 1.408 . S
C1757 C1756 1.404 . S
C1757 H1769 0.930 . S
C1758 C1754 1.524 . S
C1758 H1770 0.956 . S
C1758 H1771 0.958 1_556 S
C1758 H1772 0.961 . S
C1759 C1756 1.539 . S
C1759 H1773 0.958 . S
C1759 H1774 0.961 . S
C1759 H1775 0.960 1_556 S
H1760 C1744 0.931 . S
H1761 C1749 0.929 . S
H1762 C1750 0.960 1_556 S
H1763 C1750 0.962 . S
H1764 C1750 0.960 . S
H1765 C1751 0.961 . S
H1766 C1751 0.913 1_556 S
H1767 C1751 0.961 . S
H1768 C1752 0.931 . S
H1769 C1757 0.930 . S
H1770 C1758 0.956 . S
H1771 C1758 0.958 1_554 S
H1772 C1758 0.961 . S
H1773 C1759 0.958 . S
H1774 C1759 0.961 . S
H1775 C1759 0.960 1_554 S
C1776 C1777 1.391 . S
C1776 C1778 1.394 . S
C1776 H1792 0.931 . S
C1777 C1776 1.391 . S
C1777 C1781 1.376 . S
C1778 C1776 1.394 . S
C1778 C1779 1.369 . S
C1778 C1782 1.531 . S
C1779 C1778 1.369 . S
C1779 C1780 1.410 . S
C1779 C1787 1.503 1_556 S
C1780 C1779 1.410 . S
C1780 C1781 1.392 . S
C1780 C1783 1.511 . S
C1781 C1777 1.376 . S
C1781 C1780 1.392 . S
C1781 H1793 0.929 . S
C1782 C1778 1.531 . S
C1782 H1794 0.959 1_556 S
C1782 H1795 0.962 . S
C1782 H1796 0.960 . S
C1783 C1780 1.511 . S
C1783 H1797 0.961 . S
C1783 H1798 0.961 1_556 S
C1783 H1799 0.961 . S
C1784 C1785 1.370 . S
C1784 C1786 1.363 . S
C1784 H1800 0.931 . S
C1785 C1784 1.370 . S
C1785 C1789 1.408 . S
C1786 C1784 1.363 . S
C1786 C1787 1.370 . S
C1786 C1790 1.524 . S
C1787 C1779 1.503 1_554 S
C1787 C1786 1.370 . S
C1787 C1788 1.403 . S
C1788 C1787 1.403 . S
C1788 C1789 1.404 . S
C1788 C1791 1.539 . S
C1789 C1785 1.408 . S
C1789 C1788 1.404 . S
C1789 H1801 0.930 . S
C1790 C1786 1.524 . S
C1790 H1802 0.956 . S
C1790 H1803 0.984 . S
C1790 H1804 0.961 . S
C1791 C1788 1.539 . S
C1791 H1805 0.958 . S
C1791 H1806 0.961 . S
C1791 H1807 0.960 1_554 S
H1792 C1776 0.931 . S
H1793 C1781 0.929 . S
H1794 C1782 0.959 1_554 S
H1795 C1782 0.962 . S
H1796 C1782 0.960 . S
H1797 C1783 0.961 . S
H1798 C1783 0.961 1_554 S
H1799 C1783 0.961 . S
H1800 C1784 0.931 . S
H1801 C1789 0.930 . S
H1802 C1790 0.956 . S
H1803 C1790 0.984 . S
H1804 C1790 0.961 . S
H1805 C1791 0.958 . S
H1806 C1791 0.961 . S
H1807 C1791 0.960 1_556 S
C529 C94 0.859 . S
C537 C28 0.840 . S
C561 C61 0.870 . S
C569 C127 0.852 . S
C593 C226 0.832 . S
C601 C160 0.851 . S
C625 C259 0.881 . S
C633 C193 0.846 . S
C657 C292 0.795 . S
C665 C358 0.875 . S
C689 C391 0.831 . S
C697 C325 0.851 . S
C721 C490 0.853 . S
C729 C424 0.842 . S
C753 C457 0.791 . S
C761 C523 0.874 . S
C785 N5 1.734 . S
C793 N500 1.735 . S
C817 N401 1.724 . S
C825 N38 1.731 . S
C849 N434 1.734 . S
C857 N71 1.735 . S
C881 N467 1.728 . S
C889 N104 1.733 . S
C913 N302 1.733 . S
C921 N137 1.735 . S
C945 N335 1.728 . S
C953 N170 1.733 . S
C977 N368 1.723 . S
C985 N203 1.731 . S
C1009 N269 1.732 . S
C1017 N236 1.735 . S
C1041 C17 1.435 . S
C1049 C107 1.489 . S
C1073 C8 1.484 . S
C1081 C50 1.432 . S
C1105 C83 1.432 . S
C1113 C41 1.482 . S
C1137 C74 1.486 . S
C1145 C116 1.433 . S
C1169 C173 1.475 . S
C1177 C149 1.451 . S
C1201 C182 1.415 . S
C1209 C206 1.484 . S
C1233 C239 1.489 . S
C1241 C215 1.438 . S
C1265 C140 1.486 . S
C1273 C248 1.433 . S
C1297 C281 1.423 . S
C1305 C371 1.483 . S
C1329 C272 1.489 . S
C1337 C314 1.444 . S
C1361 C347 1.461 . S
C1369 C305 1.488 . S
C1393 C380 1.461 . S
C1401 C338 1.483 . S
C1425 C413 1.433 . S
C1433 C437 1.489 . S
C1457 C470 1.474 . S
C1465 C446 1.448 . S
C1489 C503 1.479 . S
C1497 C479 1.456 . S
C1521 C512 1.450 . S
C1529 C404 1.489 . S
C1553 N14 1.555 . S
C1561 N212 1.558 . S
C1585 N245 1.510 . S
C1593 N47 1.547 . S
C1617 N146 1.552 . S
C1625 N80 1.533 . S
C1649 N179 1.577 . S
C1657 N113 1.544 . S
C1681 N278 1.533 . S
C1689 N476 1.561 . S
C1713 N509 1.516 . S
C1721 N311 1.558 . S
C1745 N410 1.554 . S
C1753 N344 1.533 . S
C1777 N377 1.577 . S
C1785 N443 1.544 . S
