# Generated by pormake.
# Topology rob, (6)-cn, num edge types: 1
# Building blocks:
#     Node 0, Type 0, BuildingBlock: NUHQIS_clean_sbu_0, # of connection points: 6
#     Node 1, Type 0, BuildingBlock: NUHQIS_clean_sbu_0, # of connection points: 6
#     Node 2, Type 0, BuildingBlock: NUHQIS_clean_sbu_0, # of connection points: 6
#     Node 3, Type 0, BuildingBlock: NUHQIS_clean_sbu_0, # of connection points: 6
#     Edge 4, Type (0, 0), BuildingBlock: UVAHIK_clean_linker_0, # of connection points: 2
#     Edge 5, Type (0, 0), BuildingBlock: UVAHIK_clean_linker_0, # of connection points: 2
#     Edge 6, Type (0, 0), BuildingBlock: UVAHIK_clean_linker_0, # of connection points: 2
#     Edge 7, Type (0, 0), BuildingBlock: UVAHIK_clean_linker_0, # of connection points: 2
#     Edge 8, Type (0, 0), BuildingBlock: UVAHIK_clean_linker_0, # of connection points: 2
#     Edge 9, Type (0, 0), BuildingBlock: UVAHIK_clean_linker_0, # of connection points: 2
#     Edge 10, Type (0, 0), BuildingBlock: UVAHIK_clean_linker_0, # of connection points: 2
#     Edge 11, Type (0, 0), BuildingBlock: UVAHIK_clean_linker_0, # of connection points: 2
#     Edge 12, Type (0, 0), BuildingBlock: UVAHIK_clean_linker_0, # of connection points: 2
#     Edge 13, Type (0, 0), BuildingBlock: UVAHIK_clean_linker_0, # of connection points: 2
#     Edge 14, Type (0, 0), BuildingBlock: UVAHIK_clean_linker_0, # of connection points: 2
#     Edge 15, Type (0, 0), BuildingBlock: UVAHIK_clean_linker_0, # of connection points: 2
# Relax obj value: 0.029
# Max RMSD: 0.122
# Mean RMSD: 0.122
data_MOF--net-rob--node1-NUHQIS_clean_sbu_0--edge1-UVAHIK_clean_linker_0
_symmetry_space_group_name_H-M    P1
_symmetry_Int_Tables_number       1
_symmetry_cell_setting            triclinic
loop_
_symmetry_equiv_pos_as_xyz
'x, y, z'
_cell_length_a     19.460569
_cell_length_b     34.290527
_cell_length_c     44.546052
_cell_angle_alpha  95.216268
_cell_angle_beta   90.081764
_cell_angle_gamma 89.929264
loop_
_atom_site_label
_atom_site_type_symbol
_atom_site_fract_x
_atom_site_fract_y
_atom_site_fract_z
_atom_type_partial_charge
Tb0 Tb 0.1907 0.25854 0.04151 0.0
Eu1 Eu 0.31764 0.21058 1.00476 0.0
C2 C 0.31729 0.30274 0.01661 0.0
C3 C 0.18959 0.24741 0.97075 0.0
C4 C 0.07337 0.28924 0.1046 0.0
C5 C 0.04539 0.31819 0.15496 0.0
C6 C 0.06441 0.32232 0.12516 0.0
C7 C 0.06197 0.25185 0.11417 0.0
C8 C 0.04212 0.24772 0.14391 0.0
C9 C 0.03445 0.28084 0.16471 0.0
C10 C 0.10056 0.29431 0.0743 0.0
O11 O 0.15258 0.19956 0.02911 0.0
O12 O 0.2542 0.16527 0.02507 0.0
O13 O 0.35154 0.22157 0.05323 0.0
O14 O 0.24393 0.22613 0.07418 0.0
C15 C 0.18713 0.16646 0.02794 0.0
O16 O 0.35242 0.16065 0.97478 0.0
O17 O 0.42521 0.20537 0.99114 0.0
O18 O 0.32881 0.27358 0.99622 0.0
O19 O 0.27663 0.29885 0.03962 0.0
O20 O 0.17517 0.27122 0.99482 0.0
O21 O 0.23231 0.21789 0.97179 0.0
C22 C 0.31057 0.22125 0.07664 0.0
O23 O 0.16475 0.30464 0.07375 0.0
O24 O 0.08632 0.26726 0.05271 0.0
C25 C 0.43564 0.17856 0.94075 0.0
C26 C 0.47051 0.18373 0.87982 0.0
C27 C 0.49253 0.15165 0.89497 0.0
C28 C 0.47526 0.14914 0.92524 0.0
C29 C 0.41343 0.21055 0.92573 0.0
C30 C 0.43092 0.21319 0.89559 0.0
C31 C 0.41388 0.17494 0.97195 0.0
H32 H 0.03928 0.34423 0.17041 0.0
H33 H 0.07358 0.35139 0.11831 0.0
H34 H 0.06975 0.2258 0.09888 0.0
H35 H 0.03466 0.21857 0.15089 0.0
H36 H 0.52348 0.12865 0.88348 0.0
H37 H 0.49229 0.12408 0.93644 0.0
H38 H 0.3818 0.23325 0.93723 0.0
H39 H 0.41228 0.23794 0.88445 0.0
Tb40 Tb 0.67639 0.75937 0.02802 0.0
Eu41 Eu 0.80924 0.71498 0.99324 0.0
C42 C 0.8062 0.8059 1.01049 0.0
C43 C 0.68436 0.75176 0.95731 0.0
C44 C 0.55866 0.79176 0.09023 0.0
C45 C 0.51149 0.82541 0.13601 0.0
C46 C 0.52929 0.8252 0.10556 0.0
C47 C 0.57058 0.75857 0.10581 0.0
C48 C 0.55233 0.75865 0.13615 0.0
C49 C 0.52247 0.79205 0.15157 0.0
C50 C 0.57939 0.79233 0.05848 0.0
O51 O 0.6432 0.70063 1.01159 0.0
O52 O 0.74617 0.66821 1.0119 0.0
O53 O 0.83816 0.72389 0.04255 0.0
O54 O 0.72889 0.72904 0.06221 0.0
C55 C 0.67882 0.66813 1.01221 0.0
O56 O 0.84998 0.66596 0.96402 0.0
O57 O 0.91744 0.7135 0.98011 0.0
O58 O 0.81865 0.77917 0.98831 0.0
O59 O 0.7637 0.79905 0.0322 0.0
O60 O 0.66626 0.77415 0.9816 0.0
O61 O 0.72769 0.72255 0.95851 0.0
C62 C 0.79547 0.72424 0.06549 0.0
O63 O 0.63808 0.8089 0.05411 0.0
O64 O 0.57289 0.75962 0.04148 0.0
C65 C 0.93239 0.68561 0.9302 0.0
C66 C 0.97128 0.68972 0.86952 0.0
C67 C 0.00644 0.6649 0.88789 0.0
C68 C 0.98702 0.66282 0.91795 0.0
C69 C 0.89751 0.71067 0.91213 0.0
C70 C 0.91667 0.71267 0.88206 0.0
C71 C 0.90991 0.68225 0.96136 0.0
H72 H 0.48814 0.85146 0.14725 0.0
H73 H 0.52028 0.8512 0.09399 0.0
H74 H 0.59422 0.73261 0.09456 0.0
H75 H 0.56227 0.7327 0.14765 0.0
H76 H 0.04817 0.64649 0.87886 0.0
H77 H 0.01418 0.64314 0.93154 0.0
H78 H 0.85516 0.72853 0.92126 0.0
H79 H 0.88906 0.73244 0.86871 0.0
Tb80 Tb 0.18641 0.72054 0.49415 0.0
Eu81 Eu 0.31959 0.76431 0.52843 0.0
C82 C 0.31762 0.67388 0.50745 0.0
C83 C 0.19943 0.7249 0.56519 0.0
C84 C 0.06561 0.69342 0.43224 0.0
C85 C 0.98999 0.67402 0.3901 0.0
C86 C 0.01021 0.67127 0.42002 0.0
C87 C 0.10049 0.71852 0.41427 0.0
C88 C 0.08052 0.72119 0.38434 0.0
C89 C 0.02508 0.6989 0.37184 0.0
C90 C 0.08864 0.68931 0.46328 0.0
O91 O 0.175 0.78334 0.492 0.0
O92 O 0.22693 0.80277 0.53666 0.0
O93 O 0.32505 0.78101 0.48069 0.0
O94 O 0.26141 0.7293 0.45925 0.0
C95 C 0.18315 0.80918 0.51531 0.0
O96 O 0.37165 0.81612 0.54979 0.0
O97 O 0.42147 0.75955 0.54813 0.0
O98 O 0.35271 0.70619 0.50578 0.0
O99 O 0.25056 0.675 0.51063 0.0
O100 O 0.15783 0.72483 0.54179 0.0
O101 O 0.26548 0.73204 0.56312 0.0
C102 C 0.30377 0.75872 0.45692 0.0
O103 O 0.14889 0.67328 0.46558 0.0
O104 O 0.08163 0.7202 0.48238 0.0
C105 C 0.43829 0.80165 0.59184 0.0
C106 C 0.47196 0.80386 0.65361 0.0
C107 C 0.4035 0.79831 0.64398 0.0
C108 C 0.38686 0.79703 0.61332 0.0
C109 C 0.50617 0.80831 0.6014 0.0
C110 C 0.52291 0.80944 0.63201 0.0
C111 C 0.42275 0.79594 0.55943 0.0
H112 H 0.94764 0.6561 0.38111 0.0
H113 H 0.98302 0.65155 0.43351 0.0
H114 H 0.14342 0.73591 0.42335 0.0
H115 H 0.10813 0.741 0.37109 0.0
H116 H 0.36323 0.7935 0.65999 0.0
H117 H 0.3342 0.79136 0.6063 0.0
H118 H 0.54655 0.81168 0.58512 0.0
H119 H 0.57595 0.81422 0.63875 0.0
Tb120 Tb 0.68035 0.21816 0.50537 0.0
Eu121 Eu 0.80912 0.2643 0.54142 0.0
C122 C 0.80791 0.17255 0.52628 0.0
C123 C 0.68102 0.22958 0.57564 0.0
C124 C 0.56465 0.18557 0.44272 0.0
C125 C 0.50403 0.15659 0.39854 0.0
C126 C 0.52056 0.15689 0.42915 0.0
C127 C 0.59214 0.21394 0.42536 0.0
C128 C 0.57608 0.21353 0.39477 0.0
C129 C 0.5318 0.18486 0.38099 0.0
C130 C 0.5835 0.1853 0.47467 0.0
O131 O 0.64718 0.27755 0.52 0.0
O132 O 0.74992 0.3093 0.51848 0.0
O133 O 0.84408 0.25374 0.49303 0.0
O134 O 0.73742 0.24509 0.47082 0.0
C135 C 0.68264 0.30964 0.5175 0.0
O136 O 0.84685 0.31517 0.56944 0.0
O137 O 0.91488 0.26598 0.55826 0.0
O138 O 0.8181 0.2003 0.54802 0.0
O139 O 0.76746 0.17833 0.50354 0.0
O140 O 0.66847 0.20479 0.55199 0.0
O141 O 0.72193 0.25971 0.57398 0.0
C142 C 0.80413 0.25064 0.46903 0.0
O143 O 0.64151 0.16832 0.47988 0.0
O144 O 0.57751 0.21858 0.49096 0.0
C145 C 0.92186 0.29758 0.60744 0.0
C146 C 0.95412 0.29408 0.66904 0.0
C147 C 0.00484 0.30375 0.64841 0.0
C148 C 0.98877 0.30551 0.6179 0.0
C149 C 0.87113 0.28788 0.62787 0.0
C150 C 0.88696 0.28636 0.65834 0.0
C151 C 0.90515 0.29858 0.57525 0.0
H152 H 0.47028 0.13392 0.3885 0.0
H153 H 0.49919 0.13465 0.44218 0.0
H154 H 0.62596 0.23649 0.43549 0.0
H155 H 0.59755 0.23602 0.38201 0.0
H156 H 0.05731 0.30925 0.6557 0.0
H157 H 0.02871 0.31273 0.60243 0.0
H158 H 0.81914 0.28146 0.62026 0.0
H159 H 0.84631 0.27937 0.67354 0.0
C160 C 0.67466 0.59518 1.00233 0.0
C161 C 0.64201 0.63052 1.01233 0.0
C162 C 0.6393 0.55969 1.00183 0.0
C163 C 0.46218 0.51881 1.00517 0.0
H164 H 0.55993 0.42468 0.02224 0.0
C165 C 0.32895 0.37469 0.03072 0.0
C166 C 0.35311 0.34035 1.0145 0.0
C167 C 0.36353 0.41015 0.02927 0.0
C168 C 0.53219 0.45073 0.01722 0.0
H169 H 0.54732 0.6564 0.03033 0.0
H170 H 0.48648 0.59449 0.0307 0.0
H171 H 0.62179 0.48654 0.02305 0.0
H172 H 0.43242 0.31618 0.98404 0.0
H173 H 0.4937 0.37816 0.98209 0.0
H174 H 0.37207 0.48284 1.00048 0.0
C175 C 0.53859 0.5941 0.02221 0.0
C176 C 0.56759 0.48619 0.01753 0.0
C177 C 0.5736 0.62964 0.0222 0.0
C178 C 0.41247 0.34218 0.99674 0.0
C179 C 0.44773 0.37753 0.99572 0.0
C180 C 0.42663 0.48346 1.00537 0.0
C181 C 0.57078 0.55862 1.01184 0.0
C182 C 0.5331 0.52075 1.01147 0.0
C183 C 0.42354 0.4118 1.01198 0.0
C184 C 0.46135 0.44912 1.01134 0.0
H185 H 0.72721 0.59499 0.99432 0.0
H186 H 0.66552 0.53317 0.99316 0.0
H187 H 0.43402 0.54451 0.99976 0.0
H188 H 0.2832 0.37423 0.04451 0.0
H189 H 0.34411 0.43616 0.04214 0.0
C190 C 0.42673 0.63505 0.5045 0.0
C191 C 0.35466 0.63608 0.50664 0.0
C192 C 0.46222 0.59966 0.50453 0.0
C193 C 0.44105 0.49263 0.49107 0.0
H194 H 0.60629 0.48979 0.53962 0.0
C195 C 0.5735 0.34795 0.51494 0.0
C196 C 0.64573 0.34694 0.51488 0.0
C197 C 0.53839 0.38316 0.51294 0.0
C198 C 0.56077 0.49018 0.52563 0.0
H199 H 0.26331 0.60059 0.51014 0.0
H200 H 0.32546 0.53874 0.51037 0.0
H201 H 0.5439 0.5512 0.53793 0.0
H202 H 0.73771 0.38217 0.51224 0.0
H203 H 0.67635 0.44357 0.50844 0.0
H204 H 0.45792 0.43158 0.47879 0.0
C205 C 0.35439 0.56535 0.50842 0.0
C206 C 0.52496 0.52537 0.52469 0.0
C207 C 0.31882 0.60082 0.50845 0.0
C208 C 0.68206 0.38193 0.5125 0.0
C209 C 0.6469 0.41717 0.51048 0.0
C210 C 0.47694 0.45743 0.49197 0.0
C211 C 0.42653 0.56443 0.50666 0.0
C212 C 0.46464 0.52699 0.50744 0.0
C213 C 0.57464 0.41821 0.51079 0.0
C214 C 0.53715 0.45577 0.50932 0.0
H215 H 0.45601 0.66163 0.50295 0.0
H216 H 0.51771 0.59986 0.50271 0.0
H217 H 0.39529 0.49306 0.47724 0.0
H218 H 0.54384 0.32156 0.51677 0.0
H219 H 0.48277 0.38301 0.51364 0.0
C220 C 0.17856 0.09391 0.01665 0.0
C221 C 0.14901 0.12935 0.02857 0.0
C222 C 0.14124 0.05907 1.01568 0.0
C223 C 0.96224 0.02202 0.0195 0.0
H224 H 0.05463 0.92342 0.02831 0.0
C225 C 0.82049 0.87569 0.0312 0.0
C226 C 0.84368 0.84345 1.01214 0.0
C227 C 0.85693 0.91091 0.03342 0.0
C228 C 0.02834 0.95076 0.02565 0.0
H229 H 0.05814 0.15597 0.0498 0.0
H230 H 0.99387 0.09498 0.04923 0.0
H231 H 0.12021 0.98419 0.03346 0.0
H232 H 0.9232 0.8228 0.98046 0.0
H233 H 0.9875 0.88425 0.98481 0.0
H234 H 0.87 0.98829 1.01251 0.0
C235 C 0.04502 0.09416 0.03966 0.0
C236 C 0.06585 0.98561 0.02847 0.0
C237 C 0.08199 0.12913 0.04019 0.0
C238 C 0.90393 0.84716 0.99528 0.0
C239 C 0.94096 0.88219 0.99788 0.0
C240 C 0.92459 0.98721 0.01715 0.0
C241 C 0.07384 0.05872 0.02706 0.0
C242 C 0.03343 0.0217 0.02519 0.0
C243 C 0.91781 0.91433 0.01699 0.0
C244 C 0.95742 0.95127 0.01997 0.0
H245 H 0.22993 0.09322 1.00728 0.0
H246 H 0.16484 0.03259 1.0053 0.0
H247 H 0.93562 0.04906 0.01625 0.0
H248 H 0.77413 0.87374 0.04441 0.0
H249 H 0.83825 0.93525 0.04841 0.0
C250 C 0.83497 0.10509 0.50303 0.0
C251 C 0.84418 0.13464 0.5267 0.0
C252 C 0.87019 0.06958 0.50293 0.0
C253 C 0.02367 0.02494 0.53429 0.0
H254 H 0.93218 0.92738 0.50785 0.0
C255 C 0.15216 0.87427 0.54202 0.0
C256 C 0.14357 0.8462 0.51727 0.0
C257 C 0.11478 0.90922 0.54393 0.0
C258 C 0.95864 0.95441 0.515 0.0
H259 H 0.89708 0.14981 0.56906 0.0
H260 H 0.95812 0.0876 0.569 0.0
H261 H 0.86796 0.98868 0.51026 0.0
H262 H 0.08883 0.83287 0.47511 0.0
H263 H 0.02412 0.89401 0.47834 0.0
H264 H 0.11443 -0.00932 0.53891 0.0
C265 C 0.92427 0.09216 0.55032 0.0
C266 C 0.92184 -0.01046 0.5164 0.0
C267 C 0.88899 0.12772 0.55043 0.0
C268 C 0.09663 0.85383 0.49451 0.0
C269 C 0.0592 0.88878 0.49645 0.0
C270 C 0.06047 -0.01019 0.5329 0.0
C271 C 0.91544 0.06273 0.5265 0.0
C272 C 0.95401 0.02524 0.52592 0.0
C273 C 0.06789 0.91689 0.52117 0.0
C274 C 0.02845 0.95416 0.52311 0.0
H275 H 0.80097 0.10943 0.48435 0.0
H276 H 0.86292 0.04775 0.48405 0.0
H277 H 0.05025 0.05199 0.54128 0.0
H278 H 0.18769 0.86929 0.56002 0.0
H279 H 0.12203 0.93005 0.56345 0.0
C280 C 0.44594 0.17872 0.33875 0.0
C281 C 0.51404 0.18486 0.34853 0.0
C282 C 0.42874 0.17984 0.30838 0.0
C283 C 0.48995 0.21732 0.2378 0.0
H284 H 0.3506 0.14723 0.20155 0.0
C285 C 0.41025 0.21388 0.11176 0.0
C286 C 0.33897 0.214 0.10651 0.0
C287 C 0.4361 0.20796 0.14037 0.0
C288 C 0.38942 0.16709 0.2114 0.0
H289 H 0.61786 0.19605 0.33396 0.0
H290 H 0.58801 0.19761 0.28085 0.0
H291 H 0.38774 0.14087 0.25315 0.0
H292 H 0.23907 0.20762 0.12722 0.0
H293 H 0.28413 0.19722 0.17674 0.0
H294 H 0.49127 0.24353 0.19591 0.0
C295 C 0.5476 0.19267 0.29675 0.0
C296 C 0.41058 0.16355 0.241 0.0
C297 C 0.56474 0.19173 0.32718 0.0
C298 C 0.29428 0.20768 0.13038 0.0
C299 C 0.32007 0.20145 0.15878 0.0
C300 C 0.46902 0.2207 0.20809 0.0
C301 C 0.4793 0.18691 0.28698 0.0
C302 C 0.46029 0.18902 0.25477 0.0
C303 C 0.3912 0.20164 0.16416 0.0
C304 C 0.41772 0.19603 0.19475 0.0
H305 H 0.40553 0.17395 0.3547 0.0
H306 H 0.37541 0.17601 0.3018 0.0
H307 H 0.52778 0.23772 0.24777 0.0
H308 H 0.44606 0.21873 0.09389 0.0
H309 H 0.49121 0.20806 0.14384 0.0
C310 C 0.4658 0.75954 0.19317 0.0
C311 C 0.50164 0.79172 0.18362 0.0
C312 C 0.44488 0.7593 0.22313 0.0
C313 C 0.4812 0.80085 0.30024 0.0
H314 H 0.29555 0.76698 0.31561 0.0
C315 C 0.36979 0.79813 0.42143 0.0
C316 C 0.32847 0.76571 0.42636 0.0
C317 C 0.39115 0.80447 0.3922 0.0
C318 C 0.34781 0.77613 0.31178 0.0
H319 H 0.54487 0.84857 0.19812 0.0
H320 H 0.5085 0.84802 0.25074 0.0
H321 H 0.33312 0.77154 0.26397 0.0
H322 H 0.27815 0.71424 0.40431 0.0
H323 H 0.31622 0.72479 0.35406 0.0
H324 H 0.49642 0.80447 0.34808 0.0
C325 C 0.49651 0.82307 0.23492 0.0
C326 C 0.36923 0.77882 0.28215 0.0
C327 C 0.51682 0.82351 0.2048 0.0
C328 C 0.30959 0.73969 0.40149 0.0
C329 C 0.33103 0.74592 0.37248 0.0
C330 C 0.45991 0.79784 0.32998 0.0
C331 C 0.45981 0.79108 0.24432 0.0
C332 C 0.4364 0.79066 0.27601 0.0
C333 C 0.37161 0.77851 0.36734 0.0
C334 C 0.39324 0.78481 0.33607 0.0
H335 H 0.45295 0.73475 0.17734 0.0
H336 H 0.41731 0.73405 0.22978 0.0
H337 H 0.5334 0.8099 0.29615 0.0
H338 H 0.38509 0.8188 0.44006 0.0
H339 H 0.42199 0.83004 0.38903 0.0
C340 C 0.60471 0.78726 0.92422 0.0
C341 C 0.65774 0.75997 0.92728 0.0
C342 C 0.58151 0.79511 0.89553 0.0
C343 C 0.63848 0.79043 0.81658 0.0
H344 H 0.44482 0.78967 0.796 0.0
C345 C 0.54929 0.78073 0.69338 0.0
C346 C 0.49096 0.80194 0.6858 0.0
C347 C 0.56745 0.77839 0.72349 0.0
C348 C 0.49906 0.79061 0.80147 0.0
H349 H 0.72758 0.71943 0.90244 0.0
H350 H 0.6877 0.73335 0.85291 0.0
H351 H 0.48016 0.78129 0.84776 0.0
H352 H 0.40579 0.83735 0.704 0.0
H353 H 0.43809 0.83376 0.75677 0.0
H354 H 0.65791 0.79985 0.77063 0.0
C355 C 0.66417 0.7488 0.87258 0.0
C356 C 0.51923 0.78575 0.83112 0.0
C357 C 0.68673 0.74067 0.90107 0.0
C358 C 0.45085 0.8206 0.70913 0.0
C359 C 0.46929 0.81845 0.73936 0.0
C360 C 0.61841 0.79557 0.78711 0.0
C361 C 0.61161 0.77622 0.86943 0.0
C362 C 0.58924 0.78485 0.83882 0.0
C363 C 0.52804 0.79742 0.74692 0.0
C364 C 0.54853 0.79494 0.77897 0.0
H365 H 0.58121 0.80259 0.94393 0.0
H366 H 0.541 0.81647 0.89375 0.0
H367 H 0.69279 0.79061 0.82197 0.0
H368 H 0.58042 0.7653 0.67599 0.0
H369 H 0.612 0.7611 0.72839 0.0
C370 C 0.61833 0.18787 0.61035 0.0
C371 C 0.65018 0.22346 0.60524 0.0
C372 C 0.59275 0.18186 0.63895 0.0
C373 C 0.53596 0.23467 0.71051 0.0
H374 H 0.58596 0.13971 0.74636 0.0
C375 C 0.50947 0.22234 0.83779 0.0
C376 C 0.48819 0.18651 0.84764 0.0
C377 C 0.52485 0.22534 0.80747 0.0
C378 C 0.57056 0.16614 0.73655 0.0
H379 H 0.67886 0.28087 0.62608 0.0
H380 H 0.6341 0.27041 0.67559 0.0
H381 H 0.61811 0.14747 0.69427 0.0
H382 H 0.46585 0.12574 0.8333 0.0
H383 H 0.49209 0.13101 0.78022 0.0
H384 H 0.4885 0.2535 0.7526 0.0
C385 C 0.62864 0.24721 0.65755 0.0
C386 C 0.58904 0.17055 0.7067 0.0
C387 C 0.65469 0.25308 0.62916 0.0
C388 C 0.48294 0.15365 0.82646 0.0
C389 C 0.498 0.15669 0.79605 0.0
C390 C 0.51712 0.23017 0.74024 0.0
C391 C 0.59781 0.21148 0.66286 0.0
C392 C 0.57293 0.20516 0.69354 0.0
C393 C 0.51895 0.19263 0.78615 0.0
C394 C 0.53521 0.19615 0.75384 0.0
H395 H 0.61421 0.16443 0.59243 0.0
H396 H 0.56888 0.15409 0.64237 0.0
H397 H 0.52186 0.26141 0.70081 0.0
H398 H 0.51504 0.24805 0.85363 0.0
H399 H 0.54228 0.25328 0.80083 0.0
C400 C 0.89326 0.71765 0.1019 0.0
C401 C 0.82227 0.71958 0.09621 0.0
C402 C 0.91778 0.7153 0.1313 0.0
C403 C 0.86468 0.73595 0.21112 0.0
H404 H 0.01764 0.66861 0.22776 0.0
C405 C 0.93402 0.70243 0.33204 0.0
C406 C 0.00395 0.70158 0.33992 0.0
C407 C 0.91405 0.70503 0.30211 0.0
C408 C 0.97535 0.68791 0.22345 0.0
H409 H 0.72145 0.71961 0.11709 0.0
H410 H 0.76398 0.71497 0.16786 0.0
H411 H 0.97919 0.67197 0.17582 0.0
H412 H 0.10776 0.70234 0.3223 0.0
H413 H 0.07285 0.70738 0.27011 0.0
H414 H 0.86047 0.75174 0.25867 0.0
C415 C 0.80092 0.71603 0.14979 0.0
C416 C 0.95333 0.68985 0.19367 0.0
C417 C 0.77649 0.71841 0.12053 0.0
C418 C 0.05344 0.70331 0.31708 0.0
C419 C 0.03345 0.70578 0.2871 0.0
C420 C 0.88658 0.73396 0.24084 0.0
C421 C 0.87186 0.71486 0.15566 0.0
C422 C 0.89727 0.71364 0.18716 0.0
C423 C 0.96347 0.70677 0.27926 0.0
C424 C 0.94181 0.70968 0.24743 0.0
H425 H 0.93001 0.7186 0.08374 0.0
H426 H 0.97276 0.71474 0.13502 0.0
H427 H 0.82234 0.75525 0.20692 0.0
H428 H 0.89454 0.70153 0.34907 0.0
H429 H 0.85972 0.70528 0.29684 0.0
C430 C 0.89888 0.27037 0.43501 0.0
C431 C 0.83412 0.25332 0.43872 0.0
C432 C 0.92589 0.27284 0.40607 0.0
C433 C 0.91481 0.22725 0.3283 0.0
H434 H 0.98113 0.32658 0.30484 0.0
C435 C 0.96236 0.25176 0.20368 0.0
C436 C 0.01621 0.27653 0.19661 0.0
C437 C 0.94444 0.24828 0.23372 0.0
C438 C 0.96399 0.2984 0.31108 0.0
H439 H 0.74778 0.22474 0.41496 0.0
H440 H 0.79506 0.22875 0.36485 0.0
H441 H 0.9443 0.3214 0.35667 0.0
H442 H 0.09484 0.31624 0.21544 0.0
H443 H 0.06498 0.30946 0.26786 0.0
H444 H 0.93502 0.20392 0.28305 0.0
C445 C 0.82483 0.24035 0.3842 0.0
C446 C 0.94273 0.29553 0.3408 0.0
C447 C 0.7975 0.23839 0.41297 0.0
C448 C 0.05242 0.29735 0.22022 0.0
C449 C 0.03508 0.29353 0.25028 0.0
C450 C 0.93681 0.22996 0.29871 0.0
C451 C 0.88919 0.25766 0.3804 0.0
C452 C 0.91693 0.26008 0.34959 0.0
C453 C 0.98056 0.2691 0.25748 0.0
C454 C 0.96072 0.26573 0.28952 0.0
H455 H 0.92832 0.28214 0.4544 0.0
H456 H 0.97579 0.28621 0.40376 0.0
H457 H 0.89603 0.19939 0.33456 0.0
H458 H 0.93309 0.23568 0.18594 0.0
H459 H 0.90132 0.22979 0.23824 0.0
C460 C 0.94187 0.262 0.71739 0.0
C461 C 0.97128 0.29137 0.70144 0.0
C462 C 0.95873 0.25891 0.7476 0.0
C463 C 0.03858 0.31292 0.81513 0.0
H464 H 0.06662 0.2084 0.83949 0.0
C465 C 0.10864 0.28293 0.93819 0.0
C466 C 0.1587 0.25389 0.94112 0.0
C467 C 0.08058 0.2885 0.90985 0.0
C468 C 0.05932 0.23783 0.83307 0.0
H469 H 0.0405 0.34113 0.70524 0.0
H470 H 0.07167 0.33491 0.75759 0.0
H471 H 0.0289 0.21665 0.78847 0.0
H472 H 0.21927 0.20846 0.91629 0.0
H473 H 0.17138 0.21848 0.86743 0.0
H474 H 0.07171 0.334 0.85959 0.0
C475 C 0.03466 0.3146 0.74685 0.0
C476 C 0.03677 0.24257 0.80385 0.0
C477 C 0.01753 0.31781 0.71664 0.0
C478 C 0.18026 0.23083 0.91509 0.0
C479 C 0.15246 0.23642 0.88694 0.0
C480 C 0.06138 0.30817 0.84442 0.0
C481 C 0.00583 0.28493 0.76267 0.0
C482 C 0.02672 0.28017 0.79435 0.0
C483 C 0.10202 0.26515 0.88391 0.0
C484 C 0.07294 0.27054 0.8536 0.0
H485 H 0.90664 0.24082 0.70641 0.0
H486 H 0.9348 0.236 0.75912 0.0
H487 H 0.03049 0.34231 0.80874 0.0
H488 H 0.09092 0.30122 0.95775 0.0
H489 H 0.0415 0.31075 0.90833 0.0
C490 C 0.10065 0.71377 0.59998 0.0
C491 C 0.17167 0.71756 0.5952 0.0
C492 C 0.07524 0.70844 0.62876 0.0
C493 C 0.12819 0.67681 0.7027 0.0
H494 H 0.97223 0.73812 0.73392 0.0
C495 C 0.061 0.69161 0.82911 0.0
C496 C 0.99135 0.69155 0.83742 0.0
C497 C 0.07997 0.69318 0.79899 0.0
C498 C 0.01525 0.72036 0.72543 0.0
H499 H 0.2716 0.71844 0.6171 0.0
H500 H 0.22741 0.70927 0.66687 0.0
H501 H 0.00987 0.74277 0.68209 0.0
H502 H 0.88697 0.69266 0.82037 0.0
H503 H 0.92008 0.69526 0.76777 0.0
H504 H 0.13397 0.65449 0.74593 0.0
C505 C 0.19129 0.71 0.6484 0.0
C506 C 0.03679 0.72303 0.6957 0.0
C507 C 0.21659 0.71549 0.61979 0.0
C508 C 0.9411 0.69319 0.81482 0.0
C509 C 0.96009 0.69468 0.78465 0.0
C510 C 0.10659 0.67406 0.73234 0.0
C511 C 0.12034 0.70653 0.6533 0.0
C512 C 0.09412 0.70168 0.68413 0.0
C513 C 0.0298 0.69461 0.77633 0.0
C514 C 0.05043 0.69619 0.74424 0.0
H515 H 0.06458 0.7153 0.58158 0.0
H516 H 0.02031 0.70559 0.63176 0.0
H517 H 0.17176 0.65942 0.69431 0.0
H518 H 0.10102 0.69105 0.84599 0.0
H519 H 0.13413 0.69386 0.79353 0.0
loop_
_geom_bond_atom_site_label_1
_geom_bond_atom_site_label_2
_geom_bond_distance
_geom_bond_site_symmetry_2
_ccdc_geom_bond_type
Tb0 C10 2.825 . S
Tb0 O11 2.347 . S
Tb0 O14 2.366 . S
Tb0 O19 2.418 . S
Tb0 O20 2.384 1_554 S
Tb0 O23 2.479 . S
Tb0 O24 2.471 . S
Eu1 O12 2.418 . S
Eu1 O13 2.384 1_556 S
Eu1 O16 2.479 . S
Eu1 O17 2.471 . S
Eu1 O18 2.347 . S
Eu1 O21 2.366 . S
Eu1 C31 2.825 . S
C2 O18 1.259 1_554 S
C2 O19 1.265 . S
C3 O20 1.255 . S
C3 O21 1.265 . S
C4 C6 1.380 . S
C4 C7 1.374 . S
C4 C10 1.507 . S
C5 C6 1.384 . S
C5 C9 1.387 . S
C5 H32 0.930 . S
C6 C4 1.380 . S
C6 C5 1.384 . S
C6 H33 0.931 . S
C7 C4 1.374 . S
C7 C8 1.390 . S
C7 H34 0.930 . S
C8 C7 1.390 . S
C8 C9 1.391 . S
C8 H35 0.930 . S
C9 C5 1.387 . S
C9 C8 1.391 . S
C10 Tb0 2.825 . S
C10 C4 1.507 . S
C10 O23 1.238 . S
C10 O24 1.247 . S
O11 Tb0 2.347 . S
O11 C15 1.259 1_554 S
O12 Eu1 2.418 . S
O12 C15 1.265 . S
O13 Eu1 2.384 1_554 S
O13 C22 1.255 . S
O14 Tb0 2.366 . S
O14 C22 1.265 . S
C15 O11 1.259 1_556 S
C15 O12 1.265 . S
O16 Eu1 2.479 . S
O16 C31 1.238 . S
O17 Eu1 2.471 . S
O17 C31 1.247 . S
O18 Eu1 2.347 . S
O18 C2 1.259 1_556 S
O19 Tb0 2.418 . S
O19 C2 1.265 . S
O20 Tb0 2.384 1_556 S
O20 C3 1.255 . S
O21 Eu1 2.366 . S
O21 C3 1.265 . S
C22 O13 1.255 . S
C22 O14 1.265 . S
O23 Tb0 2.479 . S
O23 C10 1.238 . S
O24 Tb0 2.471 . S
O24 C10 1.247 . S
C25 C28 1.380 . S
C25 C29 1.374 . S
C25 C31 1.507 . S
C26 C27 1.387 . S
C26 C30 1.391 . S
C27 C26 1.387 . S
C27 C28 1.384 . S
C27 H36 0.930 . S
C28 C25 1.380 . S
C28 C27 1.384 . S
C28 H37 0.931 . S
C29 C25 1.374 . S
C29 C30 1.390 . S
C29 H38 0.930 . S
C30 C26 1.391 . S
C30 C29 1.390 . S
C30 H39 0.930 . S
C31 Eu1 2.825 . S
C31 O16 1.238 . S
C31 O17 1.247 . S
C31 C25 1.507 . S
H32 C5 0.930 . S
H33 C6 0.931 . S
H34 C7 0.930 . S
H35 C8 0.930 . S
H36 C27 0.930 . S
H37 C28 0.931 . S
H38 C29 0.930 . S
H39 C30 0.930 . S
Tb40 C50 2.825 . S
Tb40 O51 2.347 . S
Tb40 O54 2.366 . S
Tb40 O59 2.418 . S
Tb40 O60 2.384 1_554 S
Tb40 O63 2.479 . S
Tb40 O64 2.471 . S
Eu41 O52 2.418 . S
Eu41 O53 2.384 1_556 S
Eu41 O56 2.479 . S
Eu41 O57 2.471 . S
Eu41 O58 2.347 . S
Eu41 O61 2.366 . S
Eu41 C71 2.825 . S
C42 O58 1.259 1_554 S
C42 O59 1.265 . S
C43 O60 1.255 . S
C43 O61 1.265 . S
C44 C46 1.380 . S
C44 C47 1.374 . S
C44 C50 1.507 . S
C45 C46 1.384 . S
C45 C49 1.387 . S
C45 H72 0.930 . S
C46 C44 1.380 . S
C46 C45 1.384 . S
C46 H73 0.931 . S
C47 C44 1.374 . S
C47 C48 1.390 . S
C47 H74 0.930 . S
C48 C47 1.390 . S
C48 C49 1.391 . S
C48 H75 0.930 . S
C49 C45 1.387 . S
C49 C48 1.391 . S
C50 Tb40 2.825 . S
C50 C44 1.507 . S
C50 O63 1.238 . S
C50 O64 1.247 . S
O51 Tb40 2.347 . S
O51 C55 1.259 1_554 S
O52 Eu41 2.418 . S
O52 C55 1.265 . S
O53 Eu41 2.384 1_554 S
O53 C62 1.255 . S
O54 Tb40 2.366 . S
O54 C62 1.265 . S
C55 O51 1.259 1_556 S
C55 O52 1.265 . S
O56 Eu41 2.479 . S
O56 C71 1.238 . S
O57 Eu41 2.471 . S
O57 C71 1.247 . S
O58 Eu41 2.347 . S
O58 C42 1.259 1_556 S
O59 Tb40 2.418 . S
O59 C42 1.265 . S
O60 Tb40 2.384 1_556 S
O60 C43 1.255 . S
O61 Eu41 2.366 . S
O61 C43 1.265 . S
C62 O53 1.255 . S
C62 O54 1.265 . S
O63 Tb40 2.479 . S
O63 C50 1.238 . S
O64 Tb40 2.471 . S
O64 C50 1.247 . S
C65 C68 1.380 . S
C65 C69 1.374 . S
C65 C71 1.507 . S
C66 C67 1.387 . S
C66 C70 1.391 . S
C67 C66 1.387 . S
C67 C68 1.384 . S
C67 H76 0.930 . S
C68 C65 1.380 . S
C68 C67 1.384 . S
C68 H77 0.931 . S
C69 C65 1.374 . S
C69 C70 1.390 . S
C69 H78 0.930 . S
C70 C66 1.391 . S
C70 C69 1.390 . S
C70 H79 0.930 . S
C71 Eu41 2.825 . S
C71 O56 1.238 . S
C71 O57 1.247 . S
C71 C65 1.507 . S
H72 C45 0.930 . S
H73 C46 0.931 . S
H74 C47 0.930 . S
H75 C48 0.930 . S
H76 C67 0.930 . S
H77 C68 0.931 . S
H78 C69 0.930 . S
H79 C70 0.930 . S
Tb80 C90 2.825 . S
Tb80 O91 2.347 . S
Tb80 O94 2.366 . S
Tb80 O99 2.418 . S
Tb80 O100 2.384 . S
Tb80 O103 2.479 . S
Tb80 O104 2.471 . S
Eu81 O92 2.418 . S
Eu81 O93 2.384 . S
Eu81 O96 2.479 . S
Eu81 O97 2.471 . S
Eu81 O98 2.347 . S
Eu81 O101 2.366 . S
Eu81 C111 2.825 . S
C82 O98 1.259 . S
C82 O99 1.265 . S
C83 O100 1.255 . S
C83 O101 1.265 . S
C84 C86 1.380 . S
C84 C87 1.374 . S
C84 C90 1.507 . S
C85 C86 1.384 . S
C85 C89 1.387 . S
C85 H112 0.930 . S
C86 C84 1.380 . S
C86 C85 1.384 . S
C86 H113 0.931 . S
C87 C84 1.374 . S
C87 C88 1.390 . S
C87 H114 0.930 . S
C88 C87 1.390 . S
C88 C89 1.391 . S
C88 H115 0.930 . S
C89 C85 1.387 . S
C89 C88 1.391 . S
C90 Tb80 2.825 . S
C90 C84 1.507 . S
C90 O103 1.238 . S
C90 O104 1.247 . S
O91 Tb80 2.347 . S
O91 C95 1.259 . S
O92 Eu81 2.418 . S
O92 C95 1.265 . S
O93 Eu81 2.384 . S
O93 C102 1.255 . S
O94 Tb80 2.366 . S
O94 C102 1.265 . S
C95 O91 1.259 . S
C95 O92 1.265 . S
O96 Eu81 2.479 . S
O96 C111 1.238 . S
O97 Eu81 2.471 . S
O97 C111 1.247 . S
O98 Eu81 2.347 . S
O98 C82 1.259 . S
O99 Tb80 2.418 . S
O99 C82 1.265 . S
O100 Tb80 2.384 . S
O100 C83 1.255 . S
O101 Eu81 2.366 . S
O101 C83 1.265 . S
C102 O93 1.255 . S
C102 O94 1.265 . S
O103 Tb80 2.479 . S
O103 C90 1.238 . S
O104 Tb80 2.471 . S
O104 C90 1.247 . S
C105 C108 1.380 . S
C105 C109 1.374 . S
C105 C111 1.507 . S
C106 C107 1.387 . S
C106 C110 1.391 . S
C107 C106 1.387 . S
C107 C108 1.384 . S
C107 H116 0.930 . S
C108 C105 1.380 . S
C108 C107 1.384 . S
C108 H117 0.931 . S
C109 C105 1.374 . S
C109 C110 1.390 . S
C109 H118 0.930 . S
C110 C106 1.391 . S
C110 C109 1.390 . S
C110 H119 0.930 . S
C111 Eu81 2.825 . S
C111 O96 1.238 . S
C111 O97 1.247 . S
C111 C105 1.507 . S
H112 C85 0.930 . S
H113 C86 0.931 . S
H114 C87 0.930 . S
H115 C88 0.930 . S
H116 C107 0.930 . S
H117 C108 0.931 . S
H118 C109 0.930 . S
H119 C110 0.930 . S
Tb120 C130 2.825 . S
Tb120 O131 2.347 . S
Tb120 O134 2.366 . S
Tb120 O139 2.418 . S
Tb120 O140 2.384 . S
Tb120 O143 2.479 . S
Tb120 O144 2.471 . S
Eu121 O132 2.418 . S
Eu121 O133 2.384 . S
Eu121 O136 2.479 . S
Eu121 O137 2.471 . S
Eu121 O138 2.347 . S
Eu121 O141 2.366 . S
Eu121 C151 2.825 . S
C122 O138 1.259 . S
C122 O139 1.265 . S
C123 O140 1.255 . S
C123 O141 1.265 . S
C124 C126 1.380 . S
C124 C127 1.374 . S
C124 C130 1.507 . S
C125 C126 1.384 . S
C125 C129 1.387 . S
C125 H152 0.930 . S
C126 C124 1.380 . S
C126 C125 1.384 . S
C126 H153 0.931 . S
C127 C124 1.374 . S
C127 C128 1.390 . S
C127 H154 0.930 . S
C128 C127 1.390 . S
C128 C129 1.391 . S
C128 H155 0.930 . S
C129 C125 1.387 . S
C129 C128 1.391 . S
C130 Tb120 2.825 . S
C130 C124 1.507 . S
C130 O143 1.238 . S
C130 O144 1.247 . S
O131 Tb120 2.347 . S
O131 C135 1.259 . S
O132 Eu121 2.418 . S
O132 C135 1.265 . S
O133 Eu121 2.384 . S
O133 C142 1.255 . S
O134 Tb120 2.366 . S
O134 C142 1.265 . S
C135 O131 1.259 . S
C135 O132 1.265 . S
O136 Eu121 2.479 . S
O136 C151 1.238 . S
O137 Eu121 2.471 . S
O137 C151 1.247 . S
O138 Eu121 2.347 . S
O138 C122 1.259 . S
O139 Tb120 2.418 . S
O139 C122 1.265 . S
O140 Tb120 2.384 . S
O140 C123 1.255 . S
O141 Eu121 2.366 . S
O141 C123 1.265 . S
C142 O133 1.255 . S
C142 O134 1.265 . S
O143 Tb120 2.479 . S
O143 C130 1.238 . S
O144 Tb120 2.471 . S
O144 C130 1.247 . S
C145 C148 1.380 . S
C145 C149 1.374 . S
C145 C151 1.507 . S
C146 C147 1.387 . S
C146 C150 1.391 . S
C147 C146 1.387 . S
C147 C148 1.384 . S
C147 H156 0.930 . S
C148 C145 1.380 . S
C148 C147 1.384 . S
C148 H157 0.931 . S
C149 C145 1.374 . S
C149 C150 1.390 . S
C149 H158 0.930 . S
C150 C146 1.391 . S
C150 C149 1.390 . S
C150 H159 0.930 . S
C151 Eu121 2.825 . S
C151 O136 1.238 . S
C151 O137 1.247 . S
C151 C145 1.507 . S
H152 C125 0.930 . S
H153 C126 0.931 . S
H154 C127 0.930 . S
H155 C128 0.930 . S
H156 C147 0.930 . S
H157 C148 0.931 . S
H158 C149 0.930 . S
H159 C150 0.930 . S
C160 C161 1.349 1_556 S
C160 C162 1.327 . S
C160 H185 0.950 . S
C161 C160 1.349 1_554 S
C161 C177 1.349 . S
C162 C160 1.327 . S
C162 C181 1.429 1_556 S
C162 H186 0.950 . S
C163 C180 1.574 . S
C163 C182 1.368 . S
C163 H187 0.949 . S
H164 C168 0.949 . S
C165 C166 1.349 . S
C165 C167 1.327 . S
C165 H188 0.950 . S
C166 C165 1.349 . S
C166 C178 1.349 1_554 S
C167 C165 1.327 . S
C167 C183 1.429 . S
C167 H189 0.950 . S
C168 H164 0.949 . S
C168 C176 1.574 . S
C168 C184 1.368 1_556 S
H169 C177 0.950 . S
H170 C175 0.950 . S
H171 C176 0.949 . S
H172 C178 0.950 . S
H173 C179 0.950 . S
H174 C180 0.949 . S
C175 H170 0.950 . S
C175 C177 1.327 . S
C175 C181 1.429 . S
C176 C168 1.574 . S
C176 H171 0.949 . S
C176 C182 1.368 1_556 S
C177 C161 1.349 . S
C177 H169 0.950 . S
C177 C175 1.327 . S
C178 C166 1.349 1_556 S
C178 H172 0.950 . S
C178 C179 1.327 . S
C179 H173 0.950 . S
C179 C178 1.327 . S
C179 C183 1.429 1_556 S
C180 C163 1.574 . S
C180 H174 0.949 . S
C180 C184 1.368 . S
C181 C162 1.429 1_554 S
C181 C175 1.429 . S
C181 C182 1.523 . S
C182 C163 1.368 . S
C182 C176 1.368 1_554 S
C182 C181 1.523 . S
C183 C167 1.429 . S
C183 C179 1.429 1_554 S
C183 C184 1.523 . S
C184 C168 1.368 1_554 S
C184 C180 1.368 . S
C184 C183 1.523 . S
H185 C160 0.950 . S
H186 C162 0.950 . S
H187 C163 0.949 . S
H188 C165 0.950 . S
H189 C167 0.950 . S
C190 C191 1.349 . S
C190 C192 1.327 . S
C190 H215 0.950 . S
C191 C190 1.349 . S
C191 C207 1.349 . S
C192 C190 1.327 . S
C192 C211 1.429 . S
C192 H216 0.950 . S
C193 C210 1.574 . S
C193 C212 1.368 . S
C193 H217 0.949 . S
H194 C198 0.949 . S
C195 C196 1.349 . S
C195 C197 1.327 . S
C195 H218 0.950 . S
C196 C195 1.349 . S
C196 C208 1.349 . S
C197 C195 1.327 . S
C197 C213 1.429 . S
C197 H219 0.950 . S
C198 H194 0.949 . S
C198 C206 1.574 . S
C198 C214 1.368 . S
H199 C207 0.950 . S
H200 C205 0.950 . S
H201 C206 0.949 . S
H202 C208 0.950 . S
H203 C209 0.950 . S
H204 C210 0.949 . S
C205 H200 0.950 . S
C205 C207 1.327 . S
C205 C211 1.429 . S
C206 C198 1.574 . S
C206 H201 0.949 . S
C206 C212 1.368 . S
C207 C191 1.349 . S
C207 H199 0.950 . S
C207 C205 1.327 . S
C208 C196 1.349 . S
C208 H202 0.950 . S
C208 C209 1.327 . S
C209 H203 0.950 . S
C209 C208 1.327 . S
C209 C213 1.429 . S
C210 C193 1.574 . S
C210 H204 0.949 . S
C210 C214 1.368 . S
C211 C192 1.429 . S
C211 C205 1.429 . S
C211 C212 1.523 . S
C212 C193 1.368 . S
C212 C206 1.368 . S
C212 C211 1.523 . S
C213 C197 1.429 . S
C213 C209 1.429 . S
C213 C214 1.523 . S
C214 C198 1.368 . S
C214 C210 1.368 . S
C214 C213 1.523 . S
H215 C190 0.950 . S
H216 C192 0.950 . S
H217 C193 0.949 . S
H218 C195 0.950 . S
H219 C197 0.950 . S
C220 C221 1.349 1_556 S
C220 C222 1.327 . S
C220 H245 0.950 . S
C221 C220 1.349 1_554 S
C221 C237 1.349 . S
C222 C220 1.327 . S
C222 C241 1.429 1_556 S
C222 H246 0.950 . S
C223 C240 1.574 1_545 S
C223 C242 1.368 1_655 S
C223 H247 0.949 . S
H224 C228 0.949 . S
C225 C226 1.349 . S
C225 C227 1.327 . S
C225 H248 0.950 . S
C226 C225 1.349 . S
C226 C238 1.349 1_554 S
C227 C225 1.327 . S
C227 C243 1.429 . S
C227 H249 0.950 . S
C228 H224 0.949 . S
C228 C236 1.574 1_565 S
C228 C244 1.368 1_456 S
H229 C237 0.950 . S
H230 C235 0.950 . S
H231 C236 0.949 . S
H232 C238 0.950 . S
H233 C239 0.950 . S
H234 C240 0.949 . S
C235 H230 0.950 . S
C235 C237 1.327 . S
C235 C241 1.429 . S
C236 C228 1.574 1_545 S
C236 H231 0.949 . S
C236 C242 1.368 1_556 S
C237 C221 1.349 . S
C237 H229 0.950 . S
C237 C235 1.327 . S
C238 C226 1.349 1_556 S
C238 H232 0.950 . S
C238 C239 1.327 . S
C239 H233 0.950 . S
C239 C238 1.327 . S
C239 C243 1.429 1_556 S
C240 C223 1.574 1_565 S
C240 H234 0.949 . S
C240 C244 1.368 . S
C241 C222 1.429 1_554 S
C241 C235 1.429 . S
C241 C242 1.523 . S
C242 C223 1.368 1_455 S
C242 C236 1.368 1_554 S
C242 C241 1.523 . S
C243 C227 1.429 . S
C243 C239 1.429 1_554 S
C243 C244 1.523 . S
C244 C228 1.368 1_654 S
C244 C240 1.368 . S
C244 C243 1.523 . S
H245 C220 0.950 . S
H246 C222 0.950 . S
H247 C223 0.949 . S
H248 C225 0.950 . S
H249 C227 0.950 . S
C250 C251 1.349 . S
C250 C252 1.327 . S
C250 H275 0.950 . S
C251 C250 1.349 . S
C251 C267 1.349 . S
C252 C250 1.327 . S
C252 C271 1.429 . S
C252 H276 0.950 . S
C253 C270 1.574 1_545 S
C253 C272 1.368 1_455 S
C253 H277 0.949 . S
H254 C258 0.949 . S
C255 C256 1.349 . S
C255 C257 1.327 . S
C255 H278 0.950 . S
C256 C255 1.349 . S
C256 C268 1.349 . S
C257 C255 1.327 . S
C257 C273 1.429 . S
C257 H279 0.950 . S
C258 H254 0.949 . S
C258 C266 1.574 1_565 S
C258 C274 1.368 1_655 S
H259 C267 0.950 . S
H260 C265 0.950 . S
H261 C266 0.949 . S
H262 C268 0.950 . S
H263 C269 0.950 . S
H264 C270 0.949 . S
C265 H260 0.950 . S
C265 C267 1.327 . S
C265 C271 1.429 . S
C266 C258 1.574 1_545 S
C266 H261 0.949 . S
C266 C272 1.368 . S
C267 C251 1.349 . S
C267 H259 0.950 . S
C267 C265 1.327 . S
C268 C256 1.349 . S
C268 H262 0.950 . S
C268 C269 1.327 . S
C269 H263 0.950 . S
C269 C268 1.327 . S
C269 C273 1.429 . S
C270 C253 1.574 1_565 S
C270 H264 0.949 . S
C270 C274 1.368 . S
C271 C252 1.429 . S
C271 C265 1.429 . S
C271 C272 1.523 . S
C272 C253 1.368 1_655 S
C272 C266 1.368 . S
C272 C271 1.523 . S
C273 C257 1.429 . S
C273 C269 1.429 . S
C273 C274 1.523 . S
C274 C258 1.368 1_455 S
C274 C270 1.368 . S
C274 C273 1.523 . S
H275 C250 0.950 . S
H276 C252 0.950 . S
H277 C253 0.949 . S
H278 C255 0.950 . S
H279 C257 0.950 . S
C280 C281 1.349 . S
C280 C282 1.327 . S
C280 H305 0.950 . S
C281 C280 1.349 . S
C281 C297 1.349 . S
C282 C280 1.327 . S
C282 C301 1.429 . S
C282 H306 0.950 . S
C283 C300 1.574 . S
C283 C302 1.368 . S
C283 H307 0.949 . S
H284 C288 0.949 . S
C285 C286 1.349 . S
C285 C287 1.327 . S
C285 H308 0.950 . S
C286 C285 1.349 . S
C286 C298 1.349 . S
C287 C285 1.327 . S
C287 C303 1.429 . S
C287 H309 0.950 . S
C288 H284 0.949 . S
C288 C296 1.574 . S
C288 C304 1.368 . S
H289 C297 0.950 . S
H290 C295 0.950 . S
H291 C296 0.949 . S
H292 C298 0.950 . S
H293 C299 0.950 . S
H294 C300 0.949 . S
C295 H290 0.950 . S
C295 C297 1.327 . S
C295 C301 1.429 . S
C296 C288 1.574 . S
C296 H291 0.949 . S
C296 C302 1.368 . S
C297 C281 1.349 . S
C297 H289 0.950 . S
C297 C295 1.327 . S
C298 C286 1.349 . S
C298 H292 0.950 . S
C298 C299 1.327 . S
C299 H293 0.950 . S
C299 C298 1.327 . S
C299 C303 1.429 . S
C300 C283 1.574 . S
C300 H294 0.949 . S
C300 C304 1.368 . S
C301 C282 1.429 . S
C301 C295 1.429 . S
C301 C302 1.523 . S
C302 C283 1.368 . S
C302 C296 1.368 . S
C302 C301 1.523 . S
C303 C287 1.429 . S
C303 C299 1.429 . S
C303 C304 1.523 . S
C304 C288 1.368 . S
C304 C300 1.368 . S
C304 C303 1.523 . S
H305 C280 0.950 . S
H306 C282 0.950 . S
H307 C283 0.949 . S
H308 C285 0.950 . S
H309 C287 0.950 . S
C310 C311 1.349 . S
C310 C312 1.327 . S
C310 H335 0.950 . S
C311 C310 1.349 . S
C311 C327 1.349 . S
C312 C310 1.327 . S
C312 C331 1.429 . S
C312 H336 0.950 . S
C313 C330 1.574 . S
C313 C332 1.368 . S
C313 H337 0.949 . S
H314 C318 0.949 . S
C315 C316 1.349 . S
C315 C317 1.327 . S
C315 H338 0.950 . S
C316 C315 1.349 . S
C316 C328 1.349 . S
C317 C315 1.327 . S
C317 C333 1.429 . S
C317 H339 0.950 . S
C318 H314 0.949 . S
C318 C326 1.574 . S
C318 C334 1.368 . S
H319 C327 0.950 . S
H320 C325 0.950 . S
H321 C326 0.949 . S
H322 C328 0.950 . S
H323 C329 0.950 . S
H324 C330 0.949 . S
C325 H320 0.950 . S
C325 C327 1.327 . S
C325 C331 1.429 . S
C326 C318 1.574 . S
C326 H321 0.949 . S
C326 C332 1.368 . S
C327 C311 1.349 . S
C327 H319 0.950 . S
C327 C325 1.327 . S
C328 C316 1.349 . S
C328 H322 0.950 . S
C328 C329 1.327 . S
C329 H323 0.950 . S
C329 C328 1.327 . S
C329 C333 1.429 . S
C330 C313 1.574 . S
C330 H324 0.949 . S
C330 C334 1.368 . S
C331 C312 1.429 . S
C331 C325 1.429 . S
C331 C332 1.523 . S
C332 C313 1.368 . S
C332 C326 1.368 . S
C332 C331 1.523 . S
C333 C317 1.429 . S
C333 C329 1.429 . S
C333 C334 1.523 . S
C334 C318 1.368 . S
C334 C330 1.368 . S
C334 C333 1.523 . S
H335 C310 0.950 . S
H336 C312 0.950 . S
H337 C313 0.949 . S
H338 C315 0.950 . S
H339 C317 0.950 . S
C340 C341 1.349 . S
C340 C342 1.327 . S
C340 H365 0.950 . S
C341 C340 1.349 . S
C341 C357 1.349 . S
C342 C340 1.327 . S
C342 C361 1.429 . S
C342 H366 0.950 . S
C343 C360 1.574 . S
C343 C362 1.368 . S
C343 H367 0.949 . S
H344 C348 0.949 . S
C345 C346 1.349 . S
C345 C347 1.327 . S
C345 H368 0.950 . S
C346 C345 1.349 . S
C346 C358 1.349 . S
C347 C345 1.327 . S
C347 C363 1.429 . S
C347 H369 0.950 . S
C348 H344 0.949 . S
C348 C356 1.574 . S
C348 C364 1.368 . S
H349 C357 0.950 . S
H350 C355 0.950 . S
H351 C356 0.949 . S
H352 C358 0.950 . S
H353 C359 0.950 . S
H354 C360 0.949 . S
C355 H350 0.950 . S
C355 C357 1.327 . S
C355 C361 1.429 . S
C356 C348 1.574 . S
C356 H351 0.949 . S
C356 C362 1.368 . S
C357 C341 1.349 . S
C357 H349 0.950 . S
C357 C355 1.327 . S
C358 C346 1.349 . S
C358 H352 0.950 . S
C358 C359 1.327 . S
C359 H353 0.950 . S
C359 C358 1.327 . S
C359 C363 1.429 . S
C360 C343 1.574 . S
C360 H354 0.949 . S
C360 C364 1.368 . S
C361 C342 1.429 . S
C361 C355 1.429 . S
C361 C362 1.523 . S
C362 C343 1.368 . S
C362 C356 1.368 . S
C362 C361 1.523 . S
C363 C347 1.429 . S
C363 C359 1.429 . S
C363 C364 1.523 . S
C364 C348 1.368 . S
C364 C360 1.368 . S
C364 C363 1.523 . S
H365 C340 0.950 . S
H366 C342 0.950 . S
H367 C343 0.949 . S
H368 C345 0.950 . S
H369 C347 0.950 . S
C370 C371 1.349 . S
C370 C372 1.327 . S
C370 H395 0.950 . S
C371 C370 1.349 . S
C371 C387 1.349 . S
C372 C370 1.327 . S
C372 C391 1.429 . S
C372 H396 0.950 . S
C373 C390 1.574 . S
C373 C392 1.368 . S
C373 H397 0.949 . S
H374 C378 0.949 . S
C375 C376 1.349 . S
C375 C377 1.327 . S
C375 H398 0.950 . S
C376 C375 1.349 . S
C376 C388 1.349 . S
C377 C375 1.327 . S
C377 C393 1.429 . S
C377 H399 0.950 . S
C378 H374 0.949 . S
C378 C386 1.574 . S
C378 C394 1.368 . S
H379 C387 0.950 . S
H380 C385 0.950 . S
H381 C386 0.949 . S
H382 C388 0.950 . S
H383 C389 0.950 . S
H384 C390 0.949 . S
C385 H380 0.950 . S
C385 C387 1.327 . S
C385 C391 1.429 . S
C386 C378 1.574 . S
C386 H381 0.949 . S
C386 C392 1.368 . S
C387 C371 1.349 . S
C387 H379 0.950 . S
C387 C385 1.327 . S
C388 C376 1.349 . S
C388 H382 0.950 . S
C388 C389 1.327 . S
C389 H383 0.950 . S
C389 C388 1.327 . S
C389 C393 1.429 . S
C390 C373 1.574 . S
C390 H384 0.949 . S
C390 C394 1.368 . S
C391 C372 1.429 . S
C391 C385 1.429 . S
C391 C392 1.523 . S
C392 C373 1.368 . S
C392 C386 1.368 . S
C392 C391 1.523 . S
C393 C377 1.429 . S
C393 C389 1.429 . S
C393 C394 1.523 . S
C394 C378 1.368 . S
C394 C390 1.368 . S
C394 C393 1.523 . S
H395 C370 0.950 . S
H396 C372 0.950 . S
H397 C373 0.949 . S
H398 C375 0.950 . S
H399 C377 0.950 . S
C400 C401 1.349 . S
C400 C402 1.327 . S
C400 H425 0.950 . S
C401 C400 1.349 . S
C401 C417 1.349 . S
C402 C400 1.327 . S
C402 C421 1.429 . S
C402 H426 0.950 . S
C403 C420 1.574 . S
C403 C422 1.368 . S
C403 H427 0.949 . S
H404 C408 0.949 1_455 S
C405 C406 1.349 1_655 S
C405 C407 1.327 . S
C405 H428 0.950 . S
C406 C405 1.349 1_455 S
C406 C418 1.349 . S
C407 C405 1.327 . S
C407 C423 1.429 . S
C407 H429 0.950 . S
C408 H404 0.949 1_655 S
C408 C416 1.574 . S
C408 C424 1.368 . S
H409 C417 0.950 . S
H410 C415 0.950 . S
H411 C416 0.949 . S
H412 C418 0.950 . S
H413 C419 0.950 . S
H414 C420 0.949 . S
C415 H410 0.950 . S
C415 C417 1.327 . S
C415 C421 1.429 . S
C416 C408 1.574 . S
C416 H411 0.949 . S
C416 C422 1.368 . S
C417 C401 1.349 . S
C417 H409 0.950 . S
C417 C415 1.327 . S
C418 C406 1.349 . S
C418 H412 0.950 . S
C418 C419 1.327 . S
C419 H413 0.950 . S
C419 C418 1.327 . S
C419 C423 1.429 1_455 S
C420 C403 1.574 . S
C420 H414 0.949 . S
C420 C424 1.368 . S
C421 C402 1.429 . S
C421 C415 1.429 . S
C421 C422 1.523 . S
C422 C403 1.368 . S
C422 C416 1.368 . S
C422 C421 1.523 . S
C423 C407 1.429 . S
C423 C419 1.429 1_655 S
C423 C424 1.523 . S
C424 C408 1.368 . S
C424 C420 1.368 . S
C424 C423 1.523 . S
H425 C400 0.950 . S
H426 C402 0.950 . S
H427 C403 0.949 . S
H428 C405 0.950 . S
H429 C407 0.950 . S
C430 C431 1.349 . S
C430 C432 1.327 . S
C430 H455 0.950 . S
C431 C430 1.349 . S
C431 C447 1.349 . S
C432 C430 1.327 . S
C432 C451 1.429 . S
C432 H456 0.950 . S
C433 C450 1.574 . S
C433 C452 1.368 . S
C433 H457 0.949 . S
H434 C438 0.949 1_455 S
C435 C436 1.349 1_655 S
C435 C437 1.327 . S
C435 H458 0.950 . S
C436 C435 1.349 1_455 S
C436 C448 1.349 . S
C437 C435 1.327 . S
C437 C453 1.429 . S
C437 H459 0.950 . S
C438 H434 0.949 1_655 S
C438 C446 1.574 . S
C438 C454 1.368 . S
H439 C447 0.950 . S
H440 C445 0.950 . S
H441 C446 0.949 . S
H442 C448 0.950 . S
H443 C449 0.950 . S
H444 C450 0.949 . S
C445 H440 0.950 . S
C445 C447 1.327 . S
C445 C451 1.429 . S
C446 C438 1.574 . S
C446 H441 0.949 . S
C446 C452 1.368 . S
C447 C431 1.349 . S
C447 H439 0.950 . S
C447 C445 1.327 . S
C448 C436 1.349 . S
C448 H442 0.950 . S
C448 C449 1.327 . S
C449 H443 0.950 . S
C449 C448 1.327 . S
C449 C453 1.429 1_455 S
C450 C433 1.574 . S
C450 H444 0.949 . S
C450 C454 1.368 . S
C451 C432 1.429 . S
C451 C445 1.429 . S
C451 C452 1.523 . S
C452 C433 1.368 . S
C452 C446 1.368 . S
C452 C451 1.523 . S
C453 C437 1.429 . S
C453 C449 1.429 1_655 S
C453 C454 1.523 . S
C454 C438 1.368 . S
C454 C450 1.368 . S
C454 C453 1.523 . S
H455 C430 0.950 . S
H456 C432 0.950 . S
H457 C433 0.949 . S
H458 C435 0.950 . S
H459 C437 0.950 . S
C460 C461 1.349 1_455 S
C460 C462 1.327 . S
C460 H485 0.950 . S
C461 C460 1.349 1_655 S
C461 C477 1.349 . S
C462 C460 1.327 . S
C462 C481 1.429 . S
C462 H486 0.950 . S
C463 C480 1.574 . S
C463 C482 1.368 . S
C463 H487 0.949 1_455 S
H464 C468 0.949 . S
C465 C466 1.349 . S
C465 C467 1.327 . S
C465 H488 0.950 . S
C466 C465 1.349 . S
C466 C478 1.349 . S
C467 C465 1.327 . S
C467 C483 1.429 . S
C467 H489 0.950 . S
C468 H464 0.949 . S
C468 C476 1.574 . S
C468 C484 1.368 . S
H469 C477 0.950 . S
H470 C475 0.950 . S
H471 C476 0.949 . S
H472 C478 0.950 . S
H473 C479 0.950 . S
H474 C480 0.949 . S
C475 H470 0.950 . S
C475 C477 1.327 . S
C475 C481 1.429 1_655 S
C476 C468 1.574 . S
C476 H471 0.949 . S
C476 C482 1.368 . S
C477 C461 1.349 . S
C477 H469 0.950 . S
C477 C475 1.327 . S
C478 C466 1.349 . S
C478 H472 0.950 . S
C478 C479 1.327 . S
C479 H473 0.950 . S
C479 C478 1.327 . S
C479 C483 1.429 . S
C480 C463 1.574 . S
C480 H474 0.949 . S
C480 C484 1.368 . S
C481 C462 1.429 . S
C481 C475 1.429 1_455 S
C481 C482 1.523 . S
C482 C463 1.368 . S
C482 C476 1.368 . S
C482 C481 1.523 . S
C483 C467 1.429 . S
C483 C479 1.429 . S
C483 C484 1.523 . S
C484 C468 1.368 . S
C484 C480 1.368 . S
C484 C483 1.523 . S
H485 C460 0.950 . S
H486 C462 0.950 . S
H487 C463 0.949 1_655 S
H488 C465 0.950 . S
H489 C467 0.950 . S
C490 C491 1.349 . S
C490 C492 1.327 . S
C490 H515 0.950 . S
C491 C490 1.349 . S
C491 C507 1.349 . S
C492 C490 1.327 . S
C492 C511 1.429 . S
C492 H516 0.950 . S
C493 C510 1.574 . S
C493 C512 1.368 . S
C493 H517 0.949 . S
H494 C498 0.949 1_655 S
C495 C496 1.349 1_455 S
C495 C497 1.327 . S
C495 H518 0.950 . S
C496 C495 1.349 1_655 S
C496 C508 1.349 . S
C497 C495 1.327 . S
C497 C513 1.429 . S
C497 H519 0.950 . S
C498 H494 0.949 1_455 S
C498 C506 1.574 . S
C498 C514 1.368 . S
H499 C507 0.950 . S
H500 C505 0.950 . S
H501 C506 0.949 . S
H502 C508 0.950 . S
H503 C509 0.950 . S
H504 C510 0.949 . S
C505 H500 0.950 . S
C505 C507 1.327 . S
C505 C511 1.429 . S
C506 C498 1.574 . S
C506 H501 0.949 . S
C506 C512 1.368 . S
C507 C491 1.349 . S
C507 H499 0.950 . S
C507 C505 1.327 . S
C508 C496 1.349 . S
C508 H502 0.950 . S
C508 C509 1.327 . S
C509 H503 0.950 . S
C509 C508 1.327 . S
C509 C513 1.429 1_655 S
C510 C493 1.574 . S
C510 H504 0.949 . S
C510 C514 1.368 . S
C511 C492 1.429 . S
C511 C505 1.429 . S
C511 C512 1.523 . S
C512 C493 1.368 . S
C512 C506 1.368 . S
C512 C511 1.523 . S
C513 C497 1.429 . S
C513 C509 1.429 1_455 S
C513 C514 1.523 . S
C514 C498 1.368 . S
C514 C510 1.368 . S
C514 C513 1.523 . S
H515 C490 0.950 . S
H516 C492 0.950 . S
H517 C493 0.949 . S
H518 C495 0.950 . S
H519 C497 0.950 . S
C161 C55 1.505 1_554 S
C166 C2 1.505 . S
C191 C82 1.505 . S
C196 C135 1.505 . S
C221 C15 1.505 1_554 S
C226 C42 1.505 . S
C251 C122 1.505 . S
C256 C95 1.505 . S
C281 C129 1.227 . S
C286 C22 1.226 . S
C311 C49 1.227 . S
C316 C102 1.226 . S
C341 C43 1.226 . S
C346 C106 1.227 . S
C371 C123 1.226 . S
C376 C26 1.227 . S
C401 C62 1.226 . S
C406 C89 1.227 . S
C431 C142 1.226 . S
C436 C9 1.227 . S
C461 C146 1.227 . S
C466 C3 1.226 . S
C491 C83 1.226 . S
C496 C66 1.227 . S
