# Generated by pormake.
# Topology sxc, (6)-cn, num edge types: 1
# Building blocks:
#     Node 0, Type 0, BuildingBlock: KUMJIN_clean_sbu_1, # of connection points: 6
#     Node 1, Type 0, BuildingBlock: KUMJIN_clean_sbu_1, # of connection points: 6
#     Node 2, Type 0, BuildingBlock: KUMJIN_clean_sbu_1, # of connection points: 6
#     Edge 3, Type (0, 0), BuildingBlock: XUDNAN_clean_linker_2, # of connection points: 2
#     Edge 4, Type (0, 0), BuildingBlock: XUDNAN_clean_linker_2, # of connection points: 2
#     Edge 5, Type (0, 0), BuildingBlock: XUDNAN_clean_linker_2, # of connection points: 2
#     Edge 6, Type (0, 0), BuildingBlock: XUDNAN_clean_linker_2, # of connection points: 2
#     Edge 7, Type (0, 0), BuildingBlock: XUDNAN_clean_linker_2, # of connection points: 2
#     Edge 8, Type (0, 0), BuildingBlock: XUDNAN_clean_linker_2, # of connection points: 2
#     Edge 9, Type (0, 0), BuildingBlock: XUDNAN_clean_linker_2, # of connection points: 2
#     Edge 10, Type (0, 0), BuildingBlock: XUDNAN_clean_linker_2, # of connection points: 2
#     Edge 11, Type (0, 0), BuildingBlock: XUDNAN_clean_linker_2, # of connection points: 2
# Relax obj value: 0.260
# Max RMSD: 0.161
# Mean RMSD: 0.118
data_MOF--net-sxc--node1-KUMJIN_clean_sbu_1--edge1-XUDNAN_clean_linker_2
_symmetry_space_group_name_H-M    P1
_symmetry_Int_Tables_number       1
_symmetry_cell_setting            triclinic
loop_
_symmetry_equiv_pos_as_xyz
'x, y, z'
_cell_length_a     15.713685
_cell_length_b     17.115595
_cell_length_c     44.630766
_cell_angle_alpha  109.70327
_cell_angle_beta   98.89629
_cell_angle_gamma 97.648356
loop_
_atom_site_label
_atom_site_type_symbol
_atom_site_fract_x
_atom_site_fract_y
_atom_site_fract_z
_atom_type_partial_charge
Eu0 Eu 0.94502 0.14984 0.98187 0.0
C1 C 0.30401 0.12483 0.05127 0.0
N2 N 0.24422 0.17442 0.06016 0.0
C3 C 0.29617 0.19591 0.11626 0.0
C4 C 0.36087 0.10754 0.07495 0.0
C5 C 0.24031 0.21054 0.09213 0.0
C6 C 0.35592 0.1434 0.10766 0.0
C7 C 0.37272 1.04209 0.00922 0.0
C8 C 0.31055 0.09303 0.0185 0.0
C9 C 0.42878 1.02489 0.03286 0.0
C10 C 0.42308 1.05768 0.06556 0.0
Eu11 Eu 0.17752 0.21718 0.01903 0.0
N12 N 0.25735 0.11263 -0.00409 0.0
C13 C 0.37816 1.01096 0.97645 0.0
C14 C 0.26354 1.08292 0.96402 0.0
C15 C 0.32304 1.03117 0.95377 0.0
H16 H 0.19987 0.25673 0.09949 0.0
H17 H 0.32772 1.00849 0.92844 0.0
H18 H 0.93761 0.17043 0.90944 0.0
H19 H 0.76647 0.28702 0.07775 0.0
H20 H 0.22571 0.10045 0.94631 0.0
H21 H 0.42536 0.97202 0.96846 0.0
H22 H 0.86332 0.19797 0.05229 0.0
H23 H 0.29566 0.22809 0.1416 0.0
H24 H 0.47753 0.98678 0.02612 0.0
H25 H 0.46778 1.04465 0.08353 0.0
H26 H 0.85018 0.22842 0.87476 0.0
H27 H 0.39981 0.13305 0.12658 0.0
H28 H 0.68539 0.36199 0.04804 0.0
N29 N 0.88155 0.22157 0.95031 0.0
C30 C 0.81901 0.26376 0.96204 0.0
C31 C 0.84186 0.24027 0.89944 0.0
C32 C 0.76708 0.29803 0.94287 0.0
C33 C 0.89271 0.20864 0.9194 0.0
C34 C 0.77883 0.28531 0.91122 0.0
N35 N 0.85386 0.23433 0.01073 0.0
C36 C 0.83659 0.23636 0.04007 0.0
C37 C 0.74434 0.31889 0.00615 0.0
C38 C 0.80706 0.2728 0.99336 0.0
C39 C 0.73234 0.3265 0.03731 0.0
C40 C 0.77831 0.28466 0.05424 0.0
H41 H 0.73894 0.30922 0.89557 0.0
H42 H 0.66331 0.36886 0.94109 0.0
H43 H 0.64458 0.38863 -0.00339 0.0
O44 O 0.81155 1.0853 0.97639 0.0
O45 O 0.99182 0.30016 0.98871 0.0
O46 O 0.13639 0.34463 0.01459 0.0
O47 O 0.87339 1.0582 0.9349 0.0
O48 O 0.98259 0.14384 0.03325 0.0
O49 O 0.08653 0.26179 0.05257 0.0
O50 O 0.3079 0.26806 0.015 0.0
O51 O 0.12994 1.06948 0.01431 0.0
O52 O 0.98598 1.02253 0.98739 0.0
O53 O 0.26179 0.32082 0.06063 0.0
O54 O 0.14627 0.22223 0.96843 0.0
O55 O 1.03194 0.11186 0.94537 0.0
C56 C 0.06325 0.36446 0.00138 0.0
C57 C 0.76841 0.94849 0.936 0.0
C58 C 0.67144 0.83825 0.94339 0.0
C59 C 0.69709 0.77668 0.91858 0.0
C60 C 0.79409 0.88695 0.91091 0.0
C61 C 0.75824 0.80125 0.90227 0.0
C62 C 0.70631 0.92354 0.95187 0.0
C63 C 1.03299 0.20669 0.05835 0.0
C64 C 0.80488 1.03868 0.94589 0.0
C65 C 0.70419 0.34271 0.95557 0.0
C66 C 0.69357 0.35394 0.98721 0.0
C67 C 1.05997 1.00382 0.00071 0.0
C68 C 0.40995 0.37574 0.06042 0.0
C69 C 0.49271 0.50472 0.06107 0.0
C70 C 0.53228 0.52568 0.09403 0.0
C71 C 0.44742 0.39634 0.09338 0.0
C72 C 0.43867 0.42563 0.04378 0.0
C73 C 0.51136 0.47002 0.10984 0.0
C74 C 0.09422 0.16521 0.94226 0.0
C75 C 0.32626 0.31866 0.0455 0.0
H76 H 0.67178 0.70996 0.91258 0.0
H77 H 0.84199 0.90477 0.89815 0.0
H78 H 0.77885 0.75387 0.8833 0.0
H79 H 0.68655 0.97015 0.9715 0.0
H80 H 0.57506 0.58652 0.10801 0.0
H81 H 0.42424 0.35799 0.10658 0.0
H82 H 0.40918 0.40806 0.01817 0.0
H83 H 0.53977 0.48703 0.13542 0.0
Eu84 Eu 1.05251 0.09471 0.31754 0.0
C85 C 0.31635 0.42091 0.40591 0.0
N86 N 0.24581 0.37199 0.4095 0.0
C87 C 0.32297 0.38857 0.46263 0.0
C88 C 0.39595 0.44859 0.42943 0.0
C89 C 0.24644 0.35998 0.43819 0.0
C90 C 0.3988 0.43091 0.45789 0.0
C91 C 0.38219 0.49109 0.37364 0.0
C92 C 0.30843 0.44472 0.3789 0.0
C93 C 0.46264 0.51523 0.39627 0.0
C94 C 0.46919 0.49498 0.4243 0.0
Eu95 Eu 0.11689 0.33321 0.36837 0.0
N96 N 0.22936 0.42063 0.35738 0.0
C97 C 0.37338 0.51063 0.34549 0.0
C98 C 0.21977 0.44317 0.33068 0.0
C99 C 0.29197 0.48635 0.32391 0.0
H100 H 0.18707 0.33182 0.44295 0.0
H101 H 0.28507 0.50069 0.30197 0.0
H102 H 0.97597 0.1133 0.24556 0.0
H103 H 0.88098 0.9263 0.38217 0.0
H104 H 0.15696 0.42792 0.31437 0.0
H105 H 0.42893 0.54448 0.3402 0.0
H106 H 1.00885 1.004 0.371 0.0
H107 H 0.32313 0.37987 0.48542 0.0
H108 H 0.51994 0.55055 0.39252 0.0
H109 H 0.53105 0.51591 0.44196 0.0
H110 H 0.83736 1.08698 0.20711 0.0
H111 H 0.45803 0.45262 0.47689 0.0
H112 H 0.73536 0.89088 0.34517 0.0
N113 N 0.92015 1.07511 0.2796 0.0
C114 C 0.84785 1.02897 0.28351 0.0
C115 C 0.83843 1.07283 0.22904 0.0
C116 C 0.76679 1.00717 0.26097 0.0
C117 C 0.91718 0.09176 0.25173 0.0
C118 C 0.76232 1.03173 0.23399 0.0
N119 N 0.93452 1.02095 0.3306 0.0
C120 C 0.94483 0.99244 0.35573 0.0
C121 C 0.78168 0.95221 0.31384 0.0
C122 C 0.85536 1.00056 0.30946 0.0
C123 C 0.79085 0.92689 0.34069 0.0
C124 C 0.87284 0.947 0.3617 0.0
H125 H 0.70157 1.01553 0.21603 0.0
H126 H 0.63134 0.94071 0.24799 0.0
H127 H 0.64467 0.89164 0.29389 0.0
O128 O 1.05799 0.96329 0.30889 0.0
O129 O 0.94564 0.16006 0.34208 0.0
O130 O 0.97369 0.28946 0.33833 0.0
O131 O 1.0619 1.0099 0.26959 0.0
O132 O 0.12412 0.11944 0.36948 0.0
O133 O 0.07548 0.24039 0.39174 0.0
O134 O 0.11246 0.4664 0.38999 0.0
O135 O 0.23517 0.2753 0.35341 0.0
O136 O 0.20652 0.12935 0.3317 0.0
O137 O 1.05365 0.37762 0.40957 0.0
O138 O 1.06094 0.3066 0.31451 0.0
O139 O 0.10411 0.18058 0.29173 0.0
C140 C 0.91654 0.22732 0.33986 0.0
C141 C 0.14035 0.90294 0.27038 0.0
C142 C 0.25165 0.83058 0.28676 0.0
C143 C 0.25688 0.7942 0.25367 0.0
C144 C 0.14009 0.86021 0.23758 0.0
C145 C 0.20123 0.80905 0.22935 0.0
C146 C 0.20225 0.8946 0.29464 0.0
C147 C 0.11079 0.17834 0.39519 0.0
C148 C 0.06913 0.947 0.27922 0.0
C149 C 0.69378 0.95836 0.26517 0.0
C150 C 0.70147 0.93028 0.29129 0.0
C151 C 0.26243 0.20332 0.3423 0.0
C152 C 0.98016 0.48542 0.40656 0.0
C153 C 0.8962 0.5474 0.37417 0.0
C154 C 0.86119 0.58931 0.401 0.0
C155 C 0.94814 0.52836 0.43381 0.0
C156 C 0.94242 0.48447 0.37615 0.0
C157 C 0.8843 0.57653 0.43043 0.0
C158 C 0.08108 0.2499 0.28944 0.0
C159 C 1.06193 0.45403 0.40938 0.0
H160 H 0.2983 0.7489 0.246 0.0
H161 H 0.09205 0.86551 0.2185 0.0
H162 H 0.20159 0.77641 0.20397 0.0
H163 H 0.20176 0.92998 0.31969 0.0
H164 H 0.82393 0.63768 0.4002 0.0
H165 H 0.97492 0.52773 0.45758 0.0
H166 H 0.96792 0.44958 0.35549 0.0
H167 H 0.8599 0.61088 0.45143 0.0
Eu168 Eu 0.17226 0.21395 0.68687 0.0
C169 C 0.26159 0.88638 0.60408 0.0
N170 N 0.20075 0.9312 0.59737 0.0
C171 C 0.23207 0.90667 0.54445 0.0
C172 C 0.31122 0.85096 0.58103 0.0
C173 C 0.18463 0.94096 0.56799 0.0
C174 C 0.29562 0.86144 0.55097 0.0
C175 C 0.34099 0.83434 0.64219 0.0
C176 C 0.27636 0.87864 0.63462 0.0
C177 C 0.39001 0.7986 0.61913 0.0
C178 C 0.37499 0.80665 0.58866 0.0
Eu179 Eu 0.11715 0.9764 0.63713 0.0
N180 N 0.22755 0.91339 0.65666 0.0
C181 C 0.35368 0.82583 0.67256 0.0
C182 C 0.2359 0.89993 0.68536 0.0
C183 C 0.30037 0.85809 0.69407 0.0
H184 H 0.13266 0.97203 0.5622 0.0
H185 H 0.30739 0.84883 0.71709 0.0
H186 H 0.15069 0.23329 0.76247 0.0
H187 H 1.01548 0.35918 0.60596 0.0
H188 H 0.19143 0.91786 0.70131 0.0
H189 H 0.40281 0.79241 0.67927 0.0
H190 H 0.12631 0.28977 0.62522 0.0
H191 H 0.21871 0.91411 0.52113 0.0
H192 H 0.4395 0.76404 0.62457 0.0
H193 H 0.41334 0.77852 0.57117 0.0
H194 H 1.05785 0.29211 0.80076 0.0
H195 H 0.33208 0.83463 0.53259 0.0
H196 H 0.90726 0.40907 0.63883 0.0
N197 N 0.08486 0.26566 0.72465 0.0
C198 C 1.02533 0.30937 0.71599 0.0
C199 C 1.04689 0.29615 0.77682 0.0
C200 C 0.97175 0.34557 0.73734 0.0
C201 C 0.09813 0.26095 0.75486 0.0
C202 C 0.9828 0.338 0.76792 0.0
N203 N 0.07217 0.28437 0.6657 0.0
C204 C 0.0751 0.30359 0.63847 0.0
C205 C 0.95645 0.36294 0.67641 0.0
C206 C 1.01766 0.31741 0.68558 0.0
C207 C 0.95344 0.37476 0.64677 0.0
C208 C 1.01403 0.3462 0.62802 0.0
H209 H 0.94335 0.36565 0.78505 0.0
H210 H 0.86818 0.41742 0.74391 0.0
H211 H 0.85547 0.4333 0.69107 0.0
O212 O 0.24849 0.33 0.68718 0.0
O213 O 1.02946 0.1467 0.68529 0.0
O214 O 0.99605 1.03887 0.63571 0.0
O215 O 0.24785 0.30975 0.7325 0.0
O216 O 0.17941 0.17406 0.63295 0.0
O217 O 0.06688 1.05964 0.6119 0.0
O218 O 1.03663 0.86268 0.63753 0.0
O219 O 0.25537 1.04676 0.63743 0.0
O220 O 0.29965 0.15712 0.6861 0.0
O221 O 1.05191 0.87345 0.59189 0.0
O222 O 0.10404 1.01307 0.69081 0.0
O223 O 0.21695 0.12505 0.71015 0.0
C224 C 0.96971 0.09245 0.65985 0.0
C225 C 0.38136 0.37115 0.725 0.0
C226 C 0.5151 0.44195 0.71732 0.0
C227 C 0.56417 0.39622 0.73166 0.0
C228 C 0.43031 0.32605 0.73991 0.0
C229 C 0.52147 0.33945 0.74348 0.0
C230 C 0.42411 0.42891 0.71396 0.0
C231 C 0.11739 0.1215 0.60844 0.0
C232 C 0.2855 0.3542 0.71793 0.0
C233 C 0.90983 0.38912 0.72781 0.0
C234 C 0.90224 0.39773 0.69751 0.0
C235 C 0.31981 0.09978 0.66125 0.0
C236 C 0.91181 0.81419 0.5943 0.0
C237 C 0.76787 0.77344 0.60339 0.0
C238 C 0.72814 0.78908 0.57628 0.0
C239 C 0.87215 0.82899 0.56664 0.0
C240 C 0.85893 0.7858 0.61227 0.0
C241 C 0.78058 0.81647 0.55778 0.0
C242 C 0.16144 1.07061 0.71566 0.0
C243 C 1.00751 0.83282 0.606 0.0
H244 H 0.63495 0.40634 0.73455 0.0
H245 H 0.39849 0.28014 0.74851 0.0
H246 H 0.55851 0.30642 0.75582 0.0
H247 H 0.38609 0.46306 0.70215 0.0
H248 H 0.65722 0.77825 0.56911 0.0
H249 H 0.9115 0.85099 0.55209 0.0
H250 H 0.88856 0.7733 0.63341 0.0
H251 H 0.75033 0.8278 0.53654 0.0
H252 H 1.04491 0.46054 0.95395 0.0
H253 H 0.07843 0.51086 0.05717 0.0
H254 H 0.08016 0.66227 0.06717 0.0
H255 H 0.19186 0.66825 0.96533 0.0
H256 H 0.12896 0.68333 0.93109 0.0
H257 H 0.12849 0.57782 0.93109 0.0
H258 H 0.95992 0.54898 0.92139 0.0
H259 H 0.95988 0.65436 0.92136 0.0
H260 H 0.90671 0.6195 0.94894 0.0
H261 H 0.08342 0.828 0.06731 0.0
H262 H 0.08241 0.9614 0.0572 0.0
H263 H 1.04346 0.82059 0.95385 0.0
C264 C 1.05201 0.50231 0.97894 0.0
C265 C 1.06057 0.46474 0.00465 0.0
C266 C 0.07118 0.52975 0.03623 0.0
C267 C 0.07238 0.61928 0.04232 0.0
C268 C 0.06438 0.65287 0.01705 0.0
C269 C 1.05455 0.59513 0.98564 0.0
C270 C 1.05012 0.64939 0.96293 0.0
C271 C 0.12948 0.64433 0.94659 0.0
C272 C 0.96403 0.61602 0.93709 0.0
C273 C 1.05477 0.74463 0.98566 0.0
C274 C 0.06492 0.74475 0.01709 0.0
C275 C 0.07472 0.8251 0.0424 0.0
C276 C 0.07407 0.90366 0.03627 0.0
C277 C 1.06175 0.90992 0.00459 0.0
C278 C 1.05196 0.82483 0.9789 0.0
H279 H 0.3968 0.10987 0.35464 0.0
H280 H 0.3534 0.31683 0.32279 0.0
H281 H 0.50908 0.34578 0.32024 0.0
H282 H 0.61973 0.21651 0.40489 0.0
H283 H 0.66396 0.12125 0.39521 0.0
H284 H 0.54841 0.11555 0.39492 0.0
H285 H 0.50519 1.01041 0.33414 0.0
H286 H 0.62089 1.0123 0.33832 0.0
H287 H 0.56127 1.03531 0.30519 0.0
H288 H 0.67362 0.35401 0.32034 0.0
H289 H 0.82819 0.33955 0.32261 0.0
H290 H 0.7777 0.12882 0.35487 0.0
C291 C 0.41968 0.16073 0.34679 0.0
C292 C 0.35975 0.21118 0.33905 0.0
C293 C 0.39558 0.27753 0.32939 0.0
C294 C 0.48506 0.29443 0.32766 0.0
C295 C 0.542 0.24483 0.33564 0.0
C296 C 0.51093 0.17934 0.34516 0.0
C297 C 0.58801 0.13725 0.35297 0.0
C298 C 0.60607 0.14831 0.38915 0.0
C299 C 0.56762 1.04319 0.33125 0.0
C300 C 0.66602 0.187 0.34524 0.0
C301 C 0.63735 0.24958 0.33569 0.0
C302 C 0.69607 0.30493 0.32778 0.0
C303 C 0.78515 0.29648 0.32933 0.0
C304 C 0.81842 0.23315 0.33885 0.0
C305 C 0.75633 0.17763 0.34701 0.0
H306 H 0.75228 0.61469 0.60162 0.0
H307 H 0.67635 0.85393 0.64741 0.0
H308 H 0.60826 0.7951 0.68391 0.0
H309 H 0.5581 0.48217 0.60233 0.0
H310 H 0.6142 0.40399 0.61064 0.0
H311 H 0.65868 0.46509 0.58876 0.0
H312 H 0.80783 0.52018 0.63129 0.0
H313 H 0.76276 0.45191 0.65036 0.0
H314 H 0.80605 0.5628 0.67403 0.0
H315 H 0.5514 0.71146 0.71465 0.0
H316 H 0.50153 0.6056 0.7377 0.0
H317 H 0.61525 0.42022 0.67144 0.0
C318 C 0.71967 0.65372 0.619 0.0
C319 C 0.71649 0.7373 0.62157 0.0
C320 C 0.6762 0.78865 0.64485 0.0
C321 C 0.63879 0.75622 0.66575 0.0
C322 C 0.64342 0.67318 0.66274 0.0
C323 C 0.68255 0.62257 0.63992 0.0
C324 C 0.67732 0.53513 0.64119 0.0
C325 C 0.62379 0.46761 0.60883 0.0
C326 C 0.76914 0.51673 0.6498 0.0
C327 C 0.62953 0.54449 0.66864 0.0
C328 C 0.61095 0.62476 0.6807 0.0
C329 C 0.56614 0.64874 0.70575 0.0
C330 C 0.5387 0.58871 0.71873 0.0
C331 C 0.55645 0.50625 0.70658 0.0
C332 C 0.60311 0.48381 0.6815 0.0
H333 H 0.86205 0.13765 0.70724 0.0
H334 H 0.84776 1.04717 0.60309 0.0
H335 H 0.68822 1.04233 0.5934 0.0
H336 H 0.64768 1.0001 0.69877 0.0
H337 H 0.61801 1.07564 0.73273 0.0
H338 H 0.73226 1.07375 0.73217 0.0
H339 H 0.76767 0.23384 0.73655 0.0
H340 H 0.65865 0.231 0.74343 0.0
H341 H 0.68882 0.26736 0.71209 0.0
H342 H 0.52575 1.04361 0.59395 0.0
H343 H 0.37755 1.05272 0.60436 0.0
H344 H 0.4843 0.14245 0.70836 0.0
C345 C 0.82554 0.11747 0.68238 0.0
C346 C 0.87047 0.09361 0.65597 0.0
C347 C 0.8176 1.06614 0.62398 0.0
C348 C 0.72572 1.06311 0.61814 0.0
C349 C 0.68379 1.08641 0.64439 0.0
C350 C 0.73177 0.1122 0.67592 0.0
C351 C 0.66861 0.13003 0.69951 0.0
C352 C 0.66659 1.06612 0.71684 0.0
C353 C 0.6974 0.22114 0.72427 0.0
C354 C 0.57847 0.11552 0.67657 0.0
C355 C 0.58955 0.08815 0.64476 0.0
C356 C 0.51708 1.0656 0.61882 0.0
C357 C 0.4319 1.07079 0.62507 0.0
C358 C 0.41611 0.09919 0.65717 0.0
C359 C 0.49216 0.12215 0.6834 0.0
H360 H 0.73322 0.83677 0.00209 0.0
H361 H 0.49473 0.78137 0.92933 0.0
H362 H 0.41283 0.71411 0.96036 0.0
H363 H 0.71413 0.65122 0.00448 0.0
H364 H 0.75569 0.67448 0.04716 0.0
H365 H 0.78999 0.74903 0.02913 0.0
H366 H 0.73535 0.8681 0.07047 0.0
H367 H 0.70462 0.79528 0.09003 0.0
H368 H 0.62464 0.84908 0.07643 0.0
H369 H 0.36716 0.6278 0.99118 0.0
H370 H 0.35832 0.52835 0.01981 0.0
H371 H 0.63396 0.62428 0.06751 0.0
C372 C 0.66283 0.81379 0.99379 0.0
C373 C 0.61893 0.81346 0.96389 0.0
C374 C 0.528 0.7815 0.9525 0.0
C375 C 0.48135 0.74434 0.9701 0.0
C376 C 0.52763 0.74015 -0.00135 0.0
C377 C 0.6164 0.77501 0.01071 0.0
C378 C 0.65529 0.7458 0.03725 0.0
C379 C 0.73324 0.70253 0.02896 0.0
C380 C 0.68152 0.819 0.0705 0.0
C381 C 0.5768 0.68371 0.03621 0.0
C382 C 0.50299 0.6841 0.01493 0.0
C383 C 0.42404 0.62813 0.00839 0.0
C384 C 0.42044 0.57078 0.02432 0.0
C385 C 0.49645 0.56805 0.04559 0.0
C386 C 0.57493 0.6259 0.0518 0.0
H387 H 0.96801 0.71494 0.39175 0.0
H388 H 0.89684 0.47747 0.30875 0.0
H389 H 1.0271 0.52061 0.28901 0.0
H390 H 1.03804 0.83664 0.34281 0.0
H391 H 0.12102 0.91056 0.37677 0.0
H392 H 1.02308 0.85879 0.3839 0.0
H393 H 0.1202 0.80507 0.42214 0.0
H394 H 0.21806 0.85439 0.41398 0.0
H395 H 0.19859 0.74264 0.40672 0.0
H396 H 0.17917 0.57258 0.28543 0.0
H397 H 0.2876 0.66711 0.2737 0.0
H398 H 0.25266 0.8787 0.35475 0.0
C399 C 0.97717 0.67306 0.36865 0.0
C400 C 0.92484 0.59071 0.35274 0.0
C401 C 0.93744 0.53998 0.32185 0.0
C402 C 1.01324 0.56188 0.31125 0.0
C403 C 0.07172 0.63679 0.33069 0.0
C404 C 1.05115 0.69475 0.35716 0.0
C405 C 0.11784 0.77725 0.3703 0.0
C406 C 0.07239 0.85012 0.36828 0.0
C407 C 0.16655 0.79584 0.40536 0.0
C408 C 0.17843 0.75635 0.34649 0.0
C409 C 0.15306 0.67319 0.32532 0.0
C410 C 0.19724 0.63884 0.30091 0.0
C411 C 0.2591 0.69402 0.29444 0.0
C412 C 0.2657 0.78272 0.30935 0.0
C413 C 0.23973 0.81208 0.33983 0.0
H414 H 0.11426 0.14311 0.23133 0.0
H415 H 1.027 0.3787 0.27243 0.0
H416 H 1.00851 0.39446 0.21884 0.0
H417 H 0.21829 0.18054 0.17359 0.0
H418 H 0.17255 1.08275 0.13931 0.0
H419 H 0.18381 1.08481 0.18037 0.0
H420 H 1.02192 1.02796 0.17396 0.0
H421 H 1.00557 1.01489 0.13152 0.0
H422 H 0.94006 1.07455 0.15697 0.0
H423 H 1.00412 0.38578 0.16023 0.0
H424 H 0.99876 0.34809 0.10128 0.0
H425 H 1.0583 0.10377 0.09479 0.0
C426 C 0.09179 0.19857 0.22926 0.0
C427 C 0.07436 0.26127 0.25693 0.0
C428 C 1.04366 0.33145 0.25237 0.0
C429 C 1.03175 0.34014 0.22172 0.0
C430 C 1.04674 0.276 0.19499 0.0
C431 C 0.07353 0.20521 0.19828 0.0
C432 C 0.07575 0.14106 0.16505 0.0
C433 C 0.16808 0.1211 0.16445 0.0
C434 C 1.00673 1.0598 0.15636 0.0
C435 C 1.05081 0.18886 0.14268 0.0
C436 C 1.03472 0.26678 0.16063 0.0
C437 C 1.01464 0.3242 0.14593 0.0
C438 C 1.01122 0.30204 0.11229 0.0
C439 C 1.02509 0.222 0.09299 0.0
C440 C 1.04424 0.16425 0.10853 0.0
H441 H 0.23602 0.19906 0.45014 0.0
H442 H 0.95626 0.12964 0.40901 0.0
H443 H 0.92854 0.10427 0.45806 0.0
H444 H 0.26237 1.07323 0.4984 0.0
H445 H 0.33006 0.15604 0.53438 0.0
H446 H 0.3306 0.16183 0.49487 0.0
H447 H 0.2954 0.30816 0.51653 0.0
H448 H 0.28253 0.30418 0.55516 0.0
H449 H 0.19338 0.32262 0.5294 0.0
H450 H 0.93113 1.07996 0.51017 0.0
H451 H 0.9611 1.07621 0.56545 0.0
H452 H 0.23592 0.18525 0.57841 0.0
C453 C 0.16936 0.17649 0.45129 0.0
C454 C 0.09866 0.15856 0.42443 0.0
C455 C 1.01178 0.136 0.42793 0.0
C456 C 0.99525 0.12339 0.45606 0.0
C457 C 0.06598 0.13965 0.48175 0.0
C458 C 0.15103 0.16897 0.48031 0.0
C459 C 0.21284 0.19125 0.51321 0.0
C460 C 0.28841 0.14258 0.51001 0.0
C461 C 0.2479 0.28729 0.52947 0.0
C462 C 0.15065 0.16281 0.53207 0.0
C463 C 0.06603 0.13433 0.51349 0.0
C464 C 0.99691 0.10343 0.52514 0.0
C465 C 1.01466 0.10156 0.5566 0.0
C466 C 0.10066 0.13129 0.57637 0.0
C467 C 0.16937 0.16327 0.56401 0.0
H468 H 1.03726 1.00475 0.74497 0.0
H469 H 0.30214 0.15017 0.76535 0.0
H470 H 0.30948 0.18999 0.82387 0.0
H471 H 0.96232 0.13587 0.81142 0.0
H472 H 0.90661 1.05263 0.82181 0.0
H473 H 0.91946 1.03205 0.78059 0.0
H474 H 0.99611 0.90805 0.78171 0.0
H475 H 0.98228 0.92728 0.82279 0.0
H476 H 0.09015 0.92636 0.81377 0.0
H477 H 0.28227 0.23344 0.87943 0.0
H478 H 0.23786 0.24969 0.9311 0.0
H479 H 1.00093 1.05872 0.87898 0.0
C480 C 0.09746 1.04316 0.76176 0.0
C481 C 0.1684 1.07572 0.7502 0.0
C482 C 0.2462 0.12529 0.77322 0.0
C483 C 0.25104 0.14892 0.80673 0.0
C484 C 0.17902 0.11987 0.81738 0.0
C485 C 0.10494 1.06535 0.79584 0.0
C486 C 1.03969 1.04037 0.81474 0.0
C487 C 0.95181 1.06682 0.80665 0.0
C488 C 1.02625 0.94483 0.80784 0.0
C489 C 0.0879 0.09182 0.84997 0.0
C490 C 0.16733 0.13825 0.85052 0.0
C491 C 0.22137 0.19562 0.87946 0.0
C492 C 0.1951 0.20463 0.90883 0.0
C493 C 0.11616 0.15518 0.90965 0.0
C494 C 1.0619 0.0975 0.87953 0.0
loop_
_geom_bond_atom_site_label_1
_geom_bond_atom_site_label_2
_geom_bond_distance
_geom_bond_site_symmetry_2
_ccdc_geom_bond_type
Eu0 N29 2.600 . S
Eu0 N35 2.562 1_556 S
Eu0 O44 2.462 1_546 S
Eu0 O45 2.373 . S
Eu0 O47 2.432 1_545 S
Eu0 O48 2.291 1_556 S
Eu0 O52 2.335 1_545 S
Eu0 O55 2.372 . S
Eu0 C64 2.787 1_545 S
C1 N2 1.365 . S
C1 C4 1.405 . S
C1 C8 1.448 . S
N2 C1 1.365 . S
N2 C5 1.319 . S
N2 Eu11 2.600 . S
C3 C5 1.397 . S
C3 C6 1.367 . S
C3 H23 0.931 . S
C4 C1 1.405 . S
C4 C6 1.403 . S
C4 C10 1.439 . S
C5 N2 1.319 . S
C5 C3 1.397 . S
C5 H16 0.930 . S
C6 C3 1.367 . S
C6 C4 1.403 . S
C6 H27 0.929 . S
C7 C8 1.430 . S
C7 C9 1.387 . S
C7 C13 1.405 1_554 S
C8 C1 1.448 . S
C8 C7 1.430 . S
C8 N12 1.351 . S
C9 C7 1.387 . S
C9 C10 1.374 . S
C9 H24 0.931 1_545 S
C10 C4 1.439 . S
C10 C9 1.374 . S
C10 H25 0.931 . S
Eu11 N2 2.600 . S
Eu11 N12 2.562 . S
Eu11 O46 2.335 . S
Eu11 O49 2.372 . S
Eu11 O50 2.462 . S
Eu11 O51 2.373 . S
Eu11 O53 2.432 . S
Eu11 O54 2.291 1_554 S
Eu11 C75 2.787 . S
N12 C8 1.351 . S
N12 Eu11 2.562 . S
N12 C14 1.325 1_554 S
C13 C7 1.405 1_556 S
C13 C15 1.374 . S
C13 H21 0.922 1_545 S
C14 N12 1.325 1_556 S
C14 C15 1.416 . S
C14 H20 0.929 . S
C15 C13 1.374 . S
C15 C14 1.416 . S
C15 H17 0.930 . S
H16 C5 0.930 . S
H17 C15 0.930 . S
H18 C33 0.930 . S
H19 C40 0.930 . S
H20 C14 0.929 . S
H21 C13 0.922 1_565 S
H22 C36 0.929 . S
H23 C3 0.931 . S
H24 C9 0.931 1_565 S
H25 C10 0.931 . S
H26 C31 0.931 . S
H27 C6 0.929 . S
H28 C39 0.930 . S
N29 Eu0 2.600 . S
N29 C30 1.365 . S
N29 C33 1.319 . S
C30 N29 1.365 . S
C30 C32 1.405 . S
C30 C38 1.448 . S
C31 H26 0.931 . S
C31 C33 1.397 . S
C31 C34 1.367 . S
C32 C30 1.405 . S
C32 C34 1.403 . S
C32 C65 1.439 . S
C33 H18 0.930 . S
C33 N29 1.319 . S
C33 C31 1.397 . S
C34 C31 1.367 . S
C34 C32 1.403 . S
C34 H41 0.929 . S
N35 Eu0 2.562 1_554 S
N35 C36 1.325 . S
N35 C38 1.351 1_554 S
C36 H22 0.929 . S
C36 N35 1.325 . S
C36 C40 1.416 . S
C37 C38 1.433 . S
C37 C39 1.393 1_556 S
C37 C66 1.396 . S
C38 C30 1.448 . S
C38 N35 1.351 1_556 S
C38 C37 1.433 . S
C39 H28 0.930 . S
C39 C37 1.393 1_554 S
C39 C40 1.366 . S
C40 H19 0.930 . S
C40 C36 1.416 . S
C40 C39 1.366 . S
H41 C34 0.929 . S
H42 C65 0.931 . S
H43 C66 0.931 . S
O44 Eu0 2.462 1_564 S
O44 C64 1.252 1_554 S
O45 Eu0 2.373 . S
O45 C56 1.249 1_556 S
O46 Eu11 2.335 . S
O46 C56 1.264 1_455 S
O47 Eu0 2.432 1_565 S
O47 C64 1.268 . S
O48 Eu0 2.291 1_554 S
O48 C63 1.255 . S
O49 Eu11 2.372 . S
O49 C63 1.257 1_455 S
O50 Eu11 2.462 . S
O50 C75 1.252 . S
O51 Eu11 2.373 . S
O51 C67 1.249 1_545 S
O52 Eu0 2.335 1_565 S
O52 C67 1.264 1_656 S
O53 Eu11 2.432 . S
O53 C75 1.268 . S
O54 Eu11 2.291 1_556 S
O54 C74 1.255 . S
O55 Eu0 2.372 . S
O55 C74 1.257 1_655 S
C56 O45 1.249 1_554 S
C56 O46 1.264 1_655 S
C57 C60 1.382 . S
C57 C62 1.390 1_556 S
C57 C64 1.506 . S
C58 C59 1.398 1_554 S
C58 C62 1.392 . S
C59 C58 1.398 1_556 S
C59 C61 1.372 . S
C59 H76 0.931 . S
C60 C57 1.382 . S
C60 C61 1.390 . S
C60 H77 0.931 . S
C61 C59 1.372 . S
C61 C60 1.390 . S
C61 H78 0.929 . S
C62 C57 1.390 1_554 S
C62 C58 1.392 . S
C62 H79 0.930 . S
C63 O48 1.255 . S
C63 O49 1.257 1_655 S
C64 Eu0 2.787 1_565 S
C64 O44 1.252 1_556 S
C64 O47 1.268 . S
C64 C57 1.506 . S
C65 C32 1.439 . S
C65 H42 0.931 . S
C65 C66 1.374 . S
C66 C37 1.396 . S
C66 H43 0.931 . S
C66 C65 1.374 . S
C67 O51 1.249 1_565 S
C67 O52 1.264 1_454 S
C68 C71 1.382 . S
C68 C72 1.390 . S
C68 C75 1.506 . S
C69 C70 1.398 . S
C69 C72 1.392 . S
C70 C69 1.398 . S
C70 C73 1.372 . S
C70 H80 0.931 . S
C71 C68 1.382 . S
C71 C73 1.390 . S
C71 H81 0.931 . S
C72 C68 1.390 . S
C72 C69 1.392 . S
C72 H82 0.930 1_554 S
C73 C70 1.372 . S
C73 C71 1.390 . S
C73 H83 0.929 . S
C74 O54 1.255 . S
C74 O55 1.257 1_455 S
C75 Eu11 2.787 . S
C75 O50 1.252 . S
C75 O53 1.268 . S
C75 C68 1.506 . S
H76 C59 0.931 . S
H77 C60 0.931 . S
H78 C61 0.929 . S
H79 C62 0.930 . S
H80 C70 0.931 . S
H81 C71 0.931 . S
H82 C72 0.930 1_556 S
H83 C73 0.929 . S
Eu84 N113 2.600 1_545 S
Eu84 N119 2.562 1_545 S
Eu84 O128 2.462 1_645 S
Eu84 O129 2.373 . S
Eu84 O131 2.432 1_645 S
Eu84 O132 2.291 . S
Eu84 O136 2.335 1_655 S
Eu84 O139 2.372 1_655 S
Eu84 C148 2.787 1_645 S
C85 N86 1.365 . S
C85 C88 1.405 . S
C85 C92 1.448 . S
N86 C85 1.365 . S
N86 C89 1.319 . S
N86 Eu95 2.600 . S
C87 C89 1.397 . S
C87 C90 1.367 . S
C87 H107 0.931 . S
C88 C85 1.405 . S
C88 C90 1.403 . S
C88 C94 1.439 . S
C89 N86 1.319 . S
C89 C87 1.397 . S
C89 H100 0.930 . S
C90 C87 1.367 . S
C90 C88 1.403 . S
C90 H111 0.929 . S
C91 C92 1.430 . S
C91 C93 1.387 . S
C91 C97 1.404 . S
C92 C85 1.448 . S
C92 C91 1.430 . S
C92 N96 1.351 . S
C93 C91 1.387 . S
C93 C94 1.374 . S
C93 H108 0.931 . S
C94 C88 1.439 . S
C94 C93 1.374 . S
C94 H109 0.931 . S
Eu95 N86 2.600 . S
Eu95 N96 2.562 . S
Eu95 O130 2.335 1_455 S
Eu95 O133 2.372 . S
Eu95 O134 2.462 . S
Eu95 O135 2.373 . S
Eu95 O137 2.432 . S
Eu95 O138 2.291 . S
Eu95 C159 2.787 . S
N96 C92 1.351 . S
N96 Eu95 2.562 . S
N96 C98 1.325 . S
C97 C91 1.404 . S
C97 C99 1.366 . S
C97 H105 0.930 . S
C98 N96 1.325 . S
C98 C99 1.416 . S
C98 H104 0.929 . S
C99 C97 1.366 . S
C99 C98 1.416 . S
C99 H101 0.930 . S
H100 C89 0.930 . S
H101 C99 0.930 . S
H102 C117 0.930 . S
H103 C124 0.930 . S
H104 C98 0.929 . S
H105 C97 0.930 . S
H106 C120 0.929 . S
H107 C87 0.931 . S
H108 C93 0.931 . S
H109 C94 0.931 . S
H110 C115 0.931 . S
H111 C90 0.929 . S
H112 C123 0.930 . S
N113 Eu84 2.600 1_565 S
N113 C114 1.365 . S
N113 C117 1.319 . S
C114 N113 1.365 . S
C114 C116 1.405 . S
C114 C122 1.448 . S
C115 H110 0.931 . S
C115 C117 1.397 . S
C115 C118 1.367 . S
C116 C114 1.405 . S
C116 C118 1.403 . S
C116 C149 1.439 . S
C117 H102 0.930 . S
C117 N113 1.319 . S
C117 C115 1.397 . S
C118 C115 1.367 . S
C118 C116 1.403 . S
C118 H125 0.929 . S
N119 Eu84 2.562 1_565 S
N119 C120 1.325 . S
N119 C122 1.351 . S
C120 H106 0.929 . S
C120 N119 1.325 . S
C120 C124 1.416 . S
C121 C122 1.430 . S
C121 C123 1.404 . S
C121 C150 1.387 . S
C122 C114 1.448 . S
C122 N119 1.351 . S
C122 C121 1.430 . S
C123 H112 0.930 . S
C123 C121 1.404 . S
C123 C124 1.366 . S
C124 H103 0.930 . S
C124 C120 1.416 . S
C124 C123 1.366 . S
H125 C118 0.929 . S
H126 C149 0.931 . S
H127 C150 0.931 . S
O128 Eu84 2.462 1_465 S
O128 C148 1.252 . S
O129 Eu84 2.373 . S
O129 C140 1.249 . S
O130 Eu95 2.335 1_655 S
O130 C140 1.264 . S
O131 Eu84 2.432 1_465 S
O131 C148 1.268 . S
O132 Eu84 2.291 . S
O132 C147 1.255 1_655 S
O133 Eu95 2.372 . S
O133 C147 1.257 . S
O134 Eu95 2.462 . S
O134 C159 1.252 . S
O135 Eu95 2.373 . S
O135 C151 1.249 . S
O136 Eu84 2.335 1_455 S
O136 C151 1.264 . S
O137 Eu95 2.432 . S
O137 C159 1.268 . S
O138 Eu95 2.291 . S
O138 C158 1.255 . S
O139 Eu84 2.372 1_455 S
O139 C158 1.257 . S
C140 O129 1.249 . S
C140 O130 1.264 . S
C141 C144 1.382 . S
C141 C146 1.390 . S
C141 C148 1.506 . S
C142 C143 1.398 . S
C142 C146 1.392 . S
C143 C142 1.398 . S
C143 C145 1.372 . S
C143 H160 0.931 . S
C144 C141 1.382 . S
C144 C145 1.390 . S
C144 H161 0.931 . S
C145 C143 1.372 . S
C145 C144 1.390 . S
C145 H162 0.929 . S
C146 C141 1.390 . S
C146 C142 1.392 . S
C146 H163 0.930 . S
C147 O132 1.255 1_455 S
C147 O133 1.257 . S
C148 Eu84 2.787 1_465 S
C148 O128 1.252 . S
C148 O131 1.268 . S
C148 C141 1.506 . S
C149 C116 1.439 . S
C149 H126 0.931 . S
C149 C150 1.374 . S
C150 C121 1.387 . S
C150 H127 0.931 . S
C150 C149 1.374 . S
C151 O135 1.249 . S
C151 O136 1.264 . S
C152 C155 1.382 . S
C152 C156 1.390 1_455 S
C152 C159 1.506 . S
C153 C154 1.398 . S
C153 C156 1.392 . S
C154 C153 1.398 . S
C154 C157 1.372 . S
C154 H164 0.931 . S
C155 C152 1.382 . S
C155 C157 1.390 1_455 S
C155 H165 0.931 . S
C156 C152 1.390 1_655 S
C156 C153 1.392 . S
C156 H166 0.930 . S
C157 C154 1.372 . S
C157 C155 1.390 1_655 S
C157 H167 0.926 . S
C158 O138 1.255 . S
C158 O139 1.257 . S
C159 Eu95 2.787 . S
C159 O134 1.252 . S
C159 O137 1.268 . S
C159 C152 1.506 . S
H160 C143 0.931 . S
H161 C144 0.931 . S
H162 C145 0.929 . S
H163 C146 0.930 . S
H164 C154 0.931 . S
H165 C155 0.931 . S
H166 C156 0.930 . S
H167 C157 0.926 . S
Eu168 N197 2.600 . S
Eu168 N203 2.562 . S
Eu168 O212 2.462 . S
Eu168 O213 2.373 1_455 S
Eu168 O215 2.432 . S
Eu168 O216 2.291 . S
Eu168 O220 2.335 . S
Eu168 O223 2.372 . S
Eu168 C232 2.787 . S
C169 N170 1.365 . S
C169 C172 1.405 . S
C169 C176 1.448 . S
N170 C169 1.365 . S
N170 C173 1.319 . S
N170 Eu179 2.600 . S
C171 C173 1.397 . S
C171 C174 1.367 . S
C171 H191 0.931 . S
C172 C169 1.405 . S
C172 C174 1.403 . S
C172 C178 1.439 . S
C173 N170 1.319 . S
C173 C171 1.397 . S
C173 H184 0.930 . S
C174 C171 1.367 . S
C174 C172 1.403 . S
C174 H195 0.929 . S
C175 C176 1.430 . S
C175 C177 1.387 . S
C175 C181 1.404 . S
C176 C169 1.448 . S
C176 C175 1.430 . S
C176 N180 1.351 . S
C177 C175 1.387 . S
C177 C178 1.374 . S
C177 H192 0.931 . S
C178 C172 1.439 . S
C178 C177 1.374 . S
C178 H193 0.931 . S
Eu179 N170 2.600 . S
Eu179 N180 2.562 . S
Eu179 O214 2.335 1_455 S
Eu179 O217 2.372 . S
Eu179 O218 2.462 1_455 S
Eu179 O219 2.373 . S
Eu179 O221 2.432 1_455 S
Eu179 O222 2.291 . S
Eu179 C243 2.787 1_455 S
N180 C176 1.351 . S
N180 Eu179 2.562 . S
N180 C182 1.325 . S
C181 C175 1.404 . S
C181 C183 1.366 . S
C181 H189 0.930 . S
C182 N180 1.325 . S
C182 C183 1.416 . S
C182 H188 0.929 . S
C183 C181 1.366 . S
C183 C182 1.416 . S
C183 H185 0.930 . S
H184 C173 0.930 . S
H185 C183 0.930 . S
H186 C201 0.930 . S
H187 C208 0.930 . S
H188 C182 0.929 . S
H189 C181 0.930 . S
H190 C204 0.929 . S
H191 C171 0.931 . S
H192 C177 0.931 . S
H193 C178 0.931 . S
H194 C199 0.931 . S
H195 C174 0.929 . S
H196 C207 0.930 . S
N197 Eu168 2.600 . S
N197 C198 1.365 . S
N197 C201 1.319 . S
C198 N197 1.365 . S
C198 C200 1.405 . S
C198 C206 1.448 . S
C199 H194 0.931 . S
C199 C201 1.397 . S
C199 C202 1.367 . S
C200 C198 1.405 . S
C200 C202 1.403 . S
C200 C233 1.439 1_455 S
C201 H186 0.930 . S
C201 N197 1.319 . S
C201 C199 1.397 . S
C202 C199 1.367 . S
C202 C200 1.403 . S
C202 H209 0.929 . S
N203 Eu168 2.562 . S
N203 C204 1.325 . S
N203 C206 1.351 . S
C204 H190 0.929 . S
C204 N203 1.325 . S
C204 C208 1.416 1_455 S
C205 C206 1.430 1_655 S
C205 C207 1.404 . S
C205 C234 1.387 . S
C206 C198 1.448 . S
C206 N203 1.351 . S
C206 C205 1.430 1_455 S
C207 H196 0.930 . S
C207 C205 1.404 . S
C207 C208 1.366 . S
C208 H187 0.930 . S
C208 C204 1.416 1_655 S
C208 C207 1.366 . S
H209 C202 0.929 . S
H210 C233 0.931 . S
H211 C234 0.931 . S
O212 Eu168 2.462 . S
O212 C232 1.252 . S
O213 Eu168 2.373 1_655 S
O213 C224 1.249 . S
O214 Eu179 2.335 1_655 S
O214 C224 1.264 1_565 S
O215 Eu168 2.432 . S
O215 C232 1.268 . S
O216 Eu168 2.291 . S
O216 C231 1.255 . S
O217 Eu179 2.372 . S
O217 C231 1.257 1_565 S
O218 Eu179 2.462 1_655 S
O218 C243 1.252 . S
O219 Eu179 2.373 . S
O219 C235 1.249 1_565 S
O220 Eu168 2.335 . S
O220 C235 1.264 . S
O221 Eu179 2.432 1_655 S
O221 C243 1.268 . S
O222 Eu179 2.291 . S
O222 C242 1.255 1_565 S
O223 Eu168 2.372 . S
O223 C242 1.257 . S
C224 O213 1.249 . S
C224 O214 1.264 1_545 S
C225 C228 1.382 . S
C225 C230 1.390 . S
C225 C232 1.506 . S
C226 C227 1.398 . S
C226 C230 1.392 . S
C227 C226 1.398 . S
C227 C229 1.372 . S
C227 H244 0.931 . S
C228 C225 1.382 . S
C228 C229 1.390 . S
C228 H245 0.931 . S
C229 C227 1.372 . S
C229 C228 1.390 . S
C229 H246 0.929 . S
C230 C225 1.390 . S
C230 C226 1.392 . S
C230 H247 0.930 . S
C231 O216 1.255 . S
C231 O217 1.257 1_545 S
C232 Eu168 2.787 . S
C232 O212 1.252 . S
C232 O215 1.268 . S
C232 C225 1.506 . S
C233 C200 1.439 1_655 S
C233 H210 0.931 . S
C233 C234 1.374 . S
C234 C205 1.387 . S
C234 H211 0.931 . S
C234 C233 1.374 . S
C235 O219 1.249 1_545 S
C235 O220 1.264 . S
C236 C239 1.382 . S
C236 C240 1.390 . S
C236 C243 1.506 . S
C237 C238 1.398 . S
C237 C240 1.392 . S
C238 C237 1.398 . S
C238 C241 1.372 . S
C238 H248 0.931 . S
C239 C236 1.382 . S
C239 C241 1.390 . S
C239 H249 0.931 . S
C240 C236 1.390 . S
C240 C237 1.392 . S
C240 H250 0.930 . S
C241 C238 1.372 . S
C241 C239 1.390 . S
C241 H251 0.929 . S
C242 O222 1.255 1_545 S
C242 O223 1.257 . S
C243 Eu179 2.787 1_655 S
C243 O218 1.252 . S
C243 O221 1.268 . S
C243 C236 1.506 . S
H244 C227 0.931 . S
H245 C228 0.931 . S
H246 C229 0.929 . S
H247 C230 0.930 . S
H248 C238 0.931 . S
H249 C239 0.931 . S
H250 C240 0.930 . S
H251 C241 0.929 . S
H252 C264 0.930 1_455 S
H253 C266 0.930 . S
H254 C267 0.930 . S
H255 C271 0.959 . S
H256 C271 0.959 . S
H257 C271 0.961 . S
H258 C272 0.960 . S
H259 C272 0.961 . S
H260 C272 0.959 . S
H261 C275 0.929 . S
H262 C276 0.931 . S
H263 C278 0.930 . S
C264 H252 0.930 1_655 S
C264 C265 1.399 1_556 S
C264 C269 1.399 . S
C265 C264 1.399 1_554 S
C265 C266 1.376 . S
C266 H253 0.930 . S
C266 C265 1.376 . S
C266 C267 1.388 . S
C267 H254 0.930 . S
C267 C266 1.388 . S
C267 C268 1.390 . S
C268 C267 1.390 . S
C268 C269 1.394 1_554 S
C268 C274 1.465 . S
C269 C264 1.399 . S
C269 C268 1.394 1_556 S
C269 C270 1.516 1_655 S
C270 C269 1.516 1_455 S
C270 C271 1.502 . S
C270 C272 1.561 1_455 S
C270 C273 1.526 . S
C271 H255 0.959 . S
C271 H256 0.959 . S
C271 H257 0.961 . S
C271 C270 1.502 . S
C272 H258 0.960 . S
C272 H259 0.961 . S
C272 H260 0.959 . S
C272 C270 1.561 1_655 S
C273 C270 1.526 . S
C273 C274 1.396 1_456 S
C273 C278 1.390 . S
C274 C268 1.465 . S
C274 C273 1.396 1_654 S
C274 C275 1.399 . S
C275 H261 0.929 . S
C275 C274 1.399 . S
C275 C276 1.385 1_655 S
C276 H262 0.931 . S
C276 C275 1.385 1_455 S
C276 C277 1.389 . S
C277 C276 1.389 . S
C277 C278 1.387 1_554 S
C278 H263 0.930 . S
C278 C273 1.390 . S
C278 C277 1.387 1_556 S
H279 C291 0.930 . S
H280 C293 0.930 . S
H281 C294 0.930 . S
H282 C298 0.959 . S
H283 C298 0.959 . S
H284 C298 0.961 . S
H285 C299 0.960 . S
H286 C299 0.961 . S
H287 C299 0.959 . S
H288 C302 0.929 . S
H289 C303 0.931 . S
H290 C305 0.930 . S
C291 H279 0.930 . S
C291 C292 1.399 . S
C291 C296 1.399 . S
C292 C291 1.399 . S
C292 C293 1.376 . S
C293 H280 0.930 . S
C293 C292 1.376 . S
C293 C294 1.388 . S
C294 H281 0.930 . S
C294 C293 1.388 . S
C294 C295 1.390 . S
C295 C294 1.390 . S
C295 C296 1.394 . S
C295 C301 1.465 . S
C296 C291 1.399 . S
C296 C295 1.394 . S
C296 C297 1.516 . S
C297 C296 1.516 . S
C297 C298 1.502 . S
C297 C299 1.561 1_545 S
C297 C300 1.526 . S
C298 H282 0.959 . S
C298 H283 0.959 . S
C298 H284 0.961 . S
C298 C297 1.502 . S
C299 H285 0.960 . S
C299 H286 0.961 . S
C299 H287 0.959 . S
C299 C297 1.561 1_565 S
C300 C297 1.526 . S
C300 C301 1.396 . S
C300 C305 1.390 . S
C301 C295 1.465 . S
C301 C300 1.396 . S
C301 C302 1.399 . S
C302 H288 0.929 . S
C302 C301 1.399 . S
C302 C303 1.385 . S
C303 H289 0.931 . S
C303 C302 1.385 . S
C303 C304 1.389 . S
C304 C303 1.389 . S
C304 C305 1.387 . S
C305 H290 0.930 . S
C305 C300 1.390 . S
C305 C304 1.387 . S
H306 C318 0.930 . S
H307 C320 0.930 . S
H308 C321 0.930 . S
H309 C325 0.959 . S
H310 C325 0.959 . S
H311 C325 0.961 . S
H312 C326 0.960 . S
H313 C326 0.961 . S
H314 C326 0.959 . S
H315 C329 0.929 . S
H316 C330 0.931 . S
H317 C332 0.930 . S
C318 H306 0.930 . S
C318 C319 1.399 . S
C318 C323 1.399 . S
C319 C318 1.399 . S
C319 C320 1.376 . S
C320 H307 0.930 . S
C320 C319 1.376 . S
C320 C321 1.388 . S
C321 H308 0.930 . S
C321 C320 1.388 . S
C321 C322 1.390 . S
C322 C321 1.390 . S
C322 C323 1.394 . S
C322 C328 1.465 . S
C323 C318 1.399 . S
C323 C322 1.394 . S
C323 C324 1.516 . S
C324 C323 1.516 . S
C324 C325 1.502 . S
C324 C326 1.561 . S
C324 C327 1.526 . S
C325 H309 0.959 . S
C325 H310 0.959 . S
C325 H311 0.961 . S
C325 C324 1.502 . S
C326 H312 0.960 . S
C326 H313 0.961 . S
C326 H314 0.959 . S
C326 C324 1.561 . S
C327 C324 1.526 . S
C327 C328 1.396 . S
C327 C332 1.390 . S
C328 C322 1.465 . S
C328 C327 1.396 . S
C328 C329 1.399 . S
C329 H315 0.929 . S
C329 C328 1.399 . S
C329 C330 1.385 . S
C330 H316 0.931 . S
C330 C329 1.385 . S
C330 C331 1.389 . S
C331 C330 1.389 . S
C331 C332 1.387 . S
C332 H317 0.930 . S
C332 C327 1.390 . S
C332 C331 1.387 . S
H333 C345 0.930 . S
H334 C347 0.930 . S
H335 C348 0.930 . S
H336 C352 0.959 . S
H337 C352 0.959 . S
H338 C352 0.961 . S
H339 C353 0.960 . S
H340 C353 0.961 . S
H341 C353 0.959 . S
H342 C356 0.929 . S
H343 C357 0.931 . S
H344 C359 0.930 . S
C345 H333 0.930 . S
C345 C346 1.399 . S
C345 C350 1.399 . S
C346 C345 1.399 . S
C346 C347 1.376 . S
C347 H334 0.930 . S
C347 C346 1.376 . S
C347 C348 1.388 . S
C348 H335 0.930 . S
C348 C347 1.388 . S
C348 C349 1.390 . S
C349 C348 1.390 . S
C349 C350 1.394 . S
C349 C355 1.465 . S
C350 C345 1.399 . S
C350 C349 1.394 . S
C350 C351 1.516 . S
C351 C350 1.516 . S
C351 C352 1.502 1_545 S
C351 C353 1.561 . S
C351 C354 1.526 . S
C352 H336 0.959 . S
C352 H337 0.959 . S
C352 H338 0.961 . S
C352 C351 1.502 1_565 S
C353 H339 0.960 . S
C353 H340 0.961 . S
C353 H341 0.959 . S
C353 C351 1.561 . S
C354 C351 1.526 . S
C354 C355 1.396 . S
C354 C359 1.390 . S
C355 C349 1.465 . S
C355 C354 1.396 . S
C355 C356 1.399 . S
C356 H342 0.929 . S
C356 C355 1.399 . S
C356 C357 1.385 . S
C357 H343 0.931 . S
C357 C356 1.385 . S
C357 C358 1.389 . S
C358 C357 1.389 . S
C358 C359 1.387 . S
C359 H344 0.930 . S
C359 C354 1.390 . S
C359 C358 1.387 . S
H360 C372 0.930 . S
H361 C374 0.930 . S
H362 C375 0.930 . S
H363 C379 0.959 . S
H364 C379 0.959 . S
H365 C379 0.961 . S
H366 C380 0.960 . S
H367 C380 0.961 . S
H368 C380 0.959 . S
H369 C383 0.929 . S
H370 C384 0.931 . S
H371 C386 0.930 . S
C372 H360 0.930 . S
C372 C373 1.399 . S
C372 C377 1.399 . S
C373 C372 1.399 . S
C373 C374 1.376 1_554 S
C374 H361 0.930 . S
C374 C373 1.376 1_556 S
C374 C375 1.388 . S
C375 H362 0.930 . S
C375 C374 1.388 . S
C375 C376 1.390 . S
C376 C375 1.390 . S
C376 C377 1.394 1_556 S
C376 C382 1.465 . S
C377 C372 1.399 . S
C377 C376 1.394 1_554 S
C377 C378 1.516 . S
C378 C377 1.516 . S
C378 C379 1.502 . S
C378 C380 1.561 . S
C378 C381 1.526 . S
C379 H363 0.959 . S
C379 H364 0.959 . S
C379 H365 0.961 . S
C379 C378 1.502 . S
C380 H366 0.960 . S
C380 H367 0.961 . S
C380 H368 0.959 . S
C380 C378 1.561 . S
C381 C378 1.526 . S
C381 C382 1.396 1_554 S
C381 C386 1.390 . S
C382 C376 1.465 . S
C382 C381 1.396 1_556 S
C382 C383 1.399 . S
C383 H369 0.929 . S
C383 C382 1.399 . S
C383 C384 1.385 . S
C384 H370 0.931 . S
C384 C383 1.385 . S
C384 C385 1.389 . S
C385 C384 1.389 . S
C385 C386 1.387 1_556 S
C386 H371 0.930 . S
C386 C381 1.390 . S
C386 C385 1.387 1_554 S
H387 C399 0.930 . S
H388 C401 0.930 . S
H389 C402 0.930 1_455 S
H390 C406 0.959 . S
H391 C406 0.959 . S
H392 C406 0.961 . S
H393 C407 0.960 . S
H394 C407 0.961 . S
H395 C407 0.959 . S
H396 C410 0.929 . S
H397 C411 0.931 . S
H398 C413 0.930 . S
C399 H387 0.930 . S
C399 C400 1.399 . S
C399 C404 1.399 . S
C400 C399 1.399 . S
C400 C401 1.376 . S
C401 H388 0.930 . S
C401 C400 1.376 . S
C401 C402 1.388 . S
C402 H389 0.930 1_655 S
C402 C401 1.388 . S
C402 C403 1.390 1_655 S
C403 C402 1.390 1_455 S
C403 C404 1.394 1_455 S
C403 C409 1.465 . S
C404 C399 1.399 . S
C404 C403 1.394 1_655 S
C404 C405 1.516 1_655 S
C405 C404 1.516 1_455 S
C405 C406 1.502 1_455 S
C405 C407 1.561 . S
C405 C408 1.526 . S
C406 H390 0.959 . S
C406 H391 0.959 . S
C406 H392 0.961 . S
C406 C405 1.502 1_655 S
C407 H393 0.960 . S
C407 H394 0.961 . S
C407 H395 0.959 . S
C407 C405 1.561 . S
C408 C405 1.526 . S
C408 C409 1.396 . S
C408 C413 1.390 . S
C409 C403 1.465 . S
C409 C408 1.396 . S
C409 C410 1.399 . S
C410 H396 0.929 . S
C410 C409 1.399 . S
C410 C411 1.385 . S
C411 H397 0.931 . S
C411 C410 1.385 . S
C411 C412 1.389 . S
C412 C411 1.389 . S
C412 C413 1.387 . S
C413 H398 0.930 . S
C413 C408 1.390 . S
C413 C412 1.387 . S
H414 C426 0.929 . S
H415 C428 0.930 . S
H416 C429 0.930 . S
H417 C433 0.959 . S
H418 C433 0.959 1_565 S
H419 C433 0.961 1_565 S
H420 C434 0.960 . S
H421 C434 0.961 . S
H422 C434 0.959 1_545 S
H423 C437 0.929 . S
H424 C438 0.931 . S
H425 C440 0.930 . S
C426 H414 0.929 . S
C426 C427 1.397 . S
C426 C431 1.399 1_455 S
C427 C426 1.397 . S
C427 C428 1.376 . S
C428 H415 0.930 . S
C428 C427 1.376 . S
C428 C429 1.388 . S
C429 H416 0.930 . S
C429 C428 1.388 . S
C429 C430 1.390 1_455 S
C430 C429 1.390 1_655 S
C430 C431 1.394 . S
C430 C436 1.465 . S
C431 C426 1.399 1_655 S
C431 C430 1.394 . S
C431 C432 1.516 . S
C432 C431 1.516 . S
C432 C433 1.502 1_655 S
C432 C434 1.561 1_545 S
C432 C435 1.526 . S
C433 H417 0.959 . S
C433 H418 0.959 1_545 S
C433 H419 0.961 1_545 S
C433 C432 1.502 1_455 S
C434 H420 0.960 . S
C434 H421 0.961 . S
C434 H422 0.959 1_565 S
C434 C432 1.561 1_565 S
C435 C432 1.526 . S
C435 C436 1.396 . S
C435 C440 1.390 . S
C436 C430 1.465 . S
C436 C435 1.396 . S
C436 C437 1.399 . S
C437 H423 0.929 . S
C437 C436 1.399 . S
C437 C438 1.385 . S
C438 H424 0.931 . S
C438 C437 1.385 . S
C438 C439 1.389 . S
C439 C438 1.389 . S
C439 C440 1.387 . S
C440 H425 0.930 . S
C440 C435 1.390 . S
C440 C439 1.387 . S
H441 C453 0.930 . S
H442 C455 0.930 . S
H443 C456 0.930 1_565 S
H444 C460 0.959 . S
H445 C460 0.959 . S
H446 C460 0.961 . S
H447 C461 0.960 . S
H448 C461 0.961 . S
H449 C461 0.959 . S
H450 C464 0.929 . S
H451 C465 0.931 1_655 S
H452 C467 0.930 . S
C453 H441 0.930 . S
C453 C454 1.399 . S
C453 C458 1.399 . S
C454 C453 1.399 . S
C454 C455 1.376 1_455 S
C455 H442 0.930 . S
C455 C454 1.376 1_655 S
C455 C456 1.388 . S
C456 H443 0.930 1_545 S
C456 C455 1.388 . S
C456 C457 1.390 1_655 S
C457 C456 1.390 1_455 S
C457 C458 1.394 . S
C457 C463 1.465 . S
C458 C453 1.399 . S
C458 C457 1.394 . S
C458 C459 1.516 . S
C459 C458 1.516 . S
C459 C460 1.502 . S
C459 C461 1.561 . S
C459 C462 1.526 . S
C460 H444 0.959 . S
C460 H445 0.959 . S
C460 H446 0.961 . S
C460 C459 1.502 . S
C461 H447 0.960 . S
C461 H448 0.961 . S
C461 H449 0.959 . S
C461 C459 1.561 . S
C462 C459 1.526 . S
C462 C463 1.396 . S
C462 C467 1.390 . S
C463 C457 1.465 . S
C463 C462 1.396 . S
C463 C464 1.399 1_445 S
C464 H450 0.929 . S
C464 C463 1.399 1_665 S
C464 C465 1.385 1_655 S
C465 H451 0.931 1_455 S
C465 C464 1.385 1_455 S
C465 C466 1.389 1_565 S
C466 C465 1.389 1_545 S
C466 C467 1.387 . S
C467 H452 0.930 . S
C467 C462 1.390 . S
C467 C466 1.387 . S
H468 C480 0.930 1_655 S
H469 C482 0.930 . S
H470 C483 0.930 . S
H471 C487 0.959 . S
H472 C487 0.959 . S
H473 C487 0.961 . S
H474 C488 0.960 . S
H475 C488 0.961 1_655 S
H476 C488 0.959 . S
H477 C491 0.929 . S
H478 C492 0.931 . S
H479 C494 0.930 1_565 S
C480 H468 0.930 1_455 S
C480 C481 1.399 1_565 S
C480 C485 1.399 . S
C481 C480 1.399 1_545 S
C481 C482 1.376 . S
C482 H469 0.930 . S
C482 C481 1.376 . S
C482 C483 1.388 . S
C483 H470 0.930 . S
C483 C482 1.388 . S
C483 C484 1.390 . S
C484 C483 1.390 . S
C484 C485 1.394 1_545 S
C484 C490 1.465 . S
C485 C480 1.399 . S
C485 C484 1.394 1_565 S
C485 C486 1.516 1_455 S
C486 C485 1.516 1_655 S
C486 C487 1.502 . S
C486 C488 1.561 1_655 S
C486 C489 1.526 1_665 S
C487 H471 0.959 . S
C487 H472 0.959 . S
C487 H473 0.961 . S
C487 C486 1.502 . S
C488 H474 0.960 . S
C488 H475 0.961 1_455 S
C488 H476 0.959 . S
C488 C486 1.561 1_455 S
C489 C486 1.526 1_445 S
C489 C490 1.396 . S
C489 C494 1.390 1_455 S
C490 C484 1.465 . S
C490 C489 1.396 . S
C490 C491 1.399 . S
C491 H477 0.929 . S
C491 C490 1.399 . S
C491 C492 1.385 . S
C492 H478 0.931 . S
C492 C491 1.385 . S
C492 C493 1.389 . S
C493 C492 1.389 . S
C493 C494 1.387 1_455 S
C494 H479 0.930 1_545 S
C494 C489 1.390 1_655 S
C494 C493 1.387 1_655 S
C265 C56 4.289 . S
C277 C67 4.267 . S
C292 C151 2.601 . S
C304 C140 2.600 . S
C319 C237 0.772 . S
C331 C226 0.523 . S
C346 C224 2.577 . S
C358 C235 2.555 . S
C373 C58 0.723 . S
C385 C69 0.886 1_556 S
C400 C153 1.263 . S
C412 C142 1.178 . S
C427 C158 1.542 . S
C439 C63 1.518 . S
C454 C147 1.590 . S
C466 C231 1.556 . S
C481 C242 1.544 . S
C493 C74 1.589 . S
