# Generated by pormake.
# Topology mer, (4)-cn, num edge types: 1
# Building blocks:
#     Node 0, Type 0, BuildingBlock: QUQFOY_clean_sbu_3, # of connection points: 4
#     Node 1, Type 0, BuildingBlock: QUQFOY_clean_sbu_3, # of connection points: 4
#     Node 2, Type 0, BuildingBlock: QUQFOY_clean_sbu_3, # of connection points: 4
#     Node 3, Type 0, BuildingBlock: QUQFOY_clean_sbu_3, # of connection points: 4
#     Node 4, Type 0, BuildingBlock: QUQFOY_clean_sbu_3, # of connection points: 4
#     Node 5, Type 0, BuildingBlock: QUQFOY_clean_sbu_3, # of connection points: 4
#     Node 6, Type 0, BuildingBlock: QUQFOY_clean_sbu_3, # of connection points: 4
#     Node 7, Type 0, BuildingBlock: QUQFOY_clean_sbu_3, # of connection points: 4
#     Node 8, Type 0, BuildingBlock: QUQFOY_clean_sbu_3, # of connection points: 4
#     Node 9, Type 0, BuildingBlock: QUQFOY_clean_sbu_3, # of connection points: 4
#     Node 10, Type 0, BuildingBlock: QUQFOY_clean_sbu_3, # of connection points: 4
#     Node 11, Type 0, BuildingBlock: QUQFOY_clean_sbu_3, # of connection points: 4
#     Node 12, Type 0, BuildingBlock: QUQFOY_clean_sbu_3, # of connection points: 4
#     Node 13, Type 0, BuildingBlock: QUQFOY_clean_sbu_3, # of connection points: 4
#     Node 14, Type 0, BuildingBlock: QUQFOY_clean_sbu_3, # of connection points: 4
#     Node 15, Type 0, BuildingBlock: QUQFOY_clean_sbu_3, # of connection points: 4
#     Node 16, Type 0, BuildingBlock: QUQFOY_clean_sbu_3, # of connection points: 4
#     Node 17, Type 0, BuildingBlock: QUQFOY_clean_sbu_3, # of connection points: 4
#     Node 18, Type 0, BuildingBlock: QUQFOY_clean_sbu_3, # of connection points: 4
#     Node 19, Type 0, BuildingBlock: QUQFOY_clean_sbu_3, # of connection points: 4
#     Node 20, Type 0, BuildingBlock: QUQFOY_clean_sbu_3, # of connection points: 4
#     Node 21, Type 0, BuildingBlock: QUQFOY_clean_sbu_3, # of connection points: 4
#     Node 22, Type 0, BuildingBlock: QUQFOY_clean_sbu_3, # of connection points: 4
#     Node 23, Type 0, BuildingBlock: QUQFOY_clean_sbu_3, # of connection points: 4
#     Node 24, Type 0, BuildingBlock: QUQFOY_clean_sbu_3, # of connection points: 4
#     Node 25, Type 0, BuildingBlock: QUQFOY_clean_sbu_3, # of connection points: 4
#     Node 26, Type 0, BuildingBlock: QUQFOY_clean_sbu_3, # of connection points: 4
#     Node 27, Type 0, BuildingBlock: QUQFOY_clean_sbu_3, # of connection points: 4
#     Node 28, Type 0, BuildingBlock: QUQFOY_clean_sbu_3, # of connection points: 4
#     Node 29, Type 0, BuildingBlock: QUQFOY_clean_sbu_3, # of connection points: 4
#     Node 30, Type 0, BuildingBlock: QUQFOY_clean_sbu_3, # of connection points: 4
#     Node 31, Type 0, BuildingBlock: QUQFOY_clean_sbu_3, # of connection points: 4
#     Edge 32, Type (0, 0), BuildingBlock: EZIPEK_clean_linker_0, # of connection points: 2
#     Edge 33, Type (0, 0), BuildingBlock: EZIPEK_clean_linker_0, # of connection points: 2
#     Edge 34, Type (0, 0), BuildingBlock: EZIPEK_clean_linker_0, # of connection points: 2
#     Edge 35, Type (0, 0), BuildingBlock: EZIPEK_clean_linker_0, # of connection points: 2
#     Edge 36, Type (0, 0), BuildingBlock: EZIPEK_clean_linker_0, # of connection points: 2
#     Edge 37, Type (0, 0), BuildingBlock: EZIPEK_clean_linker_0, # of connection points: 2
#     Edge 38, Type (0, 0), BuildingBlock: EZIPEK_clean_linker_0, # of connection points: 2
#     Edge 39, Type (0, 0), BuildingBlock: EZIPEK_clean_linker_0, # of connection points: 2
#     Edge 40, Type (0, 0), BuildingBlock: EZIPEK_clean_linker_0, # of connection points: 2
#     Edge 41, Type (0, 0), BuildingBlock: EZIPEK_clean_linker_0, # of connection points: 2
#     Edge 42, Type (0, 0), BuildingBlock: EZIPEK_clean_linker_0, # of connection points: 2
#     Edge 43, Type (0, 0), BuildingBlock: EZIPEK_clean_linker_0, # of connection points: 2
#     Edge 44, Type (0, 0), BuildingBlock: EZIPEK_clean_linker_0, # of connection points: 2
#     Edge 45, Type (0, 0), BuildingBlock: EZIPEK_clean_linker_0, # of connection points: 2
#     Edge 46, Type (0, 0), BuildingBlock: EZIPEK_clean_linker_0, # of connection points: 2
#     Edge 47, Type (0, 0), BuildingBlock: EZIPEK_clean_linker_0, # of connection points: 2
#     Edge 48, Type (0, 0), BuildingBlock: EZIPEK_clean_linker_0, # of connection points: 2
#     Edge 49, Type (0, 0), BuildingBlock: EZIPEK_clean_linker_0, # of connection points: 2
#     Edge 50, Type (0, 0), BuildingBlock: EZIPEK_clean_linker_0, # of connection points: 2
#     Edge 51, Type (0, 0), BuildingBlock: EZIPEK_clean_linker_0, # of connection points: 2
#     Edge 52, Type (0, 0), BuildingBlock: EZIPEK_clean_linker_0, # of connection points: 2
#     Edge 53, Type (0, 0), BuildingBlock: EZIPEK_clean_linker_0, # of connection points: 2
#     Edge 54, Type (0, 0), BuildingBlock: EZIPEK_clean_linker_0, # of connection points: 2
#     Edge 55, Type (0, 0), BuildingBlock: EZIPEK_clean_linker_0, # of connection points: 2
#     Edge 56, Type (0, 0), BuildingBlock: EZIPEK_clean_linker_0, # of connection points: 2
#     Edge 57, Type (0, 0), BuildingBlock: EZIPEK_clean_linker_0, # of connection points: 2
#     Edge 58, Type (0, 0), BuildingBlock: EZIPEK_clean_linker_0, # of connection points: 2
#     Edge 59, Type (0, 0), BuildingBlock: EZIPEK_clean_linker_0, # of connection points: 2
#     Edge 60, Type (0, 0), BuildingBlock: EZIPEK_clean_linker_0, # of connection points: 2
#     Edge 61, Type (0, 0), BuildingBlock: EZIPEK_clean_linker_0, # of connection points: 2
#     Edge 62, Type (0, 0), BuildingBlock: EZIPEK_clean_linker_0, # of connection points: 2
#     Edge 63, Type (0, 0), BuildingBlock: EZIPEK_clean_linker_0, # of connection points: 2
#     Edge 64, Type (0, 0), BuildingBlock: EZIPEK_clean_linker_0, # of connection points: 2
#     Edge 65, Type (0, 0), BuildingBlock: EZIPEK_clean_linker_0, # of connection points: 2
#     Edge 66, Type (0, 0), BuildingBlock: EZIPEK_clean_linker_0, # of connection points: 2
#     Edge 67, Type (0, 0), BuildingBlock: EZIPEK_clean_linker_0, # of connection points: 2
#     Edge 68, Type (0, 0), BuildingBlock: EZIPEK_clean_linker_0, # of connection points: 2
#     Edge 69, Type (0, 0), BuildingBlock: EZIPEK_clean_linker_0, # of connection points: 2
#     Edge 70, Type (0, 0), BuildingBlock: EZIPEK_clean_linker_0, # of connection points: 2
#     Edge 71, Type (0, 0), BuildingBlock: EZIPEK_clean_linker_0, # of connection points: 2
#     Edge 72, Type (0, 0), BuildingBlock: EZIPEK_clean_linker_0, # of connection points: 2
#     Edge 73, Type (0, 0), BuildingBlock: EZIPEK_clean_linker_0, # of connection points: 2
#     Edge 74, Type (0, 0), BuildingBlock: EZIPEK_clean_linker_0, # of connection points: 2
#     Edge 75, Type (0, 0), BuildingBlock: EZIPEK_clean_linker_0, # of connection points: 2
#     Edge 76, Type (0, 0), BuildingBlock: EZIPEK_clean_linker_0, # of connection points: 2
#     Edge 77, Type (0, 0), BuildingBlock: EZIPEK_clean_linker_0, # of connection points: 2
#     Edge 78, Type (0, 0), BuildingBlock: EZIPEK_clean_linker_0, # of connection points: 2
#     Edge 79, Type (0, 0), BuildingBlock: EZIPEK_clean_linker_0, # of connection points: 2
#     Edge 80, Type (0, 0), BuildingBlock: EZIPEK_clean_linker_0, # of connection points: 2
#     Edge 81, Type (0, 0), BuildingBlock: EZIPEK_clean_linker_0, # of connection points: 2
#     Edge 82, Type (0, 0), BuildingBlock: EZIPEK_clean_linker_0, # of connection points: 2
#     Edge 83, Type (0, 0), BuildingBlock: EZIPEK_clean_linker_0, # of connection points: 2
#     Edge 84, Type (0, 0), BuildingBlock: EZIPEK_clean_linker_0, # of connection points: 2
#     Edge 85, Type (0, 0), BuildingBlock: EZIPEK_clean_linker_0, # of connection points: 2
#     Edge 86, Type (0, 0), BuildingBlock: EZIPEK_clean_linker_0, # of connection points: 2
#     Edge 87, Type (0, 0), BuildingBlock: EZIPEK_clean_linker_0, # of connection points: 2
#     Edge 88, Type (0, 0), BuildingBlock: EZIPEK_clean_linker_0, # of connection points: 2
#     Edge 89, Type (0, 0), BuildingBlock: EZIPEK_clean_linker_0, # of connection points: 2
#     Edge 90, Type (0, 0), BuildingBlock: EZIPEK_clean_linker_0, # of connection points: 2
#     Edge 91, Type (0, 0), BuildingBlock: EZIPEK_clean_linker_0, # of connection points: 2
#     Edge 92, Type (0, 0), BuildingBlock: EZIPEK_clean_linker_0, # of connection points: 2
#     Edge 93, Type (0, 0), BuildingBlock: EZIPEK_clean_linker_0, # of connection points: 2
#     Edge 94, Type (0, 0), BuildingBlock: EZIPEK_clean_linker_0, # of connection points: 2
#     Edge 95, Type (0, 0), BuildingBlock: EZIPEK_clean_linker_0, # of connection points: 2
# Relax obj value: 0.063
# Max RMSD: 0.127
# Mean RMSD: 0.120
data_MOF--net-mer--node1-QUQFOY_clean_sbu_3--edge1-EZIPEK_clean_linker_0
_symmetry_space_group_name_H-M    P1
_symmetry_Int_Tables_number       1
_symmetry_cell_setting            triclinic
loop_
_symmetry_equiv_pos_as_xyz
'x, y, z'
_cell_length_a     47.801753
_cell_length_b     48.526598
_cell_length_c     42.230171
_cell_angle_alpha  90.157632
_cell_angle_beta   89.208971
_cell_angle_gamma 90.169995
loop_
_atom_site_label
_atom_site_type_symbol
_atom_site_fract_x
_atom_site_fract_y
_atom_site_fract_z
_atom_type_partial_charge
C0 C 0.12853 0.3187 0.28843 0.0
O1 O 0.14681 0.32846 0.30686 0.0
Cd2 Cd 0.15107 0.31382 0.36102 0.0
O3 O 0.11071 0.30115 0.29825 0.0
Cd4 Cd 0.10103 0.27679 0.34766 0.0
C5 C 0.16375 0.24614 0.34669 0.0
O6 O 0.10742 0.31141 0.38999 0.0
O7 O 0.10751 0.26801 0.40258 0.0
O8 O 0.05133 0.28379 0.34206 0.0
C9 C 0.10682 0.29297 0.41132 0.0
O10 O 0.17294 0.26862 0.35816 0.0
C11 C 0.04516 0.25836 0.34183 0.0
O12 O 0.13851 0.24369 0.33787 0.0
O13 O 0.06505 0.24116 0.3434 0.0
C14 C 0.64621 0.12685 0.28788 0.0
O15 O 0.63504 0.14244 0.30855 0.0
Cd16 Cd 0.65374 0.14479 0.36078 0.0
O17 O 0.66576 0.11047 0.29504 0.0
Cd18 Cd 0.69058 0.09536 0.34215 0.0
C19 C 0.72292 0.15644 0.3436 0.0
O20 O 0.65592 0.10035 0.38551 0.0
O21 O 0.69975 0.09769 0.39786 0.0
O22 O 0.68113 0.0474 0.33125 0.0
C23 C 0.67434 0.09815 0.40677 0.0
O24 O 0.70012 0.16573 0.35527 0.0
C25 C 0.7066 0.04024 0.32927 0.0
O26 O 0.72519 0.13147 0.33473 0.0
O27 O 0.72501 0.05902 0.33183 0.0
C28 C 0.83082 0.64484 0.28268 0.0
O29 O 0.81427 0.63413 0.3029 0.0
Cd30 Cd 0.81184 0.6506 0.3565 0.0
O31 O 0.84799 0.66355 0.29062 0.0
Cd32 Cd 0.86126 0.68641 0.34008 0.0
C33 C 0.80025 0.71909 0.34384 0.0
O34 O 0.85657 0.65082 0.38176 0.0
O35 O 0.85564 0.69384 0.39588 0.0
O36 O 0.91102 0.67973 0.33094 0.0
C37 C 0.85779 0.66877 0.40364 0.0
O38 O 0.79081 0.69655 0.35515 0.0
C39 C 0.91709 0.70515 0.33257 0.0
O40 O 0.82537 0.72113 0.33385 0.0
O41 O 0.89709 0.72208 0.33603 0.0
C42 C 0.31407 0.84297 0.28438 0.0
O43 O 0.32569 0.82768 0.30458 0.0
Cd44 Cd 0.30833 0.8258 0.35774 0.0
O45 O 0.29464 0.85945 0.29245 0.0
Cd46 Cd 0.27037 0.8745 0.34094 0.0
C47 C 0.23919 0.81301 0.34445 0.0
O48 O 0.30668 0.87093 0.38127 0.0
O49 O 0.26353 0.87337 0.39754 0.0
O50 O 0.27792 0.92222 0.32785 0.0
C51 C 0.28931 0.87348 0.40411 0.0
O52 O 0.26234 0.80396 0.35463 0.0
C53 C 0.25222 0.92863 0.32793 0.0
O54 O 0.23638 0.83793 0.33596 0.0
O55 O 0.23449 0.90952 0.33281 0.0
C56 C 0.13354 0.65473 0.65496 0.0
O57 O 0.15006 0.64246 0.63595 0.0
Cd58 Cd 0.15605 0.65846 0.58274 0.0
O59 O 0.11826 0.67442 0.64572 0.0
Cd60 Cd 0.10745 0.69694 0.59546 0.0
C61 C 0.17023 0.72697 0.59554 0.0
O62 O 0.11192 0.65938 0.55618 0.0
O63 O 0.11375 0.7015 0.53919 0.0
O64 O 0.05768 0.69099 0.60462 0.0
C65 C 0.11126 0.67606 0.53313 0.0
O66 O 0.17918 0.70356 0.5863 0.0
C67 C 0.05181 0.71631 0.60171 0.0
O68 O 0.14454 0.73067 0.60235 0.0
O69 O 0.07193 0.73303 0.59718 0.0
C70 C 0.3237 0.13948 0.6453 0.0
O71 O 0.33444 0.15373 0.62315 0.0
Cd72 Cd 0.31295 0.15076 0.57268 0.0
O73 O 0.30524 0.12131 0.63975 0.0
Cd74 Cd 0.28211 0.09865 0.59551 0.0
C75 C 0.24383 0.15556 0.59641 0.0
O76 O 0.31558 0.10494 0.55126 0.0
O77 O 0.27228 0.09694 0.53966 0.0
O78 O 0.30023 0.0566 0.61765 0.0
C79 C 0.29747 0.09956 0.53037 0.0
O80 O 0.26512 0.16649 0.58297 0.0
C81 C 0.27803 0.04264 0.61397 0.0
O82 O 0.2439 0.13049 0.60518 0.0
O83 O 0.25681 0.05516 0.60338 0.0
C84 C 0.83876 0.32129 0.66315 0.0
O85 O 0.82043 0.33015 0.64433 0.0
Cd86 Cd 0.81691 0.31507 0.59021 0.0
O87 O 0.85718 0.30414 0.65392 0.0
Cd88 Cd 0.86861 0.27953 0.60479 0.0
C89 C 0.8069 0.24655 0.60351 0.0
O90 O 0.86135 0.31428 0.56296 0.0
O91 O 0.8639 0.27126 0.54921 0.0
O92 O 0.91838 0.28653 0.61191 0.0
C93 C 0.86314 0.29632 0.54108 0.0
O94 O 0.79708 0.26874 0.59224 0.0
C95 C 0.92422 0.26106 0.61224 0.0
O96 O 0.83202 0.24507 0.6129 0.0
O97 O 0.90416 0.24401 0.61001 0.0
C98 C 0.64628 0.83502 0.65897 0.0
O99 O 0.6372 0.8181 0.63857 0.0
Cd100 Cd 0.65438 0.81774 0.5848 0.0
O101 O 0.66398 0.85352 0.65152 0.0
Cd102 Cd 0.68929 0.87099 0.60558 0.0
C103 C 0.72439 0.81109 0.6009 0.0
O104 O 0.65506 0.86362 0.56399 0.0
O105 O 0.69808 0.87179 0.54973 0.0
O106 O 0.67489 0.91672 0.6196 0.0
C107 C 0.67277 0.86856 0.54203 0.0
O108 O 0.70221 0.80077 0.58937 0.0
C109 C 0.69928 0.92708 0.61962 0.0
O110 O 0.72534 0.83592 0.61072 0.0
O111 O 0.71978 0.91097 0.61449 0.0
C112 C 0.93436 0.73825 0.59095 0.0
O113 O 0.9243 0.75693 0.57357 0.0
Cd114 Cd 0.87599 0.75702 0.55976 0.0
O115 O 0.91873 0.71989 0.60343 0.0
Cd116 Cd 0.86893 0.70672 0.60671 0.0
C117 C 0.86879 0.69107 0.52983 0.0
O118 O 0.84667 0.75191 0.60561 0.0
O119 O 0.82015 0.71636 0.59654 0.0
O120 O 0.8637 0.70427 0.66334 0.0
C121 C 0.82234 0.7421 0.60132 0.0
O122 O 0.87024 0.717 0.5257 0.0
C123 C 0.86357 0.67822 0.66544 0.0
O124 O 0.86897 0.6805 0.55737 0.0
O125 O 0.86668 0.66486 0.63973 0.0
C126 C 0.3423 0.83091 0.64395 0.0
O127 O 0.35141 0.82105 0.61799 0.0
Cd128 Cd 0.32431 0.82381 0.57146 0.0
O129 O 0.32076 0.8463 0.64459 0.0
Cd130 Cd 0.29092 0.86853 0.6044 0.0
C131 C 0.25658 0.80993 0.59739 0.0
O132 O 0.32091 0.87088 0.55679 0.0
O133 O 0.27642 0.86978 0.54948 0.0
O134 O 0.30622 0.91256 0.6245 0.0
C135 C 0.30073 0.87347 0.53793 0.0
O136 O 0.27819 0.80299 0.5813 0.0
C137 C 0.28246 0.92401 0.62324 0.0
O138 O 0.25521 0.83319 0.61134 0.0
O139 O 0.26167 0.90881 0.61649 0.0
C140 C 0.04159 0.23579 0.60825 0.0
O141 O 0.05175 0.21443 0.59513 0.0
Cd142 Cd 0.1001 0.21146 0.58022 0.0
O143 O 0.05721 0.25556 0.61711 0.0
Cd144 Cd 0.10706 0.26832 0.61958 0.0
C145 C 0.10507 0.27379 0.54074 0.0
O146 O 0.1276 0.22293 0.62501 0.0
O147 O 0.15614 0.25568 0.61171 0.0
O148 O 0.10342 0.28159 0.67483 0.0
C149 C 0.15245 0.23054 0.6188 0.0
O150 O 0.10426 0.24757 0.54025 0.0
C151 C 0.11081 0.30643 0.67029 0.0
O152 O 0.10531 0.28731 0.56656 0.0
O153 O 0.11584 0.3138 0.64193 0.0
C154 C 0.64683 0.14062 0.6562 0.0
O155 O 0.63573 0.15304 0.63325 0.0
Cd156 Cd 0.6563 0.14949 0.58191 0.0
O157 O 0.66655 0.12347 0.65165 0.0
Cd158 Cd 0.69012 0.10144 0.60574 0.0
C159 C 0.72577 0.15949 0.60048 0.0
O160 O 0.65588 0.10302 0.56292 0.0
O161 O 0.69957 0.10226 0.54923 0.0
O162 O 0.6758 0.05707 0.62626 0.0
C163 C 0.67421 0.10025 0.54116 0.0
O164 O 0.70344 0.16836 0.58801 0.0
C165 C 0.69924 0.0455 0.62138 0.0
O166 O 0.72742 0.135 0.61097 0.0
O167 O 0.71933 0.0605 0.61148 0.0
C168 C 0.92708 0.23696 0.3484 0.0
O169 O 0.91625 0.21664 0.36297 0.0
Cd170 Cd 0.86753 0.2143 0.37623 0.0
O171 O 0.91206 0.25635 0.33769 0.0
Cd172 Cd 0.86219 0.2687 0.33385 0.0
C173 C 0.86215 0.27856 0.41186 0.0
O174 O 0.84142 0.22296 0.32988 0.0
O175 O 0.81341 0.25624 0.34277 0.0
O176 O 0.86879 0.27688 0.27787 0.0
C177 C 0.81665 0.23116 0.33523 0.0
O178 O 0.86172 0.25236 0.41343 0.0
C179 C 0.85689 0.3002 0.27799 0.0
O180 O 0.86386 0.29113 0.38549 0.0
O181 O 0.84861 0.30978 0.30452 0.0
C182 C 0.6414 0.83517 0.29452 0.0
O183 O 0.63043 0.82152 0.31704 0.0
Cd184 Cd 0.6505 0.82014 0.3682 0.0
O185 O 0.66212 0.85118 0.29901 0.0
Cd186 Cd 0.68973 0.86892 0.34357 0.0
C187 C 0.71964 0.80684 0.34714 0.0
O188 O 0.65561 0.86616 0.38709 0.0
O189 O 0.69936 0.8686 0.39943 0.0
O190 O 0.68072 0.91613 0.32899 0.0
C191 C 0.67395 0.86883 0.4083 0.0
O192 O 0.69642 0.79887 0.35922 0.0
C193 C 0.7062 0.92347 0.32833 0.0
O194 O 0.72326 0.83158 0.33795 0.0
O195 O 0.7245 0.90503 0.33294 0.0
C196 C 0.03426 0.73 0.34298 0.0
O197 O 0.0438 0.75108 0.35703 0.0
Cd198 Cd 0.0919 0.75316 0.37169 0.0
O199 O 0.05044 0.71098 0.33315 0.0
Cd200 Cd 0.10074 0.7006 0.32875 0.0
C201 C 0.09851 0.68818 0.40536 0.0
O202 O 0.12219 0.7465 0.32708 0.0
O203 O 0.14889 0.71255 0.34051 0.0
O204 O 0.09265 0.69576 0.27285 0.0
C205 C 0.14648 0.73777 0.3335 0.0
O206 O 0.09746 0.71434 0.40747 0.0
C207 C 0.10619 0.67348 0.26958 0.0
O208 O 0.09816 0.67587 0.37871 0.0
O209 O 0.11593 0.66254 0.29442 0.0
C210 C 0.31962 0.12803 0.27771 0.0
O211 O 0.33027 0.14391 0.29819 0.0
Cd212 Cd 0.3151 0.14519 0.35226 0.0
O213 O 0.30076 0.11069 0.28543 0.0
Cd214 Cd 0.27538 0.09796 0.33426 0.0
C215 C 0.2463 0.16037 0.34146 0.0
O216 O 0.31285 0.09947 0.37362 0.0
O217 O 0.27009 0.09913 0.39108 0.0
O218 O 0.28028 0.05 0.32053 0.0
C219 C 0.29595 0.09752 0.39692 0.0
O220 O 0.26976 0.16802 0.35236 0.0
C221 C 0.25445 0.04431 0.32305 0.0
O222 O 0.24261 0.1361 0.33083 0.0
O223 O 0.23773 0.06398 0.32909 0.0
C224 C 0.62753 0.82117 0.79256 0.0
O225 O 0.64314 0.83444 0.8113 0.0
Cd226 Cd 0.64976 0.82122 0.86509 0.0
O227 O 0.61248 0.80121 0.8022 0.0
Cd228 Cd 0.60139 0.77871 0.85247 0.0
C229 C 0.66649 0.75328 0.8515 0.0
O230 O 0.60577 0.81576 0.89181 0.0
O231 O 0.60877 0.77341 0.90778 0.0
O232 O 0.5514 0.78298 0.84671 0.0
C233 C 0.60654 0.79875 0.91455 0.0
O234 O 0.67418 0.77715 0.86055 0.0
C235 C 0.54645 0.7573 0.84771 0.0
O236 O 0.64107 0.748 0.84513 0.0
O237 O 0.56719 0.74114 0.84985 0.0
C238 C 0.14882 0.63452 0.78729 0.0
O239 O 0.13774 0.64823 0.80977 0.0
Cd240 Cd 0.15834 0.64905 0.8612 0.0
O241 O 0.1693 0.61851 0.79201 0.0
Cd242 Cd 0.19712 0.60115 0.83572 0.0
C243 C 0.22625 0.66376 0.83842 0.0
O244 O 0.16431 0.60306 0.88042 0.0
O245 O 0.20858 0.60177 0.89097 0.0
O246 O 0.18903 0.55363 0.82249 0.0
C247 C 0.18343 0.60054 0.90076 0.0
O248 O 0.20373 0.67169 0.85208 0.0
C249 C 0.21466 0.54739 0.81919 0.0
O250 O 0.22919 0.63918 0.82841 0.0
O251 O 0.2325 0.5667 0.82163 0.0
C252 C 0.33444 0.1625 0.77768 0.0
O253 O 0.31876 0.14967 0.79712 0.0
Cd254 Cd 0.31265 0.16555 0.85049 0.0
O255 O 0.34928 0.1828 0.78639 0.0
Cd256 Cd 0.36127 0.2063 0.83544 0.0
C257 C 0.29767 0.23393 0.83697 0.0
O258 O 0.35687 0.16995 0.8759 0.0
O259 O 0.35558 0.21265 0.89124 0.0
O260 O 0.41001 0.19864 0.82374 0.0
C261 C 0.35731 0.1874 0.89835 0.0
O262 O 0.28961 0.2103 0.8465 0.0
C263 C 0.41754 0.22352 0.82741 0.0
O264 O 0.32307 0.23858 0.8292 0.0
O265 O 0.39851 0.24116 0.83306 0.0
C266 C 0.81985 0.34917 0.79424 0.0
O267 O 0.82939 0.33507 0.81692 0.0
Cd268 Cd 0.81116 0.33826 0.86991 0.0
O269 O 0.8013 0.36751 0.79897 0.0
Cd270 Cd 0.77498 0.38791 0.84352 0.0
C271 C 0.74201 0.327 0.85317 0.0
O272 O 0.81001 0.38588 0.88488 0.0
O273 O 0.76743 0.39221 0.90042 0.0
O274 O 0.78302 0.43483 0.82638 0.0
C275 C 0.79309 0.39076 0.90751 0.0
O276 O 0.76414 0.31823 0.86619 0.0
C277 C 0.75738 0.44065 0.82284 0.0
O278 O 0.74072 0.35109 0.84151 0.0
O279 O 0.73975 0.42145 0.82762 0.0
C280 C 0.63016 0.14399 0.15493 0.0
O281 O 0.64581 0.13252 0.13435 0.0
Cd282 Cd 0.6494 0.15004 0.08131 0.0
O283 O 0.61433 0.16385 0.1476 0.0
Cd284 Cd 0.60168 0.18826 0.09944 0.0
C285 C 0.6644 0.21779 0.09638 0.0
O286 O 0.60505 0.15427 0.05595 0.0
O287 O 0.60862 0.19779 0.04457 0.0
O288 O 0.55175 0.18259 0.10781 0.0
C289 C 0.6054 0.1732 0.03523 0.0
O290 O 0.67259 0.195 0.08451 0.0
C291 C 0.54649 0.20819 0.10787 0.0
O292 O 0.63946 0.22093 0.10657 0.0
O293 O 0.56703 0.22475 0.10562 0.0
C294 C 0.8117 0.62517 0.15045 0.0
O295 O 0.82204 0.64021 0.1287 0.0
Cd296 Cd 0.80246 0.64125 0.07671 0.0
O297 O 0.79222 0.60803 0.14485 0.0
Cd298 Cd 0.76547 0.58987 0.10022 0.0
C299 C 0.73343 0.65123 0.09895 0.0
O300 O 0.79903 0.59523 0.05652 0.0
O301 O 0.75568 0.58864 0.04422 0.0
O302 O 0.77568 0.54319 0.11561 0.0
C303 C 0.78096 0.59112 0.03526 0.0
O304 O 0.75575 0.66068 0.08614 0.0
C305 C 0.7503 0.53551 0.11718 0.0
O306 O 0.73147 0.62627 0.10787 0.0
O307 O 0.7316 0.55348 0.11222 0.0
C308 C 0.32907 0.82643 0.15036 0.0
O309 O 0.31081 0.83617 0.13204 0.0
Cd310 Cd 0.30743 0.8219 0.07769 0.0
O311 O 0.34725 0.8094 0.14032 0.0
Cd312 Cd 0.35909 0.78634 0.09073 0.0
C313 C 0.29721 0.75347 0.0912 0.0
O314 O 0.3521 0.82235 0.05055 0.0
O315 O 0.3543 0.77971 0.03495 0.0
O316 O 0.40872 0.79376 0.09801 0.0
C317 C 0.35418 0.80508 0.02799 0.0
O318 O 0.28703 0.77575 0.08058 0.0
C319 C 0.41485 0.76834 0.09817 0.0
O320 O 0.32271 0.75191 0.09922 0.0
O321 O 0.39501 0.75109 0.09549 0.0
C322 C 0.14607 0.34201 0.15605 0.0
O323 O 0.136 0.32702 0.13435 0.0
Cd324 Cd 0.15564 0.32732 0.08203 0.0
O325 O 0.16516 0.35956 0.14995 0.0
Cd326 Cd 0.19105 0.37673 0.10338 0.0
C327 C 0.22429 0.31619 0.09866 0.0
O328 O 0.15726 0.37293 0.06002 0.0
O329 O 0.20107 0.3777 0.0471 0.0
O330 O 0.18211 0.42444 0.11633 0.0
C331 C 0.17576 0.37687 0.0386 0.0
O332 O 0.20206 0.30682 0.08629 0.0
C333 C 0.20764 0.43104 0.11945 0.0
O334 O 0.22578 0.34083 0.10878 0.0
O335 O 0.22565 0.41198 0.11669 0.0
C336 C 0.42979 0.23441 0.09801 0.0
O337 O 0.4206 0.25584 0.08456 0.0
Cd338 Cd 0.37259 0.26109 0.06995 0.0
O339 O 0.41341 0.21502 0.10654 0.0
Cd340 Cd 0.36306 0.20437 0.10665 0.0
C341 C 0.36445 0.20042 0.02807 0.0
O342 O 0.34285 0.25017 0.11388 0.0
O343 O 0.31507 0.21795 0.09749 0.0
O344 O 0.36269 0.19123 0.16155 0.0
C345 C 0.31828 0.24258 0.10682 0.0
O346 O 0.36556 0.22663 0.02876 0.0
C347 C 0.3536 0.16701 0.15675 0.0
O348 O 0.36497 0.1861 0.05321 0.0
O349 O 0.35034 0.15938 0.12825 0.0
C350 C 0.82334 0.33527 0.15439 0.0
O351 O 0.8342 0.32151 0.13185 0.0
Cd352 Cd 0.81492 0.32243 0.07986 0.0
O353 O 0.80301 0.35152 0.14957 0.0
Cd354 Cd 0.77545 0.3673 0.10411 0.0
C355 C 0.74692 0.30461 0.09608 0.0
O356 O 0.81007 0.36879 0.06043 0.0
O357 O 0.76614 0.37001 0.04827 0.0
O358 O 0.7805 0.41526 0.11787 0.0
C359 C 0.7915 0.37246 0.03963 0.0
O360 O 0.77053 0.2976 0.08437 0.0
C361 C 0.75453 0.41986 0.12124 0.0
O362 O 0.74275 0.32894 0.10634 0.0
O363 O 0.73803 0.39943 0.11888 0.0
C364 C 0.53162 0.74044 0.0987 0.0
O365 O 0.54146 0.72045 0.08272 0.0
Cd366 Cd 0.59032 0.71536 0.07133 0.0
O367 O 0.54758 0.75811 0.1116 0.0
Cd368 Cd 0.59813 0.76654 0.1174 0.0
C369 C 0.60139 0.78068 0.04097 0.0
O370 O 0.61653 0.71968 0.1186 0.0
O371 O 0.6461 0.75224 0.10751 0.0
O372 O 0.59447 0.77414 0.17378 0.0
C373 C 0.64169 0.72707 0.11374 0.0
O374 O 0.60011 0.75467 0.03719 0.0
C375 C 0.606 0.79771 0.17287 0.0
O376 O 0.59956 0.79175 0.0682 0.0
O377 O 0.61265 0.80748 0.14595 0.0
C378 C 0.13914 0.63535 0.14518 0.0
O379 O 0.12822 0.64599 0.12088 0.0
Cd380 Cd 0.15171 0.64648 0.07065 0.0
O381 O 0.16103 0.62057 0.14298 0.0
Cd382 Cd 0.19131 0.60037 0.1013 0.0
C383 C 0.21871 0.66367 0.09505 0.0
O384 O 0.16083 0.60024 0.05548 0.0
O385 O 0.20537 0.59719 0.04631 0.0
O386 O 0.18205 0.5538 0.11817 0.0
C387 C 0.18073 0.59701 0.03565 0.0
O388 O 0.19599 0.67014 0.08156 0.0
C389 C 0.20757 0.5473 0.12112 0.0
O390 O 0.22283 0.63956 0.10584 0.0
O391 O 0.2258 0.56615 0.11717 0.0
C392 C 0.42893 0.73494 0.85094 0.0
O393 O 0.41567 0.71629 0.86591 0.0
Cd394 Cd 0.36581 0.71883 0.87289 0.0
O395 O 0.41618 0.75432 0.83705 0.0
Cd396 Cd 0.36899 0.77076 0.8247 0.0
C397 C 0.36241 0.78628 0.90109 0.0
O398 O 0.34494 0.72675 0.82288 0.0
O399 O 0.31861 0.76294 0.82589 0.0
O400 O 0.36624 0.80994 0.78831 0.0
C401 C 0.32055 0.73696 0.82339 0.0
O402 O 0.36033 0.76033 0.90492 0.0
C403 C 0.37801 0.79729 0.76534 0.0
O404 O 0.36707 0.79688 0.87398 0.0
O405 O 0.38487 0.77255 0.77065 0.0
C406 C 0.13332 0.35522 0.7876 0.0
O407 O 0.12372 0.33906 0.80868 0.0
Cd408 Cd 0.14494 0.33521 0.85961 0.0
O409 O 0.15465 0.36986 0.79363 0.0
Cd410 Cd 0.18513 0.38023 0.83843 0.0
C411 C 0.21165 0.31676 0.83989 0.0
O412 O 0.15167 0.37981 0.88348 0.0
O413 O 0.19578 0.37836 0.89414 0.0
O414 O 0.1814 0.42829 0.82507 0.0
C415 C 0.17077 0.38058 0.90406 0.0
O416 O 0.18881 0.30997 0.85365 0.0
C417 C 0.20753 0.43258 0.82289 0.0
O418 O 0.2155 0.34096 0.82921 0.0
O419 O 0.22367 0.41221 0.82696 0.0
C420 C 0.53562 0.24394 0.84069 0.0
O421 O 0.54361 0.2629 0.85922 0.0
Cd422 Cd 0.59061 0.26501 0.87816 0.0
O423 O 0.55274 0.22598 0.83016 0.0
Cd424 Cd 0.60319 0.21562 0.83299 0.0
C425 C 0.59692 0.19966 0.9093 0.0
O426 O 0.62323 0.26204 0.83486 0.0
O427 O 0.65023 0.22843 0.84857 0.0
O428 O 0.60657 0.20991 0.77632 0.0
C429 C 0.64744 0.25375 0.84214 0.0
O430 O 0.59535 0.2256 0.91356 0.0
C431 C 0.61546 0.18534 0.77727 0.0
O432 O 0.59836 0.18926 0.88168 0.0
O433 O 0.61816 0.17432 0.80428 0.0
C434 C 0.83216 0.64063 0.7904 0.0
O435 O 0.84502 0.6471 0.81539 0.0
Cd436 Cd 0.81923 0.64875 0.86441 0.0
O437 O 0.80833 0.62895 0.79233 0.0
Cd438 Cd 0.7791 0.60842 0.83497 0.0
C439 C 0.75266 0.67044 0.84472 0.0
O440 O 0.80883 0.60332 0.8818 0.0
O441 O 0.76429 0.60829 0.88984 0.0
O442 O 0.78602 0.56135 0.8183 0.0
C443 C 0.78808 0.60253 0.90085 0.0
O444 O 0.77577 0.67545 0.85835 0.0
C445 C 0.76023 0.55589 0.81526 0.0
O446 O 0.74797 0.64725 0.83172 0.0
O447 O 0.743 0.5756 0.81872 0.0
C448 C 0.20912 0.1862 0.3711 0.0
C449 C 0.22287 0.18008 0.34194 0.0
C450 C 0.197 0.21668 0.31547 0.0
C451 C 0.18274 0.22234 0.34442 0.0
N452 N 0.17117 0.21008 0.39828 0.0
N453 N 0.22695 0.18567 0.28536 0.0
C454 C 0.18758 0.20632 0.37182 0.0
C455 C 0.21573 0.19404 0.31373 0.0
N456 N 0.21708 0.17313 0.39818 0.0
N457 N 0.1936 0.23377 0.29013 0.0
H458 H 0.24152 0.1698 0.28341 0.0
H459 H 0.2204 0.19298 0.26354 0.0
H460 H 0.18003 0.25053 0.29066 0.0
H461 H 0.2056 0.23269 0.26942 0.0
H462 H 0.2104 0.17892 0.42078 0.0
H463 H 0.23167 0.15717 0.39827 0.0
H464 H 0.17162 0.1973 0.41801 0.0
H465 H 0.15541 0.22489 0.39967 0.0
C466 C 0.75792 0.18298 0.31111 0.0
C467 C 0.74746 0.17487 0.3413 0.0
C468 C 0.78179 0.20445 0.36749 0.0
C469 C 0.79315 0.21149 0.33733 0.0
N470 N 0.79482 0.20546 0.28064 0.0
N471 N 0.75193 0.1737 0.39809 0.0
C472 C 0.78211 0.20004 0.30918 0.0
C473 C 0.76001 0.18454 0.36949 0.0
N474 N 0.74398 0.17532 0.2844 0.0
N475 N 0.79176 0.21688 0.3942 0.0
H476 H 0.73621 0.15886 0.4005 0.0
H477 H 0.76224 0.17756 0.41919 0.0
H478 H 0.809 0.23009 0.39407 0.0
H479 H 0.78206 0.21537 0.41635 0.0
H480 H 0.74846 0.18311 0.26196 0.0
H481 H 0.72645 0.16249 0.28486 0.0
H482 H 0.78984 0.19535 0.25968 0.0
H483 H 0.81173 0.21895 0.27809 0.0
C484 C 0.77465 0.75582 0.37364 0.0
C485 C 0.78212 0.74367 0.34416 0.0
C486 C 0.75342 0.77734 0.31617 0.0
C487 C 0.74318 0.78712 0.34584 0.0
N488 N 0.74397 0.78667 0.40297 0.0
N489 N 0.77851 0.74155 0.28735 0.0
C490 C 0.75387 0.77668 0.37464 0.0
C491 C 0.77177 0.7543 0.31534 0.0
N492 N 0.78823 0.74802 0.40048 0.0
N493 N 0.74559 0.79004 0.28883 0.0
H494 H 0.79259 0.72523 0.28576 0.0
H495 H 0.76904 0.74592 0.26591 0.0
H496 H 0.73157 0.80641 0.28837 0.0
H497 H 0.75448 0.78584 0.26671 0.0
H498 H 0.78593 0.75787 0.42227 0.0
H499 H 0.80374 0.73294 0.40054 0.0
H500 H 0.74784 0.77754 0.42473 0.0
H501 H 0.73088 0.80378 0.40475 0.0
C502 C 0.17567 0.76955 0.36618 0.0
C503 C 0.17041 0.75678 0.33657 0.0
C504 C 0.2091 0.78234 0.31187 0.0
C505 C 0.21531 0.794 0.34177 0.0
N506 N 0.20719 0.797 0.39814 0.0
N507 N 0.18521 0.74621 0.28317 0.0
C508 C 0.19936 0.78709 0.3692 0.0
C509 C 0.18798 0.76184 0.30991 0.0
N510 N 0.15779 0.76511 0.39122 0.0
N511 N 0.2232 0.79107 0.28531 0.0
H512 H 0.17041 0.73053 0.28141 0.0
H513 H 0.19912 0.74689 0.26401 0.0
H514 H 0.23939 0.80551 0.28592 0.0
H515 H 0.21757 0.7856 0.26241 0.0
H516 H 0.15841 0.77615 0.41236 0.0
H517 H 0.14122 0.75114 0.39037 0.0
H518 H 0.19848 0.79041 0.41954 0.0
H519 H 0.22372 0.81082 0.40103 0.0
C520 C 0.1997 0.76035 0.62607 0.0
C521 C 0.1899 0.75051 0.59654 0.0
C522 C 0.21945 0.78415 0.56865 0.0
C523 C 0.23216 0.79113 0.59779 0.0
N524 N 0.2365 0.78432 0.65407 0.0
N525 N 0.19084 0.75186 0.53942 0.0
C526 C 0.22266 0.77907 0.62657 0.0
C527 C 0.19987 0.76211 0.56772 0.0
N528 N 0.18704 0.75184 0.65358 0.0
N529 N 0.22537 0.79932 0.54212 0.0
H530 H 0.17514 0.73697 0.53769 0.0
H531 H 0.19994 0.75698 0.51767 0.0
H532 H 0.23912 0.81606 0.54209 0.0
H533 H 0.21474 0.7971 0.5209 0.0
H534 H 0.19135 0.76032 0.67567 0.0
H535 H 0.17041 0.73791 0.65408 0.0
H536 H 0.23265 0.77374 0.6751 0.0
H537 H 0.25344 0.79785 0.65539 0.0
C538 C 0.21156 0.18038 0.63395 0.0
C539 C 0.21894 0.1728 0.60244 0.0
C540 C 0.18304 0.20347 0.58167 0.0
C541 C 0.1748 0.21011 0.61322 0.0
N542 N 0.17769 0.20195 0.66936 0.0
N543 N 0.20888 0.17269 0.5467 0.0
C544 C 0.1879 0.19752 0.63937 0.0
C545 C 0.20388 0.18312 0.57638 0.0
N546 N 0.22801 0.17239 0.65852 0.0
N547 N 0.17113 0.21682 0.55677 0.0
H548 H 0.22384 0.15754 0.54205 0.0
H549 H 0.19668 0.17716 0.52716 0.0
H550 H 0.15464 0.23064 0.55945 0.0
H551 H 0.17863 0.2155 0.53356 0.0
H552 H 0.22575 0.17994 0.6815 0.0
H553 H 0.24543 0.15969 0.65559 0.0
H554 H 0.18431 0.19101 0.68905 0.0
H555 H 0.1611 0.21526 0.67435 0.0
C556 C 0.76365 0.18666 0.57377 0.0
C557 C 0.75004 0.17827 0.60224 0.0
C558 C 0.77569 0.21318 0.63229 0.0
C559 C 0.78913 0.22166 0.60379 0.0
N560 N 0.8007 0.21363 0.54884 0.0
N561 N 0.74652 0.17935 0.65928 0.0
C562 C 0.78458 0.20747 0.57493 0.0
C563 C 0.75733 0.19008 0.63179 0.0
N564 N 0.7561 0.17505 0.54558 0.0
N565 N 0.77941 0.22812 0.65943 0.0
H566 H 0.73234 0.163 0.65979 0.0
H567 H 0.75308 0.18517 0.68172 0.0
H568 H 0.79299 0.24491 0.66063 0.0
H569 H 0.76784 0.22513 0.68019 0.0
H570 H 0.76248 0.18252 0.52355 0.0
H571 H 0.74234 0.15838 0.54408 0.0
H572 H 0.80044 0.20235 0.52786 0.0
H573 H 0.81612 0.2289 0.54889 0.0
C574 C 0.79376 0.77922 0.57663 0.0
C575 C 0.79743 0.75998 0.60143 0.0
C576 C 0.75214 0.77292 0.62472 0.0
C577 C 0.7498 0.79398 0.60168 0.0
N578 N 0.76944 0.8196 0.55775 0.0
N579 N 0.78255 0.74096 0.65163 0.0
C580 C 0.77105 0.79798 0.57837 0.0
C581 C 0.77726 0.75745 0.62619 0.0
N582 N 0.81101 0.77848 0.55056 0.0
N583 N 0.73016 0.76736 0.6448 0.0
H584 H 0.80072 0.72926 0.65353 0.0
H585 H 0.7701 0.74057 0.67205 0.0
H586 H 0.71163 0.77861 0.64484 0.0
H587 H 0.7294 0.75033 0.65972 0.0
H588 H 0.80771 0.79003 0.53022 0.0
H589 H 0.82714 0.76423 0.54792 0.0
H590 H 0.78583 0.82544 0.54269 0.0
H591 H 0.75243 0.83298 0.55715 0.0
C592 C 0.69832 0.72 0.87789 0.0
C593 C 0.68749 0.73109 0.84955 0.0
C594 C 0.72035 0.70334 0.81792 0.0
C595 C 0.7301 0.69116 0.84618 0.0
N596 N 0.72472 0.68343 0.90237 0.0
N597 N 0.68467 0.73067 0.79255 0.0
C598 C 0.71815 0.69831 0.87603 0.0
C599 C 0.69735 0.72184 0.81951 0.0
N600 N 0.6897 0.73025 0.90661 0.0
N601 N 0.73388 0.69815 0.78979 0.0
H602 H 0.66833 0.74485 0.79272 0.0
H603 H 0.68887 0.72248 0.77018 0.0
H604 H 0.75089 0.6848 0.78777 0.0
H605 H 0.72982 0.70865 0.7689 0.0
H606 H 0.69939 0.72555 0.92785 0.0
H607 H 0.67382 0.74481 0.90916 0.0
H608 H 0.71453 0.68566 0.92417 0.0
H609 H 0.73867 0.66695 0.90188 0.0
C610 C 0.26279 0.69444 0.86168 0.0
C611 C 0.24968 0.68336 0.8345 0.0
C612 C 0.28382 0.70672 0.79997 0.0
C613 C 0.2957 0.7192 0.82703 0.0
N614 N 0.29419 0.72877 0.88317 0.0
N615 N 0.2441 0.68259 0.77781 0.0
C616 C 0.28439 0.71432 0.85775 0.0
C617 C 0.25921 0.69047 0.8036 0.0
N618 N 0.25561 0.6849 0.89116 0.0
N619 N 0.29626 0.71013 0.77088 0.0
H620 H 0.22581 0.67087 0.77957 0.0
H621 H 0.24824 0.68957 0.75493 0.0
H622 H 0.31371 0.72279 0.76717 0.0
H623 H 0.29053 0.69907 0.75086 0.0
H624 H 0.26653 0.68988 0.91153 0.0
H625 H 0.24016 0.67 0.89507 0.0
H626 H 0.28466 0.72849 0.90543 0.0
H627 H 0.31071 0.74282 0.88147 0.0
C628 C 0.26765 0.2673 0.86683 0.0
C629 C 0.27736 0.25677 0.83729 0.0
C630 C 0.24394 0.28569 0.80916 0.0
C631 C 0.23487 0.29681 0.83865 0.0
N632 N 0.24157 0.30281 0.89476 0.0
N633 N 0.27853 0.25868 0.78023 0.0
C634 C 0.24768 0.28888 0.8673 0.0
C635 C 0.26676 0.26694 0.80837 0.0
N636 N 0.2774 0.25649 0.89446 0.0
N637 N 0.22989 0.29211 0.78217 0.0
H638 H 0.2947 0.24434 0.77874 0.0
H639 H 0.27379 0.26742 0.75849 0.0
H640 H 0.21315 0.30585 0.78188 0.0
H641 H 0.23337 0.28242 0.76046 0.0
H642 H 0.26853 0.26062 0.91661 0.0
H643 H 0.29357 0.24214 0.89526 0.0
H644 H 0.25236 0.3001 0.91575 0.0
H645 H 0.22723 0.31896 0.89601 0.0
C646 C 0.68052 0.28082 0.87554 0.0
C647 C 0.67114 0.27306 0.84504 0.0
C648 C 0.7094 0.29913 0.82008 0.0
C649 C 0.71762 0.30846 0.85046 0.0
N650 N 0.70907 0.31184 0.90673 0.0
N651 N 0.674 0.27693 0.78816 0.0
C652 C 0.70272 0.30022 0.87816 0.0
C653 C 0.68473 0.28296 0.81725 0.0
N654 N 0.66831 0.26951 0.90198 0.0
N655 N 0.72592 0.30465 0.79413 0.0
H656 H 0.65673 0.26407 0.78504 0.0
H657 H 0.68098 0.28609 0.76723 0.0
H658 H 0.74421 0.31636 0.79522 0.0
H659 H 0.72288 0.29584 0.77194 0.0
H660 H 0.67631 0.27168 0.92465 0.0
H661 H 0.65095 0.25646 0.90113 0.0
H662 H 0.69713 0.30903 0.92727 0.0
H663 H 0.72516 0.32619 0.90953 0.0
C664 C 0.6925 0.2533 0.06742 0.0
C665 C 0.68384 0.24146 0.09663 0.0
C666 C 0.7126 0.2746 0.1257 0.0
C667 C 0.72375 0.28432 0.0964 0.0
N668 N 0.72489 0.28327 0.03921 0.0
N669 N 0.68658 0.23887 0.15347 0.0
C670 C 0.71385 0.27374 0.06719 0.0
C671 C 0.69391 0.25176 0.12579 0.0
N672 N 0.67942 0.24578 0.04007 0.0
N673 N 0.71981 0.2872 0.15342 0.0
H674 H 0.6724 0.22254 0.15456 0.0
H675 H 0.69587 0.24299 0.17513 0.0
H676 H 0.73422 0.30326 0.15462 0.0
H677 H 0.71004 0.2832 0.17511 0.0
H678 H 0.68255 0.2556 0.01844 0.0
H679 H 0.6635 0.23104 0.03937 0.0
H680 H 0.7215 0.27392 0.01739 0.0
H681 H 0.73852 0.30006 0.03779 0.0
C682 C 0.69562 0.67975 0.07561 0.0
C683 C 0.70911 0.6696 0.10289 0.0
C684 C 0.67594 0.69444 0.13723 0.0
C685 C 0.66423 0.70662 0.10998 0.0
N686 N 0.66396 0.71318 0.05332 0.0
N687 N 0.71479 0.66938 0.15956 0.0
C688 C 0.67441 0.69998 0.07917 0.0
C689 C 0.69988 0.67734 0.13373 0.0
N690 N 0.7023 0.66914 0.04642 0.0
N691 N 0.66413 0.69923 0.16641 0.0
H692 H 0.73231 0.65668 0.15797 0.0
H693 H 0.71116 0.67691 0.18234 0.0
H694 H 0.6473 0.71256 0.17003 0.0
H695 H 0.66969 0.68862 0.18676 0.0
H696 H 0.69123 0.67348 0.02598 0.0
H697 H 0.71746 0.65398 0.04294 0.0
H698 H 0.67291 0.71189 0.03076 0.0
H699 H 0.64721 0.72684 0.05465 0.0
C700 C 0.26186 0.68538 0.07225 0.0
C701 C 0.24115 0.68448 0.0966 0.0
C702 C 0.25801 0.7282 0.11835 0.0
C703 C 0.27897 0.72898 0.0942 0.0
N704 N 0.30408 0.70684 0.05124 0.0
N705 N 0.22235 0.70138 0.14607 0.0
C706 C 0.28201 0.70698 0.07221 0.0
C707 C 0.24012 0.70482 0.1207 0.0
N708 N 0.26145 0.66621 0.04842 0.0
N709 N 0.25492 0.75006 0.13861 0.0
H710 H 0.20912 0.68434 0.14839 0.0
H711 H 0.22222 0.71403 0.166 0.0
H712 H 0.26841 0.76698 0.13853 0.0
H713 H 0.23818 0.75227 0.15441 0.0
H714 H 0.27362 0.66755 0.02786 0.0
H715 H 0.24766 0.64951 0.0483 0.0
H716 H 0.30932 0.69002 0.03703 0.0
H717 H 0.31845 0.72298 0.04933 0.0
C718 C 0.26327 0.29 0.07277 0.0
C719 C 0.24897 0.29816 0.10088 0.0
C720 C 0.28245 0.27273 0.13303 0.0
C721 C 0.29517 0.26256 0.10481 0.0
N722 N 0.297 0.25947 0.04773 0.0
N723 N 0.24221 0.29505 0.15746 0.0
C724 C 0.28533 0.27056 0.07463 0.0
C725 C 0.25792 0.28909 0.131 0.0
N726 N 0.25648 0.30175 0.04448 0.0
N727 N 0.29384 0.26674 0.16173 0.0
H728 H 0.22415 0.30704 0.15691 0.0
H729 H 0.24573 0.28648 0.1796 0.0
H730 H 0.31104 0.2538 0.16426 0.0
H731 H 0.2875 0.276 0.18289 0.0
H732 H 0.26804 0.29903 0.02365 0.0
H733 H 0.24049 0.31617 0.04222 0.0
H734 H 0.28846 0.26159 0.02533 0.0
H735 H 0.31455 0.24678 0.04787 0.0
C736 C 0.97163 0.23924 0.31669 0.0
C737 C 0.95777 0.23968 0.34661 0.0
C738 C 0.00241 0.24682 0.37317 0.0
C739 C 0.01572 0.24949 0.34315 0.0
N740 N 0.01361 0.25032 0.28622 0.0
N741 N 0.95887 0.24793 0.40305 0.0
C742 C 0.00053 0.24616 0.31481 0.0
C743 C 0.97287 0.24429 0.37486 0.0
N744 N 0.95727 0.23154 0.29031 0.0
N745 N 0.01805 0.24665 0.40006 0.0
H746 H 0.93717 0.24659 0.40542 0.0
H747 H 0.96847 0.25463 0.42369 0.0
H748 H 0.03975 0.24903 0.39979 0.0
H749 H 0.0099 0.24185 0.42237 0.0
H750 H 0.9667 0.22819 0.26827 0.0
H751 H 0.93609 0.2263 0.29097 0.0
H752 H 0.0031 0.25135 0.26483 0.0
H753 H 0.03501 0.25435 0.28405 0.0
C754 C 0.70565 -0.00356 0.29807 0.0
C755 C 0.71395 0.01086 0.32567 0.0
C756 C 0.72301 0.96735 0.35281 0.0
C757 C 0.71361 0.95292 0.32564 0.0
N758 N 0.70262 0.95259 0.27028 0.0
N759 N 0.73697 0.01084 0.37622 0.0
C760 C 0.70712 0.96718 0.2975 0.0
C761 C 0.72509 -0.00345 0.35187 0.0
N762 N 0.69568 0.0108 0.27282 0.0
N763 N 0.72779 0.95339 0.38032 0.0
H764 H 0.73768 0.03227 0.37729 0.0
H765 H 0.74819 0.00152 0.39421 0.0
H766 H 0.72682 0.932 0.38213 0.0
H767 H 0.73094 0.96299 0.40206 0.0
H768 H 0.68612 0.00164 0.25345 0.0
H769 H 0.69615 0.03228 0.27175 0.0
H770 H 0.69999 0.9616 0.2482 0.0
H771 H 0.70389 0.93113 0.26937 0.0
C772 C -0.00828 0.72455 0.30964 0.0
C773 C 0.00377 0.72625 0.34011 0.0
C774 C 0.95787 0.71877 0.36508 0.0
C775 C 0.94643 0.71419 0.3347 0.0
N776 N 0.95208 0.71032 0.27811 0.0
N777 N -0.0004 0.72071 0.39683 0.0
C778 C 0.96324 0.71644 0.30693 0.0
C779 C -0.01283 0.72248 0.3679 0.0
N780 N 0.00733 0.73146 0.28346 0.0
N781 N 0.94073 0.71947 0.3913 0.0
H782 H 0.02106 0.72301 0.40005 0.0
H783 H -0.01095 0.7146 0.41739 0.0
H784 H 0.91926 0.71573 0.39051 0.0
H785 H 0.94738 0.72581 0.41355 0.0
H786 H -0.00088 0.73327 0.26086 0.0
H787 H 0.0282 0.73768 0.2847 0.0
H788 H 0.96393 0.70847 0.25735 0.0
H789 H 0.93099 0.70544 0.27522 0.0
C790 C 0.2507 0.97104 0.29484 0.0
C791 C 0.24393 0.95761 0.32372 0.0
C792 C 0.23656 0.00194 0.35015 0.0
C793 C 0.24508 0.01537 0.32177 0.0
N794 N 0.25285 0.01403 0.26546 0.0
N795 N 0.22311 0.95931 0.37609 0.0
C796 C 0.24963 0.00026 0.29348 0.0
C797 C 0.23408 0.97278 0.35034 0.0
N798 N 0.25901 0.95577 0.26915 0.0
N799 N 0.23309 0.01679 0.37751 0.0
H800 H 0.22195 0.93792 0.37765 0.0
H801 H 0.21297 0.96927 0.39483 0.0
H802 H 0.23419 0.03822 0.37842 0.0
H803 H 0.23078 0.0079 0.3998 0.0
H804 H 0.26745 0.96419 0.24847 0.0
H805 H 0.25823 0.93427 0.26894 0.0
H806 H 0.25416 0.0044 0.24346 0.0
H807 H 0.25179 0.03548 0.26408 0.0
C808 C 0.01018 0.72464 0.56864 0.0
C809 C 0.02252 0.72513 0.59896 0.0
C810 C 0.97789 0.73891 0.62325 0.0
C811 C 0.96495 0.73549 0.59346 0.0
N812 N 0.96755 0.72106 0.53866 0.0
N813 N 0.01871 0.73068 0.65552 0.0
C814 C 0.98078 0.72752 0.56627 0.0
C815 C 0.00657 0.73181 0.62643 0.0
N816 N 0.0266 0.72148 0.54209 0.0
N817 N 0.96285 0.7495 0.64821 0.0
H818 H 0.03992 0.72653 0.65844 0.0
H819 H 0.00759 0.73227 0.6768 0.0
H820 H 0.9418 0.75487 0.64654 0.0
H821 H 0.97161 0.75498 0.66976 0.0
H822 H 0.01926 0.72393 0.51917 0.0
H823 H 0.0482 0.71862 0.54287 0.0
H824 H 0.97757 0.7119 0.5193 0.0
H825 H 0.94598 0.72263 0.53582 0.0
C826 C 0.29505 0.96792 0.59633 0.0
C827 C 0.28058 0.95436 0.62147 0.0
C828 C 0.26191 -0.00133 0.64019 0.0
C829 C 0.27849 0.0123 0.61682 0.0
N830 N 0.31299 0.01039 0.57435 0.0
N831 N 0.25218 0.95619 0.66889 0.0
C832 C 0.29577 -0.00294 0.59552 0.0
C833 C 0.26433 0.96954 0.64375 0.0
N834 N 0.30682 0.95294 0.57208 0.0
N835 N 0.24395 0.01359 0.65892 0.0
H836 H 0.25357 0.93491 0.67196 0.0
H837 H 0.24235 0.96619 0.6878 0.0
H838 H 0.24277 0.03503 0.65804 0.0
H839 H 0.22913 0.00477 0.67409 0.0
H840 H 0.31425 0.96162 0.55107 0.0
H841 H 0.30693 0.93149 0.57131 0.0
H842 H 0.32902 0.00061 0.56175 0.0
H843 H 0.31259 0.03156 0.57047 0.0
C844 C -0.0027 0.24292 0.6395 0.0
C845 C 0.01098 0.23948 0.60973 0.0
C846 C 0.96655 0.24546 0.58247 0.0
C847 C 0.95352 0.25181 0.61193 0.0
N848 N 0.9561 0.25892 0.66829 0.0
N849 N 0.00991 0.24209 0.55258 0.0
C850 C 0.96878 0.25116 0.64046 0.0
C851 C -0.00407 0.2417 0.58109 0.0
N852 N 0.01144 0.2376 0.66673 0.0
N853 N 0.95084 0.24316 0.55574 0.0
H854 H 0.03154 0.23994 0.55029 0.0
H855 H 0.00047 0.24705 0.53127 0.0
H856 H 0.92937 0.2469 0.55543 0.0
H857 H 0.95865 0.23544 0.53435 0.0
H858 H 0.00201 0.23713 0.68909 0.0
H859 H 0.03231 0.23135 0.66674 0.0
H860 H 0.96682 0.26196 0.68931 0.0
H861 H 0.93492 0.26393 0.66998 0.0
C862 C 0.68772 0.00068 0.59592 0.0
C863 C 0.70121 0.01518 0.62071 0.0
C864 C 0.71541 0.97147 0.6446 0.0
C865 C 0.70268 0.95725 0.61919 0.0
N866 N 0.68382 0.95806 0.56651 0.0
N867 N 0.73154 0.01529 0.66581 0.0
C868 C 0.69096 0.97181 0.5936 0.0
C869 C 0.71639 0.00084 0.64411 0.0
N870 N 0.67134 0.01437 0.57484 0.0
N871 N 0.72544 0.95696 0.66968 0.0
H872 H 0.73174 0.03678 0.66674 0.0
H873 H 0.74525 0.00614 0.68154 0.0
H874 H 0.72539 0.93547 0.67037 0.0
H875 H 0.73228 0.96608 0.69054 0.0
H876 H 0.65827 0.00441 0.55891 0.0
H877 H 0.66907 0.0357 0.57457 0.0
H878 H 0.67802 0.96792 0.54575 0.0
H879 H 0.68647 0.93686 0.56357 0.0
C880 C 0.50431 0.73624 0.82249 0.0
C881 C 0.51743 0.74712 0.84971 0.0
C882 C 0.47291 0.74683 0.87904 0.0
C883 C 0.45972 0.73596 0.85182 0.0
N884 N 0.46279 0.71525 0.80005 0.0
N885 N 0.51637 0.75709 0.90567 0.0
C886 C 0.47547 0.72899 0.82426 0.0
C887 C 0.50237 0.75056 0.8786 0.0
N888 N 0.51916 0.73395 0.7947 0.0
N889 N 0.45712 0.75492 0.90467 0.0
H890 H 0.53799 0.76012 0.90613 0.0
H891 H 0.50709 0.75719 0.92811 0.0
H892 H 0.43552 0.75192 0.90626 0.0
H893 H 0.46502 0.76619 0.92357 0.0
H894 H 0.51019 0.72913 0.77306 0.0
H895 H 0.54049 0.73838 0.79293 0.0
H896 H 0.47347 0.70732 0.78043 0.0
H897 H 0.44165 0.70978 0.80079 0.0
C898 C 0.21107 0.4744 0.78925 0.0
C899 C 0.2182 0.46073 0.81757 0.0
C900 C 0.2354 0.50405 0.8399 0.0
C901 C 0.22269 0.51828 0.81461 0.0
N902 N 0.20121 0.51792 0.76346 0.0
N903 N 0.23726 0.46181 0.87022 0.0
C904 C 0.21177 0.50365 0.78844 0.0
C905 C 0.23115 0.47519 0.84269 0.0
N906 N 0.2036 0.45924 0.76336 0.0
N907 N 0.25082 0.51815 0.86166 0.0
H908 H 0.23486 0.44063 0.87317 0.0
H909 H 0.24309 0.47188 0.89092 0.0
H910 H 0.25395 0.53937 0.86079 0.0
H911 H 0.26277 0.50855 0.87883 0.0
H912 H 0.20004 0.46764 0.74114 0.0
H913 H 0.20328 0.43772 0.76353 0.0
H914 H 0.18992 0.50889 0.74525 0.0
H915 H 0.20323 0.53928 0.76148 0.0
C916 C 0.46102 0.24952 0.81061 0.0
C917 C 0.44744 0.23032 0.83097 0.0
C918 C 0.49192 0.21898 0.85547 0.0
C919 C 0.50537 0.23934 0.83661 0.0
N920 N 0.50279 0.2767 0.79935 0.0
N921 N 0.44844 0.20251 0.87829 0.0
C922 C 0.4899 0.25555 0.81516 0.0
C923 C 0.46247 0.2166 0.85491 0.0
N924 N 0.44663 0.26108 0.7863 0.0
N925 N 0.50731 0.20175 0.87389 0.0
H926 H 0.42668 0.20134 0.87974 0.0
H927 H 0.45813 0.19454 0.89821 0.0
H928 H 0.52889 0.20361 0.87625 0.0
H929 H 0.49898 0.18433 0.88494 0.0
H930 H 0.45597 0.27305 0.76866 0.0
H931 H 0.42549 0.2571 0.78246 0.0
H932 H 0.49213 0.29111 0.7859 0.0
H933 H 0.52412 0.2809 0.80135 0.0
C934 C 0.73316 0.48483 0.83681 0.0
C935 C 0.74909 0.46913 0.81471 0.0
C936 C 0.76149 0.51134 0.78591 0.0
C937 C 0.75103 0.52697 0.8118 0.0
N938 N 0.72758 0.52887 0.86293 0.0
N939 N 0.77546 0.4664 0.76585 0.0
C940 C 0.73633 0.51392 0.83713 0.0
C941 C 0.76204 0.48212 0.78822 0.0
N942 N 0.71557 0.4721 0.85799 0.0
N943 N 0.77085 0.52463 0.75929 0.0
H944 H 0.77427 0.44491 0.76577 0.0
H945 H 0.78821 0.47442 0.74793 0.0
H946 H 0.77023 0.54605 0.75717 0.0
H947 H 0.77696 0.51463 0.73851 0.0
H948 H 0.70137 0.48276 0.87234 0.0
H949 H 0.71287 0.45086 0.85909 0.0
H950 H 0.72045 0.51993 0.88394 0.0
H951 H 0.72927 0.55021 0.86454 0.0
C952 C 0.47209 0.22763 0.13141 0.0
C953 C 0.46023 0.23047 0.10097 0.0
C954 C 0.50623 0.22378 0.07597 0.0
C955 C 0.51743 0.21798 0.10614 0.0
N956 N 0.5114 0.21207 0.16242 0.0
N957 N 0.46474 0.22682 0.04403 0.0
C958 C 0.50048 0.2193 0.13388 0.0
C959 C 0.47699 0.22765 0.07313 0.0
N960 N 0.45637 0.23362 0.15782 0.0
N961 N 0.52354 0.22541 0.04995 0.0
H962 H 0.44329 0.22905 0.04075 0.0
H963 H 0.47541 0.22145 0.02327 0.0
H964 H 0.54498 0.22159 0.05071 0.0
H965 H 0.51709 0.23264 0.02804 0.0
H966 H 0.46445 0.23455 0.18056 0.0
H967 H 0.43556 0.23994 0.15674 0.0
H968 H 0.49941 0.20951 0.18297 0.0
H969 H 0.53243 0.20703 0.16519 0.0
C970 C 0.73219 0.49046 0.09695 0.0
C971 C 0.74336 0.5062 0.1222 0.0
C972 C 0.75414 0.46414 0.15133 0.0
C973 C 0.74452 0.44842 0.12529 0.0
N974 N 0.71688 0.44586 0.07789 0.0
N975 N 0.75775 0.50912 0.17643 0.0
C976 C 0.73071 0.46135 0.09982 0.0
C977 C 0.75191 0.49332 0.1505 0.0
N978 N 0.72522 0.50301 0.06919 0.0
N979 N 0.7662 0.45106 0.17628 0.0
H980 H 0.7559 0.53056 0.17632 0.0
H981 H 0.76206 0.50111 0.19866 0.0
H982 H 0.7663 0.42963 0.1784 0.0
H983 H 0.77674 0.46121 0.19431 0.0
H984 H 0.72069 0.4923 0.04847 0.0
H985 H 0.72577 0.52427 0.06593 0.0
H986 H 0.70402 0.45429 0.06076 0.0
H987 H 0.71599 0.42444 0.07847 0.0
C988 C 0.45631 0.74948 0.1264 0.0
C989 C 0.44423 0.75941 0.09817 0.0
C990 C 0.48944 0.75686 0.07052 0.0
C991 C 0.50131 0.74573 0.09832 0.0
N992 N 0.49614 0.72767 0.15112 0.0
N993 N 0.44734 0.76814 0.04203 0.0
C994 C 0.48475 0.74093 0.12586 0.0
C995 C 0.46023 0.76179 0.06981 0.0
N996 N 0.4408 0.74909 0.15386 0.0
N997 N 0.50627 0.7638 0.04528 0.0
H998 H 0.42597 0.77222 0.04061 0.0
H999 H 0.45724 0.76721 0.01994 0.0
H1000 H 0.52776 0.76013 0.04456 0.0
H1001 H 0.49943 0.77505 0.02594 0.0
H1002 H 0.44909 0.74495 0.17599 0.0
H1003 H 0.41974 0.75467 0.15485 0.0
H1004 H 0.48459 0.72104 0.17075 0.0
H1005 H 0.51701 0.72144 0.15146 0.0
C1006 C 0.20457 0.47445 0.15124 0.0
C1007 C 0.21553 0.46018 0.12447 0.0
C1008 C 0.22767 0.5038 0.09877 0.0
C1009 C 0.21536 0.5181 0.12482 0.0
N1010 N 0.19873 0.51821 0.17875 0.0
N1011 N 0.2444 0.46059 0.07702 0.0
C1012 C 0.20603 0.50371 0.15211 0.0
C1013 C 0.2297 0.47464 0.09986 0.0
N1014 N 0.19215 0.45993 0.17533 0.0
N1015 N 0.23521 0.51778 0.07185 0.0
H1016 H 0.24538 0.43919 0.07586 0.0
H1017 H 0.25771 0.47015 0.06067 0.0
H1018 H 0.23439 0.53915 0.06985 0.0
H1019 H 0.24051 0.50816 0.05055 0.0
H1020 H 0.18075 0.46894 0.19378 0.0
H1021 H 0.1926 0.43844 0.17633 0.0
H1022 H 0.19372 0.50915 0.2004 0.0
H1023 H 0.19998 0.53967 0.17983 0.0
C1024 C 0.07978 0.29702 0.46164 0.0
C1025 C 0.10576 0.2994 0.44534 0.0
C1026 C 0.13121 0.2935 0.4946 0.0
C1027 C 0.10533 0.28842 0.51029 0.0
N1028 N 0.05522 0.29252 0.51219 0.0
N1029 N 0.15526 0.30776 0.44618 0.0
C1030 C 0.07961 0.29283 0.49491 0.0
C1031 C 0.13121 0.30054 0.46197 0.0
N1032 N 0.05552 0.29723 0.44487 0.0
N1033 N 0.15565 0.29006 0.51055 0.0
H1034 H 0.1554 0.31299 0.42223 0.0
H1035 H 0.17442 0.31078 0.45705 0.0
H1036 H 0.15611 0.28592 0.53478 0.0
H1037 H 0.17537 0.29039 0.49984 0.0
H1038 H 0.03595 0.2924 0.45444 0.0
H1039 H 0.0552 0.30159 0.42068 0.0
H1040 H 0.03576 0.29732 0.503 0.0
H1041 H 0.0548 0.28948 0.53666 0.0
C1042 C 0.65209 0.11675 0.49091 0.0
C1043 C 0.66713 0.0962 0.50742 0.0
C1044 C 0.67694 0.07236 0.45724 0.0
C1045 C 0.66715 0.09569 0.44075 0.0
N1046 N 0.64631 0.14092 0.44142 0.0
N1047 N 0.69351 0.05377 0.5066 0.0
C1048 C 0.65439 0.11787 0.45736 0.0
C1049 C 0.67918 0.07361 0.49066 0.0
N1050 N 0.63604 0.13549 0.50705 0.0
N1051 N 0.6838 0.04895 0.44081 0.0
H1052 H 0.69433 0.05303 0.53122 0.0
H1053 H 0.70577 0.03882 0.49546 0.0
H1054 H 0.68192 0.04741 0.41627 0.0
H1055 H 0.68867 0.03033 0.45157 0.0
H1056 H 0.62238 0.14896 0.49598 0.0
H1057 H 0.63407 0.13598 0.53156 0.0
H1058 H 0.64054 0.15924 0.45258 0.0
H1059 H 0.64722 0.1425 0.41689 0.0
C1060 C 0.88865 0.6643 0.45 0.0
C1061 C 0.86158 0.66168 0.43712 0.0
C1062 C 0.83997 0.66718 0.48945 0.0
C1063 C 0.86676 0.6735 0.50149 0.0
N1064 N 0.91677 0.67046 0.49715 0.0
N1065 N 0.81262 0.65229 0.44425 0.0
C1066 C 0.89125 0.66916 0.48301 0.0
C1067 C 0.83759 0.65998 0.45696 0.0
N1068 N 0.91151 0.6638 0.43021 0.0
N1069 N 0.8169 0.66987 0.50867 0.0
H1070 H 0.81085 0.64696 0.42039 0.0
H1071 H 0.79435 0.64912 0.45742 0.0
H1072 H 0.8184 0.67419 0.53282 0.0
H1073 H 0.79641 0.66844 0.50086 0.0
H1074 H 0.93177 0.66846 0.43718 0.0
H1075 H 0.90993 0.65914 0.40614 0.0
H1076 H 0.93565 0.6662 0.48565 0.0
H1077 H 0.91875 0.67391 0.52143 0.0
C1078 C 0.31994 0.85834 0.48491 0.0
C1079 C 0.30465 0.87777 0.50344 0.0
C1080 C 0.28815 0.89954 0.45486 0.0
C1081 C 0.29821 0.87667 0.43726 0.0
N1082 N 0.32182 0.8327 0.43589 0.0
N1083 N 0.27453 0.91767 0.50615 0.0
C1084 C 0.31407 0.85587 0.45219 0.0
C1085 C 0.28906 0.8988 0.48839 0.0
N1086 N 0.33976 0.842 0.49826 0.0
N1087 N 0.27816 0.92212 0.43939 0.0
H1088 H 0.276 0.91898 0.5307 0.0
H1089 H 0.25995 0.93116 0.49673 0.0
H1090 H 0.27779 0.92345 0.41473 0.0
H1091 H 0.2729 0.94051 0.45073 0.0
H1092 H 0.35326 0.82957 0.48496 0.0
H1093 H 0.34517 0.84297 0.52195 0.0
H1094 H 0.33008 0.81531 0.44668 0.0
H1095 H 0.31779 0.82976 0.41202 0.0
C1096 C 0.12742 0.66661 0.44668 0.0
C1097 C 0.10049 0.67261 0.43508 0.0
C1098 C 0.08006 0.66682 0.488 0.0
C1099 C 0.10747 0.66694 0.50024 0.0
N1100 N 0.15722 0.66331 0.49274 0.0
N1101 N 0.05064 0.67475 0.44238 0.0
C1102 C 0.13118 0.665 0.47993 0.0
C1103 C 0.0765 0.67088 0.45501 0.0
N1104 N 0.14926 0.66342 0.4258 0.0
N1105 N 0.05771 0.66364 0.50821 0.0
H1106 H 0.04773 0.67646 0.418 0.0
H1107 H 0.03228 0.67674 0.45568 0.0
H1108 H 0.06017 0.66068 0.53249 0.0
H1109 H 0.03707 0.662 0.50098 0.0
H1110 H 0.16929 0.65754 0.43226 0.0
H1111 H 0.14667 0.66468 0.40135 0.0
H1112 H 0.1758 0.66474 0.47972 0.0
H1113 H 0.16017 0.661 0.51704 0.0
C1114 C 0.29495 0.07121 0.44737 0.0
C1115 C 0.30516 0.09411 0.42991 0.0
C1116 C 0.31661 0.11838 0.47883 0.0
C1117 C 0.30478 0.0962 0.49642 0.0
N1118 N 0.2905 0.04857 0.49834 0.0
N1119 N 0.33412 0.13486 0.4282 0.0
C1120 C 0.29653 0.07158 0.4809 0.0
C1121 C 0.31902 0.11606 0.44538 0.0
N1122 N 0.28307 0.04949 0.43178 0.0
N1123 N 0.32355 0.14247 0.49363 0.0
H1124 H 0.33643 0.13376 0.40372 0.0
H1125 H 0.34686 0.14979 0.43842 0.0
H1126 H 0.32249 0.14509 0.51802 0.0
H1127 H 0.32858 0.16055 0.4816 0.0
H1128 H 0.27189 0.03378 0.443 0.0
H1129 H 0.28372 0.04766 0.40713 0.0
H1130 H 0.2867 0.02925 0.48852 0.0
H1131 H 0.29176 0.04827 0.52297 0.0
C1132 C 0.88627 0.30177 0.45668 0.0
C1133 C 0.86099 0.29403 0.44187 0.0
C1134 C 0.83521 0.29827 0.49193 0.0
C1135 C 0.86092 0.30323 0.50729 0.0
N1136 N 0.90904 0.31744 0.50471 0.0
N1137 N 0.81078 0.29269 0.44217 0.0
C1138 C 0.88582 0.30791 0.48962 0.0
C1139 C 0.83515 0.29516 0.45851 0.0
N1140 N 0.91078 0.30142 0.43962 0.0
N1141 N 0.81129 0.29497 0.50962 0.0
H1142 H 0.81056 0.29041 0.41758 0.0
H1143 H 0.791 0.29516 0.45234 0.0
H1144 H 0.81067 0.29843 0.534 0.0
H1145 H 0.79239 0.28808 0.50053 0.0
H1146 H 0.93045 0.3037 0.44955 0.0
H1147 H 0.91143 0.29792 0.41523 0.0
H1148 H 0.92753 0.32306 0.49312 0.0
H1149 H 0.90892 0.32186 0.52892 0.0
C1150 C 0.65416 0.88864 0.49245 0.0
C1151 C 0.66572 0.86583 0.50844 0.0
C1152 C 0.67385 0.84194 0.45819 0.0
C1153 C 0.66675 0.86648 0.44214 0.0
N1154 N 0.64943 0.91304 0.44263 0.0
N1155 N 0.68574 0.82031 0.50784 0.0
C1156 C 0.65611 0.88966 0.45884 0.0
C1157 C 0.67493 0.84213 0.49167 0.0
N1158 N 0.64183 0.90939 0.50954 0.0
N1159 N 0.67933 0.81847 0.44126 0.0
H1160 H 0.68518 0.81911 0.53248 0.0
H1161 H 0.69625 0.80395 0.49709 0.0
H1162 H 0.67875 0.81781 0.41662 0.0
H1163 H 0.68219 0.79919 0.45142 0.0
H1164 H 0.63104 0.92568 0.49946 0.0
H1165 H 0.64057 0.90919 0.53422 0.0
H1166 H 0.64456 0.93175 0.45342 0.0
H1167 H 0.64995 0.91409 0.41796 0.0
C1168 C 0.58113 0.80789 -0.00283 0.0
C1169 C 0.6051 0.79778 0.01261 0.0
C1170 C 0.63308 0.80184 0.96423 0.0
C1171 C 0.60815 0.80747 0.94778 0.0
N1172 N 0.56084 0.82398 0.94798 0.0
N1173 N 0.65497 0.79309 0.01491 0.0
C1174 C 0.58299 0.81371 0.96425 0.0
C1175 C 0.63162 0.79779 -0.00256 0.0
N1176 N 0.55644 0.8101 0.01368 0.0
N1177 N 0.65759 0.79884 0.94754 0.0
H1178 H 0.6539 0.79026 0.03941 0.0
H1179 H 0.67531 0.79381 0.00589 0.0
H1180 H 0.65904 0.80301 0.92333 0.0
H1181 H 0.67625 0.79211 0.95721 0.0
H1182 H 0.53735 0.81483 0.00356 0.0
H1183 H 0.55511 0.80686 0.03807 0.0
H1184 H 0.54202 0.83005 0.95844 0.0
H1185 H 0.56212 0.82821 0.92379 0.0
C1186 C 0.1841 0.62528 0.9522 0.0
C1187 C 0.1772 0.60122 0.93494 0.0
C1188 C 0.16533 0.57699 -0.01587 0.0
C1189 C 0.17625 0.59962 0.00135 0.0
N1190 N 0.19571 0.64555 0.00278 0.0
N1191 N 0.16152 0.55403 0.93317 0.0
C1192 C 0.18532 0.62396 -0.01434 0.0
C1193 C 0.16739 0.57713 0.9505 0.0
N1194 N 0.18894 0.64948 0.93648 0.0
N1195 N 0.15334 0.55536 0.0 0.0
H1196 H 0.16213 0.55372 0.90846 0.0
H1197 H 0.15743 0.5348 0.94307 0.0
H1198 H 0.15225 0.55437 0.02466 0.0
H1199 H 0.14266 0.53936 -0.01105 0.0
H1200 H 0.19149 0.66844 0.94765 0.0
H1201 H 0.18804 0.65107 0.9119 0.0
H1202 H 0.20618 0.6623 -0.00722 0.0
H1203 H 0.19495 0.64618 0.02741 0.0
C1204 C 0.33427 0.18711 -0.01662 0.0
C1205 C 0.36107 0.18691 -0.00281 0.0
C1206 C 0.38239 0.17324 0.94666 0.0
C1207 C 0.35678 0.17934 0.93188 0.0
N1208 N 0.30748 0.18879 0.93496 0.0
N1209 N 0.41046 0.17767 -0.00602 0.0
C1210 C 0.33225 0.18468 0.95002 0.0
C1211 C 0.38505 0.17865 -0.02044 0.0
N1212 N 0.31103 0.1901 0.0023 0.0
N1213 N 0.40414 0.16301 0.92895 0.0
H1214 H 0.41268 0.18065 0.0183 0.0
H1215 H 0.42937 0.17486 -0.01808 0.0
H1216 H 0.40235 0.15891 0.9048 0.0
H1217 H 0.42297 0.15647 0.93841 0.0
H1218 H 0.29062 0.18869 -0.00581 0.0
H1219 H 0.31223 0.19187 0.02689 0.0
H1220 H 0.28936 0.19597 0.94611 0.0
H1221 H 0.30533 0.18558 0.91066 0.0
C1222 C 0.81297 0.36187 -0.01358 0.0
C1223 C 0.79859 0.38044 0.00678 0.0
C1224 C 0.78871 0.41065 0.96199 0.0
C1225 C 0.80144 0.39108 0.94134 0.0
N1226 N 0.83603 0.35491 0.93578 0.0
N1227 N 0.77989 0.42582 0.01613 0.0
C1228 C 0.81706 0.36894 0.95409 0.0
C1229 C 0.78877 0.406 -0.00479 0.0
N1230 N 0.82123 0.33674 -0.00261 0.0
N1231 N 0.77626 0.43346 0.94959 0.0
H1232 H 0.78016 0.42304 0.04063 0.0
H1233 H 0.77448 0.44575 0.00961 0.0
H1234 H 0.77844 0.43879 0.92575 0.0
H1235 H 0.76346 0.44678 0.96256 0.0
H1236 H 0.82848 0.321 -0.01736 0.0
H1237 H 0.81879 0.33075 0.02092 0.0
H1238 H 0.84937 0.34002 0.9448 0.0
H1239 H 0.84145 0.36063 0.91282 0.0
C1240 C 0.62709 0.16755 -0.01782 0.0
C1241 C 0.60256 0.16772 0.00125 0.0
C1242 C 0.57406 0.17579 0.95475 0.0
C1243 C 0.59881 0.18191 0.93743 0.0
N1244 N 0.64901 0.18105 0.93231 0.0
N1245 N 0.55244 0.16947 0.00657 0.0
C1246 C 0.62544 0.17632 0.9502 0.0
C1247 C 0.57584 0.1704 -0.01237 0.0
N1248 N 0.65184 0.1597 -0.00487 0.0
N1249 N 0.54907 0.17534 0.93957 0.0
H1250 H 0.55326 0.16438 0.03055 0.0
H1251 H 0.53251 0.17463 -0.00104 0.0
H1252 H 0.54798 0.17812 0.91517 0.0
H1253 H 0.53021 0.16949 0.95022 0.0
H1254 H 0.67038 0.15736 -0.01776 0.0
H1255 H 0.6531 0.15324 0.01862 0.0
H1256 H 0.66921 0.18038 0.94113 0.0
H1257 H 0.64822 0.18652 0.90847 0.0
C1258 C 0.79712 0.5724 -0.01702 0.0
C1259 C 0.78774 0.59508 0.00145 0.0
C1260 C 0.78657 0.62408 0.95423 0.0
C1261 C 0.79176 0.60045 0.93533 0.0
N1262 N 0.80126 0.55188 0.93059 0.0
N1263 N 0.77207 0.64222 0.00525 0.0
C1264 C 0.79729 0.57456 0.94938 0.0
C1265 C 0.78229 0.62094 -0.01272 0.0
N1266 N 0.80568 0.54886 -0.00236 0.0
N1267 N 0.78631 0.64958 0.94054 0.0
H1268 H 0.76973 0.64107 0.02976 0.0
H1269 H 0.76428 0.66038 -0.00423 0.0
H1270 H 0.78982 0.65255 0.91637 0.0
H1271 H 0.78529 0.66792 0.95334 0.0
H1272 H 0.81514 0.53244 -0.0142 0.0
H1273 H 0.80528 0.54661 0.02221 0.0
H1274 H 0.80216 0.53183 0.93922 0.0
H1275 H 0.80213 0.55292 0.90592 0.0
C1276 C 0.3843 0.81005 0.94675 0.0
C1277 C 0.35988 0.80371 0.92952 0.0
C1278 C 0.33052 0.81083 -0.02347 0.0
C1279 C 0.35516 0.8133 -0.00548 0.0
N1280 N 0.40421 0.82352 -0.00273 0.0
N1281 N 0.31004 0.80598 0.92433 0.0
C1282 C 0.38167 0.81609 -0.02041 0.0
C1283 C 0.33298 0.80715 0.94325 0.0
N1284 N 0.40989 0.80833 0.93205 0.0
N1285 N 0.30509 0.81031 -0.00829 0.0
H1286 H 0.31185 0.80332 0.89983 0.0
H1287 H 0.28968 0.80963 0.93221 0.0
H1288 H 0.30299 0.8141 0.01597 0.0
H1289 H 0.28629 0.80573 -0.01928 0.0
H1290 H 0.42886 0.80974 0.9437 0.0
H1291 H 0.41205 0.80486 0.90774 0.0
H1292 H 0.42409 0.82733 -0.01209 0.0
H1293 H 0.40236 0.82789 0.02143 0.0
C1294 C 0.17666 0.4054 0.9554 0.0
C1295 C 0.16486 0.38302 0.93843 0.0
C1296 C 0.15636 0.35801 -0.01215 0.0
C1297 C 0.16862 0.38013 0.00485 0.0
N1298 N 0.18368 0.42754 0.00633 0.0
N1299 N 0.13599 0.34211 0.93894 0.0
C1300 C 0.17662 0.40474 -0.01096 0.0
C1301 C 0.152 0.3608 0.95483 0.0
N1302 N 0.18839 0.42701 0.93922 0.0
N1303 N 0.15083 0.33355 0.00262 0.0
H1304 H 0.1324 0.3433 0.91477 0.0
H1305 H 0.12385 0.32713 0.95023 0.0
H1306 H 0.15413 0.33039 0.0266 0.0
H1307 H 0.14527 0.31561 -0.00936 0.0
H1308 H 0.20054 0.44221 0.94979 0.0
H1309 H 0.18679 0.42918 0.91472 0.0
H1310 H 0.18734 0.44687 -0.00355 0.0
H1311 H 0.18343 0.42775 0.03105 0.0
C1312 C 0.12696 0.35605 0.20927 0.0
C1313 C 0.13934 0.33573 0.18942 0.0
C1314 C 0.14044 0.30326 0.23355 0.0
C1315 C 0.13069 0.32443 0.25419 0.0
N1316 N 0.11646 0.37147 0.2629 0.0
N1317 N 0.16328 0.29212 0.1838 0.0
C1318 C 0.12449 0.35104 0.2424 0.0
C1319 C 0.14734 0.30981 0.20176 0.0
N1320 N 0.11691 0.37975 0.19625 0.0
N1321 N 0.14337 0.27686 0.24426 0.0
H1322 H 0.16952 0.29616 0.16053 0.0
H1323 H 0.17272 0.27458 0.1929 0.0
H1324 H 0.14023 0.27111 0.26777 0.0
H1325 H 0.14691 0.26009 0.22929 0.0
H1326 H 0.10525 0.39429 0.20882 0.0
H1327 H 0.11837 0.3839 0.17205 0.0
H1328 H 0.11468 0.39207 0.25645 0.0
H1329 H 0.113 0.36807 0.28702 0.0
C1330 C 0.61725 0.11904 0.20496 0.0
C1331 C 0.63446 0.13832 0.18867 0.0
C1332 C 0.6563 0.15225 0.2382 0.0
C1333 C 0.64066 0.13154 0.25419 0.0
N1334 N 0.60864 0.09315 0.25332 0.0
N1335 N 0.67341 0.1701 0.1881 0.0
C1336 C 0.62178 0.11428 0.23772 0.0
C1337 C 0.65488 0.15402 0.20482 0.0
N1338 N 0.59635 0.10577 0.1892 0.0
N1339 N 0.67214 0.17055 0.25503 0.0
H1340 H 0.67293 0.17219 0.16354 0.0
H1341 H 0.69074 0.1796 0.1981 0.0
H1342 H 0.67427 0.16963 0.27955 0.0
H1343 H 0.68144 0.188 0.24514 0.0
H1344 H 0.58118 0.09362 0.20031 0.0
H1345 H 0.59318 0.10822 0.16497 0.0
H1346 H 0.5969 0.07801 0.24206 0.0
H1347 H 0.61084 0.08981 0.27756 0.0
C1348 C 0.80422 0.65278 0.19936 0.0
C1349 C 0.81852 0.63099 0.18368 0.0
C1350 C 0.8426 0.61921 0.23264 0.0
C1351 C 0.82652 0.63947 0.24879 0.0
N1352 N 0.78937 0.67305 0.24925 0.0
N1353 N 0.84915 0.59171 0.18493 0.0
C1354 C 0.80661 0.65561 0.23261 0.0
C1355 C 0.83716 0.61368 0.20018 0.0
N1356 N 0.78855 0.67094 0.18238 0.0
N1357 N 0.86328 0.60565 0.24825 0.0
H1358 H 0.84637 0.5878 0.16086 0.0
H1359 H 0.86053 0.57652 0.19634 0.0
H1360 H 0.86717 0.60876 0.27226 0.0
H1361 H 0.87769 0.59267 0.23715 0.0
H1362 H 0.78028 0.68906 0.1918 0.0
H1363 H 0.78542 0.66911 0.15807 0.0
H1364 H 0.77229 0.683 0.23947 0.0
H1365 H 0.79068 0.67603 0.27364 0.0
C1366 C 0.33344 0.85656 0.19837 0.0
C1367 C 0.32619 0.83082 0.18474 0.0
C1368 C 0.31068 0.8134 0.23641 0.0
C1369 C 0.31971 0.83844 0.25043 0.0
N1370 N 0.3426 0.88258 0.2464 0.0
N1371 N 0.31106 0.78345 0.19061 0.0
C1372 C 0.33187 0.85974 0.23185 0.0
C1373 C 0.31592 0.80881 0.20376 0.0
N1374 N 0.34157 0.87791 0.17925 0.0
N1375 N 0.29557 0.79469 0.25389 0.0
H1376 H 0.31242 0.77947 0.16638 0.0
H1377 H 0.3073 0.76575 0.20392 0.0
H1378 H 0.29118 0.79705 0.27799 0.0
H1379 H 0.28525 0.77785 0.24409 0.0
H1380 H 0.34428 0.89803 0.18723 0.0
H1381 H 0.34407 0.87585 0.15478 0.0
H1382 H 0.35415 0.89773 0.23468 0.0
H1383 H 0.34176 0.88541 0.2709 0.0
C1384 C 0.12544 0.62241 0.7364 0.0
C1385 C 0.14179 0.64101 0.75438 0.0
C1386 C 0.15349 0.66751 0.70688 0.0
C1387 C 0.13597 0.64982 0.68913 0.0
N1388 N 0.10227 0.61294 0.68665 0.0
N1389 N 0.16782 0.68361 0.75846 0.0
C1390 C 0.121 0.62797 0.7038 0.0
C1391 C 0.15457 0.6644 0.74015 0.0
N1392 N 0.11474 0.59923 0.75041 0.0
N1393 N 0.17012 0.68646 0.69167 0.0
H1394 H 0.17019 0.68161 0.78285 0.0
H1395 H 0.17469 0.70261 0.74997 0.0
H1396 H 0.17004 0.68932 0.66721 0.0
H1397 H 0.18573 0.69777 0.70277 0.0
H1398 H 0.10527 0.58326 0.73797 0.0
H1399 H 0.11663 0.59528 0.77457 0.0
H1400 H 0.08863 0.59849 0.69655 0.0
H1401 H 0.09905 0.61626 0.66257 0.0
C1402 C 0.31403 0.1691 0.69204 0.0
C1403 C 0.32904 0.14675 0.67842 0.0
C1404 C 0.34934 0.13576 0.72972 0.0
C1405 C 0.33248 0.15657 0.74371 0.0
N1406 N 0.29617 0.19079 0.73991 0.0
N1407 N 0.35898 0.10721 0.68356 0.0
C1408 C 0.31418 0.17273 0.72533 0.0
C1409 C 0.34621 0.12961 0.69705 0.0
N1410 N 0.29962 0.18683 0.67313 0.0
N1411 N 0.36866 0.12236 0.74759 0.0
H1412 H 0.35813 0.10293 0.65936 0.0
H1413 H 0.36919 0.0921 0.69643 0.0
H1414 H 0.37093 0.12599 0.77178 0.0
H1415 H 0.38362 0.10899 0.73821 0.0
H1416 H 0.2909 0.20523 0.68116 0.0
H1417 H 0.29795 0.18426 0.64871 0.0
H1418 H 0.28011 0.2009 0.72835 0.0
H1419 H 0.29575 0.19414 0.76432 0.0
C1420 C 0.82618 0.3076 0.71838 0.0
C1421 C 0.83636 0.32805 0.69715 0.0
C1422 C 0.84005 0.36108 0.74092 0.0
C1423 C 0.82715 0.34151 0.76134 0.0
N1424 N 0.80304 0.29803 0.76839 0.0
N1425 N 0.85123 0.37472 0.68691 0.0
C1426 C 0.81912 0.31516 0.7499 0.0
C1427 C 0.84279 0.35498 0.70805 0.0
N1428 N 0.82302 0.28093 0.70845 0.0
N1429 N 0.85035 0.38509 0.75321 0.0
H1430 H 0.85485 0.37055 0.66296 0.0
H1431 H 0.85317 0.39551 0.69265 0.0
H1432 H 0.84881 0.39001 0.77724 0.0
H1433 H 0.86237 0.39911 0.74025 0.0
H1434 H 0.81908 0.2646 0.72386 0.0
H1435 H 0.8264 0.27457 0.68515 0.0
H1436 H 0.79358 0.28016 0.7599 0.0
H1437 H 0.79678 0.30276 0.7915 0.0
C1438 C 0.66213 0.81971 0.71176 0.0
C1439 C 0.64041 0.83035 0.69278 0.0
C1440 C 0.61027 0.8363 0.73965 0.0
C1441 C 0.63165 0.82471 0.75829 0.0
N1442 N 0.6753 0.79999 0.76187 0.0
N1443 N 0.59285 0.84558 0.68693 0.0
C1444 C 0.65689 0.81495 0.74431 0.0
C1445 C 0.61407 0.83758 0.7062 0.0
N1446 N 0.68796 0.81445 0.69873 0.0
N1447 N 0.58685 0.84683 0.75411 0.0
H1448 H 0.59535 0.84758 0.66246 0.0
H1449 H 0.57233 0.84858 0.69472 0.0
H1450 H 0.58348 0.84593 0.77855 0.0
H1451 H 0.57162 0.85799 0.74239 0.0
H1452 H 0.70561 0.81031 0.71207 0.0
H1453 H 0.69239 0.81586 0.67457 0.0
H1454 H 0.69223 0.78932 0.75212 0.0
H1455 H 0.6725 0.79611 0.78598 0.0
C1456 C 0.84308 0.64082 0.70129 0.0
C1457 C 0.85986 0.66482 0.69687 0.0
C1458 C 0.85869 0.67311 0.75387 0.0
C1459 C 0.84407 0.64787 0.75873 0.0
N1460 N 0.83183 0.60334 0.73687 0.0
N1461 N 0.89269 0.69638 0.72075 0.0
C1462 C 0.83934 0.63024 0.73239 0.0
C1463 C 0.87076 0.67844 0.72377 0.0
N1464 N 0.82916 0.62896 0.67669 0.0
N1465 N 0.8594 0.69311 0.77669 0.0
H1466 H 0.90329 0.69948 0.69928 0.0
H1467 H 0.9024 0.70528 0.74026 0.0
H1468 H 0.84821 0.69204 0.79796 0.0
H1469 H 0.86816 0.7125 0.77256 0.0
H1470 H 0.81469 0.61307 0.67999 0.0
H1471 H 0.82954 0.6366 0.65372 0.0
H1472 H 0.83025 0.58931 0.71822 0.0
H1473 H 0.8307 0.59431 0.75924 0.0
C1474 C 0.38039 0.79043 0.70665 0.0
C1475 C 0.379 0.8089 0.73257 0.0
C1476 C 0.36299 0.84479 0.69626 0.0
C1477 C 0.35651 0.82388 0.6738 0.0
N1478 N 0.3559 0.77513 0.66057 0.0
N1479 N 0.37577 0.85604 0.75027 0.0
C1480 C 0.3646 0.79624 0.67956 0.0
C1481 C 0.37241 0.83695 0.72683 0.0
N1482 N 0.39734 0.76787 0.70734 0.0
N1483 N 0.36138 0.87193 0.68791 0.0
H1484 H 0.38704 0.85183 0.77067 0.0
H1485 H 0.36765 0.87591 0.74938 0.0
H1486 H 0.35605 0.87831 0.66521 0.0
H1487 H 0.36789 0.88809 0.70231 0.0
H1488 H 0.39992 0.75473 0.68793 0.0
H1489 H 0.41197 0.76499 0.72512 0.0
H1490 H 0.35972 0.75452 0.66593 0.0
H1491 H 0.34218 0.77774 0.64187 0.0
C1492 C 0.13856 0.34088 0.70168 0.0
C1493 C 0.11343 0.32578 0.6972 0.0
C1494 C 0.09592 0.3412 0.7491 0.0
C1495 C 0.12238 0.3535 0.75463 0.0
N1496 N 0.15972 0.37915 0.72914 0.0
N1497 N 0.06484 0.31922 0.71144 0.0
C1498 C 0.14082 0.35804 0.72864 0.0
C1499 C 0.09092 0.32839 0.71932 0.0
N1500 N 0.16099 0.33765 0.68161 0.0
N1501 N 0.07577 0.34202 0.77231 0.0
H1502 H 0.06049 0.31077 0.6893 0.0
H1503 H 0.04705 0.32199 0.72553 0.0
H1504 H 0.07777 0.35452 0.79232 0.0
H1505 H 0.05729 0.33065 0.7718 0.0
H1506 H 0.18057 0.34619 0.68619 0.0
H1507 H 0.161 0.32447 0.66211 0.0
H1508 H 0.17248 0.38411 0.70974 0.0
H1509 H 0.1594 0.39426 0.74675 0.0
C1510 C 0.61851 0.13706 0.70628 0.0
C1511 C 0.64027 0.14992 0.6886 0.0
C1512 C 0.64908 0.18192 0.73217 0.0
C1513 C 0.62506 0.17143 0.74812 0.0
N1514 N 0.58574 0.14027 0.75058 0.0
N1515 N 0.67528 0.18562 0.68289 0.0
C1516 C 0.60958 0.1491 0.73544 0.0
C1517 C 0.65541 0.17256 0.7011 0.0
N1518 N 0.60665 0.1133 0.69524 0.0
N1519 N 0.66624 0.20027 0.74717 0.0
H1520 H 0.68118 0.1789 0.66029 0.0
H1521 H 0.68467 0.20418 0.6892 0.0
H1522 H 0.66235 0.20743 0.77013 0.0
H1523 H 0.68561 0.20652 0.73815 0.0
H1524 H 0.59259 0.10136 0.70834 0.0
H1525 H 0.61252 0.10434 0.67366 0.0
H1526 H 0.5718 0.12615 0.74091 0.0
H1527 H 0.57889 0.14837 0.77223 0.0
C1528 C 0.8573 0.33766 0.19918 0.0
C1529 C 0.83117 0.32875 0.18721 0.0
C1530 C 0.82136 0.30288 0.23587 0.0
C1531 C 0.84728 0.31212 0.24804 0.0
N1532 N 0.88819 0.34091 0.24442 0.0
N1533 N 0.78668 0.30576 0.1948 0.0
C1534 C 0.86475 0.33037 0.23062 0.0
C1535 C 0.81262 0.31239 0.20589 0.0
N1536 N 0.87506 0.35263 0.18023 0.0
N1537 N 0.80572 0.28394 0.25244 0.0
H1538 H 0.78028 0.31018 0.1719 0.0
H1539 H 0.77079 0.29715 0.20868 0.0
H1540 H 0.81068 0.27727 0.27513 0.0
H1541 H 0.78863 0.27347 0.24321 0.0
H1542 H 0.89557 0.35745 0.18605 0.0
H1543 H 0.86963 0.35928 0.15766 0.0
H1544 H 0.90075 0.35615 0.23432 0.0
H1545 H 0.89412 0.33564 0.26731 0.0
C1546 C 0.64347 0.80505 0.2119 0.0
C1547 C 0.61584 0.81069 0.20212 0.0
C1548 C 0.60681 0.83697 0.2507 0.0
C1549 C 0.63322 0.82854 0.26196 0.0
N1550 N 0.67525 0.80141 0.25571 0.0
N1551 N 0.5704 0.83054 0.21175 0.0
C1552 C 0.65135 0.81198 0.2431 0.0
C1553 C 0.59726 0.82638 0.22133 0.0
N1554 N 0.66216 0.79288 0.19141 0.0
N1555 N 0.59123 0.85544 0.26787 0.0
H1556 H 0.56323 0.82395 0.18975 0.0
H1557 H 0.55485 0.83919 0.22608 0.0
H1558 H 0.59778 0.86344 0.28951 0.0
H1559 H 0.57297 0.86444 0.25972 0.0
H1560 H 0.68344 0.79117 0.19595 0.0
H1561 H 0.65696 0.78642 0.16866 0.0
H1562 H 0.68756 0.78657 0.24446 0.0
H1563 H 0.68168 0.80561 0.27871 0.0
C1564 C 0.12968 0.68092 0.21724 0.0
C1565 C 0.11396 0.66332 0.23765 0.0
C1566 C 0.11605 0.62638 0.19794 0.0
C1567 C 0.12975 0.64478 0.17675 0.0
N1568 N 0.14762 0.69029 0.16458 0.0
N1569 N 0.08904 0.62078 0.24668 0.0
C1570 C 0.13581 0.67231 0.18587 0.0
C1571 C 0.10639 0.63635 0.22789 0.0
N1572 N 0.14024 0.70526 0.22842 0.0
N1573 N 0.1125 0.59939 0.18948 0.0
H1574 H 0.08146 0.62759 0.26861 0.0
H1575 H 0.08039 0.60207 0.23964 0.0
H1576 H 0.11817 0.59178 0.16717 0.0
H1577 H 0.10552 0.58418 0.20504 0.0
H1578 H 0.15497 0.71716 0.21621 0.0
H1579 H 0.13625 0.71266 0.25116 0.0
H1580 H 0.14873 0.71148 0.16833 0.0
H1581 H 0.15501 0.68451 0.14221 0.0
C1582 C 0.35628 0.1297 0.23512 0.0
C1583 C 0.32767 0.1316 0.2441 0.0
C1584 C 0.31599 0.14665 0.1906 0.0
C1585 C 0.34494 0.14972 0.18377 0.0
N1586 N 0.39305 0.14374 0.19832 0.0
N1587 N 0.28011 0.14396 0.23129 0.0
C1588 C 0.36524 0.14083 0.20559 0.0
C1589 C 0.30732 0.14002 0.2219 0.0
N1590 N 0.37467 0.11691 0.2547 0.0
N1591 N 0.29673 0.15079 0.16746 0.0
H1592 H 0.27257 0.13971 0.25398 0.0
H1593 H 0.26529 0.15361 0.21731 0.0
H1594 H 0.30206 0.15679 0.1445 0.0
H1595 H 0.27561 0.14586 0.17019 0.0
H1596 H 0.39537 0.11272 0.24846 0.0
H1597 H 0.36846 0.10816 0.27624 0.0
H1598 H 0.40894 0.14086 0.21458 0.0
H1599 H 0.40018 0.1502 0.17607 0.0
loop_
_geom_bond_atom_site_label_1
_geom_bond_atom_site_label_2
_geom_bond_distance
_geom_bond_site_symmetry_2
_ccdc_geom_bond_type
C0 O1 1.306 . S
C0 O3 1.160 . S
O1 C0 1.306 . S
O1 Cd2 2.228 . S
Cd2 O1 2.228 . S
Cd2 O6 2.273 . S
Cd2 O10 2.277 . S
O3 C0 1.160 . S
O3 Cd4 2.203 . S
Cd4 O3 2.203 . S
Cd4 O6 2.411 . S
Cd4 O7 2.333 . S
Cd4 O8 2.352 . S
Cd4 O12 2.277 . S
Cd4 O13 2.356 . S
C5 O10 1.209 . S
C5 O12 1.226 . S
O6 Cd2 2.273 . S
O6 Cd4 2.411 . S
O6 C9 1.320 . S
O7 Cd4 2.333 . S
O7 C9 1.214 . S
O8 Cd4 2.352 . S
O8 C11 1.258 . S
C9 O6 1.320 . S
C9 O7 1.214 . S
O10 Cd2 2.277 . S
O10 C5 1.209 . S
C11 O8 1.258 . S
C11 O13 1.282 . S
O12 Cd4 2.277 . S
O12 C5 1.226 . S
O13 Cd4 2.356 . S
O13 C11 1.282 . S
C14 O15 1.306 . S
C14 O17 1.160 . S
O15 C14 1.306 . S
O15 Cd16 2.228 . S
Cd16 O15 2.228 . S
Cd16 O20 2.273 . S
Cd16 O24 2.277 . S
O17 C14 1.160 . S
O17 Cd18 2.203 . S
Cd18 O17 2.203 . S
Cd18 O20 2.411 . S
Cd18 O21 2.333 . S
Cd18 O22 2.352 . S
Cd18 O26 2.277 . S
Cd18 O27 2.356 . S
C19 O24 1.209 . S
C19 O26 1.226 . S
O20 Cd16 2.273 . S
O20 Cd18 2.411 . S
O20 C23 1.320 . S
O21 Cd18 2.333 . S
O21 C23 1.214 . S
O22 Cd18 2.352 . S
O22 C25 1.258 . S
C23 O20 1.320 . S
C23 O21 1.214 . S
O24 Cd16 2.277 . S
O24 C19 1.209 . S
C25 O22 1.258 . S
C25 O27 1.282 . S
O26 Cd18 2.277 . S
O26 C19 1.226 . S
O27 Cd18 2.356 . S
O27 C25 1.282 . S
C28 O29 1.306 . S
C28 O31 1.160 . S
O29 C28 1.306 . S
O29 Cd30 2.228 . S
Cd30 O29 2.228 . S
Cd30 O34 2.273 . S
Cd30 O38 2.277 . S
O31 C28 1.160 . S
O31 Cd32 2.203 . S
Cd32 O31 2.203 . S
Cd32 O34 2.411 . S
Cd32 O35 2.333 . S
Cd32 O36 2.352 . S
Cd32 O40 2.277 . S
Cd32 O41 2.356 . S
C33 O38 1.209 . S
C33 O40 1.226 . S
O34 Cd30 2.273 . S
O34 Cd32 2.411 . S
O34 C37 1.320 . S
O35 Cd32 2.333 . S
O35 C37 1.214 . S
O36 Cd32 2.352 . S
O36 C39 1.258 . S
C37 O34 1.320 . S
C37 O35 1.214 . S
O38 Cd30 2.277 . S
O38 C33 1.209 . S
C39 O36 1.258 . S
C39 O41 1.282 . S
O40 Cd32 2.277 . S
O40 C33 1.226 . S
O41 Cd32 2.356 . S
O41 C39 1.282 . S
C42 O43 1.306 . S
C42 O45 1.160 . S
O43 C42 1.306 . S
O43 Cd44 2.228 . S
Cd44 O43 2.228 . S
Cd44 O48 2.273 . S
Cd44 O52 2.277 . S
O45 C42 1.160 . S
O45 Cd46 2.203 . S
Cd46 O45 2.203 . S
Cd46 O48 2.411 . S
Cd46 O49 2.333 . S
Cd46 O50 2.352 . S
Cd46 O54 2.277 . S
Cd46 O55 2.356 . S
C47 O52 1.209 . S
C47 O54 1.226 . S
O48 Cd44 2.273 . S
O48 Cd46 2.411 . S
O48 C51 1.320 . S
O49 Cd46 2.333 . S
O49 C51 1.214 . S
O50 Cd46 2.352 . S
O50 C53 1.258 . S
C51 O48 1.320 . S
C51 O49 1.214 . S
O52 Cd44 2.277 . S
O52 C47 1.209 . S
C53 O50 1.258 . S
C53 O55 1.282 . S
O54 Cd46 2.277 . S
O54 C47 1.226 . S
O55 Cd46 2.356 . S
O55 C53 1.282 . S
C56 O57 1.306 . S
C56 O59 1.160 . S
O57 C56 1.306 . S
O57 Cd58 2.228 . S
Cd58 O57 2.228 . S
Cd58 O62 2.273 . S
Cd58 O66 2.277 . S
O59 C56 1.160 . S
O59 Cd60 2.203 . S
Cd60 O59 2.203 . S
Cd60 O62 2.411 . S
Cd60 O63 2.333 . S
Cd60 O64 2.352 . S
Cd60 O68 2.277 . S
Cd60 O69 2.356 . S
C61 O66 1.209 . S
C61 O68 1.226 . S
O62 Cd58 2.273 . S
O62 Cd60 2.411 . S
O62 C65 1.320 . S
O63 Cd60 2.333 . S
O63 C65 1.214 . S
O64 Cd60 2.352 . S
O64 C67 1.258 . S
C65 O62 1.320 . S
C65 O63 1.214 . S
O66 Cd58 2.277 . S
O66 C61 1.209 . S
C67 O64 1.258 . S
C67 O69 1.282 . S
O68 Cd60 2.277 . S
O68 C61 1.226 . S
O69 Cd60 2.356 . S
O69 C67 1.282 . S
C70 O71 1.306 . S
C70 O73 1.160 . S
O71 C70 1.306 . S
O71 Cd72 2.228 . S
Cd72 O71 2.228 . S
Cd72 O76 2.273 . S
Cd72 O80 2.277 . S
O73 C70 1.160 . S
O73 Cd74 2.203 . S
Cd74 O73 2.203 . S
Cd74 O76 2.411 . S
Cd74 O77 2.333 . S
Cd74 O78 2.352 . S
Cd74 O82 2.277 . S
Cd74 O83 2.356 . S
C75 O80 1.209 . S
C75 O82 1.226 . S
O76 Cd72 2.273 . S
O76 Cd74 2.411 . S
O76 C79 1.320 . S
O77 Cd74 2.333 . S
O77 C79 1.214 . S
O78 Cd74 2.352 . S
O78 C81 1.258 . S
C79 O76 1.320 . S
C79 O77 1.214 . S
O80 Cd72 2.277 . S
O80 C75 1.209 . S
C81 O78 1.258 . S
C81 O83 1.282 . S
O82 Cd74 2.277 . S
O82 C75 1.226 . S
O83 Cd74 2.356 . S
O83 C81 1.282 . S
C84 O85 1.306 . S
C84 O87 1.160 . S
O85 C84 1.306 . S
O85 Cd86 2.228 . S
Cd86 O85 2.228 . S
Cd86 O90 2.273 . S
Cd86 O94 2.277 . S
O87 C84 1.160 . S
O87 Cd88 2.203 . S
Cd88 O87 2.203 . S
Cd88 O90 2.411 . S
Cd88 O91 2.333 . S
Cd88 O92 2.352 . S
Cd88 O96 2.277 . S
Cd88 O97 2.356 . S
C89 O94 1.209 . S
C89 O96 1.226 . S
O90 Cd86 2.273 . S
O90 Cd88 2.411 . S
O90 C93 1.320 . S
O91 Cd88 2.333 . S
O91 C93 1.214 . S
O92 Cd88 2.352 . S
O92 C95 1.258 . S
C93 O90 1.320 . S
C93 O91 1.214 . S
O94 Cd86 2.277 . S
O94 C89 1.209 . S
C95 O92 1.258 . S
C95 O97 1.282 . S
O96 Cd88 2.277 . S
O96 C89 1.226 . S
O97 Cd88 2.356 . S
O97 C95 1.282 . S
C98 O99 1.306 . S
C98 O101 1.160 . S
O99 C98 1.306 . S
O99 Cd100 2.228 . S
Cd100 O99 2.228 . S
Cd100 O104 2.273 . S
Cd100 O108 2.277 . S
O101 C98 1.160 . S
O101 Cd102 2.203 . S
Cd102 O101 2.203 . S
Cd102 O104 2.411 . S
Cd102 O105 2.333 . S
Cd102 O106 2.352 . S
Cd102 O110 2.277 . S
Cd102 O111 2.356 . S
C103 O108 1.209 . S
C103 O110 1.226 . S
O104 Cd100 2.273 . S
O104 Cd102 2.411 . S
O104 C107 1.320 . S
O105 Cd102 2.333 . S
O105 C107 1.214 . S
O106 Cd102 2.352 . S
O106 C109 1.258 . S
C107 O104 1.320 . S
C107 O105 1.214 . S
O108 Cd100 2.277 . S
O108 C103 1.209 . S
C109 O106 1.258 . S
C109 O111 1.282 . S
O110 Cd102 2.277 . S
O110 C103 1.226 . S
O111 Cd102 2.356 . S
O111 C109 1.282 . S
C112 O113 1.306 . S
C112 O115 1.160 . S
O113 C112 1.306 . S
O113 Cd114 2.228 . S
Cd114 O113 2.228 . S
Cd114 O118 2.273 . S
Cd114 O122 2.277 . S
O115 C112 1.160 . S
O115 Cd116 2.203 . S
Cd116 O115 2.203 . S
Cd116 O118 2.411 . S
Cd116 O119 2.333 . S
Cd116 O120 2.352 . S
Cd116 O124 2.277 . S
Cd116 O125 2.356 . S
C117 O122 1.209 . S
C117 O124 1.226 . S
O118 Cd114 2.273 . S
O118 Cd116 2.411 . S
O118 C121 1.320 . S
O119 Cd116 2.333 . S
O119 C121 1.214 . S
O120 Cd116 2.352 . S
O120 C123 1.258 . S
C121 O118 1.320 . S
C121 O119 1.214 . S
O122 Cd114 2.277 . S
O122 C117 1.209 . S
C123 O120 1.258 . S
C123 O125 1.282 . S
O124 Cd116 2.277 . S
O124 C117 1.226 . S
O125 Cd116 2.356 . S
O125 C123 1.282 . S
C126 O127 1.306 . S
C126 O129 1.160 . S
O127 C126 1.306 . S
O127 Cd128 2.228 . S
Cd128 O127 2.228 . S
Cd128 O132 2.273 . S
Cd128 O136 2.277 . S
O129 C126 1.160 . S
O129 Cd130 2.203 . S
Cd130 O129 2.203 . S
Cd130 O132 2.411 . S
Cd130 O133 2.333 . S
Cd130 O134 2.352 . S
Cd130 O138 2.277 . S
Cd130 O139 2.356 . S
C131 O136 1.209 . S
C131 O138 1.226 . S
O132 Cd128 2.273 . S
O132 Cd130 2.411 . S
O132 C135 1.320 . S
O133 Cd130 2.333 . S
O133 C135 1.214 . S
O134 Cd130 2.352 . S
O134 C137 1.258 . S
C135 O132 1.320 . S
C135 O133 1.214 . S
O136 Cd128 2.277 . S
O136 C131 1.209 . S
C137 O134 1.258 . S
C137 O139 1.282 . S
O138 Cd130 2.277 . S
O138 C131 1.226 . S
O139 Cd130 2.356 . S
O139 C137 1.282 . S
C140 O141 1.306 . S
C140 O143 1.160 . S
O141 C140 1.306 . S
O141 Cd142 2.228 . S
Cd142 O141 2.228 . S
Cd142 O146 2.273 . S
Cd142 O150 2.277 . S
O143 C140 1.160 . S
O143 Cd144 2.203 . S
Cd144 O143 2.203 . S
Cd144 O146 2.411 . S
Cd144 O147 2.333 . S
Cd144 O148 2.352 . S
Cd144 O152 2.277 . S
Cd144 O153 2.356 . S
C145 O150 1.209 . S
C145 O152 1.226 . S
O146 Cd142 2.273 . S
O146 Cd144 2.411 . S
O146 C149 1.320 . S
O147 Cd144 2.333 . S
O147 C149 1.214 . S
O148 Cd144 2.352 . S
O148 C151 1.258 . S
C149 O146 1.320 . S
C149 O147 1.214 . S
O150 Cd142 2.277 . S
O150 C145 1.209 . S
C151 O148 1.258 . S
C151 O153 1.282 . S
O152 Cd144 2.277 . S
O152 C145 1.226 . S
O153 Cd144 2.356 . S
O153 C151 1.282 . S
C154 O155 1.306 . S
C154 O157 1.160 . S
O155 C154 1.306 . S
O155 Cd156 2.228 . S
Cd156 O155 2.228 . S
Cd156 O160 2.273 . S
Cd156 O164 2.277 . S
O157 C154 1.160 . S
O157 Cd158 2.203 . S
Cd158 O157 2.203 . S
Cd158 O160 2.411 . S
Cd158 O161 2.333 . S
Cd158 O162 2.352 . S
Cd158 O166 2.277 . S
Cd158 O167 2.356 . S
C159 O164 1.209 . S
C159 O166 1.226 . S
O160 Cd156 2.273 . S
O160 Cd158 2.411 . S
O160 C163 1.320 . S
O161 Cd158 2.333 . S
O161 C163 1.214 . S
O162 Cd158 2.352 . S
O162 C165 1.258 . S
C163 O160 1.320 . S
C163 O161 1.214 . S
O164 Cd156 2.277 . S
O164 C159 1.209 . S
C165 O162 1.258 . S
C165 O167 1.282 . S
O166 Cd158 2.277 . S
O166 C159 1.226 . S
O167 Cd158 2.356 . S
O167 C165 1.282 . S
C168 O169 1.306 . S
C168 O171 1.160 . S
O169 C168 1.306 . S
O169 Cd170 2.228 . S
Cd170 O169 2.228 . S
Cd170 O174 2.273 . S
Cd170 O178 2.277 . S
O171 C168 1.160 . S
O171 Cd172 2.203 . S
Cd172 O171 2.203 . S
Cd172 O174 2.411 . S
Cd172 O175 2.333 . S
Cd172 O176 2.352 . S
Cd172 O180 2.277 . S
Cd172 O181 2.356 . S
C173 O178 1.209 . S
C173 O180 1.226 . S
O174 Cd170 2.273 . S
O174 Cd172 2.411 . S
O174 C177 1.320 . S
O175 Cd172 2.333 . S
O175 C177 1.214 . S
O176 Cd172 2.352 . S
O176 C179 1.258 . S
C177 O174 1.320 . S
C177 O175 1.214 . S
O178 Cd170 2.277 . S
O178 C173 1.209 . S
C179 O176 1.258 . S
C179 O181 1.282 . S
O180 Cd172 2.277 . S
O180 C173 1.226 . S
O181 Cd172 2.356 . S
O181 C179 1.282 . S
C182 O183 1.306 . S
C182 O185 1.160 . S
O183 C182 1.306 . S
O183 Cd184 2.228 . S
Cd184 O183 2.228 . S
Cd184 O188 2.273 . S
Cd184 O192 2.277 . S
O185 C182 1.160 . S
O185 Cd186 2.203 . S
Cd186 O185 2.203 . S
Cd186 O188 2.411 . S
Cd186 O189 2.333 . S
Cd186 O190 2.352 . S
Cd186 O194 2.277 . S
Cd186 O195 2.356 . S
C187 O192 1.209 . S
C187 O194 1.226 . S
O188 Cd184 2.273 . S
O188 Cd186 2.411 . S
O188 C191 1.320 . S
O189 Cd186 2.333 . S
O189 C191 1.214 . S
O190 Cd186 2.352 . S
O190 C193 1.258 . S
C191 O188 1.320 . S
C191 O189 1.214 . S
O192 Cd184 2.277 . S
O192 C187 1.209 . S
C193 O190 1.258 . S
C193 O195 1.282 . S
O194 Cd186 2.277 . S
O194 C187 1.226 . S
O195 Cd186 2.356 . S
O195 C193 1.282 . S
C196 O197 1.306 . S
C196 O199 1.160 . S
O197 C196 1.306 . S
O197 Cd198 2.228 . S
Cd198 O197 2.228 . S
Cd198 O202 2.273 . S
Cd198 O206 2.277 . S
O199 C196 1.160 . S
O199 Cd200 2.203 . S
Cd200 O199 2.203 . S
Cd200 O202 2.411 . S
Cd200 O203 2.333 . S
Cd200 O204 2.352 . S
Cd200 O208 2.277 . S
Cd200 O209 2.356 . S
C201 O206 1.209 . S
C201 O208 1.226 . S
O202 Cd198 2.273 . S
O202 Cd200 2.411 . S
O202 C205 1.320 . S
O203 Cd200 2.333 . S
O203 C205 1.214 . S
O204 Cd200 2.352 . S
O204 C207 1.258 . S
C205 O202 1.320 . S
C205 O203 1.214 . S
O206 Cd198 2.277 . S
O206 C201 1.209 . S
C207 O204 1.258 . S
C207 O209 1.282 . S
O208 Cd200 2.277 . S
O208 C201 1.226 . S
O209 Cd200 2.356 . S
O209 C207 1.282 . S
C210 O211 1.306 . S
C210 O213 1.160 . S
O211 C210 1.306 . S
O211 Cd212 2.228 . S
Cd212 O211 2.228 . S
Cd212 O216 2.273 . S
Cd212 O220 2.277 . S
O213 C210 1.160 . S
O213 Cd214 2.203 . S
Cd214 O213 2.203 . S
Cd214 O216 2.411 . S
Cd214 O217 2.333 . S
Cd214 O218 2.352 . S
Cd214 O222 2.277 . S
Cd214 O223 2.356 . S
C215 O220 1.209 . S
C215 O222 1.226 . S
O216 Cd212 2.273 . S
O216 Cd214 2.411 . S
O216 C219 1.320 . S
O217 Cd214 2.333 . S
O217 C219 1.214 . S
O218 Cd214 2.352 . S
O218 C221 1.258 . S
C219 O216 1.320 . S
C219 O217 1.214 . S
O220 Cd212 2.277 . S
O220 C215 1.209 . S
C221 O218 1.258 . S
C221 O223 1.282 . S
O222 Cd214 2.277 . S
O222 C215 1.226 . S
O223 Cd214 2.356 . S
O223 C221 1.282 . S
C224 O225 1.306 . S
C224 O227 1.160 . S
O225 C224 1.306 . S
O225 Cd226 2.228 . S
Cd226 O225 2.228 . S
Cd226 O230 2.273 . S
Cd226 O234 2.277 . S
O227 C224 1.160 . S
O227 Cd228 2.203 . S
Cd228 O227 2.203 . S
Cd228 O230 2.411 . S
Cd228 O231 2.333 . S
Cd228 O232 2.352 . S
Cd228 O236 2.277 . S
Cd228 O237 2.356 . S
C229 O234 1.209 . S
C229 O236 1.226 . S
O230 Cd226 2.273 . S
O230 Cd228 2.411 . S
O230 C233 1.320 . S
O231 Cd228 2.333 . S
O231 C233 1.214 . S
O232 Cd228 2.352 . S
O232 C235 1.258 . S
C233 O230 1.320 . S
C233 O231 1.214 . S
O234 Cd226 2.277 . S
O234 C229 1.209 . S
C235 O232 1.258 . S
C235 O237 1.282 . S
O236 Cd228 2.277 . S
O236 C229 1.226 . S
O237 Cd228 2.356 . S
O237 C235 1.282 . S
C238 O239 1.306 . S
C238 O241 1.160 . S
O239 C238 1.306 . S
O239 Cd240 2.228 . S
Cd240 O239 2.228 . S
Cd240 O244 2.273 . S
Cd240 O248 2.277 . S
O241 C238 1.160 . S
O241 Cd242 2.203 . S
Cd242 O241 2.203 . S
Cd242 O244 2.411 . S
Cd242 O245 2.333 . S
Cd242 O246 2.352 . S
Cd242 O250 2.277 . S
Cd242 O251 2.356 . S
C243 O248 1.209 . S
C243 O250 1.226 . S
O244 Cd240 2.273 . S
O244 Cd242 2.411 . S
O244 C247 1.320 . S
O245 Cd242 2.333 . S
O245 C247 1.214 . S
O246 Cd242 2.352 . S
O246 C249 1.258 . S
C247 O244 1.320 . S
C247 O245 1.214 . S
O248 Cd240 2.277 . S
O248 C243 1.209 . S
C249 O246 1.258 . S
C249 O251 1.282 . S
O250 Cd242 2.277 . S
O250 C243 1.226 . S
O251 Cd242 2.356 . S
O251 C249 1.282 . S
C252 O253 1.306 . S
C252 O255 1.160 . S
O253 C252 1.306 . S
O253 Cd254 2.228 . S
Cd254 O253 2.228 . S
Cd254 O258 2.273 . S
Cd254 O262 2.277 . S
O255 C252 1.160 . S
O255 Cd256 2.203 . S
Cd256 O255 2.203 . S
Cd256 O258 2.411 . S
Cd256 O259 2.333 . S
Cd256 O260 2.352 . S
Cd256 O264 2.277 . S
Cd256 O265 2.356 . S
C257 O262 1.209 . S
C257 O264 1.226 . S
O258 Cd254 2.273 . S
O258 Cd256 2.411 . S
O258 C261 1.320 . S
O259 Cd256 2.333 . S
O259 C261 1.214 . S
O260 Cd256 2.352 . S
O260 C263 1.258 . S
C261 O258 1.320 . S
C261 O259 1.214 . S
O262 Cd254 2.277 . S
O262 C257 1.209 . S
C263 O260 1.258 . S
C263 O265 1.282 . S
O264 Cd256 2.277 . S
O264 C257 1.226 . S
O265 Cd256 2.356 . S
O265 C263 1.282 . S
C266 O267 1.306 . S
C266 O269 1.160 . S
O267 C266 1.306 . S
O267 Cd268 2.228 . S
Cd268 O267 2.228 . S
Cd268 O272 2.273 . S
Cd268 O276 2.277 . S
O269 C266 1.160 . S
O269 Cd270 2.203 . S
Cd270 O269 2.203 . S
Cd270 O272 2.411 . S
Cd270 O273 2.333 . S
Cd270 O274 2.352 . S
Cd270 O278 2.277 . S
Cd270 O279 2.356 . S
C271 O276 1.209 . S
C271 O278 1.226 . S
O272 Cd268 2.273 . S
O272 Cd270 2.411 . S
O272 C275 1.320 . S
O273 Cd270 2.333 . S
O273 C275 1.214 . S
O274 Cd270 2.352 . S
O274 C277 1.258 . S
C275 O272 1.320 . S
C275 O273 1.214 . S
O276 Cd268 2.277 . S
O276 C271 1.209 . S
C277 O274 1.258 . S
C277 O279 1.282 . S
O278 Cd270 2.277 . S
O278 C271 1.226 . S
O279 Cd270 2.356 . S
O279 C277 1.282 . S
C280 O281 1.306 . S
C280 O283 1.160 . S
O281 C280 1.306 . S
O281 Cd282 2.228 . S
Cd282 O281 2.228 . S
Cd282 O286 2.273 . S
Cd282 O290 2.277 . S
O283 C280 1.160 . S
O283 Cd284 2.203 . S
Cd284 O283 2.203 . S
Cd284 O286 2.411 . S
Cd284 O287 2.333 . S
Cd284 O288 2.352 . S
Cd284 O292 2.277 . S
Cd284 O293 2.356 . S
C285 O290 1.209 . S
C285 O292 1.226 . S
O286 Cd282 2.273 . S
O286 Cd284 2.411 . S
O286 C289 1.320 . S
O287 Cd284 2.333 . S
O287 C289 1.214 . S
O288 Cd284 2.352 . S
O288 C291 1.258 . S
C289 O286 1.320 . S
C289 O287 1.214 . S
O290 Cd282 2.277 . S
O290 C285 1.209 . S
C291 O288 1.258 . S
C291 O293 1.282 . S
O292 Cd284 2.277 . S
O292 C285 1.226 . S
O293 Cd284 2.356 . S
O293 C291 1.282 . S
C294 O295 1.306 . S
C294 O297 1.160 . S
O295 C294 1.306 . S
O295 Cd296 2.228 . S
Cd296 O295 2.228 . S
Cd296 O300 2.273 . S
Cd296 O304 2.277 . S
O297 C294 1.160 . S
O297 Cd298 2.203 . S
Cd298 O297 2.203 . S
Cd298 O300 2.411 . S
Cd298 O301 2.333 . S
Cd298 O302 2.352 . S
Cd298 O306 2.277 . S
Cd298 O307 2.356 . S
C299 O304 1.209 . S
C299 O306 1.226 . S
O300 Cd296 2.273 . S
O300 Cd298 2.411 . S
O300 C303 1.320 . S
O301 Cd298 2.333 . S
O301 C303 1.214 . S
O302 Cd298 2.352 . S
O302 C305 1.258 . S
C303 O300 1.320 . S
C303 O301 1.214 . S
O304 Cd296 2.277 . S
O304 C299 1.209 . S
C305 O302 1.258 . S
C305 O307 1.282 . S
O306 Cd298 2.277 . S
O306 C299 1.226 . S
O307 Cd298 2.356 . S
O307 C305 1.282 . S
C308 O309 1.306 . S
C308 O311 1.160 . S
O309 C308 1.306 . S
O309 Cd310 2.228 . S
Cd310 O309 2.228 . S
Cd310 O314 2.273 . S
Cd310 O318 2.277 . S
O311 C308 1.160 . S
O311 Cd312 2.203 . S
Cd312 O311 2.203 . S
Cd312 O314 2.411 . S
Cd312 O315 2.333 . S
Cd312 O316 2.352 . S
Cd312 O320 2.277 . S
Cd312 O321 2.356 . S
C313 O318 1.209 . S
C313 O320 1.226 . S
O314 Cd310 2.273 . S
O314 Cd312 2.411 . S
O314 C317 1.320 . S
O315 Cd312 2.333 . S
O315 C317 1.214 . S
O316 Cd312 2.352 . S
O316 C319 1.258 . S
C317 O314 1.320 . S
C317 O315 1.214 . S
O318 Cd310 2.277 . S
O318 C313 1.209 . S
C319 O316 1.258 . S
C319 O321 1.282 . S
O320 Cd312 2.277 . S
O320 C313 1.226 . S
O321 Cd312 2.356 . S
O321 C319 1.282 . S
C322 O323 1.306 . S
C322 O325 1.160 . S
O323 C322 1.306 . S
O323 Cd324 2.228 . S
Cd324 O323 2.228 . S
Cd324 O328 2.273 . S
Cd324 O332 2.277 . S
O325 C322 1.160 . S
O325 Cd326 2.203 . S
Cd326 O325 2.203 . S
Cd326 O328 2.411 . S
Cd326 O329 2.333 . S
Cd326 O330 2.352 . S
Cd326 O334 2.277 . S
Cd326 O335 2.356 . S
C327 O332 1.209 . S
C327 O334 1.226 . S
O328 Cd324 2.273 . S
O328 Cd326 2.411 . S
O328 C331 1.320 . S
O329 Cd326 2.333 . S
O329 C331 1.214 . S
O330 Cd326 2.352 . S
O330 C333 1.258 . S
C331 O328 1.320 . S
C331 O329 1.214 . S
O332 Cd324 2.277 . S
O332 C327 1.209 . S
C333 O330 1.258 . S
C333 O335 1.282 . S
O334 Cd326 2.277 . S
O334 C327 1.226 . S
O335 Cd326 2.356 . S
O335 C333 1.282 . S
C336 O337 1.306 . S
C336 O339 1.160 . S
O337 C336 1.306 . S
O337 Cd338 2.228 . S
Cd338 O337 2.228 . S
Cd338 O342 2.273 . S
Cd338 O346 2.277 . S
O339 C336 1.160 . S
O339 Cd340 2.203 . S
Cd340 O339 2.203 . S
Cd340 O342 2.411 . S
Cd340 O343 2.333 . S
Cd340 O344 2.352 . S
Cd340 O348 2.277 . S
Cd340 O349 2.356 . S
C341 O346 1.209 . S
C341 O348 1.226 . S
O342 Cd338 2.273 . S
O342 Cd340 2.411 . S
O342 C345 1.320 . S
O343 Cd340 2.333 . S
O343 C345 1.214 . S
O344 Cd340 2.352 . S
O344 C347 1.258 . S
C345 O342 1.320 . S
C345 O343 1.214 . S
O346 Cd338 2.277 . S
O346 C341 1.209 . S
C347 O344 1.258 . S
C347 O349 1.282 . S
O348 Cd340 2.277 . S
O348 C341 1.226 . S
O349 Cd340 2.356 . S
O349 C347 1.282 . S
C350 O351 1.306 . S
C350 O353 1.160 . S
O351 C350 1.306 . S
O351 Cd352 2.228 . S
Cd352 O351 2.228 . S
Cd352 O356 2.273 . S
Cd352 O360 2.277 . S
O353 C350 1.160 . S
O353 Cd354 2.203 . S
Cd354 O353 2.203 . S
Cd354 O356 2.411 . S
Cd354 O357 2.333 . S
Cd354 O358 2.352 . S
Cd354 O362 2.277 . S
Cd354 O363 2.356 . S
C355 O360 1.209 . S
C355 O362 1.226 . S
O356 Cd352 2.273 . S
O356 Cd354 2.411 . S
O356 C359 1.320 . S
O357 Cd354 2.333 . S
O357 C359 1.214 . S
O358 Cd354 2.352 . S
O358 C361 1.258 . S
C359 O356 1.320 . S
C359 O357 1.214 . S
O360 Cd352 2.277 . S
O360 C355 1.209 . S
C361 O358 1.258 . S
C361 O363 1.282 . S
O362 Cd354 2.277 . S
O362 C355 1.226 . S
O363 Cd354 2.356 . S
O363 C361 1.282 . S
C364 O365 1.306 . S
C364 O367 1.160 . S
O365 C364 1.306 . S
O365 Cd366 2.228 . S
Cd366 O365 2.228 . S
Cd366 O370 2.273 . S
Cd366 O374 2.277 . S
O367 C364 1.160 . S
O367 Cd368 2.203 . S
Cd368 O367 2.203 . S
Cd368 O370 2.411 . S
Cd368 O371 2.333 . S
Cd368 O372 2.352 . S
Cd368 O376 2.277 . S
Cd368 O377 2.356 . S
C369 O374 1.209 . S
C369 O376 1.226 . S
O370 Cd366 2.273 . S
O370 Cd368 2.411 . S
O370 C373 1.320 . S
O371 Cd368 2.333 . S
O371 C373 1.214 . S
O372 Cd368 2.352 . S
O372 C375 1.258 . S
C373 O370 1.320 . S
C373 O371 1.214 . S
O374 Cd366 2.277 . S
O374 C369 1.209 . S
C375 O372 1.258 . S
C375 O377 1.282 . S
O376 Cd368 2.277 . S
O376 C369 1.226 . S
O377 Cd368 2.356 . S
O377 C375 1.282 . S
C378 O379 1.306 . S
C378 O381 1.160 . S
O379 C378 1.306 . S
O379 Cd380 2.228 . S
Cd380 O379 2.228 . S
Cd380 O384 2.273 . S
Cd380 O388 2.277 . S
O381 C378 1.160 . S
O381 Cd382 2.203 . S
Cd382 O381 2.203 . S
Cd382 O384 2.411 . S
Cd382 O385 2.333 . S
Cd382 O386 2.352 . S
Cd382 O390 2.277 . S
Cd382 O391 2.356 . S
C383 O388 1.209 . S
C383 O390 1.226 . S
O384 Cd380 2.273 . S
O384 Cd382 2.411 . S
O384 C387 1.320 . S
O385 Cd382 2.333 . S
O385 C387 1.214 . S
O386 Cd382 2.352 . S
O386 C389 1.258 . S
C387 O384 1.320 . S
C387 O385 1.214 . S
O388 Cd380 2.277 . S
O388 C383 1.209 . S
C389 O386 1.258 . S
C389 O391 1.282 . S
O390 Cd382 2.277 . S
O390 C383 1.226 . S
O391 Cd382 2.356 . S
O391 C389 1.282 . S
C392 O393 1.306 . S
C392 O395 1.160 . S
O393 C392 1.306 . S
O393 Cd394 2.228 . S
Cd394 O393 2.228 . S
Cd394 O398 2.273 . S
Cd394 O402 2.277 . S
O395 C392 1.160 . S
O395 Cd396 2.203 . S
Cd396 O395 2.203 . S
Cd396 O398 2.411 . S
Cd396 O399 2.333 . S
Cd396 O400 2.352 . S
Cd396 O404 2.277 . S
Cd396 O405 2.356 . S
C397 O402 1.209 . S
C397 O404 1.226 . S
O398 Cd394 2.273 . S
O398 Cd396 2.411 . S
O398 C401 1.320 . S
O399 Cd396 2.333 . S
O399 C401 1.214 . S
O400 Cd396 2.352 . S
O400 C403 1.258 . S
C401 O398 1.320 . S
C401 O399 1.214 . S
O402 Cd394 2.277 . S
O402 C397 1.209 . S
C403 O400 1.258 . S
C403 O405 1.282 . S
O404 Cd396 2.277 . S
O404 C397 1.226 . S
O405 Cd396 2.356 . S
O405 C403 1.282 . S
C406 O407 1.306 . S
C406 O409 1.160 . S
O407 C406 1.306 . S
O407 Cd408 2.228 . S
Cd408 O407 2.228 . S
Cd408 O412 2.273 . S
Cd408 O416 2.277 . S
O409 C406 1.160 . S
O409 Cd410 2.203 . S
Cd410 O409 2.203 . S
Cd410 O412 2.411 . S
Cd410 O413 2.333 . S
Cd410 O414 2.352 . S
Cd410 O418 2.277 . S
Cd410 O419 2.356 . S
C411 O416 1.209 . S
C411 O418 1.226 . S
O412 Cd408 2.273 . S
O412 Cd410 2.411 . S
O412 C415 1.320 . S
O413 Cd410 2.333 . S
O413 C415 1.214 . S
O414 Cd410 2.352 . S
O414 C417 1.258 . S
C415 O412 1.320 . S
C415 O413 1.214 . S
O416 Cd408 2.277 . S
O416 C411 1.209 . S
C417 O414 1.258 . S
C417 O419 1.282 . S
O418 Cd410 2.277 . S
O418 C411 1.226 . S
O419 Cd410 2.356 . S
O419 C417 1.282 . S
C420 O421 1.306 . S
C420 O423 1.160 . S
O421 C420 1.306 . S
O421 Cd422 2.228 . S
Cd422 O421 2.228 . S
Cd422 O426 2.273 . S
Cd422 O430 2.277 . S
O423 C420 1.160 . S
O423 Cd424 2.203 . S
Cd424 O423 2.203 . S
Cd424 O426 2.411 . S
Cd424 O427 2.333 . S
Cd424 O428 2.352 . S
Cd424 O432 2.277 . S
Cd424 O433 2.356 . S
C425 O430 1.209 . S
C425 O432 1.226 . S
O426 Cd422 2.273 . S
O426 Cd424 2.411 . S
O426 C429 1.320 . S
O427 Cd424 2.333 . S
O427 C429 1.214 . S
O428 Cd424 2.352 . S
O428 C431 1.258 . S
C429 O426 1.320 . S
C429 O427 1.214 . S
O430 Cd422 2.277 . S
O430 C425 1.209 . S
C431 O428 1.258 . S
C431 O433 1.282 . S
O432 Cd424 2.277 . S
O432 C425 1.226 . S
O433 Cd424 2.356 . S
O433 C431 1.282 . S
C434 O435 1.306 . S
C434 O437 1.160 . S
O435 C434 1.306 . S
O435 Cd436 2.228 . S
Cd436 O435 2.228 . S
Cd436 O440 2.273 . S
Cd436 O444 2.277 . S
O437 C434 1.160 . S
O437 Cd438 2.203 . S
Cd438 O437 2.203 . S
Cd438 O440 2.411 . S
Cd438 O441 2.333 . S
Cd438 O442 2.352 . S
Cd438 O446 2.277 . S
Cd438 O447 2.356 . S
C439 O444 1.209 . S
C439 O446 1.226 . S
O440 Cd436 2.273 . S
O440 Cd438 2.411 . S
O440 C443 1.320 . S
O441 Cd438 2.333 . S
O441 C443 1.214 . S
O442 Cd438 2.352 . S
O442 C445 1.258 . S
C443 O440 1.320 . S
C443 O441 1.214 . S
O444 Cd436 2.277 . S
O444 C439 1.209 . S
C445 O442 1.258 . S
C445 O447 1.282 . S
O446 Cd438 2.277 . S
O446 C439 1.226 . S
O447 Cd438 2.356 . S
O447 C445 1.282 . S
C448 C449 1.363 . S
C448 C454 1.379 . S
C448 N456 1.356 . S
C449 C448 1.363 . S
C449 C455 1.363 . S
C450 C451 1.363 . S
C450 C455 1.379 . S
C450 N457 1.356 . S
C451 C450 1.363 . S
C451 C454 1.363 . S
N452 C454 1.356 . S
N452 H464 0.984 . S
N452 H465 0.985 . S
N453 C455 1.356 . S
N453 H458 0.984 . S
N453 H459 0.985 . S
C454 C448 1.379 . S
C454 C451 1.363 . S
C454 N452 1.356 . S
C455 C449 1.363 . S
C455 C450 1.379 . S
C455 N453 1.356 . S
N456 C448 1.356 . S
N456 H462 0.984 . S
N456 H463 0.984 . S
N457 C450 1.356 . S
N457 H460 0.984 . S
N457 H461 0.985 . S
H458 N453 0.984 . S
H459 N453 0.985 . S
H460 N457 0.984 . S
H461 N457 0.985 . S
H462 N456 0.984 . S
H463 N456 0.984 . S
H464 N452 0.984 . S
H465 N452 0.985 . S
C466 C467 1.363 . S
C466 C472 1.379 . S
C466 N474 1.356 . S
C467 C466 1.363 . S
C467 C473 1.363 . S
C468 C469 1.363 . S
C468 C473 1.379 . S
C468 N475 1.356 . S
C469 C468 1.363 . S
C469 C472 1.363 . S
N470 C472 1.356 . S
N470 H482 0.984 . S
N470 H483 0.985 . S
N471 C473 1.356 . S
N471 H476 0.984 . S
N471 H477 0.985 . S
C472 C466 1.379 . S
C472 C469 1.363 . S
C472 N470 1.356 . S
C473 C467 1.363 . S
C473 C468 1.379 . S
C473 N471 1.356 . S
N474 C466 1.356 . S
N474 H480 0.984 . S
N474 H481 0.984 . S
N475 C468 1.356 . S
N475 H478 0.984 . S
N475 H479 0.985 . S
H476 N471 0.984 . S
H477 N471 0.985 . S
H478 N475 0.984 . S
H479 N475 0.985 . S
H480 N474 0.984 . S
H481 N474 0.984 . S
H482 N470 0.984 . S
H483 N470 0.985 . S
C484 C485 1.363 . S
C484 C490 1.379 . S
C484 N492 1.356 . S
C485 C484 1.363 . S
C485 C491 1.363 . S
C486 C487 1.363 . S
C486 C491 1.379 . S
C486 N493 1.356 . S
C487 C486 1.363 . S
C487 C490 1.363 . S
N488 C490 1.356 . S
N488 H500 0.984 . S
N488 H501 0.985 . S
N489 C491 1.356 . S
N489 H494 0.984 . S
N489 H495 0.985 . S
C490 C484 1.379 . S
C490 C487 1.363 . S
C490 N488 1.356 . S
C491 C485 1.363 . S
C491 C486 1.379 . S
C491 N489 1.356 . S
N492 C484 1.356 . S
N492 H498 0.984 . S
N492 H499 0.984 . S
N493 C486 1.356 . S
N493 H496 0.984 . S
N493 H497 0.985 . S
H494 N489 0.984 . S
H495 N489 0.985 . S
H496 N493 0.984 . S
H497 N493 0.985 . S
H498 N492 0.984 . S
H499 N492 0.984 . S
H500 N488 0.984 . S
H501 N488 0.985 . S
C502 C503 1.363 . S
C502 C508 1.379 . S
C502 N510 1.356 . S
C503 C502 1.363 . S
C503 C509 1.363 . S
C504 C505 1.363 . S
C504 C509 1.379 . S
C504 N511 1.356 . S
C505 C504 1.363 . S
C505 C508 1.363 . S
N506 C508 1.356 . S
N506 H518 0.984 . S
N506 H519 0.985 . S
N507 C509 1.356 . S
N507 H512 0.984 . S
N507 H513 0.985 . S
C508 C502 1.379 . S
C508 C505 1.363 . S
C508 N506 1.356 . S
C509 C503 1.363 . S
C509 C504 1.379 . S
C509 N507 1.356 . S
N510 C502 1.356 . S
N510 H516 0.984 . S
N510 H517 0.984 . S
N511 C504 1.356 . S
N511 H514 0.984 . S
N511 H515 0.985 . S
H512 N507 0.984 . S
H513 N507 0.985 . S
H514 N511 0.984 . S
H515 N511 0.985 . S
H516 N510 0.984 . S
H517 N510 0.984 . S
H518 N506 0.984 . S
H519 N506 0.985 . S
C520 C521 1.363 . S
C520 C526 1.379 . S
C520 N528 1.356 . S
C521 C520 1.363 . S
C521 C527 1.363 . S
C522 C523 1.363 . S
C522 C527 1.379 . S
C522 N529 1.356 . S
C523 C522 1.363 . S
C523 C526 1.363 . S
N524 C526 1.356 . S
N524 H536 0.984 . S
N524 H537 0.985 . S
N525 C527 1.356 . S
N525 H530 0.984 . S
N525 H531 0.985 . S
C526 C520 1.379 . S
C526 C523 1.363 . S
C526 N524 1.356 . S
C527 C521 1.363 . S
C527 C522 1.379 . S
C527 N525 1.356 . S
N528 C520 1.356 . S
N528 H534 0.984 . S
N528 H535 0.984 . S
N529 C522 1.356 . S
N529 H532 0.984 . S
N529 H533 0.985 . S
H530 N525 0.984 . S
H531 N525 0.985 . S
H532 N529 0.984 . S
H533 N529 0.985 . S
H534 N528 0.984 . S
H535 N528 0.984 . S
H536 N524 0.984 . S
H537 N524 0.985 . S
C538 C539 1.363 . S
C538 C544 1.379 . S
C538 N546 1.356 . S
C539 C538 1.363 . S
C539 C545 1.363 . S
C540 C541 1.363 . S
C540 C545 1.379 . S
C540 N547 1.356 . S
C541 C540 1.363 . S
C541 C544 1.363 . S
N542 C544 1.356 . S
N542 H554 0.984 . S
N542 H555 0.985 . S
N543 C545 1.356 . S
N543 H548 0.984 . S
N543 H549 0.985 . S
C544 C538 1.379 . S
C544 C541 1.363 . S
C544 N542 1.356 . S
C545 C539 1.363 . S
C545 C540 1.379 . S
C545 N543 1.356 . S
N546 C538 1.356 . S
N546 H552 0.984 . S
N546 H553 0.984 . S
N547 C540 1.356 . S
N547 H550 0.984 . S
N547 H551 0.985 . S
H548 N543 0.984 . S
H549 N543 0.985 . S
H550 N547 0.984 . S
H551 N547 0.985 . S
H552 N546 0.984 . S
H553 N546 0.984 . S
H554 N542 0.984 . S
H555 N542 0.985 . S
C556 C557 1.363 . S
C556 C562 1.379 . S
C556 N564 1.356 . S
C557 C556 1.363 . S
C557 C563 1.363 . S
C558 C559 1.363 . S
C558 C563 1.379 . S
C558 N565 1.356 . S
C559 C558 1.363 . S
C559 C562 1.363 . S
N560 C562 1.356 . S
N560 H572 0.984 . S
N560 H573 0.985 . S
N561 C563 1.356 . S
N561 H566 0.984 . S
N561 H567 0.985 . S
C562 C556 1.379 . S
C562 C559 1.363 . S
C562 N560 1.356 . S
C563 C557 1.363 . S
C563 C558 1.379 . S
C563 N561 1.356 . S
N564 C556 1.356 . S
N564 H570 0.984 . S
N564 H571 0.984 . S
N565 C558 1.356 . S
N565 H568 0.984 . S
N565 H569 0.985 . S
H566 N561 0.984 . S
H567 N561 0.985 . S
H568 N565 0.984 . S
H569 N565 0.985 . S
H570 N564 0.984 . S
H571 N564 0.984 . S
H572 N560 0.984 . S
H573 N560 0.985 . S
C574 C575 1.363 . S
C574 C580 1.379 . S
C574 N582 1.356 . S
C575 C574 1.363 . S
C575 C581 1.363 . S
C576 C577 1.363 . S
C576 C581 1.379 . S
C576 N583 1.356 . S
C577 C576 1.363 . S
C577 C580 1.363 . S
N578 C580 1.356 . S
N578 H590 0.984 . S
N578 H591 0.985 . S
N579 C581 1.356 . S
N579 H584 0.984 . S
N579 H585 0.985 . S
C580 C574 1.379 . S
C580 C577 1.363 . S
C580 N578 1.356 . S
C581 C575 1.363 . S
C581 C576 1.379 . S
C581 N579 1.356 . S
N582 C574 1.356 . S
N582 H588 0.984 . S
N582 H589 0.984 . S
N583 C576 1.356 . S
N583 H586 0.984 . S
N583 H587 0.985 . S
H584 N579 0.984 . S
H585 N579 0.985 . S
H586 N583 0.984 . S
H587 N583 0.985 . S
H588 N582 0.984 . S
H589 N582 0.984 . S
H590 N578 0.984 . S
H591 N578 0.985 . S
C592 C593 1.363 . S
C592 C598 1.379 . S
C592 N600 1.356 . S
C593 C592 1.363 . S
C593 C599 1.363 . S
C594 C595 1.363 . S
C594 C599 1.379 . S
C594 N601 1.356 . S
C595 C594 1.363 . S
C595 C598 1.363 . S
N596 C598 1.356 . S
N596 H608 0.984 . S
N596 H609 0.985 . S
N597 C599 1.356 . S
N597 H602 0.984 . S
N597 H603 0.985 . S
C598 C592 1.379 . S
C598 C595 1.363 . S
C598 N596 1.356 . S
C599 C593 1.363 . S
C599 C594 1.379 . S
C599 N597 1.356 . S
N600 C592 1.356 . S
N600 H606 0.984 . S
N600 H607 0.984 . S
N601 C594 1.356 . S
N601 H604 0.984 . S
N601 H605 0.985 . S
H602 N597 0.984 . S
H603 N597 0.985 . S
H604 N601 0.984 . S
H605 N601 0.985 . S
H606 N600 0.984 . S
H607 N600 0.984 . S
H608 N596 0.984 . S
H609 N596 0.985 . S
C610 C611 1.363 . S
C610 C616 1.379 . S
C610 N618 1.356 . S
C611 C610 1.363 . S
C611 C617 1.363 . S
C612 C613 1.363 . S
C612 C617 1.379 . S
C612 N619 1.356 . S
C613 C612 1.363 . S
C613 C616 1.363 . S
N614 C616 1.356 . S
N614 H626 0.984 . S
N614 H627 0.985 . S
N615 C617 1.356 . S
N615 H620 0.984 . S
N615 H621 0.985 . S
C616 C610 1.379 . S
C616 C613 1.363 . S
C616 N614 1.356 . S
C617 C611 1.363 . S
C617 C612 1.379 . S
C617 N615 1.356 . S
N618 C610 1.356 . S
N618 H624 0.984 . S
N618 H625 0.984 . S
N619 C612 1.356 . S
N619 H622 0.984 . S
N619 H623 0.985 . S
H620 N615 0.984 . S
H621 N615 0.985 . S
H622 N619 0.984 . S
H623 N619 0.985 . S
H624 N618 0.984 . S
H625 N618 0.984 . S
H626 N614 0.984 . S
H627 N614 0.985 . S
C628 C629 1.363 . S
C628 C634 1.379 . S
C628 N636 1.356 . S
C629 C628 1.363 . S
C629 C635 1.363 . S
C630 C631 1.363 . S
C630 C635 1.379 . S
C630 N637 1.356 . S
C631 C630 1.363 . S
C631 C634 1.363 . S
N632 C634 1.356 . S
N632 H644 0.984 . S
N632 H645 0.985 . S
N633 C635 1.356 . S
N633 H638 0.984 . S
N633 H639 0.985 . S
C634 C628 1.379 . S
C634 C631 1.363 . S
C634 N632 1.356 . S
C635 C629 1.363 . S
C635 C630 1.379 . S
C635 N633 1.356 . S
N636 C628 1.356 . S
N636 H642 0.984 . S
N636 H643 0.984 . S
N637 C630 1.356 . S
N637 H640 0.984 . S
N637 H641 0.985 . S
H638 N633 0.984 . S
H639 N633 0.985 . S
H640 N637 0.984 . S
H641 N637 0.985 . S
H642 N636 0.984 . S
H643 N636 0.984 . S
H644 N632 0.984 . S
H645 N632 0.985 . S
C646 C647 1.363 . S
C646 C652 1.379 . S
C646 N654 1.356 . S
C647 C646 1.363 . S
C647 C653 1.363 . S
C648 C649 1.363 . S
C648 C653 1.379 . S
C648 N655 1.356 . S
C649 C648 1.363 . S
C649 C652 1.363 . S
N650 C652 1.356 . S
N650 H662 0.984 . S
N650 H663 0.985 . S
N651 C653 1.356 . S
N651 H656 0.984 . S
N651 H657 0.985 . S
C652 C646 1.379 . S
C652 C649 1.363 . S
C652 N650 1.356 . S
C653 C647 1.363 . S
C653 C648 1.379 . S
C653 N651 1.356 . S
N654 C646 1.356 . S
N654 H660 0.984 . S
N654 H661 0.984 . S
N655 C648 1.356 . S
N655 H658 0.984 . S
N655 H659 0.985 . S
H656 N651 0.984 . S
H657 N651 0.985 . S
H658 N655 0.984 . S
H659 N655 0.985 . S
H660 N654 0.984 . S
H661 N654 0.984 . S
H662 N650 0.984 . S
H663 N650 0.985 . S
C664 C665 1.363 . S
C664 C670 1.379 . S
C664 N672 1.356 . S
C665 C664 1.363 . S
C665 C671 1.363 . S
C666 C667 1.363 . S
C666 C671 1.379 . S
C666 N673 1.356 . S
C667 C666 1.363 . S
C667 C670 1.363 . S
N668 C670 1.356 . S
N668 H680 0.984 . S
N668 H681 0.985 . S
N669 C671 1.356 . S
N669 H674 0.984 . S
N669 H675 0.985 . S
C670 C664 1.379 . S
C670 C667 1.363 . S
C670 N668 1.356 . S
C671 C665 1.363 . S
C671 C666 1.379 . S
C671 N669 1.356 . S
N672 C664 1.356 . S
N672 H678 0.984 . S
N672 H679 0.984 . S
N673 C666 1.356 . S
N673 H676 0.984 . S
N673 H677 0.985 . S
H674 N669 0.984 . S
H675 N669 0.985 . S
H676 N673 0.984 . S
H677 N673 0.985 . S
H678 N672 0.984 . S
H679 N672 0.984 . S
H680 N668 0.984 . S
H681 N668 0.985 . S
C682 C683 1.363 . S
C682 C688 1.379 . S
C682 N690 1.356 . S
C683 C682 1.363 . S
C683 C689 1.363 . S
C684 C685 1.363 . S
C684 C689 1.379 . S
C684 N691 1.356 . S
C685 C684 1.363 . S
C685 C688 1.363 . S
N686 C688 1.356 . S
N686 H698 0.984 . S
N686 H699 0.985 . S
N687 C689 1.356 . S
N687 H692 0.984 . S
N687 H693 0.985 . S
C688 C682 1.379 . S
C688 C685 1.363 . S
C688 N686 1.356 . S
C689 C683 1.363 . S
C689 C684 1.379 . S
C689 N687 1.356 . S
N690 C682 1.356 . S
N690 H696 0.984 . S
N690 H697 0.984 . S
N691 C684 1.356 . S
N691 H694 0.984 . S
N691 H695 0.985 . S
H692 N687 0.984 . S
H693 N687 0.985 . S
H694 N691 0.984 . S
H695 N691 0.985 . S
H696 N690 0.984 . S
H697 N690 0.984 . S
H698 N686 0.984 . S
H699 N686 0.985 . S
C700 C701 1.363 . S
C700 C706 1.379 . S
C700 N708 1.356 . S
C701 C700 1.363 . S
C701 C707 1.363 . S
C702 C703 1.363 . S
C702 C707 1.379 . S
C702 N709 1.356 . S
C703 C702 1.363 . S
C703 C706 1.363 . S
N704 C706 1.356 . S
N704 H716 0.984 . S
N704 H717 0.985 . S
N705 C707 1.356 . S
N705 H710 0.984 . S
N705 H711 0.985 . S
C706 C700 1.379 . S
C706 C703 1.363 . S
C706 N704 1.356 . S
C707 C701 1.363 . S
C707 C702 1.379 . S
C707 N705 1.356 . S
N708 C700 1.356 . S
N708 H714 0.984 . S
N708 H715 0.984 . S
N709 C702 1.356 . S
N709 H712 0.984 . S
N709 H713 0.985 . S
H710 N705 0.984 . S
H711 N705 0.985 . S
H712 N709 0.984 . S
H713 N709 0.985 . S
H714 N708 0.984 . S
H715 N708 0.984 . S
H716 N704 0.984 . S
H717 N704 0.985 . S
C718 C719 1.363 . S
C718 C724 1.379 . S
C718 N726 1.356 . S
C719 C718 1.363 . S
C719 C725 1.363 . S
C720 C721 1.363 . S
C720 C725 1.379 . S
C720 N727 1.356 . S
C721 C720 1.363 . S
C721 C724 1.363 . S
N722 C724 1.356 . S
N722 H734 0.984 . S
N722 H735 0.985 . S
N723 C725 1.356 . S
N723 H728 0.984 . S
N723 H729 0.985 . S
C724 C718 1.379 . S
C724 C721 1.363 . S
C724 N722 1.356 . S
C725 C719 1.363 . S
C725 C720 1.379 . S
C725 N723 1.356 . S
N726 C718 1.356 . S
N726 H732 0.984 . S
N726 H733 0.984 . S
N727 C720 1.356 . S
N727 H730 0.984 . S
N727 H731 0.985 . S
H728 N723 0.984 . S
H729 N723 0.985 . S
H730 N727 0.984 . S
H731 N727 0.985 . S
H732 N726 0.984 . S
H733 N726 0.984 . S
H734 N722 0.984 . S
H735 N722 0.985 . S
C736 C737 1.363 . S
C736 C742 1.379 1_655 S
C736 N744 1.356 . S
C737 C736 1.363 . S
C737 C743 1.363 . S
C738 C739 1.363 . S
C738 C743 1.379 1_455 S
C738 N745 1.356 . S
C739 C738 1.363 . S
C739 C742 1.363 . S
N740 C742 1.356 . S
N740 H752 0.984 . S
N740 H753 0.985 . S
N741 C743 1.356 . S
N741 H746 0.984 . S
N741 H747 0.985 . S
C742 C736 1.379 1_455 S
C742 C739 1.363 . S
C742 N740 1.356 . S
C743 C737 1.363 . S
C743 C738 1.379 1_655 S
C743 N741 1.356 . S
N744 C736 1.356 . S
N744 H750 0.984 . S
N744 H751 0.984 . S
N745 C738 1.356 . S
N745 H748 0.984 . S
N745 H749 0.985 . S
H746 N741 0.984 . S
H747 N741 0.985 . S
H748 N745 0.984 . S
H749 N745 0.985 . S
H750 N744 0.984 . S
H751 N744 0.984 . S
H752 N740 0.984 . S
H753 N740 0.985 . S
C754 C755 1.363 . S
C754 C760 1.379 1_545 S
C754 N762 1.356 . S
C755 C754 1.363 . S
C755 C761 1.363 . S
C756 C757 1.363 . S
C756 C761 1.379 1_565 S
C756 N763 1.356 . S
C757 C756 1.363 . S
C757 C760 1.363 . S
N758 C760 1.356 . S
N758 H770 0.984 . S
N758 H771 0.985 . S
N759 C761 1.356 . S
N759 H764 0.984 . S
N759 H765 0.985 . S
C760 C754 1.379 1_565 S
C760 C757 1.363 . S
C760 N758 1.356 . S
C761 C755 1.363 . S
C761 C756 1.379 1_545 S
C761 N759 1.356 . S
N762 C754 1.356 . S
N762 H768 0.984 . S
N762 H769 0.984 . S
N763 C756 1.356 . S
N763 H766 0.984 . S
N763 H767 0.985 . S
H764 N759 0.984 . S
H765 N759 0.985 . S
H766 N763 0.984 . S
H767 N763 0.985 . S
H768 N762 0.984 . S
H769 N762 0.984 . S
H770 N758 0.984 . S
H771 N758 0.985 . S
C772 C773 1.363 . S
C772 C778 1.379 1_455 S
C772 N780 1.356 . S
C773 C772 1.363 . S
C773 C779 1.363 . S
C774 C775 1.363 . S
C774 C779 1.379 1_655 S
C774 N781 1.356 . S
C775 C774 1.363 . S
C775 C778 1.363 . S
N776 C778 1.356 . S
N776 H788 0.984 . S
N776 H789 0.985 . S
N777 C779 1.356 . S
N777 H782 0.984 . S
N777 H783 0.985 . S
C778 C772 1.379 1_655 S
C778 C775 1.363 . S
C778 N776 1.356 . S
C779 C773 1.363 . S
C779 C774 1.379 1_455 S
C779 N777 1.356 . S
N780 C772 1.356 . S
N780 H786 0.984 . S
N780 H787 0.984 . S
N781 C774 1.356 . S
N781 H784 0.984 . S
N781 H785 0.985 . S
H782 N777 0.984 . S
H783 N777 0.985 . S
H784 N781 0.984 . S
H785 N781 0.985 . S
H786 N780 0.984 . S
H787 N780 0.984 . S
H788 N776 0.984 . S
H789 N776 0.985 . S
C790 C791 1.363 . S
C790 C796 1.379 1_565 S
C790 N798 1.356 . S
C791 C790 1.363 . S
C791 C797 1.363 . S
C792 C793 1.363 . S
C792 C797 1.379 1_545 S
C792 N799 1.356 . S
C793 C792 1.363 . S
C793 C796 1.363 . S
N794 C796 1.356 . S
N794 H806 0.984 . S
N794 H807 0.985 . S
N795 C797 1.356 . S
N795 H800 0.984 . S
N795 H801 0.985 . S
C796 C790 1.379 1_545 S
C796 C793 1.363 . S
C796 N794 1.356 . S
C797 C791 1.363 . S
C797 C792 1.379 1_565 S
C797 N795 1.356 . S
N798 C790 1.356 . S
N798 H804 0.984 . S
N798 H805 0.984 . S
N799 C792 1.356 . S
N799 H802 0.984 . S
N799 H803 0.985 . S
H800 N795 0.984 . S
H801 N795 0.985 . S
H802 N799 0.984 . S
H803 N799 0.985 . S
H804 N798 0.984 . S
H805 N798 0.984 . S
H806 N794 0.984 . S
H807 N794 0.985 . S
C808 C809 1.363 . S
C808 C814 1.379 1_455 S
C808 N816 1.356 . S
C809 C808 1.363 . S
C809 C815 1.363 . S
C810 C811 1.363 . S
C810 C815 1.379 1_655 S
C810 N817 1.356 . S
C811 C810 1.363 . S
C811 C814 1.363 . S
N812 C814 1.356 . S
N812 H824 0.984 . S
N812 H825 0.985 . S
N813 C815 1.356 . S
N813 H818 0.984 . S
N813 H819 0.985 . S
C814 C808 1.379 1_655 S
C814 C811 1.363 . S
C814 N812 1.356 . S
C815 C809 1.363 . S
C815 C810 1.379 1_455 S
C815 N813 1.356 . S
N816 C808 1.356 . S
N816 H822 0.984 . S
N816 H823 0.984 . S
N817 C810 1.356 . S
N817 H820 0.984 . S
N817 H821 0.985 . S
H818 N813 0.984 . S
H819 N813 0.985 . S
H820 N817 0.984 . S
H821 N817 0.985 . S
H822 N816 0.984 . S
H823 N816 0.984 . S
H824 N812 0.984 . S
H825 N812 0.985 . S
C826 C827 1.363 . S
C826 C832 1.379 1_565 S
C826 N834 1.356 . S
C827 C826 1.363 . S
C827 C833 1.363 . S
C828 C829 1.363 . S
C828 C833 1.379 1_545 S
C828 N835 1.356 . S
C829 C828 1.363 . S
C829 C832 1.363 . S
N830 C832 1.356 . S
N830 H842 0.984 . S
N830 H843 0.985 . S
N831 C833 1.356 . S
N831 H836 0.984 . S
N831 H837 0.985 . S
C832 C826 1.379 1_545 S
C832 C829 1.363 . S
C832 N830 1.356 . S
C833 C827 1.363 . S
C833 C828 1.379 1_565 S
C833 N831 1.356 . S
N834 C826 1.356 . S
N834 H840 0.984 . S
N834 H841 0.984 . S
N835 C828 1.356 . S
N835 H838 0.984 . S
N835 H839 0.985 . S
H836 N831 0.984 . S
H837 N831 0.985 . S
H838 N835 0.984 . S
H839 N835 0.985 . S
H840 N834 0.984 . S
H841 N834 0.984 . S
H842 N830 0.984 . S
H843 N830 0.985 . S
C844 C845 1.363 . S
C844 C850 1.379 1_455 S
C844 N852 1.356 . S
C845 C844 1.363 . S
C845 C851 1.363 . S
C846 C847 1.363 . S
C846 C851 1.379 1_655 S
C846 N853 1.356 . S
C847 C846 1.363 . S
C847 C850 1.363 . S
N848 C850 1.356 . S
N848 H860 0.984 . S
N848 H861 0.985 . S
N849 C851 1.356 . S
N849 H854 0.984 . S
N849 H855 0.985 . S
C850 C844 1.379 1_655 S
C850 C847 1.363 . S
C850 N848 1.356 . S
C851 C845 1.363 . S
C851 C846 1.379 1_455 S
C851 N849 1.356 . S
N852 C844 1.356 . S
N852 H858 0.984 . S
N852 H859 0.984 . S
N853 C846 1.356 . S
N853 H856 0.984 . S
N853 H857 0.985 . S
H854 N849 0.984 . S
H855 N849 0.985 . S
H856 N853 0.984 . S
H857 N853 0.985 . S
H858 N852 0.984 . S
H859 N852 0.984 . S
H860 N848 0.984 . S
H861 N848 0.985 . S
C862 C863 1.363 . S
C862 C868 1.379 1_545 S
C862 N870 1.356 . S
C863 C862 1.363 . S
C863 C869 1.363 . S
C864 C865 1.363 . S
C864 C869 1.379 1_565 S
C864 N871 1.356 . S
C865 C864 1.363 . S
C865 C868 1.363 . S
N866 C868 1.356 . S
N866 H878 0.984 . S
N866 H879 0.985 . S
N867 C869 1.356 . S
N867 H872 0.984 . S
N867 H873 0.985 . S
C868 C862 1.379 1_565 S
C868 C865 1.363 . S
C868 N866 1.356 . S
C869 C863 1.363 . S
C869 C864 1.379 1_545 S
C869 N867 1.356 . S
N870 C862 1.356 . S
N870 H876 0.984 . S
N870 H877 0.984 . S
N871 C864 1.356 . S
N871 H874 0.984 . S
N871 H875 0.985 . S
H872 N867 0.984 . S
H873 N867 0.985 . S
H874 N871 0.984 . S
H875 N871 0.985 . S
H876 N870 0.984 . S
H877 N870 0.984 . S
H878 N866 0.984 . S
H879 N866 0.985 . S
C880 C881 1.363 . S
C880 C886 1.379 . S
C880 N888 1.356 . S
C881 C880 1.363 . S
C881 C887 1.363 . S
C882 C883 1.363 . S
C882 C887 1.379 . S
C882 N889 1.356 . S
C883 C882 1.363 . S
C883 C886 1.363 . S
N884 C886 1.356 . S
N884 H896 0.984 . S
N884 H897 0.985 . S
N885 C887 1.356 . S
N885 H890 0.984 . S
N885 H891 0.985 . S
C886 C880 1.379 . S
C886 C883 1.363 . S
C886 N884 1.356 . S
C887 C881 1.363 . S
C887 C882 1.379 . S
C887 N885 1.356 . S
N888 C880 1.356 . S
N888 H894 0.984 . S
N888 H895 0.984 . S
N889 C882 1.356 . S
N889 H892 0.984 . S
N889 H893 0.985 . S
H890 N885 0.984 . S
H891 N885 0.985 . S
H892 N889 0.984 . S
H893 N889 0.985 . S
H894 N888 0.984 . S
H895 N888 0.984 . S
H896 N884 0.984 . S
H897 N884 0.985 . S
C898 C899 1.363 . S
C898 C904 1.379 . S
C898 N906 1.356 . S
C899 C898 1.363 . S
C899 C905 1.363 . S
C900 C901 1.363 . S
C900 C905 1.379 . S
C900 N907 1.356 . S
C901 C900 1.363 . S
C901 C904 1.363 . S
N902 C904 1.356 . S
N902 H914 0.984 . S
N902 H915 0.985 . S
N903 C905 1.356 . S
N903 H908 0.984 . S
N903 H909 0.985 . S
C904 C898 1.379 . S
C904 C901 1.363 . S
C904 N902 1.356 . S
C905 C899 1.363 . S
C905 C900 1.379 . S
C905 N903 1.356 . S
N906 C898 1.356 . S
N906 H912 0.984 . S
N906 H913 0.984 . S
N907 C900 1.356 . S
N907 H910 0.984 . S
N907 H911 0.985 . S
H908 N903 0.984 . S
H909 N903 0.985 . S
H910 N907 0.984 . S
H911 N907 0.985 . S
H912 N906 0.984 . S
H913 N906 0.984 . S
H914 N902 0.984 . S
H915 N902 0.985 . S
C916 C917 1.363 . S
C916 C922 1.379 . S
C916 N924 1.356 . S
C917 C916 1.363 . S
C917 C923 1.363 . S
C918 C919 1.363 . S
C918 C923 1.379 . S
C918 N925 1.356 . S
C919 C918 1.363 . S
C919 C922 1.363 . S
N920 C922 1.356 . S
N920 H932 0.984 . S
N920 H933 0.985 . S
N921 C923 1.356 . S
N921 H926 0.984 . S
N921 H927 0.985 . S
C922 C916 1.379 . S
C922 C919 1.363 . S
C922 N920 1.356 . S
C923 C917 1.363 . S
C923 C918 1.379 . S
C923 N921 1.356 . S
N924 C916 1.356 . S
N924 H930 0.984 . S
N924 H931 0.984 . S
N925 C918 1.356 . S
N925 H928 0.984 . S
N925 H929 0.985 . S
H926 N921 0.984 . S
H927 N921 0.985 . S
H928 N925 0.984 . S
H929 N925 0.985 . S
H930 N924 0.984 . S
H931 N924 0.984 . S
H932 N920 0.984 . S
H933 N920 0.985 . S
C934 C935 1.363 . S
C934 C940 1.379 . S
C934 N942 1.356 . S
C935 C934 1.363 . S
C935 C941 1.363 . S
C936 C937 1.363 . S
C936 C941 1.379 . S
C936 N943 1.356 . S
C937 C936 1.363 . S
C937 C940 1.363 . S
N938 C940 1.356 . S
N938 H950 0.984 . S
N938 H951 0.985 . S
N939 C941 1.356 . S
N939 H944 0.984 . S
N939 H945 0.985 . S
C940 C934 1.379 . S
C940 C937 1.363 . S
C940 N938 1.356 . S
C941 C935 1.363 . S
C941 C936 1.379 . S
C941 N939 1.356 . S
N942 C934 1.356 . S
N942 H948 0.984 . S
N942 H949 0.984 . S
N943 C936 1.356 . S
N943 H946 0.984 . S
N943 H947 0.985 . S
H944 N939 0.984 . S
H945 N939 0.985 . S
H946 N943 0.984 . S
H947 N943 0.985 . S
H948 N942 0.984 . S
H949 N942 0.984 . S
H950 N938 0.984 . S
H951 N938 0.985 . S
C952 C953 1.363 . S
C952 C958 1.379 . S
C952 N960 1.356 . S
C953 C952 1.363 . S
C953 C959 1.363 . S
C954 C955 1.363 . S
C954 C959 1.379 . S
C954 N961 1.356 . S
C955 C954 1.363 . S
C955 C958 1.363 . S
N956 C958 1.356 . S
N956 H968 0.984 . S
N956 H969 0.985 . S
N957 C959 1.356 . S
N957 H962 0.984 . S
N957 H963 0.985 . S
C958 C952 1.379 . S
C958 C955 1.363 . S
C958 N956 1.356 . S
C959 C953 1.363 . S
C959 C954 1.379 . S
C959 N957 1.356 . S
N960 C952 1.356 . S
N960 H966 0.984 . S
N960 H967 0.984 . S
N961 C954 1.356 . S
N961 H964 0.984 . S
N961 H965 0.985 . S
H962 N957 0.984 . S
H963 N957 0.985 . S
H964 N961 0.984 . S
H965 N961 0.985 . S
H966 N960 0.984 . S
H967 N960 0.984 . S
H968 N956 0.984 . S
H969 N956 0.985 . S
C970 C971 1.363 . S
C970 C976 1.379 . S
C970 N978 1.356 . S
C971 C970 1.363 . S
C971 C977 1.363 . S
C972 C973 1.363 . S
C972 C977 1.379 . S
C972 N979 1.356 . S
C973 C972 1.363 . S
C973 C976 1.363 . S
N974 C976 1.356 . S
N974 H986 0.984 . S
N974 H987 0.985 . S
N975 C977 1.356 . S
N975 H980 0.984 . S
N975 H981 0.985 . S
C976 C970 1.379 . S
C976 C973 1.363 . S
C976 N974 1.356 . S
C977 C971 1.363 . S
C977 C972 1.379 . S
C977 N975 1.356 . S
N978 C970 1.356 . S
N978 H984 0.984 . S
N978 H985 0.984 . S
N979 C972 1.356 . S
N979 H982 0.984 . S
N979 H983 0.985 . S
H980 N975 0.984 . S
H981 N975 0.985 . S
H982 N979 0.984 . S
H983 N979 0.985 . S
H984 N978 0.984 . S
H985 N978 0.984 . S
H986 N974 0.984 . S
H987 N974 0.985 . S
C988 C989 1.363 . S
C988 C994 1.379 . S
C988 N996 1.356 . S
C989 C988 1.363 . S
C989 C995 1.363 . S
C990 C991 1.363 . S
C990 C995 1.379 . S
C990 N997 1.356 . S
C991 C990 1.363 . S
C991 C994 1.363 . S
N992 C994 1.356 . S
N992 H1004 0.984 . S
N992 H1005 0.985 . S
N993 C995 1.356 . S
N993 H998 0.984 . S
N993 H999 0.985 . S
C994 C988 1.379 . S
C994 C991 1.363 . S
C994 N992 1.356 . S
C995 C989 1.363 . S
C995 C990 1.379 . S
C995 N993 1.356 . S
N996 C988 1.356 . S
N996 H1002 0.984 . S
N996 H1003 0.984 . S
N997 C990 1.356 . S
N997 H1000 0.984 . S
N997 H1001 0.985 . S
H998 N993 0.984 . S
H999 N993 0.985 . S
H1000 N997 0.984 . S
H1001 N997 0.985 . S
H1002 N996 0.984 . S
H1003 N996 0.984 . S
H1004 N992 0.984 . S
H1005 N992 0.985 . S
C1006 C1007 1.363 . S
C1006 C1012 1.379 . S
C1006 N1014 1.356 . S
C1007 C1006 1.363 . S
C1007 C1013 1.363 . S
C1008 C1009 1.363 . S
C1008 C1013 1.379 . S
C1008 N1015 1.356 . S
C1009 C1008 1.363 . S
C1009 C1012 1.363 . S
N1010 C1012 1.356 . S
N1010 H1022 0.984 . S
N1010 H1023 0.985 . S
N1011 C1013 1.356 . S
N1011 H1016 0.984 . S
N1011 H1017 0.985 . S
C1012 C1006 1.379 . S
C1012 C1009 1.363 . S
C1012 N1010 1.356 . S
C1013 C1007 1.363 . S
C1013 C1008 1.379 . S
C1013 N1011 1.356 . S
N1014 C1006 1.356 . S
N1014 H1020 0.984 . S
N1014 H1021 0.984 . S
N1015 C1008 1.356 . S
N1015 H1018 0.984 . S
N1015 H1019 0.985 . S
H1016 N1011 0.984 . S
H1017 N1011 0.985 . S
H1018 N1015 0.984 . S
H1019 N1015 0.985 . S
H1020 N1014 0.984 . S
H1021 N1014 0.984 . S
H1022 N1010 0.984 . S
H1023 N1010 0.985 . S
C1024 C1025 1.363 . S
C1024 C1030 1.379 . S
C1024 N1032 1.356 . S
C1025 C1024 1.363 . S
C1025 C1031 1.363 . S
C1026 C1027 1.363 . S
C1026 C1031 1.379 . S
C1026 N1033 1.356 . S
C1027 C1026 1.363 . S
C1027 C1030 1.363 . S
N1028 C1030 1.356 . S
N1028 H1040 0.984 . S
N1028 H1041 0.985 . S
N1029 C1031 1.356 . S
N1029 H1034 0.984 . S
N1029 H1035 0.985 . S
C1030 C1024 1.379 . S
C1030 C1027 1.363 . S
C1030 N1028 1.356 . S
C1031 C1025 1.363 . S
C1031 C1026 1.379 . S
C1031 N1029 1.356 . S
N1032 C1024 1.356 . S
N1032 H1038 0.984 . S
N1032 H1039 0.984 . S
N1033 C1026 1.356 . S
N1033 H1036 0.984 . S
N1033 H1037 0.985 . S
H1034 N1029 0.984 . S
H1035 N1029 0.985 . S
H1036 N1033 0.984 . S
H1037 N1033 0.985 . S
H1038 N1032 0.984 . S
H1039 N1032 0.984 . S
H1040 N1028 0.984 . S
H1041 N1028 0.985 . S
C1042 C1043 1.363 . S
C1042 C1048 1.379 . S
C1042 N1050 1.356 . S
C1043 C1042 1.363 . S
C1043 C1049 1.363 . S
C1044 C1045 1.363 . S
C1044 C1049 1.379 . S
C1044 N1051 1.356 . S
C1045 C1044 1.363 . S
C1045 C1048 1.363 . S
N1046 C1048 1.356 . S
N1046 H1058 0.984 . S
N1046 H1059 0.985 . S
N1047 C1049 1.356 . S
N1047 H1052 0.984 . S
N1047 H1053 0.985 . S
C1048 C1042 1.379 . S
C1048 C1045 1.363 . S
C1048 N1046 1.356 . S
C1049 C1043 1.363 . S
C1049 C1044 1.379 . S
C1049 N1047 1.356 . S
N1050 C1042 1.356 . S
N1050 H1056 0.984 . S
N1050 H1057 0.984 . S
N1051 C1044 1.356 . S
N1051 H1054 0.984 . S
N1051 H1055 0.985 . S
H1052 N1047 0.984 . S
H1053 N1047 0.985 . S
H1054 N1051 0.984 . S
H1055 N1051 0.985 . S
H1056 N1050 0.984 . S
H1057 N1050 0.984 . S
H1058 N1046 0.984 . S
H1059 N1046 0.985 . S
C1060 C1061 1.363 . S
C1060 C1066 1.379 . S
C1060 N1068 1.356 . S
C1061 C1060 1.363 . S
C1061 C1067 1.363 . S
C1062 C1063 1.363 . S
C1062 C1067 1.379 . S
C1062 N1069 1.356 . S
C1063 C1062 1.363 . S
C1063 C1066 1.363 . S
N1064 C1066 1.356 . S
N1064 H1076 0.984 . S
N1064 H1077 0.985 . S
N1065 C1067 1.356 . S
N1065 H1070 0.984 . S
N1065 H1071 0.985 . S
C1066 C1060 1.379 . S
C1066 C1063 1.363 . S
C1066 N1064 1.356 . S
C1067 C1061 1.363 . S
C1067 C1062 1.379 . S
C1067 N1065 1.356 . S
N1068 C1060 1.356 . S
N1068 H1074 0.984 . S
N1068 H1075 0.984 . S
N1069 C1062 1.356 . S
N1069 H1072 0.984 . S
N1069 H1073 0.985 . S
H1070 N1065 0.984 . S
H1071 N1065 0.985 . S
H1072 N1069 0.984 . S
H1073 N1069 0.985 . S
H1074 N1068 0.984 . S
H1075 N1068 0.984 . S
H1076 N1064 0.984 . S
H1077 N1064 0.985 . S
C1078 C1079 1.363 . S
C1078 C1084 1.379 . S
C1078 N1086 1.356 . S
C1079 C1078 1.363 . S
C1079 C1085 1.363 . S
C1080 C1081 1.363 . S
C1080 C1085 1.379 . S
C1080 N1087 1.356 . S
C1081 C1080 1.363 . S
C1081 C1084 1.363 . S
N1082 C1084 1.356 . S
N1082 H1094 0.984 . S
N1082 H1095 0.985 . S
N1083 C1085 1.356 . S
N1083 H1088 0.984 . S
N1083 H1089 0.985 . S
C1084 C1078 1.379 . S
C1084 C1081 1.363 . S
C1084 N1082 1.356 . S
C1085 C1079 1.363 . S
C1085 C1080 1.379 . S
C1085 N1083 1.356 . S
N1086 C1078 1.356 . S
N1086 H1092 0.984 . S
N1086 H1093 0.984 . S
N1087 C1080 1.356 . S
N1087 H1090 0.984 . S
N1087 H1091 0.985 . S
H1088 N1083 0.984 . S
H1089 N1083 0.985 . S
H1090 N1087 0.984 . S
H1091 N1087 0.985 . S
H1092 N1086 0.984 . S
H1093 N1086 0.984 . S
H1094 N1082 0.984 . S
H1095 N1082 0.985 . S
C1096 C1097 1.363 . S
C1096 C1102 1.379 . S
C1096 N1104 1.356 . S
C1097 C1096 1.363 . S
C1097 C1103 1.363 . S
C1098 C1099 1.363 . S
C1098 C1103 1.379 . S
C1098 N1105 1.356 . S
C1099 C1098 1.363 . S
C1099 C1102 1.363 . S
N1100 C1102 1.356 . S
N1100 H1112 0.984 . S
N1100 H1113 0.985 . S
N1101 C1103 1.356 . S
N1101 H1106 0.984 . S
N1101 H1107 0.985 . S
C1102 C1096 1.379 . S
C1102 C1099 1.363 . S
C1102 N1100 1.356 . S
C1103 C1097 1.363 . S
C1103 C1098 1.379 . S
C1103 N1101 1.356 . S
N1104 C1096 1.356 . S
N1104 H1110 0.984 . S
N1104 H1111 0.984 . S
N1105 C1098 1.356 . S
N1105 H1108 0.984 . S
N1105 H1109 0.985 . S
H1106 N1101 0.984 . S
H1107 N1101 0.985 . S
H1108 N1105 0.984 . S
H1109 N1105 0.985 . S
H1110 N1104 0.984 . S
H1111 N1104 0.984 . S
H1112 N1100 0.984 . S
H1113 N1100 0.985 . S
C1114 C1115 1.363 . S
C1114 C1120 1.379 . S
C1114 N1122 1.356 . S
C1115 C1114 1.363 . S
C1115 C1121 1.363 . S
C1116 C1117 1.363 . S
C1116 C1121 1.379 . S
C1116 N1123 1.356 . S
C1117 C1116 1.363 . S
C1117 C1120 1.363 . S
N1118 C1120 1.356 . S
N1118 H1130 0.984 . S
N1118 H1131 0.985 . S
N1119 C1121 1.356 . S
N1119 H1124 0.984 . S
N1119 H1125 0.985 . S
C1120 C1114 1.379 . S
C1120 C1117 1.363 . S
C1120 N1118 1.356 . S
C1121 C1115 1.363 . S
C1121 C1116 1.379 . S
C1121 N1119 1.356 . S
N1122 C1114 1.356 . S
N1122 H1128 0.984 . S
N1122 H1129 0.984 . S
N1123 C1116 1.356 . S
N1123 H1126 0.984 . S
N1123 H1127 0.985 . S
H1124 N1119 0.984 . S
H1125 N1119 0.985 . S
H1126 N1123 0.984 . S
H1127 N1123 0.985 . S
H1128 N1122 0.984 . S
H1129 N1122 0.984 . S
H1130 N1118 0.984 . S
H1131 N1118 0.985 . S
C1132 C1133 1.363 . S
C1132 C1138 1.379 . S
C1132 N1140 1.356 . S
C1133 C1132 1.363 . S
C1133 C1139 1.363 . S
C1134 C1135 1.363 . S
C1134 C1139 1.379 . S
C1134 N1141 1.356 . S
C1135 C1134 1.363 . S
C1135 C1138 1.363 . S
N1136 C1138 1.356 . S
N1136 H1148 0.984 . S
N1136 H1149 0.985 . S
N1137 C1139 1.356 . S
N1137 H1142 0.984 . S
N1137 H1143 0.985 . S
C1138 C1132 1.379 . S
C1138 C1135 1.363 . S
C1138 N1136 1.356 . S
C1139 C1133 1.363 . S
C1139 C1134 1.379 . S
C1139 N1137 1.356 . S
N1140 C1132 1.356 . S
N1140 H1146 0.984 . S
N1140 H1147 0.984 . S
N1141 C1134 1.356 . S
N1141 H1144 0.984 . S
N1141 H1145 0.985 . S
H1142 N1137 0.984 . S
H1143 N1137 0.985 . S
H1144 N1141 0.984 . S
H1145 N1141 0.985 . S
H1146 N1140 0.984 . S
H1147 N1140 0.984 . S
H1148 N1136 0.984 . S
H1149 N1136 0.985 . S
C1150 C1151 1.363 . S
C1150 C1156 1.379 . S
C1150 N1158 1.356 . S
C1151 C1150 1.363 . S
C1151 C1157 1.363 . S
C1152 C1153 1.363 . S
C1152 C1157 1.379 . S
C1152 N1159 1.356 . S
C1153 C1152 1.363 . S
C1153 C1156 1.363 . S
N1154 C1156 1.356 . S
N1154 H1166 0.984 . S
N1154 H1167 0.985 . S
N1155 C1157 1.356 . S
N1155 H1160 0.984 . S
N1155 H1161 0.985 . S
C1156 C1150 1.379 . S
C1156 C1153 1.363 . S
C1156 N1154 1.356 . S
C1157 C1151 1.363 . S
C1157 C1152 1.379 . S
C1157 N1155 1.356 . S
N1158 C1150 1.356 . S
N1158 H1164 0.984 . S
N1158 H1165 0.984 . S
N1159 C1152 1.356 . S
N1159 H1162 0.984 . S
N1159 H1163 0.985 . S
H1160 N1155 0.984 . S
H1161 N1155 0.985 . S
H1162 N1159 0.984 . S
H1163 N1159 0.985 . S
H1164 N1158 0.984 . S
H1165 N1158 0.984 . S
H1166 N1154 0.984 . S
H1167 N1154 0.985 . S
C1168 C1169 1.363 . S
C1168 C1174 1.379 1_554 S
C1168 N1176 1.356 . S
C1169 C1168 1.363 . S
C1169 C1175 1.363 . S
C1170 C1171 1.363 . S
C1170 C1175 1.379 1_556 S
C1170 N1177 1.356 . S
C1171 C1170 1.363 . S
C1171 C1174 1.363 . S
N1172 C1174 1.356 . S
N1172 H1184 0.984 . S
N1172 H1185 0.985 . S
N1173 C1175 1.356 . S
N1173 H1178 0.984 . S
N1173 H1179 0.985 . S
C1174 C1168 1.379 1_556 S
C1174 C1171 1.363 . S
C1174 N1172 1.356 . S
C1175 C1169 1.363 . S
C1175 C1170 1.379 1_554 S
C1175 N1173 1.356 . S
N1176 C1168 1.356 . S
N1176 H1182 0.984 . S
N1176 H1183 0.984 . S
N1177 C1170 1.356 . S
N1177 H1180 0.984 . S
N1177 H1181 0.985 . S
H1178 N1173 0.984 . S
H1179 N1173 0.985 . S
H1180 N1177 0.984 . S
H1181 N1177 0.985 . S
H1182 N1176 0.984 . S
H1183 N1176 0.984 . S
H1184 N1172 0.984 . S
H1185 N1172 0.985 . S
C1186 C1187 1.363 . S
C1186 C1192 1.379 1_556 S
C1186 N1194 1.356 . S
C1187 C1186 1.363 . S
C1187 C1193 1.363 . S
C1188 C1189 1.363 . S
C1188 C1193 1.379 1_554 S
C1188 N1195 1.356 . S
C1189 C1188 1.363 . S
C1189 C1192 1.363 . S
N1190 C1192 1.356 . S
N1190 H1202 0.984 . S
N1190 H1203 0.985 . S
N1191 C1193 1.356 . S
N1191 H1196 0.984 . S
N1191 H1197 0.985 . S
C1192 C1186 1.379 1_554 S
C1192 C1189 1.363 . S
C1192 N1190 1.356 . S
C1193 C1187 1.363 . S
C1193 C1188 1.379 1_556 S
C1193 N1191 1.356 . S
N1194 C1186 1.356 . S
N1194 H1200 0.984 . S
N1194 H1201 0.984 . S
N1195 C1188 1.356 . S
N1195 H1198 0.984 . S
N1195 H1199 0.985 . S
H1196 N1191 0.984 . S
H1197 N1191 0.985 . S
H1198 N1195 0.984 . S
H1199 N1195 0.985 . S
H1200 N1194 0.984 . S
H1201 N1194 0.984 . S
H1202 N1190 0.984 . S
H1203 N1190 0.985 . S
C1204 C1205 1.363 . S
C1204 C1210 1.379 1_554 S
C1204 N1212 1.356 . S
C1205 C1204 1.363 . S
C1205 C1211 1.363 . S
C1206 C1207 1.363 . S
C1206 C1211 1.379 1_556 S
C1206 N1213 1.356 . S
C1207 C1206 1.363 . S
C1207 C1210 1.363 . S
N1208 C1210 1.356 . S
N1208 H1220 0.984 . S
N1208 H1221 0.985 . S
N1209 C1211 1.356 . S
N1209 H1214 0.984 . S
N1209 H1215 0.985 . S
C1210 C1204 1.379 1_556 S
C1210 C1207 1.363 . S
C1210 N1208 1.356 . S
C1211 C1205 1.363 . S
C1211 C1206 1.379 1_554 S
C1211 N1209 1.356 . S
N1212 C1204 1.356 . S
N1212 H1218 0.984 . S
N1212 H1219 0.984 . S
N1213 C1206 1.356 . S
N1213 H1216 0.984 . S
N1213 H1217 0.985 . S
H1214 N1209 0.984 . S
H1215 N1209 0.985 . S
H1216 N1213 0.984 . S
H1217 N1213 0.985 . S
H1218 N1212 0.984 . S
H1219 N1212 0.984 . S
H1220 N1208 0.984 . S
H1221 N1208 0.985 . S
C1222 C1223 1.363 . S
C1222 C1228 1.379 1_554 S
C1222 N1230 1.356 . S
C1223 C1222 1.363 . S
C1223 C1229 1.363 . S
C1224 C1225 1.363 . S
C1224 C1229 1.379 1_556 S
C1224 N1231 1.356 . S
C1225 C1224 1.363 . S
C1225 C1228 1.363 . S
N1226 C1228 1.356 . S
N1226 H1238 0.984 . S
N1226 H1239 0.985 . S
N1227 C1229 1.356 . S
N1227 H1232 0.984 . S
N1227 H1233 0.985 . S
C1228 C1222 1.379 1_556 S
C1228 C1225 1.363 . S
C1228 N1226 1.356 . S
C1229 C1223 1.363 . S
C1229 C1224 1.379 1_554 S
C1229 N1227 1.356 . S
N1230 C1222 1.356 . S
N1230 H1236 0.984 . S
N1230 H1237 0.984 . S
N1231 C1224 1.356 . S
N1231 H1234 0.984 . S
N1231 H1235 0.985 . S
H1232 N1227 0.984 . S
H1233 N1227 0.985 . S
H1234 N1231 0.984 . S
H1235 N1231 0.985 . S
H1236 N1230 0.984 . S
H1237 N1230 0.984 . S
H1238 N1226 0.984 . S
H1239 N1226 0.985 . S
C1240 C1241 1.363 . S
C1240 C1246 1.379 1_554 S
C1240 N1248 1.356 . S
C1241 C1240 1.363 . S
C1241 C1247 1.363 . S
C1242 C1243 1.363 . S
C1242 C1247 1.379 1_556 S
C1242 N1249 1.356 . S
C1243 C1242 1.363 . S
C1243 C1246 1.363 . S
N1244 C1246 1.356 . S
N1244 H1256 0.984 . S
N1244 H1257 0.985 . S
N1245 C1247 1.356 . S
N1245 H1250 0.984 . S
N1245 H1251 0.985 . S
C1246 C1240 1.379 1_556 S
C1246 C1243 1.363 . S
C1246 N1244 1.356 . S
C1247 C1241 1.363 . S
C1247 C1242 1.379 1_554 S
C1247 N1245 1.356 . S
N1248 C1240 1.356 . S
N1248 H1254 0.984 . S
N1248 H1255 0.984 . S
N1249 C1242 1.356 . S
N1249 H1252 0.984 . S
N1249 H1253 0.985 . S
H1250 N1245 0.984 . S
H1251 N1245 0.985 . S
H1252 N1249 0.984 . S
H1253 N1249 0.985 . S
H1254 N1248 0.984 . S
H1255 N1248 0.984 . S
H1256 N1244 0.984 . S
H1257 N1244 0.985 . S
C1258 C1259 1.363 . S
C1258 C1264 1.379 1_554 S
C1258 N1266 1.356 . S
C1259 C1258 1.363 . S
C1259 C1265 1.363 . S
C1260 C1261 1.363 . S
C1260 C1265 1.379 1_556 S
C1260 N1267 1.356 . S
C1261 C1260 1.363 . S
C1261 C1264 1.363 . S
N1262 C1264 1.356 . S
N1262 H1274 0.984 . S
N1262 H1275 0.985 . S
N1263 C1265 1.356 . S
N1263 H1268 0.984 . S
N1263 H1269 0.985 . S
C1264 C1258 1.379 1_556 S
C1264 C1261 1.363 . S
C1264 N1262 1.356 . S
C1265 C1259 1.363 . S
C1265 C1260 1.379 1_554 S
C1265 N1263 1.356 . S
N1266 C1258 1.356 . S
N1266 H1272 0.984 . S
N1266 H1273 0.984 . S
N1267 C1260 1.356 . S
N1267 H1270 0.984 . S
N1267 H1271 0.985 . S
H1268 N1263 0.984 . S
H1269 N1263 0.985 . S
H1270 N1267 0.984 . S
H1271 N1267 0.985 . S
H1272 N1266 0.984 . S
H1273 N1266 0.984 . S
H1274 N1262 0.984 . S
H1275 N1262 0.985 . S
C1276 C1277 1.363 . S
C1276 C1282 1.379 1_556 S
C1276 N1284 1.356 . S
C1277 C1276 1.363 . S
C1277 C1283 1.363 . S
C1278 C1279 1.363 . S
C1278 C1283 1.379 1_554 S
C1278 N1285 1.356 . S
C1279 C1278 1.363 . S
C1279 C1282 1.363 . S
N1280 C1282 1.356 . S
N1280 H1292 0.984 . S
N1280 H1293 0.985 . S
N1281 C1283 1.356 . S
N1281 H1286 0.984 . S
N1281 H1287 0.985 . S
C1282 C1276 1.379 1_554 S
C1282 C1279 1.363 . S
C1282 N1280 1.356 . S
C1283 C1277 1.363 . S
C1283 C1278 1.379 1_556 S
C1283 N1281 1.356 . S
N1284 C1276 1.356 . S
N1284 H1290 0.984 . S
N1284 H1291 0.984 . S
N1285 C1278 1.356 . S
N1285 H1288 0.984 . S
N1285 H1289 0.985 . S
H1286 N1281 0.984 . S
H1287 N1281 0.985 . S
H1288 N1285 0.984 . S
H1289 N1285 0.985 . S
H1290 N1284 0.984 . S
H1291 N1284 0.984 . S
H1292 N1280 0.984 . S
H1293 N1280 0.985 . S
C1294 C1295 1.363 . S
C1294 C1300 1.379 1_556 S
C1294 N1302 1.356 . S
C1295 C1294 1.363 . S
C1295 C1301 1.363 . S
C1296 C1297 1.363 . S
C1296 C1301 1.379 1_554 S
C1296 N1303 1.356 . S
C1297 C1296 1.363 . S
C1297 C1300 1.363 . S
N1298 C1300 1.356 . S
N1298 H1310 0.984 . S
N1298 H1311 0.985 . S
N1299 C1301 1.356 . S
N1299 H1304 0.984 . S
N1299 H1305 0.985 . S
C1300 C1294 1.379 1_554 S
C1300 C1297 1.363 . S
C1300 N1298 1.356 . S
C1301 C1295 1.363 . S
C1301 C1296 1.379 1_556 S
C1301 N1299 1.356 . S
N1302 C1294 1.356 . S
N1302 H1308 0.984 . S
N1302 H1309 0.984 . S
N1303 C1296 1.356 . S
N1303 H1306 0.984 . S
N1303 H1307 0.985 . S
H1304 N1299 0.984 . S
H1305 N1299 0.985 . S
H1306 N1303 0.984 . S
H1307 N1303 0.985 . S
H1308 N1302 0.984 . S
H1309 N1302 0.984 . S
H1310 N1298 0.984 . S
H1311 N1298 0.985 . S
C1312 C1313 1.363 . S
C1312 C1318 1.379 . S
C1312 N1320 1.356 . S
C1313 C1312 1.363 . S
C1313 C1319 1.363 . S
C1314 C1315 1.363 . S
C1314 C1319 1.379 . S
C1314 N1321 1.356 . S
C1315 C1314 1.363 . S
C1315 C1318 1.363 . S
N1316 C1318 1.356 . S
N1316 H1328 0.984 . S
N1316 H1329 0.985 . S
N1317 C1319 1.356 . S
N1317 H1322 0.984 . S
N1317 H1323 0.985 . S
C1318 C1312 1.379 . S
C1318 C1315 1.363 . S
C1318 N1316 1.356 . S
C1319 C1313 1.363 . S
C1319 C1314 1.379 . S
C1319 N1317 1.356 . S
N1320 C1312 1.356 . S
N1320 H1326 0.984 . S
N1320 H1327 0.984 . S
N1321 C1314 1.356 . S
N1321 H1324 0.984 . S
N1321 H1325 0.985 . S
H1322 N1317 0.984 . S
H1323 N1317 0.985 . S
H1324 N1321 0.984 . S
H1325 N1321 0.985 . S
H1326 N1320 0.984 . S
H1327 N1320 0.984 . S
H1328 N1316 0.984 . S
H1329 N1316 0.985 . S
C1330 C1331 1.363 . S
C1330 C1336 1.379 . S
C1330 N1338 1.356 . S
C1331 C1330 1.363 . S
C1331 C1337 1.363 . S
C1332 C1333 1.363 . S
C1332 C1337 1.379 . S
C1332 N1339 1.356 . S
C1333 C1332 1.363 . S
C1333 C1336 1.363 . S
N1334 C1336 1.356 . S
N1334 H1346 0.984 . S
N1334 H1347 0.985 . S
N1335 C1337 1.356 . S
N1335 H1340 0.984 . S
N1335 H1341 0.985 . S
C1336 C1330 1.379 . S
C1336 C1333 1.363 . S
C1336 N1334 1.356 . S
C1337 C1331 1.363 . S
C1337 C1332 1.379 . S
C1337 N1335 1.356 . S
N1338 C1330 1.356 . S
N1338 H1344 0.984 . S
N1338 H1345 0.984 . S
N1339 C1332 1.356 . S
N1339 H1342 0.984 . S
N1339 H1343 0.985 . S
H1340 N1335 0.984 . S
H1341 N1335 0.985 . S
H1342 N1339 0.984 . S
H1343 N1339 0.985 . S
H1344 N1338 0.984 . S
H1345 N1338 0.984 . S
H1346 N1334 0.984 . S
H1347 N1334 0.985 . S
C1348 C1349 1.363 . S
C1348 C1354 1.379 . S
C1348 N1356 1.356 . S
C1349 C1348 1.363 . S
C1349 C1355 1.363 . S
C1350 C1351 1.363 . S
C1350 C1355 1.379 . S
C1350 N1357 1.356 . S
C1351 C1350 1.363 . S
C1351 C1354 1.363 . S
N1352 C1354 1.356 . S
N1352 H1364 0.984 . S
N1352 H1365 0.985 . S
N1353 C1355 1.356 . S
N1353 H1358 0.984 . S
N1353 H1359 0.985 . S
C1354 C1348 1.379 . S
C1354 C1351 1.363 . S
C1354 N1352 1.356 . S
C1355 C1349 1.363 . S
C1355 C1350 1.379 . S
C1355 N1353 1.356 . S
N1356 C1348 1.356 . S
N1356 H1362 0.984 . S
N1356 H1363 0.984 . S
N1357 C1350 1.356 . S
N1357 H1360 0.984 . S
N1357 H1361 0.985 . S
H1358 N1353 0.984 . S
H1359 N1353 0.985 . S
H1360 N1357 0.984 . S
H1361 N1357 0.985 . S
H1362 N1356 0.984 . S
H1363 N1356 0.984 . S
H1364 N1352 0.984 . S
H1365 N1352 0.985 . S
C1366 C1367 1.363 . S
C1366 C1372 1.379 . S
C1366 N1374 1.356 . S
C1367 C1366 1.363 . S
C1367 C1373 1.363 . S
C1368 C1369 1.363 . S
C1368 C1373 1.379 . S
C1368 N1375 1.356 . S
C1369 C1368 1.363 . S
C1369 C1372 1.363 . S
N1370 C1372 1.356 . S
N1370 H1382 0.984 . S
N1370 H1383 0.985 . S
N1371 C1373 1.356 . S
N1371 H1376 0.984 . S
N1371 H1377 0.985 . S
C1372 C1366 1.379 . S
C1372 C1369 1.363 . S
C1372 N1370 1.356 . S
C1373 C1367 1.363 . S
C1373 C1368 1.379 . S
C1373 N1371 1.356 . S
N1374 C1366 1.356 . S
N1374 H1380 0.984 . S
N1374 H1381 0.984 . S
N1375 C1368 1.356 . S
N1375 H1378 0.984 . S
N1375 H1379 0.985 . S
H1376 N1371 0.984 . S
H1377 N1371 0.985 . S
H1378 N1375 0.984 . S
H1379 N1375 0.985 . S
H1380 N1374 0.984 . S
H1381 N1374 0.984 . S
H1382 N1370 0.984 . S
H1383 N1370 0.985 . S
C1384 C1385 1.363 . S
C1384 C1390 1.379 . S
C1384 N1392 1.356 . S
C1385 C1384 1.363 . S
C1385 C1391 1.363 . S
C1386 C1387 1.363 . S
C1386 C1391 1.379 . S
C1386 N1393 1.356 . S
C1387 C1386 1.363 . S
C1387 C1390 1.363 . S
N1388 C1390 1.356 . S
N1388 H1400 0.984 . S
N1388 H1401 0.985 . S
N1389 C1391 1.356 . S
N1389 H1394 0.984 . S
N1389 H1395 0.985 . S
C1390 C1384 1.379 . S
C1390 C1387 1.363 . S
C1390 N1388 1.356 . S
C1391 C1385 1.363 . S
C1391 C1386 1.379 . S
C1391 N1389 1.356 . S
N1392 C1384 1.356 . S
N1392 H1398 0.984 . S
N1392 H1399 0.984 . S
N1393 C1386 1.356 . S
N1393 H1396 0.984 . S
N1393 H1397 0.985 . S
H1394 N1389 0.984 . S
H1395 N1389 0.985 . S
H1396 N1393 0.984 . S
H1397 N1393 0.985 . S
H1398 N1392 0.984 . S
H1399 N1392 0.984 . S
H1400 N1388 0.984 . S
H1401 N1388 0.985 . S
C1402 C1403 1.363 . S
C1402 C1408 1.379 . S
C1402 N1410 1.356 . S
C1403 C1402 1.363 . S
C1403 C1409 1.363 . S
C1404 C1405 1.363 . S
C1404 C1409 1.379 . S
C1404 N1411 1.356 . S
C1405 C1404 1.363 . S
C1405 C1408 1.363 . S
N1406 C1408 1.356 . S
N1406 H1418 0.984 . S
N1406 H1419 0.985 . S
N1407 C1409 1.356 . S
N1407 H1412 0.984 . S
N1407 H1413 0.985 . S
C1408 C1402 1.379 . S
C1408 C1405 1.363 . S
C1408 N1406 1.356 . S
C1409 C1403 1.363 . S
C1409 C1404 1.379 . S
C1409 N1407 1.356 . S
N1410 C1402 1.356 . S
N1410 H1416 0.984 . S
N1410 H1417 0.984 . S
N1411 C1404 1.356 . S
N1411 H1414 0.984 . S
N1411 H1415 0.985 . S
H1412 N1407 0.984 . S
H1413 N1407 0.985 . S
H1414 N1411 0.984 . S
H1415 N1411 0.985 . S
H1416 N1410 0.984 . S
H1417 N1410 0.984 . S
H1418 N1406 0.984 . S
H1419 N1406 0.985 . S
C1420 C1421 1.363 . S
C1420 C1426 1.379 . S
C1420 N1428 1.356 . S
C1421 C1420 1.363 . S
C1421 C1427 1.363 . S
C1422 C1423 1.363 . S
C1422 C1427 1.379 . S
C1422 N1429 1.356 . S
C1423 C1422 1.363 . S
C1423 C1426 1.363 . S
N1424 C1426 1.356 . S
N1424 H1436 0.984 . S
N1424 H1437 0.985 . S
N1425 C1427 1.356 . S
N1425 H1430 0.984 . S
N1425 H1431 0.985 . S
C1426 C1420 1.379 . S
C1426 C1423 1.363 . S
C1426 N1424 1.356 . S
C1427 C1421 1.363 . S
C1427 C1422 1.379 . S
C1427 N1425 1.356 . S
N1428 C1420 1.356 . S
N1428 H1434 0.984 . S
N1428 H1435 0.984 . S
N1429 C1422 1.356 . S
N1429 H1432 0.984 . S
N1429 H1433 0.985 . S
H1430 N1425 0.984 . S
H1431 N1425 0.985 . S
H1432 N1429 0.984 . S
H1433 N1429 0.985 . S
H1434 N1428 0.984 . S
H1435 N1428 0.984 . S
H1436 N1424 0.984 . S
H1437 N1424 0.985 . S
C1438 C1439 1.363 . S
C1438 C1444 1.379 . S
C1438 N1446 1.356 . S
C1439 C1438 1.363 . S
C1439 C1445 1.363 . S
C1440 C1441 1.363 . S
C1440 C1445 1.379 . S
C1440 N1447 1.356 . S
C1441 C1440 1.363 . S
C1441 C1444 1.363 . S
N1442 C1444 1.356 . S
N1442 H1454 0.984 . S
N1442 H1455 0.985 . S
N1443 C1445 1.356 . S
N1443 H1448 0.984 . S
N1443 H1449 0.985 . S
C1444 C1438 1.379 . S
C1444 C1441 1.363 . S
C1444 N1442 1.356 . S
C1445 C1439 1.363 . S
C1445 C1440 1.379 . S
C1445 N1443 1.356 . S
N1446 C1438 1.356 . S
N1446 H1452 0.984 . S
N1446 H1453 0.984 . S
N1447 C1440 1.356 . S
N1447 H1450 0.984 . S
N1447 H1451 0.985 . S
H1448 N1443 0.984 . S
H1449 N1443 0.985 . S
H1450 N1447 0.984 . S
H1451 N1447 0.985 . S
H1452 N1446 0.984 . S
H1453 N1446 0.984 . S
H1454 N1442 0.984 . S
H1455 N1442 0.985 . S
C1456 C1457 1.363 . S
C1456 C1462 1.379 . S
C1456 N1464 1.356 . S
C1457 C1456 1.363 . S
C1457 C1463 1.363 . S
C1458 C1459 1.363 . S
C1458 C1463 1.379 . S
C1458 N1465 1.356 . S
C1459 C1458 1.363 . S
C1459 C1462 1.363 . S
N1460 C1462 1.356 . S
N1460 H1472 0.984 . S
N1460 H1473 0.985 . S
N1461 C1463 1.356 . S
N1461 H1466 0.984 . S
N1461 H1467 0.985 . S
C1462 C1456 1.379 . S
C1462 C1459 1.363 . S
C1462 N1460 1.356 . S
C1463 C1457 1.363 . S
C1463 C1458 1.379 . S
C1463 N1461 1.356 . S
N1464 C1456 1.356 . S
N1464 H1470 0.984 . S
N1464 H1471 0.984 . S
N1465 C1458 1.356 . S
N1465 H1468 0.984 . S
N1465 H1469 0.985 . S
H1466 N1461 0.984 . S
H1467 N1461 0.985 . S
H1468 N1465 0.984 . S
H1469 N1465 0.985 . S
H1470 N1464 0.984 . S
H1471 N1464 0.984 . S
H1472 N1460 0.984 . S
H1473 N1460 0.985 . S
C1474 C1475 1.363 . S
C1474 C1480 1.379 . S
C1474 N1482 1.356 . S
C1475 C1474 1.363 . S
C1475 C1481 1.363 . S
C1476 C1477 1.363 . S
C1476 C1481 1.379 . S
C1476 N1483 1.356 . S
C1477 C1476 1.363 . S
C1477 C1480 1.363 . S
N1478 C1480 1.356 . S
N1478 H1490 0.984 . S
N1478 H1491 0.985 . S
N1479 C1481 1.356 . S
N1479 H1484 0.984 . S
N1479 H1485 0.985 . S
C1480 C1474 1.379 . S
C1480 C1477 1.363 . S
C1480 N1478 1.356 . S
C1481 C1475 1.363 . S
C1481 C1476 1.379 . S
C1481 N1479 1.356 . S
N1482 C1474 1.356 . S
N1482 H1488 0.984 . S
N1482 H1489 0.984 . S
N1483 C1476 1.356 . S
N1483 H1486 0.984 . S
N1483 H1487 0.985 . S
H1484 N1479 0.984 . S
H1485 N1479 0.985 . S
H1486 N1483 0.984 . S
H1487 N1483 0.985 . S
H1488 N1482 0.984 . S
H1489 N1482 0.984 . S
H1490 N1478 0.984 . S
H1491 N1478 0.985 . S
C1492 C1493 1.363 . S
C1492 C1498 1.379 . S
C1492 N1500 1.356 . S
C1493 C1492 1.363 . S
C1493 C1499 1.363 . S
C1494 C1495 1.363 . S
C1494 C1499 1.379 . S
C1494 N1501 1.356 . S
C1495 C1494 1.363 . S
C1495 C1498 1.363 . S
N1496 C1498 1.356 . S
N1496 H1508 0.984 . S
N1496 H1509 0.985 . S
N1497 C1499 1.356 . S
N1497 H1502 0.984 . S
N1497 H1503 0.985 . S
C1498 C1492 1.379 . S
C1498 C1495 1.363 . S
C1498 N1496 1.356 . S
C1499 C1493 1.363 . S
C1499 C1494 1.379 . S
C1499 N1497 1.356 . S
N1500 C1492 1.356 . S
N1500 H1506 0.984 . S
N1500 H1507 0.984 . S
N1501 C1494 1.356 . S
N1501 H1504 0.984 . S
N1501 H1505 0.985 . S
H1502 N1497 0.984 . S
H1503 N1497 0.985 . S
H1504 N1501 0.984 . S
H1505 N1501 0.985 . S
H1506 N1500 0.984 . S
H1507 N1500 0.984 . S
H1508 N1496 0.984 . S
H1509 N1496 0.985 . S
C1510 C1511 1.363 . S
C1510 C1516 1.379 . S
C1510 N1518 1.356 . S
C1511 C1510 1.363 . S
C1511 C1517 1.363 . S
C1512 C1513 1.363 . S
C1512 C1517 1.379 . S
C1512 N1519 1.356 . S
C1513 C1512 1.363 . S
C1513 C1516 1.363 . S
N1514 C1516 1.356 . S
N1514 H1526 0.984 . S
N1514 H1527 0.985 . S
N1515 C1517 1.356 . S
N1515 H1520 0.984 . S
N1515 H1521 0.985 . S
C1516 C1510 1.379 . S
C1516 C1513 1.363 . S
C1516 N1514 1.356 . S
C1517 C1511 1.363 . S
C1517 C1512 1.379 . S
C1517 N1515 1.356 . S
N1518 C1510 1.356 . S
N1518 H1524 0.984 . S
N1518 H1525 0.984 . S
N1519 C1512 1.356 . S
N1519 H1522 0.984 . S
N1519 H1523 0.985 . S
H1520 N1515 0.984 . S
H1521 N1515 0.985 . S
H1522 N1519 0.984 . S
H1523 N1519 0.985 . S
H1524 N1518 0.984 . S
H1525 N1518 0.984 . S
H1526 N1514 0.984 . S
H1527 N1514 0.985 . S
C1528 C1529 1.363 . S
C1528 C1534 1.379 . S
C1528 N1536 1.356 . S
C1529 C1528 1.363 . S
C1529 C1535 1.363 . S
C1530 C1531 1.363 . S
C1530 C1535 1.379 . S
C1530 N1537 1.356 . S
C1531 C1530 1.363 . S
C1531 C1534 1.363 . S
N1532 C1534 1.356 . S
N1532 H1544 0.984 . S
N1532 H1545 0.985 . S
N1533 C1535 1.356 . S
N1533 H1538 0.984 . S
N1533 H1539 0.985 . S
C1534 C1528 1.379 . S
C1534 C1531 1.363 . S
C1534 N1532 1.356 . S
C1535 C1529 1.363 . S
C1535 C1530 1.379 . S
C1535 N1533 1.356 . S
N1536 C1528 1.356 . S
N1536 H1542 0.984 . S
N1536 H1543 0.984 . S
N1537 C1530 1.356 . S
N1537 H1540 0.984 . S
N1537 H1541 0.985 . S
H1538 N1533 0.984 . S
H1539 N1533 0.985 . S
H1540 N1537 0.984 . S
H1541 N1537 0.985 . S
H1542 N1536 0.984 . S
H1543 N1536 0.984 . S
H1544 N1532 0.984 . S
H1545 N1532 0.985 . S
C1546 C1547 1.363 . S
C1546 C1552 1.379 . S
C1546 N1554 1.356 . S
C1547 C1546 1.363 . S
C1547 C1553 1.363 . S
C1548 C1549 1.363 . S
C1548 C1553 1.379 . S
C1548 N1555 1.356 . S
C1549 C1548 1.363 . S
C1549 C1552 1.363 . S
N1550 C1552 1.356 . S
N1550 H1562 0.984 . S
N1550 H1563 0.985 . S
N1551 C1553 1.356 . S
N1551 H1556 0.984 . S
N1551 H1557 0.985 . S
C1552 C1546 1.379 . S
C1552 C1549 1.363 . S
C1552 N1550 1.356 . S
C1553 C1547 1.363 . S
C1553 C1548 1.379 . S
C1553 N1551 1.356 . S
N1554 C1546 1.356 . S
N1554 H1560 0.984 . S
N1554 H1561 0.984 . S
N1555 C1548 1.356 . S
N1555 H1558 0.984 . S
N1555 H1559 0.985 . S
H1556 N1551 0.984 . S
H1557 N1551 0.985 . S
H1558 N1555 0.984 . S
H1559 N1555 0.985 . S
H1560 N1554 0.984 . S
H1561 N1554 0.984 . S
H1562 N1550 0.984 . S
H1563 N1550 0.985 . S
C1564 C1565 1.363 . S
C1564 C1570 1.379 . S
C1564 N1572 1.356 . S
C1565 C1564 1.363 . S
C1565 C1571 1.363 . S
C1566 C1567 1.363 . S
C1566 C1571 1.379 . S
C1566 N1573 1.356 . S
C1567 C1566 1.363 . S
C1567 C1570 1.363 . S
N1568 C1570 1.356 . S
N1568 H1580 0.984 . S
N1568 H1581 0.985 . S
N1569 C1571 1.356 . S
N1569 H1574 0.984 . S
N1569 H1575 0.985 . S
C1570 C1564 1.379 . S
C1570 C1567 1.363 . S
C1570 N1568 1.356 . S
C1571 C1565 1.363 . S
C1571 C1566 1.379 . S
C1571 N1569 1.356 . S
N1572 C1564 1.356 . S
N1572 H1578 0.984 . S
N1572 H1579 0.984 . S
N1573 C1566 1.356 . S
N1573 H1576 0.984 . S
N1573 H1577 0.985 . S
H1574 N1569 0.984 . S
H1575 N1569 0.985 . S
H1576 N1573 0.984 . S
H1577 N1573 0.985 . S
H1578 N1572 0.984 . S
H1579 N1572 0.984 . S
H1580 N1568 0.984 . S
H1581 N1568 0.985 . S
C1582 C1583 1.363 . S
C1582 C1588 1.379 . S
C1582 N1590 1.356 . S
C1583 C1582 1.363 . S
C1583 C1589 1.363 . S
C1584 C1585 1.363 . S
C1584 C1589 1.379 . S
C1584 N1591 1.356 . S
C1585 C1584 1.363 . S
C1585 C1588 1.363 . S
N1586 C1588 1.356 . S
N1586 H1598 0.984 . S
N1586 H1599 0.985 . S
N1587 C1589 1.356 . S
N1587 H1592 0.984 . S
N1587 H1593 0.985 . S
C1588 C1582 1.379 . S
C1588 C1585 1.363 . S
C1588 N1586 1.356 . S
C1589 C1583 1.363 . S
C1589 C1584 1.379 . S
C1589 N1587 1.356 . S
N1590 C1582 1.356 . S
N1590 H1596 0.984 . S
N1590 H1597 0.984 . S
N1591 C1584 1.356 . S
N1591 H1594 0.984 . S
N1591 H1595 0.985 . S
H1592 N1587 0.984 . S
H1593 N1587 0.985 . S
H1594 N1591 0.984 . S
H1595 N1591 0.985 . S
H1596 N1590 0.984 . S
H1597 N1590 0.984 . S
H1598 N1586 0.984 . S
H1599 N1586 0.985 . S
C449 C215 1.466 . S
C451 C5 1.465 . S
C467 C19 1.479 . S
C469 C177 1.473 . S
C485 C33 1.465 . S
C487 C187 1.466 . S
C503 C205 1.473 . S
C505 C47 1.479 . S
C521 C61 1.465 . S
C523 C131 1.466 . S
C539 C75 1.479 . S
C541 C149 1.473 . S
C557 C159 1.466 . S
C559 C89 1.465 . S
C575 C121 1.473 . S
C577 C103 1.479 . S
C593 C229 1.465 . S
C595 C439 1.466 . S
C611 C243 1.479 . S
C613 C401 1.473 . S
C629 C257 1.465 . S
C631 C411 1.466 . S
C647 C429 1.473 . S
C649 C271 1.479 . S
C665 C285 1.465 . S
C667 C355 1.466 . S
C683 C299 1.479 . S
C685 C373 1.473 . S
C701 C383 1.466 . S
C703 C313 1.465 . S
C719 C327 1.479 . S
C721 C345 1.473 . S
C737 C168 1.420 . S
C739 C11 1.420 . S
C755 C25 1.427 . S
C757 C193 1.430 . S
C773 C196 1.420 . S
C775 C39 1.420 . S
C791 C53 1.427 . S
C793 C221 1.430 . S
C809 C67 1.420 . S
C811 C112 1.420 . S
C827 C137 1.430 . S
C829 C81 1.427 . S
C845 C140 1.420 . S
C847 C95 1.420 . S
C863 C165 1.430 . S
C865 C109 1.427 . S
C881 C235 1.420 . S
C883 C392 1.420 . S
C899 C417 1.430 . S
C901 C249 1.427 . S
C917 C263 1.420 . S
C919 C420 1.420 . S
C935 C277 1.427 . S
C937 C445 1.430 . S
C953 C336 1.420 . S
C955 C291 1.420 . S
C971 C305 1.427 . S
C973 C361 1.430 . S
C989 C319 1.420 . S
C991 C364 1.420 . S
C1007 C333 1.427 . S
C1009 C389 1.430 . S
C1025 C9 1.368 . S
C1027 C145 1.375 . S
C1043 C163 1.369 . S
C1045 C23 1.365 . S
C1061 C37 1.368 . S
C1063 C117 1.375 . S
C1079 C135 1.369 . S
C1081 C51 1.365 . S
C1097 C201 1.375 . S
C1099 C65 1.368 . S
C1115 C219 1.369 . S
C1117 C79 1.365 . S
C1133 C173 1.375 . S
C1135 C93 1.368 . S
C1151 C107 1.365 . S
C1153 C191 1.369 . S
C1169 C369 1.375 . S
C1171 C233 1.368 . S
C1187 C247 1.365 . S
C1189 C387 1.369 . S
C1205 C341 1.375 . S
C1207 C261 1.368 . S
C1223 C359 1.369 . S
C1225 C275 1.365 . S
C1241 C289 1.368 . S
C1243 C425 1.375 . S
C1259 C303 1.365 . S
C1261 C443 1.369 . S
C1277 C397 1.375 . S
C1279 C317 1.368 . S
C1295 C415 1.369 . S
C1297 C331 1.365 . S
C1313 C322 1.383 . S
C1315 C0 1.384 . S
C1331 C280 1.384 . S
C1333 C14 1.383 . S
C1349 C294 1.383 . S
C1351 C28 1.384 . S
C1367 C308 1.384 . S
C1369 C42 1.383 . S
C1385 C238 1.383 . S
C1387 C56 1.384 . S
C1403 C70 1.383 . S
C1405 C252 1.384 . S
C1421 C84 1.384 . S
C1423 C266 1.383 . S
C1439 C98 1.383 . S
C1441 C224 1.384 . S
C1457 C123 1.287 . S
C1459 C434 1.285 . S
C1475 C403 1.287 . S
C1477 C126 1.285 . S
C1493 C151 1.287 . S
C1495 C406 1.285 . S
C1511 C154 1.285 . S
C1513 C431 1.287 . S
C1529 C350 1.285 . S
C1531 C179 1.287 . S
C1547 C375 1.287 . S
C1549 C182 1.285 . S
C1565 C207 1.287 . S
C1567 C378 1.285 . S
C1583 C210 1.285 . S
C1585 C347 1.287 . S
