# Generated by pormake.
# Topology pts-e, (5)-cn, num edge types: 1
# Building blocks:
#     Node 0, Type 0, BuildingBlock: BEQFEK_clean_sbu_0, # of connection points: 5
#     Node 1, Type 0, BuildingBlock: BEQFEK_clean_sbu_0, # of connection points: 5
#     Node 2, Type 0, BuildingBlock: BEQFEK_clean_sbu_0, # of connection points: 5
#     Node 3, Type 0, BuildingBlock: BEQFEK_clean_sbu_0, # of connection points: 5
#     Node 4, Type 0, BuildingBlock: BEQFEK_clean_sbu_0, # of connection points: 5
#     Node 5, Type 0, BuildingBlock: BEQFEK_clean_sbu_0, # of connection points: 5
#     Node 6, Type 0, BuildingBlock: BEQFEK_clean_sbu_0, # of connection points: 5
#     Node 7, Type 0, BuildingBlock: BEQFEK_clean_sbu_0, # of connection points: 5
#     Edge 8, Type (0, 0), BuildingBlock: XIVTED_clean_linker_0, # of connection points: 2
#     Edge 9, Type (0, 0), BuildingBlock: XIVTED_clean_linker_0, # of connection points: 2
#     Edge 10, Type (0, 0), BuildingBlock: XIVTED_clean_linker_0, # of connection points: 2
#     Edge 11, Type (0, 0), BuildingBlock: XIVTED_clean_linker_0, # of connection points: 2
#     Edge 12, Type (0, 0), BuildingBlock: XIVTED_clean_linker_0, # of connection points: 2
#     Edge 13, Type (0, 0), BuildingBlock: XIVTED_clean_linker_0, # of connection points: 2
#     Edge 14, Type (0, 0), BuildingBlock: XIVTED_clean_linker_0, # of connection points: 2
#     Edge 15, Type (0, 0), BuildingBlock: XIVTED_clean_linker_0, # of connection points: 2
#     Edge 16, Type (0, 0), BuildingBlock: XIVTED_clean_linker_0, # of connection points: 2
#     Edge 17, Type (0, 0), BuildingBlock: XIVTED_clean_linker_0, # of connection points: 2
#     Edge 18, Type (0, 0), BuildingBlock: XIVTED_clean_linker_0, # of connection points: 2
#     Edge 19, Type (0, 0), BuildingBlock: XIVTED_clean_linker_0, # of connection points: 2
#     Edge 20, Type (0, 0), BuildingBlock: XIVTED_clean_linker_0, # of connection points: 2
#     Edge 21, Type (0, 0), BuildingBlock: XIVTED_clean_linker_0, # of connection points: 2
#     Edge 22, Type (0, 0), BuildingBlock: XIVTED_clean_linker_0, # of connection points: 2
#     Edge 23, Type (0, 0), BuildingBlock: XIVTED_clean_linker_0, # of connection points: 2
#     Edge 24, Type (0, 0), BuildingBlock: XIVTED_clean_linker_0, # of connection points: 2
#     Edge 25, Type (0, 0), BuildingBlock: XIVTED_clean_linker_0, # of connection points: 2
#     Edge 26, Type (0, 0), BuildingBlock: XIVTED_clean_linker_0, # of connection points: 2
#     Edge 27, Type (0, 0), BuildingBlock: XIVTED_clean_linker_0, # of connection points: 2
# Relax obj value: 0.378
# Max RMSD: 0.223
# Mean RMSD: 0.223
data_MOF--net-pts-e--node1-BEQFEK_clean_sbu_0--edge1-XIVTED_clean_linker_0
_symmetry_space_group_name_H-M    P1
_symmetry_Int_Tables_number       1
_symmetry_cell_setting            triclinic
loop_
_symmetry_equiv_pos_as_xyz
'x, y, z'
_cell_length_a     36.668336
_cell_length_b     36.56678
_cell_length_c     50.57199
_cell_angle_alpha  90.124174
_cell_angle_beta   89.925714
_cell_angle_gamma 90.140444
loop_
_atom_site_label
_atom_site_type_symbol
_atom_site_fract_x
_atom_site_fract_y
_atom_site_fract_z
_atom_type_partial_charge
Co0 Co 0.19178 0.02631 0.17141 0.0
Co1 Co 0.26734 0.01501 0.19801 0.0
C2 C 0.21956 0.07949 0.21156 0.0
O3 O 0.19552 0.0693 0.19489 0.0
O4 O 0.24897 0.06138 0.21498 0.0
C5 C 0.11934 0.02047 0.16526 0.0
O6 O 0.12339 0.02158 0.19106 0.0
C7 C 0.3454 0.02477 0.21138 0.0
C8 C 0.36039 0.96721 0.21909 0.0
C9 C 0.37458 0.00227 0.21789 0.0
N10 N 0.31561 0.00365 0.20852 0.0
N11 N 0.32474 0.9694 0.21339 0.0
C12 C 0.34517 0.06555 0.20889 0.0
H13 H 0.31777 0.07651 0.21357 0.0
H14 H 0.35184 0.07329 0.18825 0.0
H15 H 0.3657 0.07807 0.22228 0.0
C16 C 0.23542 0.02439 0.12297 0.0
N17 N 0.2325 0.02268 0.14941 0.0
N18 N 0.26468 0.01647 0.15991 0.0
C19 C 0.28925 0.01322 0.14002 0.0
C20 C 0.27147 0.01859 0.11603 0.0
C21 C 0.20368 0.02983 0.10481 0.0
H22 H 0.18418 0.00686 0.10736 0.0
H23 H 0.18931 0.05543 0.11029 0.0
H24 H 0.21215 0.03109 0.08378 0.0
O25 O 0.18555 0.98161 0.19291 0.0
O26 O 0.23808 0.97469 0.21347 0.0
H27 H 0.33214 0.98168 0.15726 0.0
H28 H 0.34262 -0.00049 0.12471 0.0
C29 C 0.32888 0.00536 0.14381 0.0
H30 H 0.34217 0.02938 0.15311 0.0
H31 H 0.30672 0.94732 0.21231 0.0
O32 O 0.14664 0.02727 0.15065 0.0
C33 C 0.20548 0.96462 0.20921 0.0
Co34 Co -0.00553 0.19224 0.66502 0.0
Co35 Co 0.00266 0.26649 0.69462 0.0
C36 C 0.937 0.21927 0.7032 0.0
O37 O 0.94943 0.19571 0.68685 0.0
O38 O 0.95417 0.24903 0.70811 0.0
C39 C 0.96704 0.13092 0.63262 0.0
O40 O 0.93342 0.13968 0.63899 0.0
C41 C -0.00141 0.34486 0.7103 0.0
C42 C 0.05645 0.35377 0.72091 0.0
C43 C 0.02343 0.37156 0.7182 0.0
N44 N 0.01653 0.31297 0.70813 0.0
N45 N 0.05089 0.31847 0.71495 0.0
C46 C 0.95957 0.34989 0.70259 0.0
H47 H 0.94969 0.32598 0.69106 0.0
H48 H 0.95632 0.37533 0.69089 0.0
H49 H 0.94272 0.35242 0.72073 0.0
C50 C 0.00241 0.2393 0.61838 0.0
N51 N 0.00154 0.23465 0.64475 0.0
N52 N 0.00511 0.26653 0.65659 0.0
C53 C 0.00863 0.29262 0.63776 0.0
C54 C 0.00688 0.27606 0.61304 0.0
C55 C -0.00224 0.20913 0.59861 0.0
H56 H 0.01867 0.18781 0.6021 0.0
H57 H 0.97047 0.1965 0.60122 0.0
H58 H 0.00035 0.21917 0.578 0.0
O59 O 0.03639 0.18214 0.68836 0.0
O60 O 0.03954 0.23398 0.71069 0.0
H61 H 0.03359 0.33699 0.65877 0.0
H62 H 0.02155 0.34742 0.62491 0.0
C63 C 0.01302 0.3326 0.64304 0.0
H64 H -0.01339 0.3439 0.64985 0.0
H65 H 0.07102 0.29836 0.71449 0.0
O66 O -0.00652 0.14959 0.64157 0.0
C67 C 0.0506 0.20167 0.70639 0.0
Co68 Co 0.82186 0.98558 0.16338 0.0
Co69 Co 0.74834 0.00155 0.19149 0.0
C70 C 0.79065 0.9349 0.20504 0.0
O71 O 0.81486 0.94438 0.18828 0.0
O72 O 0.76183 0.95391 0.20859 0.0
C73 C 0.87702 0.94394 0.13572 0.0
O74 O 0.86078 0.91461 0.14506 0.0
C75 C 0.67074 0.00319 0.2075 0.0
C76 C 0.6638 0.06279 0.21314 0.0
C77 C 0.64512 0.02988 0.21365 0.0
N78 N 0.70293 0.01985 0.2034 0.0
N79 N 0.69866 0.05535 0.20716 0.0
C80 C 0.66447 0.96318 0.20321 0.0
H81 H 0.68722 0.95111 0.19164 0.0
H82 H 0.63822 0.95852 0.19282 0.0
H83 H 0.66316 0.94929 0.22267 0.0
C84 C 0.77617 -0.00943 0.11586 0.0
N85 N 0.78044 -0.0077 0.14223 0.0
N86 N 0.74887 -0.00077 0.15351 0.0
C87 C 0.72338 0.00267 0.13432 0.0
C88 C 0.73991 -0.00316 0.1099 0.0
C89 C 0.80656 0.98378 0.09667 0.0
H90 H 0.82967 0.0024 0.10114 0.0
H91 H 0.81619 0.95522 0.0989 0.0
H92 H 0.79783 -0.01186 0.07593 0.0
O93 O 0.83503 0.03017 0.18387 0.0
O94 O 0.78311 0.03818 0.20529 0.0
H95 H 0.68131 0.03459 0.1524 0.0
H96 H 0.66926 0.01589 0.12039 0.0
C97 C 0.68395 0.01055 0.13915 0.0
H98 H 0.67121 0.98673 0.14905 0.0
H99 H 0.71934 0.07472 0.20477 0.0
O100 O 0.86416 0.97531 0.14097 0.0
C101 C 0.81599 0.04726 0.20087 0.0
Co102 Co 0.01875 0.82254 0.66358 0.0
Co103 Co 0.00795 0.74857 0.69303 0.0
C104 C 0.07252 0.7973 0.70429 0.0
O105 O 0.06208 0.82042 0.68701 0.0
O106 O 0.05464 0.76782 0.70862 0.0
C107 C 0.04628 0.88577 0.63364 0.0
O108 O 0.07883 0.8802 0.64365 0.0
C109 C 0.0154 0.67129 0.71001 0.0
C110 C 0.95724 0.65765 0.71639 0.0
C111 C -0.0081 0.64277 0.71669 0.0
N112 N -0.00478 0.70128 0.70552 0.0
N113 N 0.9606 0.69299 0.70968 0.0
C114 C 0.05619 0.6708 0.70886 0.0
H115 H 0.06516 0.66326 0.68863 0.0
H116 H 0.06733 0.65058 0.72303 0.0
H117 H 0.06733 0.69829 0.71342 0.0
C118 C 0.01595 0.77467 0.61698 0.0
N119 N 0.01424 0.77977 0.64329 0.0
N120 N 0.00889 0.7482 0.65507 0.0
C121 C 0.00641 0.72185 0.63628 0.0
C122 C 0.01116 0.73788 0.61161 0.0
C123 C 0.02178 0.80469 0.59732 0.0
H124 H -0.00031 0.82517 0.5994 0.0
H125 H 0.04811 0.81852 0.6015 0.0
H126 H 0.02195 0.79432 0.57669 0.0
O127 O 0.97512 0.8319 0.68559 0.0
O128 O 0.96884 0.77998 0.70743 0.0
H129 H 0.97634 0.67886 0.65498 0.0
H130 H -0.0045 0.66659 0.62315 0.0
C131 C 0.0002 0.68216 0.64171 0.0
H132 H 0.02442 0.67083 0.65184 0.0
H133 H 0.93908 0.71129 0.70727 0.0
O134 O 0.02011 0.86474 0.63982 0.0
C135 C 0.95879 0.8125 0.70273 0.0
Co136 Co 0.1882 -0.00309 0.87083 0.0
Co137 Co 0.26298 0.00573 0.84224 0.0
C138 C 0.21383 0.94108 0.83154 0.0
O139 O 0.1904 0.95244 0.84834 0.0
O140 O 0.24354 0.95854 0.8273 0.0
C141 C 0.124 0.97157 0.90064 0.0
O142 O 0.12962 0.93828 0.89172 0.0
C143 C 0.34052 -0.00384 0.8267 0.0
C144 C 0.35499 0.05376 0.8184 0.0
C145 C 0.36942 0.01886 0.81946 0.0
N146 N 0.31075 0.01705 0.83013 0.0
N147 N 0.31957 0.05132 0.82487 0.0
C148 C 0.34046 0.9554 0.82937 0.0
H149 H 0.34819 0.94788 0.84984 0.0
H150 H 0.36027 0.94289 0.81545 0.0
H151 H 0.31284 0.94426 0.82553 0.0
C152 C 0.23442 0.0018 0.91805 0.0
N153 N 0.23024 0.00185 0.89164 0.0
N154 N 0.26211 0.00657 0.88019 0.0
C155 C 0.2877 0.0104 0.8993 0.0
C156 C 0.2709 0.0071 0.92384 0.0
C157 C 0.20377 -0.00242 0.9374 0.0
H158 H 0.18381 0.01993 0.93442 0.0
H159 H 0.18965 0.9712 0.93373 0.0
H160 H 0.21345 -0.00161 0.95817 0.0
O161 O 0.18018 0.03977 0.84778 0.0
O162 O 0.23271 0.04479 0.82661 0.0
H163 H 0.33071 0.04024 0.88046 0.0
H164 H 0.34221 0.0229 0.91293 0.0
C165 C 0.32736 0.01697 0.89429 0.0
H166 H 0.33935 -0.00763 0.88492 0.0
H167 H 0.30153 0.07326 0.82628 0.0
O168 O 0.14535 -0.00275 0.89396 0.0
C169 C 0.20022 0.05532 0.83065 0.0
Co170 Co 0.0105 0.19266 0.36961 0.0
Co171 Co 0.00469 0.26733 0.34042 0.0
C172 C 0.07046 0.21958 0.33381 0.0
O173 O 0.05719 0.1959 0.34968 0.0
O174 O 0.05348 0.24916 0.32851 0.0
C175 C 0.03506 0.13177 0.40292 0.0
O176 O 0.06901 0.1417 0.39861 0.0
C177 C 0.01478 0.34476 0.32408 0.0
C178 C 0.95722 0.35954 0.31672 0.0
C179 C -0.00779 0.37381 0.31721 0.0
N180 N -0.00625 0.31506 0.32796 0.0
N181 N 0.95951 0.32404 0.3232 0.0
C182 C 0.05552 0.34455 0.32594 0.0
H183 H 0.06387 0.35089 0.34651 0.0
H184 H 0.06762 0.36527 0.31251 0.0
H185 H 0.06629 0.31717 0.32079 0.0
C186 C 0.00056 0.23941 0.41639 0.0
N187 N 0.00245 0.23477 0.39003 0.0
N188 N 0.0003 0.26674 0.37828 0.0
C189 C -0.00286 0.29292 0.39713 0.0
C190 C -0.00283 0.2763 0.42181 0.0
C191 C 0.00393 0.20917 0.43614 0.0
H192 H 0.9834 0.18768 0.43178 0.0
H193 H 0.03144 0.19685 0.43448 0.0
H194 H -0.00012 0.21911 0.45668 0.0
O195 O 0.9706 0.18361 0.34433 0.0
O196 O 0.96808 0.23576 0.32234 0.0
H197 H 0.97287 0.33886 0.37795 0.0
H198 H -0.00858 0.34891 0.41032 0.0
C199 C -0.00447 0.33307 0.39181 0.0
H200 H 0.02134 0.34191 0.38236 0.0
H201 H 0.93751 0.30608 0.32506 0.0
O202 O 0.00919 0.14964 0.39256 0.0
C203 C 0.95726 0.20313 0.32603 0.0
Co204 Co 0.81852 0.02156 0.86643 0.0
Co205 Co 0.74504 0.00995 0.83683 0.0
C206 C 0.79116 0.07658 0.82707 0.0
O207 O 0.81462 0.06566 0.84391 0.0
O208 O 0.76209 0.05828 0.82234 0.0
C209 C 0.87924 0.05117 0.89817 0.0
O210 O 0.87048 0.08443 0.89078 0.0
C211 C 0.66692 0.0137 0.82202 0.0
C212 C 0.6577 0.95585 0.81094 0.0
C213 C 0.6401 -0.01102 0.8142 0.0
N214 N 0.69873 -0.00435 0.82356 0.0
N215 N 0.69307 0.96129 0.81648 0.0
C216 C 0.66211 0.05266 0.83034 0.0
H217 H 0.68593 0.06208 0.84208 0.0
H218 H 0.63667 0.05584 0.84204 0.0
H219 H 0.6599 0.07003 0.81246 0.0
C220 C 0.77146 0.01425 0.91308 0.0
N221 N 0.77619 0.01467 0.88671 0.0
N222 N 0.74475 0.00886 0.8749 0.0
C223 C 0.71894 0.00384 0.89378 0.0
C224 C 0.73513 0.00752 0.91847 0.0
C225 C 0.80141 0.01979 0.93279 0.0
H226 H 0.82281 -0.00116 0.92963 0.0
H227 H 0.81386 0.04713 0.92976 0.0
H228 H 0.79134 0.01781 0.95344 0.0
O229 O 0.82939 0.97878 0.84379 0.0
O230 O 0.7779 0.97266 0.82158 0.0
H231 H 0.67749 0.97436 0.87277 0.0
H232 H 0.66584 0.98541 0.90667 0.0
C233 C 0.67972 -0.00464 0.88853 0.0
H234 H 0.66582 0.02051 0.88177 0.0
H235 H 0.71311 0.94109 0.81648 0.0
O236 O 0.8608 0.02408 0.88996 0.0
C237 C 0.81045 0.96289 0.82617 0.0
Co238 Co -0.00768 0.82349 0.36925 0.0
Co239 Co 0.00346 0.75002 0.33926 0.0
C240 C 0.93724 0.79606 0.32961 0.0
O241 O 0.94849 0.81966 0.34637 0.0
O242 O 0.95524 0.76683 0.32487 0.0
C243 C 0.96179 0.88468 0.39972 0.0
O244 O 0.92957 0.87727 0.38971 0.0
C245 C -0.00043 0.672 0.32318 0.0
C246 C 0.05764 0.66275 0.31338 0.0
C247 C 0.02431 0.64519 0.31549 0.0
N248 N 0.01781 0.70374 0.32575 0.0
N249 N 0.05232 0.69807 0.31942 0.0
C250 C 0.96027 0.6672 0.33035 0.0
H251 H 0.95051 0.69086 0.34216 0.0
H252 H 0.95628 0.64145 0.34159 0.0
H253 H 0.94386 0.66548 0.31198 0.0
C254 C -0.00141 0.77587 0.41561 0.0
N255 N -0.00126 0.78083 0.38928 0.0
N256 N 0.00413 0.74934 0.37731 0.0
C257 C 0.00815 0.72318 0.39602 0.0
C258 C 0.00421 0.73919 0.42085 0.0
C259 C -0.00542 0.80616 0.43538 0.0
H260 H 0.01525 0.8276 0.43132 0.0
H261 H 0.96714 0.81855 0.43335 0.0
H262 H -0.00176 0.79651 0.45597 0.0
O263 O 0.03547 0.83468 0.34717 0.0
O264 O 0.04098 0.7833 0.32448 0.0
H265 H 0.03654 0.68074 0.3753 0.0
H266 H 0.02271 0.66861 0.40853 0.0
C267 C 0.01478 0.6836 0.39039 0.0
H268 H -0.01055 0.67116 0.3825 0.0
H269 H 0.07264 0.71806 0.32027 0.0
O270 O -0.0109 0.86544 0.39326 0.0
C271 C 0.05121 0.81577 0.32945 0.0
H272 H 0.29645 0.95951 0.0885 0.0
H273 H 0.29135 0.06801 0.95109 0.0
H274 H 0.27787 0.07532 0.0818 0.0
H275 H 0.28364 0.95089 0.95751 0.0
H276 H 0.30312 0.07178 0.99885 0.0
H277 H 0.30831 0.95668 0.04066 0.0
C278 C 0.29589 0.98446 0.07699 0.0
C279 C 0.28624 0.01768 0.08886 0.0
C280 C 0.29969 0.04518 0.98974 0.0
C281 C 0.29916 0.01474 0.0344 0.0
C282 C 0.29332 0.04306 0.96251 0.0
C283 C 0.28681 0.00911 0.95058 0.0
C284 C 0.29937 0.01306 1.00502 0.0
C285 C 0.28886 0.97752 0.96613 0.0
C286 C 0.30237 0.98285 0.04974 0.0
C287 C 0.28533 0.04924 0.07321 0.0
N288 N 0.29462 0.98025 0.99262 0.0
N289 N 0.29136 0.04697 0.04673 0.0
H290 H 0.05732 0.29689 0.44927 0.0
H291 H 0.94723 0.29763 0.58561 0.0
H292 H 0.94038 0.29032 0.4549 0.0
H293 H 0.06403 0.28923 0.58004 0.0
H294 H 0.94443 0.31029 0.53803 0.0
H295 H 0.06044 0.30939 0.49692 0.0
C296 C 0.03226 0.29932 0.4605 0.0
C297 C -0.00146 0.29302 0.44835 0.0
C298 C 0.97079 0.30656 0.54726 0.0
C299 C 0.00176 0.30614 0.50277 0.0
C300 C 0.97236 0.29968 0.5744 0.0
C301 C 0.00592 0.29283 0.58656 0.0
C302 C 0.00304 0.30611 0.53219 0.0
C303 C 0.03771 0.29485 0.57127 0.0
C304 C 0.03401 0.3061 0.48768 0.0
C305 C 0.96682 0.29551 0.46366 0.0
N306 N 0.03549 0.30092 0.54478 0.0
N307 N 0.9692 0.30149 0.49017 0.0
H308 H 0.73236 0.93824 0.07749 0.0
H309 H 0.71448 0.06344 0.95044 0.0
H310 H 0.71296 0.05416 0.08151 0.0
H311 H 0.72225 0.94611 0.94722 0.0
H312 H 0.70336 0.05986 0.99819 0.0
H313 H 0.71841 0.93925 0.03017 0.0
C314 C 0.72418 0.96374 0.06841 0.0
C315 C 0.72366 -0.00386 0.08321 0.0
C316 C 0.70654 0.03478 0.98702 0.0
C317 C 0.70874 -0.0021 0.02902 0.0
C318 C 0.71257 0.03686 0.95977 0.0
C319 C 0.71883 0.00498 0.94508 0.0
C320 C 0.70753 0.00058 0.99966 0.0
C321 C 0.71707 0.97121 0.95798 0.0
C322 C 0.7164 0.96441 0.0414 0.0
C323 C 0.71339 0.02861 0.07066 0.0
N324 N 0.71209 0.96989 0.98462 0.0
N325 N 0.70688 0.02881 0.04415 0.0
H326 H 0.06131 0.70542 0.44547 0.0
H327 H 0.07059 0.72578 0.58101 0.0
H328 H 0.94903 0.73609 0.4565 0.0
H329 H 0.95377 0.71462 0.58182 0.0
H330 H 0.07092 0.71314 0.53365 0.0
H331 H 0.0653 0.69056 0.49264 0.0
C332 C 0.03733 0.70828 0.45783 0.0
C333 C 0.00492 0.72225 0.44735 0.0
C334 C 0.04522 0.7119 0.5441 0.0
C335 C 0.00951 0.70716 0.50143 0.0
C336 C 0.04513 0.71918 0.57122 0.0
C337 C 0.01216 0.72082 0.58516 0.0
C338 C 0.01191 0.70669 0.53079 0.0
C339 C 0.97974 0.71313 0.57167 0.0
C340 C 0.03971 0.70044 0.48486 0.0
C341 C 0.97457 0.72559 0.46403 0.0
N342 N 0.98035 0.70703 0.54511 0.0
N343 N 0.97772 0.71856 0.49029 0.0
H344 H 0.09362 0.24797 0.28652 0.0
H345 H 0.24018 0.08934 0.26316 0.0
H346 H 0.12198 0.16788 0.34556 0.0
H347 H 0.17647 0.13845 0.20107 0.0
H348 H 0.21268 0.13204 0.29495 0.0
H349 H 0.13985 0.22188 0.25707 0.0
C350 C 0.11018 0.22553 0.29359 0.0
C351 C 0.1035 0.20971 0.31842 0.0
C352 C 0.2054 0.13393 0.27425 0.0
C353 C 0.15641 0.17985 0.28479 0.0
C354 C 0.22126 0.1098 0.25608 0.0
C355 C 0.21026 0.11013 0.2295 0.0
C356 C 0.17887 0.15887 0.26565 0.0
C357 C 0.1854 0.13702 0.22145 0.0
C358 C 0.1364 0.21054 0.27668 0.0
C359 C 0.12584 0.18061 0.32645 0.0
N360 N 0.17032 0.16011 0.23947 0.0
N361 N 0.15104 0.16638 0.30958 0.0
H362 H 0.83625 0.13381 0.83927 0.0
H363 H 0.8829 0.17054 0.69075 0.0
H364 H 0.77012 0.09036 0.77605 0.0
H365 H 0.91857 0.24325 0.75288 0.0
H366 H 0.83808 0.14408 0.72104 0.0
H367 H 0.86323 0.17742 0.80829 0.0
C368 C 0.82681 0.13399 0.81897 0.0
C369 C 0.80109 0.10819 0.81019 0.0
C370 C 0.85515 0.16635 0.72792 0.0
C371 C 0.8326 0.15749 0.77443 0.0
C372 C 0.88079 0.18147 0.71062 0.0
C373 C 0.90478 0.20894 0.71935 0.0
C374 C 0.85402 0.17814 0.75436 0.0
C375 C 0.90069 0.2221 0.7453 0.0
C376 C 0.84225 0.15892 0.80128 0.0
C377 C 0.78985 0.10975 0.78368 0.0
N378 N 0.87638 0.20605 0.76205 0.0
N379 N 0.80626 0.1334 0.7666 0.0
H380 H 0.76928 0.92505 0.25658 0.0
H381 H 0.91875 0.76928 0.28062 0.0
H382 H 0.83354 0.87566 0.19464 0.0
H383 H 0.88322 0.84542 0.34061 0.0
H384 H 0.87342 0.79486 0.2503 0.0
H385 H 0.7966 0.88259 0.28841 0.0
C386 C 0.78827 0.90458 0.24953 0.0
C387 C 0.79946 0.90415 0.22297 0.0
C388 C 0.87513 0.80546 0.27028 0.0
C389 C 0.83088 0.85573 0.25924 0.0
C390 C 0.90085 0.79073 0.28766 0.0
C391 C 0.90518 0.80557 0.3131 0.0
C392 C 0.85332 0.83495 0.27848 0.0
C393 C 0.8812 0.83346 0.32106 0.0
C394 C 0.80408 0.88058 0.26774 0.0
C395 C 0.82444 0.87721 0.21499 0.0
N396 N 0.85658 0.84747 0.30376 0.0
N397 N 0.83955 0.85434 0.23306 0.0
H398 H 0.23908 0.92545 0.78172 0.0
H399 H 0.08594 0.77348 0.75473 0.0
H400 H 0.16411 0.88669 0.84131 0.0
H401 H 0.12782 0.846 0.69466 0.0
H402 H 0.12842 0.80079 0.7866 0.0
H403 H 0.21221 0.8822 0.75011 0.0
C404 C 0.21764 0.90722 0.78838 0.0
C405 C 0.20354 0.91 0.81414 0.0
C406 C 0.12873 0.81018 0.7663 0.0
C407 C 0.17279 0.86051 0.77807 0.0
C408 C 0.10469 0.79446 0.74804 0.0
C409 C 0.10302 0.80776 0.72204 0.0
C410 C 0.15164 0.83901 0.7584 0.0
C411 C 0.12789 0.83517 0.71457 0.0
C412 C 0.20217 0.88274 0.77026 0.0
C413 C 0.17557 0.88576 0.82157 0.0
N414 N 0.15097 0.85006 0.7327 0.0
N415 N 0.16094 0.86224 0.80358 0.0
H416 H 0.91387 0.86984 0.69078 0.0
H417 H 0.86803 0.9181 0.83769 0.0
H418 H 0.94061 0.79454 0.75338 0.0
H419 H 0.7924 0.94508 0.77543 0.0
H420 H 0.89962 0.87658 0.80715 0.0
H421 H 0.87298 0.90225 0.72126 0.0
C422 C 0.91078 0.8599 0.71082 0.0
C423 C 0.93059 0.82949 0.71959 0.0
C424 C 0.87581 0.89129 0.80036 0.0
C425 C 0.88482 0.86684 0.75454 0.0
C426 C 0.8579 0.91502 0.81769 0.0
C427 C 0.8276 0.93502 0.80905 0.0
C428 C 0.86393 0.88842 0.77406 0.0
C429 C 0.81556 0.93002 0.78293 0.0
C430 C 0.88745 0.87831 0.72814 0.0
C431 C 0.92566 0.81775 0.74579 0.0
N432 N 0.83414 0.90767 0.76619 0.0
N433 N 0.90375 0.83685 0.76251 0.0
H434 H 0.14857 0.91971 0.19636 0.0
H435 H 0.09661 0.87287 0.34201 0.0
H436 H 0.22329 0.94503 0.25969 0.0
H437 H 0.07013 0.79784 0.27886 0.0
H438 H 0.13962 0.90407 0.31237 0.0
H439 H 0.11546 0.87847 0.22611 0.0
C440 C 0.15833 0.91612 0.2164 0.0
C441 C 0.18876 0.93568 0.22558 0.0
C442 C 0.12469 0.88047 0.3052 0.0
C443 C 0.15048 0.88955 0.25978 0.0
C444 C 0.10009 0.86279 0.32201 0.0
C445 C 0.07976 0.83279 0.31285 0.0
C446 C 0.12815 0.86867 0.27888 0.0
C447 C 0.08536 0.8208 0.28675 0.0
C448 C 0.13947 0.89262 0.23331 0.0
C449 C 0.20013 0.93023 0.25178 0.0
N450 N 0.10857 0.83917 0.27052 0.0
N451 N 0.18055 0.90817 0.26816 0.0
H452 H 0.06601 0.22149 0.75723 0.0
H453 H 0.22008 0.07195 0.78004 0.0
H454 H 0.09722 0.14482 0.6963 0.0
H455 H 0.14302 0.10119 0.84106 0.0
H456 H 0.1876 0.11188 0.74916 0.0
H457 H 0.10686 0.19027 0.78811 0.0
C458 C 0.0819 0.19847 0.75022 0.0
C459 C 0.0781 0.18554 0.7242 0.0
C460 C 0.1782 0.10983 0.76942 0.0
C461 C 0.12501 0.15025 0.75929 0.0
C462 C 0.19678 0.08733 0.78709 0.0
C463 C 0.18407 0.08317 0.81312 0.0
C464 C 0.14725 0.12891 0.77803 0.0
C465 C 0.15355 0.10348 0.82112 0.0
C466 C 0.10498 0.18064 0.76789 0.0
C467 C 0.09917 0.15547 0.71624 0.0
N468 N 0.13615 0.12555 0.80363 0.0
N469 N 0.12183 0.13883 0.73373 0.0
H470 H 0.79249 0.07127 0.249 0.0
H471 H 0.94996 0.2173 0.27326 0.0
H472 H 0.87834 0.08751 0.19166 0.0
H473 H 0.90712 0.14948 0.33576 0.0
H474 H 0.91285 0.1829 0.24123 0.0
H475 H 0.82359 0.11344 0.27902 0.0
C476 C 0.81761 0.08411 0.24253 0.0
C477 C 0.83297 0.07567 0.21779 0.0
C478 C 0.91137 0.17596 0.26201 0.0
C479 C 0.86833 0.12424 0.25205 0.0
C480 C 0.93221 0.19568 0.28029 0.0
C481 C 0.93155 0.18613 0.30717 0.0
C482 C 0.8891 0.14723 0.27084 0.0
C483 C 0.90846 0.1576 0.31521 0.0
C484 C 0.83536 0.108 0.25976 0.0
C485 C 0.86569 0.09307 0.2106 0.0
N486 N 0.88802 0.13922 0.29712 0.0
N487 N 0.88232 0.11664 0.22767 0.0
H488 H 0.08015 0.96625 0.18763 0.0
H489 H 0.91102 -0.008 0.10288 0.0
H490 H 0.08689 0.03207 0.11709 0.0
H491 H 0.92892 0.89317 0.14734 0.0
H492 H 0.97676 0.00258 0.10176 0.0
H493 H 0.02644 0.93589 0.1699 0.0
C494 C 0.0701 0.97441 0.16839 0.0
C495 C 0.08716 0.00236 0.15406 0.0
C496 C 0.96645 0.97788 0.11094 0.0
C497 C 0.02585 0.96752 0.13351 0.0
C498 C 0.92896 0.97181 0.11155 0.0
C499 C 0.91469 0.94231 0.12596 0.0
C500 C -0.01062 0.95471 0.12538 0.0
C501 C 0.93889 0.91663 0.13647 0.0
C502 C 0.03983 0.95662 0.15806 0.0
C503 C 0.07388 0.01107 0.12888 0.0
N504 N 0.97515 0.92406 0.13674 0.0
N505 N 0.04332 -0.00575 0.11959 0.0
H506 H 0.92157 0.07267 0.62294 0.0
H507 H 0.9856 0.90022 0.60437 0.0
H508 H 0.03202 0.11045 0.61121 0.0
H509 H 0.08678 0.94879 0.63047 0.0
H510 H 0.96415 0.96046 0.59102 0.0
H511 H 0.94074 0.01119 0.61075 0.0
C512 C 0.9496 0.06825 0.61698 0.0
C513 C 0.97543 0.0964 0.61881 0.0
C514 C -0.00892 0.95798 0.59955 0.0
C515 C -0.00228 0.02622 0.60459 0.0
C516 C 0.00352 0.92355 0.60698 0.0
C517 C 0.03753 0.91978 0.61944 0.0
C518 C 0.01268 -0.01121 0.60496 0.0
C519 C 0.06006 0.95061 0.6215 0.0
C520 C 0.96061 0.03306 0.60983 0.0
C521 C 0.01138 0.08923 0.61074 0.0
N522 N 0.0469 0.98403 0.61484 0.0
N523 N 0.02166 0.05465 0.60463 0.0
H524 H 0.93725 0.09738 0.90641 0.0
H525 H 0.10914 0.03445 0.92761 0.0
H526 H 0.89952 0.98753 0.92169 0.0
H527 H 0.06098 0.93136 0.90466 0.0
H528 H 0.0489 0.05691 0.9399 0.0
H529 H -0.00151 0.07901 0.91927 0.0
C530 C 0.94163 0.06971 0.91329 0.0
C531 C 0.91357 0.04371 0.91228 0.0
C532 C 0.05146 0.02936 0.93228 0.0
C533 C 0.98347 0.02234 0.92726 0.0
C534 C 0.08589 0.01636 0.92546 0.0
C535 C 0.0898 0.98142 0.9142 0.0
C536 C 0.0208 0.00736 0.92746 0.0
C537 C 0.05905 0.95875 0.9127 0.0
C538 C 0.97668 0.05916 0.92081 0.0
C539 C 0.92068 0.00823 0.9215 0.0
N540 N 0.02565 0.9724 0.91875 0.0
N541 N 0.95512 -0.00164 0.92797 0.0
H542 H 0.02017 0.90109 0.4309 0.0
H543 H 0.08094 0.0752 0.41534 0.0
H544 H 0.91919 0.94611 0.40194 0.0
H545 H 0.96865 0.1095 0.4209 0.0
H546 H 0.06237 0.01345 0.42719 0.0
H547 H 0.03902 0.962 0.44508 0.0
C548 C 0.00175 0.92381 0.42783 0.0
C549 C 0.96862 0.91887 0.41436 0.0
C550 C 0.04183 0.0346 0.42683 0.0
C551 C -0.0094 -0.01129 0.42962 0.0
C552 C 0.05253 0.06996 0.41987 0.0
C553 C 0.02618 0.09718 0.4164 0.0
C554 C 0.00451 0.02663 0.43027 0.0
C555 C -0.01025 0.08899 0.42266 0.0
C556 C 0.01272 0.95864 0.4357 0.0
C557 C 0.9453 0.94888 0.41171 0.0
N558 N 0.97987 0.05425 0.42867 0.0
N559 N 0.95711 0.98275 0.41876 0.0
H560 H 0.41455 0.05468 0.19157 0.0
H561 H 0.60582 0.97563 0.23851 0.0
H562 H 0.42427 0.96782 0.24879 0.0
H563 H 0.59393 0.07714 0.19605 0.0
H564 H 0.53935 0.97125 0.24192 0.0
H565 H 0.48025 0.06341 0.1931 0.0
C566 C 0.43025 0.03818 0.20509 0.0
C567 C 0.41371 0.01103 0.22055 0.0
C568 C 0.55135 -0.0055 0.2319 0.0
C569 C 0.48933 0.01972 0.22144 0.0
C570 C 0.58924 -0.00324 0.22968 0.0
C571 C 0.60528 0.02641 0.21655 0.0
C572 C 0.52955 0.02203 0.22078 0.0
C573 C 0.5826 0.05373 0.20627 0.0
C574 C 0.46796 0.04283 0.20566 0.0
C575 C 0.43594 -0.0108 0.23663 0.0
N576 N 0.54587 0.05074 0.20843 0.0
N577 N 0.47267 -0.00615 0.23655 0.0
H578 H 0.9539 0.59451 0.74697 0.0
H579 H 0.07259 0.42237 0.70261 0.0
H580 H 0.04516 0.6008 0.69315 0.0
H581 H 0.96531 0.41184 0.737 0.0
H582 H 0.0669 0.48862 0.70458 0.0
H583 H 0.96162 0.52812 0.74892 0.0
C584 C 0.97596 0.58204 0.73593 0.0
C585 C -0.00055 0.60344 0.72035 0.0
C586 C 0.04452 0.47187 0.71162 0.0
C587 C 0.00815 0.52765 0.72231 0.0
C588 C 0.04777 0.43405 0.71059 0.0
C589 C 0.01914 0.41161 0.71933 0.0
C590 C 0.01256 0.48751 0.72177 0.0
C591 C -0.01236 0.42817 0.72948 0.0
C592 C 0.98021 0.54419 0.73698 0.0
C593 C 0.02728 0.58584 0.70623 0.0
N594 N 0.98518 0.46526 0.73046 0.0
N595 N 0.03083 0.54897 0.70755 0.0
H596 H 0.41059 0.96587 0.84414 0.0
H597 H 0.60049 0.04747 0.79571 0.0
H598 H 0.41816 0.0549 0.78844 0.0
H599 H 0.58907 0.94038 0.83047 0.0
H600 H 0.53387 0.05315 0.79518 0.0
H601 H 0.47619 0.95751 0.84093 0.0
C602 C 0.42573 0.98296 0.83061 0.0
C603 C 0.40857 0.01054 0.816 0.0
C604 C 0.54604 0.02842 0.80288 0.0
C605 C 0.48418 0.00226 0.81328 0.0
C606 C 0.584 0.02536 0.80345 0.0
C607 C 0.60021 -0.00636 0.81347 0.0
C608 C 0.52438 -0.00035 0.81261 0.0
C609 C 0.5776 0.96533 0.82258 0.0
C610 C 0.46341 0.97851 0.82909 0.0
C611 C 0.43026 0.03314 0.79993 0.0
N612 N 0.54084 0.9691 0.82211 0.0
N613 N 0.46698 0.02866 0.79911 0.0
H614 H 0.04547 0.41446 0.34211 0.0
H615 H 0.96617 0.60609 0.29541 0.0
H616 H 0.95648 0.42325 0.2867 0.0
H617 H 0.07195 0.5934 0.3315 0.0
H618 H 0.95994 0.53933 0.29384 0.0
H619 H 0.05445 0.48022 0.33955 0.0
C620 C 0.02853 0.42993 0.32875 0.0
C621 C 0.00081 0.41306 0.31402 0.0
C622 C 0.98451 0.55126 0.30205 0.0
C623 C 0.00976 0.48888 0.31206 0.0
C624 C -0.01213 0.5893 0.30322 0.0
C625 C 0.01937 0.60521 0.31395 0.0
C626 C 0.01276 0.5292 0.31187 0.0
C627 C 0.04718 0.5822 0.32308 0.0
C628 C 0.03332 0.4677 0.32761 0.0
C629 C 0.97837 0.43513 0.29824 0.0
N630 N 0.04312 0.54538 0.32201 0.0
N631 N 0.98319 0.47196 0.29777 0.0
loop_
_geom_bond_atom_site_label_1
_geom_bond_atom_site_label_2
_geom_bond_distance
_geom_bond_site_symmetry_2
_ccdc_geom_bond_type
Co0 O3 1.970 . S
Co0 N17 1.989 . S
Co0 O25 1.967 1_545 S
Co0 O32 1.920 . S
Co1 O4 1.966 . S
Co1 N10 2.022 . S
Co1 N18 1.993 . S
Co1 O26 1.941 1_545 S
C2 O3 1.258 . S
C2 O4 1.263 . S
O3 Co0 1.970 . S
O3 C2 1.258 . S
O4 Co1 1.966 . S
O4 C2 1.263 . S
C5 O6 1.235 . S
C5 O32 1.289 . S
O6 C5 1.235 . S
C7 C9 1.400 . S
C7 N10 1.351 . S
C7 C12 1.501 . S
C8 C9 1.379 1_565 S
C8 N11 1.343 . S
C9 C7 1.400 . S
C9 C8 1.379 1_545 S
N10 Co1 2.022 . S
N10 C7 1.351 . S
N10 N11 1.365 1_545 S
N11 C8 1.343 . S
N11 N10 1.365 1_565 S
N11 H31 0.862 . S
C12 C7 1.501 . S
C12 H13 0.961 . S
C12 H14 0.961 . S
C12 H15 0.960 . S
H13 C12 0.961 . S
H14 C12 0.961 . S
H15 C12 0.960 . S
C16 N17 1.342 . S
C16 C20 1.401 . S
C16 C21 1.499 . S
N17 Co0 1.989 . S
N17 C16 1.342 . S
N17 N18 1.388 . S
N18 Co1 1.993 . S
N18 N17 1.388 . S
N18 C19 1.346 . S
C19 N18 1.346 . S
C19 C20 1.396 . S
C19 C29 1.510 . S
C20 C16 1.401 . S
C20 C19 1.396 . S
C21 C16 1.499 . S
C21 H22 0.959 . S
C21 H23 0.960 . S
C21 H24 0.961 1_545 S
H22 C21 0.959 . S
H23 C21 0.960 . S
H24 C21 0.961 1_565 S
O25 Co0 1.967 1_565 S
O25 C33 1.258 . S
O26 Co1 1.941 1_565 S
O26 C33 1.266 . S
H27 C29 0.959 1_565 S
H28 C29 0.961 . S
C29 C19 1.510 . S
C29 H27 0.959 1_545 S
C29 H28 0.961 . S
C29 H30 0.960 . S
H30 C29 0.960 . S
H31 N11 0.862 . S
O32 Co0 1.920 . S
O32 C5 1.289 . S
C33 O25 1.258 . S
C33 O26 1.266 . S
Co34 O37 1.970 1_455 S
Co34 N51 1.989 . S
Co34 O59 1.967 . S
Co34 O66 1.920 . S
Co35 O38 1.966 1_455 S
Co35 N44 2.022 . S
Co35 N52 1.993 . S
Co35 O60 1.941 . S
C36 O37 1.258 . S
C36 O38 1.263 . S
O37 Co34 1.970 1_655 S
O37 C36 1.258 . S
O38 Co35 1.966 1_655 S
O38 C36 1.263 . S
C39 O40 1.235 . S
C39 O66 1.289 1_655 S
O40 C39 1.235 . S
C41 C43 1.392 1_655 S
C41 N44 1.351 1_655 S
C41 C46 1.501 . S
C42 C43 1.418 . S
C42 N45 1.341 . S
C43 C41 1.392 1_455 S
C43 C42 1.418 . S
N44 Co35 2.022 . S
N44 C41 1.351 1_455 S
N44 N45 1.365 . S
N45 C42 1.341 . S
N45 N44 1.365 . S
N45 H65 0.862 . S
C46 C41 1.501 . S
C46 H47 0.961 . S
C46 H48 0.961 . S
C46 H49 0.960 . S
H47 C46 0.961 . S
H48 C46 0.961 . S
H49 C46 0.960 . S
C50 N51 1.342 . S
C50 C54 1.401 . S
C50 C55 1.499 . S
N51 Co34 1.989 . S
N51 C50 1.342 . S
N51 N52 1.388 . S
N52 Co35 1.993 . S
N52 N51 1.388 . S
N52 C53 1.346 . S
C53 N52 1.346 . S
C53 C54 1.396 . S
C53 C63 1.510 . S
C54 C50 1.401 . S
C54 C53 1.396 . S
C55 C50 1.499 . S
C55 H56 0.959 . S
C55 H57 0.960 . S
C55 H58 0.961 . S
H56 C55 0.959 . S
H57 C55 0.960 . S
H58 C55 0.961 . S
O59 Co34 1.967 . S
O59 C67 1.258 . S
O60 Co35 1.941 . S
O60 C67 1.266 . S
H61 C63 0.959 . S
H62 C63 0.961 1_655 S
C63 C53 1.510 . S
C63 H61 0.959 . S
C63 H62 0.961 1_455 S
C63 H64 0.960 . S
H64 C63 0.960 . S
H65 N45 0.862 . S
O66 Co34 1.920 . S
O66 C39 1.289 1_455 S
C67 O59 1.258 . S
C67 O60 1.266 . S
Co68 O71 1.970 1_545 S
Co68 N85 1.989 . S
Co68 O93 1.967 . S
Co68 O100 1.920 . S
Co69 O72 1.966 1_545 S
Co69 N78 2.022 . S
Co69 N86 1.993 . S
Co69 O94 1.941 . S
C70 O71 1.258 . S
C70 O72 1.263 . S
O71 Co68 1.970 1_565 S
O71 C70 1.258 . S
O72 Co69 1.966 1_565 S
O72 C70 1.263 . S
C73 O74 1.235 . S
C73 O100 1.289 1_565 S
O74 C73 1.235 . S
C75 C77 1.400 1_565 S
C75 N78 1.351 1_565 S
C75 C80 1.501 . S
C76 C77 1.387 . S
C76 N79 1.341 . S
C77 C75 1.400 1_545 S
C77 C76 1.387 . S
N78 Co69 2.022 . S
N78 C75 1.351 1_545 S
N78 N79 1.365 . S
N79 C76 1.341 . S
N79 N78 1.365 . S
N79 H99 0.862 . S
C80 C75 1.501 . S
C80 H81 0.961 . S
C80 H82 0.961 . S
C80 H83 0.960 . S
H81 C80 0.961 . S
H82 C80 0.961 . S
H83 C80 0.960 . S
C84 N85 1.342 . S
C84 C88 1.401 . S
C84 C89 1.499 . S
N85 Co68 1.989 . S
N85 C84 1.342 . S
N85 N86 1.388 . S
N86 Co69 1.993 . S
N86 N85 1.388 . S
N86 C87 1.346 . S
C87 N86 1.346 . S
C87 C88 1.396 . S
C87 C97 1.510 . S
C88 C84 1.401 . S
C88 C87 1.396 . S
C89 C84 1.499 . S
C89 H90 0.959 . S
C89 H91 0.960 . S
C89 H92 0.961 . S
H90 C89 0.959 . S
H91 C89 0.960 . S
H92 C89 0.961 . S
O93 Co68 1.967 . S
O93 C101 1.258 . S
O94 Co69 1.941 . S
O94 C101 1.266 . S
H95 C97 0.959 . S
H96 C97 0.961 1_565 S
C97 C87 1.510 . S
C97 H95 0.959 . S
C97 H96 0.961 1_545 S
C97 H98 0.960 . S
H98 C97 0.960 . S
H99 N79 0.862 . S
O100 Co68 1.920 . S
O100 C73 1.289 1_545 S
C101 O93 1.258 . S
C101 O94 1.266 . S
Co102 O105 1.970 . S
Co102 N119 1.989 . S
Co102 O127 1.967 1_455 S
Co102 O134 1.920 . S
Co103 O106 1.966 . S
Co103 N112 2.022 . S
Co103 N120 1.993 . S
Co103 O128 1.941 1_455 S
C104 O105 1.258 . S
C104 O106 1.263 . S
O105 Co102 1.970 . S
O105 C104 1.258 . S
O106 Co103 1.966 . S
O106 C104 1.263 . S
C107 O108 1.235 . S
C107 O134 1.289 . S
O108 C107 1.235 . S
C109 C111 1.400 . S
C109 N112 1.351 . S
C109 C114 1.501 . S
C110 C111 1.382 1_655 S
C110 N113 1.342 . S
C111 C109 1.400 . S
C111 C110 1.382 1_455 S
N112 Co103 2.022 . S
N112 C109 1.351 . S
N112 N113 1.365 1_455 S
N113 C110 1.342 . S
N113 N112 1.365 1_655 S
N113 H133 0.862 . S
C114 C109 1.501 . S
C114 H115 0.961 . S
C114 H116 0.961 . S
C114 H117 0.960 . S
H115 C114 0.961 . S
H116 C114 0.961 . S
H117 C114 0.960 . S
C118 N119 1.342 . S
C118 C122 1.401 . S
C118 C123 1.499 . S
N119 Co102 1.989 . S
N119 C118 1.342 . S
N119 N120 1.388 . S
N120 Co103 1.993 . S
N120 N119 1.388 . S
N120 C121 1.346 . S
C121 N120 1.346 . S
C121 C122 1.396 . S
C121 C131 1.510 . S
C122 C118 1.401 . S
C122 C121 1.396 . S
C123 C118 1.499 . S
C123 H124 0.959 . S
C123 H125 0.960 . S
C123 H126 0.961 1_455 S
H124 C123 0.959 . S
H125 C123 0.960 . S
H126 C123 0.961 1_655 S
O127 Co102 1.967 1_655 S
O127 C135 1.258 . S
O128 Co103 1.941 1_655 S
O128 C135 1.266 . S
H129 C131 0.959 1_655 S
H130 C131 0.961 . S
C131 C121 1.510 . S
C131 H129 0.959 1_455 S
C131 H130 0.961 . S
C131 H132 0.960 . S
H132 C131 0.960 . S
H133 N113 0.862 . S
O134 Co102 1.920 . S
O134 C107 1.289 . S
C135 O127 1.258 . S
C135 O128 1.266 . S
Co136 O139 1.970 1_545 S
Co136 N153 1.989 . S
Co136 O161 1.967 . S
Co136 O168 1.920 . S
Co137 O140 1.966 1_545 S
Co137 N146 2.022 . S
Co137 N154 1.993 . S
Co137 O162 1.941 . S
C138 O139 1.258 . S
C138 O140 1.263 . S
O139 Co136 1.970 1_565 S
O139 C138 1.258 . S
O140 Co137 1.966 1_565 S
O140 C138 1.263 . S
C141 O142 1.235 . S
C141 O168 1.289 1_565 S
O142 C141 1.235 . S
C143 C145 1.392 1_565 S
C143 N146 1.351 1_565 S
C143 C148 1.501 . S
C144 C145 1.418 . S
C144 N147 1.341 . S
C145 C143 1.392 1_545 S
C145 C144 1.418 . S
N146 Co137 2.022 . S
N146 C143 1.351 1_545 S
N146 N147 1.365 . S
N147 C144 1.341 . S
N147 N146 1.365 . S
N147 H167 0.862 . S
C148 C143 1.501 . S
C148 H149 0.961 . S
C148 H150 0.961 . S
C148 H151 0.960 . S
H149 C148 0.961 . S
H150 C148 0.961 . S
H151 C148 0.960 . S
C152 N153 1.342 . S
C152 C156 1.401 . S
C152 C157 1.499 . S
N153 Co136 1.989 . S
N153 C152 1.342 . S
N153 N154 1.388 . S
N154 Co137 1.993 . S
N154 N153 1.388 . S
N154 C155 1.346 . S
C155 N154 1.346 . S
C155 C156 1.396 . S
C155 C165 1.510 . S
C156 C152 1.401 . S
C156 C155 1.396 . S
C157 C152 1.499 . S
C157 H158 0.959 . S
C157 H159 0.960 . S
C157 H160 0.961 . S
H158 C157 0.959 . S
H159 C157 0.960 . S
H160 C157 0.961 . S
O161 Co136 1.967 . S
O161 C169 1.258 . S
O162 Co137 1.941 . S
O162 C169 1.266 . S
H163 C165 0.959 . S
H164 C165 0.961 1_565 S
C165 C155 1.510 . S
C165 H163 0.959 . S
C165 H164 0.961 1_545 S
C165 H166 0.960 . S
H166 C165 0.960 . S
H167 N147 0.862 . S
O168 Co136 1.920 . S
O168 C141 1.289 1_545 S
C169 O161 1.258 . S
C169 O162 1.266 . S
Co170 O173 1.970 . S
Co170 N187 1.989 . S
Co170 O195 1.967 1_455 S
Co170 O202 1.920 . S
Co171 O174 1.966 . S
Co171 N180 2.022 . S
Co171 N188 1.993 . S
Co171 O196 1.941 1_455 S
C172 O173 1.258 . S
C172 O174 1.263 . S
O173 Co170 1.970 . S
O173 C172 1.258 . S
O174 Co171 1.966 . S
O174 C172 1.263 . S
C175 O176 1.235 . S
C175 O202 1.289 . S
O176 C175 1.235 . S
C177 C179 1.400 . S
C177 N180 1.351 . S
C177 C182 1.501 . S
C178 C179 1.379 1_655 S
C178 N181 1.343 . S
C179 C177 1.400 . S
C179 C178 1.379 1_455 S
N180 Co171 2.022 . S
N180 C177 1.351 . S
N180 N181 1.365 1_455 S
N181 C178 1.343 . S
N181 N180 1.365 1_655 S
N181 H201 0.862 . S
C182 C177 1.501 . S
C182 H183 0.961 . S
C182 H184 0.961 . S
C182 H185 0.960 . S
H183 C182 0.961 . S
H184 C182 0.961 . S
H185 C182 0.960 . S
C186 N187 1.342 . S
C186 C190 1.401 . S
C186 C191 1.499 . S
N187 Co170 1.989 . S
N187 C186 1.342 . S
N187 N188 1.388 . S
N188 Co171 1.993 . S
N188 N187 1.388 . S
N188 C189 1.346 . S
C189 N188 1.346 . S
C189 C190 1.396 . S
C189 C199 1.510 . S
C190 C186 1.401 . S
C190 C189 1.396 . S
C191 C186 1.499 . S
C191 H192 0.959 . S
C191 H193 0.960 . S
C191 H194 0.961 1_455 S
H192 C191 0.959 . S
H193 C191 0.960 . S
H194 C191 0.961 1_655 S
O195 Co170 1.967 1_655 S
O195 C203 1.258 . S
O196 Co171 1.941 1_655 S
O196 C203 1.266 . S
H197 C199 0.959 1_655 S
H198 C199 0.961 . S
C199 C189 1.510 . S
C199 H197 0.959 1_455 S
C199 H198 0.961 . S
C199 H200 0.960 . S
H200 C199 0.960 . S
H201 N181 0.862 . S
O202 Co170 1.920 . S
O202 C175 1.289 . S
C203 O195 1.258 . S
C203 O196 1.266 . S
Co204 O207 1.970 . S
Co204 N221 1.989 . S
Co204 O229 1.967 1_545 S
Co204 O236 1.920 . S
Co205 O208 1.966 . S
Co205 N214 2.022 . S
Co205 N222 1.993 . S
Co205 O230 1.941 1_545 S
C206 O207 1.258 . S
C206 O208 1.263 . S
O207 Co204 1.970 . S
O207 C206 1.258 . S
O208 Co205 1.966 . S
O208 C206 1.263 . S
C209 O210 1.235 . S
C209 O236 1.289 . S
O210 C209 1.235 . S
C211 C213 1.400 . S
C211 N214 1.351 . S
C211 C216 1.501 . S
C212 C213 1.382 1_565 S
C212 N215 1.342 . S
C213 C211 1.400 . S
C213 C212 1.382 1_545 S
N214 Co205 2.022 . S
N214 C211 1.351 . S
N214 N215 1.365 1_545 S
N215 C212 1.342 . S
N215 N214 1.365 1_565 S
N215 H235 0.862 . S
C216 C211 1.501 . S
C216 H217 0.961 . S
C216 H218 0.961 . S
C216 H219 0.960 . S
H217 C216 0.961 . S
H218 C216 0.961 . S
H219 C216 0.960 . S
C220 N221 1.342 . S
C220 C224 1.401 . S
C220 C225 1.499 . S
N221 Co204 1.989 . S
N221 C220 1.342 . S
N221 N222 1.388 . S
N222 Co205 1.993 . S
N222 N221 1.388 . S
N222 C223 1.346 . S
C223 N222 1.346 . S
C223 C224 1.396 . S
C223 C233 1.510 . S
C224 C220 1.401 . S
C224 C223 1.396 . S
C225 C220 1.499 . S
C225 H226 0.959 . S
C225 H227 0.960 . S
C225 H228 0.961 1_545 S
H226 C225 0.959 . S
H227 C225 0.960 . S
H228 C225 0.961 1_565 S
O229 Co204 1.967 1_565 S
O229 C237 1.258 . S
O230 Co205 1.941 1_565 S
O230 C237 1.266 . S
H231 C233 0.959 1_565 S
H232 C233 0.961 . S
C233 C223 1.510 . S
C233 H231 0.959 1_545 S
C233 H232 0.961 . S
C233 H234 0.960 . S
H234 C233 0.960 . S
H235 N215 0.862 . S
O236 Co204 1.920 . S
O236 C209 1.289 . S
C237 O229 1.258 . S
C237 O230 1.266 . S
Co238 O241 1.970 1_455 S
Co238 N255 1.989 . S
Co238 O263 1.967 . S
Co238 O270 1.920 . S
Co239 O242 1.966 1_455 S
Co239 N248 2.022 . S
Co239 N256 1.993 . S
Co239 O264 1.941 . S
C240 O241 1.258 . S
C240 O242 1.263 . S
O241 Co238 1.970 1_655 S
O241 C240 1.258 . S
O242 Co239 1.966 1_655 S
O242 C240 1.263 . S
C243 O244 1.235 . S
C243 O270 1.289 1_655 S
O244 C243 1.235 . S
C245 C247 1.400 1_655 S
C245 N248 1.351 1_655 S
C245 C250 1.501 . S
C246 C247 1.387 . S
C246 N249 1.341 . S
C247 C245 1.400 1_455 S
C247 C246 1.387 . S
N248 Co239 2.022 . S
N248 C245 1.351 1_455 S
N248 N249 1.365 . S
N249 C246 1.341 . S
N249 N248 1.365 . S
N249 H269 0.862 . S
C250 C245 1.501 . S
C250 H251 0.961 . S
C250 H252 0.961 . S
C250 H253 0.960 . S
H251 C250 0.961 . S
H252 C250 0.961 . S
H253 C250 0.960 . S
C254 N255 1.342 . S
C254 C258 1.401 . S
C254 C259 1.499 . S
N255 Co238 1.989 . S
N255 C254 1.342 . S
N255 N256 1.388 . S
N256 Co239 1.993 . S
N256 N255 1.388 . S
N256 C257 1.346 . S
C257 N256 1.346 . S
C257 C258 1.396 . S
C257 C267 1.510 . S
C258 C254 1.401 . S
C258 C257 1.396 . S
C259 C254 1.499 . S
C259 H260 0.959 . S
C259 H261 0.960 . S
C259 H262 0.961 . S
H260 C259 0.959 . S
H261 C259 0.960 . S
H262 C259 0.961 . S
O263 Co238 1.967 . S
O263 C271 1.258 . S
O264 Co239 1.941 . S
O264 C271 1.266 . S
H265 C267 0.959 . S
H266 C267 0.961 1_655 S
C267 C257 1.510 . S
C267 H265 0.959 . S
C267 H266 0.961 1_455 S
C267 H268 0.960 . S
H268 C267 0.960 . S
H269 N249 0.862 . S
O270 Co238 1.920 . S
O270 C243 1.289 1_455 S
C271 O263 1.258 . S
C271 O264 1.266 . S
H272 C278 0.930 . S
H273 C282 0.930 . S
H274 C287 0.929 . S
H275 C285 0.929 . S
H276 C280 0.929 . S
H277 C286 0.929 . S
C278 H272 0.930 . S
C278 C279 1.367 1_565 S
C278 C286 1.378 . S
C279 C278 1.367 1_545 S
C279 C287 1.433 . S
C280 H276 0.929 . S
C280 C282 1.378 . S
C280 C284 1.350 . S
C281 C284 1.463 1_554 S
C281 C286 1.350 1_545 S
C281 N289 1.427 . S
C282 H273 0.930 . S
C282 C280 1.378 . S
C282 C283 1.367 . S
C283 C282 1.367 . S
C283 C285 1.433 1_545 S
C284 C280 1.350 . S
C284 C281 1.463 1_556 S
C284 N288 1.427 1_545 S
C285 H275 0.929 . S
C285 C283 1.433 1_565 S
C285 N288 1.384 . S
C286 H277 0.929 . S
C286 C278 1.378 . S
C286 C281 1.350 1_565 S
C287 H274 0.929 . S
C287 C279 1.433 . S
C287 N289 1.384 . S
N288 C284 1.427 1_565 S
N288 C285 1.384 . S
N289 C281 1.427 . S
N289 C287 1.384 . S
H290 C296 0.930 . S
H291 C300 0.930 1_655 S
H292 C305 0.929 . S
H293 C303 0.929 . S
H294 C298 0.912 1_655 S
H295 C304 0.929 . S
C296 H290 0.930 . S
C296 C297 1.367 . S
C296 C304 1.378 . S
C297 C296 1.367 . S
C297 C305 1.433 1_455 S
C298 H294 0.912 1_455 S
C298 C300 1.380 . S
C298 C302 1.365 . S
C299 C302 1.463 . S
C299 C304 1.350 . S
C299 N307 1.427 1_455 S
C300 H291 0.930 1_455 S
C300 C298 1.380 . S
C300 C301 1.367 . S
C301 C300 1.367 . S
C301 C303 1.433 . S
C302 C298 1.365 . S
C302 C299 1.463 . S
C302 N306 1.427 . S
C303 H293 0.929 . S
C303 C301 1.433 . S
C303 N306 1.384 . S
C304 H295 0.929 . S
C304 C296 1.378 . S
C304 C299 1.350 . S
C305 H292 0.929 . S
C305 C297 1.433 1_655 S
C305 N307 1.384 . S
N306 C302 1.427 . S
N306 C303 1.384 . S
N307 C299 1.427 1_655 S
N307 C305 1.384 . S
H308 C314 0.913 1_565 S
H309 C318 0.930 . S
H310 C323 0.929 . S
H311 C321 0.929 . S
H312 C316 0.929 . S
H313 C322 0.929 . S
C314 H308 0.913 1_545 S
C314 C315 1.387 . S
C314 C322 1.376 1_545 S
C315 C314 1.387 . S
C315 C323 1.433 . S
C316 H312 0.929 . S
C316 C318 1.378 . S
C316 C320 1.350 . S
C317 C320 1.463 1_554 S
C317 C322 1.350 1_545 S
C317 N325 1.427 . S
C318 H309 0.930 . S
C318 C316 1.378 . S
C318 C319 1.367 . S
C319 C318 1.367 . S
C319 C321 1.433 1_545 S
C320 C316 1.350 . S
C320 C317 1.463 1_556 S
C320 N324 1.427 1_545 S
C321 H311 0.929 . S
C321 C319 1.433 1_565 S
C321 N324 1.384 . S
C322 H313 0.929 . S
C322 C314 1.376 1_565 S
C322 C317 1.350 1_565 S
C323 H310 0.929 . S
C323 C315 1.433 . S
C323 N325 1.384 . S
N324 C320 1.427 1_565 S
N324 C321 1.384 . S
N325 C317 1.427 . S
N325 C323 1.384 . S
H326 C332 0.930 . S
H327 C336 0.930 . S
H328 C341 0.929 . S
H329 C339 0.929 . S
H330 C334 0.929 . S
H331 C340 0.929 . S
C332 H326 0.930 . S
C332 C333 1.367 . S
C332 C340 1.378 . S
C333 C332 1.367 . S
C333 C341 1.433 . S
C334 H330 0.929 . S
C334 C336 1.378 . S
C334 C338 1.350 . S
C335 C338 1.463 . S
C335 C340 1.350 . S
C335 N343 1.427 . S
C336 H327 0.930 . S
C336 C334 1.378 . S
C336 C337 1.367 . S
C337 C336 1.367 . S
C337 C339 1.433 . S
C338 C334 1.350 . S
C338 C335 1.463 . S
C338 N342 1.427 . S
C339 H329 0.929 . S
C339 C337 1.433 . S
C339 N342 1.384 . S
C340 H331 0.929 . S
C340 C332 1.378 . S
C340 C335 1.350 . S
C341 H328 0.929 . S
C341 C333 1.433 . S
C341 N343 1.384 . S
N342 C338 1.427 . S
N342 C339 1.384 . S
N343 C335 1.427 . S
N343 C341 1.384 . S
H344 C350 0.930 . S
H345 C354 0.930 . S
H346 C359 0.929 . S
H347 C357 0.929 . S
H348 C352 0.929 . S
H349 C358 0.929 . S
C350 H344 0.930 . S
C350 C351 1.367 . S
C350 C358 1.378 . S
C351 C350 1.367 . S
C351 C359 1.433 . S
C352 H348 0.929 . S
C352 C354 1.378 . S
C352 C356 1.350 . S
C353 C356 1.463 . S
C353 C358 1.350 . S
C353 N361 1.427 . S
C354 H345 0.930 . S
C354 C352 1.378 . S
C354 C355 1.367 . S
C355 C354 1.367 . S
C355 C357 1.433 . S
C356 C352 1.350 . S
C356 C353 1.463 . S
C356 N360 1.427 . S
C357 H347 0.929 . S
C357 C355 1.433 . S
C357 N360 1.384 . S
C358 H349 0.929 . S
C358 C350 1.378 . S
C358 C353 1.350 . S
C359 H346 0.929 . S
C359 C351 1.433 . S
C359 N361 1.384 . S
N360 C356 1.427 . S
N360 C357 1.384 . S
N361 C353 1.427 . S
N361 C359 1.384 . S
H362 C368 0.930 . S
H363 C372 0.930 . S
H364 C377 0.929 . S
H365 C375 0.929 . S
H366 C370 0.929 . S
H367 C376 0.929 . S
C368 H362 0.930 . S
C368 C369 1.367 . S
C368 C376 1.378 . S
C369 C368 1.367 . S
C369 C377 1.433 . S
C370 H366 0.929 . S
C370 C372 1.378 . S
C370 C374 1.350 . S
C371 C374 1.463 . S
C371 C376 1.350 . S
C371 N379 1.427 . S
C372 H363 0.930 . S
C372 C370 1.378 . S
C372 C373 1.367 . S
C373 C372 1.367 . S
C373 C375 1.433 . S
C374 C370 1.350 . S
C374 C371 1.463 . S
C374 N378 1.427 . S
C375 H365 0.929 . S
C375 C373 1.433 . S
C375 N378 1.384 . S
C376 H367 0.929 . S
C376 C368 1.378 . S
C376 C371 1.350 . S
C377 H364 0.929 . S
C377 C369 1.433 . S
C377 N379 1.384 . S
N378 C374 1.427 . S
N378 C375 1.384 . S
N379 C371 1.427 . S
N379 C377 1.384 . S
H380 C386 0.930 . S
H381 C390 0.930 . S
H382 C395 0.929 . S
H383 C393 0.929 . S
H384 C388 0.929 . S
H385 C394 0.929 . S
C386 H380 0.930 . S
C386 C387 1.367 . S
C386 C394 1.378 . S
C387 C386 1.367 . S
C387 C395 1.433 . S
C388 H384 0.929 . S
C388 C390 1.378 . S
C388 C392 1.350 . S
C389 C392 1.463 . S
C389 C394 1.350 . S
C389 N397 1.427 . S
C390 H381 0.930 . S
C390 C388 1.378 . S
C390 C391 1.367 . S
C391 C390 1.367 . S
C391 C393 1.433 . S
C392 C388 1.350 . S
C392 C389 1.463 . S
C392 N396 1.427 . S
C393 H383 0.929 . S
C393 C391 1.433 . S
C393 N396 1.384 . S
C394 H385 0.929 . S
C394 C386 1.378 . S
C394 C389 1.350 . S
C395 H382 0.929 . S
C395 C387 1.433 . S
C395 N397 1.384 . S
N396 C392 1.427 . S
N396 C393 1.384 . S
N397 C389 1.427 . S
N397 C395 1.384 . S
H398 C404 0.930 . S
H399 C408 0.930 . S
H400 C413 0.929 . S
H401 C411 0.929 . S
H402 C406 0.929 . S
H403 C412 0.929 . S
C404 H398 0.930 . S
C404 C405 1.367 . S
C404 C412 1.378 . S
C405 C404 1.367 . S
C405 C413 1.433 . S
C406 H402 0.929 . S
C406 C408 1.378 . S
C406 C410 1.350 . S
C407 C410 1.463 . S
C407 C412 1.350 . S
C407 N415 1.427 . S
C408 H399 0.930 . S
C408 C406 1.378 . S
C408 C409 1.367 . S
C409 C408 1.367 . S
C409 C411 1.433 . S
C410 C406 1.350 . S
C410 C407 1.463 . S
C410 N414 1.427 . S
C411 H401 0.929 . S
C411 C409 1.433 . S
C411 N414 1.384 . S
C412 H403 0.929 . S
C412 C404 1.378 . S
C412 C407 1.350 . S
C413 H400 0.929 . S
C413 C405 1.433 . S
C413 N415 1.384 . S
N414 C410 1.427 . S
N414 C411 1.384 . S
N415 C407 1.427 . S
N415 C413 1.384 . S
H416 C422 0.930 . S
H417 C426 0.930 . S
H418 C431 0.929 . S
H419 C429 0.929 . S
H420 C424 0.929 . S
H421 C430 0.929 . S
C422 H416 0.930 . S
C422 C423 1.367 . S
C422 C430 1.378 . S
C423 C422 1.367 . S
C423 C431 1.433 . S
C424 H420 0.929 . S
C424 C426 1.378 . S
C424 C428 1.350 . S
C425 C428 1.463 . S
C425 C430 1.350 . S
C425 N433 1.427 . S
C426 H417 0.930 . S
C426 C424 1.378 . S
C426 C427 1.367 . S
C427 C426 1.367 . S
C427 C429 1.433 . S
C428 C424 1.350 . S
C428 C425 1.463 . S
C428 N432 1.427 . S
C429 H419 0.929 . S
C429 C427 1.433 . S
C429 N432 1.384 . S
C430 H421 0.929 . S
C430 C422 1.378 . S
C430 C425 1.350 . S
C431 H418 0.929 . S
C431 C423 1.433 . S
C431 N433 1.384 . S
N432 C428 1.427 . S
N432 C429 1.384 . S
N433 C425 1.427 . S
N433 C431 1.384 . S
H434 C440 0.930 . S
H435 C444 0.930 . S
H436 C449 0.929 . S
H437 C447 0.929 . S
H438 C442 0.929 . S
H439 C448 0.929 . S
C440 H434 0.930 . S
C440 C441 1.367 . S
C440 C448 1.378 . S
C441 C440 1.367 . S
C441 C449 1.433 . S
C442 H438 0.929 . S
C442 C444 1.378 . S
C442 C446 1.350 . S
C443 C446 1.463 . S
C443 C448 1.350 . S
C443 N451 1.427 . S
C444 H435 0.930 . S
C444 C442 1.378 . S
C444 C445 1.367 . S
C445 C444 1.367 . S
C445 C447 1.433 . S
C446 C442 1.350 . S
C446 C443 1.463 . S
C446 N450 1.427 . S
C447 H437 0.929 . S
C447 C445 1.433 . S
C447 N450 1.384 . S
C448 H439 0.929 . S
C448 C440 1.378 . S
C448 C443 1.350 . S
C449 H436 0.929 . S
C449 C441 1.433 . S
C449 N451 1.384 . S
N450 C446 1.427 . S
N450 C447 1.384 . S
N451 C443 1.427 . S
N451 C449 1.384 . S
H452 C458 0.930 . S
H453 C462 0.930 . S
H454 C467 0.929 . S
H455 C465 0.929 . S
H456 C460 0.929 . S
H457 C466 0.929 . S
C458 H452 0.930 . S
C458 C459 1.367 . S
C458 C466 1.378 . S
C459 C458 1.367 . S
C459 C467 1.433 . S
C460 H456 0.929 . S
C460 C462 1.378 . S
C460 C464 1.350 . S
C461 C464 1.463 . S
C461 C466 1.350 . S
C461 N469 1.427 . S
C462 H453 0.930 . S
C462 C460 1.378 . S
C462 C463 1.367 . S
C463 C462 1.367 . S
C463 C465 1.433 . S
C464 C460 1.350 . S
C464 C461 1.463 . S
C464 N468 1.427 . S
C465 H455 0.929 . S
C465 C463 1.433 . S
C465 N468 1.384 . S
C466 H457 0.929 . S
C466 C458 1.378 . S
C466 C461 1.350 . S
C467 H454 0.929 . S
C467 C459 1.433 . S
C467 N469 1.384 . S
N468 C464 1.427 . S
N468 C465 1.384 . S
N469 C461 1.427 . S
N469 C467 1.384 . S
H470 C476 0.930 . S
H471 C480 0.930 . S
H472 C485 0.929 . S
H473 C483 0.929 . S
H474 C478 0.929 . S
H475 C484 0.929 . S
C476 H470 0.930 . S
C476 C477 1.367 . S
C476 C484 1.378 . S
C477 C476 1.367 . S
C477 C485 1.433 . S
C478 H474 0.929 . S
C478 C480 1.378 . S
C478 C482 1.350 . S
C479 C482 1.463 . S
C479 C484 1.350 . S
C479 N487 1.427 . S
C480 H471 0.930 . S
C480 C478 1.378 . S
C480 C481 1.367 . S
C481 C480 1.367 . S
C481 C483 1.433 . S
C482 C478 1.350 . S
C482 C479 1.463 . S
C482 N486 1.427 . S
C483 H473 0.929 . S
C483 C481 1.433 . S
C483 N486 1.384 . S
C484 H475 0.929 . S
C484 C476 1.378 . S
C484 C479 1.350 . S
C485 H472 0.929 . S
C485 C477 1.433 . S
C485 N487 1.384 . S
N486 C482 1.427 . S
N486 C483 1.384 . S
N487 C479 1.427 . S
N487 C485 1.384 . S
H488 C494 0.930 . S
H489 C498 0.930 . S
H490 C503 0.929 . S
H491 C501 0.929 . S
H492 C496 0.929 . S
H493 C502 0.929 1_565 S
C494 H488 0.930 . S
C494 C495 1.367 . S
C494 C502 1.378 . S
C495 C494 1.367 . S
C495 C503 1.433 . S
C496 H492 0.929 . S
C496 C498 1.378 . S
C496 C500 1.351 . S
C497 C500 1.461 1_455 S
C497 C502 1.350 . S
C497 N505 1.427 . S
C498 H489 0.930 . S
C498 C496 1.378 . S
C498 C499 1.367 1_545 S
C499 C498 1.367 1_565 S
C499 C501 1.433 . S
C500 C496 1.351 . S
C500 C497 1.461 1_655 S
C500 N504 1.428 1_545 S
C501 H491 0.929 . S
C501 C499 1.433 . S
C501 N504 1.384 . S
C502 H493 0.929 1_545 S
C502 C494 1.378 . S
C502 C497 1.350 . S
C503 H490 0.929 . S
C503 C495 1.433 . S
C503 N505 1.384 . S
N504 C500 1.428 1_565 S
N504 C501 1.384 . S
N505 C497 1.427 . S
N505 C503 1.384 . S
H506 C512 0.930 . S
H507 C516 0.930 . S
H508 C521 0.929 . S
H509 C519 0.929 . S
H510 C514 0.929 1_545 S
H511 C520 0.929 . S
C512 H506 0.930 . S
C512 C513 1.367 . S
C512 C520 1.378 . S
C513 C512 1.367 . S
C513 C521 1.433 1_655 S
C514 H510 0.929 1_565 S
C514 C516 1.378 . S
C514 C518 1.348 1_565 S
C515 C518 1.470 . S
C515 C520 1.350 1_455 S
C515 N523 1.427 . S
C516 H507 0.930 . S
C516 C514 1.378 . S
C516 C517 1.367 . S
C517 C516 1.367 . S
C517 C519 1.433 . S
C518 C514 1.348 1_545 S
C518 C515 1.470 . S
C518 N522 1.423 1_545 S
C519 H509 0.929 . S
C519 C517 1.433 . S
C519 N522 1.384 . S
C520 H511 0.929 . S
C520 C512 1.378 . S
C520 C515 1.350 1_655 S
C521 H508 0.929 . S
C521 C513 1.433 1_455 S
C521 N523 1.384 . S
N522 C518 1.423 1_565 S
N522 C519 1.384 . S
N523 C515 1.427 . S
N523 C521 1.384 . S
H524 C530 0.930 . S
H525 C534 0.930 . S
H526 C539 0.929 . S
H527 C537 0.929 . S
H528 C532 0.929 . S
H529 C538 0.931 . S
C530 H524 0.930 . S
C530 C531 1.367 . S
C530 C538 1.378 . S
C531 C530 1.367 . S
C531 C539 1.433 . S
C532 H528 0.929 . S
C532 C534 1.378 . S
C532 C536 1.350 1_565 S
C533 C536 1.466 . S
C533 C538 1.348 1_455 S
C533 N541 1.425 1_455 S
C534 H525 0.930 . S
C534 C532 1.378 . S
C534 C535 1.367 . S
C535 C534 1.367 . S
C535 C537 1.433 . S
C536 C532 1.350 1_545 S
C536 C533 1.466 . S
C536 N540 1.427 . S
C537 H527 0.929 . S
C537 C535 1.433 . S
C537 N540 1.384 1_565 S
C538 H529 0.931 . S
C538 C530 1.378 . S
C538 C533 1.348 1_655 S
C539 H526 0.929 . S
C539 C531 1.433 . S
C539 N541 1.384 . S
N540 C536 1.427 . S
N540 C537 1.384 1_545 S
N541 C533 1.425 1_655 S
N541 C539 1.384 . S
H542 C548 0.930 1_455 S
H543 C552 0.930 . S
H544 C557 0.929 . S
H545 C555 0.929 . S
H546 C550 0.929 . S
H547 C556 0.929 . S
C548 H542 0.930 1_655 S
C548 C549 1.379 . S
C548 C556 1.367 1_655 S
C549 C548 1.379 . S
C549 C557 1.433 . S
C550 H546 0.929 . S
C550 C552 1.378 . S
C550 C554 1.350 . S
C551 C554 1.465 1_565 S
C551 C556 1.348 . S
C551 N559 1.426 1_455 S
C552 H543 0.930 . S
C552 C550 1.378 . S
C552 C553 1.367 . S
C553 C552 1.367 . S
C553 C555 1.433 . S
C554 C550 1.350 . S
C554 C551 1.465 1_545 S
C554 N558 1.427 . S
C555 H545 0.929 . S
C555 C553 1.433 . S
C555 N558 1.384 . S
C556 H547 0.929 . S
C556 C548 1.367 1_455 S
C556 C551 1.348 . S
C557 H544 0.929 . S
C557 C549 1.433 . S
C557 N559 1.384 . S
N558 C554 1.427 . S
N558 C555 1.384 . S
N559 C551 1.426 1_655 S
N559 C557 1.384 . S
H560 C566 0.930 . S
H561 C570 0.930 . S
H562 C575 0.929 1_565 S
H563 C573 0.929 . S
H564 C568 0.929 . S
H565 C574 0.929 . S
C566 H560 0.930 . S
C566 C567 1.367 . S
C566 C574 1.378 . S
C567 C566 1.367 . S
C567 C575 1.433 . S
C568 H564 0.929 . S
C568 C570 1.378 . S
C568 C572 1.350 1_565 S
C569 C572 1.463 . S
C569 C574 1.350 . S
C569 N577 1.427 1_545 S
C570 H561 0.930 . S
C570 C568 1.378 . S
C570 C571 1.367 . S
C571 C570 1.367 . S
C571 C573 1.433 1_565 S
C572 C568 1.350 1_545 S
C572 C569 1.463 . S
C572 N576 1.427 . S
C573 H563 0.929 . S
C573 C571 1.433 1_545 S
C573 N576 1.384 . S
C574 H565 0.929 . S
C574 C566 1.378 . S
C574 C569 1.350 . S
C575 H562 0.929 1_545 S
C575 C567 1.433 . S
C575 N577 1.384 1_545 S
N576 C572 1.427 . S
N576 C573 1.384 . S
N577 C569 1.427 1_565 S
N577 C575 1.384 1_565 S
H578 C584 0.930 . S
H579 C588 0.930 . S
H580 C593 0.929 . S
H581 C591 0.929 . S
H582 C586 0.929 . S
H583 C592 0.929 . S
C584 H578 0.930 . S
C584 C585 1.367 . S
C584 C592 1.378 . S
C585 C584 1.367 . S
C585 C593 1.433 . S
C586 H582 0.929 . S
C586 C588 1.378 . S
C586 C590 1.350 . S
C587 C590 1.463 . S
C587 C592 1.350 . S
C587 N595 1.427 . S
C588 H579 0.930 . S
C588 C586 1.378 . S
C588 C589 1.367 1_455 S
C589 C588 1.367 1_655 S
C589 C591 1.433 . S
C590 C586 1.350 . S
C590 C587 1.463 . S
C590 N594 1.427 1_455 S
C591 H581 0.929 . S
C591 C589 1.433 . S
C591 N594 1.384 . S
C592 H583 0.929 . S
C592 C584 1.378 . S
C592 C587 1.350 . S
C593 H580 0.929 . S
C593 C585 1.433 . S
C593 N595 1.384 . S
N594 C590 1.427 1_655 S
N594 C591 1.384 . S
N595 C587 1.427 . S
N595 C593 1.384 . S
H596 C602 0.930 . S
H597 C606 0.930 . S
H598 C611 0.930 . S
H599 C609 0.929 . S
H600 C604 0.929 . S
H601 C610 0.929 . S
C602 H596 0.930 . S
C602 C603 1.367 . S
C602 C610 1.378 1_565 S
C603 C602 1.367 . S
C603 C611 1.433 1_565 S
C604 H600 0.929 . S
C604 C606 1.378 . S
C604 C608 1.350 . S
C605 C608 1.463 . S
C605 C610 1.350 . S
C605 N613 1.427 . S
C606 H597 0.930 . S
C606 C604 1.378 . S
C606 C607 1.367 . S
C607 C606 1.367 . S
C607 C609 1.433 . S
C608 C604 1.350 . S
C608 C605 1.463 . S
C608 N612 1.427 . S
C609 H599 0.929 . S
C609 C607 1.433 . S
C609 N612 1.384 . S
C610 H601 0.929 . S
C610 C602 1.378 1_545 S
C610 C605 1.350 . S
C611 H598 0.930 . S
C611 C603 1.433 1_545 S
C611 N613 1.384 . S
N612 C608 1.427 . S
N612 C609 1.384 . S
N613 C605 1.427 . S
N613 C611 1.384 . S
H614 C620 0.930 . S
H615 C624 0.930 . S
H616 C629 0.929 . S
H617 C627 0.929 . S
H618 C622 0.928 1_655 S
H619 C628 0.929 . S
C620 H614 0.930 . S
C620 C621 1.367 . S
C620 C628 1.378 . S
C621 C620 1.367 . S
C621 C629 1.433 . S
C622 H618 0.928 1_455 S
C622 C624 1.377 1_455 S
C622 C626 1.351 . S
C623 C626 1.463 . S
C623 C628 1.350 . S
C623 N631 1.427 . S
C624 H615 0.930 . S
C624 C622 1.377 1_655 S
C624 C625 1.367 . S
C625 C624 1.367 . S
C625 C627 1.433 1_655 S
C626 C622 1.351 . S
C626 C623 1.463 . S
C626 N630 1.427 . S
C627 H617 0.929 . S
C627 C625 1.433 1_455 S
C627 N630 1.384 . S
C628 H619 0.929 . S
C628 C620 1.378 . S
C628 C623 1.350 . S
C629 H616 0.929 . S
C629 C621 1.433 . S
C629 N631 1.384 . S
N630 C626 1.427 . S
N630 C627 1.384 . S
N631 C623 1.427 . S
N631 C629 1.384 . S
C279 C20 1.706 . S
C283 C156 1.702 . S
C297 C190 1.697 . S
C301 C54 1.701 . S
C315 C88 1.697 . S
C319 C224 1.701 . S
C333 C258 1.703 . S
C337 C122 1.698 . S
C351 C172 1.177 . S
C355 C2 1.163 . S
C369 C206 1.161 . S
C373 C36 1.161 . S
C387 C70 1.173 . S
C391 C240 1.171 . S
C405 C138 1.176 . S
C409 C104 1.166 . S
C423 C135 1.291 . S
C427 C237 1.286 . S
C441 C33 1.284 . S
C445 C271 1.293 . S
C459 C67 1.286 . S
C463 C169 1.292 . S
C477 C101 1.283 . S
C481 C203 1.295 . S
C495 C5 0.301 . S
C499 C73 0.316 . S
C513 C39 0.319 . S
C517 C107 0.334 . S
C531 C209 0.314 . S
C535 C141 0.331 . S
C549 C243 0.322 . S
C553 C175 0.305 . S
C567 C9 1.327 . S
C571 C77 1.327 1_565 S
C585 C111 1.310 . S
C589 C43 1.304 1_655 S
C603 C145 1.310 1_565 S
C607 C213 1.316 . S
C621 C179 1.318 . S
C625 C247 1.317 1_655 S
