# Generated by pormake.
# Topology ukc, (4)-cn, num edge types: 1
# Building blocks:
#     Node 0, Type 0, BuildingBlock: KUFVIS_clean_sbu_0, # of connection points: 4
#     Node 1, Type 0, BuildingBlock: KUFVIS_clean_sbu_0, # of connection points: 4
#     Node 2, Type 0, BuildingBlock: KUFVIS_clean_sbu_0, # of connection points: 4
#     Node 3, Type 0, BuildingBlock: KUFVIS_clean_sbu_0, # of connection points: 4
#     Node 4, Type 0, BuildingBlock: KUFVIS_clean_sbu_0, # of connection points: 4
#     Node 5, Type 0, BuildingBlock: KUFVIS_clean_sbu_0, # of connection points: 4
#     Node 6, Type 0, BuildingBlock: KUFVIS_clean_sbu_0, # of connection points: 4
#     Node 7, Type 0, BuildingBlock: KUFVIS_clean_sbu_0, # of connection points: 4
#     Node 8, Type 0, BuildingBlock: KUFVIS_clean_sbu_0, # of connection points: 4
#     Node 9, Type 0, BuildingBlock: KUFVIS_clean_sbu_0, # of connection points: 4
#     Node 10, Type 0, BuildingBlock: KUFVIS_clean_sbu_0, # of connection points: 4
#     Node 11, Type 0, BuildingBlock: KUFVIS_clean_sbu_0, # of connection points: 4
#     Node 12, Type 0, BuildingBlock: KUFVIS_clean_sbu_0, # of connection points: 4
#     Node 13, Type 0, BuildingBlock: KUFVIS_clean_sbu_0, # of connection points: 4
#     Node 14, Type 0, BuildingBlock: KUFVIS_clean_sbu_0, # of connection points: 4
#     Node 15, Type 0, BuildingBlock: KUFVIS_clean_sbu_0, # of connection points: 4
#     Node 16, Type 0, BuildingBlock: KUFVIS_clean_sbu_0, # of connection points: 4
#     Node 17, Type 0, BuildingBlock: KUFVIS_clean_sbu_0, # of connection points: 4
#     Node 18, Type 0, BuildingBlock: KUFVIS_clean_sbu_0, # of connection points: 4
#     Node 19, Type 0, BuildingBlock: KUFVIS_clean_sbu_0, # of connection points: 4
#     Node 20, Type 0, BuildingBlock: KUFVIS_clean_sbu_0, # of connection points: 4
#     Node 21, Type 0, BuildingBlock: KUFVIS_clean_sbu_0, # of connection points: 4
#     Node 22, Type 0, BuildingBlock: KUFVIS_clean_sbu_0, # of connection points: 4
#     Node 23, Type 0, BuildingBlock: KUFVIS_clean_sbu_0, # of connection points: 4
#     Node 24, Type 0, BuildingBlock: KUFVIS_clean_sbu_0, # of connection points: 4
#     Node 25, Type 0, BuildingBlock: KUFVIS_clean_sbu_0, # of connection points: 4
#     Node 26, Type 0, BuildingBlock: KUFVIS_clean_sbu_0, # of connection points: 4
#     Node 27, Type 0, BuildingBlock: KUFVIS_clean_sbu_0, # of connection points: 4
#     Node 28, Type 0, BuildingBlock: KUFVIS_clean_sbu_0, # of connection points: 4
#     Node 29, Type 0, BuildingBlock: KUFVIS_clean_sbu_0, # of connection points: 4
#     Node 30, Type 0, BuildingBlock: KUFVIS_clean_sbu_0, # of connection points: 4
#     Node 31, Type 0, BuildingBlock: KUFVIS_clean_sbu_0, # of connection points: 4
#     Edge 32, Type (0, 0), BuildingBlock: EZIPEK_clean_linker_0, # of connection points: 2
#     Edge 33, Type (0, 0), BuildingBlock: EZIPEK_clean_linker_0, # of connection points: 2
#     Edge 34, Type (0, 0), BuildingBlock: EZIPEK_clean_linker_0, # of connection points: 2
#     Edge 35, Type (0, 0), BuildingBlock: EZIPEK_clean_linker_0, # of connection points: 2
#     Edge 36, Type (0, 0), BuildingBlock: EZIPEK_clean_linker_0, # of connection points: 2
#     Edge 37, Type (0, 0), BuildingBlock: EZIPEK_clean_linker_0, # of connection points: 2
#     Edge 38, Type (0, 0), BuildingBlock: EZIPEK_clean_linker_0, # of connection points: 2
#     Edge 39, Type (0, 0), BuildingBlock: EZIPEK_clean_linker_0, # of connection points: 2
#     Edge 40, Type (0, 0), BuildingBlock: EZIPEK_clean_linker_0, # of connection points: 2
#     Edge 41, Type (0, 0), BuildingBlock: EZIPEK_clean_linker_0, # of connection points: 2
#     Edge 42, Type (0, 0), BuildingBlock: EZIPEK_clean_linker_0, # of connection points: 2
#     Edge 43, Type (0, 0), BuildingBlock: EZIPEK_clean_linker_0, # of connection points: 2
#     Edge 44, Type (0, 0), BuildingBlock: EZIPEK_clean_linker_0, # of connection points: 2
#     Edge 45, Type (0, 0), BuildingBlock: EZIPEK_clean_linker_0, # of connection points: 2
#     Edge 46, Type (0, 0), BuildingBlock: EZIPEK_clean_linker_0, # of connection points: 2
#     Edge 47, Type (0, 0), BuildingBlock: EZIPEK_clean_linker_0, # of connection points: 2
#     Edge 48, Type (0, 0), BuildingBlock: EZIPEK_clean_linker_0, # of connection points: 2
#     Edge 49, Type (0, 0), BuildingBlock: EZIPEK_clean_linker_0, # of connection points: 2
#     Edge 50, Type (0, 0), BuildingBlock: EZIPEK_clean_linker_0, # of connection points: 2
#     Edge 51, Type (0, 0), BuildingBlock: EZIPEK_clean_linker_0, # of connection points: 2
#     Edge 52, Type (0, 0), BuildingBlock: EZIPEK_clean_linker_0, # of connection points: 2
#     Edge 53, Type (0, 0), BuildingBlock: EZIPEK_clean_linker_0, # of connection points: 2
#     Edge 54, Type (0, 0), BuildingBlock: EZIPEK_clean_linker_0, # of connection points: 2
#     Edge 55, Type (0, 0), BuildingBlock: EZIPEK_clean_linker_0, # of connection points: 2
#     Edge 56, Type (0, 0), BuildingBlock: EZIPEK_clean_linker_0, # of connection points: 2
#     Edge 57, Type (0, 0), BuildingBlock: EZIPEK_clean_linker_0, # of connection points: 2
#     Edge 58, Type (0, 0), BuildingBlock: EZIPEK_clean_linker_0, # of connection points: 2
#     Edge 59, Type (0, 0), BuildingBlock: EZIPEK_clean_linker_0, # of connection points: 2
#     Edge 60, Type (0, 0), BuildingBlock: EZIPEK_clean_linker_0, # of connection points: 2
#     Edge 61, Type (0, 0), BuildingBlock: EZIPEK_clean_linker_0, # of connection points: 2
#     Edge 62, Type (0, 0), BuildingBlock: EZIPEK_clean_linker_0, # of connection points: 2
#     Edge 63, Type (0, 0), BuildingBlock: EZIPEK_clean_linker_0, # of connection points: 2
#     Edge 64, Type (0, 0), BuildingBlock: EZIPEK_clean_linker_0, # of connection points: 2
#     Edge 65, Type (0, 0), BuildingBlock: EZIPEK_clean_linker_0, # of connection points: 2
#     Edge 66, Type (0, 0), BuildingBlock: EZIPEK_clean_linker_0, # of connection points: 2
#     Edge 67, Type (0, 0), BuildingBlock: EZIPEK_clean_linker_0, # of connection points: 2
#     Edge 68, Type (0, 0), BuildingBlock: EZIPEK_clean_linker_0, # of connection points: 2
#     Edge 69, Type (0, 0), BuildingBlock: EZIPEK_clean_linker_0, # of connection points: 2
#     Edge 70, Type (0, 0), BuildingBlock: EZIPEK_clean_linker_0, # of connection points: 2
#     Edge 71, Type (0, 0), BuildingBlock: EZIPEK_clean_linker_0, # of connection points: 2
#     Edge 72, Type (0, 0), BuildingBlock: EZIPEK_clean_linker_0, # of connection points: 2
#     Edge 73, Type (0, 0), BuildingBlock: EZIPEK_clean_linker_0, # of connection points: 2
#     Edge 74, Type (0, 0), BuildingBlock: EZIPEK_clean_linker_0, # of connection points: 2
#     Edge 75, Type (0, 0), BuildingBlock: EZIPEK_clean_linker_0, # of connection points: 2
#     Edge 76, Type (0, 0), BuildingBlock: EZIPEK_clean_linker_0, # of connection points: 2
#     Edge 77, Type (0, 0), BuildingBlock: EZIPEK_clean_linker_0, # of connection points: 2
#     Edge 78, Type (0, 0), BuildingBlock: EZIPEK_clean_linker_0, # of connection points: 2
#     Edge 79, Type (0, 0), BuildingBlock: EZIPEK_clean_linker_0, # of connection points: 2
#     Edge 80, Type (0, 0), BuildingBlock: EZIPEK_clean_linker_0, # of connection points: 2
#     Edge 81, Type (0, 0), BuildingBlock: EZIPEK_clean_linker_0, # of connection points: 2
#     Edge 82, Type (0, 0), BuildingBlock: EZIPEK_clean_linker_0, # of connection points: 2
#     Edge 83, Type (0, 0), BuildingBlock: EZIPEK_clean_linker_0, # of connection points: 2
#     Edge 84, Type (0, 0), BuildingBlock: EZIPEK_clean_linker_0, # of connection points: 2
#     Edge 85, Type (0, 0), BuildingBlock: EZIPEK_clean_linker_0, # of connection points: 2
#     Edge 86, Type (0, 0), BuildingBlock: EZIPEK_clean_linker_0, # of connection points: 2
#     Edge 87, Type (0, 0), BuildingBlock: EZIPEK_clean_linker_0, # of connection points: 2
#     Edge 88, Type (0, 0), BuildingBlock: EZIPEK_clean_linker_0, # of connection points: 2
#     Edge 89, Type (0, 0), BuildingBlock: EZIPEK_clean_linker_0, # of connection points: 2
#     Edge 90, Type (0, 0), BuildingBlock: EZIPEK_clean_linker_0, # of connection points: 2
#     Edge 91, Type (0, 0), BuildingBlock: EZIPEK_clean_linker_0, # of connection points: 2
#     Edge 92, Type (0, 0), BuildingBlock: EZIPEK_clean_linker_0, # of connection points: 2
#     Edge 93, Type (0, 0), BuildingBlock: EZIPEK_clean_linker_0, # of connection points: 2
#     Edge 94, Type (0, 0), BuildingBlock: EZIPEK_clean_linker_0, # of connection points: 2
#     Edge 95, Type (0, 0), BuildingBlock: EZIPEK_clean_linker_0, # of connection points: 2
# Relax obj value: 0.037
# Max RMSD: 0.055
# Mean RMSD: 0.055
data_MOF--net-ukc--node1-KUFVIS_clean_sbu_0--edge1-EZIPEK_clean_linker_0
_symmetry_space_group_name_H-M    P1
_symmetry_Int_Tables_number       1
_symmetry_cell_setting            triclinic
loop_
_symmetry_equiv_pos_as_xyz
'x, y, z'
_cell_length_a     32.285062
_cell_length_b     32.268418
_cell_length_c     65.159591
_cell_angle_alpha  90.053171
_cell_angle_beta   90.033727
_cell_angle_gamma 89.987451
loop_
_atom_site_label
_atom_site_type_symbol
_atom_site_fract_x
_atom_site_fract_y
_atom_site_fract_z
_atom_type_partial_charge
Mn0 Mn 0.10015 0.38015 0.06013 0.0
Mn1 Mn 0.08356 0.35611 1.01002 0.0
C2 C 0.05169 0.32847 0.05156 0.0
C3 C 0.12581 0.37607 0.09416 0.0
C4 C 0.05554 0.43604 0.02953 0.0
O5 O 0.15465 0.39818 0.04597 0.0
O6 O 0.14206 0.37652 1.01321 0.0
C7 C 0.14184 0.29694 0.99087 0.0
N8 N 0.10257 0.30451 0.99759 0.0
C9 C 0.07879 0.24929 0.96987 0.0
C10 C 0.12045 0.24443 0.96515 0.0
C11 C 0.15088 0.26733 0.97556 0.0
C12 C 0.07032 0.28493 0.98872 0.0
H13 H 0.16721 0.31519 0.99654 0.0
C14 C 0.16593 0.39179 0.02723 0.0
O15 O 0.11177 0.40996 0.08639 0.0
O16 O 0.12951 0.34495 0.08152 0.0
N17 N 0.02759 0.33611 1.00809 0.0
C18 C 0.99237 0.35552 1.01435 0.0
C19 C 0.95332 0.33706 1.01257 0.0
C20 C 0.94704 0.29849 1.00337 0.0
C21 C 0.98051 0.27719 0.99326 0.0
C22 C 0.02625 0.29924 0.99905 0.0
H23 H 0.99377 0.38513 0.02181 0.0
O24 O 0.04828 0.35107 0.06797 0.0
O25 O 0.08299 0.33785 0.03949 0.0
O26 O 0.067 0.42856 0.0477 0.0
O27 O 0.06249 0.41139 0.01503 0.0
C28 C 0.99143 0.2204 0.96443 0.0
C29 C 0.0431 0.21798 0.95816 0.0
H30 H 0.12972 0.22227 0.95355 0.0
H31 H 0.18293 0.2629 0.97118 0.0
H32 H 0.92681 0.35332 0.01882 0.0
H33 H 0.9152 0.28818 1.00347 0.0
H34 H 0.96992 0.20018 0.95617 0.0
H35 H 0.05314 0.19608 0.94661 0.0
Mn36 Mn 0.87176 0.84903 0.31069 0.0
Mn37 Mn 0.89748 0.83326 0.261 0.0
C38 C 0.9247 0.80142 0.30265 0.0
C39 C 0.875 0.87563 0.34447 0.0
C40 C 0.81723 0.8042 0.2799 0.0
O41 O 0.8513 0.90231 0.29594 0.0
O42 O 0.87776 0.89187 0.2641 0.0
C43 C 0.95835 0.89139 0.24311 0.0
N44 N 0.94947 0.85187 0.24904 0.0
C45 C 0.00391 0.82795 0.22102 0.0
C46 C 0.00938 0.86975 0.21667 0.0
C47 C 0.98765 0.90035 0.22765 0.0
C48 C 0.96824 0.81956 0.2398 0.0
H49 H 0.94176 0.91711 0.24981 0.0
C50 C 0.86014 0.91511 0.27769 0.0
O51 O 0.8415 0.86042 0.33679 0.0
O52 O 0.90588 0.88022 0.33181 0.0
N53 N 0.91698 0.77711 0.25913 0.0
C54 C 0.89743 0.74199 0.26539 0.0
C55 C 0.91571 0.70284 0.26365 0.0
C56 C 0.95428 0.69639 0.25453 0.0
C57 C 0.9757 0.72975 0.2444 0.0
C58 C 0.95378 0.77556 0.25009 0.0
H59 H 0.86788 0.74354 0.27281 0.0
O60 O 0.90222 0.79815 0.31907 0.0
O61 O 0.91492 0.83247 0.29049 0.0
O62 O 0.82487 0.81404 0.29828 0.0
O63 O 0.84162 0.81279 0.2655 0.0
C64 C 0.03261 0.74035 0.21566 0.0
C65 C 0.03515 0.79208 0.20935 0.0
H66 H 0.0316 0.87904 0.20512 0.0
H67 H 0.99311 0.93249 0.22376 0.0
H68 H 0.89936 0.67641 0.26991 0.0
H69 H 0.96448 0.66452 0.25471 0.0
H70 H 0.05279 0.71871 0.20746 0.0
H71 H 0.05719 0.80207 0.19788 0.0
Mn72 Mn 0.4035 0.62358 0.55958 0.0
Mn73 Mn 0.41859 0.64872 0.50966 0.0
C74 C 0.45331 0.67376 0.5511 0.0
C75 C 0.38129 0.62604 0.59427 0.0
C76 C 0.44239 0.5659 0.52754 0.0
O77 O 0.34752 0.60868 0.54607 0.0
O78 O 0.35988 0.6295 0.51319 0.0
C79 C 0.36085 0.70968 0.49155 0.0
N80 N 0.40022 0.70099 0.49782 0.0
C81 C 0.42411 0.75689 0.47055 0.0
C82 C 0.38241 0.76277 0.46622 0.0
C83 C 0.35188 0.74003 0.47661 0.0
C84 C 0.43252 0.72004 0.4888 0.0
H85 H 0.33531 0.69183 0.4973 0.0
C86 C 0.33604 0.61498 0.52738 0.0
O87 O 0.39188 0.59211 0.58528 0.0
O88 O 0.37821 0.65836 0.58237 0.0
N89 N 0.47486 0.66734 0.50735 0.0
C90 C 0.50983 0.64689 0.51312 0.0
C91 C 0.54918 0.66477 0.51126 0.0
C92 C 0.55586 0.70385 0.50262 0.0
C93 C 0.52248 0.72636 0.49308 0.0
C94 C 0.4766 0.70454 0.49871 0.0
H95 H 0.50794 0.61684 0.52025 0.0
O96 O 0.45704 0.64994 0.56707 0.0
O97 O 0.42106 0.66616 0.5393 0.0
O98 O 0.4329 0.57437 0.54586 0.0
O99 O 0.43825 0.59281 0.51385 0.0
C100 C 0.51168 0.78504 0.46522 0.0
C101 C 0.45995 0.78845 0.4592 0.0
H102 H 0.37318 0.7857 0.455 0.0
H103 H 0.31978 0.74532 0.47257 0.0
H104 H 0.5756 0.64773 0.51706 0.0
H105 H 0.58785 0.71366 0.50268 0.0
H106 H 0.53327 0.80547 0.45717 0.0
H107 H 0.44996 0.81119 0.44806 0.0
Mn108 Mn 0.63346 0.15501 0.8098 0.0
Mn109 Mn 0.60528 0.16987 0.76039 0.0
C110 C 0.57985 0.20229 0.8022 0.0
C111 C 0.63298 0.13056 0.84402 0.0
C112 C 0.68624 0.19972 0.77826 0.0
O113 O 0.65304 0.10128 0.79506 0.0
O114 O 0.62593 0.11159 0.76335 0.0
C115 C 0.54403 0.11049 0.7438 0.0
N116 N 0.55288 0.15033 0.74924 0.0
C117 C 0.49757 0.17266 0.72132 0.0
C118 C 0.49217 0.13064 0.71746 0.0
C119 C 0.5143 0.10067 0.72864 0.0
C120 C 0.53352 0.1821 0.73987 0.0
H121 H 0.56096 0.08518 0.75066 0.0
C122 C 0.64402 0.08847 0.77681 0.0
O123 O 0.66605 0.14388 0.83518 0.0
O124 O 0.60096 0.12555 0.83206 0.0
N125 N 0.58507 0.22572 0.75847 0.0
C126 C 0.60458 0.26116 0.76433 0.0
C127 C 0.58611 0.30015 0.76226 0.0
C128 C 0.54751 0.30606 0.75307 0.0
C129 C 0.52608 0.27213 0.74336 0.0
C130 C 0.54809 0.22667 0.74958 0.0
H131 H 0.63426 0.26002 0.77167 0.0
O132 O 0.6031 0.20605 0.81838 0.0
O133 O 0.58927 0.17107 0.79008 0.0
O134 O 0.67963 0.18959 0.79667 0.0
O135 O 0.66114 0.19121 0.76413 0.0
C136 C 0.46878 0.25993 0.71493 0.0
C137 C 0.46615 0.20786 0.70929 0.0
H138 H 0.46975 0.12071 0.70612 0.0
H139 H 0.50888 0.06832 0.72514 0.0
H140 H 0.60242 0.32692 0.76822 0.0
H141 H 0.53726 0.33793 0.75287 0.0
H142 H 0.44845 0.2811 0.70653 0.0
H143 H 0.44395 0.19725 0.69801 0.0
Mn144 Mn 0.09719 0.62312 0.46917 0.0
Mn145 Mn 0.0805 0.64915 0.51902 0.0
C146 C 0.04842 0.6748 0.47719 0.0
C147 C 0.12143 0.62471 0.43484 0.0
C148 C 0.05305 0.56839 0.50035 0.0
O149 O 0.15196 0.60658 0.48338 0.0
O150 O 0.13891 0.62849 0.51604 0.0
C151 C 0.13904 0.70869 0.53769 0.0
N152 N 0.09971 0.70106 0.53103 0.0
C153 C 0.07623 0.75689 0.55851 0.0
C154 C 0.11791 0.76179 0.56315 0.0
C155 C 0.14824 0.7386 0.55283 0.0
C156 C 0.06756 0.72086 0.53985 0.0
H157 H 0.16433 0.69022 0.53214 0.0
C158 C 0.16298 0.61326 0.50211 0.0
O159 O 0.10934 0.5912 0.44368 0.0
O160 O 0.12485 0.657 0.44677 0.0
N161 N 0.02461 0.66935 0.5208 0.0
C162 C 0.98934 0.64984 0.51469 0.0
C163 C 0.95032 0.6684 0.51643 0.0
C164 C 0.94415 0.70719 0.52543 0.0
C165 C 0.97773 0.72866 0.53538 0.0
C166 C 0.02339 0.70641 0.52966 0.0
H167 H 0.9907 0.62004 0.5074 0.0
O168 O 0.04497 0.65141 0.46103 0.0
O169 O 0.07983 0.66618 0.48933 0.0
O170 O 0.065 0.57499 0.48221 0.0
O171 O 0.05924 0.59382 0.51459 0.0
C172 C 0.98896 0.78606 0.56389 0.0
C173 C 0.04067 0.78852 0.57009 0.0
H174 H 0.1273 0.78417 0.57462 0.0
H175 H 0.18031 0.74304 0.55716 0.0
H176 H 0.92375 0.65205 0.5103 0.0
H177 H 0.91233 0.71754 0.52533 0.0
H178 H 0.96753 0.8065 0.57207 0.0
H179 H 0.05082 0.81065 0.58151 0.0
Mn180 Mn 0.63276 0.84791 0.71721 0.0
Mn181 Mn 0.60471 0.83462 0.7668 0.0
C182 C 0.57786 0.80226 0.72519 0.0
C183 C 0.6341 0.87305 0.68299 0.0
C184 C 0.68509 0.80302 0.74889 0.0
O185 O 0.65406 0.90125 0.7319 0.0
O186 O 0.62567 0.89254 0.76346 0.0
C187 C 0.54416 0.89465 0.7834 0.0
N188 N 0.55258 0.85467 0.77805 0.0
C189 C 0.49788 0.83316 0.8064 0.0
C190 C 0.49285 0.87528 0.81013 0.0
C191 C 0.51488 0.90492 0.79869 0.0
C192 C 0.53318 0.82318 0.78763 0.0
H193 H 0.56113 0.91972 0.77637 0.0
C194 C 0.64456 0.91487 0.74997 0.0
O195 O 0.66585 0.85686 0.6918 0.0
O196 O 0.60187 0.87914 0.69467 0.0
N197 N 0.58409 0.77895 0.76901 0.0
C198 C 0.60335 0.74328 0.76333 0.0
C199 C 0.58476 0.70443 0.76563 0.0
C200 C 0.54634 0.69889 0.77501 0.0
C201 C 0.52534 0.73312 0.78468 0.0
C202 C 0.54728 0.77836 0.77805 0.0
H203 H 0.63292 0.74413 0.756 0.0
O204 O 0.60051 0.79789 0.70889 0.0
O205 O 0.58827 0.83342 0.73713 0.0
O206 O 0.67776 0.81177 0.73037 0.0
O207 O 0.66063 0.81299 0.76308 0.0
C208 C 0.46902 0.74612 0.81348 0.0
C209 C 0.46674 0.79833 0.81886 0.0
H210 H 0.47084 0.88555 0.82157 0.0
H211 H 0.50978 0.93736 0.8021 0.0
H212 H 0.60087 0.67747 0.75975 0.0
H213 H 0.53597 0.66708 0.77542 0.0
H214 H 0.44891 0.7252 0.82213 0.0
H215 H 0.44496 0.80928 0.83025 0.0
Mn216 Mn 0.40566 0.38243 0.96922 0.0
Mn217 Mn 0.42183 0.35684 0.01911 0.0
C218 C 0.45433 0.3307 0.97741 0.0
C219 C 0.38226 0.3803 0.93475 0.0
C220 C 0.44954 0.4375 1.00048 0.0
O221 O 0.3506 0.39903 0.98327 0.0
O222 O 0.36334 0.37734 0.01599 0.0
C223 C 0.36338 0.29713 0.03763 0.0
N224 N 0.40273 0.30492 0.03109 0.0
C225 C 0.42628 0.24927 0.0586 0.0
C226 C 0.38458 0.24425 0.06317 0.0
C227 C 0.35422 0.26726 0.05278 0.0
C228 C 0.43491 0.28528 0.03998 0.0
H229 H 0.33803 0.31538 0.03196 0.0
C230 C 0.33936 0.39248 1.00199 0.0
O231 O 0.39396 0.41401 0.94358 0.0
O232 O 0.37845 0.34823 0.94676 0.0
N233 N 0.47777 0.33681 0.02099 0.0
C234 C 0.51301 0.35634 0.01488 0.0
C235 C 0.55206 0.33786 0.01663 0.0
C236 C 0.55829 0.29912 0.02564 0.0
C237 C 0.52474 0.27764 0.03558 0.0
C238 C 0.47905 0.29979 0.02983 0.0
H239 H 0.51161 0.38607 1.00756 0.0
O240 O 0.458 0.35409 0.96128 0.0
O241 O 0.42281 0.33947 0.98945 0.0
O242 O 0.43779 0.43073 0.9823 0.0
O243 O 0.44303 0.41222 0.01472 0.0
C244 C 0.51362 0.22027 0.06404 0.0
C245 C 0.4619 0.21773 0.07021 0.0
H246 H 0.37522 0.22187 0.07462 0.0
H247 H 0.32213 0.26268 0.05702 0.0
H248 H 0.5786 0.35422 1.0105 0.0
H249 H 0.59012 0.28882 0.02554 0.0
H250 H 0.53509 0.19988 0.07222 0.0
H251 H 0.45178 0.19558 0.0816 0.0
Mn252 Mn 0.8699 0.15544 0.21823 0.0
Mn253 Mn 0.89793 0.17105 0.26765 0.0
C254 C 0.92319 0.20313 0.2258 0.0
C255 C 0.87084 0.13063 0.18403 0.0
C256 C 0.81672 0.19999 0.24976 0.0
O257 O 0.85085 0.10171 0.23299 0.0
O258 O 0.87775 0.11254 0.26471 0.0
C259 C 0.95911 0.11241 0.28487 0.0
N260 N 0.95022 0.15205 0.27913 0.0
C261 C 0.00488 0.17543 0.30719 0.0
C262 C 0.01035 0.13354 0.31135 0.0
C263 C 0.98854 0.10316 0.30026 0.0
C264 C 0.96913 0.18418 0.28847 0.0
H265 H 0.94244 0.08684 0.27809 0.0
C266 C 0.85999 0.08911 0.25124 0.0
O267 O 0.83759 0.14383 0.19278 0.0
O268 O 0.90281 0.12606 0.19605 0.0
N269 N 0.91776 0.22705 0.26941 0.0
C270 C 0.89819 0.26227 0.26327 0.0
C271 C 0.91654 0.30135 0.26512 0.0
C272 C 0.95515 0.3076 0.27426 0.0
C273 C 0.97661 0.27405 0.28424 0.0
C274 C 0.95465 0.22837 0.27837 0.0
H275 H 0.86858 0.26083 0.25582 0.0
O276 O 0.89984 0.20667 0.20965 0.0
O277 O 0.91398 0.17196 0.23796 0.0
O278 O 0.8232 0.18955 0.23136 0.0
O279 O 0.84218 0.1921 0.26379 0.0
C280 C 0.03365 0.26292 0.31291 0.0
C281 C 0.0362 0.21106 0.319 0.0
H282 H 0.03263 0.12402 0.32284 0.0
H283 H 0.99401 0.07094 0.30399 0.0
H284 H 0.90021 0.3279 0.25896 0.0
H285 H 0.96538 0.33946 0.27419 0.0
H286 H 0.05388 0.2844 0.32118 0.0
H287 H 0.05829 0.20086 0.33041 0.0
Mn288 Mn 0.90464 0.62224 0.96903 0.0
Mn289 Mn 0.92193 0.6468 0.01908 0.0
C290 C 0.95347 0.67363 0.9774 0.0
C291 C 0.87865 0.62636 0.93503 0.0
C292 C 0.94949 0.56658 0.99969 0.0
O293 O 0.85021 0.60467 0.98337 0.0
O294 O 0.86341 0.62632 0.01608 0.0
C295 C 0.86371 0.70626 0.03806 0.0
N296 N 0.90297 0.69858 0.03135 0.0
C297 C 0.92682 0.75423 0.05884 0.0
C298 C 0.88518 0.75915 0.06358 0.0
C299 C 0.85471 0.73609 0.05328 0.0
C300 C 0.93525 0.71834 0.0401 0.0
H301 H 0.83833 0.68793 0.03249 0.0
C302 C 0.83927 0.61111 1.00215 0.0
O303 O 0.89256 0.5924 0.9428 0.0
O304 O 0.8753 0.65752 0.94766 0.0
N305 N 0.97791 0.66688 0.02087 0.0
C306 C 0.01312 0.64734 0.0147 0.0
C307 C 0.05219 0.66582 0.01641 0.0
C308 C 0.05851 0.70454 0.02546 0.0
C309 C 0.02505 0.72601 0.0355 0.0
C310 C 0.97929 0.7039 0.02979 0.0
H311 H 0.01169 0.61759 1.00737 0.0
O312 O 0.95662 0.6509 0.96102 0.0
O313 O 0.92224 0.66457 0.98955 0.0
O314 O 0.9376 0.57375 0.98154 0.0
O315 O 0.943 0.5915 1.01413 0.0
C316 C 0.01419 0.78317 0.06415 0.0
C317 C 0.96254 0.78568 0.07044 0.0
H318 H 0.87594 0.78146 0.07511 0.0
H319 H 0.82268 0.74058 0.05766 0.0
H320 H 0.07868 0.64945 1.01022 0.0
H321 H 0.09035 0.71483 0.02532 0.0
H322 H 0.03572 0.80348 0.07234 0.0
H323 H 0.95252 0.80772 0.08192 0.0
Mn324 Mn 0.13077 0.15491 0.7191 0.0
Mn325 Mn 0.1056 0.17247 0.76895 0.0
C326 C 0.07965 0.20429 0.72708 0.0
C327 C 0.12828 0.13087 0.68473 0.0
C328 C 0.18633 0.19907 0.75003 0.0
O329 O 0.14689 0.09997 0.73341 0.0
O330 O 0.12559 0.11363 0.76611 0.0
C331 C 0.04568 0.11503 0.78808 0.0
N332 N 0.05369 0.15412 0.78122 0.0
C333 C 0.99818 0.17897 0.80854 0.0
C334 C 0.99298 0.13744 0.81347 0.0
C335 C 0.01582 0.10657 0.80334 0.0
C336 C 0.03432 0.18674 0.78989 0.0
H337 H 0.06373 0.08935 0.78258 0.0
C338 C 0.14039 0.08918 0.7522 0.0
O339 O 0.16212 0.14236 0.69349 0.0
O340 O 0.09624 0.12759 0.69679 0.0
N341 N 0.08602 0.22866 0.77053 0.0
C342 C 0.10575 0.26362 0.76418 0.0
C343 C 0.08741 0.30282 0.76556 0.0
C344 C 0.04853 0.3095 0.77434 0.0
C345 C 0.02682 0.27641 0.78453 0.0
C346 C 0.04897 0.23043 0.77932 0.0
H347 H 0.13554 0.26186 0.75694 0.0
O348 O 0.10303 0.20737 0.71092 0.0
O349 O 0.08807 0.17293 0.7393 0.0
O350 O 0.17943 0.18686 0.73194 0.0
O351 O 0.16107 0.19314 0.76433 0.0
C352 C 0.96922 0.2666 0.81299 0.0
C353 C 0.96659 0.21513 0.8197 0.0
H354 H 0.97052 0.12859 0.82498 0.0
H355 H 0.01106 0.07465 0.80785 0.0
H356 H 0.10394 0.32909 0.75927 0.0
H357 H 0.0383 0.34135 0.77387 0.0
H358 H 0.94882 0.28845 0.82092 0.0
H359 H 0.94434 0.20552 0.83115 0.0
Mn360 Mn 0.59587 0.38029 0.46994 0.0
Mn361 Mn 0.58653 0.35 0.51896 0.0
C362 C 0.55171 0.32479 0.47717 0.0
C363 C 0.61967 0.38326 0.43554 0.0
C364 C 0.55396 0.43096 0.50343 0.0
O365 O 0.65 0.40063 0.48436 0.0
O366 O 0.64482 0.36819 0.51531 0.0
C367 C 0.64331 0.28719 0.53596 0.0
N368 N 0.60388 0.29688 0.53017 0.0
C369 C 0.57982 0.24264 0.55822 0.0
C370 C 0.62155 0.23608 0.56225 0.0
C371 C 0.65218 0.25741 0.5512 0.0
C372 C 0.57155 0.27893 0.53969 0.0
H373 H 0.66907 0.3038 0.52952 0.0
C374 C 0.66519 0.38896 0.50179 0.0
O375 O 0.60438 0.41498 0.4449 0.0
O376 O 0.62656 0.35094 0.44704 0.0
N377 N 0.52963 0.3318 0.52105 0.0
C378 C 0.49471 0.35124 0.5144 0.0
C379 C 0.4553 0.33368 0.51649 0.0
C380 C 0.44832 0.29545 0.52585 0.0
C381 C 0.48155 0.2733 0.53567 0.0
C382 C 0.52759 0.29464 0.52984 0.0
H383 H 0.49644 0.38013 0.50639 0.0
O384 O 0.54666 0.34825 0.46117 0.0
O385 O 0.58327 0.3345 0.48909 0.0
O386 O 0.55734 0.42227 0.48455 0.0
O387 O 0.57048 0.40808 0.51651 0.0
C388 C 0.49201 0.21546 0.56399 0.0
C389 C 0.54378 0.2118 0.56994 0.0
H390 H 0.63072 0.21341 0.57362 0.0
H391 H 0.68431 0.25137 0.5549 0.0
H392 H 0.42904 0.35028 0.5102 0.0
H393 H 0.41625 0.28588 0.52592 0.0
H394 H 0.47029 0.19541 0.57219 0.0
H395 H 0.55368 0.18925 0.58119 0.0
Mn396 Mn 0.37237 0.84998 0.21887 0.0
Mn397 Mn 0.39728 0.83319 0.26883 0.0
C398 C 0.42375 0.80107 0.22715 0.0
C399 C 0.37489 0.87358 0.18446 0.0
C400 C 0.31695 0.80567 0.24971 0.0
O401 O 0.35569 0.90497 0.23301 0.0
O402 O 0.37664 0.89171 0.2658 0.0
C403 C 0.45659 0.89173 0.28768 0.0
N404 N 0.449 0.85237 0.28103 0.0
C405 C 0.5044 0.82885 0.30869 0.0
C406 C 0.50925 0.87057 0.31334 0.0
C407 C 0.48628 0.90092 0.30293 0.0
C408 C 0.46869 0.82019 0.2899 0.0
H409 H 0.4383 0.91705 0.28202 0.0
C410 C 0.36181 0.91592 0.25181 0.0
O411 O 0.34109 0.86194 0.19318 0.0
O412 O 0.40685 0.87726 0.19658 0.0
N413 N 0.41745 0.77725 0.27068 0.0
C414 C 0.39801 0.74196 0.26451 0.0
C415 C 0.41652 0.7029 0.26631 0.0
C416 C 0.45514 0.69671 0.27545 0.0
C417 C 0.47647 0.7303 0.28548 0.0
C418 C 0.45438 0.776 0.27965 0.0
H419 H 0.36833 0.74331 0.25711 0.0
O420 O 0.40063 0.7976 0.2109 0.0
O421 O 0.41494 0.83254 0.23924 0.0
O422 O 0.32388 0.81787 0.23164 0.0
O423 O 0.34204 0.81185 0.26409 0.0
C424 C 0.53336 0.74151 0.31421 0.0
C425 C 0.53578 0.79326 0.32041 0.0
H426 H 0.53145 0.87995 0.3249 0.0
H427 H 0.49071 0.93302 0.30726 0.0
H428 H 0.40025 0.67632 0.26013 0.0
H429 H 0.46546 0.66486 0.27539 0.0
H430 H 0.55362 0.72006 0.32248 0.0
H431 H 0.55771 0.80341 0.33191 0.0
Mn432 Mn 0.90319 0.38064 0.55975 0.0
Mn433 Mn 0.92123 0.3573 0.50967 0.0
C434 C 0.95198 0.32923 0.55134 0.0
C435 C 0.877 0.37634 0.59363 0.0
C436 C 0.94836 0.43692 0.52968 0.0
O437 O 0.84903 0.39863 0.5453 0.0
O438 O 0.86277 0.37775 0.51252 0.0
C439 C 0.86339 0.29871 0.48976 0.0
N440 N 0.90246 0.30598 0.49688 0.0
C441 C 0.92688 0.25092 0.46923 0.0
C442 C 0.88537 0.24624 0.46416 0.0
C443 C 0.85471 0.26925 0.47433 0.0
C444 C 0.93491 0.2864 0.4882 0.0
H445 H 0.83795 0.31715 0.49516 0.0
C446 C 0.83843 0.39266 0.52643 0.0
O447 O 0.89097 0.41031 0.58595 0.0
O448 O 0.87359 0.34525 0.58096 0.0
N449 N 0.97721 0.33724 0.50805 0.0
C450 C 0.01229 0.35652 0.51461 0.0
C451 C 0.05135 0.33798 0.51305 0.0
C452 C 0.05779 0.29945 0.50382 0.0
C453 C 0.02455 0.27833 0.49342 0.0
C454 C 0.97872 0.30049 0.4989 0.0
H455 H 0.01073 0.38608 0.52212 0.0
O456 O 0.95499 0.3517 0.56782 0.0
O457 O 0.92096 0.33863 0.53909 0.0
O458 O 0.93628 0.42928 0.54771 0.0
O459 O 0.94217 0.41239 0.51506 0.0
C460 C 0.01429 0.22176 0.46443 0.0
C461 C 0.96281 0.21956 0.45775 0.0
H462 H 0.87638 0.2242 0.45245 0.0
H463 H 0.8228 0.26505 0.46965 0.0
H464 H 0.07772 0.35411 0.51953 0.0
H465 H 0.08959 0.28905 0.50413 0.0
H466 H 0.03597 0.20153 0.4563 0.0
H467 H 0.95305 0.19777 0.44609 0.0
Mn468 Mn 0.3726 0.15517 0.3106 0.0
Mn469 Mn 0.39699 0.17163 0.26054 0.0
C470 C 0.42414 0.20378 0.30214 0.0
C471 C 0.37664 0.12969 0.34467 0.0
C472 C 0.31681 0.19947 0.27979 0.0
O473 O 0.35494 0.10047 0.29641 0.0
O474 O 0.37666 0.1131 0.26368 0.0
C475 C 0.45637 0.11329 0.24159 0.0
N476 N 0.4487 0.15261 0.24827 0.0
C477 C 0.50421 0.1763 0.22075 0.0
C478 C 0.50915 0.13461 0.21606 0.0
C479 C 0.48614 0.10419 0.22639 0.0
C480 C 0.46834 0.18485 0.23946 0.0
H481 H 0.43808 0.08793 0.2472 0.0
C482 C 0.36144 0.08918 0.27768 0.0
O483 O 0.34273 0.14355 0.33683 0.0
O484 O 0.4078 0.12607 0.33209 0.0
N485 N 0.41693 0.22765 0.25863 0.0
C486 C 0.39742 0.26291 0.26479 0.0
C487 C 0.41588 0.30199 0.26306 0.0
C488 C 0.45457 0.30825 0.25402 0.0
C489 C 0.47601 0.27473 0.24401 0.0
C490 C 0.4539 0.22898 0.24972 0.0
H491 H 0.36772 0.26151 0.27213 0.0
O492 O 0.40141 0.20722 0.31849 0.0
O493 O 0.41496 0.17239 0.29006 0.0
O494 O 0.32412 0.18808 0.298 0.0
O495 O 0.34166 0.19263 0.26539 0.0
C496 C 0.53316 0.26368 0.21542 0.0
C497 C 0.53567 0.21197 0.20917 0.0
H498 H 0.53144 0.1253 0.20455 0.0
H499 H 0.49063 0.07212 0.22204 0.0
H500 H 0.39953 0.32853 0.26923 0.0
H501 H 0.46486 0.34011 0.25414 0.0
H502 H 0.55348 0.28517 0.20724 0.0
H503 H 0.55771 0.20188 0.19771 0.0
Mn504 Mn 0.60049 0.62383 0.06084 0.0
Mn505 Mn 0.58391 0.64741 1.0107 0.0
C506 C 0.55203 0.67534 0.05218 0.0
C507 C 0.62571 0.62821 0.09493 0.0
C508 C 0.55589 0.56772 0.03033 0.0
O509 O 0.65505 0.60572 0.04673 0.0
O510 O 0.64235 0.62691 1.01391 0.0
C511 C 0.64231 0.70641 0.99158 0.0
N512 N 0.60299 0.69889 0.99824 0.0
C513 C 0.57936 0.75384 0.9704 0.0
C514 C 0.62104 0.75865 0.96574 0.0
C515 C 0.65143 0.73586 0.97623 0.0
C516 C 0.57079 0.71841 0.9893 0.0
H517 H 0.66766 0.68825 0.99733 0.0
C518 C 0.66625 0.61182 0.02796 0.0
O519 O 0.61193 0.59421 0.08713 0.0
O520 O 0.6296 0.65922 0.08226 0.0
N521 N 0.52796 0.66746 1.00872 0.0
C522 C 0.49272 0.64813 0.01497 0.0
C523 C 0.45367 0.66658 1.01311 0.0
C524 C 0.44743 0.70505 1.00383 0.0
C525 C 0.48096 0.72622 0.99371 0.0
C526 C 0.52667 0.70424 0.9996 0.0
H527 H 0.49408 0.61859 0.02247 0.0
O528 O 0.54856 0.65289 0.06861 0.0
O529 O 0.58336 0.66589 0.04014 0.0
O530 O 0.56748 0.5753 0.04847 0.0
O531 O 0.56276 0.59223 0.01579 0.0
C532 C 0.49201 0.78269 0.9648 0.0
C533 C 0.54371 0.78504 0.95859 0.0
H534 H 0.63037 0.78068 0.95411 0.0
H535 H 0.6835 0.74026 0.9719 0.0
H536 H 0.42714 0.65041 0.01936 0.0
H537 H 0.4156 0.71537 1.00387 0.0
H538 H 0.47053 0.80283 0.95648 0.0
H539 H 0.55381 0.80681 0.94702 0.0
Mn540 Mn 0.12953 0.84969 0.81053 0.0
Mn541 Mn 0.10532 0.8326 0.7605 0.0
C542 C 0.07832 0.8007 0.80215 0.0
C543 C 0.12546 0.87495 0.84462 0.0
C544 C 0.18555 0.80543 0.77989 0.0
O545 O 0.14681 0.90439 0.79628 0.0
O546 O 0.12516 0.89139 0.76355 0.0
C547 C 0.0456 0.89004 0.74116 0.0
N548 N 0.05356 0.85093 0.74802 0.0
C549 C 0.99831 0.82613 0.72054 0.0
C550 C 0.99314 0.86767 0.71561 0.0
C551 C 0.01588 0.89852 0.72582 0.0
C552 C 0.03426 0.81832 0.73929 0.0
H553 H 0.06357 0.91571 0.74674 0.0
C554 C 0.14023 0.91552 0.77754 0.0
O555 O 0.15946 0.86152 0.83671 0.0
O556 O 0.09424 0.87856 0.83205 0.0
N557 N 0.08585 0.77638 0.75875 0.0
C558 C 0.10556 0.7414 0.76511 0.0
C559 C 0.08728 0.7022 0.76364 0.0
C560 C 0.0485 0.69552 0.75476 0.0
C561 C 0.02684 0.72862 0.74454 0.0
C562 C 0.04886 0.77461 0.74987 0.0
H563 H 0.13528 0.74312 0.77241 0.0
O564 O 0.10119 0.79753 0.81847 0.0
O565 O 0.08721 0.83205 0.79001 0.0
O566 O 0.17815 0.817 0.79805 0.0
O567 O 0.16076 0.81207 0.76544 0.0
C568 C 0.96953 0.73848 0.7159 0.0
C569 C 0.96689 0.78997 0.70923 0.0
H570 H 0.9708 0.87655 0.70403 0.0
H571 H 0.01114 0.93046 0.72131 0.0
H572 H 0.1038 0.67591 0.76996 0.0
H573 H 0.0383 0.66366 0.75518 0.0
H574 H 0.94926 0.71663 0.70788 0.0
H575 H 0.94476 0.79961 0.69772 0.0
Mn576 Mn 0.6002 0.88137 0.56031 0.0
Mn577 Mn 0.58242 0.85565 0.51057 0.0
C578 C 0.55325 0.8276 0.5527 0.0
C579 C 0.63145 0.88072 0.59357 0.0
C580 C 0.55309 0.93528 0.52998 0.0
O581 O 0.65265 0.90191 0.54507 0.0
O582 O 0.64071 0.8764 0.51299 0.0
C583 C 0.64032 0.79626 0.49132 0.0
N584 N 0.60116 0.80392 0.49819 0.0
C585 C 0.57669 0.74988 0.47004 0.0
C586 C 0.61826 0.74492 0.46516 0.0
C587 C 0.64898 0.76714 0.47573 0.0
C588 C 0.56871 0.78465 0.48933 0.0
H589 H 0.66587 0.81411 0.49709 0.0
C590 C 0.6641 0.89387 0.52653 0.0
O591 O 0.61279 0.91251 0.58601 0.0
O592 O 0.63383 0.8491 0.58118 0.0
N593 N 0.52652 0.83541 0.50927 0.0
C594 C 0.49155 0.85471 0.51592 0.0
C595 C 0.45238 0.83658 0.51415 0.0
C596 C 0.44571 0.79862 0.50445 0.0
C597 C 0.47891 0.77764 0.49394 0.0
C598 C 0.52486 0.79887 0.49992 0.0
H599 H 0.49323 0.8839 0.52369 0.0
O600 O 0.55073 0.84948 0.56942 0.0
O601 O 0.58339 0.8381 0.54015 0.0
O602 O 0.56355 0.92757 0.54827 0.0
O603 O 0.56155 0.91114 0.51545 0.0
C604 C 0.48896 0.72222 0.46439 0.0
C605 C 0.54058 0.71955 0.45799 0.0
H606 H 0.62724 0.72322 0.45329 0.0
H607 H 0.68095 0.76263 0.47124 0.0
H608 H 0.4261 0.85267 0.52073 0.0
H609 H 0.4138 0.78858 0.50453 0.0
H610 H 0.46715 0.70265 0.45594 0.0
H611 H 0.5503 0.69815 0.44615 0.0
Mn612 Mn 0.3731 0.34943 0.81008 0.0
Mn613 Mn 0.39725 0.33228 0.76012 0.0
C614 C 0.42449 0.30036 0.80181 0.0
C615 C 0.3757 0.37333 0.84448 0.0
C616 C 0.31698 0.30539 0.77939 0.0
O617 O 0.35644 0.40438 0.79589 0.0
O618 O 0.37748 0.39116 0.7631 0.0
C619 C 0.45684 0.38958 0.74064 0.0
N620 N 0.44885 0.35048 0.74751 0.0
C621 C 0.50319 0.32545 0.71966 0.0
C622 C 0.50838 0.36698 0.71471 0.0
C623 C 0.48612 0.39793 0.7251 0.0
C624 C 0.46772 0.3178 0.73863 0.0
H625 H 0.43922 0.41534 0.7464 0.0
C626 C 0.36277 0.41543 0.77712 0.0
O627 O 0.34191 0.36164 0.83576 0.0
O628 O 0.40766 0.37686 0.83238 0.0
N629 N 0.41663 0.27605 0.75844 0.0
C630 C 0.39708 0.24116 0.76501 0.0
C631 C 0.41528 0.20192 0.76351 0.0
C632 C 0.4538 0.19513 0.75439 0.0
C633 C 0.47519 0.22813 0.74397 0.0
C634 C 0.45335 0.27417 0.74934 0.0
H635 H 0.36759 0.24301 0.77253 0.0
O636 O 0.40142 0.29709 0.81808 0.0
O637 O 0.41558 0.33173 0.78968 0.0
O638 O 0.3244 0.31718 0.79749 0.0
O639 O 0.34181 0.31176 0.76496 0.0
C640 C 0.53177 0.23772 0.71499 0.0
C641 C 0.53428 0.28918 0.70823 0.0
H642 H 0.53044 0.37576 0.70299 0.0
H643 H 0.4909 0.42985 0.72058 0.0
H644 H 0.39893 0.17571 0.76999 0.0
H645 H 0.46398 0.16326 0.7548 0.0
H646 H 0.55183 0.2158 0.7069 0.0
H647 H 0.55614 0.29872 0.69658 0.0
Mn648 Mn 0.90526 0.12149 0.0595 0.0
Mn649 Mn 0.92188 0.14713 1.00963 0.0
C650 C 0.95396 0.17323 0.05143 0.0
C651 C 0.88091 0.12343 0.09383 0.0
C652 C 0.94966 0.06655 0.02839 0.0
O653 O 0.8505 0.10468 0.04528 0.0
O654 O 0.86342 0.12648 1.01262 0.0
C655 C 0.86332 0.20669 0.99103 0.0
N656 N 0.90268 0.19901 0.99762 0.0
C657 C 0.92613 0.25455 0.97005 0.0
C658 C 0.88442 0.25948 0.96545 0.0
C659 C 0.8541 0.23648 0.97585 0.0
C660 C 0.93482 0.21872 0.98876 0.0
H661 H 0.83801 0.18839 0.99667 0.0
C662 C 0.83938 0.11126 0.02656 0.0
O663 O 0.89313 0.08984 0.08506 0.0
O664 O 0.87744 0.15556 0.08183 0.0
N665 N 0.97778 0.16732 1.00783 0.0
C666 C 0.01306 0.14783 1.01395 0.0
C667 C 0.05209 0.16632 1.01216 0.0
C668 C 0.05827 0.20499 1.00308 0.0
C669 C 0.02468 0.22641 0.99312 0.0
C670 C 0.97901 0.20431 0.99894 0.0
H671 H 0.01171 0.11811 0.02129 0.0
O672 O 0.95741 0.15002 0.06763 0.0
O673 O 0.92257 0.16441 0.0393 0.0
O674 O 0.93772 0.07331 0.04653 0.0
O675 O 0.94322 0.09178 1.01411 0.0
C676 C 0.01343 0.2835 0.96452 0.0
C677 C 0.96169 0.28598 0.95837 0.0
H678 H 0.87502 0.28176 0.95395 0.0
H679 H 0.82201 0.24097 0.97157 0.0
H680 H 0.07866 0.15 0.0183 0.0
H681 H 0.0901 0.2153 1.00314 0.0
H682 H 0.03485 0.3038 0.95628 0.0
H683 H 0.95152 0.308 0.94692 0.0
Mn684 Mn 0.13257 0.65514 0.31049 0.0
Mn685 Mn 0.10525 0.67075 0.26099 0.0
C686 C 0.07945 0.70285 0.30282 0.0
C687 C 0.13147 0.63043 0.34466 0.0
C688 C 0.18602 0.69992 0.27928 0.0
O689 O 0.15199 0.60148 0.29571 0.0
O690 O 0.1254 0.61225 0.26393 0.0
C691 C 0.04414 0.61211 0.24365 0.0
N692 N 0.05302 0.65177 0.24941 0.0
C693 C 0.99835 0.67506 0.22136 0.0
C694 C 0.99289 0.63317 0.21718 0.0
C695 C 0.01471 0.60282 0.22827 0.0
C696 C 0.03406 0.68387 0.2401 0.0
H697 H 0.06082 0.58655 0.25043 0.0
C698 C 0.14307 0.58885 0.27742 0.0
O699 O 0.16475 0.64359 0.33596 0.0
O700 O 0.09958 0.62571 0.33259 0.0
N701 N 0.08541 0.72678 0.25919 0.0
C702 C 0.10498 0.76202 0.26529 0.0
C703 C 0.08664 0.80111 0.26344 0.0
C704 C 0.04805 0.80735 0.25428 0.0
C705 C 0.0266 0.77377 0.2443 0.0
C706 C 0.04854 0.72809 0.2502 0.0
H707 H 0.1346 0.76062 0.27269 0.0
O708 O 0.1025 0.70628 0.31908 0.0
O709 O 0.08878 0.67168 0.29064 0.0
O710 O 0.17915 0.68953 0.29763 0.0
O711 O 0.1611 0.6917 0.26504 0.0
C712 C 0.96962 0.76255 0.21561 0.0
C713 C 0.96707 0.71067 0.20953 0.0
H714 H 0.97063 0.62362 0.20569 0.0
H715 H 0.00925 0.57058 0.22453 0.0
H716 H 0.10299 0.82767 0.26958 0.0
H717 H 0.03783 0.83922 0.25434 0.0
H718 H 0.94942 0.78401 0.20732 0.0
H719 H 0.945 0.70043 0.19811 0.0
Mn720 Mn 0.59995 0.12294 0.96857 0.0
Mn721 Mn 0.58352 0.14797 0.01852 0.0
C722 C 0.55155 0.17493 0.97684 0.0
C723 C 0.62406 0.12473 0.93422 0.0
C724 C 0.55554 0.06775 0.99944 0.0
O725 O 0.65465 0.10567 0.98272 0.0
O726 O 0.64198 0.12737 0.01545 0.0
C727 C 0.64193 0.20715 0.03756 0.0
N728 N 0.60263 0.19961 0.03085 0.0
C729 C 0.57896 0.25453 0.05875 0.0
C730 C 0.62063 0.25938 0.06343 0.0
C731 C 0.65103 0.23661 0.05294 0.0
C732 C 0.57041 0.21908 0.03981 0.0
H733 H 0.66728 0.18895 0.03185 0.0
C734 C 0.66589 0.11211 1.00145 0.0
O735 O 0.61179 0.09124 0.943 0.0
O736 O 0.62782 0.15687 0.94624 0.0
N737 N 0.52761 0.16809 0.02036 0.0
C738 C 0.49239 0.14875 1.01404 0.0
C739 C 0.45334 0.16722 0.01585 0.0
C740 C 0.44709 0.20568 0.02516 0.0
C741 C 0.4806 0.22685 0.03533 0.0
C742 C 0.52631 0.20488 0.02947 0.0
H743 H 0.49379 0.11922 1.0065 0.0
O744 O 0.54795 0.15188 0.96056 0.0
O745 O 0.5829 0.16578 0.98893 0.0
O746 O 0.56725 0.07483 0.98131 0.0
O747 O 0.56225 0.09268 1.01384 0.0
C748 C 0.4916 0.28336 0.06429 0.0
C749 C 0.54329 0.28572 0.07055 0.0
H750 H 0.62995 0.28142 0.07508 0.0
H751 H 0.6831 0.24101 0.0573 0.0
H752 H 0.42682 0.15105 1.00955 0.0
H753 H 0.41526 0.216 0.02509 0.0
H754 H 0.4701 0.3035 0.0726 0.0
H755 H 0.55337 0.30752 0.08214 0.0
Mn756 Mn 0.13151 0.34856 0.21775 0.0
Mn757 Mn 0.1057 0.3333 0.26745 0.0
C758 C 0.07841 0.30116 0.22584 0.0
C759 C 0.12827 0.3748 0.18387 0.0
C760 C 0.18603 0.304 0.24867 0.0
O761 O 0.15197 0.40202 0.23245 0.0
O762 O 0.12546 0.39184 0.26429 0.0
C763 C 0.0449 0.3916 0.28532 0.0
N764 N 0.05374 0.35203 0.27941 0.0
C765 C 0.99939 0.32832 0.30749 0.0
C766 C 0.99394 0.37016 0.31182 0.0
C767 C 0.01564 0.40067 0.30081 0.0
C768 C 0.035 0.3198 0.28869 0.0
H769 H 0.06148 0.41726 0.2786 0.0
C770 C 0.14315 0.41495 0.2507 0.0
O771 O 0.16176 0.35964 0.19159 0.0
O772 O 0.09743 0.37956 0.19654 0.0
N773 N 0.0862 0.27719 0.26936 0.0
C774 C 0.10571 0.24203 0.26308 0.0
C775 C 0.08741 0.20291 0.26484 0.0
C776 C 0.04887 0.19655 0.27399 0.0
C777 C 0.0275 0.22998 0.28413 0.0
C778 C 0.04942 0.27574 0.27841 0.0
H779 H 0.13522 0.24353 0.25563 0.0
O780 O 0.10095 0.29764 0.20945 0.0
O781 O 0.08827 0.33228 0.23796 0.0
O782 O 0.17842 0.3136 0.23026 0.0
O783 O 0.16157 0.31277 0.26302 0.0
C784 C 0.97066 0.24077 0.3129 0.0
C785 C 0.96816 0.29254 0.3192 0.0
H786 H 0.97175 0.37953 0.32338 0.0
H787 H 0.0102 0.43284 0.30468 0.0
H788 H 0.10372 0.17644 0.25857 0.0
H789 H 0.03865 0.16469 0.27382 0.0
H790 H 0.95048 0.21918 0.32111 0.0
H791 H 0.94614 0.30261 0.33067 0.0
Mn792 Mn 0.90252 0.8817 0.46803 0.0
Mn793 Mn 0.91919 0.85828 0.51817 0.0
C794 C 0.95088 0.83007 0.47669 0.0
C795 C 0.87677 0.87732 0.43408 0.0
C796 C 0.94734 0.93776 0.49842 0.0
O797 O 0.8482 0.90016 0.48217 0.0
O798 O 0.86084 0.87888 0.51497 0.0
C799 C 0.86069 0.7995 0.53739 0.0
N800 N 0.90001 0.8069 0.5307 0.0
C801 C 0.92356 0.75193 0.55854 0.0
C802 C 0.88188 0.74722 0.56322 0.0
C803 C 0.85153 0.77008 0.55275 0.0
C804 C 0.93218 0.78733 0.53963 0.0
H805 H 0.83538 0.81776 0.53167 0.0
C806 C 0.83702 0.89411 0.50094 0.0
O807 O 0.89093 0.91126 0.44176 0.0
O808 O 0.87299 0.84635 0.44677 0.0
N809 N 0.97509 0.83813 0.52015 0.0
C810 C 0.01036 0.85737 0.51386 0.0
C811 C 0.04937 0.83886 0.51573 0.0
C812 C 0.05554 0.80042 0.52505 0.0
C813 C 0.02198 0.77935 0.53519 0.0
C814 C 0.97632 0.80141 0.52931 0.0
H815 H 0.00905 0.88687 0.50632 0.0
O816 O 0.95429 0.8524 0.46021 0.0
O817 O 0.91963 0.83965 0.48875 0.0
O818 O 0.9358 0.9301 0.48028 0.0
O819 O 0.9404 0.91337 0.513 0.0
C820 C 0.01085 0.72292 0.56412 0.0
C821 C 0.95915 0.72068 0.57035 0.0
H822 H 0.87252 0.72521 0.57485 0.0
H823 H 0.81946 0.76578 0.5571 0.0
H824 H 0.07593 0.85495 0.50946 0.0
H825 H 0.08736 0.79005 0.52501 0.0
H826 H 0.0323 0.70275 0.57243 0.0
H827 H 0.94903 0.69893 0.58192 0.0
Mn828 Mn 0.37143 0.6553 0.71899 0.0
Mn829 Mn 0.3962 0.67285 0.76889 0.0
C830 C 0.4225 0.70469 0.72707 0.0
C831 C 0.3742 0.63147 0.68457 0.0
C832 C 0.31547 0.69915 0.74984 0.0
O833 O 0.35545 0.60026 0.73326 0.0
O834 O 0.37663 0.61386 0.76601 0.0
C835 C 0.45615 0.61594 0.78842 0.0
N836 N 0.44802 0.65491 0.78142 0.0
C837 C 0.5031 0.68039 0.80884 0.0
C838 C 0.50839 0.63895 0.81394 0.0
C839 C 0.48582 0.60784 0.80383 0.0
C840 C 0.46704 0.68774 0.79009 0.0
H841 H 0.43835 0.59009 0.78289 0.0
C842 C 0.36201 0.58939 0.75205 0.0
O843 O 0.34028 0.64283 0.69328 0.0
O844 O 0.40617 0.62813 0.6967 0.0
N845 N 0.41543 0.72917 0.77042 0.0
C846 C 0.39568 0.76398 0.76386 0.0
C847 C 0.41394 0.80323 0.76509 0.0
C848 C 0.45281 0.81012 0.77384 0.0
C849 C 0.47456 0.77728 0.78422 0.0
C850 C 0.45242 0.73117 0.77926 0.0
H851 H 0.36595 0.76202 0.75656 0.0
O852 O 0.39913 0.70781 0.7109 0.0
O853 O 0.41401 0.67332 0.73928 0.0
O854 O 0.32257 0.68718 0.73173 0.0
O855 O 0.34066 0.69315 0.76417 0.0
C856 C 0.53206 0.76811 0.81283 0.0
C857 C 0.53465 0.7168 0.81984 0.0
H858 H 0.53079 0.63035 0.82555 0.0
H859 H 0.49069 0.57599 0.80847 0.0
H860 H 0.39738 0.82935 0.75864 0.0
H861 H 0.46302 0.84197 0.77321 0.0
H862 H 0.55243 0.79014 0.82066 0.0
H863 H 0.55687 0.70744 0.83137 0.0
Mn864 Mn 0.40287 0.12066 0.46856 0.0
Mn865 Mn 0.42001 0.14455 0.5187 0.0
C866 C 0.45242 0.17104 0.47716 0.0
C867 C 0.37776 0.12582 0.43446 0.0
C868 C 0.44627 0.06401 0.49922 0.0
O869 O 0.34801 0.1039 0.48274 0.0
O870 O 0.36119 0.12519 0.51554 0.0
C871 C 0.36307 0.20471 0.53807 0.0
N872 N 0.40209 0.19655 0.53116 0.0
C873 C 0.42727 0.25105 0.55897 0.0
C874 C 0.38578 0.25658 0.56385 0.0
C875 C 0.35478 0.23433 0.55349 0.0
C876 C 0.4348 0.21557 0.53994 0.0
H877 H 0.33732 0.18689 0.53249 0.0
C878 C 0.33701 0.11039 0.50152 0.0
O879 O 0.39072 0.09142 0.44218 0.0
O880 O 0.37453 0.15678 0.44722 0.0
N881 N 0.47631 0.16356 0.52052 0.0
C882 C 0.51107 0.14335 0.51426 0.0
C883 C 0.55047 0.16104 0.51589 0.0
C884 C 0.55753 0.19961 0.52493 0.0
C885 C 0.52461 0.22159 0.53515 0.0
C886 C 0.47842 0.20056 0.52944 0.0
H887 H 0.50904 0.11371 0.50689 0.0
O888 O 0.45543 0.14839 0.46075 0.0
O889 O 0.4209 0.16245 0.48921 0.0
O890 O 0.43481 0.07151 0.48104 0.0
O891 O 0.43999 0.08892 0.51367 0.0
C892 C 0.51531 0.27807 0.56427 0.0
C893 C 0.46375 0.28144 0.57072 0.0
H894 H 0.37706 0.27873 0.57556 0.0
H895 H 0.32289 0.23925 0.55801 0.0
H896 H 0.57659 0.14422 0.50961 0.0
H897 H 0.58954 0.2093 0.52467 0.0
H898 H 0.53738 0.29765 0.57255 0.0
H899 H 0.45429 0.30332 0.58239 0.0
Mn900 Mn 0.6304 0.65483 0.21873 0.0
Mn901 Mn 0.60626 0.67148 0.26881 0.0
C902 C 0.57891 0.70342 0.22726 0.0
C903 C 0.62632 0.62958 0.18463 0.0
C904 C 0.68626 0.69928 0.24942 0.0
O905 O 0.64814 0.60017 0.23287 0.0
O906 O 0.62671 0.61299 0.26564 0.0
C907 C 0.54709 0.6131 0.28782 0.0
N908 N 0.55465 0.65241 0.28113 0.0
C909 C 0.49926 0.67611 0.30874 0.0
C910 C 0.49441 0.63443 0.31342 0.0
C911 C 0.51741 0.60401 0.30306 0.0
C912 C 0.53498 0.68465 0.28997 0.0
H913 H 0.5654 0.58775 0.28219 0.0
C914 C 0.64184 0.589 0.25162 0.0
O915 O 0.66026 0.64329 0.1925 0.0
O916 O 0.59518 0.62581 0.19721 0.0
N917 N 0.58621 0.72746 0.27074 0.0
C918 C 0.60564 0.76272 0.26456 0.0
C919 C 0.58715 0.80178 0.26633 0.0
C920 C 0.54852 0.80803 0.27544 0.0
C921 C 0.5272 0.77451 0.28548 0.0
C922 C 0.5493 0.72877 0.27971 0.0
H923 H 0.63531 0.76134 0.25718 0.0
O924 O 0.6016 0.70687 0.2109 0.0
O925 O 0.58814 0.67206 0.23932 0.0
O926 O 0.67889 0.68769 0.23125 0.0
O927 O 0.66151 0.69257 0.26388 0.0
C928 C 0.47029 0.76349 0.31418 0.0
C929 C 0.46787 0.71178 0.32041 0.0
H930 H 0.47221 0.62511 0.32497 0.0
H931 H 0.513 0.57194 0.30741 0.0
H932 H 0.60342 0.82832 0.26014 0.0
H933 H 0.5382 0.83988 0.27535 0.0
H934 H 0.45002 0.78499 0.32241 0.0
H935 H 0.44593 0.7017 0.3319 0.0
Mn936 Mn 0.10025 0.87963 0.96843 0.0
Mn937 Mn 0.08375 0.85579 0.01856 0.0
C938 C 0.05161 0.82832 0.97706 0.0
C939 C 0.12527 0.87538 0.93432 0.0
C940 C 0.05581 0.93565 0.99903 0.0
O941 O 0.15493 0.89742 0.98252 0.0
O942 O 0.14222 0.87629 0.01533 0.0
C943 C 0.14227 0.79668 0.03756 0.0
N944 N 0.10292 0.80421 0.03092 0.0
C945 C 0.07948 0.74894 0.05862 0.0
C946 C 0.12118 0.74412 0.06326 0.0
C947 C 0.15149 0.76707 0.05282 0.0
C948 C 0.07077 0.78454 0.03981 0.0
H949 H 0.16756 0.81496 0.03187 0.0
C950 C 0.16614 0.8913 1.00129 0.0
O951 O 0.11166 0.90938 0.94218 0.0
O952 O 0.1291 0.84426 0.94692 0.0
N953 N 0.02781 0.83571 0.02057 0.0
C954 C 0.9925 0.85515 0.01445 0.0
C955 C 0.95347 0.8367 0.01632 0.0
C956 C 0.9473 0.79811 0.02549 0.0
C957 C 0.9809 0.7768 0.03549 0.0
C958 C 0.02657 0.79882 0.02959 0.0
H959 H 0.9938 0.8848 1.00703 0.0
O960 O 0.04816 0.85086 0.96066 0.0
O961 O 0.08304 0.83753 0.98909 0.0
O962 O 0.06752 0.9282 0.9809 0.0
O963 O 0.06253 0.911 1.01354 0.0
C964 C 0.99219 0.72008 0.06427 0.0
C965 C 0.04393 0.71766 0.07041 0.0
H966 H 0.13059 0.72199 0.07483 0.0
H967 H 0.18358 0.76268 0.05714 0.0
H968 H 0.92688 0.85297 1.01017 0.0
H969 H 0.91546 0.78781 0.02548 0.0
H970 H 0.97078 0.69989 0.07258 0.0
H971 H 0.05411 0.69579 0.08193 0.0
Mn972 Mn 0.87168 0.34987 0.71712 0.0
Mn973 Mn 0.89727 0.33445 0.7669 0.0
C974 C 0.92484 0.30262 0.72539 0.0
C975 C 0.8749 0.37609 0.68327 0.0
C976 C 0.81743 0.3045 0.74778 0.0
O977 O 0.85072 0.40314 0.73183 0.0
O978 O 0.87668 0.39261 0.76375 0.0
C979 C 0.95759 0.3939 0.78425 0.0
N980 N 0.94908 0.35406 0.77868 0.0
C981 C 0.00349 0.33176 0.80702 0.0
C982 C 0.00861 0.37377 0.811 0.0
C983 C 0.98676 0.40373 0.79967 0.0
C984 C 0.96823 0.3223 0.78815 0.0
H985 H 0.94083 0.41919 0.77729 0.0
C986 C 0.85902 0.4158 0.75019 0.0
O987 O 0.84147 0.36079 0.69095 0.0
O988 O 0.90569 0.38106 0.69598 0.0
N989 N 0.91752 0.27862 0.76899 0.0
C990 C 0.89829 0.24313 0.76297 0.0
C991 C 0.91675 0.20418 0.7652 0.0
C992 C 0.95502 0.19833 0.77474 0.0
C993 C 0.97603 0.23228 0.78465 0.0
C994 C 0.95414 0.27772 0.77826 0.0
H995 H 0.86885 0.2442 0.75537 0.0
O996 O 0.90262 0.29908 0.70888 0.0
O997 O 0.91472 0.33369 0.73746 0.0
O998 O 0.82498 0.31468 0.72945 0.0
O999 O 0.84171 0.3131 0.76227 0.0
C1000 C 0.03225 0.24455 0.8136 0.0
C1001 C 0.03455 0.2966 0.8193 0.0
H1002 H 0.03059 0.38371 0.82254 0.0
H1003 H 0.99194 0.43608 0.80327 0.0
H1004 H 0.90071 0.17738 0.7591 0.0
H1005 H 0.96533 0.16648 0.77503 0.0
H1006 H 0.05233 0.22341 0.82216 0.0
H1007 H 0.0563 0.30723 0.83078 0.0
Mn1008 Mn 0.4054 0.88193 0.0598 0.0
Mn1009 Mn 0.42213 0.85633 1.00991 0.0
C1010 C 0.45435 0.8305 0.05167 0.0
C1011 C 0.3818 0.87978 0.09422 0.0
C1012 C 0.4495 0.93701 0.02874 0.0
O1013 O 0.35041 0.89833 0.04565 0.0
O1014 O 0.3636 0.87689 1.01292 0.0
C1015 C 0.36375 0.79666 0.99123 0.0
N1016 N 0.40306 0.8044 0.99786 0.0
C1017 C 0.42669 0.74861 0.97039 0.0
C1018 C 0.38501 0.74363 0.96575 0.0
C1019 C 0.35463 0.76673 0.97607 0.0
C1020 C 0.43527 0.78464 0.98905 0.0
H1021 H 0.3384 0.81501 0.99682 0.0
C1022 C 0.33942 0.89189 0.02688 0.0
O1023 O 0.39342 0.91351 0.08542 0.0
O1024 O 0.37819 0.84766 0.08219 0.0
N1025 N 0.47809 0.83623 1.00811 0.0
C1026 C 0.51333 0.85581 1.01422 0.0
C1027 C 0.55239 0.83732 1.01249 0.0
C1028 C 0.55864 0.79853 1.0035 0.0
C1029 C 0.52511 0.777 0.99354 0.0
C1030 C 0.4794 0.79916 0.99926 0.0
H1031 H 0.51193 0.88561 0.02151 0.0
O1032 O 0.4578 0.85386 0.06784 0.0
O1033 O 0.42287 0.83908 0.03956 0.0
O1034 O 0.43737 0.93031 0.04684 0.0
O1035 O 0.44336 0.91168 0.01445 0.0
C1036 C 0.51402 0.7196 0.96503 0.0
C1037 C 0.46232 0.71705 0.95881 0.0
H1038 H 0.37567 0.72123 0.95427 0.0
H1039 H 0.32255 0.7622 0.97176 0.0
H1040 H 0.57893 0.85372 0.01862 0.0
H1041 H 0.59048 0.78823 1.00362 0.0
H1042 H 0.53549 0.69921 0.95685 0.0
H1043 H 0.45222 0.6949 0.94739 0.0
Mn1044 Mn 0.87094 0.65445 0.81135 0.0
Mn1045 Mn 0.89722 0.6703 0.76168 0.0
C1046 C 0.92378 0.70217 0.80328 0.0
C1047 C 0.87456 0.62817 0.84525 0.0
C1048 C 0.8167 0.69943 0.78041 0.0
O1049 O 0.8507 0.60102 0.79656 0.0
O1050 O 0.87671 0.61204 0.7647 0.0
C1051 C 0.9579 0.61103 0.7445 0.0
N1052 N 0.94923 0.65083 0.75008 0.0
C1053 C 0.00386 0.67334 0.72192 0.0
C1054 C 0.00912 0.63135 0.71792 0.0
C1055 C 0.98723 0.60131 0.72915 0.0
C1056 C 0.96839 0.68267 0.74068 0.0
H1057 H 0.94113 0.58568 0.75139 0.0
C1058 C 0.85909 0.58861 0.77817 0.0
O1059 O 0.8409 0.64311 0.83758 0.0
O1060 O 0.90532 0.62362 0.83251 0.0
N1061 N 0.91735 0.72618 0.7597 0.0
C1062 C 0.89793 0.7616 0.76568 0.0
C1063 C 0.91634 0.80061 0.76353 0.0
C1064 C 0.95474 0.80657 0.75414 0.0
C1065 C 0.97597 0.77269 0.74429 0.0
C1066 C 0.95409 0.72719 0.75057 0.0
H1067 H 0.86839 0.76043 0.77321 0.0
O1068 O 0.90124 0.70559 0.81968 0.0
O1069 O 0.91408 0.67105 0.79118 0.0
O1070 O 0.82375 0.68895 0.79877 0.0
O1071 O 0.84169 0.69158 0.76614 0.0
C1072 C 0.03254 0.76061 0.71551 0.0
C1073 C 0.03499 0.70859 0.70977 0.0
H1074 H 0.03124 0.62149 0.70643 0.0
H1075 H 0.99253 0.56898 0.72555 0.0
H1076 H 0.90015 0.82736 0.76959 0.0
H1077 H 0.96497 0.83843 0.75391 0.0
H1078 H 0.05266 0.78181 0.70703 0.0
H1079 H 0.05689 0.69803 0.69835 0.0
Mn1080 Mn 0.09774 0.12202 0.55995 0.0
Mn1081 Mn 0.08221 0.14791 0.51 0.0
C1082 C 0.04934 0.17386 0.55162 0.0
C1083 C 0.12105 0.12402 0.59445 0.0
C1084 C 0.05381 0.06741 0.52851 0.0
O1085 O 0.15278 0.10507 0.54602 0.0
O1086 O 0.14041 0.12685 0.51328 0.0
C1087 C 0.14155 0.20735 0.49196 0.0
N1088 N 0.10198 0.19978 0.49822 0.0
C1089 C 0.07953 0.25564 0.4706 0.0
C1090 C 0.12138 0.26041 0.46632 0.0
C1091 C 0.15131 0.23722 0.4769 0.0
C1092 C 0.07017 0.21971 0.48918 0.0
H1093 H 0.16662 0.18892 0.49778 0.0
C1094 C 0.16414 0.11147 0.52731 0.0
O1095 O 0.1091 0.09039 0.58562 0.0
O1096 O 0.12504 0.15607 0.58244 0.0
N1097 N 0.02648 0.16841 0.50788 0.0
C1098 C 0.99097 0.14903 0.51372 0.0
C1099 C 0.95206 0.16769 0.51166 0.0
C1100 C 0.94628 0.2064 0.50255 0.0
C1101 C 0.98023 0.22771 0.49287 0.0
C1102 C 0.02564 0.20542 0.499 0.0
H1103 H 0.992 0.11929 0.52105 0.0
O1104 O 0.04547 0.15059 0.56778 0.0
O1105 O 0.08098 0.16502 0.53967 0.0
O1106 O 0.06551 0.07396 0.54673 0.0
O1107 O 0.0605 0.09273 0.51431 0.0
C1108 C 0.99249 0.28494 0.46444 0.0
C1109 C 0.04441 0.28728 0.45869 0.0
H1110 H 0.13119 0.28274 0.45493 0.0
H1111 H 0.18354 0.24161 0.47288 0.0
H1112 H 0.92526 0.15146 0.51759 0.0
H1113 H 0.91448 0.21682 0.50238 0.0
H1114 H 0.97137 0.30538 0.45608 0.0
H1115 H 0.05498 0.30933 0.44736 0.0
Mn1116 Mn 0.63067 0.35064 0.31086 0.0
Mn1117 Mn 0.60595 0.3334 0.26086 0.0
C1118 C 0.57915 0.30175 0.30258 0.0
C1119 C 0.62823 0.37532 0.3452 0.0
C1120 C 0.68625 0.30587 0.28014 0.0
O1121 O 0.64774 0.4053 0.29658 0.0
O1122 O 0.62664 0.39187 0.26382 0.0
C1123 C 0.54674 0.39194 0.24194 0.0
N1124 N 0.55426 0.3526 0.2486 0.0
C1125 C 0.49897 0.32904 0.22088 0.0
C1126 C 0.49417 0.37074 0.21622 0.0
C1127 C 0.51712 0.40111 0.22666 0.0
C1128 C 0.53454 0.32042 0.23974 0.0
H1129 H 0.56504 0.41725 0.2476 0.0
C1130 C 0.64161 0.41612 0.27777 0.0
O1131 O 0.6619 0.36311 0.33654 0.0
O1132 O 0.59629 0.37866 0.33306 0.0
N1133 N 0.58566 0.2775 0.25901 0.0
C1134 C 0.6051 0.24221 0.26512 0.0
C1135 C 0.58662 0.20316 0.26331 0.0
C1136 C 0.54803 0.19696 0.25414 0.0
C1137 C 0.52676 0.23053 0.24409 0.0
C1138 C 0.54878 0.27625 0.24999 0.0
H1139 H 0.6348 0.24359 0.27243 0.0
O1140 O 0.60201 0.29853 0.31893 0.0
O1141 O 0.58817 0.33303 0.29045 0.0
O1142 O 0.67907 0.31793 0.29823 0.0
O1143 O 0.66127 0.31208 0.2657 0.0
C1144 C 0.4701 0.24168 0.21525 0.0
C1145 C 0.4677 0.29343 0.20908 0.0
H1146 H 0.47206 0.38011 0.20463 0.0
H1147 H 0.51275 0.43319 0.22233 0.0
H1148 H 0.6029 0.17659 0.26948 0.0
H1149 H 0.53772 0.16511 0.25417 0.0
H1150 H 0.44992 0.22022 0.20693 0.0
H1151 H 0.44586 0.30356 0.19754 0.0
C1152 C 0.96019 0.50281 0.02071 0.0
C1153 C 0.97499 0.5297 1.00509 0.0
C1154 C 0.04474 0.49984 1.00856 0.0
C1155 C 0.02994 0.47287 0.02415 0.0
N1156 N 0.97529 0.45168 0.04706 0.0
N1157 N 0.02955 0.55065 0.98208 0.0
C1158 C 0.98812 0.47532 0.03085 0.0
C1159 C 0.01677 0.5272 0.99837 0.0
N1160 N 0.91874 0.50256 0.0251 0.0
N1161 N 0.08622 0.50034 1.00426 0.0
H1162 H 0.01028 0.57142 0.97445 0.0
H1163 H 0.0583 0.54779 0.97505 0.0
H1164 H 0.10743 0.48154 1.01196 0.0
H1165 H 0.10045 0.52141 0.99448 0.0
H1166 H 0.90446 0.4817 0.03497 0.0
H1167 H 0.89758 0.52147 0.01744 0.0
H1168 H 0.94649 0.45436 0.05406 0.0
H1169 H 0.99449 0.43077 0.05464 0.0
C1170 C 0.72601 0.76636 0.24836 0.0
C1171 C 0.72332 0.72444 0.25486 0.0
C1172 C 0.77792 0.73663 0.28062 0.0
C1173 C 0.78062 0.7786 0.27413 0.0
N1174 N 0.75315 0.83559 0.25467 0.0
N1175 N 0.75058 0.66748 0.27434 0.0
C1176 C 0.75361 0.79395 0.25867 0.0
C1177 C 0.75031 0.70909 0.2703 0.0
N1178 N 0.70248 0.77964 0.23218 0.0
N1179 N 0.80127 0.72323 0.29683 0.0
H1180 H 0.73149 0.6466 0.26659 0.0
H1181 H 0.77177 0.65284 0.28393 0.0
H1182 H 0.82244 0.74194 0.30453 0.0
H1183 H 0.79796 0.6944 0.30375 0.0
H1184 H 0.70547 0.80853 0.22529 0.0
H1185 H 0.68151 0.76065 0.2245 0.0
H1186 H 0.73213 0.85011 0.24496 0.0
H1187 H 0.77185 0.85664 0.26257 0.0
C1188 C 0.51456 0.49743 0.49727 0.0
C1189 C 0.52537 0.46504 0.51093 0.0
C1190 C 0.47662 0.49598 0.53633 0.0
C1191 C 0.46433 0.5261 0.52165 0.0
N1192 N 0.45664 0.53672 0.48497 0.0
N1193 N 0.50728 0.42984 0.54337 0.0
C1194 C 0.47861 0.52115 0.50113 0.0
C1195 C 0.50418 0.46329 0.53051 0.0
N1196 N 0.53903 0.50697 0.48086 0.0
N1197 N 0.46125 0.49714 0.55584 0.0
H1198 H 0.52784 0.40542 0.5423 0.0
H1199 H 0.48645 0.42449 0.55529 0.0
H1200 H 0.43277 0.51029 0.55952 0.0
H1201 H 0.47613 0.48301 0.56821 0.0
H1202 H 0.53277 0.53217 0.47132 0.0
H1203 H 0.56814 0.49375 0.47857 0.0
H1204 H 0.46548 0.53173 0.46976 0.0
H1205 H 0.42663 0.54825 0.48661 0.0
C1206 C 0.7779 0.23704 0.74684 0.0
C1207 C 0.78069 0.27902 0.75337 0.0
C1208 C 0.72555 0.26724 0.77881 0.0
C1209 C 0.72266 0.22529 0.77228 0.0
N1210 N 0.74986 0.16807 0.75287 0.0
N1211 N 0.75269 0.33635 0.77241 0.0
C1212 C 0.74977 0.20971 0.75693 0.0
C1213 C 0.75333 0.29463 0.76858 0.0
N1214 N 0.8018 0.22347 0.73086 0.0
N1215 N 0.70223 0.28077 0.79501 0.0
H1216 H 0.77164 0.35726 0.7646 0.0
H1217 H 0.73114 0.351 0.78179 0.0
H1218 H 0.68089 0.26219 0.80263 0.0
H1219 H 0.70589 0.30951 0.80201 0.0
H1220 H 0.79872 0.19461 0.72393 0.0
H1221 H 0.82331 0.24209 0.72339 0.0
H1222 H 0.77089 0.15333 0.74324 0.0
H1223 H 0.73076 0.14719 0.7606 0.0
C1224 C 0.95841 0.50114 0.50913 0.0
C1225 C 0.97345 0.47411 0.52462 0.0
C1226 C 0.04282 0.50486 0.52154 0.0
C1227 C 0.02782 0.53158 0.50589 0.0
N1228 N 0.97324 0.55207 0.48272 0.0
N1229 N 0.02808 0.45294 0.54757 0.0
C1230 C 0.98614 0.52875 0.49904 0.0
C1231 C 0.01515 0.47686 0.53147 0.0
N1232 N 0.91692 0.50138 0.50481 0.0
N1233 N 0.08418 0.50528 0.52616 0.0
H1234 H 0.00894 0.43178 0.55501 0.0
H1235 H 0.05687 0.45549 0.55459 0.0
H1236 H 0.10519 0.52455 0.51863 0.0
H1237 H 0.09862 0.48478 0.53617 0.0
H1238 H 0.90254 0.52255 0.49512 0.0
H1239 H 0.89588 0.48228 0.51241 0.0
H1240 H 0.94462 0.54879 0.47559 0.0
H1241 H 0.99228 0.57314 0.47517 0.0
C1242 C 0.74859 0.79318 0.77026 0.0
C1243 C 0.72153 0.77734 0.75496 0.0
C1244 C 0.75382 0.70854 0.75842 0.0
C1245 C 0.77947 0.72402 0.77447 0.0
N1246 N 0.79794 0.7796 0.79754 0.0
N1247 N 0.69723 0.71984 0.7345 0.0
C1248 C 0.77567 0.76586 0.78103 0.0
C1249 C 0.72412 0.73505 0.74888 0.0
N1250 N 0.74962 0.835 0.77374 0.0
N1251 N 0.75828 0.66821 0.75229 0.0
H1252 H 0.67703 0.73848 0.72617 0.0
H1253 H 0.69342 0.68854 0.73122 0.0
H1254 H 0.77613 0.64684 0.76043 0.0
H1255 H 0.74532 0.65584 0.73901 0.0
H1256 H 0.77124 0.84961 0.78313 0.0
H1257 H 0.73117 0.85588 0.76561 0.0
H1258 H 0.79333 0.80825 0.80451 0.0
H1259 H 0.81913 0.76125 0.80544 0.0
C1260 C 0.51685 0.47668 0.99923 0.0
C1261 C 0.47515 0.47415 1.00607 0.0
C1262 C 0.48851 0.52849 0.03185 0.0
C1263 C 0.53026 0.5309 0.02504 0.0
N1264 N 0.58639 0.5032 1.00511 0.0
N1265 N 0.41912 0.50099 0.02637 0.0
C1266 C 0.54492 0.50389 1.00943 0.0
C1267 C 0.4605 0.50092 0.0218 0.0
N1268 N 0.52947 0.45345 0.98281 0.0
N1269 N 0.47582 0.55231 0.04806 0.0
H1270 H 0.39788 0.48207 0.01875 0.0
H1271 H 0.40492 0.52164 0.03639 0.0
H1272 H 0.49509 0.57325 0.05557 0.0
H1273 H 0.44704 0.54982 0.05509 0.0
H1274 H 0.55808 0.45661 0.97566 0.0
H1275 H 0.51025 0.43261 0.97519 0.0
H1276 H 0.6005 0.48194 0.99536 0.0
H1277 H 0.60769 0.52195 1.01279 0.0
C1278 C 0.75503 0.21127 0.27236 0.0
C1279 C 0.78024 0.2255 0.25588 0.0
C1280 C 0.75008 0.29515 0.25933 0.0
C1281 C 0.72326 0.28042 0.27494 0.0
N1282 N 0.6988 0.22453 0.29626 0.0
N1283 N 0.79861 0.27974 0.23199 0.0
C1284 C 0.7257 0.23857 0.28163 0.0
C1285 C 0.77669 0.26704 0.2488 0.0
N1286 N 0.75938 0.17136 0.27911 0.0
N1287 N 0.75102 0.33669 0.25519 0.0
H1288 H 0.81967 0.26101 0.22424 0.0
H1289 H 0.79392 0.30799 0.22467 0.0
H1290 H 0.73246 0.35797 0.26299 0.0
H1291 H 0.77257 0.35073 0.24558 0.0
H1292 H 0.74662 0.16005 0.29264 0.0
H1293 H 0.77691 0.14929 0.27125 0.0
H1294 H 0.69484 0.1935 0.30006 0.0
H1295 H 0.67877 0.24398 0.30427 0.0
C1296 C 0.27733 0.23828 0.78121 0.0
C1297 C 0.28011 0.27983 0.77411 0.0
C1298 C 0.22597 0.2661 0.74832 0.0
C1299 C 0.22315 0.22458 0.75542 0.0
N1300 N 0.24969 0.16886 0.77602 0.0
N1301 N 0.25314 0.33561 0.75369 0.0
C1302 C 0.24975 0.21016 0.77125 0.0
C1303 C 0.25339 0.29426 0.75834 0.0
N1304 N 0.30072 0.22587 0.79761 0.0
N1305 N 0.2028 0.27846 0.73184 0.0
H1306 H 0.272 0.35699 0.76125 0.0
H1307 H 0.23217 0.34963 0.74377 0.0
H1308 H 0.18185 0.25915 0.72435 0.0
H1309 H 0.20605 0.30689 0.72453 0.0
H1310 H 0.29767 0.19739 0.80489 0.0
H1311 H 0.32181 0.24512 0.80503 0.0
H1312 H 0.27039 0.1548 0.78605 0.0
H1313 H 0.2307 0.14752 0.76851 0.0
C1314 C 0.22522 0.76747 0.28048 0.0
C1315 C 0.22235 0.72578 0.27352 0.0
C1316 C 0.2771 0.73875 0.24799 0.0
C1317 C 0.27999 0.78037 0.25499 0.0
N1318 N 0.25298 0.8367 0.27504 0.0
N1319 N 0.24946 0.66945 0.25343 0.0
C1320 C 0.25304 0.79526 0.27054 0.0
C1321 C 0.24926 0.71091 0.25792 0.0
N1322 N 0.20184 0.78035 0.29679 0.0
N1323 N 0.30071 0.726 0.23174 0.0
H1324 H 0.23058 0.64818 0.26103 0.0
H1325 H 0.27041 0.65522 0.24358 0.0
H1326 H 0.32196 0.74512 0.22436 0.0
H1327 H 0.29756 0.69746 0.2245 0.0
H1328 H 0.20534 0.80883 0.30406 0.0
H1329 H 0.18039 0.76154 0.30419 0.0
H1330 H 0.23179 0.85106 0.28473 0.0
H1331 H 0.27228 0.85779 0.2676 0.0
C1332 C 0.27693 0.26657 0.28058 0.0
C1333 C 0.27972 0.22454 0.27422 0.0
C1334 C 0.22541 0.23638 0.24825 0.0
C1335 C 0.22265 0.27847 0.25458 0.0
N1336 N 0.24993 0.33573 0.27395 0.0
N1337 N 0.25271 0.16731 0.25479 0.0
C1338 C 0.24949 0.29402 0.27008 0.0
C1339 C 0.25291 0.20898 0.25873 0.0
N1340 N 0.30022 0.28007 0.2968 0.0
N1341 N 0.20222 0.22273 0.23202 0.0
H1342 H 0.2717 0.14656 0.26267 0.0
H1343 H 0.23169 0.15253 0.24517 0.0
H1344 H 0.18116 0.24135 0.2242 0.0
H1345 H 0.20553 0.19377 0.22521 0.0
H1346 H 0.29715 0.30908 0.30359 0.0
H1347 H 0.32104 0.26117 0.30462 0.0
H1348 H 0.27084 0.35038 0.28369 0.0
H1349 H 0.23136 0.35666 0.26592 0.0
C1350 C 0.24889 0.79439 0.75869 0.0
C1351 C 0.22234 0.77983 0.77449 0.0
C1352 C 0.25216 0.71 0.77112 0.0
C1353 C 0.27859 0.72456 0.75526 0.0
N1354 N 0.29871 0.77875 0.73183 0.0
N1355 N 0.20171 0.7255 0.79773 0.0
C1356 C 0.27587 0.76624 0.74838 0.0
C1357 C 0.22494 0.7381 0.78133 0.0
N1358 N 0.2494 0.83585 0.75428 0.0
N1359 N 0.25207 0.6686 0.77566 0.0
H1360 H 0.18102 0.74482 0.80538 0.0
H1361 H 0.20453 0.69677 0.8048 0.0
H1362 H 0.27075 0.64732 0.76793 0.0
H1363 H 0.23153 0.65445 0.78574 0.0
H1364 H 0.2703 0.8499 0.74435 0.0
H1365 H 0.23087 0.8572 0.76205 0.0
H1366 H 0.29547 0.80736 0.72469 0.0
H1367 H 0.31929 0.75941 0.72412 0.0
C1368 C 0.48506 0.97381 0.5309 0.0
C1369 C 0.527 0.97164 0.52436 0.0
C1370 C 0.51351 0.02477 0.49803 0.0
C1371 C 0.47165 0.0271 0.50462 0.0
N1372 N 0.41543 0.99999 0.52463 0.0
N1373 N 0.58328 0.99972 0.50467 0.0
C1374 C 0.45695 1.00056 0.5204 0.0
C1375 C 0.54169 0.99837 0.50865 0.0
N1376 N 0.47228 0.95078 0.54734 0.0
N1377 N 0.52621 0.04746 0.48147 0.0
H1378 H 0.60466 0.98172 0.51271 0.0
H1379 H 0.5973 0.02097 0.4949 0.0
H1380 H 0.50683 0.06759 0.47351 0.0
H1381 H 0.55503 0.04433 0.47452 0.0
H1382 H 0.44333 0.95342 0.55418 0.0
H1383 H 0.49165 0.93059 0.55526 0.0
H1384 H 0.40123 0.97929 0.53461 0.0
H1385 H 0.39421 0.01837 0.51669 0.0
C1386 C 0.98858 0.97513 0.99731 0.0
C1387 C 0.03023 0.97252 1.00428 0.0
C1388 C 0.01685 0.02712 0.0299 0.0
C1389 C 0.97524 0.02982 0.0229 0.0
N1390 N 0.91929 0.00306 1.00249 0.0
N1391 N 0.08627 0.99994 0.02441 0.0
C1392 C 0.96062 0.00297 1.00719 0.0
C1393 C 0.04487 0.99956 0.0199 0.0
N1394 N 0.97595 0.95125 0.98111 0.0
N1395 N 0.02941 0.05054 0.04627 0.0
H1396 H 0.10755 0.98094 0.01688 0.0
H1397 H 0.1004 0.02114 0.03419 0.0
H1398 H 0.01022 0.07163 0.05373 0.0
H1399 H 0.05792 0.04734 0.05353 0.0
H1400 H 0.94731 0.95394 0.97394 0.0
H1401 H 0.99514 0.93003 0.97375 0.0
H1402 H 0.9051 0.98232 0.99251 0.0
H1403 H 0.89806 0.0222 1.00997 0.0
C1404 C 0.48833 0.02834 0.99776 0.0
C1405 C 0.52993 0.03102 1.00479 0.0
C1406 C 0.51656 0.97652 0.03038 0.0
C1407 C 0.47499 0.97377 0.02334 0.0
N1408 N 0.41903 1.00052 1.00295 0.0
N1409 N 0.58594 0.00385 0.02502 0.0
C1410 C 0.46036 1.00057 1.00764 0.0
C1411 C 0.54456 0.00411 0.02044 0.0
N1412 N 0.47574 0.05201 0.98151 0.0
N1413 N 0.52909 0.95309 0.04674 0.0
H1414 H 0.60723 0.02286 0.01752 0.0
H1415 H 0.60007 0.98276 0.03483 0.0
H1416 H 0.50988 0.93201 0.05417 0.0
H1417 H 0.55758 0.95626 0.05401 0.0
H1418 H 0.44718 0.04909 0.97427 0.0
H1419 H 0.49489 0.07323 0.97414 0.0
H1420 H 0.40485 0.02134 0.99302 0.0
H1421 H 0.39781 0.98137 1.0104 0.0
C1422 C 0.04281 0.00417 0.50712 0.0
C1423 C 0.02811 0.03092 0.52284 0.0
C1424 C 0.95823 1.00163 0.51924 0.0
C1425 C 0.97297 0.97457 0.50367 0.0
N1426 N 0.02751 0.95298 0.48076 0.0
N1427 N 0.97362 0.05191 0.54594 0.0
C1428 C 0.01478 0.97678 0.49696 0.0
C1429 C 0.98631 0.02864 0.52955 0.0
N1430 N 0.08423 0.00393 0.50265 0.0
N1431 N 0.91671 0.00251 0.52344 0.0
H1432 H 0.99291 0.07254 0.55365 0.0
H1433 H 0.94487 0.04897 0.55297 0.0
H1434 H 0.89543 0.9839 0.51566 0.0
H1435 H 0.90258 0.02379 0.53316 0.0
H1436 H 0.09844 0.98327 0.49264 0.0
H1437 H 0.10546 0.02275 0.51033 0.0
H1438 H 0.05639 0.95531 0.47382 0.0
H1439 H 0.00818 0.93222 0.47316 0.0
C1440 C 0.02305 0.21221 0.05248 0.0
C1441 C 0.97906 0.21298 0.05024 0.0
C1442 C 0.98268 0.28951 0.05251 0.0
C1443 C 0.02664 0.28874 0.05014 0.0
N1444 N 0.08885 0.24708 0.04805 0.0
N1445 N 0.91682 0.25468 0.04828 0.0
C1446 C 0.04677 0.24943 0.05001 0.0
C1447 C 0.95894 0.25229 0.05011 0.0
N1448 N 0.04262 0.17613 0.05767 0.0
N1449 N 0.96317 0.32557 0.05782 0.0
H1450 H 0.89716 0.2292 0.04889 0.0
H1451 H 0.90134 0.2823 0.04515 0.0
H1452 H 0.97776 0.35431 0.05818 0.0
H1453 H 0.93252 0.32671 0.06279 0.0
H1454 H 0.07335 0.17495 0.06254 0.0
H1455 H 0.02801 0.14741 0.05804 0.0
H1456 H 0.10435 0.21944 0.04497 0.0
H1457 H 0.10846 0.27262 0.04842 0.0
C1458 C 1.00047 0.70824 0.30119 0.0
C1459 C 0.03983 0.72816 0.30144 0.0
C1460 C 0.00366 0.79609 0.30107 0.0
C1461 C 0.9643 0.77616 0.30118 0.0
N1462 N 0.92725 0.71282 0.30887 0.0
N1463 N 0.07683 0.79164 0.30896 0.0
C1464 C 0.96336 0.73217 0.30357 0.0
C1465 C 0.04074 0.77219 0.30367 0.0
N1466 N 0.99793 0.66613 0.29926 0.0
N1467 N 0.00618 0.83816 0.299 0.0
H1468 H 0.10546 0.77688 0.30945 0.0
H1469 H 0.07807 0.8224 0.31379 0.0
H1470 H 0.98066 0.85781 0.29908 0.0
H1471 H 0.03391 0.85354 0.29604 0.0
H1472 H 0.97023 0.65076 0.29616 0.0
H1473 H 0.02338 0.64641 0.29969 0.0
H1474 H 0.92601 0.68215 0.31383 0.0
H1475 H 0.8986 0.72756 0.30925 0.0
C1476 C 0.52297 0.71177 0.55196 0.0
C1477 C 0.47891 0.71325 0.55016 0.0
C1478 C 0.48372 0.78955 0.55367 0.0
C1479 C 0.52756 0.78833 0.55088 0.0
N1480 N 0.58901 0.74609 0.54719 0.0
N1481 N 0.4172 0.7559 0.54959 0.0
C1482 C 0.54709 0.74882 0.54979 0.0
C1483 C 0.45934 0.75282 0.55092 0.0
N1484 N 0.54226 0.67519 0.55651 0.0
N1485 N 0.46492 0.82558 0.55963 0.0
H1486 H 0.39719 0.73068 0.55001 0.0
H1487 H 0.40196 0.7839 0.54707 0.0
H1488 H 0.47993 0.85409 0.5602 0.0
H1489 H 0.43449 0.8269 0.5649 0.0
H1490 H 0.57319 0.67341 0.56102 0.0
H1491 H 0.52727 0.64665 0.55673 0.0
H1492 H 0.60399 0.71841 0.54359 0.0
H1493 H 0.60885 0.77146 0.54746 0.0
C1494 C 0.50076 0.20737 0.8008 0.0
C1495 C 0.54007 0.22743 0.80084 0.0
C1496 C 0.50361 0.29523 0.80036 0.0
C1497 C 0.46427 0.27517 0.80064 0.0
N1498 N 0.42756 0.21176 0.8086 0.0
N1499 N 0.57694 0.29114 0.80795 0.0
C1500 C 0.46356 0.2312 0.80318 0.0
C1501 C 0.54083 0.27149 0.80288 0.0
N1502 N 0.49839 0.16523 0.79903 0.0
N1503 N 0.50602 0.3373 0.79824 0.0
H1504 H 0.60563 0.27649 0.80837 0.0
H1505 H 0.57817 0.32197 0.81267 0.0
H1506 H 0.48058 0.35702 0.79873 0.0
H1507 H 0.53362 0.35266 0.79498 0.0
H1508 H 0.47073 0.14968 0.79607 0.0
H1509 H 0.52396 0.14565 0.7994 0.0
H1510 H 0.42649 0.18117 0.81367 0.0
H1511 H 0.39883 0.22634 0.80893 0.0
C1512 C 0.01983 0.79106 0.47585 0.0
C1513 C 0.97588 0.79035 0.4782 0.0
C1514 C 0.97939 0.71382 0.47603 0.0
C1515 C 0.02337 0.71458 0.47828 0.0
N1516 N 0.08565 0.75621 0.48015 0.0
N1517 N 0.91361 0.74882 0.48037 0.0
C1518 C 0.04354 0.75385 0.47832 0.0
C1519 C 0.9557 0.75109 0.47841 0.0
N1520 N 0.03937 0.82704 0.47047 0.0
N1521 N 0.95979 0.67769 0.47091 0.0
H1522 H 0.89403 0.77439 0.47994 0.0
H1523 H 0.89808 0.72124 0.48349 0.0
H1524 H 0.97437 0.64895 0.47061 0.0
H1525 H 0.92907 0.67649 0.46604 0.0
H1526 H 0.07003 0.82809 0.46551 0.0
H1527 H 0.0248 0.85578 0.47004 0.0
H1528 H 0.10115 0.78385 0.48324 0.0
H1529 H 0.10531 0.73072 0.47956 0.0
C1530 C 0.4989 0.79747 0.72739 0.0
C1531 C 0.53813 0.77729 0.72709 0.0
C1532 C 0.50159 0.7096 0.728 0.0
C1533 C 0.46231 0.72978 0.72794 0.0
N1534 N 0.42549 0.7932 0.72007 0.0
N1535 N 0.57467 0.71337 0.71992 0.0
C1536 C 0.46159 0.77372 0.72531 0.0
C1537 C 0.53876 0.7332 0.72516 0.0
N1538 N 0.4967 0.83961 0.72916 0.0
N1539 N 0.50399 0.66753 0.73018 0.0
H1540 H 0.60339 0.72789 0.71932 0.0
H1541 H 0.57568 0.68251 0.71524 0.0
H1542 H 0.47854 0.64783 0.72984 0.0
H1543 H 0.53165 0.65213 0.73333 0.0
H1544 H 0.46914 0.85527 0.73222 0.0
H1545 H 0.52234 0.85908 0.72875 0.0
H1546 H 0.42435 0.82375 0.71494 0.0
H1547 H 0.39673 0.77867 0.71994 0.0
C1548 C 0.54684 0.25404 0.97853 0.0
C1549 C 0.52659 0.2148 0.97818 0.0
C1550 C 0.459 0.25155 0.97841 0.0
C1551 C 0.47926 0.29079 0.97849 0.0
N1552 N 0.54297 0.3275 0.97123 0.0
N1553 N 0.46293 0.17832 0.97048 0.0
C1554 C 0.52325 0.29141 0.97626 0.0
C1555 C 0.48261 0.21425 0.97586 0.0
N1556 N 0.58894 0.25622 0.98048 0.0
N1557 N 0.41689 0.2493 0.98024 0.0
H1558 H 0.47739 0.14952 0.97005 0.0
H1559 H 0.43225 0.17735 0.96553 0.0
H1560 H 0.39731 0.27487 0.97974 0.0
H1561 H 0.4013 0.2217 0.98325 0.0
H1562 H 0.6045 0.28372 0.9838 0.0
H1563 H 0.60852 0.23068 0.9798 0.0
H1564 H 0.57368 0.32862 0.96636 0.0
H1565 H 0.5285 0.35631 0.97101 0.0
C1566 C 0.99937 0.29611 0.22741 0.0
C1567 C 0.03868 0.27604 0.22731 0.0
C1568 C 0.00226 0.20825 0.22732 0.0
C1569 C 0.96294 0.22831 0.22707 0.0
N1570 N 0.92614 0.29191 0.21959 0.0
N1571 N 0.0755 0.21251 0.21966 0.0
C1572 C 0.96218 0.27234 0.22483 0.0
C1573 C 0.03945 0.23204 0.22495 0.0
N1574 N 0.997 0.3382 0.22946 0.0
N1575 N 0.00467 0.16615 0.22925 0.0
H1576 H 0.10421 0.22712 0.2193 0.0
H1577 H 0.07664 0.18182 0.21471 0.0
H1578 H 0.97917 0.1465 0.22875 0.0
H1579 H 0.0323 0.1507 0.23239 0.0
H1580 H 0.96932 0.35371 0.23243 0.0
H1581 H 0.02258 0.35776 0.22936 0.0
H1582 H 0.92499 0.32264 0.21473 0.0
H1583 H 0.89742 0.2773 0.21918 0.0
C1584 C 0.95865 0.75257 0.97879 0.0
C1585 C 0.97866 0.71322 0.97869 0.0
C1586 C 0.04647 0.74939 0.97866 0.0
C1587 C 0.02645 0.78873 0.97852 0.0
N1588 N 0.96303 0.82575 0.97095 0.0
N1589 N 0.04196 0.67609 0.97103 0.0
C1590 C 0.98248 0.78966 0.97626 0.0
C1591 C 0.0226 0.71226 0.9763 0.0
N1592 N 0.91656 0.75509 0.98073 0.0
N1593 N 0.08858 0.7469 0.98048 0.0
H1594 H 0.02724 0.64742 0.9707 0.0
H1595 H 0.0726 0.67479 0.96606 0.0
H1596 H 0.10829 0.77234 0.97996 0.0
H1597 H 0.10401 0.71923 0.98357 0.0
H1598 H 0.90118 0.78281 0.98379 0.0
H1599 H 0.89685 0.72964 0.98035 0.0
H1600 H 0.93232 0.82697 0.96606 0.0
H1601 H 0.97773 0.85442 0.97052 0.0
C1602 C 0.00372 0.29742 0.72756 0.0
C1603 C 0.96441 0.27743 0.72721 0.0
C1604 C 1.0006 0.20957 0.7279 0.0
C1605 C 0.03996 0.22956 0.72796 0.0
N1606 N 0.07713 0.29286 0.72033 0.0
N1607 N 0.92759 0.21388 0.71965 0.0
C1608 C 0.04091 0.27351 0.72545 0.0
C1609 C 0.96356 0.2334 0.72509 0.0
N1610 N 0.00611 0.33955 0.7294 0.0
N1611 N 0.99801 0.16749 0.72994 0.0
H1612 H 0.89897 0.22863 0.71897 0.0
H1613 H 0.92645 0.18308 0.71487 0.0
H1614 H 0.02341 0.1477 0.72964 0.0
H1615 H 0.97026 0.15218 0.73294 0.0
H1616 H 0.03372 0.35505 0.73253 0.0
H1617 H 0.98057 0.35916 0.72893 0.0
H1618 H 0.07846 0.32347 0.71529 0.0
H1619 H 0.10581 0.27816 0.72018 0.0
C1620 C 0.54609 0.2459 0.47878 0.0
C1621 C 0.52638 0.28537 0.47873 0.0
C1622 C 0.45828 0.24977 0.47882 0.0
C1623 C 0.47799 0.21031 0.47854 0.0
N1624 N 0.54102 0.17281 0.47074 0.0
N1625 N 0.46303 0.32289 0.47121 0.0
C1626 C 0.52194 0.20902 0.47618 0.0
C1627 C 0.48237 0.28666 0.47642 0.0
N1628 N 0.58815 0.24308 0.48076 0.0
N1629 N 0.41623 0.25266 0.48081 0.0
H1630 H 0.47745 0.35171 0.47122 0.0
H1631 H 0.43247 0.32413 0.46611 0.0
H1632 H 0.39618 0.22749 0.48013 0.0
H1633 H 0.40117 0.28044 0.48413 0.0
H1634 H 0.60338 0.21519 0.48361 0.0
H1635 H 0.60796 0.26847 0.48073 0.0
H1636 H 0.57169 0.17137 0.46583 0.0
H1637 H 0.52606 0.14427 0.47024 0.0
C1638 C 0.46273 0.73199 0.22612 0.0
C1639 C 0.46347 0.776 0.22839 0.0
C1640 C 0.53996 0.77242 0.22626 0.0
C1641 C 0.53919 0.72845 0.22859 0.0
N1642 N 0.4976 0.66616 0.23054 0.0
N1643 N 0.50508 0.83829 0.23043 0.0
C1644 C 0.49993 0.70828 0.22863 0.0
C1645 C 0.50274 0.79616 0.22859 0.0
N1646 N 0.4267 0.7124 0.22086 0.0
N1647 N 0.57602 0.79197 0.22104 0.0
H1648 H 0.47962 0.85797 0.22973 0.0
H1649 H 0.53266 0.85379 0.23363 0.0
H1650 H 0.60476 0.77738 0.22074 0.0
H1651 H 0.57718 0.82263 0.21609 0.0
H1652 H 0.42557 0.68168 0.21596 0.0
H1653 H 0.39797 0.727 0.22046 0.0
H1654 H 0.46998 0.65064 0.23357 0.0
H1655 H 0.52314 0.64654 0.23015 0.0
C1656 C 0.95676 0.25023 0.54973 0.0
C1657 C 0.97697 0.28948 0.55005 0.0
C1658 C 0.04459 0.2529 0.55039 0.0
C1659 C 0.02437 0.21365 0.55032 0.0
N1660 N 0.96058 0.17688 0.5573 0.0
N1661 N 0.04031 0.32613 0.55819 0.0
C1662 C 0.98034 0.21295 0.55229 0.0
C1663 C 0.02086 0.29015 0.5527 0.0
N1664 N 0.91471 0.24799 0.54753 0.0
N1665 N 0.08675 0.25519 0.54883 0.0
H1666 H 0.02576 0.3549 0.55852 0.0
H1667 H 0.07085 0.32718 0.56336 0.0
H1668 H 0.10634 0.22966 0.54952 0.0
H1669 H 0.10236 0.2828 0.54585 0.0
H1670 H 0.89924 0.22041 0.54429 0.0
H1671 H 0.89513 0.27355 0.54787 0.0
H1672 H 0.92975 0.17574 0.56198 0.0
H1673 H 0.97512 0.14812 0.55771 0.0
C1674 C 0.50313 0.20879 0.30086 0.0
C1675 C 0.46382 0.22889 0.30084 0.0
C1676 C 0.50016 0.29666 0.30092 0.0
C1677 C 0.53947 0.27658 0.30122 0.0
N1678 N 0.57628 0.21307 0.30881 0.0
N1679 N 0.42683 0.29238 0.30835 0.0
C1680 C 0.54027 0.23258 0.30347 0.0
C1681 C 0.46297 0.27287 0.30319 0.0
N1682 N 0.50556 0.16668 0.29892 0.0
N1683 N 0.49776 0.33878 0.29905 0.0
H1684 H 0.39812 0.27774 0.30861 0.0
H1685 H 0.42558 0.32307 0.31329 0.0
H1686 H 0.5232 0.35848 0.29971 0.0
H1687 H 0.47017 0.35423 0.29581 0.0
H1688 H 0.53324 0.15119 0.29595 0.0
H1689 H 0.48006 0.14703 0.2992 0.0
H1690 H 0.57746 0.18234 0.31367 0.0
H1691 H 0.60493 0.22777 0.30934 0.0
C1692 C 0.4593 0.75146 0.05054 0.0
C1693 C 0.47943 0.79076 0.05057 0.0
C1694 C 0.54713 0.75432 0.05047 0.0
C1695 C 0.52699 0.71503 0.05068 0.0
N1696 N 0.46352 0.67828 0.05839 0.0
N1697 N 0.54297 0.82771 0.05796 0.0
C1698 C 0.48304 0.71428 0.05302 0.0
C1699 C 0.52341 0.79156 0.05283 0.0
N1700 N 0.41719 0.74906 0.04872 0.0
N1701 N 0.58923 0.75663 0.04854 0.0
H1702 H 0.52837 0.85644 0.05825 0.0
H1703 H 0.57368 0.82893 0.06285 0.0
H1704 H 0.60885 0.73111 0.04903 0.0
H1705 H 0.60473 0.78422 0.04539 0.0
H1706 H 0.40171 0.72141 0.04562 0.0
H1707 H 0.3975 0.77453 0.04932 0.0
H1708 H 0.43287 0.6772 0.06335 0.0
H1709 H 0.47811 0.64954 0.0588 0.0
C1710 C 0.00264 0.70751 0.80136 0.0
C1711 C 0.96329 0.72745 0.80166 0.0
C1712 C 0.99934 0.79537 0.80105 0.0
C1713 C 0.03872 0.77542 0.80101 0.0
N1714 N 0.07597 0.71219 0.80875 0.0
N1715 N 0.92627 0.79091 0.80916 0.0
C1716 C 0.03975 0.73148 0.80352 0.0
C1717 C 0.96233 0.77147 0.80381 0.0
N1718 N 0.00515 0.66538 0.79955 0.0
N1719 N 0.99671 0.83744 0.79901 0.0
H1720 H 0.89766 0.77612 0.80975 0.0
H1721 H 0.92503 0.8217 0.81395 0.0
H1722 H 0.02212 0.85721 0.7992 0.0
H1723 H 0.96892 0.85277 0.79606 0.0
H1724 H 0.0328 0.64995 0.79643 0.0
H1725 H 0.97968 0.64569 0.80009 0.0
H1726 H 0.07731 0.6816 0.81381 0.0
H1727 H 0.10463 0.72691 0.80894 0.0
C1728 C 0.27406 0.43275 1.01188 0.0
C1729 C 0.29418 0.39467 1.0072 0.0
C1730 C 0.23317 0.35666 0.01938 0.0
C1731 C 0.2111 0.39428 0.02203 0.0
N1732 N 0.20921 0.46859 0.0194 0.0
N1733 N 0.28778 0.32121 1.00113 0.0
C1734 C 0.23122 0.43259 0.0179 0.0
C1735 C 0.27216 0.35692 1.00936 0.0
N1736 N 0.29606 0.46881 1.0109 0.0
N1737 N 0.21765 0.32058 0.0272 0.0
H1738 H 0.31598 0.32011 0.99332 0.0
H1739 H 0.27096 0.29367 1.00047 0.0
H1740 H 0.18951 0.3191 0.03505 0.0
H1741 H 0.23452 0.29303 0.02751 0.0
H1742 H 0.28483 0.49719 0.01607 0.0
H1743 H 0.32668 0.46977 1.00582 0.0
H1744 H 0.22044 0.49725 0.01464 0.0
H1745 H 0.17859 0.46928 0.0245 0.0
C1746 C 0.84621 0.0346 0.27862 0.0
C1747 C 0.85187 0.04444 0.25748 0.0
C1748 C 0.8455 0.96966 0.25048 0.0
C1749 C 0.85182 0.95979 0.27157 0.0
N1750 N 0.86716 0.98793 0.30548 0.0
N1751 N 0.86605 0.01611 0.22348 0.0
C1752 C 0.85435 0.99357 0.2857 0.0
C1753 C 0.85372 0.01062 0.24334 0.0
N1754 N 0.83232 0.06398 0.29204 0.0
N1755 N 0.83099 0.94034 0.23719 0.0
H1756 H 0.87703 0.04396 0.21764 0.0
H1757 H 0.87055 0.99123 0.21349 0.0
H1758 H 0.82119 0.91116 0.24208 0.0
H1759 H 0.82353 0.94716 0.22198 0.0
H1760 H 0.82532 0.05717 0.3073 0.0
H1761 H 0.82251 0.09322 0.28726 0.0
H1762 H 0.87223 0.01276 0.31544 0.0
H1763 H 0.87788 0.95993 0.31128 0.0
C1764 C 0.22849 0.57339 0.51186 0.0
C1765 C 0.20807 0.61137 0.50737 0.0
C1766 C 0.26868 0.64977 0.51969 0.0
C1767 C 0.29097 0.61229 0.52223 0.0
N1768 N 0.29381 0.53808 0.5189 0.0
N1769 N 0.214 0.68488 0.50136 0.0
C1770 C 0.27133 0.57386 0.51782 0.0
C1771 C 0.22978 0.64928 0.50961 0.0
N1772 N 0.20681 0.53715 0.51072 0.0
N1773 N 0.28396 0.6859 0.52761 0.0
H1774 H 0.18587 0.68579 0.49347 0.0
H1775 H 0.23064 0.71254 0.50079 0.0
H1776 H 0.31209 0.6875 0.53547 0.0
H1777 H 0.26691 0.71334 0.52795 0.0
H1778 H 0.21835 0.50881 0.51577 0.0
H1779 H 0.17618 0.53598 0.50566 0.0
H1780 H 0.28276 0.50945 0.51395 0.0
H1781 H 0.32465 0.53759 0.5237 0.0
C1782 C 0.65921 0.03437 0.74936 0.0
C1783 C 0.65281 0.04394 0.7705 0.0
C1784 C 0.65927 0.96913 0.77727 0.0
C1785 C 0.65359 0.95944 0.75611 0.0
N1786 N 0.64 0.98773 0.7221 0.0
N1787 N 0.63808 0.0153 0.80432 0.0
C1788 C 0.65167 0.99332 0.74205 0.0
C1789 C 0.65081 0.01 0.78451 0.0
N1790 N 0.67326 0.06406 0.73619 0.0
N1791 N 0.67328 0.93961 0.79056 0.0
H1792 H 0.62714 0.04315 0.81022 0.0
H1793 H 0.63333 0.99034 0.81421 0.0
H1794 H 0.683 0.9104 0.78564 0.0
H1795 H 0.68034 0.94621 0.80585 0.0
H1796 H 0.68087 0.05755 0.72097 0.0
H1797 H 0.68254 0.09336 0.74117 0.0
H1798 H 0.63512 0.01257 0.71215 0.0
H1799 H 0.63026 0.95958 0.71606 0.0
C1800 C 0.73346 0.64688 0.02013 0.0
C1801 C 0.71138 0.60927 0.0227 0.0
C1802 C 0.77404 0.57081 1.01205 0.0
C1803 C 0.79418 0.60892 1.00752 0.0
N1804 N 0.78781 0.68248 1.00181 0.0
N1805 N 0.70926 0.53502 0.01969 0.0
C1806 C 0.77228 0.64669 1.00995 0.0
C1807 C 0.73132 0.57098 0.01828 0.0
N1808 N 0.71806 0.6829 0.02813 0.0
N1809 N 0.79591 0.5347 1.01073 0.0
H1810 H 0.67876 0.53432 0.02496 0.0
H1811 H 0.72031 0.50642 0.01472 0.0
H1812 H 0.82641 0.53376 1.00547 0.0
H1813 H 0.78472 0.50624 0.01578 0.0
H1814 H 0.73497 0.71042 0.0285 0.0
H1815 H 0.69001 0.68434 0.03605 0.0
H1816 H 0.77103 0.71006 1.00134 0.0
H1817 H 0.81586 0.68363 0.99387 0.0
C1818 C 0.10476 0.98275 0.76978 0.0
C1819 C 0.14246 0.96073 0.77227 0.0
C1820 C 0.18068 0.02385 0.76206 0.0
C1821 C 0.14253 0.04403 0.75762 0.0
N1822 N 0.06896 0.03781 0.752 0.0
N1823 N 0.21669 0.95897 0.76934 0.0
C1824 C 0.10482 0.022 0.75994 0.0
C1825 C 0.18066 0.98095 0.76803 0.0
N1826 N 0.06879 0.9669 0.77755 0.0
N1827 N 0.2167 0.04586 0.7609 0.0
H1828 H 0.21751 0.92831 0.77438 0.0
H1829 H 0.24524 0.97025 0.76447 0.0
H1830 H 0.21757 0.07652 0.75586 0.0
H1831 H 0.24519 0.03461 0.7659 0.0
H1832 H 0.0412 0.98366 0.77803 0.0
H1833 H 0.06743 0.93854 0.78521 0.0
H1834 H 0.0414 0.02102 0.75139 0.0
H1835 H 0.06767 0.06618 0.74434 0.0
C1836 C 0.77255 0.43217 0.51671 0.0
C1837 C 0.79343 0.39431 0.52094 0.0
C1838 C 0.73376 0.35568 0.50777 0.0
C1839 C 0.7107 0.39283 0.50578 0.0
N1840 N 0.70669 0.4668 0.51006 0.0
N1841 N 0.78841 0.32041 0.52599 0.0
C1842 C 0.72975 0.43136 0.51064 0.0
C1843 C 0.77236 0.35621 0.51809 0.0
N1844 N 0.79369 0.46865 0.51828 0.0
N1845 N 0.71935 0.31983 0.49917 0.0
H1846 H 0.81632 0.31946 0.53408 0.0
H1847 H 0.77214 0.2925 0.52607 0.0
H1848 H 0.69163 0.31842 0.49094 0.0
H1849 H 0.73689 0.29273 0.49853 0.0
H1850 H 0.78179 0.49701 0.51345 0.0
H1851 H 0.82424 0.47002 0.52345 0.0
H1852 H 0.71731 0.49531 0.51539 0.0
H1853 H 0.67585 0.46705 0.50526 0.0
C1854 C 0.32104 0.02374 0.26803 0.0
C1855 C 0.35918 0.04396 0.27242 0.0
C1856 C 0.39698 0.98319 0.25968 0.0
C1857 C 0.35937 0.96105 0.25723 0.0
N1858 N 0.28521 0.95888 0.26046 0.0
N1859 N 0.43279 0.03764 0.27791 0.0
C1860 C 0.32116 0.98098 0.26179 0.0
C1861 C 0.39691 0.02206 0.26987 0.0
N1862 N 0.28495 0.04557 0.2695 0.0
N1863 N 0.43286 0.96784 0.25154 0.0
H1864 H 0.43402 0.06571 0.28586 0.0
H1865 H 0.46039 0.02088 0.27828 0.0
H1866 H 0.4342 0.93975 0.2436 0.0
H1867 H 0.46033 0.98479 0.25109 0.0
H1868 H 0.25643 0.03433 0.26454 0.0
H1869 H 0.28405 0.07605 0.27481 0.0
H1870 H 0.25669 0.96991 0.26553 0.0
H1871 H 0.28445 0.92838 0.25515 0.0
C1872 C 0.7718 0.93475 0.51051 0.0
C1873 C 0.79192 0.89653 0.50615 0.0
C1874 C 0.73138 0.85887 0.51901 0.0
C1875 C 0.70919 0.8965 0.5213 0.0
N1876 N 0.70698 0.97069 0.51795 0.0
N1877 N 0.78554 0.82284 0.50076 0.0
C1878 C 0.72907 0.93472 0.51671 0.0
C1879 C 0.77006 0.85882 0.50876 0.0
N1880 N 0.79368 0.97081 0.50906 0.0
N1881 N 0.71632 0.82314 0.52742 0.0
H1882 H 0.81352 0.82151 0.49276 0.0
H1883 H 0.76875 0.79525 0.50048 0.0
H1884 H 0.68848 0.82194 0.53553 0.0
H1885 H 0.73337 0.79571 0.52794 0.0
H1886 H 0.78246 0.99938 0.51398 0.0
H1887 H 0.82419 0.97162 0.50381 0.0
H1888 H 0.71803 0.99918 0.51287 0.0
H1889 H 0.67647 0.97147 0.52319 0.0
C1890 C 0.39792 0.5223 0.7598 0.0
C1891 C 0.3601 0.54418 0.75741 0.0
C1892 C 0.32221 0.48078 0.76754 0.0
C1893 C 0.36046 0.46066 0.77182 0.0
N1894 N 0.4341 0.46695 0.7772 0.0
N1895 N 0.28589 0.54559 0.76048 0.0
C1896 C 0.39809 0.48285 0.76946 0.0
C1897 C 0.32203 0.52374 0.76168 0.0
N1898 N 0.43379 0.53848 0.75208 0.0
N1899 N 0.28627 0.45864 0.76872 0.0
H1900 H 0.28491 0.57631 0.75553 0.0
H1901 H 0.25742 0.53416 0.76537 0.0
H1902 H 0.28554 0.42792 0.77368 0.0
H1903 H 0.2577 0.46983 0.76381 0.0
H1904 H 0.46146 0.52187 0.75148 0.0
H1905 H 0.43502 0.567 0.74456 0.0
H1906 H 0.46163 0.48378 0.77782 0.0
H1907 H 0.43556 0.43843 0.78471 0.0
C1908 C 0.77403 0.07106 0.01672 0.0
C1909 C 0.79423 0.10913 0.02131 0.0
C1910 C 0.73318 0.14719 1.0092 0.0
C1911 C 0.71104 0.10959 1.00666 0.0
N1912 N 0.70905 0.0353 1.00941 0.0
N1913 N 0.78789 0.1826 0.0274 0.0
C1914 C 0.73113 0.07126 1.0108 0.0
C1915 C 0.77223 0.14691 0.01918 0.0
N1916 N 0.796 0.03497 0.0177 0.0
N1917 N 0.71769 0.18325 1.00133 0.0
H1918 H 0.81613 0.18369 0.0352 0.0
H1919 H 0.77107 0.21015 0.02806 0.0
H1920 H 0.68951 0.18473 0.9935 0.0
H1921 H 0.73462 0.21074 1.00096 0.0
H1922 H 0.78468 0.00658 1.01258 0.0
H1923 H 0.82669 0.03399 0.0227 0.0
H1924 H 0.7203 0.00665 1.01417 0.0
H1925 H 0.67835 0.03464 1.00441 0.0
C1926 C 0.14952 0.51034 0.2852 0.0
C1927 C 0.15141 0.54422 0.27114 0.0
C1928 C 0.14929 0.49346 0.24279 0.0
C1929 C 0.15162 0.45962 0.25686 0.0
N1930 N 0.17232 0.44006 0.29123 0.0
N1931 N 0.17139 0.56393 0.23669 0.0
C1932 C 0.15783 0.46942 0.27798 0.0
C1933 C 0.15733 0.53447 0.24998 0.0
N1934 N 0.13712 0.51573 0.30506 0.0
N1935 N 0.1368 0.48792 0.22295 0.0
H1936 H 0.17857 0.55722 0.22143 0.0
H1937 H 0.1812 0.59312 0.24158 0.0
H1938 H 0.12631 0.45991 0.21704 0.0
H1939 H 0.13184 0.51279 0.21303 0.0
H1940 H 0.13258 0.49079 0.31498 0.0
H1941 H 0.12615 0.54356 0.31096 0.0
H1942 H 0.17971 0.44682 0.30646 0.0
H1943 H 0.18218 0.41091 0.2863 0.0
C1944 C 0.22878 0.0705 0.51719 0.0
C1945 C 0.20925 0.10875 0.52211 0.0
C1946 C 0.27044 0.14622 0.50981 0.0
C1947 C 0.29193 0.10837 0.50686 0.0
N1948 N 0.29301 0.034 0.50921 0.0
N1949 N 0.21669 0.18199 0.52852 0.0
C1950 C 0.27147 0.07023 0.51094 0.0
C1951 C 0.23169 0.14626 0.52004 0.0
N1952 N 0.20637 0.0347 0.51818 0.0
N1953 N 0.28625 0.18225 0.50206 0.0
H1954 H 0.18867 0.18326 0.53648 0.0
H1955 H 0.23386 0.20931 0.52922 0.0
H1956 H 0.31421 0.1835 0.49406 0.0
H1957 H 0.26974 0.21002 0.50199 0.0
H1958 H 0.21712 0.00626 0.51282 0.0
H1959 H 0.17591 0.03403 0.5235 0.0
H1960 H 0.28153 0.00541 0.51392 0.0
H1961 H 0.32351 0.03301 0.50396 0.0
C1962 C 0.60643 0.48329 0.26984 0.0
C1963 C 0.64405 0.46119 0.27232 0.0
C1964 C 0.68233 0.52371 0.26134 0.0
C1965 C 0.64416 0.54385 0.25691 0.0
N1966 N 0.57056 0.53743 0.25146 0.0
N1967 N 0.71821 0.45898 0.26907 0.0
C1968 C 0.60645 0.52198 0.25953 0.0
C1969 C 0.68225 0.48105 0.26769 0.0
N1970 N 0.57059 0.46808 0.27806 0.0
N1971 N 0.7184 0.54553 0.2598 0.0
H1972 H 0.71899 0.42857 0.27447 0.0
H1973 H 0.74671 0.46993 0.26395 0.0
H1974 H 0.71926 0.57595 0.25441 0.0
H1975 H 0.74694 0.53437 0.26478 0.0
H1976 H 0.54312 0.48505 0.27848 0.0
H1977 H 0.56929 0.44013 0.28609 0.0
H1978 H 0.54297 0.52065 0.25115 0.0
H1979 H 0.5693 0.56538 0.24342 0.0
C1980 C 0.23338 0.85614 1.00911 0.0
C1981 C 0.21131 0.89377 1.00654 0.0
C1982 C 0.27416 0.93219 0.01696 0.0
C1983 C 0.2943 0.89408 0.02153 0.0
N1984 N 0.28787 0.82058 0.02739 0.0
N1985 N 0.20931 0.96805 1.00946 0.0
C1986 C 0.27231 0.85633 0.01921 0.0
C1987 C 0.23135 0.93206 1.01085 0.0
N1988 N 0.2179 0.82011 1.00117 0.0
N1989 N 0.29611 0.96826 0.01813 0.0
H1990 H 0.17872 0.96876 1.00431 0.0
H1991 H 0.22048 0.99665 1.01436 0.0
H1992 H 0.3267 0.9692 0.02328 0.0
H1993 H 0.28488 0.9967 1.01305 0.0
H1994 H 0.23479 0.79258 1.00081 0.0
H1995 H 0.18977 0.81867 0.99329 0.0
H1996 H 0.27104 0.79303 0.02794 0.0
H1997 H 0.31601 0.81943 0.03527 0.0
C1998 C 0.84344 0.46925 0.77778 0.0
C1999 C 0.85 0.46019 0.75661 0.0
C2000 C 0.84429 0.53521 0.75036 0.0
C2001 C 0.85016 0.54424 0.77161 0.0
N2002 N 0.86364 0.51454 0.80538 0.0
N2003 N 0.86489 0.48963 0.72296 0.0
C2004 C 0.85168 0.50989 0.7854 0.0
C2005 C 0.85237 0.49448 0.74283 0.0
N2006 N 0.82873 0.43943 0.7907 0.0
N2007 N 0.83027 0.56511 0.73729 0.0
H2008 H 0.8752 0.46181 0.71677 0.0
H2009 H 0.86995 0.51485 0.71328 0.0
H2010 H 0.82052 0.59415 0.7424 0.0
H2011 H 0.8231 0.55891 0.72197 0.0
H2012 H 0.82106 0.44564 0.80595 0.0
H2013 H 0.81901 0.41045 0.78546 0.0
H2014 H 0.86801 0.48923 0.8151 0.0
H2015 H 0.87429 0.54215 0.81165 0.0
C2016 C 0.1563 0.39924 0.12806 0.0
C2017 C 0.12922 0.37237 0.11711 0.0
C2018 C 0.09893 0.34942 0.15003 0.0
C2019 C 0.12433 0.3781 0.16092 0.0
N2020 N 0.17328 0.43413 0.16018 0.0
N2021 N 0.07065 0.32582 0.11766 0.0
C2022 C 0.152 0.40401 0.14984 0.0
C2023 C 0.09963 0.34838 0.12812 0.0
N2024 N 0.187 0.4193 0.11759 0.0
N2025 N 0.07518 0.32162 0.16061 0.0
H2026 H 0.07135 0.32141 0.10186 0.0
H2027 H 0.04437 0.31321 0.12449 0.0
H2028 H 0.07071 0.32293 0.17638 0.0
H2029 H 0.06147 0.29575 0.15388 0.0
H2030 H 0.21039 0.43637 0.12461 0.0
H2031 H 0.19117 0.4159 0.10179 0.0
H2032 H 0.1911 0.45679 0.15305 0.0
H2033 H 0.1702 0.43868 0.17596 0.0
C2034 C 0.90309 0.84928 0.40022 0.0
C2035 C 0.87344 0.87339 0.41115 0.0
C2036 C 0.85115 0.90511 0.37841 0.0
C2037 C 0.8789 0.87911 0.3674 0.0
N2038 N 0.92796 0.82255 0.36778 0.0
N2039 N 0.81581 0.92051 0.41056 0.0
C2040 C 0.90411 0.85036 0.37832 0.0
C2041 C 0.84657 0.90034 0.40016 0.0
N2042 N 0.93183 0.82657 0.41076 0.0
N2043 N 0.83008 0.93529 0.36803 0.0
H2044 H 0.81143 0.9171 0.42634 0.0
H2045 H 0.79257 0.93769 0.4035 0.0
H2046 H 0.8334 0.93984 0.35226 0.0
H2047 H 0.81221 0.95799 0.37511 0.0
H2048 H 0.95819 0.81391 0.40401 0.0
H2049 H 0.93081 0.82201 0.42653 0.0
H2050 H 0.94152 0.79662 0.37452 0.0
H2051 H 0.93274 0.82393 0.35204 0.0
C2052 C 0.35419 0.65937 0.64936 0.0
C2053 C 0.37683 0.63004 0.66144 0.0
C2054 C 0.40805 0.60438 0.62951 0.0
C2055 C 0.37954 0.62803 0.61742 0.0
N2056 N 0.31895 0.67187 0.61716 0.0
N2057 N 0.41939 0.56856 0.66168 0.0
C2058 C 0.35059 0.65363 0.62773 0.0
C2059 C 0.40195 0.60065 0.65112 0.0
N2060 N 0.33845 0.69448 0.65813 0.0
N2061 N 0.44279 0.58775 0.6208 0.0
H2062 H 0.4145 0.56378 0.67731 0.0
H2063 H 0.43489 0.54431 0.65439 0.0
H2064 H 0.45162 0.5935 0.6057 0.0
H2065 H 0.46582 0.57317 0.62939 0.0
H2066 H 0.32466 0.71801 0.64955 0.0
H2067 H 0.34429 0.70303 0.67328 0.0
H2068 H 0.29503 0.68783 0.62445 0.0
H2069 H 0.31406 0.66714 0.60152 0.0
C2070 C 0.60582 0.09889 0.87727 0.0
C2071 C 0.63079 0.12859 0.86714 0.0
C2072 C 0.65606 0.15215 0.90104 0.0
C2073 C 0.62675 0.12663 0.91111 0.0
N2074 N 0.56336 0.08673 0.90704 0.0
N2075 N 0.6683 0.19355 0.87091 0.0
C2076 C 0.59869 0.10294 0.89876 0.0
C2077 C 0.65289 0.15807 0.87941 0.0
N2078 N 0.58938 0.06631 0.86667 0.0
N2079 N 0.68749 0.17026 0.91181 0.0
H2080 H 0.66233 0.20252 0.85585 0.0
H2081 H 0.68179 0.21699 0.87968 0.0
H2082 H 0.69211 0.1653 0.92745 0.0
H2083 H 0.71153 0.1863 0.90467 0.0
H2084 H 0.57378 0.04209 0.87391 0.0
H2085 H 0.59539 0.06104 0.85117 0.0
H2086 H 0.54085 0.072 0.89816 0.0
H2087 H 0.55347 0.09315 0.92192 0.0
C2088 C 0.10396 0.59865 0.37782 0.0
C2089 C 0.12895 0.62844 0.36777 0.0
C2090 C 0.15377 0.65205 0.40174 0.0
C2091 C 0.12443 0.62643 0.41173 0.0
N2092 N 0.06134 0.58612 0.4075 0.0
N2093 N 0.16628 0.69347 0.37164 0.0
C2094 C 0.09663 0.60259 0.39931 0.0
C2095 C 0.15084 0.65797 0.3801 0.0
N2096 N 0.08769 0.56608 0.36714 0.0
N2097 N 0.18502 0.67025 0.4126 0.0
H2098 H 0.16052 0.70239 0.35655 0.0
H2099 H 0.1796 0.71696 0.38045 0.0
H2100 H 0.1895 0.66527 0.42825 0.0
H2101 H 0.20909 0.68637 0.40553 0.0
H2102 H 0.07214 0.54176 0.37431 0.0
H2103 H 0.09379 0.56096 0.35163 0.0
H2104 H 0.03898 0.57129 0.39858 0.0
H2105 H 0.05133 0.59238 0.42238 0.0
C2106 C 0.63301 0.91487 0.6499 0.0
C2107 C 0.63356 0.87596 0.65996 0.0
C2108 C 0.64785 0.84156 0.62674 0.0
C2109 C 0.64205 0.87964 0.6163 0.0
N2110 N 0.64878 0.95381 0.61899 0.0
N2111 N 0.6357 0.80128 0.65742 0.0
C2112 C 0.63997 0.91682 0.62819 0.0
C2113 C 0.63962 0.83911 0.64821 0.0
N2114 N 0.62534 0.94992 0.66104 0.0
N2115 N 0.66477 0.80855 0.61663 0.0
H2116 H 0.62919 0.79774 0.67295 0.0
H2117 H 0.63468 0.77349 0.64929 0.0
H2118 H 0.67715 0.81101 0.60193 0.0
H2119 H 0.67288 0.78091 0.62382 0.0
H2120 H 0.61982 0.97879 0.65448 0.0
H2121 H 0.62136 0.94953 0.67693 0.0
H2122 H 0.65091 0.98186 0.6268 0.0
H2123 H 0.65971 0.95558 0.60395 0.0
C2124 C 0.35512 0.3463 0.87976 0.0
C2125 C 0.37814 0.37517 0.86761 0.0
C2126 C 0.40945 0.40098 0.89947 0.0
C2127 C 0.38052 0.37799 0.91161 0.0
N2128 N 0.31936 0.33497 0.91191 0.0
N2129 N 0.42113 0.43635 0.86724 0.0
C2130 C 0.35133 0.35257 0.90135 0.0
C2131 C 0.40342 0.40451 0.87785 0.0
N2132 N 0.33923 0.31109 0.87116 0.0
N2133 N 0.44452 0.41705 0.90812 0.0
H2134 H 0.41622 0.44109 0.8516 0.0
H2135 H 0.43686 0.4605 0.87449 0.0
H2136 H 0.45342 0.41114 0.9232 0.0
H2137 H 0.46772 0.43117 0.89947 0.0
H2138 H 0.32509 0.28793 0.87983 0.0
H2139 H 0.34532 0.30204 0.85611 0.0
H2140 H 0.29535 0.31912 0.90462 0.0
H2141 H 0.31435 0.34014 0.9275 0.0
C2142 C 0.85125 0.15745 0.14848 0.0
C2143 C 0.87321 0.12819 0.16091 0.0
C2144 C 0.9056 0.10182 0.12946 0.0
C2145 C 0.87781 0.12545 0.11694 0.0
N2146 N 0.81712 0.16915 0.11591 0.0
N2147 N 0.91446 0.06582 0.16173 0.0
C2148 C 0.84839 0.15118 0.12685 0.0
C2149 C 0.89821 0.09823 0.15096 0.0
N2150 N 0.83565 0.19303 0.15682 0.0
N2151 N 0.94091 0.08522 0.12134 0.0
H2152 H 0.90831 0.06094 0.17725 0.0
H2153 H 0.93004 0.04138 0.15464 0.0
H2154 H 0.95097 0.09125 0.10645 0.0
H2155 H 0.96326 0.07054 0.13032 0.0
H2156 H 0.82231 0.21635 0.14794 0.0
H2157 H 0.84128 0.20218 0.1719 0.0
H2158 H 0.79299 0.18533 0.12292 0.0
H2159 H 0.81269 0.16391 0.10028 0.0
C2160 C 0.9045 0.65333 0.87903 0.0
C2161 C 0.87877 0.62485 0.86821 0.0
C2162 C 0.84749 0.60346 0.90121 0.0
C2163 C 0.87493 0.63008 0.91208 0.0
N2164 N 0.93374 0.67631 0.91131 0.0
N2165 N 0.82967 0.56894 0.8691 0.0
C2166 C 0.90436 0.65406 0.90096 0.0
C2167 C 0.85127 0.5989 0.87938 0.0
N2168 N 0.928 0.68127 0.86842 0.0
N2169 N 0.81693 0.58342 0.91179 0.0
H2170 H 0.83236 0.56453 0.85328 0.0
H2171 H 0.81198 0.54624 0.87627 0.0
H2172 H 0.81314 0.58663 0.92761 0.0
H2173 H 0.79328 0.56658 0.90484 0.0
H2174 H 0.94195 0.70699 0.87516 0.0
H2175 H 0.93197 0.6803 0.85261 0.0
H2176 H 0.95989 0.6889 0.90435 0.0
H2177 H 0.93354 0.68042 0.92713 0.0
C2178 C 0.15252 0.15144 0.6278 0.0
C2179 C 0.12302 0.12629 0.61759 0.0
C2180 C 0.10026 0.09985 0.65139 0.0
C2181 C 0.12585 0.12897 0.6616 0.0
N2182 N 0.16524 0.19275 0.65798 0.0
N2183 N 0.0588 0.08766 0.6212 0.0
C2184 C 0.14899 0.15769 0.6494 0.0
C2185 C 0.09405 0.10347 0.62978 0.0
N2186 N 0.18452 0.16882 0.61717 0.0
N2187 N 0.08242 0.06811 0.66202 0.0
H2188 H 0.04982 0.09364 0.60614 0.0
H2189 H 0.03557 0.07369 0.62989 0.0
H2190 H 0.08747 0.06328 0.67764 0.0
H2191 H 0.06644 0.0441 0.65479 0.0
H2192 H 0.20873 0.18446 0.62442 0.0
H2193 H 0.18934 0.16366 0.60157 0.0
H2194 H 0.17947 0.21582 0.64929 0.0
H2195 H 0.15939 0.20182 0.67305 0.0
C2196 C 0.59326 0.4041 0.3999 0.0
C2197 C 0.62275 0.38244 0.41237 0.0
C2198 C 0.64995 0.35092 0.38085 0.0
C2199 C 0.62594 0.37834 0.36834 0.0
N2200 N 0.58137 0.43839 0.36738 0.0
N2201 N 0.68641 0.34312 0.41305 0.0
C2202 C 0.59972 0.40731 0.37828 0.0
C2203 C 0.65342 0.3584 0.40235 0.0
N2204 N 0.55729 0.41894 0.40814 0.0
N2205 N 0.66702 0.31577 0.37277 0.0
H2206 H 0.6915 0.34977 0.4285 0.0
H2207 H 0.71112 0.32814 0.40588 0.0
H2208 H 0.66098 0.30544 0.35792 0.0
H2209 H 0.68208 0.29373 0.38179 0.0
H2210 H 0.53393 0.43203 0.39919 0.0
H2211 H 0.54789 0.41288 0.42311 0.0
H2212 H 0.56478 0.46223 0.37442 0.0
H2213 H 0.58666 0.44302 0.35178 0.0
C2214 C 0.40889 0.90065 0.1295 0.0
C2215 C 0.38001 0.87754 0.11735 0.0
C2216 C 0.35445 0.84617 0.14919 0.0
C2217 C 0.37738 0.8752 0.16134 0.0
N2218 N 0.4204 0.93637 0.16169 0.0
N2219 N 0.31894 0.83441 0.11699 0.0
C2220 C 0.40274 0.90441 0.1511 0.0
C2221 C 0.3508 0.85219 0.12759 0.0
N2222 N 0.444 0.91661 0.12089 0.0
N2223 N 0.33854 0.81104 0.15783 0.0
H2224 H 0.31405 0.83936 0.10137 0.0
H2225 H 0.29489 0.8186 0.12425 0.0
H2226 H 0.34455 0.80218 0.17291 0.0
H2227 H 0.32447 0.78777 0.14917 0.0
H2228 H 0.46718 0.93079 0.12956 0.0
H2229 H 0.45296 0.91056 0.10583 0.0
H2230 H 0.43618 0.96042 0.15442 0.0
H2231 H 0.41538 0.94131 0.1773 0.0
C2232 C 0.9043 0.35044 0.64953 0.0
C2233 C 0.87885 0.3792 0.66033 0.0
C2234 C 0.84641 0.39955 0.62744 0.0
C2235 C 0.87352 0.37263 0.61657 0.0
N2236 N 0.93222 0.32621 0.6172 0.0
N2237 N 0.82955 0.43494 0.65943 0.0
C2238 C 0.90331 0.34893 0.62762 0.0
C2239 C 0.8509 0.40475 0.64919 0.0
N2240 N 0.92835 0.32302 0.66019 0.0
N2241 N 0.81551 0.41928 0.61693 0.0
H2242 H 0.8328 0.43981 0.67519 0.0
H2243 H 0.81149 0.45735 0.65225 0.0
H2244 H 0.81119 0.41553 0.60116 0.0
H2245 H 0.79212 0.4364 0.62391 0.0
H2246 H 0.94212 0.29707 0.65357 0.0
H2247 H 0.93312 0.32477 0.67593 0.0
H2248 H 0.95866 0.31388 0.62402 0.0
H2249 H 0.93121 0.32131 0.60145 0.0
C2250 C 0.40471 0.15501 0.37881 0.0
C2251 C 0.3802 0.12604 0.36763 0.0
C2252 C 0.34831 0.1032 0.40024 0.0
C2253 C 0.37486 0.13006 0.41149 0.0
N2254 N 0.43295 0.17732 0.41141 0.0
N2255 N 0.33262 0.06878 0.36786 0.0
C2256 C 0.40413 0.15495 0.40074 0.0
C2257 C 0.35303 0.09913 0.37845 0.0
N2258 N 0.42735 0.18415 0.36853 0.0
N2259 N 0.31764 0.08247 0.4104 0.0
H2260 H 0.33593 0.06474 0.35205 0.0
H2261 H 0.3154 0.04543 0.37481 0.0
H2262 H 0.31307 0.08535 0.42619 0.0
H2263 H 0.29455 0.06544 0.40311 0.0
H2264 H 0.44055 0.20991 0.37561 0.0
H2265 H 0.43102 0.18427 0.35269 0.0
H2266 H 0.4589 0.19071 0.40462 0.0
H2267 H 0.43264 0.18061 0.42727 0.0
C2268 C 0.65 0.59988 0.15069 0.0
C2269 C 0.62273 0.62647 0.16166 0.0
C2270 C 0.59942 0.65671 0.12877 0.0
C2271 C 0.62871 0.63206 0.11789 0.0
N2272 N 0.68566 0.58411 0.11868 0.0
N2273 N 0.57549 0.68456 0.16117 0.0
C2274 C 0.655 0.60467 0.12896 0.0
C2275 C 0.5984 0.65588 0.15068 0.0
N2276 N 0.67023 0.56914 0.16107 0.0
N2277 N 0.571 0.67975 0.11819 0.0
H2278 H 0.57126 0.68386 0.17697 0.0
H2279 H 0.56249 0.71066 0.15433 0.0
H2280 H 0.57184 0.68385 0.10238 0.0
H2281 H 0.54495 0.693 0.12496 0.0
H2282 H 0.68756 0.54603 0.15397 0.0
H2283 H 0.66667 0.56457 0.17682 0.0
H2284 H 0.70856 0.56666 0.12585 0.0
H2285 H 0.69039 0.58752 0.10292 0.0
C2286 C 0.1494 0.90415 0.87862 0.0
C2287 C 0.12194 0.87784 0.86759 0.0
C2288 C 0.09867 0.84735 0.90043 0.0
C2289 C 0.12815 0.87173 0.91135 0.0
N2290 N 0.18537 0.91932 0.91064 0.0
N2291 N 0.07447 0.81994 0.86798 0.0
C2292 C 0.15452 0.89907 0.90033 0.0
C2293 C 0.09754 0.84842 0.87852 0.0
N2294 N 0.16971 0.93493 0.86832 0.0
N2295 N 0.07019 0.82437 0.91097 0.0
H2296 H 0.07015 0.82079 0.85219 0.0
H2297 H 0.06141 0.79382 0.87477 0.0
H2298 H 0.0711 0.8201 0.92676 0.0
H2299 H 0.04403 0.81134 0.90418 0.0
H2300 H 0.18719 0.95786 0.87548 0.0
H2301 H 0.16604 0.93974 0.85259 0.0
H2302 H 0.20834 0.9367 0.90349 0.0
H2303 H 0.19019 0.91569 0.92638 0.0
loop_
_geom_bond_atom_site_label_1
_geom_bond_atom_site_label_2
_geom_bond_distance
_geom_bond_site_symmetry_2
_ccdc_geom_bond_type
Mn0 O5 2.095 . S
Mn0 O15 2.162 . S
Mn0 O16 2.297 . S
Mn0 O24 2.385 . S
Mn0 O25 2.209 . S
Mn0 O26 2.094 . S
Mn1 O6 2.121 1_556 S
Mn1 N8 2.257 . S
Mn1 N17 2.282 . S
Mn1 O25 2.215 1_556 S
Mn1 O27 2.117 1_556 S
C2 O24 1.234 . S
C2 O25 1.283 . S
C3 O15 1.281 . S
C3 O16 1.236 . S
C4 O26 1.240 . S
C4 O27 1.264 . S
O5 Mn0 2.095 . S
O5 C14 1.250 . S
O6 Mn1 2.121 1_554 S
O6 C14 1.258 . S
C7 N8 1.326 . S
C7 C11 1.460 . S
C7 H13 0.929 . S
N8 Mn1 2.257 . S
N8 C7 1.326 . S
N8 C12 1.362 . S
C9 C10 1.258 . S
C9 C12 1.431 . S
C9 C29 1.449 . S
C10 C9 1.258 . S
C10 C11 1.477 . S
C10 H30 0.931 . S
C11 C7 1.460 . S
C11 C10 1.477 . S
C11 H31 0.930 . S
C12 N8 1.362 . S
C12 C9 1.431 . S
C12 C22 1.476 . S
H13 C7 0.929 . S
C14 O5 1.250 . S
C14 O6 1.258 . S
O15 Mn0 2.162 . S
O15 C3 1.281 . S
O16 Mn0 2.297 . S
O16 C3 1.236 . S
N17 Mn1 2.282 . S
N17 C18 1.328 1_455 S
N17 C22 1.318 . S
C18 N17 1.328 1_655 S
C18 C19 1.457 . S
C18 H23 0.929 . S
C19 C18 1.457 . S
C19 C20 1.291 . S
C19 H32 0.931 . S
C20 C19 1.291 . S
C20 C21 1.373 . S
C20 H33 0.929 . S
C21 C20 1.373 . S
C21 C22 1.396 1_655 S
C21 C28 1.403 . S
C22 C12 1.476 . S
C22 N17 1.318 . S
C22 C21 1.396 1_455 S
H23 C18 0.929 . S
O24 Mn0 2.385 . S
O24 C2 1.234 . S
O25 Mn0 2.209 . S
O25 Mn1 2.215 1_554 S
O25 C2 1.283 . S
O26 Mn0 2.094 . S
O26 C4 1.240 . S
O27 Mn1 2.117 1_554 S
O27 C4 1.264 . S
C28 C21 1.403 . S
C28 C29 1.399 1_655 S
C28 H34 0.929 . S
C29 C9 1.449 . S
C29 C28 1.399 1_455 S
C29 H35 0.930 . S
H30 C10 0.931 . S
H31 C11 0.930 . S
H32 C19 0.931 . S
H33 C20 0.929 . S
H34 C28 0.929 . S
H35 C29 0.930 . S
Mn36 O41 2.095 . S
Mn36 O51 2.162 . S
Mn36 O52 2.297 . S
Mn36 O60 2.385 . S
Mn36 O61 2.209 . S
Mn36 O62 2.094 . S
Mn37 O42 2.121 . S
Mn37 N44 2.257 . S
Mn37 N53 2.282 . S
Mn37 O61 2.215 . S
Mn37 O63 2.117 . S
C38 O60 1.234 . S
C38 O61 1.283 . S
C39 O51 1.281 . S
C39 O52 1.236 . S
C40 O62 1.240 . S
C40 O63 1.264 . S
O41 Mn36 2.095 . S
O41 C50 1.250 . S
O42 Mn37 2.121 . S
O42 C50 1.258 . S
C43 N44 1.326 . S
C43 C47 1.460 1_655 S
C43 H49 0.929 . S
N44 Mn37 2.257 . S
N44 C43 1.326 . S
N44 C48 1.362 . S
C45 C46 1.258 . S
C45 C48 1.431 1_455 S
C45 C65 1.449 . S
C46 C45 1.258 . S
C46 C47 1.477 . S
C46 H66 0.931 . S
C47 C43 1.460 1_455 S
C47 C46 1.477 . S
C47 H67 0.930 . S
C48 N44 1.362 . S
C48 C45 1.431 1_655 S
C48 C58 1.476 . S
H49 C43 0.929 . S
C50 O41 1.250 . S
C50 O42 1.258 . S
O51 Mn36 2.162 . S
O51 C39 1.281 . S
O52 Mn36 2.297 . S
O52 C39 1.236 . S
N53 Mn37 2.282 . S
N53 C54 1.328 . S
N53 C58 1.318 . S
C54 N53 1.328 . S
C54 C55 1.457 . S
C54 H59 0.929 . S
C55 C54 1.457 . S
C55 C56 1.291 . S
C55 H68 0.931 . S
C56 C55 1.291 . S
C56 C57 1.373 . S
C56 H69 0.929 . S
C57 C56 1.373 . S
C57 C58 1.396 . S
C57 C64 1.403 1_655 S
C58 C48 1.476 . S
C58 N53 1.318 . S
C58 C57 1.396 . S
H59 C54 0.929 . S
O60 Mn36 2.385 . S
O60 C38 1.234 . S
O61 Mn36 2.209 . S
O61 Mn37 2.215 . S
O61 C38 1.283 . S
O62 Mn36 2.094 . S
O62 C40 1.240 . S
O63 Mn37 2.117 . S
O63 C40 1.264 . S
C64 C57 1.403 1_455 S
C64 C65 1.399 . S
C64 H70 0.929 . S
C65 C45 1.449 . S
C65 C64 1.399 . S
C65 H71 0.930 . S
H66 C46 0.931 . S
H67 C47 0.930 . S
H68 C55 0.931 . S
H69 C56 0.929 . S
H70 C64 0.929 . S
H71 C65 0.930 . S
Mn72 O77 2.095 . S
Mn72 O87 2.162 . S
Mn72 O88 2.297 . S
Mn72 O96 2.385 . S
Mn72 O97 2.209 . S
Mn72 O98 2.094 . S
Mn73 O78 2.121 . S
Mn73 N80 2.257 . S
Mn73 N89 2.282 . S
Mn73 O97 2.215 . S
Mn73 O99 2.117 . S
C74 O96 1.234 . S
C74 O97 1.283 . S
C75 O87 1.281 . S
C75 O88 1.236 . S
C76 O98 1.240 . S
C76 O99 1.264 . S
O77 Mn72 2.095 . S
O77 C86 1.250 . S
O78 Mn73 2.121 . S
O78 C86 1.258 . S
C79 N80 1.326 . S
C79 C83 1.460 . S
C79 H85 0.929 . S
N80 Mn73 2.257 . S
N80 C79 1.326 . S
N80 C84 1.362 . S
C81 C82 1.258 . S
C81 C84 1.431 . S
C81 C101 1.449 . S
C82 C81 1.258 . S
C82 C83 1.477 . S
C82 H102 0.931 . S
C83 C79 1.460 . S
C83 C82 1.477 . S
C83 H103 0.930 . S
C84 N80 1.362 . S
C84 C81 1.431 . S
C84 C94 1.476 . S
H85 C79 0.929 . S
C86 O77 1.250 . S
C86 O78 1.258 . S
O87 Mn72 2.162 . S
O87 C75 1.281 . S
O88 Mn72 2.297 . S
O88 C75 1.236 . S
N89 Mn73 2.282 . S
N89 C90 1.328 . S
N89 C94 1.318 . S
C90 N89 1.328 . S
C90 C91 1.457 . S
C90 H95 0.929 . S
C91 C90 1.457 . S
C91 C92 1.291 . S
C91 H104 0.931 . S
C92 C91 1.291 . S
C92 C93 1.373 . S
C92 H105 0.929 . S
C93 C92 1.373 . S
C93 C94 1.396 . S
C93 C100 1.403 . S
C94 C84 1.476 . S
C94 N89 1.318 . S
C94 C93 1.396 . S
H95 C90 0.929 . S
O96 Mn72 2.385 . S
O96 C74 1.234 . S
O97 Mn72 2.209 . S
O97 Mn73 2.215 . S
O97 C74 1.283 . S
O98 Mn72 2.094 . S
O98 C76 1.240 . S
O99 Mn73 2.117 . S
O99 C76 1.264 . S
C100 C93 1.403 . S
C100 C101 1.399 . S
C100 H106 0.929 . S
C101 C81 1.449 . S
C101 C100 1.399 . S
C101 H107 0.930 . S
H102 C82 0.931 . S
H103 C83 0.930 . S
H104 C91 0.931 . S
H105 C92 0.929 . S
H106 C100 0.929 . S
H107 C101 0.930 . S
Mn108 O113 2.095 . S
Mn108 O123 2.162 . S
Mn108 O124 2.297 . S
Mn108 O132 2.385 . S
Mn108 O133 2.209 . S
Mn108 O134 2.094 . S
Mn109 O114 2.121 . S
Mn109 N116 2.257 . S
Mn109 N125 2.282 . S
Mn109 O133 2.215 . S
Mn109 O135 2.117 . S
C110 O132 1.234 . S
C110 O133 1.283 . S
C111 O123 1.281 . S
C111 O124 1.236 . S
C112 O134 1.240 . S
C112 O135 1.264 . S
O113 Mn108 2.095 . S
O113 C122 1.250 . S
O114 Mn109 2.121 . S
O114 C122 1.258 . S
C115 N116 1.326 . S
C115 C119 1.460 . S
C115 H121 0.929 . S
N116 Mn109 2.257 . S
N116 C115 1.326 . S
N116 C120 1.362 . S
C117 C118 1.258 . S
C117 C120 1.431 . S
C117 C137 1.449 . S
C118 C117 1.258 . S
C118 C119 1.477 . S
C118 H138 0.931 . S
C119 C115 1.460 . S
C119 C118 1.477 . S
C119 H139 0.930 . S
C120 N116 1.362 . S
C120 C117 1.431 . S
C120 C130 1.476 . S
H121 C115 0.929 . S
C122 O113 1.250 . S
C122 O114 1.258 . S
O123 Mn108 2.162 . S
O123 C111 1.281 . S
O124 Mn108 2.297 . S
O124 C111 1.236 . S
N125 Mn109 2.282 . S
N125 C126 1.328 . S
N125 C130 1.318 . S
C126 N125 1.328 . S
C126 C127 1.457 . S
C126 H131 0.929 . S
C127 C126 1.457 . S
C127 C128 1.291 . S
C127 H140 0.931 . S
C128 C127 1.291 . S
C128 C129 1.373 . S
C128 H141 0.929 . S
C129 C128 1.373 . S
C129 C130 1.396 . S
C129 C136 1.403 . S
C130 C120 1.476 . S
C130 N125 1.318 . S
C130 C129 1.396 . S
H131 C126 0.929 . S
O132 Mn108 2.385 . S
O132 C110 1.234 . S
O133 Mn108 2.209 . S
O133 Mn109 2.215 . S
O133 C110 1.283 . S
O134 Mn108 2.094 . S
O134 C112 1.240 . S
O135 Mn109 2.117 . S
O135 C112 1.264 . S
C136 C129 1.403 . S
C136 C137 1.399 . S
C136 H142 0.929 . S
C137 C117 1.449 . S
C137 C136 1.399 . S
C137 H143 0.930 . S
H138 C118 0.931 . S
H139 C119 0.930 . S
H140 C127 0.931 . S
H141 C128 0.929 . S
H142 C136 0.929 . S
H143 C137 0.930 . S
Mn144 O149 2.095 . S
Mn144 O159 2.162 . S
Mn144 O160 2.297 . S
Mn144 O168 2.385 . S
Mn144 O169 2.209 . S
Mn144 O170 2.094 . S
Mn145 O150 2.121 . S
Mn145 N152 2.257 . S
Mn145 N161 2.282 . S
Mn145 O169 2.215 . S
Mn145 O171 2.117 . S
C146 O168 1.234 . S
C146 O169 1.283 . S
C147 O159 1.281 . S
C147 O160 1.236 . S
C148 O170 1.240 . S
C148 O171 1.264 . S
O149 Mn144 2.095 . S
O149 C158 1.250 . S
O150 Mn145 2.121 . S
O150 C158 1.258 . S
C151 N152 1.326 . S
C151 C155 1.460 . S
C151 H157 0.929 . S
N152 Mn145 2.257 . S
N152 C151 1.326 . S
N152 C156 1.362 . S
C153 C154 1.258 . S
C153 C156 1.431 . S
C153 C173 1.449 . S
C154 C153 1.258 . S
C154 C155 1.477 . S
C154 H174 0.931 . S
C155 C151 1.460 . S
C155 C154 1.477 . S
C155 H175 0.930 . S
C156 N152 1.362 . S
C156 C153 1.431 . S
C156 C166 1.476 . S
H157 C151 0.929 . S
C158 O149 1.250 . S
C158 O150 1.258 . S
O159 Mn144 2.162 . S
O159 C147 1.281 . S
O160 Mn144 2.297 . S
O160 C147 1.236 . S
N161 Mn145 2.282 . S
N161 C162 1.328 1_455 S
N161 C166 1.318 . S
C162 N161 1.328 1_655 S
C162 C163 1.457 . S
C162 H167 0.929 . S
C163 C162 1.457 . S
C163 C164 1.291 . S
C163 H176 0.931 . S
C164 C163 1.291 . S
C164 C165 1.373 . S
C164 H177 0.929 . S
C165 C164 1.373 . S
C165 C166 1.396 1_655 S
C165 C172 1.403 . S
C166 C156 1.476 . S
C166 N161 1.318 . S
C166 C165 1.396 1_455 S
H167 C162 0.929 . S
O168 Mn144 2.385 . S
O168 C146 1.234 . S
O169 Mn144 2.209 . S
O169 Mn145 2.215 . S
O169 C146 1.283 . S
O170 Mn144 2.094 . S
O170 C148 1.240 . S
O171 Mn145 2.117 . S
O171 C148 1.264 . S
C172 C165 1.403 . S
C172 C173 1.399 1_655 S
C172 H178 0.929 . S
C173 C153 1.449 . S
C173 C172 1.399 1_455 S
C173 H179 0.930 . S
H174 C154 0.931 . S
H175 C155 0.930 . S
H176 C163 0.931 . S
H177 C164 0.929 . S
H178 C172 0.929 . S
H179 C173 0.930 . S
Mn180 O185 2.095 . S
Mn180 O195 2.162 . S
Mn180 O196 2.297 . S
Mn180 O204 2.385 . S
Mn180 O205 2.209 . S
Mn180 O206 2.094 . S
Mn181 O186 2.121 . S
Mn181 N188 2.257 . S
Mn181 N197 2.282 . S
Mn181 O205 2.215 . S
Mn181 O207 2.117 . S
C182 O204 1.234 . S
C182 O205 1.283 . S
C183 O195 1.281 . S
C183 O196 1.236 . S
C184 O206 1.240 . S
C184 O207 1.264 . S
O185 Mn180 2.095 . S
O185 C194 1.250 . S
O186 Mn181 2.121 . S
O186 C194 1.258 . S
C187 N188 1.326 . S
C187 C191 1.460 . S
C187 H193 0.929 . S
N188 Mn181 2.257 . S
N188 C187 1.326 . S
N188 C192 1.362 . S
C189 C190 1.258 . S
C189 C192 1.431 . S
C189 C209 1.449 . S
C190 C189 1.258 . S
C190 C191 1.477 . S
C190 H210 0.931 . S
C191 C187 1.460 . S
C191 C190 1.477 . S
C191 H211 0.930 . S
C192 N188 1.362 . S
C192 C189 1.431 . S
C192 C202 1.476 . S
H193 C187 0.929 . S
C194 O185 1.250 . S
C194 O186 1.258 . S
O195 Mn180 2.162 . S
O195 C183 1.281 . S
O196 Mn180 2.297 . S
O196 C183 1.236 . S
N197 Mn181 2.282 . S
N197 C198 1.328 . S
N197 C202 1.318 . S
C198 N197 1.328 . S
C198 C199 1.457 . S
C198 H203 0.929 . S
C199 C198 1.457 . S
C199 C200 1.291 . S
C199 H212 0.931 . S
C200 C199 1.291 . S
C200 C201 1.373 . S
C200 H213 0.929 . S
C201 C200 1.373 . S
C201 C202 1.396 . S
C201 C208 1.403 . S
C202 C192 1.476 . S
C202 N197 1.318 . S
C202 C201 1.396 . S
H203 C198 0.929 . S
O204 Mn180 2.385 . S
O204 C182 1.234 . S
O205 Mn180 2.209 . S
O205 Mn181 2.215 . S
O205 C182 1.283 . S
O206 Mn180 2.094 . S
O206 C184 1.240 . S
O207 Mn181 2.117 . S
O207 C184 1.264 . S
C208 C201 1.403 . S
C208 C209 1.399 . S
C208 H214 0.929 . S
C209 C189 1.449 . S
C209 C208 1.399 . S
C209 H215 0.930 . S
H210 C190 0.931 . S
H211 C191 0.930 . S
H212 C199 0.931 . S
H213 C200 0.929 . S
H214 C208 0.929 . S
H215 C209 0.930 . S
Mn216 O221 2.095 . S
Mn216 O231 2.162 . S
Mn216 O232 2.297 . S
Mn216 O240 2.385 . S
Mn216 O241 2.209 . S
Mn216 O242 2.094 . S
Mn217 O222 2.121 1_554 S
Mn217 N224 2.257 . S
Mn217 N233 2.282 . S
Mn217 O241 2.215 1_554 S
Mn217 O243 2.117 1_554 S
C218 O240 1.234 . S
C218 O241 1.283 . S
C219 O231 1.281 . S
C219 O232 1.236 . S
C220 O242 1.240 . S
C220 O243 1.264 . S
O221 Mn216 2.095 . S
O221 C230 1.250 . S
O222 Mn217 2.121 1_556 S
O222 C230 1.258 . S
C223 N224 1.326 . S
C223 C227 1.460 . S
C223 H229 0.929 . S
N224 Mn217 2.257 . S
N224 C223 1.326 . S
N224 C228 1.362 . S
C225 C226 1.258 . S
C225 C228 1.431 . S
C225 C245 1.449 . S
C226 C225 1.258 . S
C226 C227 1.477 . S
C226 H246 0.931 . S
C227 C223 1.460 . S
C227 C226 1.477 . S
C227 H247 0.930 . S
C228 N224 1.362 . S
C228 C225 1.431 . S
C228 C238 1.476 . S
H229 C223 0.929 . S
C230 O221 1.250 . S
C230 O222 1.258 . S
O231 Mn216 2.162 . S
O231 C219 1.281 . S
O232 Mn216 2.297 . S
O232 C219 1.236 . S
N233 Mn217 2.282 . S
N233 C234 1.328 . S
N233 C238 1.318 . S
C234 N233 1.328 . S
C234 C235 1.457 . S
C234 H239 0.929 . S
C235 C234 1.457 . S
C235 C236 1.291 . S
C235 H248 0.931 . S
C236 C235 1.291 . S
C236 C237 1.373 . S
C236 H249 0.929 . S
C237 C236 1.373 . S
C237 C238 1.396 . S
C237 C244 1.403 . S
C238 C228 1.476 . S
C238 N233 1.318 . S
C238 C237 1.396 . S
H239 C234 0.929 . S
O240 Mn216 2.385 . S
O240 C218 1.234 . S
O241 Mn216 2.209 . S
O241 Mn217 2.215 1_556 S
O241 C218 1.283 . S
O242 Mn216 2.094 . S
O242 C220 1.240 . S
O243 Mn217 2.117 1_556 S
O243 C220 1.264 . S
C244 C237 1.403 . S
C244 C245 1.399 . S
C244 H250 0.929 . S
C245 C225 1.449 . S
C245 C244 1.399 . S
C245 H251 0.930 . S
H246 C226 0.931 . S
H247 C227 0.930 . S
H248 C235 0.931 . S
H249 C236 0.929 . S
H250 C244 0.929 . S
H251 C245 0.930 . S
Mn252 O257 2.095 . S
Mn252 O267 2.162 . S
Mn252 O268 2.297 . S
Mn252 O276 2.385 . S
Mn252 O277 2.209 . S
Mn252 O278 2.094 . S
Mn253 O258 2.121 . S
Mn253 N260 2.257 . S
Mn253 N269 2.282 . S
Mn253 O277 2.215 . S
Mn253 O279 2.117 . S
C254 O276 1.234 . S
C254 O277 1.283 . S
C255 O267 1.281 . S
C255 O268 1.236 . S
C256 O278 1.240 . S
C256 O279 1.264 . S
O257 Mn252 2.095 . S
O257 C266 1.250 . S
O258 Mn253 2.121 . S
O258 C266 1.258 . S
C259 N260 1.326 . S
C259 C263 1.460 1_655 S
C259 H265 0.929 . S
N260 Mn253 2.257 . S
N260 C259 1.326 . S
N260 C264 1.362 . S
C261 C262 1.258 . S
C261 C264 1.431 1_455 S
C261 C281 1.449 . S
C262 C261 1.258 . S
C262 C263 1.477 . S
C262 H282 0.931 . S
C263 C259 1.460 1_455 S
C263 C262 1.477 . S
C263 H283 0.930 . S
C264 N260 1.362 . S
C264 C261 1.431 1_655 S
C264 C274 1.476 . S
H265 C259 0.929 . S
C266 O257 1.250 . S
C266 O258 1.258 . S
O267 Mn252 2.162 . S
O267 C255 1.281 . S
O268 Mn252 2.297 . S
O268 C255 1.236 . S
N269 Mn253 2.282 . S
N269 C270 1.328 . S
N269 C274 1.318 . S
C270 N269 1.328 . S
C270 C271 1.457 . S
C270 H275 0.929 . S
C271 C270 1.457 . S
C271 C272 1.291 . S
C271 H284 0.931 . S
C272 C271 1.291 . S
C272 C273 1.373 . S
C272 H285 0.929 . S
C273 C272 1.373 . S
C273 C274 1.396 . S
C273 C280 1.403 1_655 S
C274 C264 1.476 . S
C274 N269 1.318 . S
C274 C273 1.396 . S
H275 C270 0.929 . S
O276 Mn252 2.385 . S
O276 C254 1.234 . S
O277 Mn252 2.209 . S
O277 Mn253 2.215 . S
O277 C254 1.283 . S
O278 Mn252 2.094 . S
O278 C256 1.240 . S
O279 Mn253 2.117 . S
O279 C256 1.264 . S
C280 C273 1.403 1_455 S
C280 C281 1.399 . S
C280 H286 0.929 . S
C281 C261 1.449 . S
C281 C280 1.399 . S
C281 H287 0.930 . S
H282 C262 0.931 . S
H283 C263 0.930 . S
H284 C271 0.931 . S
H285 C272 0.929 . S
H286 C280 0.929 . S
H287 C281 0.930 . S
Mn288 O293 2.095 . S
Mn288 O303 2.162 . S
Mn288 O304 2.297 . S
Mn288 O312 2.385 . S
Mn288 O313 2.209 . S
Mn288 O314 2.094 . S
Mn289 O294 2.121 1_554 S
Mn289 N296 2.257 . S
Mn289 N305 2.282 . S
Mn289 O313 2.215 1_554 S
Mn289 O315 2.117 1_554 S
C290 O312 1.234 . S
C290 O313 1.283 . S
C291 O303 1.281 . S
C291 O304 1.236 . S
C292 O314 1.240 . S
C292 O315 1.264 . S
O293 Mn288 2.095 . S
O293 C302 1.250 . S
O294 Mn289 2.121 1_556 S
O294 C302 1.258 . S
C295 N296 1.326 . S
C295 C299 1.460 . S
C295 H301 0.929 . S
N296 Mn289 2.257 . S
N296 C295 1.326 . S
N296 C300 1.362 . S
C297 C298 1.258 . S
C297 C300 1.431 . S
C297 C317 1.449 . S
C298 C297 1.258 . S
C298 C299 1.477 . S
C298 H318 0.931 . S
C299 C295 1.460 . S
C299 C298 1.477 . S
C299 H319 0.930 . S
C300 N296 1.362 . S
C300 C297 1.431 . S
C300 C310 1.476 . S
H301 C295 0.929 . S
C302 O293 1.250 . S
C302 O294 1.258 . S
O303 Mn288 2.162 . S
O303 C291 1.281 . S
O304 Mn288 2.297 . S
O304 C291 1.236 . S
N305 Mn289 2.282 . S
N305 C306 1.328 1_655 S
N305 C310 1.318 . S
C306 N305 1.328 1_455 S
C306 C307 1.457 . S
C306 H311 0.929 . S
C307 C306 1.457 . S
C307 C308 1.291 . S
C307 H320 0.931 . S
C308 C307 1.291 . S
C308 C309 1.373 . S
C308 H321 0.929 . S
C309 C308 1.373 . S
C309 C310 1.396 1_455 S
C309 C316 1.403 . S
C310 C300 1.476 . S
C310 N305 1.318 . S
C310 C309 1.396 1_655 S
H311 C306 0.929 . S
O312 Mn288 2.385 . S
O312 C290 1.234 . S
O313 Mn288 2.209 . S
O313 Mn289 2.215 1_556 S
O313 C290 1.283 . S
O314 Mn288 2.094 . S
O314 C292 1.240 . S
O315 Mn289 2.117 1_556 S
O315 C292 1.264 . S
C316 C309 1.403 . S
C316 C317 1.399 1_455 S
C316 H322 0.929 . S
C317 C297 1.449 . S
C317 C316 1.399 1_655 S
C317 H323 0.930 . S
H318 C298 0.931 . S
H319 C299 0.930 . S
H320 C307 0.931 . S
H321 C308 0.929 . S
H322 C316 0.929 . S
H323 C317 0.930 . S
Mn324 O329 2.095 . S
Mn324 O339 2.162 . S
Mn324 O340 2.297 . S
Mn324 O348 2.385 . S
Mn324 O349 2.209 . S
Mn324 O350 2.094 . S
Mn325 O330 2.121 . S
Mn325 N332 2.257 . S
Mn325 N341 2.282 . S
Mn325 O349 2.215 . S
Mn325 O351 2.117 . S
C326 O348 1.234 . S
C326 O349 1.283 . S
C327 O339 1.281 . S
C327 O340 1.236 . S
C328 O350 1.240 . S
C328 O351 1.264 . S
O329 Mn324 2.095 . S
O329 C338 1.250 . S
O330 Mn325 2.121 . S
O330 C338 1.258 . S
C331 N332 1.326 . S
C331 C335 1.460 1_455 S
C331 H337 0.929 . S
N332 Mn325 2.257 . S
N332 C331 1.326 . S
N332 C336 1.362 . S
C333 C334 1.258 . S
C333 C336 1.431 1_655 S
C333 C353 1.449 . S
C334 C333 1.258 . S
C334 C335 1.477 . S
C334 H354 0.931 . S
C335 C331 1.460 1_655 S
C335 C334 1.477 . S
C335 H355 0.930 . S
C336 N332 1.362 . S
C336 C333 1.431 1_455 S
C336 C346 1.476 . S
H337 C331 0.929 . S
C338 O329 1.250 . S
C338 O330 1.258 . S
O339 Mn324 2.162 . S
O339 C327 1.281 . S
O340 Mn324 2.297 . S
O340 C327 1.236 . S
N341 Mn325 2.282 . S
N341 C342 1.328 . S
N341 C346 1.318 . S
C342 N341 1.328 . S
C342 C343 1.457 . S
C342 H347 0.929 . S
C343 C342 1.457 . S
C343 C344 1.291 . S
C343 H356 0.931 . S
C344 C343 1.291 . S
C344 C345 1.373 . S
C344 H357 0.929 . S
C345 C344 1.373 . S
C345 C346 1.396 . S
C345 C352 1.403 1_455 S
C346 C336 1.476 . S
C346 N341 1.318 . S
C346 C345 1.396 . S
H347 C342 0.929 . S
O348 Mn324 2.385 . S
O348 C326 1.234 . S
O349 Mn324 2.209 . S
O349 Mn325 2.215 . S
O349 C326 1.283 . S
O350 Mn324 2.094 . S
O350 C328 1.240 . S
O351 Mn325 2.117 . S
O351 C328 1.264 . S
C352 C345 1.403 1_655 S
C352 C353 1.399 . S
C352 H358 0.929 . S
C353 C333 1.449 . S
C353 C352 1.399 . S
C353 H359 0.930 . S
H354 C334 0.931 . S
H355 C335 0.930 . S
H356 C343 0.931 . S
H357 C344 0.929 . S
H358 C352 0.929 . S
H359 C353 0.930 . S
Mn360 O365 2.095 . S
Mn360 O375 2.162 . S
Mn360 O376 2.297 . S
Mn360 O384 2.385 . S
Mn360 O385 2.209 . S
Mn360 O386 2.094 . S
Mn361 O366 2.121 . S
Mn361 N368 2.257 . S
Mn361 N377 2.282 . S
Mn361 O385 2.215 . S
Mn361 O387 2.117 . S
C362 O384 1.234 . S
C362 O385 1.283 . S
C363 O375 1.281 . S
C363 O376 1.236 . S
C364 O386 1.240 . S
C364 O387 1.264 . S
O365 Mn360 2.095 . S
O365 C374 1.250 . S
O366 Mn361 2.121 . S
O366 C374 1.258 . S
C367 N368 1.326 . S
C367 C371 1.460 . S
C367 H373 0.929 . S
N368 Mn361 2.257 . S
N368 C367 1.326 . S
N368 C372 1.362 . S
C369 C370 1.258 . S
C369 C372 1.431 . S
C369 C389 1.449 . S
C370 C369 1.258 . S
C370 C371 1.477 . S
C370 H390 0.931 . S
C371 C367 1.460 . S
C371 C370 1.477 . S
C371 H391 0.930 . S
C372 N368 1.362 . S
C372 C369 1.431 . S
C372 C382 1.476 . S
H373 C367 0.929 . S
C374 O365 1.250 . S
C374 O366 1.258 . S
O375 Mn360 2.162 . S
O375 C363 1.281 . S
O376 Mn360 2.297 . S
O376 C363 1.236 . S
N377 Mn361 2.282 . S
N377 C378 1.328 . S
N377 C382 1.318 . S
C378 N377 1.328 . S
C378 C379 1.457 . S
C378 H383 0.929 . S
C379 C378 1.457 . S
C379 C380 1.291 . S
C379 H392 0.931 . S
C380 C379 1.291 . S
C380 C381 1.373 . S
C380 H393 0.929 . S
C381 C380 1.373 . S
C381 C382 1.396 . S
C381 C388 1.403 . S
C382 C372 1.476 . S
C382 N377 1.318 . S
C382 C381 1.396 . S
H383 C378 0.929 . S
O384 Mn360 2.385 . S
O384 C362 1.234 . S
O385 Mn360 2.209 . S
O385 Mn361 2.215 . S
O385 C362 1.283 . S
O386 Mn360 2.094 . S
O386 C364 1.240 . S
O387 Mn361 2.117 . S
O387 C364 1.264 . S
C388 C381 1.403 . S
C388 C389 1.399 . S
C388 H394 0.929 . S
C389 C369 1.449 . S
C389 C388 1.399 . S
C389 H395 0.930 . S
H390 C370 0.931 . S
H391 C371 0.930 . S
H392 C379 0.931 . S
H393 C380 0.929 . S
H394 C388 0.929 . S
H395 C389 0.930 . S
Mn396 O401 2.095 . S
Mn396 O411 2.162 . S
Mn396 O412 2.297 . S
Mn396 O420 2.385 . S
Mn396 O421 2.209 . S
Mn396 O422 2.094 . S
Mn397 O402 2.121 . S
Mn397 N404 2.257 . S
Mn397 N413 2.282 . S
Mn397 O421 2.215 . S
Mn397 O423 2.117 . S
C398 O420 1.234 . S
C398 O421 1.283 . S
C399 O411 1.281 . S
C399 O412 1.236 . S
C400 O422 1.240 . S
C400 O423 1.264 . S
O401 Mn396 2.095 . S
O401 C410 1.250 . S
O402 Mn397 2.121 . S
O402 C410 1.258 . S
C403 N404 1.326 . S
C403 C407 1.460 . S
C403 H409 0.929 . S
N404 Mn397 2.257 . S
N404 C403 1.326 . S
N404 C408 1.362 . S
C405 C406 1.258 . S
C405 C408 1.431 . S
C405 C425 1.449 . S
C406 C405 1.258 . S
C406 C407 1.477 . S
C406 H426 0.931 . S
C407 C403 1.460 . S
C407 C406 1.477 . S
C407 H427 0.930 . S
C408 N404 1.362 . S
C408 C405 1.431 . S
C408 C418 1.476 . S
H409 C403 0.929 . S
C410 O401 1.250 . S
C410 O402 1.258 . S
O411 Mn396 2.162 . S
O411 C399 1.281 . S
O412 Mn396 2.297 . S
O412 C399 1.236 . S
N413 Mn397 2.282 . S
N413 C414 1.328 . S
N413 C418 1.318 . S
C414 N413 1.328 . S
C414 C415 1.457 . S
C414 H419 0.929 . S
C415 C414 1.457 . S
C415 C416 1.291 . S
C415 H428 0.931 . S
C416 C415 1.291 . S
C416 C417 1.373 . S
C416 H429 0.929 . S
C417 C416 1.373 . S
C417 C418 1.396 . S
C417 C424 1.403 . S
C418 C408 1.476 . S
C418 N413 1.318 . S
C418 C417 1.396 . S
H419 C414 0.929 . S
O420 Mn396 2.385 . S
O420 C398 1.234 . S
O421 Mn396 2.209 . S
O421 Mn397 2.215 . S
O421 C398 1.283 . S
O422 Mn396 2.094 . S
O422 C400 1.240 . S
O423 Mn397 2.117 . S
O423 C400 1.264 . S
C424 C417 1.403 . S
C424 C425 1.399 . S
C424 H430 0.929 . S
C425 C405 1.449 . S
C425 C424 1.399 . S
C425 H431 0.930 . S
H426 C406 0.931 . S
H427 C407 0.930 . S
H428 C415 0.931 . S
H429 C416 0.929 . S
H430 C424 0.929 . S
H431 C425 0.930 . S
Mn432 O437 2.095 . S
Mn432 O447 2.162 . S
Mn432 O448 2.297 . S
Mn432 O456 2.385 . S
Mn432 O457 2.209 . S
Mn432 O458 2.094 . S
Mn433 O438 2.121 . S
Mn433 N440 2.257 . S
Mn433 N449 2.282 . S
Mn433 O457 2.215 . S
Mn433 O459 2.117 . S
C434 O456 1.234 . S
C434 O457 1.283 . S
C435 O447 1.281 . S
C435 O448 1.236 . S
C436 O458 1.240 . S
C436 O459 1.264 . S
O437 Mn432 2.095 . S
O437 C446 1.250 . S
O438 Mn433 2.121 . S
O438 C446 1.258 . S
C439 N440 1.326 . S
C439 C443 1.460 . S
C439 H445 0.929 . S
N440 Mn433 2.257 . S
N440 C439 1.326 . S
N440 C444 1.362 . S
C441 C442 1.258 . S
C441 C444 1.431 . S
C441 C461 1.449 . S
C442 C441 1.258 . S
C442 C443 1.477 . S
C442 H462 0.931 . S
C443 C439 1.460 . S
C443 C442 1.477 . S
C443 H463 0.930 . S
C444 N440 1.362 . S
C444 C441 1.431 . S
C444 C454 1.476 . S
H445 C439 0.929 . S
C446 O437 1.250 . S
C446 O438 1.258 . S
O447 Mn432 2.162 . S
O447 C435 1.281 . S
O448 Mn432 2.297 . S
O448 C435 1.236 . S
N449 Mn433 2.282 . S
N449 C450 1.328 1_655 S
N449 C454 1.318 . S
C450 N449 1.328 1_455 S
C450 C451 1.457 . S
C450 H455 0.929 . S
C451 C450 1.457 . S
C451 C452 1.291 . S
C451 H464 0.931 . S
C452 C451 1.291 . S
C452 C453 1.373 . S
C452 H465 0.929 . S
C453 C452 1.373 . S
C453 C454 1.396 1_455 S
C453 C460 1.403 . S
C454 C444 1.476 . S
C454 N449 1.318 . S
C454 C453 1.396 1_655 S
H455 C450 0.929 . S
O456 Mn432 2.385 . S
O456 C434 1.234 . S
O457 Mn432 2.209 . S
O457 Mn433 2.215 . S
O457 C434 1.283 . S
O458 Mn432 2.094 . S
O458 C436 1.240 . S
O459 Mn433 2.117 . S
O459 C436 1.264 . S
C460 C453 1.403 . S
C460 C461 1.399 1_455 S
C460 H466 0.929 . S
C461 C441 1.449 . S
C461 C460 1.399 1_655 S
C461 H467 0.930 . S
H462 C442 0.931 . S
H463 C443 0.930 . S
H464 C451 0.931 . S
H465 C452 0.929 . S
H466 C460 0.929 . S
H467 C461 0.930 . S
Mn468 O473 2.095 . S
Mn468 O483 2.162 . S
Mn468 O484 2.297 . S
Mn468 O492 2.385 . S
Mn468 O493 2.209 . S
Mn468 O494 2.094 . S
Mn469 O474 2.121 . S
Mn469 N476 2.257 . S
Mn469 N485 2.282 . S
Mn469 O493 2.215 . S
Mn469 O495 2.117 . S
C470 O492 1.234 . S
C470 O493 1.283 . S
C471 O483 1.281 . S
C471 O484 1.236 . S
C472 O494 1.240 . S
C472 O495 1.264 . S
O473 Mn468 2.095 . S
O473 C482 1.250 . S
O474 Mn469 2.121 . S
O474 C482 1.258 . S
C475 N476 1.326 . S
C475 C479 1.460 . S
C475 H481 0.929 . S
N476 Mn469 2.257 . S
N476 C475 1.326 . S
N476 C480 1.362 . S
C477 C478 1.258 . S
C477 C480 1.431 . S
C477 C497 1.449 . S
C478 C477 1.258 . S
C478 C479 1.477 . S
C478 H498 0.931 . S
C479 C475 1.460 . S
C479 C478 1.477 . S
C479 H499 0.930 . S
C480 N476 1.362 . S
C480 C477 1.431 . S
C480 C490 1.476 . S
H481 C475 0.929 . S
C482 O473 1.250 . S
C482 O474 1.258 . S
O483 Mn468 2.162 . S
O483 C471 1.281 . S
O484 Mn468 2.297 . S
O484 C471 1.236 . S
N485 Mn469 2.282 . S
N485 C486 1.328 . S
N485 C490 1.318 . S
C486 N485 1.328 . S
C486 C487 1.457 . S
C486 H491 0.929 . S
C487 C486 1.457 . S
C487 C488 1.291 . S
C487 H500 0.931 . S
C488 C487 1.291 . S
C488 C489 1.373 . S
C488 H501 0.929 . S
C489 C488 1.373 . S
C489 C490 1.396 . S
C489 C496 1.403 . S
C490 C480 1.476 . S
C490 N485 1.318 . S
C490 C489 1.396 . S
H491 C486 0.929 . S
O492 Mn468 2.385 . S
O492 C470 1.234 . S
O493 Mn468 2.209 . S
O493 Mn469 2.215 . S
O493 C470 1.283 . S
O494 Mn468 2.094 . S
O494 C472 1.240 . S
O495 Mn469 2.117 . S
O495 C472 1.264 . S
C496 C489 1.403 . S
C496 C497 1.399 . S
C496 H502 0.929 . S
C497 C477 1.449 . S
C497 C496 1.399 . S
C497 H503 0.930 . S
H498 C478 0.931 . S
H499 C479 0.930 . S
H500 C487 0.931 . S
H501 C488 0.929 . S
H502 C496 0.929 . S
H503 C497 0.930 . S
Mn504 O509 2.095 . S
Mn504 O519 2.162 . S
Mn504 O520 2.297 . S
Mn504 O528 2.385 . S
Mn504 O529 2.209 . S
Mn504 O530 2.094 . S
Mn505 O510 2.121 1_556 S
Mn505 N512 2.257 . S
Mn505 N521 2.282 . S
Mn505 O529 2.215 1_556 S
Mn505 O531 2.117 1_556 S
C506 O528 1.234 . S
C506 O529 1.283 . S
C507 O519 1.281 . S
C507 O520 1.236 . S
C508 O530 1.240 . S
C508 O531 1.264 . S
O509 Mn504 2.095 . S
O509 C518 1.250 . S
O510 Mn505 2.121 1_554 S
O510 C518 1.258 . S
C511 N512 1.326 . S
C511 C515 1.460 . S
C511 H517 0.929 . S
N512 Mn505 2.257 . S
N512 C511 1.326 . S
N512 C516 1.362 . S
C513 C514 1.258 . S
C513 C516 1.431 . S
C513 C533 1.449 . S
C514 C513 1.258 . S
C514 C515 1.477 . S
C514 H534 0.931 . S
C515 C511 1.460 . S
C515 C514 1.477 . S
C515 H535 0.930 . S
C516 N512 1.362 . S
C516 C513 1.431 . S
C516 C526 1.476 . S
H517 C511 0.929 . S
C518 O509 1.250 . S
C518 O510 1.258 . S
O519 Mn504 2.162 . S
O519 C507 1.281 . S
O520 Mn504 2.297 . S
O520 C507 1.236 . S
N521 Mn505 2.282 . S
N521 C522 1.328 . S
N521 C526 1.318 . S
C522 N521 1.328 . S
C522 C523 1.457 . S
C522 H527 0.929 . S
C523 C522 1.457 . S
C523 C524 1.291 . S
C523 H536 0.931 . S
C524 C523 1.291 . S
C524 C525 1.373 . S
C524 H537 0.929 . S
C525 C524 1.373 . S
C525 C526 1.396 . S
C525 C532 1.403 . S
C526 C516 1.476 . S
C526 N521 1.318 . S
C526 C525 1.396 . S
H527 C522 0.929 . S
O528 Mn504 2.385 . S
O528 C506 1.234 . S
O529 Mn504 2.209 . S
O529 Mn505 2.215 1_554 S
O529 C506 1.283 . S
O530 Mn504 2.094 . S
O530 C508 1.240 . S
O531 Mn505 2.117 1_554 S
O531 C508 1.264 . S
C532 C525 1.403 . S
C532 C533 1.399 . S
C532 H538 0.929 . S
C533 C513 1.449 . S
C533 C532 1.399 . S
C533 H539 0.930 . S
H534 C514 0.931 . S
H535 C515 0.930 . S
H536 C523 0.931 . S
H537 C524 0.929 . S
H538 C532 0.929 . S
H539 C533 0.930 . S
Mn540 O545 2.095 . S
Mn540 O555 2.162 . S
Mn540 O556 2.297 . S
Mn540 O564 2.385 . S
Mn540 O565 2.209 . S
Mn540 O566 2.094 . S
Mn541 O546 2.121 . S
Mn541 N548 2.257 . S
Mn541 N557 2.282 . S
Mn541 O565 2.215 . S
Mn541 O567 2.117 . S
C542 O564 1.234 . S
C542 O565 1.283 . S
C543 O555 1.281 . S
C543 O556 1.236 . S
C544 O566 1.240 . S
C544 O567 1.264 . S
O545 Mn540 2.095 . S
O545 C554 1.250 . S
O546 Mn541 2.121 . S
O546 C554 1.258 . S
C547 N548 1.326 . S
C547 C551 1.460 1_455 S
C547 H553 0.929 . S
N548 Mn541 2.257 . S
N548 C547 1.326 . S
N548 C552 1.362 . S
C549 C550 1.258 . S
C549 C552 1.431 1_655 S
C549 C569 1.449 . S
C550 C549 1.258 . S
C550 C551 1.477 . S
C550 H570 0.931 . S
C551 C547 1.460 1_655 S
C551 C550 1.477 . S
C551 H571 0.930 . S
C552 N548 1.362 . S
C552 C549 1.431 1_455 S
C552 C562 1.476 . S
H553 C547 0.929 . S
C554 O545 1.250 . S
C554 O546 1.258 . S
O555 Mn540 2.162 . S
O555 C543 1.281 . S
O556 Mn540 2.297 . S
O556 C543 1.236 . S
N557 Mn541 2.282 . S
N557 C558 1.328 . S
N557 C562 1.318 . S
C558 N557 1.328 . S
C558 C559 1.457 . S
C558 H563 0.929 . S
C559 C558 1.457 . S
C559 C560 1.291 . S
C559 H572 0.931 . S
C560 C559 1.291 . S
C560 C561 1.373 . S
C560 H573 0.929 . S
C561 C560 1.373 . S
C561 C562 1.396 . S
C561 C568 1.403 1_455 S
C562 C552 1.476 . S
C562 N557 1.318 . S
C562 C561 1.396 . S
H563 C558 0.929 . S
O564 Mn540 2.385 . S
O564 C542 1.234 . S
O565 Mn540 2.209 . S
O565 Mn541 2.215 . S
O565 C542 1.283 . S
O566 Mn540 2.094 . S
O566 C544 1.240 . S
O567 Mn541 2.117 . S
O567 C544 1.264 . S
C568 C561 1.403 1_655 S
C568 C569 1.399 . S
C568 H574 0.929 . S
C569 C549 1.449 . S
C569 C568 1.399 . S
C569 H575 0.930 . S
H570 C550 0.931 . S
H571 C551 0.930 . S
H572 C559 0.931 . S
H573 C560 0.929 . S
H574 C568 0.929 . S
H575 C569 0.930 . S
Mn576 O581 2.095 . S
Mn576 O591 2.162 . S
Mn576 O592 2.297 . S
Mn576 O600 2.385 . S
Mn576 O601 2.209 . S
Mn576 O602 2.094 . S
Mn577 O582 2.121 . S
Mn577 N584 2.257 . S
Mn577 N593 2.282 . S
Mn577 O601 2.215 . S
Mn577 O603 2.117 . S
C578 O600 1.234 . S
C578 O601 1.283 . S
C579 O591 1.281 . S
C579 O592 1.236 . S
C580 O602 1.240 . S
C580 O603 1.264 . S
O581 Mn576 2.095 . S
O581 C590 1.250 . S
O582 Mn577 2.121 . S
O582 C590 1.258 . S
C583 N584 1.326 . S
C583 C587 1.460 . S
C583 H589 0.929 . S
N584 Mn577 2.257 . S
N584 C583 1.326 . S
N584 C588 1.362 . S
C585 C586 1.258 . S
C585 C588 1.431 . S
C585 C605 1.449 . S
C586 C585 1.258 . S
C586 C587 1.477 . S
C586 H606 0.931 . S
C587 C583 1.460 . S
C587 C586 1.477 . S
C587 H607 0.930 . S
C588 N584 1.362 . S
C588 C585 1.431 . S
C588 C598 1.476 . S
H589 C583 0.929 . S
C590 O581 1.250 . S
C590 O582 1.258 . S
O591 Mn576 2.162 . S
O591 C579 1.281 . S
O592 Mn576 2.297 . S
O592 C579 1.236 . S
N593 Mn577 2.282 . S
N593 C594 1.328 . S
N593 C598 1.318 . S
C594 N593 1.328 . S
C594 C595 1.457 . S
C594 H599 0.929 . S
C595 C594 1.457 . S
C595 C596 1.291 . S
C595 H608 0.931 . S
C596 C595 1.291 . S
C596 C597 1.373 . S
C596 H609 0.929 . S
C597 C596 1.373 . S
C597 C598 1.396 . S
C597 C604 1.403 . S
C598 C588 1.476 . S
C598 N593 1.318 . S
C598 C597 1.396 . S
H599 C594 0.929 . S
O600 Mn576 2.385 . S
O600 C578 1.234 . S
O601 Mn576 2.209 . S
O601 Mn577 2.215 . S
O601 C578 1.283 . S
O602 Mn576 2.094 . S
O602 C580 1.240 . S
O603 Mn577 2.117 . S
O603 C580 1.264 . S
C604 C597 1.403 . S
C604 C605 1.399 . S
C604 H610 0.929 . S
C605 C585 1.449 . S
C605 C604 1.399 . S
C605 H611 0.930 . S
H606 C586 0.931 . S
H607 C587 0.930 . S
H608 C595 0.931 . S
H609 C596 0.929 . S
H610 C604 0.929 . S
H611 C605 0.930 . S
Mn612 O617 2.095 . S
Mn612 O627 2.162 . S
Mn612 O628 2.297 . S
Mn612 O636 2.385 . S
Mn612 O637 2.209 . S
Mn612 O638 2.094 . S
Mn613 O618 2.121 . S
Mn613 N620 2.257 . S
Mn613 N629 2.282 . S
Mn613 O637 2.215 . S
Mn613 O639 2.117 . S
C614 O636 1.234 . S
C614 O637 1.283 . S
C615 O627 1.281 . S
C615 O628 1.236 . S
C616 O638 1.240 . S
C616 O639 1.264 . S
O617 Mn612 2.095 . S
O617 C626 1.250 . S
O618 Mn613 2.121 . S
O618 C626 1.258 . S
C619 N620 1.326 . S
C619 C623 1.460 . S
C619 H625 0.929 . S
N620 Mn613 2.257 . S
N620 C619 1.326 . S
N620 C624 1.362 . S
C621 C622 1.258 . S
C621 C624 1.431 . S
C621 C641 1.449 . S
C622 C621 1.258 . S
C622 C623 1.477 . S
C622 H642 0.931 . S
C623 C619 1.460 . S
C623 C622 1.477 . S
C623 H643 0.930 . S
C624 N620 1.362 . S
C624 C621 1.431 . S
C624 C634 1.476 . S
H625 C619 0.929 . S
C626 O617 1.250 . S
C626 O618 1.258 . S
O627 Mn612 2.162 . S
O627 C615 1.281 . S
O628 Mn612 2.297 . S
O628 C615 1.236 . S
N629 Mn613 2.282 . S
N629 C630 1.328 . S
N629 C634 1.318 . S
C630 N629 1.328 . S
C630 C631 1.457 . S
C630 H635 0.929 . S
C631 C630 1.457 . S
C631 C632 1.291 . S
C631 H644 0.931 . S
C632 C631 1.291 . S
C632 C633 1.373 . S
C632 H645 0.929 . S
C633 C632 1.373 . S
C633 C634 1.396 . S
C633 C640 1.403 . S
C634 C624 1.476 . S
C634 N629 1.318 . S
C634 C633 1.396 . S
H635 C630 0.929 . S
O636 Mn612 2.385 . S
O636 C614 1.234 . S
O637 Mn612 2.209 . S
O637 Mn613 2.215 . S
O637 C614 1.283 . S
O638 Mn612 2.094 . S
O638 C616 1.240 . S
O639 Mn613 2.117 . S
O639 C616 1.264 . S
C640 C633 1.403 . S
C640 C641 1.399 . S
C640 H646 0.929 . S
C641 C621 1.449 . S
C641 C640 1.399 . S
C641 H647 0.930 . S
H642 C622 0.931 . S
H643 C623 0.930 . S
H644 C631 0.931 . S
H645 C632 0.929 . S
H646 C640 0.929 . S
H647 C641 0.930 . S
Mn648 O653 2.095 . S
Mn648 O663 2.162 . S
Mn648 O664 2.297 . S
Mn648 O672 2.385 . S
Mn648 O673 2.209 . S
Mn648 O674 2.094 . S
Mn649 O654 2.121 1_556 S
Mn649 N656 2.257 . S
Mn649 N665 2.282 . S
Mn649 O673 2.215 1_556 S
Mn649 O675 2.117 1_556 S
C650 O672 1.234 . S
C650 O673 1.283 . S
C651 O663 1.281 . S
C651 O664 1.236 . S
C652 O674 1.240 . S
C652 O675 1.264 . S
O653 Mn648 2.095 . S
O653 C662 1.250 . S
O654 Mn649 2.121 1_554 S
O654 C662 1.258 . S
C655 N656 1.326 . S
C655 C659 1.460 . S
C655 H661 0.929 . S
N656 Mn649 2.257 . S
N656 C655 1.326 . S
N656 C660 1.362 . S
C657 C658 1.258 . S
C657 C660 1.431 . S
C657 C677 1.449 . S
C658 C657 1.258 . S
C658 C659 1.477 . S
C658 H678 0.931 . S
C659 C655 1.460 . S
C659 C658 1.477 . S
C659 H679 0.930 . S
C660 N656 1.362 . S
C660 C657 1.431 . S
C660 C670 1.476 . S
H661 C655 0.929 . S
C662 O653 1.250 . S
C662 O654 1.258 . S
O663 Mn648 2.162 . S
O663 C651 1.281 . S
O664 Mn648 2.297 . S
O664 C651 1.236 . S
N665 Mn649 2.282 . S
N665 C666 1.328 1_655 S
N665 C670 1.318 . S
C666 N665 1.328 1_455 S
C666 C667 1.457 . S
C666 H671 0.929 . S
C667 C666 1.457 . S
C667 C668 1.291 . S
C667 H680 0.931 . S
C668 C667 1.291 . S
C668 C669 1.373 . S
C668 H681 0.929 . S
C669 C668 1.373 . S
C669 C670 1.396 1_455 S
C669 C676 1.403 . S
C670 C660 1.476 . S
C670 N665 1.318 . S
C670 C669 1.396 1_655 S
H671 C666 0.929 . S
O672 Mn648 2.385 . S
O672 C650 1.234 . S
O673 Mn648 2.209 . S
O673 Mn649 2.215 1_554 S
O673 C650 1.283 . S
O674 Mn648 2.094 . S
O674 C652 1.240 . S
O675 Mn649 2.117 1_554 S
O675 C652 1.264 . S
C676 C669 1.403 . S
C676 C677 1.399 1_455 S
C676 H682 0.929 . S
C677 C657 1.449 . S
C677 C676 1.399 1_655 S
C677 H683 0.930 . S
H678 C658 0.931 . S
H679 C659 0.930 . S
H680 C667 0.931 . S
H681 C668 0.929 . S
H682 C676 0.929 . S
H683 C677 0.930 . S
Mn684 O689 2.095 . S
Mn684 O699 2.162 . S
Mn684 O700 2.297 . S
Mn684 O708 2.385 . S
Mn684 O709 2.209 . S
Mn684 O710 2.094 . S
Mn685 O690 2.121 . S
Mn685 N692 2.257 . S
Mn685 N701 2.282 . S
Mn685 O709 2.215 . S
Mn685 O711 2.117 . S
C686 O708 1.234 . S
C686 O709 1.283 . S
C687 O699 1.281 . S
C687 O700 1.236 . S
C688 O710 1.240 . S
C688 O711 1.264 . S
O689 Mn684 2.095 . S
O689 C698 1.250 . S
O690 Mn685 2.121 . S
O690 C698 1.258 . S
C691 N692 1.326 . S
C691 C695 1.460 1_455 S
C691 H697 0.929 . S
N692 Mn685 2.257 . S
N692 C691 1.326 . S
N692 C696 1.362 . S
C693 C694 1.258 . S
C693 C696 1.431 1_655 S
C693 C713 1.449 . S
C694 C693 1.258 . S
C694 C695 1.477 . S
C694 H714 0.931 . S
C695 C691 1.460 1_655 S
C695 C694 1.477 . S
C695 H715 0.930 . S
C696 N692 1.362 . S
C696 C693 1.431 1_455 S
C696 C706 1.476 . S
H697 C691 0.929 . S
C698 O689 1.250 . S
C698 O690 1.258 . S
O699 Mn684 2.162 . S
O699 C687 1.281 . S
O700 Mn684 2.297 . S
O700 C687 1.236 . S
N701 Mn685 2.282 . S
N701 C702 1.328 . S
N701 C706 1.318 . S
C702 N701 1.328 . S
C702 C703 1.457 . S
C702 H707 0.929 . S
C703 C702 1.457 . S
C703 C704 1.291 . S
C703 H716 0.931 . S
C704 C703 1.291 . S
C704 C705 1.373 . S
C704 H717 0.929 . S
C705 C704 1.373 . S
C705 C706 1.396 . S
C705 C712 1.403 1_455 S
C706 C696 1.476 . S
C706 N701 1.318 . S
C706 C705 1.396 . S
H707 C702 0.929 . S
O708 Mn684 2.385 . S
O708 C686 1.234 . S
O709 Mn684 2.209 . S
O709 Mn685 2.215 . S
O709 C686 1.283 . S
O710 Mn684 2.094 . S
O710 C688 1.240 . S
O711 Mn685 2.117 . S
O711 C688 1.264 . S
C712 C705 1.403 1_655 S
C712 C713 1.399 . S
C712 H718 0.929 . S
C713 C693 1.449 . S
C713 C712 1.399 . S
C713 H719 0.930 . S
H714 C694 0.931 . S
H715 C695 0.930 . S
H716 C703 0.931 . S
H717 C704 0.929 . S
H718 C712 0.929 . S
H719 C713 0.930 . S
Mn720 O725 2.095 . S
Mn720 O735 2.162 . S
Mn720 O736 2.297 . S
Mn720 O744 2.385 . S
Mn720 O745 2.209 . S
Mn720 O746 2.094 . S
Mn721 O726 2.121 1_554 S
Mn721 N728 2.257 . S
Mn721 N737 2.282 . S
Mn721 O745 2.215 1_554 S
Mn721 O747 2.117 1_554 S
C722 O744 1.234 . S
C722 O745 1.283 . S
C723 O735 1.281 . S
C723 O736 1.236 . S
C724 O746 1.240 . S
C724 O747 1.264 . S
O725 Mn720 2.095 . S
O725 C734 1.250 . S
O726 Mn721 2.121 1_556 S
O726 C734 1.258 . S
C727 N728 1.326 . S
C727 C731 1.460 . S
C727 H733 0.929 . S
N728 Mn721 2.257 . S
N728 C727 1.326 . S
N728 C732 1.362 . S
C729 C730 1.258 . S
C729 C732 1.431 . S
C729 C749 1.449 . S
C730 C729 1.258 . S
C730 C731 1.477 . S
C730 H750 0.931 . S
C731 C727 1.460 . S
C731 C730 1.477 . S
C731 H751 0.930 . S
C732 N728 1.362 . S
C732 C729 1.431 . S
C732 C742 1.476 . S
H733 C727 0.929 . S
C734 O725 1.250 . S
C734 O726 1.258 . S
O735 Mn720 2.162 . S
O735 C723 1.281 . S
O736 Mn720 2.297 . S
O736 C723 1.236 . S
N737 Mn721 2.282 . S
N737 C738 1.328 . S
N737 C742 1.318 . S
C738 N737 1.328 . S
C738 C739 1.457 . S
C738 H743 0.929 . S
C739 C738 1.457 . S
C739 C740 1.291 . S
C739 H752 0.931 . S
C740 C739 1.291 . S
C740 C741 1.373 . S
C740 H753 0.929 . S
C741 C740 1.373 . S
C741 C742 1.396 . S
C741 C748 1.403 . S
C742 C732 1.476 . S
C742 N737 1.318 . S
C742 C741 1.396 . S
H743 C738 0.929 . S
O744 Mn720 2.385 . S
O744 C722 1.234 . S
O745 Mn720 2.209 . S
O745 Mn721 2.215 1_556 S
O745 C722 1.283 . S
O746 Mn720 2.094 . S
O746 C724 1.240 . S
O747 Mn721 2.117 1_556 S
O747 C724 1.264 . S
C748 C741 1.403 . S
C748 C749 1.399 . S
C748 H754 0.929 . S
C749 C729 1.449 . S
C749 C748 1.399 . S
C749 H755 0.930 . S
H750 C730 0.931 . S
H751 C731 0.930 . S
H752 C739 0.931 . S
H753 C740 0.929 . S
H754 C748 0.929 . S
H755 C749 0.930 . S
Mn756 O761 2.095 . S
Mn756 O771 2.162 . S
Mn756 O772 2.297 . S
Mn756 O780 2.385 . S
Mn756 O781 2.209 . S
Mn756 O782 2.094 . S
Mn757 O762 2.121 . S
Mn757 N764 2.257 . S
Mn757 N773 2.282 . S
Mn757 O781 2.215 . S
Mn757 O783 2.117 . S
C758 O780 1.234 . S
C758 O781 1.283 . S
C759 O771 1.281 . S
C759 O772 1.236 . S
C760 O782 1.240 . S
C760 O783 1.264 . S
O761 Mn756 2.095 . S
O761 C770 1.250 . S
O762 Mn757 2.121 . S
O762 C770 1.258 . S
C763 N764 1.326 . S
C763 C767 1.460 1_455 S
C763 H769 0.929 . S
N764 Mn757 2.257 . S
N764 C763 1.326 . S
N764 C768 1.362 . S
C765 C766 1.258 . S
C765 C768 1.431 1_655 S
C765 C785 1.449 . S
C766 C765 1.258 . S
C766 C767 1.477 . S
C766 H786 0.931 . S
C767 C763 1.460 1_655 S
C767 C766 1.477 . S
C767 H787 0.930 . S
C768 N764 1.362 . S
C768 C765 1.431 1_455 S
C768 C778 1.476 . S
H769 C763 0.929 . S
C770 O761 1.250 . S
C770 O762 1.258 . S
O771 Mn756 2.162 . S
O771 C759 1.281 . S
O772 Mn756 2.297 . S
O772 C759 1.236 . S
N773 Mn757 2.282 . S
N773 C774 1.328 . S
N773 C778 1.318 . S
C774 N773 1.328 . S
C774 C775 1.457 . S
C774 H779 0.929 . S
C775 C774 1.457 . S
C775 C776 1.291 . S
C775 H788 0.931 . S
C776 C775 1.291 . S
C776 C777 1.373 . S
C776 H789 0.929 . S
C777 C776 1.373 . S
C777 C778 1.396 . S
C777 C784 1.403 1_455 S
C778 C768 1.476 . S
C778 N773 1.318 . S
C778 C777 1.396 . S
H779 C774 0.929 . S
O780 Mn756 2.385 . S
O780 C758 1.234 . S
O781 Mn756 2.209 . S
O781 Mn757 2.215 . S
O781 C758 1.283 . S
O782 Mn756 2.094 . S
O782 C760 1.240 . S
O783 Mn757 2.117 . S
O783 C760 1.264 . S
C784 C777 1.403 1_655 S
C784 C785 1.399 . S
C784 H790 0.929 . S
C785 C765 1.449 . S
C785 C784 1.399 . S
C785 H791 0.930 . S
H786 C766 0.931 . S
H787 C767 0.930 . S
H788 C775 0.931 . S
H789 C776 0.929 . S
H790 C784 0.929 . S
H791 C785 0.930 . S
Mn792 O797 2.095 . S
Mn792 O807 2.162 . S
Mn792 O808 2.297 . S
Mn792 O816 2.385 . S
Mn792 O817 2.209 . S
Mn792 O818 2.094 . S
Mn793 O798 2.121 . S
Mn793 N800 2.257 . S
Mn793 N809 2.282 . S
Mn793 O817 2.215 . S
Mn793 O819 2.117 . S
C794 O816 1.234 . S
C794 O817 1.283 . S
C795 O807 1.281 . S
C795 O808 1.236 . S
C796 O818 1.240 . S
C796 O819 1.264 . S
O797 Mn792 2.095 . S
O797 C806 1.250 . S
O798 Mn793 2.121 . S
O798 C806 1.258 . S
C799 N800 1.326 . S
C799 C803 1.460 . S
C799 H805 0.929 . S
N800 Mn793 2.257 . S
N800 C799 1.326 . S
N800 C804 1.362 . S
C801 C802 1.258 . S
C801 C804 1.431 . S
C801 C821 1.449 . S
C802 C801 1.258 . S
C802 C803 1.477 . S
C802 H822 0.931 . S
C803 C799 1.460 . S
C803 C802 1.477 . S
C803 H823 0.930 . S
C804 N800 1.362 . S
C804 C801 1.431 . S
C804 C814 1.476 . S
H805 C799 0.929 . S
C806 O797 1.250 . S
C806 O798 1.258 . S
O807 Mn792 2.162 . S
O807 C795 1.281 . S
O808 Mn792 2.297 . S
O808 C795 1.236 . S
N809 Mn793 2.282 . S
N809 C810 1.328 1_655 S
N809 C814 1.318 . S
C810 N809 1.328 1_455 S
C810 C811 1.457 . S
C810 H815 0.929 . S
C811 C810 1.457 . S
C811 C812 1.291 . S
C811 H824 0.931 . S
C812 C811 1.291 . S
C812 C813 1.373 . S
C812 H825 0.929 . S
C813 C812 1.373 . S
C813 C814 1.396 1_455 S
C813 C820 1.403 . S
C814 C804 1.476 . S
C814 N809 1.318 . S
C814 C813 1.396 1_655 S
H815 C810 0.929 . S
O816 Mn792 2.385 . S
O816 C794 1.234 . S
O817 Mn792 2.209 . S
O817 Mn793 2.215 . S
O817 C794 1.283 . S
O818 Mn792 2.094 . S
O818 C796 1.240 . S
O819 Mn793 2.117 . S
O819 C796 1.264 . S
C820 C813 1.403 . S
C820 C821 1.399 1_455 S
C820 H826 0.929 . S
C821 C801 1.449 . S
C821 C820 1.399 1_655 S
C821 H827 0.930 . S
H822 C802 0.931 . S
H823 C803 0.930 . S
H824 C811 0.931 . S
H825 C812 0.929 . S
H826 C820 0.929 . S
H827 C821 0.930 . S
Mn828 O833 2.095 . S
Mn828 O843 2.162 . S
Mn828 O844 2.297 . S
Mn828 O852 2.385 . S
Mn828 O853 2.209 . S
Mn828 O854 2.094 . S
Mn829 O834 2.121 . S
Mn829 N836 2.257 . S
Mn829 N845 2.282 . S
Mn829 O853 2.215 . S
Mn829 O855 2.117 . S
C830 O852 1.234 . S
C830 O853 1.283 . S
C831 O843 1.281 . S
C831 O844 1.236 . S
C832 O854 1.240 . S
C832 O855 1.264 . S
O833 Mn828 2.095 . S
O833 C842 1.250 . S
O834 Mn829 2.121 . S
O834 C842 1.258 . S
C835 N836 1.326 . S
C835 C839 1.460 . S
C835 H841 0.929 . S
N836 Mn829 2.257 . S
N836 C835 1.326 . S
N836 C840 1.362 . S
C837 C838 1.258 . S
C837 C840 1.431 . S
C837 C857 1.449 . S
C838 C837 1.258 . S
C838 C839 1.477 . S
C838 H858 0.931 . S
C839 C835 1.460 . S
C839 C838 1.477 . S
C839 H859 0.930 . S
C840 N836 1.362 . S
C840 C837 1.431 . S
C840 C850 1.476 . S
H841 C835 0.929 . S
C842 O833 1.250 . S
C842 O834 1.258 . S
O843 Mn828 2.162 . S
O843 C831 1.281 . S
O844 Mn828 2.297 . S
O844 C831 1.236 . S
N845 Mn829 2.282 . S
N845 C846 1.328 . S
N845 C850 1.318 . S
C846 N845 1.328 . S
C846 C847 1.457 . S
C846 H851 0.929 . S
C847 C846 1.457 . S
C847 C848 1.291 . S
C847 H860 0.931 . S
C848 C847 1.291 . S
C848 C849 1.373 . S
C848 H861 0.929 . S
C849 C848 1.373 . S
C849 C850 1.396 . S
C849 C856 1.403 . S
C850 C840 1.476 . S
C850 N845 1.318 . S
C850 C849 1.396 . S
H851 C846 0.929 . S
O852 Mn828 2.385 . S
O852 C830 1.234 . S
O853 Mn828 2.209 . S
O853 Mn829 2.215 . S
O853 C830 1.283 . S
O854 Mn828 2.094 . S
O854 C832 1.240 . S
O855 Mn829 2.117 . S
O855 C832 1.264 . S
C856 C849 1.403 . S
C856 C857 1.399 . S
C856 H862 0.929 . S
C857 C837 1.449 . S
C857 C856 1.399 . S
C857 H863 0.930 . S
H858 C838 0.931 . S
H859 C839 0.930 . S
H860 C847 0.931 . S
H861 C848 0.929 . S
H862 C856 0.929 . S
H863 C857 0.930 . S
Mn864 O869 2.095 . S
Mn864 O879 2.162 . S
Mn864 O880 2.297 . S
Mn864 O888 2.385 . S
Mn864 O889 2.209 . S
Mn864 O890 2.094 . S
Mn865 O870 2.121 . S
Mn865 N872 2.257 . S
Mn865 N881 2.282 . S
Mn865 O889 2.215 . S
Mn865 O891 2.117 . S
C866 O888 1.234 . S
C866 O889 1.283 . S
C867 O879 1.281 . S
C867 O880 1.236 . S
C868 O890 1.240 . S
C868 O891 1.264 . S
O869 Mn864 2.095 . S
O869 C878 1.250 . S
O870 Mn865 2.121 . S
O870 C878 1.258 . S
C871 N872 1.326 . S
C871 C875 1.460 . S
C871 H877 0.929 . S
N872 Mn865 2.257 . S
N872 C871 1.326 . S
N872 C876 1.362 . S
C873 C874 1.258 . S
C873 C876 1.431 . S
C873 C893 1.449 . S
C874 C873 1.258 . S
C874 C875 1.477 . S
C874 H894 0.931 . S
C875 C871 1.460 . S
C875 C874 1.477 . S
C875 H895 0.930 . S
C876 N872 1.362 . S
C876 C873 1.431 . S
C876 C886 1.476 . S
H877 C871 0.929 . S
C878 O869 1.250 . S
C878 O870 1.258 . S
O879 Mn864 2.162 . S
O879 C867 1.281 . S
O880 Mn864 2.297 . S
O880 C867 1.236 . S
N881 Mn865 2.282 . S
N881 C882 1.328 . S
N881 C886 1.318 . S
C882 N881 1.328 . S
C882 C883 1.457 . S
C882 H887 0.929 . S
C883 C882 1.457 . S
C883 C884 1.291 . S
C883 H896 0.931 . S
C884 C883 1.291 . S
C884 C885 1.373 . S
C884 H897 0.929 . S
C885 C884 1.373 . S
C885 C886 1.396 . S
C885 C892 1.403 . S
C886 C876 1.476 . S
C886 N881 1.318 . S
C886 C885 1.396 . S
H887 C882 0.929 . S
O888 Mn864 2.385 . S
O888 C866 1.234 . S
O889 Mn864 2.209 . S
O889 Mn865 2.215 . S
O889 C866 1.283 . S
O890 Mn864 2.094 . S
O890 C868 1.240 . S
O891 Mn865 2.117 . S
O891 C868 1.264 . S
C892 C885 1.403 . S
C892 C893 1.399 . S
C892 H898 0.929 . S
C893 C873 1.449 . S
C893 C892 1.399 . S
C893 H899 0.930 . S
H894 C874 0.931 . S
H895 C875 0.930 . S
H896 C883 0.931 . S
H897 C884 0.929 . S
H898 C892 0.929 . S
H899 C893 0.930 . S
Mn900 O905 2.095 . S
Mn900 O915 2.162 . S
Mn900 O916 2.297 . S
Mn900 O924 2.385 . S
Mn900 O925 2.209 . S
Mn900 O926 2.094 . S
Mn901 O906 2.121 . S
Mn901 N908 2.257 . S
Mn901 N917 2.282 . S
Mn901 O925 2.215 . S
Mn901 O927 2.117 . S
C902 O924 1.234 . S
C902 O925 1.283 . S
C903 O915 1.281 . S
C903 O916 1.236 . S
C904 O926 1.240 . S
C904 O927 1.264 . S
O905 Mn900 2.095 . S
O905 C914 1.250 . S
O906 Mn901 2.121 . S
O906 C914 1.258 . S
C907 N908 1.326 . S
C907 C911 1.460 . S
C907 H913 0.929 . S
N908 Mn901 2.257 . S
N908 C907 1.326 . S
N908 C912 1.362 . S
C909 C910 1.258 . S
C909 C912 1.431 . S
C909 C929 1.449 . S
C910 C909 1.258 . S
C910 C911 1.477 . S
C910 H930 0.931 . S
C911 C907 1.460 . S
C911 C910 1.477 . S
C911 H931 0.930 . S
C912 N908 1.362 . S
C912 C909 1.431 . S
C912 C922 1.476 . S
H913 C907 0.929 . S
C914 O905 1.250 . S
C914 O906 1.258 . S
O915 Mn900 2.162 . S
O915 C903 1.281 . S
O916 Mn900 2.297 . S
O916 C903 1.236 . S
N917 Mn901 2.282 . S
N917 C918 1.328 . S
N917 C922 1.318 . S
C918 N917 1.328 . S
C918 C919 1.457 . S
C918 H923 0.929 . S
C919 C918 1.457 . S
C919 C920 1.291 . S
C919 H932 0.931 . S
C920 C919 1.291 . S
C920 C921 1.373 . S
C920 H933 0.929 . S
C921 C920 1.373 . S
C921 C922 1.396 . S
C921 C928 1.403 . S
C922 C912 1.476 . S
C922 N917 1.318 . S
C922 C921 1.396 . S
H923 C918 0.929 . S
O924 Mn900 2.385 . S
O924 C902 1.234 . S
O925 Mn900 2.209 . S
O925 Mn901 2.215 . S
O925 C902 1.283 . S
O926 Mn900 2.094 . S
O926 C904 1.240 . S
O927 Mn901 2.117 . S
O927 C904 1.264 . S
C928 C921 1.403 . S
C928 C929 1.399 . S
C928 H934 0.929 . S
C929 C909 1.449 . S
C929 C928 1.399 . S
C929 H935 0.930 . S
H930 C910 0.931 . S
H931 C911 0.930 . S
H932 C919 0.931 . S
H933 C920 0.929 . S
H934 C928 0.929 . S
H935 C929 0.930 . S
Mn936 O941 2.095 . S
Mn936 O951 2.162 . S
Mn936 O952 2.297 . S
Mn936 O960 2.385 . S
Mn936 O961 2.209 . S
Mn936 O962 2.094 . S
Mn937 O942 2.121 1_554 S
Mn937 N944 2.257 . S
Mn937 N953 2.282 . S
Mn937 O961 2.215 1_554 S
Mn937 O963 2.117 1_554 S
C938 O960 1.234 . S
C938 O961 1.283 . S
C939 O951 1.281 . S
C939 O952 1.236 . S
C940 O962 1.240 . S
C940 O963 1.264 . S
O941 Mn936 2.095 . S
O941 C950 1.250 . S
O942 Mn937 2.121 1_556 S
O942 C950 1.258 . S
C943 N944 1.326 . S
C943 C947 1.460 . S
C943 H949 0.929 . S
N944 Mn937 2.257 . S
N944 C943 1.326 . S
N944 C948 1.362 . S
C945 C946 1.258 . S
C945 C948 1.431 . S
C945 C965 1.449 . S
C946 C945 1.258 . S
C946 C947 1.477 . S
C946 H966 0.931 . S
C947 C943 1.460 . S
C947 C946 1.477 . S
C947 H967 0.930 . S
C948 N944 1.362 . S
C948 C945 1.431 . S
C948 C958 1.476 . S
H949 C943 0.929 . S
C950 O941 1.250 . S
C950 O942 1.258 . S
O951 Mn936 2.162 . S
O951 C939 1.281 . S
O952 Mn936 2.297 . S
O952 C939 1.236 . S
N953 Mn937 2.282 . S
N953 C954 1.328 1_455 S
N953 C958 1.318 . S
C954 N953 1.328 1_655 S
C954 C955 1.457 . S
C954 H959 0.929 . S
C955 C954 1.457 . S
C955 C956 1.291 . S
C955 H968 0.931 . S
C956 C955 1.291 . S
C956 C957 1.373 . S
C956 H969 0.929 . S
C957 C956 1.373 . S
C957 C958 1.396 1_655 S
C957 C964 1.403 . S
C958 C948 1.476 . S
C958 N953 1.318 . S
C958 C957 1.396 1_455 S
H959 C954 0.929 . S
O960 Mn936 2.385 . S
O960 C938 1.234 . S
O961 Mn936 2.209 . S
O961 Mn937 2.215 1_556 S
O961 C938 1.283 . S
O962 Mn936 2.094 . S
O962 C940 1.240 . S
O963 Mn937 2.117 1_556 S
O963 C940 1.264 . S
C964 C957 1.403 . S
C964 C965 1.399 1_655 S
C964 H970 0.929 . S
C965 C945 1.449 . S
C965 C964 1.399 1_455 S
C965 H971 0.930 . S
H966 C946 0.931 . S
H967 C947 0.930 . S
H968 C955 0.931 . S
H969 C956 0.929 . S
H970 C964 0.929 . S
H971 C965 0.930 . S
Mn972 O977 2.095 . S
Mn972 O987 2.162 . S
Mn972 O988 2.297 . S
Mn972 O996 2.385 . S
Mn972 O997 2.209 . S
Mn972 O998 2.094 . S
Mn973 O978 2.121 . S
Mn973 N980 2.257 . S
Mn973 N989 2.282 . S
Mn973 O997 2.215 . S
Mn973 O999 2.117 . S
C974 O996 1.234 . S
C974 O997 1.283 . S
C975 O987 1.281 . S
C975 O988 1.236 . S
C976 O998 1.240 . S
C976 O999 1.264 . S
O977 Mn972 2.095 . S
O977 C986 1.250 . S
O978 Mn973 2.121 . S
O978 C986 1.258 . S
C979 N980 1.326 . S
C979 C983 1.460 1_655 S
C979 H985 0.929 . S
N980 Mn973 2.257 . S
N980 C979 1.326 . S
N980 C984 1.362 . S
C981 C982 1.258 . S
C981 C984 1.431 1_455 S
C981 C1001 1.449 . S
C982 C981 1.258 . S
C982 C983 1.477 . S
C982 H1002 0.931 . S
C983 C979 1.460 1_455 S
C983 C982 1.477 . S
C983 H1003 0.930 . S
C984 N980 1.362 . S
C984 C981 1.431 1_655 S
C984 C994 1.476 . S
H985 C979 0.929 . S
C986 O977 1.250 . S
C986 O978 1.258 . S
O987 Mn972 2.162 . S
O987 C975 1.281 . S
O988 Mn972 2.297 . S
O988 C975 1.236 . S
N989 Mn973 2.282 . S
N989 C990 1.328 . S
N989 C994 1.318 . S
C990 N989 1.328 . S
C990 C991 1.457 . S
C990 H995 0.929 . S
C991 C990 1.457 . S
C991 C992 1.291 . S
C991 H1004 0.931 . S
C992 C991 1.291 . S
C992 C993 1.373 . S
C992 H1005 0.929 . S
C993 C992 1.373 . S
C993 C994 1.396 . S
C993 C1000 1.403 1_655 S
C994 C984 1.476 . S
C994 N989 1.318 . S
C994 C993 1.396 . S
H995 C990 0.929 . S
O996 Mn972 2.385 . S
O996 C974 1.234 . S
O997 Mn972 2.209 . S
O997 Mn973 2.215 . S
O997 C974 1.283 . S
O998 Mn972 2.094 . S
O998 C976 1.240 . S
O999 Mn973 2.117 . S
O999 C976 1.264 . S
C1000 C993 1.403 1_455 S
C1000 C1001 1.399 . S
C1000 H1006 0.929 . S
C1001 C981 1.449 . S
C1001 C1000 1.399 . S
C1001 H1007 0.930 . S
H1002 C982 0.931 . S
H1003 C983 0.930 . S
H1004 C991 0.931 . S
H1005 C992 0.929 . S
H1006 C1000 0.929 . S
H1007 C1001 0.930 . S
Mn1008 O1013 2.095 . S
Mn1008 O1023 2.162 . S
Mn1008 O1024 2.297 . S
Mn1008 O1032 2.385 . S
Mn1008 O1033 2.209 . S
Mn1008 O1034 2.094 . S
Mn1009 O1014 2.121 1_556 S
Mn1009 N1016 2.257 . S
Mn1009 N1025 2.282 . S
Mn1009 O1033 2.215 1_556 S
Mn1009 O1035 2.117 1_556 S
C1010 O1032 1.234 . S
C1010 O1033 1.283 . S
C1011 O1023 1.281 . S
C1011 O1024 1.236 . S
C1012 O1034 1.240 . S
C1012 O1035 1.264 . S
O1013 Mn1008 2.095 . S
O1013 C1022 1.250 . S
O1014 Mn1009 2.121 1_554 S
O1014 C1022 1.258 . S
C1015 N1016 1.326 . S
C1015 C1019 1.460 . S
C1015 H1021 0.929 . S
N1016 Mn1009 2.257 . S
N1016 C1015 1.326 . S
N1016 C1020 1.362 . S
C1017 C1018 1.258 . S
C1017 C1020 1.431 . S
C1017 C1037 1.449 . S
C1018 C1017 1.258 . S
C1018 C1019 1.477 . S
C1018 H1038 0.931 . S
C1019 C1015 1.460 . S
C1019 C1018 1.477 . S
C1019 H1039 0.930 . S
C1020 N1016 1.362 . S
C1020 C1017 1.431 . S
C1020 C1030 1.476 . S
H1021 C1015 0.929 . S
C1022 O1013 1.250 . S
C1022 O1014 1.258 . S
O1023 Mn1008 2.162 . S
O1023 C1011 1.281 . S
O1024 Mn1008 2.297 . S
O1024 C1011 1.236 . S
N1025 Mn1009 2.282 . S
N1025 C1026 1.328 . S
N1025 C1030 1.318 . S
C1026 N1025 1.328 . S
C1026 C1027 1.457 . S
C1026 H1031 0.929 . S
C1027 C1026 1.457 . S
C1027 C1028 1.291 . S
C1027 H1040 0.931 . S
C1028 C1027 1.291 . S
C1028 C1029 1.373 . S
C1028 H1041 0.929 . S
C1029 C1028 1.373 . S
C1029 C1030 1.396 . S
C1029 C1036 1.403 . S
C1030 C1020 1.476 . S
C1030 N1025 1.318 . S
C1030 C1029 1.396 . S
H1031 C1026 0.929 . S
O1032 Mn1008 2.385 . S
O1032 C1010 1.234 . S
O1033 Mn1008 2.209 . S
O1033 Mn1009 2.215 1_554 S
O1033 C1010 1.283 . S
O1034 Mn1008 2.094 . S
O1034 C1012 1.240 . S
O1035 Mn1009 2.117 1_554 S
O1035 C1012 1.264 . S
C1036 C1029 1.403 . S
C1036 C1037 1.399 . S
C1036 H1042 0.929 . S
C1037 C1017 1.449 . S
C1037 C1036 1.399 . S
C1037 H1043 0.930 . S
H1038 C1018 0.931 . S
H1039 C1019 0.930 . S
H1040 C1027 0.931 . S
H1041 C1028 0.929 . S
H1042 C1036 0.929 . S
H1043 C1037 0.930 . S
Mn1044 O1049 2.095 . S
Mn1044 O1059 2.162 . S
Mn1044 O1060 2.297 . S
Mn1044 O1068 2.385 . S
Mn1044 O1069 2.209 . S
Mn1044 O1070 2.094 . S
Mn1045 O1050 2.121 . S
Mn1045 N1052 2.257 . S
Mn1045 N1061 2.282 . S
Mn1045 O1069 2.215 . S
Mn1045 O1071 2.117 . S
C1046 O1068 1.234 . S
C1046 O1069 1.283 . S
C1047 O1059 1.281 . S
C1047 O1060 1.236 . S
C1048 O1070 1.240 . S
C1048 O1071 1.264 . S
O1049 Mn1044 2.095 . S
O1049 C1058 1.250 . S
O1050 Mn1045 2.121 . S
O1050 C1058 1.258 . S
C1051 N1052 1.326 . S
C1051 C1055 1.460 1_655 S
C1051 H1057 0.929 . S
N1052 Mn1045 2.257 . S
N1052 C1051 1.326 . S
N1052 C1056 1.362 . S
C1053 C1054 1.258 . S
C1053 C1056 1.431 1_455 S
C1053 C1073 1.449 . S
C1054 C1053 1.258 . S
C1054 C1055 1.477 . S
C1054 H1074 0.931 . S
C1055 C1051 1.460 1_455 S
C1055 C1054 1.477 . S
C1055 H1075 0.930 . S
C1056 N1052 1.362 . S
C1056 C1053 1.431 1_655 S
C1056 C1066 1.476 . S
H1057 C1051 0.929 . S
C1058 O1049 1.250 . S
C1058 O1050 1.258 . S
O1059 Mn1044 2.162 . S
O1059 C1047 1.281 . S
O1060 Mn1044 2.297 . S
O1060 C1047 1.236 . S
N1061 Mn1045 2.282 . S
N1061 C1062 1.328 . S
N1061 C1066 1.318 . S
C1062 N1061 1.328 . S
C1062 C1063 1.457 . S
C1062 H1067 0.929 . S
C1063 C1062 1.457 . S
C1063 C1064 1.291 . S
C1063 H1076 0.931 . S
C1064 C1063 1.291 . S
C1064 C1065 1.373 . S
C1064 H1077 0.929 . S
C1065 C1064 1.373 . S
C1065 C1066 1.396 . S
C1065 C1072 1.403 1_655 S
C1066 C1056 1.476 . S
C1066 N1061 1.318 . S
C1066 C1065 1.396 . S
H1067 C1062 0.929 . S
O1068 Mn1044 2.385 . S
O1068 C1046 1.234 . S
O1069 Mn1044 2.209 . S
O1069 Mn1045 2.215 . S
O1069 C1046 1.283 . S
O1070 Mn1044 2.094 . S
O1070 C1048 1.240 . S
O1071 Mn1045 2.117 . S
O1071 C1048 1.264 . S
C1072 C1065 1.403 1_455 S
C1072 C1073 1.399 . S
C1072 H1078 0.929 . S
C1073 C1053 1.449 . S
C1073 C1072 1.399 . S
C1073 H1079 0.930 . S
H1074 C1054 0.931 . S
H1075 C1055 0.930 . S
H1076 C1063 0.931 . S
H1077 C1064 0.929 . S
H1078 C1072 0.929 . S
H1079 C1073 0.930 . S
Mn1080 O1085 2.095 . S
Mn1080 O1095 2.162 . S
Mn1080 O1096 2.297 . S
Mn1080 O1104 2.385 . S
Mn1080 O1105 2.209 . S
Mn1080 O1106 2.094 . S
Mn1081 O1086 2.121 . S
Mn1081 N1088 2.257 . S
Mn1081 N1097 2.282 . S
Mn1081 O1105 2.215 . S
Mn1081 O1107 2.117 . S
C1082 O1104 1.234 . S
C1082 O1105 1.283 . S
C1083 O1095 1.281 . S
C1083 O1096 1.236 . S
C1084 O1106 1.240 . S
C1084 O1107 1.264 . S
O1085 Mn1080 2.095 . S
O1085 C1094 1.250 . S
O1086 Mn1081 2.121 . S
O1086 C1094 1.258 . S
C1087 N1088 1.326 . S
C1087 C1091 1.460 . S
C1087 H1093 0.929 . S
N1088 Mn1081 2.257 . S
N1088 C1087 1.326 . S
N1088 C1092 1.362 . S
C1089 C1090 1.258 . S
C1089 C1092 1.431 . S
C1089 C1109 1.449 . S
C1090 C1089 1.258 . S
C1090 C1091 1.477 . S
C1090 H1110 0.931 . S
C1091 C1087 1.460 . S
C1091 C1090 1.477 . S
C1091 H1111 0.930 . S
C1092 N1088 1.362 . S
C1092 C1089 1.431 . S
C1092 C1102 1.476 . S
H1093 C1087 0.929 . S
C1094 O1085 1.250 . S
C1094 O1086 1.258 . S
O1095 Mn1080 2.162 . S
O1095 C1083 1.281 . S
O1096 Mn1080 2.297 . S
O1096 C1083 1.236 . S
N1097 Mn1081 2.282 . S
N1097 C1098 1.328 1_455 S
N1097 C1102 1.318 . S
C1098 N1097 1.328 1_655 S
C1098 C1099 1.457 . S
C1098 H1103 0.929 . S
C1099 C1098 1.457 . S
C1099 C1100 1.291 . S
C1099 H1112 0.931 . S
C1100 C1099 1.291 . S
C1100 C1101 1.373 . S
C1100 H1113 0.929 . S
C1101 C1100 1.373 . S
C1101 C1102 1.396 1_655 S
C1101 C1108 1.403 . S
C1102 C1092 1.476 . S
C1102 N1097 1.318 . S
C1102 C1101 1.396 1_455 S
H1103 C1098 0.929 . S
O1104 Mn1080 2.385 . S
O1104 C1082 1.234 . S
O1105 Mn1080 2.209 . S
O1105 Mn1081 2.215 . S
O1105 C1082 1.283 . S
O1106 Mn1080 2.094 . S
O1106 C1084 1.240 . S
O1107 Mn1081 2.117 . S
O1107 C1084 1.264 . S
C1108 C1101 1.403 . S
C1108 C1109 1.399 1_655 S
C1108 H1114 0.929 . S
C1109 C1089 1.449 . S
C1109 C1108 1.399 1_455 S
C1109 H1115 0.930 . S
H1110 C1090 0.931 . S
H1111 C1091 0.930 . S
H1112 C1099 0.931 . S
H1113 C1100 0.929 . S
H1114 C1108 0.929 . S
H1115 C1109 0.930 . S
Mn1116 O1121 2.095 . S
Mn1116 O1131 2.162 . S
Mn1116 O1132 2.297 . S
Mn1116 O1140 2.385 . S
Mn1116 O1141 2.209 . S
Mn1116 O1142 2.094 . S
Mn1117 O1122 2.121 . S
Mn1117 N1124 2.257 . S
Mn1117 N1133 2.282 . S
Mn1117 O1141 2.215 . S
Mn1117 O1143 2.117 . S
C1118 O1140 1.234 . S
C1118 O1141 1.283 . S
C1119 O1131 1.281 . S
C1119 O1132 1.236 . S
C1120 O1142 1.240 . S
C1120 O1143 1.264 . S
O1121 Mn1116 2.095 . S
O1121 C1130 1.250 . S
O1122 Mn1117 2.121 . S
O1122 C1130 1.258 . S
C1123 N1124 1.326 . S
C1123 C1127 1.460 . S
C1123 H1129 0.929 . S
N1124 Mn1117 2.257 . S
N1124 C1123 1.326 . S
N1124 C1128 1.362 . S
C1125 C1126 1.258 . S
C1125 C1128 1.431 . S
C1125 C1145 1.449 . S
C1126 C1125 1.258 . S
C1126 C1127 1.477 . S
C1126 H1146 0.931 . S
C1127 C1123 1.460 . S
C1127 C1126 1.477 . S
C1127 H1147 0.930 . S
C1128 N1124 1.362 . S
C1128 C1125 1.431 . S
C1128 C1138 1.476 . S
H1129 C1123 0.929 . S
C1130 O1121 1.250 . S
C1130 O1122 1.258 . S
O1131 Mn1116 2.162 . S
O1131 C1119 1.281 . S
O1132 Mn1116 2.297 . S
O1132 C1119 1.236 . S
N1133 Mn1117 2.282 . S
N1133 C1134 1.328 . S
N1133 C1138 1.318 . S
C1134 N1133 1.328 . S
C1134 C1135 1.457 . S
C1134 H1139 0.929 . S
C1135 C1134 1.457 . S
C1135 C1136 1.291 . S
C1135 H1148 0.931 . S
C1136 C1135 1.291 . S
C1136 C1137 1.373 . S
C1136 H1149 0.929 . S
C1137 C1136 1.373 . S
C1137 C1138 1.396 . S
C1137 C1144 1.403 . S
C1138 C1128 1.476 . S
C1138 N1133 1.318 . S
C1138 C1137 1.396 . S
H1139 C1134 0.929 . S
O1140 Mn1116 2.385 . S
O1140 C1118 1.234 . S
O1141 Mn1116 2.209 . S
O1141 Mn1117 2.215 . S
O1141 C1118 1.283 . S
O1142 Mn1116 2.094 . S
O1142 C1120 1.240 . S
O1143 Mn1117 2.117 . S
O1143 C1120 1.264 . S
C1144 C1137 1.403 . S
C1144 C1145 1.399 . S
C1144 H1150 0.929 . S
C1145 C1125 1.449 . S
C1145 C1144 1.399 . S
C1145 H1151 0.930 . S
H1146 C1126 0.931 . S
H1147 C1127 0.930 . S
H1148 C1135 0.931 . S
H1149 C1136 0.929 . S
H1150 C1144 0.929 . S
H1151 C1145 0.930 . S
C1152 C1153 1.363 . S
C1152 C1158 1.379 1_556 S
C1152 N1160 1.356 . S
C1153 C1152 1.363 . S
C1153 C1159 1.363 1_655 S
C1154 C1155 1.363 . S
C1154 C1159 1.379 1_554 S
C1154 N1161 1.356 . S
C1155 C1154 1.363 . S
C1155 C1158 1.363 1_455 S
N1156 C1158 1.356 . S
N1156 H1168 0.984 . S
N1156 H1169 0.985 1_655 S
N1157 C1159 1.356 . S
N1157 H1162 0.984 1_455 S
N1157 H1163 0.985 . S
C1158 C1152 1.379 1_554 S
C1158 C1155 1.363 1_655 S
C1158 N1156 1.356 . S
C1159 C1153 1.363 1_455 S
C1159 C1154 1.379 1_556 S
C1159 N1157 1.356 . S
N1160 C1152 1.356 . S
N1160 H1166 0.984 . S
N1160 H1167 0.984 . S
N1161 C1154 1.356 . S
N1161 H1164 0.984 . S
N1161 H1165 0.985 . S
H1162 N1157 0.984 1_655 S
H1163 N1157 0.985 . S
H1164 N1161 0.984 . S
H1165 N1161 0.985 . S
H1166 N1160 0.984 . S
H1167 N1160 0.984 . S
H1168 N1156 0.984 . S
H1169 N1156 0.985 1_455 S
C1170 C1171 1.363 . S
C1170 C1176 1.379 . S
C1170 N1178 1.356 . S
C1171 C1170 1.363 . S
C1171 C1177 1.363 . S
C1172 C1173 1.363 . S
C1172 C1177 1.379 . S
C1172 N1179 1.356 . S
C1173 C1172 1.363 . S
C1173 C1176 1.363 . S
N1174 C1176 1.356 . S
N1174 H1186 0.984 . S
N1174 H1187 0.985 . S
N1175 C1177 1.356 . S
N1175 H1180 0.984 . S
N1175 H1181 0.985 . S
C1176 C1170 1.379 . S
C1176 C1173 1.363 . S
C1176 N1174 1.356 . S
C1177 C1171 1.363 . S
C1177 C1172 1.379 . S
C1177 N1175 1.356 . S
N1178 C1170 1.356 . S
N1178 H1184 0.984 . S
N1178 H1185 0.984 . S
N1179 C1172 1.356 . S
N1179 H1182 0.984 . S
N1179 H1183 0.985 . S
H1180 N1175 0.984 . S
H1181 N1175 0.985 . S
H1182 N1179 0.984 . S
H1183 N1179 0.985 . S
H1184 N1178 0.984 . S
H1185 N1178 0.984 . S
H1186 N1174 0.984 . S
H1187 N1174 0.985 . S
C1188 C1189 1.363 . S
C1188 C1194 1.379 . S
C1188 N1196 1.356 . S
C1189 C1188 1.363 . S
C1189 C1195 1.363 . S
C1190 C1191 1.363 . S
C1190 C1195 1.379 . S
C1190 N1197 1.356 . S
C1191 C1190 1.363 . S
C1191 C1194 1.363 . S
N1192 C1194 1.356 . S
N1192 H1204 0.984 . S
N1192 H1205 0.985 . S
N1193 C1195 1.356 . S
N1193 H1198 0.984 . S
N1193 H1199 0.985 . S
C1194 C1188 1.379 . S
C1194 C1191 1.363 . S
C1194 N1192 1.356 . S
C1195 C1189 1.363 . S
C1195 C1190 1.379 . S
C1195 N1193 1.356 . S
N1196 C1188 1.356 . S
N1196 H1202 0.984 . S
N1196 H1203 0.984 . S
N1197 C1190 1.356 . S
N1197 H1200 0.984 . S
N1197 H1201 0.985 . S
H1198 N1193 0.984 . S
H1199 N1193 0.985 . S
H1200 N1197 0.984 . S
H1201 N1197 0.985 . S
H1202 N1196 0.984 . S
H1203 N1196 0.984 . S
H1204 N1192 0.984 . S
H1205 N1192 0.985 . S
C1206 C1207 1.363 . S
C1206 C1212 1.379 . S
C1206 N1214 1.356 . S
C1207 C1206 1.363 . S
C1207 C1213 1.363 . S
C1208 C1209 1.363 . S
C1208 C1213 1.379 . S
C1208 N1215 1.356 . S
C1209 C1208 1.363 . S
C1209 C1212 1.363 . S
N1210 C1212 1.356 . S
N1210 H1222 0.984 . S
N1210 H1223 0.985 . S
N1211 C1213 1.356 . S
N1211 H1216 0.984 . S
N1211 H1217 0.985 . S
C1212 C1206 1.379 . S
C1212 C1209 1.363 . S
C1212 N1210 1.356 . S
C1213 C1207 1.363 . S
C1213 C1208 1.379 . S
C1213 N1211 1.356 . S
N1214 C1206 1.356 . S
N1214 H1220 0.984 . S
N1214 H1221 0.984 . S
N1215 C1208 1.356 . S
N1215 H1218 0.984 . S
N1215 H1219 0.985 . S
H1216 N1211 0.984 . S
H1217 N1211 0.985 . S
H1218 N1215 0.984 . S
H1219 N1215 0.985 . S
H1220 N1214 0.984 . S
H1221 N1214 0.984 . S
H1222 N1210 0.984 . S
H1223 N1210 0.985 . S
C1224 C1225 1.363 . S
C1224 C1230 1.379 1_655 S
C1224 N1232 1.356 . S
C1225 C1224 1.363 . S
C1225 C1231 1.363 . S
C1226 C1227 1.363 . S
C1226 C1231 1.379 1_455 S
C1226 N1233 1.356 . S
C1227 C1226 1.363 . S
C1227 C1230 1.363 . S
N1228 C1230 1.356 . S
N1228 H1240 0.984 . S
N1228 H1241 0.985 . S
N1229 C1231 1.356 . S
N1229 H1234 0.984 . S
N1229 H1235 0.985 . S
C1230 C1224 1.379 1_455 S
C1230 C1227 1.363 . S
C1230 N1228 1.356 . S
C1231 C1225 1.363 . S
C1231 C1226 1.379 1_655 S
C1231 N1229 1.356 . S
N1232 C1224 1.356 . S
N1232 H1238 0.984 . S
N1232 H1239 0.984 . S
N1233 C1226 1.356 . S
N1233 H1236 0.984 . S
N1233 H1237 0.985 . S
H1234 N1229 0.984 . S
H1235 N1229 0.985 . S
H1236 N1233 0.984 . S
H1237 N1233 0.985 . S
H1238 N1232 0.984 . S
H1239 N1232 0.984 . S
H1240 N1228 0.984 . S
H1241 N1228 0.985 . S
C1242 C1243 1.363 . S
C1242 C1248 1.379 . S
C1242 N1250 1.356 . S
C1243 C1242 1.363 . S
C1243 C1249 1.363 . S
C1244 C1245 1.363 . S
C1244 C1249 1.379 . S
C1244 N1251 1.356 . S
C1245 C1244 1.363 . S
C1245 C1248 1.363 . S
N1246 C1248 1.356 . S
N1246 H1258 0.984 . S
N1246 H1259 0.985 . S
N1247 C1249 1.356 . S
N1247 H1252 0.984 . S
N1247 H1253 0.985 . S
C1248 C1242 1.379 . S
C1248 C1245 1.363 . S
C1248 N1246 1.356 . S
C1249 C1243 1.363 . S
C1249 C1244 1.379 . S
C1249 N1247 1.356 . S
N1250 C1242 1.356 . S
N1250 H1256 0.984 . S
N1250 H1257 0.984 . S
N1251 C1244 1.356 . S
N1251 H1254 0.984 . S
N1251 H1255 0.985 . S
H1252 N1247 0.984 . S
H1253 N1247 0.985 . S
H1254 N1251 0.984 . S
H1255 N1251 0.985 . S
H1256 N1250 0.984 . S
H1257 N1250 0.984 . S
H1258 N1246 0.984 . S
H1259 N1246 0.985 . S
C1260 C1261 1.363 . S
C1260 C1266 1.379 . S
C1260 N1268 1.356 . S
C1261 C1260 1.363 . S
C1261 C1267 1.363 1_556 S
C1262 C1263 1.363 . S
C1262 C1267 1.379 . S
C1262 N1269 1.356 . S
C1263 C1262 1.363 . S
C1263 C1266 1.363 1_554 S
N1264 C1266 1.356 . S
N1264 H1276 0.984 . S
N1264 H1277 0.985 . S
N1265 C1267 1.356 . S
N1265 H1270 0.984 . S
N1265 H1271 0.985 . S
C1266 C1260 1.379 . S
C1266 C1263 1.363 1_556 S
C1266 N1264 1.356 . S
C1267 C1261 1.363 1_554 S
C1267 C1262 1.379 . S
C1267 N1265 1.356 . S
N1268 C1260 1.356 . S
N1268 H1274 0.984 . S
N1268 H1275 0.984 . S
N1269 C1262 1.356 . S
N1269 H1272 0.984 . S
N1269 H1273 0.985 . S
H1270 N1265 0.984 . S
H1271 N1265 0.985 . S
H1272 N1269 0.984 . S
H1273 N1269 0.985 . S
H1274 N1268 0.984 . S
H1275 N1268 0.984 . S
H1276 N1264 0.984 . S
H1277 N1264 0.985 . S
C1278 C1279 1.363 . S
C1278 C1284 1.379 . S
C1278 N1286 1.356 . S
C1279 C1278 1.363 . S
C1279 C1285 1.363 . S
C1280 C1281 1.363 . S
C1280 C1285 1.379 . S
C1280 N1287 1.356 . S
C1281 C1280 1.363 . S
C1281 C1284 1.363 . S
N1282 C1284 1.356 . S
N1282 H1294 0.984 . S
N1282 H1295 0.985 . S
N1283 C1285 1.356 . S
N1283 H1288 0.984 . S
N1283 H1289 0.985 . S
C1284 C1278 1.379 . S
C1284 C1281 1.363 . S
C1284 N1282 1.356 . S
C1285 C1279 1.363 . S
C1285 C1280 1.379 . S
C1285 N1283 1.356 . S
N1286 C1278 1.356 . S
N1286 H1292 0.984 . S
N1286 H1293 0.984 . S
N1287 C1280 1.356 . S
N1287 H1290 0.984 . S
N1287 H1291 0.985 . S
H1288 N1283 0.984 . S
H1289 N1283 0.985 . S
H1290 N1287 0.984 . S
H1291 N1287 0.985 . S
H1292 N1286 0.984 . S
H1293 N1286 0.984 . S
H1294 N1282 0.984 . S
H1295 N1282 0.985 . S
C1296 C1297 1.363 . S
C1296 C1302 1.379 . S
C1296 N1304 1.356 . S
C1297 C1296 1.363 . S
C1297 C1303 1.363 . S
C1298 C1299 1.363 . S
C1298 C1303 1.379 . S
C1298 N1305 1.356 . S
C1299 C1298 1.363 . S
C1299 C1302 1.363 . S
N1300 C1302 1.356 . S
N1300 H1312 0.984 . S
N1300 H1313 0.985 . S
N1301 C1303 1.356 . S
N1301 H1306 0.984 . S
N1301 H1307 0.985 . S
C1302 C1296 1.379 . S
C1302 C1299 1.363 . S
C1302 N1300 1.356 . S
C1303 C1297 1.363 . S
C1303 C1298 1.379 . S
C1303 N1301 1.356 . S
N1304 C1296 1.356 . S
N1304 H1310 0.984 . S
N1304 H1311 0.984 . S
N1305 C1298 1.356 . S
N1305 H1308 0.984 . S
N1305 H1309 0.985 . S
H1306 N1301 0.984 . S
H1307 N1301 0.985 . S
H1308 N1305 0.984 . S
H1309 N1305 0.985 . S
H1310 N1304 0.984 . S
H1311 N1304 0.984 . S
H1312 N1300 0.984 . S
H1313 N1300 0.985 . S
C1314 C1315 1.363 . S
C1314 C1320 1.379 . S
C1314 N1322 1.356 . S
C1315 C1314 1.363 . S
C1315 C1321 1.363 . S
C1316 C1317 1.363 . S
C1316 C1321 1.379 . S
C1316 N1323 1.356 . S
C1317 C1316 1.363 . S
C1317 C1320 1.363 . S
N1318 C1320 1.356 . S
N1318 H1330 0.984 . S
N1318 H1331 0.985 . S
N1319 C1321 1.356 . S
N1319 H1324 0.984 . S
N1319 H1325 0.985 . S
C1320 C1314 1.379 . S
C1320 C1317 1.363 . S
C1320 N1318 1.356 . S
C1321 C1315 1.363 . S
C1321 C1316 1.379 . S
C1321 N1319 1.356 . S
N1322 C1314 1.356 . S
N1322 H1328 0.984 . S
N1322 H1329 0.984 . S
N1323 C1316 1.356 . S
N1323 H1326 0.984 . S
N1323 H1327 0.985 . S
H1324 N1319 0.984 . S
H1325 N1319 0.985 . S
H1326 N1323 0.984 . S
H1327 N1323 0.985 . S
H1328 N1322 0.984 . S
H1329 N1322 0.984 . S
H1330 N1318 0.984 . S
H1331 N1318 0.985 . S
C1332 C1333 1.363 . S
C1332 C1338 1.379 . S
C1332 N1340 1.356 . S
C1333 C1332 1.363 . S
C1333 C1339 1.363 . S
C1334 C1335 1.363 . S
C1334 C1339 1.379 . S
C1334 N1341 1.356 . S
C1335 C1334 1.363 . S
C1335 C1338 1.363 . S
N1336 C1338 1.356 . S
N1336 H1348 0.984 . S
N1336 H1349 0.985 . S
N1337 C1339 1.356 . S
N1337 H1342 0.984 . S
N1337 H1343 0.985 . S
C1338 C1332 1.379 . S
C1338 C1335 1.363 . S
C1338 N1336 1.356 . S
C1339 C1333 1.363 . S
C1339 C1334 1.379 . S
C1339 N1337 1.356 . S
N1340 C1332 1.356 . S
N1340 H1346 0.984 . S
N1340 H1347 0.984 . S
N1341 C1334 1.356 . S
N1341 H1344 0.984 . S
N1341 H1345 0.985 . S
H1342 N1337 0.984 . S
H1343 N1337 0.985 . S
H1344 N1341 0.984 . S
H1345 N1341 0.985 . S
H1346 N1340 0.984 . S
H1347 N1340 0.984 . S
H1348 N1336 0.984 . S
H1349 N1336 0.985 . S
C1350 C1351 1.363 . S
C1350 C1356 1.379 . S
C1350 N1358 1.356 . S
C1351 C1350 1.363 . S
C1351 C1357 1.363 . S
C1352 C1353 1.363 . S
C1352 C1357 1.379 . S
C1352 N1359 1.356 . S
C1353 C1352 1.363 . S
C1353 C1356 1.363 . S
N1354 C1356 1.356 . S
N1354 H1366 0.984 . S
N1354 H1367 0.985 . S
N1355 C1357 1.356 . S
N1355 H1360 0.984 . S
N1355 H1361 0.985 . S
C1356 C1350 1.379 . S
C1356 C1353 1.363 . S
C1356 N1354 1.356 . S
C1357 C1351 1.363 . S
C1357 C1352 1.379 . S
C1357 N1355 1.356 . S
N1358 C1350 1.356 . S
N1358 H1364 0.984 . S
N1358 H1365 0.984 . S
N1359 C1352 1.356 . S
N1359 H1362 0.984 . S
N1359 H1363 0.985 . S
H1360 N1355 0.984 . S
H1361 N1355 0.985 . S
H1362 N1359 0.984 . S
H1363 N1359 0.985 . S
H1364 N1358 0.984 . S
H1365 N1358 0.984 . S
H1366 N1354 0.984 . S
H1367 N1354 0.985 . S
C1368 C1369 1.363 . S
C1368 C1374 1.379 1_565 S
C1368 N1376 1.356 . S
C1369 C1368 1.363 . S
C1369 C1375 1.363 . S
C1370 C1371 1.363 . S
C1370 C1375 1.379 1_545 S
C1370 N1377 1.356 . S
C1371 C1370 1.363 . S
C1371 C1374 1.363 . S
N1372 C1374 1.356 . S
N1372 H1384 0.984 . S
N1372 H1385 0.985 . S
N1373 C1375 1.356 . S
N1373 H1378 0.984 . S
N1373 H1379 0.985 . S
C1374 C1368 1.379 1_545 S
C1374 C1371 1.363 . S
C1374 N1372 1.356 . S
C1375 C1369 1.363 . S
C1375 C1370 1.379 1_565 S
C1375 N1373 1.356 . S
N1376 C1368 1.356 . S
N1376 H1382 0.984 . S
N1376 H1383 0.984 . S
N1377 C1370 1.356 . S
N1377 H1380 0.984 . S
N1377 H1381 0.985 . S
H1378 N1373 0.984 . S
H1379 N1373 0.985 . S
H1380 N1377 0.984 . S
H1381 N1377 0.985 . S
H1382 N1376 0.984 . S
H1383 N1376 0.984 . S
H1384 N1372 0.984 . S
H1385 N1372 0.985 . S
C1386 C1387 1.363 1_545 S
C1386 C1392 1.361 1_455 S
C1386 N1394 1.356 . S
C1387 C1386 1.363 1_565 S
C1387 C1393 1.381 1_556 S
C1388 C1389 1.363 1_565 S
C1388 C1393 1.361 1_655 S
C1388 N1395 1.356 . S
C1389 C1388 1.363 1_545 S
C1389 C1392 1.381 1_554 S
N1390 C1392 1.363 . S
N1390 H1402 0.984 1_655 S
N1390 H1403 0.978 1_556 S
N1391 C1393 1.363 . S
N1391 H1396 0.978 1_554 S
N1391 H1397 0.985 1_455 S
C1392 C1386 1.361 1_655 S
C1392 C1389 1.381 1_556 S
C1392 N1390 1.363 . S
C1393 C1387 1.381 1_554 S
C1393 C1388 1.361 1_455 S
C1393 N1391 1.363 . S
N1394 C1386 1.356 . S
N1394 H1400 0.984 . S
N1394 H1401 0.984 1_545 S
N1395 C1388 1.356 . S
N1395 H1398 0.984 1_565 S
N1395 H1399 0.985 . S
H1396 N1391 0.978 1_556 S
H1397 N1391 0.985 1_655 S
H1398 N1395 0.984 1_545 S
H1399 N1395 0.985 . S
H1400 N1394 0.984 . S
H1401 N1394 0.984 1_565 S
H1402 N1390 0.984 1_455 S
H1403 N1390 0.978 1_554 S
C1404 C1405 1.363 . S
C1404 C1410 1.379 1_545 S
C1404 N1412 1.356 . S
C1405 C1404 1.363 . S
C1405 C1411 1.363 1_556 S
C1406 C1407 1.363 . S
C1406 C1411 1.379 1_565 S
C1406 N1413 1.356 . S
C1407 C1406 1.363 . S
C1407 C1410 1.363 1_554 S
N1408 C1410 1.356 . S
N1408 H1420 0.984 . S
N1408 H1421 0.985 . S
N1409 C1411 1.356 . S
N1409 H1414 0.984 . S
N1409 H1415 0.985 . S
C1410 C1404 1.379 1_565 S
C1410 C1407 1.363 1_556 S
C1410 N1408 1.356 . S
C1411 C1405 1.363 1_554 S
C1411 C1406 1.379 1_545 S
C1411 N1409 1.356 . S
N1412 C1404 1.356 . S
N1412 H1418 0.984 . S
N1412 H1419 0.984 . S
N1413 C1406 1.356 . S
N1413 H1416 0.984 . S
N1413 H1417 0.985 . S
H1414 N1409 0.984 . S
H1415 N1409 0.985 . S
H1416 N1413 0.984 . S
H1417 N1413 0.985 . S
H1418 N1412 0.984 . S
H1419 N1412 0.984 . S
H1420 N1408 0.984 . S
H1421 N1408 0.985 . S
C1422 C1423 1.363 . S
C1422 C1428 1.379 1_455 S
C1422 N1430 1.356 . S
C1423 C1422 1.363 . S
C1423 C1429 1.363 1_545 S
C1424 C1425 1.363 . S
C1424 C1429 1.379 1_655 S
C1424 N1431 1.356 . S
C1425 C1424 1.363 . S
C1425 C1428 1.363 1_565 S
N1426 C1428 1.356 1_565 S
N1426 H1438 0.984 1_565 S
N1426 H1439 0.985 . S
N1427 C1429 1.356 1_545 S
N1427 H1432 0.984 . S
N1427 H1433 0.985 1_545 S
C1428 C1422 1.379 1_655 S
C1428 C1425 1.363 1_545 S
C1428 N1426 1.356 1_545 S
C1429 C1423 1.363 1_565 S
C1429 C1424 1.379 1_455 S
C1429 N1427 1.356 1_565 S
N1430 C1422 1.356 . S
N1430 H1436 0.984 . S
N1430 H1437 0.984 . S
N1431 C1424 1.356 . S
N1431 H1434 0.984 . S
N1431 H1435 0.985 . S
H1432 N1427 0.984 . S
H1433 N1427 0.985 1_565 S
H1434 N1431 0.984 . S
H1435 N1431 0.985 . S
H1436 N1430 0.984 . S
H1437 N1430 0.984 . S
H1438 N1426 0.984 1_545 S
H1439 N1426 0.985 . S
C1440 C1441 1.363 1_455 S
C1440 C1446 1.379 . S
C1440 N1448 1.353 1_455 S
C1441 C1440 1.363 1_655 S
C1441 C1447 1.363 . S
C1442 C1443 1.363 1_655 S
C1442 C1447 1.379 . S
C1442 N1449 1.353 1_655 S
C1443 C1442 1.363 1_455 S
C1443 C1446 1.363 . S
N1444 C1446 1.356 . S
N1444 H1456 0.987 1_554 S
N1444 H1457 0.985 . S
N1445 C1447 1.356 . S
N1445 H1450 0.984 . S
N1445 H1451 0.985 . S
C1446 C1440 1.379 . S
C1446 C1443 1.363 . S
C1446 N1444 1.356 . S
C1447 C1441 1.363 . S
C1447 C1442 1.379 . S
C1447 N1445 1.356 . S
N1448 C1440 1.353 1_655 S
N1448 H1454 0.972 1_654 S
N1448 H1455 1.003 . S
N1449 C1442 1.353 1_455 S
N1449 H1452 1.003 . S
N1449 H1453 0.969 1_455 S
H1450 N1445 0.984 . S
H1451 N1445 0.985 . S
H1452 N1449 1.003 . S
H1453 N1449 0.969 1_655 S
H1454 N1448 0.972 1_456 S
H1455 N1448 1.003 . S
H1456 N1444 0.987 1_556 S
H1457 N1444 0.985 . S
C1458 C1459 1.363 . S
C1458 C1464 1.379 1_455 S
C1458 N1466 1.356 . S
C1459 C1458 1.363 . S
C1459 C1465 1.363 . S
C1460 C1461 1.363 . S
C1460 C1465 1.379 1_655 S
C1460 N1467 1.356 . S
C1461 C1460 1.363 . S
C1461 C1464 1.363 . S
N1462 C1464 1.356 . S
N1462 H1474 0.984 . S
N1462 H1475 0.985 . S
N1463 C1465 1.356 . S
N1463 H1468 0.984 . S
N1463 H1469 0.985 . S
C1464 C1458 1.379 1_655 S
C1464 C1461 1.363 . S
C1464 N1462 1.356 . S
C1465 C1459 1.363 . S
C1465 C1460 1.379 1_455 S
C1465 N1463 1.356 . S
N1466 C1458 1.356 . S
N1466 H1472 0.984 . S
N1466 H1473 0.984 . S
N1467 C1460 1.356 . S
N1467 H1470 0.984 . S
N1467 H1471 0.985 . S
H1468 N1463 0.984 . S
H1469 N1463 0.985 . S
H1470 N1467 0.984 . S
H1471 N1467 0.985 . S
H1472 N1466 0.984 . S
H1473 N1466 0.984 . S
H1474 N1462 0.984 . S
H1475 N1462 0.985 . S
C1476 C1477 1.363 . S
C1476 C1482 1.379 . S
C1476 N1484 1.356 . S
C1477 C1476 1.363 . S
C1477 C1483 1.363 . S
C1478 C1479 1.363 . S
C1478 C1483 1.379 . S
C1478 N1485 1.356 . S
C1479 C1478 1.363 . S
C1479 C1482 1.363 . S
N1480 C1482 1.356 . S
N1480 H1492 0.984 . S
N1480 H1493 0.985 . S
N1481 C1483 1.356 . S
N1481 H1486 0.984 . S
N1481 H1487 0.985 . S
C1482 C1476 1.379 . S
C1482 C1479 1.363 . S
C1482 N1480 1.356 . S
C1483 C1477 1.363 . S
C1483 C1478 1.379 . S
C1483 N1481 1.356 . S
N1484 C1476 1.356 . S
N1484 H1490 0.984 . S
N1484 H1491 0.984 . S
N1485 C1478 1.356 . S
N1485 H1488 0.984 . S
N1485 H1489 0.985 . S
H1486 N1481 0.984 . S
H1487 N1481 0.985 . S
H1488 N1485 0.984 . S
H1489 N1485 0.985 . S
H1490 N1484 0.984 . S
H1491 N1484 0.984 . S
H1492 N1480 0.984 . S
H1493 N1480 0.985 . S
C1494 C1495 1.363 . S
C1494 C1500 1.379 . S
C1494 N1502 1.356 . S
C1495 C1494 1.363 . S
C1495 C1501 1.363 . S
C1496 C1497 1.363 . S
C1496 C1501 1.379 . S
C1496 N1503 1.356 . S
C1497 C1496 1.363 . S
C1497 C1500 1.363 . S
N1498 C1500 1.356 . S
N1498 H1510 0.984 . S
N1498 H1511 0.985 . S
N1499 C1501 1.356 . S
N1499 H1504 0.984 . S
N1499 H1505 0.985 . S
C1500 C1494 1.379 . S
C1500 C1497 1.363 . S
C1500 N1498 1.356 . S
C1501 C1495 1.363 . S
C1501 C1496 1.379 . S
C1501 N1499 1.356 . S
N1502 C1494 1.356 . S
N1502 H1508 0.984 . S
N1502 H1509 0.984 . S
N1503 C1496 1.356 . S
N1503 H1506 0.984 . S
N1503 H1507 0.985 . S
H1504 N1499 0.984 . S
H1505 N1499 0.985 . S
H1506 N1503 0.984 . S
H1507 N1503 0.985 . S
H1508 N1502 0.984 . S
H1509 N1502 0.984 . S
H1510 N1498 0.984 . S
H1511 N1498 0.985 . S
C1512 C1513 1.363 1_455 S
C1512 C1518 1.379 . S
C1512 N1520 1.353 1_455 S
C1513 C1512 1.363 1_655 S
C1513 C1519 1.363 . S
C1514 C1515 1.363 1_655 S
C1514 C1519 1.379 . S
C1514 N1521 1.353 1_655 S
C1515 C1514 1.363 1_455 S
C1515 C1518 1.363 . S
N1516 C1518 1.356 . S
N1516 H1528 0.984 . S
N1516 H1529 0.985 . S
N1517 C1519 1.356 . S
N1517 H1522 0.984 . S
N1517 H1523 0.985 . S
C1518 C1512 1.379 . S
C1518 C1515 1.363 . S
C1518 N1516 1.356 . S
C1519 C1513 1.363 . S
C1519 C1514 1.379 . S
C1519 N1517 1.356 . S
N1520 C1512 1.353 1_655 S
N1520 H1526 0.969 1_655 S
N1520 H1527 1.003 . S
N1521 C1514 1.353 1_455 S
N1521 H1524 1.003 . S
N1521 H1525 0.969 1_455 S
H1522 N1517 0.984 . S
H1523 N1517 0.985 . S
H1524 N1521 1.003 . S
H1525 N1521 0.969 1_655 S
H1526 N1520 0.969 1_455 S
H1527 N1520 1.003 . S
H1528 N1516 0.984 . S
H1529 N1516 0.985 . S
C1530 C1531 1.363 . S
C1530 C1536 1.379 . S
C1530 N1538 1.356 . S
C1531 C1530 1.363 . S
C1531 C1537 1.363 . S
C1532 C1533 1.363 . S
C1532 C1537 1.379 . S
C1532 N1539 1.356 . S
C1533 C1532 1.363 . S
C1533 C1536 1.363 . S
N1534 C1536 1.356 . S
N1534 H1546 0.984 . S
N1534 H1547 0.985 . S
N1535 C1537 1.356 . S
N1535 H1540 0.984 . S
N1535 H1541 0.985 . S
C1536 C1530 1.379 . S
C1536 C1533 1.363 . S
C1536 N1534 1.356 . S
C1537 C1531 1.363 . S
C1537 C1532 1.379 . S
C1537 N1535 1.356 . S
N1538 C1530 1.356 . S
N1538 H1544 0.984 . S
N1538 H1545 0.984 . S
N1539 C1532 1.356 . S
N1539 H1542 0.984 . S
N1539 H1543 0.985 . S
H1540 N1535 0.984 . S
H1541 N1535 0.985 . S
H1542 N1539 0.984 . S
H1543 N1539 0.985 . S
H1544 N1538 0.984 . S
H1545 N1538 0.984 . S
H1546 N1534 0.984 . S
H1547 N1534 0.985 . S
C1548 C1549 1.363 . S
C1548 C1554 1.379 . S
C1548 N1556 1.356 . S
C1549 C1548 1.363 . S
C1549 C1555 1.363 . S
C1550 C1551 1.363 . S
C1550 C1555 1.379 . S
C1550 N1557 1.356 . S
C1551 C1550 1.363 . S
C1551 C1554 1.363 . S
N1552 C1554 1.356 . S
N1552 H1564 0.984 . S
N1552 H1565 0.985 . S
N1553 C1555 1.356 . S
N1553 H1558 0.984 . S
N1553 H1559 0.987 1_556 S
C1554 C1548 1.379 . S
C1554 C1551 1.363 . S
C1554 N1552 1.356 . S
C1555 C1549 1.363 . S
C1555 C1550 1.379 . S
C1555 N1553 1.356 . S
N1556 C1548 1.356 . S
N1556 H1562 0.984 . S
N1556 H1563 0.984 . S
N1557 C1550 1.356 . S
N1557 H1560 0.984 . S
N1557 H1561 0.987 1_556 S
H1558 N1553 0.984 . S
H1559 N1553 0.987 1_554 S
H1560 N1557 0.984 . S
H1561 N1557 0.987 1_554 S
H1562 N1556 0.984 . S
H1563 N1556 0.984 . S
H1564 N1552 0.984 . S
H1565 N1552 0.985 . S
C1566 C1567 1.363 . S
C1566 C1572 1.379 1_455 S
C1566 N1574 1.356 . S
C1567 C1566 1.363 . S
C1567 C1573 1.363 . S
C1568 C1569 1.363 . S
C1568 C1573 1.379 1_655 S
C1568 N1575 1.356 . S
C1569 C1568 1.363 . S
C1569 C1572 1.363 . S
N1570 C1572 1.356 . S
N1570 H1582 0.984 . S
N1570 H1583 0.985 . S
N1571 C1573 1.356 . S
N1571 H1576 0.984 . S
N1571 H1577 0.985 . S
C1572 C1566 1.379 1_655 S
C1572 C1569 1.363 . S
C1572 N1570 1.356 . S
C1573 C1567 1.363 . S
C1573 C1568 1.379 1_455 S
C1573 N1571 1.356 . S
N1574 C1566 1.356 . S
N1574 H1580 0.984 . S
N1574 H1581 0.984 . S
N1575 C1568 1.356 . S
N1575 H1578 0.984 . S
N1575 H1579 0.985 . S
H1576 N1571 0.984 . S
H1577 N1571 0.985 . S
H1578 N1575 0.984 . S
H1579 N1575 0.985 . S
H1580 N1574 0.984 . S
H1581 N1574 0.984 . S
H1582 N1570 0.984 . S
H1583 N1570 0.985 . S
C1584 C1585 1.363 . S
C1584 C1590 1.379 . S
C1584 N1592 1.356 . S
C1585 C1584 1.363 . S
C1585 C1591 1.363 1_655 S
C1586 C1587 1.363 . S
C1586 C1591 1.379 . S
C1586 N1593 1.356 . S
C1587 C1586 1.363 . S
C1587 C1590 1.363 1_455 S
N1588 C1590 1.353 1_455 S
N1588 H1600 0.972 1_456 S
N1588 H1601 1.003 . S
N1589 C1591 1.353 1_655 S
N1589 H1594 1.003 . S
N1589 H1595 0.969 1_655 S
C1590 C1584 1.379 . S
C1590 C1587 1.363 1_655 S
C1590 N1588 1.353 1_655 S
C1591 C1585 1.363 1_455 S
C1591 C1586 1.379 . S
C1591 N1589 1.353 1_455 S
N1592 C1584 1.356 . S
N1592 H1598 0.987 1_556 S
N1592 H1599 0.984 . S
N1593 C1586 1.356 . S
N1593 H1596 0.984 . S
N1593 H1597 0.985 . S
H1594 N1589 1.003 . S
H1595 N1589 0.969 1_455 S
H1596 N1593 0.984 . S
H1597 N1593 0.985 . S
H1598 N1592 0.987 1_554 S
H1599 N1592 0.984 . S
H1600 N1588 0.972 1_654 S
H1601 N1588 1.003 . S
C1602 C1603 1.363 . S
C1602 C1608 1.379 1_655 S
C1602 N1610 1.356 . S
C1603 C1602 1.363 . S
C1603 C1609 1.363 . S
C1604 C1605 1.363 . S
C1604 C1609 1.379 1_455 S
C1604 N1611 1.356 . S
C1605 C1604 1.363 . S
C1605 C1608 1.363 . S
N1606 C1608 1.356 . S
N1606 H1618 0.984 . S
N1606 H1619 0.985 . S
N1607 C1609 1.356 . S
N1607 H1612 0.984 . S
N1607 H1613 0.985 . S
C1608 C1602 1.379 1_455 S
C1608 C1605 1.363 . S
C1608 N1606 1.356 . S
C1609 C1603 1.363 . S
C1609 C1604 1.379 1_655 S
C1609 N1607 1.356 . S
N1610 C1602 1.356 . S
N1610 H1616 0.984 . S
N1610 H1617 0.984 . S
N1611 C1604 1.356 . S
N1611 H1614 0.984 . S
N1611 H1615 0.985 . S
H1612 N1607 0.984 . S
H1613 N1607 0.985 . S
H1614 N1611 0.984 . S
H1615 N1611 0.985 . S
H1616 N1610 0.984 . S
H1617 N1610 0.984 . S
H1618 N1606 0.984 . S
H1619 N1606 0.985 . S
C1620 C1621 1.363 . S
C1620 C1626 1.379 . S
C1620 N1628 1.356 . S
C1621 C1620 1.363 . S
C1621 C1627 1.363 . S
C1622 C1623 1.363 . S
C1622 C1627 1.379 . S
C1622 N1629 1.356 . S
C1623 C1622 1.363 . S
C1623 C1626 1.363 . S
N1624 C1626 1.356 . S
N1624 H1636 0.984 . S
N1624 H1637 0.985 . S
N1625 C1627 1.356 . S
N1625 H1630 0.984 . S
N1625 H1631 0.985 . S
C1626 C1620 1.379 . S
C1626 C1623 1.363 . S
C1626 N1624 1.356 . S
C1627 C1621 1.363 . S
C1627 C1622 1.379 . S
C1627 N1625 1.356 . S
N1628 C1620 1.356 . S
N1628 H1634 0.984 . S
N1628 H1635 0.984 . S
N1629 C1622 1.356 . S
N1629 H1632 0.984 . S
N1629 H1633 0.985 . S
H1630 N1625 0.984 . S
H1631 N1625 0.985 . S
H1632 N1629 0.984 . S
H1633 N1629 0.985 . S
H1634 N1628 0.984 . S
H1635 N1628 0.984 . S
H1636 N1624 0.984 . S
H1637 N1624 0.985 . S
C1638 C1639 1.363 . S
C1638 C1644 1.379 . S
C1638 N1646 1.356 . S
C1639 C1638 1.363 . S
C1639 C1645 1.363 . S
C1640 C1641 1.363 . S
C1640 C1645 1.379 . S
C1640 N1647 1.356 . S
C1641 C1640 1.363 . S
C1641 C1644 1.363 . S
N1642 C1644 1.356 . S
N1642 H1654 0.984 . S
N1642 H1655 0.985 . S
N1643 C1645 1.356 . S
N1643 H1648 0.984 . S
N1643 H1649 0.985 . S
C1644 C1638 1.379 . S
C1644 C1641 1.363 . S
C1644 N1642 1.356 . S
C1645 C1639 1.363 . S
C1645 C1640 1.379 . S
C1645 N1643 1.356 . S
N1646 C1638 1.356 . S
N1646 H1652 0.984 . S
N1646 H1653 0.984 . S
N1647 C1640 1.356 . S
N1647 H1650 0.984 . S
N1647 H1651 0.985 . S
H1648 N1643 0.984 . S
H1649 N1643 0.985 . S
H1650 N1647 0.984 . S
H1651 N1647 0.985 . S
H1652 N1646 0.984 . S
H1653 N1646 0.984 . S
H1654 N1642 0.984 . S
H1655 N1642 0.985 . S
C1656 C1657 1.363 . S
C1656 C1662 1.379 . S
C1656 N1664 1.356 . S
C1657 C1656 1.363 . S
C1657 C1663 1.363 1_655 S
C1658 C1659 1.363 . S
C1658 C1663 1.379 . S
C1658 N1665 1.356 . S
C1659 C1658 1.363 . S
C1659 C1662 1.363 1_455 S
N1660 C1662 1.353 1_455 S
N1660 H1672 0.969 1_455 S
N1660 H1673 1.003 . S
N1661 C1663 1.353 1_655 S
N1661 H1666 1.003 . S
N1661 H1667 0.969 1_655 S
C1662 C1656 1.379 . S
C1662 C1659 1.363 1_655 S
C1662 N1660 1.353 1_655 S
C1663 C1657 1.363 1_455 S
C1663 C1658 1.379 . S
C1663 N1661 1.353 1_455 S
N1664 C1656 1.356 . S
N1664 H1670 0.984 . S
N1664 H1671 0.984 . S
N1665 C1658 1.356 . S
N1665 H1668 0.984 . S
N1665 H1669 0.985 . S
H1666 N1661 1.003 . S
H1667 N1661 0.969 1_455 S
H1668 N1665 0.984 . S
H1669 N1665 0.985 . S
H1670 N1664 0.984 . S
H1671 N1664 0.984 . S
H1672 N1660 0.969 1_655 S
H1673 N1660 1.003 . S
C1674 C1675 1.363 . S
C1674 C1680 1.379 . S
C1674 N1682 1.356 . S
C1675 C1674 1.363 . S
C1675 C1681 1.363 . S
C1676 C1677 1.363 . S
C1676 C1681 1.379 . S
C1676 N1683 1.356 . S
C1677 C1676 1.363 . S
C1677 C1680 1.363 . S
N1678 C1680 1.356 . S
N1678 H1690 0.984 . S
N1678 H1691 0.985 . S
N1679 C1681 1.356 . S
N1679 H1684 0.984 . S
N1679 H1685 0.985 . S
C1680 C1674 1.379 . S
C1680 C1677 1.363 . S
C1680 N1678 1.356 . S
C1681 C1675 1.363 . S
C1681 C1676 1.379 . S
C1681 N1679 1.356 . S
N1682 C1674 1.356 . S
N1682 H1688 0.984 . S
N1682 H1689 0.984 . S
N1683 C1676 1.356 . S
N1683 H1686 0.984 . S
N1683 H1687 0.985 . S
H1684 N1679 0.984 . S
H1685 N1679 0.985 . S
H1686 N1683 0.984 . S
H1687 N1683 0.985 . S
H1688 N1682 0.984 . S
H1689 N1682 0.984 . S
H1690 N1678 0.984 . S
H1691 N1678 0.985 . S
C1692 C1693 1.363 . S
C1692 C1698 1.379 . S
C1692 N1700 1.356 . S
C1693 C1692 1.363 . S
C1693 C1699 1.363 . S
C1694 C1695 1.363 . S
C1694 C1699 1.379 . S
C1694 N1701 1.356 . S
C1695 C1694 1.363 . S
C1695 C1698 1.363 . S
N1696 C1698 1.356 . S
N1696 H1708 0.987 1_554 S
N1696 H1709 0.985 . S
N1697 C1699 1.356 . S
N1697 H1702 0.984 . S
N1697 H1703 0.985 . S
C1698 C1692 1.379 . S
C1698 C1695 1.363 . S
C1698 N1696 1.356 . S
C1699 C1693 1.363 . S
C1699 C1694 1.379 . S
C1699 N1697 1.356 . S
N1700 C1692 1.356 . S
N1700 H1706 0.987 1_554 S
N1700 H1707 0.984 . S
N1701 C1694 1.356 . S
N1701 H1704 0.984 . S
N1701 H1705 0.985 . S
H1702 N1697 0.984 . S
H1703 N1697 0.985 . S
H1704 N1701 0.984 . S
H1705 N1701 0.985 . S
H1706 N1700 0.987 1_556 S
H1707 N1700 0.984 . S
H1708 N1696 0.987 1_556 S
H1709 N1696 0.985 . S
C1710 C1711 1.363 . S
C1710 C1716 1.379 1_655 S
C1710 N1718 1.356 . S
C1711 C1710 1.363 . S
C1711 C1717 1.363 . S
C1712 C1713 1.363 . S
C1712 C1717 1.379 1_455 S
C1712 N1719 1.356 . S
C1713 C1712 1.363 . S
C1713 C1716 1.363 . S
N1714 C1716 1.356 . S
N1714 H1726 0.984 . S
N1714 H1727 0.985 . S
N1715 C1717 1.356 . S
N1715 H1720 0.984 . S
N1715 H1721 0.985 . S
C1716 C1710 1.379 1_455 S
C1716 C1713 1.363 . S
C1716 N1714 1.356 . S
C1717 C1711 1.363 . S
C1717 C1712 1.379 1_655 S
C1717 N1715 1.356 . S
N1718 C1710 1.356 . S
N1718 H1724 0.984 . S
N1718 H1725 0.984 . S
N1719 C1712 1.356 . S
N1719 H1722 0.984 . S
N1719 H1723 0.985 . S
H1720 N1715 0.984 . S
H1721 N1715 0.985 . S
H1722 N1719 0.984 . S
H1723 N1719 0.985 . S
H1724 N1718 0.984 . S
H1725 N1718 0.984 . S
H1726 N1714 0.984 . S
H1727 N1714 0.985 . S
C1728 C1729 1.363 1_554 S
C1728 C1734 1.379 . S
C1728 N1736 1.356 . S
C1729 C1728 1.363 1_556 S
C1729 C1735 1.363 . S
C1730 C1731 1.363 1_556 S
C1730 C1735 1.379 . S
C1730 N1737 1.356 . S
C1731 C1730 1.363 1_554 S
C1731 C1734 1.363 . S
N1732 C1734 1.356 . S
N1732 H1744 0.984 . S
N1732 H1745 0.985 . S
N1733 C1735 1.356 . S
N1733 H1738 0.984 . S
N1733 H1739 0.985 . S
C1734 C1728 1.379 . S
C1734 C1731 1.363 . S
C1734 N1732 1.356 . S
C1735 C1729 1.363 . S
C1735 C1730 1.379 . S
C1735 N1733 1.356 . S
N1736 C1728 1.356 . S
N1736 H1742 0.984 . S
N1736 H1743 0.984 1_554 S
N1737 C1730 1.356 . S
N1737 H1740 0.984 1_556 S
N1737 H1741 0.985 . S
H1738 N1733 0.984 . S
H1739 N1733 0.985 . S
H1740 N1737 0.984 1_554 S
H1741 N1737 0.985 . S
H1742 N1736 0.984 . S
H1743 N1736 0.984 1_556 S
H1744 N1732 0.984 . S
H1745 N1732 0.985 . S
C1746 C1747 1.363 . S
C1746 C1752 1.379 1_545 S
C1746 N1754 1.356 . S
C1747 C1746 1.363 . S
C1747 C1753 1.363 . S
C1748 C1749 1.363 . S
C1748 C1753 1.379 1_565 S
C1748 N1755 1.356 . S
C1749 C1748 1.363 . S
C1749 C1752 1.363 . S
N1750 C1752 1.356 . S
N1750 H1762 0.984 1_565 S
N1750 H1763 0.985 . S
N1751 C1753 1.356 . S
N1751 H1756 0.984 . S
N1751 H1757 0.985 1_545 S
C1752 C1746 1.379 1_565 S
C1752 C1749 1.363 . S
C1752 N1750 1.356 . S
C1753 C1747 1.363 . S
C1753 C1748 1.379 1_545 S
C1753 N1751 1.356 . S
N1754 C1746 1.356 . S
N1754 H1760 0.984 . S
N1754 H1761 0.984 . S
N1755 C1748 1.356 . S
N1755 H1758 0.984 . S
N1755 H1759 0.985 . S
H1756 N1751 0.984 . S
H1757 N1751 0.985 1_565 S
H1758 N1755 0.984 . S
H1759 N1755 0.985 . S
H1760 N1754 0.984 . S
H1761 N1754 0.984 . S
H1762 N1750 0.984 1_545 S
H1763 N1750 0.985 . S
C1764 C1765 1.363 . S
C1764 C1770 1.379 . S
C1764 N1772 1.356 . S
C1765 C1764 1.363 . S
C1765 C1771 1.363 . S
C1766 C1767 1.363 . S
C1766 C1771 1.379 . S
C1766 N1773 1.356 . S
C1767 C1766 1.363 . S
C1767 C1770 1.363 . S
N1768 C1770 1.356 . S
N1768 H1780 0.984 . S
N1768 H1781 0.985 . S
N1769 C1771 1.356 . S
N1769 H1774 0.984 . S
N1769 H1775 0.985 . S
C1770 C1764 1.379 . S
C1770 C1767 1.363 . S
C1770 N1768 1.356 . S
C1771 C1765 1.363 . S
C1771 C1766 1.379 . S
C1771 N1769 1.356 . S
N1772 C1764 1.356 . S
N1772 H1778 0.984 . S
N1772 H1779 0.984 . S
N1773 C1766 1.356 . S
N1773 H1776 0.984 . S
N1773 H1777 0.985 . S
H1774 N1769 0.984 . S
H1775 N1769 0.985 . S
H1776 N1773 0.984 . S
H1777 N1773 0.985 . S
H1778 N1772 0.984 . S
H1779 N1772 0.984 . S
H1780 N1768 0.984 . S
H1781 N1768 0.985 . S
C1782 C1783 1.363 . S
C1782 C1788 1.368 1_545 S
C1782 N1790 1.356 . S
C1783 C1782 1.363 . S
C1783 C1789 1.374 . S
C1784 C1785 1.363 . S
C1784 C1789 1.368 1_565 S
C1784 N1791 1.356 . S
C1785 C1784 1.363 . S
C1785 C1788 1.374 . S
N1786 C1788 1.360 . S
N1786 H1798 0.984 1_565 S
N1786 H1799 0.985 . S
N1787 C1789 1.360 . S
N1787 H1792 0.984 . S
N1787 H1793 0.985 1_545 S
C1788 C1782 1.368 1_565 S
C1788 C1785 1.374 . S
C1788 N1786 1.360 . S
C1789 C1783 1.374 . S
C1789 C1784 1.368 1_545 S
C1789 N1787 1.360 . S
N1790 C1782 1.356 . S
N1790 H1796 0.984 . S
N1790 H1797 0.984 . S
N1791 C1784 1.356 . S
N1791 H1794 0.984 . S
N1791 H1795 0.985 . S
H1792 N1787 0.984 . S
H1793 N1787 0.985 1_565 S
H1794 N1791 0.984 . S
H1795 N1791 0.985 . S
H1796 N1790 0.984 . S
H1797 N1790 0.984 . S
H1798 N1786 0.984 1_545 S
H1799 N1786 0.985 . S
C1800 C1801 1.363 1_556 S
C1800 C1806 1.379 . S
C1800 N1808 1.356 . S
C1801 C1800 1.363 1_554 S
C1801 C1807 1.363 . S
C1802 C1803 1.363 1_554 S
C1802 C1807 1.379 . S
C1802 N1809 1.356 . S
C1803 C1802 1.363 1_556 S
C1803 C1806 1.363 . S
N1804 C1806 1.356 . S
N1804 H1816 0.984 . S
N1804 H1817 0.985 . S
N1805 C1807 1.356 . S
N1805 H1810 0.984 . S
N1805 H1811 0.985 . S
C1806 C1800 1.379 . S
C1806 C1803 1.363 . S
C1806 N1804 1.356 . S
C1807 C1801 1.363 . S
C1807 C1802 1.379 . S
C1807 N1805 1.356 . S
N1808 C1800 1.356 . S
N1808 H1814 0.984 . S
N1808 H1815 0.984 1_556 S
N1809 C1802 1.356 . S
N1809 H1812 0.984 1_554 S
N1809 H1813 0.985 . S
H1810 N1805 0.984 . S
H1811 N1805 0.985 . S
H1812 N1809 0.984 1_556 S
H1813 N1809 0.985 . S
H1814 N1808 0.984 . S
H1815 N1808 0.984 1_554 S
H1816 N1804 0.984 . S
H1817 N1804 0.985 . S
C1818 C1819 1.363 . S
C1818 C1824 1.379 1_565 S
C1818 N1826 1.356 . S
C1819 C1818 1.363 . S
C1819 C1825 1.363 . S
C1820 C1821 1.363 . S
C1820 C1825 1.379 1_545 S
C1820 N1827 1.356 . S
C1821 C1820 1.363 . S
C1821 C1824 1.363 . S
N1822 C1824 1.356 . S
N1822 H1834 0.984 . S
N1822 H1835 0.985 . S
N1823 C1825 1.356 . S
N1823 H1828 0.984 . S
N1823 H1829 0.985 . S
C1824 C1818 1.379 1_545 S
C1824 C1821 1.363 . S
C1824 N1822 1.356 . S
C1825 C1819 1.363 . S
C1825 C1820 1.379 1_565 S
C1825 N1823 1.356 . S
N1826 C1818 1.356 . S
N1826 H1832 0.984 . S
N1826 H1833 0.984 . S
N1827 C1820 1.356 . S
N1827 H1830 0.984 . S
N1827 H1831 0.985 . S
H1828 N1823 0.984 . S
H1829 N1823 0.985 . S
H1830 N1827 0.984 . S
H1831 N1827 0.985 . S
H1832 N1826 0.984 . S
H1833 N1826 0.984 . S
H1834 N1822 0.984 . S
H1835 N1822 0.985 . S
C1836 C1837 1.363 . S
C1836 C1842 1.379 . S
C1836 N1844 1.356 . S
C1837 C1836 1.363 . S
C1837 C1843 1.363 . S
C1838 C1839 1.363 . S
C1838 C1843 1.379 . S
C1838 N1845 1.356 . S
C1839 C1838 1.363 . S
C1839 C1842 1.363 . S
N1840 C1842 1.356 . S
N1840 H1852 0.984 . S
N1840 H1853 0.985 . S
N1841 C1843 1.356 . S
N1841 H1846 0.984 . S
N1841 H1847 0.985 . S
C1842 C1836 1.379 . S
C1842 C1839 1.363 . S
C1842 N1840 1.356 . S
C1843 C1837 1.363 . S
C1843 C1838 1.379 . S
C1843 N1841 1.356 . S
N1844 C1836 1.356 . S
N1844 H1850 0.984 . S
N1844 H1851 0.984 . S
N1845 C1838 1.356 . S
N1845 H1848 0.984 . S
N1845 H1849 0.985 . S
H1846 N1841 0.984 . S
H1847 N1841 0.985 . S
H1848 N1845 0.984 . S
H1849 N1845 0.985 . S
H1850 N1844 0.984 . S
H1851 N1844 0.984 . S
H1852 N1840 0.984 . S
H1853 N1840 0.985 . S
C1854 C1855 1.363 . S
C1854 C1860 1.379 1_545 S
C1854 N1862 1.356 . S
C1855 C1854 1.363 . S
C1855 C1861 1.363 . S
C1856 C1857 1.363 . S
C1856 C1861 1.379 1_565 S
C1856 N1863 1.356 . S
C1857 C1856 1.363 . S
C1857 C1860 1.363 . S
N1858 C1860 1.356 . S
N1858 H1870 0.984 . S
N1858 H1871 0.985 . S
N1859 C1861 1.356 . S
N1859 H1864 0.984 . S
N1859 H1865 0.985 . S
C1860 C1854 1.379 1_565 S
C1860 C1857 1.363 . S
C1860 N1858 1.356 . S
C1861 C1855 1.363 . S
C1861 C1856 1.379 1_545 S
C1861 N1859 1.356 . S
N1862 C1854 1.356 . S
N1862 H1868 0.984 . S
N1862 H1869 0.984 . S
N1863 C1856 1.356 . S
N1863 H1866 0.984 . S
N1863 H1867 0.985 . S
H1864 N1859 0.984 . S
H1865 N1859 0.985 . S
H1866 N1863 0.984 . S
H1867 N1863 0.985 . S
H1868 N1862 0.984 . S
H1869 N1862 0.984 . S
H1870 N1858 0.984 . S
H1871 N1858 0.985 . S
C1872 C1873 1.363 . S
C1872 C1878 1.379 . S
C1872 N1880 1.356 . S
C1873 C1872 1.363 . S
C1873 C1879 1.363 . S
C1874 C1875 1.363 . S
C1874 C1879 1.379 . S
C1874 N1881 1.356 . S
C1875 C1874 1.363 . S
C1875 C1878 1.363 . S
N1876 C1878 1.356 . S
N1876 H1888 0.984 . S
N1876 H1889 0.985 . S
N1877 C1879 1.356 . S
N1877 H1882 0.984 . S
N1877 H1883 0.985 . S
C1878 C1872 1.379 . S
C1878 C1875 1.363 . S
C1878 N1876 1.356 . S
C1879 C1873 1.363 . S
C1879 C1874 1.379 . S
C1879 N1877 1.356 . S
N1880 C1872 1.356 . S
N1880 H1886 0.984 . S
N1880 H1887 0.984 . S
N1881 C1874 1.356 . S
N1881 H1884 0.984 . S
N1881 H1885 0.985 . S
H1882 N1877 0.984 . S
H1883 N1877 0.985 . S
H1884 N1881 0.984 . S
H1885 N1881 0.985 . S
H1886 N1880 0.984 . S
H1887 N1880 0.984 . S
H1888 N1876 0.984 . S
H1889 N1876 0.985 . S
C1890 C1891 1.363 . S
C1890 C1896 1.379 . S
C1890 N1898 1.356 . S
C1891 C1890 1.363 . S
C1891 C1897 1.363 . S
C1892 C1893 1.363 . S
C1892 C1897 1.379 . S
C1892 N1899 1.356 . S
C1893 C1892 1.363 . S
C1893 C1896 1.363 . S
N1894 C1896 1.356 . S
N1894 H1906 0.984 . S
N1894 H1907 0.985 . S
N1895 C1897 1.356 . S
N1895 H1900 0.984 . S
N1895 H1901 0.985 . S
C1896 C1890 1.379 . S
C1896 C1893 1.363 . S
C1896 N1894 1.356 . S
C1897 C1891 1.363 . S
C1897 C1892 1.379 . S
C1897 N1895 1.356 . S
N1898 C1890 1.356 . S
N1898 H1904 0.984 . S
N1898 H1905 0.984 . S
N1899 C1892 1.356 . S
N1899 H1902 0.984 . S
N1899 H1903 0.985 . S
H1900 N1895 0.984 . S
H1901 N1895 0.985 . S
H1902 N1899 0.984 . S
H1903 N1899 0.985 . S
H1904 N1898 0.984 . S
H1905 N1898 0.984 . S
H1906 N1894 0.984 . S
H1907 N1894 0.985 . S
C1908 C1909 1.363 1_556 S
C1908 C1914 1.379 . S
C1908 N1916 1.356 . S
C1909 C1908 1.363 1_554 S
C1909 C1915 1.363 . S
C1910 C1911 1.363 1_554 S
C1910 C1915 1.379 . S
C1910 N1917 1.356 . S
C1911 C1910 1.363 1_556 S
C1911 C1914 1.363 . S
N1912 C1914 1.356 . S
N1912 H1924 0.984 . S
N1912 H1925 0.985 . S
N1913 C1915 1.356 . S
N1913 H1918 0.984 . S
N1913 H1919 0.985 . S
C1914 C1908 1.379 . S
C1914 C1911 1.363 . S
C1914 N1912 1.356 . S
C1915 C1909 1.363 . S
C1915 C1910 1.379 . S
C1915 N1913 1.356 . S
N1916 C1908 1.356 . S
N1916 H1922 0.984 . S
N1916 H1923 0.984 1_556 S
N1917 C1910 1.356 . S
N1917 H1920 0.984 1_554 S
N1917 H1921 0.985 . S
H1918 N1913 0.984 . S
H1919 N1913 0.985 . S
H1920 N1917 0.984 1_556 S
H1921 N1917 0.985 . S
H1922 N1916 0.984 . S
H1923 N1916 0.984 1_554 S
H1924 N1912 0.984 . S
H1925 N1912 0.985 . S
C1926 C1927 1.363 . S
C1926 C1932 1.379 . S
C1926 N1934 1.356 . S
C1927 C1926 1.363 . S
C1927 C1933 1.363 . S
C1928 C1929 1.363 . S
C1928 C1933 1.379 . S
C1928 N1935 1.356 . S
C1929 C1928 1.363 . S
C1929 C1932 1.363 . S
N1930 C1932 1.356 . S
N1930 H1942 0.984 . S
N1930 H1943 0.985 . S
N1931 C1933 1.356 . S
N1931 H1936 0.984 . S
N1931 H1937 0.985 . S
C1932 C1926 1.379 . S
C1932 C1929 1.363 . S
C1932 N1930 1.356 . S
C1933 C1927 1.363 . S
C1933 C1928 1.379 . S
C1933 N1931 1.356 . S
N1934 C1926 1.356 . S
N1934 H1940 0.984 . S
N1934 H1941 0.984 . S
N1935 C1928 1.356 . S
N1935 H1938 0.984 . S
N1935 H1939 0.985 . S
H1936 N1931 0.984 . S
H1937 N1931 0.985 . S
H1938 N1935 0.984 . S
H1939 N1935 0.985 . S
H1940 N1934 0.984 . S
H1941 N1934 0.984 . S
H1942 N1930 0.984 . S
H1943 N1930 0.985 . S
C1944 C1945 1.363 . S
C1944 C1950 1.379 . S
C1944 N1952 1.356 . S
C1945 C1944 1.363 . S
C1945 C1951 1.363 . S
C1946 C1947 1.363 . S
C1946 C1951 1.379 . S
C1946 N1953 1.356 . S
C1947 C1946 1.363 . S
C1947 C1950 1.363 . S
N1948 C1950 1.356 . S
N1948 H1960 0.984 . S
N1948 H1961 0.985 . S
N1949 C1951 1.356 . S
N1949 H1954 0.984 . S
N1949 H1955 0.985 . S
C1950 C1944 1.379 . S
C1950 C1947 1.363 . S
C1950 N1948 1.356 . S
C1951 C1945 1.363 . S
C1951 C1946 1.379 . S
C1951 N1949 1.356 . S
N1952 C1944 1.356 . S
N1952 H1958 0.984 . S
N1952 H1959 0.984 . S
N1953 C1946 1.356 . S
N1953 H1956 0.984 . S
N1953 H1957 0.985 . S
H1954 N1949 0.984 . S
H1955 N1949 0.985 . S
H1956 N1953 0.984 . S
H1957 N1953 0.985 . S
H1958 N1952 0.984 . S
H1959 N1952 0.984 . S
H1960 N1948 0.984 . S
H1961 N1948 0.985 . S
C1962 C1963 1.363 . S
C1962 C1968 1.379 . S
C1962 N1970 1.356 . S
C1963 C1962 1.363 . S
C1963 C1969 1.363 . S
C1964 C1965 1.363 . S
C1964 C1969 1.379 . S
C1964 N1971 1.356 . S
C1965 C1964 1.363 . S
C1965 C1968 1.363 . S
N1966 C1968 1.356 . S
N1966 H1978 0.984 . S
N1966 H1979 0.985 . S
N1967 C1969 1.356 . S
N1967 H1972 0.984 . S
N1967 H1973 0.985 . S
C1968 C1962 1.379 . S
C1968 C1965 1.363 . S
C1968 N1966 1.356 . S
C1969 C1963 1.363 . S
C1969 C1964 1.379 . S
C1969 N1967 1.356 . S
N1970 C1962 1.356 . S
N1970 H1976 0.984 . S
N1970 H1977 0.984 . S
N1971 C1964 1.356 . S
N1971 H1974 0.984 . S
N1971 H1975 0.985 . S
H1972 N1967 0.984 . S
H1973 N1967 0.985 . S
H1974 N1971 0.984 . S
H1975 N1971 0.985 . S
H1976 N1970 0.984 . S
H1977 N1970 0.984 . S
H1978 N1966 0.984 . S
H1979 N1966 0.985 . S
C1980 C1981 1.363 1_554 S
C1980 C1986 1.379 . S
C1980 N1988 1.356 . S
C1981 C1980 1.363 1_556 S
C1981 C1987 1.363 . S
C1982 C1983 1.363 1_556 S
C1982 C1987 1.379 . S
C1982 N1989 1.356 . S
C1983 C1982 1.363 1_554 S
C1983 C1986 1.363 . S
N1984 C1986 1.356 . S
N1984 H1996 0.984 . S
N1984 H1997 0.985 . S
N1985 C1987 1.356 . S
N1985 H1990 0.984 . S
N1985 H1991 0.985 . S
C1986 C1980 1.379 . S
C1986 C1983 1.363 . S
C1986 N1984 1.356 . S
C1987 C1981 1.363 . S
C1987 C1982 1.379 . S
C1987 N1985 1.356 . S
N1988 C1980 1.356 . S
N1988 H1994 0.984 . S
N1988 H1995 0.984 1_554 S
N1989 C1982 1.356 . S
N1989 H1992 0.984 1_556 S
N1989 H1993 0.985 . S
H1990 N1985 0.984 . S
H1991 N1985 0.985 . S
H1992 N1989 0.984 1_554 S
H1993 N1989 0.985 . S
H1994 N1988 0.984 . S
H1995 N1988 0.984 1_556 S
H1996 N1984 0.984 . S
H1997 N1984 0.985 . S
C1998 C1999 1.363 . S
C1998 C2004 1.379 . S
C1998 N2006 1.356 . S
C1999 C1998 1.363 . S
C1999 C2005 1.363 . S
C2000 C2001 1.363 . S
C2000 C2005 1.379 . S
C2000 N2007 1.356 . S
C2001 C2000 1.363 . S
C2001 C2004 1.363 . S
N2002 C2004 1.356 . S
N2002 H2014 0.984 . S
N2002 H2015 0.985 . S
N2003 C2005 1.356 . S
N2003 H2008 0.984 . S
N2003 H2009 0.985 . S
C2004 C1998 1.379 . S
C2004 C2001 1.363 . S
C2004 N2002 1.356 . S
C2005 C1999 1.363 . S
C2005 C2000 1.379 . S
C2005 N2003 1.356 . S
N2006 C1998 1.356 . S
N2006 H2012 0.984 . S
N2006 H2013 0.984 . S
N2007 C2000 1.356 . S
N2007 H2010 0.984 . S
N2007 H2011 0.985 . S
H2008 N2003 0.984 . S
H2009 N2003 0.985 . S
H2010 N2007 0.984 . S
H2011 N2007 0.985 . S
H2012 N2006 0.984 . S
H2013 N2006 0.984 . S
H2014 N2002 0.984 . S
H2015 N2002 0.985 . S
C2016 C2017 1.363 . S
C2016 C2022 1.379 . S
C2016 N2024 1.356 . S
C2017 C2016 1.363 . S
C2017 C2023 1.363 . S
C2018 C2019 1.363 . S
C2018 C2023 1.379 . S
C2018 N2025 1.356 . S
C2019 C2018 1.363 . S
C2019 C2022 1.363 . S
N2020 C2022 1.356 . S
N2020 H2032 0.984 . S
N2020 H2033 0.985 . S
N2021 C2023 1.356 . S
N2021 H2026 0.984 . S
N2021 H2027 0.985 . S
C2022 C2016 1.379 . S
C2022 C2019 1.363 . S
C2022 N2020 1.356 . S
C2023 C2017 1.363 . S
C2023 C2018 1.379 . S
C2023 N2021 1.356 . S
N2024 C2016 1.356 . S
N2024 H2030 0.984 . S
N2024 H2031 0.984 . S
N2025 C2018 1.356 . S
N2025 H2028 0.984 . S
N2025 H2029 0.985 . S
H2026 N2021 0.984 . S
H2027 N2021 0.985 . S
H2028 N2025 0.984 . S
H2029 N2025 0.985 . S
H2030 N2024 0.984 . S
H2031 N2024 0.984 . S
H2032 N2020 0.984 . S
H2033 N2020 0.985 . S
C2034 C2035 1.363 . S
C2034 C2040 1.379 . S
C2034 N2042 1.356 . S
C2035 C2034 1.363 . S
C2035 C2041 1.363 . S
C2036 C2037 1.363 . S
C2036 C2041 1.379 . S
C2036 N2043 1.356 . S
C2037 C2036 1.363 . S
C2037 C2040 1.363 . S
N2038 C2040 1.356 . S
N2038 H2050 0.984 . S
N2038 H2051 0.985 . S
N2039 C2041 1.356 . S
N2039 H2044 0.984 . S
N2039 H2045 0.985 . S
C2040 C2034 1.379 . S
C2040 C2037 1.363 . S
C2040 N2038 1.356 . S
C2041 C2035 1.363 . S
C2041 C2036 1.379 . S
C2041 N2039 1.356 . S
N2042 C2034 1.356 . S
N2042 H2048 0.984 . S
N2042 H2049 0.984 . S
N2043 C2036 1.356 . S
N2043 H2046 0.984 . S
N2043 H2047 0.985 . S
H2044 N2039 0.984 . S
H2045 N2039 0.985 . S
H2046 N2043 0.984 . S
H2047 N2043 0.985 . S
H2048 N2042 0.984 . S
H2049 N2042 0.984 . S
H2050 N2038 0.984 . S
H2051 N2038 0.985 . S
C2052 C2053 1.363 . S
C2052 C2058 1.379 . S
C2052 N2060 1.356 . S
C2053 C2052 1.363 . S
C2053 C2059 1.363 . S
C2054 C2055 1.363 . S
C2054 C2059 1.379 . S
C2054 N2061 1.356 . S
C2055 C2054 1.363 . S
C2055 C2058 1.363 . S
N2056 C2058 1.356 . S
N2056 H2068 0.984 . S
N2056 H2069 0.985 . S
N2057 C2059 1.356 . S
N2057 H2062 0.984 . S
N2057 H2063 0.985 . S
C2058 C2052 1.379 . S
C2058 C2055 1.363 . S
C2058 N2056 1.356 . S
C2059 C2053 1.363 . S
C2059 C2054 1.379 . S
C2059 N2057 1.356 . S
N2060 C2052 1.356 . S
N2060 H2066 0.984 . S
N2060 H2067 0.984 . S
N2061 C2054 1.356 . S
N2061 H2064 0.984 . S
N2061 H2065 0.985 . S
H2062 N2057 0.984 . S
H2063 N2057 0.985 . S
H2064 N2061 0.984 . S
H2065 N2061 0.985 . S
H2066 N2060 0.984 . S
H2067 N2060 0.984 . S
H2068 N2056 0.984 . S
H2069 N2056 0.985 . S
C2070 C2071 1.363 . S
C2070 C2076 1.379 . S
C2070 N2078 1.356 . S
C2071 C2070 1.363 . S
C2071 C2077 1.363 . S
C2072 C2073 1.363 . S
C2072 C2077 1.379 . S
C2072 N2079 1.356 . S
C2073 C2072 1.363 . S
C2073 C2076 1.363 . S
N2074 C2076 1.356 . S
N2074 H2086 0.984 . S
N2074 H2087 0.985 . S
N2075 C2077 1.356 . S
N2075 H2080 0.984 . S
N2075 H2081 0.985 . S
C2076 C2070 1.379 . S
C2076 C2073 1.363 . S
C2076 N2074 1.356 . S
C2077 C2071 1.363 . S
C2077 C2072 1.379 . S
C2077 N2075 1.356 . S
N2078 C2070 1.356 . S
N2078 H2084 0.984 . S
N2078 H2085 0.984 . S
N2079 C2072 1.356 . S
N2079 H2082 0.984 . S
N2079 H2083 0.985 . S
H2080 N2075 0.984 . S
H2081 N2075 0.985 . S
H2082 N2079 0.984 . S
H2083 N2079 0.985 . S
H2084 N2078 0.984 . S
H2085 N2078 0.984 . S
H2086 N2074 0.984 . S
H2087 N2074 0.985 . S
C2088 C2089 1.363 . S
C2088 C2094 1.379 . S
C2088 N2096 1.356 . S
C2089 C2088 1.363 . S
C2089 C2095 1.363 . S
C2090 C2091 1.363 . S
C2090 C2095 1.379 . S
C2090 N2097 1.356 . S
C2091 C2090 1.363 . S
C2091 C2094 1.363 . S
N2092 C2094 1.356 . S
N2092 H2104 0.984 . S
N2092 H2105 0.985 . S
N2093 C2095 1.356 . S
N2093 H2098 0.984 . S
N2093 H2099 0.985 . S
C2094 C2088 1.379 . S
C2094 C2091 1.363 . S
C2094 N2092 1.356 . S
C2095 C2089 1.363 . S
C2095 C2090 1.379 . S
C2095 N2093 1.356 . S
N2096 C2088 1.356 . S
N2096 H2102 0.984 . S
N2096 H2103 0.984 . S
N2097 C2090 1.356 . S
N2097 H2100 0.984 . S
N2097 H2101 0.985 . S
H2098 N2093 0.984 . S
H2099 N2093 0.985 . S
H2100 N2097 0.984 . S
H2101 N2097 0.985 . S
H2102 N2096 0.984 . S
H2103 N2096 0.984 . S
H2104 N2092 0.984 . S
H2105 N2092 0.985 . S
C2106 C2107 1.363 . S
C2106 C2112 1.379 . S
C2106 N2114 1.356 . S
C2107 C2106 1.363 . S
C2107 C2113 1.363 . S
C2108 C2109 1.363 . S
C2108 C2113 1.379 . S
C2108 N2115 1.356 . S
C2109 C2108 1.363 . S
C2109 C2112 1.363 . S
N2110 C2112 1.356 . S
N2110 H2122 0.984 . S
N2110 H2123 0.985 . S
N2111 C2113 1.356 . S
N2111 H2116 0.984 . S
N2111 H2117 0.985 . S
C2112 C2106 1.379 . S
C2112 C2109 1.363 . S
C2112 N2110 1.356 . S
C2113 C2107 1.363 . S
C2113 C2108 1.379 . S
C2113 N2111 1.356 . S
N2114 C2106 1.356 . S
N2114 H2120 0.984 . S
N2114 H2121 0.984 . S
N2115 C2108 1.356 . S
N2115 H2118 0.984 . S
N2115 H2119 0.985 . S
H2116 N2111 0.984 . S
H2117 N2111 0.985 . S
H2118 N2115 0.984 . S
H2119 N2115 0.985 . S
H2120 N2114 0.984 . S
H2121 N2114 0.984 . S
H2122 N2110 0.984 . S
H2123 N2110 0.985 . S
C2124 C2125 1.363 . S
C2124 C2130 1.379 . S
C2124 N2132 1.356 . S
C2125 C2124 1.363 . S
C2125 C2131 1.363 . S
C2126 C2127 1.363 . S
C2126 C2131 1.379 . S
C2126 N2133 1.356 . S
C2127 C2126 1.363 . S
C2127 C2130 1.363 . S
N2128 C2130 1.356 . S
N2128 H2140 0.984 . S
N2128 H2141 0.985 . S
N2129 C2131 1.356 . S
N2129 H2134 0.984 . S
N2129 H2135 0.985 . S
C2130 C2124 1.379 . S
C2130 C2127 1.363 . S
C2130 N2128 1.356 . S
C2131 C2125 1.363 . S
C2131 C2126 1.379 . S
C2131 N2129 1.356 . S
N2132 C2124 1.356 . S
N2132 H2138 0.984 . S
N2132 H2139 0.984 . S
N2133 C2126 1.356 . S
N2133 H2136 0.984 . S
N2133 H2137 0.985 . S
H2134 N2129 0.984 . S
H2135 N2129 0.985 . S
H2136 N2133 0.984 . S
H2137 N2133 0.985 . S
H2138 N2132 0.984 . S
H2139 N2132 0.984 . S
H2140 N2128 0.984 . S
H2141 N2128 0.985 . S
C2142 C2143 1.363 . S
C2142 C2148 1.379 . S
C2142 N2150 1.356 . S
C2143 C2142 1.363 . S
C2143 C2149 1.363 . S
C2144 C2145 1.363 . S
C2144 C2149 1.379 . S
C2144 N2151 1.356 . S
C2145 C2144 1.363 . S
C2145 C2148 1.363 . S
N2146 C2148 1.356 . S
N2146 H2158 0.984 . S
N2146 H2159 0.985 . S
N2147 C2149 1.356 . S
N2147 H2152 0.984 . S
N2147 H2153 0.985 . S
C2148 C2142 1.379 . S
C2148 C2145 1.363 . S
C2148 N2146 1.356 . S
C2149 C2143 1.363 . S
C2149 C2144 1.379 . S
C2149 N2147 1.356 . S
N2150 C2142 1.356 . S
N2150 H2156 0.984 . S
N2150 H2157 0.984 . S
N2151 C2144 1.356 . S
N2151 H2154 0.984 . S
N2151 H2155 0.985 . S
H2152 N2147 0.984 . S
H2153 N2147 0.985 . S
H2154 N2151 0.984 . S
H2155 N2151 0.985 . S
H2156 N2150 0.984 . S
H2157 N2150 0.984 . S
H2158 N2146 0.984 . S
H2159 N2146 0.985 . S
C2160 C2161 1.363 . S
C2160 C2166 1.379 . S
C2160 N2168 1.356 . S
C2161 C2160 1.363 . S
C2161 C2167 1.363 . S
C2162 C2163 1.363 . S
C2162 C2167 1.379 . S
C2162 N2169 1.356 . S
C2163 C2162 1.363 . S
C2163 C2166 1.363 . S
N2164 C2166 1.356 . S
N2164 H2176 0.984 . S
N2164 H2177 0.985 . S
N2165 C2167 1.356 . S
N2165 H2170 0.984 . S
N2165 H2171 0.985 . S
C2166 C2160 1.379 . S
C2166 C2163 1.363 . S
C2166 N2164 1.356 . S
C2167 C2161 1.363 . S
C2167 C2162 1.379 . S
C2167 N2165 1.356 . S
N2168 C2160 1.356 . S
N2168 H2174 0.984 . S
N2168 H2175 0.984 . S
N2169 C2162 1.356 . S
N2169 H2172 0.984 . S
N2169 H2173 0.985 . S
H2170 N2165 0.984 . S
H2171 N2165 0.985 . S
H2172 N2169 0.984 . S
H2173 N2169 0.985 . S
H2174 N2168 0.984 . S
H2175 N2168 0.984 . S
H2176 N2164 0.984 . S
H2177 N2164 0.985 . S
C2178 C2179 1.363 . S
C2178 C2184 1.379 . S
C2178 N2186 1.356 . S
C2179 C2178 1.363 . S
C2179 C2185 1.363 . S
C2180 C2181 1.363 . S
C2180 C2185 1.379 . S
C2180 N2187 1.356 . S
C2181 C2180 1.363 . S
C2181 C2184 1.363 . S
N2182 C2184 1.356 . S
N2182 H2194 0.984 . S
N2182 H2195 0.985 . S
N2183 C2185 1.356 . S
N2183 H2188 0.984 . S
N2183 H2189 0.985 . S
C2184 C2178 1.379 . S
C2184 C2181 1.363 . S
C2184 N2182 1.356 . S
C2185 C2179 1.363 . S
C2185 C2180 1.379 . S
C2185 N2183 1.356 . S
N2186 C2178 1.356 . S
N2186 H2192 0.984 . S
N2186 H2193 0.984 . S
N2187 C2180 1.356 . S
N2187 H2190 0.984 . S
N2187 H2191 0.985 . S
H2188 N2183 0.984 . S
H2189 N2183 0.985 . S
H2190 N2187 0.984 . S
H2191 N2187 0.985 . S
H2192 N2186 0.984 . S
H2193 N2186 0.984 . S
H2194 N2182 0.984 . S
H2195 N2182 0.985 . S
C2196 C2197 1.363 . S
C2196 C2202 1.379 . S
C2196 N2204 1.356 . S
C2197 C2196 1.363 . S
C2197 C2203 1.363 . S
C2198 C2199 1.363 . S
C2198 C2203 1.379 . S
C2198 N2205 1.356 . S
C2199 C2198 1.363 . S
C2199 C2202 1.363 . S
N2200 C2202 1.356 . S
N2200 H2212 0.984 . S
N2200 H2213 0.985 . S
N2201 C2203 1.356 . S
N2201 H2206 0.984 . S
N2201 H2207 0.985 . S
C2202 C2196 1.379 . S
C2202 C2199 1.363 . S
C2202 N2200 1.356 . S
C2203 C2197 1.363 . S
C2203 C2198 1.379 . S
C2203 N2201 1.356 . S
N2204 C2196 1.356 . S
N2204 H2210 0.984 . S
N2204 H2211 0.984 . S
N2205 C2198 1.356 . S
N2205 H2208 0.984 . S
N2205 H2209 0.985 . S
H2206 N2201 0.984 . S
H2207 N2201 0.985 . S
H2208 N2205 0.984 . S
H2209 N2205 0.985 . S
H2210 N2204 0.984 . S
H2211 N2204 0.984 . S
H2212 N2200 0.984 . S
H2213 N2200 0.985 . S
C2214 C2215 1.363 . S
C2214 C2220 1.379 . S
C2214 N2222 1.356 . S
C2215 C2214 1.363 . S
C2215 C2221 1.363 . S
C2216 C2217 1.363 . S
C2216 C2221 1.379 . S
C2216 N2223 1.356 . S
C2217 C2216 1.363 . S
C2217 C2220 1.363 . S
N2218 C2220 1.356 . S
N2218 H2230 0.984 . S
N2218 H2231 0.985 . S
N2219 C2221 1.356 . S
N2219 H2224 0.984 . S
N2219 H2225 0.985 . S
C2220 C2214 1.379 . S
C2220 C2217 1.363 . S
C2220 N2218 1.356 . S
C2221 C2215 1.363 . S
C2221 C2216 1.379 . S
C2221 N2219 1.356 . S
N2222 C2214 1.356 . S
N2222 H2228 0.984 . S
N2222 H2229 0.984 . S
N2223 C2216 1.356 . S
N2223 H2226 0.984 . S
N2223 H2227 0.985 . S
H2224 N2219 0.984 . S
H2225 N2219 0.985 . S
H2226 N2223 0.984 . S
H2227 N2223 0.985 . S
H2228 N2222 0.984 . S
H2229 N2222 0.984 . S
H2230 N2218 0.984 . S
H2231 N2218 0.985 . S
C2232 C2233 1.363 . S
C2232 C2238 1.379 . S
C2232 N2240 1.356 . S
C2233 C2232 1.363 . S
C2233 C2239 1.363 . S
C2234 C2235 1.363 . S
C2234 C2239 1.379 . S
C2234 N2241 1.356 . S
C2235 C2234 1.363 . S
C2235 C2238 1.363 . S
N2236 C2238 1.356 . S
N2236 H2248 0.984 . S
N2236 H2249 0.985 . S
N2237 C2239 1.356 . S
N2237 H2242 0.984 . S
N2237 H2243 0.985 . S
C2238 C2232 1.379 . S
C2238 C2235 1.363 . S
C2238 N2236 1.356 . S
C2239 C2233 1.363 . S
C2239 C2234 1.379 . S
C2239 N2237 1.356 . S
N2240 C2232 1.356 . S
N2240 H2246 0.984 . S
N2240 H2247 0.984 . S
N2241 C2234 1.356 . S
N2241 H2244 0.984 . S
N2241 H2245 0.985 . S
H2242 N2237 0.984 . S
H2243 N2237 0.985 . S
H2244 N2241 0.984 . S
H2245 N2241 0.985 . S
H2246 N2240 0.984 . S
H2247 N2240 0.984 . S
H2248 N2236 0.984 . S
H2249 N2236 0.985 . S
C2250 C2251 1.363 . S
C2250 C2256 1.379 . S
C2250 N2258 1.356 . S
C2251 C2250 1.363 . S
C2251 C2257 1.363 . S
C2252 C2253 1.363 . S
C2252 C2257 1.379 . S
C2252 N2259 1.356 . S
C2253 C2252 1.363 . S
C2253 C2256 1.363 . S
N2254 C2256 1.356 . S
N2254 H2266 0.984 . S
N2254 H2267 0.985 . S
N2255 C2257 1.356 . S
N2255 H2260 0.984 . S
N2255 H2261 0.985 . S
C2256 C2250 1.379 . S
C2256 C2253 1.363 . S
C2256 N2254 1.356 . S
C2257 C2251 1.363 . S
C2257 C2252 1.379 . S
C2257 N2255 1.356 . S
N2258 C2250 1.356 . S
N2258 H2264 0.984 . S
N2258 H2265 0.984 . S
N2259 C2252 1.356 . S
N2259 H2262 0.984 . S
N2259 H2263 0.985 . S
H2260 N2255 0.984 . S
H2261 N2255 0.985 . S
H2262 N2259 0.984 . S
H2263 N2259 0.985 . S
H2264 N2258 0.984 . S
H2265 N2258 0.984 . S
H2266 N2254 0.984 . S
H2267 N2254 0.985 . S
C2268 C2269 1.363 . S
C2268 C2274 1.379 . S
C2268 N2276 1.356 . S
C2269 C2268 1.363 . S
C2269 C2275 1.363 . S
C2270 C2271 1.363 . S
C2270 C2275 1.379 . S
C2270 N2277 1.356 . S
C2271 C2270 1.363 . S
C2271 C2274 1.363 . S
N2272 C2274 1.356 . S
N2272 H2284 0.984 . S
N2272 H2285 0.985 . S
N2273 C2275 1.356 . S
N2273 H2278 0.984 . S
N2273 H2279 0.985 . S
C2274 C2268 1.379 . S
C2274 C2271 1.363 . S
C2274 N2272 1.356 . S
C2275 C2269 1.363 . S
C2275 C2270 1.379 . S
C2275 N2273 1.356 . S
N2276 C2268 1.356 . S
N2276 H2282 0.984 . S
N2276 H2283 0.984 . S
N2277 C2270 1.356 . S
N2277 H2280 0.984 . S
N2277 H2281 0.985 . S
H2278 N2273 0.984 . S
H2279 N2273 0.985 . S
H2280 N2277 0.984 . S
H2281 N2277 0.985 . S
H2282 N2276 0.984 . S
H2283 N2276 0.984 . S
H2284 N2272 0.984 . S
H2285 N2272 0.985 . S
C2286 C2287 1.363 . S
C2286 C2292 1.379 . S
C2286 N2294 1.356 . S
C2287 C2286 1.363 . S
C2287 C2293 1.363 . S
C2288 C2289 1.363 . S
C2288 C2293 1.379 . S
C2288 N2295 1.356 . S
C2289 C2288 1.363 . S
C2289 C2292 1.363 . S
N2290 C2292 1.356 . S
N2290 H2302 0.984 . S
N2290 H2303 0.985 . S
N2291 C2293 1.356 . S
N2291 H2296 0.984 . S
N2291 H2297 0.985 . S
C2292 C2286 1.379 . S
C2292 C2289 1.363 . S
C2292 N2290 1.356 . S
C2293 C2287 1.363 . S
C2293 C2288 1.379 . S
C2293 N2291 1.356 . S
N2294 C2286 1.356 . S
N2294 H2300 0.984 . S
N2294 H2301 0.984 . S
N2295 C2288 1.356 . S
N2295 H2298 0.984 . S
N2295 H2299 0.985 . S
H2296 N2291 0.984 . S
H2297 N2291 0.985 . S
H2298 N2295 0.984 . S
H2299 N2295 0.985 . S
H2300 N2294 0.984 . S
H2301 N2294 0.984 . S
H2302 N2290 0.984 . S
H2303 N2290 0.985 . S
C1153 C292 1.366 . S
C1155 C4 1.366 . S
C1171 C904 1.366 . S
C1173 C40 1.366 . S
C1189 C364 1.366 . S
C1191 C76 1.366 . S
C1207 C976 1.366 . S
C1209 C112 1.366 . S
C1225 C436 1.366 . S
C1227 C148 1.366 . S
C1243 C184 1.366 . S
C1245 C1048 1.366 . S
C1261 C220 1.366 . S
C1263 C508 1.366 . S
C1279 C256 1.366 . S
C1281 C1120 1.366 . S
C1297 C616 1.366 . S
C1299 C328 1.366 . S
C1315 C688 1.366 . S
C1317 C400 1.366 . S
C1333 C472 1.366 . S
C1335 C760 1.366 . S
C1351 C544 1.366 . S
C1353 C832 1.366 . S
C1369 C580 1.366 . S
C1371 C868 1.366 . S
C1387 C940 1.366 . S
C1389 C652 1.366 . S
C1405 C724 1.366 . S
C1407 C1012 1.366 . S
C1423 C1084 1.366 . S
C1425 C796 1.366 . S
C1441 C650 1.506 . S
C1443 C2 1.506 . S
C1459 C686 1.506 . S
C1461 C38 1.506 . S
C1477 C74 1.506 . S
C1479 C578 1.506 . S
C1495 C110 1.506 . S
C1497 C614 1.506 . S
C1513 C794 1.506 . S
C1515 C146 1.506 . S
C1531 C182 1.506 . S
C1533 C830 1.506 . S
C1549 C722 1.506 . S
C1551 C218 1.506 . S
C1567 C758 1.506 . S
C1569 C254 1.506 . S
C1585 C290 1.506 . S
C1587 C938 1.506 . S
C1603 C974 1.506 . S
C1605 C326 1.506 . S
C1621 C362 1.506 . S
C1623 C866 1.506 . S
C1639 C398 1.506 . S
C1641 C902 1.506 . S
C1657 C434 1.506 . S
C1659 C1082 1.506 . S
C1675 C470 1.506 . S
C1677 C1118 1.506 . S
C1693 C1010 1.506 . S
C1695 C506 1.506 . S
C1711 C1046 1.506 . S
C1713 C542 1.506 . S
C1729 C230 1.546 . S
C1731 C14 1.546 . S
C1747 C266 1.546 . S
C1749 C50 1.546 . S
C1765 C158 1.546 . S
C1767 C86 1.546 . S
C1783 C122 1.546 . S
C1785 C194 1.546 . S
C1801 C518 1.546 . S
C1803 C302 1.546 . S
C1819 C554 1.546 . S
C1821 C338 1.546 . S
C1837 C446 1.546 . S
C1839 C374 1.546 . S
C1855 C482 1.546 . S
C1857 C410 1.546 . S
C1873 C806 1.546 . S
C1875 C590 1.546 . S
C1891 C842 1.546 . S
C1893 C626 1.546 . S
C1909 C662 1.546 . S
C1911 C734 1.546 . S
C1927 C698 1.546 . S
C1929 C770 1.546 . S
C1945 C1094 1.546 . S
C1947 C878 1.546 . S
C1963 C1130 1.546 . S
C1965 C914 1.546 . S
C1981 C950 1.546 . S
C1983 C1022 1.546 . S
C1999 C986 1.546 . S
C2001 C1058 1.546 . S
C2017 C3 1.484 . S
C2019 C759 1.484 . S
C2035 C795 1.484 . S
C2037 C39 1.484 . S
C2053 C831 1.484 . S
C2055 C75 1.484 . S
C2071 C111 1.484 . S
C2073 C723 1.484 . S
C2089 C687 1.484 . S
C2091 C147 1.484 . S
C2107 C183 1.484 . S
C2109 C579 1.484 . S
C2125 C615 1.484 . S
C2127 C219 1.484 . S
C2143 C255 1.484 . S
C2145 C651 1.484 . S
C2161 C1047 1.484 . S
C2163 C291 1.484 . S
C2179 C1083 1.484 . S
C2181 C327 1.484 . S
C2197 C363 1.484 . S
C2199 C1119 1.484 . S
C2215 C1011 1.484 . S
C2217 C399 1.484 . S
C2233 C975 1.484 . S
C2235 C435 1.484 . S
C2251 C471 1.484 . S
C2253 C867 1.484 . S
C2269 C903 1.484 . S
C2271 C507 1.484 . S
C2287 C543 1.484 . S
C2289 C939 1.484 . S
