# Generated by pormake.
# Topology umx, (4)-cn, num edge types: 1
# Building blocks:
#     Node 0, Type 0, BuildingBlock: KUFVIS_clean_sbu_0, # of connection points: 4
#     Node 1, Type 0, BuildingBlock: KUFVIS_clean_sbu_0, # of connection points: 4
#     Node 2, Type 0, BuildingBlock: KUFVIS_clean_sbu_0, # of connection points: 4
#     Node 3, Type 0, BuildingBlock: KUFVIS_clean_sbu_0, # of connection points: 4
#     Node 4, Type 0, BuildingBlock: KUFVIS_clean_sbu_0, # of connection points: 4
#     Node 5, Type 0, BuildingBlock: KUFVIS_clean_sbu_0, # of connection points: 4
#     Node 6, Type 0, BuildingBlock: KUFVIS_clean_sbu_0, # of connection points: 4
#     Node 7, Type 0, BuildingBlock: KUFVIS_clean_sbu_0, # of connection points: 4
#     Edge 8, Type (0, 0), BuildingBlock: XUDNAN_clean_linker_2, # of connection points: 2
#     Edge 9, Type (0, 0), BuildingBlock: XUDNAN_clean_linker_2, # of connection points: 2
#     Edge 10, Type (0, 0), BuildingBlock: XUDNAN_clean_linker_2, # of connection points: 2
#     Edge 11, Type (0, 0), BuildingBlock: XUDNAN_clean_linker_2, # of connection points: 2
#     Edge 12, Type (0, 0), BuildingBlock: XUDNAN_clean_linker_2, # of connection points: 2
#     Edge 13, Type (0, 0), BuildingBlock: XUDNAN_clean_linker_2, # of connection points: 2
#     Edge 14, Type (0, 0), BuildingBlock: XUDNAN_clean_linker_2, # of connection points: 2
#     Edge 15, Type (0, 0), BuildingBlock: XUDNAN_clean_linker_2, # of connection points: 2
#     Edge 16, Type (0, 0), BuildingBlock: XUDNAN_clean_linker_2, # of connection points: 2
#     Edge 17, Type (0, 0), BuildingBlock: XUDNAN_clean_linker_2, # of connection points: 2
#     Edge 18, Type (0, 0), BuildingBlock: XUDNAN_clean_linker_2, # of connection points: 2
#     Edge 19, Type (0, 0), BuildingBlock: XUDNAN_clean_linker_2, # of connection points: 2
#     Edge 20, Type (0, 0), BuildingBlock: XUDNAN_clean_linker_2, # of connection points: 2
#     Edge 21, Type (0, 0), BuildingBlock: XUDNAN_clean_linker_2, # of connection points: 2
#     Edge 22, Type (0, 0), BuildingBlock: XUDNAN_clean_linker_2, # of connection points: 2
#     Edge 23, Type (0, 0), BuildingBlock: XUDNAN_clean_linker_2, # of connection points: 2
# Relax obj value: 0.123
# Max RMSD: 0.264
# Mean RMSD: 0.232
data_MOF--net-umx--node1-KUFVIS_clean_sbu_0--edge1-XUDNAN_clean_linker_2
_symmetry_space_group_name_H-M    P1
_symmetry_Int_Tables_number       1
_symmetry_cell_setting            triclinic
loop_
_symmetry_equiv_pos_as_xyz
'x, y, z'
_cell_length_a     34.690319
_cell_length_b     41.86344
_cell_length_c     27.992603
_cell_angle_alpha  90.019348
_cell_angle_beta   90.089103
_cell_angle_gamma 90.074146
loop_
_atom_site_label
_atom_site_type_symbol
_atom_site_fract_x
_atom_site_fract_y
_atom_site_fract_z
_atom_type_partial_charge
Mn0 Mn 0.19023 0.45809 1.00143 0.0
Mn1 Mn 0.14051 0.41627 0.91854 0.0
C2 C 0.13253 0.47838 0.9734 0.0
C3 C 0.20522 0.46957 0.08103 0.0
C4 C 0.21042 0.457 0.89544 0.0
O5 O 0.21439 0.41427 0.00511 0.0
O6 O 0.17708 0.3876 0.95276 0.0
C7 C 0.09582 0.37107 0.97808 0.0
N8 N 0.09703 0.39401 0.94368 0.0
C9 C 0.03228 0.38193 0.91841 0.0
C10 C 0.03019 0.35827 0.95379 0.0
C11 C 0.06193 0.3531 0.98415 0.0
C12 C 0.06625 0.39983 0.9153 0.0
H13 H 0.12076 0.36619 1.00007 0.0
C14 C 0.20424 0.38877 0.98373 0.0
O15 O 0.22937 0.47569 0.04684 0.0
O16 O 0.17314 0.45572 0.06924 0.0
N17 N 0.10386 0.44009 0.88219 0.0
C18 C 0.10987 0.46532 0.85238 0.0
C19 C 0.08007 0.47524 0.82182 0.0
C20 C 0.04493 0.45849 0.82122 0.0
C21 C 0.03959 0.4324 0.85195 0.0
C22 C 0.06981 0.42442 0.88284 0.0
H23 H 0.13736 0.47745 0.85148 0.0
O24 O 0.15884 0.4964 0.9925 0.0
O25 O 0.14041 0.4478 0.9714 0.0
O26 O 0.21707 0.46729 0.93748 0.0
O27 O 0.18343 0.43742 0.88597 0.0
C28 C 0.00576 0.41368 0.85275 0.0
C29 C 0.00217 0.38835 0.88586 0.0
H30 H 0.00441 0.34392 0.95795 0.0
H31 H 0.06059 0.33479 0.01138 0.0
H32 H 0.08448 0.49525 0.79797 0.0
H33 H 0.0224 0.46583 0.79686 0.0
H34 H 0.9821 0.41889 0.8287 0.0
H35 H 0.97576 0.37453 0.88681 0.0
Mn36 Mn 0.5465 0.16062 0.5296 0.0
Mn37 Mn 0.50329 0.23254 0.51938 0.0
C38 C 0.52331 0.1848 0.59738 0.0
C39 C 0.54489 0.10529 0.52432 0.0
C40 C 0.58989 0.22375 0.51918 0.0
O41 O 0.53639 0.16469 0.4589 0.0
O42 O 0.5047 0.21142 0.45504 0.0
C43 C 0.42443 0.21081 0.49521 0.0
N44 N 0.44865 0.22791 0.52378 0.0
C45 C 0.39569 0.24724 0.57102 0.0
C46 C 0.37012 0.23003 0.54186 0.0
C47 C 0.38458 0.21168 0.50387 0.0
C48 C 0.43506 0.24569 0.56039 0.0
H49 H 0.43548 0.19662 0.46606 0.0
C50 C 0.51859 0.18619 0.43561 0.0
O51 O 0.57662 0.12126 0.51864 0.0
O52 O 0.51374 0.12154 0.53273 0.0
N53 N 0.49948 0.25608 0.57778 0.0
C54 C 0.52821 0.26896 0.60492 0.0
C55 C 0.51876 0.28675 0.64579 0.0
C56 C 0.47991 0.29145 0.65797 0.0
C57 C 0.45083 0.27825 0.62919 0.0
C58 C 0.462 0.26081 0.58881 0.0
H59 H 0.55812 0.26543 0.59573 0.0
O60 O 0.54892 0.1623 0.59987 0.0
O61 O 0.51043 0.19187 0.55461 0.0
O62 O 0.58982 0.19362 0.52543 0.0
O63 O 0.5592 0.24032 0.51538 0.0
C64 C 0.41128 0.28077 0.6399 0.0
C65 C 0.38373 0.26527 0.61085 0.0
H66 H 0.33939 0.23046 0.54863 0.0
H67 H 0.36506 0.19819 0.48139 0.0
H68 H 0.54136 0.29674 0.66793 0.0
H69 H 0.47275 0.30491 0.68979 0.0
H70 H 0.40178 0.29405 0.67094 0.0
H71 H 0.35346 0.26694 0.61992 0.0
Mn72 Mn 0.80457 0.55092 0.06247 0.0
Mn73 Mn 0.84636 0.59602 0.97628 0.0
C74 C 0.86657 0.53967 0.03836 0.0
C75 C 0.78874 0.54046 0.14181 0.0
C76 C 0.78428 0.54678 0.95642 0.0
O77 O 0.77241 0.59141 0.06173 0.0
O78 O 0.80539 0.62117 0.00813 0.0
C79 C 0.88346 0.647 0.03348 0.0
N80 N 0.88604 0.62319 1.00052 0.0
C81 C 0.95269 0.63546 0.98519 0.0
C82 C 0.95073 0.66019 0.01891 0.0
C83 C 0.91601 0.66591 0.04326 0.0
C84 C 0.91927 0.61754 0.97674 0.0
H85 H 0.85672 0.65156 0.05199 0.0
C86 C 0.77855 0.61738 0.03902 0.0
O87 O 0.76792 0.52975 0.10679 0.0
O88 O 0.81849 0.55786 0.13095 0.0
N89 N 0.88675 0.57454 0.94274 0.0
C90 C 0.88493 0.54751 0.91566 0.0
C91 C 0.91799 0.53705 0.89137 0.0
C92 C 0.95239 0.55466 0.89472 0.0
C93 C 0.95348 0.58249 0.92261 0.0
C94 C 0.91966 0.5917 0.94612 0.0
H95 H 0.85852 0.53397 0.91282 0.0
O96 O 0.84552 0.51768 0.0582 0.0
O97 O 0.85057 0.5675 0.03242 0.0
O98 O 0.78119 0.53614 0.99882 0.0
O99 O 0.80684 0.56956 0.94526 0.0
C100 C 0.98714 0.60083 0.92939 0.0
C101 C 0.98674 0.62731 0.96061 0.0
H102 H 0.97582 0.67471 0.02678 0.0
H103 H 0.91433 0.68488 0.06944 0.0
H104 H 0.91695 0.51547 0.8701 0.0
H105 H 0.97791 0.54635 0.87628 0.0
H106 H 0.01374 0.59431 0.91168 0.0
H107 H 0.01302 0.64078 0.96635 0.0
Mn108 Mn 0.48213 0.82018 0.53329 0.0
Mn109 Mn 0.51131 0.74415 0.51816 0.0
C110 C 0.49689 0.7905 0.59943 0.0
C111 C 0.49958 0.87379 0.53191 0.0
C112 C 0.4275 0.76424 0.51443 0.0
O113 O 0.49263 0.81711 0.46303 0.0
O114 O 0.51473 0.76703 0.45508 0.0
C115 C 0.59355 0.75752 0.49885 0.0
N116 N 0.56602 0.74271 0.52548 0.0
C117 C 0.61392 0.71902 0.57658 0.0
C118 C 0.64284 0.73379 0.54944 0.0
C119 C 0.63259 0.75316 0.51046 0.0
C120 C 0.57553 0.72405 0.56308 0.0
H121 H 0.58573 0.7726 0.46909 0.0
C122 C 0.50553 0.79436 0.43774 0.0
O123 O 0.46398 0.8652 0.52466 0.0
O124 O 0.52428 0.85139 0.5407 0.0
N125 N 0.50946 0.71872 0.57488 0.0
C126 C 0.47802 0.70735 0.59858 0.0
C127 C 0.48322 0.68837 0.63945 0.0
C128 C 0.52064 0.68093 0.65509 0.0
C129 C 0.55255 0.69239 0.62957 0.0
C130 C 0.54557 0.71112 0.58901 0.0
H131 H 0.4492 0.71307 0.58675 0.0
O132 O 0.47702 0.8166 0.60317 0.0
O133 O 0.50961 0.78339 0.55672 0.0
O134 O 0.43247 0.79394 0.52367 0.0
O135 O 0.45501 0.74404 0.51148 0.0
C136 C 0.59098 0.68665 0.64342 0.0
C137 C 0.62164 0.69995 0.61696 0.0
H138 H 0.67298 0.73065 0.55846 0.0
H139 H 0.65474 0.7648 0.48953 0.0
H140 H 0.45846 0.67963 0.65897 0.0
H141 H 0.52454 0.66655 0.6869 0.0
H142 H 0.59728 0.67235 0.67472 0.0
H143 H 0.65105 0.69565 0.62828 0.0
Mn144 Mn 0.17925 0.55832 0.49083 0.0
Mn145 Mn 0.13426 0.60553 0.57144 0.0
C146 C 0.11695 0.54631 0.51336 0.0
C147 C 0.19718 0.54651 0.41238 0.0
C148 C 0.19814 0.55907 0.59676 0.0
O149 O 0.21113 0.59929 0.49192 0.0
O150 O 0.17349 0.63115 0.53724 0.0
C151 C 0.0939 0.65211 0.50968 0.0
N152 N 0.09285 0.62964 0.5448 0.0
C153 C 0.02556 0.63952 0.55938 0.0
C154 C 0.02591 0.66283 0.52341 0.0
C155 C 0.06019 0.66906 0.49834 0.0
C156 C 0.06007 0.62352 0.56927 0.0
H157 H 0.1203 0.65708 0.49064 0.0
C158 C 0.20264 0.62642 0.51014 0.0
O159 O 0.21739 0.5368 0.44858 0.0
O160 O 0.16708 0.56385 0.42155 0.0
N161 N 0.09533 0.58356 0.60696 0.0
C162 C 0.09886 0.55776 0.63631 0.0
C163 C 0.06654 0.54682 0.66166 0.0
C164 C 0.03108 0.56269 0.65697 0.0
C165 C 0.02819 0.58926 0.62665 0.0
C166 C 0.06137 0.59901 0.60219 0.0
H167 H 0.12607 0.54555 0.64018 0.0
O168 O 0.13886 0.52445 0.49479 0.0
O169 O 0.1321 0.57461 0.51813 0.0
O170 O 0.20064 0.54532 0.55632 0.0
O171 O 0.17581 0.58255 0.60491 0.0
C172 C 0.99342 0.60575 0.61845 0.0
C173 C 0.99211 0.63088 0.58487 0.0
H174 H -7e-05 0.67582 0.51435 0.0
H175 H 0.06063 0.68694 0.47044 0.0
H176 H 0.06895 0.5262 0.68479 0.0
H177 H 0.00613 0.554 0.67626 0.0
H178 H 0.96729 0.59877 0.63686 0.0
H179 H 0.96501 0.64288 0.57807 0.0
Mn180 Mn 0.44372 0.16297 0.99752 0.0
Mn181 Mn 0.48792 0.23483 1.0022 0.0
C182 C 0.45737 0.18899 0.92743 0.0
C183 C 0.44642 0.10753 0.99989 0.0
C184 C 0.40217 0.22642 0.0161 0.0
O185 O 0.4622 0.1656 0.06564 0.0
O186 O 0.49167 0.2134 0.06615 0.0
C187 C 0.56763 0.21116 0.01498 0.0
N188 N 0.54153 0.22869 0.98982 0.0
C189 C 0.59064 0.24745 0.93609 0.0
C190 C 0.6181 0.22971 0.96154 0.0
C191 C 0.60649 0.21133 1.00098 0.0
C192 C 0.55225 0.24593 0.95125 0.0
H193 H 0.55887 0.19726 0.04559 0.0
C194 C 0.48094 0.18755 0.08674 0.0
O195 O 0.41549 0.12293 0.01202 0.0
O196 O 0.476 0.12436 0.98665 0.0
N197 N 0.4873 0.25897 0.94418 0.0
C198 C 0.45724 0.27471 0.92345 0.0
C199 C 0.4638 0.29341 0.88262 0.0
C200 C 0.50133 0.29659 0.86447 0.0
C201 C 0.53199 0.281 0.88733 0.0
C202 C 0.52358 0.26214 0.92728 0.0
H203 H 0.42843 0.27278 0.93771 0.0
O204 O 0.43247 0.16588 0.9288 0.0
O205 O 0.47602 0.19506 0.96717 0.0
O206 O 0.40156 0.19609 0.01108 0.0
O207 O 0.43294 0.24316 0.01392 0.0
C208 C 0.57059 0.28361 0.87225 0.0
C209 C 0.59987 0.26671 0.89646 0.0
H210 H 0.64816 0.23 0.9511 0.0
H211 H 0.6275 0.19753 0.02076 0.0
H212 H 0.44003 0.30559 0.86544 0.0
H213 H 0.50632 0.31123 0.83318 0.0
H214 H 0.57802 0.29822 0.84168 0.0
H215 H 0.62937 0.26857 0.88411 0.0
Mn216 Mn 0.79855 0.45504 0.5539 0.0
Mn217 Mn 0.84867 0.41271 0.63533 0.0
C218 C 0.85446 0.47703 0.58462 0.0
C219 C 0.78413 0.4676 0.47474 0.0
C220 C 0.7751 0.44861 0.65788 0.0
O221 O 0.77711 0.41048 0.54694 0.0
O222 O 0.81558 0.38323 0.59713 0.0
C223 C 0.89903 0.37246 0.57495 0.0
N224 N 0.89471 0.39393 0.61106 0.0
C225 C 0.95969 0.3853 0.63833 0.0
C226 C 0.965 0.36321 0.60122 0.0
C227 C 0.93468 0.35705 0.56907 0.0
C228 C 0.924 0.40063 0.6414 0.0
H229 H 0.87525 0.36682 0.55142 0.0
C230 C 0.78851 0.38458 0.56604 0.0
O231 O 0.75915 0.47198 0.5086 0.0
O232 O 0.81694 0.45506 0.48661 0.0
N233 N 0.88197 0.43737 0.6753 0.0
C234 C 0.87295 0.46136 0.70617 0.0
C235 C 0.90088 0.47215 0.73878 0.0
C236 C 0.93733 0.45754 0.74013 0.0
C237 C 0.94587 0.43279 0.70802 0.0
C238 C 0.9173 0.42384 0.67533 0.0
H239 H 0.84451 0.47183 0.70632 0.0
O240 O 0.82722 0.49433 0.56614 0.0
O241 O 0.84831 0.44608 0.58476 0.0
O242 O 0.76999 0.46133 0.61715 0.0
O243 O 0.80277 0.42978 0.66724 0.0
C244 C 0.98138 0.41643 0.70736 0.0
C245 C 0.98828 0.39265 0.67253 0.0
H246 H 0.99221 0.35087 0.59706 0.0
H247 H 0.93852 0.33995 0.54048 0.0
H248 H 0.89407 0.49119 0.76353 0.0
H249 H 0.95844 0.46551 0.766 0.0
H250 H 0.00387 0.4224 0.73272 0.0
H251 H 0.01599 0.38078 0.67162 0.0
Mn252 Mn 0.52454 0.82529 0.99725 0.0
Mn253 Mn 0.50185 0.74706 0.00629 0.0
C254 C 0.52312 0.79473 0.92939 0.0
C255 C 0.50279 0.87778 0.99474 0.0
C256 C 0.58126 0.77296 0.02654 0.0
O257 O 0.50483 0.82111 0.06444 0.0
O258 O 0.48965 0.76904 0.06807 0.0
C259 C 0.41738 0.75598 0.01072 0.0
N260 N 0.44878 0.74294 0.98912 0.0
C261 C 0.40912 0.71678 0.93037 0.0
C262 C 0.37629 0.72977 0.95213 0.0
C263 C 0.38047 0.74955 0.99238 0.0
C264 C 0.44515 0.72428 0.94998 0.0
H265 H 0.42052 0.77118 0.04167 0.0
C266 C 0.49283 0.79677 0.08705 0.0
O267 O 0.5374 0.87106 0.00951 0.0
O268 O 0.48137 0.85414 0.9808 0.0
N269 N 0.51214 0.72181 0.95083 0.0
C270 C 0.54661 0.71031 0.93514 0.0
C271 C 0.54757 0.69036 0.89481 0.0
C272 C 0.51303 0.6817 0.87194 0.0
C273 C 0.47779 0.69277 0.88997 0.0
C274 C 0.47867 0.71284 0.92998 0.0
H275 H 0.57321 0.71667 0.9529 0.0
O276 O 0.53977 0.82247 0.92951 0.0
O277 O 0.50499 0.78655 0.96851 0.0
O278 O 0.57444 0.8024 0.0176 0.0
O279 O 0.55659 0.75038 0.02295 0.0
C280 C 0.44182 0.68452 0.87003 0.0
C281 C 0.40751 0.69663 0.89007 0.0
H282 H 0.34777 0.72475 0.93821 0.0
H283 H 0.35529 0.75975 0.00929 0.0
H284 H 0.57486 0.68162 0.88149 0.0
H285 H 0.51387 0.66629 0.84087 0.0
H286 H 0.44021 0.669 0.83912 0.0
H287 H 0.38005 0.69032 0.87419 0.0
H288 H 0.15188 0.48726 0.1473 0.0
H289 H 0.27492 0.4764 0.12599 0.0
H290 H 0.2867 0.49536 0.20868 0.0
H291 H 0.15899 0.56054 0.21396 0.0
H292 H 0.1191 0.55116 0.25269 0.0
H293 H 0.12044 0.53523 0.19293 0.0
H294 H 0.11387 0.4778 0.22646 0.0
H295 H 0.11229 0.49354 0.28629 0.0
H296 H 0.14776 0.46391 0.27069 0.0
H297 H 0.2843 0.51338 0.29531 0.0
H298 H 0.26846 0.53274 0.37657 0.0
H299 H 0.14749 0.53667 0.33794 0.0
C300 C 0.18128 0.48857 0.16026 0.0
C301 C 0.21253 0.47995 0.13068 0.0
C302 C 0.25063 0.48272 0.14833 0.0
C303 C 0.25754 0.49344 0.19517 0.0
C304 C 0.22605 0.50194 0.22341 0.0
C305 C 0.1887 0.49999 0.20637 0.0
C306 C 0.16 0.51188 0.24303 0.0
C307 C 0.13837 0.54146 0.22454 0.0
C308 C 0.13183 0.48519 0.25747 0.0
C309 C 0.18694 0.52045 0.28369 0.0
C310 C 0.2249 0.51423 0.27189 0.0
C311 C 0.25474 0.51871 0.30467 0.0
C312 C 0.24551 0.52968 0.35069 0.0
C313 C 0.20688 0.53662 0.36316 0.0
C314 C 0.17736 0.53218 0.329 0.0
H315 H 0.5626 0.19476 0.67945 0.0
H316 H 0.44767 0.19566 0.61988 0.0
H317 H 0.42134 0.21151 0.69844 0.0
H318 H 0.53106 0.15135 0.77756 0.0
H319 H 0.56603 0.16755 0.81867 0.0
H320 H 0.57678 0.16586 0.75596 0.0
H321 H 0.58948 0.22725 0.75432 0.0
H322 H 0.58048 0.22749 0.81753 0.0
H323 H 0.55365 0.25383 0.77852 0.0
H324 H 0.40713 0.22221 0.78397 0.0
H325 H 0.40245 0.21328 0.87076 0.0
H326 H 0.52529 0.19575 0.87781 0.0
C327 C 0.53206 0.19972 0.68264 0.0
C328 C 0.50742 0.19721 0.64259 0.0
C329 C 0.4673 0.2007 0.64898 0.0
C330 C 0.45216 0.20924 0.6937 0.0
C331 C 0.47744 0.21241 0.7323 0.0
C332 C 0.51638 0.20651 0.72749 0.0
C333 C 0.53595 0.20364 0.77575 0.0
C334 C 0.55345 0.17011 0.78235 0.0
C335 C 0.56667 0.22968 0.78191 0.0
C336 C 0.50193 0.20886 0.80882 0.0
C337 C 0.46872 0.2149 0.7828 0.0
C338 C 0.43295 0.21791 0.80471 0.0
C339 C 0.4306 0.21292 0.85403 0.0
C340 C 0.46366 0.20468 0.88099 0.0
C341 C 0.49996 0.20344 0.85834 0.0
H342 H 0.83698 0.48519 0.40765 0.0
H343 H 0.71409 0.47421 0.43083 0.0
H344 H 0.70157 0.49271 0.34819 0.0
H345 H 0.82964 0.55788 0.33926 0.0
H346 H 0.869 0.54789 0.30008 0.0
H347 H 0.86825 0.53274 0.36029 0.0
H348 H 0.87404 0.47486 0.32823 0.0
H349 H 0.87502 0.48984 0.26795 0.0
H350 H 0.83953 0.46052 0.285 0.0
H351 H 0.70304 0.50991 0.26168 0.0
H352 H 0.71797 0.52785 0.17952 0.0
H353 H 0.83947 0.5321 0.21556 0.0
C354 C 0.80745 0.48646 0.39516 0.0
C355 C 0.77646 0.47796 0.42525 0.0
C356 C 0.73819 0.48052 0.40813 0.0
C357 C 0.73084 0.49098 0.36133 0.0
C358 C 0.76208 0.49934 0.33259 0.0
C359 C 0.7996 0.49752 0.34902 0.0
C360 C 0.82795 0.50887 0.31156 0.0
C361 C 0.85 0.53862 0.32884 0.0
C362 C 0.85577 0.48191 0.29735 0.0
C363 C 0.80059 0.51698 0.27119 0.0
C364 C 0.76273 0.51104 0.28387 0.0
C365 C 0.7325 0.51505 0.25158 0.0
C366 C 0.74123 0.5252 0.20507 0.0
C367 C 0.77975 0.53176 0.19161 0.0
C368 C 0.80968 0.5279 0.2253 0.0
H369 H 0.46326 0.77791 0.87146 0.0
H370 H 0.58728 0.77412 0.88548 0.0
H371 H 0.59306 0.75866 0.80081 0.0
H372 H 0.45361 0.71322 0.77233 0.0
H373 H 0.41694 0.73611 0.74224 0.0
H374 H 0.42009 0.73706 0.80644 0.0
H375 H 0.42552 0.79829 0.80604 0.0
H376 H 0.42151 0.79828 0.74219 0.0
H377 H 0.46234 0.81719 0.77042 0.0
H378 H 0.58717 0.76011 0.71312 0.0
H379 H 0.56908 0.77495 0.63063 0.0
H380 H 0.44884 0.77466 0.67073 0.0
C381 C 0.49128 0.77175 0.85717 0.0
C382 C 0.52474 0.77591 0.8851 0.0
C383 C 0.56132 0.76998 0.86479 0.0
C384 C 0.56483 0.76115 0.81675 0.0
C385 C 0.53145 0.75859 0.78926 0.0
C386 C 0.49519 0.76313 0.80892 0.0
C387 C 0.46466 0.76476 0.77016 0.0
C388 C 0.43723 0.73604 0.77301 0.0
C389 C 0.44225 0.79651 0.77234 0.0
C390 C 0.48963 0.76279 0.72592 0.0
C391 C 0.52802 0.75859 0.73755 0.0
C392 C 0.55706 0.76171 0.70328 0.0
C393 C 0.54662 0.76986 0.65634 0.0
C394 C 0.50749 0.77393 0.64388 0.0
C395 C 0.47879 0.76985 0.67899 0.0
H396 H 0.76586 0.50982 0.68469 0.0
H397 H 0.74033 0.41265 0.72629 0.0
H398 H 0.72406 0.431 0.80766 0.0
H399 H 0.8186 0.52518 0.77863 0.0
H400 H 0.8061 0.56658 0.78698 0.0
H401 H 0.80173 0.5488 0.72898 0.0
H402 H 0.72964 0.56471 0.72475 0.0
H403 H 0.73383 0.58327 0.78268 0.0
H404 H 0.6975 0.55323 0.77231 0.0
H405 H 0.72662 0.45709 0.8874 0.0
H406 H 0.74856 0.48799 0.95754 0.0
H407 H 0.77572 0.56797 0.8649 0.0
C408 C 0.75426 0.49287 0.71016 0.0
C409 C 0.75299 0.46008 0.69914 0.0
C410 C 0.7403 0.43802 0.73397 0.0
C411 C 0.7311 0.44827 0.78025 0.0
C412 C 0.73512 0.48062 0.79115 0.0
C413 C 0.7461 0.5027 0.75685 0.0
C414 C 0.75626 0.53451 0.77935 0.0
C415 C 0.79813 0.54429 0.76782 0.0
C416 C 0.72758 0.56047 0.76386 0.0
C417 C 0.75147 0.52638 0.83166 0.0
C418 C 0.73821 0.49552 0.83783 0.0
C419 C 0.736 0.48158 0.88305 0.0
C420 C 0.7486 0.4993 0.92275 0.0
C421 C 0.76385 0.53043 0.91679 0.0
C422 C 0.76391 0.54435 0.87079 0.0
H423 H 0.49685 0.75087 0.15796 0.0
H424 H 0.47719 0.85209 0.13404 0.0
H425 H 0.4803 0.86169 0.22057 0.0
H426 H 0.44081 0.74586 0.2709 0.0
H427 H 0.47395 0.71789 0.29752 0.0
H428 H 0.46715 0.71836 0.23368 0.0
H429 H 0.54069 0.72603 0.22254 0.0
H430 H 0.54762 0.72632 0.28634 0.0
H431 H 0.56441 0.75942 0.25079 0.0
H432 H 0.49188 0.86185 0.30705 0.0
H433 H 0.50102 0.8517 0.39248 0.0
H434 H 0.51131 0.74993 0.36403 0.0
C435 C 0.49205 0.77487 0.17107 0.0
C436 C 0.48673 0.80074 0.13909 0.0
C437 C 0.48135 0.83191 0.1577 0.0
C438 C 0.48323 0.83765 0.20683 0.0
C439 C 0.49024 0.81198 0.23713 0.0
C440 C 0.49377 0.7811 0.22037 0.0
C441 C 0.50178 0.75809 0.26125 0.0
C442 C 0.46896 0.7336 0.26613 0.0
C443 C 0.54096 0.74149 0.25482 0.0
C444 C 0.50258 0.78104 0.30333 0.0
C445 C 0.49616 0.81199 0.28817 0.0
C446 C 0.49635 0.83768 0.31956 0.0
C447 C 0.50174 0.83158 0.36814 0.0
C448 C 0.50656 0.79993 0.38534 0.0
C449 C 0.50782 0.77438 0.35217 0.0
H450 H 0.21004 0.43567 0.80349 0.0
H451 H 0.25215 0.51296 0.89275 0.0
H452 H 0.26707 0.54434 0.82045 0.0
H453 H 0.27555 0.45 0.69611 0.0
H454 H 0.23652 0.44047 0.65594 0.0
H455 H 0.23982 0.42086 0.71315 0.0
H456 H 0.17032 0.43924 0.73288 0.0
H457 H 0.16691 0.45924 0.67638 0.0
H458 H 0.15885 0.48121 0.73084 0.0
H459 H 0.26092 0.57201 0.74201 0.0
H460 H 0.23828 0.5922 0.6639 0.0
H461 H 0.20118 0.49698 0.6247 0.0
C462 C 0.22401 0.45863 0.80791 0.0
C463 C 0.23001 0.4718 0.85389 0.0
C464 C 0.24772 0.50215 0.85801 0.0
C465 C 0.2562 0.5202 0.81702 0.0
C466 C 0.24736 0.50734 0.77227 0.0
C467 C 0.2323 0.47693 0.76749 0.0
C468 C 0.21973 0.47033 0.71656 0.0
C469 C 0.24439 0.44385 0.69411 0.0
C470 C 0.17641 0.46205 0.71407 0.0
C471 C 0.22807 0.50236 0.69381 0.0
C472 C 0.24454 0.52328 0.72635 0.0
C473 C 0.24942 0.55557 0.71576 0.0
C474 C 0.23641 0.56686 0.67141 0.0
C475 C 0.21904 0.54588 0.63808 0.0
C476 C 0.21591 0.51312 0.64887 0.0
H477 H 0.50443 0.23098 0.36476 0.0
H478 H 0.52198 0.12945 0.38841 0.0
H479 H 0.5162 0.11969 0.30213 0.0
H480 H 0.43481 0.22312 0.26912 0.0
H481 H 0.45329 0.25643 0.23536 0.0
H482 H 0.45833 0.2558 0.29941 0.0
H483 H 0.53215 0.26308 0.29077 0.0
H484 H 0.52736 0.26352 0.22666 0.0
H485 H 0.55917 0.23522 0.25493 0.0
H486 H 0.50714 0.12003 0.21465 0.0
H487 H 0.49576 0.1307 0.12927 0.0
H488 H 0.48678 0.23216 0.15926 0.0
C489 C 0.50683 0.2067 0.35174 0.0
C490 C 0.51367 0.18099 0.38351 0.0
C491 C 0.51697 0.1496 0.36493 0.0
C492 C 0.5137 0.14375 0.3159 0.0
C493 C 0.50743 0.16954 0.28558 0.0
C494 C 0.5041 0.20041 0.30252 0.0
C495 C 0.49773 0.2237 0.26162 0.0
C496 C 0.45872 0.24076 0.26669 0.0
C497 C 0.5311 0.24781 0.25831 0.0
C498 C 0.49773 0.20097 0.2193 0.0
C499 C 0.50326 0.16985 0.23422 0.0
C500 C 0.50302 0.1443 0.2024 0.0
C501 C 0.49649 0.15061 0.154 0.0
C502 C 0.49063 0.18224 0.13762 0.0
C503 C 0.49177 0.20781 0.1707 0.0
H504 H 0.90409 0.48463 0.01302 0.0
H505 H 0.92338 0.5819 0.05933 0.0
H506 H 0.99234 0.57744 0.03784 0.0
H507 H 0.99729 0.45892 0.06918 0.0
H508 H 0.00397 0.4276 0.02576 0.0
H509 H 0.95602 0.43952 0.0427 0.0
H510 H 0.93948 0.4507 0.95323 0.0
H511 H 0.98754 0.43847 0.93877 0.0
H512 H 0.97055 0.4769 0.91926 0.0
H513 H 0.05351 0.56573 0.99179 0.0
H514 H 0.1147 0.54096 0.96801 0.0
H515 H 0.06168 0.44728 0.97805 0.0
C516 C 0.92291 0.50499 0.01823 0.0
C517 C 0.90817 0.53485 0.0325 0.0
C518 C 0.93385 0.56001 0.04343 0.0
C519 C 0.97294 0.55757 0.03193 0.0
C520 C 0.98589 0.529 0.01242 0.0
C521 C 0.96249 0.50242 0.00954 0.0
C522 C 0.98539 0.47326 0.99525 0.0
C523 C 0.9857 0.44836 0.03564 0.0
C524 C 0.96965 0.4591 0.94872 0.0
C525 C 0.02491 0.488 0.98797 0.0
C526 C 0.02383 0.52051 0.99608 0.0
C527 C 0.0553 0.54009 0.98727 0.0
C528 C 0.0898 0.52573 0.97329 0.0
C529 C 0.09323 0.49197 0.97086 0.0
C530 C 0.05998 0.47295 0.9774 0.0
H531 H 0.45549 0.92875 0.53219 0.0
H532 H 0.5734 0.89434 0.52428 0.0
H533 H 0.59693 0.9496 0.51898 0.0
H534 H 0.46711 0.99576 0.45089 0.0
H535 H 0.4367 0.02215 0.48498 0.0
H536 H 0.42839 0.97967 0.48643 0.0
H537 H 0.43407 0.98021 0.57873 0.0
H538 H 0.44236 0.02268 0.57756 0.0
H539 H 0.47668 0.99669 0.6063 0.0
H540 H 0.60834 0.00763 0.51491 0.0
H541 H 0.60724 0.0664 0.51572 0.0
H542 H 0.48246 0.06462 0.52861 0.0
C543 C 0.4862 0.93294 0.52908 0.0
C544 C 0.51261 0.90727 0.52858 0.0
C545 C 0.55262 0.91363 0.52491 0.0
C546 C 0.56632 0.94494 0.5217 0.0
C547 C 0.53969 0.9697 0.52248 0.0
C548 C 0.50051 0.96423 0.52633 0.0
C549 C 0.47845 0.99548 0.52799 0.0
C550 C 0.45105 -0.00157 0.485 0.0
C551 C 0.45661 -0.00104 0.57548 0.0
C552 C 0.51145 0.01918 0.52461 0.0
C553 C 0.54643 0.00366 0.52109 0.0
C554 C 0.58116 0.02015 0.51764 0.0
C555 C 0.58021 0.05354 0.5181 0.0
C556 C 0.5448 0.07007 0.5223 0.0
C557 C 0.50996 0.05261 0.52541 0.0
H558 H 0.08273 0.49126 0.54508 0.0
H559 H 0.05769 0.58519 0.48887 0.0
H560 H 0.98906 0.57879 0.51121 0.0
H561 H 0.99197 0.45796 0.49334 0.0
H562 H 0.9872 0.42916 0.54086 0.0
H563 H 0.03433 0.4424 0.52256 0.0
H564 H 0.04893 0.45903 0.61017 0.0
H565 H 0.00123 0.4469 0.62707 0.0
H566 H 0.0171 0.48678 0.63989 0.0
H567 H 0.92873 0.56664 0.55936 0.0
H568 H 0.86915 0.54044 0.58565 0.0
H569 H 0.92735 0.4488 0.58268 0.0
C570 C 0.06271 0.5105 0.53783 0.0
C571 C 0.07567 0.54019 0.52027 0.0
C572 C 0.04853 0.56368 0.50705 0.0
C573 C 0.00963 0.5601 0.51907 0.0
C574 C -0.00159 0.53201 0.54163 0.0
C575 C 0.02335 0.50666 0.54714 0.0
C576 C 0.00228 0.47737 0.56501 0.0
C577 C 0.00404 0.45011 0.52823 0.0
C578 C 0.01851 0.46698 0.61348 0.0
C579 C 0.96178 0.49055 0.57008 0.0
C580 C 0.96099 0.52263 0.55891 0.0
C581 C 0.92842 0.54118 0.56608 0.0
C582 C 0.89479 0.52597 0.58146 0.0
C583 C 0.89314 0.49219 0.58638 0.0
C584 C 0.92752 0.47443 0.58152 0.0
H585 H 0.54338 0.93426 0.99828 0.0
H586 H 0.42743 0.8953 0.99272 0.0
H587 H 0.40065 0.94979 0.99516 0.0
H588 H 0.52316 0.00028 0.07724 0.0
H589 H 0.55451 0.02779 0.04653 0.0
H590 H 0.56486 0.98564 0.04575 0.0
H591 H 0.56533 0.98631 0.95318 0.0
H592 H 0.55506 0.02847 0.95369 0.0
H593 H 0.52399 0.00148 0.92139 0.0
H594 H 0.38623 0.00796 1.00029 0.0
H595 H 0.38506 0.0669 1.00165 0.0
H596 H 0.51017 0.06875 0.99925 0.0
C597 C 0.51238 0.93727 0.99772 0.0
C598 C 0.48743 0.91062 0.99548 0.0
C599 C 0.44704 0.91542 0.99429 0.0
C600 C 0.43154 0.94626 0.99584 0.0
C601 C 0.45684 0.97204 0.99804 0.0
C602 C 0.49638 0.96798 0.99847 0.0
C603 C 0.51703 -9e-05 0.99923 0.0
C604 C 0.54132 0.00361 0.04491 0.0
C605 C 0.54181 0.0043 0.95418 0.0
C606 C 0.48289 0.02246 0.9993 0.0
C607 C 0.44847 0.00583 0.99912 0.0
C608 C 0.41297 0.0213 1.00016 0.0
C609 C 0.4126 0.05475 1.00106 0.0
C610 C 0.44749 0.07231 1.0003 0.0
C611 C 0.48305 0.0559 0.99945 0.0
H612 H 0.27662 0.38367 0.02142 0.0
H613 H 0.18086 0.327 0.96824 0.0
H614 H 0.21882 0.2778 0.98099 0.0
H615 H 0.34795 0.34075 0.96327 0.0
H616 H 0.38323 0.34436 0.01031 0.0
H617 H 0.34664 0.37438 1.00349 0.0
H618 H 0.32543 0.36564 0.09136 0.0
H619 H 0.36201 0.33546 0.09838 0.0
H620 H 0.31235 0.32612 0.11116 0.0
H621 H 0.26925 0.23532 0.99316 0.0
H622 H 0.32917 0.20369 0.99832 0.0
H623 H 0.39181 0.28881 0.04166 0.0
C624 C 0.26326 0.36088 0.01348 0.0
C625 C 0.2257 0.35913 0.9942 0.0
C626 C 0.20962 0.32888 0.98312 0.0
C627 C 0.23084 0.30081 0.99054 0.0
C628 C 0.26806 0.30344 0.00896 0.0
C629 C 0.28414 0.33274 0.02012 0.0
C630 C 0.3259 0.32948 0.0348 0.0
C631 C 0.35247 0.34835 1.00094 0.0
C632 C 0.33175 0.33978 0.08704 0.0
C633 C 0.33113 0.29386 0.02898 0.0
C634 C 0.29732 0.27912 0.01491 0.0
C635 C 0.2958 0.24654 0.00473 0.0
C636 C 0.32997 0.22875 0.00787 0.0
C637 C 0.36522 0.24374 0.02043 0.0
C638 C 0.36536 0.27656 0.03219 0.0
H639 H 0.71868 0.37948 0.52173 0.0
H640 H 0.8106 0.3226 0.58372 0.0
H641 H 0.77232 0.27364 0.5694 0.0
H642 H 0.64399 0.33871 0.57536 0.0
H643 H 0.61114 0.3419 0.52565 0.0
H644 H 0.64802 0.37158 0.53406 0.0
H645 H 0.67344 0.36105 0.44841 0.0
H646 H 0.63646 0.33132 0.43966 0.0
H647 H 0.6864 0.32101 0.43103 0.0
H648 H 0.72121 0.23164 0.55521 0.0
H649 H 0.66101 0.2007 0.54559 0.0
H650 H 0.60289 0.28603 0.49481 0.0
C651 C 0.7313 0.3567 0.53126 0.0
C652 C 0.76776 0.35486 0.55356 0.0
C653 C 0.78274 0.32458 0.56647 0.0
C654 C 0.7613 0.29664 0.55827 0.0
C655 C 0.72504 0.29944 0.53712 0.0
C656 C 0.71023 0.32875 0.52378 0.0
C657 C 0.6692 0.32587 0.50606 0.0
C658 C 0.64148 0.34567 0.53715 0.0
C659 C 0.66622 0.33537 0.45314 0.0
C660 C 0.66278 0.29047 0.51273 0.0
C661 C 0.69545 0.27548 0.5299 0.0
C662 C 0.69561 0.24306 0.5412 0.0
C663 C 0.66127 0.22568 0.53559 0.0
C664 C 0.62718 0.24092 0.51943 0.0
C665 C 0.62841 0.27359 0.50706 0.0
H666 H 0.75568 0.66329 0.97648 0.0
H667 H 0.74538 0.63328 0.12416 0.0
H668 H 0.70363 0.67981 0.1407 0.0
H669 H 0.7506 0.75124 0.99599 0.0
H670 H 0.72114 0.75703 0.94361 0.0
H671 H 0.75588 0.72504 0.94529 0.0
H672 H 0.70204 0.68384 0.92595 0.0
H673 H 0.66759 0.71576 0.92327 0.0
H674 H 0.65957 0.68255 0.96298 0.0
H675 H 0.65745 0.72478 0.13898 0.0
H676 H 0.60309 0.75981 0.11661 0.0
H677 H 0.6419 0.7601 0.96987 0.0
C678 C 0.7453 0.667 0.01254 0.0
C679 C 0.75391 0.64506 0.04923 0.0
C680 C 0.739 0.64995 0.09564 0.0
C681 C 0.71574 0.67648 0.10545 0.0
C682 C 0.70762 0.69769 0.06838 0.0
C683 C 0.72153 0.69298 0.02267 0.0
C684 C 0.70392 0.71629 0.98761 0.0
C685 C 0.73474 0.73873 0.96692 0.0
C686 C 0.68198 0.69855 0.94765 0.0
C687 C 0.67679 0.73409 0.02038 0.0
C688 C 0.68023 0.72364 0.06714 0.0
C689 C 0.65516 0.73382 0.10287 0.0
C690 C 0.62461 0.75386 0.09003 0.0
C691 C 0.61957 0.76329 0.04201 0.0
C692 C 0.6466 0.75431 0.00716 0.0
H693 H 0.40775 0.70507 0.48225 0.0
H694 H 0.3581 0.79436 0.53163 0.0
H695 H 0.29299 0.77032 0.52602 0.0
H696 H 0.32938 0.6821 0.39998 0.0
H697 H 0.33394 0.64046 0.41535 0.0
H698 H 0.37563 0.66618 0.41712 0.0
H699 H 0.38783 0.65016 0.50535 0.0
H700 H 0.34629 0.62448 0.5039 0.0
H701 H 0.34989 0.65536 0.54858 0.0
H702 H 0.23462 0.73433 0.52395 0.0
H703 H 0.18804 0.68981 0.52639 0.0
H704 H 0.27711 0.62461 0.47812 0.0
C705 C 0.38326 0.71992 0.49121 0.0
C706 C 0.38806 0.75165 0.50746 0.0
C707 C 0.35512 0.77005 0.5189 0.0
C708 C 0.31806 0.75662 0.5157 0.0
C709 C 0.3146 0.72498 0.50051 0.0
C710 C 0.34639 0.70699 0.48818 0.0
C711 C 0.33564 0.67284 0.47674 0.0
C712 C 0.34415 0.66495 0.42416 0.0
C713 C 0.35611 0.64935 0.51067 0.0
C714 C 0.29283 0.674 0.48606 0.0
C715 C 0.28111 0.70434 0.49916 0.0
C716 C 0.24336 0.71062 0.51303 0.0
C717 C 0.21717 0.68512 0.51446 0.0
C718 C 0.22893 0.6537 0.50232 0.0
C719 C 0.26705 0.64838 0.48686 0.0
loop_
_geom_bond_atom_site_label_1
_geom_bond_atom_site_label_2
_geom_bond_distance
_geom_bond_site_symmetry_2
_ccdc_geom_bond_type
Mn0 O5 2.095 . S
Mn0 O15 2.162 . S
Mn0 O16 2.297 . S
Mn0 O24 2.385 . S
Mn0 O25 2.209 . S
Mn0 O26 2.094 1_554 S
Mn1 O6 2.121 . S
Mn1 N8 2.257 . S
Mn1 N17 2.282 . S
Mn1 O25 2.215 1_556 S
Mn1 O27 2.117 . S
C2 O24 1.234 . S
C2 O25 1.283 . S
C3 O15 1.281 . S
C3 O16 1.236 . S
C4 O26 1.240 . S
C4 O27 1.264 . S
O5 Mn0 2.095 . S
O5 C14 1.250 . S
O6 Mn1 2.121 . S
O6 C14 1.258 1_556 S
C7 N8 1.326 . S
C7 C11 1.460 . S
C7 H13 0.929 . S
N8 Mn1 2.257 . S
N8 C7 1.326 . S
N8 C12 1.362 . S
C9 C10 1.258 . S
C9 C12 1.431 . S
C9 C29 1.449 . S
C10 C9 1.258 . S
C10 C11 1.477 . S
C10 H30 0.931 . S
C11 C7 1.460 . S
C11 C10 1.477 . S
C11 H31 0.930 . S
C12 N8 1.362 . S
C12 C9 1.431 . S
C12 C22 1.476 . S
H13 C7 0.929 . S
C14 O5 1.250 . S
C14 O6 1.258 1_554 S
O15 Mn0 2.162 . S
O15 C3 1.281 . S
O16 Mn0 2.297 . S
O16 C3 1.236 . S
N17 Mn1 2.282 . S
N17 C18 1.328 . S
N17 C22 1.318 . S
C18 N17 1.328 . S
C18 C19 1.457 . S
C18 H23 0.929 . S
C19 C18 1.457 . S
C19 C20 1.291 . S
C19 H32 0.931 . S
C20 C19 1.291 . S
C20 C21 1.373 . S
C20 H33 0.929 . S
C21 C20 1.373 . S
C21 C22 1.396 . S
C21 C28 1.403 . S
C22 C12 1.476 . S
C22 N17 1.318 . S
C22 C21 1.396 . S
H23 C18 0.929 . S
O24 Mn0 2.385 . S
O24 C2 1.234 . S
O25 Mn0 2.209 . S
O25 Mn1 2.215 1_554 S
O25 C2 1.283 . S
O26 Mn0 2.094 1_556 S
O26 C4 1.240 . S
O27 Mn1 2.117 . S
O27 C4 1.264 . S
C28 C21 1.403 . S
C28 C29 1.399 . S
C28 H34 0.929 1_455 S
C29 C9 1.449 . S
C29 C28 1.399 . S
C29 H35 0.930 1_455 S
H30 C10 0.931 . S
H31 C11 0.930 . S
H32 C19 0.931 . S
H33 C20 0.929 . S
H34 C28 0.929 1_655 S
H35 C29 0.930 1_655 S
Mn36 O41 2.095 . S
Mn36 O51 2.162 . S
Mn36 O52 2.297 . S
Mn36 O60 2.385 . S
Mn36 O61 2.209 . S
Mn36 O62 2.094 . S
Mn37 O42 2.121 . S
Mn37 N44 2.257 . S
Mn37 N53 2.282 . S
Mn37 O61 2.215 . S
Mn37 O63 2.117 . S
C38 O60 1.234 . S
C38 O61 1.283 . S
C39 O51 1.281 . S
C39 O52 1.236 . S
C40 O62 1.240 . S
C40 O63 1.264 . S
O41 Mn36 2.095 . S
O41 C50 1.250 . S
O42 Mn37 2.121 . S
O42 C50 1.258 . S
C43 N44 1.326 . S
C43 C47 1.460 . S
C43 H49 0.929 . S
N44 Mn37 2.257 . S
N44 C43 1.326 . S
N44 C48 1.362 . S
C45 C46 1.258 . S
C45 C48 1.431 . S
C45 C65 1.449 . S
C46 C45 1.258 . S
C46 C47 1.477 . S
C46 H66 0.931 . S
C47 C43 1.460 . S
C47 C46 1.477 . S
C47 H67 0.930 . S
C48 N44 1.362 . S
C48 C45 1.431 . S
C48 C58 1.476 . S
H49 C43 0.929 . S
C50 O41 1.250 . S
C50 O42 1.258 . S
O51 Mn36 2.162 . S
O51 C39 1.281 . S
O52 Mn36 2.297 . S
O52 C39 1.236 . S
N53 Mn37 2.282 . S
N53 C54 1.328 . S
N53 C58 1.318 . S
C54 N53 1.328 . S
C54 C55 1.457 . S
C54 H59 0.929 . S
C55 C54 1.457 . S
C55 C56 1.291 . S
C55 H68 0.931 . S
C56 C55 1.291 . S
C56 C57 1.373 . S
C56 H69 0.929 . S
C57 C56 1.373 . S
C57 C58 1.396 . S
C57 C64 1.403 . S
C58 C48 1.476 . S
C58 N53 1.318 . S
C58 C57 1.396 . S
H59 C54 0.929 . S
O60 Mn36 2.385 . S
O60 C38 1.234 . S
O61 Mn36 2.209 . S
O61 Mn37 2.215 . S
O61 C38 1.283 . S
O62 Mn36 2.094 . S
O62 C40 1.240 . S
O63 Mn37 2.117 . S
O63 C40 1.264 . S
C64 C57 1.403 . S
C64 C65 1.399 . S
C64 H70 0.929 . S
C65 C45 1.449 . S
C65 C64 1.399 . S
C65 H71 0.930 . S
H66 C46 0.931 . S
H67 C47 0.930 . S
H68 C55 0.931 . S
H69 C56 0.929 . S
H70 C64 0.929 . S
H71 C65 0.930 . S
Mn72 O77 2.095 . S
Mn72 O87 2.162 . S
Mn72 O88 2.297 . S
Mn72 O96 2.385 . S
Mn72 O97 2.209 . S
Mn72 O98 2.094 1_554 S
Mn73 O78 2.121 . S
Mn73 N80 2.257 . S
Mn73 N89 2.282 . S
Mn73 O97 2.215 1_556 S
Mn73 O99 2.117 . S
C74 O96 1.234 . S
C74 O97 1.283 . S
C75 O87 1.281 . S
C75 O88 1.236 . S
C76 O98 1.240 . S
C76 O99 1.264 . S
O77 Mn72 2.095 . S
O77 C86 1.250 . S
O78 Mn73 2.121 . S
O78 C86 1.258 1_556 S
C79 N80 1.326 . S
C79 C83 1.460 . S
C79 H85 0.929 . S
N80 Mn73 2.257 . S
N80 C79 1.326 . S
N80 C84 1.362 . S
C81 C82 1.258 . S
C81 C84 1.431 . S
C81 C101 1.449 . S
C82 C81 1.258 . S
C82 C83 1.477 . S
C82 H102 0.931 . S
C83 C79 1.460 . S
C83 C82 1.477 . S
C83 H103 0.930 . S
C84 N80 1.362 . S
C84 C81 1.431 . S
C84 C94 1.476 . S
H85 C79 0.929 . S
C86 O77 1.250 . S
C86 O78 1.258 1_554 S
O87 Mn72 2.162 . S
O87 C75 1.281 . S
O88 Mn72 2.297 . S
O88 C75 1.236 . S
N89 Mn73 2.282 . S
N89 C90 1.328 . S
N89 C94 1.318 . S
C90 N89 1.328 . S
C90 C91 1.457 . S
C90 H95 0.929 . S
C91 C90 1.457 . S
C91 C92 1.291 . S
C91 H104 0.931 . S
C92 C91 1.291 . S
C92 C93 1.373 . S
C92 H105 0.929 . S
C93 C92 1.373 . S
C93 C94 1.396 . S
C93 C100 1.403 . S
C94 C84 1.476 . S
C94 N89 1.318 . S
C94 C93 1.396 . S
H95 C90 0.929 . S
O96 Mn72 2.385 . S
O96 C74 1.234 . S
O97 Mn72 2.209 . S
O97 Mn73 2.215 1_554 S
O97 C74 1.283 . S
O98 Mn72 2.094 1_556 S
O98 C76 1.240 . S
O99 Mn73 2.117 . S
O99 C76 1.264 . S
C100 C93 1.403 . S
C100 C101 1.399 . S
C100 H106 0.929 1_655 S
C101 C81 1.449 . S
C101 C100 1.399 . S
C101 H107 0.930 1_655 S
H102 C82 0.931 . S
H103 C83 0.930 . S
H104 C91 0.931 . S
H105 C92 0.929 . S
H106 C100 0.929 1_455 S
H107 C101 0.930 1_455 S
Mn108 O113 2.095 . S
Mn108 O123 2.162 . S
Mn108 O124 2.297 . S
Mn108 O132 2.385 . S
Mn108 O133 2.209 . S
Mn108 O134 2.094 . S
Mn109 O114 2.121 . S
Mn109 N116 2.257 . S
Mn109 N125 2.282 . S
Mn109 O133 2.215 . S
Mn109 O135 2.117 . S
C110 O132 1.234 . S
C110 O133 1.283 . S
C111 O123 1.281 . S
C111 O124 1.236 . S
C112 O134 1.240 . S
C112 O135 1.264 . S
O113 Mn108 2.095 . S
O113 C122 1.250 . S
O114 Mn109 2.121 . S
O114 C122 1.258 . S
C115 N116 1.326 . S
C115 C119 1.460 . S
C115 H121 0.929 . S
N116 Mn109 2.257 . S
N116 C115 1.326 . S
N116 C120 1.362 . S
C117 C118 1.258 . S
C117 C120 1.431 . S
C117 C137 1.449 . S
C118 C117 1.258 . S
C118 C119 1.477 . S
C118 H138 0.931 . S
C119 C115 1.460 . S
C119 C118 1.477 . S
C119 H139 0.930 . S
C120 N116 1.362 . S
C120 C117 1.431 . S
C120 C130 1.476 . S
H121 C115 0.929 . S
C122 O113 1.250 . S
C122 O114 1.258 . S
O123 Mn108 2.162 . S
O123 C111 1.281 . S
O124 Mn108 2.297 . S
O124 C111 1.236 . S
N125 Mn109 2.282 . S
N125 C126 1.328 . S
N125 C130 1.318 . S
C126 N125 1.328 . S
C126 C127 1.457 . S
C126 H131 0.929 . S
C127 C126 1.457 . S
C127 C128 1.291 . S
C127 H140 0.931 . S
C128 C127 1.291 . S
C128 C129 1.373 . S
C128 H141 0.929 . S
C129 C128 1.373 . S
C129 C130 1.396 . S
C129 C136 1.403 . S
C130 C120 1.476 . S
C130 N125 1.318 . S
C130 C129 1.396 . S
H131 C126 0.929 . S
O132 Mn108 2.385 . S
O132 C110 1.234 . S
O133 Mn108 2.209 . S
O133 Mn109 2.215 . S
O133 C110 1.283 . S
O134 Mn108 2.094 . S
O134 C112 1.240 . S
O135 Mn109 2.117 . S
O135 C112 1.264 . S
C136 C129 1.403 . S
C136 C137 1.399 . S
C136 H142 0.929 . S
C137 C117 1.449 . S
C137 C136 1.399 . S
C137 H143 0.930 . S
H138 C118 0.931 . S
H139 C119 0.930 . S
H140 C127 0.931 . S
H141 C128 0.929 . S
H142 C136 0.929 . S
H143 C137 0.930 . S
Mn144 O149 2.095 . S
Mn144 O159 2.162 . S
Mn144 O160 2.297 . S
Mn144 O168 2.385 . S
Mn144 O169 2.209 . S
Mn144 O170 2.094 . S
Mn145 O150 2.121 . S
Mn145 N152 2.257 . S
Mn145 N161 2.282 . S
Mn145 O169 2.215 . S
Mn145 O171 2.117 . S
C146 O168 1.234 . S
C146 O169 1.283 . S
C147 O159 1.281 . S
C147 O160 1.236 . S
C148 O170 1.240 . S
C148 O171 1.264 . S
O149 Mn144 2.095 . S
O149 C158 1.250 . S
O150 Mn145 2.121 . S
O150 C158 1.258 . S
C151 N152 1.326 . S
C151 C155 1.460 . S
C151 H157 0.929 . S
N152 Mn145 2.257 . S
N152 C151 1.326 . S
N152 C156 1.362 . S
C153 C154 1.258 . S
C153 C156 1.431 . S
C153 C173 1.449 . S
C154 C153 1.258 . S
C154 C155 1.477 . S
C154 H174 0.931 . S
C155 C151 1.460 . S
C155 C154 1.477 . S
C155 H175 0.930 . S
C156 N152 1.362 . S
C156 C153 1.431 . S
C156 C166 1.476 . S
H157 C151 0.929 . S
C158 O149 1.250 . S
C158 O150 1.258 . S
O159 Mn144 2.162 . S
O159 C147 1.281 . S
O160 Mn144 2.297 . S
O160 C147 1.236 . S
N161 Mn145 2.282 . S
N161 C162 1.328 . S
N161 C166 1.318 . S
C162 N161 1.328 . S
C162 C163 1.457 . S
C162 H167 0.929 . S
C163 C162 1.457 . S
C163 C164 1.291 . S
C163 H176 0.931 . S
C164 C163 1.291 . S
C164 C165 1.373 . S
C164 H177 0.929 . S
C165 C164 1.373 . S
C165 C166 1.396 . S
C165 C172 1.403 . S
C166 C156 1.476 . S
C166 N161 1.318 . S
C166 C165 1.396 . S
H167 C162 0.929 . S
O168 Mn144 2.385 . S
O168 C146 1.234 . S
O169 Mn144 2.209 . S
O169 Mn145 2.215 . S
O169 C146 1.283 . S
O170 Mn144 2.094 . S
O170 C148 1.240 . S
O171 Mn145 2.117 . S
O171 C148 1.264 . S
C172 C165 1.403 . S
C172 C173 1.399 . S
C172 H178 0.929 1_455 S
C173 C153 1.449 . S
C173 C172 1.399 . S
C173 H179 0.907 1_455 S
H174 C154 0.931 . S
H175 C155 0.930 . S
H176 C163 0.931 . S
H177 C164 0.929 . S
H178 C172 0.929 1_655 S
H179 C173 0.907 1_655 S
Mn180 O185 2.095 . S
Mn180 O195 2.162 . S
Mn180 O196 2.297 . S
Mn180 O204 2.385 1_554 S
Mn180 O205 2.209 1_554 S
Mn180 O206 2.094 . S
Mn181 O186 2.121 . S
Mn181 N188 2.257 1_554 S
Mn181 N197 2.282 1_554 S
Mn181 O205 2.215 1_554 S
Mn181 O207 2.117 . S
C182 O204 1.234 . S
C182 O205 1.283 . S
C183 O195 1.281 . S
C183 O196 1.236 . S
C184 O206 1.240 . S
C184 O207 1.264 . S
O185 Mn180 2.095 . S
O185 C194 1.250 . S
O186 Mn181 2.121 . S
O186 C194 1.258 . S
C187 N188 1.326 1_554 S
C187 C191 1.466 . S
C187 H193 0.929 . S
N188 Mn181 2.257 1_556 S
N188 C187 1.326 1_556 S
N188 C192 1.362 . S
C189 C190 1.258 . S
C189 C192 1.431 . S
C189 C209 1.449 . S
C190 C189 1.258 . S
C190 C191 1.459 1_556 S
C190 H210 0.931 . S
C191 C187 1.466 . S
C191 C190 1.459 1_554 S
C191 H211 0.942 . S
C192 N188 1.362 . S
C192 C189 1.431 . S
C192 C202 1.476 . S
H193 C187 0.929 . S
C194 O185 1.250 . S
C194 O186 1.258 . S
O195 Mn180 2.162 . S
O195 C183 1.281 . S
O196 Mn180 2.297 . S
O196 C183 1.236 . S
N197 Mn181 2.282 1_556 S
N197 C198 1.328 . S
N197 C202 1.318 . S
C198 N197 1.328 . S
C198 C199 1.457 . S
C198 H203 0.929 . S
C199 C198 1.457 . S
C199 C200 1.291 . S
C199 H212 0.931 . S
C200 C199 1.291 . S
C200 C201 1.373 . S
C200 H213 0.929 . S
C201 C200 1.373 . S
C201 C202 1.396 . S
C201 C208 1.403 . S
C202 C192 1.476 . S
C202 N197 1.318 . S
C202 C201 1.396 . S
H203 C198 0.929 . S
O204 Mn180 2.385 1_556 S
O204 C182 1.234 . S
O205 Mn180 2.209 1_556 S
O205 Mn181 2.215 1_556 S
O205 C182 1.283 . S
O206 Mn180 2.094 . S
O206 C184 1.240 . S
O207 Mn181 2.117 . S
O207 C184 1.264 . S
C208 C201 1.403 . S
C208 C209 1.399 . S
C208 H214 0.929 . S
C209 C189 1.449 . S
C209 C208 1.399 . S
C209 H215 0.930 . S
H210 C190 0.931 . S
H211 C191 0.942 . S
H212 C199 0.931 . S
H213 C200 0.929 . S
H214 C208 0.929 . S
H215 C209 0.930 . S
Mn216 O221 2.095 . S
Mn216 O231 2.162 . S
Mn216 O232 2.297 . S
Mn216 O240 2.385 . S
Mn216 O241 2.209 . S
Mn216 O242 2.094 . S
Mn217 O222 2.121 . S
Mn217 N224 2.257 . S
Mn217 N233 2.282 . S
Mn217 O241 2.215 . S
Mn217 O243 2.117 . S
C218 O240 1.234 . S
C218 O241 1.283 . S
C219 O231 1.281 . S
C219 O232 1.236 . S
C220 O242 1.240 . S
C220 O243 1.264 . S
O221 Mn216 2.095 . S
O221 C230 1.250 . S
O222 Mn217 2.121 . S
O222 C230 1.258 . S
C223 N224 1.326 . S
C223 C227 1.460 . S
C223 H229 0.929 . S
N224 Mn217 2.257 . S
N224 C223 1.326 . S
N224 C228 1.362 . S
C225 C226 1.258 . S
C225 C228 1.431 . S
C225 C245 1.449 . S
C226 C225 1.258 . S
C226 C227 1.477 . S
C226 H246 0.931 . S
C227 C223 1.460 . S
C227 C226 1.477 . S
C227 H247 0.930 . S
C228 N224 1.362 . S
C228 C225 1.431 . S
C228 C238 1.476 . S
H229 C223 0.929 . S
C230 O221 1.250 . S
C230 O222 1.258 . S
O231 Mn216 2.162 . S
O231 C219 1.281 . S
O232 Mn216 2.297 . S
O232 C219 1.236 . S
N233 Mn217 2.282 . S
N233 C234 1.328 . S
N233 C238 1.318 . S
C234 N233 1.328 . S
C234 C235 1.457 . S
C234 H239 0.929 . S
C235 C234 1.457 . S
C235 C236 1.291 . S
C235 H248 0.931 . S
C236 C235 1.291 . S
C236 C237 1.373 . S
C236 H249 0.929 . S
C237 C236 1.373 . S
C237 C238 1.396 . S
C237 C244 1.403 . S
C238 C228 1.476 . S
C238 N233 1.318 . S
C238 C237 1.396 . S
H239 C234 0.929 . S
O240 Mn216 2.385 . S
O240 C218 1.234 . S
O241 Mn216 2.209 . S
O241 Mn217 2.215 . S
O241 C218 1.283 . S
O242 Mn216 2.094 . S
O242 C220 1.240 . S
O243 Mn217 2.117 . S
O243 C220 1.264 . S
C244 C237 1.403 . S
C244 C245 1.399 . S
C244 H250 0.929 1_655 S
C245 C225 1.449 . S
C245 C244 1.399 . S
C245 H251 0.907 1_655 S
H246 C226 0.931 . S
H247 C227 0.930 . S
H248 C235 0.931 . S
H249 C236 0.929 . S
H250 C244 0.929 1_455 S
H251 C245 0.907 1_455 S
Mn252 O257 2.095 . S
Mn252 O267 2.162 . S
Mn252 O268 2.297 . S
Mn252 O276 2.385 1_554 S
Mn252 O277 2.209 1_554 S
Mn252 O278 2.094 . S
Mn253 O258 2.121 . S
Mn253 N260 2.257 1_554 S
Mn253 N269 2.282 1_554 S
Mn253 O277 2.215 1_554 S
Mn253 O279 2.117 . S
C254 O276 1.234 . S
C254 O277 1.283 . S
C255 O267 1.281 . S
C255 O268 1.236 . S
C256 O278 1.240 . S
C256 O279 1.264 . S
O257 Mn252 2.095 . S
O257 C266 1.250 . S
O258 Mn253 2.121 . S
O258 C266 1.258 . S
C259 N260 1.326 1_554 S
C259 C263 1.466 . S
C259 H265 0.929 . S
N260 Mn253 2.257 1_556 S
N260 C259 1.326 1_556 S
N260 C264 1.362 . S
C261 C262 1.258 . S
C261 C264 1.431 . S
C261 C281 1.449 . S
C262 C261 1.258 . S
C262 C263 1.459 1_556 S
C262 H282 0.931 . S
C263 C259 1.466 . S
C263 C262 1.459 1_554 S
C263 H283 0.942 . S
C264 N260 1.362 . S
C264 C261 1.431 . S
C264 C274 1.476 . S
H265 C259 0.929 . S
C266 O257 1.250 . S
C266 O258 1.258 . S
O267 Mn252 2.162 . S
O267 C255 1.281 . S
O268 Mn252 2.297 . S
O268 C255 1.236 . S
N269 Mn253 2.282 1_556 S
N269 C270 1.328 . S
N269 C274 1.318 . S
C270 N269 1.328 . S
C270 C271 1.457 . S
C270 H275 0.929 . S
C271 C270 1.457 . S
C271 C272 1.291 . S
C271 H284 0.931 . S
C272 C271 1.291 . S
C272 C273 1.373 . S
C272 H285 0.929 . S
C273 C272 1.373 . S
C273 C274 1.396 . S
C273 C280 1.403 . S
C274 C264 1.476 . S
C274 N269 1.318 . S
C274 C273 1.396 . S
H275 C270 0.929 . S
O276 Mn252 2.385 1_556 S
O276 C254 1.234 . S
O277 Mn252 2.209 1_556 S
O277 Mn253 2.215 1_556 S
O277 C254 1.283 . S
O278 Mn252 2.094 . S
O278 C256 1.240 . S
O279 Mn253 2.117 . S
O279 C256 1.264 . S
C280 C273 1.403 . S
C280 C281 1.399 . S
C280 H286 0.929 . S
C281 C261 1.449 . S
C281 C280 1.399 . S
C281 H287 0.930 . S
H282 C262 0.931 . S
H283 C263 0.942 . S
H284 C271 0.931 . S
H285 C272 0.929 . S
H286 C280 0.929 . S
H287 C281 0.930 . S
H288 C300 0.930 . S
H289 C302 0.930 . S
H290 C303 0.930 . S
H291 C307 0.959 . S
H292 C307 0.959 . S
H293 C307 0.961 . S
H294 C308 0.960 . S
H295 C308 0.961 . S
H296 C308 0.959 . S
H297 C311 0.929 . S
H298 C312 0.931 . S
H299 C314 0.930 . S
C300 H288 0.930 . S
C300 C301 1.399 . S
C300 C305 1.399 . S
C301 C300 1.399 . S
C301 C302 1.376 . S
C302 H289 0.930 . S
C302 C301 1.376 . S
C302 C303 1.388 . S
C303 H290 0.930 . S
C303 C302 1.388 . S
C303 C304 1.390 . S
C304 C303 1.390 . S
C304 C305 1.394 . S
C304 C310 1.465 . S
C305 C300 1.399 . S
C305 C304 1.394 . S
C305 C306 1.516 . S
C306 C305 1.516 . S
C306 C307 1.502 . S
C306 C308 1.561 . S
C306 C309 1.526 . S
C307 H291 0.959 . S
C307 H292 0.959 . S
C307 H293 0.961 . S
C307 C306 1.502 . S
C308 H294 0.960 . S
C308 H295 0.961 . S
C308 H296 0.959 . S
C308 C306 1.561 . S
C309 C306 1.526 . S
C309 C310 1.396 . S
C309 C314 1.390 . S
C310 C304 1.465 . S
C310 C309 1.396 . S
C310 C311 1.399 . S
C311 H297 0.929 . S
C311 C310 1.399 . S
C311 C312 1.385 . S
C312 H298 0.931 . S
C312 C311 1.385 . S
C312 C313 1.389 . S
C313 C312 1.389 . S
C313 C314 1.387 . S
C314 H299 0.930 . S
C314 C309 1.390 . S
C314 C313 1.387 . S
H315 C327 0.930 . S
H316 C329 0.930 . S
H317 C330 0.930 . S
H318 C334 0.959 . S
H319 C334 0.959 . S
H320 C334 0.961 . S
H321 C335 0.960 . S
H322 C335 0.961 . S
H323 C335 0.959 . S
H324 C338 0.929 . S
H325 C339 0.931 . S
H326 C341 0.930 . S
C327 H315 0.930 . S
C327 C328 1.399 . S
C327 C332 1.399 . S
C328 C327 1.399 . S
C328 C329 1.376 . S
C329 H316 0.930 . S
C329 C328 1.376 . S
C329 C330 1.388 . S
C330 H317 0.930 . S
C330 C329 1.388 . S
C330 C331 1.390 . S
C331 C330 1.390 . S
C331 C332 1.394 . S
C331 C337 1.465 . S
C332 C327 1.399 . S
C332 C331 1.394 . S
C332 C333 1.516 . S
C333 C332 1.516 . S
C333 C334 1.502 . S
C333 C335 1.561 . S
C333 C336 1.526 . S
C334 H318 0.959 . S
C334 H319 0.959 . S
C334 H320 0.961 . S
C334 C333 1.502 . S
C335 H321 0.960 . S
C335 H322 0.961 . S
C335 H323 0.959 . S
C335 C333 1.561 . S
C336 C333 1.526 . S
C336 C337 1.396 . S
C336 C341 1.390 . S
C337 C331 1.465 . S
C337 C336 1.396 . S
C337 C338 1.399 . S
C338 H324 0.929 . S
C338 C337 1.399 . S
C338 C339 1.385 . S
C339 H325 0.931 . S
C339 C338 1.385 . S
C339 C340 1.389 . S
C340 C339 1.389 . S
C340 C341 1.387 . S
C341 H326 0.930 . S
C341 C336 1.390 . S
C341 C340 1.387 . S
H342 C354 0.930 . S
H343 C356 0.930 . S
H344 C357 0.930 . S
H345 C361 0.959 . S
H346 C361 0.959 . S
H347 C361 0.961 . S
H348 C362 0.960 . S
H349 C362 0.961 . S
H350 C362 0.959 . S
H351 C365 0.929 . S
H352 C366 0.931 . S
H353 C368 0.930 . S
C354 H342 0.930 . S
C354 C355 1.399 . S
C354 C359 1.399 . S
C355 C354 1.399 . S
C355 C356 1.376 . S
C356 H343 0.930 . S
C356 C355 1.376 . S
C356 C357 1.388 . S
C357 H344 0.930 . S
C357 C356 1.388 . S
C357 C358 1.390 . S
C358 C357 1.390 . S
C358 C359 1.394 . S
C358 C364 1.465 . S
C359 C354 1.399 . S
C359 C358 1.394 . S
C359 C360 1.516 . S
C360 C359 1.516 . S
C360 C361 1.502 . S
C360 C362 1.561 . S
C360 C363 1.526 . S
C361 H345 0.959 . S
C361 H346 0.959 . S
C361 H347 0.961 . S
C361 C360 1.502 . S
C362 H348 0.960 . S
C362 H349 0.961 . S
C362 H350 0.959 . S
C362 C360 1.561 . S
C363 C360 1.526 . S
C363 C364 1.396 . S
C363 C368 1.390 . S
C364 C358 1.465 . S
C364 C363 1.396 . S
C364 C365 1.399 . S
C365 H351 0.929 . S
C365 C364 1.399 . S
C365 C366 1.385 . S
C366 H352 0.931 . S
C366 C365 1.385 . S
C366 C367 1.389 . S
C367 C366 1.389 . S
C367 C368 1.387 . S
C368 H353 0.930 . S
C368 C363 1.390 . S
C368 C367 1.387 . S
H369 C381 0.930 . S
H370 C383 0.930 . S
H371 C384 0.930 . S
H372 C388 0.959 . S
H373 C388 0.959 . S
H374 C388 0.961 . S
H375 C389 0.960 . S
H376 C389 0.961 . S
H377 C389 0.959 . S
H378 C392 0.929 . S
H379 C393 0.931 . S
H380 C395 0.930 . S
C381 H369 0.930 . S
C381 C382 1.399 . S
C381 C386 1.399 . S
C382 C381 1.399 . S
C382 C383 1.376 . S
C383 H370 0.930 . S
C383 C382 1.376 . S
C383 C384 1.388 . S
C384 H371 0.930 . S
C384 C383 1.388 . S
C384 C385 1.390 . S
C385 C384 1.390 . S
C385 C386 1.394 . S
C385 C391 1.465 . S
C386 C381 1.399 . S
C386 C385 1.394 . S
C386 C387 1.516 . S
C387 C386 1.516 . S
C387 C388 1.502 . S
C387 C389 1.561 . S
C387 C390 1.526 . S
C388 H372 0.959 . S
C388 H373 0.959 . S
C388 H374 0.961 . S
C388 C387 1.502 . S
C389 H375 0.960 . S
C389 H376 0.961 . S
C389 H377 0.959 . S
C389 C387 1.561 . S
C390 C387 1.526 . S
C390 C391 1.396 . S
C390 C395 1.390 . S
C391 C385 1.465 . S
C391 C390 1.396 . S
C391 C392 1.399 . S
C392 H378 0.929 . S
C392 C391 1.399 . S
C392 C393 1.385 . S
C393 H379 0.931 . S
C393 C392 1.385 . S
C393 C394 1.389 . S
C394 C393 1.389 . S
C394 C395 1.387 . S
C395 H380 0.930 . S
C395 C390 1.390 . S
C395 C394 1.387 . S
H396 C408 0.930 . S
H397 C410 0.930 . S
H398 C411 0.930 . S
H399 C415 0.959 . S
H400 C415 0.959 . S
H401 C415 0.961 . S
H402 C416 0.960 . S
H403 C416 0.961 . S
H404 C416 0.959 . S
H405 C419 0.929 . S
H406 C420 0.931 . S
H407 C422 0.930 . S
C408 H396 0.930 . S
C408 C409 1.399 . S
C408 C413 1.399 . S
C409 C408 1.399 . S
C409 C410 1.376 . S
C410 H397 0.930 . S
C410 C409 1.376 . S
C410 C411 1.388 . S
C411 H398 0.930 . S
C411 C410 1.388 . S
C411 C412 1.390 . S
C412 C411 1.390 . S
C412 C413 1.394 . S
C412 C418 1.465 . S
C413 C408 1.399 . S
C413 C412 1.394 . S
C413 C414 1.516 . S
C414 C413 1.516 . S
C414 C415 1.502 . S
C414 C416 1.561 . S
C414 C417 1.526 . S
C415 H399 0.959 . S
C415 H400 0.959 . S
C415 H401 0.961 . S
C415 C414 1.502 . S
C416 H402 0.960 . S
C416 H403 0.961 . S
C416 H404 0.959 . S
C416 C414 1.561 . S
C417 C414 1.526 . S
C417 C418 1.396 . S
C417 C422 1.390 . S
C418 C412 1.465 . S
C418 C417 1.396 . S
C418 C419 1.399 . S
C419 H405 0.929 . S
C419 C418 1.399 . S
C419 C420 1.385 . S
C420 H406 0.931 . S
C420 C419 1.385 . S
C420 C421 1.389 . S
C421 C420 1.389 . S
C421 C422 1.387 . S
C422 H407 0.930 . S
C422 C417 1.390 . S
C422 C421 1.387 . S
H423 C435 0.930 . S
H424 C437 0.930 . S
H425 C438 0.930 . S
H426 C442 0.959 . S
H427 C442 0.959 . S
H428 C442 0.961 . S
H429 C443 0.960 . S
H430 C443 0.961 . S
H431 C443 0.959 . S
H432 C446 0.929 . S
H433 C447 0.931 . S
H434 C449 0.930 . S
C435 H423 0.930 . S
C435 C436 1.399 . S
C435 C440 1.399 . S
C436 C435 1.399 . S
C436 C437 1.376 . S
C437 H424 0.930 . S
C437 C436 1.376 . S
C437 C438 1.388 . S
C438 H425 0.930 . S
C438 C437 1.388 . S
C438 C439 1.390 . S
C439 C438 1.390 . S
C439 C440 1.394 . S
C439 C445 1.465 . S
C440 C435 1.399 . S
C440 C439 1.394 . S
C440 C441 1.516 . S
C441 C440 1.516 . S
C441 C442 1.502 . S
C441 C443 1.561 . S
C441 C444 1.526 . S
C442 H426 0.959 . S
C442 H427 0.959 . S
C442 H428 0.961 . S
C442 C441 1.502 . S
C443 H429 0.960 . S
C443 H430 0.961 . S
C443 H431 0.959 . S
C443 C441 1.561 . S
C444 C441 1.526 . S
C444 C445 1.396 . S
C444 C449 1.390 . S
C445 C439 1.465 . S
C445 C444 1.396 . S
C445 C446 1.399 . S
C446 H432 0.929 . S
C446 C445 1.399 . S
C446 C447 1.385 . S
C447 H433 0.931 . S
C447 C446 1.385 . S
C447 C448 1.389 . S
C448 C447 1.389 . S
C448 C449 1.387 . S
C449 H434 0.930 . S
C449 C444 1.390 . S
C449 C448 1.387 . S
H450 C462 0.930 . S
H451 C464 0.930 . S
H452 C465 0.930 . S
H453 C469 0.959 . S
H454 C469 0.959 . S
H455 C469 0.961 . S
H456 C470 0.960 . S
H457 C470 0.961 . S
H458 C470 0.959 . S
H459 C473 0.929 . S
H460 C474 0.931 . S
H461 C476 0.930 . S
C462 H450 0.930 . S
C462 C463 1.399 . S
C462 C467 1.399 . S
C463 C462 1.399 . S
C463 C464 1.376 . S
C464 H451 0.930 . S
C464 C463 1.376 . S
C464 C465 1.388 . S
C465 H452 0.930 . S
C465 C464 1.388 . S
C465 C466 1.390 . S
C466 C465 1.390 . S
C466 C467 1.394 . S
C466 C472 1.465 . S
C467 C462 1.399 . S
C467 C466 1.394 . S
C467 C468 1.516 . S
C468 C467 1.516 . S
C468 C469 1.502 . S
C468 C470 1.561 . S
C468 C471 1.526 . S
C469 H453 0.959 . S
C469 H454 0.959 . S
C469 H455 0.961 . S
C469 C468 1.502 . S
C470 H456 0.960 . S
C470 H457 0.961 . S
C470 H458 0.959 . S
C470 C468 1.561 . S
C471 C468 1.526 . S
C471 C472 1.396 . S
C471 C476 1.390 . S
C472 C466 1.465 . S
C472 C471 1.396 . S
C472 C473 1.399 . S
C473 H459 0.929 . S
C473 C472 1.399 . S
C473 C474 1.385 . S
C474 H460 0.931 . S
C474 C473 1.385 . S
C474 C475 1.389 . S
C475 C474 1.389 . S
C475 C476 1.387 . S
C476 H461 0.930 . S
C476 C471 1.390 . S
C476 C475 1.387 . S
H477 C489 0.930 . S
H478 C491 0.930 . S
H479 C492 0.930 . S
H480 C496 0.959 . S
H481 C496 0.959 . S
H482 C496 0.961 . S
H483 C497 0.960 . S
H484 C497 0.961 . S
H485 C497 0.959 . S
H486 C500 0.929 . S
H487 C501 0.931 . S
H488 C503 0.930 . S
C489 H477 0.930 . S
C489 C490 1.399 . S
C489 C494 1.399 . S
C490 C489 1.399 . S
C490 C491 1.376 . S
C491 H478 0.930 . S
C491 C490 1.376 . S
C491 C492 1.388 . S
C492 H479 0.930 . S
C492 C491 1.388 . S
C492 C493 1.390 . S
C493 C492 1.390 . S
C493 C494 1.394 . S
C493 C499 1.465 . S
C494 C489 1.399 . S
C494 C493 1.394 . S
C494 C495 1.516 . S
C495 C494 1.516 . S
C495 C496 1.502 . S
C495 C497 1.561 . S
C495 C498 1.526 . S
C496 H480 0.959 . S
C496 H481 0.959 . S
C496 H482 0.961 . S
C496 C495 1.502 . S
C497 H483 0.960 . S
C497 H484 0.961 . S
C497 H485 0.959 . S
C497 C495 1.561 . S
C498 C495 1.526 . S
C498 C499 1.396 . S
C498 C503 1.390 . S
C499 C493 1.465 . S
C499 C498 1.396 . S
C499 C500 1.399 . S
C500 H486 0.929 . S
C500 C499 1.399 . S
C500 C501 1.385 . S
C501 H487 0.931 . S
C501 C500 1.385 . S
C501 C502 1.389 . S
C502 C501 1.389 . S
C502 C503 1.387 . S
C503 H488 0.930 . S
C503 C498 1.390 . S
C503 C502 1.387 . S
H504 C516 0.930 . S
H505 C518 0.930 . S
H506 C519 0.930 . S
H507 C523 0.959 . S
H508 C523 0.959 1_455 S
H509 C523 0.961 . S
H510 C524 0.960 1_655 S
H511 C524 0.961 . S
H512 C524 0.959 . S
H513 C527 0.929 . S
H514 C528 0.931 . S
H515 C530 0.930 . S
C516 H504 0.930 . S
C516 C517 1.399 1_556 S
C516 C521 1.399 . S
C517 C516 1.399 1_554 S
C517 C518 1.376 . S
C518 H505 0.930 . S
C518 C517 1.376 . S
C518 C519 1.388 . S
C519 H506 0.930 . S
C519 C518 1.388 . S
C519 C520 1.390 . S
C520 C519 1.390 . S
C520 C521 1.394 1_554 S
C520 C526 1.465 1_655 S
C521 C516 1.399 . S
C521 C520 1.394 1_556 S
C521 C522 1.516 . S
C522 C521 1.516 . S
C522 C523 1.502 . S
C522 C524 1.561 1_655 S
C522 C525 1.526 1_655 S
C523 H507 0.959 . S
C523 H508 0.959 1_655 S
C523 H509 0.961 . S
C523 C522 1.502 . S
C524 H510 0.960 1_455 S
C524 H511 0.961 . S
C524 H512 0.959 . S
C524 C522 1.561 1_455 S
C525 C522 1.526 1_455 S
C525 C526 1.396 1_556 S
C525 C530 1.390 . S
C526 C520 1.465 1_455 S
C526 C525 1.396 1_554 S
C526 C527 1.399 . S
C527 H513 0.929 . S
C527 C526 1.399 . S
C527 C528 1.385 . S
C528 H514 0.931 . S
C528 C527 1.385 . S
C528 C529 1.389 . S
C529 C528 1.389 . S
C529 C530 1.387 1_554 S
C530 H515 0.930 . S
C530 C525 1.390 . S
C530 C529 1.387 1_556 S
H531 C543 0.930 . S
H532 C545 0.930 . S
H533 C546 0.930 . S
H534 C550 0.959 . S
H535 C550 0.959 . S
H536 C550 0.961 . S
H537 C551 0.960 . S
H538 C551 0.961 1_545 S
H539 C551 0.959 . S
H540 C554 0.929 . S
H541 C555 0.931 . S
H542 C557 0.930 . S
C543 H531 0.930 . S
C543 C544 1.399 . S
C543 C548 1.399 . S
C544 C543 1.399 . S
C544 C545 1.376 . S
C545 H532 0.930 . S
C545 C544 1.376 . S
C545 C546 1.388 . S
C546 H533 0.930 . S
C546 C545 1.388 . S
C546 C547 1.390 . S
C547 C546 1.390 . S
C547 C548 1.394 . S
C547 C553 1.465 1_565 S
C548 C543 1.399 . S
C548 C547 1.394 . S
C548 C549 1.516 1_565 S
C549 C548 1.516 1_545 S
C549 C550 1.502 . S
C549 C551 1.561 1_545 S
C549 C552 1.526 . S
C550 H534 0.959 . S
C550 H535 0.959 . S
C550 H536 0.961 . S
C550 C549 1.502 . S
C551 H537 0.960 . S
C551 H538 0.961 1_565 S
C551 H539 0.959 . S
C551 C549 1.561 1_565 S
C552 C549 1.526 . S
C552 C553 1.396 . S
C552 C557 1.390 . S
C553 C547 1.465 1_545 S
C553 C552 1.396 . S
C553 C554 1.399 . S
C554 H540 0.929 . S
C554 C553 1.399 . S
C554 C555 1.385 . S
C555 H541 0.931 . S
C555 C554 1.385 . S
C555 C556 1.389 . S
C556 C555 1.389 . S
C556 C557 1.387 . S
C557 H542 0.930 . S
C557 C552 1.390 . S
C557 C556 1.387 . S
H558 C570 0.930 . S
H559 C572 0.930 . S
H560 C573 0.930 . S
H561 C577 0.959 . S
H562 C577 0.959 1_655 S
H563 C577 0.961 . S
H564 C578 0.960 1_455 S
H565 C578 0.961 . S
H566 C578 0.959 . S
H567 C581 0.929 . S
H568 C582 0.931 . S
H569 C584 0.930 . S
C570 H558 0.930 . S
C570 C571 1.399 . S
C570 C575 1.399 . S
C571 C570 1.399 . S
C571 C572 1.376 . S
C572 H559 0.930 . S
C572 C571 1.376 . S
C572 C573 1.388 . S
C573 H560 0.930 . S
C573 C572 1.388 . S
C573 C574 1.390 . S
C574 C573 1.390 . S
C574 C575 1.394 . S
C574 C580 1.465 1_455 S
C575 C570 1.399 . S
C575 C574 1.394 . S
C575 C576 1.516 . S
C576 C575 1.516 . S
C576 C577 1.502 . S
C576 C578 1.561 1_455 S
C576 C579 1.526 1_455 S
C577 H561 0.959 . S
C577 H562 0.959 1_455 S
C577 H563 0.961 . S
C577 C576 1.502 . S
C578 H564 0.960 1_655 S
C578 H565 0.961 . S
C578 H566 0.959 . S
C578 C576 1.561 1_655 S
C579 C576 1.526 1_655 S
C579 C580 1.396 . S
C579 C584 1.390 . S
C580 C574 1.465 1_655 S
C580 C579 1.396 . S
C580 C581 1.399 . S
C581 H567 0.929 . S
C581 C580 1.399 . S
C581 C582 1.385 . S
C582 H568 0.931 . S
C582 C581 1.385 . S
C582 C583 1.389 . S
C583 C582 1.389 . S
C583 C584 1.387 . S
C584 H569 0.930 . S
C584 C579 1.390 . S
C584 C583 1.387 . S
H585 C597 0.930 . S
H586 C599 0.930 . S
H587 C600 0.930 . S
H588 C604 0.959 . S
H589 C604 0.959 . S
H590 C604 0.961 . S
H591 C605 0.960 1_565 S
H592 C605 0.961 . S
H593 C605 0.959 1_565 S
H594 C608 0.929 . S
H595 C609 0.931 . S
H596 C611 0.930 . S
C597 H585 0.930 . S
C597 C598 1.399 1_556 S
C597 C602 1.399 . S
C598 C597 1.399 1_554 S
C598 C599 1.376 . S
C599 H586 0.930 . S
C599 C598 1.376 . S
C599 C600 1.388 . S
C600 H587 0.930 . S
C600 C599 1.388 . S
C600 C601 1.390 . S
C601 C600 1.390 . S
C601 C602 1.394 1_554 S
C601 C607 1.465 1_565 S
C602 C597 1.399 . S
C602 C601 1.394 1_556 S
C602 C603 1.516 1_565 S
C603 C602 1.516 1_545 S
C603 C604 1.502 . S
C603 C605 1.561 . S
C603 C606 1.526 . S
C604 H588 0.959 . S
C604 H589 0.959 . S
C604 H590 0.961 . S
C604 C603 1.502 . S
C605 H591 0.960 1_545 S
C605 H592 0.961 . S
C605 H593 0.959 1_545 S
C605 C603 1.561 . S
C606 C603 1.526 . S
C606 C607 1.396 1_556 S
C606 C611 1.390 . S
C607 C601 1.465 1_545 S
C607 C606 1.396 1_554 S
C607 C608 1.399 . S
C608 H594 0.929 . S
C608 C607 1.399 . S
C608 C609 1.385 . S
C609 H595 0.931 . S
C609 C608 1.385 . S
C609 C610 1.389 . S
C610 C609 1.389 . S
C610 C611 1.387 1_554 S
C611 H596 0.930 . S
C611 C606 1.390 . S
C611 C610 1.387 1_556 S
H612 C624 0.930 . S
H613 C626 0.930 . S
H614 C627 0.930 . S
H615 C631 0.959 . S
H616 C631 0.959 . S
H617 C631 0.961 . S
H618 C632 0.960 . S
H619 C632 0.961 . S
H620 C632 0.959 . S
H621 C635 0.929 . S
H622 C636 0.931 . S
H623 C638 0.930 . S
C624 H612 0.930 . S
C624 C625 1.399 . S
C624 C629 1.399 . S
C625 C624 1.399 . S
C625 C626 1.376 1_554 S
C626 H613 0.930 . S
C626 C625 1.376 1_556 S
C626 C627 1.388 . S
C627 H614 0.930 . S
C627 C626 1.388 . S
C627 C628 1.390 . S
C628 C627 1.390 . S
C628 C629 1.394 1_556 S
C628 C634 1.465 . S
C629 C624 1.399 . S
C629 C628 1.394 1_554 S
C629 C630 1.516 . S
C630 C629 1.516 . S
C630 C631 1.502 . S
C630 C632 1.561 . S
C630 C633 1.526 . S
C631 H615 0.959 . S
C631 H616 0.959 . S
C631 H617 0.961 . S
C631 C630 1.502 . S
C632 H618 0.960 . S
C632 H619 0.961 . S
C632 H620 0.959 . S
C632 C630 1.561 . S
C633 C630 1.526 . S
C633 C634 1.396 1_554 S
C633 C638 1.390 . S
C634 C628 1.465 . S
C634 C633 1.396 1_556 S
C634 C635 1.399 . S
C635 H621 0.929 . S
C635 C634 1.399 . S
C635 C636 1.385 . S
C636 H622 0.931 . S
C636 C635 1.385 . S
C636 C637 1.389 1_556 S
C637 C636 1.389 1_554 S
C637 C638 1.387 . S
C638 H623 0.930 . S
C638 C633 1.390 . S
C638 C637 1.387 . S
H639 C651 0.930 . S
H640 C653 0.930 . S
H641 C654 0.930 . S
H642 C658 0.959 . S
H643 C658 0.959 . S
H644 C658 0.961 . S
H645 C659 0.960 . S
H646 C659 0.961 . S
H647 C659 0.959 . S
H648 C662 0.929 . S
H649 C663 0.931 . S
H650 C665 0.930 . S
C651 H639 0.930 . S
C651 C652 1.399 . S
C651 C656 1.399 . S
C652 C651 1.399 . S
C652 C653 1.376 . S
C653 H640 0.930 . S
C653 C652 1.376 . S
C653 C654 1.388 . S
C654 H641 0.930 . S
C654 C653 1.388 . S
C654 C655 1.390 . S
C655 C654 1.390 . S
C655 C656 1.394 . S
C655 C661 1.465 . S
C656 C651 1.399 . S
C656 C655 1.394 . S
C656 C657 1.516 . S
C657 C656 1.516 . S
C657 C658 1.502 . S
C657 C659 1.561 . S
C657 C660 1.526 . S
C658 H642 0.959 . S
C658 H643 0.959 . S
C658 H644 0.961 . S
C658 C657 1.502 . S
C659 H645 0.960 . S
C659 H646 0.961 . S
C659 H647 0.959 . S
C659 C657 1.561 . S
C660 C657 1.526 . S
C660 C661 1.396 . S
C660 C665 1.390 . S
C661 C655 1.465 . S
C661 C660 1.396 . S
C661 C662 1.399 . S
C662 H648 0.929 . S
C662 C661 1.399 . S
C662 C663 1.385 . S
C663 H649 0.931 . S
C663 C662 1.385 . S
C663 C664 1.389 . S
C664 C663 1.389 . S
C664 C665 1.387 . S
C665 H650 0.930 . S
C665 C660 1.390 . S
C665 C664 1.387 . S
H666 C678 0.930 . S
H667 C680 0.930 . S
H668 C681 0.930 . S
H669 C685 0.959 . S
H670 C685 0.959 . S
H671 C685 0.961 . S
H672 C686 0.960 . S
H673 C686 0.961 . S
H674 C686 0.959 . S
H675 C689 0.929 . S
H676 C690 0.931 . S
H677 C692 0.930 . S
C678 H666 0.930 . S
C678 C679 1.399 1_556 S
C678 C683 1.399 . S
C679 C678 1.399 1_554 S
C679 C680 1.376 . S
C680 H667 0.930 . S
C680 C679 1.376 . S
C680 C681 1.388 . S
C681 H668 0.930 . S
C681 C680 1.388 . S
C681 C682 1.390 . S
C682 C681 1.390 . S
C682 C683 1.394 1_554 S
C682 C688 1.465 . S
C683 C678 1.399 . S
C683 C682 1.394 1_556 S
C683 C684 1.516 . S
C684 C683 1.516 . S
C684 C685 1.502 . S
C684 C686 1.561 . S
C684 C687 1.526 . S
C685 H669 0.959 . S
C685 H670 0.959 . S
C685 H671 0.961 . S
C685 C684 1.502 . S
C686 H672 0.960 . S
C686 H673 0.961 . S
C686 H674 0.959 . S
C686 C684 1.561 . S
C687 C684 1.526 . S
C687 C688 1.396 1_556 S
C687 C692 1.390 . S
C688 C682 1.465 . S
C688 C687 1.396 1_554 S
C688 C689 1.399 . S
C689 H675 0.929 . S
C689 C688 1.399 . S
C689 C690 1.385 . S
C690 H676 0.931 . S
C690 C689 1.385 . S
C690 C691 1.389 . S
C691 C690 1.389 . S
C691 C692 1.387 1_554 S
C692 H677 0.930 . S
C692 C687 1.390 . S
C692 C691 1.387 1_556 S
H693 C705 0.930 . S
H694 C707 0.930 . S
H695 C708 0.930 . S
H696 C712 0.959 . S
H697 C712 0.959 . S
H698 C712 0.961 . S
H699 C713 0.960 . S
H700 C713 0.961 . S
H701 C713 0.959 . S
H702 C716 0.929 . S
H703 C717 0.931 . S
H704 C719 0.930 . S
C705 H693 0.930 . S
C705 C706 1.399 . S
C705 C710 1.399 . S
C706 C705 1.399 . S
C706 C707 1.376 . S
C707 H694 0.930 . S
C707 C706 1.376 . S
C707 C708 1.388 . S
C708 H695 0.930 . S
C708 C707 1.388 . S
C708 C709 1.390 . S
C709 C708 1.390 . S
C709 C710 1.394 . S
C709 C715 1.465 . S
C710 C705 1.399 . S
C710 C709 1.394 . S
C710 C711 1.516 . S
C711 C710 1.516 . S
C711 C712 1.502 . S
C711 C713 1.561 . S
C711 C714 1.526 . S
C712 H696 0.959 . S
C712 H697 0.959 . S
C712 H698 0.961 . S
C712 C711 1.502 . S
C713 H699 0.960 . S
C713 H700 0.961 . S
C713 H701 0.959 . S
C713 C711 1.561 . S
C714 C711 1.526 . S
C714 C715 1.396 . S
C714 C719 1.390 . S
C715 C709 1.465 . S
C715 C714 1.396 . S
C715 C716 1.399 . S
C716 H702 0.929 . S
C716 C715 1.399 . S
C716 C717 1.385 . S
C717 H703 0.931 . S
C717 C716 1.385 . S
C717 C718 1.389 . S
C718 C717 1.389 . S
C718 C719 1.387 . S
C719 H704 0.930 . S
C719 C714 1.390 . S
C719 C718 1.387 . S
C301 C3 1.003 . S
C313 C147 1.062 . S
C328 C38 1.393 . S
C340 C182 1.330 . S
C355 C219 1.071 . S
C367 C75 1.014 . S
C382 C254 1.345 . S
C394 C110 1.410 . S
C409 C220 1.017 . S
C421 C76 1.090 . S
C436 C266 1.483 . S
C448 C122 1.521 . S
C463 C4 1.047 . S
C475 C148 0.985 . S
C490 C50 1.468 . S
C502 C194 1.523 . S
C517 C74 1.353 . S
C529 C2 1.314 . S
C544 C111 1.318 . S
C556 C39 1.361 . S
C571 C146 1.357 . S
C583 C218 1.308 . S
C598 C255 1.318 . S
C610 C183 1.367 . S
C625 C14 1.214 . S
C637 C184 1.267 . S
C652 C230 1.237 . S
C664 C40 1.293 . S
C679 C86 1.289 . S
C691 C256 1.249 . S
C706 C112 1.298 . S
C718 C158 1.261 . S
