# Generated by pormake.
# Topology umd, (4)-cn, num edge types: 1
# Building blocks:
#     Node 0, Type 0, BuildingBlock: GALJAG_clean_sbu_0, # of connection points: 4
#     Node 1, Type 0, BuildingBlock: GALJAG_clean_sbu_0, # of connection points: 4
#     Node 2, Type 0, BuildingBlock: GALJAG_clean_sbu_0, # of connection points: 4
#     Node 3, Type 0, BuildingBlock: GALJAG_clean_sbu_0, # of connection points: 4
#     Node 4, Type 0, BuildingBlock: GALJAG_clean_sbu_0, # of connection points: 4
#     Node 5, Type 0, BuildingBlock: GALJAG_clean_sbu_0, # of connection points: 4
#     Node 6, Type 0, BuildingBlock: GALJAG_clean_sbu_0, # of connection points: 4
#     Node 7, Type 0, BuildingBlock: GALJAG_clean_sbu_0, # of connection points: 4
#     Node 8, Type 0, BuildingBlock: GALJAG_clean_sbu_0, # of connection points: 4
#     Node 9, Type 0, BuildingBlock: GALJAG_clean_sbu_0, # of connection points: 4
#     Node 10, Type 0, BuildingBlock: GALJAG_clean_sbu_0, # of connection points: 4
#     Node 11, Type 0, BuildingBlock: GALJAG_clean_sbu_0, # of connection points: 4
#     Node 12, Type 0, BuildingBlock: GALJAG_clean_sbu_0, # of connection points: 4
#     Node 13, Type 0, BuildingBlock: GALJAG_clean_sbu_0, # of connection points: 4
#     Node 14, Type 0, BuildingBlock: GALJAG_clean_sbu_0, # of connection points: 4
#     Node 15, Type 0, BuildingBlock: GALJAG_clean_sbu_0, # of connection points: 4
#     Edge 16, Type (0, 0), BuildingBlock: TEMPAE_clean_linker_10, # of connection points: 2
#     Edge 17, Type (0, 0), BuildingBlock: TEMPAE_clean_linker_10, # of connection points: 2
#     Edge 18, Type (0, 0), BuildingBlock: TEMPAE_clean_linker_10, # of connection points: 2
#     Edge 19, Type (0, 0), BuildingBlock: TEMPAE_clean_linker_10, # of connection points: 2
#     Edge 20, Type (0, 0), BuildingBlock: TEMPAE_clean_linker_10, # of connection points: 2
#     Edge 21, Type (0, 0), BuildingBlock: TEMPAE_clean_linker_10, # of connection points: 2
#     Edge 22, Type (0, 0), BuildingBlock: TEMPAE_clean_linker_10, # of connection points: 2
#     Edge 23, Type (0, 0), BuildingBlock: TEMPAE_clean_linker_10, # of connection points: 2
#     Edge 24, Type (0, 0), BuildingBlock: TEMPAE_clean_linker_10, # of connection points: 2
#     Edge 25, Type (0, 0), BuildingBlock: TEMPAE_clean_linker_10, # of connection points: 2
#     Edge 26, Type (0, 0), BuildingBlock: TEMPAE_clean_linker_10, # of connection points: 2
#     Edge 27, Type (0, 0), BuildingBlock: TEMPAE_clean_linker_10, # of connection points: 2
#     Edge 28, Type (0, 0), BuildingBlock: TEMPAE_clean_linker_10, # of connection points: 2
#     Edge 29, Type (0, 0), BuildingBlock: TEMPAE_clean_linker_10, # of connection points: 2
#     Edge 30, Type (0, 0), BuildingBlock: TEMPAE_clean_linker_10, # of connection points: 2
#     Edge 31, Type (0, 0), BuildingBlock: TEMPAE_clean_linker_10, # of connection points: 2
#     Edge 32, Type (0, 0), BuildingBlock: TEMPAE_clean_linker_10, # of connection points: 2
#     Edge 33, Type (0, 0), BuildingBlock: TEMPAE_clean_linker_10, # of connection points: 2
#     Edge 34, Type (0, 0), BuildingBlock: TEMPAE_clean_linker_10, # of connection points: 2
#     Edge 35, Type (0, 0), BuildingBlock: TEMPAE_clean_linker_10, # of connection points: 2
#     Edge 36, Type (0, 0), BuildingBlock: TEMPAE_clean_linker_10, # of connection points: 2
#     Edge 37, Type (0, 0), BuildingBlock: TEMPAE_clean_linker_10, # of connection points: 2
#     Edge 38, Type (0, 0), BuildingBlock: TEMPAE_clean_linker_10, # of connection points: 2
#     Edge 39, Type (0, 0), BuildingBlock: TEMPAE_clean_linker_10, # of connection points: 2
#     Edge 40, Type (0, 0), BuildingBlock: TEMPAE_clean_linker_10, # of connection points: 2
#     Edge 41, Type (0, 0), BuildingBlock: TEMPAE_clean_linker_10, # of connection points: 2
#     Edge 42, Type (0, 0), BuildingBlock: TEMPAE_clean_linker_10, # of connection points: 2
#     Edge 43, Type (0, 0), BuildingBlock: TEMPAE_clean_linker_10, # of connection points: 2
#     Edge 44, Type (0, 0), BuildingBlock: TEMPAE_clean_linker_10, # of connection points: 2
#     Edge 45, Type (0, 0), BuildingBlock: TEMPAE_clean_linker_10, # of connection points: 2
#     Edge 46, Type (0, 0), BuildingBlock: TEMPAE_clean_linker_10, # of connection points: 2
#     Edge 47, Type (0, 0), BuildingBlock: TEMPAE_clean_linker_10, # of connection points: 2
# Relax obj value: 0.079
# Max RMSD: 0.208
# Mean RMSD: 0.208
data_MOF--net-umd--node1-GALJAG_clean_sbu_0--edge1-TEMPAE_clean_linker_10
_symmetry_space_group_name_H-M    P1
_symmetry_Int_Tables_number       1
_symmetry_cell_setting            triclinic
loop_
_symmetry_equiv_pos_as_xyz
'x, y, z'
_cell_length_a     40.280716
_cell_length_b     40.289866
_cell_length_c     57.259289
_cell_angle_alpha  90.00086
_cell_angle_beta   90.012859
_cell_angle_gamma 90.009191
loop_
_atom_site_label
_atom_site_type_symbol
_atom_site_fract_x
_atom_site_fract_y
_atom_site_fract_z
_atom_type_partial_charge
In0 In 0.18151 0.44804 0.12595 0.0
O1 O 0.17726 0.39141 0.12295 0.0
O2 O 0.21478 0.41177 0.14491 0.0
C3 C 0.11784 0.46423 0.11638 0.0
C4 C 0.21407 0.4593 0.08552 0.0
C5 C 0.19345 0.48041 0.1662 0.0
O6 O 0.12542 0.43835 0.12765 0.0
O7 O 0.14228 0.48104 0.10942 0.0
O8 O 0.21422 0.48049 0.14963 0.0
O9 O 0.16702 0.46474 0.16208 0.0
C10 C 0.20148 0.38605 0.13651 0.0
O11 O 0.20682 0.48261 0.09937 0.0
O12 O 0.20567 0.43083 0.0924 0.0
In13 In 0.5508 0.18553 0.63089 0.0
O14 O 0.50737 0.19893 0.60685 0.0
O15 O 0.5531 0.22393 0.60184 0.0
C16 C 0.5213 0.20851 0.67009 0.0
C17 C 0.61731 0.19479 0.63257 0.0
C18 C 0.5422 0.11952 0.62454 0.0
O19 O 0.5394 0.2266 0.65741 0.0
O20 O 0.51676 0.17962 0.66229 0.0
O21 O 0.55494 0.13136 0.64286 0.0
O22 O 0.53497 0.14079 0.60928 0.0
C23 C 0.5239 0.21914 0.59467 0.0
O24 O 0.60234 0.18661 0.61411 0.0
O25 O 0.59897 0.19658 0.65034 0.0
In26 In 0.82213 0.57365 0.1232 0.0
O27 O 0.79612 0.53486 0.10031 0.0
O28 O 0.80309 0.58361 0.08683 0.0
C29 C 0.81091 0.54655 0.16531 0.0
C30 C 0.79659 0.63507 0.128 0.0
C31 C 0.88622 0.55735 0.11522 0.0
O32 O 0.79201 0.54109 0.14811 0.0
O33 O 0.83524 0.5653 0.16106 0.0
O34 O 0.87819 0.58406 0.12534 0.0
O35 O 0.8621 0.53969 0.10882 0.0
C36 C 0.79244 0.5546 0.08335 0.0
O37 O 0.82367 0.63005 0.11738 0.0
O38 O 0.78331 0.6094 0.13646 0.0
In39 In 0.4313 0.82342 0.61758 0.0
O40 O 0.37435 0.82685 0.61577 0.0
O41 O 0.39663 0.78259 0.62883 0.0
C42 C 0.45413 0.8861 0.61505 0.0
C43 C 0.4448 0.80084 0.57432 0.0
C44 C 0.45621 0.8094 0.65984 0.0
O45 O 0.42393 0.87967 0.61917 0.0
O46 O 0.47231 0.861 0.61189 0.0
O47 O 0.46486 0.79321 0.64185 0.0
O48 O 0.43554 0.83238 0.6562 0.0
C49 C 0.37028 0.79808 0.62414 0.0
O50 O 0.46136 0.79134 0.59188 0.0
O51 O 0.42174 0.82099 0.57887 0.0
In52 In 0.17826 0.56774 0.37361 0.0
O53 O 0.1752 0.62485 0.3747 0.0
O54 O 0.21859 0.60116 0.3876 0.0
C55 C 0.11427 0.55121 0.36677 0.0
C56 C 0.18991 0.53417 0.41341 0.0
C57 C 0.2035 0.55569 0.33095 0.0
O58 O 0.12256 0.57727 0.37767 0.0
O59 O 0.13815 0.53422 0.359 0.0
O60 O 0.20636 0.53513 0.34753 0.0
O61 O 0.18856 0.58218 0.33616 0.0
C62 C 0.20383 0.62809 0.38347 0.0
O63 O 0.2114 0.53577 0.39736 0.0
O64 O 0.16302 0.54889 0.40908 0.0
In65 In 0.45912 0.18115 0.87803 0.0
O66 O 0.48198 0.21714 0.90486 0.0
O67 O 0.47015 0.16782 0.91539 0.0
C68 C 0.48064 0.21487 0.83977 0.0
C69 C 0.3936 0.19288 0.88323 0.0
C70 C 0.47686 0.11724 0.87157 0.0
O71 O 0.49963 0.19729 0.8521 0.0
O72 O 0.45155 0.21691 0.84751 0.0
O73 O 0.44782 0.1273 0.86714 0.0
O74 O 0.49648 0.13932 0.87875 0.0
C75 C 0.48167 0.19577 0.92108 0.0
O76 O 0.40453 0.1731 0.8679 0.0
O77 O 0.41554 0.20539 0.89624 0.0
In78 In 0.81862 0.43933 0.37094 0.0
O79 O 0.81988 0.38251 0.37602 0.0
O80 O 0.77363 0.40637 0.36944 0.0
C81 C 0.88197 0.45904 0.36638 0.0
C82 C 0.8041 0.46434 0.4133 0.0
C83 C 0.80131 0.45693 0.3276 0.0
O84 O 0.8746 0.42927 0.37133 0.0
O85 O 0.85754 0.47829 0.36374 0.0
O86 O 0.79256 0.47377 0.34526 0.0
O87 O 0.81837 0.43137 0.33205 0.0
C88 C 0.78887 0.37956 0.37306 0.0
O89 O 0.78544 0.4695 0.39592 0.0
O90 O 0.82937 0.44695 0.40911 0.0
In91 In 0.57164 0.81529 0.86414 0.0
O92 O 0.53664 0.78781 0.88934 0.0
O93 O 0.58037 0.81066 0.9028 0.0
C94 C 0.54936 0.80018 0.82124 0.0
C95 C 0.632 0.78716 0.8624 0.0
C96 C 0.55301 0.87946 0.86572 0.0
O97 O 0.53678 0.78716 0.83933 0.0
O98 O 0.57264 0.82038 0.82508 0.0
O99 O 0.58187 0.87083 0.85956 0.0
O100 O 0.53406 0.85591 0.87135 0.0
C101 C 0.55441 0.79421 0.90703 0.0
O102 O 0.62815 0.81721 0.86823 0.0
O103 O 0.60558 0.7718 0.85748 0.0
In104 In 0.83149 0.55862 0.87294 0.0
O105 O 0.83658 0.61549 0.87109 0.0
O106 O 0.79084 0.59442 0.88246 0.0
C107 C 0.89317 0.53347 0.8706 0.0
C108 C 0.81723 0.53738 0.916 0.0
C109 C 0.80803 0.54311 0.83035 0.0
O110 O 0.88784 0.56441 0.86982 0.0
O111 O 0.86755 0.51561 0.8723 0.0
O112 O 0.79855 0.52778 0.84844 0.0
O113 O 0.8289 0.5658 0.834 0.0
C114 C 0.8072 0.62034 0.87811 0.0
O115 O 0.79982 0.52886 0.89856 0.0
O116 O 0.84153 0.55615 0.91145 0.0
In117 In 0.44011 0.81515 0.36681 0.0
O118 O 0.47869 0.8134 0.3961 0.0
O119 O 0.44556 0.77303 0.39359 0.0
C120 C 0.46099 0.79878 0.32371 0.0
C121 C 0.37525 0.79781 0.36698 0.0
C122 C 0.45358 0.88073 0.36858 0.0
O123 O 0.47162 0.78373 0.34164 0.0
O124 O 0.44014 0.8214 0.32777 0.0
O125 O 0.42792 0.86863 0.37806 0.0
O126 O 0.47172 0.85993 0.35826 0.0
C127 C 0.46859 0.78666 0.40492 0.0
O128 O 0.38652 0.8196 0.38075 0.0
O129 O 0.39636 0.78603 0.35305 0.0
In130 In 0.1883 0.42036 0.87185 0.0
O131 O 0.21827 0.45144 0.89805 0.0
O132 O 0.18361 0.41563 0.91078 0.0
C133 C 0.20135 0.44524 0.82935 0.0
C134 C 0.22011 0.36166 0.8702 0.0
C135 C 0.12432 0.43886 0.87278 0.0
O136 O 0.21436 0.45746 0.84757 0.0
O137 O 0.18243 0.4208 0.83284 0.0
O138 O 0.13291 0.40991 0.86664 0.0
O139 O 0.14781 0.45793 0.87847 0.0
C140 C 0.20461 0.43789 0.91556 0.0
O141 O 0.1892 0.36333 0.87398 0.0
O142 O 0.23427 0.38927 0.86727 0.0
In143 In 0.55638 0.17981 0.38392 0.0
O144 O 0.6133 0.17742 0.38085 0.0
O145 O 0.59089 0.22192 0.39326 0.0
C146 C 0.535 0.11663 0.38086 0.0
C147 C 0.5322 0.19365 0.42654 0.0
C148 C 0.54058 0.20129 0.34083 0.0
O149 O 0.56452 0.12367 0.38663 0.0
O150 O 0.51672 0.14133 0.37663 0.0
O151 O 0.52454 0.21061 0.35869 0.0
O152 O 0.56452 0.182 0.345 0.0
C153 C 0.6173 0.20677 0.38818 0.0
O154 O 0.52312 0.2099 0.4087 0.0
O155 O 0.55272 0.17067 0.42254 0.0
In156 In 0.8121 0.43273 0.62552 0.0
O157 O 0.81245 0.37578 0.62581 0.0
O158 O 0.76641 0.4013 0.62989 0.0
C159 C 0.87621 0.45104 0.62198 0.0
C160 C 0.79129 0.4483 0.58246 0.0
C161 C 0.79849 0.45644 0.66826 0.0
O162 O 0.86789 0.4222 0.62848 0.0
O163 O 0.85238 0.47003 0.61698 0.0
O164 O 0.78405 0.4677 0.6503 0.0
O165 O 0.81934 0.4338 0.66437 0.0
C166 C 0.78131 0.3738 0.62854 0.0
O167 O 0.78595 0.46736 0.59965 0.0
O168 O 0.80692 0.42197 0.58721 0.0
In169 In 0.55543 0.82056 0.11721 0.0
O170 O 0.61216 0.82657 0.11982 0.0
O171 O 0.59266 0.78242 0.10488 0.0
C172 C 0.53587 0.88397 0.12264 0.0
C173 C 0.52718 0.80604 0.07578 0.0
C174 C 0.54095 0.79539 0.15958 0.0
O175 O 0.56307 0.87645 0.11293 0.0
O176 O 0.51891 0.85961 0.12969 0.0
O177 O 0.52222 0.79068 0.14214 0.0
O178 O 0.56674 0.81206 0.15533 0.0
C179 C 0.61808 0.79848 0.11091 0.0
O180 O 0.52748 0.78536 0.0924 0.0
O181 O 0.54019 0.83371 0.08043 0.0
In182 In 0.1727 0.5626 0.62637 0.0
O183 O 0.19885 0.52885 0.59995 0.0
O184 O 0.17171 0.57099 0.58765 0.0
C185 C 0.1917 0.54184 0.66899 0.0
C186 C 0.2021 0.62232 0.62512 0.0
C187 C 0.10933 0.54149 0.62481 0.0
O188 O 0.20351 0.52919 0.65055 0.0
O189 O 0.17069 0.56452 0.66569 0.0
O190 O 0.11658 0.57132 0.62949 0.0
O191 O 0.13384 0.5228 0.62105 0.0
C192 C 0.18949 0.54614 0.58266 0.0
O193 O 0.17102 0.61958 0.62791 0.0
O194 O 0.2177 0.59526 0.62352 0.0
In195 In 0.43457 0.18361 0.13434 0.0
O196 O 0.47097 0.20814 0.10859 0.0
O197 O 0.42829 0.18305 0.09539 0.0
C198 C 0.45445 0.20048 0.17751 0.0
C199 C 0.37616 0.21573 0.13476 0.0
C200 C 0.45233 0.11922 0.13354 0.0
O201 O 0.46776 0.21297 0.15949 0.0
O202 O 0.43132 0.18012 0.17351 0.0
O203 O 0.42268 0.12829 0.12994 0.0
O204 O 0.4725 0.14248 0.13751 0.0
C205 C 0.4541 0.19959 0.0909 0.0
O206 O 0.37783 0.18474 0.13829 0.0
O207 O 0.40369 0.22991 0.1314 0.0
C208 C 0.05777 0.46294 0.12724 0.0
C209 C 0.08333 0.47593 0.1134 0.0
C210 C 0.02569 0.47654 0.12645 0.0
C211 C 0.01896 0.50339 0.11118 0.0
C212 C 0.04441 0.51575 0.09653 0.0
C213 C 0.07637 0.50204 0.09796 0.0
C214 C 0.99925 0.46284 0.14247 0.0
C215 C 0.03806 0.54391 0.07971 0.0
C216 C 0.9282 0.51961 0.09744 0.0
C217 C 0.92087 0.54593 0.11261 0.0
C218 C 0.96028 0.50616 0.09628 0.0
C219 C 0.98548 0.51898 0.11095 0.0
C220 C 0.97839 0.54608 0.12593 0.0
C221 C 0.94618 0.55944 0.12644 0.0
C222 C 0.96699 0.47773 0.07975 0.0
C223 C 0.00455 0.56023 0.14198 0.0
H224 H 0.06312 0.44291 0.13931 0.0
H225 H 0.09607 0.51209 0.08716 0.0
H226 H 0.99062 0.48259 0.15454 0.0
H227 H 0.97743 0.45464 0.13215 0.0
H228 H 0.00833 0.44153 0.153 0.0
H229 H 0.05998 0.54933 0.06857 0.0
H230 H 0.01668 0.53788 0.06825 0.0
H231 H 0.03152 0.5667 0.08955 0.0
H232 H 0.90869 0.5092 0.08664 0.0
H233 H 0.94053 0.57965 0.13828 0.0
H234 H 0.97334 0.45511 0.08985 0.0
H235 H 0.98861 0.48357 0.06847 0.0
H236 H 0.94531 0.47212 0.06843 0.0
H237 H 0.01295 0.54082 0.1544 0.0
H238 H 0.99529 0.58183 0.15213 0.0
H239 H 0.02656 0.56813 0.13176 0.0
C240 C 0.50126 0.92549 0.6094 0.0
C241 C 0.46775 0.92017 0.61494 0.0
C242 C 0.51513 0.9574 0.6102 0.0
C243 C 0.49503 0.98461 0.61682 0.0
C244 C 0.46109 0.97945 0.6222 0.0
C245 C 0.44782 0.94726 0.62114 0.0
C246 C 0.55135 0.96196 0.60419 0.0
C247 C 0.4389 0.00789 0.62937 0.0
C248 C 0.53538 0.06254 0.6411 0.0
C249 C 0.53331 0.08413 0.62197 0.0
C250 C 0.52352 0.02984 0.63955 0.0
C251 C 0.50952 0.01849 0.61831 0.0
C252 C 0.50848 0.03984 0.5987 0.0
C253 C 0.52028 0.07246 0.60079 0.0
C254 C 0.52503 0.00779 0.66085 0.0
C255 C 0.49409 0.02851 0.57568 0.0
H256 H 0.51679 0.90462 0.60456 0.0
H257 H 0.42194 0.94325 0.6255 0.0
H258 H 0.55398 0.98016 0.58977 0.0
H259 H 0.56489 0.97213 0.61947 0.0
H260 H 0.56338 0.93834 0.59885 0.0
H261 H 0.413 0.99976 0.63281 0.0
H262 H 0.44884 0.01979 0.64539 0.0
H263 H 0.43852 0.02708 0.61548 0.0
H264 H 0.54533 0.0715 0.65753 0.0
H265 H 0.5187 0.08905 0.58593 0.0
H266 H 0.53818 0.98435 0.65664 0.0
H267 H 0.4995 0.00106 0.66638 0.0
H268 H 0.53784 0.01994 0.67575 0.0
H269 H 0.50649 0.00537 0.56983 0.0
H270 H 0.49676 0.04755 0.56177 0.0
H271 H 0.46733 0.02278 0.57785 0.0
C272 C 0.05558 0.55044 0.38081 0.0
C273 C 0.0796 0.53966 0.36483 0.0
C274 C 0.02342 0.53699 0.38059 0.0
C275 C 0.01495 0.51279 0.36365 0.0
C276 C 0.03884 0.50267 0.34699 0.0
C277 C 0.07102 0.51595 0.34796 0.0
C278 C 0.99876 0.54804 0.39887 0.0
C279 C 0.03053 0.47756 0.3283 0.0
C280 C 0.94235 0.45505 0.37615 0.0
C281 C 0.91641 0.47125 0.36454 0.0
C282 C 0.97464 0.46829 0.376 0.0
C283 C 0.98113 0.49793 0.36346 0.0
C284 C 0.95517 0.51371 0.35107 0.0
C285 C 0.92304 0.5004 0.352 0.0
C286 C 0.00158 0.45107 0.38975 0.0
C287 C 0.96125 0.54485 0.33702 0.0
H288 H 0.06228 0.56854 0.39401 0.0
H289 H 0.08956 0.50766 0.33554 0.0
H290 H 0.97637 0.55857 0.39036 0.0
H291 H 0.99056 0.52636 0.40934 0.0
H292 H 0.00929 0.56698 0.41087 0.0
H293 H 0.05144 0.47358 0.31596 0.0
H294 H 0.02411 0.45344 0.33646 0.0
H295 H 0.0085 0.48588 0.31824 0.0
H296 H 0.93719 0.43265 0.38599 0.0
H297 H 0.903 0.51284 0.34287 0.0
H298 H 0.01155 0.46816 0.40324 0.0
H299 H 0.02249 0.44435 0.37808 0.0
H300 H 0.9925 0.42819 0.3985 0.0
H301 H 0.96918 0.56526 0.34876 0.0
H302 H 0.93879 0.553 0.32733 0.0
H303 H 0.98163 0.54068 0.32432 0.0
C304 C 0.55716 0.93803 0.85174 0.0
C305 C 0.54171 0.91426 0.86589 0.0
C306 C 0.54571 0.97094 0.85124 0.0
C307 C 0.51882 0.98036 0.86574 0.0
C308 C 0.5033 0.95642 0.88017 0.0
C309 C 0.51467 0.92354 0.87983 0.0
C310 C 0.56239 0.99563 0.83525 0.0
C311 C 0.47515 0.96568 0.89633 0.0
C312 C 0.51365 0.07082 0.88343 0.0
C313 C 0.48721 0.08225 0.86971 0.0
C314 C 0.52395 0.03767 0.88241 0.0
C315 C 0.50803 0.01561 0.86679 0.0
C316 C 0.4816 0.02713 0.85259 0.0
C317 C 0.47113 0.06032 0.85448 0.0
C318 C 0.55159 0.02615 0.89831 0.0
C319 C 0.46458 0.00449 0.83533 0.0
H320 H 0.57783 0.93075 0.84075 0.0
H321 H 0.50274 0.90515 0.89082 0.0
H322 H 0.54362 0.00779 0.82392 0.0
H323 H 0.57444 0.0154 0.84572 0.0
H324 H 0.58149 0.98385 0.82398 0.0
H325 H 0.46566 0.94404 0.90633 0.0
H326 H 0.48364 0.98487 0.90889 0.0
H327 H 0.45434 0.97653 0.88621 0.0
H328 H 0.52592 0.08773 0.89538 0.0
H329 H 0.45081 0.06925 0.84378 0.0
H330 H 0.57266 0.01667 0.88779 0.0
H331 H 0.54274 0.00537 0.90941 0.0
H332 H 0.56085 0.04631 0.90984 0.0
H333 H 0.48316 0.99371 0.8232 0.0
H334 H 0.44536 0.01763 0.82493 0.0
H335 H 0.45265 0.98353 0.84466 0.0
C336 C 0.95299 0.53515 0.85915 0.0
C337 C 0.92674 0.51894 0.87038 0.0
C338 C 0.98489 0.52106 0.85872 0.0
C339 C 0.99074 0.49068 0.87051 0.0
C340 C 0.96429 0.47446 0.88211 0.0
C341 C 0.93247 0.48854 0.88157 0.0
C342 C 0.01229 0.53862 0.84565 0.0
C343 C 0.96974 0.44264 0.89552 0.0
C344 C 0.06714 0.43918 0.85597 0.0
C345 C 0.08963 0.45036 0.87287 0.0
C346 C 0.03489 0.45238 0.85479 0.0
C347 C 0.02476 0.4764 0.87141 0.0
C348 C 0.04717 0.48689 0.88896 0.0
C349 C 0.07955 0.47416 0.88921 0.0
C350 C 0.01198 0.44129 0.83543 0.0
C351 C 0.037 0.5116 0.90747 0.0
H352 H 0.94844 0.55854 0.85035 0.0
H353 H 0.91217 0.47614 0.89042 0.0
H354 H 0.03199 0.54646 0.858 0.0
H355 H 0.02387 0.52144 0.83288 0.0
H356 H 0.00317 0.56089 0.83617 0.0
H357 H 0.94657 0.43335 0.90376 0.0
H358 H 0.97954 0.42313 0.88373 0.0
H359 H 0.98857 0.44669 0.90938 0.0
H360 H 0.07516 0.42104 0.84318 0.0
H361 H 0.097 0.48266 0.90234 0.0
H362 H 0.00427 0.46306 0.82486 0.0
H363 H 0.98912 0.43021 0.84289 0.0
H364 H 0.02383 0.4228 0.8237 0.0
H365 H 0.03084 0.53574 0.89924 0.0
H366 H 0.05684 0.51574 0.92063 0.0
H367 H 0.01435 0.50277 0.91659 0.0
C368 C 0.53936 0.05606 0.39003 0.0
C369 C 0.52238 0.08227 0.37927 0.0
C370 C 0.527 0.02348 0.38896 0.0
C371 C 0.49737 0.01696 0.37642 0.0
C372 C 0.48028 0.04335 0.36541 0.0
C373 C 0.49283 0.07574 0.36717 0.0
C374 C 0.54566 0.99604 0.40122 0.0
C375 C 0.44904 0.03732 0.35145 0.0
C376 C 0.48582 0.92912 0.354 0.0
C377 C 0.46288 0.91612 0.36998 0.0
C378 C 0.49673 0.96207 0.35566 0.0
C379 C 0.48494 0.98233 0.37406 0.0
C380 C 0.46155 0.96943 0.39017 0.0
C381 C 0.4505 0.93649 0.38778 0.0
C382 C 0.5211 0.97509 0.33782 0.0
C383 C 0.44881 0.99017 0.41021 0.0
H384 H 0.56208 0.06109 0.39954 0.0
H385 H 0.4797 0.09594 0.35874 0.0
H386 H 0.52888 0.98282 0.41346 0.0
H387 H 0.5545 0.97759 0.38825 0.0
H388 H 0.5674 0.00547 0.41115 0.0
H389 H 0.43862 0.06059 0.34407 0.0
H390 H 0.45435 0.01995 0.33688 0.0
H391 H 0.4299 0.02548 0.36261 0.0
H392 H 0.49531 0.91345 0.34013 0.0
H393 H 0.43295 0.92638 0.40025 0.0
H394 H 0.54465 0.98214 0.34655 0.0
H395 H 0.51104 0.99776 0.32939 0.0
H396 H 0.52674 0.95654 0.32403 0.0
H397 H 0.46987 0.99805 0.42141 0.0
H398 H 0.43059 0.97651 0.42116 0.0
H399 H 0.43682 0.01303 0.40347 0.0
C400 C 0.93466 0.44927 0.63647 0.0
C401 C 0.91091 0.46267 0.62131 0.0
C402 C 0.96699 0.46231 0.63734 0.0
C403 C 0.9759 0.48866 0.62219 0.0
C404 C 0.95218 0.50158 0.60637 0.0
C405 C 0.91981 0.48875 0.60638 0.0
C406 C 0.99138 0.44842 0.65482 0.0
C407 C 0.96097 0.52896 0.58945 0.0
C408 C 0.0497 0.54385 0.63683 0.0
C409 C 0.07497 0.5289 0.62376 0.0
C410 C 0.01737 0.53071 0.63677 0.0
C411 C 0.01009 0.50263 0.62275 0.0
C412 C 0.03545 0.48798 0.60911 0.0
C413 C 0.0677 0.50101 0.61006 0.0
C414 C 0.99115 0.54653 0.65196 0.0
C415 C 0.0285 0.45866 0.59342 0.0
H416 H 0.92764 0.42936 0.6482 0.0
H417 H 0.90142 0.49905 0.59459 0.0
H418 H 0.01342 0.43832 0.64565 0.0
H419 H 0.00024 0.46852 0.66652 0.0
H420 H 0.98035 0.4284 0.66567 0.0
H421 H 0.94005 0.53522 0.5776 0.0
H422 H 0.96818 0.55165 0.59918 0.0
H423 H 0.98265 0.52148 0.57871 0.0
H424 H 0.05541 0.56526 0.64757 0.0
H425 H 0.08724 0.48957 0.59982 0.0
H426 H 0.98072 0.52779 0.66413 0.0
H427 H 0.97038 0.5557 0.641 0.0
H428 H 0.00106 0.56762 0.66234 0.0
H429 H 0.01988 0.43725 0.60398 0.0
H430 H 0.05073 0.45092 0.58331 0.0
H431 H 0.00831 0.46488 0.58098 0.0
C432 C 0.49239 0.07481 0.1444 0.0
C433 C 0.46317 0.08423 0.13288 0.0
C434 C 0.50397 0.04203 0.14341 0.0
C435 C 0.48633 0.01828 0.13007 0.0
C436 C 0.45674 0.02766 0.1184 0.0
C437 C 0.44525 0.0605 0.12021 0.0
C438 C 0.53513 0.03283 0.15658 0.0
C439 C 0.43764 0.00319 0.10363 0.0
C440 C 0.53524 0.94306 0.10952 0.0
C441 C 0.52397 0.91846 0.12487 0.0
C442 C 0.52274 0.97556 0.11075 0.0
C443 C 0.49912 0.98374 0.12816 0.0
C444 C 0.48817 0.95907 0.14398 0.0
C445 C 0.5004 0.92659 0.14193 0.0
C446 C 0.53451 0.00102 0.09326 0.0
C447 C 0.46373 0.96702 0.16318 0.0
H448 H 0.50617 0.09311 0.15435 0.0
H449 H 0.42277 0.06784 0.11117 0.0
H450 H 0.53007 0.0117 0.16849 0.0
H451 H 0.55461 0.02467 0.14416 0.0
H452 H 0.54503 0.05386 0.16703 0.0
H453 H 0.41523 0.01447 0.09556 0.0
H454 H 0.45385 0.99347 0.08953 0.0
H455 H 0.4298 0.98169 0.1144 0.0
H456 H 0.55324 0.93671 0.09617 0.0
H457 H 0.49178 0.90757 0.15389 0.0
H458 H 0.547 0.02181 0.10242 0.0
H459 H 0.51294 0.0116 0.08376 0.0
H460 H 0.55207 0.99036 0.08032 0.0
H461 H 0.47366 0.98724 0.17434 0.0
H462 H 0.45833 0.94517 0.17439 0.0
H463 H 0.44009 0.97603 0.15554 0.0
C464 C 0.20807 0.57182 0.2891 0.0
C465 C 0.21285 0.54796 0.30662 0.0
C466 C 0.21055 0.5633 0.26543 0.0
C467 C 0.21795 0.53015 0.25921 0.0
C468 C 0.22561 0.50668 0.27683 0.0
C469 C 0.22295 0.51589 0.3004 0.0
C470 C 0.20242 0.58912 0.24719 0.0
C471 C 0.23388 0.47114 0.27087 0.0
C472 C 0.17435 0.49592 0.20591 0.0
C473 C 0.19988 0.49533 0.1893 0.0
C474 C 0.18 0.50751 0.22858 0.0
C475 C 0.21206 0.51879 0.23488 0.0
C476 C 0.23787 0.51892 0.21809 0.0
C477 C 0.23145 0.50717 0.19539 0.0
C478 C 0.15168 0.50719 0.24591 0.0
C479 C 0.2723 0.53082 0.22424 0.0
H480 H 0.20064 0.59679 0.29382 0.0
H481 H 0.22693 0.49744 0.31389 0.0
H482 H 0.22032 0.588 0.23251 0.0
H483 H 0.17736 0.58411 0.23994 0.0
H484 H 0.20255 0.61464 0.25455 0.0
H485 H 0.24425 0.45753 0.28609 0.0
H486 H 0.21102 0.45818 0.26505 0.0
H487 H 0.25198 0.47003 0.2563 0.0
H488 H 0.14986 0.48689 0.20128 0.0
H489 H 0.25128 0.50662 0.1826 0.0
H490 H 0.14742 0.53257 0.25281 0.0
H491 H 0.15805 0.49105 0.26096 0.0
H492 H 0.12816 0.49806 0.23808 0.0
H493 H 0.27121 0.5563 0.23153 0.0
H494 H 0.28918 0.53083 0.2089 0.0
H495 H 0.28308 0.51458 0.23793 0.0
C496 C 0.49234 0.19588 0.70741 0.0
C497 C 0.51069 0.21823 0.69383 0.0
C498 C 0.48711 0.20161 0.73125 0.0
C499 C 0.50045 0.23051 0.74178 0.0
C500 C 0.51715 0.25426 0.72785 0.0
C501 C 0.52216 0.24779 0.70398 0.0
C502 C 0.46892 0.17573 0.74544 0.0
C503 C 0.53127 0.28557 0.73836 0.0
C504 C 0.46615 0.24369 0.80257 0.0
C505 C 0.48949 0.22635 0.81606 0.0
C506 C 0.47068 0.2478 0.77844 0.0
C507 C 0.49907 0.234 0.76762 0.0
C508 C 0.52407 0.21907 0.78151 0.0
C509 C 0.51902 0.21554 0.80562 0.0
C510 C 0.4438 0.2645 0.76432 0.0
C511 C 0.55482 0.2042 0.77066 0.0
H512 H 0.48327 0.17308 0.69963 0.0
H513 H 0.53636 0.26518 0.69355 0.0
H514 H 0.48621 0.16437 0.75825 0.0
H515 H 0.44843 0.18737 0.75545 0.0
H516 H 0.45839 0.15568 0.73436 0.0
H517 H 0.53876 0.30375 0.72476 0.0
H518 H 0.51297 0.29746 0.75017 0.0
H519 H 0.55345 0.27932 0.74898 0.0
H520 H 0.44338 0.25237 0.8106 0.0
H521 H 0.53721 0.20226 0.81599 0.0
H522 H 0.4291 0.24536 0.75498 0.0
H523 H 0.4547 0.28121 0.75097 0.0
H524 H 0.42666 0.27908 0.77553 0.0
H525 H 0.54791 0.18167 0.76062 0.0
H526 H 0.57356 0.1971 0.784 0.0
H527 H 0.56636 0.22192 0.75827 0.0
C528 C 0.82897 0.53739 0.20628 0.0
C529 C 0.80517 0.5326 0.18877 0.0
C530 C 0.82437 0.52443 0.22871 0.0
C531 C 0.79511 0.50638 0.23379 0.0
C532 C 0.77073 0.50175 0.21628 0.0
C533 C 0.77612 0.51485 0.19386 0.0
C534 C 0.8511 0.52967 0.24687 0.0
C535 C 0.73917 0.48279 0.22119 0.0
C536 C 0.80621 0.44804 0.28477 0.0
C537 C 0.79481 0.46755 0.30338 0.0
C538 C 0.80455 0.45959 0.26174 0.0
C539 C 0.79109 0.49138 0.25727 0.0
C540 C 0.77757 0.51029 0.27581 0.0
C541 C 0.77965 0.49814 0.29874 0.0
C542 C 0.81924 0.43868 0.24243 0.0
C543 C 0.76275 0.54418 0.27164 0.0
H544 H 0.85147 0.55111 0.20242 0.0
H545 H 0.75759 0.51125 0.18036 0.0
H546 H 0.84055 0.54228 0.26241 0.0
H547 H 0.86093 0.50533 0.25275 0.0
H548 H 0.87211 0.54478 0.24017 0.0
H549 H 0.72209 0.48258 0.20596 0.0
H550 H 0.74519 0.45678 0.22591 0.0
H551 H 0.72605 0.49391 0.23633 0.0
H552 H 0.8177 0.42421 0.28825 0.0
H553 H 0.77061 0.51319 0.31308 0.0
H554 H 0.84234 0.45053 0.23596 0.0
H555 H 0.80182 0.43699 0.22748 0.0
H556 H 0.82532 0.41315 0.2484 0.0
H557 H 0.78281 0.56198 0.26721 0.0
H558 H 0.74934 0.55365 0.28722 0.0
H559 H 0.74533 0.54353 0.25663 0.0
C560 C 0.50834 0.77544 0.79323 0.0
C561 C 0.53725 0.79392 0.7973 0.0
C562 C 0.49511 0.77272 0.77058 0.0
C563 C 0.5112 0.78895 0.75177 0.0
C564 C 0.54135 0.80607 0.75568 0.0
C565 C 0.554 0.8083 0.77837 0.0
C566 C 0.46307 0.75398 0.76701 0.0
C567 C 0.55927 0.82377 0.73612 0.0
C568 C 0.48945 0.77504 0.68792 0.0
C569 C 0.46908 0.80254 0.68349 0.0
C570 C 0.50225 0.76928 0.71041 0.0
C571 C 0.49475 0.7918 0.72865 0.0
C572 C 0.47356 0.81913 0.72432 0.0
C573 C 0.4609 0.82406 0.70184 0.0
C574 C 0.52447 0.73969 0.7145 0.0
C575 C 0.4652 0.84392 0.74324 0.0
H576 H 0.49545 0.76411 0.8078 0.0
H577 H 0.57657 0.82232 0.78138 0.0
H578 H 0.4427 0.77183 0.76351 0.0
H579 H 0.46496 0.73736 0.75162 0.0
H580 H 0.45627 0.73893 0.78254 0.0
H581 H 0.58392 0.83333 0.74166 0.0
H582 H 0.56283 0.80689 0.72103 0.0
H583 H 0.54405 0.84503 0.73001 0.0
H584 H 0.49558 0.75819 0.67381 0.0
H585 H 0.44507 0.8453 0.69854 0.0
H586 H 0.51594 0.72553 0.73 0.0
H587 H 0.55012 0.74826 0.71816 0.0
H588 H 0.52513 0.72276 0.69919 0.0
H589 H 0.45481 0.83099 0.7587 0.0
H590 H 0.44701 0.86284 0.73729 0.0
H591 H 0.48811 0.85686 0.74897 0.0
C592 C 0.77463 0.50869 0.80246 0.0
C593 C 0.79787 0.53394 0.80645 0.0
C594 C 0.76819 0.49741 0.77968 0.0
C595 C 0.78586 0.5114 0.7607 0.0
C596 C 0.80779 0.53826 0.76457 0.0
C597 C 0.81334 0.54934 0.78739 0.0
C598 C 0.74403 0.46923 0.77612 0.0
C599 C 0.82742 0.55367 0.74486 0.0
C600 C 0.81231 0.45693 0.71046 0.0
C601 C 0.79269 0.46901 0.69212 0.0
C602 C 0.80927 0.46968 0.73305 0.0
C603 C 0.78573 0.49494 0.73752 0.0
C604 C 0.76474 0.50626 0.71934 0.0
C605 C 0.76864 0.49328 0.69671 0.0
C606 C 0.83238 0.45711 0.75189 0.0
C607 C 0.739 0.53278 0.72362 0.0
H608 H 0.76231 0.49701 0.81715 0.0
H609 H 0.83112 0.5691 0.79035 0.0
H610 H 0.72793 0.47404 0.76076 0.0
H611 H 0.75797 0.44601 0.77264 0.0
H612 H 0.7281 0.46525 0.7917 0.0
H613 H 0.84083 0.57643 0.75044 0.0
H614 H 0.84591 0.53549 0.73831 0.0
H615 H 0.81086 0.56008 0.73007 0.0
H616 H 0.83084 0.43803 0.70705 0.0
H617 H 0.75324 0.50246 0.68259 0.0
H618 H 0.81794 0.44851 0.76723 0.0
H619 H 0.84875 0.47757 0.75786 0.0
H620 H 0.84825 0.43631 0.74575 0.0
H621 H 0.72441 0.52701 0.73955 0.0
H622 H 0.72171 0.5355 0.70863 0.0
H623 H 0.7515 0.55695 0.7266 0.0
C624 C 0.46517 0.81454 0.28194 0.0
C625 C 0.47253 0.79181 0.29973 0.0
C626 C 0.47677 0.80976 0.25917 0.0
C627 C 0.49578 0.78119 0.25388 0.0
C628 C 0.50241 0.75751 0.27157 0.0
C629 C 0.49097 0.76328 0.29444 0.0
C630 C 0.46955 0.83593 0.24094 0.0
C631 C 0.52204 0.72646 0.26643 0.0
C632 C 0.50228 0.76902 0.18845 0.0
C633 C 0.53199 0.78581 0.18369 0.0
C634 C 0.49139 0.76465 0.21157 0.0
C635 C 0.51044 0.77789 0.23018 0.0
C636 C 0.54153 0.7928 0.22548 0.0
C637 C 0.55202 0.79635 0.2023 0.0
C638 C 0.45847 0.7479 0.21596 0.0
C639 C 0.56249 0.80756 0.24474 0.0
H640 H 0.45096 0.83667 0.28593 0.0
H641 H 0.49646 0.74555 0.30814 0.0
H642 H 0.49317 0.8467 0.23446 0.0
H643 H 0.45668 0.82465 0.22577 0.0
H644 H 0.45387 0.85639 0.24784 0.0
H645 H 0.52208 0.70894 0.28141 0.0
H646 H 0.51168 0.71362 0.25091 0.0
H647 H 0.54809 0.73311 0.26228 0.0
H648 H 0.48688 0.7605 0.17413 0.0
H649 H 0.57518 0.8091 0.19875 0.0
H650 H 0.43953 0.76692 0.22027 0.0
H651 H 0.46021 0.73071 0.23105 0.0
H652 H 0.44978 0.7338 0.20044 0.0
H653 H 0.55 0.83 0.25176 0.0
H654 H 0.5876 0.81479 0.23852 0.0
H655 H 0.56528 0.78976 0.25937 0.0
C656 C 0.22944 0.48414 0.80137 0.0
C657 C 0.20618 0.459 0.8057 0.0
C658 C 0.23245 0.49823 0.77899 0.0
C659 C 0.21132 0.4872 0.76079 0.0
C660 C 0.18844 0.46124 0.76501 0.0
C661 C 0.18633 0.44734 0.78733 0.0
C662 C 0.25749 0.5255 0.77499 0.0
C663 C 0.16512 0.44904 0.74618 0.0
C664 C 0.18362 0.54387 0.712 0.0
C665 C 0.20015 0.53021 0.69272 0.0
C666 C 0.18849 0.53123 0.73451 0.0
C667 C 0.21068 0.50443 0.73787 0.0
C668 C 0.22892 0.49178 0.71869 0.0
C669 C 0.22328 0.50472 0.69624 0.0
C670 C 0.16833 0.54527 0.75445 0.0
C671 C 0.25316 0.46354 0.72169 0.0
H672 H 0.24498 0.49305 0.8155 0.0
H673 H 0.16832 0.42788 0.79056 0.0
H674 H 0.2724 0.52025 0.75913 0.0
H675 H 0.2444 0.54934 0.77203 0.0
H676 H 0.27456 0.52856 0.79008 0.0
H677 H 0.14981 0.42768 0.75205 0.0
H678 H 0.14822 0.46943 0.74084 0.0
H679 H 0.17935 0.44144 0.73049 0.0
H680 H 0.16588 0.56376 0.70943 0.0
H681 H 0.23634 0.49431 0.68139 0.0
H682 H 0.18466 0.55157 0.7694 0.0
H683 H 0.15034 0.52633 0.76062 0.0
H684 H 0.15431 0.56787 0.7493 0.0
H685 H 0.26962 0.46814 0.73689 0.0
H686 H 0.26874 0.45981 0.7059 0.0
H687 H 0.23935 0.44025 0.7252 0.0
C688 C 0.54659 0.19357 0.29795 0.0
C689 C 0.53057 0.20935 0.31664 0.0
C690 C 0.53494 0.19697 0.27503 0.0
C691 C 0.50684 0.21708 0.27061 0.0
C692 C 0.49188 0.23488 0.28918 0.0
C693 C 0.50377 0.23057 0.31208 0.0
C694 C 0.55142 0.17725 0.25581 0.0
C695 C 0.46231 0.2571 0.28504 0.0
C696 C 0.48928 0.23226 0.20621 0.0
C697 C 0.46601 0.20725 0.20154 0.0
C698 C 0.50165 0.23705 0.22894 0.0
C699 C 0.4909 0.21588 0.2472 0.0
C700 C 0.46672 0.19123 0.24263 0.0
C701 C 0.4544 0.18742 0.21993 0.0
C702 C 0.52691 0.26401 0.23328 0.0
C703 C 0.45491 0.1678 0.2615 0.0
H704 H 0.56744 0.17724 0.30132 0.0
H705 H 0.49148 0.24304 0.32645 0.0
H706 H 0.53407 0.15787 0.24942 0.0
H707 H 0.55746 0.19353 0.24079 0.0
H708 H 0.57458 0.16493 0.26179 0.0
H709 H 0.45686 0.27301 0.30042 0.0
H710 H 0.46655 0.27321 0.26961 0.0
H711 H 0.44011 0.24167 0.28133 0.0
H712 H 0.49813 0.2478 0.19206 0.0
H713 H 0.43639 0.16805 0.21645 0.0
H714 H 0.55145 0.25268 0.23697 0.0
H715 H 0.51985 0.27888 0.24882 0.0
H716 H 0.52953 0.2809 0.21805 0.0
H717 H 0.47603 0.15249 0.26775 0.0
H718 H 0.43498 0.15091 0.25528 0.0
H719 H 0.44541 0.182 0.27668 0.0
C720 C 0.18857 0.43876 0.95731 0.0
C721 C 0.21149 0.44744 0.93998 0.0
C722 C 0.19453 0.44598 0.98082 0.0
C723 C 0.22451 0.46187 0.9873 0.0
C724 C 0.24754 0.47144 0.96984 0.0
C725 C 0.24062 0.46428 0.94625 0.0
C726 C 0.16899 0.43576 0.99878 0.0
C727 C 0.27988 0.48808 0.97612 0.0
C728 C 0.21701 0.49322 0.04917 0.0
C729 C 0.22609 0.4646 0.0615 0.0
C730 C 0.21955 0.49426 0.0247 0.0
C731 C 0.2319 0.4662 0.01256 0.0
C732 C 0.24488 0.43902 0.02529 0.0
C733 C 0.24146 0.43839 0.04963 0.0
C734 C 0.20552 0.52375 0.01182 0.0
C735 C 0.259 0.40894 0.01311 0.0
H736 H 0.16581 0.4261 0.9525 0.0
H737 H 0.25839 0.471 0.93284 0.0
H738 H 0.17961 0.41653 0.01047 0.0
H739 H 0.16203 0.45731 0.0098 0.0
H740 H 0.1461 0.42557 0.99067 0.0
H741 H 0.29296 0.49786 0.96049 0.0
H742 H 0.27561 0.50877 0.98854 0.0
H743 H 0.29635 0.46991 0.98493 0.0
H744 H 0.20512 0.51353 0.05835 0.0
H745 H 0.24888 0.4164 0.05923 0.0
H746 H 0.18035 0.51748 0.00527 0.0
H747 H 0.22109 0.5302 0.99651 0.0
H748 H 0.20342 0.54585 0.02333 0.0
H749 H 0.23837 0.39381 0.0059 0.0
H750 H 0.27359 0.39311 0.02524 0.0
H751 H 0.27514 0.41641 0.99833 0.0
C752 C 0.50278 0.23007 0.45562 0.0
C753 C 0.5218 0.20178 0.45064 0.0
C754 C 0.49584 0.23912 0.47888 0.0
C755 C 0.50856 0.21955 0.49738 0.0
C756 C 0.52666 0.19029 0.4923 0.0
C757 C 0.53291 0.18176 0.46904 0.0
C758 C 0.47607 0.27021 0.48355 0.0
C759 C 0.54064 0.16851 0.51144 0.0
C760 C 0.53543 0.24754 0.55697 0.0
C761 C 0.51341 0.22943 0.57101 0.0
C762 C 0.53182 0.248 0.53262 0.0
C763 C 0.50546 0.23008 0.52219 0.0
C764 C 0.4806 0.21583 0.5365 0.0
C765 C 0.48492 0.21557 0.56084 0.0
C766 C 0.55861 0.26404 0.51804 0.0
C767 C 0.45152 0.19746 0.52608 0.0
H768 H 0.49406 0.2456 0.44143 0.0
H769 H 0.5474 0.15971 0.46532 0.0
H770 H 0.45868 0.2666 0.49836 0.0
H771 H 0.49326 0.29063 0.48834 0.0
H772 H 0.46171 0.27809 0.46794 0.0
H773 H 0.55333 0.14613 0.50447 0.0
H774 H 0.55877 0.18282 0.52201 0.0
H775 H 0.5205 0.16032 0.52332 0.0
H776 H 0.55721 0.25883 0.56476 0.0
H777 H 0.46749 0.20196 0.57164 0.0
H778 H 0.54769 0.27755 0.50302 0.0
H779 H 0.57521 0.2445 0.51095 0.0
H780 H 0.57388 0.28162 0.52844 0.0
H781 H 0.44197 0.21047 0.51038 0.0
H782 H 0.43099 0.19461 0.53888 0.0
H783 H 0.45966 0.17232 0.5206 0.0
C784 C 0.78615 0.511 0.05271 0.0
C785 C 0.78178 0.54395 0.05992 0.0
C786 C 0.78537 0.50278 0.02887 0.0
C787 C 0.78001 0.52814 0.01218 0.0
C788 C 0.77144 0.5605 0.01971 0.0
C789 C 0.7726 0.56804 0.04354 0.0
C790 C 0.79378 0.46782 0.02153 0.0
C791 C 0.76485 0.58817 0.00253 0.0
C792 C 0.83227 0.53408 0.95786 0.0
C793 C 0.80874 0.52869 0.94027 0.0
C794 C 0.82363 0.53149 0.98142 0.0
C795 C 0.79054 0.52342 0.98756 0.0
C796 C 0.76727 0.51545 0.96989 0.0
C797 C 0.77668 0.5182 0.94632 0.0
C798 C 0.84944 0.53977 -0.00031 0.0
C799 C 0.73193 0.50627 0.97573 0.0
H800 H 0.79299 0.49225 0.06541 0.0
H801 H 0.76861 0.59343 0.04919 0.0
H802 H 0.77902 0.46023 0.00607 0.0
H803 H 0.82041 0.4666 0.01664 0.0
H804 H 0.78939 0.44983 0.03591 0.0
H805 H 0.75365 0.61023 0.0111 0.0
H806 H 0.78859 0.59585 0.9943 0.0
H807 H 0.74803 0.57966 0.98842 0.0
H808 H 0.85723 0.54169 0.95321 0.0
H809 H 0.75847 0.51386 0.93271 0.0
H810 H 0.85044 0.52006 0.01319 0.0
H811 H 0.84264 0.5633 0.00856 0.0
H812 H 0.87463 0.5427 0.99207 0.0
H813 H 0.73076 0.49058 0.99163 0.0
H814 H 0.71978 0.49289 0.96108 0.0
H815 H 0.71753 0.52921 0.97924 0.0
C816 C 0.43354 0.80443 0.53177 0.0
C817 C 0.45234 0.79089 0.55002 0.0
C818 C 0.44112 0.79761 0.50843 0.0
C819 C 0.4681 0.77639 0.50307 0.0
C820 C 0.48657 0.76165 0.52139 0.0
C821 C 0.47858 0.76927 0.54474 0.0
C822 C 0.42069 0.81394 0.48947 0.0
C823 C 0.51519 0.7386 0.51637 0.0
C824 C 0.45991 0.75092 0.44004 0.0
C825 C 0.47712 0.77688 0.42909 0.0
C826 C 0.45989 0.74786 0.46448 0.0
C827 C 0.47727 0.77146 0.47813 0.0
C828 C 0.4979 0.79511 0.46699 0.0
C829 C 0.49768 0.79744 0.44255 0.0
C830 C 0.43832 0.72168 0.47565 0.0
C831 C 0.51709 0.82058 0.48084 0.0
H832 H 0.41314 0.82107 0.53569 0.0
H833 H 0.49315 0.75867 0.55881 0.0
H834 H 0.43682 0.82999 0.47855 0.0
H835 H 0.40972 0.7948 0.47787 0.0
H836 H 0.40025 0.82939 0.49664 0.0
H837 H 0.52346 0.72512 0.53227 0.0
H838 H 0.50828 0.72022 0.50278 0.0
H839 H 0.53647 0.75312 0.50955 0.0
H840 H 0.4443 0.73462 0.42971 0.0
H841 H 0.51141 0.81729 0.43417 0.0
H842 H 0.41456 0.7331 0.48127 0.0
H843 H 0.45047 0.71114 0.49138 0.0
H844 H 0.43257 0.70121 0.46329 0.0
H845 H 0.49966 0.83967 0.48754 0.0
H846 H 0.53619 0.83319 0.47002 0.0
H847 H 0.52941 0.80898 0.49611 0.0
C848 C 0.22844 0.5233 0.44664 0.0
C849 C 0.19665 0.52086 0.43687 0.0
C850 C 0.23296 0.52028 0.47088 0.0
C851 C 0.20505 0.51442 0.48537 0.0
C852 C 0.17378 0.50774 0.47511 0.0
C853 C 0.1699 0.51135 0.45096 0.0
C854 C 0.26679 0.52708 0.48112 0.0
C855 C 0.14349 0.50065 0.48983 0.0
C856 C 0.20766 0.50619 0.55154 0.0
C857 C 0.19782 0.53819 0.55822 0.0
C858 C 0.21192 0.49816 0.5278 0.0
C859 C 0.20636 0.52283 0.51061 0.0
C860 C 0.19836 0.55563 0.51751 0.0
C861 C 0.19404 0.56281 0.54118 0.0
C862 C 0.22057 0.46299 0.52115 0.0
C863 C 0.19265 0.5829 0.49981 0.0
H864 H 0.24918 0.53056 0.4357 0.0
H865 H 0.14538 0.50898 0.44331 0.0
H866 H 0.26775 0.55312 0.48739 0.0
H867 H 0.27177 0.51067 0.49628 0.0
H868 H 0.28675 0.52363 0.46795 0.0
H869 H 0.12276 0.49042 0.47924 0.0
H870 H 0.14947 0.48284 0.50399 0.0
H871 H 0.1349 0.52402 0.49813 0.0
H872 H 0.2107 0.48714 0.56473 0.0
H873 H 0.18692 0.58771 0.54634 0.0
H874 H 0.23874 0.4625 0.50659 0.0
H875 H 0.19783 0.45006 0.51508 0.0
H876 H 0.23093 0.44893 0.53616 0.0
H877 H 0.21392 0.58449 0.48757 0.0
H878 H 0.18921 0.60755 0.50816 0.0
H879 H 0.17015 0.57723 0.48935 0.0
C880 C 0.49788 0.17669 0.96056 0.0
C881 C 0.49024 0.20307 0.94557 0.0
C882 C 0.49854 0.18114 0.98479 0.0
C883 C 0.49095 0.2127 0.99425 0.0
C884 C 0.48643 0.24016 0.9791 0.0
C885 C 0.48624 0.23502 0.9548 0.0
C886 C 0.50399 0.15125 0.00024 0.0
C887 C 0.47865 0.27425 0.9885 0.0
C888 C 0.43961 0.20351 0.04895 0.0
C889 C 0.4634 0.20743 0.06657 0.0
C890 C 0.44799 0.20727 0.02541 0.0
C891 C 0.48116 0.21492 0.01924 0.0
C892 C 0.50499 0.22069 0.03699 0.0
C893 C 0.49578 0.21693 0.06058 0.0
C894 C 0.42163 0.2012 0.00709 0.0
C895 C 0.54051 0.22907 0.0311 0.0
H896 H 0.50148 0.15204 0.95339 0.0
H897 H 0.48043 0.25548 0.9432 0.0
H898 H 0.52092 0.15741 0.01489 0.0
H899 H 0.47992 0.14339 0.00789 0.0
H900 H 0.51455 0.12995 0.99041 0.0
H901 H 0.48294 0.29383 0.97517 0.0
H902 H 0.45217 0.27521 0.99381 0.0
H903 H 0.49388 0.27983 0.00416 0.0
H904 H 0.4144 0.19666 0.05352 0.0
H905 H 0.5142 0.22012 0.0742 0.0
H906 H 0.42768 0.17835 0.99714 0.0
H907 H 0.42087 0.22208 0.99448 0.0
H908 H 0.39652 0.1982 0.01484 0.0
H909 H 0.55336 0.2064 0.02484 0.0
H910 H 0.5542 0.23879 0.04649 0.0
H911 H 0.54165 0.24769 0.01684 0.0
C912 C 0.82239 0.47844 0.45328 0.0
C913 C 0.79635 0.47495 0.43728 0.0
C914 C 0.81612 0.48105 0.47722 0.0
C915 C 0.78297 0.47962 0.48535 0.0
C916 C 0.75643 0.47928 0.4691 0.0
C917 C 0.76347 0.47707 0.44509 0.0
C918 C 0.84521 0.48203 0.49387 0.0
C919 C 0.72077 0.47817 0.47708 0.0
C920 C 0.78159 0.43118 0.5415 0.0
C921 C 0.78232 0.45655 0.55819 0.0
C922 C 0.77884 0.43841 0.5177 0.0
C923 C 0.77711 0.47195 0.51039 0.0
C924 C 0.77517 0.49758 0.52727 0.0
C925 C 0.77773 0.48954 0.55111 0.0
C926 C 0.78052 0.41021 0.50034 0.0
C927 C 0.77295 0.53356 0.52017 0.0
H928 H 0.84785 0.47732 0.44715 0.0
H929 H 0.74331 0.47448 0.43267 0.0
H930 H 0.84116 0.50096 0.50764 0.0
H931 H 0.84771 0.45758 0.50263 0.0
H932 H 0.86892 0.48765 0.48478 0.0
H933 H 0.70346 0.48556 0.4629 0.0
H934 H 0.7145 0.45249 0.48253 0.0
H935 H 0.7168 0.49463 0.49236 0.0
H936 H 0.78458 0.40559 0.54699 0.0
H937 H 0.77813 0.5092 0.56403 0.0
H938 H 0.8047 0.41096 0.49107 0.0
H939 H 0.76066 0.41272 0.48704 0.0
H940 H 0.77802 0.38558 0.50888 0.0
H941 H 0.79791 0.54244 0.51488 0.0
H942 H 0.76406 0.5494 0.53477 0.0
H943 H 0.75611 0.53677 0.505 0.0
C944 C 0.51959 0.76491 0.04351 0.0
C945 C 0.51735 0.79763 0.05168 0.0
C946 C 0.51918 0.75817 0.0194 0.0
C947 C 0.5163 0.78479 0.00336 0.0
C948 C 0.51023 0.81729 0.01176 0.0
C949 C 0.51102 0.82332 0.03583 0.0
C950 C 0.52511 0.72311 0.01117 0.0
C951 C 0.50643 0.84636 0.99532 0.0
C952 C 0.56883 0.78859 0.94892 0.0
C953 C 0.54499 0.78572 0.93123 0.0
C954 C 0.56 0.78598 0.97247 0.0
C955 C 0.52637 0.78046 0.97855 0.0
C956 C 0.50252 0.77518 0.96074 0.0
C957 C 0.51214 0.77788 0.93718 0.0
C958 C 0.58641 0.79142 0.99084 0.0
C959 C 0.46655 0.76881 0.96651 0.0
H960 H 0.52436 0.74495 0.05576 0.0
H961 H 0.50879 0.84859 0.04216 0.0
H962 H 0.50993 0.71744 0.9955 0.0
H963 H 0.5516 0.72024 0.00626 0.0
H964 H 0.51935 0.70471 0.02504 0.0
H965 H 0.49704 0.86884 0.00441 0.0
H966 H 0.5309 0.85236 0.98747 0.0
H967 H 0.48919 0.84014 0.98086 0.0
H968 H 0.59437 0.79418 0.94439 0.0
H969 H 0.49365 0.77552 0.92352 0.0
H970 H 0.58576 0.7712 0.00398 0.0
H971 H 0.58158 0.81509 0.00015 0.0
H972 H 0.61176 0.79254 0.98323 0.0
H973 H 0.46419 0.75178 0.98165 0.0
H974 H 0.45295 0.75806 0.95141 0.0
H975 H 0.45443 0.79257 0.97132 0.0
C976 C 0.21327 0.32851 0.12255 0.0
C977 C 0.21671 0.35307 0.13971 0.0
C978 C 0.23417 0.30058 0.12245 0.0
C979 C 0.25866 0.29719 0.14005 0.0
C980 C 0.25966 0.32016 0.15875 0.0
C981 C 0.23883 0.34798 0.15825 0.0
C982 C 0.2322 0.27659 0.10226 0.0
C983 C 0.28493 0.31717 0.17812 0.0
C984 C 0.31588 0.22223 0.14504 0.0
C985 C 0.34477 0.23462 0.13453 0.0
C986 C 0.28698 0.24179 0.14635 0.0
C987 C 0.2871 0.27416 0.13668 0.0
C988 C 0.31581 0.28601 0.1251 0.0
C989 C 0.34429 0.2662 0.12433 0.0
C990 C 0.2569 0.2284 0.1589 0.0
C991 C 0.31694 0.32019 0.11423 0.0
H992 H 0.19612 0.33236 0.10821 0.0
H993 H 0.24121 0.36676 0.17172 0.0
H994 H 0.25251 0.28206 0.08974 0.0
H995 H 0.23545 0.25064 0.10832 0.0
H996 H 0.20817 0.27862 0.09283 0.0
H997 H 0.27892 0.33357 0.19313 0.0
H998 H 0.28656 0.2912 0.18442 0.0
H999 H 0.30977 0.32424 0.17136 0.0
H1000 H 0.31622 0.19777 0.15292 0.0
H1001 H 0.36646 0.2757 0.11591 0.0
H1002 H 0.23406 0.2329 0.14855 0.0
H1003 H 0.25392 0.24155 0.17579 0.0
H1004 H 0.25906 0.20138 0.16246 0.0
H1005 H 0.29575 0.32355 0.10208 0.0
H1006 H 0.34035 0.32466 0.10446 0.0
H1007 H 0.31472 0.33935 0.12806 0.0
C1008 C 0.77954 0.31144 0.63011 0.0
C1009 C 0.76298 0.34205 0.62948 0.0
C1010 C 0.76161 0.28146 0.63091 0.0
C1011 C 0.72646 0.28234 0.63087 0.0
C1012 C 0.70977 0.31325 0.63014 0.0
C1013 C 0.72821 0.34263 0.62955 0.0
C1014 C 0.78015 0.24895 0.63188 0.0
C1015 C 0.67228 0.31541 0.62991 0.0
C1016 C 0.66689 0.21601 0.61123 0.0
C1017 C 0.65143 0.20827 0.63248 0.0
C1018 C 0.69421 0.2376 0.61055 0.0
C1019 C 0.70635 0.25141 0.63163 0.0
C1020 C 0.69346 0.24029 0.65325 0.0
C1021 C 0.66598 0.21891 0.65342 0.0
C1022 C 0.70735 0.24859 0.58711 0.0
C1023 C 0.7061 0.25387 0.67615 0.0
H1024 H 0.80645 0.31093 0.63008 0.0
H1025 H 0.71524 0.36619 0.62898 0.0
H1026 H 0.77335 0.23528 0.64801 0.0
H1027 H 0.77298 0.23309 0.61688 0.0
H1028 H 0.8075 0.25251 0.63161 0.0
H1029 H 0.66324 0.34143 0.62897 0.0
H1030 H 0.66222 0.30158 0.61472 0.0
H1031 H 0.66201 0.30382 0.64593 0.0
H1032 H 0.65594 0.20759 0.59498 0.0
H1033 H 0.65441 0.21258 0.66993 0.0
H1034 H 0.73476 0.2511 0.58746 0.0
H1035 H 0.69683 0.27329 0.58277 0.0
H1036 H 0.70037 0.23099 0.573 0.0
H1037 H 0.73353 0.25621 0.67597 0.0
H1038 H 0.6987 0.23794 0.69111 0.0
H1039 H 0.69561 0.27902 0.67898 0.0
C1040 C 0.78724 0.69214 0.11189 0.0
C1041 C 0.77911 0.66729 0.12805 0.0
C1042 C 0.76631 0.71972 0.10868 0.0
C1043 C 0.73677 0.72229 0.12198 0.0
C1044 C 0.73012 0.69868 0.13969 0.0
C1045 C 0.75134 0.67146 0.14247 0.0
C1046 C 0.77454 0.74463 0.08989 0.0
C1047 C 0.6991 0.7006 0.15446 0.0
C1048 C 0.67733 0.79529 0.12413 0.0
C1049 C 0.65145 0.78334 0.11007 0.0
C1050 C 0.70678 0.77691 0.12687 0.0
C1051 C 0.71018 0.74606 0.11526 0.0
C1052 C 0.68522 0.73545 0.09951 0.0
C1053 C 0.65616 0.75419 0.09716 0.0
C1054 C 0.73303 0.78931 0.14352 0.0
C1055 C 0.68795 0.7029 0.08654 0.0
H1056 H 0.80878 0.68906 0.10075 0.0
H1057 H 0.74522 0.65251 0.15521 0.0
H1058 H 0.75909 0.73955 0.07424 0.0
H1059 H 0.7689 0.77025 0.09577 0.0
H1060 H 0.80107 0.74326 0.08467 0.0
H1061 H 0.69946 0.68251 0.1691 0.0
H1062 H 0.69605 0.7259 0.16179 0.0
H1063 H 0.67705 0.69536 0.14343 0.0
H1064 H 0.67382 0.81792 0.13408 0.0
H1065 H 0.63638 0.74511 0.08602 0.0
H1066 H 0.75826 0.78497 0.13637 0.0
H1067 H 0.73115 0.77548 0.16022 0.0
H1068 H 0.73005 0.81619 0.14731 0.0
H1069 H 0.71246 0.70084 0.07784 0.0
H1070 H 0.66821 0.70003 0.07313 0.0
H1071 H 0.68589 0.68203 0.09911 0.0
C1072 C 0.20746 0.68296 0.63446 0.0
C1073 C 0.21958 0.65436 0.62345 0.0
C1074 C 0.22652 0.71224 0.63498 0.0
C1075 C 0.25799 0.71278 0.62391 0.0
C1076 C 0.26912 0.68453 0.61146 0.0
C1077 C 0.24993 0.65563 0.61159 0.0
C1078 C 0.2139 0.74179 0.64849 0.0
C1079 C 0.30222 0.68414 0.59903 0.0
C1080 C 0.3122 0.78723 0.61084 0.0
C1081 C 0.33766 0.78221 0.62711 0.0
C1082 C 0.28411 0.76649 0.61071 0.0
C1083 C 0.2815 0.74075 0.62749 0.0
C1084 C 0.30559 0.73808 0.64539 0.0
C1085 C 0.33361 0.75858 0.64479 0.0
C1086 C 0.25897 0.77016 0.59136 0.0
C1087 C 0.30343 0.71153 0.66394 0.0
H1088 H 0.1839 0.68196 0.64359 0.0
H1089 H 0.25907 0.63366 0.60273 0.0
H1090 H 0.22744 0.74353 0.66532 0.0
H1091 H 0.2185 0.76517 0.63878 0.0
H1092 H 0.18693 0.73975 0.6523 0.0
H1093 H 0.30558 0.66151 0.5882 0.0
H1094 H 0.30471 0.70623 0.58761 0.0
H1095 H 0.32259 0.68511 0.61207 0.0
H1096 H 0.31539 0.80559 0.59717 0.0
H1097 H 0.35317 0.75509 0.65758 0.0
H1098 H 0.23337 0.76645 0.59801 0.0
H1099 H 0.26362 0.7509 0.57789 0.0
H1100 H 0.26057 0.7949 0.58287 0.0
H1101 H 0.2779 0.70998 0.67111 0.0
H1102 H 0.32099 0.71615 0.67856 0.0
H1103 H 0.30947 0.68707 0.6561 0.0
C1104 C 0.32148 0.78935 0.38835 0.0
C1105 C 0.34158 0.78342 0.36879 0.0
C1106 C 0.29284 0.77015 0.39236 0.0
C1107 C 0.28455 0.74438 0.37656 0.0
C1108 C 0.3032 0.74042 0.35578 0.0
C1109 C 0.33137 0.76008 0.35214 0.0
C1110 C 0.27303 0.77581 0.41435 0.0
C1111 C 0.29526 0.71338 0.33837 0.0
C1112 C 0.25255 0.66112 0.39635 0.0
C1113 C 0.22097 0.66035 0.38609 0.0
C1114 C 0.27252 0.68947 0.39498 0.0
C1115 C 0.26052 0.71796 0.3832 0.0
C1116 C 0.22747 0.71841 0.37474 0.0
C1117 C 0.20805 0.68943 0.37616 0.0
C1118 C 0.30755 0.68784 0.40438 0.0
C1119 C 0.21343 0.74861 0.3627 0.0
H1120 H 0.32912 0.80757 0.4012 0.0
H1121 H 0.34654 0.75573 0.3368 0.0
H1122 H 0.24607 0.77269 0.41104 0.0
H1123 H 0.28042 0.75727 0.42769 0.0
H1124 H 0.27746 0.80097 0.42166 0.0
H1125 H 0.31012 0.71569 0.3221 0.0
H1126 H 0.30051 0.68879 0.3463 0.0
H1127 H 0.26856 0.7139 0.33368 0.0
H1128 H 0.26249 0.63886 0.40437 0.0
H1129 H 0.18351 0.68907 0.36839 0.0
H1130 H 0.31295 0.70983 0.41538 0.0
H1131 H 0.3254 0.688 0.38961 0.0
H1132 H 0.31196 0.66512 0.41492 0.0
H1133 H 0.22146 0.77172 0.3716 0.0
H1134 H 0.18587 0.74793 0.36214 0.0
H1135 H 0.22275 0.74959 0.34449 0.0
C1136 C 0.34854 0.22524 0.90215 0.0
C1137 C 0.35914 0.20542 0.88348 0.0
C1138 C 0.31997 0.24488 0.90026 0.0
C1139 C 0.30172 0.24478 0.87913 0.0
C1140 C 0.31021 0.22201 0.86125 0.0
C1141 C 0.33894 0.20249 0.86365 0.0
C1142 C 0.31155 0.26839 0.91993 0.0
C1143 C 0.29103 0.22068 0.83864 0.0
C1144 C 0.22534 0.30053 0.87826 0.0
C1145 C 0.23918 0.33032 0.87014 0.0
C1146 C 0.2449 0.2717 0.88031 0.0
C1147 C 0.27893 0.27294 0.87411 0.0
C1148 C 0.29244 0.30259 0.86483 0.0
C1149 C 0.27243 0.33083 0.86299 0.0
C1150 C 0.22954 0.2405 0.89007 0.0
C1151 C 0.32854 0.30503 0.8578 0.0
H1152 H 0.36384 0.22719 0.91768 0.0
H1153 H 0.34692 0.187 0.84922 0.0
H1154 H 0.31892 0.29398 0.91494 0.0
H1155 H 0.28444 0.26856 0.92328 0.0
H1156 H 0.32462 0.26176 0.93636 0.0
H1157 H 0.29596 0.19734 0.82891 0.0
H1158 H 0.26396 0.22281 0.84186 0.0
H1159 H 0.2985 0.24188 0.82745 0.0
H1160 H 0.19958 0.30001 0.88374 0.0
H1161 H 0.28317 0.35368 0.85644 0.0
H1162 H 0.23779 0.23707 0.90839 0.0
H1163 H 0.23772 0.21839 0.88005 0.0
H1164 H 0.20198 0.24161 0.88987 0.0
H1165 H 0.34456 0.30177 0.8734 0.0
H1166 H 0.33461 0.3293 0.84963 0.0
H1167 H 0.33487 0.28502 0.84527 0.0
C1168 C 0.67529 0.21529 0.37362 0.0
C1169 C 0.64977 0.22365 0.38918 0.0
C1170 C 0.70349 0.23566 0.37143 0.0
C1171 C 0.70621 0.26461 0.38537 0.0
C1172 C 0.68188 0.27125 0.40259 0.0
C1173 C 0.6538 0.25088 0.4041 0.0
C1174 C 0.72885 0.22773 0.35287 0.0
C1175 C 0.68406 0.30145 0.41814 0.0
C1176 C 0.78183 0.32125 0.38775 0.0
C1177 C 0.7709 0.34768 0.37382 0.0
C1178 C 0.76184 0.2929 0.39084 0.0
C1179 C 0.73065 0.291 0.37943 0.0
C1180 C 0.72077 0.31674 0.3641 0.0
C1181 C 0.74086 0.34485 0.36169 0.0
C1182 C 0.77315 0.26605 0.40739 0.0
C1183 C 0.68803 0.31555 0.35124 0.0
H1184 H 0.67219 0.19418 0.36208 0.0
H1185 H 0.63426 0.25709 0.41638 0.0
H1186 H 0.72502 0.24443 0.33769 0.0
H1187 H 0.75441 0.23198 0.35943 0.0
H1188 H 0.72673 0.20166 0.34672 0.0
H1189 H 0.66596 0.3004 0.43276 0.0
H1190 H 0.7094 0.30399 0.42552 0.0
H1191 H 0.67889 0.32407 0.40769 0.0
H1192 H 0.80509 0.32348 0.39715 0.0
H1193 H 0.7326 0.3651 0.35064 0.0
H1194 H 0.76847 0.2411 0.39989 0.0
H1195 H 0.75877 0.26784 0.42387 0.0
H1196 H 0.79996 0.26831 0.41165 0.0
H1197 H 0.68512 0.29143 0.34212 0.0
H1198 H 0.68569 0.33582 0.33819 0.0
H1199 H 0.66731 0.31785 0.36391 0.0
C1200 C 0.76473 0.65792 0.89458 0.0
C1201 C 0.79129 0.65318 0.87919 0.0
C1202 C 0.74402 0.68564 0.8926 0.0
C1203 C 0.7497 0.70883 0.87446 0.0
C1204 C 0.77825 0.70569 0.86017 0.0
C1205 C 0.79896 0.67783 0.86281 0.0
C1206 C 0.71429 0.68836 0.90856 0.0
C1207 C 0.78524 0.72999 0.84075 0.0
C1208 C 0.66783 0.73976 0.85107 0.0
C1209 C 0.66443 0.77017 0.86265 0.0
C1210 C 0.69667 0.72073 0.85348 0.0
C1211 C 0.72263 0.7322 0.86809 0.0
C1212 C 0.7202 0.76385 0.87871 0.0
C1213 C 0.69105 0.78262 0.87578 0.0
C1214 C 0.69839 0.68732 0.84154 0.0
C1215 C 0.74733 0.77693 0.89438 0.0
H1216 H 0.75909 0.63898 0.90745 0.0
H1217 H 0.81954 0.67412 0.85089 0.0
H1218 H 0.71154 0.7141 0.91514 0.0
H1219 H 0.69143 0.68212 0.89866 0.0
H1220 H 0.71613 0.67127 0.92374 0.0
H1221 H 0.81131 0.72818 0.83454 0.0
H1222 H 0.76853 0.72464 0.82581 0.0
H1223 H 0.78033 0.75583 0.84647 0.0
H1224 H 0.64744 0.7303 0.84065 0.0
H1225 H 0.68848 0.8062 0.88471 0.0
H1226 H 0.69709 0.66731 0.85483 0.0
H1227 H 0.72229 0.68456 0.83212 0.0
H1228 H 0.67777 0.68366 0.8289 0.0
H1229 H 0.74621 0.76397 0.91145 0.0
H1230 H 0.74471 0.80401 0.89755 0.0
H1231 H 0.77216 0.77205 0.88675 0.0
loop_
_geom_bond_atom_site_label_1
_geom_bond_atom_site_label_2
_geom_bond_distance
_geom_bond_site_symmetry_2
_ccdc_geom_bond_type
In0 O1 2.294 . S
In0 O2 2.326 . S
In0 O6 2.266 . S
In0 O7 2.326 . S
In0 O8 2.266 . S
In0 O9 2.326 . S
In0 O11 2.294 . S
In0 O12 2.326 . S
O1 In0 2.294 . S
O1 C10 1.240 . S
O2 In0 2.326 . S
O2 C10 1.252 . S
C3 O6 1.252 . S
C3 O7 1.260 . S
C4 O11 1.240 . S
C4 O12 1.252 . S
C5 O8 1.252 . S
C5 O9 1.260 . S
O6 In0 2.266 . S
O6 C3 1.252 . S
O7 In0 2.326 . S
O7 C3 1.260 . S
O8 In0 2.266 . S
O8 C5 1.252 . S
O9 In0 2.326 . S
O9 C5 1.260 . S
C10 O1 1.240 . S
C10 O2 1.252 . S
O11 In0 2.294 . S
O11 C4 1.240 . S
O12 In0 2.326 . S
O12 C4 1.252 . S
In13 O14 2.294 . S
In13 O15 2.326 . S
In13 O19 2.266 . S
In13 O20 2.326 . S
In13 O21 2.266 . S
In13 O22 2.326 . S
In13 O24 2.294 . S
In13 O25 2.326 . S
O14 In13 2.294 . S
O14 C23 1.240 . S
O15 In13 2.326 . S
O15 C23 1.252 . S
C16 O19 1.252 . S
C16 O20 1.260 . S
C17 O24 1.240 . S
C17 O25 1.252 . S
C18 O21 1.252 . S
C18 O22 1.260 . S
O19 In13 2.266 . S
O19 C16 1.252 . S
O20 In13 2.326 . S
O20 C16 1.260 . S
O21 In13 2.266 . S
O21 C18 1.252 . S
O22 In13 2.326 . S
O22 C18 1.260 . S
C23 O14 1.240 . S
C23 O15 1.252 . S
O24 In13 2.294 . S
O24 C17 1.240 . S
O25 In13 2.326 . S
O25 C17 1.252 . S
In26 O27 2.294 . S
In26 O28 2.326 . S
In26 O32 2.266 . S
In26 O33 2.326 . S
In26 O34 2.266 . S
In26 O35 2.326 . S
In26 O37 2.294 . S
In26 O38 2.326 . S
O27 In26 2.294 . S
O27 C36 1.240 . S
O28 In26 2.326 . S
O28 C36 1.252 . S
C29 O32 1.252 . S
C29 O33 1.260 . S
C30 O37 1.240 . S
C30 O38 1.252 . S
C31 O34 1.252 . S
C31 O35 1.260 . S
O32 In26 2.266 . S
O32 C29 1.252 . S
O33 In26 2.326 . S
O33 C29 1.260 . S
O34 In26 2.266 . S
O34 C31 1.252 . S
O35 In26 2.326 . S
O35 C31 1.260 . S
C36 O27 1.240 . S
C36 O28 1.252 . S
O37 In26 2.294 . S
O37 C30 1.240 . S
O38 In26 2.326 . S
O38 C30 1.252 . S
In39 O40 2.294 . S
In39 O41 2.326 . S
In39 O45 2.266 . S
In39 O46 2.326 . S
In39 O47 2.266 . S
In39 O48 2.326 . S
In39 O50 2.294 . S
In39 O51 2.326 . S
O40 In39 2.294 . S
O40 C49 1.240 . S
O41 In39 2.326 . S
O41 C49 1.252 . S
C42 O45 1.252 . S
C42 O46 1.260 . S
C43 O50 1.240 . S
C43 O51 1.252 . S
C44 O47 1.252 . S
C44 O48 1.260 . S
O45 In39 2.266 . S
O45 C42 1.252 . S
O46 In39 2.326 . S
O46 C42 1.260 . S
O47 In39 2.266 . S
O47 C44 1.252 . S
O48 In39 2.326 . S
O48 C44 1.260 . S
C49 O40 1.240 . S
C49 O41 1.252 . S
O50 In39 2.294 . S
O50 C43 1.240 . S
O51 In39 2.326 . S
O51 C43 1.252 . S
In52 O53 2.294 . S
In52 O54 2.326 . S
In52 O58 2.266 . S
In52 O59 2.326 . S
In52 O60 2.266 . S
In52 O61 2.326 . S
In52 O63 2.294 . S
In52 O64 2.326 . S
O53 In52 2.294 . S
O53 C62 1.240 . S
O54 In52 2.326 . S
O54 C62 1.252 . S
C55 O58 1.252 . S
C55 O59 1.260 . S
C56 O63 1.240 . S
C56 O64 1.252 . S
C57 O60 1.252 . S
C57 O61 1.260 . S
O58 In52 2.266 . S
O58 C55 1.252 . S
O59 In52 2.326 . S
O59 C55 1.260 . S
O60 In52 2.266 . S
O60 C57 1.252 . S
O61 In52 2.326 . S
O61 C57 1.260 . S
C62 O53 1.240 . S
C62 O54 1.252 . S
O63 In52 2.294 . S
O63 C56 1.240 . S
O64 In52 2.326 . S
O64 C56 1.252 . S
In65 O66 2.294 . S
In65 O67 2.326 . S
In65 O71 2.266 . S
In65 O72 2.326 . S
In65 O73 2.266 . S
In65 O74 2.326 . S
In65 O76 2.294 . S
In65 O77 2.326 . S
O66 In65 2.294 . S
O66 C75 1.240 . S
O67 In65 2.326 . S
O67 C75 1.252 . S
C68 O71 1.252 . S
C68 O72 1.260 . S
C69 O76 1.240 . S
C69 O77 1.252 . S
C70 O73 1.252 . S
C70 O74 1.260 . S
O71 In65 2.266 . S
O71 C68 1.252 . S
O72 In65 2.326 . S
O72 C68 1.260 . S
O73 In65 2.266 . S
O73 C70 1.252 . S
O74 In65 2.326 . S
O74 C70 1.260 . S
C75 O66 1.240 . S
C75 O67 1.252 . S
O76 In65 2.294 . S
O76 C69 1.240 . S
O77 In65 2.326 . S
O77 C69 1.252 . S
In78 O79 2.294 . S
In78 O80 2.326 . S
In78 O84 2.266 . S
In78 O85 2.326 . S
In78 O86 2.266 . S
In78 O87 2.326 . S
In78 O89 2.294 . S
In78 O90 2.326 . S
O79 In78 2.294 . S
O79 C88 1.240 . S
O80 In78 2.326 . S
O80 C88 1.252 . S
C81 O84 1.252 . S
C81 O85 1.260 . S
C82 O89 1.240 . S
C82 O90 1.252 . S
C83 O86 1.252 . S
C83 O87 1.260 . S
O84 In78 2.266 . S
O84 C81 1.252 . S
O85 In78 2.326 . S
O85 C81 1.260 . S
O86 In78 2.266 . S
O86 C83 1.252 . S
O87 In78 2.326 . S
O87 C83 1.260 . S
C88 O79 1.240 . S
C88 O80 1.252 . S
O89 In78 2.294 . S
O89 C82 1.240 . S
O90 In78 2.326 . S
O90 C82 1.252 . S
In91 O92 2.294 . S
In91 O93 2.326 . S
In91 O97 2.266 . S
In91 O98 2.326 . S
In91 O99 2.266 . S
In91 O100 2.326 . S
In91 O102 2.294 . S
In91 O103 2.326 . S
O92 In91 2.294 . S
O92 C101 1.240 . S
O93 In91 2.326 . S
O93 C101 1.252 . S
C94 O97 1.252 . S
C94 O98 1.260 . S
C95 O102 1.240 . S
C95 O103 1.252 . S
C96 O99 1.252 . S
C96 O100 1.260 . S
O97 In91 2.266 . S
O97 C94 1.252 . S
O98 In91 2.326 . S
O98 C94 1.260 . S
O99 In91 2.266 . S
O99 C96 1.252 . S
O100 In91 2.326 . S
O100 C96 1.260 . S
C101 O92 1.240 . S
C101 O93 1.252 . S
O102 In91 2.294 . S
O102 C95 1.240 . S
O103 In91 2.326 . S
O103 C95 1.252 . S
In104 O105 2.294 . S
In104 O106 2.326 . S
In104 O110 2.266 . S
In104 O111 2.326 . S
In104 O112 2.266 . S
In104 O113 2.326 . S
In104 O115 2.294 . S
In104 O116 2.326 . S
O105 In104 2.294 . S
O105 C114 1.240 . S
O106 In104 2.326 . S
O106 C114 1.252 . S
C107 O110 1.252 . S
C107 O111 1.260 . S
C108 O115 1.240 . S
C108 O116 1.252 . S
C109 O112 1.252 . S
C109 O113 1.260 . S
O110 In104 2.266 . S
O110 C107 1.252 . S
O111 In104 2.326 . S
O111 C107 1.260 . S
O112 In104 2.266 . S
O112 C109 1.252 . S
O113 In104 2.326 . S
O113 C109 1.260 . S
C114 O105 1.240 . S
C114 O106 1.252 . S
O115 In104 2.294 . S
O115 C108 1.240 . S
O116 In104 2.326 . S
O116 C108 1.252 . S
In117 O118 2.294 . S
In117 O119 2.326 . S
In117 O123 2.266 . S
In117 O124 2.326 . S
In117 O125 2.266 . S
In117 O126 2.326 . S
In117 O128 2.294 . S
In117 O129 2.326 . S
O118 In117 2.294 . S
O118 C127 1.240 . S
O119 In117 2.326 . S
O119 C127 1.252 . S
C120 O123 1.252 . S
C120 O124 1.260 . S
C121 O128 1.240 . S
C121 O129 1.252 . S
C122 O125 1.252 . S
C122 O126 1.260 . S
O123 In117 2.266 . S
O123 C120 1.252 . S
O124 In117 2.326 . S
O124 C120 1.260 . S
O125 In117 2.266 . S
O125 C122 1.252 . S
O126 In117 2.326 . S
O126 C122 1.260 . S
C127 O118 1.240 . S
C127 O119 1.252 . S
O128 In117 2.294 . S
O128 C121 1.240 . S
O129 In117 2.326 . S
O129 C121 1.252 . S
In130 O131 2.294 . S
In130 O132 2.326 . S
In130 O136 2.266 . S
In130 O137 2.326 . S
In130 O138 2.266 . S
In130 O139 2.326 . S
In130 O141 2.294 . S
In130 O142 2.326 . S
O131 In130 2.294 . S
O131 C140 1.240 . S
O132 In130 2.326 . S
O132 C140 1.252 . S
C133 O136 1.252 . S
C133 O137 1.260 . S
C134 O141 1.240 . S
C134 O142 1.252 . S
C135 O138 1.252 . S
C135 O139 1.260 . S
O136 In130 2.266 . S
O136 C133 1.252 . S
O137 In130 2.326 . S
O137 C133 1.260 . S
O138 In130 2.266 . S
O138 C135 1.252 . S
O139 In130 2.326 . S
O139 C135 1.260 . S
C140 O131 1.240 . S
C140 O132 1.252 . S
O141 In130 2.294 . S
O141 C134 1.240 . S
O142 In130 2.326 . S
O142 C134 1.252 . S
In143 O144 2.294 . S
In143 O145 2.326 . S
In143 O149 2.266 . S
In143 O150 2.326 . S
In143 O151 2.266 . S
In143 O152 2.326 . S
In143 O154 2.294 . S
In143 O155 2.326 . S
O144 In143 2.294 . S
O144 C153 1.240 . S
O145 In143 2.326 . S
O145 C153 1.252 . S
C146 O149 1.252 . S
C146 O150 1.260 . S
C147 O154 1.240 . S
C147 O155 1.252 . S
C148 O151 1.252 . S
C148 O152 1.260 . S
O149 In143 2.266 . S
O149 C146 1.252 . S
O150 In143 2.326 . S
O150 C146 1.260 . S
O151 In143 2.266 . S
O151 C148 1.252 . S
O152 In143 2.326 . S
O152 C148 1.260 . S
C153 O144 1.240 . S
C153 O145 1.252 . S
O154 In143 2.294 . S
O154 C147 1.240 . S
O155 In143 2.326 . S
O155 C147 1.252 . S
In156 O157 2.294 . S
In156 O158 2.326 . S
In156 O162 2.266 . S
In156 O163 2.326 . S
In156 O164 2.266 . S
In156 O165 2.326 . S
In156 O167 2.294 . S
In156 O168 2.326 . S
O157 In156 2.294 . S
O157 C166 1.240 . S
O158 In156 2.326 . S
O158 C166 1.252 . S
C159 O162 1.252 . S
C159 O163 1.260 . S
C160 O167 1.240 . S
C160 O168 1.252 . S
C161 O164 1.252 . S
C161 O165 1.260 . S
O162 In156 2.266 . S
O162 C159 1.252 . S
O163 In156 2.326 . S
O163 C159 1.260 . S
O164 In156 2.266 . S
O164 C161 1.252 . S
O165 In156 2.326 . S
O165 C161 1.260 . S
C166 O157 1.240 . S
C166 O158 1.252 . S
O167 In156 2.294 . S
O167 C160 1.240 . S
O168 In156 2.326 . S
O168 C160 1.252 . S
In169 O170 2.294 . S
In169 O171 2.326 . S
In169 O175 2.266 . S
In169 O176 2.326 . S
In169 O177 2.266 . S
In169 O178 2.326 . S
In169 O180 2.294 . S
In169 O181 2.326 . S
O170 In169 2.294 . S
O170 C179 1.240 . S
O171 In169 2.326 . S
O171 C179 1.252 . S
C172 O175 1.252 . S
C172 O176 1.260 . S
C173 O180 1.240 . S
C173 O181 1.252 . S
C174 O177 1.252 . S
C174 O178 1.260 . S
O175 In169 2.266 . S
O175 C172 1.252 . S
O176 In169 2.326 . S
O176 C172 1.260 . S
O177 In169 2.266 . S
O177 C174 1.252 . S
O178 In169 2.326 . S
O178 C174 1.260 . S
C179 O170 1.240 . S
C179 O171 1.252 . S
O180 In169 2.294 . S
O180 C173 1.240 . S
O181 In169 2.326 . S
O181 C173 1.252 . S
In182 O183 2.294 . S
In182 O184 2.326 . S
In182 O188 2.266 . S
In182 O189 2.326 . S
In182 O190 2.266 . S
In182 O191 2.326 . S
In182 O193 2.294 . S
In182 O194 2.326 . S
O183 In182 2.294 . S
O183 C192 1.240 . S
O184 In182 2.326 . S
O184 C192 1.252 . S
C185 O188 1.252 . S
C185 O189 1.260 . S
C186 O193 1.240 . S
C186 O194 1.252 . S
C187 O190 1.252 . S
C187 O191 1.260 . S
O188 In182 2.266 . S
O188 C185 1.252 . S
O189 In182 2.326 . S
O189 C185 1.260 . S
O190 In182 2.266 . S
O190 C187 1.252 . S
O191 In182 2.326 . S
O191 C187 1.260 . S
C192 O183 1.240 . S
C192 O184 1.252 . S
O193 In182 2.294 . S
O193 C186 1.240 . S
O194 In182 2.326 . S
O194 C186 1.252 . S
In195 O196 2.294 . S
In195 O197 2.326 . S
In195 O201 2.266 . S
In195 O202 2.326 . S
In195 O203 2.266 . S
In195 O204 2.326 . S
In195 O206 2.294 . S
In195 O207 2.326 . S
O196 In195 2.294 . S
O196 C205 1.240 . S
O197 In195 2.326 . S
O197 C205 1.252 . S
C198 O201 1.252 . S
C198 O202 1.260 . S
C199 O206 1.240 . S
C199 O207 1.252 . S
C200 O203 1.252 . S
C200 O204 1.260 . S
O201 In195 2.266 . S
O201 C198 1.252 . S
O202 In195 2.326 . S
O202 C198 1.260 . S
O203 In195 2.266 . S
O203 C200 1.252 . S
O204 In195 2.326 . S
O204 C200 1.260 . S
C205 O196 1.240 . S
C205 O197 1.252 . S
O206 In195 2.294 . S
O206 C199 1.240 . S
O207 In195 2.326 . S
O207 C199 1.252 . S
C208 C209 1.391 . S
C208 C210 1.394 . S
C208 H224 0.931 . S
C209 C208 1.391 . S
C209 C213 1.376 . S
C210 C208 1.394 . S
C210 C211 1.369 . S
C210 C214 1.531 1_455 S
C211 C210 1.369 . S
C211 C212 1.410 . S
C211 C219 1.503 1_455 S
C212 C211 1.410 . S
C212 C213 1.392 . S
C212 C215 1.511 . S
C213 C209 1.376 . S
C213 C212 1.392 . S
C213 H225 0.929 . S
C214 C210 1.531 1_655 S
C214 H226 0.960 . S
C214 H227 0.962 . S
C214 H228 0.955 1_655 S
C215 C212 1.511 . S
C215 H229 0.961 . S
C215 H230 0.961 . S
C215 H231 0.961 . S
C216 C217 1.370 . S
C216 C218 1.363 . S
C216 H232 0.931 . S
C217 C216 1.370 . S
C217 C221 1.408 . S
C218 C216 1.363 . S
C218 C219 1.370 . S
C218 C222 1.524 . S
C219 C211 1.503 1_655 S
C219 C218 1.370 . S
C219 C220 1.403 . S
C220 C219 1.403 . S
C220 C221 1.404 . S
C220 C223 1.534 1_655 S
C221 C217 1.408 . S
C221 C220 1.404 . S
C221 H233 0.930 . S
C222 C218 1.524 . S
C222 H234 0.956 . S
C222 H235 0.961 . S
C222 H236 0.961 . S
C223 C220 1.534 1_455 S
C223 H237 0.957 1_455 S
C223 H238 0.960 1_455 S
C223 H239 0.967 . S
H224 C208 0.931 . S
H225 C213 0.929 . S
H226 C214 0.960 . S
H227 C214 0.962 . S
H228 C214 0.955 1_455 S
H229 C215 0.961 . S
H230 C215 0.961 . S
H231 C215 0.961 . S
H232 C216 0.931 . S
H233 C221 0.930 . S
H234 C222 0.956 . S
H235 C222 0.961 . S
H236 C222 0.961 . S
H237 C223 0.957 1_655 S
H238 C223 0.960 1_655 S
H239 C223 0.967 . S
C240 C241 1.391 . S
C240 C242 1.394 . S
C240 H256 0.931 . S
C241 C240 1.391 . S
C241 C245 1.376 . S
C242 C240 1.394 . S
C242 C243 1.369 . S
C242 C246 1.531 . S
C243 C242 1.369 . S
C243 C244 1.410 . S
C243 C251 1.503 1_565 S
C244 C243 1.410 . S
C244 C245 1.392 . S
C244 C247 1.511 1_565 S
C245 C241 1.376 . S
C245 C244 1.392 . S
C245 H257 0.929 . S
C246 C242 1.531 . S
C246 H258 0.960 . S
C246 H259 0.962 . S
C246 H260 0.960 . S
C247 C244 1.511 1_545 S
C247 H261 0.961 . S
C247 H262 0.961 . S
C247 H263 0.961 . S
C248 C249 1.370 . S
C248 C250 1.363 . S
C248 H264 0.931 . S
C249 C248 1.370 . S
C249 C253 1.408 . S
C250 C248 1.363 . S
C250 C251 1.370 . S
C250 C254 1.524 . S
C251 C243 1.503 1_545 S
C251 C250 1.370 . S
C251 C252 1.403 . S
C252 C251 1.403 . S
C252 C253 1.404 . S
C252 C255 1.539 . S
C253 C249 1.408 . S
C253 C252 1.404 . S
C253 H265 0.930 . S
C254 C250 1.524 . S
C254 H266 0.956 1_545 S
C254 H267 0.961 . S
C254 H268 0.961 . S
C255 C252 1.539 . S
C255 H269 0.958 . S
C255 H270 0.961 . S
C255 H271 0.960 . S
H256 C240 0.931 . S
H257 C245 0.929 . S
H258 C246 0.960 . S
H259 C246 0.962 . S
H260 C246 0.960 . S
H261 C247 0.961 . S
H262 C247 0.961 . S
H263 C247 0.961 . S
H264 C248 0.931 . S
H265 C253 0.930 . S
H266 C254 0.956 1_565 S
H267 C254 0.961 . S
H268 C254 0.961 . S
H269 C255 0.958 . S
H270 C255 0.961 . S
H271 C255 0.960 . S
C272 C273 1.391 . S
C272 C274 1.394 . S
C272 H288 0.931 . S
C273 C272 1.391 . S
C273 C277 1.376 . S
C274 C272 1.394 . S
C274 C275 1.369 . S
C274 C278 1.531 1_455 S
C275 C274 1.369 . S
C275 C276 1.410 . S
C275 C283 1.503 1_455 S
C276 C275 1.410 . S
C276 C277 1.392 . S
C276 C279 1.511 . S
C277 C273 1.376 . S
C277 C276 1.392 . S
C277 H289 0.929 . S
C278 C274 1.531 1_655 S
C278 H290 0.960 . S
C278 H291 0.962 . S
C278 H292 0.960 . S
C279 C276 1.511 . S
C279 H293 0.961 . S
C279 H294 0.961 . S
C279 H295 0.961 . S
C280 C281 1.370 . S
C280 C282 1.363 . S
C280 H296 0.931 . S
C281 C280 1.370 . S
C281 C285 1.408 . S
C282 C280 1.363 . S
C282 C283 1.370 . S
C282 C286 1.524 1_655 S
C283 C275 1.503 1_655 S
C283 C282 1.370 . S
C283 C284 1.403 . S
C284 C283 1.403 . S
C284 C285 1.404 . S
C284 C287 1.539 . S
C285 C281 1.408 . S
C285 C284 1.404 . S
C285 H297 0.930 . S
C286 C282 1.524 1_455 S
C286 H298 0.956 . S
C286 H299 0.961 . S
C286 H300 0.961 . S
C287 C284 1.539 . S
C287 H301 0.958 . S
C287 H302 0.961 . S
C287 H303 0.960 . S
H288 C272 0.931 . S
H289 C277 0.929 . S
H290 C278 0.960 . S
H291 C278 0.962 . S
H292 C278 0.960 . S
H293 C279 0.961 . S
H294 C279 0.961 . S
H295 C279 0.961 . S
H296 C280 0.931 . S
H297 C285 0.930 . S
H298 C286 0.956 . S
H299 C286 0.961 . S
H300 C286 0.961 . S
H301 C287 0.958 . S
H302 C287 0.961 . S
H303 C287 0.960 . S
C304 C305 1.391 . S
C304 C306 1.394 . S
C304 H320 0.931 . S
C305 C304 1.391 . S
C305 C309 1.376 . S
C306 C304 1.394 . S
C306 C307 1.369 . S
C306 C310 1.531 1_565 S
C307 C306 1.369 . S
C307 C308 1.410 . S
C307 C315 1.503 1_565 S
C308 C307 1.410 . S
C308 C309 1.392 . S
C308 C311 1.511 . S
C309 C305 1.376 . S
C309 C308 1.392 . S
C309 H321 0.929 . S
C310 C306 1.531 1_545 S
C310 H322 0.960 . S
C310 H323 0.962 . S
C310 H324 0.969 . S
C311 C308 1.511 . S
C311 H325 0.961 . S
C311 H326 0.961 . S
C311 H327 0.961 . S
C312 C313 1.370 . S
C312 C314 1.363 . S
C312 H328 0.931 . S
C313 C312 1.370 . S
C313 C317 1.408 . S
C314 C312 1.363 . S
C314 C315 1.370 . S
C314 C318 1.524 . S
C315 C307 1.503 1_545 S
C315 C314 1.370 . S
C315 C316 1.403 . S
C316 C315 1.403 . S
C316 C317 1.404 . S
C316 C319 1.561 . S
C317 C313 1.408 . S
C317 C316 1.404 . S
C317 H329 0.930 . S
C318 C314 1.524 . S
C318 H330 0.956 . S
C318 H331 0.961 . S
C318 H332 0.961 . S
C319 C316 1.561 . S
C319 H333 0.965 . S
C319 H334 0.967 . S
C319 H335 0.927 1_545 S
H320 C304 0.931 . S
H321 C309 0.929 . S
H322 C310 0.960 . S
H323 C310 0.962 . S
H324 C310 0.969 . S
H325 C311 0.961 . S
H326 C311 0.961 . S
H327 C311 0.961 . S
H328 C312 0.931 . S
H329 C317 0.930 . S
H330 C318 0.956 . S
H331 C318 0.961 . S
H332 C318 0.961 . S
H333 C319 0.965 . S
H334 C319 0.967 . S
H335 C319 0.927 1_565 S
C336 C337 1.391 . S
C336 C338 1.394 . S
C336 H352 0.931 . S
C337 C336 1.391 . S
C337 C341 1.376 . S
C338 C336 1.394 . S
C338 C339 1.369 . S
C338 C342 1.531 1_655 S
C339 C338 1.369 . S
C339 C340 1.410 . S
C339 C347 1.503 1_655 S
C340 C339 1.410 . S
C340 C341 1.392 . S
C340 C343 1.511 . S
C341 C337 1.376 . S
C341 C340 1.392 . S
C341 H353 0.929 . S
C342 C338 1.531 1_455 S
C342 H354 0.960 . S
C342 H355 0.962 . S
C342 H356 0.960 . S
C343 C340 1.511 . S
C343 H357 0.961 . S
C343 H358 0.961 . S
C343 H359 0.961 . S
C344 C345 1.370 . S
C344 C346 1.363 . S
C344 H360 0.931 . S
C345 C344 1.370 . S
C345 C349 1.408 . S
C346 C344 1.363 . S
C346 C347 1.370 . S
C346 C350 1.524 . S
C347 C339 1.503 1_455 S
C347 C346 1.370 . S
C347 C348 1.403 . S
C348 C347 1.403 . S
C348 C349 1.404 . S
C348 C351 1.539 . S
C349 C345 1.408 . S
C349 C348 1.404 . S
C349 H361 0.930 . S
C350 C346 1.524 . S
C350 H362 0.956 . S
C350 H363 0.961 1_455 S
C350 H364 0.961 . S
C351 C348 1.539 . S
C351 H365 0.958 . S
C351 H366 0.961 . S
C351 H367 0.960 . S
H352 C336 0.931 . S
H353 C341 0.929 . S
H354 C342 0.960 . S
H355 C342 0.962 . S
H356 C342 0.960 . S
H357 C343 0.961 . S
H358 C343 0.961 . S
H359 C343 0.961 . S
H360 C344 0.931 . S
H361 C349 0.930 . S
H362 C350 0.956 . S
H363 C350 0.961 1_655 S
H364 C350 0.961 . S
H365 C351 0.958 . S
H366 C351 0.961 . S
H367 C351 0.960 . S
C368 C369 1.391 . S
C368 C370 1.394 . S
C368 H384 0.931 . S
C369 C368 1.391 . S
C369 C373 1.376 . S
C370 C368 1.394 . S
C370 C371 1.369 . S
C370 C374 1.531 1_545 S
C371 C370 1.369 . S
C371 C372 1.410 . S
C371 C379 1.503 1_545 S
C372 C371 1.410 . S
C372 C373 1.392 . S
C372 C375 1.511 . S
C373 C369 1.376 . S
C373 C372 1.392 . S
C373 H385 0.929 . S
C374 C370 1.531 1_565 S
C374 H386 0.960 . S
C374 H387 0.962 . S
C374 H388 0.960 1_565 S
C375 C372 1.511 . S
C375 H389 0.961 . S
C375 H390 0.961 . S
C375 H391 0.961 . S
C376 C377 1.370 . S
C376 C378 1.363 . S
C376 H392 0.931 . S
C377 C376 1.370 . S
C377 C381 1.408 . S
C378 C376 1.363 . S
C378 C379 1.370 . S
C378 C382 1.524 . S
C379 C371 1.503 1_565 S
C379 C378 1.370 . S
C379 C380 1.403 . S
C380 C379 1.403 . S
C380 C381 1.404 . S
C380 C383 1.539 1_565 S
C381 C377 1.408 . S
C381 C380 1.404 . S
C381 H393 0.930 . S
C382 C378 1.524 . S
C382 H394 0.956 . S
C382 H395 0.961 . S
C382 H396 0.961 . S
C383 C380 1.539 1_545 S
C383 H397 0.958 . S
C383 H398 0.961 . S
C383 H399 0.960 . S
H384 C368 0.931 . S
H385 C373 0.929 . S
H386 C374 0.960 . S
H387 C374 0.962 . S
H388 C374 0.960 1_545 S
H389 C375 0.961 . S
H390 C375 0.961 . S
H391 C375 0.961 . S
H392 C376 0.931 . S
H393 C381 0.930 . S
H394 C382 0.956 . S
H395 C382 0.961 . S
H396 C382 0.961 . S
H397 C383 0.958 . S
H398 C383 0.961 . S
H399 C383 0.960 . S
C400 C401 1.391 . S
C400 C402 1.394 . S
C400 H416 0.931 . S
C401 C400 1.391 . S
C401 C405 1.376 . S
C402 C400 1.394 . S
C402 C403 1.369 . S
C402 C406 1.531 1_655 S
C403 C402 1.369 . S
C403 C404 1.410 . S
C403 C411 1.503 1_655 S
C404 C403 1.410 . S
C404 C405 1.392 . S
C404 C407 1.511 . S
C405 C401 1.376 . S
C405 C404 1.392 . S
C405 H417 0.929 . S
C406 C402 1.531 1_455 S
C406 H418 0.960 . S
C406 H419 0.962 . S
C406 H420 0.960 . S
C407 C404 1.511 . S
C407 H421 0.961 . S
C407 H422 0.961 . S
C407 H423 0.961 . S
C408 C409 1.370 . S
C408 C410 1.363 . S
C408 H424 0.931 . S
C409 C408 1.370 . S
C409 C413 1.408 . S
C410 C408 1.363 . S
C410 C411 1.370 . S
C410 C414 1.524 1_455 S
C411 C403 1.503 1_455 S
C411 C410 1.370 . S
C411 C412 1.403 . S
C412 C411 1.403 . S
C412 C413 1.404 . S
C412 C415 1.539 . S
C413 C409 1.408 . S
C413 C412 1.404 . S
C413 H425 0.930 . S
C414 C410 1.524 1_655 S
C414 H426 0.956 . S
C414 H427 0.961 . S
C414 H428 0.961 . S
C415 C412 1.539 . S
C415 H429 0.958 . S
C415 H430 0.961 . S
C415 H431 0.960 . S
H416 C400 0.931 . S
H417 C405 0.929 . S
H418 C406 0.960 . S
H419 C406 0.962 . S
H420 C406 0.960 . S
H421 C407 0.961 . S
H422 C407 0.961 . S
H423 C407 0.961 . S
H424 C408 0.931 . S
H425 C413 0.930 . S
H426 C414 0.956 . S
H427 C414 0.961 . S
H428 C414 0.961 . S
H429 C415 0.958 . S
H430 C415 0.961 . S
H431 C415 0.960 . S
C432 C433 1.391 . S
C432 C434 1.394 . S
C432 H448 0.931 . S
C433 C432 1.391 . S
C433 C437 1.376 . S
C434 C432 1.394 . S
C434 C435 1.369 . S
C434 C438 1.531 . S
C435 C434 1.369 . S
C435 C436 1.410 . S
C435 C443 1.503 1_545 S
C436 C435 1.410 . S
C436 C437 1.392 . S
C436 C439 1.511 1_545 S
C437 C433 1.376 . S
C437 C436 1.392 . S
C437 H449 0.929 . S
C438 C434 1.531 . S
C438 H450 0.960 . S
C438 H451 0.962 . S
C438 H452 0.960 . S
C439 C436 1.511 1_565 S
C439 H453 0.961 . S
C439 H454 0.961 . S
C439 H455 0.961 . S
C440 C441 1.370 . S
C440 C442 1.363 . S
C440 H456 0.931 . S
C441 C440 1.370 . S
C441 C445 1.408 . S
C442 C440 1.363 . S
C442 C443 1.370 . S
C442 C446 1.524 1_565 S
C443 C435 1.503 1_565 S
C443 C442 1.370 . S
C443 C444 1.403 . S
C444 C443 1.403 . S
C444 C445 1.404 . S
C444 C447 1.539 . S
C445 C441 1.408 . S
C445 C444 1.404 . S
C445 H457 0.930 . S
C446 C442 1.524 1_545 S
C446 H458 0.956 . S
C446 H459 0.961 . S
C446 H460 0.961 1_545 S
C447 C444 1.539 . S
C447 H461 0.958 . S
C447 H462 0.961 . S
C447 H463 0.960 . S
H448 C432 0.931 . S
H449 C437 0.929 . S
H450 C438 0.960 . S
H451 C438 0.962 . S
H452 C438 0.960 . S
H453 C439 0.961 . S
H454 C439 0.961 . S
H455 C439 0.961 . S
H456 C440 0.931 . S
H457 C445 0.930 . S
H458 C446 0.956 . S
H459 C446 0.961 . S
H460 C446 0.961 1_565 S
H461 C447 0.958 . S
H462 C447 0.961 . S
H463 C447 0.960 . S
C464 C465 1.391 . S
C464 C466 1.394 . S
C464 H480 0.931 . S
C465 C464 1.391 . S
C465 C469 1.376 . S
C466 C464 1.394 . S
C466 C467 1.369 . S
C466 C470 1.531 . S
C467 C466 1.369 . S
C467 C468 1.410 . S
C467 C475 1.503 . S
C468 C467 1.410 . S
C468 C469 1.392 . S
C468 C471 1.511 . S
C469 C465 1.376 . S
C469 C468 1.392 . S
C469 H481 0.929 . S
C470 C466 1.531 . S
C470 H482 0.960 . S
C470 H483 0.962 . S
C470 H484 0.960 . S
C471 C468 1.511 . S
C471 H485 0.961 . S
C471 H486 0.961 . S
C471 H487 0.961 . S
C472 C473 1.370 . S
C472 C474 1.363 . S
C472 H488 0.931 . S
C473 C472 1.370 . S
C473 C477 1.408 . S
C474 C472 1.363 . S
C474 C475 1.370 . S
C474 C478 1.524 . S
C475 C467 1.503 . S
C475 C474 1.370 . S
C475 C476 1.403 . S
C476 C475 1.403 . S
C476 C477 1.404 . S
C476 C479 1.539 . S
C477 C473 1.408 . S
C477 C476 1.404 . S
C477 H489 0.930 . S
C478 C474 1.524 . S
C478 H490 0.956 . S
C478 H491 0.961 . S
C478 H492 0.961 . S
C479 C476 1.539 . S
C479 H493 0.958 . S
C479 H494 0.961 . S
C479 H495 0.960 . S
H480 C464 0.931 . S
H481 C469 0.929 . S
H482 C470 0.960 . S
H483 C470 0.962 . S
H484 C470 0.960 . S
H485 C471 0.961 . S
H486 C471 0.961 . S
H487 C471 0.961 . S
H488 C472 0.931 . S
H489 C477 0.930 . S
H490 C478 0.956 . S
H491 C478 0.961 . S
H492 C478 0.961 . S
H493 C479 0.958 . S
H494 C479 0.961 . S
H495 C479 0.960 . S
C496 C497 1.391 . S
C496 C498 1.394 . S
C496 H512 0.931 . S
C497 C496 1.391 . S
C497 C501 1.376 . S
C498 C496 1.394 . S
C498 C499 1.369 . S
C498 C502 1.531 . S
C499 C498 1.369 . S
C499 C500 1.410 . S
C499 C507 1.503 . S
C500 C499 1.410 . S
C500 C501 1.392 . S
C500 C503 1.511 . S
C501 C497 1.376 . S
C501 C500 1.392 . S
C501 H513 0.929 . S
C502 C498 1.531 . S
C502 H514 0.960 . S
C502 H515 0.962 . S
C502 H516 0.960 . S
C503 C500 1.511 . S
C503 H517 0.961 . S
C503 H518 0.961 . S
C503 H519 0.961 . S
C504 C505 1.370 . S
C504 C506 1.363 . S
C504 H520 0.931 . S
C505 C504 1.370 . S
C505 C509 1.408 . S
C506 C504 1.363 . S
C506 C507 1.370 . S
C506 C510 1.524 . S
C507 C499 1.503 . S
C507 C506 1.370 . S
C507 C508 1.403 . S
C508 C507 1.403 . S
C508 C509 1.404 . S
C508 C511 1.539 . S
C509 C505 1.408 . S
C509 C508 1.404 . S
C509 H521 0.930 . S
C510 C506 1.524 . S
C510 H522 0.956 . S
C510 H523 0.961 . S
C510 H524 0.961 . S
C511 C508 1.539 . S
C511 H525 0.958 . S
C511 H526 0.961 . S
C511 H527 0.960 . S
H512 C496 0.931 . S
H513 C501 0.929 . S
H514 C502 0.960 . S
H515 C502 0.962 . S
H516 C502 0.960 . S
H517 C503 0.961 . S
H518 C503 0.961 . S
H519 C503 0.961 . S
H520 C504 0.931 . S
H521 C509 0.930 . S
H522 C510 0.956 . S
H523 C510 0.961 . S
H524 C510 0.961 . S
H525 C511 0.958 . S
H526 C511 0.961 . S
H527 C511 0.960 . S
C528 C529 1.391 . S
C528 C530 1.394 . S
C528 H544 0.931 . S
C529 C528 1.391 . S
C529 C533 1.376 . S
C530 C528 1.394 . S
C530 C531 1.369 . S
C530 C534 1.531 . S
C531 C530 1.369 . S
C531 C532 1.410 . S
C531 C539 1.503 . S
C532 C531 1.410 . S
C532 C533 1.392 . S
C532 C535 1.511 . S
C533 C529 1.376 . S
C533 C532 1.392 . S
C533 H545 0.929 . S
C534 C530 1.531 . S
C534 H546 0.960 . S
C534 H547 0.962 . S
C534 H548 0.960 . S
C535 C532 1.511 . S
C535 H549 0.961 . S
C535 H550 0.961 . S
C535 H551 0.961 . S
C536 C537 1.370 . S
C536 C538 1.363 . S
C536 H552 0.931 . S
C537 C536 1.370 . S
C537 C541 1.408 . S
C538 C536 1.363 . S
C538 C539 1.370 . S
C538 C542 1.524 . S
C539 C531 1.503 . S
C539 C538 1.370 . S
C539 C540 1.403 . S
C540 C539 1.403 . S
C540 C541 1.404 . S
C540 C543 1.539 . S
C541 C537 1.408 . S
C541 C540 1.404 . S
C541 H553 0.930 . S
C542 C538 1.524 . S
C542 H554 0.956 . S
C542 H555 0.961 . S
C542 H556 0.961 . S
C543 C540 1.539 . S
C543 H557 0.958 . S
C543 H558 0.961 . S
C543 H559 0.960 . S
H544 C528 0.931 . S
H545 C533 0.929 . S
H546 C534 0.960 . S
H547 C534 0.962 . S
H548 C534 0.960 . S
H549 C535 0.961 . S
H550 C535 0.961 . S
H551 C535 0.961 . S
H552 C536 0.931 . S
H553 C541 0.930 . S
H554 C542 0.956 . S
H555 C542 0.961 . S
H556 C542 0.961 . S
H557 C543 0.958 . S
H558 C543 0.961 . S
H559 C543 0.960 . S
C560 C561 1.391 . S
C560 C562 1.394 . S
C560 H576 0.931 . S
C561 C560 1.391 . S
C561 C565 1.376 . S
C562 C560 1.394 . S
C562 C563 1.369 . S
C562 C566 1.531 . S
C563 C562 1.369 . S
C563 C564 1.410 . S
C563 C571 1.503 . S
C564 C563 1.410 . S
C564 C565 1.392 . S
C564 C567 1.511 . S
C565 C561 1.376 . S
C565 C564 1.392 . S
C565 H577 0.929 . S
C566 C562 1.531 . S
C566 H578 0.960 . S
C566 H579 0.962 . S
C566 H580 0.960 . S
C567 C564 1.511 . S
C567 H581 0.961 . S
C567 H582 0.961 . S
C567 H583 0.961 . S
C568 C569 1.370 . S
C568 C570 1.363 . S
C568 H584 0.931 . S
C569 C568 1.370 . S
C569 C573 1.408 . S
C570 C568 1.363 . S
C570 C571 1.370 . S
C570 C574 1.524 . S
C571 C563 1.503 . S
C571 C570 1.370 . S
C571 C572 1.403 . S
C572 C571 1.403 . S
C572 C573 1.404 . S
C572 C575 1.539 . S
C573 C569 1.408 . S
C573 C572 1.404 . S
C573 H585 0.930 . S
C574 C570 1.524 . S
C574 H586 0.956 . S
C574 H587 0.961 . S
C574 H588 0.961 . S
C575 C572 1.539 . S
C575 H589 0.958 . S
C575 H590 0.961 . S
C575 H591 0.960 . S
H576 C560 0.931 . S
H577 C565 0.929 . S
H578 C566 0.960 . S
H579 C566 0.962 . S
H580 C566 0.960 . S
H581 C567 0.961 . S
H582 C567 0.961 . S
H583 C567 0.961 . S
H584 C568 0.931 . S
H585 C573 0.930 . S
H586 C574 0.956 . S
H587 C574 0.961 . S
H588 C574 0.961 . S
H589 C575 0.958 . S
H590 C575 0.961 . S
H591 C575 0.960 . S
C592 C593 1.391 . S
C592 C594 1.394 . S
C592 H608 0.931 . S
C593 C592 1.391 . S
C593 C597 1.376 . S
C594 C592 1.394 . S
C594 C595 1.369 . S
C594 C598 1.531 . S
C595 C594 1.369 . S
C595 C596 1.410 . S
C595 C603 1.503 . S
C596 C595 1.410 . S
C596 C597 1.392 . S
C596 C599 1.511 . S
C597 C593 1.376 . S
C597 C596 1.392 . S
C597 H609 0.929 . S
C598 C594 1.531 . S
C598 H610 0.960 . S
C598 H611 0.962 . S
C598 H612 0.960 . S
C599 C596 1.511 . S
C599 H613 0.961 . S
C599 H614 0.961 . S
C599 H615 0.961 . S
C600 C601 1.370 . S
C600 C602 1.363 . S
C600 H616 0.931 . S
C601 C600 1.370 . S
C601 C605 1.408 . S
C602 C600 1.363 . S
C602 C603 1.370 . S
C602 C606 1.524 . S
C603 C595 1.503 . S
C603 C602 1.370 . S
C603 C604 1.403 . S
C604 C603 1.403 . S
C604 C605 1.404 . S
C604 C607 1.539 . S
C605 C601 1.408 . S
C605 C604 1.404 . S
C605 H617 0.930 . S
C606 C602 1.524 . S
C606 H618 0.956 . S
C606 H619 0.961 . S
C606 H620 0.961 . S
C607 C604 1.539 . S
C607 H621 0.958 . S
C607 H622 0.961 . S
C607 H623 0.960 . S
H608 C592 0.931 . S
H609 C597 0.929 . S
H610 C598 0.960 . S
H611 C598 0.962 . S
H612 C598 0.960 . S
H613 C599 0.961 . S
H614 C599 0.961 . S
H615 C599 0.961 . S
H616 C600 0.931 . S
H617 C605 0.930 . S
H618 C606 0.956 . S
H619 C606 0.961 . S
H620 C606 0.961 . S
H621 C607 0.958 . S
H622 C607 0.961 . S
H623 C607 0.960 . S
C624 C625 1.391 . S
C624 C626 1.394 . S
C624 H640 0.931 . S
C625 C624 1.391 . S
C625 C629 1.376 . S
C626 C624 1.394 . S
C626 C627 1.369 . S
C626 C630 1.531 . S
C627 C626 1.369 . S
C627 C628 1.410 . S
C627 C635 1.503 . S
C628 C627 1.410 . S
C628 C629 1.392 . S
C628 C631 1.511 . S
C629 C625 1.376 . S
C629 C628 1.392 . S
C629 H641 0.929 . S
C630 C626 1.531 . S
C630 H642 0.960 . S
C630 H643 0.962 . S
C630 H644 0.960 . S
C631 C628 1.511 . S
C631 H645 0.961 . S
C631 H646 0.961 . S
C631 H647 0.961 . S
C632 C633 1.370 . S
C632 C634 1.363 . S
C632 H648 0.931 . S
C633 C632 1.370 . S
C633 C637 1.408 . S
C634 C632 1.363 . S
C634 C635 1.370 . S
C634 C638 1.524 . S
C635 C627 1.503 . S
C635 C634 1.370 . S
C635 C636 1.403 . S
C636 C635 1.403 . S
C636 C637 1.404 . S
C636 C639 1.539 . S
C637 C633 1.408 . S
C637 C636 1.404 . S
C637 H649 0.930 . S
C638 C634 1.524 . S
C638 H650 0.956 . S
C638 H651 0.961 . S
C638 H652 0.961 . S
C639 C636 1.539 . S
C639 H653 0.958 . S
C639 H654 0.961 . S
C639 H655 0.960 . S
H640 C624 0.931 . S
H641 C629 0.929 . S
H642 C630 0.960 . S
H643 C630 0.962 . S
H644 C630 0.960 . S
H645 C631 0.961 . S
H646 C631 0.961 . S
H647 C631 0.961 . S
H648 C632 0.931 . S
H649 C637 0.930 . S
H650 C638 0.956 . S
H651 C638 0.961 . S
H652 C638 0.961 . S
H653 C639 0.958 . S
H654 C639 0.961 . S
H655 C639 0.960 . S
C656 C657 1.391 . S
C656 C658 1.394 . S
C656 H672 0.931 . S
C657 C656 1.391 . S
C657 C661 1.376 . S
C658 C656 1.394 . S
C658 C659 1.369 . S
C658 C662 1.531 . S
C659 C658 1.369 . S
C659 C660 1.410 . S
C659 C667 1.503 . S
C660 C659 1.410 . S
C660 C661 1.392 . S
C660 C663 1.511 . S
C661 C657 1.376 . S
C661 C660 1.392 . S
C661 H673 0.929 . S
C662 C658 1.531 . S
C662 H674 0.960 . S
C662 H675 0.962 . S
C662 H676 0.960 . S
C663 C660 1.511 . S
C663 H677 0.961 . S
C663 H678 0.961 . S
C663 H679 0.961 . S
C664 C665 1.370 . S
C664 C666 1.363 . S
C664 H680 0.931 . S
C665 C664 1.370 . S
C665 C669 1.408 . S
C666 C664 1.363 . S
C666 C667 1.370 . S
C666 C670 1.524 . S
C667 C659 1.503 . S
C667 C666 1.370 . S
C667 C668 1.403 . S
C668 C667 1.403 . S
C668 C669 1.404 . S
C668 C671 1.539 . S
C669 C665 1.408 . S
C669 C668 1.404 . S
C669 H681 0.930 . S
C670 C666 1.524 . S
C670 H682 0.956 . S
C670 H683 0.961 . S
C670 H684 0.961 . S
C671 C668 1.539 . S
C671 H685 0.958 . S
C671 H686 0.961 . S
C671 H687 0.960 . S
H672 C656 0.931 . S
H673 C661 0.929 . S
H674 C662 0.960 . S
H675 C662 0.962 . S
H676 C662 0.960 . S
H677 C663 0.961 . S
H678 C663 0.961 . S
H679 C663 0.961 . S
H680 C664 0.931 . S
H681 C669 0.930 . S
H682 C670 0.956 . S
H683 C670 0.961 . S
H684 C670 0.961 . S
H685 C671 0.958 . S
H686 C671 0.961 . S
H687 C671 0.960 . S
C688 C689 1.391 . S
C688 C690 1.394 . S
C688 H704 0.931 . S
C689 C688 1.391 . S
C689 C693 1.376 . S
C690 C688 1.394 . S
C690 C691 1.369 . S
C690 C694 1.531 . S
C691 C690 1.369 . S
C691 C692 1.410 . S
C691 C699 1.503 . S
C692 C691 1.410 . S
C692 C693 1.392 . S
C692 C695 1.511 . S
C693 C689 1.376 . S
C693 C692 1.392 . S
C693 H705 0.929 . S
C694 C690 1.531 . S
C694 H706 0.960 . S
C694 H707 0.962 . S
C694 H708 0.960 . S
C695 C692 1.511 . S
C695 H709 0.961 . S
C695 H710 0.961 . S
C695 H711 0.961 . S
C696 C697 1.370 . S
C696 C698 1.363 . S
C696 H712 0.931 . S
C697 C696 1.370 . S
C697 C701 1.408 . S
C698 C696 1.363 . S
C698 C699 1.370 . S
C698 C702 1.524 . S
C699 C691 1.503 . S
C699 C698 1.370 . S
C699 C700 1.403 . S
C700 C699 1.403 . S
C700 C701 1.404 . S
C700 C703 1.539 . S
C701 C697 1.408 . S
C701 C700 1.404 . S
C701 H713 0.930 . S
C702 C698 1.524 . S
C702 H714 0.956 . S
C702 H715 0.961 . S
C702 H716 0.961 . S
C703 C700 1.539 . S
C703 H717 0.958 . S
C703 H718 0.961 . S
C703 H719 0.960 . S
H704 C688 0.931 . S
H705 C693 0.929 . S
H706 C694 0.960 . S
H707 C694 0.962 . S
H708 C694 0.960 . S
H709 C695 0.961 . S
H710 C695 0.961 . S
H711 C695 0.961 . S
H712 C696 0.931 . S
H713 C701 0.930 . S
H714 C702 0.956 . S
H715 C702 0.961 . S
H716 C702 0.961 . S
H717 C703 0.958 . S
H718 C703 0.961 . S
H719 C703 0.960 . S
C720 C721 1.391 . S
C720 C722 1.394 . S
C720 H736 0.931 . S
C721 C720 1.391 . S
C721 C725 1.376 . S
C722 C720 1.394 . S
C722 C723 1.369 . S
C722 C726 1.531 . S
C723 C722 1.369 . S
C723 C724 1.410 . S
C723 C731 1.503 1_556 S
C724 C723 1.410 . S
C724 C725 1.392 . S
C724 C727 1.511 . S
C725 C721 1.376 . S
C725 C724 1.392 . S
C725 H737 0.929 . S
C726 C722 1.531 . S
C726 H738 0.960 1_556 S
C726 H739 0.962 . S
C726 H740 0.960 . S
C727 C724 1.511 . S
C727 H741 0.961 . S
C727 H742 0.961 1_556 S
C727 H743 0.961 . S
C728 C729 1.370 . S
C728 C730 1.363 . S
C728 H744 0.931 . S
C729 C728 1.370 . S
C729 C733 1.408 . S
C730 C728 1.363 . S
C730 C731 1.370 . S
C730 C734 1.524 . S
C731 C723 1.503 1_554 S
C731 C730 1.370 . S
C731 C732 1.403 . S
C732 C731 1.403 . S
C732 C733 1.404 . S
C732 C735 1.539 . S
C733 C729 1.408 . S
C733 C732 1.404 . S
C733 H745 0.930 . S
C734 C730 1.524 . S
C734 H746 0.956 . S
C734 H747 0.961 1_554 S
C734 H748 0.961 . S
C735 C732 1.539 . S
C735 H749 0.958 . S
C735 H750 0.961 . S
C735 H751 0.970 . S
H736 C720 0.931 . S
H737 C725 0.929 . S
H738 C726 0.960 1_554 S
H739 C726 0.962 . S
H740 C726 0.960 . S
H741 C727 0.961 . S
H742 C727 0.961 1_554 S
H743 C727 0.961 . S
H744 C728 0.931 . S
H745 C733 0.930 . S
H746 C734 0.956 . S
H747 C734 0.961 1_556 S
H748 C734 0.961 . S
H749 C735 0.958 . S
H750 C735 0.961 . S
H751 C735 0.970 . S
C752 C753 1.391 . S
C752 C754 1.394 . S
C752 H768 0.931 . S
C753 C752 1.391 . S
C753 C757 1.376 . S
C754 C752 1.394 . S
C754 C755 1.369 . S
C754 C758 1.531 . S
C755 C754 1.369 . S
C755 C756 1.410 . S
C755 C763 1.503 . S
C756 C755 1.410 . S
C756 C757 1.392 . S
C756 C759 1.511 . S
C757 C753 1.376 . S
C757 C756 1.392 . S
C757 H769 0.929 . S
C758 C754 1.531 . S
C758 H770 0.960 . S
C758 H771 0.962 . S
C758 H772 0.960 . S
C759 C756 1.511 . S
C759 H773 0.961 . S
C759 H774 0.961 . S
C759 H775 0.961 . S
C760 C761 1.370 . S
C760 C762 1.363 . S
C760 H776 0.931 . S
C761 C760 1.370 . S
C761 C765 1.408 . S
C762 C760 1.363 . S
C762 C763 1.370 . S
C762 C766 1.524 . S
C763 C755 1.503 . S
C763 C762 1.370 . S
C763 C764 1.403 . S
C764 C763 1.403 . S
C764 C765 1.404 . S
C764 C767 1.539 . S
C765 C761 1.408 . S
C765 C764 1.404 . S
C765 H777 0.930 . S
C766 C762 1.524 . S
C766 H778 0.956 . S
C766 H779 0.961 . S
C766 H780 0.961 . S
C767 C764 1.539 . S
C767 H781 0.958 . S
C767 H782 0.961 . S
C767 H783 0.960 . S
H768 C752 0.931 . S
H769 C757 0.929 . S
H770 C758 0.960 . S
H771 C758 0.962 . S
H772 C758 0.960 . S
H773 C759 0.961 . S
H774 C759 0.961 . S
H775 C759 0.961 . S
H776 C760 0.931 . S
H777 C765 0.930 . S
H778 C766 0.956 . S
H779 C766 0.961 . S
H780 C766 0.961 . S
H781 C767 0.958 . S
H782 C767 0.961 . S
H783 C767 0.960 . S
C784 C785 1.391 . S
C784 C786 1.394 . S
C784 H800 0.931 . S
C785 C784 1.391 . S
C785 C789 1.376 . S
C786 C784 1.394 . S
C786 C787 1.369 . S
C786 C790 1.531 . S
C787 C786 1.369 . S
C787 C788 1.410 . S
C787 C795 1.503 1_554 S
C788 C787 1.410 . S
C788 C789 1.392 . S
C788 C791 1.511 . S
C789 C785 1.376 . S
C789 C788 1.392 . S
C789 H801 0.929 . S
C790 C786 1.531 . S
C790 H802 0.960 1_554 S
C790 H803 0.962 . S
C790 H804 0.960 . S
C791 C788 1.511 . S
C791 H805 0.961 . S
C791 H806 0.961 1_554 S
C791 H807 0.961 . S
C792 C793 1.370 . S
C792 C794 1.363 . S
C792 H808 0.931 . S
C793 C792 1.370 . S
C793 C797 1.408 . S
C794 C792 1.363 . S
C794 C795 1.370 . S
C794 C798 1.524 . S
C795 C787 1.503 1_556 S
C795 C794 1.370 . S
C795 C796 1.403 . S
C796 C795 1.403 . S
C796 C797 1.404 . S
C796 C799 1.539 . S
C797 C793 1.408 . S
C797 C796 1.404 . S
C797 H809 0.930 . S
C798 C794 1.524 . S
C798 H810 0.956 . S
C798 H811 0.961 1_556 S
C798 H812 0.961 . S
C799 C796 1.539 . S
C799 H813 0.958 . S
C799 H814 0.961 . S
C799 H815 0.970 . S
H800 C784 0.931 . S
H801 C789 0.929 . S
H802 C790 0.960 1_556 S
H803 C790 0.962 . S
H804 C790 0.960 . S
H805 C791 0.961 . S
H806 C791 0.961 1_556 S
H807 C791 0.961 . S
H808 C792 0.931 . S
H809 C797 0.930 . S
H810 C798 0.956 . S
H811 C798 0.961 1_554 S
H812 C798 0.961 . S
H813 C799 0.958 . S
H814 C799 0.961 . S
H815 C799 0.970 . S
C816 C817 1.391 . S
C816 C818 1.394 . S
C816 H832 0.931 . S
C817 C816 1.391 . S
C817 C821 1.376 . S
C818 C816 1.394 . S
C818 C819 1.369 . S
C818 C822 1.531 . S
C819 C818 1.369 . S
C819 C820 1.410 . S
C819 C827 1.503 . S
C820 C819 1.410 . S
C820 C821 1.392 . S
C820 C823 1.511 . S
C821 C817 1.376 . S
C821 C820 1.392 . S
C821 H833 0.929 . S
C822 C818 1.531 . S
C822 H834 0.960 . S
C822 H835 0.962 . S
C822 H836 0.960 . S
C823 C820 1.511 . S
C823 H837 0.961 . S
C823 H838 0.961 . S
C823 H839 0.961 . S
C824 C825 1.370 . S
C824 C826 1.363 . S
C824 H840 0.931 . S
C825 C824 1.370 . S
C825 C829 1.408 . S
C826 C824 1.363 . S
C826 C827 1.370 . S
C826 C830 1.524 . S
C827 C819 1.503 . S
C827 C826 1.370 . S
C827 C828 1.403 . S
C828 C827 1.403 . S
C828 C829 1.404 . S
C828 C831 1.539 . S
C829 C825 1.408 . S
C829 C828 1.404 . S
C829 H841 0.930 . S
C830 C826 1.524 . S
C830 H842 0.956 . S
C830 H843 0.961 . S
C830 H844 0.961 . S
C831 C828 1.539 . S
C831 H845 0.958 . S
C831 H846 0.961 . S
C831 H847 0.960 . S
H832 C816 0.931 . S
H833 C821 0.929 . S
H834 C822 0.960 . S
H835 C822 0.962 . S
H836 C822 0.960 . S
H837 C823 0.961 . S
H838 C823 0.961 . S
H839 C823 0.961 . S
H840 C824 0.931 . S
H841 C829 0.930 . S
H842 C830 0.956 . S
H843 C830 0.961 . S
H844 C830 0.961 . S
H845 C831 0.958 . S
H846 C831 0.961 . S
H847 C831 0.960 . S
C848 C849 1.391 . S
C848 C850 1.394 . S
C848 H864 0.931 . S
C849 C848 1.391 . S
C849 C853 1.376 . S
C850 C848 1.394 . S
C850 C851 1.369 . S
C850 C854 1.531 . S
C851 C850 1.369 . S
C851 C852 1.410 . S
C851 C859 1.503 . S
C852 C851 1.410 . S
C852 C853 1.392 . S
C852 C855 1.511 . S
C853 C849 1.376 . S
C853 C852 1.392 . S
C853 H865 0.929 . S
C854 C850 1.531 . S
C854 H866 0.960 . S
C854 H867 0.962 . S
C854 H868 0.960 . S
C855 C852 1.511 . S
C855 H869 0.961 . S
C855 H870 0.961 . S
C855 H871 0.961 . S
C856 C857 1.370 . S
C856 C858 1.363 . S
C856 H872 0.931 . S
C857 C856 1.370 . S
C857 C861 1.408 . S
C858 C856 1.363 . S
C858 C859 1.370 . S
C858 C862 1.524 . S
C859 C851 1.503 . S
C859 C858 1.370 . S
C859 C860 1.403 . S
C860 C859 1.403 . S
C860 C861 1.404 . S
C860 C863 1.539 . S
C861 C857 1.408 . S
C861 C860 1.404 . S
C861 H873 0.930 . S
C862 C858 1.524 . S
C862 H874 0.956 . S
C862 H875 0.961 . S
C862 H876 0.961 . S
C863 C860 1.539 . S
C863 H877 0.958 . S
C863 H878 0.961 . S
C863 H879 0.960 . S
H864 C848 0.931 . S
H865 C853 0.929 . S
H866 C854 0.960 . S
H867 C854 0.962 . S
H868 C854 0.960 . S
H869 C855 0.961 . S
H870 C855 0.961 . S
H871 C855 0.961 . S
H872 C856 0.931 . S
H873 C861 0.930 . S
H874 C862 0.956 . S
H875 C862 0.961 . S
H876 C862 0.961 . S
H877 C863 0.958 . S
H878 C863 0.961 . S
H879 C863 0.960 . S
C880 C881 1.391 . S
C880 C882 1.394 . S
C880 H896 0.931 . S
C881 C880 1.391 . S
C881 C885 1.376 . S
C882 C880 1.394 . S
C882 C883 1.369 . S
C882 C886 1.531 . S
C883 C882 1.369 . S
C883 C884 1.410 . S
C883 C891 1.503 1_556 S
C884 C883 1.410 . S
C884 C885 1.392 . S
C884 C887 1.511 . S
C885 C881 1.376 . S
C885 C884 1.392 . S
C885 H897 0.929 . S
C886 C882 1.531 . S
C886 H898 0.960 1_556 S
C886 H899 0.962 . S
C886 H900 0.960 . S
C887 C884 1.511 . S
C887 H901 0.961 . S
C887 H902 0.961 1_556 S
C887 H903 0.961 . S
C888 C889 1.370 . S
C888 C890 1.363 . S
C888 H904 0.931 . S
C889 C888 1.370 . S
C889 C893 1.408 . S
C890 C888 1.363 . S
C890 C891 1.370 . S
C890 C894 1.524 . S
C891 C883 1.503 1_554 S
C891 C890 1.370 . S
C891 C892 1.403 . S
C892 C891 1.403 . S
C892 C893 1.404 . S
C892 C895 1.539 . S
C893 C889 1.408 . S
C893 C892 1.404 . S
C893 H905 0.930 . S
C894 C890 1.524 . S
C894 H906 0.956 . S
C894 H907 0.961 1_554 S
C894 H908 0.961 . S
C895 C892 1.539 . S
C895 H909 0.958 . S
C895 H910 0.961 . S
C895 H911 0.970 . S
H896 C880 0.931 . S
H897 C885 0.929 . S
H898 C886 0.960 1_554 S
H899 C886 0.962 . S
H900 C886 0.960 . S
H901 C887 0.961 . S
H902 C887 0.961 1_554 S
H903 C887 0.961 . S
H904 C888 0.931 . S
H905 C893 0.930 . S
H906 C894 0.956 . S
H907 C894 0.961 1_556 S
H908 C894 0.961 . S
H909 C895 0.958 . S
H910 C895 0.961 . S
H911 C895 0.970 . S
C912 C913 1.391 . S
C912 C914 1.394 . S
C912 H928 0.931 . S
C913 C912 1.391 . S
C913 C917 1.376 . S
C914 C912 1.394 . S
C914 C915 1.369 . S
C914 C918 1.531 . S
C915 C914 1.369 . S
C915 C916 1.410 . S
C915 C923 1.503 . S
C916 C915 1.410 . S
C916 C917 1.392 . S
C916 C919 1.511 . S
C917 C913 1.376 . S
C917 C916 1.392 . S
C917 H929 0.929 . S
C918 C914 1.531 . S
C918 H930 0.960 . S
C918 H931 0.962 . S
C918 H932 0.960 . S
C919 C916 1.511 . S
C919 H933 0.961 . S
C919 H934 0.961 . S
C919 H935 0.961 . S
C920 C921 1.370 . S
C920 C922 1.363 . S
C920 H936 0.931 . S
C921 C920 1.370 . S
C921 C925 1.408 . S
C922 C920 1.363 . S
C922 C923 1.370 . S
C922 C926 1.524 . S
C923 C915 1.503 . S
C923 C922 1.370 . S
C923 C924 1.403 . S
C924 C923 1.403 . S
C924 C925 1.404 . S
C924 C927 1.539 . S
C925 C921 1.408 . S
C925 C924 1.404 . S
C925 H937 0.930 . S
C926 C922 1.524 . S
C926 H938 0.956 . S
C926 H939 0.961 . S
C926 H940 0.961 . S
C927 C924 1.539 . S
C927 H941 0.958 . S
C927 H942 0.961 . S
C927 H943 0.960 . S
H928 C912 0.931 . S
H929 C917 0.929 . S
H930 C918 0.960 . S
H931 C918 0.962 . S
H932 C918 0.960 . S
H933 C919 0.961 . S
H934 C919 0.961 . S
H935 C919 0.961 . S
H936 C920 0.931 . S
H937 C925 0.930 . S
H938 C926 0.956 . S
H939 C926 0.961 . S
H940 C926 0.961 . S
H941 C927 0.958 . S
H942 C927 0.961 . S
H943 C927 0.960 . S
C944 C945 1.391 . S
C944 C946 1.394 . S
C944 H960 0.931 . S
C945 C944 1.391 . S
C945 C949 1.376 . S
C946 C944 1.394 . S
C946 C947 1.369 . S
C946 C950 1.531 . S
C947 C946 1.369 . S
C947 C948 1.410 . S
C947 C955 1.503 1_554 S
C948 C947 1.410 . S
C948 C949 1.392 . S
C948 C951 1.511 . S
C949 C945 1.376 . S
C949 C948 1.392 . S
C949 H961 0.929 . S
C950 C946 1.531 . S
C950 H962 0.960 1_554 S
C950 H963 0.962 . S
C950 H964 0.960 . S
C951 C948 1.511 . S
C951 H965 0.961 . S
C951 H966 0.961 1_554 S
C951 H967 0.961 . S
C952 C953 1.370 . S
C952 C954 1.363 . S
C952 H968 0.931 . S
C953 C952 1.370 . S
C953 C957 1.408 . S
C954 C952 1.363 . S
C954 C955 1.370 . S
C954 C958 1.524 . S
C955 C947 1.503 1_556 S
C955 C954 1.370 . S
C955 C956 1.403 . S
C956 C955 1.403 . S
C956 C957 1.404 . S
C956 C959 1.539 . S
C957 C953 1.408 . S
C957 C956 1.404 . S
C957 H969 0.930 . S
C958 C954 1.524 . S
C958 H970 0.956 . S
C958 H971 0.961 1_556 S
C958 H972 0.961 . S
C959 C956 1.539 . S
C959 H973 0.958 . S
C959 H974 0.961 . S
C959 H975 0.970 . S
H960 C944 0.931 . S
H961 C949 0.929 . S
H962 C950 0.960 1_556 S
H963 C950 0.962 . S
H964 C950 0.960 . S
H965 C951 0.961 . S
H966 C951 0.961 1_556 S
H967 C951 0.961 . S
H968 C952 0.931 . S
H969 C957 0.930 . S
H970 C958 0.956 . S
H971 C958 0.961 1_554 S
H972 C958 0.961 . S
H973 C959 0.958 . S
H974 C959 0.961 . S
H975 C959 0.970 . S
C976 C977 1.391 . S
C976 C978 1.394 . S
C976 H992 0.931 . S
C977 C976 1.391 . S
C977 C981 1.376 . S
C978 C976 1.394 . S
C978 C979 1.369 . S
C978 C982 1.531 . S
C979 C978 1.369 . S
C979 C980 1.410 . S
C979 C987 1.503 . S
C980 C979 1.410 . S
C980 C981 1.392 . S
C980 C983 1.511 . S
C981 C977 1.376 . S
C981 C980 1.392 . S
C981 H993 0.929 . S
C982 C978 1.531 . S
C982 H994 0.960 . S
C982 H995 0.962 . S
C982 H996 0.960 . S
C983 C980 1.511 . S
C983 H997 0.961 . S
C983 H998 0.961 . S
C983 H999 0.961 . S
C984 C985 1.370 . S
C984 C986 1.363 . S
C984 H1000 0.931 . S
C985 C984 1.370 . S
C985 C989 1.408 . S
C986 C984 1.363 . S
C986 C987 1.370 . S
C986 C990 1.524 . S
C987 C979 1.503 . S
C987 C986 1.370 . S
C987 C988 1.403 . S
C988 C987 1.403 . S
C988 C989 1.404 . S
C988 C991 1.539 . S
C989 C985 1.408 . S
C989 C988 1.404 . S
C989 H1001 0.930 . S
C990 C986 1.524 . S
C990 H1002 0.956 . S
C990 H1003 0.961 . S
C990 H1004 0.961 . S
C991 C988 1.539 . S
C991 H1005 0.958 . S
C991 H1006 0.961 . S
C991 H1007 0.960 . S
H992 C976 0.931 . S
H993 C981 0.929 . S
H994 C982 0.960 . S
H995 C982 0.962 . S
H996 C982 0.960 . S
H997 C983 0.961 . S
H998 C983 0.961 . S
H999 C983 0.961 . S
H1000 C984 0.931 . S
H1001 C989 0.930 . S
H1002 C990 0.956 . S
H1003 C990 0.961 . S
H1004 C990 0.961 . S
H1005 C991 0.958 . S
H1006 C991 0.961 . S
H1007 C991 0.960 . S
C1008 C1009 1.391 . S
C1008 C1010 1.394 . S
C1008 H1024 0.931 . S
C1009 C1008 1.391 . S
C1009 C1013 1.376 . S
C1010 C1008 1.394 . S
C1010 C1011 1.369 . S
C1010 C1014 1.531 . S
C1011 C1010 1.369 . S
C1011 C1012 1.410 . S
C1011 C1019 1.503 . S
C1012 C1011 1.410 . S
C1012 C1013 1.392 . S
C1012 C1015 1.511 . S
C1013 C1009 1.376 . S
C1013 C1012 1.392 . S
C1013 H1025 0.929 . S
C1014 C1010 1.531 . S
C1014 H1026 0.960 . S
C1014 H1027 0.962 . S
C1014 H1028 0.960 . S
C1015 C1012 1.511 . S
C1015 H1029 0.961 . S
C1015 H1030 0.961 . S
C1015 H1031 0.961 . S
C1016 C1017 1.370 . S
C1016 C1018 1.363 . S
C1016 H1032 0.931 . S
C1017 C1016 1.370 . S
C1017 C1021 1.408 . S
C1018 C1016 1.363 . S
C1018 C1019 1.370 . S
C1018 C1022 1.524 . S
C1019 C1011 1.503 . S
C1019 C1018 1.370 . S
C1019 C1020 1.403 . S
C1020 C1019 1.403 . S
C1020 C1021 1.404 . S
C1020 C1023 1.539 . S
C1021 C1017 1.408 . S
C1021 C1020 1.404 . S
C1021 H1033 0.930 . S
C1022 C1018 1.524 . S
C1022 H1034 0.956 . S
C1022 H1035 0.961 . S
C1022 H1036 0.961 . S
C1023 C1020 1.539 . S
C1023 H1037 0.958 . S
C1023 H1038 0.961 . S
C1023 H1039 0.960 . S
H1024 C1008 0.931 . S
H1025 C1013 0.929 . S
H1026 C1014 0.960 . S
H1027 C1014 0.962 . S
H1028 C1014 0.960 . S
H1029 C1015 0.961 . S
H1030 C1015 0.961 . S
H1031 C1015 0.961 . S
H1032 C1016 0.931 . S
H1033 C1021 0.930 . S
H1034 C1022 0.956 . S
H1035 C1022 0.961 . S
H1036 C1022 0.961 . S
H1037 C1023 0.958 . S
H1038 C1023 0.961 . S
H1039 C1023 0.960 . S
C1040 C1041 1.391 . S
C1040 C1042 1.394 . S
C1040 H1056 0.931 . S
C1041 C1040 1.391 . S
C1041 C1045 1.376 . S
C1042 C1040 1.394 . S
C1042 C1043 1.369 . S
C1042 C1046 1.531 . S
C1043 C1042 1.369 . S
C1043 C1044 1.410 . S
C1043 C1051 1.503 . S
C1044 C1043 1.410 . S
C1044 C1045 1.392 . S
C1044 C1047 1.511 . S
C1045 C1041 1.376 . S
C1045 C1044 1.392 . S
C1045 H1057 0.929 . S
C1046 C1042 1.531 . S
C1046 H1058 0.960 . S
C1046 H1059 0.962 . S
C1046 H1060 0.960 . S
C1047 C1044 1.511 . S
C1047 H1061 0.961 . S
C1047 H1062 0.961 . S
C1047 H1063 0.961 . S
C1048 C1049 1.370 . S
C1048 C1050 1.363 . S
C1048 H1064 0.931 . S
C1049 C1048 1.370 . S
C1049 C1053 1.408 . S
C1050 C1048 1.363 . S
C1050 C1051 1.370 . S
C1050 C1054 1.524 . S
C1051 C1043 1.503 . S
C1051 C1050 1.370 . S
C1051 C1052 1.403 . S
C1052 C1051 1.403 . S
C1052 C1053 1.404 . S
C1052 C1055 1.539 . S
C1053 C1049 1.408 . S
C1053 C1052 1.404 . S
C1053 H1065 0.930 . S
C1054 C1050 1.524 . S
C1054 H1066 0.956 . S
C1054 H1067 0.961 . S
C1054 H1068 0.961 . S
C1055 C1052 1.539 . S
C1055 H1069 0.958 . S
C1055 H1070 0.961 . S
C1055 H1071 0.960 . S
H1056 C1040 0.931 . S
H1057 C1045 0.929 . S
H1058 C1046 0.960 . S
H1059 C1046 0.962 . S
H1060 C1046 0.960 . S
H1061 C1047 0.961 . S
H1062 C1047 0.961 . S
H1063 C1047 0.961 . S
H1064 C1048 0.931 . S
H1065 C1053 0.930 . S
H1066 C1054 0.956 . S
H1067 C1054 0.961 . S
H1068 C1054 0.961 . S
H1069 C1055 0.958 . S
H1070 C1055 0.961 . S
H1071 C1055 0.960 . S
C1072 C1073 1.391 . S
C1072 C1074 1.394 . S
C1072 H1088 0.931 . S
C1073 C1072 1.391 . S
C1073 C1077 1.376 . S
C1074 C1072 1.394 . S
C1074 C1075 1.369 . S
C1074 C1078 1.531 . S
C1075 C1074 1.369 . S
C1075 C1076 1.410 . S
C1075 C1083 1.503 . S
C1076 C1075 1.410 . S
C1076 C1077 1.392 . S
C1076 C1079 1.511 . S
C1077 C1073 1.376 . S
C1077 C1076 1.392 . S
C1077 H1089 0.929 . S
C1078 C1074 1.531 . S
C1078 H1090 0.960 . S
C1078 H1091 0.962 . S
C1078 H1092 0.960 . S
C1079 C1076 1.511 . S
C1079 H1093 0.961 . S
C1079 H1094 0.961 . S
C1079 H1095 0.961 . S
C1080 C1081 1.370 . S
C1080 C1082 1.363 . S
C1080 H1096 0.931 . S
C1081 C1080 1.370 . S
C1081 C1085 1.408 . S
C1082 C1080 1.363 . S
C1082 C1083 1.370 . S
C1082 C1086 1.524 . S
C1083 C1075 1.503 . S
C1083 C1082 1.370 . S
C1083 C1084 1.403 . S
C1084 C1083 1.403 . S
C1084 C1085 1.404 . S
C1084 C1087 1.539 . S
C1085 C1081 1.408 . S
C1085 C1084 1.404 . S
C1085 H1097 0.930 . S
C1086 C1082 1.524 . S
C1086 H1098 0.956 . S
C1086 H1099 0.961 . S
C1086 H1100 0.961 . S
C1087 C1084 1.539 . S
C1087 H1101 0.958 . S
C1087 H1102 0.961 . S
C1087 H1103 0.960 . S
H1088 C1072 0.931 . S
H1089 C1077 0.929 . S
H1090 C1078 0.960 . S
H1091 C1078 0.962 . S
H1092 C1078 0.960 . S
H1093 C1079 0.961 . S
H1094 C1079 0.961 . S
H1095 C1079 0.961 . S
H1096 C1080 0.931 . S
H1097 C1085 0.930 . S
H1098 C1086 0.956 . S
H1099 C1086 0.961 . S
H1100 C1086 0.961 . S
H1101 C1087 0.958 . S
H1102 C1087 0.961 . S
H1103 C1087 0.960 . S
C1104 C1105 1.391 . S
C1104 C1106 1.394 . S
C1104 H1120 0.931 . S
C1105 C1104 1.391 . S
C1105 C1109 1.376 . S
C1106 C1104 1.394 . S
C1106 C1107 1.369 . S
C1106 C1110 1.531 . S
C1107 C1106 1.369 . S
C1107 C1108 1.410 . S
C1107 C1115 1.503 . S
C1108 C1107 1.410 . S
C1108 C1109 1.392 . S
C1108 C1111 1.511 . S
C1109 C1105 1.376 . S
C1109 C1108 1.392 . S
C1109 H1121 0.929 . S
C1110 C1106 1.531 . S
C1110 H1122 0.960 . S
C1110 H1123 0.962 . S
C1110 H1124 0.960 . S
C1111 C1108 1.511 . S
C1111 H1125 0.961 . S
C1111 H1126 0.961 . S
C1111 H1127 0.961 . S
C1112 C1113 1.370 . S
C1112 C1114 1.363 . S
C1112 H1128 0.931 . S
C1113 C1112 1.370 . S
C1113 C1117 1.408 . S
C1114 C1112 1.363 . S
C1114 C1115 1.370 . S
C1114 C1118 1.524 . S
C1115 C1107 1.503 . S
C1115 C1114 1.370 . S
C1115 C1116 1.403 . S
C1116 C1115 1.403 . S
C1116 C1117 1.404 . S
C1116 C1119 1.539 . S
C1117 C1113 1.408 . S
C1117 C1116 1.404 . S
C1117 H1129 0.930 . S
C1118 C1114 1.524 . S
C1118 H1130 0.956 . S
C1118 H1131 0.961 . S
C1118 H1132 0.961 . S
C1119 C1116 1.539 . S
C1119 H1133 0.958 . S
C1119 H1134 0.961 . S
C1119 H1135 0.960 . S
H1120 C1104 0.931 . S
H1121 C1109 0.929 . S
H1122 C1110 0.960 . S
H1123 C1110 0.962 . S
H1124 C1110 0.960 . S
H1125 C1111 0.961 . S
H1126 C1111 0.961 . S
H1127 C1111 0.961 . S
H1128 C1112 0.931 . S
H1129 C1117 0.930 . S
H1130 C1118 0.956 . S
H1131 C1118 0.961 . S
H1132 C1118 0.961 . S
H1133 C1119 0.958 . S
H1134 C1119 0.961 . S
H1135 C1119 0.960 . S
C1136 C1137 1.391 . S
C1136 C1138 1.394 . S
C1136 H1152 0.931 . S
C1137 C1136 1.391 . S
C1137 C1141 1.376 . S
C1138 C1136 1.394 . S
C1138 C1139 1.369 . S
C1138 C1142 1.531 . S
C1139 C1138 1.369 . S
C1139 C1140 1.410 . S
C1139 C1147 1.503 . S
C1140 C1139 1.410 . S
C1140 C1141 1.392 . S
C1140 C1143 1.511 . S
C1141 C1137 1.376 . S
C1141 C1140 1.392 . S
C1141 H1153 0.929 . S
C1142 C1138 1.531 . S
C1142 H1154 0.960 . S
C1142 H1155 0.962 . S
C1142 H1156 0.960 . S
C1143 C1140 1.511 . S
C1143 H1157 0.961 . S
C1143 H1158 0.961 . S
C1143 H1159 0.961 . S
C1144 C1145 1.370 . S
C1144 C1146 1.363 . S
C1144 H1160 0.931 . S
C1145 C1144 1.370 . S
C1145 C1149 1.408 . S
C1146 C1144 1.363 . S
C1146 C1147 1.370 . S
C1146 C1150 1.524 . S
C1147 C1139 1.503 . S
C1147 C1146 1.370 . S
C1147 C1148 1.403 . S
C1148 C1147 1.403 . S
C1148 C1149 1.404 . S
C1148 C1151 1.539 . S
C1149 C1145 1.408 . S
C1149 C1148 1.404 . S
C1149 H1161 0.930 . S
C1150 C1146 1.524 . S
C1150 H1162 0.956 . S
C1150 H1163 0.961 . S
C1150 H1164 0.961 . S
C1151 C1148 1.539 . S
C1151 H1165 0.958 . S
C1151 H1166 0.961 . S
C1151 H1167 0.960 . S
H1152 C1136 0.931 . S
H1153 C1141 0.929 . S
H1154 C1142 0.960 . S
H1155 C1142 0.962 . S
H1156 C1142 0.960 . S
H1157 C1143 0.961 . S
H1158 C1143 0.961 . S
H1159 C1143 0.961 . S
H1160 C1144 0.931 . S
H1161 C1149 0.930 . S
H1162 C1150 0.956 . S
H1163 C1150 0.961 . S
H1164 C1150 0.961 . S
H1165 C1151 0.958 . S
H1166 C1151 0.961 . S
H1167 C1151 0.960 . S
C1168 C1169 1.391 . S
C1168 C1170 1.394 . S
C1168 H1184 0.931 . S
C1169 C1168 1.391 . S
C1169 C1173 1.376 . S
C1170 C1168 1.394 . S
C1170 C1171 1.369 . S
C1170 C1174 1.531 . S
C1171 C1170 1.369 . S
C1171 C1172 1.410 . S
C1171 C1179 1.503 . S
C1172 C1171 1.410 . S
C1172 C1173 1.392 . S
C1172 C1175 1.511 . S
C1173 C1169 1.376 . S
C1173 C1172 1.392 . S
C1173 H1185 0.929 . S
C1174 C1170 1.531 . S
C1174 H1186 0.960 . S
C1174 H1187 0.962 . S
C1174 H1188 0.960 . S
C1175 C1172 1.511 . S
C1175 H1189 0.961 . S
C1175 H1190 0.961 . S
C1175 H1191 0.961 . S
C1176 C1177 1.370 . S
C1176 C1178 1.363 . S
C1176 H1192 0.931 . S
C1177 C1176 1.370 . S
C1177 C1181 1.408 . S
C1178 C1176 1.363 . S
C1178 C1179 1.370 . S
C1178 C1182 1.524 . S
C1179 C1171 1.503 . S
C1179 C1178 1.370 . S
C1179 C1180 1.403 . S
C1180 C1179 1.403 . S
C1180 C1181 1.404 . S
C1180 C1183 1.539 . S
C1181 C1177 1.408 . S
C1181 C1180 1.404 . S
C1181 H1193 0.930 . S
C1182 C1178 1.524 . S
C1182 H1194 0.956 . S
C1182 H1195 0.961 . S
C1182 H1196 0.961 . S
C1183 C1180 1.539 . S
C1183 H1197 0.958 . S
C1183 H1198 0.961 . S
C1183 H1199 0.960 . S
H1184 C1168 0.931 . S
H1185 C1173 0.929 . S
H1186 C1174 0.960 . S
H1187 C1174 0.962 . S
H1188 C1174 0.960 . S
H1189 C1175 0.961 . S
H1190 C1175 0.961 . S
H1191 C1175 0.961 . S
H1192 C1176 0.931 . S
H1193 C1181 0.930 . S
H1194 C1182 0.956 . S
H1195 C1182 0.961 . S
H1196 C1182 0.961 . S
H1197 C1183 0.958 . S
H1198 C1183 0.961 . S
H1199 C1183 0.960 . S
C1200 C1201 1.391 . S
C1200 C1202 1.394 . S
C1200 H1216 0.931 . S
C1201 C1200 1.391 . S
C1201 C1205 1.376 . S
C1202 C1200 1.394 . S
C1202 C1203 1.369 . S
C1202 C1206 1.531 . S
C1203 C1202 1.369 . S
C1203 C1204 1.410 . S
C1203 C1211 1.503 . S
C1204 C1203 1.410 . S
C1204 C1205 1.392 . S
C1204 C1207 1.511 . S
C1205 C1201 1.376 . S
C1205 C1204 1.392 . S
C1205 H1217 0.929 . S
C1206 C1202 1.531 . S
C1206 H1218 0.960 . S
C1206 H1219 0.962 . S
C1206 H1220 0.960 . S
C1207 C1204 1.511 . S
C1207 H1221 0.961 . S
C1207 H1222 0.961 . S
C1207 H1223 0.961 . S
C1208 C1209 1.370 . S
C1208 C1210 1.363 . S
C1208 H1224 0.931 . S
C1209 C1208 1.370 . S
C1209 C1213 1.408 . S
C1210 C1208 1.363 . S
C1210 C1211 1.370 . S
C1210 C1214 1.524 . S
C1211 C1203 1.503 . S
C1211 C1210 1.370 . S
C1211 C1212 1.403 . S
C1212 C1211 1.403 . S
C1212 C1213 1.404 . S
C1212 C1215 1.539 . S
C1213 C1209 1.408 . S
C1213 C1212 1.404 . S
C1213 H1225 0.930 . S
C1214 C1210 1.524 . S
C1214 H1226 0.956 . S
C1214 H1227 0.961 . S
C1214 H1228 0.961 . S
C1215 C1212 1.539 . S
C1215 H1229 0.958 . S
C1215 H1230 0.961 . S
C1215 H1231 0.960 . S
H1216 C1200 0.931 . S
H1217 C1205 0.929 . S
H1218 C1206 0.960 . S
H1219 C1206 0.962 . S
H1220 C1206 0.960 . S
H1221 C1207 0.961 . S
H1222 C1207 0.961 . S
H1223 C1207 0.961 . S
H1224 C1208 0.931 . S
H1225 C1213 0.930 . S
H1226 C1214 0.956 . S
H1227 C1214 0.961 . S
H1228 C1214 0.961 . S
H1229 C1215 0.958 . S
H1230 C1215 0.961 . S
H1231 C1215 0.960 . S
C209 C3 1.378 . S
C217 C31 1.397 . S
C241 C42 1.379 . S
C249 C18 1.385 . S
C273 C55 1.406 . S
C281 C81 1.385 . S
C305 C96 1.379 . S
C313 C70 1.397 . S
C337 C107 1.386 . S
C345 C135 1.385 . S
C369 C146 1.363 . S
C377 C122 1.396 . S
C401 C159 1.399 . S
C409 C187 1.380 . S
C433 C200 1.406 . S
C441 C172 1.383 . S
C465 C57 1.277 . S
C473 C5 1.305 . S
C497 C16 1.267 . S
C505 C68 1.299 . S
C529 C29 1.273 . S
C537 C83 1.306 . S
C561 C94 1.270 . S
C569 C44 1.296 . S
C593 C109 1.265 . S
C601 C161 1.299 . S
C625 C120 1.298 . S
C633 C174 1.284 . S
C657 C133 1.268 . S
C665 C185 1.303 . S
C689 C148 1.293 . S
C697 C198 1.285 . S
C721 C140 1.346 . S
C729 C4 1.350 . S
C753 C147 1.339 . S
C761 C23 1.345 . S
C785 C36 1.362 . S
C793 C108 1.356 . S
C817 C43 1.343 . S
C825 C127 1.349 . S
C849 C56 1.328 . S
C857 C192 1.342 . S
C881 C75 1.358 . S
C889 C205 1.355 . S
C913 C82 1.362 . S
C921 C160 1.356 . S
C945 C173 1.362 . S
C953 C101 1.356 . S
C977 C10 1.312 . S
C985 C199 1.320 . S
C1009 C166 1.319 . S
C1017 C17 1.323 . S
C1041 C30 1.311 . S
C1049 C179 1.320 . S
C1073 C186 1.325 . S
C1081 C49 1.325 . S
C1105 C121 1.332 . S
C1113 C62 1.329 . S
C1137 C69 1.311 . S
C1145 C134 1.321 . S
C1169 C153 1.316 . S
C1177 C88 1.322 . S
C1201 C114 1.326 . S
C1209 C95 1.327 . S
