# Generated by pormake.
# Topology utk, (3)-cn, num edge types: 1
# Building blocks:
#     Node 0, Type 0, BuildingBlock: OLANEW_clean_sbu_2, # of connection points: 3
#     Node 1, Type 0, BuildingBlock: OLANEW_clean_sbu_2, # of connection points: 3
#     Node 2, Type 0, BuildingBlock: OLANEW_clean_sbu_2, # of connection points: 3
#     Node 3, Type 0, BuildingBlock: OLANEW_clean_sbu_2, # of connection points: 3
#     Node 4, Type 0, BuildingBlock: OLANEW_clean_sbu_2, # of connection points: 3
#     Node 5, Type 0, BuildingBlock: OLANEW_clean_sbu_2, # of connection points: 3
#     Node 6, Type 0, BuildingBlock: OLANEW_clean_sbu_2, # of connection points: 3
#     Node 7, Type 0, BuildingBlock: OLANEW_clean_sbu_2, # of connection points: 3
#     Edge 8, Type (0, 0), BuildingBlock: ZUJKAS_clean_linker_0, # of connection points: 2
#     Edge 9, Type (0, 0), BuildingBlock: ZUJKAS_clean_linker_0, # of connection points: 2
#     Edge 10, Type (0, 0), BuildingBlock: ZUJKAS_clean_linker_0, # of connection points: 2
#     Edge 11, Type (0, 0), BuildingBlock: ZUJKAS_clean_linker_0, # of connection points: 2
#     Edge 12, Type (0, 0), BuildingBlock: ZUJKAS_clean_linker_0, # of connection points: 2
#     Edge 13, Type (0, 0), BuildingBlock: ZUJKAS_clean_linker_0, # of connection points: 2
#     Edge 14, Type (0, 0), BuildingBlock: ZUJKAS_clean_linker_0, # of connection points: 2
#     Edge 15, Type (0, 0), BuildingBlock: ZUJKAS_clean_linker_0, # of connection points: 2
#     Edge 16, Type (0, 0), BuildingBlock: ZUJKAS_clean_linker_0, # of connection points: 2
#     Edge 17, Type (0, 0), BuildingBlock: ZUJKAS_clean_linker_0, # of connection points: 2
#     Edge 18, Type (0, 0), BuildingBlock: ZUJKAS_clean_linker_0, # of connection points: 2
#     Edge 19, Type (0, 0), BuildingBlock: ZUJKAS_clean_linker_0, # of connection points: 2
# Relax obj value: 0.000
# Max RMSD: 0.051
# Mean RMSD: 0.051
data_MOF--net-utk--node1-OLANEW_clean_sbu_2--edge1-ZUJKAS_clean_linker_0
_symmetry_space_group_name_H-M    P1
_symmetry_Int_Tables_number       1
_symmetry_cell_setting            triclinic
loop_
_symmetry_equiv_pos_as_xyz
'x, y, z'
_cell_length_a     54.885048
_cell_length_b     54.87083
_cell_length_c     40.355154
_cell_angle_alpha  90.002671
_cell_angle_beta   90.002306
_cell_angle_gamma 89.995472
loop_
_atom_site_label
_atom_site_type_symbol
_atom_site_fract_x
_atom_site_fract_y
_atom_site_fract_z
_atom_type_partial_charge
O0 O 0.13315 0.35781 0.22134 0.0
Cd1 Cd 0.13038 0.31411 0.20995 0.0
O2 O 0.09349 0.363 0.2177 0.0
Cd3 Cd 0.08574 0.32665 0.19833 0.0
O4 O 0.06901 0.30385 0.16023 0.0
C5 C 0.07858 0.30397 0.13155 0.0
O6 O 0.09894 0.31612 0.12703 0.0
C7 C 0.11457 0.37157 0.22362 0.0
C8 C 0.15469 0.28733 0.25865 0.0
O9 O 0.16562 0.29405 0.2321 0.0
O10 O 0.1322 0.29312 0.26204 0.0
O11 O 0.64138 0.14122 0.45343 0.0
Cd12 Cd 0.68481 0.13764 0.4407 0.0
O13 O 0.64086 0.10696 0.4817 0.0
Cd14 Cd 0.67618 0.09574 0.46205 0.0
O15 O 0.69553 0.07808 0.4213 0.0
C16 C 0.68508 0.0803 0.39336 0.0
O17 O 0.66516 0.09352 0.39157 0.0
C18 C 0.63008 0.12616 0.47182 0.0
C19 C 0.71218 0.16027 0.49024 0.0
O20 O 0.70572 0.17191 0.46415 0.0
O21 O 0.70598 0.13782 0.49269 0.0
O22 O 0.86267 0.6431 0.72785 0.0
Cd23 Cd 0.86558 0.6869 0.71724 0.0
O24 O 0.90097 0.63679 0.71423 0.0
Cd25 Cd 0.90843 0.67344 0.69572 0.0
O26 O 0.92615 0.69656 0.65881 0.0
C27 C 0.91735 0.69678 0.62968 0.0
O28 O 0.89706 0.68478 0.62393 0.0
C29 C 0.88071 0.62872 0.72486 0.0
C30 C 0.84225 0.71362 0.76687 0.0
O31 O 0.83087 0.7072 0.74054 0.0
O32 O 0.8647 0.70752 0.76965 0.0
O33 O 0.36414 0.86167 0.95592 0.0
Cd34 Cd 0.32101 0.8625 0.94072 0.0
O35 O 0.36448 0.89942 0.97422 0.0
Cd36 Cd 0.32897 0.90764 0.95252 0.0
O37 O 0.30784 0.92388 0.91231 0.0
C38 C 0.31068 0.9149 0.88354 0.0
O39 O 0.32456 0.89554 0.88012 0.0
C40 C 0.37531 0.87917 0.96992 0.0
C41 C 0.29327 0.83932 0.98938 0.0
O42 O 0.30272 0.82728 0.96539 0.0
O43 O 0.29669 0.86242 0.99017 0.0
O44 O 0.14495 0.64124 0.28707 0.0
Cd45 Cd 0.14628 0.68459 0.30112 0.0
O46 O 0.10491 0.64006 0.28514 0.0
Cd47 Cd 0.09955 0.67662 0.3053 0.0
O48 O 0.08231 0.69935 0.34307 0.0
C49 C 0.05926 0.70147 0.34208 0.0
O50 O 0.04738 0.69165 0.31714 0.0
C51 C 0.12538 0.62952 0.28158 0.0
C52 C 0.16879 0.71145 0.25097 0.0
O53 O 0.18128 0.70157 0.27421 0.0
O54 O 0.1456 0.70875 0.25153 0.0
O55 O 0.3609 0.14034 0.54387 0.0
Cd56 Cd 0.31778 0.1358 0.55795 0.0
O57 O 0.36425 0.10216 0.52792 0.0
Cd58 Cd 0.32914 0.09144 0.54883 0.0
O59 O 0.30798 0.07266 0.58694 0.0
C60 C 0.30907 0.04953 0.58768 0.0
O61 O 0.32125 0.03817 0.56429 0.0
C62 C 0.37351 0.12327 0.53119 0.0
C63 C 0.28849 0.15932 0.51129 0.0
O64 O 0.29562 0.17034 0.53757 0.0
O65 O 0.29506 0.1371 0.50721 0.0
O66 O 0.85613 0.35858 0.79022 0.0
Cd67 Cd 0.85778 0.31501 0.80295 0.0
O68 O 0.89545 0.36025 0.77995 0.0
Cd69 Cd 0.90314 0.32396 0.79957 0.0
O70 O 0.92036 0.30144 0.83758 0.0
C71 C 0.94348 0.30005 0.83759 0.0
O72 O 0.95564 0.31051 0.81342 0.0
C73 C 0.8747 0.37057 0.78076 0.0
C74 C 0.83522 0.28751 0.7535 0.0
O75 O 0.82333 0.29474 0.77901 0.0
O76 O 0.85782 0.29318 0.75146 0.0
O77 O 0.64275 0.86671 0.05379 0.0
Cd78 Cd 0.68591 0.86988 0.06832 0.0
O79 O 0.64275 0.90148 0.0267 0.0
Cd80 Cd 0.67795 0.91208 0.04738 0.0
O81 O 0.69698 0.92926 0.08878 0.0
C82 C 0.68615 0.92702 0.11644 0.0
O83 O 0.66603 0.91405 0.11763 0.0
C84 C 0.63176 0.88216 0.03564 0.0
C85 C 0.71444 0.84546 0.02163 0.0
O86 O 0.70695 0.83466 0.04789 0.0
O87 O 0.70863 0.86789 0.01762 0.0
H88 H 0.15688 0.39698 0.23474 0.0
H89 H 0.16117 0.44064 0.2461 0.0
H90 H 0.08313 0.44905 0.24171 0.0
H91 H 0.0786 0.40557 0.23074 0.0
H92 H 0.14553 0.4797 0.20603 0.0
H93 H 0.10099 0.48221 0.32928 0.0
H94 H 0.1113 0.45422 0.31039 0.0
H95 H 0.08285 0.46769 0.29796 0.0
C96 C 0.14061 0.40807 0.23651 0.0
C97 C 0.11738 0.39773 0.23196 0.0
C98 C 0.14311 0.43302 0.24293 0.0
C99 C 0.12245 0.44799 0.24518 0.0
C100 C 0.09928 0.43773 0.24073 0.0
H101 H 0.08698 0.5993 0.26849 0.0
H102 H 0.08802 0.55543 0.25851 0.0
C103 C 0.09675 0.41286 0.23429 0.0
C104 C 0.12499 0.47454 0.25094 0.0
H105 H 0.10709 0.52047 0.30249 0.0
C106 C 0.13738 0.48863 0.22728 0.0
C107 C 0.11433 0.48609 0.27871 0.0
C108 C 0.10182 0.47177 0.30571 0.0
C109 C 0.13859 0.51413 0.23003 0.0
C110 C 0.12741 0.5257 0.2574 0.0
C111 C 0.1155 0.51154 0.28141 0.0
C112 C 0.12727 0.55255 0.26135 0.0
C113 C 0.15107 0.52854 0.20309 0.0
C114 C 0.14904 0.5655 0.26606 0.0
C115 C 0.14854 0.59066 0.27172 0.0
C116 C 0.12622 0.60326 0.27297 0.0
C117 C 0.10449 0.59022 0.26768 0.0
C118 C 0.10503 0.56512 0.26203 0.0
H119 H 0.15389 0.5175 0.18033 0.0
H120 H 0.1403 0.54499 0.19657 0.0
H121 H 0.16917 0.53464 0.21209 0.0
H122 H 0.16638 0.55607 0.26617 0.0
H123 H 0.16559 0.60011 0.27585 0.0
H124 H 0.60023 0.16296 0.45042 0.0
H125 H 0.55657 0.16771 0.46092 0.0
H126 H 0.55731 0.10309 0.52169 0.0
H127 H 0.60091 0.09825 0.51159 0.0
H128 H 0.52041 0.13365 0.44444 0.0
H129 H 0.52074 0.15284 0.57932 0.0
H130 H 0.54767 0.15567 0.55388 0.0
H131 H 0.53787 0.1262 0.5681 0.0
C132 C 0.59119 0.14992 0.46638 0.0
C133 C 0.6041 0.13022 0.48018 0.0
C134 C 0.56623 0.15266 0.4723 0.0
C135 C 0.55378 0.13591 0.49236 0.0
C136 C 0.56667 0.11648 0.50663 0.0
H137 H 0.4047 0.09148 0.50084 0.0
H138 H 0.44801 0.09722 0.48951 0.0
C139 C 0.59158 0.11367 0.50067 0.0
C140 C 0.52705 0.13777 0.49675 0.0
H141 H 0.48249 0.1414 0.55554 0.0
C142 C 0.5121 0.13563 0.46868 0.0
C143 C 0.51628 0.14062 0.52833 0.0
C144 C 0.53145 0.14421 0.55912 0.0
C145 C 0.48662 0.13528 0.47152 0.0
C146 C 0.47588 0.13685 0.5033 0.0
C147 C 0.4908 0.14 0.53122 0.0
C148 C 0.44928 0.13413 0.5083 0.0
C149 C 0.4714 0.1331 0.44053 0.0
C150 C 0.43567 0.15293 0.52288 0.0
C151 C 0.41085 0.14971 0.52945 0.0
C152 C 0.39929 0.1275 0.5219 0.0
C153 C 0.41298 0.10884 0.5069 0.0
C154 C 0.43773 0.11212 0.50023 0.0
H155 H 0.4817 0.13891 0.41819 0.0
H156 H 0.46601 0.11377 0.43706 0.0
H157 H 0.45455 0.14422 0.44244 0.0
H158 H 0.44432 0.17001 0.52945 0.0
H159 H 0.40088 0.16442 0.54112 0.0
H160 H 0.83969 0.60413 0.74501 0.0
H161 H 0.83577 0.56041 0.75642 0.0
H162 H 0.91179 0.55023 0.7333 0.0
H163 H 0.91598 0.5937 0.72218 0.0
H164 H 0.84542 0.52098 0.71271 0.0
H165 H 0.90445 0.51733 0.82407 0.0
H166 H 0.89228 0.54553 0.80799 0.0
H167 H 0.91865 0.53183 0.78919 0.0
C168 C 0.85561 0.59262 0.7426 0.0
C169 C 0.87818 0.60246 0.73283 0.0
C170 C 0.85332 0.56765 0.74906 0.0
C171 C 0.87357 0.55218 0.74615 0.0
C172 C 0.89605 0.56194 0.73633 0.0
H173 H 0.9107 0.40105 0.75916 0.0
H174 H 0.90824 0.44495 0.7501 0.0
C175 C 0.89836 0.58681 0.72983 0.0
C176 C 0.87126 0.52567 0.75234 0.0
H177 H 0.89485 0.47928 0.79861 0.0
C178 C 0.85597 0.51184 0.73173 0.0
C179 C 0.88504 0.51387 0.77721 0.0
C180 C 0.90086 0.52791 0.8011 0.0
C181 C 0.8549 0.48633 0.73445 0.0
C182 C 0.86924 0.47449 0.7587 0.0
C183 C 0.884 0.48841 0.77987 0.0
C184 C 0.86991 0.4476 0.76203 0.0
C185 C 0.83916 0.47218 0.71058 0.0
C186 C 0.84909 0.4345 0.7715 0.0
C187 C 0.8504 0.4093 0.77666 0.0
C188 C 0.87262 0.39683 0.77263 0.0
C189 C 0.8933 0.41003 0.76251 0.0
C190 C 0.89195 0.43515 0.75736 0.0
H191 H 0.83346 0.48345 0.68906 0.0
H192 H 0.84895 0.45584 0.70129 0.0
H193 H 0.8225 0.46591 0.72361 0.0
H194 H 0.83198 0.44383 0.77576 0.0
H195 H 0.83416 0.39973 0.78458 0.0
H196 H 0.60158 0.845 0.05486 0.0
H197 H 0.55806 0.84058 0.04316 0.0
H198 H 0.55964 0.90653 0.98511 0.0
H199 H 0.60313 0.91105 0.99642 0.0
H200 H 0.52154 0.87449 0.05994 0.0
H201 H 0.5243 0.85766 0.92443 0.0
H202 H 0.55076 0.85436 0.95066 0.0
H203 H 0.54109 0.8841 0.93737 0.0
C204 C 0.59276 0.85841 0.03925 0.0
C205 C 0.60587 0.87838 0.02655 0.0
C206 C 0.56788 0.85587 0.03267 0.0
C207 C 0.55571 0.87309 0.01301 0.0
C208 C 0.56879 0.89281 0.99986 0.0
H209 H 0.40435 0.91249 0.00136 0.0
H210 H 0.44783 0.90907 0.0135 0.0
C211 C 0.59364 0.89541 0.00649 0.0
C212 C 0.52907 0.87123 0.00775 0.0
H213 H 0.48552 0.86742 0.94759 0.0
C214 C 0.51364 0.87273 0.03542 0.0
C215 C 0.51885 0.86868 0.97577 0.0
C216 C 0.53458 0.86587 0.94535 0.0
C217 C 0.4882 0.87252 0.03185 0.0
C218 C 0.47799 0.87104 0.99974 0.0
C219 C 0.49341 0.86875 0.97217 0.0
C220 C 0.45137 0.87248 0.99408 0.0
C221 C 0.47246 0.87388 0.06244 0.0
C222 C 0.43899 0.85311 0.97889 0.0
C223 C 0.41412 0.85501 0.97185 0.0
C224 C 0.40123 0.87644 0.97958 0.0
C225 C 0.41367 0.8957 0.99517 0.0
C226 C 0.43851 0.89374 0.00229 0.0
H227 H 0.48266 0.8684 0.08502 0.0
H228 H 0.46614 0.89292 0.06591 0.0
H229 H 0.45616 0.86203 0.05995 0.0
H230 H 0.44864 0.83659 0.97224 0.0
H231 H 0.40513 0.83985 0.95975 0.0
H232 H 0.13763 0.27384 0.31965 0.0
H233 H 0.1597 0.25224 0.36338 0.0
H234 H 0.22299 0.24764 0.30037 0.0
H235 H 0.20127 0.26966 0.25677 0.0
H236 H 0.18022 0.20677 0.36403 0.0
H237 H 0.25098 0.27732 0.38433 0.0
H238 H 0.22377 0.28303 0.36048 0.0
H239 H 0.24911 0.26722 0.34211 0.0
C240 C 0.15627 0.26828 0.3151 0.0
C241 C 0.16775 0.27363 0.28481 0.0
C242 C 0.16884 0.25591 0.34012 0.0
C243 C 0.19312 0.2487 0.33536 0.0
C244 C 0.20446 0.25354 0.30488 0.0
H245 H 0.27409 0.14233 0.45064 0.0
H246 H 0.25024 0.16381 0.40863 0.0
C247 C 0.19195 0.26601 0.27991 0.0
C248 C 0.20649 0.23588 0.36215 0.0
H249 H 0.25741 0.23903 0.41055 0.0
C250 C 0.19705 0.21385 0.37432 0.0
C251 C 0.22824 0.24535 0.3759 0.0
C252 C 0.23852 0.26964 0.3653 0.0
C253 C 0.20902 0.20079 0.39943 0.0
C254 C 0.23128 0.20977 0.41223 0.0
C255 C 0.24047 0.23203 0.40049 0.0
C256 C 0.24533 0.19649 0.43794 0.0
C257 C 0.19748 0.17772 0.41238 0.0
C258 C 0.25102 0.20791 0.46809 0.0
C259 C 0.26489 0.19579 0.49201 0.0
C260 C 0.27339 0.17198 0.48622 0.0
C261 C 0.26767 0.16058 0.45599 0.0
C262 C 0.2539 0.17278 0.43201 0.0
H263 H 0.17762 0.17716 0.4071 0.0
H264 H 0.20601 0.16178 0.40005 0.0
H265 H 0.20023 0.17587 0.43953 0.0
H266 H 0.2447 0.22625 0.47312 0.0
H267 H 0.269 0.2051 0.515 0.0
H268 H 0.7243 0.14194 0.55109 0.0
H269 H 0.74535 0.16294 0.59626 0.0
H270 H 0.75267 0.22699 0.53513 0.0
H271 H 0.73116 0.20635 0.49011 0.0
H272 H 0.79094 0.18263 0.60003 0.0
H273 H 0.72111 0.25445 0.61799 0.0
H274 H 0.71568 0.22768 0.5931 0.0
H275 H 0.7325 0.25298 0.57635 0.0
C276 C 0.73038 0.1605 0.54724 0.0
C277 C 0.72588 0.17254 0.51709 0.0
C278 C 0.74242 0.17247 0.57308 0.0
C279 C 0.75018 0.19668 0.56929 0.0
C280 C 0.74631 0.20852 0.5389 0.0
H281 H 0.85413 0.27366 0.69367 0.0
H282 H 0.83373 0.25099 0.6495 0.0
C283 C 0.73414 0.19663 0.51312 0.0
C284 C 0.76241 0.20949 0.59707 0.0
H285 H 0.7586 0.2598 0.64658 0.0
C286 C 0.78384 0.19946 0.61031 0.0
C287 C 0.7529 0.23123 0.61081 0.0
C288 C 0.72916 0.24211 0.59909 0.0
C289 C 0.79626 0.21082 0.63653 0.0
C290 C 0.78727 0.23308 0.64937 0.0
C291 C 0.76562 0.24287 0.63649 0.0
C292 C 0.79987 0.24647 0.67634 0.0
C293 C 0.81862 0.19862 0.65061 0.0
C294 C 0.78744 0.25203 0.70578 0.0
C295 C 0.79895 0.26526 0.73091 0.0
C296 C 0.82314 0.27321 0.72706 0.0
C297 C 0.83555 0.26764 0.69753 0.0
C298 C 0.82397 0.25454 0.67232 0.0
H299 H 0.81895 0.17882 0.64485 0.0
H300 H 0.83512 0.20697 0.6395 0.0
H301 H 0.8196 0.20096 0.67791 0.0
H302 H 0.7688 0.24609 0.70935 0.0
H303 H 0.78887 0.26925 0.75333 0.0
H304 H 0.86026 0.72647 0.82763 0.0
H305 H 0.83922 0.74852 0.87188 0.0
H306 H 0.77534 0.75473 0.81022 0.0
H307 H 0.79603 0.73225 0.76613 0.0
H308 H 0.82004 0.79443 0.87296 0.0
H309 H 0.74741 0.72607 0.89475 0.0
H310 H 0.77415 0.71955 0.87029 0.0
H311 H 0.74906 0.7361 0.85248 0.0
C312 C 0.84171 0.73246 0.8235 0.0
C313 C 0.82976 0.72745 0.79343 0.0
C314 C 0.82972 0.74509 0.84881 0.0
C315 C 0.80557 0.7529 0.84458 0.0
C316 C 0.79377 0.74835 0.81434 0.0
H317 H 0.72906 0.86192 0.96081 0.0
H318 H 0.75191 0.83962 0.91857 0.0
C319 C 0.80568 0.73562 0.78908 0.0
C320 C 0.79287 0.76613 0.87161 0.0
H321 H 0.74233 0.76462 0.92088 0.0
C322 C 0.8031 0.78787 0.88356 0.0
C323 C 0.77098 0.75734 0.88576 0.0
C324 C 0.75985 0.73336 0.87543 0.0
C325 C 0.79178 0.80133 0.90885 0.0
C326 C 0.76936 0.79306 0.92204 0.0
C327 C 0.75939 0.77107 0.91052 0.0
C328 C 0.75594 0.80683 0.9479 0.0
C329 C 0.80415 0.82404 0.92154 0.0
C330 C 0.75008 0.79564 0.97815 0.0
C331 C 0.73677 0.80824 0.0022 0.0
C332 C 0.72902 0.8323 0.99645 0.0
C333 C 0.73492 0.84348 0.96614 0.0
C334 C 0.74812 0.83081 0.94202 0.0
H335 H 0.82398 0.82393 0.916 0.0
H336 H 0.79607 0.84021 0.90923 0.0
H337 H 0.80166 0.82604 0.94871 0.0
H338 H 0.75583 0.77711 0.98315 0.0
H339 H 0.7325 0.79909 0.02526 0.0
H340 H 0.26642 0.86001 0.03914 0.0
H341 H 0.24406 0.83916 0.08327 0.0
H342 H 0.26659 0.76964 0.04388 0.0
H343 H 0.28839 0.79031 0.99918 0.0
H344 H 0.21913 0.76936 0.06061 0.0
H345 H 0.2736 0.80751 0.1641 0.0
H346 H 0.25984 0.83041 0.13847 0.0
H347 H 0.28268 0.81054 0.12135 0.0
C348 C 0.2666 0.84028 0.03987 0.0
C349 C 0.27928 0.82681 0.01575 0.0
C350 C 0.25395 0.8284 0.06525 0.0
C351 C 0.25406 0.80285 0.06728 0.0
C352 C 0.26636 0.78937 0.0429 0.0
H353 H 0.21756 0.71496 0.23832 0.0
H354 H 0.23746 0.73708 0.19326 0.0
C355 C 0.27883 0.80122 0.01737 0.0
C356 C 0.24121 0.79005 0.09459 0.0
H357 H 0.23838 0.78488 0.17883 0.0
C358 C 0.22335 0.77272 0.08647 0.0
C359 C 0.24697 0.79421 0.12831 0.0
C360 C 0.26698 0.81149 0.13865 0.0
C361 C 0.21103 0.75951 0.11112 0.0
C362 C 0.21627 0.76422 0.14486 0.0
C363 C 0.2342 0.78147 0.15297 0.0
C364 C 0.20394 0.75092 0.17217 0.0
C365 C 0.19303 0.74019 0.10068 0.0
C366 C 0.17849 0.75158 0.17557 0.0
C367 C 0.16703 0.73874 0.20114 0.0
C368 C 0.18086 0.72531 0.2241 0.0
C369 C 0.20638 0.7251 0.22104 0.0
C370 C 0.21779 0.73776 0.19531 0.0
H371 H 0.19618 0.73419 0.07473 0.0
H372 H 0.19408 0.724 0.11713 0.0
H373 H 0.17431 0.74774 0.10216 0.0
H374 H 0.16747 0.76211 0.15854 0.0
H375 H 0.14736 0.73945 0.203 0.0
H376 H 0.09232 0.30475 0.06651 0.0
H377 H 0.06758 0.29399 0.0184 0.0
H378 H 0.00998 0.2694 0.08288 0.0
H379 H 0.03446 0.28048 0.13132 0.0
H380 H 0.04365 0.25076 0.99617 0.0
H381 H 0.97865 0.32487 0.02904 0.0
H382 H 0.00815 0.32208 0.04835 0.0
H383 H 0.98374 0.30214 0.06033 0.0
C384 C 0.07453 0.29674 0.07055 0.0
C385 C 0.06521 0.29384 0.10278 0.0
C386 C 0.06045 0.29053 0.04299 0.0
C387 C 0.03681 0.28132 0.0471 0.0
C388 C 0.02804 0.2769 0.07921 0.0
H389 H 0.92401 0.28038 0.89415 0.0
H390 H 0.94565 0.27006 0.94527 0.0
C391 C 0.04209 0.28316 0.10685 0.0
C392 C 0.0208 0.27841 0.01781 0.0
H393 H 0.97125 0.30354 0.97986 0.0
C394 C 0.02765 0.26208 0.9927 0.0
C395 C 0.99994 0.29322 0.01339 0.0
C396 C 0.99219 0.31172 0.03902 0.0
C397 C 0.01441 0.26049 0.96297 0.0
C398 C 0.9941 0.27596 0.95807 0.0
C399 C 0.98676 0.29161 0.9837 0.0
C400 C 0.98147 0.27805 0.92569 0.0
C401 C 0.02241 0.2424 0.93702 0.0
C402 C 0.99445 0.28554 0.89752 0.0
C403 C 0.98216 0.29141 0.86828 0.0
C404 C 0.9566 0.29017 0.86673 0.0
C405 C 0.94371 0.28158 0.89451 0.0
C406 C 0.95604 0.27566 0.92376 0.0
H407 H 0.03222 0.22678 0.94836 0.0
H408 H 0.00664 0.23533 0.9227 0.0
H409 H 0.0351 0.2515 0.91955 0.0
H410 H 0.01401 0.28808 0.89861 0.0
H411 H 0.99266 0.29799 0.84738 0.0
H412 H 0.72544 0.0509 0.38774 0.0
H413 H 0.73708 0.02572 0.34007 0.0
H414 H 0.67492 0.05265 0.28584 0.0
H415 H 0.66365 0.07817 0.33261 0.0
H416 H 0.71235 0.98924 0.31375 0.0
H417 H 0.72618 0.0578 0.21597 0.0
H418 H 0.72446 0.06598 0.25925 0.0
H419 H 0.69707 0.0624 0.23502 0.0
C420 C 0.71453 0.05177 0.3654 0.0
C421 C 0.69363 0.06657 0.36397 0.0
C422 C 0.7212 0.03737 0.3382 0.0
C423 C 0.70715 0.03761 0.3091 0.0
C424 C 0.68651 0.05267 0.30756 0.0
H425 H 0.66386 0.92928 0.17661 0.0
H426 H 0.67477 0.95457 0.22378 0.0
C427 C 0.67994 0.06713 0.33454 0.0
C428 C 0.71237 0.02054 0.28144 0.0
H429 H 0.7135 0.01749 0.19702 0.0
C430 C 0.71317 0.99545 0.28826 0.0
C431 C 0.7141 0.02853 0.24818 0.0
C432 C 0.71569 0.05518 0.23925 0.0
C433 C 0.71362 0.97818 0.26262 0.0
C434 C 0.71255 0.98619 0.22931 0.0
C435 C 0.71382 0.01126 0.22253 0.0
C436 C 0.70755 0.9692 0.20149 0.0
C437 C 0.7147 0.95151 0.27158 0.0
C438 C 0.72204 0.96929 0.17279 0.0
C439 C 0.71559 0.95504 0.14535 0.0
C440 C 0.69446 0.94053 0.14614 0.0
C441 C 0.68033 0.9401 0.17518 0.0
C442 C 0.68669 0.95442 0.2024 0.0
H443 H 0.72478 0.94874 0.29517 0.0
H444 H 0.69591 0.94456 0.27528 0.0
H445 H 0.72362 0.94058 0.25185 0.0
H446 H 0.7381 0.98072 0.17141 0.0
H447 H 0.72683 0.9558 0.12333 0.0
H448 H 0.9052 0.69697 0.56404 0.0
H449 H 0.93126 0.70796 0.51733 0.0
H450 H 0.98754 0.731 0.58496 0.0
H451 H 0.96172 0.71972 0.632 0.0
H452 H 0.9565 0.75122 0.49726 0.0
H453 H 0.01924 0.67547 0.53135 0.0
H454 H 0.98928 0.67852 0.54924 0.0
H455 H 0.01368 0.69788 0.56292 0.0
C456 C 0.92298 0.7047 0.56907 0.0
C457 C 0.93153 0.7071 0.60177 0.0
C458 C 0.93782 0.71104 0.54231 0.0
C459 C 0.96146 0.71987 0.54771 0.0
C460 C 0.96948 0.72381 0.58029 0.0
H461 H 0.07788 0.71998 0.39988 0.0
H462 H 0.05532 0.73028 0.45026 0.0
C463 C 0.95466 0.71742 0.60713 0.0
C464 C 0.97824 0.72284 0.51925 0.0
H465 H 0.02819 0.69717 0.48297 0.0
C466 C 0.97235 0.73962 0.49424 0.0
C467 C 0.99891 0.70768 0.51543 0.0
C468 C 0.00566 0.68872 0.54097 0.0
C469 C 0.98635 0.74131 0.46517 0.0
C470 C 0.00644 0.72548 0.46082 0.0
C471 C 0.01284 0.70937 0.48639 0.0
C472 C 0.01978 0.72348 0.42895 0.0
C473 C 0.97936 0.75989 0.43933 0.0
C474 C 0.00729 0.71668 0.40005 0.0
C475 C 0.02011 0.71084 0.37123 0.0
C476 C 0.04572 0.7114 0.37084 0.0
C477 C 0.05817 0.71931 0.39935 0.0
C478 C 0.0453 0.72521 0.42818 0.0
H479 H 0.96968 0.77561 0.45064 0.0
H480 H 0.99559 0.76675 0.42581 0.0
H481 H 0.96683 0.75133 0.42116 0.0
H482 H 0.98766 0.71464 0.40022 0.0
H483 H 0.00994 0.70479 0.34974 0.0
H484 H 0.31611 0.90177 0.81871 0.0
H485 H 0.30618 0.92591 0.76973 0.0
H486 H 0.27437 0.98141 0.83178 0.0
H487 H 0.28457 0.95752 0.88114 0.0
H488 H 0.26237 0.94638 0.74392 0.0
H489 H 0.32944 0.01711 0.78237 0.0
H490 H 0.32816 0.98747 0.80162 0.0
H491 H 0.30581 0.0102 0.81173 0.0
C492 C 0.30673 0.91896 0.82201 0.0
C493 C 0.30146 0.92788 0.85389 0.0
C494 C 0.30101 0.93271 0.79394 0.0
C495 C 0.28994 0.95562 0.79719 0.0
C496 C 0.28331 0.96395 0.82881 0.0
H497 H 0.28619 0.06762 0.64286 0.0
H498 H 0.27604 0.04547 0.69367 0.0
C499 C 0.28907 0.95022 0.85696 0.0
C500 C 0.28712 0.97135 0.7676 0.0
H501 H 0.30993 0.02269 0.73134 0.0
C502 C 0.27254 0.96321 0.74125 0.0
C503 C 0.3004 0.99332 0.76424 0.0
C504 C 0.317 0.00255 0.79132 0.0
C505 C 0.27127 0.97623 0.71132 0.0
C506 C 0.2853 0.99768 0.70752 0.0
C507 C 0.29913 0.00628 0.73434 0.0
C508 C 0.28781 0.01036 0.67523 0.0
C509 C 0.25507 0.96679 0.684 0.0
C510 C 0.29747 0.99793 0.64783 0.0
C511 C 0.30325 0.0105 0.61878 0.0
C512 C 0.29973 0.03584 0.61666 0.0
C513 C 0.28915 0.04811 0.64368 0.0
C514 C 0.28333 0.03549 0.67274 0.0
H515 H 0.2398 0.95577 0.69413 0.0
H516 H 0.24741 0.98193 0.669 0.0
H517 H 0.2659 0.95484 0.66741 0.0
H518 H 0.30164 0.97867 0.6494 0.0
H519 H 0.31141 0.00048 0.59849 0.0
loop_
_geom_bond_atom_site_label_1
_geom_bond_atom_site_label_2
_geom_bond_distance
_geom_bond_site_symmetry_2
_ccdc_geom_bond_type
O0 Cd1 2.300 . S
O0 C7 1.275 . S
Cd1 O0 2.300 . S
Cd1 O9 2.381 . S
Cd1 O10 2.378 . S
O2 Cd3 2.385 . S
O2 C7 1.255 . S
Cd3 O2 2.385 . S
Cd3 O4 2.317 . S
O4 Cd3 2.317 . S
O4 C5 1.232 . S
C5 O4 1.232 . S
C5 O6 1.218 . S
O6 C5 1.218 . S
C7 O0 1.275 . S
C7 O2 1.255 . S
C8 O9 1.258 . S
C8 O10 1.256 . S
O9 Cd1 2.381 . S
O9 C8 1.258 . S
O10 Cd1 2.378 . S
O10 C8 1.256 . S
O11 Cd12 2.300 . S
O11 C18 1.275 . S
Cd12 O11 2.300 . S
Cd12 O20 2.381 . S
Cd12 O21 2.378 . S
O13 Cd14 2.385 . S
O13 C18 1.255 . S
Cd14 O13 2.385 . S
Cd14 O15 2.317 . S
O15 Cd14 2.317 . S
O15 C16 1.232 . S
C16 O15 1.232 . S
C16 O17 1.218 . S
O17 C16 1.218 . S
C18 O11 1.275 . S
C18 O13 1.255 . S
C19 O20 1.258 . S
C19 O21 1.256 . S
O20 Cd12 2.381 . S
O20 C19 1.258 . S
O21 Cd12 2.378 . S
O21 C19 1.256 . S
O22 Cd23 2.300 . S
O22 C29 1.275 . S
Cd23 O22 2.300 . S
Cd23 O31 2.381 . S
Cd23 O32 2.378 . S
O24 Cd25 2.385 . S
O24 C29 1.255 . S
Cd25 O24 2.385 . S
Cd25 O26 2.317 . S
O26 Cd25 2.317 . S
O26 C27 1.232 . S
C27 O26 1.232 . S
C27 O28 1.218 . S
O28 C27 1.218 . S
C29 O22 1.275 . S
C29 O24 1.255 . S
C30 O31 1.258 . S
C30 O32 1.256 . S
O31 Cd23 2.381 . S
O31 C30 1.258 . S
O32 Cd23 2.378 . S
O32 C30 1.256 . S
O33 Cd34 2.300 1_556 S
O33 C40 1.277 . S
Cd34 O33 2.300 1_554 S
Cd34 O42 2.381 . S
Cd34 O43 2.378 . S
O35 Cd36 2.385 . S
O35 C40 1.255 . S
Cd36 O35 2.385 . S
Cd36 O37 2.317 . S
O37 Cd36 2.317 . S
O37 C38 1.232 . S
C38 O37 1.232 . S
C38 O39 1.218 . S
O39 C38 1.218 . S
C40 O33 1.277 . S
C40 O35 1.255 . S
C41 O42 1.258 . S
C41 O43 1.256 . S
O42 Cd34 2.381 . S
O42 C41 1.258 . S
O43 Cd34 2.378 . S
O43 C41 1.256 . S
O44 Cd45 2.300 . S
O44 C51 1.275 . S
Cd45 O44 2.300 . S
Cd45 O53 2.381 . S
Cd45 O54 2.378 . S
O46 Cd47 2.385 . S
O46 C51 1.255 . S
Cd47 O46 2.385 . S
Cd47 O48 2.317 . S
O48 Cd47 2.317 . S
O48 C49 1.232 . S
C49 O48 1.232 . S
C49 O50 1.218 . S
O50 C49 1.218 . S
C51 O44 1.275 . S
C51 O46 1.255 . S
C52 O53 1.258 . S
C52 O54 1.256 . S
O53 Cd45 2.381 . S
O53 C52 1.258 . S
O54 Cd45 2.378 . S
O54 C52 1.256 . S
O55 Cd56 2.300 . S
O55 C62 1.275 . S
Cd56 O55 2.300 . S
Cd56 O64 2.381 . S
Cd56 O65 2.378 . S
O57 Cd58 2.385 . S
O57 C62 1.255 . S
Cd58 O57 2.385 . S
Cd58 O59 2.317 . S
O59 Cd58 2.317 . S
O59 C60 1.232 . S
C60 O59 1.232 . S
C60 O61 1.218 . S
O61 C60 1.218 . S
C62 O55 1.275 . S
C62 O57 1.255 . S
C63 O64 1.258 . S
C63 O65 1.256 . S
O64 Cd56 2.381 . S
O64 C63 1.258 . S
O65 Cd56 2.378 . S
O65 C63 1.256 . S
O66 Cd67 2.300 . S
O66 C73 1.275 . S
Cd67 O66 2.300 . S
Cd67 O75 2.381 . S
Cd67 O76 2.378 . S
O68 Cd69 2.385 . S
O68 C73 1.255 . S
Cd69 O68 2.385 . S
Cd69 O70 2.317 . S
O70 Cd69 2.317 . S
O70 C71 1.232 . S
C71 O70 1.232 . S
C71 O72 1.218 . S
O72 C71 1.218 . S
C73 O66 1.275 . S
C73 O68 1.255 . S
C74 O75 1.258 . S
C74 O76 1.256 . S
O75 Cd67 2.381 . S
O75 C74 1.258 . S
O76 Cd67 2.378 . S
O76 C74 1.256 . S
O77 Cd78 2.300 1_554 S
O77 C84 1.277 . S
Cd78 O77 2.300 1_556 S
Cd78 O86 2.381 . S
Cd78 O87 2.378 . S
O79 Cd80 2.385 . S
O79 C84 1.255 . S
Cd80 O79 2.385 . S
Cd80 O81 2.317 . S
O81 Cd80 2.317 . S
O81 C82 1.232 . S
C82 O81 1.232 . S
C82 O83 1.218 . S
O83 C82 1.218 . S
C84 O77 1.277 . S
C84 O79 1.255 . S
C85 O86 1.258 . S
C85 O87 1.256 . S
O86 Cd78 2.381 . S
O86 C85 1.258 . S
O87 Cd78 2.378 . S
O87 C85 1.256 . S
H88 C96 0.929 . S
H89 C98 0.930 . S
H90 C100 0.930 . S
H91 C103 0.929 . S
H92 C106 0.930 . S
H93 C108 0.960 . S
H94 C108 0.960 . S
H95 C108 0.960 . S
C96 H88 0.929 . S
C96 C97 1.377 . S
C96 C98 1.384 . S
C97 C96 1.377 . S
C97 C103 1.390 . S
C98 H89 0.930 . S
C98 C96 1.384 . S
C98 C99 1.372 . S
C99 C98 1.372 . S
C99 C100 1.400 . S
C99 C104 1.490 . S
C100 H90 0.930 . S
C100 C99 1.400 . S
C100 C103 1.386 . S
H101 C117 0.930 . S
H102 C118 0.931 . S
C103 H91 0.929 . S
C103 C97 1.390 . S
C103 C100 1.386 . S
C104 C99 1.490 . S
C104 C106 1.395 . S
C104 C107 1.403 . S
H105 C111 0.930 . S
C106 H92 0.930 . S
C106 C104 1.395 . S
C106 C109 1.403 . S
C107 C104 1.403 . S
C107 C108 1.524 . S
C107 C111 1.400 . S
C108 H93 0.960 . S
C108 H94 0.960 . S
C108 H95 0.960 . S
C108 C107 1.524 . S
C109 C106 1.403 . S
C109 C110 1.392 . S
C109 C113 1.495 . S
C110 C109 1.392 . S
C110 C111 1.385 . S
C110 C112 1.478 . S
C111 H105 0.930 . S
C111 C107 1.400 . S
C111 C110 1.385 . S
C112 C110 1.478 . S
C112 C114 1.381 . S
C112 C118 1.383 . S
C113 C109 1.495 . S
C113 H119 0.959 . S
C113 H120 0.961 . S
C113 H121 0.960 . S
C114 C112 1.381 . S
C114 C115 1.394 . S
C114 H122 0.930 . S
C115 C114 1.394 . S
C115 C116 1.383 . S
C115 H123 0.929 . S
C116 C115 1.383 . S
C116 C117 1.377 . S
C117 H101 0.930 . S
C117 C116 1.377 . S
C117 C118 1.379 . S
C118 H102 0.931 . S
C118 C112 1.383 . S
C118 C117 1.379 . S
H119 C113 0.959 . S
H120 C113 0.961 . S
H121 C113 0.960 . S
H122 C114 0.930 . S
H123 C115 0.929 . S
H124 C132 0.929 . S
H125 C134 0.930 . S
H126 C136 0.930 . S
H127 C139 0.929 . S
H128 C142 0.930 . S
H129 C144 0.960 . S
H130 C144 0.960 . S
H131 C144 0.960 . S
C132 H124 0.929 . S
C132 C133 1.377 . S
C132 C134 1.384 . S
C133 C132 1.377 . S
C133 C139 1.390 . S
C134 H125 0.930 . S
C134 C132 1.384 . S
C134 C135 1.372 . S
C135 C134 1.372 . S
C135 C136 1.400 . S
C135 C140 1.490 . S
C136 H126 0.930 . S
C136 C135 1.400 . S
C136 C139 1.386 . S
H137 C153 0.930 . S
H138 C154 0.931 . S
C139 H127 0.929 . S
C139 C133 1.390 . S
C139 C136 1.386 . S
C140 C135 1.490 . S
C140 C142 1.395 . S
C140 C143 1.403 . S
H141 C147 0.930 . S
C142 H128 0.930 . S
C142 C140 1.395 . S
C142 C145 1.403 . S
C143 C140 1.403 . S
C143 C144 1.524 . S
C143 C147 1.400 . S
C144 H129 0.960 . S
C144 H130 0.960 . S
C144 H131 0.960 . S
C144 C143 1.524 . S
C145 C142 1.403 . S
C145 C146 1.392 . S
C145 C149 1.495 . S
C146 C145 1.392 . S
C146 C147 1.385 . S
C146 C148 1.478 . S
C147 H141 0.930 . S
C147 C143 1.400 . S
C147 C146 1.385 . S
C148 C146 1.478 . S
C148 C150 1.381 . S
C148 C154 1.383 . S
C149 C145 1.495 . S
C149 H155 0.959 . S
C149 H156 0.961 . S
C149 H157 0.960 . S
C150 C148 1.381 . S
C150 C151 1.394 . S
C150 H158 0.930 . S
C151 C150 1.394 . S
C151 C152 1.383 . S
C151 H159 0.929 . S
C152 C151 1.383 . S
C152 C153 1.377 . S
C153 H137 0.930 . S
C153 C152 1.377 . S
C153 C154 1.379 . S
C154 H138 0.931 . S
C154 C148 1.383 . S
C154 C153 1.379 . S
H155 C149 0.959 . S
H156 C149 0.961 . S
H157 C149 0.960 . S
H158 C150 0.930 . S
H159 C151 0.929 . S
H160 C168 0.929 . S
H161 C170 0.930 . S
H162 C172 0.930 . S
H163 C175 0.929 . S
H164 C178 0.930 . S
H165 C180 0.960 . S
H166 C180 0.960 . S
H167 C180 0.960 . S
C168 H160 0.929 . S
C168 C169 1.377 . S
C168 C170 1.384 . S
C169 C168 1.377 . S
C169 C175 1.390 . S
C170 H161 0.930 . S
C170 C168 1.384 . S
C170 C171 1.372 . S
C171 C170 1.372 . S
C171 C172 1.400 . S
C171 C176 1.490 . S
C172 H162 0.930 . S
C172 C171 1.400 . S
C172 C175 1.386 . S
H173 C189 0.930 . S
H174 C190 0.931 . S
C175 H163 0.929 . S
C175 C169 1.390 . S
C175 C172 1.386 . S
C176 C171 1.490 . S
C176 C178 1.395 . S
C176 C179 1.403 . S
H177 C183 0.930 . S
C178 H164 0.930 . S
C178 C176 1.395 . S
C178 C181 1.403 . S
C179 C176 1.403 . S
C179 C180 1.524 . S
C179 C183 1.400 . S
C180 H165 0.960 . S
C180 H166 0.960 . S
C180 H167 0.960 . S
C180 C179 1.524 . S
C181 C178 1.403 . S
C181 C182 1.392 . S
C181 C185 1.495 . S
C182 C181 1.392 . S
C182 C183 1.385 . S
C182 C184 1.478 . S
C183 H177 0.930 . S
C183 C179 1.400 . S
C183 C182 1.385 . S
C184 C182 1.478 . S
C184 C186 1.381 . S
C184 C190 1.383 . S
C185 C181 1.495 . S
C185 H191 0.959 . S
C185 H192 0.961 . S
C185 H193 0.960 . S
C186 C184 1.381 . S
C186 C187 1.394 . S
C186 H194 0.930 . S
C187 C186 1.394 . S
C187 C188 1.383 . S
C187 H195 0.929 . S
C188 C187 1.383 . S
C188 C189 1.377 . S
C189 H173 0.930 . S
C189 C188 1.377 . S
C189 C190 1.379 . S
C190 H174 0.931 . S
C190 C184 1.383 . S
C190 C189 1.379 . S
H191 C185 0.959 . S
H192 C185 0.961 . S
H193 C185 0.960 . S
H194 C186 0.930 . S
H195 C187 0.929 . S
H196 C204 0.929 . S
H197 C206 0.930 . S
H198 C208 0.930 . S
H199 C211 0.929 1_556 S
H200 C214 0.930 . S
H201 C216 0.960 . S
H202 C216 0.960 . S
H203 C216 0.960 . S
C204 H196 0.929 . S
C204 C205 1.377 . S
C204 C206 1.384 . S
C205 C204 1.377 . S
C205 C211 1.390 . S
C206 H197 0.930 . S
C206 C204 1.384 . S
C206 C207 1.372 . S
C207 C206 1.372 . S
C207 C208 1.400 1_554 S
C207 C212 1.490 . S
C208 H198 0.930 . S
C208 C207 1.400 1_556 S
C208 C211 1.386 1_556 S
H209 C225 0.930 . S
H210 C226 0.931 . S
C211 H199 0.929 1_554 S
C211 C205 1.390 . S
C211 C208 1.386 1_554 S
C212 C207 1.490 . S
C212 C214 1.395 . S
C212 C215 1.403 1_554 S
H213 C219 0.930 . S
C214 H200 0.930 . S
C214 C212 1.395 . S
C214 C217 1.403 . S
C215 C212 1.403 1_556 S
C215 C216 1.524 . S
C215 C219 1.400 . S
C216 H201 0.960 . S
C216 H202 0.960 . S
C216 H203 0.960 . S
C216 C215 1.524 . S
C217 C214 1.403 . S
C217 C218 1.392 . S
C217 C221 1.495 . S
C218 C217 1.392 . S
C218 C219 1.385 1_554 S
C218 C220 1.475 1_554 S
C219 H213 0.930 . S
C219 C215 1.400 . S
C219 C218 1.385 1_556 S
C220 C218 1.475 1_556 S
C220 C222 1.379 1_556 S
C220 C226 1.390 . S
C221 C217 1.495 . S
C221 H227 0.959 . S
C221 H228 0.961 . S
C221 H229 0.960 . S
C222 C220 1.379 1_554 S
C222 C223 1.394 1_554 S
C222 H230 0.930 . S
C223 C222 1.394 1_556 S
C223 C224 1.383 . S
C223 H231 0.929 . S
C224 C223 1.383 . S
C224 C225 1.377 . S
C225 H209 0.930 . S
C225 C224 1.377 . S
C225 C226 1.379 . S
C226 H210 0.931 . S
C226 C220 1.390 . S
C226 C225 1.379 . S
H227 C221 0.959 . S
H228 C221 0.961 . S
H229 C221 0.960 . S
H230 C222 0.930 . S
H231 C223 0.929 . S
H232 C240 0.929 . S
H233 C242 0.930 . S
H234 C244 0.930 . S
H235 C247 0.929 . S
H236 C250 0.930 . S
H237 C252 0.960 . S
H238 C252 0.960 . S
H239 C252 0.960 . S
C240 H232 0.929 . S
C240 C241 1.377 . S
C240 C242 1.384 . S
C241 C240 1.377 . S
C241 C247 1.390 . S
C242 H233 0.930 . S
C242 C240 1.384 . S
C242 C243 1.372 . S
C243 C242 1.372 . S
C243 C244 1.400 . S
C243 C248 1.490 . S
C244 H234 0.930 . S
C244 C243 1.400 . S
C244 C247 1.386 . S
H245 C261 0.930 . S
H246 C262 0.931 . S
C247 H235 0.929 . S
C247 C241 1.390 . S
C247 C244 1.386 . S
C248 C243 1.490 . S
C248 C250 1.395 . S
C248 C251 1.403 . S
H249 C255 0.930 . S
C250 H236 0.930 . S
C250 C248 1.395 . S
C250 C253 1.403 . S
C251 C248 1.403 . S
C251 C252 1.524 . S
C251 C255 1.400 . S
C252 H237 0.960 . S
C252 H238 0.960 . S
C252 H239 0.960 . S
C252 C251 1.524 . S
C253 C250 1.403 . S
C253 C254 1.392 . S
C253 C257 1.495 . S
C254 C253 1.392 . S
C254 C255 1.385 . S
C254 C256 1.478 . S
C255 H249 0.930 . S
C255 C251 1.400 . S
C255 C254 1.385 . S
C256 C254 1.478 . S
C256 C258 1.381 . S
C256 C262 1.383 . S
C257 C253 1.495 . S
C257 H263 0.959 . S
C257 H264 0.961 . S
C257 H265 0.960 . S
C258 C256 1.381 . S
C258 C259 1.394 . S
C258 H266 0.930 . S
C259 C258 1.394 . S
C259 C260 1.383 . S
C259 H267 0.929 . S
C260 C259 1.383 . S
C260 C261 1.377 . S
C261 H245 0.930 . S
C261 C260 1.377 . S
C261 C262 1.379 . S
C262 H246 0.931 . S
C262 C256 1.383 . S
C262 C261 1.379 . S
H263 C257 0.959 . S
H264 C257 0.961 . S
H265 C257 0.960 . S
H266 C258 0.930 . S
H267 C259 0.929 . S
H268 C276 0.929 . S
H269 C278 0.930 . S
H270 C280 0.930 . S
H271 C283 0.929 . S
H272 C286 0.930 . S
H273 C288 0.960 . S
H274 C288 0.960 . S
H275 C288 0.960 . S
C276 H268 0.929 . S
C276 C277 1.377 . S
C276 C278 1.384 . S
C277 C276 1.377 . S
C277 C283 1.390 . S
C278 H269 0.930 . S
C278 C276 1.384 . S
C278 C279 1.372 . S
C279 C278 1.372 . S
C279 C280 1.400 . S
C279 C284 1.490 . S
C280 H270 0.930 . S
C280 C279 1.400 . S
C280 C283 1.386 . S
H281 C297 0.930 . S
H282 C298 0.931 . S
C283 H271 0.929 . S
C283 C277 1.390 . S
C283 C280 1.386 . S
C284 C279 1.490 . S
C284 C286 1.395 . S
C284 C287 1.403 . S
H285 C291 0.930 . S
C286 H272 0.930 . S
C286 C284 1.395 . S
C286 C289 1.403 . S
C287 C284 1.403 . S
C287 C288 1.524 . S
C287 C291 1.400 . S
C288 H273 0.960 . S
C288 H274 0.960 . S
C288 H275 0.960 . S
C288 C287 1.524 . S
C289 C286 1.403 . S
C289 C290 1.392 . S
C289 C293 1.495 . S
C290 C289 1.392 . S
C290 C291 1.385 . S
C290 C292 1.478 . S
C291 H285 0.930 . S
C291 C287 1.400 . S
C291 C290 1.385 . S
C292 C290 1.478 . S
C292 C294 1.381 . S
C292 C298 1.383 . S
C293 C289 1.495 . S
C293 H299 0.959 . S
C293 H300 0.961 . S
C293 H301 0.960 . S
C294 C292 1.381 . S
C294 C295 1.394 . S
C294 H302 0.930 . S
C295 C294 1.394 . S
C295 C296 1.383 . S
C295 H303 0.929 . S
C296 C295 1.383 . S
C296 C297 1.377 . S
C297 H281 0.930 . S
C297 C296 1.377 . S
C297 C298 1.379 . S
C298 H282 0.931 . S
C298 C292 1.383 . S
C298 C297 1.379 . S
H299 C293 0.959 . S
H300 C293 0.961 . S
H301 C293 0.960 . S
H302 C294 0.930 . S
H303 C295 0.929 . S
H304 C312 0.929 . S
H305 C314 0.930 . S
H306 C316 0.930 . S
H307 C319 0.929 . S
H308 C322 0.930 . S
H309 C324 0.960 . S
H310 C324 0.960 . S
H311 C324 0.960 . S
C312 H304 0.929 . S
C312 C313 1.377 . S
C312 C314 1.384 . S
C313 C312 1.377 . S
C313 C319 1.390 . S
C314 H305 0.930 . S
C314 C312 1.384 . S
C314 C315 1.372 . S
C315 C314 1.372 . S
C315 C316 1.400 . S
C315 C320 1.490 . S
C316 H306 0.930 . S
C316 C315 1.400 . S
C316 C319 1.386 . S
H317 C333 0.930 . S
H318 C334 0.931 . S
C319 H307 0.929 . S
C319 C313 1.390 . S
C319 C316 1.386 . S
C320 C315 1.490 . S
C320 C322 1.395 . S
C320 C323 1.403 . S
H321 C327 0.930 . S
C322 H308 0.930 . S
C322 C320 1.395 . S
C322 C325 1.403 . S
C323 C320 1.403 . S
C323 C324 1.524 . S
C323 C327 1.400 . S
C324 H309 0.960 . S
C324 H310 0.960 . S
C324 H311 0.960 . S
C324 C323 1.524 . S
C325 C322 1.403 . S
C325 C326 1.392 . S
C325 C329 1.495 . S
C326 C325 1.392 . S
C326 C327 1.385 . S
C326 C328 1.478 . S
C327 H321 0.930 . S
C327 C323 1.400 . S
C327 C326 1.385 . S
C328 C326 1.478 . S
C328 C330 1.381 . S
C328 C334 1.383 . S
C329 C325 1.495 . S
C329 H335 0.959 . S
C329 H336 0.961 . S
C329 H337 0.960 . S
C330 C328 1.381 . S
C330 C331 1.394 . S
C330 H338 0.930 . S
C331 C330 1.394 . S
C331 C332 1.383 . S
C331 H339 0.929 . S
C332 C331 1.383 . S
C332 C333 1.377 . S
C333 H317 0.930 . S
C333 C332 1.377 . S
C333 C334 1.379 . S
C334 H318 0.931 . S
C334 C328 1.383 . S
C334 C333 1.379 . S
H335 C329 0.959 . S
H336 C329 0.961 . S
H337 C329 0.960 . S
H338 C330 0.930 . S
H339 C331 0.929 . S
H340 C348 0.929 . S
H341 C350 0.930 . S
H342 C352 0.930 . S
H343 C355 0.929 . S
H344 C358 0.930 . S
H345 C360 0.960 . S
H346 C360 0.960 . S
H347 C360 0.960 . S
C348 H340 0.929 . S
C348 C349 1.377 . S
C348 C350 1.384 . S
C349 C348 1.377 . S
C349 C355 1.390 . S
C350 H341 0.930 . S
C350 C348 1.384 . S
C350 C351 1.372 . S
C351 C350 1.372 . S
C351 C352 1.400 . S
C351 C356 1.490 . S
C352 H342 0.930 . S
C352 C351 1.400 . S
C352 C355 1.386 . S
H353 C369 0.930 . S
H354 C370 0.931 . S
C355 H343 0.929 . S
C355 C349 1.390 . S
C355 C352 1.386 . S
C356 C351 1.490 . S
C356 C358 1.395 . S
C356 C359 1.403 . S
H357 C363 0.930 . S
C358 H344 0.930 . S
C358 C356 1.395 . S
C358 C361 1.403 . S
C359 C356 1.403 . S
C359 C360 1.524 . S
C359 C363 1.400 . S
C360 H345 0.960 . S
C360 H346 0.960 . S
C360 H347 0.960 . S
C360 C359 1.524 . S
C361 C358 1.403 . S
C361 C362 1.392 . S
C361 C365 1.495 . S
C362 C361 1.392 . S
C362 C363 1.385 . S
C362 C364 1.478 . S
C363 H357 0.930 . S
C363 C359 1.400 . S
C363 C362 1.385 . S
C364 C362 1.478 . S
C364 C366 1.381 . S
C364 C370 1.383 . S
C365 C361 1.495 . S
C365 H371 0.959 . S
C365 H372 0.961 . S
C365 H373 0.960 . S
C366 C364 1.381 . S
C366 C367 1.394 . S
C366 H374 0.930 . S
C367 C366 1.394 . S
C367 C368 1.383 . S
C367 H375 0.929 . S
C368 C367 1.383 . S
C368 C369 1.377 . S
C369 H353 0.930 . S
C369 C368 1.377 . S
C369 C370 1.379 . S
C370 H354 0.931 . S
C370 C364 1.383 . S
C370 C369 1.379 . S
H371 C365 0.959 . S
H372 C365 0.961 . S
H373 C365 0.960 . S
H374 C366 0.930 . S
H375 C367 0.929 . S
H376 C384 0.929 . S
H377 C386 0.930 . S
H378 C388 0.930 1_655 S
H379 C391 0.929 . S
H380 C394 0.930 . S
H381 C396 0.960 . S
H382 C396 0.960 . S
H383 C396 0.960 . S
C384 H376 0.929 . S
C384 C385 1.377 . S
C384 C386 1.384 . S
C385 C384 1.377 . S
C385 C391 1.390 . S
C386 H377 0.930 . S
C386 C384 1.384 . S
C386 C387 1.372 . S
C387 C386 1.372 . S
C387 C388 1.400 . S
C387 C392 1.490 . S
C388 H378 0.930 1_455 S
C388 C387 1.400 . S
C388 C391 1.386 . S
H389 C405 0.930 . S
H390 C406 0.931 . S
C391 H379 0.929 . S
C391 C385 1.390 . S
C391 C388 1.386 . S
C392 C387 1.490 . S
C392 C394 1.395 . S
C392 C395 1.403 1_455 S
H393 C399 0.930 . S
C394 H380 0.930 . S
C394 C392 1.395 . S
C394 C397 1.403 1_554 S
C395 C392 1.403 1_655 S
C395 C396 1.524 . S
C395 C399 1.400 1_554 S
C396 H381 0.960 . S
C396 H382 0.960 . S
C396 H383 0.960 . S
C396 C395 1.524 . S
C397 C394 1.403 1_556 S
C397 C398 1.392 1_455 S
C397 C401 1.495 . S
C398 C397 1.392 1_655 S
C398 C399 1.385 . S
C398 C400 1.478 . S
C399 H393 0.930 . S
C399 C395 1.400 1_556 S
C399 C398 1.385 . S
C400 C398 1.478 . S
C400 C402 1.381 . S
C400 C406 1.383 . S
C401 C397 1.495 . S
C401 H407 0.959 . S
C401 H408 0.961 . S
C401 H409 0.960 . S
C402 C400 1.381 . S
C402 C403 1.394 . S
C402 H410 0.930 1_655 S
C403 C402 1.394 . S
C403 C404 1.383 . S
C403 H411 0.929 . S
C404 C403 1.383 . S
C404 C405 1.377 . S
C405 H389 0.930 . S
C405 C404 1.377 . S
C405 C406 1.379 . S
C406 H390 0.931 . S
C406 C400 1.383 . S
C406 C405 1.379 . S
H407 C401 0.959 . S
H408 C401 0.961 . S
H409 C401 0.960 . S
H410 C402 0.930 1_455 S
H411 C403 0.929 . S
H412 C420 0.929 . S
H413 C422 0.930 . S
H414 C424 0.930 . S
H415 C427 0.929 . S
H416 C430 0.930 . S
H417 C432 0.960 . S
H418 C432 0.960 . S
H419 C432 0.960 . S
C420 H412 0.929 . S
C420 C421 1.377 . S
C420 C422 1.384 . S
C421 C420 1.377 . S
C421 C427 1.390 . S
C422 H413 0.930 . S
C422 C420 1.384 . S
C422 C423 1.372 . S
C423 C422 1.372 . S
C423 C424 1.400 . S
C423 C428 1.490 . S
C424 H414 0.930 . S
C424 C423 1.400 . S
C424 C427 1.386 . S
H425 C441 0.930 . S
H426 C442 0.931 . S
C427 H415 0.929 . S
C427 C421 1.390 . S
C427 C424 1.386 . S
C428 C423 1.490 . S
C428 C430 1.395 1_545 S
C428 C431 1.403 . S
H429 C435 0.930 . S
C430 H416 0.930 . S
C430 C428 1.395 1_565 S
C430 C433 1.403 . S
C431 C428 1.403 . S
C431 C432 1.524 . S
C431 C435 1.400 . S
C432 H417 0.960 . S
C432 H418 0.960 . S
C432 H419 0.960 . S
C432 C431 1.524 . S
C433 C430 1.403 . S
C433 C434 1.392 . S
C433 C437 1.495 . S
C434 C433 1.392 . S
C434 C435 1.385 1_565 S
C434 C436 1.478 . S
C435 H429 0.930 . S
C435 C431 1.400 . S
C435 C434 1.385 1_545 S
C436 C434 1.478 . S
C436 C438 1.381 . S
C436 C442 1.383 . S
C437 C433 1.495 . S
C437 H443 0.959 . S
C437 H444 0.961 . S
C437 H445 0.960 . S
C438 C436 1.381 . S
C438 C439 1.394 . S
C438 H446 0.930 . S
C439 C438 1.394 . S
C439 C440 1.383 . S
C439 H447 0.929 . S
C440 C439 1.383 . S
C440 C441 1.377 . S
C441 H425 0.930 . S
C441 C440 1.377 . S
C441 C442 1.379 . S
C442 H426 0.931 . S
C442 C436 1.383 . S
C442 C441 1.379 . S
H443 C437 0.959 . S
H444 C437 0.961 . S
H445 C437 0.960 . S
H446 C438 0.930 . S
H447 C439 0.929 . S
H448 C456 0.929 . S
H449 C458 0.930 . S
H450 C460 0.930 . S
H451 C463 0.929 . S
H452 C466 0.930 . S
H453 C468 0.960 . S
H454 C468 0.960 . S
H455 C468 0.960 . S
C456 H448 0.929 . S
C456 C457 1.377 . S
C456 C458 1.384 . S
C457 C456 1.377 . S
C457 C463 1.390 . S
C458 H449 0.930 . S
C458 C456 1.384 . S
C458 C459 1.372 . S
C459 C458 1.372 . S
C459 C460 1.400 . S
C459 C464 1.490 . S
C460 H450 0.930 . S
C460 C459 1.400 . S
C460 C463 1.386 . S
H461 C477 0.930 . S
H462 C478 0.931 . S
C463 H451 0.929 . S
C463 C457 1.390 . S
C463 C460 1.386 . S
C464 C459 1.490 . S
C464 C466 1.395 . S
C464 C467 1.403 1_655 S
H465 C471 0.930 . S
C466 H452 0.930 . S
C466 C464 1.395 . S
C466 C469 1.403 . S
C467 C464 1.403 1_455 S
C467 C468 1.524 . S
C467 C471 1.400 . S
C468 H453 0.960 . S
C468 H454 0.960 . S
C468 H455 0.960 . S
C468 C467 1.524 . S
C469 C466 1.403 . S
C469 C470 1.392 1_655 S
C469 C473 1.495 . S
C470 C469 1.392 1_455 S
C470 C471 1.385 . S
C470 C472 1.478 . S
C471 H465 0.930 . S
C471 C467 1.400 . S
C471 C470 1.385 . S
C472 C470 1.478 . S
C472 C474 1.381 . S
C472 C478 1.383 . S
C473 C469 1.495 . S
C473 H479 0.959 . S
C473 H480 0.961 . S
C473 H481 0.960 . S
C474 C472 1.381 . S
C474 C475 1.394 . S
C474 H482 0.930 . S
C475 C474 1.394 . S
C475 C476 1.383 . S
C475 H483 0.929 . S
C476 C475 1.383 . S
C476 C477 1.377 . S
C477 H461 0.930 . S
C477 C476 1.377 . S
C477 C478 1.379 . S
C478 H462 0.931 . S
C478 C472 1.383 . S
C478 C477 1.379 . S
H479 C473 0.959 . S
H480 C473 0.961 . S
H481 C473 0.960 . S
H482 C474 0.930 . S
H483 C475 0.929 . S
H484 C492 0.929 . S
H485 C494 0.930 . S
H486 C496 0.930 . S
H487 C499 0.929 . S
H488 C502 0.930 . S
H489 C504 0.960 . S
H490 C504 0.960 . S
H491 C504 0.960 . S
C492 H484 0.929 . S
C492 C493 1.377 . S
C492 C494 1.384 . S
C493 C492 1.377 . S
C493 C499 1.390 . S
C494 H485 0.930 . S
C494 C492 1.384 . S
C494 C495 1.372 . S
C495 C494 1.372 . S
C495 C496 1.400 . S
C495 C500 1.490 . S
C496 H486 0.930 . S
C496 C495 1.400 . S
C496 C499 1.386 . S
H497 C513 0.930 . S
H498 C514 0.931 . S
C499 H487 0.929 . S
C499 C493 1.390 . S
C499 C496 1.386 . S
C500 C495 1.490 . S
C500 C502 1.395 . S
C500 C503 1.403 1_565 S
H501 C507 0.930 . S
C502 H488 0.930 . S
C502 C500 1.395 . S
C502 C505 1.403 . S
C503 C500 1.403 1_545 S
C503 C504 1.524 . S
C503 C507 1.400 . S
C504 H489 0.960 . S
C504 H490 0.960 . S
C504 H491 0.960 . S
C504 C503 1.524 . S
C505 C502 1.403 . S
C505 C506 1.392 1_565 S
C505 C509 1.495 . S
C506 C505 1.392 1_545 S
C506 C507 1.385 . S
C506 C508 1.478 . S
C507 H501 0.930 . S
C507 C503 1.400 . S
C507 C506 1.385 . S
C508 C506 1.478 . S
C508 C510 1.381 . S
C508 C514 1.383 . S
C509 C505 1.495 . S
C509 H515 0.959 . S
C509 H516 0.961 . S
C509 H517 0.960 . S
C510 C508 1.381 . S
C510 C511 1.394 . S
C510 H518 0.930 . S
C511 C510 1.394 . S
C511 C512 1.383 . S
C511 H519 0.929 . S
C512 C511 1.383 . S
C512 C513 1.377 . S
C513 H497 0.930 . S
C513 C512 1.377 . S
C513 C514 1.379 . S
C514 H498 0.931 . S
C514 C508 1.383 . S
C514 C513 1.379 . S
H515 C509 0.959 . S
H516 C509 0.961 . S
H517 C509 0.960 . S
H518 C510 0.930 . S
H519 C511 0.929 . S
C97 C7 1.494 . S
C116 C51 1.490 . S
C133 C18 1.497 . S
C152 C62 1.476 . S
C169 C29 1.495 . S
C188 C73 1.500 . S
C205 C84 1.497 . S
C224 C40 1.476 . S
C241 C8 1.522 . S
C260 C63 1.520 . S
C277 C19 1.522 . S
C296 C74 1.520 . S
C313 C30 1.521 . S
C332 C85 1.520 . S
C349 C41 1.521 . S
C368 C52 1.512 . S
C385 C5 1.341 . S
C404 C71 1.311 . S
C421 C16 1.348 . S
C440 C82 1.384 . S
C457 C27 1.335 . S
C476 C49 1.294 . S
C493 C38 1.333 . S
C512 C60 1.293 . S
