# Generated by pormake.
# Topology cag, (4)-cn, num edge types: 1
# Building blocks:
#     Node 0, Type 0, BuildingBlock: AZAVOO_clean_sbu_0, # of connection points: 4
#     Node 1, Type 0, BuildingBlock: AZAVOO_clean_sbu_0, # of connection points: 4
#     Node 2, Type 0, BuildingBlock: AZAVOO_clean_sbu_0, # of connection points: 4
#     Node 3, Type 0, BuildingBlock: AZAVOO_clean_sbu_0, # of connection points: 4
#     Node 4, Type 0, BuildingBlock: AZAVOO_clean_sbu_0, # of connection points: 4
#     Node 5, Type 0, BuildingBlock: AZAVOO_clean_sbu_0, # of connection points: 4
#     Node 6, Type 0, BuildingBlock: AZAVOO_clean_sbu_0, # of connection points: 4
#     Node 7, Type 0, BuildingBlock: AZAVOO_clean_sbu_0, # of connection points: 4
#     Node 8, Type 0, BuildingBlock: AZAVOO_clean_sbu_0, # of connection points: 4
#     Node 9, Type 0, BuildingBlock: AZAVOO_clean_sbu_0, # of connection points: 4
#     Node 10, Type 0, BuildingBlock: AZAVOO_clean_sbu_0, # of connection points: 4
#     Node 11, Type 0, BuildingBlock: AZAVOO_clean_sbu_0, # of connection points: 4
#     Node 12, Type 0, BuildingBlock: AZAVOO_clean_sbu_0, # of connection points: 4
#     Node 13, Type 0, BuildingBlock: AZAVOO_clean_sbu_0, # of connection points: 4
#     Node 14, Type 0, BuildingBlock: AZAVOO_clean_sbu_0, # of connection points: 4
#     Node 15, Type 0, BuildingBlock: AZAVOO_clean_sbu_0, # of connection points: 4
#     Edge 16, Type (0, 0), BuildingBlock: UVAHIK_clean_linker_0, # of connection points: 2
#     Edge 17, Type (0, 0), BuildingBlock: UVAHIK_clean_linker_0, # of connection points: 2
#     Edge 18, Type (0, 0), BuildingBlock: UVAHIK_clean_linker_0, # of connection points: 2
#     Edge 19, Type (0, 0), BuildingBlock: UVAHIK_clean_linker_0, # of connection points: 2
#     Edge 20, Type (0, 0), BuildingBlock: UVAHIK_clean_linker_0, # of connection points: 2
#     Edge 21, Type (0, 0), BuildingBlock: UVAHIK_clean_linker_0, # of connection points: 2
#     Edge 22, Type (0, 0), BuildingBlock: UVAHIK_clean_linker_0, # of connection points: 2
#     Edge 23, Type (0, 0), BuildingBlock: UVAHIK_clean_linker_0, # of connection points: 2
#     Edge 24, Type (0, 0), BuildingBlock: UVAHIK_clean_linker_0, # of connection points: 2
#     Edge 25, Type (0, 0), BuildingBlock: UVAHIK_clean_linker_0, # of connection points: 2
#     Edge 26, Type (0, 0), BuildingBlock: UVAHIK_clean_linker_0, # of connection points: 2
#     Edge 27, Type (0, 0), BuildingBlock: UVAHIK_clean_linker_0, # of connection points: 2
#     Edge 28, Type (0, 0), BuildingBlock: UVAHIK_clean_linker_0, # of connection points: 2
#     Edge 29, Type (0, 0), BuildingBlock: UVAHIK_clean_linker_0, # of connection points: 2
#     Edge 30, Type (0, 0), BuildingBlock: UVAHIK_clean_linker_0, # of connection points: 2
#     Edge 31, Type (0, 0), BuildingBlock: UVAHIK_clean_linker_0, # of connection points: 2
#     Edge 32, Type (0, 0), BuildingBlock: UVAHIK_clean_linker_0, # of connection points: 2
#     Edge 33, Type (0, 0), BuildingBlock: UVAHIK_clean_linker_0, # of connection points: 2
#     Edge 34, Type (0, 0), BuildingBlock: UVAHIK_clean_linker_0, # of connection points: 2
#     Edge 35, Type (0, 0), BuildingBlock: UVAHIK_clean_linker_0, # of connection points: 2
#     Edge 36, Type (0, 0), BuildingBlock: UVAHIK_clean_linker_0, # of connection points: 2
#     Edge 37, Type (0, 0), BuildingBlock: UVAHIK_clean_linker_0, # of connection points: 2
#     Edge 38, Type (0, 0), BuildingBlock: UVAHIK_clean_linker_0, # of connection points: 2
#     Edge 39, Type (0, 0), BuildingBlock: UVAHIK_clean_linker_0, # of connection points: 2
#     Edge 40, Type (0, 0), BuildingBlock: UVAHIK_clean_linker_0, # of connection points: 2
#     Edge 41, Type (0, 0), BuildingBlock: UVAHIK_clean_linker_0, # of connection points: 2
#     Edge 42, Type (0, 0), BuildingBlock: UVAHIK_clean_linker_0, # of connection points: 2
#     Edge 43, Type (0, 0), BuildingBlock: UVAHIK_clean_linker_0, # of connection points: 2
#     Edge 44, Type (0, 0), BuildingBlock: UVAHIK_clean_linker_0, # of connection points: 2
#     Edge 45, Type (0, 0), BuildingBlock: UVAHIK_clean_linker_0, # of connection points: 2
#     Edge 46, Type (0, 0), BuildingBlock: UVAHIK_clean_linker_0, # of connection points: 2
#     Edge 47, Type (0, 0), BuildingBlock: UVAHIK_clean_linker_0, # of connection points: 2
# Relax obj value: 0.058
# Max RMSD: 0.100
# Mean RMSD: 0.096
data_MOF--net-cag--node1-AZAVOO_clean_sbu_0--edge1-UVAHIK_clean_linker_0
_symmetry_space_group_name_H-M    P1
_symmetry_Int_Tables_number       1
_symmetry_cell_setting            triclinic
loop_
_symmetry_equiv_pos_as_xyz
'x, y, z'
_cell_length_a     57.19605
_cell_length_b     59.701867
_cell_length_c     55.429753
_cell_angle_alpha  90.010699
_cell_angle_beta   89.98369
_cell_angle_gamma 90.002516
loop_
_atom_site_label
_atom_site_type_symbol
_atom_site_fract_x
_atom_site_fract_y
_atom_site_fract_z
_atom_type_partial_charge
Mg0 Mg 0.34405 0.11884 0.1245 0.0
O1 O 0.33519 0.09343 0.09472 0.0
O2 O 0.29626 0.08962 0.09445 0.0
Mg3 Mg 0.28028 0.1113 0.12417 0.0
C4 C 0.31649 0.08478 0.08616 0.0
C5 C 0.39358 0.13828 0.11962 0.0
O6 O 0.38365 0.15199 0.13508 0.0
O7 O 0.33073 0.14762 0.10062 0.0
O8 O 0.2921 0.14281 0.10419 0.0
O9 O 0.34607 0.0912 0.15213 0.0
O10 O 0.31389 0.10961 0.14258 0.0
C11 C 0.30971 0.15388 0.09653 0.0
C12 C 0.32369 0.09364 0.15434 0.0
O13 O 0.38144 0.1225 0.11067 0.0
Mg14 Mg 0.15882 0.88059 0.6221 0.0
O15 O 0.1672 0.90715 0.59339 0.0
O16 O 0.20585 0.91287 0.59459 0.0
Mg17 Mg 0.22194 0.89131 0.62429 0.0
C18 C 0.18567 0.91688 0.5857 0.0
C19 C 0.11021 0.85958 0.61573 0.0
O20 O 0.12032 0.84602 0.63122 0.0
O21 O 0.1744 0.85311 0.59778 0.0
O22 O 0.21249 0.85994 0.60298 0.0
O23 O 0.15411 0.90728 0.6503 0.0
O24 O 0.18776 0.891 0.64196 0.0
C25 C 0.19589 0.84813 0.5943 0.0
C26 C 0.17643 0.906 0.65384 0.0
O27 O 0.12206 0.87568 0.60703 0.0
Mg28 Mg 0.34431 0.8796 0.86521 0.0
O29 O 0.33529 0.90498 0.89501 0.0
O30 O 0.29637 0.90891 0.89493 0.0
Mg31 Mg 0.28053 0.88716 0.8652 0.0
C32 C 0.31655 0.91372 0.90337 0.0
C33 C 0.39438 0.86141 0.86875 0.0
O34 O 0.38496 0.84873 0.85198 0.0
O35 O 0.33087 0.85071 0.88892 0.0
O36 O 0.29228 0.85563 0.88515 0.0
O37 O 0.34652 0.90743 0.83784 0.0
O38 O 0.31424 0.88899 0.84698 0.0
C39 C 0.30981 0.84449 0.89287 0.0
C40 C 0.32414 0.9051 0.83553 0.0
O41 O 0.38168 0.87599 0.87912 0.0
Mg42 Mg 0.15788 0.12659 0.36993 0.0
O43 O 0.16673 0.09902 0.39737 0.0
O44 O 0.20538 0.09354 0.39558 0.0
Mg45 Mg 0.22116 0.11675 0.3672 0.0
C46 C 0.18528 0.08901 0.40437 0.0
C47 C 0.10513 0.13191 0.36945 0.0
O48 O 0.11133 0.13233 0.34662 0.0
O49 O 0.17303 0.15341 0.39545 0.0
O50 O 0.21114 0.14695 0.39008 0.0
O51 O 0.15357 0.10077 0.34077 0.0
O52 O 0.18699 0.1173 0.34945 0.0
C53 C 0.19448 0.15833 0.39926 0.0
C54 C 0.17584 0.10244 0.33718 0.0
O55 O 0.12102 0.13014 0.38538 0.0
Mg56 Mg 0.69481 0.85102 0.91142 0.0
O57 O 0.70237 0.88355 0.93229 0.0
O58 O 0.74109 0.88543 0.93733 0.0
Mg59 Mg 0.75816 0.85445 0.92089 0.0
C60 C 0.72062 0.89359 0.94005 0.0
C61 C 0.6449 0.84866 0.89177 0.0
O62 O 0.65499 0.83079 0.88263 0.0
O63 O 0.7084 0.86726 0.87679 0.0
O64 O 0.74698 0.867 0.88348 0.0
O65 O 0.69265 0.83141 0.9457 0.0
O66 O 0.72512 0.83629 0.92491 0.0
C67 C 0.72938 0.87118 0.86999 0.0
C68 C 0.71495 0.82821 0.94368 0.0
O69 O 0.65716 0.86199 0.90442 0.0
Mg70 Mg 0.80621 0.14836 0.41145 0.0
O71 O 0.79876 0.11557 0.4318 0.0
O72 O 0.76 0.11311 0.4362 0.0
Mg73 Mg 0.74274 0.14406 0.41984 0.0
C74 C 0.78056 0.10521 0.43916 0.0
C75 C 0.85825 0.13523 0.42185 0.0
O76 O 0.85057 0.13738 0.44407 0.0
O77 O 0.79326 0.13236 0.37638 0.0
O78 O 0.75458 0.13205 0.38245 0.0
O79 O 0.80727 0.16776 0.44615 0.0
O80 O 0.7755 0.16252 0.42437 0.0
C81 C 0.77244 0.12827 0.36919 0.0
C82 C 0.78499 0.1707 0.44343 0.0
O83 O 0.84399 0.13774 0.40445 0.0
Mg84 Mg 0.69392 0.15461 0.07695 0.0
O85 O 0.70187 0.12239 0.05579 0.0
O86 O 0.74068 0.1205 0.05159 0.0
Mg87 Mg 0.75742 0.15128 0.06894 0.0
C88 C 0.72025 0.11243 0.04824 0.0
C89 C 0.6435 0.15713 0.0949 0.0
O90 O 0.65312 0.17552 0.10333 0.0
O91 O 0.7068 0.13797 0.11155 0.0
O92 O 0.74556 0.13859 0.10616 0.0
O93 O 0.69234 0.17443 0.04284 0.0
O94 O 0.72447 0.16947 0.06419 0.0
C95 C 0.72758 0.13423 0.11904 0.0
C96 C 0.71462 0.17757 0.04523 0.0
O97 O 0.65622 0.14345 0.08321 0.0
Mg98 Mg 0.80904 0.84562 0.5787 0.0
O99 O 0.80108 0.87761 0.55712 0.0
O100 O 0.76225 0.87951 0.55309 0.0
Mg101 Mg 0.74549 0.84909 0.57111 0.0
C102 C 0.78268 0.88748 0.5495 0.0
C103 C 0.85977 0.84241 0.59514 0.0
O104 O 0.85028 0.82361 0.60266 0.0
O105 O 0.79647 0.86276 0.61315 0.0
O106 O 0.75769 0.86227 0.60799 0.0
O107 O 0.81029 0.82538 0.54485 0.0
O108 O 0.77834 0.83072 0.5664 0.0
C109 C 0.77576 0.86673 0.6207 0.0
C110 C 0.78801 0.82238 0.54747 0.0
O111 O 0.84685 0.85665 0.58452 0.0
Mg112 Mg 0.8429 0.62259 0.12127 0.0
O113 O 0.83418 0.59618 0.09248 0.0
O114 O 0.79537 0.59154 0.09306 0.0
Mg115 Mg 0.77945 0.61384 0.12222 0.0
C116 C 0.81556 0.58687 0.08457 0.0
C117 C 0.89215 0.6423 0.11548 0.0
O118 O 0.88227 0.65607 0.13092 0.0
O119 O 0.82866 0.65056 0.09687 0.0
O120 O 0.79025 0.64504 0.10118 0.0
O121 O 0.84628 0.59578 0.14943 0.0
O122 O 0.8133 0.61312 0.1407 0.0
C123 C 0.80747 0.6563 0.09294 0.0
C124 C 0.82397 0.59776 0.1527 0.0
O125 O 0.87999 0.62647 0.10668 0.0
Mg126 Mg 0.65966 0.37661 0.62231 0.0
O127 O 0.66666 0.40324 0.59303 0.0
O128 O 0.70544 0.40811 0.59131 0.0
Mg129 Mg 0.72318 0.38509 0.61842 0.0
C130 C 0.68477 0.41275 0.58415 0.0
C131 C 0.60805 0.38953 0.61016 0.0
O132 O 0.61639 0.40931 0.61598 0.0
O133 O 0.67207 0.34897 0.59662 0.0
O134 O 0.71064 0.35531 0.59586 0.0
O135 O 0.65855 0.40323 0.65089 0.0
O136 O 0.69061 0.38573 0.63905 0.0
C137 C 0.69266 0.34417 0.58933 0.0
C138 C 0.68105 0.40121 0.65182 0.0
O139 O 0.62172 0.37273 0.6102 0.0
Mg140 Mg 0.8466 0.37971 0.86622 0.0
O141 O 0.83708 0.40579 0.89505 0.0
O142 O 0.79828 0.41034 0.89359 0.0
Mg143 Mg 0.78321 0.38843 0.86358 0.0
C144 C 0.81826 0.41493 0.90265 0.0
C145 C 0.89511 0.35893 0.87468 0.0
O146 O 0.88528 0.34442 0.86002 0.0
O147 O 0.83168 0.35163 0.88999 0.0
O148 O 0.79336 0.35705 0.88472 0.0
O149 O 0.85079 0.40671 0.83839 0.0
O150 O 0.81757 0.38936 0.84617 0.0
C151 C 0.81041 0.34582 0.89335 0.0
C152 C 0.82856 0.40478 0.83457 0.0
O153 O 0.88319 0.37561 0.88187 0.0
Mg154 Mg 0.65717 0.62097 0.3666 0.0
O155 O 0.66536 0.59453 0.39549 0.0
O156 O 0.70415 0.58961 0.39547 0.0
Mg157 Mg 0.72073 0.61193 0.36668 0.0
C158 C 0.68379 0.58507 0.40363 0.0
C159 C 0.60425 0.62578 0.36423 0.0
O160 O 0.61087 0.62538 0.34153 0.0
O161 O 0.67112 0.64878 0.39142 0.0
O162 O 0.7096 0.64306 0.38774 0.0
O163 O 0.65448 0.59407 0.33824 0.0
O164 O 0.68713 0.61154 0.34814 0.0
C165 C 0.69231 0.65437 0.39575 0.0
C166 C 0.6769 0.59603 0.33604 0.0
O167 O 0.61983 0.62466 0.38055 0.0
Mg168 Mg 0.19574 0.34652 0.91495 0.0
O169 O 0.20296 0.37889 0.93607 0.0
O170 O 0.24164 0.38121 0.94155 0.0
Mg171 Mg 0.2591 0.35131 0.92315 0.0
C172 C 0.22098 0.38889 0.94439 0.0
C173 C 0.14495 0.34204 0.89913 0.0
O174 O 0.15457 0.32303 0.89246 0.0
O175 O 0.20812 0.36369 0.8806 0.0
O176 O 0.24685 0.36447 0.88611 0.0
O177 O 0.19463 0.32657 0.94894 0.0
O178 O 0.22666 0.33223 0.92758 0.0
C179 C 0.22873 0.36836 0.87325 0.0
C180 C 0.21697 0.32388 0.94651 0.0
O181 O 0.15781 0.35686 0.90888 0.0
Mg182 Mg 0.30649 0.65298 0.40776 0.0
O183 O 0.29854 0.62098 0.42927 0.0
O184 O 0.25994 0.62007 0.43542 0.0
Mg185 Mg 0.24341 0.65146 0.41918 0.0
C186 C 0.28027 0.61146 0.43766 0.0
C187 C 0.3577 0.63713 0.41646 0.0
O188 O 0.35045 0.63945 0.43881 0.0
O189 O 0.29131 0.63688 0.37389 0.0
O190 O 0.25291 0.63837 0.38137 0.0
O191 O 0.31048 0.67278 0.44164 0.0
O192 O 0.27712 0.66878 0.42213 0.0
C193 C 0.27011 0.63359 0.36754 0.0
C194 C 0.28824 0.67668 0.44043 0.0
O195 O 0.34335 0.64054 0.39932 0.0
Mg196 Mg 0.19302 0.65346 0.0744 0.0
O197 O 0.20088 0.62054 0.05449 0.0
O198 O 0.23967 0.61848 0.04976 0.0
Mg199 Mg 0.25657 0.64904 0.0674 0.0
C200 C 0.21915 0.61051 0.04681 0.0
C201 C 0.14255 0.657 0.09181 0.0
O202 O 0.15242 0.6754 0.09991 0.0
O203 O 0.20505 0.63749 0.10956 0.0
O204 O 0.24386 0.63691 0.10465 0.0
O205 O 0.19234 0.67248 0.03971 0.0
O206 O 0.22401 0.66764 0.06181 0.0
C207 C 0.22559 0.63325 0.11738 0.0
C208 C 0.21461 0.67544 0.04248 0.0
O209 O 0.15509 0.64295 0.08042 0.0
Mg210 Mg 0.30739 0.35468 0.58318 0.0
O211 O 0.29916 0.38612 0.56082 0.0
O212 O 0.26046 0.38704 0.55546 0.0
Mg213 Mg 0.24406 0.35643 0.57346 0.0
C214 C 0.28078 0.39545 0.55242 0.0
C215 C 0.35999 0.35143 0.5889 0.0
O216 O 0.353 0.33075 0.58517 0.0
O217 O 0.29338 0.37177 0.61704 0.0
O218 O 0.25481 0.37044 0.61053 0.0
O219 O 0.31028 0.33403 0.54983 0.0
O220 O 0.27748 0.33866 0.57018 0.0
C221 C 0.27235 0.3754 0.6238 0.0
C222 C 0.28808 0.33024 0.55181 0.0
O223 O 0.3447 0.36688 0.5897 0.0
C224 C 0.32214 0.18496 0.06844 0.0
C225 C 0.30504 0.17482 0.08304 0.0
C226 C 0.31681 0.20434 0.05522 0.0
C227 C 0.27459 0.25121 0.05225 0.0
H228 H 0.28626 0.25047 0.98337 0.0
C229 C 0.22004 0.30262 0.98528 0.0
C230 C 0.23082 0.31136 0.96456 0.0
C231 C 0.23261 0.28908 0.00124 0.0
C232 C 0.28326 0.25121 0.00265 0.0
H233 H 0.2692 0.1775 0.09575 0.0
H234 H 0.26012 0.211 0.07298 0.0
H235 H 0.30276 0.22109 0.00881 0.0
H236 H 0.26347 0.31326 0.9447 0.0
H237 H 0.28546 0.28992 0.97274 0.0
H238 H 0.2546 0.28096 0.0461 0.0
C239 C 0.27761 0.20412 0.0717 0.0
C240 C 0.29274 0.23437 0.0172 0.0
C241 C 0.28279 0.18474 0.08458 0.0
C242 C 0.25464 0.30684 0.96053 0.0
C243 C 0.26721 0.29331 0.9765 0.0
C244 C 0.2652 0.26807 0.03774 0.0
C245 C 0.29445 0.21407 0.05675 0.0
C246 C 0.28789 0.23384 0.04203 0.0
C247 C 0.25625 0.28399 -0.00315 0.0
C248 C 0.26884 0.26791 0.01267 0.0
H249 H 0.33943 0.17771 0.06688 0.0
H250 H 0.33013 0.21171 0.04382 0.0
H251 H 0.27088 0.25141 0.07141 0.0
H252 H 0.20171 0.30572 0.98888 0.0
H253 H 0.22351 0.28193 0.01654 0.0
C254 C 0.2889 0.69961 0.47816 0.0
C255 C 0.27625 0.6905 0.4588 0.0
C256 C 0.27837 0.71486 0.49387 0.0
C257 C 0.22196 0.73768 0.51511 0.0
H258 H 0.25909 0.7908 0.52737 0.0
C259 C 0.18669 0.81769 0.56407 0.0
C260 C 0.20245 0.82815 0.57995 0.0
C261 C 0.19408 0.79975 0.54957 0.0
C262 C 0.24855 0.77598 0.52439 0.0
H263 H 0.24229 0.68954 0.44136 0.0
H264 H 0.2239 0.71613 0.4689 0.0
H265 H 0.27507 0.76095 0.50261 0.0
H266 H 0.23787 0.82709 0.59406 0.0
H267 H 0.2504 0.79593 0.5694 0.0
H268 H 0.19545 0.75286 0.53714 0.0
C269 C 0.24194 0.71139 0.47195 0.0
C270 C 0.25775 0.75885 0.5102 0.0
C271 C 0.25252 0.69619 0.45615 0.0
C272 C 0.22535 0.81976 0.58171 0.0
C273 C 0.23261 0.80189 0.56746 0.0
C274 C 0.21275 0.75487 0.5295 0.0
C275 C 0.25494 0.72131 0.4906 0.0
C276 C 0.2447 0.7394 0.50561 0.0
C277 C 0.21729 0.79196 0.55083 0.0
C278 C 0.2261 0.77408 0.53453 0.0
H279 H 0.30717 0.6955 0.48079 0.0
H280 H 0.28871 0.72196 0.50835 0.0
H281 H 0.2115 0.72286 0.51185 0.0
H282 H 0.16891 0.82374 0.56236 0.0
H283 H 0.18186 0.79244 0.53689 0.0
C284 C 0.28275 0.81355 0.90426 0.0
C285 C 0.30496 0.82351 0.90622 0.0
C286 C 0.27734 0.7942 0.91709 0.0
C287 C 0.29147 0.76425 0.97206 0.0
H288 H 0.25365 0.71758 0.94288 0.0
C289 C 0.25245 0.69231 0.02875 0.0
C290 C 0.22871 0.68771 0.02441 0.0
C291 C 0.26525 0.70568 0.01281 0.0
C292 C 0.26415 0.73049 0.95132 0.0
H293 H 0.33905 0.82067 0.92302 0.0
H294 H 0.32934 0.78671 0.946 0.0
H295 H 0.27042 0.74693 0.91762 0.0
H296 H 0.19997 0.69302 -0.00043 0.0
H297 H 0.22215 0.71657 0.97195 0.0
H298 H 0.28441 0.74839 0.00589 0.0
C299 C 0.31624 0.79404 0.93432 0.0
C300 C 0.27382 0.74724 0.93685 0.0
C301 C 0.3218 0.81339 0.92115 0.0
C302 C 0.21824 0.69619 0.00341 0.0
C303 C 0.23103 0.70959 0.98748 0.0
C304 C 0.28171 0.74752 0.98658 0.0
C305 C 0.2939 0.7843 0.9324 0.0
C306 C 0.28703 0.76464 0.94715 0.0
C307 C 0.25459 0.71479 0.9922 0.0
C308 C 0.26741 0.73079 0.97645 0.0
H309 H 0.26937 0.82077 0.89282 0.0
H310 H 0.25988 0.78732 0.91551 0.0
H311 H 0.3014 0.77755 0.98052 0.0
H312 H 0.26106 0.68611 0.0448 0.0
H313 H 0.28343 0.70914 0.01683 0.0
C314 C 0.28788 0.30593 0.51511 0.0
C315 C 0.2756 0.31596 0.5342 0.0
C316 C 0.27693 0.29029 0.5002 0.0
C317 C 0.22029 0.26801 0.4797 0.0
H318 H 0.2562 0.21368 0.46992 0.0
C319 C 0.18482 0.18834 0.42992 0.0
C320 C 0.20093 0.1778 0.41447 0.0
C321 C 0.19201 0.20599 0.44496 0.0
C322 C 0.246 0.22882 0.47226 0.0
H323 H 0.24183 0.31815 0.55194 0.0
H324 H 0.22267 0.29089 0.52567 0.0
H325 H 0.2724 0.24375 0.49425 0.0
H326 H 0.23691 0.17839 0.40182 0.0
H327 H 0.24911 0.20896 0.4274 0.0
H328 H 0.19397 0.253 0.45728 0.0
C329 C 0.24077 0.29519 0.5223 0.0
C330 C 0.25531 0.24605 0.4862 0.0
C331 C 0.25179 0.31078 0.53735 0.0
C332 C 0.22407 0.18576 0.41379 0.0
C333 C 0.23114 0.2033 0.42858 0.0
C334 C 0.21097 0.25072 0.46553 0.0
C335 C 0.25342 0.28438 0.50398 0.0
C336 C 0.24276 0.26597 0.48976 0.0
C337 C 0.2154 0.21336 0.4447 0.0
C338 C 0.22395 0.2311 0.46131 0.0
H339 H 0.3062 0.30962 0.51211 0.0
H340 H 0.28701 0.28247 0.48595 0.0
H341 H 0.21022 0.2832 0.48222 0.0
H342 H 0.16686 0.18265 0.4308 0.0
H343 H 0.17947 0.21344 0.4572 0.0
C344 C 0.77943 0.68598 0.08015 0.0
C345 C 0.80212 0.67692 0.07913 0.0
C346 C 0.77377 0.70526 0.06732 0.0
C347 C 0.78911 0.73708 0.01386 0.0
H348 H 0.74939 0.78227 0.04306 0.0
C349 C 0.75212 0.81073 0.95839 0.0
C350 C 0.72823 0.81527 0.96186 0.0
C351 C 0.76419 0.79675 0.97431 0.0
C352 C 0.76039 0.76976 0.03461 0.0
H353 H 0.83672 0.68121 0.06381 0.0
H354 H 0.82658 0.71503 0.04084 0.0
H355 H 0.76551 0.75231 0.06792 0.0
H356 H 0.69843 0.80916 0.98513 0.0
H357 H 0.71934 0.78452 0.01268 0.0
H358 H 0.78326 0.75396 0.98037 0.0
C359 C 0.8133 0.70705 0.0518 0.0
C360 C 0.7697 0.75267 0.04886 0.0
C361 C 0.8191 0.68776 0.06497 0.0
C362 C 0.71684 0.80606 0.98199 0.0
C363 C 0.7289 0.79203 -0.00212 0.0
C364 C 0.77971 0.75414 -0.00044 0.0
C365 C 0.79056 0.71598 0.05294 0.0
C366 C 0.78367 0.73584 0.03852 0.0
C367 C 0.75263 0.78692 0.99402 0.0
C368 C 0.76478 0.77038 0.00967 0.0
H369 H 0.7659 0.67818 0.09095 0.0
H370 H 0.75601 0.71151 0.06825 0.0
H371 H 0.79964 0.72422 0.00537 0.0
H372 H 0.76143 0.81747 0.94302 0.0
H373 H 0.78252 0.79341 0.97098 0.0
C374 C 0.7806 0.19121 0.48272 0.0
C375 C 0.77095 0.18382 0.46081 0.0
C376 C 0.76803 0.20579 0.49767 0.0
C377 C 0.72575 0.25051 0.49268 0.0
H378 H 0.72084 0.24657 0.56236 0.0
C379 C 0.71432 0.32601 0.55574 0.0
C380 C 0.69639 0.32499 0.57302 0.0
C381 C 0.71961 0.3074 0.54159 0.0
C382 C 0.72185 0.2477 0.54288 0.0
H383 H 0.74022 0.18522 0.43786 0.0
H384 H 0.71856 0.21081 0.46377 0.0
H385 H 0.7377 0.21524 0.53948 0.0
H386 H 0.66975 0.30385 0.58896 0.0
H387 H 0.67962 0.27076 0.56449 0.0
H388 H 0.71098 0.28334 0.49613 0.0
C389 C 0.73577 0.2053 0.46939 0.0
C390 C 0.73163 0.22992 0.52986 0.0
C391 C 0.74817 0.19056 0.45463 0.0
C392 C 0.68354 0.30508 0.57562 0.0
C393 C 0.68925 0.28619 0.5618 0.0
C394 C 0.7164 0.26839 0.5057 0.0
C395 C 0.74575 0.21341 0.49078 0.0
C396 C 0.73386 0.23129 0.50466 0.0
C397 C 0.70743 0.28723 0.54478 0.0
C398 C 0.71462 0.26725 0.53091 0.0
H399 H 0.79809 0.18628 0.48797 0.0
H400 H 0.77617 0.21194 0.51402 0.0
H401 H 0.72747 0.25208 0.47329 0.0
H402 H 0.72446 0.34118 0.55335 0.0
H403 H 0.73379 0.30854 0.52867 0.0
C404 C 0.78223 0.31608 0.90569 0.0
C405 C 0.80481 0.32529 0.90722 0.0
C406 C 0.77627 0.29707 0.91887 0.0
C407 C 0.79033 0.26688 0.97383 0.0
H408 H 0.75107 0.22092 0.94539 0.0
C409 C 0.75207 0.19482 0.03091 0.0
C410 C 0.72824 0.19024 0.0271 0.0
C411 C 0.76448 0.20838 0.01484 0.0
C412 C 0.76194 0.23365 0.95363 0.0
H413 H 0.83897 0.32152 0.9237 0.0
H414 H 0.82833 0.28819 0.94722 0.0
H415 H 0.76779 0.25008 0.91985 0.0
H416 H 0.6989 0.19586 0.0031 0.0
H417 H 0.7204 0.21978 0.97527 0.0
H418 H 0.78377 0.25101 0.00776 0.0
C419 C 0.81534 0.29583 0.93563 0.0
C420 C 0.77158 0.25029 0.93899 0.0
C421 C 0.82143 0.31483 0.92214 0.0
C422 C 0.71725 0.19901 0.00652 0.0
C423 C 0.72964 0.21262 0.99047 0.0
C424 C 0.7806 0.25027 0.98852 0.0
C425 C 0.79266 0.2868 0.93409 0.0
C426 C 0.78539 0.26739 0.94903 0.0
C427 C 0.75332 0.21773 0.99463 0.0
C428 C 0.76583 0.23377 0.97866 0.0
H429 H 0.76899 0.32359 0.8943 0.0
H430 H 0.75857 0.29073 0.91758 0.0
H431 H 0.80072 0.27996 0.9821 0.0
H432 H 0.76107 0.1884 0.04663 0.0
H433 H 0.78275 0.21176 0.01842 0.0
C434 C 0.78489 0.80094 0.50879 0.0
C435 C 0.77417 0.80968 0.52954 0.0
C436 C 0.77228 0.78741 0.49287 0.0
C437 C 0.72129 0.74983 0.4913 0.0
H438 H 0.73344 0.75043 0.4225 0.0
C439 C 0.68076 0.68517 0.4246 0.0
C440 C 0.69758 0.67486 0.4098 0.0
C441 C 0.6866 0.7042 0.43819 0.0
C442 C 0.72981 0.75013 0.44168 0.0
H443 H 0.7416 0.81149 0.54955 0.0
H444 H 0.71952 0.78823 0.52154 0.0
H445 H 0.75024 0.77955 0.44804 0.0
H446 H 0.7335 0.67684 0.39718 0.0
H447 H 0.74346 0.70974 0.42058 0.0
H448 H 0.70128 0.72006 0.4849 0.0
C449 C 0.73776 0.7916 0.51773 0.0
C450 C 0.7395 0.76673 0.45632 0.0
C451 C 0.75039 0.80511 0.53368 0.0
C452 C 0.72011 0.68423 0.40849 0.0
C453 C 0.7258 0.70326 0.42173 0.0
C454 C 0.7115 0.73325 0.47661 0.0
C455 C 0.74864 0.78234 0.49731 0.0
C456 C 0.73591 0.76643 0.48139 0.0
C457 C 0.70921 0.71341 0.43682 0.0
C458 C 0.71623 0.73288 0.45176 0.0
H459 H 0.8032 0.80408 0.50512 0.0
H460 H 0.78133 0.78029 0.4775 0.0
H461 H 0.71832 0.74897 0.51058 0.0
H462 H 0.66326 0.67835 0.42599 0.0
H463 H 0.67347 0.71173 0.44971 0.0
C464 C 0.34004 0.06066 0.05797 0.0
C465 C 0.31818 0.06821 0.06632 0.0
C466 C 0.3414 0.04451 0.03972 0.0
C467 C 0.30697 0.01928 0.99037 0.0
H468 H 0.3493 0.96894 -0.00267 0.0
C469 C 0.29771 0.94042 0.93226 0.0
C470 C 0.31815 0.93074 0.92278 0.0
C471 C 0.29902 0.95737 0.94952 0.0
C472 C 0.3376 0.98304 -0.00502 0.0
H473 H 0.28063 0.06474 0.06183 0.0
H474 H 0.28306 0.03665 0.03025 0.0
H475 H 0.34943 0.99881 0.02749 0.0
H476 H 0.35607 0.93103 0.92451 0.0
H477 H 0.35832 0.96079 0.95466 0.0
H478 H 0.29498 0.00352 0.95803 0.0
C479 C 0.29915 0.04335 0.03761 0.0
C480 C 0.33769 1.00015 0.01223 0.0
C481 C 0.29777 0.05939 0.05585 0.0
C482 C 0.33997 0.93811 0.93141 0.0
C483 C 0.34127 0.95511 0.94875 0.0
C484 C 0.30689 0.00223 0.97316 0.0
C485 C 0.32095 0.03568 0.02937 0.0
C486 C 0.32213 0.01828 0.01028 0.0
C487 C 0.3208 0.96511 0.95775 0.0
C488 C 0.32195 0.98375 0.97545 0.0
H489 H 0.35612 0.06708 0.06562 0.0
H490 H 0.35846 0.03905 0.0336 0.0
H491 H 0.29509 0.03325 0.9881 0.0
H492 H 0.28059 0.9351 0.92619 0.0
H493 H 0.28291 0.96441 0.95645 0.0
C494 C 0.20408 0.9425 0.55543 0.0
C495 C 0.18377 0.93352 0.56597 0.0
C496 C 0.20251 0.9584 0.53707 0.0
C497 C 0.16388 0.00129 0.5117 0.0
H498 H 0.20578 0.99721 0.45685 0.0
C499 C 0.16169 0.06411 0.43173 0.0
C500 C 0.18354 0.07116 0.42288 0.0
C501 C 0.16024 0.04674 0.44862 0.0
C502 C 0.1941 0.9987 0.47215 0.0
H503 H 0.14582 0.93427 0.56535 0.0
H504 H 0.14315 0.96218 0.5332 0.0
H505 H 0.20581 0.96766 0.48713 0.0
H506 H 0.22102 0.06572 0.42527 0.0
H507 H 0.21847 0.03582 0.45481 0.0
H508 H 0.15247 0.03257 0.49689 0.0
C509 C 0.16027 0.95688 0.53931 0.0
C510 C 0.19409 0.98175 0.48946 0.0
C511 C 0.16182 0.94082 0.55763 0.0
C512 C 0.20387 0.06066 0.43153 0.0
C513 C 0.20242 0.04337 0.44838 0.0
C514 C 0.16393 0.01832 0.49437 0.0
C515 C 0.18062 0.9658 0.52884 0.0
C516 C 0.17925 0.98302 0.50961 0.0
C517 C 0.1806 0.03607 0.45698 0.0
C518 C 0.17931 0.01738 0.47461 0.0
H519 H 0.22128 0.9373 0.56137 0.0
H520 H 0.21851 0.96519 0.52959 0.0
H521 H 0.15238 0.00279 0.52714 0.0
H522 H 0.14567 0.0718 0.42543 0.0
H523 H 0.14316 0.04139 0.45479 0.0
C524 C 0.73839 0.92821 0.95772 0.0
C525 C 0.71828 0.91591 0.95157 0.0
C526 C 0.73651 0.94974 0.96728 0.0
C527 C 0.69735 0.98818 -0.00075 0.0
H528 H 0.7393 0.0334 0.97374 0.0
C529 C 0.69599 0.08076 0.03167 0.0
C530 C 0.71802 0.09062 0.03563 0.0
C531 C 0.69418 0.05992 0.02023 0.0
C532 C 0.72759 0.02095 0.9812 0.0
H533 H 0.68033 0.91653 0.95129 0.0
H534 H 0.67711 0.95428 0.96823 0.0
H535 H 0.73949 0.99589 0.95652 0.0
H536 H 0.75539 0.08616 0.03058 0.0
H537 H 0.75222 0.04995 0.01104 0.0
H538 H 0.68581 0.01318 0.02432 0.0
C539 C 0.69431 0.94711 0.96554 0.0
C540 C 0.72768 0.99947 0.97131 0.0
C541 C 0.69618 0.92554 0.95578 0.0
C542 C 0.73812 0.07919 0.02777 0.0
C543 C 0.7363 0.05843 0.01639 0.0
C544 C 0.69733 0.00972 0.00926 0.0
C545 C 0.71449 0.95953 0.97106 0.0
C546 C 0.71289 0.98274 0.98049 0.0
C547 C 0.71434 0.04852 0.01246 0.0
C548 C 0.71277 0.02622 0.00062 0.0
H549 H 0.7557 0.92136 0.95484 0.0
H550 H 0.75237 0.95874 0.97175 0.0
H551 H 0.68583 0.97558 0.00675 0.0
H552 H 0.68013 0.08909 0.03747 0.0
H553 H 0.67699 0.05282 0.0173 0.0
C554 C 0.80532 0.07375 0.45537 0.0
C555 C 0.78311 0.08288 0.45059 0.0
C556 C 0.80746 0.05222 0.46519 0.0
C557 C 0.77516 0.99916 0.47048 0.0
H558 H 0.81604 0.98677 0.52465 0.0
C559 C 0.76479 0.92013 0.52802 0.0
C560 C 0.78489 0.90909 0.53649 0.0
C561 C 0.76654 0.94072 0.51628 0.0
C562 C 0.80483 0.98987 0.50927 0.0
H563 H 0.74576 0.0766 0.45279 0.0
H564 H 0.74956 0.03931 0.46982 0.0
H565 H 0.81566 0.02419 0.50667 0.0
H566 H 0.82271 0.91111 0.53903 0.0
H567 H 0.82574 0.94711 0.51826 0.0
H568 H 0.76417 0.96503 0.47305 0.0
C569 C 0.76531 0.04865 0.46576 0.0
C570 C 0.80459 0.0113 0.49902 0.0
C571 C 0.76316 0.07013 0.45614 0.0
C572 C 0.80685 0.91914 0.53276 0.0
C573 C 0.8086 0.93983 0.52097 0.0
C574 C 0.77546 0.97778 0.48063 0.0
C575 C 0.78745 0.03937 0.47018 0.0
C576 C 0.78938 0.01626 0.47984 0.0
C577 C 0.78844 0.95084 0.51261 0.0
C578 C 0.78992 0.97299 0.50047 0.0
H579 H 0.82107 0.08311 0.45135 0.0
H580 H 0.82476 0.04546 0.46837 0.0
H581 H 0.76362 0.00236 0.45537 0.0
H582 H 0.74756 0.91299 0.53062 0.0
H583 H 0.75062 0.94891 0.51046 0.0
C584 C 0.7989 0.44064 0.93224 0.0
C585 C 0.81952 0.43167 0.92236 0.0
C586 C 0.79991 0.45674 0.95045 0.0
C587 C 0.83798 0.49988 0.97659 0.0
H588 H 0.79443 0.49651 0.0301 0.0
C589 C 0.83925 0.56217 0.05709 0.0
C590 C 0.81735 0.56952 0.06552 0.0
C591 C 0.84073 0.54504 0.03992 0.0
C592 C 0.80656 0.49781 0.01516 0.0
H593 H 0.85743 0.43261 0.92405 0.0
H594 H 0.85913 0.46078 0.95597 0.0
H595 H 0.79493 0.46683 -3e-05 0.0
H596 H 0.77983 0.56494 0.06199 0.0
H597 H 0.78245 0.53543 0.03197 0.0
H598 H 0.84939 0.53106 0.99167 0.0
C599 C 0.8422 0.45538 0.94943 0.0
C600 C 0.80687 0.48078 -0.00207 0.0
C601 C 0.8412 0.43915 0.93124 0.0
C602 C 0.797 0.55963 0.05607 0.0
C603 C 0.7985 0.54257 0.03895 0.0
C604 C 0.83764 0.51698 0.99384 0.0
C605 C 0.82154 0.46433 0.95921 0.0
C606 C 0.82236 0.48176 0.97829 0.0
C607 C 0.82036 0.5349 0.03085 0.0
C608 C 0.8217 0.51627 0.01314 0.0
H609 H 0.78189 0.43532 0.92586 0.0
H610 H 0.78368 0.46354 0.95739 0.0
H611 H 0.84997 0.50119 0.96153 0.0
H612 H 0.85528 0.56939 0.06399 0.0
H613 H 0.85784 0.5394 0.03414 0.0
C614 C 0.6598 0.43746 0.55783 0.0
C615 C 0.68202 0.42971 0.56485 0.0
C616 C 0.65761 0.45362 0.53965 0.0
C617 C 0.68966 0.47758 0.48801 0.0
H618 H 0.65032 0.52979 0.49725 0.0
C619 C 0.70162 0.55666 0.43124 0.0
C620 C 0.68158 0.56761 0.42251 0.0
C621 C 0.69968 0.53944 0.4481 0.0
C622 C 0.66112 0.51516 0.49427 0.0
H623 H 0.71931 0.43294 0.55819 0.0
H624 H 0.71543 0.46094 0.52679 0.0
H625 H 0.65015 0.49982 0.52738 0.0
H626 H 0.64374 0.56927 0.42514 0.0
H627 H 0.64041 0.53903 0.45466 0.0
H628 H 0.70091 0.4929 0.45516 0.0
C629 C 0.6997 0.45441 0.53511 0.0
C630 C 0.66101 0.49801 0.51149 0.0
C631 C 0.70191 0.43843 0.55327 0.0
C632 C 0.65954 0.56119 0.43146 0.0
C633 C 0.65761 0.54392 0.44842 0.0
C634 C 0.68977 0.49465 0.47085 0.0
C635 C 0.67756 0.46216 0.52804 0.0
C636 C 0.67567 0.47928 0.50876 0.0
C637 C 0.67767 0.53269 0.45668 0.0
C638 C 0.67589 0.51384 0.47403 0.0
H639 H 0.64412 0.43112 0.5664 0.0
H640 H 0.64031 0.45924 0.53448 0.0
H641 H 0.70078 0.46313 0.48516 0.0
H642 H 0.71889 0.56121 0.42491 0.0
H643 H 0.7155 0.53141 0.45448 0.0
C644 C 0.19816 0.5741 0.04065 0.0
C645 C 0.21674 0.58851 0.03485 0.0
C646 C 0.19715 0.55251 0.03086 0.0
C647 C 0.23553 0.51023 0.0012 0.0
H648 H 0.17681 0.47995 0.9889 0.0
C649 C 0.19951 0.42494 0.95101 0.0
C650 C 0.2181 0.41058 0.95689 0.0
C651 C 0.19812 0.44634 0.96123 0.0
C652 C 0.19339 0.48821 0.99196 0.0
H653 H 0.24807 0.59216 0.01324 0.0
H654 H 0.24573 0.55513 -0.0048 0.0
H655 H 0.17657 0.51847 0.00318 0.0
H656 H 0.24901 0.40674 0.97908 0.0
H657 H 0.24598 0.44342 -0.00215 0.0
H658 H 0.25241 0.4806 0.98875 0.0
C659 C 0.23245 0.55994 0.00813 0.0
C660 C 0.19325 0.51027 0.00053 0.0
C661 C 0.23372 0.58129 0.01831 0.0
C662 C 0.23467 0.4176 0.97395 0.0
C663 C 0.233 0.43875 0.98455 0.0
C664 C 0.23567 0.48839 0.99226 0.0
C665 C 0.21447 0.54502 0.01468 0.0
C666 C 0.21434 0.52159 0.00528 0.0
C667 C 0.21505 0.45366 0.97791 0.0
C668 C 0.21463 0.47698 0.98762 0.0
H669 H 0.18489 0.57919 0.05348 0.0
H670 H 0.18317 0.5415 0.0366 0.0
H671 H 0.25216 0.5181 0.00507 0.0
H672 H 0.18656 0.42 0.93778 0.0
H673 H 0.18419 0.45735 0.95539 0.0
C674 C 0.26227 0.57718 0.45588 0.0
C675 C 0.28244 0.5893 0.44956 0.0
C676 C 0.26405 0.55588 0.46603 0.0
C677 C 0.30304 0.51841 0.49951 0.0
H678 H 0.26133 0.47234 0.47539 0.0
C679 C 0.30483 0.42689 0.53504 0.0
C680 C 0.28288 0.41693 0.53914 0.0
C681 C 0.30651 0.44741 0.52293 0.0
C682 C 0.27297 0.48505 0.48249 0.0
H683 H 0.3204 0.58859 0.44947 0.0
H684 H 0.32344 0.55127 0.46744 0.0
H685 H 0.26107 0.50934 0.45693 0.0
H686 H 0.24551 0.42086 0.53364 0.0
H687 H 0.24845 0.45654 0.51297 0.0
H688 H 0.31456 0.49421 0.52545 0.0
C689 C 0.30626 0.55839 0.46445 0.0
C690 C 0.27284 0.50623 0.47187 0.0
C691 C 0.30449 0.57971 0.45409 0.0
C692 C 0.26272 0.42792 0.53074 0.0
C693 C 0.26441 0.44837 0.51871 0.0
C694 C 0.30309 0.49719 0.51025 0.0
C695 C 0.28603 0.54616 0.47025 0.0
C696 C 0.28757 0.52326 0.48052 0.0
C697 C 0.2863 0.45839 0.51463 0.0
C698 C 0.28775 0.48038 0.50211 0.0
H699 H 0.24499 0.58401 0.45273 0.0
H700 H 0.24815 0.54701 0.47068 0.0
H701 H 0.31451 0.53125 0.50662 0.0
H702 H 0.32072 0.41889 0.54123 0.0
H703 H 0.32366 0.45458 0.5199 0.0
C704 C 0.60431 0.16898 0.11032 0.0
C705 C 0.61797 0.1535 0.09743 0.0
C706 C 0.58005 0.16663 0.11149 0.0
C707 C 0.53176 0.12616 0.10369 0.0
H708 H 0.49443 0.18008 0.09746 0.0
C709 C 0.43042 0.12422 0.1 0.0
C710 C 0.41887 0.14031 0.1142 0.0
C711 C 0.45459 0.12554 0.09625 0.0
C712 C 0.50459 0.16488 0.09941 0.0
H713 H 0.61684 0.12305 0.0761 0.0
H714 H 0.57435 0.119 0.07806 0.0
H715 H 0.53685 0.18246 0.09475 0.0
H716 H 0.42365 0.17063 0.13522 0.0
H717 H 0.46564 0.17287 0.12877 0.0
H718 H 0.4994 0.10862 0.10852 0.0
C719 C 0.58248 0.1329 0.08739 0.0
C720 C 0.52892 0.16624 0.0979 0.0
C721 C 0.60683 0.13526 0.0862 0.0
C722 C 0.43195 0.15797 0.12415 0.0
C723 C 0.45604 0.15933 0.12034 0.0
C724 C 0.50737 0.12479 0.1052 0.0
C725 C 0.56879 0.14874 0.09979 0.0
C726 C 0.54284 0.14695 0.10033 0.0
C727 C 0.4677 0.14305 0.10651 0.0
C728 C 0.49352 0.14419 0.10337 0.0
H729 H 0.6123 0.18314 0.11932 0.0
H730 H 0.5701 0.17887 0.12162 0.0
H731 H 0.54197 0.11101 0.10584 0.0
H732 H 0.42085 0.1104 0.09206 0.0
H733 H 0.46301 0.11287 0.08528 0.0
C734 C 0.89634 0.8647 0.58726 0.0
C735 C 0.88528 0.84605 0.59777 0.0
C736 C 0.92064 0.86727 0.58882 0.0
C737 C 0.97212 0.84844 0.62386 0.0
H738 H 0.00737 0.86559 0.56701 0.0
C739 C 0.07199 0.83977 0.62079 0.0
C740 C 0.08483 0.85755 0.61078 0.0
C741 C 0.04772 0.83885 0.61824 0.0
C742 C 0.99776 0.86102 0.58311 0.0
H743 H 0.89108 0.81567 0.61841 0.0
H744 H 0.93324 0.82012 0.62103 0.0
H745 H 0.96471 0.86396 0.56517 0.0
H746 H 0.08228 0.88795 0.5895 0.0
H747 H 0.03981 0.88641 0.58518 0.0
H748 H 0.00503 0.84543 0.64182 0.0
C749 C 0.92319 0.83288 0.61177 0.0
C750 C 0.97331 0.86012 0.58207 0.0
C751 C 0.89899 0.83027 0.61015 0.0
C752 C 0.07291 0.874 0.59743 0.0
C753 C 0.04857 0.87309 0.59489 0.0
C754 C 0.99649 0.84935 0.62491 0.0
C755 C 0.93435 0.85133 0.60103 0.0
C756 C 0.96023 0.85359 0.60238 0.0
C757 C 0.03564 0.85571 0.60566 0.0
C758 C 0.00964 0.8554 0.60449 0.0
H759 H 0.88628 0.87716 0.57758 0.0
H760 H 0.92869 0.88179 0.58056 0.0
H761 H 0.96256 0.84376 0.63996 0.0
H762 H 0.08061 0.82671 0.63103 0.0
H763 H 0.03837 0.82496 0.62631 0.0
C764 C 0.43338 0.84329 0.86258 0.0
C765 C 0.41975 0.85979 0.87395 0.0
C766 C 0.45753 0.84247 0.86614 0.0
C767 C 0.50772 0.87758 0.88357 0.0
H768 H 0.53929 0.82038 0.88944 0.0
C769 C 0.60759 0.86909 0.90152 0.0
C770 C 0.61932 0.85187 0.88913 0.0
C771 C 0.58318 0.87082 0.90041 0.0
C772 C 0.53078 0.83649 0.88757 0.0
H773 H 0.42082 0.88817 0.89838 0.0
H774 H 0.4631 0.88664 0.90472 0.0
H775 H 0.4968 0.82153 0.88715 0.0
H776 H 0.61464 0.82349 0.86516 0.0
H777 H 0.57233 0.8267 0.86296 0.0
H778 H 0.54181 0.8925 0.88379 0.0
C779 C 0.45505 0.87447 0.89283 0.0
C780 C 0.50641 0.83715 0.88631 0.0
C781 C 0.43082 0.87524 0.88934 0.0
C782 C 0.60619 0.83685 0.87508 0.0
C783 C 0.58187 0.83859 0.87396 0.0
C784 C 0.53217 0.87692 0.88482 0.0
C785 C 0.46871 0.85816 0.88114 0.0
C786 C 0.49458 0.85767 0.88401 0.0
C787 C 0.57001 0.85537 0.8869 0.0
C788 C 0.544 0.85634 0.88653 0.0
H789 H 0.42546 0.83115 0.85058 0.0
H790 H 0.46754 0.82986 0.85662 0.0
H791 H 0.49917 0.89365 0.88155 0.0
H792 H 0.61718 0.88092 0.91254 0.0
H793 H 0.57459 0.88388 0.91068 0.0
C794 C 0.06296 0.13408 0.3579 0.0
C795 C 0.08003 0.13262 0.37607 0.0
C796 C 0.03922 0.13414 0.36371 0.0
C797 C 0.99745 0.11833 0.4116 0.0
H798 H 0.95553 0.15708 0.37581 0.0
C799 C 0.89958 0.13073 0.43629 0.0
C800 C 0.88359 0.13228 0.41709 0.0
C801 C 0.92365 0.12992 0.43184 0.0
C802 C 0.96695 0.14596 0.38578 0.0
H803 H 0.08548 0.13019 0.41469 0.0
H804 H 0.04386 0.13057 0.42491 0.0
H805 H 0.99731 0.15822 0.36756 0.0
H806 H 0.88037 0.13339 0.3781 0.0
H807 H 0.92229 0.13181 0.37038 0.0
H808 H 0.96695 0.10617 0.42988 0.0
C809 C 0.04893 0.1314 0.4061 0.0
C810 C 0.99093 0.14663 0.38108 0.0
C811 C 0.07277 0.13133 0.40027 0.0
C812 C 0.89218 0.13232 0.39333 0.0
C813 C 0.91623 0.13157 0.3889 0.0
C814 C 0.97341 0.1177 0.41636 0.0
C815 C 0.03187 0.13279 0.38786 0.0
C816 C 0.00647 0.1327 0.39377 0.0
C817 C 0.93227 0.13071 0.40811 0.0
C818 C 0.95786 0.13139 0.40335 0.0
H819 H 0.06789 0.13498 0.33905 0.0
H820 H 0.0266 0.13487 0.34917 0.0
H821 H 0.00889 0.10719 0.42151 0.0
H822 H 0.89356 0.13065 0.45481 0.0
H823 H 0.93553 0.1294 0.44705 0.0
C824 C 0.10562 0.63526 0.08397 0.0
C825 C 0.11704 0.65356 0.09476 0.0
C826 C 0.08132 0.63286 0.08589 0.0
C827 C 0.03058 0.65142 0.12227 0.0
H828 H 0.99432 0.63567 0.06564 0.0
C829 C 0.93078 0.66134 0.12074 0.0
C830 C 0.91756 0.64392 0.11051 0.0
C831 C 0.95504 0.66194 0.11797 0.0
C832 C 0.00421 0.63985 0.08168 0.0
H833 H 0.11187 0.68353 0.11628 0.0
H834 H 0.06972 0.67941 0.11952 0.0
H835 H 0.03696 0.63697 0.06313 0.0
H836 H 0.91945 0.61381 0.08868 0.0
H837 H 0.96191 0.61481 0.08395 0.0
H838 H 0.99796 0.6544 0.14083 0.0
C839 C 0.07948 0.66677 0.10976 0.0
C840 C 0.02865 0.64056 0.08025 0.0
C841 C 0.10368 0.6692 0.10778 0.0
C842 C 0.92911 0.62748 0.09678 0.0
C843 C 0.95345 0.62808 0.09401 0.0
C844 C 0.00622 0.65071 0.1237 0.0
C845 C 0.06797 0.64865 0.09875 0.0
C846 C 0.0421 0.64659 0.10048 0.0
C847 C 0.96673 0.64513 0.10493 0.0
C848 C 0.99271 0.64516 0.10337 0.0
H849 H 0.1154 0.62291 0.0738 0.0
H850 H 0.07301 0.61859 0.07741 0.0
H851 H 0.04042 0.65571 0.13831 0.0
H852 H 0.92245 0.67437 0.13127 0.0
H853 H 0.96468 0.67557 0.12618 0.0
C854 C 0.57339 0.36509 0.60146 0.0
C855 C 0.58269 0.38653 0.60569 0.0
C856 C 0.54927 0.36203 0.59908 0.0
C857 C 0.4937 0.39165 0.58674 0.0
H858 H 0.46637 0.34091 0.62009 0.0
C859 C 0.39336 0.37842 0.59466 0.0
C860 C 0.38527 0.35638 0.59143 0.0
C861 C 0.41736 0.3828 0.59657 0.0
C862 C 0.47372 0.35504 0.61046 0.0
H863 H 0.57393 0.42167 0.60999 0.0
H864 H 0.53184 0.41628 0.60592 0.0
H865 H 0.50838 0.34709 0.62211 0.0
H866 H 0.39608 0.32171 0.58763 0.0
H867 H 0.43766 0.32936 0.59071 0.0
H868 H 0.45895 0.39952 0.57504 0.0
C869 C 0.54322 0.40185 0.60433 0.0
C870 C 0.49783 0.35856 0.6116 0.0
C871 C 0.56736 0.40492 0.60677 0.0
C872 C 0.40166 0.33887 0.59021 0.0
C873 C 0.42555 0.34324 0.59213 0.0
C874 C 0.46953 0.3881 0.58557 0.0
C875 C 0.53387 0.38032 0.6008 0.0
C876 C 0.50815 0.37681 0.59963 0.0
C877 C 0.43373 0.36524 0.59534 0.0
C878 C 0.45928 0.36965 0.59729 0.0
H879 H 0.58469 0.35057 0.60041 0.0
H880 H 0.54267 0.34527 0.59595 0.0
H881 H 0.50112 0.40576 0.57715 0.0
H882 H 0.38119 0.39228 0.59567 0.0
H883 H 0.42307 0.39992 0.59927 0.0
C884 C 0.10828 0.36431 0.90639 0.0
C885 C 0.11935 0.34522 0.89688 0.0
C886 C 0.08391 0.36642 0.90547 0.0
C887 C 0.03031 0.33216 0.89922 0.0
H888 H 1.00058 0.38857 0.88314 0.0
C889 C 0.93319 0.33838 0.87267 0.0
C890 C 0.92025 0.35692 0.88077 0.0
C891 C 0.95726 0.33716 0.87671 0.0
C892 C 0.00861 0.37277 0.88801 0.0
H893 H 0.11352 0.3137 0.87832 0.0
H894 H 0.07125 0.31753 0.87644 0.0
H895 H 0.04315 0.38647 0.88555 0.0
H896 H 0.92238 0.3885 0.90003 0.0
H897 H 0.96447 0.38628 0.90721 0.0
H898 H 0.99584 0.31839 0.90141 0.0
C899 C 0.08129 0.33067 0.88505 0.0
C900 C 0.03301 0.37157 0.88936 0.0
C901 C 0.10558 0.32856 0.88598 0.0
C902 C 0.93185 0.37399 0.89352 0.0
C903 C 0.95598 0.37281 0.89749 0.0
C904 C 0.00596 0.33336 0.89785 0.0
C905 C 0.07011 0.34948 0.89504 0.0
C906 C 0.04416 0.35117 0.89468 0.0
C907 C 0.969 0.35447 0.88892 0.0
C908 C 0.99482 0.35361 0.89195 0.0
H909 H 0.11839 0.37743 0.91495 0.0
H910 H 0.07584 0.38107 0.91346 0.0
H911 H 0.0383 0.3163 0.90388 0.0
H912 H 0.92483 0.32495 0.86277 0.0
H913 H 0.96679 0.32293 0.86963 0.0
C914 C 0.57146 0.62631 0.39449 0.0
C915 C 0.57906 0.62682 0.37037 0.0
C916 C 0.54756 0.62682 0.39996 0.0
C917 C 0.49025 0.64247 0.37393 0.0
H918 H 0.46503 0.60377 0.42372 0.0
C919 C 0.39102 0.63241 0.38745 0.0
C920 C 0.38277 0.63298 0.41133 0.0
C921 C 0.41495 0.63054 0.38269 0.0
C922 C 0.47183 0.61482 0.40991 0.0
H923 H 0.56748 0.62825 0.33312 0.0
H924 H 0.52602 0.62896 0.34264 0.0
H925 H 0.50696 0.60343 0.41537 0.0
H926 H 0.39317 0.63126 0.44893 0.0
H927 H 0.43488 0.62814 0.44061 0.0
H928 H 0.45522 0.6539 0.36845 0.0
C929 C 0.53845 0.62846 0.35736 0.0
C930 C 0.49587 0.61466 0.40516 0.0
C931 C 0.56227 0.62793 0.3519 0.0
C932 C 0.39892 0.63088 0.43031 0.0
C933 C 0.42286 0.62899 0.42555 0.0
C934 C 0.46626 0.64262 0.37866 0.0
C935 C 0.53078 0.62791 0.38144 0.0
C936 C 0.50534 0.62842 0.38703 0.0
C937 C 0.43119 0.62917 0.40169 0.0
C938 C 0.45673 0.62874 0.39664 0.0
H939 H 0.58395 0.62547 0.40914 0.0
H940 H 0.54223 0.62661 0.41871 0.0
H941 H 0.49701 0.65358 0.36015 0.0
H942 H 0.37906 0.63387 0.37239 0.0
H943 H 0.42076 0.63032 0.36409 0.0
C944 C 0.28746 0.0719 0.16222 0.0
C945 C 0.30954 0.07911 0.16998 0.0
C946 C 0.27155 0.06286 0.17863 0.0
C947 C 0.26334 0.0467 0.24342 0.0
H948 H 0.20533 0.07949 0.23549 0.0
C949 C 0.21231 0.0848 0.32115 0.0
C950 C 0.18808 0.0881 0.31946 0.0
C951 C 0.22454 0.0742 0.30266 0.0
C952 C 0.22107 0.06964 0.23782 0.0
H953 H 0.3333 0.08076 0.20026 0.0
H954 H 0.30533 0.06571 0.22928 0.0
H955 H 0.2327 0.0775 0.20233 0.0
H956 H 0.1573 0.08123 0.2979 0.0
H957 H 0.17879 0.06278 0.26524 0.0
H958 H 0.25211 0.0402 0.27964 0.0
C959 C 0.30027 0.06657 0.21048 0.0
C960 C 0.23688 0.06847 0.21872 0.0
C961 C 0.31632 0.07528 0.19391 0.0
C962 C 0.17603 0.07909 0.29962 0.0
C963 C 0.18833 0.06859 0.28091 0.0
C964 C 0.2475 0.04793 0.26261 0.0
C965 C 0.2773 0.06128 0.20323 0.0
C966 C 0.25866 0.05782 0.22159 0.0
C967 C 0.21284 0.0667 0.28191 0.0
C968 C 0.22666 0.06027 0.26032 0.0
H969 H 0.28211 0.07412 0.14364 0.0
H970 H 0.25428 0.05833 0.17228 0.0
H971 H 0.27974 0.03797 0.24608 0.0
H972 H 0.2221 0.09096 0.33637 0.0
H973 H 0.24341 0.07321 0.304 0.0
C974 C 0.31688 0.92489 0.79671 0.0
C975 C 0.31007 0.92021 0.82046 0.0
C976 C 0.30102 0.93469 0.78066 0.0
C977 C 0.23763 0.93483 0.77252 0.0
H978 H 0.2534 0.96612 0.71348 0.0
C979 C 0.17657 0.92872 0.6918 0.0
C980 C 0.18849 0.9205 0.67149 0.0
C981 C 0.18898 0.9386 0.71079 0.0
C982 C 0.24864 0.95755 0.72999 0.0
H983 H 0.28284 0.92472 0.84713 0.0
H984 H 0.25533 0.9423 0.81942 0.0
H985 H 0.28121 0.96575 0.74696 0.0
H986 H 0.22226 0.91879 0.65388 0.0
H987 H 0.24383 0.93535 0.68682 0.0
H988 H 0.20578 0.92549 0.75527 0.0
C989 C 0.27247 0.93764 0.81278 0.0
C990 C 0.26459 0.95729 0.74913 0.0
C991 C 0.28818 0.92754 0.82865 0.0
C992 C 0.21263 0.92427 0.66953 0.0
C993 C 0.22499 0.9342 0.68835 0.0
C994 C 0.22174 0.93511 0.75347 0.0
C995 C 0.27822 0.94022 0.78828 0.0
C996 C 0.25967 0.9451 0.77022 0.0
C997 C 0.21349 0.94059 0.70966 0.0
C998 C 0.22749 0.94559 0.73158 0.0
H999 H 0.33374 0.91937 0.79004 0.0
H1000 H 0.30606 0.93629 0.76191 0.0
H1001 H 0.23327 0.92502 0.78832 0.0
H1002 H 0.1579 0.92623 0.6937 0.0
H1003 H 0.17956 0.94365 0.72685 0.0
C1004 C 0.71619 0.87938 0.82762 0.0
C1005 C 0.73392 0.87936 0.84519 0.0
C1006 C 0.72148 0.88419 0.80351 0.0
C1007 C 0.77085 0.87952 0.762 0.0
H1008 H 0.73032 0.91085 0.71728 0.0
C1009 C 0.79134 0.88016 0.66059 0.0
C1010 C 0.77222 0.87537 0.64552 0.0
C1011 C 0.78778 0.88595 0.68477 0.0
C1012 C 0.74179 0.90199 0.72954 0.0
H1013 H 0.77075 0.88611 0.85149 0.0
H1014 H 0.77982 0.89458 0.80963 0.0
H1015 H 0.72139 0.91136 0.76042 0.0
H1016 H 0.73429 0.87409 0.64382 0.0
H1017 H 0.72819 0.88359 0.68584 0.0
H1018 H 0.79069 0.86929 0.73132 0.0
C1019 C 0.76196 0.89042 0.81437 0.0
C1020 C 0.73667 0.90231 0.75422 0.0
C1021 C 0.75671 0.8856 0.83838 0.0
C1022 C 0.74947 0.87756 0.65488 0.0
C1023 C 0.74593 0.88322 0.67903 0.0
C1024 C 0.77587 0.87908 0.73739 0.0
C1025 C 0.74458 0.88911 0.79656 0.0
C1026 C 0.75096 0.89078 0.77066 0.0
C1027 C 0.76504 0.88699 0.69443 0.0
C1028 C 0.76119 0.88995 0.72078 0.0
H1029 H 0.69845 0.8747 0.83225 0.0
H1030 H 0.70773 0.88294 0.79016 0.0
H1031 H 0.78201 0.87016 0.77415 0.0
H1032 H 0.80909 0.87885 0.65393 0.0
H1033 H 0.80288 0.88915 0.69604 0.0
C1034 C 0.7863 0.12105 0.32682 0.0
C1035 C 0.76837 0.12043 0.34417 0.0
C1036 C 0.78137 0.11664 0.30254 0.0
C1037 C 0.73239 0.1213 0.26055 0.0
H1038 H 0.77378 0.09122 0.21565 0.0
C1039 C 0.71223 0.12082 0.15904 0.0
C1040 C 0.73126 0.12589 0.14395 0.0
C1041 C 0.71588 0.11516 0.18324 0.0
C1042 C 0.76207 0.09975 0.22796 0.0
H1043 H 0.7316 0.11295 0.34985 0.0
H1044 H 0.72317 0.10518 0.3077 0.0
H1045 H 0.78242 0.0903 0.25883 0.0
H1046 H 0.76916 0.12794 0.14229 0.0
H1047 H 0.7754 0.11866 0.18436 0.0
H1048 H 0.71255 0.13157 0.22989 0.0
C1049 C 0.7409 0.10953 0.31275 0.0
C1050 C 0.76703 0.09918 0.25267 0.0
C1051 C 0.74578 0.11394 0.33694 0.0
C1052 C 0.75404 0.12421 0.15336 0.0
C1053 C 0.75766 0.11869 0.17752 0.0
C1054 C 0.72752 0.12198 0.23591 0.0
C1055 C 0.75845 0.1115 0.29518 0.0
C1056 C 0.75239 0.11022 0.26919 0.0
C1057 C 0.73862 0.11455 0.19291 0.0
C1058 C 0.74249 0.11152 0.21925 0.0
H1059 H 0.80389 0.12592 0.33177 0.0
H1060 H 0.79526 0.11838 0.28938 0.0
H1061 H 0.72096 0.13029 0.27277 0.0
H1062 H 0.69446 0.12174 0.15234 0.0
H1063 H 0.70083 0.11168 0.19449 0.0
C1064 C 0.71244 0.5733 0.3279 0.0
C1065 C 0.69061 0.58125 0.32024 0.0
C1066 C 0.72781 0.56346 0.31147 0.0
C1067 C 0.73457 0.54603 0.24685 0.0
H1068 H 0.79443 0.57581 0.25387 0.0
C1069 C 0.78685 0.58135 0.16859 0.0
C1070 C 0.81124 0.58352 0.17011 0.0
C1071 C 0.77425 0.57119 0.1871 0.0
C1072 C 0.77813 0.56677 0.2518 0.0
H1073 H 0.6667 0.58354 0.29014 0.0
H1074 H 0.69378 0.56715 0.26106 0.0
H1075 H 0.76726 0.57567 0.28726 0.0
H1076 H 0.84181 0.57498 0.1913 0.0
H1077 H 0.81967 0.55732 0.22398 0.0
H1078 H 0.7451 0.53857 0.21062 0.0
C1079 C 0.69903 0.56801 0.2798 0.0
C1080 C 0.76243 0.56668 0.27104 0.0
C1081 C 0.6835 0.57751 0.2964 0.0
C1082 C 0.82298 0.57372 0.18971 0.0
C1083 C 0.81032 0.56367 0.20843 0.0
C1084 C 0.75029 0.54621 0.22752 0.0
C1085 C 0.72178 0.56181 0.28694 0.0
C1086 C 0.74005 0.55716 0.26849 0.0
C1087 C 0.78573 0.56303 0.20769 0.0
C1088 C 0.77182 0.55746 0.22948 0.0
H1089 H 0.718 0.57539 0.34642 0.0
H1090 H 0.74489 0.55825 0.31775 0.0
H1091 H 0.71769 0.53813 0.24445 0.0
H1092 H 0.77726 0.58823 0.15358 0.0
H1093 H 0.75534 0.57116 0.18598 0.0
C1094 C 0.68856 0.4208 0.69072 0.0
C1095 C 0.6955 0.41589 0.66705 0.0
C1096 C 0.70433 0.43072 0.70678 0.0
C1097 C 0.76773 0.43159 0.71543 0.0
H1098 H 0.75093 0.46331 0.77392 0.0
C1099 C 0.82821 0.42759 0.79672 0.0
C1100 C 0.81628 0.419 0.81685 0.0
C1101 C 0.81574 0.43713 0.77758 0.0
C1102 C 0.75598 0.45465 0.75756 0.0
H1103 H 0.72294 0.42011 0.64055 0.0
H1104 H 0.7503 0.43785 0.66828 0.0
H1105 H 0.72347 0.46221 0.74017 0.0
H1106 H 0.78237 0.41624 0.83401 0.0
H1107 H 0.76071 0.43234 0.8008 0.0
H1108 H 0.79959 0.42298 0.73311 0.0
C1109 C 0.73313 0.43324 0.67486 0.0
C1110 C 0.74022 0.45395 0.73827 0.0
C1111 C 0.71751 0.42301 0.65897 0.0
C1112 C 0.79201 0.42207 0.81851 0.0
C1113 C 0.7796 0.43171 0.79954 0.0
C1114 C 0.78345 0.43236 0.73462 0.0
C1115 C 0.72717 0.43617 0.69926 0.0
C1116 C 0.74551 0.44154 0.71739 0.0
C1117 C 0.79118 0.43843 0.7784 0.0
C1118 C 0.77732 0.44301 0.75631 0.0
H1119 H 0.6716 0.4155 0.6973 0.0
H1120 H 0.69912 0.43257 0.72545 0.0
H1121 H 0.77239 0.42164 0.69982 0.0
H1122 H 0.84697 0.42561 0.79505 0.0
H1123 H 0.82519 0.44243 0.76163 0.0
C1124 C 0.2449 0.38943 0.65557 0.0
C1125 C 0.26779 0.38384 0.64851 0.0
C1126 C 0.23977 0.39416 0.67965 0.0
C1127 C 0.26562 0.40621 0.7397 0.0
H1128 H 0.21263 0.37187 0.76289 0.0
C1129 C 0.25462 0.37968 0.83888 0.0
C1130 C 0.232 0.37723 0.84849 0.0
C1131 C 0.25782 0.38566 0.81476 0.0
C1132 C 0.22717 0.382 0.75676 0.0
H1133 H 0.30355 0.38035 0.66104 0.0
H1134 H 0.29452 0.38835 0.70317 0.0
H1135 H 0.22061 0.37353 0.71996 0.0
H1136 H 0.19501 0.38057 0.84059 0.0
H1137 H 0.20062 0.39138 0.79857 0.0
H1138 H 0.27246 0.4142 0.77671 0.0
C1139 C 0.28056 0.3892 0.69001 0.0
C1140 C 0.23177 0.38293 0.73207 0.0
C1141 C 0.28571 0.38451 0.66586 0.0
C1142 C 0.21267 0.38205 0.83372 0.0
C1143 C 0.21588 0.38816 0.80959 0.0
C1144 C 0.26095 0.40536 0.76446 0.0
C1145 C 0.2574 0.39338 0.69727 0.0
C1146 C 0.25129 0.39469 0.72327 0.0
C1147 C 0.23849 0.38948 0.79966 0.0
C1148 C 0.24193 0.39286 0.77332 0.0
H1149 H 0.2307 0.38941 0.64264 0.0
H1150 H 0.22184 0.39776 0.6846 0.0
H1151 H 0.28062 0.41564 0.73344 0.0
H1152 H 0.26994 0.37616 0.84971 0.0
H1153 H 0.27546 0.38626 0.8077 0.0
C1154 C 0.24181 0.62068 0.33599 0.0
C1155 C 0.26498 0.6254 0.34285 0.0
C1156 C 0.2364 0.61563 0.31205 0.0
C1157 C 0.26162 0.60031 0.25262 0.0
H1158 H 0.20981 0.63529 0.22779 0.0
C1159 C 0.25119 0.62267 0.15223 0.0
C1160 C 0.22863 0.62531 0.14253 0.0
C1161 C 0.25426 0.6177 0.17663 0.0
C1162 C 0.22401 0.62498 0.23442 0.0
H1163 H 0.3008 0.62721 0.33008 0.0
H1164 H 0.29127 0.61865 0.28821 0.0
H1165 H 0.21792 0.63534 0.27076 0.0
H1166 H 0.19157 0.62336 0.15067 0.0
H1167 H 0.19696 0.61435 0.19321 0.0
H1168 H 0.26801 0.5904 0.21607 0.0
C1169 C 0.27732 0.61871 0.30143 0.0
C1170 C 0.22869 0.62505 0.25912 0.0
C1171 C 0.28277 0.62375 0.32543 0.0
C1172 C 0.2092 0.62169 0.15757 0.0
C1173 C 0.21228 0.61662 0.182 0.0
C1174 C 0.25688 0.60017 0.22786 0.0
C1175 C 0.25399 0.6152 0.29438 0.0
C1176 C 0.24779 0.61305 0.26846 0.0
C1177 C 0.23486 0.61512 0.19194 0.0
C1178 C 0.23828 0.61288 0.21842 0.0
H1179 H 0.22768 0.62151 0.34897 0.0
H1180 H 0.21831 0.61259 0.30727 0.0
H1181 H 0.27628 0.59066 0.25933 0.0
H1182 H 0.26659 0.62526 0.1412 0.0
H1183 H 0.2719 0.61692 0.18368 0.0
loop_
_geom_bond_atom_site_label_1
_geom_bond_atom_site_label_2
_geom_bond_distance
_geom_bond_site_symmetry_2
_ccdc_geom_bond_type
Mg0 O1 2.028 . S
Mg0 O7 1.986 . S
Mg0 O9 2.114 . S
Mg0 O10 2.251 . S
Mg0 O13 2.010 . S
O1 Mg0 2.028 . S
O1 C4 1.250 . S
O2 Mg3 2.028 . S
O2 C4 1.248 . S
Mg3 O2 2.028 . S
Mg3 O8 2.032 . S
Mg3 O10 2.079 . S
C4 O1 1.250 . S
C4 O2 1.248 . S
C5 O6 1.264 . S
C5 O13 1.249 . S
O6 C5 1.264 . S
O7 Mg0 1.986 . S
O7 C11 1.246 . S
O8 Mg3 2.032 . S
O8 C11 1.259 . S
O9 Mg0 2.114 . S
O9 C12 1.252 . S
O10 Mg0 2.251 . S
O10 Mg3 2.079 . S
O10 C12 1.273 . S
C11 O7 1.246 . S
C11 O8 1.259 . S
C12 O9 1.252 . S
C12 O10 1.273 . S
O13 Mg0 2.010 . S
O13 C5 1.249 . S
Mg14 O15 2.028 . S
Mg14 O21 1.986 . S
Mg14 O23 2.114 . S
Mg14 O24 2.251 . S
Mg14 O27 2.010 . S
O15 Mg14 2.028 . S
O15 C18 1.250 . S
O16 Mg17 2.028 . S
O16 C18 1.248 . S
Mg17 O16 2.028 . S
Mg17 O22 2.032 . S
Mg17 O24 2.079 . S
C18 O15 1.250 . S
C18 O16 1.248 . S
C19 O20 1.264 . S
C19 O27 1.249 . S
O20 C19 1.264 . S
O21 Mg14 1.986 . S
O21 C25 1.246 . S
O22 Mg17 2.032 . S
O22 C25 1.259 . S
O23 Mg14 2.114 . S
O23 C26 1.252 . S
O24 Mg14 2.251 . S
O24 Mg17 2.079 . S
O24 C26 1.273 . S
C25 O21 1.246 . S
C25 O22 1.259 . S
C26 O23 1.252 . S
C26 O24 1.273 . S
O27 Mg14 2.010 . S
O27 C19 1.249 . S
Mg28 O29 2.028 . S
Mg28 O35 1.986 . S
Mg28 O37 2.114 . S
Mg28 O38 2.251 . S
Mg28 O41 2.010 . S
O29 Mg28 2.028 . S
O29 C32 1.250 . S
O30 Mg31 2.028 . S
O30 C32 1.248 . S
Mg31 O30 2.028 . S
Mg31 O36 2.032 . S
Mg31 O38 2.079 . S
C32 O29 1.250 . S
C32 O30 1.248 . S
C33 O34 1.264 . S
C33 O41 1.249 . S
O34 C33 1.264 . S
O35 Mg28 1.986 . S
O35 C39 1.246 . S
O36 Mg31 2.032 . S
O36 C39 1.259 . S
O37 Mg28 2.114 . S
O37 C40 1.252 . S
O38 Mg28 2.251 . S
O38 Mg31 2.079 . S
O38 C40 1.273 . S
C39 O35 1.246 . S
C39 O36 1.259 . S
C40 O37 1.252 . S
C40 O38 1.273 . S
O41 Mg28 2.010 . S
O41 C33 1.249 . S
Mg42 O43 2.028 . S
Mg42 O49 1.986 . S
Mg42 O51 2.114 . S
Mg42 O52 2.251 . S
Mg42 O55 2.010 . S
O43 Mg42 2.028 . S
O43 C46 1.250 . S
O44 Mg45 2.028 . S
O44 C46 1.248 . S
Mg45 O44 2.028 . S
Mg45 O50 2.032 . S
Mg45 O52 2.079 . S
C46 O43 1.250 . S
C46 O44 1.248 . S
C47 O48 1.264 . S
C47 O55 1.249 . S
O48 C47 1.264 . S
O49 Mg42 1.986 . S
O49 C53 1.246 . S
O50 Mg45 2.032 . S
O50 C53 1.259 . S
O51 Mg42 2.114 . S
O51 C54 1.252 . S
O52 Mg42 2.251 . S
O52 Mg45 2.079 . S
O52 C54 1.273 . S
C53 O49 1.246 . S
C53 O50 1.259 . S
C54 O51 1.252 . S
C54 O52 1.273 . S
O55 Mg42 2.010 . S
O55 C47 1.249 . S
Mg56 O57 2.028 . S
Mg56 O63 1.986 . S
Mg56 O65 2.114 . S
Mg56 O66 2.251 . S
Mg56 O69 2.010 . S
O57 Mg56 2.028 . S
O57 C60 1.250 . S
O58 Mg59 2.028 . S
O58 C60 1.248 . S
Mg59 O58 2.028 . S
Mg59 O64 2.032 . S
Mg59 O66 2.079 . S
C60 O57 1.250 . S
C60 O58 1.248 . S
C61 O62 1.264 . S
C61 O69 1.249 . S
O62 C61 1.264 . S
O63 Mg56 1.986 . S
O63 C67 1.246 . S
O64 Mg59 2.032 . S
O64 C67 1.259 . S
O65 Mg56 2.114 . S
O65 C68 1.252 . S
O66 Mg56 2.251 . S
O66 Mg59 2.079 . S
O66 C68 1.273 . S
C67 O63 1.246 . S
C67 O64 1.259 . S
C68 O65 1.252 . S
C68 O66 1.273 . S
O69 Mg56 2.010 . S
O69 C61 1.249 . S
Mg70 O71 2.028 . S
Mg70 O77 1.986 . S
Mg70 O79 2.114 . S
Mg70 O80 2.251 . S
Mg70 O83 2.010 . S
O71 Mg70 2.028 . S
O71 C74 1.250 . S
O72 Mg73 2.028 . S
O72 C74 1.248 . S
Mg73 O72 2.028 . S
Mg73 O78 2.032 . S
Mg73 O80 2.079 . S
C74 O71 1.250 . S
C74 O72 1.248 . S
C75 O76 1.264 . S
C75 O83 1.249 . S
O76 C75 1.264 . S
O77 Mg70 1.986 . S
O77 C81 1.246 . S
O78 Mg73 2.032 . S
O78 C81 1.259 . S
O79 Mg70 2.114 . S
O79 C82 1.252 . S
O80 Mg70 2.251 . S
O80 Mg73 2.079 . S
O80 C82 1.273 . S
C81 O77 1.246 . S
C81 O78 1.259 . S
C82 O79 1.252 . S
C82 O80 1.273 . S
O83 Mg70 2.010 . S
O83 C75 1.249 . S
Mg84 O85 2.028 . S
Mg84 O91 1.986 . S
Mg84 O93 2.114 . S
Mg84 O94 2.251 . S
Mg84 O97 2.010 . S
O85 Mg84 2.028 . S
O85 C88 1.250 . S
O86 Mg87 2.028 . S
O86 C88 1.248 . S
Mg87 O86 2.028 . S
Mg87 O92 2.032 . S
Mg87 O94 2.079 . S
C88 O85 1.250 . S
C88 O86 1.248 . S
C89 O90 1.264 . S
C89 O97 1.249 . S
O90 C89 1.264 . S
O91 Mg84 1.986 . S
O91 C95 1.246 . S
O92 Mg87 2.032 . S
O92 C95 1.259 . S
O93 Mg84 2.114 . S
O93 C96 1.252 . S
O94 Mg84 2.251 . S
O94 Mg87 2.079 . S
O94 C96 1.273 . S
C95 O91 1.246 . S
C95 O92 1.259 . S
C96 O93 1.252 . S
C96 O94 1.273 . S
O97 Mg84 2.010 . S
O97 C89 1.249 . S
Mg98 O99 2.028 . S
Mg98 O105 1.986 . S
Mg98 O107 2.114 . S
Mg98 O108 2.251 . S
Mg98 O111 2.010 . S
O99 Mg98 2.028 . S
O99 C102 1.250 . S
O100 Mg101 2.028 . S
O100 C102 1.248 . S
Mg101 O100 2.028 . S
Mg101 O106 2.032 . S
Mg101 O108 2.079 . S
C102 O99 1.250 . S
C102 O100 1.248 . S
C103 O104 1.264 . S
C103 O111 1.249 . S
O104 C103 1.264 . S
O105 Mg98 1.986 . S
O105 C109 1.246 . S
O106 Mg101 2.032 . S
O106 C109 1.259 . S
O107 Mg98 2.114 . S
O107 C110 1.252 . S
O108 Mg98 2.251 . S
O108 Mg101 2.079 . S
O108 C110 1.273 . S
C109 O105 1.246 . S
C109 O106 1.259 . S
C110 O107 1.252 . S
C110 O108 1.273 . S
O111 Mg98 2.010 . S
O111 C103 1.249 . S
Mg112 O113 2.028 . S
Mg112 O119 1.986 . S
Mg112 O121 2.114 . S
Mg112 O122 2.251 . S
Mg112 O125 2.010 . S
O113 Mg112 2.028 . S
O113 C116 1.250 . S
O114 Mg115 2.028 . S
O114 C116 1.248 . S
Mg115 O114 2.028 . S
Mg115 O120 2.032 . S
Mg115 O122 2.079 . S
C116 O113 1.250 . S
C116 O114 1.248 . S
C117 O118 1.264 . S
C117 O125 1.249 . S
O118 C117 1.264 . S
O119 Mg112 1.986 . S
O119 C123 1.246 . S
O120 Mg115 2.032 . S
O120 C123 1.259 . S
O121 Mg112 2.114 . S
O121 C124 1.252 . S
O122 Mg112 2.251 . S
O122 Mg115 2.079 . S
O122 C124 1.273 . S
C123 O119 1.246 . S
C123 O120 1.259 . S
C124 O121 1.252 . S
C124 O122 1.273 . S
O125 Mg112 2.010 . S
O125 C117 1.249 . S
Mg126 O127 2.028 . S
Mg126 O133 1.986 . S
Mg126 O135 2.114 . S
Mg126 O136 2.251 . S
Mg126 O139 2.010 . S
O127 Mg126 2.028 . S
O127 C130 1.250 . S
O128 Mg129 2.028 . S
O128 C130 1.248 . S
Mg129 O128 2.028 . S
Mg129 O134 2.032 . S
Mg129 O136 2.079 . S
C130 O127 1.250 . S
C130 O128 1.248 . S
C131 O132 1.264 . S
C131 O139 1.249 . S
O132 C131 1.264 . S
O133 Mg126 1.986 . S
O133 C137 1.246 . S
O134 Mg129 2.032 . S
O134 C137 1.259 . S
O135 Mg126 2.114 . S
O135 C138 1.252 . S
O136 Mg126 2.251 . S
O136 Mg129 2.079 . S
O136 C138 1.273 . S
C137 O133 1.246 . S
C137 O134 1.259 . S
C138 O135 1.252 . S
C138 O136 1.273 . S
O139 Mg126 2.010 . S
O139 C131 1.249 . S
Mg140 O141 2.028 . S
Mg140 O147 1.986 . S
Mg140 O149 2.114 . S
Mg140 O150 2.251 . S
Mg140 O153 2.010 . S
O141 Mg140 2.028 . S
O141 C144 1.250 . S
O142 Mg143 2.028 . S
O142 C144 1.248 . S
Mg143 O142 2.028 . S
Mg143 O148 2.032 . S
Mg143 O150 2.079 . S
C144 O141 1.250 . S
C144 O142 1.248 . S
C145 O146 1.264 . S
C145 O153 1.249 . S
O146 C145 1.264 . S
O147 Mg140 1.986 . S
O147 C151 1.246 . S
O148 Mg143 2.032 . S
O148 C151 1.259 . S
O149 Mg140 2.114 . S
O149 C152 1.252 . S
O150 Mg140 2.251 . S
O150 Mg143 2.079 . S
O150 C152 1.273 . S
C151 O147 1.246 . S
C151 O148 1.259 . S
C152 O149 1.252 . S
C152 O150 1.273 . S
O153 Mg140 2.010 . S
O153 C145 1.249 . S
Mg154 O155 2.028 . S
Mg154 O161 1.986 . S
Mg154 O163 2.114 . S
Mg154 O164 2.251 . S
Mg154 O167 2.010 . S
O155 Mg154 2.028 . S
O155 C158 1.250 . S
O156 Mg157 2.028 . S
O156 C158 1.248 . S
Mg157 O156 2.028 . S
Mg157 O162 2.032 . S
Mg157 O164 2.079 . S
C158 O155 1.250 . S
C158 O156 1.248 . S
C159 O160 1.264 . S
C159 O167 1.249 . S
O160 C159 1.264 . S
O161 Mg154 1.986 . S
O161 C165 1.246 . S
O162 Mg157 2.032 . S
O162 C165 1.259 . S
O163 Mg154 2.114 . S
O163 C166 1.252 . S
O164 Mg154 2.251 . S
O164 Mg157 2.079 . S
O164 C166 1.273 . S
C165 O161 1.246 . S
C165 O162 1.259 . S
C166 O163 1.252 . S
C166 O164 1.273 . S
O167 Mg154 2.010 . S
O167 C159 1.249 . S
Mg168 O169 2.028 . S
Mg168 O175 1.986 . S
Mg168 O177 2.114 . S
Mg168 O178 2.251 . S
Mg168 O181 2.010 . S
O169 Mg168 2.028 . S
O169 C172 1.250 . S
O170 Mg171 2.028 . S
O170 C172 1.248 . S
Mg171 O170 2.028 . S
Mg171 O176 2.032 . S
Mg171 O178 2.079 . S
C172 O169 1.250 . S
C172 O170 1.248 . S
C173 O174 1.264 . S
C173 O181 1.249 . S
O174 C173 1.264 . S
O175 Mg168 1.986 . S
O175 C179 1.246 . S
O176 Mg171 2.032 . S
O176 C179 1.259 . S
O177 Mg168 2.114 . S
O177 C180 1.252 . S
O178 Mg168 2.251 . S
O178 Mg171 2.079 . S
O178 C180 1.273 . S
C179 O175 1.246 . S
C179 O176 1.259 . S
C180 O177 1.252 . S
C180 O178 1.273 . S
O181 Mg168 2.010 . S
O181 C173 1.249 . S
Mg182 O183 2.028 . S
Mg182 O189 1.986 . S
Mg182 O191 2.114 . S
Mg182 O192 2.251 . S
Mg182 O195 2.010 . S
O183 Mg182 2.028 . S
O183 C186 1.250 . S
O184 Mg185 2.028 . S
O184 C186 1.248 . S
Mg185 O184 2.028 . S
Mg185 O190 2.032 . S
Mg185 O192 2.079 . S
C186 O183 1.250 . S
C186 O184 1.248 . S
C187 O188 1.264 . S
C187 O195 1.249 . S
O188 C187 1.264 . S
O189 Mg182 1.986 . S
O189 C193 1.246 . S
O190 Mg185 2.032 . S
O190 C193 1.259 . S
O191 Mg182 2.114 . S
O191 C194 1.252 . S
O192 Mg182 2.251 . S
O192 Mg185 2.079 . S
O192 C194 1.273 . S
C193 O189 1.246 . S
C193 O190 1.259 . S
C194 O191 1.252 . S
C194 O192 1.273 . S
O195 Mg182 2.010 . S
O195 C187 1.249 . S
Mg196 O197 2.028 . S
Mg196 O203 1.986 . S
Mg196 O205 2.114 . S
Mg196 O206 2.251 . S
Mg196 O209 2.010 . S
O197 Mg196 2.028 . S
O197 C200 1.250 . S
O198 Mg199 2.028 . S
O198 C200 1.248 . S
Mg199 O198 2.028 . S
Mg199 O204 2.032 . S
Mg199 O206 2.079 . S
C200 O197 1.250 . S
C200 O198 1.248 . S
C201 O202 1.264 . S
C201 O209 1.249 . S
O202 C201 1.264 . S
O203 Mg196 1.986 . S
O203 C207 1.246 . S
O204 Mg199 2.032 . S
O204 C207 1.259 . S
O205 Mg196 2.114 . S
O205 C208 1.252 . S
O206 Mg196 2.251 . S
O206 Mg199 2.079 . S
O206 C208 1.273 . S
C207 O203 1.246 . S
C207 O204 1.259 . S
C208 O205 1.252 . S
C208 O206 1.273 . S
O209 Mg196 2.010 . S
O209 C201 1.249 . S
Mg210 O211 2.028 . S
Mg210 O217 1.986 . S
Mg210 O219 2.114 . S
Mg210 O220 2.251 . S
Mg210 O223 2.010 . S
O211 Mg210 2.028 . S
O211 C214 1.250 . S
O212 Mg213 2.028 . S
O212 C214 1.248 . S
Mg213 O212 2.028 . S
Mg213 O218 2.032 . S
Mg213 O220 2.079 . S
C214 O211 1.250 . S
C214 O212 1.248 . S
C215 O216 1.264 . S
C215 O223 1.249 . S
O216 C215 1.264 . S
O217 Mg210 1.986 . S
O217 C221 1.246 . S
O218 Mg213 2.032 . S
O218 C221 1.259 . S
O219 Mg210 2.114 . S
O219 C222 1.252 . S
O220 Mg210 2.251 . S
O220 Mg213 2.079 . S
O220 C222 1.273 . S
C221 O217 1.246 . S
C221 O218 1.259 . S
C222 O219 1.252 . S
C222 O220 1.273 . S
O223 Mg210 2.010 . S
O223 C215 1.249 . S
C224 C225 1.349 . S
C224 C226 1.327 . S
C224 H249 0.950 . S
C225 C224 1.349 . S
C225 C241 1.349 . S
C226 C224 1.327 . S
C226 C245 1.429 . S
C226 H250 0.950 . S
C227 C244 1.574 . S
C227 C246 1.368 1_556 S
C227 H251 0.949 . S
H228 C232 0.949 . S
C229 C230 1.349 . S
C229 C231 1.327 . S
C229 H252 0.950 . S
C230 C229 1.349 . S
C230 C242 1.349 . S
C231 C229 1.327 . S
C231 C247 1.429 . S
C231 H253 0.950 . S
C232 H228 0.949 . S
C232 C240 1.574 . S
C232 C248 1.368 1_554 S
H233 C241 0.950 . S
H234 C239 0.950 . S
H235 C240 0.949 . S
H236 C242 0.950 . S
H237 C243 0.950 . S
H238 C244 0.949 . S
C239 H234 0.950 . S
C239 C241 1.327 . S
C239 C245 1.429 . S
C240 C232 1.574 . S
C240 H235 0.949 . S
C240 C246 1.368 . S
C241 C225 1.349 . S
C241 H233 0.950 . S
C241 C239 1.327 . S
C242 C230 1.349 . S
C242 H236 0.950 . S
C242 C243 1.327 . S
C243 H237 0.950 . S
C243 C242 1.327 . S
C243 C247 1.429 . S
C244 C227 1.574 . S
C244 H238 0.949 . S
C244 C248 1.368 . S
C245 C226 1.429 . S
C245 C239 1.429 . S
C245 C246 1.523 . S
C246 C227 1.368 1_554 S
C246 C240 1.368 . S
C246 C245 1.523 . S
C247 C231 1.429 . S
C247 C243 1.429 . S
C247 C248 1.523 . S
C248 C232 1.368 1_556 S
C248 C244 1.368 . S
C248 C247 1.523 . S
H249 C224 0.950 . S
H250 C226 0.950 . S
H251 C227 0.949 . S
H252 C229 0.950 . S
H253 C231 0.950 . S
C254 C255 1.349 . S
C254 C256 1.327 . S
C254 H279 0.950 . S
C255 C254 1.349 . S
C255 C271 1.349 . S
C256 C254 1.327 . S
C256 C275 1.429 . S
C256 H280 0.950 . S
C257 C274 1.574 . S
C257 C276 1.368 . S
C257 H281 0.949 . S
H258 C262 0.949 . S
C259 C260 1.349 . S
C259 C261 1.327 . S
C259 H282 0.950 . S
C260 C259 1.349 . S
C260 C272 1.349 . S
C261 C259 1.327 . S
C261 C277 1.429 . S
C261 H283 0.950 . S
C262 H258 0.949 . S
C262 C270 1.574 . S
C262 C278 1.368 . S
H263 C271 0.950 . S
H264 C269 0.950 . S
H265 C270 0.949 . S
H266 C272 0.950 . S
H267 C273 0.950 . S
H268 C274 0.949 . S
C269 H264 0.950 . S
C269 C271 1.327 . S
C269 C275 1.429 . S
C270 C262 1.574 . S
C270 H265 0.949 . S
C270 C276 1.368 . S
C271 C255 1.349 . S
C271 H263 0.950 . S
C271 C269 1.327 . S
C272 C260 1.349 . S
C272 H266 0.950 . S
C272 C273 1.327 . S
C273 H267 0.950 . S
C273 C272 1.327 . S
C273 C277 1.429 . S
C274 C257 1.574 . S
C274 H268 0.949 . S
C274 C278 1.368 . S
C275 C256 1.429 . S
C275 C269 1.429 . S
C275 C276 1.523 . S
C276 C257 1.368 . S
C276 C270 1.368 . S
C276 C275 1.523 . S
C277 C261 1.429 . S
C277 C273 1.429 . S
C277 C278 1.523 . S
C278 C262 1.368 . S
C278 C274 1.368 . S
C278 C277 1.523 . S
H279 C254 0.950 . S
H280 C256 0.950 . S
H281 C257 0.949 . S
H282 C259 0.950 . S
H283 C261 0.950 . S
C284 C285 1.349 . S
C284 C286 1.327 . S
C284 H309 0.950 . S
C285 C284 1.349 . S
C285 C301 1.349 . S
C286 C284 1.327 . S
C286 C305 1.429 . S
C286 H310 0.950 . S
C287 C304 1.574 1_556 S
C287 C306 1.368 . S
C287 H311 0.949 . S
H288 C292 0.949 . S
C289 C290 1.349 . S
C289 C291 1.327 . S
C289 H312 0.950 . S
C290 C289 1.349 . S
C290 C302 1.349 . S
C291 C289 1.327 . S
C291 C307 1.429 . S
C291 H313 0.950 . S
C292 H288 0.949 . S
C292 C300 1.575 1_554 S
C292 C308 1.368 . S
H293 C301 0.950 . S
H294 C299 0.950 . S
H295 C300 0.948 . S
H296 C302 0.950 . S
H297 C303 0.950 . S
H298 C304 0.949 . S
C299 H294 0.950 . S
C299 C301 1.327 . S
C299 C305 1.429 . S
C300 C292 1.575 1_556 S
C300 H295 0.948 . S
C300 C306 1.367 . S
C301 C285 1.349 . S
C301 H293 0.950 . S
C301 C299 1.327 . S
C302 C290 1.349 . S
C302 H296 0.950 . S
C302 C303 1.327 . S
C303 H297 0.950 . S
C303 C302 1.327 . S
C303 C307 1.429 . S
C304 C287 1.574 1_554 S
C304 H298 0.949 . S
C304 C308 1.368 . S
C305 C286 1.429 . S
C305 C299 1.429 . S
C305 C306 1.523 . S
C306 C287 1.368 . S
C306 C300 1.367 . S
C306 C305 1.523 . S
C307 C291 1.429 . S
C307 C303 1.429 . S
C307 C308 1.523 . S
C308 C292 1.368 . S
C308 C304 1.368 . S
C308 C307 1.523 . S
H309 C284 0.950 . S
H310 C286 0.950 . S
H311 C287 0.949 . S
H312 C289 0.950 . S
H313 C291 0.950 . S
C314 C315 1.349 . S
C314 C316 1.327 . S
C314 H339 0.950 . S
C315 C314 1.349 . S
C315 C331 1.349 . S
C316 C314 1.327 . S
C316 C335 1.429 . S
C316 H340 0.950 . S
C317 C334 1.574 . S
C317 C336 1.368 . S
C317 H341 0.949 . S
H318 C322 0.949 . S
C319 C320 1.349 . S
C319 C321 1.327 . S
C319 H342 0.950 . S
C320 C319 1.349 . S
C320 C332 1.349 . S
C321 C319 1.327 . S
C321 C337 1.429 . S
C321 H343 0.950 . S
C322 H318 0.949 . S
C322 C330 1.574 . S
C322 C338 1.368 . S
H323 C331 0.950 . S
H324 C329 0.950 . S
H325 C330 0.949 . S
H326 C332 0.950 . S
H327 C333 0.950 . S
H328 C334 0.949 . S
C329 H324 0.950 . S
C329 C331 1.327 . S
C329 C335 1.429 . S
C330 C322 1.574 . S
C330 H325 0.949 . S
C330 C336 1.368 . S
C331 C315 1.349 . S
C331 H323 0.950 . S
C331 C329 1.327 . S
C332 C320 1.349 . S
C332 H326 0.950 . S
C332 C333 1.327 . S
C333 H327 0.950 . S
C333 C332 1.327 . S
C333 C337 1.429 . S
C334 C317 1.574 . S
C334 H328 0.949 . S
C334 C338 1.368 . S
C335 C316 1.429 . S
C335 C329 1.429 . S
C335 C336 1.523 . S
C336 C317 1.368 . S
C336 C330 1.368 . S
C336 C335 1.523 . S
C337 C321 1.429 . S
C337 C333 1.429 . S
C337 C338 1.523 . S
C338 C322 1.368 . S
C338 C334 1.368 . S
C338 C337 1.523 . S
H339 C314 0.950 . S
H340 C316 0.950 . S
H341 C317 0.949 . S
H342 C319 0.950 . S
H343 C321 0.950 . S
C344 C345 1.349 . S
C344 C346 1.327 . S
C344 H369 0.950 . S
C345 C344 1.349 . S
C345 C361 1.349 . S
C346 C344 1.327 . S
C346 C365 1.429 . S
C346 H370 0.950 . S
C347 C364 1.574 1_554 S
C347 C366 1.368 . S
C347 H371 0.949 . S
H348 C352 0.949 . S
C349 C350 1.349 . S
C349 C351 1.327 . S
C349 H372 0.950 . S
C350 C349 1.349 . S
C350 C362 1.349 . S
C351 C349 1.327 . S
C351 C367 1.429 . S
C351 H373 0.950 . S
C352 H348 0.949 . S
C352 C360 1.553 1_556 S
C352 C368 1.368 . S
H353 C361 0.950 . S
H354 C359 0.950 . S
H355 C360 0.953 . S
H356 C362 0.950 . S
H357 C363 0.950 . S
H358 C364 0.949 . S
C359 H354 0.950 . S
C359 C361 1.327 . S
C359 C365 1.429 . S
C360 C352 1.553 1_554 S
C360 H355 0.953 . S
C360 C366 1.387 . S
C361 C345 1.349 . S
C361 H353 0.950 . S
C361 C359 1.327 . S
C362 C350 1.349 . S
C362 H356 0.950 . S
C362 C363 1.327 . S
C363 H357 0.950 . S
C363 C362 1.327 . S
C363 C367 1.429 . S
C364 C347 1.574 1_556 S
C364 H358 0.949 . S
C364 C368 1.368 . S
C365 C346 1.429 . S
C365 C359 1.429 . S
C365 C366 1.523 . S
C366 C347 1.368 . S
C366 C360 1.387 . S
C366 C365 1.523 . S
C367 C351 1.429 . S
C367 C363 1.429 . S
C367 C368 1.523 . S
C368 C352 1.368 . S
C368 C364 1.368 . S
C368 C367 1.523 . S
H369 C344 0.950 . S
H370 C346 0.950 . S
H371 C347 0.949 . S
H372 C349 0.950 . S
H373 C351 0.950 . S
C374 C375 1.349 . S
C374 C376 1.327 . S
C374 H399 0.950 . S
C375 C374 1.349 . S
C375 C391 1.349 . S
C376 C374 1.327 . S
C376 C395 1.429 . S
C376 H400 0.950 . S
C377 C394 1.574 . S
C377 C396 1.368 . S
C377 H401 0.949 . S
H378 C382 0.949 . S
C379 C380 1.349 . S
C379 C381 1.327 . S
C379 H402 0.950 . S
C380 C379 1.349 . S
C380 C392 1.349 . S
C381 C379 1.327 . S
C381 C397 1.429 . S
C381 H403 0.950 . S
C382 H378 0.949 . S
C382 C390 1.574 . S
C382 C398 1.368 . S
H383 C391 0.950 . S
H384 C389 0.950 . S
H385 C390 0.949 . S
H386 C392 0.950 . S
H387 C393 0.950 . S
H388 C394 0.949 . S
C389 H384 0.950 . S
C389 C391 1.327 . S
C389 C395 1.429 . S
C390 C382 1.574 . S
C390 H385 0.949 . S
C390 C396 1.368 . S
C391 C375 1.349 . S
C391 H383 0.950 . S
C391 C389 1.327 . S
C392 C380 1.349 . S
C392 H386 0.950 . S
C392 C393 1.327 . S
C393 H387 0.950 . S
C393 C392 1.327 . S
C393 C397 1.429 . S
C394 C377 1.574 . S
C394 H388 0.949 . S
C394 C398 1.368 . S
C395 C376 1.429 . S
C395 C389 1.429 . S
C395 C396 1.523 . S
C396 C377 1.368 . S
C396 C390 1.368 . S
C396 C395 1.523 . S
C397 C381 1.429 . S
C397 C393 1.429 . S
C397 C398 1.523 . S
C398 C382 1.368 . S
C398 C394 1.368 . S
C398 C397 1.523 . S
H399 C374 0.950 . S
H400 C376 0.950 . S
H401 C377 0.949 . S
H402 C379 0.950 . S
H403 C381 0.950 . S
C404 C405 1.349 . S
C404 C406 1.327 . S
C404 H429 0.950 . S
C405 C404 1.349 . S
C405 C421 1.349 . S
C406 C404 1.327 . S
C406 C425 1.429 . S
C406 H430 0.950 . S
C407 C424 1.574 1_556 S
C407 C426 1.368 . S
C407 H431 0.949 . S
H408 C412 0.949 . S
C409 C410 1.349 . S
C409 C411 1.327 . S
C409 H432 0.950 . S
C410 C409 1.349 . S
C410 C422 1.349 . S
C411 C409 1.327 . S
C411 C427 1.429 . S
C411 H433 0.950 . S
C412 H408 0.949 . S
C412 C420 1.554 1_554 S
C412 C428 1.368 . S
H413 C421 0.950 . S
H414 C419 0.950 . S
H415 C420 0.953 . S
H416 C422 0.950 . S
H417 C423 0.950 . S
H418 C424 0.949 . S
C419 H414 0.950 . S
C419 C421 1.327 . S
C419 C425 1.429 . S
C420 C412 1.554 1_556 S
C420 H415 0.953 . S
C420 C426 1.386 . S
C421 C405 1.349 . S
C421 H413 0.950 . S
C421 C419 1.327 . S
C422 C410 1.349 . S
C422 H416 0.950 . S
C422 C423 1.327 . S
C423 H417 0.950 . S
C423 C422 1.327 . S
C423 C427 1.429 . S
C424 C407 1.574 1_554 S
C424 H418 0.949 . S
C424 C428 1.368 . S
C425 C406 1.429 . S
C425 C419 1.429 . S
C425 C426 1.523 . S
C426 C407 1.368 . S
C426 C420 1.386 . S
C426 C425 1.523 . S
C427 C411 1.429 . S
C427 C423 1.429 . S
C427 C428 1.523 . S
C428 C412 1.368 . S
C428 C424 1.368 . S
C428 C427 1.523 . S
H429 C404 0.950 . S
H430 C406 0.950 . S
H431 C407 0.949 . S
H432 C409 0.950 . S
H433 C411 0.950 . S
C434 C435 1.349 . S
C434 C436 1.327 . S
C434 H459 0.950 . S
C435 C434 1.349 . S
C435 C451 1.349 . S
C436 C434 1.327 . S
C436 C455 1.429 . S
C436 H460 0.950 . S
C437 C454 1.574 . S
C437 C456 1.368 . S
C437 H461 0.949 . S
H438 C442 0.949 . S
C439 C440 1.349 . S
C439 C441 1.327 . S
C439 H462 0.950 . S
C440 C439 1.349 . S
C440 C452 1.349 . S
C441 C439 1.327 . S
C441 C457 1.429 . S
C441 H463 0.950 . S
C442 H438 0.949 . S
C442 C450 1.574 . S
C442 C458 1.368 . S
H443 C451 0.950 . S
H444 C449 0.950 . S
H445 C450 0.949 . S
H446 C452 0.950 . S
H447 C453 0.950 . S
H448 C454 0.949 . S
C449 H444 0.950 . S
C449 C451 1.327 . S
C449 C455 1.429 . S
C450 C442 1.574 . S
C450 H445 0.949 . S
C450 C456 1.368 . S
C451 C435 1.349 . S
C451 H443 0.950 . S
C451 C449 1.327 . S
C452 C440 1.349 . S
C452 H446 0.950 . S
C452 C453 1.327 . S
C453 H447 0.950 . S
C453 C452 1.327 . S
C453 C457 1.429 . S
C454 C437 1.574 . S
C454 H448 0.949 . S
C454 C458 1.368 . S
C455 C436 1.429 . S
C455 C449 1.429 . S
C455 C456 1.523 . S
C456 C437 1.368 . S
C456 C450 1.368 . S
C456 C455 1.523 . S
C457 C441 1.429 . S
C457 C453 1.429 . S
C457 C458 1.523 . S
C458 C442 1.368 . S
C458 C454 1.368 . S
C458 C457 1.523 . S
H459 C434 0.950 . S
H460 C436 0.950 . S
H461 C437 0.949 . S
H462 C439 0.950 . S
H463 C441 0.950 . S
C464 C465 1.349 . S
C464 C466 1.327 . S
C464 H489 0.950 . S
C465 C464 1.349 . S
C465 C481 1.349 . S
C466 C464 1.327 . S
C466 C485 1.429 . S
C466 H490 0.950 . S
C467 C484 1.575 . S
C467 C486 1.367 1_565 S
C467 H491 0.949 1_565 S
H468 C472 0.949 1_565 S
C469 C470 1.349 . S
C469 C471 1.327 . S
C469 H492 0.950 . S
C470 C469 1.349 . S
C470 C482 1.349 . S
C471 C469 1.327 . S
C471 C487 1.429 . S
C471 H493 0.950 . S
C472 H468 0.949 1_545 S
C472 C480 1.575 . S
C472 C488 1.367 1_545 S
H473 C481 0.950 . S
H474 C479 0.950 . S
H475 C480 0.949 . S
H476 C482 0.950 . S
H477 C483 0.950 . S
H478 C484 0.949 . S
C479 H474 0.950 . S
C479 C481 1.327 . S
C479 C485 1.429 . S
C480 C472 1.575 . S
C480 H475 0.949 . S
C480 C486 1.368 1_556 S
C481 C465 1.349 . S
C481 H473 0.950 . S
C481 C479 1.327 . S
C482 C470 1.349 . S
C482 H476 0.950 . S
C482 C483 1.327 . S
C483 H477 0.950 . S
C483 C482 1.327 . S
C483 C487 1.429 . S
C484 C467 1.575 . S
C484 H478 0.949 . S
C484 C488 1.368 1_554 S
C485 C466 1.429 . S
C485 C479 1.429 . S
C485 C486 1.523 . S
C486 C467 1.367 1_545 S
C486 C480 1.368 1_554 S
C486 C485 1.523 . S
C487 C471 1.429 . S
C487 C483 1.429 . S
C487 C488 1.523 . S
C488 C472 1.367 1_565 S
C488 C484 1.368 1_556 S
C488 C487 1.523 . S
H489 C464 0.950 . S
H490 C466 0.950 . S
H491 C467 0.949 1_545 S
H492 C469 0.950 . S
H493 C471 0.950 . S
C494 C495 1.349 . S
C494 C496 1.327 . S
C494 H519 0.950 . S
C495 C494 1.349 . S
C495 C511 1.349 . S
C496 C494 1.327 . S
C496 C515 1.429 . S
C496 H520 0.950 . S
C497 C514 1.574 1_565 S
C497 C516 1.368 . S
C497 H521 0.949 . S
H498 C502 0.949 . S
C499 C500 1.349 . S
C499 C501 1.327 . S
C499 H522 0.950 . S
C500 C499 1.349 . S
C500 C512 1.349 . S
C501 C499 1.327 . S
C501 C517 1.429 . S
C501 H523 0.950 . S
C502 H498 0.949 . S
C502 C510 1.574 1_545 S
C502 C518 1.368 . S
H503 C511 0.950 . S
H504 C509 0.950 . S
H505 C510 0.949 . S
H506 C512 0.950 . S
H507 C513 0.950 . S
H508 C514 0.949 . S
C509 H504 0.950 . S
C509 C511 1.327 . S
C509 C515 1.429 . S
C510 C502 1.574 1_565 S
C510 H505 0.949 . S
C510 C516 1.368 . S
C511 C495 1.349 . S
C511 H503 0.950 . S
C511 C509 1.327 . S
C512 C500 1.349 . S
C512 H506 0.950 . S
C512 C513 1.327 . S
C513 H507 0.950 . S
C513 C512 1.327 . S
C513 C517 1.429 . S
C514 C497 1.574 1_545 S
C514 H508 0.949 . S
C514 C518 1.368 . S
C515 C496 1.429 . S
C515 C509 1.429 . S
C515 C516 1.523 . S
C516 C497 1.368 . S
C516 C510 1.368 . S
C516 C515 1.523 . S
C517 C501 1.429 . S
C517 C513 1.429 . S
C517 C518 1.523 . S
C518 C502 1.368 . S
C518 C514 1.368 . S
C518 C517 1.523 . S
H519 C494 0.950 . S
H520 C496 0.950 . S
H521 C497 0.949 . S
H522 C499 0.950 . S
H523 C501 0.950 . S
C524 C525 1.349 . S
C524 C526 1.327 . S
C524 H549 0.950 . S
C525 C524 1.349 . S
C525 C541 1.349 . S
C526 C524 1.327 . S
C526 C545 1.429 . S
C526 H550 0.950 . S
C527 C544 1.574 1_565 S
C527 C546 1.368 . S
C527 H551 0.949 . S
H528 C532 0.949 . S
C529 C530 1.349 . S
C529 C531 1.327 . S
C529 H552 0.950 . S
C530 C529 1.349 . S
C530 C542 1.349 . S
C531 C529 1.327 . S
C531 C547 1.429 . S
C531 H553 0.950 . S
C532 H528 0.949 . S
C532 C540 1.574 1_545 S
C532 C548 1.368 . S
H533 C541 0.950 . S
H534 C539 0.950 . S
H535 C540 0.949 . S
H536 C542 0.950 . S
H537 C543 0.950 . S
H538 C544 0.949 . S
C539 H534 0.950 . S
C539 C541 1.327 . S
C539 C545 1.429 . S
C540 C532 1.574 1_565 S
C540 H535 0.949 . S
C540 C546 1.368 1_554 S
C541 C525 1.349 . S
C541 H533 0.950 . S
C541 C539 1.327 . S
C542 C530 1.349 . S
C542 H536 0.950 . S
C542 C543 1.327 . S
C543 H537 0.950 . S
C543 C542 1.327 . S
C543 C547 1.429 . S
C544 C527 1.574 1_545 S
C544 H538 0.949 . S
C544 C548 1.368 1_556 S
C545 C526 1.429 . S
C545 C539 1.429 . S
C545 C546 1.523 . S
C546 C527 1.368 . S
C546 C540 1.368 1_556 S
C546 C545 1.523 . S
C547 C531 1.429 . S
C547 C543 1.429 . S
C547 C548 1.523 . S
C548 C532 1.368 . S
C548 C544 1.368 1_554 S
C548 C547 1.523 . S
H549 C524 0.950 . S
H550 C526 0.950 . S
H551 C527 0.949 . S
H552 C529 0.950 . S
H553 C531 0.950 . S
C554 C555 1.349 . S
C554 C556 1.327 . S
C554 H579 0.950 . S
C555 C554 1.349 . S
C555 C571 1.349 . S
C556 C554 1.327 . S
C556 C575 1.429 . S
C556 H580 0.950 . S
C557 C574 1.608 . S
C557 C576 1.334 1_565 S
C557 H581 0.949 . S
H558 C562 0.949 . S
C559 C560 1.349 . S
C559 C561 1.327 . S
C559 H582 0.950 . S
C560 C559 1.349 . S
C560 C572 1.349 . S
C561 C559 1.327 . S
C561 C577 1.429 . S
C561 H583 0.950 . S
C562 H558 0.949 . S
C562 C570 1.608 . S
C562 C578 1.334 1_545 S
H563 C571 0.950 . S
H564 C569 0.950 . S
H565 C570 0.949 . S
H566 C572 0.950 . S
H567 C573 0.950 . S
H568 C574 0.949 . S
C569 H564 0.950 . S
C569 C571 1.327 . S
C569 C575 1.429 . S
C570 C562 1.608 . S
C570 H565 0.949 . S
C570 C576 1.368 . S
C571 C555 1.349 . S
C571 H563 0.950 . S
C571 C569 1.327 . S
C572 C560 1.349 . S
C572 H566 0.950 . S
C572 C573 1.327 . S
C573 H567 0.950 . S
C573 C572 1.327 . S
C573 C577 1.429 . S
C574 C557 1.608 . S
C574 H568 0.949 . S
C574 C578 1.368 . S
C575 C556 1.429 . S
C575 C569 1.429 . S
C575 C576 1.523 . S
C576 C557 1.334 1_545 S
C576 C570 1.368 . S
C576 C575 1.523 . S
C577 C561 1.429 . S
C577 C573 1.429 . S
C577 C578 1.523 . S
C578 C562 1.334 1_565 S
C578 C574 1.368 . S
C578 C577 1.523 . S
H579 C554 0.950 . S
H580 C556 0.950 . S
H581 C557 0.949 . S
H582 C559 0.950 . S
H583 C561 0.950 . S
C584 C585 1.349 . S
C584 C586 1.327 . S
C584 H609 0.950 . S
C585 C584 1.349 . S
C585 C601 1.349 . S
C586 C584 1.327 . S
C586 C605 1.429 . S
C586 H610 0.950 . S
C587 C604 1.574 . S
C587 C606 1.368 1_554 S
C587 H611 0.949 . S
H588 C592 0.949 . S
C589 C590 1.349 . S
C589 C591 1.327 . S
C589 H612 0.950 . S
C590 C589 1.349 . S
C590 C602 1.349 . S
C591 C589 1.327 . S
C591 C607 1.429 . S
C591 H613 0.950 . S
C592 H588 0.949 . S
C592 C600 1.574 . S
C592 C608 1.368 1_556 S
H593 C601 0.950 . S
H594 C599 0.950 . S
H595 C600 0.949 . S
H596 C602 0.950 . S
H597 C603 0.950 . S
H598 C604 0.949 . S
C599 H594 0.950 . S
C599 C601 1.327 . S
C599 C605 1.429 . S
C600 C592 1.574 . S
C600 H595 0.949 . S
C600 C606 1.368 . S
C601 C585 1.349 . S
C601 H593 0.950 . S
C601 C599 1.327 . S
C602 C590 1.349 . S
C602 H596 0.950 . S
C602 C603 1.327 . S
C603 H597 0.950 . S
C603 C602 1.327 . S
C603 C607 1.429 . S
C604 C587 1.574 . S
C604 H598 0.949 . S
C604 C608 1.368 . S
C605 C586 1.429 . S
C605 C599 1.429 . S
C605 C606 1.523 . S
C606 C587 1.368 1_556 S
C606 C600 1.368 . S
C606 C605 1.523 . S
C607 C591 1.429 . S
C607 C603 1.429 . S
C607 C608 1.523 . S
C608 C592 1.368 1_554 S
C608 C604 1.368 . S
C608 C607 1.523 . S
H609 C584 0.950 . S
H610 C586 0.950 . S
H611 C587 0.949 . S
H612 C589 0.950 . S
H613 C591 0.950 . S
C614 C615 1.349 . S
C614 C616 1.327 . S
C614 H639 0.950 . S
C615 C614 1.349 . S
C615 C631 1.349 . S
C616 C614 1.327 . S
C616 C635 1.429 . S
C616 H640 0.950 . S
C617 C634 1.574 . S
C617 C636 1.368 . S
C617 H641 0.949 . S
H618 C622 0.949 . S
C619 C620 1.349 . S
C619 C621 1.327 . S
C619 H642 0.950 . S
C620 C619 1.349 . S
C620 C632 1.349 . S
C621 C619 1.327 . S
C621 C637 1.429 . S
C621 H643 0.950 . S
C622 H618 0.949 . S
C622 C630 1.574 . S
C622 C638 1.368 . S
H623 C631 0.950 . S
H624 C629 0.950 . S
H625 C630 0.949 . S
H626 C632 0.950 . S
H627 C633 0.950 . S
H628 C634 0.949 . S
C629 H624 0.950 . S
C629 C631 1.327 . S
C629 C635 1.429 . S
C630 C622 1.574 . S
C630 H625 0.949 . S
C630 C636 1.368 . S
C631 C615 1.349 . S
C631 H623 0.950 . S
C631 C629 1.327 . S
C632 C620 1.349 . S
C632 H626 0.950 . S
C632 C633 1.327 . S
C633 H627 0.950 . S
C633 C632 1.327 . S
C633 C637 1.429 . S
C634 C617 1.574 . S
C634 H628 0.949 . S
C634 C638 1.368 . S
C635 C616 1.429 . S
C635 C629 1.429 . S
C635 C636 1.523 . S
C636 C617 1.368 . S
C636 C630 1.368 . S
C636 C635 1.523 . S
C637 C621 1.429 . S
C637 C633 1.429 . S
C637 C638 1.523 . S
C638 C622 1.368 . S
C638 C634 1.368 . S
C638 C637 1.523 . S
H639 C614 0.950 . S
H640 C616 0.950 . S
H641 C617 0.949 . S
H642 C619 0.950 . S
H643 C621 0.950 . S
C644 C645 1.349 . S
C644 C646 1.327 . S
C644 H669 0.950 . S
C645 C644 1.349 . S
C645 C661 1.349 . S
C646 C644 1.327 . S
C646 C665 1.429 . S
C646 H670 0.950 . S
C647 C664 1.574 . S
C647 C666 1.368 1_556 S
C647 H671 0.949 . S
H648 C652 0.949 . S
C649 C650 1.349 . S
C649 C651 1.327 . S
C649 H672 0.950 . S
C650 C649 1.349 . S
C650 C662 1.349 . S
C651 C649 1.327 . S
C651 C667 1.429 . S
C651 H673 0.950 . S
C652 H648 0.949 . S
C652 C660 1.574 . S
C652 C668 1.368 1_554 S
H653 C661 0.950 . S
H654 C659 0.950 . S
H655 C660 0.949 . S
H656 C662 0.950 . S
H657 C663 0.950 . S
H658 C664 0.949 . S
C659 H654 0.950 . S
C659 C661 1.327 . S
C659 C665 1.429 . S
C660 C652 1.574 . S
C660 H655 0.949 . S
C660 C666 1.368 . S
C661 C645 1.349 . S
C661 H653 0.950 . S
C661 C659 1.327 . S
C662 C650 1.349 . S
C662 H656 0.950 . S
C662 C663 1.327 . S
C663 H657 0.950 . S
C663 C662 1.327 . S
C663 C667 1.429 . S
C664 C647 1.574 . S
C664 H658 0.949 . S
C664 C668 1.368 . S
C665 C646 1.429 . S
C665 C659 1.429 . S
C665 C666 1.523 . S
C666 C647 1.368 1_554 S
C666 C660 1.368 . S
C666 C665 1.523 . S
C667 C651 1.429 . S
C667 C663 1.429 . S
C667 C668 1.523 . S
C668 C652 1.368 1_556 S
C668 C664 1.368 . S
C668 C667 1.523 . S
H669 C644 0.950 . S
H670 C646 0.950 . S
H671 C647 0.949 . S
H672 C649 0.950 . S
H673 C651 0.950 . S
C674 C675 1.349 . S
C674 C676 1.327 . S
C674 H699 0.950 . S
C675 C674 1.349 . S
C675 C691 1.349 . S
C676 C674 1.327 . S
C676 C695 1.429 . S
C676 H700 0.950 . S
C677 C694 1.574 . S
C677 C696 1.368 . S
C677 H701 0.949 . S
H678 C682 0.949 . S
C679 C680 1.349 . S
C679 C681 1.327 . S
C679 H702 0.950 . S
C680 C679 1.349 . S
C680 C692 1.349 . S
C681 C679 1.327 . S
C681 C697 1.429 . S
C681 H703 0.950 . S
C682 H678 0.949 . S
C682 C690 1.574 . S
C682 C698 1.368 . S
H683 C691 0.950 . S
H684 C689 0.950 . S
H685 C690 0.949 . S
H686 C692 0.950 . S
H687 C693 0.950 . S
H688 C694 0.949 . S
C689 H684 0.950 . S
C689 C691 1.327 . S
C689 C695 1.429 . S
C690 C682 1.574 . S
C690 H685 0.949 . S
C690 C696 1.368 . S
C691 C675 1.349 . S
C691 H683 0.950 . S
C691 C689 1.327 . S
C692 C680 1.349 . S
C692 H686 0.950 . S
C692 C693 1.327 . S
C693 H687 0.950 . S
C693 C692 1.327 . S
C693 C697 1.429 . S
C694 C677 1.574 . S
C694 H688 0.949 . S
C694 C698 1.368 . S
C695 C676 1.429 . S
C695 C689 1.429 . S
C695 C696 1.523 . S
C696 C677 1.368 . S
C696 C690 1.368 . S
C696 C695 1.523 . S
C697 C681 1.429 . S
C697 C693 1.429 . S
C697 C698 1.523 . S
C698 C682 1.368 . S
C698 C694 1.368 . S
C698 C697 1.523 . S
H699 C674 0.950 . S
H700 C676 0.950 . S
H701 C677 0.949 . S
H702 C679 0.950 . S
H703 C681 0.950 . S
C704 C705 1.349 . S
C704 C706 1.327 . S
C704 H729 0.950 . S
C705 C704 1.349 . S
C705 C721 1.349 . S
C706 C704 1.327 . S
C706 C725 1.429 . S
C706 H730 0.950 . S
C707 C724 1.574 . S
C707 C726 1.368 . S
C707 H731 0.949 . S
H708 C712 0.949 . S
C709 C710 1.349 . S
C709 C711 1.327 . S
C709 H732 0.950 . S
C710 C709 1.349 . S
C710 C722 1.349 . S
C711 C709 1.327 . S
C711 C727 1.429 . S
C711 H733 0.950 . S
C712 H708 0.949 . S
C712 C720 1.574 . S
C712 C728 1.368 . S
H713 C721 0.950 . S
H714 C719 0.950 . S
H715 C720 0.949 . S
H716 C722 0.950 . S
H717 C723 0.950 . S
H718 C724 0.949 . S
C719 H714 0.950 . S
C719 C721 1.327 . S
C719 C725 1.429 . S
C720 C712 1.574 . S
C720 H715 0.949 . S
C720 C726 1.368 . S
C721 C705 1.349 . S
C721 H713 0.950 . S
C721 C719 1.327 . S
C722 C710 1.349 . S
C722 H716 0.950 . S
C722 C723 1.327 . S
C723 H717 0.950 . S
C723 C722 1.327 . S
C723 C727 1.429 . S
C724 C707 1.574 . S
C724 H718 0.949 . S
C724 C728 1.368 . S
C725 C706 1.429 . S
C725 C719 1.429 . S
C725 C726 1.523 . S
C726 C707 1.368 . S
C726 C720 1.368 . S
C726 C725 1.523 . S
C727 C711 1.429 . S
C727 C723 1.429 . S
C727 C728 1.523 . S
C728 C712 1.368 . S
C728 C724 1.368 . S
C728 C727 1.523 . S
H729 C704 0.950 . S
H730 C706 0.950 . S
H731 C707 0.949 . S
H732 C709 0.950 . S
H733 C711 0.950 . S
C734 C735 1.349 . S
C734 C736 1.327 . S
C734 H759 0.950 . S
C735 C734 1.349 . S
C735 C751 1.349 . S
C736 C734 1.327 . S
C736 C755 1.429 . S
C736 H760 0.950 . S
C737 C754 1.574 1_655 S
C737 C756 1.368 . S
C737 H761 0.949 . S
H738 C742 0.949 . S
C739 C740 1.349 . S
C739 C741 1.327 . S
C739 H762 0.950 . S
C740 C739 1.349 . S
C740 C752 1.349 . S
C741 C739 1.327 . S
C741 C757 1.429 . S
C741 H763 0.950 . S
C742 H738 0.949 . S
C742 C750 1.574 1_455 S
C742 C758 1.368 . S
H743 C751 0.950 . S
H744 C749 0.950 . S
H745 C750 0.949 . S
H746 C752 0.950 . S
H747 C753 0.950 . S
H748 C754 0.949 . S
C749 H744 0.950 . S
C749 C751 1.327 . S
C749 C755 1.429 . S
C750 C742 1.574 1_655 S
C750 H745 0.949 . S
C750 C756 1.368 . S
C751 C735 1.349 . S
C751 H743 0.950 . S
C751 C749 1.327 . S
C752 C740 1.349 . S
C752 H746 0.950 . S
C752 C753 1.327 . S
C753 H747 0.950 . S
C753 C752 1.327 . S
C753 C757 1.429 . S
C754 C737 1.574 1_455 S
C754 H748 0.949 . S
C754 C758 1.368 . S
C755 C736 1.429 . S
C755 C749 1.429 . S
C755 C756 1.523 . S
C756 C737 1.368 . S
C756 C750 1.368 . S
C756 C755 1.523 . S
C757 C741 1.429 . S
C757 C753 1.429 . S
C757 C758 1.523 . S
C758 C742 1.368 . S
C758 C754 1.368 . S
C758 C757 1.523 . S
H759 C734 0.950 . S
H760 C736 0.950 . S
H761 C737 0.949 . S
H762 C739 0.950 . S
H763 C741 0.950 . S
C764 C765 1.349 . S
C764 C766 1.327 . S
C764 H789 0.950 . S
C765 C764 1.349 . S
C765 C781 1.349 . S
C766 C764 1.327 . S
C766 C785 1.429 . S
C766 H790 0.950 . S
C767 C784 1.574 . S
C767 C786 1.368 . S
C767 H791 0.949 . S
H768 C772 0.949 . S
C769 C770 1.349 . S
C769 C771 1.327 . S
C769 H792 0.950 . S
C770 C769 1.349 . S
C770 C782 1.349 . S
C771 C769 1.327 . S
C771 C787 1.429 . S
C771 H793 0.950 . S
C772 H768 0.949 . S
C772 C780 1.574 . S
C772 C788 1.368 . S
H773 C781 0.950 . S
H774 C779 0.950 . S
H775 C780 0.949 . S
H776 C782 0.950 . S
H777 C783 0.950 . S
H778 C784 0.949 . S
C779 H774 0.950 . S
C779 C781 1.327 . S
C779 C785 1.429 . S
C780 C772 1.574 . S
C780 H775 0.949 . S
C780 C786 1.368 . S
C781 C765 1.349 . S
C781 H773 0.950 . S
C781 C779 1.327 . S
C782 C770 1.349 . S
C782 H776 0.950 . S
C782 C783 1.327 . S
C783 H777 0.950 . S
C783 C782 1.327 . S
C783 C787 1.429 . S
C784 C767 1.574 . S
C784 H778 0.949 . S
C784 C788 1.368 . S
C785 C766 1.429 . S
C785 C779 1.429 . S
C785 C786 1.523 . S
C786 C767 1.368 . S
C786 C780 1.368 . S
C786 C785 1.523 . S
C787 C771 1.429 . S
C787 C783 1.429 . S
C787 C788 1.523 . S
C788 C772 1.368 . S
C788 C784 1.368 . S
C788 C787 1.523 . S
H789 C764 0.950 . S
H790 C766 0.950 . S
H791 C767 0.949 . S
H792 C769 0.950 . S
H793 C771 0.950 . S
C794 C795 1.349 . S
C794 C796 1.327 . S
C794 H819 0.950 . S
C795 C794 1.349 . S
C795 C811 1.349 . S
C796 C794 1.327 . S
C796 C815 1.429 . S
C796 H820 0.950 . S
C797 C814 1.574 1_455 S
C797 C816 1.368 . S
C797 H821 0.949 . S
H798 C802 0.949 . S
C799 C800 1.349 . S
C799 C801 1.327 . S
C799 H822 0.950 . S
C800 C799 1.349 . S
C800 C812 1.349 . S
C801 C799 1.327 . S
C801 C817 1.429 . S
C801 H823 0.950 . S
C802 H798 0.949 . S
C802 C810 1.574 1_655 S
C802 C818 1.368 . S
H803 C811 0.950 . S
H804 C809 0.950 . S
H805 C810 0.949 . S
H806 C812 0.950 . S
H807 C813 0.950 . S
H808 C814 0.949 . S
C809 H804 0.950 . S
C809 C811 1.327 . S
C809 C815 1.429 . S
C810 C802 1.574 1_455 S
C810 H805 0.949 . S
C810 C816 1.368 . S
C811 C795 1.349 . S
C811 H803 0.950 . S
C811 C809 1.327 . S
C812 C800 1.349 . S
C812 H806 0.950 . S
C812 C813 1.327 . S
C813 H807 0.950 . S
C813 C812 1.327 . S
C813 C817 1.429 . S
C814 C797 1.574 1_655 S
C814 H808 0.949 . S
C814 C818 1.368 . S
C815 C796 1.429 . S
C815 C809 1.429 . S
C815 C816 1.523 . S
C816 C797 1.368 . S
C816 C810 1.368 . S
C816 C815 1.523 . S
C817 C801 1.429 . S
C817 C813 1.429 . S
C817 C818 1.523 . S
C818 C802 1.368 . S
C818 C814 1.368 . S
C818 C817 1.523 . S
H819 C794 0.950 . S
H820 C796 0.950 . S
H821 C797 0.949 . S
H822 C799 0.950 . S
H823 C801 0.950 . S
C824 C825 1.349 . S
C824 C826 1.327 . S
C824 H849 0.950 . S
C825 C824 1.349 . S
C825 C841 1.349 . S
C826 C824 1.327 . S
C826 C845 1.429 . S
C826 H850 0.950 . S
C827 C844 1.574 1_455 S
C827 C846 1.368 . S
C827 H851 0.949 . S
H828 C832 0.949 . S
C829 C830 1.349 . S
C829 C831 1.327 . S
C829 H852 0.950 . S
C830 C829 1.349 . S
C830 C842 1.349 . S
C831 C829 1.327 . S
C831 C847 1.429 . S
C831 H853 0.950 . S
C832 H828 0.949 . S
C832 C840 1.574 1_655 S
C832 C848 1.368 . S
H833 C841 0.950 . S
H834 C839 0.950 . S
H835 C840 0.949 . S
H836 C842 0.950 . S
H837 C843 0.950 . S
H838 C844 0.949 . S
C839 H834 0.950 . S
C839 C841 1.327 . S
C839 C845 1.429 . S
C840 C832 1.574 1_455 S
C840 H835 0.949 . S
C840 C846 1.368 . S
C841 C825 1.349 . S
C841 H833 0.950 . S
C841 C839 1.327 . S
C842 C830 1.349 . S
C842 H836 0.950 . S
C842 C843 1.327 . S
C843 H837 0.950 . S
C843 C842 1.327 . S
C843 C847 1.429 . S
C844 C827 1.574 1_655 S
C844 H838 0.949 . S
C844 C848 1.368 . S
C845 C826 1.429 . S
C845 C839 1.429 . S
C845 C846 1.523 . S
C846 C827 1.368 . S
C846 C840 1.368 . S
C846 C845 1.523 . S
C847 C831 1.429 . S
C847 C843 1.429 . S
C847 C848 1.523 . S
C848 C832 1.368 . S
C848 C844 1.368 . S
C848 C847 1.523 . S
H849 C824 0.950 . S
H850 C826 0.950 . S
H851 C827 0.949 . S
H852 C829 0.950 . S
H853 C831 0.950 . S
C854 C855 1.349 . S
C854 C856 1.327 . S
C854 H879 0.950 . S
C855 C854 1.349 . S
C855 C871 1.349 . S
C856 C854 1.327 . S
C856 C875 1.429 . S
C856 H880 0.950 . S
C857 C874 1.574 . S
C857 C876 1.368 . S
C857 H881 0.949 . S
H858 C862 0.949 . S
C859 C860 1.349 . S
C859 C861 1.327 . S
C859 H882 0.950 . S
C860 C859 1.349 . S
C860 C872 1.349 . S
C861 C859 1.327 . S
C861 C877 1.429 . S
C861 H883 0.950 . S
C862 H858 0.949 . S
C862 C870 1.574 . S
C862 C878 1.368 . S
H863 C871 0.950 . S
H864 C869 0.950 . S
H865 C870 0.949 . S
H866 C872 0.950 . S
H867 C873 0.950 . S
H868 C874 0.949 . S
C869 H864 0.950 . S
C869 C871 1.327 . S
C869 C875 1.429 . S
C870 C862 1.574 . S
C870 H865 0.949 . S
C870 C876 1.368 . S
C871 C855 1.349 . S
C871 H863 0.950 . S
C871 C869 1.327 . S
C872 C860 1.349 . S
C872 H866 0.950 . S
C872 C873 1.327 . S
C873 H867 0.950 . S
C873 C872 1.327 . S
C873 C877 1.429 . S
C874 C857 1.574 . S
C874 H868 0.949 . S
C874 C878 1.368 . S
C875 C856 1.429 . S
C875 C869 1.429 . S
C875 C876 1.523 . S
C876 C857 1.368 . S
C876 C870 1.368 . S
C876 C875 1.523 . S
C877 C861 1.429 . S
C877 C873 1.429 . S
C877 C878 1.523 . S
C878 C862 1.368 . S
C878 C874 1.368 . S
C878 C877 1.523 . S
H879 C854 0.950 . S
H880 C856 0.950 . S
H881 C857 0.949 . S
H882 C859 0.950 . S
H883 C861 0.950 . S
C884 C885 1.349 . S
C884 C886 1.327 . S
C884 H909 0.950 . S
C885 C884 1.349 . S
C885 C901 1.349 . S
C886 C884 1.327 . S
C886 C905 1.429 . S
C886 H910 0.950 . S
C887 C904 1.574 1_455 S
C887 C906 1.368 . S
C887 H911 0.949 . S
H888 C892 0.949 . S
C889 C890 1.349 . S
C889 C891 1.327 . S
C889 H912 0.950 . S
C890 C889 1.349 . S
C890 C902 1.349 . S
C891 C889 1.327 . S
C891 C907 1.429 . S
C891 H913 0.950 . S
C892 H888 0.949 . S
C892 C900 1.574 1_655 S
C892 C908 1.368 . S
H893 C901 0.950 . S
H894 C899 0.950 . S
H895 C900 0.949 . S
H896 C902 0.950 . S
H897 C903 0.950 . S
H898 C904 0.949 . S
C899 H894 0.950 . S
C899 C901 1.327 . S
C899 C905 1.429 . S
C900 C892 1.574 1_455 S
C900 H895 0.949 . S
C900 C906 1.368 . S
C901 C885 1.349 . S
C901 H893 0.950 . S
C901 C899 1.327 . S
C902 C890 1.349 . S
C902 H896 0.950 . S
C902 C903 1.327 . S
C903 H897 0.950 . S
C903 C902 1.327 . S
C903 C907 1.429 . S
C904 C887 1.574 1_655 S
C904 H898 0.949 . S
C904 C908 1.368 . S
C905 C886 1.429 . S
C905 C899 1.429 . S
C905 C906 1.523 . S
C906 C887 1.368 . S
C906 C900 1.368 . S
C906 C905 1.523 . S
C907 C891 1.429 . S
C907 C903 1.429 . S
C907 C908 1.523 . S
C908 C892 1.368 . S
C908 C904 1.368 . S
C908 C907 1.523 . S
H909 C884 0.950 . S
H910 C886 0.950 . S
H911 C887 0.949 . S
H912 C889 0.950 . S
H913 C891 0.950 . S
C914 C915 1.349 . S
C914 C916 1.327 . S
C914 H939 0.950 . S
C915 C914 1.349 . S
C915 C931 1.349 . S
C916 C914 1.327 . S
C916 C935 1.429 . S
C916 H940 0.950 . S
C917 C934 1.574 . S
C917 C936 1.368 . S
C917 H941 0.949 . S
H918 C922 0.949 . S
C919 C920 1.349 . S
C919 C921 1.327 . S
C919 H942 0.950 . S
C920 C919 1.349 . S
C920 C932 1.349 . S
C921 C919 1.327 . S
C921 C937 1.429 . S
C921 H943 0.950 . S
C922 H918 0.949 . S
C922 C930 1.574 . S
C922 C938 1.368 . S
H923 C931 0.950 . S
H924 C929 0.950 . S
H925 C930 0.949 . S
H926 C932 0.950 . S
H927 C933 0.950 . S
H928 C934 0.949 . S
C929 H924 0.950 . S
C929 C931 1.327 . S
C929 C935 1.429 . S
C930 C922 1.574 . S
C930 H925 0.949 . S
C930 C936 1.368 . S
C931 C915 1.349 . S
C931 H923 0.950 . S
C931 C929 1.327 . S
C932 C920 1.349 . S
C932 H926 0.950 . S
C932 C933 1.327 . S
C933 H927 0.950 . S
C933 C932 1.327 . S
C933 C937 1.429 . S
C934 C917 1.574 . S
C934 H928 0.949 . S
C934 C938 1.368 . S
C935 C916 1.429 . S
C935 C929 1.429 . S
C935 C936 1.523 . S
C936 C917 1.368 . S
C936 C930 1.368 . S
C936 C935 1.523 . S
C937 C921 1.429 . S
C937 C933 1.429 . S
C937 C938 1.523 . S
C938 C922 1.368 . S
C938 C934 1.368 . S
C938 C937 1.523 . S
H939 C914 0.950 . S
H940 C916 0.950 . S
H941 C917 0.949 . S
H942 C919 0.950 . S
H943 C921 0.950 . S
C944 C945 1.349 . S
C944 C946 1.327 . S
C944 H969 0.950 . S
C945 C944 1.349 . S
C945 C961 1.349 . S
C946 C944 1.327 . S
C946 C965 1.429 . S
C946 H970 0.950 . S
C947 C964 1.574 . S
C947 C966 1.368 . S
C947 H971 0.949 . S
H948 C952 0.949 . S
C949 C950 1.349 . S
C949 C951 1.327 . S
C949 H972 0.950 . S
C950 C949 1.349 . S
C950 C962 1.349 . S
C951 C949 1.327 . S
C951 C967 1.429 . S
C951 H973 0.950 . S
C952 H948 0.949 . S
C952 C960 1.574 . S
C952 C968 1.368 . S
H953 C961 0.950 . S
H954 C959 0.950 . S
H955 C960 0.949 . S
H956 C962 0.950 . S
H957 C963 0.950 . S
H958 C964 0.949 . S
C959 H954 0.950 . S
C959 C961 1.327 . S
C959 C965 1.429 . S
C960 C952 1.574 . S
C960 H955 0.949 . S
C960 C966 1.368 . S
C961 C945 1.349 . S
C961 H953 0.950 . S
C961 C959 1.327 . S
C962 C950 1.349 . S
C962 H956 0.950 . S
C962 C963 1.327 . S
C963 H957 0.950 . S
C963 C962 1.327 . S
C963 C967 1.429 . S
C964 C947 1.574 . S
C964 H958 0.949 . S
C964 C968 1.368 . S
C965 C946 1.429 . S
C965 C959 1.429 . S
C965 C966 1.523 . S
C966 C947 1.368 . S
C966 C960 1.368 . S
C966 C965 1.523 . S
C967 C951 1.429 . S
C967 C963 1.429 . S
C967 C968 1.523 . S
C968 C952 1.368 . S
C968 C964 1.368 . S
C968 C967 1.523 . S
H969 C944 0.950 . S
H970 C946 0.950 . S
H971 C947 0.949 . S
H972 C949 0.950 . S
H973 C951 0.950 . S
C974 C975 1.349 . S
C974 C976 1.327 . S
C974 H999 0.950 . S
C975 C974 1.349 . S
C975 C991 1.349 . S
C976 C974 1.327 . S
C976 C995 1.429 . S
C976 H1000 0.950 . S
C977 C994 1.574 . S
C977 C996 1.368 . S
C977 H1001 0.949 . S
H978 C982 0.949 . S
C979 C980 1.349 . S
C979 C981 1.327 . S
C979 H1002 0.950 . S
C980 C979 1.349 . S
C980 C992 1.349 . S
C981 C979 1.327 . S
C981 C997 1.429 . S
C981 H1003 0.950 . S
C982 H978 0.949 . S
C982 C990 1.574 . S
C982 C998 1.368 . S
H983 C991 0.950 . S
H984 C989 0.950 . S
H985 C990 0.949 . S
H986 C992 0.950 . S
H987 C993 0.950 . S
H988 C994 0.949 . S
C989 H984 0.950 . S
C989 C991 1.327 . S
C989 C995 1.429 . S
C990 C982 1.574 . S
C990 H985 0.949 . S
C990 C996 1.368 . S
C991 C975 1.349 . S
C991 H983 0.950 . S
C991 C989 1.327 . S
C992 C980 1.349 . S
C992 H986 0.950 . S
C992 C993 1.327 . S
C993 H987 0.950 . S
C993 C992 1.327 . S
C993 C997 1.429 . S
C994 C977 1.574 . S
C994 H988 0.949 . S
C994 C998 1.368 . S
C995 C976 1.429 . S
C995 C989 1.429 . S
C995 C996 1.523 . S
C996 C977 1.368 . S
C996 C990 1.368 . S
C996 C995 1.523 . S
C997 C981 1.429 . S
C997 C993 1.429 . S
C997 C998 1.523 . S
C998 C982 1.368 . S
C998 C994 1.368 . S
C998 C997 1.523 . S
H999 C974 0.950 . S
H1000 C976 0.950 . S
H1001 C977 0.949 . S
H1002 C979 0.950 . S
H1003 C981 0.950 . S
C1004 C1005 1.349 . S
C1004 C1006 1.327 . S
C1004 H1029 0.950 . S
C1005 C1004 1.349 . S
C1005 C1021 1.349 . S
C1006 C1004 1.327 . S
C1006 C1025 1.429 . S
C1006 H1030 0.950 . S
C1007 C1024 1.574 . S
C1007 C1026 1.368 . S
C1007 H1031 0.949 . S
H1008 C1012 0.949 . S
C1009 C1010 1.349 . S
C1009 C1011 1.327 . S
C1009 H1032 0.950 . S
C1010 C1009 1.349 . S
C1010 C1022 1.349 . S
C1011 C1009 1.327 . S
C1011 C1027 1.429 . S
C1011 H1033 0.950 . S
C1012 H1008 0.949 . S
C1012 C1020 1.574 . S
C1012 C1028 1.368 . S
H1013 C1021 0.950 . S
H1014 C1019 0.950 . S
H1015 C1020 0.949 . S
H1016 C1022 0.950 . S
H1017 C1023 0.950 . S
H1018 C1024 0.949 . S
C1019 H1014 0.950 . S
C1019 C1021 1.327 . S
C1019 C1025 1.429 . S
C1020 C1012 1.574 . S
C1020 H1015 0.949 . S
C1020 C1026 1.368 . S
C1021 C1005 1.349 . S
C1021 H1013 0.950 . S
C1021 C1019 1.327 . S
C1022 C1010 1.349 . S
C1022 H1016 0.950 . S
C1022 C1023 1.327 . S
C1023 H1017 0.950 . S
C1023 C1022 1.327 . S
C1023 C1027 1.429 . S
C1024 C1007 1.574 . S
C1024 H1018 0.949 . S
C1024 C1028 1.368 . S
C1025 C1006 1.429 . S
C1025 C1019 1.429 . S
C1025 C1026 1.523 . S
C1026 C1007 1.368 . S
C1026 C1020 1.368 . S
C1026 C1025 1.523 . S
C1027 C1011 1.429 . S
C1027 C1023 1.429 . S
C1027 C1028 1.523 . S
C1028 C1012 1.368 . S
C1028 C1024 1.368 . S
C1028 C1027 1.523 . S
H1029 C1004 0.950 . S
H1030 C1006 0.950 . S
H1031 C1007 0.949 . S
H1032 C1009 0.950 . S
H1033 C1011 0.950 . S
C1034 C1035 1.349 . S
C1034 C1036 1.327 . S
C1034 H1059 0.950 . S
C1035 C1034 1.349 . S
C1035 C1051 1.349 . S
C1036 C1034 1.327 . S
C1036 C1055 1.429 . S
C1036 H1060 0.950 . S
C1037 C1054 1.574 . S
C1037 C1056 1.368 . S
C1037 H1061 0.949 . S
H1038 C1042 0.949 . S
C1039 C1040 1.349 . S
C1039 C1041 1.327 . S
C1039 H1062 0.950 . S
C1040 C1039 1.349 . S
C1040 C1052 1.349 . S
C1041 C1039 1.327 . S
C1041 C1057 1.429 . S
C1041 H1063 0.950 . S
C1042 H1038 0.949 . S
C1042 C1050 1.574 . S
C1042 C1058 1.368 . S
H1043 C1051 0.950 . S
H1044 C1049 0.950 . S
H1045 C1050 0.949 . S
H1046 C1052 0.950 . S
H1047 C1053 0.950 . S
H1048 C1054 0.949 . S
C1049 H1044 0.950 . S
C1049 C1051 1.327 . S
C1049 C1055 1.429 . S
C1050 C1042 1.574 . S
C1050 H1045 0.949 . S
C1050 C1056 1.368 . S
C1051 C1035 1.349 . S
C1051 H1043 0.950 . S
C1051 C1049 1.327 . S
C1052 C1040 1.349 . S
C1052 H1046 0.950 . S
C1052 C1053 1.327 . S
C1053 H1047 0.950 . S
C1053 C1052 1.327 . S
C1053 C1057 1.429 . S
C1054 C1037 1.574 . S
C1054 H1048 0.949 . S
C1054 C1058 1.368 . S
C1055 C1036 1.429 . S
C1055 C1049 1.429 . S
C1055 C1056 1.523 . S
C1056 C1037 1.368 . S
C1056 C1050 1.368 . S
C1056 C1055 1.523 . S
C1057 C1041 1.429 . S
C1057 C1053 1.429 . S
C1057 C1058 1.523 . S
C1058 C1042 1.368 . S
C1058 C1054 1.368 . S
C1058 C1057 1.523 . S
H1059 C1034 0.950 . S
H1060 C1036 0.950 . S
H1061 C1037 0.949 . S
H1062 C1039 0.950 . S
H1063 C1041 0.950 . S
C1064 C1065 1.349 . S
C1064 C1066 1.327 . S
C1064 H1089 0.950 . S
C1065 C1064 1.349 . S
C1065 C1081 1.349 . S
C1066 C1064 1.327 . S
C1066 C1085 1.429 . S
C1066 H1090 0.950 . S
C1067 C1084 1.574 . S
C1067 C1086 1.368 . S
C1067 H1091 0.949 . S
H1068 C1072 0.949 . S
C1069 C1070 1.349 . S
C1069 C1071 1.327 . S
C1069 H1092 0.950 . S
C1070 C1069 1.349 . S
C1070 C1082 1.349 . S
C1071 C1069 1.327 . S
C1071 C1087 1.429 . S
C1071 H1093 0.950 . S
C1072 H1068 0.949 . S
C1072 C1080 1.574 . S
C1072 C1088 1.368 . S
H1073 C1081 0.950 . S
H1074 C1079 0.950 . S
H1075 C1080 0.949 . S
H1076 C1082 0.950 . S
H1077 C1083 0.950 . S
H1078 C1084 0.949 . S
C1079 H1074 0.950 . S
C1079 C1081 1.327 . S
C1079 C1085 1.429 . S
C1080 C1072 1.574 . S
C1080 H1075 0.949 . S
C1080 C1086 1.368 . S
C1081 C1065 1.349 . S
C1081 H1073 0.950 . S
C1081 C1079 1.327 . S
C1082 C1070 1.349 . S
C1082 H1076 0.950 . S
C1082 C1083 1.327 . S
C1083 H1077 0.950 . S
C1083 C1082 1.327 . S
C1083 C1087 1.429 . S
C1084 C1067 1.574 . S
C1084 H1078 0.949 . S
C1084 C1088 1.368 . S
C1085 C1066 1.429 . S
C1085 C1079 1.429 . S
C1085 C1086 1.523 . S
C1086 C1067 1.368 . S
C1086 C1080 1.368 . S
C1086 C1085 1.523 . S
C1087 C1071 1.429 . S
C1087 C1083 1.429 . S
C1087 C1088 1.523 . S
C1088 C1072 1.368 . S
C1088 C1084 1.368 . S
C1088 C1087 1.523 . S
H1089 C1064 0.950 . S
H1090 C1066 0.950 . S
H1091 C1067 0.949 . S
H1092 C1069 0.950 . S
H1093 C1071 0.950 . S
C1094 C1095 1.349 . S
C1094 C1096 1.327 . S
C1094 H1119 0.950 . S
C1095 C1094 1.349 . S
C1095 C1111 1.349 . S
C1096 C1094 1.327 . S
C1096 C1115 1.429 . S
C1096 H1120 0.950 . S
C1097 C1114 1.574 . S
C1097 C1116 1.368 . S
C1097 H1121 0.949 . S
H1098 C1102 0.949 . S
C1099 C1100 1.349 . S
C1099 C1101 1.327 . S
C1099 H1122 0.950 . S
C1100 C1099 1.349 . S
C1100 C1112 1.349 . S
C1101 C1099 1.327 . S
C1101 C1117 1.429 . S
C1101 H1123 0.950 . S
C1102 H1098 0.949 . S
C1102 C1110 1.574 . S
C1102 C1118 1.368 . S
H1103 C1111 0.950 . S
H1104 C1109 0.950 . S
H1105 C1110 0.949 . S
H1106 C1112 0.950 . S
H1107 C1113 0.950 . S
H1108 C1114 0.949 . S
C1109 H1104 0.950 . S
C1109 C1111 1.327 . S
C1109 C1115 1.429 . S
C1110 C1102 1.574 . S
C1110 H1105 0.949 . S
C1110 C1116 1.368 . S
C1111 C1095 1.349 . S
C1111 H1103 0.950 . S
C1111 C1109 1.327 . S
C1112 C1100 1.349 . S
C1112 H1106 0.950 . S
C1112 C1113 1.327 . S
C1113 H1107 0.950 . S
C1113 C1112 1.327 . S
C1113 C1117 1.429 . S
C1114 C1097 1.574 . S
C1114 H1108 0.949 . S
C1114 C1118 1.368 . S
C1115 C1096 1.429 . S
C1115 C1109 1.429 . S
C1115 C1116 1.523 . S
C1116 C1097 1.368 . S
C1116 C1110 1.368 . S
C1116 C1115 1.523 . S
C1117 C1101 1.429 . S
C1117 C1113 1.429 . S
C1117 C1118 1.523 . S
C1118 C1102 1.368 . S
C1118 C1114 1.368 . S
C1118 C1117 1.523 . S
H1119 C1094 0.950 . S
H1120 C1096 0.950 . S
H1121 C1097 0.949 . S
H1122 C1099 0.950 . S
H1123 C1101 0.950 . S
C1124 C1125 1.349 . S
C1124 C1126 1.327 . S
C1124 H1149 0.950 . S
C1125 C1124 1.349 . S
C1125 C1141 1.349 . S
C1126 C1124 1.327 . S
C1126 C1145 1.429 . S
C1126 H1150 0.950 . S
C1127 C1144 1.574 . S
C1127 C1146 1.368 . S
C1127 H1151 0.949 . S
H1128 C1132 0.949 . S
C1129 C1130 1.349 . S
C1129 C1131 1.327 . S
C1129 H1152 0.950 . S
C1130 C1129 1.349 . S
C1130 C1142 1.349 . S
C1131 C1129 1.327 . S
C1131 C1147 1.429 . S
C1131 H1153 0.950 . S
C1132 H1128 0.949 . S
C1132 C1140 1.574 . S
C1132 C1148 1.368 . S
H1133 C1141 0.950 . S
H1134 C1139 0.950 . S
H1135 C1140 0.949 . S
H1136 C1142 0.950 . S
H1137 C1143 0.950 . S
H1138 C1144 0.949 . S
C1139 H1134 0.950 . S
C1139 C1141 1.327 . S
C1139 C1145 1.429 . S
C1140 C1132 1.574 . S
C1140 H1135 0.949 . S
C1140 C1146 1.368 . S
C1141 C1125 1.349 . S
C1141 H1133 0.950 . S
C1141 C1139 1.327 . S
C1142 C1130 1.349 . S
C1142 H1136 0.950 . S
C1142 C1143 1.327 . S
C1143 H1137 0.950 . S
C1143 C1142 1.327 . S
C1143 C1147 1.429 . S
C1144 C1127 1.574 . S
C1144 H1138 0.949 . S
C1144 C1148 1.368 . S
C1145 C1126 1.429 . S
C1145 C1139 1.429 . S
C1145 C1146 1.523 . S
C1146 C1127 1.368 . S
C1146 C1140 1.368 . S
C1146 C1145 1.523 . S
C1147 C1131 1.429 . S
C1147 C1143 1.429 . S
C1147 C1148 1.523 . S
C1148 C1132 1.368 . S
C1148 C1144 1.368 . S
C1148 C1147 1.523 . S
H1149 C1124 0.950 . S
H1150 C1126 0.950 . S
H1151 C1127 0.949 . S
H1152 C1129 0.950 . S
H1153 C1131 0.950 . S
C1154 C1155 1.349 . S
C1154 C1156 1.327 . S
C1154 H1179 0.950 . S
C1155 C1154 1.349 . S
C1155 C1171 1.349 . S
C1156 C1154 1.327 . S
C1156 C1175 1.429 . S
C1156 H1180 0.950 . S
C1157 C1174 1.574 . S
C1157 C1176 1.368 . S
C1157 H1181 0.949 . S
H1158 C1162 0.949 . S
C1159 C1160 1.349 . S
C1159 C1161 1.327 . S
C1159 H1182 0.950 . S
C1160 C1159 1.349 . S
C1160 C1172 1.349 . S
C1161 C1159 1.327 . S
C1161 C1177 1.429 . S
C1161 H1183 0.950 . S
C1162 H1158 0.949 . S
C1162 C1170 1.574 . S
C1162 C1178 1.368 . S
H1163 C1171 0.950 . S
H1164 C1169 0.950 . S
H1165 C1170 0.949 . S
H1166 C1172 0.950 . S
H1167 C1173 0.950 . S
H1168 C1174 0.949 . S
C1169 H1164 0.950 . S
C1169 C1171 1.327 . S
C1169 C1175 1.429 . S
C1170 C1162 1.574 . S
C1170 H1165 0.949 . S
C1170 C1176 1.368 . S
C1171 C1155 1.349 . S
C1171 H1163 0.950 . S
C1171 C1169 1.327 . S
C1172 C1160 1.349 . S
C1172 H1166 0.950 . S
C1172 C1173 1.327 . S
C1173 H1167 0.950 . S
C1173 C1172 1.327 . S
C1173 C1177 1.429 . S
C1174 C1157 1.574 . S
C1174 H1168 0.949 . S
C1174 C1178 1.368 . S
C1175 C1156 1.429 . S
C1175 C1169 1.429 . S
C1175 C1176 1.523 . S
C1176 C1157 1.368 . S
C1176 C1170 1.368 . S
C1176 C1175 1.523 . S
C1177 C1161 1.429 . S
C1177 C1173 1.429 . S
C1177 C1178 1.523 . S
C1178 C1162 1.368 . S
C1178 C1174 1.368 . S
C1178 C1177 1.523 . S
H1179 C1154 0.950 . S
H1180 C1156 0.950 . S
H1181 C1157 0.949 . S
H1182 C1159 0.950 . S
H1183 C1161 0.950 . S
C225 C11 1.336 . S
C230 C180 1.353 . S
C255 C194 1.353 . S
C260 C25 1.336 . S
C285 C39 1.336 . S
C290 C208 1.353 . S
C315 C222 1.353 . S
C320 C53 1.336 . S
C345 C123 1.336 . S
C350 C68 1.353 . S
C375 C82 1.353 . S
C380 C137 1.336 . S
C405 C151 1.336 . S
C410 C96 1.353 . S
C435 C110 1.353 . S
C440 C165 1.336 . S
C465 C4 1.435 . S
C470 C32 1.435 . S
C495 C18 1.435 . S
C500 C46 1.435 . S
C525 C60 1.358 . S
C530 C88 1.358 . S
C555 C74 1.358 . S
C560 C102 1.358 . S
C585 C144 1.435 . S
C590 C116 1.435 . S
C615 C130 1.435 . S
C620 C158 1.435 . S
C645 C200 1.358 . S
C650 C172 1.358 . S
C675 C186 1.358 . S
C680 C214 1.358 . S
C705 C89 1.306 . S
C710 C5 1.307 . S
C735 C103 1.306 . S
C740 C19 1.307 . S
C765 C33 1.307 . S
C770 C61 1.306 . S
C795 C47 1.307 . S
C800 C75 1.306 . S
C825 C201 1.306 . S
C830 C117 1.307 . S
C855 C131 1.307 . S
C860 C215 1.306 . S
C885 C173 1.306 . S
C890 C145 1.307 . S
C915 C159 1.307 . S
C920 C187 1.306 . S
C945 C12 1.388 . S
C950 C54 1.388 . S
C975 C40 1.388 . S
C980 C26 1.388 . S
C1005 C67 1.261 . S
C1010 C109 1.261 . S
C1035 C81 1.261 . S
C1040 C95 1.261 . S
C1065 C166 1.388 . S
C1070 C124 1.388 . S
C1095 C138 1.388 . S
C1100 C152 1.388 . S
C1125 C221 1.261 . S
C1130 C179 1.261 . S
C1155 C193 1.261 . S
C1160 C207 1.261 . S
