# Generated by pormake.
# Topology lta, (4)-cn, num edge types: 1
# Building blocks:
#     Node 0, Type 0, BuildingBlock: KUFVIS_clean_sbu_0, # of connection points: 4
#     Node 1, Type 0, BuildingBlock: KUFVIS_clean_sbu_0, # of connection points: 4
#     Node 2, Type 0, BuildingBlock: KUFVIS_clean_sbu_0, # of connection points: 4
#     Node 3, Type 0, BuildingBlock: KUFVIS_clean_sbu_0, # of connection points: 4
#     Node 4, Type 0, BuildingBlock: KUFVIS_clean_sbu_0, # of connection points: 4
#     Node 5, Type 0, BuildingBlock: KUFVIS_clean_sbu_0, # of connection points: 4
#     Node 6, Type 0, BuildingBlock: KUFVIS_clean_sbu_0, # of connection points: 4
#     Node 7, Type 0, BuildingBlock: KUFVIS_clean_sbu_0, # of connection points: 4
#     Node 8, Type 0, BuildingBlock: KUFVIS_clean_sbu_0, # of connection points: 4
#     Node 9, Type 0, BuildingBlock: KUFVIS_clean_sbu_0, # of connection points: 4
#     Node 10, Type 0, BuildingBlock: KUFVIS_clean_sbu_0, # of connection points: 4
#     Node 11, Type 0, BuildingBlock: KUFVIS_clean_sbu_0, # of connection points: 4
#     Node 12, Type 0, BuildingBlock: KUFVIS_clean_sbu_0, # of connection points: 4
#     Node 13, Type 0, BuildingBlock: KUFVIS_clean_sbu_0, # of connection points: 4
#     Node 14, Type 0, BuildingBlock: KUFVIS_clean_sbu_0, # of connection points: 4
#     Node 15, Type 0, BuildingBlock: KUFVIS_clean_sbu_0, # of connection points: 4
#     Node 16, Type 0, BuildingBlock: KUFVIS_clean_sbu_0, # of connection points: 4
#     Node 17, Type 0, BuildingBlock: KUFVIS_clean_sbu_0, # of connection points: 4
#     Node 18, Type 0, BuildingBlock: KUFVIS_clean_sbu_0, # of connection points: 4
#     Node 19, Type 0, BuildingBlock: KUFVIS_clean_sbu_0, # of connection points: 4
#     Node 20, Type 0, BuildingBlock: KUFVIS_clean_sbu_0, # of connection points: 4
#     Node 21, Type 0, BuildingBlock: KUFVIS_clean_sbu_0, # of connection points: 4
#     Node 22, Type 0, BuildingBlock: KUFVIS_clean_sbu_0, # of connection points: 4
#     Node 23, Type 0, BuildingBlock: KUFVIS_clean_sbu_0, # of connection points: 4
#     Edge 24, Type (0, 0), BuildingBlock: OJICUG_clean_linker_0, # of connection points: 2
#     Edge 25, Type (0, 0), BuildingBlock: OJICUG_clean_linker_0, # of connection points: 2
#     Edge 26, Type (0, 0), BuildingBlock: OJICUG_clean_linker_0, # of connection points: 2
#     Edge 27, Type (0, 0), BuildingBlock: OJICUG_clean_linker_0, # of connection points: 2
#     Edge 28, Type (0, 0), BuildingBlock: OJICUG_clean_linker_0, # of connection points: 2
#     Edge 29, Type (0, 0), BuildingBlock: OJICUG_clean_linker_0, # of connection points: 2
#     Edge 30, Type (0, 0), BuildingBlock: OJICUG_clean_linker_0, # of connection points: 2
#     Edge 31, Type (0, 0), BuildingBlock: OJICUG_clean_linker_0, # of connection points: 2
#     Edge 32, Type (0, 0), BuildingBlock: OJICUG_clean_linker_0, # of connection points: 2
#     Edge 33, Type (0, 0), BuildingBlock: OJICUG_clean_linker_0, # of connection points: 2
#     Edge 34, Type (0, 0), BuildingBlock: OJICUG_clean_linker_0, # of connection points: 2
#     Edge 35, Type (0, 0), BuildingBlock: OJICUG_clean_linker_0, # of connection points: 2
#     Edge 36, Type (0, 0), BuildingBlock: OJICUG_clean_linker_0, # of connection points: 2
#     Edge 37, Type (0, 0), BuildingBlock: OJICUG_clean_linker_0, # of connection points: 2
#     Edge 38, Type (0, 0), BuildingBlock: OJICUG_clean_linker_0, # of connection points: 2
#     Edge 39, Type (0, 0), BuildingBlock: OJICUG_clean_linker_0, # of connection points: 2
#     Edge 40, Type (0, 0), BuildingBlock: OJICUG_clean_linker_0, # of connection points: 2
#     Edge 41, Type (0, 0), BuildingBlock: OJICUG_clean_linker_0, # of connection points: 2
#     Edge 42, Type (0, 0), BuildingBlock: OJICUG_clean_linker_0, # of connection points: 2
#     Edge 43, Type (0, 0), BuildingBlock: OJICUG_clean_linker_0, # of connection points: 2
#     Edge 44, Type (0, 0), BuildingBlock: OJICUG_clean_linker_0, # of connection points: 2
#     Edge 45, Type (0, 0), BuildingBlock: OJICUG_clean_linker_0, # of connection points: 2
#     Edge 46, Type (0, 0), BuildingBlock: OJICUG_clean_linker_0, # of connection points: 2
#     Edge 47, Type (0, 0), BuildingBlock: OJICUG_clean_linker_0, # of connection points: 2
#     Edge 48, Type (0, 0), BuildingBlock: OJICUG_clean_linker_0, # of connection points: 2
#     Edge 49, Type (0, 0), BuildingBlock: OJICUG_clean_linker_0, # of connection points: 2
#     Edge 50, Type (0, 0), BuildingBlock: OJICUG_clean_linker_0, # of connection points: 2
#     Edge 51, Type (0, 0), BuildingBlock: OJICUG_clean_linker_0, # of connection points: 2
#     Edge 52, Type (0, 0), BuildingBlock: OJICUG_clean_linker_0, # of connection points: 2
#     Edge 53, Type (0, 0), BuildingBlock: OJICUG_clean_linker_0, # of connection points: 2
#     Edge 54, Type (0, 0), BuildingBlock: OJICUG_clean_linker_0, # of connection points: 2
#     Edge 55, Type (0, 0), BuildingBlock: OJICUG_clean_linker_0, # of connection points: 2
#     Edge 56, Type (0, 0), BuildingBlock: OJICUG_clean_linker_0, # of connection points: 2
#     Edge 57, Type (0, 0), BuildingBlock: OJICUG_clean_linker_0, # of connection points: 2
#     Edge 58, Type (0, 0), BuildingBlock: OJICUG_clean_linker_0, # of connection points: 2
#     Edge 59, Type (0, 0), BuildingBlock: OJICUG_clean_linker_0, # of connection points: 2
#     Edge 60, Type (0, 0), BuildingBlock: OJICUG_clean_linker_0, # of connection points: 2
#     Edge 61, Type (0, 0), BuildingBlock: OJICUG_clean_linker_0, # of connection points: 2
#     Edge 62, Type (0, 0), BuildingBlock: OJICUG_clean_linker_0, # of connection points: 2
#     Edge 63, Type (0, 0), BuildingBlock: OJICUG_clean_linker_0, # of connection points: 2
#     Edge 64, Type (0, 0), BuildingBlock: OJICUG_clean_linker_0, # of connection points: 2
#     Edge 65, Type (0, 0), BuildingBlock: OJICUG_clean_linker_0, # of connection points: 2
#     Edge 66, Type (0, 0), BuildingBlock: OJICUG_clean_linker_0, # of connection points: 2
#     Edge 67, Type (0, 0), BuildingBlock: OJICUG_clean_linker_0, # of connection points: 2
#     Edge 68, Type (0, 0), BuildingBlock: OJICUG_clean_linker_0, # of connection points: 2
#     Edge 69, Type (0, 0), BuildingBlock: OJICUG_clean_linker_0, # of connection points: 2
#     Edge 70, Type (0, 0), BuildingBlock: OJICUG_clean_linker_0, # of connection points: 2
#     Edge 71, Type (0, 0), BuildingBlock: OJICUG_clean_linker_0, # of connection points: 2
# Relax obj value: 0.246
# Max RMSD: 0.134
# Mean RMSD: 0.134
data_MOF--net-lta--node1-KUFVIS_clean_sbu_0--edge1-OJICUG_clean_linker_0
_symmetry_space_group_name_H-M    P1
_symmetry_Int_Tables_number       1
_symmetry_cell_setting            triclinic
loop_
_symmetry_equiv_pos_as_xyz
'x, y, z'
_cell_length_a     40.978827
_cell_length_b     40.979091
_cell_length_c     40.976827
_cell_angle_alpha  90.001696
_cell_angle_beta   89.998882
_cell_angle_gamma 89.99937
loop_
_atom_site_label
_atom_site_type_symbol
_atom_site_fract_x
_atom_site_fract_y
_atom_site_fract_z
_atom_type_partial_charge
Mn0 Mn 0.13301 0.32878 0.53042 0.0
Mn1 Mn 0.20746 0.36107 0.53162 0.0
C2 C 0.15296 0.35266 0.5791 0.0
C3 C 0.07688 0.33249 0.51963 0.0
C4 C 0.19364 0.28946 0.52031 0.0
O5 O 0.14444 0.33866 0.48206 0.0
O6 O 0.18664 0.37367 0.48942 0.0
C7 C 0.19086 0.43086 0.53733 0.0
N8 N 0.2081 0.4046 0.54775 0.0
C9 C 0.23497 0.43634 0.58905 0.0
C10 C 0.22113 0.46439 0.57569 0.0
C11 C 0.19792 0.4616 0.55053 0.0
C12 C 0.22775 0.40661 0.57415 0.0
H13 H 0.17287 0.42828 0.51822 0.0
C14 C 0.16441 0.36053 0.47155 0.0
O15 O 0.09256 0.30508 0.51845 0.0
O16 O 0.09386 0.35828 0.52693 0.0
N17 N 0.22932 0.35022 0.57175 0.0
C18 C 0.23858 0.32049 0.58335 0.0
C19 C 0.25752 0.31834 0.61181 0.0
C20 C 0.2673 0.34689 0.62795 0.0
C21 C 0.25786 0.37728 0.61549 0.0
C22 C 0.23883 0.37778 0.58705 0.0
H23 H 0.23202 0.29861 0.57084 0.0
O24 O 0.12943 0.33139 0.58015 0.0
O25 O 0.16408 0.35723 0.55009 0.0
O26 O 0.16487 0.29 0.53191 0.0
O27 O 0.21024 0.31536 0.51552 0.0
C28 C 0.26627 0.40709 0.63037 0.0
C29 C 0.25494 0.43669 0.61703 0.0
H30 H 0.22787 0.48783 0.5854 0.0
H31 H 0.18568 0.48286 0.54105 0.0
H32 H 0.26485 0.29472 0.62109 0.0
H33 H 0.28197 0.34519 0.64988 0.0
H34 H 0.28105 0.40751 0.65229 0.0
H35 H 0.26098 0.4595 0.62897 0.0
Mn36 Mn 0.68558 0.13295 0.53041 0.0
Mn37 Mn 0.65334 0.20743 0.53159 0.0
C38 C 0.66172 0.15294 0.57909 0.0
C39 C 0.68181 0.07682 0.51965 0.0
C40 C 0.72495 0.19355 0.52031 0.0
O41 O 0.6757 0.14437 0.48205 0.0
O42 O 0.64075 0.18662 0.48939 0.0
C43 C 0.58355 0.19085 0.5373 0.0
N44 N 0.60981 0.20809 0.54771 0.0
C45 C 0.57807 0.23497 0.58901 0.0
C46 C 0.55002 0.22112 0.57565 0.0
C47 C 0.55282 0.19791 0.5505 0.0
C48 C 0.6078 0.22775 0.57411 0.0
H49 H 0.58613 0.17285 0.5182 0.0
C50 C 0.65386 0.16436 0.47153 0.0
O51 O 0.70924 0.09248 0.51846 0.0
O52 O 0.65604 0.09383 0.52694 0.0
N53 N 0.6642 0.22931 0.57172 0.0
C54 C 0.69392 0.23856 0.58331 0.0
C55 C 0.69607 0.25752 0.61177 0.0
C56 C 0.66752 0.2673 0.62791 0.0
C57 C 0.63714 0.25786 0.61545 0.0
C58 C 0.63663 0.23882 0.58701 0.0
H59 H 0.7158 0.232 0.57081 0.0
O60 O 0.68297 0.12939 0.58015 0.0
O61 O 0.65715 0.16406 0.55007 0.0
O62 O 0.72438 0.16478 0.5319 0.0
O63 O 0.69907 0.21018 0.51551 0.0
C64 C 0.60732 0.26629 0.63032 0.0
C65 C 0.57772 0.25495 0.61699 0.0
H66 H 0.52658 0.22786 0.58537 0.0
H67 H 0.53156 0.18566 0.54102 0.0
H68 H 0.71969 0.26485 0.62104 0.0
H69 H 0.66922 0.28199 0.64983 0.0
H70 H 0.60691 0.28107 0.65224 0.0
H71 H 0.55492 0.26099 0.62892 0.0
Mn72 Mn 0.88128 0.68552 0.53035 0.0
Mn73 Mn 0.80682 0.65326 0.53164 0.0
C74 C 0.86136 0.66166 0.57905 0.0
C75 C 0.9374 0.68179 0.51954 0.0
C76 C 0.82065 0.72487 0.52032 0.0
O77 O 0.86981 0.67561 0.48201 0.0
O78 O 0.82756 0.64067 0.4894 0.0
C79 C 0.82339 0.58347 0.5373 0.0
N80 N 0.80618 0.60973 0.54776 0.0
C81 C 0.77937 0.57799 0.5891 0.0
C82 C 0.79317 0.54994 0.5757 0.0
C83 C 0.81633 0.55273 0.5505 0.0
C84 C 0.78658 0.60772 0.5742 0.0
H85 H 0.84135 0.58604 0.51817 0.0
C86 C 0.8498 0.65378 0.47151 0.0
O87 O 0.92173 0.7092 0.51835 0.0
O88 O 0.92042 0.65601 0.52685 0.0
N89 N 0.78502 0.66412 0.57182 0.0
C90 C 0.77582 0.69385 0.58345 0.0
C91 C 0.75693 0.696 0.61196 0.0
C92 C 0.74717 0.66745 0.6281 0.0
C93 C 0.75656 0.63706 0.61561 0.0
C94 C 0.77553 0.63656 0.58713 0.0
H95 H 0.78238 0.71573 0.57094 0.0
O96 O 0.8849 0.68294 0.58009 0.0
O97 O 0.85022 0.65708 0.55005 0.0
O98 O 0.84944 0.72432 0.53186 0.0
O99 O 0.80402 0.69898 0.51556 0.0
C100 C 0.74816 0.60725 0.63049 0.0
C101 C 0.75945 0.57764 0.61712 0.0
H102 H 0.78643 0.5265 0.58541 0.0
H103 H 0.82855 0.53146 0.54099 0.0
H104 H 0.74964 0.71962 0.62126 0.0
H105 H 0.73255 0.66915 0.65006 0.0
H106 H 0.73343 0.60683 0.65244 0.0
H107 H 0.75343 0.55484 0.62907 0.0
Mn108 Mn 0.32865 0.8814 0.53036 0.0
Mn109 Mn 0.36089 0.80694 0.53161 0.0
C110 C 0.35249 0.86146 0.57906 0.0
C111 C 0.3324 0.93752 0.51955 0.0
C112 C 0.28929 0.82079 0.52027 0.0
O113 O 0.33855 0.86994 0.48201 0.0
O114 O 0.37352 0.82772 0.4894 0.0
C115 C 0.43069 0.8235 0.53734 0.0
N116 N 0.40441 0.80628 0.54776 0.0
C117 C 0.43613 0.77939 0.58907 0.0
C118 C 0.46419 0.7932 0.57571 0.0
C119 C 0.46142 0.81641 0.55055 0.0
C120 C 0.4064 0.78663 0.57417 0.0
H121 H 0.42813 0.84149 0.51823 0.0
C122 C 0.3604 0.84995 0.47152 0.0
O123 O 0.30498 0.92186 0.51836 0.0
O124 O 0.35818 0.92053 0.52687 0.0
N125 N 0.35001 0.7851 0.57175 0.0
C126 C 0.32027 0.77588 0.58335 0.0
C127 C 0.3181 0.75695 0.61182 0.0
C128 C 0.34664 0.74715 0.62797 0.0
C129 C 0.37703 0.75656 0.61551 0.0
C130 C 0.37756 0.77558 0.58706 0.0
H131 H 0.2984 0.78246 0.57084 0.0
O132 O 0.33123 0.88501 0.5801 0.0
O133 O 0.35707 0.85032 0.55006 0.0
O134 O 0.28985 0.84957 0.53185 0.0
O135 O 0.31518 0.80417 0.5155 0.0
C136 C 0.40684 0.74812 0.63039 0.0
C137 C 0.43645 0.75942 0.61706 0.0
H138 H 0.48762 0.78644 0.58542 0.0
H139 H 0.48269 0.82863 0.54107 0.0
H140 H 0.29447 0.74964 0.6211 0.0
H141 H 0.34492 0.73249 0.6499 0.0
H142 H 0.40724 0.73335 0.65232 0.0
H143 H 0.45925 0.75337 0.629 0.0
Mn144 Mn 0.13303 0.6856 0.48388 0.0
Mn145 Mn 0.20752 0.65339 0.48272 0.0
C146 C 0.15303 0.66176 0.43521 0.0
C147 C 0.0769 0.68184 0.49463 0.0
C148 C 0.19362 0.725 0.49399 0.0
O149 O 0.14444 0.67572 0.53224 0.0
O150 O 0.18671 0.6408 0.52492 0.0
C151 C 0.19092 0.58361 0.47699 0.0
N152 N 0.20819 0.60986 0.4666 0.0
C153 C 0.23507 0.57812 0.4253 0.0
C154 C 0.2212 0.55008 0.43864 0.0
C155 C 0.19798 0.55287 0.46379 0.0
C156 C 0.22785 0.60785 0.4402 0.0
H157 H 0.17291 0.5862 0.49608 0.0
C158 C 0.16444 0.6539 0.54278 0.0
O159 O 0.09255 0.70926 0.49583 0.0
O160 O 0.09391 0.65607 0.48734 0.0
N161 N 0.2294 0.66425 0.44259 0.0
C162 C 0.23866 0.69397 0.431 0.0
C163 C 0.25763 0.69612 0.40254 0.0
C164 C 0.26741 0.66757 0.38641 0.0
C165 C 0.25797 0.63719 0.39887 0.0
C166 C 0.23893 0.63668 0.4273 0.0
H167 H 0.2321 0.71585 0.4435 0.0
O168 O 0.12948 0.68301 0.43414 0.0
O169 O 0.16415 0.65719 0.46423 0.0
O170 O 0.16484 0.72442 0.48241 0.0
O171 O 0.21026 0.69912 0.49879 0.0
C172 C 0.2664 0.60737 0.384 0.0
C173 C 0.25505 0.57777 0.39733 0.0
H174 H 0.22792 0.52663 0.42892 0.0
H175 H 0.18571 0.53162 0.47326 0.0
H176 H 0.26496 0.71974 0.39328 0.0
H177 H 0.2821 0.66927 0.36449 0.0
H178 H 0.28118 0.60695 0.36208 0.0
H179 H 0.26109 0.55497 0.38539 0.0
Mn180 Mn 0.32873 0.13313 0.48384 0.0
Mn181 Mn 0.36102 0.20758 0.48272 0.0
C182 C 0.35261 0.15313 0.43517 0.0
C183 C 0.33245 0.077 0.49458 0.0
C184 C 0.28941 0.19375 0.494 0.0
O185 O 0.33861 0.14452 0.53221 0.0
O186 O 0.37362 0.18672 0.52489 0.0
C187 C 0.43079 0.19093 0.47695 0.0
N188 N 0.40455 0.20822 0.46658 0.0
C189 C 0.4363 0.2351 0.42529 0.0
C190 C 0.46433 0.2212 0.43861 0.0
C191 C 0.46153 0.19796 0.46373 0.0
C192 C 0.40656 0.2279 0.4402 0.0
H193 H 0.4282 0.17291 0.49603 0.0
C194 C 0.36048 0.16448 0.54275 0.0
O195 O 0.30503 0.09268 0.49577 0.0
O196 O 0.35824 0.09399 0.4873 0.0
N197 N 0.35017 0.22951 0.44261 0.0
C198 C 0.32045 0.23882 0.43105 0.0
C199 C 0.3183 0.25781 0.40262 0.0
C200 C 0.34685 0.26758 0.38648 0.0
C201 C 0.37724 0.25809 0.39891 0.0
C202 C 0.37774 0.23902 0.42732 0.0
H203 H 0.29857 0.23228 0.44357 0.0
O204 O 0.33134 0.12959 0.4341 0.0
O205 O 0.35718 0.16423 0.4642 0.0
O206 O 0.28995 0.16499 0.48237 0.0
O207 O 0.3153 0.21035 0.49882 0.0
C208 C 0.40706 0.2665 0.38403 0.0
C209 C 0.43665 0.25511 0.39734 0.0
H210 H 0.48778 0.22791 0.42888 0.0
H211 H 0.48278 0.18567 0.47319 0.0
H212 H 0.29469 0.26519 0.39338 0.0
H213 H 0.34516 0.28229 0.36458 0.0
H214 H 0.40747 0.2813 0.36213 0.0
H215 H 0.45945 0.26114 0.38539 0.0
Mn216 Mn 0.88127 0.32867 0.48392 0.0
Mn217 Mn 0.8068 0.36091 0.48278 0.0
C218 C 0.86127 0.35251 0.43525 0.0
C219 C 0.9374 0.33243 0.49467 0.0
C220 C 0.82068 0.28931 0.49408 0.0
O221 O 0.86987 0.33857 0.53229 0.0
O222 O 0.82764 0.37353 0.52496 0.0
C223 C 0.82342 0.43068 0.47699 0.0
N224 N 0.80613 0.40443 0.46664 0.0
C225 C 0.77921 0.43616 0.42536 0.0
C226 C 0.7931 0.4642 0.43866 0.0
C227 C 0.81636 0.46142 0.46377 0.0
C228 C 0.78644 0.40643 0.44026 0.0
H229 H 0.84145 0.42811 0.49606 0.0
C230 C 0.8499 0.36042 0.54282 0.0
O231 O 0.92174 0.30501 0.49587 0.0
O232 O 0.9204 0.35821 0.48738 0.0
N233 N 0.78488 0.35004 0.44268 0.0
C234 C 0.77558 0.32031 0.43112 0.0
C235 C 0.75658 0.31815 0.4027 0.0
C236 C 0.74678 0.34669 0.38657 0.0
C237 C 0.75625 0.37708 0.39899 0.0
C238 C 0.77534 0.3776 0.4274 0.0
H239 H 0.78215 0.29843 0.44364 0.0
O240 O 0.88481 0.33126 0.43419 0.0
O241 O 0.85016 0.35709 0.46427 0.0
O242 O 0.84944 0.28987 0.48246 0.0
O243 O 0.80406 0.3152 0.49889 0.0
C244 C 0.74781 0.40689 0.38412 0.0
C245 C 0.75918 0.43649 0.39741 0.0
H246 H 0.78637 0.48764 0.42894 0.0
H247 H 0.82864 0.48268 0.47321 0.0
H248 H 0.74922 0.29452 0.39346 0.0
H249 H 0.73206 0.34498 0.36467 0.0
H250 H 0.73299 0.40729 0.36223 0.0
H251 H 0.75314 0.45929 0.38547 0.0
Mn252 Mn 0.6855 0.8812 0.48398 0.0
Mn253 Mn 0.65327 0.80671 0.48272 0.0
C254 C 0.66166 0.86125 0.43528 0.0
C255 C 0.68176 0.93732 0.49477 0.0
C256 C 0.72487 0.82057 0.49403 0.0
O257 O 0.67558 0.86975 0.53232 0.0
O258 O 0.64068 0.82746 0.52496 0.0
C259 C 0.58348 0.82331 0.47703 0.0
N260 N 0.60974 0.80607 0.4666 0.0
C261 C 0.57799 0.77924 0.42527 0.0
C262 C 0.54995 0.79307 0.43865 0.0
C263 C 0.55274 0.81625 0.46383 0.0
C264 C 0.60773 0.78645 0.44017 0.0
H265 H 0.58607 0.84129 0.49614 0.0
C266 C 0.65376 0.84972 0.54283 0.0
O267 O 0.70918 0.92165 0.49597 0.0
O268 O 0.65598 0.92033 0.48746 0.0
N269 N 0.66412 0.7849 0.44255 0.0
C270 C 0.69385 0.77569 0.43092 0.0
C271 C 0.696 0.75678 0.40243 0.0
C272 C 0.66745 0.74701 0.38629 0.0
C273 C 0.63706 0.75641 0.39878 0.0
C274 C 0.63656 0.7754 0.42725 0.0
H275 H 0.71573 0.78225 0.44343 0.0
O276 O 0.68292 0.88479 0.43424 0.0
O277 O 0.65707 0.85011 0.46429 0.0
O278 O 0.72431 0.84937 0.4825 0.0
O279 O 0.69899 0.80394 0.49879 0.0
C280 C 0.60725 0.74801 0.3839 0.0
C281 C 0.57765 0.75931 0.39726 0.0
H282 H 0.5265 0.78635 0.42893 0.0
H283 H 0.53148 0.82849 0.47333 0.0
H284 H 0.71962 0.74949 0.39313 0.0
H285 H 0.66915 0.73237 0.36434 0.0
H286 H 0.60683 0.73327 0.36195 0.0
H287 H 0.55484 0.75329 0.38531 0.0
Mn288 Mn 0.53043 0.13299 0.32873 0.0
Mn289 Mn 0.53167 0.20747 0.36096 0.0
C290 C 0.57911 0.15294 0.35259 0.0
C291 C 0.51963 0.07687 0.33248 0.0
C292 C 0.52038 0.19361 0.28935 0.0
O293 O 0.48208 0.14445 0.33862 0.0
O294 O 0.48944 0.18672 0.37355 0.0
C295 C 0.53734 0.1909 0.43076 0.0
N296 N 0.54778 0.20813 0.4045 0.0
C297 C 0.58909 0.23497 0.43625 0.0
C298 C 0.57571 0.22115 0.4643 0.0
C299 C 0.55054 0.19796 0.4615 0.0
C300 C 0.5742 0.22775 0.40651 0.0
H301 H 0.51824 0.17291 0.42817 0.0
C302 C 0.47157 0.16447 0.36044 0.0
O303 O 0.51844 0.09254 0.30506 0.0
O304 O 0.52693 0.09386 0.35826 0.0
N305 N 0.57184 0.2293 0.35011 0.0
C306 C 0.58346 0.23851 0.32039 0.0
C307 C 0.61195 0.25743 0.31824 0.0
C308 C 0.62807 0.26721 0.34679 0.0
C309 C 0.61559 0.25781 0.37718 0.0
C310 C 0.58712 0.23881 0.37768 0.0
H311 H 0.57097 0.23194 0.2985 0.0
O312 O 0.58016 0.12939 0.33133 0.0
O313 O 0.55011 0.16408 0.35716 0.0
O314 O 0.53193 0.16482 0.28992 0.0
O315 O 0.51561 0.21024 0.31523 0.0
C316 C 0.63045 0.26622 0.407 0.0
C317 C 0.61709 0.25492 0.4366 0.0
H318 H 0.58542 0.22788 0.48775 0.0
H319 H 0.54104 0.18573 0.48276 0.0
H320 H 0.62124 0.26473 0.29462 0.0
H321 H 0.65002 0.28186 0.3451 0.0
H322 H 0.65239 0.28097 0.40742 0.0
H323 H 0.62903 0.26095 0.45941 0.0
Mn324 Mn 0.88122 0.53032 0.32875 0.0
Mn325 Mn 0.80674 0.53147 0.36098 0.0
C326 C 0.86121 0.579 0.35259 0.0
C327 C 0.93736 0.51959 0.3325 0.0
C328 C 0.82062 0.52019 0.28937 0.0
O329 O 0.86983 0.48196 0.33864 0.0
O330 O 0.82756 0.48928 0.37358 0.0
C331 C 0.82336 0.53722 0.43076 0.0
N332 N 0.80608 0.54759 0.40451 0.0
C333 C 0.77919 0.58888 0.43626 0.0
C334 C 0.79307 0.57555 0.4643 0.0
C335 C 0.81631 0.55042 0.4615 0.0
C336 C 0.78641 0.57398 0.40653 0.0
H337 H 0.84138 0.51814 0.42817 0.0
C338 C 0.84983 0.47143 0.36047 0.0
O339 O 0.92169 0.51839 0.30508 0.0
O340 O 0.92035 0.52688 0.35827 0.0
N341 N 0.78483 0.57159 0.35013 0.0
C342 C 0.77555 0.58316 0.32041 0.0
C343 C 0.75656 0.6116 0.31826 0.0
C344 C 0.74678 0.62773 0.34681 0.0
C345 C 0.75624 0.61529 0.3772 0.0
C346 C 0.77531 0.58687 0.3777 0.0
H347 H 0.78211 0.57065 0.29852 0.0
O348 O 0.88475 0.58006 0.33133 0.0
O349 O 0.8501 0.54998 0.35717 0.0
O350 O 0.84939 0.53178 0.28994 0.0
O351 O 0.80399 0.51539 0.31526 0.0
C352 C 0.74782 0.63016 0.40702 0.0
C353 C 0.75918 0.61684 0.43662 0.0
H354 H 0.78635 0.58527 0.48775 0.0
H355 H 0.82859 0.54096 0.48275 0.0
H356 H 0.74921 0.62086 0.29464 0.0
H357 H 0.73207 0.64963 0.34512 0.0
H358 H 0.73302 0.65206 0.40743 0.0
H359 H 0.75315 0.62878 0.45942 0.0
Mn360 Mn 0.48389 0.88126 0.32874 0.0
Mn361 Mn 0.48267 0.8068 0.36102 0.0
C362 C 0.4352 0.86131 0.3526 0.0
C363 C 0.49468 0.93738 0.33248 0.0
C364 C 0.49398 0.82063 0.2894 0.0
O365 O 0.53224 0.86982 0.33864 0.0
O366 O 0.52487 0.8276 0.37362 0.0
C367 C 0.47696 0.82341 0.43081 0.0
N368 N 0.46654 0.80617 0.40455 0.0
C369 C 0.4252 0.77935 0.43629 0.0
C370 C 0.43857 0.79319 0.46434 0.0
C371 C 0.46374 0.81638 0.46155 0.0
C372 C 0.44011 0.78655 0.40656 0.0
H373 H 0.49608 0.84139 0.42823 0.0
C374 C 0.54275 0.84983 0.36049 0.0
O375 O 0.49587 0.92171 0.30506 0.0
O376 O 0.48738 0.9204 0.35826 0.0
N377 N 0.44252 0.78495 0.35016 0.0
C378 C 0.43094 0.77568 0.32044 0.0
C379 C 0.40246 0.75676 0.31829 0.0
C380 C 0.3863 0.74701 0.34684 0.0
C381 C 0.39876 0.75646 0.37722 0.0
C382 C 0.42721 0.77547 0.37773 0.0
H383 H 0.44346 0.78222 0.29856 0.0
O384 O 0.43416 0.88485 0.33133 0.0
O385 O 0.46421 0.85018 0.35718 0.0
O386 O 0.4824 0.84941 0.28995 0.0
O387 O 0.49876 0.80402 0.3153 0.0
C388 C 0.38387 0.74806 0.40704 0.0
C389 C 0.39721 0.7594 0.43664 0.0
H390 H 0.42884 0.78647 0.48778 0.0
H391 H 0.47322 0.82862 0.48281 0.0
H392 H 0.39319 0.74942 0.29467 0.0
H393 H 0.36437 0.73235 0.34514 0.0
H394 H 0.36194 0.73331 0.40746 0.0
H395 H 0.38526 0.75338 0.45945 0.0
Mn396 Mn 0.13299 0.48395 0.32875 0.0
Mn397 Mn 0.20747 0.48272 0.36098 0.0
C398 C 0.15294 0.43527 0.35261 0.0
C399 C 0.07686 0.49474 0.3325 0.0
C400 C 0.1936 0.49399 0.28937 0.0
O401 O 0.14444 0.5323 0.33863 0.0
O402 O 0.1867 0.52494 0.37356 0.0
C403 C 0.1909 0.47707 0.43078 0.0
N404 N 0.20812 0.46662 0.40452 0.0
C405 C 0.23496 0.4253 0.43628 0.0
C406 C 0.22115 0.4387 0.46432 0.0
C407 C 0.19797 0.46388 0.46153 0.0
C408 C 0.22774 0.44019 0.40654 0.0
H409 H 0.17293 0.49618 0.4282 0.0
C410 C 0.16445 0.54281 0.36046 0.0
O411 O 0.09253 0.49592 0.30508 0.0
O412 O 0.09386 0.48744 0.35828 0.0
N413 N 0.22929 0.44255 0.35014 0.0
C414 C 0.23851 0.43093 0.32041 0.0
C415 C 0.25742 0.40244 0.31827 0.0
C416 C 0.26719 0.3863 0.34682 0.0
C417 C 0.25779 0.39879 0.37721 0.0
C418 C 0.23879 0.42726 0.37771 0.0
H419 H 0.23195 0.44343 0.29853 0.0
O420 O 0.1294 0.43422 0.33135 0.0
O421 O 0.16408 0.46428 0.35718 0.0
O422 O 0.16481 0.48244 0.28994 0.0
O423 O 0.21023 0.49877 0.31525 0.0
C424 C 0.2662 0.38393 0.40703 0.0
C425 C 0.2549 0.3973 0.43663 0.0
H426 H 0.22789 0.42899 0.48777 0.0
H427 H 0.18574 0.47339 0.48279 0.0
H428 H 0.26473 0.39314 0.29465 0.0
H429 H 0.28184 0.36436 0.34513 0.0
H430 H 0.28095 0.36199 0.40745 0.0
H431 H 0.26093 0.38536 0.45944 0.0
Mn432 Mn 0.53032 0.88122 0.68559 0.0
Mn433 Mn 0.53134 0.80675 0.65333 0.0
C434 C 0.57897 0.86115 0.66175 0.0
C435 C 0.51963 0.93736 0.68185 0.0
C436 C 0.52008 0.82063 0.72494 0.0
O437 O 0.48194 0.86988 0.67572 0.0
O438 O 0.48921 0.82768 0.6407 0.0
C439 C 0.53721 0.82342 0.58357 0.0
N440 N 0.5475 0.80608 0.60981 0.0
C441 C 0.58874 0.77909 0.57808 0.0
C442 C 0.57549 0.79305 0.55004 0.0
C443 C 0.55043 0.81636 0.55284 0.0
C444 C 0.57383 0.78633 0.60781 0.0
H445 H 0.51817 0.84149 0.58615 0.0
C446 C 0.47138 0.84994 0.65385 0.0
O447 O 0.51842 0.9217 0.70927 0.0
O448 O 0.5269 0.92035 0.65607 0.0
N449 N 0.57139 0.78474 0.6642 0.0
C450 C 0.5829 0.77538 0.69393 0.0
C451 C 0.61127 0.75629 0.69609 0.0
C452 C 0.6274 0.74648 0.66754 0.0
C453 C 0.61502 0.75601 0.63716 0.0
C454 C 0.58666 0.77518 0.63664 0.0
H455 H 0.57038 0.78194 0.71581 0.0
O456 O 0.58005 0.8847 0.683 0.0
O457 O 0.54994 0.85008 0.65717 0.0
O458 O 0.53175 0.84937 0.72438 0.0
O459 O 0.51522 0.80404 0.69904 0.0
C460 C 0.62988 0.74757 0.60734 0.0
C461 C 0.61663 0.759 0.57774 0.0
H462 H 0.58522 0.78632 0.5266 0.0
H463 H 0.54103 0.82869 0.53159 0.0
H464 H 0.62047 0.74887 0.71971 0.0
H465 H 0.64925 0.7317 0.66925 0.0
H466 H 0.65173 0.73269 0.60693 0.0
H467 H 0.62858 0.75294 0.55494 0.0
Mn468 Mn 0.13304 0.53048 0.68558 0.0
Mn469 Mn 0.2075 0.53163 0.65331 0.0
C470 C 0.15302 0.57915 0.66172 0.0
C471 C 0.07691 0.51971 0.68185 0.0
C472 C 0.19364 0.52033 0.72493 0.0
O473 O 0.14444 0.48212 0.6757 0.0
O474 O 0.18665 0.48945 0.6407 0.0
C475 C 0.19087 0.5374 0.58354 0.0
N476 N 0.20815 0.54777 0.60979 0.0
C477 C 0.23507 0.58905 0.57806 0.0
C478 C 0.22119 0.57573 0.55001 0.0
C479 C 0.19794 0.55062 0.5528 0.0
C480 C 0.22784 0.57415 0.60779 0.0
H481 H 0.17285 0.51833 0.58611 0.0
C482 C 0.16441 0.47159 0.65384 0.0
O483 O 0.09258 0.51853 0.70927 0.0
O484 O 0.0939 0.52701 0.65607 0.0
N485 N 0.22941 0.57173 0.66418 0.0
C486 C 0.23869 0.5833 0.69391 0.0
C487 C 0.25768 0.61173 0.69607 0.0
C488 C 0.26748 0.62786 0.66753 0.0
C489 C 0.25802 0.61543 0.63714 0.0
C490 C 0.23894 0.58702 0.63662 0.0
H491 H 0.23211 0.5708 0.71579 0.0
O492 O 0.12948 0.58022 0.68298 0.0
O493 O 0.16413 0.55014 0.65714 0.0
O494 O 0.16488 0.53196 0.72437 0.0
O495 O 0.21025 0.51552 0.69903 0.0
C496 C 0.26645 0.6303 0.60732 0.0
C497 C 0.25509 0.617 0.57772 0.0
H498 H 0.22792 0.58546 0.52657 0.0
H499 H 0.18566 0.54116 0.53154 0.0
H500 H 0.26503 0.62098 0.7197 0.0
H501 H 0.28219 0.64976 0.66923 0.0
H502 H 0.28126 0.6522 0.60692 0.0
H503 H 0.26113 0.62894 0.55492 0.0
Mn504 Mn 0.4839 0.13297 0.68554 0.0
Mn505 Mn 0.48271 0.20744 0.65329 0.0
C506 C 0.43522 0.15294 0.66167 0.0
C507 C 0.49469 0.07685 0.68181 0.0
C508 C 0.49399 0.19358 0.7249 0.0
O509 O 0.53225 0.14441 0.67567 0.0
O510 O 0.52491 0.18664 0.64069 0.0
C511 C 0.477 0.19087 0.58349 0.0
N512 N 0.46659 0.2081 0.60976 0.0
C513 C 0.4253 0.235 0.57802 0.0
C514 C 0.43867 0.22118 0.54997 0.0
C515 C 0.46381 0.19796 0.55275 0.0
C516 C 0.44019 0.22776 0.60775 0.0
H517 H 0.4961 0.17287 0.58607 0.0
C518 C 0.54277 0.16439 0.65382 0.0
O519 O 0.49587 0.09252 0.70923 0.0
O520 O 0.48739 0.09383 0.65603 0.0
N521 N 0.44257 0.2293 0.66415 0.0
C522 C 0.43096 0.23853 0.69388 0.0
C523 C 0.40249 0.25747 0.69604 0.0
C524 C 0.38637 0.26727 0.66749 0.0
C525 C 0.39884 0.25786 0.6371 0.0
C526 C 0.42728 0.23883 0.63659 0.0
H527 H 0.44345 0.23194 0.71576 0.0
O528 O 0.43416 0.12939 0.68293 0.0
O529 O 0.46424 0.16406 0.6571 0.0
O530 O 0.4824 0.16481 0.72434 0.0
O531 O 0.49879 0.2102 0.69901 0.0
C532 C 0.38398 0.2663 0.60728 0.0
C533 C 0.39732 0.25498 0.57768 0.0
H534 H 0.42897 0.22793 0.52652 0.0
H535 H 0.4733 0.18572 0.53148 0.0
H536 H 0.39321 0.26478 0.71966 0.0
H537 H 0.36445 0.28195 0.66919 0.0
H538 H 0.36206 0.28107 0.60687 0.0
H539 H 0.38539 0.26103 0.55487 0.0
Mn540 Mn 0.88131 0.48389 0.68559 0.0
Mn541 Mn 0.80687 0.48271 0.65331 0.0
C542 C 0.86135 0.43521 0.66173 0.0
C543 C 0.93744 0.49468 0.68186 0.0
C544 C 0.82069 0.49402 0.72492 0.0
O545 O 0.86989 0.53225 0.67571 0.0
O546 O 0.8277 0.52489 0.64069 0.0
C547 C 0.82347 0.47694 0.58352 0.0
N548 N 0.80622 0.46656 0.60978 0.0
C549 C 0.77932 0.42526 0.57806 0.0
C550 C 0.79318 0.43859 0.55 0.0
C551 C 0.81641 0.46373 0.55279 0.0
C552 C 0.78655 0.44017 0.60778 0.0
H553 H 0.84148 0.49604 0.58609 0.0
C554 C 0.84992 0.54276 0.65383 0.0
O555 O 0.92177 0.49587 0.70928 0.0
O556 O 0.92045 0.48738 0.65608 0.0
N557 N 0.78497 0.44259 0.66418 0.0
C558 C 0.7757 0.43102 0.69391 0.0
C559 C 0.75672 0.40258 0.69607 0.0
C560 C 0.74694 0.38643 0.66753 0.0
C561 C 0.7564 0.39887 0.63714 0.0
C562 C 0.77545 0.42729 0.63662 0.0
H563 H 0.78226 0.44354 0.71579 0.0
O564 O 0.88489 0.43416 0.68299 0.0
O565 O 0.85023 0.46422 0.65715 0.0
O566 O 0.84946 0.4824 0.72438 0.0
O567 O 0.8041 0.49882 0.69902 0.0
C568 C 0.74797 0.38399 0.60733 0.0
C569 C 0.75932 0.3973 0.57772 0.0
H570 H 0.78644 0.42887 0.52657 0.0
H571 H 0.82867 0.47319 0.53152 0.0
H572 H 0.74938 0.39333 0.7197 0.0
H573 H 0.73224 0.36453 0.66923 0.0
H574 H 0.73317 0.36208 0.60692 0.0
H575 H 0.75328 0.38535 0.55492 0.0
Mn576 Mn 0.32872 0.5303 0.13302 0.0
Mn577 Mn 0.36096 0.53148 0.2075 0.0
C578 C 0.35258 0.57898 0.15301 0.0
C579 C 0.33246 0.51953 0.07689 0.0
C580 C 0.28936 0.52019 0.19363 0.0
O581 O 0.33861 0.48195 0.14444 0.0
O582 O 0.37357 0.48929 0.18668 0.0
C583 C 0.43075 0.53722 0.19091 0.0
N584 N 0.40449 0.54761 0.20816 0.0
C585 C 0.43622 0.58892 0.23505 0.0
C586 C 0.46427 0.57557 0.2212 0.0
C587 C 0.46148 0.55043 0.19797 0.0
C588 C 0.40649 0.57401 0.22782 0.0
H589 H 0.42818 0.51813 0.1729 0.0
C590 C 0.36046 0.47142 0.16443 0.0
O591 O 0.30505 0.51834 0.09256 0.0
O592 O 0.35825 0.52683 0.09389 0.0
N593 N 0.3501 0.57161 0.22938 0.0
C594 C 0.32037 0.58319 0.23864 0.0
C595 C 0.31821 0.61165 0.2576 0.0
C596 C 0.34675 0.62779 0.26738 0.0
C597 C 0.37714 0.61534 0.25794 0.0
C598 C 0.37766 0.58691 0.2389 0.0
H599 H 0.29849 0.57068 0.23208 0.0
O600 O 0.33132 0.58004 0.12946 0.0
O601 O 0.35715 0.54996 0.16412 0.0
O602 O 0.28992 0.53179 0.16486 0.0
O603 O 0.31524 0.51539 0.21025 0.0
C604 C 0.40695 0.63022 0.26637 0.0
C605 C 0.43656 0.61689 0.25503 0.0
H606 H 0.48771 0.58529 0.22793 0.0
H607 H 0.48275 0.54096 0.18572 0.0
H608 H 0.29459 0.62091 0.26494 0.0
H609 H 0.34505 0.6497 0.28207 0.0
H610 H 0.40736 0.65213 0.28115 0.0
H611 H 0.45936 0.62884 0.26107 0.0
Mn612 Mn 0.32871 0.48382 0.88127 0.0
Mn613 Mn 0.36097 0.48267 0.8068 0.0
C614 C 0.35258 0.43515 0.86128 0.0
C615 C 0.33245 0.49458 0.9374 0.0
C616 C 0.28936 0.49396 0.82066 0.0
O617 O 0.33859 0.53218 0.86986 0.0
O618 O 0.37357 0.52485 0.82763 0.0
C619 C 0.43075 0.47692 0.8234 0.0
N620 N 0.4045 0.46653 0.80614 0.0
C621 C 0.43623 0.42525 0.77924 0.0
C622 C 0.46428 0.43858 0.7931 0.0
C623 C 0.46149 0.46372 0.81633 0.0
C624 C 0.4065 0.44014 0.78647 0.0
H625 H 0.42818 0.49601 0.84141 0.0
C626 C 0.36044 0.54271 0.84988 0.0
O627 O 0.30503 0.49578 0.92173 0.0
O628 O 0.35823 0.48729 0.9204 0.0
N629 N 0.35011 0.44255 0.7849 0.0
C630 C 0.32038 0.43096 0.77564 0.0
C631 C 0.31823 0.40252 0.75666 0.0
C632 C 0.34677 0.38639 0.74687 0.0
C633 C 0.37716 0.39883 0.75632 0.0
C634 C 0.37767 0.42726 0.77538 0.0
H635 H 0.2985 0.44347 0.78221 0.0
O636 O 0.33131 0.43409 0.88482 0.0
O637 O 0.35715 0.46417 0.85017 0.0
O638 O 0.28992 0.48235 0.84942 0.0
O639 O 0.31525 0.49876 0.80405 0.0
C640 C 0.40698 0.38396 0.74789 0.0
C641 C 0.43658 0.39728 0.75924 0.0
H642 H 0.48772 0.42887 0.78636 0.0
H643 H 0.48275 0.47319 0.82859 0.0
H644 H 0.29461 0.39326 0.74933 0.0
H645 H 0.34507 0.36448 0.73218 0.0
H646 H 0.40739 0.36206 0.73309 0.0
H647 H 0.45938 0.38534 0.7532 0.0
Mn648 Mn 0.5304 0.32869 0.88123 0.0
Mn649 Mn 0.53157 0.36094 0.80676 0.0
C650 C 0.57907 0.35256 0.86125 0.0
C651 C 0.51963 0.33243 0.93737 0.0
C652 C 0.52029 0.28933 0.82062 0.0
O653 O 0.48204 0.33857 0.86982 0.0
O654 O 0.48937 0.37354 0.82758 0.0
C655 C 0.5373 0.43072 0.82336 0.0
N656 N 0.54769 0.40447 0.8061 0.0
C657 C 0.58899 0.43621 0.77921 0.0
C658 C 0.57564 0.46425 0.79307 0.0
C659 C 0.5505 0.46146 0.8163 0.0
C660 C 0.57409 0.40648 0.78644 0.0
H661 H 0.51821 0.42814 0.84137 0.0
C662 C 0.47151 0.36042 0.84983 0.0
O663 O 0.51845 0.30501 0.9217 0.0
O664 O 0.52692 0.35821 0.92037 0.0
N665 N 0.5717 0.35008 0.78488 0.0
C666 C 0.58329 0.32036 0.77562 0.0
C667 C 0.61174 0.3182 0.75666 0.0
C668 C 0.62788 0.34675 0.74687 0.0
C669 C 0.61542 0.37714 0.75631 0.0
C670 C 0.58699 0.37764 0.77536 0.0
H671 H 0.57078 0.29847 0.78219 0.0
O672 O 0.58014 0.3313 0.88479 0.0
O673 O 0.55006 0.35713 0.85013 0.0
O674 O 0.53189 0.2899 0.8494 0.0
O675 O 0.51548 0.31522 0.80401 0.0
C676 C 0.63029 0.40695 0.74789 0.0
C677 C 0.61696 0.43655 0.75923 0.0
H678 H 0.58536 0.4877 0.78634 0.0
H679 H 0.54103 0.48272 0.82856 0.0
H680 H 0.62101 0.29458 0.74932 0.0
H681 H 0.64979 0.34505 0.73218 0.0
H682 H 0.6522 0.40736 0.7331 0.0
H683 H 0.6289 0.45936 0.75319 0.0
Mn684 Mn 0.68553 0.53038 0.88123 0.0
Mn685 Mn 0.65329 0.53156 0.80675 0.0
C686 C 0.66166 0.57905 0.86125 0.0
C687 C 0.68179 0.51961 0.93736 0.0
C688 C 0.7249 0.52029 0.82061 0.0
O689 O 0.67566 0.48202 0.8698 0.0
O690 O 0.6407 0.48936 0.82756 0.0
C691 C 0.5835 0.53727 0.82336 0.0
N692 N 0.60976 0.54768 0.8061 0.0
C693 C 0.578 0.58898 0.77924 0.0
C694 C 0.54996 0.57562 0.7931 0.0
C695 C 0.55276 0.55047 0.81631 0.0
C696 C 0.60774 0.57408 0.78645 0.0
H697 H 0.58609 0.51817 0.84136 0.0
C698 C 0.65382 0.4715 0.84981 0.0
O699 O 0.70921 0.51842 0.92169 0.0
O700 O 0.65601 0.5269 0.92036 0.0
N701 N 0.66413 0.5717 0.78488 0.0
C702 C 0.69386 0.58329 0.77561 0.0
C703 C 0.696 0.61175 0.75666 0.0
C704 C 0.66745 0.62789 0.74689 0.0
C705 C 0.63706 0.61542 0.75633 0.0
C706 C 0.63657 0.58699 0.77537 0.0
H707 H 0.71574 0.57078 0.78216 0.0
O708 O 0.68293 0.58011 0.88479 0.0
O709 O 0.6571 0.55004 0.85013 0.0
O710 O 0.72433 0.53187 0.84939 0.0
O711 O 0.69901 0.51549 0.80399 0.0
C712 C 0.60724 0.6303 0.74792 0.0
C713 C 0.57765 0.61696 0.75927 0.0
H714 H 0.52652 0.58534 0.78638 0.0
H715 H 0.53151 0.54099 0.82857 0.0
H716 H 0.71962 0.62102 0.74932 0.0
H717 H 0.66914 0.64981 0.73221 0.0
H718 H 0.60683 0.65221 0.73315 0.0
H719 H 0.55484 0.6289 0.75324 0.0
Mn720 Mn 0.48385 0.68551 0.8813 0.0
Mn721 Mn 0.48264 0.65327 0.80682 0.0
C722 C 0.43517 0.66164 0.86135 0.0
C723 C 0.49464 0.68176 0.93743 0.0
C724 C 0.49391 0.72488 0.82069 0.0
O725 O 0.5322 0.67563 0.86986 0.0
O726 O 0.52485 0.64068 0.82761 0.0
C727 C 0.47696 0.58347 0.82341 0.0
N728 N 0.46653 0.60973 0.80617 0.0
C729 C 0.42523 0.57798 0.7793 0.0
C730 C 0.43861 0.54993 0.79313 0.0
C731 C 0.46377 0.55273 0.81634 0.0
C732 C 0.44012 0.60771 0.78653 0.0
H733 H 0.49607 0.58606 0.8414 0.0
C734 C 0.54272 0.6538 0.84985 0.0
O735 O 0.49582 0.70918 0.92177 0.0
O736 O 0.48735 0.65598 0.92043 0.0
N737 N 0.44248 0.66411 0.78498 0.0
C738 C 0.43087 0.69383 0.77573 0.0
C739 C 0.4024 0.69597 0.7568 0.0
C740 C 0.38627 0.66742 0.74702 0.0
C741 C 0.39875 0.63704 0.75644 0.0
C742 C 0.4272 0.63654 0.77547 0.0
H743 H 0.44337 0.71571 0.78229 0.0
O744 O 0.43412 0.6829 0.88489 0.0
O745 O 0.46418 0.65707 0.85021 0.0
O746 O 0.48234 0.72431 0.84948 0.0
O747 O 0.4987 0.699 0.80406 0.0
C748 C 0.38389 0.60722 0.74802 0.0
C749 C 0.39725 0.57762 0.75934 0.0
H750 H 0.42891 0.52649 0.78639 0.0
H751 H 0.47326 0.53147 0.82858 0.0
H752 H 0.39312 0.71959 0.74948 0.0
H753 H 0.36434 0.66911 0.73235 0.0
H754 H 0.36197 0.6068 0.73325 0.0
H755 H 0.38532 0.55481 0.7533 0.0
Mn756 Mn 0.68555 0.48388 0.13298 0.0
Mn757 Mn 0.6533 0.48266 0.20745 0.0
C758 C 0.6617 0.43519 0.15293 0.0
C759 C 0.6818 0.49467 0.07685 0.0
C760 C 0.72491 0.49397 0.19359 0.0
O761 O 0.67566 0.53223 0.14442 0.0
O762 O 0.6407 0.52486 0.18666 0.0
C763 C 0.58351 0.47694 0.19086 0.0
N764 N 0.60978 0.46653 0.2081 0.0
C765 C 0.57804 0.42522 0.23497 0.0
C766 C 0.54999 0.43858 0.22114 0.0
C767 C 0.55278 0.46373 0.19793 0.0
C768 C 0.60777 0.44012 0.22775 0.0
H769 H 0.58608 0.49605 0.17287 0.0
C770 C 0.65381 0.54274 0.16442 0.0
O771 O 0.70922 0.49586 0.09252 0.0
O772 O 0.65603 0.48736 0.09384 0.0
N773 N 0.66417 0.44252 0.22931 0.0
C774 C 0.69389 0.43093 0.23855 0.0
C775 C 0.69605 0.40246 0.25749 0.0
C776 C 0.66751 0.38632 0.26727 0.0
C777 C 0.63712 0.39878 0.25785 0.0
C778 C 0.63661 0.42722 0.23882 0.0
H779 H 0.71577 0.44344 0.23199 0.0
O780 O 0.68296 0.43415 0.12939 0.0
O781 O 0.65712 0.4642 0.16407 0.0
O782 O 0.72435 0.48239 0.16481 0.0
O783 O 0.69902 0.49875 0.21021 0.0
C784 C 0.6073 0.3839 0.26627 0.0
C785 C 0.5777 0.39724 0.25494 0.0
H786 H 0.52655 0.42886 0.22788 0.0
H787 H 0.53151 0.47322 0.18569 0.0
H788 H 0.71968 0.39319 0.26481 0.0
H789 H 0.66921 0.36439 0.28194 0.0
H790 H 0.6069 0.36198 0.28104 0.0
H791 H 0.5549 0.38529 0.26098 0.0
Mn792 Mn 0.53035 0.68551 0.13306 0.0
Mn793 Mn 0.53155 0.65325 0.20753 0.0
C794 C 0.57904 0.66166 0.15302 0.0
C795 C 0.51958 0.68177 0.07693 0.0
C796 C 0.52025 0.72486 0.19368 0.0
O797 O 0.482 0.67561 0.14448 0.0
O798 O 0.48935 0.64065 0.18672 0.0
C799 C 0.53728 0.58347 0.19092 0.0
N800 N 0.54769 0.60973 0.20817 0.0
C801 C 0.589 0.57799 0.23502 0.0
C802 C 0.57565 0.54994 0.22117 0.0
C803 C 0.55049 0.55274 0.19797 0.0
C804 C 0.5741 0.60772 0.22781 0.0
H805 H 0.51818 0.58605 0.17292 0.0
C806 C 0.47148 0.65377 0.16448 0.0
O807 O 0.51838 0.70919 0.0926 0.0
O808 O 0.52688 0.65599 0.09392 0.0
N809 N 0.57169 0.66411 0.22939 0.0
C810 C 0.58327 0.69384 0.23866 0.0
C811 C 0.61174 0.69599 0.2576 0.0
C812 C 0.62789 0.66745 0.26737 0.0
C813 C 0.61544 0.63706 0.25792 0.0
C814 C 0.58699 0.63655 0.2389 0.0
H815 H 0.57076 0.71572 0.23211 0.0
O816 O 0.58009 0.68292 0.12948 0.0
O817 O 0.55002 0.65708 0.16415 0.0
O818 O 0.53183 0.72431 0.1649 0.0
O819 O 0.51546 0.69897 0.21029 0.0
C820 C 0.63032 0.60725 0.26633 0.0
C821 C 0.61699 0.57765 0.25499 0.0
H822 H 0.58538 0.5265 0.22789 0.0
H823 H 0.54102 0.53148 0.18571 0.0
H824 H 0.621 0.71962 0.26494 0.0
H825 H 0.64981 0.66915 0.28204 0.0
H826 H 0.65224 0.60684 0.2811 0.0
H827 H 0.62894 0.55484 0.26101 0.0
Mn828 Mn 0.48392 0.32866 0.13299 0.0
Mn829 Mn 0.48275 0.36091 0.20746 0.0
C830 C 0.43524 0.35251 0.15298 0.0
C831 C 0.49469 0.33241 0.07686 0.0
C832 C 0.49406 0.28931 0.1936 0.0
O833 O 0.53228 0.33856 0.14441 0.0
O834 O 0.52493 0.37353 0.18663 0.0
C835 C 0.47698 0.4307 0.19087 0.0
N836 N 0.4666 0.40443 0.20813 0.0
C837 C 0.4253 0.43615 0.23502 0.0
C838 C 0.43863 0.4642 0.22117 0.0
C839 C 0.46377 0.46142 0.19794 0.0
C840 C 0.44021 0.40643 0.22779 0.0
H841 H 0.49608 0.42813 0.17286 0.0
C842 C 0.5428 0.36041 0.16439 0.0
O843 O 0.49588 0.30499 0.09252 0.0
O844 O 0.48739 0.35819 0.09386 0.0
N845 N 0.44263 0.35003 0.22935 0.0
C846 C 0.43106 0.3203 0.23862 0.0
C847 C 0.40261 0.31813 0.25759 0.0
C848 C 0.38647 0.34667 0.26737 0.0
C849 C 0.3989 0.37707 0.25793 0.0
C850 C 0.42733 0.37759 0.23888 0.0
H851 H 0.44358 0.29843 0.23205 0.0
O852 O 0.43419 0.33125 0.12943 0.0
O853 O 0.46426 0.35709 0.16409 0.0
O854 O 0.48245 0.28987 0.16483 0.0
O855 O 0.49886 0.3152 0.21021 0.0
C856 C 0.38402 0.40687 0.26636 0.0
C857 C 0.39733 0.43648 0.25502 0.0
H858 H 0.4289 0.48764 0.2279 0.0
H859 H 0.47323 0.48269 0.18568 0.0
H860 H 0.39336 0.29451 0.26492 0.0
H861 H 0.36456 0.34496 0.28207 0.0
H862 H 0.36211 0.40727 0.28115 0.0
H863 H 0.38538 0.45928 0.26106 0.0
C864 C 0.13517 0.42098 0.40865 0.0
C865 C 0.15302 0.41227 0.38068 0.0
H866 H 0.1247 0.41112 0.45899 0.0
C867 C 0.17253 0.38406 0.38173 0.0
H868 H 0.12008 0.4427 0.40858 0.0
C869 C 0.17547 0.36606 0.41099 0.0
C870 C 0.15834 0.37566 0.43922 0.0
H871 H 0.18665 0.37691 0.36058 0.0
H872 H 0.19193 0.3454 0.41187 0.0
C873 C 0.13777 0.40293 0.4375 0.0
C874 C 0.6483 0.17548 0.41098 0.0
C875 C 0.63873 0.1583 0.43919 0.0
H876 H 0.63744 0.18671 0.36059 0.0
C877 C 0.61149 0.1377 0.43745 0.0
H878 H 0.66894 0.19196 0.41189 0.0
C879 C 0.59344 0.13511 0.4086 0.0
C880 C 0.60212 0.15301 0.38065 0.0
H881 H 0.60332 0.1246 0.45892 0.0
H882 H 0.57174 0.12 0.40851 0.0
C883 C 0.63031 0.17255 0.38173 0.0
C884 C 0.83855 0.64813 0.411 0.0
C885 C 0.85583 0.63863 0.43917 0.0
H886 H 0.82726 0.63721 0.36063 0.0
C887 C 0.87652 0.61147 0.43741 0.0
H888 H 0.82201 0.66872 0.41193 0.0
C889 C 0.8791 0.5934 0.40856 0.0
C890 C 0.86111 0.60201 0.38064 0.0
H891 H 0.8897 0.60335 0.45885 0.0
H892 H 0.89429 0.57175 0.40845 0.0
C893 C 0.84148 0.63013 0.38175 0.0
C894 C 0.4028 0.87658 0.43745 0.0
C895 C 0.37555 0.85599 0.43918 0.0
H896 H 0.44257 0.89426 0.40853 0.0
C897 C 0.36599 0.8388 0.41098 0.0
H898 H 0.41096 0.88969 0.45892 0.0
C899 C 0.384 0.84172 0.38173 0.0
C900 C 0.41219 0.86125 0.38066 0.0
H901 H 0.34534 0.82233 0.41187 0.0
H902 H 0.37687 0.82756 0.36059 0.0
C903 C 0.42087 0.87916 0.40861 0.0
C904 C 0.17277 0.63027 0.63254 0.0
C905 C 0.15311 0.60217 0.63366 0.0
H906 H 0.19227 0.66883 0.60235 0.0
C907 C 0.1351 0.59358 0.60576 0.0
H908 H 0.18701 0.63734 0.65365 0.0
C909 C 0.13768 0.61164 0.57691 0.0
C910 C 0.1584 0.63878 0.57512 0.0
H911 H 0.11989 0.57194 0.60588 0.0
H912 H 0.12448 0.60353 0.55547 0.0
C913 C 0.1757 0.64826 0.60329 0.0
C914 C 0.40282 0.13775 0.57681 0.0
C915 C 0.3756 0.15838 0.57508 0.0
H916 H 0.44256 0.12 0.60574 0.0
C917 C 0.36605 0.17557 0.6033 0.0
H918 H 0.41097 0.12465 0.55533 0.0
C919 C 0.38405 0.17261 0.63255 0.0
C920 C 0.41222 0.15304 0.63361 0.0
H921 H 0.34543 0.19207 0.6024 0.0
H922 H 0.37693 0.18676 0.65369 0.0
C923 C 0.42087 0.13513 0.60566 0.0
C924 C 0.84165 0.38405 0.63259 0.0
C925 C 0.86126 0.41219 0.63368 0.0
H926 H 0.82217 0.34545 0.60243 0.0
C927 C 0.87923 0.4208 0.60575 0.0
H928 H 0.82745 0.37697 0.65372 0.0
C929 C 0.87664 0.40273 0.5769 0.0
C930 C 0.85596 0.37555 0.57515 0.0
H931 H 0.8944 0.44246 0.60585 0.0
H932 H 0.8898 0.41085 0.55545 0.0
C933 C 0.83871 0.36604 0.60335 0.0
C934 C 0.63001 0.84125 0.63255 0.0
C935 C 0.602 0.86102 0.63371 0.0
H936 H 0.6685 0.82164 0.60233 0.0
C937 C 0.59351 0.87916 0.60585 0.0
H938 H 0.637 0.82692 0.65363 0.0
C939 C 0.61159 0.87658 0.577 0.0
C940 C 0.63864 0.85574 0.57518 0.0
H941 H 0.57194 0.89446 0.606 0.0
H942 H 0.60356 0.88988 0.5556 0.0
C943 C 0.64801 0.83831 0.6033 0.0
C944 C 0.40856 0.13518 0.42077 0.0
C945 C 0.38067 0.1532 0.41217 0.0
H946 H 0.45885 0.12454 0.41084 0.0
C947 C 0.3818 0.17284 0.38405 0.0
H948 H 0.40843 0.11999 0.44242 0.0
C949 C 0.41106 0.17576 0.36607 0.0
C950 C 0.43922 0.15845 0.37557 0.0
H951 H 0.3607 0.18709 0.37698 0.0
H952 H 0.41201 0.19231 0.34549 0.0
C953 C 0.43742 0.13774 0.40272 0.0
C954 C 0.8415 0.38168 0.38413 0.0
C955 C 0.86117 0.38056 0.41223 0.0
H956 H 0.82197 0.41187 0.34558 0.0
C957 C 0.87921 0.40845 0.42079 0.0
H958 H 0.82724 0.36057 0.37708 0.0
C959 C 0.87662 0.4373 0.40272 0.0
C960 C 0.85588 0.43908 0.37559 0.0
H961 H 0.89443 0.40834 0.44242 0.0
H962 H 0.88984 0.45873 0.41081 0.0
C963 C 0.83856 0.41093 0.36613 0.0
C964 C 0.6033 0.83874 0.36605 0.0
C965 C 0.57508 0.85589 0.37564 0.0
H966 H 0.65369 0.82753 0.37692 0.0
C967 C 0.5768 0.87647 0.4029 0.0
H968 H 0.60241 0.82228 0.3454 0.0
C969 C 0.60564 0.87906 0.42096 0.0
C970 C 0.6336 0.86118 0.41227 0.0
H971 H 0.55532 0.88955 0.41108 0.0
H972 H 0.60572 0.89415 0.44268 0.0
C973 C 0.63254 0.84167 0.38406 0.0
C974 C 0.13516 0.60577 0.42084 0.0
C975 C 0.15312 0.63369 0.4122 0.0
H976 H 0.12458 0.55547 0.41092 0.0
C977 C 0.17273 0.63259 0.38406 0.0
H978 H 0.12 0.60588 0.4425 0.0
C979 C 0.17566 0.60334 0.36606 0.0
C980 C 0.15841 0.57515 0.37559 0.0
H981 H 0.18693 0.65371 0.37696 0.0
H982 H 0.19219 0.60241 0.34546 0.0
C983 C 0.13774 0.57692 0.40278 0.0
C984 C 0.38159 0.84182 0.63026 0.0
C985 C 0.38053 0.86138 0.60208 0.0
H986 H 0.41173 0.82236 0.66889 0.0
C987 C 0.40849 0.87929 0.59344 0.0
H988 H 0.36045 0.82766 0.63736 0.0
C989 C 0.43733 0.87668 0.61151 0.0
C990 C 0.43905 0.85605 0.63872 0.0
H991 H 0.40841 0.89442 0.57175 0.0
H992 H 0.45881 0.88979 0.60335 0.0
C993 C 0.41084 0.83886 0.64827 0.0
C994 C 0.17554 0.41105 0.64827 0.0
C995 C 0.15834 0.43926 0.63871 0.0
H996 H 0.18677 0.36067 0.6374 0.0
C997 C 0.13771 0.43751 0.6115 0.0
H998 H 0.19204 0.41196 0.6689 0.0
C999 C 0.13511 0.40866 0.59344 0.0
C1000 C 0.15304 0.38071 0.60211 0.0
H1001 H 0.12459 0.45898 0.60334 0.0
H1002 H 0.11998 0.40856 0.57176 0.0
C1003 C 0.1726 0.3818 0.63028 0.0
C1004 C 0.60331 0.17555 0.64824 0.0
C1005 C 0.57511 0.15834 0.63869 0.0
H1006 H 0.65369 0.1868 0.63736 0.0
C1007 C 0.57687 0.13769 0.61149 0.0
H1008 H 0.60239 0.19207 0.66885 0.0
C1009 C 0.60572 0.13509 0.59344 0.0
C1010 C 0.63366 0.15303 0.60209 0.0
H1011 H 0.55541 0.12455 0.60334 0.0
H1012 H 0.60582 0.11994 0.57176 0.0
C1013 C 0.63256 0.17261 0.63025 0.0
C1014 C 0.83889 0.60332 0.64831 0.0
C1015 C 0.856 0.57508 0.63869 0.0
H1016 H 0.82772 0.65373 0.63746 0.0
C1017 C 0.87654 0.57679 0.6114 0.0
H1018 H 0.82246 0.60245 0.66899 0.0
C1019 C 0.87914 0.60563 0.59334 0.0
C1020 C 0.8613 0.63361 0.60206 0.0
H1021 H 0.88959 0.55529 0.60319 0.0
H1022 H 0.8942 0.60569 0.5716 0.0
C1023 C 0.84183 0.63257 0.6303 0.0
C1024 C 0.40278 0.43734 0.1377 0.0
C1025 C 0.37559 0.43909 0.15837 0.0
H1026 H 0.44251 0.4084 0.11995 0.0
C1027 C 0.36608 0.4109 0.17561 0.0
H1028 H 0.41091 0.4588 0.12455 0.0
C1029 C 0.38408 0.38165 0.17267 0.0
C1030 C 0.41223 0.38056 0.15307 0.0
H1031 H 0.34548 0.41181 0.19215 0.0
H1032 H 0.37699 0.36052 0.18687 0.0
C1033 C 0.42085 0.40849 0.13511 0.0
C1034 C 0.42084 0.60564 0.87917 0.0
C1035 C 0.41217 0.63358 0.86126 0.0
H1036 H 0.41096 0.55532 0.88969 0.0
C1037 C 0.384 0.6325 0.8417 0.0
H1038 H 0.44253 0.60573 0.8943 0.0
C1039 C 0.366 0.60325 0.83876 0.0
C1040 C 0.37557 0.57504 0.85595 0.0
H1041 H 0.37687 0.65364 0.82754 0.0
H1042 H 0.34538 0.60234 0.82226 0.0
C1043 C 0.40279 0.57679 0.87657 0.0
C1044 C 0.43741 0.40272 0.87656 0.0
C1045 C 0.43917 0.37554 0.85589 0.0
H1046 H 0.40845 0.44243 0.89433 0.0
C1047 C 0.41099 0.36602 0.83864 0.0
H1048 H 0.45886 0.41085 0.88972 0.0
C1049 C 0.38174 0.38401 0.84157 0.0
C1050 C 0.38063 0.41215 0.86119 0.0
H1051 H 0.41191 0.34542 0.8221 0.0
H1052 H 0.36061 0.37692 0.82737 0.0
C1053 C 0.40855 0.42077 0.87916 0.0
C1054 C 0.6115 0.4374 0.87652 0.0
C1055 C 0.63869 0.43916 0.85586 0.0
H1056 H 0.57177 0.40845 0.89427 0.0
C1057 C 0.64822 0.41097 0.83863 0.0
H1058 H 0.60335 0.45886 0.88967 0.0
C1059 C 0.63023 0.38171 0.84157 0.0
C1060 C 0.60208 0.38062 0.86116 0.0
H1061 H 0.66883 0.41188 0.82211 0.0
H1062 H 0.63733 0.36059 0.82737 0.0
C1063 C 0.59344 0.40855 0.87911 0.0
C1064 C 0.60567 0.59341 0.87912 0.0
C1065 C 0.6336 0.60206 0.86117 0.0
H1066 H 0.55537 0.60331 0.88968 0.0
C1067 C 0.6325 0.63021 0.84159 0.0
H1068 H 0.60578 0.57173 0.89426 0.0
C1069 C 0.60325 0.64821 0.83867 0.0
C1070 C 0.57506 0.63867 0.85589 0.0
H1071 H 0.65363 0.63732 0.8274 0.0
H1072 H 0.60233 0.66882 0.82215 0.0
C1073 C 0.57682 0.61146 0.87654 0.0
C1074 C 0.64822 0.60327 0.17559 0.0
C1075 C 0.63867 0.57507 0.15837 0.0
H1076 H 0.63733 0.65365 0.18685 0.0
C1077 C 0.61146 0.57682 0.13774 0.0
H1078 H 0.66884 0.60236 0.19209 0.0
C1079 C 0.59339 0.60567 0.13516 0.0
C1080 C 0.60205 0.6336 0.1531 0.0
H1081 H 0.6033 0.55536 0.12461 0.0
H1082 H 0.57171 0.60576 0.12002 0.0
C1083 C 0.63021 0.63252 0.17266 0.0
C1084 C 0.40857 0.59336 0.13517 0.0
C1085 C 0.38063 0.60199 0.1531 0.0
H1086 H 0.45888 0.60328 0.12463 0.0
C1087 C 0.38171 0.63015 0.17269 0.0
H1088 H 0.40848 0.57168 0.12002 0.0
C1089 C 0.41095 0.64815 0.17563 0.0
C1090 C 0.43915 0.63862 0.15841 0.0
H1091 H 0.36057 0.63725 0.18687 0.0
H1092 H 0.41186 0.66877 0.19215 0.0
C1093 C 0.43742 0.61142 0.13776 0.0
C1094 C 0.60571 0.42083 0.13509 0.0
C1095 C 0.63365 0.41218 0.15302 0.0
H1096 H 0.5554 0.41092 0.12457 0.0
C1097 C 0.63258 0.38401 0.17258 0.0
H1098 H 0.60579 0.44251 0.11996 0.0
C1099 C 0.60333 0.366 0.17552 0.0
C1100 C 0.57513 0.37555 0.15832 0.0
H1101 H 0.65372 0.3769 0.18676 0.0
H1102 H 0.60243 0.34538 0.19203 0.0
C1103 C 0.57686 0.40276 0.13769 0.0
C1104 C 0.02402 0.3631 0.51027 0.0
C1105 C 0.0412 0.3335 0.51327 0.0
H1106 H 0.97758 0.38618 0.50174 0.0
C1107 C 0.02392 0.30407 0.51008 0.0
H1108 H 0.03666 0.3862 0.51256 0.0
C1109 C 0.9904 0.30405 0.50419 0.0
C1110 C 0.97309 0.33347 0.50102 0.0
H1111 H 0.03626 0.28079 0.5123 0.0
H1112 H 0.97808 0.28077 0.50196 0.0
C1113 C 0.99024 0.36309 0.50403 0.0
C1114 C 0.7102 0.02382 0.51017 0.0
C1115 C 0.68077 0.04113 0.51332 0.0
H1116 H 0.73345 0.97795 0.5021 0.0
C1117 C 0.65116 0.02397 0.51031 0.0
H1118 H 0.73348 0.03614 0.5124 0.0
C1119 C 0.65115 0.99019 0.50409 0.0
C1120 C 0.68075 0.97301 0.50112 0.0
H1121 H 0.62807 0.03664 0.51258 0.0
H1122 H 0.62805 0.97756 0.5018 0.0
C1123 C 0.71018 0.99029 0.5043 0.0
C1124 C 0.99037 0.71021 0.50998 0.0
C1125 C 0.97309 0.68077 0.51318 0.0
H1126 H 0.03621 0.7335 0.50186 0.0
C1127 C 0.99027 0.65117 0.5102 0.0
H1128 H 0.97803 0.73348 0.51218 0.0
C1129 C 0.02405 0.65118 0.50398 0.0
C1130 C 0.04121 0.6808 0.50096 0.0
H1131 H 0.97764 0.62808 0.51251 0.0
H1132 H 0.03672 0.6281 0.50171 0.0
C1133 C 0.02389 0.71022 0.5041 0.0
C1134 C 0.36306 0.02414 0.50396 0.0
C1135 C 0.33346 0.04132 0.50093 0.0
H1136 H 0.38614 0.97771 0.51251 0.0
C1137 C 0.30402 0.02402 0.50407 0.0
H1138 H 0.38616 0.03679 0.50169 0.0
C1139 C 0.30401 0.9905 0.50997 0.0
C1140 C 0.33344 0.9732 0.51318 0.0
H1141 H 0.28075 0.03636 0.50183 0.0
H1142 H 0.28073 0.97818 0.51217 0.0
C1143 C 0.36305 0.99037 0.5102 0.0
C1144 C 0.50421 0.99037 0.30407 0.0
C1145 C 0.50104 0.97307 0.3335 0.0
H1146 H 0.51232 0.03622 0.28079 0.0
C1147 C 0.50403 0.99024 0.36311 0.0
H1148 H 0.50199 0.97803 0.28079 0.0
C1149 C 0.51027 0.02402 0.36311 0.0
C1150 C 0.51327 0.04119 0.3335 0.0
H1151 H 0.50174 0.97759 0.38621 0.0
H1152 H 0.51256 0.03667 0.38621 0.0
C1153 C 0.5101 0.02389 0.30407 0.0
C1154 C 0.99022 0.51028 0.36313 0.0
C1155 C 0.97305 0.51327 0.33353 0.0
H1156 H 0.03665 0.50177 0.38623 0.0
C1157 C 0.99035 0.51012 0.30409 0.0
H1158 H 0.97756 0.51254 0.38623 0.0
C1159 C 0.02388 0.50426 0.30409 0.0
C1160 C 0.04117 0.50108 0.33353 0.0
H1161 H 0.97802 0.51235 0.28082 0.0
H1162 H 0.03621 0.50206 0.28082 0.0
C1163 C 0.024 0.50406 0.36314 0.0
C1164 C 0.51028 0.9902 0.6512 0.0
C1165 C 0.5133 0.97305 0.68081 0.0
H1166 H 0.50173 0.03662 0.62809 0.0
C1167 C 0.51015 0.99036 0.71024 0.0
H1168 H 0.51254 0.97754 0.62811 0.0
C1169 C 0.50426 0.02388 0.71023 0.0
C1170 C 0.50105 0.04116 0.68079 0.0
H1171 H 0.51239 0.97804 0.73352 0.0
H1172 H 0.50205 0.03622 0.7335 0.0
C1173 C 0.50404 0.02398 0.65119 0.0
C1174 C 0.99041 0.50426 0.71026 0.0
C1175 C 0.97312 0.50106 0.68083 0.0
H1176 H 0.03626 0.51241 0.73354 0.0
C1177 C 0.99029 0.50406 0.65122 0.0
H1178 H 0.97808 0.50204 0.73354 0.0
C1179 C 0.02406 0.51033 0.65122 0.0
C1180 C 0.04123 0.51335 0.68083 0.0
H1181 H 0.97764 0.50176 0.62813 0.0
H1182 H 0.03671 0.51261 0.62813 0.0
C1183 C 0.02393 0.51017 0.71026 0.0
C1184 C 0.36309 0.50394 0.99025 0.0
C1185 C 0.33348 0.50093 0.97309 0.0
H1186 H 0.38619 0.51247 0.03668 0.0
C1187 C 0.30406 0.50411 0.99039 0.0
H1188 H 0.38618 0.50165 0.9776 0.0
C1189 C 0.30406 0.51 0.02391 0.0
C1190 C 0.33349 0.51318 0.04121 0.0
H1191 H 0.28078 0.50188 0.97806 0.0
H1192 H 0.28078 0.51222 0.03624 0.0
C1193 C 0.3631 0.51018 0.02403 0.0
C1194 C 0.51027 0.36306 0.99023 0.0
C1195 C 0.51328 0.33345 0.97305 0.0
H1196 H 0.50174 0.38614 0.03666 0.0
C1197 C 0.51011 0.30402 0.99035 0.0
H1198 H 0.51256 0.38615 0.97758 0.0
C1199 C 0.50422 0.30402 0.02387 0.0
C1200 C 0.50104 0.33344 0.04117 0.0
H1201 H 0.51234 0.28075 0.97801 0.0
H1202 H 0.502 0.28074 0.0362 0.0
C1203 C 0.50403 0.36305 0.024 0.0
C1204 C 0.65116 0.51025 0.99022 0.0
C1205 C 0.68077 0.51326 0.97304 0.0
H1206 H 0.62807 0.50172 0.03664 0.0
C1207 C 0.7102 0.5101 0.99034 0.0
H1208 H 0.62807 0.51253 0.97757 0.0
C1209 C 0.7102 0.50421 0.02386 0.0
C1210 C 0.68077 0.50102 0.04116 0.0
H1211 H 0.73348 0.51233 0.97801 0.0
H1212 H 0.73348 0.502 0.03619 0.0
C1213 C 0.65116 0.50401 0.02399 0.0
C1214 C 0.504 0.65113 0.99029 0.0
C1215 C 0.501 0.68074 0.97312 0.0
H1216 H 0.51252 0.62804 0.03672 0.0
C1217 C 0.50417 0.71017 0.99042 0.0
H1218 H 0.50172 0.62804 0.97764 0.0
C1219 C 0.51005 0.71017 0.02394 0.0
C1220 C 0.51323 0.68074 0.04124 0.0
H1221 H 0.50194 0.73344 0.97809 0.0
H1222 H 0.51227 0.73345 0.03627 0.0
C1223 C 0.51023 0.65113 0.02407 0.0
C1224 C 0.21721 0.24901 0.48146 0.0
C1225 C 0.21008 0.25798 0.51374 0.0
H1226 H 0.24589 0.21879 0.4498 0.0
C1227 C 0.22443 0.24027 0.53936 0.0
H1228 H 0.20629 0.26214 0.46127 0.0
C1229 C 0.24894 0.21729 0.53285 0.0
C1230 C 0.25793 0.21018 0.50057 0.0
H1231 H 0.21868 0.24593 0.5645 0.0
H1232 H 0.26206 0.20638 0.55304 0.0
C1233 C 0.24021 0.22453 0.47494 0.0
C1234 C 0.76545 0.2171 0.48149 0.0
C1235 C 0.75644 0.20998 0.51376 0.0
H1236 H 0.79569 0.24578 0.44986 0.0
C1237 C 0.77414 0.22432 0.5394 0.0
H1238 H 0.75233 0.20619 0.46129 0.0
C1239 C 0.79712 0.24883 0.53291 0.0
C1240 C 0.80426 0.25782 0.50064 0.0
H1241 H 0.76846 0.21857 0.56453 0.0
H1242 H 0.80802 0.26195 0.55311 0.0
C1243 C 0.78994 0.2401 0.475 0.0
C1244 C 0.78987 0.77406 0.53938 0.0
C1245 C 0.80421 0.75635 0.51375 0.0
H1246 H 0.75224 0.80796 0.55307 0.0
C1247 C 0.79708 0.76533 0.48147 0.0
H1248 H 0.79563 0.7684 0.56451 0.0
C1249 C 0.77408 0.78981 0.47497 0.0
C1250 C 0.75636 0.80415 0.5006 0.0
H1251 H 0.80799 0.75221 0.46127 0.0
H1252 H 0.76839 0.79555 0.44983 0.0
C1253 C 0.76537 0.79704 0.53288 0.0
C1254 C 0.22437 0.7742 0.47492 0.0
C1255 C 0.21003 0.7565 0.50055 0.0
H1256 H 0.26198 0.80811 0.46122 0.0
C1257 C 0.21712 0.76552 0.53283 0.0
H1258 H 0.21864 0.7685 0.44978 0.0
C1259 C 0.24008 0.79003 0.53933 0.0
C1260 C 0.25781 0.80436 0.5137 0.0
H1261 H 0.2062 0.7524 0.55302 0.0
H1262 H 0.24574 0.79581 0.56446 0.0
C1263 C 0.24885 0.79721 0.48142 0.0
C1264 C 0.48154 0.21712 0.24885 0.0
C1265 C 0.51381 0.21002 0.25786 0.0
H1266 H 0.44988 0.24575 0.2186 0.0
C1267 C 0.53944 0.22439 0.24015 0.0
H1268 H 0.46135 0.20619 0.26197 0.0
C1269 C 0.53293 0.24887 0.21716 0.0
C1270 C 0.50065 0.25783 0.21002 0.0
H1271 H 0.56458 0.21866 0.24584 0.0
H1272 H 0.55311 0.26201 0.20626 0.0
C1273 C 0.47502 0.24009 0.22435 0.0
C1274 C 0.79708 0.48137 0.24886 0.0
C1275 C 0.8042 0.51364 0.25788 0.0
H1276 H 0.76843 0.44975 0.21859 0.0
C1277 C 0.78987 0.53928 0.24017 0.0
H1278 H 0.80799 0.46117 0.26198 0.0
C1279 C 0.76538 0.53279 0.21717 0.0
C1280 C 0.75639 0.50052 0.21002 0.0
H1281 H 0.79561 0.56442 0.24587 0.0
H1282 H 0.75226 0.55299 0.20627 0.0
C1283 C 0.77411 0.47488 0.22435 0.0
C1284 C 0.48141 0.76534 0.21723 0.0
C1285 C 0.51369 0.75635 0.21011 0.0
H1286 H 0.44977 0.79559 0.24589 0.0
C1287 C 0.53932 0.77406 0.22445 0.0
H1288 H 0.46122 0.75221 0.20632 0.0
C1289 C 0.53282 0.79706 0.24894 0.0
C1290 C 0.50054 0.80419 0.25792 0.0
H1291 H 0.56445 0.76838 0.2187 0.0
H1292 H 0.55301 0.80797 0.26206 0.0
C1293 C 0.47491 0.78984 0.24021 0.0
C1294 C 0.22437 0.47489 0.24018 0.0
C1295 C 0.21003 0.50054 0.25787 0.0
H1296 H 0.262 0.46117 0.2063 0.0
C1297 C 0.21715 0.5328 0.24886 0.0
H1298 H 0.21861 0.44976 0.24587 0.0
C1299 C 0.24015 0.53928 0.22436 0.0
C1300 C 0.25787 0.51364 0.21005 0.0
H1301 H 0.20624 0.55301 0.26197 0.0
H1302 H 0.24583 0.56441 0.2186 0.0
C1303 C 0.24887 0.48137 0.2172 0.0
C1304 C 0.47479 0.77405 0.78992 0.0
C1305 C 0.50044 0.75637 0.80426 0.0
H1306 H 0.46105 0.80792 0.75229 0.0
C1307 C 0.5327 0.7654 0.79714 0.0
H1308 H 0.44966 0.76835 0.79569 0.0
C1309 C 0.53918 0.7899 0.77415 0.0
C1310 C 0.51352 0.8042 0.75643 0.0
H1311 H 0.55291 0.7523 0.80805 0.0
H1312 H 0.5643 0.79568 0.76846 0.0
C1313 C 0.48126 0.79704 0.76542 0.0
C1314 C 0.24891 0.53283 0.79712 0.0
C1315 C 0.25788 0.50055 0.80423 0.0
H1316 H 0.21869 0.5645 0.76847 0.0
C1317 C 0.24016 0.47493 0.78987 0.0
H1318 H 0.26204 0.55301 0.80805 0.0
C1319 C 0.21718 0.48146 0.76538 0.0
C1320 C 0.21007 0.51374 0.75641 0.0
H1321 H 0.24583 0.44979 0.7956 0.0
H1322 H 0.20626 0.46128 0.75224 0.0
C1323 C 0.22442 0.53936 0.77414 0.0
C1324 C 0.53284 0.21714 0.76537 0.0
C1325 C 0.50056 0.21001 0.75639 0.0
H1326 H 0.56449 0.24581 0.7956 0.0
C1327 C 0.47493 0.22435 0.77411 0.0
H1328 H 0.55303 0.20622 0.75224 0.0
C1329 C 0.48144 0.24885 0.79709 0.0
C1330 C 0.51372 0.25784 0.8042 0.0
H1331 H 0.4498 0.2186 0.76844 0.0
H1332 H 0.46125 0.26198 0.80801 0.0
C1333 C 0.53935 0.24013 0.78986 0.0
C1334 C 0.76541 0.48146 0.79709 0.0
C1335 C 0.75639 0.51373 0.80419 0.0
H1336 H 0.79569 0.44983 0.76846 0.0
C1337 C 0.77409 0.53937 0.78984 0.0
H1338 H 0.7523 0.46127 0.80802 0.0
C1339 C 0.7971 0.53287 0.76536 0.0
C1340 C 0.80425 0.50059 0.7564 0.0
H1341 H 0.7684 0.5645 0.79557 0.0
H1342 H 0.808 0.55306 0.75223 0.0
C1343 C 0.78992 0.47496 0.77412 0.0
loop_
_geom_bond_atom_site_label_1
_geom_bond_atom_site_label_2
_geom_bond_distance
_geom_bond_site_symmetry_2
_ccdc_geom_bond_type
Mn0 O5 2.095 . S
Mn0 O15 2.162 . S
Mn0 O16 2.297 . S
Mn0 O24 2.385 . S
Mn0 O25 2.209 . S
Mn0 O26 2.094 . S
Mn1 O6 2.121 . S
Mn1 N8 2.257 . S
Mn1 N17 2.282 . S
Mn1 O25 2.215 . S
Mn1 O27 2.117 . S
C2 O24 1.234 . S
C2 O25 1.283 . S
C3 O15 1.281 . S
C3 O16 1.236 . S
C4 O26 1.240 . S
C4 O27 1.264 . S
O5 Mn0 2.095 . S
O5 C14 1.250 . S
O6 Mn1 2.121 . S
O6 C14 1.258 . S
C7 N8 1.326 . S
C7 C11 1.460 . S
C7 H13 0.929 . S
N8 Mn1 2.257 . S
N8 C7 1.326 . S
N8 C12 1.362 . S
C9 C10 1.258 . S
C9 C12 1.431 . S
C9 C29 1.449 . S
C10 C9 1.258 . S
C10 C11 1.477 . S
C10 H30 0.931 . S
C11 C7 1.460 . S
C11 C10 1.477 . S
C11 H31 0.930 . S
C12 N8 1.362 . S
C12 C9 1.431 . S
C12 C22 1.476 . S
H13 C7 0.929 . S
C14 O5 1.250 . S
C14 O6 1.258 . S
O15 Mn0 2.162 . S
O15 C3 1.281 . S
O16 Mn0 2.297 . S
O16 C3 1.236 . S
N17 Mn1 2.282 . S
N17 C18 1.328 . S
N17 C22 1.318 . S
C18 N17 1.328 . S
C18 C19 1.457 . S
C18 H23 0.929 . S
C19 C18 1.457 . S
C19 C20 1.291 . S
C19 H32 0.931 . S
C20 C19 1.291 . S
C20 C21 1.373 . S
C20 H33 0.929 . S
C21 C20 1.373 . S
C21 C22 1.396 . S
C21 C28 1.403 . S
C22 C12 1.476 . S
C22 N17 1.318 . S
C22 C21 1.396 . S
H23 C18 0.929 . S
O24 Mn0 2.385 . S
O24 C2 1.234 . S
O25 Mn0 2.209 . S
O25 Mn1 2.215 . S
O25 C2 1.283 . S
O26 Mn0 2.094 . S
O26 C4 1.240 . S
O27 Mn1 2.117 . S
O27 C4 1.264 . S
C28 C21 1.403 . S
C28 C29 1.399 . S
C28 H34 0.929 . S
C29 C9 1.449 . S
C29 C28 1.399 . S
C29 H35 0.930 . S
H30 C10 0.931 . S
H31 C11 0.930 . S
H32 C19 0.931 . S
H33 C20 0.929 . S
H34 C28 0.929 . S
H35 C29 0.930 . S
Mn36 O41 2.095 . S
Mn36 O51 2.162 . S
Mn36 O52 2.297 . S
Mn36 O60 2.385 . S
Mn36 O61 2.209 . S
Mn36 O62 2.094 . S
Mn37 O42 2.121 . S
Mn37 N44 2.257 . S
Mn37 N53 2.282 . S
Mn37 O61 2.215 . S
Mn37 O63 2.117 . S
C38 O60 1.234 . S
C38 O61 1.283 . S
C39 O51 1.281 . S
C39 O52 1.236 . S
C40 O62 1.240 . S
C40 O63 1.264 . S
O41 Mn36 2.095 . S
O41 C50 1.250 . S
O42 Mn37 2.121 . S
O42 C50 1.258 . S
C43 N44 1.326 . S
C43 C47 1.460 . S
C43 H49 0.929 . S
N44 Mn37 2.257 . S
N44 C43 1.326 . S
N44 C48 1.362 . S
C45 C46 1.258 . S
C45 C48 1.431 . S
C45 C65 1.449 . S
C46 C45 1.258 . S
C46 C47 1.477 . S
C46 H66 0.931 . S
C47 C43 1.460 . S
C47 C46 1.477 . S
C47 H67 0.930 . S
C48 N44 1.362 . S
C48 C45 1.431 . S
C48 C58 1.476 . S
H49 C43 0.929 . S
C50 O41 1.250 . S
C50 O42 1.258 . S
O51 Mn36 2.162 . S
O51 C39 1.281 . S
O52 Mn36 2.297 . S
O52 C39 1.236 . S
N53 Mn37 2.282 . S
N53 C54 1.328 . S
N53 C58 1.318 . S
C54 N53 1.328 . S
C54 C55 1.457 . S
C54 H59 0.929 . S
C55 C54 1.457 . S
C55 C56 1.291 . S
C55 H68 0.931 . S
C56 C55 1.291 . S
C56 C57 1.373 . S
C56 H69 0.929 . S
C57 C56 1.373 . S
C57 C58 1.396 . S
C57 C64 1.403 . S
C58 C48 1.476 . S
C58 N53 1.318 . S
C58 C57 1.396 . S
H59 C54 0.929 . S
O60 Mn36 2.385 . S
O60 C38 1.234 . S
O61 Mn36 2.209 . S
O61 Mn37 2.215 . S
O61 C38 1.283 . S
O62 Mn36 2.094 . S
O62 C40 1.240 . S
O63 Mn37 2.117 . S
O63 C40 1.264 . S
C64 C57 1.403 . S
C64 C65 1.399 . S
C64 H70 0.929 . S
C65 C45 1.449 . S
C65 C64 1.399 . S
C65 H71 0.930 . S
H66 C46 0.931 . S
H67 C47 0.930 . S
H68 C55 0.931 . S
H69 C56 0.929 . S
H70 C64 0.929 . S
H71 C65 0.930 . S
Mn72 O77 2.095 . S
Mn72 O87 2.162 . S
Mn72 O88 2.297 . S
Mn72 O96 2.385 . S
Mn72 O97 2.209 . S
Mn72 O98 2.094 . S
Mn73 O78 2.121 . S
Mn73 N80 2.257 . S
Mn73 N89 2.282 . S
Mn73 O97 2.215 . S
Mn73 O99 2.117 . S
C74 O96 1.234 . S
C74 O97 1.283 . S
C75 O87 1.281 . S
C75 O88 1.236 . S
C76 O98 1.240 . S
C76 O99 1.264 . S
O77 Mn72 2.095 . S
O77 C86 1.250 . S
O78 Mn73 2.121 . S
O78 C86 1.258 . S
C79 N80 1.326 . S
C79 C83 1.460 . S
C79 H85 0.929 . S
N80 Mn73 2.257 . S
N80 C79 1.326 . S
N80 C84 1.362 . S
C81 C82 1.258 . S
C81 C84 1.431 . S
C81 C101 1.449 . S
C82 C81 1.258 . S
C82 C83 1.477 . S
C82 H102 0.931 . S
C83 C79 1.460 . S
C83 C82 1.477 . S
C83 H103 0.930 . S
C84 N80 1.362 . S
C84 C81 1.431 . S
C84 C94 1.476 . S
H85 C79 0.929 . S
C86 O77 1.250 . S
C86 O78 1.258 . S
O87 Mn72 2.162 . S
O87 C75 1.281 . S
O88 Mn72 2.297 . S
O88 C75 1.236 . S
N89 Mn73 2.282 . S
N89 C90 1.328 . S
N89 C94 1.318 . S
C90 N89 1.328 . S
C90 C91 1.457 . S
C90 H95 0.929 . S
C91 C90 1.457 . S
C91 C92 1.291 . S
C91 H104 0.931 . S
C92 C91 1.291 . S
C92 C93 1.373 . S
C92 H105 0.929 . S
C93 C92 1.373 . S
C93 C94 1.396 . S
C93 C100 1.403 . S
C94 C84 1.476 . S
C94 N89 1.318 . S
C94 C93 1.396 . S
H95 C90 0.929 . S
O96 Mn72 2.385 . S
O96 C74 1.234 . S
O97 Mn72 2.209 . S
O97 Mn73 2.215 . S
O97 C74 1.283 . S
O98 Mn72 2.094 . S
O98 C76 1.240 . S
O99 Mn73 2.117 . S
O99 C76 1.264 . S
C100 C93 1.403 . S
C100 C101 1.399 . S
C100 H106 0.929 . S
C101 C81 1.449 . S
C101 C100 1.399 . S
C101 H107 0.930 . S
H102 C82 0.931 . S
H103 C83 0.930 . S
H104 C91 0.931 . S
H105 C92 0.929 . S
H106 C100 0.929 . S
H107 C101 0.930 . S
Mn108 O113 2.095 . S
Mn108 O123 2.162 . S
Mn108 O124 2.297 . S
Mn108 O132 2.385 . S
Mn108 O133 2.209 . S
Mn108 O134 2.094 . S
Mn109 O114 2.121 . S
Mn109 N116 2.257 . S
Mn109 N125 2.282 . S
Mn109 O133 2.215 . S
Mn109 O135 2.117 . S
C110 O132 1.234 . S
C110 O133 1.283 . S
C111 O123 1.281 . S
C111 O124 1.236 . S
C112 O134 1.240 . S
C112 O135 1.264 . S
O113 Mn108 2.095 . S
O113 C122 1.250 . S
O114 Mn109 2.121 . S
O114 C122 1.258 . S
C115 N116 1.326 . S
C115 C119 1.460 . S
C115 H121 0.929 . S
N116 Mn109 2.257 . S
N116 C115 1.326 . S
N116 C120 1.362 . S
C117 C118 1.258 . S
C117 C120 1.431 . S
C117 C137 1.449 . S
C118 C117 1.258 . S
C118 C119 1.477 . S
C118 H138 0.931 . S
C119 C115 1.460 . S
C119 C118 1.477 . S
C119 H139 0.930 . S
C120 N116 1.362 . S
C120 C117 1.431 . S
C120 C130 1.476 . S
H121 C115 0.929 . S
C122 O113 1.250 . S
C122 O114 1.258 . S
O123 Mn108 2.162 . S
O123 C111 1.281 . S
O124 Mn108 2.297 . S
O124 C111 1.236 . S
N125 Mn109 2.282 . S
N125 C126 1.328 . S
N125 C130 1.318 . S
C126 N125 1.328 . S
C126 C127 1.457 . S
C126 H131 0.929 . S
C127 C126 1.457 . S
C127 C128 1.291 . S
C127 H140 0.931 . S
C128 C127 1.291 . S
C128 C129 1.373 . S
C128 H141 0.929 . S
C129 C128 1.373 . S
C129 C130 1.396 . S
C129 C136 1.403 . S
C130 C120 1.476 . S
C130 N125 1.318 . S
C130 C129 1.396 . S
H131 C126 0.929 . S
O132 Mn108 2.385 . S
O132 C110 1.234 . S
O133 Mn108 2.209 . S
O133 Mn109 2.215 . S
O133 C110 1.283 . S
O134 Mn108 2.094 . S
O134 C112 1.240 . S
O135 Mn109 2.117 . S
O135 C112 1.264 . S
C136 C129 1.403 . S
C136 C137 1.399 . S
C136 H142 0.929 . S
C137 C117 1.449 . S
C137 C136 1.399 . S
C137 H143 0.930 . S
H138 C118 0.931 . S
H139 C119 0.930 . S
H140 C127 0.931 . S
H141 C128 0.929 . S
H142 C136 0.929 . S
H143 C137 0.930 . S
Mn144 O149 2.095 . S
Mn144 O159 2.162 . S
Mn144 O160 2.297 . S
Mn144 O168 2.385 . S
Mn144 O169 2.209 . S
Mn144 O170 2.094 . S
Mn145 O150 2.121 . S
Mn145 N152 2.257 . S
Mn145 N161 2.282 . S
Mn145 O169 2.215 . S
Mn145 O171 2.117 . S
C146 O168 1.234 . S
C146 O169 1.283 . S
C147 O159 1.281 . S
C147 O160 1.236 . S
C148 O170 1.240 . S
C148 O171 1.264 . S
O149 Mn144 2.095 . S
O149 C158 1.250 . S
O150 Mn145 2.121 . S
O150 C158 1.258 . S
C151 N152 1.326 . S
C151 C155 1.460 . S
C151 H157 0.929 . S
N152 Mn145 2.257 . S
N152 C151 1.326 . S
N152 C156 1.362 . S
C153 C154 1.258 . S
C153 C156 1.431 . S
C153 C173 1.449 . S
C154 C153 1.258 . S
C154 C155 1.477 . S
C154 H174 0.931 . S
C155 C151 1.460 . S
C155 C154 1.477 . S
C155 H175 0.930 . S
C156 N152 1.362 . S
C156 C153 1.431 . S
C156 C166 1.476 . S
H157 C151 0.929 . S
C158 O149 1.250 . S
C158 O150 1.258 . S
O159 Mn144 2.162 . S
O159 C147 1.281 . S
O160 Mn144 2.297 . S
O160 C147 1.236 . S
N161 Mn145 2.282 . S
N161 C162 1.328 . S
N161 C166 1.318 . S
C162 N161 1.328 . S
C162 C163 1.457 . S
C162 H167 0.929 . S
C163 C162 1.457 . S
C163 C164 1.291 . S
C163 H176 0.931 . S
C164 C163 1.291 . S
C164 C165 1.373 . S
C164 H177 0.929 . S
C165 C164 1.373 . S
C165 C166 1.396 . S
C165 C172 1.403 . S
C166 C156 1.476 . S
C166 N161 1.318 . S
C166 C165 1.396 . S
H167 C162 0.929 . S
O168 Mn144 2.385 . S
O168 C146 1.234 . S
O169 Mn144 2.209 . S
O169 Mn145 2.215 . S
O169 C146 1.283 . S
O170 Mn144 2.094 . S
O170 C148 1.240 . S
O171 Mn145 2.117 . S
O171 C148 1.264 . S
C172 C165 1.403 . S
C172 C173 1.399 . S
C172 H178 0.929 . S
C173 C153 1.449 . S
C173 C172 1.399 . S
C173 H179 0.930 . S
H174 C154 0.931 . S
H175 C155 0.930 . S
H176 C163 0.931 . S
H177 C164 0.929 . S
H178 C172 0.929 . S
H179 C173 0.930 . S
Mn180 O185 2.095 . S
Mn180 O195 2.162 . S
Mn180 O196 2.297 . S
Mn180 O204 2.385 . S
Mn180 O205 2.209 . S
Mn180 O206 2.094 . S
Mn181 O186 2.121 . S
Mn181 N188 2.257 . S
Mn181 N197 2.282 . S
Mn181 O205 2.215 . S
Mn181 O207 2.117 . S
C182 O204 1.234 . S
C182 O205 1.283 . S
C183 O195 1.281 . S
C183 O196 1.236 . S
C184 O206 1.240 . S
C184 O207 1.264 . S
O185 Mn180 2.095 . S
O185 C194 1.250 . S
O186 Mn181 2.121 . S
O186 C194 1.258 . S
C187 N188 1.326 . S
C187 C191 1.460 . S
C187 H193 0.929 . S
N188 Mn181 2.257 . S
N188 C187 1.326 . S
N188 C192 1.362 . S
C189 C190 1.258 . S
C189 C192 1.431 . S
C189 C209 1.449 . S
C190 C189 1.258 . S
C190 C191 1.477 . S
C190 H210 0.931 . S
C191 C187 1.460 . S
C191 C190 1.477 . S
C191 H211 0.930 . S
C192 N188 1.362 . S
C192 C189 1.431 . S
C192 C202 1.476 . S
H193 C187 0.929 . S
C194 O185 1.250 . S
C194 O186 1.258 . S
O195 Mn180 2.162 . S
O195 C183 1.281 . S
O196 Mn180 2.297 . S
O196 C183 1.236 . S
N197 Mn181 2.282 . S
N197 C198 1.328 . S
N197 C202 1.318 . S
C198 N197 1.328 . S
C198 C199 1.457 . S
C198 H203 0.929 . S
C199 C198 1.457 . S
C199 C200 1.291 . S
C199 H212 0.931 . S
C200 C199 1.291 . S
C200 C201 1.373 . S
C200 H213 0.929 . S
C201 C200 1.373 . S
C201 C202 1.396 . S
C201 C208 1.403 . S
C202 C192 1.476 . S
C202 N197 1.318 . S
C202 C201 1.396 . S
H203 C198 0.929 . S
O204 Mn180 2.385 . S
O204 C182 1.234 . S
O205 Mn180 2.209 . S
O205 Mn181 2.215 . S
O205 C182 1.283 . S
O206 Mn180 2.094 . S
O206 C184 1.240 . S
O207 Mn181 2.117 . S
O207 C184 1.264 . S
C208 C201 1.403 . S
C208 C209 1.399 . S
C208 H214 0.929 . S
C209 C189 1.449 . S
C209 C208 1.399 . S
C209 H215 0.930 . S
H210 C190 0.931 . S
H211 C191 0.930 . S
H212 C199 0.931 . S
H213 C200 0.929 . S
H214 C208 0.929 . S
H215 C209 0.930 . S
Mn216 O221 2.095 . S
Mn216 O231 2.162 . S
Mn216 O232 2.297 . S
Mn216 O240 2.385 . S
Mn216 O241 2.209 . S
Mn216 O242 2.094 . S
Mn217 O222 2.121 . S
Mn217 N224 2.257 . S
Mn217 N233 2.282 . S
Mn217 O241 2.215 . S
Mn217 O243 2.117 . S
C218 O240 1.234 . S
C218 O241 1.283 . S
C219 O231 1.281 . S
C219 O232 1.236 . S
C220 O242 1.240 . S
C220 O243 1.264 . S
O221 Mn216 2.095 . S
O221 C230 1.250 . S
O222 Mn217 2.121 . S
O222 C230 1.258 . S
C223 N224 1.326 . S
C223 C227 1.460 . S
C223 H229 0.929 . S
N224 Mn217 2.257 . S
N224 C223 1.326 . S
N224 C228 1.362 . S
C225 C226 1.258 . S
C225 C228 1.431 . S
C225 C245 1.449 . S
C226 C225 1.258 . S
C226 C227 1.477 . S
C226 H246 0.931 . S
C227 C223 1.460 . S
C227 C226 1.477 . S
C227 H247 0.930 . S
C228 N224 1.362 . S
C228 C225 1.431 . S
C228 C238 1.476 . S
H229 C223 0.929 . S
C230 O221 1.250 . S
C230 O222 1.258 . S
O231 Mn216 2.162 . S
O231 C219 1.281 . S
O232 Mn216 2.297 . S
O232 C219 1.236 . S
N233 Mn217 2.282 . S
N233 C234 1.328 . S
N233 C238 1.318 . S
C234 N233 1.328 . S
C234 C235 1.457 . S
C234 H239 0.929 . S
C235 C234 1.457 . S
C235 C236 1.291 . S
C235 H248 0.931 . S
C236 C235 1.291 . S
C236 C237 1.373 . S
C236 H249 0.929 . S
C237 C236 1.373 . S
C237 C238 1.396 . S
C237 C244 1.403 . S
C238 C228 1.476 . S
C238 N233 1.318 . S
C238 C237 1.396 . S
H239 C234 0.929 . S
O240 Mn216 2.385 . S
O240 C218 1.234 . S
O241 Mn216 2.209 . S
O241 Mn217 2.215 . S
O241 C218 1.283 . S
O242 Mn216 2.094 . S
O242 C220 1.240 . S
O243 Mn217 2.117 . S
O243 C220 1.264 . S
C244 C237 1.403 . S
C244 C245 1.399 . S
C244 H250 0.929 . S
C245 C225 1.449 . S
C245 C244 1.399 . S
C245 H251 0.930 . S
H246 C226 0.931 . S
H247 C227 0.930 . S
H248 C235 0.931 . S
H249 C236 0.929 . S
H250 C244 0.929 . S
H251 C245 0.930 . S
Mn252 O257 2.095 . S
Mn252 O267 2.162 . S
Mn252 O268 2.297 . S
Mn252 O276 2.385 . S
Mn252 O277 2.209 . S
Mn252 O278 2.094 . S
Mn253 O258 2.121 . S
Mn253 N260 2.257 . S
Mn253 N269 2.282 . S
Mn253 O277 2.215 . S
Mn253 O279 2.117 . S
C254 O276 1.234 . S
C254 O277 1.283 . S
C255 O267 1.281 . S
C255 O268 1.236 . S
C256 O278 1.240 . S
C256 O279 1.264 . S
O257 Mn252 2.095 . S
O257 C266 1.250 . S
O258 Mn253 2.121 . S
O258 C266 1.258 . S
C259 N260 1.326 . S
C259 C263 1.460 . S
C259 H265 0.929 . S
N260 Mn253 2.257 . S
N260 C259 1.326 . S
N260 C264 1.362 . S
C261 C262 1.258 . S
C261 C264 1.431 . S
C261 C281 1.449 . S
C262 C261 1.258 . S
C262 C263 1.477 . S
C262 H282 0.931 . S
C263 C259 1.460 . S
C263 C262 1.477 . S
C263 H283 0.930 . S
C264 N260 1.362 . S
C264 C261 1.431 . S
C264 C274 1.476 . S
H265 C259 0.929 . S
C266 O257 1.250 . S
C266 O258 1.258 . S
O267 Mn252 2.162 . S
O267 C255 1.281 . S
O268 Mn252 2.297 . S
O268 C255 1.236 . S
N269 Mn253 2.282 . S
N269 C270 1.328 . S
N269 C274 1.318 . S
C270 N269 1.328 . S
C270 C271 1.457 . S
C270 H275 0.929 . S
C271 C270 1.457 . S
C271 C272 1.291 . S
C271 H284 0.931 . S
C272 C271 1.291 . S
C272 C273 1.373 . S
C272 H285 0.929 . S
C273 C272 1.373 . S
C273 C274 1.396 . S
C273 C280 1.403 . S
C274 C264 1.476 . S
C274 N269 1.318 . S
C274 C273 1.396 . S
H275 C270 0.929 . S
O276 Mn252 2.385 . S
O276 C254 1.234 . S
O277 Mn252 2.209 . S
O277 Mn253 2.215 . S
O277 C254 1.283 . S
O278 Mn252 2.094 . S
O278 C256 1.240 . S
O279 Mn253 2.117 . S
O279 C256 1.264 . S
C280 C273 1.403 . S
C280 C281 1.399 . S
C280 H286 0.929 . S
C281 C261 1.449 . S
C281 C280 1.399 . S
C281 H287 0.930 . S
H282 C262 0.931 . S
H283 C263 0.930 . S
H284 C271 0.931 . S
H285 C272 0.929 . S
H286 C280 0.929 . S
H287 C281 0.930 . S
Mn288 O293 2.095 . S
Mn288 O303 2.162 . S
Mn288 O304 2.297 . S
Mn288 O312 2.385 . S
Mn288 O313 2.209 . S
Mn288 O314 2.094 . S
Mn289 O294 2.121 . S
Mn289 N296 2.257 . S
Mn289 N305 2.282 . S
Mn289 O313 2.215 . S
Mn289 O315 2.117 . S
C290 O312 1.234 . S
C290 O313 1.283 . S
C291 O303 1.281 . S
C291 O304 1.236 . S
C292 O314 1.240 . S
C292 O315 1.264 . S
O293 Mn288 2.095 . S
O293 C302 1.250 . S
O294 Mn289 2.121 . S
O294 C302 1.258 . S
C295 N296 1.326 . S
C295 C299 1.460 . S
C295 H301 0.929 . S
N296 Mn289 2.257 . S
N296 C295 1.326 . S
N296 C300 1.362 . S
C297 C298 1.258 . S
C297 C300 1.431 . S
C297 C317 1.449 . S
C298 C297 1.258 . S
C298 C299 1.477 . S
C298 H318 0.931 . S
C299 C295 1.460 . S
C299 C298 1.477 . S
C299 H319 0.930 . S
C300 N296 1.362 . S
C300 C297 1.431 . S
C300 C310 1.476 . S
H301 C295 0.929 . S
C302 O293 1.250 . S
C302 O294 1.258 . S
O303 Mn288 2.162 . S
O303 C291 1.281 . S
O304 Mn288 2.297 . S
O304 C291 1.236 . S
N305 Mn289 2.282 . S
N305 C306 1.328 . S
N305 C310 1.318 . S
C306 N305 1.328 . S
C306 C307 1.457 . S
C306 H311 0.929 . S
C307 C306 1.457 . S
C307 C308 1.291 . S
C307 H320 0.931 . S
C308 C307 1.291 . S
C308 C309 1.373 . S
C308 H321 0.929 . S
C309 C308 1.373 . S
C309 C310 1.396 . S
C309 C316 1.403 . S
C310 C300 1.476 . S
C310 N305 1.318 . S
C310 C309 1.396 . S
H311 C306 0.929 . S
O312 Mn288 2.385 . S
O312 C290 1.234 . S
O313 Mn288 2.209 . S
O313 Mn289 2.215 . S
O313 C290 1.283 . S
O314 Mn288 2.094 . S
O314 C292 1.240 . S
O315 Mn289 2.117 . S
O315 C292 1.264 . S
C316 C309 1.403 . S
C316 C317 1.399 . S
C316 H322 0.929 . S
C317 C297 1.449 . S
C317 C316 1.399 . S
C317 H323 0.930 . S
H318 C298 0.931 . S
H319 C299 0.930 . S
H320 C307 0.931 . S
H321 C308 0.929 . S
H322 C316 0.929 . S
H323 C317 0.930 . S
Mn324 O329 2.095 . S
Mn324 O339 2.162 . S
Mn324 O340 2.297 . S
Mn324 O348 2.385 . S
Mn324 O349 2.209 . S
Mn324 O350 2.094 . S
Mn325 O330 2.121 . S
Mn325 N332 2.257 . S
Mn325 N341 2.282 . S
Mn325 O349 2.215 . S
Mn325 O351 2.117 . S
C326 O348 1.234 . S
C326 O349 1.283 . S
C327 O339 1.281 . S
C327 O340 1.236 . S
C328 O350 1.240 . S
C328 O351 1.264 . S
O329 Mn324 2.095 . S
O329 C338 1.250 . S
O330 Mn325 2.121 . S
O330 C338 1.258 . S
C331 N332 1.326 . S
C331 C335 1.460 . S
C331 H337 0.929 . S
N332 Mn325 2.257 . S
N332 C331 1.326 . S
N332 C336 1.362 . S
C333 C334 1.258 . S
C333 C336 1.431 . S
C333 C353 1.449 . S
C334 C333 1.258 . S
C334 C335 1.477 . S
C334 H354 0.931 . S
C335 C331 1.460 . S
C335 C334 1.477 . S
C335 H355 0.930 . S
C336 N332 1.362 . S
C336 C333 1.431 . S
C336 C346 1.476 . S
H337 C331 0.929 . S
C338 O329 1.250 . S
C338 O330 1.258 . S
O339 Mn324 2.162 . S
O339 C327 1.281 . S
O340 Mn324 2.297 . S
O340 C327 1.236 . S
N341 Mn325 2.282 . S
N341 C342 1.328 . S
N341 C346 1.318 . S
C342 N341 1.328 . S
C342 C343 1.457 . S
C342 H347 0.929 . S
C343 C342 1.457 . S
C343 C344 1.291 . S
C343 H356 0.931 . S
C344 C343 1.291 . S
C344 C345 1.373 . S
C344 H357 0.929 . S
C345 C344 1.373 . S
C345 C346 1.396 . S
C345 C352 1.403 . S
C346 C336 1.476 . S
C346 N341 1.318 . S
C346 C345 1.396 . S
H347 C342 0.929 . S
O348 Mn324 2.385 . S
O348 C326 1.234 . S
O349 Mn324 2.209 . S
O349 Mn325 2.215 . S
O349 C326 1.283 . S
O350 Mn324 2.094 . S
O350 C328 1.240 . S
O351 Mn325 2.117 . S
O351 C328 1.264 . S
C352 C345 1.403 . S
C352 C353 1.399 . S
C352 H358 0.929 . S
C353 C333 1.449 . S
C353 C352 1.399 . S
C353 H359 0.930 . S
H354 C334 0.931 . S
H355 C335 0.930 . S
H356 C343 0.931 . S
H357 C344 0.929 . S
H358 C352 0.929 . S
H359 C353 0.930 . S
Mn360 O365 2.095 . S
Mn360 O375 2.162 . S
Mn360 O376 2.297 . S
Mn360 O384 2.385 . S
Mn360 O385 2.209 . S
Mn360 O386 2.094 . S
Mn361 O366 2.121 . S
Mn361 N368 2.257 . S
Mn361 N377 2.282 . S
Mn361 O385 2.215 . S
Mn361 O387 2.117 . S
C362 O384 1.234 . S
C362 O385 1.283 . S
C363 O375 1.281 . S
C363 O376 1.236 . S
C364 O386 1.240 . S
C364 O387 1.264 . S
O365 Mn360 2.095 . S
O365 C374 1.250 . S
O366 Mn361 2.121 . S
O366 C374 1.258 . S
C367 N368 1.326 . S
C367 C371 1.460 . S
C367 H373 0.929 . S
N368 Mn361 2.257 . S
N368 C367 1.326 . S
N368 C372 1.362 . S
C369 C370 1.258 . S
C369 C372 1.431 . S
C369 C389 1.449 . S
C370 C369 1.258 . S
C370 C371 1.477 . S
C370 H390 0.931 . S
C371 C367 1.460 . S
C371 C370 1.477 . S
C371 H391 0.930 . S
C372 N368 1.362 . S
C372 C369 1.431 . S
C372 C382 1.476 . S
H373 C367 0.929 . S
C374 O365 1.250 . S
C374 O366 1.258 . S
O375 Mn360 2.162 . S
O375 C363 1.281 . S
O376 Mn360 2.297 . S
O376 C363 1.236 . S
N377 Mn361 2.282 . S
N377 C378 1.328 . S
N377 C382 1.318 . S
C378 N377 1.328 . S
C378 C379 1.457 . S
C378 H383 0.929 . S
C379 C378 1.457 . S
C379 C380 1.291 . S
C379 H392 0.931 . S
C380 C379 1.291 . S
C380 C381 1.373 . S
C380 H393 0.929 . S
C381 C380 1.373 . S
C381 C382 1.396 . S
C381 C388 1.403 . S
C382 C372 1.476 . S
C382 N377 1.318 . S
C382 C381 1.396 . S
H383 C378 0.929 . S
O384 Mn360 2.385 . S
O384 C362 1.234 . S
O385 Mn360 2.209 . S
O385 Mn361 2.215 . S
O385 C362 1.283 . S
O386 Mn360 2.094 . S
O386 C364 1.240 . S
O387 Mn361 2.117 . S
O387 C364 1.264 . S
C388 C381 1.403 . S
C388 C389 1.399 . S
C388 H394 0.929 . S
C389 C369 1.449 . S
C389 C388 1.399 . S
C389 H395 0.930 . S
H390 C370 0.931 . S
H391 C371 0.930 . S
H392 C379 0.931 . S
H393 C380 0.929 . S
H394 C388 0.929 . S
H395 C389 0.930 . S
Mn396 O401 2.095 . S
Mn396 O411 2.162 . S
Mn396 O412 2.297 . S
Mn396 O420 2.385 . S
Mn396 O421 2.209 . S
Mn396 O422 2.094 . S
Mn397 O402 2.121 . S
Mn397 N404 2.257 . S
Mn397 N413 2.282 . S
Mn397 O421 2.215 . S
Mn397 O423 2.117 . S
C398 O420 1.234 . S
C398 O421 1.283 . S
C399 O411 1.281 . S
C399 O412 1.236 . S
C400 O422 1.240 . S
C400 O423 1.264 . S
O401 Mn396 2.095 . S
O401 C410 1.250 . S
O402 Mn397 2.121 . S
O402 C410 1.258 . S
C403 N404 1.326 . S
C403 C407 1.460 . S
C403 H409 0.929 . S
N404 Mn397 2.257 . S
N404 C403 1.326 . S
N404 C408 1.362 . S
C405 C406 1.258 . S
C405 C408 1.431 . S
C405 C425 1.449 . S
C406 C405 1.258 . S
C406 C407 1.477 . S
C406 H426 0.931 . S
C407 C403 1.460 . S
C407 C406 1.477 . S
C407 H427 0.930 . S
C408 N404 1.362 . S
C408 C405 1.431 . S
C408 C418 1.476 . S
H409 C403 0.929 . S
C410 O401 1.250 . S
C410 O402 1.258 . S
O411 Mn396 2.162 . S
O411 C399 1.281 . S
O412 Mn396 2.297 . S
O412 C399 1.236 . S
N413 Mn397 2.282 . S
N413 C414 1.328 . S
N413 C418 1.318 . S
C414 N413 1.328 . S
C414 C415 1.457 . S
C414 H419 0.929 . S
C415 C414 1.457 . S
C415 C416 1.291 . S
C415 H428 0.931 . S
C416 C415 1.291 . S
C416 C417 1.373 . S
C416 H429 0.929 . S
C417 C416 1.373 . S
C417 C418 1.396 . S
C417 C424 1.403 . S
C418 C408 1.476 . S
C418 N413 1.318 . S
C418 C417 1.396 . S
H419 C414 0.929 . S
O420 Mn396 2.385 . S
O420 C398 1.234 . S
O421 Mn396 2.209 . S
O421 Mn397 2.215 . S
O421 C398 1.283 . S
O422 Mn396 2.094 . S
O422 C400 1.240 . S
O423 Mn397 2.117 . S
O423 C400 1.264 . S
C424 C417 1.403 . S
C424 C425 1.399 . S
C424 H430 0.929 . S
C425 C405 1.449 . S
C425 C424 1.399 . S
C425 H431 0.930 . S
H426 C406 0.931 . S
H427 C407 0.930 . S
H428 C415 0.931 . S
H429 C416 0.929 . S
H430 C424 0.929 . S
H431 C425 0.930 . S
Mn432 O437 2.095 . S
Mn432 O447 2.162 . S
Mn432 O448 2.297 . S
Mn432 O456 2.385 . S
Mn432 O457 2.209 . S
Mn432 O458 2.094 . S
Mn433 O438 2.121 . S
Mn433 N440 2.257 . S
Mn433 N449 2.282 . S
Mn433 O457 2.215 . S
Mn433 O459 2.117 . S
C434 O456 1.234 . S
C434 O457 1.283 . S
C435 O447 1.281 . S
C435 O448 1.236 . S
C436 O458 1.240 . S
C436 O459 1.264 . S
O437 Mn432 2.095 . S
O437 C446 1.250 . S
O438 Mn433 2.121 . S
O438 C446 1.258 . S
C439 N440 1.326 . S
C439 C443 1.460 . S
C439 H445 0.929 . S
N440 Mn433 2.257 . S
N440 C439 1.326 . S
N440 C444 1.362 . S
C441 C442 1.258 . S
C441 C444 1.431 . S
C441 C461 1.449 . S
C442 C441 1.258 . S
C442 C443 1.477 . S
C442 H462 0.931 . S
C443 C439 1.460 . S
C443 C442 1.477 . S
C443 H463 0.930 . S
C444 N440 1.362 . S
C444 C441 1.431 . S
C444 C454 1.476 . S
H445 C439 0.929 . S
C446 O437 1.250 . S
C446 O438 1.258 . S
O447 Mn432 2.162 . S
O447 C435 1.281 . S
O448 Mn432 2.297 . S
O448 C435 1.236 . S
N449 Mn433 2.282 . S
N449 C450 1.328 . S
N449 C454 1.318 . S
C450 N449 1.328 . S
C450 C451 1.457 . S
C450 H455 0.929 . S
C451 C450 1.457 . S
C451 C452 1.291 . S
C451 H464 0.931 . S
C452 C451 1.291 . S
C452 C453 1.373 . S
C452 H465 0.929 . S
C453 C452 1.373 . S
C453 C454 1.396 . S
C453 C460 1.403 . S
C454 C444 1.476 . S
C454 N449 1.318 . S
C454 C453 1.396 . S
H455 C450 0.929 . S
O456 Mn432 2.385 . S
O456 C434 1.234 . S
O457 Mn432 2.209 . S
O457 Mn433 2.215 . S
O457 C434 1.283 . S
O458 Mn432 2.094 . S
O458 C436 1.240 . S
O459 Mn433 2.117 . S
O459 C436 1.264 . S
C460 C453 1.403 . S
C460 C461 1.399 . S
C460 H466 0.929 . S
C461 C441 1.449 . S
C461 C460 1.399 . S
C461 H467 0.930 . S
H462 C442 0.931 . S
H463 C443 0.930 . S
H464 C451 0.931 . S
H465 C452 0.929 . S
H466 C460 0.929 . S
H467 C461 0.930 . S
Mn468 O473 2.095 . S
Mn468 O483 2.162 . S
Mn468 O484 2.297 . S
Mn468 O492 2.385 . S
Mn468 O493 2.209 . S
Mn468 O494 2.094 . S
Mn469 O474 2.121 . S
Mn469 N476 2.257 . S
Mn469 N485 2.282 . S
Mn469 O493 2.215 . S
Mn469 O495 2.117 . S
C470 O492 1.234 . S
C470 O493 1.283 . S
C471 O483 1.281 . S
C471 O484 1.236 . S
C472 O494 1.240 . S
C472 O495 1.264 . S
O473 Mn468 2.095 . S
O473 C482 1.250 . S
O474 Mn469 2.121 . S
O474 C482 1.258 . S
C475 N476 1.326 . S
C475 C479 1.460 . S
C475 H481 0.929 . S
N476 Mn469 2.257 . S
N476 C475 1.326 . S
N476 C480 1.362 . S
C477 C478 1.258 . S
C477 C480 1.431 . S
C477 C497 1.449 . S
C478 C477 1.258 . S
C478 C479 1.477 . S
C478 H498 0.931 . S
C479 C475 1.460 . S
C479 C478 1.477 . S
C479 H499 0.930 . S
C480 N476 1.362 . S
C480 C477 1.431 . S
C480 C490 1.476 . S
H481 C475 0.929 . S
C482 O473 1.250 . S
C482 O474 1.258 . S
O483 Mn468 2.162 . S
O483 C471 1.281 . S
O484 Mn468 2.297 . S
O484 C471 1.236 . S
N485 Mn469 2.282 . S
N485 C486 1.328 . S
N485 C490 1.318 . S
C486 N485 1.328 . S
C486 C487 1.457 . S
C486 H491 0.929 . S
C487 C486 1.457 . S
C487 C488 1.291 . S
C487 H500 0.931 . S
C488 C487 1.291 . S
C488 C489 1.373 . S
C488 H501 0.929 . S
C489 C488 1.373 . S
C489 C490 1.396 . S
C489 C496 1.403 . S
C490 C480 1.476 . S
C490 N485 1.318 . S
C490 C489 1.396 . S
H491 C486 0.929 . S
O492 Mn468 2.385 . S
O492 C470 1.234 . S
O493 Mn468 2.209 . S
O493 Mn469 2.215 . S
O493 C470 1.283 . S
O494 Mn468 2.094 . S
O494 C472 1.240 . S
O495 Mn469 2.117 . S
O495 C472 1.264 . S
C496 C489 1.403 . S
C496 C497 1.399 . S
C496 H502 0.929 . S
C497 C477 1.449 . S
C497 C496 1.399 . S
C497 H503 0.930 . S
H498 C478 0.931 . S
H499 C479 0.930 . S
H500 C487 0.931 . S
H501 C488 0.929 . S
H502 C496 0.929 . S
H503 C497 0.930 . S
Mn504 O509 2.095 . S
Mn504 O519 2.162 . S
Mn504 O520 2.297 . S
Mn504 O528 2.385 . S
Mn504 O529 2.209 . S
Mn504 O530 2.094 . S
Mn505 O510 2.121 . S
Mn505 N512 2.257 . S
Mn505 N521 2.282 . S
Mn505 O529 2.215 . S
Mn505 O531 2.117 . S
C506 O528 1.234 . S
C506 O529 1.283 . S
C507 O519 1.281 . S
C507 O520 1.236 . S
C508 O530 1.240 . S
C508 O531 1.264 . S
O509 Mn504 2.095 . S
O509 C518 1.250 . S
O510 Mn505 2.121 . S
O510 C518 1.258 . S
C511 N512 1.326 . S
C511 C515 1.460 . S
C511 H517 0.929 . S
N512 Mn505 2.257 . S
N512 C511 1.326 . S
N512 C516 1.362 . S
C513 C514 1.258 . S
C513 C516 1.431 . S
C513 C533 1.449 . S
C514 C513 1.258 . S
C514 C515 1.477 . S
C514 H534 0.931 . S
C515 C511 1.460 . S
C515 C514 1.477 . S
C515 H535 0.930 . S
C516 N512 1.362 . S
C516 C513 1.431 . S
C516 C526 1.476 . S
H517 C511 0.929 . S
C518 O509 1.250 . S
C518 O510 1.258 . S
O519 Mn504 2.162 . S
O519 C507 1.281 . S
O520 Mn504 2.297 . S
O520 C507 1.236 . S
N521 Mn505 2.282 . S
N521 C522 1.328 . S
N521 C526 1.318 . S
C522 N521 1.328 . S
C522 C523 1.457 . S
C522 H527 0.929 . S
C523 C522 1.457 . S
C523 C524 1.291 . S
C523 H536 0.931 . S
C524 C523 1.291 . S
C524 C525 1.373 . S
C524 H537 0.929 . S
C525 C524 1.373 . S
C525 C526 1.396 . S
C525 C532 1.403 . S
C526 C516 1.476 . S
C526 N521 1.318 . S
C526 C525 1.396 . S
H527 C522 0.929 . S
O528 Mn504 2.385 . S
O528 C506 1.234 . S
O529 Mn504 2.209 . S
O529 Mn505 2.215 . S
O529 C506 1.283 . S
O530 Mn504 2.094 . S
O530 C508 1.240 . S
O531 Mn505 2.117 . S
O531 C508 1.264 . S
C532 C525 1.403 . S
C532 C533 1.399 . S
C532 H538 0.929 . S
C533 C513 1.449 . S
C533 C532 1.399 . S
C533 H539 0.930 . S
H534 C514 0.931 . S
H535 C515 0.930 . S
H536 C523 0.931 . S
H537 C524 0.929 . S
H538 C532 0.929 . S
H539 C533 0.930 . S
Mn540 O545 2.095 . S
Mn540 O555 2.162 . S
Mn540 O556 2.297 . S
Mn540 O564 2.385 . S
Mn540 O565 2.209 . S
Mn540 O566 2.094 . S
Mn541 O546 2.121 . S
Mn541 N548 2.257 . S
Mn541 N557 2.282 . S
Mn541 O565 2.215 . S
Mn541 O567 2.117 . S
C542 O564 1.234 . S
C542 O565 1.283 . S
C543 O555 1.281 . S
C543 O556 1.236 . S
C544 O566 1.240 . S
C544 O567 1.264 . S
O545 Mn540 2.095 . S
O545 C554 1.250 . S
O546 Mn541 2.121 . S
O546 C554 1.258 . S
C547 N548 1.326 . S
C547 C551 1.460 . S
C547 H553 0.929 . S
N548 Mn541 2.257 . S
N548 C547 1.326 . S
N548 C552 1.362 . S
C549 C550 1.258 . S
C549 C552 1.431 . S
C549 C569 1.449 . S
C550 C549 1.258 . S
C550 C551 1.477 . S
C550 H570 0.931 . S
C551 C547 1.460 . S
C551 C550 1.477 . S
C551 H571 0.930 . S
C552 N548 1.362 . S
C552 C549 1.431 . S
C552 C562 1.476 . S
H553 C547 0.929 . S
C554 O545 1.250 . S
C554 O546 1.258 . S
O555 Mn540 2.162 . S
O555 C543 1.281 . S
O556 Mn540 2.297 . S
O556 C543 1.236 . S
N557 Mn541 2.282 . S
N557 C558 1.328 . S
N557 C562 1.318 . S
C558 N557 1.328 . S
C558 C559 1.457 . S
C558 H563 0.929 . S
C559 C558 1.457 . S
C559 C560 1.291 . S
C559 H572 0.931 . S
C560 C559 1.291 . S
C560 C561 1.373 . S
C560 H573 0.929 . S
C561 C560 1.373 . S
C561 C562 1.396 . S
C561 C568 1.403 . S
C562 C552 1.476 . S
C562 N557 1.318 . S
C562 C561 1.396 . S
H563 C558 0.929 . S
O564 Mn540 2.385 . S
O564 C542 1.234 . S
O565 Mn540 2.209 . S
O565 Mn541 2.215 . S
O565 C542 1.283 . S
O566 Mn540 2.094 . S
O566 C544 1.240 . S
O567 Mn541 2.117 . S
O567 C544 1.264 . S
C568 C561 1.403 . S
C568 C569 1.399 . S
C568 H574 0.929 . S
C569 C549 1.449 . S
C569 C568 1.399 . S
C569 H575 0.930 . S
H570 C550 0.931 . S
H571 C551 0.930 . S
H572 C559 0.931 . S
H573 C560 0.929 . S
H574 C568 0.929 . S
H575 C569 0.930 . S
Mn576 O581 2.095 . S
Mn576 O591 2.162 . S
Mn576 O592 2.297 . S
Mn576 O600 2.385 . S
Mn576 O601 2.209 . S
Mn576 O602 2.094 . S
Mn577 O582 2.121 . S
Mn577 N584 2.257 . S
Mn577 N593 2.282 . S
Mn577 O601 2.215 . S
Mn577 O603 2.117 . S
C578 O600 1.234 . S
C578 O601 1.283 . S
C579 O591 1.281 . S
C579 O592 1.236 . S
C580 O602 1.240 . S
C580 O603 1.264 . S
O581 Mn576 2.095 . S
O581 C590 1.250 . S
O582 Mn577 2.121 . S
O582 C590 1.258 . S
C583 N584 1.326 . S
C583 C587 1.460 . S
C583 H589 0.929 . S
N584 Mn577 2.257 . S
N584 C583 1.326 . S
N584 C588 1.362 . S
C585 C586 1.258 . S
C585 C588 1.431 . S
C585 C605 1.449 . S
C586 C585 1.258 . S
C586 C587 1.477 . S
C586 H606 0.931 . S
C587 C583 1.460 . S
C587 C586 1.477 . S
C587 H607 0.930 . S
C588 N584 1.362 . S
C588 C585 1.431 . S
C588 C598 1.476 . S
H589 C583 0.929 . S
C590 O581 1.250 . S
C590 O582 1.258 . S
O591 Mn576 2.162 . S
O591 C579 1.281 . S
O592 Mn576 2.297 . S
O592 C579 1.236 . S
N593 Mn577 2.282 . S
N593 C594 1.328 . S
N593 C598 1.318 . S
C594 N593 1.328 . S
C594 C595 1.457 . S
C594 H599 0.929 . S
C595 C594 1.457 . S
C595 C596 1.291 . S
C595 H608 0.931 . S
C596 C595 1.291 . S
C596 C597 1.373 . S
C596 H609 0.929 . S
C597 C596 1.373 . S
C597 C598 1.396 . S
C597 C604 1.403 . S
C598 C588 1.476 . S
C598 N593 1.318 . S
C598 C597 1.396 . S
H599 C594 0.929 . S
O600 Mn576 2.385 . S
O600 C578 1.234 . S
O601 Mn576 2.209 . S
O601 Mn577 2.215 . S
O601 C578 1.283 . S
O602 Mn576 2.094 . S
O602 C580 1.240 . S
O603 Mn577 2.117 . S
O603 C580 1.264 . S
C604 C597 1.403 . S
C604 C605 1.399 . S
C604 H610 0.929 . S
C605 C585 1.449 . S
C605 C604 1.399 . S
C605 H611 0.930 . S
H606 C586 0.931 . S
H607 C587 0.930 . S
H608 C595 0.931 . S
H609 C596 0.929 . S
H610 C604 0.929 . S
H611 C605 0.930 . S
Mn612 O617 2.095 . S
Mn612 O627 2.162 . S
Mn612 O628 2.297 . S
Mn612 O636 2.385 . S
Mn612 O637 2.209 . S
Mn612 O638 2.094 . S
Mn613 O618 2.121 . S
Mn613 N620 2.257 . S
Mn613 N629 2.282 . S
Mn613 O637 2.215 . S
Mn613 O639 2.117 . S
C614 O636 1.234 . S
C614 O637 1.283 . S
C615 O627 1.281 . S
C615 O628 1.236 . S
C616 O638 1.240 . S
C616 O639 1.264 . S
O617 Mn612 2.095 . S
O617 C626 1.250 . S
O618 Mn613 2.121 . S
O618 C626 1.258 . S
C619 N620 1.326 . S
C619 C623 1.460 . S
C619 H625 0.929 . S
N620 Mn613 2.257 . S
N620 C619 1.326 . S
N620 C624 1.362 . S
C621 C622 1.258 . S
C621 C624 1.431 . S
C621 C641 1.449 . S
C622 C621 1.258 . S
C622 C623 1.477 . S
C622 H642 0.931 . S
C623 C619 1.460 . S
C623 C622 1.477 . S
C623 H643 0.930 . S
C624 N620 1.362 . S
C624 C621 1.431 . S
C624 C634 1.476 . S
H625 C619 0.929 . S
C626 O617 1.250 . S
C626 O618 1.258 . S
O627 Mn612 2.162 . S
O627 C615 1.281 . S
O628 Mn612 2.297 . S
O628 C615 1.236 . S
N629 Mn613 2.282 . S
N629 C630 1.328 . S
N629 C634 1.318 . S
C630 N629 1.328 . S
C630 C631 1.457 . S
C630 H635 0.929 . S
C631 C630 1.457 . S
C631 C632 1.291 . S
C631 H644 0.931 . S
C632 C631 1.291 . S
C632 C633 1.373 . S
C632 H645 0.929 . S
C633 C632 1.373 . S
C633 C634 1.396 . S
C633 C640 1.403 . S
C634 C624 1.476 . S
C634 N629 1.318 . S
C634 C633 1.396 . S
H635 C630 0.929 . S
O636 Mn612 2.385 . S
O636 C614 1.234 . S
O637 Mn612 2.209 . S
O637 Mn613 2.215 . S
O637 C614 1.283 . S
O638 Mn612 2.094 . S
O638 C616 1.240 . S
O639 Mn613 2.117 . S
O639 C616 1.264 . S
C640 C633 1.403 . S
C640 C641 1.399 . S
C640 H646 0.929 . S
C641 C621 1.449 . S
C641 C640 1.399 . S
C641 H647 0.930 . S
H642 C622 0.931 . S
H643 C623 0.930 . S
H644 C631 0.931 . S
H645 C632 0.929 . S
H646 C640 0.929 . S
H647 C641 0.930 . S
Mn648 O653 2.095 . S
Mn648 O663 2.162 . S
Mn648 O664 2.297 . S
Mn648 O672 2.385 . S
Mn648 O673 2.209 . S
Mn648 O674 2.094 . S
Mn649 O654 2.121 . S
Mn649 N656 2.257 . S
Mn649 N665 2.282 . S
Mn649 O673 2.215 . S
Mn649 O675 2.117 . S
C650 O672 1.234 . S
C650 O673 1.283 . S
C651 O663 1.281 . S
C651 O664 1.236 . S
C652 O674 1.240 . S
C652 O675 1.264 . S
O653 Mn648 2.095 . S
O653 C662 1.250 . S
O654 Mn649 2.121 . S
O654 C662 1.258 . S
C655 N656 1.326 . S
C655 C659 1.460 . S
C655 H661 0.929 . S
N656 Mn649 2.257 . S
N656 C655 1.326 . S
N656 C660 1.362 . S
C657 C658 1.258 . S
C657 C660 1.431 . S
C657 C677 1.449 . S
C658 C657 1.258 . S
C658 C659 1.477 . S
C658 H678 0.931 . S
C659 C655 1.460 . S
C659 C658 1.477 . S
C659 H679 0.930 . S
C660 N656 1.362 . S
C660 C657 1.431 . S
C660 C670 1.476 . S
H661 C655 0.929 . S
C662 O653 1.250 . S
C662 O654 1.258 . S
O663 Mn648 2.162 . S
O663 C651 1.281 . S
O664 Mn648 2.297 . S
O664 C651 1.236 . S
N665 Mn649 2.282 . S
N665 C666 1.328 . S
N665 C670 1.318 . S
C666 N665 1.328 . S
C666 C667 1.457 . S
C666 H671 0.929 . S
C667 C666 1.457 . S
C667 C668 1.291 . S
C667 H680 0.931 . S
C668 C667 1.291 . S
C668 C669 1.373 . S
C668 H681 0.929 . S
C669 C668 1.373 . S
C669 C670 1.396 . S
C669 C676 1.403 . S
C670 C660 1.476 . S
C670 N665 1.318 . S
C670 C669 1.396 . S
H671 C666 0.929 . S
O672 Mn648 2.385 . S
O672 C650 1.234 . S
O673 Mn648 2.209 . S
O673 Mn649 2.215 . S
O673 C650 1.283 . S
O674 Mn648 2.094 . S
O674 C652 1.240 . S
O675 Mn649 2.117 . S
O675 C652 1.264 . S
C676 C669 1.403 . S
C676 C677 1.399 . S
C676 H682 0.929 . S
C677 C657 1.449 . S
C677 C676 1.399 . S
C677 H683 0.930 . S
H678 C658 0.931 . S
H679 C659 0.930 . S
H680 C667 0.931 . S
H681 C668 0.929 . S
H682 C676 0.929 . S
H683 C677 0.930 . S
Mn684 O689 2.095 . S
Mn684 O699 2.162 . S
Mn684 O700 2.297 . S
Mn684 O708 2.385 . S
Mn684 O709 2.209 . S
Mn684 O710 2.094 . S
Mn685 O690 2.121 . S
Mn685 N692 2.257 . S
Mn685 N701 2.282 . S
Mn685 O709 2.215 . S
Mn685 O711 2.117 . S
C686 O708 1.234 . S
C686 O709 1.283 . S
C687 O699 1.281 . S
C687 O700 1.236 . S
C688 O710 1.240 . S
C688 O711 1.264 . S
O689 Mn684 2.095 . S
O689 C698 1.250 . S
O690 Mn685 2.121 . S
O690 C698 1.258 . S
C691 N692 1.326 . S
C691 C695 1.460 . S
C691 H697 0.929 . S
N692 Mn685 2.257 . S
N692 C691 1.326 . S
N692 C696 1.362 . S
C693 C694 1.258 . S
C693 C696 1.431 . S
C693 C713 1.449 . S
C694 C693 1.258 . S
C694 C695 1.477 . S
C694 H714 0.931 . S
C695 C691 1.460 . S
C695 C694 1.477 . S
C695 H715 0.930 . S
C696 N692 1.362 . S
C696 C693 1.431 . S
C696 C706 1.476 . S
H697 C691 0.929 . S
C698 O689 1.250 . S
C698 O690 1.258 . S
O699 Mn684 2.162 . S
O699 C687 1.281 . S
O700 Mn684 2.297 . S
O700 C687 1.236 . S
N701 Mn685 2.282 . S
N701 C702 1.328 . S
N701 C706 1.318 . S
C702 N701 1.328 . S
C702 C703 1.457 . S
C702 H707 0.929 . S
C703 C702 1.457 . S
C703 C704 1.291 . S
C703 H716 0.931 . S
C704 C703 1.291 . S
C704 C705 1.373 . S
C704 H717 0.929 . S
C705 C704 1.373 . S
C705 C706 1.396 . S
C705 C712 1.403 . S
C706 C696 1.476 . S
C706 N701 1.318 . S
C706 C705 1.396 . S
H707 C702 0.929 . S
O708 Mn684 2.385 . S
O708 C686 1.234 . S
O709 Mn684 2.209 . S
O709 Mn685 2.215 . S
O709 C686 1.283 . S
O710 Mn684 2.094 . S
O710 C688 1.240 . S
O711 Mn685 2.117 . S
O711 C688 1.264 . S
C712 C705 1.403 . S
C712 C713 1.399 . S
C712 H718 0.929 . S
C713 C693 1.449 . S
C713 C712 1.399 . S
C713 H719 0.930 . S
H714 C694 0.931 . S
H715 C695 0.930 . S
H716 C703 0.931 . S
H717 C704 0.929 . S
H718 C712 0.929 . S
H719 C713 0.930 . S
Mn720 O725 2.095 . S
Mn720 O735 2.162 . S
Mn720 O736 2.297 . S
Mn720 O744 2.385 . S
Mn720 O745 2.209 . S
Mn720 O746 2.094 . S
Mn721 O726 2.121 . S
Mn721 N728 2.257 . S
Mn721 N737 2.282 . S
Mn721 O745 2.215 . S
Mn721 O747 2.117 . S
C722 O744 1.234 . S
C722 O745 1.283 . S
C723 O735 1.281 . S
C723 O736 1.236 . S
C724 O746 1.240 . S
C724 O747 1.264 . S
O725 Mn720 2.095 . S
O725 C734 1.250 . S
O726 Mn721 2.121 . S
O726 C734 1.258 . S
C727 N728 1.326 . S
C727 C731 1.460 . S
C727 H733 0.929 . S
N728 Mn721 2.257 . S
N728 C727 1.326 . S
N728 C732 1.362 . S
C729 C730 1.258 . S
C729 C732 1.431 . S
C729 C749 1.449 . S
C730 C729 1.258 . S
C730 C731 1.477 . S
C730 H750 0.931 . S
C731 C727 1.460 . S
C731 C730 1.477 . S
C731 H751 0.930 . S
C732 N728 1.362 . S
C732 C729 1.431 . S
C732 C742 1.476 . S
H733 C727 0.929 . S
C734 O725 1.250 . S
C734 O726 1.258 . S
O735 Mn720 2.162 . S
O735 C723 1.281 . S
O736 Mn720 2.297 . S
O736 C723 1.236 . S
N737 Mn721 2.282 . S
N737 C738 1.328 . S
N737 C742 1.318 . S
C738 N737 1.328 . S
C738 C739 1.457 . S
C738 H743 0.929 . S
C739 C738 1.457 . S
C739 C740 1.291 . S
C739 H752 0.931 . S
C740 C739 1.291 . S
C740 C741 1.373 . S
C740 H753 0.929 . S
C741 C740 1.373 . S
C741 C742 1.396 . S
C741 C748 1.403 . S
C742 C732 1.476 . S
C742 N737 1.318 . S
C742 C741 1.396 . S
H743 C738 0.929 . S
O744 Mn720 2.385 . S
O744 C722 1.234 . S
O745 Mn720 2.209 . S
O745 Mn721 2.215 . S
O745 C722 1.283 . S
O746 Mn720 2.094 . S
O746 C724 1.240 . S
O747 Mn721 2.117 . S
O747 C724 1.264 . S
C748 C741 1.403 . S
C748 C749 1.399 . S
C748 H754 0.929 . S
C749 C729 1.449 . S
C749 C748 1.399 . S
C749 H755 0.930 . S
H750 C730 0.931 . S
H751 C731 0.930 . S
H752 C739 0.931 . S
H753 C740 0.929 . S
H754 C748 0.929 . S
H755 C749 0.930 . S
Mn756 O761 2.095 . S
Mn756 O771 2.162 . S
Mn756 O772 2.297 . S
Mn756 O780 2.385 . S
Mn756 O781 2.209 . S
Mn756 O782 2.094 . S
Mn757 O762 2.121 . S
Mn757 N764 2.257 . S
Mn757 N773 2.282 . S
Mn757 O781 2.215 . S
Mn757 O783 2.117 . S
C758 O780 1.234 . S
C758 O781 1.283 . S
C759 O771 1.281 . S
C759 O772 1.236 . S
C760 O782 1.240 . S
C760 O783 1.264 . S
O761 Mn756 2.095 . S
O761 C770 1.250 . S
O762 Mn757 2.121 . S
O762 C770 1.258 . S
C763 N764 1.326 . S
C763 C767 1.460 . S
C763 H769 0.929 . S
N764 Mn757 2.257 . S
N764 C763 1.326 . S
N764 C768 1.362 . S
C765 C766 1.258 . S
C765 C768 1.431 . S
C765 C785 1.449 . S
C766 C765 1.258 . S
C766 C767 1.477 . S
C766 H786 0.931 . S
C767 C763 1.460 . S
C767 C766 1.477 . S
C767 H787 0.930 . S
C768 N764 1.362 . S
C768 C765 1.431 . S
C768 C778 1.476 . S
H769 C763 0.929 . S
C770 O761 1.250 . S
C770 O762 1.258 . S
O771 Mn756 2.162 . S
O771 C759 1.281 . S
O772 Mn756 2.297 . S
O772 C759 1.236 . S
N773 Mn757 2.282 . S
N773 C774 1.328 . S
N773 C778 1.318 . S
C774 N773 1.328 . S
C774 C775 1.457 . S
C774 H779 0.929 . S
C775 C774 1.457 . S
C775 C776 1.291 . S
C775 H788 0.931 . S
C776 C775 1.291 . S
C776 C777 1.373 . S
C776 H789 0.929 . S
C777 C776 1.373 . S
C777 C778 1.396 . S
C777 C784 1.403 . S
C778 C768 1.476 . S
C778 N773 1.318 . S
C778 C777 1.396 . S
H779 C774 0.929 . S
O780 Mn756 2.385 . S
O780 C758 1.234 . S
O781 Mn756 2.209 . S
O781 Mn757 2.215 . S
O781 C758 1.283 . S
O782 Mn756 2.094 . S
O782 C760 1.240 . S
O783 Mn757 2.117 . S
O783 C760 1.264 . S
C784 C777 1.403 . S
C784 C785 1.399 . S
C784 H790 0.929 . S
C785 C765 1.449 . S
C785 C784 1.399 . S
C785 H791 0.930 . S
H786 C766 0.931 . S
H787 C767 0.930 . S
H788 C775 0.931 . S
H789 C776 0.929 . S
H790 C784 0.929 . S
H791 C785 0.930 . S
Mn792 O797 2.095 . S
Mn792 O807 2.162 . S
Mn792 O808 2.297 . S
Mn792 O816 2.385 . S
Mn792 O817 2.209 . S
Mn792 O818 2.094 . S
Mn793 O798 2.121 . S
Mn793 N800 2.257 . S
Mn793 N809 2.282 . S
Mn793 O817 2.215 . S
Mn793 O819 2.117 . S
C794 O816 1.234 . S
C794 O817 1.283 . S
C795 O807 1.281 . S
C795 O808 1.236 . S
C796 O818 1.240 . S
C796 O819 1.264 . S
O797 Mn792 2.095 . S
O797 C806 1.250 . S
O798 Mn793 2.121 . S
O798 C806 1.258 . S
C799 N800 1.326 . S
C799 C803 1.460 . S
C799 H805 0.929 . S
N800 Mn793 2.257 . S
N800 C799 1.326 . S
N800 C804 1.362 . S
C801 C802 1.258 . S
C801 C804 1.431 . S
C801 C821 1.449 . S
C802 C801 1.258 . S
C802 C803 1.477 . S
C802 H822 0.931 . S
C803 C799 1.460 . S
C803 C802 1.477 . S
C803 H823 0.930 . S
C804 N800 1.362 . S
C804 C801 1.431 . S
C804 C814 1.476 . S
H805 C799 0.929 . S
C806 O797 1.250 . S
C806 O798 1.258 . S
O807 Mn792 2.162 . S
O807 C795 1.281 . S
O808 Mn792 2.297 . S
O808 C795 1.236 . S
N809 Mn793 2.282 . S
N809 C810 1.328 . S
N809 C814 1.318 . S
C810 N809 1.328 . S
C810 C811 1.457 . S
C810 H815 0.929 . S
C811 C810 1.457 . S
C811 C812 1.291 . S
C811 H824 0.931 . S
C812 C811 1.291 . S
C812 C813 1.373 . S
C812 H825 0.929 . S
C813 C812 1.373 . S
C813 C814 1.396 . S
C813 C820 1.403 . S
C814 C804 1.476 . S
C814 N809 1.318 . S
C814 C813 1.396 . S
H815 C810 0.929 . S
O816 Mn792 2.385 . S
O816 C794 1.234 . S
O817 Mn792 2.209 . S
O817 Mn793 2.215 . S
O817 C794 1.283 . S
O818 Mn792 2.094 . S
O818 C796 1.240 . S
O819 Mn793 2.117 . S
O819 C796 1.264 . S
C820 C813 1.403 . S
C820 C821 1.399 . S
C820 H826 0.929 . S
C821 C801 1.449 . S
C821 C820 1.399 . S
C821 H827 0.930 . S
H822 C802 0.931 . S
H823 C803 0.930 . S
H824 C811 0.931 . S
H825 C812 0.929 . S
H826 C820 0.929 . S
H827 C821 0.930 . S
Mn828 O833 2.095 . S
Mn828 O843 2.162 . S
Mn828 O844 2.297 . S
Mn828 O852 2.385 . S
Mn828 O853 2.209 . S
Mn828 O854 2.094 . S
Mn829 O834 2.121 . S
Mn829 N836 2.257 . S
Mn829 N845 2.282 . S
Mn829 O853 2.215 . S
Mn829 O855 2.117 . S
C830 O852 1.234 . S
C830 O853 1.283 . S
C831 O843 1.281 . S
C831 O844 1.236 . S
C832 O854 1.240 . S
C832 O855 1.264 . S
O833 Mn828 2.095 . S
O833 C842 1.250 . S
O834 Mn829 2.121 . S
O834 C842 1.258 . S
C835 N836 1.326 . S
C835 C839 1.460 . S
C835 H841 0.929 . S
N836 Mn829 2.257 . S
N836 C835 1.326 . S
N836 C840 1.362 . S
C837 C838 1.258 . S
C837 C840 1.431 . S
C837 C857 1.449 . S
C838 C837 1.258 . S
C838 C839 1.477 . S
C838 H858 0.931 . S
C839 C835 1.460 . S
C839 C838 1.477 . S
C839 H859 0.930 . S
C840 N836 1.362 . S
C840 C837 1.431 . S
C840 C850 1.476 . S
H841 C835 0.929 . S
C842 O833 1.250 . S
C842 O834 1.258 . S
O843 Mn828 2.162 . S
O843 C831 1.281 . S
O844 Mn828 2.297 . S
O844 C831 1.236 . S
N845 Mn829 2.282 . S
N845 C846 1.328 . S
N845 C850 1.318 . S
C846 N845 1.328 . S
C846 C847 1.457 . S
C846 H851 0.929 . S
C847 C846 1.457 . S
C847 C848 1.291 . S
C847 H860 0.931 . S
C848 C847 1.291 . S
C848 C849 1.373 . S
C848 H861 0.929 . S
C849 C848 1.373 . S
C849 C850 1.396 . S
C849 C856 1.403 . S
C850 C840 1.476 . S
C850 N845 1.318 . S
C850 C849 1.396 . S
H851 C846 0.929 . S
O852 Mn828 2.385 . S
O852 C830 1.234 . S
O853 Mn828 2.209 . S
O853 Mn829 2.215 . S
O853 C830 1.283 . S
O854 Mn828 2.094 . S
O854 C832 1.240 . S
O855 Mn829 2.117 . S
O855 C832 1.264 . S
C856 C849 1.403 . S
C856 C857 1.399 . S
C856 H862 0.929 . S
C857 C837 1.449 . S
C857 C856 1.399 . S
C857 H863 0.930 . S
H858 C838 0.931 . S
H859 C839 0.930 . S
H860 C847 0.931 . S
H861 C848 0.929 . S
H862 C856 0.929 . S
H863 C857 0.930 . S
C864 C865 1.387 . S
C864 H868 0.950 . S
C864 C873 1.390 . S
C865 C864 1.387 . S
C865 C867 1.387 . S
H866 C873 0.950 . S
C867 C865 1.387 . S
C867 C869 1.390 . S
C867 H871 0.950 . S
H868 C864 0.950 . S
C869 C867 1.390 . S
C869 C870 1.387 . S
C869 H872 0.950 . S
C870 C869 1.387 . S
C870 C873 1.387 . S
H871 C867 0.950 . S
H872 C869 0.950 . S
C873 C864 1.390 . S
C873 H866 0.950 . S
C873 C870 1.387 . S
C874 C875 1.387 . S
C874 H878 0.950 . S
C874 C883 1.390 . S
C875 C874 1.387 . S
C875 C877 1.387 . S
H876 C883 0.950 . S
C877 C875 1.387 . S
C877 C879 1.390 . S
C877 H881 0.950 . S
H878 C874 0.950 . S
C879 C877 1.390 . S
C879 C880 1.387 . S
C879 H882 0.950 . S
C880 C879 1.387 . S
C880 C883 1.387 . S
H881 C877 0.950 . S
H882 C879 0.950 . S
C883 C874 1.390 . S
C883 H876 0.950 . S
C883 C880 1.387 . S
C884 C885 1.387 . S
C884 H888 0.950 . S
C884 C893 1.390 . S
C885 C884 1.387 . S
C885 C887 1.387 . S
H886 C893 0.950 . S
C887 C885 1.387 . S
C887 C889 1.390 . S
C887 H891 0.950 . S
H888 C884 0.950 . S
C889 C887 1.390 . S
C889 C890 1.387 . S
C889 H892 0.950 . S
C890 C889 1.387 . S
C890 C893 1.387 . S
H891 C887 0.950 . S
H892 C889 0.950 . S
C893 C884 1.390 . S
C893 H886 0.950 . S
C893 C890 1.387 . S
C894 C895 1.387 . S
C894 H898 0.950 . S
C894 C903 1.390 . S
C895 C894 1.387 . S
C895 C897 1.387 . S
H896 C903 0.950 . S
C897 C895 1.387 . S
C897 C899 1.390 . S
C897 H901 0.950 . S
H898 C894 0.950 . S
C899 C897 1.390 . S
C899 C900 1.387 . S
C899 H902 0.950 . S
C900 C899 1.387 . S
C900 C903 1.387 . S
H901 C897 0.950 . S
H902 C899 0.950 . S
C903 C894 1.390 . S
C903 H896 0.950 . S
C903 C900 1.387 . S
C904 C905 1.387 . S
C904 H908 0.950 . S
C904 C913 1.390 . S
C905 C904 1.387 . S
C905 C907 1.387 . S
H906 C913 0.950 . S
C907 C905 1.387 . S
C907 C909 1.390 . S
C907 H911 0.950 . S
H908 C904 0.950 . S
C909 C907 1.390 . S
C909 C910 1.387 . S
C909 H912 0.950 . S
C910 C909 1.387 . S
C910 C913 1.387 . S
H911 C907 0.950 . S
H912 C909 0.950 . S
C913 C904 1.390 . S
C913 H906 0.950 . S
C913 C910 1.387 . S
C914 C915 1.387 . S
C914 H918 0.950 . S
C914 C923 1.390 . S
C915 C914 1.387 . S
C915 C917 1.387 . S
H916 C923 0.950 . S
C917 C915 1.387 . S
C917 C919 1.390 . S
C917 H921 0.950 . S
H918 C914 0.950 . S
C919 C917 1.390 . S
C919 C920 1.387 . S
C919 H922 0.950 . S
C920 C919 1.387 . S
C920 C923 1.387 . S
H921 C917 0.950 . S
H922 C919 0.950 . S
C923 C914 1.390 . S
C923 H916 0.950 . S
C923 C920 1.387 . S
C924 C925 1.387 . S
C924 H928 0.950 . S
C924 C933 1.390 . S
C925 C924 1.387 . S
C925 C927 1.387 . S
H926 C933 0.950 . S
C927 C925 1.387 . S
C927 C929 1.390 . S
C927 H931 0.950 . S
H928 C924 0.950 . S
C929 C927 1.390 . S
C929 C930 1.387 . S
C929 H932 0.950 . S
C930 C929 1.387 . S
C930 C933 1.387 . S
H931 C927 0.950 . S
H932 C929 0.950 . S
C933 C924 1.390 . S
C933 H926 0.950 . S
C933 C930 1.387 . S
C934 C935 1.387 . S
C934 H938 0.950 . S
C934 C943 1.390 . S
C935 C934 1.387 . S
C935 C937 1.387 . S
H936 C943 0.950 . S
C937 C935 1.387 . S
C937 C939 1.390 . S
C937 H941 0.950 . S
H938 C934 0.950 . S
C939 C937 1.390 . S
C939 C940 1.387 . S
C939 H942 0.950 . S
C940 C939 1.387 . S
C940 C943 1.387 . S
H941 C937 0.950 . S
H942 C939 0.950 . S
C943 C934 1.390 . S
C943 H936 0.950 . S
C943 C940 1.387 . S
C944 C945 1.387 . S
C944 H948 0.950 . S
C944 C953 1.390 . S
C945 C944 1.387 . S
C945 C947 1.387 . S
H946 C953 0.950 . S
C947 C945 1.387 . S
C947 C949 1.390 . S
C947 H951 0.950 . S
H948 C944 0.950 . S
C949 C947 1.390 . S
C949 C950 1.387 . S
C949 H952 0.950 . S
C950 C949 1.387 . S
C950 C953 1.387 . S
H951 C947 0.950 . S
H952 C949 0.950 . S
C953 C944 1.390 . S
C953 H946 0.950 . S
C953 C950 1.387 . S
C954 C955 1.387 . S
C954 H958 0.950 . S
C954 C963 1.390 . S
C955 C954 1.387 . S
C955 C957 1.387 . S
H956 C963 0.950 . S
C957 C955 1.387 . S
C957 C959 1.390 . S
C957 H961 0.950 . S
H958 C954 0.950 . S
C959 C957 1.390 . S
C959 C960 1.387 . S
C959 H962 0.950 . S
C960 C959 1.387 . S
C960 C963 1.387 . S
H961 C957 0.950 . S
H962 C959 0.950 . S
C963 C954 1.390 . S
C963 H956 0.950 . S
C963 C960 1.387 . S
C964 C965 1.387 . S
C964 H968 0.950 . S
C964 C973 1.390 . S
C965 C964 1.387 . S
C965 C967 1.387 . S
H966 C973 0.950 . S
C967 C965 1.387 . S
C967 C969 1.390 . S
C967 H971 0.950 . S
H968 C964 0.950 . S
C969 C967 1.390 . S
C969 C970 1.387 . S
C969 H972 0.950 . S
C970 C969 1.387 . S
C970 C973 1.387 . S
H971 C967 0.950 . S
H972 C969 0.950 . S
C973 C964 1.390 . S
C973 H966 0.950 . S
C973 C970 1.387 . S
C974 C975 1.387 . S
C974 H978 0.950 . S
C974 C983 1.390 . S
C975 C974 1.387 . S
C975 C977 1.387 . S
H976 C983 0.950 . S
C977 C975 1.387 . S
C977 C979 1.390 . S
C977 H981 0.950 . S
H978 C974 0.950 . S
C979 C977 1.390 . S
C979 C980 1.387 . S
C979 H982 0.950 . S
C980 C979 1.387 . S
C980 C983 1.387 . S
H981 C977 0.950 . S
H982 C979 0.950 . S
C983 C974 1.390 . S
C983 H976 0.950 . S
C983 C980 1.387 . S
C984 C985 1.387 . S
C984 H988 0.950 . S
C984 C993 1.390 . S
C985 C984 1.387 . S
C985 C987 1.387 . S
H986 C993 0.950 . S
C987 C985 1.387 . S
C987 C989 1.390 . S
C987 H991 0.950 . S
H988 C984 0.950 . S
C989 C987 1.390 . S
C989 C990 1.387 . S
C989 H992 0.950 . S
C990 C989 1.387 . S
C990 C993 1.387 . S
H991 C987 0.950 . S
H992 C989 0.950 . S
C993 C984 1.390 . S
C993 H986 0.950 . S
C993 C990 1.387 . S
C994 C995 1.387 . S
C994 H998 0.950 . S
C994 C1003 1.390 . S
C995 C994 1.387 . S
C995 C997 1.387 . S
H996 C1003 0.950 . S
C997 C995 1.387 . S
C997 C999 1.390 . S
C997 H1001 0.950 . S
H998 C994 0.950 . S
C999 C997 1.390 . S
C999 C1000 1.387 . S
C999 H1002 0.950 . S
C1000 C999 1.387 . S
C1000 C1003 1.387 . S
H1001 C997 0.950 . S
H1002 C999 0.950 . S
C1003 C994 1.390 . S
C1003 H996 0.950 . S
C1003 C1000 1.387 . S
C1004 C1005 1.387 . S
C1004 H1008 0.950 . S
C1004 C1013 1.390 . S
C1005 C1004 1.387 . S
C1005 C1007 1.387 . S
H1006 C1013 0.950 . S
C1007 C1005 1.387 . S
C1007 C1009 1.390 . S
C1007 H1011 0.950 . S
H1008 C1004 0.950 . S
C1009 C1007 1.390 . S
C1009 C1010 1.387 . S
C1009 H1012 0.950 . S
C1010 C1009 1.387 . S
C1010 C1013 1.387 . S
H1011 C1007 0.950 . S
H1012 C1009 0.950 . S
C1013 C1004 1.390 . S
C1013 H1006 0.950 . S
C1013 C1010 1.387 . S
C1014 C1015 1.387 . S
C1014 H1018 0.950 . S
C1014 C1023 1.390 . S
C1015 C1014 1.387 . S
C1015 C1017 1.387 . S
H1016 C1023 0.950 . S
C1017 C1015 1.387 . S
C1017 C1019 1.390 . S
C1017 H1021 0.950 . S
H1018 C1014 0.950 . S
C1019 C1017 1.390 . S
C1019 C1020 1.387 . S
C1019 H1022 0.950 . S
C1020 C1019 1.387 . S
C1020 C1023 1.387 . S
H1021 C1017 0.950 . S
H1022 C1019 0.950 . S
C1023 C1014 1.390 . S
C1023 H1016 0.950 . S
C1023 C1020 1.387 . S
C1024 C1025 1.387 . S
C1024 H1028 0.950 . S
C1024 C1033 1.390 . S
C1025 C1024 1.387 . S
C1025 C1027 1.387 . S
H1026 C1033 0.950 . S
C1027 C1025 1.387 . S
C1027 C1029 1.390 . S
C1027 H1031 0.950 . S
H1028 C1024 0.950 . S
C1029 C1027 1.390 . S
C1029 C1030 1.387 . S
C1029 H1032 0.950 . S
C1030 C1029 1.387 . S
C1030 C1033 1.387 . S
H1031 C1027 0.950 . S
H1032 C1029 0.950 . S
C1033 C1024 1.390 . S
C1033 H1026 0.950 . S
C1033 C1030 1.387 . S
C1034 C1035 1.387 . S
C1034 H1038 0.950 . S
C1034 C1043 1.390 . S
C1035 C1034 1.387 . S
C1035 C1037 1.387 . S
H1036 C1043 0.950 . S
C1037 C1035 1.387 . S
C1037 C1039 1.390 . S
C1037 H1041 0.950 . S
H1038 C1034 0.950 . S
C1039 C1037 1.390 . S
C1039 C1040 1.387 . S
C1039 H1042 0.950 . S
C1040 C1039 1.387 . S
C1040 C1043 1.387 . S
H1041 C1037 0.950 . S
H1042 C1039 0.950 . S
C1043 C1034 1.390 . S
C1043 H1036 0.950 . S
C1043 C1040 1.387 . S
C1044 C1045 1.387 . S
C1044 H1048 0.950 . S
C1044 C1053 1.390 . S
C1045 C1044 1.387 . S
C1045 C1047 1.387 . S
H1046 C1053 0.950 . S
C1047 C1045 1.387 . S
C1047 C1049 1.390 . S
C1047 H1051 0.950 . S
H1048 C1044 0.950 . S
C1049 C1047 1.390 . S
C1049 C1050 1.387 . S
C1049 H1052 0.950 . S
C1050 C1049 1.387 . S
C1050 C1053 1.387 . S
H1051 C1047 0.950 . S
H1052 C1049 0.950 . S
C1053 C1044 1.390 . S
C1053 H1046 0.950 . S
C1053 C1050 1.387 . S
C1054 C1055 1.387 . S
C1054 H1058 0.950 . S
C1054 C1063 1.390 . S
C1055 C1054 1.387 . S
C1055 C1057 1.387 . S
H1056 C1063 0.950 . S
C1057 C1055 1.387 . S
C1057 C1059 1.390 . S
C1057 H1061 0.950 . S
H1058 C1054 0.950 . S
C1059 C1057 1.390 . S
C1059 C1060 1.387 . S
C1059 H1062 0.950 . S
C1060 C1059 1.387 . S
C1060 C1063 1.387 . S
H1061 C1057 0.950 . S
H1062 C1059 0.950 . S
C1063 C1054 1.390 . S
C1063 H1056 0.950 . S
C1063 C1060 1.387 . S
C1064 C1065 1.387 . S
C1064 H1068 0.950 . S
C1064 C1073 1.390 . S
C1065 C1064 1.387 . S
C1065 C1067 1.387 . S
H1066 C1073 0.950 . S
C1067 C1065 1.387 . S
C1067 C1069 1.390 . S
C1067 H1071 0.950 . S
H1068 C1064 0.950 . S
C1069 C1067 1.390 . S
C1069 C1070 1.387 . S
C1069 H1072 0.950 . S
C1070 C1069 1.387 . S
C1070 C1073 1.387 . S
H1071 C1067 0.950 . S
H1072 C1069 0.950 . S
C1073 C1064 1.390 . S
C1073 H1066 0.950 . S
C1073 C1070 1.387 . S
C1074 C1075 1.387 . S
C1074 H1078 0.950 . S
C1074 C1083 1.390 . S
C1075 C1074 1.387 . S
C1075 C1077 1.387 . S
H1076 C1083 0.950 . S
C1077 C1075 1.387 . S
C1077 C1079 1.390 . S
C1077 H1081 0.950 . S
H1078 C1074 0.950 . S
C1079 C1077 1.390 . S
C1079 C1080 1.387 . S
C1079 H1082 0.950 . S
C1080 C1079 1.387 . S
C1080 C1083 1.387 . S
H1081 C1077 0.950 . S
H1082 C1079 0.950 . S
C1083 C1074 1.390 . S
C1083 H1076 0.950 . S
C1083 C1080 1.387 . S
C1084 C1085 1.387 . S
C1084 H1088 0.950 . S
C1084 C1093 1.390 . S
C1085 C1084 1.387 . S
C1085 C1087 1.387 . S
H1086 C1093 0.950 . S
C1087 C1085 1.387 . S
C1087 C1089 1.390 . S
C1087 H1091 0.950 . S
H1088 C1084 0.950 . S
C1089 C1087 1.390 . S
C1089 C1090 1.387 . S
C1089 H1092 0.950 . S
C1090 C1089 1.387 . S
C1090 C1093 1.387 . S
H1091 C1087 0.950 . S
H1092 C1089 0.950 . S
C1093 C1084 1.390 . S
C1093 H1086 0.950 . S
C1093 C1090 1.387 . S
C1094 C1095 1.387 . S
C1094 H1098 0.950 . S
C1094 C1103 1.390 . S
C1095 C1094 1.387 . S
C1095 C1097 1.387 . S
H1096 C1103 0.950 . S
C1097 C1095 1.387 . S
C1097 C1099 1.390 . S
C1097 H1101 0.950 . S
H1098 C1094 0.950 . S
C1099 C1097 1.390 . S
C1099 C1100 1.387 . S
C1099 H1102 0.950 . S
C1100 C1099 1.387 . S
C1100 C1103 1.387 . S
H1101 C1097 0.950 . S
H1102 C1099 0.950 . S
C1103 C1094 1.390 . S
C1103 H1096 0.950 . S
C1103 C1100 1.387 . S
C1104 C1105 1.387 . S
C1104 H1108 0.950 . S
C1104 C1113 1.390 1_455 S
C1105 C1104 1.387 . S
C1105 C1107 1.387 . S
H1106 C1113 0.950 . S
C1107 C1105 1.387 . S
C1107 C1109 1.390 1_455 S
C1107 H1111 0.950 . S
H1108 C1104 0.950 . S
C1109 C1107 1.390 1_655 S
C1109 C1110 1.387 . S
C1109 H1112 0.950 . S
C1110 C1109 1.387 . S
C1110 C1113 1.387 . S
H1111 C1107 0.950 . S
H1112 C1109 0.950 . S
C1113 C1104 1.390 1_655 S
C1113 H1106 0.950 . S
C1113 C1110 1.387 . S
C1114 C1115 1.387 . S
C1114 H1118 0.950 . S
C1114 C1123 1.390 1_545 S
C1115 C1114 1.387 . S
C1115 C1117 1.387 . S
H1116 C1123 0.950 . S
C1117 C1115 1.387 . S
C1117 C1119 1.390 1_545 S
C1117 H1121 0.950 . S
H1118 C1114 0.950 . S
C1119 C1117 1.390 1_565 S
C1119 C1120 1.387 . S
C1119 H1122 0.950 . S
C1120 C1119 1.387 . S
C1120 C1123 1.387 . S
H1121 C1117 0.950 . S
H1122 C1119 0.950 . S
C1123 C1114 1.390 1_565 S
C1123 H1116 0.950 . S
C1123 C1120 1.387 . S
C1124 C1125 1.387 . S
C1124 H1128 0.950 . S
C1124 C1133 1.390 1_655 S
C1125 C1124 1.387 . S
C1125 C1127 1.387 . S
H1126 C1133 0.950 . S
C1127 C1125 1.387 . S
C1127 C1129 1.390 1_655 S
C1127 H1131 0.950 . S
H1128 C1124 0.950 . S
C1129 C1127 1.390 1_455 S
C1129 C1130 1.387 . S
C1129 H1132 0.950 . S
C1130 C1129 1.387 . S
C1130 C1133 1.387 . S
H1131 C1127 0.950 . S
H1132 C1129 0.950 . S
C1133 C1124 1.390 1_455 S
C1133 H1126 0.950 . S
C1133 C1130 1.387 . S
C1134 C1135 1.387 . S
C1134 H1138 0.950 . S
C1134 C1143 1.390 1_545 S
C1135 C1134 1.387 . S
C1135 C1137 1.387 . S
H1136 C1143 0.950 . S
C1137 C1135 1.387 . S
C1137 C1139 1.390 1_545 S
C1137 H1141 0.950 . S
H1138 C1134 0.950 . S
C1139 C1137 1.390 1_565 S
C1139 C1140 1.387 . S
C1139 H1142 0.950 . S
C1140 C1139 1.387 . S
C1140 C1143 1.387 . S
H1141 C1137 0.950 . S
H1142 C1139 0.950 . S
C1143 C1134 1.390 1_565 S
C1143 H1136 0.950 . S
C1143 C1140 1.387 . S
C1144 C1145 1.387 . S
C1144 H1148 0.950 . S
C1144 C1153 1.390 1_565 S
C1145 C1144 1.387 . S
C1145 C1147 1.387 . S
H1146 C1153 0.950 . S
C1147 C1145 1.387 . S
C1147 C1149 1.390 1_565 S
C1147 H1151 0.950 . S
H1148 C1144 0.950 . S
C1149 C1147 1.390 1_545 S
C1149 C1150 1.387 . S
C1149 H1152 0.950 . S
C1150 C1149 1.387 . S
C1150 C1153 1.387 . S
H1151 C1147 0.950 . S
H1152 C1149 0.950 . S
C1153 C1144 1.390 1_545 S
C1153 H1146 0.950 . S
C1153 C1150 1.387 . S
C1154 C1155 1.387 . S
C1154 H1158 0.950 . S
C1154 C1163 1.390 1_655 S
C1155 C1154 1.387 . S
C1155 C1157 1.387 . S
H1156 C1163 0.950 . S
C1157 C1155 1.387 . S
C1157 C1159 1.390 1_655 S
C1157 H1161 0.950 . S
H1158 C1154 0.950 . S
C1159 C1157 1.390 1_455 S
C1159 C1160 1.387 . S
C1159 H1162 0.950 . S
C1160 C1159 1.387 . S
C1160 C1163 1.387 . S
H1161 C1157 0.950 . S
H1162 C1159 0.950 . S
C1163 C1154 1.390 1_455 S
C1163 H1156 0.950 . S
C1163 C1160 1.387 . S
C1164 C1165 1.387 . S
C1164 H1168 0.950 . S
C1164 C1173 1.390 1_565 S
C1165 C1164 1.387 . S
C1165 C1167 1.387 . S
H1166 C1173 0.950 . S
C1167 C1165 1.387 . S
C1167 C1169 1.390 1_565 S
C1167 H1171 0.950 . S
H1168 C1164 0.950 . S
C1169 C1167 1.390 1_545 S
C1169 C1170 1.387 . S
C1169 H1172 0.950 . S
C1170 C1169 1.387 . S
C1170 C1173 1.387 . S
H1171 C1167 0.950 . S
H1172 C1169 0.950 . S
C1173 C1164 1.390 1_545 S
C1173 H1166 0.950 . S
C1173 C1170 1.387 . S
C1174 C1175 1.387 . S
C1174 H1178 0.950 . S
C1174 C1183 1.390 1_655 S
C1175 C1174 1.387 . S
C1175 C1177 1.387 . S
H1176 C1183 0.950 . S
C1177 C1175 1.387 . S
C1177 C1179 1.390 1_655 S
C1177 H1181 0.950 . S
H1178 C1174 0.950 . S
C1179 C1177 1.390 1_455 S
C1179 C1180 1.387 . S
C1179 H1182 0.950 . S
C1180 C1179 1.387 . S
C1180 C1183 1.387 . S
H1181 C1177 0.950 . S
H1182 C1179 0.950 . S
C1183 C1174 1.390 1_455 S
C1183 H1176 0.950 . S
C1183 C1180 1.387 . S
C1184 C1185 1.387 . S
C1184 H1188 0.950 . S
C1184 C1193 1.390 1_556 S
C1185 C1184 1.387 . S
C1185 C1187 1.387 . S
H1186 C1193 0.950 . S
C1187 C1185 1.387 . S
C1187 C1189 1.390 1_556 S
C1187 H1191 0.950 . S
H1188 C1184 0.950 . S
C1189 C1187 1.390 1_554 S
C1189 C1190 1.387 . S
C1189 H1192 0.950 . S
C1190 C1189 1.387 . S
C1190 C1193 1.387 . S
H1191 C1187 0.950 . S
H1192 C1189 0.950 . S
C1193 C1184 1.390 1_554 S
C1193 H1186 0.950 . S
C1193 C1190 1.387 . S
C1194 C1195 1.387 . S
C1194 H1198 0.950 . S
C1194 C1203 1.390 1_556 S
C1195 C1194 1.387 . S
C1195 C1197 1.387 . S
H1196 C1203 0.950 . S
C1197 C1195 1.387 . S
C1197 C1199 1.390 1_556 S
C1197 H1201 0.950 . S
H1198 C1194 0.950 . S
C1199 C1197 1.390 1_554 S
C1199 C1200 1.387 . S
C1199 H1202 0.950 . S
C1200 C1199 1.387 . S
C1200 C1203 1.387 . S
H1201 C1197 0.950 . S
H1202 C1199 0.950 . S
C1203 C1194 1.390 1_554 S
C1203 H1196 0.950 . S
C1203 C1200 1.387 . S
C1204 C1205 1.387 . S
C1204 H1208 0.950 . S
C1204 C1213 1.390 1_556 S
C1205 C1204 1.387 . S
C1205 C1207 1.387 . S
H1206 C1213 0.950 . S
C1207 C1205 1.387 . S
C1207 C1209 1.390 1_556 S
C1207 H1211 0.950 . S
H1208 C1204 0.950 . S
C1209 C1207 1.390 1_554 S
C1209 C1210 1.387 . S
C1209 H1212 0.950 . S
C1210 C1209 1.387 . S
C1210 C1213 1.387 . S
H1211 C1207 0.950 . S
H1212 C1209 0.950 . S
C1213 C1204 1.390 1_554 S
C1213 H1206 0.950 . S
C1213 C1210 1.387 . S
C1214 C1215 1.387 . S
C1214 H1218 0.950 . S
C1214 C1223 1.390 1_556 S
C1215 C1214 1.387 . S
C1215 C1217 1.387 . S
H1216 C1223 0.950 . S
C1217 C1215 1.387 . S
C1217 C1219 1.390 1_556 S
C1217 H1221 0.950 . S
H1218 C1214 0.950 . S
C1219 C1217 1.390 1_554 S
C1219 C1220 1.387 . S
C1219 H1222 0.950 . S
C1220 C1219 1.387 . S
C1220 C1223 1.387 . S
H1221 C1217 0.950 . S
H1222 C1219 0.950 . S
C1223 C1214 1.390 1_554 S
C1223 H1216 0.950 . S
C1223 C1220 1.387 . S
C1224 C1225 1.387 . S
C1224 H1228 0.950 . S
C1224 C1233 1.390 . S
C1225 C1224 1.387 . S
C1225 C1227 1.387 . S
H1226 C1233 0.950 . S
C1227 C1225 1.387 . S
C1227 C1229 1.390 . S
C1227 H1231 0.950 . S
H1228 C1224 0.950 . S
C1229 C1227 1.390 . S
C1229 C1230 1.387 . S
C1229 H1232 0.950 . S
C1230 C1229 1.387 . S
C1230 C1233 1.387 . S
H1231 C1227 0.950 . S
H1232 C1229 0.950 . S
C1233 C1224 1.390 . S
C1233 H1226 0.950 . S
C1233 C1230 1.387 . S
C1234 C1235 1.387 . S
C1234 H1238 0.950 . S
C1234 C1243 1.390 . S
C1235 C1234 1.387 . S
C1235 C1237 1.387 . S
H1236 C1243 0.950 . S
C1237 C1235 1.387 . S
C1237 C1239 1.390 . S
C1237 H1241 0.950 . S
H1238 C1234 0.950 . S
C1239 C1237 1.390 . S
C1239 C1240 1.387 . S
C1239 H1242 0.950 . S
C1240 C1239 1.387 . S
C1240 C1243 1.387 . S
H1241 C1237 0.950 . S
H1242 C1239 0.950 . S
C1243 C1234 1.390 . S
C1243 H1236 0.950 . S
C1243 C1240 1.387 . S
C1244 C1245 1.387 . S
C1244 H1248 0.950 . S
C1244 C1253 1.390 . S
C1245 C1244 1.387 . S
C1245 C1247 1.387 . S
H1246 C1253 0.950 . S
C1247 C1245 1.387 . S
C1247 C1249 1.390 . S
C1247 H1251 0.950 . S
H1248 C1244 0.950 . S
C1249 C1247 1.390 . S
C1249 C1250 1.387 . S
C1249 H1252 0.950 . S
C1250 C1249 1.387 . S
C1250 C1253 1.387 . S
H1251 C1247 0.950 . S
H1252 C1249 0.950 . S
C1253 C1244 1.390 . S
C1253 H1246 0.950 . S
C1253 C1250 1.387 . S
C1254 C1255 1.387 . S
C1254 H1258 0.950 . S
C1254 C1263 1.390 . S
C1255 C1254 1.387 . S
C1255 C1257 1.387 . S
H1256 C1263 0.950 . S
C1257 C1255 1.387 . S
C1257 C1259 1.390 . S
C1257 H1261 0.950 . S
H1258 C1254 0.950 . S
C1259 C1257 1.390 . S
C1259 C1260 1.387 . S
C1259 H1262 0.950 . S
C1260 C1259 1.387 . S
C1260 C1263 1.387 . S
H1261 C1257 0.950 . S
H1262 C1259 0.950 . S
C1263 C1254 1.390 . S
C1263 H1256 0.950 . S
C1263 C1260 1.387 . S
C1264 C1265 1.387 . S
C1264 H1268 0.950 . S
C1264 C1273 1.390 . S
C1265 C1264 1.387 . S
C1265 C1267 1.387 . S
H1266 C1273 0.950 . S
C1267 C1265 1.387 . S
C1267 C1269 1.390 . S
C1267 H1271 0.950 . S
H1268 C1264 0.950 . S
C1269 C1267 1.390 . S
C1269 C1270 1.387 . S
C1269 H1272 0.950 . S
C1270 C1269 1.387 . S
C1270 C1273 1.387 . S
H1271 C1267 0.950 . S
H1272 C1269 0.950 . S
C1273 C1264 1.390 . S
C1273 H1266 0.950 . S
C1273 C1270 1.387 . S
C1274 C1275 1.387 . S
C1274 H1278 0.950 . S
C1274 C1283 1.390 . S
C1275 C1274 1.387 . S
C1275 C1277 1.387 . S
H1276 C1283 0.950 . S
C1277 C1275 1.387 . S
C1277 C1279 1.390 . S
C1277 H1281 0.950 . S
H1278 C1274 0.950 . S
C1279 C1277 1.390 . S
C1279 C1280 1.387 . S
C1279 H1282 0.950 . S
C1280 C1279 1.387 . S
C1280 C1283 1.387 . S
H1281 C1277 0.950 . S
H1282 C1279 0.950 . S
C1283 C1274 1.390 . S
C1283 H1276 0.950 . S
C1283 C1280 1.387 . S
C1284 C1285 1.387 . S
C1284 H1288 0.950 . S
C1284 C1293 1.390 . S
C1285 C1284 1.387 . S
C1285 C1287 1.387 . S
H1286 C1293 0.950 . S
C1287 C1285 1.387 . S
C1287 C1289 1.390 . S
C1287 H1291 0.950 . S
H1288 C1284 0.950 . S
C1289 C1287 1.390 . S
C1289 C1290 1.387 . S
C1289 H1292 0.950 . S
C1290 C1289 1.387 . S
C1290 C1293 1.387 . S
H1291 C1287 0.950 . S
H1292 C1289 0.950 . S
C1293 C1284 1.390 . S
C1293 H1286 0.950 . S
C1293 C1290 1.387 . S
C1294 C1295 1.387 . S
C1294 H1298 0.950 . S
C1294 C1303 1.390 . S
C1295 C1294 1.387 . S
C1295 C1297 1.387 . S
H1296 C1303 0.950 . S
C1297 C1295 1.387 . S
C1297 C1299 1.390 . S
C1297 H1301 0.950 . S
H1298 C1294 0.950 . S
C1299 C1297 1.390 . S
C1299 C1300 1.387 . S
C1299 H1302 0.950 . S
C1300 C1299 1.387 . S
C1300 C1303 1.387 . S
H1301 C1297 0.950 . S
H1302 C1299 0.950 . S
C1303 C1294 1.390 . S
C1303 H1296 0.950 . S
C1303 C1300 1.387 . S
C1304 C1305 1.387 . S
C1304 H1308 0.950 . S
C1304 C1313 1.390 . S
C1305 C1304 1.387 . S
C1305 C1307 1.387 . S
H1306 C1313 0.950 . S
C1307 C1305 1.387 . S
C1307 C1309 1.390 . S
C1307 H1311 0.950 . S
H1308 C1304 0.950 . S
C1309 C1307 1.390 . S
C1309 C1310 1.387 . S
C1309 H1312 0.950 . S
C1310 C1309 1.387 . S
C1310 C1313 1.387 . S
H1311 C1307 0.950 . S
H1312 C1309 0.950 . S
C1313 C1304 1.390 . S
C1313 H1306 0.950 . S
C1313 C1310 1.387 . S
C1314 C1315 1.387 . S
C1314 H1318 0.950 . S
C1314 C1323 1.390 . S
C1315 C1314 1.387 . S
C1315 C1317 1.387 . S
H1316 C1323 0.950 . S
C1317 C1315 1.387 . S
C1317 C1319 1.390 . S
C1317 H1321 0.950 . S
H1318 C1314 0.950 . S
C1319 C1317 1.390 . S
C1319 C1320 1.387 . S
C1319 H1322 0.950 . S
C1320 C1319 1.387 . S
C1320 C1323 1.387 . S
H1321 C1317 0.950 . S
H1322 C1319 0.950 . S
C1323 C1314 1.390 . S
C1323 H1316 0.950 . S
C1323 C1320 1.387 . S
C1324 C1325 1.387 . S
C1324 H1328 0.950 . S
C1324 C1333 1.390 . S
C1325 C1324 1.387 . S
C1325 C1327 1.387 . S
H1326 C1333 0.950 . S
C1327 C1325 1.387 . S
C1327 C1329 1.390 . S
C1327 H1331 0.950 . S
H1328 C1324 0.950 . S
C1329 C1327 1.390 . S
C1329 C1330 1.387 . S
C1329 H1332 0.950 . S
C1330 C1329 1.387 . S
C1330 C1333 1.387 . S
H1331 C1327 0.950 . S
H1332 C1329 0.950 . S
C1333 C1324 1.390 . S
C1333 H1326 0.950 . S
C1333 C1330 1.387 . S
C1334 C1335 1.387 . S
C1334 H1338 0.950 . S
C1334 C1343 1.390 . S
C1335 C1334 1.387 . S
C1335 C1337 1.387 . S
H1336 C1343 0.950 . S
C1337 C1335 1.387 . S
C1337 C1339 1.390 . S
C1337 H1341 0.950 . S
H1338 C1334 0.950 . S
C1339 C1337 1.390 . S
C1339 C1340 1.387 . S
C1339 H1342 0.950 . S
C1340 C1339 1.387 . S
C1340 C1343 1.387 . S
H1341 C1337 0.950 . S
H1342 C1339 0.950 . S
C1343 C1334 1.390 . S
C1343 H1336 0.950 . S
C1343 C1340 1.387 . S
C865 C398 1.488 . S
C870 C14 1.441 . S
C875 C50 1.438 . S
C880 C290 1.488 . S
C885 C86 1.439 . S
C890 C326 1.488 . S
C895 C122 1.441 . S
C900 C362 1.488 . S
C905 C470 1.488 . S
C910 C158 1.438 . S
C915 C194 1.441 . S
C920 C506 1.488 . S
C925 C542 1.488 . S
C930 C230 1.438 . S
C935 C434 1.488 . S
C940 C266 1.439 . S
C945 C182 1.488 . S
C950 C302 1.441 . S
C955 C218 1.488 . S
C960 C338 1.439 . S
C965 C374 1.438 . S
C970 C254 1.488 . S
C975 C146 1.488 . S
C980 C410 1.441 . S
C985 C110 1.488 . S
C990 C446 1.438 . S
C995 C482 1.438 . S
C1000 C2 1.488 . S
C1005 C518 1.438 . S
C1010 C38 1.488 . S
C1015 C554 1.438 . S
C1020 C74 1.488 . S
C1025 C590 1.441 . S
C1030 C830 1.488 . S
C1035 C722 1.488 . S
C1040 C626 1.441 . S
C1045 C662 1.441 . S
C1050 C614 1.488 . S
C1055 C698 1.441 . S
C1060 C650 1.488 . S
C1065 C686 1.488 . S
C1070 C734 1.441 . S
C1075 C770 1.438 . S
C1080 C794 1.488 . S
C1085 C578 1.488 . S
C1090 C806 1.441 . S
C1095 C758 1.488 . S
C1100 C842 1.441 . S
C1105 C3 1.514 . S
C1110 C219 1.514 . S
C1115 C39 1.514 . S
C1120 C255 1.514 . S
C1125 C75 1.514 . S
C1130 C147 1.514 . S
C1135 C183 1.514 . S
C1140 C111 1.514 . S
C1145 C363 1.514 . S
C1150 C291 1.514 . S
C1155 C327 1.514 . S
C1160 C399 1.514 . S
C1165 C435 1.514 . S
C1170 C507 1.514 . S
C1175 C543 1.514 . S
C1180 C471 1.514 . S
C1185 C615 1.514 . S
C1190 C579 1.514 . S
C1195 C651 1.514 . S
C1200 C831 1.514 . S
C1205 C687 1.514 . S
C1210 C759 1.514 . S
C1215 C723 1.514 . S
C1220 C795 1.514 . S
C1225 C4 1.146 . S
C1230 C184 1.145 . S
C1235 C40 1.146 . S
C1240 C220 1.145 . S
C1245 C76 1.145 . S
C1250 C256 1.146 . S
C1255 C148 1.145 . S
C1260 C112 1.146 . S
C1265 C292 1.146 . S
C1270 C832 1.145 . S
C1275 C328 1.146 . S
C1280 C760 1.145 . S
C1285 C796 1.146 . S
C1290 C364 1.145 . S
C1295 C400 1.145 . S
C1300 C580 1.146 . S
C1305 C724 1.145 . S
C1310 C436 1.146 . S
C1315 C616 1.146 . S
C1320 C472 1.145 . S
C1325 C508 1.146 . S
C1330 C652 1.145 . S
C1335 C688 1.146 . S
C1340 C544 1.145 . S
