# Generated by pormake.
# Topology bcs, (6)-cn, num edge types: 1
# Building blocks:
#     Node 0, Type 0, BuildingBlock: UKALOJ_clean_sbu_0, # of connection points: 6
#     Node 1, Type 0, BuildingBlock: UKALOJ_clean_sbu_0, # of connection points: 6
#     Node 2, Type 0, BuildingBlock: UKALOJ_clean_sbu_0, # of connection points: 6
#     Node 3, Type 0, BuildingBlock: UKALOJ_clean_sbu_0, # of connection points: 6
#     Node 4, Type 0, BuildingBlock: UKALOJ_clean_sbu_0, # of connection points: 6
#     Node 5, Type 0, BuildingBlock: UKALOJ_clean_sbu_0, # of connection points: 6
#     Node 6, Type 0, BuildingBlock: UKALOJ_clean_sbu_0, # of connection points: 6
#     Node 7, Type 0, BuildingBlock: UKALOJ_clean_sbu_0, # of connection points: 6
#     Node 8, Type 0, BuildingBlock: UKALOJ_clean_sbu_0, # of connection points: 6
#     Node 9, Type 0, BuildingBlock: UKALOJ_clean_sbu_0, # of connection points: 6
#     Node 10, Type 0, BuildingBlock: UKALOJ_clean_sbu_0, # of connection points: 6
#     Node 11, Type 0, BuildingBlock: UKALOJ_clean_sbu_0, # of connection points: 6
#     Node 12, Type 0, BuildingBlock: UKALOJ_clean_sbu_0, # of connection points: 6
#     Node 13, Type 0, BuildingBlock: UKALOJ_clean_sbu_0, # of connection points: 6
#     Node 14, Type 0, BuildingBlock: UKALOJ_clean_sbu_0, # of connection points: 6
#     Node 15, Type 0, BuildingBlock: UKALOJ_clean_sbu_0, # of connection points: 6
#     Edge 16, Type (0, 0), None
#     Edge 17, Type (0, 0), None
#     Edge 18, Type (0, 0), None
#     Edge 19, Type (0, 0), None
#     Edge 20, Type (0, 0), None
#     Edge 21, Type (0, 0), None
#     Edge 22, Type (0, 0), None
#     Edge 23, Type (0, 0), None
#     Edge 24, Type (0, 0), None
#     Edge 25, Type (0, 0), None
#     Edge 26, Type (0, 0), None
#     Edge 27, Type (0, 0), None
#     Edge 28, Type (0, 0), None
#     Edge 29, Type (0, 0), None
#     Edge 30, Type (0, 0), None
#     Edge 31, Type (0, 0), None
#     Edge 32, Type (0, 0), None
#     Edge 33, Type (0, 0), None
#     Edge 34, Type (0, 0), None
#     Edge 35, Type (0, 0), None
#     Edge 36, Type (0, 0), None
#     Edge 37, Type (0, 0), None
#     Edge 38, Type (0, 0), None
#     Edge 39, Type (0, 0), None
#     Edge 40, Type (0, 0), None
#     Edge 41, Type (0, 0), None
#     Edge 42, Type (0, 0), None
#     Edge 43, Type (0, 0), None
#     Edge 44, Type (0, 0), None
#     Edge 45, Type (0, 0), None
#     Edge 46, Type (0, 0), None
#     Edge 47, Type (0, 0), None
#     Edge 48, Type (0, 0), None
#     Edge 49, Type (0, 0), None
#     Edge 50, Type (0, 0), None
#     Edge 51, Type (0, 0), None
#     Edge 52, Type (0, 0), None
#     Edge 53, Type (0, 0), None
#     Edge 54, Type (0, 0), None
#     Edge 55, Type (0, 0), None
#     Edge 56, Type (0, 0), None
#     Edge 57, Type (0, 0), None
#     Edge 58, Type (0, 0), None
#     Edge 59, Type (0, 0), None
#     Edge 60, Type (0, 0), None
#     Edge 61, Type (0, 0), None
#     Edge 62, Type (0, 0), None
#     Edge 63, Type (0, 0), None
# Relax obj value: 0.879
# Max RMSD: 0.346
# Mean RMSD: 0.298
data_MOF--net-bcs--node1-UKALOJ_clean_sbu_0--edge1-none
_symmetry_space_group_name_H-M    P1
_symmetry_Int_Tables_number       1
_symmetry_cell_setting            triclinic
loop_
_symmetry_equiv_pos_as_xyz
'x, y, z'
_cell_length_a     18.980826
_cell_length_b     19.404764
_cell_length_c     18.630828
_cell_angle_alpha  89.822757
_cell_angle_beta   89.968401
_cell_angle_gamma 67.026188
loop_
_atom_site_label
_atom_site_type_symbol
_atom_site_fract_x
_atom_site_fract_y
_atom_site_fract_z
_atom_type_partial_charge
Zn0 Zn 0.07021 0.00434 0.05113 0.0
O1 O 0.1376 0.94175 0.14325 0.0
C2 C 0.12903 0.86198 0.95902 0.0
Zn3 Zn 0.99494 0.93426 0.05794 0.0
C4 C 0.12165 0.89016 0.17376 0.0
O5 O 0.06857 0.87344 0.14715 0.0
C6 C 0.94068 0.04823 0.93593 0.0
O7 O 0.92461 0.01729 0.12958 0.0
O8 O 0.99303 0.08654 0.12405 0.0
N9 N 0.9213 0.8762 0.07699 0.0
C10 C 0.90097 0.85657 0.14129 0.0
C11 C 0.83314 0.832 0.0624 0.0
N12 N 0.87859 0.86102 1.02825 0.0
N13 N 0.84573 0.82853 0.13387 0.0
C14 C 0.18716 0.108 1.01604 0.0
C15 C 0.17167 0.06571 0.91545 0.0
N16 N 0.14237 0.06801 1.02891 0.0
N17 N 0.13441 0.0437 0.96468 0.0
N18 N 0.20748 0.10555 0.94544 0.0
H19 H 0.15316 0.17373 0.11192 0.0
H20 H 0.1925 0.21372 1.04222 0.0
H21 H 0.25454 0.1351 0.09312 0.0
C22 C 0.19699 0.16102 0.06907 0.0
C23 C 0.93288 0.86882 0.21169 0.0
H24 H 0.98374 0.81775 0.22506 0.0
H25 H 0.89074 0.88138 0.25549 0.0
H26 H 0.95033 0.91649 0.20995 0.0
O27 O 0.92436 -0.00157 0.96891 0.0
O28 O 0.99617 0.0629 0.95904 0.0
C29 C 0.93597 0.07452 0.14942 0.0
O30 O 0.1431 0.91616 0.98239 0.0
O31 O 0.06949 0.85261 0.98148 0.0
Zn32 Zn 0.23604 0.71478 0.34867 0.0
O33 O 0.31606 0.6241 0.40028 0.0
C34 C 0.31791 0.79206 0.42534 0.0
Zn35 Zn 0.3202 0.73006 0.27161 0.0
C36 C 0.38568 0.59995 0.38327 0.0
O37 O 0.40546 0.62843 0.32796 0.0
C38 C 0.17182 0.84277 0.23254 0.0
O39 O 0.2874 0.6725 0.17836 0.0
O40 O 0.22434 0.65227 0.26824 0.0
N41 N 0.39791 0.76387 0.2159 0.0
C42 C 0.39538 0.80492 0.15541 0.0
C43 C 0.47736 0.81842 0.22524 0.0
N44 N 0.44817 0.77427 0.25871 0.0
N45 N 0.4455 0.83948 0.16032 0.0
C46 C 0.14695 0.66936 0.47175 0.0
C47 C 0.12922 0.66752 0.42602 0.0
N48 N 0.15579 0.68029 0.40291 0.0
N49 N 0.11751 0.65452 0.35671 0.0
N50 N 0.08533 0.65399 0.48173 0.0
H51 H 0.2576 0.63369 0.53186 0.0
H52 H 0.174 0.66857 0.58919 0.0
H53 H 0.20169 0.73209 0.53588 0.0
C54 C 0.19852 0.6765 0.53722 0.0
C55 C 0.34078 0.81504 0.09452 0.0
H56 H 0.31177 0.77547 0.09898 0.0
H57 H 0.37211 0.80603 1.04279 0.0
H58 H 0.29739 0.87337 0.09464 0.0
O59 O 0.24235 0.82697 0.2265 0.0
O60 O 0.14893 0.81047 0.28287 0.0
C61 C 0.23761 0.6485 0.20172 0.0
O62 O 0.25689 0.77999 0.43603 0.0
O63 O 0.34516 0.78361 0.36217 0.0
Zn64 Zn 0.56546 0.00863 0.55454 0.0
O65 O 0.48912 0.08947 0.4807 0.0
C66 C 0.4314 0.05108 0.66614 0.0
Zn67 Zn 0.49116 0.93785 0.5472 0.0
C68 C 0.43067 0.07915 0.4564 0.0
O69 O 0.41938 0.02085 0.47442 0.0
C70 C 0.62381 0.87 0.64906 0.0
O71 O 0.56643 0.88193 0.45777 0.0
O72 O 0.63897 0.94645 0.46547 0.0
N73 N 0.42167 0.87444 0.5313 0.0
C74 C 0.41576 0.83345 0.47445 0.0
C75 C 0.32125 0.84761 0.54257 0.0
N76 N 0.36328 0.88175 0.574 0.0
N77 N 0.35085 0.81948 0.4781 0.0
C78 C 0.68301 0.10879 0.59042 0.0
C79 C 0.65387 0.08665 0.69493 0.0
N80 N 0.63672 0.06972 0.58214 0.0
N81 N 0.61965 0.05855 0.64855 0.0
N82 N 0.69683 0.11751 0.66124 0.0
H83 H 0.75698 0.08892 0.50214 0.0
H84 H 0.73921 0.17713 0.54643 0.0
H85 H 0.66687 0.16499 0.48969 0.0
C86 C 0.71345 0.13756 0.52892 0.0
C87 C 0.48061 0.79507 0.42378 0.0
H88 H 0.48181 0.83507 0.38166 0.0
H89 H 0.47643 0.74508 0.39888 0.0
H90 H 0.5354 0.77421 0.45379 0.0
O91 O 0.56684 0.85794 0.62398 0.0
O92 O 0.63657 0.92527 0.6265 0.0
C93 C 0.62264 0.89569 0.43419 0.0
O94 O 0.48614 0.06677 0.6427 0.0
O95 O 0.41762 -0.00112 0.63556 0.0
Zn96 Zn 0.31804 0.23161 0.83461 0.0
O97 O 0.2457 0.32954 0.88498 0.0
C98 C 0.24126 0.14195 0.90318 0.0
Zn99 Zn 0.2343 0.21624 0.75995 0.0
C100 C 0.17512 0.34523 0.87871 0.0
O101 O 0.1533 0.31027 0.83055 0.0
C102 C 0.37639 0.10229 0.71849 0.0
O103 O 0.25374 0.28495 0.67382 0.0
O104 O 0.34106 0.289 0.74845 0.0
N105 N 0.14836 0.19202 0.71159 0.0
C106 C 0.14625 0.15417 0.65091 0.0
C107 C 0.07104 0.13559 0.72612 0.0
N108 N 0.10197 0.17918 0.75786 0.0
N109 N 0.09792 0.11825 0.65909 0.0
C110 C 0.40547 0.29091 0.94713 0.0
C111 C 0.49138 0.29705 0.8772 0.0
N112 N 0.40526 0.25061 0.88754 0.0
N113 N 0.45916 0.25467 0.84492 0.0
N114 N 0.45948 0.32048 0.94164 0.0
H115 H 0.30985 0.3634 1.00822 0.0
H116 H 0.38267 0.29338 0.06006 0.0
H117 H 0.3189 0.26694 1.00502 0.0
C118 C 0.35078 0.30402 1.00854 0.0
C119 C 0.19329 0.15034 0.5854 0.0
H120 H 0.22219 0.19004 0.58901 0.0
H121 H 0.1555 0.16445 0.53762 0.0
H122 H 0.23659 0.09247 0.57868 0.0
O123 O 0.30681 0.12674 0.70219 0.0
O124 O 0.3967 0.13121 0.7727 0.0
C125 C 0.31256 0.30041 0.68595 0.0
O126 O 0.28663 0.17162 0.92545 0.0
O127 O 0.22544 0.14642 0.83723 0.0
Zn128 Zn 0.07636 -0.03623 0.51742 0.0
O129 O 0.03519 0.88377 0.46934 0.0
C130 C 0.92605 0.08958 0.47267 0.0
Zn131 Zn 0.9841 -0.02692 0.5844 0.0
C132 C 0.97771 0.86806 0.48461 0.0
O133 O 0.93687 0.90049 0.53768 0.0
C134 C 0.0814 0.0694 0.61651 0.0
O135 O 0.06367 0.8757 0.64164 0.0
O136 O 0.16116 0.87514 0.58031 0.0
N137 N 0.91715 -0.00928 0.66463 0.0
C138 C 0.93278 -0.01401 0.73526 0.0
C139 C 0.82275 -0.01601 0.7204 0.0
N140 N 0.84853 -0.00949 0.65513 0.0
N141 N 0.87405 -0.01841 0.77152 0.0
C142 C 0.12517 -0.04231 0.36543 0.0
C143 C 0.23771 0.95381 0.37946 0.0
N144 N 0.14345 0.94585 0.4354 0.0
N145 N 0.21321 0.94308 0.44406 0.0
N146 N 0.18233 -0.03359 0.32985 0.0
H147 H 1.00771 -0.03726 0.36613 0.0
H148 H 0.04663 -0.0376 0.27947 0.0
H149 H 0.01955 0.04423 0.3297 0.0
C150 C 0.04546 -0.01764 0.33458 0.0
C151 C 1.00742 -0.02151 0.77006 0.0
H152 H 0.05883 0.94234 0.74165 0.0
H153 H 1.01143 -0.04297 0.82569 0.0
H154 H 1.01167 0.03351 0.7714 0.0
O155 O 0.02844 0.04822 0.63492 0.0
O156 O 0.11933 0.04149 0.56053 0.0
C157 C 0.13535 0.84895 0.632 0.0
O158 O 0.99624 0.0565 0.45929 0.0
O159 O 0.8997 0.06695 0.52634 0.0
Zn160 Zn 0.31818 0.75078 0.79667 0.0
O161 O 0.24435 0.81159 0.7094 0.0
C162 C 0.18103 0.81261 0.90461 0.0
Zn163 Zn 0.24653 0.68906 0.80967 0.0
C164 C 0.18717 0.79885 0.6877 0.0
O165 O 0.17119 0.74878 0.72026 0.0
C166 C 0.37558 0.642 0.91839 0.0
O167 O 0.32856 0.61237 0.73119 0.0
O168 O 0.39347 0.68332 0.72101 0.0
N169 N 0.1923 0.62286 0.82584 0.0
C170 C 0.21786 0.54971 0.8415 0.0
C171 C 0.10035 0.58704 0.8176 0.0
N172 N 0.11782 0.64744 0.8162 0.0
N173 N 0.16368 0.52335 0.82658 0.0
C174 C 0.35366 0.88814 0.78159 0.0
C175 C 0.47065 0.8451 0.81041 0.0
N176 N 0.37735 0.81391 0.78623 0.0
N177 N 0.45149 0.78636 0.79975 0.0
N178 N 0.40877 0.91 0.80432 0.0
H179 H 0.25877 0.93692 0.71011 0.0
H180 H 0.2655 9e-05 0.77708 0.0
H181 H 0.2317 0.92771 0.80063 0.0
C182 C 0.27271 0.94132 0.76726 0.0
C183 C 0.30004 0.49945 0.85631 0.0
H184 H 0.33944 0.51185 0.8196 0.0
H185 H 0.30884 0.43965 0.85203 0.0
H186 H 0.31524 0.50727 0.91209 0.0
O187 O 0.31584 0.6338 0.89869 0.0
O188 O 0.3959 0.68725 0.8829 0.0
C189 C 0.38346 0.6255 0.7026 0.0
O190 O 0.23864 0.82389 0.87968 0.0
O191 O 0.16783 0.75829 0.88118 0.0
Zn192 Zn 0.57351 -0.02535 0.0866 0.0
O193 O 0.5009 0.07685 0.14809 0.0
C194 C 0.46236 0.88861 0.11741 0.0
Zn195 Zn 0.47465 -0.00388 1.02587 0.0
C196 C 0.42874 0.10791 0.14085 0.0
O197 O 0.39843 0.08247 0.09262 0.0
C198 C 0.61973 0.85956 0.97331 0.0
O199 O 0.5205 0.07801 0.98887 0.0
O200 O 0.63127 0.04105 1.04058 0.0
N201 N 0.40685 0.03721 0.94476 0.0
C202 C 0.42858 0.00304 0.88113 0.0
C203 C 0.34264 -0.04216 0.91722 0.0
N204 N 0.39144 -0.0081 0.89868 0.0
N205 N 0.39107 -0.03843 0.86402 0.0
C206 C 0.62518 -0.04447 0.23702 0.0
C207 C 0.73235 -0.03668 0.22227 0.0
N208 N 0.64203 0.94886 0.16671 0.0
N209 N 0.70883 0.95292 0.15743 0.0
N210 N 0.68023 -0.03227 0.27371 0.0
H211 H 0.49964 -0.00335 0.23881 0.0
H212 H 0.54315 -0.0183 0.32537 0.0
H213 H 0.54795 0.90531 0.26974 0.0
C214 C 0.55011 -0.03883 0.26945 0.0
C215 C 0.50139 0.00417 0.839 0.0
H216 H 0.50589 0.05911 0.84525 0.0
H217 H 0.50003 -0.01117 0.78229 0.0
H218 H 0.55613 -0.037 0.8589 0.0
O219 O 0.55027 0.89993 0.95953 0.0
O220 O 0.64929 0.87769 1.02744 0.0
C221 C 0.58252 0.08687 0.9991 0.0
O222 O 0.51882 0.90545 0.13423 0.0
O223 O 0.42287 0.92028 0.06272 0.0
Zn224 Zn 0.31023 0.26168 0.31566 0.0
O225 O 0.38856 0.19121 0.38824 0.0
C226 C 0.37933 0.15866 0.19713 0.0
Zn227 Zn 0.23866 0.1998 0.29989 0.0
C228 C 0.37639 0.13418 0.40681 0.0
O229 O 0.31796 0.12504 0.3813 0.0
C230 C 0.17451 0.3216 0.20482 0.0
O231 O 0.15008 0.26025 0.38245 0.0
O232 O 0.23191 0.31002 0.40291 0.0
N233 N 0.19836 0.12369 0.27225 0.0
C234 C 0.15685 0.0947 0.30914 0.0
C235 C 0.21208 0.01857 0.22505 0.0
N236 N 0.22981 0.07835 0.21794 0.0
N237 N 0.16774 0.02629 0.283 0.0
C238 C 0.40103 0.36242 0.31909 0.0
C239 C 0.32232 0.45465 0.37604 0.0
N240 N 0.34628 0.34192 0.34359 0.0
N241 N 0.29993 0.39787 0.38289 0.0
N242 N 0.38258 0.43602 0.33146 0.0
H243 H 0.48303 0.25643 0.28467 0.0
H244 H 0.51164 0.33322 0.27022 0.0
H245 H 0.43974 0.32274 0.21309 0.0
C246 C 0.4625 0.316 0.26868 0.0
C247 C 0.12304 0.12496 0.38073 0.0
H248 H 0.16848 0.12861 0.41591 0.0
H249 H 0.09655 0.09108 0.40794 0.0
H250 H 0.07765 0.18144 0.37324 0.0
O251 O 0.16491 0.2638 0.22356 0.0
O252 O 0.22759 0.33661 0.23503 0.0
C253 C 0.16957 0.30531 0.41898 0.0
O254 O 0.39386 0.20985 0.22848 0.0
O255 O 0.32176 0.14688 0.21804 0.0
Zn256 Zn 0.4841 0.47307 0.08443 0.0
O257 O 0.56366 0.37569 0.14165 0.0
C258 C 0.58142 0.56938 0.11655 0.0
Zn259 Zn 0.57634 0.46378 1.01743 0.0
C260 C 0.63535 0.34895 0.132 0.0
O261 O 0.66114 0.37515 0.0803 0.0
C262 C 0.42603 0.58957 0.9727 0.0
O263 O 0.53516 0.3838 0.96935 0.0
O264 O 0.43686 0.4005 1.0377 0.0
N265 N 0.64343 0.44585 0.9354 0.0
C266 C 0.62514 0.45772 0.86544 0.0
C267 C 0.7377 0.4538 0.87947 0.0
N268 N 0.7132 0.44306 0.94406 0.0
N269 N 0.6823 0.46644 0.82986 0.0
C270 C 0.43281 0.48592 0.2353 0.0
C271 C 0.32274 0.4839 0.22041 0.0
N272 N 0.41716 0.4907 0.16467 0.0
N273 N 0.34853 0.49049 0.15515 0.0
N274 N 0.37409 0.48145 0.27148 0.0
H275 H 0.55886 0.44213 0.2418 0.0
H276 H 0.51138 0.45704 0.32579 0.0
H277 H 0.51177 0.53339 0.27138 0.0
C278 C 0.50745 0.4784 0.27013 0.0
C279 C 0.54544 0.48241 0.83459 0.0
H280 H 0.50768 0.46278 0.86612 0.0
H281 H 0.5466 0.46248 0.77946 0.0
H282 H 0.51953 0.54428 0.82975 0.0
O283 O 0.49623 0.55652 0.9593 0.0
O284 O 0.39971 0.56696 1.02639 0.0
C285 C 0.47769 0.36809 0.98462 0.0
O286 O 0.52846 0.5482 0.13497 0.0
O287 O 0.61932 0.54149 0.06054 0.0
Zn288 Zn 0.8182 0.2508 0.29665 0.0
O289 O 0.74435 0.3116 0.20938 0.0
C290 C 0.68105 0.31263 0.4046 0.0
Zn291 Zn 0.74655 0.18908 0.30966 0.0
C292 C 0.68717 0.29885 0.18768 0.0
O293 O 0.6712 0.24879 0.22026 0.0
C294 C 0.87561 0.142 0.41835 0.0
O295 O 0.82858 0.11239 0.23118 0.0
O296 O 0.89348 0.18334 0.22098 0.0
N297 N 0.69233 0.12288 0.32583 0.0
C298 C 0.71791 0.04973 0.34148 0.0
C299 C 0.60036 0.08705 0.31744 0.0
N300 N 0.61784 0.14744 0.3161 0.0
N301 N 0.66371 0.02342 0.3265 0.0
C302 C 0.85364 0.38818 0.28155 0.0
C303 C 0.97062 0.34517 0.31037 0.0
N304 N 0.87735 0.31395 0.28619 0.0
N305 N 0.95148 0.28642 0.29971 0.0
N306 N 0.90872 0.41006 0.3043 0.0
H307 H 0.75874 0.43695 0.21006 0.0
H308 H 0.76544 0.50012 0.27705 0.0
H309 H 0.73167 0.42771 0.30057 0.0
C310 C 0.77268 0.44134 0.26722 0.0
C311 C 0.80008 -0.00055 0.35631 0.0
H312 H 0.8395 0.01184 0.31959 0.0
H313 H 0.80887 0.93965 0.35205 0.0
H314 H 0.81528 0.00729 0.41208 0.0
O315 O 0.81586 0.13383 0.39866 0.0
O316 O 0.89593 0.18726 0.38287 0.0
C317 C 0.88348 0.12551 0.20258 0.0
O318 O 0.73866 0.32391 0.37967 0.0
O319 O 0.66784 0.25832 0.38117 0.0
Zn320 Zn 0.07348 0.47452 0.58662 0.0
O321 O 1.00091 0.57677 0.64808 0.0
C322 C 0.9623 0.38855 0.61747 0.0
Zn323 Zn 0.9746 0.49603 0.52592 0.0
C324 C 0.92874 0.60781 0.64088 0.0
O325 O 0.8984 0.58234 0.5927 0.0
C326 C 0.11966 0.35946 0.47334 0.0
O327 O 0.02043 0.57794 0.48894 0.0
O328 O 0.13128 0.54083 0.54055 0.0
N329 N 0.90676 0.53717 0.44485 0.0
C330 C 0.9285 0.50305 0.38121 0.0
C331 C 0.84251 0.45787 0.41717 0.0
N332 N 0.89136 0.4919 0.39872 0.0
N333 N 0.89099 0.4616 0.36403 0.0
C334 C 0.12511 0.45553 0.73704 0.0
C335 C 0.2323 0.4634 0.72223 0.0
N336 N 0.142 0.44877 0.66673 0.0
N337 N 0.20878 0.45288 0.65742 0.0
N338 N 0.18014 0.46782 0.77363 0.0
H339 H 0.99957 0.49668 0.73888 0.0
H340 H 0.04311 0.48172 0.82542 0.0
H341 H 0.04786 0.40533 0.76981 0.0
C342 C 0.05004 0.46119 0.76951 0.0
C343 C 1.00132 0.50423 0.33911 0.0
H344 H 1.00576 0.5592 0.34538 0.0
H345 H 1.0 0.48888 0.2824 0.0
H346 H 0.05606 0.46312 0.35905 0.0
O347 O 0.05021 0.39986 0.45953 0.0
O348 O 0.14922 0.37752 0.52751 0.0
C349 C 0.08249 0.58671 0.49916 0.0
O350 O 0.01875 0.4054 0.6343 0.0
O351 O 0.92283 0.42019 0.56276 0.0
Zn352 Zn 0.73431 0.71621 0.25997 0.0
O353 O 0.75377 0.78493 0.17385 0.0
C354 C 0.87638 0.60225 0.21851 0.0
Zn355 Zn 0.81806 0.73159 0.33462 0.0
C356 C 0.81259 0.80038 0.18597 0.0
O357 O 0.8411 0.78897 0.24848 0.0
C358 C 0.74123 0.64195 0.40319 0.0
O359 O 0.74573 0.82953 0.38498 0.0
O360 O 0.65333 0.81025 0.33057 0.0
N361 N 0.9053 0.75054 0.38757 0.0
C362 C 0.90549 0.79088 0.44714 0.0
C363 C 0.99143 0.79696 0.37722 0.0
N364 N 0.95923 0.75457 0.34495 0.0
N365 N 0.95949 0.82046 0.44163 0.0
C366 C 0.64627 0.65414 0.15095 0.0
C367 C 0.57107 0.63556 0.22617 0.0
N368 N 0.64836 0.69202 0.21161 0.0
N369 N 0.60197 0.67918 0.25789 0.0
N370 N 0.59798 0.61818 0.15915 0.0
H371 H 0.72219 0.69003 0.08904 0.0
H372 H 0.65545 0.6645 1.03766 0.0
H373 H 0.73655 0.59247 0.07866 0.0
C374 C 0.69327 0.65034 0.08542 0.0
C375 C 0.85079 0.80402 0.50853 0.0
H376 H 0.80987 0.8634 0.5082 0.0
H377 H 0.88267 0.79339 0.56006 0.0
H378 H 0.8189 0.76694 0.50503 0.0
O379 O 0.7866 0.67163 0.42546 0.0
O380 O 0.72544 0.64638 0.33724 0.0
C381 C 0.67515 0.84521 0.37872 0.0
O382 O 0.80681 0.62671 0.2022 0.0
O383 O 0.89669 0.63119 0.27271 0.0
Zn384 Zn 0.73598 0.21473 0.84873 0.0
O385 O 0.81601 0.12404 0.90033 0.0
C386 C 0.81787 0.29204 0.9254 0.0
Zn387 Zn 0.82013 0.23006 0.77169 0.0
C388 C 0.88563 0.09994 0.88332 0.0
O389 O 0.90539 0.12844 0.82802 0.0
C390 C 0.67176 0.34277 0.73259 0.0
O391 O 0.78732 0.17253 0.67847 0.0
O392 O 0.72425 0.15223 0.7683 0.0
N393 N 0.89785 0.26383 0.71597 0.0
C394 C 0.89531 0.30487 0.65549 0.0
C395 C 0.97729 0.31839 0.72532 0.0
N396 N 0.94811 0.27422 0.75878 0.0
N397 N 0.9454 0.33946 0.66041 0.0
C398 C 0.64695 0.16933 0.97188 0.0
C399 C 0.62911 0.16759 0.9261 0.0
N400 N 0.65573 0.18027 0.90301 0.0
N401 N 0.61734 0.15459 0.85682 0.0
N402 N 0.58514 0.1543 0.98188 0.0
H403 H 0.75763 0.13361 1.03189 0.0
H404 H 0.67408 0.16848 0.08929 0.0
H405 H 0.70174 0.23201 1.03596 0.0
C406 C 0.69857 0.17643 1.0373 0.0
C407 C 0.84073 0.31498 0.59459 0.0
H408 H 0.8117 0.27543 0.59907 0.0
H409 H 0.87207 0.30593 0.54287 0.0
H410 H 0.79735 0.37332 0.59467 0.0
O411 O 0.74229 0.32698 0.72658 0.0
O412 O 0.64887 0.31045 0.7829 0.0
C413 C 0.73753 0.1485 0.70179 0.0
O414 O 0.75686 0.27995 0.93609 0.0
O415 O 0.84511 0.2836 0.86222 0.0
Zn416 Zn 0.8103 0.76166 0.81564 0.0
O417 O 0.88858 0.69118 0.88824 0.0
C418 C 0.87935 0.65858 0.69716 0.0
Zn419 Zn 0.73866 0.69983 0.79993 0.0
C420 C 0.87638 0.63417 0.90683 0.0
O421 O 0.81794 0.62505 0.88133 0.0
C422 C 0.67457 0.82162 0.70481 0.0
O423 O 0.65011 0.7603 0.88248 0.0
O424 O 0.73195 0.81008 0.90286 0.0
N425 N 0.6983 0.62376 0.7723 0.0
C426 C 0.65685 0.59475 0.80923 0.0
C427 C 0.71196 0.51868 0.72505 0.0
N428 N 0.72968 0.57847 0.71794 0.0
N429 N 0.6677 0.52636 0.78305 0.0
C430 C 0.9011 0.86239 0.81886 0.0
C431 C 0.8225 -0.04542 0.87608 0.0
N432 N 0.84646 0.84183 0.84353 0.0
N433 N 0.8002 0.89772 0.88297 0.0
N434 N 0.88262 0.93597 0.83136 0.0
H435 H 0.98312 0.75651 0.7842 0.0
H436 H 1.01151 0.8334 0.76962 0.0
H437 H 0.93946 0.82285 0.71274 0.0
C438 C 0.96243 0.8161 0.76825 0.0
C439 C 0.62312 0.62496 0.88086 0.0
H440 H 0.6686 0.62861 0.91599 0.0
H441 H 0.59668 0.59106 0.90809 0.0
H442 H 0.57771 0.68144 0.87342 0.0
O443 O 0.66493 0.76385 0.7236 0.0
O444 O 0.72769 0.83659 0.73497 0.0
C445 C 0.66961 0.8054 0.91895 0.0
O446 O 0.89393 0.70975 0.72849 0.0
O447 O 0.82175 0.64686 0.71807 0.0
Zn448 Zn 0.57023 0.50435 0.55115 0.0
O449 O 0.63759 0.44173 0.64329 0.0
C450 C 0.62906 0.362 0.45902 0.0
Zn451 Zn 0.49493 0.43428 0.55793 0.0
C452 C 0.62162 0.39015 0.67378 0.0
O453 O 0.56854 0.37344 0.64716 0.0
C454 C 0.4407 0.54826 0.43592 0.0
O455 O 0.42457 0.5173 0.62956 0.0
O456 O 0.49302 0.58653 0.62408 0.0
N457 N 0.42128 0.37622 0.57696 0.0
C458 C 0.40095 0.35659 0.64126 0.0
C459 C 0.33311 0.33202 0.56236 0.0
N460 N 0.37856 0.36105 0.52821 0.0
N461 N 0.34571 0.32854 0.63384 0.0
C462 C 0.68716 0.60807 0.5161 0.0
C463 C 0.67155 0.56579 0.41554 0.0
N464 N 0.64236 0.56809 0.52903 0.0
N465 N 0.63436 0.54376 0.46483 0.0
N466 N 0.70733 0.60569 0.44547 0.0
H467 H 0.65318 0.67387 0.61195 0.0
H468 H 0.69262 0.71375 0.54223 0.0
H469 H 0.75457 0.63512 0.59318 0.0
C470 C 0.69704 0.66109 0.56911 0.0
C471 C 0.43284 0.36885 0.71166 0.0
H472 H 0.4837 0.31778 0.72504 0.0
H473 H 0.39069 0.38141 0.75545 0.0
H474 H 0.4503 0.41652 0.70992 0.0
O475 O 0.42437 0.49845 0.46887 0.0
O476 O 0.49618 0.56294 0.45904 0.0
C477 C 0.43595 0.57452 0.64943 0.0
O478 O 0.64313 0.41618 0.48238 0.0
O479 O 0.56951 0.35264 0.48147 0.0
Zn480 Zn 0.06543 0.50861 0.05457 0.0
O481 O 0.98911 0.58945 0.98073 0.0
C482 C 0.93139 0.55105 0.16616 0.0
Zn483 Zn 0.99113 0.43783 0.04721 0.0
C484 C 0.93065 0.57914 0.95642 0.0
O485 O 0.91935 0.52085 0.97445 0.0
C486 C 0.12376 0.36998 0.14908 0.0
O487 O 0.06639 0.38192 0.95776 0.0
O488 O 0.13896 0.44643 0.9655 0.0
N489 N 0.92163 0.37443 1.03133 0.0
C490 C 0.91572 0.33343 0.97449 0.0
C491 C 0.82121 0.34761 1.04261 0.0
N492 N 0.86324 0.38176 0.07403 0.0
N493 N 0.85081 0.31946 0.97815 0.0
C494 C 0.18302 0.60872 0.09042 0.0
C495 C 0.1539 0.5867 0.19499 0.0
N496 N 0.13669 0.56967 0.08224 0.0
N497 N 0.11964 0.55857 0.14867 0.0
N498 N 0.19685 0.61751 0.16123 0.0
H499 H 0.25724 0.58868 1.00234 0.0
H500 H 0.23903 0.67715 0.04629 0.0
H501 H 0.16702 0.66449 0.98946 0.0
C502 C 0.2135 0.63736 1.02887 0.0
C503 C 0.98058 0.29504 0.92383 0.0
H504 H 0.98178 0.33503 0.8817 0.0
H505 H 0.9764 0.24504 0.89895 0.0
H506 H 0.03536 0.27419 0.95384 0.0
O507 O 0.0668 0.35792 0.12398 0.0
O508 O 0.13651 0.42526 0.12653 0.0
C509 C 0.12262 0.39567 0.93421 0.0
O510 O 0.98613 0.56675 0.14272 0.0
O511 O 0.9176 0.49884 0.13558 0.0
loop_
_geom_bond_atom_site_label_1
_geom_bond_atom_site_label_2
_geom_bond_distance
_geom_bond_site_symmetry_2
_ccdc_geom_bond_type
Zn0 O1 2.061 1_545 S
Zn0 O8 2.054 . S
Zn0 N16 2.033 1_554 S
Zn0 O28 2.047 1_454 S
Zn0 O30 2.059 1_544 S
O1 Zn0 2.061 1_565 S
O1 C4 1.259 . S
C2 O30 1.256 . S
C2 O31 1.244 . S
Zn3 O5 2.039 1_655 S
Zn3 O7 2.056 1_565 S
Zn3 N9 2.044 . S
Zn3 O27 2.071 1_564 S
Zn3 O31 2.048 1_654 S
C4 O1 1.259 . S
C4 O5 1.254 . S
O5 Zn3 2.039 1_455 S
O5 C4 1.254 . S
C6 O27 1.256 . S
C6 O28 1.244 . S
O7 Zn3 2.056 1_545 S
O7 C29 1.259 . S
O8 Zn0 2.054 . S
O8 C29 1.254 1_455 S
N9 Zn3 2.044 . S
N9 C10 1.298 . S
N9 N12 1.398 . S
C10 N9 1.298 . S
C10 N13 1.367 . S
C10 C23 1.481 . S
C11 N12 1.299 . S
C11 N13 1.379 . S
N12 N9 1.398 . S
N12 C11 1.299 . S
N13 C10 1.367 . S
N13 C11 1.379 . S
C14 N16 1.298 . S
C14 N18 1.367 . S
C14 C22 1.481 . S
C15 N17 1.299 . S
C15 N18 1.379 . S
N16 Zn0 2.033 1_556 S
N16 C14 1.298 . S
N16 N17 1.398 . S
N17 C15 1.299 . S
N17 N16 1.398 . S
N18 C14 1.367 . S
N18 C15 1.379 . S
H19 C22 0.980 1_554 S
H20 C22 0.981 1_554 S
H21 C22 0.981 1_565 S
C22 C14 1.481 . S
C22 H19 0.980 1_556 S
C22 H20 0.981 1_556 S
C22 H21 0.981 1_545 S
C23 C10 1.481 . S
C23 H24 0.980 1_565 S
C23 H25 0.981 . S
C23 H26 0.981 1_565 S
H24 C23 0.980 1_545 S
H25 C23 0.981 . S
H26 C23 0.981 1_545 S
O27 Zn3 2.071 1_546 S
O27 C6 1.256 . S
O28 Zn0 2.047 1_656 S
O28 C6 1.244 . S
C29 O7 1.259 . S
C29 O8 1.254 1_655 S
O30 Zn0 2.059 1_566 S
O30 C2 1.256 . S
O31 C2 1.244 . S
O31 Zn3 2.048 1_456 S
Zn32 O33 2.055 . S
Zn32 O40 2.046 . S
Zn32 N48 2.036 . S
Zn32 O60 2.053 . S
Zn32 O62 2.066 . S
O33 Zn32 2.055 . S
O33 C36 1.259 . S
C34 O62 1.256 . S
C34 O63 1.244 . S
Zn35 O37 2.046 . S
Zn35 O39 2.055 . S
Zn35 N41 2.036 . S
Zn35 O59 2.066 . S
Zn35 O63 2.053 . S
C36 O33 1.259 . S
C36 O37 1.254 . S
O37 Zn35 2.046 . S
O37 C36 1.254 . S
C38 O59 1.256 . S
C38 O60 1.244 . S
O39 Zn35 2.055 . S
O39 C61 1.259 . S
O40 Zn32 2.046 . S
O40 C61 1.254 . S
N41 Zn35 2.036 . S
N41 C42 1.298 . S
N41 N44 1.398 . S
C42 N41 1.298 . S
C42 N45 1.367 . S
C42 C55 1.481 . S
C43 N44 1.299 . S
C43 N45 1.379 . S
N44 N41 1.398 . S
N44 C43 1.299 . S
N45 C42 1.367 . S
N45 C43 1.379 . S
C46 N48 1.298 . S
C46 N50 1.367 . S
C46 C54 1.481 . S
C47 N49 1.306 . S
C47 N50 1.384 . S
N48 Zn32 2.036 . S
N48 C46 1.298 . S
N48 N49 1.398 . S
N49 C47 1.306 . S
N49 N48 1.398 . S
N50 C46 1.367 . S
N50 C47 1.384 . S
H51 C54 0.980 . S
H52 C54 0.981 . S
H53 C54 0.981 . S
C54 C46 1.481 . S
C54 H51 0.980 . S
C54 H52 0.981 . S
C54 H53 0.981 . S
C55 C42 1.481 . S
C55 H56 0.980 . S
C55 H57 0.981 . S
C55 H58 0.981 . S
H56 C55 0.980 . S
H57 C55 0.981 . S
H58 C55 0.981 . S
O59 Zn35 2.066 . S
O59 C38 1.256 . S
O60 Zn32 2.053 . S
O60 C38 1.244 . S
C61 O39 1.259 . S
C61 O40 1.254 . S
O62 Zn32 2.066 . S
O62 C34 1.256 . S
O63 C34 1.244 . S
O63 Zn35 2.053 . S
Zn64 O65 2.055 . S
Zn64 O72 2.046 1_545 S
Zn64 N80 2.036 . S
Zn64 O92 2.053 1_545 S
Zn64 O94 2.066 . S
O65 Zn64 2.055 . S
O65 C68 1.259 . S
C66 O94 1.256 . S
C66 O95 1.244 . S
Zn67 O69 2.046 1_565 S
Zn67 O71 2.055 . S
Zn67 N73 2.036 . S
Zn67 O91 2.066 . S
Zn67 O95 2.053 1_565 S
C68 O65 1.259 . S
C68 O69 1.254 . S
O69 Zn67 2.046 1_545 S
O69 C68 1.254 . S
C70 O91 1.256 . S
C70 O92 1.244 . S
O71 Zn67 2.055 . S
O71 C93 1.259 . S
O72 Zn64 2.046 1_565 S
O72 C93 1.254 . S
N73 Zn67 2.036 . S
N73 C74 1.298 . S
N73 N76 1.398 . S
C74 N73 1.298 . S
C74 N77 1.367 . S
C74 C87 1.481 . S
C75 N76 1.299 . S
C75 N77 1.379 . S
N76 N73 1.398 . S
N76 C75 1.299 . S
N77 C74 1.367 . S
N77 C75 1.379 . S
C78 N80 1.298 . S
C78 N82 1.367 . S
C78 C86 1.481 . S
C79 N81 1.299 . S
C79 N82 1.379 . S
N80 Zn64 2.036 . S
N80 C78 1.298 . S
N80 N81 1.398 . S
N81 C79 1.299 . S
N81 N80 1.398 . S
N82 C78 1.367 . S
N82 C79 1.379 . S
H83 C86 0.980 . S
H84 C86 0.981 . S
H85 C86 0.981 . S
C86 C78 1.481 . S
C86 H83 0.980 . S
C86 H84 0.981 . S
C86 H85 0.981 . S
C87 C74 1.481 . S
C87 H88 0.980 . S
C87 H89 0.981 . S
C87 H90 0.981 . S
H88 C87 0.980 . S
H89 C87 0.981 . S
H90 C87 0.981 . S
O91 Zn67 2.066 . S
O91 C70 1.256 . S
O92 Zn64 2.053 1_565 S
O92 C70 1.244 . S
C93 O71 1.259 . S
C93 O72 1.254 . S
O94 Zn64 2.066 . S
O94 C66 1.256 . S
O95 C66 1.244 . S
O95 Zn67 2.053 1_545 S
Zn96 O97 2.055 . S
Zn96 O104 2.046 . S
Zn96 N112 2.036 . S
Zn96 O124 2.053 . S
Zn96 O126 2.066 . S
O97 Zn96 2.055 . S
O97 C100 1.259 . S
C98 O126 1.256 . S
C98 O127 1.244 . S
Zn99 O101 2.046 . S
Zn99 O103 2.055 . S
Zn99 N105 2.036 . S
Zn99 O123 2.066 . S
Zn99 O127 2.053 . S
C100 O97 1.259 . S
C100 O101 1.254 . S
O101 Zn99 2.046 . S
O101 C100 1.254 . S
C102 O123 1.256 . S
C102 O124 1.244 . S
O103 Zn99 2.055 . S
O103 C125 1.259 . S
O104 Zn96 2.046 . S
O104 C125 1.254 . S
N105 Zn99 2.036 . S
N105 C106 1.298 . S
N105 N108 1.398 . S
C106 N105 1.298 . S
C106 N109 1.367 . S
C106 C119 1.481 . S
C107 N108 1.299 . S
C107 N109 1.379 . S
N108 N105 1.398 . S
N108 C107 1.299 . S
N109 C106 1.367 . S
N109 C107 1.379 . S
C110 N112 1.298 . S
C110 N114 1.367 . S
C110 C118 1.481 . S
C111 N113 1.299 . S
C111 N114 1.379 . S
N112 Zn96 2.036 . S
N112 C110 1.298 . S
N112 N113 1.398 . S
N113 C111 1.299 . S
N113 N112 1.398 . S
N114 C110 1.367 . S
N114 C111 1.379 . S
H115 C118 0.980 . S
H116 C118 0.981 . S
H117 C118 0.981 . S
C118 C110 1.481 . S
C118 H115 0.980 . S
C118 H116 0.981 . S
C118 H117 0.981 . S
C119 C106 1.481 . S
C119 H120 0.980 . S
C119 H121 0.981 . S
C119 H122 0.981 . S
H120 C119 0.980 . S
H121 C119 0.981 . S
H122 C119 0.981 . S
O123 Zn99 2.066 . S
O123 C102 1.256 . S
O124 Zn96 2.053 . S
O124 C102 1.244 . S
C125 O103 1.259 . S
C125 O104 1.254 . S
O126 Zn96 2.066 . S
O126 C98 1.256 . S
O127 C98 1.244 . S
O127 Zn99 2.053 . S
Zn128 O129 2.055 . S
Zn128 O136 2.046 . S
Zn128 N144 2.036 1_565 S
Zn128 O156 2.053 1_565 S
Zn128 O158 2.066 1_465 S
O129 Zn128 2.055 . S
O129 C132 1.259 . S
C130 O158 1.256 . S
C130 O159 1.244 . S
Zn131 O133 2.046 . S
Zn131 O135 2.055 1_655 S
Zn131 N137 2.036 . S
Zn131 O155 2.066 1_565 S
Zn131 O159 2.053 1_565 S
C132 O129 1.259 . S
C132 O133 1.254 1_455 S
O133 Zn131 2.046 . S
O133 C132 1.254 1_655 S
C134 O155 1.256 1_455 S
C134 O156 1.244 . S
O135 Zn131 2.055 1_455 S
O135 C157 1.259 . S
O136 Zn128 2.046 . S
O136 C157 1.254 . S
N137 Zn131 2.036 . S
N137 C138 1.298 . S
N137 N140 1.398 1_565 S
C138 N137 1.298 . S
C138 N141 1.367 . S
C138 C151 1.481 . S
C139 N140 1.299 . S
C139 N141 1.379 1_545 S
N140 N137 1.398 1_545 S
N140 C139 1.299 . S
N141 C138 1.367 . S
N141 C139 1.379 1_565 S
C142 N144 1.298 . S
C142 N146 1.367 . S
C142 C150 1.481 1_545 S
C143 N145 1.299 . S
C143 N146 1.379 . S
N144 Zn128 2.036 1_545 S
N144 C142 1.298 . S
N144 N145 1.398 . S
N145 C143 1.299 . S
N145 N144 1.398 . S
N146 C142 1.367 . S
N146 C143 1.379 . S
H147 C150 0.980 . S
H148 C150 0.981 . S
H149 C150 0.981 1_545 S
C150 C142 1.481 1_565 S
C150 H147 0.980 . S
C150 H148 0.981 . S
C150 H149 0.981 1_565 S
C151 C138 1.481 . S
C151 H152 0.980 1_655 S
C151 H153 0.981 . S
C151 H154 0.981 . S
H152 C151 0.980 1_455 S
H153 C151 0.981 . S
H154 C151 0.981 . S
O155 Zn131 2.066 1_545 S
O155 C134 1.256 1_655 S
O156 Zn128 2.053 1_545 S
O156 C134 1.244 . S
C157 O135 1.259 . S
C157 O136 1.254 . S
O158 Zn128 2.066 1_645 S
O158 C130 1.256 . S
O159 C130 1.244 . S
O159 Zn131 2.053 1_545 S
Zn160 O161 2.055 . S
Zn160 O168 2.046 . S
Zn160 N176 2.036 . S
Zn160 O188 2.053 . S
Zn160 O190 2.066 . S
O161 Zn160 2.055 . S
O161 C164 1.259 . S
C162 O190 1.256 . S
C162 O191 1.244 . S
Zn163 O165 2.046 . S
Zn163 O167 2.055 . S
Zn163 N169 2.036 . S
Zn163 O187 2.066 . S
Zn163 O191 2.053 . S
C164 O161 1.259 . S
C164 O165 1.254 . S
O165 Zn163 2.046 . S
O165 C164 1.254 . S
C166 O187 1.256 . S
C166 O188 1.244 . S
O167 Zn163 2.055 . S
O167 C189 1.259 . S
O168 Zn160 2.046 . S
O168 C189 1.254 . S
N169 Zn163 2.036 . S
N169 C170 1.298 . S
N169 N172 1.398 . S
C170 N169 1.298 . S
C170 N173 1.367 . S
C170 C183 1.481 . S
C171 N172 1.299 . S
C171 N173 1.379 . S
N172 N169 1.398 . S
N172 C171 1.299 . S
N173 C170 1.367 . S
N173 C171 1.379 . S
C174 N176 1.298 . S
C174 N178 1.367 . S
C174 C182 1.481 . S
C175 N177 1.299 . S
C175 N178 1.379 . S
N176 Zn160 2.036 . S
N176 C174 1.298 . S
N176 N177 1.398 . S
N177 C175 1.299 . S
N177 N176 1.398 . S
N178 C174 1.367 . S
N178 C175 1.379 . S
H179 C182 0.980 . S
H180 C182 0.981 1_545 S
H181 C182 0.981 1_545 S
C182 C174 1.481 . S
C182 H179 0.980 . S
C182 H180 0.981 1_565 S
C182 H181 0.981 1_565 S
C183 C170 1.481 . S
C183 H184 0.980 . S
C183 H185 0.981 . S
C183 H186 0.981 . S
H184 C183 0.980 . S
H185 C183 0.981 . S
H186 C183 0.981 . S
O187 Zn163 2.066 . S
O187 C166 1.256 . S
O188 Zn160 2.053 . S
O188 C166 1.244 . S
C189 O167 1.259 . S
C189 O168 1.254 . S
O190 Zn160 2.066 . S
O190 C162 1.256 . S
O191 C162 1.244 . S
O191 Zn163 2.053 . S
Zn192 O193 2.055 . S
Zn192 O200 2.046 1_554 S
Zn192 N208 2.036 . S
Zn192 O220 2.053 1_544 S
Zn192 O222 2.066 1_545 S
O193 Zn192 2.055 . S
O193 C196 1.259 . S
C194 O222 1.256 . S
C194 O223 1.244 . S
Zn195 O197 2.046 1_556 S
Zn195 O199 2.055 . S
Zn195 N201 2.036 . S
Zn195 O219 2.066 1_545 S
Zn195 O223 2.053 1_546 S
C196 O193 1.259 . S
C196 O197 1.254 . S
O197 Zn195 2.046 1_554 S
O197 C196 1.254 . S
C198 O219 1.256 . S
C198 O220 1.244 . S
O199 Zn195 2.055 . S
O199 C221 1.259 . S
O200 Zn192 2.046 1_556 S
O200 C221 1.254 . S
N201 Zn195 2.036 . S
N201 C202 1.298 . S
N201 N204 1.399 . S
C202 N201 1.298 . S
C202 N205 1.367 1_545 S
C202 C215 1.481 . S
C203 N204 1.299 1_565 S
C203 N205 1.379 . S
N204 N201 1.399 . S
N204 C203 1.299 1_545 S
N205 C202 1.367 1_565 S
N205 C203 1.379 . S
C206 N208 1.298 . S
C206 N210 1.367 . S
C206 C214 1.481 . S
C207 N209 1.299 . S
C207 N210 1.379 . S
N208 Zn192 2.036 . S
N208 C206 1.298 . S
N208 N209 1.398 . S
N209 C207 1.299 . S
N209 N208 1.398 . S
N210 C206 1.367 . S
N210 C207 1.379 . S
H211 C214 0.980 . S
H212 C214 0.981 . S
H213 C214 0.981 . S
C214 C206 1.481 . S
C214 H211 0.980 . S
C214 H212 0.981 . S
C214 H213 0.981 . S
C215 C202 1.481 . S
C215 H216 0.980 . S
C215 H217 0.981 . S
C215 H218 0.981 . S
H216 C215 0.980 . S
H217 C215 0.981 . S
H218 C215 0.981 . S
O219 Zn195 2.066 1_565 S
O219 C198 1.256 . S
O220 Zn192 2.053 1_566 S
O220 C198 1.244 . S
C221 O199 1.259 . S
C221 O200 1.254 . S
O222 Zn192 2.066 1_565 S
O222 C194 1.256 . S
O223 C194 1.244 . S
O223 Zn195 2.053 1_564 S
Zn224 O225 2.055 . S
Zn224 O232 2.046 . S
Zn224 N240 2.036 . S
Zn224 O252 2.053 . S
Zn224 O254 2.066 . S
O225 Zn224 2.055 . S
O225 C228 1.259 . S
C226 O254 1.256 . S
C226 O255 1.244 . S
Zn227 O229 2.046 . S
Zn227 O231 2.055 . S
Zn227 N233 2.036 . S
Zn227 O251 2.066 . S
Zn227 O255 2.053 . S
C228 O225 1.259 . S
C228 O229 1.254 . S
O229 Zn227 2.046 . S
O229 C228 1.254 . S
C230 O251 1.256 . S
C230 O252 1.244 . S
O231 Zn227 2.055 . S
O231 C253 1.259 . S
O232 Zn224 2.046 . S
O232 C253 1.254 . S
N233 Zn227 2.036 . S
N233 C234 1.298 . S
N233 N236 1.398 . S
C234 N233 1.298 . S
C234 N237 1.367 . S
C234 C247 1.481 . S
C235 N236 1.299 . S
C235 N237 1.379 . S
N236 N233 1.398 . S
N236 C235 1.299 . S
N237 C234 1.367 . S
N237 C235 1.379 . S
C238 N240 1.298 . S
C238 N242 1.367 . S
C238 C246 1.481 . S
C239 N241 1.299 . S
C239 N242 1.379 . S
N240 Zn224 2.036 . S
N240 C238 1.298 . S
N240 N241 1.398 . S
N241 C239 1.299 . S
N241 N240 1.398 . S
N242 C238 1.367 . S
N242 C239 1.379 . S
H243 C246 0.980 . S
H244 C246 0.981 . S
H245 C246 0.981 . S
C246 C238 1.481 . S
C246 H243 0.980 . S
C246 H244 0.981 . S
C246 H245 0.981 . S
C247 C234 1.481 . S
C247 H248 0.980 . S
C247 H249 0.981 1_455 S
C247 H250 0.981 1_455 S
H248 C247 0.980 . S
H249 C247 0.981 1_655 S
H250 C247 0.981 1_655 S
O251 Zn227 2.066 . S
O251 C230 1.256 . S
O252 Zn224 2.053 . S
O252 C230 1.244 . S
C253 O231 1.259 . S
C253 O232 1.254 . S
O254 Zn224 2.066 . S
O254 C226 1.256 . S
O255 C226 1.244 . S
O255 Zn227 2.053 . S
Zn256 O257 2.055 . S
Zn256 O264 2.046 1_554 S
Zn256 N272 2.036 . S
Zn256 O284 2.053 1_554 S
Zn256 O286 2.066 . S
O257 Zn256 2.055 . S
O257 C260 1.259 . S
C258 O286 1.256 . S
C258 O287 1.244 . S
Zn259 O261 2.046 1_556 S
Zn259 O263 2.055 . S
Zn259 N265 2.036 . S
Zn259 O283 2.066 . S
Zn259 O287 2.053 1_556 S
C260 O257 1.259 . S
C260 O261 1.254 . S
O261 Zn259 2.046 1_554 S
O261 C260 1.254 . S
C262 O283 1.256 . S
C262 O284 1.244 . S
O263 Zn259 2.055 . S
O263 C285 1.259 . S
O264 Zn256 2.046 1_556 S
O264 C285 1.254 . S
N265 Zn259 2.036 . S
N265 C266 1.298 . S
N265 N268 1.398 . S
C266 N265 1.298 . S
C266 N269 1.367 . S
C266 C279 1.481 . S
C267 N268 1.299 . S
C267 N269 1.379 . S
N268 N265 1.398 . S
N268 C267 1.299 . S
N269 C266 1.367 . S
N269 C267 1.379 . S
C270 N272 1.298 . S
C270 N274 1.367 . S
C270 C278 1.481 . S
C271 N273 1.299 . S
C271 N274 1.379 . S
N272 Zn256 2.036 . S
N272 C270 1.298 . S
N272 N273 1.398 . S
N273 C271 1.299 . S
N273 N272 1.398 . S
N274 C270 1.367 . S
N274 C271 1.379 . S
H275 C278 0.980 . S
H276 C278 0.981 . S
H277 C278 0.981 . S
C278 C270 1.481 . S
C278 H275 0.980 . S
C278 H276 0.981 . S
C278 H277 0.981 . S
C279 C266 1.481 . S
C279 H280 0.980 . S
C279 H281 0.981 . S
C279 H282 0.981 . S
H280 C279 0.980 . S
H281 C279 0.981 . S
H282 C279 0.981 . S
O283 Zn259 2.066 . S
O283 C262 1.256 . S
O284 Zn256 2.053 1_556 S
O284 C262 1.244 . S
C285 O263 1.259 . S
C285 O264 1.254 . S
O286 Zn256 2.066 . S
O286 C258 1.256 . S
O287 C258 1.244 . S
O287 Zn259 2.053 1_554 S
Zn288 O289 2.055 . S
Zn288 O296 2.046 . S
Zn288 N304 2.036 . S
Zn288 O316 2.053 . S
Zn288 O318 2.066 . S
O289 Zn288 2.055 . S
O289 C292 1.259 . S
C290 O318 1.256 . S
C290 O319 1.244 . S
Zn291 O293 2.046 . S
Zn291 O295 2.055 . S
Zn291 N297 2.036 . S
Zn291 O315 2.066 . S
Zn291 O319 2.053 . S
C292 O289 1.259 . S
C292 O293 1.254 . S
O293 Zn291 2.046 . S
O293 C292 1.254 . S
C294 O315 1.256 . S
C294 O316 1.244 . S
O295 Zn291 2.055 . S
O295 C317 1.259 . S
O296 Zn288 2.046 . S
O296 C317 1.254 . S
N297 Zn291 2.036 . S
N297 C298 1.298 . S
N297 N300 1.398 . S
C298 N297 1.298 . S
C298 N301 1.367 . S
C298 C311 1.481 . S
C299 N300 1.299 . S
C299 N301 1.379 . S
N300 N297 1.398 . S
N300 C299 1.299 . S
N301 C298 1.367 . S
N301 C299 1.379 . S
C302 N304 1.298 . S
C302 N306 1.367 . S
C302 C310 1.481 . S
C303 N305 1.299 . S
C303 N306 1.379 . S
N304 Zn288 2.036 . S
N304 C302 1.298 . S
N304 N305 1.398 . S
N305 C303 1.299 . S
N305 N304 1.398 . S
N306 C302 1.367 . S
N306 C303 1.379 . S
H307 C310 0.980 . S
H308 C310 0.981 . S
H309 C310 0.981 . S
C310 C302 1.481 . S
C310 H307 0.980 . S
C310 H308 0.981 . S
C310 H309 0.981 . S
C311 C298 1.481 . S
C311 H312 0.980 . S
C311 H313 0.981 1_545 S
C311 H314 0.981 1_545 S
H312 C311 0.980 . S
H313 C311 0.981 1_565 S
H314 C311 0.981 1_565 S
O315 Zn291 2.066 . S
O315 C294 1.256 . S
O316 Zn288 2.053 . S
O316 C294 1.244 . S
C317 O295 1.259 . S
C317 O296 1.254 . S
O318 Zn288 2.066 . S
O318 C290 1.256 . S
O319 C290 1.244 . S
O319 Zn291 2.053 . S
Zn320 O321 2.055 1_455 S
Zn320 O328 2.046 . S
Zn320 N336 2.036 . S
Zn320 O348 2.053 . S
Zn320 O350 2.066 . S
O321 Zn320 2.055 1_655 S
O321 C324 1.259 . S
C322 O350 1.256 1_655 S
C322 O351 1.244 . S
Zn323 O325 2.046 . S
Zn323 O327 2.055 . S
Zn323 N329 2.036 . S
Zn323 O347 2.066 1_655 S
Zn323 O351 2.053 . S
C324 O321 1.259 . S
C324 O325 1.254 . S
O325 Zn323 2.046 . S
O325 C324 1.254 . S
C326 O347 1.256 . S
C326 O348 1.244 . S
O327 Zn323 2.055 . S
O327 C349 1.259 1_655 S
O328 Zn320 2.046 . S
O328 C349 1.254 . S
N329 Zn323 2.036 . S
N329 C330 1.298 . S
N329 N332 1.398 . S
C330 N329 1.298 . S
C330 N333 1.367 . S
C330 C343 1.481 . S
C331 N332 1.299 . S
C331 N333 1.379 . S
N332 N329 1.398 . S
N332 C331 1.299 . S
N333 C330 1.367 . S
N333 C331 1.379 . S
C334 N336 1.298 . S
C334 N338 1.367 . S
C334 C342 1.481 . S
C335 N337 1.299 . S
C335 N338 1.379 . S
N336 Zn320 2.036 . S
N336 C334 1.298 . S
N336 N337 1.398 . S
N337 C335 1.299 . S
N337 N336 1.398 . S
N338 C334 1.367 . S
N338 C335 1.379 . S
H339 C342 0.980 . S
H340 C342 0.981 . S
H341 C342 0.981 . S
C342 C334 1.481 . S
C342 H339 0.980 . S
C342 H340 0.981 . S
C342 H341 0.981 . S
C343 C330 1.481 . S
C343 H344 0.980 . S
C343 H345 0.981 . S
C343 H346 0.981 . S
H344 C343 0.980 . S
H345 C343 0.981 . S
H346 C343 0.981 . S
O347 Zn323 2.066 1_455 S
O347 C326 1.256 . S
O348 Zn320 2.053 . S
O348 C326 1.244 . S
C349 O327 1.259 1_455 S
C349 O328 1.254 . S
O350 Zn320 2.066 . S
O350 C322 1.256 1_455 S
O351 C322 1.244 . S
O351 Zn323 2.053 . S
Zn352 O353 2.055 . S
Zn352 O360 2.046 . S
Zn352 N368 2.036 . S
Zn352 O380 2.053 . S
Zn352 O382 2.066 . S
O353 Zn352 2.055 . S
O353 C356 1.259 . S
C354 O382 1.256 . S
C354 O383 1.244 . S
Zn355 O357 2.046 . S
Zn355 O359 2.055 . S
Zn355 N361 2.036 . S
Zn355 O379 2.066 . S
Zn355 O383 2.053 . S
C356 O353 1.259 . S
C356 O357 1.254 . S
O357 Zn355 2.046 . S
O357 C356 1.254 . S
C358 O379 1.256 . S
C358 O380 1.244 . S
O359 Zn355 2.055 . S
O359 C381 1.259 . S
O360 Zn352 2.046 . S
O360 C381 1.254 . S
N361 Zn355 2.036 . S
N361 C362 1.298 . S
N361 N364 1.398 . S
C362 N361 1.298 . S
C362 N365 1.367 . S
C362 C375 1.481 . S
C363 N364 1.299 1_455 S
C363 N365 1.379 1_455 S
N364 N361 1.398 . S
N364 C363 1.299 1_655 S
N365 C362 1.367 . S
N365 C363 1.379 1_655 S
C366 N368 1.298 . S
C366 N370 1.367 . S
C366 C374 1.481 . S
C367 N369 1.299 . S
C367 N370 1.379 . S
N368 Zn352 2.036 . S
N368 C366 1.298 . S
N368 N369 1.398 . S
N369 C367 1.299 . S
N369 N368 1.398 . S
N370 C366 1.367 . S
N370 C367 1.379 . S
H371 C374 0.980 . S
H372 C374 0.984 . S
H373 C374 0.981 . S
C374 C366 1.481 . S
C374 H371 0.980 . S
C374 H372 0.984 . S
C374 H373 0.981 . S
C375 C362 1.481 . S
C375 H376 0.980 . S
C375 H377 0.981 . S
C375 H378 0.981 . S
H376 C375 0.980 . S
H377 C375 0.981 . S
H378 C375 0.981 . S
O379 Zn355 2.066 . S
O379 C358 1.256 . S
O380 Zn352 2.053 . S
O380 C358 1.244 . S
C381 O359 1.259 . S
C381 O360 1.254 . S
O382 Zn352 2.066 . S
O382 C354 1.256 . S
O383 C354 1.244 . S
O383 Zn355 2.053 . S
Zn384 O385 2.055 . S
Zn384 O392 2.046 . S
Zn384 N400 2.036 . S
Zn384 O412 2.053 . S
Zn384 O414 2.066 . S
O385 Zn384 2.055 . S
O385 C388 1.259 . S
C386 O414 1.256 . S
C386 O415 1.244 . S
Zn387 O389 2.046 . S
Zn387 O391 2.055 . S
Zn387 N393 2.036 . S
Zn387 O411 2.066 . S
Zn387 O415 2.053 . S
C388 O385 1.259 . S
C388 O389 1.254 . S
O389 Zn387 2.046 . S
O389 C388 1.254 . S
C390 O411 1.256 . S
C390 O412 1.244 . S
O391 Zn387 2.055 . S
O391 C413 1.259 . S
O392 Zn384 2.046 . S
O392 C413 1.254 . S
N393 Zn387 2.036 . S
N393 C394 1.298 . S
N393 N396 1.398 . S
C394 N393 1.298 . S
C394 N397 1.367 . S
C394 C407 1.481 . S
C395 N396 1.299 . S
C395 N397 1.379 . S
N396 N393 1.398 . S
N396 C395 1.299 . S
N397 C394 1.367 . S
N397 C395 1.379 . S
C398 N400 1.298 . S
C398 N402 1.367 . S
C398 C406 1.481 . S
C399 N401 1.299 . S
C399 N402 1.379 . S
N400 Zn384 2.036 . S
N400 C398 1.298 . S
N400 N401 1.398 . S
N401 C399 1.299 . S
N401 N400 1.398 . S
N402 C398 1.367 . S
N402 C399 1.379 . S
H403 C406 0.980 . S
H404 C406 0.981 1_554 S
H405 C406 0.985 . S
C406 C398 1.481 . S
C406 H403 0.980 . S
C406 H404 0.981 1_556 S
C406 H405 0.985 . S
C407 C394 1.481 . S
C407 H408 0.980 . S
C407 H409 0.981 . S
C407 H410 0.981 . S
H408 C407 0.980 . S
H409 C407 0.981 . S
H410 C407 0.981 . S
O411 Zn387 2.066 . S
O411 C390 1.256 . S
O412 Zn384 2.053 . S
O412 C390 1.244 . S
C413 O391 1.259 . S
C413 O392 1.254 . S
O414 Zn384 2.066 . S
O414 C386 1.256 . S
O415 C386 1.244 . S
O415 Zn387 2.053 . S
Zn416 O417 2.055 . S
Zn416 O424 2.046 . S
Zn416 N432 2.036 . S
Zn416 O444 2.053 . S
Zn416 O446 2.066 . S
O417 Zn416 2.055 . S
O417 C420 1.259 . S
C418 O446 1.256 . S
C418 O447 1.244 . S
Zn419 O421 2.046 . S
Zn419 O423 2.055 . S
Zn419 N425 2.036 . S
Zn419 O443 2.066 . S
Zn419 O447 2.053 . S
C420 O417 1.259 . S
C420 O421 1.254 . S
O421 Zn419 2.046 . S
O421 C420 1.254 . S
C422 O443 1.256 . S
C422 O444 1.244 . S
O423 Zn419 2.055 . S
O423 C445 1.259 . S
O424 Zn416 2.046 . S
O424 C445 1.254 . S
N425 Zn419 2.036 . S
N425 C426 1.298 . S
N425 N428 1.398 . S
C426 N425 1.298 . S
C426 N429 1.367 . S
C426 C439 1.481 . S
C427 N428 1.299 . S
C427 N429 1.379 . S
N428 N425 1.398 . S
N428 C427 1.299 . S
N429 C426 1.367 . S
N429 C427 1.379 . S
C430 N432 1.298 . S
C430 N434 1.367 . S
C430 C438 1.481 . S
C431 N433 1.299 1_545 S
C431 N434 1.379 1_545 S
N432 Zn416 2.036 . S
N432 C430 1.298 . S
N432 N433 1.398 . S
N433 C431 1.299 1_565 S
N433 N432 1.398 . S
N434 C430 1.367 . S
N434 C431 1.379 1_565 S
H435 C438 0.980 . S
H436 C438 0.981 1_455 S
H437 C438 0.981 1_455 S
C438 C430 1.481 . S
C438 H435 0.980 . S
C438 H436 0.981 1_655 S
C438 H437 0.981 1_655 S
C439 C426 1.481 . S
C439 H440 0.980 . S
C439 H441 0.981 . S
C439 H442 0.981 . S
H440 C439 0.980 . S
H441 C439 0.981 . S
H442 C439 0.981 . S
O443 Zn419 2.066 . S
O443 C422 1.256 . S
O444 Zn416 2.053 . S
O444 C422 1.244 . S
C445 O423 1.259 . S
C445 O424 1.254 . S
O446 Zn416 2.066 . S
O446 C418 1.256 . S
O447 C418 1.244 . S
O447 Zn419 2.053 . S
Zn448 O449 2.055 . S
Zn448 O456 2.046 . S
Zn448 N464 2.036 . S
Zn448 O476 2.053 . S
Zn448 O478 2.066 . S
O449 Zn448 2.055 . S
O449 C452 1.259 . S
C450 O478 1.256 . S
C450 O479 1.244 . S
Zn451 O453 2.046 . S
Zn451 O455 2.055 . S
Zn451 N457 2.036 . S
Zn451 O475 2.066 . S
Zn451 O479 2.053 . S
C452 O449 1.259 . S
C452 O453 1.254 . S
O453 Zn451 2.046 . S
O453 C452 1.254 . S
C454 O475 1.256 . S
C454 O476 1.244 . S
O455 Zn451 2.055 . S
O455 C477 1.259 . S
O456 Zn448 2.046 . S
O456 C477 1.254 . S
N457 Zn451 2.036 . S
N457 C458 1.298 . S
N457 N460 1.398 . S
C458 N457 1.298 . S
C458 N461 1.367 . S
C458 C471 1.481 . S
C459 N460 1.299 . S
C459 N461 1.379 . S
N460 N457 1.398 . S
N460 C459 1.299 . S
N461 C458 1.367 . S
N461 C459 1.379 . S
C462 N464 1.298 . S
C462 N466 1.367 . S
C462 C470 1.481 . S
C463 N465 1.299 . S
C463 N466 1.379 . S
N464 Zn448 2.036 . S
N464 C462 1.298 . S
N464 N465 1.398 . S
N465 C463 1.299 . S
N465 N464 1.398 . S
N466 C462 1.367 . S
N466 C463 1.379 . S
H467 C470 0.980 . S
H468 C470 0.981 . S
H469 C470 0.981 . S
C470 C462 1.481 . S
C470 H467 0.980 . S
C470 H468 0.981 . S
C470 H469 0.981 . S
C471 C458 1.481 . S
C471 H472 0.980 . S
C471 H473 0.981 . S
C471 H474 0.981 . S
H472 C471 0.980 . S
H473 C471 0.981 . S
H474 C471 0.981 . S
O475 Zn451 2.066 . S
O475 C454 1.256 . S
O476 Zn448 2.053 . S
O476 C454 1.244 . S
C477 O455 1.259 . S
C477 O456 1.254 . S
O478 Zn448 2.066 . S
O478 C450 1.256 . S
O479 C450 1.244 . S
O479 Zn451 2.053 . S
Zn480 O481 2.055 1_454 S
Zn480 O488 2.046 1_554 S
Zn480 N496 2.036 . S
Zn480 O508 2.053 . S
Zn480 O510 2.066 1_455 S
O481 Zn480 2.055 1_656 S
O481 C484 1.259 . S
C482 O510 1.256 . S
C482 O511 1.244 . S
Zn483 O485 2.046 . S
Zn483 O487 2.055 1_655 S
Zn483 N489 2.036 . S
Zn483 O507 2.066 1_656 S
Zn483 O511 2.053 1_556 S
C484 O481 1.259 . S
C484 O485 1.254 . S
O485 Zn483 2.046 . S
O485 C484 1.254 . S
C486 O507 1.256 . S
C486 O508 1.244 . S
O487 Zn483 2.055 1_455 S
O487 C509 1.259 . S
O488 Zn480 2.046 1_556 S
O488 C509 1.254 . S
N489 Zn483 2.036 . S
N489 C490 1.298 . S
N489 N492 1.398 . S
C490 N489 1.298 . S
C490 N493 1.367 . S
C490 C503 1.481 . S
C491 N492 1.299 . S
C491 N493 1.379 . S
N492 N489 1.398 . S
N492 C491 1.299 . S
N493 C490 1.367 . S
N493 C491 1.379 . S
C494 N496 1.298 . S
C494 N498 1.367 . S
C494 C502 1.481 . S
C495 N497 1.299 . S
C495 N498 1.379 . S
N496 Zn480 2.036 . S
N496 C494 1.298 . S
N496 N497 1.398 . S
N497 C495 1.299 . S
N497 N496 1.398 . S
N498 C494 1.367 . S
N498 C495 1.379 . S
H499 C502 0.980 . S
H500 C502 0.981 . S
H501 C502 0.981 1_655 S
C502 C494 1.481 . S
C502 H499 0.980 . S
C502 H500 0.981 . S
C502 H501 0.981 1_455 S
C503 C490 1.481 . S
C503 H504 0.980 1_655 S
C503 H505 0.981 . S
C503 H506 0.981 1_655 S
H504 C503 0.980 1_455 S
H505 C503 0.981 . S
H506 C503 0.981 1_455 S
O507 Zn483 2.066 1_454 S
O507 C486 1.256 . S
O508 Zn480 2.053 . S
O508 C486 1.244 . S
C509 O487 1.259 . S
C509 O488 1.254 . S
O510 Zn480 2.066 1_655 S
O510 C482 1.256 . S
O511 C482 1.244 . S
O511 Zn483 2.053 1_554 S
C98 N18 1.845 . S
C4 C38 2.029 . S
N77 C34 2.250 . S
C102 C66 2.258 . S
C157 C164 2.297 . S
N178 N205 2.338 . S
C196 C226 2.505 . S
N146 N237 2.643 . S
C317 C29 1.857 . S
C349 N50 2.614 . S
C70 C422 2.229 . S
C285 N114 2.712 . S
N365 C132 2.711 1_655 S
C477 C189 1.857 . S
C221 N402 2.615 . S
C486 C230 2.229 . S
N269 N429 2.643 . S
C292 C260 2.297 . S
N333 N306 2.336 . S
N466 C358 1.845 . S
C386 N493 2.250 . S
C356 N13 2.311 . S
C388 C6 2.339 . S
C413 N82 2.095 . S
C93 C381 2.570 . S
C294 C130 2.157 . S
N301 N210 1.656 . S
C445 C198 2.352 . S
N141 N434 1.651 . S
C162 C2 2.405 . S
C322 N397 2.660 . S
C68 C228 1.741 . S
C258 N370 2.664 . S
N109 C134 2.664 . S
C290 C450 2.405 . S
C194 N45 2.660 . S
C484 C420 1.741 . S
N274 N242 1.651 . S
C262 C166 2.158 . S
N338 N173 1.659 . S
C125 N461 2.311 . S
C61 N498 2.095 . S
C390 C452 2.029 . S
C354 C482 2.258 . S
C324 C418 2.506 . S
C454 C36 2.339 . S
C100 C509 2.570 . S
C253 C326 2.351 . S
