# Generated by pormake.
# Topology kfi, (4)-cn, num edge types: 1
# Building blocks:
#     Node 0, Type 0, BuildingBlock: CEKHIL_clean_sbu_0, # of connection points: 4
#     Node 1, Type 0, BuildingBlock: CEKHIL_clean_sbu_0, # of connection points: 4
#     Node 2, Type 0, BuildingBlock: CEKHIL_clean_sbu_0, # of connection points: 4
#     Node 3, Type 0, BuildingBlock: CEKHIL_clean_sbu_0, # of connection points: 4
#     Node 4, Type 0, BuildingBlock: CEKHIL_clean_sbu_0, # of connection points: 4
#     Node 5, Type 0, BuildingBlock: CEKHIL_clean_sbu_0, # of connection points: 4
#     Node 6, Type 0, BuildingBlock: CEKHIL_clean_sbu_0, # of connection points: 4
#     Node 7, Type 0, BuildingBlock: CEKHIL_clean_sbu_0, # of connection points: 4
#     Node 8, Type 0, BuildingBlock: CEKHIL_clean_sbu_0, # of connection points: 4
#     Node 9, Type 0, BuildingBlock: CEKHIL_clean_sbu_0, # of connection points: 4
#     Node 10, Type 0, BuildingBlock: CEKHIL_clean_sbu_0, # of connection points: 4
#     Node 11, Type 0, BuildingBlock: CEKHIL_clean_sbu_0, # of connection points: 4
#     Node 12, Type 0, BuildingBlock: CEKHIL_clean_sbu_0, # of connection points: 4
#     Node 13, Type 0, BuildingBlock: CEKHIL_clean_sbu_0, # of connection points: 4
#     Node 14, Type 0, BuildingBlock: CEKHIL_clean_sbu_0, # of connection points: 4
#     Node 15, Type 0, BuildingBlock: CEKHIL_clean_sbu_0, # of connection points: 4
#     Node 16, Type 0, BuildingBlock: CEKHIL_clean_sbu_0, # of connection points: 4
#     Node 17, Type 0, BuildingBlock: CEKHIL_clean_sbu_0, # of connection points: 4
#     Node 18, Type 0, BuildingBlock: CEKHIL_clean_sbu_0, # of connection points: 4
#     Node 19, Type 0, BuildingBlock: CEKHIL_clean_sbu_0, # of connection points: 4
#     Node 20, Type 0, BuildingBlock: CEKHIL_clean_sbu_0, # of connection points: 4
#     Node 21, Type 0, BuildingBlock: CEKHIL_clean_sbu_0, # of connection points: 4
#     Node 22, Type 0, BuildingBlock: CEKHIL_clean_sbu_0, # of connection points: 4
#     Node 23, Type 0, BuildingBlock: CEKHIL_clean_sbu_0, # of connection points: 4
#     Node 24, Type 0, BuildingBlock: CEKHIL_clean_sbu_0, # of connection points: 4
#     Node 25, Type 0, BuildingBlock: CEKHIL_clean_sbu_0, # of connection points: 4
#     Node 26, Type 0, BuildingBlock: CEKHIL_clean_sbu_0, # of connection points: 4
#     Node 27, Type 0, BuildingBlock: CEKHIL_clean_sbu_0, # of connection points: 4
#     Node 28, Type 0, BuildingBlock: CEKHIL_clean_sbu_0, # of connection points: 4
#     Node 29, Type 0, BuildingBlock: CEKHIL_clean_sbu_0, # of connection points: 4
#     Node 30, Type 0, BuildingBlock: CEKHIL_clean_sbu_0, # of connection points: 4
#     Node 31, Type 0, BuildingBlock: CEKHIL_clean_sbu_0, # of connection points: 4
#     Node 32, Type 0, BuildingBlock: CEKHIL_clean_sbu_0, # of connection points: 4
#     Node 33, Type 0, BuildingBlock: CEKHIL_clean_sbu_0, # of connection points: 4
#     Node 34, Type 0, BuildingBlock: CEKHIL_clean_sbu_0, # of connection points: 4
#     Node 35, Type 0, BuildingBlock: CEKHIL_clean_sbu_0, # of connection points: 4
#     Node 36, Type 0, BuildingBlock: CEKHIL_clean_sbu_0, # of connection points: 4
#     Node 37, Type 0, BuildingBlock: CEKHIL_clean_sbu_0, # of connection points: 4
#     Node 38, Type 0, BuildingBlock: CEKHIL_clean_sbu_0, # of connection points: 4
#     Node 39, Type 0, BuildingBlock: CEKHIL_clean_sbu_0, # of connection points: 4
#     Node 40, Type 0, BuildingBlock: CEKHIL_clean_sbu_0, # of connection points: 4
#     Node 41, Type 0, BuildingBlock: CEKHIL_clean_sbu_0, # of connection points: 4
#     Node 42, Type 0, BuildingBlock: CEKHIL_clean_sbu_0, # of connection points: 4
#     Node 43, Type 0, BuildingBlock: CEKHIL_clean_sbu_0, # of connection points: 4
#     Node 44, Type 0, BuildingBlock: CEKHIL_clean_sbu_0, # of connection points: 4
#     Node 45, Type 0, BuildingBlock: CEKHIL_clean_sbu_0, # of connection points: 4
#     Node 46, Type 0, BuildingBlock: CEKHIL_clean_sbu_0, # of connection points: 4
#     Node 47, Type 0, BuildingBlock: CEKHIL_clean_sbu_0, # of connection points: 4
#     Node 48, Type 0, BuildingBlock: CEKHIL_clean_sbu_0, # of connection points: 4
#     Node 49, Type 0, BuildingBlock: CEKHIL_clean_sbu_0, # of connection points: 4
#     Node 50, Type 0, BuildingBlock: CEKHIL_clean_sbu_0, # of connection points: 4
#     Node 51, Type 0, BuildingBlock: CEKHIL_clean_sbu_0, # of connection points: 4
#     Node 52, Type 0, BuildingBlock: CEKHIL_clean_sbu_0, # of connection points: 4
#     Node 53, Type 0, BuildingBlock: CEKHIL_clean_sbu_0, # of connection points: 4
#     Node 54, Type 0, BuildingBlock: CEKHIL_clean_sbu_0, # of connection points: 4
#     Node 55, Type 0, BuildingBlock: CEKHIL_clean_sbu_0, # of connection points: 4
#     Node 56, Type 0, BuildingBlock: CEKHIL_clean_sbu_0, # of connection points: 4
#     Node 57, Type 0, BuildingBlock: CEKHIL_clean_sbu_0, # of connection points: 4
#     Node 58, Type 0, BuildingBlock: CEKHIL_clean_sbu_0, # of connection points: 4
#     Node 59, Type 0, BuildingBlock: CEKHIL_clean_sbu_0, # of connection points: 4
#     Node 60, Type 0, BuildingBlock: CEKHIL_clean_sbu_0, # of connection points: 4
#     Node 61, Type 0, BuildingBlock: CEKHIL_clean_sbu_0, # of connection points: 4
#     Node 62, Type 0, BuildingBlock: CEKHIL_clean_sbu_0, # of connection points: 4
#     Node 63, Type 0, BuildingBlock: CEKHIL_clean_sbu_0, # of connection points: 4
#     Node 64, Type 0, BuildingBlock: CEKHIL_clean_sbu_0, # of connection points: 4
#     Node 65, Type 0, BuildingBlock: CEKHIL_clean_sbu_0, # of connection points: 4
#     Node 66, Type 0, BuildingBlock: CEKHIL_clean_sbu_0, # of connection points: 4
#     Node 67, Type 0, BuildingBlock: CEKHIL_clean_sbu_0, # of connection points: 4
#     Node 68, Type 0, BuildingBlock: CEKHIL_clean_sbu_0, # of connection points: 4
#     Node 69, Type 0, BuildingBlock: CEKHIL_clean_sbu_0, # of connection points: 4
#     Node 70, Type 0, BuildingBlock: CEKHIL_clean_sbu_0, # of connection points: 4
#     Node 71, Type 0, BuildingBlock: CEKHIL_clean_sbu_0, # of connection points: 4
#     Node 72, Type 0, BuildingBlock: CEKHIL_clean_sbu_0, # of connection points: 4
#     Node 73, Type 0, BuildingBlock: CEKHIL_clean_sbu_0, # of connection points: 4
#     Node 74, Type 0, BuildingBlock: CEKHIL_clean_sbu_0, # of connection points: 4
#     Node 75, Type 0, BuildingBlock: CEKHIL_clean_sbu_0, # of connection points: 4
#     Node 76, Type 0, BuildingBlock: CEKHIL_clean_sbu_0, # of connection points: 4
#     Node 77, Type 0, BuildingBlock: CEKHIL_clean_sbu_0, # of connection points: 4
#     Node 78, Type 0, BuildingBlock: CEKHIL_clean_sbu_0, # of connection points: 4
#     Node 79, Type 0, BuildingBlock: CEKHIL_clean_sbu_0, # of connection points: 4
#     Node 80, Type 0, BuildingBlock: CEKHIL_clean_sbu_0, # of connection points: 4
#     Node 81, Type 0, BuildingBlock: CEKHIL_clean_sbu_0, # of connection points: 4
#     Node 82, Type 0, BuildingBlock: CEKHIL_clean_sbu_0, # of connection points: 4
#     Node 83, Type 0, BuildingBlock: CEKHIL_clean_sbu_0, # of connection points: 4
#     Node 84, Type 0, BuildingBlock: CEKHIL_clean_sbu_0, # of connection points: 4
#     Node 85, Type 0, BuildingBlock: CEKHIL_clean_sbu_0, # of connection points: 4
#     Node 86, Type 0, BuildingBlock: CEKHIL_clean_sbu_0, # of connection points: 4
#     Node 87, Type 0, BuildingBlock: CEKHIL_clean_sbu_0, # of connection points: 4
#     Node 88, Type 0, BuildingBlock: CEKHIL_clean_sbu_0, # of connection points: 4
#     Node 89, Type 0, BuildingBlock: CEKHIL_clean_sbu_0, # of connection points: 4
#     Node 90, Type 0, BuildingBlock: CEKHIL_clean_sbu_0, # of connection points: 4
#     Node 91, Type 0, BuildingBlock: CEKHIL_clean_sbu_0, # of connection points: 4
#     Node 92, Type 0, BuildingBlock: CEKHIL_clean_sbu_0, # of connection points: 4
#     Node 93, Type 0, BuildingBlock: CEKHIL_clean_sbu_0, # of connection points: 4
#     Node 94, Type 0, BuildingBlock: CEKHIL_clean_sbu_0, # of connection points: 4
#     Node 95, Type 0, BuildingBlock: CEKHIL_clean_sbu_0, # of connection points: 4
#     Edge 96, Type (0, 0), BuildingBlock: KIFKEQ_clean_linker_1, # of connection points: 2
#     Edge 97, Type (0, 0), BuildingBlock: KIFKEQ_clean_linker_1, # of connection points: 2
#     Edge 98, Type (0, 0), BuildingBlock: KIFKEQ_clean_linker_1, # of connection points: 2
#     Edge 99, Type (0, 0), BuildingBlock: KIFKEQ_clean_linker_1, # of connection points: 2
#     Edge 100, Type (0, 0), BuildingBlock: KIFKEQ_clean_linker_1, # of connection points: 2
#     Edge 101, Type (0, 0), BuildingBlock: KIFKEQ_clean_linker_1, # of connection points: 2
#     Edge 102, Type (0, 0), BuildingBlock: KIFKEQ_clean_linker_1, # of connection points: 2
#     Edge 103, Type (0, 0), BuildingBlock: KIFKEQ_clean_linker_1, # of connection points: 2
#     Edge 104, Type (0, 0), BuildingBlock: KIFKEQ_clean_linker_1, # of connection points: 2
#     Edge 105, Type (0, 0), BuildingBlock: KIFKEQ_clean_linker_1, # of connection points: 2
#     Edge 106, Type (0, 0), BuildingBlock: KIFKEQ_clean_linker_1, # of connection points: 2
#     Edge 107, Type (0, 0), BuildingBlock: KIFKEQ_clean_linker_1, # of connection points: 2
#     Edge 108, Type (0, 0), BuildingBlock: KIFKEQ_clean_linker_1, # of connection points: 2
#     Edge 109, Type (0, 0), BuildingBlock: KIFKEQ_clean_linker_1, # of connection points: 2
#     Edge 110, Type (0, 0), BuildingBlock: KIFKEQ_clean_linker_1, # of connection points: 2
#     Edge 111, Type (0, 0), BuildingBlock: KIFKEQ_clean_linker_1, # of connection points: 2
#     Edge 112, Type (0, 0), BuildingBlock: KIFKEQ_clean_linker_1, # of connection points: 2
#     Edge 113, Type (0, 0), BuildingBlock: KIFKEQ_clean_linker_1, # of connection points: 2
#     Edge 114, Type (0, 0), BuildingBlock: KIFKEQ_clean_linker_1, # of connection points: 2
#     Edge 115, Type (0, 0), BuildingBlock: KIFKEQ_clean_linker_1, # of connection points: 2
#     Edge 116, Type (0, 0), BuildingBlock: KIFKEQ_clean_linker_1, # of connection points: 2
#     Edge 117, Type (0, 0), BuildingBlock: KIFKEQ_clean_linker_1, # of connection points: 2
#     Edge 118, Type (0, 0), BuildingBlock: KIFKEQ_clean_linker_1, # of connection points: 2
#     Edge 119, Type (0, 0), BuildingBlock: KIFKEQ_clean_linker_1, # of connection points: 2
#     Edge 120, Type (0, 0), BuildingBlock: KIFKEQ_clean_linker_1, # of connection points: 2
#     Edge 121, Type (0, 0), BuildingBlock: KIFKEQ_clean_linker_1, # of connection points: 2
#     Edge 122, Type (0, 0), BuildingBlock: KIFKEQ_clean_linker_1, # of connection points: 2
#     Edge 123, Type (0, 0), BuildingBlock: KIFKEQ_clean_linker_1, # of connection points: 2
#     Edge 124, Type (0, 0), BuildingBlock: KIFKEQ_clean_linker_1, # of connection points: 2
#     Edge 125, Type (0, 0), BuildingBlock: KIFKEQ_clean_linker_1, # of connection points: 2
#     Edge 126, Type (0, 0), BuildingBlock: KIFKEQ_clean_linker_1, # of connection points: 2
#     Edge 127, Type (0, 0), BuildingBlock: KIFKEQ_clean_linker_1, # of connection points: 2
#     Edge 128, Type (0, 0), BuildingBlock: KIFKEQ_clean_linker_1, # of connection points: 2
#     Edge 129, Type (0, 0), BuildingBlock: KIFKEQ_clean_linker_1, # of connection points: 2
#     Edge 130, Type (0, 0), BuildingBlock: KIFKEQ_clean_linker_1, # of connection points: 2
#     Edge 131, Type (0, 0), BuildingBlock: KIFKEQ_clean_linker_1, # of connection points: 2
#     Edge 132, Type (0, 0), BuildingBlock: KIFKEQ_clean_linker_1, # of connection points: 2
#     Edge 133, Type (0, 0), BuildingBlock: KIFKEQ_clean_linker_1, # of connection points: 2
#     Edge 134, Type (0, 0), BuildingBlock: KIFKEQ_clean_linker_1, # of connection points: 2
#     Edge 135, Type (0, 0), BuildingBlock: KIFKEQ_clean_linker_1, # of connection points: 2
#     Edge 136, Type (0, 0), BuildingBlock: KIFKEQ_clean_linker_1, # of connection points: 2
#     Edge 137, Type (0, 0), BuildingBlock: KIFKEQ_clean_linker_1, # of connection points: 2
#     Edge 138, Type (0, 0), BuildingBlock: KIFKEQ_clean_linker_1, # of connection points: 2
#     Edge 139, Type (0, 0), BuildingBlock: KIFKEQ_clean_linker_1, # of connection points: 2
#     Edge 140, Type (0, 0), BuildingBlock: KIFKEQ_clean_linker_1, # of connection points: 2
#     Edge 141, Type (0, 0), BuildingBlock: KIFKEQ_clean_linker_1, # of connection points: 2
#     Edge 142, Type (0, 0), BuildingBlock: KIFKEQ_clean_linker_1, # of connection points: 2
#     Edge 143, Type (0, 0), BuildingBlock: KIFKEQ_clean_linker_1, # of connection points: 2
#     Edge 144, Type (0, 0), BuildingBlock: KIFKEQ_clean_linker_1, # of connection points: 2
#     Edge 145, Type (0, 0), BuildingBlock: KIFKEQ_clean_linker_1, # of connection points: 2
#     Edge 146, Type (0, 0), BuildingBlock: KIFKEQ_clean_linker_1, # of connection points: 2
#     Edge 147, Type (0, 0), BuildingBlock: KIFKEQ_clean_linker_1, # of connection points: 2
#     Edge 148, Type (0, 0), BuildingBlock: KIFKEQ_clean_linker_1, # of connection points: 2
#     Edge 149, Type (0, 0), BuildingBlock: KIFKEQ_clean_linker_1, # of connection points: 2
#     Edge 150, Type (0, 0), BuildingBlock: KIFKEQ_clean_linker_1, # of connection points: 2
#     Edge 151, Type (0, 0), BuildingBlock: KIFKEQ_clean_linker_1, # of connection points: 2
#     Edge 152, Type (0, 0), BuildingBlock: KIFKEQ_clean_linker_1, # of connection points: 2
#     Edge 153, Type (0, 0), BuildingBlock: KIFKEQ_clean_linker_1, # of connection points: 2
#     Edge 154, Type (0, 0), BuildingBlock: KIFKEQ_clean_linker_1, # of connection points: 2
#     Edge 155, Type (0, 0), BuildingBlock: KIFKEQ_clean_linker_1, # of connection points: 2
#     Edge 156, Type (0, 0), BuildingBlock: KIFKEQ_clean_linker_1, # of connection points: 2
#     Edge 157, Type (0, 0), BuildingBlock: KIFKEQ_clean_linker_1, # of connection points: 2
#     Edge 158, Type (0, 0), BuildingBlock: KIFKEQ_clean_linker_1, # of connection points: 2
#     Edge 159, Type (0, 0), BuildingBlock: KIFKEQ_clean_linker_1, # of connection points: 2
#     Edge 160, Type (0, 0), BuildingBlock: KIFKEQ_clean_linker_1, # of connection points: 2
#     Edge 161, Type (0, 0), BuildingBlock: KIFKEQ_clean_linker_1, # of connection points: 2
#     Edge 162, Type (0, 0), BuildingBlock: KIFKEQ_clean_linker_1, # of connection points: 2
#     Edge 163, Type (0, 0), BuildingBlock: KIFKEQ_clean_linker_1, # of connection points: 2
#     Edge 164, Type (0, 0), BuildingBlock: KIFKEQ_clean_linker_1, # of connection points: 2
#     Edge 165, Type (0, 0), BuildingBlock: KIFKEQ_clean_linker_1, # of connection points: 2
#     Edge 166, Type (0, 0), BuildingBlock: KIFKEQ_clean_linker_1, # of connection points: 2
#     Edge 167, Type (0, 0), BuildingBlock: KIFKEQ_clean_linker_1, # of connection points: 2
#     Edge 168, Type (0, 0), BuildingBlock: KIFKEQ_clean_linker_1, # of connection points: 2
#     Edge 169, Type (0, 0), BuildingBlock: KIFKEQ_clean_linker_1, # of connection points: 2
#     Edge 170, Type (0, 0), BuildingBlock: KIFKEQ_clean_linker_1, # of connection points: 2
#     Edge 171, Type (0, 0), BuildingBlock: KIFKEQ_clean_linker_1, # of connection points: 2
#     Edge 172, Type (0, 0), BuildingBlock: KIFKEQ_clean_linker_1, # of connection points: 2
#     Edge 173, Type (0, 0), BuildingBlock: KIFKEQ_clean_linker_1, # of connection points: 2
#     Edge 174, Type (0, 0), BuildingBlock: KIFKEQ_clean_linker_1, # of connection points: 2
#     Edge 175, Type (0, 0), BuildingBlock: KIFKEQ_clean_linker_1, # of connection points: 2
#     Edge 176, Type (0, 0), BuildingBlock: KIFKEQ_clean_linker_1, # of connection points: 2
#     Edge 177, Type (0, 0), BuildingBlock: KIFKEQ_clean_linker_1, # of connection points: 2
#     Edge 178, Type (0, 0), BuildingBlock: KIFKEQ_clean_linker_1, # of connection points: 2
#     Edge 179, Type (0, 0), BuildingBlock: KIFKEQ_clean_linker_1, # of connection points: 2
#     Edge 180, Type (0, 0), BuildingBlock: KIFKEQ_clean_linker_1, # of connection points: 2
#     Edge 181, Type (0, 0), BuildingBlock: KIFKEQ_clean_linker_1, # of connection points: 2
#     Edge 182, Type (0, 0), BuildingBlock: KIFKEQ_clean_linker_1, # of connection points: 2
#     Edge 183, Type (0, 0), BuildingBlock: KIFKEQ_clean_linker_1, # of connection points: 2
#     Edge 184, Type (0, 0), BuildingBlock: KIFKEQ_clean_linker_1, # of connection points: 2
#     Edge 185, Type (0, 0), BuildingBlock: KIFKEQ_clean_linker_1, # of connection points: 2
#     Edge 186, Type (0, 0), BuildingBlock: KIFKEQ_clean_linker_1, # of connection points: 2
#     Edge 187, Type (0, 0), BuildingBlock: KIFKEQ_clean_linker_1, # of connection points: 2
#     Edge 188, Type (0, 0), BuildingBlock: KIFKEQ_clean_linker_1, # of connection points: 2
#     Edge 189, Type (0, 0), BuildingBlock: KIFKEQ_clean_linker_1, # of connection points: 2
#     Edge 190, Type (0, 0), BuildingBlock: KIFKEQ_clean_linker_1, # of connection points: 2
#     Edge 191, Type (0, 0), BuildingBlock: KIFKEQ_clean_linker_1, # of connection points: 2
#     Edge 192, Type (0, 0), BuildingBlock: KIFKEQ_clean_linker_1, # of connection points: 2
#     Edge 193, Type (0, 0), BuildingBlock: KIFKEQ_clean_linker_1, # of connection points: 2
#     Edge 194, Type (0, 0), BuildingBlock: KIFKEQ_clean_linker_1, # of connection points: 2
#     Edge 195, Type (0, 0), BuildingBlock: KIFKEQ_clean_linker_1, # of connection points: 2
#     Edge 196, Type (0, 0), BuildingBlock: KIFKEQ_clean_linker_1, # of connection points: 2
#     Edge 197, Type (0, 0), BuildingBlock: KIFKEQ_clean_linker_1, # of connection points: 2
#     Edge 198, Type (0, 0), BuildingBlock: KIFKEQ_clean_linker_1, # of connection points: 2
#     Edge 199, Type (0, 0), BuildingBlock: KIFKEQ_clean_linker_1, # of connection points: 2
#     Edge 200, Type (0, 0), BuildingBlock: KIFKEQ_clean_linker_1, # of connection points: 2
#     Edge 201, Type (0, 0), BuildingBlock: KIFKEQ_clean_linker_1, # of connection points: 2
#     Edge 202, Type (0, 0), BuildingBlock: KIFKEQ_clean_linker_1, # of connection points: 2
#     Edge 203, Type (0, 0), BuildingBlock: KIFKEQ_clean_linker_1, # of connection points: 2
#     Edge 204, Type (0, 0), BuildingBlock: KIFKEQ_clean_linker_1, # of connection points: 2
#     Edge 205, Type (0, 0), BuildingBlock: KIFKEQ_clean_linker_1, # of connection points: 2
#     Edge 206, Type (0, 0), BuildingBlock: KIFKEQ_clean_linker_1, # of connection points: 2
#     Edge 207, Type (0, 0), BuildingBlock: KIFKEQ_clean_linker_1, # of connection points: 2
#     Edge 208, Type (0, 0), BuildingBlock: KIFKEQ_clean_linker_1, # of connection points: 2
#     Edge 209, Type (0, 0), BuildingBlock: KIFKEQ_clean_linker_1, # of connection points: 2
#     Edge 210, Type (0, 0), BuildingBlock: KIFKEQ_clean_linker_1, # of connection points: 2
#     Edge 211, Type (0, 0), BuildingBlock: KIFKEQ_clean_linker_1, # of connection points: 2
#     Edge 212, Type (0, 0), BuildingBlock: KIFKEQ_clean_linker_1, # of connection points: 2
#     Edge 213, Type (0, 0), BuildingBlock: KIFKEQ_clean_linker_1, # of connection points: 2
#     Edge 214, Type (0, 0), BuildingBlock: KIFKEQ_clean_linker_1, # of connection points: 2
#     Edge 215, Type (0, 0), BuildingBlock: KIFKEQ_clean_linker_1, # of connection points: 2
#     Edge 216, Type (0, 0), BuildingBlock: KIFKEQ_clean_linker_1, # of connection points: 2
#     Edge 217, Type (0, 0), BuildingBlock: KIFKEQ_clean_linker_1, # of connection points: 2
#     Edge 218, Type (0, 0), BuildingBlock: KIFKEQ_clean_linker_1, # of connection points: 2
#     Edge 219, Type (0, 0), BuildingBlock: KIFKEQ_clean_linker_1, # of connection points: 2
#     Edge 220, Type (0, 0), BuildingBlock: KIFKEQ_clean_linker_1, # of connection points: 2
#     Edge 221, Type (0, 0), BuildingBlock: KIFKEQ_clean_linker_1, # of connection points: 2
#     Edge 222, Type (0, 0), BuildingBlock: KIFKEQ_clean_linker_1, # of connection points: 2
#     Edge 223, Type (0, 0), BuildingBlock: KIFKEQ_clean_linker_1, # of connection points: 2
#     Edge 224, Type (0, 0), BuildingBlock: KIFKEQ_clean_linker_1, # of connection points: 2
#     Edge 225, Type (0, 0), BuildingBlock: KIFKEQ_clean_linker_1, # of connection points: 2
#     Edge 226, Type (0, 0), BuildingBlock: KIFKEQ_clean_linker_1, # of connection points: 2
#     Edge 227, Type (0, 0), BuildingBlock: KIFKEQ_clean_linker_1, # of connection points: 2
#     Edge 228, Type (0, 0), BuildingBlock: KIFKEQ_clean_linker_1, # of connection points: 2
#     Edge 229, Type (0, 0), BuildingBlock: KIFKEQ_clean_linker_1, # of connection points: 2
#     Edge 230, Type (0, 0), BuildingBlock: KIFKEQ_clean_linker_1, # of connection points: 2
#     Edge 231, Type (0, 0), BuildingBlock: KIFKEQ_clean_linker_1, # of connection points: 2
#     Edge 232, Type (0, 0), BuildingBlock: KIFKEQ_clean_linker_1, # of connection points: 2
#     Edge 233, Type (0, 0), BuildingBlock: KIFKEQ_clean_linker_1, # of connection points: 2
#     Edge 234, Type (0, 0), BuildingBlock: KIFKEQ_clean_linker_1, # of connection points: 2
#     Edge 235, Type (0, 0), BuildingBlock: KIFKEQ_clean_linker_1, # of connection points: 2
#     Edge 236, Type (0, 0), BuildingBlock: KIFKEQ_clean_linker_1, # of connection points: 2
#     Edge 237, Type (0, 0), BuildingBlock: KIFKEQ_clean_linker_1, # of connection points: 2
#     Edge 238, Type (0, 0), BuildingBlock: KIFKEQ_clean_linker_1, # of connection points: 2
#     Edge 239, Type (0, 0), BuildingBlock: KIFKEQ_clean_linker_1, # of connection points: 2
#     Edge 240, Type (0, 0), BuildingBlock: KIFKEQ_clean_linker_1, # of connection points: 2
#     Edge 241, Type (0, 0), BuildingBlock: KIFKEQ_clean_linker_1, # of connection points: 2
#     Edge 242, Type (0, 0), BuildingBlock: KIFKEQ_clean_linker_1, # of connection points: 2
#     Edge 243, Type (0, 0), BuildingBlock: KIFKEQ_clean_linker_1, # of connection points: 2
#     Edge 244, Type (0, 0), BuildingBlock: KIFKEQ_clean_linker_1, # of connection points: 2
#     Edge 245, Type (0, 0), BuildingBlock: KIFKEQ_clean_linker_1, # of connection points: 2
#     Edge 246, Type (0, 0), BuildingBlock: KIFKEQ_clean_linker_1, # of connection points: 2
#     Edge 247, Type (0, 0), BuildingBlock: KIFKEQ_clean_linker_1, # of connection points: 2
#     Edge 248, Type (0, 0), BuildingBlock: KIFKEQ_clean_linker_1, # of connection points: 2
#     Edge 249, Type (0, 0), BuildingBlock: KIFKEQ_clean_linker_1, # of connection points: 2
#     Edge 250, Type (0, 0), BuildingBlock: KIFKEQ_clean_linker_1, # of connection points: 2
#     Edge 251, Type (0, 0), BuildingBlock: KIFKEQ_clean_linker_1, # of connection points: 2
#     Edge 252, Type (0, 0), BuildingBlock: KIFKEQ_clean_linker_1, # of connection points: 2
#     Edge 253, Type (0, 0), BuildingBlock: KIFKEQ_clean_linker_1, # of connection points: 2
#     Edge 254, Type (0, 0), BuildingBlock: KIFKEQ_clean_linker_1, # of connection points: 2
#     Edge 255, Type (0, 0), BuildingBlock: KIFKEQ_clean_linker_1, # of connection points: 2
#     Edge 256, Type (0, 0), BuildingBlock: KIFKEQ_clean_linker_1, # of connection points: 2
#     Edge 257, Type (0, 0), BuildingBlock: KIFKEQ_clean_linker_1, # of connection points: 2
#     Edge 258, Type (0, 0), BuildingBlock: KIFKEQ_clean_linker_1, # of connection points: 2
#     Edge 259, Type (0, 0), BuildingBlock: KIFKEQ_clean_linker_1, # of connection points: 2
#     Edge 260, Type (0, 0), BuildingBlock: KIFKEQ_clean_linker_1, # of connection points: 2
#     Edge 261, Type (0, 0), BuildingBlock: KIFKEQ_clean_linker_1, # of connection points: 2
#     Edge 262, Type (0, 0), BuildingBlock: KIFKEQ_clean_linker_1, # of connection points: 2
#     Edge 263, Type (0, 0), BuildingBlock: KIFKEQ_clean_linker_1, # of connection points: 2
#     Edge 264, Type (0, 0), BuildingBlock: KIFKEQ_clean_linker_1, # of connection points: 2
#     Edge 265, Type (0, 0), BuildingBlock: KIFKEQ_clean_linker_1, # of connection points: 2
#     Edge 266, Type (0, 0), BuildingBlock: KIFKEQ_clean_linker_1, # of connection points: 2
#     Edge 267, Type (0, 0), BuildingBlock: KIFKEQ_clean_linker_1, # of connection points: 2
#     Edge 268, Type (0, 0), BuildingBlock: KIFKEQ_clean_linker_1, # of connection points: 2
#     Edge 269, Type (0, 0), BuildingBlock: KIFKEQ_clean_linker_1, # of connection points: 2
#     Edge 270, Type (0, 0), BuildingBlock: KIFKEQ_clean_linker_1, # of connection points: 2
#     Edge 271, Type (0, 0), BuildingBlock: KIFKEQ_clean_linker_1, # of connection points: 2
#     Edge 272, Type (0, 0), BuildingBlock: KIFKEQ_clean_linker_1, # of connection points: 2
#     Edge 273, Type (0, 0), BuildingBlock: KIFKEQ_clean_linker_1, # of connection points: 2
#     Edge 274, Type (0, 0), BuildingBlock: KIFKEQ_clean_linker_1, # of connection points: 2
#     Edge 275, Type (0, 0), BuildingBlock: KIFKEQ_clean_linker_1, # of connection points: 2
#     Edge 276, Type (0, 0), BuildingBlock: KIFKEQ_clean_linker_1, # of connection points: 2
#     Edge 277, Type (0, 0), BuildingBlock: KIFKEQ_clean_linker_1, # of connection points: 2
#     Edge 278, Type (0, 0), BuildingBlock: KIFKEQ_clean_linker_1, # of connection points: 2
#     Edge 279, Type (0, 0), BuildingBlock: KIFKEQ_clean_linker_1, # of connection points: 2
#     Edge 280, Type (0, 0), BuildingBlock: KIFKEQ_clean_linker_1, # of connection points: 2
#     Edge 281, Type (0, 0), BuildingBlock: KIFKEQ_clean_linker_1, # of connection points: 2
#     Edge 282, Type (0, 0), BuildingBlock: KIFKEQ_clean_linker_1, # of connection points: 2
#     Edge 283, Type (0, 0), BuildingBlock: KIFKEQ_clean_linker_1, # of connection points: 2
#     Edge 284, Type (0, 0), BuildingBlock: KIFKEQ_clean_linker_1, # of connection points: 2
#     Edge 285, Type (0, 0), BuildingBlock: KIFKEQ_clean_linker_1, # of connection points: 2
#     Edge 286, Type (0, 0), BuildingBlock: KIFKEQ_clean_linker_1, # of connection points: 2
#     Edge 287, Type (0, 0), BuildingBlock: KIFKEQ_clean_linker_1, # of connection points: 2
# Relax obj value: 0.163
# Max RMSD: 0.098
# Mean RMSD: 0.098
data_MOF--net-kfi--node1-CEKHIL_clean_sbu_0--edge1-KIFKEQ_clean_linker_1
_symmetry_space_group_name_H-M    P1
_symmetry_Int_Tables_number       1
_symmetry_cell_setting            triclinic
loop_
_symmetry_equiv_pos_as_xyz
'x, y, z'
_cell_length_a     89.142502
_cell_length_b     89.152233
_cell_length_c     89.125614
_cell_angle_alpha  89.991847
_cell_angle_beta   89.978065
_cell_angle_gamma 90.010097
loop_
_atom_site_label
_atom_site_type_symbol
_atom_site_fract_x
_atom_site_fract_y
_atom_site_fract_z
_atom_type_partial_charge
Co0 Co 0.08539 0.20117 0.32296 0.0
O1 O 0.06732 0.19056 0.31751 0.0
O2 O 0.06821 0.2099 0.33302 0.0
C3 C 0.09991 0.18062 0.32693 0.0
O4 O 0.10178 0.21459 0.3318 0.0
Co5 Co 0.11459 0.19827 0.30395 0.0
O6 O 0.12389 0.20926 0.32088 0.0
C7 C 0.08918 0.2161 0.29248 0.0
C8 C 0.06017 0.19985 0.32616 0.0
C9 C 0.11613 0.21613 0.33075 0.0
O10 O 0.08258 0.21536 0.30534 0.0
O11 O 0.10118 0.20884 0.28941 0.0
O12 O 0.09078 0.18519 0.33736 0.0
O13 O 0.09887 0.18765 0.31436 0.0
Co14 Co 0.80657 0.08381 0.323 0.0
O15 O 0.81642 0.06551 0.31716 0.0
O16 O 0.79819 0.06695 0.33395 0.0
C17 C 0.82768 0.09783 0.32548 0.0
O18 O 0.79401 0.10067 0.33212 0.0
Co19 Co 0.80919 0.11224 0.30289 0.0
O20 O 0.79863 0.1222 0.31981 0.0
C21 C 0.79067 0.08669 0.29311 0.0
C22 C 0.80755 0.05862 0.32644 0.0
C23 C 0.79234 0.11493 0.33042 0.0
O24 O 0.79136 0.08094 0.30635 0.0
O25 O 0.79835 0.09814 0.28907 0.0
O26 O 0.82332 0.0892 0.33642 0.0
O27 O 0.81999 0.09666 0.31331 0.0
Co28 Co 0.92182 0.80467 0.32476 0.0
O29 O 0.93987 0.81514 0.31922 0.0
O30 O 0.93879 0.79664 0.33575 0.0
C31 C 0.90687 0.82509 0.32753 0.0
O32 O 0.90525 0.79152 0.33353 0.0
Co33 Co 0.89394 0.80658 0.30373 0.0
O34 O 0.88437 0.79407 0.31949 0.0
C35 C 0.92026 0.7892 0.29449 0.0
C36 C 0.94691 0.80632 0.32843 0.0
C37 C 0.8914 0.78853 0.33066 0.0
O38 O 0.92537 0.78969 0.30799 0.0
O39 O 0.90891 0.79679 0.29009 0.0
O40 O 0.91583 0.8211 0.33833 0.0
O41 O 0.90852 0.81772 0.3152 0.0
Co42 Co 0.20027 0.9215 0.32358 0.0
O43 O 0.19145 0.93973 0.31591 0.0
O44 O 0.20867 0.93876 0.33375 0.0
C45 C 0.17855 0.90835 0.32599 0.0
O46 O 0.21176 0.90508 0.33473 0.0
Co47 Co 0.19745 0.89101 0.30658 0.0
O48 O 0.20575 0.88248 0.32532 0.0
C49 C 0.2192 0.91397 0.29615 0.0
C50 C 0.19997 0.94688 0.32532 0.0
C51 C 0.21238 0.89064 0.335 0.0
O52 O 0.2165 0.92243 0.30759 0.0
O53 O 0.21193 0.90189 0.2934 0.0
O54 O 0.18252 0.9178 0.33637 0.0
O55 O 0.18698 0.90824 0.31427 0.0
Co56 Co 0.0843 0.80381 0.68414 0.0
O57 O 0.0665 0.81375 0.69156 0.0
O58 O 0.06664 0.79559 0.67464 0.0
C59 C 0.09829 0.8248 0.68047 0.0
O60 O 0.09991 0.79107 0.67327 0.0
Co61 Co 0.11524 0.8057 0.70018 0.0
O62 O 0.1231 0.79679 0.68135 0.0
C63 C 0.09084 0.78708 0.71306 0.0
C64 C 0.05894 0.80501 0.68267 0.0
C65 C 0.11429 0.79009 0.67231 0.0
O66 O 0.08293 0.7886 0.70103 0.0
O67 O 0.10324 0.79403 0.7152 0.0
O68 O 0.0885 0.82072 0.67044 0.0
O69 O 0.09835 0.81688 0.69256 0.0
Co70 Co 0.20097 0.08399 0.68297 0.0
O71 O 0.19075 0.06595 0.68907 0.0
O72 O 0.20889 0.06685 0.67215 0.0
C73 C 0.1803 0.09862 0.68038 0.0
O74 O 0.21384 0.10051 0.67359 0.0
Co75 Co 0.19921 0.11257 0.70306 0.0
O76 O 0.20979 0.12215 0.68595 0.0
C77 C 0.21693 0.08657 0.71284 0.0
C78 C 0.1994 0.0588 0.67979 0.0
C79 C 0.2158 0.11474 0.67528 0.0
O80 O 0.21623 0.08094 0.69955 0.0
O81 O 0.20947 0.09813 0.71692 0.0
O82 O 0.18418 0.08954 0.66964 0.0
O83 O 0.188 0.09736 0.69253 0.0
Co84 Co 0.9205 0.20115 0.68314 0.0
O85 O 0.93846 0.19066 0.68911 0.0
O86 O 0.93783 0.20989 0.67341 0.0
C87 C 0.90663 0.1802 0.67918 0.0
O88 O 0.90451 0.21451 0.67371 0.0
Co89 Co 0.8903 0.19836 0.70024 0.0
O90 O 0.88163 0.2084 0.68234 0.0
C91 C 0.91509 0.21664 0.71294 0.0
C92 C 0.94574 0.19988 0.68048 0.0
C93 C 0.89011 0.21561 0.67338 0.0
O94 O 0.92269 0.21541 0.70069 0.0
O95 O 0.9027 0.20971 0.71521 0.0
O96 O 0.91561 0.18507 0.66874 0.0
O97 O 0.90697 0.18756 0.6916 0.0
Co98 Co 0.80518 0.9213 0.68306 0.0
O99 O 0.81577 0.93947 0.68805 0.0
O100 O 0.79682 0.93807 0.67206 0.0
C101 C 0.82566 0.90648 0.68015 0.0
O102 O 0.79197 0.90463 0.67461 0.0
Co103 Co 0.80739 0.89325 0.70377 0.0
O104 O 0.79652 0.8832 0.68712 0.0
C105 C 0.78983 0.91942 0.71342 0.0
C106 C 0.80676 0.9463 0.67887 0.0
C107 C 0.79017 0.89042 0.67652 0.0
O108 O 0.79048 0.92492 0.70007 0.0
O109 O 0.79723 0.90783 0.71755 0.0
O110 O 0.82143 0.91526 0.66928 0.0
O111 O 0.8184 0.90814 0.69254 0.0
Co112 Co 0.32467 0.08352 0.20203 0.0
O113 O 0.31959 0.06541 0.19139 0.0
O114 O 0.33534 0.06663 0.21055 0.0
C115 C 0.32801 0.09829 0.18159 0.0
O116 O 0.33314 0.10007 0.21537 0.0
Co117 Co 0.30439 0.11185 0.19955 0.0
O118 O 0.32095 0.12167 0.21076 0.0
C119 C 0.29416 0.08579 0.21697 0.0
C120 C 0.32855 0.05847 0.20054 0.0
C121 C 0.33136 0.11429 0.21724 0.0
O122 O 0.30744 0.08012 0.21651 0.0
O123 O 0.29029 0.09742 0.20951 0.0
O124 O 0.33872 0.08939 0.18595 0.0
O125 O 0.31552 0.09679 0.1887 0.0
Co126 Co 0.91963 0.32425 0.19992 0.0
O127 O 0.93776 0.31777 0.19004 0.0
O128 O 0.93686 0.33424 0.2086 0.0
C129 C 0.9061 0.32774 0.17867 0.0
O130 O 0.9034 0.33407 0.21272 0.0
Co131 Co 0.88945 0.30706 0.19698 0.0
O132 O 0.88064 0.32511 0.20661 0.0
C133 C 0.91391 0.29484 0.216 0.0
C134 C 0.94492 0.32668 0.19908 0.0
C135 C 0.88899 0.3343 0.21368 0.0
O136 O 0.92147 0.30711 0.21473 0.0
O137 O 0.90171 0.29236 0.20881 0.0
O138 O 0.91509 0.33822 0.18336 0.0
O139 O 0.90631 0.31549 0.18632 0.0
Co140 Co 0.68199 0.9213 0.20153 0.0
O141 O 0.68736 0.93936 0.19093 0.0
O142 O 0.67117 0.93828 0.20974 0.0
C143 C 0.67916 0.90644 0.18104 0.0
O144 O 0.67324 0.90476 0.21478 0.0
Co145 Co 0.70248 0.89306 0.1996 0.0
O146 O 0.68578 0.88325 0.21061 0.0
C147 C 0.71221 0.91926 0.21705 0.0
C148 C 0.67826 0.94638 0.19987 0.0
C149 C 0.67514 0.89057 0.21681 0.0
O150 O 0.69888 0.92478 0.21637 0.0
O151 O 0.71632 0.90765 0.20969 0.0
O152 O 0.66834 0.91534 0.18513 0.0
O153 O 0.69146 0.90798 0.18845 0.0
Co154 Co 0.08385 0.68241 0.20129 0.0
O155 O 0.06551 0.68804 0.1914 0.0
O156 O 0.06712 0.67115 0.20951 0.0
C157 C 0.09797 0.68034 0.18019 0.0
O158 O 0.10078 0.67345 0.21384 0.0
Co159 Co 0.11195 0.70298 0.199 0.0
O160 O 0.12214 0.68616 0.20951 0.0
C161 C 0.08611 0.71223 0.21736 0.0
C162 C 0.05873 0.67862 0.20018 0.0
C163 C 0.11499 0.67537 0.21564 0.0
O164 O 0.08063 0.69889 0.21661 0.0
O165 O 0.09753 0.71652 0.20978 0.0
O166 O 0.08951 0.66922 0.18444 0.0
O167 O 0.0966 0.69242 0.188 0.0
Co168 Co 0.32148 0.92245 0.80563 0.0
O169 O 0.3157 0.94074 0.81548 0.0
O170 O 0.33229 0.93927 0.79704 0.0
C171 C 0.32435 0.90855 0.82671 0.0
O172 O 0.33054 0.90558 0.79311 0.0
Co173 Co 0.30153 0.89395 0.80862 0.0
O174 O 0.31855 0.88397 0.79823 0.0
C175 C 0.29144 0.91935 0.79008 0.0
C176 C 0.32489 0.94759 0.80649 0.0
C177 C 0.32902 0.89127 0.79174 0.0
O178 O 0.30465 0.92517 0.79061 0.0
O179 O 0.28754 0.9079 0.79783 0.0
O180 O 0.33516 0.91724 0.82219 0.0
O181 O 0.31203 0.90962 0.81923 0.0
Co182 Co 0.08777 0.3228 0.80569 0.0
O183 O 0.06973 0.31645 0.81583 0.0
O184 O 0.07046 0.33284 0.7972 0.0
C185 C 0.10191 0.32648 0.82655 0.0
O186 O 0.10409 0.33244 0.79273 0.0
Co187 Co 0.11742 0.30448 0.80845 0.0
O188 O 0.1264 0.32188 0.79794 0.0
C189 C 0.09241 0.29287 0.79006 0.0
C190 C 0.06248 0.32533 0.80684 0.0
C191 C 0.11847 0.33173 0.79126 0.0
O192 O 0.08555 0.30557 0.79095 0.0
O193 O 0.10439 0.28992 0.79742 0.0
O194 O 0.09259 0.33682 0.82217 0.0
O195 O 0.10127 0.31411 0.81912 0.0
Co196 Co 0.68456 0.08572 0.80557 0.0
O197 O 0.69064 0.06738 0.81527 0.0
O198 O 0.67418 0.06872 0.79676 0.0
C199 C 0.68135 0.09923 0.8269 0.0
O200 O 0.67515 0.10248 0.79305 0.0
Co201 Co 0.70327 0.11499 0.80903 0.0
O202 O 0.68603 0.12452 0.79869 0.0
C203 C 0.71437 0.09036 0.78975 0.0
C204 C 0.68164 0.06043 0.80618 0.0
C205 C 0.67607 0.11687 0.79186 0.0
O206 O 0.70164 0.08355 0.7907 0.0
O207 O 0.71752 0.10215 0.79732 0.0
O208 O 0.67068 0.09047 0.82217 0.0
O209 O 0.69364 0.09861 0.81936 0.0
Co210 Co 0.92222 0.68177 0.80703 0.0
O211 O 0.94061 0.68674 0.81716 0.0
O212 O 0.93874 0.67042 0.79854 0.0
C213 C 0.90787 0.67928 0.82788 0.0
O214 O 0.90519 0.6735 0.79418 0.0
Co215 Co 0.89464 0.70302 0.80981 0.0
O216 O 0.88442 0.6875 0.79751 0.0
C217 C 0.92078 0.71216 0.79195 0.0
C218 C 0.94723 0.67742 0.80814 0.0
C219 C 0.89126 0.67639 0.79164 0.0
O220 O 0.92581 0.69862 0.79219 0.0
O221 O 0.90958 0.71654 0.79979 0.0
O222 O 0.91622 0.66817 0.82341 0.0
O223 O 0.90958 0.69159 0.82053 0.0
Co224 Co 0.20123 0.32262 0.08602 0.0
O225 O 0.19106 0.31645 0.06798 0.0
O226 O 0.20925 0.33331 0.06888 0.0
C227 C 0.18054 0.32539 0.1006 0.0
O228 O 0.21408 0.33208 0.10245 0.0
Co229 Co 0.19944 0.30281 0.11477 0.0
O230 O 0.21019 0.31989 0.12422 0.0
C231 C 0.2172 0.29278 0.08886 0.0
C232 C 0.19979 0.32566 0.06083 0.0
C233 C 0.21616 0.33049 0.11668 0.0
O234 O 0.21646 0.306 0.0831 0.0
O235 O 0.20975 0.2888 0.10048 0.0
O236 O 0.18449 0.33604 0.09144 0.0
O237 O 0.1882 0.31319 0.09946 0.0
Co238 Co 0.20101 0.68283 0.92173 0.0
O239 O 0.19032 0.68973 0.93933 0.0
O240 O 0.20912 0.67354 0.93957 0.0
C241 C 0.18054 0.67877 0.90708 0.0
O242 O 0.21448 0.67252 0.90632 0.0
Co243 Co 0.19955 0.69937 0.89099 0.0
O244 O 0.20914 0.68089 0.88313 0.0
C245 C 0.21729 0.71219 0.91596 0.0
C246 C 0.19926 0.68121 0.94708 0.0
C247 C 0.21584 0.67186 0.89195 0.0
O248 O 0.21575 0.70005 0.92367 0.0
O249 O 0.21062 0.71445 0.90344 0.0
O250 O 0.18457 0.66874 0.91691 0.0
O251 O 0.18812 0.69105 0.9074 0.0
Co252 Co 0.32458 0.20016 0.92338 0.0
O253 O 0.31849 0.18999 0.94144 0.0
O254 O 0.33531 0.20824 0.94047 0.0
C255 C 0.32734 0.17949 0.90881 0.0
O256 O 0.33393 0.21299 0.90686 0.0
Co257 Co 0.3046 0.19818 0.89474 0.0
O258 O 0.32172 0.20874 0.88517 0.0
C259 C 0.29463 0.21596 0.92064 0.0
C260 C 0.3277 0.19875 0.94855 0.0
C261 C 0.33232 0.21484 0.8926 0.0
O262 O 0.3079 0.21534 0.92632 0.0
O263 O 0.29064 0.20843 0.90909 0.0
O264 O 0.33803 0.18345 0.91791 0.0
O265 O 0.31513 0.18711 0.91004 0.0
Co266 Co 0.80823 0.3228 0.9222 0.0
O267 O 0.81744 0.31639 0.94069 0.0
O268 O 0.79911 0.33303 0.93909 0.0
C269 C 0.82989 0.32597 0.90917 0.0
O270 O 0.79615 0.33255 0.90533 0.0
Co271 Co 0.81212 0.30452 0.89272 0.0
O272 O 0.80203 0.32193 0.88323 0.0
C273 C 0.79214 0.29325 0.91674 0.0
C274 C 0.80824 0.32538 0.94752 0.0
C275 C 0.79516 0.33184 0.89092 0.0
O276 O 0.79314 0.30583 0.92382 0.0
O277 O 0.79991 0.29022 0.90503 0.0
O278 O 0.82506 0.33657 0.91797 0.0
O279 O 0.82222 0.31375 0.90946 0.0
Co280 Co 0.68167 0.80534 0.92078 0.0
O281 O 0.68846 0.81598 0.93844 0.0
O282 O 0.67233 0.79712 0.93855 0.0
C283 C 0.67764 0.82589 0.90621 0.0
O284 O 0.67147 0.79186 0.90533 0.0
Co285 Co 0.69824 0.80693 0.89008 0.0
O286 O 0.67992 0.79709 0.88214 0.0
C287 C 0.71107 0.78913 0.91503 0.0
C288 C 0.67993 0.80698 0.94612 0.0
C289 C 0.6709 0.79037 0.89097 0.0
O290 O 0.69893 0.79065 0.92275 0.0
O291 O 0.71331 0.79582 0.90251 0.0
O292 O 0.66757 0.82177 0.91596 0.0
O293 O 0.68992 0.8183 0.90652 0.0
Co294 Co 0.80678 0.68209 0.08433 0.0
O295 O 0.81731 0.68701 0.06608 0.0
O296 O 0.79818 0.67123 0.06761 0.0
C297 C 0.82725 0.67895 0.0991 0.0
O298 O 0.79354 0.67379 0.10104 0.0
Co299 Co 0.8093 0.70272 0.11241 0.0
O300 O 0.79821 0.68622 0.12249 0.0
C301 C 0.79172 0.71257 0.08633 0.0
C302 C 0.8081 0.67798 0.0593 0.0
C303 C 0.79174 0.67571 0.11525 0.0
O304 O 0.79224 0.69923 0.0808 0.0
O305 O 0.79919 0.71662 0.09789 0.0
O306 O 0.82289 0.66814 0.0903 0.0
O307 O 0.82015 0.69142 0.09746 0.0
Co308 Co 0.32525 0.80731 0.08268 0.0
O309 O 0.3207 0.81768 0.0643 0.0
O310 O 0.33638 0.79851 0.06621 0.0
C311 C 0.3281 0.82812 0.097 0.0
O312 O 0.33321 0.79422 0.09965 0.0
Co313 Co 0.30441 0.81036 0.11051 0.0
O314 O 0.32064 0.79918 0.12095 0.0
C315 C 0.29476 0.79237 0.08455 0.0
C316 C 0.32982 0.80842 0.05773 0.0
C317 C 0.33115 0.79254 0.11386 0.0
O318 O 0.30811 0.79284 0.07905 0.0
O319 O 0.29067 0.79996 0.09603 0.0
O320 O 0.33917 0.82338 0.08875 0.0
O321 O 0.31566 0.82096 0.09534 0.0
Co322 Co 0.67976 0.20033 0.08378 0.0
O323 O 0.68511 0.18995 0.06558 0.0
O324 O 0.66879 0.20862 0.06695 0.0
C325 C 0.67714 0.1797 0.09849 0.0
O326 O 0.67098 0.21332 0.10048 0.0
Co327 Co 0.70037 0.19829 0.11194 0.0
O328 O 0.68355 0.20896 0.12193 0.0
C329 C 0.70987 0.21606 0.08586 0.0
C330 C 0.6759 0.1989 0.0587 0.0
C331 C 0.67287 0.21516 0.11471 0.0
O332 O 0.69653 0.21532 0.08036 0.0
O333 O 0.71407 0.20863 0.09739 0.0
O334 O 0.66625 0.18377 0.08967 0.0
O335 O 0.68939 0.18721 0.09693 0.0
Co336 Co 0.92007 0.806 0.68481 0.0
O337 O 0.93835 0.81607 0.69046 0.0
O338 O 0.93707 0.79696 0.67468 0.0
C339 C 0.90638 0.82713 0.68121 0.0
O340 O 0.90339 0.79311 0.67576 0.0
Co341 Co 0.89088 0.80951 0.70357 0.0
O342 O 0.88132 0.79887 0.68652 0.0
C343 C 0.91569 0.79066 0.71495 0.0
C344 C 0.94532 0.8067 0.68177 0.0
C345 C 0.889 0.79189 0.67667 0.0
O346 O 0.92248 0.79156 0.70221 0.0
O347 O 0.90378 0.79809 0.71801 0.0
O348 O 0.9151 0.82222 0.67057 0.0
O349 O 0.90711 0.81985 0.69366 0.0
Co350 Co 0.19756 0.92007 0.68251 0.0
O351 O 0.18766 0.93854 0.68785 0.0
O352 O 0.20693 0.93683 0.67229 0.0
C353 C 0.17624 0.90664 0.67886 0.0
O354 O 0.21037 0.90321 0.67373 0.0
Co355 Co 0.19351 0.89091 0.70121 0.0
O356 O 0.20447 0.88118 0.68445 0.0
C357 C 0.21259 0.91552 0.71276 0.0
C358 C 0.19719 0.94528 0.67912 0.0
C359 C 0.2116 0.88885 0.67471 0.0
O360 O 0.21185 0.92241 0.70006 0.0
O361 O 0.205 0.90367 0.71569 0.0
O362 O 0.18139 0.91515 0.66817 0.0
O363 O 0.18346 0.90734 0.69133 0.0
Co364 Co 0.08435 0.19809 0.68309 0.0
O365 O 0.06609 0.18831 0.68917 0.0
O366 O 0.06745 0.20637 0.67219 0.0
C367 C 0.09837 0.17701 0.6807 0.0
O368 O 0.10109 0.21056 0.6737 0.0
Co369 Co 0.11294 0.19578 0.70296 0.0
O370 O 0.12276 0.2062 0.68585 0.0
C371 C 0.08745 0.21436 0.71273 0.0
C372 C 0.05917 0.19712 0.67988 0.0
C373 C 0.11535 0.21232 0.67525 0.0
O374 O 0.08159 0.21348 0.69956 0.0
O375 O 0.09895 0.20677 0.71678 0.0
O376 O 0.08964 0.18122 0.66979 0.0
O377 O 0.09729 0.18481 0.69281 0.0
Co378 Co 0.80661 0.08481 0.68039 0.0
O379 O 0.81691 0.06681 0.6864 0.0
O380 O 0.79871 0.06772 0.66954 0.0
C381 C 0.82715 0.09962 0.67779 0.0
O382 O 0.79366 0.10126 0.67113 0.0
Co383 Co 0.8082 0.1133 0.70062 0.0
O384 O 0.79761 0.1229 0.68353 0.0
C385 C 0.79061 0.08717 0.71029 0.0
C386 C 0.80821 0.05967 0.67715 0.0
C387 C 0.79163 0.11548 0.67285 0.0
O388 O 0.79138 0.0816 0.69698 0.0
O389 O 0.79799 0.09876 0.71443 0.0
O390 O 0.82333 0.09053 0.66703 0.0
O391 O 0.8195 0.09822 0.68997 0.0
Co392 Co 0.92129 0.20001 0.32327 0.0
O393 O 0.93942 0.19006 0.31694 0.0
O394 O 0.9384 0.20797 0.33409 0.0
C395 C 0.9068 0.17919 0.32567 0.0
O396 O 0.90475 0.21262 0.33293 0.0
Co397 Co 0.89253 0.19833 0.30343 0.0
O398 O 0.883 0.20853 0.32078 0.0
C399 C 0.91831 0.21644 0.29367 0.0
C400 C 0.94653 0.19869 0.32628 0.0
C401 C 0.89048 0.21447 0.33144 0.0
O402 O 0.9241 0.21554 0.30688 0.0
O403 O 0.90674 0.20896 0.28961 0.0
O404 O 0.91593 0.18299 0.3364 0.0
O405 O 0.90794 0.18708 0.31362 0.0
Co406 Co 0.80652 0.9199 0.32391 0.0
O407 O 0.81667 0.93819 0.31837 0.0
O408 O 0.79763 0.93684 0.33424 0.0
C409 C 0.82762 0.90605 0.32726 0.0
O410 O 0.79357 0.90331 0.33297 0.0
Co411 Co 0.8097 0.89065 0.30519 0.0
O412 O 0.799 0.88116 0.32225 0.0
C413 C 0.79104 0.91565 0.29385 0.0
C414 C 0.80742 0.9451 0.32724 0.0
C415 C 0.79216 0.88895 0.33211 0.0
O416 O 0.792 0.92248 0.30657 0.0
O417 O 0.79838 0.90369 0.29081 0.0
O418 O 0.82282 0.91471 0.33799 0.0
O419 O 0.82023 0.90688 0.31489 0.0
Co420 Co 0.08534 0.80668 0.32402 0.0
O421 O 0.0668 0.81667 0.31924 0.0
O422 O 0.06884 0.79735 0.33471 0.0
C423 C 0.09891 0.82796 0.32738 0.0
O424 O 0.10247 0.79387 0.33224 0.0
Co425 Co 0.1136 0.81085 0.30397 0.0
O426 O 0.12374 0.79848 0.31941 0.0
C427 C 0.08858 0.79188 0.29343 0.0
C428 C 0.06027 0.80718 0.32815 0.0
C429 C 0.1166 0.79188 0.32991 0.0
O430 O 0.08241 0.7924 0.30651 0.0
O431 O 0.10011 0.79969 0.28991 0.0
O432 O 0.0907 0.82276 0.33827 0.0
O433 O 0.09779 0.82085 0.31487 0.0
Co434 Co 0.19968 0.08577 0.32386 0.0
O435 O 0.18968 0.06746 0.31816 0.0
O436 O 0.20882 0.06876 0.33389 0.0
C437 C 0.17845 0.09932 0.32758 0.0
O438 O 0.21252 0.10247 0.33294 0.0
Co439 Co 0.19592 0.11503 0.30526 0.0
O440 O 0.20669 0.12455 0.32225 0.0
C441 C 0.21495 0.09043 0.2937 0.0
C442 C 0.19909 0.0605 0.32682 0.0
C443 C 0.21373 0.11686 0.33204 0.0
O444 O 0.21408 0.08352 0.30638 0.0
O445 O 0.20744 0.10232 0.29075 0.0
O446 O 0.18346 0.09061 0.33817 0.0
O447 O 0.18572 0.09869 0.31511 0.0
Co448 Co 0.68231 0.92158 0.80733 0.0
O449 O 0.68787 0.93997 0.81728 0.0
O450 O 0.67239 0.93851 0.79793 0.0
C451 C 0.67833 0.9081 0.82859 0.0
O452 O 0.67338 0.90483 0.79448 0.0
Co453 Co 0.70077 0.89227 0.81144 0.0
O454 O 0.68391 0.88273 0.80048 0.0
C455 C 0.7126 0.91671 0.79232 0.0
C456 C 0.67931 0.94685 0.80771 0.0
C457 C 0.67424 0.89044 0.79331 0.0
O458 O 0.69996 0.92372 0.79308 0.0
O459 O 0.71542 0.90484 0.79992 0.0
O460 O 0.66782 0.91681 0.82342 0.0
O461 O 0.69087 0.9087 0.82147 0.0
Co462 Co 0.08542 0.67915 0.80687 0.0
O463 O 0.06712 0.68378 0.81735 0.0
O464 O 0.06884 0.66812 0.79814 0.0
C465 C 0.09979 0.67625 0.8277 0.0
O466 O 0.10227 0.67114 0.79363 0.0
Co467 Co 0.11338 0.69979 0.80978 0.0
O468 O 0.12363 0.68374 0.79818 0.0
C469 C 0.0874 0.70963 0.79188 0.0
C470 C 0.06045 0.67472 0.8081 0.0
C471 C 0.11643 0.67325 0.79163 0.0
O472 O 0.0818 0.69633 0.79243 0.0
O473 O 0.09896 0.71363 0.79941 0.0
O474 O 0.09151 0.6652 0.82296 0.0
O475 O 0.09819 0.68866 0.82049 0.0
Co476 Co 0.32347 0.08605 0.80747 0.0
O477 O 0.31798 0.06766 0.81739 0.0
O478 O 0.33375 0.06928 0.79825 0.0
C479 C 0.32697 0.09954 0.82873 0.0
O480 O 0.33243 0.1028 0.79471 0.0
Co481 Co 0.30479 0.11523 0.81113 0.0
O482 O 0.32172 0.12488 0.80037 0.0
C483 C 0.2934 0.09054 0.79208 0.0
C484 C 0.3268 0.06089 0.80797 0.0
C485 C 0.33154 0.11715 0.79341 0.0
O486 O 0.30609 0.08367 0.793 0.0
O487 O 0.29038 0.10243 0.79956 0.0
O488 O 0.33766 0.09096 0.82372 0.0
O489 O 0.31454 0.09886 0.82142 0.0
Co490 Co 0.92371 0.32373 0.80751 0.0
O491 O 0.94191 0.31811 0.81779 0.0
O492 O 0.94068 0.33431 0.79902 0.0
C493 C 0.90915 0.32675 0.82821 0.0
O494 O 0.90715 0.33276 0.79451 0.0
Co495 Co 0.89506 0.30384 0.80979 0.0
O496 O 0.88541 0.32072 0.79891 0.0
C497 C 0.92083 0.29359 0.79196 0.0
C498 C 0.94889 0.32711 0.8087 0.0
C499 C 0.8929 0.33118 0.79263 0.0
O500 O 0.92668 0.30679 0.79261 0.0
O501 O 0.90922 0.28974 0.79947 0.0
O502 O 0.91817 0.33745 0.82402 0.0
O503 O 0.91041 0.31444 0.82076 0.0
Co504 Co 0.68336 0.08512 0.19867 0.0
O505 O 0.6895 0.06666 0.18922 0.0
O506 O 0.67315 0.06825 0.20783 0.0
C507 C 0.67989 0.0983 0.17717 0.0
O508 O 0.67387 0.10193 0.211 0.0
Co509 Co 0.70163 0.11459 0.19473 0.0
O510 O 0.68432 0.12407 0.20501 0.0
C511 C 0.71316 0.09038 0.21434 0.0
C512 C 0.68056 0.05985 0.19849 0.0
C513 C 0.67452 0.11633 0.212 0.0
O514 O 0.70057 0.08331 0.21346 0.0
O515 O 0.71608 0.10217 0.20665 0.0
O516 O 0.66935 0.0895 0.18211 0.0
O517 O 0.69225 0.09792 0.18463 0.0
Co518 Co 0.92017 0.68161 0.20115 0.0
O519 O 0.93857 0.68671 0.19102 0.0
O520 O 0.93691 0.67115 0.2103 0.0
C521 C 0.90649 0.67815 0.17997 0.0
O522 O 0.9033 0.67304 0.21411 0.0
Co523 Co 0.89133 0.70084 0.19739 0.0
O524 O 0.88144 0.68421 0.2084 0.0
C525 C 0.91634 0.71197 0.21616 0.0
C526 C 0.94531 0.67787 0.20042 0.0
C527 C 0.88896 0.67428 0.21543 0.0
O528 O 0.92293 0.69911 0.21543 0.0
O529 O 0.90451 0.71514 0.20865 0.0
O530 O 0.9149 0.66735 0.18504 0.0
O531 O 0.90744 0.69062 0.18717 0.0
Co532 Co 0.32553 0.91995 0.20055 0.0
O533 O 0.3195 0.9381 0.19054 0.0
O534 O 0.33637 0.93692 0.20873 0.0
C535 C 0.32816 0.90559 0.17971 0.0
O536 O 0.33483 0.90329 0.21325 0.0
Co537 Co 0.30555 0.89135 0.19841 0.0
O538 O 0.32264 0.88163 0.20884 0.0
C539 C 0.29573 0.91707 0.21668 0.0
C540 C 0.32877 0.9451 0.19933 0.0
C541 C 0.33322 0.88902 0.21502 0.0
O542 O 0.30893 0.92288 0.21582 0.0
O543 O 0.29176 0.90548 0.20918 0.0
O544 O 0.33891 0.91459 0.18375 0.0
O545 O 0.31598 0.90676 0.18739 0.0
Co546 Co 0.08336 0.32389 0.19905 0.0
O547 O 0.06505 0.31892 0.18872 0.0
O548 O 0.06674 0.33506 0.20752 0.0
C549 C 0.09783 0.32634 0.17826 0.0
O550 O 0.10021 0.33231 0.21204 0.0
Co551 Co 0.1113 0.30314 0.19669 0.0
O552 O 0.12158 0.31971 0.20751 0.0
C553 C 0.08523 0.29374 0.21465 0.0
C554 C 0.05835 0.32813 0.19779 0.0
C555 C 0.11442 0.33036 0.21384 0.0
O556 O 0.07975 0.30707 0.21391 0.0
O557 O 0.09677 0.28951 0.20721 0.0
O558 O 0.08945 0.33746 0.18265 0.0
O559 O 0.09618 0.31408 0.1857 0.0
Co560 Co 0.80507 0.68145 0.92073 0.0
O561 O 0.81533 0.68765 0.93871 0.0
O562 O 0.79729 0.6706 0.9379 0.0
C563 C 0.82567 0.67897 0.90601 0.0
O564 O 0.79219 0.67193 0.90435 0.0
Co565 Co 0.80649 0.70139 0.89204 0.0
O566 O 0.79598 0.68418 0.8826 0.0
C567 C 0.78888 0.71119 0.91815 0.0
C568 C 0.80678 0.6783 0.94589 0.0
C569 C 0.79011 0.67351 0.89012 0.0
O570 O 0.78971 0.69793 0.92383 0.0
O571 O 0.79624 0.71525 0.9065 0.0
O572 O 0.8219 0.66823 0.91514 0.0
O573 O 0.81789 0.69108 0.90726 0.0
Co574 Co 0.8035 0.32357 0.0864 0.0
O575 O 0.81414 0.31767 0.0685 0.0
O576 O 0.79502 0.33348 0.06901 0.0
C577 C 0.82404 0.32747 0.10095 0.0
O578 O 0.7901 0.33285 0.10257 0.0
Co579 Co 0.80597 0.30497 0.11589 0.0
O580 O 0.79514 0.32218 0.12487 0.0
C581 C 0.78803 0.2934 0.09057 0.0
C582 C 0.80503 0.32634 0.06115 0.0
C583 C 0.78845 0.33201 0.11692 0.0
O584 O 0.78906 0.30614 0.08378 0.0
O585 O 0.79516 0.2904 0.10268 0.0
O586 O 0.81965 0.33782 0.09164 0.0
O587 O 0.81683 0.31499 0.10008 0.0
Co588 Co 0.68507 0.80741 0.08518 0.0
O589 O 0.69143 0.81714 0.0669 0.0
O590 O 0.67491 0.79865 0.06805 0.0
C591 C 0.68169 0.82869 0.09873 0.0
O592 O 0.67536 0.79486 0.10176 0.0
Co593 Co 0.70327 0.81069 0.11477 0.0
O594 O 0.68584 0.80041 0.12402 0.0
C595 C 0.71478 0.79152 0.09023 0.0
C596 C 0.68248 0.80807 0.05985 0.0
C597 C 0.67599 0.79363 0.11616 0.0
O598 O 0.70218 0.79253 0.0832 0.0
O599 O 0.71772 0.79901 0.10213 0.0
O600 O 0.67116 0.824 0.08978 0.0
O601 O 0.69399 0.82114 0.09827 0.0
Co602 Co 0.19956 0.68616 0.08616 0.0
O603 O 0.18948 0.69272 0.06812 0.0
O604 O 0.20768 0.67587 0.06883 0.0
C605 C 0.17875 0.68304 0.10055 0.0
O606 O 0.21239 0.67619 0.10239 0.0
Co607 Co 0.19763 0.70464 0.11576 0.0
O608 O 0.20772 0.68697 0.12472 0.0
C609 C 0.21601 0.71571 0.09051 0.0
C610 C 0.19823 0.68361 0.06085 0.0
C611 C 0.21402 0.6769 0.11676 0.0
O612 O 0.21474 0.70298 0.08374 0.0
O613 O 0.20886 0.7189 0.10255 0.0
O614 O 0.18277 0.6726 0.09117 0.0
O615 O 0.18648 0.69523 0.0998 0.0
Co616 Co 0.32424 0.19859 0.08718 0.0
O617 O 0.31889 0.18856 0.0688 0.0
O618 O 0.33446 0.20784 0.07037 0.0
C619 C 0.32793 0.17738 0.10073 0.0
O620 O 0.33303 0.21147 0.10395 0.0
Co621 Co 0.30549 0.19468 0.11635 0.0
O622 O 0.32227 0.20567 0.12599 0.0
C623 C 0.29397 0.21363 0.09163 0.0
C624 C 0.32764 0.19802 0.06201 0.0
C625 C 0.33204 0.21274 0.11831 0.0
O626 O 0.30669 0.21287 0.08477 0.0
O627 O 0.29101 0.20609 0.1035 0.0
O628 O 0.3386 0.18249 0.09216 0.0
O629 O 0.31543 0.18456 0.1 0.0
Co630 Co 0.20085 0.32342 0.92203 0.0
O631 O 0.19063 0.31754 0.94018 0.0
O632 O 0.20984 0.33323 0.93919 0.0
C633 C 0.17972 0.32729 0.90841 0.0
O634 O 0.21396 0.3327 0.90571 0.0
Co635 Co 0.19754 0.30595 0.89206 0.0
O636 O 0.20741 0.32378 0.88306 0.0
C637 C 0.21634 0.2936 0.91662 0.0
C638 C 0.19997 0.32616 0.94728 0.0
C639 C 0.21478 0.33285 0.89129 0.0
O640 O 0.21517 0.30591 0.92412 0.0
O641 O 0.20919 0.29116 0.90439 0.0
O642 O 0.18469 0.33779 0.91725 0.0
O643 O 0.18706 0.31486 0.90878 0.0
Co644 Co 0.68195 0.20152 0.92014 0.0
O645 O 0.68772 0.19128 0.93828 0.0
O646 O 0.67084 0.20944 0.93708 0.0
C647 C 0.67955 0.18087 0.90545 0.0
O648 O 0.67284 0.21441 0.90352 0.0
Co649 Co 0.70239 0.19983 0.89182 0.0
O650 O 0.68547 0.21048 0.88201 0.0
C651 C 0.71185 0.2175 0.918 0.0
C652 C 0.67831 0.19994 0.94526 0.0
C653 C 0.67471 0.21645 0.88932 0.0
O654 O 0.6985 0.21676 0.92347 0.0
O655 O 0.71607 0.21008 0.90645 0.0
O656 O 0.66868 0.18477 0.91438 0.0
O657 O 0.6917 0.18856 0.90689 0.0
Co658 Co 0.32514 0.80577 0.91943 0.0
O659 O 0.3194 0.81605 0.93753 0.0
O660 O 0.33639 0.79798 0.93631 0.0
C661 C 0.32728 0.82636 0.90466 0.0
O662 O 0.33423 0.79288 0.90284 0.0
Co663 Co 0.30452 0.80717 0.89124 0.0
O664 O 0.32147 0.79662 0.88138 0.0
C665 C 0.29533 0.78967 0.91764 0.0
C666 C 0.32889 0.80747 0.94449 0.0
C667 C 0.33231 0.79076 0.88866 0.0
O668 O 0.30873 0.79045 0.92295 0.0
O669 O 0.29099 0.79702 0.90609 0.0
O670 O 0.33825 0.82259 0.91351 0.0
O671 O 0.31521 0.81858 0.9062 0.0
Co672 Co 0.58451 0.6984 0.82198 0.0
O673 O 0.56659 0.68878 0.81455 0.0
O674 O 0.56699 0.7068 0.83163 0.0
C675 C 0.59788 0.677 0.82524 0.0
O676 O 0.60033 0.71088 0.83282 0.0
Co677 Co 0.61536 0.69607 0.80599 0.0
O678 O 0.62347 0.70529 0.82457 0.0
C679 C 0.59138 0.71549 0.79339 0.0
C680 C 0.55916 0.69756 0.82351 0.0
C681 C 0.6147 0.71201 0.83364 0.0
O682 O 0.58331 0.71376 0.80527 0.0
O683 O 0.60372 0.70843 0.79121 0.0
O684 O 0.58853 0.6814 0.83556 0.0
O685 O 0.59817 0.68506 0.81326 0.0
Co686 Co 0.30566 0.58409 0.82175 0.0
O687 O 0.3151 0.56613 0.81421 0.0
O688 O 0.2969 0.56659 0.83111 0.0
C689 C 0.32723 0.59703 0.82536 0.0
O690 O 0.29334 0.59998 0.83266 0.0
Co691 Co 0.30869 0.61509 0.80618 0.0
O692 O 0.29963 0.62311 0.82489 0.0
C693 C 0.28917 0.59151 0.79299 0.0
C694 C 0.30613 0.55873 0.823 0.0
C695 C 0.29261 0.61436 0.83375 0.0
O696 O 0.29052 0.5833 0.80483 0.0
O697 O 0.29646 0.60375 0.79107 0.0
O698 O 0.32257 0.58768 0.83555 0.0
O699 O 0.31929 0.5976 0.81331 0.0
Co700 Co 0.42068 0.30544 0.82299 0.0
O701 O 0.43868 0.31536 0.8162 0.0
O702 O 0.43804 0.29724 0.83315 0.0
C703 C 0.40652 0.32638 0.82609 0.0
O704 O 0.40445 0.29282 0.83315 0.0
Co705 Co 0.39094 0.30759 0.80475 0.0
O706 O 0.38207 0.29776 0.82261 0.0
C707 C 0.41595 0.289 0.79352 0.0
C708 C 0.44599 0.30659 0.82525 0.0
C709 C 0.39007 0.2914 0.83262 0.0
O710 O 0.42281 0.29019 0.8062 0.0
O711 O 0.40396 0.29627 0.7904 0.0
O712 O 0.41591 0.32236 0.83651 0.0
O713 O 0.40712 0.31857 0.81397 0.0
Co714 Co 0.70193 0.41946 0.82367 0.0
O715 O 0.69141 0.43737 0.81758 0.0
O716 O 0.7103 0.43685 0.83366 0.0
C717 C 0.68128 0.40496 0.82729 0.0
O718 O 0.71518 0.4033 0.83317 0.0
Co719 Co 0.69965 0.38994 0.80511 0.0
O720 O 0.71042 0.38101 0.82238 0.0
C721 C 0.71778 0.41521 0.79373 0.0
C722 C 0.70043 0.44472 0.82635 0.0
C723 C 0.71695 0.38897 0.83231 0.0
O724 O 0.71661 0.42202 0.80644 0.0
O725 O 0.71064 0.40313 0.79065 0.0
O726 O 0.68554 0.41426 0.8377 0.0
O727 O 0.6887 0.40579 0.81493 0.0
Co728 Co 0.58437 0.3055 0.18461 0.0
O729 O 0.56629 0.31566 0.19087 0.0
O730 O 0.56708 0.2968 0.17475 0.0
C731 C 0.59846 0.3264 0.18087 0.0
O732 O 0.60067 0.29262 0.17489 0.0
Co733 Co 0.61405 0.30825 0.20281 0.0
O734 O 0.62302 0.29804 0.18522 0.0
C735 C 0.58923 0.28967 0.21447 0.0
C736 C 0.55907 0.3065 0.18213 0.0
C737 C 0.61507 0.29133 0.17541 0.0
O738 O 0.58224 0.29076 0.20185 0.0
O739 O 0.60125 0.29696 0.21739 0.0
O740 O 0.58911 0.32199 0.17056 0.0
O741 O 0.59788 0.31897 0.19324 0.0
Co742 Co 0.69934 0.58633 0.18068 0.0
O743 O 0.68857 0.56825 0.18562 0.0
O744 O 0.70779 0.56946 0.16993 0.0
C745 C 0.67902 0.60128 0.17739 0.0
O746 O 0.71279 0.60286 0.17238 0.0
Co747 Co 0.69699 0.6145 0.20123 0.0
O748 O 0.70829 0.62439 0.18476 0.0
C749 C 0.71423 0.58825 0.21125 0.0
C750 C 0.69772 0.56131 0.17666 0.0
C751 C 0.71473 0.61706 0.17429 0.0
O752 O 0.71374 0.58271 0.19791 0.0
O753 O 0.70684 0.5999 0.21522 0.0
O754 O 0.68335 0.59241 0.16664 0.0
O755 O 0.68606 0.59964 0.1899 0.0
Co756 Co 0.42059 0.70105 0.18054 0.0
O757 O 0.43883 0.6908 0.186 0.0
O758 O 0.43741 0.7093 0.1695 0.0
C759 C 0.40591 0.68042 0.17781 0.0
O760 O 0.40391 0.71403 0.17175 0.0
Co761 Co 0.39234 0.69895 0.20103 0.0
O762 O 0.38241 0.70983 0.18431 0.0
C763 C 0.41854 0.71645 0.21075 0.0
C764 C 0.4457 0.69971 0.17674 0.0
C765 C 0.38971 0.71599 0.17364 0.0
O766 O 0.42395 0.71598 0.19736 0.0
O767 O 0.40701 0.70894 0.21486 0.0
O768 O 0.4148 0.68453 0.16698 0.0
O769 O 0.4074 0.68787 0.19011 0.0
Co770 Co 0.30648 0.42144 0.18279 0.0
O771 O 0.31586 0.44001 0.18861 0.0
O772 O 0.2974 0.43808 0.17213 0.0
C773 C 0.32806 0.40829 0.17985 0.0
O774 O 0.29424 0.4044 0.17356 0.0
Co775 Co 0.31034 0.39236 0.2017 0.0
O776 O 0.30014 0.3825 0.18456 0.0
C777 C 0.29069 0.41682 0.21262 0.0
C778 C 0.30669 0.44664 0.17944 0.0
C779 C 0.29323 0.39002 0.17455 0.0
O780 O 0.29154 0.42358 0.19984 0.0
O781 O 0.29844 0.40515 0.21583 0.0
O782 O 0.32319 0.41677 0.16902 0.0
O783 O 0.32044 0.4089 0.19209 0.0
Co784 Co 0.82566 0.58464 0.70135 0.0
O785 O 0.82113 0.56651 0.69046 0.0
O786 O 0.83697 0.56798 0.70952 0.0
C787 C 0.82831 0.59996 0.68119 0.0
O788 O 0.83359 0.6013 0.71491 0.0
Co789 Co 0.8039 0.61193 0.69953 0.0
O790 O 0.81916 0.6219 0.71233 0.0
C791 C 0.7951 0.58512 0.71639 0.0
C792 C 0.83033 0.55973 0.69948 0.0
C793 C 0.83039 0.61505 0.71798 0.0
O794 O 0.80871 0.58032 0.71592 0.0
O795 O 0.79053 0.59652 0.70897 0.0
O796 O 0.83935 0.59133 0.68529 0.0
O797 O 0.81591 0.59782 0.6883 0.0
Co798 Co 0.42077 0.82565 0.70167 0.0
O799 O 0.439 0.82094 0.69103 0.0
O800 O 0.43746 0.83654 0.7103 0.0
C801 C 0.40594 0.82883 0.68125 0.0
O802 O 0.40402 0.83374 0.71501 0.0
Co803 Co 0.39285 0.80479 0.69906 0.0
O804 O 0.38268 0.82111 0.71033 0.0
C805 C 0.41919 0.79494 0.71622 0.0
C806 C 0.44577 0.82992 0.70029 0.0
C807 C 0.38983 0.83166 0.71683 0.0
O808 O 0.42447 0.80839 0.71601 0.0
O809 O 0.40767 0.79088 0.70868 0.0
O810 O 0.41467 0.83967 0.68566 0.0
O811 O 0.40767 0.81633 0.68827 0.0
Co812 Co 0.18196 0.42164 0.6982 0.0
O813 O 0.18678 0.44 0.68791 0.0
O814 O 0.17119 0.43826 0.70717 0.0
C815 C 0.17874 0.4075 0.67729 0.0
O816 O 0.17372 0.40477 0.71126 0.0
Co817 Co 0.20211 0.39334 0.69483 0.0
O818 O 0.1858 0.38323 0.70618 0.0
C819 C 0.21251 0.419 0.7129 0.0
C820 C 0.17783 0.44667 0.69725 0.0
C821 C 0.17549 0.39053 0.71292 0.0
O822 O 0.19929 0.42483 0.71256 0.0
O823 O 0.21624 0.40747 0.70519 0.0
O824 O 0.16783 0.4159 0.68214 0.0
O825 O 0.19122 0.40888 0.68442 0.0
Co826 Co 0.58542 0.18156 0.70014 0.0
O827 O 0.56704 0.18628 0.68981 0.0
O828 O 0.56885 0.17049 0.70888 0.0
C829 C 0.59967 0.17878 0.67922 0.0
O830 O 0.60233 0.17337 0.7132 0.0
Co831 Co 0.61341 0.20214 0.69721 0.0
O832 O 0.62372 0.18587 0.70844 0.0
C833 C 0.58745 0.21202 0.71512 0.0
C834 C 0.56041 0.17714 0.69901 0.0
C835 C 0.61654 0.17535 0.71499 0.0
O836 O 0.58189 0.19869 0.71469 0.0
O837 O 0.59898 0.21601 0.70753 0.0
O838 O 0.59139 0.16771 0.68393 0.0
O839 O 0.59813 0.19115 0.68651 0.0
Co840 Co 0.82042 0.4214 0.30545 0.0
O841 O 0.81423 0.43948 0.31565 0.0
O842 O 0.83001 0.43869 0.29649 0.0
C843 C 0.82445 0.40774 0.32655 0.0
O844 O 0.83006 0.40534 0.29232 0.0
Co845 Co 0.80358 0.39107 0.3085 0.0
O846 O 0.82155 0.38245 0.29854 0.0
C847 C 0.79081 0.41546 0.28974 0.0
C848 C 0.82279 0.4467 0.30631 0.0
C849 C 0.83049 0.39095 0.29131 0.0
O850 O 0.80294 0.42323 0.29104 0.0
O851 O 0.7886 0.40313 0.2968 0.0
O852 O 0.83479 0.41681 0.32166 0.0
O853 O 0.81205 0.40792 0.31917 0.0
Co854 Co 0.58579 0.82126 0.30662 0.0
O855 O 0.56749 0.81479 0.31613 0.0
O856 O 0.56875 0.83159 0.2979 0.0
C857 C 0.59918 0.82426 0.32804 0.0
O858 O 0.60246 0.83112 0.29433 0.0
Co859 Co 0.61528 0.80289 0.30978 0.0
O860 O 0.62463 0.82051 0.29992 0.0
C861 C 0.59085 0.79183 0.29022 0.0
C862 C 0.5605 0.82387 0.30714 0.0
C863 C 0.61687 0.83048 0.29323 0.0
O864 O 0.58386 0.80443 0.29143 0.0
O865 O 0.6027 0.7887 0.29772 0.0
O866 O 0.5903 0.83489 0.32346 0.0
O867 O 0.59875 0.81209 0.32029 0.0
Co868 Co 0.18382 0.58523 0.30505 0.0
O869 O 0.18982 0.56678 0.31463 0.0
O870 O 0.17332 0.56837 0.29616 0.0
C871 C 0.18075 0.59861 0.32649 0.0
O872 O 0.17441 0.60207 0.29264 0.0
Co873 Co 0.20249 0.61451 0.30859 0.0
O874 O 0.18524 0.62411 0.29833 0.0
C875 C 0.21363 0.58991 0.28925 0.0
C876 C 0.18072 0.55997 0.30553 0.0
C877 C 0.17527 0.61646 0.2915 0.0
O878 O 0.2009 0.58308 0.29014 0.0
O879 O 0.21674 0.60168 0.29688 0.0
O880 O 0.17001 0.58995 0.32173 0.0
O881 O 0.193 0.59801 0.31888 0.0
Co882 Co 0.4214 0.18089 0.30816 0.0
O883 O 0.43964 0.18669 0.31819 0.0
O884 O 0.4382 0.16963 0.30021 0.0
C885 C 0.40678 0.17878 0.3289 0.0
O886 O 0.40468 0.17171 0.2955 0.0
Co887 Co 0.39315 0.20142 0.30978 0.0
O888 O 0.3832 0.18434 0.29952 0.0
C889 C 0.41924 0.21058 0.29181 0.0
C890 C 0.44649 0.17718 0.30955 0.0
C891 C 0.39046 0.17352 0.29359 0.0
O892 O 0.42469 0.19724 0.2927 0.0
O893 O 0.40774 0.21492 0.29924 0.0
O894 O 0.41565 0.16783 0.3251 0.0
O895 O 0.40826 0.19084 0.32108 0.0
Co896 Co 0.69992 0.82224 0.5868 0.0
O897 O 0.6896 0.81675 0.56858 0.0
O898 O 0.70878 0.83246 0.56979 0.0
C899 C 0.67915 0.82599 0.60106 0.0
O900 O 0.71301 0.83122 0.60334 0.0
Co901 Co 0.69685 0.80326 0.61598 0.0
O902 O 0.70736 0.82042 0.62543 0.0
C903 C 0.7152 0.79196 0.59081 0.0
C904 C 0.69887 0.82557 0.5616 0.0
C905 C 0.71425 0.83031 0.61772 0.0
O906 O 0.71433 0.80478 0.58414 0.0
O907 O 0.70785 0.78885 0.60276 0.0
O908 O 0.68375 0.83647 0.592 0.0
O909 O 0.68631 0.81349 0.60009 0.0
Co910 Co 0.70102 0.18247 0.41975 0.0
O911 O 0.69075 0.18797 0.43797 0.0
O912 O 0.71011 0.17249 0.43681 0.0
C913 C 0.67995 0.17851 0.40603 0.0
O914 O 0.71411 0.17357 0.40314 0.0
Co915 Co 0.69726 0.20096 0.3904 0.0
O916 O 0.70822 0.18405 0.38098 0.0
C917 C 0.71588 0.21282 0.4152 0.0
C918 C 0.70014 0.17934 0.44498 0.0
C919 C 0.71535 0.17439 0.38875 0.0
O920 O 0.71517 0.20014 0.42213 0.0
O921 O 0.70842 0.21563 0.40324 0.0
O922 O 0.68503 0.16797 0.41476 0.0
O923 O 0.68706 0.19105 0.40671 0.0
Co924 Co 0.82259 0.69993 0.42199 0.0
O925 O 0.81697 0.68972 0.44023 0.0
O926 O 0.83341 0.70828 0.43889 0.0
C927 C 0.82554 0.67923 0.40746 0.0
O928 O 0.8316 0.71291 0.40537 0.0
Co929 Co 0.80256 0.69751 0.3934 0.0
O930 O 0.8186 0.70964 0.38394 0.0
C931 C 0.7924 0.71548 0.41918 0.0
C932 C 0.82615 0.69868 0.44715 0.0
C933 C 0.82935 0.71551 0.39133 0.0
O934 O 0.80559 0.71479 0.42509 0.0
O935 O 0.78865 0.70795 0.40754 0.0
O936 O 0.83628 0.68341 0.41641 0.0
O937 O 0.81324 0.68667 0.40877 0.0
Co938 Co 0.30677 0.82594 0.42229 0.0
O939 O 0.31722 0.82026 0.44034 0.0
O940 O 0.299 0.8371 0.4392 0.0
C941 C 0.32719 0.82829 0.40727 0.0
O942 O 0.29363 0.83501 0.40594 0.0
Co943 Co 0.30793 0.80558 0.39392 0.0
O944 O 0.29673 0.8223 0.38436 0.0
C945 C 0.29069 0.79608 0.42038 0.0
C946 C 0.30857 0.82969 0.44733 0.0
C947 C 0.29103 0.83308 0.39186 0.0
O948 O 0.29156 0.80941 0.42588 0.0
O949 O 0.2979 0.79188 0.4087 0.0
O950 O 0.32344 0.83918 0.41623 0.0
O951 O 0.31951 0.81615 0.40885 0.0
Co952 Co 0.18046 0.30767 0.42158 0.0
O953 O 0.18522 0.31784 0.44005 0.0
O954 O 0.16935 0.29884 0.43806 0.0
C955 C 0.17774 0.3286 0.40735 0.0
O956 O 0.17225 0.29478 0.40457 0.0
Co957 Co 0.20119 0.31066 0.39367 0.0
O958 O 0.18479 0.2997 0.38324 0.0
C959 C 0.2108 0.29242 0.41947 0.0
C960 C 0.17609 0.30857 0.4466 0.0
C961 C 0.17423 0.29315 0.39035 0.0
O962 O 0.19748 0.293 0.42503 0.0
O963 O 0.21492 0.30003 0.40801 0.0
O964 O 0.16668 0.32394 0.41567 0.0
O965 O 0.19011 0.32131 0.40893 0.0
Co966 Co 0.30635 0.18267 0.5857 0.0
O967 O 0.31616 0.18843 0.56729 0.0
O968 O 0.29715 0.17253 0.5688 0.0
C969 C 0.32769 0.17919 0.59914 0.0
O970 O 0.29372 0.17345 0.60246 0.0
Co971 Co 0.31007 0.2012 0.61502 0.0
O972 O 0.29958 0.18405 0.62457 0.0
C973 C 0.29081 0.21263 0.59052 0.0
C974 C 0.30676 0.17967 0.56044 0.0
C975 C 0.2926 0.17423 0.61686 0.0
O976 O 0.29176 0.19999 0.58356 0.0
O977 O 0.29835 0.21562 0.60238 0.0
O978 O 0.32275 0.16855 0.59045 0.0
O979 O 0.3203 0.19157 0.59855 0.0
Co980 Co 0.82285 0.30709 0.5848 0.0
O981 O 0.8163 0.31699 0.56668 0.0
O982 O 0.83285 0.29851 0.56754 0.0
C983 C 0.82629 0.32829 0.59846 0.0
O984 O 0.83278 0.2943 0.60098 0.0
Co985 Co 0.8057 0.30983 0.61505 0.0
O986 O 0.82381 0.30025 0.62378 0.0
C987 C 0.79355 0.29082 0.59054 0.0
C988 C 0.82525 0.308 0.55949 0.0
C989 C 0.83304 0.29327 0.61538 0.0
O990 O 0.80579 0.29221 0.58296 0.0
O991 O 0.79105 0.29794 0.60278 0.0
O992 O 0.83675 0.32369 0.58937 0.0
O993 O 0.81406 0.32061 0.59823 0.0
Co994 Co 0.18463 0.70099 0.58362 0.0
O995 O 0.19199 0.69096 0.56583 0.0
O996 O 0.17494 0.709 0.56596 0.0
C997 C 0.18122 0.68012 0.59783 0.0
O998 O 0.17379 0.71379 0.59921 0.0
Co999 Co 0.20093 0.6995 0.61446 0.0
O1000 O 0.18211 0.70836 0.62239 0.0
C1001 C 0.21351 0.71788 0.58975 0.0
C1002 C 0.18299 0.6996 0.55826 0.0
C1003 C 0.17295 0.7149 0.61359 0.0
O1004 O 0.2014 0.7163 0.58199 0.0
O1005 O 0.21581 0.71102 0.60217 0.0
O1006 O 0.1711 0.68401 0.58806 0.0
O1007 O 0.19325 0.68811 0.59773 0.0
Co1008 Co 0.42008 0.30549 0.18534 0.0
O1009 O 0.43817 0.31539 0.19192 0.0
O1010 O 0.43738 0.29701 0.17527 0.0
C1011 C 0.40609 0.32649 0.1819 0.0
O1012 O 0.40371 0.2928 0.17548 0.0
Co1013 Co 0.39045 0.30818 0.20372 0.0
O1014 O 0.38144 0.29792 0.18618 0.0
C1015 C 0.41525 0.28935 0.215 0.0
C1016 C 0.4454 0.30645 0.18298 0.0
C1017 C 0.38933 0.29136 0.17622 0.0
O1018 O 0.42214 0.29046 0.20233 0.0
O1019 O 0.40333 0.29673 0.21811 0.0
O1020 O 0.41544 0.32219 0.17155 0.0
O1021 O 0.40664 0.3189 0.19418 0.0
Co1022 Co 0.69699 0.42283 0.18159 0.0
O1023 O 0.68728 0.44125 0.18726 0.0
O1024 O 0.70565 0.43952 0.17064 0.0
C1025 C 0.67575 0.40907 0.17898 0.0
O1026 O 0.70945 0.40586 0.1726 0.0
Co1027 Co 0.69391 0.39439 0.20161 0.0
O1028 O 0.70451 0.38432 0.18478 0.0
C1029 C 0.71253 0.41978 0.21163 0.0
C1030 C 0.6963 0.44797 0.17801 0.0
C1031 C 0.71096 0.39158 0.17426 0.0
O1032 O 0.71206 0.42557 0.19839 0.0
O1033 O 0.7047 0.40839 0.21554 0.0
O1034 O 0.6803 0.41758 0.16803 0.0
O1035 O 0.68337 0.41016 0.1912 0.0
Co1036 Co 0.58411 0.70171 0.1793 0.0
O1037 O 0.56582 0.69122 0.18401 0.0
O1038 O 0.56742 0.71045 0.16838 0.0
C1039 C 0.59843 0.6809 0.17628 0.0
O1040 O 0.60101 0.71492 0.17122 0.0
Co1041 Co 0.6121 0.69856 0.19992 0.0
O1042 O 0.62235 0.70995 0.18372 0.0
C1043 C 0.5861 0.71632 0.20993 0.0
C1044 C 0.55908 0.70046 0.17501 0.0
C1045 C 0.61522 0.71664 0.17326 0.0
O1046 O 0.58058 0.71605 0.19658 0.0
O1047 O 0.5976 0.70867 0.21386 0.0
O1048 O 0.59012 0.68567 0.16526 0.0
O1049 O 0.59686 0.68805 0.18872 0.0
Co1050 Co 0.30573 0.58497 0.17981 0.0
O1051 O 0.3161 0.56667 0.18467 0.0
O1052 O 0.29709 0.56831 0.16878 0.0
C1053 C 0.32656 0.59934 0.17708 0.0
O1054 O 0.29266 0.60186 0.17157 0.0
Co1055 Co 0.30851 0.61287 0.20058 0.0
O1056 O 0.29741 0.62316 0.18421 0.0
C1057 C 0.29053 0.58688 0.21019 0.0
C1058 C 0.30693 0.55994 0.17559 0.0
C1059 C 0.2909 0.61606 0.17362 0.0
O1060 O 0.29109 0.58141 0.19684 0.0
O1061 O 0.29809 0.59838 0.21433 0.0
O1062 O 0.32197 0.591 0.16602 0.0
O1063 O 0.31925 0.59773 0.18944 0.0
Co1064 Co 0.42035 0.69854 0.82095 0.0
O1065 O 0.43839 0.68823 0.81491 0.0
O1066 O 0.43757 0.70719 0.83093 0.0
C1067 C 0.40608 0.67779 0.82467 0.0
O1068 O 0.40405 0.7116 0.83039 0.0
Co1069 Co 0.39088 0.69589 0.80238 0.0
O1070 O 0.38179 0.70643 0.81973 0.0
C1071 C 0.4159 0.71438 0.79102 0.0
C1072 C 0.44558 0.69741 0.82365 0.0
C1073 C 0.38969 0.7131 0.82961 0.0
O1074 O 0.42276 0.7132 0.8037 0.0
O1075 O 0.40387 0.70716 0.78794 0.0
O1076 O 0.41534 0.68219 0.83505 0.0
O1077 O 0.40685 0.68512 0.81225 0.0
Co1078 Co 0.30568 0.41988 0.82127 0.0
O1079 O 0.31572 0.43792 0.81476 0.0
O1080 O 0.29662 0.43722 0.83063 0.0
C1081 C 0.32692 0.40654 0.82539 0.0
O1082 O 0.29272 0.40383 0.83118 0.0
Co1083 Co 0.3089 0.38939 0.80483 0.0
O1084 O 0.29916 0.3809 0.82299 0.0
C1085 C 0.28999 0.41348 0.79175 0.0
C1086 C 0.30636 0.44519 0.82324 0.0
C1087 C 0.29188 0.38943 0.83184 0.0
O1088 O 0.29124 0.42137 0.8038 0.0
O1089 O 0.29711 0.40116 0.78969 0.0
O1090 O 0.32195 0.41565 0.83566 0.0
O1091 O 0.31948 0.40644 0.81301 0.0
Co1092 Co 0.58484 0.30695 0.8218 0.0
O1093 O 0.56647 0.31686 0.81617 0.0
O1094 O 0.56792 0.29761 0.83178 0.0
C1095 C 0.59829 0.3282 0.82573 0.0
O1096 O 0.60159 0.29419 0.83085 0.0
Co1097 Co 0.61419 0.31104 0.80338 0.0
O1098 O 0.62371 0.30044 0.82048 0.0
C1099 C 0.58986 0.29174 0.79164 0.0
C1100 C 0.55959 0.30737 0.82482 0.0
C1101 C 0.616 0.29323 0.83014 0.0
O1102 O 0.58276 0.29261 0.80423 0.0
O1103 O 0.60174 0.29932 0.78881 0.0
O1104 O 0.58955 0.32308 0.83624 0.0
O1105 O 0.59772 0.32106 0.8132 0.0
Co1106 Co 0.69965 0.58366 0.82219 0.0
O1107 O 0.68988 0.56545 0.8157 0.0
O1108 O 0.70804 0.56653 0.83258 0.0
C1109 C 0.67859 0.5977 0.82517 0.0
O1110 O 0.71218 0.60015 0.83207 0.0
Co1111 Co 0.69724 0.61311 0.80351 0.0
O1112 O 0.70711 0.62232 0.82117 0.0
C1113 C 0.71606 0.58814 0.79262 0.0
C1114 C 0.69874 0.55837 0.82485 0.0
C1115 C 0.71354 0.61453 0.83129 0.0
O1116 O 0.7149 0.58143 0.8054 0.0
O1117 O 0.70869 0.60001 0.78934 0.0
O1118 O 0.68273 0.58847 0.83569 0.0
O1119 O 0.68637 0.597 0.81301 0.0
Co1120 Co 0.18085 0.42134 0.3044 0.0
O1121 O 0.18621 0.43949 0.31488 0.0
O1122 O 0.1701 0.43829 0.29603 0.0
C1123 C 0.1779 0.40661 0.32497 0.0
O1124 O 0.17214 0.4047 0.29127 0.0
Co1125 Co 0.20133 0.39311 0.3066 0.0
O1126 O 0.18458 0.3832 0.29575 0.0
C1127 C 0.2111 0.41917 0.28894 0.0
C1128 C 0.17719 0.44647 0.30583 0.0
C1129 C 0.17399 0.39047 0.28944 0.0
O1130 O 0.19778 0.4247 0.28959 0.0
O1131 O 0.2152 0.40759 0.29637 0.0
O1132 O 0.16713 0.41551 0.32079 0.0
O1133 O 0.19026 0.40809 0.31762 0.0
Co1134 Co 0.58486 0.17983 0.30573 0.0
O1135 O 0.5669 0.18473 0.31673 0.0
O1136 O 0.5679 0.16895 0.29758 0.0
C1137 C 0.60009 0.17674 0.32588 0.0
O1138 O 0.60128 0.17159 0.29206 0.0
Co1139 Co 0.61287 0.20065 0.30764 0.0
O1140 O 0.62271 0.18431 0.29612 0.0
C1141 C 0.58631 0.21037 0.29074 0.0
C1142 C 0.55986 0.17571 0.30772 0.0
C1143 C 0.61542 0.17372 0.28984 0.0
O1144 O 0.58093 0.19697 0.2913 0.0
O1145 O 0.59798 0.21449 0.298 0.0
O1146 O 0.59125 0.1659 0.32173 0.0
O1147 O 0.59826 0.1892 0.31879 0.0
Co1148 Co 0.82045 0.58562 0.30649 0.0
O1149 O 0.81387 0.56736 0.31599 0.0
O1150 O 0.83039 0.56848 0.29749 0.0
C1151 C 0.82398 0.59874 0.32799 0.0
O1152 O 0.83031 0.60227 0.29416 0.0
Co1153 Co 0.80252 0.6153 0.31026 0.0
O1154 O 0.81999 0.62451 0.30002 0.0
C1155 C 0.7908 0.5912 0.29067 0.0
C1156 C 0.8227 0.56029 0.30682 0.0
C1157 C 0.82976 0.61668 0.29311 0.0
O1158 O 0.80333 0.58404 0.2916 0.0
O1159 O 0.78796 0.60302 0.29834 0.0
O1160 O 0.83443 0.5898 0.32313 0.0
O1161 O 0.81168 0.59856 0.32044 0.0
Co1162 Co 0.42172 0.82167 0.30679 0.0
O1163 O 0.44003 0.81603 0.31681 0.0
O1164 O 0.43867 0.83176 0.29764 0.0
C1165 C 0.40807 0.82538 0.32795 0.0
O1166 O 0.40507 0.83072 0.29394 0.0
Co1167 Co 0.39242 0.80308 0.31046 0.0
O1168 O 0.38294 0.82005 0.29962 0.0
C1169 C 0.41702 0.79161 0.29134 0.0
C1170 C 0.44695 0.82476 0.30741 0.0
C1171 C 0.3907 0.82984 0.29264 0.0
O1172 O 0.424 0.80424 0.29233 0.0
O1173 O 0.40511 0.78863 0.29882 0.0
O1174 O 0.41683 0.83595 0.32298 0.0
O1175 O 0.40874 0.81291 0.32072 0.0
Co1176 Co 0.18182 0.58518 0.69807 0.0
O1177 O 0.18756 0.56687 0.6882 0.0
O1178 O 0.17095 0.56836 0.7066 0.0
C1179 C 0.17918 0.59905 0.6769 0.0
O1180 O 0.17282 0.602 0.71071 0.0
Co1181 Co 0.20168 0.61374 0.69523 0.0
O1182 O 0.18498 0.62364 0.70618 0.0
C1183 C 0.2118 0.58825 0.71369 0.0
C1184 C 0.17836 0.56002 0.69718 0.0
C1185 C 0.1745 0.61624 0.71254 0.0
O1186 O 0.19861 0.58237 0.71311 0.0
O1187 O 0.21566 0.59973 0.70597 0.0
O1188 O 0.16825 0.59049 0.68141 0.0
O1189 O 0.19139 0.59799 0.68454 0.0
Co1190 Co 0.42191 0.18069 0.70043 0.0
O1191 O 0.44006 0.18634 0.69018 0.0
O1192 O 0.43881 0.16963 0.7085 0.0
C1193 C 0.40721 0.17815 0.6798 0.0
O1194 O 0.40522 0.17181 0.71337 0.0
Co1195 Co 0.39379 0.20138 0.69847 0.0
O1196 O 0.38385 0.18463 0.70929 0.0
C1197 C 0.41986 0.21065 0.71637 0.0
C1198 C 0.44702 0.17704 0.69896 0.0
C1199 C 0.39104 0.17386 0.71539 0.0
O1200 O 0.42527 0.19729 0.71559 0.0
O1201 O 0.40839 0.21497 0.7089 0.0
O1202 O 0.4161 0.16729 0.68379 0.0
O1203 O 0.40873 0.19037 0.68736 0.0
Co1204 Co 0.82665 0.42117 0.70105 0.0
O1205 O 0.82065 0.43927 0.69087 0.0
O1206 O 0.83768 0.43819 0.7089 0.0
C1207 C 0.82897 0.40651 0.68036 0.0
O1208 O 0.83597 0.40461 0.71386 0.0
Co1209 Co 0.80638 0.39273 0.69951 0.0
O1210 O 0.8235 0.38302 0.70994 0.0
C1211 C 0.7969 0.41881 0.71731 0.0
C1212 C 0.83006 0.44632 0.69947 0.0
C1213 C 0.83424 0.39039 0.71586 0.0
O1214 O 0.81021 0.42438 0.71644 0.0
O1215 O 0.79269 0.40724 0.70993 0.0
O1216 O 0.83981 0.4155 0.68416 0.0
O1217 O 0.81688 0.40787 0.68816 0.0
Co1218 Co 0.5843 0.82525 0.70122 0.0
O1219 O 0.56596 0.81959 0.69138 0.0
O1220 O 0.5675 0.83603 0.70991 0.0
C1221 C 0.59806 0.8281 0.68001 0.0
O1222 O 0.60121 0.83418 0.71384 0.0
Co1223 Co 0.61286 0.80545 0.69802 0.0
O1224 O 0.62282 0.82212 0.70894 0.0
C1225 C 0.58742 0.79506 0.71641 0.0
C1226 C 0.55914 0.82872 0.70043 0.0
C1227 C 0.61548 0.83254 0.71546 0.0
O1228 O 0.58158 0.80828 0.71611 0.0
O1229 O 0.59885 0.79132 0.70855 0.0
O1230 O 0.58954 0.83899 0.68467 0.0
O1231 O 0.59703 0.81582 0.68754 0.0
Co1232 Co 0.30457 0.1846 0.42155 0.0
O1233 O 0.3141 0.19091 0.4399 0.0
O1234 O 0.29552 0.17452 0.4386 0.0
C1235 C 0.32608 0.18109 0.4084 0.0
O1236 O 0.29218 0.17496 0.40481 0.0
Co1237 Co 0.30847 0.20271 0.39197 0.0
O1238 O 0.29811 0.18539 0.38263 0.0
C1239 C 0.28903 0.21444 0.41622 0.0
C1240 C 0.30491 0.18202 0.44687 0.0
C1241 C 0.29114 0.17561 0.3904 0.0
O1242 O 0.28979 0.20183 0.42329 0.0
O1243 O 0.29675 0.21728 0.40443 0.0
O1244 O 0.32114 0.17057 0.41723 0.0
O1245 O 0.31857 0.19341 0.40868 0.0
Co1246 Co 0.30623 0.82638 0.58552 0.0
O1247 O 0.31699 0.82187 0.56735 0.0
O1248 O 0.2977 0.83745 0.56885 0.0
C1249 C 0.32678 0.82934 0.60019 0.0
O1250 O 0.29274 0.83424 0.60226 0.0
Co1251 Co 0.30889 0.8055 0.61333 0.0
O1252 O 0.29719 0.82149 0.62356 0.0
C1253 C 0.29143 0.7958 0.58702 0.0
C1254 C 0.30781 0.83092 0.56059 0.0
C1255 C 0.29066 0.83202 0.61639 0.0
O1256 O 0.29193 0.80917 0.58159 0.0
O1257 O 0.29885 0.79171 0.59862 0.0
O1258 O 0.32211 0.84039 0.59188 0.0
O1259 O 0.31971 0.81687 0.5984 0.0
Co1260 Co 0.18095 0.3043 0.58511 0.0
O1261 O 0.18676 0.31465 0.56706 0.0
O1262 O 0.17011 0.29626 0.56805 0.0
C1263 C 0.17814 0.3249 0.59979 0.0
O1264 O 0.17188 0.29126 0.60164 0.0
Co1265 Co 0.20113 0.30627 0.6136 0.0
O1266 O 0.18425 0.2954 0.62326 0.0
C1267 C 0.21103 0.28869 0.58751 0.0
C1268 C 0.17752 0.3059 0.55997 0.0
C1269 C 0.17365 0.28925 0.61586 0.0
O1270 O 0.19773 0.28928 0.58191 0.0
O1271 O 0.21505 0.29615 0.59909 0.0
O1272 O 0.1674 0.32085 0.59078 0.0
O1273 O 0.19041 0.31737 0.59845 0.0
Co1274 Co 0.70002 0.18248 0.58375 0.0
O1275 O 0.68991 0.18857 0.56562 0.0
O1276 O 0.70808 0.17169 0.56669 0.0
C1277 C 0.67934 0.17984 0.59839 0.0
O1278 O 0.71281 0.17307 0.60023 0.0
Co1279 Co 0.69825 0.20238 0.61245 0.0
O1280 O 0.70878 0.18522 0.62199 0.0
C1281 C 0.71605 0.21231 0.58653 0.0
C1282 C 0.69868 0.17932 0.55855 0.0
C1283 C 0.71477 0.17461 0.61448 0.0
O1284 O 0.7153 0.19907 0.58079 0.0
O1285 O 0.7086 0.2163 0.59813 0.0
O1286 O 0.68322 0.16913 0.58926 0.0
O1287 O 0.68703 0.192 0.59714 0.0
Co1288 Co 0.82453 0.70013 0.58564 0.0
O1289 O 0.81969 0.68959 0.56742 0.0
O1290 O 0.83548 0.70869 0.56888 0.0
C1291 C 0.82744 0.67944 0.60018 0.0
O1292 O 0.83276 0.71337 0.60243 0.0
Co1293 Co 0.80383 0.69745 0.61361 0.0
O1294 O 0.82019 0.70866 0.62381 0.0
C1295 C 0.79408 0.71519 0.58754 0.0
C1296 C 0.82872 0.69875 0.56059 0.0
C1297 C 0.83074 0.71518 0.61664 0.0
O1298 O 0.80742 0.71465 0.58202 0.0
O1299 O 0.79 0.70771 0.5991 0.0
O1300 O 0.83843 0.68403 0.59174 0.0
O1301 O 0.81502 0.68664 0.59855 0.0
Co1302 Co 0.70004 0.82418 0.4229 0.0
O1303 O 0.6897 0.81811 0.44087 0.0
O1304 O 0.70762 0.83527 0.44002 0.0
C1305 C 0.67954 0.82631 0.40796 0.0
O1306 O 0.71296 0.83348 0.40638 0.0
Co1307 Co 0.69891 0.80349 0.39471 0.0
O1308 O 0.7093 0.82061 0.38495 0.0
C1309 C 0.71656 0.79455 0.42104 0.0
C1310 C 0.69821 0.8275 0.44805 0.0
C1311 C 0.71508 0.83152 0.39219 0.0
O1312 O 0.71552 0.80792 0.42637 0.0
O1313 O 0.70934 0.79007 0.40947 0.0
O1314 O 0.68314 0.8372 0.41698 0.0
O1315 O 0.68737 0.81427 0.40951 0.0
Co1316 Co 0.18511 0.7009 0.41938 0.0
O1317 O 0.19074 0.69017 0.43733 0.0
O1318 O 0.17494 0.7093 0.43665 0.0
C1319 C 0.18141 0.68053 0.40456 0.0
O1320 O 0.17613 0.7144 0.40314 0.0
Co1321 Co 0.20468 0.69861 0.39049 0.0
O1322 O 0.18884 0.71133 0.38149 0.0
C1323 C 0.21546 0.71628 0.4162 0.0
C1324 C 0.18203 0.69931 0.44459 0.0
C1325 C 0.17828 0.71725 0.38912 0.0
O1326 O 0.20245 0.71536 0.42244 0.0
O1327 O 0.21895 0.70903 0.40431 0.0
O1328 O 0.17094 0.68482 0.41378 0.0
O1329 O 0.19392 0.68765 0.40576 0.0
Co1330 Co 0.82396 0.30649 0.4208 0.0
O1331 O 0.81836 0.3171 0.43881 0.0
O1332 O 0.83466 0.2984 0.43788 0.0
C1333 C 0.82683 0.32692 0.40585 0.0
O1334 O 0.83297 0.29325 0.40442 0.0
Co1335 Co 0.8038 0.30814 0.39232 0.0
O1336 O 0.82069 0.29721 0.38273 0.0
C1337 C 0.79388 0.29071 0.41848 0.0
C1338 C 0.82742 0.30819 0.44593 0.0
C1339 C 0.83127 0.29113 0.39021 0.0
O1340 O 0.80713 0.29155 0.42417 0.0
O1341 O 0.78986 0.29798 0.40677 0.0
O1342 O 0.83758 0.32296 0.41489 0.0
O1343 O 0.81455 0.31945 0.40732 0.0
H1344 H 0.10406 0.23505 0.35206 0.0
H1345 H 0.14621 0.22173 0.33206 0.0
H1346 H 0.11724 0.25407 0.36687 0.0
H1347 H 0.15921 0.2405 0.34685 0.0
H1348 H 0.17516 0.28648 0.36041 0.0
H1349 H 0.16043 0.26801 0.34686 0.0
H1350 H 0.1363 0.25717 0.38745 0.0
H1351 H 0.15099 0.27588 0.40113 0.0
C1352 C 0.11611 0.23606 0.3509 0.0
C1353 C 0.12402 0.22691 0.34073 0.0
C1354 C 0.12366 0.24694 0.35941 0.0
C1355 C 0.13924 0.24893 0.35787 0.0
C1356 C 0.14716 0.23948 0.34806 0.0
C1357 C 0.13967 0.22863 0.33963 0.0
C1358 C 0.16667 0.28027 0.3665 0.0
C1359 C 0.16439 0.28263 0.38193 0.0
C1360 C 0.15828 0.26959 0.35871 0.0
C1361 C 0.14734 0.26097 0.36611 0.0
C1362 C 0.14463 0.26366 0.38142 0.0
C1363 C 0.15309 0.27435 0.38926 0.0
H1364 H 0.72131 0.17335 0.3587 0.0
H1365 H 0.73392 0.15276 0.40078 0.0
H1366 H 0.74009 0.15851 0.34576 0.0
H1367 H 0.75294 0.13789 0.38765 0.0
H1368 H 0.78624 0.14497 0.33034 0.0
H1369 H 0.76773 0.1584 0.34512 0.0
H1370 H 0.75607 0.11744 0.36817 0.0
H1371 H 0.7748 0.10383 0.35338 0.0
C1372 C 0.72804 0.16563 0.36523 0.0
C1373 C 0.72613 0.16439 0.38085 0.0
C1374 C 0.7389 0.15716 0.35778 0.0
C1375 C 0.74816 0.14717 0.3657 0.0
C1376 C 0.74596 0.14549 0.38124 0.0
C1377 C 0.73509 0.15404 0.38875 0.0
C1378 C 0.77984 0.13875 0.3386 0.0
C1379 C 0.78196 0.12323 0.34052 0.0
C1380 C 0.76915 0.14648 0.34703 0.0
C1381 C 0.76027 0.13895 0.35766 0.0
C1382 C 0.76275 0.12356 0.36007 0.0
C1383 C 0.77346 0.11576 0.35156 0.0
H1384 H 0.82141 0.73349 0.36821 0.0
H1385 H 0.859 0.72239 0.39663 0.0
H1386 H 0.83672 0.75132 0.35465 0.0
H1387 H 0.87484 0.73979 0.38237 0.0
H1388 H 0.89531 0.78246 0.36069 0.0
H1389 H 0.88071 0.76502 0.37617 0.0
H1390 H 0.85546 0.75179 0.3369 0.0
H1391 H 0.86932 0.76966 0.3219 0.0
C1392 C 0.83307 0.73472 0.37142 0.0
C1393 C 0.83905 0.7264 0.38337 0.0
C1394 C 0.84193 0.74491 0.36356 0.0
C1395 C 0.85718 0.74684 0.36714 0.0
C1396 C 0.86314 0.73869 0.37931 0.0
C1397 C 0.85411 0.72865 0.38744 0.0
C1398 C 0.88659 0.77581 0.35547 0.0
C1399 C 0.88327 0.7776 0.34016 0.0
C1400 C 0.87827 0.76575 0.36429 0.0
C1401 C 0.86667 0.75711 0.35789 0.0
C1402 C 0.86388 0.75857 0.34242 0.0
C1403 C 0.87192 0.76879 0.33374 0.0
H1404 H 0.23282 0.90341 0.35436 0.0
H1405 H 0.21497 0.86059 0.34016 0.0
H1406 H 0.25202 0.89038 0.36908 0.0
H1407 H 0.23403 0.84778 0.35479 0.0
H1408 H 0.27586 0.8574 0.40342 0.0
H1409 H 0.25615 0.87212 0.39116 0.0
H1410 H 0.26184 0.84601 0.35079 0.0
H1411 H 0.28136 0.83136 0.36284 0.0
C1412 C 0.2328 0.89126 0.35457 0.0
C1413 C 0.22247 0.88306 0.34588 0.0
C1414 C 0.2438 0.88382 0.363 0.0
C1415 C 0.24469 0.86808 0.36282 0.0
C1416 C 0.23383 0.85993 0.35485 0.0
C1417 C 0.22285 0.8673 0.34652 0.0
C1418 C 0.273 0.85489 0.39188 0.0
C1419 C 0.28014 0.84308 0.38418 0.0
C1420 C 0.26173 0.86334 0.38488 0.0
C1421 C 0.2573 0.86004 0.37012 0.0
C1422 C 0.2648 0.8486 0.36229 0.0
C1423 C 0.27608 0.84027 0.36919 0.0
H1424 H 0.16216 0.74095 0.60169 0.0
H1425 H 0.15892 0.7123 0.64065 0.0
H1426 H 0.14628 0.75964 0.61419 0.0
H1427 H 0.14266 0.73079 0.65287 0.0
H1428 H 0.10245 0.76394 0.6617 0.0
H1429 H 0.11492 0.74525 0.6458 0.0
H1430 H 0.15345 0.77424 0.64185 0.0
H1431 H 0.14126 0.79274 0.65813 0.0
C1432 C 0.15777 0.7385 0.61276 0.0
C1433 C 0.16179 0.72521 0.62024 0.0
C1434 C 0.14876 0.7492 0.61989 0.0
C1435 C 0.14329 0.74657 0.63442 0.0
C1436 C 0.14669 0.73299 0.64161 0.0
C1437 C 0.15602 0.72247 0.63465 0.0
C1438 C 0.11348 0.76642 0.65724 0.0
C1439 C 0.12093 0.77976 0.66117 0.0
C1440 C 0.1206 0.75572 0.64821 0.0
C1441 C 0.13508 0.75839 0.64264 0.0
C1442 C 0.14223 0.77202 0.64596 0.0
C1443 C 0.13529 0.78254 0.65529 0.0
H1444 H 0.28686 0.173 0.64695 0.0
H1445 H 0.27434 0.15232 0.60489 0.0
H1446 H 0.26821 0.15798 0.65991 0.0
H1447 H 0.25548 0.13727 0.61804 0.0
H1448 H 0.22183 0.14476 0.67494 0.0
H1449 H 0.24046 0.15802 0.66019 0.0
H1450 H 0.25237 0.1168 0.63775 0.0
H1451 H 0.23351 0.10333 0.65256 0.0
C1452 C 0.28019 0.16521 0.64044 0.0
C1453 C 0.28205 0.16402 0.62481 0.0
C1454 C 0.26942 0.15664 0.64789 0.0
C1455 C 0.26021 0.1466 0.63997 0.0
C1456 C 0.26242 0.14491 0.62444 0.0
C1457 C 0.2732 0.15358 0.61692 0.0
C1458 C 0.22831 0.13845 0.66683 0.0
C1459 C 0.22622 0.1229 0.6651 0.0
C1460 C 0.23907 0.14608 0.65842 0.0
C1461 C 0.24806 0.13842 0.64798 0.0
C1462 C 0.24561 0.123 0.64572 0.0
C1463 C 0.23482 0.1153 0.65423 0.0
H1464 H 0.84564 0.29501 0.64326 0.0
H1465 H 0.8438 0.26713 0.60366 0.0
H1466 H 0.86102 0.27601 0.65586 0.0
H1467 H 0.85877 0.24796 0.61652 0.0
H1468 H 0.86237 0.21417 0.66048 0.0
H1469 H 0.85014 0.23328 0.64492 0.0
H1470 H 0.88955 0.26115 0.64796 0.0
H1471 H 0.90205 0.24187 0.66311 0.0
C1472 C 0.84862 0.2849 0.63722 0.0
C1473 C 0.84353 0.28255 0.62248 0.0
C1474 C 0.85743 0.27408 0.64441 0.0
C1475 C 0.86099 0.2606 0.63712 0.0
C1476 C 0.85615 0.25832 0.62232 0.0
C1477 C 0.84766 0.26929 0.61498 0.0
C1478 C 0.86849 0.22429 0.65766 0.0
C1479 C 0.88316 0.22654 0.663 0.0
C1480 C 0.86152 0.23515 0.64874 0.0
C1481 C 0.86895 0.2486 0.64532 0.0
C1482 C 0.88365 0.25082 0.65047 0.0
C1483 C 0.89078 0.23979 0.65907 0.0
H1484 H 0.77293 0.90137 0.6533 0.0
H1485 H 0.78363 0.86049 0.67715 0.0
H1486 H 0.75434 0.88768 0.63842 0.0
H1487 H 0.76529 0.84698 0.66227 0.0
H1488 H 0.73305 0.85179 0.60579 0.0
H1489 H 0.75168 0.86692 0.61916 0.0
H1490 H 0.73766 0.84707 0.66106 0.0
H1491 H 0.71926 0.83196 0.64789 0.0
C1492 C 0.77144 0.88948 0.6553 0.0
C1493 C 0.7797 0.88209 0.66656 0.0
C1494 C 0.76082 0.88164 0.64673 0.0
C1495 C 0.75821 0.8663 0.64932 0.0
C1496 C 0.76682 0.85886 0.66022 0.0
C1497 C 0.77741 0.86663 0.66871 0.0
C1498 C 0.73387 0.85074 0.61787 0.0
C1499 C 0.72473 0.84051 0.62572 0.0
C1500 C 0.74452 0.85944 0.62552 0.0
C1501 C 0.74628 0.85802 0.64113 0.0
C1502 C 0.7368 0.84819 0.64899 0.0
C1503 C 0.72617 0.83957 0.64141 0.0
H1504 H 0.35382 0.10283 0.2351 0.0
H1505 H 0.3313 0.14424 0.22367 0.0
H1506 H 0.36857 0.11618 0.25402 0.0
H1507 H 0.34607 0.15744 0.24233 0.0
H1508 H 0.40182 0.15102 0.27571 0.0
H1509 H 0.38826 0.13607 0.2571 0.0
H1510 H 0.34691 0.15786 0.26982 0.0
H1511 H 0.36032 0.17283 0.28818 0.0
C1512 C 0.35209 0.11477 0.2365 0.0
C1513 C 0.34124 0.12241 0.22793 0.0
C1514 C 0.36057 0.12241 0.24732 0.0
C1515 C 0.35833 0.13782 0.24981 0.0
C1516 C 0.34784 0.14551 0.24092 0.0
C1517 C 0.33942 0.13792 0.23013 0.0
C1518 C 0.38981 0.15252 0.27463 0.0
C1519 C 0.38221 0.16328 0.28336 0.0
C1520 C 0.38205 0.14393 0.26399 0.0
C1521 C 0.36656 0.14596 0.26183 0.0
C1522 C 0.3589 0.15627 0.27097 0.0
C1523 C 0.36661 0.16481 0.28157 0.0
H1524 H 0.90052 0.34481 0.24001 0.0
H1525 H 0.86116 0.34695 0.21183 0.0
H1526 H 0.88752 0.35964 0.25921 0.0
H1527 H 0.84842 0.3622 0.23087 0.0
H1528 H 0.84087 0.40294 0.26512 0.0
H1529 H 0.85615 0.39052 0.2459 0.0
H1530 H 0.85912 0.35106 0.27371 0.0
H1531 H 0.84343 0.36322 0.29277 0.0
C1532 C 0.88922 0.34871 0.23779 0.0
C1533 C 0.88183 0.34471 0.22444 0.0
C1534 C 0.88181 0.35711 0.24879 0.0
C1535 C 0.86704 0.362 0.24643 0.0
C1536 C 0.85985 0.35857 0.23286 0.0
C1537 C 0.86711 0.34984 0.22202 0.0
C1538 C 0.84492 0.39168 0.26721 0.0
C1539 C 0.84094 0.38402 0.28043 0.0
C1540 C 0.8536 0.3846 0.2562 0.0
C1541 C 0.85877 0.3699 0.25842 0.0
C1542 C 0.85529 0.36244 0.27184 0.0
C1543 C 0.8463 0.36936 0.28268 0.0
H1544 H 0.65186 0.90167 0.23394 0.0
H1545 H 0.67589 0.86076 0.22384 0.0
H1546 H 0.63713 0.8882 0.25285 0.0
H1547 H 0.66121 0.8475 0.24251 0.0
H1548 H 0.60476 0.85193 0.27451 0.0
H1549 H 0.618 0.86721 0.25588 0.0
H1550 H 0.66011 0.8481 0.27022 0.0
H1551 H 0.64707 0.83286 0.28863 0.0
C1552 C 0.65393 0.88983 0.23563 0.0
C1553 C 0.6652 0.88237 0.22743 0.0
C1554 C 0.64546 0.88212 0.24644 0.0
C1555 C 0.64817 0.86685 0.24933 0.0
C1556 C 0.65907 0.85933 0.24078 0.0
C1557 C 0.66744 0.86696 0.22999 0.0
C1558 C 0.61686 0.8511 0.27379 0.0
C1559 C 0.6248 0.841 0.28299 0.0
C1560 C 0.62443 0.85989 0.26313 0.0
C1561 C 0.64007 0.85868 0.26142 0.0
C1562 C 0.64802 0.84905 0.27104 0.0
C1563 C 0.64051 0.84036 0.28167 0.0
H1564 H 0.10413 0.65202 0.23279 0.0
H1565 H 0.14498 0.67588 0.22201 0.0
H1566 H 0.11784 0.63716 0.25138 0.0
H1567 H 0.15852 0.66103 0.24036 0.0
H1568 H 0.17372 0.64663 0.28637 0.0
H1569 H 0.15864 0.6598 0.26794 0.0
H1570 H 0.13845 0.61796 0.25427 0.0
H1571 H 0.15355 0.60461 0.27294 0.0
C1572 C 0.11603 0.65402 0.23425 0.0
C1573 C 0.12338 0.66529 0.22596 0.0
C1574 C 0.12388 0.64547 0.24488 0.0
C1575 C 0.13921 0.64808 0.2475 0.0
C1576 C 0.14664 0.65896 0.23885 0.0
C1577 C 0.13885 0.66743 0.22823 0.0
C1578 C 0.16603 0.64017 0.27954 0.0
C1579 C 0.16499 0.6245 0.2811 0.0
C1580 C 0.15743 0.64774 0.26888 0.0
C1581 C 0.14751 0.63991 0.25947 0.0
C1582 C 0.14599 0.62432 0.26137 0.0
C1583 C 0.15467 0.61668 0.27204 0.0
H1584 H 0.3299 0.86103 0.78676 0.0
H1585 H 0.35139 0.90249 0.77361 0.0
H1586 H 0.3452 0.84741 0.76883 0.0
H1587 H 0.36664 0.88872 0.75542 0.0
H1588 H 0.35986 0.8309 0.72322 0.0
H1589 H 0.34617 0.84574 0.74147 0.0
H1590 H 0.38682 0.86942 0.75299 0.0
H1591 H 0.40066 0.85462 0.73447 0.0
C1592 C 0.33791 0.86727 0.78009 0.0
C1593 C 0.33928 0.88292 0.78158 0.0
C1594 C 0.34664 0.85944 0.76972 0.0
C1595 C 0.35699 0.867 0.76054 0.0
C1596 C 0.35879 0.88257 0.76236 0.0
C1597 C 0.35 0.89046 0.77275 0.0
C1598 C 0.36595 0.83928 0.72957 0.0
C1599 C 0.38143 0.84145 0.72741 0.0
C1600 C 0.35808 0.84774 0.74012 0.0
C1601 C 0.36543 0.85862 0.74884 0.0
C1602 C 0.38082 0.86114 0.74642 0.0
C1603 C 0.38875 0.85262 0.73584 0.0
H1604 H 0.1523 0.40162 0.73007 0.0
H1605 H 0.17668 0.36081 0.7204 0.0
H1606 H 0.13786 0.38834 0.74928 0.0
H1607 H 0.16223 0.34768 0.73941 0.0
H1608 H 0.106 0.35259 0.7721 0.0
H1609 H 0.11894 0.36737 0.75286 0.0
H1610 H 0.16131 0.34876 0.76711 0.0
H1611 H 0.14857 0.33403 0.78612 0.0
C1612 C 0.15451 0.38982 0.73192 0.0
C1613 C 0.16578 0.38234 0.72374 0.0
C1614 C 0.14619 0.38221 0.7429 0.0
C1615 C 0.14904 0.36702 0.746 0.0
C1616 C 0.15996 0.35947 0.7375 0.0
C1617 C 0.1682 0.367 0.72652 0.0
C1618 C 0.11809 0.35177 0.77122 0.0
C1619 C 0.1262 0.34197 0.78059 0.0
C1620 C 0.12549 0.36026 0.76021 0.0
C1621 C 0.14111 0.35904 0.75832 0.0
C1622 C 0.14923 0.3497 0.76806 0.0
C1623 C 0.14189 0.3413 0.77904 0.0
H1624 H 0.60566 0.15198 0.73205 0.0
H1625 H 0.64631 0.17659 0.72227 0.0
H1626 H 0.61917 0.13733 0.75093 0.0
H1627 H 0.65969 0.16191 0.74091 0.0
H1628 H 0.67434 0.14708 0.78697 0.0
H1629 H 0.65946 0.16029 0.7684 0.0
H1630 H 0.63982 0.11841 0.75407 0.0
H1631 H 0.65471 0.10503 0.77287 0.0
C1632 C 0.61748 0.1542 0.73381 0.0
C1633 C 0.62484 0.16559 0.72569 0.0
C1634 C 0.62522 0.14576 0.7446 0.0
C1635 C 0.64045 0.14859 0.74756 0.0
C1636 C 0.64788 0.15966 0.73913 0.0
C1637 C 0.6402 0.16802 0.72835 0.0
C1638 C 0.66681 0.14061 0.77996 0.0
C1639 C 0.66587 0.12492 0.78138 0.0
C1640 C 0.65833 0.14822 0.76923 0.0
C1641 C 0.64863 0.14039 0.7596 0.0
C1642 C 0.64719 0.12477 0.76134 0.0
C1643 C 0.65575 0.1171 0.7721 0.0
H1644 H 0.86768 0.68469 0.77428 0.0
H1645 H 0.89599 0.64677 0.7845 0.0
H1646 H 0.85384 0.6697 0.75636 0.0
H1647 H 0.88148 0.63129 0.7671 0.0
H1648 H 0.86029 0.61125 0.72444 0.0
H1649 H 0.87551 0.62578 0.74206 0.0
H1650 H 0.83612 0.65114 0.75477 0.0
H1651 H 0.82136 0.63732 0.73663 0.0
C1652 C 0.8708 0.67303 0.77285 0.0
C1653 C 0.88285 0.66689 0.78091 0.0
C1654 C 0.86277 0.66435 0.76261 0.0
C1655 C 0.86631 0.64913 0.76036 0.0
C1656 C 0.87848 0.64298 0.76837 0.0
C1657 C 0.88675 0.65181 0.77843 0.0
C1658 C 0.85497 0.61998 0.731 0.0
C1659 C 0.8397 0.62329 0.729 0.0
C1660 C 0.86366 0.62826 0.74119 0.0
C1661 C 0.85716 0.63984 0.7498 0.0
C1662 C 0.84173 0.64271 0.74806 0.0
C1663 C 0.83318 0.63469 0.73769 0.0
H1664 H 0.23324 0.35346 0.10491 0.0
H1665 H 0.22306 0.33068 0.14653 0.0
H1666 H 0.25224 0.36846 0.11791 0.0
H1667 H 0.24182 0.34564 0.15934 0.0
H1668 H 0.28822 0.35981 0.17328 0.0
H1669 H 0.26953 0.34649 0.15864 0.0
H1670 H 0.25553 0.38812 0.13825 0.0
H1671 H 0.27444 0.40162 0.1529 0.0
C1672 C 0.23491 0.35174 0.11682 0.0
C1673 C 0.22668 0.34072 0.12461 0.0
C1674 C 0.24578 0.36036 0.12426 0.0
C1675 C 0.24869 0.35807 0.13959 0.0
C1676 C 0.24008 0.34745 0.14745 0.0
C1677 C 0.22923 0.33892 0.14008 0.0
C1678 C 0.28127 0.36619 0.16562 0.0
C1679 C 0.28278 0.38185 0.16442 0.0
C1680 C 0.27048 0.35853 0.15728 0.0
C1681 C 0.26089 0.36628 0.14747 0.0
C1682 C 0.26277 0.38184 0.14572 0.0
C1683 C 0.27358 0.38956 0.15415 0.0
H1684 H 0.24226 0.66197 0.90387 0.0
H1685 H 0.21377 0.65775 0.86492 0.0
H1686 H 0.26144 0.64661 0.89143 0.0
H1687 H 0.23274 0.64201 0.85276 0.0
H1688 H 0.26651 0.60239 0.84432 0.0
H1689 H 0.24761 0.61475 0.86002 0.0
H1690 H 0.27611 0.65366 0.86378 0.0
H1691 H 0.29485 0.64156 0.8477 0.0
C1692 C 0.23997 0.65749 0.89281 0.0
C1693 C 0.22655 0.66106 0.88533 0.0
C1694 C 0.25095 0.64879 0.8857 0.0
C1695 C 0.24849 0.64317 0.8712 0.0
C1696 C 0.23481 0.64617 0.864 0.0
C1697 C 0.22401 0.65518 0.87092 0.0
C1698 C 0.26885 0.61349 0.84869 0.0
C1699 C 0.28213 0.62104 0.84475 0.0
C1700 C 0.25802 0.62054 0.8576 0.0
C1701 C 0.26048 0.63509 0.86307 0.0
C1702 C 0.27404 0.64238 0.85975 0.0
C1703 C 0.2847 0.63549 0.85052 0.0
H1704 H 0.40265 0.27282 0.85395 0.0
H1705 H 0.35997 0.2866 0.83545 0.0
H1706 H 0.38974 0.254 0.86933 0.0
H1707 H 0.3473 0.26798 0.85071 0.0
H1708 H 0.33237 0.22127 0.86267 0.0
H1709 H 0.34714 0.23995 0.84952 0.0
H1710 H 0.37022 0.251 0.89062 0.0
H1711 H 0.35536 0.2321 0.904 0.0
C1712 C 0.39055 0.27199 0.85328 0.0
C1713 C 0.3824 0.28112 0.84329 0.0
C1714 C 0.38318 0.26123 0.8621 0.0
C1715 C 0.36755 0.25936 0.86101 0.0
C1716 C 0.35939 0.26894 0.85155 0.0
C1717 C 0.36669 0.27968 0.84283 0.0
C1718 C 0.34063 0.22756 0.86898 0.0
C1719 C 0.34252 0.22525 0.88448 0.0
C1720 C 0.34905 0.23834 0.86141 0.0
C1721 C 0.35965 0.24711 0.86909 0.0
C1722 C 0.3621 0.24441 0.88443 0.0
C1723 C 0.35357 0.23361 0.89208 0.0
H1724 H 0.73473 0.4014 0.85443 0.0
H1725 H 0.72381 0.35915 0.83323 0.0
H1726 H 0.75412 0.38876 0.86929 0.0
H1727 H 0.74299 0.34675 0.84799 0.0
H1728 H 0.78989 0.33332 0.86076 0.0
H1729 H 0.77101 0.34797 0.84773 0.0
H1730 H 0.75759 0.36834 0.88955 0.0
H1731 H 0.77665 0.35362 0.90281 0.0
C1732 C 0.73633 0.38944 0.85302 0.0
C1733 C 0.72776 0.38136 0.84249 0.0
C1734 C 0.74742 0.38222 0.86156 0.0
C1735 C 0.75023 0.36682 0.85962 0.0
C1736 C 0.74131 0.35869 0.8495 0.0
C1737 C 0.73023 0.36583 0.84109 0.0
C1738 C 0.78305 0.34099 0.86726 0.0
C1739 C 0.78473 0.34212 0.88291 0.0
C1740 C 0.77215 0.34934 0.85975 0.0
C1741 C 0.76266 0.35913 0.86765 0.0
C1742 C 0.76475 0.36087 0.88318 0.0
C1743 C 0.77565 0.35241 0.89076 0.0
H1744 H 0.60213 0.7377 0.84449 0.0
H1745 H 0.64224 0.71062 0.84703 0.0
H1746 H 0.61422 0.75699 0.8599 0.0
H1747 H 0.65408 0.72976 0.86286 0.0
H1748 H 0.66121 0.76405 0.90324 0.0
H1749 H 0.64625 0.74445 0.89098 0.0
H1750 H 0.64169 0.7724 0.85176 0.0
H1751 H 0.65706 0.7918 0.86373 0.0
C1752 C 0.61339 0.73571 0.84862 0.0
C1753 C 0.62127 0.72267 0.84453 0.0
C1754 C 0.62028 0.74677 0.85737 0.0
C1755 C 0.63502 0.74477 0.86252 0.0
C1756 C 0.64266 0.73146 0.85905 0.0
C1757 C 0.63592 0.72057 0.84998 0.0
C1758 C 0.65682 0.76609 0.89209 0.0
C1759 C 0.6603 0.77943 0.88441 0.0
C1760 C 0.64835 0.75487 0.8851 0.0
C1761 C 0.64287 0.757 0.87049 0.0
C1762 C 0.64576 0.77058 0.86307 0.0
C1763 C 0.65456 0.78163 0.8699 0.0
H1764 H 0.77364 0.65336 0.104 0.0
H1765 H 0.78572 0.67574 0.14532 0.0
H1766 H 0.75482 0.6387 0.11757 0.0
H1767 H 0.76716 0.66102 0.15875 0.0
H1768 H 0.73275 0.60564 0.15193 0.0
H1769 H 0.75168 0.61904 0.13725 0.0
H1770 H 0.73977 0.6603 0.15965 0.0
H1771 H 0.7211 0.64704 0.17438 0.0
C1772 C 0.77241 0.65507 0.11597 0.0
C1773 C 0.78113 0.66586 0.12352 0.0
C1774 C 0.76165 0.64663 0.12374 0.0
C1775 C 0.75936 0.64884 0.13919 0.0
C1776 C 0.76841 0.65927 0.14679 0.0
C1777 C 0.77914 0.66766 0.13907 0.0
C1778 C 0.7341 0.61759 0.15366 0.0
C1779 C 0.72546 0.62521 0.16446 0.0
C1780 C 0.74493 0.62526 0.1452 0.0
C1781 C 0.74736 0.64069 0.14743 0.0
C1782 C 0.73841 0.64835 0.1579 0.0
C1783 C 0.72762 0.64073 0.16629 0.0
H1784 H 0.35376 0.7746 0.10292 0.0
H1785 H 0.33051 0.78624 0.14389 0.0
H1786 H 0.3683 0.75581 0.1166 0.0
H1787 H 0.34513 0.7677 0.15747 0.0
H1788 H 0.35963 0.72192 0.17335 0.0
H1789 H 0.3463 0.7404 0.15846 0.0
H1790 H 0.38765 0.75272 0.1364 0.0
H1791 H 0.40111 0.73397 0.15124 0.0
C1792 C 0.35182 0.77327 0.11484 0.0
C1793 C 0.34084 0.78188 0.12225 0.0
C1794 C 0.3602 0.76253 0.12269 0.0
C1795 C 0.35775 0.76013 0.13809 0.0
C1796 C 0.34708 0.76904 0.14554 0.0
C1797 C 0.33875 0.77976 0.13775 0.0
C1798 C 0.36594 0.72848 0.16529 0.0
C1799 C 0.38151 0.7265 0.16362 0.0
C1800 C 0.35828 0.73917 0.15681 0.0
C1801 C 0.36594 0.74819 0.1464 0.0
C1802 C 0.38141 0.74591 0.14431 0.0
C1803 C 0.38913 0.73519 0.15285 0.0
H1804 H 0.67341 0.22161 0.14465 0.0
H1805 H 0.64959 0.2324 0.10378 0.0
H1806 H 0.65869 0.24007 0.15815 0.0
H1807 H 0.63481 0.25109 0.11749 0.0
H1808 H 0.64518 0.28638 0.1729 0.0
H1809 H 0.65796 0.2679 0.15757 0.0
H1810 H 0.61562 0.25392 0.13871 0.0
H1811 H 0.60262 0.27263 0.15411 0.0
C1812 C 0.66499 0.22785 0.13851 0.0
C1813 C 0.66284 0.22557 0.12304 0.0
C1814 C 0.65659 0.23852 0.14627 0.0
C1815 C 0.64576 0.2472 0.13884 0.0
C1816 C 0.6431 0.24456 0.12351 0.0
C1817 C 0.6516 0.23388 0.11567 0.0
C1818 C 0.63851 0.27947 0.16546 0.0
C1819 C 0.6228 0.28093 0.16491 0.0
C1820 C 0.64587 0.2688 0.15671 0.0
C1821 C 0.63777 0.25928 0.14712 0.0
C1822 C 0.62214 0.2611 0.14601 0.0
C1823 C 0.61471 0.2718 0.15486 0.0
H1824 H 0.85884 0.78658 0.67525 0.0
H1825 H 0.90089 0.77313 0.65513 0.0
H1826 H 0.8457 0.76806 0.66024 0.0
H1827 H 0.88758 0.75437 0.64012 0.0
H1828 H 0.85394 0.73255 0.60583 0.0
H1829 H 0.86856 0.75134 0.61952 0.0
H1830 H 0.84429 0.7406 0.66005 0.0
H1831 H 0.82966 0.72206 0.64651 0.0
C1832 C 0.86532 0.77971 0.66759 0.0
C1833 C 0.88099 0.78131 0.66654 0.0
C1834 C 0.85776 0.76901 0.65903 0.0
C1835 C 0.86561 0.75958 0.64914 0.0
C1836 C 0.8812 0.76148 0.64763 0.0
C1837 C 0.88883 0.77221 0.65627 0.0
C1838 C 0.85178 0.73413 0.61768 0.0
C1839 C 0.84049 0.72584 0.625 0.0
C1840 C 0.8602 0.74487 0.62553 0.0
C1841 C 0.85745 0.7476 0.64083 0.0
C1842 C 0.84648 0.739 0.6482 0.0
C1843 C 0.83814 0.72828 0.64042 0.0
H1844 H 0.21729 0.85872 0.67348 0.0
H1845 H 0.23068 0.90089 0.65359 0.0
H1846 H 0.23636 0.8458 0.65894 0.0
H1847 H 0.24997 0.88784 0.6391 0.0
H1848 H 0.27323 0.85502 0.60539 0.0
H1849 H 0.25382 0.86913 0.61867 0.0
H1850 H 0.26378 0.84459 0.65924 0.0
H1851 H 0.28296 0.83043 0.64606 0.0
C1852 C 0.22425 0.86527 0.66597 0.0
C1853 C 0.22247 0.88091 0.66483 0.0
C1854 C 0.23527 0.85784 0.65769 0.0
C1855 C 0.24483 0.86581 0.64801 0.0
C1856 C 0.24276 0.88137 0.64643 0.0
C1857 C 0.23172 0.88885 0.65478 0.0
C1858 C 0.27135 0.8527 0.61716 0.0
C1859 C 0.27963 0.84148 0.62459 0.0
C1860 C 0.26024 0.86082 0.62478 0.0
C1861 C 0.25712 0.85786 0.63996 0.0
C1862 C 0.26568 0.84694 0.64746 0.0
C1863 C 0.27677 0.83888 0.6399 0.0
H1864 H 0.14541 0.21829 0.67455 0.0
H1865 H 0.10373 0.22993 0.65265 0.0
H1866 H 0.1585 0.23685 0.65952 0.0
H1867 H 0.11697 0.24872 0.63764 0.0
H1868 H 0.15134 0.27118 0.60433 0.0
H1869 H 0.13674 0.25213 0.61771 0.0
H1870 H 0.15871 0.26441 0.65909 0.0
H1871 H 0.1733 0.2832 0.64589 0.0
C1872 C 0.13901 0.22474 0.66649 0.0
C1873 C 0.12345 0.22267 0.66496 0.0
C1874 C 0.14654 0.23547 0.65792 0.0
C1875 C 0.13874 0.24443 0.64756 0.0
C1876 C 0.12329 0.24198 0.64553 0.0
C1877 C 0.11571 0.23123 0.65416 0.0
C1878 C 0.15296 0.2699 0.61631 0.0
C1879 C 0.16364 0.27866 0.62397 0.0
C1880 C 0.14457 0.259 0.62397 0.0
C1881 C 0.14675 0.2566 0.63941 0.0
C1882 C 0.15701 0.26573 0.64712 0.0
C1883 C 0.16533 0.2766 0.63953 0.0
H1884 H 0.77373 0.10385 0.65046 0.0
H1885 H 0.78575 0.14552 0.67221 0.0
H1886 H 0.75477 0.11717 0.63569 0.0
H1887 H 0.76704 0.15865 0.65746 0.0
H1888 H 0.73251 0.15221 0.60264 0.0
H1889 H 0.75141 0.13723 0.61579 0.0
H1890 H 0.73938 0.15875 0.65748 0.0
H1891 H 0.72072 0.17371 0.64451 0.0
C1892 C 0.77247 0.11584 0.65199 0.0
C1893 C 0.78118 0.12355 0.66268 0.0
C1894 C 0.76163 0.12346 0.6435 0.0
C1895 C 0.75925 0.13891 0.6456 0.0
C1896 C 0.76837 0.14668 0.65583 0.0
C1897 C 0.77917 0.13913 0.66424 0.0
C1898 C 0.7338 0.15364 0.61464 0.0
C1899 C 0.72518 0.16432 0.62246 0.0
C1900 C 0.74461 0.14503 0.62216 0.0
C1901 C 0.74704 0.14699 0.63762 0.0
C1902 C 0.73801 0.15722 0.6455 0.0
C1903 C 0.72723 0.16575 0.63804 0.0
H1904 H 0.86031 0.21953 0.33287 0.0
H1905 H 0.90216 0.23277 0.3535 0.0
H1906 H 0.84706 0.23803 0.34778 0.0
H1907 H 0.88872 0.25152 0.36845 0.0
H1908 H 0.85408 0.27379 0.40188 0.0
H1909 H 0.86903 0.25483 0.38875 0.0
H1910 H 0.8463 0.26565 0.34738 0.0
H1911 H 0.83139 0.28436 0.36033 0.0
C1912 C 0.86672 0.22633 0.34063 0.0
C1913 C 0.88238 0.22473 0.34182 0.0
C1914 C 0.85909 0.23701 0.34914 0.0
C1915 C 0.86687 0.24642 0.3591 0.0
C1916 C 0.88242 0.24443 0.36085 0.0
C1917 C 0.89011 0.2337 0.35227 0.0
C1918 C 0.85236 0.2722 0.38996 0.0
C1919 C 0.84139 0.28053 0.38223 0.0
C1920 C 0.86096 0.26136 0.38244 0.0
C1921 C 0.85868 0.25858 0.36708 0.0
C1922 C 0.8481 0.26728 0.35929 0.0
C1923 C 0.83959 0.27809 0.36674 0.0
H1924 H 0.78584 0.85898 0.33323 0.0
H1925 H 0.7742 0.90118 0.35413 0.0
H1926 H 0.76707 0.8463 0.34835 0.0
H1927 H 0.7552 0.88833 0.36926 0.0
H1928 H 0.73301 0.85416 0.40338 0.0
H1929 H 0.75189 0.86875 0.3897 0.0
H1930 H 0.73939 0.84635 0.34863 0.0
H1931 H 0.72075 0.83182 0.3621 0.0
C1932 C 0.77934 0.86558 0.34108 0.0
C1933 C 0.78149 0.88116 0.34232 0.0
C1934 C 0.76849 0.85829 0.34971 0.0
C1935 C 0.75949 0.86634 0.35984 0.0
C1936 C 0.76197 0.88182 0.36155 0.0
C1937 C 0.77283 0.88917 0.35284 0.0
C1938 C 0.73419 0.85247 0.3914 0.0
C1939 C 0.72544 0.84166 0.38391 0.0
C1940 C 0.74499 0.86084 0.38358 0.0
C1941 C 0.7473 0.85851 0.36814 0.0
C1942 C 0.73813 0.84817 0.36058 0.0
C1943 C 0.72736 0.83988 0.36833 0.0
H1944 H 0.14837 0.72343 0.39371 0.0
H1945 H 0.18684 0.73667 0.36747 0.0
H1946 H 0.13277 0.74124 0.37974 0.0
H1947 H 0.17178 0.755 0.3543 0.0
H1948 H 0.14016 0.77477 0.32128 0.0
H1949 H 0.15405 0.75659 0.33588 0.0
H1950 H 0.12622 0.76624 0.37447 0.0
H1951 H 0.11162 0.78389 0.35931 0.0
C1952 C 0.1535 0.73028 0.38508 0.0
C1953 C 0.16875 0.7285 0.3815 0.0
C1954 C 0.14461 0.74057 0.37712 0.0
C1955 C 0.15088 0.74948 0.36564 0.0
C1956 C 0.16632 0.74803 0.36262 0.0
C1957 C 0.17505 0.73756 0.37027 0.0
C1958 C 0.13701 0.77304 0.33289 0.0
C1959 C 0.1249 0.78089 0.33919 0.0
C1960 C 0.14506 0.76265 0.34136 0.0
C1961 C 0.14154 0.76006 0.35655 0.0
C1962 C 0.12925 0.7678 0.36282 0.0
C1963 C 0.12092 0.778 0.35417 0.0
H1964 H 0.23168 0.10512 0.35436 0.0
H1965 H 0.22015 0.14682 0.33241 0.0
H1966 H 0.25073 0.11833 0.36915 0.0
H1967 H 0.239 0.15981 0.34712 0.0
H1968 H 0.27272 0.15376 0.40235 0.0
H1969 H 0.25381 0.13882 0.38912 0.0
H1970 H 0.26691 0.15937 0.34727 0.0
H1971 H 0.28563 0.17423 0.36028 0.0
C1972 C 0.23309 0.11708 0.35276 0.0
C1973 C 0.22443 0.12485 0.34206 0.0
C1974 C 0.24397 0.12464 0.36127 0.0
C1975 C 0.2465 0.14006 0.35915 0.0
C1976 C 0.23752 0.14787 0.34882 0.0
C1977 C 0.22663 0.14039 0.34042 0.0
C1978 C 0.27166 0.15499 0.3903 0.0
C1979 C 0.28064 0.16535 0.38244 0.0
C1980 C 0.26085 0.1464 0.38274 0.0
C1981 C 0.25872 0.14809 0.3672 0.0
C1982 C 0.26806 0.15803 0.3593 0.0
C1983 C 0.27888 0.1665 0.36679 0.0
H1984 H 0.65269 0.90241 0.77464 0.0
H1985 H 0.67328 0.86038 0.78737 0.0
H1986 H 0.63802 0.88929 0.75548 0.0
H1987 H 0.65861 0.84743 0.76844 0.0
H1988 H 0.60425 0.85534 0.73308 0.0
H1989 H 0.61767 0.86992 0.75209 0.0
H1990 H 0.65869 0.84678 0.74081 0.0
H1991 H 0.64543 0.83221 0.72202 0.0
C1992 C 0.65401 0.89039 0.77347 0.0
C1993 C 0.6643 0.8825 0.7825 0.0
C1994 C 0.64556 0.88288 0.76252 0.0
C1995 C 0.64731 0.86736 0.76031 0.0
C1996 C 0.65723 0.85944 0.76964 0.0
C1997 C 0.66559 0.86689 0.78059 0.0
C1998 C 0.61616 0.85345 0.73457 0.0
C1999 C 0.6237 0.84247 0.72607 0.0
C2000 C 0.62385 0.86184 0.74544 0.0
C2001 C 0.6392 0.85935 0.7481 0.0
C2002 C 0.6468 0.84875 0.73926 0.0
C2003 C 0.63918 0.84044 0.72839 0.0
H2004 H 0.15255 0.60452 0.73085 0.0
H2005 H 0.17402 0.64629 0.71871 0.0
H2006 H 0.13814 0.61762 0.75016 0.0
H2007 H 0.15953 0.65928 0.73777 0.0
H2008 H 0.10515 0.65076 0.77373 0.0
H2009 H 0.11833 0.6367 0.75423 0.0
H2010 H 0.15932 0.66009 0.76511 0.0
H2011 H 0.14624 0.67425 0.78437 0.0
C2012 C 0.15409 0.6165 0.73215 0.0
C2013 C 0.16458 0.6243 0.72327 0.0
C2014 C 0.14579 0.62401 0.74321 0.0
C2015 C 0.14783 0.63946 0.74565 0.0
C2016 C 0.15792 0.64732 0.73642 0.0
C2017 C 0.16617 0.63985 0.72539 0.0
C2018 C 0.117 0.65284 0.77204 0.0
C2019 C 0.12457 0.66375 0.78059 0.0
C2020 C 0.12455 0.64474 0.76087 0.0
C2021 C 0.13983 0.64741 0.75798 0.0
C2022 C 0.14748 0.65799 0.76682 0.0
C2023 C 0.13997 0.66604 0.77797 0.0
H2024 H 0.33258 0.14716 0.78713 0.0
H2025 H 0.35335 0.10495 0.77526 0.0
H2026 H 0.34752 0.15983 0.76818 0.0
H2027 H 0.36825 0.11776 0.7561 0.0
H2028 H 0.40216 0.15128 0.73335 0.0
H2029 H 0.3886 0.13703 0.75254 0.0
H2030 H 0.34766 0.15994 0.74056 0.0
H2031 H 0.36104 0.17418 0.72161 0.0
C2032 C 0.34037 0.14056 0.78054 0.0
C2033 C 0.34163 0.12498 0.78268 0.0
C2034 C 0.34888 0.14783 0.76959 0.0
C2035 C 0.35891 0.13976 0.76049 0.0
C2036 C 0.36063 0.12429 0.76296 0.0
C2037 C 0.35205 0.11695 0.77391 0.0
C2038 C 0.39024 0.15317 0.73472 0.0
C2039 C 0.38276 0.16401 0.726 0.0
C2040 C 0.38248 0.14499 0.7457 0.0
C2041 C 0.36712 0.14754 0.74822 0.0
C2042 C 0.35957 0.15796 0.73913 0.0
C2043 C 0.36726 0.16607 0.72818 0.0
H2044 H 0.86292 0.33159 0.7863 0.0
H2045 H 0.90459 0.35368 0.7749 0.0
H2046 H 0.8499 0.34649 0.76762 0.0
H2047 H 0.8914 0.36859 0.75598 0.0
H2048 H 0.85663 0.40191 0.73384 0.0
H2049 H 0.87147 0.38846 0.75266 0.0
H2050 H 0.8498 0.34703 0.74004 0.0
H2051 H 0.83499 0.36029 0.72148 0.0
C2052 C 0.86934 0.33966 0.77986 0.0
C2053 C 0.88488 0.34129 0.78206 0.0
C2054 C 0.86185 0.34815 0.76906 0.0
C2055 C 0.86965 0.35856 0.76015 0.0
C2056 C 0.88508 0.36066 0.76268 0.0
C2057 C 0.89263 0.35209 0.7735 0.0
C2058 C 0.85514 0.38991 0.73499 0.0
C2059 C 0.84446 0.38224 0.72623 0.0
C2060 C 0.86367 0.38221 0.74576 0.0
C2061 C 0.86163 0.36673 0.74801 0.0
C2062 C 0.8514 0.35902 0.73883 0.0
C2063 C 0.84295 0.36665 0.7281 0.0
H2064 H 0.65333 0.1042 0.23096 0.0
H2065 H 0.67244 0.14652 0.2169 0.0
H2066 H 0.63838 0.11734 0.24988 0.0
H2067 H 0.65749 0.15949 0.2356 0.0
H2068 H 0.60427 0.15057 0.27261 0.0
H2069 H 0.61755 0.1362 0.25333 0.0
H2070 H 0.65819 0.16063 0.2632 0.0
H2071 H 0.64508 0.17499 0.28223 0.0
C2072 C 0.65424 0.11629 0.23176 0.0
C2073 C 0.66424 0.12426 0.22247 0.0
C2074 C 0.64564 0.12381 0.24258 0.0
C2075 C 0.64692 0.13942 0.24438 0.0
C2076 C 0.65648 0.14741 0.23471 0.0
C2077 C 0.665 0.13995 0.22391 0.0
C2078 C 0.61606 0.15281 0.27073 0.0
C2079 C 0.62353 0.16406 0.27892 0.0
C2080 C 0.62367 0.14454 0.25971 0.0
C2081 C 0.63886 0.14743 0.2566 0.0
C2082 C 0.6464 0.15835 0.26509 0.0
C2083 C 0.63887 0.16653 0.2761 0.0
H2084 H 0.8591 0.67476 0.22236 0.0
H2085 H 0.90035 0.65161 0.23313 0.0
H2086 H 0.84599 0.66026 0.24132 0.0
H2087 H 0.88704 0.63706 0.25229 0.0
H2088 H 0.85126 0.60452 0.27445 0.0
H2089 H 0.86627 0.61763 0.2555 0.0
H2090 H 0.84663 0.65972 0.26915 0.0
H2091 H 0.83169 0.64682 0.2879 0.0
C2092 C 0.8654 0.66653 0.2287 0.0
C2093 C 0.88086 0.66448 0.22625 0.0
C2094 C 0.85786 0.65827 0.23966 0.0
C2095 C 0.86552 0.64766 0.24845 0.0
C2096 C 0.88084 0.64516 0.24568 0.0
C2097 C 0.88846 0.65353 0.23473 0.0
C2098 C 0.85026 0.61659 0.27351 0.0
C2099 C 0.84011 0.62456 0.28263 0.0
C2100 C 0.85888 0.62409 0.26267 0.0
C2101 C 0.85745 0.63967 0.26069 0.0
C2102 C 0.84776 0.64767 0.27019 0.0
C2103 C 0.83923 0.64024 0.28102 0.0
H2104 H 0.33381 0.85892 0.22064 0.0
H2105 H 0.35549 0.90047 0.23319 0.0
H2106 H 0.34835 0.84563 0.23941 0.0
H2107 H 0.37007 0.88698 0.25218 0.0
H2108 H 0.40279 0.85193 0.27469 0.0
H2109 H 0.3899 0.86681 0.25554 0.0
H2110 H 0.34805 0.84539 0.26716 0.0
H2111 H 0.36076 0.83053 0.2861 0.0
C2112 C 0.34173 0.86525 0.22734 0.0
C2113 C 0.34333 0.88084 0.22546 0.0
C2114 C 0.35002 0.8576 0.23818 0.0
C2115 C 0.36017 0.86529 0.24745 0.0
C2116 C 0.36232 0.88076 0.2452 0.0
C2117 C 0.35394 0.88847 0.23433 0.0
C2118 C 0.39081 0.85048 0.27324 0.0
C2119 C 0.38286 0.8399 0.28188 0.0
C2120 C 0.38344 0.85904 0.26229 0.0
C2121 C 0.36801 0.85712 0.2597 0.0
C2122 C 0.36001 0.84691 0.26867 0.0
C2123 C 0.36732 0.83844 0.27962 0.0
H2124 H 0.17358 0.36032 0.284 0.0
H2125 H 0.15175 0.40166 0.27109 0.0
H2126 H 0.15873 0.34672 0.26571 0.0
H2127 H 0.13693 0.3879 0.25252 0.0
H2128 H 0.10339 0.35341 0.23121 0.0
H2129 H 0.11702 0.36844 0.24969 0.0
H2130 H 0.15793 0.34509 0.23841 0.0
H2131 H 0.14443 0.33001 0.2202 0.0
C2132 C 0.16559 0.36655 0.27729 0.0
C2133 C 0.16399 0.38216 0.27898 0.0
C2134 C 0.15713 0.35872 0.26671 0.0
C2135 C 0.1468 0.36625 0.25748 0.0
C2136 C 0.14477 0.38177 0.25947 0.0
C2137 C 0.1533 0.38965 0.27009 0.0
C2138 C 0.11531 0.35154 0.23261 0.0
C2139 C 0.12275 0.34037 0.22427 0.0
C2140 C 0.12313 0.3602 0.24317 0.0
C2141 C 0.13852 0.35783 0.24566 0.0
C2142 C 0.14601 0.34699 0.237 0.0
C2143 C 0.13825 0.33839 0.22647 0.0
H2144 H 0.78334 0.67329 0.86026 0.0
H2145 H 0.77319 0.65034 0.9018 0.0
H2146 H 0.76467 0.65828 0.84738 0.0
H2147 H 0.7543 0.63525 0.8887 0.0
H2148 H 0.73236 0.60238 0.85267 0.0
H2149 H 0.75118 0.61562 0.86773 0.0
H2150 H 0.73676 0.6577 0.84864 0.0
H2151 H 0.71815 0.64469 0.83367 0.0
C2152 C 0.7772 0.66499 0.86667 0.0
C2153 C 0.77971 0.66318 0.88215 0.0
C2154 C 0.76642 0.65643 0.85926 0.0
C2155 C 0.75785 0.64576 0.86707 0.0
C2156 C 0.76074 0.64341 0.8824 0.0
C2157 C 0.77154 0.65208 0.88989 0.0
C2158 C 0.7331 0.61447 0.85182 0.0
C2159 C 0.72383 0.62242 0.84178 0.0
C2160 C 0.74386 0.62204 0.86047 0.0
C2161 C 0.74561 0.63766 0.85916 0.0
C2162 C 0.73591 0.64562 0.84965 0.0
C2163 C 0.72517 0.63813 0.8411 0.0
H2164 H 0.76992 0.35346 0.10446 0.0
H2165 H 0.78246 0.33359 0.14692 0.0
H2166 H 0.75072 0.36839 0.11729 0.0
H2167 H 0.7635 0.34846 0.15954 0.0
H2168 H 0.72854 0.40266 0.15134 0.0
H2169 H 0.7474 0.38908 0.13669 0.0
H2170 H 0.73576 0.34815 0.1598 0.0
H2171 H 0.71712 0.36155 0.17444 0.0
C2172 C 0.76871 0.35236 0.11651 0.0
C2173 C 0.77767 0.34217 0.1246 0.0
C2174 C 0.75773 0.36094 0.12384 0.0
C2175 C 0.75545 0.35942 0.13939 0.0
C2176 C 0.76475 0.34964 0.1475 0.0
C2177 C 0.77571 0.34117 0.14024 0.0
C2178 C 0.72991 0.39074 0.1532 0.0
C2179 C 0.72138 0.38326 0.16422 0.0
C2180 C 0.74069 0.38296 0.14477 0.0
C2181 C 0.74321 0.3676 0.14725 0.0
C2182 C 0.7343 0.36005 0.15784 0.0
C2183 C 0.72353 0.36776 0.16619 0.0
H2184 H 0.67378 0.78852 0.14632 0.0
H2185 H 0.6546 0.77495 0.10388 0.0
H2186 H 0.65853 0.77 0.15918 0.0
H2187 H 0.63932 0.7562 0.11692 0.0
H2188 H 0.60459 0.73409 0.15003 0.0
H2189 H 0.61835 0.75306 0.13569 0.0
H2190 H 0.65861 0.74245 0.1604 0.0
H2191 H 0.64502 0.72372 0.17474 0.0
C2192 C 0.66627 0.78164 0.13969 0.0
C2193 C 0.66557 0.78319 0.124 0.0
C2194 C 0.65757 0.77094 0.1471 0.0
C2195 C 0.64787 0.76146 0.13906 0.0
C2196 C 0.64667 0.76335 0.12343 0.0
C2197 C 0.65546 0.77407 0.11597 0.0
C2198 C 0.6164 0.73574 0.15235 0.0
C2199 C 0.62363 0.72742 0.16367 0.0
C2200 C 0.62428 0.74658 0.14409 0.0
C2201 C 0.63952 0.7494 0.14705 0.0
C2202 C 0.64681 0.74078 0.15805 0.0
C2203 C 0.639 0.72994 0.16622 0.0
H2204 H 0.28394 0.64588 0.17493 0.0
H2205 H 0.27363 0.60539 0.15028 0.0
H2206 H 0.26525 0.65943 0.16051 0.0
H2207 H 0.25471 0.61912 0.13585 0.0
H2208 H 0.23267 0.65562 0.10418 0.0
H2209 H 0.2515 0.64028 0.11706 0.0
H2210 H 0.23761 0.65896 0.15953 0.0
H2211 H 0.21902 0.67425 0.14685 0.0
C2212 C 0.27774 0.63984 0.1664 0.0
C2213 C 0.28025 0.62446 0.1639 0.0
C2214 C 0.26694 0.64763 0.15818 0.0
C2215 C 0.25834 0.6403 0.14719 0.0
C2216 C 0.26117 0.62507 0.14424 0.0
C2217 C 0.27199 0.61721 0.15255 0.0
C2218 C 0.23354 0.65634 0.11628 0.0
C2219 C 0.22441 0.66633 0.12443 0.0
C2220 C 0.24431 0.64753 0.12365 0.0
C2221 C 0.2462 0.6486 0.13928 0.0
C2222 C 0.23667 0.65812 0.14744 0.0
C2223 C 0.22593 0.66685 0.14014 0.0
H2224 H 0.33194 0.21983 0.14814 0.0
H2225 H 0.35453 0.23039 0.1065 0.0
H2226 H 0.34646 0.23902 0.16088 0.0
H2227 H 0.3691 0.24976 0.11943 0.0
H2228 H 0.40169 0.2726 0.15491 0.0
H2229 H 0.38874 0.25334 0.14018 0.0
H2230 H 0.34652 0.26696 0.15957 0.0
H2231 H 0.35925 0.28602 0.17422 0.0
C2232 C 0.34006 0.22616 0.14168 0.0
C2233 C 0.34193 0.2236 0.12622 0.0
C2234 C 0.34833 0.23724 0.149 0.0
C2235 C 0.35876 0.24604 0.14111 0.0
C2236 C 0.36113 0.24315 0.12579 0.0
C2237 C 0.35275 0.23208 0.1184 0.0
C2238 C 0.38963 0.27159 0.1559 0.0
C2239 C 0.38157 0.28078 0.16591 0.0
C2240 C 0.38222 0.26057 0.14744 0.0
C2241 C 0.36666 0.25848 0.14892 0.0
C2242 C 0.35857 0.26808 0.15844 0.0
C2243 C 0.3659 0.27908 0.16679 0.0
H2244 H 0.26552 0.40117 0.84208 0.0
H2245 H 0.2938 0.36195 0.84527 0.0
H2246 H 0.24652 0.38868 0.85757 0.0
H2247 H 0.27495 0.34973 0.86117 0.0
H2248 H 0.24146 0.34296 0.90239 0.0
H2249 H 0.26056 0.35774 0.88918 0.0
H2250 H 0.23161 0.36074 0.85055 0.0
H2251 H 0.21268 0.34555 0.8635 0.0
C2252 C 0.2678 0.39001 0.84632 0.0
C2253 C 0.28113 0.38251 0.84244 0.0
C2254 C 0.25691 0.38288 0.85511 0.0
C2255 C 0.25935 0.36831 0.86052 0.0
C2256 C 0.2729 0.36101 0.85715 0.0
C2257 C 0.28362 0.36798 0.84804 0.0
C2258 C 0.2391 0.34692 0.89115 0.0
C2259 C 0.2256 0.34309 0.88395 0.0
C2260 C 0.25004 0.3553 0.88361 0.0
C2261 C 0.24748 0.36033 0.86891 0.0
C2262 C 0.23377 0.35702 0.86192 0.0
C2263 C 0.22299 0.34832 0.8693 0.0
H2264 H 0.67509 0.22318 0.85943 0.0
H2265 H 0.65143 0.23351 0.90052 0.0
H2266 H 0.66028 0.24176 0.84618 0.0
H2267 H 0.63659 0.25233 0.88709 0.0
H2268 H 0.60404 0.27427 0.85146 0.0
H2269 H 0.61732 0.25541 0.86637 0.0
H2270 H 0.65927 0.26943 0.84662 0.0
H2271 H 0.64617 0.28808 0.83173 0.0
C2272 C 0.66669 0.22935 0.86567 0.0
C2273 C 0.6646 0.2269 0.88112 0.0
C2274 C 0.65825 0.2401 0.85805 0.0
C2275 C 0.64743 0.24868 0.86563 0.0
C2276 C 0.64485 0.24587 0.88094 0.0
C2277 C 0.65338 0.23511 0.88863 0.0
C2278 C 0.61611 0.27341 0.85039 0.0
C2279 C 0.62399 0.28263 0.84025 0.0
C2280 C 0.62371 0.26262 0.85897 0.0
C2281 C 0.63931 0.26079 0.85751 0.0
C2282 C 0.6472 0.27035 0.84777 0.0
C2283 C 0.63967 0.28112 0.83928 0.0
H2284 H 0.33215 0.78422 0.85874 0.0
H2285 H 0.35535 0.77349 0.89998 0.0
H2286 H 0.34677 0.76541 0.84559 0.0
H2287 H 0.37001 0.75446 0.88663 0.0
H2288 H 0.40217 0.73178 0.85088 0.0
H2289 H 0.38933 0.75096 0.8658 0.0
H2290 H 0.34701 0.73763 0.84643 0.0
H2291 H 0.35964 0.71867 0.83156 0.0
C2292 C 0.34042 0.77792 0.86502 0.0
C2293 C 0.34242 0.7803 0.8805 0.0
C2294 C 0.34875 0.76706 0.85746 0.0
C2295 C 0.35936 0.75828 0.86512 0.0
C2296 C 0.3619 0.76106 0.88044 0.0
C2297 C 0.35347 0.77194 0.88807 0.0
C2298 C 0.3901 0.73285 0.84991 0.0
C2299 C 0.38198 0.72375 0.83986 0.0
C2300 C 0.38277 0.74382 0.85849 0.0
C2301 C 0.3672 0.74595 0.8571 0.0
C2302 C 0.35906 0.73648 0.8475 0.0
C2303 C 0.36633 0.72553 0.83902 0.0
H2304 H 0.06947 0.23988 0.29535 0.0
H2305 H 0.09614 0.21574 0.26285 0.0
H2306 H 0.06324 0.25857 0.27612 0.0
H2307 H 0.09048 0.23434 0.24412 0.0
H2308 H 0.07759 0.26485 0.20936 0.0
H2309 H 0.07312 0.24537 0.22801 0.0
H2310 H 0.07604 0.27857 0.26326 0.0
H2311 H 0.07951 0.29816 0.24435 0.0
C2312 C 0.07381 0.23843 0.28409 0.0
C2313 C 0.08344 0.2264 0.2807 0.0
C2314 C 0.07033 0.24919 0.2731 0.0
C2315 C 0.07635 0.24804 0.25852 0.0
C2316 C 0.08536 0.23556 0.25507 0.0
C2317 C 0.08879 0.22491 0.26595 0.0
C2318 C 0.07676 0.268 0.22107 0.0
C2319 C 0.079 0.28292 0.22548 0.0
C2320 C 0.07435 0.25684 0.23179 0.0
C2321 C 0.07469 0.26029 0.24721 0.0
C2322 C 0.07568 0.27546 0.25152 0.0
C2323 C 0.0777 0.28671 0.24071 0.0
H2324 H 0.79593 0.07999 0.26401 0.0
H2325 H 0.76093 0.08079 0.29739 0.0
H2326 H 0.77731 0.07605 0.24441 0.0
H2327 H 0.74204 0.07775 0.27767 0.0
H2328 H 0.71051 0.07054 0.23807 0.0
H2329 H 0.72957 0.06483 0.25711 0.0
H2330 H 0.76089 0.09383 0.23406 0.0
H2331 H 0.74234 0.09907 0.21515 0.0
C2332 C 0.78422 0.07903 0.26714 0.0
C2333 C 0.77981 0.08081 0.28213 0.0
C2334 C 0.77352 0.07691 0.25592 0.0
C2335 C 0.75811 0.07703 0.25938 0.0
C2336 C 0.75378 0.07757 0.27458 0.0
C2337 C 0.76458 0.07934 0.28589 0.0
C2338 C 0.72158 0.07544 0.23698 0.0
C2339 C 0.72483 0.08536 0.22512 0.0
C2340 C 0.73247 0.07224 0.24793 0.0
C2341 C 0.74683 0.07881 0.24714 0.0
C2342 C 0.75012 0.08827 0.23496 0.0
C2343 C 0.73934 0.09144 0.22413 0.0
H2344 H 0.93588 0.70885 0.24004 0.0
H2345 H 0.90918 0.74156 0.21625 0.0
H2346 H 0.94205 0.72785 0.25897 0.0
H2347 H 0.91483 0.76009 0.23507 0.0
H2348 H 0.92822 0.7946 0.2657 0.0
H2349 H 0.93252 0.77602 0.24612 0.0
H2350 H 0.92912 0.74062 0.27912 0.0
H2351 H 0.92576 0.75943 0.29881 0.0
C2352 C 0.93152 0.72011 0.23872 0.0
C2353 C 0.92191 0.72362 0.22669 0.0
C2354 C 0.93496 0.73097 0.24961 0.0
C2355 C 0.92896 0.74556 0.24861 0.0
C2356 C 0.91994 0.74913 0.23617 0.0
C2357 C 0.91652 0.73837 0.22539 0.0
C2358 C 0.92892 0.78286 0.26879 0.0
C2359 C 0.92656 0.77839 0.28368 0.0
C2360 C 0.93123 0.77218 0.25758 0.0
C2361 C 0.93071 0.75676 0.26093 0.0
C2362 C 0.92963 0.75237 0.27608 0.0
C2363 C 0.92768 0.76313 0.28739 0.0
H2364 H 0.23354 0.94126 0.2914 0.0
H2365 H 0.23303 0.8949 0.27707 0.0
H2366 H 0.25268 0.94673 0.27207 0.0
H2367 H 0.25164 0.90042 0.25815 0.0
H2368 H 0.26549 0.91708 0.2141 0.0
H2369 H 0.24731 0.92037 0.23421 0.0
H2370 H 0.28279 0.93301 0.26455 0.0
H2371 H 0.30122 0.92986 0.24422 0.0
C2372 C 0.23754 0.93227 0.28428 0.0
C2373 C 0.23151 0.91772 0.28559 0.0
C2374 C 0.24845 0.93541 0.27328 0.0
C2375 C 0.25336 0.92401 0.26354 0.0
C2376 C 0.24781 0.90944 0.26535 0.0
C2377 C 0.23708 0.90632 0.2762 0.0
C2378 C 0.2694 0.92102 0.22491 0.0
C2379 C 0.28479 0.92294 0.22768 0.0
C2380 C 0.25898 0.92298 0.23638 0.0
C2381 C 0.26371 0.92681 0.25089 0.0
C2382 C 0.27891 0.93016 0.2534 0.0
C2383 C 0.28941 0.9283 0.24179 0.0
H2384 H 0.07984 0.70515 0.76253 0.0
H2385 H 0.082 0.73907 0.79694 0.0
H2386 H 0.07674 0.72467 0.74345 0.0
H2387 H 0.07806 0.75851 0.77815 0.0
H2388 H 0.10106 0.78598 0.7417 0.0
H2389 H 0.09578 0.76757 0.76074 0.0
H2390 H 0.06409 0.74575 0.73125 0.0
H2391 H 0.06978 0.76429 0.71166 0.0
C2392 C 0.07903 0.71675 0.76605 0.0
C2393 C 0.08137 0.72067 0.78113 0.0
C2394 C 0.07722 0.72795 0.75514 0.0
C2395 C 0.07753 0.74321 0.75921 0.0
C2396 C 0.07824 0.74691 0.77455 0.0
C2397 C 0.08038 0.73579 0.78535 0.0
C2398 C 0.09285 0.77737 0.7392 0.0
C2399 C 0.08596 0.77657 0.72504 0.0
C2400 C 0.08966 0.76685 0.75028 0.0
C2401 C 0.07941 0.75517 0.74764 0.0
C2402 C 0.0721 0.75456 0.73363 0.0
C2403 C 0.07529 0.76522 0.72245 0.0
H2404 H 0.26404 0.0986 0.79128 0.0
H2405 H 0.29644 0.07062 0.76852 0.0
H2406 H 0.24567 0.09304 0.77226 0.0
H2407 H 0.2776 0.06459 0.74939 0.0
H2408 H 0.24672 0.08078 0.70886 0.0
H2409 H 0.26532 0.07757 0.7288 0.0
H2410 H 0.22958 0.07513 0.76152 0.0
H2411 H 0.21123 0.07923 0.74169 0.0
C2412 C 0.26719 0.09101 0.78232 0.0
C2413 C 0.28181 0.0852 0.78138 0.0
C2414 C 0.25653 0.08766 0.77143 0.0
C2415 C 0.26007 0.07828 0.75924 0.0
C2416 C 0.27452 0.07193 0.75856 0.0
C2417 C 0.28528 0.07531 0.76957 0.0
C2418 C 0.2429 0.07911 0.72028 0.0
C2419 C 0.22762 0.08042 0.72384 0.0
C2420 C 0.25354 0.07725 0.73172 0.0
C2421 C 0.24898 0.07647 0.74685 0.0
C2422 C 0.23353 0.07617 0.75007 0.0
C2423 C 0.22299 0.07837 0.73872 0.0
H2424 H 0.92812 0.29806 0.76253 0.0
H2425 H 0.92592 0.2641 0.79692 0.0
H2426 H 0.93065 0.27853 0.74338 0.0
H2427 H 0.92927 0.24464 0.77804 0.0
H2428 H 0.90524 0.21771 0.74176 0.0
H2429 H 0.91111 0.23592 0.76084 0.0
H2430 H 0.94285 0.25729 0.73103 0.0
H2431 H 0.93657 0.23898 0.71145 0.0
C2432 C 0.92881 0.28644 0.76602 0.0
C2433 C 0.92663 0.28252 0.78112 0.0
C2434 C 0.93028 0.27524 0.75507 0.0
C2435 C 0.92977 0.25997 0.75912 0.0
C2436 C 0.92923 0.25625 0.77446 0.0
C2437 C 0.92744 0.26738 0.78531 0.0
C2438 C 0.91359 0.22617 0.73921 0.0
C2439 C 0.92032 0.22692 0.72497 0.0
C2440 C 0.91711 0.23658 0.7503 0.0
C2441 C 0.92755 0.24808 0.74757 0.0
C2442 C 0.9347 0.24862 0.73348 0.0
C2443 C 0.93117 0.23808 0.7223 0.0
H2444 H 0.74183 0.90814 0.79173 0.0
H2445 H 0.7101 0.93661 0.76864 0.0
H2446 H 0.76042 0.91327 0.77281 0.0
H2447 H 0.7292 0.94222 0.74961 0.0
H2448 H 0.76018 0.92583 0.7093 0.0
H2449 H 0.74147 0.92922 0.72912 0.0
H2450 H 0.77697 0.93067 0.76214 0.0
H2451 H 0.79541 0.92637 0.74242 0.0
C2452 C 0.73887 0.91575 0.78272 0.0
C2453 C 0.72436 0.92182 0.78167 0.0
C2454 C 0.74968 0.91885 0.77188 0.0
C2455 C 0.74641 0.92824 0.75963 0.0
C2456 C 0.73207 0.93485 0.75883 0.0
C2457 C 0.72116 0.93172 0.76978 0.0
C2458 C 0.76393 0.92732 0.72077 0.0
C2459 C 0.77916 0.92567 0.72442 0.0
C2460 C 0.75323 0.92928 0.73215 0.0
C2461 C 0.75766 0.92984 0.74731 0.0
C2462 C 0.77309 0.9298 0.75065 0.0
C2463 C 0.78369 0.92749 0.73937 0.0
H2464 H 0.21605 0.09911 0.2645 0.0
H2465 H 0.2381 0.06996 0.29635 0.0
H2466 H 0.23493 0.09345 0.24601 0.0
H2467 H 0.25707 0.06382 0.27737 0.0
H2468 H 0.29798 0.07922 0.24662 0.0
H2469 H 0.27799 0.0763 0.26522 0.0
H2470 H 0.24514 0.07565 0.22954 0.0
H2471 H 0.26505 0.07946 0.2112 0.0
C2472 C 0.22482 0.09126 0.26751 0.0
C2473 C 0.2256 0.08513 0.28202 0.0
C2474 C 0.23563 0.08784 0.25677 0.0
C2475 C 0.24756 0.07809 0.2601 0.0
C2476 C 0.2481 0.07146 0.27445 0.0
C2477 C 0.23718 0.0749 0.28529 0.0
C2478 C 0.2865 0.078 0.2428 0.0
C2479 C 0.28298 0.07974 0.22755 0.0
C2480 C 0.27503 0.07631 0.25344 0.0
C2481 C 0.25988 0.07613 0.24893 0.0
C2482 C 0.25662 0.07624 0.23348 0.0
C2483 C 0.26802 0.07827 0.22294 0.0
H2484 H 0.93454 0.2969 0.23907 0.0
H2485 H 0.9045 0.2659 0.217 0.0
H2486 H 0.94048 0.27758 0.25779 0.0
H2487 H 0.91003 0.24708 0.23559 0.0
H2488 H 0.92456 0.21146 0.26444 0.0
H2489 H 0.92828 0.2303 0.24499 0.0
H2490 H 0.92765 0.26514 0.27872 0.0
H2491 H 0.92475 0.24603 0.29826 0.0
C2492 C 0.92936 0.28596 0.23809 0.0
C2493 C 0.91896 0.28301 0.22658 0.0
C2494 C 0.93269 0.27493 0.24885 0.0
C2495 C 0.92581 0.26072 0.24819 0.0
C2496 C 0.91583 0.25773 0.23635 0.0
C2497 C 0.91249 0.26866 0.22573 0.0
C2498 C 0.92572 0.22311 0.2677 0.0
C2499 C 0.92425 0.22735 0.28277 0.0
C2500 C 0.92772 0.23393 0.25657 0.0
C2501 C 0.92782 0.24929 0.26023 0.0
C2502 C 0.92764 0.25343 0.27548 0.0
C2503 C 0.92596 0.24251 0.28669 0.0
H2504 H 0.79063 0.90799 0.26439 0.0
H2505 H 0.76736 0.93546 0.29685 0.0
H2506 H 0.77173 0.91351 0.24592 0.0
H2507 H 0.74834 0.9415 0.27788 0.0
H2508 H 0.70813 0.9252 0.24678 0.0
H2509 H 0.72798 0.9286 0.26544 0.0
H2510 H 0.7608 0.93106 0.22978 0.0
H2511 H 0.74106 0.92671 0.21138 0.0
C2512 C 0.78159 0.91547 0.26753 0.0
C2513 C 0.78046 0.92112 0.2822 0.0
C2514 C 0.77076 0.91881 0.2568 0.0
C2515 C 0.75845 0.92802 0.26031 0.0
C2516 C 0.7576 0.93427 0.27482 0.0
C2517 C 0.76855 0.9309 0.28565 0.0
C2518 C 0.71955 0.92691 0.24299 0.0
C2519 C 0.72316 0.92552 0.22772 0.0
C2520 C 0.73094 0.92888 0.25366 0.0
C2521 C 0.74608 0.92972 0.24916 0.0
C2522 C 0.74935 0.92996 0.23371 0.0
C2523 C 0.73805 0.92762 0.22313 0.0
H2524 H 0.08158 0.70832 0.24735 0.0
H2525 H 0.07727 0.74067 0.21167 0.0
H2526 H 0.07784 0.7282 0.2659 0.0
H2527 H 0.07253 0.7604 0.22999 0.0
H2528 H 0.09474 0.79199 0.26361 0.0
H2529 H 0.08961 0.77269 0.24543 0.0
H2530 H 0.06442 0.74784 0.27862 0.0
H2531 H 0.07013 0.76725 0.29727 0.0
C2532 C 0.07921 0.7196 0.2435 0.0
C2533 C 0.07988 0.72307 0.22816 0.0
C2534 C 0.07702 0.73101 0.25411 0.0
C2535 C 0.07524 0.74603 0.24949 0.0
C2536 C 0.07436 0.74908 0.23401 0.0
C2537 C 0.07692 0.73778 0.22348 0.0
C2538 C 0.08794 0.78253 0.26708 0.0
C2539 C 0.08303 0.78111 0.28199 0.0
C2540 C 0.08482 0.77146 0.25652 0.0
C2541 C 0.07656 0.75861 0.26047 0.0
C2542 C 0.07095 0.7575 0.27522 0.0
C2543 C 0.07411 0.76867 0.28587 0.0
H2544 H 0.21315 0.90715 0.74205 0.0
H2545 H 0.23621 0.93547 0.71014 0.0
H2546 H 0.23202 0.91242 0.76061 0.0
H2547 H 0.25518 0.94126 0.72922 0.0
H2548 H 0.2955 0.92536 0.76033 0.0
H2549 H 0.27568 0.92846 0.74158 0.0
H2550 H 0.24261 0.92988 0.77706 0.0
H2551 H 0.26233 0.92584 0.79554 0.0
C2552 C 0.22214 0.91476 0.73904 0.0
C2553 C 0.22321 0.92074 0.7245 0.0
C2554 C 0.23295 0.91795 0.74983 0.0
C2555 C 0.24518 0.92735 0.74652 0.0
C2556 C 0.24599 0.93388 0.73214 0.0
C2557 C 0.23506 0.93065 0.72124 0.0
C2558 C 0.28401 0.92674 0.76406 0.0
C2559 C 0.28035 0.92516 0.7793 0.0
C2560 C 0.27264 0.92855 0.75334 0.0
C2561 C 0.25747 0.92905 0.75776 0.0
C2562 C 0.2541 0.92905 0.77319 0.0
C2563 C 0.26538 0.92687 0.78381 0.0
H2564 H 0.08182 0.24407 0.70808 0.0
H2565 H 0.08058 0.20949 0.74187 0.0
H2566 H 0.07886 0.26322 0.72753 0.0
H2567 H 0.07666 0.22838 0.76123 0.0
H2568 H 0.1002 0.26346 0.78998 0.0
H2569 H 0.0945 0.24467 0.77147 0.0
H2570 H 0.06622 0.27618 0.74782 0.0
H2571 H 0.07245 0.29549 0.76645 0.0
C2572 C 0.08029 0.24057 0.71962 0.0
C2573 C 0.08162 0.22538 0.72357 0.0
C2574 C 0.07855 0.25152 0.73078 0.0
C2575 C 0.0779 0.24739 0.74603 0.0
C2576 C 0.07762 0.23202 0.74967 0.0
C2577 C 0.07973 0.22117 0.7386 0.0
C2578 C 0.09263 0.26645 0.78095 0.0
C2579 C 0.08693 0.28109 0.77964 0.0
C2580 C 0.08918 0.25553 0.77036 0.0
C2581 C 0.07981 0.25881 0.75811 0.0
C2582 C 0.07356 0.27329 0.75706 0.0
C2583 C 0.07705 0.28433 0.76777 0.0
H2584 H 0.74381 0.09807 0.78907 0.0
H2585 H 0.71109 0.07085 0.76586 0.0
H2586 H 0.76211 0.09266 0.76994 0.0
H2587 H 0.72987 0.06494 0.74661 0.0
H2588 H 0.76081 0.08158 0.70631 0.0
H2589 H 0.74223 0.0781 0.72624 0.0
H2590 H 0.77804 0.07494 0.75881 0.0
H2591 H 0.79636 0.07934 0.739 0.0
C2592 C 0.74057 0.09068 0.77998 0.0
C2593 C 0.72588 0.08505 0.77895 0.0
C2594 C 0.7512 0.0874 0.76903 0.0
C2595 C 0.74755 0.07828 0.75668 0.0
C2596 C 0.73303 0.07209 0.75591 0.0
C2597 C 0.7223 0.07539 0.76698 0.0
C2598 C 0.76464 0.0797 0.71769 0.0
C2599 C 0.77994 0.0809 0.72123 0.0
C2600 C 0.75402 0.07768 0.72913 0.0
C2601 C 0.7586 0.07662 0.74422 0.0
C2602 C 0.77407 0.0762 0.7474 0.0
C2603 C 0.7846 0.07857 0.73606 0.0
H2604 H 0.92649 0.70796 0.76218 0.0
H2605 H 0.92827 0.74105 0.7974 0.0
H2606 H 0.92948 0.72775 0.74339 0.0
H2607 H 0.93211 0.76074 0.77884 0.0
H2608 H 0.90784 0.78994 0.74438 0.0
H2609 H 0.91381 0.77114 0.76286 0.0
H2610 H 0.94224 0.74838 0.73083 0.0
H2611 H 0.93582 0.76729 0.71189 0.0
C2612 C 0.92818 0.7194 0.7659 0.0
C2613 C 0.92696 0.72307 0.78117 0.0
C2614 C 0.92991 0.73076 0.75515 0.0
C2615 C 0.93065 0.74592 0.75958 0.0
C2616 C 0.9311 0.74926 0.775 0.0
C2617 C 0.92904 0.73799 0.78566 0.0
C2618 C 0.9155 0.78105 0.74123 0.0
C2619 C 0.9212 0.78007 0.72656 0.0
C2620 C 0.9191 0.77029 0.75195 0.0
C2621 C 0.92859 0.75821 0.74842 0.0
C2622 C 0.93482 0.75748 0.7339 0.0
C2623 C 0.93121 0.76836 0.72309 0.0
H2624 H 0.24694 0.29674 0.08288 0.0
H2625 H 0.21149 0.26388 0.08171 0.0
H2626 H 0.26554 0.27685 0.07937 0.0
H2627 H 0.22981 0.2441 0.07725 0.0
H2628 H 0.2646 0.21404 0.09966 0.0
H2629 H 0.24612 0.23303 0.09451 0.0
H2630 H 0.2778 0.25653 0.06627 0.0
H2631 H 0.29678 0.23744 0.07194 0.0
C2632 C 0.24313 0.28532 0.08125 0.0
C2633 C 0.22787 0.28174 0.08275 0.0
C2634 C 0.25376 0.2739 0.0792 0.0
C2635 C 0.24923 0.25878 0.0784 0.0
C2636 C 0.23377 0.25554 0.07831 0.0
C2637 C 0.22323 0.26686 0.08072 0.0
C2638 C 0.26768 0.22313 0.0922 0.0
C2639 C 0.28228 0.22427 0.08637 0.0
C2640 C 0.25694 0.23401 0.08908 0.0
C2641 C 0.26037 0.24638 0.07991 0.0
C2642 C 0.2748 0.24723 0.07348 0.0
C2643 C 0.28564 0.23624 0.07664 0.0
H2644 H 0.2177 0.74128 0.90712 0.0
H2645 H 0.24061 0.71005 0.93626 0.0
H2646 H 0.23644 0.76007 0.91227 0.0
H2647 H 0.25949 0.72932 0.94184 0.0
H2648 H 0.29969 0.76011 0.9243 0.0
H2649 H 0.27999 0.74139 0.92827 0.0
H2650 H 0.24689 0.7768 0.92986 0.0
H2651 H 0.26647 0.79525 0.92502 0.0
C2652 C 0.22664 0.73849 0.91487 0.0
C2653 C 0.22772 0.72407 0.92114 0.0
C2654 C 0.23735 0.74939 0.91799 0.0
C2655 C 0.24951 0.74628 0.92754 0.0
C2656 C 0.25032 0.73205 0.93436 0.0
C2657 C 0.23946 0.72105 0.93125 0.0
C2658 C 0.28824 0.76385 0.92594 0.0
C2659 C 0.28449 0.77903 0.92415 0.0
C2660 C 0.27694 0.75315 0.92825 0.0
C2661 C 0.26178 0.75755 0.92901 0.0
C2662 C 0.25838 0.77296 0.92886 0.0
C2663 C 0.26958 0.78356 0.92621 0.0
H2664 H 0.21739 0.26466 0.90719 0.0
H2665 H 0.23924 0.29564 0.93741 0.0
H2666 H 0.23606 0.24591 0.91268 0.0
H2667 H 0.25803 0.27641 0.94331 0.0
H2668 H 0.29881 0.24553 0.92742 0.0
H2669 H 0.27903 0.26434 0.93047 0.0
H2670 H 0.24575 0.22906 0.93065 0.0
H2671 H 0.26544 0.21052 0.92677 0.0
C2672 C 0.22607 0.26742 0.91523 0.0
C2673 C 0.22686 0.28175 0.92173 0.0
C2674 C 0.23675 0.25653 0.91853 0.0
C2675 C 0.24857 0.25956 0.92853 0.0
C2676 C 0.24912 0.27373 0.9355 0.0
C2677 C 0.23832 0.28471 0.93219 0.0
C2678 C 0.28729 0.24184 0.92856 0.0
C2679 C 0.28357 0.22666 0.92667 0.0
C2680 C 0.27594 0.2526 0.93033 0.0
C2681 C 0.26074 0.24825 0.93043 0.0
C2682 C 0.25728 0.23285 0.93016 0.0
C2683 C 0.26855 0.22221 0.92806 0.0
H2684 H 0.70802 0.24732 0.92372 0.0
H2685 H 0.74048 0.21156 0.92594 0.0
H2686 H 0.72803 0.26575 0.92751 0.0
H2687 H 0.76035 0.22973 0.93063 0.0
H2688 H 0.79119 0.26398 0.90842 0.0
H2689 H 0.77177 0.24582 0.91319 0.0
H2690 H 0.74836 0.27781 0.94113 0.0
H2691 H 0.76792 0.29646 0.93588 0.0
C2692 C 0.71936 0.24341 0.92565 0.0
C2693 C 0.72281 0.2281 0.92438 0.0
C2694 C 0.73084 0.25394 0.92785 0.0
C2695 C 0.7459 0.24926 0.92901 0.0
C2696 C 0.74897 0.23378 0.92931 0.0
C2697 C 0.7376 0.22334 0.92677 0.0
C2698 C 0.78202 0.2672 0.91572 0.0
C2699 C 0.78107 0.28178 0.92162 0.0
C2700 C 0.77089 0.25664 0.91863 0.0
C2701 C 0.75845 0.26026 0.92763 0.0
C2702 C 0.75773 0.27468 0.93406 0.0
C2703 C 0.76898 0.28533 0.93113 0.0
H2704 H 0.70912 0.76616 0.93578 0.0
H2705 H 0.74004 0.7884 0.90577 0.0
H2706 H 0.72844 0.74741 0.94157 0.0
H2707 H 0.75888 0.76978 0.91113 0.0
H2708 H 0.79431 0.74029 0.92461 0.0
H2709 H 0.77578 0.7599 0.9289 0.0
H2710 H 0.74053 0.72659 0.92847 0.0
H2711 H 0.75935 0.70687 0.92503 0.0
C2712 C 0.72006 0.76718 0.9306 0.0
C2713 C 0.72298 0.77871 0.92021 0.0
C2714 C 0.73109 0.7564 0.93384 0.0
C2715 C 0.74526 0.75707 0.92686 0.0
C2716 C 0.74826 0.76899 0.91698 0.0
C2717 C 0.73732 0.77964 0.91374 0.0
C2718 C 0.78264 0.73715 0.92593 0.0
C2719 C 0.77819 0.72215 0.92436 0.0
C2720 C 0.77199 0.74837 0.92827 0.0
C2721 C 0.7566 0.74489 0.92858 0.0
C2722 C 0.75227 0.72969 0.9283 0.0
C2723 C 0.76303 0.71839 0.92631 0.0
H2724 H 0.76206 0.70851 0.08 0.0
H2725 H 0.79733 0.7416 0.0795 0.0
H2726 H 0.74336 0.72835 0.07686 0.0
H2727 H 0.77888 0.76134 0.07545 0.0
H2728 H 0.744 0.7906 0.09874 0.0
H2729 H 0.7625 0.77172 0.09324 0.0
H2730 H 0.73104 0.74904 0.06412 0.0
H2731 H 0.71203 0.76805 0.07011 0.0
C2732 C 0.76582 0.71997 0.07857 0.0
C2733 C 0.78106 0.72361 0.08018 0.0
C2734 C 0.75512 0.73136 0.07675 0.0
C2735 C 0.75956 0.74653 0.07629 0.0
C2736 C 0.775 0.74986 0.07625 0.0
C2737 C 0.7856 0.73856 0.07842 0.0
C2738 C 0.74096 0.78171 0.09103 0.0
C2739 C 0.72643 0.7808 0.08501 0.0
C2740 C 0.75171 0.7709 0.0877 0.0
C2741 C 0.74836 0.75882 0.07814 0.0
C2742 C 0.73398 0.75814 0.07161 0.0
C2743 C 0.72312 0.76907 0.07496 0.0
H2744 H 0.23935 0.71235 0.07033 0.0
H2745 H 0.2168 0.74519 0.09795 0.0
H2746 H 0.2583 0.73119 0.06365 0.0
H2747 H 0.23562 0.76355 0.09177 0.0
H2748 H 0.26582 0.79789 0.0773 0.0
H2749 H 0.24606 0.77938 0.07354 0.0
H2750 H 0.27897 0.74386 0.07605 0.0
H2751 H 0.29883 0.7626 0.07888 0.0
C2752 C 0.23831 0.7236 0.0748 0.0
C2753 C 0.22663 0.7272 0.08479 0.0
C2754 C 0.24921 0.73436 0.07105 0.0
C2755 C 0.24852 0.74894 0.07712 0.0
C2756 C 0.23645 0.75259 0.08659 0.0
C2757 C 0.22568 0.74193 0.09031 0.0
C2758 C 0.26884 0.78614 0.07651 0.0
C2759 C 0.28376 0.78162 0.07849 0.0
C2760 C 0.25753 0.77551 0.0745 0.0
C2761 C 0.26084 0.76007 0.07496 0.0
C2762 C 0.27599 0.75562 0.07562 0.0
C2763 C 0.28738 0.76634 0.07726 0.0
H2764 H 0.73877 0.2107 0.07836 0.0
H2765 H 0.70557 0.24581 0.08016 0.0
H2766 H 0.75838 0.22929 0.07428 0.0
H2767 H 0.72529 0.26465 0.077 0.0
H2768 H 0.76452 0.2964 0.07057 0.0
H2769 H 0.74568 0.27735 0.06423 0.0
H2770 H 0.76905 0.24532 0.09216 0.0
H2771 H 0.78778 0.26389 0.09799 0.0
C2772 C 0.73567 0.22242 0.07755 0.0
C2773 C 0.72074 0.22687 0.07967 0.0
C2774 C 0.7469 0.23311 0.07536 0.0
C2775 C 0.74351 0.24853 0.07576 0.0
C2776 C 0.72834 0.2529 0.0766 0.0
C2777 C 0.71702 0.24212 0.07843 0.0
C2778 C 0.76575 0.28517 0.07506 0.0
C2779 C 0.77759 0.28173 0.08491 0.0
C2780 C 0.7549 0.27429 0.07151 0.0
C2781 C 0.75579 0.25975 0.07765 0.0
C2782 C 0.76805 0.25624 0.08694 0.0
C2783 C 0.77878 0.26702 0.09046 0.0
H2784 H 0.58003 0.79884 0.74595 0.0
H2785 H 0.58252 0.76568 0.71081 0.0
H2786 H 0.5773 0.77884 0.76463 0.0
H2787 H 0.57905 0.74578 0.72921 0.0
H2788 H 0.57009 0.73799 0.79514 0.0
H2789 H 0.56454 0.75711 0.7761 0.0
H2790 H 0.59719 0.73684 0.74654 0.0
H2791 H 0.6024 0.71787 0.76508 0.0
C2792 C 0.57939 0.7873 0.74219 0.0
C2793 C 0.5817 0.78373 0.72702 0.0
C2794 C 0.57781 0.77583 0.75287 0.0
C2795 C 0.57833 0.76067 0.74846 0.0
C2796 C 0.57905 0.75731 0.73305 0.0
C2797 C 0.58092 0.76869 0.72249 0.0
C2798 C 0.57588 0.73753 0.78446 0.0
C2799 C 0.58675 0.72642 0.7817 0.0
C2800 C 0.57275 0.74852 0.7736 0.0
C2801 C 0.58033 0.74848 0.75973 0.0
C2802 C 0.59087 0.7371 0.75692 0.0
C2803 C 0.594 0.72625 0.76769 0.0
H2804 H 0.20724 0.58032 0.74298 0.0
H2805 H 0.24142 0.58385 0.70891 0.0
H2806 H 0.22668 0.57746 0.76219 0.0
H2807 H 0.26079 0.58023 0.72782 0.0
H2808 H 0.2874 0.60312 0.76488 0.0
H2809 H 0.269 0.59812 0.74574 0.0
H2810 H 0.24816 0.56475 0.77409 0.0
H2811 H 0.2667 0.5701 0.79377 0.0
C2812 C 0.21889 0.57989 0.73956 0.0
C2813 C 0.22289 0.58253 0.72454 0.0
C2814 C 0.23004 0.57823 0.75054 0.0
C2815 C 0.24532 0.579 0.7466 0.0
C2816 C 0.24915 0.58005 0.73132 0.0
C2817 C 0.23807 0.58201 0.72045 0.0
C2818 C 0.27901 0.59461 0.76711 0.0
C2819 C 0.27851 0.5871 0.78097 0.0
C2820 C 0.2685 0.5916 0.75599 0.0
C2821 C 0.25713 0.58092 0.75827 0.0
C2822 C 0.25675 0.57309 0.77199 0.0
C2823 C 0.2674 0.5761 0.78323 0.0
H2824 H 0.42517 0.20625 0.74616 0.0
H2825 H 0.42793 0.2394 0.71105 0.0
H2826 H 0.42857 0.22589 0.76503 0.0
H2827 H 0.43228 0.25892 0.72968 0.0
H2828 H 0.40871 0.28871 0.76399 0.0
H2829 H 0.41437 0.26985 0.74553 0.0
H2830 H 0.44162 0.24607 0.77785 0.0
H2831 H 0.43544 0.26509 0.7968 0.0
C2832 C 0.42715 0.21766 0.74249 0.0
C2833 C 0.42611 0.22141 0.72723 0.0
C2834 C 0.42914 0.22894 0.75328 0.0
C2835 C 0.43032 0.24408 0.74891 0.0
C2836 C 0.43092 0.24746 0.73349 0.0
C2837 C 0.42857 0.23629 0.72279 0.0
C2838 C 0.41605 0.27958 0.76722 0.0
C2839 C 0.42146 0.27835 0.78197 0.0
C2840 C 0.41948 0.26878 0.7565 0.0
C2841 C 0.42853 0.25639 0.76011 0.0
C2842 C 0.43452 0.25542 0.77471 0.0
C2843 C 0.43107 0.26635 0.78554 0.0
H2844 H 0.74162 0.43474 0.7971 0.0
H2845 H 0.71812 0.40807 0.76415 0.0
H2846 H 0.76082 0.4408 0.7783 0.0
H2847 H 0.73719 0.41362 0.74582 0.0
H2848 H 0.76826 0.42691 0.71165 0.0
H2849 H 0.7485 0.43132 0.73002 0.0
H2850 H 0.78105 0.4276 0.76579 0.0
H2851 H 0.80094 0.42412 0.74717 0.0
C2852 C 0.74042 0.43037 0.78582 0.0
C2853 C 0.7284 0.4208 0.78218 0.0
C2854 C 0.75146 0.43375 0.77509 0.0
C2855 C 0.75061 0.42772 0.76049 0.0
C2856 C 0.73818 0.41875 0.75679 0.0
C2857 C 0.72725 0.41539 0.76742 0.0
C2858 C 0.77121 0.42756 0.72342 0.0
C2859 C 0.78603 0.42508 0.72805 0.0
C2860 C 0.7599 0.42994 0.73398 0.0
C2861 C 0.76307 0.42937 0.74944 0.0
C2862 C 0.77816 0.42815 0.754 0.0
C2863 C 0.78957 0.42612 0.74335 0.0
H2864 H 0.57981 0.20649 0.26111 0.0
H2865 H 0.579 0.2392 0.29673 0.0
H2866 H 0.57623 0.22647 0.24263 0.0
H2867 H 0.57448 0.25907 0.27851 0.0
H2868 H 0.5974 0.28891 0.24378 0.0
H2869 H 0.59199 0.26992 0.2622 0.0
H2870 H 0.56327 0.24705 0.23051 0.0
H2871 H 0.56919 0.26616 0.21159 0.0
C2872 C 0.5782 0.21789 0.265 0.0
C2873 C 0.57985 0.2214 0.28027 0.0
C2874 C 0.57613 0.22936 0.25443 0.0
C2875 C 0.57545 0.24447 0.25903 0.0
C2876 C 0.57544 0.24764 0.27451 0.0
C2877 C 0.57788 0.23626 0.28498 0.0
C2878 C 0.58979 0.27996 0.24069 0.0
C2879 C 0.58389 0.279 0.2261 0.0
C2880 C 0.58651 0.26908 0.25139 0.0
C2881 C 0.57711 0.25689 0.24793 0.0
C2882 C 0.57064 0.25622 0.23353 0.0
C2883 C 0.57395 0.26721 0.22272 0.0
H2884 H 0.76177 0.60037 0.28946 0.0
H2885 H 0.79333 0.571 0.26726 0.0
H2886 H 0.74331 0.59513 0.27047 0.0
H2887 H 0.77435 0.5653 0.24815 0.0
H2888 H 0.74381 0.58147 0.20735 0.0
H2889 H 0.76237 0.57816 0.22731 0.0
H2890 H 0.72668 0.57749 0.26016 0.0
H2891 H 0.70839 0.58169 0.24029 0.0
C2892 C 0.76473 0.59257 0.28062 0.0
C2893 C 0.77914 0.58624 0.27985 0.0
C2894 C 0.75399 0.58939 0.26975 0.0
C2895 C 0.75724 0.57969 0.25775 0.0
C2896 C 0.7715 0.57289 0.25719 0.0
C2897 C 0.78234 0.57609 0.26818 0.0
C2898 C 0.73998 0.58017 0.21881 0.0
C2899 C 0.72474 0.58202 0.22237 0.0
C2900 C 0.75059 0.57825 0.23026 0.0
C2901 C 0.74607 0.57795 0.24541 0.0
C2902 C 0.73062 0.57817 0.24868 0.0
C2903 C 0.7201 0.58043 0.23731 0.0
H2904 H 0.42627 0.71012 0.23937 0.0
H2905 H 0.42455 0.74625 0.20727 0.0
H2906 H 0.43105 0.72803 0.25945 0.0
H2907 H 0.42841 0.76442 0.22749 0.0
H2908 H 0.43651 0.79481 0.26743 0.0
H2909 H 0.44192 0.7762 0.2479 0.0
H2910 H 0.41385 0.74413 0.27107 0.0
H2911 H 0.40893 0.76226 0.29049 0.0
C2912 C 0.42721 0.72193 0.23661 0.0
C2913 C 0.42493 0.72687 0.22186 0.0
C2914 C 0.42981 0.73222 0.24811 0.0
C2915 C 0.42967 0.74774 0.2452 0.0
C2916 C 0.42863 0.75258 0.23018 0.0
C2917 C 0.42638 0.7422 0.21858 0.0
C2918 C 0.43179 0.78366 0.26847 0.0
C2919 C 0.42217 0.78009 0.28047 0.0
C2920 C 0.4348 0.77303 0.25722 0.0
C2921 C 0.42834 0.75862 0.25785 0.0
C2922 C 0.4193 0.75495 0.27025 0.0
C2923 C 0.41631 0.76548 0.28138 0.0
H2924 H 0.2902 0.4092 0.24208 0.0
H2925 H 0.26651 0.436 0.20936 0.0
H2926 H 0.27103 0.41429 0.26039 0.0
H2927 H 0.24722 0.44164 0.22818 0.0
H2928 H 0.20716 0.42482 0.25915 0.0
H2929 H 0.22706 0.42846 0.24058 0.0
H2930 H 0.25962 0.43157 0.27641 0.0
H2931 H 0.23984 0.42694 0.29471 0.0
C2932 C 0.28099 0.41644 0.23884 0.0
C2933 C 0.27984 0.42202 0.22414 0.0
C2934 C 0.27001 0.41954 0.24948 0.0
C2935 C 0.25751 0.42846 0.24586 0.0
C2936 C 0.25662 0.43463 0.23133 0.0
C2937 C 0.26772 0.43149 0.22057 0.0
C2938 C 0.21854 0.4267 0.26299 0.0
C2939 C 0.22207 0.42542 0.27828 0.0
C2940 C 0.22996 0.42882 0.25237 0.0
C2941 C 0.24505 0.42993 0.25695 0.0
C2942 C 0.24822 0.43026 0.27242 0.0
C2943 C 0.2369 0.42776 0.28295 0.0
H2944 H 0.71644 0.59503 0.763 0.0
H2945 H 0.74015 0.56892 0.79625 0.0
H2946 H 0.73552 0.58941 0.74473 0.0
H2947 H 0.75937 0.56279 0.7775 0.0
H2948 H 0.79929 0.57967 0.74617 0.0
H2949 H 0.77948 0.57595 0.76481 0.0
H2950 H 0.74695 0.57166 0.7291 0.0
H2951 H 0.76661 0.57633 0.71068 0.0
C2952 C 0.72563 0.58783 0.76636 0.0
C2953 C 0.72683 0.58259 0.78119 0.0
C2954 C 0.73656 0.58442 0.75575 0.0
C2955 C 0.74905 0.57557 0.75955 0.0
C2956 C 0.74997 0.56973 0.77422 0.0
C2957 C 0.73891 0.57316 0.78493 0.0
C2958 C 0.78796 0.57747 0.74236 0.0
C2959 C 0.78438 0.57846 0.72706 0.0
C2960 C 0.77659 0.57531 0.75303 0.0
C2961 C 0.76151 0.57389 0.74849 0.0
C2962 C 0.75834 0.5732 0.73303 0.0
C2963 C 0.7696 0.57572 0.72245 0.0
H2964 H 0.4267 0.76629 0.70973 0.0
H2965 H 0.4254 0.79826 0.74599 0.0
H2966 H 0.43117 0.74607 0.72757 0.0
H2967 H 0.42895 0.77793 0.76408 0.0
H2968 H 0.43593 0.73779 0.7944 0.0
H2969 H 0.44198 0.75721 0.77585 0.0
H2970 H 0.41358 0.7348 0.74354 0.0
H2971 H 0.40803 0.71549 0.76162 0.0
C2972 C 0.42769 0.76899 0.72154 0.0
C2973 C 0.42559 0.78374 0.72654 0.0
C2974 C 0.43011 0.75741 0.73179 0.0
C2975 C 0.42996 0.76027 0.74733 0.0
C2976 C 0.42916 0.77528 0.75223 0.0
C2977 C 0.4271 0.78695 0.74188 0.0
C2978 C 0.43128 0.7369 0.78321 0.0
C2979 C 0.42138 0.72515 0.77956 0.0
C2980 C 0.43465 0.74807 0.77262 0.0
C2981 C 0.42829 0.74762 0.75816 0.0
C2982 C 0.41897 0.73546 0.75441 0.0
C2983 C 0.41561 0.72441 0.76491 0.0
H2984 H 0.28809 0.40236 0.76342 0.0
H2985 H 0.26806 0.43539 0.79275 0.0
H2986 H 0.2698 0.40803 0.74433 0.0
H2987 H 0.24967 0.44141 0.77316 0.0
H2988 H 0.20831 0.427 0.7422 0.0
H2989 H 0.22794 0.42934 0.76127 0.0
H2990 H 0.26173 0.42619 0.72662 0.0
H2991 H 0.24215 0.42311 0.70783 0.0
C2992 C 0.27989 0.41102 0.76575 0.0
C2993 C 0.27952 0.41833 0.77972 0.0
C2994 C 0.26944 0.41441 0.75466 0.0
C2995 C 0.25829 0.42529 0.75711 0.0
C2996 C 0.25808 0.43293 0.77093 0.0
C2997 C 0.26866 0.42954 0.78212 0.0
C2998 C 0.21994 0.42727 0.73868 0.0
C2999 C 0.22377 0.42467 0.72362 0.0
C3000 C 0.2312 0.42861 0.74959 0.0
C3001 C 0.24644 0.42756 0.74553 0.0
C3002 C 0.25013 0.42658 0.73021 0.0
C3003 C 0.23893 0.42495 0.71941 0.0
H3004 H 0.59865 0.29086 0.76247 0.0
H3005 H 0.56996 0.26807 0.79424 0.0
H3006 H 0.5937 0.27175 0.74405 0.0
H3007 H 0.56451 0.24885 0.7753 0.0
H3008 H 0.58096 0.20824 0.74482 0.0
H3009 H 0.57755 0.22824 0.76332 0.0
H3010 H 0.57647 0.26092 0.72748 0.0
H3011 H 0.58079 0.24102 0.70926 0.0
C3012 C 0.59103 0.28188 0.76547 0.0
C3013 C 0.58484 0.28097 0.77995 0.0
C3014 C 0.58803 0.27092 0.75476 0.0
C3015 C 0.57863 0.2587 0.75808 0.0
C3016 C 0.5719 0.25804 0.77238 0.0
C3017 C 0.57493 0.26911 0.7832 0.0
C3018 C 0.57957 0.21967 0.74094 0.0
C3019 C 0.58132 0.22317 0.72568 0.0
C3020 C 0.57759 0.23116 0.75152 0.0
C3021 C 0.57711 0.24628 0.74695 0.0
C3022 C 0.57728 0.24948 0.73148 0.0
C3023 C 0.57961 0.23808 0.721 0.0
H3024 H 0.79242 0.43653 0.26703 0.0
H3025 H 0.76211 0.40531 0.28845 0.0
H3026 H 0.77305 0.44227 0.24831 0.0
H3027 H 0.74324 0.41065 0.26985 0.0
H3028 H 0.70737 0.42505 0.24105 0.0
H3029 H 0.72604 0.4286 0.26066 0.0
H3030 H 0.76104 0.42957 0.2271 0.0
H3031 H 0.74209 0.4268 0.20739 0.0
C3032 C 0.78161 0.43105 0.26787 0.0
C3033 C 0.77888 0.42039 0.27921 0.0
C3034 C 0.77056 0.43426 0.2571 0.0
C3035 C 0.75654 0.42699 0.25757 0.0
C3036 C 0.75374 0.41674 0.26923 0.0
C3037 C 0.7647 0.41353 0.27988 0.0
C3038 C 0.71901 0.42649 0.23786 0.0
C3039 C 0.72334 0.42551 0.22277 0.0
C3040 C 0.72974 0.42841 0.24909 0.0
C3041 C 0.74511 0.42893 0.24551 0.0
C3042 C 0.74932 0.42922 0.23028 0.0
C3043 C 0.73848 0.42762 0.21897 0.0
H3044 H 0.57061 0.79508 0.26693 0.0
H3045 H 0.59941 0.76264 0.28858 0.0
H3046 H 0.56444 0.77647 0.2476 0.0
H3047 H 0.59369 0.74453 0.26938 0.0
H3048 H 0.57933 0.71028 0.23888 0.0
H3049 H 0.57556 0.72843 0.25896 0.0
H3050 H 0.57706 0.76448 0.22654 0.0
H3051 H 0.57995 0.74608 0.20636 0.0
C3052 C 0.57547 0.78397 0.26768 0.0
C3053 C 0.58561 0.78042 0.27926 0.0
C3054 C 0.572 0.77334 0.25657 0.0
C3055 C 0.5785 0.75894 0.25691 0.0
C3056 C 0.58818 0.75534 0.26883 0.0
C3057 C 0.59163 0.76587 0.27982 0.0
C3058 C 0.57833 0.72206 0.23603 0.0
C3059 C 0.58004 0.72683 0.22115 0.0
C3060 C 0.57632 0.73248 0.24753 0.0
C3061 C 0.57647 0.74797 0.24445 0.0
C3062 C 0.57687 0.75266 0.22936 0.0
C3063 C 0.57854 0.74214 0.21777 0.0
H3064 H 0.2608 0.58102 0.2061 0.0
H3065 H 0.29611 0.57949 0.23909 0.0
H3066 H 0.2421 0.57757 0.22591 0.0
H3067 H 0.27767 0.57508 0.25879 0.0
H3068 H 0.24304 0.59774 0.28879 0.0
H3069 H 0.26149 0.59248 0.2698 0.0
H3070 H 0.2296 0.56461 0.24619 0.0
H3071 H 0.21063 0.5704 0.26529 0.0
C3072 C 0.26456 0.57931 0.21753 0.0
C3073 C 0.27982 0.5807 0.22116 0.0
C3074 C 0.25387 0.5773 0.2289 0.0
C3075 C 0.25832 0.57643 0.24404 0.0
C3076 C 0.27377 0.57621 0.24734 0.0
C3077 C 0.28437 0.57859 0.23606 0.0
C3078 C 0.2399 0.59035 0.27966 0.0
C3079 C 0.22524 0.58466 0.27851 0.0
C3080 C 0.25062 0.58716 0.26879 0.0
C3081 C 0.24714 0.57804 0.2564 0.0
C3082 C 0.23265 0.57177 0.25551 0.0
C3083 C 0.2218 0.575 0.2665 0.0
H3084 H 0.42735 0.23927 0.2972 0.0
H3085 H 0.42449 0.20626 0.26198 0.0
H3086 H 0.43152 0.25889 0.27863 0.0
H3087 H 0.42777 0.22602 0.24317 0.0
H3088 H 0.43483 0.26553 0.21167 0.0
H3089 H 0.44094 0.24638 0.2305 0.0
H3090 H 0.41334 0.26972 0.26284 0.0
H3091 H 0.40769 0.28872 0.24448 0.0
C3092 C 0.42796 0.23621 0.28545 0.0
C3093 C 0.4255 0.22135 0.28096 0.0
C3094 C 0.4302 0.24744 0.27478 0.0
C3095 C 0.42954 0.24412 0.25936 0.0
C3096 C 0.42838 0.229 0.25493 0.0
C3097 C 0.42648 0.21767 0.26568 0.0
C3098 C 0.43035 0.26667 0.22291 0.0
C3099 C 0.42066 0.2786 0.22651 0.0
C3100 C 0.43377 0.25566 0.23367 0.0
C3101 C 0.42768 0.25648 0.24823 0.0
C3102 C 0.41852 0.26878 0.25189 0.0
C3103 C 0.4151 0.27966 0.24123 0.0
H3104 H 0.79807 0.74492 0.5816 0.0
H3105 H 0.76521 0.70947 0.58011 0.0
H3106 H 0.77822 0.76352 0.57807 0.0
H3107 H 0.74547 0.72781 0.57557 0.0
H3108 H 0.7153 0.76242 0.59811 0.0
H3109 H 0.7342 0.74394 0.59272 0.0
H3110 H 0.75805 0.77601 0.5652 0.0
H3111 H 0.73905 0.795 0.57118 0.0
C3112 C 0.78666 0.7411 0.57988 0.0
C3113 C 0.78308 0.72584 0.58131 0.0
C3114 C 0.77526 0.75174 0.57781 0.0
C3115 C 0.76014 0.74723 0.57691 0.0
C3116 C 0.7569 0.73176 0.57673 0.0
C3117 C 0.76821 0.72122 0.57918 0.0
C3118 C 0.72445 0.76559 0.59076 0.0
C3119 C 0.72572 0.7803 0.58525 0.0
C3120 C 0.73528 0.75484 0.58748 0.0
C3121 C 0.74774 0.75838 0.57847 0.0
C3122 C 0.74869 0.77292 0.57231 0.0
C3123 C 0.73775 0.78377 0.57563 0.0
H3124 H 0.79821 0.26113 0.42492 0.0
H3125 H 0.76481 0.29608 0.42529 0.0
H3126 H 0.77855 0.24227 0.4283 0.0
H3127 H 0.74524 0.2775 0.42962 0.0
H3128 H 0.71607 0.24213 0.40693 0.0
H3129 H 0.73472 0.26091 0.41227 0.0
H3130 H 0.75818 0.22977 0.44111 0.0
H3131 H 0.73944 0.21047 0.43525 0.0
C3132 C 0.78671 0.26479 0.42637 0.0
C3133 C 0.78294 0.27998 0.42467 0.0
C3134 C 0.77542 0.254 0.42833 0.0
C3135 C 0.76022 0.2583 0.42885 0.0
C3136 C 0.75675 0.27371 0.42877 0.0
C3137 C 0.76795 0.2844 0.42644 0.0
C3138 C 0.72508 0.23923 0.41456 0.0
C3139 C 0.72631 0.22468 0.42051 0.0
C3140 C 0.73576 0.25015 0.41779 0.0
C3141 C 0.74801 0.24696 0.42719 0.0
C3142 C 0.74896 0.23259 0.43372 0.0
C3143 C 0.73817 0.22156 0.43045 0.0
H3144 H 0.79671 0.7404 0.43709 0.0
H3145 H 0.76239 0.71476 0.41445 0.0
H3146 H 0.77811 0.75979 0.44304 0.0
H3147 H 0.74424 0.73402 0.41976 0.0
H3148 H 0.71088 0.76656 0.43119 0.0
H3149 H 0.72922 0.74701 0.43657 0.0
H3150 H 0.7651 0.77888 0.42934 0.0
H3151 H 0.74654 0.79861 0.42502 0.0
C3152 C 0.78518 0.73877 0.43362 0.0
C3153 C 0.78108 0.72612 0.42513 0.0
C3154 C 0.77455 0.74993 0.43691 0.0
C3155 C 0.75963 0.74858 0.43184 0.0
C3156 C 0.75548 0.73546 0.42412 0.0
C3157 C 0.76601 0.72441 0.42089 0.0
C3158 C 0.72269 0.76943 0.43128 0.0
C3159 C 0.72737 0.78397 0.42762 0.0
C3160 C 0.73323 0.75823 0.43421 0.0
C3161 C 0.7487 0.76121 0.43296 0.0
C3162 C 0.75332 0.77613 0.43048 0.0
C3163 C 0.74271 0.78745 0.42794 0.0
H3164 H 0.21139 0.74022 0.43544 0.0
H3165 H 0.2453 0.71658 0.41012 0.0
H3166 H 0.22985 0.75959 0.44183 0.0
H3167 H 0.26333 0.73584 0.41599 0.0
H3168 H 0.2967 0.76773 0.42924 0.0
H3169 H 0.27855 0.74777 0.4337 0.0
H3170 H 0.24238 0.7797 0.4287 0.0
H3171 H 0.26075 0.79979 0.4252 0.0
C3172 C 0.2228 0.73901 0.43146 0.0
C3173 C 0.22681 0.72692 0.42214 0.0
C3174 C 0.23335 0.75017 0.43502 0.0
C3175 C 0.24812 0.74935 0.42943 0.0
C3176 C 0.2522 0.73681 0.42077 0.0
C3177 C 0.24175 0.72577 0.41723 0.0
C3178 C 0.28487 0.77051 0.42965 0.0
C3179 C 0.28006 0.7852 0.42681 0.0
C3180 C 0.27445 0.75908 0.43205 0.0
C3181 C 0.25895 0.762 0.43112 0.0
C3182 C 0.25419 0.777 0.42954 0.0
C3183 C 0.26469 0.78853 0.4275 0.0
H3184 H 0.26532 0.21207 0.43614 0.0
H3185 H 0.28849 0.2436 0.4075 0.0
H3186 H 0.24647 0.23132 0.44184 0.0
H3187 H 0.26977 0.26233 0.4127 0.0
H3188 H 0.23996 0.29763 0.42609 0.0
H3189 H 0.25947 0.27896 0.43023 0.0
H3190 H 0.22602 0.24385 0.429 0.0
H3191 H 0.20641 0.26279 0.42579 0.0
C3192 C 0.26651 0.22311 0.43121 0.0
C3193 C 0.27837 0.22622 0.42126 0.0
C3194 C 0.25567 0.23411 0.4344 0.0
C3195 C 0.25657 0.24844 0.42778 0.0
C3196 C 0.26877 0.2516 0.4183 0.0
C3197 C 0.2795 0.24071 0.41514 0.0
C3198 C 0.23677 0.28595 0.42721 0.0
C3199 C 0.22175 0.2816 0.42551 0.0
C3200 C 0.24793 0.27522 0.42943 0.0
C3201 C 0.2444 0.25982 0.42949 0.0
C3202 C 0.22918 0.25557 0.42904 0.0
C3203 C 0.21793 0.26641 0.42717 0.0
H3204 H 0.20725 0.25893 0.58145 0.0
H3205 H 0.23987 0.29462 0.58028 0.0
H3206 H 0.2273 0.24048 0.57805 0.0
H3207 H 0.2598 0.27643 0.57596 0.0
H3208 H 0.28988 0.24191 0.59884 0.0
H3209 H 0.27072 0.26021 0.59357 0.0
H3210 H 0.24789 0.22843 0.56494 0.0
H3211 H 0.26716 0.20964 0.57069 0.0
C3212 C 0.21865 0.26283 0.57983 0.0
C3213 C 0.22211 0.27812 0.5813 0.0
C3214 C 0.23015 0.25228 0.57785 0.0
C3215 C 0.24525 0.25692 0.57711 0.0
C3216 C 0.24838 0.2724 0.57697 0.0
C3217 C 0.23697 0.28286 0.5793 0.0
C3218 C 0.2809 0.23877 0.59128 0.0
C3219 C 0.28001 0.2242 0.58533 0.0
C3220 C 0.26993 0.24941 0.58808 0.0
C3221 C 0.25771 0.24589 0.57875 0.0
C3222 C 0.25708 0.23149 0.57226 0.0
C3223 C 0.26817 0.22076 0.57548 0.0
H3224 H 0.79579 0.26778 0.56989 0.0
H3225 H 0.76462 0.28956 0.59999 0.0
H3226 H 0.77666 0.24887 0.56401 0.0
H3227 H 0.74598 0.27078 0.59451 0.0
H3228 H 0.71067 0.24144 0.58021 0.0
H3229 H 0.72925 0.26111 0.57636 0.0
H3230 H 0.76452 0.22784 0.57691 0.0
H3231 H 0.74567 0.20807 0.57993 0.0
C3232 C 0.78485 0.26866 0.57509 0.0
C3233 C 0.7818 0.28014 0.5855 0.0
C3234 C 0.77392 0.25778 0.57179 0.0
C3235 C 0.75972 0.2583 0.57872 0.0
C3236 C 0.75662 0.27012 0.58869 0.0
C3237 C 0.76745 0.28086 0.59199 0.0
C3238 C 0.72236 0.23833 0.579 0.0
C3239 C 0.7268 0.22332 0.58049 0.0
C3240 C 0.73303 0.24958 0.57693 0.0
C3241 C 0.74843 0.24612 0.57677 0.0
C3242 C 0.75277 0.23093 0.57696 0.0
C3243 C 0.74199 0.21959 0.57871 0.0
H3244 H 0.26205 0.8001 0.57965 0.0
H3245 H 0.2969 0.76659 0.58082 0.0
H3246 H 0.24322 0.78044 0.57612 0.0
H3247 H 0.27835 0.74701 0.5764 0.0
H3248 H 0.24237 0.71872 0.59926 0.0
H3249 H 0.26126 0.73728 0.59397 0.0
H3250 H 0.23109 0.75959 0.56325 0.0
H3251 H 0.21167 0.7409 0.569 0.0
C3252 C 0.26572 0.78857 0.57851 0.0
C3253 C 0.28084 0.78478 0.58071 0.0
C3254 C 0.25494 0.77729 0.57646 0.0
C3255 C 0.25921 0.76208 0.57637 0.0
C3256 C 0.2746 0.75855 0.57691 0.0
C3257 C 0.28526 0.76976 0.57931 0.0
C3258 C 0.23971 0.72747 0.59125 0.0
C3259 C 0.2254 0.72839 0.58469 0.0
C3260 C 0.25068 0.73808 0.58804 0.0
C3261 C 0.2478 0.74996 0.57809 0.0
C3262 C 0.23367 0.75064 0.57104 0.0
C3263 C 0.22258 0.73989 0.57426 0.0
H3264 H 0.04128 0.22151 0.33704 0.0
H3265 H 0.04162 0.1768 0.31851 0.0
H3266 H 0.01391 0.22106 0.33769 0.0
H3267 H 0.01439 0.17596 0.31983 0.0
H3268 H 0.96607 0.18506 0.30718 0.0
H3269 H 0.99328 0.18535 0.30788 0.0
H3270 H 0.99195 0.2115 0.34872 0.0
H3271 H 0.96457 0.21178 0.34754 0.0
C3272 C 0.0355 0.2115 0.33332 0.0
C3273 C 0.04361 0.19924 0.32763 0.0
C3274 C 0.01977 0.21118 0.33376 0.0
C3275 C 0.01178 0.19851 0.32871 0.0
C3276 C 0.02002 0.18608 0.32347 0.0
C3277 C 0.03569 0.1865 0.32282 0.0
C3278 C 0.97157 0.19083 0.31636 0.0
C3279 C 0.96314 0.19838 0.32732 0.0
C3280 C 0.98725 0.19091 0.31683 0.0
C3281 C 0.99498 0.19837 0.32842 0.0
C3282 C 0.98648 0.20581 0.3395 0.0
C3283 C 0.97075 0.20589 0.3389 0.0
H3284 H 0.83034 0.9639 0.31999 0.0
H3285 H 0.78538 0.96368 0.33797 0.0
H3286 H 0.83081 0.99112 0.32124 0.0
H3287 H 0.78546 0.99108 0.33852 0.0
H3288 H 0.79416 0.04081 0.34779 0.0
H3289 H 0.7946 0.01342 0.34936 0.0
H3290 H 0.82115 0.01175 0.30876 0.0
H3291 H 0.82127 0.03891 0.3077 0.0
C3292 C 0.82051 0.9697 0.32416 0.0
C3293 C 0.8078 0.96164 0.32881 0.0
C3294 C 0.82071 0.98536 0.32477 0.0
C3295 C 0.80809 0.99345 0.32978 0.0
C3296 C 0.79547 0.98532 0.33475 0.0
C3297 C 0.79537 0.96959 0.33436 0.0
C3298 C 0.80016 0.03454 0.33929 0.0
C3299 C 0.80776 0.04204 0.32769 0.0
C3300 C 0.80034 0.01881 0.34011 0.0
C3301 C 0.80799 0.01024 0.32924 0.0
C3302 C 0.81546 0.01786 0.31759 0.0
C3303 C 0.81545 0.0335 0.3169 0.0
H3304 H 0.96488 0.79259 0.34938 0.0
H3305 H 0.96641 0.82103 0.3102 0.0
H3306 H 0.99228 0.79327 0.35089 0.0
H3307 H 0.99357 0.82116 0.3112 0.0
H3308 H 0.04132 0.83031 0.32239 0.0
H3309 H 0.01413 0.8306 0.32408 0.0
H3310 H 0.0146 0.78457 0.33943 0.0
H3311 H 0.04201 0.78464 0.33844 0.0
C3312 C 0.97107 0.79895 0.34108 0.0
C3313 C 0.96347 0.80683 0.32974 0.0
C3314 C 0.98679 0.79926 0.34187 0.0
C3315 C 0.99525 0.80733 0.33122 0.0
C3316 C 0.98754 0.81513 0.31985 0.0
C3317 C 0.97189 0.81497 0.3192 0.0
C3318 C 0.03562 0.82029 0.32625 0.0
C3319 C 0.04379 0.80743 0.33019 0.0
C3320 C 0.01998 0.8204 0.32711 0.0
C3321 C 0.01203 0.80753 0.33166 0.0
C3322 C 0.02027 0.79475 0.336 0.0
C3323 C 0.036 0.79475 0.33537 0.0
H3324 H 0.17682 0.04147 0.31822 0.0
H3325 H 0.22104 0.04202 0.33791 0.0
H3326 H 0.17679 0.01422 0.3188 0.0
H3327 H 0.22138 0.01462 0.33789 0.0
H3328 H 0.21241 0.96488 0.34694 0.0
H3329 H 0.21183 0.99224 0.34834 0.0
H3330 H 0.18732 0.9937 0.3065 0.0
H3331 H 0.18735 0.96646 0.30554 0.0
C3332 C 0.18658 0.03574 0.32264 0.0
C3333 C 0.19895 0.04391 0.32798 0.0
C3334 C 0.18663 0.02007 0.32286 0.0
C3335 C 0.19916 0.01208 0.32821 0.0
C3336 C 0.21145 0.02031 0.33383 0.0
C3337 C 0.2113 0.03604 0.33379 0.0
C3338 C 0.20687 0.97109 0.33808 0.0
C3339 C 0.19986 0.9635 0.32617 0.0
C3340 C 0.20661 0.9868 0.33882 0.0
C3341 C 0.19947 0.99531 0.32757 0.0
C3342 C 0.19263 0.98762 0.31558 0.0
C3343 C 0.19273 0.97195 0.31495 0.0
H3344 H 0.03973 0.81873 0.70218 0.0
H3345 H 0.0406 0.79245 0.66152 0.0
H3346 H 0.01245 0.81907 0.70144 0.0
H3347 H 0.0133 0.79337 0.6603 0.0
H3348 H 0.96376 0.78459 0.67104 0.0
H3349 H 0.99113 0.78421 0.67103 0.0
H3350 H 0.99163 0.82912 0.68936 0.0
H3351 H 0.96437 0.82911 0.69002 0.0
C3352 C 0.03408 0.81317 0.69297 0.0
C3353 C 0.04233 0.80556 0.68192 0.0
C3354 C 0.01839 0.81344 0.69247 0.0
C3355 C 0.01052 0.8063 0.68076 0.0
C3356 C 0.01886 0.79879 0.66963 0.0
C3357 C 0.03456 0.79834 0.67026 0.0
C3358 C 0.96975 0.79439 0.67499 0.0
C3359 C 0.96191 0.80684 0.6806 0.0
C3360 C 0.98548 0.79422 0.67493 0.0
C3361 C 0.99374 0.80661 0.68029 0.0
C3362 C 0.98577 0.81922 0.68548 0.0
C3363 C 0.97009 0.81928 0.68575 0.0
H3364 H 0.1852 0.03942 0.69857 0.0
H3365 H 0.21241 0.04066 0.65852 0.0
H3366 H 0.18476 0.01225 0.69758 0.0
H3367 H 0.21141 0.01328 0.65703 0.0
H3368 H 0.21965 0.96343 0.66853 0.0
H3369 H 0.22012 0.99083 0.66799 0.0
H3370 H 0.17472 0.99176 0.68508 0.0
H3371 H 0.17462 0.96453 0.68629 0.0
C3372 C 0.19093 0.03387 0.6894 0.0
C3373 C 0.19881 0.04222 0.6786 0.0
C3374 C 0.1906 0.01822 0.68876 0.0
C3375 C 0.19794 0.01042 0.67714 0.0
C3376 C 0.20577 0.01882 0.66625 0.0
C3377 C 0.20627 0.03453 0.66703 0.0
C3378 C 0.20977 0.96954 0.67209 0.0
C3379 C 0.19715 0.96183 0.67757 0.0
C3380 C 0.20999 0.98527 0.67172 0.0
C3381 C 0.19751 0.99364 0.67664 0.0
C3382 C 0.18471 0.98581 0.68158 0.0
C3383 C 0.18459 0.97014 0.68217 0.0
H3384 H 0.96483 0.2214 0.66972 0.0
H3385 H 0.96397 0.17659 0.68803 0.0
H3386 H 0.99219 0.22057 0.66889 0.0
H3387 H 0.99117 0.17537 0.68651 0.0
H3388 H 0.03954 0.18382 0.69902 0.0
H3389 H 0.01237 0.18453 0.69847 0.0
H3390 H 0.0139 0.21063 0.65758 0.0
H3391 H 0.0413 0.2105 0.65864 0.0
C3392 C 0.9705 0.21129 0.67337 0.0
C3393 C 0.96227 0.19911 0.67906 0.0
C3394 C 0.9862 0.21076 0.67281 0.0
C3395 C 0.99402 0.19794 0.67773 0.0
C3396 C 0.98565 0.18559 0.68297 0.0
C3397 C 0.97001 0.18623 0.68375 0.0
C3398 C 0.0341 0.18966 0.68987 0.0
C3399 C 0.04259 0.19708 0.67886 0.0
C3400 C 0.01844 0.18999 0.68947 0.0
C3401 C 0.01079 0.19755 0.67792 0.0
C3402 C 0.01933 0.20486 0.66678 0.0
C3403 C 0.03506 0.20471 0.66731 0.0
H3404 H 0.79509 0.04156 0.65597 0.0
H3405 H 0.82207 0.04028 0.69616 0.0
H3406 H 0.79541 0.01417 0.6549 0.0
H3407 H 0.82181 0.0131 0.6956 0.0
H3408 H 0.83008 0.96478 0.68564 0.0
H3409 H 0.83111 0.99195 0.68369 0.0
H3410 H 0.78583 0.99236 0.66627 0.0
H3411 H 0.7852 0.96501 0.66753 0.0
C3412 C 0.80106 0.03542 0.66459 0.0
C3413 C 0.80862 0.04309 0.67609 0.0
C3414 C 0.80116 0.0197 0.66406 0.0
C3415 C 0.80867 0.01129 0.67514 0.0
C3416 C 0.8162 0.01907 0.68664 0.0
C3417 C 0.81627 0.03473 0.68704 0.0
C3418 C 0.8204 0.97068 0.68128 0.0
C3419 C 0.80754 0.96277 0.6768 0.0
C3420 C 0.82092 0.98631 0.68026 0.0
C3421 C 0.80848 0.99451 0.67501 0.0
C3422 C 0.79571 0.98651 0.67021 0.0
C3423 C 0.7953 0.97081 0.671 0.0
H3424 H 0.35008 0.96296 0.21256 0.0
H3425 H 0.30989 0.96472 0.18561 0.0
H3426 H 0.35146 0.99035 0.21224 0.0
H3427 H 0.31078 0.99189 0.18586 0.0
H3428 H 0.3216 0.04 0.17727 0.0
H3429 H 0.32311 0.01279 0.1764 0.0
H3430 H 0.34032 0.01234 0.22177 0.0
H3431 H 0.3395 0.03971 0.22225 0.0
C3432 C 0.34152 0.9692 0.20661 0.0
C3433 C 0.32993 0.96168 0.19904 0.0
C3434 C 0.34224 0.98492 0.20651 0.0
C3435 C 0.33127 0.99346 0.19898 0.0
C3436 C 0.31966 0.98581 0.19148 0.0
C3437 C 0.31908 0.97016 0.19142 0.0
C3438 C 0.32582 0.03408 0.18701 0.0
C3439 C 0.33037 0.04198 0.19985 0.0
C3440 C 0.32659 0.01843 0.18658 0.0
C3441 C 0.33165 0.01022 0.19909 0.0
C3442 C 0.33652 0.01821 0.21184 0.0
C3443 C 0.33598 0.03391 0.21217 0.0
H3444 H 0.96453 0.30789 0.18514 0.0
H3445 H 0.96278 0.34799 0.21222 0.0
H3446 H 0.99174 0.30917 0.18484 0.0
H3447 H 0.99011 0.34978 0.21134 0.0
H3448 H 0.03998 0.33899 0.21991 0.0
H3449 H 0.01259 0.33922 0.22019 0.0
H3450 H 0.01215 0.3219 0.17486 0.0
H3451 H 0.0394 0.32097 0.17498 0.0
C3452 C 0.96998 0.31711 0.19089 0.0
C3453 C 0.9615 0.32784 0.19869 0.0
C3454 C 0.98563 0.31793 0.19062 0.0
C3455 C 0.99326 0.32967 0.19796 0.0
C3456 C 0.98472 0.34047 0.20572 0.0
C3457 C 0.96902 0.33951 0.20616 0.0
C3458 C 0.03399 0.33535 0.20999 0.0
C3459 C 0.04183 0.32986 0.19747 0.0
C3460 C 0.01826 0.33553 0.2101 0.0
C3461 C 0.01003 0.33042 0.1976 0.0
C3462 C 0.018 0.32553 0.18487 0.0
C3463 C 0.03367 0.32512 0.18486 0.0
H3464 H 0.68574 0.9648 0.17671 0.0
H3465 H 0.66757 0.96533 0.22159 0.0
H3466 H 0.68501 0.99204 0.17599 0.0
H3467 H 0.66754 0.99271 0.22127 0.0
H3468 H 0.65914 0.04244 0.21214 0.0
H3469 H 0.65719 0.0151 0.21195 0.0
H3470 H 0.69778 0.0126 0.18547 0.0
H3471 H 0.69921 0.03977 0.18508 0.0
C3472 C 0.68161 0.97077 0.18646 0.0
C3473 C 0.67677 0.96292 0.19923 0.0
C3474 C 0.68131 0.98644 0.18612 0.0
C3475 C 0.67643 0.99473 0.19866 0.0
C3476 C 0.67123 0.9868 0.21132 0.0
C3477 C 0.67131 0.97108 0.21156 0.0
C3478 C 0.66758 0.036 0.20623 0.0
C3479 C 0.67927 0.04327 0.19855 0.0
C3480 C 0.66653 0.0203 0.20619 0.0
C3481 C 0.67727 0.0115 0.19863 0.0
C3482 C 0.68905 0.01889 0.1911 0.0
C3483 C 0.68996 0.03453 0.19096 0.0
H3484 H 0.0389 0.69695 0.18612 0.0
H3485 H 0.04106 0.65732 0.21387 0.0
H3486 H 0.01177 0.69573 0.18628 0.0
H3487 H 0.01365 0.65561 0.21349 0.0
H3488 H 0.96408 0.68422 0.17725 0.0
H3489 H 0.99128 0.6828 0.17676 0.0
H3490 H 0.99125 0.66673 0.22254 0.0
H3491 H 0.96383 0.66746 0.22268 0.0
C3492 C 0.03356 0.68781 0.19209 0.0
C3493 C 0.04216 0.6772 0.19994 0.0
C3494 C 0.01792 0.68704 0.1921 0.0
C3495 C 0.01038 0.67548 0.19977 0.0
C3496 C 0.01901 0.66477 0.20758 0.0
C3497 C 0.03473 0.66568 0.20773 0.0
C3498 C 0.96987 0.68027 0.18718 0.0
C3499 C 0.96182 0.67605 0.20004 0.0
C3500 C 0.98552 0.67956 0.18695 0.0
C3501 C 0.9936 0.67488 0.1997 0.0
C3502 C 0.98548 0.67026 0.21246 0.0
C3503 C 0.96975 0.67075 0.21259 0.0
H3504 H 0.30634 0.96732 0.82038 0.0
H3505 H 0.34635 0.96527 0.79315 0.0
H3506 H 0.30775 0.99446 0.82062 0.0
H3507 H 0.34825 0.99264 0.79395 0.0
H3508 H 0.33714 0.04265 0.7855 0.0
H3509 H 0.33745 0.01524 0.78513 0.0
H3510 H 0.32084 0.0146 0.83072 0.0
H3511 H 0.31983 0.04184 0.83073 0.0
C3512 C 0.31559 0.97269 0.8146 0.0
C3513 C 0.32626 0.96414 0.80679 0.0
C3514 C 0.31648 0.98831 0.81482 0.0
C3515 C 0.32822 0.99586 0.80744 0.0
C3516 C 0.33896 0.98727 0.79963 0.0
C3517 C 0.33794 0.97157 0.79924 0.0
C3518 C 0.33364 0.0366 0.79545 0.0
C3519 C 0.32832 0.04437 0.80809 0.0
C3520 C 0.33389 0.02088 0.79528 0.0
C3521 C 0.329 0.0126 0.80784 0.0
C3522 C 0.32428 0.0205 0.82068 0.0
C3523 C 0.32381 0.03616 0.82074 0.0
H3524 H 0.043 0.30634 0.82073 0.0
H3525 H 0.04444 0.34672 0.79406 0.0
H3526 H 0.01579 0.30749 0.82118 0.0
H3527 H 0.01712 0.3484 0.79512 0.0
H3528 H 0.96732 0.33804 0.7867 0.0
H3529 H 0.99468 0.33807 0.7863 0.0
H3530 H 0.99518 0.3197 0.83122 0.0
H3531 H 0.96791 0.31896 0.83119 0.0
C3532 C 0.03748 0.3156 0.81512 0.0
C3533 C 0.04589 0.32645 0.80737 0.0
C3534 C 0.02182 0.31634 0.81547 0.0
C3535 C 0.01409 0.32811 0.80829 0.0
C3536 C 0.02257 0.33904 0.80061 0.0
C3537 C 0.03827 0.33815 0.80007 0.0
C3538 C 0.97332 0.33409 0.7965 0.0
C3539 C 0.96546 0.32841 0.80894 0.0
C3540 C 0.98904 0.33417 0.79633 0.0
C3541 C 0.9973 0.32877 0.80868 0.0
C3542 C 0.98933 0.32358 0.82132 0.0
C3543 C 0.97364 0.32328 0.82138 0.0
H3544 H 0.70025 0.04069 0.82009 0.0
H3545 H 0.66045 0.04263 0.7926 0.0
H3546 H 0.69896 0.01352 0.82024 0.0
H3547 H 0.65865 0.01526 0.79332 0.0
H3548 H 0.6692 0.9652 0.78517 0.0
H3549 H 0.66923 0.9926 0.78468 0.0
H3550 H 0.68607 0.99322 0.83017 0.0
H3551 H 0.68673 0.96598 0.83029 0.0
C3552 C 0.69109 0.03529 0.81421 0.0
C3553 C 0.68043 0.04384 0.80637 0.0
C3554 C 0.69026 0.01965 0.81439 0.0
C3555 C 0.6786 0.01204 0.80692 0.0
C3556 C 0.6679 0.02063 0.79906 0.0
C3557 C 0.66885 0.03635 0.79872 0.0
C3558 C 0.67284 0.97124 0.79507 0.0
C3559 C 0.67808 0.96343 0.80772 0.0
C3560 C 0.67279 0.98697 0.79483 0.0
C3561 C 0.6778 0.99527 0.80733 0.0
C3562 C 0.68251 0.98734 0.82016 0.0
C3563 C 0.68278 0.97166 0.8203 0.0
H3564 H 0.96742 0.6949 0.82276 0.0
H3565 H 0.96441 0.656 0.79408 0.0
H3566 H 0.99451 0.69296 0.82276 0.0
H3567 H 0.99175 0.65355 0.79461 0.0
H3568 H 0.04184 0.66475 0.78574 0.0
H3569 H 0.01442 0.66435 0.78589 0.0
H3570 H 0.01462 0.67928 0.83206 0.0
H3571 H 0.04185 0.6804 0.83156 0.0
C3572 C 0.97256 0.68576 0.81662 0.0
C3573 C 0.96374 0.67558 0.80846 0.0
C3574 C 0.98816 0.68457 0.8167 0.0
C3575 C 0.99545 0.67299 0.80881 0.0
C3576 C 0.98659 0.66271 0.80069 0.0
C3577 C 0.97091 0.66404 0.80046 0.0
C3578 C 0.03597 0.66782 0.79593 0.0
C3579 C 0.04397 0.67275 0.80859 0.0
C3580 C 0.02024 0.66753 0.79606 0.0
C3581 C 0.01219 0.67199 0.80893 0.0
C3582 C 0.02033 0.6762 0.82179 0.0
C3583 C 0.03599 0.67672 0.82157 0.0
H3584 H 0.18604 0.30662 0.04136 0.0
H3585 H 0.21274 0.34699 0.04279 0.0
H3586 H 0.18612 0.30742 0.01415 0.0
H3587 H 0.21224 0.34829 0.01541 0.0
H3588 H 0.22187 0.33682 0.966 0.0
H3589 H 0.22167 0.33729 0.99338 0.0
H3590 H 0.17651 0.31954 0.99322 0.0
H3591 H 0.1771 0.31839 0.96598 0.0
C3592 C 0.19175 0.31582 0.03584 0.0
C3593 C 0.19937 0.32675 0.04424 0.0
C3594 C 0.19172 0.31635 0.02017 0.0
C3595 C 0.19911 0.32798 0.01244 0.0
C3596 C 0.2066 0.33904 0.0209 0.0
C3597 C 0.20681 0.33837 0.03662 0.0
C3598 C 0.2119 0.33308 0.97186 0.0
C3599 C 0.19955 0.32747 0.96385 0.0
C3600 C 0.21173 0.33342 0.98758 0.0
C3601 C 0.19911 0.32835 0.99565 0.0
C3602 C 0.18659 0.32319 0.98751 0.0
C3603 C 0.18686 0.32263 0.97184 0.0
H3604 H 0.22043 0.67039 0.96642 0.0
H3605 H 0.17662 0.69093 0.96534 0.0
H3606 H 0.21997 0.67073 0.99373 0.0
H3607 H 0.17571 0.69058 0.99265 0.0
H3608 H 0.18502 0.70301 0.04123 0.0
H3609 H 0.18517 0.70208 0.01396 0.0
H3610 H 0.21008 0.66048 0.01559 0.0
H3611 H 0.21057 0.66194 0.04291 0.0
C3612 C 0.21059 0.67479 0.97204 0.0
C3613 C 0.19858 0.68068 0.96371 0.0
C3614 C 0.21026 0.6749 0.98775 0.0
C3615 C 0.19781 0.6807 0.99558 0.0
C3616 C 0.18566 0.68631 0.98715 0.0
C3617 C 0.1861 0.68641 0.97144 0.0
C3618 C 0.1905 0.69365 0.03575 0.0
C3619 C 0.1978 0.68256 0.04424 0.0
C3620 C 0.1905 0.69304 0.02006 0.0
C3621 C 0.19761 0.68118 0.01239 0.0
C3622 C 0.20472 0.66996 0.02097 0.0
C3623 C 0.20491 0.67071 0.03668 0.0
H3624 H 0.32074 0.17515 0.04306 0.0
H3625 H 0.33821 0.22029 0.04363 0.0
H3626 H 0.32217 0.17485 0.01583 0.0
H3627 H 0.33895 0.22037 0.01623 0.0
H3628 H 0.34886 0.21196 0.96662 0.0
H3629 H 0.35019 0.21131 0.99402 0.0
H3630 H 0.30969 0.1846 0.99516 0.0
H3631 H 0.30886 0.1847 0.96797 0.0
C3632 C 0.32484 0.18505 0.03733 0.0
C3633 C 0.32929 0.19777 0.04548 0.0
C3634 C 0.32555 0.18494 0.02167 0.0
C3635 C 0.33048 0.19766 0.01369 0.0
C3636 C 0.33525 0.21029 0.02191 0.0
C3637 C 0.33475 0.2103 0.03764 0.0
C3638 C 0.34033 0.20588 0.97278 0.0
C3639 C 0.32882 0.19831 0.96513 0.0
C3640 C 0.34102 0.20558 0.9885 0.0
C3641 C 0.33009 0.19784 0.99692 0.0
C3642 C 0.31854 0.19037 0.98916 0.0
C3643 C 0.31799 0.1905 0.9735 0.0
H3644 H 0.82121 0.30627 0.96747 0.0
H3645 H 0.79447 0.34656 0.96514 0.0
H3646 H 0.8203 0.30711 0.99466 0.0
H3647 H 0.79414 0.34791 0.99252 0.0
H3648 H 0.78357 0.33696 0.04188 0.0
H3649 H 0.78432 0.33719 0.0145 0.0
H3650 H 0.8294 0.3193 0.01573 0.0
H3651 H 0.82825 0.31838 0.04297 0.0
C3652 C 0.81528 0.31545 0.97279 0.0
C3653 C 0.80793 0.32636 0.96413 0.0
C3654 C 0.81485 0.31601 0.98846 0.0
C3655 C 0.80724 0.32766 0.99596 0.0
C3656 C 0.79994 0.33865 0.98724 0.0
C3657 C 0.8002 0.33795 0.97151 0.0
C3658 C 0.79364 0.33313 0.03626 0.0
C3659 C 0.8058 0.32755 0.04458 0.0
C3660 C 0.79412 0.33333 0.02053 0.0
C3661 C 0.80688 0.32814 0.01275 0.0
C3662 C 0.81921 0.32302 0.0212 0.0
C3663 C 0.81862 0.3226 0.03687 0.0
H3664 H 0.66097 0.79516 0.04206 0.0
H3665 H 0.70169 0.82127 0.04009 0.0
H3666 H 0.65941 0.79554 0.01472 0.0
H3667 H 0.70067 0.82102 0.01287 0.0
H3668 H 0.68926 0.82969 0.96445 0.0
H3669 H 0.68888 0.83048 0.99176 0.0
H3670 H 0.66966 0.78593 0.99269 0.0
H3671 H 0.66933 0.78559 0.96536 0.0
C3672 C 0.66964 0.8009 0.03577 0.0
C3673 C 0.68141 0.80823 0.04324 0.0
C3674 C 0.66883 0.80104 0.02005 0.0
C3675 C 0.67991 0.80833 0.01141 0.0
C3676 C 0.69172 0.81558 0.019 0.0
C3677 C 0.69239 0.81563 0.03468 0.0
C3678 C 0.68487 0.82012 0.97052 0.0
C3679 C 0.67933 0.80759 0.96275 0.0
C3680 C 0.68475 0.82049 0.98622 0.0
C3681 C 0.67934 0.80822 0.9946 0.0
C3682 C 0.67369 0.79572 0.98674 0.0
C3683 C 0.67359 0.79546 0.97102 0.0
H3684 H 0.78614 0.66687 0.04094 0.0
H3685 H 0.83097 0.68514 0.04035 0.0
H3686 H 0.78606 0.66616 0.01357 0.0
H3687 H 0.83128 0.68375 0.01311 0.0
H3688 H 0.82082 0.69718 0.96528 0.0
H3689 H 0.82126 0.69611 0.99247 0.0
H3690 H 0.79516 0.65523 0.99131 0.0
H3691 H 0.79415 0.65679 0.96395 0.0
C3692 C 0.79608 0.67048 0.03496 0.0
C3693 C 0.80851 0.67617 0.04279 0.0
C3694 C 0.79608 0.67001 0.01924 0.0
C3695 C 0.80861 0.67503 0.011 0.0
C3696 C 0.82126 0.68016 0.01896 0.0
C3697 C 0.82115 0.68084 0.03463 0.0
C3698 C 0.81522 0.68792 0.97082 0.0
C3699 C 0.80746 0.67706 0.96245 0.0
C3700 C 0.81556 0.68723 0.98647 0.0
C3701 C 0.80834 0.67551 0.99423 0.0
C3702 C 0.80068 0.66454 0.9858 0.0
C3703 C 0.80018 0.66535 0.9701 0.0
H3704 H 0.34047 0.78617 0.03938 0.0
H3705 H 0.32379 0.83161 0.03891 0.0
H3706 H 0.34125 0.78617 0.01197 0.0
H3707 H 0.32525 0.83197 0.01169 0.0
H3708 H 0.31067 0.8219 0.9642 0.0
H3709 H 0.31213 0.8222 0.99135 0.0
H3710 H 0.35233 0.79511 0.98953 0.0
H3711 H 0.35039 0.79427 0.96217 0.0
C3712 C 0.33724 0.79625 0.03342 0.0
C3713 C 0.33193 0.80883 0.04127 0.0
C3714 C 0.33775 0.7963 0.01769 0.0
C3715 C 0.33313 0.80901 0.00951 0.0
C3716 C 0.32849 0.82181 0.01751 0.0
C3717 C 0.32776 0.82167 0.03316 0.0
C3718 C 0.31988 0.81606 0.96957 0.0
C3719 C 0.33043 0.80808 0.96102 0.0
C3720 C 0.3208 0.81632 0.9852 0.0
C3721 C 0.33244 0.80879 0.99276 0.0
C3722 C 0.34311 0.8009 0.98416 0.0
C3723 C 0.34207 0.80049 0.96847 0.0
H3724 H 0.65642 0.21256 0.96287 0.0
H3725 H 0.69689 0.18608 0.96508 0.0
H3726 H 0.65433 0.21163 0.9902 0.0
H3727 H 0.69531 0.18574 0.99224 0.0
H3728 H 0.68358 0.17609 0.03993 0.0
H3729 H 0.6827 0.17573 0.01267 0.0
H3730 H 0.66461 0.22075 0.01272 0.0
H3731 H 0.66479 0.2207 0.04011 0.0
C3732 C 0.66489 0.20659 0.96921 0.0
C3733 C 0.67677 0.19933 0.96181 0.0
C3734 C 0.66377 0.20613 0.9849 0.0
C3735 C 0.67461 0.19856 0.99357 0.0
C3736 C 0.68651 0.19138 0.98605 0.0
C3737 C 0.6875 0.19166 0.97041 0.0
C3738 C 0.67928 0.18585 0.03411 0.0
C3739 C 0.67431 0.19844 0.04216 0.0
C3740 C 0.67889 0.18572 0.01843 0.0
C3741 C 0.67379 0.1983 0.01034 0.0
C3742 C 0.66846 0.21077 0.01847 0.0
C3743 C 0.66863 0.21079 0.0342 0.0
H3744 H 0.46435 0.6749 0.81494 0.0
H3745 H 0.46426 0.71908 0.83474 0.0
H3746 H 0.49163 0.67449 0.81582 0.0
H3747 H 0.49161 0.71908 0.83494 0.0
H3748 H 0.54083 0.71001 0.84477 0.0
H3749 H 0.51349 0.70941 0.84575 0.0
H3750 H 0.5127 0.68449 0.80413 0.0
H3751 H 0.53996 0.68448 0.80363 0.0
C3752 C 0.47019 0.68457 0.81943 0.0
C3753 C 0.46216 0.69703 0.82476 0.0
C3754 C 0.48587 0.6844 0.81982 0.0
C3755 C 0.49397 0.69681 0.82533 0.0
C3756 C 0.48585 0.70921 0.83082 0.0
C3757 C 0.47014 0.70927 0.83063 0.0
C3758 C 0.53478 0.70435 0.83588 0.0
C3759 C 0.54256 0.69724 0.82416 0.0
C3760 C 0.51908 0.70409 0.83637 0.0
C3761 C 0.51075 0.69689 0.82503 0.0
C3762 C 0.51862 0.68987 0.81326 0.0
C3763 C 0.53431 0.68994 0.8129 0.0
H3764 H 0.29344 0.54036 0.84408 0.0
H3765 H 0.31915 0.5396 0.80303 0.0
H3766 H 0.29396 0.51302 0.84494 0.0
H3767 H 0.31906 0.51234 0.8034 0.0
H3768 H 0.32876 0.46401 0.81438 0.0
H3769 H 0.32906 0.49129 0.81513 0.0
H3770 H 0.28435 0.49116 0.83401 0.0
H3771 H 0.28446 0.46382 0.83393 0.0
C3772 C 0.29911 0.53433 0.83518 0.0
C3773 C 0.3063 0.54213 0.82352 0.0
C3774 C 0.29933 0.51863 0.8356 0.0
C3775 C 0.30656 0.51034 0.82425 0.0
C3776 C 0.31365 0.51824 0.81253 0.0
C3777 C 0.31362 0.53392 0.81224 0.0
C3778 C 0.31903 0.46983 0.81876 0.0
C3779 C 0.30659 0.46177 0.82408 0.0
C3780 C 0.31913 0.48551 0.81909 0.0
C3781 C 0.30667 0.49357 0.82452 0.0
C3782 C 0.29425 0.48543 0.82995 0.0
C3783 C 0.29426 0.46972 0.82983 0.0
H3784 H 0.54055 0.32997 0.8172 0.0
H3785 H 0.5412 0.28519 0.83558 0.0
H3786 H 0.51332 0.33017 0.81844 0.0
H3787 H 0.51381 0.28501 0.83616 0.0
H3788 H 0.46431 0.29358 0.84628 0.0
H3789 H 0.49169 0.29419 0.84728 0.0
H3790 H 0.49245 0.3203 0.80639 0.0
H3791 H 0.46523 0.32027 0.80587 0.0
C3792 C 0.53484 0.32011 0.82145 0.0
C3793 C 0.54303 0.30754 0.82624 0.0
C3794 C 0.51917 0.32016 0.82205 0.0
C3795 C 0.51121 0.30753 0.82722 0.0
C3796 C 0.51947 0.29502 0.83227 0.0
C3797 C 0.5352 0.29507 0.83187 0.0
C3798 C 0.47037 0.29952 0.83757 0.0
C3799 C 0.4626 0.30695 0.82605 0.0
C3800 C 0.4861 0.29978 0.83807 0.0
C3801 C 0.49442 0.30733 0.82694 0.0
C3802 C 0.48654 0.31466 0.81537 0.0
C3803 C 0.47086 0.31456 0.815 0.0
H3804 H 0.72183 0.46388 0.83723 0.0
H3805 H 0.6775 0.46305 0.81782 0.0
H3806 H 0.72132 0.49124 0.83729 0.0
H3807 H 0.67657 0.4903 0.81857 0.0
H3808 H 0.68552 0.5386 0.80566 0.0
H3809 H 0.68596 0.51138 0.80661 0.0
H3810 H 0.71156 0.51324 0.84778 0.0
H3811 H 0.71172 0.54058 0.84633 0.0
C3812 C 0.71188 0.46956 0.83319 0.0
C3813 C 0.69975 0.46131 0.82744 0.0
C3814 C 0.71153 0.48528 0.8333 0.0
C3815 C 0.69893 0.49314 0.82784 0.0
C3816 C 0.68663 0.48477 0.82252 0.0
C3817 C 0.6871 0.46909 0.8222 0.0
C3818 C 0.69121 0.5332 0.81495 0.0
C3819 C 0.69858 0.54176 0.82592 0.0
C3820 C 0.69138 0.51752 0.81557 0.0
C3821 C 0.69873 0.50994 0.82733 0.0
C3822 C 0.70598 0.51858 0.83841 0.0
C3823 C 0.70599 0.53429 0.83766 0.0
H3824 H 0.46353 0.29366 0.16167 0.0
H3825 H 0.46481 0.31978 0.20242 0.0
H3826 H 0.49089 0.2942 0.16045 0.0
H3827 H 0.49204 0.31971 0.20172 0.0
H3828 H 0.54031 0.32903 0.19079 0.0
H3829 H 0.51304 0.32948 0.18995 0.0
H3830 H 0.51296 0.28479 0.17106 0.0
H3831 H 0.54033 0.28477 0.17121 0.0
C3832 C 0.46968 0.29944 0.17042 0.0
C3833 C 0.46201 0.30674 0.18209 0.0
C3834 C 0.4854 0.29967 0.1698 0.0
C3835 C 0.49384 0.30703 0.18097 0.0
C3836 C 0.48605 0.31422 0.19269 0.0
C3837 C 0.47037 0.31418 0.19317 0.0
C3838 C 0.53445 0.31935 0.18637 0.0
C3839 C 0.54247 0.30686 0.18109 0.0
C3840 C 0.51877 0.31953 0.18599 0.0
C3841 C 0.51063 0.30711 0.18057 0.0
C3842 C 0.51874 0.29467 0.17512 0.0
C3843 C 0.53446 0.2946 0.17528 0.0
H3844 H 0.71004 0.4654 0.15659 0.0
H3845 H 0.6825 0.46798 0.19636 0.0
H3846 H 0.70981 0.49278 0.1547 0.0
H3847 H 0.68283 0.49512 0.19497 0.0
H3848 H 0.67431 0.54291 0.18327 0.0
H3849 H 0.67347 0.51569 0.18203 0.0
H3850 H 0.71911 0.51508 0.16557 0.0
H3851 H 0.71958 0.54246 0.16611 0.0
C3852 C 0.70399 0.47182 0.16495 0.0
C3853 C 0.69621 0.46453 0.17657 0.0
C3854 C 0.70393 0.48753 0.16394 0.0
C3855 C 0.69623 0.49628 0.17463 0.0
C3856 C 0.68857 0.48887 0.18628 0.0
C3857 C 0.68846 0.47324 0.18716 0.0
C3858 C 0.68411 0.53696 0.17925 0.0
C3859 C 0.69703 0.54482 0.17486 0.0
C3860 C 0.6837 0.5213 0.17865 0.0
C3861 C 0.69631 0.51304 0.17392 0.0
C3862 C 0.70912 0.52098 0.16914 0.0
C3863 C 0.70943 0.5367 0.16951 0.0
H3864 H 0.54059 0.67701 0.18108 0.0
H3865 H 0.5403 0.72259 0.1648 0.0
H3866 H 0.51338 0.67629 0.17992 0.0
H3867 H 0.51289 0.72223 0.16433 0.0
H3868 H 0.46314 0.71358 0.15546 0.0
H3869 H 0.49049 0.71322 0.15341 0.0
H3870 H 0.49286 0.68542 0.19311 0.0
H3871 H 0.4657 0.68524 0.19464 0.0
C3872 C 0.53468 0.68691 0.17726 0.0
C3873 C 0.54258 0.69988 0.17311 0.0
C3874 C 0.51902 0.68656 0.17671 0.0
C3875 C 0.51079 0.69929 0.17227 0.0
C3876 C 0.51877 0.71215 0.16769 0.0
C3877 C 0.5345 0.71241 0.16801 0.0
C3878 C 0.46955 0.70731 0.16365 0.0
C3879 C 0.46225 0.69937 0.17516 0.0
C3880 C 0.48526 0.70718 0.16256 0.0
C3881 C 0.49402 0.69924 0.17305 0.0
C3882 C 0.4866 0.69136 0.18457 0.0
C3883 C 0.47096 0.69134 0.18554 0.0
H3884 H 0.32054 0.46697 0.19744 0.0
H3885 H 0.29281 0.46373 0.15787 0.0
H3886 H 0.32049 0.49409 0.19538 0.0
H3887 H 0.2933 0.49105 0.15532 0.0
H3888 H 0.28461 0.54134 0.16544 0.0
H3889 H 0.28449 0.51392 0.1656 0.0
H3890 H 0.33028 0.51398 0.18163 0.0
H3891 H 0.33005 0.54123 0.18214 0.0
C3892 C 0.31457 0.47207 0.18816 0.0
C3893 C 0.30672 0.46319 0.17779 0.0
C3894 C 0.31463 0.48768 0.18689 0.0
C3895 C 0.30704 0.49489 0.17507 0.0
C3896 C 0.29916 0.48597 0.16467 0.0
C3897 C 0.29894 0.47029 0.16606 0.0
C3898 C 0.29467 0.53544 0.16887 0.0
C3899 C 0.30729 0.54342 0.17391 0.0
C3900 C 0.29464 0.5197 0.16892 0.0
C3901 C 0.3073 0.51162 0.17384 0.0
C3902 C 0.32014 0.51973 0.17818 0.0
C3903 C 0.32008 0.53539 0.17836 0.0
H3904 H 0.84155 0.54112 0.7212 0.0
H3905 H 0.82351 0.54109 0.67628 0.0
H3906 H 0.84235 0.51375 0.72093 0.0
H3907 H 0.825 0.51386 0.67562 0.0
H3908 H 0.81141 0.46594 0.68543 0.0
H3909 H 0.81258 0.49312 0.68527 0.0
H3910 H 0.85323 0.49154 0.7117 0.0
H3911 H 0.85157 0.46418 0.71242 0.0
C3912 C 0.83802 0.53526 0.71116 0.0
C3913 C 0.83236 0.54325 0.69881 0.0
C3914 C 0.83854 0.51954 0.71096 0.0
C3915 C 0.83359 0.51146 0.6983 0.0
C3916 C 0.82853 0.51958 0.68573 0.0
C3917 C 0.82779 0.53524 0.68604 0.0
C3918 C 0.82065 0.47138 0.69115 0.0
C3919 C 0.83141 0.46289 0.69892 0.0
C3920 C 0.8214 0.48703 0.69098 0.0
C3921 C 0.83307 0.49467 0.69838 0.0
C3922 C 0.84396 0.48613 0.70603 0.0
C3923 C 0.84308 0.47042 0.70637 0.0
H3924 H 0.54151 0.85002 0.7141 0.0
H3925 H 0.53931 0.81041 0.68633 0.0
H3926 H 0.51413 0.85191 0.7135 0.0
H3927 H 0.51217 0.8118 0.68629 0.0
H3928 H 0.46453 0.8235 0.67709 0.0
H3929 H 0.49176 0.82478 0.67667 0.0
H3930 H 0.49167 0.84103 0.72239 0.0
H3931 H 0.46428 0.84045 0.72245 0.0
C3932 C 0.53517 0.84169 0.70792 0.0
C3933 C 0.54258 0.83013 0.70019 0.0
C3934 C 0.51946 0.84271 0.70765 0.0
C3935 C 0.51082 0.83207 0.69976 0.0
C3936 C 0.51834 0.82045 0.69216 0.0
C3937 C 0.53397 0.81957 0.69227 0.0
C3938 C 0.47033 0.82749 0.687 0.0
C3939 C 0.46227 0.8318 0.69982 0.0
C3940 C 0.48599 0.82811 0.68682 0.0
C3941 C 0.49405 0.83278 0.69958 0.0
C3942 C 0.48592 0.8375 0.71229 0.0
C3943 C 0.47019 0.83711 0.71237 0.0
H3944 H 0.15717 0.54231 0.71094 0.0
H3945 H 0.19677 0.54026 0.68312 0.0
H3946 H 0.15548 0.51492 0.7105 0.0
H3947 H 0.19557 0.51312 0.68322 0.0
H3948 H 0.18402 0.46546 0.67407 0.0
H3949 H 0.18258 0.49267 0.67364 0.0
H3950 H 0.16661 0.49252 0.71946 0.0
H3951 H 0.16736 0.46512 0.71953 0.0
C3952 C 0.16553 0.53601 0.70478 0.0
C3953 C 0.17703 0.54346 0.69698 0.0
C3954 C 0.16464 0.52029 0.70459 0.0
C3955 C 0.17533 0.51169 0.69673 0.0
C3956 C 0.18688 0.51926 0.68907 0.0
C3957 C 0.18765 0.53489 0.6891 0.0
C3958 C 0.18008 0.47124 0.68401 0.0
C3959 C 0.17589 0.46316 0.69686 0.0
C3960 C 0.17936 0.48689 0.68382 0.0
C3961 C 0.17472 0.49493 0.6966 0.0
C3962 C 0.17012 0.48678 0.70935 0.0
C3963 C 0.17061 0.47106 0.70944 0.0
H3964 H 0.46486 0.15585 0.7125 0.0
H3965 H 0.46667 0.19543 0.68466 0.0
H3966 H 0.49225 0.15426 0.71196 0.0
H3967 H 0.49383 0.19435 0.68467 0.0
H3968 H 0.54167 0.18331 0.67577 0.0
H3969 H 0.51448 0.18166 0.67522 0.0
H3970 H 0.51453 0.16544 0.72095 0.0
H3971 H 0.54193 0.16638 0.72113 0.0
C3972 C 0.47111 0.16422 0.7063 0.0
C3973 C 0.46359 0.1757 0.69854 0.0
C3974 C 0.48683 0.16339 0.70606 0.0
C3975 C 0.49538 0.17413 0.69821 0.0
C3976 C 0.48774 0.18563 0.69054 0.0
C3977 C 0.47209 0.18633 0.69061 0.0
C3978 C 0.53588 0.17926 0.68566 0.0
C3979 C 0.54394 0.17506 0.69852 0.0
C3980 C 0.52023 0.17842 0.68541 0.0
C3981 C 0.51216 0.17365 0.69813 0.0
C3982 C 0.52029 0.16904 0.71088 0.0
C3983 C 0.53602 0.16964 0.71103 0.0
H3984 H 0.83345 0.46538 0.28439 0.0
H3985 H 0.81462 0.46547 0.32901 0.0
H3986 H 0.83384 0.49274 0.28446 0.0
H3987 H 0.8157 0.49272 0.32948 0.0
H3988 H 0.80325 0.54088 0.32005 0.0
H3989 H 0.80379 0.51368 0.31978 0.0
H3990 H 0.84478 0.51477 0.29383 0.0
H3991 H 0.84373 0.54216 0.2935 0.0
C3992 C 0.82959 0.47126 0.2943 0.0
C3993 C 0.82391 0.46328 0.30665 0.0
C3994 C 0.82989 0.48698 0.29439 0.0
C3995 C 0.82471 0.49509 0.30694 0.0
C3996 C 0.81944 0.48698 0.31945 0.0
C3997 C 0.81892 0.47131 0.31925 0.0
C3998 C 0.8124 0.53533 0.3143 0.0
C3999 C 0.82346 0.54369 0.30682 0.0
C4000 C 0.81279 0.51966 0.31423 0.0
C4001 C 0.8244 0.51187 0.30689 0.0
C4002 C 0.83554 0.52029 0.29944 0.0
C4003 C 0.83501 0.53602 0.29932 0.0
H4004 H 0.54087 0.80478 0.32058 0.0
H4005 H 0.54259 0.84509 0.29379 0.0
H4006 H 0.51368 0.80572 0.32046 0.0
H4007 H 0.5152 0.84651 0.29424 0.0
H4008 H 0.46544 0.83535 0.28523 0.0
H4009 H 0.49285 0.83568 0.28509 0.0
H4010 H 0.4931 0.81823 0.33036 0.0
H4011 H 0.46587 0.81722 0.33013 0.0
C4012 C 0.53541 0.81398 0.31481 0.0
C4013 C 0.5439 0.82488 0.30723 0.0
C4014 C 0.51976 0.8146 0.31483 0.0
C4015 C 0.5121 0.82628 0.30746 0.0
C4016 C 0.52063 0.83724 0.29989 0.0
C4017 C 0.53635 0.83649 0.2997 0.0
C4018 C 0.4714 0.83166 0.29515 0.0
C4019 C 0.46351 0.82615 0.30764 0.0
C4020 C 0.48713 0.83191 0.29512 0.0
C4021 C 0.49532 0.82684 0.30766 0.0
C4022 C 0.48729 0.82184 0.32033 0.0
C4023 C 0.47163 0.82137 0.32026 0.0
H4024 H 0.18488 0.46516 0.3287 0.0
H4025 H 0.16659 0.46521 0.28388 0.0
H4026 H 0.18444 0.49242 0.32901 0.0
H4027 H 0.16685 0.4926 0.28379 0.0
H4028 H 0.15907 0.5426 0.29217 0.0
H4029 H 0.1568 0.51528 0.29277 0.0
H4030 H 0.19741 0.51269 0.31918 0.0
H4031 H 0.19916 0.53985 0.31915 0.0
C4032 C 0.18078 0.47103 0.31888 0.0
C4033 C 0.17582 0.46304 0.30625 0.0
C4034 C 0.18065 0.48671 0.31898 0.0
C4035 C 0.17582 0.49487 0.30633 0.0
C4036 C 0.1705 0.48681 0.29381 0.0
C4037 C 0.17041 0.47107 0.29382 0.0
C4038 C 0.16744 0.53614 0.29815 0.0
C4039 C 0.17924 0.54339 0.30568 0.0
C4040 C 0.16621 0.52045 0.29843 0.0
C4041 C 0.17687 0.51164 0.3061 0.0
C4042 C 0.18874 0.519 0.31347 0.0
C4043 C 0.18984 0.53463 0.31337 0.0
H4044 H 0.54079 0.16484 0.28623 0.0
H4045 H 0.54167 0.1827 0.33122 0.0
H4046 H 0.51341 0.16435 0.28696 0.0
H4047 H 0.51445 0.18152 0.33232 0.0
H4048 H 0.4665 0.19562 0.32334 0.0
H4049 H 0.49367 0.1942 0.32303 0.0
H4050 H 0.49128 0.15359 0.29661 0.0
H4051 H 0.46393 0.1555 0.29635 0.0
C4052 C 0.53512 0.1684 0.29637 0.0
C4053 C 0.54337 0.17392 0.30861 0.0
C4054 C 0.51941 0.16806 0.29684 0.0
C4055 C 0.51158 0.17304 0.30965 0.0
C4056 C 0.51997 0.17797 0.3221 0.0
C4057 C 0.53562 0.17854 0.32153 0.0
C4058 C 0.47176 0.18633 0.31752 0.0
C4059 C 0.46305 0.17566 0.30989 0.0
C4060 C 0.4874 0.18544 0.31742 0.0
C4061 C 0.49481 0.17371 0.30988 0.0
C4062 C 0.48605 0.1629 0.30237 0.0
C4063 C 0.47035 0.16392 0.30231 0.0
H4064 H 0.71115 0.84863 0.4664 0.0
H4065 H 0.68436 0.8083 0.46726 0.0
H4066 H 0.71071 0.84945 0.49383 0.0
H4067 H 0.6845 0.80863 0.49445 0.0
H4068 H 0.67586 0.81831 0.54287 0.0
H4069 H 0.67505 0.82024 0.51568 0.0
H4070 H 0.7202 0.83801 0.51563 0.0
H4071 H 0.72061 0.83677 0.54298 0.0
C4072 C 0.7052 0.83993 0.47245 0.0
C4073 C 0.69772 0.82846 0.46465 0.0
C4074 C 0.70503 0.84032 0.48819 0.0
C4075 C 0.69753 0.82913 0.49649 0.0
C4076 C 0.6901 0.81767 0.48857 0.0
C4077 C 0.69009 0.81741 0.4729 0.0
C4078 C 0.68557 0.82272 0.53705 0.0
C4079 C 0.69832 0.82732 0.54507 0.0
C4080 C 0.68517 0.82373 0.5214 0.0
C4081 C 0.69763 0.82912 0.51329 0.0
C4082 C 0.71031 0.83397 0.5214 0.0
C4083 C 0.7106 0.83318 0.53711 0.0
H4084 H 0.72205 0.16884 0.46386 0.0
H4085 H 0.67696 0.18644 0.4635 0.0
H4086 H 0.72156 0.16818 0.49126 0.0
H4087 H 0.67609 0.18511 0.49071 0.0
H4088 H 0.68484 0.19815 0.53892 0.0
H4089 H 0.6853 0.1974 0.51171 0.0
H4090 H 0.71204 0.15697 0.51324 0.0
H4091 H 0.71215 0.15821 0.54064 0.0
C4092 C 0.71195 0.17235 0.46964 0.0
C4093 C 0.69959 0.17781 0.46153 0.0
C4094 C 0.71162 0.17191 0.48537 0.0
C4095 C 0.69882 0.17672 0.49334 0.0
C4096 C 0.6863 0.18168 0.48509 0.0
C4097 C 0.68674 0.18234 0.46943 0.0
C4098 C 0.69077 0.18905 0.53346 0.0
C4099 C 0.69843 0.17822 0.54195 0.0
C4100 C 0.69096 0.18855 0.51779 0.0
C4101 C 0.69863 0.17706 0.51013 0.0
C4102 C 0.70619 0.16611 0.51867 0.0
C4103 C 0.70616 0.16674 0.5344 0.0
H4104 H 0.82208 0.6755 0.54202 0.0
H4105 H 0.83903 0.72084 0.54182 0.0
H4106 H 0.82292 0.67497 0.51477 0.0
H4107 H 0.83917 0.72068 0.51441 0.0
H4108 H 0.84757 0.71229 0.46457 0.0
H4109 H 0.84975 0.71174 0.4919 0.0
H4110 H 0.80978 0.68434 0.49435 0.0
H4111 H 0.80811 0.68433 0.46718 0.0
C4112 C 0.82598 0.68539 0.53612 0.0
C4113 C 0.83043 0.69823 0.54406 0.0
C4114 C 0.82634 0.68515 0.52044 0.0
C4115 C 0.83089 0.69786 0.51224 0.0
C4116 C 0.83574 0.7106 0.52026 0.0
C4117 C 0.83561 0.71074 0.536 0.0
C4118 C 0.83933 0.70607 0.47099 0.0
C4119 C 0.82772 0.69828 0.46371 0.0
C4120 C 0.84051 0.70583 0.48669 0.0
C4121 C 0.82998 0.69794 0.49547 0.0
C4122 C 0.81834 0.69024 0.48807 0.0
C4123 C 0.8173 0.69032 0.47243 0.0
H4124 H 0.32296 0.81154 0.4672 0.0
H4125 H 0.29529 0.85121 0.46484 0.0
H4126 H 0.32291 0.81302 0.49439 0.0
H4127 H 0.29578 0.85318 0.49218 0.0
H4128 H 0.28591 0.84147 0.54177 0.0
H4129 H 0.28643 0.8421 0.51438 0.0
H4130 H 0.33221 0.82607 0.515 0.0
H4131 H 0.33135 0.82476 0.54222 0.0
C4132 C 0.31705 0.82074 0.47251 0.0
C4133 C 0.30914 0.83126 0.46386 0.0
C4134 C 0.31709 0.82167 0.48815 0.0
C4135 C 0.30942 0.83329 0.4956 0.0
C4136 C 0.30165 0.84395 0.4869 0.0
C4137 C 0.30145 0.8429 0.47121 0.0
C4138 C 0.2961 0.83821 0.53601 0.0
C4139 C 0.30854 0.83294 0.54412 0.0
C4140 C 0.29645 0.83862 0.52029 0.0
C4141 C 0.30932 0.83397 0.51236 0.0
C4142 C 0.32196 0.82935 0.52062 0.0
C4143 C 0.32152 0.82871 0.53627 0.0
H4144 H 0.16535 0.28614 0.46468 0.0
H4145 H 0.18274 0.3313 0.46581 0.0
H4146 H 0.16486 0.28562 0.49208 0.0
H4147 H 0.18156 0.33117 0.49306 0.0
H4148 H 0.19591 0.32038 0.54042 0.0
H4149 H 0.19447 0.32105 0.51327 0.0
H4150 H 0.15413 0.29413 0.51473 0.0
H4151 H 0.15607 0.29289 0.54208 0.0
C4152 C 0.1688 0.29606 0.4708 0.0
C4153 C 0.17421 0.30871 0.46311 0.0
C4154 C 0.16847 0.29581 0.48653 0.0
C4155 C 0.17334 0.30829 0.49491 0.0
C4156 C 0.17811 0.32117 0.48709 0.0
C4157 C 0.17867 0.32132 0.47142 0.0
C4158 C 0.18669 0.31464 0.53497 0.0
C4159 C 0.17609 0.30661 0.54342 0.0
C4160 C 0.18578 0.31511 0.51934 0.0
C4161 C 0.17409 0.30776 0.51167 0.0
C4162 C 0.1634 0.29979 0.52017 0.0
C4163 C 0.16444 0.29915 0.53586 0.0
H4164 H 0.2843 0.16927 0.54218 0.0
H4165 H 0.32918 0.1874 0.54123 0.0
H4166 H 0.28369 0.16935 0.51478 0.0
H4167 H 0.32896 0.18679 0.51398 0.0
H4168 H 0.31856 0.20087 0.46657 0.0
H4169 H 0.31879 0.19958 0.49375 0.0
H4170 H 0.29236 0.15893 0.49208 0.0
H4171 H 0.29154 0.16073 0.46471 0.0
C4172 C 0.29413 0.17305 0.5361 0.0
C4173 C 0.30674 0.17844 0.54386 0.0
C4174 C 0.29383 0.17303 0.52037 0.0
C4175 C 0.30622 0.17823 0.51203 0.0
C4176 C 0.31903 0.18309 0.51991 0.0
C4177 C 0.31922 0.18333 0.53558 0.0
C4178 C 0.3128 0.19164 0.47199 0.0
C4179 C 0.30507 0.18088 0.46347 0.0
C4180 C 0.31303 0.19081 0.48764 0.0
C4181 C 0.30573 0.17905 0.49526 0.0
C4182 C 0.29797 0.16826 0.48669 0.0
C4183 C 0.29756 0.16922 0.47098 0.0
H4184 H 0.81914 0.33097 0.46454 0.0
H4185 H 0.83842 0.28658 0.46475 0.0
H4186 H 0.81975 0.33145 0.49182 0.0
H4187 H 0.83833 0.28663 0.49211 0.0
H4188 H 0.8468 0.29522 0.5417 0.0
H4189 H 0.84858 0.29593 0.51439 0.0
H4190 H 0.80748 0.32165 0.51256 0.0
H4191 H 0.80622 0.32155 0.53979 0.0
C4192 C 0.82349 0.32128 0.47045 0.0
C4193 C 0.82871 0.30873 0.46249 0.0
C4194 C 0.82372 0.32148 0.48614 0.0
C4195 C 0.82892 0.30901 0.49433 0.0
C4196 C 0.83442 0.29655 0.48629 0.0
C4197 C 0.83441 0.29646 0.47057 0.0
C4198 C 0.8382 0.30108 0.53542 0.0
C4199 C 0.8264 0.30838 0.54291 0.0
C4200 C 0.83915 0.30141 0.51973 0.0
C4201 C 0.8282 0.30888 0.51112 0.0
C4202 C 0.81635 0.31608 0.5187 0.0
C4203 C 0.81554 0.31594 0.53437 0.0
H4204 H 0.20257 0.68609 0.53895 0.0
H4205 H 0.1616 0.71184 0.54003 0.0
H4206 H 0.20181 0.68592 0.51165 0.0
H4207 H 0.16034 0.71108 0.51273 0.0
H4208 H 0.171 0.72085 0.46347 0.0
H4209 H 0.17097 0.72072 0.49082 0.0
H4210 H 0.19003 0.67611 0.49052 0.0
H4211 H 0.1907 0.67664 0.46323 0.0
C4212 C 0.19329 0.69156 0.53334 0.0
C4213 C 0.18217 0.699 0.54166 0.0
C4214 C 0.19277 0.69138 0.51764 0.0
C4215 C 0.18098 0.69846 0.50983 0.0
C4216 C 0.16975 0.70573 0.51824 0.0
C4217 C 0.1704 0.70609 0.53394 0.0
C4218 C 0.1751 0.711 0.46928 0.0
C4219 C 0.1809 0.69878 0.46119 0.0
C4220 C 0.17503 0.71087 0.485 0.0
C4221 C 0.18057 0.69842 0.49303 0.0
C4222 C 0.18599 0.68605 0.48484 0.0
C4223 C 0.18626 0.68628 0.46914 0.0
H4224 H 0.16698 0.11212 0.35345 0.0
H4225 H 0.1611 0.11018 0.30543 0.0
H4226 H 0.14761 0.1318 0.35491 0.0
H4227 H 0.14166 0.12908 0.30687 0.0
H4228 H 0.12388 0.17512 0.30914 0.0
H4229 H 0.14223 0.15536 0.31109 0.0
H4230 H 0.12062 0.13892 0.35125 0.0
H4231 H 0.10225 0.15951 0.3496 0.0
C4232 C 0.16138 0.11571 0.34328 0.0
C4233 C 0.1657 0.10981 0.3293 0.0
C4234 C 0.15029 0.12693 0.34411 0.0
C4235 C 0.14331 0.13229 0.33096 0.0
C4236 C 0.14711 0.12563 0.31717 0.0
C4237 C 0.15822 0.11469 0.31635 0.0
C4238 C 0.123 0.16743 0.31849 0.0
C4239 C 0.11147 0.16884 0.32913 0.0
C4240 C 0.13351 0.15595 0.31954 0.0
C4241 C 0.13272 0.14527 0.33112 0.0
C4242 C 0.12153 0.14694 0.34217 0.0
C4243 C 0.111 0.15867 0.3412 0.0
H4244 H 0.90447 0.15685 0.347 0.0
H4245 H 0.8827 0.17482 0.30765 0.0
H4246 H 0.88585 0.13655 0.34789 0.0
H4247 H 0.86394 0.15532 0.30891 0.0
H4248 H 0.8427 0.11083 0.3026 0.0
H4249 H 0.86214 0.12977 0.3037 0.0
H4250 H 0.85996 0.12934 0.35215 0.0
H4251 H 0.84074 0.10962 0.35096 0.0
C4252 C 0.89563 0.15657 0.33866 0.0
C4253 C 0.89518 0.16736 0.32716 0.0
C4254 C 0.88492 0.14499 0.3392 0.0
C4255 C 0.87349 0.14407 0.32831 0.0
C4256 C 0.8728 0.15528 0.31722 0.0
C4257 C 0.88355 0.16662 0.31657 0.0
C4258 C 0.84639 0.11471 0.31352 0.0
C4259 C 0.84009 0.10882 0.32669 0.0
C4260 C 0.8575 0.1257 0.31416 0.0
C4261 C 0.86246 0.13141 0.32801 0.0
C4262 C 0.85646 0.12521 0.34128 0.0
C4263 C 0.84541 0.11396 0.34062 0.0
H4264 H 0.88322 0.82996 0.30905 0.0
H4265 H 0.90386 0.84656 0.34959 0.0
H4266 H 0.86442 0.84946 0.31047 0.0
H4267 H 0.88519 0.8668 0.3507 0.0
H4268 H 0.83961 0.89352 0.353 0.0
H4269 H 0.85887 0.87379 0.35433 0.0
H4270 H 0.86344 0.87538 0.30607 0.0
H4271 H 0.84405 0.89433 0.30479 0.0
C4272 C 0.8838 0.83785 0.31827 0.0
C4273 C 0.89514 0.83677 0.32912 0.0
C4274 C 0.87304 0.84916 0.31903 0.0
C4275 C 0.87343 0.85998 0.33051 0.0
C4276 C 0.88452 0.85867 0.3417 0.0
C4277 C 0.89526 0.84713 0.34103 0.0
C4278 C 0.84485 0.88965 0.34274 0.0
C4279 C 0.84019 0.89531 0.32878 0.0
C4280 C 0.8559 0.87838 0.34348 0.0
C4281 C 0.86252 0.87272 0.33027 0.0
C4282 C 0.85828 0.87903 0.31645 0.0
C4283 C 0.84721 0.89003 0.31571 0.0
H4284 H 0.10853 0.84567 0.30489 0.0
H4285 H 0.1121 0.83983 0.35283 0.0
H4286 H 0.12655 0.86596 0.30584 0.0
H4287 H 0.13096 0.85999 0.35376 0.0
H4288 H 0.15743 0.90562 0.34867 0.0
H4289 H 0.13708 0.88699 0.35028 0.0
H4290 H 0.15275 0.8668 0.30908 0.0
H4291 H 0.1722 0.88543 0.30716 0.0
C4292 C 0.11324 0.84872 0.31568 0.0
C4293 C 0.10906 0.84102 0.32875 0.0
C4294 C 0.12367 0.86033 0.31622 0.0
C4295 C 0.13054 0.86441 0.32983 0.0
C4296 C 0.1259 0.85715 0.34309 0.0
C4297 C 0.11517 0.84557 0.34257 0.0
C4298 C 0.15641 0.89719 0.33998 0.0
C4299 C 0.16638 0.89712 0.32773 0.0
C4300 C 0.14483 0.88648 0.34094 0.0
C4301 C 0.14309 0.87552 0.32967 0.0
C4302 C 0.1534 0.87529 0.31775 0.0
C4303 C 0.16472 0.88597 0.31672 0.0
H4304 H 0.16463 0.89366 0.65311 0.0
H4305 H 0.1588 0.89613 0.70112 0.0
H4306 H 0.14519 0.87401 0.65191 0.0
H4307 H 0.13936 0.87721 0.69992 0.0
H4308 H 0.12238 0.83068 0.69793 0.0
H4309 H 0.14042 0.85073 0.69573 0.0
H4310 H 0.11791 0.86702 0.65604 0.0
H4311 H 0.0998 0.84621 0.65797 0.0
C4312 C 0.15903 0.8902 0.66333 0.0
C4313 C 0.16339 0.89623 0.67724 0.0
C4314 C 0.1479 0.879 0.66265 0.0
C4315 C 0.14095 0.87378 0.67587 0.0
C4316 C 0.14477 0.88058 0.68957 0.0
C4317 C 0.1559 0.89151 0.69026 0.0
C4318 C 0.12122 0.83841 0.68863 0.0
C4319 C 0.10952 0.83688 0.6782 0.0
C4320 C 0.13157 0.85004 0.68744 0.0
C4321 C 0.13045 0.86073 0.6759 0.0
C4322 C 0.11906 0.85899 0.66508 0.0
C4323 C 0.10867 0.84713 0.66622 0.0
H4324 H 0.15792 0.10073 0.65913 0.0
H4325 H 0.17595 0.12282 0.69826 0.0
H4326 H 0.13747 0.11917 0.65826 0.0
H4327 H 0.15628 0.14143 0.69702 0.0
H4328 H 0.11159 0.16217 0.70355 0.0
H4329 H 0.13072 0.14293 0.70241 0.0
H4330 H 0.13004 0.14498 0.65395 0.0
H4331 H 0.11013 0.16399 0.65519 0.0
C4332 C 0.15762 0.10961 0.66741 0.0
C4333 C 0.16845 0.1102 0.67886 0.0
C4334 C 0.14596 0.12022 0.66689 0.0
C4335 C 0.14501 0.13169 0.67774 0.0
C4336 C 0.15628 0.13253 0.68876 0.0
C4337 C 0.1677 0.12188 0.6894 0.0
C4338 C 0.11545 0.15849 0.69263 0.0
C4339 C 0.10945 0.16469 0.67947 0.0
C4340 C 0.12655 0.1475 0.69195 0.0
C4341 C 0.13225 0.14257 0.67808 0.0
C4342 C 0.12592 0.14846 0.66483 0.0
C4343 C 0.11456 0.15938 0.66552 0.0
H4344 H 0.89467 0.1682 0.65315 0.0
H4345 H 0.89522 0.16316 0.7013 0.0
H4346 H 0.87541 0.14846 0.65143 0.0
H4347 H 0.87677 0.14333 0.69963 0.0
H4348 H 0.83157 0.12338 0.69618 0.0
H4349 H 0.85081 0.1424 0.69489 0.0
H4350 H 0.86889 0.12173 0.65494 0.0
H4351 H 0.84886 0.10277 0.6559 0.0
C4352 C 0.89084 0.16273 0.6633 0.0
C4353 C 0.89625 0.16737 0.67737 0.0
C4354 C 0.87986 0.15142 0.66234 0.0
C4355 C 0.87426 0.14451 0.67543 0.0
C4356 C 0.88038 0.1487 0.68935 0.0
C4357 C 0.89107 0.16004 0.69031 0.0
C4358 C 0.83955 0.12286 0.68704 0.0
C4359 C 0.83874 0.11144 0.67623 0.0
C4360 C 0.85072 0.13375 0.68636 0.0
C4361 C 0.86167 0.13345 0.67501 0.0
C4362 C 0.86065 0.12231 0.66385 0.0
C4363 C 0.84923 0.11141 0.66443 0.0
H4364 H 0.89394 0.83881 0.6553 0.0
H4365 H 0.89486 0.84403 0.70343 0.0
H4366 H 0.87432 0.85817 0.65368 0.0
H4367 H 0.87604 0.86352 0.70185 0.0
H4368 H 0.83057 0.88294 0.69871 0.0
H4369 H 0.85007 0.86418 0.69741 0.0
H4370 H 0.86737 0.88468 0.65701 0.0
H4371 H 0.84708 0.90334 0.658 0.0
C4372 C 0.89012 0.84424 0.66547 0.0
C4373 C 0.89575 0.83977 0.6795 0.0
C4374 C 0.87893 0.85534 0.66456 0.0
C4375 C 0.87332 0.8622 0.67768 0.0
C4376 C 0.87965 0.85817 0.69156 0.0
C4377 C 0.89056 0.84704 0.69246 0.0
C4378 C 0.83843 0.88347 0.68948 0.0
C4379 C 0.83734 0.89475 0.67854 0.0
C4380 C 0.84975 0.87273 0.68879 0.0
C4381 C 0.86057 0.87307 0.6773 0.0
C4382 C 0.85924 0.88407 0.66602 0.0
C4383 C 0.84767 0.89479 0.66661 0.0
H4384 H 0.30579 0.15994 0.11149 0.0
H4385 H 0.35376 0.16606 0.11367 0.0
H4386 H 0.30723 0.14044 0.13033 0.0
H4387 H 0.35522 0.14666 0.1333 0.0
H4388 H 0.35059 0.10133 0.16057 0.0
H4389 H 0.35193 0.11988 0.14017 0.0
H4390 H 0.31117 0.14037 0.15655 0.0
H4391 H 0.30954 0.12177 0.17618 0.0
C4392 C 0.31669 0.1571 0.11606 0.0
C4393 C 0.32964 0.16465 0.11124 0.0
C4394 C 0.31751 0.14597 0.12697 0.0
C4395 C 0.33129 0.14221 0.13366 0.0
C4396 C 0.34442 0.14929 0.1284 0.0
C4397 C 0.3436 0.16041 0.11721 0.0
C4398 C 0.34198 0.10986 0.15976 0.0
C4399 C 0.32986 0.10995 0.16987 0.0
C4400 C 0.34277 0.12051 0.14813 0.0
C4401 C 0.33149 0.13146 0.14651 0.0
C4402 C 0.31981 0.13185 0.15711 0.0
C4403 C 0.31893 0.1212 0.1685 0.0
H4404 H 0.89452 0.30551 0.1619 0.0
H4405 H 0.89387 0.35367 0.16674 0.0
H4406 H 0.87542 0.30701 0.14266 0.0
H4407 H 0.87401 0.35521 0.14758 0.0
H4408 H 0.84572 0.34963 0.10263 0.0
H4409 H 0.86651 0.35115 0.12076 0.0
H4410 H 0.84924 0.31193 0.14342 0.0
H4411 H 0.82922 0.31012 0.1253 0.0
C4412 C 0.89025 0.31647 0.15882 0.0
C4413 C 0.89555 0.32945 0.16596 0.0
C4414 C 0.8792 0.31733 0.14783 0.0
C4415 C 0.87285 0.3312 0.14381 0.0
C4416 C 0.87863 0.34435 0.15043 0.0
C4417 C 0.88996 0.34348 0.16141 0.0
C4418 C 0.84641 0.34142 0.11156 0.0
C4419 C 0.83593 0.32964 0.11239 0.0
C4420 C 0.85827 0.34231 0.12196 0.0
C4421 C 0.85976 0.33147 0.13337 0.0
C4422 C 0.84878 0.32021 0.13453 0.0
C4423 C 0.83716 0.31923 0.12414 0.0
H4424 H 0.65771 0.90406 0.15883 0.0
H4425 H 0.69733 0.88254 0.17648 0.0
H4426 H 0.65716 0.88581 0.13815 0.0
H4427 H 0.69643 0.86418 0.15656 0.0
H4428 H 0.70381 0.84481 0.11154 0.0
H4429 H 0.7019 0.86388 0.13078 0.0
H4430 H 0.65361 0.85959 0.13044 0.0
H4431 H 0.65559 0.84068 0.11044 0.0
C4432 C 0.66616 0.89534 0.15841 0.0
C4433 C 0.67768 0.89487 0.16918 0.0
C4434 C 0.66582 0.88486 0.14661 0.0
C4435 C 0.67694 0.87367 0.14547 0.0
C4436 C 0.68797 0.87289 0.15672 0.0
C4437 C 0.68842 0.8834 0.16828 0.0
C4438 C 0.69275 0.84798 0.11547 0.0
C4439 C 0.67986 0.84114 0.10958 0.0
C4440 C 0.69165 0.85886 0.12663 0.0
C4441 C 0.67761 0.86307 0.13249 0.0
C4442 C 0.6646 0.85664 0.1262 0.0
C4443 C 0.66572 0.84579 0.11478 0.0
H4444 H 0.15687 0.66118 0.10256 0.0
H4445 H 0.17406 0.70051 0.12497 0.0
H4446 H 0.13666 0.65952 0.12127 0.0
H4447 H 0.1547 0.69848 0.14379 0.0
H4448 H 0.11028 0.70363 0.16526 0.0
H4449 H 0.12902 0.70316 0.14561 0.0
H4450 H 0.12973 0.65471 0.14728 0.0
H4451 H 0.11019 0.65525 0.16674 0.0
C4452 C 0.15644 0.66934 0.11155 0.0
C4453 C 0.16698 0.68107 0.11216 0.0
C4454 C 0.14492 0.66836 0.12231 0.0
C4455 C 0.14383 0.67903 0.13394 0.0
C4456 C 0.1548 0.69033 0.13478 0.0
C4457 C 0.16607 0.69142 0.124 0.0
C4458 C 0.11436 0.69285 0.16142 0.0
C4459 C 0.10886 0.67949 0.16766 0.0
C4460 C 0.12524 0.69256 0.15019 0.0
C4461 C 0.13122 0.6789 0.14502 0.0
C4462 C 0.12539 0.66544 0.15094 0.0
C4463 C 0.11424 0.66573 0.16213 0.0
H4464 H 0.30196 0.89503 0.84201 0.0
H4465 H 0.35024 0.89699 0.83904 0.0
H4466 H 0.30376 0.87578 0.86111 0.0
H4467 H 0.35214 0.877 0.8579 0.0
H4468 H 0.34821 0.84899 0.90221 0.0
H4469 H 0.34843 0.86951 0.88383 0.0
H4470 H 0.30953 0.85023 0.86223 0.0
H4471 H 0.30894 0.83047 0.88078 0.0
C4472 C 0.313 0.89127 0.84541 0.0
C4473 C 0.32595 0.89743 0.83894 0.0
C4474 C 0.31405 0.88011 0.85631 0.0
C4475 C 0.32809 0.87454 0.86087 0.0
C4476 C 0.34113 0.88102 0.85471 0.0
C4477 C 0.34007 0.89243 0.84387 0.0
C4478 C 0.33976 0.8492 0.89348 0.0
C4479 C 0.32845 0.83821 0.89306 0.0
C4480 C 0.33991 0.8609 0.88291 0.0
C4481 C 0.32883 0.86173 0.87166 0.0
C4482 C 0.31797 0.85031 0.87097 0.0
C4483 C 0.31769 0.83883 0.88158 0.0
H4484 H 0.16202 0.30524 0.898 0.0
H4485 H 0.1685 0.35314 0.89535 0.0
H4486 H 0.14266 0.30663 0.87902 0.0
H4487 H 0.14919 0.35453 0.87561 0.0
H4488 H 0.10396 0.34917 0.84765 0.0
H4489 H 0.12206 0.3509 0.86846 0.0
H4490 H 0.14372 0.31056 0.85259 0.0
H4491 H 0.12564 0.30856 0.83256 0.0
C4492 C 0.15927 0.31612 0.89333 0.0
C4493 C 0.16691 0.32905 0.89801 0.0
C4494 C 0.1482 0.31691 0.88235 0.0
C4495 C 0.14461 0.33064 0.87547 0.0
C4496 C 0.15171 0.34378 0.88066 0.0
C4497 C 0.16277 0.343 0.89192 0.0
C4498 C 0.11265 0.34074 0.84866 0.0
C4499 C 0.11323 0.32862 0.83856 0.0
C4500 C 0.12303 0.34176 0.86052 0.0
C4501 C 0.13416 0.3307 0.86239 0.0
C4502 C 0.13505 0.31904 0.85182 0.0
C4503 C 0.12469 0.31795 0.84019 0.0
H4504 H 0.6981 0.1761 0.88184 0.0
H4505 H 0.65798 0.15884 0.90278 0.0
H4506 H 0.69712 0.15635 0.86329 0.0
H4507 H 0.65732 0.13834 0.88436 0.0
H4508 H 0.65545 0.11123 0.83901 0.0
H4509 H 0.65379 0.13103 0.85816 0.0
H4510 H 0.70208 0.13055 0.86245 0.0
H4511 H 0.70368 0.11153 0.84314 0.0
C4512 C 0.68907 0.16801 0.88254 0.0
C4513 C 0.67819 0.16899 0.89388 0.0
C4514 C 0.68857 0.15655 0.87192 0.0
C4515 C 0.67733 0.14548 0.87247 0.0
C4516 C 0.66613 0.14666 0.88357 0.0
C4517 C 0.66653 0.15836 0.89416 0.0
C4518 C 0.66565 0.11536 0.84417 0.0
C4519 C 0.6797 0.10999 0.83945 0.0
C4520 C 0.66471 0.12666 0.85515 0.0
C4521 C 0.67782 0.13266 0.86167 0.0
C4522 C 0.69176 0.12663 0.85738 0.0
C4523 C 0.69269 0.1156 0.84636 0.0
H4524 H 0.89473 0.70215 0.8428 0.0
H4525 H 0.89563 0.6538 0.84049 0.0
H4526 H 0.87545 0.70102 0.86191 0.0
H4527 H 0.87561 0.6526 0.85939 0.0
H4528 H 0.84794 0.65765 0.90376 0.0
H4529 H 0.86836 0.6568 0.88529 0.0
H4530 H 0.84978 0.69582 0.86331 0.0
H4531 H 0.8301 0.69702 0.88194 0.0
C4532 C 0.89072 0.69124 0.84634 0.0
C4533 C 0.89661 0.67807 0.84004 0.0
C4534 C 0.87954 0.69058 0.85725 0.0
C4535 C 0.87368 0.67672 0.86203 0.0
C4536 C 0.87987 0.66346 0.85602 0.0
C4537 C 0.89129 0.66414 0.84516 0.0
C4538 C 0.84828 0.66599 0.89494 0.0
C4539 C 0.83751 0.6775 0.89442 0.0
C4540 C 0.85993 0.66548 0.88431 0.0
C4541 C 0.86092 0.6764 0.87291 0.0
C4542 C 0.84972 0.68748 0.87215 0.0
C4543 C 0.8383 0.68811 0.88281 0.0
H4544 H 0.15856 0.34704 0.10264 0.0
H4545 H 0.17565 0.30747 0.12469 0.0
H4546 H 0.13802 0.34826 0.12097 0.0
H4547 H 0.15585 0.30902 0.14318 0.0
H4548 H 0.11069 0.30334 0.16335 0.0
H4549 H 0.1301 0.30419 0.14436 0.0
H4550 H 0.13057 0.35261 0.14684 0.0
H4551 H 0.11042 0.35169 0.16564 0.0
C4552 C 0.15803 0.33872 0.11149 0.0
C4553 C 0.16863 0.32706 0.1121 0.0
C4554 C 0.14631 0.33945 0.12203 0.0
C4555 C 0.14507 0.32858 0.13345 0.0
C4556 C 0.1561 0.31732 0.13432 0.0
C4557 C 0.16759 0.31649 0.12374 0.0
C4558 C 0.11487 0.3142 0.15983 0.0
C4559 C 0.10911 0.32744 0.1661 0.0
C4560 C 0.12612 0.3147 0.14898 0.0
C4561 C 0.13221 0.32846 0.14423 0.0
C4562 C 0.12615 0.34181 0.15019 0.0
C4563 C 0.11465 0.3413 0.16099 0.0
H4564 H 0.15856 0.65684 0.90558 0.0
H4565 H 0.17625 0.69527 0.88198 0.0
H4566 H 0.13833 0.65489 0.88685 0.0
H4567 H 0.15686 0.69298 0.86329 0.0
H4568 H 0.11208 0.69916 0.84317 0.0
H4569 H 0.13088 0.69826 0.86271 0.0
H4570 H 0.13151 0.64986 0.86015 0.0
H4571 H 0.11196 0.6508 0.84066 0.0
C4572 C 0.15826 0.66471 0.89634 0.0
C4573 C 0.16892 0.67632 0.8954 0.0
C4574 C 0.14673 0.66358 0.88559 0.0
C4575 C 0.14576 0.67398 0.87371 0.0
C4576 C 0.15691 0.68505 0.8725 0.0
C4577 C 0.16818 0.68629 0.88323 0.0
C4578 C 0.11615 0.68828 0.84676 0.0
C4579 C 0.11067 0.67506 0.84022 0.0
C4580 C 0.12703 0.68776 0.85796 0.0
C4581 C 0.13302 0.674 0.86281 0.0
C4582 C 0.12716 0.66065 0.85667 0.0
C4583 C 0.11603 0.66119 0.84548 0.0
H4584 H 0.3089 0.17455 0.88519 0.0
H4585 H 0.34948 0.15803 0.90582 0.0
H4586 H 0.31037 0.15515 0.86635 0.0
H4587 H 0.35064 0.13784 0.88704 0.0
H4588 H 0.35277 0.11197 0.84065 0.0
H4589 H 0.35419 0.1313 0.86033 0.0
H4590 H 0.30604 0.12909 0.8656 0.0
H4591 H 0.30465 0.11056 0.84582 0.0
C4592 C 0.31814 0.16671 0.88576 0.0
C4593 C 0.32899 0.16778 0.89711 0.0
C4594 C 0.31893 0.15544 0.87497 0.0
C4595 C 0.33044 0.14467 0.87533 0.0
C4596 C 0.34162 0.14595 0.88643 0.0
C4597 C 0.34092 0.15745 0.89721 0.0
C4598 C 0.34256 0.11562 0.84614 0.0
C4599 C 0.32858 0.10995 0.84156 0.0
C4600 C 0.34336 0.12664 0.85742 0.0
C4601 C 0.33019 0.13202 0.86434 0.0
C4602 C 0.31637 0.12564 0.86022 0.0
C4603 C 0.31557 0.1149 0.84891 0.0
H4604 H 0.90651 0.34875 0.84992 0.0
H4605 H 0.88541 0.30849 0.83323 0.0
H4606 H 0.88801 0.34977 0.8704 0.0
H4607 H 0.86685 0.30983 0.8529 0.0
H4608 H 0.84662 0.30365 0.89759 0.0
H4609 H 0.86621 0.30514 0.87883 0.0
H4610 H 0.86155 0.35338 0.87758 0.0
H4611 H 0.8421 0.35184 0.89712 0.0
C4612 C 0.89785 0.34025 0.85051 0.0
C4613 C 0.89756 0.32843 0.84005 0.0
C4614 C 0.88723 0.34085 0.86219 0.0
C4615 C 0.87608 0.32971 0.86353 0.0
C4616 C 0.87551 0.31834 0.8526 0.0
C4617 C 0.88614 0.31764 0.84117 0.0
C4618 C 0.84982 0.31461 0.89342 0.0
C4619 C 0.8427 0.32761 0.89871 0.0
C4620 C 0.86101 0.31548 0.88254 0.0
C4621 C 0.86525 0.32936 0.87634 0.0
C4622 C 0.85857 0.3425 0.88208 0.0
C4623 C 0.84742 0.34163 0.89323 0.0
H4624 H 0.70027 0.89611 0.84549 0.0
H4625 H 0.65213 0.89614 0.84034 0.0
H4626 H 0.69837 0.87699 0.86468 0.0
H4627 H 0.65019 0.87631 0.85954 0.0
H4628 H 0.69444 0.83066 0.88141 0.0
H4629 H 0.69273 0.85073 0.86336 0.0
H4630 H 0.65443 0.86889 0.88683 0.0
H4631 H 0.65585 0.84806 0.90498 0.0
C4632 C 0.68923 0.892 0.84848 0.0
C4633 C 0.67637 0.89749 0.84125 0.0
C4634 C 0.68813 0.88095 0.85947 0.0
C4635 C 0.67415 0.87481 0.86342 0.0
C4636 C 0.66113 0.88077 0.85673 0.0
C4637 C 0.66223 0.89208 0.84573 0.0
C4638 C 0.68554 0.83879 0.88277 0.0
C4639 C 0.67538 0.8378 0.89478 0.0
C4640 C 0.68462 0.85043 0.87241 0.0
C4641 C 0.67367 0.86168 0.87382 0.0
C4642 C 0.66303 0.86043 0.88546 0.0
C4643 C 0.66387 0.84855 0.89586 0.0
H4644 H 0.84797 0.6562 0.10272 0.0
H4645 H 0.83255 0.69766 0.12243 0.0
H4646 H 0.86792 0.65474 0.12173 0.0
H4647 H 0.85167 0.69591 0.14152 0.0
H4648 H 0.89345 0.65256 0.16822 0.0
H4649 H 0.87424 0.65143 0.14841 0.0
H4650 H 0.87774 0.69945 0.14269 0.0
H4651 H 0.89613 0.70056 0.16261 0.0
C4652 C 0.84873 0.66489 0.11118 0.0
C4653 C 0.83879 0.67714 0.11095 0.0
C4654 C 0.8601 0.66403 0.1221 0.0
C4655 C 0.86163 0.67536 0.13302 0.0
C4656 C 0.85121 0.68721 0.13305 0.0
C4657 C 0.8401 0.68816 0.12212 0.0
C4658 C 0.8901 0.6628 0.16261 0.0
C4659 C 0.8961 0.67667 0.1671 0.0
C4660 C 0.87915 0.66217 0.15125 0.0
C4661 C 0.87416 0.6754 0.14415 0.0
C4662 C 0.88087 0.68909 0.14821 0.0
C4663 C 0.89153 0.68973 0.1596 0.0
H4664 H 0.30538 0.84385 0.10935 0.0
H4665 H 0.35364 0.84002 0.10985 0.0
H4666 H 0.30653 0.86288 0.1287 0.0
H4667 H 0.35484 0.85886 0.12994 0.0
H4668 H 0.35001 0.90322 0.15791 0.0
H4669 H 0.35103 0.88498 0.13728 0.0
H4670 H 0.31109 0.86359 0.15459 0.0
H4671 H 0.30975 0.88198 0.17447 0.0
C4672 C 0.31628 0.84705 0.11368 0.0
C4673 C 0.32941 0.84033 0.10818 0.0
C4674 C 0.31694 0.85792 0.12489 0.0
C4675 C 0.33076 0.86222 0.13118 0.0
C4676 C 0.344 0.85585 0.12535 0.0
C4677 C 0.34334 0.84502 0.11389 0.0
C4678 C 0.3415 0.89458 0.15725 0.0
C4679 C 0.3297 0.89416 0.16773 0.0
C4680 C 0.34211 0.88409 0.14548 0.0
C4681 C 0.33099 0.87293 0.14407 0.0
C4682 C 0.3196 0.87226 0.15498 0.0
C4683 C 0.31889 0.88278 0.16651 0.0
H4684 H 0.69564 0.17507 0.12213 0.0
H4685 H 0.65557 0.15763 0.10125 0.0
H4686 H 0.69479 0.15532 0.14065 0.0
H4687 H 0.65506 0.1371 0.11969 0.0
H4688 H 0.65377 0.11005 0.16531 0.0
H4689 H 0.65175 0.12975 0.14609 0.0
H4690 H 0.69999 0.12949 0.14113 0.0
H4691 H 0.70194 0.11055 0.1605 0.0
C4692 C 0.68664 0.16695 0.12144 0.0
C4693 C 0.67575 0.16787 0.1101 0.0
C4694 C 0.68622 0.15548 0.13204 0.0
C4695 C 0.67507 0.14433 0.13151 0.0
C4696 C 0.66382 0.14548 0.12045 0.0
C4697 C 0.66414 0.15719 0.10986 0.0
C4698 C 0.66387 0.11419 0.15998 0.0
C4699 C 0.67802 0.10892 0.16454 0.0
C4700 C 0.66274 0.12544 0.14896 0.0
C4701 C 0.67573 0.13148 0.14226 0.0
C4702 C 0.68976 0.12552 0.14636 0.0
C4703 C 0.69088 0.11454 0.15742 0.0
H4704 H 0.60968 0.66443 0.85105 0.0
H4705 H 0.60917 0.66029 0.80282 0.0
H4706 H 0.62905 0.64478 0.85243 0.0
H4707 H 0.62771 0.6405 0.80414 0.0
H4708 H 0.67337 0.62161 0.8072 0.0
H4709 H 0.65366 0.64004 0.80883 0.0
H4710 H 0.63621 0.61822 0.84847 0.0
H4711 H 0.65678 0.59983 0.84717 0.0
C4712 C 0.61351 0.65914 0.84081 0.0
C4713 C 0.60811 0.66403 0.82681 0.0
C4714 C 0.62456 0.64787 0.84157 0.0
C4715 C 0.63024 0.64127 0.82836 0.0
C4716 C 0.62405 0.64564 0.81452 0.0
C4717 C 0.61331 0.65695 0.81376 0.0
C4718 C 0.66545 0.62069 0.81635 0.0
C4719 C 0.66662 0.60913 0.82698 0.0
C4720 C 0.65398 0.63125 0.81722 0.0
C4721 C 0.64306 0.63047 0.82857 0.0
C4722 C 0.64442 0.61916 0.83955 0.0
C4723 C 0.65614 0.6086 0.83879 0.0
H4724 H 0.33908 0.60938 0.85125 0.0
H4725 H 0.34493 0.60725 0.80324 0.0
H4726 H 0.35874 0.62878 0.85266 0.0
H4727 H 0.36468 0.62586 0.80463 0.0
H4728 H 0.38219 0.6721 0.80686 0.0
H4729 H 0.364 0.65218 0.80881 0.0
H4730 H 0.38578 0.63583 0.84889 0.0
H4731 H 0.404 0.65655 0.84723 0.0
C4732 C 0.34478 0.61283 0.84108 0.0
C4733 C 0.34035 0.60702 0.82711 0.0
C4734 C 0.35602 0.6239 0.84187 0.0
C4735 C 0.36304 0.62915 0.8287 0.0
C4736 C 0.3592 0.62248 0.81494 0.0
C4737 C 0.34792 0.61172 0.81414 0.0
C4738 C 0.38315 0.66438 0.81618 0.0
C4739 C 0.39468 0.66586 0.82681 0.0
C4740 C 0.37273 0.65282 0.81723 0.0
C4741 C 0.37361 0.64214 0.82879 0.0
C4742 C 0.38481 0.64385 0.83981 0.0
C4743 C 0.39526 0.65566 0.83884 0.0
H4744 H 0.40406 0.34789 0.84838 0.0
H4745 H 0.38281 0.33175 0.80795 0.0
H4746 H 0.38556 0.36838 0.84971 0.0
H4747 H 0.36435 0.35143 0.80958 0.0
H4748 H 0.34482 0.39614 0.8035 0.0
H4749 H 0.3647 0.37773 0.80521 0.0
H4750 H 0.35834 0.37506 0.8532 0.0
H4751 H 0.33852 0.39427 0.85147 0.0
C4752 C 0.3954 0.34861 0.8399 0.0
C4753 C 0.39504 0.33829 0.82796 0.0
C4754 C 0.38478 0.36029 0.84069 0.0
C4755 C 0.37364 0.36175 0.82957 0.0
C4756 C 0.37301 0.35098 0.81809 0.0
C4757 C 0.38359 0.33955 0.81722 0.0
C4758 C 0.34772 0.39175 0.81446 0.0
C4759 C 0.33998 0.39648 0.82732 0.0
C4760 C 0.35908 0.3811 0.81544 0.0
C4761 C 0.36288 0.37458 0.82929 0.0
C4762 C 0.35566 0.37984 0.84235 0.0
C4763 C 0.34431 0.39078 0.84137 0.0
H4764 H 0.61014 0.34536 0.80389 0.0
H4765 H 0.61063 0.33938 0.85195 0.0
H4766 H 0.62948 0.36432 0.80587 0.0
H4767 H 0.6307 0.35829 0.85396 0.0
H4768 H 0.65941 0.40318 0.84929 0.0
H4769 H 0.63841 0.38525 0.85039 0.0
H4770 H 0.6557 0.36301 0.81096 0.0
H4771 H 0.67596 0.38091 0.80957 0.0
C4772 C 0.61441 0.34812 0.81493 0.0
C4773 C 0.609 0.34074 0.82774 0.0
C4774 C 0.6256 0.35896 0.81607 0.0
C4775 C 0.63196 0.36259 0.83004 0.0
C4776 C 0.62607 0.35573 0.84302 0.0
C4777 C 0.61463 0.3449 0.84188 0.0
C4778 C 0.65869 0.39438 0.84094 0.0
C4779 C 0.66925 0.39361 0.82923 0.0
C4780 C 0.64671 0.3841 0.84159 0.0
C4781 C 0.64517 0.37287 0.83057 0.0
C4782 C 0.65622 0.37176 0.81937 0.0
C4783 C 0.66797 0.38202 0.81864 0.0
H4784 H 0.66325 0.39657 0.15351 0.0
H4785 H 0.66003 0.39702 0.20183 0.0
H4786 H 0.64422 0.37658 0.15254 0.0
H4787 H 0.64087 0.3778 0.2009 0.0
H4788 H 0.62286 0.33177 0.1981 0.0
H4789 H 0.64094 0.35179 0.19607 0.0
H4790 H 0.61785 0.369 0.15709 0.0
H4791 H 0.5998 0.34816 0.15878 0.0
C4792 C 0.65832 0.39256 0.16387 0.0
C4793 C 0.66327 0.39818 0.17776 0.0
C4794 C 0.6474 0.38117 0.16333 0.0
C4795 C 0.64122 0.37532 0.17666 0.0
C4796 C 0.64569 0.38162 0.19042 0.0
C4797 C 0.65664 0.39275 0.19096 0.0
C4798 C 0.62159 0.3397 0.189 0.0
C4799 C 0.60977 0.33841 0.17868 0.0
C4800 C 0.63196 0.35133 0.18791 0.0
C4801 C 0.63069 0.36228 0.17663 0.0
C4802 C 0.61915 0.36077 0.16593 0.0
C4803 C 0.60879 0.34889 0.16692 0.0
H4804 H 0.61021 0.66486 0.19904 0.0
H4805 H 0.61129 0.66878 0.15078 0.0
H4806 H 0.62911 0.64541 0.19805 0.0
H4807 H 0.63097 0.64948 0.14975 0.0
H4808 H 0.65781 0.6043 0.15505 0.0
H4809 H 0.63775 0.62316 0.15363 0.0
H4810 H 0.655 0.64415 0.19378 0.0
H4811 H 0.67425 0.62518 0.19554 0.0
C4812 C 0.61458 0.6616 0.18817 0.0
C4813 C 0.60937 0.66847 0.175 0.0
C4814 C 0.62554 0.65048 0.1876 0.0
C4815 C 0.63189 0.64606 0.17384 0.0
C4816 C 0.62634 0.65259 0.16054 0.0
C4817 C 0.61512 0.66367 0.16112 0.0
C4818 C 0.65725 0.613 0.16352 0.0
C4819 C 0.6675 0.61312 0.17551 0.0
C4820 C 0.64582 0.62384 0.16267 0.0
C4821 C 0.64453 0.63505 0.17375 0.0
C4822 C 0.65527 0.63545 0.18531 0.0
C4823 C 0.66645 0.62459 0.18625 0.0
H4824 H 0.38218 0.67558 0.1962 0.0
H4825 H 0.40301 0.65886 0.15581 0.0
H4826 H 0.36327 0.65622 0.19468 0.0
H4827 H 0.38427 0.6387 0.15462 0.0
H4828 H 0.33899 0.61202 0.15167 0.0
H4829 H 0.35822 0.63176 0.15069 0.0
H4830 H 0.36156 0.63049 0.19907 0.0
H4831 H 0.34214 0.61154 0.19999 0.0
C4832 C 0.38278 0.66769 0.187 0.0
C4833 C 0.3942 0.66871 0.17619 0.0
C4834 C 0.37196 0.65643 0.18618 0.0
C4835 C 0.37235 0.64561 0.1747 0.0
C4836 C 0.38356 0.64684 0.16361 0.0
C4837 C 0.39435 0.65833 0.16432 0.0
C4838 C 0.34392 0.616 0.16204 0.0
C4839 C 0.33893 0.61039 0.17591 0.0
C4840 C 0.35497 0.62726 0.1615 0.0
C4841 C 0.3613 0.63298 0.17482 0.0
C4842 C 0.35666 0.62679 0.18858 0.0
C4843 C 0.34556 0.6158 0.18912 0.0
H4844 H 0.40415 0.34763 0.15928 0.0
H4845 H 0.3824 0.33258 0.19988 0.0
H4846 H 0.38605 0.36839 0.15746 0.0
H4847 H 0.36427 0.35258 0.19779 0.0
H4848 H 0.34506 0.39777 0.20245 0.0
H4849 H 0.36452 0.37885 0.20157 0.0
H4850 H 0.35936 0.37553 0.15347 0.0
H4851 H 0.34 0.39522 0.15436 0.0
C4852 C 0.39545 0.34865 0.1677 0.0
C4853 C 0.39483 0.33855 0.17982 0.0
C4854 C 0.38506 0.36049 0.16663 0.0
C4855 C 0.37386 0.36236 0.17764 0.0
C4856 C 0.37298 0.35183 0.18935 0.0
C4857 C 0.38336 0.34022 0.19049 0.0
C4858 C 0.34814 0.39312 0.19164 0.0
C4859 C 0.34089 0.39785 0.1785 0.0
C4860 C 0.35925 0.38217 0.19114 0.0
C4861 C 0.36327 0.37534 0.1775 0.0
C4862 C 0.35652 0.38054 0.16417 0.0
C4863 C 0.34543 0.39177 0.16467 0.0
H4864 H 0.85305 0.66719 0.61256 0.0
H4865 H 0.80474 0.66403 0.61304 0.0
H4866 H 0.85441 0.64811 0.6324 0.0
H4867 H 0.80602 0.64473 0.6321 0.0
H4868 H 0.80973 0.62365 0.67694 0.0
H4869 H 0.81081 0.64273 0.65768 0.0
H4870 H 0.85078 0.62221 0.63941 0.0
H4871 H 0.85004 0.60333 0.65945 0.0
C4872 C 0.84275 0.6623 0.61678 0.0
C4873 C 0.82878 0.66723 0.61138 0.0
C4874 C 0.84351 0.65133 0.6281 0.0
C4875 C 0.83031 0.645 0.63411 0.0
C4876 C 0.81643 0.64962 0.62818 0.0
C4877 C 0.81568 0.66065 0.61712 0.0
C4878 C 0.81882 0.6232 0.6689 0.0
C4879 C 0.82972 0.61188 0.66967 0.0
C4880 C 0.81938 0.63412 0.65771 0.0
C4881 C 0.8307 0.6339 0.6467 0.0
C4882 C 0.84191 0.62279 0.64769 0.0
C4883 C 0.84147 0.61193 0.65913 0.0
H4884 H 0.33881 0.85484 0.613 0.0
H4885 H 0.3426 0.80659 0.61234 0.0
H4886 H 0.35798 0.85599 0.63279 0.0
H4887 H 0.36196 0.80769 0.63133 0.0
H4888 H 0.38215 0.81056 0.67649 0.0
H4889 H 0.36325 0.81211 0.65715 0.0
H4890 H 0.38418 0.85223 0.63971 0.0
H4891 H 0.40294 0.85102 0.65987 0.0
C4892 C 0.34386 0.84453 0.61695 0.0
C4893 C 0.33907 0.83062 0.61128 0.0
C4894 C 0.35487 0.84517 0.62823 0.0
C4895 C 0.36135 0.83191 0.63391 0.0
C4896 C 0.35692 0.81811 0.62766 0.0
C4897 C 0.34586 0.81747 0.61665 0.0
C4898 C 0.38274 0.81979 0.66863 0.0
C4899 C 0.39415 0.83059 0.66966 0.0
C4900 C 0.37192 0.82062 0.65739 0.0
C4901 C 0.37233 0.8321 0.64658 0.0
C4902 C 0.38349 0.84323 0.64784 0.0
C4903 C 0.39428 0.84251 0.65933 0.0
H4904 H 0.15626 0.34663 0.60225 0.0
H4905 H 0.19647 0.33 0.62349 0.0
H4906 H 0.15526 0.36724 0.62052 0.0
H4907 H 0.19516 0.34988 0.64188 0.0
H4908 H 0.20122 0.3952 0.66123 0.0
H4909 H 0.19985 0.37583 0.64226 0.0
H4910 H 0.15158 0.37466 0.64677 0.0
H4911 H 0.153 0.39478 0.6656 0.0
C4912 C 0.16476 0.34727 0.6109 0.0
C4913 C 0.17655 0.33679 0.6113 0.0
C4914 C 0.16416 0.35903 0.6214 0.0
C4915 C 0.1753 0.36043 0.63254 0.0
C4916 C 0.18665 0.3495 0.63322 0.0
C4917 C 0.18734 0.33797 0.6227 0.0
C4918 C 0.19028 0.3909 0.65815 0.0
C4919 C 0.17723 0.39641 0.66502 0.0
C4920 C 0.18949 0.37967 0.64732 0.0
C4921 C 0.17563 0.37337 0.64318 0.0
C4922 C 0.16245 0.37924 0.64967 0.0
C4923 C 0.16324 0.39072 0.66047 0.0
H4924 H 0.67481 0.19809 0.62228 0.0
H4925 H 0.65772 0.15785 0.60145 0.0
H4926 H 0.65578 0.19644 0.64148 0.0
H4927 H 0.63786 0.15656 0.62054 0.0
H4928 H 0.61211 0.1534 0.66648 0.0
H4929 H 0.63143 0.15249 0.6468 0.0
H4930 H 0.63006 0.20085 0.64358 0.0
H4931 H 0.61154 0.20171 0.66342 0.0
C4932 C 0.66691 0.18889 0.62173 0.0
C4933 C 0.66775 0.17817 0.61023 0.0
C4934 C 0.65583 0.18801 0.63274 0.0
C4935 C 0.64499 0.17655 0.63246 0.0
C4936 C 0.64602 0.16553 0.62115 0.0
C4937 C 0.65734 0.16631 0.61017 0.0
C4938 C 0.61598 0.16378 0.66148 0.0
C4939 C 0.61047 0.17764 0.66663 0.0
C4940 C 0.62699 0.16327 0.65018 0.0
C4941 C 0.63257 0.17661 0.64375 0.0
C4942 C 0.62647 0.19036 0.64855 0.0
C4943 C 0.61573 0.19086 0.65989 0.0
H4944 H 0.80859 0.33139 0.38198 0.0
H4945 H 0.84855 0.34887 0.40301 0.0
H4946 H 0.80965 0.35098 0.3633 0.0
H4947 H 0.8493 0.36923 0.38438 0.0
H4948 H 0.85067 0.39597 0.33835 0.0
H4949 H 0.8527 0.37637 0.35772 0.0
H4950 H 0.80451 0.37692 0.36294 0.0
H4951 H 0.80254 0.39574 0.34349 0.0
C4952 C 0.81762 0.33948 0.38266 0.0
C4953 C 0.82839 0.33863 0.39411 0.0
C4954 C 0.81817 0.35085 0.37196 0.0
C4955 C 0.82935 0.36196 0.37249 0.0
C4956 C 0.84051 0.36087 0.38363 0.0
C4957 C 0.84006 0.34926 0.39434 0.0
C4958 C 0.84059 0.39191 0.34377 0.0
C4959 C 0.82643 0.39721 0.33926 0.0
C4960 C 0.84173 0.38072 0.35487 0.0
C4961 C 0.82874 0.37478 0.36168 0.0
C4962 C 0.81473 0.38079 0.35764 0.0
C4963 C 0.81359 0.3917 0.34652 0.0
H4964 H 0.67554 0.80793 0.38407 0.0
H4965 H 0.65717 0.84748 0.40512 0.0
H4966 H 0.65614 0.8088 0.36515 0.0
H4967 H 0.63702 0.84799 0.38634 0.0
H4968 H 0.61055 0.85011 0.3408 0.0
H4969 H 0.63005 0.85178 0.36023 0.0
H4970 H 0.63055 0.80341 0.36349 0.0
H4971 H 0.61185 0.80182 0.34388 0.0
C4972 C 0.66728 0.8168 0.38472 0.0
C4973 C 0.66784 0.82756 0.3962 0.0
C4974 C 0.65601 0.81724 0.37388 0.0
C4975 C 0.64474 0.82827 0.37433 0.0
C4976 C 0.64551 0.83934 0.3856 0.0
C4977 C 0.657 0.83902 0.3964 0.0
C4978 C 0.61484 0.83989 0.34578 0.0
C4979 C 0.60983 0.82584 0.34069 0.0
C4980 C 0.62597 0.84083 0.35693 0.0
C4981 C 0.63214 0.82772 0.36327 0.0
C4982 C 0.6265 0.81375 0.35858 0.0
C4983 C 0.61564 0.81283 0.34738 0.0
H4984 H 0.19904 0.67544 0.38036 0.0
H4985 H 0.15923 0.65897 0.40251 0.0
H4986 H 0.19729 0.65555 0.36204 0.0
H4987 H 0.15777 0.63833 0.38424 0.0
H4988 H 0.15502 0.61102 0.33863 0.0
H4989 H 0.15372 0.63092 0.35774 0.0
H4990 H 0.20198 0.62947 0.36209 0.0
H4991 H 0.20323 0.61034 0.34287 0.0
C4992 C 0.18989 0.66751 0.38136 0.0
C4993 C 0.17936 0.66872 0.39301 0.0
C4994 C 0.18894 0.65597 0.37087 0.0
C4995 C 0.17759 0.64506 0.37183 0.0
C4996 C 0.16667 0.64652 0.38317 0.0
C4997 C 0.16753 0.6583 0.39366 0.0
C4998 C 0.16528 0.61494 0.34381 0.0
C4999 C 0.17924 0.6093 0.33912 0.0
C5000 C 0.16455 0.6263 0.35477 0.0
C5001 C 0.17778 0.63207 0.36124 0.0
C5002 C 0.19159 0.62572 0.35704 0.0
C5003 C 0.19232 0.61463 0.34606 0.0
H5004 H 0.34302 0.20326 0.39682 0.0
H5005 H 0.33827 0.15509 0.3967 0.0
H5006 H 0.36296 0.20152 0.37846 0.0
H5007 H 0.35805 0.15329 0.37753 0.0
H5008 H 0.40343 0.15714 0.35083 0.0
H5009 H 0.38454 0.15657 0.37092 0.0
H5010 H 0.36436 0.1967 0.35267 0.0
H5011 H 0.38336 0.19761 0.33338 0.0
C5012 C 0.34624 0.19225 0.39279 0.0
C5013 C 0.33897 0.17933 0.39807 0.0
C5014 C 0.35763 0.19124 0.38215 0.0
C5015 C 0.36192 0.17729 0.37617 0.0
C5016 C 0.35505 0.16423 0.38187 0.0
C5017 C 0.3437 0.16524 0.3928 0.0
C5018 C 0.39492 0.1658 0.35118 0.0
C5019 C 0.39502 0.17752 0.34061 0.0
C5020 C 0.38406 0.16545 0.36264 0.0
C5021 C 0.37305 0.17675 0.36363 0.0
C5022 C 0.3729 0.18806 0.35263 0.0
C5023 C 0.38378 0.18852 0.34141 0.0
H5024 H 0.6736 0.80818 0.62501 0.0
H5025 H 0.65802 0.8486 0.60334 0.0
H5026 H 0.65398 0.81029 0.6435 0.0
H5027 H 0.63754 0.85039 0.62179 0.0
H5028 H 0.61091 0.85353 0.66778 0.0
H5029 H 0.6305 0.85444 0.64833 0.0
H5030 H 0.62791 0.80623 0.64391 0.0
H5031 H 0.60913 0.80535 0.66351 0.0
C5032 C 0.66592 0.81754 0.62413 0.0
C5033 C 0.66734 0.82815 0.61258 0.0
C5034 C 0.65451 0.81868 0.63473 0.0
C5035 C 0.64389 0.8303 0.63398 0.0
C5036 C 0.64552 0.84127 0.6227 0.0
C5037 C 0.65719 0.84023 0.6121 0.0
C5038 C 0.61454 0.8432 0.66253 0.0
C5039 C 0.60869 0.82935 0.66731 0.0
C5040 C 0.62571 0.8437 0.65137 0.0
C5041 C 0.63106 0.83037 0.64476 0.0
C5042 C 0.62449 0.81669 0.64906 0.0
C5043 C 0.61361 0.81617 0.66026 0.0
H5044 H 0.60342 0.15466 0.34735 0.0
H5045 H 0.62379 0.19518 0.33037 0.0
H5046 H 0.62227 0.15376 0.36748 0.0
H5047 H 0.64271 0.19398 0.34973 0.0
H5048 H 0.66281 0.2005 0.39447 0.0
H5049 H 0.64326 0.19866 0.37574 0.0
H5050 H 0.64898 0.15054 0.37426 0.0
H5051 H 0.66843 0.15242 0.39378 0.0
C5052 C 0.61201 0.16324 0.3478 0.0
C5053 C 0.61198 0.1751 0.33739 0.0
C5054 C 0.62283 0.1627 0.35928 0.0
C5055 C 0.63385 0.17398 0.36045 0.0
C5056 C 0.63414 0.18537 0.34953 0.0
C5057 C 0.62331 0.186 0.3383 0.0
C5058 C 0.65988 0.18949 0.39025 0.0
C5059 C 0.66728 0.17662 0.39547 0.0
C5060 C 0.6487 0.18843 0.37939 0.0
C5061 C 0.64476 0.17449 0.37316 0.0
C5062 C 0.65174 0.16147 0.3788 0.0
C5063 C 0.66289 0.16252 0.38993 0.0
H5064 H 0.80187 0.61019 0.34507 0.0
H5065 H 0.85001 0.61063 0.33994 0.0
H5066 H 0.80363 0.6288 0.36477 0.0
H5067 H 0.85181 0.63004 0.3595 0.0
H5068 H 0.84747 0.65747 0.40472 0.0
H5069 H 0.84837 0.63705 0.38617 0.0
H5070 H 0.80846 0.65477 0.36514 0.0
H5071 H 0.80723 0.67438 0.38374 0.0
C5072 C 0.81288 0.61432 0.34817 0.0
C5073 C 0.82578 0.60909 0.34084 0.0
C5074 C 0.81389 0.6251 0.35942 0.0
C5075 C 0.82783 0.63126 0.3635 0.0
C5076 C 0.84089 0.62557 0.35663 0.0
C5077 C 0.83987 0.6145 0.34542 0.0
C5078 C 0.83895 0.65694 0.39608 0.0
C5079 C 0.82718 0.66744 0.39583 0.0
C5080 C 0.83949 0.64529 0.38543 0.0
C5081 C 0.82831 0.64404 0.37432 0.0
C5082 C 0.817 0.65502 0.37378 0.0
C5083 C 0.81636 0.66641 0.38444 0.0
H5084 H 0.39553 0.80333 0.34439 0.0
H5085 H 0.39636 0.85152 0.33987 0.0
H5086 H 0.37663 0.80529 0.36379 0.0
H5087 H 0.37669 0.85355 0.35914 0.0
H5088 H 0.34938 0.84968 0.40428 0.0
H5089 H 0.36963 0.85015 0.38556 0.0
H5090 H 0.35085 0.81065 0.36466 0.0
H5091 H 0.33135 0.80984 0.38349 0.0
C5092 C 0.3916 0.81439 0.34753 0.0
C5093 C 0.39732 0.82726 0.34049 0.0
C5094 C 0.38064 0.81553 0.35861 0.0
C5095 C 0.37481 0.82956 0.36283 0.0
C5096 C 0.38091 0.84256 0.35618 0.0
C5097 C 0.39213 0.84141 0.34512 0.0
C5098 C 0.34963 0.84115 0.39563 0.0
C5099 C 0.33887 0.82961 0.39549 0.0
C5100 C 0.36118 0.84145 0.38488 0.0
C5101 C 0.36209 0.83026 0.37374 0.0
C5102 C 0.35086 0.81918 0.37331 0.0
C5103 C 0.33954 0.81878 0.38409 0.0
H5104 H 0.15601 0.40406 0.34672 0.0
H5105 H 0.19615 0.3828 0.32993 0.0
H5106 H 0.15495 0.38565 0.36721 0.0
H5107 H 0.19476 0.36425 0.34965 0.0
H5108 H 0.20053 0.34407 0.39474 0.0
H5109 H 0.19942 0.36313 0.37543 0.0
H5110 H 0.15106 0.35967 0.37463 0.0
H5111 H 0.15223 0.3408 0.3947 0.0
C5112 C 0.16448 0.39537 0.3473 0.0
C5113 C 0.17627 0.39501 0.33681 0.0
C5114 C 0.16385 0.38478 0.35899 0.0
C5115 C 0.17493 0.37357 0.36031 0.0
C5116 C 0.18629 0.37295 0.34936 0.0
C5117 C 0.18703 0.38357 0.33791 0.0
C5118 C 0.18963 0.34739 0.39052 0.0
C5119 C 0.17647 0.34083 0.39616 0.0
C5120 C 0.18898 0.35828 0.37932 0.0
C5121 C 0.17517 0.36277 0.37315 0.0
C5122 C 0.1619 0.35653 0.37911 0.0
C5123 C 0.16255 0.34568 0.39056 0.0
H5124 H 0.40405 0.15611 0.65829 0.0
H5125 H 0.38382 0.1969 0.67477 0.0
H5126 H 0.38541 0.15518 0.63801 0.0
H5127 H 0.36506 0.19566 0.65524 0.0
H5128 H 0.34459 0.20147 0.61052 0.0
H5129 H 0.36415 0.2 0.62929 0.0
H5130 H 0.35896 0.15183 0.63111 0.0
H5131 H 0.33953 0.15334 0.61156 0.0
C5132 C 0.39555 0.16476 0.65768 0.0
C5133 C 0.39554 0.17668 0.66803 0.0
C5134 C 0.38483 0.1642 0.64612 0.0
C5135 C 0.37386 0.1755 0.64477 0.0
C5136 C 0.37358 0.18701 0.65557 0.0
C5137 C 0.38432 0.18766 0.6669 0.0
C5138 C 0.34766 0.19052 0.61483 0.0
C5139 C 0.34041 0.17754 0.60968 0.0
C5140 C 0.35883 0.18968 0.62571 0.0
C5141 C 0.36293 0.17583 0.63206 0.0
C5142 C 0.35609 0.16269 0.6265 0.0
C5143 C 0.34495 0.16353 0.61533 0.0
H5144 H 0.85025 0.40407 0.658 0.0
H5145 H 0.81061 0.38272 0.67584 0.0
H5146 H 0.85074 0.38573 0.63741 0.0
H5147 H 0.81143 0.36426 0.656 0.0
H5148 H 0.80415 0.34443 0.61117 0.0
H5149 H 0.80601 0.36365 0.63025 0.0
H5150 H 0.85432 0.35952 0.62989 0.0
H5151 H 0.85238 0.34045 0.61003 0.0
C5152 C 0.84177 0.39538 0.65763 0.0
C5153 C 0.83028 0.39497 0.66844 0.0
C5154 C 0.84208 0.38484 0.64588 0.0
C5155 C 0.83095 0.37365 0.64483 0.0
C5156 C 0.81992 0.37296 0.6561 0.0
C5157 C 0.8195 0.38353 0.66761 0.0
C5158 C 0.8152 0.34766 0.61507 0.0
C5159 C 0.82811 0.34082 0.60921 0.0
C5160 C 0.81628 0.35864 0.62613 0.0
C5161 C 0.8303 0.36293 0.63195 0.0
C5162 C 0.84333 0.3565 0.62569 0.0
C5163 C 0.84224 0.34556 0.61435 0.0
H5164 H 0.20212 0.61121 0.66138 0.0
H5165 H 0.15376 0.611 0.66374 0.0
H5166 H 0.20125 0.62995 0.64176 0.0
H5167 H 0.15283 0.63052 0.64423 0.0
H5168 H 0.1595 0.65795 0.59919 0.0
H5169 H 0.15777 0.63751 0.6177 0.0
H5170 H 0.19603 0.65587 0.64111 0.0
H5171 H 0.19811 0.67546 0.6226 0.0
C5172 C 0.19125 0.61524 0.65772 0.0
C5173 C 0.17802 0.60976 0.66424 0.0
C5174 C 0.19074 0.62609 0.64649 0.0
C5175 C 0.17698 0.63206 0.64161 0.0
C5176 C 0.16363 0.62618 0.64772 0.0
C5177 C 0.16414 0.61506 0.65892 0.0
C5178 C 0.16748 0.65755 0.60834 0.0
C5179 C 0.17904 0.66824 0.6093 0.0
C5180 C 0.16646 0.6459 0.61897 0.0
C5181 C 0.17695 0.64484 0.63076 0.0
C5182 C 0.18804 0.65598 0.63196 0.0
C5183 C 0.18915 0.66737 0.62135 0.0
loop_
_geom_bond_atom_site_label_1
_geom_bond_atom_site_label_2
_geom_bond_distance
_geom_bond_site_symmetry_2
_ccdc_geom_bond_type
Co0 O1 2.216 . S
Co0 O2 2.091 . S
Co0 O4 2.004 . S
Co0 O10 2.021 . S
Co0 O12 2.137 . S
Co0 O13 2.244 . S
O1 Co0 2.216 . S
O1 C8 1.247 . S
O2 Co0 2.091 . S
O2 C8 1.261 . S
C3 O12 1.247 . S
C3 O13 1.272 . S
O4 Co0 2.004 . S
O4 C9 1.259 . S
Co5 O6 2.061 . S
Co5 O11 2.052 . S
Co5 O13 2.135 . S
O6 Co5 2.061 . S
O6 C9 1.235 . S
C7 O10 1.238 . S
C7 O11 1.241 . S
C8 O1 1.247 . S
C8 O2 1.261 . S
C9 O4 1.259 . S
C9 O6 1.235 . S
O10 Co0 2.021 . S
O10 C7 1.238 . S
O11 Co5 2.052 . S
O11 C7 1.241 . S
O12 Co0 2.137 . S
O12 C3 1.247 . S
O13 Co0 2.244 . S
O13 C3 1.272 . S
O13 Co5 2.135 . S
Co14 O15 2.216 . S
Co14 O16 2.091 . S
Co14 O18 2.004 . S
Co14 O24 2.021 . S
Co14 O26 2.137 . S
Co14 O27 2.244 . S
O15 Co14 2.216 . S
O15 C22 1.247 . S
O16 Co14 2.091 . S
O16 C22 1.261 . S
C17 O26 1.247 . S
C17 O27 1.272 . S
O18 Co14 2.004 . S
O18 C23 1.259 . S
Co19 O20 2.061 . S
Co19 O25 2.052 . S
Co19 O27 2.135 . S
O20 Co19 2.061 . S
O20 C23 1.235 . S
C21 O24 1.238 . S
C21 O25 1.241 . S
C22 O15 1.247 . S
C22 O16 1.261 . S
C23 O18 1.259 . S
C23 O20 1.235 . S
O24 Co14 2.021 . S
O24 C21 1.238 . S
O25 Co19 2.052 . S
O25 C21 1.241 . S
O26 Co14 2.137 . S
O26 C17 1.247 . S
O27 Co14 2.244 . S
O27 C17 1.272 . S
O27 Co19 2.135 . S
Co28 O29 2.216 . S
Co28 O30 2.091 . S
Co28 O32 2.004 . S
Co28 O38 2.021 . S
Co28 O40 2.137 . S
Co28 O41 2.244 . S
O29 Co28 2.216 . S
O29 C36 1.247 . S
O30 Co28 2.091 . S
O30 C36 1.261 . S
C31 O40 1.247 . S
C31 O41 1.272 . S
O32 Co28 2.004 . S
O32 C37 1.259 . S
Co33 O34 2.061 . S
Co33 O39 2.052 . S
Co33 O41 2.135 . S
O34 Co33 2.061 . S
O34 C37 1.235 . S
C35 O38 1.238 . S
C35 O39 1.241 . S
C36 O29 1.247 . S
C36 O30 1.261 . S
C37 O32 1.259 . S
C37 O34 1.235 . S
O38 Co28 2.021 . S
O38 C35 1.238 . S
O39 Co33 2.052 . S
O39 C35 1.241 . S
O40 Co28 2.137 . S
O40 C31 1.247 . S
O41 Co28 2.244 . S
O41 C31 1.272 . S
O41 Co33 2.135 . S
Co42 O43 2.216 . S
Co42 O44 2.091 . S
Co42 O46 2.004 . S
Co42 O52 2.021 . S
Co42 O54 2.137 . S
Co42 O55 2.244 . S
O43 Co42 2.216 . S
O43 C50 1.247 . S
O44 Co42 2.091 . S
O44 C50 1.261 . S
C45 O54 1.247 . S
C45 O55 1.272 . S
O46 Co42 2.004 . S
O46 C51 1.259 . S
Co47 O48 2.061 . S
Co47 O53 2.052 . S
Co47 O55 2.135 . S
O48 Co47 2.061 . S
O48 C51 1.235 . S
C49 O52 1.238 . S
C49 O53 1.241 . S
C50 O43 1.247 . S
C50 O44 1.261 . S
C51 O46 1.259 . S
C51 O48 1.235 . S
O52 Co42 2.021 . S
O52 C49 1.238 . S
O53 Co47 2.052 . S
O53 C49 1.241 . S
O54 Co42 2.137 . S
O54 C45 1.247 . S
O55 Co42 2.244 . S
O55 C45 1.272 . S
O55 Co47 2.135 . S
Co56 O57 2.216 . S
Co56 O58 2.091 . S
Co56 O60 2.004 . S
Co56 O66 2.021 . S
Co56 O68 2.137 . S
Co56 O69 2.244 . S
O57 Co56 2.216 . S
O57 C64 1.247 . S
O58 Co56 2.091 . S
O58 C64 1.261 . S
C59 O68 1.247 . S
C59 O69 1.272 . S
O60 Co56 2.004 . S
O60 C65 1.259 . S
Co61 O62 2.061 . S
Co61 O67 2.052 . S
Co61 O69 2.135 . S
O62 Co61 2.061 . S
O62 C65 1.235 . S
C63 O66 1.238 . S
C63 O67 1.241 . S
C64 O57 1.247 . S
C64 O58 1.261 . S
C65 O60 1.259 . S
C65 O62 1.235 . S
O66 Co56 2.021 . S
O66 C63 1.238 . S
O67 Co61 2.052 . S
O67 C63 1.241 . S
O68 Co56 2.137 . S
O68 C59 1.247 . S
O69 Co56 2.244 . S
O69 C59 1.272 . S
O69 Co61 2.135 . S
Co70 O71 2.216 . S
Co70 O72 2.091 . S
Co70 O74 2.004 . S
Co70 O80 2.021 . S
Co70 O82 2.137 . S
Co70 O83 2.244 . S
O71 Co70 2.216 . S
O71 C78 1.247 . S
O72 Co70 2.091 . S
O72 C78 1.261 . S
C73 O82 1.247 . S
C73 O83 1.272 . S
O74 Co70 2.004 . S
O74 C79 1.259 . S
Co75 O76 2.061 . S
Co75 O81 2.052 . S
Co75 O83 2.135 . S
O76 Co75 2.061 . S
O76 C79 1.235 . S
C77 O80 1.238 . S
C77 O81 1.241 . S
C78 O71 1.247 . S
C78 O72 1.261 . S
C79 O74 1.259 . S
C79 O76 1.235 . S
O80 Co70 2.021 . S
O80 C77 1.238 . S
O81 Co75 2.052 . S
O81 C77 1.241 . S
O82 Co70 2.137 . S
O82 C73 1.247 . S
O83 Co70 2.244 . S
O83 C73 1.272 . S
O83 Co75 2.135 . S
Co84 O85 2.216 . S
Co84 O86 2.091 . S
Co84 O88 2.004 . S
Co84 O94 2.021 . S
Co84 O96 2.137 . S
Co84 O97 2.244 . S
O85 Co84 2.216 . S
O85 C92 1.247 . S
O86 Co84 2.091 . S
O86 C92 1.261 . S
C87 O96 1.247 . S
C87 O97 1.272 . S
O88 Co84 2.004 . S
O88 C93 1.259 . S
Co89 O90 2.061 . S
Co89 O95 2.052 . S
Co89 O97 2.135 . S
O90 Co89 2.061 . S
O90 C93 1.235 . S
C91 O94 1.238 . S
C91 O95 1.241 . S
C92 O85 1.247 . S
C92 O86 1.261 . S
C93 O88 1.259 . S
C93 O90 1.235 . S
O94 Co84 2.021 . S
O94 C91 1.238 . S
O95 Co89 2.052 . S
O95 C91 1.241 . S
O96 Co84 2.137 . S
O96 C87 1.247 . S
O97 Co84 2.244 . S
O97 C87 1.272 . S
O97 Co89 2.135 . S
Co98 O99 2.216 . S
Co98 O100 2.091 . S
Co98 O102 2.004 . S
Co98 O108 2.021 . S
Co98 O110 2.137 . S
Co98 O111 2.244 . S
O99 Co98 2.216 . S
O99 C106 1.247 . S
O100 Co98 2.091 . S
O100 C106 1.261 . S
C101 O110 1.247 . S
C101 O111 1.272 . S
O102 Co98 2.004 . S
O102 C107 1.259 . S
Co103 O104 2.061 . S
Co103 O109 2.052 . S
Co103 O111 2.135 . S
O104 Co103 2.061 . S
O104 C107 1.235 . S
C105 O108 1.238 . S
C105 O109 1.241 . S
C106 O99 1.247 . S
C106 O100 1.261 . S
C107 O102 1.259 . S
C107 O104 1.235 . S
O108 Co98 2.021 . S
O108 C105 1.238 . S
O109 Co103 2.052 . S
O109 C105 1.241 . S
O110 Co98 2.137 . S
O110 C101 1.247 . S
O111 Co98 2.244 . S
O111 C101 1.272 . S
O111 Co103 2.135 . S
Co112 O113 2.216 . S
Co112 O114 2.091 . S
Co112 O116 2.004 . S
Co112 O122 2.021 . S
Co112 O124 2.137 . S
Co112 O125 2.244 . S
O113 Co112 2.216 . S
O113 C120 1.247 . S
O114 Co112 2.091 . S
O114 C120 1.261 . S
C115 O124 1.247 . S
C115 O125 1.272 . S
O116 Co112 2.004 . S
O116 C121 1.259 . S
Co117 O118 2.061 . S
Co117 O123 2.052 . S
Co117 O125 2.135 . S
O118 Co117 2.061 . S
O118 C121 1.235 . S
C119 O122 1.238 . S
C119 O123 1.241 . S
C120 O113 1.247 . S
C120 O114 1.261 . S
C121 O116 1.259 . S
C121 O118 1.235 . S
O122 Co112 2.021 . S
O122 C119 1.238 . S
O123 Co117 2.052 . S
O123 C119 1.241 . S
O124 Co112 2.137 . S
O124 C115 1.247 . S
O125 Co112 2.244 . S
O125 C115 1.272 . S
O125 Co117 2.135 . S
Co126 O127 2.216 . S
Co126 O128 2.091 . S
Co126 O130 2.004 . S
Co126 O136 2.021 . S
Co126 O138 2.137 . S
Co126 O139 2.244 . S
O127 Co126 2.216 . S
O127 C134 1.247 . S
O128 Co126 2.091 . S
O128 C134 1.261 . S
C129 O138 1.247 . S
C129 O139 1.272 . S
O130 Co126 2.004 . S
O130 C135 1.259 . S
Co131 O132 2.061 . S
Co131 O137 2.052 . S
Co131 O139 2.135 . S
O132 Co131 2.061 . S
O132 C135 1.235 . S
C133 O136 1.238 . S
C133 O137 1.241 . S
C134 O127 1.247 . S
C134 O128 1.261 . S
C135 O130 1.259 . S
C135 O132 1.235 . S
O136 Co126 2.021 . S
O136 C133 1.238 . S
O137 Co131 2.052 . S
O137 C133 1.241 . S
O138 Co126 2.137 . S
O138 C129 1.247 . S
O139 Co126 2.244 . S
O139 C129 1.272 . S
O139 Co131 2.135 . S
Co140 O141 2.216 . S
Co140 O142 2.091 . S
Co140 O144 2.004 . S
Co140 O150 2.021 . S
Co140 O152 2.137 . S
Co140 O153 2.244 . S
O141 Co140 2.216 . S
O141 C148 1.247 . S
O142 Co140 2.091 . S
O142 C148 1.261 . S
C143 O152 1.247 . S
C143 O153 1.272 . S
O144 Co140 2.004 . S
O144 C149 1.259 . S
Co145 O146 2.061 . S
Co145 O151 2.052 . S
Co145 O153 2.135 . S
O146 Co145 2.061 . S
O146 C149 1.235 . S
C147 O150 1.238 . S
C147 O151 1.241 . S
C148 O141 1.247 . S
C148 O142 1.261 . S
C149 O144 1.259 . S
C149 O146 1.235 . S
O150 Co140 2.021 . S
O150 C147 1.238 . S
O151 Co145 2.052 . S
O151 C147 1.241 . S
O152 Co140 2.137 . S
O152 C143 1.247 . S
O153 Co140 2.244 . S
O153 C143 1.272 . S
O153 Co145 2.135 . S
Co154 O155 2.216 . S
Co154 O156 2.091 . S
Co154 O158 2.004 . S
Co154 O164 2.021 . S
Co154 O166 2.137 . S
Co154 O167 2.244 . S
O155 Co154 2.216 . S
O155 C162 1.247 . S
O156 Co154 2.091 . S
O156 C162 1.261 . S
C157 O166 1.247 . S
C157 O167 1.272 . S
O158 Co154 2.004 . S
O158 C163 1.259 . S
Co159 O160 2.061 . S
Co159 O165 2.052 . S
Co159 O167 2.135 . S
O160 Co159 2.061 . S
O160 C163 1.235 . S
C161 O164 1.238 . S
C161 O165 1.241 . S
C162 O155 1.247 . S
C162 O156 1.261 . S
C163 O158 1.259 . S
C163 O160 1.235 . S
O164 Co154 2.021 . S
O164 C161 1.238 . S
O165 Co159 2.052 . S
O165 C161 1.241 . S
O166 Co154 2.137 . S
O166 C157 1.247 . S
O167 Co154 2.244 . S
O167 C157 1.272 . S
O167 Co159 2.135 . S
Co168 O169 2.216 . S
Co168 O170 2.091 . S
Co168 O172 2.004 . S
Co168 O178 2.021 . S
Co168 O180 2.137 . S
Co168 O181 2.244 . S
O169 Co168 2.216 . S
O169 C176 1.247 . S
O170 Co168 2.091 . S
O170 C176 1.261 . S
C171 O180 1.247 . S
C171 O181 1.272 . S
O172 Co168 2.004 . S
O172 C177 1.259 . S
Co173 O174 2.061 . S
Co173 O179 2.052 . S
Co173 O181 2.135 . S
O174 Co173 2.061 . S
O174 C177 1.235 . S
C175 O178 1.238 . S
C175 O179 1.241 . S
C176 O169 1.247 . S
C176 O170 1.261 . S
C177 O172 1.259 . S
C177 O174 1.235 . S
O178 Co168 2.021 . S
O178 C175 1.238 . S
O179 Co173 2.052 . S
O179 C175 1.241 . S
O180 Co168 2.137 . S
O180 C171 1.247 . S
O181 Co168 2.244 . S
O181 C171 1.272 . S
O181 Co173 2.135 . S
Co182 O183 2.216 . S
Co182 O184 2.091 . S
Co182 O186 2.004 . S
Co182 O192 2.021 . S
Co182 O194 2.137 . S
Co182 O195 2.244 . S
O183 Co182 2.216 . S
O183 C190 1.247 . S
O184 Co182 2.091 . S
O184 C190 1.261 . S
C185 O194 1.247 . S
C185 O195 1.272 . S
O186 Co182 2.004 . S
O186 C191 1.259 . S
Co187 O188 2.061 . S
Co187 O193 2.052 . S
Co187 O195 2.135 . S
O188 Co187 2.061 . S
O188 C191 1.235 . S
C189 O192 1.238 . S
C189 O193 1.241 . S
C190 O183 1.247 . S
C190 O184 1.261 . S
C191 O186 1.259 . S
C191 O188 1.235 . S
O192 Co182 2.021 . S
O192 C189 1.238 . S
O193 Co187 2.052 . S
O193 C189 1.241 . S
O194 Co182 2.137 . S
O194 C185 1.247 . S
O195 Co182 2.244 . S
O195 C185 1.272 . S
O195 Co187 2.135 . S
Co196 O197 2.216 . S
Co196 O198 2.091 . S
Co196 O200 2.004 . S
Co196 O206 2.021 . S
Co196 O208 2.137 . S
Co196 O209 2.244 . S
O197 Co196 2.216 . S
O197 C204 1.247 . S
O198 Co196 2.091 . S
O198 C204 1.261 . S
C199 O208 1.247 . S
C199 O209 1.272 . S
O200 Co196 2.004 . S
O200 C205 1.259 . S
Co201 O202 2.061 . S
Co201 O207 2.052 . S
Co201 O209 2.135 . S
O202 Co201 2.061 . S
O202 C205 1.235 . S
C203 O206 1.238 . S
C203 O207 1.241 . S
C204 O197 1.247 . S
C204 O198 1.261 . S
C205 O200 1.259 . S
C205 O202 1.235 . S
O206 Co196 2.021 . S
O206 C203 1.238 . S
O207 Co201 2.052 . S
O207 C203 1.241 . S
O208 Co196 2.137 . S
O208 C199 1.247 . S
O209 Co196 2.244 . S
O209 C199 1.272 . S
O209 Co201 2.135 . S
Co210 O211 2.216 . S
Co210 O212 2.091 . S
Co210 O214 2.004 . S
Co210 O220 2.021 . S
Co210 O222 2.137 . S
Co210 O223 2.244 . S
O211 Co210 2.216 . S
O211 C218 1.247 . S
O212 Co210 2.091 . S
O212 C218 1.261 . S
C213 O222 1.247 . S
C213 O223 1.272 . S
O214 Co210 2.004 . S
O214 C219 1.259 . S
Co215 O216 2.061 . S
Co215 O221 2.052 . S
Co215 O223 2.135 . S
O216 Co215 2.061 . S
O216 C219 1.235 . S
C217 O220 1.238 . S
C217 O221 1.241 . S
C218 O211 1.247 . S
C218 O212 1.261 . S
C219 O214 1.259 . S
C219 O216 1.235 . S
O220 Co210 2.021 . S
O220 C217 1.238 . S
O221 Co215 2.052 . S
O221 C217 1.241 . S
O222 Co210 2.137 . S
O222 C213 1.247 . S
O223 Co210 2.244 . S
O223 C213 1.272 . S
O223 Co215 2.135 . S
Co224 O225 2.216 . S
Co224 O226 2.091 . S
Co224 O228 2.004 . S
Co224 O234 2.021 . S
Co224 O236 2.137 . S
Co224 O237 2.244 . S
O225 Co224 2.216 . S
O225 C232 1.247 . S
O226 Co224 2.091 . S
O226 C232 1.261 . S
C227 O236 1.247 . S
C227 O237 1.272 . S
O228 Co224 2.004 . S
O228 C233 1.259 . S
Co229 O230 2.061 . S
Co229 O235 2.052 . S
Co229 O237 2.135 . S
O230 Co229 2.061 . S
O230 C233 1.235 . S
C231 O234 1.238 . S
C231 O235 1.241 . S
C232 O225 1.247 . S
C232 O226 1.261 . S
C233 O228 1.259 . S
C233 O230 1.235 . S
O234 Co224 2.021 . S
O234 C231 1.238 . S
O235 Co229 2.052 . S
O235 C231 1.241 . S
O236 Co224 2.137 . S
O236 C227 1.247 . S
O237 Co224 2.244 . S
O237 C227 1.272 . S
O237 Co229 2.135 . S
Co238 O239 2.216 . S
Co238 O240 2.091 . S
Co238 O242 2.004 . S
Co238 O248 2.021 . S
Co238 O250 2.137 . S
Co238 O251 2.244 . S
O239 Co238 2.216 . S
O239 C246 1.247 . S
O240 Co238 2.091 . S
O240 C246 1.261 . S
C241 O250 1.247 . S
C241 O251 1.272 . S
O242 Co238 2.004 . S
O242 C247 1.259 . S
Co243 O244 2.061 . S
Co243 O249 2.052 . S
Co243 O251 2.135 . S
O244 Co243 2.061 . S
O244 C247 1.235 . S
C245 O248 1.238 . S
C245 O249 1.241 . S
C246 O239 1.247 . S
C246 O240 1.261 . S
C247 O242 1.259 . S
C247 O244 1.235 . S
O248 Co238 2.021 . S
O248 C245 1.238 . S
O249 Co243 2.052 . S
O249 C245 1.241 . S
O250 Co238 2.137 . S
O250 C241 1.247 . S
O251 Co238 2.244 . S
O251 C241 1.272 . S
O251 Co243 2.135 . S
Co252 O253 2.216 . S
Co252 O254 2.091 . S
Co252 O256 2.004 . S
Co252 O262 2.021 . S
Co252 O264 2.137 . S
Co252 O265 2.244 . S
O253 Co252 2.216 . S
O253 C260 1.247 . S
O254 Co252 2.091 . S
O254 C260 1.261 . S
C255 O264 1.247 . S
C255 O265 1.272 . S
O256 Co252 2.004 . S
O256 C261 1.259 . S
Co257 O258 2.061 . S
Co257 O263 2.052 . S
Co257 O265 2.135 . S
O258 Co257 2.061 . S
O258 C261 1.235 . S
C259 O262 1.238 . S
C259 O263 1.241 . S
C260 O253 1.247 . S
C260 O254 1.261 . S
C261 O256 1.259 . S
C261 O258 1.235 . S
O262 Co252 2.021 . S
O262 C259 1.238 . S
O263 Co257 2.052 . S
O263 C259 1.241 . S
O264 Co252 2.137 . S
O264 C255 1.247 . S
O265 Co252 2.244 . S
O265 C255 1.272 . S
O265 Co257 2.135 . S
Co266 O267 2.216 . S
Co266 O268 2.091 . S
Co266 O270 2.004 . S
Co266 O276 2.021 . S
Co266 O278 2.137 . S
Co266 O279 2.244 . S
O267 Co266 2.216 . S
O267 C274 1.247 . S
O268 Co266 2.091 . S
O268 C274 1.261 . S
C269 O278 1.247 . S
C269 O279 1.272 . S
O270 Co266 2.004 . S
O270 C275 1.259 . S
Co271 O272 2.061 . S
Co271 O277 2.052 . S
Co271 O279 2.135 . S
O272 Co271 2.061 . S
O272 C275 1.235 . S
C273 O276 1.238 . S
C273 O277 1.241 . S
C274 O267 1.247 . S
C274 O268 1.261 . S
C275 O270 1.259 . S
C275 O272 1.235 . S
O276 Co266 2.021 . S
O276 C273 1.238 . S
O277 Co271 2.052 . S
O277 C273 1.241 . S
O278 Co266 2.137 . S
O278 C269 1.247 . S
O279 Co266 2.244 . S
O279 C269 1.272 . S
O279 Co271 2.135 . S
Co280 O281 2.216 . S
Co280 O282 2.091 . S
Co280 O284 2.004 . S
Co280 O290 2.021 . S
Co280 O292 2.137 . S
Co280 O293 2.244 . S
O281 Co280 2.216 . S
O281 C288 1.247 . S
O282 Co280 2.091 . S
O282 C288 1.261 . S
C283 O292 1.247 . S
C283 O293 1.272 . S
O284 Co280 2.004 . S
O284 C289 1.259 . S
Co285 O286 2.061 . S
Co285 O291 2.052 . S
Co285 O293 2.135 . S
O286 Co285 2.061 . S
O286 C289 1.235 . S
C287 O290 1.238 . S
C287 O291 1.241 . S
C288 O281 1.247 . S
C288 O282 1.261 . S
C289 O284 1.259 . S
C289 O286 1.235 . S
O290 Co280 2.021 . S
O290 C287 1.238 . S
O291 Co285 2.052 . S
O291 C287 1.241 . S
O292 Co280 2.137 . S
O292 C283 1.247 . S
O293 Co280 2.244 . S
O293 C283 1.272 . S
O293 Co285 2.135 . S
Co294 O295 2.216 . S
Co294 O296 2.091 . S
Co294 O298 2.004 . S
Co294 O304 2.021 . S
Co294 O306 2.137 . S
Co294 O307 2.244 . S
O295 Co294 2.216 . S
O295 C302 1.247 . S
O296 Co294 2.091 . S
O296 C302 1.261 . S
C297 O306 1.247 . S
C297 O307 1.272 . S
O298 Co294 2.004 . S
O298 C303 1.259 . S
Co299 O300 2.061 . S
Co299 O305 2.052 . S
Co299 O307 2.135 . S
O300 Co299 2.061 . S
O300 C303 1.235 . S
C301 O304 1.238 . S
C301 O305 1.241 . S
C302 O295 1.247 . S
C302 O296 1.261 . S
C303 O298 1.259 . S
C303 O300 1.235 . S
O304 Co294 2.021 . S
O304 C301 1.238 . S
O305 Co299 2.052 . S
O305 C301 1.241 . S
O306 Co294 2.137 . S
O306 C297 1.247 . S
O307 Co294 2.244 . S
O307 C297 1.272 . S
O307 Co299 2.135 . S
Co308 O309 2.216 . S
Co308 O310 2.091 . S
Co308 O312 2.004 . S
Co308 O318 2.021 . S
Co308 O320 2.137 . S
Co308 O321 2.244 . S
O309 Co308 2.216 . S
O309 C316 1.247 . S
O310 Co308 2.091 . S
O310 C316 1.261 . S
C311 O320 1.247 . S
C311 O321 1.272 . S
O312 Co308 2.004 . S
O312 C317 1.259 . S
Co313 O314 2.061 . S
Co313 O319 2.052 . S
Co313 O321 2.135 . S
O314 Co313 2.061 . S
O314 C317 1.235 . S
C315 O318 1.238 . S
C315 O319 1.241 . S
C316 O309 1.247 . S
C316 O310 1.261 . S
C317 O312 1.259 . S
C317 O314 1.235 . S
O318 Co308 2.021 . S
O318 C315 1.238 . S
O319 Co313 2.052 . S
O319 C315 1.241 . S
O320 Co308 2.137 . S
O320 C311 1.247 . S
O321 Co308 2.244 . S
O321 C311 1.272 . S
O321 Co313 2.135 . S
Co322 O323 2.216 . S
Co322 O324 2.091 . S
Co322 O326 2.004 . S
Co322 O332 2.021 . S
Co322 O334 2.137 . S
Co322 O335 2.244 . S
O323 Co322 2.216 . S
O323 C330 1.247 . S
O324 Co322 2.091 . S
O324 C330 1.261 . S
C325 O334 1.247 . S
C325 O335 1.272 . S
O326 Co322 2.004 . S
O326 C331 1.259 . S
Co327 O328 2.061 . S
Co327 O333 2.052 . S
Co327 O335 2.135 . S
O328 Co327 2.061 . S
O328 C331 1.235 . S
C329 O332 1.238 . S
C329 O333 1.241 . S
C330 O323 1.247 . S
C330 O324 1.261 . S
C331 O326 1.259 . S
C331 O328 1.235 . S
O332 Co322 2.021 . S
O332 C329 1.238 . S
O333 Co327 2.052 . S
O333 C329 1.241 . S
O334 Co322 2.137 . S
O334 C325 1.247 . S
O335 Co322 2.244 . S
O335 C325 1.272 . S
O335 Co327 2.135 . S
Co336 O337 2.216 . S
Co336 O338 2.091 . S
Co336 O340 2.004 . S
Co336 O346 2.021 . S
Co336 O348 2.137 . S
Co336 O349 2.244 . S
O337 Co336 2.216 . S
O337 C344 1.247 . S
O338 Co336 2.091 . S
O338 C344 1.261 . S
C339 O348 1.247 . S
C339 O349 1.272 . S
O340 Co336 2.004 . S
O340 C345 1.259 . S
Co341 O342 2.061 . S
Co341 O347 2.052 . S
Co341 O349 2.135 . S
O342 Co341 2.061 . S
O342 C345 1.235 . S
C343 O346 1.238 . S
C343 O347 1.241 . S
C344 O337 1.247 . S
C344 O338 1.261 . S
C345 O340 1.259 . S
C345 O342 1.235 . S
O346 Co336 2.021 . S
O346 C343 1.238 . S
O347 Co341 2.052 . S
O347 C343 1.241 . S
O348 Co336 2.137 . S
O348 C339 1.247 . S
O349 Co336 2.244 . S
O349 C339 1.272 . S
O349 Co341 2.135 . S
Co350 O351 2.216 . S
Co350 O352 2.091 . S
Co350 O354 2.004 . S
Co350 O360 2.021 . S
Co350 O362 2.137 . S
Co350 O363 2.244 . S
O351 Co350 2.216 . S
O351 C358 1.247 . S
O352 Co350 2.091 . S
O352 C358 1.261 . S
C353 O362 1.247 . S
C353 O363 1.272 . S
O354 Co350 2.004 . S
O354 C359 1.259 . S
Co355 O356 2.061 . S
Co355 O361 2.052 . S
Co355 O363 2.135 . S
O356 Co355 2.061 . S
O356 C359 1.235 . S
C357 O360 1.238 . S
C357 O361 1.241 . S
C358 O351 1.247 . S
C358 O352 1.261 . S
C359 O354 1.259 . S
C359 O356 1.235 . S
O360 Co350 2.021 . S
O360 C357 1.238 . S
O361 Co355 2.052 . S
O361 C357 1.241 . S
O362 Co350 2.137 . S
O362 C353 1.247 . S
O363 Co350 2.244 . S
O363 C353 1.272 . S
O363 Co355 2.135 . S
Co364 O365 2.216 . S
Co364 O366 2.091 . S
Co364 O368 2.004 . S
Co364 O374 2.021 . S
Co364 O376 2.137 . S
Co364 O377 2.244 . S
O365 Co364 2.216 . S
O365 C372 1.247 . S
O366 Co364 2.091 . S
O366 C372 1.261 . S
C367 O376 1.247 . S
C367 O377 1.272 . S
O368 Co364 2.004 . S
O368 C373 1.259 . S
Co369 O370 2.061 . S
Co369 O375 2.052 . S
Co369 O377 2.135 . S
O370 Co369 2.061 . S
O370 C373 1.235 . S
C371 O374 1.238 . S
C371 O375 1.241 . S
C372 O365 1.247 . S
C372 O366 1.261 . S
C373 O368 1.259 . S
C373 O370 1.235 . S
O374 Co364 2.021 . S
O374 C371 1.238 . S
O375 Co369 2.052 . S
O375 C371 1.241 . S
O376 Co364 2.137 . S
O376 C367 1.247 . S
O377 Co364 2.244 . S
O377 C367 1.272 . S
O377 Co369 2.135 . S
Co378 O379 2.216 . S
Co378 O380 2.091 . S
Co378 O382 2.004 . S
Co378 O388 2.021 . S
Co378 O390 2.137 . S
Co378 O391 2.244 . S
O379 Co378 2.216 . S
O379 C386 1.247 . S
O380 Co378 2.091 . S
O380 C386 1.261 . S
C381 O390 1.247 . S
C381 O391 1.272 . S
O382 Co378 2.004 . S
O382 C387 1.259 . S
Co383 O384 2.061 . S
Co383 O389 2.052 . S
Co383 O391 2.135 . S
O384 Co383 2.061 . S
O384 C387 1.235 . S
C385 O388 1.238 . S
C385 O389 1.241 . S
C386 O379 1.247 . S
C386 O380 1.261 . S
C387 O382 1.259 . S
C387 O384 1.235 . S
O388 Co378 2.021 . S
O388 C385 1.238 . S
O389 Co383 2.052 . S
O389 C385 1.241 . S
O390 Co378 2.137 . S
O390 C381 1.247 . S
O391 Co378 2.244 . S
O391 C381 1.272 . S
O391 Co383 2.135 . S
Co392 O393 2.216 . S
Co392 O394 2.091 . S
Co392 O396 2.004 . S
Co392 O402 2.021 . S
Co392 O404 2.137 . S
Co392 O405 2.244 . S
O393 Co392 2.216 . S
O393 C400 1.247 . S
O394 Co392 2.091 . S
O394 C400 1.261 . S
C395 O404 1.247 . S
C395 O405 1.272 . S
O396 Co392 2.004 . S
O396 C401 1.259 . S
Co397 O398 2.061 . S
Co397 O403 2.052 . S
Co397 O405 2.135 . S
O398 Co397 2.061 . S
O398 C401 1.235 . S
C399 O402 1.238 . S
C399 O403 1.241 . S
C400 O393 1.247 . S
C400 O394 1.261 . S
C401 O396 1.259 . S
C401 O398 1.235 . S
O402 Co392 2.021 . S
O402 C399 1.238 . S
O403 Co397 2.052 . S
O403 C399 1.241 . S
O404 Co392 2.137 . S
O404 C395 1.247 . S
O405 Co392 2.244 . S
O405 C395 1.272 . S
O405 Co397 2.135 . S
Co406 O407 2.216 . S
Co406 O408 2.091 . S
Co406 O410 2.004 . S
Co406 O416 2.021 . S
Co406 O418 2.137 . S
Co406 O419 2.244 . S
O407 Co406 2.216 . S
O407 C414 1.247 . S
O408 Co406 2.091 . S
O408 C414 1.261 . S
C409 O418 1.247 . S
C409 O419 1.272 . S
O410 Co406 2.004 . S
O410 C415 1.259 . S
Co411 O412 2.061 . S
Co411 O417 2.052 . S
Co411 O419 2.135 . S
O412 Co411 2.061 . S
O412 C415 1.235 . S
C413 O416 1.238 . S
C413 O417 1.241 . S
C414 O407 1.247 . S
C414 O408 1.261 . S
C415 O410 1.259 . S
C415 O412 1.235 . S
O416 Co406 2.021 . S
O416 C413 1.238 . S
O417 Co411 2.052 . S
O417 C413 1.241 . S
O418 Co406 2.137 . S
O418 C409 1.247 . S
O419 Co406 2.244 . S
O419 C409 1.272 . S
O419 Co411 2.135 . S
Co420 O421 2.216 . S
Co420 O422 2.091 . S
Co420 O424 2.004 . S
Co420 O430 2.021 . S
Co420 O432 2.137 . S
Co420 O433 2.244 . S
O421 Co420 2.216 . S
O421 C428 1.247 . S
O422 Co420 2.091 . S
O422 C428 1.261 . S
C423 O432 1.247 . S
C423 O433 1.272 . S
O424 Co420 2.004 . S
O424 C429 1.259 . S
Co425 O426 2.061 . S
Co425 O431 2.052 . S
Co425 O433 2.135 . S
O426 Co425 2.061 . S
O426 C429 1.235 . S
C427 O430 1.238 . S
C427 O431 1.241 . S
C428 O421 1.247 . S
C428 O422 1.261 . S
C429 O424 1.259 . S
C429 O426 1.235 . S
O430 Co420 2.021 . S
O430 C427 1.238 . S
O431 Co425 2.052 . S
O431 C427 1.241 . S
O432 Co420 2.137 . S
O432 C423 1.247 . S
O433 Co420 2.244 . S
O433 C423 1.272 . S
O433 Co425 2.135 . S
Co434 O435 2.216 . S
Co434 O436 2.091 . S
Co434 O438 2.004 . S
Co434 O444 2.021 . S
Co434 O446 2.137 . S
Co434 O447 2.244 . S
O435 Co434 2.216 . S
O435 C442 1.247 . S
O436 Co434 2.091 . S
O436 C442 1.261 . S
C437 O446 1.247 . S
C437 O447 1.272 . S
O438 Co434 2.004 . S
O438 C443 1.259 . S
Co439 O440 2.061 . S
Co439 O445 2.052 . S
Co439 O447 2.135 . S
O440 Co439 2.061 . S
O440 C443 1.235 . S
C441 O444 1.238 . S
C441 O445 1.241 . S
C442 O435 1.247 . S
C442 O436 1.261 . S
C443 O438 1.259 . S
C443 O440 1.235 . S
O444 Co434 2.021 . S
O444 C441 1.238 . S
O445 Co439 2.052 . S
O445 C441 1.241 . S
O446 Co434 2.137 . S
O446 C437 1.247 . S
O447 Co434 2.244 . S
O447 C437 1.272 . S
O447 Co439 2.135 . S
Co448 O449 2.216 . S
Co448 O450 2.091 . S
Co448 O452 2.004 . S
Co448 O458 2.021 . S
Co448 O460 2.137 . S
Co448 O461 2.244 . S
O449 Co448 2.216 . S
O449 C456 1.247 . S
O450 Co448 2.091 . S
O450 C456 1.261 . S
C451 O460 1.247 . S
C451 O461 1.272 . S
O452 Co448 2.004 . S
O452 C457 1.259 . S
Co453 O454 2.061 . S
Co453 O459 2.052 . S
Co453 O461 2.135 . S
O454 Co453 2.061 . S
O454 C457 1.235 . S
C455 O458 1.238 . S
C455 O459 1.241 . S
C456 O449 1.247 . S
C456 O450 1.261 . S
C457 O452 1.259 . S
C457 O454 1.235 . S
O458 Co448 2.021 . S
O458 C455 1.238 . S
O459 Co453 2.052 . S
O459 C455 1.241 . S
O460 Co448 2.137 . S
O460 C451 1.247 . S
O461 Co448 2.244 . S
O461 C451 1.272 . S
O461 Co453 2.135 . S
Co462 O463 2.216 . S
Co462 O464 2.091 . S
Co462 O466 2.004 . S
Co462 O472 2.021 . S
Co462 O474 2.137 . S
Co462 O475 2.244 . S
O463 Co462 2.216 . S
O463 C470 1.247 . S
O464 Co462 2.091 . S
O464 C470 1.261 . S
C465 O474 1.247 . S
C465 O475 1.272 . S
O466 Co462 2.004 . S
O466 C471 1.259 . S
Co467 O468 2.061 . S
Co467 O473 2.052 . S
Co467 O475 2.135 . S
O468 Co467 2.061 . S
O468 C471 1.235 . S
C469 O472 1.238 . S
C469 O473 1.241 . S
C470 O463 1.247 . S
C470 O464 1.261 . S
C471 O466 1.259 . S
C471 O468 1.235 . S
O472 Co462 2.021 . S
O472 C469 1.238 . S
O473 Co467 2.052 . S
O473 C469 1.241 . S
O474 Co462 2.137 . S
O474 C465 1.247 . S
O475 Co462 2.244 . S
O475 C465 1.272 . S
O475 Co467 2.135 . S
Co476 O477 2.216 . S
Co476 O478 2.091 . S
Co476 O480 2.004 . S
Co476 O486 2.021 . S
Co476 O488 2.137 . S
Co476 O489 2.244 . S
O477 Co476 2.216 . S
O477 C484 1.247 . S
O478 Co476 2.091 . S
O478 C484 1.261 . S
C479 O488 1.247 . S
C479 O489 1.272 . S
O480 Co476 2.004 . S
O480 C485 1.259 . S
Co481 O482 2.061 . S
Co481 O487 2.052 . S
Co481 O489 2.135 . S
O482 Co481 2.061 . S
O482 C485 1.235 . S
C483 O486 1.238 . S
C483 O487 1.241 . S
C484 O477 1.247 . S
C484 O478 1.261 . S
C485 O480 1.259 . S
C485 O482 1.235 . S
O486 Co476 2.021 . S
O486 C483 1.238 . S
O487 Co481 2.052 . S
O487 C483 1.241 . S
O488 Co476 2.137 . S
O488 C479 1.247 . S
O489 Co476 2.244 . S
O489 C479 1.272 . S
O489 Co481 2.135 . S
Co490 O491 2.216 . S
Co490 O492 2.091 . S
Co490 O494 2.004 . S
Co490 O500 2.021 . S
Co490 O502 2.137 . S
Co490 O503 2.244 . S
O491 Co490 2.216 . S
O491 C498 1.247 . S
O492 Co490 2.091 . S
O492 C498 1.261 . S
C493 O502 1.247 . S
C493 O503 1.272 . S
O494 Co490 2.004 . S
O494 C499 1.259 . S
Co495 O496 2.061 . S
Co495 O501 2.052 . S
Co495 O503 2.135 . S
O496 Co495 2.061 . S
O496 C499 1.235 . S
C497 O500 1.238 . S
C497 O501 1.241 . S
C498 O491 1.247 . S
C498 O492 1.261 . S
C499 O494 1.259 . S
C499 O496 1.235 . S
O500 Co490 2.021 . S
O500 C497 1.238 . S
O501 Co495 2.052 . S
O501 C497 1.241 . S
O502 Co490 2.137 . S
O502 C493 1.247 . S
O503 Co490 2.244 . S
O503 C493 1.272 . S
O503 Co495 2.135 . S
Co504 O505 2.216 . S
Co504 O506 2.091 . S
Co504 O508 2.004 . S
Co504 O514 2.021 . S
Co504 O516 2.137 . S
Co504 O517 2.244 . S
O505 Co504 2.216 . S
O505 C512 1.247 . S
O506 Co504 2.091 . S
O506 C512 1.261 . S
C507 O516 1.247 . S
C507 O517 1.272 . S
O508 Co504 2.004 . S
O508 C513 1.259 . S
Co509 O510 2.061 . S
Co509 O515 2.052 . S
Co509 O517 2.135 . S
O510 Co509 2.061 . S
O510 C513 1.235 . S
C511 O514 1.238 . S
C511 O515 1.241 . S
C512 O505 1.247 . S
C512 O506 1.261 . S
C513 O508 1.259 . S
C513 O510 1.235 . S
O514 Co504 2.021 . S
O514 C511 1.238 . S
O515 Co509 2.052 . S
O515 C511 1.241 . S
O516 Co504 2.137 . S
O516 C507 1.247 . S
O517 Co504 2.244 . S
O517 C507 1.272 . S
O517 Co509 2.135 . S
Co518 O519 2.216 . S
Co518 O520 2.091 . S
Co518 O522 2.004 . S
Co518 O528 2.021 . S
Co518 O530 2.137 . S
Co518 O531 2.244 . S
O519 Co518 2.216 . S
O519 C526 1.247 . S
O520 Co518 2.091 . S
O520 C526 1.261 . S
C521 O530 1.247 . S
C521 O531 1.272 . S
O522 Co518 2.004 . S
O522 C527 1.259 . S
Co523 O524 2.061 . S
Co523 O529 2.052 . S
Co523 O531 2.135 . S
O524 Co523 2.061 . S
O524 C527 1.235 . S
C525 O528 1.238 . S
C525 O529 1.241 . S
C526 O519 1.247 . S
C526 O520 1.261 . S
C527 O522 1.259 . S
C527 O524 1.235 . S
O528 Co518 2.021 . S
O528 C525 1.238 . S
O529 Co523 2.052 . S
O529 C525 1.241 . S
O530 Co518 2.137 . S
O530 C521 1.247 . S
O531 Co518 2.244 . S
O531 C521 1.272 . S
O531 Co523 2.135 . S
Co532 O533 2.216 . S
Co532 O534 2.091 . S
Co532 O536 2.004 . S
Co532 O542 2.021 . S
Co532 O544 2.137 . S
Co532 O545 2.244 . S
O533 Co532 2.216 . S
O533 C540 1.247 . S
O534 Co532 2.091 . S
O534 C540 1.261 . S
C535 O544 1.247 . S
C535 O545 1.272 . S
O536 Co532 2.004 . S
O536 C541 1.259 . S
Co537 O538 2.061 . S
Co537 O543 2.052 . S
Co537 O545 2.135 . S
O538 Co537 2.061 . S
O538 C541 1.235 . S
C539 O542 1.238 . S
C539 O543 1.241 . S
C540 O533 1.247 . S
C540 O534 1.261 . S
C541 O536 1.259 . S
C541 O538 1.235 . S
O542 Co532 2.021 . S
O542 C539 1.238 . S
O543 Co537 2.052 . S
O543 C539 1.241 . S
O544 Co532 2.137 . S
O544 C535 1.247 . S
O545 Co532 2.244 . S
O545 C535 1.272 . S
O545 Co537 2.135 . S
Co546 O547 2.216 . S
Co546 O548 2.091 . S
Co546 O550 2.004 . S
Co546 O556 2.021 . S
Co546 O558 2.137 . S
Co546 O559 2.244 . S
O547 Co546 2.216 . S
O547 C554 1.247 . S
O548 Co546 2.091 . S
O548 C554 1.261 . S
C549 O558 1.247 . S
C549 O559 1.272 . S
O550 Co546 2.004 . S
O550 C555 1.259 . S
Co551 O552 2.061 . S
Co551 O557 2.052 . S
Co551 O559 2.135 . S
O552 Co551 2.061 . S
O552 C555 1.235 . S
C553 O556 1.238 . S
C553 O557 1.241 . S
C554 O547 1.247 . S
C554 O548 1.261 . S
C555 O550 1.259 . S
C555 O552 1.235 . S
O556 Co546 2.021 . S
O556 C553 1.238 . S
O557 Co551 2.052 . S
O557 C553 1.241 . S
O558 Co546 2.137 . S
O558 C549 1.247 . S
O559 Co546 2.244 . S
O559 C549 1.272 . S
O559 Co551 2.135 . S
Co560 O561 2.216 . S
Co560 O562 2.091 . S
Co560 O564 2.004 . S
Co560 O570 2.021 . S
Co560 O572 2.137 . S
Co560 O573 2.244 . S
O561 Co560 2.216 . S
O561 C568 1.247 . S
O562 Co560 2.091 . S
O562 C568 1.261 . S
C563 O572 1.247 . S
C563 O573 1.272 . S
O564 Co560 2.004 . S
O564 C569 1.259 . S
Co565 O566 2.061 . S
Co565 O571 2.052 . S
Co565 O573 2.135 . S
O566 Co565 2.061 . S
O566 C569 1.235 . S
C567 O570 1.238 . S
C567 O571 1.241 . S
C568 O561 1.247 . S
C568 O562 1.261 . S
C569 O564 1.259 . S
C569 O566 1.235 . S
O570 Co560 2.021 . S
O570 C567 1.238 . S
O571 Co565 2.052 . S
O571 C567 1.241 . S
O572 Co560 2.137 . S
O572 C563 1.247 . S
O573 Co560 2.244 . S
O573 C563 1.272 . S
O573 Co565 2.135 . S
Co574 O575 2.216 . S
Co574 O576 2.091 . S
Co574 O578 2.004 . S
Co574 O584 2.021 . S
Co574 O586 2.137 . S
Co574 O587 2.244 . S
O575 Co574 2.216 . S
O575 C582 1.247 . S
O576 Co574 2.091 . S
O576 C582 1.261 . S
C577 O586 1.247 . S
C577 O587 1.272 . S
O578 Co574 2.004 . S
O578 C583 1.259 . S
Co579 O580 2.061 . S
Co579 O585 2.052 . S
Co579 O587 2.135 . S
O580 Co579 2.061 . S
O580 C583 1.235 . S
C581 O584 1.238 . S
C581 O585 1.241 . S
C582 O575 1.247 . S
C582 O576 1.261 . S
C583 O578 1.259 . S
C583 O580 1.235 . S
O584 Co574 2.021 . S
O584 C581 1.238 . S
O585 Co579 2.052 . S
O585 C581 1.241 . S
O586 Co574 2.137 . S
O586 C577 1.247 . S
O587 Co574 2.244 . S
O587 C577 1.272 . S
O587 Co579 2.135 . S
Co588 O589 2.216 . S
Co588 O590 2.091 . S
Co588 O592 2.004 . S
Co588 O598 2.021 . S
Co588 O600 2.137 . S
Co588 O601 2.244 . S
O589 Co588 2.216 . S
O589 C596 1.247 . S
O590 Co588 2.091 . S
O590 C596 1.261 . S
C591 O600 1.247 . S
C591 O601 1.272 . S
O592 Co588 2.004 . S
O592 C597 1.259 . S
Co593 O594 2.061 . S
Co593 O599 2.052 . S
Co593 O601 2.135 . S
O594 Co593 2.061 . S
O594 C597 1.235 . S
C595 O598 1.238 . S
C595 O599 1.241 . S
C596 O589 1.247 . S
C596 O590 1.261 . S
C597 O592 1.259 . S
C597 O594 1.235 . S
O598 Co588 2.021 . S
O598 C595 1.238 . S
O599 Co593 2.052 . S
O599 C595 1.241 . S
O600 Co588 2.137 . S
O600 C591 1.247 . S
O601 Co588 2.244 . S
O601 C591 1.272 . S
O601 Co593 2.135 . S
Co602 O603 2.216 . S
Co602 O604 2.091 . S
Co602 O606 2.004 . S
Co602 O612 2.021 . S
Co602 O614 2.137 . S
Co602 O615 2.244 . S
O603 Co602 2.216 . S
O603 C610 1.247 . S
O604 Co602 2.091 . S
O604 C610 1.261 . S
C605 O614 1.247 . S
C605 O615 1.272 . S
O606 Co602 2.004 . S
O606 C611 1.259 . S
Co607 O608 2.061 . S
Co607 O613 2.052 . S
Co607 O615 2.135 . S
O608 Co607 2.061 . S
O608 C611 1.235 . S
C609 O612 1.238 . S
C609 O613 1.241 . S
C610 O603 1.247 . S
C610 O604 1.261 . S
C611 O606 1.259 . S
C611 O608 1.235 . S
O612 Co602 2.021 . S
O612 C609 1.238 . S
O613 Co607 2.052 . S
O613 C609 1.241 . S
O614 Co602 2.137 . S
O614 C605 1.247 . S
O615 Co602 2.244 . S
O615 C605 1.272 . S
O615 Co607 2.135 . S
Co616 O617 2.216 . S
Co616 O618 2.091 . S
Co616 O620 2.004 . S
Co616 O626 2.021 . S
Co616 O628 2.137 . S
Co616 O629 2.244 . S
O617 Co616 2.216 . S
O617 C624 1.247 . S
O618 Co616 2.091 . S
O618 C624 1.261 . S
C619 O628 1.247 . S
C619 O629 1.272 . S
O620 Co616 2.004 . S
O620 C625 1.259 . S
Co621 O622 2.061 . S
Co621 O627 2.052 . S
Co621 O629 2.135 . S
O622 Co621 2.061 . S
O622 C625 1.235 . S
C623 O626 1.238 . S
C623 O627 1.241 . S
C624 O617 1.247 . S
C624 O618 1.261 . S
C625 O620 1.259 . S
C625 O622 1.235 . S
O626 Co616 2.021 . S
O626 C623 1.238 . S
O627 Co621 2.052 . S
O627 C623 1.241 . S
O628 Co616 2.137 . S
O628 C619 1.247 . S
O629 Co616 2.244 . S
O629 C619 1.272 . S
O629 Co621 2.135 . S
Co630 O631 2.216 . S
Co630 O632 2.091 . S
Co630 O634 2.004 . S
Co630 O640 2.021 . S
Co630 O642 2.137 . S
Co630 O643 2.244 . S
O631 Co630 2.216 . S
O631 C638 1.247 . S
O632 Co630 2.091 . S
O632 C638 1.261 . S
C633 O642 1.247 . S
C633 O643 1.272 . S
O634 Co630 2.004 . S
O634 C639 1.259 . S
Co635 O636 2.061 . S
Co635 O641 2.052 . S
Co635 O643 2.135 . S
O636 Co635 2.061 . S
O636 C639 1.235 . S
C637 O640 1.238 . S
C637 O641 1.241 . S
C638 O631 1.247 . S
C638 O632 1.261 . S
C639 O634 1.259 . S
C639 O636 1.235 . S
O640 Co630 2.021 . S
O640 C637 1.238 . S
O641 Co635 2.052 . S
O641 C637 1.241 . S
O642 Co630 2.137 . S
O642 C633 1.247 . S
O643 Co630 2.244 . S
O643 C633 1.272 . S
O643 Co635 2.135 . S
Co644 O645 2.216 . S
Co644 O646 2.091 . S
Co644 O648 2.004 . S
Co644 O654 2.021 . S
Co644 O656 2.137 . S
Co644 O657 2.244 . S
O645 Co644 2.216 . S
O645 C652 1.247 . S
O646 Co644 2.091 . S
O646 C652 1.261 . S
C647 O656 1.247 . S
C647 O657 1.272 . S
O648 Co644 2.004 . S
O648 C653 1.259 . S
Co649 O650 2.061 . S
Co649 O655 2.052 . S
Co649 O657 2.135 . S
O650 Co649 2.061 . S
O650 C653 1.235 . S
C651 O654 1.238 . S
C651 O655 1.241 . S
C652 O645 1.247 . S
C652 O646 1.261 . S
C653 O648 1.259 . S
C653 O650 1.235 . S
O654 Co644 2.021 . S
O654 C651 1.238 . S
O655 Co649 2.052 . S
O655 C651 1.241 . S
O656 Co644 2.137 . S
O656 C647 1.247 . S
O657 Co644 2.244 . S
O657 C647 1.272 . S
O657 Co649 2.135 . S
Co658 O659 2.216 . S
Co658 O660 2.091 . S
Co658 O662 2.004 . S
Co658 O668 2.021 . S
Co658 O670 2.137 . S
Co658 O671 2.244 . S
O659 Co658 2.216 . S
O659 C666 1.247 . S
O660 Co658 2.091 . S
O660 C666 1.261 . S
C661 O670 1.247 . S
C661 O671 1.272 . S
O662 Co658 2.004 . S
O662 C667 1.259 . S
Co663 O664 2.061 . S
Co663 O669 2.052 . S
Co663 O671 2.135 . S
O664 Co663 2.061 . S
O664 C667 1.235 . S
C665 O668 1.238 . S
C665 O669 1.241 . S
C666 O659 1.247 . S
C666 O660 1.261 . S
C667 O662 1.259 . S
C667 O664 1.235 . S
O668 Co658 2.021 . S
O668 C665 1.238 . S
O669 Co663 2.052 . S
O669 C665 1.241 . S
O670 Co658 2.137 . S
O670 C661 1.247 . S
O671 Co658 2.244 . S
O671 C661 1.272 . S
O671 Co663 2.135 . S
Co672 O673 2.216 . S
Co672 O674 2.091 . S
Co672 O676 2.004 . S
Co672 O682 2.021 . S
Co672 O684 2.137 . S
Co672 O685 2.244 . S
O673 Co672 2.216 . S
O673 C680 1.247 . S
O674 Co672 2.091 . S
O674 C680 1.261 . S
C675 O684 1.247 . S
C675 O685 1.272 . S
O676 Co672 2.004 . S
O676 C681 1.259 . S
Co677 O678 2.061 . S
Co677 O683 2.052 . S
Co677 O685 2.135 . S
O678 Co677 2.061 . S
O678 C681 1.235 . S
C679 O682 1.238 . S
C679 O683 1.241 . S
C680 O673 1.247 . S
C680 O674 1.261 . S
C681 O676 1.259 . S
C681 O678 1.235 . S
O682 Co672 2.021 . S
O682 C679 1.238 . S
O683 Co677 2.052 . S
O683 C679 1.241 . S
O684 Co672 2.137 . S
O684 C675 1.247 . S
O685 Co672 2.244 . S
O685 C675 1.272 . S
O685 Co677 2.135 . S
Co686 O687 2.216 . S
Co686 O688 2.091 . S
Co686 O690 2.004 . S
Co686 O696 2.021 . S
Co686 O698 2.137 . S
Co686 O699 2.244 . S
O687 Co686 2.216 . S
O687 C694 1.247 . S
O688 Co686 2.091 . S
O688 C694 1.261 . S
C689 O698 1.247 . S
C689 O699 1.272 . S
O690 Co686 2.004 . S
O690 C695 1.259 . S
Co691 O692 2.061 . S
Co691 O697 2.052 . S
Co691 O699 2.135 . S
O692 Co691 2.061 . S
O692 C695 1.235 . S
C693 O696 1.238 . S
C693 O697 1.241 . S
C694 O687 1.247 . S
C694 O688 1.261 . S
C695 O690 1.259 . S
C695 O692 1.235 . S
O696 Co686 2.021 . S
O696 C693 1.238 . S
O697 Co691 2.052 . S
O697 C693 1.241 . S
O698 Co686 2.137 . S
O698 C689 1.247 . S
O699 Co686 2.244 . S
O699 C689 1.272 . S
O699 Co691 2.135 . S
Co700 O701 2.216 . S
Co700 O702 2.091 . S
Co700 O704 2.004 . S
Co700 O710 2.021 . S
Co700 O712 2.137 . S
Co700 O713 2.244 . S
O701 Co700 2.216 . S
O701 C708 1.247 . S
O702 Co700 2.091 . S
O702 C708 1.261 . S
C703 O712 1.247 . S
C703 O713 1.272 . S
O704 Co700 2.004 . S
O704 C709 1.259 . S
Co705 O706 2.061 . S
Co705 O711 2.052 . S
Co705 O713 2.135 . S
O706 Co705 2.061 . S
O706 C709 1.235 . S
C707 O710 1.238 . S
C707 O711 1.241 . S
C708 O701 1.247 . S
C708 O702 1.261 . S
C709 O704 1.259 . S
C709 O706 1.235 . S
O710 Co700 2.021 . S
O710 C707 1.238 . S
O711 Co705 2.052 . S
O711 C707 1.241 . S
O712 Co700 2.137 . S
O712 C703 1.247 . S
O713 Co700 2.244 . S
O713 C703 1.272 . S
O713 Co705 2.135 . S
Co714 O715 2.216 . S
Co714 O716 2.091 . S
Co714 O718 2.004 . S
Co714 O724 2.021 . S
Co714 O726 2.137 . S
Co714 O727 2.244 . S
O715 Co714 2.216 . S
O715 C722 1.247 . S
O716 Co714 2.091 . S
O716 C722 1.261 . S
C717 O726 1.247 . S
C717 O727 1.272 . S
O718 Co714 2.004 . S
O718 C723 1.259 . S
Co719 O720 2.061 . S
Co719 O725 2.052 . S
Co719 O727 2.135 . S
O720 Co719 2.061 . S
O720 C723 1.235 . S
C721 O724 1.238 . S
C721 O725 1.241 . S
C722 O715 1.247 . S
C722 O716 1.261 . S
C723 O718 1.259 . S
C723 O720 1.235 . S
O724 Co714 2.021 . S
O724 C721 1.238 . S
O725 Co719 2.052 . S
O725 C721 1.241 . S
O726 Co714 2.137 . S
O726 C717 1.247 . S
O727 Co714 2.244 . S
O727 C717 1.272 . S
O727 Co719 2.135 . S
Co728 O729 2.216 . S
Co728 O730 2.091 . S
Co728 O732 2.004 . S
Co728 O738 2.021 . S
Co728 O740 2.137 . S
Co728 O741 2.244 . S
O729 Co728 2.216 . S
O729 C736 1.247 . S
O730 Co728 2.091 . S
O730 C736 1.261 . S
C731 O740 1.247 . S
C731 O741 1.272 . S
O732 Co728 2.004 . S
O732 C737 1.259 . S
Co733 O734 2.061 . S
Co733 O739 2.052 . S
Co733 O741 2.135 . S
O734 Co733 2.061 . S
O734 C737 1.235 . S
C735 O738 1.238 . S
C735 O739 1.241 . S
C736 O729 1.247 . S
C736 O730 1.261 . S
C737 O732 1.259 . S
C737 O734 1.235 . S
O738 Co728 2.021 . S
O738 C735 1.238 . S
O739 Co733 2.052 . S
O739 C735 1.241 . S
O740 Co728 2.137 . S
O740 C731 1.247 . S
O741 Co728 2.244 . S
O741 C731 1.272 . S
O741 Co733 2.135 . S
Co742 O743 2.216 . S
Co742 O744 2.091 . S
Co742 O746 2.004 . S
Co742 O752 2.021 . S
Co742 O754 2.137 . S
Co742 O755 2.244 . S
O743 Co742 2.216 . S
O743 C750 1.247 . S
O744 Co742 2.091 . S
O744 C750 1.261 . S
C745 O754 1.247 . S
C745 O755 1.272 . S
O746 Co742 2.004 . S
O746 C751 1.259 . S
Co747 O748 2.061 . S
Co747 O753 2.052 . S
Co747 O755 2.135 . S
O748 Co747 2.061 . S
O748 C751 1.235 . S
C749 O752 1.238 . S
C749 O753 1.241 . S
C750 O743 1.247 . S
C750 O744 1.261 . S
C751 O746 1.259 . S
C751 O748 1.235 . S
O752 Co742 2.021 . S
O752 C749 1.238 . S
O753 Co747 2.052 . S
O753 C749 1.241 . S
O754 Co742 2.137 . S
O754 C745 1.247 . S
O755 Co742 2.244 . S
O755 C745 1.272 . S
O755 Co747 2.135 . S
Co756 O757 2.216 . S
Co756 O758 2.091 . S
Co756 O760 2.004 . S
Co756 O766 2.021 . S
Co756 O768 2.137 . S
Co756 O769 2.244 . S
O757 Co756 2.216 . S
O757 C764 1.247 . S
O758 Co756 2.091 . S
O758 C764 1.261 . S
C759 O768 1.247 . S
C759 O769 1.272 . S
O760 Co756 2.004 . S
O760 C765 1.259 . S
Co761 O762 2.061 . S
Co761 O767 2.052 . S
Co761 O769 2.135 . S
O762 Co761 2.061 . S
O762 C765 1.235 . S
C763 O766 1.238 . S
C763 O767 1.241 . S
C764 O757 1.247 . S
C764 O758 1.261 . S
C765 O760 1.259 . S
C765 O762 1.235 . S
O766 Co756 2.021 . S
O766 C763 1.238 . S
O767 Co761 2.052 . S
O767 C763 1.241 . S
O768 Co756 2.137 . S
O768 C759 1.247 . S
O769 Co756 2.244 . S
O769 C759 1.272 . S
O769 Co761 2.135 . S
Co770 O771 2.216 . S
Co770 O772 2.091 . S
Co770 O774 2.004 . S
Co770 O780 2.021 . S
Co770 O782 2.137 . S
Co770 O783 2.244 . S
O771 Co770 2.216 . S
O771 C778 1.247 . S
O772 Co770 2.091 . S
O772 C778 1.261 . S
C773 O782 1.247 . S
C773 O783 1.272 . S
O774 Co770 2.004 . S
O774 C779 1.259 . S
Co775 O776 2.061 . S
Co775 O781 2.052 . S
Co775 O783 2.135 . S
O776 Co775 2.061 . S
O776 C779 1.235 . S
C777 O780 1.238 . S
C777 O781 1.241 . S
C778 O771 1.247 . S
C778 O772 1.261 . S
C779 O774 1.259 . S
C779 O776 1.235 . S
O780 Co770 2.021 . S
O780 C777 1.238 . S
O781 Co775 2.052 . S
O781 C777 1.241 . S
O782 Co770 2.137 . S
O782 C773 1.247 . S
O783 Co770 2.244 . S
O783 C773 1.272 . S
O783 Co775 2.135 . S
Co784 O785 2.216 . S
Co784 O786 2.091 . S
Co784 O788 2.004 . S
Co784 O794 2.021 . S
Co784 O796 2.137 . S
Co784 O797 2.244 . S
O785 Co784 2.216 . S
O785 C792 1.247 . S
O786 Co784 2.091 . S
O786 C792 1.261 . S
C787 O796 1.247 . S
C787 O797 1.272 . S
O788 Co784 2.004 . S
O788 C793 1.259 . S
Co789 O790 2.061 . S
Co789 O795 2.052 . S
Co789 O797 2.135 . S
O790 Co789 2.061 . S
O790 C793 1.235 . S
C791 O794 1.238 . S
C791 O795 1.241 . S
C792 O785 1.247 . S
C792 O786 1.261 . S
C793 O788 1.259 . S
C793 O790 1.235 . S
O794 Co784 2.021 . S
O794 C791 1.238 . S
O795 Co789 2.052 . S
O795 C791 1.241 . S
O796 Co784 2.137 . S
O796 C787 1.247 . S
O797 Co784 2.244 . S
O797 C787 1.272 . S
O797 Co789 2.135 . S
Co798 O799 2.216 . S
Co798 O800 2.091 . S
Co798 O802 2.004 . S
Co798 O808 2.021 . S
Co798 O810 2.137 . S
Co798 O811 2.244 . S
O799 Co798 2.216 . S
O799 C806 1.247 . S
O800 Co798 2.091 . S
O800 C806 1.261 . S
C801 O810 1.247 . S
C801 O811 1.272 . S
O802 Co798 2.004 . S
O802 C807 1.259 . S
Co803 O804 2.061 . S
Co803 O809 2.052 . S
Co803 O811 2.135 . S
O804 Co803 2.061 . S
O804 C807 1.235 . S
C805 O808 1.238 . S
C805 O809 1.241 . S
C806 O799 1.247 . S
C806 O800 1.261 . S
C807 O802 1.259 . S
C807 O804 1.235 . S
O808 Co798 2.021 . S
O808 C805 1.238 . S
O809 Co803 2.052 . S
O809 C805 1.241 . S
O810 Co798 2.137 . S
O810 C801 1.247 . S
O811 Co798 2.244 . S
O811 C801 1.272 . S
O811 Co803 2.135 . S
Co812 O813 2.216 . S
Co812 O814 2.091 . S
Co812 O816 2.004 . S
Co812 O822 2.021 . S
Co812 O824 2.137 . S
Co812 O825 2.244 . S
O813 Co812 2.216 . S
O813 C820 1.247 . S
O814 Co812 2.091 . S
O814 C820 1.261 . S
C815 O824 1.247 . S
C815 O825 1.272 . S
O816 Co812 2.004 . S
O816 C821 1.259 . S
Co817 O818 2.061 . S
Co817 O823 2.052 . S
Co817 O825 2.135 . S
O818 Co817 2.061 . S
O818 C821 1.235 . S
C819 O822 1.238 . S
C819 O823 1.241 . S
C820 O813 1.247 . S
C820 O814 1.261 . S
C821 O816 1.259 . S
C821 O818 1.235 . S
O822 Co812 2.021 . S
O822 C819 1.238 . S
O823 Co817 2.052 . S
O823 C819 1.241 . S
O824 Co812 2.137 . S
O824 C815 1.247 . S
O825 Co812 2.244 . S
O825 C815 1.272 . S
O825 Co817 2.135 . S
Co826 O827 2.216 . S
Co826 O828 2.091 . S
Co826 O830 2.004 . S
Co826 O836 2.021 . S
Co826 O838 2.137 . S
Co826 O839 2.244 . S
O827 Co826 2.216 . S
O827 C834 1.247 . S
O828 Co826 2.091 . S
O828 C834 1.261 . S
C829 O838 1.247 . S
C829 O839 1.272 . S
O830 Co826 2.004 . S
O830 C835 1.259 . S
Co831 O832 2.061 . S
Co831 O837 2.052 . S
Co831 O839 2.135 . S
O832 Co831 2.061 . S
O832 C835 1.235 . S
C833 O836 1.238 . S
C833 O837 1.241 . S
C834 O827 1.247 . S
C834 O828 1.261 . S
C835 O830 1.259 . S
C835 O832 1.235 . S
O836 Co826 2.021 . S
O836 C833 1.238 . S
O837 Co831 2.052 . S
O837 C833 1.241 . S
O838 Co826 2.137 . S
O838 C829 1.247 . S
O839 Co826 2.244 . S
O839 C829 1.272 . S
O839 Co831 2.135 . S
Co840 O841 2.216 . S
Co840 O842 2.091 . S
Co840 O844 2.004 . S
Co840 O850 2.021 . S
Co840 O852 2.137 . S
Co840 O853 2.244 . S
O841 Co840 2.216 . S
O841 C848 1.247 . S
O842 Co840 2.091 . S
O842 C848 1.261 . S
C843 O852 1.247 . S
C843 O853 1.272 . S
O844 Co840 2.004 . S
O844 C849 1.259 . S
Co845 O846 2.061 . S
Co845 O851 2.052 . S
Co845 O853 2.135 . S
O846 Co845 2.061 . S
O846 C849 1.235 . S
C847 O850 1.238 . S
C847 O851 1.241 . S
C848 O841 1.247 . S
C848 O842 1.261 . S
C849 O844 1.259 . S
C849 O846 1.235 . S
O850 Co840 2.021 . S
O850 C847 1.238 . S
O851 Co845 2.052 . S
O851 C847 1.241 . S
O852 Co840 2.137 . S
O852 C843 1.247 . S
O853 Co840 2.244 . S
O853 C843 1.272 . S
O853 Co845 2.135 . S
Co854 O855 2.216 . S
Co854 O856 2.091 . S
Co854 O858 2.004 . S
Co854 O864 2.021 . S
Co854 O866 2.137 . S
Co854 O867 2.244 . S
O855 Co854 2.216 . S
O855 C862 1.247 . S
O856 Co854 2.091 . S
O856 C862 1.261 . S
C857 O866 1.247 . S
C857 O867 1.272 . S
O858 Co854 2.004 . S
O858 C863 1.259 . S
Co859 O860 2.061 . S
Co859 O865 2.052 . S
Co859 O867 2.135 . S
O860 Co859 2.061 . S
O860 C863 1.235 . S
C861 O864 1.238 . S
C861 O865 1.241 . S
C862 O855 1.247 . S
C862 O856 1.261 . S
C863 O858 1.259 . S
C863 O860 1.235 . S
O864 Co854 2.021 . S
O864 C861 1.238 . S
O865 Co859 2.052 . S
O865 C861 1.241 . S
O866 Co854 2.137 . S
O866 C857 1.247 . S
O867 Co854 2.244 . S
O867 C857 1.272 . S
O867 Co859 2.135 . S
Co868 O869 2.216 . S
Co868 O870 2.091 . S
Co868 O872 2.004 . S
Co868 O878 2.021 . S
Co868 O880 2.137 . S
Co868 O881 2.244 . S
O869 Co868 2.216 . S
O869 C876 1.247 . S
O870 Co868 2.091 . S
O870 C876 1.261 . S
C871 O880 1.247 . S
C871 O881 1.272 . S
O872 Co868 2.004 . S
O872 C877 1.259 . S
Co873 O874 2.061 . S
Co873 O879 2.052 . S
Co873 O881 2.135 . S
O874 Co873 2.061 . S
O874 C877 1.235 . S
C875 O878 1.238 . S
C875 O879 1.241 . S
C876 O869 1.247 . S
C876 O870 1.261 . S
C877 O872 1.259 . S
C877 O874 1.235 . S
O878 Co868 2.021 . S
O878 C875 1.238 . S
O879 Co873 2.052 . S
O879 C875 1.241 . S
O880 Co868 2.137 . S
O880 C871 1.247 . S
O881 Co868 2.244 . S
O881 C871 1.272 . S
O881 Co873 2.135 . S
Co882 O883 2.216 . S
Co882 O884 2.091 . S
Co882 O886 2.004 . S
Co882 O892 2.021 . S
Co882 O894 2.137 . S
Co882 O895 2.244 . S
O883 Co882 2.216 . S
O883 C890 1.247 . S
O884 Co882 2.091 . S
O884 C890 1.261 . S
C885 O894 1.247 . S
C885 O895 1.272 . S
O886 Co882 2.004 . S
O886 C891 1.259 . S
Co887 O888 2.061 . S
Co887 O893 2.052 . S
Co887 O895 2.135 . S
O888 Co887 2.061 . S
O888 C891 1.235 . S
C889 O892 1.238 . S
C889 O893 1.241 . S
C890 O883 1.247 . S
C890 O884 1.261 . S
C891 O886 1.259 . S
C891 O888 1.235 . S
O892 Co882 2.021 . S
O892 C889 1.238 . S
O893 Co887 2.052 . S
O893 C889 1.241 . S
O894 Co882 2.137 . S
O894 C885 1.247 . S
O895 Co882 2.244 . S
O895 C885 1.272 . S
O895 Co887 2.135 . S
Co896 O897 2.216 . S
Co896 O898 2.091 . S
Co896 O900 2.004 . S
Co896 O906 2.021 . S
Co896 O908 2.137 . S
Co896 O909 2.244 . S
O897 Co896 2.216 . S
O897 C904 1.247 . S
O898 Co896 2.091 . S
O898 C904 1.261 . S
C899 O908 1.247 . S
C899 O909 1.272 . S
O900 Co896 2.004 . S
O900 C905 1.259 . S
Co901 O902 2.061 . S
Co901 O907 2.052 . S
Co901 O909 2.135 . S
O902 Co901 2.061 . S
O902 C905 1.235 . S
C903 O906 1.238 . S
C903 O907 1.241 . S
C904 O897 1.247 . S
C904 O898 1.261 . S
C905 O900 1.259 . S
C905 O902 1.235 . S
O906 Co896 2.021 . S
O906 C903 1.238 . S
O907 Co901 2.052 . S
O907 C903 1.241 . S
O908 Co896 2.137 . S
O908 C899 1.247 . S
O909 Co896 2.244 . S
O909 C899 1.272 . S
O909 Co901 2.135 . S
Co910 O911 2.216 . S
Co910 O912 2.091 . S
Co910 O914 2.004 . S
Co910 O920 2.021 . S
Co910 O922 2.137 . S
Co910 O923 2.244 . S
O911 Co910 2.216 . S
O911 C918 1.247 . S
O912 Co910 2.091 . S
O912 C918 1.261 . S
C913 O922 1.247 . S
C913 O923 1.272 . S
O914 Co910 2.004 . S
O914 C919 1.259 . S
Co915 O916 2.061 . S
Co915 O921 2.052 . S
Co915 O923 2.135 . S
O916 Co915 2.061 . S
O916 C919 1.235 . S
C917 O920 1.238 . S
C917 O921 1.241 . S
C918 O911 1.247 . S
C918 O912 1.261 . S
C919 O914 1.259 . S
C919 O916 1.235 . S
O920 Co910 2.021 . S
O920 C917 1.238 . S
O921 Co915 2.052 . S
O921 C917 1.241 . S
O922 Co910 2.137 . S
O922 C913 1.247 . S
O923 Co910 2.244 . S
O923 C913 1.272 . S
O923 Co915 2.135 . S
Co924 O925 2.216 . S
Co924 O926 2.091 . S
Co924 O928 2.004 . S
Co924 O934 2.021 . S
Co924 O936 2.137 . S
Co924 O937 2.244 . S
O925 Co924 2.216 . S
O925 C932 1.247 . S
O926 Co924 2.091 . S
O926 C932 1.261 . S
C927 O936 1.247 . S
C927 O937 1.272 . S
O928 Co924 2.004 . S
O928 C933 1.259 . S
Co929 O930 2.061 . S
Co929 O935 2.052 . S
Co929 O937 2.135 . S
O930 Co929 2.061 . S
O930 C933 1.235 . S
C931 O934 1.238 . S
C931 O935 1.241 . S
C932 O925 1.247 . S
C932 O926 1.261 . S
C933 O928 1.259 . S
C933 O930 1.235 . S
O934 Co924 2.021 . S
O934 C931 1.238 . S
O935 Co929 2.052 . S
O935 C931 1.241 . S
O936 Co924 2.137 . S
O936 C927 1.247 . S
O937 Co924 2.244 . S
O937 C927 1.272 . S
O937 Co929 2.135 . S
Co938 O939 2.216 . S
Co938 O940 2.091 . S
Co938 O942 2.004 . S
Co938 O948 2.021 . S
Co938 O950 2.137 . S
Co938 O951 2.244 . S
O939 Co938 2.216 . S
O939 C946 1.247 . S
O940 Co938 2.091 . S
O940 C946 1.261 . S
C941 O950 1.247 . S
C941 O951 1.272 . S
O942 Co938 2.004 . S
O942 C947 1.259 . S
Co943 O944 2.061 . S
Co943 O949 2.052 . S
Co943 O951 2.135 . S
O944 Co943 2.061 . S
O944 C947 1.235 . S
C945 O948 1.238 . S
C945 O949 1.241 . S
C946 O939 1.247 . S
C946 O940 1.261 . S
C947 O942 1.259 . S
C947 O944 1.235 . S
O948 Co938 2.021 . S
O948 C945 1.238 . S
O949 Co943 2.052 . S
O949 C945 1.241 . S
O950 Co938 2.137 . S
O950 C941 1.247 . S
O951 Co938 2.244 . S
O951 C941 1.272 . S
O951 Co943 2.135 . S
Co952 O953 2.216 . S
Co952 O954 2.091 . S
Co952 O956 2.004 . S
Co952 O962 2.021 . S
Co952 O964 2.137 . S
Co952 O965 2.244 . S
O953 Co952 2.216 . S
O953 C960 1.247 . S
O954 Co952 2.091 . S
O954 C960 1.261 . S
C955 O964 1.247 . S
C955 O965 1.272 . S
O956 Co952 2.004 . S
O956 C961 1.259 . S
Co957 O958 2.061 . S
Co957 O963 2.052 . S
Co957 O965 2.135 . S
O958 Co957 2.061 . S
O958 C961 1.235 . S
C959 O962 1.238 . S
C959 O963 1.241 . S
C960 O953 1.247 . S
C960 O954 1.261 . S
C961 O956 1.259 . S
C961 O958 1.235 . S
O962 Co952 2.021 . S
O962 C959 1.238 . S
O963 Co957 2.052 . S
O963 C959 1.241 . S
O964 Co952 2.137 . S
O964 C955 1.247 . S
O965 Co952 2.244 . S
O965 C955 1.272 . S
O965 Co957 2.135 . S
Co966 O967 2.216 . S
Co966 O968 2.091 . S
Co966 O970 2.004 . S
Co966 O976 2.021 . S
Co966 O978 2.137 . S
Co966 O979 2.244 . S
O967 Co966 2.216 . S
O967 C974 1.247 . S
O968 Co966 2.091 . S
O968 C974 1.261 . S
C969 O978 1.247 . S
C969 O979 1.272 . S
O970 Co966 2.004 . S
O970 C975 1.259 . S
Co971 O972 2.061 . S
Co971 O977 2.052 . S
Co971 O979 2.135 . S
O972 Co971 2.061 . S
O972 C975 1.235 . S
C973 O976 1.238 . S
C973 O977 1.241 . S
C974 O967 1.247 . S
C974 O968 1.261 . S
C975 O970 1.259 . S
C975 O972 1.235 . S
O976 Co966 2.021 . S
O976 C973 1.238 . S
O977 Co971 2.052 . S
O977 C973 1.241 . S
O978 Co966 2.137 . S
O978 C969 1.247 . S
O979 Co966 2.244 . S
O979 C969 1.272 . S
O979 Co971 2.135 . S
Co980 O981 2.216 . S
Co980 O982 2.091 . S
Co980 O984 2.004 . S
Co980 O990 2.021 . S
Co980 O992 2.137 . S
Co980 O993 2.244 . S
O981 Co980 2.216 . S
O981 C988 1.247 . S
O982 Co980 2.091 . S
O982 C988 1.261 . S
C983 O992 1.247 . S
C983 O993 1.272 . S
O984 Co980 2.004 . S
O984 C989 1.259 . S
Co985 O986 2.061 . S
Co985 O991 2.052 . S
Co985 O993 2.135 . S
O986 Co985 2.061 . S
O986 C989 1.235 . S
C987 O990 1.238 . S
C987 O991 1.241 . S
C988 O981 1.247 . S
C988 O982 1.261 . S
C989 O984 1.259 . S
C989 O986 1.235 . S
O990 Co980 2.021 . S
O990 C987 1.238 . S
O991 Co985 2.052 . S
O991 C987 1.241 . S
O992 Co980 2.137 . S
O992 C983 1.247 . S
O993 Co980 2.244 . S
O993 C983 1.272 . S
O993 Co985 2.135 . S
Co994 O995 2.216 . S
Co994 O996 2.091 . S
Co994 O998 2.004 . S
Co994 O1004 2.021 . S
Co994 O1006 2.137 . S
Co994 O1007 2.244 . S
O995 Co994 2.216 . S
O995 C1002 1.247 . S
O996 Co994 2.091 . S
O996 C1002 1.261 . S
C997 O1006 1.247 . S
C997 O1007 1.272 . S
O998 Co994 2.004 . S
O998 C1003 1.259 . S
Co999 O1000 2.061 . S
Co999 O1005 2.052 . S
Co999 O1007 2.135 . S
O1000 Co999 2.061 . S
O1000 C1003 1.235 . S
C1001 O1004 1.238 . S
C1001 O1005 1.241 . S
C1002 O995 1.247 . S
C1002 O996 1.261 . S
C1003 O998 1.259 . S
C1003 O1000 1.235 . S
O1004 Co994 2.021 . S
O1004 C1001 1.238 . S
O1005 Co999 2.052 . S
O1005 C1001 1.241 . S
O1006 Co994 2.137 . S
O1006 C997 1.247 . S
O1007 Co994 2.244 . S
O1007 C997 1.272 . S
O1007 Co999 2.135 . S
Co1008 O1009 2.216 . S
Co1008 O1010 2.091 . S
Co1008 O1012 2.004 . S
Co1008 O1018 2.021 . S
Co1008 O1020 2.137 . S
Co1008 O1021 2.244 . S
O1009 Co1008 2.216 . S
O1009 C1016 1.247 . S
O1010 Co1008 2.091 . S
O1010 C1016 1.261 . S
C1011 O1020 1.247 . S
C1011 O1021 1.272 . S
O1012 Co1008 2.004 . S
O1012 C1017 1.259 . S
Co1013 O1014 2.061 . S
Co1013 O1019 2.052 . S
Co1013 O1021 2.135 . S
O1014 Co1013 2.061 . S
O1014 C1017 1.235 . S
C1015 O1018 1.238 . S
C1015 O1019 1.241 . S
C1016 O1009 1.247 . S
C1016 O1010 1.261 . S
C1017 O1012 1.259 . S
C1017 O1014 1.235 . S
O1018 Co1008 2.021 . S
O1018 C1015 1.238 . S
O1019 Co1013 2.052 . S
O1019 C1015 1.241 . S
O1020 Co1008 2.137 . S
O1020 C1011 1.247 . S
O1021 Co1008 2.244 . S
O1021 C1011 1.272 . S
O1021 Co1013 2.135 . S
Co1022 O1023 2.216 . S
Co1022 O1024 2.091 . S
Co1022 O1026 2.004 . S
Co1022 O1032 2.021 . S
Co1022 O1034 2.137 . S
Co1022 O1035 2.244 . S
O1023 Co1022 2.216 . S
O1023 C1030 1.247 . S
O1024 Co1022 2.091 . S
O1024 C1030 1.261 . S
C1025 O1034 1.247 . S
C1025 O1035 1.272 . S
O1026 Co1022 2.004 . S
O1026 C1031 1.259 . S
Co1027 O1028 2.061 . S
Co1027 O1033 2.052 . S
Co1027 O1035 2.135 . S
O1028 Co1027 2.061 . S
O1028 C1031 1.235 . S
C1029 O1032 1.238 . S
C1029 O1033 1.241 . S
C1030 O1023 1.247 . S
C1030 O1024 1.261 . S
C1031 O1026 1.259 . S
C1031 O1028 1.235 . S
O1032 Co1022 2.021 . S
O1032 C1029 1.238 . S
O1033 Co1027 2.052 . S
O1033 C1029 1.241 . S
O1034 Co1022 2.137 . S
O1034 C1025 1.247 . S
O1035 Co1022 2.244 . S
O1035 C1025 1.272 . S
O1035 Co1027 2.135 . S
Co1036 O1037 2.216 . S
Co1036 O1038 2.091 . S
Co1036 O1040 2.004 . S
Co1036 O1046 2.021 . S
Co1036 O1048 2.137 . S
Co1036 O1049 2.244 . S
O1037 Co1036 2.216 . S
O1037 C1044 1.247 . S
O1038 Co1036 2.091 . S
O1038 C1044 1.261 . S
C1039 O1048 1.247 . S
C1039 O1049 1.272 . S
O1040 Co1036 2.004 . S
O1040 C1045 1.259 . S
Co1041 O1042 2.061 . S
Co1041 O1047 2.052 . S
Co1041 O1049 2.135 . S
O1042 Co1041 2.061 . S
O1042 C1045 1.235 . S
C1043 O1046 1.238 . S
C1043 O1047 1.241 . S
C1044 O1037 1.247 . S
C1044 O1038 1.261 . S
C1045 O1040 1.259 . S
C1045 O1042 1.235 . S
O1046 Co1036 2.021 . S
O1046 C1043 1.238 . S
O1047 Co1041 2.052 . S
O1047 C1043 1.241 . S
O1048 Co1036 2.137 . S
O1048 C1039 1.247 . S
O1049 Co1036 2.244 . S
O1049 C1039 1.272 . S
O1049 Co1041 2.135 . S
Co1050 O1051 2.216 . S
Co1050 O1052 2.091 . S
Co1050 O1054 2.004 . S
Co1050 O1060 2.021 . S
Co1050 O1062 2.137 . S
Co1050 O1063 2.244 . S
O1051 Co1050 2.216 . S
O1051 C1058 1.247 . S
O1052 Co1050 2.091 . S
O1052 C1058 1.261 . S
C1053 O1062 1.247 . S
C1053 O1063 1.272 . S
O1054 Co1050 2.004 . S
O1054 C1059 1.259 . S
Co1055 O1056 2.061 . S
Co1055 O1061 2.052 . S
Co1055 O1063 2.135 . S
O1056 Co1055 2.061 . S
O1056 C1059 1.235 . S
C1057 O1060 1.238 . S
C1057 O1061 1.241 . S
C1058 O1051 1.247 . S
C1058 O1052 1.261 . S
C1059 O1054 1.259 . S
C1059 O1056 1.235 . S
O1060 Co1050 2.021 . S
O1060 C1057 1.238 . S
O1061 Co1055 2.052 . S
O1061 C1057 1.241 . S
O1062 Co1050 2.137 . S
O1062 C1053 1.247 . S
O1063 Co1050 2.244 . S
O1063 C1053 1.272 . S
O1063 Co1055 2.135 . S
Co1064 O1065 2.216 . S
Co1064 O1066 2.091 . S
Co1064 O1068 2.004 . S
Co1064 O1074 2.021 . S
Co1064 O1076 2.137 . S
Co1064 O1077 2.244 . S
O1065 Co1064 2.216 . S
O1065 C1072 1.247 . S
O1066 Co1064 2.091 . S
O1066 C1072 1.261 . S
C1067 O1076 1.247 . S
C1067 O1077 1.272 . S
O1068 Co1064 2.004 . S
O1068 C1073 1.259 . S
Co1069 O1070 2.061 . S
Co1069 O1075 2.052 . S
Co1069 O1077 2.135 . S
O1070 Co1069 2.061 . S
O1070 C1073 1.235 . S
C1071 O1074 1.238 . S
C1071 O1075 1.241 . S
C1072 O1065 1.247 . S
C1072 O1066 1.261 . S
C1073 O1068 1.259 . S
C1073 O1070 1.235 . S
O1074 Co1064 2.021 . S
O1074 C1071 1.238 . S
O1075 Co1069 2.052 . S
O1075 C1071 1.241 . S
O1076 Co1064 2.137 . S
O1076 C1067 1.247 . S
O1077 Co1064 2.244 . S
O1077 C1067 1.272 . S
O1077 Co1069 2.135 . S
Co1078 O1079 2.216 . S
Co1078 O1080 2.091 . S
Co1078 O1082 2.004 . S
Co1078 O1088 2.021 . S
Co1078 O1090 2.137 . S
Co1078 O1091 2.244 . S
O1079 Co1078 2.216 . S
O1079 C1086 1.247 . S
O1080 Co1078 2.091 . S
O1080 C1086 1.261 . S
C1081 O1090 1.247 . S
C1081 O1091 1.272 . S
O1082 Co1078 2.004 . S
O1082 C1087 1.259 . S
Co1083 O1084 2.061 . S
Co1083 O1089 2.052 . S
Co1083 O1091 2.135 . S
O1084 Co1083 2.061 . S
O1084 C1087 1.235 . S
C1085 O1088 1.238 . S
C1085 O1089 1.241 . S
C1086 O1079 1.247 . S
C1086 O1080 1.261 . S
C1087 O1082 1.259 . S
C1087 O1084 1.235 . S
O1088 Co1078 2.021 . S
O1088 C1085 1.238 . S
O1089 Co1083 2.052 . S
O1089 C1085 1.241 . S
O1090 Co1078 2.137 . S
O1090 C1081 1.247 . S
O1091 Co1078 2.244 . S
O1091 C1081 1.272 . S
O1091 Co1083 2.135 . S
Co1092 O1093 2.216 . S
Co1092 O1094 2.091 . S
Co1092 O1096 2.004 . S
Co1092 O1102 2.021 . S
Co1092 O1104 2.137 . S
Co1092 O1105 2.244 . S
O1093 Co1092 2.216 . S
O1093 C1100 1.247 . S
O1094 Co1092 2.091 . S
O1094 C1100 1.261 . S
C1095 O1104 1.247 . S
C1095 O1105 1.272 . S
O1096 Co1092 2.004 . S
O1096 C1101 1.259 . S
Co1097 O1098 2.061 . S
Co1097 O1103 2.052 . S
Co1097 O1105 2.135 . S
O1098 Co1097 2.061 . S
O1098 C1101 1.235 . S
C1099 O1102 1.238 . S
C1099 O1103 1.241 . S
C1100 O1093 1.247 . S
C1100 O1094 1.261 . S
C1101 O1096 1.259 . S
C1101 O1098 1.235 . S
O1102 Co1092 2.021 . S
O1102 C1099 1.238 . S
O1103 Co1097 2.052 . S
O1103 C1099 1.241 . S
O1104 Co1092 2.137 . S
O1104 C1095 1.247 . S
O1105 Co1092 2.244 . S
O1105 C1095 1.272 . S
O1105 Co1097 2.135 . S
Co1106 O1107 2.216 . S
Co1106 O1108 2.091 . S
Co1106 O1110 2.004 . S
Co1106 O1116 2.021 . S
Co1106 O1118 2.137 . S
Co1106 O1119 2.244 . S
O1107 Co1106 2.216 . S
O1107 C1114 1.247 . S
O1108 Co1106 2.091 . S
O1108 C1114 1.261 . S
C1109 O1118 1.247 . S
C1109 O1119 1.272 . S
O1110 Co1106 2.004 . S
O1110 C1115 1.259 . S
Co1111 O1112 2.061 . S
Co1111 O1117 2.052 . S
Co1111 O1119 2.135 . S
O1112 Co1111 2.061 . S
O1112 C1115 1.235 . S
C1113 O1116 1.238 . S
C1113 O1117 1.241 . S
C1114 O1107 1.247 . S
C1114 O1108 1.261 . S
C1115 O1110 1.259 . S
C1115 O1112 1.235 . S
O1116 Co1106 2.021 . S
O1116 C1113 1.238 . S
O1117 Co1111 2.052 . S
O1117 C1113 1.241 . S
O1118 Co1106 2.137 . S
O1118 C1109 1.247 . S
O1119 Co1106 2.244 . S
O1119 C1109 1.272 . S
O1119 Co1111 2.135 . S
Co1120 O1121 2.216 . S
Co1120 O1122 2.091 . S
Co1120 O1124 2.004 . S
Co1120 O1130 2.021 . S
Co1120 O1132 2.137 . S
Co1120 O1133 2.244 . S
O1121 Co1120 2.216 . S
O1121 C1128 1.247 . S
O1122 Co1120 2.091 . S
O1122 C1128 1.261 . S
C1123 O1132 1.247 . S
C1123 O1133 1.272 . S
O1124 Co1120 2.004 . S
O1124 C1129 1.259 . S
Co1125 O1126 2.061 . S
Co1125 O1131 2.052 . S
Co1125 O1133 2.135 . S
O1126 Co1125 2.061 . S
O1126 C1129 1.235 . S
C1127 O1130 1.238 . S
C1127 O1131 1.241 . S
C1128 O1121 1.247 . S
C1128 O1122 1.261 . S
C1129 O1124 1.259 . S
C1129 O1126 1.235 . S
O1130 Co1120 2.021 . S
O1130 C1127 1.238 . S
O1131 Co1125 2.052 . S
O1131 C1127 1.241 . S
O1132 Co1120 2.137 . S
O1132 C1123 1.247 . S
O1133 Co1120 2.244 . S
O1133 C1123 1.272 . S
O1133 Co1125 2.135 . S
Co1134 O1135 2.216 . S
Co1134 O1136 2.091 . S
Co1134 O1138 2.004 . S
Co1134 O1144 2.021 . S
Co1134 O1146 2.137 . S
Co1134 O1147 2.244 . S
O1135 Co1134 2.216 . S
O1135 C1142 1.247 . S
O1136 Co1134 2.091 . S
O1136 C1142 1.261 . S
C1137 O1146 1.247 . S
C1137 O1147 1.272 . S
O1138 Co1134 2.004 . S
O1138 C1143 1.259 . S
Co1139 O1140 2.061 . S
Co1139 O1145 2.052 . S
Co1139 O1147 2.135 . S
O1140 Co1139 2.061 . S
O1140 C1143 1.235 . S
C1141 O1144 1.238 . S
C1141 O1145 1.241 . S
C1142 O1135 1.247 . S
C1142 O1136 1.261 . S
C1143 O1138 1.259 . S
C1143 O1140 1.235 . S
O1144 Co1134 2.021 . S
O1144 C1141 1.238 . S
O1145 Co1139 2.052 . S
O1145 C1141 1.241 . S
O1146 Co1134 2.137 . S
O1146 C1137 1.247 . S
O1147 Co1134 2.244 . S
O1147 C1137 1.272 . S
O1147 Co1139 2.135 . S
Co1148 O1149 2.216 . S
Co1148 O1150 2.091 . S
Co1148 O1152 2.004 . S
Co1148 O1158 2.021 . S
Co1148 O1160 2.137 . S
Co1148 O1161 2.244 . S
O1149 Co1148 2.216 . S
O1149 C1156 1.247 . S
O1150 Co1148 2.091 . S
O1150 C1156 1.261 . S
C1151 O1160 1.247 . S
C1151 O1161 1.272 . S
O1152 Co1148 2.004 . S
O1152 C1157 1.259 . S
Co1153 O1154 2.061 . S
Co1153 O1159 2.052 . S
Co1153 O1161 2.135 . S
O1154 Co1153 2.061 . S
O1154 C1157 1.235 . S
C1155 O1158 1.238 . S
C1155 O1159 1.241 . S
C1156 O1149 1.247 . S
C1156 O1150 1.261 . S
C1157 O1152 1.259 . S
C1157 O1154 1.235 . S
O1158 Co1148 2.021 . S
O1158 C1155 1.238 . S
O1159 Co1153 2.052 . S
O1159 C1155 1.241 . S
O1160 Co1148 2.137 . S
O1160 C1151 1.247 . S
O1161 Co1148 2.244 . S
O1161 C1151 1.272 . S
O1161 Co1153 2.135 . S
Co1162 O1163 2.216 . S
Co1162 O1164 2.091 . S
Co1162 O1166 2.004 . S
Co1162 O1172 2.021 . S
Co1162 O1174 2.137 . S
Co1162 O1175 2.244 . S
O1163 Co1162 2.216 . S
O1163 C1170 1.247 . S
O1164 Co1162 2.091 . S
O1164 C1170 1.261 . S
C1165 O1174 1.247 . S
C1165 O1175 1.272 . S
O1166 Co1162 2.004 . S
O1166 C1171 1.259 . S
Co1167 O1168 2.061 . S
Co1167 O1173 2.052 . S
Co1167 O1175 2.135 . S
O1168 Co1167 2.061 . S
O1168 C1171 1.235 . S
C1169 O1172 1.238 . S
C1169 O1173 1.241 . S
C1170 O1163 1.247 . S
C1170 O1164 1.261 . S
C1171 O1166 1.259 . S
C1171 O1168 1.235 . S
O1172 Co1162 2.021 . S
O1172 C1169 1.238 . S
O1173 Co1167 2.052 . S
O1173 C1169 1.241 . S
O1174 Co1162 2.137 . S
O1174 C1165 1.247 . S
O1175 Co1162 2.244 . S
O1175 C1165 1.272 . S
O1175 Co1167 2.135 . S
Co1176 O1177 2.216 . S
Co1176 O1178 2.091 . S
Co1176 O1180 2.004 . S
Co1176 O1186 2.021 . S
Co1176 O1188 2.137 . S
Co1176 O1189 2.244 . S
O1177 Co1176 2.216 . S
O1177 C1184 1.247 . S
O1178 Co1176 2.091 . S
O1178 C1184 1.261 . S
C1179 O1188 1.247 . S
C1179 O1189 1.272 . S
O1180 Co1176 2.004 . S
O1180 C1185 1.259 . S
Co1181 O1182 2.061 . S
Co1181 O1187 2.052 . S
Co1181 O1189 2.135 . S
O1182 Co1181 2.061 . S
O1182 C1185 1.235 . S
C1183 O1186 1.238 . S
C1183 O1187 1.241 . S
C1184 O1177 1.247 . S
C1184 O1178 1.261 . S
C1185 O1180 1.259 . S
C1185 O1182 1.235 . S
O1186 Co1176 2.021 . S
O1186 C1183 1.238 . S
O1187 Co1181 2.052 . S
O1187 C1183 1.241 . S
O1188 Co1176 2.137 . S
O1188 C1179 1.247 . S
O1189 Co1176 2.244 . S
O1189 C1179 1.272 . S
O1189 Co1181 2.135 . S
Co1190 O1191 2.216 . S
Co1190 O1192 2.091 . S
Co1190 O1194 2.004 . S
Co1190 O1200 2.021 . S
Co1190 O1202 2.137 . S
Co1190 O1203 2.244 . S
O1191 Co1190 2.216 . S
O1191 C1198 1.247 . S
O1192 Co1190 2.091 . S
O1192 C1198 1.261 . S
C1193 O1202 1.247 . S
C1193 O1203 1.272 . S
O1194 Co1190 2.004 . S
O1194 C1199 1.259 . S
Co1195 O1196 2.061 . S
Co1195 O1201 2.052 . S
Co1195 O1203 2.135 . S
O1196 Co1195 2.061 . S
O1196 C1199 1.235 . S
C1197 O1200 1.238 . S
C1197 O1201 1.241 . S
C1198 O1191 1.247 . S
C1198 O1192 1.261 . S
C1199 O1194 1.259 . S
C1199 O1196 1.235 . S
O1200 Co1190 2.021 . S
O1200 C1197 1.238 . S
O1201 Co1195 2.052 . S
O1201 C1197 1.241 . S
O1202 Co1190 2.137 . S
O1202 C1193 1.247 . S
O1203 Co1190 2.244 . S
O1203 C1193 1.272 . S
O1203 Co1195 2.135 . S
Co1204 O1205 2.216 . S
Co1204 O1206 2.091 . S
Co1204 O1208 2.004 . S
Co1204 O1214 2.021 . S
Co1204 O1216 2.137 . S
Co1204 O1217 2.244 . S
O1205 Co1204 2.216 . S
O1205 C1212 1.247 . S
O1206 Co1204 2.091 . S
O1206 C1212 1.261 . S
C1207 O1216 1.247 . S
C1207 O1217 1.272 . S
O1208 Co1204 2.004 . S
O1208 C1213 1.259 . S
Co1209 O1210 2.061 . S
Co1209 O1215 2.052 . S
Co1209 O1217 2.135 . S
O1210 Co1209 2.061 . S
O1210 C1213 1.235 . S
C1211 O1214 1.238 . S
C1211 O1215 1.241 . S
C1212 O1205 1.247 . S
C1212 O1206 1.261 . S
C1213 O1208 1.259 . S
C1213 O1210 1.235 . S
O1214 Co1204 2.021 . S
O1214 C1211 1.238 . S
O1215 Co1209 2.052 . S
O1215 C1211 1.241 . S
O1216 Co1204 2.137 . S
O1216 C1207 1.247 . S
O1217 Co1204 2.244 . S
O1217 C1207 1.272 . S
O1217 Co1209 2.135 . S
Co1218 O1219 2.216 . S
Co1218 O1220 2.091 . S
Co1218 O1222 2.004 . S
Co1218 O1228 2.021 . S
Co1218 O1230 2.137 . S
Co1218 O1231 2.244 . S
O1219 Co1218 2.216 . S
O1219 C1226 1.247 . S
O1220 Co1218 2.091 . S
O1220 C1226 1.261 . S
C1221 O1230 1.247 . S
C1221 O1231 1.272 . S
O1222 Co1218 2.004 . S
O1222 C1227 1.259 . S
Co1223 O1224 2.061 . S
Co1223 O1229 2.052 . S
Co1223 O1231 2.135 . S
O1224 Co1223 2.061 . S
O1224 C1227 1.235 . S
C1225 O1228 1.238 . S
C1225 O1229 1.241 . S
C1226 O1219 1.247 . S
C1226 O1220 1.261 . S
C1227 O1222 1.259 . S
C1227 O1224 1.235 . S
O1228 Co1218 2.021 . S
O1228 C1225 1.238 . S
O1229 Co1223 2.052 . S
O1229 C1225 1.241 . S
O1230 Co1218 2.137 . S
O1230 C1221 1.247 . S
O1231 Co1218 2.244 . S
O1231 C1221 1.272 . S
O1231 Co1223 2.135 . S
Co1232 O1233 2.216 . S
Co1232 O1234 2.091 . S
Co1232 O1236 2.004 . S
Co1232 O1242 2.021 . S
Co1232 O1244 2.137 . S
Co1232 O1245 2.244 . S
O1233 Co1232 2.216 . S
O1233 C1240 1.247 . S
O1234 Co1232 2.091 . S
O1234 C1240 1.261 . S
C1235 O1244 1.247 . S
C1235 O1245 1.272 . S
O1236 Co1232 2.004 . S
O1236 C1241 1.259 . S
Co1237 O1238 2.061 . S
Co1237 O1243 2.052 . S
Co1237 O1245 2.135 . S
O1238 Co1237 2.061 . S
O1238 C1241 1.235 . S
C1239 O1242 1.238 . S
C1239 O1243 1.241 . S
C1240 O1233 1.247 . S
C1240 O1234 1.261 . S
C1241 O1236 1.259 . S
C1241 O1238 1.235 . S
O1242 Co1232 2.021 . S
O1242 C1239 1.238 . S
O1243 Co1237 2.052 . S
O1243 C1239 1.241 . S
O1244 Co1232 2.137 . S
O1244 C1235 1.247 . S
O1245 Co1232 2.244 . S
O1245 C1235 1.272 . S
O1245 Co1237 2.135 . S
Co1246 O1247 2.216 . S
Co1246 O1248 2.091 . S
Co1246 O1250 2.004 . S
Co1246 O1256 2.021 . S
Co1246 O1258 2.137 . S
Co1246 O1259 2.244 . S
O1247 Co1246 2.216 . S
O1247 C1254 1.247 . S
O1248 Co1246 2.091 . S
O1248 C1254 1.261 . S
C1249 O1258 1.247 . S
C1249 O1259 1.272 . S
O1250 Co1246 2.004 . S
O1250 C1255 1.259 . S
Co1251 O1252 2.061 . S
Co1251 O1257 2.052 . S
Co1251 O1259 2.135 . S
O1252 Co1251 2.061 . S
O1252 C1255 1.235 . S
C1253 O1256 1.238 . S
C1253 O1257 1.241 . S
C1254 O1247 1.247 . S
C1254 O1248 1.261 . S
C1255 O1250 1.259 . S
C1255 O1252 1.235 . S
O1256 Co1246 2.021 . S
O1256 C1253 1.238 . S
O1257 Co1251 2.052 . S
O1257 C1253 1.241 . S
O1258 Co1246 2.137 . S
O1258 C1249 1.247 . S
O1259 Co1246 2.244 . S
O1259 C1249 1.272 . S
O1259 Co1251 2.135 . S
Co1260 O1261 2.216 . S
Co1260 O1262 2.091 . S
Co1260 O1264 2.004 . S
Co1260 O1270 2.021 . S
Co1260 O1272 2.137 . S
Co1260 O1273 2.244 . S
O1261 Co1260 2.216 . S
O1261 C1268 1.247 . S
O1262 Co1260 2.091 . S
O1262 C1268 1.261 . S
C1263 O1272 1.247 . S
C1263 O1273 1.272 . S
O1264 Co1260 2.004 . S
O1264 C1269 1.259 . S
Co1265 O1266 2.061 . S
Co1265 O1271 2.052 . S
Co1265 O1273 2.135 . S
O1266 Co1265 2.061 . S
O1266 C1269 1.235 . S
C1267 O1270 1.238 . S
C1267 O1271 1.241 . S
C1268 O1261 1.247 . S
C1268 O1262 1.261 . S
C1269 O1264 1.259 . S
C1269 O1266 1.235 . S
O1270 Co1260 2.021 . S
O1270 C1267 1.238 . S
O1271 Co1265 2.052 . S
O1271 C1267 1.241 . S
O1272 Co1260 2.137 . S
O1272 C1263 1.247 . S
O1273 Co1260 2.244 . S
O1273 C1263 1.272 . S
O1273 Co1265 2.135 . S
Co1274 O1275 2.216 . S
Co1274 O1276 2.091 . S
Co1274 O1278 2.004 . S
Co1274 O1284 2.021 . S
Co1274 O1286 2.137 . S
Co1274 O1287 2.244 . S
O1275 Co1274 2.216 . S
O1275 C1282 1.247 . S
O1276 Co1274 2.091 . S
O1276 C1282 1.261 . S
C1277 O1286 1.247 . S
C1277 O1287 1.272 . S
O1278 Co1274 2.004 . S
O1278 C1283 1.259 . S
Co1279 O1280 2.061 . S
Co1279 O1285 2.052 . S
Co1279 O1287 2.135 . S
O1280 Co1279 2.061 . S
O1280 C1283 1.235 . S
C1281 O1284 1.238 . S
C1281 O1285 1.241 . S
C1282 O1275 1.247 . S
C1282 O1276 1.261 . S
C1283 O1278 1.259 . S
C1283 O1280 1.235 . S
O1284 Co1274 2.021 . S
O1284 C1281 1.238 . S
O1285 Co1279 2.052 . S
O1285 C1281 1.241 . S
O1286 Co1274 2.137 . S
O1286 C1277 1.247 . S
O1287 Co1274 2.244 . S
O1287 C1277 1.272 . S
O1287 Co1279 2.135 . S
Co1288 O1289 2.216 . S
Co1288 O1290 2.091 . S
Co1288 O1292 2.004 . S
Co1288 O1298 2.021 . S
Co1288 O1300 2.137 . S
Co1288 O1301 2.244 . S
O1289 Co1288 2.216 . S
O1289 C1296 1.247 . S
O1290 Co1288 2.091 . S
O1290 C1296 1.261 . S
C1291 O1300 1.247 . S
C1291 O1301 1.272 . S
O1292 Co1288 2.004 . S
O1292 C1297 1.259 . S
Co1293 O1294 2.061 . S
Co1293 O1299 2.052 . S
Co1293 O1301 2.135 . S
O1294 Co1293 2.061 . S
O1294 C1297 1.235 . S
C1295 O1298 1.238 . S
C1295 O1299 1.241 . S
C1296 O1289 1.247 . S
C1296 O1290 1.261 . S
C1297 O1292 1.259 . S
C1297 O1294 1.235 . S
O1298 Co1288 2.021 . S
O1298 C1295 1.238 . S
O1299 Co1293 2.052 . S
O1299 C1295 1.241 . S
O1300 Co1288 2.137 . S
O1300 C1291 1.247 . S
O1301 Co1288 2.244 . S
O1301 C1291 1.272 . S
O1301 Co1293 2.135 . S
Co1302 O1303 2.216 . S
Co1302 O1304 2.091 . S
Co1302 O1306 2.004 . S
Co1302 O1312 2.021 . S
Co1302 O1314 2.137 . S
Co1302 O1315 2.244 . S
O1303 Co1302 2.216 . S
O1303 C1310 1.247 . S
O1304 Co1302 2.091 . S
O1304 C1310 1.261 . S
C1305 O1314 1.247 . S
C1305 O1315 1.272 . S
O1306 Co1302 2.004 . S
O1306 C1311 1.259 . S
Co1307 O1308 2.061 . S
Co1307 O1313 2.052 . S
Co1307 O1315 2.135 . S
O1308 Co1307 2.061 . S
O1308 C1311 1.235 . S
C1309 O1312 1.238 . S
C1309 O1313 1.241 . S
C1310 O1303 1.247 . S
C1310 O1304 1.261 . S
C1311 O1306 1.259 . S
C1311 O1308 1.235 . S
O1312 Co1302 2.021 . S
O1312 C1309 1.238 . S
O1313 Co1307 2.052 . S
O1313 C1309 1.241 . S
O1314 Co1302 2.137 . S
O1314 C1305 1.247 . S
O1315 Co1302 2.244 . S
O1315 C1305 1.272 . S
O1315 Co1307 2.135 . S
Co1316 O1317 2.216 . S
Co1316 O1318 2.091 . S
Co1316 O1320 2.004 . S
Co1316 O1326 2.021 . S
Co1316 O1328 2.137 . S
Co1316 O1329 2.244 . S
O1317 Co1316 2.216 . S
O1317 C1324 1.247 . S
O1318 Co1316 2.091 . S
O1318 C1324 1.261 . S
C1319 O1328 1.247 . S
C1319 O1329 1.272 . S
O1320 Co1316 2.004 . S
O1320 C1325 1.259 . S
Co1321 O1322 2.061 . S
Co1321 O1327 2.052 . S
Co1321 O1329 2.135 . S
O1322 Co1321 2.061 . S
O1322 C1325 1.235 . S
C1323 O1326 1.238 . S
C1323 O1327 1.241 . S
C1324 O1317 1.247 . S
C1324 O1318 1.261 . S
C1325 O1320 1.259 . S
C1325 O1322 1.235 . S
O1326 Co1316 2.021 . S
O1326 C1323 1.238 . S
O1327 Co1321 2.052 . S
O1327 C1323 1.241 . S
O1328 Co1316 2.137 . S
O1328 C1319 1.247 . S
O1329 Co1316 2.244 . S
O1329 C1319 1.272 . S
O1329 Co1321 2.135 . S
Co1330 O1331 2.216 . S
Co1330 O1332 2.091 . S
Co1330 O1334 2.004 . S
Co1330 O1340 2.021 . S
Co1330 O1342 2.137 . S
Co1330 O1343 2.244 . S
O1331 Co1330 2.216 . S
O1331 C1338 1.247 . S
O1332 Co1330 2.091 . S
O1332 C1338 1.261 . S
C1333 O1342 1.247 . S
C1333 O1343 1.272 . S
O1334 Co1330 2.004 . S
O1334 C1339 1.259 . S
Co1335 O1336 2.061 . S
Co1335 O1341 2.052 . S
Co1335 O1343 2.135 . S
O1336 Co1335 2.061 . S
O1336 C1339 1.235 . S
C1337 O1340 1.238 . S
C1337 O1341 1.241 . S
C1338 O1331 1.247 . S
C1338 O1332 1.261 . S
C1339 O1334 1.259 . S
C1339 O1336 1.235 . S
O1340 Co1330 2.021 . S
O1340 C1337 1.238 . S
O1341 Co1335 2.052 . S
O1341 C1337 1.241 . S
O1342 Co1330 2.137 . S
O1342 C1333 1.247 . S
O1343 Co1330 2.244 . S
O1343 C1333 1.272 . S
O1343 Co1335 2.135 . S
H1344 C1352 0.950 . S
H1345 C1357 0.950 . S
H1346 C1354 0.950 . S
H1347 C1356 0.950 . S
H1348 C1358 0.950 . S
H1349 C1360 0.950 . S
H1350 C1362 0.950 . S
H1351 C1363 0.950 . S
C1352 H1344 0.950 . S
C1352 C1353 1.386 . S
C1352 C1354 1.391 . S
C1353 C1352 1.386 . S
C1353 C1357 1.393 . S
C1354 H1346 0.950 . S
C1354 C1352 1.391 . S
C1354 C1355 1.400 . S
C1355 C1354 1.400 . S
C1355 C1356 1.398 . S
C1355 C1361 1.491 . S
C1356 H1347 0.950 . S
C1356 C1355 1.398 . S
C1356 C1357 1.391 . S
C1357 H1345 0.950 . S
C1357 C1353 1.393 . S
C1357 C1356 1.391 . S
C1358 H1348 0.950 . S
C1358 C1359 1.386 . S
C1358 C1360 1.391 . S
C1359 C1358 1.386 . S
C1359 C1363 1.393 . S
C1360 H1349 0.950 . S
C1360 C1358 1.391 . S
C1360 C1361 1.400 . S
C1361 C1355 1.491 . S
C1361 C1360 1.400 . S
C1361 C1362 1.398 . S
C1362 H1350 0.950 . S
C1362 C1361 1.398 . S
C1362 C1363 1.391 . S
C1363 H1351 0.950 . S
C1363 C1359 1.393 . S
C1363 C1362 1.391 . S
H1364 C1372 0.950 . S
H1365 C1377 0.950 . S
H1366 C1374 0.950 . S
H1367 C1376 0.950 . S
H1368 C1378 0.950 . S
H1369 C1380 0.950 . S
H1370 C1382 0.950 . S
H1371 C1383 0.950 . S
C1372 H1364 0.950 . S
C1372 C1373 1.386 . S
C1372 C1374 1.391 . S
C1373 C1372 1.386 . S
C1373 C1377 1.393 . S
C1374 H1366 0.950 . S
C1374 C1372 1.391 . S
C1374 C1375 1.400 . S
C1375 C1374 1.400 . S
C1375 C1376 1.398 . S
C1375 C1381 1.491 . S
C1376 H1367 0.950 . S
C1376 C1375 1.398 . S
C1376 C1377 1.391 . S
C1377 H1365 0.950 . S
C1377 C1373 1.393 . S
C1377 C1376 1.391 . S
C1378 H1368 0.950 . S
C1378 C1379 1.386 . S
C1378 C1380 1.391 . S
C1379 C1378 1.386 . S
C1379 C1383 1.393 . S
C1380 H1369 0.950 . S
C1380 C1378 1.391 . S
C1380 C1381 1.400 . S
C1381 C1375 1.491 . S
C1381 C1380 1.400 . S
C1381 C1382 1.398 . S
C1382 H1370 0.950 . S
C1382 C1381 1.398 . S
C1382 C1383 1.391 . S
C1383 H1371 0.950 . S
C1383 C1379 1.393 . S
C1383 C1382 1.391 . S
H1384 C1392 0.950 . S
H1385 C1397 0.950 . S
H1386 C1394 0.950 . S
H1387 C1396 0.950 . S
H1388 C1398 0.950 . S
H1389 C1400 0.950 . S
H1390 C1402 0.950 . S
H1391 C1403 0.950 . S
C1392 H1384 0.950 . S
C1392 C1393 1.386 . S
C1392 C1394 1.391 . S
C1393 C1392 1.386 . S
C1393 C1397 1.393 . S
C1394 H1386 0.950 . S
C1394 C1392 1.391 . S
C1394 C1395 1.400 . S
C1395 C1394 1.400 . S
C1395 C1396 1.398 . S
C1395 C1401 1.491 . S
C1396 H1387 0.950 . S
C1396 C1395 1.398 . S
C1396 C1397 1.391 . S
C1397 H1385 0.950 . S
C1397 C1393 1.393 . S
C1397 C1396 1.391 . S
C1398 H1388 0.950 . S
C1398 C1399 1.386 . S
C1398 C1400 1.391 . S
C1399 C1398 1.386 . S
C1399 C1403 1.393 . S
C1400 H1389 0.950 . S
C1400 C1398 1.391 . S
C1400 C1401 1.400 . S
C1401 C1395 1.491 . S
C1401 C1400 1.400 . S
C1401 C1402 1.398 . S
C1402 H1390 0.950 . S
C1402 C1401 1.398 . S
C1402 C1403 1.391 . S
C1403 H1391 0.950 . S
C1403 C1399 1.393 . S
C1403 C1402 1.391 . S
H1404 C1412 0.950 . S
H1405 C1417 0.950 . S
H1406 C1414 0.950 . S
H1407 C1416 0.950 . S
H1408 C1418 0.950 . S
H1409 C1420 0.950 . S
H1410 C1422 0.950 . S
H1411 C1423 0.950 . S
C1412 H1404 0.950 . S
C1412 C1413 1.386 . S
C1412 C1414 1.391 . S
C1413 C1412 1.386 . S
C1413 C1417 1.393 . S
C1414 H1406 0.950 . S
C1414 C1412 1.391 . S
C1414 C1415 1.400 . S
C1415 C1414 1.400 . S
C1415 C1416 1.398 . S
C1415 C1421 1.491 . S
C1416 H1407 0.950 . S
C1416 C1415 1.398 . S
C1416 C1417 1.391 . S
C1417 H1405 0.950 . S
C1417 C1413 1.393 . S
C1417 C1416 1.391 . S
C1418 H1408 0.950 . S
C1418 C1419 1.386 . S
C1418 C1420 1.391 . S
C1419 C1418 1.386 . S
C1419 C1423 1.393 . S
C1420 H1409 0.950 . S
C1420 C1418 1.391 . S
C1420 C1421 1.400 . S
C1421 C1415 1.491 . S
C1421 C1420 1.400 . S
C1421 C1422 1.398 . S
C1422 H1410 0.950 . S
C1422 C1421 1.398 . S
C1422 C1423 1.391 . S
C1423 H1411 0.950 . S
C1423 C1419 1.393 . S
C1423 C1422 1.391 . S
H1424 C1432 0.950 . S
H1425 C1437 0.950 . S
H1426 C1434 0.950 . S
H1427 C1436 0.950 . S
H1428 C1438 0.950 . S
H1429 C1440 0.950 . S
H1430 C1442 0.950 . S
H1431 C1443 0.950 . S
C1432 H1424 0.950 . S
C1432 C1433 1.386 . S
C1432 C1434 1.391 . S
C1433 C1432 1.386 . S
C1433 C1437 1.393 . S
C1434 H1426 0.950 . S
C1434 C1432 1.391 . S
C1434 C1435 1.400 . S
C1435 C1434 1.400 . S
C1435 C1436 1.398 . S
C1435 C1441 1.491 . S
C1436 H1427 0.950 . S
C1436 C1435 1.398 . S
C1436 C1437 1.391 . S
C1437 H1425 0.950 . S
C1437 C1433 1.393 . S
C1437 C1436 1.391 . S
C1438 H1428 0.950 . S
C1438 C1439 1.386 . S
C1438 C1440 1.391 . S
C1439 C1438 1.386 . S
C1439 C1443 1.393 . S
C1440 H1429 0.950 . S
C1440 C1438 1.391 . S
C1440 C1441 1.400 . S
C1441 C1435 1.491 . S
C1441 C1440 1.400 . S
C1441 C1442 1.398 . S
C1442 H1430 0.950 . S
C1442 C1441 1.398 . S
C1442 C1443 1.391 . S
C1443 H1431 0.950 . S
C1443 C1439 1.393 . S
C1443 C1442 1.391 . S
H1444 C1452 0.950 . S
H1445 C1457 0.950 . S
H1446 C1454 0.950 . S
H1447 C1456 0.950 . S
H1448 C1458 0.950 . S
H1449 C1460 0.950 . S
H1450 C1462 0.950 . S
H1451 C1463 0.950 . S
C1452 H1444 0.950 . S
C1452 C1453 1.386 . S
C1452 C1454 1.391 . S
C1453 C1452 1.386 . S
C1453 C1457 1.393 . S
C1454 H1446 0.950 . S
C1454 C1452 1.391 . S
C1454 C1455 1.400 . S
C1455 C1454 1.400 . S
C1455 C1456 1.398 . S
C1455 C1461 1.491 . S
C1456 H1447 0.950 . S
C1456 C1455 1.398 . S
C1456 C1457 1.391 . S
C1457 H1445 0.950 . S
C1457 C1453 1.393 . S
C1457 C1456 1.391 . S
C1458 H1448 0.950 . S
C1458 C1459 1.386 . S
C1458 C1460 1.391 . S
C1459 C1458 1.386 . S
C1459 C1463 1.393 . S
C1460 H1449 0.950 . S
C1460 C1458 1.391 . S
C1460 C1461 1.400 . S
C1461 C1455 1.491 . S
C1461 C1460 1.400 . S
C1461 C1462 1.398 . S
C1462 H1450 0.950 . S
C1462 C1461 1.398 . S
C1462 C1463 1.391 . S
C1463 H1451 0.950 . S
C1463 C1459 1.393 . S
C1463 C1462 1.391 . S
H1464 C1472 0.950 . S
H1465 C1477 0.950 . S
H1466 C1474 0.950 . S
H1467 C1476 0.950 . S
H1468 C1478 0.950 . S
H1469 C1480 0.950 . S
H1470 C1482 0.950 . S
H1471 C1483 0.950 . S
C1472 H1464 0.950 . S
C1472 C1473 1.386 . S
C1472 C1474 1.391 . S
C1473 C1472 1.386 . S
C1473 C1477 1.393 . S
C1474 H1466 0.950 . S
C1474 C1472 1.391 . S
C1474 C1475 1.400 . S
C1475 C1474 1.400 . S
C1475 C1476 1.398 . S
C1475 C1481 1.491 . S
C1476 H1467 0.950 . S
C1476 C1475 1.398 . S
C1476 C1477 1.391 . S
C1477 H1465 0.950 . S
C1477 C1473 1.393 . S
C1477 C1476 1.391 . S
C1478 H1468 0.950 . S
C1478 C1479 1.386 . S
C1478 C1480 1.391 . S
C1479 C1478 1.386 . S
C1479 C1483 1.393 . S
C1480 H1469 0.950 . S
C1480 C1478 1.391 . S
C1480 C1481 1.400 . S
C1481 C1475 1.491 . S
C1481 C1480 1.400 . S
C1481 C1482 1.398 . S
C1482 H1470 0.950 . S
C1482 C1481 1.398 . S
C1482 C1483 1.391 . S
C1483 H1471 0.950 . S
C1483 C1479 1.393 . S
C1483 C1482 1.391 . S
H1484 C1492 0.950 . S
H1485 C1497 0.950 . S
H1486 C1494 0.950 . S
H1487 C1496 0.950 . S
H1488 C1498 0.950 . S
H1489 C1500 0.950 . S
H1490 C1502 0.950 . S
H1491 C1503 0.950 . S
C1492 H1484 0.950 . S
C1492 C1493 1.386 . S
C1492 C1494 1.391 . S
C1493 C1492 1.386 . S
C1493 C1497 1.393 . S
C1494 H1486 0.950 . S
C1494 C1492 1.391 . S
C1494 C1495 1.400 . S
C1495 C1494 1.400 . S
C1495 C1496 1.398 . S
C1495 C1501 1.491 . S
C1496 H1487 0.950 . S
C1496 C1495 1.398 . S
C1496 C1497 1.391 . S
C1497 H1485 0.950 . S
C1497 C1493 1.393 . S
C1497 C1496 1.391 . S
C1498 H1488 0.950 . S
C1498 C1499 1.386 . S
C1498 C1500 1.391 . S
C1499 C1498 1.386 . S
C1499 C1503 1.393 . S
C1500 H1489 0.950 . S
C1500 C1498 1.391 . S
C1500 C1501 1.400 . S
C1501 C1495 1.491 . S
C1501 C1500 1.400 . S
C1501 C1502 1.398 . S
C1502 H1490 0.950 . S
C1502 C1501 1.398 . S
C1502 C1503 1.391 . S
C1503 H1491 0.950 . S
C1503 C1499 1.393 . S
C1503 C1502 1.391 . S
H1504 C1512 0.950 . S
H1505 C1517 0.950 . S
H1506 C1514 0.950 . S
H1507 C1516 0.950 . S
H1508 C1518 0.950 . S
H1509 C1520 0.950 . S
H1510 C1522 0.950 . S
H1511 C1523 0.950 . S
C1512 H1504 0.950 . S
C1512 C1513 1.386 . S
C1512 C1514 1.391 . S
C1513 C1512 1.386 . S
C1513 C1517 1.393 . S
C1514 H1506 0.950 . S
C1514 C1512 1.391 . S
C1514 C1515 1.400 . S
C1515 C1514 1.400 . S
C1515 C1516 1.398 . S
C1515 C1521 1.491 . S
C1516 H1507 0.950 . S
C1516 C1515 1.398 . S
C1516 C1517 1.391 . S
C1517 H1505 0.950 . S
C1517 C1513 1.393 . S
C1517 C1516 1.391 . S
C1518 H1508 0.950 . S
C1518 C1519 1.386 . S
C1518 C1520 1.391 . S
C1519 C1518 1.386 . S
C1519 C1523 1.393 . S
C1520 H1509 0.950 . S
C1520 C1518 1.391 . S
C1520 C1521 1.400 . S
C1521 C1515 1.491 . S
C1521 C1520 1.400 . S
C1521 C1522 1.398 . S
C1522 H1510 0.950 . S
C1522 C1521 1.398 . S
C1522 C1523 1.391 . S
C1523 H1511 0.950 . S
C1523 C1519 1.393 . S
C1523 C1522 1.391 . S
H1524 C1532 0.950 . S
H1525 C1537 0.950 . S
H1526 C1534 0.950 . S
H1527 C1536 0.950 . S
H1528 C1538 0.950 . S
H1529 C1540 0.950 . S
H1530 C1542 0.950 . S
H1531 C1543 0.950 . S
C1532 H1524 0.950 . S
C1532 C1533 1.386 . S
C1532 C1534 1.391 . S
C1533 C1532 1.386 . S
C1533 C1537 1.393 . S
C1534 H1526 0.950 . S
C1534 C1532 1.391 . S
C1534 C1535 1.400 . S
C1535 C1534 1.400 . S
C1535 C1536 1.398 . S
C1535 C1541 1.491 . S
C1536 H1527 0.950 . S
C1536 C1535 1.398 . S
C1536 C1537 1.391 . S
C1537 H1525 0.950 . S
C1537 C1533 1.393 . S
C1537 C1536 1.391 . S
C1538 H1528 0.950 . S
C1538 C1539 1.386 . S
C1538 C1540 1.391 . S
C1539 C1538 1.386 . S
C1539 C1543 1.393 . S
C1540 H1529 0.950 . S
C1540 C1538 1.391 . S
C1540 C1541 1.400 . S
C1541 C1535 1.491 . S
C1541 C1540 1.400 . S
C1541 C1542 1.398 . S
C1542 H1530 0.950 . S
C1542 C1541 1.398 . S
C1542 C1543 1.391 . S
C1543 H1531 0.950 . S
C1543 C1539 1.393 . S
C1543 C1542 1.391 . S
H1544 C1552 0.950 . S
H1545 C1557 0.950 . S
H1546 C1554 0.950 . S
H1547 C1556 0.950 . S
H1548 C1558 0.950 . S
H1549 C1560 0.950 . S
H1550 C1562 0.950 . S
H1551 C1563 0.950 . S
C1552 H1544 0.950 . S
C1552 C1553 1.386 . S
C1552 C1554 1.391 . S
C1553 C1552 1.386 . S
C1553 C1557 1.393 . S
C1554 H1546 0.950 . S
C1554 C1552 1.391 . S
C1554 C1555 1.400 . S
C1555 C1554 1.400 . S
C1555 C1556 1.398 . S
C1555 C1561 1.491 . S
C1556 H1547 0.950 . S
C1556 C1555 1.398 . S
C1556 C1557 1.391 . S
C1557 H1545 0.950 . S
C1557 C1553 1.393 . S
C1557 C1556 1.391 . S
C1558 H1548 0.950 . S
C1558 C1559 1.386 . S
C1558 C1560 1.391 . S
C1559 C1558 1.386 . S
C1559 C1563 1.393 . S
C1560 H1549 0.950 . S
C1560 C1558 1.391 . S
C1560 C1561 1.400 . S
C1561 C1555 1.491 . S
C1561 C1560 1.400 . S
C1561 C1562 1.398 . S
C1562 H1550 0.950 . S
C1562 C1561 1.398 . S
C1562 C1563 1.391 . S
C1563 H1551 0.950 . S
C1563 C1559 1.393 . S
C1563 C1562 1.391 . S
H1564 C1572 0.950 . S
H1565 C1577 0.950 . S
H1566 C1574 0.950 . S
H1567 C1576 0.950 . S
H1568 C1578 0.950 . S
H1569 C1580 0.950 . S
H1570 C1582 0.950 . S
H1571 C1583 0.950 . S
C1572 H1564 0.950 . S
C1572 C1573 1.386 . S
C1572 C1574 1.391 . S
C1573 C1572 1.386 . S
C1573 C1577 1.393 . S
C1574 H1566 0.950 . S
C1574 C1572 1.391 . S
C1574 C1575 1.400 . S
C1575 C1574 1.400 . S
C1575 C1576 1.398 . S
C1575 C1581 1.491 . S
C1576 H1567 0.950 . S
C1576 C1575 1.398 . S
C1576 C1577 1.391 . S
C1577 H1565 0.950 . S
C1577 C1573 1.393 . S
C1577 C1576 1.391 . S
C1578 H1568 0.950 . S
C1578 C1579 1.386 . S
C1578 C1580 1.391 . S
C1579 C1578 1.386 . S
C1579 C1583 1.393 . S
C1580 H1569 0.950 . S
C1580 C1578 1.391 . S
C1580 C1581 1.400 . S
C1581 C1575 1.491 . S
C1581 C1580 1.400 . S
C1581 C1582 1.398 . S
C1582 H1570 0.950 . S
C1582 C1581 1.398 . S
C1582 C1583 1.391 . S
C1583 H1571 0.950 . S
C1583 C1579 1.393 . S
C1583 C1582 1.391 . S
H1584 C1592 0.950 . S
H1585 C1597 0.950 . S
H1586 C1594 0.950 . S
H1587 C1596 0.950 . S
H1588 C1598 0.950 . S
H1589 C1600 0.950 . S
H1590 C1602 0.950 . S
H1591 C1603 0.950 . S
C1592 H1584 0.950 . S
C1592 C1593 1.386 . S
C1592 C1594 1.391 . S
C1593 C1592 1.386 . S
C1593 C1597 1.393 . S
C1594 H1586 0.950 . S
C1594 C1592 1.391 . S
C1594 C1595 1.400 . S
C1595 C1594 1.400 . S
C1595 C1596 1.398 . S
C1595 C1601 1.491 . S
C1596 H1587 0.950 . S
C1596 C1595 1.398 . S
C1596 C1597 1.391 . S
C1597 H1585 0.950 . S
C1597 C1593 1.393 . S
C1597 C1596 1.391 . S
C1598 H1588 0.950 . S
C1598 C1599 1.386 . S
C1598 C1600 1.391 . S
C1599 C1598 1.386 . S
C1599 C1603 1.393 . S
C1600 H1589 0.950 . S
C1600 C1598 1.391 . S
C1600 C1601 1.400 . S
C1601 C1595 1.491 . S
C1601 C1600 1.400 . S
C1601 C1602 1.398 . S
C1602 H1590 0.950 . S
C1602 C1601 1.398 . S
C1602 C1603 1.391 . S
C1603 H1591 0.950 . S
C1603 C1599 1.393 . S
C1603 C1602 1.391 . S
H1604 C1612 0.950 . S
H1605 C1617 0.950 . S
H1606 C1614 0.950 . S
H1607 C1616 0.950 . S
H1608 C1618 0.950 . S
H1609 C1620 0.950 . S
H1610 C1622 0.950 . S
H1611 C1623 0.950 . S
C1612 H1604 0.950 . S
C1612 C1613 1.386 . S
C1612 C1614 1.391 . S
C1613 C1612 1.386 . S
C1613 C1617 1.393 . S
C1614 H1606 0.950 . S
C1614 C1612 1.391 . S
C1614 C1615 1.400 . S
C1615 C1614 1.400 . S
C1615 C1616 1.398 . S
C1615 C1621 1.491 . S
C1616 H1607 0.950 . S
C1616 C1615 1.398 . S
C1616 C1617 1.391 . S
C1617 H1605 0.950 . S
C1617 C1613 1.393 . S
C1617 C1616 1.391 . S
C1618 H1608 0.950 . S
C1618 C1619 1.386 . S
C1618 C1620 1.391 . S
C1619 C1618 1.386 . S
C1619 C1623 1.393 . S
C1620 H1609 0.950 . S
C1620 C1618 1.391 . S
C1620 C1621 1.400 . S
C1621 C1615 1.491 . S
C1621 C1620 1.400 . S
C1621 C1622 1.398 . S
C1622 H1610 0.950 . S
C1622 C1621 1.398 . S
C1622 C1623 1.391 . S
C1623 H1611 0.950 . S
C1623 C1619 1.393 . S
C1623 C1622 1.391 . S
H1624 C1632 0.950 . S
H1625 C1637 0.950 . S
H1626 C1634 0.950 . S
H1627 C1636 0.950 . S
H1628 C1638 0.950 . S
H1629 C1640 0.950 . S
H1630 C1642 0.950 . S
H1631 C1643 0.950 . S
C1632 H1624 0.950 . S
C1632 C1633 1.386 . S
C1632 C1634 1.391 . S
C1633 C1632 1.386 . S
C1633 C1637 1.393 . S
C1634 H1626 0.950 . S
C1634 C1632 1.391 . S
C1634 C1635 1.400 . S
C1635 C1634 1.400 . S
C1635 C1636 1.398 . S
C1635 C1641 1.491 . S
C1636 H1627 0.950 . S
C1636 C1635 1.398 . S
C1636 C1637 1.391 . S
C1637 H1625 0.950 . S
C1637 C1633 1.393 . S
C1637 C1636 1.391 . S
C1638 H1628 0.950 . S
C1638 C1639 1.386 . S
C1638 C1640 1.391 . S
C1639 C1638 1.386 . S
C1639 C1643 1.393 . S
C1640 H1629 0.950 . S
C1640 C1638 1.391 . S
C1640 C1641 1.400 . S
C1641 C1635 1.491 . S
C1641 C1640 1.400 . S
C1641 C1642 1.398 . S
C1642 H1630 0.950 . S
C1642 C1641 1.398 . S
C1642 C1643 1.391 . S
C1643 H1631 0.950 . S
C1643 C1639 1.393 . S
C1643 C1642 1.391 . S
H1644 C1652 0.950 . S
H1645 C1657 0.950 . S
H1646 C1654 0.950 . S
H1647 C1656 0.950 . S
H1648 C1658 0.950 . S
H1649 C1660 0.950 . S
H1650 C1662 0.950 . S
H1651 C1663 0.950 . S
C1652 H1644 0.950 . S
C1652 C1653 1.386 . S
C1652 C1654 1.391 . S
C1653 C1652 1.386 . S
C1653 C1657 1.393 . S
C1654 H1646 0.950 . S
C1654 C1652 1.391 . S
C1654 C1655 1.400 . S
C1655 C1654 1.400 . S
C1655 C1656 1.398 . S
C1655 C1661 1.491 . S
C1656 H1647 0.950 . S
C1656 C1655 1.398 . S
C1656 C1657 1.391 . S
C1657 H1645 0.950 . S
C1657 C1653 1.393 . S
C1657 C1656 1.391 . S
C1658 H1648 0.950 . S
C1658 C1659 1.386 . S
C1658 C1660 1.391 . S
C1659 C1658 1.386 . S
C1659 C1663 1.393 . S
C1660 H1649 0.950 . S
C1660 C1658 1.391 . S
C1660 C1661 1.400 . S
C1661 C1655 1.491 . S
C1661 C1660 1.400 . S
C1661 C1662 1.398 . S
C1662 H1650 0.950 . S
C1662 C1661 1.398 . S
C1662 C1663 1.391 . S
C1663 H1651 0.950 . S
C1663 C1659 1.393 . S
C1663 C1662 1.391 . S
H1664 C1672 0.950 . S
H1665 C1677 0.950 . S
H1666 C1674 0.950 . S
H1667 C1676 0.950 . S
H1668 C1678 0.950 . S
H1669 C1680 0.950 . S
H1670 C1682 0.950 . S
H1671 C1683 0.950 . S
C1672 H1664 0.950 . S
C1672 C1673 1.386 . S
C1672 C1674 1.391 . S
C1673 C1672 1.386 . S
C1673 C1677 1.393 . S
C1674 H1666 0.950 . S
C1674 C1672 1.391 . S
C1674 C1675 1.400 . S
C1675 C1674 1.400 . S
C1675 C1676 1.398 . S
C1675 C1681 1.491 . S
C1676 H1667 0.950 . S
C1676 C1675 1.398 . S
C1676 C1677 1.391 . S
C1677 H1665 0.950 . S
C1677 C1673 1.393 . S
C1677 C1676 1.391 . S
C1678 H1668 0.950 . S
C1678 C1679 1.386 . S
C1678 C1680 1.391 . S
C1679 C1678 1.386 . S
C1679 C1683 1.393 . S
C1680 H1669 0.950 . S
C1680 C1678 1.391 . S
C1680 C1681 1.400 . S
C1681 C1675 1.491 . S
C1681 C1680 1.400 . S
C1681 C1682 1.398 . S
C1682 H1670 0.950 . S
C1682 C1681 1.398 . S
C1682 C1683 1.391 . S
C1683 H1671 0.950 . S
C1683 C1679 1.393 . S
C1683 C1682 1.391 . S
H1684 C1692 0.950 . S
H1685 C1697 0.950 . S
H1686 C1694 0.950 . S
H1687 C1696 0.950 . S
H1688 C1698 0.950 . S
H1689 C1700 0.950 . S
H1690 C1702 0.950 . S
H1691 C1703 0.950 . S
C1692 H1684 0.950 . S
C1692 C1693 1.386 . S
C1692 C1694 1.391 . S
C1693 C1692 1.386 . S
C1693 C1697 1.393 . S
C1694 H1686 0.950 . S
C1694 C1692 1.391 . S
C1694 C1695 1.400 . S
C1695 C1694 1.400 . S
C1695 C1696 1.398 . S
C1695 C1701 1.491 . S
C1696 H1687 0.950 . S
C1696 C1695 1.398 . S
C1696 C1697 1.391 . S
C1697 H1685 0.950 . S
C1697 C1693 1.393 . S
C1697 C1696 1.391 . S
C1698 H1688 0.950 . S
C1698 C1699 1.386 . S
C1698 C1700 1.391 . S
C1699 C1698 1.386 . S
C1699 C1703 1.393 . S
C1700 H1689 0.950 . S
C1700 C1698 1.391 . S
C1700 C1701 1.400 . S
C1701 C1695 1.491 . S
C1701 C1700 1.400 . S
C1701 C1702 1.398 . S
C1702 H1690 0.950 . S
C1702 C1701 1.398 . S
C1702 C1703 1.391 . S
C1703 H1691 0.950 . S
C1703 C1699 1.393 . S
C1703 C1702 1.391 . S
H1704 C1712 0.950 . S
H1705 C1717 0.950 . S
H1706 C1714 0.950 . S
H1707 C1716 0.950 . S
H1708 C1718 0.950 . S
H1709 C1720 0.950 . S
H1710 C1722 0.950 . S
H1711 C1723 0.950 . S
C1712 H1704 0.950 . S
C1712 C1713 1.386 . S
C1712 C1714 1.391 . S
C1713 C1712 1.386 . S
C1713 C1717 1.393 . S
C1714 H1706 0.950 . S
C1714 C1712 1.391 . S
C1714 C1715 1.400 . S
C1715 C1714 1.400 . S
C1715 C1716 1.398 . S
C1715 C1721 1.491 . S
C1716 H1707 0.950 . S
C1716 C1715 1.398 . S
C1716 C1717 1.391 . S
C1717 H1705 0.950 . S
C1717 C1713 1.393 . S
C1717 C1716 1.391 . S
C1718 H1708 0.950 . S
C1718 C1719 1.386 . S
C1718 C1720 1.391 . S
C1719 C1718 1.386 . S
C1719 C1723 1.393 . S
C1720 H1709 0.950 . S
C1720 C1718 1.391 . S
C1720 C1721 1.400 . S
C1721 C1715 1.491 . S
C1721 C1720 1.400 . S
C1721 C1722 1.398 . S
C1722 H1710 0.950 . S
C1722 C1721 1.398 . S
C1722 C1723 1.391 . S
C1723 H1711 0.950 . S
C1723 C1719 1.393 . S
C1723 C1722 1.391 . S
H1724 C1732 0.950 . S
H1725 C1737 0.950 . S
H1726 C1734 0.950 . S
H1727 C1736 0.950 . S
H1728 C1738 0.950 . S
H1729 C1740 0.950 . S
H1730 C1742 0.950 . S
H1731 C1743 0.950 . S
C1732 H1724 0.950 . S
C1732 C1733 1.386 . S
C1732 C1734 1.391 . S
C1733 C1732 1.386 . S
C1733 C1737 1.393 . S
C1734 H1726 0.950 . S
C1734 C1732 1.391 . S
C1734 C1735 1.400 . S
C1735 C1734 1.400 . S
C1735 C1736 1.398 . S
C1735 C1741 1.491 . S
C1736 H1727 0.950 . S
C1736 C1735 1.398 . S
C1736 C1737 1.391 . S
C1737 H1725 0.950 . S
C1737 C1733 1.393 . S
C1737 C1736 1.391 . S
C1738 H1728 0.950 . S
C1738 C1739 1.386 . S
C1738 C1740 1.391 . S
C1739 C1738 1.386 . S
C1739 C1743 1.393 . S
C1740 H1729 0.950 . S
C1740 C1738 1.391 . S
C1740 C1741 1.400 . S
C1741 C1735 1.491 . S
C1741 C1740 1.400 . S
C1741 C1742 1.398 . S
C1742 H1730 0.950 . S
C1742 C1741 1.398 . S
C1742 C1743 1.391 . S
C1743 H1731 0.950 . S
C1743 C1739 1.393 . S
C1743 C1742 1.391 . S
H1744 C1752 0.950 . S
H1745 C1757 0.950 . S
H1746 C1754 0.950 . S
H1747 C1756 0.950 . S
H1748 C1758 0.950 . S
H1749 C1760 0.950 . S
H1750 C1762 0.950 . S
H1751 C1763 0.950 . S
C1752 H1744 0.950 . S
C1752 C1753 1.386 . S
C1752 C1754 1.391 . S
C1753 C1752 1.386 . S
C1753 C1757 1.393 . S
C1754 H1746 0.950 . S
C1754 C1752 1.391 . S
C1754 C1755 1.400 . S
C1755 C1754 1.400 . S
C1755 C1756 1.398 . S
C1755 C1761 1.491 . S
C1756 H1747 0.950 . S
C1756 C1755 1.398 . S
C1756 C1757 1.391 . S
C1757 H1745 0.950 . S
C1757 C1753 1.393 . S
C1757 C1756 1.391 . S
C1758 H1748 0.950 . S
C1758 C1759 1.386 . S
C1758 C1760 1.391 . S
C1759 C1758 1.386 . S
C1759 C1763 1.393 . S
C1760 H1749 0.950 . S
C1760 C1758 1.391 . S
C1760 C1761 1.400 . S
C1761 C1755 1.491 . S
C1761 C1760 1.400 . S
C1761 C1762 1.398 . S
C1762 H1750 0.950 . S
C1762 C1761 1.398 . S
C1762 C1763 1.391 . S
C1763 H1751 0.950 . S
C1763 C1759 1.393 . S
C1763 C1762 1.391 . S
H1764 C1772 0.950 . S
H1765 C1777 0.950 . S
H1766 C1774 0.950 . S
H1767 C1776 0.950 . S
H1768 C1778 0.950 . S
H1769 C1780 0.950 . S
H1770 C1782 0.950 . S
H1771 C1783 0.950 . S
C1772 H1764 0.950 . S
C1772 C1773 1.386 . S
C1772 C1774 1.391 . S
C1773 C1772 1.386 . S
C1773 C1777 1.393 . S
C1774 H1766 0.950 . S
C1774 C1772 1.391 . S
C1774 C1775 1.400 . S
C1775 C1774 1.400 . S
C1775 C1776 1.398 . S
C1775 C1781 1.491 . S
C1776 H1767 0.950 . S
C1776 C1775 1.398 . S
C1776 C1777 1.391 . S
C1777 H1765 0.950 . S
C1777 C1773 1.393 . S
C1777 C1776 1.391 . S
C1778 H1768 0.950 . S
C1778 C1779 1.386 . S
C1778 C1780 1.391 . S
C1779 C1778 1.386 . S
C1779 C1783 1.393 . S
C1780 H1769 0.950 . S
C1780 C1778 1.391 . S
C1780 C1781 1.400 . S
C1781 C1775 1.491 . S
C1781 C1780 1.400 . S
C1781 C1782 1.398 . S
C1782 H1770 0.950 . S
C1782 C1781 1.398 . S
C1782 C1783 1.391 . S
C1783 H1771 0.950 . S
C1783 C1779 1.393 . S
C1783 C1782 1.391 . S
H1784 C1792 0.950 . S
H1785 C1797 0.950 . S
H1786 C1794 0.950 . S
H1787 C1796 0.950 . S
H1788 C1798 0.950 . S
H1789 C1800 0.950 . S
H1790 C1802 0.950 . S
H1791 C1803 0.950 . S
C1792 H1784 0.950 . S
C1792 C1793 1.386 . S
C1792 C1794 1.391 . S
C1793 C1792 1.386 . S
C1793 C1797 1.393 . S
C1794 H1786 0.950 . S
C1794 C1792 1.391 . S
C1794 C1795 1.400 . S
C1795 C1794 1.400 . S
C1795 C1796 1.398 . S
C1795 C1801 1.491 . S
C1796 H1787 0.950 . S
C1796 C1795 1.398 . S
C1796 C1797 1.391 . S
C1797 H1785 0.950 . S
C1797 C1793 1.393 . S
C1797 C1796 1.391 . S
C1798 H1788 0.950 . S
C1798 C1799 1.386 . S
C1798 C1800 1.391 . S
C1799 C1798 1.386 . S
C1799 C1803 1.393 . S
C1800 H1789 0.950 . S
C1800 C1798 1.391 . S
C1800 C1801 1.400 . S
C1801 C1795 1.491 . S
C1801 C1800 1.400 . S
C1801 C1802 1.398 . S
C1802 H1790 0.950 . S
C1802 C1801 1.398 . S
C1802 C1803 1.391 . S
C1803 H1791 0.950 . S
C1803 C1799 1.393 . S
C1803 C1802 1.391 . S
H1804 C1812 0.950 . S
H1805 C1817 0.950 . S
H1806 C1814 0.950 . S
H1807 C1816 0.950 . S
H1808 C1818 0.950 . S
H1809 C1820 0.950 . S
H1810 C1822 0.950 . S
H1811 C1823 0.950 . S
C1812 H1804 0.950 . S
C1812 C1813 1.386 . S
C1812 C1814 1.391 . S
C1813 C1812 1.386 . S
C1813 C1817 1.393 . S
C1814 H1806 0.950 . S
C1814 C1812 1.391 . S
C1814 C1815 1.400 . S
C1815 C1814 1.400 . S
C1815 C1816 1.398 . S
C1815 C1821 1.491 . S
C1816 H1807 0.950 . S
C1816 C1815 1.398 . S
C1816 C1817 1.391 . S
C1817 H1805 0.950 . S
C1817 C1813 1.393 . S
C1817 C1816 1.391 . S
C1818 H1808 0.950 . S
C1818 C1819 1.386 . S
C1818 C1820 1.391 . S
C1819 C1818 1.386 . S
C1819 C1823 1.393 . S
C1820 H1809 0.950 . S
C1820 C1818 1.391 . S
C1820 C1821 1.400 . S
C1821 C1815 1.491 . S
C1821 C1820 1.400 . S
C1821 C1822 1.398 . S
C1822 H1810 0.950 . S
C1822 C1821 1.398 . S
C1822 C1823 1.391 . S
C1823 H1811 0.950 . S
C1823 C1819 1.393 . S
C1823 C1822 1.391 . S
H1824 C1832 0.950 . S
H1825 C1837 0.950 . S
H1826 C1834 0.950 . S
H1827 C1836 0.950 . S
H1828 C1838 0.950 . S
H1829 C1840 0.950 . S
H1830 C1842 0.950 . S
H1831 C1843 0.950 . S
C1832 H1824 0.950 . S
C1832 C1833 1.386 . S
C1832 C1834 1.391 . S
C1833 C1832 1.386 . S
C1833 C1837 1.393 . S
C1834 H1826 0.950 . S
C1834 C1832 1.391 . S
C1834 C1835 1.400 . S
C1835 C1834 1.400 . S
C1835 C1836 1.398 . S
C1835 C1841 1.491 . S
C1836 H1827 0.950 . S
C1836 C1835 1.398 . S
C1836 C1837 1.391 . S
C1837 H1825 0.950 . S
C1837 C1833 1.393 . S
C1837 C1836 1.391 . S
C1838 H1828 0.950 . S
C1838 C1839 1.386 . S
C1838 C1840 1.391 . S
C1839 C1838 1.386 . S
C1839 C1843 1.393 . S
C1840 H1829 0.950 . S
C1840 C1838 1.391 . S
C1840 C1841 1.400 . S
C1841 C1835 1.491 . S
C1841 C1840 1.400 . S
C1841 C1842 1.398 . S
C1842 H1830 0.950 . S
C1842 C1841 1.398 . S
C1842 C1843 1.391 . S
C1843 H1831 0.950 . S
C1843 C1839 1.393 . S
C1843 C1842 1.391 . S
H1844 C1852 0.950 . S
H1845 C1857 0.950 . S
H1846 C1854 0.950 . S
H1847 C1856 0.950 . S
H1848 C1858 0.950 . S
H1849 C1860 0.950 . S
H1850 C1862 0.950 . S
H1851 C1863 0.950 . S
C1852 H1844 0.950 . S
C1852 C1853 1.386 . S
C1852 C1854 1.391 . S
C1853 C1852 1.386 . S
C1853 C1857 1.393 . S
C1854 H1846 0.950 . S
C1854 C1852 1.391 . S
C1854 C1855 1.400 . S
C1855 C1854 1.400 . S
C1855 C1856 1.398 . S
C1855 C1861 1.491 . S
C1856 H1847 0.950 . S
C1856 C1855 1.398 . S
C1856 C1857 1.391 . S
C1857 H1845 0.950 . S
C1857 C1853 1.393 . S
C1857 C1856 1.391 . S
C1858 H1848 0.950 . S
C1858 C1859 1.386 . S
C1858 C1860 1.391 . S
C1859 C1858 1.386 . S
C1859 C1863 1.393 . S
C1860 H1849 0.950 . S
C1860 C1858 1.391 . S
C1860 C1861 1.400 . S
C1861 C1855 1.491 . S
C1861 C1860 1.400 . S
C1861 C1862 1.398 . S
C1862 H1850 0.950 . S
C1862 C1861 1.398 . S
C1862 C1863 1.391 . S
C1863 H1851 0.950 . S
C1863 C1859 1.393 . S
C1863 C1862 1.391 . S
H1864 C1872 0.950 . S
H1865 C1877 0.950 . S
H1866 C1874 0.950 . S
H1867 C1876 0.950 . S
H1868 C1878 0.950 . S
H1869 C1880 0.950 . S
H1870 C1882 0.950 . S
H1871 C1883 0.950 . S
C1872 H1864 0.950 . S
C1872 C1873 1.386 . S
C1872 C1874 1.391 . S
C1873 C1872 1.386 . S
C1873 C1877 1.393 . S
C1874 H1866 0.950 . S
C1874 C1872 1.391 . S
C1874 C1875 1.400 . S
C1875 C1874 1.400 . S
C1875 C1876 1.398 . S
C1875 C1881 1.491 . S
C1876 H1867 0.950 . S
C1876 C1875 1.398 . S
C1876 C1877 1.391 . S
C1877 H1865 0.950 . S
C1877 C1873 1.393 . S
C1877 C1876 1.391 . S
C1878 H1868 0.950 . S
C1878 C1879 1.386 . S
C1878 C1880 1.391 . S
C1879 C1878 1.386 . S
C1879 C1883 1.393 . S
C1880 H1869 0.950 . S
C1880 C1878 1.391 . S
C1880 C1881 1.400 . S
C1881 C1875 1.491 . S
C1881 C1880 1.400 . S
C1881 C1882 1.398 . S
C1882 H1870 0.950 . S
C1882 C1881 1.398 . S
C1882 C1883 1.391 . S
C1883 H1871 0.950 . S
C1883 C1879 1.393 . S
C1883 C1882 1.391 . S
H1884 C1892 0.950 . S
H1885 C1897 0.950 . S
H1886 C1894 0.950 . S
H1887 C1896 0.950 . S
H1888 C1898 0.950 . S
H1889 C1900 0.950 . S
H1890 C1902 0.950 . S
H1891 C1903 0.950 . S
C1892 H1884 0.950 . S
C1892 C1893 1.386 . S
C1892 C1894 1.391 . S
C1893 C1892 1.386 . S
C1893 C1897 1.393 . S
C1894 H1886 0.950 . S
C1894 C1892 1.391 . S
C1894 C1895 1.400 . S
C1895 C1894 1.400 . S
C1895 C1896 1.398 . S
C1895 C1901 1.491 . S
C1896 H1887 0.950 . S
C1896 C1895 1.398 . S
C1896 C1897 1.391 . S
C1897 H1885 0.950 . S
C1897 C1893 1.393 . S
C1897 C1896 1.391 . S
C1898 H1888 0.950 . S
C1898 C1899 1.386 . S
C1898 C1900 1.391 . S
C1899 C1898 1.386 . S
C1899 C1903 1.393 . S
C1900 H1889 0.950 . S
C1900 C1898 1.391 . S
C1900 C1901 1.400 . S
C1901 C1895 1.491 . S
C1901 C1900 1.400 . S
C1901 C1902 1.398 . S
C1902 H1890 0.950 . S
C1902 C1901 1.398 . S
C1902 C1903 1.391 . S
C1903 H1891 0.950 . S
C1903 C1899 1.393 . S
C1903 C1902 1.391 . S
H1904 C1912 0.950 . S
H1905 C1917 0.950 . S
H1906 C1914 0.950 . S
H1907 C1916 0.950 . S
H1908 C1918 0.950 . S
H1909 C1920 0.950 . S
H1910 C1922 0.950 . S
H1911 C1923 0.950 . S
C1912 H1904 0.950 . S
C1912 C1913 1.386 . S
C1912 C1914 1.391 . S
C1913 C1912 1.386 . S
C1913 C1917 1.393 . S
C1914 H1906 0.950 . S
C1914 C1912 1.391 . S
C1914 C1915 1.400 . S
C1915 C1914 1.400 . S
C1915 C1916 1.398 . S
C1915 C1921 1.491 . S
C1916 H1907 0.950 . S
C1916 C1915 1.398 . S
C1916 C1917 1.391 . S
C1917 H1905 0.950 . S
C1917 C1913 1.393 . S
C1917 C1916 1.391 . S
C1918 H1908 0.950 . S
C1918 C1919 1.386 . S
C1918 C1920 1.391 . S
C1919 C1918 1.386 . S
C1919 C1923 1.393 . S
C1920 H1909 0.950 . S
C1920 C1918 1.391 . S
C1920 C1921 1.400 . S
C1921 C1915 1.491 . S
C1921 C1920 1.400 . S
C1921 C1922 1.398 . S
C1922 H1910 0.950 . S
C1922 C1921 1.398 . S
C1922 C1923 1.391 . S
C1923 H1911 0.950 . S
C1923 C1919 1.393 . S
C1923 C1922 1.391 . S
H1924 C1932 0.950 . S
H1925 C1937 0.950 . S
H1926 C1934 0.950 . S
H1927 C1936 0.950 . S
H1928 C1938 0.950 . S
H1929 C1940 0.950 . S
H1930 C1942 0.950 . S
H1931 C1943 0.950 . S
C1932 H1924 0.950 . S
C1932 C1933 1.386 . S
C1932 C1934 1.391 . S
C1933 C1932 1.386 . S
C1933 C1937 1.393 . S
C1934 H1926 0.950 . S
C1934 C1932 1.391 . S
C1934 C1935 1.400 . S
C1935 C1934 1.400 . S
C1935 C1936 1.398 . S
C1935 C1941 1.491 . S
C1936 H1927 0.950 . S
C1936 C1935 1.398 . S
C1936 C1937 1.391 . S
C1937 H1925 0.950 . S
C1937 C1933 1.393 . S
C1937 C1936 1.391 . S
C1938 H1928 0.950 . S
C1938 C1939 1.386 . S
C1938 C1940 1.391 . S
C1939 C1938 1.386 . S
C1939 C1943 1.393 . S
C1940 H1929 0.950 . S
C1940 C1938 1.391 . S
C1940 C1941 1.400 . S
C1941 C1935 1.491 . S
C1941 C1940 1.400 . S
C1941 C1942 1.398 . S
C1942 H1930 0.950 . S
C1942 C1941 1.398 . S
C1942 C1943 1.391 . S
C1943 H1931 0.950 . S
C1943 C1939 1.393 . S
C1943 C1942 1.391 . S
H1944 C1952 0.950 . S
H1945 C1957 0.950 . S
H1946 C1954 0.950 . S
H1947 C1956 0.950 . S
H1948 C1958 0.950 . S
H1949 C1960 0.950 . S
H1950 C1962 0.950 . S
H1951 C1963 0.950 . S
C1952 H1944 0.950 . S
C1952 C1953 1.386 . S
C1952 C1954 1.391 . S
C1953 C1952 1.386 . S
C1953 C1957 1.393 . S
C1954 H1946 0.950 . S
C1954 C1952 1.391 . S
C1954 C1955 1.400 . S
C1955 C1954 1.400 . S
C1955 C1956 1.398 . S
C1955 C1961 1.491 . S
C1956 H1947 0.950 . S
C1956 C1955 1.398 . S
C1956 C1957 1.391 . S
C1957 H1945 0.950 . S
C1957 C1953 1.393 . S
C1957 C1956 1.391 . S
C1958 H1948 0.950 . S
C1958 C1959 1.386 . S
C1958 C1960 1.391 . S
C1959 C1958 1.386 . S
C1959 C1963 1.393 . S
C1960 H1949 0.950 . S
C1960 C1958 1.391 . S
C1960 C1961 1.400 . S
C1961 C1955 1.491 . S
C1961 C1960 1.400 . S
C1961 C1962 1.398 . S
C1962 H1950 0.950 . S
C1962 C1961 1.398 . S
C1962 C1963 1.391 . S
C1963 H1951 0.950 . S
C1963 C1959 1.393 . S
C1963 C1962 1.391 . S
H1964 C1972 0.950 . S
H1965 C1977 0.950 . S
H1966 C1974 0.950 . S
H1967 C1976 0.950 . S
H1968 C1978 0.950 . S
H1969 C1980 0.950 . S
H1970 C1982 0.950 . S
H1971 C1983 0.950 . S
C1972 H1964 0.950 . S
C1972 C1973 1.386 . S
C1972 C1974 1.391 . S
C1973 C1972 1.386 . S
C1973 C1977 1.393 . S
C1974 H1966 0.950 . S
C1974 C1972 1.391 . S
C1974 C1975 1.400 . S
C1975 C1974 1.400 . S
C1975 C1976 1.398 . S
C1975 C1981 1.491 . S
C1976 H1967 0.950 . S
C1976 C1975 1.398 . S
C1976 C1977 1.391 . S
C1977 H1965 0.950 . S
C1977 C1973 1.393 . S
C1977 C1976 1.391 . S
C1978 H1968 0.950 . S
C1978 C1979 1.386 . S
C1978 C1980 1.391 . S
C1979 C1978 1.386 . S
C1979 C1983 1.393 . S
C1980 H1969 0.950 . S
C1980 C1978 1.391 . S
C1980 C1981 1.400 . S
C1981 C1975 1.491 . S
C1981 C1980 1.400 . S
C1981 C1982 1.398 . S
C1982 H1970 0.950 . S
C1982 C1981 1.398 . S
C1982 C1983 1.391 . S
C1983 H1971 0.950 . S
C1983 C1979 1.393 . S
C1983 C1982 1.391 . S
H1984 C1992 0.950 . S
H1985 C1997 0.950 . S
H1986 C1994 0.950 . S
H1987 C1996 0.950 . S
H1988 C1998 0.950 . S
H1989 C2000 0.950 . S
H1990 C2002 0.950 . S
H1991 C2003 0.950 . S
C1992 H1984 0.950 . S
C1992 C1993 1.386 . S
C1992 C1994 1.391 . S
C1993 C1992 1.386 . S
C1993 C1997 1.393 . S
C1994 H1986 0.950 . S
C1994 C1992 1.391 . S
C1994 C1995 1.400 . S
C1995 C1994 1.400 . S
C1995 C1996 1.398 . S
C1995 C2001 1.491 . S
C1996 H1987 0.950 . S
C1996 C1995 1.398 . S
C1996 C1997 1.391 . S
C1997 H1985 0.950 . S
C1997 C1993 1.393 . S
C1997 C1996 1.391 . S
C1998 H1988 0.950 . S
C1998 C1999 1.386 . S
C1998 C2000 1.391 . S
C1999 C1998 1.386 . S
C1999 C2003 1.393 . S
C2000 H1989 0.950 . S
C2000 C1998 1.391 . S
C2000 C2001 1.400 . S
C2001 C1995 1.491 . S
C2001 C2000 1.400 . S
C2001 C2002 1.398 . S
C2002 H1990 0.950 . S
C2002 C2001 1.398 . S
C2002 C2003 1.391 . S
C2003 H1991 0.950 . S
C2003 C1999 1.393 . S
C2003 C2002 1.391 . S
H2004 C2012 0.950 . S
H2005 C2017 0.950 . S
H2006 C2014 0.950 . S
H2007 C2016 0.950 . S
H2008 C2018 0.950 . S
H2009 C2020 0.950 . S
H2010 C2022 0.950 . S
H2011 C2023 0.950 . S
C2012 H2004 0.950 . S
C2012 C2013 1.386 . S
C2012 C2014 1.391 . S
C2013 C2012 1.386 . S
C2013 C2017 1.393 . S
C2014 H2006 0.950 . S
C2014 C2012 1.391 . S
C2014 C2015 1.400 . S
C2015 C2014 1.400 . S
C2015 C2016 1.398 . S
C2015 C2021 1.491 . S
C2016 H2007 0.950 . S
C2016 C2015 1.398 . S
C2016 C2017 1.391 . S
C2017 H2005 0.950 . S
C2017 C2013 1.393 . S
C2017 C2016 1.391 . S
C2018 H2008 0.950 . S
C2018 C2019 1.386 . S
C2018 C2020 1.391 . S
C2019 C2018 1.386 . S
C2019 C2023 1.393 . S
C2020 H2009 0.950 . S
C2020 C2018 1.391 . S
C2020 C2021 1.400 . S
C2021 C2015 1.491 . S
C2021 C2020 1.400 . S
C2021 C2022 1.398 . S
C2022 H2010 0.950 . S
C2022 C2021 1.398 . S
C2022 C2023 1.391 . S
C2023 H2011 0.950 . S
C2023 C2019 1.393 . S
C2023 C2022 1.391 . S
H2024 C2032 0.950 . S
H2025 C2037 0.950 . S
H2026 C2034 0.950 . S
H2027 C2036 0.950 . S
H2028 C2038 0.950 . S
H2029 C2040 0.950 . S
H2030 C2042 0.950 . S
H2031 C2043 0.950 . S
C2032 H2024 0.950 . S
C2032 C2033 1.386 . S
C2032 C2034 1.391 . S
C2033 C2032 1.386 . S
C2033 C2037 1.393 . S
C2034 H2026 0.950 . S
C2034 C2032 1.391 . S
C2034 C2035 1.400 . S
C2035 C2034 1.400 . S
C2035 C2036 1.398 . S
C2035 C2041 1.491 . S
C2036 H2027 0.950 . S
C2036 C2035 1.398 . S
C2036 C2037 1.391 . S
C2037 H2025 0.950 . S
C2037 C2033 1.393 . S
C2037 C2036 1.391 . S
C2038 H2028 0.950 . S
C2038 C2039 1.386 . S
C2038 C2040 1.391 . S
C2039 C2038 1.386 . S
C2039 C2043 1.393 . S
C2040 H2029 0.950 . S
C2040 C2038 1.391 . S
C2040 C2041 1.400 . S
C2041 C2035 1.491 . S
C2041 C2040 1.400 . S
C2041 C2042 1.398 . S
C2042 H2030 0.950 . S
C2042 C2041 1.398 . S
C2042 C2043 1.391 . S
C2043 H2031 0.950 . S
C2043 C2039 1.393 . S
C2043 C2042 1.391 . S
H2044 C2052 0.950 . S
H2045 C2057 0.950 . S
H2046 C2054 0.950 . S
H2047 C2056 0.950 . S
H2048 C2058 0.950 . S
H2049 C2060 0.950 . S
H2050 C2062 0.950 . S
H2051 C2063 0.950 . S
C2052 H2044 0.950 . S
C2052 C2053 1.386 . S
C2052 C2054 1.391 . S
C2053 C2052 1.386 . S
C2053 C2057 1.393 . S
C2054 H2046 0.950 . S
C2054 C2052 1.391 . S
C2054 C2055 1.400 . S
C2055 C2054 1.400 . S
C2055 C2056 1.398 . S
C2055 C2061 1.491 . S
C2056 H2047 0.950 . S
C2056 C2055 1.398 . S
C2056 C2057 1.391 . S
C2057 H2045 0.950 . S
C2057 C2053 1.393 . S
C2057 C2056 1.391 . S
C2058 H2048 0.950 . S
C2058 C2059 1.386 . S
C2058 C2060 1.391 . S
C2059 C2058 1.386 . S
C2059 C2063 1.393 . S
C2060 H2049 0.950 . S
C2060 C2058 1.391 . S
C2060 C2061 1.400 . S
C2061 C2055 1.491 . S
C2061 C2060 1.400 . S
C2061 C2062 1.398 . S
C2062 H2050 0.950 . S
C2062 C2061 1.398 . S
C2062 C2063 1.391 . S
C2063 H2051 0.950 . S
C2063 C2059 1.393 . S
C2063 C2062 1.391 . S
H2064 C2072 0.950 . S
H2065 C2077 0.950 . S
H2066 C2074 0.950 . S
H2067 C2076 0.950 . S
H2068 C2078 0.950 . S
H2069 C2080 0.950 . S
H2070 C2082 0.950 . S
H2071 C2083 0.950 . S
C2072 H2064 0.950 . S
C2072 C2073 1.386 . S
C2072 C2074 1.391 . S
C2073 C2072 1.386 . S
C2073 C2077 1.393 . S
C2074 H2066 0.950 . S
C2074 C2072 1.391 . S
C2074 C2075 1.400 . S
C2075 C2074 1.400 . S
C2075 C2076 1.398 . S
C2075 C2081 1.491 . S
C2076 H2067 0.950 . S
C2076 C2075 1.398 . S
C2076 C2077 1.391 . S
C2077 H2065 0.950 . S
C2077 C2073 1.393 . S
C2077 C2076 1.391 . S
C2078 H2068 0.950 . S
C2078 C2079 1.386 . S
C2078 C2080 1.391 . S
C2079 C2078 1.386 . S
C2079 C2083 1.393 . S
C2080 H2069 0.950 . S
C2080 C2078 1.391 . S
C2080 C2081 1.400 . S
C2081 C2075 1.491 . S
C2081 C2080 1.400 . S
C2081 C2082 1.398 . S
C2082 H2070 0.950 . S
C2082 C2081 1.398 . S
C2082 C2083 1.391 . S
C2083 H2071 0.950 . S
C2083 C2079 1.393 . S
C2083 C2082 1.391 . S
H2084 C2092 0.950 . S
H2085 C2097 0.950 . S
H2086 C2094 0.950 . S
H2087 C2096 0.950 . S
H2088 C2098 0.950 . S
H2089 C2100 0.950 . S
H2090 C2102 0.950 . S
H2091 C2103 0.950 . S
C2092 H2084 0.950 . S
C2092 C2093 1.386 . S
C2092 C2094 1.391 . S
C2093 C2092 1.386 . S
C2093 C2097 1.393 . S
C2094 H2086 0.950 . S
C2094 C2092 1.391 . S
C2094 C2095 1.400 . S
C2095 C2094 1.400 . S
C2095 C2096 1.398 . S
C2095 C2101 1.491 . S
C2096 H2087 0.950 . S
C2096 C2095 1.398 . S
C2096 C2097 1.391 . S
C2097 H2085 0.950 . S
C2097 C2093 1.393 . S
C2097 C2096 1.391 . S
C2098 H2088 0.950 . S
C2098 C2099 1.386 . S
C2098 C2100 1.391 . S
C2099 C2098 1.386 . S
C2099 C2103 1.393 . S
C2100 H2089 0.950 . S
C2100 C2098 1.391 . S
C2100 C2101 1.400 . S
C2101 C2095 1.491 . S
C2101 C2100 1.400 . S
C2101 C2102 1.398 . S
C2102 H2090 0.950 . S
C2102 C2101 1.398 . S
C2102 C2103 1.391 . S
C2103 H2091 0.950 . S
C2103 C2099 1.393 . S
C2103 C2102 1.391 . S
H2104 C2112 0.950 . S
H2105 C2117 0.950 . S
H2106 C2114 0.950 . S
H2107 C2116 0.950 . S
H2108 C2118 0.950 . S
H2109 C2120 0.950 . S
H2110 C2122 0.950 . S
H2111 C2123 0.950 . S
C2112 H2104 0.950 . S
C2112 C2113 1.386 . S
C2112 C2114 1.391 . S
C2113 C2112 1.386 . S
C2113 C2117 1.393 . S
C2114 H2106 0.950 . S
C2114 C2112 1.391 . S
C2114 C2115 1.400 . S
C2115 C2114 1.400 . S
C2115 C2116 1.398 . S
C2115 C2121 1.491 . S
C2116 H2107 0.950 . S
C2116 C2115 1.398 . S
C2116 C2117 1.391 . S
C2117 H2105 0.950 . S
C2117 C2113 1.393 . S
C2117 C2116 1.391 . S
C2118 H2108 0.950 . S
C2118 C2119 1.386 . S
C2118 C2120 1.391 . S
C2119 C2118 1.386 . S
C2119 C2123 1.393 . S
C2120 H2109 0.950 . S
C2120 C2118 1.391 . S
C2120 C2121 1.400 . S
C2121 C2115 1.491 . S
C2121 C2120 1.400 . S
C2121 C2122 1.398 . S
C2122 H2110 0.950 . S
C2122 C2121 1.398 . S
C2122 C2123 1.391 . S
C2123 H2111 0.950 . S
C2123 C2119 1.393 . S
C2123 C2122 1.391 . S
H2124 C2132 0.950 . S
H2125 C2137 0.950 . S
H2126 C2134 0.950 . S
H2127 C2136 0.950 . S
H2128 C2138 0.950 . S
H2129 C2140 0.950 . S
H2130 C2142 0.950 . S
H2131 C2143 0.950 . S
C2132 H2124 0.950 . S
C2132 C2133 1.386 . S
C2132 C2134 1.391 . S
C2133 C2132 1.386 . S
C2133 C2137 1.393 . S
C2134 H2126 0.950 . S
C2134 C2132 1.391 . S
C2134 C2135 1.400 . S
C2135 C2134 1.400 . S
C2135 C2136 1.398 . S
C2135 C2141 1.491 . S
C2136 H2127 0.950 . S
C2136 C2135 1.398 . S
C2136 C2137 1.391 . S
C2137 H2125 0.950 . S
C2137 C2133 1.393 . S
C2137 C2136 1.391 . S
C2138 H2128 0.950 . S
C2138 C2139 1.386 . S
C2138 C2140 1.391 . S
C2139 C2138 1.386 . S
C2139 C2143 1.393 . S
C2140 H2129 0.950 . S
C2140 C2138 1.391 . S
C2140 C2141 1.400 . S
C2141 C2135 1.491 . S
C2141 C2140 1.400 . S
C2141 C2142 1.398 . S
C2142 H2130 0.950 . S
C2142 C2141 1.398 . S
C2142 C2143 1.391 . S
C2143 H2131 0.950 . S
C2143 C2139 1.393 . S
C2143 C2142 1.391 . S
H2144 C2152 0.950 . S
H2145 C2157 0.950 . S
H2146 C2154 0.950 . S
H2147 C2156 0.950 . S
H2148 C2158 0.950 . S
H2149 C2160 0.950 . S
H2150 C2162 0.950 . S
H2151 C2163 0.950 . S
C2152 H2144 0.950 . S
C2152 C2153 1.386 . S
C2152 C2154 1.391 . S
C2153 C2152 1.386 . S
C2153 C2157 1.393 . S
C2154 H2146 0.950 . S
C2154 C2152 1.391 . S
C2154 C2155 1.400 . S
C2155 C2154 1.400 . S
C2155 C2156 1.398 . S
C2155 C2161 1.491 . S
C2156 H2147 0.950 . S
C2156 C2155 1.398 . S
C2156 C2157 1.391 . S
C2157 H2145 0.950 . S
C2157 C2153 1.393 . S
C2157 C2156 1.391 . S
C2158 H2148 0.950 . S
C2158 C2159 1.386 . S
C2158 C2160 1.391 . S
C2159 C2158 1.386 . S
C2159 C2163 1.393 . S
C2160 H2149 0.950 . S
C2160 C2158 1.391 . S
C2160 C2161 1.400 . S
C2161 C2155 1.491 . S
C2161 C2160 1.400 . S
C2161 C2162 1.398 . S
C2162 H2150 0.950 . S
C2162 C2161 1.398 . S
C2162 C2163 1.391 . S
C2163 H2151 0.950 . S
C2163 C2159 1.393 . S
C2163 C2162 1.391 . S
H2164 C2172 0.950 . S
H2165 C2177 0.950 . S
H2166 C2174 0.950 . S
H2167 C2176 0.950 . S
H2168 C2178 0.950 . S
H2169 C2180 0.950 . S
H2170 C2182 0.950 . S
H2171 C2183 0.950 . S
C2172 H2164 0.950 . S
C2172 C2173 1.386 . S
C2172 C2174 1.391 . S
C2173 C2172 1.386 . S
C2173 C2177 1.393 . S
C2174 H2166 0.950 . S
C2174 C2172 1.391 . S
C2174 C2175 1.400 . S
C2175 C2174 1.400 . S
C2175 C2176 1.398 . S
C2175 C2181 1.491 . S
C2176 H2167 0.950 . S
C2176 C2175 1.398 . S
C2176 C2177 1.391 . S
C2177 H2165 0.950 . S
C2177 C2173 1.393 . S
C2177 C2176 1.391 . S
C2178 H2168 0.950 . S
C2178 C2179 1.386 . S
C2178 C2180 1.391 . S
C2179 C2178 1.386 . S
C2179 C2183 1.393 . S
C2180 H2169 0.950 . S
C2180 C2178 1.391 . S
C2180 C2181 1.400 . S
C2181 C2175 1.491 . S
C2181 C2180 1.400 . S
C2181 C2182 1.398 . S
C2182 H2170 0.950 . S
C2182 C2181 1.398 . S
C2182 C2183 1.391 . S
C2183 H2171 0.950 . S
C2183 C2179 1.393 . S
C2183 C2182 1.391 . S
H2184 C2192 0.950 . S
H2185 C2197 0.950 . S
H2186 C2194 0.950 . S
H2187 C2196 0.950 . S
H2188 C2198 0.950 . S
H2189 C2200 0.950 . S
H2190 C2202 0.950 . S
H2191 C2203 0.950 . S
C2192 H2184 0.950 . S
C2192 C2193 1.386 . S
C2192 C2194 1.391 . S
C2193 C2192 1.386 . S
C2193 C2197 1.393 . S
C2194 H2186 0.950 . S
C2194 C2192 1.391 . S
C2194 C2195 1.400 . S
C2195 C2194 1.400 . S
C2195 C2196 1.398 . S
C2195 C2201 1.491 . S
C2196 H2187 0.950 . S
C2196 C2195 1.398 . S
C2196 C2197 1.391 . S
C2197 H2185 0.950 . S
C2197 C2193 1.393 . S
C2197 C2196 1.391 . S
C2198 H2188 0.950 . S
C2198 C2199 1.386 . S
C2198 C2200 1.391 . S
C2199 C2198 1.386 . S
C2199 C2203 1.393 . S
C2200 H2189 0.950 . S
C2200 C2198 1.391 . S
C2200 C2201 1.400 . S
C2201 C2195 1.491 . S
C2201 C2200 1.400 . S
C2201 C2202 1.398 . S
C2202 H2190 0.950 . S
C2202 C2201 1.398 . S
C2202 C2203 1.391 . S
C2203 H2191 0.950 . S
C2203 C2199 1.393 . S
C2203 C2202 1.391 . S
H2204 C2212 0.950 . S
H2205 C2217 0.950 . S
H2206 C2214 0.950 . S
H2207 C2216 0.950 . S
H2208 C2218 0.950 . S
H2209 C2220 0.950 . S
H2210 C2222 0.950 . S
H2211 C2223 0.950 . S
C2212 H2204 0.950 . S
C2212 C2213 1.386 . S
C2212 C2214 1.391 . S
C2213 C2212 1.386 . S
C2213 C2217 1.393 . S
C2214 H2206 0.950 . S
C2214 C2212 1.391 . S
C2214 C2215 1.400 . S
C2215 C2214 1.400 . S
C2215 C2216 1.398 . S
C2215 C2221 1.491 . S
C2216 H2207 0.950 . S
C2216 C2215 1.398 . S
C2216 C2217 1.391 . S
C2217 H2205 0.950 . S
C2217 C2213 1.393 . S
C2217 C2216 1.391 . S
C2218 H2208 0.950 . S
C2218 C2219 1.386 . S
C2218 C2220 1.391 . S
C2219 C2218 1.386 . S
C2219 C2223 1.393 . S
C2220 H2209 0.950 . S
C2220 C2218 1.391 . S
C2220 C2221 1.400 . S
C2221 C2215 1.491 . S
C2221 C2220 1.400 . S
C2221 C2222 1.398 . S
C2222 H2210 0.950 . S
C2222 C2221 1.398 . S
C2222 C2223 1.391 . S
C2223 H2211 0.950 . S
C2223 C2219 1.393 . S
C2223 C2222 1.391 . S
H2224 C2232 0.950 . S
H2225 C2237 0.950 . S
H2226 C2234 0.950 . S
H2227 C2236 0.950 . S
H2228 C2238 0.950 . S
H2229 C2240 0.950 . S
H2230 C2242 0.950 . S
H2231 C2243 0.950 . S
C2232 H2224 0.950 . S
C2232 C2233 1.386 . S
C2232 C2234 1.391 . S
C2233 C2232 1.386 . S
C2233 C2237 1.393 . S
C2234 H2226 0.950 . S
C2234 C2232 1.391 . S
C2234 C2235 1.400 . S
C2235 C2234 1.400 . S
C2235 C2236 1.398 . S
C2235 C2241 1.491 . S
C2236 H2227 0.950 . S
C2236 C2235 1.398 . S
C2236 C2237 1.391 . S
C2237 H2225 0.950 . S
C2237 C2233 1.393 . S
C2237 C2236 1.391 . S
C2238 H2228 0.950 . S
C2238 C2239 1.386 . S
C2238 C2240 1.391 . S
C2239 C2238 1.386 . S
C2239 C2243 1.393 . S
C2240 H2229 0.950 . S
C2240 C2238 1.391 . S
C2240 C2241 1.400 . S
C2241 C2235 1.491 . S
C2241 C2240 1.400 . S
C2241 C2242 1.398 . S
C2242 H2230 0.950 . S
C2242 C2241 1.398 . S
C2242 C2243 1.391 . S
C2243 H2231 0.950 . S
C2243 C2239 1.393 . S
C2243 C2242 1.391 . S
H2244 C2252 0.950 . S
H2245 C2257 0.950 . S
H2246 C2254 0.950 . S
H2247 C2256 0.950 . S
H2248 C2258 0.950 . S
H2249 C2260 0.950 . S
H2250 C2262 0.950 . S
H2251 C2263 0.950 . S
C2252 H2244 0.950 . S
C2252 C2253 1.386 . S
C2252 C2254 1.391 . S
C2253 C2252 1.386 . S
C2253 C2257 1.393 . S
C2254 H2246 0.950 . S
C2254 C2252 1.391 . S
C2254 C2255 1.400 . S
C2255 C2254 1.400 . S
C2255 C2256 1.398 . S
C2255 C2261 1.491 . S
C2256 H2247 0.950 . S
C2256 C2255 1.398 . S
C2256 C2257 1.391 . S
C2257 H2245 0.950 . S
C2257 C2253 1.393 . S
C2257 C2256 1.391 . S
C2258 H2248 0.950 . S
C2258 C2259 1.386 . S
C2258 C2260 1.391 . S
C2259 C2258 1.386 . S
C2259 C2263 1.393 . S
C2260 H2249 0.950 . S
C2260 C2258 1.391 . S
C2260 C2261 1.400 . S
C2261 C2255 1.491 . S
C2261 C2260 1.400 . S
C2261 C2262 1.398 . S
C2262 H2250 0.950 . S
C2262 C2261 1.398 . S
C2262 C2263 1.391 . S
C2263 H2251 0.950 . S
C2263 C2259 1.393 . S
C2263 C2262 1.391 . S
H2264 C2272 0.950 . S
H2265 C2277 0.950 . S
H2266 C2274 0.950 . S
H2267 C2276 0.950 . S
H2268 C2278 0.950 . S
H2269 C2280 0.950 . S
H2270 C2282 0.950 . S
H2271 C2283 0.950 . S
C2272 H2264 0.950 . S
C2272 C2273 1.386 . S
C2272 C2274 1.391 . S
C2273 C2272 1.386 . S
C2273 C2277 1.393 . S
C2274 H2266 0.950 . S
C2274 C2272 1.391 . S
C2274 C2275 1.400 . S
C2275 C2274 1.400 . S
C2275 C2276 1.398 . S
C2275 C2281 1.491 . S
C2276 H2267 0.950 . S
C2276 C2275 1.398 . S
C2276 C2277 1.391 . S
C2277 H2265 0.950 . S
C2277 C2273 1.393 . S
C2277 C2276 1.391 . S
C2278 H2268 0.950 . S
C2278 C2279 1.386 . S
C2278 C2280 1.391 . S
C2279 C2278 1.386 . S
C2279 C2283 1.393 . S
C2280 H2269 0.950 . S
C2280 C2278 1.391 . S
C2280 C2281 1.400 . S
C2281 C2275 1.491 . S
C2281 C2280 1.400 . S
C2281 C2282 1.398 . S
C2282 H2270 0.950 . S
C2282 C2281 1.398 . S
C2282 C2283 1.391 . S
C2283 H2271 0.950 . S
C2283 C2279 1.393 . S
C2283 C2282 1.391 . S
H2284 C2292 0.950 . S
H2285 C2297 0.950 . S
H2286 C2294 0.950 . S
H2287 C2296 0.950 . S
H2288 C2298 0.950 . S
H2289 C2300 0.950 . S
H2290 C2302 0.950 . S
H2291 C2303 0.950 . S
C2292 H2284 0.950 . S
C2292 C2293 1.386 . S
C2292 C2294 1.391 . S
C2293 C2292 1.386 . S
C2293 C2297 1.393 . S
C2294 H2286 0.950 . S
C2294 C2292 1.391 . S
C2294 C2295 1.400 . S
C2295 C2294 1.400 . S
C2295 C2296 1.398 . S
C2295 C2301 1.491 . S
C2296 H2287 0.950 . S
C2296 C2295 1.398 . S
C2296 C2297 1.391 . S
C2297 H2285 0.950 . S
C2297 C2293 1.393 . S
C2297 C2296 1.391 . S
C2298 H2288 0.950 . S
C2298 C2299 1.386 . S
C2298 C2300 1.391 . S
C2299 C2298 1.386 . S
C2299 C2303 1.393 . S
C2300 H2289 0.950 . S
C2300 C2298 1.391 . S
C2300 C2301 1.400 . S
C2301 C2295 1.491 . S
C2301 C2300 1.400 . S
C2301 C2302 1.398 . S
C2302 H2290 0.950 . S
C2302 C2301 1.398 . S
C2302 C2303 1.391 . S
C2303 H2291 0.950 . S
C2303 C2299 1.393 . S
C2303 C2302 1.391 . S
H2304 C2312 0.950 . S
H2305 C2317 0.950 . S
H2306 C2314 0.950 . S
H2307 C2316 0.950 . S
H2308 C2318 0.950 . S
H2309 C2320 0.950 . S
H2310 C2322 0.950 . S
H2311 C2323 0.950 . S
C2312 H2304 0.950 . S
C2312 C2313 1.386 . S
C2312 C2314 1.391 . S
C2313 C2312 1.386 . S
C2313 C2317 1.393 . S
C2314 H2306 0.950 . S
C2314 C2312 1.391 . S
C2314 C2315 1.400 . S
C2315 C2314 1.400 . S
C2315 C2316 1.398 . S
C2315 C2321 1.491 . S
C2316 H2307 0.950 . S
C2316 C2315 1.398 . S
C2316 C2317 1.391 . S
C2317 H2305 0.950 . S
C2317 C2313 1.393 . S
C2317 C2316 1.391 . S
C2318 H2308 0.950 . S
C2318 C2319 1.386 . S
C2318 C2320 1.391 . S
C2319 C2318 1.386 . S
C2319 C2323 1.393 . S
C2320 H2309 0.950 . S
C2320 C2318 1.391 . S
C2320 C2321 1.400 . S
C2321 C2315 1.491 . S
C2321 C2320 1.400 . S
C2321 C2322 1.398 . S
C2322 H2310 0.950 . S
C2322 C2321 1.398 . S
C2322 C2323 1.391 . S
C2323 H2311 0.950 . S
C2323 C2319 1.393 . S
C2323 C2322 1.391 . S
H2324 C2332 0.950 . S
H2325 C2337 0.950 . S
H2326 C2334 0.950 . S
H2327 C2336 0.950 . S
H2328 C2338 0.950 . S
H2329 C2340 0.950 . S
H2330 C2342 0.950 . S
H2331 C2343 0.950 . S
C2332 H2324 0.950 . S
C2332 C2333 1.386 . S
C2332 C2334 1.391 . S
C2333 C2332 1.386 . S
C2333 C2337 1.393 . S
C2334 H2326 0.950 . S
C2334 C2332 1.391 . S
C2334 C2335 1.400 . S
C2335 C2334 1.400 . S
C2335 C2336 1.398 . S
C2335 C2341 1.491 . S
C2336 H2327 0.950 . S
C2336 C2335 1.398 . S
C2336 C2337 1.391 . S
C2337 H2325 0.950 . S
C2337 C2333 1.393 . S
C2337 C2336 1.391 . S
C2338 H2328 0.950 . S
C2338 C2339 1.386 . S
C2338 C2340 1.391 . S
C2339 C2338 1.386 . S
C2339 C2343 1.393 . S
C2340 H2329 0.950 . S
C2340 C2338 1.391 . S
C2340 C2341 1.400 . S
C2341 C2335 1.491 . S
C2341 C2340 1.400 . S
C2341 C2342 1.398 . S
C2342 H2330 0.950 . S
C2342 C2341 1.398 . S
C2342 C2343 1.391 . S
C2343 H2331 0.950 . S
C2343 C2339 1.393 . S
C2343 C2342 1.391 . S
H2344 C2352 0.950 . S
H2345 C2357 0.950 . S
H2346 C2354 0.950 . S
H2347 C2356 0.950 . S
H2348 C2358 0.950 . S
H2349 C2360 0.950 . S
H2350 C2362 0.950 . S
H2351 C2363 0.950 . S
C2352 H2344 0.950 . S
C2352 C2353 1.386 . S
C2352 C2354 1.391 . S
C2353 C2352 1.386 . S
C2353 C2357 1.393 . S
C2354 H2346 0.950 . S
C2354 C2352 1.391 . S
C2354 C2355 1.400 . S
C2355 C2354 1.400 . S
C2355 C2356 1.398 . S
C2355 C2361 1.491 . S
C2356 H2347 0.950 . S
C2356 C2355 1.398 . S
C2356 C2357 1.391 . S
C2357 H2345 0.950 . S
C2357 C2353 1.393 . S
C2357 C2356 1.391 . S
C2358 H2348 0.950 . S
C2358 C2359 1.386 . S
C2358 C2360 1.391 . S
C2359 C2358 1.386 . S
C2359 C2363 1.393 . S
C2360 H2349 0.950 . S
C2360 C2358 1.391 . S
C2360 C2361 1.400 . S
C2361 C2355 1.491 . S
C2361 C2360 1.400 . S
C2361 C2362 1.398 . S
C2362 H2350 0.950 . S
C2362 C2361 1.398 . S
C2362 C2363 1.391 . S
C2363 H2351 0.950 . S
C2363 C2359 1.393 . S
C2363 C2362 1.391 . S
H2364 C2372 0.950 . S
H2365 C2377 0.950 . S
H2366 C2374 0.950 . S
H2367 C2376 0.950 . S
H2368 C2378 0.950 . S
H2369 C2380 0.950 . S
H2370 C2382 0.950 . S
H2371 C2383 0.950 . S
C2372 H2364 0.950 . S
C2372 C2373 1.386 . S
C2372 C2374 1.391 . S
C2373 C2372 1.386 . S
C2373 C2377 1.393 . S
C2374 H2366 0.950 . S
C2374 C2372 1.391 . S
C2374 C2375 1.400 . S
C2375 C2374 1.400 . S
C2375 C2376 1.398 . S
C2375 C2381 1.491 . S
C2376 H2367 0.950 . S
C2376 C2375 1.398 . S
C2376 C2377 1.391 . S
C2377 H2365 0.950 . S
C2377 C2373 1.393 . S
C2377 C2376 1.391 . S
C2378 H2368 0.950 . S
C2378 C2379 1.386 . S
C2378 C2380 1.391 . S
C2379 C2378 1.386 . S
C2379 C2383 1.393 . S
C2380 H2369 0.950 . S
C2380 C2378 1.391 . S
C2380 C2381 1.400 . S
C2381 C2375 1.491 . S
C2381 C2380 1.400 . S
C2381 C2382 1.398 . S
C2382 H2370 0.950 . S
C2382 C2381 1.398 . S
C2382 C2383 1.391 . S
C2383 H2371 0.950 . S
C2383 C2379 1.393 . S
C2383 C2382 1.391 . S
H2384 C2392 0.950 . S
H2385 C2397 0.950 . S
H2386 C2394 0.950 . S
H2387 C2396 0.950 . S
H2388 C2398 0.950 . S
H2389 C2400 0.950 . S
H2390 C2402 0.950 . S
H2391 C2403 0.950 . S
C2392 H2384 0.950 . S
C2392 C2393 1.386 . S
C2392 C2394 1.391 . S
C2393 C2392 1.386 . S
C2393 C2397 1.393 . S
C2394 H2386 0.950 . S
C2394 C2392 1.391 . S
C2394 C2395 1.400 . S
C2395 C2394 1.400 . S
C2395 C2396 1.398 . S
C2395 C2401 1.491 . S
C2396 H2387 0.950 . S
C2396 C2395 1.398 . S
C2396 C2397 1.391 . S
C2397 H2385 0.950 . S
C2397 C2393 1.393 . S
C2397 C2396 1.391 . S
C2398 H2388 0.950 . S
C2398 C2399 1.386 . S
C2398 C2400 1.391 . S
C2399 C2398 1.386 . S
C2399 C2403 1.393 . S
C2400 H2389 0.950 . S
C2400 C2398 1.391 . S
C2400 C2401 1.400 . S
C2401 C2395 1.491 . S
C2401 C2400 1.400 . S
C2401 C2402 1.398 . S
C2402 H2390 0.950 . S
C2402 C2401 1.398 . S
C2402 C2403 1.391 . S
C2403 H2391 0.950 . S
C2403 C2399 1.393 . S
C2403 C2402 1.391 . S
H2404 C2412 0.950 . S
H2405 C2417 0.950 . S
H2406 C2414 0.950 . S
H2407 C2416 0.950 . S
H2408 C2418 0.950 . S
H2409 C2420 0.950 . S
H2410 C2422 0.950 . S
H2411 C2423 0.950 . S
C2412 H2404 0.950 . S
C2412 C2413 1.386 . S
C2412 C2414 1.391 . S
C2413 C2412 1.386 . S
C2413 C2417 1.393 . S
C2414 H2406 0.950 . S
C2414 C2412 1.391 . S
C2414 C2415 1.400 . S
C2415 C2414 1.400 . S
C2415 C2416 1.398 . S
C2415 C2421 1.491 . S
C2416 H2407 0.950 . S
C2416 C2415 1.398 . S
C2416 C2417 1.391 . S
C2417 H2405 0.950 . S
C2417 C2413 1.393 . S
C2417 C2416 1.391 . S
C2418 H2408 0.950 . S
C2418 C2419 1.386 . S
C2418 C2420 1.391 . S
C2419 C2418 1.386 . S
C2419 C2423 1.393 . S
C2420 H2409 0.950 . S
C2420 C2418 1.391 . S
C2420 C2421 1.400 . S
C2421 C2415 1.491 . S
C2421 C2420 1.400 . S
C2421 C2422 1.398 . S
C2422 H2410 0.950 . S
C2422 C2421 1.398 . S
C2422 C2423 1.391 . S
C2423 H2411 0.950 . S
C2423 C2419 1.393 . S
C2423 C2422 1.391 . S
H2424 C2432 0.950 . S
H2425 C2437 0.950 . S
H2426 C2434 0.950 . S
H2427 C2436 0.950 . S
H2428 C2438 0.950 . S
H2429 C2440 0.950 . S
H2430 C2442 0.950 . S
H2431 C2443 0.950 . S
C2432 H2424 0.950 . S
C2432 C2433 1.386 . S
C2432 C2434 1.391 . S
C2433 C2432 1.386 . S
C2433 C2437 1.393 . S
C2434 H2426 0.950 . S
C2434 C2432 1.391 . S
C2434 C2435 1.400 . S
C2435 C2434 1.400 . S
C2435 C2436 1.398 . S
C2435 C2441 1.491 . S
C2436 H2427 0.950 . S
C2436 C2435 1.398 . S
C2436 C2437 1.391 . S
C2437 H2425 0.950 . S
C2437 C2433 1.393 . S
C2437 C2436 1.391 . S
C2438 H2428 0.950 . S
C2438 C2439 1.386 . S
C2438 C2440 1.391 . S
C2439 C2438 1.386 . S
C2439 C2443 1.393 . S
C2440 H2429 0.950 . S
C2440 C2438 1.391 . S
C2440 C2441 1.400 . S
C2441 C2435 1.491 . S
C2441 C2440 1.400 . S
C2441 C2442 1.398 . S
C2442 H2430 0.950 . S
C2442 C2441 1.398 . S
C2442 C2443 1.391 . S
C2443 H2431 0.950 . S
C2443 C2439 1.393 . S
C2443 C2442 1.391 . S
H2444 C2452 0.950 . S
H2445 C2457 0.950 . S
H2446 C2454 0.950 . S
H2447 C2456 0.950 . S
H2448 C2458 0.950 . S
H2449 C2460 0.950 . S
H2450 C2462 0.950 . S
H2451 C2463 0.950 . S
C2452 H2444 0.950 . S
C2452 C2453 1.386 . S
C2452 C2454 1.391 . S
C2453 C2452 1.386 . S
C2453 C2457 1.393 . S
C2454 H2446 0.950 . S
C2454 C2452 1.391 . S
C2454 C2455 1.400 . S
C2455 C2454 1.400 . S
C2455 C2456 1.398 . S
C2455 C2461 1.491 . S
C2456 H2447 0.950 . S
C2456 C2455 1.398 . S
C2456 C2457 1.391 . S
C2457 H2445 0.950 . S
C2457 C2453 1.393 . S
C2457 C2456 1.391 . S
C2458 H2448 0.950 . S
C2458 C2459 1.386 . S
C2458 C2460 1.391 . S
C2459 C2458 1.386 . S
C2459 C2463 1.393 . S
C2460 H2449 0.950 . S
C2460 C2458 1.391 . S
C2460 C2461 1.400 . S
C2461 C2455 1.491 . S
C2461 C2460 1.400 . S
C2461 C2462 1.398 . S
C2462 H2450 0.950 . S
C2462 C2461 1.398 . S
C2462 C2463 1.391 . S
C2463 H2451 0.950 . S
C2463 C2459 1.393 . S
C2463 C2462 1.391 . S
H2464 C2472 0.950 . S
H2465 C2477 0.950 . S
H2466 C2474 0.950 . S
H2467 C2476 0.950 . S
H2468 C2478 0.950 . S
H2469 C2480 0.950 . S
H2470 C2482 0.950 . S
H2471 C2483 0.950 . S
C2472 H2464 0.950 . S
C2472 C2473 1.386 . S
C2472 C2474 1.391 . S
C2473 C2472 1.386 . S
C2473 C2477 1.393 . S
C2474 H2466 0.950 . S
C2474 C2472 1.391 . S
C2474 C2475 1.400 . S
C2475 C2474 1.400 . S
C2475 C2476 1.398 . S
C2475 C2481 1.491 . S
C2476 H2467 0.950 . S
C2476 C2475 1.398 . S
C2476 C2477 1.391 . S
C2477 H2465 0.950 . S
C2477 C2473 1.393 . S
C2477 C2476 1.391 . S
C2478 H2468 0.950 . S
C2478 C2479 1.386 . S
C2478 C2480 1.391 . S
C2479 C2478 1.386 . S
C2479 C2483 1.393 . S
C2480 H2469 0.950 . S
C2480 C2478 1.391 . S
C2480 C2481 1.400 . S
C2481 C2475 1.491 . S
C2481 C2480 1.400 . S
C2481 C2482 1.398 . S
C2482 H2470 0.950 . S
C2482 C2481 1.398 . S
C2482 C2483 1.391 . S
C2483 H2471 0.950 . S
C2483 C2479 1.393 . S
C2483 C2482 1.391 . S
H2484 C2492 0.950 . S
H2485 C2497 0.950 . S
H2486 C2494 0.950 . S
H2487 C2496 0.950 . S
H2488 C2498 0.950 . S
H2489 C2500 0.950 . S
H2490 C2502 0.950 . S
H2491 C2503 0.950 . S
C2492 H2484 0.950 . S
C2492 C2493 1.386 . S
C2492 C2494 1.391 . S
C2493 C2492 1.386 . S
C2493 C2497 1.393 . S
C2494 H2486 0.950 . S
C2494 C2492 1.391 . S
C2494 C2495 1.400 . S
C2495 C2494 1.400 . S
C2495 C2496 1.398 . S
C2495 C2501 1.491 . S
C2496 H2487 0.950 . S
C2496 C2495 1.398 . S
C2496 C2497 1.391 . S
C2497 H2485 0.950 . S
C2497 C2493 1.393 . S
C2497 C2496 1.391 . S
C2498 H2488 0.950 . S
C2498 C2499 1.386 . S
C2498 C2500 1.391 . S
C2499 C2498 1.386 . S
C2499 C2503 1.393 . S
C2500 H2489 0.950 . S
C2500 C2498 1.391 . S
C2500 C2501 1.400 . S
C2501 C2495 1.491 . S
C2501 C2500 1.400 . S
C2501 C2502 1.398 . S
C2502 H2490 0.950 . S
C2502 C2501 1.398 . S
C2502 C2503 1.391 . S
C2503 H2491 0.950 . S
C2503 C2499 1.393 . S
C2503 C2502 1.391 . S
H2504 C2512 0.950 . S
H2505 C2517 0.950 . S
H2506 C2514 0.950 . S
H2507 C2516 0.950 . S
H2508 C2518 0.950 . S
H2509 C2520 0.950 . S
H2510 C2522 0.950 . S
H2511 C2523 0.950 . S
C2512 H2504 0.950 . S
C2512 C2513 1.386 . S
C2512 C2514 1.391 . S
C2513 C2512 1.386 . S
C2513 C2517 1.393 . S
C2514 H2506 0.950 . S
C2514 C2512 1.391 . S
C2514 C2515 1.400 . S
C2515 C2514 1.400 . S
C2515 C2516 1.398 . S
C2515 C2521 1.491 . S
C2516 H2507 0.950 . S
C2516 C2515 1.398 . S
C2516 C2517 1.391 . S
C2517 H2505 0.950 . S
C2517 C2513 1.393 . S
C2517 C2516 1.391 . S
C2518 H2508 0.950 . S
C2518 C2519 1.386 . S
C2518 C2520 1.391 . S
C2519 C2518 1.386 . S
C2519 C2523 1.393 . S
C2520 H2509 0.950 . S
C2520 C2518 1.391 . S
C2520 C2521 1.400 . S
C2521 C2515 1.491 . S
C2521 C2520 1.400 . S
C2521 C2522 1.398 . S
C2522 H2510 0.950 . S
C2522 C2521 1.398 . S
C2522 C2523 1.391 . S
C2523 H2511 0.950 . S
C2523 C2519 1.393 . S
C2523 C2522 1.391 . S
H2524 C2532 0.950 . S
H2525 C2537 0.950 . S
H2526 C2534 0.950 . S
H2527 C2536 0.950 . S
H2528 C2538 0.950 . S
H2529 C2540 0.950 . S
H2530 C2542 0.950 . S
H2531 C2543 0.950 . S
C2532 H2524 0.950 . S
C2532 C2533 1.386 . S
C2532 C2534 1.391 . S
C2533 C2532 1.386 . S
C2533 C2537 1.393 . S
C2534 H2526 0.950 . S
C2534 C2532 1.391 . S
C2534 C2535 1.400 . S
C2535 C2534 1.400 . S
C2535 C2536 1.398 . S
C2535 C2541 1.491 . S
C2536 H2527 0.950 . S
C2536 C2535 1.398 . S
C2536 C2537 1.391 . S
C2537 H2525 0.950 . S
C2537 C2533 1.393 . S
C2537 C2536 1.391 . S
C2538 H2528 0.950 . S
C2538 C2539 1.386 . S
C2538 C2540 1.391 . S
C2539 C2538 1.386 . S
C2539 C2543 1.393 . S
C2540 H2529 0.950 . S
C2540 C2538 1.391 . S
C2540 C2541 1.400 . S
C2541 C2535 1.491 . S
C2541 C2540 1.400 . S
C2541 C2542 1.398 . S
C2542 H2530 0.950 . S
C2542 C2541 1.398 . S
C2542 C2543 1.391 . S
C2543 H2531 0.950 . S
C2543 C2539 1.393 . S
C2543 C2542 1.391 . S
H2544 C2552 0.950 . S
H2545 C2557 0.950 . S
H2546 C2554 0.950 . S
H2547 C2556 0.950 . S
H2548 C2558 0.950 . S
H2549 C2560 0.950 . S
H2550 C2562 0.950 . S
H2551 C2563 0.950 . S
C2552 H2544 0.950 . S
C2552 C2553 1.386 . S
C2552 C2554 1.391 . S
C2553 C2552 1.386 . S
C2553 C2557 1.393 . S
C2554 H2546 0.950 . S
C2554 C2552 1.391 . S
C2554 C2555 1.400 . S
C2555 C2554 1.400 . S
C2555 C2556 1.398 . S
C2555 C2561 1.491 . S
C2556 H2547 0.950 . S
C2556 C2555 1.398 . S
C2556 C2557 1.391 . S
C2557 H2545 0.950 . S
C2557 C2553 1.393 . S
C2557 C2556 1.391 . S
C2558 H2548 0.950 . S
C2558 C2559 1.386 . S
C2558 C2560 1.391 . S
C2559 C2558 1.386 . S
C2559 C2563 1.393 . S
C2560 H2549 0.950 . S
C2560 C2558 1.391 . S
C2560 C2561 1.400 . S
C2561 C2555 1.491 . S
C2561 C2560 1.400 . S
C2561 C2562 1.398 . S
C2562 H2550 0.950 . S
C2562 C2561 1.398 . S
C2562 C2563 1.391 . S
C2563 H2551 0.950 . S
C2563 C2559 1.393 . S
C2563 C2562 1.391 . S
H2564 C2572 0.950 . S
H2565 C2577 0.950 . S
H2566 C2574 0.950 . S
H2567 C2576 0.950 . S
H2568 C2578 0.950 . S
H2569 C2580 0.950 . S
H2570 C2582 0.950 . S
H2571 C2583 0.950 . S
C2572 H2564 0.950 . S
C2572 C2573 1.386 . S
C2572 C2574 1.391 . S
C2573 C2572 1.386 . S
C2573 C2577 1.393 . S
C2574 H2566 0.950 . S
C2574 C2572 1.391 . S
C2574 C2575 1.400 . S
C2575 C2574 1.400 . S
C2575 C2576 1.398 . S
C2575 C2581 1.491 . S
C2576 H2567 0.950 . S
C2576 C2575 1.398 . S
C2576 C2577 1.391 . S
C2577 H2565 0.950 . S
C2577 C2573 1.393 . S
C2577 C2576 1.391 . S
C2578 H2568 0.950 . S
C2578 C2579 1.386 . S
C2578 C2580 1.391 . S
C2579 C2578 1.386 . S
C2579 C2583 1.393 . S
C2580 H2569 0.950 . S
C2580 C2578 1.391 . S
C2580 C2581 1.400 . S
C2581 C2575 1.491 . S
C2581 C2580 1.400 . S
C2581 C2582 1.398 . S
C2582 H2570 0.950 . S
C2582 C2581 1.398 . S
C2582 C2583 1.391 . S
C2583 H2571 0.950 . S
C2583 C2579 1.393 . S
C2583 C2582 1.391 . S
H2584 C2592 0.950 . S
H2585 C2597 0.950 . S
H2586 C2594 0.950 . S
H2587 C2596 0.950 . S
H2588 C2598 0.950 . S
H2589 C2600 0.950 . S
H2590 C2602 0.950 . S
H2591 C2603 0.950 . S
C2592 H2584 0.950 . S
C2592 C2593 1.386 . S
C2592 C2594 1.391 . S
C2593 C2592 1.386 . S
C2593 C2597 1.393 . S
C2594 H2586 0.950 . S
C2594 C2592 1.391 . S
C2594 C2595 1.400 . S
C2595 C2594 1.400 . S
C2595 C2596 1.398 . S
C2595 C2601 1.491 . S
C2596 H2587 0.950 . S
C2596 C2595 1.398 . S
C2596 C2597 1.391 . S
C2597 H2585 0.950 . S
C2597 C2593 1.393 . S
C2597 C2596 1.391 . S
C2598 H2588 0.950 . S
C2598 C2599 1.386 . S
C2598 C2600 1.391 . S
C2599 C2598 1.386 . S
C2599 C2603 1.393 . S
C2600 H2589 0.950 . S
C2600 C2598 1.391 . S
C2600 C2601 1.400 . S
C2601 C2595 1.491 . S
C2601 C2600 1.400 . S
C2601 C2602 1.398 . S
C2602 H2590 0.950 . S
C2602 C2601 1.398 . S
C2602 C2603 1.391 . S
C2603 H2591 0.950 . S
C2603 C2599 1.393 . S
C2603 C2602 1.391 . S
H2604 C2612 0.950 . S
H2605 C2617 0.950 . S
H2606 C2614 0.950 . S
H2607 C2616 0.950 . S
H2608 C2618 0.950 . S
H2609 C2620 0.950 . S
H2610 C2622 0.950 . S
H2611 C2623 0.950 . S
C2612 H2604 0.950 . S
C2612 C2613 1.386 . S
C2612 C2614 1.391 . S
C2613 C2612 1.386 . S
C2613 C2617 1.393 . S
C2614 H2606 0.950 . S
C2614 C2612 1.391 . S
C2614 C2615 1.400 . S
C2615 C2614 1.400 . S
C2615 C2616 1.398 . S
C2615 C2621 1.491 . S
C2616 H2607 0.950 . S
C2616 C2615 1.398 . S
C2616 C2617 1.391 . S
C2617 H2605 0.950 . S
C2617 C2613 1.393 . S
C2617 C2616 1.391 . S
C2618 H2608 0.950 . S
C2618 C2619 1.386 . S
C2618 C2620 1.391 . S
C2619 C2618 1.386 . S
C2619 C2623 1.393 . S
C2620 H2609 0.950 . S
C2620 C2618 1.391 . S
C2620 C2621 1.400 . S
C2621 C2615 1.491 . S
C2621 C2620 1.400 . S
C2621 C2622 1.398 . S
C2622 H2610 0.950 . S
C2622 C2621 1.398 . S
C2622 C2623 1.391 . S
C2623 H2611 0.950 . S
C2623 C2619 1.393 . S
C2623 C2622 1.391 . S
H2624 C2632 0.950 . S
H2625 C2637 0.950 . S
H2626 C2634 0.950 . S
H2627 C2636 0.950 . S
H2628 C2638 0.950 . S
H2629 C2640 0.950 . S
H2630 C2642 0.950 . S
H2631 C2643 0.950 . S
C2632 H2624 0.950 . S
C2632 C2633 1.386 . S
C2632 C2634 1.391 . S
C2633 C2632 1.386 . S
C2633 C2637 1.393 . S
C2634 H2626 0.950 . S
C2634 C2632 1.391 . S
C2634 C2635 1.400 . S
C2635 C2634 1.400 . S
C2635 C2636 1.398 . S
C2635 C2641 1.491 . S
C2636 H2627 0.950 . S
C2636 C2635 1.398 . S
C2636 C2637 1.391 . S
C2637 H2625 0.950 . S
C2637 C2633 1.393 . S
C2637 C2636 1.391 . S
C2638 H2628 0.950 . S
C2638 C2639 1.386 . S
C2638 C2640 1.391 . S
C2639 C2638 1.386 . S
C2639 C2643 1.393 . S
C2640 H2629 0.950 . S
C2640 C2638 1.391 . S
C2640 C2641 1.400 . S
C2641 C2635 1.491 . S
C2641 C2640 1.400 . S
C2641 C2642 1.398 . S
C2642 H2630 0.950 . S
C2642 C2641 1.398 . S
C2642 C2643 1.391 . S
C2643 H2631 0.950 . S
C2643 C2639 1.393 . S
C2643 C2642 1.391 . S
H2644 C2652 0.950 . S
H2645 C2657 0.950 . S
H2646 C2654 0.950 . S
H2647 C2656 0.950 . S
H2648 C2658 0.950 . S
H2649 C2660 0.950 . S
H2650 C2662 0.950 . S
H2651 C2663 0.950 . S
C2652 H2644 0.950 . S
C2652 C2653 1.386 . S
C2652 C2654 1.391 . S
C2653 C2652 1.386 . S
C2653 C2657 1.393 . S
C2654 H2646 0.950 . S
C2654 C2652 1.391 . S
C2654 C2655 1.400 . S
C2655 C2654 1.400 . S
C2655 C2656 1.398 . S
C2655 C2661 1.491 . S
C2656 H2647 0.950 . S
C2656 C2655 1.398 . S
C2656 C2657 1.391 . S
C2657 H2645 0.950 . S
C2657 C2653 1.393 . S
C2657 C2656 1.391 . S
C2658 H2648 0.950 . S
C2658 C2659 1.386 . S
C2658 C2660 1.391 . S
C2659 C2658 1.386 . S
C2659 C2663 1.393 . S
C2660 H2649 0.950 . S
C2660 C2658 1.391 . S
C2660 C2661 1.400 . S
C2661 C2655 1.491 . S
C2661 C2660 1.400 . S
C2661 C2662 1.398 . S
C2662 H2650 0.950 . S
C2662 C2661 1.398 . S
C2662 C2663 1.391 . S
C2663 H2651 0.950 . S
C2663 C2659 1.393 . S
C2663 C2662 1.391 . S
H2664 C2672 0.950 . S
H2665 C2677 0.950 . S
H2666 C2674 0.950 . S
H2667 C2676 0.950 . S
H2668 C2678 0.950 . S
H2669 C2680 0.950 . S
H2670 C2682 0.950 . S
H2671 C2683 0.950 . S
C2672 H2664 0.950 . S
C2672 C2673 1.386 . S
C2672 C2674 1.391 . S
C2673 C2672 1.386 . S
C2673 C2677 1.393 . S
C2674 H2666 0.950 . S
C2674 C2672 1.391 . S
C2674 C2675 1.400 . S
C2675 C2674 1.400 . S
C2675 C2676 1.398 . S
C2675 C2681 1.491 . S
C2676 H2667 0.950 . S
C2676 C2675 1.398 . S
C2676 C2677 1.391 . S
C2677 H2665 0.950 . S
C2677 C2673 1.393 . S
C2677 C2676 1.391 . S
C2678 H2668 0.950 . S
C2678 C2679 1.386 . S
C2678 C2680 1.391 . S
C2679 C2678 1.386 . S
C2679 C2683 1.393 . S
C2680 H2669 0.950 . S
C2680 C2678 1.391 . S
C2680 C2681 1.400 . S
C2681 C2675 1.491 . S
C2681 C2680 1.400 . S
C2681 C2682 1.398 . S
C2682 H2670 0.950 . S
C2682 C2681 1.398 . S
C2682 C2683 1.391 . S
C2683 H2671 0.950 . S
C2683 C2679 1.393 . S
C2683 C2682 1.391 . S
H2684 C2692 0.950 . S
H2685 C2697 0.950 . S
H2686 C2694 0.950 . S
H2687 C2696 0.950 . S
H2688 C2698 0.950 . S
H2689 C2700 0.950 . S
H2690 C2702 0.950 . S
H2691 C2703 0.950 . S
C2692 H2684 0.950 . S
C2692 C2693 1.386 . S
C2692 C2694 1.391 . S
C2693 C2692 1.386 . S
C2693 C2697 1.393 . S
C2694 H2686 0.950 . S
C2694 C2692 1.391 . S
C2694 C2695 1.400 . S
C2695 C2694 1.400 . S
C2695 C2696 1.398 . S
C2695 C2701 1.491 . S
C2696 H2687 0.950 . S
C2696 C2695 1.398 . S
C2696 C2697 1.391 . S
C2697 H2685 0.950 . S
C2697 C2693 1.393 . S
C2697 C2696 1.391 . S
C2698 H2688 0.950 . S
C2698 C2699 1.386 . S
C2698 C2700 1.391 . S
C2699 C2698 1.386 . S
C2699 C2703 1.393 . S
C2700 H2689 0.950 . S
C2700 C2698 1.391 . S
C2700 C2701 1.400 . S
C2701 C2695 1.491 . S
C2701 C2700 1.400 . S
C2701 C2702 1.398 . S
C2702 H2690 0.950 . S
C2702 C2701 1.398 . S
C2702 C2703 1.391 . S
C2703 H2691 0.950 . S
C2703 C2699 1.393 . S
C2703 C2702 1.391 . S
H2704 C2712 0.950 . S
H2705 C2717 0.950 . S
H2706 C2714 0.950 . S
H2707 C2716 0.950 . S
H2708 C2718 0.950 . S
H2709 C2720 0.950 . S
H2710 C2722 0.950 . S
H2711 C2723 0.950 . S
C2712 H2704 0.950 . S
C2712 C2713 1.386 . S
C2712 C2714 1.391 . S
C2713 C2712 1.386 . S
C2713 C2717 1.393 . S
C2714 H2706 0.950 . S
C2714 C2712 1.391 . S
C2714 C2715 1.400 . S
C2715 C2714 1.400 . S
C2715 C2716 1.398 . S
C2715 C2721 1.491 . S
C2716 H2707 0.950 . S
C2716 C2715 1.398 . S
C2716 C2717 1.391 . S
C2717 H2705 0.950 . S
C2717 C2713 1.393 . S
C2717 C2716 1.391 . S
C2718 H2708 0.950 . S
C2718 C2719 1.386 . S
C2718 C2720 1.391 . S
C2719 C2718 1.386 . S
C2719 C2723 1.393 . S
C2720 H2709 0.950 . S
C2720 C2718 1.391 . S
C2720 C2721 1.400 . S
C2721 C2715 1.491 . S
C2721 C2720 1.400 . S
C2721 C2722 1.398 . S
C2722 H2710 0.950 . S
C2722 C2721 1.398 . S
C2722 C2723 1.391 . S
C2723 H2711 0.950 . S
C2723 C2719 1.393 . S
C2723 C2722 1.391 . S
H2724 C2732 0.950 . S
H2725 C2737 0.950 . S
H2726 C2734 0.950 . S
H2727 C2736 0.950 . S
H2728 C2738 0.950 . S
H2729 C2740 0.950 . S
H2730 C2742 0.950 . S
H2731 C2743 0.950 . S
C2732 H2724 0.950 . S
C2732 C2733 1.386 . S
C2732 C2734 1.391 . S
C2733 C2732 1.386 . S
C2733 C2737 1.393 . S
C2734 H2726 0.950 . S
C2734 C2732 1.391 . S
C2734 C2735 1.400 . S
C2735 C2734 1.400 . S
C2735 C2736 1.398 . S
C2735 C2741 1.491 . S
C2736 H2727 0.950 . S
C2736 C2735 1.398 . S
C2736 C2737 1.391 . S
C2737 H2725 0.950 . S
C2737 C2733 1.393 . S
C2737 C2736 1.391 . S
C2738 H2728 0.950 . S
C2738 C2739 1.386 . S
C2738 C2740 1.391 . S
C2739 C2738 1.386 . S
C2739 C2743 1.393 . S
C2740 H2729 0.950 . S
C2740 C2738 1.391 . S
C2740 C2741 1.400 . S
C2741 C2735 1.491 . S
C2741 C2740 1.400 . S
C2741 C2742 1.398 . S
C2742 H2730 0.950 . S
C2742 C2741 1.398 . S
C2742 C2743 1.391 . S
C2743 H2731 0.950 . S
C2743 C2739 1.393 . S
C2743 C2742 1.391 . S
H2744 C2752 0.950 . S
H2745 C2757 0.950 . S
H2746 C2754 0.950 . S
H2747 C2756 0.950 . S
H2748 C2758 0.950 . S
H2749 C2760 0.950 . S
H2750 C2762 0.950 . S
H2751 C2763 0.950 . S
C2752 H2744 0.950 . S
C2752 C2753 1.386 . S
C2752 C2754 1.391 . S
C2753 C2752 1.386 . S
C2753 C2757 1.393 . S
C2754 H2746 0.950 . S
C2754 C2752 1.391 . S
C2754 C2755 1.400 . S
C2755 C2754 1.400 . S
C2755 C2756 1.398 . S
C2755 C2761 1.491 . S
C2756 H2747 0.950 . S
C2756 C2755 1.398 . S
C2756 C2757 1.391 . S
C2757 H2745 0.950 . S
C2757 C2753 1.393 . S
C2757 C2756 1.391 . S
C2758 H2748 0.950 . S
C2758 C2759 1.386 . S
C2758 C2760 1.391 . S
C2759 C2758 1.386 . S
C2759 C2763 1.393 . S
C2760 H2749 0.950 . S
C2760 C2758 1.391 . S
C2760 C2761 1.400 . S
C2761 C2755 1.491 . S
C2761 C2760 1.400 . S
C2761 C2762 1.398 . S
C2762 H2750 0.950 . S
C2762 C2761 1.398 . S
C2762 C2763 1.391 . S
C2763 H2751 0.950 . S
C2763 C2759 1.393 . S
C2763 C2762 1.391 . S
H2764 C2772 0.950 . S
H2765 C2777 0.950 . S
H2766 C2774 0.950 . S
H2767 C2776 0.950 . S
H2768 C2778 0.950 . S
H2769 C2780 0.950 . S
H2770 C2782 0.950 . S
H2771 C2783 0.950 . S
C2772 H2764 0.950 . S
C2772 C2773 1.386 . S
C2772 C2774 1.391 . S
C2773 C2772 1.386 . S
C2773 C2777 1.393 . S
C2774 H2766 0.950 . S
C2774 C2772 1.391 . S
C2774 C2775 1.400 . S
C2775 C2774 1.400 . S
C2775 C2776 1.398 . S
C2775 C2781 1.491 . S
C2776 H2767 0.950 . S
C2776 C2775 1.398 . S
C2776 C2777 1.391 . S
C2777 H2765 0.950 . S
C2777 C2773 1.393 . S
C2777 C2776 1.391 . S
C2778 H2768 0.950 . S
C2778 C2779 1.386 . S
C2778 C2780 1.391 . S
C2779 C2778 1.386 . S
C2779 C2783 1.393 . S
C2780 H2769 0.950 . S
C2780 C2778 1.391 . S
C2780 C2781 1.400 . S
C2781 C2775 1.491 . S
C2781 C2780 1.400 . S
C2781 C2782 1.398 . S
C2782 H2770 0.950 . S
C2782 C2781 1.398 . S
C2782 C2783 1.391 . S
C2783 H2771 0.950 . S
C2783 C2779 1.393 . S
C2783 C2782 1.391 . S
H2784 C2792 0.950 . S
H2785 C2797 0.950 . S
H2786 C2794 0.950 . S
H2787 C2796 0.950 . S
H2788 C2798 0.950 . S
H2789 C2800 0.950 . S
H2790 C2802 0.950 . S
H2791 C2803 0.950 . S
C2792 H2784 0.950 . S
C2792 C2793 1.386 . S
C2792 C2794 1.391 . S
C2793 C2792 1.386 . S
C2793 C2797 1.393 . S
C2794 H2786 0.950 . S
C2794 C2792 1.391 . S
C2794 C2795 1.400 . S
C2795 C2794 1.400 . S
C2795 C2796 1.398 . S
C2795 C2801 1.491 . S
C2796 H2787 0.950 . S
C2796 C2795 1.398 . S
C2796 C2797 1.391 . S
C2797 H2785 0.950 . S
C2797 C2793 1.393 . S
C2797 C2796 1.391 . S
C2798 H2788 0.950 . S
C2798 C2799 1.386 . S
C2798 C2800 1.391 . S
C2799 C2798 1.386 . S
C2799 C2803 1.393 . S
C2800 H2789 0.950 . S
C2800 C2798 1.391 . S
C2800 C2801 1.400 . S
C2801 C2795 1.491 . S
C2801 C2800 1.400 . S
C2801 C2802 1.398 . S
C2802 H2790 0.950 . S
C2802 C2801 1.398 . S
C2802 C2803 1.391 . S
C2803 H2791 0.950 . S
C2803 C2799 1.393 . S
C2803 C2802 1.391 . S
H2804 C2812 0.950 . S
H2805 C2817 0.950 . S
H2806 C2814 0.950 . S
H2807 C2816 0.950 . S
H2808 C2818 0.950 . S
H2809 C2820 0.950 . S
H2810 C2822 0.950 . S
H2811 C2823 0.950 . S
C2812 H2804 0.950 . S
C2812 C2813 1.386 . S
C2812 C2814 1.391 . S
C2813 C2812 1.386 . S
C2813 C2817 1.393 . S
C2814 H2806 0.950 . S
C2814 C2812 1.391 . S
C2814 C2815 1.400 . S
C2815 C2814 1.400 . S
C2815 C2816 1.398 . S
C2815 C2821 1.491 . S
C2816 H2807 0.950 . S
C2816 C2815 1.398 . S
C2816 C2817 1.391 . S
C2817 H2805 0.950 . S
C2817 C2813 1.393 . S
C2817 C2816 1.391 . S
C2818 H2808 0.950 . S
C2818 C2819 1.386 . S
C2818 C2820 1.391 . S
C2819 C2818 1.386 . S
C2819 C2823 1.393 . S
C2820 H2809 0.950 . S
C2820 C2818 1.391 . S
C2820 C2821 1.400 . S
C2821 C2815 1.491 . S
C2821 C2820 1.400 . S
C2821 C2822 1.398 . S
C2822 H2810 0.950 . S
C2822 C2821 1.398 . S
C2822 C2823 1.391 . S
C2823 H2811 0.950 . S
C2823 C2819 1.393 . S
C2823 C2822 1.391 . S
H2824 C2832 0.950 . S
H2825 C2837 0.950 . S
H2826 C2834 0.950 . S
H2827 C2836 0.950 . S
H2828 C2838 0.950 . S
H2829 C2840 0.950 . S
H2830 C2842 0.950 . S
H2831 C2843 0.950 . S
C2832 H2824 0.950 . S
C2832 C2833 1.386 . S
C2832 C2834 1.391 . S
C2833 C2832 1.386 . S
C2833 C2837 1.393 . S
C2834 H2826 0.950 . S
C2834 C2832 1.391 . S
C2834 C2835 1.400 . S
C2835 C2834 1.400 . S
C2835 C2836 1.398 . S
C2835 C2841 1.491 . S
C2836 H2827 0.950 . S
C2836 C2835 1.398 . S
C2836 C2837 1.391 . S
C2837 H2825 0.950 . S
C2837 C2833 1.393 . S
C2837 C2836 1.391 . S
C2838 H2828 0.950 . S
C2838 C2839 1.386 . S
C2838 C2840 1.391 . S
C2839 C2838 1.386 . S
C2839 C2843 1.393 . S
C2840 H2829 0.950 . S
C2840 C2838 1.391 . S
C2840 C2841 1.400 . S
C2841 C2835 1.491 . S
C2841 C2840 1.400 . S
C2841 C2842 1.398 . S
C2842 H2830 0.950 . S
C2842 C2841 1.398 . S
C2842 C2843 1.391 . S
C2843 H2831 0.950 . S
C2843 C2839 1.393 . S
C2843 C2842 1.391 . S
H2844 C2852 0.950 . S
H2845 C2857 0.950 . S
H2846 C2854 0.950 . S
H2847 C2856 0.950 . S
H2848 C2858 0.950 . S
H2849 C2860 0.950 . S
H2850 C2862 0.950 . S
H2851 C2863 0.950 . S
C2852 H2844 0.950 . S
C2852 C2853 1.386 . S
C2852 C2854 1.391 . S
C2853 C2852 1.386 . S
C2853 C2857 1.393 . S
C2854 H2846 0.950 . S
C2854 C2852 1.391 . S
C2854 C2855 1.400 . S
C2855 C2854 1.400 . S
C2855 C2856 1.398 . S
C2855 C2861 1.491 . S
C2856 H2847 0.950 . S
C2856 C2855 1.398 . S
C2856 C2857 1.391 . S
C2857 H2845 0.950 . S
C2857 C2853 1.393 . S
C2857 C2856 1.391 . S
C2858 H2848 0.950 . S
C2858 C2859 1.386 . S
C2858 C2860 1.391 . S
C2859 C2858 1.386 . S
C2859 C2863 1.393 . S
C2860 H2849 0.950 . S
C2860 C2858 1.391 . S
C2860 C2861 1.400 . S
C2861 C2855 1.491 . S
C2861 C2860 1.400 . S
C2861 C2862 1.398 . S
C2862 H2850 0.950 . S
C2862 C2861 1.398 . S
C2862 C2863 1.391 . S
C2863 H2851 0.950 . S
C2863 C2859 1.393 . S
C2863 C2862 1.391 . S
H2864 C2872 0.950 . S
H2865 C2877 0.950 . S
H2866 C2874 0.950 . S
H2867 C2876 0.950 . S
H2868 C2878 0.950 . S
H2869 C2880 0.950 . S
H2870 C2882 0.950 . S
H2871 C2883 0.950 . S
C2872 H2864 0.950 . S
C2872 C2873 1.386 . S
C2872 C2874 1.391 . S
C2873 C2872 1.386 . S
C2873 C2877 1.393 . S
C2874 H2866 0.950 . S
C2874 C2872 1.391 . S
C2874 C2875 1.400 . S
C2875 C2874 1.400 . S
C2875 C2876 1.398 . S
C2875 C2881 1.491 . S
C2876 H2867 0.950 . S
C2876 C2875 1.398 . S
C2876 C2877 1.391 . S
C2877 H2865 0.950 . S
C2877 C2873 1.393 . S
C2877 C2876 1.391 . S
C2878 H2868 0.950 . S
C2878 C2879 1.386 . S
C2878 C2880 1.391 . S
C2879 C2878 1.386 . S
C2879 C2883 1.393 . S
C2880 H2869 0.950 . S
C2880 C2878 1.391 . S
C2880 C2881 1.400 . S
C2881 C2875 1.491 . S
C2881 C2880 1.400 . S
C2881 C2882 1.398 . S
C2882 H2870 0.950 . S
C2882 C2881 1.398 . S
C2882 C2883 1.391 . S
C2883 H2871 0.950 . S
C2883 C2879 1.393 . S
C2883 C2882 1.391 . S
H2884 C2892 0.950 . S
H2885 C2897 0.950 . S
H2886 C2894 0.950 . S
H2887 C2896 0.950 . S
H2888 C2898 0.950 . S
H2889 C2900 0.950 . S
H2890 C2902 0.950 . S
H2891 C2903 0.950 . S
C2892 H2884 0.950 . S
C2892 C2893 1.386 . S
C2892 C2894 1.391 . S
C2893 C2892 1.386 . S
C2893 C2897 1.393 . S
C2894 H2886 0.950 . S
C2894 C2892 1.391 . S
C2894 C2895 1.400 . S
C2895 C2894 1.400 . S
C2895 C2896 1.398 . S
C2895 C2901 1.491 . S
C2896 H2887 0.950 . S
C2896 C2895 1.398 . S
C2896 C2897 1.391 . S
C2897 H2885 0.950 . S
C2897 C2893 1.393 . S
C2897 C2896 1.391 . S
C2898 H2888 0.950 . S
C2898 C2899 1.386 . S
C2898 C2900 1.391 . S
C2899 C2898 1.386 . S
C2899 C2903 1.393 . S
C2900 H2889 0.950 . S
C2900 C2898 1.391 . S
C2900 C2901 1.400 . S
C2901 C2895 1.491 . S
C2901 C2900 1.400 . S
C2901 C2902 1.398 . S
C2902 H2890 0.950 . S
C2902 C2901 1.398 . S
C2902 C2903 1.391 . S
C2903 H2891 0.950 . S
C2903 C2899 1.393 . S
C2903 C2902 1.391 . S
H2904 C2912 0.950 . S
H2905 C2917 0.950 . S
H2906 C2914 0.950 . S
H2907 C2916 0.950 . S
H2908 C2918 0.950 . S
H2909 C2920 0.950 . S
H2910 C2922 0.950 . S
H2911 C2923 0.950 . S
C2912 H2904 0.950 . S
C2912 C2913 1.386 . S
C2912 C2914 1.391 . S
C2913 C2912 1.386 . S
C2913 C2917 1.393 . S
C2914 H2906 0.950 . S
C2914 C2912 1.391 . S
C2914 C2915 1.400 . S
C2915 C2914 1.400 . S
C2915 C2916 1.398 . S
C2915 C2921 1.491 . S
C2916 H2907 0.950 . S
C2916 C2915 1.398 . S
C2916 C2917 1.391 . S
C2917 H2905 0.950 . S
C2917 C2913 1.393 . S
C2917 C2916 1.391 . S
C2918 H2908 0.950 . S
C2918 C2919 1.386 . S
C2918 C2920 1.391 . S
C2919 C2918 1.386 . S
C2919 C2923 1.393 . S
C2920 H2909 0.950 . S
C2920 C2918 1.391 . S
C2920 C2921 1.400 . S
C2921 C2915 1.491 . S
C2921 C2920 1.400 . S
C2921 C2922 1.398 . S
C2922 H2910 0.950 . S
C2922 C2921 1.398 . S
C2922 C2923 1.391 . S
C2923 H2911 0.950 . S
C2923 C2919 1.393 . S
C2923 C2922 1.391 . S
H2924 C2932 0.950 . S
H2925 C2937 0.950 . S
H2926 C2934 0.950 . S
H2927 C2936 0.950 . S
H2928 C2938 0.950 . S
H2929 C2940 0.950 . S
H2930 C2942 0.950 . S
H2931 C2943 0.950 . S
C2932 H2924 0.950 . S
C2932 C2933 1.386 . S
C2932 C2934 1.391 . S
C2933 C2932 1.386 . S
C2933 C2937 1.393 . S
C2934 H2926 0.950 . S
C2934 C2932 1.391 . S
C2934 C2935 1.400 . S
C2935 C2934 1.400 . S
C2935 C2936 1.398 . S
C2935 C2941 1.491 . S
C2936 H2927 0.950 . S
C2936 C2935 1.398 . S
C2936 C2937 1.391 . S
C2937 H2925 0.950 . S
C2937 C2933 1.393 . S
C2937 C2936 1.391 . S
C2938 H2928 0.950 . S
C2938 C2939 1.386 . S
C2938 C2940 1.391 . S
C2939 C2938 1.386 . S
C2939 C2943 1.393 . S
C2940 H2929 0.950 . S
C2940 C2938 1.391 . S
C2940 C2941 1.400 . S
C2941 C2935 1.491 . S
C2941 C2940 1.400 . S
C2941 C2942 1.398 . S
C2942 H2930 0.950 . S
C2942 C2941 1.398 . S
C2942 C2943 1.391 . S
C2943 H2931 0.950 . S
C2943 C2939 1.393 . S
C2943 C2942 1.391 . S
H2944 C2952 0.950 . S
H2945 C2957 0.950 . S
H2946 C2954 0.950 . S
H2947 C2956 0.950 . S
H2948 C2958 0.950 . S
H2949 C2960 0.950 . S
H2950 C2962 0.950 . S
H2951 C2963 0.950 . S
C2952 H2944 0.950 . S
C2952 C2953 1.386 . S
C2952 C2954 1.391 . S
C2953 C2952 1.386 . S
C2953 C2957 1.393 . S
C2954 H2946 0.950 . S
C2954 C2952 1.391 . S
C2954 C2955 1.400 . S
C2955 C2954 1.400 . S
C2955 C2956 1.398 . S
C2955 C2961 1.491 . S
C2956 H2947 0.950 . S
C2956 C2955 1.398 . S
C2956 C2957 1.391 . S
C2957 H2945 0.950 . S
C2957 C2953 1.393 . S
C2957 C2956 1.391 . S
C2958 H2948 0.950 . S
C2958 C2959 1.386 . S
C2958 C2960 1.391 . S
C2959 C2958 1.386 . S
C2959 C2963 1.393 . S
C2960 H2949 0.950 . S
C2960 C2958 1.391 . S
C2960 C2961 1.400 . S
C2961 C2955 1.491 . S
C2961 C2960 1.400 . S
C2961 C2962 1.398 . S
C2962 H2950 0.950 . S
C2962 C2961 1.398 . S
C2962 C2963 1.391 . S
C2963 H2951 0.950 . S
C2963 C2959 1.393 . S
C2963 C2962 1.391 . S
H2964 C2972 0.950 . S
H2965 C2977 0.950 . S
H2966 C2974 0.950 . S
H2967 C2976 0.950 . S
H2968 C2978 0.950 . S
H2969 C2980 0.950 . S
H2970 C2982 0.950 . S
H2971 C2983 0.950 . S
C2972 H2964 0.950 . S
C2972 C2973 1.386 . S
C2972 C2974 1.391 . S
C2973 C2972 1.386 . S
C2973 C2977 1.393 . S
C2974 H2966 0.950 . S
C2974 C2972 1.391 . S
C2974 C2975 1.400 . S
C2975 C2974 1.400 . S
C2975 C2976 1.398 . S
C2975 C2981 1.491 . S
C2976 H2967 0.950 . S
C2976 C2975 1.398 . S
C2976 C2977 1.391 . S
C2977 H2965 0.950 . S
C2977 C2973 1.393 . S
C2977 C2976 1.391 . S
C2978 H2968 0.950 . S
C2978 C2979 1.386 . S
C2978 C2980 1.391 . S
C2979 C2978 1.386 . S
C2979 C2983 1.393 . S
C2980 H2969 0.950 . S
C2980 C2978 1.391 . S
C2980 C2981 1.400 . S
C2981 C2975 1.491 . S
C2981 C2980 1.400 . S
C2981 C2982 1.398 . S
C2982 H2970 0.950 . S
C2982 C2981 1.398 . S
C2982 C2983 1.391 . S
C2983 H2971 0.950 . S
C2983 C2979 1.393 . S
C2983 C2982 1.391 . S
H2984 C2992 0.950 . S
H2985 C2997 0.950 . S
H2986 C2994 0.950 . S
H2987 C2996 0.950 . S
H2988 C2998 0.950 . S
H2989 C3000 0.950 . S
H2990 C3002 0.950 . S
H2991 C3003 0.950 . S
C2992 H2984 0.950 . S
C2992 C2993 1.386 . S
C2992 C2994 1.391 . S
C2993 C2992 1.386 . S
C2993 C2997 1.393 . S
C2994 H2986 0.950 . S
C2994 C2992 1.391 . S
C2994 C2995 1.400 . S
C2995 C2994 1.400 . S
C2995 C2996 1.398 . S
C2995 C3001 1.491 . S
C2996 H2987 0.950 . S
C2996 C2995 1.398 . S
C2996 C2997 1.391 . S
C2997 H2985 0.950 . S
C2997 C2993 1.393 . S
C2997 C2996 1.391 . S
C2998 H2988 0.950 . S
C2998 C2999 1.386 . S
C2998 C3000 1.391 . S
C2999 C2998 1.386 . S
C2999 C3003 1.393 . S
C3000 H2989 0.950 . S
C3000 C2998 1.391 . S
C3000 C3001 1.400 . S
C3001 C2995 1.491 . S
C3001 C3000 1.400 . S
C3001 C3002 1.398 . S
C3002 H2990 0.950 . S
C3002 C3001 1.398 . S
C3002 C3003 1.391 . S
C3003 H2991 0.950 . S
C3003 C2999 1.393 . S
C3003 C3002 1.391 . S
H3004 C3012 0.950 . S
H3005 C3017 0.950 . S
H3006 C3014 0.950 . S
H3007 C3016 0.950 . S
H3008 C3018 0.950 . S
H3009 C3020 0.950 . S
H3010 C3022 0.950 . S
H3011 C3023 0.950 . S
C3012 H3004 0.950 . S
C3012 C3013 1.386 . S
C3012 C3014 1.391 . S
C3013 C3012 1.386 . S
C3013 C3017 1.393 . S
C3014 H3006 0.950 . S
C3014 C3012 1.391 . S
C3014 C3015 1.400 . S
C3015 C3014 1.400 . S
C3015 C3016 1.398 . S
C3015 C3021 1.491 . S
C3016 H3007 0.950 . S
C3016 C3015 1.398 . S
C3016 C3017 1.391 . S
C3017 H3005 0.950 . S
C3017 C3013 1.393 . S
C3017 C3016 1.391 . S
C3018 H3008 0.950 . S
C3018 C3019 1.386 . S
C3018 C3020 1.391 . S
C3019 C3018 1.386 . S
C3019 C3023 1.393 . S
C3020 H3009 0.950 . S
C3020 C3018 1.391 . S
C3020 C3021 1.400 . S
C3021 C3015 1.491 . S
C3021 C3020 1.400 . S
C3021 C3022 1.398 . S
C3022 H3010 0.950 . S
C3022 C3021 1.398 . S
C3022 C3023 1.391 . S
C3023 H3011 0.950 . S
C3023 C3019 1.393 . S
C3023 C3022 1.391 . S
H3024 C3032 0.950 . S
H3025 C3037 0.950 . S
H3026 C3034 0.950 . S
H3027 C3036 0.950 . S
H3028 C3038 0.950 . S
H3029 C3040 0.950 . S
H3030 C3042 0.950 . S
H3031 C3043 0.950 . S
C3032 H3024 0.950 . S
C3032 C3033 1.386 . S
C3032 C3034 1.391 . S
C3033 C3032 1.386 . S
C3033 C3037 1.393 . S
C3034 H3026 0.950 . S
C3034 C3032 1.391 . S
C3034 C3035 1.400 . S
C3035 C3034 1.400 . S
C3035 C3036 1.398 . S
C3035 C3041 1.491 . S
C3036 H3027 0.950 . S
C3036 C3035 1.398 . S
C3036 C3037 1.391 . S
C3037 H3025 0.950 . S
C3037 C3033 1.393 . S
C3037 C3036 1.391 . S
C3038 H3028 0.950 . S
C3038 C3039 1.386 . S
C3038 C3040 1.391 . S
C3039 C3038 1.386 . S
C3039 C3043 1.393 . S
C3040 H3029 0.950 . S
C3040 C3038 1.391 . S
C3040 C3041 1.400 . S
C3041 C3035 1.491 . S
C3041 C3040 1.400 . S
C3041 C3042 1.398 . S
C3042 H3030 0.950 . S
C3042 C3041 1.398 . S
C3042 C3043 1.391 . S
C3043 H3031 0.950 . S
C3043 C3039 1.393 . S
C3043 C3042 1.391 . S
H3044 C3052 0.950 . S
H3045 C3057 0.950 . S
H3046 C3054 0.950 . S
H3047 C3056 0.950 . S
H3048 C3058 0.950 . S
H3049 C3060 0.950 . S
H3050 C3062 0.950 . S
H3051 C3063 0.950 . S
C3052 H3044 0.950 . S
C3052 C3053 1.386 . S
C3052 C3054 1.391 . S
C3053 C3052 1.386 . S
C3053 C3057 1.393 . S
C3054 H3046 0.950 . S
C3054 C3052 1.391 . S
C3054 C3055 1.400 . S
C3055 C3054 1.400 . S
C3055 C3056 1.398 . S
C3055 C3061 1.491 . S
C3056 H3047 0.950 . S
C3056 C3055 1.398 . S
C3056 C3057 1.391 . S
C3057 H3045 0.950 . S
C3057 C3053 1.393 . S
C3057 C3056 1.391 . S
C3058 H3048 0.950 . S
C3058 C3059 1.386 . S
C3058 C3060 1.391 . S
C3059 C3058 1.386 . S
C3059 C3063 1.393 . S
C3060 H3049 0.950 . S
C3060 C3058 1.391 . S
C3060 C3061 1.400 . S
C3061 C3055 1.491 . S
C3061 C3060 1.400 . S
C3061 C3062 1.398 . S
C3062 H3050 0.950 . S
C3062 C3061 1.398 . S
C3062 C3063 1.391 . S
C3063 H3051 0.950 . S
C3063 C3059 1.393 . S
C3063 C3062 1.391 . S
H3064 C3072 0.950 . S
H3065 C3077 0.950 . S
H3066 C3074 0.950 . S
H3067 C3076 0.950 . S
H3068 C3078 0.950 . S
H3069 C3080 0.950 . S
H3070 C3082 0.950 . S
H3071 C3083 0.950 . S
C3072 H3064 0.950 . S
C3072 C3073 1.386 . S
C3072 C3074 1.391 . S
C3073 C3072 1.386 . S
C3073 C3077 1.393 . S
C3074 H3066 0.950 . S
C3074 C3072 1.391 . S
C3074 C3075 1.400 . S
C3075 C3074 1.400 . S
C3075 C3076 1.398 . S
C3075 C3081 1.491 . S
C3076 H3067 0.950 . S
C3076 C3075 1.398 . S
C3076 C3077 1.391 . S
C3077 H3065 0.950 . S
C3077 C3073 1.393 . S
C3077 C3076 1.391 . S
C3078 H3068 0.950 . S
C3078 C3079 1.386 . S
C3078 C3080 1.391 . S
C3079 C3078 1.386 . S
C3079 C3083 1.393 . S
C3080 H3069 0.950 . S
C3080 C3078 1.391 . S
C3080 C3081 1.400 . S
C3081 C3075 1.491 . S
C3081 C3080 1.400 . S
C3081 C3082 1.398 . S
C3082 H3070 0.950 . S
C3082 C3081 1.398 . S
C3082 C3083 1.391 . S
C3083 H3071 0.950 . S
C3083 C3079 1.393 . S
C3083 C3082 1.391 . S
H3084 C3092 0.950 . S
H3085 C3097 0.950 . S
H3086 C3094 0.950 . S
H3087 C3096 0.950 . S
H3088 C3098 0.950 . S
H3089 C3100 0.950 . S
H3090 C3102 0.950 . S
H3091 C3103 0.950 . S
C3092 H3084 0.950 . S
C3092 C3093 1.386 . S
C3092 C3094 1.391 . S
C3093 C3092 1.386 . S
C3093 C3097 1.393 . S
C3094 H3086 0.950 . S
C3094 C3092 1.391 . S
C3094 C3095 1.400 . S
C3095 C3094 1.400 . S
C3095 C3096 1.398 . S
C3095 C3101 1.491 . S
C3096 H3087 0.950 . S
C3096 C3095 1.398 . S
C3096 C3097 1.391 . S
C3097 H3085 0.950 . S
C3097 C3093 1.393 . S
C3097 C3096 1.391 . S
C3098 H3088 0.950 . S
C3098 C3099 1.386 . S
C3098 C3100 1.391 . S
C3099 C3098 1.386 . S
C3099 C3103 1.393 . S
C3100 H3089 0.950 . S
C3100 C3098 1.391 . S
C3100 C3101 1.400 . S
C3101 C3095 1.491 . S
C3101 C3100 1.400 . S
C3101 C3102 1.398 . S
C3102 H3090 0.950 . S
C3102 C3101 1.398 . S
C3102 C3103 1.391 . S
C3103 H3091 0.950 . S
C3103 C3099 1.393 . S
C3103 C3102 1.391 . S
H3104 C3112 0.950 . S
H3105 C3117 0.950 . S
H3106 C3114 0.950 . S
H3107 C3116 0.950 . S
H3108 C3118 0.950 . S
H3109 C3120 0.950 . S
H3110 C3122 0.950 . S
H3111 C3123 0.950 . S
C3112 H3104 0.950 . S
C3112 C3113 1.386 . S
C3112 C3114 1.391 . S
C3113 C3112 1.386 . S
C3113 C3117 1.393 . S
C3114 H3106 0.950 . S
C3114 C3112 1.391 . S
C3114 C3115 1.400 . S
C3115 C3114 1.400 . S
C3115 C3116 1.398 . S
C3115 C3121 1.491 . S
C3116 H3107 0.950 . S
C3116 C3115 1.398 . S
C3116 C3117 1.391 . S
C3117 H3105 0.950 . S
C3117 C3113 1.393 . S
C3117 C3116 1.391 . S
C3118 H3108 0.950 . S
C3118 C3119 1.386 . S
C3118 C3120 1.391 . S
C3119 C3118 1.386 . S
C3119 C3123 1.393 . S
C3120 H3109 0.950 . S
C3120 C3118 1.391 . S
C3120 C3121 1.400 . S
C3121 C3115 1.491 . S
C3121 C3120 1.400 . S
C3121 C3122 1.398 . S
C3122 H3110 0.950 . S
C3122 C3121 1.398 . S
C3122 C3123 1.391 . S
C3123 H3111 0.950 . S
C3123 C3119 1.393 . S
C3123 C3122 1.391 . S
H3124 C3132 0.950 . S
H3125 C3137 0.950 . S
H3126 C3134 0.950 . S
H3127 C3136 0.950 . S
H3128 C3138 0.950 . S
H3129 C3140 0.950 . S
H3130 C3142 0.950 . S
H3131 C3143 0.950 . S
C3132 H3124 0.950 . S
C3132 C3133 1.386 . S
C3132 C3134 1.391 . S
C3133 C3132 1.386 . S
C3133 C3137 1.393 . S
C3134 H3126 0.950 . S
C3134 C3132 1.391 . S
C3134 C3135 1.400 . S
C3135 C3134 1.400 . S
C3135 C3136 1.398 . S
C3135 C3141 1.491 . S
C3136 H3127 0.950 . S
C3136 C3135 1.398 . S
C3136 C3137 1.391 . S
C3137 H3125 0.950 . S
C3137 C3133 1.393 . S
C3137 C3136 1.391 . S
C3138 H3128 0.950 . S
C3138 C3139 1.386 . S
C3138 C3140 1.391 . S
C3139 C3138 1.386 . S
C3139 C3143 1.393 . S
C3140 H3129 0.950 . S
C3140 C3138 1.391 . S
C3140 C3141 1.400 . S
C3141 C3135 1.491 . S
C3141 C3140 1.400 . S
C3141 C3142 1.398 . S
C3142 H3130 0.950 . S
C3142 C3141 1.398 . S
C3142 C3143 1.391 . S
C3143 H3131 0.950 . S
C3143 C3139 1.393 . S
C3143 C3142 1.391 . S
H3144 C3152 0.950 . S
H3145 C3157 0.950 . S
H3146 C3154 0.950 . S
H3147 C3156 0.950 . S
H3148 C3158 0.950 . S
H3149 C3160 0.950 . S
H3150 C3162 0.950 . S
H3151 C3163 0.950 . S
C3152 H3144 0.950 . S
C3152 C3153 1.386 . S
C3152 C3154 1.391 . S
C3153 C3152 1.386 . S
C3153 C3157 1.393 . S
C3154 H3146 0.950 . S
C3154 C3152 1.391 . S
C3154 C3155 1.400 . S
C3155 C3154 1.400 . S
C3155 C3156 1.398 . S
C3155 C3161 1.491 . S
C3156 H3147 0.950 . S
C3156 C3155 1.398 . S
C3156 C3157 1.391 . S
C3157 H3145 0.950 . S
C3157 C3153 1.393 . S
C3157 C3156 1.391 . S
C3158 H3148 0.950 . S
C3158 C3159 1.386 . S
C3158 C3160 1.391 . S
C3159 C3158 1.386 . S
C3159 C3163 1.393 . S
C3160 H3149 0.950 . S
C3160 C3158 1.391 . S
C3160 C3161 1.400 . S
C3161 C3155 1.491 . S
C3161 C3160 1.400 . S
C3161 C3162 1.398 . S
C3162 H3150 0.950 . S
C3162 C3161 1.398 . S
C3162 C3163 1.391 . S
C3163 H3151 0.950 . S
C3163 C3159 1.393 . S
C3163 C3162 1.391 . S
H3164 C3172 0.950 . S
H3165 C3177 0.950 . S
H3166 C3174 0.950 . S
H3167 C3176 0.950 . S
H3168 C3178 0.950 . S
H3169 C3180 0.950 . S
H3170 C3182 0.950 . S
H3171 C3183 0.950 . S
C3172 H3164 0.950 . S
C3172 C3173 1.386 . S
C3172 C3174 1.391 . S
C3173 C3172 1.386 . S
C3173 C3177 1.393 . S
C3174 H3166 0.950 . S
C3174 C3172 1.391 . S
C3174 C3175 1.400 . S
C3175 C3174 1.400 . S
C3175 C3176 1.398 . S
C3175 C3181 1.491 . S
C3176 H3167 0.950 . S
C3176 C3175 1.398 . S
C3176 C3177 1.391 . S
C3177 H3165 0.950 . S
C3177 C3173 1.393 . S
C3177 C3176 1.391 . S
C3178 H3168 0.950 . S
C3178 C3179 1.386 . S
C3178 C3180 1.391 . S
C3179 C3178 1.386 . S
C3179 C3183 1.393 . S
C3180 H3169 0.950 . S
C3180 C3178 1.391 . S
C3180 C3181 1.400 . S
C3181 C3175 1.491 . S
C3181 C3180 1.400 . S
C3181 C3182 1.398 . S
C3182 H3170 0.950 . S
C3182 C3181 1.398 . S
C3182 C3183 1.391 . S
C3183 H3171 0.950 . S
C3183 C3179 1.393 . S
C3183 C3182 1.391 . S
H3184 C3192 0.950 . S
H3185 C3197 0.950 . S
H3186 C3194 0.950 . S
H3187 C3196 0.950 . S
H3188 C3198 0.950 . S
H3189 C3200 0.950 . S
H3190 C3202 0.950 . S
H3191 C3203 0.950 . S
C3192 H3184 0.950 . S
C3192 C3193 1.386 . S
C3192 C3194 1.391 . S
C3193 C3192 1.386 . S
C3193 C3197 1.393 . S
C3194 H3186 0.950 . S
C3194 C3192 1.391 . S
C3194 C3195 1.400 . S
C3195 C3194 1.400 . S
C3195 C3196 1.398 . S
C3195 C3201 1.491 . S
C3196 H3187 0.950 . S
C3196 C3195 1.398 . S
C3196 C3197 1.391 . S
C3197 H3185 0.950 . S
C3197 C3193 1.393 . S
C3197 C3196 1.391 . S
C3198 H3188 0.950 . S
C3198 C3199 1.386 . S
C3198 C3200 1.391 . S
C3199 C3198 1.386 . S
C3199 C3203 1.393 . S
C3200 H3189 0.950 . S
C3200 C3198 1.391 . S
C3200 C3201 1.400 . S
C3201 C3195 1.491 . S
C3201 C3200 1.400 . S
C3201 C3202 1.398 . S
C3202 H3190 0.950 . S
C3202 C3201 1.398 . S
C3202 C3203 1.391 . S
C3203 H3191 0.950 . S
C3203 C3199 1.393 . S
C3203 C3202 1.391 . S
H3204 C3212 0.950 . S
H3205 C3217 0.950 . S
H3206 C3214 0.950 . S
H3207 C3216 0.950 . S
H3208 C3218 0.950 . S
H3209 C3220 0.950 . S
H3210 C3222 0.950 . S
H3211 C3223 0.950 . S
C3212 H3204 0.950 . S
C3212 C3213 1.386 . S
C3212 C3214 1.391 . S
C3213 C3212 1.386 . S
C3213 C3217 1.393 . S
C3214 H3206 0.950 . S
C3214 C3212 1.391 . S
C3214 C3215 1.400 . S
C3215 C3214 1.400 . S
C3215 C3216 1.398 . S
C3215 C3221 1.491 . S
C3216 H3207 0.950 . S
C3216 C3215 1.398 . S
C3216 C3217 1.391 . S
C3217 H3205 0.950 . S
C3217 C3213 1.393 . S
C3217 C3216 1.391 . S
C3218 H3208 0.950 . S
C3218 C3219 1.386 . S
C3218 C3220 1.391 . S
C3219 C3218 1.386 . S
C3219 C3223 1.393 . S
C3220 H3209 0.950 . S
C3220 C3218 1.391 . S
C3220 C3221 1.400 . S
C3221 C3215 1.491 . S
C3221 C3220 1.400 . S
C3221 C3222 1.398 . S
C3222 H3210 0.950 . S
C3222 C3221 1.398 . S
C3222 C3223 1.391 . S
C3223 H3211 0.950 . S
C3223 C3219 1.393 . S
C3223 C3222 1.391 . S
H3224 C3232 0.950 . S
H3225 C3237 0.950 . S
H3226 C3234 0.950 . S
H3227 C3236 0.950 . S
H3228 C3238 0.950 . S
H3229 C3240 0.950 . S
H3230 C3242 0.950 . S
H3231 C3243 0.950 . S
C3232 H3224 0.950 . S
C3232 C3233 1.386 . S
C3232 C3234 1.391 . S
C3233 C3232 1.386 . S
C3233 C3237 1.393 . S
C3234 H3226 0.950 . S
C3234 C3232 1.391 . S
C3234 C3235 1.400 . S
C3235 C3234 1.400 . S
C3235 C3236 1.398 . S
C3235 C3241 1.491 . S
C3236 H3227 0.950 . S
C3236 C3235 1.398 . S
C3236 C3237 1.391 . S
C3237 H3225 0.950 . S
C3237 C3233 1.393 . S
C3237 C3236 1.391 . S
C3238 H3228 0.950 . S
C3238 C3239 1.386 . S
C3238 C3240 1.391 . S
C3239 C3238 1.386 . S
C3239 C3243 1.393 . S
C3240 H3229 0.950 . S
C3240 C3238 1.391 . S
C3240 C3241 1.400 . S
C3241 C3235 1.491 . S
C3241 C3240 1.400 . S
C3241 C3242 1.398 . S
C3242 H3230 0.950 . S
C3242 C3241 1.398 . S
C3242 C3243 1.391 . S
C3243 H3231 0.950 . S
C3243 C3239 1.393 . S
C3243 C3242 1.391 . S
H3244 C3252 0.950 . S
H3245 C3257 0.950 . S
H3246 C3254 0.950 . S
H3247 C3256 0.950 . S
H3248 C3258 0.950 . S
H3249 C3260 0.950 . S
H3250 C3262 0.950 . S
H3251 C3263 0.950 . S
C3252 H3244 0.950 . S
C3252 C3253 1.386 . S
C3252 C3254 1.391 . S
C3253 C3252 1.386 . S
C3253 C3257 1.393 . S
C3254 H3246 0.950 . S
C3254 C3252 1.391 . S
C3254 C3255 1.400 . S
C3255 C3254 1.400 . S
C3255 C3256 1.398 . S
C3255 C3261 1.491 . S
C3256 H3247 0.950 . S
C3256 C3255 1.398 . S
C3256 C3257 1.391 . S
C3257 H3245 0.950 . S
C3257 C3253 1.393 . S
C3257 C3256 1.391 . S
C3258 H3248 0.950 . S
C3258 C3259 1.386 . S
C3258 C3260 1.391 . S
C3259 C3258 1.386 . S
C3259 C3263 1.393 . S
C3260 H3249 0.950 . S
C3260 C3258 1.391 . S
C3260 C3261 1.400 . S
C3261 C3255 1.491 . S
C3261 C3260 1.400 . S
C3261 C3262 1.398 . S
C3262 H3250 0.950 . S
C3262 C3261 1.398 . S
C3262 C3263 1.391 . S
C3263 H3251 0.950 . S
C3263 C3259 1.393 . S
C3263 C3262 1.391 . S
H3264 C3272 0.950 . S
H3265 C3277 0.950 . S
H3266 C3274 0.950 . S
H3267 C3276 0.950 . S
H3268 C3278 0.950 . S
H3269 C3280 0.950 . S
H3270 C3282 0.950 . S
H3271 C3283 0.950 . S
C3272 H3264 0.950 . S
C3272 C3273 1.386 . S
C3272 C3274 1.391 . S
C3273 C3272 1.386 . S
C3273 C3277 1.393 . S
C3274 H3266 0.950 . S
C3274 C3272 1.391 . S
C3274 C3275 1.400 . S
C3275 C3274 1.400 . S
C3275 C3276 1.398 . S
C3275 C3281 1.491 1_455 S
C3276 H3267 0.950 . S
C3276 C3275 1.398 . S
C3276 C3277 1.391 . S
C3277 H3265 0.950 . S
C3277 C3273 1.393 . S
C3277 C3276 1.391 . S
C3278 H3268 0.950 . S
C3278 C3279 1.386 . S
C3278 C3280 1.391 . S
C3279 C3278 1.386 . S
C3279 C3283 1.393 . S
C3280 H3269 0.950 . S
C3280 C3278 1.391 . S
C3280 C3281 1.400 . S
C3281 C3275 1.491 1_655 S
C3281 C3280 1.400 . S
C3281 C3282 1.398 . S
C3282 H3270 0.950 . S
C3282 C3281 1.398 . S
C3282 C3283 1.391 . S
C3283 H3271 0.950 . S
C3283 C3279 1.393 . S
C3283 C3282 1.391 . S
H3284 C3292 0.950 . S
H3285 C3297 0.950 . S
H3286 C3294 0.950 . S
H3287 C3296 0.950 . S
H3288 C3298 0.950 . S
H3289 C3300 0.950 . S
H3290 C3302 0.950 . S
H3291 C3303 0.950 . S
C3292 H3284 0.950 . S
C3292 C3293 1.386 . S
C3292 C3294 1.391 . S
C3293 C3292 1.386 . S
C3293 C3297 1.393 . S
C3294 H3286 0.950 . S
C3294 C3292 1.391 . S
C3294 C3295 1.400 . S
C3295 C3294 1.400 . S
C3295 C3296 1.398 . S
C3295 C3301 1.491 1_565 S
C3296 H3287 0.950 . S
C3296 C3295 1.398 . S
C3296 C3297 1.391 . S
C3297 H3285 0.950 . S
C3297 C3293 1.393 . S
C3297 C3296 1.391 . S
C3298 H3288 0.950 . S
C3298 C3299 1.386 . S
C3298 C3300 1.391 . S
C3299 C3298 1.386 . S
C3299 C3303 1.393 . S
C3300 H3289 0.950 . S
C3300 C3298 1.391 . S
C3300 C3301 1.400 . S
C3301 C3295 1.491 1_545 S
C3301 C3300 1.400 . S
C3301 C3302 1.398 . S
C3302 H3290 0.950 . S
C3302 C3301 1.398 . S
C3302 C3303 1.391 . S
C3303 H3291 0.950 . S
C3303 C3299 1.393 . S
C3303 C3302 1.391 . S
H3304 C3312 0.950 . S
H3305 C3317 0.950 . S
H3306 C3314 0.950 . S
H3307 C3316 0.950 . S
H3308 C3318 0.950 . S
H3309 C3320 0.950 . S
H3310 C3322 0.950 . S
H3311 C3323 0.950 . S
C3312 H3304 0.950 . S
C3312 C3313 1.386 . S
C3312 C3314 1.391 . S
C3313 C3312 1.386 . S
C3313 C3317 1.393 . S
C3314 H3306 0.950 . S
C3314 C3312 1.391 . S
C3314 C3315 1.400 . S
C3315 C3314 1.400 . S
C3315 C3316 1.398 . S
C3315 C3321 1.491 1_655 S
C3316 H3307 0.950 . S
C3316 C3315 1.398 . S
C3316 C3317 1.391 . S
C3317 H3305 0.950 . S
C3317 C3313 1.393 . S
C3317 C3316 1.391 . S
C3318 H3308 0.950 . S
C3318 C3319 1.386 . S
C3318 C3320 1.391 . S
C3319 C3318 1.386 . S
C3319 C3323 1.393 . S
C3320 H3309 0.950 . S
C3320 C3318 1.391 . S
C3320 C3321 1.400 . S
C3321 C3315 1.491 1_455 S
C3321 C3320 1.400 . S
C3321 C3322 1.398 . S
C3322 H3310 0.950 . S
C3322 C3321 1.398 . S
C3322 C3323 1.391 . S
C3323 H3311 0.950 . S
C3323 C3319 1.393 . S
C3323 C3322 1.391 . S
H3324 C3332 0.950 . S
H3325 C3337 0.950 . S
H3326 C3334 0.950 . S
H3327 C3336 0.950 . S
H3328 C3338 0.950 . S
H3329 C3340 0.950 . S
H3330 C3342 0.950 . S
H3331 C3343 0.950 . S
C3332 H3324 0.950 . S
C3332 C3333 1.386 . S
C3332 C3334 1.391 . S
C3333 C3332 1.386 . S
C3333 C3337 1.393 . S
C3334 H3326 0.950 . S
C3334 C3332 1.391 . S
C3334 C3335 1.400 . S
C3335 C3334 1.400 . S
C3335 C3336 1.398 . S
C3335 C3341 1.491 1_545 S
C3336 H3327 0.950 . S
C3336 C3335 1.398 . S
C3336 C3337 1.391 . S
C3337 H3325 0.950 . S
C3337 C3333 1.393 . S
C3337 C3336 1.391 . S
C3338 H3328 0.950 . S
C3338 C3339 1.386 . S
C3338 C3340 1.391 . S
C3339 C3338 1.386 . S
C3339 C3343 1.393 . S
C3340 H3329 0.950 . S
C3340 C3338 1.391 . S
C3340 C3341 1.400 . S
C3341 C3335 1.491 1_565 S
C3341 C3340 1.400 . S
C3341 C3342 1.398 . S
C3342 H3330 0.950 . S
C3342 C3341 1.398 . S
C3342 C3343 1.391 . S
C3343 H3331 0.950 . S
C3343 C3339 1.393 . S
C3343 C3342 1.391 . S
H3344 C3352 0.950 . S
H3345 C3357 0.950 . S
H3346 C3354 0.950 . S
H3347 C3356 0.950 . S
H3348 C3358 0.950 . S
H3349 C3360 0.950 . S
H3350 C3362 0.950 . S
H3351 C3363 0.950 . S
C3352 H3344 0.950 . S
C3352 C3353 1.386 . S
C3352 C3354 1.391 . S
C3353 C3352 1.386 . S
C3353 C3357 1.393 . S
C3354 H3346 0.950 . S
C3354 C3352 1.391 . S
C3354 C3355 1.400 . S
C3355 C3354 1.400 . S
C3355 C3356 1.398 . S
C3355 C3361 1.491 1_455 S
C3356 H3347 0.950 . S
C3356 C3355 1.398 . S
C3356 C3357 1.391 . S
C3357 H3345 0.950 . S
C3357 C3353 1.393 . S
C3357 C3356 1.391 . S
C3358 H3348 0.950 . S
C3358 C3359 1.386 . S
C3358 C3360 1.391 . S
C3359 C3358 1.386 . S
C3359 C3363 1.393 . S
C3360 H3349 0.950 . S
C3360 C3358 1.391 . S
C3360 C3361 1.400 . S
C3361 C3355 1.491 1_655 S
C3361 C3360 1.400 . S
C3361 C3362 1.398 . S
C3362 H3350 0.950 . S
C3362 C3361 1.398 . S
C3362 C3363 1.391 . S
C3363 H3351 0.950 . S
C3363 C3359 1.393 . S
C3363 C3362 1.391 . S
H3364 C3372 0.950 . S
H3365 C3377 0.950 . S
H3366 C3374 0.950 . S
H3367 C3376 0.950 . S
H3368 C3378 0.950 . S
H3369 C3380 0.950 . S
H3370 C3382 0.950 . S
H3371 C3383 0.950 . S
C3372 H3364 0.950 . S
C3372 C3373 1.386 . S
C3372 C3374 1.391 . S
C3373 C3372 1.386 . S
C3373 C3377 1.393 . S
C3374 H3366 0.950 . S
C3374 C3372 1.391 . S
C3374 C3375 1.400 . S
C3375 C3374 1.400 . S
C3375 C3376 1.398 . S
C3375 C3381 1.491 1_545 S
C3376 H3367 0.950 . S
C3376 C3375 1.398 . S
C3376 C3377 1.391 . S
C3377 H3365 0.950 . S
C3377 C3373 1.393 . S
C3377 C3376 1.391 . S
C3378 H3368 0.950 . S
C3378 C3379 1.386 . S
C3378 C3380 1.391 . S
C3379 C3378 1.386 . S
C3379 C3383 1.393 . S
C3380 H3369 0.950 . S
C3380 C3378 1.391 . S
C3380 C3381 1.400 . S
C3381 C3375 1.491 1_565 S
C3381 C3380 1.400 . S
C3381 C3382 1.398 . S
C3382 H3370 0.950 . S
C3382 C3381 1.398 . S
C3382 C3383 1.391 . S
C3383 H3371 0.950 . S
C3383 C3379 1.393 . S
C3383 C3382 1.391 . S
H3384 C3392 0.950 . S
H3385 C3397 0.950 . S
H3386 C3394 0.950 . S
H3387 C3396 0.950 . S
H3388 C3398 0.950 . S
H3389 C3400 0.950 . S
H3390 C3402 0.950 . S
H3391 C3403 0.950 . S
C3392 H3384 0.950 . S
C3392 C3393 1.386 . S
C3392 C3394 1.391 . S
C3393 C3392 1.386 . S
C3393 C3397 1.393 . S
C3394 H3386 0.950 . S
C3394 C3392 1.391 . S
C3394 C3395 1.400 . S
C3395 C3394 1.400 . S
C3395 C3396 1.398 . S
C3395 C3401 1.491 1_655 S
C3396 H3387 0.950 . S
C3396 C3395 1.398 . S
C3396 C3397 1.391 . S
C3397 H3385 0.950 . S
C3397 C3393 1.393 . S
C3397 C3396 1.391 . S
C3398 H3388 0.950 . S
C3398 C3399 1.386 . S
C3398 C3400 1.391 . S
C3399 C3398 1.386 . S
C3399 C3403 1.393 . S
C3400 H3389 0.950 . S
C3400 C3398 1.391 . S
C3400 C3401 1.400 . S
C3401 C3395 1.491 1_455 S
C3401 C3400 1.400 . S
C3401 C3402 1.398 . S
C3402 H3390 0.950 . S
C3402 C3401 1.398 . S
C3402 C3403 1.391 . S
C3403 H3391 0.950 . S
C3403 C3399 1.393 . S
C3403 C3402 1.391 . S
H3404 C3412 0.950 . S
H3405 C3417 0.950 . S
H3406 C3414 0.950 . S
H3407 C3416 0.950 . S
H3408 C3418 0.950 . S
H3409 C3420 0.950 . S
H3410 C3422 0.950 . S
H3411 C3423 0.950 . S
C3412 H3404 0.950 . S
C3412 C3413 1.386 . S
C3412 C3414 1.391 . S
C3413 C3412 1.386 . S
C3413 C3417 1.393 . S
C3414 H3406 0.950 . S
C3414 C3412 1.391 . S
C3414 C3415 1.400 . S
C3415 C3414 1.400 . S
C3415 C3416 1.398 . S
C3415 C3421 1.491 1_545 S
C3416 H3407 0.950 . S
C3416 C3415 1.398 . S
C3416 C3417 1.391 . S
C3417 H3405 0.950 . S
C3417 C3413 1.393 . S
C3417 C3416 1.391 . S
C3418 H3408 0.950 . S
C3418 C3419 1.386 . S
C3418 C3420 1.391 . S
C3419 C3418 1.386 . S
C3419 C3423 1.393 . S
C3420 H3409 0.950 . S
C3420 C3418 1.391 . S
C3420 C3421 1.400 . S
C3421 C3415 1.491 1_565 S
C3421 C3420 1.400 . S
C3421 C3422 1.398 . S
C3422 H3410 0.950 . S
C3422 C3421 1.398 . S
C3422 C3423 1.391 . S
C3423 H3411 0.950 . S
C3423 C3419 1.393 . S
C3423 C3422 1.391 . S
H3424 C3432 0.950 . S
H3425 C3437 0.950 . S
H3426 C3434 0.950 . S
H3427 C3436 0.950 . S
H3428 C3438 0.950 . S
H3429 C3440 0.950 . S
H3430 C3442 0.950 . S
H3431 C3443 0.950 . S
C3432 H3424 0.950 . S
C3432 C3433 1.386 . S
C3432 C3434 1.391 . S
C3433 C3432 1.386 . S
C3433 C3437 1.393 . S
C3434 H3426 0.950 . S
C3434 C3432 1.391 . S
C3434 C3435 1.400 . S
C3435 C3434 1.400 . S
C3435 C3436 1.398 . S
C3435 C3441 1.491 1_565 S
C3436 H3427 0.950 . S
C3436 C3435 1.398 . S
C3436 C3437 1.391 . S
C3437 H3425 0.950 . S
C3437 C3433 1.393 . S
C3437 C3436 1.391 . S
C3438 H3428 0.950 . S
C3438 C3439 1.386 . S
C3438 C3440 1.391 . S
C3439 C3438 1.386 . S
C3439 C3443 1.393 . S
C3440 H3429 0.950 . S
C3440 C3438 1.391 . S
C3440 C3441 1.400 . S
C3441 C3435 1.491 1_545 S
C3441 C3440 1.400 . S
C3441 C3442 1.398 . S
C3442 H3430 0.950 . S
C3442 C3441 1.398 . S
C3442 C3443 1.391 . S
C3443 H3431 0.950 . S
C3443 C3439 1.393 . S
C3443 C3442 1.391 . S
H3444 C3452 0.950 . S
H3445 C3457 0.950 . S
H3446 C3454 0.950 . S
H3447 C3456 0.950 . S
H3448 C3458 0.950 . S
H3449 C3460 0.950 . S
H3450 C3462 0.950 . S
H3451 C3463 0.950 . S
C3452 H3444 0.950 . S
C3452 C3453 1.386 . S
C3452 C3454 1.391 . S
C3453 C3452 1.386 . S
C3453 C3457 1.393 . S
C3454 H3446 0.950 . S
C3454 C3452 1.391 . S
C3454 C3455 1.400 . S
C3455 C3454 1.400 . S
C3455 C3456 1.398 . S
C3455 C3461 1.491 1_655 S
C3456 H3447 0.950 . S
C3456 C3455 1.398 . S
C3456 C3457 1.391 . S
C3457 H3445 0.950 . S
C3457 C3453 1.393 . S
C3457 C3456 1.391 . S
C3458 H3448 0.950 . S
C3458 C3459 1.386 . S
C3458 C3460 1.391 . S
C3459 C3458 1.386 . S
C3459 C3463 1.393 . S
C3460 H3449 0.950 . S
C3460 C3458 1.391 . S
C3460 C3461 1.400 . S
C3461 C3455 1.491 1_455 S
C3461 C3460 1.400 . S
C3461 C3462 1.398 . S
C3462 H3450 0.950 . S
C3462 C3461 1.398 . S
C3462 C3463 1.391 . S
C3463 H3451 0.950 . S
C3463 C3459 1.393 . S
C3463 C3462 1.391 . S
H3464 C3472 0.950 . S
H3465 C3477 0.950 . S
H3466 C3474 0.950 . S
H3467 C3476 0.950 . S
H3468 C3478 0.950 . S
H3469 C3480 0.950 . S
H3470 C3482 0.950 . S
H3471 C3483 0.950 . S
C3472 H3464 0.950 . S
C3472 C3473 1.386 . S
C3472 C3474 1.391 . S
C3473 C3472 1.386 . S
C3473 C3477 1.393 . S
C3474 H3466 0.950 . S
C3474 C3472 1.391 . S
C3474 C3475 1.400 . S
C3475 C3474 1.400 . S
C3475 C3476 1.398 . S
C3475 C3481 1.491 1_565 S
C3476 H3467 0.950 . S
C3476 C3475 1.398 . S
C3476 C3477 1.391 . S
C3477 H3465 0.950 . S
C3477 C3473 1.393 . S
C3477 C3476 1.391 . S
C3478 H3468 0.950 . S
C3478 C3479 1.386 . S
C3478 C3480 1.391 . S
C3479 C3478 1.386 . S
C3479 C3483 1.393 . S
C3480 H3469 0.950 . S
C3480 C3478 1.391 . S
C3480 C3481 1.400 . S
C3481 C3475 1.491 1_545 S
C3481 C3480 1.400 . S
C3481 C3482 1.398 . S
C3482 H3470 0.950 . S
C3482 C3481 1.398 . S
C3482 C3483 1.391 . S
C3483 H3471 0.950 . S
C3483 C3479 1.393 . S
C3483 C3482 1.391 . S
H3484 C3492 0.950 . S
H3485 C3497 0.950 . S
H3486 C3494 0.950 . S
H3487 C3496 0.950 . S
H3488 C3498 0.950 . S
H3489 C3500 0.950 . S
H3490 C3502 0.950 . S
H3491 C3503 0.950 . S
C3492 H3484 0.950 . S
C3492 C3493 1.386 . S
C3492 C3494 1.391 . S
C3493 C3492 1.386 . S
C3493 C3497 1.393 . S
C3494 H3486 0.950 . S
C3494 C3492 1.391 . S
C3494 C3495 1.400 . S
C3495 C3494 1.400 . S
C3495 C3496 1.398 . S
C3495 C3501 1.491 1_455 S
C3496 H3487 0.950 . S
C3496 C3495 1.398 . S
C3496 C3497 1.391 . S
C3497 H3485 0.950 . S
C3497 C3493 1.393 . S
C3497 C3496 1.391 . S
C3498 H3488 0.950 . S
C3498 C3499 1.386 . S
C3498 C3500 1.391 . S
C3499 C3498 1.386 . S
C3499 C3503 1.393 . S
C3500 H3489 0.950 . S
C3500 C3498 1.391 . S
C3500 C3501 1.400 . S
C3501 C3495 1.491 1_655 S
C3501 C3500 1.400 . S
C3501 C3502 1.398 . S
C3502 H3490 0.950 . S
C3502 C3501 1.398 . S
C3502 C3503 1.391 . S
C3503 H3491 0.950 . S
C3503 C3499 1.393 . S
C3503 C3502 1.391 . S
H3504 C3512 0.950 . S
H3505 C3517 0.950 . S
H3506 C3514 0.950 . S
H3507 C3516 0.950 . S
H3508 C3518 0.950 . S
H3509 C3520 0.950 . S
H3510 C3522 0.950 . S
H3511 C3523 0.950 . S
C3512 H3504 0.950 . S
C3512 C3513 1.386 . S
C3512 C3514 1.391 . S
C3513 C3512 1.386 . S
C3513 C3517 1.393 . S
C3514 H3506 0.950 . S
C3514 C3512 1.391 . S
C3514 C3515 1.400 . S
C3515 C3514 1.400 . S
C3515 C3516 1.398 . S
C3515 C3521 1.491 1_565 S
C3516 H3507 0.950 . S
C3516 C3515 1.398 . S
C3516 C3517 1.391 . S
C3517 H3505 0.950 . S
C3517 C3513 1.393 . S
C3517 C3516 1.391 . S
C3518 H3508 0.950 . S
C3518 C3519 1.386 . S
C3518 C3520 1.391 . S
C3519 C3518 1.386 . S
C3519 C3523 1.393 . S
C3520 H3509 0.950 . S
C3520 C3518 1.391 . S
C3520 C3521 1.400 . S
C3521 C3515 1.491 1_545 S
C3521 C3520 1.400 . S
C3521 C3522 1.398 . S
C3522 H3510 0.950 . S
C3522 C3521 1.398 . S
C3522 C3523 1.391 . S
C3523 H3511 0.950 . S
C3523 C3519 1.393 . S
C3523 C3522 1.391 . S
H3524 C3532 0.950 . S
H3525 C3537 0.950 . S
H3526 C3534 0.950 . S
H3527 C3536 0.950 . S
H3528 C3538 0.950 . S
H3529 C3540 0.950 . S
H3530 C3542 0.950 . S
H3531 C3543 0.950 . S
C3532 H3524 0.950 . S
C3532 C3533 1.386 . S
C3532 C3534 1.391 . S
C3533 C3532 1.386 . S
C3533 C3537 1.393 . S
C3534 H3526 0.950 . S
C3534 C3532 1.391 . S
C3534 C3535 1.400 . S
C3535 C3534 1.400 . S
C3535 C3536 1.398 . S
C3535 C3541 1.491 1_455 S
C3536 H3527 0.950 . S
C3536 C3535 1.398 . S
C3536 C3537 1.391 . S
C3537 H3525 0.950 . S
C3537 C3533 1.393 . S
C3537 C3536 1.391 . S
C3538 H3528 0.950 . S
C3538 C3539 1.386 . S
C3538 C3540 1.391 . S
C3539 C3538 1.386 . S
C3539 C3543 1.393 . S
C3540 H3529 0.950 . S
C3540 C3538 1.391 . S
C3540 C3541 1.400 . S
C3541 C3535 1.491 1_655 S
C3541 C3540 1.400 . S
C3541 C3542 1.398 . S
C3542 H3530 0.950 . S
C3542 C3541 1.398 . S
C3542 C3543 1.391 . S
C3543 H3531 0.950 . S
C3543 C3539 1.393 . S
C3543 C3542 1.391 . S
H3544 C3552 0.950 . S
H3545 C3557 0.950 . S
H3546 C3554 0.950 . S
H3547 C3556 0.950 . S
H3548 C3558 0.950 . S
H3549 C3560 0.950 . S
H3550 C3562 0.950 . S
H3551 C3563 0.950 . S
C3552 H3544 0.950 . S
C3552 C3553 1.386 . S
C3552 C3554 1.391 . S
C3553 C3552 1.386 . S
C3553 C3557 1.393 . S
C3554 H3546 0.950 . S
C3554 C3552 1.391 . S
C3554 C3555 1.400 . S
C3555 C3554 1.400 . S
C3555 C3556 1.398 . S
C3555 C3561 1.491 1_545 S
C3556 H3547 0.950 . S
C3556 C3555 1.398 . S
C3556 C3557 1.391 . S
C3557 H3545 0.950 . S
C3557 C3553 1.393 . S
C3557 C3556 1.391 . S
C3558 H3548 0.950 . S
C3558 C3559 1.386 . S
C3558 C3560 1.391 . S
C3559 C3558 1.386 . S
C3559 C3563 1.393 . S
C3560 H3549 0.950 . S
C3560 C3558 1.391 . S
C3560 C3561 1.400 . S
C3561 C3555 1.491 1_565 S
C3561 C3560 1.400 . S
C3561 C3562 1.398 . S
C3562 H3550 0.950 . S
C3562 C3561 1.398 . S
C3562 C3563 1.391 . S
C3563 H3551 0.950 . S
C3563 C3559 1.393 . S
C3563 C3562 1.391 . S
H3564 C3572 0.950 . S
H3565 C3577 0.950 . S
H3566 C3574 0.950 . S
H3567 C3576 0.950 . S
H3568 C3578 0.950 . S
H3569 C3580 0.950 . S
H3570 C3582 0.950 . S
H3571 C3583 0.950 . S
C3572 H3564 0.950 . S
C3572 C3573 1.386 . S
C3572 C3574 1.391 . S
C3573 C3572 1.386 . S
C3573 C3577 1.393 . S
C3574 H3566 0.950 . S
C3574 C3572 1.391 . S
C3574 C3575 1.400 . S
C3575 C3574 1.400 . S
C3575 C3576 1.398 . S
C3575 C3581 1.491 1_655 S
C3576 H3567 0.950 . S
C3576 C3575 1.398 . S
C3576 C3577 1.391 . S
C3577 H3565 0.950 . S
C3577 C3573 1.393 . S
C3577 C3576 1.391 . S
C3578 H3568 0.950 . S
C3578 C3579 1.386 . S
C3578 C3580 1.391 . S
C3579 C3578 1.386 . S
C3579 C3583 1.393 . S
C3580 H3569 0.950 . S
C3580 C3578 1.391 . S
C3580 C3581 1.400 . S
C3581 C3575 1.491 1_455 S
C3581 C3580 1.400 . S
C3581 C3582 1.398 . S
C3582 H3570 0.950 . S
C3582 C3581 1.398 . S
C3582 C3583 1.391 . S
C3583 H3571 0.950 . S
C3583 C3579 1.393 . S
C3583 C3582 1.391 . S
H3584 C3592 0.950 . S
H3585 C3597 0.950 . S
H3586 C3594 0.950 . S
H3587 C3596 0.950 . S
H3588 C3598 0.950 . S
H3589 C3600 0.950 . S
H3590 C3602 0.950 . S
H3591 C3603 0.950 . S
C3592 H3584 0.950 . S
C3592 C3593 1.386 . S
C3592 C3594 1.391 . S
C3593 C3592 1.386 . S
C3593 C3597 1.393 . S
C3594 H3586 0.950 . S
C3594 C3592 1.391 . S
C3594 C3595 1.400 . S
C3595 C3594 1.400 . S
C3595 C3596 1.398 . S
C3595 C3601 1.491 1_554 S
C3596 H3587 0.950 . S
C3596 C3595 1.398 . S
C3596 C3597 1.391 . S
C3597 H3585 0.950 . S
C3597 C3593 1.393 . S
C3597 C3596 1.391 . S
C3598 H3588 0.950 . S
C3598 C3599 1.386 . S
C3598 C3600 1.391 . S
C3599 C3598 1.386 . S
C3599 C3603 1.393 . S
C3600 H3589 0.950 . S
C3600 C3598 1.391 . S
C3600 C3601 1.400 . S
C3601 C3595 1.491 1_556 S
C3601 C3600 1.400 . S
C3601 C3602 1.398 . S
C3602 H3590 0.950 . S
C3602 C3601 1.398 . S
C3602 C3603 1.391 . S
C3603 H3591 0.950 . S
C3603 C3599 1.393 . S
C3603 C3602 1.391 . S
H3604 C3612 0.950 . S
H3605 C3617 0.950 . S
H3606 C3614 0.950 . S
H3607 C3616 0.950 . S
H3608 C3618 0.950 . S
H3609 C3620 0.950 . S
H3610 C3622 0.950 . S
H3611 C3623 0.950 . S
C3612 H3604 0.950 . S
C3612 C3613 1.386 . S
C3612 C3614 1.391 . S
C3613 C3612 1.386 . S
C3613 C3617 1.393 . S
C3614 H3606 0.950 . S
C3614 C3612 1.391 . S
C3614 C3615 1.400 . S
C3615 C3614 1.400 . S
C3615 C3616 1.398 . S
C3615 C3621 1.491 1_556 S
C3616 H3607 0.950 . S
C3616 C3615 1.398 . S
C3616 C3617 1.391 . S
C3617 H3605 0.950 . S
C3617 C3613 1.393 . S
C3617 C3616 1.391 . S
C3618 H3608 0.950 . S
C3618 C3619 1.386 . S
C3618 C3620 1.391 . S
C3619 C3618 1.386 . S
C3619 C3623 1.393 . S
C3620 H3609 0.950 . S
C3620 C3618 1.391 . S
C3620 C3621 1.400 . S
C3621 C3615 1.491 1_554 S
C3621 C3620 1.400 . S
C3621 C3622 1.398 . S
C3622 H3610 0.950 . S
C3622 C3621 1.398 . S
C3622 C3623 1.391 . S
C3623 H3611 0.950 . S
C3623 C3619 1.393 . S
C3623 C3622 1.391 . S
H3624 C3632 0.950 . S
H3625 C3637 0.950 . S
H3626 C3634 0.950 . S
H3627 C3636 0.950 . S
H3628 C3638 0.950 . S
H3629 C3640 0.950 . S
H3630 C3642 0.950 . S
H3631 C3643 0.950 . S
C3632 H3624 0.950 . S
C3632 C3633 1.386 . S
C3632 C3634 1.391 . S
C3633 C3632 1.386 . S
C3633 C3637 1.393 . S
C3634 H3626 0.950 . S
C3634 C3632 1.391 . S
C3634 C3635 1.400 . S
C3635 C3634 1.400 . S
C3635 C3636 1.398 . S
C3635 C3641 1.491 1_554 S
C3636 H3627 0.950 . S
C3636 C3635 1.398 . S
C3636 C3637 1.391 . S
C3637 H3625 0.950 . S
C3637 C3633 1.393 . S
C3637 C3636 1.391 . S
C3638 H3628 0.950 . S
C3638 C3639 1.386 . S
C3638 C3640 1.391 . S
C3639 C3638 1.386 . S
C3639 C3643 1.393 . S
C3640 H3629 0.950 . S
C3640 C3638 1.391 . S
C3640 C3641 1.400 . S
C3641 C3635 1.491 1_556 S
C3641 C3640 1.400 . S
C3641 C3642 1.398 . S
C3642 H3630 0.950 . S
C3642 C3641 1.398 . S
C3642 C3643 1.391 . S
C3643 H3631 0.950 . S
C3643 C3639 1.393 . S
C3643 C3642 1.391 . S
H3644 C3652 0.950 . S
H3645 C3657 0.950 . S
H3646 C3654 0.950 . S
H3647 C3656 0.950 . S
H3648 C3658 0.950 . S
H3649 C3660 0.950 . S
H3650 C3662 0.950 . S
H3651 C3663 0.950 . S
C3652 H3644 0.950 . S
C3652 C3653 1.386 . S
C3652 C3654 1.391 . S
C3653 C3652 1.386 . S
C3653 C3657 1.393 . S
C3654 H3646 0.950 . S
C3654 C3652 1.391 . S
C3654 C3655 1.400 . S
C3655 C3654 1.400 . S
C3655 C3656 1.398 . S
C3655 C3661 1.491 1_556 S
C3656 H3647 0.950 . S
C3656 C3655 1.398 . S
C3656 C3657 1.391 . S
C3657 H3645 0.950 . S
C3657 C3653 1.393 . S
C3657 C3656 1.391 . S
C3658 H3648 0.950 . S
C3658 C3659 1.386 . S
C3658 C3660 1.391 . S
C3659 C3658 1.386 . S
C3659 C3663 1.393 . S
C3660 H3649 0.950 . S
C3660 C3658 1.391 . S
C3660 C3661 1.400 . S
C3661 C3655 1.491 1_554 S
C3661 C3660 1.400 . S
C3661 C3662 1.398 . S
C3662 H3650 0.950 . S
C3662 C3661 1.398 . S
C3662 C3663 1.391 . S
C3663 H3651 0.950 . S
C3663 C3659 1.393 . S
C3663 C3662 1.391 . S
H3664 C3672 0.950 . S
H3665 C3677 0.950 . S
H3666 C3674 0.950 . S
H3667 C3676 0.950 . S
H3668 C3678 0.950 . S
H3669 C3680 0.950 . S
H3670 C3682 0.950 . S
H3671 C3683 0.950 . S
C3672 H3664 0.950 . S
C3672 C3673 1.386 . S
C3672 C3674 1.391 . S
C3673 C3672 1.386 . S
C3673 C3677 1.393 . S
C3674 H3666 0.950 . S
C3674 C3672 1.391 . S
C3674 C3675 1.400 . S
C3675 C3674 1.400 . S
C3675 C3676 1.398 . S
C3675 C3681 1.491 1_554 S
C3676 H3667 0.950 . S
C3676 C3675 1.398 . S
C3676 C3677 1.391 . S
C3677 H3665 0.950 . S
C3677 C3673 1.393 . S
C3677 C3676 1.391 . S
C3678 H3668 0.950 . S
C3678 C3679 1.386 . S
C3678 C3680 1.391 . S
C3679 C3678 1.386 . S
C3679 C3683 1.393 . S
C3680 H3669 0.950 . S
C3680 C3678 1.391 . S
C3680 C3681 1.400 . S
C3681 C3675 1.491 1_556 S
C3681 C3680 1.400 . S
C3681 C3682 1.398 . S
C3682 H3670 0.950 . S
C3682 C3681 1.398 . S
C3682 C3683 1.391 . S
C3683 H3671 0.950 . S
C3683 C3679 1.393 . S
C3683 C3682 1.391 . S
H3684 C3692 0.950 . S
H3685 C3697 0.950 . S
H3686 C3694 0.950 . S
H3687 C3696 0.950 . S
H3688 C3698 0.950 . S
H3689 C3700 0.950 . S
H3690 C3702 0.950 . S
H3691 C3703 0.950 . S
C3692 H3684 0.950 . S
C3692 C3693 1.386 . S
C3692 C3694 1.391 . S
C3693 C3692 1.386 . S
C3693 C3697 1.393 . S
C3694 H3686 0.950 . S
C3694 C3692 1.391 . S
C3694 C3695 1.400 . S
C3695 C3694 1.400 . S
C3695 C3696 1.398 . S
C3695 C3701 1.491 1_554 S
C3696 H3687 0.950 . S
C3696 C3695 1.398 . S
C3696 C3697 1.391 . S
C3697 H3685 0.950 . S
C3697 C3693 1.393 . S
C3697 C3696 1.391 . S
C3698 H3688 0.950 . S
C3698 C3699 1.386 . S
C3698 C3700 1.391 . S
C3699 C3698 1.386 . S
C3699 C3703 1.393 . S
C3700 H3689 0.950 . S
C3700 C3698 1.391 . S
C3700 C3701 1.400 . S
C3701 C3695 1.491 1_556 S
C3701 C3700 1.400 . S
C3701 C3702 1.398 . S
C3702 H3690 0.950 . S
C3702 C3701 1.398 . S
C3702 C3703 1.391 . S
C3703 H3691 0.950 . S
C3703 C3699 1.393 . S
C3703 C3702 1.391 . S
H3704 C3712 0.950 . S
H3705 C3717 0.950 . S
H3706 C3714 0.950 . S
H3707 C3716 0.950 . S
H3708 C3718 0.950 . S
H3709 C3720 0.950 . S
H3710 C3722 0.950 . S
H3711 C3723 0.950 . S
C3712 H3704 0.950 . S
C3712 C3713 1.386 . S
C3712 C3714 1.391 . S
C3713 C3712 1.386 . S
C3713 C3717 1.393 . S
C3714 H3706 0.950 . S
C3714 C3712 1.391 . S
C3714 C3715 1.400 . S
C3715 C3714 1.400 . S
C3715 C3716 1.398 . S
C3715 C3721 1.491 1_554 S
C3716 H3707 0.950 . S
C3716 C3715 1.398 . S
C3716 C3717 1.391 . S
C3717 H3705 0.950 . S
C3717 C3713 1.393 . S
C3717 C3716 1.391 . S
C3718 H3708 0.950 . S
C3718 C3719 1.386 . S
C3718 C3720 1.391 . S
C3719 C3718 1.386 . S
C3719 C3723 1.393 . S
C3720 H3709 0.950 . S
C3720 C3718 1.391 . S
C3720 C3721 1.400 . S
C3721 C3715 1.491 1_556 S
C3721 C3720 1.400 . S
C3721 C3722 1.398 . S
C3722 H3710 0.950 . S
C3722 C3721 1.398 . S
C3722 C3723 1.391 . S
C3723 H3711 0.950 . S
C3723 C3719 1.393 . S
C3723 C3722 1.391 . S
H3724 C3732 0.950 . S
H3725 C3737 0.950 . S
H3726 C3734 0.950 . S
H3727 C3736 0.950 . S
H3728 C3738 0.950 . S
H3729 C3740 0.950 . S
H3730 C3742 0.950 . S
H3731 C3743 0.950 . S
C3732 H3724 0.950 . S
C3732 C3733 1.386 . S
C3732 C3734 1.391 . S
C3733 C3732 1.386 . S
C3733 C3737 1.393 . S
C3734 H3726 0.950 . S
C3734 C3732 1.391 . S
C3734 C3735 1.400 . S
C3735 C3734 1.400 . S
C3735 C3736 1.398 . S
C3735 C3741 1.491 1_556 S
C3736 H3727 0.950 . S
C3736 C3735 1.398 . S
C3736 C3737 1.391 . S
C3737 H3725 0.950 . S
C3737 C3733 1.393 . S
C3737 C3736 1.391 . S
C3738 H3728 0.950 . S
C3738 C3739 1.386 . S
C3738 C3740 1.391 . S
C3739 C3738 1.386 . S
C3739 C3743 1.393 . S
C3740 H3729 0.950 . S
C3740 C3738 1.391 . S
C3740 C3741 1.400 . S
C3741 C3735 1.491 1_554 S
C3741 C3740 1.400 . S
C3741 C3742 1.398 . S
C3742 H3730 0.950 . S
C3742 C3741 1.398 . S
C3742 C3743 1.391 . S
C3743 H3731 0.950 . S
C3743 C3739 1.393 . S
C3743 C3742 1.391 . S
H3744 C3752 0.950 . S
H3745 C3757 0.950 . S
H3746 C3754 0.950 . S
H3747 C3756 0.950 . S
H3748 C3758 0.950 . S
H3749 C3760 0.950 . S
H3750 C3762 0.950 . S
H3751 C3763 0.950 . S
C3752 H3744 0.950 . S
C3752 C3753 1.386 . S
C3752 C3754 1.391 . S
C3753 C3752 1.386 . S
C3753 C3757 1.393 . S
C3754 H3746 0.950 . S
C3754 C3752 1.391 . S
C3754 C3755 1.400 . S
C3755 C3754 1.400 . S
C3755 C3756 1.398 . S
C3755 C3761 1.491 . S
C3756 H3747 0.950 . S
C3756 C3755 1.398 . S
C3756 C3757 1.391 . S
C3757 H3745 0.950 . S
C3757 C3753 1.393 . S
C3757 C3756 1.391 . S
C3758 H3748 0.950 . S
C3758 C3759 1.386 . S
C3758 C3760 1.391 . S
C3759 C3758 1.386 . S
C3759 C3763 1.393 . S
C3760 H3749 0.950 . S
C3760 C3758 1.391 . S
C3760 C3761 1.400 . S
C3761 C3755 1.491 . S
C3761 C3760 1.400 . S
C3761 C3762 1.398 . S
C3762 H3750 0.950 . S
C3762 C3761 1.398 . S
C3762 C3763 1.391 . S
C3763 H3751 0.950 . S
C3763 C3759 1.393 . S
C3763 C3762 1.391 . S
H3764 C3772 0.950 . S
H3765 C3777 0.950 . S
H3766 C3774 0.950 . S
H3767 C3776 0.950 . S
H3768 C3778 0.950 . S
H3769 C3780 0.950 . S
H3770 C3782 0.950 . S
H3771 C3783 0.950 . S
C3772 H3764 0.950 . S
C3772 C3773 1.386 . S
C3772 C3774 1.391 . S
C3773 C3772 1.386 . S
C3773 C3777 1.393 . S
C3774 H3766 0.950 . S
C3774 C3772 1.391 . S
C3774 C3775 1.400 . S
C3775 C3774 1.400 . S
C3775 C3776 1.398 . S
C3775 C3781 1.491 . S
C3776 H3767 0.950 . S
C3776 C3775 1.398 . S
C3776 C3777 1.391 . S
C3777 H3765 0.950 . S
C3777 C3773 1.393 . S
C3777 C3776 1.391 . S
C3778 H3768 0.950 . S
C3778 C3779 1.386 . S
C3778 C3780 1.391 . S
C3779 C3778 1.386 . S
C3779 C3783 1.393 . S
C3780 H3769 0.950 . S
C3780 C3778 1.391 . S
C3780 C3781 1.400 . S
C3781 C3775 1.491 . S
C3781 C3780 1.400 . S
C3781 C3782 1.398 . S
C3782 H3770 0.950 . S
C3782 C3781 1.398 . S
C3782 C3783 1.391 . S
C3783 H3771 0.950 . S
C3783 C3779 1.393 . S
C3783 C3782 1.391 . S
H3784 C3792 0.950 . S
H3785 C3797 0.950 . S
H3786 C3794 0.950 . S
H3787 C3796 0.950 . S
H3788 C3798 0.950 . S
H3789 C3800 0.950 . S
H3790 C3802 0.950 . S
H3791 C3803 0.950 . S
C3792 H3784 0.950 . S
C3792 C3793 1.386 . S
C3792 C3794 1.391 . S
C3793 C3792 1.386 . S
C3793 C3797 1.393 . S
C3794 H3786 0.950 . S
C3794 C3792 1.391 . S
C3794 C3795 1.400 . S
C3795 C3794 1.400 . S
C3795 C3796 1.398 . S
C3795 C3801 1.491 . S
C3796 H3787 0.950 . S
C3796 C3795 1.398 . S
C3796 C3797 1.391 . S
C3797 H3785 0.950 . S
C3797 C3793 1.393 . S
C3797 C3796 1.391 . S
C3798 H3788 0.950 . S
C3798 C3799 1.386 . S
C3798 C3800 1.391 . S
C3799 C3798 1.386 . S
C3799 C3803 1.393 . S
C3800 H3789 0.950 . S
C3800 C3798 1.391 . S
C3800 C3801 1.400 . S
C3801 C3795 1.491 . S
C3801 C3800 1.400 . S
C3801 C3802 1.398 . S
C3802 H3790 0.950 . S
C3802 C3801 1.398 . S
C3802 C3803 1.391 . S
C3803 H3791 0.950 . S
C3803 C3799 1.393 . S
C3803 C3802 1.391 . S
H3804 C3812 0.950 . S
H3805 C3817 0.950 . S
H3806 C3814 0.950 . S
H3807 C3816 0.950 . S
H3808 C3818 0.950 . S
H3809 C3820 0.950 . S
H3810 C3822 0.950 . S
H3811 C3823 0.950 . S
C3812 H3804 0.950 . S
C3812 C3813 1.386 . S
C3812 C3814 1.391 . S
C3813 C3812 1.386 . S
C3813 C3817 1.393 . S
C3814 H3806 0.950 . S
C3814 C3812 1.391 . S
C3814 C3815 1.400 . S
C3815 C3814 1.400 . S
C3815 C3816 1.398 . S
C3815 C3821 1.491 . S
C3816 H3807 0.950 . S
C3816 C3815 1.398 . S
C3816 C3817 1.391 . S
C3817 H3805 0.950 . S
C3817 C3813 1.393 . S
C3817 C3816 1.391 . S
C3818 H3808 0.950 . S
C3818 C3819 1.386 . S
C3818 C3820 1.391 . S
C3819 C3818 1.386 . S
C3819 C3823 1.393 . S
C3820 H3809 0.950 . S
C3820 C3818 1.391 . S
C3820 C3821 1.400 . S
C3821 C3815 1.491 . S
C3821 C3820 1.400 . S
C3821 C3822 1.398 . S
C3822 H3810 0.950 . S
C3822 C3821 1.398 . S
C3822 C3823 1.391 . S
C3823 H3811 0.950 . S
C3823 C3819 1.393 . S
C3823 C3822 1.391 . S
H3824 C3832 0.950 . S
H3825 C3837 0.950 . S
H3826 C3834 0.950 . S
H3827 C3836 0.950 . S
H3828 C3838 0.950 . S
H3829 C3840 0.950 . S
H3830 C3842 0.950 . S
H3831 C3843 0.950 . S
C3832 H3824 0.950 . S
C3832 C3833 1.386 . S
C3832 C3834 1.391 . S
C3833 C3832 1.386 . S
C3833 C3837 1.393 . S
C3834 H3826 0.950 . S
C3834 C3832 1.391 . S
C3834 C3835 1.400 . S
C3835 C3834 1.400 . S
C3835 C3836 1.398 . S
C3835 C3841 1.491 . S
C3836 H3827 0.950 . S
C3836 C3835 1.398 . S
C3836 C3837 1.391 . S
C3837 H3825 0.950 . S
C3837 C3833 1.393 . S
C3837 C3836 1.391 . S
C3838 H3828 0.950 . S
C3838 C3839 1.386 . S
C3838 C3840 1.391 . S
C3839 C3838 1.386 . S
C3839 C3843 1.393 . S
C3840 H3829 0.950 . S
C3840 C3838 1.391 . S
C3840 C3841 1.400 . S
C3841 C3835 1.491 . S
C3841 C3840 1.400 . S
C3841 C3842 1.398 . S
C3842 H3830 0.950 . S
C3842 C3841 1.398 . S
C3842 C3843 1.391 . S
C3843 H3831 0.950 . S
C3843 C3839 1.393 . S
C3843 C3842 1.391 . S
H3844 C3852 0.950 . S
H3845 C3857 0.950 . S
H3846 C3854 0.950 . S
H3847 C3856 0.950 . S
H3848 C3858 0.950 . S
H3849 C3860 0.950 . S
H3850 C3862 0.950 . S
H3851 C3863 0.950 . S
C3852 H3844 0.950 . S
C3852 C3853 1.386 . S
C3852 C3854 1.391 . S
C3853 C3852 1.386 . S
C3853 C3857 1.393 . S
C3854 H3846 0.950 . S
C3854 C3852 1.391 . S
C3854 C3855 1.400 . S
C3855 C3854 1.400 . S
C3855 C3856 1.398 . S
C3855 C3861 1.491 . S
C3856 H3847 0.950 . S
C3856 C3855 1.398 . S
C3856 C3857 1.391 . S
C3857 H3845 0.950 . S
C3857 C3853 1.393 . S
C3857 C3856 1.391 . S
C3858 H3848 0.950 . S
C3858 C3859 1.386 . S
C3858 C3860 1.391 . S
C3859 C3858 1.386 . S
C3859 C3863 1.393 . S
C3860 H3849 0.950 . S
C3860 C3858 1.391 . S
C3860 C3861 1.400 . S
C3861 C3855 1.491 . S
C3861 C3860 1.400 . S
C3861 C3862 1.398 . S
C3862 H3850 0.950 . S
C3862 C3861 1.398 . S
C3862 C3863 1.391 . S
C3863 H3851 0.950 . S
C3863 C3859 1.393 . S
C3863 C3862 1.391 . S
H3864 C3872 0.950 . S
H3865 C3877 0.950 . S
H3866 C3874 0.950 . S
H3867 C3876 0.950 . S
H3868 C3878 0.950 . S
H3869 C3880 0.950 . S
H3870 C3882 0.950 . S
H3871 C3883 0.950 . S
C3872 H3864 0.950 . S
C3872 C3873 1.386 . S
C3872 C3874 1.391 . S
C3873 C3872 1.386 . S
C3873 C3877 1.393 . S
C3874 H3866 0.950 . S
C3874 C3872 1.391 . S
C3874 C3875 1.400 . S
C3875 C3874 1.400 . S
C3875 C3876 1.398 . S
C3875 C3881 1.491 . S
C3876 H3867 0.950 . S
C3876 C3875 1.398 . S
C3876 C3877 1.391 . S
C3877 H3865 0.950 . S
C3877 C3873 1.393 . S
C3877 C3876 1.391 . S
C3878 H3868 0.950 . S
C3878 C3879 1.386 . S
C3878 C3880 1.391 . S
C3879 C3878 1.386 . S
C3879 C3883 1.393 . S
C3880 H3869 0.950 . S
C3880 C3878 1.391 . S
C3880 C3881 1.400 . S
C3881 C3875 1.491 . S
C3881 C3880 1.400 . S
C3881 C3882 1.398 . S
C3882 H3870 0.950 . S
C3882 C3881 1.398 . S
C3882 C3883 1.391 . S
C3883 H3871 0.950 . S
C3883 C3879 1.393 . S
C3883 C3882 1.391 . S
H3884 C3892 0.950 . S
H3885 C3897 0.950 . S
H3886 C3894 0.950 . S
H3887 C3896 0.950 . S
H3888 C3898 0.950 . S
H3889 C3900 0.950 . S
H3890 C3902 0.950 . S
H3891 C3903 0.950 . S
C3892 H3884 0.950 . S
C3892 C3893 1.386 . S
C3892 C3894 1.391 . S
C3893 C3892 1.386 . S
C3893 C3897 1.393 . S
C3894 H3886 0.950 . S
C3894 C3892 1.391 . S
C3894 C3895 1.400 . S
C3895 C3894 1.400 . S
C3895 C3896 1.398 . S
C3895 C3901 1.491 . S
C3896 H3887 0.950 . S
C3896 C3895 1.398 . S
C3896 C3897 1.391 . S
C3897 H3885 0.950 . S
C3897 C3893 1.393 . S
C3897 C3896 1.391 . S
C3898 H3888 0.950 . S
C3898 C3899 1.386 . S
C3898 C3900 1.391 . S
C3899 C3898 1.386 . S
C3899 C3903 1.393 . S
C3900 H3889 0.950 . S
C3900 C3898 1.391 . S
C3900 C3901 1.400 . S
C3901 C3895 1.491 . S
C3901 C3900 1.400 . S
C3901 C3902 1.398 . S
C3902 H3890 0.950 . S
C3902 C3901 1.398 . S
C3902 C3903 1.391 . S
C3903 H3891 0.950 . S
C3903 C3899 1.393 . S
C3903 C3902 1.391 . S
H3904 C3912 0.950 . S
H3905 C3917 0.950 . S
H3906 C3914 0.950 . S
H3907 C3916 0.950 . S
H3908 C3918 0.950 . S
H3909 C3920 0.950 . S
H3910 C3922 0.950 . S
H3911 C3923 0.950 . S
C3912 H3904 0.950 . S
C3912 C3913 1.386 . S
C3912 C3914 1.391 . S
C3913 C3912 1.386 . S
C3913 C3917 1.393 . S
C3914 H3906 0.950 . S
C3914 C3912 1.391 . S
C3914 C3915 1.400 . S
C3915 C3914 1.400 . S
C3915 C3916 1.398 . S
C3915 C3921 1.491 . S
C3916 H3907 0.950 . S
C3916 C3915 1.398 . S
C3916 C3917 1.391 . S
C3917 H3905 0.950 . S
C3917 C3913 1.393 . S
C3917 C3916 1.391 . S
C3918 H3908 0.950 . S
C3918 C3919 1.386 . S
C3918 C3920 1.391 . S
C3919 C3918 1.386 . S
C3919 C3923 1.393 . S
C3920 H3909 0.950 . S
C3920 C3918 1.391 . S
C3920 C3921 1.400 . S
C3921 C3915 1.491 . S
C3921 C3920 1.400 . S
C3921 C3922 1.398 . S
C3922 H3910 0.950 . S
C3922 C3921 1.398 . S
C3922 C3923 1.391 . S
C3923 H3911 0.950 . S
C3923 C3919 1.393 . S
C3923 C3922 1.391 . S
H3924 C3932 0.950 . S
H3925 C3937 0.950 . S
H3926 C3934 0.950 . S
H3927 C3936 0.950 . S
H3928 C3938 0.950 . S
H3929 C3940 0.950 . S
H3930 C3942 0.950 . S
H3931 C3943 0.950 . S
C3932 H3924 0.950 . S
C3932 C3933 1.386 . S
C3932 C3934 1.391 . S
C3933 C3932 1.386 . S
C3933 C3937 1.393 . S
C3934 H3926 0.950 . S
C3934 C3932 1.391 . S
C3934 C3935 1.400 . S
C3935 C3934 1.400 . S
C3935 C3936 1.398 . S
C3935 C3941 1.491 . S
C3936 H3927 0.950 . S
C3936 C3935 1.398 . S
C3936 C3937 1.391 . S
C3937 H3925 0.950 . S
C3937 C3933 1.393 . S
C3937 C3936 1.391 . S
C3938 H3928 0.950 . S
C3938 C3939 1.386 . S
C3938 C3940 1.391 . S
C3939 C3938 1.386 . S
C3939 C3943 1.393 . S
C3940 H3929 0.950 . S
C3940 C3938 1.391 . S
C3940 C3941 1.400 . S
C3941 C3935 1.491 . S
C3941 C3940 1.400 . S
C3941 C3942 1.398 . S
C3942 H3930 0.950 . S
C3942 C3941 1.398 . S
C3942 C3943 1.391 . S
C3943 H3931 0.950 . S
C3943 C3939 1.393 . S
C3943 C3942 1.391 . S
H3944 C3952 0.950 . S
H3945 C3957 0.950 . S
H3946 C3954 0.950 . S
H3947 C3956 0.950 . S
H3948 C3958 0.950 . S
H3949 C3960 0.950 . S
H3950 C3962 0.950 . S
H3951 C3963 0.950 . S
C3952 H3944 0.950 . S
C3952 C3953 1.386 . S
C3952 C3954 1.391 . S
C3953 C3952 1.386 . S
C3953 C3957 1.393 . S
C3954 H3946 0.950 . S
C3954 C3952 1.391 . S
C3954 C3955 1.400 . S
C3955 C3954 1.400 . S
C3955 C3956 1.398 . S
C3955 C3961 1.491 . S
C3956 H3947 0.950 . S
C3956 C3955 1.398 . S
C3956 C3957 1.391 . S
C3957 H3945 0.950 . S
C3957 C3953 1.393 . S
C3957 C3956 1.391 . S
C3958 H3948 0.950 . S
C3958 C3959 1.386 . S
C3958 C3960 1.391 . S
C3959 C3958 1.386 . S
C3959 C3963 1.393 . S
C3960 H3949 0.950 . S
C3960 C3958 1.391 . S
C3960 C3961 1.400 . S
C3961 C3955 1.491 . S
C3961 C3960 1.400 . S
C3961 C3962 1.398 . S
C3962 H3950 0.950 . S
C3962 C3961 1.398 . S
C3962 C3963 1.391 . S
C3963 H3951 0.950 . S
C3963 C3959 1.393 . S
C3963 C3962 1.391 . S
H3964 C3972 0.950 . S
H3965 C3977 0.950 . S
H3966 C3974 0.950 . S
H3967 C3976 0.950 . S
H3968 C3978 0.950 . S
H3969 C3980 0.950 . S
H3970 C3982 0.950 . S
H3971 C3983 0.950 . S
C3972 H3964 0.950 . S
C3972 C3973 1.386 . S
C3972 C3974 1.391 . S
C3973 C3972 1.386 . S
C3973 C3977 1.393 . S
C3974 H3966 0.950 . S
C3974 C3972 1.391 . S
C3974 C3975 1.400 . S
C3975 C3974 1.400 . S
C3975 C3976 1.398 . S
C3975 C3981 1.491 . S
C3976 H3967 0.950 . S
C3976 C3975 1.398 . S
C3976 C3977 1.391 . S
C3977 H3965 0.950 . S
C3977 C3973 1.393 . S
C3977 C3976 1.391 . S
C3978 H3968 0.950 . S
C3978 C3979 1.386 . S
C3978 C3980 1.391 . S
C3979 C3978 1.386 . S
C3979 C3983 1.393 . S
C3980 H3969 0.950 . S
C3980 C3978 1.391 . S
C3980 C3981 1.400 . S
C3981 C3975 1.491 . S
C3981 C3980 1.400 . S
C3981 C3982 1.398 . S
C3982 H3970 0.950 . S
C3982 C3981 1.398 . S
C3982 C3983 1.391 . S
C3983 H3971 0.950 . S
C3983 C3979 1.393 . S
C3983 C3982 1.391 . S
H3984 C3992 0.950 . S
H3985 C3997 0.950 . S
H3986 C3994 0.950 . S
H3987 C3996 0.950 . S
H3988 C3998 0.950 . S
H3989 C4000 0.950 . S
H3990 C4002 0.950 . S
H3991 C4003 0.950 . S
C3992 H3984 0.950 . S
C3992 C3993 1.386 . S
C3992 C3994 1.391 . S
C3993 C3992 1.386 . S
C3993 C3997 1.393 . S
C3994 H3986 0.950 . S
C3994 C3992 1.391 . S
C3994 C3995 1.400 . S
C3995 C3994 1.400 . S
C3995 C3996 1.398 . S
C3995 C4001 1.491 . S
C3996 H3987 0.950 . S
C3996 C3995 1.398 . S
C3996 C3997 1.391 . S
C3997 H3985 0.950 . S
C3997 C3993 1.393 . S
C3997 C3996 1.391 . S
C3998 H3988 0.950 . S
C3998 C3999 1.386 . S
C3998 C4000 1.391 . S
C3999 C3998 1.386 . S
C3999 C4003 1.393 . S
C4000 H3989 0.950 . S
C4000 C3998 1.391 . S
C4000 C4001 1.400 . S
C4001 C3995 1.491 . S
C4001 C4000 1.400 . S
C4001 C4002 1.398 . S
C4002 H3990 0.950 . S
C4002 C4001 1.398 . S
C4002 C4003 1.391 . S
C4003 H3991 0.950 . S
C4003 C3999 1.393 . S
C4003 C4002 1.391 . S
H4004 C4012 0.950 . S
H4005 C4017 0.950 . S
H4006 C4014 0.950 . S
H4007 C4016 0.950 . S
H4008 C4018 0.950 . S
H4009 C4020 0.950 . S
H4010 C4022 0.950 . S
H4011 C4023 0.950 . S
C4012 H4004 0.950 . S
C4012 C4013 1.386 . S
C4012 C4014 1.391 . S
C4013 C4012 1.386 . S
C4013 C4017 1.393 . S
C4014 H4006 0.950 . S
C4014 C4012 1.391 . S
C4014 C4015 1.400 . S
C4015 C4014 1.400 . S
C4015 C4016 1.398 . S
C4015 C4021 1.491 . S
C4016 H4007 0.950 . S
C4016 C4015 1.398 . S
C4016 C4017 1.391 . S
C4017 H4005 0.950 . S
C4017 C4013 1.393 . S
C4017 C4016 1.391 . S
C4018 H4008 0.950 . S
C4018 C4019 1.386 . S
C4018 C4020 1.391 . S
C4019 C4018 1.386 . S
C4019 C4023 1.393 . S
C4020 H4009 0.950 . S
C4020 C4018 1.391 . S
C4020 C4021 1.400 . S
C4021 C4015 1.491 . S
C4021 C4020 1.400 . S
C4021 C4022 1.398 . S
C4022 H4010 0.950 . S
C4022 C4021 1.398 . S
C4022 C4023 1.391 . S
C4023 H4011 0.950 . S
C4023 C4019 1.393 . S
C4023 C4022 1.391 . S
H4024 C4032 0.950 . S
H4025 C4037 0.950 . S
H4026 C4034 0.950 . S
H4027 C4036 0.950 . S
H4028 C4038 0.950 . S
H4029 C4040 0.950 . S
H4030 C4042 0.950 . S
H4031 C4043 0.950 . S
C4032 H4024 0.950 . S
C4032 C4033 1.386 . S
C4032 C4034 1.391 . S
C4033 C4032 1.386 . S
C4033 C4037 1.393 . S
C4034 H4026 0.950 . S
C4034 C4032 1.391 . S
C4034 C4035 1.400 . S
C4035 C4034 1.400 . S
C4035 C4036 1.398 . S
C4035 C4041 1.491 . S
C4036 H4027 0.950 . S
C4036 C4035 1.398 . S
C4036 C4037 1.391 . S
C4037 H4025 0.950 . S
C4037 C4033 1.393 . S
C4037 C4036 1.391 . S
C4038 H4028 0.950 . S
C4038 C4039 1.386 . S
C4038 C4040 1.391 . S
C4039 C4038 1.386 . S
C4039 C4043 1.393 . S
C4040 H4029 0.950 . S
C4040 C4038 1.391 . S
C4040 C4041 1.400 . S
C4041 C4035 1.491 . S
C4041 C4040 1.400 . S
C4041 C4042 1.398 . S
C4042 H4030 0.950 . S
C4042 C4041 1.398 . S
C4042 C4043 1.391 . S
C4043 H4031 0.950 . S
C4043 C4039 1.393 . S
C4043 C4042 1.391 . S
H4044 C4052 0.950 . S
H4045 C4057 0.950 . S
H4046 C4054 0.950 . S
H4047 C4056 0.950 . S
H4048 C4058 0.950 . S
H4049 C4060 0.950 . S
H4050 C4062 0.950 . S
H4051 C4063 0.950 . S
C4052 H4044 0.950 . S
C4052 C4053 1.386 . S
C4052 C4054 1.391 . S
C4053 C4052 1.386 . S
C4053 C4057 1.393 . S
C4054 H4046 0.950 . S
C4054 C4052 1.391 . S
C4054 C4055 1.400 . S
C4055 C4054 1.400 . S
C4055 C4056 1.398 . S
C4055 C4061 1.491 . S
C4056 H4047 0.950 . S
C4056 C4055 1.398 . S
C4056 C4057 1.391 . S
C4057 H4045 0.950 . S
C4057 C4053 1.393 . S
C4057 C4056 1.391 . S
C4058 H4048 0.950 . S
C4058 C4059 1.386 . S
C4058 C4060 1.391 . S
C4059 C4058 1.386 . S
C4059 C4063 1.393 . S
C4060 H4049 0.950 . S
C4060 C4058 1.391 . S
C4060 C4061 1.400 . S
C4061 C4055 1.491 . S
C4061 C4060 1.400 . S
C4061 C4062 1.398 . S
C4062 H4050 0.950 . S
C4062 C4061 1.398 . S
C4062 C4063 1.391 . S
C4063 H4051 0.950 . S
C4063 C4059 1.393 . S
C4063 C4062 1.391 . S
H4064 C4072 0.950 . S
H4065 C4077 0.950 . S
H4066 C4074 0.950 . S
H4067 C4076 0.950 . S
H4068 C4078 0.950 . S
H4069 C4080 0.950 . S
H4070 C4082 0.950 . S
H4071 C4083 0.950 . S
C4072 H4064 0.950 . S
C4072 C4073 1.386 . S
C4072 C4074 1.391 . S
C4073 C4072 1.386 . S
C4073 C4077 1.393 . S
C4074 H4066 0.950 . S
C4074 C4072 1.391 . S
C4074 C4075 1.400 . S
C4075 C4074 1.400 . S
C4075 C4076 1.398 . S
C4075 C4081 1.491 . S
C4076 H4067 0.950 . S
C4076 C4075 1.398 . S
C4076 C4077 1.391 . S
C4077 H4065 0.950 . S
C4077 C4073 1.393 . S
C4077 C4076 1.391 . S
C4078 H4068 0.950 . S
C4078 C4079 1.386 . S
C4078 C4080 1.391 . S
C4079 C4078 1.386 . S
C4079 C4083 1.393 . S
C4080 H4069 0.950 . S
C4080 C4078 1.391 . S
C4080 C4081 1.400 . S
C4081 C4075 1.491 . S
C4081 C4080 1.400 . S
C4081 C4082 1.398 . S
C4082 H4070 0.950 . S
C4082 C4081 1.398 . S
C4082 C4083 1.391 . S
C4083 H4071 0.950 . S
C4083 C4079 1.393 . S
C4083 C4082 1.391 . S
H4084 C4092 0.950 . S
H4085 C4097 0.950 . S
H4086 C4094 0.950 . S
H4087 C4096 0.950 . S
H4088 C4098 0.950 . S
H4089 C4100 0.950 . S
H4090 C4102 0.950 . S
H4091 C4103 0.950 . S
C4092 H4084 0.950 . S
C4092 C4093 1.386 . S
C4092 C4094 1.391 . S
C4093 C4092 1.386 . S
C4093 C4097 1.393 . S
C4094 H4086 0.950 . S
C4094 C4092 1.391 . S
C4094 C4095 1.400 . S
C4095 C4094 1.400 . S
C4095 C4096 1.398 . S
C4095 C4101 1.491 . S
C4096 H4087 0.950 . S
C4096 C4095 1.398 . S
C4096 C4097 1.391 . S
C4097 H4085 0.950 . S
C4097 C4093 1.393 . S
C4097 C4096 1.391 . S
C4098 H4088 0.950 . S
C4098 C4099 1.386 . S
C4098 C4100 1.391 . S
C4099 C4098 1.386 . S
C4099 C4103 1.393 . S
C4100 H4089 0.950 . S
C4100 C4098 1.391 . S
C4100 C4101 1.400 . S
C4101 C4095 1.491 . S
C4101 C4100 1.400 . S
C4101 C4102 1.398 . S
C4102 H4090 0.950 . S
C4102 C4101 1.398 . S
C4102 C4103 1.391 . S
C4103 H4091 0.950 . S
C4103 C4099 1.393 . S
C4103 C4102 1.391 . S
H4104 C4112 0.950 . S
H4105 C4117 0.950 . S
H4106 C4114 0.950 . S
H4107 C4116 0.950 . S
H4108 C4118 0.950 . S
H4109 C4120 0.950 . S
H4110 C4122 0.950 . S
H4111 C4123 0.950 . S
C4112 H4104 0.950 . S
C4112 C4113 1.386 . S
C4112 C4114 1.391 . S
C4113 C4112 1.386 . S
C4113 C4117 1.393 . S
C4114 H4106 0.950 . S
C4114 C4112 1.391 . S
C4114 C4115 1.400 . S
C4115 C4114 1.400 . S
C4115 C4116 1.398 . S
C4115 C4121 1.491 . S
C4116 H4107 0.950 . S
C4116 C4115 1.398 . S
C4116 C4117 1.391 . S
C4117 H4105 0.950 . S
C4117 C4113 1.393 . S
C4117 C4116 1.391 . S
C4118 H4108 0.950 . S
C4118 C4119 1.386 . S
C4118 C4120 1.391 . S
C4119 C4118 1.386 . S
C4119 C4123 1.393 . S
C4120 H4109 0.950 . S
C4120 C4118 1.391 . S
C4120 C4121 1.400 . S
C4121 C4115 1.491 . S
C4121 C4120 1.400 . S
C4121 C4122 1.398 . S
C4122 H4110 0.950 . S
C4122 C4121 1.398 . S
C4122 C4123 1.391 . S
C4123 H4111 0.950 . S
C4123 C4119 1.393 . S
C4123 C4122 1.391 . S
H4124 C4132 0.950 . S
H4125 C4137 0.950 . S
H4126 C4134 0.950 . S
H4127 C4136 0.950 . S
H4128 C4138 0.950 . S
H4129 C4140 0.950 . S
H4130 C4142 0.950 . S
H4131 C4143 0.950 . S
C4132 H4124 0.950 . S
C4132 C4133 1.386 . S
C4132 C4134 1.391 . S
C4133 C4132 1.386 . S
C4133 C4137 1.393 . S
C4134 H4126 0.950 . S
C4134 C4132 1.391 . S
C4134 C4135 1.400 . S
C4135 C4134 1.400 . S
C4135 C4136 1.398 . S
C4135 C4141 1.491 . S
C4136 H4127 0.950 . S
C4136 C4135 1.398 . S
C4136 C4137 1.391 . S
C4137 H4125 0.950 . S
C4137 C4133 1.393 . S
C4137 C4136 1.391 . S
C4138 H4128 0.950 . S
C4138 C4139 1.386 . S
C4138 C4140 1.391 . S
C4139 C4138 1.386 . S
C4139 C4143 1.393 . S
C4140 H4129 0.950 . S
C4140 C4138 1.391 . S
C4140 C4141 1.400 . S
C4141 C4135 1.491 . S
C4141 C4140 1.400 . S
C4141 C4142 1.398 . S
C4142 H4130 0.950 . S
C4142 C4141 1.398 . S
C4142 C4143 1.391 . S
C4143 H4131 0.950 . S
C4143 C4139 1.393 . S
C4143 C4142 1.391 . S
H4144 C4152 0.950 . S
H4145 C4157 0.950 . S
H4146 C4154 0.950 . S
H4147 C4156 0.950 . S
H4148 C4158 0.950 . S
H4149 C4160 0.950 . S
H4150 C4162 0.950 . S
H4151 C4163 0.950 . S
C4152 H4144 0.950 . S
C4152 C4153 1.386 . S
C4152 C4154 1.391 . S
C4153 C4152 1.386 . S
C4153 C4157 1.393 . S
C4154 H4146 0.950 . S
C4154 C4152 1.391 . S
C4154 C4155 1.400 . S
C4155 C4154 1.400 . S
C4155 C4156 1.398 . S
C4155 C4161 1.491 . S
C4156 H4147 0.950 . S
C4156 C4155 1.398 . S
C4156 C4157 1.391 . S
C4157 H4145 0.950 . S
C4157 C4153 1.393 . S
C4157 C4156 1.391 . S
C4158 H4148 0.950 . S
C4158 C4159 1.386 . S
C4158 C4160 1.391 . S
C4159 C4158 1.386 . S
C4159 C4163 1.393 . S
C4160 H4149 0.950 . S
C4160 C4158 1.391 . S
C4160 C4161 1.400 . S
C4161 C4155 1.491 . S
C4161 C4160 1.400 . S
C4161 C4162 1.398 . S
C4162 H4150 0.950 . S
C4162 C4161 1.398 . S
C4162 C4163 1.391 . S
C4163 H4151 0.950 . S
C4163 C4159 1.393 . S
C4163 C4162 1.391 . S
H4164 C4172 0.950 . S
H4165 C4177 0.950 . S
H4166 C4174 0.950 . S
H4167 C4176 0.950 . S
H4168 C4178 0.950 . S
H4169 C4180 0.950 . S
H4170 C4182 0.950 . S
H4171 C4183 0.950 . S
C4172 H4164 0.950 . S
C4172 C4173 1.386 . S
C4172 C4174 1.391 . S
C4173 C4172 1.386 . S
C4173 C4177 1.393 . S
C4174 H4166 0.950 . S
C4174 C4172 1.391 . S
C4174 C4175 1.400 . S
C4175 C4174 1.400 . S
C4175 C4176 1.398 . S
C4175 C4181 1.491 . S
C4176 H4167 0.950 . S
C4176 C4175 1.398 . S
C4176 C4177 1.391 . S
C4177 H4165 0.950 . S
C4177 C4173 1.393 . S
C4177 C4176 1.391 . S
C4178 H4168 0.950 . S
C4178 C4179 1.386 . S
C4178 C4180 1.391 . S
C4179 C4178 1.386 . S
C4179 C4183 1.393 . S
C4180 H4169 0.950 . S
C4180 C4178 1.391 . S
C4180 C4181 1.400 . S
C4181 C4175 1.491 . S
C4181 C4180 1.400 . S
C4181 C4182 1.398 . S
C4182 H4170 0.950 . S
C4182 C4181 1.398 . S
C4182 C4183 1.391 . S
C4183 H4171 0.950 . S
C4183 C4179 1.393 . S
C4183 C4182 1.391 . S
H4184 C4192 0.950 . S
H4185 C4197 0.950 . S
H4186 C4194 0.950 . S
H4187 C4196 0.950 . S
H4188 C4198 0.950 . S
H4189 C4200 0.950 . S
H4190 C4202 0.950 . S
H4191 C4203 0.950 . S
C4192 H4184 0.950 . S
C4192 C4193 1.386 . S
C4192 C4194 1.391 . S
C4193 C4192 1.386 . S
C4193 C4197 1.393 . S
C4194 H4186 0.950 . S
C4194 C4192 1.391 . S
C4194 C4195 1.400 . S
C4195 C4194 1.400 . S
C4195 C4196 1.398 . S
C4195 C4201 1.491 . S
C4196 H4187 0.950 . S
C4196 C4195 1.398 . S
C4196 C4197 1.391 . S
C4197 H4185 0.950 . S
C4197 C4193 1.393 . S
C4197 C4196 1.391 . S
C4198 H4188 0.950 . S
C4198 C4199 1.386 . S
C4198 C4200 1.391 . S
C4199 C4198 1.386 . S
C4199 C4203 1.393 . S
C4200 H4189 0.950 . S
C4200 C4198 1.391 . S
C4200 C4201 1.400 . S
C4201 C4195 1.491 . S
C4201 C4200 1.400 . S
C4201 C4202 1.398 . S
C4202 H4190 0.950 . S
C4202 C4201 1.398 . S
C4202 C4203 1.391 . S
C4203 H4191 0.950 . S
C4203 C4199 1.393 . S
C4203 C4202 1.391 . S
H4204 C4212 0.950 . S
H4205 C4217 0.950 . S
H4206 C4214 0.950 . S
H4207 C4216 0.950 . S
H4208 C4218 0.950 . S
H4209 C4220 0.950 . S
H4210 C4222 0.950 . S
H4211 C4223 0.950 . S
C4212 H4204 0.950 . S
C4212 C4213 1.386 . S
C4212 C4214 1.391 . S
C4213 C4212 1.386 . S
C4213 C4217 1.393 . S
C4214 H4206 0.950 . S
C4214 C4212 1.391 . S
C4214 C4215 1.400 . S
C4215 C4214 1.400 . S
C4215 C4216 1.398 . S
C4215 C4221 1.491 . S
C4216 H4207 0.950 . S
C4216 C4215 1.398 . S
C4216 C4217 1.391 . S
C4217 H4205 0.950 . S
C4217 C4213 1.393 . S
C4217 C4216 1.391 . S
C4218 H4208 0.950 . S
C4218 C4219 1.386 . S
C4218 C4220 1.391 . S
C4219 C4218 1.386 . S
C4219 C4223 1.393 . S
C4220 H4209 0.950 . S
C4220 C4218 1.391 . S
C4220 C4221 1.400 . S
C4221 C4215 1.491 . S
C4221 C4220 1.400 . S
C4221 C4222 1.398 . S
C4222 H4210 0.950 . S
C4222 C4221 1.398 . S
C4222 C4223 1.391 . S
C4223 H4211 0.950 . S
C4223 C4219 1.393 . S
C4223 C4222 1.391 . S
H4224 C4232 0.950 . S
H4225 C4237 0.950 . S
H4226 C4234 0.950 . S
H4227 C4236 0.950 . S
H4228 C4238 0.950 . S
H4229 C4240 0.950 . S
H4230 C4242 0.950 . S
H4231 C4243 0.950 . S
C4232 H4224 0.950 . S
C4232 C4233 1.386 . S
C4232 C4234 1.391 . S
C4233 C4232 1.386 . S
C4233 C4237 1.393 . S
C4234 H4226 0.950 . S
C4234 C4232 1.391 . S
C4234 C4235 1.400 . S
C4235 C4234 1.400 . S
C4235 C4236 1.398 . S
C4235 C4241 1.491 . S
C4236 H4227 0.950 . S
C4236 C4235 1.398 . S
C4236 C4237 1.391 . S
C4237 H4225 0.950 . S
C4237 C4233 1.393 . S
C4237 C4236 1.391 . S
C4238 H4228 0.950 . S
C4238 C4239 1.386 . S
C4238 C4240 1.391 . S
C4239 C4238 1.386 . S
C4239 C4243 1.393 . S
C4240 H4229 0.950 . S
C4240 C4238 1.391 . S
C4240 C4241 1.400 . S
C4241 C4235 1.491 . S
C4241 C4240 1.400 . S
C4241 C4242 1.398 . S
C4242 H4230 0.950 . S
C4242 C4241 1.398 . S
C4242 C4243 1.391 . S
C4243 H4231 0.950 . S
C4243 C4239 1.393 . S
C4243 C4242 1.391 . S
H4244 C4252 0.950 . S
H4245 C4257 0.950 . S
H4246 C4254 0.950 . S
H4247 C4256 0.950 . S
H4248 C4258 0.950 . S
H4249 C4260 0.950 . S
H4250 C4262 0.950 . S
H4251 C4263 0.950 . S
C4252 H4244 0.950 . S
C4252 C4253 1.386 . S
C4252 C4254 1.391 . S
C4253 C4252 1.386 . S
C4253 C4257 1.393 . S
C4254 H4246 0.950 . S
C4254 C4252 1.391 . S
C4254 C4255 1.400 . S
C4255 C4254 1.400 . S
C4255 C4256 1.398 . S
C4255 C4261 1.491 . S
C4256 H4247 0.950 . S
C4256 C4255 1.398 . S
C4256 C4257 1.391 . S
C4257 H4245 0.950 . S
C4257 C4253 1.393 . S
C4257 C4256 1.391 . S
C4258 H4248 0.950 . S
C4258 C4259 1.386 . S
C4258 C4260 1.391 . S
C4259 C4258 1.386 . S
C4259 C4263 1.393 . S
C4260 H4249 0.950 . S
C4260 C4258 1.391 . S
C4260 C4261 1.400 . S
C4261 C4255 1.491 . S
C4261 C4260 1.400 . S
C4261 C4262 1.398 . S
C4262 H4250 0.950 . S
C4262 C4261 1.398 . S
C4262 C4263 1.391 . S
C4263 H4251 0.950 . S
C4263 C4259 1.393 . S
C4263 C4262 1.391 . S
H4264 C4272 0.950 . S
H4265 C4277 0.950 . S
H4266 C4274 0.950 . S
H4267 C4276 0.950 . S
H4268 C4278 0.950 . S
H4269 C4280 0.950 . S
H4270 C4282 0.950 . S
H4271 C4283 0.950 . S
C4272 H4264 0.950 . S
C4272 C4273 1.386 . S
C4272 C4274 1.391 . S
C4273 C4272 1.386 . S
C4273 C4277 1.393 . S
C4274 H4266 0.950 . S
C4274 C4272 1.391 . S
C4274 C4275 1.400 . S
C4275 C4274 1.400 . S
C4275 C4276 1.398 . S
C4275 C4281 1.491 . S
C4276 H4267 0.950 . S
C4276 C4275 1.398 . S
C4276 C4277 1.391 . S
C4277 H4265 0.950 . S
C4277 C4273 1.393 . S
C4277 C4276 1.391 . S
C4278 H4268 0.950 . S
C4278 C4279 1.386 . S
C4278 C4280 1.391 . S
C4279 C4278 1.386 . S
C4279 C4283 1.393 . S
C4280 H4269 0.950 . S
C4280 C4278 1.391 . S
C4280 C4281 1.400 . S
C4281 C4275 1.491 . S
C4281 C4280 1.400 . S
C4281 C4282 1.398 . S
C4282 H4270 0.950 . S
C4282 C4281 1.398 . S
C4282 C4283 1.391 . S
C4283 H4271 0.950 . S
C4283 C4279 1.393 . S
C4283 C4282 1.391 . S
H4284 C4292 0.950 . S
H4285 C4297 0.950 . S
H4286 C4294 0.950 . S
H4287 C4296 0.950 . S
H4288 C4298 0.950 . S
H4289 C4300 0.950 . S
H4290 C4302 0.950 . S
H4291 C4303 0.950 . S
C4292 H4284 0.950 . S
C4292 C4293 1.386 . S
C4292 C4294 1.391 . S
C4293 C4292 1.386 . S
C4293 C4297 1.393 . S
C4294 H4286 0.950 . S
C4294 C4292 1.391 . S
C4294 C4295 1.400 . S
C4295 C4294 1.400 . S
C4295 C4296 1.398 . S
C4295 C4301 1.491 . S
C4296 H4287 0.950 . S
C4296 C4295 1.398 . S
C4296 C4297 1.391 . S
C4297 H4285 0.950 . S
C4297 C4293 1.393 . S
C4297 C4296 1.391 . S
C4298 H4288 0.950 . S
C4298 C4299 1.386 . S
C4298 C4300 1.391 . S
C4299 C4298 1.386 . S
C4299 C4303 1.393 . S
C4300 H4289 0.950 . S
C4300 C4298 1.391 . S
C4300 C4301 1.400 . S
C4301 C4295 1.491 . S
C4301 C4300 1.400 . S
C4301 C4302 1.398 . S
C4302 H4290 0.950 . S
C4302 C4301 1.398 . S
C4302 C4303 1.391 . S
C4303 H4291 0.950 . S
C4303 C4299 1.393 . S
C4303 C4302 1.391 . S
H4304 C4312 0.950 . S
H4305 C4317 0.950 . S
H4306 C4314 0.950 . S
H4307 C4316 0.950 . S
H4308 C4318 0.950 . S
H4309 C4320 0.950 . S
H4310 C4322 0.950 . S
H4311 C4323 0.950 . S
C4312 H4304 0.950 . S
C4312 C4313 1.386 . S
C4312 C4314 1.391 . S
C4313 C4312 1.386 . S
C4313 C4317 1.393 . S
C4314 H4306 0.950 . S
C4314 C4312 1.391 . S
C4314 C4315 1.400 . S
C4315 C4314 1.400 . S
C4315 C4316 1.398 . S
C4315 C4321 1.491 . S
C4316 H4307 0.950 . S
C4316 C4315 1.398 . S
C4316 C4317 1.391 . S
C4317 H4305 0.950 . S
C4317 C4313 1.393 . S
C4317 C4316 1.391 . S
C4318 H4308 0.950 . S
C4318 C4319 1.386 . S
C4318 C4320 1.391 . S
C4319 C4318 1.386 . S
C4319 C4323 1.393 . S
C4320 H4309 0.950 . S
C4320 C4318 1.391 . S
C4320 C4321 1.400 . S
C4321 C4315 1.491 . S
C4321 C4320 1.400 . S
C4321 C4322 1.398 . S
C4322 H4310 0.950 . S
C4322 C4321 1.398 . S
C4322 C4323 1.391 . S
C4323 H4311 0.950 . S
C4323 C4319 1.393 . S
C4323 C4322 1.391 . S
H4324 C4332 0.950 . S
H4325 C4337 0.950 . S
H4326 C4334 0.950 . S
H4327 C4336 0.950 . S
H4328 C4338 0.950 . S
H4329 C4340 0.950 . S
H4330 C4342 0.950 . S
H4331 C4343 0.950 . S
C4332 H4324 0.950 . S
C4332 C4333 1.386 . S
C4332 C4334 1.391 . S
C4333 C4332 1.386 . S
C4333 C4337 1.393 . S
C4334 H4326 0.950 . S
C4334 C4332 1.391 . S
C4334 C4335 1.400 . S
C4335 C4334 1.400 . S
C4335 C4336 1.398 . S
C4335 C4341 1.491 . S
C4336 H4327 0.950 . S
C4336 C4335 1.398 . S
C4336 C4337 1.391 . S
C4337 H4325 0.950 . S
C4337 C4333 1.393 . S
C4337 C4336 1.391 . S
C4338 H4328 0.950 . S
C4338 C4339 1.386 . S
C4338 C4340 1.391 . S
C4339 C4338 1.386 . S
C4339 C4343 1.393 . S
C4340 H4329 0.950 . S
C4340 C4338 1.391 . S
C4340 C4341 1.400 . S
C4341 C4335 1.491 . S
C4341 C4340 1.400 . S
C4341 C4342 1.398 . S
C4342 H4330 0.950 . S
C4342 C4341 1.398 . S
C4342 C4343 1.391 . S
C4343 H4331 0.950 . S
C4343 C4339 1.393 . S
C4343 C4342 1.391 . S
H4344 C4352 0.950 . S
H4345 C4357 0.950 . S
H4346 C4354 0.950 . S
H4347 C4356 0.950 . S
H4348 C4358 0.950 . S
H4349 C4360 0.950 . S
H4350 C4362 0.950 . S
H4351 C4363 0.950 . S
C4352 H4344 0.950 . S
C4352 C4353 1.386 . S
C4352 C4354 1.391 . S
C4353 C4352 1.386 . S
C4353 C4357 1.393 . S
C4354 H4346 0.950 . S
C4354 C4352 1.391 . S
C4354 C4355 1.400 . S
C4355 C4354 1.400 . S
C4355 C4356 1.398 . S
C4355 C4361 1.491 . S
C4356 H4347 0.950 . S
C4356 C4355 1.398 . S
C4356 C4357 1.391 . S
C4357 H4345 0.950 . S
C4357 C4353 1.393 . S
C4357 C4356 1.391 . S
C4358 H4348 0.950 . S
C4358 C4359 1.386 . S
C4358 C4360 1.391 . S
C4359 C4358 1.386 . S
C4359 C4363 1.393 . S
C4360 H4349 0.950 . S
C4360 C4358 1.391 . S
C4360 C4361 1.400 . S
C4361 C4355 1.491 . S
C4361 C4360 1.400 . S
C4361 C4362 1.398 . S
C4362 H4350 0.950 . S
C4362 C4361 1.398 . S
C4362 C4363 1.391 . S
C4363 H4351 0.950 . S
C4363 C4359 1.393 . S
C4363 C4362 1.391 . S
H4364 C4372 0.950 . S
H4365 C4377 0.950 . S
H4366 C4374 0.950 . S
H4367 C4376 0.950 . S
H4368 C4378 0.950 . S
H4369 C4380 0.950 . S
H4370 C4382 0.950 . S
H4371 C4383 0.950 . S
C4372 H4364 0.950 . S
C4372 C4373 1.386 . S
C4372 C4374 1.391 . S
C4373 C4372 1.386 . S
C4373 C4377 1.393 . S
C4374 H4366 0.950 . S
C4374 C4372 1.391 . S
C4374 C4375 1.400 . S
C4375 C4374 1.400 . S
C4375 C4376 1.398 . S
C4375 C4381 1.491 . S
C4376 H4367 0.950 . S
C4376 C4375 1.398 . S
C4376 C4377 1.391 . S
C4377 H4365 0.950 . S
C4377 C4373 1.393 . S
C4377 C4376 1.391 . S
C4378 H4368 0.950 . S
C4378 C4379 1.386 . S
C4378 C4380 1.391 . S
C4379 C4378 1.386 . S
C4379 C4383 1.393 . S
C4380 H4369 0.950 . S
C4380 C4378 1.391 . S
C4380 C4381 1.400 . S
C4381 C4375 1.491 . S
C4381 C4380 1.400 . S
C4381 C4382 1.398 . S
C4382 H4370 0.950 . S
C4382 C4381 1.398 . S
C4382 C4383 1.391 . S
C4383 H4371 0.950 . S
C4383 C4379 1.393 . S
C4383 C4382 1.391 . S
H4384 C4392 0.950 . S
H4385 C4397 0.950 . S
H4386 C4394 0.950 . S
H4387 C4396 0.950 . S
H4388 C4398 0.950 . S
H4389 C4400 0.950 . S
H4390 C4402 0.950 . S
H4391 C4403 0.950 . S
C4392 H4384 0.950 . S
C4392 C4393 1.386 . S
C4392 C4394 1.391 . S
C4393 C4392 1.386 . S
C4393 C4397 1.393 . S
C4394 H4386 0.950 . S
C4394 C4392 1.391 . S
C4394 C4395 1.400 . S
C4395 C4394 1.400 . S
C4395 C4396 1.398 . S
C4395 C4401 1.491 . S
C4396 H4387 0.950 . S
C4396 C4395 1.398 . S
C4396 C4397 1.391 . S
C4397 H4385 0.950 . S
C4397 C4393 1.393 . S
C4397 C4396 1.391 . S
C4398 H4388 0.950 . S
C4398 C4399 1.386 . S
C4398 C4400 1.391 . S
C4399 C4398 1.386 . S
C4399 C4403 1.393 . S
C4400 H4389 0.950 . S
C4400 C4398 1.391 . S
C4400 C4401 1.400 . S
C4401 C4395 1.491 . S
C4401 C4400 1.400 . S
C4401 C4402 1.398 . S
C4402 H4390 0.950 . S
C4402 C4401 1.398 . S
C4402 C4403 1.391 . S
C4403 H4391 0.950 . S
C4403 C4399 1.393 . S
C4403 C4402 1.391 . S
H4404 C4412 0.950 . S
H4405 C4417 0.950 . S
H4406 C4414 0.950 . S
H4407 C4416 0.950 . S
H4408 C4418 0.950 . S
H4409 C4420 0.950 . S
H4410 C4422 0.950 . S
H4411 C4423 0.950 . S
C4412 H4404 0.950 . S
C4412 C4413 1.386 . S
C4412 C4414 1.391 . S
C4413 C4412 1.386 . S
C4413 C4417 1.393 . S
C4414 H4406 0.950 . S
C4414 C4412 1.391 . S
C4414 C4415 1.400 . S
C4415 C4414 1.400 . S
C4415 C4416 1.398 . S
C4415 C4421 1.491 . S
C4416 H4407 0.950 . S
C4416 C4415 1.398 . S
C4416 C4417 1.391 . S
C4417 H4405 0.950 . S
C4417 C4413 1.393 . S
C4417 C4416 1.391 . S
C4418 H4408 0.950 . S
C4418 C4419 1.386 . S
C4418 C4420 1.391 . S
C4419 C4418 1.386 . S
C4419 C4423 1.393 . S
C4420 H4409 0.950 . S
C4420 C4418 1.391 . S
C4420 C4421 1.400 . S
C4421 C4415 1.491 . S
C4421 C4420 1.400 . S
C4421 C4422 1.398 . S
C4422 H4410 0.950 . S
C4422 C4421 1.398 . S
C4422 C4423 1.391 . S
C4423 H4411 0.950 . S
C4423 C4419 1.393 . S
C4423 C4422 1.391 . S
H4424 C4432 0.950 . S
H4425 C4437 0.950 . S
H4426 C4434 0.950 . S
H4427 C4436 0.950 . S
H4428 C4438 0.950 . S
H4429 C4440 0.950 . S
H4430 C4442 0.950 . S
H4431 C4443 0.950 . S
C4432 H4424 0.950 . S
C4432 C4433 1.386 . S
C4432 C4434 1.391 . S
C4433 C4432 1.386 . S
C4433 C4437 1.393 . S
C4434 H4426 0.950 . S
C4434 C4432 1.391 . S
C4434 C4435 1.400 . S
C4435 C4434 1.400 . S
C4435 C4436 1.398 . S
C4435 C4441 1.491 . S
C4436 H4427 0.950 . S
C4436 C4435 1.398 . S
C4436 C4437 1.391 . S
C4437 H4425 0.950 . S
C4437 C4433 1.393 . S
C4437 C4436 1.391 . S
C4438 H4428 0.950 . S
C4438 C4439 1.386 . S
C4438 C4440 1.391 . S
C4439 C4438 1.386 . S
C4439 C4443 1.393 . S
C4440 H4429 0.950 . S
C4440 C4438 1.391 . S
C4440 C4441 1.400 . S
C4441 C4435 1.491 . S
C4441 C4440 1.400 . S
C4441 C4442 1.398 . S
C4442 H4430 0.950 . S
C4442 C4441 1.398 . S
C4442 C4443 1.391 . S
C4443 H4431 0.950 . S
C4443 C4439 1.393 . S
C4443 C4442 1.391 . S
H4444 C4452 0.950 . S
H4445 C4457 0.950 . S
H4446 C4454 0.950 . S
H4447 C4456 0.950 . S
H4448 C4458 0.950 . S
H4449 C4460 0.950 . S
H4450 C4462 0.950 . S
H4451 C4463 0.950 . S
C4452 H4444 0.950 . S
C4452 C4453 1.386 . S
C4452 C4454 1.391 . S
C4453 C4452 1.386 . S
C4453 C4457 1.393 . S
C4454 H4446 0.950 . S
C4454 C4452 1.391 . S
C4454 C4455 1.400 . S
C4455 C4454 1.400 . S
C4455 C4456 1.398 . S
C4455 C4461 1.491 . S
C4456 H4447 0.950 . S
C4456 C4455 1.398 . S
C4456 C4457 1.391 . S
C4457 H4445 0.950 . S
C4457 C4453 1.393 . S
C4457 C4456 1.391 . S
C4458 H4448 0.950 . S
C4458 C4459 1.386 . S
C4458 C4460 1.391 . S
C4459 C4458 1.386 . S
C4459 C4463 1.393 . S
C4460 H4449 0.950 . S
C4460 C4458 1.391 . S
C4460 C4461 1.400 . S
C4461 C4455 1.491 . S
C4461 C4460 1.400 . S
C4461 C4462 1.398 . S
C4462 H4450 0.950 . S
C4462 C4461 1.398 . S
C4462 C4463 1.391 . S
C4463 H4451 0.950 . S
C4463 C4459 1.393 . S
C4463 C4462 1.391 . S
H4464 C4472 0.950 . S
H4465 C4477 0.950 . S
H4466 C4474 0.950 . S
H4467 C4476 0.950 . S
H4468 C4478 0.950 . S
H4469 C4480 0.950 . S
H4470 C4482 0.950 . S
H4471 C4483 0.950 . S
C4472 H4464 0.950 . S
C4472 C4473 1.386 . S
C4472 C4474 1.391 . S
C4473 C4472 1.386 . S
C4473 C4477 1.393 . S
C4474 H4466 0.950 . S
C4474 C4472 1.391 . S
C4474 C4475 1.400 . S
C4475 C4474 1.400 . S
C4475 C4476 1.398 . S
C4475 C4481 1.491 . S
C4476 H4467 0.950 . S
C4476 C4475 1.398 . S
C4476 C4477 1.391 . S
C4477 H4465 0.950 . S
C4477 C4473 1.393 . S
C4477 C4476 1.391 . S
C4478 H4468 0.950 . S
C4478 C4479 1.386 . S
C4478 C4480 1.391 . S
C4479 C4478 1.386 . S
C4479 C4483 1.393 . S
C4480 H4469 0.950 . S
C4480 C4478 1.391 . S
C4480 C4481 1.400 . S
C4481 C4475 1.491 . S
C4481 C4480 1.400 . S
C4481 C4482 1.398 . S
C4482 H4470 0.950 . S
C4482 C4481 1.398 . S
C4482 C4483 1.391 . S
C4483 H4471 0.950 . S
C4483 C4479 1.393 . S
C4483 C4482 1.391 . S
H4484 C4492 0.950 . S
H4485 C4497 0.950 . S
H4486 C4494 0.950 . S
H4487 C4496 0.950 . S
H4488 C4498 0.950 . S
H4489 C4500 0.950 . S
H4490 C4502 0.950 . S
H4491 C4503 0.950 . S
C4492 H4484 0.950 . S
C4492 C4493 1.386 . S
C4492 C4494 1.391 . S
C4493 C4492 1.386 . S
C4493 C4497 1.393 . S
C4494 H4486 0.950 . S
C4494 C4492 1.391 . S
C4494 C4495 1.400 . S
C4495 C4494 1.400 . S
C4495 C4496 1.398 . S
C4495 C4501 1.491 . S
C4496 H4487 0.950 . S
C4496 C4495 1.398 . S
C4496 C4497 1.391 . S
C4497 H4485 0.950 . S
C4497 C4493 1.393 . S
C4497 C4496 1.391 . S
C4498 H4488 0.950 . S
C4498 C4499 1.386 . S
C4498 C4500 1.391 . S
C4499 C4498 1.386 . S
C4499 C4503 1.393 . S
C4500 H4489 0.950 . S
C4500 C4498 1.391 . S
C4500 C4501 1.400 . S
C4501 C4495 1.491 . S
C4501 C4500 1.400 . S
C4501 C4502 1.398 . S
C4502 H4490 0.950 . S
C4502 C4501 1.398 . S
C4502 C4503 1.391 . S
C4503 H4491 0.950 . S
C4503 C4499 1.393 . S
C4503 C4502 1.391 . S
H4504 C4512 0.950 . S
H4505 C4517 0.950 . S
H4506 C4514 0.950 . S
H4507 C4516 0.950 . S
H4508 C4518 0.950 . S
H4509 C4520 0.950 . S
H4510 C4522 0.950 . S
H4511 C4523 0.950 . S
C4512 H4504 0.950 . S
C4512 C4513 1.386 . S
C4512 C4514 1.391 . S
C4513 C4512 1.386 . S
C4513 C4517 1.393 . S
C4514 H4506 0.950 . S
C4514 C4512 1.391 . S
C4514 C4515 1.400 . S
C4515 C4514 1.400 . S
C4515 C4516 1.398 . S
C4515 C4521 1.491 . S
C4516 H4507 0.950 . S
C4516 C4515 1.398 . S
C4516 C4517 1.391 . S
C4517 H4505 0.950 . S
C4517 C4513 1.393 . S
C4517 C4516 1.391 . S
C4518 H4508 0.950 . S
C4518 C4519 1.386 . S
C4518 C4520 1.391 . S
C4519 C4518 1.386 . S
C4519 C4523 1.393 . S
C4520 H4509 0.950 . S
C4520 C4518 1.391 . S
C4520 C4521 1.400 . S
C4521 C4515 1.491 . S
C4521 C4520 1.400 . S
C4521 C4522 1.398 . S
C4522 H4510 0.950 . S
C4522 C4521 1.398 . S
C4522 C4523 1.391 . S
C4523 H4511 0.950 . S
C4523 C4519 1.393 . S
C4523 C4522 1.391 . S
H4524 C4532 0.950 . S
H4525 C4537 0.950 . S
H4526 C4534 0.950 . S
H4527 C4536 0.950 . S
H4528 C4538 0.950 . S
H4529 C4540 0.950 . S
H4530 C4542 0.950 . S
H4531 C4543 0.950 . S
C4532 H4524 0.950 . S
C4532 C4533 1.386 . S
C4532 C4534 1.391 . S
C4533 C4532 1.386 . S
C4533 C4537 1.393 . S
C4534 H4526 0.950 . S
C4534 C4532 1.391 . S
C4534 C4535 1.400 . S
C4535 C4534 1.400 . S
C4535 C4536 1.398 . S
C4535 C4541 1.491 . S
C4536 H4527 0.950 . S
C4536 C4535 1.398 . S
C4536 C4537 1.391 . S
C4537 H4525 0.950 . S
C4537 C4533 1.393 . S
C4537 C4536 1.391 . S
C4538 H4528 0.950 . S
C4538 C4539 1.386 . S
C4538 C4540 1.391 . S
C4539 C4538 1.386 . S
C4539 C4543 1.393 . S
C4540 H4529 0.950 . S
C4540 C4538 1.391 . S
C4540 C4541 1.400 . S
C4541 C4535 1.491 . S
C4541 C4540 1.400 . S
C4541 C4542 1.398 . S
C4542 H4530 0.950 . S
C4542 C4541 1.398 . S
C4542 C4543 1.391 . S
C4543 H4531 0.950 . S
C4543 C4539 1.393 . S
C4543 C4542 1.391 . S
H4544 C4552 0.950 . S
H4545 C4557 0.950 . S
H4546 C4554 0.950 . S
H4547 C4556 0.950 . S
H4548 C4558 0.950 . S
H4549 C4560 0.950 . S
H4550 C4562 0.950 . S
H4551 C4563 0.950 . S
C4552 H4544 0.950 . S
C4552 C4553 1.386 . S
C4552 C4554 1.391 . S
C4553 C4552 1.386 . S
C4553 C4557 1.393 . S
C4554 H4546 0.950 . S
C4554 C4552 1.391 . S
C4554 C4555 1.400 . S
C4555 C4554 1.400 . S
C4555 C4556 1.398 . S
C4555 C4561 1.491 . S
C4556 H4547 0.950 . S
C4556 C4555 1.398 . S
C4556 C4557 1.391 . S
C4557 H4545 0.950 . S
C4557 C4553 1.393 . S
C4557 C4556 1.391 . S
C4558 H4548 0.950 . S
C4558 C4559 1.386 . S
C4558 C4560 1.391 . S
C4559 C4558 1.386 . S
C4559 C4563 1.393 . S
C4560 H4549 0.950 . S
C4560 C4558 1.391 . S
C4560 C4561 1.400 . S
C4561 C4555 1.491 . S
C4561 C4560 1.400 . S
C4561 C4562 1.398 . S
C4562 H4550 0.950 . S
C4562 C4561 1.398 . S
C4562 C4563 1.391 . S
C4563 H4551 0.950 . S
C4563 C4559 1.393 . S
C4563 C4562 1.391 . S
H4564 C4572 0.950 . S
H4565 C4577 0.950 . S
H4566 C4574 0.950 . S
H4567 C4576 0.950 . S
H4568 C4578 0.950 . S
H4569 C4580 0.950 . S
H4570 C4582 0.950 . S
H4571 C4583 0.950 . S
C4572 H4564 0.950 . S
C4572 C4573 1.386 . S
C4572 C4574 1.391 . S
C4573 C4572 1.386 . S
C4573 C4577 1.393 . S
C4574 H4566 0.950 . S
C4574 C4572 1.391 . S
C4574 C4575 1.400 . S
C4575 C4574 1.400 . S
C4575 C4576 1.398 . S
C4575 C4581 1.491 . S
C4576 H4567 0.950 . S
C4576 C4575 1.398 . S
C4576 C4577 1.391 . S
C4577 H4565 0.950 . S
C4577 C4573 1.393 . S
C4577 C4576 1.391 . S
C4578 H4568 0.950 . S
C4578 C4579 1.386 . S
C4578 C4580 1.391 . S
C4579 C4578 1.386 . S
C4579 C4583 1.393 . S
C4580 H4569 0.950 . S
C4580 C4578 1.391 . S
C4580 C4581 1.400 . S
C4581 C4575 1.491 . S
C4581 C4580 1.400 . S
C4581 C4582 1.398 . S
C4582 H4570 0.950 . S
C4582 C4581 1.398 . S
C4582 C4583 1.391 . S
C4583 H4571 0.950 . S
C4583 C4579 1.393 . S
C4583 C4582 1.391 . S
H4584 C4592 0.950 . S
H4585 C4597 0.950 . S
H4586 C4594 0.950 . S
H4587 C4596 0.950 . S
H4588 C4598 0.950 . S
H4589 C4600 0.950 . S
H4590 C4602 0.950 . S
H4591 C4603 0.950 . S
C4592 H4584 0.950 . S
C4592 C4593 1.386 . S
C4592 C4594 1.391 . S
C4593 C4592 1.386 . S
C4593 C4597 1.393 . S
C4594 H4586 0.950 . S
C4594 C4592 1.391 . S
C4594 C4595 1.400 . S
C4595 C4594 1.400 . S
C4595 C4596 1.398 . S
C4595 C4601 1.491 . S
C4596 H4587 0.950 . S
C4596 C4595 1.398 . S
C4596 C4597 1.391 . S
C4597 H4585 0.950 . S
C4597 C4593 1.393 . S
C4597 C4596 1.391 . S
C4598 H4588 0.950 . S
C4598 C4599 1.386 . S
C4598 C4600 1.391 . S
C4599 C4598 1.386 . S
C4599 C4603 1.393 . S
C4600 H4589 0.950 . S
C4600 C4598 1.391 . S
C4600 C4601 1.400 . S
C4601 C4595 1.491 . S
C4601 C4600 1.400 . S
C4601 C4602 1.398 . S
C4602 H4590 0.950 . S
C4602 C4601 1.398 . S
C4602 C4603 1.391 . S
C4603 H4591 0.950 . S
C4603 C4599 1.393 . S
C4603 C4602 1.391 . S
H4604 C4612 0.950 . S
H4605 C4617 0.950 . S
H4606 C4614 0.950 . S
H4607 C4616 0.950 . S
H4608 C4618 0.950 . S
H4609 C4620 0.950 . S
H4610 C4622 0.950 . S
H4611 C4623 0.950 . S
C4612 H4604 0.950 . S
C4612 C4613 1.386 . S
C4612 C4614 1.391 . S
C4613 C4612 1.386 . S
C4613 C4617 1.393 . S
C4614 H4606 0.950 . S
C4614 C4612 1.391 . S
C4614 C4615 1.400 . S
C4615 C4614 1.400 . S
C4615 C4616 1.398 . S
C4615 C4621 1.491 . S
C4616 H4607 0.950 . S
C4616 C4615 1.398 . S
C4616 C4617 1.391 . S
C4617 H4605 0.950 . S
C4617 C4613 1.393 . S
C4617 C4616 1.391 . S
C4618 H4608 0.950 . S
C4618 C4619 1.386 . S
C4618 C4620 1.391 . S
C4619 C4618 1.386 . S
C4619 C4623 1.393 . S
C4620 H4609 0.950 . S
C4620 C4618 1.391 . S
C4620 C4621 1.400 . S
C4621 C4615 1.491 . S
C4621 C4620 1.400 . S
C4621 C4622 1.398 . S
C4622 H4610 0.950 . S
C4622 C4621 1.398 . S
C4622 C4623 1.391 . S
C4623 H4611 0.950 . S
C4623 C4619 1.393 . S
C4623 C4622 1.391 . S
H4624 C4632 0.950 . S
H4625 C4637 0.950 . S
H4626 C4634 0.950 . S
H4627 C4636 0.950 . S
H4628 C4638 0.950 . S
H4629 C4640 0.950 . S
H4630 C4642 0.950 . S
H4631 C4643 0.950 . S
C4632 H4624 0.950 . S
C4632 C4633 1.386 . S
C4632 C4634 1.391 . S
C4633 C4632 1.386 . S
C4633 C4637 1.393 . S
C4634 H4626 0.950 . S
C4634 C4632 1.391 . S
C4634 C4635 1.400 . S
C4635 C4634 1.400 . S
C4635 C4636 1.398 . S
C4635 C4641 1.491 . S
C4636 H4627 0.950 . S
C4636 C4635 1.398 . S
C4636 C4637 1.391 . S
C4637 H4625 0.950 . S
C4637 C4633 1.393 . S
C4637 C4636 1.391 . S
C4638 H4628 0.950 . S
C4638 C4639 1.386 . S
C4638 C4640 1.391 . S
C4639 C4638 1.386 . S
C4639 C4643 1.393 . S
C4640 H4629 0.950 . S
C4640 C4638 1.391 . S
C4640 C4641 1.400 . S
C4641 C4635 1.491 . S
C4641 C4640 1.400 . S
C4641 C4642 1.398 . S
C4642 H4630 0.950 . S
C4642 C4641 1.398 . S
C4642 C4643 1.391 . S
C4643 H4631 0.950 . S
C4643 C4639 1.393 . S
C4643 C4642 1.391 . S
H4644 C4652 0.950 . S
H4645 C4657 0.950 . S
H4646 C4654 0.950 . S
H4647 C4656 0.950 . S
H4648 C4658 0.950 . S
H4649 C4660 0.950 . S
H4650 C4662 0.950 . S
H4651 C4663 0.950 . S
C4652 H4644 0.950 . S
C4652 C4653 1.386 . S
C4652 C4654 1.391 . S
C4653 C4652 1.386 . S
C4653 C4657 1.393 . S
C4654 H4646 0.950 . S
C4654 C4652 1.391 . S
C4654 C4655 1.400 . S
C4655 C4654 1.400 . S
C4655 C4656 1.398 . S
C4655 C4661 1.491 . S
C4656 H4647 0.950 . S
C4656 C4655 1.398 . S
C4656 C4657 1.391 . S
C4657 H4645 0.950 . S
C4657 C4653 1.393 . S
C4657 C4656 1.391 . S
C4658 H4648 0.950 . S
C4658 C4659 1.386 . S
C4658 C4660 1.391 . S
C4659 C4658 1.386 . S
C4659 C4663 1.393 . S
C4660 H4649 0.950 . S
C4660 C4658 1.391 . S
C4660 C4661 1.400 . S
C4661 C4655 1.491 . S
C4661 C4660 1.400 . S
C4661 C4662 1.398 . S
C4662 H4650 0.950 . S
C4662 C4661 1.398 . S
C4662 C4663 1.391 . S
C4663 H4651 0.950 . S
C4663 C4659 1.393 . S
C4663 C4662 1.391 . S
H4664 C4672 0.950 . S
H4665 C4677 0.950 . S
H4666 C4674 0.950 . S
H4667 C4676 0.950 . S
H4668 C4678 0.950 . S
H4669 C4680 0.950 . S
H4670 C4682 0.950 . S
H4671 C4683 0.950 . S
C4672 H4664 0.950 . S
C4672 C4673 1.386 . S
C4672 C4674 1.391 . S
C4673 C4672 1.386 . S
C4673 C4677 1.393 . S
C4674 H4666 0.950 . S
C4674 C4672 1.391 . S
C4674 C4675 1.400 . S
C4675 C4674 1.400 . S
C4675 C4676 1.398 . S
C4675 C4681 1.491 . S
C4676 H4667 0.950 . S
C4676 C4675 1.398 . S
C4676 C4677 1.391 . S
C4677 H4665 0.950 . S
C4677 C4673 1.393 . S
C4677 C4676 1.391 . S
C4678 H4668 0.950 . S
C4678 C4679 1.386 . S
C4678 C4680 1.391 . S
C4679 C4678 1.386 . S
C4679 C4683 1.393 . S
C4680 H4669 0.950 . S
C4680 C4678 1.391 . S
C4680 C4681 1.400 . S
C4681 C4675 1.491 . S
C4681 C4680 1.400 . S
C4681 C4682 1.398 . S
C4682 H4670 0.950 . S
C4682 C4681 1.398 . S
C4682 C4683 1.391 . S
C4683 H4671 0.950 . S
C4683 C4679 1.393 . S
C4683 C4682 1.391 . S
H4684 C4692 0.950 . S
H4685 C4697 0.950 . S
H4686 C4694 0.950 . S
H4687 C4696 0.950 . S
H4688 C4698 0.950 . S
H4689 C4700 0.950 . S
H4690 C4702 0.950 . S
H4691 C4703 0.950 . S
C4692 H4684 0.950 . S
C4692 C4693 1.386 . S
C4692 C4694 1.391 . S
C4693 C4692 1.386 . S
C4693 C4697 1.393 . S
C4694 H4686 0.950 . S
C4694 C4692 1.391 . S
C4694 C4695 1.400 . S
C4695 C4694 1.400 . S
C4695 C4696 1.398 . S
C4695 C4701 1.491 . S
C4696 H4687 0.950 . S
C4696 C4695 1.398 . S
C4696 C4697 1.391 . S
C4697 H4685 0.950 . S
C4697 C4693 1.393 . S
C4697 C4696 1.391 . S
C4698 H4688 0.950 . S
C4698 C4699 1.386 . S
C4698 C4700 1.391 . S
C4699 C4698 1.386 . S
C4699 C4703 1.393 . S
C4700 H4689 0.950 . S
C4700 C4698 1.391 . S
C4700 C4701 1.400 . S
C4701 C4695 1.491 . S
C4701 C4700 1.400 . S
C4701 C4702 1.398 . S
C4702 H4690 0.950 . S
C4702 C4701 1.398 . S
C4702 C4703 1.391 . S
C4703 H4691 0.950 . S
C4703 C4699 1.393 . S
C4703 C4702 1.391 . S
H4704 C4712 0.950 . S
H4705 C4717 0.950 . S
H4706 C4714 0.950 . S
H4707 C4716 0.950 . S
H4708 C4718 0.950 . S
H4709 C4720 0.950 . S
H4710 C4722 0.950 . S
H4711 C4723 0.950 . S
C4712 H4704 0.950 . S
C4712 C4713 1.386 . S
C4712 C4714 1.391 . S
C4713 C4712 1.386 . S
C4713 C4717 1.393 . S
C4714 H4706 0.950 . S
C4714 C4712 1.391 . S
C4714 C4715 1.400 . S
C4715 C4714 1.400 . S
C4715 C4716 1.398 . S
C4715 C4721 1.491 . S
C4716 H4707 0.950 . S
C4716 C4715 1.398 . S
C4716 C4717 1.391 . S
C4717 H4705 0.950 . S
C4717 C4713 1.393 . S
C4717 C4716 1.391 . S
C4718 H4708 0.950 . S
C4718 C4719 1.386 . S
C4718 C4720 1.391 . S
C4719 C4718 1.386 . S
C4719 C4723 1.393 . S
C4720 H4709 0.950 . S
C4720 C4718 1.391 . S
C4720 C4721 1.400 . S
C4721 C4715 1.491 . S
C4721 C4720 1.400 . S
C4721 C4722 1.398 . S
C4722 H4710 0.950 . S
C4722 C4721 1.398 . S
C4722 C4723 1.391 . S
C4723 H4711 0.950 . S
C4723 C4719 1.393 . S
C4723 C4722 1.391 . S
H4724 C4732 0.950 . S
H4725 C4737 0.950 . S
H4726 C4734 0.950 . S
H4727 C4736 0.950 . S
H4728 C4738 0.950 . S
H4729 C4740 0.950 . S
H4730 C4742 0.950 . S
H4731 C4743 0.950 . S
C4732 H4724 0.950 . S
C4732 C4733 1.386 . S
C4732 C4734 1.391 . S
C4733 C4732 1.386 . S
C4733 C4737 1.393 . S
C4734 H4726 0.950 . S
C4734 C4732 1.391 . S
C4734 C4735 1.400 . S
C4735 C4734 1.400 . S
C4735 C4736 1.398 . S
C4735 C4741 1.491 . S
C4736 H4727 0.950 . S
C4736 C4735 1.398 . S
C4736 C4737 1.391 . S
C4737 H4725 0.950 . S
C4737 C4733 1.393 . S
C4737 C4736 1.391 . S
C4738 H4728 0.950 . S
C4738 C4739 1.386 . S
C4738 C4740 1.391 . S
C4739 C4738 1.386 . S
C4739 C4743 1.393 . S
C4740 H4729 0.950 . S
C4740 C4738 1.391 . S
C4740 C4741 1.400 . S
C4741 C4735 1.491 . S
C4741 C4740 1.400 . S
C4741 C4742 1.398 . S
C4742 H4730 0.950 . S
C4742 C4741 1.398 . S
C4742 C4743 1.391 . S
C4743 H4731 0.950 . S
C4743 C4739 1.393 . S
C4743 C4742 1.391 . S
H4744 C4752 0.950 . S
H4745 C4757 0.950 . S
H4746 C4754 0.950 . S
H4747 C4756 0.950 . S
H4748 C4758 0.950 . S
H4749 C4760 0.950 . S
H4750 C4762 0.950 . S
H4751 C4763 0.950 . S
C4752 H4744 0.950 . S
C4752 C4753 1.386 . S
C4752 C4754 1.391 . S
C4753 C4752 1.386 . S
C4753 C4757 1.393 . S
C4754 H4746 0.950 . S
C4754 C4752 1.391 . S
C4754 C4755 1.400 . S
C4755 C4754 1.400 . S
C4755 C4756 1.398 . S
C4755 C4761 1.491 . S
C4756 H4747 0.950 . S
C4756 C4755 1.398 . S
C4756 C4757 1.391 . S
C4757 H4745 0.950 . S
C4757 C4753 1.393 . S
C4757 C4756 1.391 . S
C4758 H4748 0.950 . S
C4758 C4759 1.386 . S
C4758 C4760 1.391 . S
C4759 C4758 1.386 . S
C4759 C4763 1.393 . S
C4760 H4749 0.950 . S
C4760 C4758 1.391 . S
C4760 C4761 1.400 . S
C4761 C4755 1.491 . S
C4761 C4760 1.400 . S
C4761 C4762 1.398 . S
C4762 H4750 0.950 . S
C4762 C4761 1.398 . S
C4762 C4763 1.391 . S
C4763 H4751 0.950 . S
C4763 C4759 1.393 . S
C4763 C4762 1.391 . S
H4764 C4772 0.950 . S
H4765 C4777 0.950 . S
H4766 C4774 0.950 . S
H4767 C4776 0.950 . S
H4768 C4778 0.950 . S
H4769 C4780 0.950 . S
H4770 C4782 0.950 . S
H4771 C4783 0.950 . S
C4772 H4764 0.950 . S
C4772 C4773 1.386 . S
C4772 C4774 1.391 . S
C4773 C4772 1.386 . S
C4773 C4777 1.393 . S
C4774 H4766 0.950 . S
C4774 C4772 1.391 . S
C4774 C4775 1.400 . S
C4775 C4774 1.400 . S
C4775 C4776 1.398 . S
C4775 C4781 1.491 . S
C4776 H4767 0.950 . S
C4776 C4775 1.398 . S
C4776 C4777 1.391 . S
C4777 H4765 0.950 . S
C4777 C4773 1.393 . S
C4777 C4776 1.391 . S
C4778 H4768 0.950 . S
C4778 C4779 1.386 . S
C4778 C4780 1.391 . S
C4779 C4778 1.386 . S
C4779 C4783 1.393 . S
C4780 H4769 0.950 . S
C4780 C4778 1.391 . S
C4780 C4781 1.400 . S
C4781 C4775 1.491 . S
C4781 C4780 1.400 . S
C4781 C4782 1.398 . S
C4782 H4770 0.950 . S
C4782 C4781 1.398 . S
C4782 C4783 1.391 . S
C4783 H4771 0.950 . S
C4783 C4779 1.393 . S
C4783 C4782 1.391 . S
H4784 C4792 0.950 . S
H4785 C4797 0.950 . S
H4786 C4794 0.950 . S
H4787 C4796 0.950 . S
H4788 C4798 0.950 . S
H4789 C4800 0.950 . S
H4790 C4802 0.950 . S
H4791 C4803 0.950 . S
C4792 H4784 0.950 . S
C4792 C4793 1.386 . S
C4792 C4794 1.391 . S
C4793 C4792 1.386 . S
C4793 C4797 1.393 . S
C4794 H4786 0.950 . S
C4794 C4792 1.391 . S
C4794 C4795 1.400 . S
C4795 C4794 1.400 . S
C4795 C4796 1.398 . S
C4795 C4801 1.491 . S
C4796 H4787 0.950 . S
C4796 C4795 1.398 . S
C4796 C4797 1.391 . S
C4797 H4785 0.950 . S
C4797 C4793 1.393 . S
C4797 C4796 1.391 . S
C4798 H4788 0.950 . S
C4798 C4799 1.386 . S
C4798 C4800 1.391 . S
C4799 C4798 1.386 . S
C4799 C4803 1.393 . S
C4800 H4789 0.950 . S
C4800 C4798 1.391 . S
C4800 C4801 1.400 . S
C4801 C4795 1.491 . S
C4801 C4800 1.400 . S
C4801 C4802 1.398 . S
C4802 H4790 0.950 . S
C4802 C4801 1.398 . S
C4802 C4803 1.391 . S
C4803 H4791 0.950 . S
C4803 C4799 1.393 . S
C4803 C4802 1.391 . S
H4804 C4812 0.950 . S
H4805 C4817 0.950 . S
H4806 C4814 0.950 . S
H4807 C4816 0.950 . S
H4808 C4818 0.950 . S
H4809 C4820 0.950 . S
H4810 C4822 0.950 . S
H4811 C4823 0.950 . S
C4812 H4804 0.950 . S
C4812 C4813 1.386 . S
C4812 C4814 1.391 . S
C4813 C4812 1.386 . S
C4813 C4817 1.393 . S
C4814 H4806 0.950 . S
C4814 C4812 1.391 . S
C4814 C4815 1.400 . S
C4815 C4814 1.400 . S
C4815 C4816 1.398 . S
C4815 C4821 1.491 . S
C4816 H4807 0.950 . S
C4816 C4815 1.398 . S
C4816 C4817 1.391 . S
C4817 H4805 0.950 . S
C4817 C4813 1.393 . S
C4817 C4816 1.391 . S
C4818 H4808 0.950 . S
C4818 C4819 1.386 . S
C4818 C4820 1.391 . S
C4819 C4818 1.386 . S
C4819 C4823 1.393 . S
C4820 H4809 0.950 . S
C4820 C4818 1.391 . S
C4820 C4821 1.400 . S
C4821 C4815 1.491 . S
C4821 C4820 1.400 . S
C4821 C4822 1.398 . S
C4822 H4810 0.950 . S
C4822 C4821 1.398 . S
C4822 C4823 1.391 . S
C4823 H4811 0.950 . S
C4823 C4819 1.393 . S
C4823 C4822 1.391 . S
H4824 C4832 0.950 . S
H4825 C4837 0.950 . S
H4826 C4834 0.950 . S
H4827 C4836 0.950 . S
H4828 C4838 0.950 . S
H4829 C4840 0.950 . S
H4830 C4842 0.950 . S
H4831 C4843 0.950 . S
C4832 H4824 0.950 . S
C4832 C4833 1.386 . S
C4832 C4834 1.391 . S
C4833 C4832 1.386 . S
C4833 C4837 1.393 . S
C4834 H4826 0.950 . S
C4834 C4832 1.391 . S
C4834 C4835 1.400 . S
C4835 C4834 1.400 . S
C4835 C4836 1.398 . S
C4835 C4841 1.491 . S
C4836 H4827 0.950 . S
C4836 C4835 1.398 . S
C4836 C4837 1.391 . S
C4837 H4825 0.950 . S
C4837 C4833 1.393 . S
C4837 C4836 1.391 . S
C4838 H4828 0.950 . S
C4838 C4839 1.386 . S
C4838 C4840 1.391 . S
C4839 C4838 1.386 . S
C4839 C4843 1.393 . S
C4840 H4829 0.950 . S
C4840 C4838 1.391 . S
C4840 C4841 1.400 . S
C4841 C4835 1.491 . S
C4841 C4840 1.400 . S
C4841 C4842 1.398 . S
C4842 H4830 0.950 . S
C4842 C4841 1.398 . S
C4842 C4843 1.391 . S
C4843 H4831 0.950 . S
C4843 C4839 1.393 . S
C4843 C4842 1.391 . S
H4844 C4852 0.950 . S
H4845 C4857 0.950 . S
H4846 C4854 0.950 . S
H4847 C4856 0.950 . S
H4848 C4858 0.950 . S
H4849 C4860 0.950 . S
H4850 C4862 0.950 . S
H4851 C4863 0.950 . S
C4852 H4844 0.950 . S
C4852 C4853 1.386 . S
C4852 C4854 1.391 . S
C4853 C4852 1.386 . S
C4853 C4857 1.393 . S
C4854 H4846 0.950 . S
C4854 C4852 1.391 . S
C4854 C4855 1.400 . S
C4855 C4854 1.400 . S
C4855 C4856 1.398 . S
C4855 C4861 1.491 . S
C4856 H4847 0.950 . S
C4856 C4855 1.398 . S
C4856 C4857 1.391 . S
C4857 H4845 0.950 . S
C4857 C4853 1.393 . S
C4857 C4856 1.391 . S
C4858 H4848 0.950 . S
C4858 C4859 1.386 . S
C4858 C4860 1.391 . S
C4859 C4858 1.386 . S
C4859 C4863 1.393 . S
C4860 H4849 0.950 . S
C4860 C4858 1.391 . S
C4860 C4861 1.400 . S
C4861 C4855 1.491 . S
C4861 C4860 1.400 . S
C4861 C4862 1.398 . S
C4862 H4850 0.950 . S
C4862 C4861 1.398 . S
C4862 C4863 1.391 . S
C4863 H4851 0.950 . S
C4863 C4859 1.393 . S
C4863 C4862 1.391 . S
H4864 C4872 0.950 . S
H4865 C4877 0.950 . S
H4866 C4874 0.950 . S
H4867 C4876 0.950 . S
H4868 C4878 0.950 . S
H4869 C4880 0.950 . S
H4870 C4882 0.950 . S
H4871 C4883 0.950 . S
C4872 H4864 0.950 . S
C4872 C4873 1.386 . S
C4872 C4874 1.391 . S
C4873 C4872 1.386 . S
C4873 C4877 1.393 . S
C4874 H4866 0.950 . S
C4874 C4872 1.391 . S
C4874 C4875 1.400 . S
C4875 C4874 1.400 . S
C4875 C4876 1.398 . S
C4875 C4881 1.491 . S
C4876 H4867 0.950 . S
C4876 C4875 1.398 . S
C4876 C4877 1.391 . S
C4877 H4865 0.950 . S
C4877 C4873 1.393 . S
C4877 C4876 1.391 . S
C4878 H4868 0.950 . S
C4878 C4879 1.386 . S
C4878 C4880 1.391 . S
C4879 C4878 1.386 . S
C4879 C4883 1.393 . S
C4880 H4869 0.950 . S
C4880 C4878 1.391 . S
C4880 C4881 1.400 . S
C4881 C4875 1.491 . S
C4881 C4880 1.400 . S
C4881 C4882 1.398 . S
C4882 H4870 0.950 . S
C4882 C4881 1.398 . S
C4882 C4883 1.391 . S
C4883 H4871 0.950 . S
C4883 C4879 1.393 . S
C4883 C4882 1.391 . S
H4884 C4892 0.950 . S
H4885 C4897 0.950 . S
H4886 C4894 0.950 . S
H4887 C4896 0.950 . S
H4888 C4898 0.950 . S
H4889 C4900 0.950 . S
H4890 C4902 0.950 . S
H4891 C4903 0.950 . S
C4892 H4884 0.950 . S
C4892 C4893 1.386 . S
C4892 C4894 1.391 . S
C4893 C4892 1.386 . S
C4893 C4897 1.393 . S
C4894 H4886 0.950 . S
C4894 C4892 1.391 . S
C4894 C4895 1.400 . S
C4895 C4894 1.400 . S
C4895 C4896 1.398 . S
C4895 C4901 1.491 . S
C4896 H4887 0.950 . S
C4896 C4895 1.398 . S
C4896 C4897 1.391 . S
C4897 H4885 0.950 . S
C4897 C4893 1.393 . S
C4897 C4896 1.391 . S
C4898 H4888 0.950 . S
C4898 C4899 1.386 . S
C4898 C4900 1.391 . S
C4899 C4898 1.386 . S
C4899 C4903 1.393 . S
C4900 H4889 0.950 . S
C4900 C4898 1.391 . S
C4900 C4901 1.400 . S
C4901 C4895 1.491 . S
C4901 C4900 1.400 . S
C4901 C4902 1.398 . S
C4902 H4890 0.950 . S
C4902 C4901 1.398 . S
C4902 C4903 1.391 . S
C4903 H4891 0.950 . S
C4903 C4899 1.393 . S
C4903 C4902 1.391 . S
H4904 C4912 0.950 . S
H4905 C4917 0.950 . S
H4906 C4914 0.950 . S
H4907 C4916 0.950 . S
H4908 C4918 0.950 . S
H4909 C4920 0.950 . S
H4910 C4922 0.950 . S
H4911 C4923 0.950 . S
C4912 H4904 0.950 . S
C4912 C4913 1.386 . S
C4912 C4914 1.391 . S
C4913 C4912 1.386 . S
C4913 C4917 1.393 . S
C4914 H4906 0.950 . S
C4914 C4912 1.391 . S
C4914 C4915 1.400 . S
C4915 C4914 1.400 . S
C4915 C4916 1.398 . S
C4915 C4921 1.491 . S
C4916 H4907 0.950 . S
C4916 C4915 1.398 . S
C4916 C4917 1.391 . S
C4917 H4905 0.950 . S
C4917 C4913 1.393 . S
C4917 C4916 1.391 . S
C4918 H4908 0.950 . S
C4918 C4919 1.386 . S
C4918 C4920 1.391 . S
C4919 C4918 1.386 . S
C4919 C4923 1.393 . S
C4920 H4909 0.950 . S
C4920 C4918 1.391 . S
C4920 C4921 1.400 . S
C4921 C4915 1.491 . S
C4921 C4920 1.400 . S
C4921 C4922 1.398 . S
C4922 H4910 0.950 . S
C4922 C4921 1.398 . S
C4922 C4923 1.391 . S
C4923 H4911 0.950 . S
C4923 C4919 1.393 . S
C4923 C4922 1.391 . S
H4924 C4932 0.950 . S
H4925 C4937 0.950 . S
H4926 C4934 0.950 . S
H4927 C4936 0.950 . S
H4928 C4938 0.950 . S
H4929 C4940 0.950 . S
H4930 C4942 0.950 . S
H4931 C4943 0.950 . S
C4932 H4924 0.950 . S
C4932 C4933 1.386 . S
C4932 C4934 1.391 . S
C4933 C4932 1.386 . S
C4933 C4937 1.393 . S
C4934 H4926 0.950 . S
C4934 C4932 1.391 . S
C4934 C4935 1.400 . S
C4935 C4934 1.400 . S
C4935 C4936 1.398 . S
C4935 C4941 1.491 . S
C4936 H4927 0.950 . S
C4936 C4935 1.398 . S
C4936 C4937 1.391 . S
C4937 H4925 0.950 . S
C4937 C4933 1.393 . S
C4937 C4936 1.391 . S
C4938 H4928 0.950 . S
C4938 C4939 1.386 . S
C4938 C4940 1.391 . S
C4939 C4938 1.386 . S
C4939 C4943 1.393 . S
C4940 H4929 0.950 . S
C4940 C4938 1.391 . S
C4940 C4941 1.400 . S
C4941 C4935 1.491 . S
C4941 C4940 1.400 . S
C4941 C4942 1.398 . S
C4942 H4930 0.950 . S
C4942 C4941 1.398 . S
C4942 C4943 1.391 . S
C4943 H4931 0.950 . S
C4943 C4939 1.393 . S
C4943 C4942 1.391 . S
H4944 C4952 0.950 . S
H4945 C4957 0.950 . S
H4946 C4954 0.950 . S
H4947 C4956 0.950 . S
H4948 C4958 0.950 . S
H4949 C4960 0.950 . S
H4950 C4962 0.950 . S
H4951 C4963 0.950 . S
C4952 H4944 0.950 . S
C4952 C4953 1.386 . S
C4952 C4954 1.391 . S
C4953 C4952 1.386 . S
C4953 C4957 1.393 . S
C4954 H4946 0.950 . S
C4954 C4952 1.391 . S
C4954 C4955 1.400 . S
C4955 C4954 1.400 . S
C4955 C4956 1.398 . S
C4955 C4961 1.491 . S
C4956 H4947 0.950 . S
C4956 C4955 1.398 . S
C4956 C4957 1.391 . S
C4957 H4945 0.950 . S
C4957 C4953 1.393 . S
C4957 C4956 1.391 . S
C4958 H4948 0.950 . S
C4958 C4959 1.386 . S
C4958 C4960 1.391 . S
C4959 C4958 1.386 . S
C4959 C4963 1.393 . S
C4960 H4949 0.950 . S
C4960 C4958 1.391 . S
C4960 C4961 1.400 . S
C4961 C4955 1.491 . S
C4961 C4960 1.400 . S
C4961 C4962 1.398 . S
C4962 H4950 0.950 . S
C4962 C4961 1.398 . S
C4962 C4963 1.391 . S
C4963 H4951 0.950 . S
C4963 C4959 1.393 . S
C4963 C4962 1.391 . S
H4964 C4972 0.950 . S
H4965 C4977 0.950 . S
H4966 C4974 0.950 . S
H4967 C4976 0.950 . S
H4968 C4978 0.950 . S
H4969 C4980 0.950 . S
H4970 C4982 0.950 . S
H4971 C4983 0.950 . S
C4972 H4964 0.950 . S
C4972 C4973 1.386 . S
C4972 C4974 1.391 . S
C4973 C4972 1.386 . S
C4973 C4977 1.393 . S
C4974 H4966 0.950 . S
C4974 C4972 1.391 . S
C4974 C4975 1.400 . S
C4975 C4974 1.400 . S
C4975 C4976 1.398 . S
C4975 C4981 1.491 . S
C4976 H4967 0.950 . S
C4976 C4975 1.398 . S
C4976 C4977 1.391 . S
C4977 H4965 0.950 . S
C4977 C4973 1.393 . S
C4977 C4976 1.391 . S
C4978 H4968 0.950 . S
C4978 C4979 1.386 . S
C4978 C4980 1.391 . S
C4979 C4978 1.386 . S
C4979 C4983 1.393 . S
C4980 H4969 0.950 . S
C4980 C4978 1.391 . S
C4980 C4981 1.400 . S
C4981 C4975 1.491 . S
C4981 C4980 1.400 . S
C4981 C4982 1.398 . S
C4982 H4970 0.950 . S
C4982 C4981 1.398 . S
C4982 C4983 1.391 . S
C4983 H4971 0.950 . S
C4983 C4979 1.393 . S
C4983 C4982 1.391 . S
H4984 C4992 0.950 . S
H4985 C4997 0.950 . S
H4986 C4994 0.950 . S
H4987 C4996 0.950 . S
H4988 C4998 0.950 . S
H4989 C5000 0.950 . S
H4990 C5002 0.950 . S
H4991 C5003 0.950 . S
C4992 H4984 0.950 . S
C4992 C4993 1.386 . S
C4992 C4994 1.391 . S
C4993 C4992 1.386 . S
C4993 C4997 1.393 . S
C4994 H4986 0.950 . S
C4994 C4992 1.391 . S
C4994 C4995 1.400 . S
C4995 C4994 1.400 . S
C4995 C4996 1.398 . S
C4995 C5001 1.491 . S
C4996 H4987 0.950 . S
C4996 C4995 1.398 . S
C4996 C4997 1.391 . S
C4997 H4985 0.950 . S
C4997 C4993 1.393 . S
C4997 C4996 1.391 . S
C4998 H4988 0.950 . S
C4998 C4999 1.386 . S
C4998 C5000 1.391 . S
C4999 C4998 1.386 . S
C4999 C5003 1.393 . S
C5000 H4989 0.950 . S
C5000 C4998 1.391 . S
C5000 C5001 1.400 . S
C5001 C4995 1.491 . S
C5001 C5000 1.400 . S
C5001 C5002 1.398 . S
C5002 H4990 0.950 . S
C5002 C5001 1.398 . S
C5002 C5003 1.391 . S
C5003 H4991 0.950 . S
C5003 C4999 1.393 . S
C5003 C5002 1.391 . S
H5004 C5012 0.950 . S
H5005 C5017 0.950 . S
H5006 C5014 0.950 . S
H5007 C5016 0.950 . S
H5008 C5018 0.950 . S
H5009 C5020 0.950 . S
H5010 C5022 0.950 . S
H5011 C5023 0.950 . S
C5012 H5004 0.950 . S
C5012 C5013 1.386 . S
C5012 C5014 1.391 . S
C5013 C5012 1.386 . S
C5013 C5017 1.393 . S
C5014 H5006 0.950 . S
C5014 C5012 1.391 . S
C5014 C5015 1.400 . S
C5015 C5014 1.400 . S
C5015 C5016 1.398 . S
C5015 C5021 1.491 . S
C5016 H5007 0.950 . S
C5016 C5015 1.398 . S
C5016 C5017 1.391 . S
C5017 H5005 0.950 . S
C5017 C5013 1.393 . S
C5017 C5016 1.391 . S
C5018 H5008 0.950 . S
C5018 C5019 1.386 . S
C5018 C5020 1.391 . S
C5019 C5018 1.386 . S
C5019 C5023 1.393 . S
C5020 H5009 0.950 . S
C5020 C5018 1.391 . S
C5020 C5021 1.400 . S
C5021 C5015 1.491 . S
C5021 C5020 1.400 . S
C5021 C5022 1.398 . S
C5022 H5010 0.950 . S
C5022 C5021 1.398 . S
C5022 C5023 1.391 . S
C5023 H5011 0.950 . S
C5023 C5019 1.393 . S
C5023 C5022 1.391 . S
H5024 C5032 0.950 . S
H5025 C5037 0.950 . S
H5026 C5034 0.950 . S
H5027 C5036 0.950 . S
H5028 C5038 0.950 . S
H5029 C5040 0.950 . S
H5030 C5042 0.950 . S
H5031 C5043 0.950 . S
C5032 H5024 0.950 . S
C5032 C5033 1.386 . S
C5032 C5034 1.391 . S
C5033 C5032 1.386 . S
C5033 C5037 1.393 . S
C5034 H5026 0.950 . S
C5034 C5032 1.391 . S
C5034 C5035 1.400 . S
C5035 C5034 1.400 . S
C5035 C5036 1.398 . S
C5035 C5041 1.491 . S
C5036 H5027 0.950 . S
C5036 C5035 1.398 . S
C5036 C5037 1.391 . S
C5037 H5025 0.950 . S
C5037 C5033 1.393 . S
C5037 C5036 1.391 . S
C5038 H5028 0.950 . S
C5038 C5039 1.386 . S
C5038 C5040 1.391 . S
C5039 C5038 1.386 . S
C5039 C5043 1.393 . S
C5040 H5029 0.950 . S
C5040 C5038 1.391 . S
C5040 C5041 1.400 . S
C5041 C5035 1.491 . S
C5041 C5040 1.400 . S
C5041 C5042 1.398 . S
C5042 H5030 0.950 . S
C5042 C5041 1.398 . S
C5042 C5043 1.391 . S
C5043 H5031 0.950 . S
C5043 C5039 1.393 . S
C5043 C5042 1.391 . S
H5044 C5052 0.950 . S
H5045 C5057 0.950 . S
H5046 C5054 0.950 . S
H5047 C5056 0.950 . S
H5048 C5058 0.950 . S
H5049 C5060 0.950 . S
H5050 C5062 0.950 . S
H5051 C5063 0.950 . S
C5052 H5044 0.950 . S
C5052 C5053 1.386 . S
C5052 C5054 1.391 . S
C5053 C5052 1.386 . S
C5053 C5057 1.393 . S
C5054 H5046 0.950 . S
C5054 C5052 1.391 . S
C5054 C5055 1.400 . S
C5055 C5054 1.400 . S
C5055 C5056 1.398 . S
C5055 C5061 1.491 . S
C5056 H5047 0.950 . S
C5056 C5055 1.398 . S
C5056 C5057 1.391 . S
C5057 H5045 0.950 . S
C5057 C5053 1.393 . S
C5057 C5056 1.391 . S
C5058 H5048 0.950 . S
C5058 C5059 1.386 . S
C5058 C5060 1.391 . S
C5059 C5058 1.386 . S
C5059 C5063 1.393 . S
C5060 H5049 0.950 . S
C5060 C5058 1.391 . S
C5060 C5061 1.400 . S
C5061 C5055 1.491 . S
C5061 C5060 1.400 . S
C5061 C5062 1.398 . S
C5062 H5050 0.950 . S
C5062 C5061 1.398 . S
C5062 C5063 1.391 . S
C5063 H5051 0.950 . S
C5063 C5059 1.393 . S
C5063 C5062 1.391 . S
H5064 C5072 0.950 . S
H5065 C5077 0.950 . S
H5066 C5074 0.950 . S
H5067 C5076 0.950 . S
H5068 C5078 0.950 . S
H5069 C5080 0.950 . S
H5070 C5082 0.950 . S
H5071 C5083 0.950 . S
C5072 H5064 0.950 . S
C5072 C5073 1.386 . S
C5072 C5074 1.391 . S
C5073 C5072 1.386 . S
C5073 C5077 1.393 . S
C5074 H5066 0.950 . S
C5074 C5072 1.391 . S
C5074 C5075 1.400 . S
C5075 C5074 1.400 . S
C5075 C5076 1.398 . S
C5075 C5081 1.491 . S
C5076 H5067 0.950 . S
C5076 C5075 1.398 . S
C5076 C5077 1.391 . S
C5077 H5065 0.950 . S
C5077 C5073 1.393 . S
C5077 C5076 1.391 . S
C5078 H5068 0.950 . S
C5078 C5079 1.386 . S
C5078 C5080 1.391 . S
C5079 C5078 1.386 . S
C5079 C5083 1.393 . S
C5080 H5069 0.950 . S
C5080 C5078 1.391 . S
C5080 C5081 1.400 . S
C5081 C5075 1.491 . S
C5081 C5080 1.400 . S
C5081 C5082 1.398 . S
C5082 H5070 0.950 . S
C5082 C5081 1.398 . S
C5082 C5083 1.391 . S
C5083 H5071 0.950 . S
C5083 C5079 1.393 . S
C5083 C5082 1.391 . S
H5084 C5092 0.950 . S
H5085 C5097 0.950 . S
H5086 C5094 0.950 . S
H5087 C5096 0.950 . S
H5088 C5098 0.950 . S
H5089 C5100 0.950 . S
H5090 C5102 0.950 . S
H5091 C5103 0.950 . S
C5092 H5084 0.950 . S
C5092 C5093 1.386 . S
C5092 C5094 1.391 . S
C5093 C5092 1.386 . S
C5093 C5097 1.393 . S
C5094 H5086 0.950 . S
C5094 C5092 1.391 . S
C5094 C5095 1.400 . S
C5095 C5094 1.400 . S
C5095 C5096 1.398 . S
C5095 C5101 1.491 . S
C5096 H5087 0.950 . S
C5096 C5095 1.398 . S
C5096 C5097 1.391 . S
C5097 H5085 0.950 . S
C5097 C5093 1.393 . S
C5097 C5096 1.391 . S
C5098 H5088 0.950 . S
C5098 C5099 1.386 . S
C5098 C5100 1.391 . S
C5099 C5098 1.386 . S
C5099 C5103 1.393 . S
C5100 H5089 0.950 . S
C5100 C5098 1.391 . S
C5100 C5101 1.400 . S
C5101 C5095 1.491 . S
C5101 C5100 1.400 . S
C5101 C5102 1.398 . S
C5102 H5090 0.950 . S
C5102 C5101 1.398 . S
C5102 C5103 1.391 . S
C5103 H5091 0.950 . S
C5103 C5099 1.393 . S
C5103 C5102 1.391 . S
H5104 C5112 0.950 . S
H5105 C5117 0.950 . S
H5106 C5114 0.950 . S
H5107 C5116 0.950 . S
H5108 C5118 0.950 . S
H5109 C5120 0.950 . S
H5110 C5122 0.950 . S
H5111 C5123 0.950 . S
C5112 H5104 0.950 . S
C5112 C5113 1.386 . S
C5112 C5114 1.391 . S
C5113 C5112 1.386 . S
C5113 C5117 1.393 . S
C5114 H5106 0.950 . S
C5114 C5112 1.391 . S
C5114 C5115 1.400 . S
C5115 C5114 1.400 . S
C5115 C5116 1.398 . S
C5115 C5121 1.491 . S
C5116 H5107 0.950 . S
C5116 C5115 1.398 . S
C5116 C5117 1.391 . S
C5117 H5105 0.950 . S
C5117 C5113 1.393 . S
C5117 C5116 1.391 . S
C5118 H5108 0.950 . S
C5118 C5119 1.386 . S
C5118 C5120 1.391 . S
C5119 C5118 1.386 . S
C5119 C5123 1.393 . S
C5120 H5109 0.950 . S
C5120 C5118 1.391 . S
C5120 C5121 1.400 . S
C5121 C5115 1.491 . S
C5121 C5120 1.400 . S
C5121 C5122 1.398 . S
C5122 H5110 0.950 . S
C5122 C5121 1.398 . S
C5122 C5123 1.391 . S
C5123 H5111 0.950 . S
C5123 C5119 1.393 . S
C5123 C5122 1.391 . S
H5124 C5132 0.950 . S
H5125 C5137 0.950 . S
H5126 C5134 0.950 . S
H5127 C5136 0.950 . S
H5128 C5138 0.950 . S
H5129 C5140 0.950 . S
H5130 C5142 0.950 . S
H5131 C5143 0.950 . S
C5132 H5124 0.950 . S
C5132 C5133 1.386 . S
C5132 C5134 1.391 . S
C5133 C5132 1.386 . S
C5133 C5137 1.393 . S
C5134 H5126 0.950 . S
C5134 C5132 1.391 . S
C5134 C5135 1.400 . S
C5135 C5134 1.400 . S
C5135 C5136 1.398 . S
C5135 C5141 1.491 . S
C5136 H5127 0.950 . S
C5136 C5135 1.398 . S
C5136 C5137 1.391 . S
C5137 H5125 0.950 . S
C5137 C5133 1.393 . S
C5137 C5136 1.391 . S
C5138 H5128 0.950 . S
C5138 C5139 1.386 . S
C5138 C5140 1.391 . S
C5139 C5138 1.386 . S
C5139 C5143 1.393 . S
C5140 H5129 0.950 . S
C5140 C5138 1.391 . S
C5140 C5141 1.400 . S
C5141 C5135 1.491 . S
C5141 C5140 1.400 . S
C5141 C5142 1.398 . S
C5142 H5130 0.950 . S
C5142 C5141 1.398 . S
C5142 C5143 1.391 . S
C5143 H5131 0.950 . S
C5143 C5139 1.393 . S
C5143 C5142 1.391 . S
H5144 C5152 0.950 . S
H5145 C5157 0.950 . S
H5146 C5154 0.950 . S
H5147 C5156 0.950 . S
H5148 C5158 0.950 . S
H5149 C5160 0.950 . S
H5150 C5162 0.950 . S
H5151 C5163 0.950 . S
C5152 H5144 0.950 . S
C5152 C5153 1.386 . S
C5152 C5154 1.391 . S
C5153 C5152 1.386 . S
C5153 C5157 1.393 . S
C5154 H5146 0.950 . S
C5154 C5152 1.391 . S
C5154 C5155 1.400 . S
C5155 C5154 1.400 . S
C5155 C5156 1.398 . S
C5155 C5161 1.491 . S
C5156 H5147 0.950 . S
C5156 C5155 1.398 . S
C5156 C5157 1.391 . S
C5157 H5145 0.950 . S
C5157 C5153 1.393 . S
C5157 C5156 1.391 . S
C5158 H5148 0.950 . S
C5158 C5159 1.386 . S
C5158 C5160 1.391 . S
C5159 C5158 1.386 . S
C5159 C5163 1.393 . S
C5160 H5149 0.950 . S
C5160 C5158 1.391 . S
C5160 C5161 1.400 . S
C5161 C5155 1.491 . S
C5161 C5160 1.400 . S
C5161 C5162 1.398 . S
C5162 H5150 0.950 . S
C5162 C5161 1.398 . S
C5162 C5163 1.391 . S
C5163 H5151 0.950 . S
C5163 C5159 1.393 . S
C5163 C5162 1.391 . S
H5164 C5172 0.950 . S
H5165 C5177 0.950 . S
H5166 C5174 0.950 . S
H5167 C5176 0.950 . S
H5168 C5178 0.950 . S
H5169 C5180 0.950 . S
H5170 C5182 0.950 . S
H5171 C5183 0.950 . S
C5172 H5164 0.950 . S
C5172 C5173 1.386 . S
C5172 C5174 1.391 . S
C5173 C5172 1.386 . S
C5173 C5177 1.393 . S
C5174 H5166 0.950 . S
C5174 C5172 1.391 . S
C5174 C5175 1.400 . S
C5175 C5174 1.400 . S
C5175 C5176 1.398 . S
C5175 C5181 1.491 . S
C5176 H5167 0.950 . S
C5176 C5175 1.398 . S
C5176 C5177 1.391 . S
C5177 H5165 0.950 . S
C5177 C5173 1.393 . S
C5177 C5176 1.391 . S
C5178 H5168 0.950 . S
C5178 C5179 1.386 . S
C5178 C5180 1.391 . S
C5179 C5178 1.386 . S
C5179 C5183 1.393 . S
C5180 H5169 0.950 . S
C5180 C5178 1.391 . S
C5180 C5181 1.400 . S
C5181 C5175 1.491 . S
C5181 C5180 1.400 . S
C5181 C5182 1.398 . S
C5182 H5170 0.950 . S
C5182 C5181 1.398 . S
C5182 C5183 1.391 . S
C5183 H5171 0.950 . S
C5183 C5179 1.393 . S
C5183 C5182 1.391 . S
C1353 C9 1.663 . S
C1359 C961 1.652 . S
C1373 C919 1.649 . S
C1379 C23 1.662 . S
C1393 C933 1.654 . S
C1399 C37 1.654 . S
C1413 C51 1.663 . S
C1419 C947 1.650 . S
C1433 C1003 1.660 . S
C1439 C65 1.650 . S
C1453 C975 1.649 . S
C1459 C79 1.661 . S
C1473 C989 1.650 . S
C1479 C93 1.663 . S
C1493 C107 1.663 . S
C1499 C905 1.650 . S
C1513 C121 1.663 . S
C1519 C891 1.650 . S
C1533 C135 1.663 . S
C1539 C849 1.649 . S
C1553 C149 1.663 . S
C1559 C863 1.652 . S
C1573 C163 1.658 . S
C1579 C877 1.659 . S
C1593 C177 1.649 . S
C1599 C807 1.662 . S
C1613 C821 1.662 . S
C1619 C191 1.649 . S
C1633 C835 1.654 . S
C1639 C205 1.662 . S
C1653 C219 1.657 . S
C1659 C793 1.651 . S
C1673 C233 1.658 . S
C1679 C779 1.658 . S
C1693 C247 1.663 . S
C1699 C695 1.649 . S
C1713 C709 1.653 . S
C1719 C261 1.662 . S
C1733 C723 1.658 . S
C1739 C275 1.658 . S
C1753 C681 1.663 . S
C1759 C289 1.651 . S
C1773 C303 1.663 . S
C1779 C751 1.650 . S
C1793 C317 1.656 . S
C1799 C765 1.660 . S
C1813 C331 1.651 . S
C1819 C737 1.658 . S
C1833 C345 1.656 . S
C1839 C1297 1.660 . S
C1853 C359 1.655 . S
C1859 C1255 1.661 . S
C1873 C373 1.663 . S
C1879 C1269 1.651 . S
C1893 C387 1.649 . S
C1899 C1283 1.663 . S
C1913 C401 1.659 . S
C1919 C1339 1.657 . S
C1933 C415 1.661 . S
C1939 C1311 1.655 . S
C1953 C1325 1.651 . S
C1959 C429 1.658 . S
C1973 C443 1.651 . S
C1979 C1241 1.663 . S
C1993 C457 1.652 . S
C1999 C1227 1.663 . S
C2013 C1185 1.650 . S
C2019 C471 1.663 . S
C2033 C485 1.659 . S
C2039 C1199 1.658 . S
C2053 C499 1.652 . S
C2059 C1213 1.662 . S
C2073 C513 1.649 . S
C2079 C1143 1.661 . S
C2093 C527 1.658 . S
C2099 C1157 1.659 . S
C2113 C541 1.662 . S
C2119 C1171 1.653 . S
C2133 C1129 1.662 . S
C2139 C555 1.653 . S
C2153 C569 1.653 . S
C2159 C1115 1.662 . S
C2173 C583 1.649 . S
C2179 C1031 1.663 . S
C2193 C597 1.661 . S
C2199 C1045 1.654 . S
C2213 C1059 1.663 . S
C2219 C611 1.652 . S
C2233 C625 1.656 . S
C2239 C1017 1.660 . S
C2253 C1087 1.649 . S
C2259 C639 1.662 . S
C2273 C653 1.654 . S
C2279 C1101 1.662 . S
C2293 C667 1.658 . S
C2299 C1073 1.659 . S
C2313 C7 1.451 . S
C2319 C553 1.468 . S
C2333 C21 1.470 . S
C2339 C511 1.449 . S
C2353 C525 1.465 . S
C2359 C35 1.454 . S
C2373 C49 1.459 . S
C2379 C539 1.459 . S
C2393 C469 1.466 . S
C2399 C63 1.452 . S
C2413 C483 1.456 . S
C2419 C77 1.463 . S
C2433 C497 1.459 . S
C2439 C91 1.460 . S
C2453 C455 1.449 . S
C2459 C105 1.470 . S
C2473 C441 1.452 . S
C2479 C119 1.467 . S
C2493 C133 1.449 . S
C2499 C399 1.469 . S
C2513 C413 1.450 . S
C2519 C147 1.469 . S
C2533 C161 1.457 . S
C2539 C427 1.461 . S
C2553 C357 1.459 . S
C2559 C175 1.459 . S
C2573 C371 1.464 . S
C2579 C189 1.455 . S
C2593 C203 1.468 . S
C2599 C385 1.451 . S
C2613 C217 1.453 . S
C2619 C343 1.466 . S
C2633 C231 1.450 . S
C2639 C623 1.469 . S
C2653 C245 1.468 . S
C2659 C665 1.451 . S
C2673 C637 1.449 . S
C2679 C259 1.470 . S
C2693 C651 1.468 . S
C2699 C273 1.451 . S
C2713 C287 1.458 . S
C2719 C567 1.460 . S
C2733 C301 1.451 . S
C2739 C595 1.468 . S
C2753 C609 1.466 . S
C2759 C315 1.452 . S
C2773 C329 1.469 . S
C2779 C581 1.449 . S
C2793 C1225 1.465 . S
C2799 C679 1.454 . S
C2813 C1183 1.460 . S
C2819 C693 1.459 . S
C2833 C1197 1.462 . S
C2839 C707 1.457 . S
C2853 C721 1.449 . S
C2859 C1211 1.470 . S
C2873 C1141 1.462 . S
C2879 C735 1.457 . S
C2893 C1155 1.450 . S
C2899 C749 1.468 . S
C2913 C763 1.470 . S
C2919 C1169 1.449 . S
C2933 C777 1.465 . S
C2939 C1127 1.453 . S
C2953 C1113 1.451 . S
C2959 C791 1.468 . S
C2973 C805 1.468 . S
C2979 C1071 1.451 . S
C2993 C1085 1.451 . S
C2999 C819 1.468 . S
C3013 C1099 1.463 . S
C3019 C833 1.456 . S
C3033 C847 1.450 . S
C3039 C1029 1.469 . S
C3053 C861 1.449 . S
C3059 C1043 1.469 . S
C3073 C1057 1.470 . S
C3079 C875 1.449 . S
C3093 C889 1.466 . S
C3099 C1015 1.452 . S
C3113 C1295 1.465 . S
C3119 C903 1.454 . S
C3133 C1337 1.469 . S
C3139 C917 1.450 . S
C3153 C931 1.449 . S
C3159 C1309 1.470 . S
C3173 C1323 1.465 . S
C3179 C945 1.453 . S
C3193 C1239 1.465 . S
C3199 C959 1.454 . S
C3213 C1267 1.469 . S
C3219 C973 1.449 . S
C3233 C987 1.449 . S
C3239 C1281 1.469 . S
C3253 C1253 1.470 . S
C3259 C1001 1.449 . S
C3273 C8 1.229 . S
C3279 C400 1.239 . S
C3293 C414 1.229 . S
C3299 C22 1.239 . S
C3313 C36 1.226 . S
C3319 C428 1.241 . S
C3333 C442 1.236 . S
C3339 C50 1.232 . S
C3353 C64 1.230 . S
C3359 C344 1.237 . S
C3373 C78 1.228 . S
C3379 C358 1.239 . S
C3393 C92 1.228 . S
C3399 C372 1.240 . S
C3413 C386 1.239 . S
C3419 C106 1.229 . S
C3433 C540 1.241 . S
C3439 C120 1.226 . S
C3453 C134 1.234 . S
C3459 C554 1.233 . S
C3473 C148 1.241 . S
C3479 C512 1.226 . S
C3493 C162 1.240 . S
C3499 C526 1.227 . S
C3513 C176 1.231 . S
C3519 C484 1.236 . S
C3533 C190 1.235 . S
C3539 C498 1.232 . S
C3553 C204 1.229 . S
C3559 C456 1.238 . S
C3573 C218 1.240 . S
C3579 C470 1.227 . S
C3593 C232 1.232 . S
C3599 C638 1.235 . S
C3613 C246 1.235 . S
C3619 C610 1.233 . S
C3633 C624 1.226 . S
C3639 C260 1.241 . S
C3653 C274 1.237 . S
C3659 C582 1.230 . S
C3673 C596 1.238 . S
C3679 C288 1.230 . S
C3693 C302 1.233 . S
C3699 C568 1.234 . S
C3713 C316 1.232 . S
C3719 C666 1.235 . S
C3733 C652 1.240 . S
C3739 C330 1.227 . S
C3753 C1072 1.227 . S
C3759 C680 1.241 . S
C3773 C694 1.226 . S
C3779 C1086 1.241 . S
C3793 C1100 1.236 . S
C3799 C708 1.231 . S
C3813 C722 1.230 . S
C3819 C1114 1.237 . S
C3833 C1016 1.241 . S
C3839 C736 1.227 . S
C3853 C1030 1.235 . S
C3859 C750 1.232 . S
C3873 C1044 1.226 . S
C3879 C764 1.241 . S
C3893 C778 1.238 . S
C3899 C1058 1.230 . S
C3913 C792 1.238 . S
C3919 C1212 1.229 . S
C3933 C1226 1.241 . S
C3939 C806 1.227 . S
C3953 C1184 1.235 . S
C3959 C820 1.233 . S
C3973 C1198 1.241 . S
C3979 C834 1.226 . S
C3993 C848 1.228 . S
C3999 C1156 1.239 . S
C4013 C862 1.238 . S
C4019 C1170 1.229 . S
C4033 C1128 1.234 . S
C4039 C876 1.233 . S
C4053 C1142 1.239 . S
C4059 C890 1.228 . S
C4073 C1310 1.232 . S
C4079 C904 1.236 . S
C4093 C918 1.237 . S
C4099 C1282 1.230 . S
C4113 C1296 1.226 . S
C4119 C932 1.241 . S
C4133 C946 1.228 . S
C4139 C1254 1.240 . S
C4153 C960 1.227 . S
C4159 C1268 1.241 . S
C4173 C974 1.237 . S
C4179 C1240 1.231 . S
C4193 C1338 1.227 . S
C4199 C988 1.241 . S
C4213 C1002 1.235 . S
C4219 C1324 1.232 . S
C4233 C437 1.289 . S
C4239 C3 1.301 . S
C4253 C395 1.289 . S
C4259 C17 1.301 . S
C4273 C31 1.293 . S
C4279 C409 1.298 . S
C4293 C423 1.298 . S
C4299 C45 1.292 . S
C4313 C353 1.294 . S
C4319 C59 1.297 . S
C4333 C73 1.301 . S
C4339 C367 1.290 . S
C4353 C87 1.301 . S
C4359 C381 1.290 . S
C4373 C339 1.289 . S
C4379 C101 1.301 . S
C4393 C619 1.301 . S
C4399 C115 1.289 . S
C4413 C129 1.289 . S
C4419 C577 1.301 . S
C4433 C143 1.300 . S
C4439 C591 1.291 . S
C4453 C605 1.291 . S
C4459 C157 1.299 . S
C4473 C171 1.289 . S
C4479 C661 1.301 . S
C4493 C633 1.300 . S
C4499 C185 1.291 . S
C4513 C647 1.301 . S
C4519 C199 1.289 . S
C4533 C213 1.291 . S
C4539 C563 1.299 . S
C4553 C227 1.299 . S
C4559 C549 1.291 . S
C4573 C241 1.300 . S
C4579 C465 1.291 . S
C4593 C255 1.294 . S
C4599 C479 1.296 . S
C4613 C493 1.289 . S
C4619 C269 1.301 . S
C4633 C451 1.296 . S
C4639 C283 1.294 . S
C4653 C297 1.293 . S
C4659 C521 1.297 . S
C4673 C311 1.289 . S
C4679 C535 1.301 . S
C4693 C325 1.294 . S
C4699 C507 1.296 . S
C4713 C675 1.294 . S
C4719 C1109 1.297 . S
C4733 C689 1.297 . S
C4739 C1067 1.294 . S
C4753 C703 1.300 . S
C4759 C1081 1.291 . S
C4773 C1095 1.297 . S
C4779 C717 1.293 . S
C4793 C1025 1.289 . S
C4799 C731 1.301 . S
C4813 C1039 1.300 . S
C4819 C745 1.291 . S
C4833 C759 1.292 . S
C4839 C1053 1.298 . S
C4853 C1011 1.289 . S
C4859 C773 1.301 . S
C4873 C1291 1.291 . S
C4879 C787 1.300 . S
C4893 C1249 1.294 . S
C4899 C801 1.296 . S
C4913 C1263 1.291 . S
C4919 C815 1.299 . S
C4933 C1277 1.299 . S
C4939 C829 1.292 . S
C4953 C1333 1.301 . S
C4959 C843 1.289 . S
C4973 C1305 1.301 . S
C4979 C857 1.290 . S
C4993 C1319 1.297 . S
C4999 C871 1.293 . S
C5013 C1235 1.301 . S
C5019 C885 1.289 . S
C5033 C899 1.297 . S
C5039 C1221 1.293 . S
C5053 C1137 1.290 . S
C5059 C913 1.301 . S
C5073 C1151 1.301 . S
C5079 C927 1.289 . S
C5093 C1165 1.299 . S
C5099 C941 1.292 . S
C5113 C1123 1.295 . S
C5119 C955 1.295 . S
C5133 C1193 1.294 . S
C5139 C969 1.297 . S
C5153 C1207 1.290 . S
C5159 C983 1.301 . S
C5173 C1179 1.301 . S
C5179 C997 1.290 . S
