# Generated by pormake.
# Topology qtz-e, (6)-cn, num edge types: 1
# Building blocks:
#     Node 0, Type 0, BuildingBlock: CUKXOW_clean_sbu_0, # of connection points: 6
#     Node 1, Type 0, BuildingBlock: CUKXOW_clean_sbu_0, # of connection points: 6
#     Node 2, Type 0, BuildingBlock: CUKXOW_clean_sbu_0, # of connection points: 6
#     Node 3, Type 0, BuildingBlock: CUKXOW_clean_sbu_0, # of connection points: 6
#     Node 4, Type 0, BuildingBlock: CUKXOW_clean_sbu_0, # of connection points: 6
#     Node 5, Type 0, BuildingBlock: CUKXOW_clean_sbu_0, # of connection points: 6
#     Edge 6, Type (0, 0), BuildingBlock: OJICUG_clean_linker_0, # of connection points: 2
#     Edge 7, Type (0, 0), BuildingBlock: OJICUG_clean_linker_0, # of connection points: 2
#     Edge 8, Type (0, 0), BuildingBlock: OJICUG_clean_linker_0, # of connection points: 2
#     Edge 9, Type (0, 0), BuildingBlock: OJICUG_clean_linker_0, # of connection points: 2
#     Edge 10, Type (0, 0), BuildingBlock: OJICUG_clean_linker_0, # of connection points: 2
#     Edge 11, Type (0, 0), BuildingBlock: OJICUG_clean_linker_0, # of connection points: 2
#     Edge 12, Type (0, 0), BuildingBlock: OJICUG_clean_linker_0, # of connection points: 2
#     Edge 13, Type (0, 0), BuildingBlock: OJICUG_clean_linker_0, # of connection points: 2
#     Edge 14, Type (0, 0), BuildingBlock: OJICUG_clean_linker_0, # of connection points: 2
#     Edge 15, Type (0, 0), BuildingBlock: OJICUG_clean_linker_0, # of connection points: 2
#     Edge 16, Type (0, 0), BuildingBlock: OJICUG_clean_linker_0, # of connection points: 2
#     Edge 17, Type (0, 0), BuildingBlock: OJICUG_clean_linker_0, # of connection points: 2
#     Edge 18, Type (0, 0), BuildingBlock: OJICUG_clean_linker_0, # of connection points: 2
#     Edge 19, Type (0, 0), BuildingBlock: OJICUG_clean_linker_0, # of connection points: 2
#     Edge 20, Type (0, 0), BuildingBlock: OJICUG_clean_linker_0, # of connection points: 2
#     Edge 21, Type (0, 0), BuildingBlock: OJICUG_clean_linker_0, # of connection points: 2
#     Edge 22, Type (0, 0), BuildingBlock: OJICUG_clean_linker_0, # of connection points: 2
#     Edge 23, Type (0, 0), BuildingBlock: OJICUG_clean_linker_0, # of connection points: 2
# Relax obj value: 0.108
# Max RMSD: 0.162
# Mean RMSD: 0.162
data_MOF--net-qtz-e--node1-CUKXOW_clean_sbu_0--edge1-OJICUG_clean_linker_0
_symmetry_space_group_name_H-M    P1
_symmetry_Int_Tables_number       1
_symmetry_cell_setting            triclinic
loop_
_symmetry_equiv_pos_as_xyz
'x, y, z'
_cell_length_a     20.040838
_cell_length_b     19.906085
_cell_length_c     27.480407
_cell_angle_alpha  89.722036
_cell_angle_beta   89.843439
_cell_angle_gamma 120.81651
loop_
_atom_site_label
_atom_site_type_symbol
_atom_site_fract_x
_atom_site_fract_y
_atom_site_fract_z
_atom_type_partial_charge
Tb0 Tb 0.12601 0.32331 0.08966 0.0
C1 C 0.30519 0.417 0.07499 0.0
Tb2 Tb 0.20002 0.43159 0.99918 0.0
O3 O 0.15591 0.24014 0.05853 0.0
O4 O 0.13248 0.30968 1.01324 0.0
O5 O 0.24951 0.38918 0.1086 0.0
C6 C 0.26236 0.49947 0.91447 0.0
O7 O 0.28977 0.41354 1.02806 0.0
C8 C 0.21244 0.50331 0.08173 0.0
C9 C 0.02636 0.37013 1.02002 0.0
O10 O 0.27598 0.45034 0.93706 0.0
O11 O 0.21146 0.50811 0.93856 0.0
O12 O 0.25944 0.53677 0.04533 0.0
O13 O 0.15912 0.43793 0.06816 0.0
O14 O 0.07975 0.39408 0.98512 0.0
O15 O 0.03364 0.34219 0.06273 0.0
C16 C 0.04699 0.25954 0.1724 0.0
O17 O 0.02901 0.22627 0.12995 0.0
O18 O 0.11036 0.32728 0.16818 0.0
C19 C 0.15452 0.26086 1.01376 0.0
Tb20 Tb 0.75514 0.14146 0.41835 0.0
C21 C 0.87639 0.32385 0.42891 0.0
Tb22 Tb 0.7603 0.259 0.34368 0.0
O23 O 0.80896 0.10023 0.36439 0.0
O24 O 0.83096 0.21305 0.36201 0.0
O25 O 0.83657 0.25524 0.4519 0.0
C26 C 0.76939 0.33468 0.26135 0.0
O27 O 0.86603 0.33392 0.3824 0.0
C28 C 0.68475 0.2477 0.42373 0.0
C29 C 0.62167 0.08445 0.33978 0.0
O30 O 0.7531 0.35024 0.304 0.0
O31 O 0.78274 0.27751 0.26515 0.0
O32 O 0.71789 0.30977 0.39626 0.0
O33 O 0.687 0.19268 0.40282 0.0
O34 O 0.66514 0.15003 0.31504 0.0
O35 O 0.64094 0.07296 0.38407 0.0
C36 C 0.73948 0.05694 0.49936 0.0
O37 O 0.72774 0.03128 0.45502 0.0
O38 O 0.7607 0.13041 0.49798 0.0
C39 C 0.8408 0.1647 0.33924 0.0
Tb40 Tb 0.6191 0.79235 0.75696 0.0
C41 C 0.55586 0.90553 0.74543 0.0
Tb42 Tb 0.50844 0.7657 0.67223 0.0
O43 O 0.71042 0.89646 0.71785 0.0
O44 O 0.6265 0.80153 0.67948 0.0
O45 O 0.58397 0.87558 0.7769 0.0
C46 C 0.44244 0.76681 0.58884 0.0
O47 O 0.53169 0.87725 0.70113 0.0
C48 C 0.43542 0.68913 0.75108 0.0
C49 C 0.54017 0.63663 0.69684 0.0
O50 O 0.49598 0.82904 0.61043 0.0
O51 O 0.42732 0.70541 0.61385 0.0
O52 O 0.40395 0.67404 0.70846 0.0
O53 O 0.499 0.75318 0.74889 0.0
O54 O 0.53984 0.67839 0.65948 0.0
O55 O 0.56431 0.66859 0.74019 0.0
C56 C 0.69123 0.77811 0.83519 0.0
O57 O 0.70115 0.76376 0.79054 0.0
O58 O 0.64175 0.80182 0.83559 0.0
C59 C 0.68254 0.87039 0.67488 0.0
Tb60 Tb 0.80012 0.62584 0.08902 0.0
C61 C 0.628 0.57964 0.07753 0.0
Tb62 Tb 0.7057 0.51886 1.00396 0.0
O63 O 0.80824 0.727 0.05059 0.0
O64 O 0.80072 0.63414 1.01189 0.0
O65 O 0.68158 0.59176 0.11037 0.0
C66 C 0.62232 0.4561 0.92389 0.0
O67 O 0.63553 0.5661 1.03115 0.0
C68 C 0.70827 0.44811 0.08409 0.0
C69 C 0.8668 0.54051 1.0219 0.0
O70 O 0.68614 0.52355 0.92596 0.0
O71 O 0.60541 0.42428 0.96688 0.0
O72 O 0.70003 0.41789 1.04116 0.0
O73 O 0.70721 0.51043 0.08045 0.0
O74 O 0.81329 0.52343 0.98837 0.0
O75 O 0.87175 0.579 0.06258 0.0
C76 C 0.88594 0.68046 0.17015 0.0
O77 O 0.86242 0.71857 0.14369 0.0
O78 O 0.8612 0.61264 0.15079 0.0
C79 C 0.80073 0.69707 1.00766 0.0
Tb80 Tb 0.17187 0.8159 0.41799 0.0
C81 C 0.0885 0.62987 0.42613 0.0
Tb82 Tb 0.19395 0.7222 0.33702 0.0
O83 O 0.10043 0.84275 0.36893 0.0
O84 O 0.10579 0.74285 0.36005 0.0
O85 O 0.10692 0.69637 0.4486 0.0
C86 C 0.20008 0.65647 0.25466 0.0
O87 O 0.10825 0.62621 0.38052 0.0
C88 C 0.27469 0.74166 0.41507 0.0
C89 C 0.29569 0.90164 0.33502 0.0
O90 O 0.13675 0.64458 0.2756 0.0
O91 O 0.25982 0.70567 0.27981 0.0
O92 O 0.25405 0.68413 0.38517 0.0
O93 O 0.25838 0.78997 0.39747 0.0
O94 O 0.2513 0.84059 0.30758 0.0
O95 O 0.28083 0.90026 0.38224 0.0
C96 C 0.18173 0.8913 0.50098 0.0
O97 O 0.18423 0.91761 0.45729 0.0
O98 O 0.17177 0.82167 0.49792 0.0
C99 C 0.08175 0.78347 0.34082 0.0
Tb100 Tb 0.30924 0.15407 0.75794 0.0
C101 C 0.42109 0.08896 0.74162 0.0
Tb102 Tb 0.41797 0.21185 0.66818 0.0
O103 O 0.23184 0.0419 0.72238 0.0
O104 O 0.29672 0.1436 0.68107 0.0
O105 O 0.37589 0.09714 0.77376 0.0
C106 C 0.48784 0.21961 0.58421 0.0
O107 O 0.437 0.12165 0.69765 0.0
C108 C 0.47851 0.29509 0.74699 0.0
C109 C 0.34253 0.30273 0.69491 0.0
O110 O 0.43496 0.1554 0.60499 0.0
O111 O 0.49968 0.279 0.61006 0.0
O112 O 0.50348 0.3219 0.70343 0.0
O113 O 0.43006 0.22318 0.74418 0.0
O114 O 0.35237 0.26851 0.65683 0.0
O115 O 0.32892 0.26962 0.73871 0.0
C116 C 0.23803 0.15697 0.84016 0.0
O117 O 0.21901 0.16477 0.7963 0.0
O118 O 0.29518 0.14404 0.83759 0.0
C119 C 0.25327 0.07046 0.67864 0.0
C120 C 0.1373 0.54923 0.19463 0.0
C121 C 0.20363 0.61755 0.21048 0.0
H122 H 0.08904 0.45823 0.14175 0.0
C123 C 0.27362 0.64749 0.18437 0.0
H124 H 0.08289 0.52482 0.2145 0.0
C125 C 0.27679 0.61022 0.14225 0.0
C126 C 0.21045 0.54177 0.12653 0.0
H127 H 0.32554 0.70012 0.19618 0.0
H128 H 0.33098 0.63457 0.12215 0.0
C129 C 0.14094 0.51107 0.15324 0.0
C130 C 0.5888 0.29869 0.5226 0.0
C131 C 0.53498 0.22491 0.54177 0.0
H132 H 0.67883 0.36328 0.47034 0.0
C133 C 0.53073 0.15776 0.52221 0.0
H134 H 0.59348 0.35135 0.53728 0.0
C135 C 0.58043 0.16466 0.48412 0.0
C136 C 0.63419 0.23874 0.46503 0.0
H137 H 0.49 0.10026 0.5368 0.0
H138 H 0.57645 0.11231 0.46947 0.0
C139 C 0.63781 0.30552 0.48448 0.0
C140 C 0.38771 0.57901 0.87013 0.0
C141 C 0.3071 0.54814 0.87288 0.0
H142 H 0.49314 0.65239 0.83009 0.0
C143 C 0.27036 0.56796 0.83721 0.0
H144 H 0.41718 0.56523 0.89793 0.0
C145 C 0.31311 0.61545 0.79803 0.0
C146 C 0.39367 0.64652 0.79516 0.0
H147 H 0.20838 0.54533 0.8391 0.0
H148 H 0.28314 0.62788 0.76985 0.0
C149 C 0.43115 0.62943 0.83191 0.0
C150 C 0.76322 0.33598 0.17048 0.0
C151 C 0.76007 0.36741 0.21549 0.0
H152 H 0.74814 0.3365 0.0932 0.0
C153 C 0.74087 0.42598 0.21681 0.0
H154 H 0.77746 0.29039 0.16858 0.0
C155 C 0.72365 0.45176 0.17399 0.0
C156 C 0.72572 0.41975 0.12905 0.0
H157 H 0.73765 0.4509 0.25107 0.0
H158 H 0.70806 0.49634 0.17614 0.0
C159 C 0.74576 0.36174 0.12753 0.0
C160 C 0.35692 0.69108 0.52135 0.0
C161 C 0.40199 0.76368 0.5439 0.0
H162 H 0.28138 0.62793 0.46283 0.0
C163 C 0.40471 0.83031 0.52426 0.0
H164 H 0.35374 0.63881 0.53591 0.0
C165 C 0.36187 0.82374 0.4825 0.0
C166 C 0.31749 0.7508 0.45992 0.0
H167 H 0.43886 0.88678 0.54145 0.0
H168 H 0.36422 0.87539 0.46758 0.0
C169 C 0.31548 0.6848 0.47959 0.0
C170 C 0.6026 0.45757 0.83428 0.0
C171 C 0.58064 0.41756 0.87907 0.0
H172 H 0.58634 0.4498 0.75693 0.0
C173 C 0.52171 0.33849 0.88038 0.0
H174 H 0.64773 0.51875 0.83244 0.0
C175 C 0.4875 0.29907 0.83736 0.0
C176 C 0.51094 0.33827 0.79242 0.0
H177 H 0.50386 0.30632 0.91448 0.0
H178 H 0.44443 0.23737 0.83921 0.0
C179 C 0.56773 0.41819 0.79121 0.0
C180 C 0.4257 0.44898 0.12183 0.0
C181 C 0.38689 0.46975 0.08812 0.0
H182 H 0.53715 0.47144 0.14605 0.0
C183 C 0.4291 0.53969 0.06131 0.0
H184 H 0.39408 0.39555 0.14301 0.0
C185 C 0.50955 0.5833 0.06361 0.0
C186 C 0.54933 0.55766 0.09266 0.0
H187 H 0.40038 0.55779 1.03559 0.0
H188 H 0.54095 0.63247 1.03889 0.0
C189 C 0.50717 0.49297 0.12401 0.0
C190 C 0.96513 0.52889 0.46451 0.0
C191 C 0.04182 0.55428 0.45081 0.0
H192 H 0.84954 0.42998 0.47015 0.0
C193 C 0.06593 0.49954 0.44659 0.0
H194 H 0.94535 0.57021 0.46735 0.0
C195 C 0.01147 0.41966 0.44836 0.0
C196 C 0.93273 0.39424 0.45451 0.0
H197 H 0.12512 0.51835 0.43591 0.0
H198 H 0.02943 0.37866 0.4383 0.0
C199 C 0.91051 0.44872 0.46629 0.0
C200 C 0.43187 -0.01649 0.78438 0.0
C201 C 0.46493 0.05146 0.75561 0.0
H202 H 0.4383 0.88276 0.8048 0.0
C203 C 0.53885 0.07989 0.73466 0.0
H204 H 0.37521 0.96101 0.80104 0.0
C205 C 0.57473 0.03607 0.73711 0.0
C206 C 0.53774 0.96395 0.76114 0.0
H207 H 0.56652 0.13341 0.71327 0.0
H208 H 0.62768 0.05498 0.71643 0.0
C209 C 0.46828 0.93951 0.78697 0.0
C210 C 0.45858 0.50905 0.73842 0.0
C211 C 0.49004 0.55086 0.69487 0.0
H212 H 0.38274 0.39983 0.77244 0.0
C213 C 0.46446 0.51143 0.65039 0.0
H214 H 0.47557 0.53753 0.77341 0.0
C215 C 0.41108 0.43081 0.64977 0.0
C216 C 0.38117 0.38888 0.69362 0.0
H217 H 0.48641 0.54259 0.6162 0.0
H218 H 0.3954 0.40097 0.61514 0.0
C219 C 0.40377 0.42971 0.73779 0.0
C220 C 0.95993 0.42911 0.97477 0.0
C221 C -0.026 0.40176 1.01861 0.0
H222 H 0.91507 0.49559 0.94124 0.0
C223 C 0.95257 0.42099 0.0628 0.0
H224 H -0.02331 0.41605 0.94019 0.0
C225 C 0.92215 0.46994 0.06344 0.0
C226 C 0.90924 0.49839 1.01987 0.0
H227 H 0.96298 0.40178 0.09738 0.0
H228 H 0.90724 0.48417 0.09829 0.0
C229 C 0.92641 0.47594 0.97538 0.0
C230 C 0.42157 0.91057 0.3254 0.0
C231 C 0.37783 0.94747 0.32177 0.0
H232 H 0.5348 0.92595 0.33488 0.0
C233 C 0.41569 0.02877 0.31685 0.0
H234 H 0.39294 0.84773 0.33036 0.0
C235 C 0.4968 0.07305 0.31769 0.0
C236 C 0.54022 0.03647 0.32549 0.0
H237 H 0.38274 0.05808 0.31523 0.0
H238 H 0.52515 0.13628 0.31654 0.0
C239 C 0.50235 0.95493 0.32817 0.0
C240 C 0.23181 0.16313 0.93125 0.0
C241 C 0.21097 0.17681 0.88505 0.0
H242 H 0.22933 0.17825 1.00853 0.0
C243 C 0.16977 0.21631 0.88177 0.0
H244 H 0.26419 0.13342 0.93478 0.0
C245 C 0.15152 0.24343 0.92367 0.0
C246 C 0.17278 0.23035 0.96985 0.0
H247 H 0.1537 0.22849 0.84665 0.0
H248 H 0.12106 0.27507 0.91987 0.0
C249 C 0.21215 0.18898 0.97336 0.0
C250 C 0.95461 0.26438 0.29127 0.0
C251 C 0.89555 0.18591 0.29778 0.0
H252 H 0.04965 0.34822 0.24738 0.0
C253 C 0.88844 0.13027 0.26366 0.0
H254 H 0.96169 0.3086 0.317 0.0
C255 C 0.93811 0.1535 0.22283 0.0
C256 C -0.00302 0.23223 0.21646 0.0
H257 H 0.84315 0.06949 0.26777 0.0
H258 H 0.93029 0.11015 0.1962 0.0
C259 C 0.00533 0.28705 0.2515 0.0
C260 C 0.74151 0.00074 0.63186 0.0
C261 C 0.70054 0.91858 0.62984 0.0
H262 H 0.78502 0.10887 0.59231 0.0
C263 C 0.67387 0.88249 0.58442 0.0
H264 H 0.76227 0.03026 0.66634 0.0
C265 C 0.68772 0.92744 0.542 0.0
C266 C 0.72751 0.00955 0.5441 0.0
H267 H 0.64184 0.81929 0.58171 0.0
H268 H 0.66602 0.8978 0.50765 0.0
C269 C 0.75426 0.04572 0.58951 0.0
C270 C 0.7145 0.78604 0.92514 0.0
C271 C 0.72459 0.76257 0.87889 0.0
H272 H 0.73172 0.78454 1.00212 0.0
C273 C 0.76347 0.72075 0.87513 0.0
H274 H 0.68471 0.81828 0.92914 0.0
C275 C 0.78973 0.70086 0.91694 0.0
C276 C 0.77811 0.72287 0.96324 0.0
H277 H 0.77194 0.70173 0.83999 0.0
H278 H 0.81846 0.66755 0.91313 0.0
C279 C 0.74158 0.76693 0.96687 0.0
C280 C -0.00285 0.68164 0.28117 0.0
C281 C 0.02971 0.75861 0.29805 0.0
H282 H 0.92667 0.59718 0.22787 0.0
C283 C 0.01252 0.80998 0.27343 0.0
H284 H 0.00764 0.64006 0.30002 0.0
C285 C 0.96502 0.78496 0.2319 0.0
C286 C 0.93406 0.70824 0.21461 0.0
H287 H 0.03659 0.86954 0.28581 0.0
H288 H 0.95325 0.8257 0.21309 0.0
C289 C 0.95023 0.65687 0.23995 0.0
C290 C 0.19973 0.94271 0.63508 0.0
C291 C 0.23216 0.02421 0.63324 0.0
H292 H 0.15896 0.83679 0.59459 0.0
C293 C 0.24557 0.06124 0.5876 0.0
H294 H 0.18901 0.91266 0.66975 0.0
C295 C 0.22717 0.01768 0.54465 0.0
C296 C 0.19614 0.93638 0.54647 0.0
H297 H 0.27052 0.12398 0.58507 0.0
H298 H 0.23879 0.04792 0.50999 0.0
C299 C 0.18255 0.89932 0.5921 0.0
loop_
_geom_bond_atom_site_label_1
_geom_bond_atom_site_label_2
_geom_bond_distance
_geom_bond_site_symmetry_2
_ccdc_geom_bond_type
Tb0 O3 2.453 1_554 S
Tb0 O4 2.596 1_554 S
Tb0 O5 2.374 . S
Tb0 O13 2.343 . S
Tb0 O15 2.353 1_554 S
Tb0 O17 2.427 . S
Tb0 O18 2.513 . S
C1 O5 1.251 . S
C1 O7 1.263 . S
Tb2 O4 2.343 . S
Tb2 O7 2.353 1_556 S
Tb2 O10 2.427 . S
Tb2 O11 2.513 . S
Tb2 O12 2.453 1_556 S
Tb2 O13 2.596 1_556 S
Tb2 O14 2.374 . S
O3 Tb0 2.453 1_556 S
O3 C19 1.245 . S
O4 Tb0 2.596 1_556 S
O4 Tb2 2.343 . S
O4 C19 1.259 . S
O5 Tb0 2.374 . S
O5 C1 1.251 . S
C6 O10 1.275 . S
C6 O11 1.246 . S
O7 C1 1.263 . S
O7 Tb2 2.353 1_554 S
C8 O12 1.245 . S
C8 O13 1.259 . S
C9 O14 1.250 . S
C9 O15 1.263 . S
O10 Tb2 2.427 . S
O10 C6 1.275 . S
O11 Tb2 2.513 . S
O11 C6 1.246 . S
O12 Tb2 2.453 1_554 S
O12 C8 1.245 . S
O13 Tb0 2.343 . S
O13 Tb2 2.596 1_554 S
O13 C8 1.259 . S
O14 Tb2 2.374 . S
O14 C9 1.250 . S
O15 Tb0 2.353 1_556 S
O15 C9 1.263 . S
C16 O17 1.275 . S
C16 O18 1.246 . S
O17 Tb0 2.427 . S
O17 C16 1.275 . S
O18 Tb0 2.513 . S
O18 C16 1.246 . S
C19 O3 1.245 . S
C19 O4 1.259 . S
Tb20 O23 2.453 . S
Tb20 O24 2.596 . S
Tb20 O25 2.374 . S
Tb20 O33 2.343 . S
Tb20 O35 2.353 . S
Tb20 O37 2.427 . S
Tb20 O38 2.513 . S
C21 O25 1.251 . S
C21 O27 1.263 . S
Tb22 O24 2.343 . S
Tb22 O27 2.353 . S
Tb22 O30 2.427 . S
Tb22 O31 2.513 . S
Tb22 O32 2.453 . S
Tb22 O33 2.596 . S
Tb22 O34 2.374 . S
O23 Tb20 2.453 . S
O23 C39 1.245 . S
O24 Tb20 2.596 . S
O24 Tb22 2.343 . S
O24 C39 1.259 . S
O25 Tb20 2.374 . S
O25 C21 1.251 . S
C26 O30 1.275 . S
C26 O31 1.246 . S
O27 C21 1.263 . S
O27 Tb22 2.353 . S
C28 O32 1.245 . S
C28 O33 1.259 . S
C29 O34 1.250 . S
C29 O35 1.263 . S
O30 Tb22 2.427 . S
O30 C26 1.275 . S
O31 Tb22 2.513 . S
O31 C26 1.246 . S
O32 Tb22 2.453 . S
O32 C28 1.245 . S
O33 Tb20 2.343 . S
O33 Tb22 2.596 . S
O33 C28 1.259 . S
O34 Tb22 2.374 . S
O34 C29 1.250 . S
O35 Tb20 2.353 . S
O35 C29 1.263 . S
C36 O37 1.275 . S
C36 O38 1.246 . S
O37 Tb20 2.427 . S
O37 C36 1.275 . S
O38 Tb20 2.513 . S
O38 C36 1.246 . S
C39 O23 1.245 . S
C39 O24 1.259 . S
Tb40 O43 2.453 . S
Tb40 O44 2.596 . S
Tb40 O45 2.374 . S
Tb40 O53 2.343 . S
Tb40 O55 2.353 . S
Tb40 O57 2.427 . S
Tb40 O58 2.513 . S
C41 O45 1.251 . S
C41 O47 1.263 . S
Tb42 O44 2.343 . S
Tb42 O47 2.353 . S
Tb42 O50 2.427 . S
Tb42 O51 2.513 . S
Tb42 O52 2.453 . S
Tb42 O53 2.596 . S
Tb42 O54 2.374 . S
O43 Tb40 2.453 . S
O43 C59 1.245 . S
O44 Tb40 2.596 . S
O44 Tb42 2.343 . S
O44 C59 1.259 . S
O45 Tb40 2.374 . S
O45 C41 1.251 . S
C46 O50 1.275 . S
C46 O51 1.246 . S
O47 C41 1.263 . S
O47 Tb42 2.353 . S
C48 O52 1.245 . S
C48 O53 1.259 . S
C49 O54 1.250 . S
C49 O55 1.263 . S
O50 Tb42 2.427 . S
O50 C46 1.275 . S
O51 Tb42 2.513 . S
O51 C46 1.246 . S
O52 Tb42 2.453 . S
O52 C48 1.245 . S
O53 Tb40 2.343 . S
O53 Tb42 2.596 . S
O53 C48 1.259 . S
O54 Tb42 2.374 . S
O54 C49 1.250 . S
O55 Tb40 2.353 . S
O55 C49 1.263 . S
C56 O57 1.275 . S
C56 O58 1.246 . S
O57 Tb40 2.427 . S
O57 C56 1.275 . S
O58 Tb40 2.513 . S
O58 C56 1.246 . S
C59 O43 1.245 . S
C59 O44 1.259 . S
Tb60 O63 2.453 1_554 S
Tb60 O64 2.596 1_554 S
Tb60 O65 2.374 . S
Tb60 O73 2.343 . S
Tb60 O75 2.353 1_554 S
Tb60 O77 2.427 . S
Tb60 O78 2.513 . S
C61 O65 1.251 . S
C61 O67 1.263 . S
Tb62 O64 2.343 . S
Tb62 O67 2.353 1_556 S
Tb62 O70 2.427 . S
Tb62 O71 2.513 . S
Tb62 O72 2.453 1_556 S
Tb62 O73 2.596 1_556 S
Tb62 O74 2.374 . S
O63 Tb60 2.453 1_556 S
O63 C79 1.245 . S
O64 Tb60 2.596 1_556 S
O64 Tb62 2.343 . S
O64 C79 1.259 . S
O65 Tb60 2.374 . S
O65 C61 1.251 . S
C66 O70 1.275 . S
C66 O71 1.246 . S
O67 C61 1.263 . S
O67 Tb62 2.353 1_554 S
C68 O72 1.245 . S
C68 O73 1.259 . S
C69 O74 1.250 . S
C69 O75 1.263 . S
O70 Tb62 2.427 . S
O70 C66 1.275 . S
O71 Tb62 2.513 . S
O71 C66 1.246 . S
O72 Tb62 2.453 1_554 S
O72 C68 1.245 . S
O73 Tb60 2.343 . S
O73 Tb62 2.596 1_554 S
O73 C68 1.259 . S
O74 Tb62 2.374 . S
O74 C69 1.250 . S
O75 Tb60 2.353 1_556 S
O75 C69 1.263 . S
C76 O77 1.275 . S
C76 O78 1.246 . S
O77 Tb60 2.427 . S
O77 C76 1.275 . S
O78 Tb60 2.513 . S
O78 C76 1.246 . S
C79 O63 1.245 . S
C79 O64 1.259 . S
Tb80 O83 2.453 . S
Tb80 O84 2.596 . S
Tb80 O85 2.374 . S
Tb80 O93 2.343 . S
Tb80 O95 2.353 . S
Tb80 O97 2.427 . S
Tb80 O98 2.513 . S
C81 O85 1.251 . S
C81 O87 1.263 . S
Tb82 O84 2.343 . S
Tb82 O87 2.353 . S
Tb82 O90 2.427 . S
Tb82 O91 2.513 . S
Tb82 O92 2.453 . S
Tb82 O93 2.596 . S
Tb82 O94 2.374 . S
O83 Tb80 2.453 . S
O83 C99 1.245 . S
O84 Tb80 2.596 . S
O84 Tb82 2.343 . S
O84 C99 1.259 . S
O85 Tb80 2.374 . S
O85 C81 1.251 . S
C86 O90 1.275 . S
C86 O91 1.246 . S
O87 C81 1.263 . S
O87 Tb82 2.353 . S
C88 O92 1.245 . S
C88 O93 1.259 . S
C89 O94 1.250 . S
C89 O95 1.263 . S
O90 Tb82 2.427 . S
O90 C86 1.275 . S
O91 Tb82 2.513 . S
O91 C86 1.246 . S
O92 Tb82 2.453 . S
O92 C88 1.245 . S
O93 Tb80 2.343 . S
O93 Tb82 2.596 . S
O93 C88 1.259 . S
O94 Tb82 2.374 . S
O94 C89 1.250 . S
O95 Tb80 2.353 . S
O95 C89 1.263 . S
C96 O97 1.275 . S
C96 O98 1.246 . S
O97 Tb80 2.427 . S
O97 C96 1.275 . S
O98 Tb80 2.513 . S
O98 C96 1.246 . S
C99 O83 1.245 . S
C99 O84 1.259 . S
Tb100 O103 2.453 . S
Tb100 O104 2.596 . S
Tb100 O105 2.374 . S
Tb100 O113 2.343 . S
Tb100 O115 2.353 . S
Tb100 O117 2.427 . S
Tb100 O118 2.513 . S
C101 O105 1.251 . S
C101 O107 1.263 . S
Tb102 O104 2.343 . S
Tb102 O107 2.353 . S
Tb102 O110 2.427 . S
Tb102 O111 2.513 . S
Tb102 O112 2.453 . S
Tb102 O113 2.596 . S
Tb102 O114 2.374 . S
O103 Tb100 2.453 . S
O103 C119 1.245 . S
O104 Tb100 2.596 . S
O104 Tb102 2.343 . S
O104 C119 1.259 . S
O105 Tb100 2.374 . S
O105 C101 1.251 . S
C106 O110 1.275 . S
C106 O111 1.246 . S
O107 C101 1.263 . S
O107 Tb102 2.353 . S
C108 O112 1.245 . S
C108 O113 1.259 . S
C109 O114 1.250 . S
C109 O115 1.263 . S
O110 Tb102 2.427 . S
O110 C106 1.275 . S
O111 Tb102 2.513 . S
O111 C106 1.246 . S
O112 Tb102 2.453 . S
O112 C108 1.245 . S
O113 Tb100 2.343 . S
O113 Tb102 2.596 . S
O113 C108 1.259 . S
O114 Tb102 2.374 . S
O114 C109 1.250 . S
O115 Tb100 2.353 . S
O115 C109 1.263 . S
C116 O117 1.275 . S
C116 O118 1.246 . S
O117 Tb100 2.427 . S
O117 C116 1.275 . S
O118 Tb100 2.513 . S
O118 C116 1.246 . S
C119 O103 1.245 . S
C119 O104 1.259 . S
C120 C121 1.387 . S
C120 H124 0.950 . S
C120 C129 1.390 . S
C121 C120 1.387 . S
C121 C123 1.387 . S
H122 C129 0.950 . S
C123 C121 1.387 . S
C123 C125 1.390 . S
C123 H127 0.950 . S
H124 C120 0.950 . S
C125 C123 1.390 . S
C125 C126 1.387 . S
C125 H128 0.950 . S
C126 C125 1.387 . S
C126 C129 1.387 . S
H127 C123 0.950 . S
H128 C125 0.950 . S
C129 C120 1.390 . S
C129 H122 0.950 . S
C129 C126 1.387 . S
C130 C131 1.387 . S
C130 H134 0.950 . S
C130 C139 1.390 . S
C131 C130 1.387 . S
C131 C133 1.387 . S
H132 C139 0.950 . S
C133 C131 1.387 . S
C133 C135 1.390 . S
C133 H137 0.950 . S
H134 C130 0.950 . S
C135 C133 1.390 . S
C135 C136 1.387 . S
C135 H138 0.950 . S
C136 C135 1.387 . S
C136 C139 1.387 . S
H137 C133 0.950 . S
H138 C135 0.950 . S
C139 C130 1.390 . S
C139 H132 0.950 . S
C139 C136 1.387 . S
C140 C141 1.387 . S
C140 H144 0.950 . S
C140 C149 1.390 . S
C141 C140 1.387 . S
C141 C143 1.387 . S
H142 C149 0.950 . S
C143 C141 1.387 . S
C143 C145 1.390 . S
C143 H147 0.950 . S
H144 C140 0.950 . S
C145 C143 1.390 . S
C145 C146 1.387 . S
C145 H148 0.950 . S
C146 C145 1.387 . S
C146 C149 1.387 . S
H147 C143 0.950 . S
H148 C145 0.950 . S
C149 C140 1.390 . S
C149 H142 0.950 . S
C149 C146 1.387 . S
C150 C151 1.387 . S
C150 H154 0.950 . S
C150 C159 1.390 . S
C151 C150 1.387 . S
C151 C153 1.387 . S
H152 C159 0.950 . S
C153 C151 1.387 . S
C153 C155 1.390 . S
C153 H157 0.950 . S
H154 C150 0.950 . S
C155 C153 1.390 . S
C155 C156 1.387 . S
C155 H158 0.950 . S
C156 C155 1.387 . S
C156 C159 1.387 . S
H157 C153 0.950 . S
H158 C155 0.950 . S
C159 C150 1.390 . S
C159 H152 0.950 . S
C159 C156 1.387 . S
C160 C161 1.387 . S
C160 H164 0.950 . S
C160 C169 1.390 . S
C161 C160 1.387 . S
C161 C163 1.387 . S
H162 C169 0.950 . S
C163 C161 1.387 . S
C163 C165 1.390 . S
C163 H167 0.950 . S
H164 C160 0.950 . S
C165 C163 1.390 . S
C165 C166 1.387 . S
C165 H168 0.950 . S
C166 C165 1.387 . S
C166 C169 1.387 . S
H167 C163 0.950 . S
H168 C165 0.950 . S
C169 C160 1.390 . S
C169 H162 0.950 . S
C169 C166 1.387 . S
C170 C171 1.387 . S
C170 H174 0.950 . S
C170 C179 1.390 . S
C171 C170 1.387 . S
C171 C173 1.387 . S
H172 C179 0.950 . S
C173 C171 1.387 . S
C173 C175 1.390 . S
C173 H177 0.950 . S
H174 C170 0.950 . S
C175 C173 1.390 . S
C175 C176 1.387 . S
C175 H178 0.950 . S
C176 C175 1.387 . S
C176 C179 1.387 . S
H177 C173 0.950 . S
H178 C175 0.950 . S
C179 C170 1.390 . S
C179 H172 0.950 . S
C179 C176 1.387 . S
C180 C181 1.387 . S
C180 H184 0.950 . S
C180 C189 1.390 . S
C181 C180 1.387 . S
C181 C183 1.387 1_554 S
H182 C189 0.950 . S
C183 C181 1.387 1_556 S
C183 C185 1.390 . S
C183 H187 0.950 . S
H184 C180 0.950 . S
C185 C183 1.390 . S
C185 C186 1.387 1_556 S
C185 H188 0.950 . S
C186 C185 1.387 1_554 S
C186 C189 1.387 . S
H187 C183 0.950 . S
H188 C185 0.950 . S
C189 C180 1.390 . S
C189 H182 0.950 . S
C189 C186 1.387 . S
C190 C191 1.387 . S
C190 H194 0.950 . S
C190 C199 1.390 1_455 S
C191 C190 1.387 . S
C191 C193 1.387 . S
H192 C199 0.950 . S
C193 C191 1.387 . S
C193 C195 1.390 1_455 S
C193 H197 0.950 . S
H194 C190 0.950 . S
C195 C193 1.390 1_655 S
C195 C196 1.387 . S
C195 H198 0.950 . S
C196 C195 1.387 . S
C196 C199 1.387 . S
H197 C193 0.950 . S
H198 C195 0.950 . S
C199 C190 1.390 1_655 S
C199 H192 0.950 . S
C199 C196 1.387 . S
C200 C201 1.387 . S
C200 H204 0.950 . S
C200 C209 1.390 1_545 S
C201 C200 1.387 . S
C201 C203 1.387 . S
H202 C209 0.950 . S
C203 C201 1.387 . S
C203 C205 1.390 1_545 S
C203 H207 0.950 . S
H204 C200 0.950 . S
C205 C203 1.390 1_565 S
C205 C206 1.387 . S
C205 H208 0.950 . S
C206 C205 1.387 . S
C206 C209 1.387 . S
H207 C203 0.950 . S
H208 C205 0.950 . S
C209 C200 1.390 1_565 S
C209 H202 0.950 . S
C209 C206 1.387 . S
C210 C211 1.387 . S
C210 H214 0.950 . S
C210 C219 1.390 . S
C211 C210 1.387 . S
C211 C213 1.387 . S
H212 C219 0.950 . S
C213 C211 1.387 . S
C213 C215 1.390 . S
C213 H217 0.950 . S
H214 C210 0.950 . S
C215 C213 1.390 . S
C215 C216 1.387 . S
C215 H218 0.950 . S
C216 C215 1.387 . S
C216 C219 1.387 . S
H217 C213 0.950 . S
H218 C215 0.950 . S
C219 C210 1.390 . S
C219 H212 0.950 . S
C219 C216 1.387 . S
C220 C221 1.387 . S
C220 H224 0.950 . S
C220 C229 1.390 1_455 S
C221 C220 1.387 . S
C221 C223 1.387 1_556 S
H222 C229 0.950 . S
C223 C221 1.387 1_554 S
C223 C225 1.390 1_455 S
C223 H227 0.950 . S
H224 C220 0.950 . S
C225 C223 1.390 1_655 S
C225 C226 1.387 1_554 S
C225 H228 0.950 . S
C226 C225 1.387 1_556 S
C226 C229 1.387 . S
H227 C223 0.950 . S
H228 C225 0.950 . S
C229 C220 1.390 1_655 S
C229 H222 0.950 . S
C229 C226 1.387 . S
C230 C231 1.387 . S
C230 H234 0.950 . S
C230 C239 1.390 1_565 S
C231 C230 1.387 . S
C231 C233 1.387 . S
H232 C239 0.950 . S
C233 C231 1.387 . S
C233 C235 1.390 1_565 S
C233 H237 0.950 . S
H234 C230 0.950 . S
C235 C233 1.390 1_545 S
C235 C236 1.387 . S
C235 H238 0.950 . S
C236 C235 1.387 . S
C236 C239 1.387 . S
H237 C233 0.950 . S
H238 C235 0.950 . S
C239 C230 1.390 1_545 S
C239 H232 0.950 . S
C239 C236 1.387 . S
C240 C241 1.387 . S
C240 H244 0.950 . S
C240 C249 1.390 . S
C241 C240 1.387 . S
C241 C243 1.387 . S
H242 C249 0.950 . S
C243 C241 1.387 . S
C243 C245 1.390 . S
C243 H247 0.950 . S
H244 C240 0.950 . S
C245 C243 1.390 . S
C245 C246 1.387 . S
C245 H248 0.950 . S
C246 C245 1.387 . S
C246 C249 1.387 . S
H247 C243 0.950 . S
H248 C245 0.950 . S
C249 C240 1.390 . S
C249 H242 0.950 . S
C249 C246 1.387 . S
C250 C251 1.387 . S
C250 H254 0.950 . S
C250 C259 1.390 1_655 S
C251 C250 1.387 . S
C251 C253 1.387 . S
H252 C259 0.950 . S
C253 C251 1.387 . S
C253 C255 1.390 . S
C253 H257 0.950 . S
H254 C250 0.950 . S
C255 C253 1.390 . S
C255 C256 1.387 1_655 S
C255 H258 0.950 . S
C256 C255 1.387 1_455 S
C256 C259 1.387 . S
H257 C253 0.950 . S
H258 C255 0.950 . S
C259 C250 1.390 1_455 S
C259 H252 0.950 . S
C259 C256 1.387 . S
C260 C261 1.387 1_545 S
C260 H264 0.950 . S
C260 C269 1.390 . S
C261 C260 1.387 1_565 S
C261 C263 1.387 . S
H262 C269 0.950 . S
C263 C261 1.387 . S
C263 C265 1.390 . S
C263 H267 0.950 . S
H264 C260 0.950 . S
C265 C263 1.390 . S
C265 C266 1.387 1_565 S
C265 H268 0.950 . S
C266 C265 1.387 1_545 S
C266 C269 1.387 . S
H267 C263 0.950 . S
H268 C265 0.950 . S
C269 C260 1.390 . S
C269 H262 0.950 . S
C269 C266 1.387 . S
C270 C271 1.387 . S
C270 H274 0.950 . S
C270 C279 1.390 . S
C271 C270 1.387 . S
C271 C273 1.387 . S
H272 C279 0.950 . S
C273 C271 1.387 . S
C273 C275 1.390 . S
C273 H277 0.950 . S
H274 C270 0.950 . S
C275 C273 1.390 . S
C275 C276 1.387 . S
C275 H278 0.950 . S
C276 C275 1.387 . S
C276 C279 1.387 . S
H277 C273 0.950 . S
H278 C275 0.950 . S
C279 C270 1.390 . S
C279 H272 0.950 . S
C279 C276 1.387 . S
C280 C281 1.387 . S
C280 H284 0.945 . S
C280 C289 1.390 1_455 S
C281 C280 1.387 . S
C281 C283 1.387 . S
H282 C289 0.950 . S
C283 C281 1.387 . S
C283 C285 1.390 . S
C283 H287 0.950 . S
H284 C280 0.945 . S
C285 C283 1.390 . S
C285 C286 1.387 1_455 S
C285 H288 0.950 . S
C286 C285 1.387 1_655 S
C286 C289 1.387 . S
H287 C283 0.950 . S
H288 C285 0.950 . S
C289 C280 1.390 1_655 S
C289 H282 0.950 . S
C289 C286 1.387 . S
C290 C291 1.387 1_565 S
C290 H294 0.950 . S
C290 C299 1.390 . S
C291 C290 1.387 1_545 S
C291 C293 1.387 . S
H292 C299 0.950 . S
C293 C291 1.387 . S
C293 C295 1.390 . S
C293 H297 0.950 . S
H294 C290 0.950 . S
C295 C293 1.390 . S
C295 C296 1.387 1_545 S
C295 H298 0.950 . S
C296 C295 1.387 1_565 S
C296 C299 1.387 . S
H297 C293 0.950 . S
H298 C295 0.950 . S
C299 C290 1.390 . S
C299 H292 0.950 . S
C299 C296 1.387 . S
C121 C86 1.390 . S
C126 C8 1.332 . S
C131 C106 1.392 . S
C136 C28 1.333 . S
C141 C6 1.390 . S
C146 C48 1.334 . S
C151 C26 1.391 . S
C156 C68 1.330 . S
C161 C46 1.392 . S
C166 C88 1.334 . S
C171 C66 1.390 . S
C176 C108 1.331 . S
C181 C1 1.149 . S
C186 C61 1.149 . S
C191 C81 1.155 . S
C196 C21 1.155 . S
C201 C101 1.149 . S
C206 C41 1.149 . S
C211 C49 1.131 . S
C216 C109 1.131 . S
C221 C9 1.127 . S
C226 C69 1.127 . S
C231 C89 1.131 . S
C236 C29 1.131 . S
C241 C116 1.563 . S
C246 C19 1.533 . S
C251 C39 1.535 . S
C256 C16 1.565 . S
C261 C59 1.534 . S
C266 C36 1.563 . S
C271 C56 1.563 . S
C276 C79 1.534 . S
C281 C99 1.535 . S
C286 C76 1.565 . S
C291 C119 1.535 . S
C296 C96 1.564 . S
